# Generated by pormake.
# Topology tzs, (4)-cn, num edge types: 1
# Building blocks:
#     Node 0, Type 0, BuildingBlock: QUQFOY_clean_sbu_3, # of connection points: 4
#     Node 1, Type 0, BuildingBlock: QUQFOY_clean_sbu_3, # of connection points: 4
#     Node 2, Type 0, BuildingBlock: QUQFOY_clean_sbu_3, # of connection points: 4
#     Node 3, Type 0, BuildingBlock: QUQFOY_clean_sbu_3, # of connection points: 4
#     Node 4, Type 0, BuildingBlock: QUQFOY_clean_sbu_3, # of connection points: 4
#     Node 5, Type 0, BuildingBlock: QUQFOY_clean_sbu_3, # of connection points: 4
#     Node 6, Type 0, BuildingBlock: QUQFOY_clean_sbu_3, # of connection points: 4
#     Node 7, Type 0, BuildingBlock: QUQFOY_clean_sbu_3, # of connection points: 4
#     Node 8, Type 0, BuildingBlock: QUQFOY_clean_sbu_3, # of connection points: 4
#     Node 9, Type 0, BuildingBlock: QUQFOY_clean_sbu_3, # of connection points: 4
#     Node 10, Type 0, BuildingBlock: QUQFOY_clean_sbu_3, # of connection points: 4
#     Node 11, Type 0, BuildingBlock: QUQFOY_clean_sbu_3, # of connection points: 4
#     Node 12, Type 0, BuildingBlock: QUQFOY_clean_sbu_3, # of connection points: 4
#     Node 13, Type 0, BuildingBlock: QUQFOY_clean_sbu_3, # of connection points: 4
#     Node 14, Type 0, BuildingBlock: QUQFOY_clean_sbu_3, # of connection points: 4
#     Node 15, Type 0, BuildingBlock: QUQFOY_clean_sbu_3, # of connection points: 4
#     Edge 16, Type (0, 0), BuildingBlock: EYOCIG_clean_linker_4, # of connection points: 2
#     Edge 17, Type (0, 0), BuildingBlock: EYOCIG_clean_linker_4, # of connection points: 2
#     Edge 18, Type (0, 0), BuildingBlock: EYOCIG_clean_linker_4, # of connection points: 2
#     Edge 19, Type (0, 0), BuildingBlock: EYOCIG_clean_linker_4, # of connection points: 2
#     Edge 20, Type (0, 0), BuildingBlock: EYOCIG_clean_linker_4, # of connection points: 2
#     Edge 21, Type (0, 0), BuildingBlock: EYOCIG_clean_linker_4, # of connection points: 2
#     Edge 22, Type (0, 0), BuildingBlock: EYOCIG_clean_linker_4, # of connection points: 2
#     Edge 23, Type (0, 0), BuildingBlock: EYOCIG_clean_linker_4, # of connection points: 2
#     Edge 24, Type (0, 0), BuildingBlock: EYOCIG_clean_linker_4, # of connection points: 2
#     Edge 25, Type (0, 0), BuildingBlock: EYOCIG_clean_linker_4, # of connection points: 2
#     Edge 26, Type (0, 0), BuildingBlock: EYOCIG_clean_linker_4, # of connection points: 2
#     Edge 27, Type (0, 0), BuildingBlock: EYOCIG_clean_linker_4, # of connection points: 2
#     Edge 28, Type (0, 0), BuildingBlock: EYOCIG_clean_linker_4, # of connection points: 2
#     Edge 29, Type (0, 0), BuildingBlock: EYOCIG_clean_linker_4, # of connection points: 2
#     Edge 30, Type (0, 0), BuildingBlock: EYOCIG_clean_linker_4, # of connection points: 2
#     Edge 31, Type (0, 0), BuildingBlock: EYOCIG_clean_linker_4, # of connection points: 2
#     Edge 32, Type (0, 0), BuildingBlock: EYOCIG_clean_linker_4, # of connection points: 2
#     Edge 33, Type (0, 0), BuildingBlock: EYOCIG_clean_linker_4, # of connection points: 2
#     Edge 34, Type (0, 0), BuildingBlock: EYOCIG_clean_linker_4, # of connection points: 2
#     Edge 35, Type (0, 0), BuildingBlock: EYOCIG_clean_linker_4, # of connection points: 2
#     Edge 36, Type (0, 0), BuildingBlock: EYOCIG_clean_linker_4, # of connection points: 2
#     Edge 37, Type (0, 0), BuildingBlock: EYOCIG_clean_linker_4, # of connection points: 2
#     Edge 38, Type (0, 0), BuildingBlock: EYOCIG_clean_linker_4, # of connection points: 2
#     Edge 39, Type (0, 0), BuildingBlock: EYOCIG_clean_linker_4, # of connection points: 2
#     Edge 40, Type (0, 0), BuildingBlock: EYOCIG_clean_linker_4, # of connection points: 2
#     Edge 41, Type (0, 0), BuildingBlock: EYOCIG_clean_linker_4, # of connection points: 2
#     Edge 42, Type (0, 0), BuildingBlock: EYOCIG_clean_linker_4, # of connection points: 2
#     Edge 43, Type (0, 0), BuildingBlock: EYOCIG_clean_linker_4, # of connection points: 2
#     Edge 44, Type (0, 0), BuildingBlock: EYOCIG_clean_linker_4, # of connection points: 2
#     Edge 45, Type (0, 0), BuildingBlock: EYOCIG_clean_linker_4, # of connection points: 2
#     Edge 46, Type (0, 0), BuildingBlock: EYOCIG_clean_linker_4, # of connection points: 2
#     Edge 47, Type (0, 0), BuildingBlock: EYOCIG_clean_linker_4, # of connection points: 2
# Relax obj value: 0.117
# Max RMSD: 0.119
# Mean RMSD: 0.119
data_MOF--net-tzs--node1-QUQFOY_clean_sbu_3--edge1-EYOCIG_clean_linker_4
_symmetry_space_group_name_H-M    P1
_symmetry_Int_Tables_number       1
_symmetry_cell_setting            triclinic
loop_
_symmetry_equiv_pos_as_xyz
'x, y, z'
_cell_length_a     41.24437
_cell_length_b     41.276015
_cell_length_c     33.203704
_cell_angle_alpha  89.964404
_cell_angle_beta   90.03337
_cell_angle_gamma 89.976345
loop_
_atom_site_label
_atom_site_type_symbol
_atom_site_fract_x
_atom_site_fract_y
_atom_site_fract_z
_atom_type_partial_charge
C0 C 0.04175 0.31274 0.1748 0.0
O1 O 0.03444 0.33252 0.14702 0.0
Cd2 Cd 0.07261 0.36025 0.10605 0.0
O3 O 0.0711 0.30664 0.18397 0.0
Cd4 Cd 0.12545 0.32293 0.15889 0.0
C5 C 0.11345 0.40371 0.17809 0.0
O6 O 0.1084 0.31677 0.08967 0.0
O7 O 0.15749 0.33388 0.09705 0.0
O8 O 0.13933 0.26717 0.17637 0.0
C9 C 0.13526 0.32385 0.07389 0.0
O10 O 0.09456 0.40392 0.14783 0.0
C11 C 0.16608 0.27426 0.19288 0.0
O12 O 0.12683 0.3776 0.19007 0.0
O13 O 0.17377 0.30398 0.19482 0.0
C14 C 0.6393 0.04173 0.17567 0.0
O15 O 0.61961 0.0342 0.14787 0.0
Cd16 Cd 0.59193 0.07199 0.10623 0.0
O17 O 0.64531 0.07112 0.1845 0.0
Cd18 Cd 0.62883 0.12517 0.15864 0.0
C19 C 0.54797 0.11304 0.17749 0.0
O20 O 0.63552 0.10762 0.08971 0.0
O21 O 0.61822 0.1567 0.09628 0.0
O22 O 0.68437 0.13959 0.17661 0.0
C23 C 0.62852 0.13435 0.07352 0.0
O24 O 0.54791 0.09401 0.14742 0.0
C25 C 0.6769 0.16639 0.19267 0.0
O26 O 0.57401 0.12654 0.18945 0.0
O27 O 0.64708 0.17385 0.19414 0.0
C28 C 0.91047 0.63915 0.17563 0.0
O29 O 0.91804 0.61939 0.14797 0.0
Cd30 Cd 0.88023 0.59162 0.10648 0.0
O31 O 0.88105 0.64517 0.18441 0.0
Cd32 Cd 0.82702 0.62867 0.15862 0.0
C33 C 0.83901 0.54789 0.17785 0.0
O34 O 0.84457 0.63515 0.08963 0.0
O35 O 0.79539 0.61809 0.09638 0.0
O36 O 0.81298 0.68429 0.17626 0.0
C37 C 0.81777 0.62823 0.07353 0.0
O38 O 0.85811 0.54776 0.14783 0.0
C39 C 0.78611 0.67708 0.19235 0.0
O40 O 0.8255 0.57396 0.18968 0.0
O41 O 0.77842 0.64736 0.19397 0.0
C42 C 0.31331 0.90965 0.17637 0.0
O43 O 0.33281 0.91725 0.14842 0.0
Cd44 Cd 0.36038 0.87954 0.10662 0.0
O45 O 0.30735 0.88023 0.18518 0.0
Cd46 Cd 0.3236 0.82624 0.15905 0.0
C47 C 0.40443 0.8384 0.17788 0.0
O48 O 0.31696 0.84372 0.09002 0.0
O49 O 0.33452 0.79474 0.09684 0.0
O50 O 0.26801 0.81186 0.17668 0.0
C51 C 0.32418 0.81702 0.07395 0.0
O52 O 0.40443 0.85747 0.14781 0.0
C53 C 0.27542 0.78511 0.19295 0.0
O54 O 0.37843 0.82485 0.18987 0.0
O55 O 0.30522 0.77764 0.19466 0.0
C56 C 0.04208 0.63911 0.27116 0.0
O57 O 0.03424 0.61948 0.29887 0.0
Cd58 Cd 0.07157 0.59164 0.341 0.0
O59 O 0.07159 0.64496 0.26266 0.0
Cd60 Cd 0.12536 0.62825 0.28917 0.0
C61 C 0.11312 0.54745 0.27039 0.0
O62 O 0.10736 0.63499 0.35795 0.0
O63 O 0.15646 0.61754 0.35179 0.0
O64 O 0.13983 0.68377 0.27151 0.0
C65 C 0.134 0.62789 0.37436 0.0
O66 O 0.09381 0.54753 0.30021 0.0
C67 C 0.16676 0.67638 0.25567 0.0
O68 O 0.12682 0.57341 0.25851 0.0
O69 O 0.1743 0.64661 0.25419 0.0
C70 C 0.31356 0.04128 0.27271 0.0
O71 O 0.33322 0.03383 0.30059 0.0
Cd72 Cd 0.36078 0.0718 0.34205 0.0
O73 O 0.30744 0.07065 0.26379 0.0
Cd74 Cd 0.32349 0.12482 0.28951 0.0
C75 C 0.40437 0.11299 0.27046 0.0
O76 O 0.31722 0.10746 0.35861 0.0
O77 O 0.33439 0.15654 0.35158 0.0
O78 O 0.26768 0.13873 0.27211 0.0
C79 C 0.32431 0.13424 0.37458 0.0
O80 O 0.40455 0.09398 0.30059 0.0
C81 C 0.27477 0.16552 0.25573 0.0
O82 O 0.37825 0.12641 0.25852 0.0
O83 O 0.30451 0.17321 0.25383 0.0
C84 C 0.91004 0.3126 0.27045 0.0
O85 O 0.918 0.33212 0.29821 0.0
Cd86 Cd 0.88083 0.35982 0.34063 0.0
O87 O 0.8805 0.30674 0.26212 0.0
Cd88 Cd 0.82685 0.32331 0.28911 0.0
C89 C 0.83904 0.40412 0.27024 0.0
O90 O 0.84507 0.3165 0.35788 0.0
O91 O 0.79597 0.33399 0.35184 0.0
O92 O 0.81228 0.26783 0.27145 0.0
C93 C 0.81849 0.32364 0.37437 0.0
O94 O 0.85847 0.40401 0.29997 0.0
C95 C 0.78532 0.27525 0.25566 0.0
O96 O 0.82527 0.37818 0.25844 0.0
O97 O 0.77779 0.30503 0.25425 0.0
C98 C 0.63949 0.91006 0.27164 0.0
O99 O 0.61995 0.91766 0.29954 0.0
Cd100 Cd 0.59236 0.87997 0.34139 0.0
O101 O 0.64545 0.88064 0.26288 0.0
Cd102 Cd 0.62917 0.82669 0.28906 0.0
C103 C 0.5483 0.83872 0.27035 0.0
O104 O 0.63578 0.84413 0.35806 0.0
O105 O 0.61836 0.79511 0.35125 0.0
O106 O 0.68482 0.8125 0.27154 0.0
C107 C 0.62863 0.81739 0.37414 0.0
O108 O 0.5483 0.85782 0.30036 0.0
C109 C 0.67753 0.78574 0.25525 0.0
O110 O 0.57432 0.82521 0.25833 0.0
O111 O 0.64775 0.77818 0.25348 0.0
C112 C 0.81337 0.54173 0.77257 0.0
O113 O 0.83292 0.53429 0.80057 0.0
Cd114 Cd 0.86044 0.57224 0.84208 0.0
O115 O 0.80736 0.57111 0.76352 0.0
Cd116 Cd 0.8236 0.62527 0.78918 0.0
C117 C 0.90447 0.61305 0.77059 0.0
O118 O 0.81691 0.60807 0.85828 0.0
O119 O 0.83444 0.65703 0.85124 0.0
O120 O 0.768 0.6397 0.7714 0.0
C121 C 0.82405 0.63485 0.87421 0.0
O122 O 0.90448 0.59413 0.80081 0.0
C123 C 0.77543 0.66644 0.75511 0.0
O124 O 0.87844 0.62652 0.75845 0.0
O125 O 0.80524 0.67383 0.75338 0.0
C126 C 0.41071 0.81183 0.77217 0.0
O127 O 0.41847 0.83135 0.80002 0.0
Cd128 Cd 0.38098 0.85926 0.84177 0.0
O129 O 0.38123 0.80612 0.76334 0.0
Cd130 Cd 0.32733 0.82296 0.7893 0.0
C131 C 0.34013 0.90371 0.77063 0.0
O132 O 0.34486 0.81608 0.85829 0.0
O133 O 0.29589 0.83378 0.85162 0.0
O134 O 0.31261 0.76758 0.77133 0.0
C135 C 0.31818 0.82333 0.87444 0.0
O136 O 0.35924 0.90353 0.80067 0.0
C137 C 0.28584 0.77517 0.75519 0.0
O138 O 0.32637 0.87783 0.75863 0.0
O139 O 0.2785 0.80499 0.7537 0.0
C140 C 0.14026 0.41019 0.77121 0.0
O141 O 0.12065 0.41804 0.79893 0.0
Cd142 Cd 0.09274 0.38079 0.84102 0.0
O143 O 0.14609 0.38069 0.7627 0.0
Cd144 Cd 0.1292 0.32699 0.78923 0.0
C145 C 0.0484 0.33962 0.77023 0.0
O146 O 0.13598 0.34483 0.8581 0.0
O147 O 0.11825 0.29589 0.85176 0.0
O148 O 0.18465 0.31195 0.77165 0.0
C149 C 0.12873 0.31822 0.87442 0.0
O150 O 0.04848 0.35885 0.80011 0.0
C151 C 0.17698 0.28517 0.75568 0.0
O152 O 0.07435 0.32586 0.75842 0.0
O153 O 0.14711 0.27798 0.75411 0.0
C154 C 0.54193 0.13963 0.77271 0.0
O155 O 0.53437 0.11985 0.80038 0.0
Cd156 Cd 0.57217 0.09171 0.84153 0.0
O157 O 0.57136 0.14549 0.76376 0.0
Cd158 Cd 0.62544 0.12857 0.78917 0.0
C159 C 0.6128 0.04794 0.76968 0.0
O160 O 0.6082 0.13491 0.85827 0.0
O161 O 0.65718 0.11736 0.85121 0.0
O162 O 0.6399 0.18419 0.77185 0.0
C163 C 0.63497 0.12764 0.87421 0.0
O164 O 0.59384 0.04785 0.79983 0.0
C165 C 0.66666 0.17685 0.75557 0.0
O166 O 0.62644 0.07395 0.75785 0.0
O167 O 0.67409 0.14706 0.75366 0.0
C168 C 0.81318 0.41009 0.67612 0.0
O169 O 0.83255 0.41769 0.64803 0.0
Cd170 Cd 0.86018 0.37999 0.60628 0.0
O171 O 0.80736 0.38066 0.68505 0.0
Cd172 Cd 0.82366 0.32664 0.65903 0.0
C173 C 0.9045 0.33917 0.67763 0.0
O174 O 0.81696 0.34389 0.58993 0.0
O175 O 0.83477 0.29502 0.59695 0.0
O176 O 0.76806 0.3122 0.67659 0.0
C177 C 0.82435 0.31719 0.57395 0.0
O178 O 0.90437 0.35818 0.64749 0.0
C179 C 0.77547 0.28551 0.69302 0.0
O180 O 0.87856 0.32554 0.68972 0.0
O181 O 0.80529 0.2781 0.69487 0.0
C182 C 0.54199 0.81219 0.67606 0.0
O183 O 0.53414 0.8317 0.64821 0.0
Cd184 Cd 0.57152 0.85967 0.60633 0.0
O185 O 0.5715 0.80652 0.68481 0.0
Cd186 Cd 0.62531 0.82341 0.65867 0.0
C187 C 0.6125 0.90418 0.67718 0.0
O188 O 0.60774 0.81658 0.58971 0.0
O189 O 0.65668 0.83434 0.59638 0.0
O190 O 0.64001 0.76794 0.67634 0.0
C191 C 0.63442 0.82388 0.57357 0.0
O192 O 0.59332 0.90397 0.64721 0.0
C193 C 0.6668 0.77541 0.69249 0.0
O194 O 0.6263 0.8783 0.68923 0.0
O195 O 0.67416 0.80522 0.69415 0.0
C196 C 0.13994 0.54173 0.67559 0.0
O197 O 0.1202 0.53415 0.64787 0.0
Cd198 Cd 0.09214 0.57184 0.60645 0.0
O199 O 0.14582 0.57114 0.68447 0.0
Cd200 Cd 0.12896 0.62514 0.65879 0.0
C201 C 0.04821 0.61272 0.67791 0.0
O202 O 0.1353 0.6079 0.5897 0.0
O203 O 0.11757 0.65678 0.59676 0.0
O204 O 0.18458 0.63989 0.67587 0.0
C205 C 0.12789 0.63461 0.57375 0.0
O206 O 0.04815 0.59372 0.64781 0.0
C207 C 0.17711 0.66653 0.69234 0.0
O208 O 0.07423 0.62628 0.68985 0.0
O209 O 0.14726 0.67375 0.69446 0.0
C210 C 0.41039 0.13971 0.67731 0.0
O211 O 0.41837 0.12016 0.64959 0.0
Cd212 Cd 0.38122 0.09209 0.60751 0.0
O213 O 0.38084 0.14536 0.68581 0.0
Cd214 Cd 0.32718 0.12833 0.65931 0.0
C215 C 0.34012 0.04763 0.67829 0.0
O216 O 0.34504 0.13514 0.59045 0.0
O217 O 0.2961 0.11734 0.59675 0.0
O218 O 0.31223 0.18374 0.6769 0.0
C219 C 0.31845 0.1278 0.5741 0.0
O220 O 0.3594 0.04782 0.64844 0.0
C221 C 0.28543 0.17615 0.6929 0.0
O222 O 0.32622 0.0735 0.6901 0.0
O223 O 0.27815 0.14631 0.69445 0.0
C224 C 0.22937 0.20578 0.23065 0.0
C225 C 0.24992 0.18722 0.24219 0.0
C226 C 0.2063 0.22888 0.21808 0.0
C227 C 0.18777 0.24942 0.20648 0.0
C228 C 0.74474 0.23022 0.23058 0.0
C229 C 0.76337 0.25068 0.24209 0.0
C230 C 0.72176 0.20707 0.21798 0.0
C231 C 0.70143 0.18835 0.20635 0.0
C232 C 0.74576 0.7223 0.21747 0.0
C233 C 0.76434 0.70182 0.20592 0.0
C234 C 0.7227 0.74537 0.23005 0.0
C235 C 0.70223 0.76395 0.24164 0.0
C236 C 0.23041 0.74455 0.21817 0.0
C237 C 0.25081 0.7632 0.20658 0.0
C238 C 0.20737 0.72144 0.23071 0.0
C239 C 0.18871 0.70099 0.24217 0.0
C240 C 0.70747 0.73038 0.71754 0.0
C241 C 0.68882 0.75086 0.70606 0.0
C242 C 0.73047 0.70718 0.73003 0.0
C243 C 0.75084 0.68843 0.74156 0.0
C244 C 0.22206 0.70727 0.71727 0.0
C245 C 0.20167 0.68855 0.70582 0.0
C246 C 0.24512 0.73036 0.72981 0.0
C247 C 0.2638 0.75073 0.74145 0.0
C248 C 0.22166 0.24416 0.73061 0.0
C249 C 0.20137 0.26299 0.74211 0.0
C250 C 0.24465 0.22099 0.71806 0.0
C251 C 0.26334 0.20059 0.70654 0.0
C252 C 0.70729 0.22193 0.7307 0.0
C253 C 0.6886 0.20149 0.74213 0.0
C254 C 0.7304 0.245 0.71822 0.0
C255 C 0.75086 0.26361 0.70665 0.0
C256 C 0.13539 0.31485 0.95311 0.0
C257 C 0.13168 0.31445 0.91714 0.0
C258 C 0.13888 0.31804 -0.00484 0.0
C259 C 0.13933 0.32139 0.03117 0.0
C260 C 0.63861 0.13407 0.95287 0.0
C261 C 0.63905 0.13042 0.9169 0.0
C262 C 0.63514 0.1376 -0.00514 0.0
C263 C 0.63143 0.13817 0.03082 0.0
C264 C 0.81767 0.63844 0.95287 0.0
C265 C 0.82129 0.63887 0.9169 0.0
C266 C 0.81428 0.63495 -0.00511 0.0
C267 C 0.81383 0.63122 0.03084 0.0
C268 C 0.31807 0.81361 -0.00479 0.0
C269 C 0.32154 0.81316 0.03121 0.0
C270 C 0.31478 0.81698 0.95315 0.0
C271 C 0.31434 0.82056 0.91716 0.0
C272 C 0.13378 0.63811 0.49503 0.0
C273 C 0.13037 0.6386 0.53103 0.0
C274 C 0.13711 0.6346 0.45302 0.0
C275 C 0.13765 0.63087 0.41707 0.0
C276 C 0.31519 0.13425 0.49538 0.0
C277 C 0.31474 0.13063 0.53136 0.0
C278 C 0.31842 0.13768 0.45333 0.0
C279 C 0.32179 0.13815 0.41731 0.0
C280 C 0.81544 0.31709 0.4531 0.0
C281 C 0.81494 0.32072 0.41712 0.0
C282 C 0.81863 0.3137 0.49517 0.0
C283 C 0.82194 0.31327 0.5312 0.0
C284 C 0.63796 0.81739 0.4949 0.0
C285 C 0.63832 0.82103 0.53087 0.0
C286 C 0.63472 0.81396 0.45286 0.0
C287 C 0.63126 0.81351 0.41686 0.0
C288 C 0.12101 0.49108 0.23348 0.0
C289 C 0.11835 0.51742 0.24913 0.0
C290 C 0.12108 0.45989 0.21551 0.0
C291 C 0.11855 0.4336 0.19969 0.0
C292 C 0.49172 0.12076 0.21485 0.0
C293 C 0.518 0.11815 0.19899 0.0
C294 C 0.46057 0.12076 0.23301 0.0
C295 C 0.43429 0.11815 0.24889 0.0
C296 C 0.83117 0.49168 0.21521 0.0
C297 C 0.8338 0.51797 0.19938 0.0
C298 C 0.83117 0.46049 0.23323 0.0
C299 C 0.83381 0.43414 0.24893 0.0
C300 C 0.49195 0.83087 0.23323 0.0
C301 C 0.51827 0.83353 0.24898 0.0
C302 C 0.46075 0.83079 0.21516 0.0
C303 C 0.43443 0.83333 0.19935 0.0
C304 C 0.79163 0.49119 0.73358 0.0
C305 C 0.79972 0.51612 0.74921 0.0
C306 C 0.79156 0.46047 0.71553 0.0
C307 C 0.79959 0.43557 0.69974 0.0
C308 C 0.49181 0.78978 0.71518 0.0
C309 C 0.51667 0.79813 0.69954 0.0
C310 C 0.46103 0.78967 0.73312 0.0
C311 C 0.43611 0.79789 0.74872 0.0
C312 C 0.16241 0.4604 0.73196 0.0
C313 C 0.15425 0.43548 0.74762 0.0
C314 C 0.16231 0.49123 0.71416 0.0
C315 C 0.154 0.51621 0.69876 0.0
C316 C 0.4605 0.16211 0.71656 0.0
C317 C 0.43562 0.15382 0.7009 0.0
C318 C 0.49136 0.16209 0.73432 0.0
C319 C 0.51638 0.15375 0.74964 0.0
C320 C 0.62017 -0.00823 0.73213 0.0
C321 C 0.61776 0.01804 0.74804 0.0
C322 C 0.62008 0.9606 0.71408 0.0
C323 C 0.61753 0.93427 0.6984 0.0
C324 C 0.96077 0.62052 0.73331 0.0
C325 C 0.93446 0.61803 0.74912 0.0
C326 C -0.00806 0.62044 0.71521 0.0
C327 C 0.01823 0.61783 0.69938 0.0
C328 C 0.33265 -0.00873 0.71543 0.0
C329 C 0.33514 0.01759 0.69965 0.0
C330 C 0.33267 0.96009 0.73349 0.0
C331 C 0.33516 0.93376 0.74927 0.0
C332 C -0.00794 0.33193 0.73299 0.0
C333 C 0.01837 0.33453 0.74883 0.0
C334 C 0.96088 0.33183 0.71487 0.0
C335 C 0.93455 0.33427 0.69906 0.0
C336 C 0.29174 -0.00924 0.23375 0.0
C337 C 0.29986 0.01568 0.24938 0.0
C338 C 0.29166 0.96004 0.21571 0.0
C339 C 0.29968 0.93513 0.19995 0.0
C340 C 0.96014 0.29058 0.23085 0.0
C341 C 0.93527 0.2987 0.24667 0.0
C342 C -0.00904 0.29065 0.21303 0.0
C343 C 0.01602 0.29887 0.19775 0.0
C344 C 0.66135 0.96044 0.23245 0.0
C345 C 0.65324 0.93552 0.24814 0.0
C346 C 0.66133 -0.00878 0.21453 0.0
C347 C 0.65316 0.01618 0.19898 0.0
C348 C -0.00816 0.66141 0.23202 0.0
C349 C 0.01675 0.65316 0.24764 0.0
C350 C 0.96099 0.6614 0.21423 0.0
C351 C 0.936 0.65315 0.19881 0.0
loop_
_geom_bond_atom_site_label_1
_geom_bond_atom_site_label_2
_geom_bond_distance
_geom_bond_site_symmetry_2
_ccdc_geom_bond_type
C0 O1 1.306 . S
C0 O3 1.160 . S
O1 C0 1.306 . S
O1 Cd2 2.228 . S
Cd2 O1 2.228 . S
Cd2 O6 2.273 . S
Cd2 O10 2.277 . S
O3 C0 1.160 . S
O3 Cd4 2.203 . S
Cd4 O3 2.203 . S
Cd4 O6 2.411 . S
Cd4 O7 2.333 . S
Cd4 O8 2.352 . S
Cd4 O12 2.277 . S
Cd4 O13 2.356 . S
C5 O10 1.209 . S
C5 O12 1.226 . S
O6 Cd2 2.273 . S
O6 Cd4 2.411 . S
O6 C9 1.320 . S
O7 Cd4 2.333 . S
O7 C9 1.214 . S
O8 Cd4 2.352 . S
O8 C11 1.258 . S
C9 O6 1.320 . S
C9 O7 1.214 . S
O10 Cd2 2.277 . S
O10 C5 1.209 . S
C11 O8 1.258 . S
C11 O13 1.282 . S
O12 Cd4 2.277 . S
O12 C5 1.226 . S
O13 Cd4 2.356 . S
O13 C11 1.282 . S
C14 O15 1.306 . S
C14 O17 1.160 . S
O15 C14 1.306 . S
O15 Cd16 2.228 . S
Cd16 O15 2.228 . S
Cd16 O20 2.273 . S
Cd16 O24 2.277 . S
O17 C14 1.160 . S
O17 Cd18 2.203 . S
Cd18 O17 2.203 . S
Cd18 O20 2.411 . S
Cd18 O21 2.333 . S
Cd18 O22 2.352 . S
Cd18 O26 2.277 . S
Cd18 O27 2.356 . S
C19 O24 1.209 . S
C19 O26 1.226 . S
O20 Cd16 2.273 . S
O20 Cd18 2.411 . S
O20 C23 1.320 . S
O21 Cd18 2.333 . S
O21 C23 1.214 . S
O22 Cd18 2.352 . S
O22 C25 1.258 . S
C23 O20 1.320 . S
C23 O21 1.214 . S
O24 Cd16 2.277 . S
O24 C19 1.209 . S
C25 O22 1.258 . S
C25 O27 1.282 . S
O26 Cd18 2.277 . S
O26 C19 1.226 . S
O27 Cd18 2.356 . S
O27 C25 1.282 . S
C28 O29 1.306 . S
C28 O31 1.160 . S
O29 C28 1.306 . S
O29 Cd30 2.228 . S
Cd30 O29 2.228 . S
Cd30 O34 2.273 . S
Cd30 O38 2.277 . S
O31 C28 1.160 . S
O31 Cd32 2.203 . S
Cd32 O31 2.203 . S
Cd32 O34 2.411 . S
Cd32 O35 2.333 . S
Cd32 O36 2.352 . S
Cd32 O40 2.277 . S
Cd32 O41 2.356 . S
C33 O38 1.209 . S
C33 O40 1.226 . S
O34 Cd30 2.273 . S
O34 Cd32 2.411 . S
O34 C37 1.320 . S
O35 Cd32 2.333 . S
O35 C37 1.214 . S
O36 Cd32 2.352 . S
O36 C39 1.258 . S
C37 O34 1.320 . S
C37 O35 1.214 . S
O38 Cd30 2.277 . S
O38 C33 1.209 . S
C39 O36 1.258 . S
C39 O41 1.282 . S
O40 Cd32 2.277 . S
O40 C33 1.226 . S
O41 Cd32 2.356 . S
O41 C39 1.282 . S
C42 O43 1.306 . S
C42 O45 1.160 . S
O43 C42 1.306 . S
O43 Cd44 2.228 . S
Cd44 O43 2.228 . S
Cd44 O48 2.273 . S
Cd44 O52 2.277 . S
O45 C42 1.160 . S
O45 Cd46 2.203 . S
Cd46 O45 2.203 . S
Cd46 O48 2.411 . S
Cd46 O49 2.333 . S
Cd46 O50 2.352 . S
Cd46 O54 2.277 . S
Cd46 O55 2.356 . S
C47 O52 1.209 . S
C47 O54 1.226 . S
O48 Cd44 2.273 . S
O48 Cd46 2.411 . S
O48 C51 1.320 . S
O49 Cd46 2.333 . S
O49 C51 1.214 . S
O50 Cd46 2.352 . S
O50 C53 1.258 . S
C51 O48 1.320 . S
C51 O49 1.214 . S
O52 Cd44 2.277 . S
O52 C47 1.209 . S
C53 O50 1.258 . S
C53 O55 1.282 . S
O54 Cd46 2.277 . S
O54 C47 1.226 . S
O55 Cd46 2.356 . S
O55 C53 1.282 . S
C56 O57 1.306 . S
C56 O59 1.160 . S
O57 C56 1.306 . S
O57 Cd58 2.228 . S
Cd58 O57 2.228 . S
Cd58 O62 2.273 . S
Cd58 O66 2.277 . S
O59 C56 1.160 . S
O59 Cd60 2.203 . S
Cd60 O59 2.203 . S
Cd60 O62 2.411 . S
Cd60 O63 2.333 . S
Cd60 O64 2.352 . S
Cd60 O68 2.277 . S
Cd60 O69 2.356 . S
C61 O66 1.209 . S
C61 O68 1.226 . S
O62 Cd58 2.273 . S
O62 Cd60 2.411 . S
O62 C65 1.320 . S
O63 Cd60 2.333 . S
O63 C65 1.214 . S
O64 Cd60 2.352 . S
O64 C67 1.258 . S
C65 O62 1.320 . S
C65 O63 1.214 . S
O66 Cd58 2.277 . S
O66 C61 1.209 . S
C67 O64 1.258 . S
C67 O69 1.282 . S
O68 Cd60 2.277 . S
O68 C61 1.226 . S
O69 Cd60 2.356 . S
O69 C67 1.282 . S
C70 O71 1.306 . S
C70 O73 1.160 . S
O71 C70 1.306 . S
O71 Cd72 2.228 . S
Cd72 O71 2.228 . S
Cd72 O76 2.273 . S
Cd72 O80 2.277 . S
O73 C70 1.160 . S
O73 Cd74 2.203 . S
Cd74 O73 2.203 . S
Cd74 O76 2.411 . S
Cd74 O77 2.333 . S
Cd74 O78 2.352 . S
Cd74 O82 2.277 . S
Cd74 O83 2.356 . S
C75 O80 1.209 . S
C75 O82 1.226 . S
O76 Cd72 2.273 . S
O76 Cd74 2.411 . S
O76 C79 1.320 . S
O77 Cd74 2.333 . S
O77 C79 1.214 . S
O78 Cd74 2.352 . S
O78 C81 1.258 . S
C79 O76 1.320 . S
C79 O77 1.214 . S
O80 Cd72 2.277 . S
O80 C75 1.209 . S
C81 O78 1.258 . S
C81 O83 1.282 . S
O82 Cd74 2.277 . S
O82 C75 1.226 . S
O83 Cd74 2.356 . S
O83 C81 1.282 . S
C84 O85 1.306 . S
C84 O87 1.160 . S
O85 C84 1.306 . S
O85 Cd86 2.228 . S
Cd86 O85 2.228 . S
Cd86 O90 2.273 . S
Cd86 O94 2.277 . S
O87 C84 1.160 . S
O87 Cd88 2.203 . S
Cd88 O87 2.203 . S
Cd88 O90 2.411 . S
Cd88 O91 2.333 . S
Cd88 O92 2.352 . S
Cd88 O96 2.277 . S
Cd88 O97 2.356 . S
C89 O94 1.209 . S
C89 O96 1.226 . S
O90 Cd86 2.273 . S
O90 Cd88 2.411 . S
O90 C93 1.320 . S
O91 Cd88 2.333 . S
O91 C93 1.214 . S
O92 Cd88 2.352 . S
O92 C95 1.258 . S
C93 O90 1.320 . S
C93 O91 1.214 . S
O94 Cd86 2.277 . S
O94 C89 1.209 . S
C95 O92 1.258 . S
C95 O97 1.282 . S
O96 Cd88 2.277 . S
O96 C89 1.226 . S
O97 Cd88 2.356 . S
O97 C95 1.282 . S
C98 O99 1.306 . S
C98 O101 1.160 . S
O99 C98 1.306 . S
O99 Cd100 2.228 . S
Cd100 O99 2.228 . S
Cd100 O104 2.273 . S
Cd100 O108 2.277 . S
O101 C98 1.160 . S
O101 Cd102 2.203 . S
Cd102 O101 2.203 . S
Cd102 O104 2.411 . S
Cd102 O105 2.333 . S
Cd102 O106 2.352 . S
Cd102 O110 2.277 . S
Cd102 O111 2.356 . S
C103 O108 1.209 . S
C103 O110 1.226 . S
O104 Cd100 2.273 . S
O104 Cd102 2.411 . S
O104 C107 1.320 . S
O105 Cd102 2.333 . S
O105 C107 1.214 . S
O106 Cd102 2.352 . S
O106 C109 1.258 . S
C107 O104 1.320 . S
C107 O105 1.214 . S
O108 Cd100 2.277 . S
O108 C103 1.209 . S
C109 O106 1.258 . S
C109 O111 1.282 . S
O110 Cd102 2.277 . S
O110 C103 1.226 . S
O111 Cd102 2.356 . S
O111 C109 1.282 . S
C112 O113 1.306 . S
C112 O115 1.160 . S
O113 C112 1.306 . S
O113 Cd114 2.228 . S
Cd114 O113 2.228 . S
Cd114 O118 2.273 . S
Cd114 O122 2.277 . S
O115 C112 1.160 . S
O115 Cd116 2.203 . S
Cd116 O115 2.203 . S
Cd116 O118 2.411 . S
Cd116 O119 2.333 . S
Cd116 O120 2.352 . S
Cd116 O124 2.277 . S
Cd116 O125 2.356 . S
C117 O122 1.209 . S
C117 O124 1.226 . S
O118 Cd114 2.273 . S
O118 Cd116 2.411 . S
O118 C121 1.320 . S
O119 Cd116 2.333 . S
O119 C121 1.214 . S
O120 Cd116 2.352 . S
O120 C123 1.258 . S
C121 O118 1.320 . S
C121 O119 1.214 . S
O122 Cd114 2.277 . S
O122 C117 1.209 . S
C123 O120 1.258 . S
C123 O125 1.282 . S
O124 Cd116 2.277 . S
O124 C117 1.226 . S
O125 Cd116 2.356 . S
O125 C123 1.282 . S
C126 O127 1.306 . S
C126 O129 1.160 . S
O127 C126 1.306 . S
O127 Cd128 2.228 . S
Cd128 O127 2.228 . S
Cd128 O132 2.273 . S
Cd128 O136 2.277 . S
O129 C126 1.160 . S
O129 Cd130 2.203 . S
Cd130 O129 2.203 . S
Cd130 O132 2.411 . S
Cd130 O133 2.333 . S
Cd130 O134 2.352 . S
Cd130 O138 2.277 . S
Cd130 O139 2.356 . S
C131 O136 1.209 . S
C131 O138 1.226 . S
O132 Cd128 2.273 . S
O132 Cd130 2.411 . S
O132 C135 1.320 . S
O133 Cd130 2.333 . S
O133 C135 1.214 . S
O134 Cd130 2.352 . S
O134 C137 1.258 . S
C135 O132 1.320 . S
C135 O133 1.214 . S
O136 Cd128 2.277 . S
O136 C131 1.209 . S
C137 O134 1.258 . S
C137 O139 1.282 . S
O138 Cd130 2.277 . S
O138 C131 1.226 . S
O139 Cd130 2.356 . S
O139 C137 1.282 . S
C140 O141 1.306 . S
C140 O143 1.160 . S
O141 C140 1.306 . S
O141 Cd142 2.228 . S
Cd142 O141 2.228 . S
Cd142 O146 2.273 . S
Cd142 O150 2.277 . S
O143 C140 1.160 . S
O143 Cd144 2.203 . S
Cd144 O143 2.203 . S
Cd144 O146 2.411 . S
Cd144 O147 2.333 . S
Cd144 O148 2.352 . S
Cd144 O152 2.277 . S
Cd144 O153 2.356 . S
C145 O150 1.209 . S
C145 O152 1.226 . S
O146 Cd142 2.273 . S
O146 Cd144 2.411 . S
O146 C149 1.320 . S
O147 Cd144 2.333 . S
O147 C149 1.214 . S
O148 Cd144 2.352 . S
O148 C151 1.258 . S
C149 O146 1.320 . S
C149 O147 1.214 . S
O150 Cd142 2.277 . S
O150 C145 1.209 . S
C151 O148 1.258 . S
C151 O153 1.282 . S
O152 Cd144 2.277 . S
O152 C145 1.226 . S
O153 Cd144 2.356 . S
O153 C151 1.282 . S
C154 O155 1.306 . S
C154 O157 1.160 . S
O155 C154 1.306 . S
O155 Cd156 2.228 . S
Cd156 O155 2.228 . S
Cd156 O160 2.273 . S
Cd156 O164 2.277 . S
O157 C154 1.160 . S
O157 Cd158 2.203 . S
Cd158 O157 2.203 . S
Cd158 O160 2.411 . S
Cd158 O161 2.333 . S
Cd158 O162 2.352 . S
Cd158 O166 2.277 . S
Cd158 O167 2.356 . S
C159 O164 1.209 . S
C159 O166 1.226 . S
O160 Cd156 2.273 . S
O160 Cd158 2.411 . S
O160 C163 1.320 . S
O161 Cd158 2.333 . S
O161 C163 1.214 . S
O162 Cd158 2.352 . S
O162 C165 1.258 . S
C163 O160 1.320 . S
C163 O161 1.214 . S
O164 Cd156 2.277 . S
O164 C159 1.209 . S
C165 O162 1.258 . S
C165 O167 1.282 . S
O166 Cd158 2.277 . S
O166 C159 1.226 . S
O167 Cd158 2.356 . S
O167 C165 1.282 . S
C168 O169 1.306 . S
C168 O171 1.160 . S
O169 C168 1.306 . S
O169 Cd170 2.228 . S
Cd170 O169 2.228 . S
Cd170 O174 2.273 . S
Cd170 O178 2.277 . S
O171 C168 1.160 . S
O171 Cd172 2.203 . S
Cd172 O171 2.203 . S
Cd172 O174 2.411 . S
Cd172 O175 2.333 . S
Cd172 O176 2.352 . S
Cd172 O180 2.277 . S
Cd172 O181 2.356 . S
C173 O178 1.209 . S
C173 O180 1.226 . S
O174 Cd170 2.273 . S
O174 Cd172 2.411 . S
O174 C177 1.320 . S
O175 Cd172 2.333 . S
O175 C177 1.214 . S
O176 Cd172 2.352 . S
O176 C179 1.258 . S
C177 O174 1.320 . S
C177 O175 1.214 . S
O178 Cd170 2.277 . S
O178 C173 1.209 . S
C179 O176 1.258 . S
C179 O181 1.282 . S
O180 Cd172 2.277 . S
O180 C173 1.226 . S
O181 Cd172 2.356 . S
O181 C179 1.282 . S
C182 O183 1.306 . S
C182 O185 1.160 . S
O183 C182 1.306 . S
O183 Cd184 2.228 . S
Cd184 O183 2.228 . S
Cd184 O188 2.273 . S
Cd184 O192 2.277 . S
O185 C182 1.160 . S
O185 Cd186 2.203 . S
Cd186 O185 2.203 . S
Cd186 O188 2.411 . S
Cd186 O189 2.333 . S
Cd186 O190 2.352 . S
Cd186 O194 2.277 . S
Cd186 O195 2.356 . S
C187 O192 1.209 . S
C187 O194 1.226 . S
O188 Cd184 2.273 . S
O188 Cd186 2.411 . S
O188 C191 1.320 . S
O189 Cd186 2.333 . S
O189 C191 1.214 . S
O190 Cd186 2.352 . S
O190 C193 1.258 . S
C191 O188 1.320 . S
C191 O189 1.214 . S
O192 Cd184 2.277 . S
O192 C187 1.209 . S
C193 O190 1.258 . S
C193 O195 1.282 . S
O194 Cd186 2.277 . S
O194 C187 1.226 . S
O195 Cd186 2.356 . S
O195 C193 1.282 . S
C196 O197 1.306 . S
C196 O199 1.160 . S
O197 C196 1.306 . S
O197 Cd198 2.228 . S
Cd198 O197 2.228 . S
Cd198 O202 2.273 . S
Cd198 O206 2.277 . S
O199 C196 1.160 . S
O199 Cd200 2.203 . S
Cd200 O199 2.203 . S
Cd200 O202 2.411 . S
Cd200 O203 2.333 . S
Cd200 O204 2.352 . S
Cd200 O208 2.277 . S
Cd200 O209 2.356 . S
C201 O206 1.209 . S
C201 O208 1.226 . S
O202 Cd198 2.273 . S
O202 Cd200 2.411 . S
O202 C205 1.320 . S
O203 Cd200 2.333 . S
O203 C205 1.214 . S
O204 Cd200 2.352 . S
O204 C207 1.258 . S
C205 O202 1.320 . S
C205 O203 1.214 . S
O206 Cd198 2.277 . S
O206 C201 1.209 . S
C207 O204 1.258 . S
C207 O209 1.282 . S
O208 Cd200 2.277 . S
O208 C201 1.226 . S
O209 Cd200 2.356 . S
O209 C207 1.282 . S
C210 O211 1.306 . S
C210 O213 1.160 . S
O211 C210 1.306 . S
O211 Cd212 2.228 . S
Cd212 O211 2.228 . S
Cd212 O216 2.273 . S
Cd212 O220 2.277 . S
O213 C210 1.160 . S
O213 Cd214 2.203 . S
Cd214 O213 2.203 . S
Cd214 O216 2.411 . S
Cd214 O217 2.333 . S
Cd214 O218 2.352 . S
Cd214 O222 2.277 . S
Cd214 O223 2.356 . S
C215 O220 1.209 . S
C215 O222 1.226 . S
O216 Cd212 2.273 . S
O216 Cd214 2.411 . S
O216 C219 1.320 . S
O217 Cd214 2.333 . S
O217 C219 1.214 . S
O218 Cd214 2.352 . S
O218 C221 1.258 . S
C219 O216 1.320 . S
C219 O217 1.214 . S
O220 Cd212 2.277 . S
O220 C215 1.209 . S
C221 O218 1.258 . S
C221 O223 1.282 . S
O222 Cd214 2.277 . S
O222 C215 1.226 . S
O223 Cd214 2.356 . S
O223 C221 1.282 . S
C224 C225 1.170 . S
C224 C226 1.380 . S
C225 C224 1.170 . S
C226 C224 1.380 . S
C226 C227 1.170 . S
C227 C226 1.170 . S
C228 C229 1.170 . S
C228 C230 1.380 . S
C229 C228 1.170 . S
C230 C228 1.380 . S
C230 C231 1.170 . S
C231 C230 1.170 . S
C232 C233 1.170 . S
C232 C234 1.380 . S
C233 C232 1.170 . S
C234 C232 1.380 . S
C234 C235 1.170 . S
C235 C234 1.170 . S
C236 C237 1.170 . S
C236 C238 1.380 . S
C237 C236 1.170 . S
C238 C236 1.380 . S
C238 C239 1.170 . S
C239 C238 1.170 . S
C240 C241 1.170 . S
C240 C242 1.380 . S
C241 C240 1.170 . S
C242 C240 1.380 . S
C242 C243 1.170 . S
C243 C242 1.170 . S
C244 C245 1.170 . S
C244 C246 1.380 . S
C245 C244 1.170 . S
C246 C244 1.380 . S
C246 C247 1.170 . S
C247 C246 1.170 . S
C248 C249 1.170 . S
C248 C250 1.380 . S
C249 C248 1.170 . S
C250 C248 1.380 . S
C250 C251 1.170 . S
C251 C250 1.170 . S
C252 C253 1.170 . S
C252 C254 1.380 . S
C253 C252 1.170 . S
C254 C252 1.380 . S
C254 C255 1.170 . S
C255 C254 1.170 . S
C256 C257 1.170 . S
C256 C258 1.380 1_556 S
C257 C256 1.170 . S
C258 C256 1.380 1_554 S
C258 C259 1.170 . S
C259 C258 1.170 . S
C260 C261 1.170 . S
C260 C262 1.380 1_556 S
C261 C260 1.170 . S
C262 C260 1.380 1_554 S
C262 C263 1.170 . S
C263 C262 1.170 . S
C264 C265 1.170 . S
C264 C266 1.380 1_556 S
C265 C264 1.170 . S
C266 C264 1.380 1_554 S
C266 C267 1.170 . S
C267 C266 1.170 . S
C268 C269 1.170 . S
C268 C270 1.380 1_554 S
C269 C268 1.170 . S
C270 C268 1.380 1_556 S
C270 C271 1.170 . S
C271 C270 1.170 . S
C272 C273 1.170 . S
C272 C274 1.380 . S
C273 C272 1.170 . S
C274 C272 1.380 . S
C274 C275 1.170 . S
C275 C274 1.170 . S
C276 C277 1.170 . S
C276 C278 1.380 . S
C277 C276 1.170 . S
C278 C276 1.380 . S
C278 C279 1.170 . S
C279 C278 1.170 . S
C280 C281 1.170 . S
C280 C282 1.380 . S
C281 C280 1.170 . S
C282 C280 1.380 . S
C282 C283 1.170 . S
C283 C282 1.170 . S
C284 C285 1.170 . S
C284 C286 1.380 . S
C285 C284 1.170 . S
C286 C284 1.380 . S
C286 C287 1.170 . S
C287 C286 1.170 . S
C288 C289 1.170 . S
C288 C290 1.380 . S
C289 C288 1.170 . S
C290 C288 1.380 . S
C290 C291 1.170 . S
C291 C290 1.170 . S
C292 C293 1.170 . S
C292 C294 1.380 . S
C293 C292 1.170 . S
C294 C292 1.380 . S
C294 C295 1.170 . S
C295 C294 1.170 . S
C296 C297 1.170 . S
C296 C298 1.380 . S
C297 C296 1.170 . S
C298 C296 1.380 . S
C298 C299 1.170 . S
C299 C298 1.170 . S
C300 C301 1.170 . S
C300 C302 1.380 . S
C301 C300 1.170 . S
C302 C300 1.380 . S
C302 C303 1.170 . S
C303 C302 1.170 . S
C304 C305 1.170 . S
C304 C306 1.380 . S
C305 C304 1.170 . S
C306 C304 1.380 . S
C306 C307 1.170 . S
C307 C306 1.170 . S
C308 C309 1.170 . S
C308 C310 1.380 . S
C309 C308 1.170 . S
C310 C308 1.380 . S
C310 C311 1.170 . S
C311 C310 1.170 . S
C312 C313 1.170 . S
C312 C314 1.380 . S
C313 C312 1.170 . S
C314 C312 1.380 . S
C314 C315 1.170 . S
C315 C314 1.170 . S
C316 C317 1.170 . S
C316 C318 1.380 . S
C317 C316 1.170 . S
C318 C316 1.380 . S
C318 C319 1.170 . S
C319 C318 1.170 . S
C320 C321 1.170 . S
C320 C322 1.380 1_545 S
C321 C320 1.170 . S
C322 C320 1.380 1_565 S
C322 C323 1.170 . S
C323 C322 1.170 . S
C324 C325 1.170 . S
C324 C326 1.380 1_655 S
C325 C324 1.170 . S
C326 C324 1.380 1_455 S
C326 C327 1.170 . S
C327 C326 1.170 . S
C328 C329 1.170 . S
C328 C330 1.380 1_545 S
C329 C328 1.170 . S
C330 C328 1.380 1_565 S
C330 C331 1.170 . S
C331 C330 1.170 . S
C332 C333 1.170 . S
C332 C334 1.380 1_455 S
C333 C332 1.170 . S
C334 C332 1.380 1_655 S
C334 C335 1.170 . S
C335 C334 1.170 . S
C336 C337 1.170 . S
C336 C338 1.380 1_545 S
C337 C336 1.170 . S
C338 C336 1.380 1_565 S
C338 C339 1.170 . S
C339 C338 1.170 . S
C340 C341 1.170 . S
C340 C342 1.380 1_655 S
C341 C340 1.170 . S
C342 C340 1.380 1_455 S
C342 C343 1.170 . S
C343 C342 1.170 . S
C344 C345 1.170 . S
C344 C346 1.380 1_565 S
C345 C344 1.170 . S
C346 C344 1.380 1_545 S
C346 C347 1.170 . S
C347 C346 1.170 . S
C348 C349 1.170 . S
C348 C350 1.380 1_455 S
C349 C348 1.170 . S
C350 C348 1.380 1_655 S
C350 C351 1.170 . S
C351 C350 1.170 . S
C225 C81 1.443 . S
C227 C11 1.442 . S
C229 C95 1.422 . S
C231 C25 1.423 . S
C233 C39 1.443 . S
C235 C109 1.442 . S
C237 C53 1.427 . S
C239 C67 1.428 . S
C241 C193 1.422 . S
C243 C123 1.422 . S
C245 C207 1.428 . S
C247 C137 1.426 . S
C249 C151 1.427 . S
C251 C221 1.426 . S
C253 C165 1.432 . S
C255 C179 1.430 . S
C257 C149 1.536 . S
C259 C9 1.538 . S
C261 C163 1.537 . S
C263 C23 1.536 . S
C265 C121 1.538 . S
C267 C37 1.536 . S
C269 C51 1.540 . S
C271 C135 1.536 . S
C273 C205 1.540 . S
C275 C65 1.536 . S
C277 C219 1.539 . S
C279 C79 1.541 . S
C281 C93 1.536 . S
C283 C177 1.541 . S
C285 C191 1.536 . S
C287 C107 1.537 . S
C289 C61 1.850 . S
C291 C5 1.845 . S
C293 C19 1.844 . S
C295 C75 1.850 . S
C297 C33 1.848 . S
C299 C89 1.847 . S
C301 C103 1.850 . S
C303 C47 1.843 . S
C305 C112 1.028 . S
C307 C168 1.048 . S
C309 C182 1.079 . S
C311 C126 1.071 . S
C313 C140 1.079 . S
C315 C196 1.068 . S
C317 C210 1.078 . S
C319 C154 1.057 . S
C321 C159 1.839 . S
C323 C187 1.847 . S
C325 C117 1.844 . S
C327 C201 1.850 . S
C329 C215 1.839 . S
C331 C131 1.843 . S
C333 C145 1.840 . S
C335 C173 1.841 . S
C337 C70 1.031 . S
C339 C42 1.054 . S
C341 C84 1.078 . S
C343 C0 1.058 . S
C345 C98 1.075 . S
C347 C14 1.053 . S
C349 C56 1.076 . S
C351 C28 1.076 . S
