# Generated by pormake.
# Topology dia, (4)-cn, num edge types: 1
# Building blocks:
#     Node 0, Type 0, BuildingBlock: GALJAG_clean_sbu_0, # of connection points: 4
#     Node 1, Type 0, BuildingBlock: GALJAG_clean_sbu_0, # of connection points: 4
#     Node 2, Type 0, BuildingBlock: GALJAG_clean_sbu_0, # of connection points: 4
#     Node 3, Type 0, BuildingBlock: GALJAG_clean_sbu_0, # of connection points: 4
#     Node 4, Type 0, BuildingBlock: GALJAG_clean_sbu_0, # of connection points: 4
#     Node 5, Type 0, BuildingBlock: GALJAG_clean_sbu_0, # of connection points: 4
#     Node 6, Type 0, BuildingBlock: GALJAG_clean_sbu_0, # of connection points: 4
#     Node 7, Type 0, BuildingBlock: GALJAG_clean_sbu_0, # of connection points: 4
#     Edge 8, Type (0, 0), BuildingBlock: UVAHIK_clean_linker_0, # of connection points: 2
#     Edge 9, Type (0, 0), BuildingBlock: UVAHIK_clean_linker_0, # of connection points: 2
#     Edge 10, Type (0, 0), BuildingBlock: UVAHIK_clean_linker_0, # of connection points: 2
#     Edge 11, Type (0, 0), BuildingBlock: UVAHIK_clean_linker_0, # of connection points: 2
#     Edge 12, Type (0, 0), BuildingBlock: UVAHIK_clean_linker_0, # of connection points: 2
#     Edge 13, Type (0, 0), BuildingBlock: UVAHIK_clean_linker_0, # of connection points: 2
#     Edge 14, Type (0, 0), BuildingBlock: UVAHIK_clean_linker_0, # of connection points: 2
#     Edge 15, Type (0, 0), BuildingBlock: UVAHIK_clean_linker_0, # of connection points: 2
#     Edge 16, Type (0, 0), BuildingBlock: UVAHIK_clean_linker_0, # of connection points: 2
#     Edge 17, Type (0, 0), BuildingBlock: UVAHIK_clean_linker_0, # of connection points: 2
#     Edge 18, Type (0, 0), BuildingBlock: UVAHIK_clean_linker_0, # of connection points: 2
#     Edge 19, Type (0, 0), BuildingBlock: UVAHIK_clean_linker_0, # of connection points: 2
#     Edge 20, Type (0, 0), BuildingBlock: UVAHIK_clean_linker_0, # of connection points: 2
#     Edge 21, Type (0, 0), BuildingBlock: UVAHIK_clean_linker_0, # of connection points: 2
#     Edge 22, Type (0, 0), BuildingBlock: UVAHIK_clean_linker_0, # of connection points: 2
#     Edge 23, Type (0, 0), BuildingBlock: UVAHIK_clean_linker_0, # of connection points: 2
# Relax obj value: 0.058
# Max RMSD: 0.096
# Mean RMSD: 0.096
data_MOF--net-dia--node1-GALJAG_clean_sbu_0--edge1-UVAHIK_clean_linker_0
_symmetry_space_group_name_H-M    P1
_symmetry_Int_Tables_number       1
_symmetry_cell_setting            triclinic
loop_
_symmetry_equiv_pos_as_xyz
'x, y, z'
_cell_length_a     29.511671
_cell_length_b     51.839157
_cell_length_c     51.925373
_cell_angle_alpha  89.98257
_cell_angle_beta   90.264037
_cell_angle_gamma 90.260266
loop_
_atom_site_label
_atom_site_type_symbol
_atom_site_fract_x
_atom_site_fract_y
_atom_site_fract_z
_atom_type_partial_charge
In0 In 0.11987 0.12177 0.61964 0.0
O1 O 0.18022 0.14137 0.60008 0.0
O2 O 0.11357 0.15268 0.58909 0.0
C3 C 0.15645 0.08799 0.65303 0.0
C4 C 0.08412 0.15497 0.65368 0.0
C5 C 0.08331 0.08818 0.58588 0.0
O6 O 0.18071 0.10246 0.63906 0.0
O7 O 0.1143 0.09069 0.65004 0.0
O8 O 0.05905 0.1025 0.59986 0.0
O9 O 0.12547 0.09094 0.58904 0.0
C10 C 0.15567 0.15561 0.58603 0.0
O11 O 0.05954 0.14059 0.63967 0.0
O12 O 0.12619 0.15253 0.65034 0.0
In13 In 0.86879 0.36909 0.87051 0.0
O14 O 0.92994 0.34972 0.85183 0.0
O15 O 0.86377 0.33707 0.84103 0.0
C16 C 0.90441 0.40354 0.90373 0.0
C17 C 0.8335 0.40177 0.83559 0.0
C18 C 0.83138 0.33635 0.90464 0.0
O19 O 0.929 0.38856 0.89064 0.0
O20 O 0.86237 0.40106 0.8999 0.0
O21 O 0.80749 0.34991 0.88958 0.0
O22 O 0.87359 0.33943 0.90234 0.0
C23 C 0.90597 0.33466 0.83821 0.0
O24 O 0.80874 0.3881 0.85007 0.0
O25 O 0.87555 0.39882 0.83884 0.0
In26 In 0.61719 0.11803 0.11896 0.0
O27 O 0.55625 0.13707 0.13824 0.0
O28 O 0.62261 0.1486 0.14988 0.0
C29 C 0.5817 0.08414 0.08514 0.0
C30 C 0.65277 0.1523 0.08572 0.0
C31 C 0.65422 0.08442 0.15236 0.0
O32 O 0.557 0.09788 0.09946 0.0
O33 O 0.62375 0.08765 0.08798 0.0
O34 O 0.67826 0.09877 0.13815 0.0
O35 O 0.61202 0.08717 0.14962 0.0
C36 C 0.58045 0.15131 0.15259 0.0
O37 O 0.6774 0.13845 0.1001 0.0
O38 O 0.6107 0.14871 0.08819 0.0
In39 In 0.87093 0.86997 0.36979 0.0
O40 O 0.81015 0.88893 0.34998 0.0
O41 O 0.87658 0.90027 0.3386 0.0
C42 C 0.83483 0.8365 0.40365 0.0
C43 C 0.90762 0.83622 0.33661 0.0
C44 C 0.90668 0.90422 0.40317 0.0
O45 O 0.81041 0.85024 0.38905 0.0
O46 O 0.87696 0.83977 0.40105 0.0
O47 O 0.93125 0.88972 0.38954 0.0
O48 O 0.8646 0.90132 0.39984 0.0
C49 C 0.83443 0.90298 0.3356 0.0
O50 O 0.93182 0.85105 0.35036 0.0
O51 O 0.86547 0.83851 0.33977 0.0
In52 In 0.11929 0.62178 0.11883 0.0
O53 O 0.18 0.64049 0.09877 0.0
O54 O 0.11359 0.65135 0.08692 0.0
C55 C 0.15592 0.58911 0.15331 0.0
C56 C 0.08372 0.65629 0.15163 0.0
C57 C 0.08195 0.58716 0.08638 0.0
O58 O 0.18012 0.60267 0.13843 0.0
O59 O 0.11377 0.59219 0.1507 0.0
O60 O 0.05804 0.60242 0.09955 0.0
O61 O 0.12414 0.58948 0.08972 0.0
C62 C 0.15574 0.6541 0.08398 0.0
O63 O 0.05912 0.64125 0.13836 0.0
O64 O 0.12577 0.65387 0.14818 0.0
In65 In 0.36848 0.3694 0.36672 0.0
O66 O 0.4286 0.3497 0.34737 0.0
O67 O 0.36183 0.33835 0.3363 0.0
C68 C 0.40559 0.40315 0.40013 0.0
C69 C 0.33261 0.40313 0.33304 0.0
C70 C 0.33205 0.33607 0.40061 0.0
O71 O 0.42962 0.38869 0.38615 0.0
O72 O 0.36339 0.40045 0.39712 0.0
O73 O 0.30772 0.35004 0.38617 0.0
O74 O 0.37419 0.33902 0.39781 0.0
C75 C 0.4039 0.33538 0.33337 0.0
O76 O 0.30808 0.38931 0.34751 0.0
O77 O 0.37469 0.39975 0.33563 0.0
In78 In 0.37094 0.86847 0.86608 0.0
O79 O 0.43174 0.84956 0.84661 0.0
O80 O 0.36536 0.83859 0.83447 0.0
C81 C 0.40707 0.90132 0.90071 0.0
C82 C 0.33463 0.90294 0.8333 0.0
C83 C 0.33455 0.83387 0.89872 0.0
O84 O 0.43149 0.88778 0.88606 0.0
O85 O 0.36495 0.89817 0.89777 0.0
O86 O 0.31022 0.84837 0.88482 0.0
O87 O 0.37669 0.83692 0.896 0.0
C88 C 0.40752 0.83574 0.83186 0.0
O89 O 0.31029 0.88817 0.84691 0.0
O90 O 0.37677 0.90019 0.83634 0.0
In91 In 0.62196 0.61798 0.61824 0.0
O92 O 0.56139 0.63746 0.63739 0.0
O93 O 0.62792 0.64877 0.64894 0.0
C94 C 0.58547 0.58424 0.58461 0.0
C95 C 0.65821 0.65172 0.58468 0.0
C96 C 0.65823 0.58426 0.6518 0.0
O97 O 0.5612 0.59845 0.5987 0.0
O98 O 0.62762 0.58715 0.58762 0.0
O99 O 0.68259 0.59831 0.63747 0.0
O100 O 0.6161 0.58738 0.64912 0.0
C101 C 0.58579 0.65171 0.65162 0.0
O102 O 0.6826 0.63788 0.59921 0.0
O103 O 0.6161 0.6484 0.5872 0.0
C104 C 0.34251 0.30275 0.43476 0.0
C105 C 0.31319 0.31764 0.41947 0.0
C106 C 0.32525 0.28527 0.45268 0.0
C107 C 0.22329 0.27024 0.49056 0.0
H108 H 0.27925 0.20303 0.49774 0.0
C109 C 0.14478 0.18925 0.55223 0.0
C110 C 0.17426 0.17424 0.56729 0.0
C111 C 0.16185 0.20683 0.53434 0.0
C112 C 0.2636 0.22183 0.49619 0.0
H113 H 0.2428 0.32592 0.41092 0.0
H114 H 0.21247 0.29514 0.4422 0.0
H115 H 0.30813 0.23341 0.46587 0.0
H116 H 0.24475 0.1659 0.57553 0.0
H117 H 0.27473 0.19686 0.54435 0.0
H118 H 0.17877 0.25866 0.52089 0.0
C119 C 0.24887 0.29721 0.44047 0.0
C120 C 0.2801 0.23923 0.47791 0.0
C121 C 0.26619 0.31472 0.42248 0.0
C122 C 0.22123 0.17718 0.56414 0.0
C123 C 0.23836 0.1948 0.54619 0.0
C124 C 0.2068 0.25284 0.50885 0.0
C125 C 0.27825 0.28226 0.45574 0.0
C126 C 0.26016 0.26364 0.4749 0.0
C127 C 0.20882 0.20982 0.53109 0.0
C128 C 0.22676 0.22844 0.51188 0.0
H129 H 0.37893 0.30463 0.43295 0.0
H130 H 0.34879 0.27434 0.4644 0.0
H131 H 0.20765 0.28904 0.489 0.0
H132 H 0.10839 0.18736 0.55416 0.0
H133 H 0.13818 0.21782 0.52276 0.0
C134 C 0.6478 0.55063 0.68566 0.0
C135 C 0.67708 0.56545 0.67029 0.0
C136 C 0.66508 0.53271 0.70314 0.0
C137 C 0.76821 0.51616 0.73969 0.0
H138 H 0.70904 0.4496 0.74702 0.0
C139 C 0.84489 0.43437 0.80084 0.0
C140 C 0.81519 0.42 0.81637 0.0
C141 C 0.82809 0.45187 0.78278 0.0
C142 C 0.72563 0.4682 0.74541 0.0
H143 H 0.74742 0.57314 0.66112 0.0
H144 H 0.77777 0.5416 0.69162 0.0
H145 H 0.68024 0.48054 0.71566 0.0
H146 H 0.7446 0.41258 0.82514 0.0
H147 H 0.71511 0.4434 0.79366 0.0
H148 H 0.81355 0.50384 0.76946 0.0
C149 C 0.74141 0.54406 0.69031 0.0
C150 C 0.70917 0.48593 0.72742 0.0
C151 C 0.72406 0.56202 0.67277 0.0
C152 C 0.76828 0.42337 0.81339 0.0
C153 C 0.75143 0.44091 0.79528 0.0
C154 C 0.78467 0.49843 0.75767 0.0
C155 C 0.71207 0.52918 0.70567 0.0
C156 C 0.7302 0.51014 0.7244 0.0
C157 C 0.78119 0.45542 0.77984 0.0
C158 C 0.76354 0.47426 0.76076 0.0
H159 H 0.6114 0.5529 0.68425 0.0
H160 H 0.64159 0.52185 0.71495 0.0
H161 H 0.78475 0.53478 0.73811 0.0
H162 H 0.88125 0.43211 0.80261 0.0
H163 H 0.8519 0.46244 0.77093 0.0
C164 C 0.59301 0.05088 0.05109 0.0
C165 C 0.56334 0.06532 0.06643 0.0
C166 C 0.57619 0.03302 0.03333 0.0
C167 C 0.47537 0.9937 0.01789 0.0
H168 H 0.53021 0.9893 0.95028 0.0
C169 C 0.39643 0.93384 0.93554 0.0
C170 C 0.42581 0.91958 0.91986 0.0
C171 C 0.41361 0.95127 0.95362 0.0
C172 C 0.5149 0.99006 0.96919 0.0
H173 H 0.49277 0.0724 0.07523 0.0
H174 H 0.46321 0.04123 0.04396 0.0
H175 H 0.55878 0.02073 0.98135 0.0
H176 H 0.49622 0.91228 0.91085 0.0
H177 H 0.5264 0.9427 0.94265 0.0
H178 H 0.43146 0.96304 0.00571 0.0
C179 C 0.49955 0.04357 0.04589 0.0
C180 C 0.53122 0.0081 0.98698 0.0
C181 C 0.51643 0.06151 0.06368 0.0
C182 C 0.47278 0.92306 0.92264 0.0
C183 C 0.49002 0.94056 0.94075 0.0
C184 C 0.45906 0.97566 0.0001 0.0
C185 C 0.52928 0.02916 0.03049 0.0
C186 C 0.51162 0.01013 0.01153 0.0
C187 C 0.46058 0.95486 0.95643 0.0
C188 C 0.47859 0.97366 0.97553 0.0
H189 H 0.62937 0.05332 0.05282 0.0
H190 H 0.60001 0.02198 0.02204 0.0
H191 H 0.46003 -0.0055 0.03678 0.0
H192 H 0.36002 0.93163 0.9338 0.0
H193 H 0.39 0.96224 0.96512 0.0
C194 C 0.89747 0.80148 0.30385 0.0
C195 C 0.92661 0.81766 0.31803 0.0
C196 C 0.91483 0.78402 0.28603 0.0
C197 C 0.01492 0.7713 0.24603 0.0
H198 H 0.96393 0.70233 0.2416 0.0
C199 C 0.09469 0.69133 0.18403 0.0
C200 C 0.06522 0.6751 0.17012 0.0
C201 C 0.07772 0.70888 0.20189 0.0
C202 C 0.97815 0.72161 0.24238 0.0
H203 H -0.0032 0.82824 0.32477 0.0
H204 H 0.02732 0.79753 0.29364 0.0
H205 H 0.93522 0.73242 0.27362 0.0
H206 H -0.00513 0.66463 0.16382 0.0
H207 H 0.96506 0.6955 0.19496 0.0
H208 H 0.05783 0.76049 0.21477 0.0
C209 C 0.99096 0.79855 0.29616 0.0
C210 C 0.96176 0.73884 0.26076 0.0
C211 C 0.97355 0.81602 0.31408 0.0
C212 C 0.01837 0.67686 0.17431 0.0
C213 C 0.00136 0.69443 0.19224 0.0
C214 C 0.03131 0.75406 0.22764 0.0
C215 C 0.96175 0.78236 0.28195 0.0
C216 C 0.9799 0.7639 0.26277 0.0
C217 C 0.03089 0.7106 0.20627 0.0
C218 C 0.01309 0.72903 0.2256 0.0
H219 H 0.8611 0.80234 0.30642 0.0
H220 H 0.89138 0.7721 0.27515 0.0
H221 H 0.02912 0.79059 0.24683 0.0
H222 H 0.131 0.69038 0.18127 0.0
H223 H 0.10141 0.72081 0.21261 0.0
C224 C 0.26875 0.92472 0.81192 0.0
C225 C 0.31576 0.92205 0.81513 0.0
C226 C 0.25136 0.94283 0.79456 0.0
C227 C 0.28217 0.00244 0.75946 0.0
H228 H 0.18105 0.98367 0.71528 0.0
C229 C 0.22241 0.0666 0.67476 0.0
C230 C 0.1754 0.06922 0.67153 0.0
C231 C 0.23982 0.0487 0.69234 0.0
C232 C 0.20901 0.9893 0.72766 0.0
H233 H 0.38144 0.93617 0.80273 0.0
H234 H 0.35119 0.9675 0.77234 0.0
H235 H 0.21024 0.95244 0.74623 0.0
H236 H 0.10973 0.0553 0.68418 0.0
H237 H 0.14002 0.02432 0.71491 0.0
H238 H 0.28096 0.0393 0.74086 0.0
C239 C 0.32769 0.95591 0.78342 0.0
C240 C 0.22569 0.97142 0.74542 0.0
C241 C 0.34502 0.93783 0.80073 0.0
C242 C 0.14616 0.05366 0.68618 0.0
C243 C 0.16351 0.03579 0.70368 0.0
C244 C 0.2655 0.02033 0.74169 0.0
C245 C 0.28068 0.95863 0.78012 0.0
C246 C 0.26248 0.97778 0.76151 0.0
C247 C 0.21052 0.03306 0.70696 0.0
C248 C 0.22871 0.01396 0.72561 0.0
H249 H 0.2454 0.91285 0.82283 0.0
H250 H 0.21496 0.94467 0.79265 0.0
H251 H 0.31015 0.00807 0.77184 0.0
H252 H 0.24574 0.07832 0.66368 0.0
H253 H 0.27623 0.04686 0.69424 0.0
C254 C 0.96969 0.42427 0.92697 0.0
C255 C 0.92289 0.42244 0.92232 0.0
C256 C 0.98668 0.44204 0.94488 0.0
C257 C 0.95713 0.50222 0.97892 0.0
H258 H 0.05242 0.48158 0.02616 0.0
C259 C 0.01566 0.56637 0.06407 0.0
C260 C 0.06262 0.56808 0.06826 0.0
C261 C -0.00206 0.5484 0.04658 0.0
C262 C 0.02609 0.48772 0.01294 0.0
H263 H 0.85715 0.43774 0.93269 0.0
H264 H 0.8867 0.46855 0.96398 0.0
H265 H 0.02348 0.45079 -0.00544 0.0
H266 H 0.12784 0.55231 0.05753 0.0
H267 H 0.09703 0.5212 0.02698 0.0
H268 H 0.95981 0.53917 -0.00272 0.0
C269 C 0.91037 0.45651 0.95364 0.0
C270 C 0.00958 0.47008 -0.00519 0.0
C271 C 0.89343 0.43875 0.93581 0.0
C272 C 0.09146 0.55142 0.05476 0.0
C273 C 0.0738 0.53347 0.03736 0.0
C274 C 0.97365 0.51986 -0.00295 0.0
C275 C 0.95717 0.45836 0.95842 0.0
C276 C 0.97496 0.47715 0.97757 0.0
C277 C 0.02686 0.53176 0.03303 0.0
C278 C 0.00841 0.51283 0.01422 0.0
H279 H 0.99319 0.41196 0.91682 0.0
H280 H 0.02296 0.4432 0.94793 0.0
H281 H 0.93085 0.50836 0.96567 0.0
H282 H 0.99264 0.57894 0.07425 0.0
H283 H 0.96157 0.54736 0.04385 0.0
C284 C 0.46929 0.31351 0.31197 0.0
C285 C 0.42234 0.3165 0.31494 0.0
C286 C 0.4863 0.29556 0.29443 0.0
C287 C 0.45429 0.23669 0.25836 0.0
H288 H 0.55648 0.25514 0.21536 0.0
C289 C 0.51441 0.17276 0.17385 0.0
C290 C 0.56144 0.16993 0.17111 0.0
C291 C 0.49696 0.19061 0.19137 0.0
C292 C 0.5282 0.2496 0.22741 0.0
H293 H 0.35638 0.30313 0.30187 0.0
H294 H 0.386 0.27206 0.27117 0.0
H295 H 0.52751 0.28629 0.24628 0.0
H296 H 0.62708 0.18339 0.18462 0.0
H297 H 0.59673 0.21427 0.21524 0.0
H298 H 0.455 0.19999 0.23947 0.0
C299 C 0.40972 0.28329 0.28258 0.0
C300 C 0.51165 0.26744 0.24515 0.0
C301 C 0.39276 0.30121 0.30007 0.0
C302 C 0.59065 0.1852 0.18623 0.0
C303 C 0.57326 0.20302 0.20367 0.0
C304 C 0.47084 0.21884 0.24061 0.0
C305 C 0.45668 0.28023 0.27955 0.0
C306 C 0.47453 0.26118 0.26084 0.0
C307 C 0.52625 0.20599 0.20642 0.0
C308 C 0.50804 0.22508 0.22497 0.0
H309 H 0.49288 0.32499 0.32323 0.0
H310 H 0.52267 0.29346 0.29275 0.0
H311 H 0.42603 0.23114 0.27042 0.0
H312 H 0.49111 0.16126 0.16242 0.0
H313 H 0.46056 0.19263 0.19288 0.0
C314 C 0.84542 0.80347 0.43808 0.0
C315 C 0.81608 0.81786 0.42233 0.0
C316 C 0.82821 0.78568 0.45572 0.0
C317 C 0.72717 0.74628 0.46977 0.0
H318 H 0.78078 0.74135 0.53794 0.0
C319 C 0.64762 0.68495 0.55046 0.0
C320 C 0.67698 0.67049 0.56613 0.0
C321 C 0.66481 0.70282 0.5329 0.0
C322 C 0.76581 0.74228 0.51888 0.0
H323 H 0.7457 0.82499 0.41272 0.0
H324 H 0.71546 0.79394 0.44375 0.0
H325 H 0.80967 0.77317 0.50748 0.0
H326 H 0.74736 0.66335 0.57573 0.0
H327 H 0.77756 0.69456 0.54484 0.0
H328 H 0.68331 0.71539 0.48117 0.0
C329 C 0.75185 0.79626 0.44224 0.0
C330 C 0.7823 0.76053 0.50144 0.0
C331 C 0.76911 0.81413 0.42459 0.0
C332 C 0.72394 0.67426 0.56391 0.0
C333 C 0.74118 0.69222 0.54634 0.0
C334 C 0.71067 0.72803 0.48722 0.0
C335 C 0.78124 0.78185 0.45801 0.0
C336 C 0.76319 0.76272 0.47668 0.0
C337 C 0.71177 0.70668 0.53062 0.0
C338 C 0.72979 0.72583 0.51197 0.0
H339 H 0.88181 0.80587 0.43674 0.0
H340 H 0.85178 0.77464 0.4673 0.0
H341 H 0.7122 0.7472 0.45071 0.0
H342 H 0.61123 0.68253 0.55178 0.0
H343 H 0.64122 0.7139 0.52136 0.0
C344 C 0.2219 0.56691 0.17415 0.0
C345 C 0.17494 0.57075 0.17218 0.0
C346 C 0.23937 0.5491 0.19179 0.0
C347 C 0.21022 0.51343 0.25122 0.0
H348 H 0.30664 0.46768 0.22998 0.0
C349 C 0.26715 0.4262 0.31262 0.0
C350 C 0.31402 0.42206 0.31459 0.0
C351 C 0.25008 0.44443 0.29527 0.0
C352 C 0.28002 0.48049 0.2363 0.0
H353 H 0.10947 0.55911 0.18716 0.0
H354 H 0.13985 0.52798 0.21772 0.0
H355 H 0.27782 0.49987 0.19992 0.0
H356 H 0.37979 0.43368 0.29999 0.0
H357 H 0.3501 0.46551 0.26993 0.0
H358 H 0.21237 0.494 0.28759 0.0
C359 C 0.16327 0.53888 0.2059 0.0
C360 C 0.26357 0.49896 0.21908 0.0
C361 C 0.14585 0.55661 0.18827 0.0
C362 C 0.34346 0.43638 0.29886 0.0
C363 C 0.32644 0.45453 0.28152 0.0
C364 C 0.22666 0.49495 0.26843 0.0
C365 C 0.21021 0.53486 0.20784 0.0
C366 C 0.22843 0.51562 0.22633 0.0
C367 C 0.27958 0.45879 0.27953 0.0
C368 C 0.26173 0.47826 0.26116 0.0
H369 H 0.24512 0.57758 0.16201 0.0
H370 H 0.27574 0.54663 0.19303 0.0
H371 H 0.18356 0.52622 0.25753 0.0
H372 H 0.24367 0.41541 0.32449 0.0
H373 H 0.21376 0.44708 0.29398 0.0
C374 C 0.76489 0.31465 0.92552 0.0
C375 C 0.81196 0.31814 0.92351 0.0
C376 C 0.74704 0.29715 0.94336 0.0
C377 C 0.77603 0.262 0.00319 0.0
H378 H 0.67737 0.21671 0.98272 0.0
C379 C 0.71816 0.1754 0.06526 0.0
C380 C 0.67125 0.17136 0.06737 0.0
C381 C 0.7352 0.19358 0.04785 0.0
C382 C 0.70461 0.22941 0.98883 0.0
H383 H 0.87723 0.30613 0.93857 0.0
H384 H 0.84619 0.27553 0.96942 0.0
H385 H 0.70663 0.24839 0.95223 0.0
H386 H 0.60537 0.18318 0.05304 0.0
H387 H 0.63502 0.21495 0.02289 0.0
H388 H 0.7741 0.24297 0.03976 0.0
C389 C 0.82299 0.28649 0.95751 0.0
C390 C 0.72132 0.24758 0.97137 0.0
C391 C 0.84078 0.30391 0.93971 0.0
C392 C 0.64173 0.1858 0.05178 0.0
C393 C 0.65871 0.20391 0.03439 0.0
C394 C 0.75934 0.24383 0.02065 0.0
C395 C 0.77593 0.28287 0.95955 0.0
C396 C 0.75731 0.26403 0.97832 0.0
C397 C 0.70563 0.20801 0.0322 0.0
C398 C 0.72349 0.22729 0.01365 0.0
H399 H 0.74188 0.32541 0.91331 0.0
H400 H 0.7106 0.29499 0.94465 0.0
H401 H 0.80333 0.27467 0.00928 0.0
H402 H 0.74171 0.16451 0.07701 0.0
H403 H 0.77155 0.19611 0.04641 0.0
C404 C 0.84471 0.93624 0.30138 0.0
C405 C 0.81549 0.92131 0.31667 0.0
C406 C 0.82734 0.95372 0.28349 0.0
C407 C 0.72466 0.9689 0.2459 0.0
H408 H 0.78109 0.03628 0.23917 0.0
C409 C 0.64452 0.05049 0.18598 0.0
C410 C 0.67348 0.06573 0.17082 0.0
C411 C 0.66221 0.03273 0.20349 0.0
C412 C 0.76531 0.01744 0.24059 0.0
H413 H 0.74515 0.91291 0.32524 0.0
H414 H 0.71463 0.94369 0.29403 0.0
H415 H 0.81068 0.00561 0.27055 0.0
H416 H 0.74367 0.07434 0.16206 0.0
H417 H 0.77473 0.04308 0.19262 0.0
H418 H 0.67926 0.98074 0.21595 0.0
C419 C 0.75103 0.94166 0.29572 0.0
C420 C 0.78221 -0.00013 0.25859 0.0
C421 C 0.76847 0.92415 0.31367 0.0
C422 C 0.72055 0.06288 0.17354 0.0
C423 C 0.7383 0.04509 0.19112 0.0
C424 C 0.70776 0.98647 0.22789 0.0
C425 C 0.78032 0.95669 0.28047 0.0
C426 C 0.76207 0.97541 0.26146 0.0
C427 C 0.70928 0.0298 0.20627 0.0
C428 C 0.72784 0.01095 0.22506 0.0
H429 H 0.88114 0.93442 0.30317 0.0
H430 H 0.8508 0.96471 0.27178 0.0
H431 H 0.70884 0.95006 0.24735 0.0
H432 H 0.60807 0.0523 0.18438 0.0
H433 H 0.63895 0.02154 0.21514 0.0
C434 C 0.9722 0.92595 0.42528 0.0
C435 C 0.92525 0.92316 0.4217 0.0
C436 C 0.98929 0.9439 0.44299 0.0
C437 C 0.95808 0.00301 0.47848 0.0
H438 H 0.05838 0.98416 0.52303 0.0
C439 C 0.01737 0.06679 0.5638 0.0
C440 C 0.06438 0.06949 0.56721 0.0
C441 C -3e-05 0.04895 0.54607 0.0
C442 C 0.03064 0.98981 0.51055 0.0
H443 H 0.85936 0.93688 0.43382 0.0
H444 H 0.8891 0.96794 0.46479 0.0
H445 H 0.02945 0.9531 0.4917 0.0
H446 H 0.13005 0.05575 0.55472 0.0
H447 H 0.09979 0.02488 0.52375 0.0
H448 H 0.95928 0.03972 0.49736 0.0
C449 C 0.91279 0.95657 0.45374 0.0
C450 C 0.01412 0.97202 0.49257 0.0
C451 C 0.89575 0.93864 0.4361 0.0
C452 C 0.09362 0.05406 0.55259 0.0
C453 C 0.07629 0.03624 0.53494 0.0
C454 C 0.9746 0.02079 0.49647 0.0
C455 C 0.95974 0.95942 0.4574 0.0
C456 C 0.97766 0.97842 0.47633 0.0
C457 C 0.02928 0.03343 0.53149 0.0
C458 C 0.01112 0.01441 0.51268 0.0
H459 H -0.00428 0.9143 0.41441 0.0
H460 H 0.02566 0.94584 0.44517 0.0
H461 H 0.93035 0.00866 0.46599 0.0
H462 H 0.99404 0.0784 0.57484 0.0
H463 H 0.96357 0.04705 0.54403 0.0
C464 C 0.89641 0.29955 0.80578 0.0
C465 C 0.92529 0.31576 0.82009 0.0
C466 C 0.91412 0.28184 0.78832 0.0
C467 C 0.0154 0.2686 0.74947 0.0
H468 H 0.96312 0.2 0.74414 0.0
C469 C 0.09508 0.18883 0.6873 0.0
C470 C 0.06558 0.17323 0.6727 0.0
C471 C 0.07808 0.20607 0.70545 0.0
C472 C 0.97773 0.21917 0.7452 0.0
H473 H -0.0046 0.32605 0.82752 0.0
H474 H 0.02652 0.2949 0.79705 0.0
H475 H 0.93401 0.23013 0.77604 0.0
H476 H -0.00484 0.16343 0.66561 0.0
H477 H 0.96529 0.19376 0.69728 0.0
H478 H 0.05906 0.25765 0.7186 0.0
C479 C 0.9901 0.2961 0.79917 0.0
C480 C 0.96112 0.23643 0.7635 0.0
C481 C 0.97233 0.31383 0.8167 0.0
C482 C 0.01868 0.1752 0.67662 0.0
C483 C 0.00164 0.19245 0.69484 0.0
C484 C 0.03202 0.25134 0.73119 0.0
C485 C 0.96114 0.27994 0.78476 0.0
C486 C 0.97967 0.26136 0.76579 0.0
C487 C 0.03119 0.20809 0.70944 0.0
C488 C 0.01333 0.22645 0.72881 0.0
H489 H 0.85997 0.30062 0.80793 0.0
H490 H 0.89086 0.26995 0.77727 0.0
H491 H 0.02994 0.28779 0.75047 0.0
H492 H 0.13143 0.18769 0.68478 0.0
H493 H 0.10177 0.21757 0.71661 0.0
C494 C 0.59633 0.68556 0.68528 0.0
C495 C 0.567 0.67054 0.67 0.0
C496 C 0.57909 0.70351 0.70266 0.0
C497 C 0.47754 0.74197 0.71671 0.0
H498 H 0.53195 0.74821 0.78458 0.0
C499 C 0.39742 0.80269 0.79738 0.0
C500 C 0.42655 0.81743 0.81305 0.0
C501 C 0.41489 0.7851 0.77971 0.0
C502 C 0.51676 0.74693 0.7656 0.0
H503 H 0.49661 0.66247 0.6609 0.0
H504 H 0.46632 0.69379 0.69147 0.0
H505 H 0.56116 0.71649 0.75432 0.0
H506 H 0.49683 0.82548 0.82243 0.0
H507 H 0.52752 0.79483 0.79134 0.0
H508 H 0.43312 0.77241 0.728 0.0
C509 C 0.50272 0.69184 0.68981 0.0
C510 C 0.53344 0.72873 0.74827 0.0
C511 C 0.52001 0.67382 0.67242 0.0
C512 C 0.47358 0.81432 0.81064 0.0
C513 C 0.4911 0.79668 0.79294 0.0
C514 C 0.46087 0.76019 0.73404 0.0
C515 C 0.53211 0.70686 0.70514 0.0
C516 C 0.51401 0.72604 0.72363 0.0
C517 C 0.46191 0.78185 0.7773 0.0
C518 C 0.48024 0.76285 0.7587 0.0
H519 H 0.63274 0.68354 0.68379 0.0
H520 H 0.60265 0.71502 0.7139 0.0
H521 H 0.46231 0.74065 0.69774 0.0
H522 H 0.36098 0.8046 0.79883 0.0
H523 H 0.39146 0.77374 0.76823 0.0
C524 C 0.14562 0.68655 0.04894 0.0
C525 C 0.17474 0.67195 0.06462 0.0
C526 C 0.16311 0.70355 0.03062 0.0
C527 C 0.26604 0.74042 0.01428 0.0
H528 H 0.20919 0.74563 0.94698 0.0
C529 C 0.34498 0.79966 0.93197 0.0
C530 C 0.31568 0.81489 0.91702 0.0
C531 C 0.32769 0.78192 0.94963 0.0
C532 C 0.22512 0.74459 0.96578 0.0
H533 H 0.24503 0.66356 0.07335 0.0
H534 H 0.27574 0.69318 0.04113 0.0
H535 H 0.17981 0.71487 0.97838 0.0
H536 H 0.2453 0.82339 0.90866 0.0
H537 H 0.21494 0.79241 0.93973 0.0
H538 H 0.31132 0.77014 0.0017 0.0
C539 C 0.23933 0.69168 0.04323 0.0
C540 C 0.20834 0.72696 0.98377 0.0
C541 C 0.22178 0.67463 0.06158 0.0
C542 C 0.26867 0.81188 0.91992 0.0
C543 C 0.25133 0.79406 0.9376 0.0
C544 C 0.28285 0.75802 -0.0037 0.0
C545 C 0.21015 0.70634 0.02755 0.0
C546 C 0.22856 0.7247 0.00824 0.0
C547 C 0.28069 0.77897 0.95274 0.0
C548 C 0.26257 0.76032 0.97185 0.0
H549 H 0.10918 0.68495 0.05087 0.0
H550 H 0.13972 0.71481 0.01913 0.0
H551 H 0.28193 0.73946 0.0331 0.0
H552 H 0.3814 0.80145 0.93009 0.0
H553 H 0.3512 0.77032 0.9607 0.0
C554 C 0.47187 0.42426 0.42212 0.0
C555 C 0.42482 0.42179 0.41873 0.0
C556 C 0.48955 0.44191 0.43995 0.0
C557 C 0.45984 0.5008 0.4762 0.0
H558 H 0.55983 0.48079 0.52047 0.0
C559 C 0.51949 0.56304 0.56242 0.0
C560 C 0.56651 0.56562 0.56589 0.0
C561 C 0.50203 0.54544 0.54448 0.0
C562 C 0.53218 0.48677 0.50807 0.0
H563 H 0.35938 0.4358 0.4313 0.0
H564 H 0.39013 0.46634 0.46244 0.0
H565 H 0.53038 0.45034 0.48868 0.0
H566 H 0.63212 0.55185 0.55335 0.0
H567 H 0.60174 0.52138 0.52201 0.0
H568 H 0.46161 0.53722 0.4956 0.0
C569 C 0.41345 0.45494 0.45117 0.0
C570 C 0.51537 0.46933 0.48983 0.0
C571 C 0.39583 0.43731 0.43342 0.0
C572 C 0.59569 0.55025 0.55116 0.0
C573 C 0.57829 0.53267 0.5333 0.0
C574 C 0.47664 0.51824 0.49443 0.0
C575 C 0.4605 0.45746 0.45465 0.0
C576 C 0.47897 0.47614 0.47371 0.0
C577 C 0.53128 0.53005 0.52974 0.0
C578 C 0.513 0.51142 0.51058 0.0
H579 H 0.49501 0.41257 0.41102 0.0
H580 H 0.52598 0.4436 0.442 0.0
H581 H 0.43219 0.50678 0.46381 0.0
H582 H 0.4962 0.57461 0.57355 0.0
H583 H 0.46562 0.54367 0.54237 0.0
loop_
_geom_bond_atom_site_label_1
_geom_bond_atom_site_label_2
_geom_bond_distance
_geom_bond_site_symmetry_2
_ccdc_geom_bond_type
In0 O1 2.294 . S
In0 O2 2.326 . S
In0 O6 2.266 . S
In0 O7 2.326 . S
In0 O8 2.266 . S
In0 O9 2.326 . S
In0 O11 2.294 . S
In0 O12 2.326 . S
O1 In0 2.294 . S
O1 C10 1.240 . S
O2 In0 2.326 . S
O2 C10 1.252 . S
C3 O6 1.252 . S
C3 O7 1.260 . S
C4 O11 1.240 . S
C4 O12 1.252 . S
C5 O8 1.252 . S
C5 O9 1.260 . S
O6 In0 2.266 . S
O6 C3 1.252 . S
O7 In0 2.326 . S
O7 C3 1.260 . S
O8 In0 2.266 . S
O8 C5 1.252 . S
O9 In0 2.326 . S
O9 C5 1.260 . S
C10 O1 1.240 . S
C10 O2 1.252 . S
O11 In0 2.294 . S
O11 C4 1.240 . S
O12 In0 2.326 . S
O12 C4 1.252 . S
In13 O14 2.294 . S
In13 O15 2.326 . S
In13 O19 2.266 . S
In13 O20 2.326 . S
In13 O21 2.266 . S
In13 O22 2.326 . S
In13 O24 2.294 . S
In13 O25 2.326 . S
O14 In13 2.294 . S
O14 C23 1.240 . S
O15 In13 2.326 . S
O15 C23 1.252 . S
C16 O19 1.252 . S
C16 O20 1.260 . S
C17 O24 1.240 . S
C17 O25 1.252 . S
C18 O21 1.252 . S
C18 O22 1.260 . S
O19 In13 2.266 . S
O19 C16 1.252 . S
O20 In13 2.326 . S
O20 C16 1.260 . S
O21 In13 2.266 . S
O21 C18 1.252 . S
O22 In13 2.326 . S
O22 C18 1.260 . S
C23 O14 1.240 . S
C23 O15 1.252 . S
O24 In13 2.294 . S
O24 C17 1.240 . S
O25 In13 2.326 . S
O25 C17 1.252 . S
In26 O27 2.294 . S
In26 O28 2.326 . S
In26 O32 2.266 . S
In26 O33 2.326 . S
In26 O34 2.266 . S
In26 O35 2.326 . S
In26 O37 2.294 . S
In26 O38 2.326 . S
O27 In26 2.294 . S
O27 C36 1.240 . S
O28 In26 2.326 . S
O28 C36 1.252 . S
C29 O32 1.252 . S
C29 O33 1.260 . S
C30 O37 1.240 . S
C30 O38 1.252 . S
C31 O34 1.252 . S
C31 O35 1.260 . S
O32 In26 2.266 . S
O32 C29 1.252 . S
O33 In26 2.326 . S
O33 C29 1.260 . S
O34 In26 2.266 . S
O34 C31 1.252 . S
O35 In26 2.326 . S
O35 C31 1.260 . S
C36 O27 1.240 . S
C36 O28 1.252 . S
O37 In26 2.294 . S
O37 C30 1.240 . S
O38 In26 2.326 . S
O38 C30 1.252 . S
In39 O40 2.294 . S
In39 O41 2.326 . S
In39 O45 2.266 . S
In39 O46 2.326 . S
In39 O47 2.266 . S
In39 O48 2.326 . S
In39 O50 2.294 . S
In39 O51 2.326 . S
O40 In39 2.294 . S
O40 C49 1.240 . S
O41 In39 2.326 . S
O41 C49 1.252 . S
C42 O45 1.252 . S
C42 O46 1.260 . S
C43 O50 1.240 . S
C43 O51 1.252 . S
C44 O47 1.252 . S
C44 O48 1.260 . S
O45 In39 2.266 . S
O45 C42 1.252 . S
O46 In39 2.326 . S
O46 C42 1.260 . S
O47 In39 2.266 . S
O47 C44 1.252 . S
O48 In39 2.326 . S
O48 C44 1.260 . S
C49 O40 1.240 . S
C49 O41 1.252 . S
O50 In39 2.294 . S
O50 C43 1.240 . S
O51 In39 2.326 . S
O51 C43 1.252 . S
In52 O53 2.294 . S
In52 O54 2.326 . S
In52 O58 2.266 . S
In52 O59 2.326 . S
In52 O60 2.266 . S
In52 O61 2.326 . S
In52 O63 2.294 . S
In52 O64 2.326 . S
O53 In52 2.294 . S
O53 C62 1.240 . S
O54 In52 2.326 . S
O54 C62 1.252 . S
C55 O58 1.252 . S
C55 O59 1.260 . S
C56 O63 1.240 . S
C56 O64 1.252 . S
C57 O60 1.252 . S
C57 O61 1.260 . S
O58 In52 2.266 . S
O58 C55 1.252 . S
O59 In52 2.326 . S
O59 C55 1.260 . S
O60 In52 2.266 . S
O60 C57 1.252 . S
O61 In52 2.326 . S
O61 C57 1.260 . S
C62 O53 1.240 . S
C62 O54 1.252 . S
O63 In52 2.294 . S
O63 C56 1.240 . S
O64 In52 2.326 . S
O64 C56 1.252 . S
In65 O66 2.294 . S
In65 O67 2.326 . S
In65 O71 2.266 . S
In65 O72 2.326 . S
In65 O73 2.266 . S
In65 O74 2.326 . S
In65 O76 2.294 . S
In65 O77 2.326 . S
O66 In65 2.294 . S
O66 C75 1.240 . S
O67 In65 2.326 . S
O67 C75 1.252 . S
C68 O71 1.252 . S
C68 O72 1.260 . S
C69 O76 1.240 . S
C69 O77 1.252 . S
C70 O73 1.252 . S
C70 O74 1.260 . S
O71 In65 2.266 . S
O71 C68 1.252 . S
O72 In65 2.326 . S
O72 C68 1.260 . S
O73 In65 2.266 . S
O73 C70 1.252 . S
O74 In65 2.326 . S
O74 C70 1.260 . S
C75 O66 1.240 . S
C75 O67 1.252 . S
O76 In65 2.294 . S
O76 C69 1.240 . S
O77 In65 2.326 . S
O77 C69 1.252 . S
In78 O79 2.294 . S
In78 O80 2.326 . S
In78 O84 2.266 . S
In78 O85 2.326 . S
In78 O86 2.266 . S
In78 O87 2.326 . S
In78 O89 2.294 . S
In78 O90 2.326 . S
O79 In78 2.294 . S
O79 C88 1.240 . S
O80 In78 2.326 . S
O80 C88 1.252 . S
C81 O84 1.252 . S
C81 O85 1.260 . S
C82 O89 1.240 . S
C82 O90 1.252 . S
C83 O86 1.252 . S
C83 O87 1.260 . S
O84 In78 2.266 . S
O84 C81 1.252 . S
O85 In78 2.326 . S
O85 C81 1.260 . S
O86 In78 2.266 . S
O86 C83 1.252 . S
O87 In78 2.326 . S
O87 C83 1.260 . S
C88 O79 1.240 . S
C88 O80 1.252 . S
O89 In78 2.294 . S
O89 C82 1.240 . S
O90 In78 2.326 . S
O90 C82 1.252 . S
In91 O92 2.294 . S
In91 O93 2.326 . S
In91 O97 2.266 . S
In91 O98 2.326 . S
In91 O99 2.266 . S
In91 O100 2.326 . S
In91 O102 2.294 . S
In91 O103 2.326 . S
O92 In91 2.294 . S
O92 C101 1.240 . S
O93 In91 2.326 . S
O93 C101 1.252 . S
C94 O97 1.252 . S
C94 O98 1.260 . S
C95 O102 1.240 . S
C95 O103 1.252 . S
C96 O99 1.252 . S
C96 O100 1.260 . S
O97 In91 2.266 . S
O97 C94 1.252 . S
O98 In91 2.326 . S
O98 C94 1.260 . S
O99 In91 2.266 . S
O99 C96 1.252 . S
O100 In91 2.326 . S
O100 C96 1.260 . S
C101 O92 1.240 . S
C101 O93 1.252 . S
O102 In91 2.294 . S
O102 C95 1.240 . S
O103 In91 2.326 . S
O103 C95 1.252 . S
C104 C105 1.349 . S
C104 C106 1.327 . S
C104 H129 0.950 . S
C105 C104 1.349 . S
C105 C121 1.349 . S
C106 C104 1.327 . S
C106 C125 1.429 . S
C106 H130 0.950 . S
C107 C124 1.574 . S
C107 C126 1.368 . S
C107 H131 0.949 . S
H108 C112 0.949 . S
C109 C110 1.349 . S
C109 C111 1.327 . S
C109 H132 0.950 . S
C110 C109 1.349 . S
C110 C122 1.349 . S
C111 C109 1.327 . S
C111 C127 1.429 . S
C111 H133 0.950 . S
C112 H108 0.949 . S
C112 C120 1.574 . S
C112 C128 1.368 . S
H113 C121 0.950 . S
H114 C119 0.950 . S
H115 C120 0.949 . S
H116 C122 0.950 . S
H117 C123 0.950 . S
H118 C124 0.949 . S
C119 H114 0.950 . S
C119 C121 1.327 . S
C119 C125 1.429 . S
C120 C112 1.574 . S
C120 H115 0.949 . S
C120 C126 1.368 . S
C121 C105 1.349 . S
C121 H113 0.950 . S
C121 C119 1.327 . S
C122 C110 1.349 . S
C122 H116 0.950 . S
C122 C123 1.327 . S
C123 H117 0.950 . S
C123 C122 1.327 . S
C123 C127 1.429 . S
C124 C107 1.574 . S
C124 H118 0.949 . S
C124 C128 1.368 . S
C125 C106 1.429 . S
C125 C119 1.429 . S
C125 C126 1.523 . S
C126 C107 1.368 . S
C126 C120 1.368 . S
C126 C125 1.523 . S
C127 C111 1.429 . S
C127 C123 1.429 . S
C127 C128 1.523 . S
C128 C112 1.368 . S
C128 C124 1.368 . S
C128 C127 1.523 . S
H129 C104 0.950 . S
H130 C106 0.950 . S
H131 C107 0.949 . S
H132 C109 0.950 . S
H133 C111 0.950 . S
C134 C135 1.349 . S
C134 C136 1.327 . S
C134 H159 0.950 . S
C135 C134 1.349 . S
C135 C151 1.349 . S
C136 C134 1.327 . S
C136 C155 1.429 . S
C136 H160 0.950 . S
C137 C154 1.574 . S
C137 C156 1.368 . S
C137 H161 0.949 . S
H138 C142 0.949 . S
C139 C140 1.349 . S
C139 C141 1.327 . S
C139 H162 0.950 . S
C140 C139 1.349 . S
C140 C152 1.349 . S
C141 C139 1.327 . S
C141 C157 1.429 . S
C141 H163 0.950 . S
C142 H138 0.949 . S
C142 C150 1.574 . S
C142 C158 1.368 . S
H143 C151 0.950 . S
H144 C149 0.950 . S
H145 C150 0.949 . S
H146 C152 0.950 . S
H147 C153 0.950 . S
H148 C154 0.949 . S
C149 H144 0.950 . S
C149 C151 1.327 . S
C149 C155 1.429 . S
C150 C142 1.574 . S
C150 H145 0.949 . S
C150 C156 1.368 . S
C151 C135 1.349 . S
C151 H143 0.950 . S
C151 C149 1.327 . S
C152 C140 1.349 . S
C152 H146 0.950 . S
C152 C153 1.327 . S
C153 H147 0.950 . S
C153 C152 1.327 . S
C153 C157 1.429 . S
C154 C137 1.574 . S
C154 H148 0.949 . S
C154 C158 1.368 . S
C155 C136 1.429 . S
C155 C149 1.429 . S
C155 C156 1.523 . S
C156 C137 1.368 . S
C156 C150 1.368 . S
C156 C155 1.523 . S
C157 C141 1.429 . S
C157 C153 1.429 . S
C157 C158 1.523 . S
C158 C142 1.368 . S
C158 C154 1.368 . S
C158 C157 1.523 . S
H159 C134 0.950 . S
H160 C136 0.950 . S
H161 C137 0.949 . S
H162 C139 0.950 . S
H163 C141 0.950 . S
C164 C165 1.349 . S
C164 C166 1.327 . S
C164 H189 0.950 . S
C165 C164 1.349 . S
C165 C181 1.349 . S
C166 C164 1.327 . S
C166 C185 1.429 . S
C166 H190 0.950 . S
C167 C184 1.574 1_545 S
C167 C186 1.368 . S
C167 H191 0.949 . S
H168 C172 0.949 . S
C169 C170 1.349 . S
C169 C171 1.327 . S
C169 H192 0.950 . S
C170 C169 1.349 . S
C170 C182 1.349 . S
C171 C169 1.327 . S
C171 C187 1.429 . S
C171 H193 0.950 . S
C172 H168 0.949 . S
C172 C180 1.556 1_566 S
C172 C188 1.368 . S
H173 C181 0.950 . S
H174 C179 0.950 . S
H175 C180 0.955 . S
H176 C182 0.950 . S
H177 C183 0.950 . S
H178 C184 0.952 . S
C179 H174 0.950 . S
C179 C181 1.327 . S
C179 C185 1.429 . S
C180 C172 1.556 1_544 S
C180 H175 0.955 . S
C180 C186 1.381 . S
C181 C165 1.349 . S
C181 H173 0.950 . S
C181 C179 1.327 . S
C182 C170 1.349 . S
C182 H176 0.950 . S
C182 C183 1.327 . S
C183 H177 0.950 . S
C183 C182 1.327 . S
C183 C187 1.429 . S
C184 C167 1.574 1_565 S
C184 H178 0.952 . S
C184 C188 1.368 1_554 S
C185 C166 1.429 . S
C185 C179 1.429 . S
C185 C186 1.523 . S
C186 C167 1.368 . S
C186 C180 1.381 . S
C186 C185 1.523 . S
C187 C171 1.429 . S
C187 C183 1.429 . S
C187 C188 1.523 . S
C188 C172 1.368 . S
C188 C184 1.368 1_556 S
C188 C187 1.523 . S
H189 C164 0.950 . S
H190 C166 0.950 . S
H191 C167 0.949 . S
H192 C169 0.950 . S
H193 C171 0.950 . S
C194 C195 1.349 . S
C194 C196 1.327 . S
C194 H219 0.950 . S
C195 C194 1.349 . S
C195 C211 1.349 . S
C196 C194 1.327 . S
C196 C215 1.429 . S
C196 H220 0.950 . S
C197 C214 1.574 . S
C197 C216 1.368 1_455 S
C197 H221 0.949 . S
H198 C202 0.949 . S
C199 C200 1.349 . S
C199 C201 1.327 . S
C199 H222 0.950 . S
C200 C199 1.349 . S
C200 C212 1.349 . S
C201 C199 1.327 . S
C201 C217 1.429 . S
C201 H223 0.950 . S
C202 H198 0.949 . S
C202 C210 1.574 . S
C202 C218 1.368 1_655 S
H203 C211 0.950 . S
H204 C209 0.950 . S
H205 C210 0.949 . S
H206 C212 0.950 . S
H207 C213 0.950 . S
H208 C214 0.949 . S
C209 H204 0.950 . S
C209 C211 1.327 . S
C209 C215 1.429 . S
C210 C202 1.574 . S
C210 H205 0.949 . S
C210 C216 1.368 . S
C211 C195 1.349 . S
C211 H203 0.950 . S
C211 C209 1.327 . S
C212 C200 1.349 . S
C212 H206 0.950 . S
C212 C213 1.327 . S
C213 H207 0.950 . S
C213 C212 1.327 . S
C213 C217 1.429 . S
C214 C197 1.574 . S
C214 H208 0.949 . S
C214 C218 1.368 . S
C215 C196 1.429 . S
C215 C209 1.429 . S
C215 C216 1.523 . S
C216 C197 1.368 1_655 S
C216 C210 1.368 . S
C216 C215 1.523 . S
C217 C201 1.429 . S
C217 C213 1.429 . S
C217 C218 1.523 . S
C218 C202 1.368 1_455 S
C218 C214 1.368 . S
C218 C217 1.523 . S
H219 C194 0.950 . S
H220 C196 0.950 . S
H221 C197 0.949 . S
H222 C199 0.950 . S
H223 C201 0.950 . S
C224 C225 1.349 . S
C224 C226 1.327 . S
C224 H249 0.950 . S
C225 C224 1.349 . S
C225 C241 1.349 . S
C226 C224 1.327 . S
C226 C245 1.429 . S
C226 H250 0.950 . S
C227 C244 1.574 . S
C227 C246 1.368 1_545 S
C227 H251 0.949 . S
H228 C232 0.949 . S
C229 C230 1.349 . S
C229 C231 1.327 . S
C229 H252 0.950 . S
C230 C229 1.349 . S
C230 C242 1.349 . S
C231 C229 1.327 . S
C231 C247 1.429 . S
C231 H253 0.950 . S
C232 H228 0.949 . S
C232 C240 1.574 . S
C232 C248 1.368 1_565 S
H233 C241 0.950 . S
H234 C239 0.950 . S
H235 C240 0.949 . S
H236 C242 0.950 . S
H237 C243 0.950 . S
H238 C244 0.949 . S
C239 H234 0.950 . S
C239 C241 1.327 . S
C239 C245 1.429 . S
C240 C232 1.574 . S
C240 H235 0.949 . S
C240 C246 1.368 . S
C241 C225 1.349 . S
C241 H233 0.950 . S
C241 C239 1.327 . S
C242 C230 1.349 . S
C242 H236 0.950 . S
C242 C243 1.327 . S
C243 H237 0.950 . S
C243 C242 1.327 . S
C243 C247 1.429 . S
C244 C227 1.574 . S
C244 H238 0.949 . S
C244 C248 1.368 . S
C245 C226 1.429 . S
C245 C239 1.429 . S
C245 C246 1.523 . S
C246 C227 1.368 1_565 S
C246 C240 1.368 . S
C246 C245 1.523 . S
C247 C231 1.429 . S
C247 C243 1.429 . S
C247 C248 1.523 . S
C248 C232 1.368 1_545 S
C248 C244 1.368 . S
C248 C247 1.523 . S
H249 C224 0.950 . S
H250 C226 0.950 . S
H251 C227 0.949 . S
H252 C229 0.950 . S
H253 C231 0.950 . S
C254 C255 1.349 . S
C254 C256 1.327 . S
C254 H279 0.950 . S
C255 C254 1.349 . S
C255 C271 1.349 . S
C256 C254 1.327 . S
C256 C275 1.429 . S
C256 H280 0.950 1_655 S
C257 C274 1.574 1_556 S
C257 C276 1.368 . S
C257 H281 0.949 . S
H258 C262 0.949 . S
C259 C260 1.349 . S
C259 C261 1.327 . S
C259 H282 0.950 . S
C260 C259 1.349 . S
C260 C272 1.349 . S
C261 C259 1.327 . S
C261 C277 1.429 . S
C261 H283 0.950 1_455 S
C262 H258 0.949 . S
C262 C270 1.574 . S
C262 C278 1.368 . S
H263 C271 0.950 . S
H264 C269 0.950 . S
H265 C270 0.949 1_556 S
H266 C272 0.950 . S
H267 C273 0.950 . S
H268 C274 0.949 . S
C269 H264 0.950 . S
C269 C271 1.327 . S
C269 C275 1.429 . S
C270 C262 1.574 . S
C270 H265 0.949 1_554 S
C270 C276 1.368 1_454 S
C271 C255 1.349 . S
C271 H263 0.950 . S
C271 C269 1.327 . S
C272 C260 1.349 . S
C272 H266 0.950 . S
C272 C273 1.327 . S
C273 H267 0.950 . S
C273 C272 1.327 . S
C273 C277 1.429 . S
C274 C257 1.574 1_554 S
C274 H268 0.949 . S
C274 C278 1.368 1_655 S
C275 C256 1.429 . S
C275 C269 1.429 . S
C275 C276 1.523 . S
C276 C257 1.368 . S
C276 C270 1.368 1_656 S
C276 C275 1.523 . S
C277 C261 1.429 . S
C277 C273 1.429 . S
C277 C278 1.523 . S
C278 C262 1.368 . S
C278 C274 1.368 1_455 S
C278 C277 1.523 . S
H279 C254 0.950 . S
H280 C256 0.950 1_455 S
H281 C257 0.949 . S
H282 C259 0.950 . S
H283 C261 0.950 1_655 S
C284 C285 1.349 . S
C284 C286 1.327 . S
C284 H309 0.950 . S
C285 C284 1.349 . S
C285 C301 1.349 . S
C286 C284 1.327 . S
C286 C305 1.429 . S
C286 H310 0.950 . S
C287 C304 1.574 . S
C287 C306 1.368 . S
C287 H311 0.949 . S
H288 C292 0.949 . S
C289 C290 1.349 . S
C289 C291 1.327 . S
C289 H312 0.950 . S
C290 C289 1.349 . S
C290 C302 1.349 . S
C291 C289 1.327 . S
C291 C307 1.429 . S
C291 H313 0.950 . S
C292 H288 0.949 . S
C292 C300 1.574 . S
C292 C308 1.368 . S
H293 C301 0.950 . S
H294 C299 0.950 . S
H295 C300 0.949 . S
H296 C302 0.950 . S
H297 C303 0.950 . S
H298 C304 0.949 . S
C299 H294 0.950 . S
C299 C301 1.327 . S
C299 C305 1.429 . S
C300 C292 1.574 . S
C300 H295 0.949 . S
C300 C306 1.368 . S
C301 C285 1.349 . S
C301 H293 0.950 . S
C301 C299 1.327 . S
C302 C290 1.349 . S
C302 H296 0.950 . S
C302 C303 1.327 . S
C303 H297 0.950 . S
C303 C302 1.327 . S
C303 C307 1.429 . S
C304 C287 1.574 . S
C304 H298 0.949 . S
C304 C308 1.368 . S
C305 C286 1.429 . S
C305 C299 1.429 . S
C305 C306 1.523 . S
C306 C287 1.368 . S
C306 C300 1.368 . S
C306 C305 1.523 . S
C307 C291 1.429 . S
C307 C303 1.429 . S
C307 C308 1.523 . S
C308 C292 1.368 . S
C308 C304 1.368 . S
C308 C307 1.523 . S
H309 C284 0.950 . S
H310 C286 0.950 . S
H311 C287 0.949 . S
H312 C289 0.950 . S
H313 C291 0.950 . S
C314 C315 1.349 . S
C314 C316 1.327 . S
C314 H339 0.950 . S
C315 C314 1.349 . S
C315 C331 1.349 . S
C316 C314 1.327 . S
C316 C335 1.429 . S
C316 H340 0.950 . S
C317 C334 1.574 . S
C317 C336 1.368 . S
C317 H341 0.949 . S
H318 C322 0.949 . S
C319 C320 1.349 . S
C319 C321 1.327 . S
C319 H342 0.950 . S
C320 C319 1.349 . S
C320 C332 1.349 . S
C321 C319 1.327 . S
C321 C337 1.429 . S
C321 H343 0.950 . S
C322 H318 0.949 . S
C322 C330 1.574 . S
C322 C338 1.368 . S
H323 C331 0.950 . S
H324 C329 0.950 . S
H325 C330 0.949 . S
H326 C332 0.950 . S
H327 C333 0.950 . S
H328 C334 0.949 . S
C329 H324 0.950 . S
C329 C331 1.327 . S
C329 C335 1.429 . S
C330 C322 1.574 . S
C330 H325 0.949 . S
C330 C336 1.368 . S
C331 C315 1.349 . S
C331 H323 0.950 . S
C331 C329 1.327 . S
C332 C320 1.349 . S
C332 H326 0.950 . S
C332 C333 1.327 . S
C333 H327 0.950 . S
C333 C332 1.327 . S
C333 C337 1.429 . S
C334 C317 1.574 . S
C334 H328 0.949 . S
C334 C338 1.368 . S
C335 C316 1.429 . S
C335 C329 1.429 . S
C335 C336 1.523 . S
C336 C317 1.368 . S
C336 C330 1.368 . S
C336 C335 1.523 . S
C337 C321 1.429 . S
C337 C333 1.429 . S
C337 C338 1.523 . S
C338 C322 1.368 . S
C338 C334 1.368 . S
C338 C337 1.523 . S
H339 C314 0.950 . S
H340 C316 0.950 . S
H341 C317 0.949 . S
H342 C319 0.950 . S
H343 C321 0.950 . S
C344 C345 1.349 . S
C344 C346 1.327 . S
C344 H369 0.950 . S
C345 C344 1.349 . S
C345 C361 1.349 . S
C346 C344 1.327 . S
C346 C365 1.429 . S
C346 H370 0.950 . S
C347 C364 1.574 . S
C347 C366 1.368 . S
C347 H371 0.949 . S
H348 C352 0.949 . S
C349 C350 1.349 . S
C349 C351 1.327 . S
C349 H372 0.950 . S
C350 C349 1.349 . S
C350 C362 1.349 . S
C351 C349 1.327 . S
C351 C367 1.429 . S
C351 H373 0.950 . S
C352 H348 0.949 . S
C352 C360 1.574 . S
C352 C368 1.368 . S
H353 C361 0.950 . S
H354 C359 0.950 . S
H355 C360 0.949 . S
H356 C362 0.950 . S
H357 C363 0.950 . S
H358 C364 0.949 . S
C359 H354 0.950 . S
C359 C361 1.327 . S
C359 C365 1.429 . S
C360 C352 1.574 . S
C360 H355 0.949 . S
C360 C366 1.368 . S
C361 C345 1.349 . S
C361 H353 0.950 . S
C361 C359 1.327 . S
C362 C350 1.349 . S
C362 H356 0.950 . S
C362 C363 1.327 . S
C363 H357 0.950 . S
C363 C362 1.327 . S
C363 C367 1.429 . S
C364 C347 1.574 . S
C364 H358 0.949 . S
C364 C368 1.368 . S
C365 C346 1.429 . S
C365 C359 1.429 . S
C365 C366 1.523 . S
C366 C347 1.368 . S
C366 C360 1.368 . S
C366 C365 1.523 . S
C367 C351 1.429 . S
C367 C363 1.429 . S
C367 C368 1.523 . S
C368 C352 1.368 . S
C368 C364 1.368 . S
C368 C367 1.523 . S
H369 C344 0.950 . S
H370 C346 0.950 . S
H371 C347 0.949 . S
H372 C349 0.950 . S
H373 C351 0.950 . S
C374 C375 1.349 . S
C374 C376 1.327 . S
C374 H399 0.950 . S
C375 C374 1.349 . S
C375 C391 1.349 . S
C376 C374 1.327 . S
C376 C395 1.429 . S
C376 H400 0.950 . S
C377 C394 1.574 . S
C377 C396 1.368 1_554 S
C377 H401 0.949 . S
H378 C382 0.949 . S
C379 C380 1.349 . S
C379 C381 1.327 . S
C379 H402 0.950 . S
C380 C379 1.349 . S
C380 C392 1.349 . S
C381 C379 1.327 . S
C381 C397 1.429 . S
C381 H403 0.950 . S
C382 H378 0.949 . S
C382 C390 1.574 . S
C382 C398 1.368 1_556 S
H383 C391 0.950 . S
H384 C389 0.950 . S
H385 C390 0.949 . S
H386 C392 0.950 . S
H387 C393 0.950 . S
H388 C394 0.949 . S
C389 H384 0.950 . S
C389 C391 1.327 . S
C389 C395 1.429 . S
C390 C382 1.574 . S
C390 H385 0.949 . S
C390 C396 1.368 . S
C391 C375 1.349 . S
C391 H383 0.950 . S
C391 C389 1.327 . S
C392 C380 1.349 . S
C392 H386 0.950 . S
C392 C393 1.327 . S
C393 H387 0.950 . S
C393 C392 1.327 . S
C393 C397 1.429 . S
C394 C377 1.574 . S
C394 H388 0.949 . S
C394 C398 1.368 . S
C395 C376 1.429 . S
C395 C389 1.429 . S
C395 C396 1.523 . S
C396 C377 1.368 1_556 S
C396 C390 1.368 . S
C396 C395 1.523 . S
C397 C381 1.429 . S
C397 C393 1.429 . S
C397 C398 1.523 . S
C398 C382 1.368 1_554 S
C398 C394 1.368 . S
C398 C397 1.523 . S
H399 C374 0.950 . S
H400 C376 0.950 . S
H401 C377 0.949 . S
H402 C379 0.950 . S
H403 C381 0.950 . S
C404 C405 1.349 . S
C404 C406 1.327 . S
C404 H429 0.950 . S
C405 C404 1.349 . S
C405 C421 1.349 . S
C406 C404 1.327 . S
C406 C425 1.429 . S
C406 H430 0.950 . S
C407 C424 1.574 . S
C407 C426 1.368 . S
C407 H431 0.949 . S
H408 C412 0.949 . S
C409 C410 1.349 . S
C409 C411 1.327 . S
C409 H432 0.950 . S
C410 C409 1.349 . S
C410 C422 1.349 . S
C411 C409 1.327 . S
C411 C427 1.429 . S
C411 H433 0.950 . S
C412 H408 0.949 . S
C412 C420 1.574 . S
C412 C428 1.368 . S
H413 C421 0.950 . S
H414 C419 0.950 . S
H415 C420 0.949 . S
H416 C422 0.950 . S
H417 C423 0.950 . S
H418 C424 0.949 . S
C419 H414 0.950 . S
C419 C421 1.327 . S
C419 C425 1.429 . S
C420 C412 1.574 . S
C420 H415 0.949 . S
C420 C426 1.368 1_545 S
C421 C405 1.349 . S
C421 H413 0.950 . S
C421 C419 1.327 . S
C422 C410 1.349 . S
C422 H416 0.950 . S
C422 C423 1.327 . S
C423 H417 0.950 . S
C423 C422 1.327 . S
C423 C427 1.429 . S
C424 C407 1.574 . S
C424 H418 0.949 . S
C424 C428 1.368 1_565 S
C425 C406 1.429 . S
C425 C419 1.429 . S
C425 C426 1.523 . S
C426 C407 1.368 . S
C426 C420 1.368 1_565 S
C426 C425 1.523 . S
C427 C411 1.429 . S
C427 C423 1.429 . S
C427 C428 1.523 . S
C428 C412 1.368 . S
C428 C424 1.368 1_545 S
C428 C427 1.523 . S
H429 C404 0.950 . S
H430 C406 0.950 . S
H431 C407 0.949 . S
H432 C409 0.950 . S
H433 C411 0.950 . S
C434 C435 1.349 . S
C434 C436 1.327 . S
C434 H459 0.950 . S
C435 C434 1.349 . S
C435 C451 1.349 . S
C436 C434 1.327 . S
C436 C455 1.429 . S
C436 H460 0.950 1_655 S
C437 C454 1.574 1_565 S
C437 C456 1.368 . S
C437 H461 0.951 . S
H438 C442 0.949 . S
C439 C440 1.349 . S
C439 C441 1.327 . S
C439 H462 0.950 . S
C440 C439 1.349 . S
C440 C452 1.349 . S
C441 C439 1.327 . S
C441 C457 1.429 . S
C441 H463 0.950 1_455 S
C442 H438 0.949 . S
C442 C450 1.574 . S
C442 C458 1.368 1_565 S
H443 C451 0.950 . S
H444 C449 0.950 . S
H445 C450 0.949 . S
H446 C452 0.950 . S
H447 C453 0.950 . S
H448 C454 0.949 . S
C449 H444 0.950 . S
C449 C451 1.327 . S
C449 C455 1.429 . S
C450 C442 1.574 . S
C450 H445 0.949 . S
C450 C456 1.368 1_455 S
C451 C435 1.349 . S
C451 H443 0.950 . S
C451 C449 1.327 . S
C452 C440 1.349 . S
C452 H446 0.950 . S
C452 C453 1.327 . S
C453 H447 0.950 . S
C453 C452 1.327 . S
C453 C457 1.429 . S
C454 C437 1.574 1_545 S
C454 H448 0.949 . S
C454 C458 1.368 1_655 S
C455 C436 1.429 . S
C455 C449 1.429 . S
C455 C456 1.523 . S
C456 C437 1.368 . S
C456 C450 1.368 1_655 S
C456 C455 1.523 . S
C457 C441 1.429 . S
C457 C453 1.429 . S
C457 C458 1.523 . S
C458 C442 1.368 1_545 S
C458 C454 1.368 1_455 S
C458 C457 1.523 . S
H459 C434 0.950 . S
H460 C436 0.950 1_455 S
H461 C437 0.951 . S
H462 C439 0.950 . S
H463 C441 0.950 1_655 S
C464 C465 1.349 . S
C464 C466 1.327 . S
C464 H489 0.950 . S
C465 C464 1.349 . S
C465 C481 1.349 . S
C466 C464 1.327 . S
C466 C485 1.429 . S
C466 H490 0.950 . S
C467 C484 1.574 . S
C467 C486 1.368 1_455 S
C467 H491 0.949 . S
H468 C472 0.949 . S
C469 C470 1.349 . S
C469 C471 1.327 . S
C469 H492 0.950 . S
C470 C469 1.349 . S
C470 C482 1.349 . S
C471 C469 1.327 . S
C471 C487 1.429 . S
C471 H493 0.950 . S
C472 H468 0.949 . S
C472 C480 1.574 . S
C472 C488 1.368 1_655 S
H473 C481 0.950 . S
H474 C479 0.950 . S
H475 C480 0.949 . S
H476 C482 0.950 . S
H477 C483 0.950 . S
H478 C484 0.949 . S
C479 H474 0.950 . S
C479 C481 1.327 . S
C479 C485 1.429 . S
C480 C472 1.574 . S
C480 H475 0.949 . S
C480 C486 1.368 . S
C481 C465 1.349 . S
C481 H473 0.950 . S
C481 C479 1.327 . S
C482 C470 1.349 . S
C482 H476 0.950 . S
C482 C483 1.327 . S
C483 H477 0.950 . S
C483 C482 1.327 . S
C483 C487 1.429 . S
C484 C467 1.574 . S
C484 H478 0.949 . S
C484 C488 1.368 . S
C485 C466 1.429 . S
C485 C479 1.429 . S
C485 C486 1.523 . S
C486 C467 1.368 1_655 S
C486 C480 1.368 . S
C486 C485 1.523 . S
C487 C471 1.429 . S
C487 C483 1.429 . S
C487 C488 1.523 . S
C488 C472 1.368 1_455 S
C488 C484 1.368 . S
C488 C487 1.523 . S
H489 C464 0.950 . S
H490 C466 0.950 . S
H491 C467 0.949 . S
H492 C469 0.950 . S
H493 C471 0.950 . S
C494 C495 1.349 . S
C494 C496 1.327 . S
C494 H519 0.950 . S
C495 C494 1.349 . S
C495 C511 1.349 . S
C496 C494 1.327 . S
C496 C515 1.429 . S
C496 H520 0.950 . S
C497 C514 1.574 . S
C497 C516 1.368 . S
C497 H521 0.949 . S
H498 C502 0.949 . S
C499 C500 1.349 . S
C499 C501 1.327 . S
C499 H522 0.950 . S
C500 C499 1.349 . S
C500 C512 1.349 . S
C501 C499 1.327 . S
C501 C517 1.429 . S
C501 H523 0.950 . S
C502 H498 0.949 . S
C502 C510 1.574 . S
C502 C518 1.368 . S
H503 C511 0.950 . S
H504 C509 0.950 . S
H505 C510 0.949 . S
H506 C512 0.950 . S
H507 C513 0.950 . S
H508 C514 0.949 . S
C509 H504 0.950 . S
C509 C511 1.327 . S
C509 C515 1.429 . S
C510 C502 1.574 . S
C510 H505 0.949 . S
C510 C516 1.368 . S
C511 C495 1.349 . S
C511 H503 0.950 . S
C511 C509 1.327 . S
C512 C500 1.349 . S
C512 H506 0.950 . S
C512 C513 1.327 . S
C513 H507 0.950 . S
C513 C512 1.327 . S
C513 C517 1.429 . S
C514 C497 1.574 . S
C514 H508 0.949 . S
C514 C518 1.368 . S
C515 C496 1.429 . S
C515 C509 1.429 . S
C515 C516 1.523 . S
C516 C497 1.368 . S
C516 C510 1.368 . S
C516 C515 1.523 . S
C517 C501 1.429 . S
C517 C513 1.429 . S
C517 C518 1.523 . S
C518 C502 1.368 . S
C518 C514 1.368 . S
C518 C517 1.523 . S
H519 C494 0.950 . S
H520 C496 0.950 . S
H521 C497 0.949 . S
H522 C499 0.950 . S
H523 C501 0.950 . S
C524 C525 1.349 . S
C524 C526 1.327 . S
C524 H549 0.950 . S
C525 C524 1.349 . S
C525 C541 1.349 . S
C526 C524 1.327 . S
C526 C545 1.429 . S
C526 H550 0.950 . S
C527 C544 1.574 . S
C527 C546 1.368 . S
C527 H551 0.949 . S
H528 C532 0.949 . S
C529 C530 1.349 . S
C529 C531 1.327 . S
C529 H552 0.950 . S
C530 C529 1.349 . S
C530 C542 1.349 . S
C531 C529 1.327 . S
C531 C547 1.429 . S
C531 H553 0.950 . S
C532 H528 0.949 . S
C532 C540 1.592 . S
C532 C548 1.368 . S
H533 C541 0.950 . S
H534 C539 0.950 . S
H535 C540 0.953 . S
H536 C542 0.950 . S
H537 C543 0.950 . S
H538 C544 0.949 . S
C539 H534 0.950 . S
C539 C541 1.327 . S
C539 C545 1.429 . S
C540 C532 1.592 . S
C540 H535 0.953 . S
C540 C546 1.346 1_556 S
C541 C525 1.349 . S
C541 H533 0.950 . S
C541 C539 1.327 . S
C542 C530 1.349 . S
C542 H536 0.950 . S
C542 C543 1.327 . S
C543 H537 0.950 . S
C543 C542 1.327 . S
C543 C547 1.429 . S
C544 C527 1.574 . S
C544 H538 0.949 . S
C544 C548 1.368 1_554 S
C545 C526 1.429 . S
C545 C539 1.429 . S
C545 C546 1.523 . S
C546 C527 1.368 . S
C546 C540 1.346 1_554 S
C546 C545 1.523 . S
C547 C531 1.429 . S
C547 C543 1.429 . S
C547 C548 1.523 . S
C548 C532 1.368 . S
C548 C544 1.368 1_556 S
C548 C547 1.523 . S
H549 C524 0.950 . S
H550 C526 0.950 . S
H551 C527 0.949 . S
H552 C529 0.950 . S
H553 C531 0.950 . S
C554 C555 1.349 . S
C554 C556 1.327 . S
C554 H579 0.950 . S
C555 C554 1.349 . S
C555 C571 1.349 . S
C556 C554 1.327 . S
C556 C575 1.429 . S
C556 H580 0.950 . S
C557 C574 1.574 . S
C557 C576 1.368 . S
C557 H581 0.949 . S
H558 C562 0.949 . S
C559 C560 1.349 . S
C559 C561 1.327 . S
C559 H582 0.950 . S
C560 C559 1.349 . S
C560 C572 1.349 . S
C561 C559 1.327 . S
C561 C577 1.429 . S
C561 H583 0.950 . S
C562 H558 0.949 . S
C562 C570 1.574 . S
C562 C578 1.368 . S
H563 C571 0.950 . S
H564 C569 0.950 . S
H565 C570 0.949 . S
H566 C572 0.950 . S
H567 C573 0.950 . S
H568 C574 0.949 . S
C569 H564 0.950 . S
C569 C571 1.327 . S
C569 C575 1.429 . S
C570 C562 1.574 . S
C570 H565 0.949 . S
C570 C576 1.368 . S
C571 C555 1.349 . S
C571 H563 0.950 . S
C571 C569 1.327 . S
C572 C560 1.349 . S
C572 H566 0.950 . S
C572 C573 1.327 . S
C573 H567 0.950 . S
C573 C572 1.327 . S
C573 C577 1.429 . S
C574 C557 1.574 . S
C574 H568 0.949 . S
C574 C578 1.368 . S
C575 C556 1.429 . S
C575 C569 1.429 . S
C575 C576 1.523 . S
C576 C557 1.368 . S
C576 C570 1.368 . S
C576 C575 1.523 . S
C577 C561 1.429 . S
C577 C573 1.429 . S
C577 C578 1.523 . S
C578 C562 1.368 . S
C578 C574 1.368 . S
C578 C577 1.523 . S
H579 C554 0.950 . S
H580 C556 0.950 . S
H581 C557 0.949 . S
H582 C559 0.950 . S
H583 C561 0.950 . S
C105 C70 1.514 . S
C110 C10 1.516 . S
C135 C96 1.514 . S
C140 C17 1.515 . S
C165 C29 1.515 . S
C170 C81 1.515 . S
C195 C43 1.514 . S
C200 C56 1.514 . S
C225 C82 1.515 . S
C230 C3 1.514 . S
C255 C16 1.515 . S
C260 C57 1.515 . S
C285 C75 1.515 . S
C290 C36 1.515 . S
C315 C42 1.514 . S
C320 C95 1.515 . S
C345 C55 1.514 . S
C350 C69 1.515 . S
C375 C18 1.514 . S
C380 C30 1.515 . S
C405 C49 1.515 . S
C410 C31 1.514 . S
C435 C44 1.515 . S
C440 C5 1.515 . S
C465 C23 1.515 . S
C470 C4 1.515 . S
C495 C101 1.515 . S
C500 C88 1.515 . S
C525 C62 1.515 . S
C530 C83 1.514 . S
C555 C68 1.515 . S
C560 C94 1.515 . S
