# Generated by pormake.
# Topology wib, (6)-cn, num edge types: 1
# Building blocks:
#     Node 0, Type 0, BuildingBlock: VOLQOD_clean_sbu_1, # of connection points: 6
#     Node 1, Type 0, BuildingBlock: VOLQOD_clean_sbu_1, # of connection points: 6
#     Node 2, Type 0, BuildingBlock: VOLQOD_clean_sbu_1, # of connection points: 6
#     Node 3, Type 0, BuildingBlock: VOLQOD_clean_sbu_1, # of connection points: 6
#     Node 4, Type 0, BuildingBlock: VOLQOD_clean_sbu_1, # of connection points: 6
#     Node 5, Type 0, BuildingBlock: VOLQOD_clean_sbu_1, # of connection points: 6
#     Node 6, Type 0, BuildingBlock: VOLQOD_clean_sbu_1, # of connection points: 6
#     Node 7, Type 0, BuildingBlock: VOLQOD_clean_sbu_1, # of connection points: 6
#     Node 8, Type 0, BuildingBlock: VOLQOD_clean_sbu_1, # of connection points: 6
#     Node 9, Type 0, BuildingBlock: VOLQOD_clean_sbu_1, # of connection points: 6
#     Node 10, Type 0, BuildingBlock: VOLQOD_clean_sbu_1, # of connection points: 6
#     Node 11, Type 0, BuildingBlock: VOLQOD_clean_sbu_1, # of connection points: 6
#     Node 12, Type 0, BuildingBlock: VOLQOD_clean_sbu_1, # of connection points: 6
#     Node 13, Type 0, BuildingBlock: VOLQOD_clean_sbu_1, # of connection points: 6
#     Node 14, Type 0, BuildingBlock: VOLQOD_clean_sbu_1, # of connection points: 6
#     Node 15, Type 0, BuildingBlock: VOLQOD_clean_sbu_1, # of connection points: 6
#     Edge 16, Type (0, 0), BuildingBlock: EZIPEK_clean_linker_0, # of connection points: 2
#     Edge 17, Type (0, 0), BuildingBlock: EZIPEK_clean_linker_0, # of connection points: 2
#     Edge 18, Type (0, 0), BuildingBlock: EZIPEK_clean_linker_0, # of connection points: 2
#     Edge 19, Type (0, 0), BuildingBlock: EZIPEK_clean_linker_0, # of connection points: 2
#     Edge 20, Type (0, 0), BuildingBlock: EZIPEK_clean_linker_0, # of connection points: 2
#     Edge 21, Type (0, 0), BuildingBlock: EZIPEK_clean_linker_0, # of connection points: 2
#     Edge 22, Type (0, 0), BuildingBlock: EZIPEK_clean_linker_0, # of connection points: 2
#     Edge 23, Type (0, 0), BuildingBlock: EZIPEK_clean_linker_0, # of connection points: 2
#     Edge 24, Type (0, 0), BuildingBlock: EZIPEK_clean_linker_0, # of connection points: 2
#     Edge 25, Type (0, 0), BuildingBlock: EZIPEK_clean_linker_0, # of connection points: 2
#     Edge 26, Type (0, 0), BuildingBlock: EZIPEK_clean_linker_0, # of connection points: 2
#     Edge 27, Type (0, 0), BuildingBlock: EZIPEK_clean_linker_0, # of connection points: 2
#     Edge 28, Type (0, 0), BuildingBlock: EZIPEK_clean_linker_0, # of connection points: 2
#     Edge 29, Type (0, 0), BuildingBlock: EZIPEK_clean_linker_0, # of connection points: 2
#     Edge 30, Type (0, 0), BuildingBlock: EZIPEK_clean_linker_0, # of connection points: 2
#     Edge 31, Type (0, 0), BuildingBlock: EZIPEK_clean_linker_0, # of connection points: 2
#     Edge 32, Type (0, 0), BuildingBlock: EZIPEK_clean_linker_0, # of connection points: 2
#     Edge 33, Type (0, 0), BuildingBlock: EZIPEK_clean_linker_0, # of connection points: 2
#     Edge 34, Type (0, 0), BuildingBlock: EZIPEK_clean_linker_0, # of connection points: 2
#     Edge 35, Type (0, 0), BuildingBlock: EZIPEK_clean_linker_0, # of connection points: 2
#     Edge 36, Type (0, 0), BuildingBlock: EZIPEK_clean_linker_0, # of connection points: 2
#     Edge 37, Type (0, 0), BuildingBlock: EZIPEK_clean_linker_0, # of connection points: 2
#     Edge 38, Type (0, 0), BuildingBlock: EZIPEK_clean_linker_0, # of connection points: 2
#     Edge 39, Type (0, 0), BuildingBlock: EZIPEK_clean_linker_0, # of connection points: 2
#     Edge 40, Type (0, 0), BuildingBlock: EZIPEK_clean_linker_0, # of connection points: 2
#     Edge 41, Type (0, 0), BuildingBlock: EZIPEK_clean_linker_0, # of connection points: 2
#     Edge 42, Type (0, 0), BuildingBlock: EZIPEK_clean_linker_0, # of connection points: 2
#     Edge 43, Type (0, 0), BuildingBlock: EZIPEK_clean_linker_0, # of connection points: 2
#     Edge 44, Type (0, 0), BuildingBlock: EZIPEK_clean_linker_0, # of connection points: 2
#     Edge 45, Type (0, 0), BuildingBlock: EZIPEK_clean_linker_0, # of connection points: 2
#     Edge 46, Type (0, 0), BuildingBlock: EZIPEK_clean_linker_0, # of connection points: 2
#     Edge 47, Type (0, 0), BuildingBlock: EZIPEK_clean_linker_0, # of connection points: 2
#     Edge 48, Type (0, 0), BuildingBlock: EZIPEK_clean_linker_0, # of connection points: 2
#     Edge 49, Type (0, 0), BuildingBlock: EZIPEK_clean_linker_0, # of connection points: 2
#     Edge 50, Type (0, 0), BuildingBlock: EZIPEK_clean_linker_0, # of connection points: 2
#     Edge 51, Type (0, 0), BuildingBlock: EZIPEK_clean_linker_0, # of connection points: 2
#     Edge 52, Type (0, 0), BuildingBlock: EZIPEK_clean_linker_0, # of connection points: 2
#     Edge 53, Type (0, 0), BuildingBlock: EZIPEK_clean_linker_0, # of connection points: 2
#     Edge 54, Type (0, 0), BuildingBlock: EZIPEK_clean_linker_0, # of connection points: 2
#     Edge 55, Type (0, 0), BuildingBlock: EZIPEK_clean_linker_0, # of connection points: 2
#     Edge 56, Type (0, 0), BuildingBlock: EZIPEK_clean_linker_0, # of connection points: 2
#     Edge 57, Type (0, 0), BuildingBlock: EZIPEK_clean_linker_0, # of connection points: 2
#     Edge 58, Type (0, 0), BuildingBlock: EZIPEK_clean_linker_0, # of connection points: 2
#     Edge 59, Type (0, 0), BuildingBlock: EZIPEK_clean_linker_0, # of connection points: 2
#     Edge 60, Type (0, 0), BuildingBlock: EZIPEK_clean_linker_0, # of connection points: 2
#     Edge 61, Type (0, 0), BuildingBlock: EZIPEK_clean_linker_0, # of connection points: 2
#     Edge 62, Type (0, 0), BuildingBlock: EZIPEK_clean_linker_0, # of connection points: 2
#     Edge 63, Type (0, 0), BuildingBlock: EZIPEK_clean_linker_0, # of connection points: 2
# Relax obj value: 0.536
# Max RMSD: 0.268
# Mean RMSD: 0.267
data_MOF--net-wib--node1-VOLQOD_clean_sbu_1--edge1-EZIPEK_clean_linker_0
_symmetry_space_group_name_H-M    P1
_symmetry_Int_Tables_number       1
_symmetry_cell_setting            triclinic
loop_
_symmetry_equiv_pos_as_xyz
'x, y, z'
_cell_length_a     22.616512
_cell_length_b     22.584822
_cell_length_c     50.03218
_cell_angle_alpha  90.105731
_cell_angle_beta   90.112152
_cell_angle_gamma 89.817296
loop_
_atom_site_label
_atom_site_type_symbol
_atom_site_fract_x
_atom_site_fract_y
_atom_site_fract_z
_atom_type_partial_charge
O0 O 0.09823 0.6301 0.28019 0.0
Zn1 Zn 0.16232 0.56697 0.27936 0.0
O2 O 0.15476 0.51462 0.24833 0.0
Zn3 Zn 0.15519 0.43151 0.25879 0.0
Zn4 Zn 0.08684 0.53817 0.22737 0.0
Zn5 Zn 0.22189 0.52769 0.22634 0.0
O6 O 0.23368 0.3897 0.24655 0.0
O7 O 0.28475 0.46938 0.23424 0.0
O8 O 0.17042 0.51996 0.3136 0.0
O9 O 0.16442 0.42694 0.29887 0.0
O10 O 0.07201 0.39663 0.24998 0.0
O11 O 0.02435 0.47576 0.2334 0.0
O12 O 0.10723 0.5465 0.1877 0.0
O13 O 0.23284 0.61968 0.27586 0.0
O14 O 0.20364 0.5273 0.18757 0.0
O15 O 0.24941 0.60882 0.23292 0.0
C16 C 0.06564 0.64924 0.26123 0.0
C17 C 0.28277 0.41497 0.24059 0.0
C18 C 0.02444 0.42233 0.24181 0.0
C19 C 0.17098 0.46423 0.31774 0.0
C20 C 0.15613 0.54007 0.17531 0.0
C21 C 0.25463 0.63897 0.25418 0.0
O22 O 0.05878 0.61973 0.23966 0.0
O23 O 0.14713 0.33307 0.52998 0.0
Zn24 Zn 0.20639 0.40026 0.52806 0.0
O25 O 0.25974 0.39259 0.49755 0.0
Zn26 Zn 0.34259 0.39183 0.50873 0.0
Zn27 Zn 0.23598 0.32478 0.47645 0.0
Zn28 Zn 0.24882 0.46025 0.47542 0.0
O29 O 0.38638 0.46902 0.4963 0.0
O30 O 0.30807 0.52163 0.48326 0.0
O31 O 0.25246 0.41316 0.56232 0.0
O32 O 0.34587 0.40278 0.54884 0.0
O33 O 0.37676 0.30783 0.50025 0.0
O34 O 0.2983 0.26139 0.48258 0.0
O35 O 0.22775 0.34584 0.43676 0.0
O36 O 0.14961 0.4675 0.52262 0.0
O37 O 0.24963 0.4417 0.43681 0.0
O38 O 0.16904 0.49197 0.48112 0.0
C39 C 0.1265 0.30234 0.51071 0.0
C40 C 0.3622 0.51859 0.48989 0.0
C41 C 0.35129 0.26062 0.4916 0.0
C42 C 0.3079 0.4125 0.56711 0.0
C43 C 0.23563 0.39468 0.42447 0.0
C44 C 0.13551 0.49473 0.50129 0.0
O45 O 0.15424 0.29739 0.48861 0.0
O46 O 0.42564 0.39333 0.77922 0.0
Zn47 Zn 0.36086 0.45528 0.77783 0.0
O48 O 0.37015 0.50884 0.74741 0.0
Zn49 Zn 0.37064 0.59157 0.75908 0.0
Zn50 Zn 0.4387 0.48502 0.72676 0.0
Zn51 Zn 0.30349 0.49799 0.72452 0.0
O52 O 0.29245 0.63496 0.74723 0.0
O53 O 0.24167 0.55753 0.73198 0.0
O54 O 0.3518 0.50054 0.8125 0.0
O55 O 0.36198 0.59423 0.79941 0.0
O56 O 0.45398 0.62632 0.75028 0.0
O57 O 0.50134 0.54772 0.73297 0.0
O58 O 0.41889 0.47582 0.68696 0.0
O59 O 0.29107 0.40181 0.77277 0.0
O60 O 0.32309 0.49775 0.68593 0.0
O61 O 0.27174 0.41827 0.73041 0.0
C62 C 0.45901 0.37414 0.76061 0.0
C63 C 0.24363 0.61107 0.73972 0.0
C64 C 0.50144 0.60096 0.74178 0.0
C65 C 0.35342 0.55585 0.81763 0.0
C66 C 0.3706 0.48326 0.67412 0.0
C67 C 0.26607 0.38646 0.75105 0.0
O68 O 0.46648 0.40328 0.73905 0.0
O69 O 0.36815 0.70708 0.03354 0.0
Zn70 Zn 0.32173 0.62984 0.03092 0.0
O71 O 0.27093 0.62642 -0.00054 0.0
Zn72 Zn 0.18775 0.62574 0.00961 0.0
Zn73 Zn 0.29419 0.69228 0.97748 0.0
Zn74 Zn 0.2868 0.55626 0.97932 0.0
O75 O 0.14642 0.54753 -0.003 0.0
O76 O 0.22693 0.49501 0.98679 0.0
O77 O 0.27532 0.61227 0.06446 0.0
O78 O 0.18236 0.61585 0.04967 0.0
O79 O 0.15282 0.70867 0.00051 0.0
O80 O 0.23124 0.75506 0.98295 0.0
O81 O 0.30198 0.66877 0.93809 0.0
O82 O 0.38714 0.57047 0.02654 0.0
O83 O 0.28954 0.57127 0.94009 0.0
O84 O 0.36648 0.52659 0.9883 0.0
C85 C 0.39589 0.72829 0.01356 0.0
C86 C 0.17202 0.49789 0.99195 0.0
C87 C 0.17815 0.75569 0.99174 0.0
C88 C 0.21976 0.60906 0.06848 0.0
C89 C 0.29854 0.61818 0.92677 0.0
C90 C 0.40116 0.53473 0.00788 0.0
O91 O 0.37515 0.72194 0.98996 0.0
O92 O 0.935 0.39824 0.71238 0.0
Zn93 Zn 0.86423 0.45175 0.71666 0.0
O94 O 0.87223 0.50979 0.74523 0.0
Zn95 Zn 0.87099 0.59093 0.73155 0.0
Zn96 Zn 0.94343 0.48944 0.76464 0.0
Zn97 Zn 0.80619 0.50255 0.76915 0.0
O98 O 0.7925 0.6356 0.74204 0.0
O99 O 0.7442 0.56157 0.76131 0.0
O100 O 0.84337 0.49173 0.68188 0.0
O101 O 0.85989 0.58672 0.69168 0.0
O102 O 0.95394 0.62877 0.73862 0.0
O103 O 1.00349 0.55279 0.75689 0.0
O104 O 0.92733 0.48458 0.80455 0.0
O105 O 0.80546 0.39065 0.7275 0.0
O106 O 0.83117 0.50517 0.80711 0.0
O107 O 0.76947 0.42405 0.76588 0.0
C108 C 0.96803 0.37908 0.73111 0.0
C109 C 0.74456 0.61297 0.75115 0.0
C110 C 1.00216 0.60515 0.74729 0.0
C111 C 0.84615 0.5461 0.67513 0.0
C112 C 0.88023 0.49232 0.81812 0.0
C113 C 0.77465 0.38369 0.74847 0.0
O114 O 0.97346 0.40774 0.753 0.0
O115 O 0.86042 0.68537 0.46075 0.0
Zn116 Zn 0.80914 0.61101 0.46267 0.0
O117 O 0.75821 0.61115 0.49398 0.0
Zn118 Zn 0.67528 0.61305 0.48383 0.0
Zn119 Zn 0.78238 0.67633 0.5159 0.0
Zn120 Zn 0.77281 0.54188 0.51455 0.0
O121 O 0.63475 0.53253 0.49349 0.0
O122 O 0.71427 0.48066 0.50592 0.0
O123 O 0.76061 0.59737 0.42909 0.0
O124 O 0.66887 0.61174 0.44371 0.0
O125 O 0.64069 0.69466 0.49481 0.0
O126 O 0.72186 0.74085 0.50993 0.0
O127 O 0.78837 0.65393 0.55518 0.0
O128 O 0.87191 0.54842 0.46675 0.0
O129 O 0.77293 0.55688 0.55359 0.0
O130 O 0.85321 0.51296 0.50679 0.0
C131 C 0.88788 0.70519 0.48119 0.0
C132 C 0.66011 0.48318 0.49931 0.0
C133 C 0.66781 0.74174 0.5024 0.0
C134 C 0.70498 0.60079 0.42487 0.0
C135 C 0.78298 0.60392 0.5667 0.0
C136 C 0.8869 0.51672 0.48667 0.0
O137 O 0.86478 0.70117 0.50436 0.0
O138 O 0.5716 0.61575 0.2095 0.0
Zn139 Zn 0.64787 0.56756 0.21149 0.0
O140 O 0.65197 0.51527 0.2425 0.0
Zn141 Zn 0.65426 0.4322 0.23187 0.0
Zn142 Zn 0.58498 0.53618 0.26412 0.0
Zn143 Zn 0.72118 0.53186 0.26312 0.0
O144 O 0.73328 0.39147 0.24416 0.0
O145 O 0.78346 0.47194 0.25634 0.0
O146 O 0.66488 0.52215 0.17767 0.0
O147 O 0.66425 0.4286 0.19188 0.0
O148 O 0.57198 0.39548 0.24038 0.0
O149 O 0.52332 0.47325 0.25769 0.0
O150 O 0.60612 0.54314 0.30341 0.0
O151 O 0.70694 0.63259 0.21594 0.0
O152 O 0.70418 0.53735 0.30211 0.0
O153 O 0.75068 0.61124 0.25403 0.0
C154 C 0.5508 0.64176 0.23011 0.0
C155 C 0.78207 0.41735 0.2502 0.0
C156 C 0.52416 0.42011 0.24883 0.0
C157 C 0.66948 0.4667 0.17332 0.0
C158 C 0.65626 0.54349 0.31505 0.0
C159 C 0.74239 0.64633 0.23469 0.0
O160 O 0.55596 0.61803 0.25311 0.0
O161 O 0.65043 0.36538 0.9611 0.0
Zn162 Zn 0.7157 0.42662 0.96366 0.0
O163 O 0.76813 0.41229 0.99399 0.0
Zn164 Zn 0.85104 0.4099 0.98364 0.0
Zn165 Zn 0.74186 0.34379 0.01329 0.0
Zn166 Zn 0.75923 0.47744 0.01754 0.0
O167 O 0.89531 0.48639 0.99572 0.0
O168 O 0.8178 0.53934 0.00936 0.0
O169 O 0.76301 0.43541 0.92977 0.0
O170 O 0.85542 0.42015 0.94389 0.0
O171 O 0.88456 0.32617 0.99221 0.0
O172 O 0.80326 0.28046 0.00709 0.0
O173 O 0.73224 0.36179 0.05299 0.0
O174 O 0.66658 0.4996 0.96945 0.0
O175 O 0.76147 0.45547 0.05578 0.0
O176 O 0.67904 0.50854 0.01275 0.0
C177 C 0.63122 0.32962 0.97873 0.0
C178 C 0.87146 0.5361 0.00205 0.0
C179 C 0.85715 0.27906 -0.0006 0.0
C180 C 0.81845 0.4316 0.92539 0.0
C181 C 0.74311 0.40825 0.06665 0.0
C182 C 0.64888 0.51903 0.99194 0.0
O183 O 0.66062 0.31855 -6e-05 0.0
O184 O 0.56001 0.10064 0.78357 0.0
Zn185 Zn 0.6359 0.05222 0.78093 0.0
O186 O 0.6409 1.00386 0.74873 0.0
Zn187 Zn 0.64645 0.92057 0.75791 0.0
Zn188 Zn 0.5733 0.02554 0.72773 0.0
Zn189 Zn 0.70812 0.02526 0.72802 0.0
O190 O 0.72706 0.88511 0.74456 0.0
O191 O 0.77403 0.9694 0.73526 0.0
O192 O 0.654 1.00484 0.81401 0.0
O193 O 0.65787 0.91295 0.79787 0.0
O194 O 0.56454 0.88297 0.74911 0.0
O195 O 0.51296 0.96167 0.73447 0.0
O196 O 0.59274 0.0331 0.68809 0.0
O197 O 0.69345 0.11786 0.77802 0.0
O198 O 0.69084 0.0276 0.68894 0.0
O199 O 0.72948 0.10769 0.73696 0.0
C200 C 0.54139 0.12954 0.76335 0.0
C201 C 0.77489 0.91408 0.74001 0.0
C202 C 0.51551 0.90772 0.74217 0.0
C203 C 0.66134 0.94936 0.81726 0.0
C204 C 0.64256 0.03365 0.67619 0.0
C205 C 0.72125 0.13798 0.75801 0.0
O206 O 0.54583 0.10734 0.73996 0.0
O207 O 0.6544 0.86167 0.03069 0.0
Zn208 Zn 0.72024 0.92261 0.0272 0.0
O209 O 0.76971 0.90555 0.9962 0.0
Zn210 Zn 0.85295 0.90588 0.00575 0.0
Zn211 Zn 0.74401 0.83492 0.97809 0.0
Zn212 Zn 0.75636 0.96794 0.97157 0.0
O213 O 0.89058 0.98729 0.99537 0.0
O214 O 0.81189 0.0333 0.97827 0.0
O215 O 0.77125 0.93252 0.06056 0.0
O216 O 0.86116 0.90928 0.04577 0.0
O217 O 0.88941 0.82472 0.99505 0.0
O218 O 0.80778 0.77363 0.98432 0.0
O219 O 0.73168 0.84885 0.93804 0.0
O220 O 0.67089 0.99574 0.02129 0.0
O221 O 0.75639 0.94341 0.93361 0.0
O222 O 0.67574 0.99656 0.9775 0.0
C223 C 0.63486 0.82387 0.01388 0.0
C224 C 0.8646 0.03444 0.98699 0.0
C225 C 0.863 0.77569 0.98981 0.0
C226 C 0.8266 0.92481 0.06455 0.0
C227 C 0.73952 0.89463 0.92358 0.0
C228 C 0.64922 1.0109 -0.00116 0.0
O229 O 0.66381 0.81037 0.99283 0.0
O230 O 0.94132 0.91278 0.28015 0.0
Zn231 Zn 0.86821 0.96485 0.2758 0.0
O232 O 0.87415 0.01986 0.24592 0.0
Zn233 Zn 0.87154 0.10072 0.26003 0.0
Zn234 Zn 0.94376 0.99811 0.22597 0.0
Zn235 Zn 0.81033 1.0089 0.22104 0.0
O236 O 0.78789 0.13819 0.25264 0.0
O237 O 0.74842 0.06807 0.22713 0.0
O238 O 0.84865 1.00619 0.31046 0.0
O239 O 0.86819 0.10008 0.30061 0.0
O240 O 0.95154 0.14058 0.24987 0.0
O241 O 1.00263 0.06359 0.23297 0.0
O242 O 0.92851 0.9875 0.18595 0.0
O243 O 0.80573 0.90553 0.26744 0.0
O244 O 0.83262 1.00679 0.18295 0.0
O245 O 0.77519 0.9296 0.22702 0.0
C246 C 0.96997 0.89004 0.26075 0.0
C247 C 0.74317 0.11549 0.24062 0.0
C248 C 1.00006 0.11706 0.24146 0.0
C249 C 0.85342 0.06029 0.31731 0.0
C250 C 0.88146 0.99329 0.17215 0.0
C251 C 0.77488 0.89442 0.24673 0.0
O252 O 0.97191 0.91658 0.23828 0.0
O253 O 0.85528 0.19807 0.53406 0.0
Zn254 Zn 0.80427 0.12368 0.53257 0.0
O255 O 0.75711 0.1163 0.50004 0.0
Zn256 Zn 0.67347 0.11325 0.50903 0.0
Zn257 Zn 0.78026 0.18132 0.47784 0.0
Zn258 Zn 0.77786 0.04647 0.48058 0.0
O259 O 0.63676 0.03324 0.49638 0.0
O260 O 0.71999 0.98298 0.48813 0.0
O261 O 0.75585 0.11019 0.56567 0.0
O262 O 0.66461 0.1045 0.54914 0.0
O263 O 0.63661 0.19435 0.49834 0.0
O264 O 0.71601 0.24207 0.4825 0.0
O265 O 0.78977 0.15763 0.4386 0.0
O266 O 0.86749 0.06303 0.53173 0.0
O267 O 0.78344 0.0597 0.4411 0.0
O268 O 0.85891 0.02377 0.49114 0.0
C269 C 0.88337 0.21664 0.51365 0.0
C270 C 0.66457 0.98432 0.49241 0.0
C271 C 0.662 0.24178 0.49008 0.0
C272 C 0.70049 0.10278 0.56877 0.0
C273 C 0.79016 0.10671 0.42752 0.0
C274 C 0.88808 0.03298 0.51243 0.0
O275 O 0.861 0.21117 0.49033 0.0
O276 O 0.42487 0.90204 0.21394 0.0
Zn277 Zn 0.3559 0.959 0.21405 0.0
O278 O 0.35616 0.01132 0.24506 0.0
Zn279 Zn 0.36445 0.09317 0.23332 0.0
Zn280 Zn 0.41635 0.98495 0.26942 0.0
Zn281 Zn 0.28424 1.00146 0.26438 0.0
O282 O 0.289 0.14138 0.24512 0.0
O283 O 0.22926 0.06537 0.25452 0.0
O284 O 0.34688 1.00374 0.17941 0.0
O285 O 0.35509 0.09709 0.19318 0.0
O286 O 0.45256 0.11785 0.24121 0.0
O287 O 0.47998 0.0454 0.26878 0.0
O288 O 0.38785 0.97389 0.30717 0.0
O289 O 0.29075 0.90093 0.21721 0.0
O290 O 0.29374 1.00074 0.30411 0.0
O291 O 0.25266 0.92149 0.25658 0.0
C292 C 0.45027 0.87957 0.23431 0.0
C293 C 0.23713 0.11988 0.24932 0.0
C294 C 0.49223 0.09196 0.25554 0.0
C295 C 0.34749 0.05913 0.17467 0.0
C296 C 0.33785 0.98381 0.31786 0.0
C297 C 0.25772 0.88695 0.2367 0.0
O298 O 0.44828 0.90485 0.25713 0.0
O299 O 0.36692 0.20834 0.95901 0.0
Zn300 Zn 0.32139 0.13076 0.96148 0.0
O301 O 0.27018 0.1274 0.99264 0.0
Zn302 Zn 0.18714 0.1259 0.98209 0.0
Zn303 Zn 0.29212 0.19397 0.01458 0.0
Zn304 Zn 0.28672 0.05768 0.01293 0.0
O305 O 0.14645 0.0474 0.99448 0.0
O306 O 0.22734 0.99594 0.00526 0.0
O307 O 0.27576 0.11257 0.92777 0.0
O308 O 0.18253 0.11528 0.94206 0.0
O309 O 0.15112 0.2087 0.99083 0.0
O310 O 0.22889 0.25604 0.00864 0.0
O311 O 0.29881 0.17137 0.05402 0.0
O312 O 0.38685 0.07148 0.96607 0.0
O313 O 0.28844 0.07357 0.05208 0.0
O314 O 0.3667 0.0278 0.00428 0.0
C315 C 0.3939 0.23047 0.97907 0.0
C316 C 0.17253 0.99813 -0.00027 0.0
C317 C 0.17593 0.25608 -0.00036 0.0
C318 C 0.22034 0.10864 0.92346 0.0
C319 C 0.29596 0.12091 0.06538 0.0
C320 C 0.401 0.03555 0.98459 0.0
O321 O 0.3729 0.22439 0.00258 0.0
O322 O 0.07422 0.10655 0.70926 0.0
Zn323 Zn 0.15043 0.05855 0.71267 0.0
O324 O 0.1513 1.00819 0.74423 0.0
Zn325 Zn 0.15011 0.92487 0.73452 0.0
Zn326 Zn 0.08525 0.03311 0.76549 0.0
Zn327 Zn 0.22097 0.02296 0.76462 0.0
O328 O 0.22639 0.88152 0.74804 0.0
O329 O 0.28091 0.96101 0.7575 0.0
O330 O 0.17049 1.01077 0.67965 0.0
O331 O 0.1624 0.91837 0.69484 0.0
O332 O 0.06579 0.8927 0.74225 0.0
O333 O 0.0205 0.97282 0.75924 0.0
O334 O 0.10728 0.04121 0.80489 0.0
O335 O 0.20911 0.12383 0.7177 0.0
O336 O 0.20461 0.02718 0.80361 0.0
O337 O 0.2518 0.10251 0.75607 0.0
C338 C 0.05485 0.13589 0.72926 0.0
C339 C 0.27664 0.90585 0.7528 0.0
C340 C 0.01899 0.91966 0.75041 0.0
C341 C 0.17228 0.95487 0.67604 0.0
C342 C 0.15743 0.03768 0.81653 0.0
C343 C 0.24404 0.13762 0.73665 0.0
O344 O 0.05994 0.11498 0.75283 0.0
O345 O 0.14925 0.82338 0.46601 0.0
Zn346 Zn 0.20035 0.8953 0.47 0.0
O347 O 0.26041 0.88909 0.49766 0.0
Zn348 Zn 0.33979 0.89054 0.48218 0.0
Zn349 Zn 0.24202 0.81842 0.51777 0.0
Zn350 Zn 0.25397 0.95624 0.52126 0.0
O351 O 0.38491 0.96888 0.49212 0.0
O352 O 0.31257 0.01777 0.51266 0.0
O353 O 0.23572 0.91789 0.43479 0.0
O354 O 0.33171 0.90196 0.44227 0.0
O355 O 0.37857 0.80765 0.48862 0.0
O356 O 0.30583 0.75857 0.50933 0.0
O357 O 0.23812 0.8366 0.55774 0.0
O358 O 0.13897 0.95236 0.48183 0.0
O359 O 0.25647 0.93325 0.55935 0.0
O360 O 0.17541 0.99298 0.5187 0.0
C361 C 0.13092 0.79115 0.48507 0.0
C362 C 0.36307 0.01702 0.50168 0.0
C363 C 0.35675 0.7597 0.4983 0.0
C364 C 0.2891 0.91584 0.42677 0.0
C365 C 0.24425 0.88474 0.57086 0.0
C366 C 0.1336 0.98523 0.50228 0.0
O367 O 0.16012 0.78702 0.50689 0.0
C368 C 0.37542 0.38055 0.21888 0.0
C369 C 0.34107 0.3841 0.24243 0.0
C370 C 0.43198 0.3792 0.26941 0.0
C371 C 0.46564 0.39007 0.24604 0.0
N372 N 0.47125 0.39446 0.19797 0.0
N373 N 0.3346 0.37617 0.29018 0.0
C374 C 0.43811 0.38685 0.22051 0.0
C375 C 0.36884 0.37844 0.26776 0.0
N376 N 0.34717 0.37284 0.195 0.0
N377 N 0.46097 0.37106 0.2931 0.0
H378 H 0.28861 0.3735 0.28922 0.0
H379 H 0.3511 0.37724 0.30958 0.0
H380 H 0.50709 0.37108 0.29428 0.0
H381 H 0.44037 0.36006 0.31097 0.0
H382 H 0.36881 0.36574 0.17693 0.0
H383 H 0.30126 0.36834 0.19388 0.0
H384 H 0.45344 0.39981 0.17894 0.0
H385 H 0.51721 0.39725 0.19839 0.0
C386 C 0.38897 0.67352 0.46946 0.0
C387 C 0.38735 0.70127 0.49499 0.0
C388 C 0.40075 0.60435 0.51667 0.0
C389 C 0.39385 0.57641 0.49145 0.0
N390 N 0.40313 0.58247 0.44394 0.0
N391 N 0.41063 0.69664 0.54171 0.0
C392 C 0.39609 0.61079 0.46786 0.0
C393 C 0.40025 0.66758 0.51821 0.0
N394 N 0.3789 0.7063 0.44697 0.0
N395 N 0.40366 0.5703 0.53916 0.0
H396 H 0.41071 0.74282 0.54285 0.0
H397 H 0.42373 0.6759 0.55931 0.0
H398 H 0.4063 0.52422 0.53831 0.0
H399 H 0.40267 0.58713 0.55852 0.0
H400 H 0.37212 0.68801 0.42811 0.0
H401 H 0.37524 0.75228 0.44727 0.0
H402 H 0.40944 0.60421 0.42585 0.0
H403 H 0.40804 0.5365 0.44285 0.0
C404 C 0.1571 0.64578 0.76706 0.0
C405 C 0.18525 0.64188 0.74178 0.0
C406 C 0.08832 0.64002 0.71944 0.0
C407 C 0.06046 0.63585 0.7448 0.0
N408 N 0.06482 0.65414 0.79197 0.0
N409 N 0.17941 0.65614 0.69449 0.0
C410 C 0.09396 0.64586 0.76837 0.0
C411 C 0.15103 0.64679 0.71816 0.0
N412 N 0.19074 0.64499 0.78975 0.0
N413 N 0.05557 0.63289 0.69669 0.0
H414 H 0.22531 0.66092 0.69361 0.0
H415 H 0.15779 0.66439 0.6765 0.0
H416 H 1.00962 0.62975 0.69688 0.0
H417 H 0.07377 0.62814 0.67772 0.0
H418 H 0.17354 0.64088 0.80893 0.0
H419 H 0.23676 0.64728 0.78927 0.0
H420 H 0.08551 0.66555 0.80983 0.0
H421 H 0.0187 0.6545 0.79299 0.0
C422 C 0.14328 0.34284 0.9715 0.0
C423 C 0.14646 0.31517 -0.00301 0.0
C424 C 0.13535 0.4122 0.0189 0.0
C425 C 0.14081 0.43996 0.99362 0.0
N426 N 0.12945 0.43409 0.94619 0.0
N427 N 0.12786 0.32007 0.0441 0.0
C428 C 0.13711 0.40567 0.97001 0.0
C429 C 0.13592 0.34898 0.02044 0.0
N430 N 0.15084 0.30968 0.94889 0.0
N431 N 0.13348 0.44655 0.04137 0.0
H432 H 0.12775 0.27389 0.04523 0.0
H433 H 0.117 0.34086 0.062 0.0
H434 H 0.13093 0.49263 0.04045 0.0
H435 H 0.13492 0.43006 0.06075 0.0
H436 H 0.15618 0.32754 0.9299 0.0
H437 H 0.15369 0.26365 0.94919 0.0
H438 H 0.12222 0.41253 0.92808 0.0
H439 H 0.12514 0.48011 0.94518 0.0
C440 C 0.58753 0.63865 0.76941 0.0
C441 C 0.56045 0.6308 0.74396 0.0
C442 C 0.6576 0.64137 0.72225 0.0
C443 C 0.68512 0.64148 0.7478 0.0
N444 N 0.67704 0.66159 0.79459 0.0
N445 N 0.56589 0.64326 0.69644 0.0
C446 C 0.64988 0.64799 0.77098 0.0
C447 C 0.59447 0.63888 0.72044 0.0
N448 N 0.55461 0.63261 0.7921 0.0
N449 N 0.69195 0.63977 0.69984 0.0
H450 H 0.51984 0.64194 0.695 0.0
H451 H 0.58671 0.65306 0.67847 0.0
H452 H 0.73777 0.64409 0.70056 0.0
H453 H 0.67556 0.63348 0.68062 0.0
H454 H 0.57265 0.63043 0.81123 0.0
H455 H 0.50889 0.62732 0.7918 0.0
H456 H 0.65444 0.67156 0.81214 0.0
H457 H 0.72267 0.66828 0.79572 0.0
C458 C 0.63676 0.33478 0.46655 0.0
C459 C 0.63099 0.30031 0.48994 0.0
C460 C 0.61012 0.39144 0.51533 0.0
C461 C 0.63185 0.42516 0.49367 0.0
N462 N 0.66916 0.42833 0.44856 0.0
N463 N 0.60587 0.29507 0.53675 0.0
C464 C 0.64424 0.39693 0.46891 0.0
C465 C 0.61392 0.32824 0.51428 0.0
N466 N 0.63813 0.30729 0.44225 0.0
N467 N 0.58806 0.42025 0.53716 0.0
H468 H 0.60587 0.24898 0.53652 0.0
H469 H 0.60087 0.31313 0.55577 0.0
H470 H 0.5858 0.46642 0.53802 0.0
H471 H 0.56745 0.39889 0.55302 0.0
H472 H 0.638 0.3302 0.42418 0.0
H473 H 0.63319 0.26147 0.44042 0.0
H474 H 0.68524 0.40885 0.43113 0.0
H475 H 0.67796 0.47349 0.45002 0.0
C476 C 0.86824 0.38069 0.22312 0.0
C477 C 0.84078 0.3871 0.24846 0.0
C478 C 0.93818 0.39082 0.27024 0.0
C479 C 0.9654 0.39326 0.24467 0.0
N480 N 0.96006 0.37365 0.19763 0.0
N481 N 0.84762 0.37767 0.29595 0.0
C482 C 0.9314 0.3819 0.22136 0.0
C483 C 0.8755 0.38457 0.27198 0.0
N484 N 0.83365 0.37698 0.20078 0.0
N485 N 0.97166 0.399 0.2927 0.0
H486 H 0.80175 0.37306 0.29715 0.0
H487 H 0.86951 0.37132 0.31403 0.0
H488 H 0.01762 0.40174 0.29217 0.0
H489 H 0.9542 0.40488 0.31174 0.0
H490 H 0.84974 0.37695 0.18134 0.0
H491 H 0.78771 0.37392 0.20184 0.0
H492 H 0.93929 0.36264 0.17976 0.0
H493 H 1.00615 0.37387 0.19636 0.0
C494 C 0.90547 0.61808 0.97259 0.0
C495 C 0.90242 0.59375 -0.00137 0.0
C496 C 0.90666 0.69406 0.01774 0.0
C497 C 0.89454 0.71767 0.99199 0.0
N498 N 0.89032 0.70454 0.94438 0.0
N499 N 0.90997 0.60628 0.04603 0.0
C500 C 0.89782 0.68037 0.96917 0.0
C501 C 0.90775 0.63131 0.02121 0.0
N502 N 0.91381 0.58123 0.95126 0.0
N503 N 0.91484 0.73156 0.03887 0.0
H504 H 0.91354 0.5605 0.04858 0.0
H505 H 0.90713 0.62992 0.06385 0.0
H506 H 0.91367 0.77746 0.03689 0.0
H507 H 0.92739 0.71778 0.05788 0.0
H508 H 0.92035 0.5959 0.93179 0.0
H509 H 0.91955 0.5357 0.95354 0.0
H510 H 0.88508 0.67983 0.92696 0.0
H511 H 0.88779 0.75026 0.94146 0.0
C512 C 0.87018 0.88742 0.71825 0.0
C513 C 0.83475 0.88612 0.74152 0.0
C514 C 0.92463 0.87849 0.76918 0.0
C515 C 0.95922 0.89283 0.74649 0.0
N516 N 0.96667 0.90608 0.6988 0.0
N517 N 0.82635 0.87022 0.7888 0.0
C518 C 0.93269 0.89411 0.72069 0.0
C519 C 0.86154 0.877 0.76688 0.0
N520 N 0.84318 0.88342 0.69388 0.0
N521 N 0.95262 0.86746 0.79289 0.0
H522 H 0.78048 0.86692 0.78733 0.0
H523 H 0.84186 0.86805 0.80834 0.0
H524 H 0.99864 0.86791 0.7946 0.0
H525 H 0.93138 0.85403 0.81025 0.0
H526 H 0.86577 0.87972 0.67585 0.0
H527 H 0.79743 0.87842 0.69209 0.0
H528 H 0.94957 0.91474 0.67988 0.0
H529 H 0.01257 0.90955 0.69971 0.0
C530 C 0.90825 0.13027 0.97162 0.0
C531 C 0.88839 0.09442 0.99297 0.0
C532 C 0.88051 0.18306 0.02121 0.0
C533 C 0.88585 0.21932 -0.00168 0.0
N534 N 0.90833 0.22787 0.95131 0.0
N535 N 0.85038 0.08763 0.03793 0.0
C536 C 0.90248 0.19325 0.97349 0.0
C537 C 0.87471 0.12086 0.01801 0.0
N538 N 0.93091 0.10366 0.94936 0.0
N539 N 0.87877 0.2087 0.04593 0.0
H540 H 0.843 0.0423 0.03606 0.0
H541 H 0.83327 0.10576 0.05546 0.0
H542 H 0.88288 0.25441 0.04852 0.0
H543 H 0.87957 0.18442 0.06362 0.0
H544 H 0.95057 0.12678 0.93375 0.0
H545 H 0.93479 0.05767 0.94783 0.0
H546 H 0.9129 0.21095 0.93205 0.0
H547 H 0.90626 0.2739 0.95196 0.0
C548 C 0.58072 0.16409 0.24794 0.0
C549 C 0.55734 0.10652 0.25346 0.0
C550 C 0.65772 0.07267 0.26296 0.0
C551 C 0.68208 0.12387 0.25132 0.0
N552 N 0.66612 0.21947 0.2316 0.0
N553 N 0.58331 1.00158 0.25318 0.0
C554 C 0.64341 0.17041 0.24353 0.0
C555 C 0.59838 0.05936 0.25766 0.0
N556 N 0.54432 0.21231 0.24745 0.0
N557 N 0.69272 0.03331 0.27639 0.0
H558 H 0.54423 0.98929 0.2436 0.0
H559 H 0.61383 0.96698 0.25475 0.0
H560 H 0.73749 0.04128 0.28002 0.0
H561 H 0.67542 0.99599 0.28582 0.0
H562 H 0.55998 0.2554 0.24535 0.0
H563 H 0.49938 0.20977 0.25179 0.0
H564 H 0.63981 0.25253 0.22319 0.0
H565 H 0.71163 0.22506 0.2292 0.0
C566 C 0.63008 0.83618 0.5225 0.0
C567 C 0.63975 0.80122 0.49936 0.0
C568 C 0.63106 0.89037 0.47148 0.0
C569 C 0.63507 0.92572 0.49475 0.0
N570 N 0.62986 0.93458 0.54253 0.0
N571 N 0.64431 0.79335 0.45131 0.0
C572 C 0.63028 0.89924 0.52035 0.0
C573 C 0.63685 0.82765 0.4736 0.0
N574 N 0.62195 0.80853 0.54647 0.0
N575 N 0.62325 0.9176 0.44738 0.0
H576 H 0.64701 0.74731 0.45204 0.0
H577 H 0.64996 0.81031 0.43217 0.0
H578 H 0.61911 0.96355 0.44586 0.0
H579 H 0.61565 0.89511 0.42953 0.0
H580 H 0.61125 0.83038 0.56413 0.0
H581 H 0.62144 0.76243 0.54808 0.0
H582 H 0.63259 0.91888 0.56202 0.0
H583 H 0.62768 0.98064 0.54125 0.0
C584 C 0.09112 0.15663 0.21962 0.0
C585 C 0.05756 0.14937 0.24331 0.0
C586 C 0.14787 0.16378 0.26992 0.0
C587 C 0.18196 0.15543 0.24658 0.0
N588 N 0.18851 0.15494 0.19879 0.0
N589 N 0.05215 0.15382 0.29141 0.0
C590 C 0.15419 0.15723 0.22119 0.0
C591 C 0.08514 0.15735 0.26863 0.0
N592 N 0.06212 0.16113 0.19574 0.0
N593 N 0.17651 0.17526 0.29339 0.0
H594 H 1.0062 0.1509 0.29117 0.0
H595 H 0.07012 0.15219 0.31056 0.0
H596 H 0.2225 0.17929 0.29415 0.0
H597 H 0.15519 0.18567 0.31121 0.0
H598 H 0.08286 0.16941 0.1776 0.0
H599 H 0.016 0.16105 0.1946 0.0
H600 H 0.17204 0.15011 0.17949 0.0
H601 H 0.23455 0.15726 0.19983 0.0
C602 C 0.13781 0.90551 0.02116 0.0
C603 C 0.14219 0.9398 -0.00236 0.0
C604 C 0.13921 0.8487 0.97068 0.0
C605 C 0.14903 0.815 0.99418 0.0
N606 N 0.15221 0.80987 0.04234 0.0
N607 N 0.13776 0.9461 0.94979 0.0
C608 C 0.14482 0.84276 0.01967 0.0
C609 C 0.13832 0.9119 0.97227 0.0
N610 N 0.12868 0.93387 0.04493 0.0
N611 N 0.13197 0.81973 0.94691 0.0
H612 H 0.13489 0.99218 0.95068 0.0
H613 H 0.14089 0.92947 0.93045 0.0
H614 H 0.13215 0.77355 0.94569 0.0
H615 H 0.1213 0.8405 0.929 0.0
H616 H 0.12073 0.91221 0.0629 0.0
H617 H 0.12379 0.97984 0.04596 0.0
H618 H 0.15688 0.828 0.06135 0.0
H619 H 0.15584 0.76389 0.04208 0.0
C620 C 0.43314 0.87092 0.77129 0.0
C621 C 0.45771 0.87656 0.74531 0.0
C622 C 0.35875 0.86241 0.72586 0.0
C623 C 0.33366 0.87267 0.75136 0.0
N624 N 0.34465 0.87684 0.79893 0.0
N625 N 0.44616 0.86918 0.69771 0.0
C626 C 0.37038 0.87218 0.77434 0.0
C627 C 0.42116 0.86821 0.72253 0.0
N628 N 0.4698 0.86654 0.79292 0.0
N629 N 0.32253 0.84894 0.70489 0.0
H630 H 0.49193 0.87049 0.69505 0.0
H631 H 0.42204 0.87018 0.67998 0.0
H632 H 0.27691 0.84471 0.70719 0.0
H633 H 0.33776 0.8369 0.68603 0.0
H634 H 0.4552 0.85878 0.8123 0.0
H635 H 0.51567 0.86562 0.79115 0.0
H636 H 0.36787 0.88371 0.81663 0.0
H637 H 0.29881 0.87505 0.80133 0.0
C638 C 0.38778 0.16656 0.47029 0.0
C639 C 0.38072 0.2012 0.49378 0.0
C640 C 0.39889 0.11207 0.52086 0.0
C641 C 0.39121 0.07633 0.49785 0.0
N642 N 0.38625 0.06867 0.44991 0.0
N643 N 0.38368 0.20778 0.54194 0.0
C644 C 0.38977 0.10338 0.47223 0.0
C645 C 0.38932 0.1745 0.51924 0.0
N646 N 0.39176 0.19459 0.4462 0.0
N647 N 0.41376 0.08534 0.5444 0.0
H648 H 0.37791 0.25353 0.54168 0.0
H649 H 0.38205 0.18988 0.56108 0.0
H650 H 0.42058 0.03964 0.54559 0.0
H651 H 0.42471 0.10837 0.56175 0.0
H652 H 0.40118 0.17314 0.42827 0.0
H653 H 0.39076 0.24068 0.44462 0.0
H654 H 0.37832 0.08494 0.43079 0.0
H655 H 0.39025 0.02274 0.4506 0.0
C656 C 0.27896 0.7263 0.22567 0.0
C657 C 0.26783 0.70344 0.25154 0.0
C658 C 0.23085 0.80038 0.26571 0.0
C659 C 0.24222 0.82312 0.23981 0.0
N660 N 0.25141 0.79997 0.19305 0.0
N661 N 0.25854 0.72681 0.29838 0.0
C662 C 0.2586 0.78363 0.2191 0.0
C663 C 0.25094 0.74277 0.2723 0.0
N664 N 0.31237 0.6947 0.20795 0.0
N665 N 0.19759 0.83211 0.28344 0.0
H666 H 0.28098 0.68818 0.30375 0.0
H667 H 0.25082 0.75558 0.31431 0.0
H668 H 0.17614 0.87129 0.27808 0.0
H669 H 0.18422 0.81532 0.30184 0.0
H670 H 0.3257 0.71157 0.18956 0.0
H671 H 0.33326 0.65515 0.21328 0.0
H672 H 0.25812 0.77098 0.1771 0.0
H673 H 0.23113 0.83994 0.18783 0.0
C674 C 0.04878 0.51803 0.47134 0.0
C675 C 0.07274 0.51411 0.49762 0.0
C676 C 0.97488 0.49219 0.51528 0.0
C677 C 0.95015 0.49833 0.48935 0.0
N678 N 0.96696 0.49295 0.44203 0.0
N679 N 0.05339 0.5232 0.54474 0.0
C680 C 0.98825 0.50421 0.46708 0.0
C681 C 0.03406 0.50926 0.51966 0.0
N682 N 0.08278 0.53867 0.45086 0.0
N683 N 0.94382 0.46544 0.53523 0.0
H684 H 0.09535 0.54092 0.5481 0.0
H685 H 0.02538 0.52461 0.56126 0.0
H686 H 0.90416 0.44334 0.53166 0.0
H687 H 0.96191 0.45679 0.55401 0.0
H688 H 0.06819 0.5424 0.43119 0.0
H689 H 0.12273 0.56038 0.45426 0.0
H690 H 0.9933 0.49145 0.42501 0.0
H691 H 0.92407 0.47739 0.43892 0.0
C692 C 0.24052 0.29974 0.72161 0.0
C693 C 0.24625 0.32373 0.74778 0.0
C694 C 0.26916 0.22561 0.76526 0.0
C695 C 0.26206 0.20093 0.73935 0.0
N696 N 0.26377 0.21785 0.69196 0.0
N697 N 0.23894 0.30425 0.79493 0.0
C698 C 0.25436 0.23915 0.71717 0.0
C699 C 0.25216 0.28497 0.76977 0.0
N700 N 0.21825 0.33394 0.70145 0.0
N701 N 0.29659 0.19435 0.78507 0.0
H702 H 0.22081 0.34614 0.7984 0.0
H703 H 0.23825 0.27616 0.81145 0.0
H704 H 0.31878 0.15464 0.78142 0.0
H705 H 0.30584 0.21244 0.8038 0.0
H706 H 0.21302 0.31946 0.68184 0.0
H707 H 0.19754 0.37445 0.7052 0.0
H708 H 0.26384 0.24428 0.67494 0.0
H709 H 0.27899 0.17477 0.68862 0.0
C710 C 0.54584 0.52612 0.97393 0.0
C711 C 0.58548 0.53623 0.99535 0.0
C712 C 0.50326 0.52766 0.02701 0.0
C713 C 0.46436 0.51643 0.0054 0.0
N714 N 0.45695 0.47558 0.96084 0.0
N715 N 0.59746 0.56806 0.04105 0.0
C716 C 0.48797 0.50679 0.97954 0.0
C717 C 0.56284 0.54322 0.02167 0.0
N718 N 0.56226 0.53812 0.94828 0.0
N719 N 0.48358 0.52033 0.05257 0.0
H720 H 0.63755 0.58847 0.03653 0.0
H721 H 0.58397 0.57479 0.06069 0.0
H722 H 0.44131 0.50414 0.05658 0.0
H723 H 0.51068 0.52316 0.06936 0.0
H724 H 0.53303 0.53511 0.93219 0.0
H725 H 0.60199 0.55931 0.94385 0.0
H726 H 0.47457 0.46431 0.94226 0.0
H727 H 0.41807 0.45316 0.96549 0.0
C728 C 0.71377 0.2971 0.73505 0.0
C729 C 0.75126 0.32429 0.75408 0.0
C730 C 0.76793 0.22913 0.77635 0.0
C731 C 0.73143 0.20199 0.75701 0.0
N732 N 0.6549 0.21179 0.72339 0.0
N733 N 0.80112 0.31954 0.79713 0.0
C734 C 0.69996 0.2364 0.73789 0.0
C735 C 0.77373 0.29158 0.77627 0.0
N736 N 0.69171 0.32933 0.71415 0.0
N737 N 0.79946 0.19493 0.79392 0.0
H738 H 0.81095 0.3644 0.7976 0.0
H739 H 0.81046 0.29868 0.8152 0.0
H740 H 0.79702 0.14882 0.79424 0.0
H741 H 0.83173 0.21147 0.80675 0.0
H742 H 0.67092 0.31036 0.69765 0.0
H743 H 0.69637 0.37518 0.7128 0.0
H744 H 0.62609 0.23629 0.71147 0.0
H745 H 0.64234 0.16764 0.72514 0.0
C746 C 0.75175 0.79607 0.26618 0.0
C747 C 0.75084 0.83332 0.24357 0.0
C748 C 0.75648 0.74648 0.21433 0.0
C749 C 0.76115 0.70946 0.23712 0.0
N750 N 0.78769 0.70404 0.28402 0.0
N751 N 0.72442 0.84121 0.19698 0.0
C752 C 0.76561 0.73547 0.26295 0.0
C753 C 0.74517 0.8079 0.21774 0.0
N754 N 0.73781 0.81876 0.29068 0.0
N755 N 0.76588 0.72308 0.1895 0.0
H756 H 0.707 0.88355 0.19976 0.0
H757 H 0.71586 0.8241 0.17803 0.0
H758 H 0.77945 0.67925 0.1868 0.0
H759 H 0.76721 0.74829 0.17212 0.0
H760 H 0.73309 0.79272 0.3077 0.0
H761 H 0.7236 0.86253 0.29301 0.0
H762 H 0.79313 0.72206 0.30304 0.0
H763 H 0.81018 0.66407 0.28163 0.0
C764 C 0.54661 0.01706 0.01786 0.0
C765 C 0.58592 0.02939 -0.0034 0.0
C766 C 0.50268 0.02781 0.96511 0.0
C767 C 0.46383 0.01538 0.98651 0.0
N768 N 0.45572 0.96874 0.02976 0.0
N769 N 0.59778 0.06697 0.9519 0.0
C770 C 0.48769 1.00112 0.01192 0.0
C771 C 0.56275 0.04083 0.97068 0.0
N772 N 0.56404 0.02439 0.04378 0.0
N773 N 0.48256 0.02365 0.93943 0.0
H774 H 0.63917 0.08438 0.95675 0.0
H775 H 0.58388 0.07725 0.93262 0.0
H776 H 0.44003 1.00857 0.93505 0.0
H777 H 0.50961 0.02766 0.92272 0.0
H778 H 0.53519 0.01952 0.05986 0.0
H779 H 0.60399 0.04444 0.04886 0.0
H780 H 0.47335 0.95364 0.04779 0.0
H781 H 0.41552 0.94917 0.02468 0.0
C782 C 0.04638 0.04542 0.48978 0.0
C783 C 0.07461 1.00822 0.50855 0.0
C784 C 0.98057 0.98908 0.53105 0.0
C785 C 0.95224 0.02462 0.51165 0.0
N786 N 0.95953 0.10223 0.47848 0.0
N787 N 0.07251 0.95694 0.55112 0.0
C788 C 0.9855 0.05749 0.49272 0.0
C789 C 0.04311 0.9845 0.5307 0.0
N790 N 0.07771 0.06841 0.46889 0.0
N791 N 0.94746 0.95765 0.54892 0.0
H792 H 0.11783 0.94915 0.55127 0.0
H793 H 0.05259 0.94526 0.56908 0.0
H794 H 0.90139 0.95967 0.54945 0.0
H795 H 0.96483 0.92632 0.56201 0.0
H796 H 0.058 0.08895 0.4525 0.0
H797 H 0.1236 0.06459 0.4674 0.0
H798 H 0.98313 0.13219 0.46688 0.0
H799 H 0.91493 0.11314 0.48007 0.0
C800 C 0.14362 0.41794 0.36162 0.0
C801 C 0.18743 0.44175 0.34454 0.0
C802 C 0.26428 0.41777 0.37757 0.0
C803 C 0.2198 0.40088 0.39588 0.0
N804 N 0.1162 0.39135 0.40681 0.0
N805 N 0.28909 0.46856 0.33645 0.0
C806 C 0.15918 0.40188 0.38822 0.0
C807 C 0.24776 0.44267 0.35254 0.0
N808 N 0.08708 0.41104 0.35246 0.0
N809 N 0.32238 0.40887 0.38406 0.0
H810 H 0.27944 0.48492 0.31745 0.0
H811 H 0.33235 0.47698 0.34245 0.0
H812 H 0.33545 0.39016 0.40221 0.0
H813 H 0.35713 0.41477 0.37073 0.0
H814 H 0.05472 0.38775 0.36279 0.0
H815 H 0.0735 0.42519 0.33359 0.0
H816 H 0.0714 0.399 0.40338 0.0
H817 H 0.12532 0.37882 0.42644 0.0
C818 C 0.35034 0.50946 0.6265 0.0
C819 C 0.36575 0.46589 0.64562 0.0
C820 C 0.35196 0.38777 0.61189 0.0
C821 C 0.32935 0.4307 0.59391 0.0
N822 N 0.30389 0.53221 0.58398 0.0
N823 N 0.37483 0.36274 0.65784 0.0
C824 C 0.32786 0.49159 0.60115 0.0
C825 C 0.36567 0.40478 0.6386 0.0
N826 N 0.35841 0.56795 0.63254 0.0
N827 N 0.36003 0.33069 0.60348 0.0
H828 H 0.38555 0.3729 0.6776 0.0
H829 H 0.36773 0.31771 0.65477 0.0
H830 H 0.34794 0.31607 0.58446 0.0
H831 H 0.38255 0.29887 0.61463 0.0
H832 H 0.35358 0.60207 0.61874 0.0
H833 H 0.37528 0.582 0.65091 0.0
H834 H 0.29503 0.57596 0.58921 0.0
H835 H 0.28979 0.52157 0.5647 0.0
C836 C 0.38411 0.59985 0.86173 0.0
C837 C 0.33901 0.57658 0.84503 0.0
C838 C 0.26538 0.59461 0.88025 0.0
C839 C 0.31145 0.61155 0.89787 0.0
N840 N 0.41548 0.62508 0.90673 0.0
N841 N 0.23701 0.54913 0.83817 0.0
C842 C 0.37102 0.61351 0.8889 0.0
C843 C 0.27963 0.57335 0.85422 0.0
N844 N 0.43953 0.60861 0.85164 0.0
N845 N 0.2079 0.60027 0.88834 0.0
H846 H 0.24472 0.53632 0.81844 0.0
H847 H 0.1946 0.53888 0.84467 0.0
H848 H 0.19635 0.61602 0.90725 0.0
H849 H 0.17166 0.59433 0.87579 0.0
H850 H 0.47253 0.63174 0.86171 0.0
H851 H 0.45157 0.59604 0.83234 0.0
H852 H 0.46017 0.61982 0.90235 0.0
H853 H 0.40784 0.63632 0.92665 0.0
C854 C 0.20264 0.5306 0.10294 0.0
C855 C 0.198 0.59091 0.09514 0.0
C856 C 0.15837 0.61701 0.1392 0.0
C857 C 0.16129 0.55634 0.14674 0.0
N858 N 0.17469 0.45419 0.13459 0.0
N859 N 0.16146 0.68954 0.1035 0.0
C860 C 0.17992 0.51275 0.12817 0.0
C861 C 0.17226 0.6334 0.11249 0.0
N862 N 0.22988 0.49062 0.08645 0.0
N863 N 0.14626 0.65948 0.15797 0.0
H864 H 0.17364 0.70389 0.0845 0.0
H865 H 0.1367 0.72059 0.11412 0.0
H866 H 0.13545 0.64979 0.17772 0.0
H867 H 0.15106 0.70467 0.15455 0.0
H868 H 0.24094 0.44771 0.0922 0.0
H869 H 0.24451 0.50117 0.06729 0.0
H870 H 0.182 0.41976 0.12113 0.0
H871 H 0.15765 0.44009 0.15288 0.0
C872 C 0.85838 0.59879 0.6032 0.0
C873 C 0.79801 0.59745 0.59528 0.0
C874 C 0.7697 0.5598 0.63931 0.0
C875 C 0.82973 0.56356 0.64762 0.0
N876 N 0.93005 0.59446 0.63925 0.0
N877 N 0.69526 0.58669 0.60636 0.0
C878 C 0.87363 0.58593 0.63015 0.0
C879 C 0.75336 0.58082 0.61354 0.0
N880 N 0.9015 0.60873 0.58459 0.0
N881 N 0.72845 0.53554 0.65595 0.0
H882 H 0.68221 0.60233 0.58762 0.0
H883 H 0.66011 0.58107 0.61949 0.0
H884 H 0.73763 0.52305 0.67558 0.0
H885 H 0.68564 0.52498 0.65 0.0
H886 H 0.94642 0.60269 0.58831 0.0
H887 H 0.89253 0.61902 0.56469 0.0
H888 H 0.96205 0.61755 0.6286 0.0
H889 H 0.9442 0.58159 0.65822 0.0
C890 C 0.63747 0.52616 0.36399 0.0
C891 C 0.66036 0.56201 0.34336 0.0
C892 C 0.70443 0.62897 0.37641 0.0
C893 C 0.68229 0.59264 0.39718 0.0
N894 N 0.60911 0.52005 0.4104 0.0
N895 N 0.69767 0.65723 0.32986 0.0
C896 C 0.64277 0.5455 0.39095 0.0
C897 C 0.68858 0.61637 0.34954 0.0
N898 N 0.6128 0.47258 0.358 0.0
N899 N 0.74045 0.67572 0.38233 0.0
H900 H 0.68535 0.65021 0.31 0.0
H901 H 0.71135 0.70037 0.33373 0.0
H902 H 0.74814 0.6903 0.40182 0.0
H903 H 0.76437 0.69868 0.36792 0.0
H904 H 0.60186 0.44136 0.37246 0.0
H905 H 0.60757 0.45737 0.33844 0.0
H906 H 0.57603 0.4893 0.40635 0.0
H907 H 0.60905 0.53411 0.43018 0.0
C908 C 0.76783 0.42624 0.11455 0.0
C909 C 0.72483 0.41216 0.09496 0.0
C910 C 0.64601 0.42455 0.12822 0.0
C911 C 0.68838 0.44613 0.14665 0.0
N912 N 0.78907 0.47265 0.1572 0.0
N913 N 0.62192 0.40604 0.08182 0.0
C914 C 0.74925 0.4482 0.13982 0.0
C915 C 0.66357 0.41267 0.10147 0.0
N916 N 0.82639 0.41757 0.10903 0.0
N917 N 0.58896 0.41577 0.13623 0.0
H918 H 0.63227 0.39765 0.06189 0.0
H919 H 0.57695 0.41351 0.08483 0.0
H920 H 0.57412 0.42621 0.1554 0.0
H921 H 0.55759 0.39399 0.12457 0.0
H922 H 0.85984 0.42147 0.12325 0.0
H923 H 0.84103 0.40095 0.09071 0.0
H924 H 0.83275 0.48177 0.15217 0.0
H925 H 0.77767 0.48724 0.17631 0.0
C926 C 0.88513 0.41941 0.85586 0.0
C927 C 0.87904 0.479 0.84705 0.0
C928 C 0.83743 0.50793 0.8903 0.0
C929 C 0.84162 0.44803 0.89883 0.0
N930 N 0.88028 0.34936 0.89256 0.0
N931 N 0.86425 0.58187 0.85725 0.0
C932 C 0.86951 0.40472 0.88257 0.0
C933 C 0.85978 0.52388 0.8648 0.0
N934 N 0.90204 0.37614 0.83826 0.0
N935 N 0.8115 0.5494 0.9065 0.0
H936 H 0.8816 0.59436 0.83878 0.0
H937 H 0.85611 0.61757 0.8699 0.0
H938 H 0.79859 0.54072 0.9261 0.0
H939 H 0.80057 0.59202 0.90033 0.0
H940 H 0.90035 0.33107 0.84244 0.0
H941 H 0.9149 0.38458 0.81867 0.0
H942 H 0.90685 0.31805 0.88308 0.0
H943 H 0.86569 0.33562 0.91129 0.0
C944 C 0.64175 0.90158 0.86159 0.0
C945 C 0.68213 0.92754 0.84351 0.0
C946 C 0.76283 0.91264 0.87564 0.0
C947 C 0.72107 0.89526 0.89514 0.0
N948 N 0.619 0.87961 0.90776 0.0
N949 N 0.78056 0.96187 0.83344 0.0
C950 C 0.66007 0.89043 0.88835 0.0
C951 C 0.74267 0.9339 0.8505 0.0
N952 N 0.58576 0.88819 0.85328 0.0
N953 N 0.82187 0.90794 0.88117 0.0
H954 H 0.7682 0.97602 0.81438 0.0
H955 H 0.82339 0.97412 0.83868 0.0
H956 H 0.83764 0.8917 0.89937 0.0
H957 H 0.85487 0.91451 0.86701 0.0
H958 H 0.5563 0.86338 0.86462 0.0
H959 H 0.57033 0.89786 0.83411 0.0
H960 H 0.5736 0.88313 0.9046 0.0
H961 H 0.62984 0.87142 0.92765 0.0
C962 C 0.89262 0.98186 0.09634 0.0
C963 C 0.85132 0.93523 0.09175 0.0
C964 C 0.84828 0.91635 0.13991 0.0
C965 C 0.87896 0.97014 0.1445 0.0
N966 N 0.92967 0.0555 0.12757 0.0
N967 N 0.79183 0.85571 0.10916 0.0
C968 C 0.90165 1.00298 0.12286 0.0
C969 C 0.82998 0.90156 0.11357 0.0
N970 N 0.92395 1.00544 0.07564 0.0
N971 N 0.83819 0.87863 0.16074 0.0
H972 H 0.78142 0.84019 0.09007 0.0
H973 H 0.76867 0.8346 0.12437 0.0
H974 H 0.8515 0.88781 0.18029 0.0
H975 H 0.82232 0.83578 0.15823 0.0
H976 H 0.95824 0.03556 0.07829 0.0
H977 H 0.92031 0.99078 0.056 0.0
H978 H 0.94061 0.08531 0.11252 0.0
H979 H 0.93853 0.07105 0.14682 0.0
C980 C 0.86382 0.07457 0.39311 0.0
C981 C 0.80803 0.10058 0.39907 0.0
C982 C 0.78669 0.10935 0.35107 0.0
C983 C 0.83957 0.0774 0.34532 0.0
N984 N 0.92722 0.02655 0.3605 0.0
N985 N 0.71424 0.13928 0.38441 0.0
C986 C 0.87779 0.05919 0.36626 0.0
C987 C 0.76909 0.11767 0.37821 0.0
N988 N 0.9044 0.06661 0.41311 0.0
N989 N 0.75319 0.13154 0.3306 0.0
H990 H 0.7005 0.14678 0.40403 0.0
H991 H 0.68088 0.14629 0.37041 0.0
H992 H 0.76297 0.12425 0.31052 0.0
H993 H 0.71781 0.16047 0.33332 0.0
H994 H 0.94811 0.05402 0.40987 0.0
H995 H 0.89593 0.07759 0.43298 0.0
H996 H 0.95278 1.00529 0.37493 0.0
H997 H 0.94121 0.01786 0.34103 0.0
C998 C 0.69168 0.02488 0.60411 0.0
C999 C 0.67856 0.08324 0.59521 0.0
C1000 C 0.6335 0.10669 0.63851 0.0
C1001 C 0.64627 0.04815 0.64734 0.0
N1002 N 0.67522 0.94812 0.63723 0.0
N1003 N 0.62669 0.17556 0.60138 0.0
C1004 C 0.67162 1.00618 0.62966 0.0
C1005 C 0.64574 0.12268 0.61155 0.0
N1006 N 0.72427 0.98766 0.58828 0.0
N1007 N 0.61336 0.14814 0.65629 0.0
H1008 H 0.63704 0.18973 0.58212 0.0
H1009 H 0.59706 0.20339 0.61122 0.0
H1010 H 0.60317 0.13846 0.6761 0.0
H1011 H 0.61045 0.19314 0.652 0.0
H1012 H 0.74161 0.94747 0.59481 0.0
H1013 H 0.73657 0.99807 0.56877 0.0
H1014 H 0.6879 0.91392 0.62449 0.0
H1015 H 0.66022 0.93328 0.65576 0.0
C1016 C 0.26113 0.09694 0.11144 0.0
C1017 C 0.30759 0.11505 0.09439 0.0
C1018 C 0.37877 0.10522 0.1313 0.0
C1019 C 0.3336 0.08035 0.14734 0.0
N1020 N 0.23195 0.05076 0.15313 0.0
N1021 N 0.41154 0.13179 0.08678 0.0
C1022 C 0.2747 0.07588 0.13755 0.0
C1023 C 0.3666 0.11875 0.10405 0.0
N1024 N 0.20393 0.10126 0.10272 0.0
N1025 N 0.43337 0.11566 0.14208 0.0
H1026 H 0.40453 0.14308 0.06682 0.0
H1027 H 0.45614 0.12776 0.09165 0.0
H1028 H 0.44485 0.10357 0.16152 0.0
H1029 H 0.46609 0.1399 0.13246 0.0
H1030 H 0.16725 0.09427 0.11482 0.0
H1031 H 0.1929 0.11693 0.08373 0.0
H1032 H 0.19002 0.03968 0.1462 0.0
H1033 H 0.2391 0.03822 0.17293 0.0
C1034 C 0.20687 0.02984 0.88868 0.0
C1035 C 0.19934 0.08978 0.89673 0.0
C1036 C 0.15785 0.11441 0.85283 0.0
C1037 C 0.16366 0.05405 0.84506 0.0
N1038 N 0.1827 0.95253 0.85666 0.0
N1039 N 0.15821 0.18675 0.88874 0.0
C1040 C 0.18489 1.0112 0.86337 0.0
C1041 C 0.17141 0.13121 0.87956 0.0
N1042 N 0.23591 0.99096 0.90507 0.0
N1043 N 0.14319 0.15636 0.83424 0.0
H1044 H 0.17026 0.20163 0.90772 0.0
H1045 H 0.13176 0.21666 0.87831 0.0
H1046 H 0.13256 0.1463 0.81447 0.0
H1047 H 0.14569 0.20172 0.83782 0.0
H1048 H 0.24912 0.94875 0.89916 0.0
H1049 H 0.24972 1.00181 0.92437 0.0
H1050 H 0.19199 0.9183 0.86994 0.0
H1051 H 0.16633 0.93777 0.83831 0.0
C1052 C 0.14962 0.90634 0.6322 0.0
C1053 C 0.19174 0.93103 0.64996 0.0
C1054 C 0.27126 0.91204 0.61771 0.0
C1055 C 0.22901 0.88825 0.59966 0.0
N1056 N 0.13005 0.85167 0.59145 0.0
N1057 N 0.29324 0.94878 0.66231 0.0
C1058 C 0.16893 0.88135 0.60757 0.0
C1059 C 0.25286 0.93117 0.64352 0.0
N1060 N 0.09075 0.90978 0.63832 0.0
N1061 N 0.32881 0.91744 0.60974 0.0
H1062 H 0.28126 0.96389 0.68127 0.0
H1063 H 0.33878 0.9449 0.66002 0.0
H1064 H 0.34438 0.8994 0.59185 0.0
H1065 H 0.3608 0.94097 0.62024 0.0
H1066 H 0.05692 0.89953 0.62499 0.0
H1067 H 0.07514 0.92722 0.6563 0.0
H1068 H 0.08777 0.83939 0.59739 0.0
H1069 H 0.1408 0.83508 0.57268 0.0
C1070 C 0.32993 0.9062 0.35324 0.0
C1071 C 0.32818 0.96704 0.34604 0.0
C1072 C 0.2968 0.99368 0.39135 0.0
C1073 C 0.30261 0.93334 0.399 0.0
N1074 N 0.33173 0.83304 0.38864 0.0
N1075 N 0.31845 0.06959 0.35849 0.0
C1076 C 0.3217 0.88992 0.38039 0.0
C1077 C 0.31376 1.01109 0.36516 0.0
N1078 N 0.33608 0.86372 0.33387 0.0
N1079 N 0.27475 0.03429 0.40907 0.0
H1080 H 0.3308 0.08372 0.33947 0.0
H1081 H 0.31488 0.1041 0.37222 0.0
H1082 H 0.26552 0.0244 0.42898 0.0
H1083 H 0.26267 0.07722 0.4038 0.0
H1084 H 0.3312 0.8186 0.3374 0.0
H1085 H 0.34121 0.87343 0.31364 0.0
H1086 H 0.35267 0.80121 0.37689 0.0
H1087 H 0.32258 0.81837 0.40794 0.0
C1088 C 0.06943 0.75595 0.24667 0.0
C1089 C 0.04284 0.71128 0.2626 0.0
C1090 C 0.96823 0.78303 0.27764 0.0
C1091 C 0.99738 0.82931 0.26334 0.0
N1092 N 0.08486 0.86103 0.23989 0.0
N1093 N 0.97512 0.68525 0.29766 0.0
C1094 C 0.0506 0.816 0.24941 0.0
C1095 C 0.99539 0.72608 0.27978 0.0
N1096 N 0.11315 0.74123 0.22901 0.0
N1097 N 0.91236 0.79121 0.28732 0.0
H1098 H 0.99153 0.64211 0.29867 0.0
H1099 H 0.94561 0.69559 0.31295 0.0
H1100 H 0.88645 0.82818 0.2833 0.0
H1101 H 0.88858 0.75813 0.2968 0.0
H1102 H 0.12794 0.76985 0.21418 0.0
H1103 H 0.1321 0.69915 0.22793 0.0
H1104 H 0.1253 0.85457 0.23047 0.0
H1105 H 0.07634 0.90548 0.24408 0.0
C1106 C 0.05134 0.22796 0.52667 0.0
C1107 C 0.06435 0.28058 0.51254 0.0
C1108 C 0.95831 0.29542 0.50299 0.0
C1109 C 0.94486 0.24155 0.51623 0.0
N1110 N 0.97816 0.16013 0.54411 0.0
N1111 N 0.03228 0.36018 0.48388 0.0
C1112 C 0.99125 0.20891 0.52914 0.0
C1113 C 0.01836 0.31316 0.49983 0.0
N1114 N 0.0971 0.19433 0.5363 0.0
N1115 N 0.91312 0.33161 0.49484 0.0
H1116 H 0.0749 0.3772 0.48221 0.0
H1117 H 1.00249 0.37936 0.47058 0.0
H1118 H 0.8687 0.32175 0.49814 0.0
H1119 H 0.9192 0.37397 0.48723 0.0
H1120 H 0.09267 0.15168 0.5438 0.0
H1121 H 0.14118 0.20753 0.53509 0.0
H1122 H 1.00823 0.13827 0.55638 0.0
H1123 H 0.93613 0.1426 0.54585 0.0
C1124 C 0.53288 0.29771 0.7762 0.0
C1125 C 0.48029 0.31172 0.76217 0.0
C1126 C 0.4636 0.20591 0.75282 0.0
C1127 C 0.5172 0.19138 0.76616 0.0
N1128 N 0.59849 0.22308 0.79451 0.0
N1129 N 0.40003 0.28135 0.73356 0.0
C1130 C 0.55058 0.23715 0.77905 0.0
C1131 C 0.44683 0.26637 0.74956 0.0
N1132 N 0.56756 0.34287 0.7855 0.0
N1133 N 0.42684 0.16136 0.74465 0.0
H1134 H 0.38419 0.32454 0.73162 0.0
H1135 H 0.37992 0.25186 0.72042 0.0
H1136 H 0.4359 0.11673 0.74816 0.0
H1137 H 0.38482 0.16823 0.73677 0.0
H1138 H 0.61031 0.33741 0.7928 0.0
H1139 H 0.55525 0.38731 0.78406 0.0
H1140 H 0.62089 0.25311 0.80657 0.0
H1141 H 0.61408 0.18038 0.79723 0.0
C1142 C 0.528 0.82869 -0.00015 0.0
C1143 C 0.57252 0.80309 0.01634 0.0
C1144 C 0.50031 0.73152 0.03348 0.0
C1145 C 0.45514 0.7576 0.01718 0.0
N1146 N 0.42313 0.84185 0.99134 0.0
N1147 N 0.59843 0.74026 0.05328 0.0
C1148 C 0.46827 0.80941 0.00224 0.0
C1149 C 0.55755 0.75814 0.03478 0.0
N1150 N 0.54282 0.87141 0.98173 0.0
N1151 N 0.49031 0.67922 0.04636 0.0
H1152 H 0.64137 0.75695 0.05391 0.0
H1153 H 0.58866 0.71281 0.06935 0.0
H1154 H 0.45163 0.65497 0.04468 0.0
H1155 H 0.52223 0.65672 0.05731 0.0
H1156 H 0.51425 0.88631 0.96683 0.0
H1157 H 0.58497 0.8898 0.98052 0.0
H1158 H 0.42904 0.88264 0.98209 0.0
H1159 H 0.37872 0.83127 0.99417 0.0
C1160 C 0.97818 0.21189 0.74139 0.0
C1161 C 0.02849 0.19667 0.72593 0.0
C1162 C 0.03395 0.3006 0.71044 0.0
C1163 C 0.99004 0.31676 0.72933 0.0
N1164 N 0.92222 0.28784 0.76419 0.0
N1165 N 0.10672 0.22826 0.69612 0.0
C1166 C 0.9629 0.27243 0.74524 0.0
C1167 C 0.05663 0.24129 0.71021 0.0
N1168 N 0.94269 0.16807 0.75116 0.0
N1169 N 0.05463 0.34227 0.69303 0.0
H1170 H 0.12718 0.18713 0.69598 0.0
H1171 H 0.13077 0.25918 0.68542 0.0
H1172 H 0.04213 0.38672 0.69395 0.0
H1173 H 0.08102 0.33255 0.67658 0.0
H1174 H 0.90202 0.17617 0.76021 0.0
H1175 H 0.95038 0.12326 0.74735 0.0
H1176 H 0.90831 0.25874 0.779 0.0
H1177 H 0.90528 0.33051 0.76639 0.0
C1178 C 0.99434 0.7022 0.46348 0.0
C1179 C 0.94914 0.7306 0.4789 0.0
C1180 C 0.02428 0.79513 0.49927 0.0
C1181 C 0.06909 0.76817 0.48344 0.0
N1182 N 0.09581 0.7037 0.44707 0.0
N1183 N 0.91996 0.81663 0.50423 0.0
C1184 C 0.05356 0.72456 0.46423 0.0
C1185 C 0.96391 0.78056 0.49478 0.0
N1186 N 0.98191 0.65214 0.4492 0.0
N1187 N 0.03896 0.8352 0.51864 0.0
H1188 H 0.87538 0.8098 0.49983 0.0
H1189 H 0.92793 0.85709 0.51357 0.0
H1190 H 0.08151 0.85161 0.52139 0.0
H1191 H 1.00928 0.84897 0.53329 0.0
H1192 H 0.01284 0.62875 0.43812 0.0
H1193 H 0.94141 0.63079 0.44939 0.0
H1194 H 0.08672 0.67774 0.43037 0.0
H1195 H 0.14026 0.71548 0.44851 0.0
C1196 C 0.46797 0.71196 0.24157 0.0
C1197 C 0.52233 0.70184 0.22811 0.0
C1198 C 0.52767 0.80862 0.21705 0.0
C1199 C 0.47549 0.81867 0.23207 0.0
N1200 N 0.39827 0.78176 0.26074 0.0
N1201 N 0.60171 0.73974 0.20057 0.0
C1202 C 0.44638 0.77084 0.24492 0.0
C1203 C 0.55136 0.74991 0.21496 0.0
N1204 N 0.43493 0.66461 0.24967 0.0
N1205 N 0.55657 0.85616 0.20631 0.0
H1206 H 0.62465 0.69995 0.20064 0.0
H1207 H 0.62039 0.76994 0.18747 0.0
H1208 H 0.54079 0.89948 0.2078 0.0
H1209 H 0.5975 0.85422 0.197 0.0
H1210 H 0.39269 0.66811 0.25771 0.0
H1211 H 0.44712 0.62081 0.24589 0.0
H1212 H 0.38141 0.75109 0.27419 0.0
H1213 H 0.37708 0.82274 0.26179 0.0
C1214 C 0.49847 0.23403 0.95976 0.0
C1215 C 0.45278 0.26031 0.97563 0.0
C1216 C 0.52445 0.33306 0.99272 0.0
C1217 C 0.56937 0.3075 0.9765 0.0
N1218 N 0.59636 0.24333 0.94009 0.0
N1219 N 0.41936 0.34526 0.00071 0.0
C1220 C 0.5552 0.26149 0.95837 0.0
C1221 C 0.46502 0.3129 0.99025 0.0
N1222 N 0.48952 0.18078 0.94743 0.0
N1223 N 0.53853 0.3766 0.01065 0.0
H1224 H 0.37513 0.33387 -0.00213 0.0
H1225 H 0.4247 0.38665 0.00957 0.0
H1226 H 0.58032 0.39583 0.01181 0.0
H1227 H 0.50968 0.39126 0.02547 0.0
H1228 H 0.5221 0.15804 0.93701 0.0
H1229 H 0.4512 0.15604 0.9492 0.0
H1230 H 0.58688 0.21517 0.92417 0.0
H1231 H 0.63916 0.26035 0.93947 0.0
loop_
_geom_bond_atom_site_label_1
_geom_bond_atom_site_label_2
_geom_bond_distance
_geom_bond_site_symmetry_2
_ccdc_geom_bond_type
O0 Zn1 1.953 . S
O0 C16 1.225 . S
Zn1 O0 1.953 . S
Zn1 O2 1.949 . S
Zn1 O8 1.919 . S
Zn1 O13 1.924 . S
O2 Zn1 1.949 . S
O2 Zn3 1.923 . S
O2 Zn4 1.950 . S
O2 Zn5 1.945 . S
Zn3 O2 1.923 . S
Zn3 O6 1.933 . S
Zn3 O9 1.941 . S
Zn3 O10 1.965 . S
Zn4 O2 1.950 . S
Zn4 O11 1.938 . S
Zn4 O12 1.906 . S
Zn4 O22 1.953 . S
Zn5 O2 1.945 . S
Zn5 O7 1.932 . S
Zn5 O14 1.977 . S
Zn5 O15 1.910 . S
O6 Zn3 1.933 . S
O6 C17 1.226 . S
O7 Zn5 1.932 . S
O7 C17 1.307 . S
O8 Zn1 1.919 . S
O8 C19 1.253 . S
O9 Zn3 1.941 . S
O9 C19 1.283 . S
O10 Zn3 1.965 . S
O10 C18 1.303 . S
O11 Zn4 1.938 . S
O11 C18 1.247 . S
O12 Zn4 1.906 . S
O12 C20 1.304 . S
O13 Zn1 1.924 . S
O13 C21 1.311 . S
O14 Zn5 1.977 . S
O14 C20 1.272 . S
O15 Zn5 1.910 . S
O15 C21 1.231 . S
C16 O0 1.225 . S
C16 O22 1.298 . S
C17 O6 1.226 . S
C17 O7 1.307 . S
C18 O10 1.303 . S
C18 O11 1.247 . S
C19 O8 1.253 . S
C19 O9 1.283 . S
C20 O12 1.304 . S
C20 O14 1.272 . S
C21 O13 1.311 . S
C21 O15 1.231 . S
O22 Zn4 1.953 . S
O22 C16 1.298 . S
O23 Zn24 1.953 . S
O23 C39 1.225 . S
Zn24 O23 1.953 . S
Zn24 O25 1.949 . S
Zn24 O31 1.919 . S
Zn24 O36 1.924 . S
O25 Zn24 1.949 . S
O25 Zn26 1.923 . S
O25 Zn27 1.950 . S
O25 Zn28 1.945 . S
Zn26 O25 1.923 . S
Zn26 O29 1.933 . S
Zn26 O32 1.941 . S
Zn26 O33 1.965 . S
Zn27 O25 1.950 . S
Zn27 O34 1.938 . S
Zn27 O35 1.906 . S
Zn27 O45 1.953 . S
Zn28 O25 1.945 . S
Zn28 O30 1.932 . S
Zn28 O37 1.977 . S
Zn28 O38 1.910 . S
O29 Zn26 1.933 . S
O29 C40 1.226 . S
O30 Zn28 1.932 . S
O30 C40 1.307 . S
O31 Zn24 1.919 . S
O31 C42 1.253 . S
O32 Zn26 1.941 . S
O32 C42 1.283 . S
O33 Zn26 1.965 . S
O33 C41 1.303 . S
O34 Zn27 1.938 . S
O34 C41 1.247 . S
O35 Zn27 1.906 . S
O35 C43 1.304 . S
O36 Zn24 1.924 . S
O36 C44 1.311 . S
O37 Zn28 1.977 . S
O37 C43 1.272 . S
O38 Zn28 1.910 . S
O38 C44 1.231 . S
C39 O23 1.225 . S
C39 O45 1.298 . S
C40 O29 1.226 . S
C40 O30 1.307 . S
C41 O33 1.303 . S
C41 O34 1.247 . S
C42 O31 1.253 . S
C42 O32 1.283 . S
C43 O35 1.304 . S
C43 O37 1.272 . S
C44 O36 1.311 . S
C44 O38 1.231 . S
O45 Zn27 1.953 . S
O45 C39 1.298 . S
O46 Zn47 1.953 . S
O46 C62 1.225 . S
Zn47 O46 1.953 . S
Zn47 O48 1.949 . S
Zn47 O54 1.919 . S
Zn47 O59 1.924 . S
O48 Zn47 1.949 . S
O48 Zn49 1.923 . S
O48 Zn50 1.950 . S
O48 Zn51 1.945 . S
Zn49 O48 1.923 . S
Zn49 O52 1.933 . S
Zn49 O55 1.941 . S
Zn49 O56 1.965 . S
Zn50 O48 1.950 . S
Zn50 O57 1.938 . S
Zn50 O58 1.906 . S
Zn50 O68 1.953 . S
Zn51 O48 1.945 . S
Zn51 O53 1.932 . S
Zn51 O60 1.977 . S
Zn51 O61 1.910 . S
O52 Zn49 1.933 . S
O52 C63 1.226 . S
O53 Zn51 1.932 . S
O53 C63 1.307 . S
O54 Zn47 1.919 . S
O54 C65 1.253 . S
O55 Zn49 1.941 . S
O55 C65 1.283 . S
O56 Zn49 1.965 . S
O56 C64 1.303 . S
O57 Zn50 1.938 . S
O57 C64 1.247 . S
O58 Zn50 1.906 . S
O58 C66 1.304 . S
O59 Zn47 1.924 . S
O59 C67 1.311 . S
O60 Zn51 1.977 . S
O60 C66 1.272 . S
O61 Zn51 1.910 . S
O61 C67 1.231 . S
C62 O46 1.225 . S
C62 O68 1.298 . S
C63 O52 1.226 . S
C63 O53 1.307 . S
C64 O56 1.303 . S
C64 O57 1.247 . S
C65 O54 1.253 . S
C65 O55 1.283 . S
C66 O58 1.304 . S
C66 O60 1.272 . S
C67 O59 1.311 . S
C67 O61 1.231 . S
O68 Zn50 1.953 . S
O68 C62 1.298 . S
O69 Zn70 1.953 . S
O69 C85 1.225 . S
Zn70 O69 1.953 . S
Zn70 O71 1.936 1_554 S
Zn70 O77 1.919 . S
Zn70 O82 1.924 . S
O71 Zn70 1.936 1_556 S
O71 Zn72 1.917 1_556 S
O71 Zn73 1.962 . S
O71 Zn74 1.952 . S
Zn72 O71 1.917 1_554 S
Zn72 O75 1.933 . S
Zn72 O78 1.941 . S
Zn72 O79 1.965 . S
Zn73 O71 1.962 . S
Zn73 O80 1.938 . S
Zn73 O81 1.906 . S
Zn73 O91 1.953 . S
Zn74 O71 1.952 . S
Zn74 O76 1.932 . S
Zn74 O83 1.977 . S
Zn74 O84 1.910 . S
O75 Zn72 1.933 . S
O75 C86 1.226 1_554 S
O76 Zn74 1.932 . S
O76 C86 1.307 . S
O77 Zn70 1.919 . S
O77 C88 1.253 . S
O78 Zn72 1.941 . S
O78 C88 1.283 . S
O79 Zn72 1.965 . S
O79 C87 1.303 1_554 S
O80 Zn73 1.938 . S
O80 C87 1.247 . S
O81 Zn73 1.906 . S
O81 C89 1.304 . S
O82 Zn70 1.924 . S
O82 C90 1.311 . S
O83 Zn74 1.977 . S
O83 C89 1.272 . S
O84 Zn74 1.910 . S
O84 C90 1.231 1_556 S
C85 O69 1.225 . S
C85 O91 1.298 1_554 S
C86 O75 1.226 1_556 S
C86 O76 1.307 . S
C87 O79 1.303 1_556 S
C87 O80 1.247 . S
C88 O77 1.253 . S
C88 O78 1.283 . S
C89 O81 1.304 . S
C89 O83 1.272 . S
C90 O82 1.311 . S
C90 O84 1.231 1_554 S
O91 Zn73 1.953 . S
O91 C85 1.298 1_556 S
O92 Zn93 1.953 . S
O92 C108 1.225 . S
Zn93 O92 1.953 . S
Zn93 O94 1.949 . S
Zn93 O100 1.919 . S
Zn93 O105 1.924 . S
O94 Zn93 1.949 . S
O94 Zn95 1.923 . S
O94 Zn96 1.950 . S
O94 Zn97 1.945 . S
Zn95 O94 1.923 . S
Zn95 O98 1.933 . S
Zn95 O101 1.941 . S
Zn95 O102 1.965 . S
Zn96 O94 1.950 . S
Zn96 O103 1.938 . S
Zn96 O104 1.906 . S
Zn96 O114 1.953 . S
Zn97 O94 1.945 . S
Zn97 O99 1.932 . S
Zn97 O106 1.977 . S
Zn97 O107 1.910 . S
O98 Zn95 1.933 . S
O98 C109 1.226 . S
O99 Zn97 1.932 . S
O99 C109 1.307 . S
O100 Zn93 1.919 . S
O100 C111 1.253 . S
O101 Zn95 1.941 . S
O101 C111 1.283 . S
O102 Zn95 1.965 . S
O102 C110 1.303 . S
O103 Zn96 1.938 . S
O103 C110 1.247 . S
O104 Zn96 1.906 . S
O104 C112 1.304 . S
O105 Zn93 1.924 . S
O105 C113 1.311 . S
O106 Zn97 1.977 . S
O106 C112 1.272 . S
O107 Zn97 1.910 . S
O107 C113 1.231 . S
C108 O92 1.225 . S
C108 O114 1.298 . S
C109 O98 1.226 . S
C109 O99 1.307 . S
C110 O102 1.303 . S
C110 O103 1.247 . S
C111 O100 1.253 . S
C111 O101 1.283 . S
C112 O104 1.304 . S
C112 O106 1.272 . S
C113 O105 1.311 . S
C113 O107 1.231 . S
O114 Zn96 1.953 . S
O114 C108 1.298 . S
O115 Zn116 1.953 . S
O115 C131 1.225 . S
Zn116 O115 1.953 . S
Zn116 O117 1.949 . S
Zn116 O123 1.919 . S
Zn116 O128 1.924 . S
O117 Zn116 1.949 . S
O117 Zn118 1.923 . S
O117 Zn119 1.950 . S
O117 Zn120 1.945 . S
Zn118 O117 1.923 . S
Zn118 O121 1.933 . S
Zn118 O124 1.941 . S
Zn118 O125 1.965 . S
Zn119 O117 1.950 . S
Zn119 O126 1.938 . S
Zn119 O127 1.906 . S
Zn119 O137 1.953 . S
Zn120 O117 1.945 . S
Zn120 O122 1.932 . S
Zn120 O129 1.977 . S
Zn120 O130 1.910 . S
O121 Zn118 1.933 . S
O121 C132 1.226 . S
O122 Zn120 1.932 . S
O122 C132 1.307 . S
O123 Zn116 1.919 . S
O123 C134 1.253 . S
O124 Zn118 1.941 . S
O124 C134 1.283 . S
O125 Zn118 1.965 . S
O125 C133 1.303 . S
O126 Zn119 1.938 . S
O126 C133 1.247 . S
O127 Zn119 1.906 . S
O127 C135 1.304 . S
O128 Zn116 1.924 . S
O128 C136 1.311 . S
O129 Zn120 1.977 . S
O129 C135 1.272 . S
O130 Zn120 1.910 . S
O130 C136 1.231 . S
C131 O115 1.225 . S
C131 O137 1.298 . S
C132 O121 1.226 . S
C132 O122 1.307 . S
C133 O125 1.303 . S
C133 O126 1.247 . S
C134 O123 1.253 . S
C134 O124 1.283 . S
C135 O127 1.304 . S
C135 O129 1.272 . S
C136 O128 1.311 . S
C136 O130 1.231 . S
O137 Zn119 1.953 . S
O137 C131 1.298 . S
O138 Zn139 1.953 . S
O138 C154 1.225 . S
Zn139 O138 1.953 . S
Zn139 O140 1.949 . S
Zn139 O146 1.919 . S
Zn139 O151 1.924 . S
O140 Zn139 1.949 . S
O140 Zn141 1.923 . S
O140 Zn142 1.950 . S
O140 Zn143 1.945 . S
Zn141 O140 1.923 . S
Zn141 O144 1.933 . S
Zn141 O147 1.941 . S
Zn141 O148 1.965 . S
Zn142 O140 1.950 . S
Zn142 O149 1.938 . S
Zn142 O150 1.906 . S
Zn142 O160 1.953 . S
Zn143 O140 1.945 . S
Zn143 O145 1.932 . S
Zn143 O152 1.977 . S
Zn143 O153 1.910 . S
O144 Zn141 1.933 . S
O144 C155 1.226 . S
O145 Zn143 1.932 . S
O145 C155 1.307 . S
O146 Zn139 1.919 . S
O146 C157 1.253 . S
O147 Zn141 1.941 . S
O147 C157 1.283 . S
O148 Zn141 1.965 . S
O148 C156 1.303 . S
O149 Zn142 1.938 . S
O149 C156 1.247 . S
O150 Zn142 1.906 . S
O150 C158 1.304 . S
O151 Zn139 1.924 . S
O151 C159 1.311 . S
O152 Zn143 1.977 . S
O152 C158 1.272 . S
O153 Zn143 1.910 . S
O153 C159 1.231 . S
C154 O138 1.225 . S
C154 O160 1.298 . S
C155 O144 1.226 . S
C155 O145 1.307 . S
C156 O148 1.303 . S
C156 O149 1.247 . S
C157 O146 1.253 . S
C157 O147 1.283 . S
C158 O150 1.304 . S
C158 O152 1.272 . S
C159 O151 1.311 . S
C159 O153 1.231 . S
O160 Zn142 1.953 . S
O160 C154 1.298 . S
O161 Zn162 1.953 . S
O161 C177 1.225 . S
Zn162 O161 1.953 . S
Zn162 O163 1.936 1_556 S
Zn162 O169 1.919 . S
Zn162 O174 1.924 . S
O163 Zn162 1.936 1_554 S
O163 Zn164 1.917 1_554 S
O163 Zn165 1.962 . S
O163 Zn166 1.952 . S
Zn164 O163 1.917 1_556 S
Zn164 O167 1.933 . S
Zn164 O170 1.941 . S
Zn164 O171 1.965 . S
Zn165 O163 1.962 . S
Zn165 O172 1.938 . S
Zn165 O173 1.906 . S
Zn165 O183 1.953 . S
Zn166 O163 1.952 . S
Zn166 O168 1.932 . S
Zn166 O175 1.977 . S
Zn166 O176 1.910 . S
O167 Zn164 1.933 . S
O167 C178 1.226 1_556 S
O168 Zn166 1.932 . S
O168 C178 1.307 . S
O169 Zn162 1.919 . S
O169 C180 1.253 . S
O170 Zn164 1.941 . S
O170 C180 1.283 . S
O171 Zn164 1.965 . S
O171 C179 1.303 1_556 S
O172 Zn165 1.938 . S
O172 C179 1.247 . S
O173 Zn165 1.906 . S
O173 C181 1.304 . S
O174 Zn162 1.924 . S
O174 C182 1.311 . S
O175 Zn166 1.977 . S
O175 C181 1.272 . S
O176 Zn166 1.910 . S
O176 C182 1.231 1_554 S
C177 O161 1.225 . S
C177 O183 1.298 1_556 S
C178 O167 1.226 1_554 S
C178 O168 1.307 . S
C179 O171 1.303 1_554 S
C179 O172 1.247 . S
C180 O169 1.253 . S
C180 O170 1.283 . S
C181 O173 1.304 . S
C181 O175 1.272 . S
C182 O174 1.311 . S
C182 O176 1.231 1_556 S
O183 Zn165 1.953 . S
O183 C177 1.298 1_554 S
O184 Zn185 1.953 . S
O184 C200 1.225 . S
Zn185 O184 1.953 . S
Zn185 O186 1.949 . S
Zn185 O192 1.919 . S
Zn185 O197 1.924 . S
O186 Zn185 1.949 . S
O186 Zn187 1.923 1_545 S
O186 Zn188 1.950 . S
O186 Zn189 1.945 . S
Zn187 O186 1.923 1_565 S
Zn187 O190 1.933 . S
Zn187 O193 1.941 . S
Zn187 O194 1.965 . S
Zn188 O186 1.950 . S
Zn188 O195 1.938 1_545 S
Zn188 O196 1.906 . S
Zn188 O206 1.953 . S
Zn189 O186 1.945 . S
Zn189 O191 1.932 1_545 S
Zn189 O198 1.977 . S
Zn189 O199 1.910 . S
O190 Zn187 1.933 . S
O190 C201 1.226 . S
O191 Zn189 1.932 1_565 S
O191 C201 1.307 . S
O192 Zn185 1.919 . S
O192 C203 1.260 . S
O193 Zn187 1.941 . S
O193 C203 1.277 1_565 S
O194 Zn187 1.965 . S
O194 C202 1.303 . S
O195 Zn188 1.938 1_565 S
O195 C202 1.247 . S
O196 Zn188 1.906 . S
O196 C204 1.304 . S
O197 Zn185 1.924 . S
O197 C205 1.311 . S
O198 Zn189 1.977 . S
O198 C204 1.272 . S
O199 Zn189 1.910 . S
O199 C205 1.231 . S
C200 O184 1.225 . S
C200 O206 1.298 . S
C201 O190 1.226 . S
C201 O191 1.307 . S
C202 O194 1.303 . S
C202 O195 1.247 . S
C203 O192 1.260 . S
C203 O193 1.277 1_545 S
C204 O196 1.304 . S
C204 O198 1.272 . S
C205 O197 1.311 . S
C205 O199 1.231 . S
O206 Zn188 1.953 . S
O206 C200 1.298 . S
O207 Zn208 1.953 . S
O207 C223 1.225 . S
Zn208 O207 1.953 . S
Zn208 O209 1.936 1_554 S
Zn208 O215 1.919 . S
Zn208 O220 1.924 . S
O209 Zn208 1.936 1_556 S
O209 Zn210 1.917 1_556 S
O209 Zn211 1.962 . S
O209 Zn212 1.952 . S
Zn210 O209 1.917 1_554 S
Zn210 O213 1.933 . S
Zn210 O216 1.941 . S
Zn210 O217 1.965 . S
Zn211 O209 1.962 . S
Zn211 O218 1.938 . S
Zn211 O219 1.906 . S
Zn211 O229 1.953 . S
Zn212 O209 1.952 . S
Zn212 O214 1.932 1_565 S
Zn212 O221 1.977 . S
Zn212 O222 1.910 1_565 S
O213 Zn210 1.933 . S
O213 C224 1.226 1_564 S
O214 Zn212 1.932 1_545 S
O214 C224 1.307 . S
O215 Zn208 1.919 . S
O215 C226 1.253 . S
O216 Zn210 1.941 . S
O216 C226 1.283 . S
O217 Zn210 1.965 . S
O217 C225 1.303 1_554 S
O218 Zn211 1.938 . S
O218 C225 1.247 . S
O219 Zn211 1.906 . S
O219 C227 1.304 . S
O220 Zn208 1.924 . S
O220 C228 1.311 . S
O221 Zn212 1.977 . S
O221 C227 1.272 . S
O222 Zn212 1.910 1_545 S
O222 C228 1.231 1_546 S
C223 O207 1.225 . S
C223 O229 1.298 1_554 S
C224 O213 1.226 1_546 S
C224 O214 1.307 . S
C225 O217 1.303 1_556 S
C225 O218 1.247 . S
C226 O215 1.253 . S
C226 O216 1.283 . S
C227 O219 1.304 . S
C227 O221 1.272 . S
C228 O220 1.311 . S
C228 O222 1.231 1_564 S
O229 Zn211 1.953 . S
O229 C223 1.298 1_556 S
O230 Zn231 1.953 . S
O230 C246 1.225 . S
Zn231 O230 1.953 . S
Zn231 O232 1.949 . S
Zn231 O238 1.919 . S
Zn231 O243 1.924 . S
O232 Zn231 1.949 . S
O232 Zn233 1.923 1_565 S
O232 Zn234 1.950 . S
O232 Zn235 1.945 . S
Zn233 O232 1.923 1_545 S
Zn233 O236 1.933 . S
Zn233 O239 1.941 . S
Zn233 O240 1.965 . S
Zn234 O232 1.950 . S
Zn234 O241 1.938 1_565 S
Zn234 O242 1.906 . S
Zn234 O252 1.953 . S
Zn235 O232 1.945 . S
Zn235 O237 1.932 1_565 S
Zn235 O244 1.977 . S
Zn235 O245 1.910 . S
O236 Zn233 1.933 . S
O236 C247 1.226 . S
O237 Zn235 1.932 1_545 S
O237 C247 1.307 . S
O238 Zn231 1.919 . S
O238 C249 1.257 . S
O239 Zn233 1.941 . S
O239 C249 1.280 1_545 S
O240 Zn233 1.965 . S
O240 C248 1.303 . S
O241 Zn234 1.938 1_545 S
O241 C248 1.247 . S
O242 Zn234 1.906 . S
O242 C250 1.304 . S
O243 Zn231 1.924 . S
O243 C251 1.311 . S
O244 Zn235 1.977 . S
O244 C250 1.272 . S
O245 Zn235 1.910 . S
O245 C251 1.231 . S
C246 O230 1.225 . S
C246 O252 1.298 . S
C247 O236 1.226 . S
C247 O237 1.307 . S
C248 O240 1.303 . S
C248 O241 1.247 . S
C249 O238 1.257 . S
C249 O239 1.280 1_565 S
C250 O242 1.304 . S
C250 O244 1.272 . S
C251 O243 1.311 . S
C251 O245 1.231 . S
O252 Zn234 1.953 . S
O252 C246 1.298 . S
O253 Zn254 1.953 . S
O253 C269 1.225 . S
Zn254 O253 1.953 . S
Zn254 O255 1.949 . S
Zn254 O261 1.919 . S
Zn254 O266 1.924 . S
O255 Zn254 1.949 . S
O255 Zn256 1.923 . S
O255 Zn257 1.950 . S
O255 Zn258 1.945 . S
Zn256 O255 1.923 . S
Zn256 O259 1.933 . S
Zn256 O262 1.941 . S
Zn256 O263 1.965 . S
Zn257 O255 1.950 . S
Zn257 O264 1.938 . S
Zn257 O265 1.906 . S
Zn257 O275 1.953 . S
Zn258 O255 1.945 . S
Zn258 O260 1.932 1_545 S
Zn258 O267 1.977 . S
Zn258 O268 1.910 1_545 S
O259 Zn256 1.933 . S
O259 C270 1.226 1_545 S
O260 Zn258 1.932 1_565 S
O260 C270 1.307 . S
O261 Zn254 1.919 . S
O261 C272 1.253 . S
O262 Zn256 1.941 . S
O262 C272 1.283 . S
O263 Zn256 1.965 . S
O263 C271 1.303 . S
O264 Zn257 1.938 . S
O264 C271 1.247 . S
O265 Zn257 1.906 . S
O265 C273 1.304 . S
O266 Zn254 1.924 . S
O266 C274 1.311 . S
O267 Zn258 1.977 . S
O267 C273 1.272 . S
O268 Zn258 1.910 1_565 S
O268 C274 1.231 1_565 S
C269 O253 1.225 . S
C269 O275 1.298 . S
C270 O259 1.226 1_565 S
C270 O260 1.307 . S
C271 O263 1.303 . S
C271 O264 1.247 . S
C272 O261 1.253 . S
C272 O262 1.283 . S
C273 O265 1.304 . S
C273 O267 1.272 . S
C274 O266 1.311 . S
C274 O268 1.231 1_545 S
O275 Zn257 1.953 . S
O275 C269 1.298 . S
O276 Zn277 1.953 . S
O276 C292 1.225 . S
Zn277 O276 1.953 . S
Zn277 O278 1.949 . S
Zn277 O284 1.919 . S
Zn277 O289 1.924 . S
O278 Zn277 1.949 . S
O278 Zn279 1.923 1_565 S
O278 Zn280 1.950 . S
O278 Zn281 1.945 . S
Zn279 O278 1.923 1_545 S
Zn279 O282 1.933 . S
Zn279 O285 1.941 . S
Zn279 O286 1.965 . S
Zn280 O278 1.950 . S
Zn280 O287 1.938 1_565 S
Zn280 O288 1.906 . S
Zn280 O298 1.953 . S
Zn281 O278 1.945 . S
Zn281 O283 1.932 1_565 S
Zn281 O290 1.977 . S
Zn281 O291 1.910 . S
O282 Zn279 1.933 . S
O282 C293 1.226 . S
O283 Zn281 1.932 1_545 S
O283 C293 1.307 . S
O284 Zn277 1.919 . S
O284 C295 1.260 . S
O285 Zn279 1.941 . S
O285 C295 1.277 1_545 S
O286 Zn279 1.965 . S
O286 C294 1.303 . S
O287 Zn280 1.938 1_545 S
O287 C294 1.247 . S
O288 Zn280 1.906 . S
O288 C296 1.304 . S
O289 Zn277 1.924 . S
O289 C297 1.311 . S
O290 Zn281 1.977 . S
O290 C296 1.272 . S
O291 Zn281 1.910 . S
O291 C297 1.231 . S
C292 O276 1.225 . S
C292 O298 1.298 . S
C293 O282 1.226 . S
C293 O283 1.307 . S
C294 O286 1.303 . S
C294 O287 1.247 . S
C295 O284 1.260 . S
C295 O285 1.277 1_565 S
C296 O288 1.304 . S
C296 O290 1.272 . S
C297 O289 1.311 . S
C297 O291 1.231 . S
O298 Zn280 1.953 . S
O298 C292 1.298 . S
O299 Zn300 1.953 . S
O299 C315 1.225 . S
Zn300 O299 1.953 . S
Zn300 O301 1.936 1_556 S
Zn300 O307 1.919 . S
Zn300 O312 1.924 . S
O301 Zn300 1.936 1_554 S
O301 Zn302 1.917 1_554 S
O301 Zn303 1.962 . S
O301 Zn304 1.952 . S
Zn302 O301 1.917 1_556 S
Zn302 O305 1.933 . S
Zn302 O308 1.941 . S
Zn302 O309 1.965 . S
Zn303 O301 1.962 . S
Zn303 O310 1.938 . S
Zn303 O311 1.906 . S
Zn303 O321 1.953 . S
Zn304 O301 1.952 . S
Zn304 O306 1.932 1_545 S
Zn304 O313 1.977 . S
Zn304 O314 1.910 1_545 S
O305 Zn302 1.933 . S
O305 C316 1.226 1_546 S
O306 Zn304 1.932 1_565 S
O306 C316 1.307 . S
O307 Zn300 1.919 . S
O307 C318 1.253 . S
O308 Zn302 1.941 . S
O308 C318 1.283 . S
O309 Zn302 1.965 . S
O309 C317 1.303 1_556 S
O310 Zn303 1.938 . S
O310 C317 1.247 . S
O311 Zn303 1.906 . S
O311 C319 1.304 . S
O312 Zn300 1.924 . S
O312 C320 1.311 . S
O313 Zn304 1.977 . S
O313 C319 1.272 . S
O314 Zn304 1.910 1_565 S
O314 C320 1.231 1_564 S
C315 O299 1.225 . S
C315 O321 1.298 1_556 S
C316 O305 1.226 1_564 S
C316 O306 1.307 . S
C317 O309 1.303 1_554 S
C317 O310 1.247 . S
C318 O307 1.253 . S
C318 O308 1.283 . S
C319 O311 1.304 . S
C319 O313 1.272 . S
C320 O312 1.311 . S
C320 O314 1.231 1_546 S
O321 Zn303 1.953 . S
O321 C315 1.298 1_554 S
O322 Zn323 1.953 . S
O322 C338 1.225 . S
Zn323 O322 1.953 . S
Zn323 O324 1.949 . S
Zn323 O330 1.919 . S
Zn323 O335 1.924 . S
O324 Zn323 1.949 . S
O324 Zn325 1.923 1_545 S
O324 Zn326 1.950 . S
O324 Zn327 1.945 . S
Zn325 O324 1.923 1_565 S
Zn325 O328 1.933 . S
Zn325 O331 1.941 . S
Zn325 O332 1.965 . S
Zn326 O324 1.950 . S
Zn326 O333 1.938 1_545 S
Zn326 O334 1.906 . S
Zn326 O344 1.953 . S
Zn327 O324 1.945 . S
Zn327 O329 1.932 1_545 S
Zn327 O336 1.977 . S
Zn327 O337 1.910 . S
O328 Zn325 1.933 . S
O328 C339 1.226 . S
O329 Zn327 1.932 1_565 S
O329 C339 1.307 . S
O330 Zn323 1.919 . S
O330 C341 1.257 . S
O331 Zn325 1.941 . S
O331 C341 1.280 1_565 S
O332 Zn325 1.965 . S
O332 C340 1.303 . S
O333 Zn326 1.938 1_565 S
O333 C340 1.247 . S
O334 Zn326 1.906 . S
O334 C342 1.304 . S
O335 Zn323 1.924 . S
O335 C343 1.311 . S
O336 Zn327 1.977 . S
O336 C342 1.272 . S
O337 Zn327 1.910 . S
O337 C343 1.231 . S
C338 O322 1.225 . S
C338 O344 1.298 . S
C339 O328 1.226 . S
C339 O329 1.307 . S
C340 O332 1.303 . S
C340 O333 1.247 . S
C341 O330 1.257 . S
C341 O331 1.280 1_545 S
C342 O334 1.304 . S
C342 O336 1.272 . S
C343 O335 1.311 . S
C343 O337 1.231 . S
O344 Zn326 1.953 . S
O344 C338 1.298 . S
O345 Zn346 1.953 . S
O345 C361 1.225 . S
Zn346 O345 1.953 . S
Zn346 O347 1.949 . S
Zn346 O353 1.919 . S
Zn346 O358 1.924 . S
O347 Zn346 1.949 . S
O347 Zn348 1.923 . S
O347 Zn349 1.950 . S
O347 Zn350 1.945 . S
Zn348 O347 1.923 . S
Zn348 O351 1.933 . S
Zn348 O354 1.941 . S
Zn348 O355 1.965 . S
Zn349 O347 1.950 . S
Zn349 O356 1.938 . S
Zn349 O357 1.906 . S
Zn349 O367 1.953 . S
Zn350 O347 1.945 . S
Zn350 O352 1.932 1_565 S
Zn350 O359 1.977 . S
Zn350 O360 1.910 1_565 S
O351 Zn348 1.933 . S
O351 C362 1.226 1_565 S
O352 Zn350 1.932 1_545 S
O352 C362 1.307 . S
O353 Zn346 1.919 . S
O353 C364 1.253 . S
O354 Zn348 1.941 . S
O354 C364 1.283 . S
O355 Zn348 1.965 . S
O355 C363 1.303 . S
O356 Zn349 1.938 . S
O356 C363 1.247 . S
O357 Zn349 1.906 . S
O357 C365 1.304 . S
O358 Zn346 1.924 . S
O358 C366 1.311 . S
O359 Zn350 1.977 . S
O359 C365 1.272 . S
O360 Zn350 1.910 1_545 S
O360 C366 1.231 1_545 S
C361 O345 1.225 . S
C361 O367 1.298 . S
C362 O351 1.226 1_545 S
C362 O352 1.307 . S
C363 O355 1.303 . S
C363 O356 1.247 . S
C364 O353 1.253 . S
C364 O354 1.283 . S
C365 O357 1.304 . S
C365 O359 1.272 . S
C366 O358 1.311 . S
C366 O360 1.231 1_565 S
O367 Zn349 1.953 . S
O367 C361 1.298 . S
C368 C369 1.363 . S
C368 C374 1.379 . S
C368 N376 1.356 . S
C369 C368 1.363 . S
C369 C375 1.363 . S
C370 C371 1.363 . S
C370 C375 1.379 . S
C370 N377 1.356 . S
C371 C370 1.363 . S
C371 C374 1.363 . S
N372 C374 1.356 . S
N372 H384 0.984 . S
N372 H385 0.985 . S
N373 C375 1.356 . S
N373 H378 0.984 . S
N373 H379 0.985 . S
C374 C368 1.379 . S
C374 C371 1.363 . S
C374 N372 1.356 . S
C375 C369 1.363 . S
C375 C370 1.379 . S
C375 N373 1.356 . S
N376 C368 1.356 . S
N376 H382 0.984 . S
N376 H383 0.984 . S
N377 C370 1.356 . S
N377 H380 0.984 . S
N377 H381 0.985 . S
H378 N373 0.984 . S
H379 N373 0.985 . S
H380 N377 0.984 . S
H381 N377 0.985 . S
H382 N376 0.984 . S
H383 N376 0.984 . S
H384 N372 0.984 . S
H385 N372 0.985 . S
C386 C387 1.363 . S
C386 C392 1.379 . S
C386 N394 1.356 . S
C387 C386 1.363 . S
C387 C393 1.363 . S
C388 C389 1.363 . S
C388 C393 1.379 . S
C388 N395 1.356 . S
C389 C388 1.363 . S
C389 C392 1.363 . S
N390 C392 1.356 . S
N390 H402 0.984 . S
N390 H403 0.985 . S
N391 C393 1.356 . S
N391 H396 0.984 . S
N391 H397 0.985 . S
C392 C386 1.379 . S
C392 C389 1.363 . S
C392 N390 1.356 . S
C393 C387 1.363 . S
C393 C388 1.379 . S
C393 N391 1.356 . S
N394 C386 1.356 . S
N394 H400 0.984 . S
N394 H401 0.984 . S
N395 C388 1.356 . S
N395 H398 0.984 . S
N395 H399 0.985 . S
H396 N391 0.984 . S
H397 N391 0.985 . S
H398 N395 0.984 . S
H399 N395 0.985 . S
H400 N394 0.984 . S
H401 N394 0.984 . S
H402 N390 0.984 . S
H403 N390 0.985 . S
C404 C405 1.363 . S
C404 C410 1.379 . S
C404 N412 1.356 . S
C405 C404 1.363 . S
C405 C411 1.363 . S
C406 C407 1.363 . S
C406 C411 1.379 . S
C406 N413 1.356 . S
C407 C406 1.363 . S
C407 C410 1.363 . S
N408 C410 1.356 . S
N408 H420 0.984 . S
N408 H421 0.985 1_455 S
N409 C411 1.356 . S
N409 H414 0.984 . S
N409 H415 0.985 . S
C410 C404 1.379 . S
C410 C407 1.363 . S
C410 N408 1.356 . S
C411 C405 1.363 . S
C411 C406 1.379 . S
C411 N409 1.356 . S
N412 C404 1.356 . S
N412 H418 0.984 . S
N412 H419 0.984 . S
N413 C406 1.356 . S
N413 H416 0.984 1_455 S
N413 H417 0.985 . S
H414 N409 0.984 . S
H415 N409 0.985 . S
H416 N413 0.984 1_655 S
H417 N413 0.985 . S
H418 N412 0.984 . S
H419 N412 0.984 . S
H420 N408 0.984 . S
H421 N408 0.985 1_655 S
C422 C423 1.363 1_556 S
C422 C428 1.379 . S
C422 N430 1.356 . S
C423 C422 1.363 1_554 S
C423 C429 1.363 . S
C424 C425 1.339 1_554 S
C424 C429 1.379 . S
C424 N431 1.356 . S
C425 C424 1.339 1_556 S
C425 C428 1.385 . S
N426 C428 1.356 . S
N426 H438 0.984 . S
N426 H439 0.985 . S
N427 C429 1.356 . S
N427 H432 0.984 . S
N427 H433 0.985 . S
C428 C422 1.379 . S
C428 C425 1.385 . S
C428 N426 1.356 . S
C429 C423 1.363 . S
C429 C424 1.379 . S
C429 N427 1.356 . S
N430 C422 1.356 . S
N430 H436 0.984 . S
N430 H437 0.984 . S
N431 C424 1.356 . S
N431 H434 0.984 . S
N431 H435 0.985 . S
H432 N427 0.984 . S
H433 N427 0.985 . S
H434 N431 0.984 . S
H435 N431 0.985 . S
H436 N430 0.984 . S
H437 N430 0.984 . S
H438 N426 0.984 . S
H439 N426 0.985 . S
C440 C441 1.363 . S
C440 C446 1.379 . S
C440 N448 1.356 . S
C441 C440 1.363 . S
C441 C447 1.363 . S
C442 C443 1.363 . S
C442 C447 1.379 . S
C442 N449 1.356 . S
C443 C442 1.363 . S
C443 C446 1.363 . S
N444 C446 1.356 . S
N444 H456 0.984 . S
N444 H457 0.985 . S
N445 C447 1.356 . S
N445 H450 0.984 . S
N445 H451 0.985 . S
C446 C440 1.379 . S
C446 C443 1.363 . S
C446 N444 1.356 . S
C447 C441 1.363 . S
C447 C442 1.379 . S
C447 N445 1.356 . S
N448 C440 1.356 . S
N448 H454 0.984 . S
N448 H455 0.984 . S
N449 C442 1.356 . S
N449 H452 0.984 . S
N449 H453 0.985 . S
H450 N445 0.984 . S
H451 N445 0.985 . S
H452 N449 0.984 . S
H453 N449 0.985 . S
H454 N448 0.984 . S
H455 N448 0.984 . S
H456 N444 0.984 . S
H457 N444 0.985 . S
C458 C459 1.363 . S
C458 C464 1.379 . S
C458 N466 1.356 . S
C459 C458 1.363 . S
C459 C465 1.363 . S
C460 C461 1.363 . S
C460 C465 1.379 . S
C460 N467 1.356 . S
C461 C460 1.363 . S
C461 C464 1.363 . S
N462 C464 1.356 . S
N462 H474 0.984 . S
N462 H475 0.985 . S
N463 C465 1.356 . S
N463 H468 0.984 . S
N463 H469 0.985 . S
C464 C458 1.379 . S
C464 C461 1.363 . S
C464 N462 1.356 . S
C465 C459 1.363 . S
C465 C460 1.379 . S
C465 N463 1.356 . S
N466 C458 1.356 . S
N466 H472 0.984 . S
N466 H473 0.984 . S
N467 C460 1.356 . S
N467 H470 0.984 . S
N467 H471 0.985 . S
H468 N463 0.984 . S
H469 N463 0.985 . S
H470 N467 0.984 . S
H471 N467 0.985 . S
H472 N466 0.984 . S
H473 N466 0.984 . S
H474 N462 0.984 . S
H475 N462 0.985 . S
C476 C477 1.363 . S
C476 C482 1.379 . S
C476 N484 1.356 . S
C477 C476 1.363 . S
C477 C483 1.363 . S
C478 C479 1.363 . S
C478 C483 1.379 . S
C478 N485 1.356 1_655 S
C479 C478 1.363 . S
C479 C482 1.363 . S
N480 C482 1.356 . S
N480 H492 0.984 . S
N480 H493 0.985 1_655 S
N481 C483 1.356 . S
N481 H486 0.984 . S
N481 H487 0.985 . S
C482 C476 1.379 . S
C482 C479 1.363 . S
C482 N480 1.356 . S
C483 C477 1.363 . S
C483 C478 1.379 . S
C483 N481 1.356 . S
N484 C476 1.356 . S
N484 H490 0.984 . S
N484 H491 0.984 . S
N485 C478 1.356 1_455 S
N485 H488 0.984 . S
N485 H489 0.985 . S
H486 N481 0.984 . S
H487 N481 0.985 . S
H488 N485 0.984 . S
H489 N485 0.985 . S
H490 N484 0.984 . S
H491 N484 0.984 . S
H492 N480 0.984 . S
H493 N480 0.985 1_455 S
C494 C495 1.347 1_556 S
C494 C500 1.379 . S
C494 N502 1.356 . S
C495 C494 1.347 1_554 S
C495 C501 1.378 . S
C496 C497 1.363 1_554 S
C496 C501 1.379 . S
C496 N503 1.356 . S
C497 C496 1.363 1_556 S
C497 C500 1.363 . S
N498 C500 1.356 . S
N498 H510 0.984 . S
N498 H511 0.985 . S
N499 C501 1.356 . S
N499 H504 0.984 . S
N499 H505 0.985 . S
C500 C494 1.379 . S
C500 C497 1.363 . S
C500 N498 1.356 . S
C501 C495 1.378 . S
C501 C496 1.379 . S
C501 N499 1.356 . S
N502 C494 1.356 . S
N502 H508 0.984 . S
N502 H509 0.984 . S
N503 C496 1.356 . S
N503 H506 0.984 . S
N503 H507 0.985 . S
H504 N499 0.984 . S
H505 N499 0.985 . S
H506 N503 0.984 . S
H507 N503 0.985 . S
H508 N502 0.984 . S
H509 N502 0.984 . S
H510 N498 0.984 . S
H511 N498 0.985 . S
C512 C513 1.363 . S
C512 C518 1.379 . S
C512 N520 1.356 . S
C513 C512 1.363 . S
C513 C519 1.363 . S
C514 C515 1.363 . S
C514 C519 1.379 . S
C514 N521 1.356 . S
C515 C514 1.363 . S
C515 C518 1.363 . S
N516 C518 1.356 1_455 S
N516 H528 0.985 . S
N516 H529 0.985 . S
N517 C519 1.356 . S
N517 H522 0.984 . S
N517 H523 0.985 . S
C518 C512 1.379 . S
C518 C515 1.363 . S
C518 N516 1.356 1_655 S
C519 C513 1.363 . S
C519 C514 1.379 . S
C519 N517 1.356 . S
N520 C512 1.356 . S
N520 H526 0.984 . S
N520 H527 0.984 . S
N521 C514 1.356 . S
N521 H524 0.984 1_655 S
N521 H525 0.987 . S
H522 N517 0.984 . S
H523 N517 0.985 . S
H524 N521 0.984 1_455 S
H525 N521 0.987 . S
H526 N520 0.984 . S
H527 N520 0.984 . S
H528 N516 0.985 . S
H529 N516 0.985 . S
C530 C531 1.379 . S
C530 C536 1.379 . S
C530 N538 1.356 . S
C531 C530 1.379 . S
C531 C537 1.346 1_556 S
C532 C533 1.363 . S
C532 C537 1.379 . S
C532 N539 1.356 . S
C533 C532 1.363 . S
C533 C536 1.363 1_554 S
N534 C536 1.356 . S
N534 H546 0.984 . S
N534 H547 0.985 . S
N535 C537 1.356 . S
N535 H540 0.984 . S
N535 H541 0.985 . S
C536 C530 1.379 . S
C536 C533 1.363 1_556 S
C536 N534 1.356 . S
C537 C531 1.346 1_554 S
C537 C532 1.379 . S
C537 N535 1.356 . S
N538 C530 1.356 . S
N538 H544 0.984 . S
N538 H545 0.984 . S
N539 C532 1.356 . S
N539 H542 0.984 . S
N539 H543 0.985 . S
H540 N535 0.984 . S
H541 N535 0.985 . S
H542 N539 0.984 . S
H543 N539 0.985 . S
H544 N538 0.984 . S
H545 N538 0.984 . S
H546 N534 0.984 . S
H547 N534 0.985 . S
C548 C549 1.363 . S
C548 C554 1.379 . S
C548 N556 1.356 . S
C549 C548 1.363 . S
C549 C555 1.363 . S
C550 C551 1.363 . S
C550 C555 1.379 . S
C550 N557 1.356 . S
C551 C550 1.363 . S
C551 C554 1.363 . S
N552 C554 1.356 . S
N552 H564 0.984 . S
N552 H565 0.985 . S
N553 C555 1.356 . S
N553 H558 0.984 . S
N553 H559 0.985 1_545 S
C554 C548 1.379 . S
C554 C551 1.363 . S
C554 N552 1.356 . S
C555 C549 1.363 . S
C555 C550 1.379 . S
C555 N553 1.356 . S
N556 C548 1.356 . S
N556 H562 0.984 . S
N556 H563 0.984 . S
N557 C550 1.356 . S
N557 H560 0.984 . S
N557 H561 0.985 1_545 S
H558 N553 0.984 . S
H559 N553 0.985 1_565 S
H560 N557 0.984 . S
H561 N557 0.985 1_565 S
H562 N556 0.984 . S
H563 N556 0.984 . S
H564 N552 0.984 . S
H565 N552 0.985 . S
C566 C567 1.363 . S
C566 C572 1.379 . S
C566 N574 1.356 . S
C567 C566 1.363 . S
C567 C573 1.363 . S
C568 C569 1.363 . S
C568 C573 1.379 . S
C568 N575 1.356 . S
C569 C568 1.363 . S
C569 C572 1.363 . S
N570 C572 1.356 . S
N570 H582 0.984 . S
N570 H583 0.985 . S
N571 C573 1.356 . S
N571 H576 0.984 . S
N571 H577 0.985 . S
C572 C566 1.379 . S
C572 C569 1.363 . S
C572 N570 1.356 . S
C573 C567 1.363 . S
C573 C568 1.379 . S
C573 N571 1.356 . S
N574 C566 1.356 . S
N574 H580 0.984 . S
N574 H581 0.984 . S
N575 C568 1.356 . S
N575 H578 0.984 . S
N575 H579 0.985 . S
H576 N571 0.984 . S
H577 N571 0.985 . S
H578 N575 0.984 . S
H579 N575 0.985 . S
H580 N574 0.984 . S
H581 N574 0.984 . S
H582 N570 0.984 . S
H583 N570 0.985 . S
C584 C585 1.363 . S
C584 C590 1.379 . S
C584 N592 1.356 . S
C585 C584 1.363 . S
C585 C591 1.363 . S
C586 C587 1.363 . S
C586 C591 1.379 . S
C586 N593 1.356 . S
C587 C586 1.363 . S
C587 C590 1.363 . S
N588 C590 1.356 . S
N588 H600 0.984 . S
N588 H601 0.985 . S
N589 C591 1.356 . S
N589 H594 0.984 1_455 S
N589 H595 0.985 1_545 S
C590 C584 1.379 . S
C590 C587 1.363 . S
C590 N588 1.356 . S
C591 C585 1.363 . S
C591 C586 1.379 . S
C591 N589 1.356 . S
N592 C584 1.356 . S
N592 H598 0.984 . S
N592 H599 0.984 1_455 S
N593 C586 1.356 . S
N593 H596 0.984 . S
N593 H597 0.985 1_545 S
H594 N589 0.984 1_655 S
H595 N589 0.985 1_565 S
H596 N593 0.984 . S
H597 N593 0.985 1_565 S
H598 N592 0.984 . S
H599 N592 0.984 1_655 S
H600 N588 0.984 . S
H601 N588 0.985 . S
C602 C603 1.378 . S
C602 C608 1.379 . S
C602 N610 1.356 . S
C603 C602 1.378 . S
C603 C609 1.346 1_554 S
C604 C605 1.363 . S
C604 C609 1.379 . S
C604 N611 1.356 . S
C605 C604 1.363 . S
C605 C608 1.363 1_556 S
N606 C608 1.356 . S
N606 H618 0.984 . S
N606 H619 0.985 . S
N607 C609 1.356 . S
N607 H612 0.984 . S
N607 H613 0.985 . S
C608 C602 1.379 . S
C608 C605 1.363 1_554 S
C608 N606 1.356 . S
C609 C603 1.346 1_556 S
C609 C604 1.379 . S
C609 N607 1.356 . S
N610 C602 1.356 . S
N610 H616 0.984 . S
N610 H617 0.984 . S
N611 C604 1.356 . S
N611 H614 0.984 . S
N611 H615 0.985 . S
H612 N607 0.984 . S
H613 N607 0.985 . S
H614 N611 0.984 . S
H615 N611 0.985 . S
H616 N610 0.984 . S
H617 N610 0.984 . S
H618 N606 0.984 . S
H619 N606 0.985 . S
C620 C621 1.363 . S
C620 C626 1.379 . S
C620 N628 1.356 . S
C621 C620 1.363 . S
C621 C627 1.363 . S
C622 C623 1.363 . S
C622 C627 1.379 . S
C622 N629 1.356 . S
C623 C622 1.363 . S
C623 C626 1.363 . S
N624 C626 1.356 . S
N624 H636 0.984 . S
N624 H637 0.985 . S
N625 C627 1.356 . S
N625 H630 0.984 . S
N625 H631 0.985 . S
C626 C620 1.379 . S
C626 C623 1.363 . S
C626 N624 1.356 . S
C627 C621 1.363 . S
C627 C622 1.379 . S
C627 N625 1.356 . S
N628 C620 1.356 . S
N628 H634 0.984 . S
N628 H635 0.984 . S
N629 C622 1.356 . S
N629 H632 0.984 . S
N629 H633 0.985 . S
H630 N625 0.984 . S
H631 N625 0.985 . S
H632 N629 0.984 . S
H633 N629 0.985 . S
H634 N628 0.984 . S
H635 N628 0.984 . S
H636 N624 0.984 . S
H637 N624 0.985 . S
C638 C639 1.363 . S
C638 C644 1.379 . S
C638 N646 1.356 . S
C639 C638 1.363 . S
C639 C645 1.363 . S
C640 C641 1.363 . S
C640 C645 1.379 . S
C640 N647 1.356 . S
C641 C640 1.363 . S
C641 C644 1.363 . S
N642 C644 1.356 . S
N642 H654 0.984 . S
N642 H655 0.985 . S
N643 C645 1.356 . S
N643 H648 0.984 . S
N643 H649 0.985 . S
C644 C638 1.379 . S
C644 C641 1.363 . S
C644 N642 1.356 . S
C645 C639 1.363 . S
C645 C640 1.379 . S
C645 N643 1.356 . S
N646 C638 1.356 . S
N646 H652 0.984 . S
N646 H653 0.984 . S
N647 C640 1.356 . S
N647 H650 0.984 . S
N647 H651 0.985 . S
H648 N643 0.984 . S
H649 N643 0.985 . S
H650 N647 0.984 . S
H651 N647 0.985 . S
H652 N646 0.984 . S
H653 N646 0.984 . S
H654 N642 0.984 . S
H655 N642 0.985 . S
C656 C657 1.363 . S
C656 C662 1.379 . S
C656 N664 1.356 . S
C657 C656 1.363 . S
C657 C663 1.363 . S
C658 C659 1.363 . S
C658 C663 1.379 . S
C658 N665 1.356 . S
C659 C658 1.363 . S
C659 C662 1.363 . S
N660 C662 1.356 . S
N660 H672 0.984 . S
N660 H673 0.985 . S
N661 C663 1.356 . S
N661 H666 0.984 . S
N661 H667 0.985 . S
C662 C656 1.379 . S
C662 C659 1.363 . S
C662 N660 1.356 . S
C663 C657 1.363 . S
C663 C658 1.379 . S
C663 N661 1.356 . S
N664 C656 1.356 . S
N664 H670 0.984 . S
N664 H671 0.984 . S
N665 C658 1.356 . S
N665 H668 0.984 . S
N665 H669 0.985 . S
H666 N661 0.984 . S
H667 N661 0.985 . S
H668 N665 0.984 . S
H669 N665 0.985 . S
H670 N664 0.984 . S
H671 N664 0.984 . S
H672 N660 0.984 . S
H673 N660 0.985 . S
C674 C675 1.363 . S
C674 C680 1.379 1_455 S
C674 N682 1.356 . S
C675 C674 1.363 . S
C675 C681 1.363 . S
C676 C677 1.363 . S
C676 C681 1.379 1_655 S
C676 N683 1.356 . S
C677 C676 1.363 . S
C677 C680 1.363 . S
N678 C680 1.356 . S
N678 H690 0.984 . S
N678 H691 0.985 . S
N679 C681 1.356 . S
N679 H684 0.984 . S
N679 H685 0.985 . S
C680 C674 1.379 1_655 S
C680 C677 1.363 . S
C680 N678 1.356 . S
C681 C675 1.363 . S
C681 C676 1.379 1_455 S
C681 N679 1.356 . S
N682 C674 1.356 . S
N682 H688 0.984 . S
N682 H689 0.984 . S
N683 C676 1.356 . S
N683 H686 0.984 . S
N683 H687 0.985 . S
H684 N679 0.984 . S
H685 N679 0.985 . S
H686 N683 0.984 . S
H687 N683 0.985 . S
H688 N682 0.984 . S
H689 N682 0.984 . S
H690 N678 0.984 . S
H691 N678 0.985 . S
C692 C693 1.363 . S
C692 C698 1.379 . S
C692 N700 1.356 . S
C693 C692 1.363 . S
C693 C699 1.363 . S
C694 C695 1.363 . S
C694 C699 1.379 . S
C694 N701 1.356 . S
C695 C694 1.363 . S
C695 C698 1.363 . S
N696 C698 1.356 . S
N696 H708 0.984 . S
N696 H709 0.985 . S
N697 C699 1.356 . S
N697 H702 0.984 . S
N697 H703 0.985 . S
C698 C692 1.379 . S
C698 C695 1.363 . S
C698 N696 1.356 . S
C699 C693 1.363 . S
C699 C694 1.379 . S
C699 N697 1.356 . S
N700 C692 1.356 . S
N700 H706 0.984 . S
N700 H707 0.984 . S
N701 C694 1.356 . S
N701 H704 0.984 . S
N701 H705 0.985 . S
H702 N697 0.984 . S
H703 N697 0.985 . S
H704 N701 0.984 . S
H705 N701 0.985 . S
H706 N700 0.984 . S
H707 N700 0.984 . S
H708 N696 0.984 . S
H709 N696 0.985 . S
C710 C711 1.363 . S
C710 C716 1.379 . S
C710 N718 1.356 . S
C711 C710 1.363 . S
C711 C717 1.363 1_556 S
C712 C713 1.363 . S
C712 C717 1.379 . S
C712 N719 1.356 . S
C713 C712 1.363 . S
C713 C716 1.363 1_554 S
N714 C716 1.356 . S
N714 H726 0.984 . S
N714 H727 0.985 . S
N715 C717 1.356 . S
N715 H720 0.984 . S
N715 H721 0.985 . S
C716 C710 1.379 . S
C716 C713 1.363 1_556 S
C716 N714 1.356 . S
C717 C711 1.363 1_554 S
C717 C712 1.379 . S
C717 N715 1.356 . S
N718 C710 1.356 . S
N718 H724 0.984 . S
N718 H725 0.984 . S
N719 C712 1.356 . S
N719 H722 0.984 . S
N719 H723 0.985 . S
H720 N715 0.984 . S
H721 N715 0.985 . S
H722 N719 0.984 . S
H723 N719 0.985 . S
H724 N718 0.984 . S
H725 N718 0.984 . S
H726 N714 0.984 . S
H727 N714 0.985 . S
C728 C729 1.363 . S
C728 C734 1.379 . S
C728 N736 1.356 . S
C729 C728 1.363 . S
C729 C735 1.363 . S
C730 C731 1.363 . S
C730 C735 1.379 . S
C730 N737 1.356 . S
C731 C730 1.363 . S
C731 C734 1.363 . S
N732 C734 1.356 . S
N732 H744 0.984 . S
N732 H745 0.985 . S
N733 C735 1.356 . S
N733 H738 0.984 . S
N733 H739 0.985 . S
C734 C728 1.379 . S
C734 C731 1.363 . S
C734 N732 1.356 . S
C735 C729 1.363 . S
C735 C730 1.379 . S
C735 N733 1.356 . S
N736 C728 1.356 . S
N736 H742 0.984 . S
N736 H743 0.984 . S
N737 C730 1.356 . S
N737 H740 0.984 . S
N737 H741 0.985 . S
H738 N733 0.984 . S
H739 N733 0.985 . S
H740 N737 0.984 . S
H741 N737 0.985 . S
H742 N736 0.984 . S
H743 N736 0.984 . S
H744 N732 0.984 . S
H745 N732 0.985 . S
C746 C747 1.363 . S
C746 C752 1.379 . S
C746 N754 1.356 . S
C747 C746 1.363 . S
C747 C753 1.363 . S
C748 C749 1.363 . S
C748 C753 1.379 . S
C748 N755 1.356 . S
C749 C748 1.363 . S
C749 C752 1.363 . S
N750 C752 1.356 . S
N750 H762 0.984 . S
N750 H763 0.985 . S
N751 C753 1.356 . S
N751 H756 0.984 . S
N751 H757 0.985 . S
C752 C746 1.379 . S
C752 C749 1.363 . S
C752 N750 1.356 . S
C753 C747 1.363 . S
C753 C748 1.379 . S
C753 N751 1.356 . S
N754 C746 1.356 . S
N754 H760 0.984 . S
N754 H761 0.984 . S
N755 C748 1.356 . S
N755 H758 0.984 . S
N755 H759 0.985 . S
H756 N751 0.984 . S
H757 N751 0.985 . S
H758 N755 0.984 . S
H759 N755 0.985 . S
H760 N754 0.984 . S
H761 N754 0.984 . S
H762 N750 0.984 . S
H763 N750 0.985 . S
C764 C765 1.363 1_565 S
C764 C770 1.379 . S
C764 N772 1.356 . S
C765 C764 1.363 1_545 S
C765 C771 1.363 1_554 S
C766 C767 1.363 1_545 S
C766 C771 1.379 . S
C766 N773 1.356 . S
C767 C766 1.363 1_565 S
C767 C770 1.363 1_556 S
N768 C770 1.356 . S
N768 H780 0.984 . S
N768 H781 0.985 . S
N769 C771 1.356 . S
N769 H774 0.984 . S
N769 H775 0.985 . S
C770 C764 1.379 . S
C770 C767 1.363 1_554 S
C770 N768 1.356 . S
C771 C765 1.363 1_556 S
C771 C766 1.379 . S
C771 N769 1.356 . S
N772 C764 1.356 . S
N772 H778 0.984 . S
N772 H779 0.984 . S
N773 C766 1.356 . S
N773 H776 0.984 . S
N773 H777 0.985 . S
H774 N769 0.984 . S
H775 N769 0.985 . S
H776 N773 0.984 . S
H777 N773 0.985 . S
H778 N772 0.984 . S
H779 N772 0.984 . S
H780 N768 0.984 . S
H781 N768 0.985 . S
C782 C783 1.363 . S
C782 C788 1.379 1_455 S
C782 N790 1.356 . S
C783 C782 1.363 . S
C783 C789 1.363 1_545 S
C784 C785 1.363 . S
C784 C789 1.379 1_655 S
C784 N791 1.356 . S
C785 C784 1.363 . S
C785 C788 1.363 1_565 S
N786 C788 1.356 . S
N786 H798 0.984 . S
N786 H799 0.985 . S
N787 C789 1.356 . S
N787 H792 0.984 . S
N787 H793 0.985 . S
C788 C782 1.379 1_655 S
C788 C785 1.363 1_545 S
C788 N786 1.356 . S
C789 C783 1.363 1_565 S
C789 C784 1.379 1_455 S
C789 N787 1.356 . S
N790 C782 1.356 . S
N790 H796 0.984 . S
N790 H797 0.984 . S
N791 C784 1.356 . S
N791 H794 0.984 . S
N791 H795 0.985 . S
H792 N787 0.984 . S
H793 N787 0.985 . S
H794 N791 0.984 . S
H795 N791 0.985 . S
H796 N790 0.984 . S
H797 N790 0.984 . S
H798 N786 0.984 . S
H799 N786 0.985 . S
C800 C801 1.363 . S
C800 C806 1.379 . S
C800 N808 1.356 . S
C801 C800 1.363 . S
C801 C807 1.363 . S
C802 C803 1.363 . S
C802 C807 1.379 . S
C802 N809 1.356 . S
C803 C802 1.363 . S
C803 C806 1.363 . S
N804 C806 1.356 . S
N804 H816 0.984 . S
N804 H817 0.985 . S
N805 C807 1.356 . S
N805 H810 0.984 . S
N805 H811 0.985 . S
C806 C800 1.379 . S
C806 C803 1.363 . S
C806 N804 1.356 . S
C807 C801 1.363 . S
C807 C802 1.379 . S
C807 N805 1.356 . S
N808 C800 1.356 . S
N808 H814 0.984 . S
N808 H815 0.984 . S
N809 C802 1.356 . S
N809 H812 0.984 . S
N809 H813 0.985 . S
H810 N805 0.984 . S
H811 N805 0.985 . S
H812 N809 0.984 . S
H813 N809 0.985 . S
H814 N808 0.984 . S
H815 N808 0.984 . S
H816 N804 0.984 . S
H817 N804 0.985 . S
C818 C819 1.363 . S
C818 C824 1.379 . S
C818 N826 1.356 . S
C819 C818 1.363 . S
C819 C825 1.363 . S
C820 C821 1.363 . S
C820 C825 1.379 . S
C820 N827 1.356 . S
C821 C820 1.363 . S
C821 C824 1.363 . S
N822 C824 1.356 . S
N822 H834 0.984 . S
N822 H835 0.985 . S
N823 C825 1.356 . S
N823 H828 0.984 . S
N823 H829 0.985 . S
C824 C818 1.379 . S
C824 C821 1.363 . S
C824 N822 1.356 . S
C825 C819 1.363 . S
C825 C820 1.379 . S
C825 N823 1.356 . S
N826 C818 1.356 . S
N826 H832 0.984 . S
N826 H833 0.984 . S
N827 C820 1.356 . S
N827 H830 0.984 . S
N827 H831 0.985 . S
H828 N823 0.984 . S
H829 N823 0.985 . S
H830 N827 0.984 . S
H831 N827 0.985 . S
H832 N826 0.984 . S
H833 N826 0.984 . S
H834 N822 0.984 . S
H835 N822 0.985 . S
C836 C837 1.363 . S
C836 C842 1.379 . S
C836 N844 1.356 . S
C837 C836 1.363 . S
C837 C843 1.363 . S
C838 C839 1.363 . S
C838 C843 1.379 . S
C838 N845 1.356 . S
C839 C838 1.363 . S
C839 C842 1.363 . S
N840 C842 1.356 . S
N840 H852 0.984 . S
N840 H853 0.985 . S
N841 C843 1.356 . S
N841 H846 0.984 . S
N841 H847 0.985 . S
C842 C836 1.379 . S
C842 C839 1.363 . S
C842 N840 1.356 . S
C843 C837 1.363 . S
C843 C838 1.379 . S
C843 N841 1.356 . S
N844 C836 1.356 . S
N844 H850 0.984 . S
N844 H851 0.984 . S
N845 C838 1.356 . S
N845 H848 0.984 . S
N845 H849 0.985 . S
H846 N841 0.984 . S
H847 N841 0.985 . S
H848 N845 0.984 . S
H849 N845 0.985 . S
H850 N844 0.984 . S
H851 N844 0.984 . S
H852 N840 0.984 . S
H853 N840 0.985 . S
C854 C855 1.363 . S
C854 C860 1.379 . S
C854 N862 1.356 . S
C855 C854 1.363 . S
C855 C861 1.363 . S
C856 C857 1.363 . S
C856 C861 1.379 . S
C856 N863 1.356 . S
C857 C856 1.363 . S
C857 C860 1.363 . S
N858 C860 1.356 . S
N858 H870 0.984 . S
N858 H871 0.985 . S
N859 C861 1.356 . S
N859 H864 0.984 . S
N859 H865 0.985 . S
C860 C854 1.379 . S
C860 C857 1.363 . S
C860 N858 1.356 . S
C861 C855 1.363 . S
C861 C856 1.379 . S
C861 N859 1.356 . S
N862 C854 1.356 . S
N862 H868 0.984 . S
N862 H869 0.984 . S
N863 C856 1.356 . S
N863 H866 0.984 . S
N863 H867 0.985 . S
H864 N859 0.984 . S
H865 N859 0.985 . S
H866 N863 0.984 . S
H867 N863 0.985 . S
H868 N862 0.984 . S
H869 N862 0.984 . S
H870 N858 0.984 . S
H871 N858 0.985 . S
C872 C873 1.363 . S
C872 C878 1.379 . S
C872 N880 1.356 . S
C873 C872 1.363 . S
C873 C879 1.363 . S
C874 C875 1.363 . S
C874 C879 1.379 . S
C874 N881 1.356 . S
C875 C874 1.363 . S
C875 C878 1.363 . S
N876 C878 1.356 . S
N876 H888 0.984 . S
N876 H889 0.985 . S
N877 C879 1.356 . S
N877 H882 0.984 . S
N877 H883 0.985 . S
C878 C872 1.379 . S
C878 C875 1.363 . S
C878 N876 1.356 . S
C879 C873 1.363 . S
C879 C874 1.379 . S
C879 N877 1.356 . S
N880 C872 1.356 . S
N880 H886 0.984 . S
N880 H887 0.984 . S
N881 C874 1.356 . S
N881 H884 0.984 . S
N881 H885 0.985 . S
H882 N877 0.984 . S
H883 N877 0.985 . S
H884 N881 0.984 . S
H885 N881 0.985 . S
H886 N880 0.984 . S
H887 N880 0.984 . S
H888 N876 0.984 . S
H889 N876 0.985 . S
C890 C891 1.363 . S
C890 C896 1.379 . S
C890 N898 1.356 . S
C891 C890 1.363 . S
C891 C897 1.363 . S
C892 C893 1.363 . S
C892 C897 1.379 . S
C892 N899 1.356 . S
C893 C892 1.363 . S
C893 C896 1.363 . S
N894 C896 1.356 . S
N894 H906 0.984 . S
N894 H907 0.985 . S
N895 C897 1.356 . S
N895 H900 0.984 . S
N895 H901 0.985 . S
C896 C890 1.379 . S
C896 C893 1.363 . S
C896 N894 1.356 . S
C897 C891 1.363 . S
C897 C892 1.379 . S
C897 N895 1.356 . S
N898 C890 1.356 . S
N898 H904 0.984 . S
N898 H905 0.984 . S
N899 C892 1.356 . S
N899 H902 0.984 . S
N899 H903 0.985 . S
H900 N895 0.984 . S
H901 N895 0.985 . S
H902 N899 0.984 . S
H903 N899 0.985 . S
H904 N898 0.984 . S
H905 N898 0.984 . S
H906 N894 0.984 . S
H907 N894 0.985 . S
C908 C909 1.363 . S
C908 C914 1.379 . S
C908 N916 1.356 . S
C909 C908 1.363 . S
C909 C915 1.363 . S
C910 C911 1.363 . S
C910 C915 1.379 . S
C910 N917 1.356 . S
C911 C910 1.363 . S
C911 C914 1.363 . S
N912 C914 1.356 . S
N912 H924 0.984 . S
N912 H925 0.985 . S
N913 C915 1.356 . S
N913 H918 0.984 . S
N913 H919 0.985 . S
C914 C908 1.379 . S
C914 C911 1.363 . S
C914 N912 1.356 . S
C915 C909 1.363 . S
C915 C910 1.379 . S
C915 N913 1.356 . S
N916 C908 1.356 . S
N916 H922 0.984 . S
N916 H923 0.984 . S
N917 C910 1.356 . S
N917 H920 0.984 . S
N917 H921 0.985 . S
H918 N913 0.984 . S
H919 N913 0.985 . S
H920 N917 0.984 . S
H921 N917 0.985 . S
H922 N916 0.984 . S
H923 N916 0.984 . S
H924 N912 0.984 . S
H925 N912 0.985 . S
C926 C927 1.363 . S
C926 C932 1.379 . S
C926 N934 1.356 . S
C927 C926 1.363 . S
C927 C933 1.363 . S
C928 C929 1.363 . S
C928 C933 1.379 . S
C928 N935 1.356 . S
C929 C928 1.363 . S
C929 C932 1.363 . S
N930 C932 1.356 . S
N930 H942 0.984 . S
N930 H943 0.985 . S
N931 C933 1.356 . S
N931 H936 0.984 . S
N931 H937 0.985 . S
C932 C926 1.379 . S
C932 C929 1.363 . S
C932 N930 1.356 . S
C933 C927 1.363 . S
C933 C928 1.379 . S
C933 N931 1.356 . S
N934 C926 1.356 . S
N934 H940 0.984 . S
N934 H941 0.984 . S
N935 C928 1.356 . S
N935 H938 0.984 . S
N935 H939 0.985 . S
H936 N931 0.984 . S
H937 N931 0.985 . S
H938 N935 0.984 . S
H939 N935 0.985 . S
H940 N934 0.984 . S
H941 N934 0.984 . S
H942 N930 0.984 . S
H943 N930 0.985 . S
C944 C945 1.363 . S
C944 C950 1.379 . S
C944 N952 1.356 . S
C945 C944 1.363 . S
C945 C951 1.363 1_565 S
C946 C947 1.363 . S
C946 C951 1.379 1_565 S
C946 N953 1.356 1_565 S
C947 C946 1.363 . S
C947 C950 1.363 . S
N948 C950 1.356 . S
N948 H960 0.984 . S
N948 H961 0.985 . S
N949 C951 1.356 . S
N949 H954 0.984 . S
N949 H955 0.985 . S
C950 C944 1.379 . S
C950 C947 1.363 . S
C950 N948 1.356 . S
C951 C945 1.363 1_545 S
C951 C946 1.379 1_545 S
C951 N949 1.356 . S
N952 C944 1.356 . S
N952 H958 0.984 . S
N952 H959 0.984 . S
N953 C946 1.356 1_545 S
N953 H956 0.984 1_545 S
N953 H957 0.985 . S
H954 N949 0.984 . S
H955 N949 0.985 . S
H956 N953 0.984 1_565 S
H957 N953 0.985 . S
H958 N952 0.984 . S
H959 N952 0.984 . S
H960 N948 0.984 . S
H961 N948 0.985 . S
C962 C963 1.363 . S
C962 C968 1.379 . S
C962 N970 1.356 . S
C963 C962 1.363 . S
C963 C969 1.363 . S
C964 C965 1.363 . S
C964 C969 1.379 . S
C964 N971 1.356 . S
C965 C964 1.363 . S
C965 C968 1.363 . S
N966 C968 1.356 1_545 S
N966 H978 0.984 . S
N966 H979 0.985 . S
N967 C969 1.356 . S
N967 H972 0.984 . S
N967 H973 0.985 . S
C968 C962 1.379 . S
C968 C965 1.363 . S
C968 N966 1.356 1_565 S
C969 C963 1.363 . S
C969 C964 1.379 . S
C969 N967 1.356 . S
N970 C962 1.356 . S
N970 H976 0.984 1_565 S
N970 H977 0.984 . S
N971 C964 1.356 . S
N971 H974 0.984 . S
N971 H975 0.985 . S
H972 N967 0.984 . S
H973 N967 0.985 . S
H974 N971 0.984 . S
H975 N971 0.985 . S
H976 N970 0.984 1_545 S
H977 N970 0.984 . S
H978 N966 0.984 . S
H979 N966 0.985 . S
C980 C981 1.371 . S
C980 C986 1.376 1_545 S
C980 N988 1.353 1_545 S
C981 C980 1.371 . S
C981 C987 1.363 . S
C982 C983 1.363 . S
C982 C987 1.379 . S
C982 N989 1.356 . S
C983 C982 1.363 . S
C983 C986 1.363 1_545 S
N984 C986 1.356 . S
N984 H996 0.984 . S
N984 H997 0.985 . S
N985 C987 1.356 . S
N985 H990 0.984 . S
N985 H991 0.985 . S
C986 C980 1.376 1_565 S
C986 C983 1.363 1_565 S
C986 N984 1.356 . S
C987 C981 1.363 . S
C987 C982 1.379 . S
C987 N985 1.356 . S
N988 C980 1.353 1_565 S
N988 H994 0.984 . S
N988 H995 0.984 1_565 S
N989 C982 1.356 . S
N989 H992 0.984 . S
N989 H993 0.985 . S
H990 N985 0.984 . S
H991 N985 0.985 . S
H992 N989 0.984 . S
H993 N989 0.985 . S
H994 N988 0.984 . S
H995 N988 0.984 1_545 S
H996 N984 0.984 . S
H997 N984 0.985 . S
C998 C999 1.363 . S
C998 C1004 1.374 1_545 S
C998 N1006 1.356 1_545 S
C999 C998 1.363 . S
C999 C1005 1.363 . S
C1000 C1001 1.363 . S
C1000 C1005 1.379 . S
C1000 N1007 1.356 . S
C1001 C1000 1.363 . S
C1001 C1004 1.352 1_545 S
N1002 C1004 1.371 . S
N1002 H1014 0.984 . S
N1002 H1015 0.985 . S
N1003 C1005 1.356 . S
N1003 H1008 0.984 . S
N1003 H1009 0.985 . S
C1004 C998 1.374 1_565 S
C1004 C1001 1.352 1_565 S
C1004 N1002 1.371 . S
C1005 C999 1.363 . S
C1005 C1000 1.379 . S
C1005 N1003 1.356 . S
N1006 C998 1.356 1_565 S
N1006 H1012 0.984 . S
N1006 H1013 0.984 1_565 S
N1007 C1000 1.356 . S
N1007 H1010 0.984 . S
N1007 H1011 0.985 . S
H1008 N1003 0.984 . S
H1009 N1003 0.985 . S
H1010 N1007 0.984 . S
H1011 N1007 0.985 . S
H1012 N1006 0.984 . S
H1013 N1006 0.984 1_545 S
H1014 N1002 0.984 . S
H1015 N1002 0.985 . S
C1016 C1017 1.363 . S
C1016 C1022 1.379 . S
C1016 N1024 1.356 . S
C1017 C1016 1.363 . S
C1017 C1023 1.363 1_545 S
C1018 C1019 1.363 1_565 S
C1018 C1023 1.379 . S
C1018 N1025 1.356 . S
C1019 C1018 1.363 1_545 S
C1019 C1022 1.363 . S
N1020 C1022 1.356 . S
N1020 H1032 0.984 . S
N1020 H1033 0.985 . S
N1021 C1023 1.356 . S
N1021 H1026 0.984 . S
N1021 H1027 0.985 . S
C1022 C1016 1.379 . S
C1022 C1019 1.363 . S
C1022 N1020 1.356 . S
C1023 C1017 1.363 1_565 S
C1023 C1018 1.379 . S
C1023 N1021 1.356 . S
N1024 C1016 1.356 . S
N1024 H1030 0.984 . S
N1024 H1031 0.984 . S
N1025 C1018 1.356 . S
N1025 H1028 0.984 . S
N1025 H1029 0.985 . S
H1026 N1021 0.984 . S
H1027 N1021 0.985 . S
H1028 N1025 0.984 . S
H1029 N1025 0.985 . S
H1030 N1024 0.984 . S
H1031 N1024 0.984 . S
H1032 N1020 0.984 . S
H1033 N1020 0.985 . S
C1034 C1035 1.363 . S
C1034 C1040 1.379 . S
C1034 N1042 1.354 1_545 S
C1035 C1034 1.363 . S
C1035 C1041 1.363 . S
C1036 C1037 1.363 . S
C1036 C1041 1.379 . S
C1036 N1043 1.356 . S
C1037 C1036 1.363 . S
C1037 C1040 1.363 . S
N1038 C1040 1.356 1_565 S
N1038 H1050 0.984 . S
N1038 H1051 0.985 . S
N1039 C1041 1.356 . S
N1039 H1044 0.984 . S
N1039 H1045 0.985 . S
C1040 C1034 1.379 . S
C1040 C1037 1.363 . S
C1040 N1038 1.356 1_545 S
C1041 C1035 1.363 . S
C1041 C1036 1.379 . S
C1041 N1039 1.356 . S
N1042 C1034 1.354 1_565 S
N1042 H1048 0.989 . S
N1042 H1049 0.982 1_565 S
N1043 C1036 1.356 . S
N1043 H1046 0.984 . S
N1043 H1047 0.985 . S
H1044 N1039 0.984 . S
H1045 N1039 0.985 . S
H1046 N1043 0.984 . S
H1047 N1043 0.985 . S
H1048 N1042 0.989 . S
H1049 N1042 0.982 1_545 S
H1050 N1038 0.984 . S
H1051 N1038 0.985 . S
C1052 C1053 1.363 . S
C1052 C1058 1.379 . S
C1052 N1060 1.356 . S
C1053 C1052 1.363 . S
C1053 C1059 1.363 1_565 S
C1054 C1055 1.363 1_545 S
C1054 C1059 1.379 . S
C1054 N1061 1.356 . S
C1055 C1054 1.363 1_565 S
C1055 C1058 1.363 . S
N1056 C1058 1.356 . S
N1056 H1068 0.984 . S
N1056 H1069 0.985 . S
N1057 C1059 1.356 . S
N1057 H1062 0.984 . S
N1057 H1063 0.985 . S
C1058 C1052 1.379 . S
C1058 C1055 1.363 . S
C1058 N1056 1.356 . S
C1059 C1053 1.363 1_545 S
C1059 C1054 1.379 . S
C1059 N1057 1.356 . S
N1060 C1052 1.356 . S
N1060 H1066 0.984 . S
N1060 H1067 0.984 . S
N1061 C1054 1.356 . S
N1061 H1064 0.984 . S
N1061 H1065 0.985 . S
H1062 N1057 0.984 . S
H1063 N1057 0.985 . S
H1064 N1061 0.984 . S
H1065 N1061 0.985 . S
H1066 N1060 0.984 . S
H1067 N1060 0.984 . S
H1068 N1056 0.984 . S
H1069 N1056 0.985 . S
C1070 C1071 1.363 . S
C1070 C1076 1.379 . S
C1070 N1078 1.356 . S
C1071 C1070 1.363 . S
C1071 C1077 1.363 1_565 S
C1072 C1073 1.363 . S
C1072 C1077 1.379 1_565 S
C1072 N1079 1.356 1_565 S
C1073 C1072 1.363 . S
C1073 C1076 1.363 . S
N1074 C1076 1.356 . S
N1074 H1086 0.984 . S
N1074 H1087 0.985 . S
N1075 C1077 1.356 . S
N1075 H1080 0.984 . S
N1075 H1081 0.985 . S
C1076 C1070 1.379 . S
C1076 C1073 1.363 . S
C1076 N1074 1.356 . S
C1077 C1071 1.363 1_545 S
C1077 C1072 1.379 1_545 S
C1077 N1075 1.356 . S
N1078 C1070 1.356 . S
N1078 H1084 0.984 . S
N1078 H1085 0.984 . S
N1079 C1072 1.356 1_545 S
N1079 H1082 0.984 1_545 S
N1079 H1083 0.985 . S
H1080 N1075 0.984 . S
H1081 N1075 0.985 . S
H1082 N1079 0.984 1_565 S
H1083 N1079 0.985 . S
H1084 N1078 0.984 . S
H1085 N1078 0.984 . S
H1086 N1074 0.984 . S
H1087 N1074 0.985 . S
C1088 C1089 1.363 . S
C1088 C1094 1.379 . S
C1088 N1096 1.356 . S
C1089 C1088 1.363 . S
C1089 C1095 1.363 1_455 S
C1090 C1091 1.363 . S
C1090 C1095 1.379 . S
C1090 N1097 1.356 . S
C1091 C1090 1.363 . S
C1091 C1094 1.363 1_655 S
N1092 C1094 1.356 . S
N1092 H1104 0.984 . S
N1092 H1105 0.985 . S
N1093 C1095 1.356 . S
N1093 H1098 0.984 . S
N1093 H1099 0.985 . S
C1094 C1088 1.379 . S
C1094 C1091 1.363 1_455 S
C1094 N1092 1.356 . S
C1095 C1089 1.363 1_655 S
C1095 C1090 1.379 . S
C1095 N1093 1.356 . S
N1096 C1088 1.356 . S
N1096 H1102 0.984 . S
N1096 H1103 0.984 . S
N1097 C1090 1.356 . S
N1097 H1100 0.984 . S
N1097 H1101 0.985 . S
H1098 N1093 0.984 . S
H1099 N1093 0.985 . S
H1100 N1097 0.984 . S
H1101 N1097 0.985 . S
H1102 N1096 0.984 . S
H1103 N1096 0.984 . S
H1104 N1092 0.984 . S
H1105 N1092 0.985 . S
C1106 C1107 1.363 . S
C1106 C1112 1.379 1_455 S
C1106 N1114 1.356 . S
C1107 C1106 1.363 . S
C1107 C1113 1.363 . S
C1108 C1109 1.363 . S
C1108 C1113 1.379 1_655 S
C1108 N1115 1.356 . S
C1109 C1108 1.363 . S
C1109 C1112 1.363 . S
N1110 C1112 1.356 . S
N1110 H1122 0.984 . S
N1110 H1123 0.985 . S
N1111 C1113 1.356 . S
N1111 H1116 0.984 . S
N1111 H1117 0.985 . S
C1112 C1106 1.379 1_655 S
C1112 C1109 1.363 . S
C1112 N1110 1.356 . S
C1113 C1107 1.363 . S
C1113 C1108 1.379 1_455 S
C1113 N1111 1.356 . S
N1114 C1106 1.356 . S
N1114 H1120 0.984 . S
N1114 H1121 0.984 . S
N1115 C1108 1.356 . S
N1115 H1118 0.984 . S
N1115 H1119 0.985 . S
H1116 N1111 0.984 . S
H1117 N1111 0.985 . S
H1118 N1115 0.984 . S
H1119 N1115 0.985 . S
H1120 N1114 0.984 . S
H1121 N1114 0.984 . S
H1122 N1110 0.984 . S
H1123 N1110 0.985 . S
C1124 C1125 1.363 . S
C1124 C1130 1.379 . S
C1124 N1132 1.356 . S
C1125 C1124 1.363 . S
C1125 C1131 1.363 . S
C1126 C1127 1.363 . S
C1126 C1131 1.379 . S
C1126 N1133 1.356 . S
C1127 C1126 1.363 . S
C1127 C1130 1.363 . S
N1128 C1130 1.356 . S
N1128 H1140 0.984 . S
N1128 H1141 0.985 . S
N1129 C1131 1.356 . S
N1129 H1134 0.984 . S
N1129 H1135 0.985 . S
C1130 C1124 1.379 . S
C1130 C1127 1.363 . S
C1130 N1128 1.356 . S
C1131 C1125 1.363 . S
C1131 C1126 1.379 . S
C1131 N1129 1.356 . S
N1132 C1124 1.356 . S
N1132 H1138 0.984 . S
N1132 H1139 0.984 . S
N1133 C1126 1.356 . S
N1133 H1136 0.984 . S
N1133 H1137 0.985 . S
H1134 N1129 0.984 . S
H1135 N1129 0.985 . S
H1136 N1133 0.984 . S
H1137 N1133 0.985 . S
H1138 N1132 0.984 . S
H1139 N1132 0.984 . S
H1140 N1128 0.984 . S
H1141 N1128 0.985 . S
C1142 C1143 1.363 1_556 S
C1142 C1148 1.379 . S
C1142 N1150 1.356 . S
C1143 C1142 1.363 1_554 S
C1143 C1149 1.363 . S
C1144 C1145 1.363 . S
C1144 C1149 1.379 . S
C1144 N1151 1.356 . S
C1145 C1144 1.363 . S
C1145 C1148 1.363 1_554 S
N1146 C1148 1.356 . S
N1146 H1158 0.984 . S
N1146 H1159 0.985 . S
N1147 C1149 1.356 . S
N1147 H1152 0.984 . S
N1147 H1153 0.985 . S
C1148 C1142 1.379 . S
C1148 C1145 1.363 1_556 S
C1148 N1146 1.356 . S
C1149 C1143 1.363 . S
C1149 C1144 1.379 . S
C1149 N1147 1.356 . S
N1150 C1142 1.356 . S
N1150 H1156 0.984 . S
N1150 H1157 0.984 . S
N1151 C1144 1.356 . S
N1151 H1154 0.984 . S
N1151 H1155 0.985 . S
H1152 N1147 0.984 . S
H1153 N1147 0.985 . S
H1154 N1151 0.984 . S
H1155 N1151 0.985 . S
H1156 N1150 0.984 . S
H1157 N1150 0.984 . S
H1158 N1146 0.984 . S
H1159 N1146 0.985 . S
C1160 C1161 1.363 1_655 S
C1160 C1166 1.379 . S
C1160 N1168 1.356 . S
C1161 C1160 1.363 1_455 S
C1161 C1167 1.363 . S
C1162 C1163 1.363 1_455 S
C1162 C1167 1.379 . S
C1162 N1169 1.356 . S
C1163 C1162 1.363 1_655 S
C1163 C1166 1.363 . S
N1164 C1166 1.356 . S
N1164 H1176 0.984 . S
N1164 H1177 0.985 . S
N1165 C1167 1.356 . S
N1165 H1170 0.984 . S
N1165 H1171 0.985 . S
C1166 C1160 1.379 . S
C1166 C1163 1.363 . S
C1166 N1164 1.356 . S
C1167 C1161 1.363 . S
C1167 C1162 1.379 . S
C1167 N1165 1.356 . S
N1168 C1160 1.356 . S
N1168 H1174 0.984 . S
N1168 H1175 0.984 . S
N1169 C1162 1.356 . S
N1169 H1172 0.984 . S
N1169 H1173 0.985 . S
H1170 N1165 0.984 . S
H1171 N1165 0.985 . S
H1172 N1169 0.984 . S
H1173 N1169 0.985 . S
H1174 N1168 0.984 . S
H1175 N1168 0.984 . S
H1176 N1164 0.984 . S
H1177 N1164 0.985 . S
C1178 C1179 1.363 . S
C1178 C1184 1.379 1_655 S
C1178 N1186 1.356 . S
C1179 C1178 1.363 . S
C1179 C1185 1.363 . S
C1180 C1181 1.363 . S
C1180 C1185 1.379 1_455 S
C1180 N1187 1.356 . S
C1181 C1180 1.363 . S
C1181 C1184 1.363 . S
N1182 C1184 1.356 . S
N1182 H1194 0.984 . S
N1182 H1195 0.985 . S
N1183 C1185 1.356 . S
N1183 H1188 0.984 . S
N1183 H1189 0.985 . S
C1184 C1178 1.379 1_455 S
C1184 C1181 1.363 . S
C1184 N1182 1.356 . S
C1185 C1179 1.363 . S
C1185 C1180 1.379 1_655 S
C1185 N1183 1.356 . S
N1186 C1178 1.356 . S
N1186 H1192 0.984 . S
N1186 H1193 0.984 . S
N1187 C1180 1.356 . S
N1187 H1190 0.984 . S
N1187 H1191 0.985 . S
H1188 N1183 0.984 . S
H1189 N1183 0.985 . S
H1190 N1187 0.984 . S
H1191 N1187 0.985 . S
H1192 N1186 0.984 . S
H1193 N1186 0.984 . S
H1194 N1182 0.984 . S
H1195 N1182 0.985 . S
C1196 C1197 1.363 . S
C1196 C1202 1.379 . S
C1196 N1204 1.356 . S
C1197 C1196 1.363 . S
C1197 C1203 1.363 . S
C1198 C1199 1.363 . S
C1198 C1203 1.379 . S
C1198 N1205 1.356 . S
C1199 C1198 1.363 . S
C1199 C1202 1.363 . S
N1200 C1202 1.356 . S
N1200 H1212 0.984 . S
N1200 H1213 0.985 . S
N1201 C1203 1.356 . S
N1201 H1206 0.984 . S
N1201 H1207 0.985 . S
C1202 C1196 1.379 . S
C1202 C1199 1.363 . S
C1202 N1200 1.356 . S
C1203 C1197 1.363 . S
C1203 C1198 1.379 . S
C1203 N1201 1.356 . S
N1204 C1196 1.356 . S
N1204 H1210 0.984 . S
N1204 H1211 0.984 . S
N1205 C1198 1.356 . S
N1205 H1208 0.984 . S
N1205 H1209 0.985 . S
H1206 N1201 0.984 . S
H1207 N1201 0.985 . S
H1208 N1205 0.984 . S
H1209 N1205 0.985 . S
H1210 N1204 0.984 . S
H1211 N1204 0.984 . S
H1212 N1200 0.984 . S
H1213 N1200 0.985 . S
C1214 C1215 1.363 . S
C1214 C1220 1.379 . S
C1214 N1222 1.356 . S
C1215 C1214 1.363 . S
C1215 C1221 1.363 1_556 S
C1216 C1217 1.363 1_554 S
C1216 C1221 1.379 . S
C1216 N1223 1.356 . S
C1217 C1216 1.363 1_556 S
C1217 C1220 1.363 . S
N1218 C1220 1.356 . S
N1218 H1230 0.984 . S
N1218 H1231 0.985 . S
N1219 C1221 1.356 . S
N1219 H1224 0.984 . S
N1219 H1225 0.985 . S
C1220 C1214 1.379 . S
C1220 C1217 1.363 . S
C1220 N1218 1.356 . S
C1221 C1215 1.363 1_554 S
C1221 C1216 1.379 . S
C1221 N1219 1.356 . S
N1222 C1214 1.356 . S
N1222 H1228 0.984 . S
N1222 H1229 0.984 . S
N1223 C1216 1.356 . S
N1223 H1226 0.984 . S
N1223 H1227 0.985 . S
H1224 N1219 0.984 . S
H1225 N1219 0.985 . S
H1226 N1223 0.984 . S
H1227 N1223 0.985 . S
H1228 N1222 0.984 . S
H1229 N1222 0.984 . S
H1230 N1218 0.984 . S
H1231 N1218 0.985 . S
C369 C17 1.757 . S
C371 C156 1.827 . S
C387 C363 1.820 . S
C389 C40 1.749 . S
C405 C63 1.750 . S
C407 C110 1.821 1_455 S
C423 C317 1.773 . S
C425 C86 1.716 . S
C441 C64 1.827 . S
C443 C109 1.757 . S
C459 C271 1.820 . S
C461 C132 1.749 . S
C477 C155 1.750 . S
C479 C18 1.821 1_655 S
C495 C178 1.716 . S
C497 C225 1.771 . S
C513 C201 1.750 . S
C515 C340 1.821 1_655 S
C531 C224 1.716 . S
C533 C179 1.771 . S
C549 C294 1.827 . S
C551 C247 1.757 . S
C567 C133 1.820 . S
C569 C270 1.749 . S
C585 C248 1.821 1_455 S
C587 C293 1.750 . S
C603 C316 1.716 . S
C605 C87 1.771 . S
C621 C202 1.827 . S
C623 C339 1.757 . S
C639 C41 1.820 . S
C641 C362 1.749 . S
C657 C21 0.804 . S
C659 C297 0.804 . S
C675 C44 0.794 . S
C677 C136 0.794 . S
C693 C67 0.804 . S
C695 C343 0.804 . S
C711 C182 0.808 . S
C713 C90 0.809 . S
C729 C113 0.804 . S
C731 C205 0.804 . S
C747 C251 0.804 . S
C749 C159 0.804 . S
C765 C228 0.808 1_545 S
C767 C320 0.809 1_565 S
C783 C366 0.794 1_545 S
C785 C274 0.794 1_565 S
C801 C19 1.535 . S
C803 C43 1.476 . S
C819 C66 1.506 . S
C821 C42 1.568 . S
C837 C65 1.674 . S
C839 C89 1.626 . S
C855 C88 1.409 . S
C857 C20 1.348 . S
C873 C135 1.476 . S
C875 C111 1.535 . S
C891 C158 1.506 . S
C893 C134 1.568 . S
C909 C181 1.621 . S
C911 C157 1.679 . S
C927 C112 1.353 . S
C929 C180 1.405 . S
C945 C203 1.672 1_565 S
C947 C227 1.626 . S
C963 C226 1.409 . S
C965 C250 1.348 . S
C981 C273 1.476 . S
C983 C249 1.534 1_545 S
C999 C272 1.568 . S
C1001 C204 1.506 . S
C1017 C319 1.621 . S
C1019 C295 1.677 1_545 S
C1035 C318 1.409 . S
C1037 C342 1.348 . S
C1053 C341 1.534 1_565 S
C1055 C365 1.476 . S
C1071 C296 1.506 . S
C1073 C364 1.568 . S
C1089 C16 1.572 . S
C1091 C246 1.572 . S
C1107 C39 1.568 . S
C1109 C269 1.568 . S
C1125 C62 1.577 . S
C1127 C200 1.577 . S
C1143 C223 1.553 . S
C1145 C85 1.553 . S
C1161 C338 1.572 . S
C1163 C108 1.572 . S
C1179 C131 1.568 . S
C1181 C361 1.568 . S
C1197 C154 1.577 . S
C1199 C292 1.577 . S
C1215 C315 1.553 . S
C1217 C177 1.553 . S
