# Generated by pormake.
# Topology snw, (6)-cn, num edge types: 1
# Building blocks:
#     Node 0, Type 0, BuildingBlock: OJICUG_clean_sbu_0, # of connection points: 6
#     Node 1, Type 0, BuildingBlock: OJICUG_clean_sbu_0, # of connection points: 6
#     Node 2, Type 0, BuildingBlock: OJICUG_clean_sbu_0, # of connection points: 6
#     Node 3, Type 0, BuildingBlock: OJICUG_clean_sbu_0, # of connection points: 6
#     Node 4, Type 0, BuildingBlock: OJICUG_clean_sbu_0, # of connection points: 6
#     Node 5, Type 0, BuildingBlock: OJICUG_clean_sbu_0, # of connection points: 6
#     Node 6, Type 0, BuildingBlock: OJICUG_clean_sbu_0, # of connection points: 6
#     Node 7, Type 0, BuildingBlock: OJICUG_clean_sbu_0, # of connection points: 6
#     Edge 8, Type (0, 0), BuildingBlock: TEMPAE_clean_linker_10, # of connection points: 2
#     Edge 9, Type (0, 0), BuildingBlock: TEMPAE_clean_linker_10, # of connection points: 2
#     Edge 10, Type (0, 0), BuildingBlock: TEMPAE_clean_linker_10, # of connection points: 2
#     Edge 11, Type (0, 0), BuildingBlock: TEMPAE_clean_linker_10, # of connection points: 2
#     Edge 12, Type (0, 0), BuildingBlock: TEMPAE_clean_linker_10, # of connection points: 2
#     Edge 13, Type (0, 0), BuildingBlock: TEMPAE_clean_linker_10, # of connection points: 2
#     Edge 14, Type (0, 0), BuildingBlock: TEMPAE_clean_linker_10, # of connection points: 2
#     Edge 15, Type (0, 0), BuildingBlock: TEMPAE_clean_linker_10, # of connection points: 2
#     Edge 16, Type (0, 0), BuildingBlock: TEMPAE_clean_linker_10, # of connection points: 2
#     Edge 17, Type (0, 0), BuildingBlock: TEMPAE_clean_linker_10, # of connection points: 2
#     Edge 18, Type (0, 0), BuildingBlock: TEMPAE_clean_linker_10, # of connection points: 2
#     Edge 19, Type (0, 0), BuildingBlock: TEMPAE_clean_linker_10, # of connection points: 2
#     Edge 20, Type (0, 0), BuildingBlock: TEMPAE_clean_linker_10, # of connection points: 2
#     Edge 21, Type (0, 0), BuildingBlock: TEMPAE_clean_linker_10, # of connection points: 2
#     Edge 22, Type (0, 0), BuildingBlock: TEMPAE_clean_linker_10, # of connection points: 2
#     Edge 23, Type (0, 0), BuildingBlock: TEMPAE_clean_linker_10, # of connection points: 2
#     Edge 24, Type (0, 0), BuildingBlock: TEMPAE_clean_linker_10, # of connection points: 2
#     Edge 25, Type (0, 0), BuildingBlock: TEMPAE_clean_linker_10, # of connection points: 2
#     Edge 26, Type (0, 0), BuildingBlock: TEMPAE_clean_linker_10, # of connection points: 2
#     Edge 27, Type (0, 0), BuildingBlock: TEMPAE_clean_linker_10, # of connection points: 2
#     Edge 28, Type (0, 0), BuildingBlock: TEMPAE_clean_linker_10, # of connection points: 2
#     Edge 29, Type (0, 0), BuildingBlock: TEMPAE_clean_linker_10, # of connection points: 2
#     Edge 30, Type (0, 0), BuildingBlock: TEMPAE_clean_linker_10, # of connection points: 2
#     Edge 31, Type (0, 0), BuildingBlock: TEMPAE_clean_linker_10, # of connection points: 2
# Relax obj value: 0.000
# Max RMSD: 0.008
# Mean RMSD: 0.008
data_MOF--net-snw--node1-OJICUG_clean_sbu_0--edge1-TEMPAE_clean_linker_10
_symmetry_space_group_name_H-M    P1
_symmetry_Int_Tables_number       1
_symmetry_cell_setting            triclinic
loop_
_symmetry_equiv_pos_as_xyz
'x, y, z'
_cell_length_a     22.038854
_cell_length_b     22.061265
_cell_length_c     75.051066
_cell_angle_alpha  89.975214
_cell_angle_beta   89.951791
_cell_angle_gamma 90.162388
loop_
_atom_site_label
_atom_site_type_symbol
_atom_site_fract_x
_atom_site_fract_y
_atom_site_fract_z
_atom_type_partial_charge
Sc0 Sc 0.07736 0.234 0.06887 0.0
Sc1 Sc 0.91881 0.2494 0.0658 0.0
Sc2 Sc 0.98774 0.23141 0.10786 0.0
O3 O -0.00536 0.23825 0.08086 0.0
C4 C 0.09092 0.13475 0.09944 0.0
C5 C -0.00394 0.15773 0.04204 0.0
C6 C 0.87464 0.15269 0.09469 0.0
C7 C 0.01196 0.33716 0.04631 0.0
C8 C 0.10573 0.3144 0.1032 0.0
C9 C 0.88983 0.33309 0.09922 0.0
O10 O 0.10605 0.15854 0.08469 0.0
O11 O 0.94649 0.18312 0.04638 0.0
O12 O 0.91471 0.16687 0.10614 0.0
O13 O 0.05919 0.30918 0.05137 0.0
O14 O 0.06073 0.29528 0.11228 0.0
O15 O 0.88321 0.31795 0.08305 0.0
O16 O 0.11676 0.29665 0.08742 0.0
O17 O 0.95861 0.32148 0.05071 0.0
O18 O 0.92495 0.30578 0.10994 0.0
O19 O 0.04659 0.17026 0.04928 0.0
O20 O 0.04889 0.1557 0.10923 0.0
O21 O 0.87022 0.17866 0.07961 0.0
Sc22 Sc 0.00517 0.83129 0.31549 0.0
Sc23 Sc -0.00506 0.67205 0.31554 0.0
Sc24 Sc 0.98228 0.75249 0.35584 0.0
O25 O -0.00587 0.75194 0.32895 0.0
C26 C 0.08345 0.8543 0.35022 0.0
C27 C 0.09805 0.74465 0.29522 0.0
C28 C 0.06899 0.63865 0.35078 0.0
C29 C 0.92006 0.75809 0.28929 0.0
C30 C 0.90331 0.86589 0.34424 0.0
C31 C 0.8897 0.64905 0.34352 0.0
O32 O 0.07396 0.86138 0.33367 0.0
O33 O 0.0758 0.69534 0.30104 0.0
O34 O 0.04991 0.68317 0.35997 0.0
O35 O 0.93872 0.8079 0.29579 0.0
O36 O 0.91362 0.82114 0.35444 0.0
O37 O 0.91465 0.63969 0.32853 0.0
O38 O 0.93452 0.87665 0.33032 0.0
O39 O 0.93739 0.70646 0.29477 0.0
O40 O 0.91019 0.68666 0.35484 0.0
O41 O 0.07603 0.79635 0.29879 0.0
O42 O 0.05211 0.81944 0.36009 0.0
O43 O 0.05168 0.62857 0.33491 0.0
Sc44 Sc 0.57563 0.74657 0.56763 0.0
Sc45 Sc 0.41747 0.75807 0.56433 0.0
Sc46 Sc 0.48734 0.75393 0.60627 0.0
O47 O 0.49347 0.75295 0.57934 0.0
C48 C 0.59458 0.65968 0.60009 0.0
C49 C 0.49364 0.66216 0.54272 0.0
C50 C 0.37988 0.66741 0.59593 0.0
C51 C 0.51076 0.83991 0.54223 0.0
C52 C 0.59909 0.8393 0.59991 0.0
C53 C 0.38297 0.84681 0.59521 0.0
O54 O 0.60028 0.66995 0.58356 0.0
O55 O 0.44296 0.682 0.54824 0.0
O56 O 0.42529 0.679 0.60583 0.0
O57 O 0.55812 0.82213 0.5503 0.0
O58 O 0.54945 0.82885 0.60804 0.0
O59 O 0.38504 0.83586 0.57863 0.0
O60 O 0.61596 0.80945 0.58625 0.0
O61 O 0.45809 0.81871 0.5453 0.0
O62 O 0.41286 0.81698 0.60669 0.0
O63 O 0.54451 0.68293 0.54789 0.0
O64 O 0.56059 0.6907 0.61022 0.0
O65 O 0.36863 0.69639 0.58162 0.0
Sc66 Sc 0.49741 0.31565 0.81846 0.0
Sc67 Sc 0.49279 0.15668 0.81494 0.0
Sc68 Sc 0.4842 0.22634 0.8572 0.0
O69 O 0.4915 0.2329 0.8302 0.0
C70 C 0.58134 0.33231 0.85282 0.0
C71 C 0.5898 0.23935 0.79497 0.0
C72 C 0.57257 0.11594 0.84801 0.0
C73 C 0.41072 0.24434 0.79165 0.0
C74 C 0.40148 0.34201 0.84909 0.0
C75 C 0.39167 0.12499 0.84416 0.0
O76 O 0.56219 0.34741 0.83749 0.0
O77 O 0.56484 0.18869 0.79824 0.0
O78 O 0.54701 0.15176 0.85892 0.0
O79 O 0.43237 0.29281 0.79823 0.0
O80 O 0.41961 0.29921 0.85907 0.0
O81 O 0.41958 0.11543 0.8296 0.0
O82 O 0.42403 0.35243 0.83382 0.0
O83 O 0.42693 0.19165 0.79654 0.0
O84 O 0.40827 0.16509 0.85532 0.0
O85 O 0.5722 0.28904 0.80174 0.0
O86 O 0.55953 0.28785 0.86159 0.0
O87 O 0.56015 0.1143 0.83149 0.0
Sc88 Sc 0.98484 0.72587 0.8862 0.0
Sc89 Sc 0.07144 0.74387 0.9252 0.0
Sc90 Sc 0.91315 0.73464 0.92786 0.0
O91 O 0.98988 0.73488 0.91305 0.0
C92 C 0.8736 0.81415 0.895 0.0
C93 C 0.08998 0.82284 0.88983 0.0
C94 C 0.99347 0.83477 0.94775 0.0
C95 C 0.10043 0.64456 0.89608 0.0
C96 C 0.88324 0.63383 0.89855 0.0
C97 C -0.00045 0.65658 0.95189 0.0
O98 O 0.90764 0.78591 0.88411 0.0
O99 O 0.10614 0.80305 0.90498 0.0
O100 O 0.94519 0.80403 0.94566 0.0
O101 O 0.06049 0.66405 0.88527 0.0
O102 O 0.87053 0.66438 0.91239 0.0
O103 O 0.0468 0.6854 0.94705 0.0
O104 O 0.92665 0.64771 0.88816 0.0
O105 O 0.10787 0.66635 0.91161 0.0
O106 O 0.94757 0.66498 0.94503 0.0
O107 O 0.04356 0.803 0.88159 0.0
O108 O 0.87352 0.80458 0.9117 0.0
O109 O 0.04278 0.82264 0.93976 0.0
Sc110 Sc 0.48395 0.735 0.13515 0.0
Sc111 Sc 0.49308 0.81938 0.17496 0.0
Sc112 Sc 0.5095 0.66084 0.1759 0.0
O113 O 0.49555 0.73845 0.16201 0.0
C114 C 0.40835 0.62025 0.14771 0.0
C115 C 0.38747 0.83566 0.14681 0.0
C116 C 0.42279 0.73236 0.20205 0.0
C117 C 0.56604 0.85244 0.13931 0.0
C118 C 0.58832 0.63723 0.14142 0.0
C119 C 0.59988 0.7536 0.19514 0.0
O120 O 0.41709 0.66458 0.1372 0.0
O121 O 0.41097 0.84609 0.16195 0.0
O122 O 0.44141 0.68305 0.19529 0.0
O123 O 0.54972 0.80573 0.1306 0.0
O124 O 0.57915 0.6317 0.15801 0.0
O125 O 0.57452 0.80145 0.18952 0.0
O126 O 0.55564 0.6697 0.13127 0.0
O127 O 0.54722 0.86391 0.15497 0.0
O128 O 0.58046 0.70055 0.19179 0.0
O129 O 0.41026 0.79897 0.13562 0.0
O130 O 0.44028 0.61142 0.16158 0.0
O131 O 0.43927 0.78436 0.19657 0.0
Sc132 Sc 0.48491 0.25468 0.38432 0.0
Sc133 Sc 0.57528 0.2561 0.42299 0.0
Sc134 Sc 0.41644 0.24525 0.4267 0.0
O135 O 0.49225 0.25197 0.41134 0.0
C136 C 0.37405 0.33689 0.39604 0.0
C137 C 0.59165 0.34967 0.39122 0.0
C138 C 0.4951 0.33993 0.44848 0.0
C139 C 0.59988 0.16936 0.38959 0.0
C140 C 0.38461 0.15631 0.39504 0.0
C141 C 0.50882 0.16141 0.4481 0.0
O142 O 0.41657 0.32385 0.38527 0.0
O143 O 0.60431 0.33024 0.40669 0.0
O144 O 0.44425 0.31806 0.44374 0.0
O145 O 0.55344 0.18581 0.38075 0.0
O146 O 0.38205 0.17059 0.4114 0.0
O147 O 0.55648 0.1819 0.44072 0.0
O148 O 0.41694 0.18441 0.38368 0.0
O149 O 0.61352 0.19178 0.40468 0.0
O150 O 0.45601 0.18087 0.44463 0.0
O151 O 0.5509 0.32607 0.38148 0.0
O152 O 0.36683 0.31009 0.41089 0.0
O153 O 0.54574 0.32166 0.44241 0.0
Sc154 Sc 0.98809 0.25362 0.6349 0.0
Sc155 Sc 0.99252 0.33327 0.67528 0.0
Sc156 Sc -0.00105 0.17455 0.67538 0.0
O157 O 0.99317 0.25381 0.66189 0.0
C158 C 0.90175 0.14486 0.64477 0.0
C159 C 0.89782 0.36098 0.6452 0.0
C160 C 0.91078 0.24851 0.70023 0.0
C161 C 0.0769 0.36295 0.64151 0.0
C162 C 0.08186 0.14647 0.6423 0.0
C163 C 0.08896 0.25969 0.69744 0.0
O164 O 0.913 0.19145 0.63533 0.0
O165 O 0.91334 0.36418 0.66144 0.0
O166 O 0.92726 0.19856 0.69338 0.0
O167 O 0.0627 0.31601 0.63259 0.0
O168 O 0.07251 0.14364 0.65897 0.0
O169 O 0.07146 0.30937 0.69061 0.0
O170 O 0.05124 0.17988 0.63189 0.0
O171 O 0.05203 0.3764 0.6563 0.0
O172 O 0.06481 0.20878 0.69389 0.0
O173 O 0.92425 0.32736 0.63389 0.0
O174 O 0.93234 0.13113 0.65858 0.0
O175 O 0.93244 0.2996 0.69562 0.0
C176 C 0.97892 0.43811 0.03554 0.0
C177 C 0.01851 0.38883 0.03413 0.0
C178 C 0.98014 0.4849 0.02295 0.0
C179 C 0.02068 0.4811 0.00837 0.0
C180 C 0.06209 0.43231 0.00719 0.0
C181 C 0.06106 0.38698 0.02028 0.0
C182 C 0.93657 0.53721 0.02492 0.0
C183 C 0.10511 0.42625 0.99163 0.0
C184 C 0.96872 0.55972 0.96629 0.0
C185 C 0.00553 0.61152 0.96622 0.0
C186 C 0.97428 0.51619 0.97976 0.0
C187 C 0.01647 0.52574 0.9937 0.0
C188 C 0.05342 0.57826 0.99378 0.0
C189 C 0.04806 0.62025 0.97986 0.0
C190 C 0.93503 0.45998 0.97907 0.0
C191 C 0.09771 0.59057 0.0087 0.0
H192 H 0.94645 0.43964 0.0464 0.0
H193 H 0.09134 0.34851 0.01918 0.0
H194 H 0.961 0.58099 0.02348 0.0
H195 H 0.90192 0.53509 0.01423 0.0
H196 H 0.91291 0.53668 0.038 0.0
H197 H 0.13698 0.38773 0.9933 0.0
H198 H 0.07872 0.41908 0.97921 0.0
H199 H 0.13183 0.46848 0.98986 0.0
H200 H 0.93623 0.55278 0.95563 0.0
H201 H 0.07619 0.66065 0.97986 0.0
H202 H 0.90457 0.45857 0.99083 0.0
H203 H 0.96386 0.41885 0.97957 0.0
H204 H 0.90675 0.45808 0.96683 0.0
H205 H 0.07303 0.59304 0.02157 0.0
H206 H 0.12315 0.63361 0.00673 0.0
H207 H 0.13071 0.5529 0.00978 0.0
C208 C 0.7016 0.72094 0.20563 0.0
C209 C 0.65189 0.7599 0.20716 0.0
C210 C 0.74938 0.72378 0.21791 0.0
C211 C 0.74574 0.76487 0.23235 0.0
C212 C 0.69601 0.80506 0.23373 0.0
C213 C 0.65005 0.80275 0.22089 0.0
C214 C 0.80281 0.68175 0.2157 0.0
C215 C 0.68974 0.84822 0.24924 0.0
C216 C 0.82681 0.71974 0.27469 0.0
C217 C 0.87591 0.76002 0.27471 0.0
C218 C 0.78373 0.72131 0.26101 0.0
C219 C 0.79144 0.76273 0.24677 0.0
C220 C 0.84184 0.80261 0.24654 0.0
C221 C 0.88306 0.80153 0.26075 0.0
C222 C 0.72953 0.67934 0.26196 0.0
C223 C 0.85242 0.84591 0.23126 0.0
H224 H 0.70294 0.6882 0.19486 0.0
H225 H 0.61112 0.83245 0.22208 0.0
H226 H 0.84599 0.70745 0.21686 0.0
H227 H 0.8024 0.64725 0.22646 0.0
H228 H 0.8021 0.65794 0.20266 0.0
H229 H 0.6494 0.87798 0.24795 0.0
H230 H 0.68565 0.82203 0.26182 0.0
H231 H 0.73075 0.87716 0.25041 0.0
H232 H 0.82139 0.68795 0.28561 0.0
H233 H 0.92164 0.83215 0.26077 0.0
H234 H 0.72916 0.64862 0.25027 0.0
H235 H 0.68699 0.70611 0.26154 0.0
H236 H 0.72939 0.65131 0.27427 0.0
H237 H 0.8539 0.82051 0.2185 0.0
H238 H 0.89541 0.87184 0.23274 0.0
H239 H 0.81434 0.87849 0.23032 0.0
C240 C 0.45205 0.61645 0.5151 0.0
C241 C 0.49355 0.61422 0.52918 0.0
C242 C 0.45316 0.57268 0.50159 0.0
C243 C 0.49543 0.52463 0.50262 0.0
C244 C 0.5367 0.5216 0.51704 0.0
C245 C 0.53596 0.56721 0.53003 0.0
C246 C 0.40968 0.57826 0.48613 0.0
C247 C 0.5811 0.46995 0.51884 0.0
C248 C 0.45583 0.38283 0.47674 0.0
C249 C 0.49532 0.38735 0.46218 0.0
C250 C 0.45633 0.42665 0.49022 0.0
C251 C 0.49584 0.47707 0.48871 0.0
C252 C 0.5352 0.48228 0.47386 0.0
C253 C 0.53522 0.43661 0.46088 0.0
C254 C 0.41507 0.41871 0.50614 0.0
C255 C 0.57658 0.53641 0.47158 0.0
H256 H 0.4198 0.65342 0.5144 0.0
H257 H 0.56781 0.5656 0.54102 0.0
H258 H 0.43529 0.57914 0.4734 0.0
H259 H 0.37909 0.5383 0.48571 0.0
H260 H 0.3815 0.61984 0.48698 0.0
H261 H 0.60876 0.47339 0.53117 0.0
H262 H 0.5563 0.4261 0.519 0.0
H263 H 0.61214 0.46916 0.5072 0.0
H264 H 0.42551 0.34418 0.47778 0.0
H265 H 0.56545 0.44001 0.44952 0.0
H266 H 0.3824 0.45677 0.50685 0.0
H267 H 0.44215 0.41959 0.5186 0.0
H268 H 0.38913 0.3755 0.50563 0.0
H269 H 0.54947 0.57872 0.47159 0.0
H270 H 0.6031 0.53432 0.459 0.0
H271 H 0.60871 0.53928 0.48291 0.0
C272 C 0.6347 0.20426 0.76655 0.0
C273 C 0.63901 0.24064 0.78178 0.0
C274 C 0.67955 0.20625 0.75336 0.0
C275 C 0.73081 0.24407 0.75581 0.0
C276 C 0.73607 0.27994 0.77138 0.0
C277 C 0.68936 0.27862 0.78409 0.0
C278 C 0.67151 0.16877 0.73668 0.0
C279 C 0.79106 0.31937 0.77464 0.0
C280 C 0.8677 0.2033 0.72781 0.0
C281 C 0.86501 0.24742 0.71443 0.0
C282 C 0.82541 0.20296 0.74176 0.0
C283 C 0.77835 0.24649 0.74188 0.0
C284 C 0.77519 0.29079 0.72826 0.0
C285 C 0.81935 0.29134 0.71483 0.0
C286 C 0.83111 0.15618 0.75635 0.0
C287 C 0.7245 0.33668 0.72765 0.0
H288 H 0.59525 0.17544 0.76472 0.0
H289 H 0.6926 0.30643 0.79596 0.0
H290 H 0.67258 0.19863 0.72478 0.0
H291 H 0.70943 0.13616 0.73533 0.0
H292 H 0.62811 0.14303 0.73667 0.0
H293 H 0.78945 0.34214 0.78783 0.0
H294 H 0.8329 0.2916 0.77391 0.0
H295 H 0.79451 0.35458 0.76414 0.0
H296 H 0.90369 0.16988 0.72755 0.0
H297 H 0.8174 0.32526 0.70438 0.0
H298 H 0.7911 0.12558 0.7562 0.0
H299 H 0.83204 0.17877 0.76956 0.0
H300 H 0.87271 0.12827 0.75492 0.0
H301 H 0.6801 0.31296 0.72694 0.0
H302 H 0.72845 0.36771 0.71604 0.0
H303 H 0.72441 0.36419 0.74001 0.0
C304 C 0.36616 0.20921 0.76305 0.0
C305 C 0.36534 0.24962 0.77742 0.0
C306 C 0.32363 0.21408 0.74927 0.0
C307 C 0.27819 0.25917 0.75028 0.0
C308 C 0.27726 0.30016 0.76478 0.0
C309 C 0.32159 0.29547 0.77807 0.0
C310 C 0.32692 0.17062 0.73376 0.0
C311 C 0.22837 0.34762 0.76654 0.0
C312 C 0.18771 0.29909 0.70892 0.0
C313 C 0.13733 0.26088 0.71087 0.0
C314 C 0.2345 0.29874 0.72159 0.0
C315 C 0.22935 0.26078 0.73675 0.0
C316 C 0.17769 0.22332 0.73895 0.0
C317 C 0.13272 0.22315 0.72582 0.0
C318 C 0.28983 0.33796 0.71861 0.0
C319 C 0.16981 0.18352 0.75518 0.0
H320 H 0.40067 0.17431 0.76247 0.0
H321 H 0.32103 0.32655 0.78926 0.0
H322 H 0.2864 0.14068 0.73376 0.0
H323 H 0.32683 0.19604 0.721 0.0
H324 H 0.36812 0.14177 0.73425 0.0
H325 H 0.23503 0.37689 0.77842 0.0
H326 H 0.22738 0.37677 0.7545 0.0
H327 H 0.18335 0.32522 0.76759 0.0
H328 H 0.19116 0.328 0.69727 0.0
H329 H 0.09323 0.19418 0.72739 0.0
H330 H 0.33103 0.30919 0.71811 0.0
H331 H 0.29566 0.36991 0.72989 0.0
H332 H 0.28697 0.36446 0.70605 0.0
H333 H 0.20639 0.14915 0.75566 0.0
H334 H 0.12537 0.15961 0.75528 0.0
H335 H 0.17346 0.21121 0.76748 0.0
C336 C 0.33135 0.68817 0.2165 0.0
C337 C 0.37966 0.72942 0.21693 0.0
C338 C 0.28732 0.68815 0.22999 0.0
C339 C 0.29326 0.72899 0.24444 0.0
C340 C 0.34376 0.76862 0.24533 0.0
C341 C 0.38588 0.76913 0.23135 0.0
C342 C 0.23313 0.64649 0.22834 0.0
C343 C 0.35254 0.81141 0.26083 0.0
C344 C 0.15103 0.78073 0.26808 0.0
C345 C 0.14941 0.74169 0.28278 0.0
C346 C 0.19741 0.77655 0.25541 0.0
C347 C 0.24425 0.73361 0.25787 0.0
C348 C 0.24374 0.69513 0.27297 0.0
C349 C 0.19552 0.69889 0.28513 0.0
C350 C 0.19557 0.81725 0.23922 0.0
C351 C 0.29407 0.65024 0.27628 0.0
H352 H 0.32667 0.65771 0.20525 0.0
H353 H 0.42387 0.80046 0.23171 0.0
H354 H 0.22826 0.61836 0.2405 0.0
H355 H 0.19117 0.67386 0.22706 0.0
H356 H 0.23653 0.61598 0.21661 0.0
H357 H 0.3975 0.83427 0.26045 0.0
H358 H 0.31677 0.84667 0.26063 0.0
H359 H 0.34818 0.78653 0.27362 0.0
H360 H 0.11484 0.81332 0.2662 0.0
H361 H 0.19421 0.66898 0.2966 0.0
H362 H 0.19568 0.78939 0.22691 0.0
H363 H 0.23659 0.84646 0.23883 0.0
H364 H 0.15485 0.84682 0.23907 0.0
H365 H 0.29557 0.61651 0.26534 0.0
H366 H 0.28833 0.62575 0.28911 0.0
H367 H 0.33852 0.67401 0.2764 0.0
C368 C 0.47593 0.11547 0.47667 0.0
C369 C 0.51493 0.1147 0.46194 0.0
C370 C 0.48054 0.07162 0.49005 0.0
C371 C 0.52406 0.02495 0.48836 0.0
C372 C 0.56392 0.02415 0.47355 0.0
C373 C 0.55943 0.06975 0.46059 0.0
C374 C 0.4382 0.07474 0.50587 0.0
C375 C 0.60982 0.97415 0.47113 0.0
C376 C 0.55865 0.9335 0.52988 0.0
C377 C 0.517 0.88583 0.52816 0.0
C378 C 0.56242 0.97889 0.51683 0.0
C379 C 0.52484 0.97513 0.50157 0.0
C380 C 0.48458 0.9256 0.49947 0.0
C381 C 0.48052 0.88196 0.51294 0.0
C382 C 0.60476 0.03192 0.51968 0.0
C383 C 0.44486 0.91932 0.48317 0.0
H384 H 0.44214 0.1509 0.47782 0.0
H385 H 0.58948 0.06927 0.44914 0.0
H386 H 0.40706 0.03516 0.50576 0.0
H387 H 0.46447 0.0728 0.51847 0.0
H388 H 0.4105 0.11674 0.50588 0.0
H389 H 0.63911 0.98156 0.45927 0.0
H390 H 0.63911 0.9705 0.48309 0.0
H391 H 0.58593 0.93011 0.46959 0.0
H392 H 0.58674 0.93636 0.54171 0.0
H393 H 0.44897 0.84446 0.51152 0.0
H394 H 0.57794 0.07418 0.52102 0.0
H395 H 0.63505 0.03775 0.50799 0.0
H396 H 0.63314 0.02641 0.53179 0.0
H397 H 0.41099 0.95642 0.48291 0.0
H398 H 0.42023 0.87533 0.48286 0.0
H399 H 0.47264 0.92335 0.47089 0.0
C400 C 0.95347 0.11629 0.01379 0.0
C401 C -0.00476 0.11192 0.02779 0.0
C402 C 0.95331 0.07372 -7e-05 0.0
C403 C -0.00516 0.02493 0.00041 0.0
C404 C 0.0368 0.02009 0.01459 0.0
C405 C 0.03701 0.06417 0.02802 0.0
C406 C 0.90884 0.08094 0.98478 0.0
C407 C 0.08073 0.9678 0.01577 0.0
C408 C 0.95359 0.88171 0.97546 0.0
C409 C 0.99259 0.88482 0.96073 0.0
C410 C 0.95384 0.92714 0.98847 0.0
C411 C 0.99301 0.97757 0.98643 0.0
C412 C 0.03142 0.9818 0.97134 0.0
C413 C 0.03135 0.93481 0.95875 0.0
C414 C 0.91327 0.92043 0.00459 0.0
C415 C 0.07271 0.03571 0.96857 0.0
H416 H 0.92162 0.15365 0.01351 0.0
H417 H 0.0691 0.06062 0.03891 0.0
H418 H 0.93341 0.08158 0.97187 0.0
H419 H 0.87723 0.04174 0.98447 0.0
H420 H 0.88179 0.12317 0.98594 0.0
H421 H 0.11027 0.97068 0.02773 0.0
H422 H 0.05532 0.92433 0.01623 0.0
H423 H 0.10996 0.96665 0.00374 0.0
H424 H 0.92399 0.84275 0.9771 0.0
H425 H 0.06121 0.93741 0.94729 0.0
H426 H 0.88225 0.95978 0.00561 0.0
H427 H 0.94123 0.91977 0.01688 0.0
H428 H 0.88557 0.87831 0.00414 0.0
H429 H 0.04601 0.07826 0.96903 0.0
H430 H 0.0972 0.03364 0.95564 0.0
H431 H 0.10662 0.03804 0.97946 0.0
C432 C 0.29601 0.85081 0.12765 0.0
C433 C 0.33357 0.87087 0.14153 0.0
C434 C 0.24867 0.88723 0.1213 0.0
C435 C 0.23984 0.94541 0.12877 0.0
C436 C 0.27568 0.96459 0.14336 0.0
C437 C 0.32178 0.92679 0.14968 0.0
C438 C 0.2102 0.86471 0.10603 0.0
C439 C 0.26809 0.02668 0.15154 0.0
C440 C 0.18492 0.07259 0.09929 0.0
C441 C 0.12631 0.08249 0.10592 0.0
C442 C 0.2216 0.02682 0.1063 0.0
C443 C 0.19867 0.98927 0.12005 0.0
C444 C 0.13851 -0.00301 0.12622 0.0
C445 C 0.10314 0.04408 0.1192 0.0
C446 C 0.28588 0.02047 0.09952 0.0
C447 C 0.11222 0.95674 0.14056 0.0
H448 H 0.30437 0.80716 0.1215 0.0
H449 H 0.35063 0.94253 0.16043 0.0
H450 H 0.16146 0.87358 0.10864 0.0
H451 H 0.22271 0.88944 0.09368 0.0
H452 H 0.21639 0.81542 0.10363 0.0
H453 H 0.2963 0.03273 0.16368 0.0
H454 H 0.28131 0.06185 0.14168 0.0
H455 H 0.21994 0.03465 0.1551 0.0
H456 H 0.20318 0.10219 0.08906 0.0
H457 H 0.05756 0.05114 0.12422 0.0
H458 H 0.29403 0.97347 0.09489 0.0
H459 H 0.31831 0.0297 0.1105 0.0
H460 H 0.29598 0.05205 0.08837 0.0
H461 H 0.12047 0.90835 0.13738 0.0
H462 H 0.06265 0.96374 0.14228 0.0
H463 H 0.13494 0.96639 0.15344 0.0
C464 C 0.19017 0.88979 0.35131 0.0
C465 C 0.13154 0.89054 0.35843 0.0
C466 C 0.23546 0.9278 0.35819 0.0
C467 C 0.22058 0.96908 0.37194 0.0
C468 C 0.16146 0.96908 0.37937 0.0
C469 C 0.1178 0.9288 0.3727 0.0
C470 C 0.2986 0.92503 0.35042 0.0
C471 C 0.14338 0.01379 0.39364 0.0
C472 C 0.3412 0.0527 0.39832 0.0
C473 C 0.34546 0.10699 0.38874 0.0
C474 C 0.30221 0.00622 0.39265 0.0
C475 C 0.26513 0.01571 0.37752 0.0
C476 C 0.26926 0.07075 0.36787 0.0
C477 C 0.31035 0.11535 0.37343 0.0
C478 C 0.30054 0.94721 0.40284 0.0
C479 C 0.22906 0.08327 0.352 0.0
H480 H 0.20043 0.85961 0.34031 0.0
H481 H 0.07203 0.92933 0.37802 0.0
H482 H 0.30792 0.96682 0.34265 0.0
H483 H 0.33286 0.92263 0.36122 0.0
H484 H 0.30457 0.88535 0.34148 0.0
H485 H 0.09625 0.00625 0.39844 0.0
H486 H 0.17464 0.01074 0.40517 0.0
H487 H 0.14687 0.06061 0.3883 0.0
H488 H 0.36885 0.04645 0.41012 0.0
H489 H 0.31345 0.15781 0.36619 0.0
H490 H 0.30805 0.90864 0.39361 0.0
H491 H 0.25521 0.94072 0.40898 0.0
H492 H 0.33535 0.94558 0.41353 0.0
H493 H 0.23721 0.04912 0.34144 0.0
H494 H 0.23694 0.12909 0.34628 0.0
H495 H 0.18067 0.07951 0.35596 0.0
C496 C 0.18525 0.10152 0.64285 0.0
C497 C 0.12875 0.10735 0.63455 0.0
C498 C 0.22964 0.06294 0.63579 0.0
C499 C 0.21596 0.02778 0.62052 0.0
C500 C 0.15888 0.0338 0.61207 0.0
C501 C 0.11628 0.07448 0.61902 0.0
C502 C 0.29076 0.05918 0.64479 0.0
C503 C 0.14186 -0.00447 0.59615 0.0
C504 C 0.34043 0.95119 0.59381 0.0
C505 C 0.34123 0.89364 0.60164 0.0
C506 C 0.30087 -0.0039 0.60012 0.0
C507 C 0.25981 0.98189 0.61405 0.0
C508 C 0.25992 0.92328 0.62175 0.0
C509 C 0.30155 0.88018 0.61566 0.0
C510 C 0.30337 0.05873 0.59204 0.0
C511 C 0.21541 0.90575 0.63619 0.0
H512 H 0.19482 0.12755 0.65478 0.0
H513 H 0.07223 0.07886 0.61273 0.0
H514 H 0.2966 0.01371 0.65084 0.0
H515 H 0.32758 0.06528 0.63485 0.0
H516 H 0.29616 0.09385 0.65541 0.0
H517 H 0.09596 0.00651 0.59098 0.0
H518 H 0.17528 0.00203 0.58526 0.0
H519 H 0.14281 0.94686 0.59988 0.0
H520 H 0.37161 0.96135 0.58302 0.0
H521 H 0.30205 0.83526 0.62154 0.0
H522 H 0.31127 0.09293 0.60264 0.0
H523 H 0.25934 0.0697 0.58569 0.0
H524 H 0.33981 0.06308 0.58188 0.0
H525 H 0.22242 0.93459 0.64811 0.0
H526 H 0.21994 0.85751 0.64022 0.0
H527 H 0.16829 0.91343 0.63151 0.0
C528 C 0.10617 0.90849 0.86823 0.0
C529 C 0.12864 0.86979 0.88149 0.0
C530 C 0.14325 0.95385 0.86076 0.0
C531 C 0.20418 0.95965 0.86652 0.0
C532 C 0.22715 0.92012 0.87971 0.0
C533 C 0.18905 0.87603 0.88709 0.0
C534 C 0.11725 -0.00418 0.84685 0.0
C535 C 0.29215 0.92421 0.88603 0.0
C536 C 0.32848 0.03228 0.83907 0.0
C537 C 0.3388 0.0862 0.84854 0.0
C538 C 0.28217 0.99214 0.84412 0.0
C539 C 0.24492 0.00657 0.85887 0.0
C540 C 0.2526 0.06259 0.86778 0.0
C541 C 0.29973 0.10161 0.86258 0.0
C542 C 0.27575 0.93256 0.83439 0.0
C543 C 0.21318 0.07985 0.88344 0.0
H544 H 0.05944 0.90399 0.86393 0.0
H545 H 0.207 0.84586 0.89719 0.0
H546 H 0.12047 0.04343 0.85152 0.0
H547 H 0.14396 0.99261 0.83436 0.0
H548 H 0.06902 0.98533 0.84382 0.0
H549 H 0.3031 0.88921 0.89617 0.0
H550 H 0.32359 0.91874 0.87459 0.0
H551 H 0.3009 0.96953 0.89191 0.0
H552 H 0.3582 0.02008 0.82814 0.0
H553 H 0.30673 0.14363 0.86979 0.0
H554 H 0.22759 0.92378 0.83096 0.0
H555 H 0.2909 0.89511 0.84319 0.0
H556 H 0.30318 0.93134 0.82197 0.0
H557 H 0.16462 0.07183 0.88032 0.0
H558 H 0.21929 0.1281 0.88729 0.0
H559 H 0.2248 0.05107 0.89506 0.0
C560 C 0.79348 0.84462 0.87354 0.0
C561 C 0.83134 0.85945 0.88786 0.0
C562 C 0.7511 0.88648 0.86705 0.0
C563 C 0.74846 0.94521 0.87463 0.0
C564 C 0.78794 0.96082 0.8888 0.0
C565 C 0.82813 0.91719 0.89551 0.0
C566 C 0.7083 0.86743 0.85237 0.0
C567 C 0.78795 0.02361 0.89681 0.0
C568 C 0.67407 0.06707 0.84642 0.0
C569 C 0.61791 0.07327 0.85493 0.0
C570 C 0.71774 0.02664 0.85298 0.0
C571 C 0.70367 0.98995 0.86792 0.0
C572 C 0.64644 -0.00448 0.87637 0.0
C573 C 0.60465 0.0381 0.86996 0.0
C574 C 0.77902 0.02352 0.84402 0.0
C575 C 0.62892 0.95572 0.89193 0.0
H576 H 0.79585 0.7996 0.86779 0.0
H577 H 0.85791 0.9285 0.90652 0.0
H578 H 0.66063 0.87305 0.85685 0.0
H579 H 0.71475 0.8968 0.84052 0.0
H580 H 0.7151 0.81951 0.8483 0.0
H581 H 0.82399 0.02943 0.90701 0.0
H582 H 0.79475 0.05801 0.88619 0.0
H583 H 0.74341 0.03291 0.90311 0.0
H584 H 0.68419 0.09478 0.83484 0.0
H585 H 0.56082 0.04275 0.8764 0.0
H586 H 0.78617 0.9777 0.83833 0.0
H587 H 0.81547 0.03136 0.85396 0.0
H588 H 0.78384 0.05743 0.83315 0.0
H589 H 0.63282 0.90728 0.88812 0.0
H590 H 0.58184 0.96431 0.89657 0.0
H591 H 0.66037 0.96349 0.90323 0.0
C592 C 0.84471 0.04718 0.64751 0.0
C593 C 0.85202 0.10379 0.63923 0.0
C594 C 0.80023 0.00622 0.64173 0.0
C595 C 0.76191 0.0224 0.6274 0.0
C596 C 0.7675 0.08019 0.61938 0.0
C597 C 0.81267 0.12017 0.62535 0.0
C598 C 0.79571 0.94479 0.65055 0.0
C599 C 0.72696 0.09908 0.60416 0.0
C600 C 0.69866 0.89359 0.59978 0.0
C601 C 0.63978 0.8875 0.6067 0.0
C602 C 0.73854 0.93776 0.60631 0.0
C603 C 0.719 0.97713 0.62001 0.0
C604 C 0.65942 0.97205 0.62689 0.0
C605 C 0.6205 0.92708 0.62019 0.0
C606 C 0.80196 0.94165 0.59871 0.0
C607 C 0.63706 0.01369 0.64143 0.0
H608 H 0.87473 0.03408 0.65827 0.0
H609 H 0.81755 0.16401 0.61898 0.0
H610 H 0.74851 0.93613 0.65504 0.0
H611 H 0.80745 0.90891 0.64079 0.0
H612 H 0.82647 0.94063 0.6622 0.0
H613 H 0.73393 0.14726 0.60033 0.0
H614 H 0.73619 0.07025 0.59236 0.0
H615 H 0.6786 0.09238 0.6078 0.0
H616 H 0.71411 0.86322 0.58938 0.0
H617 H 0.575 0.92296 0.62555 0.0
H618 H 0.83573 0.93356 0.6094 0.0
H619 H 0.81051 0.98776 0.59335 0.0
H620 H 0.80971 0.9082 0.58789 0.0
H621 H 0.66487 0.00749 0.65361 0.0
H622 H 0.58872 0.00526 0.64487 0.0
H623 H 0.64222 0.06166 0.63724 0.0
C624 C 0.85086 0.96609 0.34152 0.0
C625 C 0.85365 0.90795 0.34906 0.0
C626 C 0.80652 0.00775 0.34694 0.0
C627 C 0.76359 0.99061 0.36006 0.0
C628 C 0.76455 0.9312 0.36716 0.0
C629 C 0.80976 0.8907 0.36166 0.0
C630 C 0.8072 0.07089 0.33916 0.0
C631 C 0.71906 0.91102 0.38103 0.0
C632 C 0.69835 0.1135 0.38957 0.0
C633 C 0.64103 0.12307 0.38194 0.0
C634 C 0.73859 0.07081 0.38248 0.0
C635 C 0.72105 0.03627 0.36746 0.0
C636 C 0.66323 0.04526 0.35971 0.0
C637 C 0.62395 0.08882 0.36699 0.0
C638 C 0.80007 0.06286 0.39106 0.0
C639 C 0.64286 0.00874 0.34378 0.0
H640 H 0.88453 0.9798 0.33177 0.0
H641 H 0.81105 0.84561 0.36739 0.0
H642 H 0.76161 0.08286 0.33402 0.0
H643 H 0.81868 0.10413 0.34974 0.0
H644 H 0.84069 0.07569 0.32817 0.0
H645 H 0.72251 0.86181 0.384 0.0
H646 H 0.72656 0.93662 0.39356 0.0
H647 H 0.67223 0.92095 0.37649 0.0
H648 H 0.71226 0.1399 0.40105 0.0
H649 H 0.57972 0.09571 0.36103 0.0
H650 H 0.83643 0.07128 0.38112 0.0
H651 H 0.80524 0.01555 0.39582 0.0
H652 H 0.80705 0.09396 0.40252 0.0
H653 H 0.67462 0.01592 0.3325 0.0
H654 H 0.59636 0.02097 0.33938 0.0
H655 H 0.64368 0.95969 0.34705 0.0
C656 C 0.61445 0.95465 0.13763 0.0
C657 C 0.6094 0.89536 0.13105 0.0
C658 C 0.65674 -0.00455 0.13048 0.0
C659 C 0.6955 0.97627 0.11656 0.0
C660 C 0.69011 0.91682 0.10964 0.0
C661 C 0.64676 0.87711 0.1169 0.0
C662 C 0.6606 0.05881 0.13804 0.0
C663 C 0.73117 0.89471 0.09492 0.0
C664 C 0.77474 0.10049 0.09036 0.0
C665 C 0.83038 0.10472 0.09936 0.0
C666 C 0.73082 0.05777 0.09552 0.0
C667 C 0.74326 0.01795 0.10984 0.0
C668 C 0.80017 0.02049 0.11852 0.0
C669 C 0.8429 0.0641 0.11325 0.0
C670 C 0.67034 0.05674 0.08608 0.0
C671 C 0.81535 0.97819 0.1337 0.0
H672 H 0.58528 0.9693 0.14843 0.0
H673 H 0.64323 0.83128 0.11179 0.0
H674 H 0.70566 0.06593 0.14429 0.0
H675 H 0.65602 0.09275 0.12722 0.0
H676 H 0.62499 0.06754 0.1482 0.0
H677 H 0.7195 0.84803 0.09052 0.0
H678 H 0.72845 0.92552 0.08326 0.0
H679 H 0.77896 0.89516 0.09956 0.0
H680 H 0.7647 0.13181 0.07964 0.0
H681 H 0.88608 0.06662 0.12013 0.0
H682 H 0.63392 0.06991 0.09552 0.0
H683 H 0.65979 0.01027 0.08135 0.0
H684 H 0.66921 0.08813 0.0745 0.0
H685 H 0.78515 0.98759 0.1452 0.0
H686 H 0.86318 0.98305 0.13815 0.0
H687 H 0.80746 0.93045 0.12966 0.0
C688 C 0.79334 0.40225 0.64776 0.0
C689 C 0.84924 0.40074 0.63893 0.0
C690 C 0.74701 0.44084 0.64188 0.0
C691 C 0.75827 0.48032 0.62735 0.0
C692 C 0.81514 0.47921 0.61856 0.0
C693 C 0.8596 0.43842 0.62426 0.0
C694 C 0.68616 0.43927 0.65112 0.0
C695 C 0.82957 0.52209 0.60343 0.0
C696 C 0.63463 0.55462 0.60012 0.0
C697 C 0.63192 0.61196 0.60802 0.0
C698 C 0.67312 0.50986 0.60698 0.0
C699 C 0.71144 0.52407 0.62153 0.0
C700 C 0.70815 0.58188 0.62967 0.0
C701 C 0.66741 0.62487 0.62299 0.0
C702 C 0.67383 0.44798 0.59839 0.0
C703 C 0.74979 0.5994 0.6448 0.0
H704 H 0.78567 0.37256 0.65907 0.0
H705 H 0.90332 0.43731 0.61761 0.0
H706 H 0.67699 0.48364 0.6575 0.0
H707 H 0.64961 0.43126 0.64122 0.0
H708 H 0.68371 0.40338 0.66148 0.0
H709 H 0.87674 0.51669 0.59845 0.0
H710 H 0.79788 0.51429 0.59219 0.0
H711 H 0.82344 0.56966 0.60787 0.0
H712 H 0.6066 0.54489 0.58859 0.0
H713 H 0.66537 0.66963 0.62893 0.0
H714 H 0.67015 0.4121 0.60871 0.0
H715 H 0.71748 0.44117 0.59132 0.0
H716 H 0.63629 0.4421 0.58867 0.0
H717 H 0.74545 0.56661 0.65593 0.0
H718 H 0.74016 0.64558 0.64996 0.0
H719 H 0.79763 0.59799 0.64018 0.0
C720 C 0.86301 0.53866 0.88132 0.0
C721 C 0.84443 0.58113 0.8941 0.0
C722 C 0.82445 0.49122 0.87608 0.0
C723 C 0.76571 0.4868 0.88361 0.0
C724 C 0.74784 0.52771 0.89713 0.0
C725 C 0.78755 0.57417 0.90229 0.0
C726 C 0.8454 0.4478 0.86181 0.0
C727 C 0.68529 0.52491 0.90535 0.0
C728 C 0.64054 0.42838 0.85383 0.0
C729 C 0.62968 0.37027 0.86077 0.0
C730 C 0.68492 0.46627 0.86113 0.0
C731 C 0.72006 0.44544 0.87563 0.0
C732 C 0.71016 0.38658 0.88261 0.0
C733 C 0.6646 0.34971 0.87517 0.0
C734 C 0.69349 0.52909 0.85344 0.0
C735 C 0.74748 0.36279 0.89793 0.0
H736 H 0.90729 0.54311 0.87514 0.0
H737 H 0.77288 0.60656 0.91224 0.0
H738 H 0.83489 0.40036 0.86567 0.0
H739 H 0.82083 0.45732 0.84923 0.0
H740 H 0.89489 0.45179 0.85921 0.0
H741 H 0.68086 0.55558 0.91701 0.0
H742 H 0.65103 0.53821 0.89526 0.0
H743 H 0.67438 0.47802 0.90964 0.0
H744 H 0.61351 0.44495 0.84281 0.0
H745 H 0.65665 0.30474 0.88053 0.0
H746 H 0.74082 0.5349 0.84869 0.0
H747 H 0.6855 0.56366 0.86391 0.0
H748 H 0.6623 0.53825 0.84214 0.0
H749 H 0.79647 0.36527 0.89457 0.0
H750 H 0.73579 0.31516 0.90134 0.0
H751 H 0.74031 0.39142 0.90989 0.0
C752 C 0.69566 0.60399 0.1411 0.0
C753 C 0.6376 0.60164 0.1336 0.0
C754 C 0.74174 0.56559 0.13498 0.0
C755 C 0.72826 0.52229 0.12164 0.0
C756 C 0.66978 0.52067 0.11382 0.0
C757 C 0.62531 0.56132 0.1197 0.0
C758 C 0.80419 0.57022 0.14313 0.0
C759 C 0.65319 0.47392 0.09994 0.0
C760 C 0.84958 0.43748 0.09608 0.0
C761 C 0.85312 0.38357 0.10587 0.0
C762 C 0.81117 0.48447 0.10155 0.0
C763 C 0.77381 0.47593 0.1167 0.0
C764 C 0.77785 0.42161 0.12671 0.0
C765 C 0.81847 0.3764 0.12133 0.0
C766 C 0.80982 0.54269 0.09098 0.0
C767 C 0.73744 0.41014 0.14263 0.0
H768 H 0.70478 0.63558 0.15185 0.0
H769 H 0.57997 0.55938 0.11412 0.0
H770 H 0.81334 0.52942 0.15133 0.0
H771 H 0.83928 0.57203 0.13253 0.0
H772 H 0.80905 0.61091 0.15174 0.0
H773 H 0.60613 0.47969 0.09494 0.0
H774 H 0.68485 0.47661 0.08848 0.0
H775 H 0.65745 0.42781 0.10572 0.0
H776 H 0.8769 0.44278 0.08415 0.0
H777 H 0.82107 0.33424 0.12873 0.0
H778 H 0.81547 0.58217 0.09999 0.0
H779 H 0.76521 0.54756 0.08431 0.0
H780 H 0.84591 0.54429 0.08064 0.0
H781 H 0.74423 0.44602 0.15278 0.0
H782 H 0.74625 0.36543 0.14893 0.0
H783 H 0.68914 0.4118 0.13849 0.0
C784 C 0.79614 0.63204 0.36161 0.0
C785 C 0.83643 0.61212 0.34841 0.0
C786 C 0.74894 0.59455 0.36761 0.0
C787 C 0.74302 0.53549 0.36049 0.0
C788 C 0.7817 0.51629 0.34655 0.0
C789 C 0.82767 0.55515 0.34055 0.0
C790 C 0.70746 0.61699 0.3822 0.0
C791 C 0.77722 0.45326 0.33878 0.0
C792 C 0.68612 0.41146 0.39091 0.0
C793 C 0.62818 0.40005 0.38398 0.0
C794 C 0.72344 0.4562 0.38352 0.0
C795 C 0.70182 0.49114 0.36905 0.0
C796 C 0.64258 0.48145 0.36238 0.0
C797 C 0.60655 0.43543 0.36982 0.0
C798 C 0.78679 0.46468 0.39083 0.0
C799 C 0.61779 0.51887 0.34721 0.0
H800 H 0.8022 0.67652 0.36751 0.0
H801 H 0.85869 0.53959 0.33032 0.0
H802 H 0.65943 0.60663 0.37895 0.0
H803 H 0.71834 0.59337 0.39484 0.0
H804 H 0.71219 0.66658 0.38439 0.0
H805 H 0.80706 0.44736 0.32697 0.0
H806 H 0.7905 0.41953 0.34903 0.0
H807 H 0.72983 0.44297 0.33484 0.0
H808 H 0.70319 0.38404 0.40179 0.0
H809 H 0.56151 0.42708 0.36455 0.0
H810 H 0.7934 0.51223 0.39523 0.0
H811 H 0.82067 0.45557 0.38022 0.0
H812 H 0.79624 0.43422 0.40228 0.0
H813 H 0.62321 0.56789 0.35013 0.0
H814 H 0.56906 0.50924 0.34465 0.0
H815 H 0.64376 0.5093 0.33487 0.0
C816 C 0.3455 0.42669 0.37753 0.0
C817 C 0.33053 0.3848 0.39091 0.0
C818 C 0.30391 0.47092 0.37207 0.0
C819 C 0.24564 0.47272 0.37999 0.0
C820 C 0.23061 0.43139 0.39374 0.0
C821 C 0.27342 0.38816 0.39913 0.0
C822 C 0.32182 0.51478 0.35751 0.0
C823 C 0.16861 0.43145 0.40233 0.0
C824 C 0.14885 0.6133 0.37337 0.0
C825 C 0.1131 0.59612 0.35875 0.0
C826 C 0.19219 0.57355 0.38051 0.0
C827 C 0.19912 0.51509 0.37301 0.0
C828 C 0.1623 0.49713 0.3585 0.0
C829 C 0.12008 0.53796 0.35149 0.0
C830 C 0.23124 0.59439 0.39586 0.0
C831 C 0.16775 0.43484 0.3503 0.0
H832 H 0.3898 0.42484 0.37127 0.0
H833 H 0.26145 0.35587 0.40945 0.0
H834 H 0.29356 0.50662 0.34552 0.0
H835 H 0.31346 0.56208 0.36187 0.0
H836 H 0.37033 0.51037 0.3537 0.0
H837 H 0.16524 0.39855 0.4135 0.0
H838 H 0.15771 0.47731 0.40744 0.0
H839 H 0.1337 0.41977 0.39224 0.0
H840 H 0.14386 0.65826 0.37899 0.0
H841 H 0.0922 0.52409 0.34031 0.0
H842 H 0.2797 0.5938 0.39185 0.0
H843 H 0.22623 0.56286 0.40729 0.0
H844 H 0.2195 0.64087 0.40037 0.0
H845 H 0.21393 0.42874 0.3447 0.0
H846 H 0.13414 0.42721 0.3395 0.0
H847 H 0.16117 0.3995 0.36065 0.0
C848 C 0.20545 0.36813 0.10371 0.0
C849 C 0.14802 0.35868 0.11133 0.0
C850 C 0.24617 0.41018 0.11096 0.0
C851 C 0.22889 0.44418 0.1261 0.0
C852 C 0.17129 0.43464 0.13399 0.0
C853 C 0.13156 0.39168 0.12655 0.0
C854 C 0.30751 0.41865 0.10228 0.0
C855 C 0.15128 0.47055 0.15006 0.0
C856 C 0.35846 0.51875 0.15114 0.0
C857 C 0.35951 0.57657 0.14335 0.0
C858 C 0.31473 0.47568 0.14613 0.0
C859 C 0.27077 0.49111 0.13317 0.0
C860 C 0.27 0.55019 0.12584 0.0
C861 C 0.31457 0.5921 0.13094 0.0
C862 C 0.31716 0.41293 0.15413 0.0
C863 C 0.22339 0.56851 0.11212 0.0
H864 H 0.21887 0.3424 0.09206 0.0
H865 H 0.08723 0.38471 0.13249 0.0
H866 H 0.31191 0.4657 0.0972 0.0
H867 H 0.34408 0.41172 0.11221 0.0
H868 H 0.31482 0.38687 0.09101 0.0
H869 H 0.10586 0.45629 0.15497 0.0
H870 H 0.18457 0.4653 0.16103 0.0
H871 H 0.14964 0.51947 0.14666 0.0
H872 H 0.39297 0.50642 0.16075 0.0
H873 H 0.31453 0.63696 0.12504 0.0
H874 H 0.32935 0.37963 0.14365 0.0
H875 H 0.272 0.39971 0.15941 0.0
H876 H 0.35095 0.40967 0.16507 0.0
H877 H 0.23069 0.54243 0.09967 0.0
H878 H 0.22573 0.61762 0.10891 0.0
H879 H 0.17701 0.55771 0.11696 0.0
C880 C 0.12379 0.55717 0.87604 0.0
C881 C 0.14116 0.59553 0.89005 0.0
C882 C 0.16317 0.51235 0.86963 0.0
C883 C 0.22165 0.50659 0.8772 0.0
C884 C 0.23906 0.54445 0.89154 0.0
C885 C 0.19837 0.58814 0.8979 0.0
C886 C 0.14265 0.47198 0.85453 0.0
C887 C 0.3014 0.54015 0.89979 0.0
C888 C 0.31524 0.36461 0.86977 0.0
C889 C 0.35352 0.38286 0.8558 0.0
C890 C 0.27105 0.40393 0.87662 0.0
C891 C 0.26586 0.46314 0.86953 0.0
C892 C 0.30401 0.48163 0.85535 0.0
C893 C 0.34703 0.44109 0.84856 0.0
C894 C 0.23033 0.38235 0.89153 0.0
C895 C 0.30032 0.54473 0.8476 0.0
H896 H 0.07935 0.56224 0.87004 0.0
H897 H 0.21215 0.61782 0.90869 0.0
H898 H 0.17076 0.48088 0.84254 0.0
H899 H 0.14897 0.42364 0.85815 0.0
H900 H 0.09425 0.47928 0.85102 0.0
H901 H 0.30716 0.57163 0.91122 0.0
H902 H 0.30995 0.49326 0.90447 0.0
H903 H 0.33642 0.55092 0.88963 0.0
H904 H 0.31969 0.31948 0.87533 0.0
H905 H 0.37669 0.45564 0.83784 0.0
H906 H 0.18204 0.38814 0.88775 0.0
H907 H 0.23827 0.41014 0.90363 0.0
H908 H 0.23813 0.33398 0.89494 0.0
H909 H 0.25387 0.55344 0.84255 0.0
H910 H 0.33305 0.55183 0.83653 0.0
H911 H 0.30968 0.57876 0.85814 0.0
C912 C 0.13113 0.46239 0.64188 0.0
C913 C 0.12343 0.40474 0.6343 0.0
C914 C 0.17391 0.50326 0.63507 0.0
C915 C 0.21028 0.48592 0.62041 0.0
C916 C 0.20328 0.42771 0.61276 0.0
C917 C 0.15967 0.38782 0.61976 0.0
C918 C 0.17985 0.56522 0.64348 0.0
C919 C 0.24177 0.4077 0.5972 0.0
C920 C 0.27968 0.61454 0.59385 0.0
C921 C 0.33766 0.61873 0.60146 0.0
C922 C 0.23818 0.57042 0.59959 0.0
C923 C 0.25537 0.52922 0.61311 0.0
C924 C 0.31442 0.5319 0.62044 0.0
C925 C 0.3548 0.57687 0.6146 0.0
C926 C 0.17533 0.56914 0.59158 0.0
C927 C 0.33443 0.48822 0.63477 0.0
H928 H 0.10315 0.47606 0.65306 0.0
H929 H 0.15419 0.34329 0.61387 0.0
H930 H 0.22677 0.57205 0.64844 0.0
H931 H 0.17112 0.60086 0.63337 0.0
H932 H 0.14785 0.57168 0.65476 0.0
H933 H 0.23132 0.36056 0.59297 0.0
H934 H 0.23452 0.43843 0.5857 0.0
H935 H 0.29054 0.41052 0.60077 0.0
H936 H 0.26607 0.64673 0.58371 0.0
H937 H 0.39976 0.57937 0.6204 0.0
H938 H 0.14125 0.57972 0.60201 0.0
H939 H 0.16474 0.52318 0.58645 0.0
H940 H 0.17021 0.60226 0.58053 0.0
H941 H 0.30719 0.49555 0.64701 0.0
H942 H 0.3832 0.49363 0.63816 0.0
H943 H 0.32643 0.44081 0.63041 0.0
loop_
_geom_bond_atom_site_label_1
_geom_bond_atom_site_label_2
_geom_bond_distance
_geom_bond_site_symmetry_2
_ccdc_geom_bond_type
Sc0 O3 2.025 . S
Sc0 O10 2.105 . S
Sc0 O13 2.105 . S
Sc0 O16 2.105 . S
Sc0 O19 2.105 . S
Sc1 O3 2.025 1_655 S
Sc1 O11 2.105 . S
Sc1 O15 2.105 . S
Sc1 O17 2.105 . S
Sc1 O21 2.105 . S
Sc2 O3 2.025 . S
Sc2 O12 2.105 1_455 S
Sc2 O14 2.105 . S
Sc2 O18 2.105 1_455 S
Sc2 O20 2.105 . S
O3 Sc0 2.025 . S
O3 Sc1 2.025 1_455 S
O3 Sc2 2.025 . S
C4 O10 1.268 . S
C4 O20 1.268 . S
C5 O11 1.268 1_455 S
C5 O19 1.268 . S
C6 O12 1.268 . S
C6 O21 1.268 . S
C7 O13 1.268 . S
C7 O17 1.268 1_455 S
C8 O14 1.268 . S
C8 O16 1.268 . S
C9 O15 1.268 . S
C9 O18 1.268 . S
O10 Sc0 2.105 . S
O10 C4 1.268 . S
O11 Sc1 2.105 . S
O11 C5 1.268 1_655 S
O12 Sc2 2.105 1_655 S
O12 C6 1.268 . S
O13 Sc0 2.105 . S
O13 C7 1.268 . S
O14 Sc2 2.105 . S
O14 C8 1.268 . S
O15 Sc1 2.105 . S
O15 C9 1.268 . S
O16 Sc0 2.105 . S
O16 C8 1.268 . S
O17 Sc1 2.105 . S
O17 C7 1.268 1_655 S
O18 Sc2 2.105 1_655 S
O18 C9 1.268 . S
O19 Sc0 2.105 . S
O19 C5 1.268 . S
O20 Sc2 2.105 . S
O20 C4 1.268 . S
O21 Sc1 2.105 . S
O21 C6 1.268 . S
Sc22 O25 2.025 . S
Sc22 O32 2.105 . S
Sc22 O35 2.105 1_455 S
Sc22 O38 2.105 1_455 S
Sc22 O41 2.105 . S
Sc23 O25 2.025 . S
Sc23 O33 2.105 . S
Sc23 O37 2.105 1_455 S
Sc23 O39 2.105 1_455 S
Sc23 O43 2.105 . S
Sc24 O25 2.025 . S
Sc24 O34 2.105 . S
Sc24 O36 2.105 1_455 S
Sc24 O40 2.105 1_455 S
Sc24 O42 2.105 . S
O25 Sc22 2.025 . S
O25 Sc23 2.025 . S
O25 Sc24 2.025 . S
C26 O32 1.268 . S
C26 O42 1.268 . S
C27 O33 1.268 . S
C27 O41 1.268 . S
C28 O34 1.268 . S
C28 O43 1.268 . S
C29 O35 1.268 . S
C29 O39 1.268 . S
C30 O36 1.268 . S
C30 O38 1.268 . S
C31 O37 1.268 . S
C31 O40 1.268 . S
O32 Sc22 2.105 . S
O32 C26 1.268 . S
O33 Sc23 2.105 . S
O33 C27 1.268 . S
O34 Sc24 2.105 . S
O34 C28 1.268 . S
O35 Sc22 2.105 1_655 S
O35 C29 1.268 . S
O36 Sc24 2.105 1_655 S
O36 C30 1.268 . S
O37 Sc23 2.105 1_655 S
O37 C31 1.268 . S
O38 Sc22 2.105 1_655 S
O38 C30 1.268 . S
O39 Sc23 2.105 1_655 S
O39 C29 1.268 . S
O40 Sc24 2.105 1_655 S
O40 C31 1.268 . S
O41 Sc22 2.105 . S
O41 C27 1.268 . S
O42 Sc24 2.105 . S
O42 C26 1.268 . S
O43 Sc23 2.105 . S
O43 C28 1.268 . S
Sc44 O47 2.025 . S
Sc44 O54 2.105 . S
Sc44 O57 2.105 . S
Sc44 O60 2.105 . S
Sc44 O63 2.105 . S
Sc45 O47 2.025 . S
Sc45 O55 2.105 . S
Sc45 O59 2.105 . S
Sc45 O61 2.105 . S
Sc45 O65 2.105 . S
Sc46 O47 2.025 . S
Sc46 O56 2.105 . S
Sc46 O58 2.105 . S
Sc46 O62 2.105 . S
Sc46 O64 2.105 . S
O47 Sc44 2.025 . S
O47 Sc45 2.025 . S
O47 Sc46 2.025 . S
C48 O54 1.268 . S
C48 O64 1.268 . S
C49 O55 1.268 . S
C49 O63 1.268 . S
C50 O56 1.268 . S
C50 O65 1.268 . S
C51 O57 1.268 . S
C51 O61 1.268 . S
C52 O58 1.268 . S
C52 O60 1.268 . S
C53 O59 1.268 . S
C53 O62 1.268 . S
O54 Sc44 2.105 . S
O54 C48 1.268 . S
O55 Sc45 2.105 . S
O55 C49 1.268 . S
O56 Sc46 2.105 . S
O56 C50 1.268 . S
O57 Sc44 2.105 . S
O57 C51 1.268 . S
O58 Sc46 2.105 . S
O58 C52 1.268 . S
O59 Sc45 2.105 . S
O59 C53 1.268 . S
O60 Sc44 2.105 . S
O60 C52 1.268 . S
O61 Sc45 2.105 . S
O61 C51 1.268 . S
O62 Sc46 2.105 . S
O62 C53 1.268 . S
O63 Sc44 2.105 . S
O63 C49 1.268 . S
O64 Sc46 2.105 . S
O64 C48 1.268 . S
O65 Sc45 2.105 . S
O65 C50 1.268 . S
Sc66 O69 2.025 . S
Sc66 O76 2.105 . S
Sc66 O79 2.105 . S
Sc66 O82 2.105 . S
Sc66 O85 2.105 . S
Sc67 O69 2.025 . S
Sc67 O77 2.105 . S
Sc67 O81 2.105 . S
Sc67 O83 2.105 . S
Sc67 O87 2.105 . S
Sc68 O69 2.025 . S
Sc68 O78 2.105 . S
Sc68 O80 2.105 . S
Sc68 O84 2.105 . S
Sc68 O86 2.105 . S
O69 Sc66 2.025 . S
O69 Sc67 2.025 . S
O69 Sc68 2.025 . S
C70 O76 1.268 . S
C70 O86 1.268 . S
C71 O77 1.268 . S
C71 O85 1.268 . S
C72 O78 1.268 . S
C72 O87 1.268 . S
C73 O79 1.268 . S
C73 O83 1.268 . S
C74 O80 1.268 . S
C74 O82 1.268 . S
C75 O81 1.268 . S
C75 O84 1.268 . S
O76 Sc66 2.105 . S
O76 C70 1.268 . S
O77 Sc67 2.105 . S
O77 C71 1.268 . S
O78 Sc68 2.105 . S
O78 C72 1.268 . S
O79 Sc66 2.105 . S
O79 C73 1.268 . S
O80 Sc68 2.105 . S
O80 C74 1.268 . S
O81 Sc67 2.105 . S
O81 C75 1.268 . S
O82 Sc66 2.105 . S
O82 C74 1.268 . S
O83 Sc67 2.105 . S
O83 C73 1.268 . S
O84 Sc68 2.105 . S
O84 C75 1.268 . S
O85 Sc66 2.105 . S
O85 C71 1.268 . S
O86 Sc68 2.105 . S
O86 C70 1.268 . S
O87 Sc67 2.105 . S
O87 C72 1.268 . S
Sc88 O91 2.025 . S
Sc88 O98 2.105 1_455 S
Sc88 O101 2.105 . S
Sc88 O104 2.105 1_455 S
Sc88 O107 2.105 . S
Sc89 O91 2.025 . S
Sc89 O99 2.105 . S
Sc89 O103 2.105 . S
Sc89 O105 2.105 . S
Sc89 O109 2.105 . S
Sc90 O91 2.025 1_655 S
Sc90 O100 2.105 . S
Sc90 O102 2.105 . S
Sc90 O106 2.105 . S
Sc90 O108 2.105 . S
O91 Sc88 2.025 . S
O91 Sc89 2.025 . S
O91 Sc90 2.025 1_455 S
C92 O98 1.268 . S
C92 O108 1.268 . S
C93 O99 1.268 . S
C93 O107 1.268 . S
C94 O100 1.268 1_455 S
C94 O109 1.268 . S
C95 O101 1.268 . S
C95 O105 1.268 . S
C96 O102 1.268 . S
C96 O104 1.268 . S
C97 O103 1.268 . S
C97 O106 1.268 1_455 S
O98 Sc88 2.105 1_655 S
O98 C92 1.268 . S
O99 Sc89 2.105 . S
O99 C93 1.268 . S
O100 Sc90 2.105 . S
O100 C94 1.268 1_655 S
O101 Sc88 2.105 . S
O101 C95 1.268 . S
O102 Sc90 2.105 . S
O102 C96 1.268 . S
O103 Sc89 2.105 . S
O103 C97 1.268 . S
O104 Sc88 2.105 1_655 S
O104 C96 1.268 . S
O105 Sc89 2.105 . S
O105 C95 1.268 . S
O106 Sc90 2.105 . S
O106 C97 1.268 1_655 S
O107 Sc88 2.105 . S
O107 C93 1.268 . S
O108 Sc90 2.105 . S
O108 C92 1.268 . S
O109 Sc89 2.105 . S
O109 C94 1.268 . S
Sc110 O113 2.025 . S
Sc110 O120 2.105 . S
Sc110 O123 2.105 . S
Sc110 O126 2.105 . S
Sc110 O129 2.105 . S
Sc111 O113 2.025 . S
Sc111 O121 2.105 . S
Sc111 O125 2.105 . S
Sc111 O127 2.105 . S
Sc111 O131 2.105 . S
Sc112 O113 2.025 . S
Sc112 O122 2.105 . S
Sc112 O124 2.105 . S
Sc112 O128 2.105 . S
Sc112 O130 2.105 . S
O113 Sc110 2.025 . S
O113 Sc111 2.025 . S
O113 Sc112 2.025 . S
C114 O120 1.268 . S
C114 O130 1.268 . S
C115 O121 1.268 . S
C115 O129 1.268 . S
C116 O122 1.268 . S
C116 O131 1.268 . S
C117 O123 1.268 . S
C117 O127 1.268 . S
C118 O124 1.268 . S
C118 O126 1.268 . S
C119 O125 1.268 . S
C119 O128 1.268 . S
O120 Sc110 2.105 . S
O120 C114 1.268 . S
O121 Sc111 2.105 . S
O121 C115 1.268 . S
O122 Sc112 2.105 . S
O122 C116 1.268 . S
O123 Sc110 2.105 . S
O123 C117 1.268 . S
O124 Sc112 2.105 . S
O124 C118 1.268 . S
O125 Sc111 2.105 . S
O125 C119 1.268 . S
O126 Sc110 2.105 . S
O126 C118 1.268 . S
O127 Sc111 2.105 . S
O127 C117 1.268 . S
O128 Sc112 2.105 . S
O128 C119 1.268 . S
O129 Sc110 2.105 . S
O129 C115 1.268 . S
O130 Sc112 2.105 . S
O130 C114 1.268 . S
O131 Sc111 2.105 . S
O131 C116 1.268 . S
Sc132 O135 2.025 . S
Sc132 O142 2.105 . S
Sc132 O145 2.105 . S
Sc132 O148 2.105 . S
Sc132 O151 2.105 . S
Sc133 O135 2.025 . S
Sc133 O143 2.105 . S
Sc133 O147 2.105 . S
Sc133 O149 2.105 . S
Sc133 O153 2.105 . S
Sc134 O135 2.025 . S
Sc134 O144 2.105 . S
Sc134 O146 2.105 . S
Sc134 O150 2.105 . S
Sc134 O152 2.105 . S
O135 Sc132 2.025 . S
O135 Sc133 2.025 . S
O135 Sc134 2.025 . S
C136 O142 1.268 . S
C136 O152 1.268 . S
C137 O143 1.268 . S
C137 O151 1.268 . S
C138 O144 1.268 . S
C138 O153 1.268 . S
C139 O145 1.268 . S
C139 O149 1.268 . S
C140 O146 1.268 . S
C140 O148 1.268 . S
C141 O147 1.268 . S
C141 O150 1.268 . S
O142 Sc132 2.105 . S
O142 C136 1.268 . S
O143 Sc133 2.105 . S
O143 C137 1.268 . S
O144 Sc134 2.105 . S
O144 C138 1.268 . S
O145 Sc132 2.105 . S
O145 C139 1.268 . S
O146 Sc134 2.105 . S
O146 C140 1.268 . S
O147 Sc133 2.105 . S
O147 C141 1.268 . S
O148 Sc132 2.105 . S
O148 C140 1.268 . S
O149 Sc133 2.105 . S
O149 C139 1.268 . S
O150 Sc134 2.105 . S
O150 C141 1.268 . S
O151 Sc132 2.105 . S
O151 C137 1.268 . S
O152 Sc134 2.105 . S
O152 C136 1.268 . S
O153 Sc133 2.105 . S
O153 C138 1.268 . S
Sc154 O157 2.025 . S
Sc154 O164 2.105 1_455 S
Sc154 O167 2.105 . S
Sc154 O170 2.105 . S
Sc154 O173 2.105 1_455 S
Sc155 O157 2.025 . S
Sc155 O165 2.105 1_455 S
Sc155 O169 2.105 . S
Sc155 O171 2.105 . S
Sc155 O175 2.105 1_455 S
Sc156 O157 2.025 . S
Sc156 O166 2.105 1_455 S
Sc156 O168 2.105 . S
Sc156 O172 2.105 . S
Sc156 O174 2.105 1_455 S
O157 Sc154 2.025 . S
O157 Sc155 2.025 . S
O157 Sc156 2.025 . S
C158 O164 1.268 . S
C158 O174 1.268 . S
C159 O165 1.268 . S
C159 O173 1.268 . S
C160 O166 1.268 . S
C160 O175 1.268 . S
C161 O167 1.268 . S
C161 O171 1.268 . S
C162 O168 1.268 . S
C162 O170 1.268 . S
C163 O169 1.268 . S
C163 O172 1.268 . S
O164 Sc154 2.105 1_655 S
O164 C158 1.268 . S
O165 Sc155 2.105 1_655 S
O165 C159 1.268 . S
O166 Sc156 2.105 1_655 S
O166 C160 1.268 . S
O167 Sc154 2.105 . S
O167 C161 1.268 . S
O168 Sc156 2.105 . S
O168 C162 1.268 . S
O169 Sc155 2.105 . S
O169 C163 1.268 . S
O170 Sc154 2.105 . S
O170 C162 1.268 . S
O171 Sc155 2.105 . S
O171 C161 1.268 . S
O172 Sc156 2.105 . S
O172 C163 1.268 . S
O173 Sc154 2.105 1_655 S
O173 C159 1.268 . S
O174 Sc156 2.105 1_655 S
O174 C158 1.268 . S
O175 Sc155 2.105 1_655 S
O175 C160 1.268 . S
C176 C177 1.391 1_655 S
C176 C178 1.394 . S
C176 H192 0.931 . S
C177 C176 1.391 1_455 S
C177 C181 1.376 . S
C178 C176 1.394 . S
C178 C179 1.369 1_655 S
C178 C182 1.531 . S
C179 C178 1.369 1_455 S
C179 C180 1.410 . S
C179 C187 1.503 1_554 S
C180 C179 1.410 . S
C180 C181 1.392 . S
C180 C183 1.511 . S
C181 C177 1.376 . S
C181 C180 1.392 . S
C181 H193 0.929 . S
C182 C178 1.531 . S
C182 H194 0.960 . S
C182 H195 0.962 . S
C182 H196 0.960 . S
C183 C180 1.511 . S
C183 H197 0.961 . S
C183 H198 0.961 1_554 S
C183 H199 0.961 . S
C184 C185 1.370 1_655 S
C184 C186 1.363 . S
C184 H200 0.931 . S
C185 C184 1.370 1_455 S
C185 C189 1.408 . S
C186 C184 1.363 . S
C186 C187 1.370 1_655 S
C186 C190 1.524 . S
C187 C179 1.503 1_556 S
C187 C186 1.370 1_455 S
C187 C188 1.403 . S
C188 C187 1.403 . S
C188 C189 1.404 . S
C188 C191 1.539 1_556 S
C189 C185 1.408 . S
C189 C188 1.404 . S
C189 H201 0.930 . S
C190 C186 1.524 . S
C190 H202 0.956 . S
C190 H203 0.961 1_655 S
C190 H204 0.961 . S
C191 C188 1.539 1_554 S
C191 H205 0.958 . S
C191 H206 0.961 . S
C191 H207 0.960 . S
H192 C176 0.931 . S
H193 C181 0.929 . S
H194 C182 0.960 . S
H195 C182 0.962 . S
H196 C182 0.960 . S
H197 C183 0.961 . S
H198 C183 0.961 1_556 S
H199 C183 0.961 . S
H200 C184 0.931 . S
H201 C189 0.930 . S
H202 C190 0.956 . S
H203 C190 0.961 1_455 S
H204 C190 0.961 . S
H205 C191 0.958 . S
H206 C191 0.961 . S
H207 C191 0.960 . S
C208 C209 1.391 . S
C208 C210 1.394 . S
C208 H224 0.931 . S
C209 C208 1.391 . S
C209 C213 1.376 . S
C210 C208 1.394 . S
C210 C211 1.369 . S
C210 C214 1.531 . S
C211 C210 1.369 . S
C211 C212 1.410 . S
C211 C219 1.503 . S
C212 C211 1.410 . S
C212 C213 1.392 . S
C212 C215 1.511 . S
C213 C209 1.376 . S
C213 C212 1.392 . S
C213 H225 0.929 . S
C214 C210 1.531 . S
C214 H226 0.960 . S
C214 H227 0.962 . S
C214 H228 0.960 . S
C215 C212 1.511 . S
C215 H229 0.961 . S
C215 H230 0.961 . S
C215 H231 0.961 . S
C216 C217 1.370 . S
C216 C218 1.363 . S
C216 H232 0.931 . S
C217 C216 1.370 . S
C217 C221 1.408 . S
C218 C216 1.363 . S
C218 C219 1.370 . S
C218 C222 1.524 . S
C219 C211 1.503 . S
C219 C218 1.370 . S
C219 C220 1.403 . S
C220 C219 1.403 . S
C220 C221 1.404 . S
C220 C223 1.539 . S
C221 C217 1.408 . S
C221 C220 1.404 . S
C221 H233 0.930 . S
C222 C218 1.524 . S
C222 H234 0.956 . S
C222 H235 0.961 . S
C222 H236 0.961 . S
C223 C220 1.539 . S
C223 H237 0.958 . S
C223 H238 0.961 . S
C223 H239 0.960 . S
H224 C208 0.931 . S
H225 C213 0.929 . S
H226 C214 0.960 . S
H227 C214 0.962 . S
H228 C214 0.960 . S
H229 C215 0.961 . S
H230 C215 0.961 . S
H231 C215 0.961 . S
H232 C216 0.931 . S
H233 C221 0.930 . S
H234 C222 0.956 . S
H235 C222 0.961 . S
H236 C222 0.961 . S
H237 C223 0.958 . S
H238 C223 0.961 . S
H239 C223 0.960 . S
C240 C241 1.391 . S
C240 C242 1.394 . S
C240 H256 0.931 . S
C241 C240 1.391 . S
C241 C245 1.376 . S
C242 C240 1.394 . S
C242 C243 1.369 . S
C242 C246 1.531 . S
C243 C242 1.369 . S
C243 C244 1.410 . S
C243 C251 1.503 . S
C244 C243 1.410 . S
C244 C245 1.392 . S
C244 C247 1.511 . S
C245 C241 1.376 . S
C245 C244 1.392 . S
C245 H257 0.929 . S
C246 C242 1.531 . S
C246 H258 0.960 . S
C246 H259 0.962 . S
C246 H260 0.960 . S
C247 C244 1.511 . S
C247 H261 0.961 . S
C247 H262 0.961 . S
C247 H263 0.961 . S
C248 C249 1.370 . S
C248 C250 1.363 . S
C248 H264 0.931 . S
C249 C248 1.370 . S
C249 C253 1.408 . S
C250 C248 1.363 . S
C250 C251 1.370 . S
C250 C254 1.524 . S
C251 C243 1.503 . S
C251 C250 1.370 . S
C251 C252 1.403 . S
C252 C251 1.403 . S
C252 C253 1.404 . S
C252 C255 1.539 . S
C253 C249 1.408 . S
C253 C252 1.404 . S
C253 H265 0.930 . S
C254 C250 1.524 . S
C254 H266 0.956 . S
C254 H267 0.961 . S
C254 H268 0.961 . S
C255 C252 1.539 . S
C255 H269 0.958 . S
C255 H270 0.961 . S
C255 H271 0.960 . S
H256 C240 0.931 . S
H257 C245 0.929 . S
H258 C246 0.960 . S
H259 C246 0.962 . S
H260 C246 0.960 . S
H261 C247 0.961 . S
H262 C247 0.961 . S
H263 C247 0.961 . S
H264 C248 0.931 . S
H265 C253 0.930 . S
H266 C254 0.956 . S
H267 C254 0.961 . S
H268 C254 0.961 . S
H269 C255 0.958 . S
H270 C255 0.961 . S
H271 C255 0.960 . S
C272 C273 1.391 . S
C272 C274 1.394 . S
C272 H288 0.931 . S
C273 C272 1.391 . S
C273 C277 1.376 . S
C274 C272 1.394 . S
C274 C275 1.369 . S
C274 C278 1.531 . S
C275 C274 1.369 . S
C275 C276 1.410 . S
C275 C283 1.503 . S
C276 C275 1.410 . S
C276 C277 1.392 . S
C276 C279 1.511 . S
C277 C273 1.376 . S
C277 C276 1.392 . S
C277 H289 0.929 . S
C278 C274 1.531 . S
C278 H290 0.960 . S
C278 H291 0.962 . S
C278 H292 0.960 . S
C279 C276 1.511 . S
C279 H293 0.961 . S
C279 H294 0.961 . S
C279 H295 0.961 . S
C280 C281 1.370 . S
C280 C282 1.363 . S
C280 H296 0.931 . S
C281 C280 1.370 . S
C281 C285 1.408 . S
C282 C280 1.363 . S
C282 C283 1.370 . S
C282 C286 1.524 . S
C283 C275 1.503 . S
C283 C282 1.370 . S
C283 C284 1.403 . S
C284 C283 1.403 . S
C284 C285 1.404 . S
C284 C287 1.539 . S
C285 C281 1.408 . S
C285 C284 1.404 . S
C285 H297 0.930 . S
C286 C282 1.524 . S
C286 H298 0.956 . S
C286 H299 0.961 . S
C286 H300 0.961 . S
C287 C284 1.539 . S
C287 H301 0.958 . S
C287 H302 0.961 . S
C287 H303 0.960 . S
H288 C272 0.931 . S
H289 C277 0.929 . S
H290 C278 0.960 . S
H291 C278 0.962 . S
H292 C278 0.960 . S
H293 C279 0.961 . S
H294 C279 0.961 . S
H295 C279 0.961 . S
H296 C280 0.931 . S
H297 C285 0.930 . S
H298 C286 0.956 . S
H299 C286 0.961 . S
H300 C286 0.961 . S
H301 C287 0.958 . S
H302 C287 0.961 . S
H303 C287 0.960 . S
C304 C305 1.391 . S
C304 C306 1.394 . S
C304 H320 0.931 . S
C305 C304 1.391 . S
C305 C309 1.376 . S
C306 C304 1.394 . S
C306 C307 1.369 . S
C306 C310 1.531 . S
C307 C306 1.369 . S
C307 C308 1.410 . S
C307 C315 1.503 . S
C308 C307 1.410 . S
C308 C309 1.392 . S
C308 C311 1.511 . S
C309 C305 1.376 . S
C309 C308 1.392 . S
C309 H321 0.929 . S
C310 C306 1.531 . S
C310 H322 0.960 . S
C310 H323 0.962 . S
C310 H324 0.960 . S
C311 C308 1.511 . S
C311 H325 0.961 . S
C311 H326 0.961 . S
C311 H327 0.961 . S
C312 C313 1.370 . S
C312 C314 1.363 . S
C312 H328 0.931 . S
C313 C312 1.370 . S
C313 C317 1.408 . S
C314 C312 1.363 . S
C314 C315 1.370 . S
C314 C318 1.524 . S
C315 C307 1.503 . S
C315 C314 1.370 . S
C315 C316 1.403 . S
C316 C315 1.403 . S
C316 C317 1.404 . S
C316 C319 1.539 . S
C317 C313 1.408 . S
C317 C316 1.404 . S
C317 H329 0.930 . S
C318 C314 1.524 . S
C318 H330 0.956 . S
C318 H331 0.961 . S
C318 H332 0.961 . S
C319 C316 1.539 . S
C319 H333 0.958 . S
C319 H334 0.961 . S
C319 H335 0.960 . S
H320 C304 0.931 . S
H321 C309 0.929 . S
H322 C310 0.960 . S
H323 C310 0.962 . S
H324 C310 0.960 . S
H325 C311 0.961 . S
H326 C311 0.961 . S
H327 C311 0.961 . S
H328 C312 0.931 . S
H329 C317 0.930 . S
H330 C318 0.956 . S
H331 C318 0.961 . S
H332 C318 0.961 . S
H333 C319 0.958 . S
H334 C319 0.961 . S
H335 C319 0.960 . S
C336 C337 1.391 . S
C336 C338 1.394 . S
C336 H352 0.931 . S
C337 C336 1.391 . S
C337 C341 1.376 . S
C338 C336 1.394 . S
C338 C339 1.369 . S
C338 C342 1.531 . S
C339 C338 1.369 . S
C339 C340 1.410 . S
C339 C347 1.503 . S
C340 C339 1.410 . S
C340 C341 1.392 . S
C340 C343 1.511 . S
C341 C337 1.376 . S
C341 C340 1.392 . S
C341 H353 0.929 . S
C342 C338 1.531 . S
C342 H354 0.960 . S
C342 H355 0.962 . S
C342 H356 0.960 . S
C343 C340 1.511 . S
C343 H357 0.961 . S
C343 H358 0.961 . S
C343 H359 0.961 . S
C344 C345 1.370 . S
C344 C346 1.363 . S
C344 H360 0.931 . S
C345 C344 1.370 . S
C345 C349 1.408 . S
C346 C344 1.363 . S
C346 C347 1.370 . S
C346 C350 1.524 . S
C347 C339 1.503 . S
C347 C346 1.370 . S
C347 C348 1.403 . S
C348 C347 1.403 . S
C348 C349 1.404 . S
C348 C351 1.539 . S
C349 C345 1.408 . S
C349 C348 1.404 . S
C349 H361 0.930 . S
C350 C346 1.524 . S
C350 H362 0.956 . S
C350 H363 0.961 . S
C350 H364 0.961 . S
C351 C348 1.539 . S
C351 H365 0.958 . S
C351 H366 0.961 . S
C351 H367 0.960 . S
H352 C336 0.931 . S
H353 C341 0.929 . S
H354 C342 0.960 . S
H355 C342 0.962 . S
H356 C342 0.960 . S
H357 C343 0.961 . S
H358 C343 0.961 . S
H359 C343 0.961 . S
H360 C344 0.931 . S
H361 C349 0.930 . S
H362 C350 0.956 . S
H363 C350 0.961 . S
H364 C350 0.961 . S
H365 C351 0.958 . S
H366 C351 0.961 . S
H367 C351 0.960 . S
C368 C369 1.391 . S
C368 C370 1.394 . S
C368 H384 0.931 . S
C369 C368 1.391 . S
C369 C373 1.376 . S
C370 C368 1.394 . S
C370 C371 1.369 . S
C370 C374 1.531 . S
C371 C370 1.369 . S
C371 C372 1.410 . S
C371 C379 1.503 1_545 S
C372 C371 1.410 . S
C372 C373 1.392 . S
C372 C375 1.511 1_545 S
C373 C369 1.376 . S
C373 C372 1.392 . S
C373 H385 0.929 . S
C374 C370 1.531 . S
C374 H386 0.960 . S
C374 H387 0.962 . S
C374 H388 0.960 . S
C375 C372 1.511 1_565 S
C375 H389 0.961 . S
C375 H390 0.961 . S
C375 H391 0.961 . S
C376 C377 1.370 . S
C376 C378 1.363 . S
C376 H392 0.931 . S
C377 C376 1.370 . S
C377 C381 1.408 . S
C378 C376 1.363 . S
C378 C379 1.370 . S
C378 C382 1.524 1_565 S
C379 C371 1.503 1_565 S
C379 C378 1.370 . S
C379 C380 1.403 . S
C380 C379 1.403 . S
C380 C381 1.404 . S
C380 C383 1.539 . S
C381 C377 1.408 . S
C381 C380 1.404 . S
C381 H393 0.930 . S
C382 C378 1.524 1_545 S
C382 H394 0.956 . S
C382 H395 0.961 . S
C382 H396 0.961 . S
C383 C380 1.539 . S
C383 H397 0.958 . S
C383 H398 0.961 . S
C383 H399 0.960 . S
H384 C368 0.931 . S
H385 C373 0.929 . S
H386 C374 0.960 . S
H387 C374 0.962 . S
H388 C374 0.960 . S
H389 C375 0.961 . S
H390 C375 0.961 . S
H391 C375 0.961 . S
H392 C376 0.931 . S
H393 C381 0.930 . S
H394 C382 0.956 . S
H395 C382 0.961 . S
H396 C382 0.961 . S
H397 C383 0.958 . S
H398 C383 0.961 . S
H399 C383 0.960 . S
C400 C401 1.391 1_655 S
C400 C402 1.394 . S
C400 H416 0.931 . S
C401 C400 1.391 1_455 S
C401 C405 1.376 . S
C402 C400 1.394 . S
C402 C403 1.369 1_655 S
C402 C406 1.531 1_554 S
C403 C402 1.369 1_455 S
C403 C404 1.410 . S
C403 C411 1.503 1_544 S
C404 C403 1.410 . S
C404 C405 1.392 . S
C404 C407 1.511 1_545 S
C405 C401 1.376 . S
C405 C404 1.392 . S
C405 H417 0.929 . S
C406 C402 1.531 1_556 S
C406 H418 0.960 . S
C406 H419 0.962 . S
C406 H420 0.960 . S
C407 C404 1.511 1_565 S
C407 H421 0.961 . S
C407 H422 0.961 . S
C407 H423 0.961 . S
C408 C409 1.370 1_655 S
C408 C410 1.363 . S
C408 H424 0.931 . S
C409 C408 1.370 1_455 S
C409 C413 1.408 . S
C410 C408 1.363 . S
C410 C411 1.370 1_655 S
C410 C414 1.524 1_556 S
C411 C403 1.503 1_566 S
C411 C410 1.370 1_455 S
C411 C412 1.403 . S
C412 C411 1.403 . S
C412 C413 1.404 . S
C412 C415 1.539 1_565 S
C413 C409 1.408 . S
C413 C412 1.404 . S
C413 H425 0.930 . S
C414 C410 1.524 1_554 S
C414 H426 0.956 . S
C414 H427 0.961 . S
C414 H428 0.961 . S
C415 C412 1.539 1_545 S
C415 H429 0.958 . S
C415 H430 0.961 . S
C415 H431 0.960 . S
H416 C400 0.931 . S
H417 C405 0.929 . S
H418 C406 0.960 . S
H419 C406 0.962 . S
H420 C406 0.960 . S
H421 C407 0.961 . S
H422 C407 0.961 . S
H423 C407 0.961 . S
H424 C408 0.931 . S
H425 C413 0.930 . S
H426 C414 0.956 . S
H427 C414 0.961 . S
H428 C414 0.961 . S
H429 C415 0.958 . S
H430 C415 0.961 . S
H431 C415 0.960 . S
C432 C433 1.391 . S
C432 C434 1.394 . S
C432 H448 0.931 . S
C433 C432 1.391 . S
C433 C437 1.376 . S
C434 C432 1.394 . S
C434 C435 1.369 . S
C434 C438 1.531 . S
C435 C434 1.369 . S
C435 C436 1.410 . S
C435 C443 1.503 1_565 S
C436 C435 1.410 . S
C436 C437 1.392 . S
C436 C439 1.511 . S
C437 C433 1.376 . S
C437 C436 1.392 . S
C437 H449 0.929 . S
C438 C434 1.531 . S
C438 H450 0.960 . S
C438 H451 0.962 . S
C438 H452 0.960 . S
C439 C436 1.511 . S
C439 H453 0.961 . S
C439 H454 0.961 1_565 S
C439 H455 0.961 . S
C440 C441 1.370 . S
C440 C442 1.363 . S
C440 H456 0.931 . S
C441 C440 1.370 . S
C441 C445 1.408 . S
C442 C440 1.363 . S
C442 C443 1.370 . S
C442 C446 1.524 . S
C443 C435 1.503 1_545 S
C443 C442 1.370 . S
C443 C444 1.403 1_545 S
C444 C443 1.403 1_565 S
C444 C445 1.404 1_565 S
C444 C447 1.539 . S
C445 C441 1.408 . S
C445 C444 1.404 1_545 S
C445 H457 0.930 . S
C446 C442 1.524 . S
C446 H458 0.956 . S
C446 H459 0.961 . S
C446 H460 0.961 . S
C447 C444 1.539 . S
C447 H461 0.958 . S
C447 H462 0.961 . S
C447 H463 0.960 . S
H448 C432 0.931 . S
H449 C437 0.929 . S
H450 C438 0.960 . S
H451 C438 0.962 . S
H452 C438 0.960 . S
H453 C439 0.961 . S
H454 C439 0.961 1_545 S
H455 C439 0.961 . S
H456 C440 0.931 . S
H457 C445 0.930 . S
H458 C446 0.956 . S
H459 C446 0.961 . S
H460 C446 0.961 . S
H461 C447 0.958 . S
H462 C447 0.961 . S
H463 C447 0.960 . S
C464 C465 1.391 . S
C464 C466 1.394 . S
C464 H480 0.931 . S
C465 C464 1.391 . S
C465 C469 1.376 . S
C466 C464 1.394 . S
C466 C467 1.369 . S
C466 C470 1.531 . S
C467 C466 1.369 . S
C467 C468 1.410 . S
C467 C475 1.503 1_565 S
C468 C467 1.410 . S
C468 C469 1.392 . S
C468 C471 1.511 1_565 S
C469 C465 1.376 . S
C469 C468 1.392 . S
C469 H481 0.929 . S
C470 C466 1.531 . S
C470 H482 0.960 . S
C470 H483 0.962 . S
C470 H484 0.960 . S
C471 C468 1.511 1_545 S
C471 H485 0.961 . S
C471 H486 0.961 . S
C471 H487 0.961 . S
C472 C473 1.370 . S
C472 C474 1.363 . S
C472 H488 0.931 . S
C473 C472 1.370 . S
C473 C477 1.408 . S
C474 C472 1.363 . S
C474 C475 1.370 . S
C474 C478 1.524 1_545 S
C475 C467 1.503 1_545 S
C475 C474 1.370 . S
C475 C476 1.403 . S
C476 C475 1.403 . S
C476 C477 1.404 . S
C476 C479 1.539 . S
C477 C473 1.408 . S
C477 C476 1.404 . S
C477 H489 0.930 . S
C478 C474 1.524 1_565 S
C478 H490 0.956 . S
C478 H491 0.961 . S
C478 H492 0.961 . S
C479 C476 1.539 . S
C479 H493 0.958 . S
C479 H494 0.961 . S
C479 H495 0.960 . S
H480 C464 0.931 . S
H481 C469 0.929 . S
H482 C470 0.960 . S
H483 C470 0.962 . S
H484 C470 0.960 . S
H485 C471 0.961 . S
H486 C471 0.961 . S
H487 C471 0.961 . S
H488 C472 0.931 . S
H489 C477 0.930 . S
H490 C478 0.956 . S
H491 C478 0.961 . S
H492 C478 0.961 . S
H493 C479 0.958 . S
H494 C479 0.961 . S
H495 C479 0.960 . S
C496 C497 1.391 . S
C496 C498 1.394 . S
C496 H512 0.931 . S
C497 C496 1.391 . S
C497 C501 1.376 . S
C498 C496 1.394 . S
C498 C499 1.369 . S
C498 C502 1.531 . S
C499 C498 1.369 . S
C499 C500 1.410 . S
C499 C507 1.503 1_545 S
C500 C499 1.410 . S
C500 C501 1.392 . S
C500 C503 1.511 1_545 S
C501 C497 1.376 . S
C501 C500 1.392 . S
C501 H513 0.929 . S
C502 C498 1.531 . S
C502 H514 0.960 1_545 S
C502 H515 0.962 . S
C502 H516 0.960 . S
C503 C500 1.511 1_565 S
C503 H517 0.961 1_565 S
C503 H518 0.961 . S
C503 H519 0.961 . S
C504 C505 1.370 . S
C504 C506 1.363 . S
C504 H520 0.931 . S
C505 C504 1.370 . S
C505 C509 1.408 . S
C506 C504 1.363 . S
C506 C507 1.370 . S
C506 C510 1.524 1_565 S
C507 C499 1.503 1_565 S
C507 C506 1.370 . S
C507 C508 1.403 . S
C508 C507 1.403 . S
C508 C509 1.404 . S
C508 C511 1.539 . S
C509 C505 1.408 . S
C509 C508 1.404 . S
C509 H521 0.930 . S
C510 C506 1.524 1_545 S
C510 H522 0.956 . S
C510 H523 0.961 . S
C510 H524 0.961 . S
C511 C508 1.539 . S
C511 H525 0.958 . S
C511 H526 0.961 . S
C511 H527 0.960 . S
H512 C496 0.931 . S
H513 C501 0.929 . S
H514 C502 0.960 1_565 S
H515 C502 0.962 . S
H516 C502 0.960 . S
H517 C503 0.961 1_545 S
H518 C503 0.961 . S
H519 C503 0.961 . S
H520 C504 0.931 . S
H521 C509 0.930 . S
H522 C510 0.956 . S
H523 C510 0.961 . S
H524 C510 0.961 . S
H525 C511 0.958 . S
H526 C511 0.961 . S
H527 C511 0.960 . S
C528 C529 1.391 . S
C528 C530 1.394 . S
C528 H544 0.931 . S
C529 C528 1.391 . S
C529 C533 1.376 . S
C530 C528 1.394 . S
C530 C531 1.369 . S
C530 C534 1.531 1_565 S
C531 C530 1.369 . S
C531 C532 1.410 . S
C531 C539 1.503 1_565 S
C532 C531 1.410 . S
C532 C533 1.392 . S
C532 C535 1.511 . S
C533 C529 1.376 . S
C533 C532 1.392 . S
C533 H545 0.929 . S
C534 C530 1.531 1_545 S
C534 H546 0.960 . S
C534 H547 0.962 . S
C534 H548 0.960 . S
C535 C532 1.511 . S
C535 H549 0.961 . S
C535 H550 0.961 . S
C535 H551 0.961 . S
C536 C537 1.370 . S
C536 C538 1.363 . S
C536 H552 0.931 . S
C537 C536 1.370 . S
C537 C541 1.408 . S
C538 C536 1.363 . S
C538 C539 1.370 . S
C538 C542 1.524 1_545 S
C539 C531 1.503 1_545 S
C539 C538 1.370 . S
C539 C540 1.403 . S
C540 C539 1.403 . S
C540 C541 1.404 . S
C540 C543 1.539 . S
C541 C537 1.408 . S
C541 C540 1.404 . S
C541 H553 0.930 . S
C542 C538 1.524 1_565 S
C542 H554 0.956 . S
C542 H555 0.961 . S
C542 H556 0.961 . S
C543 C540 1.539 . S
C543 H557 0.958 . S
C543 H558 0.961 . S
C543 H559 0.960 . S
H544 C528 0.931 . S
H545 C533 0.929 . S
H546 C534 0.960 . S
H547 C534 0.962 . S
H548 C534 0.960 . S
H549 C535 0.961 . S
H550 C535 0.961 . S
H551 C535 0.961 . S
H552 C536 0.931 . S
H553 C541 0.930 . S
H554 C542 0.956 . S
H555 C542 0.961 . S
H556 C542 0.961 . S
H557 C543 0.958 . S
H558 C543 0.961 . S
H559 C543 0.960 . S
C560 C561 1.391 . S
C560 C562 1.394 . S
C560 H576 0.931 . S
C561 C560 1.391 . S
C561 C565 1.376 . S
C562 C560 1.394 . S
C562 C563 1.369 . S
C562 C566 1.531 . S
C563 C562 1.369 . S
C563 C564 1.410 . S
C563 C571 1.503 1_565 S
C564 C563 1.410 . S
C564 C565 1.392 . S
C564 C567 1.511 1_565 S
C565 C561 1.376 . S
C565 C564 1.392 . S
C565 H577 0.929 . S
C566 C562 1.531 . S
C566 H578 0.960 . S
C566 H579 0.962 . S
C566 H580 0.960 . S
C567 C564 1.511 1_545 S
C567 H581 0.961 . S
C567 H582 0.961 . S
C567 H583 0.961 . S
C568 C569 1.370 . S
C568 C570 1.363 . S
C568 H584 0.931 . S
C569 C568 1.370 . S
C569 C573 1.408 . S
C570 C568 1.363 . S
C570 C571 1.370 . S
C570 C574 1.524 . S
C571 C563 1.503 1_545 S
C571 C570 1.370 . S
C571 C572 1.403 . S
C572 C571 1.403 . S
C572 C573 1.404 . S
C572 C575 1.539 1_545 S
C573 C569 1.408 . S
C573 C572 1.404 . S
C573 H585 0.930 . S
C574 C570 1.524 . S
C574 H586 0.956 . S
C574 H587 0.961 . S
C574 H588 0.961 . S
C575 C572 1.539 1_565 S
C575 H589 0.958 . S
C575 H590 0.961 1_565 S
C575 H591 0.960 . S
H576 C560 0.931 . S
H577 C565 0.929 . S
H578 C566 0.960 . S
H579 C566 0.962 . S
H580 C566 0.960 . S
H581 C567 0.961 . S
H582 C567 0.961 . S
H583 C567 0.961 . S
H584 C568 0.931 . S
H585 C573 0.930 . S
H586 C574 0.956 . S
H587 C574 0.961 . S
H588 C574 0.961 . S
H589 C575 0.958 . S
H590 C575 0.961 1_545 S
H591 C575 0.960 . S
C592 C593 1.391 . S
C592 C594 1.394 . S
C592 H608 0.931 . S
C593 C592 1.391 . S
C593 C597 1.376 . S
C594 C592 1.394 . S
C594 C595 1.369 . S
C594 C598 1.531 1_545 S
C595 C594 1.369 . S
C595 C596 1.410 . S
C595 C603 1.503 1_545 S
C596 C595 1.410 . S
C596 C597 1.392 . S
C596 C599 1.511 . S
C597 C593 1.376 . S
C597 C596 1.392 . S
C597 H609 0.929 . S
C598 C594 1.531 1_565 S
C598 H610 0.960 . S
C598 H611 0.962 . S
C598 H612 0.960 . S
C599 C596 1.511 . S
C599 H613 0.961 . S
C599 H614 0.961 . S
C599 H615 0.961 . S
C600 C601 1.370 . S
C600 C602 1.363 . S
C600 H616 0.931 . S
C601 C600 1.370 . S
C601 C605 1.408 . S
C602 C600 1.363 . S
C602 C603 1.370 . S
C602 C606 1.524 . S
C603 C595 1.503 1_565 S
C603 C602 1.370 . S
C603 C604 1.403 . S
C604 C603 1.403 . S
C604 C605 1.404 . S
C604 C607 1.539 . S
C605 C601 1.408 . S
C605 C604 1.404 . S
C605 H617 0.930 . S
C606 C602 1.524 . S
C606 H618 0.956 . S
C606 H619 0.961 1_565 S
C606 H620 0.961 . S
C607 C604 1.539 . S
C607 H621 0.958 . S
C607 H622 0.961 . S
C607 H623 0.960 1_565 S
H608 C592 0.931 . S
H609 C597 0.929 . S
H610 C598 0.960 . S
H611 C598 0.962 . S
H612 C598 0.960 . S
H613 C599 0.961 . S
H614 C599 0.961 . S
H615 C599 0.961 . S
H616 C600 0.931 . S
H617 C605 0.930 . S
H618 C606 0.956 . S
H619 C606 0.961 1_545 S
H620 C606 0.961 . S
H621 C607 0.958 . S
H622 C607 0.961 . S
H623 C607 0.960 1_545 S
C624 C625 1.391 . S
C624 C626 1.394 . S
C624 H640 0.931 . S
C625 C624 1.391 . S
C625 C629 1.376 . S
C626 C624 1.394 . S
C626 C627 1.369 . S
C626 C630 1.531 1_565 S
C627 C626 1.369 . S
C627 C628 1.410 . S
C627 C635 1.503 1_565 S
C628 C627 1.410 . S
C628 C629 1.392 . S
C628 C631 1.511 . S
C629 C625 1.376 . S
C629 C628 1.392 . S
C629 H641 0.929 . S
C630 C626 1.531 1_545 S
C630 H642 0.960 . S
C630 H643 0.962 . S
C630 H644 0.960 . S
C631 C628 1.511 . S
C631 H645 0.961 . S
C631 H646 0.961 . S
C631 H647 0.961 . S
C632 C633 1.370 . S
C632 C634 1.363 . S
C632 H648 0.931 . S
C633 C632 1.370 . S
C633 C637 1.408 . S
C634 C632 1.363 . S
C634 C635 1.370 . S
C634 C638 1.524 . S
C635 C627 1.503 1_545 S
C635 C634 1.370 . S
C635 C636 1.403 . S
C636 C635 1.403 . S
C636 C637 1.404 . S
C636 C639 1.539 . S
C637 C633 1.408 . S
C637 C636 1.404 . S
C637 H649 0.930 . S
C638 C634 1.524 . S
C638 H650 0.956 . S
C638 H651 0.961 1_545 S
C638 H652 0.961 . S
C639 C636 1.539 . S
C639 H653 0.958 . S
C639 H654 0.961 1_545 S
C639 H655 0.960 1_545 S
H640 C624 0.931 . S
H641 C629 0.929 . S
H642 C630 0.960 . S
H643 C630 0.962 . S
H644 C630 0.960 . S
H645 C631 0.961 . S
H646 C631 0.961 . S
H647 C631 0.961 . S
H648 C632 0.931 . S
H649 C637 0.930 . S
H650 C638 0.956 . S
H651 C638 0.961 1_565 S
H652 C638 0.961 . S
H653 C639 0.958 . S
H654 C639 0.961 1_565 S
H655 C639 0.960 1_565 S
C656 C657 1.391 . S
C656 C658 1.394 . S
C656 H672 0.931 . S
C657 C656 1.391 . S
C657 C661 1.376 . S
C658 C656 1.394 . S
C658 C659 1.369 . S
C658 C662 1.531 1_565 S
C659 C658 1.369 . S
C659 C660 1.410 . S
C659 C667 1.503 1_565 S
C660 C659 1.410 . S
C660 C661 1.392 . S
C660 C663 1.511 . S
C661 C657 1.376 . S
C661 C660 1.392 . S
C661 H673 0.929 . S
C662 C658 1.531 1_545 S
C662 H674 0.960 . S
C662 H675 0.962 . S
C662 H676 0.960 . S
C663 C660 1.511 . S
C663 H677 0.961 . S
C663 H678 0.961 . S
C663 H679 0.961 . S
C664 C665 1.370 . S
C664 C666 1.363 . S
C664 H680 0.931 . S
C665 C664 1.370 . S
C665 C669 1.408 . S
C666 C664 1.363 . S
C666 C667 1.370 . S
C666 C670 1.524 1_545 S
C667 C659 1.503 1_545 S
C667 C666 1.370 . S
C667 C668 1.403 . S
C668 C667 1.403 . S
C668 C669 1.404 . S
C668 C671 1.539 . S
C669 C665 1.408 . S
C669 C668 1.404 . S
C669 H681 0.930 . S
C670 C666 1.524 1_565 S
C670 H682 0.956 1_565 S
C670 H683 0.961 . S
C670 H684 0.961 1_565 S
C671 C668 1.539 . S
C671 H685 0.958 . S
C671 H686 0.961 . S
C671 H687 0.960 . S
H672 C656 0.931 . S
H673 C661 0.929 . S
H674 C662 0.960 . S
H675 C662 0.962 . S
H676 C662 0.960 . S
H677 C663 0.961 . S
H678 C663 0.961 . S
H679 C663 0.961 . S
H680 C664 0.931 . S
H681 C669 0.930 . S
H682 C670 0.956 1_545 S
H683 C670 0.961 . S
H684 C670 0.961 1_545 S
H685 C671 0.958 . S
H686 C671 0.961 . S
H687 C671 0.960 . S
C688 C689 1.391 . S
C688 C690 1.394 . S
C688 H704 0.931 . S
C689 C688 1.391 . S
C689 C693 1.376 . S
C690 C688 1.394 . S
C690 C691 1.369 . S
C690 C694 1.531 . S
C691 C690 1.369 . S
C691 C692 1.410 . S
C691 C699 1.503 . S
C692 C691 1.410 . S
C692 C693 1.392 . S
C692 C695 1.511 . S
C693 C689 1.376 . S
C693 C692 1.392 . S
C693 H705 0.929 . S
C694 C690 1.531 . S
C694 H706 0.960 . S
C694 H707 0.962 . S
C694 H708 0.960 . S
C695 C692 1.511 . S
C695 H709 0.961 . S
C695 H710 0.961 . S
C695 H711 0.961 . S
C696 C697 1.370 . S
C696 C698 1.363 . S
C696 H712 0.931 . S
C697 C696 1.370 . S
C697 C701 1.408 . S
C698 C696 1.363 . S
C698 C699 1.370 . S
C698 C702 1.524 . S
C699 C691 1.503 . S
C699 C698 1.370 . S
C699 C700 1.403 . S
C700 C699 1.403 . S
C700 C701 1.404 . S
C700 C703 1.539 . S
C701 C697 1.408 . S
C701 C700 1.404 . S
C701 H713 0.930 . S
C702 C698 1.524 . S
C702 H714 0.956 . S
C702 H715 0.961 . S
C702 H716 0.961 . S
C703 C700 1.539 . S
C703 H717 0.958 . S
C703 H718 0.961 . S
C703 H719 0.960 . S
H704 C688 0.931 . S
H705 C693 0.929 . S
H706 C694 0.960 . S
H707 C694 0.962 . S
H708 C694 0.960 . S
H709 C695 0.961 . S
H710 C695 0.961 . S
H711 C695 0.961 . S
H712 C696 0.931 . S
H713 C701 0.930 . S
H714 C702 0.956 . S
H715 C702 0.961 . S
H716 C702 0.961 . S
H717 C703 0.958 . S
H718 C703 0.961 . S
H719 C703 0.960 . S
C720 C721 1.391 . S
C720 C722 1.394 . S
C720 H736 0.931 . S
C721 C720 1.391 . S
C721 C725 1.376 . S
C722 C720 1.394 . S
C722 C723 1.369 . S
C722 C726 1.531 . S
C723 C722 1.369 . S
C723 C724 1.410 . S
C723 C731 1.503 . S
C724 C723 1.410 . S
C724 C725 1.392 . S
C724 C727 1.511 . S
C725 C721 1.376 . S
C725 C724 1.392 . S
C725 H737 0.929 . S
C726 C722 1.531 . S
C726 H738 0.960 . S
C726 H739 0.962 . S
C726 H740 0.960 . S
C727 C724 1.511 . S
C727 H741 0.961 . S
C727 H742 0.961 . S
C727 H743 0.961 . S
C728 C729 1.370 . S
C728 C730 1.363 . S
C728 H744 0.931 . S
C729 C728 1.370 . S
C729 C733 1.408 . S
C730 C728 1.363 . S
C730 C731 1.370 . S
C730 C734 1.524 . S
C731 C723 1.503 . S
C731 C730 1.370 . S
C731 C732 1.403 . S
C732 C731 1.403 . S
C732 C733 1.404 . S
C732 C735 1.539 . S
C733 C729 1.408 . S
C733 C732 1.404 . S
C733 H745 0.930 . S
C734 C730 1.524 . S
C734 H746 0.956 . S
C734 H747 0.961 . S
C734 H748 0.961 . S
C735 C732 1.539 . S
C735 H749 0.958 . S
C735 H750 0.961 . S
C735 H751 0.960 . S
H736 C720 0.931 . S
H737 C725 0.929 . S
H738 C726 0.960 . S
H739 C726 0.962 . S
H740 C726 0.960 . S
H741 C727 0.961 . S
H742 C727 0.961 . S
H743 C727 0.961 . S
H744 C728 0.931 . S
H745 C733 0.930 . S
H746 C734 0.956 . S
H747 C734 0.961 . S
H748 C734 0.961 . S
H749 C735 0.958 . S
H750 C735 0.961 . S
H751 C735 0.960 . S
C752 C753 1.391 . S
C752 C754 1.394 . S
C752 H768 0.931 . S
C753 C752 1.391 . S
C753 C757 1.376 . S
C754 C752 1.394 . S
C754 C755 1.369 . S
C754 C758 1.531 . S
C755 C754 1.369 . S
C755 C756 1.410 . S
C755 C763 1.503 . S
C756 C755 1.410 . S
C756 C757 1.392 . S
C756 C759 1.511 . S
C757 C753 1.376 . S
C757 C756 1.392 . S
C757 H769 0.929 . S
C758 C754 1.531 . S
C758 H770 0.960 . S
C758 H771 0.962 . S
C758 H772 0.960 . S
C759 C756 1.511 . S
C759 H773 0.961 . S
C759 H774 0.961 . S
C759 H775 0.961 . S
C760 C761 1.370 . S
C760 C762 1.363 . S
C760 H776 0.931 . S
C761 C760 1.370 . S
C761 C765 1.408 . S
C762 C760 1.363 . S
C762 C763 1.370 . S
C762 C766 1.524 . S
C763 C755 1.503 . S
C763 C762 1.370 . S
C763 C764 1.403 . S
C764 C763 1.403 . S
C764 C765 1.404 . S
C764 C767 1.539 . S
C765 C761 1.408 . S
C765 C764 1.404 . S
C765 H777 0.930 . S
C766 C762 1.524 . S
C766 H778 0.956 . S
C766 H779 0.961 . S
C766 H780 0.961 . S
C767 C764 1.539 . S
C767 H781 0.958 . S
C767 H782 0.961 . S
C767 H783 0.960 . S
H768 C752 0.931 . S
H769 C757 0.929 . S
H770 C758 0.960 . S
H771 C758 0.962 . S
H772 C758 0.960 . S
H773 C759 0.961 . S
H774 C759 0.961 . S
H775 C759 0.961 . S
H776 C760 0.931 . S
H777 C765 0.930 . S
H778 C766 0.956 . S
H779 C766 0.961 . S
H780 C766 0.961 . S
H781 C767 0.958 . S
H782 C767 0.961 . S
H783 C767 0.960 . S
C784 C785 1.391 . S
C784 C786 1.394 . S
C784 H800 0.931 . S
C785 C784 1.391 . S
C785 C789 1.376 . S
C786 C784 1.394 . S
C786 C787 1.369 . S
C786 C790 1.531 . S
C787 C786 1.369 . S
C787 C788 1.410 . S
C787 C795 1.503 . S
C788 C787 1.410 . S
C788 C789 1.392 . S
C788 C791 1.511 . S
C789 C785 1.376 . S
C789 C788 1.392 . S
C789 H801 0.929 . S
C790 C786 1.531 . S
C790 H802 0.960 . S
C790 H803 0.962 . S
C790 H804 0.960 . S
C791 C788 1.511 . S
C791 H805 0.961 . S
C791 H806 0.961 . S
C791 H807 0.961 . S
C792 C793 1.370 . S
C792 C794 1.363 . S
C792 H808 0.931 . S
C793 C792 1.370 . S
C793 C797 1.408 . S
C794 C792 1.363 . S
C794 C795 1.370 . S
C794 C798 1.524 . S
C795 C787 1.503 . S
C795 C794 1.370 . S
C795 C796 1.403 . S
C796 C795 1.403 . S
C796 C797 1.404 . S
C796 C799 1.539 . S
C797 C793 1.408 . S
C797 C796 1.404 . S
C797 H809 0.930 . S
C798 C794 1.524 . S
C798 H810 0.956 . S
C798 H811 0.961 . S
C798 H812 0.961 . S
C799 C796 1.539 . S
C799 H813 0.958 . S
C799 H814 0.961 . S
C799 H815 0.960 . S
H800 C784 0.931 . S
H801 C789 0.929 . S
H802 C790 0.960 . S
H803 C790 0.962 . S
H804 C790 0.960 . S
H805 C791 0.961 . S
H806 C791 0.961 . S
H807 C791 0.961 . S
H808 C792 0.931 . S
H809 C797 0.930 . S
H810 C798 0.956 . S
H811 C798 0.961 . S
H812 C798 0.961 . S
H813 C799 0.958 . S
H814 C799 0.961 . S
H815 C799 0.960 . S
C816 C817 1.391 . S
C816 C818 1.394 . S
C816 H832 0.931 . S
C817 C816 1.391 . S
C817 C821 1.376 . S
C818 C816 1.394 . S
C818 C819 1.369 . S
C818 C822 1.531 . S
C819 C818 1.369 . S
C819 C820 1.410 . S
C819 C827 1.503 . S
C820 C819 1.410 . S
C820 C821 1.392 . S
C820 C823 1.511 . S
C821 C817 1.376 . S
C821 C820 1.392 . S
C821 H833 0.929 . S
C822 C818 1.531 . S
C822 H834 0.960 . S
C822 H835 0.962 . S
C822 H836 0.960 . S
C823 C820 1.511 . S
C823 H837 0.961 . S
C823 H838 0.961 . S
C823 H839 0.961 . S
C824 C825 1.370 . S
C824 C826 1.363 . S
C824 H840 0.931 . S
C825 C824 1.370 . S
C825 C829 1.408 . S
C826 C824 1.363 . S
C826 C827 1.370 . S
C826 C830 1.524 . S
C827 C819 1.503 . S
C827 C826 1.370 . S
C827 C828 1.403 . S
C828 C827 1.403 . S
C828 C829 1.404 . S
C828 C831 1.539 . S
C829 C825 1.408 . S
C829 C828 1.404 . S
C829 H841 0.930 . S
C830 C826 1.524 . S
C830 H842 0.956 . S
C830 H843 0.961 . S
C830 H844 0.961 . S
C831 C828 1.539 . S
C831 H845 0.958 . S
C831 H846 0.961 . S
C831 H847 0.960 . S
H832 C816 0.931 . S
H833 C821 0.929 . S
H834 C822 0.960 . S
H835 C822 0.962 . S
H836 C822 0.960 . S
H837 C823 0.961 . S
H838 C823 0.961 . S
H839 C823 0.961 . S
H840 C824 0.931 . S
H841 C829 0.930 . S
H842 C830 0.956 . S
H843 C830 0.961 . S
H844 C830 0.961 . S
H845 C831 0.958 . S
H846 C831 0.961 . S
H847 C831 0.960 . S
C848 C849 1.391 . S
C848 C850 1.394 . S
C848 H864 0.931 . S
C849 C848 1.391 . S
C849 C853 1.376 . S
C850 C848 1.394 . S
C850 C851 1.369 . S
C850 C854 1.531 . S
C851 C850 1.369 . S
C851 C852 1.410 . S
C851 C859 1.503 . S
C852 C851 1.410 . S
C852 C853 1.392 . S
C852 C855 1.511 . S
C853 C849 1.376 . S
C853 C852 1.392 . S
C853 H865 0.929 . S
C854 C850 1.531 . S
C854 H866 0.960 . S
C854 H867 0.962 . S
C854 H868 0.960 . S
C855 C852 1.511 . S
C855 H869 0.961 . S
C855 H870 0.961 . S
C855 H871 0.961 . S
C856 C857 1.370 . S
C856 C858 1.363 . S
C856 H872 0.931 . S
C857 C856 1.370 . S
C857 C861 1.408 . S
C858 C856 1.363 . S
C858 C859 1.370 . S
C858 C862 1.524 . S
C859 C851 1.503 . S
C859 C858 1.370 . S
C859 C860 1.403 . S
C860 C859 1.403 . S
C860 C861 1.404 . S
C860 C863 1.539 . S
C861 C857 1.408 . S
C861 C860 1.404 . S
C861 H873 0.930 . S
C862 C858 1.524 . S
C862 H874 0.956 . S
C862 H875 0.961 . S
C862 H876 0.961 . S
C863 C860 1.539 . S
C863 H877 0.958 . S
C863 H878 0.961 . S
C863 H879 0.960 . S
H864 C848 0.931 . S
H865 C853 0.929 . S
H866 C854 0.960 . S
H867 C854 0.962 . S
H868 C854 0.960 . S
H869 C855 0.961 . S
H870 C855 0.961 . S
H871 C855 0.961 . S
H872 C856 0.931 . S
H873 C861 0.930 . S
H874 C862 0.956 . S
H875 C862 0.961 . S
H876 C862 0.961 . S
H877 C863 0.958 . S
H878 C863 0.961 . S
H879 C863 0.960 . S
C880 C881 1.391 . S
C880 C882 1.394 . S
C880 H896 0.931 . S
C881 C880 1.391 . S
C881 C885 1.376 . S
C882 C880 1.394 . S
C882 C883 1.369 . S
C882 C886 1.531 . S
C883 C882 1.369 . S
C883 C884 1.410 . S
C883 C891 1.503 . S
C884 C883 1.410 . S
C884 C885 1.392 . S
C884 C887 1.511 . S
C885 C881 1.376 . S
C885 C884 1.392 . S
C885 H897 0.929 . S
C886 C882 1.531 . S
C886 H898 0.960 . S
C886 H899 0.962 . S
C886 H900 0.960 . S
C887 C884 1.511 . S
C887 H901 0.961 . S
C887 H902 0.961 . S
C887 H903 0.961 . S
C888 C889 1.370 . S
C888 C890 1.363 . S
C888 H904 0.931 . S
C889 C888 1.370 . S
C889 C893 1.408 . S
C890 C888 1.363 . S
C890 C891 1.370 . S
C890 C894 1.524 . S
C891 C883 1.503 . S
C891 C890 1.370 . S
C891 C892 1.403 . S
C892 C891 1.403 . S
C892 C893 1.404 . S
C892 C895 1.539 . S
C893 C889 1.408 . S
C893 C892 1.404 . S
C893 H905 0.930 . S
C894 C890 1.524 . S
C894 H906 0.956 . S
C894 H907 0.961 . S
C894 H908 0.961 . S
C895 C892 1.539 . S
C895 H909 0.958 . S
C895 H910 0.961 . S
C895 H911 0.960 . S
H896 C880 0.931 . S
H897 C885 0.929 . S
H898 C886 0.960 . S
H899 C886 0.962 . S
H900 C886 0.960 . S
H901 C887 0.961 . S
H902 C887 0.961 . S
H903 C887 0.961 . S
H904 C888 0.931 . S
H905 C893 0.930 . S
H906 C894 0.956 . S
H907 C894 0.961 . S
H908 C894 0.961 . S
H909 C895 0.958 . S
H910 C895 0.961 . S
H911 C895 0.960 . S
C912 C913 1.391 . S
C912 C914 1.394 . S
C912 H928 0.931 . S
C913 C912 1.391 . S
C913 C917 1.376 . S
C914 C912 1.394 . S
C914 C915 1.369 . S
C914 C918 1.531 . S
C915 C914 1.369 . S
C915 C916 1.410 . S
C915 C923 1.503 . S
C916 C915 1.410 . S
C916 C917 1.392 . S
C916 C919 1.511 . S
C917 C913 1.376 . S
C917 C916 1.392 . S
C917 H929 0.929 . S
C918 C914 1.531 . S
C918 H930 0.960 . S
C918 H931 0.962 . S
C918 H932 0.960 . S
C919 C916 1.511 . S
C919 H933 0.961 . S
C919 H934 0.961 . S
C919 H935 0.961 . S
C920 C921 1.370 . S
C920 C922 1.363 . S
C920 H936 0.931 . S
C921 C920 1.370 . S
C921 C925 1.408 . S
C922 C920 1.363 . S
C922 C923 1.370 . S
C922 C926 1.524 . S
C923 C915 1.503 . S
C923 C922 1.370 . S
C923 C924 1.403 . S
C924 C923 1.403 . S
C924 C925 1.404 . S
C924 C927 1.539 . S
C925 C921 1.408 . S
C925 C924 1.404 . S
C925 H937 0.930 . S
C926 C922 1.524 . S
C926 H938 0.956 . S
C926 H939 0.961 . S
C926 H940 0.961 . S
C927 C924 1.539 . S
C927 H941 0.958 . S
C927 H942 0.961 . S
C927 H943 0.960 . S
H928 C912 0.931 . S
H929 C917 0.929 . S
H930 C918 0.960 . S
H931 C918 0.962 . S
H932 C918 0.960 . S
H933 C919 0.961 . S
H934 C919 0.961 . S
H935 C919 0.961 . S
H936 C920 0.931 . S
H937 C925 0.930 . S
H938 C926 0.956 . S
H939 C926 0.961 . S
H940 C926 0.961 . S
H941 C927 0.958 . S
H942 C927 0.961 . S
H943 C927 0.960 . S
C177 C7 1.478 . S
C185 C97 1.455 . S
C209 C119 1.466 . S
C217 C29 1.463 . S
C241 C49 1.441 . S
C249 C138 1.469 . S
C273 C71 1.447 . S
C281 C160 1.468 . S
C305 C73 1.479 . S
C313 C163 1.453 . S
C337 C116 1.457 . S
C345 C27 1.463 . S
C369 C141 1.474 . S
C377 C51 1.456 . S
C401 C5 1.443 . S
C409 C94 1.468 . S
C433 C115 1.510 . S
C441 C4 1.504 . S
C465 C26 1.490 . S
C473 C140 1.489 . S
C497 C162 1.481 . S
C505 C53 1.488 . S
C529 C93 1.509 . S
C537 C75 1.497 . S
C561 C92 1.484 . S
C569 C72 1.492 . S
C593 C158 1.507 . S
C601 C52 1.501 . S
C625 C30 1.509 . S
C633 C139 1.502 . S
C657 C117 1.503 . S
C665 C6 1.498 . S
C689 C159 1.488 . S
C697 C48 1.492 . S
C721 C96 1.494 . S
C729 C70 1.493 . S
C753 C118 1.492 . S
C761 C9 1.492 . S
C785 C31 1.505 . S
C793 C137 1.497 . S
C817 C136 1.486 . S
C825 C28 1.497 . S
C849 C8 1.512 . S
C857 C114 1.501 . S
C881 C95 1.474 . S
C889 C74 1.489 . S
C913 C161 1.503 . S
C921 C50 1.503 . S
