# Generated by pormake.
# Topology bcu-j, (5)-cn, num edge types: 1
# Building blocks:
#     Node 0, Type 0, BuildingBlock: XOMCOT_clean_sbu_0, # of connection points: 5
#     Node 1, Type 0, BuildingBlock: XOMCOT_clean_sbu_0, # of connection points: 5
#     Node 2, Type 0, BuildingBlock: XOMCOT_clean_sbu_0, # of connection points: 5
#     Node 3, Type 0, BuildingBlock: XOMCOT_clean_sbu_0, # of connection points: 5
#     Node 4, Type 0, BuildingBlock: XOMCOT_clean_sbu_0, # of connection points: 5
#     Node 5, Type 0, BuildingBlock: XOMCOT_clean_sbu_0, # of connection points: 5
#     Node 6, Type 0, BuildingBlock: XOMCOT_clean_sbu_0, # of connection points: 5
#     Node 7, Type 0, BuildingBlock: XOMCOT_clean_sbu_0, # of connection points: 5
#     Node 8, Type 0, BuildingBlock: XOMCOT_clean_sbu_0, # of connection points: 5
#     Node 9, Type 0, BuildingBlock: XOMCOT_clean_sbu_0, # of connection points: 5
#     Node 10, Type 0, BuildingBlock: XOMCOT_clean_sbu_0, # of connection points: 5
#     Node 11, Type 0, BuildingBlock: XOMCOT_clean_sbu_0, # of connection points: 5
#     Node 12, Type 0, BuildingBlock: XOMCOT_clean_sbu_0, # of connection points: 5
#     Node 13, Type 0, BuildingBlock: XOMCOT_clean_sbu_0, # of connection points: 5
#     Node 14, Type 0, BuildingBlock: XOMCOT_clean_sbu_0, # of connection points: 5
#     Node 15, Type 0, BuildingBlock: XOMCOT_clean_sbu_0, # of connection points: 5
#     Edge 16, Type (0, 0), BuildingBlock: ZUJKAS_clean_linker_0, # of connection points: 2
#     Edge 17, Type (0, 0), BuildingBlock: ZUJKAS_clean_linker_0, # of connection points: 2
#     Edge 18, Type (0, 0), BuildingBlock: ZUJKAS_clean_linker_0, # of connection points: 2
#     Edge 19, Type (0, 0), BuildingBlock: ZUJKAS_clean_linker_0, # of connection points: 2
#     Edge 20, Type (0, 0), BuildingBlock: ZUJKAS_clean_linker_0, # of connection points: 2
#     Edge 21, Type (0, 0), BuildingBlock: ZUJKAS_clean_linker_0, # of connection points: 2
#     Edge 22, Type (0, 0), BuildingBlock: ZUJKAS_clean_linker_0, # of connection points: 2
#     Edge 23, Type (0, 0), BuildingBlock: ZUJKAS_clean_linker_0, # of connection points: 2
#     Edge 24, Type (0, 0), BuildingBlock: ZUJKAS_clean_linker_0, # of connection points: 2
#     Edge 25, Type (0, 0), BuildingBlock: ZUJKAS_clean_linker_0, # of connection points: 2
#     Edge 26, Type (0, 0), BuildingBlock: ZUJKAS_clean_linker_0, # of connection points: 2
#     Edge 27, Type (0, 0), BuildingBlock: ZUJKAS_clean_linker_0, # of connection points: 2
#     Edge 28, Type (0, 0), BuildingBlock: ZUJKAS_clean_linker_0, # of connection points: 2
#     Edge 29, Type (0, 0), BuildingBlock: ZUJKAS_clean_linker_0, # of connection points: 2
#     Edge 30, Type (0, 0), BuildingBlock: ZUJKAS_clean_linker_0, # of connection points: 2
#     Edge 31, Type (0, 0), BuildingBlock: ZUJKAS_clean_linker_0, # of connection points: 2
#     Edge 32, Type (0, 0), BuildingBlock: ZUJKAS_clean_linker_0, # of connection points: 2
#     Edge 33, Type (0, 0), BuildingBlock: ZUJKAS_clean_linker_0, # of connection points: 2
#     Edge 34, Type (0, 0), BuildingBlock: ZUJKAS_clean_linker_0, # of connection points: 2
#     Edge 35, Type (0, 0), BuildingBlock: ZUJKAS_clean_linker_0, # of connection points: 2
#     Edge 36, Type (0, 0), BuildingBlock: ZUJKAS_clean_linker_0, # of connection points: 2
#     Edge 37, Type (0, 0), BuildingBlock: ZUJKAS_clean_linker_0, # of connection points: 2
#     Edge 38, Type (0, 0), BuildingBlock: ZUJKAS_clean_linker_0, # of connection points: 2
#     Edge 39, Type (0, 0), BuildingBlock: ZUJKAS_clean_linker_0, # of connection points: 2
#     Edge 40, Type (0, 0), BuildingBlock: ZUJKAS_clean_linker_0, # of connection points: 2
#     Edge 41, Type (0, 0), BuildingBlock: ZUJKAS_clean_linker_0, # of connection points: 2
#     Edge 42, Type (0, 0), BuildingBlock: ZUJKAS_clean_linker_0, # of connection points: 2
#     Edge 43, Type (0, 0), BuildingBlock: ZUJKAS_clean_linker_0, # of connection points: 2
#     Edge 44, Type (0, 0), BuildingBlock: ZUJKAS_clean_linker_0, # of connection points: 2
#     Edge 45, Type (0, 0), BuildingBlock: ZUJKAS_clean_linker_0, # of connection points: 2
#     Edge 46, Type (0, 0), BuildingBlock: ZUJKAS_clean_linker_0, # of connection points: 2
#     Edge 47, Type (0, 0), BuildingBlock: ZUJKAS_clean_linker_0, # of connection points: 2
#     Edge 48, Type (0, 0), BuildingBlock: ZUJKAS_clean_linker_0, # of connection points: 2
#     Edge 49, Type (0, 0), BuildingBlock: ZUJKAS_clean_linker_0, # of connection points: 2
#     Edge 50, Type (0, 0), BuildingBlock: ZUJKAS_clean_linker_0, # of connection points: 2
#     Edge 51, Type (0, 0), BuildingBlock: ZUJKAS_clean_linker_0, # of connection points: 2
#     Edge 52, Type (0, 0), BuildingBlock: ZUJKAS_clean_linker_0, # of connection points: 2
#     Edge 53, Type (0, 0), BuildingBlock: ZUJKAS_clean_linker_0, # of connection points: 2
#     Edge 54, Type (0, 0), BuildingBlock: ZUJKAS_clean_linker_0, # of connection points: 2
#     Edge 55, Type (0, 0), BuildingBlock: ZUJKAS_clean_linker_0, # of connection points: 2
# Relax obj value: 0.621
# Max RMSD: 0.316
# Mean RMSD: 0.315
data_MOF--net-bcu-j--node1-XOMCOT_clean_sbu_0--edge1-ZUJKAS_clean_linker_0
_symmetry_space_group_name_H-M    P1
_symmetry_Int_Tables_number       1
_symmetry_cell_setting            triclinic
loop_
_symmetry_equiv_pos_as_xyz
'x, y, z'
_cell_length_a     52.268222
_cell_length_b     52.244463
_cell_length_c     61.407262
_cell_angle_alpha  89.873621
_cell_angle_beta   90.128975
_cell_angle_gamma 90.04366
loop_
_atom_site_label
_atom_site_type_symbol
_atom_site_fract_x
_atom_site_fract_y
_atom_site_fract_z
_atom_type_partial_charge
Co0 Co 0.9884 0.1525 0.62941 0.0
C1 C 0.042 0.13493 0.62674 0.0
C2 C 0.03242 0.16076 0.60078 0.0
C3 C 0.05794 0.15429 0.59901 0.0
N4 N 0.02257 0.14865 0.61821 0.0
N5 N 0.06388 0.13821 0.6155 0.0
H6 H 0.0403 0.12267 0.64087 0.0
H7 H 0.02191 0.17376 0.59036 0.0
C8 C 0.99558 0.20626 0.63047 0.0
O9 O 0.98307 0.20321 0.61207 0.0
N10 N 0.95398 0.15617 0.64068 0.0
C11 C 0.93615 0.13751 0.64199 0.0
C12 C 0.9161 0.14599 0.65455 0.0
C13 C 0.94442 0.17572 0.65244 0.0
N14 N 0.92142 0.16999 0.66112 0.0
C15 C 0.98483 0.10105 0.61377 0.0
C16 C 0.96197 0.11493 0.57476 0.0
C17 C 0.9707 0.08974 0.57758 0.0
C18 C 0.98148 0.08269 0.59764 0.0
C19 C 0.96555 0.13271 0.59144 0.0
N20 N 0.97735 0.12571 0.61029 0.0
H21 H 0.99488 0.09569 0.62844 0.0
H22 H 0.96022 0.15251 0.58892 0.0
H23 H 0.93814 0.11841 0.63551 0.0
H24 H 0.95487 0.19298 0.65623 0.0
O25 O 0.99588 0.1295 0.65457 0.0
O26 O 0.0033 0.16926 0.65647 0.0
O27 O 0.99935 0.18648 0.64269 0.0
C28 C 0.0044 0.14747 0.66624 0.0
H29 H 0.07121 0.1614 0.58692 0.0
H30 H 0.89959 0.13488 0.65944 0.0
H31 H 0.9535 0.12109 0.55952 0.0
H32 H 0.98898 0.06362 0.60034 0.0
Co33 Co 0.35152 0.9937 0.63594 0.0
C34 C 0.37303 0.04484 0.62734 0.0
C35 C 0.34326 0.0355 0.60462 0.0
C36 C 0.35158 0.0601 0.60043 0.0
N37 N 0.35662 0.02614 0.62162 0.0
N38 N 0.37031 0.06584 0.61478 0.0
H39 H 0.3862 0.04354 0.64088 0.0
H40 H 0.32824 0.02536 0.59612 0.0
C41 C 0.29882 0.00411 0.63652 0.0
O42 O 0.30162 0.99 0.61898 0.0
N43 N 0.34683 0.96112 0.6502 0.0
C44 C 0.36575 0.94569 0.65723 0.0
C45 C 0.35515 0.92546 0.66838 0.0
C46 C 0.32498 0.95002 0.65699 0.0
N47 N 0.32948 0.92826 0.66834 0.0
C48 C 0.40191 0.9861 0.61896 0.0
C49 C 0.3849 0.95856 0.58325 0.0
C50 C 0.41029 0.96734 0.58375 0.0
C51 C 0.41898 0.98038 0.60231 0.0
C52 C 0.36844 0.96468 0.60032 0.0
N53 N 0.37691 0.97892 0.61738 0.0
H54 H 0.40842 0.99788 0.63227 0.0
H55 H 0.34843 0.95951 0.59932 0.0
H56 H 0.38595 0.94946 0.65518 0.0
H57 H 0.30624 0.95801 0.65424 0.0
O58 O 0.37576 0.00319 0.65969 0.0
O59 O 0.33642 0.01237 0.66199 0.0
O60 O 0.31854 0.00773 0.64884 0.0
C61 C 0.35866 0.01381 0.671 0.0
H62 H 0.34433 0.07277 0.58789 0.0
H63 H 0.36569 0.91071 0.67693 0.0
H64 H 0.37749 0.94828 0.56929 0.0
H65 H 0.43826 0.98791 0.60325 0.0
Co66 Co 0.52002 0.34889 0.6332 0.0
C67 C 0.46918 0.37133 0.62534 0.0
C68 C 0.47526 0.33763 0.60611 0.0
C69 C 0.45051 0.346 0.60282 0.0
N70 N 0.48678 0.35349 0.6203 0.0
N71 N 0.44673 0.36704 0.61512 0.0
H72 H 0.47249 0.3869 0.63657 0.0
H73 H 0.48395 0.32067 0.59929 0.0
C74 C 0.51463 0.29527 0.63767 0.0
O75 O 0.53144 0.297 0.62184 0.0
N76 N 0.55363 0.344 0.64591 0.0
C77 C 0.57639 0.34578 0.63571 0.0
C78 C 0.59557 0.33972 0.65027 0.0
C79 C 0.5593 0.33673 0.66643 0.0
N80 N 0.58473 0.33409 0.66961 0.0
C81 C 0.53218 0.3997 0.61803 0.0
C82 C 0.53993 0.38305 0.57577 0.0
C83 C 0.53611 0.40924 0.57959 0.0
C84 C 0.53353 0.41763 0.6012 0.0
C85 C 0.53806 0.36579 0.59301 0.0
N86 N 0.53317 0.37419 0.61352 0.0
H87 H 0.52836 0.4064 0.6343 0.0
H88 H 0.53853 0.34544 0.58981 0.0
H89 H 0.57901 0.35062 0.61875 0.0
H90 H 0.54512 0.33232 0.67863 0.0
O91 O 0.51156 0.37344 0.65697 0.0
O92 O 0.50216 0.33417 0.65987 0.0
O93 O 0.50768 0.31597 0.64741 0.0
C94 C 0.50087 0.35655 0.66853 0.0
H95 H 0.43611 0.33667 0.59293 0.0
H96 H 0.61584 0.33921 0.64677 0.0
H97 H 0.54259 0.37576 0.55944 0.0
H98 H 0.53041 0.43761 0.60498 0.0
Co99 Co 0.15712 0.51089 0.6261 0.0
C100 C 0.13346 0.45981 0.62377 0.0
C101 C 0.16252 0.46482 0.59948 0.0
C102 C 0.15339 0.44008 0.59826 0.0
N103 N 0.15005 0.47701 0.61553 0.0
N104 N 0.13529 0.437 0.6137 0.0
H105 H 0.12041 0.46373 0.63698 0.0
H106 H 0.17768 0.47312 0.5898 0.0
C107 C 0.21066 0.50323 0.62475 0.0
O108 O 0.20656 0.51695 0.60712 0.0
N109 N 0.16439 0.54521 0.6366 0.0
C110 C 0.15437 0.56764 0.62964 0.0
C111 C 0.16455 0.58732 0.64181 0.0
C112 C 0.18052 0.55171 0.65286 0.0
N113 N 0.18105 0.5772 0.65632 0.0
C114 C 0.10462 0.52061 0.61435 0.0
C115 C 0.11705 0.53307 0.5718 0.0
C116 C 0.09136 0.52844 0.57714 0.0
C117 C 0.08515 0.52314 0.59892 0.0
C118 C 0.13591 0.53009 0.58766 0.0
N119 N 0.12957 0.5233 0.60834 0.0
H120 H 0.0996 0.51476 0.63064 0.0
H121 H 0.15587 0.53171 0.58322 0.0
H122 H 0.1405 0.5699 0.61674 0.0
H123 H 0.19132 0.53807 0.6624 0.0
O124 O 0.13604 0.5048 0.65269 0.0
O125 O 0.17515 0.49444 0.65194 0.0
O126 O 0.19159 0.49853 0.63746 0.0
C127 C 0.15424 0.49442 0.66298 0.0
H128 H 0.16019 0.42527 0.58742 0.0
H129 H 0.16027 0.60747 0.63999 0.0
H130 H 0.12268 0.53762 0.55528 0.0
H131 H 0.06564 0.5191 0.60375 0.0
Co132 Co 0.99869 0.36244 0.85306 0.0
C133 C 0.05203 0.38091 0.85578 0.0
C134 C 0.04123 0.35925 0.88404 0.0
C135 C 0.06634 0.3669 0.88638 0.0
N136 N 0.03241 0.36797 0.86481 0.0
N137 N 0.07306 0.38038 0.86851 0.0
H138 H 0.05096 0.39095 0.84041 0.0
H139 H 0.03019 0.34809 0.89551 0.0
C140 C 0.0073 0.30946 0.85798 0.0
O141 O 0.99576 0.3156 0.87623 0.0
N142 N 0.96478 0.35721 0.84139 0.0
C143 C 0.9488 0.37586 0.83462 0.0
C144 C 0.92798 0.36481 0.82462 0.0
C145 C 0.9534 0.33509 0.83559 0.0
N146 N 0.93097 0.3392 0.82524 0.0
C147 C 0.99462 0.41541 0.86469 0.0
C148 C 0.9717 0.40469 0.9043 0.0
C149 C 0.98135 0.42938 0.90044 0.0
C150 C 0.99184 0.43493 0.87994 0.0
C151 C 0.97468 0.3858 0.88852 0.0
N152 N 0.98679 0.39117 0.86948 0.0
H153 H 0.00464 0.41948 0.84973 0.0
H154 H 0.96915 0.36628 0.89211 0.0
H155 H 0.95264 0.39615 0.83584 0.0
H156 H 0.96205 0.31643 0.8374 0.0
O157 O 0.00714 0.38226 0.82619 0.0
O158 O 0.01434 0.3424 0.82815 0.0
O159 O 0.0101 0.32698 0.84331 0.0
C160 C 0.01592 0.36286 0.81649 0.0
H161 H 0.07875 0.36256 0.90003 0.0
H162 H 0.91247 0.37484 0.81661 0.0
H163 H 0.96377 0.39943 0.91996 0.0
H164 H 0.99921 0.45381 0.87619 0.0
Co165 Co 0.14648 0.99283 0.85721 0.0
C166 C 0.12973 0.04677 0.86121 0.0
C167 C 0.14867 0.03326 0.89006 0.0
C168 C 0.14127 0.05831 0.89333 0.0
N169 N 0.1414 0.02613 0.86992 0.0
N170 N 0.12953 0.06671 0.87508 0.0
H171 H 0.12089 0.04723 0.8453 0.0
H172 H 0.1585 0.02102 0.90157 0.0
C173 C 0.19967 0.00332 0.85755 0.0
O174 O 0.19642 0.99181 0.8764 0.0
N175 N 0.1513 0.95938 0.84472 0.0
C176 C 0.13259 0.94389 0.83739 0.0
C177 C 0.14358 0.92327 0.82714 0.0
C178 C 0.17336 0.94789 0.8391 0.0
N179 N 0.16927 0.92588 0.82807 0.0
C180 C 0.09514 0.98743 0.87242 0.0
C181 C 0.1089 0.96011 0.90933 0.0
C182 C 0.08374 0.96918 0.90721 0.0
C183 C 0.07674 0.9822 0.88813 0.0
C184 C 0.12672 0.9656 0.89307 0.0
N185 N 0.11978 0.97963 0.87534 0.0
H186 H 0.08987 0.99922 0.85868 0.0
H187 H 0.14649 0.96 0.89517 0.0
H188 H 0.11235 0.94798 0.83843 0.0
H189 H 0.19199 0.95592 0.84231 0.0
O190 O 0.12353 0.00123 0.83224 0.0
O191 O 0.16316 0.00942 0.83082 0.0
O192 O 0.18025 0.00556 0.84466 0.0
C193 C 0.14144 0.01044 0.82091 0.0
H194 H 0.14444 0.06951 0.9079 0.0
H195 H 0.13332 0.90848 0.81843 0.0
H196 H 0.11501 0.94997 0.92384 0.0
H197 H 0.0577 0.99003 0.88606 0.0
Co198 Co 0.51273 0.14718 0.8635 0.0
C199 C 0.46035 0.12584 0.8641 0.0
C200 C 0.46907 0.14663 0.89329 0.0
C201 C 0.44405 0.13833 0.89434 0.0
N202 N 0.47913 0.13892 0.87425 0.0
N203 N 0.43862 0.12543 0.87587 0.0
H204 H 0.4624 0.11668 0.84845 0.0
H205 H 0.47908 0.15786 0.90537 0.0
C206 C 0.49992 0.19932 0.86914 0.0
O207 O 0.51062 0.19338 0.88787 0.0
N208 N 0.54648 0.15523 0.85284 0.0
C209 C 0.56331 0.13834 0.84467 0.0
C210 C 0.58349 0.1516 0.83575 0.0
C211 C 0.55674 0.17848 0.84904 0.0
N212 N 0.57928 0.17693 0.83833 0.0
C213 C 0.5221 0.09413 0.87298 0.0
C214 C 0.53846 0.10423 0.91503 0.0
C215 C 0.53241 0.07896 0.90918 0.0
C216 C 0.5254 0.0739 0.88754 0.0
C217 C 0.53517 0.12388 0.89987 0.0
N218 N 0.52616 0.1187 0.87958 0.0
H219 H 0.51466 0.09004 0.85697 0.0
H220 H 0.53776 0.14357 0.90483 0.0
H221 H 0.56041 0.11786 0.84405 0.0
H222 H 0.54738 0.19617 0.85318 0.0
O223 O 0.50636 0.12781 0.83605 0.0
O224 O 0.49643 0.16697 0.83855 0.0
O225 O 0.4992 0.1821 0.85408 0.0
C226 C 0.49648 0.14683 0.82649 0.0
H227 H 0.43074 0.14214 0.9074 0.0
H228 H 0.59904 0.14313 0.82669 0.0
H229 H 0.54365 0.1091 0.93159 0.0
H230 H 0.52096 0.05463 0.88226 0.0
Co231 Co 0.36544 0.51905 0.85767 0.0
C232 C 0.38472 0.46594 0.8629 0.0
C233 C 0.36765 0.48048 0.89211 0.0
C234 C 0.37565 0.45573 0.89591 0.0
N235 N 0.37328 0.48678 0.87141 0.0
N236 N 0.38624 0.44665 0.87745 0.0
H237 H 0.39218 0.46483 0.84655 0.0
H238 H 0.35823 0.493 0.90357 0.0
C239 C 0.31336 0.50469 0.86115 0.0
O240 O 0.3176 0.51605 0.87988 0.0
N241 N 0.35765 0.5515 0.84426 0.0
C242 C 0.3747 0.56879 0.83689 0.0
C243 C 0.36169 0.58795 0.82613 0.0
C244 C 0.33458 0.5604 0.83809 0.0
N245 N 0.33647 0.5825 0.82676 0.0
C246 C 0.41714 0.52746 0.87099 0.0
C247 C 0.4036 0.55518 0.90758 0.0
C248 C 0.4288 0.54625 0.90551 0.0
C249 C 0.43575 0.53327 0.88645 0.0
C250 C 0.38557 0.54903 0.89163 0.0
N251 N 0.39238 0.53461 0.87417 0.0
H252 H 0.42231 0.51544 0.85743 0.0
H253 H 0.36571 0.55412 0.89395 0.0
H254 H 0.39525 0.56695 0.83826 0.0
H255 H 0.31681 0.55047 0.84102 0.0
O256 O 0.38723 0.51069 0.83201 0.0
O257 O 0.34812 0.50023 0.83274 0.0
O258 O 0.33173 0.50378 0.84715 0.0
C259 C 0.36918 0.49983 0.8219 0.0
H260 H 0.3734 0.44511 0.91093 0.0
H261 H 0.37028 0.60366 0.81723 0.0
H262 H 0.39752 0.56537 0.92201 0.0
H263 H 0.45484 0.52561 0.88436 0.0
Co264 Co 0.0069 0.84685 0.36153 0.0
C265 C 0.95468 0.86743 0.36632 0.0
C266 C 0.96306 0.83889 0.39047 0.0
C267 C 0.93802 0.84666 0.39297 0.0
N268 N 0.97334 0.85184 0.37367 0.0
N269 N 0.93279 0.86449 0.37764 0.0
H270 H 0.95698 0.88067 0.35294 0.0
H271 H 0.97289 0.82441 0.3999 0.0
C272 C 0.99665 0.79319 0.36041 0.0
O273 O 0.009 0.7952 0.379 0.0
N274 N 0.04059 0.8422 0.34939 0.0
C275 C 0.0564 0.86112 0.34301 0.0
C276 C 0.07682 0.85055 0.3322 0.0
C277 C 0.05171 0.82039 0.3426 0.0
N278 N 0.07378 0.82488 0.33176 0.0
C279 C 0.01328 0.89815 0.37697 0.0
C280 C 0.03763 0.88342 0.41508 0.0
C281 C 0.02989 0.90898 0.4125 0.0
C282 C 0.01834 0.91641 0.39285 0.0
C283 C 0.03234 0.86575 0.39865 0.0
N284 N 0.01979 0.87319 0.38027 0.0
H285 H 0.00275 0.90393 0.36266 0.0
H286 H 0.03696 0.84575 0.40103 0.0
H287 H 0.05261 0.88133 0.34495 0.0
H288 H 0.04331 0.80173 0.34474 0.0
O289 O 0.99905 0.87026 0.33666 0.0
O290 O 0.99064 0.8307 0.33477 0.0
O291 O 0.99427 0.81331 0.3483 0.0
C292 C 0.98969 0.85259 0.32513 0.0
H293 H 0.92453 0.83916 0.40471 0.0
H294 H 0.09172 0.86119 0.32398 0.0
H295 H 0.04665 0.87696 0.43001 0.0
H296 H 0.01157 0.93578 0.39036 0.0
Co297 Co 0.64227 0.00532 0.35876 0.0
C298 C 0.62272 0.95248 0.36198 0.0
C299 C 0.64753 0.96177 0.3887 0.0
C300 C 0.63993 0.93658 0.39076 0.0
N301 N 0.63678 0.97159 0.37059 0.0
N302 N 0.62447 0.93081 0.37382 0.0
H303 H 0.61121 0.95432 0.34743 0.0
H304 H 0.66029 0.97208 0.39944 0.0
C305 C 0.69572 0.9966 0.36202 0.0
O306 O 0.69097 0.00884 0.38025 0.0
N307 N 0.64743 0.03917 0.3469 0.0
C308 C 0.62872 0.0552 0.34034 0.0
C309 C 0.63963 0.07583 0.32993 0.0
C310 C 0.66945 0.05034 0.34058 0.0
N311 N 0.66522 0.07268 0.3301 0.0
C312 C 0.58993 0.00875 0.37199 0.0
C313 C 0.60135 0.03528 0.40979 0.0
C314 C 0.57685 0.02466 0.40717 0.0
C315 C 0.57092 0.0122 0.38757 0.0
C316 C 0.6198 0.03136 0.39377 0.0
N317 N 0.61409 0.01756 0.37566 0.0
H318 H 0.58567 0.99735 0.3578 0.0
H319 H 0.63922 0.03782 0.39644 0.0
H320 H 0.60846 0.05147 0.34194 0.0
H321 H 0.68808 0.04158 0.34203 0.0
O322 O 0.62159 0.99701 0.3323 0.0
O323 O 0.66137 0.98938 0.33351 0.0
O324 O 0.67729 0.99355 0.34821 0.0
C325 C 0.64058 0.98785 0.32229 0.0
H326 H 0.64581 0.92341 0.40345 0.0
H327 H 0.6295 0.09127 0.3219 0.0
H328 H 0.60661 0.04525 0.42458 0.0
H329 H 0.5524 0.00338 0.385 0.0
Co330 Co 0.47647 0.64405 0.36234 0.0
C331 C 0.52866 0.62281 0.36563 0.0
C332 C 0.52029 0.64822 0.39207 0.0
C333 C 0.54534 0.64015 0.39398 0.0
N334 N 0.50999 0.63742 0.37421 0.0
N335 N 0.55054 0.62435 0.37719 0.0
H336 H 0.52645 0.61123 0.3512 0.0
H337 H 0.51048 0.66147 0.40265 0.0
C338 C 0.48846 0.69705 0.36297 0.0
O339 O 0.47656 0.69404 0.38164 0.0
N340 N 0.44285 0.65036 0.35043 0.0
C341 C 0.42605 0.63222 0.34422 0.0
C342 C 0.40631 0.64371 0.33305 0.0
C343 C 0.43299 0.67262 0.34317 0.0
N344 N 0.41078 0.66916 0.33218 0.0
C345 C 0.46944 0.59273 0.37761 0.0
C346 C 0.44637 0.60801 0.41601 0.0
C347 C 0.45477 0.58263 0.41391 0.0
C348 C 0.46537 0.57479 0.39404 0.0
C349 C 0.45068 0.62532 0.39909 0.0
N350 N 0.46286 0.61769 0.38067 0.0
H351 H 0.47966 0.5869 0.3632 0.0
H352 H 0.44603 0.64533 0.40125 0.0
H353 H 0.42878 0.61186 0.34642 0.0
H354 H 0.44247 0.6908 0.34497 0.0
O355 O 0.4833 0.62136 0.33689 0.0
O356 O 0.49306 0.66071 0.33607 0.0
O357 O 0.49008 0.67768 0.35001 0.0
C358 C 0.49328 0.6392 0.32587 0.0
H359 H 0.55887 0.6461 0.40635 0.0
H360 H 0.39095 0.63373 0.32483 0.0
H361 H 0.43799 0.61475 0.43106 0.0
H362 H 0.4725 0.5555 0.39186 0.0
Co363 Co 0.84153 0.48748 0.36333 0.0
C364 C 0.86098 0.54041 0.36518 0.0
C365 C 0.8342 0.53278 0.39081 0.0
C366 C 0.84148 0.55815 0.39193 0.0
N367 N 0.84636 0.52181 0.37395 0.0
N368 N 0.85815 0.56286 0.37564 0.0
H369 H 0.87351 0.53773 0.35141 0.0
H370 H 0.82058 0.52316 0.40124 0.0
C371 C 0.78801 0.49627 0.36318 0.0
O372 O 0.7915 0.48501 0.38212 0.0
N373 N 0.83709 0.45303 0.35271 0.0
C374 C 0.85615 0.43715 0.34677 0.0
C375 C 0.84568 0.41571 0.3373 0.0
C376 C 0.8153 0.44093 0.34703 0.0
N377 N 0.82002 0.41817 0.33752 0.0
C378 C 0.89317 0.48312 0.37866 0.0
C379 C 0.87917 0.46086 0.41785 0.0
C380 C 0.90446 0.46922 0.41499 0.0
C381 C 0.91158 0.47966 0.39482 0.0
C382 C 0.86137 0.46452 0.40116 0.0
N383 N 0.86843 0.4761 0.38225 0.0
H384 H 0.89856 0.49291 0.36388 0.0
H385 H 0.84152 0.45952 0.40374 0.0
H386 H 0.87632 0.44148 0.34817 0.0
H387 H 0.79646 0.44921 0.34829 0.0
O388 O 0.86405 0.49431 0.33777 0.0
O389 O 0.82436 0.50211 0.33634 0.0
O390 O 0.80738 0.49867 0.3503 0.0
C391 C 0.84595 0.50303 0.3263 0.0
H392 H 0.83448 0.57218 0.4034 0.0
H393 H 0.85611 0.40012 0.32987 0.0
H394 H 0.87297 0.45263 0.43316 0.0
H395 H 0.93077 0.48679 0.39207 0.0
Co396 Co 0.00332 0.64239 0.14153 0.0
C397 C 0.95073 0.62208 0.1394 0.0
C398 C 0.95938 0.64588 0.11187 0.0
C399 C 0.93428 0.63785 0.11024 0.0
N400 N 0.96954 0.63603 0.13021 0.0
N401 N 0.92893 0.62308 0.12771 0.0
H402 H 0.95283 0.61121 0.15428 0.0
H403 H 0.9694 0.65832 0.10066 0.0
C404 C 0.99332 0.69566 0.13817 0.0
O405 O 0.00541 0.69112 0.11983 0.0
N406 N 0.03728 0.64839 0.15287 0.0
C407 C 0.05379 0.6301 0.15932 0.0
C408 C 0.07441 0.64156 0.16927 0.0
C409 C 0.04812 0.67071 0.15884 0.0
N410 N 0.07076 0.66714 0.16913 0.0
C411 C 0.00893 0.58984 0.12903 0.0
C412 C 0.03124 0.60204 0.08947 0.0
C413 C 0.02258 0.57694 0.09309 0.0
C414 C 0.01236 0.57069 0.11354 0.0
C415 C 0.02761 0.62056 0.10547 0.0
N416 N 0.01584 0.61443 0.1245 0.0
H417 H 0.99918 0.58516 0.14399 0.0
H418 H 0.03242 0.64032 0.10211 0.0
H419 H 0.05043 0.60974 0.158 0.0
H420 H 0.0392 0.68911 0.15653 0.0
O421 O 0.996 0.62173 0.16822 0.0
O422 O 0.98751 0.66134 0.16695 0.0
O423 O 0.99093 0.67723 0.15208 0.0
C424 C 0.98669 0.64061 0.17831 0.0
H425 H 0.92087 0.64301 0.09752 0.0
H426 H 0.08992 0.63161 0.17733 0.0
H427 H 0.03893 0.60782 0.07385 0.0
H428 H 0.00574 0.55148 0.1171 0.0
Co429 Co 0.85047 0.00807 0.13179 0.0
C430 C 0.86786 0.95454 0.12795 0.0
C431 C 0.84135 0.9646 0.10263 0.0
C432 C 0.84758 0.93904 0.10052 0.0
N433 N 0.85402 0.97416 0.1199 0.0
N434 N 0.86406 0.93281 0.11662 0.0
H435 H 0.88047 0.95593 0.14185 0.0
H436 H 0.82805 0.9753 0.09263 0.0
C437 C 0.79695 0.00035 0.13436 0.0
O438 O 0.79919 0.01311 0.11599 0.0
N439 N 0.84715 0.0422 0.1437 0.0
C440 C 0.86596 0.05983 0.14521 0.0
C441 C 0.85758 0.07988 0.15781 0.0
C442 C 0.82761 0.05185 0.1554 0.0
N443 N 0.83349 0.07476 0.16422 0.0
C444 C 0.90105 0.01215 0.11447 0.0
C445 C 0.88543 0.03647 0.0766 0.0
C446 C 0.9107 0.0276 0.07833 0.0
C447 C 0.91864 0.01608 0.09785 0.0
C448 C 0.86844 0.03228 0.09375 0.0
N449 N 0.87629 0.01976 0.11202 0.0
H450 H 0.90707 0.00154 0.12867 0.0
H451 H 0.84857 0.03772 0.09204 0.0
H452 H 0.88504 0.0577 0.13873 0.0
H453 H 0.81017 0.04158 0.15894 0.0
O454 O 0.87463 0.00013 0.15601 0.0
O455 O 0.83506 0.99247 0.15915 0.0
O456 O 0.81721 0.99659 0.14599 0.0
C457 C 0.85731 0.99116 0.16813 0.0
H458 H 0.83995 0.92589 0.08855 0.0
H459 H 0.86878 0.09632 0.16275 0.0
H460 H 0.87859 0.04548 0.06179 0.0
H461 H 0.93779 0.00845 0.0997 0.0
Co462 Co 0.48773 0.8486 0.13701 0.0
C463 C 0.54038 0.86867 0.13453 0.0
C464 C 0.53175 0.84363 0.10784 0.0
C465 C 0.55685 0.85153 0.10606 0.0
N466 N 0.52158 0.85432 0.12576 0.0
N467 N 0.5622 0.86712 0.12298 0.0
H468 H 0.53821 0.88019 0.149 0.0
H469 H 0.52173 0.83074 0.09703 0.0
C470 C 0.49642 0.79511 0.13313 0.0
O471 O 0.48401 0.80016 0.11498 0.0
N472 N 0.45367 0.84322 0.1483 0.0
C473 C 0.43724 0.86179 0.1542 0.0
C474 C 0.41668 0.8508 0.16456 0.0
C475 C 0.4428 0.82119 0.15504 0.0
N476 N 0.42026 0.82523 0.16525 0.0
C477 C 0.48143 0.90178 0.12625 0.0
C478 C 0.46544 0.89119 0.0842 0.0
C479 C 0.47292 0.91623 0.08952 0.0
C480 C 0.47973 0.92164 0.11114 0.0
C481 C 0.46713 0.87193 0.0999 0.0
N482 N 0.47599 0.87727 0.12022 0.0
H483 H 0.48872 0.90599 0.14229 0.0
H484 H 0.46349 0.85226 0.09537 0.0
H485 H 0.44064 0.88209 0.15234 0.0
H486 H 0.45169 0.80269 0.1534 0.0
O487 O 0.49576 0.86849 0.16392 0.0
O488 O 0.50326 0.82874 0.16221 0.0
O489 O 0.49933 0.81325 0.14719 0.0
C490 C 0.50467 0.84921 0.17378 0.0
H491 H 0.57025 0.84576 0.0936 0.0
H492 H 0.40128 0.86112 0.17234 0.0
H493 H 0.46033 0.88605 0.06768 0.0
H494 H 0.48521 0.94079 0.11603 0.0
Co495 Co 0.64272 0.483 0.13963 0.0
C496 C 0.62501 0.53585 0.13217 0.0
C497 C 0.65852 0.52724 0.11344 0.0
C498 C 0.65221 0.55259 0.11015 0.0
N499 N 0.64154 0.51691 0.12737 0.0
N500 N 0.63114 0.5579 0.12199 0.0
H501 H 0.60931 0.53386 0.14347 0.0
H502 H 0.67465 0.5172 0.10654 0.0
C503 C 0.69616 0.48799 0.14539 0.0
O504 O 0.69465 0.4742 0.12755 0.0
N505 N 0.64358 0.44885 0.15193 0.0
C506 C 0.62374 0.43233 0.15291 0.0
C507 C 0.63057 0.41173 0.16566 0.0
C508 C 0.66217 0.438 0.16407 0.0
N509 N 0.65474 0.41538 0.17264 0.0
C510 C 0.59329 0.47989 0.11951 0.0
C511 C 0.61222 0.45922 0.08131 0.0
C512 C 0.58711 0.46872 0.08171 0.0
C513 C 0.57737 0.47814 0.10139 0.0
C514 C 0.62751 0.46125 0.0999 0.0
N515 N 0.61817 0.47227 0.11828 0.0
H516 H 0.58601 0.48908 0.13392 0.0
H517 H 0.64743 0.45573 0.09921 0.0
H518 H 0.60505 0.43558 0.14587 0.0
H519 H 0.68009 0.44717 0.16804 0.0
O520 O 0.6171 0.49227 0.16225 0.0
O521 O 0.65666 0.49812 0.16776 0.0
O522 O 0.6753 0.49316 0.1557 0.0
C523 C 0.63383 0.50054 0.17532 0.0
H524 H 0.66242 0.56607 0.09997 0.0
H525 H 0.61834 0.39588 0.17023 0.0
H526 H 0.62039 0.45164 0.06648 0.0
H527 H 0.55826 0.48606 0.10237 0.0
H528 H 0.04681 0.17283 0.68077 0.0
H529 H 0.07843 0.15576 0.70676 0.0
H530 H 0.02808 0.09251 0.721 0.0
H531 H 0.99684 0.10911 0.6949 0.0
H532 H 0.07433 0.1354 0.75462 0.0
H533 H 0.09502 0.06272 0.6912 0.0
H534 H 0.07997 0.09303 0.68498 0.0
H535 H 0.06175 0.06755 0.69702 0.0
C536 C 0.04215 0.15584 0.69011 0.0
C537 C 0.01949 0.14219 0.68593 0.0
C538 C 0.06026 0.14604 0.70478 0.0
C539 C 0.05565 0.12271 0.71543 0.0
C540 C 0.03202 0.11041 0.7127 0.0
H541 H 0.1014 0.00458 0.79376 0.0
H542 H 0.08683 0.03453 0.76588 0.0
C543 C 0.01416 0.11997 0.69793 0.0
C544 C 0.07612 0.10941 0.72758 0.0
H545 H 0.11003 0.05368 0.72701 0.0
C546 C 0.08273 0.11787 0.74849 0.0
C547 C 0.08697 0.08662 0.71937 0.0
C548 C 0.08078 0.07698 0.69682 0.0
C549 C 0.09842 0.10293 0.76211 0.0
C550 C 0.10797 0.0793 0.75432 0.0
C551 C 0.10277 0.07185 0.73286 0.0
C552 C 0.11922 0.06007 0.7692 0.0
C553 C 0.10306 0.11147 0.78523 0.0
C554 C 0.14282 0.06401 0.77967 0.0
C555 C 0.15135 0.04664 0.79553 0.0
C556 C 0.13623 0.02537 0.80109 0.0
C557 C 0.1134 0.02082 0.7897 0.0
C558 C 0.10505 0.03794 0.77383 0.0
H559 H 0.09226 0.12914 0.78929 0.0
H560 H 0.09742 0.09612 0.79681 0.0
H561 H 0.12375 0.11531 0.78765 0.0
H562 H 0.15414 0.08086 0.77609 0.0
H563 H 0.16889 0.05067 0.80431 0.0
H564 H 0.40145 0.01096 0.69545 0.0
H565 H 0.41731 0.04259 0.72133 0.0
H566 H 0.34759 0.0859 0.71421 0.0
H567 H 0.33137 0.05391 0.68814 0.0
H568 H 0.42044 0.09812 0.70643 0.0
H569 H 0.36557 0.08102 0.78296 0.0
H570 H 0.3713 0.05515 0.76412 0.0
H571 H 0.34971 0.08038 0.75681 0.0
C572 C 0.38919 0.02687 0.69978 0.0
C573 C 0.36519 0.03001 0.68983 0.0
C574 C 0.39832 0.04495 0.7145 0.0
C575 C 0.38367 0.06657 0.71957 0.0
C576 C 0.35908 0.06921 0.71057 0.0
H577 H 0.4534 0.17289 0.8144 0.0
H578 H 0.42285 0.15988 0.78592 0.0
C579 C 0.34981 0.05091 0.69581 0.0
C580 C 0.39559 0.08703 0.73276 0.0
H581 H 0.40183 0.10773 0.78516 0.0
C582 C 0.41601 0.10072 0.72354 0.0
C583 C 0.38959 0.09048 0.75497 0.0
C584 C 0.36787 0.07606 0.76548 0.0
C585 C 0.43175 0.1164 0.73634 0.0
C586 C 0.42698 0.11831 0.7589 0.0
C587 C 0.40536 0.10624 0.76781 0.0
C588 C 0.4464 0.12896 0.77393 0.0
C589 C 0.4542 0.12978 0.72593 0.0
C590 C 0.46982 0.11614 0.77628 0.0
C591 C 0.48708 0.12342 0.79244 0.0
C592 C 0.48131 0.14372 0.80649 0.0
C593 C 0.45848 0.1575 0.80344 0.0
C594 C 0.44096 0.14995 0.78737 0.0
H595 H 0.45157 0.13193 0.70809 0.0
H596 H 0.45722 0.14898 0.73323 0.0
H597 H 0.47177 0.11829 0.72867 0.0
H598 H 0.47418 0.0996 0.76635 0.0
H599 H 0.5044 0.11231 0.79467 0.0
H600 H 0.34325 0.45661 0.80981 0.0
H601 H 0.35897 0.42356 0.78464 0.0
H602 H 0.42251 0.47217 0.76743 0.0
H603 H 0.40721 0.50489 0.79259 0.0
H604 H 0.37865 0.42818 0.73505 0.0
H605 H 0.45103 0.40359 0.79834 0.0
H606 H 0.41986 0.41633 0.80506 0.0
H607 H 0.4442 0.43694 0.79425 0.0
C608 C 0.36006 0.46052 0.80006 0.0
C609 C 0.3741 0.48322 0.80307 0.0
C610 C 0.36908 0.44161 0.78586 0.0
C611 C 0.39204 0.44541 0.77451 0.0
C612 C 0.40486 0.46888 0.77624 0.0
H613 H 0.50607 0.39876 0.69335 0.0
H614 H 0.47689 0.41407 0.72141 0.0
C615 C 0.39605 0.48758 0.7905 0.0
C616 C 0.40429 0.42444 0.76229 0.0
H617 H 0.45875 0.38849 0.76257 0.0
C618 C 0.39574 0.41886 0.74119 0.0
C619 C 0.42654 0.41243 0.77049 0.0
C620 C 0.43597 0.41739 0.79334 0.0
C621 C 0.4101 0.40295 0.72742 0.0
C622 C 0.43333 0.39236 0.73515 0.0
C623 C 0.44087 0.39658 0.75676 0.0
C624 C 0.45209 0.38095 0.72007 0.0
C625 C 0.40152 0.39916 0.70418 0.0
C626 C 0.44819 0.35683 0.71057 0.0
C627 C 0.46512 0.34785 0.69463 0.0
C628 C 0.48586 0.36309 0.68797 0.0
C629 C 0.49023 0.38665 0.69823 0.0
C630 C 0.47359 0.39542 0.71422 0.0
H631 H 0.3835 0.40957 0.70045 0.0
H632 H 0.41666 0.40591 0.69288 0.0
H633 H 0.39844 0.37848 0.70104 0.0
H634 H 0.43172 0.34537 0.71501 0.0
H635 H 0.46125 0.32971 0.68677 0.0
H636 H 0.00842 0.39585 0.7832 0.0
H637 H 0.03954 0.4079 0.75532 0.0
H638 H 0.09121 0.34973 0.77887 0.0
H639 H 0.05963 0.33708 0.80654 0.0
H640 H 0.10917 0.40436 0.77868 0.0
H641 H 0.07043 0.37186 0.69934 0.0
H642 H 0.04692 0.38653 0.7166 0.0
H643 H 0.06175 0.35703 0.72491 0.0
C644 C 0.026 0.385 0.78186 0.0
C645 C 0.03159 0.36541 0.79677 0.0
C646 C 0.04376 0.39189 0.76598 0.0
C647 C 0.06757 0.3796 0.765 0.0
C648 C 0.0728 0.35921 0.77925 0.0
H649 H 0.17968 0.45128 0.67578 0.0
H650 H 0.16438 0.41957 0.70247 0.0
C651 C 0.05472 0.3519 0.7949 0.0
C652 C 0.08778 0.39063 0.75102 0.0
H653 H 0.09896 0.40831 0.69842 0.0
C654 C 0.1075 0.4046 0.76107 0.0
C655 C 0.08545 0.39094 0.72811 0.0
C656 C 0.06512 0.37559 0.71655 0.0
C657 C 0.12371 0.4205 0.74882 0.0
C658 C 0.1201 0.42223 0.72609 0.0
C659 C 0.10164 0.40684 0.71589 0.0
C660 C 0.13236 0.44254 0.71304 0.0
C661 C 0.14347 0.43667 0.76025 0.0
C662 C 0.11975 0.46605 0.71073 0.0
C663 C 0.12827 0.48396 0.69552 0.0
C664 C 0.14968 0.47874 0.68253 0.0
C665 C 0.16338 0.45591 0.68589 0.0
C666 C 0.15459 0.43776 0.70097 0.0
H667 H 0.14607 0.43088 0.77754 0.0
H668 H 0.16212 0.43526 0.75171 0.0
H669 H 0.13743 0.45703 0.75974 0.0
H670 H 0.10248 0.46994 0.71986 0.0
H671 H 0.11729 0.50133 0.69309 0.0
H672 H 0.99541 0.89352 0.29879 0.0
H673 H 0.96662 0.90748 0.26978 0.0
H674 H 0.92168 0.83886 0.27783 0.0
H675 H 0.95078 0.8246 0.30703 0.0
H676 H 0.94879 0.88032 0.22923 0.0
H677 H 0.87292 0.90296 0.29002 0.0
H678 H 0.90603 0.90009 0.29813 0.0
H679 H 0.88836 0.87211 0.29048 0.0
C680 C 0.97975 0.88112 0.29405 0.0
C681 C 0.97528 0.858 0.30507 0.0
C682 C 0.96331 0.88912 0.27752 0.0
C683 C 0.94195 0.87431 0.27189 0.0
C684 C 0.93805 0.85056 0.2821 0.0
H685 H 0.82996 0.95115 0.18517 0.0
H686 H 0.84658 0.91845 0.21042 0.0
C687 C 0.95475 0.84237 0.29858 0.0
C688 C 0.92324 0.8851 0.25635 0.0
H689 H 0.8688 0.92122 0.2552 0.0
C690 C 0.93093 0.88866 0.23472 0.0
C691 C 0.89998 0.89593 0.26361 0.0
C692 C 0.89115 0.89273 0.28682 0.0
C693 C 0.91681 0.90421 0.2205 0.0
C694 C 0.89469 0.91679 0.22829 0.0
C695 C 0.88586 0.91163 0.24939 0.0
C696 C 0.88271 0.93772 0.21568 0.0
C697 C 0.92654 0.90815 0.19763 0.0
C698 C 0.89702 0.95984 0.21132 0.0
C699 C 0.88761 0.9784 0.19713 0.0
C700 C 0.86362 0.97529 0.18719 0.0
C701 C 0.84839 0.95411 0.19285 0.0
C702 C 0.85793 0.93536 0.20707 0.0
H703 H 0.93697 0.89097 0.19176 0.0
H704 H 0.91075 0.91251 0.18611 0.0
H705 H 0.94012 0.92449 0.19751 0.0
H706 H 0.91601 0.96218 0.21816 0.0
H707 H 0.89971 0.99455 0.19301 0.0
H708 H 0.66614 0.94391 0.31284 0.0
H709 H 0.65227 0.91096 0.28681 0.0
H710 H 0.59287 0.96129 0.26348 0.0
H711 H 0.6061 0.99385 0.28982 0.0
H712 H 0.59222 0.89685 0.28921 0.0
H713 H 0.6328 0.92274 0.20855 0.0
H714 H 0.64809 0.93128 0.23397 0.0
H715 H 0.62074 0.94891 0.22456 0.0
C716 C 0.65077 0.94824 0.30156 0.0
C717 C 0.63725 0.97141 0.30311 0.0
C718 C 0.64278 0.92939 0.28686 0.0
C719 C 0.62167 0.93385 0.27325 0.0
C720 C 0.60937 0.95767 0.27375 0.0
H721 H 0.49688 0.88145 0.20743 0.0
H722 H 0.52865 0.89466 0.23449 0.0
C723 C 0.61696 0.97625 0.28871 0.0
C724 C 0.60993 0.91289 0.26063 0.0
H725 H 0.59583 0.89553 0.2085 0.0
C726 C 0.59353 0.89597 0.2716 0.0
C727 C 0.61173 0.91193 0.23773 0.0
C728 C 0.62942 0.92955 0.22542 0.0
C729 C 0.5774 0.87933 0.26004 0.0
C730 C 0.57783 0.87972 0.23706 0.0
C731 C 0.59564 0.89525 0.22617 0.0
C732 C 0.55739 0.8676 0.22403 0.0
C733 C 0.55902 0.86247 0.2724 0.0
C734 C 0.56283 0.84744 0.2097 0.0
C735 C 0.54441 0.83943 0.19458 0.0
C736 C 0.52071 0.85202 0.19329 0.0
C737 C 0.51491 0.87127 0.20836 0.0
C738 C 0.53304 0.87884 0.22375 0.0
H739 H 0.56546 0.85929 0.28944 0.0
H740 H 0.53998 0.87185 0.27285 0.0
H741 H 0.55677 0.84365 0.26423 0.0
H742 H 0.58166 0.83881 0.20954 0.0
H743 H 0.54948 0.82493 0.18277 0.0
H744 H 0.53616 0.66437 0.31234 0.0
H745 H 0.56711 0.64902 0.28523 0.0
H746 H 0.51693 0.58603 0.2698 0.0
H747 H 0.48631 0.60098 0.29696 0.0
H748 H 0.58766 0.59465 0.28859 0.0
H749 H 0.54046 0.61638 0.20949 0.0
H750 H 0.53594 0.63584 0.23351 0.0
H751 H 0.51975 0.60566 0.23096 0.0
C752 C 0.53142 0.64777 0.3026 0.0
C753 C 0.5088 0.63394 0.30648 0.0
C754 C 0.54917 0.63892 0.28731 0.0
C755 C 0.54415 0.61653 0.27549 0.0
C756 C 0.52096 0.60354 0.2786 0.0
H757 H 0.58969 0.49764 0.19775 0.0
H758 H 0.5732 0.5288 0.22368 0.0
C759 C 0.50348 0.6121 0.29405 0.0
C760 C 0.56375 0.60493 0.26134 0.0
H761 H 0.57181 0.5833 0.20953 0.0
C762 C 0.58473 0.59269 0.27118 0.0
C763 C 0.55971 0.60246 0.23873 0.0
C764 C 0.53787 0.61593 0.22743 0.0
C765 C 0.60064 0.57631 0.25915 0.0
C766 C 0.59541 0.57242 0.23684 0.0
C767 C 0.57561 0.58621 0.22672 0.0
C768 C 0.60766 0.55174 0.22423 0.0
C769 C 0.6217 0.56183 0.2706 0.0
C770 C 0.6329 0.55384 0.21665 0.0
C771 C 0.64252 0.53578 0.20192 0.0
C772 C 0.62682 0.51571 0.19454 0.0
C773 C 0.60217 0.51292 0.20321 0.0
C774 C 0.5927 0.53074 0.21794 0.0
H775 H 0.62284 0.56654 0.28822 0.0
H776 H 0.61851 0.54092 0.26883 0.0
H777 H 0.64036 0.56642 0.26293 0.0
H778 H 0.64462 0.57008 0.22121 0.0
H779 H 0.66148 0.53849 0.19523 0.0
H780 H 0.81934 0.5448 0.31199 0.0
H781 H 0.83533 0.57741 0.28644 0.0
H782 H 0.9007 0.52999 0.27251 0.0
H783 H 0.88512 0.49768 0.29812 0.0
H784 H 0.90337 0.58829 0.29402 0.0
H785 H 0.85445 0.5737 0.21437 0.0
H786 H 0.83921 0.56641 0.24004 0.0
H787 H 0.8636 0.54565 0.22971 0.0
C788 C 0.83656 0.54094 0.30279 0.0
C789 C 0.85099 0.51873 0.30687 0.0
C790 C 0.84575 0.55963 0.28838 0.0
C791 C 0.86916 0.556 0.27772 0.0
C792 C 0.88254 0.53301 0.28059 0.0
H793 H 0.99395 0.60598 0.21047 0.0
H794 H 0.96263 0.59267 0.23775 0.0
C795 C 0.87358 0.51455 0.29511 0.0
C796 C 0.88169 0.57704 0.26575 0.0
H797 H 0.89249 0.59887 0.21426 0.0
C798 C 0.90055 0.59121 0.27668 0.0
C799 C 0.8778 0.58075 0.24323 0.0
C800 C 0.8576 0.56597 0.23103 0.0
C801 C 0.91688 0.6078 0.26532 0.0
C802 C 0.9144 0.60992 0.24248 0.0
C803 C 0.89428 0.59722 0.2318 0.0
C804 C 0.93476 0.62157 0.22903 0.0
C805 C 0.93745 0.62198 0.27763 0.0
C806 C 0.92969 0.64264 0.21548 0.0
C807 C 0.94785 0.65061 0.20016 0.0
C808 C 0.97095 0.63713 0.19789 0.0
C809 C 0.97641 0.61683 0.21213 0.0
C810 C 0.95853 0.60923 0.22768 0.0
H811 H 0.93235 0.62432 0.29508 0.0
H812 H 0.95556 0.61094 0.27681 0.0
H813 H 0.94091 0.64116 0.27037 0.0
H814 H 0.9113 0.65216 0.21613 0.0
H815 H 0.94302 0.66598 0.18903 0.0
H816 H 0.04284 0.95976 0.41196 0.0
H817 H 0.03467 0.9911 0.4407 0.0
H818 H 0.00887 0.93057 0.4832 0.0
H819 H 0.01676 0.89924 0.45461 0.0
H820 H 0.98515 0.99797 0.45737 0.0
H821 H 0.05422 0.97418 0.52314 0.0
H822 H 0.05842 0.96369 0.49537 0.0
H823 H 0.03653 0.94719 0.51305 0.0
C824 C 0.03593 0.9531 0.4276 0.0
C825 C 0.03037 0.92707 0.43102 0.0
C826 C 0.03131 0.97098 0.44397 0.0
C827 C 0.02128 0.96308 0.46405 0.0
C828 C 0.01706 0.93697 0.46794 0.0
H829 H 0.95976 0.03849 0.57754 0.0
H830 H 0.96982 0.00773 0.54878 0.0
C831 C 0.02166 0.91908 0.45159 0.0
C832 C 0.01255 0.98225 0.47999 0.0
H833 H 0.01986 0.00191 0.53253 0.0
C834 C 0.99286 0.99902 0.47376 0.0
C835 C 0.02253 0.98331 0.50136 0.0
C836 C 0.04425 0.96629 0.50863 0.0
C837 C 0.98253 0.01661 0.48851 0.0
C838 C 0.99244 0.0176 0.5099 0.0
C839 C 0.0122 0.00091 0.51611 0.0
C840 C 0.98323 0.03637 0.526 0.0
C841 C 0.96075 0.03357 0.48125 0.0
C842 C 0.98693 0.06262 0.52244 0.0
C843 C 0.98122 0.08019 0.53879 0.0
C844 C 0.97191 0.07174 0.55903 0.0
C845 C 0.96709 0.04551 0.56215 0.0
C846 C 0.9728 0.02795 0.54578 0.0
H847 H 0.95103 0.02589 0.46654 0.0
H848 H 0.94639 0.03579 0.49441 0.0
H849 H 0.96836 0.05283 0.47718 0.0
H850 H 0.9954 0.06942 0.50741 0.0
H851 H 0.9856 0.1002 0.53602 0.0
H852 H 0.52466 0.03057 0.4068 0.0
H853 H 0.49502 0.02097 0.43662 0.0
H854 H 0.5589 0.00457 0.47897 0.0
H855 H 0.58849 0.01387 0.44943 0.0
H856 H 0.49209 0.97334 0.45751 0.0
H857 H 0.514 0.05052 0.51656 0.0
H858 H 0.5232 0.05231 0.48827 0.0
H859 H 0.54186 0.03379 0.50723 0.0
C860 C 0.53236 0.0253 0.42258 0.0
C861 C 0.55892 0.02311 0.42579 0.0
C862 C 0.51544 0.01985 0.43955 0.0
C863 C 0.52483 0.01231 0.46 0.0
C864 C 0.5513 0.01091 0.46344 0.0
H865 H 0.46169 0.95745 0.58114 0.0
H866 H 0.48945 0.96548 0.54979 0.0
C867 C 0.56819 0.01635 0.44653 0.0
C868 C 0.5071 0.00391 0.47728 0.0
H869 H 0.49026 0.01491 0.53003 0.0
C870 C 0.49148 0.98254 0.47332 0.0
C871 C 0.50654 0.01589 0.49788 0.0
C872 C 0.52211 0.03955 0.50272 0.0
C873 C 0.47565 0.97246 0.48964 0.0
C874 C 0.47536 0.98426 0.5103 0.0
C875 C 0.49081 0.00575 0.5142 0.0
C876 C 0.45844 0.9754 0.52797 0.0
C877 C 0.45978 0.949 0.48484 0.0
C878 C 0.43185 0.97771 0.52582 0.0
C879 C 0.41599 0.97326 0.54367 0.0
C880 C 0.42651 0.96656 0.56401 0.0
C881 C 0.45307 0.96282 0.56574 0.0
C882 C 0.46892 0.96733 0.54787 0.0
H883 H 0.46681 0.93867 0.47023 0.0
H884 H 0.45986 0.93564 0.49893 0.0
H885 H 0.4397 0.95486 0.48173 0.0
H886 H 0.42346 0.98435 0.51068 0.0
H887 H 0.39568 0.97677 0.54186 0.0
H888 H 0.50946 0.39902 0.54236 0.0
H889 H 0.49585 0.42905 0.51438 0.0
H890 H 0.53469 0.49026 0.54796 0.0
H891 H 0.54972 0.45996 0.57557 0.0
H892 H 0.46479 0.46965 0.52148 0.0
H893 H 0.55665 0.50214 0.48558 0.0
H894 H 0.55437 0.47418 0.50277 0.0
H895 H 0.55518 0.50563 0.51462 0.0
C896 C 0.51597 0.41865 0.54347 0.0
C897 C 0.5309 0.427 0.5612 0.0
C898 C 0.50784 0.43587 0.52756 0.0
C899 C 0.51435 0.46182 0.52904 0.0
C900 C 0.52979 0.47021 0.54634 0.0
H901 H 0.47129 0.59534 0.45448 0.0
H902 H 0.48269 0.56616 0.48403 0.0
C903 C 0.53816 0.45291 0.56222 0.0
C904 C 0.50347 0.48022 0.51323 0.0
H905 H 0.51936 0.52516 0.47524 0.0
C906 C 0.47671 0.48173 0.5113 0.0
C907 C 0.5191 0.49593 0.50002 0.0
C908 C 0.54791 0.49428 0.50065 0.0
C909 C 0.46515 0.49871 0.49657 0.0
C910 C 0.48078 0.51444 0.48349 0.0
C911 C 0.50749 0.51308 0.48548 0.0
C912 C 0.46997 0.53215 0.46719 0.0
C913 C 0.43636 0.49994 0.49522 0.0
C914 C 0.4584 0.52261 0.44824 0.0
C915 C 0.45174 0.53925 0.43132 0.0
C916 C 0.4566 0.56563 0.43316 0.0
C917 C 0.46689 0.57519 0.4527 0.0
C918 C 0.47364 0.55855 0.46953 0.0
H919 H 0.42709 0.49024 0.50926 0.0
H920 H 0.42979 0.52014 0.49457 0.0
H921 H 0.42988 0.49037 0.48006 0.0
H922 H 0.45568 0.50221 0.44611 0.0
H923 H 0.44379 0.53139 0.41646 0.0
H924 H 0.95535 0.45696 0.41534 0.0
H925 H 0.9863 0.46597 0.44434 0.0
H926 H 0.92542 0.49412 0.48508 0.0
H927 H 0.89446 0.48514 0.45629 0.0
H928 H 0.99477 0.51484 0.46011 0.0
H929 H 0.96611 0.44938 0.52711 0.0
H930 H 0.95566 0.4449 0.49932 0.0
H931 H 0.94035 0.46829 0.51631 0.0
C932 C 0.94855 0.46461 0.43065 0.0
C933 C 0.92251 0.4703 0.43357 0.0
C934 C 0.9662 0.46973 0.44716 0.0
C935 C 0.95809 0.48053 0.46688 0.0
C936 C 0.93199 0.48527 0.47017 0.0
H937 H 0.04091 0.54338 0.57802 0.0
H938 H 0.00781 0.53375 0.55088 0.0
C939 C 0.91432 0.48009 0.4537 0.0
C940 C 0.97714 0.48911 0.4831 0.0
H941 H 0.99602 0.48208 0.53599 0.0
C942 C 0.99514 0.50759 0.47667 0.0
C943 C 0.97734 0.4798 0.50473 0.0
C944 C 0.95898 0.45933 0.51228 0.0
C945 C 0.01336 0.51706 0.49135 0.0
C946 C 0.01368 0.50761 0.5129 0.0
C947 C 0.99552 0.48937 0.51944 0.0
C948 C 0.03374 0.51518 0.52853 0.0
C949 C 0.03202 0.53724 0.48377 0.0
C950 C 0.05915 0.50799 0.52479 0.0
C951 C 0.07798 0.51324 0.54024 0.0
C952 C 0.07175 0.5258 0.55977 0.0
C953 C 0.0463 0.53354 0.56322 0.0
C954 C 0.02741 0.52813 0.54775 0.0
H955 H 0.02525 0.54701 0.46873 0.0
H956 H 0.03521 0.55183 0.49662 0.0
H957 H 0.05067 0.52806 0.48015 0.0
H958 H 0.06427 0.49754 0.51022 0.0
H959 H 0.0972 0.5064 0.53725 0.0
H960 H 0.94663 0.4397 0.93278 0.0
H961 H 0.95378 0.46564 0.96545 0.0
H962 H 0.02883 0.48608 0.94212 0.0
H963 H 0.02212 0.46005 0.90976 0.0
H964 H 0.99462 0.45654 0.99528 0.0
H965 H 0.99815 0.55504 0.96117 0.0
H966 H 0.98403 0.5285 0.94664 0.0
H967 H 0.01819 0.53229 0.94748 0.0
C968 C 0.96452 0.44998 0.9345 0.0
C969 C 0.98374 0.4479 0.91861 0.0
C970 C 0.96854 0.4648 0.95311 0.0
C971 C 0.99172 0.47792 0.95602 0.0
C972 C 0.01061 0.47652 0.93993 0.0
H973 H 0.05777 0.56821 0.06078 0.0
H974 H 0.05173 0.54225 0.02795 0.0
C975 C 0.00666 0.4617 0.92138 0.0
C976 C 0.99709 0.49141 0.97663 0.0
H977 H 0.01187 0.54988 -0.0022 0.0
C978 C 0.99824 0.47698 0.9959 0.0
C979 C 0.00207 0.51798 0.97724 0.0
C980 C 0.00036 0.53445 0.95707 0.0
C981 C 0.00453 0.48841 0.01583 0.0
C982 C 0.00936 0.51502 0.01647 0.0
C983 C 0.00831 0.52944 0.99718 0.0
C984 C 0.01418 0.52859 0.03715 0.0
C985 C 0.00635 0.47188 0.03595 0.0
C986 C 0.99515 0.52926 0.05317 0.0
C987 C 0.99849 0.54406 0.07181 0.0
C988 C 0.02091 0.55859 0.07476 0.0
C989 C 0.04026 0.55732 0.05892 0.0
C990 C 0.03687 0.5425 0.04022 0.0
H991 H 0.00935 0.45142 0.03177 0.0
H992 H 0.02223 0.47826 0.04669 0.0
H993 H 0.98822 0.47333 0.04524 0.0
H994 H 0.97726 0.51914 0.05085 0.0
H995 H 0.98293 0.54507 0.08339 0.0
H996 H 0.03251 0.9583 0.9068 0.0
H997 H 0.00188 0.96701 0.93601 0.0
H998 H 0.06394 0.98868 0.97857 0.0
H999 H 0.09459 0.98016 0.94954 0.0
H1000 H 0.02439 0.95971 -0.00104 0.0
H1001 H 0.9874 0.04273 0.95156 0.0
H1002 H 0.98654 0.01249 0.93768 0.0
H1003 H 0.01681 0.02658 0.94472 0.0
C1004 C 0.03961 0.9645 0.92252 0.0
C1005 C 0.06589 0.96877 0.92585 0.0
C1006 C 0.02214 0.96955 0.93911 0.0
C1007 C 0.03071 0.97903 0.95918 0.0
C1008 C 0.05702 0.9815 0.96309 0.0
H1009 H 0.96193 0.03829 0.07672 0.0
H1010 H 0.99127 0.02807 0.04694 0.0
C1011 C 0.0745 0.97642 0.94655 0.0
C1012 C 0.01233 0.98804 0.97563 0.0
H1013 H 0.96711 0.03378 0.98509 0.0
C1014 C 0.01185 0.97588 0.99598 0.0
C1015 C 0.99618 0.00927 0.9716 0.0
C1016 C 0.9968 0.02372 0.95029 0.0
C1017 C 0.9953 0.98421 0.01242 0.0
C1018 C 0.97923 0.00547 0.0084 0.0
C1019 C 0.97959 0.01755 0.98803 0.0
C1020 C 0.96148 0.01499 0.02513 0.0
C1021 C 0.99483 0.96997 0.03383 0.0
C1022 C 0.93504 0.01226 0.02213 0.0
C1023 C 0.91827 0.0181 0.03904 0.0
C1024 C 0.92775 0.02683 0.05915 0.0
C1025 C 0.95415 0.03126 0.0615 0.0
C1026 C 0.9709 0.02539 0.04458 0.0
H1027 H 0.00424 0.95095 0.03263 0.0
H1028 H 0.00517 0.98133 0.0463 0.0
H1029 H 0.97487 0.96718 0.03951 0.0
H1030 H 0.92749 0.00438 0.00713 0.0
H1031 H 0.89808 0.01422 0.03681 0.0
H1032 H 0.5634 0.06997 0.94461 0.0
H1033 H 0.55474 0.04099 0.97519 0.0
H1034 H 0.48627 0.01453 0.94301 0.0
H1035 H 0.49449 0.04343 0.91271 0.0
H1036 H 0.51015 0.04373 0.00066 0.0
H1037 H 0.52019 0.94787 0.96294 0.0
H1038 H 0.53322 0.97653 0.95074 0.0
H1039 H 0.49975 0.96921 0.94797 0.0
C1040 C 0.54671 0.05771 0.94394 0.0
C1041 C 0.52973 0.05892 0.92617 0.0
C1042 C 0.54183 0.04116 0.96136 0.0
C1043 C 0.52003 0.02546 0.96119 0.0
C1044 C 0.50351 0.02605 0.94321 0.0
H1045 H 0.44326 0.92577 0.05337 0.0
H1046 H 0.45382 0.95376 0.02256 0.0
C1047 C 0.50833 0.04256 0.92585 0.0
C1048 C 0.51318 0.01014 0.98055 0.0
H1049 H 0.49956 0.94943 -0.0025 0.0
C1050 C 0.50806 0.02308 6e-05 0.0
C1051 C 0.51023 0.98327 0.97958 0.0
C1052 C 0.51635 0.96834 0.95924 0.0
C1053 C 0.49959 0.00988 0.01859 0.0
C1054 C 0.49652 0.98303 0.01757 0.0
C1055 C 0.50173 0.97007 -0.0019 0.0
C1056 C 0.489 0.96784 0.03682 0.0
C1057 C 0.4935 0.02478 0.03895 0.0
C1058 C 0.50523 0.9667 0.05497 0.0
C1059 C 0.49934 0.95074 0.07246 0.0
C1060 C 0.47711 0.93551 0.07211 0.0
C1061 C 0.46056 0.93716 0.05408 0.0
C1062 C 0.46652 0.95315 0.03652 0.0
H1063 H 0.49041 0.04541 0.0354 0.0
H1064 H 0.47617 0.01703 0.04707 0.0
H1065 H 0.50977 0.02318 0.0505 0.0
H1066 H 0.52294 0.97748 0.05527 0.0
H1067 H 0.51288 0.94946 0.08579 0.0
H1068 H 0.48044 0.5558 0.90594 0.0
H1069 H 0.51035 0.5455 0.93549 0.0
H1070 H 0.44697 0.52508 0.9769 0.0
H1071 H 0.4171 0.53518 0.94763 0.0
H1072 H 0.48658 0.55115 -0.00136 0.0
H1073 H 0.52232 0.46925 0.94951 0.0
H1074 H 0.52484 0.50021 0.93688 0.0
H1075 H 0.49383 0.48684 0.94229 0.0
C1076 C 0.47291 0.54958 0.92149 0.0
C1077 C 0.44645 0.5461 0.9244 0.0
C1078 C 0.48998 0.54362 0.93828 0.0
C1079 C 0.48081 0.53397 0.95812 0.0
C1080 C 0.45438 0.53239 0.96163 0.0
H1081 H 0.5358 0.46138 0.07491 0.0
H1082 H 0.51068 0.47659 0.04376 0.0
C1083 C 0.43732 0.53838 0.94491 0.0
C1084 C 0.49849 0.52362 0.9747 0.0
H1085 H 0.54038 0.47474 0.98439 0.0
C1086 C 0.49846 0.53455 0.99552 0.0
C1087 C 0.51377 0.50181 0.97052 0.0
C1088 C 0.51364 0.48864 0.94866 0.0
C1089 C 0.51332 0.52418 0.01238 0.0
C1090 C 0.52826 0.50218 0.00828 0.0
C1091 C 0.52874 0.49154 0.98738 0.0
C1092 C 0.54351 0.49004 0.02565 0.0
C1093 C 0.513 0.53683 0.03445 0.0
C1094 C 0.57025 0.49151 0.02514 0.0
C1095 C 0.58462 0.48291 0.04287 0.0
C1096 C 0.57241 0.4726 0.06132 0.0
C1097 C 0.54568 0.46956 0.06106 0.0
C1098 C 0.53133 0.47825 0.04334 0.0
H1099 H 0.50482 0.55644 0.0337 0.0
H1100 H 0.50113 0.52524 0.04574 0.0
H1101 H 0.53263 0.53795 0.04135 0.0
H1102 H 0.57989 0.50047 0.0115 0.0
H1103 H 0.60513 0.48584 0.04265 0.0
H1104 H 0.91848 0.22135 0.66417 0.0
H1105 H 0.90513 0.24567 0.69621 0.0
H1106 H 0.8828 0.17563 0.72819 0.0
H1107 H 0.89627 0.15115 0.69624 0.0
H1108 H 0.8557 0.24465 0.72622 0.0
H1109 H 0.94798 0.20922 0.76092 0.0
H1110 H 0.94231 0.20952 0.73192 0.0
H1111 H 0.926 0.18678 0.74882 0.0
C1112 C 0.91016 0.21123 0.67783 0.0
C1113 C 0.9087 0.18438 0.67783 0.0
C1114 C 0.90237 0.22511 0.69602 0.0
C1115 C 0.89312 0.21235 0.71449 0.0
C1116 C 0.88981 0.18574 0.71398 0.0
H1117 H 0.92155 0.2903 0.83705 0.0
H1118 H 0.90398 0.25654 0.81372 0.0
C1119 C 0.89747 0.17182 0.69571 0.0
C1120 C 0.89117 0.22651 0.73515 0.0
H1121 H 0.92735 0.2422 0.7793 0.0
C1122 C 0.87103 0.24383 0.73814 0.0
C1123 C 0.91109 0.22511 0.75068 0.0
C1124 C 0.93318 0.20675 0.74807 0.0
C1125 C 0.87093 0.26073 0.7559 0.0
C1126 C 0.89196 0.26076 0.7705 0.0
C1127 C 0.91122 0.24224 0.76816 0.0
C1128 C 0.89651 0.28168 0.78635 0.0
C1129 C 0.84856 0.27865 0.75856 0.0
C1130 C 0.89743 0.30715 0.77901 0.0
C1131 C 0.90712 0.3264 0.7924 0.0
C1132 C 0.91663 0.32046 0.81321 0.0
C1133 C 0.91449 0.29527 0.821 0.0
C1134 C 0.90438 0.27605 0.80773 0.0
H1135 H 0.83058 0.26954 0.75276 0.0
H1136 H 0.84602 0.28453 0.77578 0.0
H1137 H 0.85175 0.29601 0.74847 0.0
H1138 H 0.89233 0.31194 0.7624 0.0
H1139 H 0.90891 0.34556 0.78585 0.0
H1140 H 0.33494 0.87961 0.68375 0.0
H1141 H 0.30694 0.85787 0.70981 0.0
H1142 H 0.25501 0.92192 0.70763 0.0
H1143 H 0.28267 0.94377 0.68219 0.0
H1144 H 0.29728 0.87637 0.74979 0.0
H1145 H 0.20521 0.86311 0.70815 0.0
H1146 H 0.23467 0.86806 0.69334 0.0
H1147 H 0.21626 0.89498 0.70292 0.0
C1148 C 0.31739 0.88892 0.68859 0.0
C1149 C 0.31129 0.91363 0.68092 0.0
C1150 C 0.3013 0.87633 0.70333 0.0
C1151 C 0.27867 0.88805 0.71038 0.0
C1152 C 0.27196 0.9121 0.70192 0.0
H1153 H 0.21693 0.94107 0.81588 0.0
H1154 H 0.24496 0.91981 0.7906 0.0
C1155 C 0.28799 0.9247 0.68734 0.0
C1156 C 0.26397 0.87773 0.729 0.0
H1157 H 0.20247 0.87623 0.74702 0.0
C1158 C 0.27656 0.87534 0.74912 0.0
C1159 C 0.23704 0.87548 0.72817 0.0
C1160 C 0.22261 0.87525 0.70688 0.0
C1161 C 0.26271 0.87455 0.76863 0.0
C1162 C 0.23577 0.87672 0.76787 0.0
C1163 C 0.22318 0.87524 0.74768 0.0
C1164 C 0.22103 0.88626 0.78673 0.0
C1165 C 0.27714 0.87334 0.78989 0.0
C1166 C 0.19816 0.87447 0.79322 0.0
C1167 C 0.18181 0.88675 0.80788 0.0
C1168 C 0.18788 0.91123 0.81601 0.0
C1169 C 0.21152 0.92221 0.81033 0.0
C1170 C 0.22781 0.90992 0.79583 0.0
H1171 H 0.29444 0.86116 0.78827 0.0
H1172 H 0.28366 0.89286 0.79437 0.0
H1173 H 0.26504 0.86566 0.80324 0.0
H1174 H 0.19248 0.85629 0.78627 0.0
H1175 H 0.16402 0.87746 0.81218 0.0
H1176 H 0.6275 0.17567 0.82144 0.0
H1177 H 0.64647 0.2074 0.79707 0.0
H1178 H 0.58168 0.25696 0.80698 0.0
H1179 H 0.56233 0.22555 0.83069 0.0
H1180 H 0.62047 0.21952 0.75946 0.0
H1181 H 0.64056 0.30807 0.80504 0.0
H1182 H 0.63782 0.27717 0.81818 0.0
H1183 H 0.60962 0.29556 0.81181 0.0
C1184 C 0.61739 0.19344 0.81872 0.0
C1185 C 0.59297 0.19756 0.82776 0.0
C1186 C 0.62847 0.21169 0.80496 0.0
C1187 C 0.6156 0.23462 0.80036 0.0
C1188 C 0.59226 0.23965 0.81068 0.0
H1189 H 0.56694 0.33717 0.71089 0.0
H1190 H 0.58355 0.3147 0.74261 0.0
C1191 C 0.58108 0.2214 0.82424 0.0
C1192 C 0.62351 0.25098 0.78186 0.0
H1193 H 0.62763 0.31374 0.76695 0.0
C1194 C 0.62294 0.24006 0.76103 0.0
C1195 C 0.62677 0.27769 0.78403 0.0
C1196 C 0.629 0.29025 0.80603 0.0
C1197 C 0.6226 0.25538 0.74226 0.0
C1198 C 0.62359 0.28234 0.74448 0.0
C1199 C 0.62671 0.29309 0.76527 0.0
C1200 C 0.61674 0.29943 0.72609 0.0
C1201 C 0.61869 0.24261 0.72045 0.0
C1202 C 0.63042 0.29921 0.70645 0.0
C1203 C 0.62055 0.31158 0.68802 0.0
C1204 C 0.59702 0.32462 0.68907 0.0
C1205 C 0.58464 0.32661 0.70929 0.0
C1206 C 0.59433 0.31406 0.72756 0.0
H1207 H 0.61437 0.22186 0.72208 0.0
H1208 H 0.60274 0.25182 0.71139 0.0
H1209 H 0.63634 0.24458 0.7106 0.0
H1210 H 0.64808 0.28852 0.70511 0.0
H1211 H 0.63072 0.30979 0.67278 0.0
H1212 H 0.22637 0.56234 0.6732 0.0
H1213 H 0.24918 0.58173 0.70349 0.0
H1214 H 0.19316 0.64224 0.70628 0.0
H1215 H 0.16943 0.62214 0.67629 0.0
H1216 H 0.27068 0.62989 0.70978 0.0
H1217 H 0.1905 0.61147 0.76758 0.0
H1218 H 0.19087 0.59738 0.7408 0.0
H1219 H 0.18453 0.63093 0.74391 0.0
C1220 C 0.21877 0.57969 0.68027 0.0
C1221 C 0.1958 0.59039 0.67263 0.0
C1222 C 0.23201 0.59095 0.69743 0.0
C1223 C 0.22269 0.61325 0.7073 0.0
C1224 C 0.20045 0.62482 0.69907 0.0
H1225 H 0.33366 0.63232 0.81418 0.0
H1226 H 0.30317 0.65065 0.78795 0.0
C1227 C 0.18706 0.61343 0.68185 0.0
C1228 C 0.23574 0.62264 0.72714 0.0
H1229 H 0.23103 0.61828 0.78239 0.0
C1230 C 0.26195 0.62818 0.72573 0.0
C1231 C 0.2241 0.62061 0.74785 0.0
C1232 C 0.19598 0.6147 0.75032 0.0
C1233 C 0.27748 0.62862 0.74438 0.0
C1234 C 0.26623 0.62402 0.76497 0.0
C1235 C 0.23954 0.62166 0.76654 0.0
C1236 C 0.28191 0.61544 0.78371 0.0
C1237 C 0.30606 0.63125 0.74161 0.0
C1238 C 0.27922 0.59005 0.79082 0.0
C1239 C 0.29634 0.57968 0.80578 0.0
C1240 C 0.31666 0.59445 0.81396 0.0
C1241 C 0.31845 0.62038 0.80785 0.0
C1242 C 0.30107 0.63086 0.7929 0.0
H1243 H 0.31178 0.6322 0.72421 0.0
H1244 H 0.3127 0.64903 0.74969 0.0
H1245 H 0.31607 0.61482 0.74933 0.0
H1246 H 0.26464 0.57775 0.78387 0.0
H1247 H 0.29446 0.55962 0.80987 0.0
H1248 H 0.05433 0.71363 0.18323 0.0
H1249 H 0.07588 0.74169 0.20848 0.0
H1250 H 0.14151 0.69174 0.2092 0.0
H1251 H 0.12007 0.66333 0.1833 0.0
H1252 H 0.12318 0.69994 0.24951 0.0
H1253 H 0.13307 0.79333 0.20923 0.0
H1254 H 0.10147 0.78139 0.20422 0.0
H1255 H 0.12876 0.76405 0.194 0.0
C1256 C 0.07365 0.70883 0.18799 0.0
C1257 C 0.08524 0.68588 0.18127 0.0
C1258 C 0.08609 0.72512 0.20248 0.0
C1259 C 0.11048 0.71904 0.21053 0.0
C1260 C 0.12275 0.69688 0.20306 0.0
H1261 H 0.12172 0.831 0.31498 0.0
H1262 H 0.14221 0.8038 0.28776 0.0
C1263 C 0.11034 0.68055 0.18841 0.0
C1264 C 0.12061 0.73367 0.22928 0.0
H1265 H 0.12081 0.79481 0.24833 0.0
C1266 C 0.12366 0.72069 0.24917 0.0
C1267 C 0.12206 0.76068 0.22887 0.0
C1268 C 0.12146 0.77558 0.20783 0.0
C1269 C 0.12443 0.73413 0.26889 0.0
C1270 C 0.12163 0.76103 0.2686 0.0
C1271 C 0.12233 0.7741 0.24861 0.0
C1272 C 0.11236 0.77512 0.28791 0.0
C1273 C 0.12633 0.71926 0.2899 0.0
C1274 C 0.08897 0.76788 0.29721 0.0
C1275 C 0.07701 0.78348 0.31244 0.0
C1276 C 0.08808 0.80691 0.31871 0.0
C1277 C 0.11231 0.81341 0.31028 0.0
C1278 C 0.12423 0.79777 0.29486 0.0
H1279 H 0.13857 0.70207 0.2878 0.0
H1280 H 0.13428 0.73116 0.30327 0.0
H1281 H 0.10698 0.71254 0.29468 0.0
H1282 H 0.07905 0.75087 0.29167 0.0
H1283 H 0.05836 0.7777 0.31819 0.0
H1284 H 0.8521 0.10054 0.19909 0.0
H1285 H 0.82743 0.11494 0.23061 0.0
H1286 H 0.75758 0.09201 0.19868 0.0
H1287 H 0.7821 0.07775 0.16702 0.0
H1288 H 0.75909 0.14269 0.22774 0.0
H1289 H 0.79264 0.05068 0.26432 0.0
H1290 H 0.81552 0.07179 0.2517 0.0
H1291 H 0.79233 0.05553 0.23521 0.0
C1292 C 0.83144 0.09937 0.19846 0.0
C1293 C 0.81898 0.08773 0.18072 0.0
C1294 C 0.81741 0.10757 0.21649 0.0
C1295 C 0.7908 0.1044 0.2169 0.0
C1296 C 0.77815 0.09466 0.19855 0.0
H1297 H 0.65805 0.09356 0.29035 0.0
H1298 H 0.69132 0.10869 0.26583 0.0
C1299 C 0.79215 0.08634 0.1806 0.0
C1300 C 0.77652 0.10712 0.23742 0.0
H1301 H 0.76047 0.07276 0.28251 0.0
C1302 C 0.75965 0.12773 0.24 0.0
C1303 C 0.77757 0.08764 0.25337 0.0
C1304 C 0.79539 0.06505 0.25116 0.0
C1305 C 0.74295 0.1288 0.25787 0.0
C1306 C 0.74268 0.10832 0.27302 0.0
C1307 C 0.76065 0.08851 0.27097 0.0
C1308 C 0.72208 0.10496 0.28935 0.0
C1309 C 0.72553 0.15164 0.26009 0.0
C1310 C 0.72812 0.09792 0.31086 0.0
C1311 C 0.7091 0.08867 0.32475 0.0
C1312 C 0.68372 0.08655 0.31745 0.0
C1313 C 0.67739 0.09535 0.2965 0.0
C1314 C 0.69644 0.1042 0.2825 0.0
H1315 H 0.73482 0.16918 0.25356 0.0
H1316 H 0.70788 0.14832 0.25041 0.0
H1317 H 0.72011 0.15505 0.27731 0.0
H1318 H 0.74777 0.09823 0.31649 0.0
H1319 H 0.71437 0.08213 0.3409 0.0
H1320 H 0.42885 0.71536 0.31826 0.0
H1321 H 0.41024 0.74266 0.29082 0.0
H1322 H 0.34469 0.69283 0.28623 0.0
H1323 H 0.36303 0.66517 0.31438 0.0
H1324 H 0.36795 0.70011 0.24714 0.0
H1325 H 0.35302 0.79413 0.28501 0.0
H1326 H 0.38392 0.78225 0.29265 0.0
H1327 H 0.35559 0.76506 0.30091 0.0
C1328 C 0.41011 0.71036 0.31216 0.0
C1329 C 0.39773 0.68761 0.31854 0.0
C1330 C 0.39936 0.72625 0.29639 0.0
C1331 C 0.37592 0.71998 0.28664 0.0
C1332 C 0.36275 0.69809 0.29366 0.0
H1333 H 0.3711 0.82984 0.17945 0.0
H1334 H 0.34968 0.80245 0.20616 0.0
C1335 C 0.37344 0.68217 0.30963 0.0
C1336 C 0.36784 0.73419 0.26691 0.0
H1337 H 0.36858 0.79502 0.24693 0.0
C1338 C 0.36712 0.72086 0.2471 0.0
C1339 C 0.36604 0.76117 0.26679 0.0
C1340 C 0.36438 0.7764 0.28756 0.0
C1341 C 0.36811 0.73397 0.22718 0.0
C1342 C 0.37029 0.76093 0.22722 0.0
C1343 C 0.36749 0.77428 0.24689 0.0
C1344 C 0.38058 0.77505 0.20824 0.0
C1345 C 0.3686 0.71875 0.20635 0.0
C1346 C 0.40489 0.76857 0.20039 0.0
C1347 C 0.41733 0.7843 0.18544 0.0
C1348 C 0.40581 0.80705 0.17804 0.0
C1349 C 0.3808 0.81277 0.18506 0.0
C1350 C 0.36839 0.79702 0.20018 0.0
H1351 H 0.35684 0.70112 0.20792 0.0
H1352 H 0.36142 0.73016 0.19234 0.0
H1353 H 0.38855 0.71275 0.20291 0.0
H1354 H 0.41501 0.75211 0.20683 0.0
H1355 H 0.4366 0.77922 0.1808 0.0
H1356 H 0.63405 0.39005 0.20694 0.0
H1357 H 0.65726 0.37412 0.23889 0.0
H1358 H 0.72885 0.39373 0.20835 0.0
H1359 H 0.7058 0.4094 0.17628 0.0
H1360 H 0.72667 0.34484 0.2369 0.0
H1361 H 0.69141 0.43568 0.27395 0.0
H1362 H 0.66863 0.41422 0.26169 0.0
H1363 H 0.69118 0.43089 0.24487 0.0
C1364 C 0.65474 0.39014 0.20671 0.0
C1365 C 0.66816 0.40132 0.18927 0.0
C1366 C 0.66795 0.38108 0.22498 0.0
C1367 C 0.69468 0.38297 0.22595 0.0
C1368 C 0.70819 0.39209 0.20783 0.0
H1369 H 0.82693 0.39641 0.29823 0.0
H1370 H 0.79354 0.37968 0.27453 0.0
C1371 C 0.69503 0.40124 0.18964 0.0
C1372 C 0.70839 0.37983 0.24679 0.0
H1373 H 0.72367 0.41379 0.29222 0.0
C1374 C 0.7257 0.35955 0.24931 0.0
C1375 C 0.70684 0.39896 0.26296 0.0
C1376 C 0.68863 0.42128 0.26087 0.0
C1377 C 0.74247 0.35859 0.2672 0.0
C1378 C 0.74237 0.37888 0.28246 0.0
C1379 C 0.72381 0.3982 0.28059 0.0
C1380 C 0.76329 0.38286 0.29847 0.0
C1381 C 0.76044 0.33615 0.26926 0.0
C1382 C 0.75762 0.39009 0.31996 0.0
C1383 C 0.77668 0.40033 0.33335 0.0
C1384 C 0.80175 0.40318 0.32557 0.0
C1385 C 0.80783 0.39407 0.30473 0.0
C1386 C 0.78872 0.38429 0.29121 0.0
H1387 H 0.75134 0.31841 0.26298 0.0
H1388 H 0.77773 0.3398 0.25926 0.0
H1389 H 0.76642 0.33288 0.28641 0.0
H1390 H 0.73815 0.38927 0.32592 0.0
H1391 H 0.77164 0.40712 0.34942 0.0
H1392 H 0.25359 0.99469 0.61641 0.0
H1393 H 0.21443 0.0197 0.61839 0.0
H1394 H 0.24873 0.06843 0.66699 0.0
H1395 H 0.28853 0.04352 0.66484 0.0
H1396 H 0.18161 0.03103 0.65242 0.0
H1397 H 0.22736 0.11866 0.61843 0.0
H1398 H 0.24274 0.08776 0.6178 0.0
H1399 H 0.24156 0.10561 0.64272 0.0
C1400 C 0.25282 0.01058 0.62769 0.0
C1401 C 0.27425 0.01729 0.64032 0.0
C1402 C 0.23037 0.02483 0.62882 0.0
C1403 C 0.22882 0.04616 0.64254 0.0
C1404 C 0.24973 0.05228 0.65599 0.0
H1405 H 0.08197 0.12581 0.65547 0.0
H1406 H 0.12263 0.10484 0.66403 0.0
C1407 C 0.27234 0.03792 0.65489 0.0
C1408 C 0.20548 0.06222 0.64185 0.0
H1409 H 0.18304 0.12037 0.6249 0.0
C1410 C 0.18192 0.05067 0.64668 0.0
C1411 C 0.20598 0.08771 0.63401 0.0
C1412 C 0.2307 0.10072 0.62776 0.0
C1413 C 0.15877 0.0637 0.6434 0.0
C1414 C 0.15925 0.08914 0.63549 0.0
C1415 C 0.18282 0.10091 0.63109 0.0
C1416 C 0.13537 0.10327 0.63058 0.0
C1417 C 0.13395 0.04979 0.64758 0.0
C1418 C 0.12943 0.11 0.60901 0.0
C1419 C 0.10616 0.12188 0.60406 0.0
C1420 C 0.08845 0.12724 0.62061 0.0
C1421 C 0.0949 0.12125 0.6423 0.0
C1422 C 0.11815 0.1094 0.64724 0.0
H1423 H 0.13677 0.02879 0.64914 0.0
H1424 H 0.12559 0.05686 0.66298 0.0
H1425 H 0.11998 0.05348 0.63429 0.0
H1426 H 0.14254 0.10546 0.59593 0.0
H1427 H 0.10172 0.12621 0.58722 0.0
H1428 H 0.41792 0.07261 0.63112 0.0
H1429 H 0.43954 0.11317 0.63801 0.0
H1430 H 0.37502 0.1541 0.61138 0.0
H1431 H 0.35301 0.1134 0.6046 0.0
H1432 H 0.42357 0.17024 0.59571 0.0
H1433 H 0.42232 0.16529 0.68612 0.0
H1434 H 0.43186 0.13638 0.67251 0.0
H1435 H 0.39984 0.14807 0.66919 0.0
C1436 C 0.40817 0.09021 0.62692 0.0
C1437 C 0.38361 0.08977 0.61751 0.0
C1438 C 0.42054 0.11337 0.63093 0.0
C1439 C 0.40859 0.13659 0.62569 0.0
C1440 C 0.3844 0.13632 0.61574 0.0
H1441 H 0.46928 0.28791 0.65917 0.0
H1442 H 0.44231 0.24951 0.65794 0.0
C1443 C 0.37196 0.11308 0.61173 0.0
C1444 C 0.42199 0.16102 0.62985 0.0
H1445 H 0.44978 0.19647 0.67016 0.0
C1446 C 0.42909 0.17614 0.61198 0.0
C1447 C 0.42877 0.1688 0.65115 0.0
C1448 C 0.42016 0.15399 0.67093 0.0
C1449 C 0.4438 0.19832 0.61477 0.0
C1450 C 0.45195 0.20526 0.63595 0.0
C1451 C 0.44386 0.19081 0.65393 0.0
C1452 C 0.46942 0.22715 0.63944 0.0
C1453 C 0.45064 0.21409 0.59499 0.0
C1454 C 0.49399 0.22676 0.63035 0.0
C1455 C 0.50938 0.24855 0.631 0.0
C1456 C 0.50052 0.27107 0.64091 0.0
C1457 C 0.47663 0.27084 0.65142 0.0
C1458 C 0.46117 0.24897 0.65067 0.0
H1459 H 0.43751 0.2102 0.58113 0.0
H1460 H 0.45004 0.23487 0.59873 0.0
H1461 H 0.47035 0.20923 0.58977 0.0
H1462 H 0.50088 0.20987 0.62201 0.0
H1463 H 0.5278 0.24806 0.62296 0.0
H1464 H 0.4083 0.37332 0.58597 0.0
H1465 H 0.36835 0.39694 0.59147 0.0
H1466 H 0.39156 0.41493 0.65709 0.0
H1467 H 0.43142 0.39139 0.65176 0.0
H1468 H 0.32982 0.38944 0.62172 0.0
H1469 H 0.37461 0.48511 0.63215 0.0
H1470 H 0.39197 0.45797 0.62169 0.0
H1471 H 0.38636 0.46096 0.65045 0.0
C1472 C 0.40484 0.38225 0.60158 0.0
C1473 C 0.42316 0.38077 0.61831 0.0
C1474 C 0.38207 0.39576 0.60469 0.0
C1475 C 0.37721 0.40802 0.62459 0.0
C1476 C 0.39521 0.40612 0.64147 0.0
H1477 H 0.22447 0.46824 0.65612 0.0
H1478 H 0.2653 0.44534 0.659 0.0
C1479 C 0.41801 0.39272 0.63835 0.0
C1480 C 0.35321 0.42263 0.62766 0.0
H1481 H 0.32991 0.48252 0.63754 0.0
C1482 C 0.3298 0.40977 0.62526 0.0
C1483 C 0.35331 0.44917 0.63219 0.0
C1484 C 0.37788 0.46422 0.6341 0.0
C1485 C 0.30642 0.42281 0.62696 0.0
C1486 C 0.30652 0.44934 0.63156 0.0
C1487 C 0.32993 0.46212 0.63426 0.0
C1488 C 0.28266 0.46461 0.63151 0.0
C1489 C 0.28187 0.4083 0.62298 0.0
C1490 C 0.27934 0.48373 0.61571 0.0
C1491 C 0.25623 0.49692 0.61413 0.0
C1492 C 0.23595 0.49129 0.62836 0.0
C1493 C 0.23968 0.47293 0.64485 0.0
C1494 C 0.26291 0.45971 0.64643 0.0
H1495 H 0.28537 0.38935 0.61538 0.0
H1496 H 0.27203 0.40508 0.63874 0.0
H1497 H 0.26882 0.41943 0.61227 0.0
H1498 H 0.29438 0.4879 0.60411 0.0
H1499 H 0.25406 0.51105 0.60133 0.0
H1500 H 0.12212 0.39849 0.58656 0.0
H1501 H 0.09849 0.35955 0.59596 0.0
H1502 H 0.09459 0.38395 0.6629 0.0
H1503 H 0.11816 0.42294 0.65364 0.0
H1504 H 0.1108 0.32114 0.62604 0.0
H1505 H 0.01955 0.36967 0.64755 0.0
H1506 H 0.04484 0.38572 0.63293 0.0
H1507 H 0.0476 0.38055 0.66175 0.0
C1508 C 0.11632 0.3955 0.60328 0.0
C1509 C 0.12175 0.4139 0.61927 0.0
C1510 C 0.10279 0.37331 0.60863 0.0
C1511 C 0.09447 0.36911 0.63006 0.0
C1512 C 0.10032 0.38715 0.64619 0.0
H1513 H 0.0308 0.21732 0.66233 0.0
H1514 H 0.05462 0.25745 0.66678 0.0
C1515 C 0.11375 0.40941 0.64083 0.0
C1516 C 0.0797 0.34573 0.63534 0.0
H1517 H 0.02038 0.32472 0.65027 0.0
C1518 C 0.09111 0.32186 0.63157 0.0
C1519 C 0.05403 0.34685 0.64254 0.0
C1520 C 0.04062 0.37203 0.64631 0.0
C1521 C 0.07728 0.29904 0.63408 0.0
C1522 C 0.05145 0.30017 0.64083 0.0
C1523 C 0.04027 0.32399 0.6453 0.0
C1524 C 0.03496 0.27715 0.64062 0.0
C1525 C 0.09 0.27399 0.62841 0.0
C1526 C 0.01534 0.27541 0.6251 0.0
C1527 C 0.00172 0.25265 0.62256 0.0
C1528 C 0.00741 0.23123 0.63556 0.0
C1529 C 0.02605 0.23347 0.65201 0.0
C1530 C 0.03976 0.25631 0.65451 0.0
H1531 H 0.1087 0.27686 0.6202 0.0
H1532 H 0.09336 0.26282 0.64354 0.0
H1533 H 0.07747 0.26244 0.6176 0.0
H1534 H 0.01131 0.29132 0.61428 0.0
H1535 H 0.98734 0.25162 0.60987 0.0
H1536 H 0.27174 0.5047 0.88754 0.0
H1537 H 0.23093 0.48328 0.88176 0.0
H1538 H 0.25669 0.45652 0.81914 0.0
H1539 H 0.29807 0.47778 0.82492 0.0
H1540 H 0.19462 0.4893 0.84814 0.0
H1541 H 0.23485 0.39055 0.85139 0.0
H1542 H 0.25284 0.41813 0.86031 0.0
H1543 H 0.24841 0.41224 0.83177 0.0
C1544 C 0.2688 0.49435 0.87248 0.0
C1545 C 0.28823 0.49278 0.85676 0.0
C1546 C 0.2454 0.48217 0.86918 0.0
C1547 C 0.24091 0.46811 0.85015 0.0
C1548 C 0.25996 0.46699 0.83409 0.0
H1549 H 0.09376 0.3892 0.82868 0.0
H1550 H 0.13455 0.41046 0.82088 0.0
C1551 C 0.28351 0.47922 0.83739 0.0
C1552 C 0.21636 0.45429 0.84776 0.0
H1553 H 0.19009 0.39443 0.84973 0.0
C1554 C 0.19361 0.46856 0.8481 0.0
C1555 C 0.21517 0.42722 0.84782 0.0
C1556 C 0.23905 0.41101 0.84794 0.0
C1557 C 0.16971 0.45645 0.84933 0.0
C1558 C 0.16863 0.4295 0.85028 0.0
C1559 C 0.19119 0.41515 0.84897 0.0
C1560 C 0.14437 0.41613 0.85474 0.0
C1561 C 0.14573 0.47242 0.85052 0.0
C1562 C 0.13667 0.41227 0.87634 0.0
C1563 C 0.1134 0.40029 0.88088 0.0
C1564 C 0.09743 0.39203 0.86385 0.0
C1565 C 0.10543 0.3957 0.84216 0.0
C1566 C 0.12877 0.40765 0.83765 0.0
H1567 H 0.14963 0.49309 0.84782 0.0
H1568 H 0.13167 0.46577 0.83819 0.0
H1569 H 0.13683 0.47001 0.8668 0.0
H1570 H 0.14857 0.41882 0.88969 0.0
H1571 H 0.10768 0.39799 0.89769 0.0
H1572 H 0.10644 0.09737 0.9045 0.0
H1573 H 0.08562 0.13862 0.89726 0.0
H1574 H 0.10675 0.13343 0.82964 0.0
H1575 H 0.12743 0.09207 0.83667 0.0
H1576 H 0.11627 0.18425 0.85583 0.0
H1577 H 0.01754 0.14423 0.85637 0.0
H1578 H 0.039 0.1339 0.87763 0.0
H1579 H 0.04528 0.12506 0.84996 0.0
C1580 C 0.10682 0.10513 0.88815 0.0
C1581 C 0.11841 0.09148 0.87114 0.0
C1582 C 0.09484 0.12856 0.88401 0.0
C1583 C 0.09451 0.13879 0.86288 0.0
C1584 C 0.10665 0.12561 0.84598 0.0
H1585 H 0.03555 0.29052 0.82385 0.0
H1586 H 0.05638 0.24848 0.82176 0.0
C1587 C 0.11835 0.10202 0.85002 0.0
C1588 C 0.0811 0.16311 0.85845 0.0
H1589 H 0.02147 0.18931 0.85546 0.0
C1590 C 0.09555 0.18545 0.8555 0.0
C1591 C 0.05413 0.16436 0.85796 0.0
C1592 C 0.03793 0.14064 0.8605 0.0
C1593 C 0.08363 0.20939 0.8531 0.0
C1594 C 0.05657 0.21078 0.85317 0.0
C1595 C 0.04219 0.1882 0.85536 0.0
C1596 C 0.04281 0.23558 0.85322 0.0
C1597 C 0.10009 0.23308 0.8516 0.0
C1598 C 0.02752 0.24183 0.87116 0.0
C1599 C 0.01544 0.26555 0.87226 0.0
C1600 C 0.01838 0.2836 0.85545 0.0
C1601 C 0.03303 0.27706 0.8371 0.0
C1602 C 0.04509 0.25315 0.83597 0.0
H1603 H 0.12026 0.22918 0.85628 0.0
H1604 H 0.09995 0.24025 0.83458 0.0
H1605 H 0.09254 0.24845 0.86225 0.0
H1606 H 0.02542 0.22854 0.88461 0.0
H1607 H 0.00422 0.26989 0.8866 0.0
H1608 H 0.40136 0.10782 0.90254 0.0
H1609 H 0.36054 0.08879 0.89176 0.0
H1610 H 0.38009 0.09882 0.82409 0.0
H1611 H 0.42087 0.11814 0.8347 0.0
H1612 H 0.32114 0.11084 0.86515 0.0
H1613 H 0.36185 0.02176 0.8295 0.0
H1614 H 0.38024 0.04234 0.8472 0.0
H1615 H 0.37405 0.0518 0.81959 0.0
C1616 C 0.39693 0.10616 0.88538 0.0
C1617 C 0.41448 0.11434 0.86952 0.0
C1618 C 0.37365 0.09521 0.87924 0.0
C1619 C 0.36748 0.09217 0.85715 0.0
C1620 C 0.38472 0.1006 0.84122 0.0
H1621 H 0.21068 0.03943 0.82641 0.0
H1622 H 0.25163 0.06178 0.82123 0.0
C1623 C 0.40805 0.11156 0.84735 0.0
C1624 C 0.34288 0.08012 0.85106 0.0
H1625 H 0.31702 0.0248 0.83127 0.0
C1626 C 0.32015 0.09222 0.85741 0.0
C1627 C 0.34179 0.05586 0.84092 0.0
C1628 C 0.36573 0.04199 0.83397 0.0
C1629 C 0.29636 0.08019 0.85476 0.0
C1630 C 0.29536 0.0555 0.84545 0.0
C1631 C 0.31796 0.04383 0.83825 0.0
C1632 C 0.2716 0.04018 0.84609 0.0
C1633 C 0.27258 0.09329 0.86306 0.0
C1634 C 0.26965 0.02025 0.8613 0.0
C1635 C 0.24642 0.00766 0.86437 0.0
C1636 C 0.22476 0.01462 0.85215 0.0
C1637 C 0.22707 0.03368 0.83606 0.0
C1638 C 0.25037 0.04648 0.83312 0.0
H1639 H 0.27698 0.11149 0.87162 0.0
H1640 H 0.25965 0.09761 0.84918 0.0
H1641 H 0.26212 0.08046 0.87441 0.0
H1642 H 0.28586 0.01516 0.87145 0.0
H1643 H 0.24529 0.99291 0.87676 0.0
H1644 H 0.40868 0.41572 0.90722 0.0
H1645 H 0.42616 0.37297 0.90106 0.0
H1646 H 0.40437 0.37754 0.83336 0.0
H1647 H 0.38704 0.42042 0.8394 0.0
H1648 H 0.40157 0.32996 0.88715 0.0
H1649 H 0.47864 0.35634 0.82899 0.0
H1650 H 0.46079 0.38006 0.84392 0.0
H1651 H 0.44689 0.36483 0.82046 0.0
C1652 C 0.40757 0.4076 0.89105 0.0
C1653 C 0.3966 0.42149 0.8738 0.0
C1654 C 0.41763 0.38322 0.88752 0.0
C1655 C 0.41689 0.3722 0.86669 0.0
C1656 C 0.4057 0.38589 0.84945 0.0
H1657 H 0.47421 0.21804 0.83331 0.0
H1658 H 0.45231 0.25955 0.83016 0.0
C1659 C 0.39579 0.41039 0.85294 0.0
C1660 C 0.42727 0.34609 0.86342 0.0
H1661 H 0.47407 0.31235 0.83735 0.0
C1662 C 0.41732 0.32612 0.87616 0.0
C1663 C 0.44764 0.34102 0.84887 0.0
C1664 C 0.45931 0.36172 0.8349 0.0
C1665 C 0.42767 0.30141 0.87527 0.0
C1666 C 0.44869 0.29663 0.86144 0.0
C1667 C 0.45796 0.31621 0.84796 0.0
C1668 C 0.46275 0.27214 0.86252 0.0
C1669 C 0.41637 0.28068 0.88944 0.0
C1670 C 0.4763 0.26593 0.8815 0.0
C1671 C 0.48881 0.2425 0.88332 0.0
C1672 C 0.48806 0.22476 0.86616 0.0
C1673 C 0.47507 0.23129 0.84683 0.0
C1674 C 0.46257 0.25493 0.845 0.0
H1675 H 0.39661 0.28546 0.89466 0.0
H1676 H 0.41604 0.26205 0.88076 0.0
H1677 H 0.42834 0.27841 0.90428 0.0
H1678 H 0.47695 0.27917 0.89505 0.0
H1679 H 0.49874 0.23818 0.89839 0.0
H1680 H 0.89434 0.87298 0.40636 0.0
H1681 H 0.85372 0.89465 0.39911 0.0
H1682 H 0.87591 0.90644 0.33231 0.0
H1683 H 0.91628 0.88436 0.33918 0.0
H1684 H 0.85734 0.95058 0.35265 0.0
H1685 H 0.79184 0.86804 0.36402 0.0
H1686 H 0.81365 0.8729 0.38628 0.0
H1687 H 0.82584 0.86427 0.35995 0.0
C1688 C 0.89046 0.87984 0.39005 0.0
C1689 C 0.90867 0.87697 0.37341 0.0
C1690 C 0.86724 0.89222 0.38593 0.0
C1691 C 0.86174 0.90183 0.36508 0.0
C1692 C 0.87981 0.89904 0.34846 0.0
H1693 H 0.70959 0.96112 0.33137 0.0
H1694 H 0.75075 0.93877 0.32869 0.0
C1695 C 0.90298 0.8866 0.35251 0.0
C1696 C 0.83754 0.91568 0.36083 0.0
H1697 H 0.7726 0.90946 0.36291 0.0
C1698 C 0.8388 0.94155 0.35468 0.0
C1699 C 0.81343 0.90372 0.3631 0.0
C1700 C 0.811 0.87564 0.36849 0.0
C1701 C 0.8165 0.95608 0.35171 0.0
C1702 C 0.79241 0.94448 0.35519 0.0
C1703 C 0.79113 0.91834 0.36038 0.0
C1704 C 0.76843 0.95952 0.35521 0.0
C1705 C 0.8189 0.9838 0.34507 0.0
C1706 C 0.76489 0.97862 0.3709 0.0
C1707 C 0.7415 0.99129 0.37252 0.0
C1708 C 0.72116 0.98506 0.35849 0.0
C1709 C 0.72495 0.96643 0.34233 0.0
C1710 C 0.74839 0.9536 0.34082 0.0
H1711 H 0.83749 0.98765 0.33694 0.0
H1712 H 0.80314 0.98948 0.33391 0.0
H1713 H 0.81787 0.996 0.35981 0.0
H1714 H 0.77996 0.98315 0.38241 0.0
H1715 H 0.73919 0.00554 0.38515 0.0
H1716 H 0.61125 0.91268 0.33394 0.0
H1717 H 0.5892 0.87251 0.32592 0.0
H1718 H 0.58895 0.85356 0.39429 0.0
H1719 H 0.6108 0.89384 0.40252 0.0
H1720 H 0.60409 0.81278 0.36576 0.0
H1721 H 0.51283 0.85904 0.34018 0.0
H1722 H 0.5415 0.8698 0.32685 0.0
H1723 H 0.53714 0.87595 0.35534 0.0
C1724 C 0.60631 0.90011 0.34732 0.0
C1725 C 0.61251 0.90662 0.36895 0.0
C1726 C 0.59378 0.87713 0.34266 0.0
C1727 C 0.58716 0.8603 0.35954 0.0
C1728 C 0.59389 0.86638 0.38105 0.0
H1729 H 0.48214 0.7423 0.38397 0.0
H1730 H 0.50639 0.78174 0.37883 0.0
C1731 C 0.60643 0.88934 0.38573 0.0
C1732 C 0.57286 0.83646 0.35498 0.0
H1733 H 0.51396 0.81403 0.34022 0.0
C1734 C 0.5845 0.81297 0.35991 0.0
C1735 C 0.54731 0.83692 0.34735 0.0
C1736 C 0.53378 0.86173 0.34222 0.0
C1737 C 0.57096 0.78987 0.35808 0.0
C1738 C 0.54519 0.79038 0.35103 0.0
C1739 C 0.5338 0.81379 0.34543 0.0
C1740 C 0.52894 0.76725 0.35208 0.0
C1741 C 0.58385 0.76521 0.36472 0.0
C1742 C 0.53317 0.74628 0.3383 0.0
C1743 C 0.51924 0.72362 0.34116 0.0
C1744 C 0.50103 0.72167 0.35792 0.0
C1745 C 0.49616 0.74312 0.37102 0.0
C1746 C 0.50993 0.76572 0.36807 0.0
H1747 H 0.60287 0.76854 0.37233 0.0
H1748 H 0.57167 0.75449 0.3764 0.0
H1749 H 0.58654 0.753 0.35014 0.0
H1750 H 0.54764 0.74725 0.32573 0.0
H1751 H 0.52337 0.70741 0.33079 0.0
H1752 H 0.7765 0.53179 0.33163 0.0
H1753 H 0.73566 0.55439 0.32677 0.0
H1754 H 0.70227 0.50896 0.37809 0.0
H1755 H 0.74271 0.4864 0.38301 0.0
H1756 H 0.66985 0.51758 0.33974 0.0
H1757 H 0.71232 0.60612 0.37523 0.0
H1758 H 0.72841 0.59169 0.35246 0.0
H1759 H 0.72741 0.57523 0.37811 0.0
C1760 C 0.76031 0.52634 0.34159 0.0
C1761 C 0.76285 0.50752 0.35786 0.0
C1762 C 0.73707 0.53932 0.33886 0.0
C1763 C 0.71612 0.53349 0.35226 0.0
C1764 C 0.71826 0.51375 0.36763 0.0
H1765 H 0.58805 0.61045 0.4053 0.0
H1766 H 0.62852 0.58948 0.39634 0.0
C1767 C 0.74142 0.50095 0.37047 0.0
C1768 C 0.69246 0.54899 0.3517 0.0
H1769 H 0.66814 0.60623 0.36853 0.0
C1770 C 0.66943 0.53712 0.34567 0.0
C1771 C 0.6921 0.57434 0.35971 0.0
C1772 C 0.71629 0.5877 0.36689 0.0
C1773 C 0.64587 0.54969 0.34807 0.0
C1774 C 0.64547 0.57482 0.35662 0.0
C1775 C 0.66858 0.58697 0.36198 0.0
C1776 C 0.62119 0.58812 0.36166 0.0
C1777 C 0.62155 0.53557 0.34243 0.0
C1778 C 0.60388 0.59463 0.34509 0.0
C1779 C 0.58077 0.60662 0.35017 0.0
C1780 C 0.57461 0.61244 0.37193 0.0
C1781 C 0.59228 0.60636 0.38842 0.0
C1782 C 0.61535 0.59432 0.38332 0.0
H1783 H 0.6249 0.51477 0.34003 0.0
H1784 H 0.60703 0.53807 0.35542 0.0
H1785 H 0.61353 0.5435 0.32709 0.0
H1786 H 0.60828 0.59051 0.32823 0.0
H1787 H 0.56788 0.61158 0.33701 0.0
H1788 H 0.87022 0.60184 0.40275 0.0
H1789 H 0.89165 0.6419 0.39307 0.0
H1790 H 0.89413 0.61849 0.32581 0.0
H1791 H 0.87272 0.5784 0.33534 0.0
H1792 H 0.94054 0.63588 0.34061 0.0
H1793 H 0.86401 0.70468 0.36139 0.0
H1794 H 0.87092 0.68313 0.38342 0.0
H1795 H 0.85809 0.67082 0.35831 0.0
C1796 C 0.87499 0.60538 0.38587 0.0
C1797 C 0.86987 0.5869 0.36987 0.0
C1798 C 0.88718 0.62829 0.38034 0.0
C1799 C 0.89417 0.63329 0.35867 0.0
C1800 C 0.88887 0.61499 0.34261 0.0
H1801 H 0.95851 0.78527 0.33048 0.0
H1802 H 0.93389 0.74582 0.32494 0.0
C1803 C 0.87677 0.59204 0.34813 0.0
C1804 C 0.90833 0.65696 0.35309 0.0
H1805 H 0.90668 0.72185 0.35892 0.0
C1806 C 0.933 0.65472 0.3443 0.0
C1807 C 0.89826 0.68154 0.35743 0.0
C1808 C 0.87126 0.68525 0.36544 0.0
C1809 C 0.9485 0.67634 0.3411 0.0
C1810 C 0.93915 0.70069 0.3471 0.0
C1811 C 0.9139 0.7031 0.35454 0.0
C1812 C 0.95594 0.72348 0.34798 0.0
C1813 C 0.97493 0.67288 0.33178 0.0
C1814 C 0.97659 0.72385 0.36259 0.0
C1815 C 0.99051 0.7463 0.36589 0.0
C1816 C 0.98405 0.76882 0.35462 0.0
C1817 C 0.96403 0.76817 0.3393 0.0
C1818 C 0.94992 0.7457 0.33615 0.0
H1819 H 0.97617 0.65518 0.32184 0.0
H1820 H 0.98048 0.6895 0.32151 0.0
H1821 H 0.98893 0.67121 0.34532 0.0
H1822 H 0.98126 0.70705 0.37218 0.0
H1823 H 0.00584 0.7462 0.37779 0.0
H1824 H 0.91091 0.61333 0.16824 0.0
H1825 H 0.87093 0.59171 0.17766 0.0
H1826 H 0.85239 0.58458 0.10949 0.0
H1827 H 0.89238 0.60627 0.0999 0.0
H1828 H 0.81149 0.60122 0.13521 0.0
H1829 H 0.85793 0.51478 0.17068 0.0
H1830 H 0.86787 0.54497 0.18183 0.0
H1831 H 0.87511 0.53748 0.154 0.0
C1832 C 0.89844 0.60696 0.15523 0.0
C1833 C 0.90493 0.61122 0.13327 0.0
C1834 C 0.8756 0.59464 0.16067 0.0
C1835 C 0.85896 0.58616 0.14428 0.0
C1836 C 0.86507 0.59092 0.12238 0.0
H1837 H 0.74332 0.47591 0.1301 0.0
H1838 H 0.7827 0.50039 0.13447 0.0
C1839 C 0.88785 0.60336 0.11692 0.0
C1840 C 0.83519 0.57219 0.14978 0.0
H1841 H 0.81292 0.5158 0.17066 0.0
C1842 C 0.81172 0.58266 0.14317 0.0
C1843 C 0.83568 0.54797 0.16014 0.0
C1844 C 0.86046 0.53545 0.16696 0.0
C1845 C 0.78872 0.56921 0.146 0.0
C1846 C 0.78924 0.5448 0.156 0.0
C1847 C 0.81262 0.53465 0.16324 0.0
C1848 C 0.76628 0.52822 0.1564 0.0
C1849 C 0.76425 0.58064 0.13724 0.0
C1850 C 0.74425 0.5352 0.168 0.0
C1851 C 0.72158 0.52118 0.16552 0.0
C1852 C 0.72073 0.50005 0.15139 0.0
C1853 C 0.7433 0.49222 0.14096 0.0
C1854 C 0.76586 0.50615 0.14348 0.0
H1855 H 0.76782 0.59775 0.1269 0.0
H1856 H 0.75354 0.56631 0.12747 0.0
H1857 H 0.75192 0.58651 0.15104 0.0
H1858 H 0.74433 0.552 0.1783 0.0
H1859 H 0.7045 0.52764 0.1738 0.0
H1860 H 0.00383 0.74012 0.11702 0.0
H1861 H 0.98057 0.7805 0.11931 0.0
H1862 H 0.93173 0.74855 0.16893 0.0
H1863 H 0.95511 0.70787 0.16681 0.0
H1864 H 0.90609 0.77124 0.13133 0.0
H1865 H 0.97834 0.83602 0.16804 0.0
H1866 H 0.99026 0.8168 0.14604 0.0
H1867 H 0.97983 0.80159 0.17075 0.0
C1868 C 0.98841 0.74177 0.12868 0.0
C1869 C 0.98126 0.72083 0.14172 0.0
C1870 C 0.97523 0.76491 0.13004 0.0
C1871 C 0.95459 0.76752 0.1444 0.0
C1872 C 0.94774 0.74689 0.15786 0.0
H1873 H 0.87616 0.91437 0.15653 0.0
H1874 H 0.89597 0.87312 0.16501 0.0
C1875 C 0.96115 0.72374 0.15668 0.0
C1876 C 0.93906 0.79116 0.14382 0.0
H1877 H 0.94322 0.85595 0.14965 0.0
C1878 C 0.91402 0.78975 0.13562 0.0
C1879 C 0.94945 0.81519 0.14958 0.0
C1880 C 0.97587 0.81758 0.15929 0.0
C1881 C 0.89948 0.81195 0.13209 0.0
C1882 C 0.91041 0.8361 0.13669 0.0
C1883 C 0.935 0.8374 0.14587 0.0
C1884 C 0.89701 0.86034 0.13157 0.0
C1885 C 0.87262 0.80939 0.1233 0.0
C1886 C 0.89093 0.86672 0.10994 0.0
C1887 C 0.87965 0.89031 0.10503 0.0
C1888 C 0.87456 0.90801 0.12165 0.0
C1889 C 0.88036 0.90136 0.14332 0.0
C1890 C 0.89152 0.87777 0.14822 0.0
H1891 H 0.86472 0.78995 0.12628 0.0
H1892 H 0.85968 0.82373 0.13078 0.0
H1893 H 0.87283 0.81271 0.10545 0.0
H1894 H 0.89545 0.85369 0.09681 0.0
H1895 H 0.8756 0.89501 0.0882 0.0
H1896 H 0.78739 0.96376 0.16545 0.0
H1897 H 0.74726 0.9402 0.17091 0.0
H1898 H 0.71086 0.98632 0.12145 0.0
H1899 H 0.75059 0.00995 0.116 0.0
H1900 H 0.67991 0.97607 0.15937 0.0
H1901 H 0.7236 0.88883 0.12298 0.0
H1902 H 0.73975 0.90295 0.1459 0.0
H1903 H 0.73819 0.92002 0.12054 0.0
C1904 C 0.7707 0.96916 0.15603 0.0
C1905 C 0.7722 0.98852 0.14013 0.0
C1906 C 0.74786 0.95562 0.1591 0.0
C1907 C 0.72627 0.96133 0.14636 0.0
C1908 C 0.72736 0.98159 0.1314 0.0
H1909 H 0.599 0.88171 0.09461 0.0
H1910 H 0.63925 0.90336 0.10327 0.0
C1911 C 0.75012 0.99502 0.12826 0.0
C1912 C 0.70301 0.94523 0.14716 0.0
H1913 H 0.67972 0.88734 0.13072 0.0
C1914 C 0.67984 0.95652 0.15346 0.0
C1915 C 0.70309 0.91986 0.13917 0.0
C1916 C 0.7274 0.90711 0.13161 0.0
C1917 C 0.65655 0.94335 0.15134 0.0
C1918 C 0.65658 0.91819 0.14285 0.0
C1919 C 0.67985 0.90662 0.13724 0.0
C1920 C 0.63254 0.90432 0.13803 0.0
C1921 C 0.632 0.95688 0.15715 0.0
C1922 C 0.61568 0.89736 0.15474 0.0
C1923 C 0.59268 0.88499 0.14982 0.0
C1924 C 0.58623 0.87924 0.12809 0.0
C1925 C 0.60348 0.88573 0.11147 0.0
C1926 C 0.62643 0.89815 0.1164 0.0
H1927 H 0.63493 0.97774 0.15963 0.0
H1928 H 0.61741 0.95413 0.14419 0.0
H1929 H 0.62428 0.94868 0.17246 0.0
H1930 H 0.62033 0.90146 0.17157 0.0
H1931 H 0.58008 0.87973 0.16307 0.0
H1932 H 0.6526 0.60504 0.11874 0.0
H1933 H 0.63134 0.64626 0.1242 0.0
H1934 H 0.56005 0.6072 0.13639 0.0
H1935 H 0.58115 0.56603 0.13102 0.0
H1936 H 0.59179 0.66709 0.10166 0.0
H1937 H 0.56421 0.65517 0.18815 0.0
H1938 H 0.5874 0.63478 0.17505 0.0
H1939 H 0.55373 0.62919 0.17126 0.0
C1940 C 0.63239 0.60524 0.12249 0.0
C1941 C 0.61859 0.58225 0.12455 0.0
C1942 C 0.62031 0.62879 0.12577 0.0
C1943 C 0.59425 0.62977 0.13119 0.0
C1944 C 0.58035 0.60688 0.1329 0.0
H1945 H 0.48848 0.75206 0.10928 0.0
H1946 H 0.51282 0.71227 0.11056 0.0
C1947 C 0.59242 0.58335 0.12972 0.0
C1948 C 0.58122 0.65474 0.13389 0.0
H1949 H 0.54352 0.68911 0.16855 0.0
C1950 C 0.58146 0.672 0.11637 0.0
C1951 C 0.56809 0.66132 0.15323 0.0
C1952 C 0.56852 0.64427 0.17309 0.0
C1953 C 0.56809 0.69522 0.11732 0.0
C1954 C 0.55367 0.70108 0.13613 0.0
C1955 C 0.55427 0.68436 0.15403 0.0
C1956 C 0.53733 0.72419 0.13711 0.0
C1957 C 0.56952 0.71327 0.09813 0.0
C1958 C 0.54218 0.74355 0.15239 0.0
C1959 C 0.52808 0.76633 0.15185 0.0
C1960 C 0.50894 0.76998 0.136 0.0
C1961 C 0.50329 0.74996 0.12151 0.0
C1962 C 0.51726 0.72725 0.12214 0.0
H1963 H 0.58673 0.70958 0.08802 0.0
H1964 H 0.5524 0.7105 0.08767 0.0
H1965 H 0.56992 0.73353 0.10355 0.0
H1966 H 0.55747 0.74142 0.16419 0.0
H1967 H 0.53285 0.7814 0.16324 0.0
loop_
_geom_bond_atom_site_label_1
_geom_bond_atom_site_label_2
_geom_bond_distance
_geom_bond_site_symmetry_2
_ccdc_geom_bond_type
Co0 N4 2.148 . S
Co0 N10 2.128 1_455 S
Co0 N20 2.194 1_455 S
Co0 O25 2.353 . S
Co0 O26 2.155 . S
Co0 O27 2.096 . S
C1 N4 1.301 . S
C1 N5 1.328 . S
C1 H6 0.930 . S
C2 C3 1.333 . S
C2 N4 1.317 . S
C2 H7 0.930 . S
C3 C2 1.333 . S
C3 N5 1.350 . S
C3 H29 0.931 . S
N4 Co0 2.148 . S
N4 C1 1.301 . S
N4 C2 1.317 . S
N5 C1 1.328 . S
N5 C3 1.350 . S
H6 C1 0.930 . S
H7 C2 0.930 . S
C8 O9 1.224 . S
C8 O27 1.247 . S
O9 C8 1.224 . S
N10 Co0 2.128 1_655 S
N10 C11 1.355 . S
N10 C13 1.311 . S
C11 N10 1.355 . S
C11 C12 1.363 . S
C11 H23 0.929 . S
C12 C11 1.363 . S
C12 N14 1.375 . S
C12 H30 0.931 . S
C13 N10 1.311 . S
C13 N14 1.347 . S
C13 H24 0.929 . S
N14 C12 1.375 . S
N14 C13 1.347 . S
C15 C18 1.365 . S
C15 N20 1.328 . S
C15 H21 0.929 . S
C16 C17 1.362 . S
C16 C19 1.378 . S
C16 H31 0.929 . S
C17 C16 1.362 . S
C17 C18 1.366 . S
C18 C15 1.365 . S
C18 C17 1.366 . S
C18 H32 0.930 . S
C19 C16 1.378 . S
C19 N20 1.315 . S
C19 H22 0.930 . S
N20 Co0 2.194 1_655 S
N20 C15 1.328 . S
N20 C19 1.315 . S
H21 C15 0.929 . S
H22 C19 0.930 . S
H23 C11 0.929 . S
H24 C13 0.929 . S
O25 Co0 2.353 . S
O25 C28 1.252 . S
O26 Co0 2.155 . S
O26 C28 1.240 . S
O27 Co0 2.096 . S
O27 C8 1.247 . S
C28 O25 1.252 . S
C28 O26 1.240 . S
H29 C3 0.931 . S
H30 C12 0.931 . S
H31 C16 0.929 . S
H32 C18 0.930 . S
Co33 N37 2.148 . S
Co33 N43 2.128 1_545 S
Co33 N53 2.194 1_545 S
Co33 O58 2.352 . S
Co33 O59 2.155 . S
Co33 O60 2.096 . S
C34 N37 1.301 . S
C34 N38 1.328 . S
C34 H39 0.930 . S
C35 C36 1.333 . S
C35 N37 1.317 . S
C35 H40 0.930 . S
C36 C35 1.333 . S
C36 N38 1.350 . S
C36 H62 0.931 . S
N37 Co33 2.148 . S
N37 C34 1.301 . S
N37 C35 1.317 . S
N38 C34 1.328 . S
N38 C36 1.350 . S
H39 C34 0.930 . S
H40 C35 0.930 . S
C41 O42 1.224 . S
C41 O60 1.247 . S
O42 C41 1.224 . S
N43 Co33 2.128 1_565 S
N43 C44 1.355 . S
N43 C46 1.311 . S
C44 N43 1.355 . S
C44 C45 1.363 . S
C44 H56 0.929 . S
C45 C44 1.363 . S
C45 N47 1.375 . S
C45 H63 0.931 . S
C46 N43 1.311 . S
C46 N47 1.347 . S
C46 H57 0.929 . S
N47 C45 1.375 . S
N47 C46 1.347 . S
C48 C51 1.365 . S
C48 N53 1.328 . S
C48 H54 0.929 . S
C49 C50 1.362 . S
C49 C52 1.378 . S
C49 H64 0.929 . S
C50 C49 1.362 . S
C50 C51 1.366 . S
C51 C48 1.365 . S
C51 C50 1.366 . S
C51 H65 0.930 . S
C52 C49 1.378 . S
C52 N53 1.315 . S
C52 H55 0.930 . S
N53 Co33 2.194 1_565 S
N53 C48 1.328 . S
N53 C52 1.315 . S
H54 C48 0.929 . S
H55 C52 0.930 . S
H56 C44 0.929 . S
H57 C46 0.929 . S
O58 Co33 2.352 . S
O58 C61 1.248 . S
O59 Co33 2.155 . S
O59 C61 1.240 . S
O60 Co33 2.096 . S
O60 C41 1.247 . S
C61 O58 1.248 . S
C61 O59 1.240 . S
H62 C36 0.931 . S
H63 C45 0.931 . S
H64 C49 0.929 . S
H65 C51 0.930 . S
Co66 N70 2.148 . S
Co66 N76 2.128 . S
Co66 N86 2.194 . S
Co66 O91 2.351 . S
Co66 O92 2.155 . S
Co66 O93 2.096 . S
C67 N70 1.301 . S
C67 N71 1.328 . S
C67 H72 0.930 . S
C68 C69 1.333 . S
C68 N70 1.317 . S
C68 H73 0.930 . S
C69 C68 1.333 . S
C69 N71 1.350 . S
C69 H95 0.931 . S
N70 Co66 2.148 . S
N70 C67 1.301 . S
N70 C68 1.317 . S
N71 C67 1.328 . S
N71 C69 1.350 . S
H72 C67 0.930 . S
H73 C68 0.930 . S
C74 O75 1.224 . S
C74 O93 1.247 . S
O75 C74 1.224 . S
N76 Co66 2.128 . S
N76 C77 1.355 . S
N76 C79 1.311 . S
C77 N76 1.355 . S
C77 C78 1.363 . S
C77 H89 0.929 . S
C78 C77 1.363 . S
C78 N80 1.375 . S
C78 H96 0.931 . S
C79 N76 1.311 . S
C79 N80 1.347 . S
C79 H90 0.929 . S
N80 C78 1.375 . S
N80 C79 1.347 . S
C81 C84 1.365 . S
C81 N86 1.328 . S
C81 H87 0.929 . S
C82 C83 1.362 . S
C82 C85 1.378 . S
C82 H97 0.929 . S
C83 C82 1.362 . S
C83 C84 1.366 . S
C84 C81 1.365 . S
C84 C83 1.366 . S
C84 H98 0.930 . S
C85 C82 1.378 . S
C85 N86 1.315 . S
C85 H88 0.930 . S
N86 Co66 2.194 . S
N86 C81 1.328 . S
N86 C85 1.315 . S
H87 C81 0.929 . S
H88 C85 0.930 . S
H89 C77 0.929 . S
H90 C79 0.929 . S
O91 Co66 2.351 . S
O91 C94 1.244 . S
O92 Co66 2.155 . S
O92 C94 1.240 . S
O93 Co66 2.096 . S
O93 C74 1.247 . S
C94 O91 1.244 . S
C94 O92 1.240 . S
H95 C69 0.931 . S
H96 C78 0.931 . S
H97 C82 0.929 . S
H98 C84 0.930 . S
Co99 N103 2.148 . S
Co99 N109 2.128 . S
Co99 N119 2.194 . S
Co99 O124 2.351 . S
Co99 O125 2.155 . S
Co99 O126 2.096 . S
C100 N103 1.301 . S
C100 N104 1.328 . S
C100 H105 0.930 . S
C101 C102 1.333 . S
C101 N103 1.317 . S
C101 H106 0.930 . S
C102 C101 1.333 . S
C102 N104 1.350 . S
C102 H128 0.931 . S
N103 Co99 2.148 . S
N103 C100 1.301 . S
N103 C101 1.317 . S
N104 C100 1.328 . S
N104 C102 1.350 . S
H105 C100 0.930 . S
H106 C101 0.930 . S
C107 O108 1.224 . S
C107 O126 1.247 . S
O108 C107 1.224 . S
N109 Co99 2.128 . S
N109 C110 1.355 . S
N109 C112 1.311 . S
C110 N109 1.355 . S
C110 C111 1.363 . S
C110 H122 0.929 . S
C111 C110 1.363 . S
C111 N113 1.375 . S
C111 H129 0.931 . S
C112 N109 1.311 . S
C112 N113 1.347 . S
C112 H123 0.929 . S
N113 C111 1.375 . S
N113 C112 1.347 . S
C114 C117 1.365 . S
C114 N119 1.328 . S
C114 H120 0.929 . S
C115 C116 1.362 . S
C115 C118 1.378 . S
C115 H130 0.929 . S
C116 C115 1.362 . S
C116 C117 1.366 . S
C117 C114 1.365 . S
C117 C116 1.366 . S
C117 H131 0.930 . S
C118 C115 1.378 . S
C118 N119 1.315 . S
C118 H121 0.930 . S
N119 Co99 2.194 . S
N119 C114 1.328 . S
N119 C118 1.315 . S
H120 C114 0.929 . S
H121 C118 0.930 . S
H122 C110 0.929 . S
H123 C112 0.929 . S
O124 Co99 2.351 . S
O124 C127 1.244 . S
O125 Co99 2.155 . S
O125 C127 1.240 . S
O126 Co99 2.096 . S
O126 C107 1.247 . S
C127 O124 1.244 . S
C127 O125 1.240 . S
H128 C102 0.931 . S
H129 C111 0.931 . S
H130 C115 0.929 . S
H131 C117 0.930 . S
Co132 N136 2.148 . S
Co132 N142 2.128 1_455 S
Co132 N152 2.194 1_455 S
Co132 O157 2.352 . S
Co132 O158 2.155 . S
Co132 O159 2.096 . S
C133 N136 1.301 . S
C133 N137 1.328 . S
C133 H138 0.930 . S
C134 C135 1.333 . S
C134 N136 1.317 . S
C134 H139 0.930 . S
C135 C134 1.333 . S
C135 N137 1.350 . S
C135 H161 0.931 . S
N136 Co132 2.148 . S
N136 C133 1.301 . S
N136 C134 1.317 . S
N137 C133 1.328 . S
N137 C135 1.350 . S
H138 C133 0.930 . S
H139 C134 0.930 . S
C140 O141 1.224 . S
C140 O159 1.247 . S
O141 C140 1.224 . S
N142 Co132 2.128 1_655 S
N142 C143 1.355 . S
N142 C145 1.311 . S
C143 N142 1.355 . S
C143 C144 1.363 . S
C143 H155 0.929 . S
C144 C143 1.363 . S
C144 N146 1.375 . S
C144 H162 0.931 . S
C145 N142 1.311 . S
C145 N146 1.347 . S
C145 H156 0.929 . S
N146 C144 1.375 . S
N146 C145 1.347 . S
C147 C150 1.365 . S
C147 N152 1.328 . S
C147 H153 0.929 . S
C148 C149 1.362 . S
C148 C151 1.378 . S
C148 H163 0.929 . S
C149 C148 1.362 . S
C149 C150 1.366 . S
C150 C147 1.365 . S
C150 C149 1.366 . S
C150 H164 0.930 . S
C151 C148 1.378 . S
C151 N152 1.315 . S
C151 H154 0.930 . S
N152 Co132 2.194 1_655 S
N152 C147 1.328 . S
N152 C151 1.315 . S
H153 C147 0.929 . S
H154 C151 0.930 . S
H155 C143 0.929 . S
H156 C145 0.929 . S
O157 Co132 2.352 . S
O157 C160 1.248 . S
O158 Co132 2.155 . S
O158 C160 1.240 . S
O159 Co132 2.096 . S
O159 C140 1.247 . S
C160 O157 1.248 . S
C160 O158 1.240 . S
H161 C135 0.931 . S
H162 C144 0.931 . S
H163 C148 0.929 . S
H164 C150 0.930 . S
Co165 N169 2.148 . S
Co165 N175 2.128 1_545 S
Co165 N185 2.194 1_545 S
Co165 O190 2.353 . S
Co165 O191 2.155 . S
Co165 O192 2.096 . S
C166 N169 1.301 . S
C166 N170 1.328 . S
C166 H171 0.930 . S
C167 C168 1.333 . S
C167 N169 1.317 . S
C167 H172 0.930 . S
C168 C167 1.333 . S
C168 N170 1.350 . S
C168 H194 0.931 . S
N169 Co165 2.148 . S
N169 C166 1.301 . S
N169 C167 1.317 . S
N170 C166 1.328 . S
N170 C168 1.350 . S
H171 C166 0.930 . S
H172 C167 0.930 . S
C173 O174 1.224 . S
C173 O192 1.247 . S
O174 C173 1.224 . S
N175 Co165 2.128 1_565 S
N175 C176 1.355 . S
N175 C178 1.311 . S
C176 N175 1.355 . S
C176 C177 1.363 . S
C176 H188 0.929 . S
C177 C176 1.363 . S
C177 N179 1.375 . S
C177 H195 0.931 . S
C178 N175 1.311 . S
C178 N179 1.347 . S
C178 H189 0.929 . S
N179 C177 1.375 . S
N179 C178 1.347 . S
C180 C183 1.365 . S
C180 N185 1.328 . S
C180 H186 0.929 . S
C181 C182 1.362 . S
C181 C184 1.378 . S
C181 H196 0.929 . S
C182 C181 1.362 . S
C182 C183 1.366 . S
C183 C180 1.365 . S
C183 C182 1.366 . S
C183 H197 0.930 . S
C184 C181 1.378 . S
C184 N185 1.315 . S
C184 H187 0.930 . S
N185 Co165 2.194 1_565 S
N185 C180 1.328 . S
N185 C184 1.315 . S
H186 C180 0.929 . S
H187 C184 0.930 . S
H188 C176 0.929 . S
H189 C178 0.929 . S
O190 Co165 2.353 . S
O190 C193 1.252 . S
O191 Co165 2.155 . S
O191 C193 1.240 . S
O192 Co165 2.096 . S
O192 C173 1.247 . S
C193 O190 1.252 . S
C193 O191 1.240 . S
H194 C168 0.931 . S
H195 C177 0.931 . S
H196 C181 0.929 . S
H197 C183 0.930 . S
Co198 N202 2.148 . S
Co198 N208 2.128 . S
Co198 N218 2.194 . S
Co198 O223 2.351 . S
Co198 O224 2.155 . S
Co198 O225 2.096 . S
C199 N202 1.301 . S
C199 N203 1.328 . S
C199 H204 0.930 . S
C200 C201 1.333 . S
C200 N202 1.317 . S
C200 H205 0.930 . S
C201 C200 1.333 . S
C201 N203 1.350 . S
C201 H227 0.931 . S
N202 Co198 2.148 . S
N202 C199 1.301 . S
N202 C200 1.317 . S
N203 C199 1.328 . S
N203 C201 1.350 . S
H204 C199 0.930 . S
H205 C200 0.930 . S
C206 O207 1.224 . S
C206 O225 1.247 . S
O207 C206 1.224 . S
N208 Co198 2.128 . S
N208 C209 1.355 . S
N208 C211 1.311 . S
C209 N208 1.355 . S
C209 C210 1.363 . S
C209 H221 0.929 . S
C210 C209 1.363 . S
C210 N212 1.375 . S
C210 H228 0.931 . S
C211 N208 1.311 . S
C211 N212 1.347 . S
C211 H222 0.929 . S
N212 C210 1.375 . S
N212 C211 1.347 . S
C213 C216 1.365 . S
C213 N218 1.328 . S
C213 H219 0.929 . S
C214 C215 1.362 . S
C214 C217 1.378 . S
C214 H229 0.929 . S
C215 C214 1.362 . S
C215 C216 1.366 . S
C216 C213 1.365 . S
C216 C215 1.366 . S
C216 H230 0.930 . S
C217 C214 1.378 . S
C217 N218 1.315 . S
C217 H220 0.930 . S
N218 Co198 2.194 . S
N218 C213 1.328 . S
N218 C217 1.315 . S
H219 C213 0.929 . S
H220 C217 0.930 . S
H221 C209 0.929 . S
H222 C211 0.929 . S
O223 Co198 2.351 . S
O223 C226 1.244 . S
O224 Co198 2.155 . S
O224 C226 1.240 . S
O225 Co198 2.096 . S
O225 C206 1.247 . S
C226 O223 1.244 . S
C226 O224 1.240 . S
H227 C201 0.931 . S
H228 C210 0.931 . S
H229 C214 0.929 . S
H230 C216 0.930 . S
Co231 N235 2.148 . S
Co231 N241 2.128 . S
Co231 N251 2.194 . S
Co231 O256 2.351 . S
Co231 O257 2.155 . S
Co231 O258 2.096 . S
C232 N235 1.301 . S
C232 N236 1.328 . S
C232 H237 0.930 . S
C233 C234 1.333 . S
C233 N235 1.317 . S
C233 H238 0.930 . S
C234 C233 1.333 . S
C234 N236 1.350 . S
C234 H260 0.931 . S
N235 Co231 2.148 . S
N235 C232 1.301 . S
N235 C233 1.317 . S
N236 C232 1.328 . S
N236 C234 1.350 . S
H237 C232 0.930 . S
H238 C233 0.930 . S
C239 O240 1.224 . S
C239 O258 1.247 . S
O240 C239 1.224 . S
N241 Co231 2.128 . S
N241 C242 1.355 . S
N241 C244 1.311 . S
C242 N241 1.355 . S
C242 C243 1.363 . S
C242 H254 0.929 . S
C243 C242 1.363 . S
C243 N245 1.375 . S
C243 H261 0.931 . S
C244 N241 1.311 . S
C244 N245 1.347 . S
C244 H255 0.929 . S
N245 C243 1.375 . S
N245 C244 1.347 . S
C246 C249 1.365 . S
C246 N251 1.328 . S
C246 H252 0.929 . S
C247 C248 1.362 . S
C247 C250 1.378 . S
C247 H262 0.929 . S
C248 C247 1.362 . S
C248 C249 1.366 . S
C249 C246 1.365 . S
C249 C248 1.366 . S
C249 H263 0.930 . S
C250 C247 1.378 . S
C250 N251 1.315 . S
C250 H253 0.930 . S
N251 Co231 2.194 . S
N251 C246 1.328 . S
N251 C250 1.315 . S
H252 C246 0.929 . S
H253 C250 0.930 . S
H254 C242 0.929 . S
H255 C244 0.929 . S
O256 Co231 2.351 . S
O256 C259 1.244 . S
O257 Co231 2.155 . S
O257 C259 1.240 . S
O258 Co231 2.096 . S
O258 C239 1.247 . S
C259 O256 1.244 . S
C259 O257 1.240 . S
H260 C234 0.931 . S
H261 C243 0.931 . S
H262 C247 0.929 . S
H263 C249 0.930 . S
Co264 N268 2.148 . S
Co264 N274 2.128 1_655 S
Co264 N284 2.194 1_655 S
Co264 O289 2.353 . S
Co264 O290 2.155 . S
Co264 O291 2.096 . S
C265 N268 1.301 . S
C265 N269 1.328 . S
C265 H270 0.930 . S
C266 C267 1.333 . S
C266 N268 1.317 . S
C266 H271 0.930 . S
C267 C266 1.333 . S
C267 N269 1.350 . S
C267 H293 0.931 . S
N268 Co264 2.148 . S
N268 C265 1.301 . S
N268 C266 1.317 . S
N269 C265 1.328 . S
N269 C267 1.350 . S
H270 C265 0.930 . S
H271 C266 0.930 . S
C272 O273 1.224 . S
C272 O291 1.247 . S
O273 C272 1.224 . S
N274 Co264 2.128 1_455 S
N274 C275 1.355 . S
N274 C277 1.311 . S
C275 N274 1.355 . S
C275 C276 1.363 . S
C275 H287 0.929 . S
C276 C275 1.363 . S
C276 N278 1.375 . S
C276 H294 0.931 . S
C277 N274 1.311 . S
C277 N278 1.347 . S
C277 H288 0.929 . S
N278 C276 1.375 . S
N278 C277 1.347 . S
C279 C282 1.365 . S
C279 N284 1.328 . S
C279 H285 0.929 . S
C280 C281 1.362 . S
C280 C283 1.378 . S
C280 H295 0.929 . S
C281 C280 1.362 . S
C281 C282 1.366 . S
C282 C279 1.365 . S
C282 C281 1.366 . S
C282 H296 0.930 . S
C283 C280 1.378 . S
C283 N284 1.315 . S
C283 H286 0.930 . S
N284 Co264 2.194 1_455 S
N284 C279 1.328 . S
N284 C283 1.315 . S
H285 C279 0.929 . S
H286 C283 0.930 . S
H287 C275 0.929 . S
H288 C277 0.929 . S
O289 Co264 2.353 . S
O289 C292 1.252 . S
O290 Co264 2.155 . S
O290 C292 1.240 . S
O291 Co264 2.096 . S
O291 C272 1.247 . S
C292 O289 1.252 . S
C292 O290 1.240 . S
H293 C267 0.931 . S
H294 C276 0.931 . S
H295 C280 0.929 . S
H296 C282 0.930 . S
Co297 N301 2.148 . S
Co297 N307 2.128 1_565 S
Co297 N317 2.194 1_565 S
Co297 O322 2.352 . S
Co297 O323 2.155 . S
Co297 O324 2.096 . S
C298 N301 1.301 . S
C298 N302 1.328 . S
C298 H303 0.930 . S
C299 C300 1.333 . S
C299 N301 1.317 . S
C299 H304 0.930 . S
C300 C299 1.333 . S
C300 N302 1.350 . S
C300 H326 0.931 . S
N301 Co297 2.148 . S
N301 C298 1.301 . S
N301 C299 1.317 . S
N302 C298 1.328 . S
N302 C300 1.350 . S
H303 C298 0.930 . S
H304 C299 0.930 . S
C305 O306 1.224 . S
C305 O324 1.247 . S
O306 C305 1.224 . S
N307 Co297 2.128 1_545 S
N307 C308 1.355 . S
N307 C310 1.311 . S
C308 N307 1.355 . S
C308 C309 1.363 . S
C308 H320 0.929 . S
C309 C308 1.363 . S
C309 N311 1.375 . S
C309 H327 0.931 . S
C310 N307 1.311 . S
C310 N311 1.347 . S
C310 H321 0.929 . S
N311 C309 1.375 . S
N311 C310 1.347 . S
C312 C315 1.365 . S
C312 N317 1.328 . S
C312 H318 0.929 . S
C313 C314 1.362 . S
C313 C316 1.378 . S
C313 H328 0.929 . S
C314 C313 1.362 . S
C314 C315 1.366 . S
C315 C312 1.365 . S
C315 C314 1.366 . S
C315 H329 0.930 . S
C316 C313 1.378 . S
C316 N317 1.315 . S
C316 H319 0.930 . S
N317 Co297 2.194 1_545 S
N317 C312 1.328 . S
N317 C316 1.315 . S
H318 C312 0.929 . S
H319 C316 0.930 . S
H320 C308 0.929 . S
H321 C310 0.929 . S
O322 Co297 2.352 . S
O322 C325 1.248 . S
O323 Co297 2.155 . S
O323 C325 1.240 . S
O324 Co297 2.096 . S
O324 C305 1.247 . S
C325 O322 1.248 . S
C325 O323 1.240 . S
H326 C300 0.931 . S
H327 C309 0.931 . S
H328 C313 0.929 . S
H329 C315 0.930 . S
Co330 N334 2.148 . S
Co330 N340 2.128 . S
Co330 N350 2.194 . S
Co330 O355 2.351 . S
Co330 O356 2.155 . S
Co330 O357 2.096 . S
C331 N334 1.301 . S
C331 N335 1.328 . S
C331 H336 0.930 . S
C332 C333 1.333 . S
C332 N334 1.317 . S
C332 H337 0.930 . S
C333 C332 1.333 . S
C333 N335 1.350 . S
C333 H359 0.931 . S
N334 Co330 2.148 . S
N334 C331 1.301 . S
N334 C332 1.317 . S
N335 C331 1.328 . S
N335 C333 1.350 . S
H336 C331 0.930 . S
H337 C332 0.930 . S
C338 O339 1.224 . S
C338 O357 1.247 . S
O339 C338 1.224 . S
N340 Co330 2.128 . S
N340 C341 1.355 . S
N340 C343 1.311 . S
C341 N340 1.355 . S
C341 C342 1.363 . S
C341 H353 0.929 . S
C342 C341 1.363 . S
C342 N344 1.375 . S
C342 H360 0.931 . S
C343 N340 1.311 . S
C343 N344 1.347 . S
C343 H354 0.929 . S
N344 C342 1.375 . S
N344 C343 1.347 . S
C345 C348 1.365 . S
C345 N350 1.328 . S
C345 H351 0.929 . S
C346 C347 1.362 . S
C346 C349 1.378 . S
C346 H361 0.929 . S
C347 C346 1.362 . S
C347 C348 1.366 . S
C348 C345 1.365 . S
C348 C347 1.366 . S
C348 H362 0.930 . S
C349 C346 1.378 . S
C349 N350 1.315 . S
C349 H352 0.930 . S
N350 Co330 2.194 . S
N350 C345 1.328 . S
N350 C349 1.315 . S
H351 C345 0.929 . S
H352 C349 0.930 . S
H353 C341 0.929 . S
H354 C343 0.929 . S
O355 Co330 2.351 . S
O355 C358 1.244 . S
O356 Co330 2.155 . S
O356 C358 1.240 . S
O357 Co330 2.096 . S
O357 C338 1.247 . S
C358 O355 1.244 . S
C358 O356 1.240 . S
H359 C333 0.931 . S
H360 C342 0.931 . S
H361 C346 0.929 . S
H362 C348 0.930 . S
Co363 N367 2.148 . S
Co363 N373 2.128 . S
Co363 N383 2.194 . S
Co363 O388 2.351 . S
Co363 O389 2.155 . S
Co363 O390 2.096 . S
C364 N367 1.301 . S
C364 N368 1.328 . S
C364 H369 0.930 . S
C365 C366 1.333 . S
C365 N367 1.317 . S
C365 H370 0.930 . S
C366 C365 1.333 . S
C366 N368 1.350 . S
C366 H392 0.931 . S
N367 Co363 2.148 . S
N367 C364 1.301 . S
N367 C365 1.317 . S
N368 C364 1.328 . S
N368 C366 1.350 . S
H369 C364 0.930 . S
H370 C365 0.930 . S
C371 O372 1.224 . S
C371 O390 1.247 . S
O372 C371 1.224 . S
N373 Co363 2.128 . S
N373 C374 1.355 . S
N373 C376 1.311 . S
C374 N373 1.355 . S
C374 C375 1.363 . S
C374 H386 0.929 . S
C375 C374 1.363 . S
C375 N377 1.375 . S
C375 H393 0.931 . S
C376 N373 1.311 . S
C376 N377 1.347 . S
C376 H387 0.929 . S
N377 C375 1.375 . S
N377 C376 1.347 . S
C378 C381 1.365 . S
C378 N383 1.328 . S
C378 H384 0.929 . S
C379 C380 1.362 . S
C379 C382 1.378 . S
C379 H394 0.929 . S
C380 C379 1.362 . S
C380 C381 1.366 . S
C381 C378 1.365 . S
C381 C380 1.366 . S
C381 H395 0.930 . S
C382 C379 1.378 . S
C382 N383 1.315 . S
C382 H385 0.930 . S
N383 Co363 2.194 . S
N383 C378 1.328 . S
N383 C382 1.315 . S
H384 C378 0.929 . S
H385 C382 0.930 . S
H386 C374 0.929 . S
H387 C376 0.929 . S
O388 Co363 2.351 . S
O388 C391 1.244 . S
O389 Co363 2.155 . S
O389 C391 1.240 . S
O390 Co363 2.096 . S
O390 C371 1.247 . S
C391 O388 1.244 . S
C391 O389 1.240 . S
H392 C366 0.931 . S
H393 C375 0.931 . S
H394 C379 0.929 . S
H395 C381 0.930 . S
Co396 N400 2.148 . S
Co396 N406 2.128 1_655 S
Co396 N416 2.194 1_655 S
Co396 O421 2.352 . S
Co396 O422 2.155 . S
Co396 O423 2.096 . S
C397 N400 1.301 . S
C397 N401 1.328 . S
C397 H402 0.930 . S
C398 C399 1.333 . S
C398 N400 1.317 . S
C398 H403 0.930 . S
C399 C398 1.333 . S
C399 N401 1.350 . S
C399 H425 0.931 . S
N400 Co396 2.148 . S
N400 C397 1.301 . S
N400 C398 1.317 . S
N401 C397 1.328 . S
N401 C399 1.350 . S
H402 C397 0.930 . S
H403 C398 0.930 . S
C404 O405 1.224 . S
C404 O423 1.247 . S
O405 C404 1.224 . S
N406 Co396 2.128 1_455 S
N406 C407 1.355 . S
N406 C409 1.311 . S
C407 N406 1.355 . S
C407 C408 1.363 . S
C407 H419 0.929 . S
C408 C407 1.363 . S
C408 N410 1.375 . S
C408 H426 0.931 . S
C409 N406 1.311 . S
C409 N410 1.347 . S
C409 H420 0.929 . S
N410 C408 1.375 . S
N410 C409 1.347 . S
C411 C414 1.365 . S
C411 N416 1.328 . S
C411 H417 0.929 . S
C412 C413 1.362 . S
C412 C415 1.378 . S
C412 H427 0.929 . S
C413 C412 1.362 . S
C413 C414 1.366 . S
C414 C411 1.365 . S
C414 C413 1.366 . S
C414 H428 0.930 . S
C415 C412 1.378 . S
C415 N416 1.315 . S
C415 H418 0.930 . S
N416 Co396 2.194 1_455 S
N416 C411 1.328 . S
N416 C415 1.315 . S
H417 C411 0.929 . S
H418 C415 0.930 . S
H419 C407 0.929 . S
H420 C409 0.929 . S
O421 Co396 2.352 . S
O421 C424 1.248 . S
O422 Co396 2.155 . S
O422 C424 1.240 . S
O423 Co396 2.096 . S
O423 C404 1.247 . S
C424 O421 1.248 . S
C424 O422 1.240 . S
H425 C399 0.931 . S
H426 C408 0.931 . S
H427 C412 0.929 . S
H428 C414 0.930 . S
Co429 N433 2.148 . S
Co429 N439 2.128 1_565 S
Co429 N449 2.194 1_565 S
Co429 O454 2.353 . S
Co429 O455 2.155 . S
Co429 O456 2.096 . S
C430 N433 1.301 . S
C430 N434 1.328 . S
C430 H435 0.930 . S
C431 C432 1.333 . S
C431 N433 1.317 . S
C431 H436 0.930 . S
C432 C431 1.333 . S
C432 N434 1.350 . S
C432 H458 0.931 . S
N433 Co429 2.148 . S
N433 C430 1.301 . S
N433 C431 1.317 . S
N434 C430 1.328 . S
N434 C432 1.350 . S
H435 C430 0.930 . S
H436 C431 0.930 . S
C437 O438 1.224 . S
C437 O456 1.247 . S
O438 C437 1.224 . S
N439 Co429 2.128 1_545 S
N439 C440 1.355 . S
N439 C442 1.311 . S
C440 N439 1.355 . S
C440 C441 1.363 . S
C440 H452 0.929 . S
C441 C440 1.363 . S
C441 N443 1.375 . S
C441 H459 0.931 . S
C442 N439 1.311 . S
C442 N443 1.347 . S
C442 H453 0.929 . S
N443 C441 1.375 . S
N443 C442 1.347 . S
C444 C447 1.365 . S
C444 N449 1.328 . S
C444 H450 0.929 . S
C445 C446 1.362 . S
C445 C448 1.378 . S
C445 H460 0.929 . S
C446 C445 1.362 . S
C446 C447 1.366 . S
C447 C444 1.365 . S
C447 C446 1.366 . S
C447 H461 0.930 . S
C448 C445 1.378 . S
C448 N449 1.315 . S
C448 H451 0.930 . S
N449 Co429 2.194 1_545 S
N449 C444 1.328 . S
N449 C448 1.315 . S
H450 C444 0.929 . S
H451 C448 0.930 . S
H452 C440 0.929 . S
H453 C442 0.929 . S
O454 Co429 2.353 . S
O454 C457 1.252 . S
O455 Co429 2.155 . S
O455 C457 1.240 . S
O456 Co429 2.096 . S
O456 C437 1.247 . S
C457 O454 1.252 . S
C457 O455 1.240 . S
H458 C432 0.931 . S
H459 C441 0.931 . S
H460 C445 0.929 . S
H461 C447 0.930 . S
Co462 N466 2.148 . S
Co462 N472 2.128 . S
Co462 N482 2.194 . S
Co462 O487 2.351 . S
Co462 O488 2.155 . S
Co462 O489 2.096 . S
C463 N466 1.301 . S
C463 N467 1.328 . S
C463 H468 0.930 . S
C464 C465 1.333 . S
C464 N466 1.317 . S
C464 H469 0.930 . S
C465 C464 1.333 . S
C465 N467 1.350 . S
C465 H491 0.931 . S
N466 Co462 2.148 . S
N466 C463 1.301 . S
N466 C464 1.317 . S
N467 C463 1.328 . S
N467 C465 1.350 . S
H468 C463 0.930 . S
H469 C464 0.930 . S
C470 O471 1.224 . S
C470 O489 1.247 . S
O471 C470 1.224 . S
N472 Co462 2.128 . S
N472 C473 1.355 . S
N472 C475 1.311 . S
C473 N472 1.355 . S
C473 C474 1.363 . S
C473 H485 0.929 . S
C474 C473 1.363 . S
C474 N476 1.375 . S
C474 H492 0.931 . S
C475 N472 1.311 . S
C475 N476 1.347 . S
C475 H486 0.929 . S
N476 C474 1.375 . S
N476 C475 1.347 . S
C477 C480 1.365 . S
C477 N482 1.328 . S
C477 H483 0.929 . S
C478 C479 1.362 . S
C478 C481 1.378 . S
C478 H493 0.929 . S
C479 C478 1.362 . S
C479 C480 1.366 . S
C480 C477 1.365 . S
C480 C479 1.366 . S
C480 H494 0.930 . S
C481 C478 1.378 . S
C481 N482 1.315 . S
C481 H484 0.930 . S
N482 Co462 2.194 . S
N482 C477 1.328 . S
N482 C481 1.315 . S
H483 C477 0.929 . S
H484 C481 0.930 . S
H485 C473 0.929 . S
H486 C475 0.929 . S
O487 Co462 2.351 . S
O487 C490 1.244 . S
O488 Co462 2.155 . S
O488 C490 1.240 . S
O489 Co462 2.096 . S
O489 C470 1.247 . S
C490 O487 1.244 . S
C490 O488 1.240 . S
H491 C465 0.931 . S
H492 C474 0.931 . S
H493 C478 0.929 . S
H494 C480 0.930 . S
Co495 N499 2.148 . S
Co495 N505 2.128 . S
Co495 N515 2.194 . S
Co495 O520 2.351 . S
Co495 O521 2.155 . S
Co495 O522 2.096 . S
C496 N499 1.301 . S
C496 N500 1.328 . S
C496 H501 0.930 . S
C497 C498 1.333 . S
C497 N499 1.317 . S
C497 H502 0.930 . S
C498 C497 1.333 . S
C498 N500 1.350 . S
C498 H524 0.931 . S
N499 Co495 2.148 . S
N499 C496 1.301 . S
N499 C497 1.317 . S
N500 C496 1.328 . S
N500 C498 1.350 . S
H501 C496 0.930 . S
H502 C497 0.930 . S
C503 O504 1.224 . S
C503 O522 1.247 . S
O504 C503 1.224 . S
N505 Co495 2.128 . S
N505 C506 1.355 . S
N505 C508 1.311 . S
C506 N505 1.355 . S
C506 C507 1.363 . S
C506 H518 0.929 . S
C507 C506 1.363 . S
C507 N509 1.375 . S
C507 H525 0.931 . S
C508 N505 1.311 . S
C508 N509 1.347 . S
C508 H519 0.929 . S
N509 C507 1.375 . S
N509 C508 1.347 . S
C510 C513 1.365 . S
C510 N515 1.328 . S
C510 H516 0.929 . S
C511 C512 1.362 . S
C511 C514 1.378 . S
C511 H526 0.929 . S
C512 C511 1.362 . S
C512 C513 1.366 . S
C513 C510 1.365 . S
C513 C512 1.366 . S
C513 H527 0.930 . S
C514 C511 1.378 . S
C514 N515 1.315 . S
C514 H517 0.930 . S
N515 Co495 2.194 . S
N515 C510 1.328 . S
N515 C514 1.315 . S
H516 C510 0.929 . S
H517 C514 0.930 . S
H518 C506 0.929 . S
H519 C508 0.929 . S
O520 Co495 2.351 . S
O520 C523 1.244 . S
O521 Co495 2.155 . S
O521 C523 1.240 . S
O522 Co495 2.096 . S
O522 C503 1.247 . S
C523 O520 1.244 . S
C523 O521 1.240 . S
H524 C498 0.931 . S
H525 C507 0.931 . S
H526 C511 0.929 . S
H527 C513 0.930 . S
H528 C536 0.929 . S
H529 C538 0.930 . S
H530 C540 0.930 1_655 S
H531 C543 0.929 . S
H532 C546 0.930 . S
H533 C548 0.960 . S
H534 C548 0.960 . S
H535 C548 0.960 1_655 S
C536 H528 0.929 . S
C536 C537 1.377 . S
C536 C538 1.384 . S
C537 C536 1.377 . S
C537 C543 1.390 1_455 S
C538 H529 0.930 . S
C538 C536 1.384 . S
C538 C539 1.372 . S
C539 C538 1.372 . S
C539 C540 1.400 . S
C539 C544 1.490 . S
C540 H530 0.930 1_455 S
C540 C539 1.400 . S
C540 C543 1.386 1_455 S
H541 C557 0.930 . S
H542 C558 0.931 . S
C543 H531 0.929 . S
C543 C537 1.390 1_655 S
C543 C540 1.386 1_655 S
C544 C539 1.490 . S
C544 C546 1.395 . S
C544 C547 1.403 . S
H545 C551 0.930 . S
C546 H532 0.930 . S
C546 C544 1.395 . S
C546 C549 1.403 . S
C547 C544 1.403 . S
C547 C548 1.524 . S
C547 C551 1.400 . S
C548 H533 0.960 . S
C548 H534 0.960 . S
C548 H535 0.960 1_455 S
C548 C547 1.524 . S
C549 C546 1.403 . S
C549 C550 1.392 . S
C549 C553 1.495 . S
C550 C549 1.392 . S
C550 C551 1.385 . S
C550 C552 1.478 . S
C551 H545 0.930 . S
C551 C547 1.400 . S
C551 C550 1.385 . S
C552 C550 1.478 . S
C552 C554 1.381 . S
C552 C558 1.383 . S
C553 C549 1.495 . S
C553 H559 0.959 . S
C553 H560 0.961 . S
C553 H561 0.960 . S
C554 C552 1.381 . S
C554 C555 1.394 . S
C554 H562 0.930 . S
C555 C554 1.394 . S
C555 C556 1.383 . S
C555 H563 0.929 1_545 S
C556 C555 1.383 . S
C556 C557 1.377 . S
C557 H541 0.930 . S
C557 C556 1.377 . S
C557 C558 1.379 . S
C558 H542 0.931 . S
C558 C552 1.383 . S
C558 C557 1.379 . S
H559 C553 0.959 . S
H560 C553 0.961 . S
H561 C553 0.960 . S
H562 C554 0.930 . S
H563 C555 0.929 1_565 S
H564 C572 0.929 . S
H565 C574 0.926 1_565 S
H566 C576 0.930 . S
H567 C579 0.929 . S
H568 C582 0.930 . S
H569 C584 0.960 . S
H570 C584 0.960 . S
H571 C584 0.960 . S
C572 H564 0.929 . S
C572 C573 1.377 1_565 S
C572 C574 1.381 1_565 S
C573 C572 1.377 1_545 S
C573 C579 1.390 . S
C574 H565 0.926 1_545 S
C574 C572 1.381 1_545 S
C574 C575 1.379 . S
C575 C574 1.379 . S
C575 C576 1.400 . S
C575 C580 1.490 . S
C576 H566 0.930 . S
C576 C575 1.400 . S
C576 C579 1.386 . S
H577 C593 0.930 . S
H578 C594 0.931 . S
C579 H567 0.929 . S
C579 C573 1.390 . S
C579 C576 1.386 . S
C580 C575 1.490 . S
C580 C582 1.395 . S
C580 C583 1.403 . S
H581 C587 0.930 . S
C582 H568 0.930 . S
C582 C580 1.395 . S
C582 C585 1.403 . S
C583 C580 1.403 . S
C583 C584 1.524 . S
C583 C587 1.400 . S
C584 H569 0.960 . S
C584 H570 0.960 . S
C584 H571 0.960 . S
C584 C583 1.524 . S
C585 C582 1.403 . S
C585 C586 1.392 . S
C585 C589 1.495 . S
C586 C585 1.392 . S
C586 C587 1.385 . S
C586 C588 1.478 . S
C587 H581 0.930 . S
C587 C583 1.400 . S
C587 C586 1.385 . S
C588 C586 1.478 . S
C588 C590 1.381 . S
C588 C594 1.383 . S
C589 C585 1.495 . S
C589 H595 0.959 . S
C589 H596 0.961 . S
C589 H597 0.960 . S
C590 C588 1.381 . S
C590 C591 1.394 . S
C590 H598 0.930 . S
C591 C590 1.394 . S
C591 C592 1.383 . S
C591 H599 0.929 . S
C592 C591 1.383 . S
C592 C593 1.377 . S
C593 H577 0.930 . S
C593 C592 1.377 . S
C593 C594 1.379 . S
C594 H578 0.931 . S
C594 C588 1.383 . S
C594 C593 1.379 . S
H595 C589 0.959 . S
H596 C589 0.961 . S
H597 C589 0.960 . S
H598 C590 0.930 . S
H599 C591 0.929 . S
H600 C608 0.929 . S
H601 C610 0.930 . S
H602 C612 0.930 . S
H603 C615 0.929 . S
H604 C618 0.930 . S
H605 C620 0.960 . S
H606 C620 0.960 . S
H607 C620 0.960 . S
C608 H600 0.929 . S
C608 C609 1.377 . S
C608 C610 1.384 . S
C609 C608 1.377 . S
C609 C615 1.390 . S
C610 H601 0.930 . S
C610 C608 1.384 . S
C610 C611 1.372 . S
C611 C610 1.372 . S
C611 C612 1.400 . S
C611 C616 1.490 . S
C612 H602 0.930 . S
C612 C611 1.400 . S
C612 C615 1.386 . S
H613 C629 0.930 . S
H614 C630 0.931 . S
C615 H603 0.929 . S
C615 C609 1.390 . S
C615 C612 1.386 . S
C616 C611 1.490 . S
C616 C618 1.395 . S
C616 C619 1.403 . S
H617 C623 0.930 . S
C618 H604 0.930 . S
C618 C616 1.395 . S
C618 C621 1.403 . S
C619 C616 1.403 . S
C619 C620 1.524 . S
C619 C623 1.400 . S
C620 H605 0.960 . S
C620 H606 0.960 . S
C620 H607 0.960 . S
C620 C619 1.524 . S
C621 C618 1.403 . S
C621 C622 1.392 . S
C621 C625 1.495 . S
C622 C621 1.392 . S
C622 C623 1.385 . S
C622 C624 1.478 . S
C623 H617 0.930 . S
C623 C619 1.400 . S
C623 C622 1.385 . S
C624 C622 1.478 . S
C624 C626 1.381 . S
C624 C630 1.383 . S
C625 C621 1.495 . S
C625 H631 0.959 . S
C625 H632 0.961 . S
C625 H633 0.960 . S
C626 C624 1.381 . S
C626 C627 1.394 . S
C626 H634 0.930 . S
C627 C626 1.394 . S
C627 C628 1.383 . S
C627 H635 0.929 . S
C628 C627 1.383 . S
C628 C629 1.377 . S
C629 H613 0.930 . S
C629 C628 1.377 . S
C629 C630 1.379 . S
C630 H614 0.931 . S
C630 C624 1.383 . S
C630 C629 1.379 . S
H631 C625 0.959 . S
H632 C625 0.961 . S
H633 C625 0.960 . S
H634 C626 0.930 . S
H635 C627 0.929 . S
H636 C644 0.929 . S
H637 C646 0.930 . S
H638 C648 0.930 . S
H639 C651 0.929 . S
H640 C654 0.930 . S
H641 C656 0.955 1_655 S
H642 C656 0.945 1_655 S
H643 C656 0.960 . S
C644 H636 0.929 . S
C644 C645 1.377 . S
C644 C646 1.384 . S
C645 C644 1.377 . S
C645 C651 1.390 . S
C646 H637 0.930 . S
C646 C644 1.384 . S
C646 C647 1.372 . S
C647 C646 1.372 . S
C647 C648 1.400 . S
C647 C652 1.490 . S
C648 H638 0.930 . S
C648 C647 1.400 . S
C648 C651 1.386 . S
H649 C665 0.930 . S
H650 C666 0.931 . S
C651 H639 0.929 . S
C651 C645 1.390 . S
C651 C648 1.386 . S
C652 C647 1.490 . S
C652 C654 1.395 . S
C652 C655 1.403 . S
H653 C659 0.930 . S
C654 H640 0.930 . S
C654 C652 1.395 . S
C654 C657 1.403 . S
C655 C652 1.403 . S
C655 C656 1.544 . S
C655 C659 1.400 . S
C656 H641 0.955 1_455 S
C656 H642 0.945 1_455 S
C656 H643 0.960 . S
C656 C655 1.544 . S
C657 C654 1.403 . S
C657 C658 1.392 . S
C657 C661 1.495 . S
C658 C657 1.392 . S
C658 C659 1.385 . S
C658 C660 1.478 . S
C659 H653 0.930 . S
C659 C655 1.400 . S
C659 C658 1.385 . S
C660 C658 1.478 . S
C660 C662 1.381 . S
C660 C666 1.383 . S
C661 C657 1.495 . S
C661 H667 0.959 . S
C661 H668 0.961 . S
C661 H669 0.960 . S
C662 C660 1.381 . S
C662 C663 1.394 . S
C662 H670 0.930 . S
C663 C662 1.394 . S
C663 C664 1.383 . S
C663 H671 0.929 . S
C664 C663 1.383 . S
C664 C665 1.377 . S
C665 H649 0.930 . S
C665 C664 1.377 . S
C665 C666 1.379 . S
C666 H650 0.931 . S
C666 C660 1.383 . S
C666 C665 1.379 . S
H667 C661 0.959 . S
H668 C661 0.961 . S
H669 C661 0.960 . S
H670 C662 0.930 . S
H671 C663 0.929 . S
H672 C680 0.929 . S
H673 C682 0.930 . S
H674 C684 0.930 . S
H675 C687 0.929 1_455 S
H676 C690 0.930 . S
H677 C692 0.960 . S
H678 C692 0.960 . S
H679 C692 0.960 . S
C680 H672 0.929 . S
C680 C681 1.377 . S
C680 C682 1.384 . S
C681 C680 1.377 . S
C681 C687 1.390 . S
C682 H673 0.930 . S
C682 C680 1.384 . S
C682 C683 1.372 . S
C683 C682 1.372 . S
C683 C684 1.400 . S
C683 C688 1.490 . S
C684 H674 0.930 . S
C684 C683 1.400 . S
C684 C687 1.386 . S
H685 C701 0.930 . S
H686 C702 0.931 . S
C687 H675 0.929 1_655 S
C687 C681 1.390 . S
C687 C684 1.386 . S
C688 C683 1.490 . S
C688 C690 1.395 . S
C688 C691 1.403 . S
H689 C695 0.930 . S
C690 H676 0.930 . S
C690 C688 1.395 . S
C690 C693 1.403 . S
C691 C688 1.403 . S
C691 C692 1.524 . S
C691 C695 1.400 . S
C692 H677 0.960 . S
C692 H678 0.960 . S
C692 H679 0.960 . S
C692 C691 1.524 . S
C693 C690 1.403 . S
C693 C694 1.392 . S
C693 C697 1.495 1_565 S
C694 C693 1.392 . S
C694 C695 1.385 . S
C694 C696 1.478 . S
C695 H689 0.930 . S
C695 C691 1.400 . S
C695 C694 1.385 . S
C696 C694 1.478 . S
C696 C698 1.367 1_565 S
C696 C702 1.383 . S
C697 C693 1.495 1_545 S
C697 H703 0.959 . S
C697 H704 0.956 1_545 S
C697 H705 0.960 . S
C698 C696 1.367 1_545 S
C698 C699 1.400 . S
C698 H706 0.938 . S
C699 C698 1.400 . S
C699 C700 1.383 1_545 S
C699 H707 0.929 . S
C700 C699 1.383 1_565 S
C700 C701 1.377 . S
C701 H685 0.930 . S
C701 C700 1.377 . S
C701 C702 1.379 . S
C702 H686 0.931 . S
C702 C696 1.383 . S
C702 C701 1.379 . S
H703 C697 0.959 . S
H704 C697 0.956 1_565 S
H705 C697 0.960 . S
H706 C698 0.938 . S
H707 C699 0.929 . S
H708 C716 0.929 . S
H709 C718 0.930 . S
H710 C720 0.930 1_545 S
H711 C723 0.929 . S
H712 C726 0.930 . S
H713 C728 0.960 . S
H714 C728 0.960 . S
H715 C728 0.960 . S
C716 H708 0.929 . S
C716 C717 1.377 . S
C716 C718 1.384 . S
C717 C716 1.377 . S
C717 C723 1.390 1_565 S
C718 H709 0.930 . S
C718 C716 1.384 . S
C718 C719 1.372 . S
C719 C718 1.372 . S
C719 C720 1.400 . S
C719 C724 1.490 . S
C720 H710 0.930 1_565 S
C720 C719 1.400 . S
C720 C723 1.386 1_565 S
H721 C737 0.930 . S
H722 C738 0.931 . S
C723 H711 0.929 . S
C723 C717 1.390 1_545 S
C723 C720 1.386 1_545 S
C724 C719 1.490 . S
C724 C726 1.395 . S
C724 C727 1.403 . S
H725 C731 0.930 . S
C726 H712 0.930 . S
C726 C724 1.395 . S
C726 C729 1.403 . S
C727 C724 1.403 . S
C727 C728 1.524 . S
C727 C731 1.400 . S
C728 H713 0.960 . S
C728 H714 0.960 . S
C728 H715 0.960 . S
C728 C727 1.524 . S
C729 C726 1.403 . S
C729 C730 1.392 . S
C729 C733 1.495 . S
C730 C729 1.392 . S
C730 C731 1.385 . S
C730 C732 1.478 . S
C731 H725 0.930 . S
C731 C727 1.400 . S
C731 C730 1.385 . S
C732 C730 1.478 . S
C732 C734 1.381 . S
C732 C738 1.383 . S
C733 C729 1.495 . S
C733 H739 0.959 . S
C733 H740 0.961 . S
C733 H741 0.960 . S
C734 C732 1.381 . S
C734 C735 1.394 . S
C734 H742 0.930 . S
C735 C734 1.394 . S
C735 C736 1.383 . S
C735 H743 0.929 . S
C736 C735 1.383 . S
C736 C737 1.377 . S
C737 H721 0.930 . S
C737 C736 1.377 . S
C737 C738 1.379 . S
C738 H722 0.931 . S
C738 C732 1.383 . S
C738 C737 1.379 . S
H739 C733 0.959 . S
H740 C733 0.961 . S
H741 C733 0.960 . S
H742 C734 0.930 . S
H743 C735 0.929 . S
H744 C752 0.929 . S
H745 C754 0.930 . S
H746 C756 0.930 . S
H747 C759 0.929 . S
H748 C762 0.930 . S
H749 C764 0.960 . S
H750 C764 0.960 . S
H751 C764 0.960 . S
C752 H744 0.929 . S
C752 C753 1.377 . S
C752 C754 1.384 . S
C753 C752 1.377 . S
C753 C759 1.390 . S
C754 H745 0.930 . S
C754 C752 1.384 . S
C754 C755 1.372 . S
C755 C754 1.372 . S
C755 C756 1.400 . S
C755 C760 1.490 . S
C756 H746 0.930 . S
C756 C755 1.400 . S
C756 C759 1.386 . S
H757 C773 0.930 . S
H758 C774 0.931 . S
C759 H747 0.929 . S
C759 C753 1.390 . S
C759 C756 1.386 . S
C760 C755 1.490 . S
C760 C762 1.395 . S
C760 C763 1.403 . S
H761 C767 0.930 . S
C762 H748 0.930 . S
C762 C760 1.395 . S
C762 C765 1.403 . S
C763 C760 1.403 . S
C763 C764 1.524 . S
C763 C767 1.400 . S
C764 H749 0.960 . S
C764 H750 0.960 . S
C764 H751 0.960 . S
C764 C763 1.524 . S
C765 C762 1.403 . S
C765 C766 1.392 . S
C765 C769 1.495 . S
C766 C765 1.392 . S
C766 C767 1.385 . S
C766 C768 1.478 . S
C767 H761 0.930 . S
C767 C763 1.400 . S
C767 C766 1.385 . S
C768 C766 1.478 . S
C768 C770 1.381 . S
C768 C774 1.383 . S
C769 C765 1.495 . S
C769 H775 0.959 . S
C769 H776 0.961 . S
C769 H777 0.960 . S
C770 C768 1.381 . S
C770 C771 1.394 . S
C770 H778 0.930 . S
C771 C770 1.394 . S
C771 C772 1.383 . S
C771 H779 0.929 . S
C772 C771 1.383 . S
C772 C773 1.377 . S
C773 H757 0.930 . S
C773 C772 1.377 . S
C773 C774 1.379 . S
C774 H758 0.931 . S
C774 C768 1.383 . S
C774 C773 1.379 . S
H775 C769 0.959 . S
H776 C769 0.961 . S
H777 C769 0.960 . S
H778 C770 0.930 . S
H779 C771 0.929 . S
H780 C788 0.929 . S
H781 C790 0.930 . S
H782 C792 0.930 . S
H783 C795 0.929 . S
H784 C798 0.930 . S
H785 C800 0.960 . S
H786 C800 0.960 . S
H787 C800 0.960 . S
C788 H780 0.929 . S
C788 C789 1.377 . S
C788 C790 1.384 . S
C789 C788 1.377 . S
C789 C795 1.390 . S
C790 H781 0.930 . S
C790 C788 1.384 . S
C790 C791 1.372 . S
C791 C790 1.372 . S
C791 C792 1.400 . S
C791 C796 1.490 . S
C792 H782 0.930 . S
C792 C791 1.400 . S
C792 C795 1.386 . S
H793 C809 0.930 . S
H794 C810 0.931 . S
C795 H783 0.929 . S
C795 C789 1.390 . S
C795 C792 1.386 . S
C796 C791 1.490 . S
C796 C798 1.395 . S
C796 C799 1.403 . S
H797 C803 0.930 . S
C798 H784 0.930 . S
C798 C796 1.395 . S
C798 C801 1.403 . S
C799 C796 1.403 . S
C799 C800 1.524 . S
C799 C803 1.400 . S
C800 H785 0.960 . S
C800 H786 0.960 . S
C800 H787 0.960 . S
C800 C799 1.524 . S
C801 C798 1.403 . S
C801 C802 1.392 . S
C801 C805 1.495 . S
C802 C801 1.392 . S
C802 C803 1.385 . S
C802 C804 1.478 . S
C803 H797 0.930 . S
C803 C799 1.400 . S
C803 C802 1.385 . S
C804 C802 1.478 . S
C804 C806 1.381 . S
C804 C810 1.383 . S
C805 C801 1.495 . S
C805 H811 0.959 . S
C805 H812 0.961 . S
C805 H813 0.960 . S
C806 C804 1.381 . S
C806 C807 1.394 . S
C806 H814 0.930 . S
C807 C806 1.394 . S
C807 C808 1.383 . S
C807 H815 0.929 . S
C808 C807 1.383 . S
C808 C809 1.377 1_655 S
C809 H793 0.930 . S
C809 C808 1.377 1_455 S
C809 C810 1.379 1_455 S
C810 H794 0.931 . S
C810 C804 1.383 . S
C810 C809 1.379 1_655 S
H811 C805 0.959 . S
H812 C805 0.961 . S
H813 C805 0.960 . S
H814 C806 0.930 . S
H815 C807 0.929 . S
H816 C824 0.929 . S
H817 C826 0.930 . S
H818 C828 0.930 1_655 S
H819 C831 0.929 . S
H820 C834 0.930 . S
H821 C836 0.960 . S
H822 C836 0.960 . S
H823 C836 0.960 . S
C824 H816 0.929 . S
C824 C825 1.377 . S
C824 C826 1.384 . S
C825 C824 1.377 . S
C825 C831 1.390 . S
C826 H817 0.930 . S
C826 C824 1.384 . S
C826 C827 1.372 . S
C827 C826 1.372 . S
C827 C828 1.400 . S
C827 C832 1.490 . S
C828 H818 0.930 1_455 S
C828 C827 1.400 . S
C828 C831 1.386 . S
H829 C845 0.930 . S
H830 C846 0.931 . S
C831 H819 0.929 . S
C831 C825 1.390 . S
C831 C828 1.386 . S
C832 C827 1.490 . S
C832 C834 1.395 1_565 S
C832 C835 1.403 1_455 S
H833 C839 0.930 . S
C834 H820 0.930 . S
C834 C832 1.395 1_545 S
C834 C837 1.403 . S
C835 C832 1.403 1_655 S
C835 C836 1.524 . S
C835 C839 1.400 . S
C836 H821 0.960 . S
C836 H822 0.960 . S
C836 H823 0.960 . S
C836 C835 1.524 . S
C837 C834 1.403 . S
C837 C838 1.392 1_455 S
C837 C841 1.495 . S
C838 C837 1.392 1_655 S
C838 C839 1.385 1_545 S
C838 C840 1.478 . S
C839 H833 0.930 . S
C839 C835 1.400 . S
C839 C838 1.385 1_565 S
C840 C838 1.478 . S
C840 C842 1.381 . S
C840 C846 1.383 . S
C841 C837 1.495 . S
C841 H847 0.959 . S
C841 H848 0.961 . S
C841 H849 0.960 . S
C842 C840 1.381 . S
C842 C843 1.394 . S
C842 H850 0.930 1_655 S
C843 C842 1.394 . S
C843 C844 1.383 . S
C843 H851 0.929 . S
C844 C843 1.383 . S
C844 C845 1.377 . S
C845 H829 0.930 . S
C845 C844 1.377 . S
C845 C846 1.379 . S
C846 H830 0.931 . S
C846 C840 1.383 . S
C846 C845 1.379 . S
H847 C841 0.959 . S
H848 C841 0.961 . S
H849 C841 0.960 . S
H850 C842 0.930 1_455 S
H851 C843 0.929 . S
H852 C860 0.929 . S
H853 C862 0.930 . S
H854 C864 0.930 . S
H855 C867 0.929 . S
H856 C870 0.930 . S
H857 C872 0.960 . S
H858 C872 0.960 . S
H859 C872 0.960 . S
C860 H852 0.929 . S
C860 C861 1.377 . S
C860 C862 1.384 . S
C861 C860 1.377 . S
C861 C867 1.390 . S
C862 H853 0.930 . S
C862 C860 1.384 . S
C862 C863 1.372 . S
C863 C862 1.372 . S
C863 C864 1.400 . S
C863 C868 1.490 . S
C864 H854 0.930 . S
C864 C863 1.400 . S
C864 C867 1.386 . S
H865 C881 0.930 . S
H866 C882 0.931 . S
C867 H855 0.929 . S
C867 C861 1.390 . S
C867 C864 1.386 . S
C868 C863 1.490 . S
C868 C870 1.395 1_545 S
C868 C871 1.403 . S
H869 C875 0.930 . S
C870 H856 0.930 . S
C870 C868 1.395 1_565 S
C870 C873 1.403 . S
C871 C868 1.403 . S
C871 C872 1.524 . S
C871 C875 1.400 . S
C872 H857 0.960 . S
C872 H858 0.960 . S
C872 H859 0.960 . S
C872 C871 1.524 . S
C873 C870 1.403 . S
C873 C874 1.392 . S
C873 C877 1.495 . S
C874 C873 1.392 . S
C874 C875 1.385 1_565 S
C874 C876 1.478 . S
C875 H869 0.930 . S
C875 C871 1.400 . S
C875 C874 1.385 1_545 S
C876 C874 1.478 . S
C876 C878 1.381 . S
C876 C882 1.383 . S
C877 C873 1.495 . S
C877 H883 0.959 . S
C877 H884 0.961 . S
C877 H885 0.960 . S
C878 C876 1.381 . S
C878 C879 1.394 . S
C878 H886 0.930 . S
C879 C878 1.394 . S
C879 C880 1.383 . S
C879 H887 0.929 . S
C880 C879 1.383 . S
C880 C881 1.377 . S
C881 H865 0.930 . S
C881 C880 1.377 . S
C881 C882 1.379 . S
C882 H866 0.931 . S
C882 C876 1.383 . S
C882 C881 1.379 . S
H883 C877 0.959 . S
H884 C877 0.961 . S
H885 C877 0.960 . S
H886 C878 0.930 . S
H887 C879 0.929 . S
H888 C896 0.929 . S
H889 C898 0.930 . S
H890 C900 0.930 . S
H891 C903 0.929 . S
H892 C906 0.930 . S
H893 C908 0.960 . S
H894 C908 0.960 . S
H895 C908 0.960 . S
C896 H888 0.929 . S
C896 C897 1.377 . S
C896 C898 1.384 . S
C897 C896 1.377 . S
C897 C903 1.390 . S
C898 H889 0.930 . S
C898 C896 1.384 . S
C898 C899 1.372 . S
C899 C898 1.372 . S
C899 C900 1.400 . S
C899 C904 1.490 . S
C900 H890 0.930 . S
C900 C899 1.400 . S
C900 C903 1.386 . S
H901 C917 0.930 . S
H902 C918 0.931 . S
C903 H891 0.929 . S
C903 C897 1.390 . S
C903 C900 1.386 . S
C904 C899 1.490 . S
C904 C906 1.395 . S
C904 C907 1.403 . S
H905 C911 0.930 . S
C906 H892 0.930 . S
C906 C904 1.395 . S
C906 C909 1.403 . S
C907 C904 1.403 . S
C907 C908 1.524 . S
C907 C911 1.400 . S
C908 H893 0.960 . S
C908 H894 0.960 . S
C908 H895 0.960 . S
C908 C907 1.524 . S
C909 C906 1.403 . S
C909 C910 1.392 . S
C909 C913 1.495 . S
C910 C909 1.392 . S
C910 C911 1.385 . S
C910 C912 1.478 . S
C911 H905 0.930 . S
C911 C907 1.400 . S
C911 C910 1.385 . S
C912 C910 1.478 . S
C912 C914 1.381 . S
C912 C918 1.383 . S
C913 C909 1.495 . S
C913 H919 0.959 . S
C913 H920 0.961 . S
C913 H921 0.960 . S
C914 C912 1.381 . S
C914 C915 1.394 . S
C914 H922 0.930 . S
C915 C914 1.394 . S
C915 C916 1.383 . S
C915 H923 0.929 . S
C916 C915 1.383 . S
C916 C917 1.377 . S
C917 H901 0.930 . S
C917 C916 1.377 . S
C917 C918 1.379 . S
C918 H902 0.931 . S
C918 C912 1.383 . S
C918 C917 1.379 . S
H919 C913 0.959 . S
H920 C913 0.961 . S
H921 C913 0.960 . S
H922 C914 0.930 . S
H923 C915 0.929 . S
H924 C932 0.929 . S
H925 C934 0.930 . S
H926 C936 0.930 . S
H927 C939 0.929 . S
H928 C942 0.930 . S
H929 C944 0.960 . S
H930 C944 0.960 . S
H931 C944 0.960 . S
C932 H924 0.929 . S
C932 C933 1.377 . S
C932 C934 1.384 . S
C933 C932 1.377 . S
C933 C939 1.390 . S
C934 H925 0.930 . S
C934 C932 1.384 . S
C934 C935 1.372 . S
C935 C934 1.372 . S
C935 C936 1.400 . S
C935 C940 1.490 . S
C936 H926 0.930 . S
C936 C935 1.400 . S
C936 C939 1.386 . S
H937 C953 0.930 . S
H938 C954 0.931 . S
C939 H927 0.929 . S
C939 C933 1.390 . S
C939 C936 1.386 . S
C940 C935 1.490 . S
C940 C942 1.395 1_655 S
C940 C943 1.403 . S
H941 C947 0.930 . S
C942 H928 0.930 . S
C942 C940 1.395 1_455 S
C942 C945 1.403 . S
C943 C940 1.403 . S
C943 C944 1.524 . S
C943 C947 1.400 . S
C944 H929 0.960 . S
C944 H930 0.960 . S
C944 H931 0.960 . S
C944 C943 1.524 . S
C945 C942 1.403 . S
C945 C946 1.392 . S
C945 C949 1.495 . S
C946 C945 1.392 . S
C946 C947 1.385 1_455 S
C946 C948 1.478 . S
C947 H941 0.930 . S
C947 C943 1.400 . S
C947 C946 1.385 1_655 S
C948 C946 1.478 . S
C948 C950 1.381 . S
C948 C954 1.383 . S
C949 C945 1.495 . S
C949 H955 0.959 . S
C949 H956 0.961 . S
C949 H957 0.960 . S
C950 C948 1.381 . S
C950 C951 1.394 . S
C950 H958 0.930 . S
C951 C950 1.394 . S
C951 C952 1.383 . S
C951 H959 0.929 . S
C952 C951 1.383 . S
C952 C953 1.377 . S
C953 H937 0.930 . S
C953 C952 1.377 . S
C953 C954 1.379 . S
C954 H938 0.931 . S
C954 C948 1.383 . S
C954 C953 1.379 . S
H955 C949 0.959 . S
H956 C949 0.961 . S
H957 C949 0.960 . S
H958 C950 0.930 . S
H959 C951 0.929 . S
H960 C968 0.929 . S
H961 C970 0.930 . S
H962 C972 0.930 1_455 S
H963 C975 0.929 . S
H964 C978 0.930 . S
H965 C980 0.960 . S
H966 C980 0.960 . S
H967 C980 0.960 . S
C968 H960 0.929 . S
C968 C969 1.377 . S
C968 C970 1.384 . S
C969 C968 1.377 . S
C969 C975 1.390 . S
C970 H961 0.930 . S
C970 C968 1.384 . S
C970 C971 1.372 . S
C971 C970 1.372 . S
C971 C972 1.400 . S
C971 C976 1.490 . S
C972 H962 0.930 1_655 S
C972 C971 1.400 . S
C972 C975 1.386 . S
H973 C989 0.930 . S
H974 C990 0.931 . S
C975 H963 0.929 . S
C975 C969 1.390 . S
C975 C972 1.386 . S
C976 C971 1.490 . S
C976 C978 1.395 1_556 S
C976 C979 1.403 . S
H977 C983 0.930 1_556 S
C978 H964 0.930 . S
C978 C976 1.395 1_554 S
C978 C981 1.403 1_655 S
C979 C976 1.403 . S
C979 C980 1.524 . S
C979 C983 1.397 1_656 S
C980 H965 0.960 . S
C980 H966 0.960 . S
C980 H967 0.960 . S
C980 C979 1.524 . S
C981 C978 1.403 1_455 S
C981 C982 1.392 . S
C981 C985 1.495 . S
C982 C981 1.392 . S
C982 C983 1.388 . S
C982 C984 1.478 . S
C983 H977 0.930 1_554 S
C983 C979 1.397 1_454 S
C983 C982 1.388 . S
C984 C982 1.478 . S
C984 C986 1.381 . S
C984 C990 1.383 . S
C985 C981 1.495 . S
C985 H991 0.959 . S
C985 H992 0.961 . S
C985 H993 0.960 . S
C986 C984 1.381 . S
C986 C987 1.394 . S
C986 H994 0.930 1_455 S
C987 C986 1.394 . S
C987 C988 1.383 . S
C987 H995 0.929 . S
C988 C987 1.383 . S
C988 C989 1.377 . S
C989 H973 0.930 . S
C989 C988 1.377 . S
C989 C990 1.379 . S
C990 H974 0.931 . S
C990 C984 1.383 . S
C990 C989 1.379 . S
H991 C985 0.959 . S
H992 C985 0.961 . S
H993 C985 0.960 . S
H994 C986 0.930 1_655 S
H995 C987 0.929 . S
H996 C1004 0.929 . S
H997 C1006 0.930 . S
H998 C1008 0.930 1_545 S
H999 C1011 0.929 . S
H1000 C1014 0.930 . S
H1001 C1016 0.960 1_655 S
H1002 C1016 0.960 1_655 S
H1003 C1016 0.960 . S
C1004 H996 0.929 . S
C1004 C1005 1.377 . S
C1004 C1006 1.384 . S
C1005 C1004 1.377 . S
C1005 C1011 1.390 . S
C1006 H997 0.930 . S
C1006 C1004 1.384 . S
C1006 C1007 1.372 . S
C1007 C1006 1.372 . S
C1007 C1008 1.400 . S
C1007 C1012 1.490 . S
C1008 H998 0.930 1_565 S
C1008 C1007 1.400 . S
C1008 C1011 1.386 . S
H1009 C1025 0.930 . S
H1010 C1026 0.931 . S
C1011 H999 0.929 . S
C1011 C1005 1.390 . S
C1011 C1008 1.386 . S
C1012 C1007 1.490 . S
C1012 C1014 1.395 1_556 S
C1012 C1015 1.403 1_565 S
H1013 C1019 0.935 . S
C1014 H1000 0.930 . S
C1014 C1012 1.395 1_554 S
C1014 C1017 1.403 1_455 S
C1015 C1012 1.403 1_545 S
C1015 C1016 1.524 . S
C1015 C1019 1.432 1_455 S
C1016 H1001 0.960 1_455 S
C1016 H1002 0.960 1_455 S
C1016 H1003 0.960 . S
C1016 C1015 1.524 . S
C1017 C1014 1.403 1_655 S
C1017 C1018 1.392 1_565 S
C1017 C1021 1.495 . S
C1018 C1017 1.392 1_545 S
C1018 C1019 1.350 1_554 S
C1018 C1020 1.478 . S
C1019 H1013 0.935 . S
C1019 C1015 1.432 1_655 S
C1019 C1018 1.350 1_556 S
C1020 C1018 1.478 . S
C1020 C1022 1.381 . S
C1020 C1026 1.383 . S
C1021 C1017 1.495 . S
C1021 H1027 0.959 1_655 S
C1021 H1028 0.961 1_655 S
C1021 H1029 0.960 . S
C1022 C1020 1.381 . S
C1022 C1023 1.394 . S
C1022 H1030 0.930 1_545 S
C1023 C1022 1.394 . S
C1023 C1024 1.383 . S
C1023 H1031 0.929 . S
C1024 C1023 1.383 . S
C1024 C1025 1.377 . S
C1025 H1009 0.930 . S
C1025 C1024 1.377 . S
C1025 C1026 1.379 . S
C1026 H1010 0.931 . S
C1026 C1020 1.383 . S
C1026 C1025 1.379 . S
H1027 C1021 0.959 1_455 S
H1028 C1021 0.961 1_455 S
H1029 C1021 0.960 . S
H1030 C1022 0.930 1_565 S
H1031 C1023 0.929 . S
H1032 C1040 0.929 . S
H1033 C1042 0.930 . S
H1034 C1044 0.930 . S
H1035 C1047 0.929 . S
H1036 C1050 0.930 . S
H1037 C1052 0.960 . S
H1038 C1052 0.960 . S
H1039 C1052 0.960 . S
C1040 H1032 0.929 . S
C1040 C1041 1.377 . S
C1040 C1042 1.384 . S
C1041 C1040 1.377 . S
C1041 C1047 1.390 . S
C1042 H1033 0.930 . S
C1042 C1040 1.384 . S
C1042 C1043 1.372 . S
C1043 C1042 1.372 . S
C1043 C1044 1.400 . S
C1043 C1048 1.490 . S
C1044 H1034 0.930 . S
C1044 C1043 1.400 . S
C1044 C1047 1.386 . S
H1045 C1061 0.930 . S
H1046 C1062 0.931 . S
C1047 H1035 0.929 . S
C1047 C1041 1.390 . S
C1047 C1044 1.386 . S
C1048 C1043 1.490 . S
C1048 C1050 1.395 1_556 S
C1048 C1051 1.403 1_545 S
H1049 C1055 0.933 . S
C1050 H1036 0.930 . S
C1050 C1048 1.395 1_554 S
C1050 C1053 1.403 . S
C1051 C1048 1.403 1_565 S
C1051 C1052 1.524 . S
C1051 C1055 1.414 . S
C1052 H1037 0.960 . S
C1052 H1038 0.960 . S
C1052 H1039 0.960 . S
C1052 C1051 1.524 . S
C1053 C1050 1.403 . S
C1053 C1054 1.392 1_545 S
C1053 C1057 1.495 . S
C1054 C1053 1.392 1_565 S
C1054 C1055 1.369 1_554 S
C1054 C1056 1.478 . S
C1055 H1049 0.933 . S
C1055 C1051 1.414 . S
C1055 C1054 1.369 1_556 S
C1056 C1054 1.478 . S
C1056 C1058 1.381 . S
C1056 C1062 1.383 . S
C1057 C1053 1.495 . S
C1057 H1063 0.959 . S
C1057 H1064 0.961 . S
C1057 H1065 0.960 . S
C1058 C1056 1.381 . S
C1058 C1059 1.394 . S
C1058 H1066 0.930 . S
C1059 C1058 1.394 . S
C1059 C1060 1.383 . S
C1059 H1067 0.929 . S
C1060 C1059 1.383 . S
C1060 C1061 1.377 . S
C1061 H1045 0.930 . S
C1061 C1060 1.377 . S
C1061 C1062 1.379 . S
C1062 H1046 0.931 . S
C1062 C1056 1.383 . S
C1062 C1061 1.379 . S
H1063 C1057 0.959 . S
H1064 C1057 0.961 . S
H1065 C1057 0.960 . S
H1066 C1058 0.930 . S
H1067 C1059 0.929 . S
H1068 C1076 0.929 . S
H1069 C1078 0.930 . S
H1070 C1080 0.930 . S
H1071 C1083 0.929 . S
H1072 C1086 0.930 . S
H1073 C1088 0.960 . S
H1074 C1088 0.960 . S
H1075 C1088 0.960 . S
C1076 H1068 0.929 . S
C1076 C1077 1.377 . S
C1076 C1078 1.384 . S
C1077 C1076 1.377 . S
C1077 C1083 1.390 . S
C1078 H1069 0.930 . S
C1078 C1076 1.384 . S
C1078 C1079 1.372 . S
C1079 C1078 1.372 . S
C1079 C1080 1.400 . S
C1079 C1084 1.490 . S
C1080 H1070 0.930 . S
C1080 C1079 1.400 . S
C1080 C1083 1.386 . S
H1081 C1097 0.930 . S
H1082 C1098 0.931 . S
C1083 H1071 0.929 . S
C1083 C1077 1.390 . S
C1083 C1080 1.386 . S
C1084 C1079 1.490 . S
C1084 C1086 1.395 1_556 S
C1084 C1087 1.403 . S
H1085 C1091 0.930 . S
C1086 H1072 0.930 . S
C1086 C1084 1.395 1_554 S
C1086 C1089 1.403 . S
C1087 C1084 1.403 . S
C1087 C1088 1.524 . S
C1087 C1091 1.400 . S
C1088 H1073 0.960 . S
C1088 H1074 0.960 . S
C1088 H1075 0.960 . S
C1088 C1087 1.524 . S
C1089 C1086 1.403 . S
C1089 C1090 1.392 . S
C1089 C1093 1.495 . S
C1090 C1089 1.392 . S
C1090 C1091 1.385 1_554 S
C1090 C1092 1.478 . S
C1091 H1085 0.930 . S
C1091 C1087 1.400 . S
C1091 C1090 1.385 1_556 S
C1092 C1090 1.478 . S
C1092 C1094 1.381 . S
C1092 C1098 1.383 . S
C1093 C1089 1.495 . S
C1093 H1099 0.959 . S
C1093 H1100 0.961 . S
C1093 H1101 0.960 . S
C1094 C1092 1.381 . S
C1094 C1095 1.394 . S
C1094 H1102 0.930 . S
C1095 C1094 1.394 . S
C1095 C1096 1.383 . S
C1095 H1103 0.929 . S
C1096 C1095 1.383 . S
C1096 C1097 1.377 . S
C1097 H1081 0.930 . S
C1097 C1096 1.377 . S
C1097 C1098 1.379 . S
C1098 H1082 0.931 . S
C1098 C1092 1.383 . S
C1098 C1097 1.379 . S
H1099 C1093 0.959 . S
H1100 C1093 0.961 . S
H1101 C1093 0.960 . S
H1102 C1094 0.930 . S
H1103 C1095 0.929 . S
H1104 C1112 0.929 . S
H1105 C1114 0.930 . S
H1106 C1116 0.930 . S
H1107 C1119 0.929 . S
H1108 C1122 0.930 . S
H1109 C1124 0.960 . S
H1110 C1124 0.960 . S
H1111 C1124 0.960 . S
C1112 H1104 0.929 . S
C1112 C1113 1.377 . S
C1112 C1114 1.384 . S
C1113 C1112 1.377 . S
C1113 C1119 1.390 . S
C1114 H1105 0.930 . S
C1114 C1112 1.384 . S
C1114 C1115 1.372 . S
C1115 C1114 1.372 . S
C1115 C1116 1.400 . S
C1115 C1120 1.490 . S
C1116 H1106 0.930 . S
C1116 C1115 1.400 . S
C1116 C1119 1.386 . S
H1117 C1133 0.930 . S
H1118 C1134 0.931 . S
C1119 H1107 0.929 . S
C1119 C1113 1.390 . S
C1119 C1116 1.386 . S
C1120 C1115 1.490 . S
C1120 C1122 1.395 . S
C1120 C1123 1.403 . S
H1121 C1127 0.930 . S
C1122 H1108 0.930 . S
C1122 C1120 1.395 . S
C1122 C1125 1.403 . S
C1123 C1120 1.403 . S
C1123 C1124 1.524 . S
C1123 C1127 1.400 . S
C1124 H1109 0.960 . S
C1124 H1110 0.960 . S
C1124 H1111 0.960 . S
C1124 C1123 1.524 . S
C1125 C1122 1.403 . S
C1125 C1126 1.392 . S
C1125 C1129 1.495 . S
C1126 C1125 1.392 . S
C1126 C1127 1.385 . S
C1126 C1128 1.478 . S
C1127 H1121 0.930 . S
C1127 C1123 1.400 . S
C1127 C1126 1.385 . S
C1128 C1126 1.478 . S
C1128 C1130 1.381 . S
C1128 C1134 1.383 . S
C1129 C1125 1.495 . S
C1129 H1135 0.959 . S
C1129 H1136 0.961 . S
C1129 H1137 0.960 . S
C1130 C1128 1.381 . S
C1130 C1131 1.394 . S
C1130 H1138 0.930 . S
C1131 C1130 1.394 . S
C1131 C1132 1.383 . S
C1131 H1139 0.929 . S
C1132 C1131 1.383 . S
C1132 C1133 1.377 . S
C1133 H1117 0.930 . S
C1133 C1132 1.377 . S
C1133 C1134 1.379 . S
C1134 H1118 0.931 . S
C1134 C1128 1.383 . S
C1134 C1133 1.379 . S
H1135 C1129 0.959 . S
H1136 C1129 0.961 . S
H1137 C1129 0.960 . S
H1138 C1130 0.930 . S
H1139 C1131 0.929 . S
H1140 C1148 0.929 . S
H1141 C1150 0.930 . S
H1142 C1152 0.930 . S
H1143 C1155 0.929 . S
H1144 C1158 0.930 . S
H1145 C1160 0.960 . S
H1146 C1160 0.960 . S
H1147 C1160 0.960 . S
C1148 H1140 0.929 . S
C1148 C1149 1.377 . S
C1148 C1150 1.384 . S
C1149 C1148 1.377 . S
C1149 C1155 1.390 . S
C1150 H1141 0.930 . S
C1150 C1148 1.384 . S
C1150 C1151 1.372 . S
C1151 C1150 1.372 . S
C1151 C1152 1.400 . S
C1151 C1156 1.490 . S
C1152 H1142 0.930 . S
C1152 C1151 1.400 . S
C1152 C1155 1.386 . S
H1153 C1169 0.930 . S
H1154 C1170 0.931 . S
C1155 H1143 0.929 . S
C1155 C1149 1.390 . S
C1155 C1152 1.386 . S
C1156 C1151 1.490 . S
C1156 C1158 1.395 . S
C1156 C1159 1.403 . S
H1157 C1163 0.930 . S
C1158 H1144 0.930 . S
C1158 C1156 1.395 . S
C1158 C1161 1.403 . S
C1159 C1156 1.403 . S
C1159 C1160 1.524 . S
C1159 C1163 1.400 . S
C1160 H1145 0.960 . S
C1160 H1146 0.960 . S
C1160 H1147 0.960 . S
C1160 C1159 1.524 . S
C1161 C1158 1.403 . S
C1161 C1162 1.392 . S
C1161 C1165 1.495 . S
C1162 C1161 1.392 . S
C1162 C1163 1.385 . S
C1162 C1164 1.478 . S
C1163 H1157 0.930 . S
C1163 C1159 1.400 . S
C1163 C1162 1.385 . S
C1164 C1162 1.478 . S
C1164 C1166 1.381 . S
C1164 C1170 1.383 . S
C1165 C1161 1.495 . S
C1165 H1171 0.959 . S
C1165 H1172 0.961 . S
C1165 H1173 0.960 . S
C1166 C1164 1.381 . S
C1166 C1167 1.394 . S
C1166 H1174 0.930 . S
C1167 C1166 1.394 . S
C1167 C1168 1.383 . S
C1167 H1175 0.929 . S
C1168 C1167 1.383 . S
C1168 C1169 1.377 . S
C1169 H1153 0.930 . S
C1169 C1168 1.377 . S
C1169 C1170 1.379 . S
C1170 H1154 0.931 . S
C1170 C1164 1.383 . S
C1170 C1169 1.379 . S
H1171 C1165 0.959 . S
H1172 C1165 0.961 . S
H1173 C1165 0.960 . S
H1174 C1166 0.930 . S
H1175 C1167 0.929 . S
H1176 C1184 0.929 . S
H1177 C1186 0.930 . S
H1178 C1188 0.930 . S
H1179 C1191 0.929 . S
H1180 C1194 0.930 . S
H1181 C1196 0.960 . S
H1182 C1196 0.960 . S
H1183 C1196 0.960 . S
C1184 H1176 0.929 . S
C1184 C1185 1.377 . S
C1184 C1186 1.384 . S
C1185 C1184 1.377 . S
C1185 C1191 1.390 . S
C1186 H1177 0.930 . S
C1186 C1184 1.384 . S
C1186 C1187 1.372 . S
C1187 C1186 1.372 . S
C1187 C1188 1.400 . S
C1187 C1192 1.490 . S
C1188 H1178 0.930 . S
C1188 C1187 1.400 . S
C1188 C1191 1.386 . S
H1189 C1205 0.930 . S
H1190 C1206 0.931 . S
C1191 H1179 0.929 . S
C1191 C1185 1.390 . S
C1191 C1188 1.386 . S
C1192 C1187 1.490 . S
C1192 C1194 1.395 . S
C1192 C1195 1.403 . S
H1193 C1199 0.930 . S
C1194 H1180 0.930 . S
C1194 C1192 1.395 . S
C1194 C1197 1.403 . S
C1195 C1192 1.403 . S
C1195 C1196 1.524 . S
C1195 C1199 1.400 . S
C1196 H1181 0.960 . S
C1196 H1182 0.960 . S
C1196 H1183 0.960 . S
C1196 C1195 1.524 . S
C1197 C1194 1.403 . S
C1197 C1198 1.392 . S
C1197 C1201 1.495 . S
C1198 C1197 1.392 . S
C1198 C1199 1.385 . S
C1198 C1200 1.478 . S
C1199 H1193 0.930 . S
C1199 C1195 1.400 . S
C1199 C1198 1.385 . S
C1200 C1198 1.478 . S
C1200 C1202 1.381 . S
C1200 C1206 1.383 . S
C1201 C1197 1.495 . S
C1201 H1207 0.959 . S
C1201 H1208 0.961 . S
C1201 H1209 0.960 . S
C1202 C1200 1.381 . S
C1202 C1203 1.394 . S
C1202 H1210 0.930 . S
C1203 C1202 1.394 . S
C1203 C1204 1.383 . S
C1203 H1211 0.929 . S
C1204 C1203 1.383 . S
C1204 C1205 1.377 . S
C1205 H1189 0.930 . S
C1205 C1204 1.377 . S
C1205 C1206 1.379 . S
C1206 H1190 0.931 . S
C1206 C1200 1.383 . S
C1206 C1205 1.379 . S
H1207 C1201 0.959 . S
H1208 C1201 0.961 . S
H1209 C1201 0.960 . S
H1210 C1202 0.930 . S
H1211 C1203 0.929 . S
H1212 C1220 0.929 . S
H1213 C1222 0.930 . S
H1214 C1224 0.930 . S
H1215 C1227 0.929 . S
H1216 C1230 0.930 . S
H1217 C1232 0.960 . S
H1218 C1232 0.960 . S
H1219 C1232 0.960 . S
C1220 H1212 0.929 . S
C1220 C1221 1.377 . S
C1220 C1222 1.384 . S
C1221 C1220 1.377 . S
C1221 C1227 1.390 . S
C1222 H1213 0.930 . S
C1222 C1220 1.384 . S
C1222 C1223 1.372 . S
C1223 C1222 1.372 . S
C1223 C1224 1.400 . S
C1223 C1228 1.490 . S
C1224 H1214 0.930 . S
C1224 C1223 1.400 . S
C1224 C1227 1.386 . S
H1225 C1241 0.930 . S
H1226 C1242 0.931 . S
C1227 H1215 0.929 . S
C1227 C1221 1.390 . S
C1227 C1224 1.386 . S
C1228 C1223 1.490 . S
C1228 C1230 1.395 . S
C1228 C1231 1.403 . S
H1229 C1235 0.930 . S
C1230 H1216 0.930 . S
C1230 C1228 1.395 . S
C1230 C1233 1.403 . S
C1231 C1228 1.403 . S
C1231 C1232 1.524 . S
C1231 C1235 1.400 . S
C1232 H1217 0.960 . S
C1232 H1218 0.960 . S
C1232 H1219 0.960 . S
C1232 C1231 1.524 . S
C1233 C1230 1.403 . S
C1233 C1234 1.392 . S
C1233 C1237 1.495 . S
C1234 C1233 1.392 . S
C1234 C1235 1.385 . S
C1234 C1236 1.478 . S
C1235 H1229 0.930 . S
C1235 C1231 1.400 . S
C1235 C1234 1.385 . S
C1236 C1234 1.478 . S
C1236 C1238 1.381 . S
C1236 C1242 1.383 . S
C1237 C1233 1.495 . S
C1237 H1243 0.959 . S
C1237 H1244 0.961 . S
C1237 H1245 0.960 . S
C1238 C1236 1.381 . S
C1238 C1239 1.394 . S
C1238 H1246 0.930 . S
C1239 C1238 1.394 . S
C1239 C1240 1.383 . S
C1239 H1247 0.929 . S
C1240 C1239 1.383 . S
C1240 C1241 1.377 . S
C1241 H1225 0.930 . S
C1241 C1240 1.377 . S
C1241 C1242 1.379 . S
C1242 H1226 0.931 . S
C1242 C1236 1.383 . S
C1242 C1241 1.379 . S
H1243 C1237 0.959 . S
H1244 C1237 0.961 . S
H1245 C1237 0.960 . S
H1246 C1238 0.930 . S
H1247 C1239 0.929 . S
H1248 C1256 0.929 . S
H1249 C1258 0.930 . S
H1250 C1260 0.930 . S
H1251 C1263 0.929 . S
H1252 C1266 0.930 . S
H1253 C1268 0.960 . S
H1254 C1268 0.960 . S
H1255 C1268 0.960 . S
C1256 H1248 0.929 . S
C1256 C1257 1.377 . S
C1256 C1258 1.384 . S
C1257 C1256 1.377 . S
C1257 C1263 1.390 . S
C1258 H1249 0.930 . S
C1258 C1256 1.384 . S
C1258 C1259 1.372 . S
C1259 C1258 1.372 . S
C1259 C1260 1.400 . S
C1259 C1264 1.490 . S
C1260 H1250 0.930 . S
C1260 C1259 1.400 . S
C1260 C1263 1.386 . S
H1261 C1277 0.930 . S
H1262 C1278 0.931 . S
C1263 H1251 0.929 . S
C1263 C1257 1.390 . S
C1263 C1260 1.386 . S
C1264 C1259 1.490 . S
C1264 C1266 1.395 . S
C1264 C1267 1.403 . S
H1265 C1271 0.930 . S
C1266 H1252 0.930 . S
C1266 C1264 1.395 . S
C1266 C1269 1.403 . S
C1267 C1264 1.403 . S
C1267 C1268 1.524 . S
C1267 C1271 1.400 . S
C1268 H1253 0.960 . S
C1268 H1254 0.960 . S
C1268 H1255 0.960 . S
C1268 C1267 1.524 . S
C1269 C1266 1.403 . S
C1269 C1270 1.392 . S
C1269 C1273 1.495 . S
C1270 C1269 1.392 . S
C1270 C1271 1.385 . S
C1270 C1272 1.478 . S
C1271 H1265 0.930 . S
C1271 C1267 1.400 . S
C1271 C1270 1.385 . S
C1272 C1270 1.478 . S
C1272 C1274 1.381 . S
C1272 C1278 1.383 . S
C1273 C1269 1.495 . S
C1273 H1279 0.959 . S
C1273 H1280 0.961 . S
C1273 H1281 0.960 . S
C1274 C1272 1.381 . S
C1274 C1275 1.394 . S
C1274 H1282 0.930 . S
C1275 C1274 1.394 . S
C1275 C1276 1.383 . S
C1275 H1283 0.929 . S
C1276 C1275 1.383 . S
C1276 C1277 1.377 . S
C1277 H1261 0.930 . S
C1277 C1276 1.377 . S
C1277 C1278 1.379 . S
C1278 H1262 0.931 . S
C1278 C1272 1.383 . S
C1278 C1277 1.379 . S
H1279 C1273 0.959 . S
H1280 C1273 0.961 . S
H1281 C1273 0.960 . S
H1282 C1274 0.930 . S
H1283 C1275 0.929 . S
H1284 C1292 0.929 . S
H1285 C1294 0.930 . S
H1286 C1296 0.930 . S
H1287 C1299 0.929 . S
H1288 C1302 0.930 . S
H1289 C1304 0.960 . S
H1290 C1304 0.960 . S
H1291 C1304 0.960 . S
C1292 H1284 0.929 . S
C1292 C1293 1.377 . S
C1292 C1294 1.384 . S
C1293 C1292 1.377 . S
C1293 C1299 1.390 . S
C1294 H1285 0.930 . S
C1294 C1292 1.384 . S
C1294 C1295 1.372 . S
C1295 C1294 1.372 . S
C1295 C1296 1.400 . S
C1295 C1300 1.490 . S
C1296 H1286 0.930 . S
C1296 C1295 1.400 . S
C1296 C1299 1.386 . S
H1297 C1313 0.930 . S
H1298 C1314 0.931 . S
C1299 H1287 0.929 . S
C1299 C1293 1.390 . S
C1299 C1296 1.386 . S
C1300 C1295 1.490 . S
C1300 C1302 1.395 . S
C1300 C1303 1.403 . S
H1301 C1307 0.930 . S
C1302 H1288 0.930 . S
C1302 C1300 1.395 . S
C1302 C1305 1.403 . S
C1303 C1300 1.403 . S
C1303 C1304 1.524 . S
C1303 C1307 1.400 . S
C1304 H1289 0.960 . S
C1304 H1290 0.960 . S
C1304 H1291 0.960 . S
C1304 C1303 1.524 . S
C1305 C1302 1.403 . S
C1305 C1306 1.392 . S
C1305 C1309 1.495 . S
C1306 C1305 1.392 . S
C1306 C1307 1.385 . S
C1306 C1308 1.478 . S
C1307 H1301 0.930 . S
C1307 C1303 1.400 . S
C1307 C1306 1.385 . S
C1308 C1306 1.478 . S
C1308 C1310 1.381 . S
C1308 C1314 1.383 . S
C1309 C1305 1.495 . S
C1309 H1315 0.959 . S
C1309 H1316 0.961 . S
C1309 H1317 0.960 . S
C1310 C1308 1.381 . S
C1310 C1311 1.394 . S
C1310 H1318 0.930 . S
C1311 C1310 1.394 . S
C1311 C1312 1.383 . S
C1311 H1319 0.929 . S
C1312 C1311 1.383 . S
C1312 C1313 1.377 . S
C1313 H1297 0.930 . S
C1313 C1312 1.377 . S
C1313 C1314 1.379 . S
C1314 H1298 0.931 . S
C1314 C1308 1.383 . S
C1314 C1313 1.379 . S
H1315 C1309 0.959 . S
H1316 C1309 0.961 . S
H1317 C1309 0.960 . S
H1318 C1310 0.930 . S
H1319 C1311 0.929 . S
H1320 C1328 0.929 . S
H1321 C1330 0.930 . S
H1322 C1332 0.930 . S
H1323 C1335 0.929 . S
H1324 C1338 0.930 . S
H1325 C1340 0.960 . S
H1326 C1340 0.960 . S
H1327 C1340 0.960 . S
C1328 H1320 0.929 . S
C1328 C1329 1.377 . S
C1328 C1330 1.384 . S
C1329 C1328 1.377 . S
C1329 C1335 1.390 . S
C1330 H1321 0.930 . S
C1330 C1328 1.384 . S
C1330 C1331 1.372 . S
C1331 C1330 1.372 . S
C1331 C1332 1.400 . S
C1331 C1336 1.490 . S
C1332 H1322 0.930 . S
C1332 C1331 1.400 . S
C1332 C1335 1.386 . S
H1333 C1349 0.930 . S
H1334 C1350 0.931 . S
C1335 H1323 0.929 . S
C1335 C1329 1.390 . S
C1335 C1332 1.386 . S
C1336 C1331 1.490 . S
C1336 C1338 1.395 . S
C1336 C1339 1.403 . S
H1337 C1343 0.930 . S
C1338 H1324 0.930 . S
C1338 C1336 1.395 . S
C1338 C1341 1.403 . S
C1339 C1336 1.403 . S
C1339 C1340 1.524 . S
C1339 C1343 1.400 . S
C1340 H1325 0.960 . S
C1340 H1326 0.960 . S
C1340 H1327 0.960 . S
C1340 C1339 1.524 . S
C1341 C1338 1.403 . S
C1341 C1342 1.392 . S
C1341 C1345 1.495 . S
C1342 C1341 1.392 . S
C1342 C1343 1.385 . S
C1342 C1344 1.478 . S
C1343 H1337 0.930 . S
C1343 C1339 1.400 . S
C1343 C1342 1.385 . S
C1344 C1342 1.478 . S
C1344 C1346 1.381 . S
C1344 C1350 1.383 . S
C1345 C1341 1.495 . S
C1345 H1351 0.959 . S
C1345 H1352 0.961 . S
C1345 H1353 0.960 . S
C1346 C1344 1.381 . S
C1346 C1347 1.394 . S
C1346 H1354 0.930 . S
C1347 C1346 1.394 . S
C1347 C1348 1.383 . S
C1347 H1355 0.929 . S
C1348 C1347 1.383 . S
C1348 C1349 1.377 . S
C1349 H1333 0.930 . S
C1349 C1348 1.377 . S
C1349 C1350 1.379 . S
C1350 H1334 0.931 . S
C1350 C1344 1.383 . S
C1350 C1349 1.379 . S
H1351 C1345 0.959 . S
H1352 C1345 0.961 . S
H1353 C1345 0.960 . S
H1354 C1346 0.930 . S
H1355 C1347 0.929 . S
H1356 C1364 0.929 . S
H1357 C1366 0.930 . S
H1358 C1368 0.930 . S
H1359 C1371 0.929 . S
H1360 C1374 0.930 . S
H1361 C1376 0.960 . S
H1362 C1376 0.960 . S
H1363 C1376 0.960 . S
C1364 H1356 0.929 . S
C1364 C1365 1.377 . S
C1364 C1366 1.384 . S
C1365 C1364 1.377 . S
C1365 C1371 1.390 . S
C1366 H1357 0.930 . S
C1366 C1364 1.384 . S
C1366 C1367 1.372 . S
C1367 C1366 1.372 . S
C1367 C1368 1.400 . S
C1367 C1372 1.490 . S
C1368 H1358 0.930 . S
C1368 C1367 1.400 . S
C1368 C1371 1.386 . S
H1369 C1385 0.930 . S
H1370 C1386 0.931 . S
C1371 H1359 0.929 . S
C1371 C1365 1.390 . S
C1371 C1368 1.386 . S
C1372 C1367 1.490 . S
C1372 C1374 1.395 . S
C1372 C1375 1.403 . S
H1373 C1379 0.930 . S
C1374 H1360 0.930 . S
C1374 C1372 1.395 . S
C1374 C1377 1.403 . S
C1375 C1372 1.403 . S
C1375 C1376 1.524 . S
C1375 C1379 1.400 . S
C1376 H1361 0.960 . S
C1376 H1362 0.960 . S
C1376 H1363 0.960 . S
C1376 C1375 1.524 . S
C1377 C1374 1.403 . S
C1377 C1378 1.392 . S
C1377 C1381 1.495 . S
C1378 C1377 1.392 . S
C1378 C1379 1.385 . S
C1378 C1380 1.478 . S
C1379 H1373 0.930 . S
C1379 C1375 1.400 . S
C1379 C1378 1.385 . S
C1380 C1378 1.478 . S
C1380 C1382 1.381 . S
C1380 C1386 1.383 . S
C1381 C1377 1.495 . S
C1381 H1387 0.959 . S
C1381 H1388 0.961 . S
C1381 H1389 0.960 . S
C1382 C1380 1.381 . S
C1382 C1383 1.394 . S
C1382 H1390 0.930 . S
C1383 C1382 1.394 . S
C1383 C1384 1.383 . S
C1383 H1391 0.929 . S
C1384 C1383 1.383 . S
C1384 C1385 1.377 . S
C1385 H1369 0.930 . S
C1385 C1384 1.377 . S
C1385 C1386 1.379 . S
C1386 H1370 0.931 . S
C1386 C1380 1.383 . S
C1386 C1385 1.379 . S
H1387 C1381 0.959 . S
H1388 C1381 0.961 . S
H1389 C1381 0.960 . S
H1390 C1382 0.930 . S
H1391 C1383 0.929 . S
H1392 C1400 0.929 . S
H1393 C1402 0.930 . S
H1394 C1404 0.930 . S
H1395 C1407 0.929 . S
H1396 C1410 0.930 . S
H1397 C1412 0.960 . S
H1398 C1412 0.960 . S
H1399 C1412 0.960 . S
C1400 H1392 0.929 . S
C1400 C1401 1.377 . S
C1400 C1402 1.384 . S
C1401 C1400 1.377 . S
C1401 C1407 1.390 . S
C1402 H1393 0.930 . S
C1402 C1400 1.384 . S
C1402 C1403 1.372 . S
C1403 C1402 1.372 . S
C1403 C1404 1.400 . S
C1403 C1408 1.490 . S
C1404 H1394 0.930 . S
C1404 C1403 1.400 . S
C1404 C1407 1.386 . S
H1405 C1421 0.930 . S
H1406 C1422 0.931 . S
C1407 H1395 0.929 . S
C1407 C1401 1.390 . S
C1407 C1404 1.386 . S
C1408 C1403 1.490 . S
C1408 C1410 1.395 . S
C1408 C1411 1.403 . S
H1409 C1415 0.930 . S
C1410 H1396 0.930 . S
C1410 C1408 1.395 . S
C1410 C1413 1.403 . S
C1411 C1408 1.403 . S
C1411 C1412 1.524 . S
C1411 C1415 1.400 . S
C1412 H1397 0.960 . S
C1412 H1398 0.960 . S
C1412 H1399 0.960 . S
C1412 C1411 1.524 . S
C1413 C1410 1.403 . S
C1413 C1414 1.392 . S
C1413 C1417 1.495 . S
C1414 C1413 1.392 . S
C1414 C1415 1.385 . S
C1414 C1416 1.478 . S
C1415 H1409 0.930 . S
C1415 C1411 1.400 . S
C1415 C1414 1.385 . S
C1416 C1414 1.478 . S
C1416 C1418 1.381 . S
C1416 C1422 1.383 . S
C1417 C1413 1.495 . S
C1417 H1423 0.959 . S
C1417 H1424 0.961 . S
C1417 H1425 0.960 . S
C1418 C1416 1.381 . S
C1418 C1419 1.394 . S
C1418 H1426 0.930 . S
C1419 C1418 1.394 . S
C1419 C1420 1.383 . S
C1419 H1427 0.929 . S
C1420 C1419 1.383 . S
C1420 C1421 1.377 . S
C1421 H1405 0.930 . S
C1421 C1420 1.377 . S
C1421 C1422 1.379 . S
C1422 H1406 0.931 . S
C1422 C1416 1.383 . S
C1422 C1421 1.379 . S
H1423 C1417 0.959 . S
H1424 C1417 0.961 . S
H1425 C1417 0.960 . S
H1426 C1418 0.930 . S
H1427 C1419 0.929 . S
H1428 C1436 0.929 . S
H1429 C1438 0.930 . S
H1430 C1440 0.930 . S
H1431 C1443 0.929 . S
H1432 C1446 0.930 . S
H1433 C1448 0.960 . S
H1434 C1448 0.960 . S
H1435 C1448 0.960 . S
C1436 H1428 0.929 . S
C1436 C1437 1.377 . S
C1436 C1438 1.384 . S
C1437 C1436 1.377 . S
C1437 C1443 1.390 . S
C1438 H1429 0.930 . S
C1438 C1436 1.384 . S
C1438 C1439 1.372 . S
C1439 C1438 1.372 . S
C1439 C1440 1.400 . S
C1439 C1444 1.490 . S
C1440 H1430 0.930 . S
C1440 C1439 1.400 . S
C1440 C1443 1.386 . S
H1441 C1457 0.930 . S
H1442 C1458 0.931 . S
C1443 H1431 0.929 . S
C1443 C1437 1.390 . S
C1443 C1440 1.386 . S
C1444 C1439 1.490 . S
C1444 C1446 1.395 . S
C1444 C1447 1.403 . S
H1445 C1451 0.930 . S
C1446 H1432 0.930 . S
C1446 C1444 1.395 . S
C1446 C1449 1.403 . S
C1447 C1444 1.403 . S
C1447 C1448 1.524 . S
C1447 C1451 1.400 . S
C1448 H1433 0.960 . S
C1448 H1434 0.960 . S
C1448 H1435 0.960 . S
C1448 C1447 1.524 . S
C1449 C1446 1.403 . S
C1449 C1450 1.392 . S
C1449 C1453 1.495 . S
C1450 C1449 1.392 . S
C1450 C1451 1.385 . S
C1450 C1452 1.478 . S
C1451 H1445 0.930 . S
C1451 C1447 1.400 . S
C1451 C1450 1.385 . S
C1452 C1450 1.478 . S
C1452 C1454 1.381 . S
C1452 C1458 1.383 . S
C1453 C1449 1.495 . S
C1453 H1459 0.959 . S
C1453 H1460 0.961 . S
C1453 H1461 0.960 . S
C1454 C1452 1.381 . S
C1454 C1455 1.394 . S
C1454 H1462 0.930 . S
C1455 C1454 1.394 . S
C1455 C1456 1.383 . S
C1455 H1463 0.929 . S
C1456 C1455 1.383 . S
C1456 C1457 1.377 . S
C1457 H1441 0.930 . S
C1457 C1456 1.377 . S
C1457 C1458 1.379 . S
C1458 H1442 0.931 . S
C1458 C1452 1.383 . S
C1458 C1457 1.379 . S
H1459 C1453 0.959 . S
H1460 C1453 0.961 . S
H1461 C1453 0.960 . S
H1462 C1454 0.930 . S
H1463 C1455 0.929 . S
H1464 C1472 0.929 . S
H1465 C1474 0.930 . S
H1466 C1476 0.930 . S
H1467 C1479 0.929 . S
H1468 C1482 0.930 . S
H1469 C1484 0.960 . S
H1470 C1484 0.960 . S
H1471 C1484 0.960 . S
C1472 H1464 0.929 . S
C1472 C1473 1.377 . S
C1472 C1474 1.384 . S
C1473 C1472 1.377 . S
C1473 C1479 1.390 . S
C1474 H1465 0.930 . S
C1474 C1472 1.384 . S
C1474 C1475 1.372 . S
C1475 C1474 1.372 . S
C1475 C1476 1.400 . S
C1475 C1480 1.490 . S
C1476 H1466 0.930 . S
C1476 C1475 1.400 . S
C1476 C1479 1.386 . S
H1477 C1493 0.930 . S
H1478 C1494 0.931 . S
C1479 H1467 0.929 . S
C1479 C1473 1.390 . S
C1479 C1476 1.386 . S
C1480 C1475 1.490 . S
C1480 C1482 1.395 . S
C1480 C1483 1.403 . S
H1481 C1487 0.930 . S
C1482 H1468 0.930 . S
C1482 C1480 1.395 . S
C1482 C1485 1.403 . S
C1483 C1480 1.403 . S
C1483 C1484 1.524 . S
C1483 C1487 1.400 . S
C1484 H1469 0.960 . S
C1484 H1470 0.960 . S
C1484 H1471 0.960 . S
C1484 C1483 1.524 . S
C1485 C1482 1.403 . S
C1485 C1486 1.392 . S
C1485 C1489 1.495 . S
C1486 C1485 1.392 . S
C1486 C1487 1.385 . S
C1486 C1488 1.478 . S
C1487 H1481 0.930 . S
C1487 C1483 1.400 . S
C1487 C1486 1.385 . S
C1488 C1486 1.478 . S
C1488 C1490 1.381 . S
C1488 C1494 1.383 . S
C1489 C1485 1.495 . S
C1489 H1495 0.959 . S
C1489 H1496 0.961 . S
C1489 H1497 0.960 . S
C1490 C1488 1.381 . S
C1490 C1491 1.394 . S
C1490 H1498 0.930 . S
C1491 C1490 1.394 . S
C1491 C1492 1.383 . S
C1491 H1499 0.929 . S
C1492 C1491 1.383 . S
C1492 C1493 1.377 . S
C1493 H1477 0.930 . S
C1493 C1492 1.377 . S
C1493 C1494 1.379 . S
C1494 H1478 0.931 . S
C1494 C1488 1.383 . S
C1494 C1493 1.379 . S
H1495 C1489 0.959 . S
H1496 C1489 0.961 . S
H1497 C1489 0.960 . S
H1498 C1490 0.930 . S
H1499 C1491 0.929 . S
H1500 C1508 0.929 . S
H1501 C1510 0.930 . S
H1502 C1512 0.930 . S
H1503 C1515 0.929 . S
H1504 C1518 0.930 . S
H1505 C1520 0.960 1_655 S
H1506 C1520 0.960 . S
H1507 C1520 0.960 . S
C1508 H1500 0.929 . S
C1508 C1509 1.377 . S
C1508 C1510 1.384 . S
C1509 C1508 1.377 . S
C1509 C1515 1.390 . S
C1510 H1501 0.930 . S
C1510 C1508 1.384 . S
C1510 C1511 1.372 . S
C1511 C1510 1.372 . S
C1511 C1512 1.400 . S
C1511 C1516 1.490 . S
C1512 H1502 0.930 . S
C1512 C1511 1.400 . S
C1512 C1515 1.386 . S
H1513 C1529 0.930 . S
H1514 C1530 0.931 . S
C1515 H1503 0.929 . S
C1515 C1509 1.390 . S
C1515 C1512 1.386 . S
C1516 C1511 1.490 . S
C1516 C1518 1.395 . S
C1516 C1519 1.403 . S
H1517 C1523 0.930 . S
C1518 H1504 0.930 . S
C1518 C1516 1.395 . S
C1518 C1521 1.403 . S
C1519 C1516 1.403 . S
C1519 C1520 1.524 . S
C1519 C1523 1.400 . S
C1520 H1505 0.960 1_455 S
C1520 H1506 0.960 . S
C1520 H1507 0.960 . S
C1520 C1519 1.524 . S
C1521 C1518 1.403 . S
C1521 C1522 1.392 . S
C1521 C1525 1.495 . S
C1522 C1521 1.392 . S
C1522 C1523 1.385 . S
C1522 C1524 1.478 . S
C1523 H1517 0.930 . S
C1523 C1519 1.400 . S
C1523 C1522 1.385 . S
C1524 C1522 1.478 . S
C1524 C1526 1.381 . S
C1524 C1530 1.383 . S
C1525 C1521 1.495 . S
C1525 H1531 0.959 . S
C1525 H1532 0.961 . S
C1525 H1533 0.960 . S
C1526 C1524 1.381 . S
C1526 C1527 1.394 . S
C1526 H1534 0.930 . S
C1527 C1526 1.394 . S
C1527 C1528 1.383 . S
C1527 H1535 0.929 . S
C1528 C1527 1.383 . S
C1528 C1529 1.377 . S
C1529 H1513 0.930 . S
C1529 C1528 1.377 . S
C1529 C1530 1.379 . S
C1530 H1514 0.931 . S
C1530 C1524 1.383 . S
C1530 C1529 1.379 . S
H1531 C1525 0.959 . S
H1532 C1525 0.961 . S
H1533 C1525 0.960 . S
H1534 C1526 0.930 . S
H1535 C1527 0.929 . S
H1536 C1544 0.929 . S
H1537 C1546 0.930 . S
H1538 C1548 0.930 . S
H1539 C1551 0.929 . S
H1540 C1554 0.930 . S
H1541 C1556 0.960 . S
H1542 C1556 0.960 . S
H1543 C1556 0.960 . S
C1544 H1536 0.929 . S
C1544 C1545 1.377 . S
C1544 C1546 1.384 . S
C1545 C1544 1.377 . S
C1545 C1551 1.390 . S
C1546 H1537 0.930 . S
C1546 C1544 1.384 . S
C1546 C1547 1.372 . S
C1547 C1546 1.372 . S
C1547 C1548 1.400 . S
C1547 C1552 1.490 . S
C1548 H1538 0.930 . S
C1548 C1547 1.400 . S
C1548 C1551 1.386 . S
H1549 C1565 0.930 . S
H1550 C1566 0.931 . S
C1551 H1539 0.929 . S
C1551 C1545 1.390 . S
C1551 C1548 1.386 . S
C1552 C1547 1.490 . S
C1552 C1554 1.395 . S
C1552 C1555 1.403 . S
H1553 C1559 0.930 . S
C1554 H1540 0.930 . S
C1554 C1552 1.395 . S
C1554 C1557 1.403 . S
C1555 C1552 1.403 . S
C1555 C1556 1.524 . S
C1555 C1559 1.400 . S
C1556 H1541 0.960 . S
C1556 H1542 0.960 . S
C1556 H1543 0.960 . S
C1556 C1555 1.524 . S
C1557 C1554 1.403 . S
C1557 C1558 1.392 . S
C1557 C1561 1.495 . S
C1558 C1557 1.392 . S
C1558 C1559 1.385 . S
C1558 C1560 1.478 . S
C1559 H1553 0.930 . S
C1559 C1555 1.400 . S
C1559 C1558 1.385 . S
C1560 C1558 1.478 . S
C1560 C1562 1.381 . S
C1560 C1566 1.383 . S
C1561 C1557 1.495 . S
C1561 H1567 0.959 . S
C1561 H1568 0.961 . S
C1561 H1569 0.960 . S
C1562 C1560 1.381 . S
C1562 C1563 1.394 . S
C1562 H1570 0.930 . S
C1563 C1562 1.394 . S
C1563 C1564 1.383 . S
C1563 H1571 0.929 . S
C1564 C1563 1.383 . S
C1564 C1565 1.377 . S
C1565 H1549 0.930 . S
C1565 C1564 1.377 . S
C1565 C1566 1.379 . S
C1566 H1550 0.931 . S
C1566 C1560 1.383 . S
C1566 C1565 1.379 . S
H1567 C1561 0.959 . S
H1568 C1561 0.961 . S
H1569 C1561 0.960 . S
H1570 C1562 0.930 . S
H1571 C1563 0.929 . S
H1572 C1580 0.929 . S
H1573 C1582 0.930 . S
H1574 C1584 0.930 . S
H1575 C1587 0.929 . S
H1576 C1590 0.930 . S
H1577 C1592 0.960 1_655 S
H1578 C1592 0.960 . S
H1579 C1592 0.960 . S
C1580 H1572 0.929 . S
C1580 C1581 1.377 . S
C1580 C1582 1.384 . S
C1581 C1580 1.377 . S
C1581 C1587 1.390 . S
C1582 H1573 0.930 . S
C1582 C1580 1.384 . S
C1582 C1583 1.372 . S
C1583 C1582 1.372 . S
C1583 C1584 1.400 . S
C1583 C1588 1.490 . S
C1584 H1574 0.930 . S
C1584 C1583 1.400 . S
C1584 C1587 1.386 . S
H1585 C1601 0.930 . S
H1586 C1602 0.931 . S
C1587 H1575 0.929 . S
C1587 C1581 1.390 . S
C1587 C1584 1.386 . S
C1588 C1583 1.490 . S
C1588 C1590 1.395 . S
C1588 C1591 1.403 . S
H1589 C1595 0.930 . S
C1590 H1576 0.930 . S
C1590 C1588 1.395 . S
C1590 C1593 1.403 . S
C1591 C1588 1.403 . S
C1591 C1592 1.524 . S
C1591 C1595 1.400 . S
C1592 H1577 0.960 1_455 S
C1592 H1578 0.960 . S
C1592 H1579 0.960 . S
C1592 C1591 1.524 . S
C1593 C1590 1.403 . S
C1593 C1594 1.392 . S
C1593 C1597 1.495 . S
C1594 C1593 1.392 . S
C1594 C1595 1.385 . S
C1594 C1596 1.478 . S
C1595 H1589 0.930 . S
C1595 C1591 1.400 . S
C1595 C1594 1.385 . S
C1596 C1594 1.478 . S
C1596 C1598 1.381 . S
C1596 C1602 1.383 . S
C1597 C1593 1.495 . S
C1597 H1603 0.959 . S
C1597 H1604 0.961 . S
C1597 H1605 0.960 . S
C1598 C1596 1.381 . S
C1598 C1599 1.394 . S
C1598 H1606 0.930 . S
C1599 C1598 1.394 . S
C1599 C1600 1.383 . S
C1599 H1607 0.929 . S
C1600 C1599 1.383 . S
C1600 C1601 1.377 . S
C1601 H1585 0.930 . S
C1601 C1600 1.377 . S
C1601 C1602 1.379 . S
C1602 H1586 0.931 . S
C1602 C1596 1.383 . S
C1602 C1601 1.379 . S
H1603 C1597 0.959 . S
H1604 C1597 0.961 . S
H1605 C1597 0.960 . S
H1606 C1598 0.930 . S
H1607 C1599 0.929 . S
H1608 C1616 0.929 . S
H1609 C1618 0.930 . S
H1610 C1620 0.930 . S
H1611 C1623 0.929 . S
H1612 C1626 0.930 . S
H1613 C1628 0.960 . S
H1614 C1628 0.960 . S
H1615 C1628 0.960 . S
C1616 H1608 0.929 . S
C1616 C1617 1.377 . S
C1616 C1618 1.384 . S
C1617 C1616 1.377 . S
C1617 C1623 1.390 . S
C1618 H1609 0.930 . S
C1618 C1616 1.384 . S
C1618 C1619 1.372 . S
C1619 C1618 1.372 . S
C1619 C1620 1.400 . S
C1619 C1624 1.490 . S
C1620 H1610 0.930 . S
C1620 C1619 1.400 . S
C1620 C1623 1.386 . S
H1621 C1637 0.930 . S
H1622 C1638 0.931 . S
C1623 H1611 0.929 . S
C1623 C1617 1.390 . S
C1623 C1620 1.386 . S
C1624 C1619 1.490 . S
C1624 C1626 1.395 . S
C1624 C1627 1.403 . S
H1625 C1631 0.930 . S
C1626 H1612 0.930 . S
C1626 C1624 1.395 . S
C1626 C1629 1.403 . S
C1627 C1624 1.403 . S
C1627 C1628 1.524 . S
C1627 C1631 1.400 . S
C1628 H1613 0.960 . S
C1628 H1614 0.960 . S
C1628 H1615 0.960 . S
C1628 C1627 1.524 . S
C1629 C1626 1.403 . S
C1629 C1630 1.392 . S
C1629 C1633 1.495 . S
C1630 C1629 1.392 . S
C1630 C1631 1.385 . S
C1630 C1632 1.478 . S
C1631 H1625 0.930 . S
C1631 C1627 1.400 . S
C1631 C1630 1.385 . S
C1632 C1630 1.478 . S
C1632 C1634 1.381 . S
C1632 C1638 1.383 . S
C1633 C1629 1.495 . S
C1633 H1639 0.959 . S
C1633 H1640 0.961 . S
C1633 H1641 0.960 . S
C1634 C1632 1.381 . S
C1634 C1635 1.394 . S
C1634 H1642 0.930 . S
C1635 C1634 1.394 . S
C1635 C1636 1.383 . S
C1635 H1643 0.929 . S
C1636 C1635 1.383 . S
C1636 C1637 1.377 . S
C1637 H1621 0.930 . S
C1637 C1636 1.377 . S
C1637 C1638 1.379 . S
C1638 H1622 0.931 . S
C1638 C1632 1.383 . S
C1638 C1637 1.379 . S
H1639 C1633 0.959 . S
H1640 C1633 0.961 . S
H1641 C1633 0.960 . S
H1642 C1634 0.930 . S
H1643 C1635 0.929 . S
H1644 C1652 0.929 . S
H1645 C1654 0.930 . S
H1646 C1656 0.930 . S
H1647 C1659 0.929 . S
H1648 C1662 0.930 . S
H1649 C1664 0.960 . S
H1650 C1664 0.960 . S
H1651 C1664 0.960 . S
C1652 H1644 0.929 . S
C1652 C1653 1.377 . S
C1652 C1654 1.384 . S
C1653 C1652 1.377 . S
C1653 C1659 1.390 . S
C1654 H1645 0.930 . S
C1654 C1652 1.384 . S
C1654 C1655 1.372 . S
C1655 C1654 1.372 . S
C1655 C1656 1.400 . S
C1655 C1660 1.490 . S
C1656 H1646 0.930 . S
C1656 C1655 1.400 . S
C1656 C1659 1.386 . S
H1657 C1673 0.930 . S
H1658 C1674 0.931 . S
C1659 H1647 0.929 . S
C1659 C1653 1.390 . S
C1659 C1656 1.386 . S
C1660 C1655 1.490 . S
C1660 C1662 1.395 . S
C1660 C1663 1.403 . S
H1661 C1667 0.930 . S
C1662 H1648 0.930 . S
C1662 C1660 1.395 . S
C1662 C1665 1.403 . S
C1663 C1660 1.403 . S
C1663 C1664 1.524 . S
C1663 C1667 1.400 . S
C1664 H1649 0.960 . S
C1664 H1650 0.960 . S
C1664 H1651 0.960 . S
C1664 C1663 1.524 . S
C1665 C1662 1.403 . S
C1665 C1666 1.392 . S
C1665 C1669 1.495 . S
C1666 C1665 1.392 . S
C1666 C1667 1.385 . S
C1666 C1668 1.478 . S
C1667 H1661 0.930 . S
C1667 C1663 1.400 . S
C1667 C1666 1.385 . S
C1668 C1666 1.478 . S
C1668 C1670 1.381 . S
C1668 C1674 1.383 . S
C1669 C1665 1.495 . S
C1669 H1675 0.959 . S
C1669 H1676 0.961 . S
C1669 H1677 0.960 . S
C1670 C1668 1.381 . S
C1670 C1671 1.394 . S
C1670 H1678 0.930 . S
C1671 C1670 1.394 . S
C1671 C1672 1.383 . S
C1671 H1679 0.929 . S
C1672 C1671 1.383 . S
C1672 C1673 1.377 . S
C1673 H1657 0.930 . S
C1673 C1672 1.377 . S
C1673 C1674 1.379 . S
C1674 H1658 0.931 . S
C1674 C1668 1.383 . S
C1674 C1673 1.379 . S
H1675 C1669 0.959 . S
H1676 C1669 0.961 . S
H1677 C1669 0.960 . S
H1678 C1670 0.930 . S
H1679 C1671 0.929 . S
H1680 C1688 0.929 . S
H1681 C1690 0.930 . S
H1682 C1692 0.930 . S
H1683 C1695 0.929 . S
H1684 C1698 0.930 . S
H1685 C1700 0.960 . S
H1686 C1700 0.960 . S
H1687 C1700 0.960 . S
C1688 H1680 0.929 . S
C1688 C1689 1.377 . S
C1688 C1690 1.384 . S
C1689 C1688 1.377 . S
C1689 C1695 1.390 . S
C1690 H1681 0.930 . S
C1690 C1688 1.384 . S
C1690 C1691 1.372 . S
C1691 C1690 1.372 . S
C1691 C1692 1.400 . S
C1691 C1696 1.490 . S
C1692 H1682 0.930 . S
C1692 C1691 1.400 . S
C1692 C1695 1.386 . S
H1693 C1709 0.930 . S
H1694 C1710 0.931 . S
C1695 H1683 0.929 . S
C1695 C1689 1.390 . S
C1695 C1692 1.386 . S
C1696 C1691 1.490 . S
C1696 C1698 1.395 . S
C1696 C1699 1.403 . S
H1697 C1703 0.930 . S
C1698 H1684 0.930 . S
C1698 C1696 1.395 . S
C1698 C1701 1.403 . S
C1699 C1696 1.403 . S
C1699 C1700 1.524 . S
C1699 C1703 1.400 . S
C1700 H1685 0.960 . S
C1700 H1686 0.960 . S
C1700 H1687 0.960 . S
C1700 C1699 1.524 . S
C1701 C1698 1.403 . S
C1701 C1702 1.392 . S
C1701 C1705 1.495 . S
C1702 C1701 1.392 . S
C1702 C1703 1.385 . S
C1702 C1704 1.478 . S
C1703 H1697 0.930 . S
C1703 C1699 1.400 . S
C1703 C1702 1.385 . S
C1704 C1702 1.478 . S
C1704 C1706 1.381 . S
C1704 C1710 1.383 . S
C1705 C1701 1.495 . S
C1705 H1711 0.959 1_565 S
C1705 H1712 0.961 1_565 S
C1705 H1713 0.960 . S
C1706 C1704 1.381 . S
C1706 C1707 1.394 . S
C1706 H1714 0.930 . S
C1707 C1706 1.394 . S
C1707 C1708 1.383 . S
C1707 H1715 0.929 . S
C1708 C1707 1.383 . S
C1708 C1709 1.377 . S
C1709 H1693 0.930 . S
C1709 C1708 1.377 . S
C1709 C1710 1.379 . S
C1710 H1694 0.931 . S
C1710 C1704 1.383 . S
C1710 C1709 1.379 . S
H1711 C1705 0.959 1_545 S
H1712 C1705 0.961 1_545 S
H1713 C1705 0.960 . S
H1714 C1706 0.930 . S
H1715 C1707 0.929 . S
H1716 C1724 0.929 . S
H1717 C1726 0.930 . S
H1718 C1728 0.930 . S
H1719 C1731 0.929 . S
H1720 C1734 0.930 . S
H1721 C1736 0.960 . S
H1722 C1736 0.960 . S
H1723 C1736 0.960 . S
C1724 H1716 0.929 . S
C1724 C1725 1.377 . S
C1724 C1726 1.384 . S
C1725 C1724 1.377 . S
C1725 C1731 1.390 . S
C1726 H1717 0.930 . S
C1726 C1724 1.384 . S
C1726 C1727 1.372 . S
C1727 C1726 1.372 . S
C1727 C1728 1.400 . S
C1727 C1732 1.490 . S
C1728 H1718 0.930 . S
C1728 C1727 1.400 . S
C1728 C1731 1.386 . S
H1729 C1745 0.930 . S
H1730 C1746 0.931 . S
C1731 H1719 0.929 . S
C1731 C1725 1.390 . S
C1731 C1728 1.386 . S
C1732 C1727 1.490 . S
C1732 C1734 1.395 . S
C1732 C1735 1.403 . S
H1733 C1739 0.930 . S
C1734 H1720 0.930 . S
C1734 C1732 1.395 . S
C1734 C1737 1.403 . S
C1735 C1732 1.403 . S
C1735 C1736 1.524 . S
C1735 C1739 1.400 . S
C1736 H1721 0.960 . S
C1736 H1722 0.960 . S
C1736 H1723 0.960 . S
C1736 C1735 1.524 . S
C1737 C1734 1.403 . S
C1737 C1738 1.392 . S
C1737 C1741 1.495 . S
C1738 C1737 1.392 . S
C1738 C1739 1.385 . S
C1738 C1740 1.478 . S
C1739 H1733 0.930 . S
C1739 C1735 1.400 . S
C1739 C1738 1.385 . S
C1740 C1738 1.478 . S
C1740 C1742 1.381 . S
C1740 C1746 1.383 . S
C1741 C1737 1.495 . S
C1741 H1747 0.959 . S
C1741 H1748 0.961 . S
C1741 H1749 0.960 . S
C1742 C1740 1.381 . S
C1742 C1743 1.394 . S
C1742 H1750 0.930 . S
C1743 C1742 1.394 . S
C1743 C1744 1.383 . S
C1743 H1751 0.929 . S
C1744 C1743 1.383 . S
C1744 C1745 1.377 . S
C1745 H1729 0.930 . S
C1745 C1744 1.377 . S
C1745 C1746 1.379 . S
C1746 H1730 0.931 . S
C1746 C1740 1.383 . S
C1746 C1745 1.379 . S
H1747 C1741 0.959 . S
H1748 C1741 0.961 . S
H1749 C1741 0.960 . S
H1750 C1742 0.930 . S
H1751 C1743 0.929 . S
H1752 C1760 0.929 . S
H1753 C1762 0.930 . S
H1754 C1764 0.930 . S
H1755 C1767 0.929 . S
H1756 C1770 0.930 . S
H1757 C1772 0.960 . S
H1758 C1772 0.960 . S
H1759 C1772 0.960 . S
C1760 H1752 0.929 . S
C1760 C1761 1.377 . S
C1760 C1762 1.384 . S
C1761 C1760 1.377 . S
C1761 C1767 1.390 . S
C1762 H1753 0.930 . S
C1762 C1760 1.384 . S
C1762 C1763 1.372 . S
C1763 C1762 1.372 . S
C1763 C1764 1.400 . S
C1763 C1768 1.490 . S
C1764 H1754 0.930 . S
C1764 C1763 1.400 . S
C1764 C1767 1.386 . S
H1765 C1781 0.930 . S
H1766 C1782 0.931 . S
C1767 H1755 0.929 . S
C1767 C1761 1.390 . S
C1767 C1764 1.386 . S
C1768 C1763 1.490 . S
C1768 C1770 1.395 . S
C1768 C1771 1.403 . S
H1769 C1775 0.930 . S
C1770 H1756 0.930 . S
C1770 C1768 1.395 . S
C1770 C1773 1.403 . S
C1771 C1768 1.403 . S
C1771 C1772 1.524 . S
C1771 C1775 1.400 . S
C1772 H1757 0.960 . S
C1772 H1758 0.960 . S
C1772 H1759 0.960 . S
C1772 C1771 1.524 . S
C1773 C1770 1.403 . S
C1773 C1774 1.392 . S
C1773 C1777 1.495 . S
C1774 C1773 1.392 . S
C1774 C1775 1.385 . S
C1774 C1776 1.478 . S
C1775 H1769 0.930 . S
C1775 C1771 1.400 . S
C1775 C1774 1.385 . S
C1776 C1774 1.478 . S
C1776 C1778 1.381 . S
C1776 C1782 1.383 . S
C1777 C1773 1.495 . S
C1777 H1783 0.959 . S
C1777 H1784 0.961 . S
C1777 H1785 0.960 . S
C1778 C1776 1.381 . S
C1778 C1779 1.394 . S
C1778 H1786 0.930 . S
C1779 C1778 1.394 . S
C1779 C1780 1.383 . S
C1779 H1787 0.929 . S
C1780 C1779 1.383 . S
C1780 C1781 1.377 . S
C1781 H1765 0.930 . S
C1781 C1780 1.377 . S
C1781 C1782 1.379 . S
C1782 H1766 0.931 . S
C1782 C1776 1.383 . S
C1782 C1781 1.379 . S
H1783 C1777 0.959 . S
H1784 C1777 0.961 . S
H1785 C1777 0.960 . S
H1786 C1778 0.930 . S
H1787 C1779 0.929 . S
H1788 C1796 0.929 . S
H1789 C1798 0.930 . S
H1790 C1800 0.930 . S
H1791 C1803 0.929 . S
H1792 C1806 0.930 . S
H1793 C1808 0.960 . S
H1794 C1808 0.960 . S
H1795 C1808 0.960 . S
C1796 H1788 0.929 . S
C1796 C1797 1.377 . S
C1796 C1798 1.384 . S
C1797 C1796 1.377 . S
C1797 C1803 1.390 . S
C1798 H1789 0.930 . S
C1798 C1796 1.384 . S
C1798 C1799 1.372 . S
C1799 C1798 1.372 . S
C1799 C1800 1.400 . S
C1799 C1804 1.490 . S
C1800 H1790 0.930 . S
C1800 C1799 1.400 . S
C1800 C1803 1.386 . S
H1801 C1817 0.930 . S
H1802 C1818 0.931 . S
C1803 H1791 0.929 . S
C1803 C1797 1.390 . S
C1803 C1800 1.386 . S
C1804 C1799 1.490 . S
C1804 C1806 1.395 . S
C1804 C1807 1.403 . S
H1805 C1811 0.930 . S
C1806 H1792 0.930 . S
C1806 C1804 1.395 . S
C1806 C1809 1.403 . S
C1807 C1804 1.403 . S
C1807 C1808 1.524 . S
C1807 C1811 1.400 . S
C1808 H1793 0.960 . S
C1808 H1794 0.960 . S
C1808 H1795 0.960 . S
C1808 C1807 1.524 . S
C1809 C1806 1.403 . S
C1809 C1810 1.392 . S
C1809 C1813 1.495 1_655 S
C1810 C1809 1.392 . S
C1810 C1811 1.385 . S
C1810 C1812 1.478 . S
C1811 H1805 0.930 . S
C1811 C1807 1.400 . S
C1811 C1810 1.385 . S
C1812 C1810 1.478 . S
C1812 C1814 1.381 . S
C1812 C1818 1.383 . S
C1813 C1809 1.495 1_455 S
C1813 H1819 0.959 . S
C1813 H1820 0.961 . S
C1813 H1821 0.960 . S
C1814 C1812 1.381 . S
C1814 C1815 1.394 . S
C1814 H1822 0.930 . S
C1815 C1814 1.394 . S
C1815 C1816 1.383 . S
C1815 H1823 0.929 . S
C1816 C1815 1.383 . S
C1816 C1817 1.377 . S
C1817 H1801 0.930 . S
C1817 C1816 1.377 . S
C1817 C1818 1.379 . S
C1818 H1802 0.931 . S
C1818 C1812 1.383 . S
C1818 C1817 1.379 . S
H1819 C1813 0.959 . S
H1820 C1813 0.961 . S
H1821 C1813 0.960 . S
H1822 C1814 0.930 . S
H1823 C1815 0.929 . S
H1824 C1832 0.929 . S
H1825 C1834 0.930 . S
H1826 C1836 0.930 . S
H1827 C1839 0.929 . S
H1828 C1842 0.930 . S
H1829 C1844 0.960 . S
H1830 C1844 0.960 . S
H1831 C1844 0.960 . S
C1832 H1824 0.929 . S
C1832 C1833 1.377 . S
C1832 C1834 1.384 . S
C1833 C1832 1.377 . S
C1833 C1839 1.390 . S
C1834 H1825 0.930 . S
C1834 C1832 1.384 . S
C1834 C1835 1.372 . S
C1835 C1834 1.372 . S
C1835 C1836 1.400 . S
C1835 C1840 1.490 . S
C1836 H1826 0.930 . S
C1836 C1835 1.400 . S
C1836 C1839 1.386 . S
H1837 C1853 0.930 . S
H1838 C1854 0.931 . S
C1839 H1827 0.929 . S
C1839 C1833 1.390 . S
C1839 C1836 1.386 . S
C1840 C1835 1.490 . S
C1840 C1842 1.395 . S
C1840 C1843 1.403 . S
H1841 C1847 0.930 . S
C1842 H1828 0.930 . S
C1842 C1840 1.395 . S
C1842 C1845 1.403 . S
C1843 C1840 1.403 . S
C1843 C1844 1.524 . S
C1843 C1847 1.400 . S
C1844 H1829 0.960 . S
C1844 H1830 0.960 . S
C1844 H1831 0.960 . S
C1844 C1843 1.524 . S
C1845 C1842 1.403 . S
C1845 C1846 1.392 . S
C1845 C1849 1.495 . S
C1846 C1845 1.392 . S
C1846 C1847 1.385 . S
C1846 C1848 1.478 . S
C1847 H1841 0.930 . S
C1847 C1843 1.400 . S
C1847 C1846 1.385 . S
C1848 C1846 1.478 . S
C1848 C1850 1.381 . S
C1848 C1854 1.383 . S
C1849 C1845 1.495 . S
C1849 H1855 0.959 . S
C1849 H1856 0.961 . S
C1849 H1857 0.960 . S
C1850 C1848 1.381 . S
C1850 C1851 1.394 . S
C1850 H1858 0.930 . S
C1851 C1850 1.394 . S
C1851 C1852 1.383 . S
C1851 H1859 0.929 . S
C1852 C1851 1.383 . S
C1852 C1853 1.377 . S
C1853 H1837 0.930 . S
C1853 C1852 1.377 . S
C1853 C1854 1.379 . S
C1854 H1838 0.931 . S
C1854 C1848 1.383 . S
C1854 C1853 1.379 . S
H1855 C1849 0.959 . S
H1856 C1849 0.961 . S
H1857 C1849 0.960 . S
H1858 C1850 0.930 . S
H1859 C1851 0.929 . S
H1860 C1868 0.929 . S
H1861 C1870 0.930 . S
H1862 C1872 0.930 . S
H1863 C1875 0.929 . S
H1864 C1878 0.930 . S
H1865 C1880 0.958 1_455 S
H1866 C1880 0.957 1_455 S
H1867 C1880 0.961 . S
C1868 H1860 0.929 . S
C1868 C1869 1.377 . S
C1868 C1870 1.384 . S
C1869 C1868 1.377 . S
C1869 C1875 1.390 . S
C1870 H1861 0.930 . S
C1870 C1868 1.384 . S
C1870 C1871 1.372 . S
C1871 C1870 1.372 . S
C1871 C1872 1.400 . S
C1871 C1876 1.490 . S
C1872 H1862 0.930 . S
C1872 C1871 1.400 . S
C1872 C1875 1.386 . S
H1873 C1889 0.930 . S
H1874 C1890 0.931 . S
C1875 H1863 0.929 . S
C1875 C1869 1.390 . S
C1875 C1872 1.386 . S
C1876 C1871 1.490 . S
C1876 C1878 1.395 . S
C1876 C1879 1.403 . S
H1877 C1883 0.930 . S
C1878 H1864 0.930 . S
C1878 C1876 1.395 . S
C1878 C1881 1.403 . S
C1879 C1876 1.403 . S
C1879 C1880 1.528 . S
C1879 C1883 1.400 . S
C1880 H1865 0.958 1_655 S
C1880 H1866 0.957 1_655 S
C1880 H1867 0.961 . S
C1880 C1879 1.528 . S
C1881 C1878 1.403 . S
C1881 C1882 1.392 . S
C1881 C1885 1.495 . S
C1882 C1881 1.392 . S
C1882 C1883 1.385 . S
C1882 C1884 1.478 . S
C1883 H1877 0.930 . S
C1883 C1879 1.400 . S
C1883 C1882 1.385 . S
C1884 C1882 1.478 . S
C1884 C1886 1.381 . S
C1884 C1890 1.383 . S
C1885 C1881 1.495 . S
C1885 H1891 0.959 . S
C1885 H1892 0.961 . S
C1885 H1893 0.960 . S
C1886 C1884 1.381 . S
C1886 C1887 1.394 . S
C1886 H1894 0.930 . S
C1887 C1886 1.394 . S
C1887 C1888 1.383 . S
C1887 H1895 0.929 . S
C1888 C1887 1.383 . S
C1888 C1889 1.377 . S
C1889 H1873 0.930 . S
C1889 C1888 1.377 . S
C1889 C1890 1.379 . S
C1890 H1874 0.931 . S
C1890 C1884 1.383 . S
C1890 C1889 1.379 . S
H1891 C1885 0.959 . S
H1892 C1885 0.961 . S
H1893 C1885 0.960 . S
H1894 C1886 0.930 . S
H1895 C1887 0.929 . S
H1896 C1904 0.929 1_545 S
H1897 C1906 0.930 . S
H1898 C1908 0.930 . S
H1899 C1911 0.929 . S
H1900 C1914 0.930 . S
H1901 C1916 0.960 . S
H1902 C1916 0.960 . S
H1903 C1916 0.960 . S
C1904 H1896 0.929 1_565 S
C1904 C1905 1.377 . S
C1904 C1906 1.384 . S
C1905 C1904 1.377 . S
C1905 C1911 1.390 . S
C1906 H1897 0.930 . S
C1906 C1904 1.384 . S
C1906 C1907 1.372 . S
C1907 C1906 1.372 . S
C1907 C1908 1.400 . S
C1907 C1912 1.490 . S
C1908 H1898 0.930 . S
C1908 C1907 1.400 . S
C1908 C1911 1.386 . S
H1909 C1925 0.930 . S
H1910 C1926 0.931 . S
C1911 H1899 0.929 . S
C1911 C1905 1.390 . S
C1911 C1908 1.386 . S
C1912 C1907 1.490 . S
C1912 C1914 1.395 . S
C1912 C1915 1.403 . S
H1913 C1919 0.930 . S
C1914 H1900 0.930 . S
C1914 C1912 1.395 . S
C1914 C1917 1.403 . S
C1915 C1912 1.403 . S
C1915 C1916 1.524 . S
C1915 C1919 1.400 . S
C1916 H1901 0.960 . S
C1916 H1902 0.960 . S
C1916 H1903 0.960 . S
C1916 C1915 1.524 . S
C1917 C1914 1.403 . S
C1917 C1918 1.392 . S
C1917 C1921 1.495 . S
C1918 C1917 1.392 . S
C1918 C1919 1.385 . S
C1918 C1920 1.478 . S
C1919 H1913 0.930 . S
C1919 C1915 1.400 . S
C1919 C1918 1.385 . S
C1920 C1918 1.478 . S
C1920 C1922 1.381 . S
C1920 C1926 1.383 . S
C1921 C1917 1.495 . S
C1921 H1927 0.959 1_565 S
C1921 H1928 0.961 . S
C1921 H1929 0.960 . S
C1922 C1920 1.381 . S
C1922 C1923 1.394 . S
C1922 H1930 0.930 . S
C1923 C1922 1.394 . S
C1923 C1924 1.383 . S
C1923 H1931 0.929 . S
C1924 C1923 1.383 . S
C1924 C1925 1.377 . S
C1925 H1909 0.930 . S
C1925 C1924 1.377 . S
C1925 C1926 1.379 . S
C1926 H1910 0.931 . S
C1926 C1920 1.383 . S
C1926 C1925 1.379 . S
H1927 C1921 0.959 1_545 S
H1928 C1921 0.961 . S
H1929 C1921 0.960 . S
H1930 C1922 0.930 . S
H1931 C1923 0.929 . S
H1932 C1940 0.929 . S
H1933 C1942 0.930 . S
H1934 C1944 0.930 . S
H1935 C1947 0.929 . S
H1936 C1950 0.930 . S
H1937 C1952 0.960 . S
H1938 C1952 0.960 . S
H1939 C1952 0.960 . S
C1940 H1932 0.929 . S
C1940 C1941 1.377 . S
C1940 C1942 1.384 . S
C1941 C1940 1.377 . S
C1941 C1947 1.390 . S
C1942 H1933 0.930 . S
C1942 C1940 1.384 . S
C1942 C1943 1.372 . S
C1943 C1942 1.372 . S
C1943 C1944 1.400 . S
C1943 C1948 1.490 . S
C1944 H1934 0.930 . S
C1944 C1943 1.400 . S
C1944 C1947 1.386 . S
H1945 C1961 0.930 . S
H1946 C1962 0.931 . S
C1947 H1935 0.929 . S
C1947 C1941 1.390 . S
C1947 C1944 1.386 . S
C1948 C1943 1.490 . S
C1948 C1950 1.395 . S
C1948 C1951 1.403 . S
H1949 C1955 0.930 . S
C1950 H1936 0.930 . S
C1950 C1948 1.395 . S
C1950 C1953 1.403 . S
C1951 C1948 1.403 . S
C1951 C1952 1.524 . S
C1951 C1955 1.400 . S
C1952 H1937 0.960 . S
C1952 H1938 0.960 . S
C1952 H1939 0.960 . S
C1952 C1951 1.524 . S
C1953 C1950 1.403 . S
C1953 C1954 1.392 . S
C1953 C1957 1.495 . S
C1954 C1953 1.392 . S
C1954 C1955 1.385 . S
C1954 C1956 1.478 . S
C1955 H1949 0.930 . S
C1955 C1951 1.400 . S
C1955 C1954 1.385 . S
C1956 C1954 1.478 . S
C1956 C1958 1.381 . S
C1956 C1962 1.383 . S
C1957 C1953 1.495 . S
C1957 H1963 0.959 . S
C1957 H1964 0.961 . S
C1957 H1965 0.960 . S
C1958 C1956 1.381 . S
C1958 C1959 1.394 . S
C1958 H1966 0.930 . S
C1959 C1958 1.394 . S
C1959 C1960 1.383 . S
C1959 H1967 0.929 . S
C1960 C1959 1.383 . S
C1960 C1961 1.377 . S
C1961 H1945 0.930 . S
C1961 C1960 1.377 . S
C1961 C1962 1.379 . S
C1962 H1946 0.931 . S
C1962 C1956 1.383 . S
C1962 C1961 1.379 . S
H1963 C1957 0.959 . S
H1964 C1957 0.961 . S
H1965 C1957 0.960 . S
H1966 C1958 0.930 . S
H1967 C1959 0.929 . S
C537 C28 0.526 . S
C556 C193 0.503 . S
C573 C61 0.507 . S
C592 C226 0.564 . S
C609 C259 0.485 . S
C628 C94 0.464 . S
C645 C160 0.517 . S
C664 C127 0.513 . S
C681 C292 0.519 . S
C700 C457 0.580 . S
C717 C325 0.500 . S
C736 C490 0.559 . S
C753 C358 0.490 . S
C772 C523 0.464 . S
C789 C391 0.516 . S
C808 C424 0.485 . S
C825 C281 1.478 . S
C844 C17 1.454 . S
C861 C314 1.410 . S
C880 C50 1.444 . S
C897 C83 1.443 . S
C916 C347 1.473 . S
C933 C380 1.515 . S
C952 C116 1.511 . S
C969 C149 1.411 . S
C988 C413 1.402 . S
C1005 C182 1.471 . S
C1024 C446 1.429 . S
C1041 C215 1.514 . S
C1060 C479 1.506 . S
C1077 C248 1.436 . S
C1096 C512 1.393 . S
C1113 N14 1.514 . S
C1132 N146 1.537 . S
C1149 N47 1.523 . S
C1168 N179 1.535 . S
C1185 N212 1.576 . S
C1204 N80 1.589 . S
C1221 N113 1.562 . S
C1240 N245 1.544 . S
C1257 N410 1.518 . S
C1276 N278 1.514 . S
C1293 N443 1.506 . S
C1312 N311 1.542 . S
C1329 N344 1.569 . S
C1348 N476 1.584 . S
C1365 N509 1.563 . S
C1384 N377 1.599 . S
C1401 C41 1.386 . S
C1420 N5 1.317 . S
C1437 N38 1.310 . S
C1456 C74 1.387 . S
C1473 N71 1.352 . S
C1492 C107 1.442 . S
C1509 N104 1.334 . S
C1528 C8 1.418 . S
C1545 C239 1.400 . S
C1564 N137 1.338 . S
C1581 N170 1.298 . S
C1600 C140 1.381 . S
C1617 N203 1.334 . S
C1636 C173 1.416 . S
C1653 N236 1.356 . S
C1672 C206 1.442 . S
C1689 N269 1.288 . S
C1708 C305 1.369 . S
C1725 N302 1.316 . S
C1744 C338 1.394 . S
C1761 C371 1.440 . S
C1780 N335 1.377 . S
C1797 N368 1.327 . S
C1816 C272 1.407 . S
C1833 N401 1.304 . S
C1852 C503 1.395 . S
C1869 C404 1.383 . S
C1888 N434 1.253 . S
C1905 C437 1.417 . S
C1924 N467 1.358 . S
C1941 N500 1.341 . S
C1960 C470 1.438 . S
