# Generated by pormake.
# Topology uoz, (4)-cn, num edge types: 1
# Building blocks:
#     Node 0, Type 0, BuildingBlock: ICAMEG_clean_sbu_1, # of connection points: 4
#     Node 1, Type 0, BuildingBlock: ICAMEG_clean_sbu_1, # of connection points: 4
#     Node 2, Type 0, BuildingBlock: ICAMEG_clean_sbu_1, # of connection points: 4
#     Node 3, Type 0, BuildingBlock: ICAMEG_clean_sbu_1, # of connection points: 4
#     Node 4, Type 0, BuildingBlock: ICAMEG_clean_sbu_1, # of connection points: 4
#     Node 5, Type 0, BuildingBlock: ICAMEG_clean_sbu_1, # of connection points: 4
#     Node 6, Type 0, BuildingBlock: ICAMEG_clean_sbu_1, # of connection points: 4
#     Node 7, Type 0, BuildingBlock: ICAMEG_clean_sbu_1, # of connection points: 4
#     Node 8, Type 0, BuildingBlock: ICAMEG_clean_sbu_1, # of connection points: 4
#     Node 9, Type 0, BuildingBlock: ICAMEG_clean_sbu_1, # of connection points: 4
#     Node 10, Type 0, BuildingBlock: ICAMEG_clean_sbu_1, # of connection points: 4
#     Node 11, Type 0, BuildingBlock: ICAMEG_clean_sbu_1, # of connection points: 4
#     Node 12, Type 0, BuildingBlock: ICAMEG_clean_sbu_1, # of connection points: 4
#     Node 13, Type 0, BuildingBlock: ICAMEG_clean_sbu_1, # of connection points: 4
#     Node 14, Type 0, BuildingBlock: ICAMEG_clean_sbu_1, # of connection points: 4
#     Node 15, Type 0, BuildingBlock: ICAMEG_clean_sbu_1, # of connection points: 4
#     Edge 16, Type (0, 0), BuildingBlock: UVAHIK_clean_linker_0, # of connection points: 2
#     Edge 17, Type (0, 0), BuildingBlock: UVAHIK_clean_linker_0, # of connection points: 2
#     Edge 18, Type (0, 0), BuildingBlock: UVAHIK_clean_linker_0, # of connection points: 2
#     Edge 19, Type (0, 0), BuildingBlock: UVAHIK_clean_linker_0, # of connection points: 2
#     Edge 20, Type (0, 0), BuildingBlock: UVAHIK_clean_linker_0, # of connection points: 2
#     Edge 21, Type (0, 0), BuildingBlock: UVAHIK_clean_linker_0, # of connection points: 2
#     Edge 22, Type (0, 0), BuildingBlock: UVAHIK_clean_linker_0, # of connection points: 2
#     Edge 23, Type (0, 0), BuildingBlock: UVAHIK_clean_linker_0, # of connection points: 2
#     Edge 24, Type (0, 0), BuildingBlock: UVAHIK_clean_linker_0, # of connection points: 2
#     Edge 25, Type (0, 0), BuildingBlock: UVAHIK_clean_linker_0, # of connection points: 2
#     Edge 26, Type (0, 0), BuildingBlock: UVAHIK_clean_linker_0, # of connection points: 2
#     Edge 27, Type (0, 0), BuildingBlock: UVAHIK_clean_linker_0, # of connection points: 2
#     Edge 28, Type (0, 0), BuildingBlock: UVAHIK_clean_linker_0, # of connection points: 2
#     Edge 29, Type (0, 0), BuildingBlock: UVAHIK_clean_linker_0, # of connection points: 2
#     Edge 30, Type (0, 0), BuildingBlock: UVAHIK_clean_linker_0, # of connection points: 2
#     Edge 31, Type (0, 0), BuildingBlock: UVAHIK_clean_linker_0, # of connection points: 2
#     Edge 32, Type (0, 0), BuildingBlock: UVAHIK_clean_linker_0, # of connection points: 2
#     Edge 33, Type (0, 0), BuildingBlock: UVAHIK_clean_linker_0, # of connection points: 2
#     Edge 34, Type (0, 0), BuildingBlock: UVAHIK_clean_linker_0, # of connection points: 2
#     Edge 35, Type (0, 0), BuildingBlock: UVAHIK_clean_linker_0, # of connection points: 2
#     Edge 36, Type (0, 0), BuildingBlock: UVAHIK_clean_linker_0, # of connection points: 2
#     Edge 37, Type (0, 0), BuildingBlock: UVAHIK_clean_linker_0, # of connection points: 2
#     Edge 38, Type (0, 0), BuildingBlock: UVAHIK_clean_linker_0, # of connection points: 2
#     Edge 39, Type (0, 0), BuildingBlock: UVAHIK_clean_linker_0, # of connection points: 2
#     Edge 40, Type (0, 0), BuildingBlock: UVAHIK_clean_linker_0, # of connection points: 2
#     Edge 41, Type (0, 0), BuildingBlock: UVAHIK_clean_linker_0, # of connection points: 2
#     Edge 42, Type (0, 0), BuildingBlock: UVAHIK_clean_linker_0, # of connection points: 2
#     Edge 43, Type (0, 0), BuildingBlock: UVAHIK_clean_linker_0, # of connection points: 2
#     Edge 44, Type (0, 0), BuildingBlock: UVAHIK_clean_linker_0, # of connection points: 2
#     Edge 45, Type (0, 0), BuildingBlock: UVAHIK_clean_linker_0, # of connection points: 2
#     Edge 46, Type (0, 0), BuildingBlock: UVAHIK_clean_linker_0, # of connection points: 2
#     Edge 47, Type (0, 0), BuildingBlock: UVAHIK_clean_linker_0, # of connection points: 2
# Relax obj value: 0.287
# Max RMSD: 0.241
# Mean RMSD: 0.241
data_MOF--net-uoz--node1-ICAMEG_clean_sbu_1--edge1-UVAHIK_clean_linker_0
_symmetry_space_group_name_H-M    P1
_symmetry_Int_Tables_number       1
_symmetry_cell_setting            triclinic
loop_
_symmetry_equiv_pos_as_xyz
'x, y, z'
_cell_length_a     79.381804
_cell_length_b     79.434571
_cell_length_c     29.130321
_cell_angle_alpha  89.971237
_cell_angle_beta   90.171371
_cell_angle_gamma 90.008956
loop_
_atom_site_label
_atom_site_type_symbol
_atom_site_fract_x
_atom_site_fract_y
_atom_site_fract_z
_atom_type_partial_charge
Co0 Co 0.01823 0.58995 0.22339 0.0
Co1 Co 0.01053 0.59994 0.33711 0.0
O2 O 0.01244 0.58358 0.28654 0.0
C3 C 0.98693 0.56981 0.20975 0.0
O4 O 0.98015 0.57684 0.24604 0.0
C5 C 0.02997 0.57021 0.37599 0.0
O6 O 0.03602 0.56705 0.33507 0.0
O7 O 0.03333 0.60974 0.32265 0.0
O8 O 0.03464 0.60688 0.24591 0.0
H9 H 0.01402 0.65739 0.40859 0.0
H10 H 0.01938 0.55373 0.24757 0.0
O11 O 1.00195 0.57326 0.19794 0.0
H12 H 0.0773 0.5683 0.2014 0.0
H13 H 0.03135 0.57894 0.05699 0.0
H14 H 0.02388 0.62246 0.17585 0.0
H15 H 0.05484 0.58972 0.19992 0.0
H16 H 0.02445 0.57097 0.13658 0.0
O17 O 0.02078 0.58322 0.38231 0.0
H18 H 0.01627 0.63666 0.34591 0.0
H19 H 1.00072 0.59758 0.4359 0.0
H20 H 0.0309 0.63097 0.09677 0.0
H21 H 0.04141 0.53182 0.24874 0.0
H22 H 0.03468 0.60913 0.03669 0.0
H23 H 0.07063 0.53909 0.22579 0.0
O24 O 1.0002 0.60727 0.22255 0.0
H25 H 0.96865 0.55336 0.36275 0.0
H26 H 0.9767 0.61484 0.35558 0.0
H27 H 0.94842 0.60339 0.37091 0.0
H28 H 0.94426 0.57243 0.37476 0.0
H29 H 0.99665 0.56535 0.34686 0.0
H30 H 0.99845 0.61786 0.49962 0.0
H31 H 1.00505 0.64802 0.48613 0.0
O32 O 0.99953 0.61691 0.29495 0.0
C33 C 0.04012 0.61274 0.28368 0.0
C34 C 0.01108 0.64429 0.41489 0.0
C35 C 1.00237 0.62209 0.46599 0.0
N36 N 0.0086 0.61594 0.38715 0.0
C37 C 0.01231 0.6325 0.3795 0.0
C38 C 1.00375 0.61066 0.42979 0.0
C39 C 1.00607 0.63902 0.45839 0.0
C40 C 0.03203 0.55693 0.23703 0.0
N41 N 0.03582 0.57299 0.22384 0.0
C42 C 0.04446 0.5445 0.23798 0.0
C43 C 0.06086 0.54859 0.22518 0.0
C44 C 0.06462 0.56499 0.21157 0.0
C45 C 0.05186 0.57709 0.21107 0.0
C46 C 0.02977 0.58857 0.08288 0.0
C47 C 0.0256 0.61287 0.14997 0.0
C48 C 0.02583 0.58414 0.128 0.0
N49 N 0.02388 0.59623 0.16092 0.0
C50 C 0.02953 0.61777 0.10521 0.0
C51 C 0.03164 0.60551 0.07151 0.0
C52 C 0.99518 0.61774 0.25267 0.0
C53 C 0.97031 0.56688 0.36136 0.0
C54 C 0.975 0.60137 0.35696 0.0
C55 C 0.95895 0.59495 0.36581 0.0
C56 C 0.95663 0.57758 0.368 0.0
N57 N 0.98838 0.5908 0.35062 0.0
C58 C 0.98618 0.57375 0.35263 0.0
Co59 Co 0.67505 0.76705 0.4718 0.0
Co60 Co 0.66616 0.75897 0.58548 0.0
O61 O 0.6822 0.76126 0.53438 0.0
C62 C 0.69572 0.73651 0.4537 0.0
O63 O 0.68822 0.72868 0.48769 0.0
C64 C 0.69656 0.77749 0.6246 0.0
O65 O 0.70008 0.78329 0.5836 0.0
O66 O 0.65646 0.78196 0.57245 0.0
O67 O 0.65723 0.78223 0.49536 0.0
H68 H 0.60912 0.76229 0.65921 0.0
H69 H 0.71144 0.77017 0.49319 0.0
O70 O 0.6925 0.7519 0.4452 0.0
H71 H 0.69293 0.82746 0.45173 0.0
H72 H 0.68417 0.78202 0.30566 0.0
H73 H 0.64191 0.77082 0.42559 0.0
H74 H 0.67283 0.80381 0.4507 0.0
H75 H 0.69305 0.77515 0.38467 0.0
O76 O 0.68321 0.76876 0.63075 0.0
H77 H 0.62953 0.76495 0.59593 0.0
H78 H 0.669 0.74829 0.68362 0.0
H79 H 0.63249 0.77778 0.34713 0.0
H80 H 0.73205 0.79342 0.49378 0.0
H81 H 0.65369 0.78343 0.2865 0.0
H82 H 0.7228 0.82233 0.4732 0.0
O83 O 0.65879 0.74814 0.47144 0.0
H84 H 0.71264 0.71654 0.60567 0.0
H85 H 0.65114 0.72514 0.60339 0.0
H86 H 0.66251 0.69667 0.61644 0.0
H87 H 0.69348 0.69223 0.6178 0.0
H88 H 0.70073 0.74475 0.59216 0.0
H89 H 0.64906 0.74561 0.74792 0.0
H90 H 0.61886 0.75256 0.73587 0.0
O91 O 0.64878 0.74833 0.5434 0.0
C92 C 0.65213 0.78804 0.53346 0.0
C93 C 0.62224 0.75919 0.66487 0.0
C94 C 0.64466 0.74986 0.71468 0.0
N95 N 0.65043 0.75673 0.63599 0.0
C96 C 0.63385 0.76065 0.62914 0.0
C97 C 0.65591 0.75147 0.67816 0.0
C98 C 0.62772 0.75375 0.70788 0.0
C99 C 0.70737 0.78268 0.48367 0.0
N100 N 0.69095 0.78562 0.47207 0.0
C101 C 0.71907 0.79581 0.4843 0.0
C102 C 0.71387 0.81204 0.47284 0.0
C103 C 0.6971 0.81493 0.46087 0.0
C104 C 0.68576 0.80149 0.46062 0.0
C105 C 0.67481 0.7796 0.33178 0.0
C106 C 0.65122 0.77334 0.39947 0.0
C107 C 0.67976 0.77566 0.37657 0.0
N108 N 0.66801 0.77265 0.40979 0.0
C109 C 0.6458 0.77724 0.35506 0.0
C110 C 0.65771 0.78039 0.32106 0.0
C111 C 0.64816 0.74345 0.50153 0.0
C112 C 0.69912 0.71833 0.60537 0.0
C113 C 0.66462 0.72333 0.60378 0.0
C114 C 0.67099 0.70717 0.6113 0.0
C115 C 0.68837 0.70469 0.61209 0.0
N116 N 0.67524 0.73667 0.59741 0.0
C117 C 0.69229 0.73431 0.59799 0.0
Co118 Co 0.50874 0.42586 0.73116 0.0
Co119 Co 0.50912 0.41323 0.84419 0.0
O120 O 0.51161 0.43057 0.79661 0.0
C121 C 0.53984 0.44002 0.69159 0.0
O122 O 0.54288 0.42483 0.67593 0.0
C123 C 0.49051 0.44384 0.87907 0.0
O124 O 0.48547 0.44695 0.83701 0.0
O125 O 0.48626 0.40684 0.8196 0.0
O126 O 0.49073 0.40899 0.74366 0.0
H127 H 0.49499 0.35557 0.90356 0.0
H128 H 0.50782 0.46163 0.76033 0.0
O129 O 0.527 0.44261 0.71698 0.0
H130 H 0.45217 0.45065 0.6909 0.0
H131 H 0.50382 0.44133 0.56376 0.0
H132 H 0.50499 0.39476 0.67572 0.0
H133 H 0.47359 0.42823 0.6947 0.0
H134 H 0.50693 0.44713 0.64651 0.0
O135 O 0.4989 0.43047 0.88761 0.0
H136 H 0.49853 0.37747 0.84431 0.0
H137 H 0.51396 0.41262 0.94595 0.0
H138 H 0.50184 0.38841 0.59331 0.0
H139 H 0.48688 0.4845 0.7564 0.0
H140 H 0.50125 0.4118 0.53667 0.0
H141 H 0.45878 0.47905 0.7217 0.0
O142 O 0.52566 0.40765 0.73548 0.0
H143 H 0.55465 0.45355 0.89273 0.0
H144 H 0.53953 0.39378 0.87324 0.0
H145 H 0.5679 0.40125 0.90121 0.0
H146 H 0.57559 0.43133 0.91132 0.0
H147 H 0.52649 0.44553 0.86431 0.0
H148 H 0.51042 0.39115 1.00632 0.0
H149 H 0.50095 0.36236 0.98524 0.0
O150 O 0.52011 0.39565 0.80353 0.0
C151 C 0.48225 0.40375 0.77784 0.0
C152 C 0.49916 0.36806 0.91316 0.0
C153 C 0.50779 0.38803 0.97085 0.0
N154 N 0.50652 0.39628 0.8916 0.0
C155 C 0.50122 0.3805 0.87975 0.0
C156 C 0.50971 0.40016 0.93652 0.0
C157 C 0.50249 0.37188 0.95899 0.0
C158 C 0.49572 0.45922 0.74459 0.0
N159 N 0.49197 0.44361 0.72769 0.0
C160 C 0.48387 0.47219 0.74272 0.0
C161 C 0.46809 0.46912 0.72335 0.0
C162 C 0.46437 0.45318 0.70614 0.0
C163 C 0.47652 0.4405 0.70863 0.0
C164 C 0.50404 0.43104 0.5881 0.0
C165 C 0.5047 0.40502 0.65133 0.0
C166 C 0.50579 0.43424 0.63501 0.0
N167 N 0.5061 0.4213 0.66598 0.0
C168 C 0.50293 0.40134 0.60469 0.0
C169 C 0.5026 0.41446 0.57293 0.0
C170 C 0.52735 0.3957 0.76426 0.0
C171 C 0.55143 0.4404 0.88858 0.0
C172 C 0.54281 0.4069 0.87725 0.0
C173 C 0.55888 0.41105 0.89326 0.0
C174 C 0.56318 0.42793 0.89895 0.0
N175 N 0.53131 0.41919 0.86731 0.0
C176 C 0.53548 0.43577 0.87263 0.0
Co177 Co 0.84061 0.25 0.97261 0.0
Co178 Co 0.85114 0.25822 0.08604 0.0
O179 O 0.83466 0.25646 0.03552 0.0
C180 C 0.82222 0.28229 0.95713 0.0
O181 O 0.82959 0.28905 0.99307 0.0
C182 C 0.8214 0.23897 0.12487 0.0
O183 O 0.81834 0.23273 0.08403 0.0
O184 O 0.86066 0.23527 0.07199 0.0
O185 O 0.85665 0.23287 0.99578 0.0
H186 H 0.90868 0.2543 0.1576 0.0
H187 H 0.80444 0.25095 0.99722 0.0
O188 O 0.82478 0.26698 0.9465 0.0
H189 H 0.81568 0.19214 0.95267 0.0
H190 H 0.82862 0.23649 0.80674 0.0
H191 H 0.87271 0.24235 0.92527 0.0
H192 H 0.83831 0.21338 0.95025 0.0
H193 H 0.82116 0.24426 0.88607 0.0
O194 O 0.83433 0.24828 0.13126 0.0
H195 H 0.88784 0.25215 0.0949 0.0
H196 H 0.849 0.26824 0.18472 0.0
H197 H 0.88071 0.23441 0.84645 0.0
H198 H 0.78135 0.23017 0.99938 0.0
H199 H 0.85857 0.23144 0.78654 0.0
H200 H 0.78693 0.20051 0.97722 0.0
O201 O 0.85889 0.26708 0.97098 0.0
H202 H 0.80512 0.30072 0.11105 0.0
H203 H 0.86652 0.29189 0.10381 0.0
H204 H 0.85544 0.32035 0.11861 0.0
H205 H 0.82452 0.3249 0.12246 0.0
H206 H 0.81673 0.27253 0.09576 0.0
H207 H 0.86938 0.27042 0.24847 0.0
H208 H 0.89947 0.26349 0.23506 0.0
O209 O 0.86817 0.26884 0.04372 0.0
C210 C 0.86286 0.22779 0.03355 0.0
C211 C 0.8956 0.25737 0.16386 0.0
C212 C 0.87354 0.26639 0.21487 0.0
N213 N 0.86723 0.26008 0.13607 0.0
C214 C 0.88375 0.25619 0.12847 0.0
C215 C 0.86204 0.26507 0.17866 0.0
C216 C 0.89043 0.26251 0.20732 0.0
C217 C 0.80691 0.2381 0.98705 0.0
N218 N 0.82271 0.23338 0.97377 0.0
C219 C 0.79381 0.22638 0.98855 0.0
C220 C 0.79696 0.20973 0.97621 0.0
C221 C 0.81309 0.20502 0.9625 0.0
C222 C 0.82589 0.21708 0.96146 0.0
C223 C 0.83837 0.23771 0.83256 0.0
C224 C 0.863 0.24098 0.89946 0.0
C225 C 0.83423 0.24214 0.87753 0.0
N226 N 0.84648 0.24365 0.91036 0.0
C227 C 0.8676 0.23653 0.85486 0.0
C228 C 0.85518 0.23488 0.82126 0.0
C229 C 0.8693 0.27243 1.00103 0.0
C230 C 0.81862 0.29889 0.10965 0.0
C231 C 0.85306 0.29376 0.10525 0.0
C232 C 0.84685 0.30991 0.11377 0.0
C233 C 0.82951 0.31245 0.11596 0.0
N234 N 0.8423 0.2805 0.09924 0.0
C235 C 0.82528 0.28292 0.10124 0.0
Co236 Co 0.0114 0.4263 0.8828 0.0
Co237 Co 0.00933 0.41231 0.77002 0.0
O238 O 1.00729 0.42984 0.81725 0.0
C239 C 0.97944 0.43734 0.9249 0.0
O240 O 0.97828 0.42211 0.94219 0.0
C241 C 0.02873 0.44237 0.73467 0.0
O242 O 0.03368 0.44556 0.77676 0.0
O243 O 0.03195 0.4049 0.79455 0.0
O244 O 0.03129 0.41187 0.86949 0.0
H245 H 0.02051 0.35388 0.7115 0.0
H246 H 1.0077 0.46119 0.84802 0.0
O247 O 0.99145 0.44091 0.89746 0.0
H248 H 0.06447 0.45883 0.91692 0.0
H249 H 0.0165 0.44419 0.0484 0.0
H250 H 0.01972 0.39661 0.9401 0.0
H251 H 0.04592 0.43393 0.91808 0.0
H252 H 0.01162 0.44863 0.96563 0.0
O253 O 0.02019 0.42908 0.72631 0.0
H254 H 0.01789 0.37599 0.77047 0.0
H255 H 1.00474 0.41181 0.66818 0.0
H256 H 0.02475 0.39163 0.02258 0.0
H257 H 0.02568 0.48651 0.84692 0.0
H258 H 0.02313 0.41552 0.07736 0.0
H259 H 0.05433 0.4854 0.88129 0.0
O260 O 0.99669 0.406 0.88242 0.0
H261 H 0.96533 0.45416 0.72043 0.0
H262 H 0.97818 0.39394 0.74183 0.0
H263 H 0.9501 0.40236 0.71371 0.0
H264 H 0.94354 0.43267 0.70264 0.0
H265 H 0.99317 0.4452 0.74899 0.0
H266 H 1.00733 0.39013 0.60809 0.0
H267 H 0.01521 0.36091 0.62962 0.0
O268 O 0.99783 0.39544 0.81101 0.0
C269 C 0.0382 0.40473 0.8352 0.0
C270 C 0.01707 0.36657 0.70168 0.0
C271 C 0.00971 0.38692 0.64364 0.0
N272 N 0.01123 0.39518 0.72283 0.0
C273 C 0.01558 0.37914 0.73493 0.0
C274 C 1.00834 0.39917 0.67782 0.0
C275 C 0.01411 0.37052 0.65575 0.0
C276 C 0.02008 0.46066 0.8635 0.0
N277 N 0.0258 0.44606 0.88287 0.0
C278 C 0.03024 0.47502 0.86257 0.0
C279 C 0.04632 0.47437 0.88178 0.0
C280 C 0.05203 0.45946 0.90168 0.0
C281 C 0.04153 0.44535 0.90192 0.0
C282 C 0.01726 0.43368 0.02487 0.0
C283 C 0.01905 0.40708 0.9637 0.0
C284 C 0.01451 0.43611 0.97796 0.0
N285 N 0.01543 0.42289 0.94801 0.0
C286 C 0.02189 0.40418 0.01038 0.0
C287 C 0.02098 0.41759 0.04109 0.0
C288 C 0.993 0.39478 0.8528 0.0
C289 C 0.96805 0.44091 0.72497 0.0
C290 C 0.97541 0.40715 0.73735 0.0
C291 C 0.95949 0.41184 0.72127 0.0
C292 C 0.95583 0.42885 0.71505 0.0
N293 N 0.98737 0.41905 0.74681 0.0
C294 C 0.98383 0.43575 0.74099 0.0
Co295 Co 0.84399 0.76391 0.14091 0.0
Co296 Co 0.85335 0.75796 0.02692 0.0
O297 O 0.837 0.75936 0.0775 0.0
C298 C 0.82219 0.73379 0.15444 0.0
O299 O 0.82936 0.72633 0.11937 0.0
C300 C 0.82302 0.77684 0.98883 0.0
O301 O 0.81944 0.78219 0.03022 0.0
O302 O 0.86273 0.78083 0.04304 0.0
O303 O 0.8624 0.77893 0.11989 0.0
H304 H 0.91076 0.76293 0.95606 0.0
H305 H 0.80781 0.76845 0.1188 0.0
O306 O 0.82599 0.74885 0.16511 0.0
H307 H 0.82777 0.8244 0.16814 0.0
H308 H 0.83447 0.77623 0.30846 0.0
H309 H 0.877 0.76588 0.18871 0.0
H310 H 0.84717 0.80019 0.16673 0.0
H311 H 0.8258 0.771 0.22837 0.0
O312 O 0.83642 0.76826 0.98212 0.0
H313 H 0.88998 0.7644 0.01872 0.0
H314 H 0.85114 0.74882 0.92753 0.0
H315 H 0.88622 0.77118 0.26827 0.0
H316 H 0.78789 0.79226 0.12055 0.0
H317 H 0.86488 0.7764 0.32882 0.0
H318 H 0.79786 0.82051 0.1451 0.0
O319 O 0.85967 0.74457 0.13922 0.0
H320 H 0.80737 0.71549 0.99974 0.0
H321 H 0.86877 0.72458 1.00575 0.0
H322 H 0.85773 0.69625 0.98883 0.0
H323 H 0.82681 0.69157 0.98557 0.0
H324 H 0.81895 0.74355 0.01713 0.0
H325 H 0.87146 0.74735 0.86383 0.0
H326 H 0.90153 0.75436 0.87794 0.0
O327 O 0.87061 0.74678 0.06855 0.0
C328 C 0.86746 0.78573 0.08292 0.0
C329 C 0.89769 0.75982 0.9495 0.0
C330 C 0.87564 0.7511 0.89772 0.0
N331 N 0.86938 0.75666 0.97687 0.0
C332 C 0.88588 0.7606 0.98486 0.0
C333 C 0.86417 0.75202 0.93391 0.0
C334 C 0.89251 0.75502 0.90567 0.0
C335 C 0.8122 0.78066 0.13002 0.0
N336 N 0.82864 0.78292 0.14249 0.0
C337 C 0.80088 0.79412 0.13072 0.0
C338 C 0.80649 0.80996 0.14442 0.0
C339 C 0.82328 0.81216 0.15726 0.0
C340 C 0.83423 0.79842 0.15612 0.0
C341 C 0.84389 0.774 0.28237 0.0
C342 C 0.86763 0.76823 0.21478 0.0
C343 C 0.83906 0.771 0.23697 0.0
N344 N 0.85088 0.76823 0.2038 0.0
C345 C 0.87293 0.77118 0.25982 0.0
C346 C 0.86096 0.7741 0.29377 0.0
C347 C 0.87072 0.74075 0.10937 0.0
C348 C 0.82087 0.71739 1.00085 0.0
C349 C 0.85531 0.72265 1.00457 0.0
C350 C 0.84913 0.70658 0.99485 0.0
C351 C 0.83178 0.70396 0.99299 0.0
N352 N 0.84453 0.73579 0.01206 0.0
C353 C 0.82751 0.73329 0.01044 0.0
Co354 Co 0.5005 0.59334 0.38775 0.0
Co355 Co 0.50817 0.60246 0.27386 0.0
O356 O 0.50611 0.58636 0.325 0.0
C357 C 0.5311 0.57244 0.40349 0.0
O358 O 0.53841 0.57945 0.36791 0.0
C359 C 0.48907 0.57241 0.23552 0.0
O360 O 0.483 0.56929 0.27644 0.0
O361 O 0.48524 0.6121 0.2874 0.0
O362 O 0.48491 0.61093 0.3645 0.0
H363 H 0.50445 0.65953 0.20008 0.0
H364 H 0.49775 0.55702 0.36582 0.0
O365 O 0.516 0.57609 0.41399 0.0
H366 H 0.44043 0.57459 0.40969 0.0
H367 H 0.48668 0.58382 0.55442 0.0
H368 H 0.4964 0.62634 0.43397 0.0
H369 H 0.46383 0.59498 0.4103 0.0
H370 H 0.49324 0.57514 0.4752 0.0
O371 O 0.49818 0.58547 0.22901 0.0
H372 H 0.50211 0.63908 0.26348 0.0
H373 H 0.5184 0.59972 0.17547 0.0
H374 H 0.48976 0.63557 0.51266 0.0
H375 H 0.47475 0.53612 0.36561 0.0
H376 H 0.48485 0.61424 0.57354 0.0
H377 H 0.44583 0.5449 0.3874 0.0
O378 O 0.51925 0.60983 0.38774 0.0
H379 H 0.55043 0.55603 0.25155 0.0
H380 H 0.54196 0.61749 0.2555 0.0
H381 H 0.57037 0.60613 0.24144 0.0
H382 H 0.57474 0.57518 0.23922 0.0
H383 H 0.52229 0.56793 0.26612 0.0
H384 H 0.52075 0.61971 0.11105 0.0
H385 H 0.51382 0.64988 0.12319 0.0
O386 O 0.51896 0.61977 0.31562 0.0
C387 C 0.47904 0.6161 0.32641 0.0
C388 C 0.50753 0.64642 0.19438 0.0
C389 C 0.51666 0.62407 0.14439 0.0
N390 N 0.51016 0.61824 0.22327 0.0
C391 C 0.50626 0.63479 0.23017 0.0
C392 C 0.51524 0.6128 0.18098 0.0
C393 C 0.51278 0.641 0.15124 0.0
C394 C 0.48523 0.56088 0.37587 0.0
N395 N 0.48215 0.5772 0.38793 0.0
C396 C 0.47225 0.54901 0.37546 0.0
C397 C 0.45602 0.55395 0.3876 0.0
C398 C 0.45297 0.57062 0.40004 0.0
C399 C 0.46627 0.58213 0.40005 0.0
C400 C 0.48876 0.59324 0.52818 0.0
C401 C 0.49419 0.61698 0.4602 0.0
C402 C 0.49251 0.5884 0.48326 0.0
N403 N 0.4951 0.60022 0.4499 0.0
C404 C 0.49047 0.62228 0.50473 0.0
C405 C 0.48773 0.61031 0.53888 0.0
C406 C 0.5239 0.62042 0.35747 0.0
C407 C 0.54867 0.56954 0.25223 0.0
C408 C 0.54376 0.60402 0.2548 0.0
C409 C 0.55987 0.59765 0.24668 0.0
C410 C 0.56231 0.58029 0.24541 0.0
N411 N 0.53042 0.59341 0.26132 0.0
C412 C 0.53273 0.57636 0.26023 0.0
Co413 Co 0.67591 0.24751 0.64123 0.0
Co414 Co 0.666 0.25729 0.52866 0.0
O415 O 0.68235 0.25437 0.579 0.0
C416 C 0.69564 0.27857 0.66064 0.0
O417 O 0.68772 0.28635 0.62715 0.0
C418 C 0.69547 0.23822 0.48764 0.0
O419 O 0.69855 0.23143 0.52782 0.0
O420 O 0.65611 0.23431 0.54007 0.0
O421 O 0.65859 0.23191 0.61672 0.0
H422 H 0.60848 0.25532 0.45641 0.0
H423 H 0.71218 0.24623 0.61772 0.0
O424 O 0.69292 0.26306 0.66861 0.0
H425 H 0.69647 0.18772 0.65468 0.0
H426 H 0.68694 0.23094 0.80553 0.0
H427 H 0.64333 0.24168 0.68821 0.0
H428 H 0.67542 0.21046 0.65897 0.0
H429 H 0.69491 0.23915 0.72686 0.0
O430 O 0.68265 0.24777 0.48236 0.0
H431 H 0.62923 0.25182 0.51888 0.0
H432 H 0.66837 0.26891 0.43129 0.0
H433 H 0.63481 0.23338 0.76635 0.0
H434 H 0.73372 0.22389 0.61383 0.0
H435 H 0.6567 0.22796 0.82565 0.0
H436 H 0.72588 0.19437 0.63215 0.0
O437 O 0.65885 0.26572 0.6443 0.0
H438 H 0.71283 0.29933 0.50964 0.0
H439 H 0.65126 0.29146 0.5142 0.0
H440 H 0.66289 0.31993 0.50296 0.0
H441 H 0.6939 0.324 0.50048 0.0
H442 H 0.70067 0.27112 0.52136 0.0
H443 H 0.64807 0.27243 0.36779 0.0
H444 H 0.61787 0.26569 0.38021 0.0
O445 O 0.64905 0.26757 0.57208 0.0
C446 C 0.65279 0.22707 0.57825 0.0
C447 C 0.6216 0.25833 0.4506 0.0
C448 C 0.64382 0.26791 0.40084 0.0
N449 N 0.64998 0.26021 0.47883 0.0
C450 C 0.6334 0.2564 0.48587 0.0
C451 C 0.65527 0.26582 0.4369 0.0
C452 C 0.62688 0.26413 0.40784 0.0
C453 C 0.70873 0.23345 0.62628 0.0
N454 N 0.69256 0.22967 0.63849 0.0
C455 C 0.72096 0.22084 0.62378 0.0
C456 C 0.71654 0.20427 0.63397 0.0
C457 C 0.70003 0.20052 0.64654 0.0
C458 C 0.68814 0.21345 0.64866 0.0
C459 C 0.67729 0.23325 0.77997 0.0
C460 C 0.65293 0.23926 0.71375 0.0
C461 C 0.68172 0.23794 0.73539 0.0
N462 N 0.6696 0.24081 0.7029 0.0
C463 C 0.64803 0.2346 0.75797 0.0
C464 C 0.66032 0.23157 0.79124 0.0
C465 C 0.64832 0.27123 0.61482 0.0
C466 C 0.6993 0.29771 0.51047 0.0
C467 C 0.66476 0.29312 0.51335 0.0
C468 C 0.67127 0.30928 0.50684 0.0
C469 C 0.68867 0.31155 0.50542 0.0
N470 N 0.67525 0.27959 0.51813 0.0
C471 C 0.69232 0.28174 0.51687 0.0
Co472 Co 0.33771 0.25808 0.62875 0.0
Co473 Co 0.35388 0.26166 0.52052 0.0
O474 O 0.33507 0.25732 0.56233 0.0
C475 C 0.32178 0.2263 0.65805 0.0
O476 O 0.33645 0.22217 0.67561 0.0
C477 C 0.32419 0.28092 0.48401 0.0
O478 O 0.32137 0.28606 0.52607 0.0
O479 O 0.35851 0.28389 0.5511 0.0
O480 O 0.35493 0.27639 0.62459 0.0
H481 H 0.41258 0.2796 0.47888 0.0
H482 H 0.30316 0.26064 0.59043 0.0
O483 O 0.32036 0.23981 0.63461 0.0
H484 H 0.31186 0.31323 0.67718 0.0
H485 H 0.31733 0.25793 0.79258 0.0
H486 H 0.36708 0.25923 0.69166 0.0
H487 H 0.3342 0.29173 0.67384 0.0
H488 H 0.31396 0.25768 0.70842 0.0
O489 O 0.33744 0.27236 0.47541 0.0
H490 H 0.38908 0.27349 0.53154 0.0
H491 H 0.35789 0.25986 0.41881 0.0
H492 H 0.37101 0.25957 0.77567 0.0
H493 H 0.28035 0.28167 0.59364 0.0
H494 H 0.34602 0.25891 0.82674 0.0
H495 H 0.28466 0.30823 0.63706 0.0
O496 O 0.35581 0.24102 0.62421 0.0
H497 H 0.31748 0.21629 0.45197 0.0
H498 H 0.37556 0.23279 0.49226 0.0
H499 H 0.37036 0.20508 0.4569 0.0
H500 H 0.34115 0.19669 0.43633 0.0
H501 H 0.32321 0.24381 0.4878 0.0
H502 H 0.38101 0.26594 0.3649 0.0
H503 H 0.40861 0.27583 0.3949 0.0
O504 O 0.37058 0.25023 0.56358 0.0
C505 C 0.36061 0.28644 0.59415 0.0
C506 C 0.40062 0.27526 0.4654 0.0
C507 C 0.3829 0.26762 0.40142 0.0
N508 N 0.37217 0.26624 0.4783 0.0
C509 C 0.38729 0.27174 0.49506 0.0
C510 C 0.36984 0.26424 0.43211 0.0
C511 C 0.39838 0.27316 0.41828 0.0
C512 C 0.30506 0.27206 0.60993 0.0
N513 N 0.32 0.27492 0.63199 0.0
C514 C 0.29213 0.28397 0.61139 0.0
C515 C 0.29457 0.29889 0.63567 0.0
C516 C 0.30984 0.30171 0.65811 0.0
C517 C 0.32249 0.28952 0.65587 0.0
C518 C 0.32832 0.25825 0.7707 0.0
C519 C 0.35614 0.25898 0.71365 0.0
C520 C 0.32649 0.25812 0.72301 0.0
N521 N 0.34032 0.25849 0.69511 0.0
C522 C 0.35844 0.25916 0.7612 0.0
C523 C 0.34442 0.25879 0.78983 0.0
C524 C 0.36893 0.24086 0.59915 0.0
C525 C 0.33027 0.21983 0.46063 0.0
C526 C 0.3628 0.22923 0.48355 0.0
C527 C 0.35994 0.21352 0.46345 0.0
C528 C 0.34356 0.20883 0.45191 0.0
N529 N 0.34971 0.24 0.49177 0.0
C530 C 0.3336 0.23543 0.48079 0.0
Co531 Co 0.17672 0.75024 0.14225 0.0
Co532 Co 0.16665 0.75884 0.02897 0.0
O533 O 0.18305 0.75667 0.07957 0.0
C534 C 0.1959 0.78185 0.16005 0.0
O535 O 0.18805 0.78929 0.12587 0.0
C536 C 0.1967 0.74025 0.98899 0.0
O537 O 0.20022 0.73415 0.02972 0.0
O538 O 0.15714 0.7358 0.04194 0.0
O539 O 0.15985 0.73397 0.11866 0.0
H540 H 0.1092 0.75525 0.95674 0.0
H541 H 0.21301 0.74956 0.11882 0.0
O542 O 0.19334 0.76637 0.16882 0.0
H543 H 0.19869 0.69111 0.16043 0.0
H544 H 0.18786 0.73537 0.30773 0.0
H545 H 0.14421 0.74412 0.18929 0.0
H546 H 0.17712 0.7134 0.163 0.0
H547 H 0.19577 0.74305 0.22863 0.0
O548 O 0.18348 0.74921 0.98322 0.0
H549 H 0.12998 0.75267 0.01946 0.0
H550 H 0.16886 0.76964 0.93086 0.0
H551 H 0.13575 0.73633 0.26787 0.0
H552 H 0.23507 0.7277 0.11664 0.0
H553 H 0.15766 0.73191 0.32774 0.0
H554 H 0.22793 0.69821 0.13729 0.0
O555 O 0.15925 0.76811 0.14397 0.0
H556 H 0.21271 0.80157 1.00737 0.0
H557 H 0.1513 0.7926 0.01226 0.0
H558 H 0.1624 0.82117 0.99915 0.0
H559 H 0.19333 0.8258 0.99649 0.0
H560 H 0.20108 0.77326 0.02092 0.0
H561 H 0.14853 0.77225 0.8671 0.0
H562 H 0.11845 0.76509 0.87989 0.0
O563 O 0.14952 0.76922 0.07161 0.0
C564 C 0.1541 0.72873 0.08054 0.0
C565 C 0.12227 0.75843 0.95076 0.0
C566 C 0.14435 0.76794 0.90043 0.0
N567 N 0.15061 0.76104 0.97892 0.0
C568 C 0.13409 0.75702 0.98617 0.0
C569 C 0.15582 0.76638 0.93665 0.0
C570 C 0.12747 0.76394 0.90764 0.0
C571 C 0.20986 0.73679 0.12837 0.0
N572 N 0.19378 0.73276 0.14087 0.0
C573 C 0.22238 0.72445 0.12684 0.0
C574 C 0.21836 0.70791 0.13835 0.0
C575 C 0.20195 0.70391 0.15125 0.0
C576 C 0.18976 0.71657 0.15237 0.0
C577 C 0.1782 0.73724 0.28193 0.0
C578 C 0.15383 0.74214 0.21509 0.0
C579 C 0.1826 0.74163 0.2371 0.0
N580 N 0.17047 0.74395 0.2043 0.0
C581 C 0.14896 0.73776 0.25955 0.0
C582 C 0.16125 0.7353 0.29313 0.0
C583 C 0.14868 0.77323 0.11408 0.0
C584 C 0.19921 0.79971 1.00824 0.0
C585 C 0.16476 0.7945 0.01129 0.0
C586 C 0.17098 0.81071 1.00375 0.0
C587 C 0.18833 0.8133 1.00223 0.0
N588 N 0.17551 0.78121 0.01698 0.0
C589 C 0.19254 0.78367 0.01567 0.0
Co590 Co 0.17732 0.25981 0.99352 0.0
Co591 Co 0.16126 0.25997 0.10401 0.0
O592 O 0.17949 0.25663 0.0597 0.0
C593 C 0.18844 0.22693 0.95719 0.0
O594 O 0.17329 0.22529 0.93951 0.0
C595 C 0.19097 0.27973 0.13902 0.0
O596 O 0.19376 0.28469 0.09676 0.0
O597 O 0.15488 0.28231 0.07585 0.0
O598 O 0.16307 0.28017 1.00221 0.0
H599 H 0.1023 0.27389 0.15332 0.0
H600 H 0.21134 0.2559 0.03439 0.0
O601 O 0.19173 0.23939 0.98341 0.0
H602 H 0.21195 0.31143 0.95868 0.0
H603 H 0.19865 0.2615 0.83068 0.0
H604 H 0.14902 0.26784 0.93065 0.0
H605 H 0.1866 0.29352 0.95563 0.0
H606 H 0.20129 0.25811 0.91452 0.0
O607 O 0.1778 0.2711 0.14804 0.0
H608 H 0.12524 0.26949 0.09768 0.0
H609 H 0.15904 0.25743 0.2061 0.0
H610 H 0.14584 0.27145 0.84697 0.0
H611 H 0.23708 0.27323 0.03755 0.0
H612 H 0.17077 0.26825 0.79637 0.0
H613 H 0.23747 0.30127 0.99974 0.0
O614 O 0.15668 0.24565 0.99257 0.0
H615 H 0.20095 0.21586 0.1649 0.0
H616 H 0.14152 0.22995 0.13374 0.0
H617 H 0.14861 0.20225 0.16668 0.0
H618 H 0.17852 0.19507 0.18268 0.0
H619 H 0.19331 0.24334 0.13147 0.0
H620 H 0.1365 0.26182 0.26293 0.0
H621 H 0.10787 0.27006 0.23663 0.0
O622 O 0.14474 0.24815 0.06212 0.0
C623 C 0.15544 0.28781 0.0345 0.0
C624 C 0.11472 0.27029 0.16521 0.0
C625 C 0.13392 0.26355 0.22673 0.0
N626 N 0.14346 0.26322 0.1486 0.0
C627 C 0.12775 0.26777 0.13386 0.0
C628 C 0.14665 0.26115 0.19439 0.0
C629 C 0.11786 0.26816 0.21195 0.0
C630 C 0.21146 0.268 0.01741 0.0
N631 N 0.19743 0.27372 0.99498 0.0
C632 C 0.22605 0.2778 0.0195 0.0
C633 C 0.22625 0.29353 0.99837 0.0
C634 C 0.21192 0.29926 0.97542 0.0
C635 C 0.19755 0.28912 0.97408 0.0
C636 C 0.18769 0.26295 0.85236 0.0
C637 C 0.15994 0.2665 0.90887 0.0
C638 C 0.18911 0.26103 0.89986 0.0
N639 N 0.17532 0.26281 0.9275 0.0
C640 C 0.15806 0.26853 0.86151 0.0
C641 C 0.17205 0.26673 0.83314 0.0
C642 C 0.14479 0.24268 0.02078 0.0
C643 C 0.18787 0.21886 0.15819 0.0
C644 C 0.15457 0.22689 0.1403 0.0
C645 C 0.1585 0.2112 0.15912 0.0
C646 C 0.17528 0.20719 0.16811 0.0
N647 N 0.16697 0.23831 0.13083 0.0
C648 C 0.18346 0.23443 0.13938 0.0
Co649 Co 0.34032 0.75173 0.47018 0.0
Co650 Co 0.35135 0.75975 0.58339 0.0
O651 O 0.33467 0.75818 0.53332 0.0
C652 C 0.32223 0.78424 0.45513 0.0
O653 O 0.32984 0.79095 0.49076 0.0
C654 C 0.32157 0.74074 0.62303 0.0
O655 O 0.31828 0.73456 0.58224 0.0
O656 O 0.36068 0.73674 0.56885 0.0
O657 O 0.35629 0.73443 0.49278 0.0
H658 H 0.40914 0.75539 0.65326 0.0
H659 H 0.30428 0.75298 0.49599 0.0
O660 O 0.32455 0.76887 0.44461 0.0
H661 H 0.31475 0.69414 0.45032 0.0
H662 H 0.3276 0.73849 0.30454 0.0
H663 H 0.37217 0.74385 0.42192 0.0
H664 H 0.33757 0.71518 0.44738 0.0
H665 H 0.3205 0.74623 0.38413 0.0
O666 O 0.33463 0.7499 0.62906 0.0
H667 H 0.38806 0.75347 0.59113 0.0
H668 H 0.34966 0.76965 0.68223 0.0
H669 H 0.37981 0.73593 0.34282 0.0
H670 H 0.281 0.73242 0.49868 0.0
H671 H 0.35744 0.73321 0.28348 0.0
H672 H 0.2862 0.70274 0.47597 0.0
O673 O 0.35875 0.76864 0.46814 0.0
H674 H 0.30578 0.8026 0.61002 0.0
H675 H 0.36708 0.79327 0.60098 0.0
H676 H 0.35629 0.8218 0.61637 0.0
H677 H 0.32542 0.8266 0.62113 0.0
H678 H 0.3171 0.77433 0.59414 0.0
H679 H 0.37029 0.7716 0.74543 0.0
H680 H 0.40029 0.7645 0.7311 0.0
O681 O 0.3683 0.77028 0.54064 0.0
C682 C 0.36265 0.72927 0.5303 0.0
C683 C 0.39611 0.75852 0.65993 0.0
C684 C 0.3743 0.7676 0.71167 0.0
N685 N 0.36765 0.76144 0.63298 0.0
C686 C 0.38412 0.75748 0.62486 0.0
C687 C 0.36266 0.7664 0.67577 0.0
C688 C 0.39113 0.76363 0.7036 0.0
C689 C 0.30658 0.74013 0.48559 0.0
N690 N 0.32227 0.73527 0.47173 0.0
C691 C 0.29338 0.72852 0.48739 0.0
C692 C 0.29631 0.71186 0.47473 0.0
C693 C 0.31234 0.70703 0.46041 0.0
C694 C 0.32524 0.71897 0.45909 0.0
C695 C 0.33746 0.7396 0.3301 0.0
C696 C 0.36235 0.74259 0.39636 0.0
C697 C 0.33352 0.74401 0.37522 0.0
N698 N 0.3459 0.74538 0.40773 0.0
C699 C 0.36676 0.73815 0.3516 0.0
C700 C 0.3542 0.73664 0.31832 0.0
C701 C 0.36931 0.77389 0.49793 0.0
C702 C 0.31926 0.80065 0.60822 0.0
C703 C 0.35364 0.79525 0.60283 0.0
C704 C 0.3476 0.81144 0.61167 0.0
C705 C 0.33028 0.81412 0.61437 0.0
N706 N 0.34275 0.78208 0.597 0.0
C707 C 0.32575 0.78464 0.59948 0.0
Co708 Co 0.51107 0.08901 0.73851 0.0
Co709 Co 0.50836 0.10536 0.84822 0.0
O710 O 0.50687 0.08684 0.80407 0.0
C711 C 0.47956 0.07523 0.6991 0.0
O712 O 0.47728 0.08993 0.67945 0.0
C713 C 0.52872 0.07683 0.88698 0.0
O714 O 0.53511 0.07468 0.84591 0.0
O715 O 0.53105 0.11244 0.82408 0.0
O716 O 0.53018 0.10475 0.74965 0.0
H717 H 0.51835 0.16499 0.89919 0.0
H718 H 0.50916 0.05484 0.77938 0.0
O719 O 0.49198 0.07305 0.7264 0.0
H720 H 0.5659 0.0587 0.71169 0.0
H721 H 0.51708 0.06742 0.57664 0.0
H722 H 0.51802 0.11763 0.67614 0.0
H723 H 0.54606 0.0825 0.70577 0.0
H724 H 0.5124 0.06478 0.65999 0.0
O725 O 0.519 0.08935 0.89451 0.0
H726 H 0.51633 0.14181 0.84318 0.0
H727 H 0.50333 0.10765 0.94949 0.0
H728 H 0.52283 0.12083 0.59298 0.0
H729 H 0.52846 0.03061 0.78525 0.0
H730 H 0.52236 0.09561 0.54262 0.0
H731 H 0.5571 0.03249 0.75151 0.0
O732 O 0.49541 0.10848 0.73517 0.0
H733 H 0.46429 0.06444 0.90227 0.0
H734 H 0.47684 0.12408 0.87007 0.0
H735 H 0.44861 0.11614 0.89771 0.0
H736 H 0.4422 0.08613 0.91419 0.0
H737 H 0.4923 0.0729 0.87415 0.0
H738 H 0.50531 0.13043 1.00673 0.0
H739 H 0.51282 0.15936 0.98167 0.0
O740 O 0.49713 0.12138 0.80365 0.0
C741 C 0.53707 0.11237 0.78331 0.0
C742 C 0.51509 0.15243 0.91055 0.0
C743 C 0.50779 0.13303 0.97091 0.0
N744 N 0.50981 0.12338 0.89301 0.0
C745 C 0.51394 0.13926 0.87897 0.0
C746 C 0.50677 0.12017 0.93835 0.0
C747 C 0.51199 0.14926 0.95682 0.0
C748 C 0.52152 0.05568 0.76407 0.0
N749 N 0.52648 0.07008 0.74227 0.0
C750 C 0.53243 0.04195 0.76773 0.0
C751 C 0.54851 0.04302 0.74888 0.0
C752 C 0.55346 0.05774 0.72661 0.0
C753 C 0.54222 0.07122 0.72361 0.0
C754 C 0.51734 0.07851 0.59822 0.0
C755 C 0.51786 0.10659 0.65447 0.0
C756 C 0.5147 0.07709 0.64544 0.0
N757 N 0.515 0.09104 0.67294 0.0
C758 C 0.52057 0.10848 0.6074 0.0
C759 C 0.5203 0.09432 0.57916 0.0
C760 C 0.49197 0.12068 0.762 0.0
C761 C 0.46695 0.07757 0.89537 0.0
C762 C 0.47414 0.11099 0.87701 0.0
C763 C 0.45814 0.10657 0.89275 0.0
C764 C 0.45456 0.08974 0.902 0.0
N765 N 0.48628 0.09899 0.87084 0.0
C766 C 0.48282 0.08245 0.87959 0.0
Co767 Co 1.00732 0.92756 0.23486 0.0
Co768 Co 0.00932 0.91316 0.34732 0.0
O769 O 0.01143 0.93083 0.30049 0.0
C770 C 0.03939 0.93847 0.19317 0.0
O771 O 0.04044 0.92328 0.17567 0.0
C772 C 0.98984 0.9431 0.38289 0.0
O773 O 0.98493 0.94636 0.34078 0.0
O774 O 0.98675 0.90575 0.32231 0.0
O775 O 0.98737 0.91321 0.24772 0.0
H776 H 0.9983 0.85449 0.40449 0.0
H777 H 0.0113 0.96232 0.27032 0.0
O778 O 0.02739 0.94207 0.22058 0.0
H779 H 0.95443 0.96055 0.20201 0.0
H780 H 1.00231 0.94615 0.06978 0.0
H781 H 0.99878 0.89816 0.17678 0.0
H782 H 0.97279 0.93553 0.20012 0.0
H783 H 1.00728 0.95021 0.15265 0.0
O784 O 0.99835 0.92978 0.39118 0.0
H785 H 1.00099 0.87678 0.346 0.0
H786 H 0.0136 0.91238 0.44925 0.0
H787 H 0.99365 0.89355 0.09419 0.0
H788 H 0.9935 0.98775 0.27217 0.0
H789 H 0.99542 0.91766 0.04006 0.0
H790 H 0.96479 0.98693 0.23809 0.0
O791 O 0.02188 0.90715 0.23476 0.0
H792 H 0.05316 0.95492 0.3985 0.0
H793 H 0.04042 0.89476 0.37558 0.0
H794 H 0.06843 0.90312 0.40438 0.0
H795 H 0.07492 0.9334 0.41621 0.0
H796 H 0.02539 0.94602 0.36926 0.0
H797 H 0.01092 0.89052 0.50887 0.0
H798 H 1.00328 0.86132 0.48662 0.0
O799 O 0.02091 0.89646 0.3061 0.0
C800 C 0.98049 0.90583 0.28167 0.0
C801 C 1.00162 0.86718 0.41462 0.0
C802 C 0.00868 0.8874 0.47321 0.0
N803 N 1.00736 0.89588 0.39414 0.0
C804 C 1.00316 0.87985 0.38164 0.0
C805 C 0.01009 0.89975 0.43929 0.0
C806 C 1.00441 0.87102 0.4607 0.0
C807 C 0.99891 0.96192 0.25494 0.0
N808 N 0.99307 0.94742 0.23529 0.0
C809 C 0.98885 0.97634 0.2563 0.0
C810 C 0.97273 0.97586 0.23726 0.0
C811 C 0.96689 0.96105 0.2171 0.0
C812 C 0.97729 0.94688 0.21643 0.0
C813 C 1.00148 0.93555 0.09302 0.0
C814 C 0.99952 0.90872 0.15346 0.0
C815 C 1.00429 0.93777 0.13998 0.0
N816 N 1.00327 0.92444 0.16957 0.0
C817 C 0.99662 0.90603 0.10672 0.0
C818 C 0.99762 0.91956 0.07637 0.0
C819 C 0.02563 0.89587 0.2642 0.0
C820 C 0.05046 0.94168 0.39362 0.0
C821 C 0.04317 0.90796 0.38039 0.0
C822 C 0.05904 0.91261 0.39685 0.0
C823 C 0.06267 0.9296 0.4035 0.0
N824 N 0.03121 0.91986 0.37098 0.0
C825 C 0.03472 0.93655 0.37722 0.0
Co826 Co 0.51169 0.92664 0.37125 0.0
Co827 Co 0.50962 0.91214 0.25922 0.0
O828 O 0.50776 0.92988 0.30569 0.0
C829 C 0.47973 0.93887 0.41113 0.0
O830 O 0.47768 0.92373 0.42839 0.0
C831 C 0.5298 0.94161 0.22477 0.0
O832 O 0.53543 0.94383 0.26671 0.0
O833 O 0.53212 0.90457 0.28424 0.0
O834 O 0.53121 0.91163 0.35909 0.0
H835 H 0.52018 0.8534 0.20214 0.0
H836 H 0.50901 0.96144 0.33491 0.0
O837 O 0.49213 0.94184 0.38454 0.0
H838 H 0.56557 0.95788 0.40468 0.0
H839 H 0.51653 0.94553 0.53601 0.0
H840 H 0.51918 0.89716 0.43021 0.0
H841 H 0.54637 0.93349 0.40649 0.0
H842 H 0.51208 0.9495 0.45289 0.0
O843 O 0.52068 0.92878 0.21556 0.0
H844 H 0.51769 0.87571 0.2606 0.0
H845 H 0.50533 0.91142 0.15736 0.0
H846 H 0.5238 0.89264 0.51307 0.0
H847 H 0.52767 0.98625 0.33314 0.0
H848 H 0.52247 0.91693 0.56659 0.0
H849 H 0.55622 0.98453 0.36795 0.0
O850 O 0.49652 0.90673 0.37139 0.0
H851 H 0.46611 0.95421 0.20784 0.0
H852 H 0.47835 0.89397 0.23129 0.0
H853 H 0.45039 0.90254 0.20257 0.0
H854 H 0.44414 0.93286 0.19048 0.0
H855 H 0.49382 0.94511 0.237 0.0
H856 H 0.5078 0.88955 0.09774 0.0
H857 H 0.51522 0.86028 0.12001 0.0
O858 O 0.49788 0.89551 0.3007 0.0
C859 C 0.53816 0.90437 0.32511 0.0
C860 C 0.51695 0.86611 0.19199 0.0
C861 C 0.51002 0.8864 0.1334 0.0
N862 N 0.51142 0.89485 0.21245 0.0
C863 C 0.51552 0.87879 0.22496 0.0
C864 C 0.50872 0.89876 0.16731 0.0
C865 C 0.51417 0.86998 0.14592 0.0
C866 C 0.52133 0.96065 0.35066 0.0
N867 N 0.5266 0.94601 0.37073 0.0
C868 C 0.53188 0.97472 0.34933 0.0
C869 C 0.54791 0.97374 0.36878 0.0
C870 C 0.55318 0.95878 0.38931 0.0
C871 C 0.54229 0.94497 0.38997 0.0
C872 C 0.51716 0.93484 0.51303 0.0
C873 C 0.51865 0.9078 0.45326 0.0
C874 C 0.51464 0.93701 0.46594 0.0
N875 N 0.51541 0.92357 0.43669 0.0
C876 C 0.52124 0.90516 0.50016 0.0
C877 C 0.52049 0.9188 0.53017 0.0
C878 C 0.49286 0.89527 0.3424 0.0
C879 C 0.4687 0.94096 0.21284 0.0
C880 C 0.47571 0.90719 0.22636 0.0
C881 C 0.45986 0.91196 0.20995 0.0
C882 C 0.45637 0.92897 0.20315 0.0
N883 N 0.48777 0.91901 0.2356 0.0
C884 C 0.4844 0.93572 0.22921 0.0
Co885 Co 1.0008 0.09075 0.89368 0.0
Co886 Co 0.00864 0.10081 0.78025 0.0
O887 O 1.00675 0.0844 0.83068 0.0
C888 C 0.032 0.07056 0.90786 0.0
O889 O 0.03889 0.07772 0.87189 0.0
C890 C 0.98942 0.07106 0.74097 0.0
O891 O 0.98301 0.06811 0.78161 0.0
O892 O 0.98565 0.11021 0.79406 0.0
O893 O 0.98456 0.10783 0.87093 0.0
H894 H 1.00451 0.15823 0.70868 0.0
H895 H 0.9995 0.05453 0.86956 0.0
O896 O 0.01693 0.07395 0.91935 0.0
H897 H 0.9415 0.06947 0.91395 0.0
H898 H 0.98719 0.07962 0.05974 0.0
H899 H 0.99523 0.12325 0.94132 0.0
H900 H 0.96409 0.09075 0.91601 0.0
H901 H 0.99422 0.07171 0.98022 0.0
O902 O 0.9988 0.08395 0.73482 0.0
H903 H 1.00232 0.13743 0.77128 0.0
H904 H 0.0189 0.09866 0.6818 0.0
H905 H 0.98809 0.1317 0.02034 0.0
H906 H 0.97734 0.03276 0.86782 0.0
H907 H 0.98402 0.1098 0.0802 0.0
H908 H 0.94808 0.04021 0.88989 0.0
O909 O 0.01889 0.10798 0.89487 0.0
H910 H 0.05125 0.05488 0.75534 0.0
H911 H 0.04235 0.11623 0.76312 0.0
H912 H 0.07084 0.10519 0.74856 0.0
H913 H 0.07543 0.0743 0.74442 0.0
H914 H 0.02301 0.06645 0.77046 0.0
H915 H 0.02111 0.119 0.61815 0.0
H916 H 0.01397 0.14904 0.63144 0.0
O917 O 0.01922 0.11797 0.82278 0.0
C918 C 0.97897 0.11345 0.833 0.0
C919 C 1.00769 0.14518 0.70248 0.0
C920 C 0.01698 0.12316 0.65165 0.0
N921 N 0.01052 0.11686 0.73029 0.0
C922 C 1.0065 0.13335 0.73782 0.0
C923 C 0.01564 0.11168 0.6878 0.0
C924 C 0.01298 0.14001 0.65914 0.0
C925 C 0.98684 0.05781 0.87974 0.0
N926 N 0.9831 0.0739 0.89279 0.0
C927 C 0.97433 0.04545 0.87846 0.0
C928 C 0.9579 0.04965 0.89076 0.0
C929 C 0.9542 0.06607 0.90419 0.0
C930 C 0.96703 0.0781 0.90504 0.0
C931 C 0.9889 0.08927 0.03394 0.0
C932 C 0.99338 0.11363 0.9671 0.0
C933 C 0.9929 0.08487 0.98886 0.0
N934 N 0.99502 0.097 0.95606 0.0
C935 C 0.98938 0.1185 0.01182 0.0
C936 C 0.98712 0.10621 0.0454 0.0
C937 C 0.02365 0.11869 0.86502 0.0
C938 C 0.0494 0.06837 0.75687 0.0
C939 C 0.04424 0.10278 0.76161 0.0
C940 C 0.0604 0.0966 0.7532 0.0
C941 C 0.06297 0.07927 0.75084 0.0
N942 N 0.03097 0.09202 0.76737 0.0
C943 C 0.0334 0.07501 0.76518 0.0
C944 C 0.1479 0.69864 0.09656 0.0
C945 C 0.14203 0.71468 0.08423 0.0
C946 C 0.13702 0.68681 0.11645 0.0
C947 C 0.09153 0.67868 0.14644 0.0
H948 H 0.11145 0.65151 0.24305 0.0
C949 C 0.05032 0.64208 0.27554 0.0
C950 C 0.0541 0.62486 0.27918 0.0
C951 C 0.06171 0.6532 0.25474 0.0
C952 C 0.10571 0.65898 0.21611 0.0
H953 H 0.1202 0.73092 0.08273 0.0
H954 H 0.10123 0.71055 0.11761 0.0
H955 H 0.12934 0.66966 0.19651 0.0
H956 H 0.07288 0.60585 0.26517 0.0
H957 H 0.09314 0.62536 0.23076 0.0
H958 H 0.06782 0.66828 0.16728 0.0
C959 C 0.11405 0.70669 0.11075 0.0
C960 C 0.11599 0.66931 0.18894 0.0
C961 C 0.1249 0.71841 0.09025 0.0
C962 C 0.0699 0.61915 0.26416 0.0
C963 C 0.08141 0.63031 0.24401 0.0
C964 C 0.08124 0.66855 0.17408 0.0
C965 C 0.12007 0.69089 0.12568 0.0
C966 C 0.10909 0.67933 0.15353 0.0
C967 C 0.07717 0.64734 0.23739 0.0
C968 C 0.08818 0.65857 0.20928 0.0
H969 H 0.16116 0.69563 0.09349 0.0
H970 H 0.14213 0.67469 0.12628 0.0
H971 H 0.08567 0.68589 0.11921 0.0
H972 H 0.03801 0.6467 0.28537 0.0
H973 H 0.05812 0.66626 0.25048 0.0
C974 C 0.56574 0.90026 0.36495 0.0
C975 C 0.553 0.8938 0.33641 0.0
C976 C 0.57747 0.88955 0.38597 0.0
C977 C 0.59263 0.84456 0.38959 0.0
H978 H 0.60672 0.85705 0.51263 0.0
C979 C 0.62339 0.79653 0.51135 0.0
C980 C 0.63912 0.80122 0.52947 0.0
C981 C 0.6128 0.8085 0.49105 0.0
C982 C 0.60295 0.85343 0.47825 0.0
H983 H 0.5428 0.87103 0.30674 0.0
H984 H 0.56284 0.85223 0.34402 0.0
H985 H 0.5893 0.87631 0.46776 0.0
H986 H 0.65597 0.82215 0.54151 0.0
H987 H 0.63703 0.84337 0.50781 0.0
H988 H 0.60581 0.82137 0.4012 0.0
C989 C 0.56425 0.86563 0.34939 0.0
C990 C 0.59305 0.86455 0.45214 0.0
C991 C 0.55271 0.87644 0.32765 0.0
C992 C 0.64364 0.81831 0.52937 0.0
C993 C 0.63289 0.83039 0.50951 0.0
C994 C 0.60226 0.83336 0.41603 0.0
C995 C 0.57655 0.87196 0.38 0.0
C996 C 0.58769 0.8603 0.4073 0.0
C997 C 0.61766 0.82548 0.48847 0.0
C998 C 0.60749 0.83762 0.46073 0.0
H999 H 0.56625 0.91361 0.37241 0.0
H1000 H 0.58699 0.8951 0.40792 0.0
H1001 H 0.58918 0.84085 0.35509 0.0
H1002 H 0.61984 0.78337 0.50976 0.0
H1003 H 0.60109 0.80434 0.47556 0.0
C1004 C 0.47246 0.3774 0.74126 0.0
C1005 C 0.46852 0.39182 0.76685 0.0
C1006 C 0.45975 0.36719 0.72308 0.0
C1007 C 0.41367 0.35785 0.72807 0.0
H1008 H 0.42296 0.33685 0.61066 0.0
C1009 C 0.37299 0.30338 0.65861 0.0
C1010 C 0.37091 0.30094 0.61099 0.0
C1011 C 0.3836 0.31591 0.6758 0.0
C1012 C 0.41997 0.34277 0.64309 0.0
H1013 H 0.44819 0.40693 0.79381 0.0
H1014 H 0.42573 0.38921 0.76142 0.0
H1015 H 0.44357 0.35571 0.64466 0.0
H1016 H 0.37828 0.31036 0.54418 0.0
H1017 H 0.39659 0.33265 0.57424 0.0
H1018 H 0.38982 0.34531 0.72575 0.0
C1019 C 0.43871 0.38552 0.75617 0.0
C1020 C 0.43199 0.35342 0.66316 0.0
C1021 C 0.45154 0.39567 0.77496 0.0
C1022 C 0.37952 0.31183 0.581 0.0
C1023 C 0.39015 0.32453 0.59834 0.0
C1024 C 0.40157 0.34731 0.70777 0.0
C1025 C 0.44265 0.3713 0.7291 0.0
C1026 C 0.42921 0.36085 0.70646 0.0
C1027 C 0.39249 0.32664 0.64611 0.0
C1028 C 0.40466 0.33931 0.66539 0.0
H1029 H 0.48549 0.37421 0.73435 0.0
H1030 H 0.46342 0.35615 0.70376 0.0
H1031 H 0.41097 0.36326 0.76135 0.0
H1032 H 0.36669 0.2953 0.68313 0.0
H1033 H 0.38521 0.31677 0.71263 0.0
C1034 C 0.89203 0.21667 0.02923 0.0
C1035 C 0.87463 0.2135 0.02943 0.0
C1036 C 0.90319 0.20519 1.00897 0.0
C1037 C 0.9084 0.16167 0.96642 0.0
H1038 H 0.93716 0.1821 0.8746 0.0
C1039 C 0.94881 0.11995 0.84741 0.0
C1040 C 0.9651 0.12566 0.83718 0.0
C1041 C 0.93694 0.13082 0.86719 0.0
C1042 C 0.92944 0.17612 0.90044 0.0
H1043 H 0.85532 0.1956 0.01031 0.0
H1044 H 0.87484 0.17515 0.9769 0.0
H1045 H 0.91936 0.19983 0.9224 0.0
H1046 H 0.98179 0.14713 0.83948 0.0
H1047 H 0.96139 0.16605 0.87426 0.0
H1048 H 0.91874 0.13802 0.94577 0.0
C1049 C 0.87989 0.1865 0.99226 0.0
C1050 C 0.9192 0.18634 0.92792 0.0
C1051 C 0.86872 0.19812 0.01177 0.0
C1052 C 0.9691 0.1426 0.84537 0.0
C1053 C 0.95735 0.15341 0.86575 0.0
C1054 C 0.91884 0.15144 0.93947 0.0
C1055 C 0.89717 0.19022 0.98892 0.0
C1056 C 0.90855 0.17926 0.96124 0.0
C1057 C 0.94124 0.14756 0.8784 0.0
C1058 C 0.92954 0.15848 0.90592 0.0
H1059 H 0.89686 0.22865 0.04121 0.0
H1060 H 0.91644 0.20835 1.00722 0.0
H1061 H 0.90037 0.15583 0.99187 0.0
H1062 H 0.94559 0.1068 0.84272 0.0
H1063 H 0.92461 0.12585 0.87529 0.0
C1064 C 0.06536 0.40062 0.87732 0.0
C1065 C 0.05341 0.39453 0.84569 0.0
C1066 C 0.07761 0.38996 0.89612 0.0
C1067 C 0.08422 0.34555 0.92581 0.0
H1068 H 0.13061 0.35894 0.94621 0.0
C1069 C 0.12995 0.30669 0.04123 0.0
C1070 C 0.14555 0.30297 0.02084 0.0
C1071 C 0.11916 0.31879 0.02164 0.0
C1072 C 0.11769 0.35501 0.94086 0.0
H1073 H 0.04534 0.37248 0.80793 0.0
H1074 H 0.06674 0.35373 0.84095 0.0
H1075 H 0.11157 0.37761 0.90404 0.0
H1076 H 0.16235 0.30985 0.96535 0.0
H1077 H 0.14391 0.33106 0.93229 0.0
H1078 H 0.09034 0.32296 0.96275 0.0
C1079 C 0.0666 0.36684 0.85113 0.0
C1080 C 0.10676 0.36574 0.91677 0.0
C1081 C 0.05449 0.37763 0.83168 0.0
C1082 C 0.15048 0.31235 0.9821 0.0
C1083 C 0.13987 0.32458 0.96307 0.0
C1084 C 0.0951 0.33492 0.95045 0.0
C1085 C 0.07808 0.3728 0.88439 0.0
C1086 C 0.0899 0.36112 0.90869 0.0
C1087 C 0.12388 0.32766 0.98177 0.0
C1088 C 0.11201 0.33947 0.95812 0.0
H1089 H 0.06484 0.41355 0.8889 0.0
H1090 H 0.08618 0.39498 0.92166 0.0
H1091 H 0.07126 0.34169 0.92076 0.0
H1092 H 0.12567 0.29965 0.07081 0.0
H1093 H 0.10698 0.321 0.0372 0.0
C1094 C 0.96472 0.87846 0.28505 0.0
C1095 C 0.96557 0.89529 0.27041 0.0
C1096 C 0.9534 0.86718 0.26423 0.0
C1097 C 0.91512 0.86351 0.19163 0.0
H1098 H 0.93624 0.82269 0.14719 0.0
C1099 C 0.87798 0.81562 0.07873 0.0
C1100 C 0.88075 0.79859 0.08907 0.0
C1101 C 0.88874 0.8281 0.0968 0.0
C1102 C 0.92999 0.83389 0.15974 0.0
H1103 H 0.95431 0.91374 0.22495 0.0
H1104 H 0.93426 0.89428 0.18988 0.0
H1105 H 0.95257 0.84261 0.19253 0.0
H1106 H 0.89706 0.78118 0.12506 0.0
H1107 H 0.91555 0.80254 0.15642 0.0
H1108 H 0.89239 0.85461 0.15998 0.0
C1109 C 0.94247 0.8897 0.2169 0.0
C1110 C 0.93941 0.84533 0.18587 0.0
C1111 C 0.95397 0.90087 0.23706 0.0
C1112 C 0.89484 0.79422 0.11579 0.0
C1113 C 0.90547 0.80656 0.13385 0.0
C1114 C 0.90558 0.85192 0.16602 0.0
C1115 C 0.94248 0.87258 0.22895 0.0
C1116 C 0.9321 0.86024 0.20239 0.0
C1117 C 0.9024 0.82375 0.12574 0.0
C1118 C 0.91284 0.83684 0.1499 0.0
H1119 H 0.97358 0.87369 0.31018 0.0
H1120 H 0.95358 0.85409 0.27467 0.0
H1121 H 0.90911 0.8749 0.20381 0.0
H1122 H 0.86698 0.81935 0.05913 0.0
H1123 H 0.88605 0.84116 0.08916 0.0
C1124 C 0.36842 0.69982 0.5063 0.0
C1125 C 0.37434 0.71492 0.52562 0.0
C1126 C 0.37961 0.68833 0.4863 0.0
C1127 C 0.4196 0.68857 0.42464 0.0
H1128 H 0.41783 0.64 0.43575 0.0
C1129 C 0.46964 0.64517 0.34171 0.0
C1130 C 0.46536 0.62855 0.33035 0.0
C1131 C 0.45784 0.65588 0.36222 0.0
C1132 C 0.41831 0.65352 0.43136 0.0
H1133 H 0.39664 0.72966 0.54006 0.0
H1134 H 0.41626 0.70957 0.50538 0.0
H1135 H 0.39936 0.6574 0.48277 0.0
H1136 H 0.44532 0.61015 0.33055 0.0
H1137 H 0.42429 0.62908 0.36362 0.0
H1138 H 0.43811 0.68485 0.37241 0.0
C1139 C 0.40296 0.70653 0.50605 0.0
C1140 C 0.4078 0.6635 0.45882 0.0
C1141 C 0.39177 0.71789 0.52673 0.0
C1142 C 0.44878 0.62309 0.3376 0.0
C1143 C 0.43687 0.63386 0.35768 0.0
C1144 C 0.42993 0.6786 0.39671 0.0
C1145 C 0.39695 0.69189 0.48423 0.0
C1146 C 0.40841 0.68116 0.45609 0.0
C1147 C 0.4414 0.65023 0.37198 0.0
C1148 C 0.42957 0.6609 0.39978 0.0
H1149 H 0.35501 0.69743 0.50394 0.0
H1150 H 0.37454 0.67724 0.46963 0.0
H1151 H 0.42013 0.70213 0.42093 0.0
H1152 H 0.48254 0.64946 0.33813 0.0
H1153 H 0.46204 0.6682 0.37317 0.0
C1154 C 0.64491 0.19682 0.58538 0.0
C1155 C 0.63997 0.2137 0.58108 0.0
C1156 C 0.63383 0.18482 0.60379 0.0
C1157 C 0.58904 0.17888 0.6449 0.0
H1158 H 0.6096 0.14466 0.72177 0.0
C1159 C 0.55092 0.14056 0.77811 0.0
C1160 C 0.55174 0.12305 0.7717 0.0
C1161 C 0.56241 0.15125 0.75603 0.0
C1162 C 0.6037 0.15415 0.70038 0.0
H1163 H 0.61971 0.23133 0.59255 0.0
H1164 H 0.60053 0.21077 0.62521 0.0
H1165 H 0.62742 0.16344 0.6768 0.0
H1166 H 0.56573 0.10297 0.73918 0.0
H1167 H 0.58628 0.12158 0.70236 0.0
H1168 H 0.56534 0.1699 0.67038 0.0
C1169 C 0.6126 0.20638 0.61295 0.0
C1170 C 0.61389 0.16485 0.67403 0.0
C1171 C 0.62358 0.21825 0.59387 0.0
C1172 C 0.56492 0.1164 0.74513 0.0
C1173 C 0.57664 0.12705 0.72394 0.0
C1174 C 0.5789 0.16842 0.67199 0.0
C1175 C 0.6177 0.18954 0.6196 0.0
C1176 C 0.60675 0.17744 0.64583 0.0
C1177 C 0.57515 0.14462 0.72784 0.0
C1178 C 0.5861 0.15596 0.7001 0.0
H1179 H 0.65769 0.19311 0.57713 0.0
H1180 H 0.6382 0.17198 0.60721 0.0
H1181 H 0.5829 0.18806 0.62309 0.0
H1182 H 0.54072 0.14608 0.79747 0.0
H1183 H 0.56103 0.16474 0.75986 0.0
C1184 C 0.97452 0.36972 0.83512 0.0
C1185 C 0.98197 0.38057 0.86754 0.0
C1186 C 0.96319 0.35717 0.84896 0.0
C1187 C 0.94942 0.33202 0.94923 0.0
H1188 H 0.90752 0.32771 0.88162 0.0
C1189 C 0.8936 0.29206 0.01741 0.0
C1190 C 0.88322 0.28367 0.98552 0.0
C1191 C 0.90618 0.30319 1.00263 0.0
C1192 C 0.91924 0.32849 0.90056 0.0
H1193 H 0.98376 0.38612 0.94038 0.0
H1194 H 0.96418 0.36421 0.96431 0.0
H1195 H 0.92866 0.34785 0.85626 0.0
H1196 H 0.87848 0.28009 0.91275 0.0
H1197 H 0.90061 0.29901 0.88713 0.0
H1198 H 0.94014 0.31256 0.99331 0.0
C1199 C 0.96703 0.36547 0.92814 0.0
C1200 C 0.93138 0.34011 0.88599 0.0
C1201 C 0.97821 0.37813 0.9143 0.0
C1202 C 0.88607 0.28643 0.93844 0.0
C1203 C 0.89874 0.29742 0.92368 0.0
C1204 C 0.93734 0.32027 0.9636 0.0
C1205 C 0.9592 0.35497 0.89562 0.0
C1206 C 0.94658 0.34211 0.91027 0.0
C1207 C 0.90889 0.30613 0.95552 0.0
C1208 C 0.92201 0.31838 0.93964 0.0
H1209 H 0.97717 0.37109 0.79889 0.0
H1210 H 0.95756 0.34915 0.82306 0.0
H1211 H 0.96107 0.33309 0.96843 0.0
H1212 H 0.89186 0.29026 0.05393 0.0
H1213 H 0.91354 0.30976 0.02833 0.0
C1214 C 0.47617 0.14819 0.77119 0.0
C1215 C 0.4811 0.13449 0.74363 0.0
C1216 C 0.46528 0.16063 0.75384 0.0
C1217 C 0.43195 0.16628 0.66754 0.0
H1218 H 0.43864 0.21421 0.68529 0.0
C1219 C 0.37908 0.21479 0.63879 0.0
C1220 C 0.38278 0.22923 0.6127 0.0
C1221 C 0.39183 0.20381 0.65283 0.0
C1222 C 0.43669 0.20087 0.67984 0.0
H1223 H 0.47887 0.12372 0.6753 0.0
H1224 H 0.45979 0.14507 0.64587 0.0
H1225 H 0.45969 0.19416 0.71453 0.0
H1226 H 0.40295 0.2434 0.58092 0.0
H1227 H 0.42546 0.22422 0.60644 0.0
H1228 H 0.40887 0.17285 0.63371 0.0
C1229 C 0.46421 0.14612 0.68097 0.0
C1230 C 0.44864 0.1894 0.69692 0.0
C1231 C 0.47518 0.13384 0.69801 0.0
C1232 C 0.39967 0.23239 0.60091 0.0
C1233 C 0.41255 0.22148 0.61575 0.0
C1234 C 0.41993 0.17768 0.65117 0.0
C1235 C 0.45896 0.15957 0.70873 0.0
C1236 C 0.4464 0.17196 0.69092 0.0
C1237 C 0.40873 0.20702 0.64172 0.0
C1238 C 0.4221 0.19511 0.65719 0.0
H1239 H 0.48051 0.1492 0.80636 0.0
H1240 H 0.46142 0.17082 0.77615 0.0
H1241 H 0.42977 0.15294 0.66262 0.0
H1242 H 0.36624 0.21183 0.64813 0.0
H1243 H 0.38847 0.19286 0.673 0.0
C1244 C 0.54343 0.6446 0.33913 0.0
C1245 C 0.53569 0.63407 0.37178 0.0
C1246 C 0.55503 0.65695 0.35279 0.0
C1247 C 0.56869 0.68258 0.45212 0.0
H1248 H 0.61092 0.68609 0.38646 0.0
C1249 C 0.62396 0.72384 0.51916 0.0
C1250 C 0.63448 0.73175 0.48686 0.0
C1251 C 0.61155 0.71236 0.50504 0.0
C1252 C 0.5991 0.68554 0.40484 0.0
H1253 H 0.53388 0.62876 0.44475 0.0
H1254 H 0.5539 0.65037 0.46834 0.0
H1255 H 0.58983 0.66579 0.36146 0.0
H1256 H 0.63963 0.73412 0.414 0.0
H1257 H 0.6178 0.71468 0.38948 0.0
H1258 H 0.57777 0.70248 0.49511 0.0
C1259 C 0.55103 0.64901 0.43215 0.0
C1260 C 0.58701 0.67382 0.39049 0.0
C1261 C 0.5396 0.63653 0.41851 0.0
C1262 C 0.63195 0.72816 0.44002 0.0
C1263 C 0.61945 0.71685 0.4259 0.0
C1264 C 0.58071 0.69445 0.46621 0.0
C1265 C 0.55902 0.65927 0.39947 0.0
C1266 C 0.57167 0.67212 0.41405 0.0
C1267 C 0.60915 0.70861 0.45816 0.0
C1268 C 0.59616 0.69608 0.44291 0.0
H1269 H 0.54067 0.64321 0.30292 0.0
H1270 H 0.56082 0.66477 0.32677 0.0
H1271 H 0.55692 0.68173 0.47074 0.0
H1272 H 0.62545 0.7263 0.55549 0.0
H1273 H 0.60407 0.70618 0.53109 0.0
C1274 C 0.12431 0.79279 0.09771 0.0
C1275 C 0.13486 0.78459 0.12955 0.0
C1276 C 0.11181 0.80401 0.11249 0.0
C1277 C 0.0993 0.82981 0.21416 0.0
H1278 H 0.05708 0.83409 0.14796 0.0
C1279 C 0.04424 0.87086 0.2813 0.0
C1280 C 0.0366 0.88168 0.24911 0.0
C1281 C 0.05552 0.85833 0.26711 0.0
C1282 C 0.06885 0.83311 0.16668 0.0
H1283 H 0.13999 0.78143 0.20229 0.0
H1284 H 0.11801 0.80048 0.22793 0.0
H1285 H 0.07792 0.81353 0.12273 0.0
H1286 H 0.03443 0.8872 0.1763 0.0
H1287 H 0.05392 0.86531 0.15175 0.0
H1288 H 0.09008 0.84928 0.25838 0.0
C1289 C 0.11969 0.7987 0.19139 0.0
C1290 C 0.08087 0.82134 0.15211 0.0
C1291 C 0.13228 0.78763 0.17661 0.0
C1292 C 0.04013 0.87923 0.20221 0.0
C1293 C 0.05125 0.86659 0.18802 0.0
C1294 C 0.08722 0.84144 0.22896 0.0
C1295 C 0.10936 0.80722 0.15958 0.0
C1296 C 0.09633 0.81956 0.1755 0.0
C1297 C 0.05928 0.85613 0.22032 0.0
C1298 C 0.07187 0.8433 0.2053 0.0
H1299 H 0.12585 0.79077 0.06121 0.0
H1300 H 0.10431 0.81043 0.0868 0.0
H1301 H 0.11113 0.82913 0.23263 0.0
H1302 H 0.04178 0.87224 0.31763 0.0
H1303 H 0.06131 0.85035 0.29284 0.0
C1304 C 0.98007 0.63411 0.19088 0.0
C1305 C 0.98345 0.63138 0.23782 0.0
C1306 C 0.96861 0.64651 0.17682 0.0
C1307 C 0.93168 0.67019 0.21669 0.0
H1308 H 0.94153 0.70032 0.11552 0.0
C1309 C 0.88649 0.72451 0.16982 0.0
C1310 C 0.88438 0.72891 0.12334 0.0
C1311 C 0.89901 0.71314 0.1834 0.0
C1312 C 0.93842 0.69186 0.1434 0.0
H1313 H 0.97755 0.64002 0.30659 0.0
H1314 H 0.95737 0.6614 0.282 0.0
H1315 H 0.96248 0.67961 0.13972 0.0
H1316 H 0.89415 0.72484 0.05481 0.0
H1317 H 0.91556 0.70454 0.07818 0.0
H1318 H 0.90751 0.68197 0.21984 0.0
C1319 C 0.96358 0.65385 0.25614 0.0
C1320 C 0.9505 0.68002 0.1574 0.0
C1321 C 0.9752 0.6416 0.27022 0.0
C1322 C 0.89532 0.72173 0.09086 0.0
C1323 C 0.90774 0.71015 0.10441 0.0
C1324 C 0.91953 0.68187 0.20239 0.0
C1325 C 0.96008 0.65641 0.20927 0.0
C1326 C 0.9473 0.66909 0.19436 0.0
C1327 C 0.90972 0.7056 0.15092 0.0
C1328 C 0.92272 0.69297 0.16565 0.0
H1329 H 0.98621 0.62658 0.16483 0.0
H1330 H 0.96614 0.64808 0.14048 0.0
H1331 H 0.92869 0.66177 0.24478 0.0
H1332 H 0.87849 0.7299 0.19603 0.0
H1333 H 0.90033 0.71037 0.21962 0.0
C1334 C 0.0429 0.14326 0.8484 0.0
C1335 C 0.03497 0.1326 0.88036 0.0
C1336 C 0.05399 0.15592 0.86307 0.0
C1337 C 0.06568 0.18204 0.9634 0.0
H1338 H 0.10868 0.18639 0.90195 0.0
C1339 C 0.11961 0.22402 0.0358 0.0
C1340 C 0.13068 0.23177 1.00463 0.0
C1341 C 0.10729 0.21265 0.02039 0.0
C1342 C 0.09663 0.18562 0.91913 0.0
H1343 H 0.03227 0.12735 0.95315 0.0
H1344 H 0.05141 0.14949 0.97849 0.0
H1345 H 0.08839 0.16562 0.87509 0.0
H1346 H 0.13675 0.23423 0.93233 0.0
H1347 H 0.11507 0.21503 0.90555 0.0
H1348 H 0.07376 0.20218 1.00707 0.0
C1349 C 0.04908 0.14801 0.94206 0.0
C1350 C 0.085 0.17362 0.90371 0.0
C1351 C 0.03817 0.13522 0.92742 0.0
C1352 C 0.12865 0.22834 0.95753 0.0
C1353 C 0.11624 0.21716 0.94212 0.0
C1354 C 0.07725 0.19419 0.97854 0.0
C1355 C 0.05726 0.15843 0.91009 0.0
C1356 C 0.0694 0.1716 0.92576 0.0
C1357 C 0.10554 0.20889 0.97331 0.0
C1358 C 0.09296 0.19614 0.95676 0.0
H1359 H 0.04068 0.14175 0.81195 0.0
H1360 H 0.05994 0.16385 0.83756 0.0
H1361 H 0.0537 0.18094 0.98086 0.0
H1362 H 0.12075 0.22634 0.07228 0.0
H1363 H 0.09947 0.20647 0.04566 0.0
C1364 C 0.62448 0.29156 0.59997 0.0
C1365 C 0.63465 0.2826 0.63117 0.0
C1366 C 0.61211 0.30274 0.61563 0.0
C1367 C 0.59907 0.32677 0.72021 0.0
H1368 H 0.55812 0.33378 0.64999 0.0
C1369 C 0.54413 0.36951 0.78324 0.0
C1370 C 0.53825 0.38126 0.75075 0.0
C1371 C 0.55514 0.35654 0.77016 0.0
C1372 C 0.56952 0.33198 0.66993 0.0
H1373 H 0.63922 0.27803 0.70361 0.0
H1374 H 0.61738 0.29697 0.73074 0.0
H1375 H 0.57852 0.31287 0.62451 0.0
H1376 H 0.53897 0.38807 0.67853 0.0
H1377 H 0.5578 0.36544 0.65595 0.0
H1378 H 0.58982 0.3458 0.76592 0.0
C1379 C 0.61929 0.29584 0.69409 0.0
C1380 C 0.58131 0.32005 0.65518 0.0
C1381 C 0.6318 0.28483 0.67845 0.0
C1382 C 0.54327 0.37938 0.70469 0.0
C1383 C 0.55402 0.36631 0.69157 0.0
C1384 C 0.58717 0.33855 0.73525 0.0
C1385 C 0.60935 0.30512 0.66297 0.0
C1386 C 0.59638 0.31738 0.67977 0.0
C1387 C 0.56025 0.35483 0.72415 0.0
C1388 C 0.57234 0.34145 0.70999 0.0
H1389 H 0.62623 0.29016 0.56333 0.0
H1390 H 0.60494 0.30977 0.59042 0.0
H1391 H 0.6106 0.32537 0.73979 0.0
H1392 H 0.54046 0.37045 0.81889 0.0
H1393 H 0.55962 0.3478 0.79601 0.0
C1394 C 0.38587 0.78798 0.43499 0.0
C1395 C 0.38325 0.78507 0.48214 0.0
C1396 C 0.39855 0.79895 0.42005 0.0
C1397 C 0.42379 0.83531 0.4581 0.0
H1398 H 0.45225 0.82439 0.35438 0.0
C1399 C 0.47846 0.87905 0.40518 0.0
C1400 C 0.48176 0.88127 0.35812 0.0
C1401 C 0.46726 0.86662 0.42026 0.0
C1402 C 0.44428 0.82778 0.38302 0.0
H1403 H 0.39235 0.79127 0.55041 0.0
H1404 H 0.41428 0.81052 0.5243 0.0
H1405 H 0.43123 0.80413 0.38058 0.0
H1406 H 0.47605 0.87169 0.29014 0.0
H1407 H 0.45616 0.85037 0.31624 0.0
H1408 H 0.43641 0.85907 0.4601 0.0
C1409 C 0.40642 0.80437 0.49892 0.0
C1410 C 0.43225 0.8161 0.39814 0.0
C1411 C 0.39385 0.79326 0.51388 0.0
C1412 C 0.47382 0.87042 0.32661 0.0
C1413 C 0.46245 0.85807 0.3417 0.0
C1414 C 0.43568 0.84704 0.44276 0.0
C1415 C 0.40887 0.80743 0.45182 0.0
C1416 C 0.42186 0.81971 0.43594 0.0
C1417 C 0.45885 0.85611 0.38877 0.0
C1418 C 0.44617 0.84346 0.40504 0.0
H1419 H 0.37803 0.78188 0.40943 0.0
H1420 H 0.4 0.80111 0.38356 0.0
H1421 H 0.41581 0.83864 0.48681 0.0
H1422 H 0.48448 0.88697 0.43064 0.0
H1423 H 0.46523 0.86529 0.45682 0.0
C1424 C 0.96516 0.54713 0.19873 0.0
C1425 C 0.97725 0.55814 0.18046 0.0
C1426 C 0.95774 0.53479 0.17074 0.0
C1427 C 0.95192 0.52184 0.04897 0.0
H1428 H 0.96032 0.47668 0.09374 0.0
C1429 C 0.97306 0.46801 0.93375 0.0
C1430 C 0.96979 0.45124 0.94619 0.0
C1431 C 0.96701 0.48127 0.9605 0.0
C1432 C 0.9574 0.48913 0.08086 0.0
H1433 H 0.99019 0.56576 0.11835 0.0
H1434 H 0.97722 0.54457 0.06988 0.0
H1435 H 0.96201 0.50033 0.14653 0.0
H1436 H 0.95619 0.4353 0.99397 0.0
H1437 H 0.9455 0.45848 0.04038 0.0
H1438 H 0.94819 0.51074 0.98276 0.0
C1439 C 0.97344 0.54528 0.10553 0.0
C1440 C 0.95838 0.50271 0.11125 0.0
C1441 C 0.98102 0.55731 0.13346 0.0
C1442 C 0.9591 0.44807 0.98365 0.0
C1443 C 0.95304 0.46135 0.01044 0.0
C1444 C 0.95088 0.50827 0.0186 0.0
C1445 C 0.96202 0.53362 0.12397 0.0
C1446 C 0.95645 0.51926 0.09513 0.0
C1447 C 0.9575 0.47806 1.00025 0.0
C1448 C 0.95441 0.49184 0.03377 0.0
H1449 H 0.96206 0.54754 0.2349 0.0
H1450 H 0.94898 0.52592 0.18581 0.0
H1451 H 0.95011 0.53447 0.03578 0.0
H1452 H 0.98119 0.47093 0.90502 0.0
H1453 H 0.97083 0.49395 0.95175 0.0
C1454 C 0.80009 0.71159 0.16842 0.0
C1455 C 0.81041 0.72466 0.18468 0.0
C1456 C 0.78792 0.70437 0.19728 0.0
C1457 C 0.77386 0.70276 0.31975 0.0
H1458 H 0.72901 0.70705 0.26835 0.0
C1459 C 0.71575 0.71279 0.43547 0.0
C1460 C 0.70711 0.72746 0.42218 0.0
C1461 C 0.72726 0.70519 0.4054 0.0
C1462 C 0.74145 0.70552 0.28318 0.0
H1463 H 0.81702 0.73955 0.24451 0.0
H1464 H 0.79606 0.7272 0.29411 0.0
H1465 H 0.75326 0.70649 0.21735 0.0
H1466 H 0.70298 0.74503 0.36617 0.0
H1467 H 0.72283 0.73202 0.31458 0.0
H1468 H 0.76215 0.70345 0.38578 0.0
C1469 C 0.79719 0.72237 0.25948 0.0
C1470 C 0.75534 0.70502 0.25389 0.0
C1471 C 0.80907 0.72967 0.23073 0.0
C1472 C 0.70959 0.73389 0.37778 0.0
C1473 C 0.72081 0.72624 0.3478 0.0
C1474 C 0.75996 0.70334 0.34906 0.0
C1475 C 0.78619 0.70991 0.24297 0.0
C1476 C 0.77175 0.70472 0.27205 0.0
C1477 C 0.73001 0.71197 0.36136 0.0
C1478 C 0.74371 0.70581 0.33111 0.0
H1479 H 0.80094 0.70745 0.13307 0.0
H1480 H 0.7796 0.69478 0.18361 0.0
H1481 H 0.78636 0.70215 0.33468 0.0
H1482 H 0.71401 0.70754 0.46945 0.0
H1483 H 0.73421 0.69422 0.4168 0.0
C1484 C 0.55327 0.55036 0.41771 0.0
C1485 C 0.54038 0.56086 0.43403 0.0
C1486 C 0.56064 0.53836 0.44689 0.0
C1487 C 0.56456 0.52596 0.56971 0.0
H1488 H 0.55981 0.4803 0.52477 0.0
C1489 C 0.54385 0.47108 0.68204 0.0
C1490 C 0.54874 0.45457 0.6711 0.0
C1491 C 0.5496 0.48466 0.65597 0.0
C1492 C 0.56169 0.49294 0.53776 0.0
H1493 H 0.52589 0.56788 0.49408 0.0
H1494 H 0.53868 0.54725 0.54449 0.0
H1495 H 0.55793 0.50374 0.47118 0.0
H1496 H 0.56476 0.43954 0.62685 0.0
H1497 H 0.57484 0.46329 0.58153 0.0
H1498 H 0.56735 0.5152 0.6367 0.0
C1499 C 0.54315 0.54812 0.50946 0.0
C1500 C 0.56062 0.50639 0.50694 0.0
C1501 C 0.53565 0.55982 0.48035 0.0
C1502 C 0.5606 0.45209 0.63594 0.0
C1503 C 0.56633 0.46568 0.60979 0.0
C1504 C 0.56566 0.51252 0.60052 0.0
C1505 C 0.55547 0.53701 0.49296 0.0
C1506 C 0.56122 0.52304 0.52295 0.0
C1507 C 0.5604 0.48204 0.61842 0.0
C1508 C 0.56343 0.4959 0.58518 0.0
H1509 H 0.55714 0.55096 0.38212 0.0
H1510 H 0.57011 0.52992 0.43331 0.0
H1511 H 0.56535 0.53869 0.58287 0.0
H1512 H 0.53479 0.47346 0.709 0.0
H1513 H 0.54465 0.49706 0.66339 0.0
C1514 C 0.8006 0.30499 0.94387 0.0
C1515 C 0.81112 0.29225 0.92684 0.0
C1516 C 0.78841 0.31238 0.91521 0.0
C1517 C 0.77377 0.31438 0.79277 0.0
H1518 H 0.72945 0.30817 0.8454 0.0
C1519 C 0.71508 0.30281 0.67891 0.0
C1520 C 0.70705 0.28779 0.69198 0.0
C1521 C 0.72662 0.31062 0.7087 0.0
C1522 C 0.74172 0.31024 0.83023 0.0
H1523 H 0.81824 0.27828 0.86598 0.0
H1524 H 0.79726 0.29095 0.8166 0.0
H1525 H 0.75396 0.30946 0.89564 0.0
H1526 H 0.70406 0.26973 0.74732 0.0
H1527 H 0.72395 0.28312 0.79848 0.0
H1528 H 0.76165 0.31349 0.72708 0.0
C1529 C 0.79822 0.29539 0.85165 0.0
C1530 C 0.75578 0.31116 0.8591 0.0
C1531 C 0.81013 0.28792 0.8802 0.0
C1532 C 0.71018 0.28117 0.7359 0.0
C1533 C 0.72143 0.28902 0.76563 0.0
C1534 C 0.75971 0.31337 0.76387 0.0
C1535 C 0.78684 0.30732 0.86902 0.0
C1536 C 0.77205 0.31215 0.84048 0.0
C1537 C 0.73 0.30368 0.75228 0.0
C1538 C 0.74369 0.31021 0.78225 0.0
H1539 H 0.80117 0.30856 0.97973 0.0
H1540 H 0.77983 0.32157 0.92954 0.0
H1541 H 0.78614 0.31552 0.77747 0.0
H1542 H 0.71285 0.30821 0.64528 0.0
H1543 H 0.73309 0.32189 0.69746 0.0
C1544 C 0.21934 0.22238 0.94706 0.0
C1545 C 0.2027 0.21789 0.93572 0.0
C1546 C 0.2326 0.21798 0.91815 0.0
C1547 C 0.24701 0.1935 0.81906 0.0
H1548 H 0.26623 0.23611 0.78032 0.0
C1549 C 0.30757 0.20535 0.70931 0.0
C1550 C 0.30636 0.21844 0.67688 0.0
C1551 C 0.29374 0.20115 0.73667 0.0
C1552 C 0.26091 0.22413 0.79058 0.0
H1553 H 0.18727 0.20336 0.88849 0.0
H1554 H 0.21058 0.19561 0.83819 0.0
H1555 H 0.24588 0.23557 0.84258 0.0
H1556 H 0.28912 0.23596 0.64399 0.0
H1557 H 0.26515 0.22872 0.69207 0.0
H1558 H 0.26246 0.18212 0.76697 0.0
C1559 C 0.21325 0.20268 0.86918 0.0
C1560 C 0.24945 0.22379 0.82659 0.0
C1561 C 0.19991 0.20718 0.89797 0.0
C1562 C 0.29058 0.22595 0.66896 0.0
C1563 C 0.27684 0.22185 0.69653 0.0
C1564 C 0.25883 0.1938 0.78334 0.0
C1565 C 0.22951 0.20886 0.87772 0.0
C1566 C 0.24238 0.20851 0.84119 0.0
C1567 C 0.27856 0.21002 0.73206 0.0
C1568 C 0.26571 0.20918 0.76859 0.0
H1569 H 0.222 0.23044 0.97618 0.0
H1570 H 0.24511 0.22271 0.9257 0.0
H1571 H 0.24161 0.18159 0.82964 0.0
H1572 H 0.31951 0.1992 0.71597 0.0
H1573 H 0.29535 0.19197 0.76386 0.0
C1574 C 0.31002 0.78986 0.37834 0.0
C1575 C 0.31124 0.79432 0.42483 0.0
C1576 C 0.29826 0.79755 0.34978 0.0
C1577 C 0.25632 0.81476 0.35716 0.0
H1578 H 0.26213 0.81611 0.22503 0.0
C1579 C 0.2098 0.78529 0.23588 0.0
C1580 C 0.20713 0.79137 0.19117 0.0
C1581 C 0.22112 0.7932 0.26529 0.0
C1582 C 0.26022 0.81628 0.26183 0.0
H1583 H 0.30185 0.81109 0.47744 0.0
H1584 H 0.28078 0.82451 0.42723 0.0
H1585 H 0.28671 0.81765 0.27513 0.0
H1586 H 0.21373 0.81099 0.14277 0.0
H1587 H 0.23406 0.8248 0.19444 0.0
H1588 H 0.2299 0.81262 0.34379 0.0
C1589 C 0.28906 0.81502 0.41302 0.0
C1590 C 0.27433 0.817 0.29058 0.0
C1591 C 0.3011 0.8074 0.4417 0.0
C1592 C 0.21561 0.80601 0.17703 0.0
C1593 C 0.22721 0.81388 0.20653 0.0
C1594 C 0.24221 0.81416 0.32843 0.0
C1595 C 0.28726 0.80986 0.36697 0.0
C1596 C 0.2726 0.81508 0.33839 0.0
C1597 C 0.23021 0.8074 0.25084 0.0
C1598 C 0.24411 0.81376 0.28043 0.0
H1599 H 0.31784 0.77996 0.36421 0.0
H1600 H 0.29711 0.79301 0.31485 0.0
H1601 H 0.25449 0.81333 0.39379 0.0
H1602 H 0.20331 0.77417 0.24811 0.0
H1603 H 0.22331 0.78764 0.29873 0.0
C1604 C 0.47599 0.96983 0.42163 0.0
C1605 C 0.47096 0.95332 0.43242 0.0
C1606 C 0.47145 0.98321 0.44996 0.0
C1607 C 0.44566 1.00024 0.54038 0.0
H1608 H 0.48806 0.0148 0.59397 0.0
C1609 C 0.45966 0.06183 0.64306 0.0
C1610 C 0.47092 0.06024 0.68022 0.0
C1611 C 0.45503 0.0477 0.61733 0.0
C1612 C 0.4761 0.01076 0.57967 0.0
H1613 H 0.45551 0.93825 0.47809 0.0
H1614 H 0.44745 0.96185 0.52734 0.0
H1615 H 0.48802 0.99335 0.53429 0.0
H1616 H 0.48448 0.04231 0.72283 0.0
H1617 H 0.47653 0.0178 0.6776 0.0
H1618 H 0.43384 0.01823 0.58521 0.0
C1619 C 0.45503 0.96427 0.49719 0.0
C1620 C 0.47611 0.99864 0.54525 0.0
C1621 C 0.45971 0.95079 0.46906 0.0
C1622 C 0.47598 0.04405 0.69406 0.0
C1623 C 0.47145 0.02998 0.66819 0.0
C1624 C 0.44567 0.01272 0.57446 0.0
C1625 C 0.46158 0.98038 0.48906 0.0
C1626 C 0.46094 0.99334 0.52518 0.0
C1627 C 0.46163 0.03182 0.62834 0.0
C1628 C 0.46093 0.018 0.59445 0.0
H1629 H 0.48451 0.97229 0.39344 0.0
H1630 H 0.47657 0.9956 0.44307 0.0
H1631 H 0.43383 0.99622 0.52535 0.0
H1632 H 0.4554 0.07411 0.63175 0.0
H1633 H 0.44745 0.04941 0.58669 0.0
C1634 C 0.05388 0.04802 0.91919 0.0
C1635 C 0.04163 0.0589 0.93726 0.0
C1636 C 0.06135 0.03573 0.94727 0.0
C1637 C 0.06713 0.02285 0.06904 0.0
H1638 H 0.05898 0.9776 0.02463 0.0
C1639 C 0.04593 0.96912 0.18445 0.0
C1640 C 0.04917 0.95233 0.1721 0.0
C1641 C 0.05207 0.98234 0.15772 0.0
C1642 C 0.06184 0.99008 0.03741 0.0
H1643 H 0.02843 0.0663 0.99912 0.0
H1644 H 0.0415 0.04521 0.04777 0.0
H1645 H 0.05722 1.0012 0.97161 0.0
H1646 H 0.06284 0.93634 0.12466 0.0
H1647 H 0.07369 0.95948 0.07832 0.0
H1648 H 0.07086 0.01183 0.13537 0.0
C1649 C 0.04536 0.046 0.01219 0.0
C1650 C 0.06082 1.00363 1.00689 0.0
C1651 C 0.03772 0.05796 0.98416 0.0
C1652 C 0.05995 0.94913 0.13487 0.0
C1653 C 0.0661 0.96238 0.10812 0.0
C1654 C 0.06822 0.00931 0.09952 0.0
C1655 C 0.05696 0.03449 0.99395 0.0
C1656 C 0.06264 0.0202 0.02288 0.0
C1657 C 0.06165 0.9791 0.11813 0.0
C1658 C 0.06477 0.99284 0.08449 0.0
H1659 H 0.05709 0.04851 0.88309 0.0
H1660 H 0.07025 0.02698 0.93236 0.0
H1661 H 0.06884 0.0355 0.08212 0.0
H1662 H 0.03774 0.97206 0.21302 0.0
H1663 H 0.04825 0.99504 0.16634 0.0
C1664 C 0.02925 0.45105 0.65106 0.0
C1665 C 0.0311 0.45527 0.69777 0.0
C1666 C 0.03034 0.46346 0.61672 0.0
C1667 C 0.0235 0.50859 0.5963 0.0
H1668 H 0.05152 0.50274 0.48886 0.0
C1669 C 0.02895 0.56187 0.45978 0.0
C1670 C 0.03196 0.55755 0.4137 0.0
C1671 C 0.02979 0.54967 0.49474 0.0
C1672 C 0.04333 0.50458 0.51805 0.0
H1673 H 0.03545 0.47604 0.74464 0.0
H1674 H 0.03691 0.49766 0.68489 0.0
H1675 H 0.05084 0.48093 0.54768 0.0
H1676 H 0.03805 0.53679 0.36851 0.0
H1677 H 0.03876 0.51552 0.42841 0.0
H1678 H 0.01531 0.53177 0.56637 0.0
C1679 C 0.03483 0.4847 0.67484 0.0
C1680 C 0.04307 0.49202 0.55209 0.0
C1681 C 0.03411 0.47225 0.70909 0.0
C1682 C 0.03588 0.54068 0.40364 0.0
C1683 C 0.03638 0.52841 0.4384 0.0
C1684 C 0.02347 0.521 0.56185 0.0
C1685 C 0.0329 0.4805 0.62817 0.0
C1686 C 0.03321 0.49387 0.59178 0.0
C1687 C 0.03329 0.53261 0.48473 0.0
C1688 C 0.03343 0.5193 0.52201 0.0
H1689 H 0.02684 0.43814 0.64102 0.0
H1690 H 0.02871 0.45979 0.58118 0.0
H1691 H 0.01559 0.51035 0.62615 0.0
H1692 H 0.02593 0.57473 0.46892 0.0
H1693 H 0.02772 0.55374 0.5297 0.0
C1694 C 0.81484 0.77637 0.90464 0.0
C1695 C 0.81037 0.7788 0.95093 0.0
C1696 C 0.80264 0.77724 0.86954 0.0
C1697 C 0.75745 0.77093 0.84734 0.0
H1698 H 0.76423 0.79801 0.73838 0.0
C1699 C 0.70466 0.77649 0.70873 0.0
C1700 C 0.70917 0.77924 0.66266 0.0
C1701 C 0.71679 0.77723 0.74402 0.0
C1702 C 0.76212 0.79008 0.768 0.0
H1703 H 0.78934 0.78396 0.99618 0.0
H1704 H 0.76811 0.78502 0.93523 0.0
H1705 H 0.78582 0.79736 0.79798 0.0
H1706 H 0.73021 0.78475 0.61788 0.0
H1707 H 0.75132 0.78527 0.67832 0.0
H1708 H 0.73421 0.76296 0.81715 0.0
C1709 C 0.78111 0.78264 0.92606 0.0
C1710 C 0.77457 0.78983 0.80248 0.0
C1711 C 0.79334 0.78215 0.96101 0.0
C1712 C 0.72616 0.78278 0.65297 0.0
C1713 C 0.73835 0.78317 0.68805 0.0
C1714 C 0.74516 0.77087 0.81247 0.0
C1715 C 0.78556 0.78015 0.87983 0.0
C1716 C 0.77238 0.78032 0.84274 0.0
C1717 C 0.73396 0.78038 0.73439 0.0
C1718 C 0.74718 0.7805 0.77207 0.0
H1719 H 0.82779 0.77371 0.89552 0.0
H1720 H 0.80651 0.77519 0.83436 0.0
H1721 H 0.75542 0.7633 0.87765 0.0
H1722 H 0.6917 0.77377 0.71761 0.0
H1723 H 0.71257 0.77539 0.77893 0.0
C1724 C 0.49021 0.56389 0.15189 0.0
C1725 C 0.48718 0.55965 0.19803 0.0
C1726 C 0.48942 0.55162 0.11715 0.0
C1727 C 0.47598 0.50646 0.0946 0.0
H1728 H 0.50376 0.51208 0.98649 0.0
C1729 C 0.49015 0.45271 0.96252 0.0
C1730 C 0.48827 0.45684 0.91575 0.0
C1731 C 0.48908 0.46518 0.99666 0.0
C1732 C 0.49584 0.51036 0.01635 0.0
H1733 H 0.48113 0.53897 0.24357 0.0
H1734 H 0.48051 0.51757 0.18405 0.0
H1735 H 0.50398 0.53361 0.0459 0.0
H1736 H 0.48387 0.47751 0.86856 0.0
H1737 H 0.48244 0.49924 0.92795 0.0
H1738 H 0.46853 0.48274 0.06535 0.0
C1739 C 0.48287 0.53045 0.17384 0.0
C1740 C 0.49584 0.52283 0.05057 0.0
C1741 C 0.48331 0.54279 0.20838 0.0
C1742 C 0.48525 0.47379 0.90416 0.0
C1743 C 0.48455 0.4863 0.9382 0.0
C1744 C 0.47628 0.49383 0.06078 0.0
C1745 C 0.48596 0.53458 0.12745 0.0
C1746 C 0.48586 0.52119 0.09041 0.0
C1747 C 0.48649 0.48219 0.98492 0.0
C1748 C 0.48616 0.49563 0.0211 0.0
H1749 H 0.49318 0.57675 0.14253 0.0
H1750 H 0.49149 0.55562 0.08212 0.0
H1751 H 0.46779 0.50466 0.12379 0.0
H1752 H 0.49255 0.43982 0.97277 0.0
H1753 H 0.49072 0.46158 0.03225 0.0
C1754 C 0.79178 0.2333 0.15204 0.0
C1755 C 0.80873 0.23697 0.16242 0.0
C1756 C 0.77954 0.23277 0.18677 0.0
C1757 C 0.77292 0.22552 0.30972 0.0
H1758 H 0.73298 0.25309 0.29588 0.0
C1759 C 0.72489 0.23246 0.45925 0.0
C1760 C 0.70799 0.23646 0.44964 0.0
C1761 C 0.73701 0.23205 0.4242 0.0
C1762 C 0.7438 0.24498 0.3003 0.0
H1763 H 0.82605 0.24258 0.21799 0.0
H1764 H 0.80477 0.24095 0.27878 0.0
H1765 H 0.75407 0.25269 0.2354 0.0
H1766 H 0.69055 0.24273 0.39499 0.0
H1767 H 0.71126 0.24103 0.33366 0.0
H1768 H 0.76256 0.21715 0.37341 0.0
C1769 C 0.80096 0.23872 0.24357 0.0
C1770 C 0.75602 0.24489 0.26547 0.0
C1771 C 0.81315 0.23967 0.2087 0.0
C1772 C 0.70346 0.23966 0.40375 0.0
C1773 C 0.7155 0.23886 0.36847 0.0
C1774 C 0.76053 0.22528 0.34412 0.0
C1775 C 0.78395 0.23549 0.23299 0.0
C1776 C 0.7708 0.23526 0.26983 0.0
C1777 C 0.7326 0.23526 0.378 0.0
C1778 C 0.74574 0.23511 0.34036 0.0
H1779 H 0.78785 0.2313 0.11682 0.0
H1780 H 0.76657 0.23017 0.17746 0.0
H1781 H 0.78408 0.21782 0.31397 0.0
H1782 H 0.72892 0.23015 0.49426 0.0
H1783 H 0.74994 0.2296 0.43389 0.0
C1784 C 0.2941 0.28647 0.46042 0.0
C1785 C 0.31088 0.28303 0.44793 0.0
C1786 C 0.28121 0.28695 0.42728 0.0
C1787 C 0.2723 0.29361 0.30442 0.0
H1788 H 0.23216 0.26708 0.32635 0.0
C1789 C 0.22105 0.28542 0.16257 0.0
C1790 C 0.20426 0.28211 0.17503 0.0
C1791 C 0.2339 0.28615 0.1958 0.0
C1792 C 0.24305 0.27489 0.31969 0.0
H1793 H 0.32719 0.27776 0.39017 0.0
H1794 H 0.30477 0.27921 0.33213 0.0
H1795 H 0.25454 0.26768 0.38361 0.0
H1796 H 0.18785 0.27744 0.23287 0.0
H1797 H 0.20989 0.27963 0.29093 0.0
H1798 H 0.26075 0.30139 0.24147 0.0
C1799 C 0.3016 0.28136 0.36778 0.0
C1800 C 0.25601 0.27511 0.35268 0.0
C1801 C 0.31446 0.28052 0.40109 0.0
C1802 C 0.20063 0.27998 0.2219 0.0
C1803 C 0.21342 0.28104 0.2553 0.0
C1804 C 0.2592 0.29369 0.27179 0.0
C1805 C 0.28475 0.28434 0.38051 0.0
C1806 C 0.27086 0.28438 0.34543 0.0
C1807 C 0.23039 0.28391 0.24291 0.0
C1808 C 0.24432 0.28424 0.27857 0.0
H1809 H 0.29079 0.28833 0.49611 0.0
H1810 H 0.26842 0.28939 0.43829 0.0
H1811 H 0.28348 0.30104 0.2979 0.0
H1812 H 0.22442 0.28691 0.12679 0.0
H1813 H 0.24668 0.28803 0.18407 0.0
C1814 C 0.29205 0.73507 0.65113 0.0
C1815 C 0.30903 0.73882 0.66098 0.0
C1816 C 0.27993 0.73457 0.68619 0.0
C1817 C 0.27389 0.72785 0.80987 0.0
H1818 H 0.23333 0.75447 0.79544 0.0
C1819 C 0.22618 0.73496 0.96018 0.0
C1820 C 0.20914 0.73847 0.95076 0.0
C1821 C 0.2382 0.73454 0.92486 0.0
C1822 C 0.24434 0.74662 0.80006 0.0
H1823 H 0.32652 0.74463 0.71601 0.0
H1824 H 0.30546 0.74311 0.77736 0.0
H1825 H 0.25425 0.75406 0.73452 0.0
H1826 H 0.1914 0.74387 0.89613 0.0
H1827 H 0.21197 0.74217 0.83442 0.0
H1828 H 0.2639 0.71977 0.87429 0.0
C1829 C 0.30153 0.74076 0.74231 0.0
C1830 C 0.25646 0.74653 0.76495 0.0
C1831 C 0.3136 0.74165 0.7071 0.0
C1832 C 0.20441 0.74118 0.90477 0.0
C1833 C 0.21636 0.74039 0.86926 0.0
C1834 C 0.26161 0.72762 0.84458 0.0
C1835 C 0.28448 0.73743 0.73226 0.0
C1836 C 0.27145 0.73724 0.76948 0.0
C1837 C 0.23357 0.73727 0.87858 0.0
C1838 C 0.24661 0.73711 0.84063 0.0
H1839 H 0.28801 0.73294 0.61606 0.0
H1840 H 0.26695 0.73188 0.67725 0.0
H1841 H 0.28521 0.7204 0.8143 0.0
H1842 H 0.23038 0.73304 0.99521 0.0
H1843 H 0.25121 0.73247 0.93437 0.0
C1844 C 0.52953 0.95201 0.1426 0.0
C1845 C 0.53194 0.95521 0.18972 0.0
C1846 C 0.53038 0.96514 0.1102 0.0
C1847 C 0.52333 0.01044 0.09707 0.0
H1848 H 0.55139 1.00746 0.98888 0.0
C1849 C 0.52764 0.06671 0.96935 0.0
C1850 C 0.53092 0.06348 0.92277 0.0
C1851 C 0.52869 0.05379 1.00231 0.0
C1852 C 0.54318 0.00852 0.01828 0.0
H1853 H 0.53702 0.9749 0.23942 0.0
H1854 H 0.538 0.99776 0.18313 0.0
H1855 H 0.55104 0.98435 0.04386 0.0
H1856 H 0.53767 0.04389 0.8745 0.0
H1857 H 0.53869 0.02139 0.93076 0.0
H1858 H 0.51474 0.0341 0.0711 0.0
C1859 C 0.5357 0.98505 0.17122 0.0
C1860 C 0.54311 0.9952 0.05011 0.0
C1861 C 0.53526 0.97189 0.20346 0.0
C1862 C 0.5353 0.04696 0.91012 0.0
C1863 C 0.53597 0.03397 0.94281 0.0
C1864 C 0.52307 0.02359 0.06476 0.0
C1865 C 0.53322 0.98187 0.12417 0.0
C1866 C 0.53325 0.99601 0.09004 0.0
C1867 C 0.53265 0.03707 0.98966 0.0
C1868 C 0.53304 0.02296 0.02469 0.0
H1869 H 0.52687 0.93936 0.13075 0.0
H1870 H 0.52834 0.96226 0.07427 0.0
H1871 H 0.51543 0.01139 0.12723 0.0
H1872 H 0.52426 0.07928 0.98042 0.0
H1873 H 0.52642 0.05705 0.0378 0.0
C1874 C 0.98332 0.04154 0.71358 0.0
C1875 C 0.98747 0.05835 0.7034 0.0
C1876 C 0.98277 0.02923 0.67895 0.0
C1877 C 0.99581 0.02156 0.5557 0.0
H1878 H 0.96793 0.98184 0.56983 0.0
C1879 C 0.98463 0.97299 0.40852 0.0
C1880 C 0.98753 0.95598 0.41981 0.0
C1881 C 0.98402 0.98542 0.44278 0.0
C1882 C 0.97584 0.99283 0.56544 0.0
H1883 H 0.99386 0.0754 0.64812 0.0
H1884 H 0.99198 0.05436 0.58755 0.0
H1885 H 0.96745 1.00367 0.62854 0.0
H1886 H 0.99165 0.9388 0.47654 0.0
H1887 H 0.98995 0.96043 0.53642 0.0
H1888 H 1.00362 0.01081 0.49152 0.0
C1889 C 0.98977 0.05035 0.62251 0.0
C1890 C 0.97569 1.00541 0.59942 0.0
C1891 C 0.99067 0.06257 0.65735 0.0
C1892 C 0.98934 0.95173 0.46652 0.0
C1893 C 0.98834 0.96413 0.50088 0.0
C1894 C 0.99566 0.00915 0.52132 0.0
C1895 C 0.98602 0.03335 0.63263 0.0
C1896 C 0.98578 0.02 0.59547 0.0
C1897 C 0.98593 0.98119 0.48944 0.0
C1898 C 0.98576 0.99456 0.52582 0.0
H1899 H 0.98099 0.03773 0.7487 0.0
H1900 H 0.98019 0.01639 0.68903 0.0
H1901 H 1.00411 0.03223 0.5512 0.0
H1902 H 0.98333 0.97681 0.37298 0.0
H1903 H 0.98204 0.99841 0.43275 0.0
loop_
_geom_bond_atom_site_label_1
_geom_bond_atom_site_label_2
_geom_bond_distance
_geom_bond_site_symmetry_2
_ccdc_geom_bond_type
Co0 O2 2.143 . S
Co0 O8 2.074 . S
Co0 O11 2.093 1_455 S
Co0 O24 2.097 1_455 S
Co0 N41 2.151 . S
Co0 N49 2.214 . S
Co1 O2 2.160 1_655 S
Co1 O7 2.058 1_655 S
Co1 O17 2.057 1_655 S
Co1 O32 2.037 . S
Co1 N36 2.145 . S
Co1 N57 2.257 . S
O2 Co0 2.143 . S
O2 Co1 2.160 1_455 S
C3 O4 1.278 . S
C3 O11 1.224 . S
O4 C3 1.278 . S
C5 O6 1.245 . S
C5 O17 1.232 . S
O6 C5 1.245 . S
O7 Co1 2.058 1_455 S
O7 C33 1.269 . S
O8 Co0 2.074 . S
O8 C33 1.257 . S
H9 C34 0.930 . S
H10 C40 0.930 . S
O11 Co0 2.093 1_655 S
O11 C3 1.224 . S
H12 C44 0.929 . S
H13 C46 0.930 . S
H14 C47 0.930 . S
H15 C45 0.929 . S
H16 C48 0.928 . S
O17 Co1 2.057 1_455 S
O17 C5 1.232 . S
H18 C37 0.929 . S
H19 C38 0.929 . S
H20 C50 0.931 . S
H21 C42 0.929 . S
H22 C51 0.930 . S
H23 C43 0.931 . S
O24 Co0 2.097 1_655 S
O24 C52 1.214 . S
H25 C53 0.929 . S
H26 C54 0.929 . S
H27 C55 0.930 . S
H28 C56 0.929 . S
H29 C58 0.930 . S
H30 C35 0.930 . S
H31 C39 0.930 . S
O32 Co1 2.037 . S
O32 C52 1.234 . S
C33 O7 1.269 . S
C33 O8 1.257 . S
C34 H9 0.930 . S
C34 C37 1.388 . S
C34 C39 1.418 . S
C35 H30 0.930 . S
C35 C38 1.404 . S
C35 C39 1.353 . S
N36 Co1 2.145 . S
N36 C37 1.397 . S
N36 C38 1.334 . S
C37 H18 0.929 . S
C37 C34 1.388 . S
C37 N36 1.397 . S
C38 H19 0.929 . S
C38 C35 1.404 . S
C38 N36 1.334 . S
C39 H31 0.930 . S
C39 C34 1.418 . S
C39 C35 1.353 . S
C40 H10 0.930 . S
C40 N41 1.330 . S
C40 C42 1.446 . S
N41 Co0 2.151 . S
N41 C40 1.330 . S
N41 C45 1.418 . S
C42 H21 0.929 . S
C42 C40 1.446 . S
C42 C43 1.332 . S
C43 H23 0.931 . S
C43 C42 1.332 . S
C43 C44 1.267 . S
C44 H12 0.929 . S
C44 C43 1.267 . S
C44 C45 1.251 . S
C45 H15 0.929 . S
C45 N41 1.418 . S
C45 C44 1.251 . S
C46 H13 0.930 . S
C46 C48 1.406 . S
C46 C51 1.261 . S
C47 H14 0.930 . S
C47 N49 1.325 . S
C47 C50 1.357 . S
C48 H16 0.928 . S
C48 C46 1.406 . S
C48 N49 1.261 . S
N49 Co0 2.214 . S
N49 C47 1.325 . S
N49 C48 1.261 . S
C50 H20 0.931 . S
C50 C47 1.357 . S
C50 C51 1.312 . S
C51 H22 0.930 . S
C51 C46 1.261 . S
C51 C50 1.312 . S
C52 O24 1.214 . S
C52 O32 1.234 . S
C53 H25 0.929 . S
C53 C56 1.391 . S
C53 C58 1.391 . S
C54 H26 0.929 . S
C54 C55 1.390 . S
C54 N57 1.391 . S
C55 H27 0.930 . S
C55 C54 1.390 . S
C55 C56 1.392 . S
C56 H28 0.929 . S
C56 C53 1.391 . S
C56 C55 1.392 . S
N57 Co1 2.257 . S
N57 C54 1.391 . S
N57 C58 1.388 . S
C58 H29 0.930 . S
C58 C53 1.391 . S
C58 N57 1.388 . S
Co59 O61 2.143 . S
Co59 O67 2.074 . S
Co59 O70 2.093 . S
Co59 O83 2.097 . S
Co59 N100 2.151 . S
Co59 N108 2.214 . S
Co60 O61 2.160 . S
Co60 O66 2.058 . S
Co60 O76 2.057 . S
Co60 O91 2.037 . S
Co60 N95 2.145 . S
Co60 N116 2.257 . S
O61 Co59 2.143 . S
O61 Co60 2.160 . S
C62 O63 1.278 . S
C62 O70 1.224 . S
O63 C62 1.278 . S
C64 O65 1.245 . S
C64 O76 1.232 . S
O65 C64 1.245 . S
O66 Co60 2.058 . S
O66 C92 1.269 . S
O67 Co59 2.074 . S
O67 C92 1.257 . S
H68 C93 0.930 . S
H69 C99 0.930 . S
O70 Co59 2.093 . S
O70 C62 1.224 . S
H71 C103 0.929 . S
H72 C105 0.930 . S
H73 C106 0.930 . S
H74 C104 0.929 . S
H75 C107 0.928 . S
O76 Co60 2.057 . S
O76 C64 1.232 . S
H77 C96 0.929 . S
H78 C97 0.929 . S
H79 C109 0.931 . S
H80 C101 0.929 . S
H81 C110 0.930 . S
H82 C102 0.931 . S
O83 Co59 2.097 . S
O83 C111 1.214 . S
H84 C112 0.929 . S
H85 C113 0.929 . S
H86 C114 0.930 . S
H87 C115 0.929 . S
H88 C117 0.930 . S
H89 C94 0.930 . S
H90 C98 0.930 . S
O91 Co60 2.037 . S
O91 C111 1.234 . S
C92 O66 1.269 . S
C92 O67 1.257 . S
C93 H68 0.930 . S
C93 C96 1.388 . S
C93 C98 1.418 . S
C94 H89 0.930 . S
C94 C97 1.404 . S
C94 C98 1.353 . S
N95 Co60 2.145 . S
N95 C96 1.397 . S
N95 C97 1.334 . S
C96 H77 0.929 . S
C96 C93 1.388 . S
C96 N95 1.397 . S
C97 H78 0.929 . S
C97 C94 1.404 . S
C97 N95 1.334 . S
C98 H90 0.930 . S
C98 C93 1.418 . S
C98 C94 1.353 . S
C99 H69 0.930 . S
C99 N100 1.330 . S
C99 C101 1.446 . S
N100 Co59 2.151 . S
N100 C99 1.330 . S
N100 C104 1.418 . S
C101 H80 0.929 . S
C101 C99 1.446 . S
C101 C102 1.332 . S
C102 H82 0.931 . S
C102 C101 1.332 . S
C102 C103 1.267 . S
C103 H71 0.929 . S
C103 C102 1.267 . S
C103 C104 1.251 . S
C104 H74 0.929 . S
C104 N100 1.418 . S
C104 C103 1.251 . S
C105 H72 0.930 . S
C105 C107 1.406 . S
C105 C110 1.261 . S
C106 H73 0.930 . S
C106 N108 1.325 . S
C106 C109 1.357 . S
C107 H75 0.928 . S
C107 C105 1.406 . S
C107 N108 1.261 . S
N108 Co59 2.214 . S
N108 C106 1.325 . S
N108 C107 1.261 . S
C109 H79 0.931 . S
C109 C106 1.357 . S
C109 C110 1.312 . S
C110 H81 0.930 . S
C110 C105 1.261 . S
C110 C109 1.312 . S
C111 O83 1.214 . S
C111 O91 1.234 . S
C112 H84 0.929 . S
C112 C115 1.391 . S
C112 C117 1.391 . S
C113 H85 0.929 . S
C113 C114 1.390 . S
C113 N116 1.391 . S
C114 H86 0.930 . S
C114 C113 1.390 . S
C114 C115 1.392 . S
C115 H87 0.929 . S
C115 C112 1.391 . S
C115 C114 1.392 . S
N116 Co60 2.257 . S
N116 C113 1.391 . S
N116 C117 1.388 . S
C117 H88 0.930 . S
C117 C112 1.391 . S
C117 N116 1.388 . S
Co118 O120 2.143 . S
Co118 O126 2.074 . S
Co118 O129 2.093 . S
Co118 O142 2.097 . S
Co118 N159 2.151 . S
Co118 N167 2.214 . S
Co119 O120 2.160 . S
Co119 O125 2.058 . S
Co119 O135 2.057 . S
Co119 O150 2.037 . S
Co119 N154 2.145 . S
Co119 N175 2.257 . S
O120 Co118 2.143 . S
O120 Co119 2.160 . S
C121 O122 1.278 . S
C121 O129 1.224 . S
O122 C121 1.278 . S
C123 O124 1.245 . S
C123 O135 1.232 . S
O124 C123 1.245 . S
O125 Co119 2.058 . S
O125 C151 1.269 . S
O126 Co118 2.074 . S
O126 C151 1.257 . S
H127 C152 0.930 . S
H128 C158 0.930 . S
O129 Co118 2.093 . S
O129 C121 1.224 . S
H130 C162 0.929 . S
H131 C164 0.930 . S
H132 C165 0.930 . S
H133 C163 0.929 . S
H134 C166 0.928 . S
O135 Co119 2.057 . S
O135 C123 1.232 . S
H136 C155 0.929 . S
H137 C156 0.929 . S
H138 C168 0.931 . S
H139 C160 0.929 . S
H140 C169 0.930 . S
H141 C161 0.931 . S
O142 Co118 2.097 . S
O142 C170 1.214 . S
H143 C171 0.929 . S
H144 C172 0.929 . S
H145 C173 0.930 . S
H146 C174 0.929 . S
H147 C176 0.930 . S
H148 C153 0.930 . S
H149 C157 0.930 . S
O150 Co119 2.037 . S
O150 C170 1.234 . S
C151 O125 1.269 . S
C151 O126 1.257 . S
C152 H127 0.930 . S
C152 C155 1.388 . S
C152 C157 1.418 . S
C153 H148 0.930 . S
C153 C156 1.404 . S
C153 C157 1.353 . S
N154 Co119 2.145 . S
N154 C155 1.397 . S
N154 C156 1.334 . S
C155 H136 0.929 . S
C155 C152 1.388 . S
C155 N154 1.397 . S
C156 H137 0.929 . S
C156 C153 1.404 . S
C156 N154 1.334 . S
C157 H149 0.930 . S
C157 C152 1.418 . S
C157 C153 1.353 . S
C158 H128 0.930 . S
C158 N159 1.330 . S
C158 C160 1.446 . S
N159 Co118 2.151 . S
N159 C158 1.330 . S
N159 C163 1.418 . S
C160 H139 0.929 . S
C160 C158 1.446 . S
C160 C161 1.332 . S
C161 H141 0.931 . S
C161 C160 1.332 . S
C161 C162 1.267 . S
C162 H130 0.929 . S
C162 C161 1.267 . S
C162 C163 1.251 . S
C163 H133 0.929 . S
C163 N159 1.418 . S
C163 C162 1.251 . S
C164 H131 0.930 . S
C164 C166 1.406 . S
C164 C169 1.261 . S
C165 H132 0.930 . S
C165 N167 1.325 . S
C165 C168 1.357 . S
C166 H134 0.928 . S
C166 C164 1.406 . S
C166 N167 1.261 . S
N167 Co118 2.214 . S
N167 C165 1.325 . S
N167 C166 1.261 . S
C168 H138 0.931 . S
C168 C165 1.357 . S
C168 C169 1.312 . S
C169 H140 0.930 . S
C169 C164 1.261 . S
C169 C168 1.312 . S
C170 O142 1.214 . S
C170 O150 1.234 . S
C171 H143 0.929 . S
C171 C174 1.391 . S
C171 C176 1.391 . S
C172 H144 0.929 . S
C172 C173 1.390 . S
C172 N175 1.391 . S
C173 H145 0.930 . S
C173 C172 1.390 . S
C173 C174 1.392 . S
C174 H146 0.929 . S
C174 C171 1.391 . S
C174 C173 1.392 . S
N175 Co119 2.257 . S
N175 C172 1.391 . S
N175 C176 1.388 . S
C176 H147 0.930 . S
C176 C171 1.391 . S
C176 N175 1.388 . S
Co177 O179 2.143 1_556 S
Co177 O185 2.074 . S
Co177 O188 2.093 . S
Co177 O201 2.097 . S
Co177 N218 2.151 . S
Co177 N226 2.214 . S
Co178 O179 2.160 . S
Co178 O184 2.058 . S
Co178 O194 2.057 . S
Co178 O209 2.037 . S
Co178 N213 2.145 . S
Co178 N234 2.257 . S
O179 Co177 2.143 1_554 S
O179 Co178 2.160 . S
C180 O181 1.278 . S
C180 O188 1.224 . S
O181 C180 1.278 . S
C182 O183 1.245 . S
C182 O194 1.232 . S
O183 C182 1.245 . S
O184 Co178 2.058 . S
O184 C210 1.269 . S
O185 Co177 2.074 . S
O185 C210 1.257 1_556 S
H186 C211 0.930 . S
H187 C217 0.930 . S
O188 Co177 2.093 . S
O188 C180 1.224 . S
H189 C221 0.929 . S
H190 C223 0.930 . S
H191 C224 0.930 . S
H192 C222 0.929 . S
H193 C225 0.928 . S
O194 Co178 2.057 . S
O194 C182 1.232 . S
H195 C214 0.929 . S
H196 C215 0.929 . S
H197 C227 0.931 . S
H198 C219 0.929 . S
H199 C228 0.930 . S
H200 C220 0.931 . S
O201 Co177 2.097 . S
O201 C229 1.214 . S
H202 C230 0.929 . S
H203 C231 0.929 . S
H204 C232 0.930 . S
H205 C233 0.929 . S
H206 C235 0.930 . S
H207 C212 0.930 . S
H208 C216 0.930 . S
O209 Co178 2.037 . S
O209 C229 1.234 1_554 S
C210 O184 1.269 . S
C210 O185 1.257 1_554 S
C211 H186 0.930 . S
C211 C214 1.388 . S
C211 C216 1.418 . S
C212 H207 0.930 . S
C212 C215 1.404 . S
C212 C216 1.353 . S
N213 Co178 2.145 . S
N213 C214 1.397 . S
N213 C215 1.334 . S
C214 H195 0.929 . S
C214 C211 1.388 . S
C214 N213 1.397 . S
C215 H196 0.929 . S
C215 C212 1.404 . S
C215 N213 1.334 . S
C216 H208 0.930 . S
C216 C211 1.418 . S
C216 C212 1.353 . S
C217 H187 0.930 . S
C217 N218 1.330 . S
C217 C219 1.446 . S
N218 Co177 2.151 . S
N218 C217 1.330 . S
N218 C222 1.418 . S
C219 H198 0.929 . S
C219 C217 1.446 . S
C219 C220 1.332 . S
C220 H200 0.931 . S
C220 C219 1.332 . S
C220 C221 1.267 . S
C221 H189 0.929 . S
C221 C220 1.267 . S
C221 C222 1.251 . S
C222 H192 0.929 . S
C222 N218 1.418 . S
C222 C221 1.251 . S
C223 H190 0.930 . S
C223 C225 1.406 . S
C223 C228 1.261 . S
C224 H191 0.930 . S
C224 N226 1.325 . S
C224 C227 1.357 . S
C225 H193 0.928 . S
C225 C223 1.406 . S
C225 N226 1.261 . S
N226 Co177 2.214 . S
N226 C224 1.325 . S
N226 C225 1.261 . S
C227 H197 0.931 . S
C227 C224 1.357 . S
C227 C228 1.312 . S
C228 H199 0.930 . S
C228 C223 1.261 . S
C228 C227 1.312 . S
C229 O201 1.214 . S
C229 O209 1.234 1_556 S
C230 H202 0.929 . S
C230 C233 1.391 . S
C230 C235 1.391 . S
C231 H203 0.929 . S
C231 C232 1.390 . S
C231 N234 1.391 . S
C232 H204 0.930 . S
C232 C231 1.390 . S
C232 C233 1.392 . S
C233 H205 0.929 . S
C233 C230 1.391 . S
C233 C232 1.392 . S
N234 Co178 2.257 . S
N234 C231 1.391 . S
N234 C235 1.388 . S
C235 H206 0.930 . S
C235 C230 1.391 . S
C235 N234 1.388 . S
Co236 O238 2.143 . S
Co236 O244 2.074 . S
Co236 O247 2.093 1_455 S
Co236 O260 2.097 1_455 S
Co236 N277 2.151 . S
Co236 N285 2.214 . S
Co237 O238 2.160 1_655 S
Co237 O243 2.058 1_655 S
Co237 O253 2.057 1_655 S
Co237 O268 2.037 . S
Co237 N272 2.145 . S
Co237 N293 2.257 . S
O238 Co236 2.143 . S
O238 Co237 2.160 1_455 S
C239 O240 1.278 . S
C239 O247 1.224 . S
O240 C239 1.278 . S
C241 O242 1.245 . S
C241 O253 1.232 . S
O242 C241 1.245 . S
O243 Co237 2.058 1_455 S
O243 C269 1.269 . S
O244 Co236 2.074 . S
O244 C269 1.257 . S
H245 C270 0.930 . S
H246 C276 0.930 . S
O247 Co236 2.093 1_655 S
O247 C239 1.224 . S
H248 C280 0.929 . S
H249 C282 0.930 . S
H250 C283 0.930 . S
H251 C281 0.929 . S
H252 C284 0.928 . S
O253 Co237 2.057 1_455 S
O253 C241 1.232 . S
H254 C273 0.929 . S
H255 C274 0.929 . S
H256 C286 0.931 . S
H257 C278 0.929 . S
H258 C287 0.930 . S
H259 C279 0.931 . S
O260 Co236 2.097 1_655 S
O260 C288 1.214 . S
H261 C289 0.929 . S
H262 C290 0.929 . S
H263 C291 0.930 . S
H264 C292 0.929 . S
H265 C294 0.930 . S
H266 C271 0.930 . S
H267 C275 0.930 . S
O268 Co237 2.037 . S
O268 C288 1.234 . S
C269 O243 1.269 . S
C269 O244 1.257 . S
C270 H245 0.930 . S
C270 C273 1.388 . S
C270 C275 1.418 . S
C271 H266 0.930 . S
C271 C274 1.404 . S
C271 C275 1.353 . S
N272 Co237 2.145 . S
N272 C273 1.397 . S
N272 C274 1.334 . S
C273 H254 0.929 . S
C273 C270 1.388 . S
C273 N272 1.397 . S
C274 H255 0.929 . S
C274 C271 1.404 . S
C274 N272 1.334 . S
C275 H267 0.930 . S
C275 C270 1.418 . S
C275 C271 1.353 . S
C276 H246 0.930 . S
C276 N277 1.330 . S
C276 C278 1.446 . S
N277 Co236 2.151 . S
N277 C276 1.330 . S
N277 C281 1.418 . S
C278 H257 0.929 . S
C278 C276 1.446 . S
C278 C279 1.332 . S
C279 H259 0.931 . S
C279 C278 1.332 . S
C279 C280 1.267 . S
C280 H248 0.929 . S
C280 C279 1.267 . S
C280 C281 1.251 . S
C281 H251 0.929 . S
C281 N277 1.418 . S
C281 C280 1.251 . S
C282 H249 0.930 . S
C282 C284 1.406 . S
C282 C287 1.261 . S
C283 H250 0.930 . S
C283 N285 1.325 . S
C283 C286 1.357 1_556 S
C284 H252 0.928 . S
C284 C282 1.406 . S
C284 N285 1.261 1_554 S
N285 Co236 2.214 . S
N285 C283 1.325 . S
N285 C284 1.261 1_556 S
C286 H256 0.931 . S
C286 C283 1.357 1_554 S
C286 C287 1.312 . S
C287 H258 0.930 . S
C287 C282 1.261 . S
C287 C286 1.312 . S
C288 O260 1.214 . S
C288 O268 1.234 . S
C289 H261 0.929 . S
C289 C292 1.391 . S
C289 C294 1.391 . S
C290 H262 0.929 . S
C290 C291 1.390 . S
C290 N293 1.391 . S
C291 H263 0.930 . S
C291 C290 1.390 . S
C291 C292 1.392 . S
C292 H264 0.929 . S
C292 C289 1.391 . S
C292 C291 1.392 . S
N293 Co237 2.257 . S
N293 C290 1.391 . S
N293 C294 1.388 . S
C294 H265 0.930 . S
C294 C289 1.391 . S
C294 N293 1.388 . S
Co295 O297 2.143 . S
Co295 O303 2.074 . S
Co295 O306 2.093 . S
Co295 O319 2.097 . S
Co295 N336 2.151 . S
Co295 N344 2.214 . S
Co296 O297 2.160 . S
Co296 O302 2.058 . S
Co296 O312 2.057 1_554 S
Co296 O327 2.037 . S
Co296 N331 2.145 1_554 S
Co296 N352 2.257 . S
O297 Co295 2.143 . S
O297 Co296 2.160 . S
C298 O299 1.278 . S
C298 O306 1.224 . S
O299 C298 1.278 . S
C300 O301 1.245 1_556 S
C300 O312 1.232 . S
O301 C300 1.245 1_554 S
O302 Co296 2.058 . S
O302 C328 1.269 . S
O303 Co295 2.074 . S
O303 C328 1.257 . S
H304 C329 0.930 . S
H305 C335 0.930 . S
O306 Co295 2.093 . S
O306 C298 1.224 . S
H307 C339 0.929 . S
H308 C341 0.930 . S
H309 C342 0.930 . S
H310 C340 0.929 . S
H311 C343 0.928 . S
O312 Co296 2.057 1_556 S
O312 C300 1.232 . S
H313 C332 0.929 1_554 S
H314 C333 0.929 . S
H315 C345 0.931 . S
H316 C337 0.929 . S
H317 C346 0.930 . S
H318 C338 0.931 . S
O319 Co295 2.097 . S
O319 C347 1.214 . S
H320 C348 0.929 . S
H321 C349 0.929 . S
H322 C350 0.930 . S
H323 C351 0.929 . S
H324 C353 0.930 . S
H325 C330 0.930 . S
H326 C334 0.930 . S
O327 Co296 2.037 . S
O327 C347 1.234 . S
C328 O302 1.269 . S
C328 O303 1.257 . S
C329 H304 0.930 . S
C329 C332 1.388 . S
C329 C334 1.418 . S
C330 H325 0.930 . S
C330 C333 1.404 . S
C330 C334 1.353 . S
N331 Co296 2.145 1_556 S
N331 C332 1.397 . S
N331 C333 1.334 . S
C332 H313 0.929 1_556 S
C332 C329 1.388 . S
C332 N331 1.397 . S
C333 H314 0.929 . S
C333 C330 1.404 . S
C333 N331 1.334 . S
C334 H326 0.930 . S
C334 C329 1.418 . S
C334 C330 1.353 . S
C335 H305 0.930 . S
C335 N336 1.330 . S
C335 C337 1.446 . S
N336 Co295 2.151 . S
N336 C335 1.330 . S
N336 C340 1.418 . S
C337 H316 0.929 . S
C337 C335 1.446 . S
C337 C338 1.332 . S
C338 H318 0.931 . S
C338 C337 1.332 . S
C338 C339 1.267 . S
C339 H307 0.929 . S
C339 C338 1.267 . S
C339 C340 1.251 . S
C340 H310 0.929 . S
C340 N336 1.418 . S
C340 C339 1.251 . S
C341 H308 0.930 . S
C341 C343 1.406 . S
C341 C346 1.261 . S
C342 H309 0.930 . S
C342 N344 1.325 . S
C342 C345 1.357 . S
C343 H311 0.928 . S
C343 C341 1.406 . S
C343 N344 1.261 . S
N344 Co295 2.214 . S
N344 C342 1.325 . S
N344 C343 1.261 . S
C345 H315 0.931 . S
C345 C342 1.357 . S
C345 C346 1.312 . S
C346 H317 0.930 . S
C346 C341 1.261 . S
C346 C345 1.312 . S
C347 O319 1.214 . S
C347 O327 1.234 . S
C348 H320 0.929 . S
C348 C351 1.391 . S
C348 C353 1.391 . S
C349 H321 0.929 . S
C349 C350 1.390 . S
C349 N352 1.391 . S
C350 H322 0.930 . S
C350 C349 1.390 . S
C350 C351 1.392 . S
C351 H323 0.929 . S
C351 C348 1.391 . S
C351 C350 1.392 . S
N352 Co296 2.257 . S
N352 C349 1.391 . S
N352 C353 1.388 . S
C353 H324 0.930 . S
C353 C348 1.391 . S
C353 N352 1.388 . S
Co354 O356 2.143 . S
Co354 O362 2.074 . S
Co354 O365 2.093 . S
Co354 O378 2.097 . S
Co354 N395 2.151 . S
Co354 N403 2.214 . S
Co355 O356 2.160 . S
Co355 O361 2.058 . S
Co355 O371 2.057 . S
Co355 O386 2.037 . S
Co355 N390 2.145 . S
Co355 N411 2.257 . S
O356 Co354 2.143 . S
O356 Co355 2.160 . S
C357 O358 1.278 . S
C357 O365 1.224 . S
O358 C357 1.278 . S
C359 O360 1.245 . S
C359 O371 1.232 . S
O360 C359 1.245 . S
O361 Co355 2.058 . S
O361 C387 1.269 . S
O362 Co354 2.074 . S
O362 C387 1.257 . S
H363 C388 0.930 . S
H364 C394 0.930 . S
O365 Co354 2.093 . S
O365 C357 1.224 . S
H366 C398 0.929 . S
H367 C400 0.930 . S
H368 C401 0.930 . S
H369 C399 0.929 . S
H370 C402 0.928 . S
O371 Co355 2.057 . S
O371 C359 1.232 . S
H372 C391 0.929 . S
H373 C392 0.929 . S
H374 C404 0.931 . S
H375 C396 0.929 . S
H376 C405 0.930 . S
H377 C397 0.931 . S
O378 Co354 2.097 . S
O378 C406 1.214 . S
H379 C407 0.929 . S
H380 C408 0.929 . S
H381 C409 0.930 . S
H382 C410 0.929 . S
H383 C412 0.930 . S
H384 C389 0.930 . S
H385 C393 0.930 . S
O386 Co355 2.037 . S
O386 C406 1.234 . S
C387 O361 1.269 . S
C387 O362 1.257 . S
C388 H363 0.930 . S
C388 C391 1.388 . S
C388 C393 1.418 . S
C389 H384 0.930 . S
C389 C392 1.404 . S
C389 C393 1.353 . S
N390 Co355 2.145 . S
N390 C391 1.397 . S
N390 C392 1.334 . S
C391 H372 0.929 . S
C391 C388 1.388 . S
C391 N390 1.397 . S
C392 H373 0.929 . S
C392 C389 1.404 . S
C392 N390 1.334 . S
C393 H385 0.930 . S
C393 C388 1.418 . S
C393 C389 1.353 . S
C394 H364 0.930 . S
C394 N395 1.330 . S
C394 C396 1.446 . S
N395 Co354 2.151 . S
N395 C394 1.330 . S
N395 C399 1.418 . S
C396 H375 0.929 . S
C396 C394 1.446 . S
C396 C397 1.332 . S
C397 H377 0.931 . S
C397 C396 1.332 . S
C397 C398 1.267 . S
C398 H366 0.929 . S
C398 C397 1.267 . S
C398 C399 1.251 . S
C399 H369 0.929 . S
C399 N395 1.418 . S
C399 C398 1.251 . S
C400 H367 0.930 . S
C400 C402 1.406 . S
C400 C405 1.261 . S
C401 H368 0.930 . S
C401 N403 1.325 . S
C401 C404 1.357 . S
C402 H370 0.928 . S
C402 C400 1.406 . S
C402 N403 1.261 . S
N403 Co354 2.214 . S
N403 C401 1.325 . S
N403 C402 1.261 . S
C404 H374 0.931 . S
C404 C401 1.357 . S
C404 C405 1.312 . S
C405 H376 0.930 . S
C405 C400 1.261 . S
C405 C404 1.312 . S
C406 O378 1.214 . S
C406 O386 1.234 . S
C407 H379 0.929 . S
C407 C410 1.391 . S
C407 C412 1.391 . S
C408 H380 0.929 . S
C408 C409 1.390 . S
C408 N411 1.391 . S
C409 H381 0.930 . S
C409 C408 1.390 . S
C409 C410 1.392 . S
C410 H382 0.929 . S
C410 C407 1.391 . S
C410 C409 1.392 . S
N411 Co355 2.257 . S
N411 C408 1.391 . S
N411 C412 1.388 . S
C412 H383 0.930 . S
C412 C407 1.391 . S
C412 N411 1.388 . S
Co413 O415 2.143 . S
Co413 O421 2.074 . S
Co413 O424 2.093 . S
Co413 O437 2.097 . S
Co413 N454 2.151 . S
Co413 N462 2.214 . S
Co414 O415 2.160 . S
Co414 O420 2.058 . S
Co414 O430 2.057 . S
Co414 O445 2.037 . S
Co414 N449 2.145 . S
Co414 N470 2.257 . S
O415 Co413 2.143 . S
O415 Co414 2.160 . S
C416 O417 1.278 . S
C416 O424 1.224 . S
O417 C416 1.278 . S
C418 O419 1.245 . S
C418 O430 1.232 . S
O419 C418 1.245 . S
O420 Co414 2.058 . S
O420 C446 1.269 . S
O421 Co413 2.074 . S
O421 C446 1.257 . S
H422 C447 0.930 . S
H423 C453 0.930 . S
O424 Co413 2.093 . S
O424 C416 1.224 . S
H425 C457 0.929 . S
H426 C459 0.930 . S
H427 C460 0.930 . S
H428 C458 0.929 . S
H429 C461 0.928 . S
O430 Co414 2.057 . S
O430 C418 1.232 . S
H431 C450 0.929 . S
H432 C451 0.929 . S
H433 C463 0.931 . S
H434 C455 0.929 . S
H435 C464 0.930 . S
H436 C456 0.931 . S
O437 Co413 2.097 . S
O437 C465 1.214 . S
H438 C466 0.929 . S
H439 C467 0.929 . S
H440 C468 0.930 . S
H441 C469 0.929 . S
H442 C471 0.930 . S
H443 C448 0.930 . S
H444 C452 0.930 . S
O445 Co414 2.037 . S
O445 C465 1.234 . S
C446 O420 1.269 . S
C446 O421 1.257 . S
C447 H422 0.930 . S
C447 C450 1.388 . S
C447 C452 1.418 . S
C448 H443 0.930 . S
C448 C451 1.404 . S
C448 C452 1.353 . S
N449 Co414 2.145 . S
N449 C450 1.397 . S
N449 C451 1.334 . S
C450 H431 0.929 . S
C450 C447 1.388 . S
C450 N449 1.397 . S
C451 H432 0.929 . S
C451 C448 1.404 . S
C451 N449 1.334 . S
C452 H444 0.930 . S
C452 C447 1.418 . S
C452 C448 1.353 . S
C453 H423 0.930 . S
C453 N454 1.330 . S
C453 C455 1.446 . S
N454 Co413 2.151 . S
N454 C453 1.330 . S
N454 C458 1.418 . S
C455 H434 0.929 . S
C455 C453 1.446 . S
C455 C456 1.332 . S
C456 H436 0.931 . S
C456 C455 1.332 . S
C456 C457 1.267 . S
C457 H425 0.929 . S
C457 C456 1.267 . S
C457 C458 1.251 . S
C458 H428 0.929 . S
C458 N454 1.418 . S
C458 C457 1.251 . S
C459 H426 0.930 . S
C459 C461 1.406 . S
C459 C464 1.261 . S
C460 H427 0.930 . S
C460 N462 1.325 . S
C460 C463 1.357 . S
C461 H429 0.928 . S
C461 C459 1.406 . S
C461 N462 1.261 . S
N462 Co413 2.214 . S
N462 C460 1.325 . S
N462 C461 1.261 . S
C463 H433 0.931 . S
C463 C460 1.357 . S
C463 C464 1.312 . S
C464 H435 0.930 . S
C464 C459 1.261 . S
C464 C463 1.312 . S
C465 O437 1.214 . S
C465 O445 1.234 . S
C466 H438 0.929 . S
C466 C469 1.391 . S
C466 C471 1.391 . S
C467 H439 0.929 . S
C467 C468 1.390 . S
C467 N470 1.391 . S
C468 H440 0.930 . S
C468 C467 1.390 . S
C468 C469 1.392 . S
C469 H441 0.929 . S
C469 C466 1.391 . S
C469 C468 1.392 . S
N470 Co414 2.257 . S
N470 C467 1.391 . S
N470 C471 1.388 . S
C471 H442 0.930 . S
C471 C466 1.391 . S
C471 N470 1.388 . S
Co472 O474 2.143 . S
Co472 O480 2.074 . S
Co472 O483 2.093 . S
Co472 O496 2.097 . S
Co472 N513 2.151 . S
Co472 N521 2.214 . S
Co473 O474 2.160 . S
Co473 O479 2.058 . S
Co473 O489 2.057 . S
Co473 O504 2.037 . S
Co473 N508 2.145 . S
Co473 N529 2.257 . S
O474 Co472 2.143 . S
O474 Co473 2.160 . S
C475 O476 1.278 . S
C475 O483 1.224 . S
O476 C475 1.278 . S
C477 O478 1.245 . S
C477 O489 1.232 . S
O478 C477 1.245 . S
O479 Co473 2.058 . S
O479 C505 1.269 . S
O480 Co472 2.074 . S
O480 C505 1.257 . S
H481 C506 0.930 . S
H482 C512 0.930 . S
O483 Co472 2.093 . S
O483 C475 1.224 . S
H484 C516 0.929 . S
H485 C518 0.930 . S
H486 C519 0.930 . S
H487 C517 0.929 . S
H488 C520 0.928 . S
O489 Co473 2.057 . S
O489 C477 1.232 . S
H490 C509 0.929 . S
H491 C510 0.929 . S
H492 C522 0.931 . S
H493 C514 0.929 . S
H494 C523 0.930 . S
H495 C515 0.931 . S
O496 Co472 2.097 . S
O496 C524 1.214 . S
H497 C525 0.929 . S
H498 C526 0.929 . S
H499 C527 0.930 . S
H500 C528 0.929 . S
H501 C530 0.930 . S
H502 C507 0.930 . S
H503 C511 0.930 . S
O504 Co473 2.037 . S
O504 C524 1.234 . S
C505 O479 1.269 . S
C505 O480 1.257 . S
C506 H481 0.930 . S
C506 C509 1.388 . S
C506 C511 1.418 . S
C507 H502 0.930 . S
C507 C510 1.404 . S
C507 C511 1.353 . S
N508 Co473 2.145 . S
N508 C509 1.397 . S
N508 C510 1.334 . S
C509 H490 0.929 . S
C509 C506 1.388 . S
C509 N508 1.397 . S
C510 H491 0.929 . S
C510 C507 1.404 . S
C510 N508 1.334 . S
C511 H503 0.930 . S
C511 C506 1.418 . S
C511 C507 1.353 . S
C512 H482 0.930 . S
C512 N513 1.330 . S
C512 C514 1.446 . S
N513 Co472 2.151 . S
N513 C512 1.330 . S
N513 C517 1.418 . S
C514 H493 0.929 . S
C514 C512 1.446 . S
C514 C515 1.332 . S
C515 H495 0.931 . S
C515 C514 1.332 . S
C515 C516 1.267 . S
C516 H484 0.929 . S
C516 C515 1.267 . S
C516 C517 1.251 . S
C517 H487 0.929 . S
C517 N513 1.418 . S
C517 C516 1.251 . S
C518 H485 0.930 . S
C518 C520 1.406 . S
C518 C523 1.261 . S
C519 H486 0.930 . S
C519 N521 1.325 . S
C519 C522 1.357 . S
C520 H488 0.928 . S
C520 C518 1.406 . S
C520 N521 1.261 . S
N521 Co472 2.214 . S
N521 C519 1.325 . S
N521 C520 1.261 . S
C522 H492 0.931 . S
C522 C519 1.357 . S
C522 C523 1.312 . S
C523 H494 0.930 . S
C523 C518 1.261 . S
C523 C522 1.312 . S
C524 O496 1.214 . S
C524 O504 1.234 . S
C525 H497 0.929 . S
C525 C528 1.391 . S
C525 C530 1.391 . S
C526 H498 0.929 . S
C526 C527 1.390 . S
C526 N529 1.391 . S
C527 H499 0.930 . S
C527 C526 1.390 . S
C527 C528 1.392 . S
C528 H500 0.929 . S
C528 C525 1.391 . S
C528 C527 1.392 . S
N529 Co473 2.257 . S
N529 C526 1.391 . S
N529 C530 1.388 . S
C530 H501 0.930 . S
C530 C525 1.391 . S
C530 N529 1.388 . S
Co531 O533 2.143 . S
Co531 O539 2.074 . S
Co531 O542 2.093 . S
Co531 O555 2.097 . S
Co531 N572 2.151 . S
Co531 N580 2.214 . S
Co532 O533 2.160 . S
Co532 O538 2.058 . S
Co532 O548 2.057 1_554 S
Co532 O563 2.037 . S
Co532 N567 2.145 1_554 S
Co532 N588 2.257 . S
O533 Co531 2.143 . S
O533 Co532 2.160 . S
C534 O535 1.278 . S
C534 O542 1.224 . S
O535 C534 1.278 . S
C536 O537 1.245 1_556 S
C536 O548 1.232 . S
O537 C536 1.245 1_554 S
O538 Co532 2.058 . S
O538 C564 1.269 . S
O539 Co531 2.074 . S
O539 C564 1.257 . S
H540 C565 0.930 . S
H541 C571 0.930 . S
O542 Co531 2.093 . S
O542 C534 1.224 . S
H543 C575 0.929 . S
H544 C577 0.930 . S
H545 C578 0.930 . S
H546 C576 0.929 . S
H547 C579 0.928 . S
O548 Co532 2.057 1_556 S
O548 C536 1.232 . S
H549 C568 0.929 1_554 S
H550 C569 0.929 . S
H551 C581 0.931 . S
H552 C573 0.929 . S
H553 C582 0.930 . S
H554 C574 0.931 . S
O555 Co531 2.097 . S
O555 C583 1.214 . S
H556 C584 0.929 . S
H557 C585 0.929 . S
H558 C586 0.930 . S
H559 C587 0.929 . S
H560 C589 0.930 . S
H561 C566 0.930 . S
H562 C570 0.930 . S
O563 Co532 2.037 . S
O563 C583 1.234 . S
C564 O538 1.269 . S
C564 O539 1.257 . S
C565 H540 0.930 . S
C565 C568 1.388 . S
C565 C570 1.418 . S
C566 H561 0.930 . S
C566 C569 1.404 . S
C566 C570 1.353 . S
N567 Co532 2.145 1_556 S
N567 C568 1.397 . S
N567 C569 1.334 . S
C568 H549 0.929 1_556 S
C568 C565 1.388 . S
C568 N567 1.397 . S
C569 H550 0.929 . S
C569 C566 1.404 . S
C569 N567 1.334 . S
C570 H562 0.930 . S
C570 C565 1.418 . S
C570 C566 1.353 . S
C571 H541 0.930 . S
C571 N572 1.330 . S
C571 C573 1.446 . S
N572 Co531 2.151 . S
N572 C571 1.330 . S
N572 C576 1.418 . S
C573 H552 0.929 . S
C573 C571 1.446 . S
C573 C574 1.332 . S
C574 H554 0.931 . S
C574 C573 1.332 . S
C574 C575 1.267 . S
C575 H543 0.929 . S
C575 C574 1.267 . S
C575 C576 1.251 . S
C576 H546 0.929 . S
C576 N572 1.418 . S
C576 C575 1.251 . S
C577 H544 0.930 . S
C577 C579 1.406 . S
C577 C582 1.261 . S
C578 H545 0.930 . S
C578 N580 1.325 . S
C578 C581 1.357 . S
C579 H547 0.928 . S
C579 C577 1.406 . S
C579 N580 1.261 . S
N580 Co531 2.214 . S
N580 C578 1.325 . S
N580 C579 1.261 . S
C581 H551 0.931 . S
C581 C578 1.357 . S
C581 C582 1.312 . S
C582 H553 0.930 . S
C582 C577 1.261 . S
C582 C581 1.312 . S
C583 O555 1.214 . S
C583 O563 1.234 . S
C584 H556 0.929 . S
C584 C587 1.391 . S
C584 C589 1.391 . S
C585 H557 0.929 . S
C585 C586 1.390 . S
C585 N588 1.391 . S
C586 H558 0.930 . S
C586 C585 1.390 . S
C586 C587 1.392 . S
C587 H559 0.929 . S
C587 C584 1.391 . S
C587 C586 1.392 . S
N588 Co532 2.257 . S
N588 C585 1.391 . S
N588 C589 1.388 . S
C589 H560 0.930 . S
C589 C584 1.391 . S
C589 N588 1.388 . S
Co590 O592 2.143 1_556 S
Co590 O598 2.074 . S
Co590 O601 2.093 . S
Co590 O614 2.097 . S
Co590 N631 2.151 . S
Co590 N639 2.214 . S
Co591 O592 2.160 . S
Co591 O597 2.058 . S
Co591 O607 2.057 . S
Co591 O622 2.037 . S
Co591 N626 2.145 . S
Co591 N647 2.257 . S
O592 Co590 2.143 1_554 S
O592 Co591 2.160 . S
C593 O594 1.278 . S
C593 O601 1.224 . S
O594 C593 1.278 . S
C595 O596 1.245 . S
C595 O607 1.232 . S
O596 C595 1.245 . S
O597 Co591 2.058 . S
O597 C623 1.269 . S
O598 Co590 2.074 . S
O598 C623 1.257 1_556 S
H599 C624 0.930 . S
H600 C630 0.930 . S
O601 Co590 2.093 . S
O601 C593 1.224 . S
H602 C634 0.929 . S
H603 C636 0.930 . S
H604 C637 0.930 . S
H605 C635 0.929 . S
H606 C638 0.928 . S
O607 Co591 2.057 . S
O607 C595 1.232 . S
H608 C627 0.929 . S
H609 C628 0.929 . S
H610 C640 0.931 . S
H611 C632 0.929 . S
H612 C641 0.930 . S
H613 C633 0.931 . S
O614 Co590 2.097 . S
O614 C642 1.214 . S
H615 C643 0.929 . S
H616 C644 0.929 . S
H617 C645 0.930 . S
H618 C646 0.929 . S
H619 C648 0.930 . S
H620 C625 0.930 . S
H621 C629 0.930 . S
O622 Co591 2.037 . S
O622 C642 1.234 1_554 S
C623 O597 1.269 . S
C623 O598 1.257 1_554 S
C624 H599 0.930 . S
C624 C627 1.388 . S
C624 C629 1.418 . S
C625 H620 0.930 . S
C625 C628 1.404 . S
C625 C629 1.353 . S
N626 Co591 2.145 . S
N626 C627 1.397 . S
N626 C628 1.334 . S
C627 H608 0.929 . S
C627 C624 1.388 . S
C627 N626 1.397 . S
C628 H609 0.929 . S
C628 C625 1.404 . S
C628 N626 1.334 . S
C629 H621 0.930 . S
C629 C624 1.418 . S
C629 C625 1.353 . S
C630 H600 0.930 . S
C630 N631 1.330 . S
C630 C632 1.446 . S
N631 Co590 2.151 . S
N631 C630 1.330 . S
N631 C635 1.418 . S
C632 H611 0.929 . S
C632 C630 1.446 . S
C632 C633 1.332 . S
C633 H613 0.931 . S
C633 C632 1.332 . S
C633 C634 1.267 . S
C634 H602 0.929 . S
C634 C633 1.267 . S
C634 C635 1.251 . S
C635 H605 0.929 . S
C635 N631 1.418 . S
C635 C634 1.251 . S
C636 H603 0.930 . S
C636 C638 1.406 . S
C636 C641 1.261 . S
C637 H604 0.930 . S
C637 N639 1.325 . S
C637 C640 1.357 . S
C638 H606 0.928 . S
C638 C636 1.406 . S
C638 N639 1.261 . S
N639 Co590 2.214 . S
N639 C637 1.325 . S
N639 C638 1.261 . S
C640 H610 0.931 . S
C640 C637 1.357 . S
C640 C641 1.312 . S
C641 H612 0.930 . S
C641 C636 1.261 . S
C641 C640 1.312 . S
C642 O614 1.214 . S
C642 O622 1.234 1_556 S
C643 H615 0.929 . S
C643 C646 1.391 . S
C643 C648 1.391 . S
C644 H616 0.929 . S
C644 C645 1.390 . S
C644 N647 1.391 . S
C645 H617 0.930 . S
C645 C644 1.390 . S
C645 C646 1.392 . S
C646 H618 0.929 . S
C646 C643 1.391 . S
C646 C645 1.392 . S
N647 Co591 2.257 . S
N647 C644 1.391 . S
N647 C648 1.388 . S
C648 H619 0.930 . S
C648 C643 1.391 . S
C648 N647 1.388 . S
Co649 O651 2.143 . S
Co649 O657 2.074 . S
Co649 O660 2.093 . S
Co649 O673 2.097 . S
Co649 N690 2.151 . S
Co649 N698 2.214 . S
Co650 O651 2.160 . S
Co650 O656 2.058 . S
Co650 O666 2.057 . S
Co650 O681 2.037 . S
Co650 N685 2.145 . S
Co650 N706 2.257 . S
O651 Co649 2.143 . S
O651 Co650 2.160 . S
C652 O653 1.278 . S
C652 O660 1.224 . S
O653 C652 1.278 . S
C654 O655 1.245 . S
C654 O666 1.232 . S
O655 C654 1.245 . S
O656 Co650 2.058 . S
O656 C682 1.269 . S
O657 Co649 2.074 . S
O657 C682 1.257 . S
H658 C683 0.930 . S
H659 C689 0.930 . S
O660 Co649 2.093 . S
O660 C652 1.224 . S
H661 C693 0.929 . S
H662 C695 0.930 . S
H663 C696 0.930 . S
H664 C694 0.929 . S
H665 C697 0.928 . S
O666 Co650 2.057 . S
O666 C654 1.232 . S
H667 C686 0.929 . S
H668 C687 0.929 . S
H669 C699 0.931 . S
H670 C691 0.929 . S
H671 C700 0.930 . S
H672 C692 0.931 . S
O673 Co649 2.097 . S
O673 C701 1.214 . S
H674 C702 0.929 . S
H675 C703 0.929 . S
H676 C704 0.930 . S
H677 C705 0.929 . S
H678 C707 0.930 . S
H679 C684 0.930 . S
H680 C688 0.930 . S
O681 Co650 2.037 . S
O681 C701 1.234 . S
C682 O656 1.269 . S
C682 O657 1.257 . S
C683 H658 0.930 . S
C683 C686 1.388 . S
C683 C688 1.418 . S
C684 H679 0.930 . S
C684 C687 1.404 . S
C684 C688 1.353 . S
N685 Co650 2.145 . S
N685 C686 1.397 . S
N685 C687 1.334 . S
C686 H667 0.929 . S
C686 C683 1.388 . S
C686 N685 1.397 . S
C687 H668 0.929 . S
C687 C684 1.404 . S
C687 N685 1.334 . S
C688 H680 0.930 . S
C688 C683 1.418 . S
C688 C684 1.353 . S
C689 H659 0.930 . S
C689 N690 1.330 . S
C689 C691 1.446 . S
N690 Co649 2.151 . S
N690 C689 1.330 . S
N690 C694 1.418 . S
C691 H670 0.929 . S
C691 C689 1.446 . S
C691 C692 1.332 . S
C692 H672 0.931 . S
C692 C691 1.332 . S
C692 C693 1.267 . S
C693 H661 0.929 . S
C693 C692 1.267 . S
C693 C694 1.251 . S
C694 H664 0.929 . S
C694 N690 1.418 . S
C694 C693 1.251 . S
C695 H662 0.930 . S
C695 C697 1.406 . S
C695 C700 1.261 . S
C696 H663 0.930 . S
C696 N698 1.325 . S
C696 C699 1.357 . S
C697 H665 0.928 . S
C697 C695 1.406 . S
C697 N698 1.261 . S
N698 Co649 2.214 . S
N698 C696 1.325 . S
N698 C697 1.261 . S
C699 H669 0.931 . S
C699 C696 1.357 . S
C699 C700 1.312 . S
C700 H671 0.930 . S
C700 C695 1.261 . S
C700 C699 1.312 . S
C701 O673 1.214 . S
C701 O681 1.234 . S
C702 H674 0.929 . S
C702 C705 1.391 . S
C702 C707 1.391 . S
C703 H675 0.929 . S
C703 C704 1.390 . S
C703 N706 1.391 . S
C704 H676 0.930 . S
C704 C703 1.390 . S
C704 C705 1.392 . S
C705 H677 0.929 . S
C705 C702 1.391 . S
C705 C704 1.392 . S
N706 Co650 2.257 . S
N706 C703 1.391 . S
N706 C707 1.388 . S
C707 H678 0.930 . S
C707 C702 1.391 . S
C707 N706 1.388 . S
Co708 O710 2.143 . S
Co708 O716 2.074 . S
Co708 O719 2.093 . S
Co708 O732 2.097 . S
Co708 N749 2.151 . S
Co708 N757 2.214 . S
Co709 O710 2.160 . S
Co709 O715 2.058 . S
Co709 O725 2.057 . S
Co709 O740 2.037 . S
Co709 N744 2.145 . S
Co709 N765 2.257 . S
O710 Co708 2.143 . S
O710 Co709 2.160 . S
C711 O712 1.278 . S
C711 O719 1.224 . S
O712 C711 1.278 . S
C713 O714 1.245 . S
C713 O725 1.232 . S
O714 C713 1.245 . S
O715 Co709 2.058 . S
O715 C741 1.269 . S
O716 Co708 2.074 . S
O716 C741 1.257 . S
H717 C742 0.930 . S
H718 C748 0.930 . S
O719 Co708 2.093 . S
O719 C711 1.224 . S
H720 C752 0.929 . S
H721 C754 0.930 . S
H722 C755 0.930 . S
H723 C753 0.929 . S
H724 C756 0.928 . S
O725 Co709 2.057 . S
O725 C713 1.232 . S
H726 C745 0.929 . S
H727 C746 0.929 . S
H728 C758 0.931 . S
H729 C750 0.929 . S
H730 C759 0.930 . S
H731 C751 0.931 . S
O732 Co708 2.097 . S
O732 C760 1.214 . S
H733 C761 0.929 . S
H734 C762 0.929 . S
H735 C763 0.930 . S
H736 C764 0.929 . S
H737 C766 0.930 . S
H738 C743 0.930 . S
H739 C747 0.930 . S
O740 Co709 2.037 . S
O740 C760 1.234 . S
C741 O715 1.269 . S
C741 O716 1.257 . S
C742 H717 0.930 . S
C742 C745 1.388 . S
C742 C747 1.418 . S
C743 H738 0.930 . S
C743 C746 1.404 . S
C743 C747 1.353 . S
N744 Co709 2.145 . S
N744 C745 1.397 . S
N744 C746 1.334 . S
C745 H726 0.929 . S
C745 C742 1.388 . S
C745 N744 1.397 . S
C746 H727 0.929 . S
C746 C743 1.404 . S
C746 N744 1.334 . S
C747 H739 0.930 . S
C747 C742 1.418 . S
C747 C743 1.353 . S
C748 H718 0.930 . S
C748 N749 1.330 . S
C748 C750 1.446 . S
N749 Co708 2.151 . S
N749 C748 1.330 . S
N749 C753 1.418 . S
C750 H729 0.929 . S
C750 C748 1.446 . S
C750 C751 1.332 . S
C751 H731 0.931 . S
C751 C750 1.332 . S
C751 C752 1.267 . S
C752 H720 0.929 . S
C752 C751 1.267 . S
C752 C753 1.251 . S
C753 H723 0.929 . S
C753 N749 1.418 . S
C753 C752 1.251 . S
C754 H721 0.930 . S
C754 C756 1.406 . S
C754 C759 1.261 . S
C755 H722 0.930 . S
C755 N757 1.325 . S
C755 C758 1.357 . S
C756 H724 0.928 . S
C756 C754 1.406 . S
C756 N757 1.261 . S
N757 Co708 2.214 . S
N757 C755 1.325 . S
N757 C756 1.261 . S
C758 H728 0.931 . S
C758 C755 1.357 . S
C758 C759 1.312 . S
C759 H730 0.930 . S
C759 C754 1.261 . S
C759 C758 1.312 . S
C760 O732 1.214 . S
C760 O740 1.234 . S
C761 H733 0.929 . S
C761 C764 1.391 . S
C761 C766 1.391 . S
C762 H734 0.929 . S
C762 C763 1.390 . S
C762 N765 1.391 . S
C763 H735 0.930 . S
C763 C762 1.390 . S
C763 C764 1.392 . S
C764 H736 0.929 . S
C764 C761 1.391 . S
C764 C763 1.392 . S
N765 Co709 2.257 . S
N765 C762 1.391 . S
N765 C766 1.388 . S
C766 H737 0.930 . S
C766 C761 1.391 . S
C766 N765 1.388 . S
Co767 O769 2.151 . S
Co767 O775 2.074 . S
Co767 O778 2.093 1_655 S
Co767 O791 2.097 1_655 S
Co767 N808 2.151 . S
Co767 N816 2.214 . S
Co768 O769 2.149 1_455 S
Co768 O774 2.058 1_455 S
Co768 O784 2.055 1_455 S
Co768 O799 2.037 . S
Co768 N803 2.145 . S
Co768 N824 2.257 . S
O769 Co767 2.151 . S
O769 Co768 2.149 1_655 S
C770 O771 1.278 . S
C770 O778 1.224 . S
O771 C770 1.278 . S
C772 O773 1.245 . S
C772 O784 1.236 . S
O773 C772 1.245 . S
O774 Co768 2.058 1_655 S
O774 C800 1.269 . S
O775 Co767 2.074 . S
O775 C800 1.257 . S
H776 C801 0.930 . S
H777 C807 0.930 . S
O778 Co767 2.093 1_455 S
O778 C770 1.224 . S
H779 C811 0.929 . S
H780 C813 0.930 . S
H781 C814 0.930 . S
H782 C812 0.929 . S
H783 C815 0.928 . S
O784 Co768 2.055 1_655 S
O784 C772 1.236 . S
H785 C804 0.929 . S
H786 C805 0.929 . S
H787 C817 0.931 . S
H788 C809 0.929 . S
H789 C818 0.930 . S
H790 C810 0.931 . S
O791 Co767 2.097 1_455 S
O791 C819 1.214 . S
H792 C820 0.929 . S
H793 C821 0.929 . S
H794 C822 0.930 . S
H795 C823 0.929 . S
H796 C825 0.930 . S
H797 C802 0.930 . S
H798 C806 0.930 . S
O799 Co768 2.037 . S
O799 C819 1.234 . S
C800 O774 1.269 . S
C800 O775 1.257 . S
C801 H776 0.930 . S
C801 C804 1.388 . S
C801 C806 1.418 . S
C802 H797 0.930 . S
C802 C805 1.404 . S
C802 C806 1.353 . S
N803 Co768 2.145 . S
N803 C804 1.397 . S
N803 C805 1.334 . S
C804 H785 0.929 . S
C804 C801 1.388 . S
C804 N803 1.397 . S
C805 H786 0.929 . S
C805 C802 1.404 . S
C805 N803 1.334 . S
C806 H798 0.930 . S
C806 C801 1.418 . S
C806 C802 1.353 . S
C807 H777 0.930 . S
C807 N808 1.330 . S
C807 C809 1.446 . S
N808 Co767 2.151 . S
N808 C807 1.330 . S
N808 C812 1.418 . S
C809 H788 0.929 . S
C809 C807 1.446 . S
C809 C810 1.332 . S
C810 H790 0.931 . S
C810 C809 1.332 . S
C810 C811 1.267 . S
C811 H779 0.929 . S
C811 C810 1.267 . S
C811 C812 1.251 . S
C812 H782 0.929 . S
C812 N808 1.418 . S
C812 C811 1.251 . S
C813 H780 0.930 . S
C813 C815 1.406 . S
C813 C818 1.261 . S
C814 H781 0.930 . S
C814 N816 1.325 . S
C814 C817 1.357 . S
C815 H783 0.928 . S
C815 C813 1.406 . S
C815 N816 1.261 . S
N816 Co767 2.214 . S
N816 C814 1.325 . S
N816 C815 1.261 . S
C817 H787 0.931 . S
C817 C814 1.357 . S
C817 C818 1.312 . S
C818 H789 0.930 . S
C818 C813 1.261 . S
C818 C817 1.312 . S
C819 O791 1.214 . S
C819 O799 1.234 . S
C820 H792 0.929 . S
C820 C823 1.391 . S
C820 C825 1.391 . S
C821 H793 0.929 . S
C821 C822 1.390 . S
C821 N824 1.391 . S
C822 H794 0.930 . S
C822 C821 1.390 . S
C822 C823 1.392 . S
C823 H795 0.929 . S
C823 C820 1.391 . S
C823 C822 1.392 . S
N824 Co768 2.257 . S
N824 C821 1.391 . S
N824 C825 1.388 . S
C825 H796 0.930 . S
C825 C820 1.391 . S
C825 N824 1.388 . S
Co826 O828 2.143 . S
Co826 O834 2.074 . S
Co826 O837 2.093 . S
Co826 O850 2.097 . S
Co826 N867 2.151 . S
Co826 N875 2.214 . S
Co827 O828 2.160 . S
Co827 O833 2.058 . S
Co827 O843 2.057 . S
Co827 O858 2.037 . S
Co827 N862 2.145 . S
Co827 N883 2.257 . S
O828 Co826 2.143 . S
O828 Co827 2.160 . S
C829 O830 1.278 . S
C829 O837 1.224 . S
O830 C829 1.278 . S
C831 O832 1.245 . S
C831 O843 1.232 . S
O832 C831 1.245 . S
O833 Co827 2.058 . S
O833 C859 1.269 . S
O834 Co826 2.074 . S
O834 C859 1.257 . S
H835 C860 0.930 . S
H836 C866 0.930 . S
O837 Co826 2.093 . S
O837 C829 1.224 . S
H838 C870 0.929 . S
H839 C872 0.930 . S
H840 C873 0.930 . S
H841 C871 0.929 . S
H842 C874 0.928 . S
O843 Co827 2.057 . S
O843 C831 1.232 . S
H844 C863 0.929 . S
H845 C864 0.929 . S
H846 C876 0.931 . S
H847 C868 0.929 . S
H848 C877 0.930 . S
H849 C869 0.931 . S
O850 Co826 2.097 . S
O850 C878 1.214 . S
H851 C879 0.929 . S
H852 C880 0.929 . S
H853 C881 0.930 . S
H854 C882 0.929 . S
H855 C884 0.930 . S
H856 C861 0.930 . S
H857 C865 0.930 . S
O858 Co827 2.037 . S
O858 C878 1.234 . S
C859 O833 1.269 . S
C859 O834 1.257 . S
C860 H835 0.930 . S
C860 C863 1.388 . S
C860 C865 1.418 . S
C861 H856 0.930 . S
C861 C864 1.404 . S
C861 C865 1.353 . S
N862 Co827 2.145 . S
N862 C863 1.397 . S
N862 C864 1.334 . S
C863 H844 0.929 . S
C863 C860 1.388 . S
C863 N862 1.397 . S
C864 H845 0.929 . S
C864 C861 1.404 . S
C864 N862 1.334 . S
C865 H857 0.930 . S
C865 C860 1.418 . S
C865 C861 1.353 . S
C866 H836 0.930 . S
C866 N867 1.330 . S
C866 C868 1.446 . S
N867 Co826 2.151 . S
N867 C866 1.330 . S
N867 C871 1.418 . S
C868 H847 0.929 . S
C868 C866 1.446 . S
C868 C869 1.332 . S
C869 H849 0.931 . S
C869 C868 1.332 . S
C869 C870 1.267 . S
C870 H838 0.929 . S
C870 C869 1.267 . S
C870 C871 1.251 . S
C871 H841 0.929 . S
C871 N867 1.418 . S
C871 C870 1.251 . S
C872 H839 0.930 . S
C872 C874 1.406 . S
C872 C877 1.261 . S
C873 H840 0.930 . S
C873 N875 1.325 . S
C873 C876 1.357 . S
C874 H842 0.928 . S
C874 C872 1.406 . S
C874 N875 1.261 . S
N875 Co826 2.214 . S
N875 C873 1.325 . S
N875 C874 1.261 . S
C876 H846 0.931 . S
C876 C873 1.357 . S
C876 C877 1.312 . S
C877 H848 0.930 . S
C877 C872 1.261 . S
C877 C876 1.312 . S
C878 O850 1.214 . S
C878 O858 1.234 . S
C879 H851 0.929 . S
C879 C882 1.391 . S
C879 C884 1.391 . S
C880 H852 0.929 . S
C880 C881 1.390 . S
C880 N883 1.391 . S
C881 H853 0.930 . S
C881 C880 1.390 . S
C881 C882 1.392 . S
C882 H854 0.929 . S
C882 C879 1.391 . S
C882 C881 1.392 . S
N883 Co827 2.257 . S
N883 C880 1.391 . S
N883 C884 1.388 . S
C884 H855 0.930 . S
C884 C879 1.391 . S
C884 N883 1.388 . S
Co885 O887 2.151 . S
Co885 O893 2.074 . S
Co885 O896 2.093 1_655 S
Co885 O909 2.097 1_655 S
Co885 N926 2.151 . S
Co885 N934 2.214 . S
Co886 O887 2.149 1_455 S
Co886 O892 2.058 1_455 S
Co886 O902 2.055 1_455 S
Co886 O917 2.037 . S
Co886 N921 2.145 . S
Co886 N942 2.257 . S
O887 Co885 2.151 . S
O887 Co886 2.149 1_655 S
C888 O889 1.278 . S
C888 O896 1.224 . S
O889 C888 1.278 . S
C890 O891 1.245 . S
C890 O902 1.236 . S
O891 C890 1.245 . S
O892 Co886 2.058 1_655 S
O892 C918 1.269 . S
O893 Co885 2.074 . S
O893 C918 1.257 . S
H894 C919 0.930 . S
H895 C925 0.930 . S
O896 Co885 2.093 1_455 S
O896 C888 1.224 . S
H897 C929 0.929 . S
H898 C931 0.930 . S
H899 C932 0.930 . S
H900 C930 0.929 . S
H901 C933 0.928 . S
O902 Co886 2.055 1_655 S
O902 C890 1.236 . S
H903 C922 0.929 . S
H904 C923 0.929 . S
H905 C935 0.931 . S
H906 C927 0.929 . S
H907 C936 0.930 . S
H908 C928 0.931 . S
O909 Co885 2.097 1_455 S
O909 C937 1.214 . S
H910 C938 0.929 . S
H911 C939 0.929 . S
H912 C940 0.930 . S
H913 C941 0.929 . S
H914 C943 0.930 . S
H915 C920 0.930 . S
H916 C924 0.930 . S
O917 Co886 2.037 . S
O917 C937 1.234 . S
C918 O892 1.269 . S
C918 O893 1.257 . S
C919 H894 0.930 . S
C919 C922 1.388 . S
C919 C924 1.418 . S
C920 H915 0.930 . S
C920 C923 1.404 . S
C920 C924 1.353 . S
N921 Co886 2.145 . S
N921 C922 1.397 . S
N921 C923 1.334 . S
C922 H903 0.929 . S
C922 C919 1.388 . S
C922 N921 1.397 . S
C923 H904 0.929 . S
C923 C920 1.404 . S
C923 N921 1.334 . S
C924 H916 0.930 . S
C924 C919 1.418 . S
C924 C920 1.353 . S
C925 H895 0.930 . S
C925 N926 1.330 . S
C925 C927 1.446 . S
N926 Co885 2.151 . S
N926 C925 1.330 . S
N926 C930 1.418 . S
C927 H906 0.929 . S
C927 C925 1.446 . S
C927 C928 1.332 . S
C928 H908 0.931 . S
C928 C927 1.332 . S
C928 C929 1.267 . S
C929 H897 0.929 . S
C929 C928 1.267 . S
C929 C930 1.251 . S
C930 H900 0.929 . S
C930 N926 1.418 . S
C930 C929 1.251 . S
C931 H898 0.930 . S
C931 C933 1.406 . S
C931 C936 1.261 . S
C932 H899 0.930 . S
C932 N934 1.325 . S
C932 C935 1.357 1_556 S
C933 H901 0.928 . S
C933 C931 1.406 . S
C933 N934 1.261 1_554 S
N934 Co885 2.214 . S
N934 C932 1.325 . S
N934 C933 1.261 1_556 S
C935 H905 0.931 . S
C935 C932 1.357 1_554 S
C935 C936 1.312 . S
C936 H907 0.930 . S
C936 C931 1.261 . S
C936 C935 1.312 . S
C937 O909 1.214 . S
C937 O917 1.234 . S
C938 H910 0.929 . S
C938 C941 1.391 . S
C938 C943 1.391 . S
C939 H911 0.929 . S
C939 C940 1.390 . S
C939 N942 1.391 . S
C940 H912 0.930 . S
C940 C939 1.390 . S
C940 C941 1.392 . S
C941 H913 0.929 . S
C941 C938 1.391 . S
C941 C940 1.392 . S
N942 Co886 2.257 . S
N942 C939 1.391 . S
N942 C943 1.388 . S
C943 H914 0.930 . S
C943 C938 1.391 . S
C943 N942 1.388 . S
C944 C945 1.349 . S
C944 C946 1.327 . S
C944 H969 0.950 . S
C945 C944 1.349 . S
C945 C961 1.349 . S
C946 C944 1.327 . S
C946 C965 1.429 . S
C946 H970 0.950 . S
C947 C964 1.574 . S
C947 C966 1.368 . S
C947 H971 0.949 . S
H948 C952 0.949 . S
C949 C950 1.349 . S
C949 C951 1.327 . S
C949 H972 0.950 . S
C950 C949 1.349 . S
C950 C962 1.349 . S
C951 C949 1.327 . S
C951 C967 1.429 . S
C951 H973 0.950 . S
C952 H948 0.949 . S
C952 C960 1.574 . S
C952 C968 1.368 . S
H953 C961 0.950 . S
H954 C959 0.950 . S
H955 C960 0.949 . S
H956 C962 0.950 . S
H957 C963 0.950 . S
H958 C964 0.949 . S
C959 H954 0.950 . S
C959 C961 1.327 . S
C959 C965 1.429 . S
C960 C952 1.574 . S
C960 H955 0.949 . S
C960 C966 1.368 . S
C961 C945 1.349 . S
C961 H953 0.950 . S
C961 C959 1.327 . S
C962 C950 1.349 . S
C962 H956 0.950 . S
C962 C963 1.327 . S
C963 H957 0.950 . S
C963 C962 1.327 . S
C963 C967 1.429 . S
C964 C947 1.574 . S
C964 H958 0.949 . S
C964 C968 1.368 . S
C965 C946 1.429 . S
C965 C959 1.429 . S
C965 C966 1.523 . S
C966 C947 1.368 . S
C966 C960 1.368 . S
C966 C965 1.523 . S
C967 C951 1.429 . S
C967 C963 1.429 . S
C967 C968 1.523 . S
C968 C952 1.368 . S
C968 C964 1.368 . S
C968 C967 1.523 . S
H969 C944 0.950 . S
H970 C946 0.950 . S
H971 C947 0.949 . S
H972 C949 0.950 . S
H973 C951 0.950 . S
C974 C975 1.349 . S
C974 C976 1.327 . S
C974 H999 0.950 . S
C975 C974 1.349 . S
C975 C991 1.349 . S
C976 C974 1.327 . S
C976 C995 1.429 . S
C976 H1000 0.950 . S
C977 C994 1.574 . S
C977 C996 1.368 . S
C977 H1001 0.949 . S
H978 C982 0.949 . S
C979 C980 1.349 . S
C979 C981 1.327 . S
C979 H1002 0.950 . S
C980 C979 1.349 . S
C980 C992 1.349 . S
C981 C979 1.327 . S
C981 C997 1.429 . S
C981 H1003 0.950 . S
C982 H978 0.949 . S
C982 C990 1.574 . S
C982 C998 1.368 . S
H983 C991 0.950 . S
H984 C989 0.950 . S
H985 C990 0.949 . S
H986 C992 0.950 . S
H987 C993 0.950 . S
H988 C994 0.949 . S
C989 H984 0.950 . S
C989 C991 1.327 . S
C989 C995 1.429 . S
C990 C982 1.574 . S
C990 H985 0.949 . S
C990 C996 1.368 . S
C991 C975 1.349 . S
C991 H983 0.950 . S
C991 C989 1.327 . S
C992 C980 1.349 . S
C992 H986 0.950 . S
C992 C993 1.327 . S
C993 H987 0.950 . S
C993 C992 1.327 . S
C993 C997 1.429 . S
C994 C977 1.574 . S
C994 H988 0.949 . S
C994 C998 1.368 . S
C995 C976 1.429 . S
C995 C989 1.429 . S
C995 C996 1.523 . S
C996 C977 1.368 . S
C996 C990 1.368 . S
C996 C995 1.523 . S
C997 C981 1.429 . S
C997 C993 1.429 . S
C997 C998 1.523 . S
C998 C982 1.368 . S
C998 C994 1.368 . S
C998 C997 1.523 . S
H999 C974 0.950 . S
H1000 C976 0.950 . S
H1001 C977 0.949 . S
H1002 C979 0.950 . S
H1003 C981 0.950 . S
C1004 C1005 1.349 . S
C1004 C1006 1.327 . S
C1004 H1029 0.950 . S
C1005 C1004 1.349 . S
C1005 C1021 1.349 . S
C1006 C1004 1.327 . S
C1006 C1025 1.429 . S
C1006 H1030 0.950 . S
C1007 C1024 1.574 . S
C1007 C1026 1.368 . S
C1007 H1031 0.949 . S
H1008 C1012 0.949 . S
C1009 C1010 1.349 . S
C1009 C1011 1.327 . S
C1009 H1032 0.950 . S
C1010 C1009 1.349 . S
C1010 C1022 1.349 . S
C1011 C1009 1.327 . S
C1011 C1027 1.429 . S
C1011 H1033 0.950 . S
C1012 H1008 0.949 . S
C1012 C1020 1.574 . S
C1012 C1028 1.368 . S
H1013 C1021 0.950 . S
H1014 C1019 0.950 . S
H1015 C1020 0.949 . S
H1016 C1022 0.950 . S
H1017 C1023 0.950 . S
H1018 C1024 0.949 . S
C1019 H1014 0.950 . S
C1019 C1021 1.327 . S
C1019 C1025 1.429 . S
C1020 C1012 1.574 . S
C1020 H1015 0.949 . S
C1020 C1026 1.368 . S
C1021 C1005 1.349 . S
C1021 H1013 0.950 . S
C1021 C1019 1.327 . S
C1022 C1010 1.349 . S
C1022 H1016 0.950 . S
C1022 C1023 1.327 . S
C1023 H1017 0.950 . S
C1023 C1022 1.327 . S
C1023 C1027 1.429 . S
C1024 C1007 1.574 . S
C1024 H1018 0.949 . S
C1024 C1028 1.368 . S
C1025 C1006 1.429 . S
C1025 C1019 1.429 . S
C1025 C1026 1.523 . S
C1026 C1007 1.368 . S
C1026 C1020 1.368 . S
C1026 C1025 1.523 . S
C1027 C1011 1.429 . S
C1027 C1023 1.429 . S
C1027 C1028 1.523 . S
C1028 C1012 1.368 . S
C1028 C1024 1.368 . S
C1028 C1027 1.523 . S
H1029 C1004 0.950 . S
H1030 C1006 0.950 . S
H1031 C1007 0.949 . S
H1032 C1009 0.950 . S
H1033 C1011 0.950 . S
C1034 C1035 1.349 1_556 S
C1034 C1036 1.327 . S
C1034 H1059 0.950 . S
C1035 C1034 1.349 1_554 S
C1035 C1051 1.349 1_554 S
C1036 C1034 1.327 . S
C1036 C1055 1.429 . S
C1036 H1060 0.950 . S
C1037 C1054 1.574 . S
C1037 C1056 1.368 . S
C1037 H1061 0.949 . S
H1038 C1042 0.949 . S
C1039 C1040 1.349 . S
C1039 C1041 1.327 . S
C1039 H1062 0.950 . S
C1040 C1039 1.349 . S
C1040 C1052 1.349 . S
C1041 C1039 1.327 . S
C1041 C1057 1.429 . S
C1041 H1063 0.950 . S
C1042 H1038 0.949 . S
C1042 C1050 1.574 . S
C1042 C1058 1.368 . S
H1043 C1051 0.950 1_554 S
H1044 C1049 0.950 . S
H1045 C1050 0.949 . S
H1046 C1052 0.950 . S
H1047 C1053 0.950 . S
H1048 C1054 0.949 . S
C1049 H1044 0.950 . S
C1049 C1051 1.327 . S
C1049 C1055 1.429 . S
C1050 C1042 1.574 . S
C1050 H1045 0.949 . S
C1050 C1056 1.368 . S
C1051 C1035 1.349 1_556 S
C1051 H1043 0.950 1_556 S
C1051 C1049 1.327 . S
C1052 C1040 1.349 . S
C1052 H1046 0.950 . S
C1052 C1053 1.327 . S
C1053 H1047 0.950 . S
C1053 C1052 1.327 . S
C1053 C1057 1.429 . S
C1054 C1037 1.574 . S
C1054 H1048 0.949 . S
C1054 C1058 1.368 . S
C1055 C1036 1.429 . S
C1055 C1049 1.429 . S
C1055 C1056 1.523 . S
C1056 C1037 1.368 . S
C1056 C1050 1.368 . S
C1056 C1055 1.523 . S
C1057 C1041 1.429 . S
C1057 C1053 1.429 . S
C1057 C1058 1.523 . S
C1058 C1042 1.368 . S
C1058 C1054 1.368 . S
C1058 C1057 1.523 . S
H1059 C1034 0.950 . S
H1060 C1036 0.950 . S
H1061 C1037 0.949 . S
H1062 C1039 0.950 . S
H1063 C1041 0.950 . S
C1064 C1065 1.349 . S
C1064 C1066 1.327 . S
C1064 H1089 0.950 . S
C1065 C1064 1.349 . S
C1065 C1081 1.349 . S
C1066 C1064 1.327 . S
C1066 C1085 1.429 . S
C1066 H1090 0.950 . S
C1067 C1084 1.574 . S
C1067 C1086 1.368 . S
C1067 H1091 0.949 . S
H1068 C1072 0.949 . S
C1069 C1070 1.349 . S
C1069 C1071 1.327 . S
C1069 H1092 0.950 . S
C1070 C1069 1.349 . S
C1070 C1082 1.349 1_554 S
C1071 C1069 1.327 . S
C1071 C1087 1.429 1_554 S
C1071 H1093 0.950 . S
C1072 H1068 0.949 . S
C1072 C1080 1.574 . S
C1072 C1088 1.368 . S
H1073 C1081 0.950 . S
H1074 C1079 0.950 . S
H1075 C1080 0.949 . S
H1076 C1082 0.950 . S
H1077 C1083 0.950 . S
H1078 C1084 0.953 . S
C1079 H1074 0.950 . S
C1079 C1081 1.327 . S
C1079 C1085 1.429 . S
C1080 C1072 1.574 . S
C1080 H1075 0.949 . S
C1080 C1086 1.368 . S
C1081 C1065 1.349 . S
C1081 H1073 0.950 . S
C1081 C1079 1.327 . S
C1082 C1070 1.349 1_556 S
C1082 H1076 0.950 . S
C1082 C1083 1.327 . S
C1083 H1077 0.950 . S
C1083 C1082 1.327 . S
C1083 C1087 1.429 . S
C1084 C1067 1.574 . S
C1084 H1078 0.953 . S
C1084 C1088 1.368 . S
C1085 C1066 1.429 . S
C1085 C1079 1.429 . S
C1085 C1086 1.523 . S
C1086 C1067 1.368 . S
C1086 C1080 1.368 . S
C1086 C1085 1.523 . S
C1087 C1071 1.429 1_556 S
C1087 C1083 1.429 . S
C1087 C1088 1.523 . S
C1088 C1072 1.368 . S
C1088 C1084 1.368 . S
C1088 C1087 1.523 . S
H1089 C1064 0.950 . S
H1090 C1066 0.950 . S
H1091 C1067 0.949 . S
H1092 C1069 0.950 . S
H1093 C1071 0.950 . S
C1094 C1095 1.349 . S
C1094 C1096 1.327 . S
C1094 H1119 0.950 . S
C1095 C1094 1.349 . S
C1095 C1111 1.349 . S
C1096 C1094 1.327 . S
C1096 C1115 1.429 . S
C1096 H1120 0.950 . S
C1097 C1114 1.574 . S
C1097 C1116 1.368 . S
C1097 H1121 0.949 . S
H1098 C1102 0.949 . S
C1099 C1100 1.349 . S
C1099 C1101 1.327 . S
C1099 H1122 0.950 . S
C1100 C1099 1.349 . S
C1100 C1112 1.349 . S
C1101 C1099 1.327 . S
C1101 C1117 1.429 . S
C1101 H1123 0.950 . S
C1102 H1098 0.949 . S
C1102 C1110 1.574 . S
C1102 C1118 1.368 . S
H1103 C1111 0.950 . S
H1104 C1109 0.950 . S
H1105 C1110 0.949 . S
H1106 C1112 0.950 . S
H1107 C1113 0.950 . S
H1108 C1114 0.949 . S
C1109 H1104 0.950 . S
C1109 C1111 1.327 . S
C1109 C1115 1.429 . S
C1110 C1102 1.574 . S
C1110 H1105 0.949 . S
C1110 C1116 1.368 . S
C1111 C1095 1.349 . S
C1111 H1103 0.950 . S
C1111 C1109 1.327 . S
C1112 C1100 1.349 . S
C1112 H1106 0.950 . S
C1112 C1113 1.327 . S
C1113 H1107 0.950 . S
C1113 C1112 1.327 . S
C1113 C1117 1.429 . S
C1114 C1097 1.574 . S
C1114 H1108 0.949 . S
C1114 C1118 1.368 . S
C1115 C1096 1.429 . S
C1115 C1109 1.429 . S
C1115 C1116 1.523 . S
C1116 C1097 1.368 . S
C1116 C1110 1.368 . S
C1116 C1115 1.523 . S
C1117 C1101 1.429 . S
C1117 C1113 1.429 . S
C1117 C1118 1.523 . S
C1118 C1102 1.368 . S
C1118 C1114 1.368 . S
C1118 C1117 1.523 . S
H1119 C1094 0.950 . S
H1120 C1096 0.950 . S
H1121 C1097 0.949 . S
H1122 C1099 0.950 . S
H1123 C1101 0.950 . S
C1124 C1125 1.349 . S
C1124 C1126 1.327 . S
C1124 H1149 0.950 . S
C1125 C1124 1.349 . S
C1125 C1141 1.349 . S
C1126 C1124 1.327 . S
C1126 C1145 1.429 . S
C1126 H1150 0.950 . S
C1127 C1144 1.574 . S
C1127 C1146 1.368 . S
C1127 H1151 0.949 . S
H1128 C1132 0.949 . S
C1129 C1130 1.349 . S
C1129 C1131 1.327 . S
C1129 H1152 0.950 . S
C1130 C1129 1.349 . S
C1130 C1142 1.349 . S
C1131 C1129 1.327 . S
C1131 C1147 1.429 . S
C1131 H1153 0.950 . S
C1132 H1128 0.949 . S
C1132 C1140 1.574 . S
C1132 C1148 1.368 . S
H1133 C1141 0.950 . S
H1134 C1139 0.950 . S
H1135 C1140 0.949 . S
H1136 C1142 0.950 . S
H1137 C1143 0.950 . S
H1138 C1144 0.949 . S
C1139 H1134 0.950 . S
C1139 C1141 1.327 . S
C1139 C1145 1.429 . S
C1140 C1132 1.574 . S
C1140 H1135 0.949 . S
C1140 C1146 1.368 . S
C1141 C1125 1.349 . S
C1141 H1133 0.950 . S
C1141 C1139 1.327 . S
C1142 C1130 1.349 . S
C1142 H1136 0.950 . S
C1142 C1143 1.327 . S
C1143 H1137 0.950 . S
C1143 C1142 1.327 . S
C1143 C1147 1.429 . S
C1144 C1127 1.574 . S
C1144 H1138 0.949 . S
C1144 C1148 1.368 . S
C1145 C1126 1.429 . S
C1145 C1139 1.429 . S
C1145 C1146 1.523 . S
C1146 C1127 1.368 . S
C1146 C1140 1.368 . S
C1146 C1145 1.523 . S
C1147 C1131 1.429 . S
C1147 C1143 1.429 . S
C1147 C1148 1.523 . S
C1148 C1132 1.368 . S
C1148 C1144 1.368 . S
C1148 C1147 1.523 . S
H1149 C1124 0.950 . S
H1150 C1126 0.950 . S
H1151 C1127 0.949 . S
H1152 C1129 0.950 . S
H1153 C1131 0.950 . S
C1154 C1155 1.349 . S
C1154 C1156 1.327 . S
C1154 H1179 0.950 . S
C1155 C1154 1.349 . S
C1155 C1171 1.349 . S
C1156 C1154 1.327 . S
C1156 C1175 1.429 . S
C1156 H1180 0.950 . S
C1157 C1174 1.574 . S
C1157 C1176 1.368 . S
C1157 H1181 0.949 . S
H1158 C1162 0.949 . S
C1159 C1160 1.349 . S
C1159 C1161 1.327 . S
C1159 H1182 0.950 . S
C1160 C1159 1.349 . S
C1160 C1172 1.349 . S
C1161 C1159 1.327 . S
C1161 C1177 1.429 . S
C1161 H1183 0.950 . S
C1162 H1158 0.949 . S
C1162 C1170 1.574 . S
C1162 C1178 1.368 . S
H1163 C1171 0.950 . S
H1164 C1169 0.950 . S
H1165 C1170 0.949 . S
H1166 C1172 0.950 . S
H1167 C1173 0.950 . S
H1168 C1174 0.949 . S
C1169 H1164 0.950 . S
C1169 C1171 1.327 . S
C1169 C1175 1.429 . S
C1170 C1162 1.574 . S
C1170 H1165 0.949 . S
C1170 C1176 1.368 . S
C1171 C1155 1.349 . S
C1171 H1163 0.950 . S
C1171 C1169 1.327 . S
C1172 C1160 1.349 . S
C1172 H1166 0.950 . S
C1172 C1173 1.327 . S
C1173 H1167 0.950 . S
C1173 C1172 1.327 . S
C1173 C1177 1.429 . S
C1174 C1157 1.574 . S
C1174 H1168 0.949 . S
C1174 C1178 1.368 . S
C1175 C1156 1.429 . S
C1175 C1169 1.429 . S
C1175 C1176 1.523 . S
C1176 C1157 1.368 . S
C1176 C1170 1.368 . S
C1176 C1175 1.523 . S
C1177 C1161 1.429 . S
C1177 C1173 1.429 . S
C1177 C1178 1.523 . S
C1178 C1162 1.368 . S
C1178 C1174 1.368 . S
C1178 C1177 1.523 . S
H1179 C1154 0.950 . S
H1180 C1156 0.950 . S
H1181 C1157 0.949 . S
H1182 C1159 0.950 . S
H1183 C1161 0.950 . S
C1184 C1185 1.349 . S
C1184 C1186 1.327 . S
C1184 H1209 0.950 . S
C1185 C1184 1.349 . S
C1185 C1201 1.349 . S
C1186 C1184 1.327 . S
C1186 C1205 1.429 . S
C1186 H1210 0.950 . S
C1187 C1204 1.574 . S
C1187 C1206 1.368 . S
C1187 H1211 0.949 . S
H1188 C1192 0.949 . S
C1189 C1190 1.349 . S
C1189 C1191 1.327 . S
C1189 H1212 0.951 . S
C1190 C1189 1.349 . S
C1190 C1202 1.349 . S
C1191 C1189 1.327 . S
C1191 C1207 1.429 . S
C1191 H1213 0.950 . S
C1192 H1188 0.949 . S
C1192 C1200 1.574 . S
C1192 C1208 1.368 . S
H1193 C1201 0.950 . S
H1194 C1199 0.950 . S
H1195 C1200 0.949 . S
H1196 C1202 0.950 . S
H1197 C1203 0.950 . S
H1198 C1204 0.949 . S
C1199 H1194 0.950 . S
C1199 C1201 1.327 . S
C1199 C1205 1.429 . S
C1200 C1192 1.574 . S
C1200 H1195 0.949 . S
C1200 C1206 1.368 . S
C1201 C1185 1.349 . S
C1201 H1193 0.950 . S
C1201 C1199 1.327 . S
C1202 C1190 1.349 . S
C1202 H1196 0.950 . S
C1202 C1203 1.327 . S
C1203 H1197 0.950 . S
C1203 C1202 1.327 . S
C1203 C1207 1.429 . S
C1204 C1187 1.574 . S
C1204 H1198 0.949 . S
C1204 C1208 1.368 . S
C1205 C1186 1.429 . S
C1205 C1199 1.429 . S
C1205 C1206 1.523 . S
C1206 C1187 1.368 . S
C1206 C1200 1.368 . S
C1206 C1205 1.523 . S
C1207 C1191 1.429 . S
C1207 C1203 1.429 . S
C1207 C1208 1.523 . S
C1208 C1192 1.368 . S
C1208 C1204 1.368 . S
C1208 C1207 1.523 . S
H1209 C1184 0.950 . S
H1210 C1186 0.950 . S
H1211 C1187 0.949 . S
H1212 C1189 0.951 . S
H1213 C1191 0.950 . S
C1214 C1215 1.349 . S
C1214 C1216 1.327 . S
C1214 H1239 0.950 . S
C1215 C1214 1.349 . S
C1215 C1231 1.349 . S
C1216 C1214 1.327 . S
C1216 C1235 1.429 . S
C1216 H1240 0.950 . S
C1217 C1234 1.574 . S
C1217 C1236 1.368 . S
C1217 H1241 0.949 . S
H1218 C1222 0.949 . S
C1219 C1220 1.349 . S
C1219 C1221 1.327 . S
C1219 H1242 0.950 . S
C1220 C1219 1.349 . S
C1220 C1232 1.349 . S
C1221 C1219 1.327 . S
C1221 C1237 1.429 . S
C1221 H1243 0.950 . S
C1222 H1218 0.949 . S
C1222 C1230 1.574 . S
C1222 C1238 1.368 . S
H1223 C1231 0.950 . S
H1224 C1229 0.950 . S
H1225 C1230 0.949 . S
H1226 C1232 0.950 . S
H1227 C1233 0.950 . S
H1228 C1234 0.949 . S
C1229 H1224 0.950 . S
C1229 C1231 1.327 . S
C1229 C1235 1.429 . S
C1230 C1222 1.574 . S
C1230 H1225 0.949 . S
C1230 C1236 1.368 . S
C1231 C1215 1.349 . S
C1231 H1223 0.950 . S
C1231 C1229 1.327 . S
C1232 C1220 1.349 . S
C1232 H1226 0.950 . S
C1232 C1233 1.327 . S
C1233 H1227 0.950 . S
C1233 C1232 1.327 . S
C1233 C1237 1.429 . S
C1234 C1217 1.574 . S
C1234 H1228 0.949 . S
C1234 C1238 1.368 . S
C1235 C1216 1.429 . S
C1235 C1229 1.429 . S
C1235 C1236 1.523 . S
C1236 C1217 1.368 . S
C1236 C1230 1.368 . S
C1236 C1235 1.523 . S
C1237 C1221 1.429 . S
C1237 C1233 1.429 . S
C1237 C1238 1.523 . S
C1238 C1222 1.368 . S
C1238 C1234 1.368 . S
C1238 C1237 1.523 . S
H1239 C1214 0.950 . S
H1240 C1216 0.950 . S
H1241 C1217 0.949 . S
H1242 C1219 0.950 . S
H1243 C1221 0.950 . S
C1244 C1245 1.349 . S
C1244 C1246 1.327 . S
C1244 H1269 0.950 . S
C1245 C1244 1.349 . S
C1245 C1261 1.349 . S
C1246 C1244 1.327 . S
C1246 C1265 1.429 . S
C1246 H1270 0.950 . S
C1247 C1264 1.574 . S
C1247 C1266 1.368 . S
C1247 H1271 0.949 . S
H1248 C1252 0.949 . S
C1249 C1250 1.349 . S
C1249 C1251 1.327 . S
C1249 H1272 0.950 . S
C1250 C1249 1.349 . S
C1250 C1262 1.349 . S
C1251 C1249 1.327 . S
C1251 C1267 1.429 . S
C1251 H1273 0.950 . S
C1252 H1248 0.949 . S
C1252 C1260 1.574 . S
C1252 C1268 1.368 . S
H1253 C1261 0.950 . S
H1254 C1259 0.950 . S
H1255 C1260 0.949 . S
H1256 C1262 0.950 . S
H1257 C1263 0.950 . S
H1258 C1264 0.949 . S
C1259 H1254 0.950 . S
C1259 C1261 1.327 . S
C1259 C1265 1.429 . S
C1260 C1252 1.574 . S
C1260 H1255 0.949 . S
C1260 C1266 1.368 . S
C1261 C1245 1.349 . S
C1261 H1253 0.950 . S
C1261 C1259 1.327 . S
C1262 C1250 1.349 . S
C1262 H1256 0.950 . S
C1262 C1263 1.327 . S
C1263 H1257 0.950 . S
C1263 C1262 1.327 . S
C1263 C1267 1.429 . S
C1264 C1247 1.574 . S
C1264 H1258 0.949 . S
C1264 C1268 1.368 . S
C1265 C1246 1.429 . S
C1265 C1259 1.429 . S
C1265 C1266 1.523 . S
C1266 C1247 1.368 . S
C1266 C1260 1.368 . S
C1266 C1265 1.523 . S
C1267 C1251 1.429 . S
C1267 C1263 1.429 . S
C1267 C1268 1.523 . S
C1268 C1252 1.368 . S
C1268 C1264 1.368 . S
C1268 C1267 1.523 . S
H1269 C1244 0.950 . S
H1270 C1246 0.950 . S
H1271 C1247 0.949 . S
H1272 C1249 0.950 . S
H1273 C1251 0.950 . S
C1274 C1275 1.349 . S
C1274 C1276 1.327 . S
C1274 H1299 0.950 . S
C1275 C1274 1.349 . S
C1275 C1291 1.349 . S
C1276 C1274 1.327 . S
C1276 C1295 1.429 . S
C1276 H1300 0.950 . S
C1277 C1294 1.574 . S
C1277 C1296 1.368 . S
C1277 H1301 0.949 . S
H1278 C1282 0.949 . S
C1279 C1280 1.349 . S
C1279 C1281 1.327 . S
C1279 H1302 0.950 . S
C1280 C1279 1.349 . S
C1280 C1292 1.349 . S
C1281 C1279 1.327 . S
C1281 C1297 1.429 . S
C1281 H1303 0.950 . S
C1282 H1278 0.949 . S
C1282 C1290 1.574 . S
C1282 C1298 1.368 . S
H1283 C1291 0.950 . S
H1284 C1289 0.950 . S
H1285 C1290 0.949 . S
H1286 C1292 0.950 . S
H1287 C1293 0.950 . S
H1288 C1294 0.949 . S
C1289 H1284 0.950 . S
C1289 C1291 1.327 . S
C1289 C1295 1.429 . S
C1290 C1282 1.574 . S
C1290 H1285 0.949 . S
C1290 C1296 1.368 . S
C1291 C1275 1.349 . S
C1291 H1283 0.950 . S
C1291 C1289 1.327 . S
C1292 C1280 1.349 . S
C1292 H1286 0.950 . S
C1292 C1293 1.327 . S
C1293 H1287 0.950 . S
C1293 C1292 1.327 . S
C1293 C1297 1.429 . S
C1294 C1277 1.574 . S
C1294 H1288 0.949 . S
C1294 C1298 1.368 . S
C1295 C1276 1.429 . S
C1295 C1289 1.429 . S
C1295 C1296 1.523 . S
C1296 C1277 1.368 . S
C1296 C1290 1.368 . S
C1296 C1295 1.523 . S
C1297 C1281 1.429 . S
C1297 C1293 1.429 . S
C1297 C1298 1.523 . S
C1298 C1282 1.368 . S
C1298 C1294 1.368 . S
C1298 C1297 1.523 . S
H1299 C1274 0.950 . S
H1300 C1276 0.950 . S
H1301 C1277 0.949 . S
H1302 C1279 0.950 . S
H1303 C1281 0.950 . S
C1304 C1305 1.349 . S
C1304 C1306 1.327 . S
C1304 H1329 0.950 . S
C1305 C1304 1.349 . S
C1305 C1321 1.349 . S
C1306 C1304 1.327 . S
C1306 C1325 1.429 . S
C1306 H1330 0.950 . S
C1307 C1324 1.574 . S
C1307 C1326 1.368 . S
C1307 H1331 0.949 . S
H1308 C1312 0.949 . S
C1309 C1310 1.349 . S
C1309 C1311 1.327 . S
C1309 H1332 0.950 . S
C1310 C1309 1.349 . S
C1310 C1322 1.349 . S
C1311 C1309 1.327 . S
C1311 C1327 1.429 . S
C1311 H1333 0.950 . S
C1312 H1308 0.949 . S
C1312 C1320 1.574 . S
C1312 C1328 1.368 . S
H1313 C1321 0.950 . S
H1314 C1319 0.950 . S
H1315 C1320 0.949 . S
H1316 C1322 0.950 . S
H1317 C1323 0.950 . S
H1318 C1324 0.949 . S
C1319 H1314 0.950 . S
C1319 C1321 1.327 . S
C1319 C1325 1.429 . S
C1320 C1312 1.574 . S
C1320 H1315 0.949 . S
C1320 C1326 1.368 . S
C1321 C1305 1.349 . S
C1321 H1313 0.950 . S
C1321 C1319 1.327 . S
C1322 C1310 1.349 . S
C1322 H1316 0.950 . S
C1322 C1323 1.327 . S
C1323 H1317 0.950 . S
C1323 C1322 1.327 . S
C1323 C1327 1.429 . S
C1324 C1307 1.574 . S
C1324 H1318 0.949 . S
C1324 C1328 1.368 . S
C1325 C1306 1.429 . S
C1325 C1319 1.429 . S
C1325 C1326 1.523 . S
C1326 C1307 1.368 . S
C1326 C1320 1.368 . S
C1326 C1325 1.523 . S
C1327 C1311 1.429 . S
C1327 C1323 1.429 . S
C1327 C1328 1.523 . S
C1328 C1312 1.368 . S
C1328 C1324 1.368 . S
C1328 C1327 1.523 . S
H1329 C1304 0.950 . S
H1330 C1306 0.950 . S
H1331 C1307 0.949 . S
H1332 C1309 0.950 . S
H1333 C1311 0.950 . S
C1334 C1335 1.349 . S
C1334 C1336 1.327 . S
C1334 H1359 0.950 . S
C1335 C1334 1.349 . S
C1335 C1351 1.349 . S
C1336 C1334 1.327 . S
C1336 C1355 1.429 . S
C1336 H1360 0.950 . S
C1337 C1354 1.574 . S
C1337 C1356 1.368 . S
C1337 H1361 0.949 . S
H1338 C1342 0.949 . S
C1339 C1340 1.349 . S
C1339 C1341 1.327 . S
C1339 H1362 0.950 . S
C1340 C1339 1.349 . S
C1340 C1352 1.349 . S
C1341 C1339 1.327 . S
C1341 C1357 1.429 . S
C1341 H1363 0.950 . S
C1342 H1338 0.949 . S
C1342 C1350 1.574 . S
C1342 C1358 1.368 . S
H1343 C1351 0.950 . S
H1344 C1349 0.950 . S
H1345 C1350 0.949 . S
H1346 C1352 0.950 . S
H1347 C1353 0.950 . S
H1348 C1354 0.949 . S
C1349 H1344 0.950 . S
C1349 C1351 1.327 . S
C1349 C1355 1.429 . S
C1350 C1342 1.574 . S
C1350 H1345 0.949 . S
C1350 C1356 1.368 . S
C1351 C1335 1.349 . S
C1351 H1343 0.950 . S
C1351 C1349 1.327 . S
C1352 C1340 1.349 . S
C1352 H1346 0.950 . S
C1352 C1353 1.327 . S
C1353 H1347 0.950 . S
C1353 C1352 1.327 . S
C1353 C1357 1.429 . S
C1354 C1337 1.574 . S
C1354 H1348 0.949 . S
C1354 C1358 1.368 . S
C1355 C1336 1.429 . S
C1355 C1349 1.429 . S
C1355 C1356 1.523 . S
C1356 C1337 1.368 . S
C1356 C1350 1.368 . S
C1356 C1355 1.523 . S
C1357 C1341 1.429 . S
C1357 C1353 1.429 . S
C1357 C1358 1.523 . S
C1358 C1342 1.368 . S
C1358 C1354 1.368 . S
C1358 C1357 1.523 . S
H1359 C1334 0.950 . S
H1360 C1336 0.950 . S
H1361 C1337 0.949 . S
H1362 C1339 0.950 . S
H1363 C1341 0.950 . S
C1364 C1365 1.349 . S
C1364 C1366 1.327 . S
C1364 H1389 0.950 . S
C1365 C1364 1.349 . S
C1365 C1381 1.349 . S
C1366 C1364 1.327 . S
C1366 C1385 1.429 . S
C1366 H1390 0.950 . S
C1367 C1384 1.574 . S
C1367 C1386 1.368 . S
C1367 H1391 0.949 . S
H1368 C1372 0.949 . S
C1369 C1370 1.349 . S
C1369 C1371 1.327 . S
C1369 H1392 0.950 . S
C1370 C1369 1.349 . S
C1370 C1382 1.349 . S
C1371 C1369 1.327 . S
C1371 C1387 1.429 . S
C1371 H1393 0.950 . S
C1372 H1368 0.949 . S
C1372 C1380 1.574 . S
C1372 C1388 1.368 . S
H1373 C1381 0.950 . S
H1374 C1379 0.950 . S
H1375 C1380 0.949 . S
H1376 C1382 0.950 . S
H1377 C1383 0.950 . S
H1378 C1384 0.949 . S
C1379 H1374 0.950 . S
C1379 C1381 1.327 . S
C1379 C1385 1.429 . S
C1380 C1372 1.574 . S
C1380 H1375 0.949 . S
C1380 C1386 1.368 . S
C1381 C1365 1.349 . S
C1381 H1373 0.950 . S
C1381 C1379 1.327 . S
C1382 C1370 1.349 . S
C1382 H1376 0.950 . S
C1382 C1383 1.327 . S
C1383 H1377 0.950 . S
C1383 C1382 1.327 . S
C1383 C1387 1.429 . S
C1384 C1367 1.574 . S
C1384 H1378 0.949 . S
C1384 C1388 1.368 . S
C1385 C1366 1.429 . S
C1385 C1379 1.429 . S
C1385 C1386 1.523 . S
C1386 C1367 1.368 . S
C1386 C1380 1.368 . S
C1386 C1385 1.523 . S
C1387 C1371 1.429 . S
C1387 C1383 1.429 . S
C1387 C1388 1.523 . S
C1388 C1372 1.368 . S
C1388 C1384 1.368 . S
C1388 C1387 1.523 . S
H1389 C1364 0.950 . S
H1390 C1366 0.950 . S
H1391 C1367 0.949 . S
H1392 C1369 0.950 . S
H1393 C1371 0.950 . S
C1394 C1395 1.349 . S
C1394 C1396 1.327 . S
C1394 H1419 0.950 . S
C1395 C1394 1.349 . S
C1395 C1411 1.349 . S
C1396 C1394 1.327 . S
C1396 C1415 1.429 . S
C1396 H1420 0.950 . S
C1397 C1414 1.574 . S
C1397 C1416 1.368 . S
C1397 H1421 0.949 . S
H1398 C1402 0.949 . S
C1399 C1400 1.349 . S
C1399 C1401 1.327 . S
C1399 H1422 0.950 . S
C1400 C1399 1.349 . S
C1400 C1412 1.349 . S
C1401 C1399 1.327 . S
C1401 C1417 1.429 . S
C1401 H1423 0.950 . S
C1402 H1398 0.949 . S
C1402 C1410 1.574 . S
C1402 C1418 1.368 . S
H1403 C1411 0.950 . S
H1404 C1409 0.950 . S
H1405 C1410 0.949 . S
H1406 C1412 0.950 . S
H1407 C1413 0.950 . S
H1408 C1414 0.949 . S
C1409 H1404 0.950 . S
C1409 C1411 1.327 . S
C1409 C1415 1.429 . S
C1410 C1402 1.574 . S
C1410 H1405 0.949 . S
C1410 C1416 1.368 . S
C1411 C1395 1.349 . S
C1411 H1403 0.950 . S
C1411 C1409 1.327 . S
C1412 C1400 1.349 . S
C1412 H1406 0.950 . S
C1412 C1413 1.327 . S
C1413 H1407 0.950 . S
C1413 C1412 1.327 . S
C1413 C1417 1.429 . S
C1414 C1397 1.574 . S
C1414 H1408 0.949 . S
C1414 C1418 1.368 . S
C1415 C1396 1.429 . S
C1415 C1409 1.429 . S
C1415 C1416 1.523 . S
C1416 C1397 1.368 . S
C1416 C1410 1.368 . S
C1416 C1415 1.523 . S
C1417 C1401 1.429 . S
C1417 C1413 1.429 . S
C1417 C1418 1.523 . S
C1418 C1402 1.368 . S
C1418 C1414 1.368 . S
C1418 C1417 1.523 . S
H1419 C1394 0.950 . S
H1420 C1396 0.950 . S
H1421 C1397 0.949 . S
H1422 C1399 0.950 . S
H1423 C1401 0.950 . S
C1424 C1425 1.349 . S
C1424 C1426 1.327 . S
C1424 H1449 0.950 . S
C1425 C1424 1.349 . S
C1425 C1441 1.349 . S
C1426 C1424 1.327 . S
C1426 C1445 1.429 . S
C1426 H1450 0.950 . S
C1427 C1444 1.574 . S
C1427 C1446 1.368 . S
C1427 H1451 0.949 1_655 S
H1428 C1432 0.949 . S
C1429 C1430 1.349 . S
C1429 C1431 1.327 . S
C1429 H1452 0.950 1_655 S
C1430 C1429 1.349 . S
C1430 C1442 1.349 . S
C1431 C1429 1.327 . S
C1431 C1447 1.429 . S
C1431 H1453 0.950 1_655 S
C1432 H1428 0.949 . S
C1432 C1440 1.574 . S
C1432 C1448 1.368 . S
H1433 C1441 0.950 1_455 S
H1434 C1439 0.950 1_455 S
H1435 C1440 0.949 . S
H1436 C1442 0.950 . S
H1437 C1443 0.950 1_554 S
H1438 C1444 0.949 1_456 S
C1439 H1434 0.950 1_655 S
C1439 C1441 1.327 . S
C1439 C1445 1.429 . S
C1440 C1432 1.574 . S
C1440 H1435 0.949 . S
C1440 C1446 1.368 . S
C1441 C1425 1.349 . S
C1441 H1433 0.950 1_655 S
C1441 C1439 1.327 . S
C1442 C1430 1.349 . S
C1442 H1436 0.950 . S
C1442 C1443 1.327 . S
C1443 H1437 0.950 1_556 S
C1443 C1442 1.327 . S
C1443 C1447 1.429 . S
C1444 C1427 1.574 . S
C1444 H1438 0.949 1_654 S
C1444 C1448 1.368 . S
C1445 C1426 1.429 . S
C1445 C1439 1.429 . S
C1445 C1446 1.523 . S
C1446 C1427 1.368 . S
C1446 C1440 1.368 . S
C1446 C1445 1.523 . S
C1447 C1431 1.429 . S
C1447 C1443 1.429 . S
C1447 C1448 1.523 1_556 S
C1448 C1432 1.368 . S
C1448 C1444 1.368 . S
C1448 C1447 1.523 1_554 S
H1449 C1424 0.950 . S
H1450 C1426 0.950 . S
H1451 C1427 0.949 1_455 S
H1452 C1429 0.950 1_455 S
H1453 C1431 0.950 1_455 S
C1454 C1455 1.349 . S
C1454 C1456 1.327 . S
C1454 H1479 0.950 . S
C1455 C1454 1.349 . S
C1455 C1471 1.349 . S
C1456 C1454 1.327 . S
C1456 C1475 1.429 . S
C1456 H1480 0.950 . S
C1457 C1474 1.574 . S
C1457 C1476 1.368 . S
C1457 H1481 0.949 . S
H1458 C1462 0.949 . S
C1459 C1460 1.349 . S
C1459 C1461 1.327 . S
C1459 H1482 0.950 . S
C1460 C1459 1.349 . S
C1460 C1472 1.349 . S
C1461 C1459 1.327 . S
C1461 C1477 1.429 . S
C1461 H1483 0.950 . S
C1462 H1458 0.949 . S
C1462 C1470 1.574 . S
C1462 C1478 1.368 . S
H1463 C1471 0.950 . S
H1464 C1469 0.950 . S
H1465 C1470 0.949 . S
H1466 C1472 0.950 . S
H1467 C1473 0.950 . S
H1468 C1474 0.949 . S
C1469 H1464 0.950 . S
C1469 C1471 1.327 . S
C1469 C1475 1.429 . S
C1470 C1462 1.574 . S
C1470 H1465 0.949 . S
C1470 C1476 1.368 . S
C1471 C1455 1.349 . S
C1471 H1463 0.950 . S
C1471 C1469 1.327 . S
C1472 C1460 1.349 . S
C1472 H1466 0.950 . S
C1472 C1473 1.327 . S
C1473 H1467 0.950 . S
C1473 C1472 1.327 . S
C1473 C1477 1.429 . S
C1474 C1457 1.574 . S
C1474 H1468 0.949 . S
C1474 C1478 1.368 . S
C1475 C1456 1.429 . S
C1475 C1469 1.429 . S
C1475 C1476 1.523 . S
C1476 C1457 1.368 . S
C1476 C1470 1.368 . S
C1476 C1475 1.523 . S
C1477 C1461 1.429 . S
C1477 C1473 1.429 . S
C1477 C1478 1.523 . S
C1478 C1462 1.368 . S
C1478 C1474 1.368 . S
C1478 C1477 1.523 . S
H1479 C1454 0.950 . S
H1480 C1456 0.950 . S
H1481 C1457 0.949 . S
H1482 C1459 0.950 . S
H1483 C1461 0.950 . S
C1484 C1485 1.349 . S
C1484 C1486 1.327 . S
C1484 H1509 0.950 . S
C1485 C1484 1.349 . S
C1485 C1501 1.349 . S
C1486 C1484 1.327 . S
C1486 C1505 1.429 . S
C1486 H1510 0.950 . S
C1487 C1504 1.574 . S
C1487 C1506 1.368 . S
C1487 H1511 0.949 . S
H1488 C1492 0.949 . S
C1489 C1490 1.349 . S
C1489 C1491 1.327 . S
C1489 H1512 0.950 . S
C1490 C1489 1.349 . S
C1490 C1502 1.349 . S
C1491 C1489 1.327 . S
C1491 C1507 1.429 . S
C1491 H1513 0.950 . S
C1492 H1488 0.949 . S
C1492 C1500 1.574 . S
C1492 C1508 1.368 . S
H1493 C1501 0.950 . S
H1494 C1499 0.950 . S
H1495 C1500 0.949 . S
H1496 C1502 0.950 . S
H1497 C1503 0.950 . S
H1498 C1504 0.949 . S
C1499 H1494 0.950 . S
C1499 C1501 1.327 . S
C1499 C1505 1.429 . S
C1500 C1492 1.574 . S
C1500 H1495 0.949 . S
C1500 C1506 1.368 . S
C1501 C1485 1.349 . S
C1501 H1493 0.950 . S
C1501 C1499 1.327 . S
C1502 C1490 1.349 . S
C1502 H1496 0.950 . S
C1502 C1503 1.327 . S
C1503 H1497 0.950 . S
C1503 C1502 1.327 . S
C1503 C1507 1.429 . S
C1504 C1487 1.574 . S
C1504 H1498 0.949 . S
C1504 C1508 1.368 . S
C1505 C1486 1.429 . S
C1505 C1499 1.429 . S
C1505 C1506 1.523 . S
C1506 C1487 1.368 . S
C1506 C1500 1.368 . S
C1506 C1505 1.523 . S
C1507 C1491 1.429 . S
C1507 C1503 1.429 . S
C1507 C1508 1.523 . S
C1508 C1492 1.368 . S
C1508 C1504 1.368 . S
C1508 C1507 1.523 . S
H1509 C1484 0.950 . S
H1510 C1486 0.950 . S
H1511 C1487 0.949 . S
H1512 C1489 0.950 . S
H1513 C1491 0.950 . S
C1514 C1515 1.349 . S
C1514 C1516 1.327 . S
C1514 H1539 0.950 . S
C1515 C1514 1.349 . S
C1515 C1531 1.349 . S
C1516 C1514 1.327 . S
C1516 C1535 1.429 . S
C1516 H1540 0.950 . S
C1517 C1534 1.574 . S
C1517 C1536 1.368 . S
C1517 H1541 0.949 . S
H1518 C1522 0.949 . S
C1519 C1520 1.349 . S
C1519 C1521 1.327 . S
C1519 H1542 0.950 . S
C1520 C1519 1.349 . S
C1520 C1532 1.349 . S
C1521 C1519 1.327 . S
C1521 C1537 1.429 . S
C1521 H1543 0.950 . S
C1522 H1518 0.949 . S
C1522 C1530 1.574 . S
C1522 C1538 1.368 . S
H1523 C1531 0.950 . S
H1524 C1529 0.950 . S
H1525 C1530 0.949 . S
H1526 C1532 0.950 . S
H1527 C1533 0.950 . S
H1528 C1534 0.949 . S
C1529 H1524 0.950 . S
C1529 C1531 1.327 . S
C1529 C1535 1.429 . S
C1530 C1522 1.574 . S
C1530 H1525 0.949 . S
C1530 C1536 1.368 . S
C1531 C1515 1.349 . S
C1531 H1523 0.950 . S
C1531 C1529 1.327 . S
C1532 C1520 1.349 . S
C1532 H1526 0.950 . S
C1532 C1533 1.327 . S
C1533 H1527 0.950 . S
C1533 C1532 1.327 . S
C1533 C1537 1.429 . S
C1534 C1517 1.574 . S
C1534 H1528 0.949 . S
C1534 C1538 1.368 . S
C1535 C1516 1.429 . S
C1535 C1529 1.429 . S
C1535 C1536 1.523 . S
C1536 C1517 1.368 . S
C1536 C1530 1.368 . S
C1536 C1535 1.523 . S
C1537 C1521 1.429 . S
C1537 C1533 1.429 . S
C1537 C1538 1.523 . S
C1538 C1522 1.368 . S
C1538 C1534 1.368 . S
C1538 C1537 1.523 . S
H1539 C1514 0.950 . S
H1540 C1516 0.950 . S
H1541 C1517 0.949 . S
H1542 C1519 0.950 . S
H1543 C1521 0.950 . S
C1544 C1545 1.349 . S
C1544 C1546 1.327 . S
C1544 H1569 0.950 . S
C1545 C1544 1.349 . S
C1545 C1561 1.349 . S
C1546 C1544 1.327 . S
C1546 C1565 1.429 . S
C1546 H1570 0.950 . S
C1547 C1564 1.574 . S
C1547 C1566 1.368 . S
C1547 H1571 0.949 . S
H1548 C1552 0.949 . S
C1549 C1550 1.349 . S
C1549 C1551 1.327 . S
C1549 H1572 0.950 . S
C1550 C1549 1.349 . S
C1550 C1562 1.349 . S
C1551 C1549 1.327 . S
C1551 C1567 1.429 . S
C1551 H1573 0.950 . S
C1552 H1548 0.949 . S
C1552 C1560 1.574 . S
C1552 C1568 1.368 . S
H1553 C1561 0.950 . S
H1554 C1559 0.950 . S
H1555 C1560 0.949 . S
H1556 C1562 0.950 . S
H1557 C1563 0.950 . S
H1558 C1564 0.949 . S
C1559 H1554 0.950 . S
C1559 C1561 1.327 . S
C1559 C1565 1.429 . S
C1560 C1552 1.574 . S
C1560 H1555 0.949 . S
C1560 C1566 1.368 . S
C1561 C1545 1.349 . S
C1561 H1553 0.950 . S
C1561 C1559 1.327 . S
C1562 C1550 1.349 . S
C1562 H1556 0.950 . S
C1562 C1563 1.327 . S
C1563 H1557 0.950 . S
C1563 C1562 1.327 . S
C1563 C1567 1.429 . S
C1564 C1547 1.574 . S
C1564 H1558 0.949 . S
C1564 C1568 1.368 . S
C1565 C1546 1.429 . S
C1565 C1559 1.429 . S
C1565 C1566 1.523 . S
C1566 C1547 1.368 . S
C1566 C1560 1.368 . S
C1566 C1565 1.523 . S
C1567 C1551 1.429 . S
C1567 C1563 1.429 . S
C1567 C1568 1.523 . S
C1568 C1552 1.368 . S
C1568 C1564 1.368 . S
C1568 C1567 1.523 . S
H1569 C1544 0.950 . S
H1570 C1546 0.950 . S
H1571 C1547 0.949 . S
H1572 C1549 0.950 . S
H1573 C1551 0.950 . S
C1574 C1575 1.349 . S
C1574 C1576 1.327 . S
C1574 H1599 0.950 . S
C1575 C1574 1.349 . S
C1575 C1591 1.349 . S
C1576 C1574 1.327 . S
C1576 C1595 1.429 . S
C1576 H1600 0.950 . S
C1577 C1594 1.574 . S
C1577 C1596 1.368 . S
C1577 H1601 0.949 . S
H1578 C1582 0.949 . S
C1579 C1580 1.349 . S
C1579 C1581 1.327 . S
C1579 H1602 0.950 . S
C1580 C1579 1.349 . S
C1580 C1592 1.349 . S
C1581 C1579 1.327 . S
C1581 C1597 1.429 . S
C1581 H1603 0.950 . S
C1582 H1578 0.949 . S
C1582 C1590 1.574 . S
C1582 C1598 1.368 . S
H1583 C1591 0.950 . S
H1584 C1589 0.950 . S
H1585 C1590 0.949 . S
H1586 C1592 0.950 . S
H1587 C1593 0.950 . S
H1588 C1594 0.949 . S
C1589 H1584 0.950 . S
C1589 C1591 1.327 . S
C1589 C1595 1.429 . S
C1590 C1582 1.574 . S
C1590 H1585 0.949 . S
C1590 C1596 1.368 . S
C1591 C1575 1.349 . S
C1591 H1583 0.950 . S
C1591 C1589 1.327 . S
C1592 C1580 1.349 . S
C1592 H1586 0.950 . S
C1592 C1593 1.327 . S
C1593 H1587 0.950 . S
C1593 C1592 1.327 . S
C1593 C1597 1.429 . S
C1594 C1577 1.574 . S
C1594 H1588 0.949 . S
C1594 C1598 1.368 . S
C1595 C1576 1.429 . S
C1595 C1589 1.429 . S
C1595 C1596 1.523 . S
C1596 C1577 1.368 . S
C1596 C1590 1.368 . S
C1596 C1595 1.523 . S
C1597 C1581 1.429 . S
C1597 C1593 1.429 . S
C1597 C1598 1.523 . S
C1598 C1582 1.368 . S
C1598 C1594 1.368 . S
C1598 C1597 1.523 . S
H1599 C1574 0.950 . S
H1600 C1576 0.950 . S
H1601 C1577 0.949 . S
H1602 C1579 0.950 . S
H1603 C1581 0.950 . S
C1604 C1605 1.349 . S
C1604 C1606 1.327 . S
C1604 H1629 0.950 . S
C1605 C1604 1.349 . S
C1605 C1621 1.349 . S
C1606 C1604 1.327 . S
C1606 C1625 1.429 . S
C1606 H1630 0.950 . S
C1607 C1624 1.574 1_565 S
C1607 C1626 1.368 . S
C1607 H1631 0.949 . S
H1608 C1612 0.949 . S
C1609 C1610 1.349 . S
C1609 C1611 1.327 . S
C1609 H1632 0.950 . S
C1610 C1609 1.349 . S
C1610 C1622 1.349 . S
C1611 C1609 1.327 . S
C1611 C1627 1.429 . S
C1611 H1633 0.950 . S
C1612 H1608 0.949 . S
C1612 C1620 1.574 1_545 S
C1612 C1628 1.368 . S
H1613 C1621 0.950 . S
H1614 C1619 0.950 . S
H1615 C1620 0.949 . S
H1616 C1622 0.950 . S
H1617 C1623 0.950 . S
H1618 C1624 0.949 . S
C1619 H1614 0.950 . S
C1619 C1621 1.327 . S
C1619 C1625 1.429 . S
C1620 C1612 1.574 1_565 S
C1620 H1615 0.949 . S
C1620 C1626 1.368 . S
C1621 C1605 1.349 . S
C1621 H1613 0.950 . S
C1621 C1619 1.327 . S
C1622 C1610 1.349 . S
C1622 H1616 0.950 . S
C1622 C1623 1.327 . S
C1623 H1617 0.950 . S
C1623 C1622 1.327 . S
C1623 C1627 1.429 . S
C1624 C1607 1.574 1_545 S
C1624 H1618 0.949 . S
C1624 C1628 1.368 . S
C1625 C1606 1.429 . S
C1625 C1619 1.429 . S
C1625 C1626 1.523 . S
C1626 C1607 1.368 . S
C1626 C1620 1.368 . S
C1626 C1625 1.523 . S
C1627 C1611 1.429 . S
C1627 C1623 1.429 . S
C1627 C1628 1.523 . S
C1628 C1612 1.368 . S
C1628 C1624 1.368 . S
C1628 C1627 1.523 . S
H1629 C1604 0.950 . S
H1630 C1606 0.950 . S
H1631 C1607 0.949 . S
H1632 C1609 0.950 . S
H1633 C1611 0.950 . S
C1634 C1635 1.349 . S
C1634 C1636 1.327 . S
C1634 H1659 0.950 . S
C1635 C1634 1.349 . S
C1635 C1651 1.349 . S
C1636 C1634 1.327 . S
C1636 C1655 1.429 . S
C1636 H1660 0.950 . S
C1637 C1654 1.626 . S
C1637 C1656 1.368 . S
C1637 H1661 0.949 1_455 S
H1638 C1642 0.949 . S
C1639 C1640 1.349 . S
C1639 C1641 1.327 . S
C1639 H1662 0.950 1_455 S
C1640 C1639 1.349 . S
C1640 C1652 1.349 . S
C1641 C1639 1.327 . S
C1641 C1657 1.429 . S
C1641 H1663 0.950 1_455 S
C1642 H1638 0.949 . S
C1642 C1650 1.626 . S
C1642 C1658 1.368 . S
H1643 C1651 0.950 1_655 S
H1644 C1649 0.950 1_654 S
H1645 C1650 0.954 1_556 S
H1646 C1652 0.950 . S
H1647 C1653 0.950 . S
H1648 C1654 0.954 1_655 S
C1649 H1644 0.950 1_456 S
C1649 C1651 1.327 . S
C1649 C1655 1.429 . S
C1650 C1642 1.626 . S
C1650 H1645 0.954 1_554 S
C1650 C1656 1.316 1_565 S
C1651 C1635 1.349 . S
C1651 H1643 0.950 1_455 S
C1651 C1649 1.327 . S
C1652 C1640 1.349 . S
C1652 H1646 0.950 . S
C1652 C1653 1.327 . S
C1653 H1647 0.950 . S
C1653 C1652 1.327 . S
C1653 C1657 1.429 . S
C1654 C1637 1.626 . S
C1654 H1648 0.954 1_455 S
C1654 C1658 1.316 1_545 S
C1655 C1636 1.429 . S
C1655 C1649 1.429 . S
C1655 C1656 1.523 1_556 S
C1656 C1637 1.368 . S
C1656 C1650 1.316 1_545 S
C1656 C1655 1.523 1_554 S
C1657 C1641 1.429 . S
C1657 C1653 1.429 . S
C1657 C1658 1.523 . S
C1658 C1642 1.368 . S
C1658 C1654 1.316 1_565 S
C1658 C1657 1.523 . S
H1659 C1634 0.950 . S
H1660 C1636 0.950 . S
H1661 C1637 0.949 1_655 S
H1662 C1639 0.950 1_655 S
H1663 C1641 0.950 1_655 S
C1664 C1665 1.349 . S
C1664 C1666 1.327 . S
C1664 H1689 0.950 . S
C1665 C1664 1.349 . S
C1665 C1681 1.336 1_455 S
C1666 C1664 1.327 . S
C1666 C1685 1.429 . S
C1666 H1690 0.950 . S
C1667 C1684 1.574 . S
C1667 C1686 1.368 1_655 S
C1667 H1691 0.949 . S
H1668 C1672 0.949 . S
C1669 C1670 1.336 1_655 S
C1669 C1671 1.327 . S
C1669 H1692 0.962 . S
C1670 C1669 1.336 1_455 S
C1670 C1682 1.349 . S
C1671 C1669 1.327 . S
C1671 C1687 1.399 1_655 S
C1671 H1693 0.981 . S
C1672 H1668 0.949 . S
C1672 C1680 1.574 . S
C1672 C1688 1.368 . S
H1673 C1681 0.962 . S
H1674 C1679 0.981 . S
H1675 C1680 0.949 . S
H1676 C1682 0.950 . S
H1677 C1683 0.950 . S
H1678 C1684 0.949 . S
C1679 H1674 0.981 . S
C1679 C1681 1.327 . S
C1679 C1685 1.399 1_655 S
C1680 C1672 1.574 . S
C1680 H1675 0.949 . S
C1680 C1686 1.368 . S
C1681 C1665 1.336 1_655 S
C1681 H1673 0.962 . S
C1681 C1679 1.327 . S
C1682 C1670 1.349 . S
C1682 H1676 0.950 . S
C1682 C1683 1.327 . S
C1683 H1677 0.950 . S
C1683 C1682 1.327 . S
C1683 C1687 1.429 . S
C1684 C1667 1.574 . S
C1684 H1678 0.949 . S
C1684 C1688 1.368 1_655 S
C1685 C1666 1.429 . S
C1685 C1679 1.399 1_455 S
C1685 C1686 1.523 . S
C1686 C1667 1.368 1_455 S
C1686 C1680 1.368 . S
C1686 C1685 1.523 . S
C1687 C1671 1.399 1_455 S
C1687 C1683 1.429 . S
C1687 C1688 1.523 . S
C1688 C1672 1.368 . S
C1688 C1684 1.368 1_455 S
C1688 C1687 1.523 . S
H1689 C1664 0.950 . S
H1690 C1666 0.950 . S
H1691 C1667 0.949 . S
H1692 C1669 0.962 . S
H1693 C1671 0.981 . S
C1694 C1695 1.349 . S
C1694 C1696 1.327 . S
C1694 H1719 0.950 . S
C1695 C1694 1.349 . S
C1695 C1711 1.349 . S
C1696 C1694 1.327 . S
C1696 C1715 1.429 . S
C1696 H1720 0.950 . S
C1697 C1714 1.574 . S
C1697 C1716 1.368 . S
C1697 H1721 0.949 . S
H1698 C1702 0.949 . S
C1699 C1700 1.349 . S
C1699 C1701 1.327 . S
C1699 H1722 0.950 . S
C1700 C1699 1.349 . S
C1700 C1712 1.349 . S
C1701 C1699 1.327 . S
C1701 C1717 1.429 . S
C1701 H1723 0.950 . S
C1702 H1698 0.949 . S
C1702 C1710 1.574 . S
C1702 C1718 1.368 . S
H1703 C1711 0.950 . S
H1704 C1709 0.950 . S
H1705 C1710 0.949 . S
H1706 C1712 0.950 . S
H1707 C1713 0.950 . S
H1708 C1714 0.949 . S
C1709 H1704 0.950 . S
C1709 C1711 1.327 . S
C1709 C1715 1.429 . S
C1710 C1702 1.574 . S
C1710 H1705 0.949 . S
C1710 C1716 1.368 . S
C1711 C1695 1.349 . S
C1711 H1703 0.950 . S
C1711 C1709 1.327 . S
C1712 C1700 1.349 . S
C1712 H1706 0.950 . S
C1712 C1713 1.327 . S
C1713 H1707 0.950 . S
C1713 C1712 1.327 . S
C1713 C1717 1.429 . S
C1714 C1697 1.574 . S
C1714 H1708 0.949 . S
C1714 C1718 1.368 . S
C1715 C1696 1.429 . S
C1715 C1709 1.429 . S
C1715 C1716 1.523 . S
C1716 C1697 1.368 . S
C1716 C1710 1.368 . S
C1716 C1715 1.523 . S
C1717 C1701 1.429 . S
C1717 C1713 1.429 . S
C1717 C1718 1.523 . S
C1718 C1702 1.368 . S
C1718 C1714 1.368 . S
C1718 C1717 1.523 . S
H1719 C1694 0.950 . S
H1720 C1696 0.950 . S
H1721 C1697 0.949 . S
H1722 C1699 0.950 . S
H1723 C1701 0.950 . S
C1724 C1725 1.349 . S
C1724 C1726 1.327 . S
C1724 H1749 0.950 . S
C1725 C1724 1.349 . S
C1725 C1741 1.349 . S
C1726 C1724 1.327 . S
C1726 C1745 1.429 . S
C1726 H1750 0.950 . S
C1727 C1744 1.574 . S
C1727 C1746 1.368 . S
C1727 H1751 0.949 . S
H1728 C1732 0.949 1_556 S
C1729 C1730 1.349 . S
C1729 C1731 1.327 . S
C1729 H1752 0.950 . S
C1730 C1729 1.349 . S
C1730 C1742 1.349 . S
C1731 C1729 1.327 . S
C1731 C1747 1.429 . S
C1731 H1753 0.950 1_556 S
C1732 H1728 0.949 1_554 S
C1732 C1740 1.574 . S
C1732 C1748 1.368 . S
H1733 C1741 0.950 . S
H1734 C1739 0.950 . S
H1735 C1740 0.949 . S
H1736 C1742 0.950 . S
H1737 C1743 0.950 . S
H1738 C1744 0.949 . S
C1739 H1734 0.950 . S
C1739 C1741 1.327 . S
C1739 C1745 1.429 . S
C1740 C1732 1.574 . S
C1740 H1735 0.949 . S
C1740 C1746 1.368 . S
C1741 C1725 1.349 . S
C1741 H1733 0.950 . S
C1741 C1739 1.327 . S
C1742 C1730 1.349 . S
C1742 H1736 0.950 . S
C1742 C1743 1.327 . S
C1743 H1737 0.950 . S
C1743 C1742 1.327 . S
C1743 C1747 1.429 . S
C1744 C1727 1.574 . S
C1744 H1738 0.949 . S
C1744 C1748 1.368 . S
C1745 C1726 1.429 . S
C1745 C1739 1.429 . S
C1745 C1746 1.523 . S
C1746 C1727 1.368 . S
C1746 C1740 1.368 . S
C1746 C1745 1.523 . S
C1747 C1731 1.429 . S
C1747 C1743 1.429 . S
C1747 C1748 1.523 1_556 S
C1748 C1732 1.368 . S
C1748 C1744 1.368 . S
C1748 C1747 1.523 1_554 S
H1749 C1724 0.950 . S
H1750 C1726 0.950 . S
H1751 C1727 0.949 . S
H1752 C1729 0.950 . S
H1753 C1731 0.950 1_554 S
C1754 C1755 1.349 . S
C1754 C1756 1.327 . S
C1754 H1779 0.950 . S
C1755 C1754 1.349 . S
C1755 C1771 1.349 . S
C1756 C1754 1.327 . S
C1756 C1775 1.429 . S
C1756 H1780 0.950 . S
C1757 C1774 1.574 . S
C1757 C1776 1.368 . S
C1757 H1781 0.949 . S
H1758 C1762 0.949 . S
C1759 C1760 1.349 . S
C1759 C1761 1.327 . S
C1759 H1782 0.950 . S
C1760 C1759 1.349 . S
C1760 C1772 1.349 . S
C1761 C1759 1.327 . S
C1761 C1777 1.429 . S
C1761 H1783 0.950 . S
C1762 H1758 0.949 . S
C1762 C1770 1.574 . S
C1762 C1778 1.368 . S
H1763 C1771 0.950 . S
H1764 C1769 0.950 . S
H1765 C1770 0.949 . S
H1766 C1772 0.950 . S
H1767 C1773 0.950 . S
H1768 C1774 0.949 . S
C1769 H1764 0.950 . S
C1769 C1771 1.327 . S
C1769 C1775 1.429 . S
C1770 C1762 1.574 . S
C1770 H1765 0.949 . S
C1770 C1776 1.368 . S
C1771 C1755 1.349 . S
C1771 H1763 0.950 . S
C1771 C1769 1.327 . S
C1772 C1760 1.349 . S
C1772 H1766 0.950 . S
C1772 C1773 1.327 . S
C1773 H1767 0.950 . S
C1773 C1772 1.327 . S
C1773 C1777 1.429 . S
C1774 C1757 1.574 . S
C1774 H1768 0.949 . S
C1774 C1778 1.368 . S
C1775 C1756 1.429 . S
C1775 C1769 1.429 . S
C1775 C1776 1.523 . S
C1776 C1757 1.368 . S
C1776 C1770 1.368 . S
C1776 C1775 1.523 . S
C1777 C1761 1.429 . S
C1777 C1773 1.429 . S
C1777 C1778 1.523 . S
C1778 C1762 1.368 . S
C1778 C1774 1.368 . S
C1778 C1777 1.523 . S
H1779 C1754 0.950 . S
H1780 C1756 0.950 . S
H1781 C1757 0.949 . S
H1782 C1759 0.950 . S
H1783 C1761 0.950 . S
C1784 C1785 1.349 . S
C1784 C1786 1.327 . S
C1784 H1809 0.950 . S
C1785 C1784 1.349 . S
C1785 C1801 1.349 . S
C1786 C1784 1.327 . S
C1786 C1805 1.429 . S
C1786 H1810 0.950 . S
C1787 C1804 1.574 . S
C1787 C1806 1.368 . S
C1787 H1811 0.949 . S
H1788 C1792 0.949 . S
C1789 C1790 1.349 . S
C1789 C1791 1.327 . S
C1789 H1812 0.950 . S
C1790 C1789 1.349 . S
C1790 C1802 1.349 . S
C1791 C1789 1.327 . S
C1791 C1807 1.429 . S
C1791 H1813 0.950 . S
C1792 H1788 0.949 . S
C1792 C1800 1.574 . S
C1792 C1808 1.368 . S
H1793 C1801 0.950 . S
H1794 C1799 0.950 . S
H1795 C1800 0.949 . S
H1796 C1802 0.950 . S
H1797 C1803 0.950 . S
H1798 C1804 0.949 . S
C1799 H1794 0.950 . S
C1799 C1801 1.327 . S
C1799 C1805 1.429 . S
C1800 C1792 1.574 . S
C1800 H1795 0.949 . S
C1800 C1806 1.368 . S
C1801 C1785 1.349 . S
C1801 H1793 0.950 . S
C1801 C1799 1.327 . S
C1802 C1790 1.349 . S
C1802 H1796 0.950 . S
C1802 C1803 1.327 . S
C1803 H1797 0.950 . S
C1803 C1802 1.327 . S
C1803 C1807 1.429 . S
C1804 C1787 1.574 . S
C1804 H1798 0.949 . S
C1804 C1808 1.368 . S
C1805 C1786 1.429 . S
C1805 C1799 1.429 . S
C1805 C1806 1.523 . S
C1806 C1787 1.368 . S
C1806 C1800 1.368 . S
C1806 C1805 1.523 . S
C1807 C1791 1.429 . S
C1807 C1803 1.429 . S
C1807 C1808 1.523 . S
C1808 C1792 1.368 . S
C1808 C1804 1.368 . S
C1808 C1807 1.523 . S
H1809 C1784 0.950 . S
H1810 C1786 0.950 . S
H1811 C1787 0.949 . S
H1812 C1789 0.950 . S
H1813 C1791 0.950 . S
C1814 C1815 1.349 . S
C1814 C1816 1.327 . S
C1814 H1839 0.950 . S
C1815 C1814 1.349 . S
C1815 C1831 1.349 . S
C1816 C1814 1.327 . S
C1816 C1835 1.429 . S
C1816 H1840 0.950 . S
C1817 C1834 1.574 . S
C1817 C1836 1.368 . S
C1817 H1841 0.949 . S
H1818 C1822 0.949 . S
C1819 C1820 1.349 . S
C1819 C1821 1.327 . S
C1819 H1842 0.950 . S
C1820 C1819 1.349 . S
C1820 C1832 1.349 . S
C1821 C1819 1.327 . S
C1821 C1837 1.429 . S
C1821 H1843 0.950 . S
C1822 H1818 0.949 . S
C1822 C1830 1.574 . S
C1822 C1838 1.368 . S
H1823 C1831 0.950 . S
H1824 C1829 0.950 . S
H1825 C1830 0.949 . S
H1826 C1832 0.950 . S
H1827 C1833 0.950 . S
H1828 C1834 0.949 . S
C1829 H1824 0.950 . S
C1829 C1831 1.327 . S
C1829 C1835 1.429 . S
C1830 C1822 1.574 . S
C1830 H1825 0.949 . S
C1830 C1836 1.368 . S
C1831 C1815 1.349 . S
C1831 H1823 0.950 . S
C1831 C1829 1.327 . S
C1832 C1820 1.349 . S
C1832 H1826 0.950 . S
C1832 C1833 1.327 . S
C1833 H1827 0.950 . S
C1833 C1832 1.327 . S
C1833 C1837 1.429 . S
C1834 C1817 1.574 . S
C1834 H1828 0.949 . S
C1834 C1838 1.368 . S
C1835 C1816 1.429 . S
C1835 C1829 1.429 . S
C1835 C1836 1.523 . S
C1836 C1817 1.368 . S
C1836 C1830 1.368 . S
C1836 C1835 1.523 . S
C1837 C1821 1.429 . S
C1837 C1833 1.429 . S
C1837 C1838 1.523 . S
C1838 C1822 1.368 . S
C1838 C1834 1.368 . S
C1838 C1837 1.523 . S
H1839 C1814 0.950 . S
H1840 C1816 0.950 . S
H1841 C1817 0.949 . S
H1842 C1819 0.950 . S
H1843 C1821 0.950 . S
C1844 C1845 1.349 . S
C1844 C1846 1.327 . S
C1844 H1869 0.950 . S
C1845 C1844 1.349 . S
C1845 C1861 1.349 . S
C1846 C1844 1.327 . S
C1846 C1865 1.429 . S
C1846 H1870 0.950 . S
C1847 C1864 1.574 . S
C1847 C1866 1.368 1_545 S
C1847 H1871 0.949 . S
H1848 C1852 0.927 1_556 S
C1849 C1850 1.349 . S
C1849 C1851 1.327 . S
C1849 H1872 0.950 . S
C1850 C1849 1.349 . S
C1850 C1862 1.349 . S
C1851 C1849 1.327 . S
C1851 C1867 1.429 . S
C1851 H1873 0.950 1_556 S
C1852 H1848 0.927 1_554 S
C1852 C1860 1.591 . S
C1852 C1868 1.375 1_565 S
H1853 C1861 0.950 . S
H1854 C1859 0.950 . S
H1855 C1860 0.949 . S
H1856 C1862 0.950 . S
H1857 C1863 0.950 . S
H1858 C1864 0.949 . S
C1859 H1854 0.950 . S
C1859 C1861 1.327 . S
C1859 C1865 1.429 . S
C1860 C1852 1.591 . S
C1860 H1855 0.949 . S
C1860 C1866 1.368 . S
C1861 C1845 1.349 . S
C1861 H1853 0.950 . S
C1861 C1859 1.327 . S
C1862 C1850 1.349 . S
C1862 H1856 0.950 . S
C1862 C1863 1.327 . S
C1863 H1857 0.950 . S
C1863 C1862 1.327 . S
C1863 C1867 1.429 . S
C1864 C1847 1.574 . S
C1864 H1858 0.949 . S
C1864 C1868 1.368 . S
C1865 C1846 1.429 . S
C1865 C1859 1.429 . S
C1865 C1866 1.523 . S
C1866 C1847 1.368 1_565 S
C1866 C1860 1.368 . S
C1866 C1865 1.523 . S
C1867 C1851 1.429 . S
C1867 C1863 1.429 . S
C1867 C1868 1.523 1_556 S
C1868 C1852 1.375 1_545 S
C1868 C1864 1.368 . S
C1868 C1867 1.523 1_554 S
H1869 C1844 0.950 . S
H1870 C1846 0.950 . S
H1871 C1847 0.949 . S
H1872 C1849 0.950 . S
H1873 C1851 0.950 1_554 S
C1874 C1875 1.349 . S
C1874 C1876 1.327 . S
C1874 H1899 0.950 . S
C1875 C1874 1.349 . S
C1875 C1891 1.309 1_655 S
C1876 C1874 1.327 . S
C1876 C1895 1.429 . S
C1876 H1900 0.950 . S
C1877 C1894 1.585 . S
C1877 C1896 1.368 1_455 S
C1877 H1901 0.949 . S
H1878 C1882 0.949 . S
C1879 C1880 1.309 1_455 S
C1879 C1881 1.329 . S
C1879 H1902 0.990 . S
C1880 C1879 1.309 1_655 S
C1880 C1892 1.349 . S
C1881 C1879 1.329 . S
C1881 C1897 1.429 1_455 S
C1881 H1903 0.950 . S
C1882 H1878 0.949 . S
C1882 C1890 1.585 . S
C1882 C1898 1.368 . S
H1883 C1891 0.990 . S
H1884 C1889 0.950 . S
H1885 C1890 0.949 . S
H1886 C1892 0.950 . S
H1887 C1893 0.950 . S
H1888 C1894 0.949 . S
C1889 H1884 0.950 . S
C1889 C1891 1.329 . S
C1889 C1895 1.429 1_455 S
C1890 C1882 1.585 . S
C1890 H1885 0.949 . S
C1890 C1896 1.358 1_565 S
C1891 C1875 1.309 1_455 S
C1891 H1883 0.990 . S
C1891 C1889 1.329 . S
C1892 C1880 1.349 . S
C1892 H1886 0.950 . S
C1892 C1893 1.327 . S
C1893 H1887 0.950 . S
C1893 C1892 1.327 . S
C1893 C1897 1.429 . S
C1894 C1877 1.585 . S
C1894 H1888 0.949 . S
C1894 C1898 1.357 1_445 S
C1895 C1876 1.429 . S
C1895 C1889 1.429 1_655 S
C1895 C1896 1.523 . S
C1896 C1877 1.368 1_655 S
C1896 C1890 1.358 1_545 S
C1896 C1895 1.523 . S
C1897 C1881 1.429 1_655 S
C1897 C1893 1.429 . S
C1897 C1898 1.523 . S
C1898 C1882 1.368 . S
C1898 C1894 1.357 1_665 S
C1898 C1897 1.523 . S
H1899 C1874 0.950 . S
H1900 C1876 0.950 . S
H1901 C1877 0.949 . S
H1902 C1879 0.990 . S
H1903 C1881 0.950 . S
C945 C564 1.761 . S
C950 C33 1.761 . S
C975 C859 1.761 . S
C980 C92 1.761 . S
C1005 C151 1.761 . S
C1010 C505 1.761 . S
C1035 C210 1.761 . S
C1040 C918 1.761 . S
C1065 C269 1.761 . S
C1070 C623 1.761 . S
C1095 C800 1.761 . S
C1100 C328 1.761 . S
C1125 C682 1.761 . S
C1130 C387 1.761 . S
C1155 C446 1.761 . S
C1160 C741 1.761 . S
C1185 C288 1.511 . S
C1190 C229 1.511 . S
C1215 C760 1.511 . S
C1220 C524 1.511 . S
C1245 C406 1.511 . S
C1250 C111 1.511 . S
C1275 C583 1.511 . S
C1280 C819 1.511 . S
C1305 C52 1.511 . S
C1310 C347 1.511 . S
C1335 C937 1.511 . S
C1340 C642 1.511 . S
C1365 C465 1.511 . S
C1370 C170 1.511 . S
C1395 C701 1.511 . S
C1400 C878 1.511 . S
C1425 C3 0.284 . S
C1430 C239 0.284 . S
C1455 C298 0.284 . S
C1460 C62 0.284 . S
C1485 C357 0.284 . S
C1490 C121 0.284 . S
C1515 C180 0.284 . S
C1520 C416 0.284 . S
C1545 C593 0.284 . S
C1550 C475 0.284 . S
C1575 C652 0.284 . S
C1580 C534 0.284 . S
C1605 C829 0.284 . S
C1610 C711 0.284 . S
C1635 C888 0.284 . S
C1640 C770 0.284 . S
C1665 C241 2.050 . S
C1670 C5 2.050 . S
C1695 C300 2.050 . S
C1700 C64 2.050 . S
C1725 C359 2.050 . S
C1730 C123 2.050 . S
C1755 C182 2.050 . S
C1760 C418 2.050 . S
C1785 C477 2.050 . S
C1790 C595 2.050 . S
C1815 C654 2.050 . S
C1820 C536 2.050 . S
C1845 C831 2.050 . S
C1850 C713 2.050 . S
C1875 C890 2.050 . S
C1880 C772 2.050 . S
