# Generated by pormake.
# Topology pcl, (4)-cn, num edge types: 1
# Building blocks:
#     Node 0, Type 0, BuildingBlock: ICAMEG_clean_sbu_1, # of connection points: 4
#     Node 1, Type 0, BuildingBlock: ICAMEG_clean_sbu_1, # of connection points: 4
#     Node 2, Type 0, BuildingBlock: ICAMEG_clean_sbu_1, # of connection points: 4
#     Node 3, Type 0, BuildingBlock: ICAMEG_clean_sbu_1, # of connection points: 4
#     Node 4, Type 0, BuildingBlock: ICAMEG_clean_sbu_1, # of connection points: 4
#     Node 5, Type 0, BuildingBlock: ICAMEG_clean_sbu_1, # of connection points: 4
#     Node 6, Type 0, BuildingBlock: ICAMEG_clean_sbu_1, # of connection points: 4
#     Node 7, Type 0, BuildingBlock: ICAMEG_clean_sbu_1, # of connection points: 4
#     Node 8, Type 0, BuildingBlock: ICAMEG_clean_sbu_1, # of connection points: 4
#     Node 9, Type 0, BuildingBlock: ICAMEG_clean_sbu_1, # of connection points: 4
#     Node 10, Type 0, BuildingBlock: ICAMEG_clean_sbu_1, # of connection points: 4
#     Node 11, Type 0, BuildingBlock: ICAMEG_clean_sbu_1, # of connection points: 4
#     Node 12, Type 0, BuildingBlock: ICAMEG_clean_sbu_1, # of connection points: 4
#     Node 13, Type 0, BuildingBlock: ICAMEG_clean_sbu_1, # of connection points: 4
#     Node 14, Type 0, BuildingBlock: ICAMEG_clean_sbu_1, # of connection points: 4
#     Node 15, Type 0, BuildingBlock: ICAMEG_clean_sbu_1, # of connection points: 4
#     Edge 16, Type (0, 0), BuildingBlock: TEMPAE_clean_linker_10, # of connection points: 2
#     Edge 17, Type (0, 0), BuildingBlock: TEMPAE_clean_linker_10, # of connection points: 2
#     Edge 18, Type (0, 0), BuildingBlock: TEMPAE_clean_linker_10, # of connection points: 2
#     Edge 19, Type (0, 0), BuildingBlock: TEMPAE_clean_linker_10, # of connection points: 2
#     Edge 20, Type (0, 0), BuildingBlock: TEMPAE_clean_linker_10, # of connection points: 2
#     Edge 21, Type (0, 0), BuildingBlock: TEMPAE_clean_linker_10, # of connection points: 2
#     Edge 22, Type (0, 0), BuildingBlock: TEMPAE_clean_linker_10, # of connection points: 2
#     Edge 23, Type (0, 0), BuildingBlock: TEMPAE_clean_linker_10, # of connection points: 2
#     Edge 24, Type (0, 0), BuildingBlock: TEMPAE_clean_linker_10, # of connection points: 2
#     Edge 25, Type (0, 0), BuildingBlock: TEMPAE_clean_linker_10, # of connection points: 2
#     Edge 26, Type (0, 0), BuildingBlock: TEMPAE_clean_linker_10, # of connection points: 2
#     Edge 27, Type (0, 0), BuildingBlock: TEMPAE_clean_linker_10, # of connection points: 2
#     Edge 28, Type (0, 0), BuildingBlock: TEMPAE_clean_linker_10, # of connection points: 2
#     Edge 29, Type (0, 0), BuildingBlock: TEMPAE_clean_linker_10, # of connection points: 2
#     Edge 30, Type (0, 0), BuildingBlock: TEMPAE_clean_linker_10, # of connection points: 2
#     Edge 31, Type (0, 0), BuildingBlock: TEMPAE_clean_linker_10, # of connection points: 2
#     Edge 32, Type (0, 0), BuildingBlock: TEMPAE_clean_linker_10, # of connection points: 2
#     Edge 33, Type (0, 0), BuildingBlock: TEMPAE_clean_linker_10, # of connection points: 2
#     Edge 34, Type (0, 0), BuildingBlock: TEMPAE_clean_linker_10, # of connection points: 2
#     Edge 35, Type (0, 0), BuildingBlock: TEMPAE_clean_linker_10, # of connection points: 2
#     Edge 36, Type (0, 0), BuildingBlock: TEMPAE_clean_linker_10, # of connection points: 2
#     Edge 37, Type (0, 0), BuildingBlock: TEMPAE_clean_linker_10, # of connection points: 2
#     Edge 38, Type (0, 0), BuildingBlock: TEMPAE_clean_linker_10, # of connection points: 2
#     Edge 39, Type (0, 0), BuildingBlock: TEMPAE_clean_linker_10, # of connection points: 2
#     Edge 40, Type (0, 0), BuildingBlock: TEMPAE_clean_linker_10, # of connection points: 2
#     Edge 41, Type (0, 0), BuildingBlock: TEMPAE_clean_linker_10, # of connection points: 2
#     Edge 42, Type (0, 0), BuildingBlock: TEMPAE_clean_linker_10, # of connection points: 2
#     Edge 43, Type (0, 0), BuildingBlock: TEMPAE_clean_linker_10, # of connection points: 2
#     Edge 44, Type (0, 0), BuildingBlock: TEMPAE_clean_linker_10, # of connection points: 2
#     Edge 45, Type (0, 0), BuildingBlock: TEMPAE_clean_linker_10, # of connection points: 2
#     Edge 46, Type (0, 0), BuildingBlock: TEMPAE_clean_linker_10, # of connection points: 2
#     Edge 47, Type (0, 0), BuildingBlock: TEMPAE_clean_linker_10, # of connection points: 2
# Relax obj value: 0.091
# Max RMSD: 0.122
# Mean RMSD: 0.117
data_MOF--net-pcl--node1-ICAMEG_clean_sbu_1--edge1-TEMPAE_clean_linker_10
_symmetry_space_group_name_H-M    P1
_symmetry_Int_Tables_number       1
_symmetry_cell_setting            triclinic
loop_
_symmetry_equiv_pos_as_xyz
'x, y, z'
_cell_length_a     56.059701
_cell_length_b     43.889017
_cell_length_c     47.485618
_cell_angle_alpha  90.010701
_cell_angle_beta   90.005254
_cell_angle_gamma 90.027943
loop_
_atom_site_label
_atom_site_type_symbol
_atom_site_fract_x
_atom_site_fract_y
_atom_site_fract_z
_atom_type_partial_charge
Co0 Co 0.13383 0.37305 0.11403 0.0
Co1 Co 0.13068 0.30002 0.0894 0.0
O2 O 0.14445 0.34119 0.08788 0.0
C3 C 0.13395 0.40498 0.05861 0.0
O4 O 0.12638 0.38001 0.04632 0.0
C5 C 0.18325 0.28792 0.08595 0.0
O6 O 0.18671 0.30819 0.10589 0.0
O7 O 0.1399 0.29634 0.12998 0.0
O8 O 0.12858 0.34259 0.14466 0.0
H9 H 0.08149 0.216 0.13176 0.0
H10 H 0.18008 0.38039 0.08482 0.0
O11 O 0.13851 0.40533 0.08483 0.0
H12 H 0.19948 0.38096 0.18613 0.0
H13 H 0.13645 0.47652 0.15988 0.0
H14 H 0.09392 0.3783 0.15473 0.0
H15 H 0.15779 0.3762 0.17022 0.0
H16 H 0.15031 0.43604 0.12781 0.0
O17 O 0.16215 0.28203 0.07758 0.0
H18 H 0.09855 0.26773 0.12897 0.0
H19 H 0.13477 0.24445 0.05342 0.0
H20 H 0.07961 0.41803 0.18731 0.0
H21 H 0.22205 0.38559 0.09983 0.0
H22 H 0.10092 0.46758 0.19003 0.0
H23 H 0.23195 0.38579 0.15082 0.0
O24 O 0.10051 0.36754 0.10101 0.0
H25 H 0.1453 0.32501 0.98759 0.0
H26 H 0.08607 0.28852 0.05655 0.0
H27 H 0.07449 0.29403 0.00675 0.0
H28 H 0.10423 0.31229 0.97184 0.0
H29 H 0.15603 0.31963 0.03772 0.0
H30 H 0.11831 0.19239 0.05554 0.0
H31 H 0.09137 0.17791 0.09486 0.0
O32 O 0.09833 0.31658 0.10034 0.0
C33 C 0.13461 0.31511 0.14953 0.0
C34 C 0.09317 0.22205 0.11449 0.0
C35 C 0.11386 0.20879 0.07173 0.0
N36 N 0.11754 0.25916 0.09099 0.0
C37 C 0.10284 0.25133 0.11277 0.0
C38 C 0.12319 0.23828 0.07069 0.0
C39 C 0.09874 0.20069 0.09379 0.0
C40 C 0.18426 0.38078 0.10704 0.0
N41 N 0.16652 0.37811 0.12659 0.0
C42 C 0.20805 0.3836 0.11542 0.0
C43 C 0.2136 0.38366 0.14403 0.0
C44 C 0.19539 0.38095 0.16385 0.0
C45 C 0.17181 0.37817 0.1547 0.0
C46 C 0.12705 0.455 0.15895 0.0
C47 C 0.1034 0.39971 0.15593 0.0
C48 C 0.13479 0.432 0.14079 0.0
N49 N 0.12307 0.4047 0.13959 0.0
C50 C 0.09516 0.42216 0.17436 0.0
C51 C 0.10711 0.44997 0.17586 0.0
C52 C 0.08851 0.34289 0.09999 0.0
C53 C 0.1322 0.31697 1.00259 0.0
C54 C 0.09907 0.29672 0.04157 0.0
C55 C 0.09243 0.29967 0.01335 0.0
C56 C 0.10914 0.30988 0.99377 0.0
N57 N 0.12172 0.30375 0.05006 0.0
C58 C 0.1382 0.31375 0.03098 0.0
Co59 Co 0.88036 0.63157 0.6142 0.0
Co60 Co 0.88072 0.70546 0.59076 0.0
O61 O 0.86836 0.66342 0.58874 0.0
C62 C 0.88012 0.60066 0.5582 0.0
O63 O 0.88622 0.6263 0.54595 0.0
C64 C 0.82772 0.71113 0.57884 0.0
O65 O 0.82439 0.6826 0.58594 0.0
O66 O 0.87206 0.70761 0.63155 0.0
O67 O 0.88501 0.66175 0.64524 0.0
H68 H 0.92823 0.79042 0.63419 0.0
H69 H 0.83415 0.61979 0.58595 0.0
O70 O 0.87643 0.59958 0.58459 0.0
H71 H 0.81628 0.61848 0.68763 0.0
H72 H 0.88208 0.52724 0.6584 0.0
H73 H 0.92106 0.62786 0.65393 0.0
H74 H 0.85731 0.6271 0.67085 0.0
H75 H 0.8663 0.56744 0.6273 0.0
O76 O 0.84844 0.72308 0.5805 0.0
H77 H 0.91267 0.73801 0.63034 0.0
H78 H 0.87434 0.76195 0.55641 0.0
H79 H 0.93729 0.5884 0.68551 0.0
H80 H 0.79288 0.61051 0.60184 0.0
H81 H 0.91776 0.53765 0.68789 0.0
H82 H 0.78371 0.60999 0.65302 0.0
O83 O 0.91315 0.63912 0.60057 0.0
H84 H 0.86595 0.68138 0.4886 0.0
H85 H 0.92413 0.72103 0.55732 0.0
H86 H 0.93528 0.71773 0.50724 0.0
H87 H 0.90605 0.69793 0.47243 0.0
H88 H 0.8557 0.68454 0.53892 0.0
H89 H 0.88929 0.81468 0.55964 0.0
H90 H 0.91653 0.82918 0.59867 0.0
O91 O 0.91381 0.69015 0.60038 0.0
C92 C 0.87815 0.68879 0.65071 0.0
C93 C 0.91642 0.78436 0.61705 0.0
C94 C 0.89454 0.79799 0.57523 0.0
N95 N 0.89273 0.74686 0.5931 0.0
C96 C 0.90759 0.7547 0.61472 0.0
C97 C 0.88607 0.76811 0.57356 0.0
C98 C 0.90983 0.8061 0.59713 0.0
C99 C 0.83032 0.61935 0.60825 0.0
N100 N 0.8481 0.62421 0.6274 0.0
C101 C 0.80691 0.61419 0.61713 0.0
C102 C 0.80177 0.61394 0.64584 0.0
C103 C 0.82003 0.61875 0.66527 0.0
C104 C 0.84322 0.62383 0.65562 0.0
C105 C 0.8907 0.54929 0.65762 0.0
C106 C 0.91236 0.60591 0.65499 0.0
C107 C 0.88186 0.57215 0.64002 0.0
N108 N 0.8926 0.6001 0.63901 0.0
C109 C 0.92167 0.58362 0.67285 0.0
C110 C 0.91072 0.55515 0.67416 0.0
C111 C 0.92438 0.66431 0.5995 0.0
C112 C 0.8788 0.69022 0.50354 0.0
C113 C 0.91132 0.71225 0.54238 0.0
C114 C 0.91773 0.71052 0.514 0.0
C115 C 0.90131 0.69944 0.49449 0.0
N116 N 0.88915 0.70328 0.55111 0.0
C117 C 0.87302 0.69228 0.53208 0.0
Co118 Co 0.13153 0.63389 0.89648 0.0
Co119 Co 0.12934 0.70863 0.917 0.0
O120 O 0.14234 0.66718 0.92096 0.0
C121 C 0.13991 0.60441 0.95356 0.0
O122 O 0.14745 0.62986 0.96499 0.0
C123 C 0.18209 0.7193 0.92134 0.0
O124 O 0.18554 0.69792 0.90243 0.0
O125 O 0.13925 0.70959 0.87653 0.0
O126 O 0.12806 0.66251 0.86398 0.0
H127 H 0.08274 0.79155 0.86914 0.0
H128 H 0.17831 0.62915 0.92656 0.0
O129 O 0.13387 0.60318 0.92774 0.0
H130 H 0.19712 0.61608 0.82598 0.0
H131 H 0.13165 0.52736 0.85689 0.0
H132 H 0.09245 0.62789 0.85477 0.0
H133 H 0.15565 0.6241 0.84136 0.0
H134 H 0.14613 0.56923 0.88705 0.0
O135 O 0.16095 0.72631 0.92875 0.0
H136 H 0.09863 0.73954 0.87499 0.0
H137 H 0.1339 0.76608 0.95027 0.0
H138 H 0.07756 0.58677 0.82404 0.0
H139 H 0.21989 0.62072 0.91217 0.0
H140 H 0.0972 0.53606 0.82498 0.0
H141 H 0.2296 0.61417 0.86151 0.0
O142 O 0.09817 0.64162 0.90812 0.0
H143 H 0.14162 0.68964 0.02035 0.0
H144 H 0.08435 0.7233 0.94797 0.0
H145 H 0.07171 0.72107 0.99762 0.0
H146 H 0.10046 0.70421 0.03425 0.0
H147 H 0.15343 0.69186 0.97038 0.0
H148 H 0.11858 0.81844 0.9451 0.0
H149 H 0.09272 0.83142 0.90436 0.0
O150 O 0.09686 0.69252 0.90605 0.0
C151 C 0.13428 0.68966 0.85784 0.0
C152 C 0.09395 0.78615 0.88702 0.0
C153 C 0.11409 0.80126 0.92963 0.0
N154 N 0.11707 0.74973 0.91302 0.0
C155 C 0.10296 0.75673 0.89047 0.0
C156 C 0.12277 0.77158 0.9324 0.0
C157 C 0.09957 0.80852 0.90677 0.0
C158 C 0.18217 0.62571 0.9046 0.0
N159 N 0.16435 0.62647 0.885 0.0
C160 C 0.20587 0.6212 0.8965 0.0
C161 C 0.21132 0.61762 0.86808 0.0
C162 C 0.19311 0.61869 0.84814 0.0
C163 C 0.16963 0.62325 0.85702 0.0
C164 C 0.12298 0.54938 0.85623 0.0
C165 C 0.10121 0.60597 0.85514 0.0
C166 C 0.13107 0.57316 0.8733 0.0
N167 N 0.12031 0.60109 0.87244 0.0
C168 C 0.09265 0.58274 0.83776 0.0
C169 C 0.10366 0.55428 0.83832 0.0
C170 C 0.08659 0.66655 0.90758 0.0
C171 C 0.12892 0.697 0.00459 0.0
C172 C 0.09691 0.71565 0.96371 0.0
C173 C 0.08968 0.71458 0.99183 0.0
C174 C 0.10582 0.70516 0.01237 0.0
N175 N 0.11959 0.70752 0.95622 0.0
C176 C 0.13552 0.69835 0.97626 0.0
Co177 Co 0.88269 0.37186 0.39535 0.0
Co178 Co 0.88197 0.29687 0.41584 0.0
O179 O 0.87028 0.33914 0.41958 0.0
C180 C 0.87421 0.40182 0.45215 0.0
O181 O 0.86604 0.37661 0.46343 0.0
C182 C 0.829 0.29199 0.42807 0.0
O183 O 0.82592 0.32054 0.42087 0.0
O184 O 0.8727 0.2967 0.3752 0.0
O185 O 0.88614 0.34289 0.36306 0.0
H186 H 0.92719 0.21243 0.3684 0.0
H187 H 0.83568 0.38233 0.42375 0.0
O188 O 0.88054 0.40282 0.42642 0.0
H189 H 0.81968 0.3922 0.32219 0.0
H190 H 0.88704 0.47806 0.35537 0.0
H191 H 0.92301 0.37556 0.3551 0.0
H192 H 0.86023 0.38113 0.33917 0.0
H193 H 0.87044 0.43718 0.38514 0.0
O194 O 0.84957 0.27971 0.42628 0.0
H195 H 0.91263 0.26505 0.37438 0.0
H196 H 0.87522 0.23925 0.44843 0.0
H197 H 0.94003 0.41568 0.32481 0.0
H198 H 0.79504 0.39406 0.40774 0.0
H199 H 0.92202 0.46738 0.32482 0.0
H200 H 0.78671 0.39893 0.35657 0.0
O201 O 0.91534 0.36249 0.4083 0.0
H202 H 0.86908 0.31664 0.51911 0.0
H203 H 0.92574 0.2791 0.4477 0.0
H204 H 0.93775 0.2802 0.49759 0.0
H205 H 0.9093 0.29896 0.53374 0.0
H206 H 0.85792 0.31553 0.46897 0.0
H207 H 0.88918 0.1863 0.44309 0.0
H208 H 0.91545 0.17262 0.40291 0.0
O209 O 0.91519 0.31159 0.40598 0.0
C210 C 0.87884 0.31625 0.35669 0.0
C211 C 0.9158 0.21812 0.38603 0.0
C212 C 0.89444 0.20345 0.42793 0.0
N213 N 0.89321 0.25528 0.41181 0.0
C214 C 0.90754 0.2479 0.38957 0.0
C215 C 0.88654 0.23346 0.4308 0.0
C216 C 0.90919 0.19579 0.40539 0.0
C217 C 0.83245 0.38486 0.40155 0.0
N218 N 0.85051 0.38117 0.38257 0.0
C219 C 0.80927 0.39131 0.39255 0.0
C220 C 0.80459 0.39397 0.36384 0.0
C221 C 0.82306 0.39016 0.34455 0.0
C222 C 0.84601 0.38374 0.35434 0.0
C223 C 0.89501 0.45561 0.35513 0.0
C224 C 0.91497 0.39793 0.35508 0.0
C225 C 0.88571 0.43238 0.37197 0.0
N226 N 0.8956 0.4039 0.37164 0.0
C227 C 0.92473 0.42059 0.33795 0.0
C228 C 0.91463 0.4496 0.33799 0.0
C229 C 0.92618 0.33705 0.40802 0.0
C230 C 0.88162 0.30834 0.50357 0.0
C231 C 0.91328 0.2875 0.46323 0.0
C232 C 0.92017 0.28796 0.49149 0.0
C233 C 0.9042 0.29846 0.51176 0.0
N234 N 0.89108 0.29719 0.45534 0.0
C235 C 0.87535 0.30755 0.47511 0.0
Co236 Co 0.86019 0.63741 0.89859 0.0
Co237 Co 0.86477 0.67481 0.96202 0.0
O238 O 0.85028 0.66997 0.92452 0.0
C239 C 0.865 0.68993 0.85875 0.0
O240 O 0.87966 0.70332 0.87643 0.0
C241 C 0.81192 0.68751 0.97038 0.0
O242 O 0.80701 0.67731 0.94509 0.0
O243 O 0.85708 0.6316 0.97132 0.0
O244 O 0.86568 0.60837 0.93052 0.0
H245 H 0.91757 0.64303 0.04229 0.0
H246 H 0.81416 0.66811 0.8868 0.0
O247 O 0.85494 0.66491 0.86542 0.0
H248 H 0.79384 0.56006 0.90217 0.0
H249 H 0.85564 0.57554 0.80939 0.0
H250 H 0.89944 0.59211 0.89815 0.0
H251 H 0.83559 0.57737 0.90484 0.0
H252 H 0.8426 0.61505 0.84293 0.0
O253 O 0.83336 0.68769 0.9794 0.0
H254 H 0.89911 0.63832 0.99533 0.0
H255 H 0.86084 0.72064 0.00835 0.0
H256 H 0.91293 0.55212 0.86535 0.0
H257 H 0.77217 0.65165 0.88346 0.0
H258 H 0.89099 0.54366 0.82057 0.0
H259 H 0.76177 0.59729 0.89131 0.0
O260 O 0.89386 0.65107 0.90111 0.0
H261 H 0.847 0.77889 0.92298 0.0
H262 H 0.90806 0.71399 0.96747 0.0
H263 H 0.91808 0.76688 0.95469 0.0
H264 H 0.8874 0.79978 0.93237 0.0
H265 H 0.83782 0.7258 0.93581 0.0
H266 H 0.87869 0.72606 0.05556 0.0
H267 H 0.90736 0.68716 0.07276 0.0
O268 O 0.897 0.66264 0.94691 0.0
C269 C 0.86126 0.60772 0.95685 0.0
C270 C 0.90515 0.66018 0.035 0.0
C271 C 0.8833 0.70676 0.04246 0.0
N272 N 0.87905 0.67927 0.99903 0.0
C273 C 0.89469 0.65767 0.00841 0.0
C274 C 0.8732 0.70352 0.01574 0.0
C275 C 0.8994 0.68493 0.0521 0.0
C276 C 0.80979 0.64438 0.89004 0.0
N277 N 0.8273 0.6238 0.8962 0.0
C278 C 0.78598 0.63521 0.88821 0.0
C279 C 0.78015 0.60472 0.89266 0.0
C280 C 0.79813 0.58382 0.8988 0.0
C281 C 0.82174 0.59382 0.90046 0.0
C282 C 0.86531 0.57895 0.82887 0.0
C283 C 0.88967 0.58839 0.87883 0.0
C284 C 0.85803 0.60133 0.84794 0.0
N285 N 0.87012 0.60571 0.87262 0.0
C286 C 0.89745 0.56579 0.86029 0.0
C287 C 0.88514 0.56107 0.83515 0.0
C288 C 0.90627 0.65745 0.9228 0.0
C289 C 0.86047 0.76484 0.93286 0.0
C290 C 0.89459 0.72813 0.95778 0.0
C291 C 0.90038 0.75809 0.9506 0.0
C292 C 0.88316 0.77653 0.93808 0.0
N293 N 0.87223 0.71687 0.95278 0.0
C294 C 0.85532 0.73477 0.94033 0.0
Co295 Co 0.15128 0.37083 0.3977 0.0
Co296 Co 0.1494 0.33004 0.45935 0.0
O297 O 0.16316 0.33831 0.4222 0.0
C298 C 0.14896 0.31884 0.35713 0.0
O299 O 0.136 0.30358 0.37536 0.0
C300 C 0.19217 0.32896 0.4962 0.0
O301 O 0.18138 0.35 0.51119 0.0
O302 O 0.15452 0.3735 0.47048 0.0
O303 O 0.14507 0.39817 0.43065 0.0
H304 H 0.09705 0.35188 0.5428 0.0
H305 H 0.19863 0.34356 0.38646 0.0
O306 O 0.15729 0.34494 0.3636 0.0
H307 H 0.21393 0.45302 0.40162 0.0
H308 H 0.15137 0.43609 0.31046 0.0
H309 H 0.11004 0.41307 0.39962 0.0
H310 H 0.17299 0.43262 0.40397 0.0
H311 H 0.1668 0.39644 0.3424 0.0
O312 O 0.18233 0.31905 0.47367 0.0
H313 H 0.11454 0.36159 0.49598 0.0
H314 H 0.15566 0.28061 0.50212 0.0
H315 H 0.09415 0.45314 0.36844 0.0
H316 H 0.23987 0.36306 0.38364 0.0
H317 H 0.11484 0.46485 0.32347 0.0
H318 H 0.24771 0.41816 0.39129 0.0
O319 O 0.11831 0.35449 0.40048 0.0
H320 H 0.17372 0.23037 0.41598 0.0
H321 H 0.10827 0.28667 0.46183 0.0
H322 H 0.10155 0.23386 0.44605 0.0
H323 H 0.13444 0.20529 0.42302 0.0
H324 H 0.1796 0.28338 0.43179 0.0
H325 H 0.13869 0.27008 0.54905 0.0
H326 H 0.10913 0.30584 0.56966 0.0
O327 O 0.11629 0.34016 0.44575 0.0
C328 C 0.14949 0.3978 0.45698 0.0
C329 C 0.1099 0.33611 0.53403 0.0
C330 C 0.13327 0.2902 0.53754 0.0
N331 N 0.13605 0.32167 0.4963 0.0
C332 C 0.11985 0.34148 0.50753 0.0
C333 C 0.14282 0.29629 0.51097 0.0
C334 C 0.11669 0.31028 0.54909 0.0
C335 C 0.20192 0.36759 0.38965 0.0
N336 N 0.18344 0.38693 0.39525 0.0
C337 C 0.22529 0.37849 0.3881 0.0
C338 C 0.22968 0.4094 0.39242 0.0
C339 C 0.21074 0.42897 0.39823 0.0
C340 C 0.1876 0.41726 0.39961 0.0
C341 C 0.14223 0.43126 0.33003 0.0
C342 C 0.11926 0.41821 0.38021 0.0
C343 C 0.15085 0.40878 0.34818 0.0
N344 N 0.13945 0.40262 0.37298 0.0
C345 C 0.11013 0.44085 0.36259 0.0
C346 C 0.12174 0.44739 0.33734 0.0
C347 C 0.1065 0.34601 0.42204 0.0
C348 C 0.15927 0.24255 0.42607 0.0
C349 C 0.12266 0.27447 0.45172 0.0
C350 C 0.11876 0.24452 0.4429 0.0
C351 C 0.13722 0.2285 0.42999 0.0
N352 N 0.14437 0.28806 0.4479 0.0
C353 C 0.16253 0.27252 0.43517 0.0
Co354 Co 0.86153 0.37094 0.10759 0.0
Co355 Co 0.86748 0.33311 0.04476 0.0
O356 O 0.85255 0.33775 0.08197 0.0
C357 C 0.86693 0.319 0.14795 0.0
O358 O 0.88187 0.30584 0.13046 0.0
C359 C 0.81513 0.32617 0.03297 0.0
O360 O 0.81054 0.347 0.05203 0.0
O361 O 0.85869 0.3758 0.03477 0.0
O362 O 0.86668 0.39975 0.07541 0.0
H363 H 0.91967 0.36568 0.96419 0.0
H364 H 0.8161 0.33832 0.11791 0.0
O365 O 0.85654 0.3437 0.14102 0.0
H366 H 0.79344 0.44558 0.10249 0.0
H367 H 0.85475 0.43389 0.19595 0.0
H368 H 0.89978 0.41765 0.10802 0.0
H369 H 0.83566 0.43002 0.10099 0.0
H370 H 0.84292 0.39341 0.16274 0.0
O371 O 0.83658 0.31821 0.02799 0.0
H372 H 0.90091 0.37052 0.01096 0.0
H373 H 0.86499 0.28622 0.99926 0.0
H374 H 0.91206 0.45861 0.14048 0.0
H375 H 0.77365 0.35299 0.12002 0.0
H376 H 0.88949 0.46692 0.18484 0.0
H377 H 0.76209 0.40695 0.11216 0.0
O378 O 0.89555 0.35846 0.10562 0.0
H379 H 0.85151 0.22892 0.08418 0.0
H380 H 0.91202 0.29587 0.04111 0.0
H381 H 0.92309 0.24364 0.05503 0.0
H382 H 0.8927 0.20974 0.07668 0.0
H383 H 0.84126 0.28144 0.07017 0.0
H384 H 0.88316 0.28063 0.95225 0.0
H385 H 0.91081 0.32047 0.93449 0.0
O386 O 0.89925 0.34715 0.05982 0.0
C387 C 0.86237 0.39998 0.04904 0.0
C388 C 0.9077 0.34812 0.97173 0.0
C389 C 0.88719 0.3004 0.96501 0.0
N390 N 0.88201 0.32859 0.00792 0.0
C391 C 0.89707 0.3507 0.99822 0.0
C392 C 0.87691 0.30374 0.99162 0.0
C393 C 0.90271 0.32277 0.95506 0.0
C394 C 0.81121 0.36189 0.11476 0.0
N395 N 0.82833 0.38326 0.10934 0.0
C396 C 0.78715 0.37004 0.11585 0.0
C397 C 0.78067 0.40031 0.11139 0.0
C398 C 0.79825 0.42199 0.10593 0.0
C399 C 0.82213 0.41301 0.10498 0.0
C400 C 0.86469 0.43055 0.17665 0.0
C401 C 0.88974 0.42128 0.12715 0.0
C402 C 0.8581 0.40762 0.15778 0.0
N403 N 0.87052 0.40333 0.13333 0.0
C404 C 0.89683 0.44445 0.14551 0.0
C405 C 0.88418 0.44907 0.1704 0.0
C406 C 0.90825 0.35264 0.08402 0.0
C407 C 0.86488 0.24344 0.07469 0.0
C408 C 0.8987 0.2813 0.05059 0.0
C409 C 0.90507 0.25172 0.05837 0.0
C410 C 0.88801 0.23271 0.07051 0.0
N411 N 0.87596 0.29164 0.0547 0.0
C412 C 0.85916 0.27316 0.06664 0.0
Co413 Co 0.15037 0.63429 0.6093 0.0
Co414 Co 0.14671 0.67192 0.54598 0.0
O415 O 0.16084 0.66678 0.58362 0.0
C416 C 0.14612 0.68679 0.64931 0.0
O417 O 0.13167 0.7005 0.63162 0.0
C418 C 0.19966 0.68496 0.53853 0.0
O419 O 0.20426 0.67535 0.56409 0.0
O420 O 0.15422 0.62866 0.53664 0.0
O421 O 0.14469 0.60549 0.57718 0.0
H422 H 0.09448 0.64087 0.46492 0.0
H423 H 0.19675 0.66399 0.6215 0.0
O424 O 0.15582 0.66154 0.64265 0.0
H425 H 0.21569 0.55559 0.60593 0.0
H426 H 0.15358 0.57186 0.69822 0.0
H427 H 0.11054 0.58979 0.60918 0.0
H428 H 0.17419 0.57376 0.60306 0.0
H429 H 0.16732 0.61132 0.66501 0.0
O430 O 0.17836 0.68462 0.52905 0.0
H431 H 0.11245 0.63585 0.5121 0.0
H432 H 0.15136 0.71786 0.49985 0.0
H433 H 0.09635 0.54986 0.64165 0.0
H434 H 0.2385 0.64668 0.62502 0.0
H435 H 0.11791 0.54071 0.68656 0.0
H436 H 0.2482 0.59213 0.61707 0.0
O437 O 0.11691 0.64868 0.60653 0.0
H438 H 0.1645 0.77569 0.58588 0.0
H439 H 0.10373 0.71146 0.53992 0.0
H440 H 0.09381 0.76435 0.55273 0.0
H441 H 0.12434 0.79693 0.57579 0.0
H442 H 0.17357 0.72261 0.57301 0.0
H443 H 0.13401 0.72358 0.45242 0.0
H444 H 0.10525 0.68499 0.43472 0.0
O445 O 0.11426 0.65997 0.56063 0.0
C446 C 0.14952 0.6048 0.55094 0.0
C447 C 0.10694 0.65788 0.47242 0.0
C448 C 0.12914 0.70428 0.46539 0.0
N449 N 0.1328 0.67663 0.5088 0.0
C450 C 0.11712 0.6552 0.49915 0.0
C451 C 0.13896 0.70087 0.49224 0.0
C452 C 0.11301 0.68263 0.45548 0.0
C453 C 0.20081 0.64019 0.6182 0.0
N454 N 0.18306 0.62 0.61189 0.0
C455 C 0.22449 0.63053 0.62014 0.0
C456 C 0.22993 0.59994 0.61564 0.0
C457 C 0.21171 0.57943 0.60934 0.0
C458 C 0.18824 0.58991 0.60757 0.0
C459 C 0.14408 0.57557 0.67868 0.0
C460 C 0.12014 0.58577 0.62857 0.0
C461 C 0.15174 0.59792 0.6598 0.0
N462 N 0.13987 0.60268 0.63504 0.0
C463 C 0.11197 0.5632 0.64692 0.0
C464 C 0.12406 0.5581 0.67213 0.0
C465 C 0.10474 0.65514 0.58468 0.0
C466 C 0.15109 0.7618 0.57567 0.0
C467 C 0.11715 0.72545 0.54992 0.0
C468 C 0.11141 0.75542 0.55712 0.0
C469 C 0.12855 0.77368 0.57005 0.0
N470 N 0.13938 0.71401 0.55527 0.0
C471 C 0.15619 0.73172 0.56815 0.0
Co472 Co 0.6324 0.87125 0.11336 0.0
Co473 Co 0.62855 0.79666 0.09272 0.0
O474 O 0.64188 0.83783 0.08844 0.0
C475 C 0.6253 0.90213 0.05809 0.0
O476 O 0.61118 0.87978 0.05027 0.0
C477 C 0.68113 0.78723 0.08535 0.0
O478 O 0.68499 0.81136 0.101 0.0
O479 O 0.63872 0.79551 0.13312 0.0
O480 O 0.62879 0.84293 0.14598 0.0
H481 H 0.58102 0.71492 0.14107 0.0
H482 H 0.67704 0.87814 0.08057 0.0
O483 O 0.63583 0.90114 0.08181 0.0
H484 H 0.70144 0.88459 0.18018 0.0
H485 H 0.63692 0.97772 0.15261 0.0
H486 H 0.59448 0.87937 0.15623 0.0
H487 H 0.65915 0.87761 0.1675 0.0
H488 H 0.6493 0.93508 0.12213 0.0
O489 O 0.65988 0.77813 0.08083 0.0
H490 H 0.59755 0.76659 0.13494 0.0
H491 H 0.6323 0.73896 0.05967 0.0
H492 H 0.58166 0.9213 0.1873 0.0
H493 H 0.71951 0.88565 0.09232 0.0
H494 H 0.60294 0.97093 0.18561 0.0
H495 H 0.73195 0.88877 0.14244 0.0
O496 O 0.59844 0.8646 0.10326 0.0
H497 H 0.63987 0.81787 0.9896 0.0
H498 H 0.58345 0.78195 0.06203 0.0
H499 H 0.57039 0.78499 0.01254 0.0
H500 H 0.59872 0.80298 0.9759 0.0
H501 H 0.65212 0.81477 0.03941 0.0
H502 H 0.61635 0.68693 0.06514 0.0
H503 H 0.59041 0.67466 0.10601 0.0
O504 O 0.59641 0.81358 0.1038 0.0
C505 C 0.63434 0.81552 0.15194 0.0
C506 C 0.59225 0.72 0.12314 0.0
C507 C 0.6121 0.70428 0.08054 0.0
N508 N 0.61575 0.75584 0.0969 0.0
C509 C 0.60161 0.74923 0.11952 0.0
C510 C 0.62114 0.73377 0.0776 0.0
C511 C 0.59754 0.69742 0.10347 0.0
C512 C 0.68229 0.87984 0.10242 0.0
N513 N 0.66563 0.87743 0.1233 0.0
C514 C 0.70637 0.88394 0.10895 0.0
C515 C 0.71335 0.88562 0.13708 0.0
C516 C 0.69624 0.88324 0.15826 0.0
C517 C 0.67233 0.87914 0.15094 0.0
C518 C 0.62755 0.95618 0.15361 0.0
C519 C 0.60394 0.90081 0.15552 0.0
C520 C 0.63445 0.93196 0.13636 0.0
N521 N 0.62278 0.90464 0.13761 0.0
C522 C 0.59655 0.92451 0.1731 0.0
C523 C 0.60849 0.95235 0.17211 0.0
C524 C 0.58653 0.83985 0.10324 0.0
C525 C 0.62739 0.80991 0.00536 0.0
C526 C 0.59587 0.78989 0.04624 0.0
C527 C 0.58838 0.7915 0.01823 0.0
C528 C 0.60429 0.80159 0.99769 0.0
N529 N 0.61858 0.79802 0.05359 0.0
C530 C 0.63425 0.808 0.03358 0.0
Co531 Co 0.37969 0.13437 0.61385 0.0
Co532 Co 0.38501 0.2079 0.59088 0.0
O533 O 0.37091 0.16715 0.58798 0.0
C534 C 0.38608 0.10232 0.55925 0.0
O535 O 0.4 0.12468 0.55097 0.0
C536 C 0.33275 0.22055 0.58631 0.0
O537 O 0.32907 0.20017 0.60608 0.0
O538 O 0.37501 0.21096 0.63129 0.0
O539 O 0.38382 0.16364 0.64562 0.0
H540 H 0.43414 0.29018 0.6362 0.0
H541 H 0.33497 0.12906 0.58103 0.0
O542 O 0.37578 0.10361 0.5831 0.0
H543 H 0.31019 0.12602 0.68065 0.0
H544 H 0.37276 0.02947 0.65605 0.0
H545 H 0.41726 0.12639 0.65721 0.0
H546 H 0.35271 0.13025 0.66799 0.0
H547 H 0.36143 0.07149 0.62428 0.0
O548 O 0.35396 0.22652 0.57837 0.0
H549 H 0.41666 0.23879 0.63195 0.0
H550 H 0.38216 0.26427 0.55588 0.0
H551 H 0.42903 0.0851 0.68955 0.0
H552 H 0.29223 0.12445 0.59276 0.0
H553 H 0.40671 0.0362 0.68909 0.0
H554 H 0.27961 0.12302 0.64288 0.0
O555 O 0.41385 0.13954 0.60381 0.0
H556 H 0.37302 0.18325 0.48852 0.0
H557 H 0.43035 0.21983 0.55968 0.0
H558 H 0.44324 0.21444 0.5103 0.0
H559 H 0.41446 0.1961 0.4743 0.0
H560 H 0.36094 0.18868 0.53821 0.0
H561 H 0.39906 0.31602 0.55946 0.0
H562 H 0.42535 0.32921 0.59978 0.0
O563 O 0.41683 0.19049 0.60253 0.0
C564 C 0.37896 0.19146 0.65069 0.0
C565 C 0.42275 0.28469 0.6185 0.0
C566 C 0.40304 0.2992 0.57545 0.0
N567 N 0.39852 0.24849 0.59363 0.0
C568 C 0.41285 0.25561 0.61595 0.0
C569 C 0.39346 0.26989 0.57359 0.0
C570 C 0.4178 0.30658 0.59807 0.0
C571 C 0.32961 0.12812 0.60288 0.0
N572 N 0.34631 0.12981 0.62378 0.0
C573 C 0.30539 0.12564 0.6094 0.0
C574 C 0.29832 0.12489 0.63753 0.0
C575 C 0.31547 0.1266 0.65873 0.0
C576 C 0.33952 0.12908 0.65143 0.0
C577 C 0.38258 0.0507 0.6565 0.0
C578 C 0.40735 0.10528 0.65703 0.0
C579 C 0.37628 0.07456 0.63853 0.0
N580 N 0.38852 0.1015 0.63909 0.0
C581 C 0.41414 0.08193 0.67533 0.0
C582 C 0.40163 0.05449 0.67504 0.0
C583 C 0.42621 0.16393 0.60307 0.0
C584 C 0.38571 0.19134 0.504 0.0
C585 C 0.41774 0.21173 0.54418 0.0
C586 C 0.42513 0.2088 0.51622 0.0
C587 C 0.40897 0.19852 0.49604 0.0
N588 N 0.39487 0.20469 0.55181 0.0
C589 C 0.37895 0.19456 0.53215 0.0
Co590 Co 0.6335 0.13226 0.89643 0.0
Co591 Co 0.63118 0.20706 0.91714 0.0
O592 O 0.64386 0.16545 0.92125 0.0
C593 C 0.62641 0.10148 0.95178 0.0
O594 O 0.61281 0.12422 0.95986 0.0
C595 C 0.68393 0.21441 0.92836 0.0
O596 O 0.68786 0.18709 0.91825 0.0
O597 O 0.64105 0.20784 0.87662 0.0
O598 O 0.63008 0.16075 0.86389 0.0
H599 H 0.58443 0.28959 0.86894 0.0
H600 H 0.67833 0.12277 0.92843 0.0
O601 O 0.63668 0.10222 0.9279 0.0
H602 H 0.70138 0.11685 0.82836 0.0
H603 H 0.63547 0.0257 0.85705 0.0
H604 H 0.59501 0.12538 0.85407 0.0
H605 H 0.65951 0.12574 0.84181 0.0
H606 H 0.64903 0.0679 0.88737 0.0
O607 O 0.66289 0.22544 0.92849 0.0
H608 H 0.60032 0.23762 0.8751 0.0
H609 H 0.63586 0.26481 0.95002 0.0
H610 H 0.58102 0.08389 0.82319 0.0
H611 H 0.72035 0.11319 0.91589 0.0
H612 H 0.6013 0.0336 0.82456 0.0
H613 H 0.73214 0.11037 0.86553 0.0
O614 O 0.59983 0.13982 0.90705 0.0
H615 H 0.64278 0.1853 0.02016 0.0
H616 H 0.58665 0.2232 0.9483 0.0
H617 H 0.5739 0.2206 0.99791 0.0
H618 H 0.60208 0.20163 0.03426 0.0
H619 H 0.65471 0.18797 0.97026 0.0
H620 H 0.62056 0.31713 0.94451 0.0
H621 H 0.59455 0.32977 0.9038 0.0
O622 O 0.59866 0.19085 0.90652 0.0
C623 C 0.63616 0.18796 0.85785 0.0
C624 C 0.5957 0.28435 0.8868 0.0
C625 C 0.616 0.29982 0.9292 0.0
N626 N 0.61888 0.24813 0.91297 0.0
C627 C 0.6047 0.25494 0.89044 0.0
C628 C 0.62467 0.27016 0.93216 0.0
C629 C 0.6014 0.30689 0.90636 0.0
C630 C 0.68327 0.12125 0.90647 0.0
N631 N 0.66648 0.12499 0.88591 0.0
C632 C 0.70712 0.11596 0.8995 0.0
C633 C 0.71372 0.11444 0.87124 0.0
C634 C 0.69648 0.11813 0.85038 0.0
C635 C 0.67281 0.12337 0.85814 0.0
C636 C 0.62653 0.04753 0.8562 0.0
C637 C 0.60404 0.10364 0.85465 0.0
C638 C 0.6341 0.07151 0.87335 0.0
N639 N 0.62297 0.0992 0.87229 0.0
C640 C 0.59599 0.08019 0.83717 0.0
C641 C 0.60736 0.05198 0.83797 0.0
C642 C 0.58834 0.16485 0.90719 0.0
C643 C 0.63037 0.19374 0.00453 0.0
C644 C 0.59903 0.21487 0.96396 0.0
C645 C 0.5917 0.2135 0.99204 0.0
C646 C 0.60752 0.20286 0.01243 0.0
N647 N 0.62151 0.20602 0.95639 0.0
C648 C 0.63708 0.19544 0.97625 0.0
Co649 Co 0.37811 0.87255 0.39753 0.0
Co650 Co 0.38281 0.79797 0.41798 0.0
O651 O 0.36918 0.83891 0.42248 0.0
C652 C 0.38551 0.90304 0.45288 0.0
O653 O 0.39971 0.88067 0.46037 0.0
C654 C 0.33037 0.78763 0.42553 0.0
O655 O 0.32626 0.81164 0.40981 0.0
O656 O 0.37235 0.79674 0.37768 0.0
O657 O 0.38159 0.8444 0.36476 0.0
H658 H 0.43072 0.71707 0.369 0.0
H659 H 0.33381 0.87864 0.43107 0.0
O660 O 0.37483 0.90225 0.42925 0.0
H661 H 0.30818 0.88502 0.3319 0.0
H662 H 0.37224 0.97911 0.35878 0.0
H663 H 0.41545 0.88142 0.35406 0.0
H664 H 0.35067 0.87868 0.34386 0.0
H665 H 0.36058 0.93616 0.38929 0.0
O666 O 0.35171 0.77895 0.4301 0.0
H667 H 0.41378 0.76846 0.37539 0.0
H668 H 0.37976 0.74014 0.45091 0.0
H669 H 0.42754 0.92366 0.32295 0.0
H670 H 0.29114 0.88549 0.42005 0.0
H671 H 0.40587 0.97296 0.3252 0.0
H672 H 0.27808 0.88858 0.37015 0.0
O673 O 0.41225 0.8664 0.40701 0.0
H674 H 0.37202 0.81875 0.52124 0.0
H675 H 0.42825 0.7839 0.44819 0.0
H676 H 0.44163 0.78706 0.49756 0.0
H677 H 0.4134 0.80451 0.5345 0.0
H678 H 0.35945 0.81555 0.47155 0.0
H679 H 0.39613 0.68837 0.44518 0.0
H680 H 0.42191 0.67659 0.40405 0.0
O681 O 0.41472 0.8154 0.40661 0.0
C682 C 0.37633 0.81688 0.35886 0.0
C683 C 0.41956 0.72194 0.38704 0.0
C684 C 0.40012 0.70582 0.42978 0.0
N685 N 0.39592 0.75735 0.41358 0.0
C686 C 0.40997 0.75101 0.39081 0.0
C687 C 0.39085 0.73516 0.43287 0.0
C688 C 0.41459 0.69923 0.40671 0.0
C689 C 0.32829 0.88033 0.40932 0.0
N690 N 0.34472 0.87826 0.38816 0.0
C691 C 0.30409 0.88405 0.4032 0.0
C692 C 0.29677 0.88572 0.3752 0.0
C693 C 0.31364 0.88369 0.35373 0.0
C694 C 0.33768 0.87995 0.36064 0.0
C695 C 0.38177 0.95772 0.35754 0.0
C696 C 0.40581 0.90271 0.35501 0.0
C697 C 0.37528 0.93332 0.3748 0.0
N698 N 0.38716 0.90618 0.37324 0.0
C699 C 0.41279 0.92659 0.33741 0.0
C700 C 0.40064 0.95425 0.3387 0.0
C701 C 0.42437 0.84183 0.40688 0.0
C702 C 0.38446 0.81103 0.50535 0.0
C703 C 0.41587 0.79161 0.46411 0.0
C704 C 0.42354 0.79329 0.49205 0.0
C705 C 0.40769 0.80307 0.51277 0.0
N706 N 0.39304 0.79939 0.457 0.0
C707 C 0.37742 0.80906 0.47719 0.0
Co708 Co 0.36234 0.13439 0.89794 0.0
Co709 Co 0.3658 0.17416 0.96003 0.0
O710 O 0.35155 0.16704 0.92295 0.0
C711 C 0.36554 0.18692 0.85811 0.0
O712 O 0.37907 0.20133 0.87636 0.0
C713 C 0.32326 0.17681 0.99722 0.0
O714 O 0.33349 0.15514 0.01199 0.0
O715 O 0.35954 0.13082 0.9707 0.0
O716 O 0.36814 0.10636 0.93048 0.0
H717 H 0.41804 0.14879 0.04273 0.0
H718 H 0.31562 0.16382 0.88766 0.0
O719 O 0.35669 0.16102 0.86428 0.0
H720 H 0.29762 0.05485 0.90165 0.0
H721 H 0.35976 0.07047 0.80989 0.0
H722 H 0.40245 0.09036 0.89881 0.0
H723 H 0.33909 0.07348 0.90373 0.0
H724 H 0.34567 0.11029 0.84252 0.0
O725 O 0.3333 0.18649 0.97475 0.0
H726 H 0.39999 0.14053 0.99596 0.0
H727 H 0.36122 0.22325 1.00342 0.0
H728 H 0.41699 0.05009 0.86693 0.0
H729 H 0.27388 0.14611 0.88511 0.0
H730 H 0.3956 0.03995 0.82208 0.0
H731 H 0.26468 0.09127 0.89218 0.0
O732 O 0.39575 0.14925 0.90051 0.0
H733 H 0.34409 0.27548 0.91804 0.0
H734 H 0.40817 0.21552 0.96262 0.0
H735 H 0.41631 0.26819 0.94739 0.0
H736 H 0.38411 0.2986 0.925 0.0
H737 H 0.33679 0.22258 0.93329 0.0
H738 H 0.37877 0.23235 0.05032 0.0
H739 H 0.40743 0.19497 0.07024 0.0
O740 O 0.39851 0.16265 0.94599 0.0
C741 C 0.36393 0.10653 0.95686 0.0
C742 C 0.40558 0.16525 0.03427 0.0
C743 C 0.38355 0.21215 0.03853 0.0
N744 N 0.37962 0.1814 0.99695 0.0
C745 C 0.39532 0.16071 0.00779 0.0
C746 C 0.37367 0.20688 0.01197 0.0
C747 C 0.39962 0.19117 0.04969 0.0
C748 C 0.31174 0.1399 0.89059 0.0
N749 N 0.32976 0.1197 0.89572 0.0
C750 C 0.28808 0.13001 0.8892 0.0
C751 C 0.28293 0.09924 0.89319 0.0
C752 C 0.3014 0.0788 0.89851 0.0
C753 C 0.32485 0.0895 0.89975 0.0
C754 C 0.36919 0.07461 0.8294 0.0
C755 C 0.39293 0.08591 0.87945 0.0
C756 C 0.36133 0.09718 0.84795 0.0
N757 N 0.37311 0.10247 0.87268 0.0
C758 C 0.4013 0.06315 0.86143 0.0
C759 C 0.3893 0.0575 0.83626 0.0
C760 C 0.40796 0.15672 0.92209 0.0
C761 C 0.35824 0.2625 0.92786 0.0
C762 C 0.39408 0.22853 0.95279 0.0
C763 C 0.39878 0.25839 0.94428 0.0
C764 C 0.38071 0.27544 0.93173 0.0
N765 N 0.37196 0.21603 0.94902 0.0
C766 C 0.35418 0.23257 0.93664 0.0
Co767 Co 0.65167 0.86891 0.40016 0.0
Co768 Co 0.64479 0.83171 0.46319 0.0
O769 O 0.66001 0.8358 0.42612 0.0
C770 C 0.64575 0.8166 0.36031 0.0
O771 O 0.63047 0.80406 0.37779 0.0
C772 C 0.69692 0.82486 0.4757 0.0
O773 O 0.70157 0.8461 0.45705 0.0
O774 O 0.65388 0.87437 0.47298 0.0
O775 O 0.64677 0.89819 0.43205 0.0
H776 H 0.59236 0.86562 0.54305 0.0
H777 H 0.69667 0.83509 0.39066 0.0
O778 O 0.65646 0.84115 0.36705 0.0
H779 H 0.72086 0.94198 0.40521 0.0
H780 H 0.65988 0.93058 0.31124 0.0
H781 H 0.61416 0.91653 0.399 0.0
H782 H 0.67839 0.92744 0.40639 0.0
H783 H 0.67092 0.89025 0.34494 0.0
O784 O 0.67547 0.8166 0.48026 0.0
H785 H 0.61144 0.86981 0.4964 0.0
H786 H 0.64664 0.78523 0.50906 0.0
H787 H 0.60269 0.95737 0.36603 0.0
H788 H 0.73935 0.84871 0.38891 0.0
H789 H 0.6256 0.96458 0.32175 0.0
H790 H 0.75168 0.90248 0.39633 0.0
O791 O 0.61745 0.85725 0.40195 0.0
H792 H 0.66014 0.72694 0.42474 0.0
H793 H 0.59992 0.79508 0.4667 0.0
H794 H 0.5885 0.74286 0.4531 0.0
H795 H 0.61874 0.70836 0.43201 0.0
H796 H 0.67074 0.77947 0.43843 0.0
H797 H 0.62814 0.78028 0.55596 0.0
H798 H 0.60069 0.8206 0.57317 0.0
O799 O 0.61326 0.84601 0.44772 0.0
C800 C 0.65075 0.89851 0.45849 0.0
C801 C 0.60424 0.84786 0.53575 0.0
C802 C 0.62434 0.79998 0.54301 0.0
N803 N 0.63 0.8277 0.49993 0.0
C804 C 0.61505 0.85007 0.50933 0.0
C805 C 0.63481 0.80295 0.51646 0.0
C806 C 0.60893 0.82261 0.55265 0.0
C807 C 0.70189 0.85858 0.39362 0.0
N808 N 0.68506 0.88042 0.3986 0.0
C809 C 0.72609 0.86614 0.39273 0.0
C810 C 0.73299 0.8963 0.39695 0.0
C811 C 0.71571 0.91847 0.40196 0.0
C812 C 0.69169 0.91007 0.40272 0.0
C813 C 0.6498 0.92773 0.3305 0.0
C814 C 0.62436 0.91969 0.3799 0.0
C815 C 0.65594 0.90489 0.34965 0.0
N816 N 0.64333 0.90121 0.37406 0.0
C817 C 0.61772 0.94278 0.36126 0.0
C818 C 0.63057 0.94679 0.33641 0.0
C819 C 0.60452 0.85165 0.42342 0.0
C820 C 0.64682 0.74173 0.43398 0.0
C821 C 0.61317 0.78025 0.45746 0.0
C822 C 0.6066 0.75068 0.44985 0.0
C823 C 0.62358 0.73133 0.43803 0.0
N824 N 0.63602 0.79026 0.45347 0.0
C825 C 0.65275 0.77145 0.44185 0.0
Co826 Co 0.36049 0.87237 0.11055 0.0
Co827 Co 0.36447 0.83243 0.04855 0.0
O828 O 0.34994 0.83964 0.08546 0.0
C829 C 0.36389 0.82013 0.15068 0.0
O830 O 0.37787 0.80596 0.13276 0.0
C831 C 0.32225 0.82974 0.01083 0.0
O832 O 0.3327 0.85128 0.9961 0.0
O833 O 0.35841 0.87578 0.03771 0.0
O834 O 0.36644 0.90036 0.07804 0.0
H835 H 0.41746 0.85748 0.96643 0.0
H836 H 0.31379 0.84268 0.12046 0.0
O837 O 0.35469 0.84573 0.1442 0.0
H838 H 0.29558 0.95151 0.10613 0.0
H839 H 0.35714 0.93632 0.19854 0.0
H840 H 0.40049 0.91663 0.11003 0.0
H841 H 0.33711 0.93312 0.10444 0.0
H842 H 0.34339 0.89639 0.16579 0.0
O843 O 0.33205 0.82014 0.03348 0.0
H844 H 0.39903 0.8659 0.01295 0.0
H845 H 0.36016 0.78323 0.00521 0.0
H846 H 0.41469 0.95701 0.14202 0.0
H847 H 0.27198 0.86014 0.1226 0.0
H848 H 0.39298 0.96705 0.18667 0.0
H849 H 0.26267 0.91492 0.11536 0.0
O850 O 0.39396 0.85774 0.10829 0.0
H851 H 0.34221 0.73125 0.09048 0.0
H852 H 0.40677 0.79099 0.04656 0.0
H853 H 0.41468 0.73834 0.062 0.0
H854 H 0.38224 0.70804 0.08405 0.0
H855 H 0.33513 0.78413 0.07504 0.0
H856 H 0.3781 0.77396 0.95856 0.0
H857 H 0.407 0.81123 0.9389 0.0
O858 O 0.39707 0.84391 0.06296 0.0
C859 C 0.36263 0.9001 0.05158 0.0
C860 C 0.4049 0.84106 0.97478 0.0
C861 C 0.38281 0.79419 0.97036 0.0
N862 N 0.37858 0.82507 0.01181 0.0
C863 C 0.39442 0.8457 1.00111 0.0
C864 C 0.37271 0.79956 0.99678 0.0
C865 C 0.39902 0.81511 0.95934 0.0
C866 C 0.30986 0.86657 0.11745 0.0
N867 N 0.32785 0.88686 0.11245 0.0
C868 C 0.28617 0.87631 0.11862 0.0
C869 C 0.28096 0.90705 0.11453 0.0
C870 C 0.2994 0.92759 0.10933 0.0
C871 C 0.32288 0.91702 0.10832 0.0
C872 C 0.36672 0.93223 0.17911 0.0
C873 C 0.39081 0.92104 0.12929 0.0
C874 C 0.35904 0.90961 0.1605 0.0
N875 N 0.37099 0.90437 0.13588 0.0
C876 C 0.399 0.94386 0.14738 0.0
C877 C 0.38682 0.94946 0.17244 0.0
C878 C 0.40634 0.85011 0.0869 0.0
C879 C 0.35647 0.74418 0.08081 0.0
C880 C 0.39257 0.77802 0.05624 0.0
C881 C 0.39715 0.74818 0.06487 0.0
C882 C 0.37894 0.73119 0.07723 0.0
N883 N 0.37045 0.79058 0.05972 0.0
C884 C 0.35254 0.77409 0.07192 0.0
Co885 Co 0.65347 0.13597 0.60934 0.0
Co886 Co 0.64632 0.17275 0.54613 0.0
O887 O 0.66168 0.16895 0.58315 0.0
C888 C 0.64737 0.1882 0.64927 0.0
O889 O 0.63179 0.20048 0.632 0.0
C890 C 0.69841 0.1798 0.53328 0.0
O891 O 0.70321 0.15875 0.55206 0.0
O892 O 0.6554 0.13006 0.53651 0.0
O893 O 0.64846 0.1065 0.57761 0.0
H894 H 0.59364 0.13815 0.46672 0.0
H895 H 0.69845 0.16999 0.61845 0.0
O896 O 0.65834 0.16392 0.64232 0.0
H897 H 0.72272 0.06308 0.60434 0.0
H898 H 0.66205 0.07488 0.69855 0.0
H899 H 0.61599 0.08827 0.61094 0.0
H900 H 0.68022 0.07749 0.60327 0.0
H901 H 0.67294 0.115 0.66456 0.0
O902 O 0.67691 0.18788 0.5288 0.0
H903 H 0.61291 0.13432 0.51328 0.0
H904 H 0.64791 0.21897 0.50001 0.0
H905 H 0.60466 0.04762 0.6442 0.0
H906 H 0.74115 0.15651 0.62008 0.0
H907 H 0.62774 0.04075 0.6884 0.0
H908 H 0.75352 0.10273 0.61288 0.0
O909 O 0.61922 0.14749 0.60763 0.0
H910 H 0.66166 0.27782 0.58392 0.0
H911 H 0.60138 0.20919 0.54267 0.0
H912 H 0.58993 0.26145 0.55605 0.0
H913 H 0.62019 0.2962 0.57678 0.0
H914 H 0.67229 0.22524 0.57047 0.0
H915 H 0.62922 0.22356 0.45318 0.0
H916 H 0.60177 0.18302 0.43631 0.0
O917 O 0.61488 0.15843 0.56182 0.0
C918 C 0.65228 0.10601 0.55114 0.0
C919 C 0.60551 0.156 0.47386 0.0
C920 C 0.6255 0.20392 0.46625 0.0
N921 N 0.63138 0.17648 0.50944 0.0
C922 C 0.61643 0.15399 0.50024 0.0
C923 C 0.63608 0.20115 0.49276 0.0
C924 C 0.6101 0.18117 0.45681 0.0
C925 C 0.70369 0.14649 0.61558 0.0
N926 N 0.68687 0.12457 0.61079 0.0
C927 C 0.7279 0.13902 0.61641 0.0
C928 C 0.73482 0.10885 0.61232 0.0
C929 C 0.71755 0.0866 0.60749 0.0
C930 C 0.69352 0.09492 0.60679 0.0
C931 C 0.6519 0.07758 0.67932 0.0
C932 C 0.62626 0.08525 0.63 0.0
C933 C 0.65795 0.1003 0.66001 0.0
N934 N 0.64525 0.1038 0.63564 0.0
C935 C 0.6197 0.06226 0.64881 0.0
C936 C 0.63265 0.05844 0.67361 0.0
C937 C 0.60622 0.1529 0.58618 0.0
C938 C 0.64833 0.26292 0.57484 0.0
C939 C 0.61464 0.22412 0.55175 0.0
C940 C 0.60806 0.25372 0.55923 0.0
C941 C 0.62505 0.27321 0.57085 0.0
N942 N 0.63753 0.21423 0.55567 0.0
C943 C 0.65427 0.23318 0.5671 0.0
C944 C 0.04802 0.31822 0.10014 0.0
C945 C 0.062 0.34475 0.09876 0.0
C946 C 0.023 0.31958 0.09848 0.0
C947 C 0.01157 0.34814 0.09517 0.0
C948 C 0.02553 0.37501 0.09394 0.0
C949 C 0.05052 0.37302 0.09583 0.0
C950 C 0.00879 0.29039 0.10006 0.0
C951 C 0.01408 0.40589 0.09024 0.0
C952 C 0.9493 0.34861 0.06311 0.0
C953 C 0.93471 0.35215 0.08694 0.0
C954 C 0.97427 0.3475 0.06549 0.0
C955 C 0.98506 0.34981 0.09237 0.0
C956 C 0.97049 0.35348 0.11652 0.0
C957 C 0.94554 0.35471 0.11352 0.0
C958 C 0.98912 0.34375 0.03918 0.0
C959 C 0.98127 0.35585 0.14557 0.0
H960 H 0.0566 0.29624 0.10249 0.0
H961 H 0.06107 0.39369 0.09471 0.0
H962 H 0.99569 0.29172 0.11752 0.0
H963 H 0.99855 0.28714 0.08029 0.0
H964 H 0.02031 0.27012 0.1034 0.0
H965 H 0.02739 0.42465 0.09011 0.0
H966 H 1.00399 0.4065 0.07015 0.0
H967 H 1.00113 0.41011 0.10747 0.0
H968 H 0.94123 0.34668 0.04244 0.0
H969 H 0.93451 0.35738 0.13211 0.0
H970 H 0.99982 0.32254 0.04056 0.0
H971 H 1.00185 0.363 0.03721 0.0
H972 H 0.97803 0.34275 0.01981 0.0
H973 H 0.99175 0.33503 0.15028 0.0
H974 H 0.96753 0.35878 0.16221 0.0
H975 H 0.99376 0.37544 0.1465 0.0
C976 C 0.96438 0.69045 0.59912 0.0
C977 C 0.9509 0.66349 0.59775 0.0
C978 C 0.98943 0.68982 0.59736 0.0
C979 C 1.00136 0.66161 0.59398 0.0
C980 C 0.98789 0.63435 0.59257 0.0
C981 C 0.9629 0.63561 0.59456 0.0
C982 C 1.00313 0.71938 0.59913 0.0
C983 C 0.99987 0.60381 0.58879 0.0
C984 C 0.06407 0.66104 0.56306 0.0
C985 C 0.07829 0.65694 0.58713 0.0
C986 C 0.03908 0.66276 0.56501 0.0
C987 C 0.02793 0.66052 0.59169 0.0
C988 C 0.04214 0.65661 0.61609 0.0
C989 C 0.06709 0.65477 0.61352 0.0
C990 C 0.0246 0.66671 0.53845 0.0
C991 C 0.03097 0.65431 0.64495 0.0
H992 H 0.95537 0.71213 0.60163 0.0
H993 H 0.95276 0.61461 0.59343 0.0
H994 H 0.01596 0.71846 0.61691 0.0
H995 H 0.01366 0.7228 0.57961 0.0
H996 H 0.99124 0.73936 0.60213 0.0
H997 H 0.98687 0.58472 0.58807 0.0
H998 H 0.01036 0.60372 0.56897 0.0
H999 H 0.01254 0.59966 0.60632 0.0
H1000 H 0.07243 0.66274 0.54254 0.0
H1001 H 0.07783 0.65173 0.6323 0.0
H1002 H 0.01353 0.68759 0.53995 0.0
H1003 H 0.01224 0.64716 0.53585 0.0
H1004 H 0.03598 0.66839 0.51936 0.0
H1005 H 0.02 0.67482 0.64922 0.0
H1006 H 0.04451 0.65202 0.6619 0.0
H1007 H 0.01888 0.63431 0.64581 0.0
C1008 C 0.94369 0.6558 0.89357 0.0
C1009 C 0.93272 0.65881 0.92003 0.0
C1010 C 0.96863 0.65733 0.89069 0.0
C1011 C 0.98305 0.66179 0.91483 0.0
C1012 C 0.97213 0.6648 0.94158 0.0
C1013 C 0.94716 0.66336 0.94385 0.0
C1014 C 0.97955 0.65417 0.86177 0.0
C1015 C 0.98685 0.66942 0.96787 0.0
C1016 C 0.04821 0.63739 0.91234 0.0
C1017 C 0.06005 0.66533 0.90863 0.0
C1018 C 0.02322 0.63592 0.91422 0.0
C1019 C 0.00959 0.66299 0.9122 0.0
C1020 C 0.02136 0.69122 0.90811 0.0
C1021 C 0.0464 0.69206 0.90644 0.0
C1022 C 0.01139 0.60538 0.9187 0.0
C1023 C 0.0075 0.72059 0.90569 0.0
H1024 H 0.93278 0.65238 0.87499 0.0
H1025 H 0.93898 0.66568 0.96441 0.0
H1026 H 0.99037 0.67465 0.8568 0.0
H1027 H 0.99175 0.63428 0.8613 0.0
H1028 H 0.96587 0.6512 0.84506 0.0
H1029 H 0.97564 0.67144 0.98708 0.0
H1030 H 0.99931 0.65002 0.97066 0.0
H1031 H 0.99782 0.69034 0.96584 0.0
H1032 H 0.05848 0.61656 0.91407 0.0
H1033 H 0.05528 0.71378 0.90349 0.0
H1034 H 0.99851 0.60079 0.90149 0.0
H1035 H 1.00117 0.60561 0.93871 0.0
H1036 H 0.02448 0.5864 0.9195 0.0
H1037 H 0.99447 0.71897 0.88818 0.0
H1038 H 0.01927 0.74055 0.90192 0.0
H1039 H 0.9972 0.7246 0.9253 0.0
C1040 C 0.06874 0.34648 0.39344 0.0
C1041 C 0.08011 0.34317 0.41963 0.0
C1042 C 0.04381 0.34425 0.39095 0.0
C1043 C 0.02978 0.3388 0.41524 0.0
C1044 C 0.04112 0.33515 0.44168 0.0
C1045 C 0.06609 0.33727 0.44355 0.0
C1046 C 0.03245 0.34807 0.36233 0.0
C1047 C 0.02682 0.32954 0.46813 0.0
C1048 C 0.96503 0.36472 0.4141 0.0
C1049 C 0.95271 0.33724 0.4096 0.0
C1050 C 0.99001 0.36547 0.41601 0.0
C1051 C 1.00319 0.33814 0.41318 0.0
C1052 C 0.99096 0.31034 0.40848 0.0
C1053 C 0.96589 0.31019 0.40684 0.0
C1054 C 1.00232 0.39558 0.42123 0.0
C1055 C 1.00436 0.28073 0.40515 0.0
H1056 H 0.07932 0.35089 0.37477 0.0
H1057 H 0.07459 0.33465 0.4639 0.0
H1058 H 0.02117 0.328 0.35737 0.0
H1059 H 0.02062 0.36833 0.3624 0.0
H1060 H 0.04589 0.35089 0.34534 0.0
H1061 H 0.03835 0.32636 0.48693 0.0
H1062 H 0.01472 0.34908 0.47204 0.0
H1063 H 0.01549 0.30901 0.46553 0.0
H1064 H 0.95513 0.38579 0.41633 0.0
H1065 H 0.95663 0.28884 0.40331 0.0
H1066 H 0.01486 0.40063 0.40377 0.0
H1067 H 0.01298 0.39433 0.44088 0.0
H1068 H 0.9895 0.41477 0.4231 0.0
H1069 H 0.01705 0.28247 0.38729 0.0
H1070 H 0.99225 0.26111 0.40135 0.0
H1071 H 0.01502 0.27608 0.42436 0.0
C1072 C 0.44728 0.84334 0.0662 0.0
C1073 C 0.43277 0.84858 0.08983 0.0
C1074 C 0.47225 0.84198 0.06863 0.0
C1075 C 0.48308 0.84574 0.09535 0.0
C1076 C 0.46858 0.85088 0.11931 0.0
C1077 C 0.44365 0.85235 0.11626 0.0
C1078 C 0.48705 0.83664 0.04252 0.0
C1079 C 0.4794 0.85478 0.1482 0.0
C1080 C 0.54613 0.815 0.10483 0.0
C1081 C 0.56002 0.84151 0.10223 0.0
C1082 C 0.52112 0.8161 0.10297 0.0
C1083 C 0.5096 0.84435 0.0982 0.0
C1084 C 0.52346 0.87121 0.09575 0.0
C1085 C 0.54844 0.8695 0.09789 0.0
C1086 C 0.50701 0.78695 0.1059 0.0
C1087 C 0.51191 0.90176 0.09048 0.0
H1088 H 0.43915 0.84045 0.04566 0.0
H1089 H 0.43269 0.85633 0.1347 0.0
H1090 H 0.49967 0.85584 0.03945 0.0
H1091 H 0.49787 0.81565 0.04503 0.0
H1092 H 0.47592 0.8343 0.02329 0.0
H1093 H 0.46567 0.85834 0.16475 0.0
H1094 H 0.49007 0.83436 0.15374 0.0
H1095 H 0.49172 0.87457 0.14827 0.0
H1096 H 0.5548 0.79324 0.10826 0.0
H1097 H 0.55891 0.89013 0.09576 0.0
H1098 H 0.49682 0.78254 0.08629 0.0
H1099 H 0.49387 0.78917 0.12324 0.0
H1100 H 0.51859 0.76696 0.11023 0.0
H1101 H 0.50182 0.90111 0.07038 0.0
H1102 H 0.52515 0.92056 0.08939 0.0
H1103 H 0.49894 0.90693 0.10746 0.0
C1104 C 0.5693 0.15053 0.61628 0.0
C1105 C 0.57981 0.15304 0.58952 0.0
C1106 C 0.54438 0.15167 0.61967 0.0
C1107 C 0.52954 0.15523 0.59575 0.0
C1108 C 0.53999 0.15737 0.56868 0.0
C1109 C 0.56493 0.15633 0.5659 0.0
C1110 C 0.53394 0.14947 0.64891 0.0
C1111 C 0.52483 0.16101 0.5426 0.0
C1112 C 0.46389 0.13301 0.59979 0.0
C1113 C 0.4527 0.1615 0.6025 0.0
C1114 C 0.48885 0.13059 0.59793 0.0
C1115 C 0.50308 0.15725 0.59897 0.0
C1116 C 0.49195 0.186 0.60223 0.0
C1117 C 0.46696 0.18779 0.60388 0.0
C1118 C 0.49999 0.09952 0.59433 0.0
C1119 C 0.50645 0.21498 0.60358 0.0
H1120 H 0.58055 0.14805 0.6347 0.0
H1121 H 0.57275 0.1582 0.5451 0.0
H1122 H 0.52377 0.17049 0.65381 0.0
H1123 H 0.52124 0.13012 0.65005 0.0
H1124 H 0.54786 0.14628 0.6653 0.0
H1125 H 0.53568 0.16164 0.52303 0.0
H1126 H 0.51192 0.14192 0.54103 0.0
H1127 H 0.51434 0.18239 0.54398 0.0
H1128 H 0.45312 0.11253 0.59866 0.0
H1129 H 0.45861 0.20993 0.60607 0.0
H1130 H 0.51323 0.09535 0.61126 0.0
H1131 H 0.5097 0.09851 0.57399 0.0
H1132 H 0.48654 0.08094 0.59473 0.0
H1133 H 0.5198 0.21345 0.62077 0.0
H1134 H 0.49517 0.23542 0.60718 0.0
H1135 H 0.51641 0.21811 0.58361 0.0
C1136 C 0.54985 0.13602 0.91242 0.0
C1137 C 0.56181 0.1638 0.9083 0.0
C1138 C 0.52485 0.13477 0.91442 0.0
C1139 C 0.51134 0.16191 0.91205 0.0
C1140 C 0.52324 0.18998 0.90759 0.0
C1141 C 0.54828 0.19061 0.90586 0.0
C1142 C 0.5129 0.1044 0.91938 0.0
C1143 C 0.50951 0.21941 0.90475 0.0
C1144 C 0.4455 0.15474 0.89313 0.0
C1145 C 0.43441 0.15828 0.91946 0.0
C1146 C 0.47046 0.15612 0.89038 0.0
C1147 C 0.48478 0.16094 0.91455 0.0
C1148 C 0.47374 0.16454 0.94117 0.0
C1149 C 0.44875 0.16327 0.94329 0.0
C1150 C 0.4815 0.1524 0.86159 0.0
C1151 C 0.48835 0.16952 0.96749 0.0
H1152 H 0.56004 0.11515 0.91443 0.0
H1153 H 0.55724 0.21222 0.90262 0.0
H1154 H 0.50258 0.10511 0.93931 0.0
H1155 H 0.50008 0.09953 0.90216 0.0
H1156 H 0.52591 0.08537 0.9206 0.0
H1157 H 0.52137 0.23924 0.9008 0.0
H1158 H 0.49653 0.21763 0.88719 0.0
H1159 H 0.49916 0.22377 0.92425 0.0
H1160 H 0.43468 0.15097 0.87454 0.0
H1161 H 0.44047 0.166 0.96376 0.0
H1162 H 0.49356 0.13237 0.86147 0.0
H1163 H 0.49249 0.17268 0.85642 0.0
H1164 H 0.46789 0.14932 0.84482 0.0
H1165 H 0.5007 0.15007 0.97066 0.0
H1166 H 0.47707 0.17198 0.98658 0.0
H1167 H 0.49945 0.19031 0.96521 0.0
C1168 C 0.46496 0.81751 0.40545 0.0
C1169 C 0.45089 0.84391 0.40741 0.0
C1170 C 0.48997 0.81899 0.40709 0.0
C1171 C 0.50131 0.84754 0.4109 0.0
C1172 C 0.48728 0.87431 0.41252 0.0
C1173 C 0.4623 0.8722 0.41069 0.0
C1174 C 0.50425 0.7899 0.40512 0.0
C1175 C 0.49865 0.90518 0.41672 0.0
C1176 C 0.56327 0.84756 0.44376 0.0
C1177 C 0.57809 0.85141 0.42016 0.0
C1178 C 0.53833 0.84652 0.44104 0.0
C1179 C 0.5278 0.84926 0.41405 0.0
C1180 C 0.54258 0.85332 0.39015 0.0
C1181 C 0.56751 0.85442 0.39348 0.0
C1182 C 0.52323 0.84231 0.4671 0.0
C1183 C 0.53207 0.85619 0.361 0.0
H1184 H 0.45643 0.79552 0.40282 0.0
H1185 H 0.45169 0.89277 0.41226 0.0
H1186 H 0.51756 0.79169 0.38791 0.0
H1187 H 0.51426 0.78622 0.42499 0.0
H1188 H 0.49282 0.76967 0.40118 0.0
H1189 H 0.48532 0.9239 0.41676 0.0
H1190 H 0.50844 0.9056 0.43702 0.0
H1191 H 0.51185 0.90963 0.3998 0.0
H1192 H 0.57115 0.84528 0.4645 0.0
H1193 H 0.57871 0.85735 0.37507 0.0
H1194 H 0.51259 0.82109 0.46528 0.0
H1195 H 0.51046 0.86149 0.46917 0.0
H1196 H 0.53414 0.84105 0.4866 0.0
H1197 H 0.52171 0.83539 0.3558 0.0
H1198 H 0.54596 0.85954 0.3446 0.0
H1199 H 0.51952 0.8757 0.36024 0.0
C1200 C 0.15201 0.28434 0.1894 0.0
C1201 C 0.13553 0.30587 0.17954 0.0
C1202 C 0.15544 0.27992 0.21855 0.0
C1203 C 0.14203 0.2974 0.23808 0.0
C1204 C 0.12432 0.31765 0.22807 0.0
C1205 C 0.12131 0.32158 0.19904 0.0
C1206 C 0.17434 0.25791 0.22838 0.0
C1207 C 0.10946 0.33667 0.24797 0.0
C1208 C 0.13639 0.28496 0.31699 0.0
C1209 C 0.15083 0.30857 0.32737 0.0
C1210 C 0.13479 0.27918 0.28788 0.0
C1211 C 0.14789 0.29748 0.26876 0.0
C1212 C 0.16393 0.31965 0.27932 0.0
C1213 C 0.16524 0.32486 0.30843 0.0
C1214 C 0.11774 0.25506 0.27752 0.0
C1215 C 0.17831 0.33966 0.25978 0.0
H1216 H 0.16308 0.27217 0.17443 0.0
H1217 H 0.10827 0.33793 0.19159 0.0
H1218 H 0.19011 0.27086 0.23587 0.0
H1219 H 0.16774 0.24408 0.24632 0.0
H1220 H 0.18015 0.24238 0.21123 0.0
H1221 H 0.09528 0.34963 0.23686 0.0
H1222 H 0.10095 0.32198 0.26411 0.0
H1223 H 0.12111 0.35315 0.25918 0.0
H1224 H 0.12531 0.27208 0.33142 0.0
H1225 H 0.17674 0.34286 0.31621 0.0
H1226 H 0.12579 0.24174 0.26009 0.0
H1227 H 0.10141 0.26614 0.2692 0.0
H1228 H 0.11242 0.23917 0.29463 0.0
H1229 H 0.18734 0.32572 0.24348 0.0
H1230 H 0.192 0.35315 0.27124 0.0
H1231 H 0.16621 0.35572 0.24875 0.0
C1232 C 0.88942 0.67966 0.70074 0.0
C1233 C 0.87716 0.69752 0.68093 0.0
C1234 C 0.8867 0.68439 0.7297 0.0
C1235 C 0.87136 0.70773 0.73941 0.0
C1236 C 0.85988 0.727 0.71963 0.0
C1237 C 0.86292 0.72168 0.69054 0.0
C1238 C 0.89942 0.6633 0.74991 0.0
C1239 C 0.84355 0.75228 0.72915 0.0
C1240 C 0.84675 0.68641 0.81084 0.0
C1241 C 0.86323 0.70032 0.82903 0.0
C1242 C 0.84794 0.69076 0.78161 0.0
C1243 C 0.866 0.70961 0.77016 0.0
C1244 C 0.88132 0.72589 0.78854 0.0
C1245 C 0.87978 0.72103 0.8178 0.0
C1246 C 0.83115 0.67301 0.76289 0.0
C1247 C 0.90061 0.7465 0.77724 0.0
H1248 H 0.90078 0.66123 0.69364 0.0
H1249 H 0.85341 0.73563 0.67542 0.0
H1250 H 0.90977 0.67668 0.76552 0.0
H1251 H 0.88614 0.64958 0.76173 0.0
H1252 H 0.91178 0.64745 0.73897 0.0
H1253 H 0.839 0.76805 0.71166 0.0
H1254 H 0.82677 0.74233 0.73745 0.0
H1255 H 0.85187 0.76552 0.74647 0.0
H1256 H 0.83364 0.67071 0.8193 0.0
H1257 H 0.8925 0.73207 0.83165 0.0
H1258 H 0.84114 0.65445 0.75224 0.0
H1259 H 0.82361 0.6879 0.74626 0.0
H1260 H 0.81622 0.66266 0.77495 0.0
H1261 H 0.91546 0.73242 0.76891 0.0
H1262 H 0.90786 0.76178 0.79382 0.0
H1263 H 0.89378 0.76061 0.75962 0.0
C1264 C 0.14978 0.72119 0.81721 0.0
C1265 C 0.13551 0.69733 0.82739 0.0
C1266 C 0.15278 0.72571 0.78799 0.0
C1267 C 0.14116 0.70599 0.76867 0.0
C1268 C 0.12587 0.68288 0.77896 0.0
C1269 C 0.12327 0.67887 0.80803 0.0
C1270 C 0.16915 0.75067 0.77784 0.0
C1271 C 0.11296 0.66139 0.75927 0.0
C1272 C 0.13189 0.7183 0.69026 0.0
C1273 C 0.14819 0.69733 0.67897 0.0
C1274 C 0.13069 0.72349 0.71949 0.0
C1275 C 0.14615 0.70735 0.7378 0.0
C1276 C 0.16396 0.6882 0.72625 0.0
C1277 C 0.16476 0.68345 0.69704 0.0
C1278 C 0.11159 0.74433 0.73089 0.0
C1279 C 0.18091 0.67064 0.74488 0.0
H1280 H 0.1593 0.73555 0.832 0.0
H1281 H 0.11189 0.66066 0.81559 0.0
H1282 H 0.1857 0.74042 0.76923 0.0
H1283 H 0.16065 0.76379 0.76059 0.0
H1284 H 0.17413 0.7666 0.79505 0.0
H1285 H 0.10068 0.64576 0.77062 0.0
H1286 H 0.10248 0.67446 0.74357 0.0
H1287 H 0.12611 0.64743 0.74751 0.0
H1288 H 0.11908 0.72929 0.6765 0.0
H1289 H 0.17768 0.66753 0.68853 0.0
H1290 H 0.11871 0.75875 0.74814 0.0
H1291 H 0.09686 0.73042 0.73976 0.0
H1292 H 0.1041 0.75931 0.71424 0.0
H1293 H 0.18864 0.6857 0.76127 0.0
H1294 H 0.1957 0.66014 0.73269 0.0
H1295 H 0.17101 0.65221 0.75583 0.0
C1296 C 0.88138 0.28776 0.18898 0.0
C1297 C 0.86502 0.30864 0.17768 0.0
C1298 C 0.88265 0.28265 0.21822 0.0
C1299 C 0.86723 0.29885 0.23654 0.0
C1300 C 0.84941 0.31799 0.225 0.0
C1301 C 0.84849 0.32259 0.19578 0.0
C1302 C 0.90171 0.26176 0.22961 0.0
C1303 C 0.83254 0.33568 0.24365 0.0
C1304 C 0.86332 0.28497 0.31588 0.0
C1305 C 0.87766 0.30871 0.32618 0.0
C1306 C 0.86042 0.28048 0.28665 0.0
C1307 C 0.87218 0.30013 0.26742 0.0
C1308 C 0.88754 0.32313 0.27781 0.0
C1309 C 0.89007 0.32708 0.3069 0.0
C1310 C 0.844 0.25561 0.2764 0.0
C1311 C 0.90058 0.34456 0.2582 0.0
H1312 H 0.89414 0.2767 0.17521 0.0
H1313 H 0.83553 0.33844 0.18729 0.0
H1314 H 0.91646 0.27563 0.23849 0.0
H1315 H 0.89456 0.24736 0.24685 0.0
H1316 H 0.90918 0.24677 0.21295 0.0
H1317 H 0.81784 0.34637 0.23148 0.0
H1318 H 0.8247 0.32064 0.25998 0.0
H1319 H 0.84254 0.35396 0.25469 0.0
H1320 H 0.85369 0.27064 0.33059 0.0
H1321 H 0.9015 0.34521 0.31453 0.0
H1322 H 0.85254 0.24244 0.25919 0.0
H1323 H 0.82752 0.26595 0.26768 0.0
H1324 H 0.8389 0.2397 0.29357 0.0
H1325 H 0.91106 0.33144 0.24253 0.0
H1326 H 0.91288 0.36011 0.26962 0.0
H1327 H 0.8875 0.35861 0.2464 0.0
C1328 C 0.6306 0.78597 0.31925 0.0
C1329 C 0.64767 0.80582 0.33072 0.0
C1330 C 0.6294 0.7809 0.28999 0.0
C1331 C 0.64563 0.79602 0.27187 0.0
C1332 C 0.66417 0.81387 0.28363 0.0
C1333 C 0.66497 0.81852 0.31285 0.0
C1334 C 0.60952 0.76141 0.27838 0.0
C1335 C 0.68195 0.83033 0.2652 0.0
C1336 C 0.64873 0.78275 0.19234 0.0
C1337 C 0.63546 0.80761 0.18236 0.0
C1338 C 0.65155 0.77776 0.22152 0.0
C1339 C 0.64077 0.79803 0.241 0.0
C1340 C 0.62648 0.82225 0.23092 0.0
C1341 C 0.62403 0.82668 0.20189 0.0
C1342 C 0.66683 0.75161 0.23146 0.0
C1343 C 0.61448 0.84438 0.25078 0.0
H1344 H 0.61724 0.77587 0.33285 0.0
H1345 H 0.67848 0.83353 0.32151 0.0
H1346 H 0.59538 0.77634 0.2696 0.0
H1347 H 0.61609 0.74671 0.26103 0.0
H1348 H 0.60141 0.74678 0.2949 0.0
H1349 H 0.69715 0.83962 0.27753 0.0
H1350 H 0.68903 0.81488 0.24871 0.0
H1351 H 0.67294 0.84955 0.25437 0.0
H1352 H 0.6576 0.76788 0.17742 0.0
H1353 H 0.61339 0.84567 0.1945 0.0
H1354 H 0.65778 0.73894 0.24861 0.0
H1355 H 0.6838 0.76063 0.24013 0.0
H1356 H 0.67111 0.73552 0.21412 0.0
H1357 H 0.60339 0.83188 0.2663 0.0
H1358 H 0.60295 0.861 0.23955 0.0
H1359 H 0.62819 0.85725 0.26274 0.0
C1360 C 0.34821 0.18275 0.80977 0.0
C1361 C 0.36353 0.19781 0.82857 0.0
C1362 C 0.34931 0.18822 0.7807 0.0
C1363 C 0.36612 0.20938 0.77004 0.0
C1364 C 0.38014 0.22663 0.78908 0.0
C1365 C 0.37871 0.22063 0.81816 0.0
C1366 C 0.33391 0.16936 0.76126 0.0
C1367 C 0.39803 0.24969 0.77863 0.0
C1368 C 0.39152 0.1836 0.70026 0.0
C1369 C 0.37803 0.20035 0.68079 0.0
C1370 C 0.38866 0.18763 0.72928 0.0
C1371 C 0.37184 0.20905 0.73934 0.0
C1372 C 0.35917 0.22746 0.71985 0.0
C1373 C 0.36245 0.22292 0.69068 0.0
C1374 C 0.40274 0.16759 0.74914 0.0
C1375 C 0.34123 0.2507 0.72974 0.0
H1376 H 0.33613 0.16541 0.8176 0.0
H1377 H 0.3905 0.23259 0.8325 0.0
H1378 H 0.32547 0.18397 0.74502 0.0
H1379 H 0.34518 0.15239 0.75016 0.0
H1380 H 0.31968 0.15695 0.77283 0.0
H1381 H 0.40404 0.26519 0.79572 0.0
H1382 H 0.41388 0.23762 0.77018 0.0
H1383 H 0.39041 0.26353 0.76127 0.0
H1384 H 0.40393 0.16648 0.69278 0.0
H1385 H 0.35197 0.23592 0.67573 0.0
H1386 H 0.39043 0.15202 0.76046 0.0
H1387 H 0.41197 0.18168 0.76518 0.0
H1388 H 0.41626 0.15358 0.73797 0.0
H1389 H 0.32493 0.23884 0.7372 0.0
H1390 H 0.33607 0.26665 0.71263 0.0
H1391 H 0.3484 0.26403 0.7477 0.0
C1392 C 0.65029 0.22099 0.81746 0.0
C1393 C 0.63736 0.19579 0.8274 0.0
C1394 C 0.65306 0.22611 0.78829 0.0
C1395 C 0.6426 0.20561 0.76875 0.0
C1396 C 0.62871 0.18097 0.77878 0.0
C1397 C 0.62628 0.17643 0.8078 0.0
C1398 C 0.66791 0.2527 0.77842 0.0
C1399 C 0.61707 0.15857 0.75885 0.0
C1400 C 0.63193 0.21805 0.69064 0.0
C1401 C 0.64927 0.1988 0.67892 0.0
C1402 C 0.63075 0.22281 0.71994 0.0
C1403 C 0.64729 0.20798 0.73787 0.0
C1404 C 0.66608 0.19076 0.72587 0.0
C1405 C 0.66684 0.1864 0.69661 0.0
C1406 C 0.61058 0.2416 0.73181 0.0
C1407 C 0.68419 0.17464 0.74409 0.0
H1408 H 0.65888 0.2361 0.83241 0.0
H1409 H 0.61593 0.15714 0.81511 0.0
H1410 H 0.6849 0.24418 0.76942 0.0
H1411 H 0.65852 0.26535 0.7615 0.0
H1412 H 0.67214 0.26871 0.79584 0.0
H1413 H 0.60588 0.14153 0.77003 0.0
H1414 H 0.60571 0.1708 0.74343 0.0
H1415 H 0.63099 0.14621 0.74678 0.0
H1416 H 0.61835 0.2279 0.67719 0.0
H1417 H 0.68054 0.17184 0.68776 0.0
H1418 H 0.61697 0.25637 0.74921 0.0
H1419 H 0.59676 0.22618 0.74059 0.0
H1420 H 0.60212 0.2561 0.71544 0.0
H1421 H 0.69106 0.19012 0.76068 0.0
H1422 H 0.6995 0.16593 0.73161 0.0
H1423 H 0.67555 0.15505 0.75478 0.0
C1424 C 0.3779 0.78812 0.19135 0.0
C1425 C 0.36183 0.80951 0.18029 0.0
C1426 C 0.37918 0.78275 0.22055 0.0
C1427 C 0.36402 0.79912 0.23903 0.0
C1428 C 0.34639 0.81868 0.22769 0.0
C1429 C 0.34552 0.82364 0.19852 0.0
C1430 C 0.39809 0.7615 0.23172 0.0
C1431 C 0.32973 0.83646 0.24652 0.0
C1432 C 0.36063 0.78528 0.31842 0.0
C1433 C 0.3751 0.80899 0.32849 0.0
C1434 C 0.3575 0.78077 0.28922 0.0
C1435 C 0.36922 0.8003 0.26984 0.0
C1436 C 0.38479 0.82316 0.28004 0.0
C1437 C 0.38749 0.82719 0.30909 0.0
C1438 C 0.34082 0.75609 0.27917 0.0
C1439 C 0.39787 0.84441 0.26028 0.0
H1440 H 0.39049 0.77694 0.17746 0.0
H1441 H 0.33278 0.83988 0.19017 0.0
H1442 H 0.41306 0.77509 0.24045 0.0
H1443 H 0.39092 0.7472 0.24902 0.0
H1444 H 0.40527 0.74639 0.21496 0.0
H1445 H 0.31499 0.84726 0.23449 0.0
H1446 H 0.32194 0.82147 0.26292 0.0
H1447 H 0.33989 0.85468 0.25745 0.0
H1448 H 0.351 0.77113 0.33328 0.0
H1449 H 0.39905 0.84524 0.31663 0.0
H1450 H 0.34904 0.74293 0.26173 0.0
H1451 H 0.32427 0.76661 0.27084 0.0
H1452 H 0.33588 0.74013 0.29637 0.0
H1453 H 0.40807 0.83115 0.24447 0.0
H1454 H 0.41042 0.85975 0.27157 0.0
H1455 H 0.38482 0.85868 0.24868 0.0
C1456 C 0.29305 0.2193 0.99632 0.0
C1457 C 0.30175 0.19245 0.00869 0.0
C1458 C 0.2738 0.23537 0.0083 0.0
C1459 C 0.26288 0.22435 0.03323 0.0
C1460 C 0.27135 0.19701 0.04554 0.0
C1461 C 0.29063 0.18148 0.03318 0.0
C1462 C 0.26535 0.26439 0.99447 0.0
C1463 C 0.26017 0.18429 0.07198 0.0
C1464 C 0.22739 0.27872 0.08013 0.0
C1465 C 0.20378 0.27193 0.07251 0.0
C1466 C 0.24678 0.26368 0.06734 0.0
C1467 C 0.24253 0.24122 0.04644 0.0
C1468 C 0.21875 0.23438 0.0386 0.0
C1469 C 0.19974 0.24978 0.05165 0.0
C1470 C 0.27184 0.27171 0.07629 0.0
C1471 C 0.21336 0.21059 0.01651 0.0
H1472 H 0.30154 0.22812 0.9775 0.0
H1473 H 0.29715 0.16078 0.04296 0.0
H1474 H 0.24617 0.26244 0.98899 0.0
H1475 H 0.26714 0.28372 0.00938 0.0
H1476 H 0.27554 0.2698 0.97505 0.0
H1477 H 0.26862 0.16261 0.07875 0.0
H1478 H 0.26177 0.20107 0.08936 0.0
H1479 H 0.24087 0.18017 0.06851 0.0
H1480 H 0.23076 0.29582 0.0961 0.0
H1481 H 0.18163 0.24431 0.04548 0.0
H1482 H 0.28238 0.27918 0.05776 0.0
H1483 H 0.2808 0.2513 0.0851 0.0
H1484 H 0.2722 0.29011 0.09236 0.0
H1485 H 0.22235 0.21656 0.99645 0.0
H1486 H 0.19392 0.20822 0.01248 0.0
H1487 H 0.22045 0.18817 0.0233 0.0
C1488 C 0.79053 0.7133 0.54966 0.0
C1489 C 0.8081 0.72854 0.56531 0.0
C1490 C 0.77282 0.7295 0.53496 0.0
C1491 C 0.77213 0.76174 0.53663 0.0
C1492 C 0.7895 0.7772 0.55297 0.0
C1493 C 0.80751 0.76046 0.5667 0.0
C1494 C 0.75511 0.71212 0.51717 0.0
C1495 C 0.78902 0.81142 0.55607 0.0
C1496 C 0.73915 0.80622 0.47943 0.0
C1497 C 0.71653 0.80993 0.49154 0.0
C1498 C 0.75739 0.79054 0.4938 0.0
C1499 C 0.75316 0.77917 0.52132 0.0
C1500 C 0.73054 0.78373 0.53393 0.0
C1501 C 0.71241 0.79857 0.51873 0.0
C1502 C 0.78098 0.78543 0.47923 0.0
C1503 C 0.72543 0.77286 0.56349 0.0
H1504 H 0.79108 0.68867 0.54816 0.0
H1505 H 0.82103 0.77235 0.57878 0.0
H1506 H 0.73673 0.71624 0.52491 0.0
H1507 H 0.75588 0.72031 0.49508 0.0
H1508 H 0.75852 0.68718 0.51735 0.0
H1509 H 0.80318 0.81989 0.57046 0.0
H1510 H 0.79141 0.82236 0.53521 0.0
H1511 H 0.77142 0.81878 0.56431 0.0
H1512 H 0.74236 0.81475 0.45834 0.0
H1513 H 0.69501 0.80159 0.5283 0.0
H1514 H 0.78452 0.76062 0.47747 0.0
H1515 H 0.79567 0.79544 0.49183 0.0
H1516 H 0.78142 0.79557 0.4578 0.0
H1517 H 0.72654 0.74765 0.56439 0.0
H1518 H 0.70747 0.77992 0.57093 0.0
H1519 H 0.73903 0.78199 0.57824 0.0
C1520 C 0.29017 0.82473 0.97421 0.0
C1521 C 0.30077 0.81415 0.99916 0.0
C1522 C 0.2709 0.80924 0.96173 0.0
C1523 C 0.26189 0.78238 0.9744 0.0
C1524 C 0.27229 0.77175 0.99978 0.0
C1525 C 0.29155 0.78775 0.01186 0.0
C1526 C 0.26031 0.82151 0.93478 0.0
C1527 C 0.26324 0.74327 0.01403 0.0
C1528 C 0.19866 0.75796 0.95512 0.0
C1529 C 0.20266 0.73518 0.93485 0.0
C1530 C 0.2177 0.77322 0.96828 0.0
C1531 C 0.24149 0.76562 0.96113 0.0
C1532 C 0.2457 0.74254 0.94082 0.0
C1533 C 0.22628 0.72762 0.92794 0.0
C1534 C 0.21234 0.79767 0.98975 0.0
C1535 C 0.27077 0.73371 0.93258 0.0
H1536 H 0.29708 0.84506 0.96416 0.0
H1537 H 0.29964 0.77924 0.03105 0.0
H1538 H 0.26189 0.80424 0.91782 0.0
H1539 H 0.24103 0.82619 0.93774 0.0
H1540 H 0.26919 0.84281 0.9277 0.0
H1541 H 0.27308 0.73812 0.03377 0.0
H1542 H 0.24402 0.74576 0.01909 0.0
H1543 H 0.26496 0.72354 0.99956 0.0
H1544 H 0.18054 0.76401 0.96077 0.0
H1545 H 0.22963 0.71002 0.91242 0.0
H1546 H 0.21984 0.81976 0.98263 0.0
H1547 H 0.22096 0.792 0.01011 0.0
H1548 H 0.19289 0.80056 0.99333 0.0
H1549 H 0.28017 0.75369 0.92354 0.0
H1550 H 0.27109 0.71491 0.91691 0.0
H1551 H 0.28092 0.72646 0.95149 0.0
C1552 C 0.71357 0.20598 0.48999 0.0
C1553 C 0.7179 0.19469 0.51716 0.0
C1554 C 0.73159 0.22069 0.47451 0.0
C1555 C 0.75436 0.22518 0.4868 0.0
C1556 C 0.75881 0.21391 0.51431 0.0
C1557 C 0.74065 0.19837 0.52897 0.0
C1558 C 0.72624 0.23146 0.44498 0.0
C1559 C 0.78256 0.21893 0.52854 0.0
C1560 C 0.80842 0.24301 0.44062 0.0
C1561 C 0.80929 0.27493 0.44184 0.0
C1562 C 0.7904 0.22656 0.45464 0.0
C1563 C 0.7733 0.24232 0.47112 0.0
C1564 C 0.77425 0.27456 0.4726 0.0
C1565 C 0.79197 0.29047 0.4576 0.0
C1566 C 0.78963 0.19233 0.45175 0.0
C1567 C 0.75684 0.29226 0.49051 0.0
H1568 H 0.69606 0.20299 0.48066 0.0
H1569 H 0.74403 0.1899 0.55004 0.0
H1570 H 0.72756 0.25665 0.44394 0.0
H1571 H 0.7396 0.22208 0.43008 0.0
H1572 H 0.70815 0.22458 0.43785 0.0
H1573 H 0.78313 0.20899 0.55004 0.0
H1574 H 0.79707 0.20866 0.51583 0.0
H1575 H 0.78629 0.24372 0.53005 0.0
H1576 H 0.82175 0.23087 0.42845 0.0
H1577 H 0.79274 0.3151 0.45898 0.0
H1578 H 0.77188 0.1851 0.44382 0.0
H1579 H 0.79218 0.1815 0.47263 0.0
H1580 H 0.80356 0.18362 0.43718 0.0
H1581 H 0.73836 0.28823 0.48308 0.0
H1582 H 0.7604 0.31716 0.49009 0.0
H1583 H 0.7578 0.28425 0.51265 0.0
C1584 C 0.72183 0.78799 0.06334 0.0
C1585 C 0.70123 0.77174 0.07082 0.0
C1586 C 0.74007 0.77422 0.04741 0.0
C1587 C 0.73802 0.74318 0.03944 0.0
C1588 C 0.71759 0.72643 0.04779 0.0
C1589 C 0.69931 0.74102 0.06296 0.0
C1590 C 0.76121 0.79316 0.03837 0.0
C1591 C 0.71493 0.69311 0.04049 0.0
C1592 C 0.77239 0.71375 0.97558 0.0
C1593 C 0.79273 0.70095 0.98807 0.0
C1594 C 0.75465 0.72787 0.992 0.0
C1595 C 0.7569 0.72846 0.02174 0.0
C1596 C 0.77719 0.715 0.03448 0.0
C1597 C 0.795 0.70184 0.01749 0.0
C1598 C 0.73367 0.74261 0.97746 0.0
C1599 C 0.78001 0.71431 0.06609 0.0
H1600 H 0.72331 0.81183 0.06908 0.0
H1601 H 0.68347 0.7283 0.06878 0.0
H1602 H 0.778 0.78271 0.04605 0.0
H1603 H 0.7622 0.79379 0.01503 0.0
H1604 H 0.76021 0.81692 0.04635 0.0
H1605 H 0.69877 0.68283 0.05013 0.0
H1606 H 0.7138 0.69033 0.01732 0.0
H1607 H 0.73084 0.68025 0.04773 0.0
H1608 H 0.77063 0.71343 0.95285 0.0
H1609 H 0.81063 0.69188 0.0273 0.0
H1610 H 0.73259 0.76702 0.98344 0.0
H1611 H 0.71683 0.73165 0.98435 0.0
H1612 H 0.73488 0.74099 0.95416 0.0
H1613 H 0.78078 0.73788 0.07446 0.0
H1614 H 0.79638 0.70203 0.07276 0.0
H1615 H 0.76431 0.70306 0.07582 0.0
C1616 C 0.31646 0.25867 0.55183 0.0
C1617 C 0.31232 0.2364 0.57253 0.0
C1618 C 0.29748 0.27382 0.53843 0.0
C1619 C 0.27366 0.26659 0.54578 0.0
C1620 C 0.26933 0.24402 0.56653 0.0
C1621 C 0.28867 0.22924 0.57965 0.0
C1622 C 0.30296 0.29775 0.51651 0.0
C1623 C 0.24422 0.23558 0.57498 0.0
C1624 C 0.22487 0.32529 0.53213 0.0
C1625 C 0.21402 0.31404 0.50758 0.0
C1626 C 0.24436 0.31026 0.54457 0.0
C1627 C 0.25332 0.28318 0.53226 0.0
C1628 C 0.24273 0.27196 0.5072 0.0
C1629 C 0.22326 0.28752 0.49514 0.0
C1630 C 0.25516 0.32316 0.57115 0.0
C1631 C 0.25172 0.24321 0.49336 0.0
H1632 H 0.33462 0.26441 0.54605 0.0
H1633 H 0.28522 0.21202 0.5955 0.0
H1634 H 0.29428 0.2917 0.49627 0.0
H1635 H 0.29558 0.32005 0.52323 0.0
H1636 H 0.32242 0.30041 0.51285 0.0
H1637 H 0.24381 0.21715 0.591 0.0
H1638 H 0.23495 0.25584 0.58366 0.0
H1639 H 0.234 0.228 0.55623 0.0
H1640 H 0.21794 0.34575 0.54195 0.0
H1641 H 0.21498 0.27851 0.47626 0.0
H1642 H 0.27447 0.3275 0.568 0.0
H1643 H 0.25348 0.3064 0.58853 0.0
H1644 H 0.24648 0.34476 0.57777 0.0
H1645 H 0.27096 0.2455 0.48835 0.0
H1646 H 0.2419 0.23779 0.47366 0.0
H1647 H 0.24986 0.22373 0.5081 0.0
C1648 C 0.79928 0.30093 0.98956 0.0
C1649 C 0.79545 0.31134 0.01713 0.0
C1650 C 0.78107 0.28629 0.9743 0.0
C1651 C 0.75867 0.28089 0.98722 0.0
C1652 C 0.75477 0.29123 0.01516 0.0
C1653 C 0.77306 0.30679 0.02959 0.0
C1654 C 0.78582 0.27659 0.94431 0.0
C1655 C 0.73146 0.28518 0.03007 0.0
C1656 C 0.70377 0.2634 0.94233 0.0
C1657 C 0.7035 0.23144 0.9424 0.0
C1658 C 0.72184 0.27977 0.95633 0.0
C1659 C 0.73958 0.26386 0.97171 0.0
C1660 C 0.73916 0.23155 0.97214 0.0
C1661 C 0.7214 0.21576 0.95708 0.0
C1662 C 0.72205 0.31411 0.95448 0.0
C1663 C 0.75721 0.21365 0.98895 0.0
H1664 H 0.8165 0.30459 0.97974 0.0
H1665 H 0.77008 0.31457 0.05098 0.0
H1666 H 0.78487 0.25142 0.94262 0.0
H1667 H 0.77194 0.28609 0.93015 0.0
H1668 H 0.80361 0.28416 0.93675 0.0
H1669 H 0.73132 0.29438 0.05187 0.0
H1670 H 0.71649 0.29553 0.0182 0.0
H1671 H 0.72812 0.26027 0.03098 0.0
H1672 H 0.68998 0.27561 0.93098 0.0
H1673 H 0.72107 0.19107 0.95754 0.0
H1674 H 0.73947 0.32203 0.94613 0.0
H1675 H 0.71993 0.32413 0.97577 0.0
H1676 H 0.70761 0.32299 0.94072 0.0
H1677 H 0.77544 0.21822 0.98096 0.0
H1678 H 0.7539 0.18871 0.98801 0.0
H1679 H 0.75675 0.22098 0.01132 0.0
C1680 C 0.21704 0.69948 0.49169 0.0
C1681 C 0.21896 0.69865 0.52116 0.0
C1682 C 0.2349 0.71303 0.47501 0.0
C1683 C 0.25485 0.72694 0.4881 0.0
C1684 C 0.25676 0.72636 0.51787 0.0
C1685 C 0.23899 0.71186 0.53399 0.0
C1686 C 0.23245 0.71235 0.44336 0.0
C1687 C 0.27738 0.74154 0.53277 0.0
C1688 C 0.31268 0.74099 0.44774 0.0
C1689 C 0.3104 0.77168 0.4399 0.0
C1690 C 0.29447 0.72593 0.46264 0.0
C1691 C 0.27372 0.74217 0.47074 0.0
C1692 C 0.27131 0.77317 0.46281 0.0
C1693 C 0.28951 0.78741 0.44715 0.0
C1694 C 0.29751 0.69267 0.4699 0.0
C1695 C 0.24982 0.79158 0.47159 0.0
H1696 H 0.20165 0.68922 0.48162 0.0
H1697 H 0.24048 0.7116 0.55675 0.0
H1698 H 0.23139 0.73591 0.43503 0.0
H1699 H 0.24843 0.70156 0.43385 0.0
H1700 H 0.21635 0.69963 0.43641 0.0
H1701 H 0.27596 0.73977 0.55605 0.0
H1702 H 0.29445 0.73104 0.52607 0.0
H1703 H 0.27816 0.766 0.52692 0.0
H1704 H 0.32874 0.72866 0.44209 0.0
H1705 H 0.28774 0.81122 0.44142 0.0
H1706 H 0.2819 0.67944 0.46235 0.0
H1707 H 0.29839 0.68985 0.49309 0.0
H1708 H 0.31395 0.68282 0.46053 0.0
H1709 H 0.23327 0.78078 0.46358 0.0
H1710 H 0.25059 0.8154 0.46373 0.0
H1711 H 0.24855 0.79206 0.49491 0.0
C1712 C 0.15802 0.56798 0.9879 0.0
C1713 C 0.13913 0.57602 0.97012 0.0
C1714 C 0.15815 0.53969 1.00181 0.0
C1715 C 0.13849 0.51963 0.99864 0.0
C1716 C 0.1191 0.52814 0.98123 0.0
C1717 C 0.11989 0.55597 0.96674 0.0
C1718 C 0.17948 0.53101 0.01946 0.0
C1719 C 0.0974 0.508 0.97809 0.0
C1720 C 0.14362 0.4349 0.01516 0.0
C1721 C 0.13527 0.43394 0.04292 0.0
C1722 C 0.14545 0.4628 1.00071 0.0
C1723 C 0.13785 0.49005 0.01403 0.0
C1724 C 0.12898 0.48896 0.04192 0.0
C1725 C 0.12822 0.46102 0.05618 0.0
C1726 C 0.15572 0.46317 0.97133 0.0
C1727 C 0.11984 0.51722 0.05653 0.0
H1728 H 0.17305 0.58335 0.99013 0.0
H1729 H 0.10527 0.56229 0.95296 0.0
H1730 H 0.17402 0.52766 0.04169 0.0
H1731 H 0.18695 0.50906 0.01193 0.0
H1732 H 0.19375 0.54857 0.01879 0.0
H1733 H 0.08344 0.51856 0.96467 0.0
H1734 H 0.10256 0.48586 0.96865 0.0
H1735 H 0.08963 0.50312 0.99911 0.0
H1736 H 0.14924 0.41395 0.00502 0.0
H1737 H 0.12155 0.46022 0.07761 0.0
H1738 H 0.17084 0.47946 0.97026 0.0
H1739 H 0.14205 0.47108 0.95612 0.0
H1740 H 0.1621 0.44034 0.9646 0.0
H1741 H 0.13427 0.53441 0.05822 0.0
H1742 H 0.11298 0.51232 0.07801 0.0
H1743 H 0.10527 0.52759 0.04394 0.0
C1744 C 0.8699 0.57107 0.51471 0.0
C1745 C 0.87911 0.57195 0.5421 0.0
C1746 C 0.86811 0.5433 0.50004 0.0
C1747 C 0.8766 0.51613 0.51274 0.0
C1748 C 0.88639 0.51715 0.54019 0.0
C1749 C 0.88712 0.54495 0.55471 0.0
C1750 C 0.8569 0.54295 0.47114 0.0
C1751 C 0.89643 0.48899 0.55411 0.0
C1752 C 0.85661 0.43792 0.48718 0.0
C1753 C 0.87505 0.43029 0.46861 0.0
C1754 C 0.85653 0.46618 0.50116 0.0
C1755 C 0.87581 0.48667 0.49718 0.0
C1756 C 0.89474 0.47863 0.4789 0.0
C1757 C 0.8939 0.45078 0.46444 0.0
C1758 C 0.83568 0.47432 0.51981 0.0
C1759 C 0.91603 0.49928 0.47485 0.0
H1760 H 0.86352 0.59194 0.5051 0.0
H1761 H 0.89445 0.54568 0.57584 0.0
H1762 H 0.87011 0.53525 0.45529 0.0
H1763 H 0.84187 0.52649 0.4707 0.0
H1764 H 0.85014 0.56573 0.46482 0.0
H1765 H 0.90403 0.49387 0.57524 0.0
H1766 H 0.88228 0.4715 0.55643 0.0
H1767 H 0.91063 0.479 0.5407 0.0
H1768 H 0.84186 0.42222 0.49005 0.0
H1769 H 0.90819 0.4448 0.45008 0.0
H1770 H 0.82775 0.49621 0.51281 0.0
H1771 H 0.84183 0.47755 0.5418 0.0
H1772 H 0.82159 0.45651 0.51961 0.0
H1773 H 0.91023 0.52142 0.46594 0.0
H1774 H 0.9296 0.48919 0.46058 0.0
H1775 H 0.92453 0.50407 0.49549 0.0
C1776 C 0.84731 0.43554 0.01162 0.0
C1777 C 0.86225 0.42997 0.03472 0.0
C1778 C 0.84634 0.46458 0.99908 0.0
C1779 C 0.86117 0.4883 0.00938 0.0
C1780 C 0.87663 0.48252 0.03234 0.0
C1781 C 0.87673 0.4536 0.04493 0.0
C1782 C 0.82924 0.47002 0.97505 0.0
C1783 C 0.89324 0.5068 0.04346 0.0
C1784 C 0.87573 0.55404 0.96011 0.0
C1785 C 0.86142 0.57754 0.97088 0.0
C1786 C 0.87591 0.52502 0.97253 0.0
C1787 C 0.86093 0.51901 0.99588 0.0
C1788 C 0.84625 0.54258 0.0067 0.0
C1789 C 0.84692 0.5717 0.99431 0.0
C1790 C 0.89236 0.50089 0.96083 0.0
C1791 C 0.82966 0.53691 0.03119 0.0
H1792 H 0.83594 0.41742 1.00384 0.0
H1793 H 0.88847 0.44935 0.06265 0.0
H1794 H 0.81706 0.48911 0.98034 0.0
H1795 H 0.83923 0.47673 0.95587 0.0
H1796 H 0.81837 0.44953 0.97012 0.0
H1797 H 0.90452 0.49842 0.06106 0.0
H1798 H 0.90506 0.515 0.02631 0.0
H1799 H 0.88282 0.52667 0.05099 0.0
H1800 H 0.88712 0.55846 0.94212 0.0
H1801 H 0.83567 0.58971 1.00254 0.0
H1802 H 0.88187 0.4809 0.95369 0.0
H1803 H 0.90466 0.49284 0.97756 0.0
H1804 H 0.90314 0.50936 0.94283 0.0
H1805 H 0.81756 0.51762 0.02626 0.0
H1806 H 0.81871 0.55724 0.03638 0.0
H1807 H 0.84009 0.5304 0.0501 0.0
C1808 C 0.13386 0.45076 0.46233 0.0
C1809 C 0.14882 0.42738 0.47206 0.0
C1810 C 0.13368 0.47954 0.47524 0.0
C1811 C 0.1493 0.48545 0.49803 0.0
C1812 C 0.16447 0.46193 0.50796 0.0
C1813 C 0.16382 0.43304 0.49509 0.0
C1814 C 0.11674 0.50361 0.46447 0.0
C1815 C 0.18171 0.46749 0.53184 0.0
C1816 C 0.16349 0.56892 0.51313 0.0
C1817 C 0.14924 0.57464 0.5368 0.0
C1818 C 0.16404 0.53984 0.50061 0.0
C1819 C 0.14952 0.51617 0.51157 0.0
C1820 C 0.13479 0.52205 0.53516 0.0
C1821 C 0.13506 0.55103 0.54767 0.0
C1822 C 0.18035 0.53434 0.47583 0.0
C1823 C 0.11855 0.49779 0.54706 0.0
H1824 H 0.12211 0.44647 0.44463 0.0
H1825 H 0.17561 0.41517 0.50248 0.0
H1826 H 0.10516 0.51174 0.48187 0.0
H1827 H 0.12693 0.52355 0.45664 0.0
H1828 H 0.10521 0.49506 0.44715 0.0
H1829 H 0.19258 0.44702 0.53678 0.0
H1830 H 0.1939 0.48651 0.52633 0.0
H1831 H 0.17185 0.47436 0.55106 0.0
H1832 H 0.17464 0.58697 0.50479 0.0
H1833 H 0.12386 0.55533 0.56585 0.0
H1834 H 0.16972 0.52774 0.4571 0.0
H1835 H 0.19262 0.51516 0.48053 0.0
H1836 H 0.19114 0.55477 0.47046 0.0
H1837 H 0.10609 0.4897 0.53049 0.0
H1838 H 0.10793 0.50616 0.56523 0.0
H1839 H 0.12918 0.47786 0.55399 0.0
C1840 C 0.6133 0.06859 0.99223 0.0
C1841 C 0.62805 0.07316 0.96875 0.0
C1842 C 0.61328 0.04062 0.0067 0.0
C1843 C 0.62841 0.01674 0.99752 0.0
C1844 C 0.64374 0.02149 0.97427 0.0
C1845 C 0.64337 0.04959 0.9602 0.0
C1846 C 0.59674 0.03643 0.03149 0.0
C1847 C 0.66027 0.99673 0.96396 0.0
C1848 C 0.64307 0.95353 0.04933 0.0
C1849 C 0.62724 0.93037 0.04105 0.0
C1850 C 0.64376 0.9816 0.03523 0.0
C1851 C 0.62825 0.98675 0.01223 0.0
C1852 C 0.6126 0.96327 1.00331 0.0
C1853 C 0.61231 0.93532 0.01781 0.0
C1854 C 0.66083 0.00593 0.04526 0.0
C1855 C 0.59586 0.96788 0.97878 0.0
H1856 H 0.60136 0.08659 0.99893 0.0
H1857 H 0.65493 0.05288 0.94216 0.0
H1858 H 0.58405 0.01762 0.02712 0.0
H1859 H 0.60712 0.02993 0.05045 0.0
H1860 H 0.5864 0.05738 0.0363 0.0
H1861 H 0.67141 0.00427 0.94591 0.0
H1862 H 0.67223 0.98929 0.98125 0.0
H1863 H 0.64974 0.97655 0.95734 0.0
H1864 H 0.65478 0.94994 0.0672 0.0
H1865 H 0.59998 0.91764 0.0113 0.0
H1866 H 0.65072 0.02637 0.05206 0.0
H1867 H 0.6727 0.01306 0.02777 0.0
H1868 H 0.67206 0.99808 0.06312 0.0
H1869 H 0.58353 0.98702 0.98335 0.0
H1870 H 0.58513 0.9472 0.97413 0.0
H1871 H 0.60612 0.97413 0.95965 0.0
C1872 C 0.3989 0.93598 0.49317 0.0
C1873 C 0.38369 0.93112 0.47016 0.0
C1874 C 0.39877 0.96384 0.50781 0.0
C1875 C 0.383 0.98733 0.49927 0.0
C1876 C 0.36717 0.98224 0.47656 0.0
C1877 C 0.3677 0.95426 0.4623 0.0
C1878 C 0.41586 0.9684 0.53202 0.0
C1879 C 0.34996 0.00658 0.46694 0.0
C1880 C 0.3689 0.05038 0.5515 0.0
C1881 C 0.38414 0.07386 0.54252 0.0
C1882 C 0.36823 0.02223 0.53752 0.0
C1883 C 0.38317 0.01734 0.51394 0.0
C1884 C 0.39823 0.04112 0.50437 0.0
C1885 C 0.39852 0.06913 0.51875 0.0
C1886 C 0.35179 0.99755 0.54826 0.0
C1887 C 0.41435 0.03679 0.47922 0.0
H1888 H 0.41134 0.9183 0.49935 0.0
H1889 H 0.35578 0.95073 0.44463 0.0
H1890 H 0.42823 0.98743 0.52717 0.0
H1891 H 0.40589 0.97477 0.55132 0.0
H1892 H 0.42655 0.94765 0.5365 0.0
H1893 H 0.33837 0.99872 0.4494 0.0
H1894 H 0.33845 0.01381 0.48473 0.0
H1895 H 0.35999 0.02697 0.45982 0.0
H1896 H 0.35765 0.05378 0.56979 0.0
H1897 H 0.41038 0.08707 0.5117 0.0
H1898 H 0.36236 0.97735 0.55466 0.0
H1899 H 0.33952 0.99013 0.53125 0.0
H1900 H 0.34098 0.00519 0.56655 0.0
H1901 H 0.42702 0.01789 0.48332 0.0
H1902 H 0.42472 0.05766 0.47417 0.0
H1903 H 0.40365 0.03034 0.46049 0.0
C1904 C 0.37792 0.95329 0.04707 0.0
C1905 C 0.36334 0.92981 0.03675 0.0
C1906 C 0.37832 0.98209 0.03425 0.0
C1907 C 0.36329 0.98792 0.01091 0.0
C1908 C 0.34844 0.96432 1.00041 0.0
C1909 C 0.34888 0.9354 0.01323 0.0
C1910 C 0.39493 0.00625 0.04563 0.0
C1911 C 0.33182 0.9698 0.97592 0.0
C1912 C 0.34948 0.07125 0.99485 0.0
C1913 C 0.36427 0.07677 0.97161 0.0
C1914 C 0.34866 0.0423 0.00758 0.0
C1915 C 0.36346 0.01857 0.99728 0.0
C1916 C 0.37881 0.0243 0.97421 0.0
C1917 C 0.37879 0.05315 0.96146 0.0
C1918 C 0.3317 0.03694 0.03177 0.0
C1919 C 0.39538 1.0 0.96306 0.0
H1920 H 0.38928 0.94904 0.06513 0.0
H1921 H 0.33741 0.91743 0.00535 0.0
H1922 H 0.40704 0.01426 0.02869 0.0
H1923 H 0.38452 0.02624 0.05289 0.0
H1924 H 0.40591 0.99781 0.06348 0.0
H1925 H 0.32099 0.94935 0.97073 0.0
H1926 H 0.31959 0.98894 0.98088 0.0
H1927 H 0.34219 0.97646 0.95701 0.0
H1928 H 0.33803 0.08931 1.00257 0.0
H1929 H 0.39039 0.05733 0.9436 0.0
H1930 H 0.3418 0.03021 0.05086 0.0
H1931 H 0.31944 0.01788 0.0266 0.0
H1932 H 0.32092 0.05746 0.03678 0.0
H1933 H 0.40727 0.99188 0.98017 0.0
H1934 H 0.40659 0.00834 0.94537 0.0
H1935 H 0.38492 0.9801 0.95565 0.0
C1936 C 0.66684 0.07023 0.51362 0.0
C1937 C 0.65232 0.07588 0.53706 0.0
C1938 C 0.66754 0.04116 0.50108 0.0
C1939 C 0.65283 0.01752 0.51172 0.0
C1940 C 0.63784 0.02336 0.5351 0.0
C1941 C 0.63802 0.05228 0.54769 0.0
C1942 C 0.68419 0.03566 0.47662 0.0
C1943 C 0.62133 0.99916 0.54659 0.0
C1944 C 0.63687 0.95234 0.4624 0.0
C1945 C 0.65115 0.92857 0.47268 0.0
C1946 C 0.63713 0.98126 0.47502 0.0
C1947 C 0.65257 0.98689 0.49804 0.0
C1948 C 0.66726 0.96305 0.50833 0.0
C1949 C 0.6661 0.93401 0.49579 0.0
C1950 C 0.62064 0.00567 0.46392 0.0
C1951 C 0.68436 0.96833 0.5324 0.0
H1952 H 0.67807 0.08833 0.50551 0.0
H1953 H 0.6266 0.0566 0.56568 0.0
H1954 H 0.69623 0.01629 0.48144 0.0
H1955 H 0.6738 0.02935 0.45761 0.0
H1956 H 0.69521 0.056 0.47163 0.0
H1957 H 0.61051 0.00753 0.5646 0.0
H1958 H 0.60906 0.99124 0.52977 0.0
H1959 H 0.63177 0.97912 0.55365 0.0
H1960 H 0.62514 0.94818 0.44465 0.0
H1961 H 0.67733 0.91578 0.50361 0.0
H1962 H 0.63115 0.02556 0.45658 0.0
H1963 H 0.60876 0.01378 0.48104 0.0
H1964 H 0.60942 0.99744 0.44619 0.0
H1965 H 0.69651 0.98751 0.52727 0.0
H1966 H 0.69526 0.94783 0.53715 0.0
H1967 H 0.67436 0.97482 0.55163 0.0
loop_
_geom_bond_atom_site_label_1
_geom_bond_atom_site_label_2
_geom_bond_distance
_geom_bond_site_symmetry_2
_ccdc_geom_bond_type
Co0 O2 2.143 . S
Co0 O8 2.074 . S
Co0 O11 2.093 . S
Co0 O24 2.097 . S
Co0 N41 2.151 . S
Co0 N49 2.214 . S
Co1 O2 2.160 . S
Co1 O7 2.058 . S
Co1 O17 2.057 . S
Co1 O32 2.037 . S
Co1 N36 2.145 . S
Co1 N57 2.257 . S
O2 Co0 2.143 . S
O2 Co1 2.160 . S
C3 O4 1.278 . S
C3 O11 1.224 . S
O4 C3 1.278 . S
C5 O6 1.245 . S
C5 O17 1.232 . S
O6 C5 1.245 . S
O7 Co1 2.058 . S
O7 C33 1.269 . S
O8 Co0 2.074 . S
O8 C33 1.257 . S
H9 C34 0.930 . S
H10 C40 0.930 . S
O11 Co0 2.093 . S
O11 C3 1.224 . S
H12 C44 0.929 . S
H13 C46 0.930 . S
H14 C47 0.930 . S
H15 C45 0.929 . S
H16 C48 0.928 . S
O17 Co1 2.057 . S
O17 C5 1.232 . S
H18 C37 0.929 . S
H19 C38 0.929 . S
H20 C50 0.931 . S
H21 C42 0.929 . S
H22 C51 0.930 . S
H23 C43 0.931 . S
O24 Co0 2.097 . S
O24 C52 1.214 . S
H25 C53 0.929 . S
H26 C54 0.929 . S
H27 C55 0.930 . S
H28 C56 0.929 . S
H29 C58 0.930 . S
H30 C35 0.930 . S
H31 C39 0.930 . S
O32 Co1 2.037 . S
O32 C52 1.234 . S
C33 O7 1.269 . S
C33 O8 1.257 . S
C34 H9 0.930 . S
C34 C37 1.388 . S
C34 C39 1.418 . S
C35 H30 0.930 . S
C35 C38 1.404 . S
C35 C39 1.353 . S
N36 Co1 2.145 . S
N36 C37 1.397 . S
N36 C38 1.334 . S
C37 H18 0.929 . S
C37 C34 1.388 . S
C37 N36 1.397 . S
C38 H19 0.929 . S
C38 C35 1.404 . S
C38 N36 1.334 . S
C39 H31 0.930 . S
C39 C34 1.418 . S
C39 C35 1.353 . S
C40 H10 0.930 . S
C40 N41 1.330 . S
C40 C42 1.446 . S
N41 Co0 2.151 . S
N41 C40 1.330 . S
N41 C45 1.418 . S
C42 H21 0.929 . S
C42 C40 1.446 . S
C42 C43 1.332 . S
C43 H23 0.931 . S
C43 C42 1.332 . S
C43 C44 1.267 . S
C44 H12 0.929 . S
C44 C43 1.267 . S
C44 C45 1.251 . S
C45 H15 0.929 . S
C45 N41 1.418 . S
C45 C44 1.251 . S
C46 H13 0.930 . S
C46 C48 1.406 . S
C46 C51 1.261 . S
C47 H14 0.930 . S
C47 N49 1.325 . S
C47 C50 1.357 . S
C48 H16 0.928 . S
C48 C46 1.406 . S
C48 N49 1.261 . S
N49 Co0 2.214 . S
N49 C47 1.325 . S
N49 C48 1.261 . S
C50 H20 0.931 . S
C50 C47 1.357 . S
C50 C51 1.312 . S
C51 H22 0.930 . S
C51 C46 1.261 . S
C51 C50 1.312 . S
C52 O24 1.214 . S
C52 O32 1.234 . S
C53 H25 0.929 . S
C53 C56 1.391 . S
C53 C58 1.391 1_556 S
C54 H26 0.929 . S
C54 C55 1.390 1_554 S
C54 N57 1.391 . S
C55 H27 0.930 . S
C55 C54 1.390 1_556 S
C55 C56 1.392 . S
C56 H28 0.929 . S
C56 C53 1.391 . S
C56 C55 1.392 . S
N57 Co1 2.257 . S
N57 C54 1.391 . S
N57 C58 1.388 . S
C58 H29 0.930 . S
C58 C53 1.391 1_554 S
C58 N57 1.388 . S
Co59 O61 2.143 . S
Co59 O67 2.074 . S
Co59 O70 2.093 . S
Co59 O83 2.097 . S
Co59 N100 2.151 . S
Co59 N108 2.214 . S
Co60 O61 2.160 . S
Co60 O66 2.058 . S
Co60 O76 2.057 . S
Co60 O91 2.037 . S
Co60 N95 2.145 . S
Co60 N116 2.257 . S
O61 Co59 2.143 . S
O61 Co60 2.160 . S
C62 O63 1.278 . S
C62 O70 1.224 . S
O63 C62 1.278 . S
C64 O65 1.245 . S
C64 O76 1.232 . S
O65 C64 1.245 . S
O66 Co60 2.058 . S
O66 C92 1.269 . S
O67 Co59 2.074 . S
O67 C92 1.257 . S
H68 C93 0.930 . S
H69 C99 0.930 . S
O70 Co59 2.093 . S
O70 C62 1.224 . S
H71 C103 0.929 . S
H72 C105 0.930 . S
H73 C106 0.930 . S
H74 C104 0.929 . S
H75 C107 0.928 . S
O76 Co60 2.057 . S
O76 C64 1.232 . S
H77 C96 0.929 . S
H78 C97 0.929 . S
H79 C109 0.931 . S
H80 C101 0.929 . S
H81 C110 0.930 . S
H82 C102 0.931 . S
O83 Co59 2.097 . S
O83 C111 1.214 . S
H84 C112 0.929 . S
H85 C113 0.929 . S
H86 C114 0.930 . S
H87 C115 0.929 . S
H88 C117 0.930 . S
H89 C94 0.930 . S
H90 C98 0.930 . S
O91 Co60 2.037 . S
O91 C111 1.234 . S
C92 O66 1.269 . S
C92 O67 1.257 . S
C93 H68 0.930 . S
C93 C96 1.388 . S
C93 C98 1.418 . S
C94 H89 0.930 . S
C94 C97 1.404 . S
C94 C98 1.353 . S
N95 Co60 2.145 . S
N95 C96 1.397 . S
N95 C97 1.334 . S
C96 H77 0.929 . S
C96 C93 1.388 . S
C96 N95 1.397 . S
C97 H78 0.929 . S
C97 C94 1.404 . S
C97 N95 1.334 . S
C98 H90 0.930 . S
C98 C93 1.418 . S
C98 C94 1.353 . S
C99 H69 0.930 . S
C99 N100 1.330 . S
C99 C101 1.446 . S
N100 Co59 2.151 . S
N100 C99 1.330 . S
N100 C104 1.418 . S
C101 H80 0.929 . S
C101 C99 1.446 . S
C101 C102 1.332 . S
C102 H82 0.931 . S
C102 C101 1.332 . S
C102 C103 1.267 . S
C103 H71 0.929 . S
C103 C102 1.267 . S
C103 C104 1.251 . S
C104 H74 0.929 . S
C104 N100 1.418 . S
C104 C103 1.251 . S
C105 H72 0.930 . S
C105 C107 1.406 . S
C105 C110 1.261 . S
C106 H73 0.930 . S
C106 N108 1.325 . S
C106 C109 1.357 . S
C107 H75 0.928 . S
C107 C105 1.406 . S
C107 N108 1.261 . S
N108 Co59 2.214 . S
N108 C106 1.325 . S
N108 C107 1.261 . S
C109 H79 0.931 . S
C109 C106 1.357 . S
C109 C110 1.312 . S
C110 H81 0.930 . S
C110 C105 1.261 . S
C110 C109 1.312 . S
C111 O83 1.214 . S
C111 O91 1.234 . S
C112 H84 0.929 . S
C112 C115 1.391 . S
C112 C117 1.391 . S
C113 H85 0.929 . S
C113 C114 1.390 . S
C113 N116 1.391 . S
C114 H86 0.930 . S
C114 C113 1.390 . S
C114 C115 1.392 . S
C115 H87 0.929 . S
C115 C112 1.391 . S
C115 C114 1.392 . S
N116 Co60 2.257 . S
N116 C113 1.391 . S
N116 C117 1.388 . S
C117 H88 0.930 . S
C117 C112 1.391 . S
C117 N116 1.388 . S
Co118 O120 2.143 . S
Co118 O126 2.074 . S
Co118 O129 2.093 . S
Co118 O142 2.097 . S
Co118 N159 2.151 . S
Co118 N167 2.214 . S
Co119 O120 2.160 . S
Co119 O125 2.058 . S
Co119 O135 2.057 . S
Co119 O150 2.037 . S
Co119 N154 2.145 . S
Co119 N175 2.257 . S
O120 Co118 2.143 . S
O120 Co119 2.160 . S
C121 O122 1.278 . S
C121 O129 1.224 . S
O122 C121 1.278 . S
C123 O124 1.245 . S
C123 O135 1.232 . S
O124 C123 1.245 . S
O125 Co119 2.058 . S
O125 C151 1.269 . S
O126 Co118 2.074 . S
O126 C151 1.257 . S
H127 C152 0.930 . S
H128 C158 0.930 . S
O129 Co118 2.093 . S
O129 C121 1.224 . S
H130 C162 0.929 . S
H131 C164 0.930 . S
H132 C165 0.930 . S
H133 C163 0.929 . S
H134 C166 0.928 . S
O135 Co119 2.057 . S
O135 C123 1.232 . S
H136 C155 0.929 . S
H137 C156 0.929 . S
H138 C168 0.931 . S
H139 C160 0.929 . S
H140 C169 0.930 . S
H141 C161 0.931 . S
O142 Co118 2.097 . S
O142 C170 1.214 . S
H143 C171 0.929 . S
H144 C172 0.929 . S
H145 C173 0.930 . S
H146 C174 0.929 . S
H147 C176 0.930 . S
H148 C153 0.930 . S
H149 C157 0.930 . S
O150 Co119 2.037 . S
O150 C170 1.234 . S
C151 O125 1.269 . S
C151 O126 1.257 . S
C152 H127 0.930 . S
C152 C155 1.388 . S
C152 C157 1.418 . S
C153 H148 0.930 . S
C153 C156 1.404 . S
C153 C157 1.353 . S
N154 Co119 2.145 . S
N154 C155 1.397 . S
N154 C156 1.334 . S
C155 H136 0.929 . S
C155 C152 1.388 . S
C155 N154 1.397 . S
C156 H137 0.929 . S
C156 C153 1.404 . S
C156 N154 1.334 . S
C157 H149 0.930 . S
C157 C152 1.418 . S
C157 C153 1.353 . S
C158 H128 0.930 . S
C158 N159 1.330 . S
C158 C160 1.446 . S
N159 Co118 2.151 . S
N159 C158 1.330 . S
N159 C163 1.418 . S
C160 H139 0.929 . S
C160 C158 1.446 . S
C160 C161 1.332 . S
C161 H141 0.931 . S
C161 C160 1.332 . S
C161 C162 1.267 . S
C162 H130 0.929 . S
C162 C161 1.267 . S
C162 C163 1.251 . S
C163 H133 0.929 . S
C163 N159 1.418 . S
C163 C162 1.251 . S
C164 H131 0.930 . S
C164 C166 1.406 . S
C164 C169 1.261 . S
C165 H132 0.930 . S
C165 N167 1.325 . S
C165 C168 1.357 . S
C166 H134 0.928 . S
C166 C164 1.406 . S
C166 N167 1.261 . S
N167 Co118 2.214 . S
N167 C165 1.325 . S
N167 C166 1.261 . S
C168 H138 0.931 . S
C168 C165 1.357 . S
C168 C169 1.312 . S
C169 H140 0.930 . S
C169 C164 1.261 . S
C169 C168 1.312 . S
C170 O142 1.214 . S
C170 O150 1.234 . S
C171 H143 0.929 . S
C171 C174 1.391 . S
C171 C176 1.391 1_554 S
C172 H144 0.929 . S
C172 C173 1.390 1_556 S
C172 N175 1.391 . S
C173 H145 0.930 . S
C173 C172 1.390 1_554 S
C173 C174 1.392 . S
C174 H146 0.929 . S
C174 C171 1.391 . S
C174 C173 1.392 . S
N175 Co119 2.257 . S
N175 C172 1.391 . S
N175 C176 1.388 . S
C176 H147 0.930 . S
C176 C171 1.391 1_556 S
C176 N175 1.388 . S
Co177 O179 2.143 . S
Co177 O185 2.074 . S
Co177 O188 2.093 . S
Co177 O201 2.097 . S
Co177 N218 2.151 . S
Co177 N226 2.214 . S
Co178 O179 2.160 . S
Co178 O184 2.058 . S
Co178 O194 2.057 . S
Co178 O209 2.037 . S
Co178 N213 2.145 . S
Co178 N234 2.257 . S
O179 Co177 2.143 . S
O179 Co178 2.160 . S
C180 O181 1.278 . S
C180 O188 1.224 . S
O181 C180 1.278 . S
C182 O183 1.245 . S
C182 O194 1.232 . S
O183 C182 1.245 . S
O184 Co178 2.058 . S
O184 C210 1.269 . S
O185 Co177 2.074 . S
O185 C210 1.257 . S
H186 C211 0.930 . S
H187 C217 0.930 . S
O188 Co177 2.093 . S
O188 C180 1.224 . S
H189 C221 0.929 . S
H190 C223 0.930 . S
H191 C224 0.930 . S
H192 C222 0.929 . S
H193 C225 0.928 . S
O194 Co178 2.057 . S
O194 C182 1.232 . S
H195 C214 0.929 . S
H196 C215 0.929 . S
H197 C227 0.931 . S
H198 C219 0.929 . S
H199 C228 0.930 . S
H200 C220 0.931 . S
O201 Co177 2.097 . S
O201 C229 1.214 . S
H202 C230 0.929 . S
H203 C231 0.929 . S
H204 C232 0.930 . S
H205 C233 0.929 . S
H206 C235 0.930 . S
H207 C212 0.930 . S
H208 C216 0.930 . S
O209 Co178 2.037 . S
O209 C229 1.234 . S
C210 O184 1.269 . S
C210 O185 1.257 . S
C211 H186 0.930 . S
C211 C214 1.388 . S
C211 C216 1.418 . S
C212 H207 0.930 . S
C212 C215 1.404 . S
C212 C216 1.353 . S
N213 Co178 2.145 . S
N213 C214 1.397 . S
N213 C215 1.334 . S
C214 H195 0.929 . S
C214 C211 1.388 . S
C214 N213 1.397 . S
C215 H196 0.929 . S
C215 C212 1.404 . S
C215 N213 1.334 . S
C216 H208 0.930 . S
C216 C211 1.418 . S
C216 C212 1.353 . S
C217 H187 0.930 . S
C217 N218 1.330 . S
C217 C219 1.446 . S
N218 Co177 2.151 . S
N218 C217 1.330 . S
N218 C222 1.418 . S
C219 H198 0.929 . S
C219 C217 1.446 . S
C219 C220 1.332 . S
C220 H200 0.931 . S
C220 C219 1.332 . S
C220 C221 1.267 . S
C221 H189 0.929 . S
C221 C220 1.267 . S
C221 C222 1.251 . S
C222 H192 0.929 . S
C222 N218 1.418 . S
C222 C221 1.251 . S
C223 H190 0.930 . S
C223 C225 1.406 . S
C223 C228 1.261 . S
C224 H191 0.930 . S
C224 N226 1.325 . S
C224 C227 1.357 . S
C225 H193 0.928 . S
C225 C223 1.406 . S
C225 N226 1.261 . S
N226 Co177 2.214 . S
N226 C224 1.325 . S
N226 C225 1.261 . S
C227 H197 0.931 . S
C227 C224 1.357 . S
C227 C228 1.312 . S
C228 H199 0.930 . S
C228 C223 1.261 . S
C228 C227 1.312 . S
C229 O201 1.214 . S
C229 O209 1.234 . S
C230 H202 0.929 . S
C230 C233 1.391 . S
C230 C235 1.391 . S
C231 H203 0.929 . S
C231 C232 1.390 . S
C231 N234 1.391 . S
C232 H204 0.930 . S
C232 C231 1.390 . S
C232 C233 1.392 . S
C233 H205 0.929 . S
C233 C230 1.391 . S
C233 C232 1.392 . S
N234 Co178 2.257 . S
N234 C231 1.391 . S
N234 C235 1.388 . S
C235 H206 0.930 . S
C235 C230 1.391 . S
C235 N234 1.388 . S
Co236 O238 2.143 . S
Co236 O244 2.074 . S
Co236 O247 2.093 . S
Co236 O260 2.097 . S
Co236 N277 2.151 . S
Co236 N285 2.214 . S
Co237 O238 2.160 . S
Co237 O243 2.058 . S
Co237 O253 2.057 . S
Co237 O268 2.037 . S
Co237 N272 2.145 . S
Co237 N293 2.257 . S
O238 Co236 2.143 . S
O238 Co237 2.160 . S
C239 O240 1.278 . S
C239 O247 1.224 . S
O240 C239 1.278 . S
C241 O242 1.245 . S
C241 O253 1.232 . S
O242 C241 1.245 . S
O243 Co237 2.058 . S
O243 C269 1.269 . S
O244 Co236 2.074 . S
O244 C269 1.257 . S
H245 C270 0.930 . S
H246 C276 0.930 . S
O247 Co236 2.093 . S
O247 C239 1.224 . S
H248 C280 0.929 . S
H249 C282 0.930 . S
H250 C283 0.930 . S
H251 C281 0.929 . S
H252 C284 0.928 . S
O253 Co237 2.057 . S
O253 C241 1.232 . S
H254 C273 0.922 1_556 S
H255 C274 0.929 1_556 S
H256 C286 0.931 . S
H257 C278 0.929 . S
H258 C287 0.930 . S
H259 C279 0.931 . S
O260 Co236 2.097 . S
O260 C288 1.214 . S
H261 C289 0.929 . S
H262 C290 0.929 . S
H263 C291 0.930 . S
H264 C292 0.929 . S
H265 C294 0.930 . S
H266 C271 0.930 . S
H267 C275 0.930 . S
O268 Co237 2.037 . S
O268 C288 1.234 . S
C269 O243 1.269 . S
C269 O244 1.257 . S
C270 H245 0.930 . S
C270 C273 1.400 . S
C270 C275 1.418 . S
C271 H266 0.930 . S
C271 C274 1.404 . S
C271 C275 1.353 . S
N272 Co237 2.145 . S
N272 C273 1.391 1_556 S
N272 C274 1.334 1_556 S
C273 H254 0.922 1_554 S
C273 C270 1.400 . S
C273 N272 1.391 1_554 S
C274 H255 0.929 1_554 S
C274 C271 1.404 . S
C274 N272 1.334 1_554 S
C275 H267 0.930 . S
C275 C270 1.418 . S
C275 C271 1.353 . S
C276 H246 0.930 . S
C276 N277 1.330 . S
C276 C278 1.446 . S
N277 Co236 2.151 . S
N277 C276 1.330 . S
N277 C281 1.418 . S
C278 H257 0.929 . S
C278 C276 1.446 . S
C278 C279 1.332 . S
C279 H259 0.931 . S
C279 C278 1.332 . S
C279 C280 1.267 . S
C280 H248 0.929 . S
C280 C279 1.267 . S
C280 C281 1.251 . S
C281 H251 0.929 . S
C281 N277 1.418 . S
C281 C280 1.251 . S
C282 H249 0.930 . S
C282 C284 1.406 . S
C282 C287 1.261 . S
C283 H250 0.930 . S
C283 N285 1.325 . S
C283 C286 1.357 . S
C284 H252 0.928 . S
C284 C282 1.406 . S
C284 N285 1.261 . S
N285 Co236 2.214 . S
N285 C283 1.325 . S
N285 C284 1.261 . S
C286 H256 0.931 . S
C286 C283 1.357 . S
C286 C287 1.312 . S
C287 H258 0.930 . S
C287 C282 1.261 . S
C287 C286 1.312 . S
C288 O260 1.214 . S
C288 O268 1.234 . S
C289 H261 0.929 . S
C289 C292 1.391 . S
C289 C294 1.391 . S
C290 H262 0.929 . S
C290 C291 1.390 . S
C290 N293 1.391 . S
C291 H263 0.930 . S
C291 C290 1.390 . S
C291 C292 1.392 . S
C292 H264 0.929 . S
C292 C289 1.391 . S
C292 C291 1.392 . S
N293 Co237 2.257 . S
N293 C290 1.391 . S
N293 C294 1.388 . S
C294 H265 0.930 . S
C294 C289 1.391 . S
C294 N293 1.388 . S
Co295 O297 2.143 . S
Co295 O303 2.074 . S
Co295 O306 2.093 . S
Co295 O319 2.097 . S
Co295 N336 2.151 . S
Co295 N344 2.214 . S
Co296 O297 2.160 . S
Co296 O302 2.058 . S
Co296 O312 2.057 . S
Co296 O327 2.037 . S
Co296 N331 2.145 . S
Co296 N352 2.257 . S
O297 Co295 2.143 . S
O297 Co296 2.160 . S
C298 O299 1.278 . S
C298 O306 1.224 . S
O299 C298 1.278 . S
C300 O301 1.245 . S
C300 O312 1.232 . S
O301 C300 1.245 . S
O302 Co296 2.058 . S
O302 C328 1.269 . S
O303 Co295 2.074 . S
O303 C328 1.257 . S
H304 C329 0.930 . S
H305 C335 0.930 . S
O306 Co295 2.093 . S
O306 C298 1.224 . S
H307 C339 0.929 . S
H308 C341 0.930 . S
H309 C342 0.930 . S
H310 C340 0.929 . S
H311 C343 0.928 . S
O312 Co296 2.057 . S
O312 C300 1.232 . S
H313 C332 0.929 . S
H314 C333 0.929 . S
H315 C345 0.931 . S
H316 C337 0.929 . S
H317 C346 0.930 . S
H318 C338 0.931 . S
O319 Co295 2.097 . S
O319 C347 1.214 . S
H320 C348 0.929 . S
H321 C349 0.929 . S
H322 C350 0.930 . S
H323 C351 0.929 . S
H324 C353 0.930 . S
H325 C330 0.930 . S
H326 C334 0.930 . S
O327 Co296 2.037 . S
O327 C347 1.234 . S
C328 O302 1.269 . S
C328 O303 1.257 . S
C329 H304 0.930 . S
C329 C332 1.388 . S
C329 C334 1.418 . S
C330 H325 0.930 . S
C330 C333 1.404 . S
C330 C334 1.353 . S
N331 Co296 2.145 . S
N331 C332 1.397 . S
N331 C333 1.334 . S
C332 H313 0.929 . S
C332 C329 1.388 . S
C332 N331 1.397 . S
C333 H314 0.929 . S
C333 C330 1.404 . S
C333 N331 1.334 . S
C334 H326 0.930 . S
C334 C329 1.418 . S
C334 C330 1.353 . S
C335 H305 0.930 . S
C335 N336 1.330 . S
C335 C337 1.446 . S
N336 Co295 2.151 . S
N336 C335 1.330 . S
N336 C340 1.418 . S
C337 H316 0.929 . S
C337 C335 1.446 . S
C337 C338 1.332 . S
C338 H318 0.931 . S
C338 C337 1.332 . S
C338 C339 1.267 . S
C339 H307 0.929 . S
C339 C338 1.267 . S
C339 C340 1.251 . S
C340 H310 0.929 . S
C340 N336 1.418 . S
C340 C339 1.251 . S
C341 H308 0.930 . S
C341 C343 1.406 . S
C341 C346 1.261 . S
C342 H309 0.930 . S
C342 N344 1.325 . S
C342 C345 1.357 . S
C343 H311 0.928 . S
C343 C341 1.406 . S
C343 N344 1.261 . S
N344 Co295 2.214 . S
N344 C342 1.325 . S
N344 C343 1.261 . S
C345 H315 0.931 . S
C345 C342 1.357 . S
C345 C346 1.312 . S
C346 H317 0.930 . S
C346 C341 1.261 . S
C346 C345 1.312 . S
C347 O319 1.214 . S
C347 O327 1.234 . S
C348 H320 0.929 . S
C348 C351 1.391 . S
C348 C353 1.391 . S
C349 H321 0.929 . S
C349 C350 1.390 . S
C349 N352 1.391 . S
C350 H322 0.930 . S
C350 C349 1.390 . S
C350 C351 1.392 . S
C351 H323 0.929 . S
C351 C348 1.391 . S
C351 C350 1.392 . S
N352 Co296 2.257 . S
N352 C349 1.391 . S
N352 C353 1.388 . S
C353 H324 0.930 . S
C353 C348 1.391 . S
C353 N352 1.388 . S
Co354 O356 2.143 . S
Co354 O362 2.074 . S
Co354 O365 2.093 . S
Co354 O378 2.097 . S
Co354 N395 2.151 . S
Co354 N403 2.214 . S
Co355 O356 2.160 . S
Co355 O361 2.058 . S
Co355 O371 2.057 . S
Co355 O386 2.037 . S
Co355 N390 2.145 . S
Co355 N411 2.257 . S
O356 Co354 2.143 . S
O356 Co355 2.160 . S
C357 O358 1.278 . S
C357 O365 1.224 . S
O358 C357 1.278 . S
C359 O360 1.245 . S
C359 O371 1.232 . S
O360 C359 1.245 . S
O361 Co355 2.058 . S
O361 C387 1.269 . S
O362 Co354 2.074 . S
O362 C387 1.257 . S
H363 C388 0.930 . S
H364 C394 0.930 . S
O365 Co354 2.093 . S
O365 C357 1.224 . S
H366 C398 0.929 . S
H367 C400 0.930 . S
H368 C401 0.930 . S
H369 C399 0.929 . S
H370 C402 0.928 . S
O371 Co355 2.057 . S
O371 C359 1.232 . S
H372 C391 0.922 1_554 S
H373 C392 0.929 1_554 S
H374 C404 0.931 . S
H375 C396 0.929 . S
H376 C405 0.930 . S
H377 C397 0.931 . S
O378 Co354 2.097 . S
O378 C406 1.214 . S
H379 C407 0.929 . S
H380 C408 0.929 . S
H381 C409 0.930 . S
H382 C410 0.929 . S
H383 C412 0.930 . S
H384 C389 0.930 . S
H385 C393 0.930 . S
O386 Co355 2.037 . S
O386 C406 1.234 . S
C387 O361 1.269 . S
C387 O362 1.257 . S
C388 H363 0.930 . S
C388 C391 1.400 . S
C388 C393 1.418 . S
C389 H384 0.930 . S
C389 C392 1.404 . S
C389 C393 1.353 . S
N390 Co355 2.145 . S
N390 C391 1.391 1_554 S
N390 C392 1.334 1_554 S
C391 H372 0.922 1_556 S
C391 C388 1.400 . S
C391 N390 1.391 1_556 S
C392 H373 0.929 1_556 S
C392 C389 1.404 . S
C392 N390 1.334 1_556 S
C393 H385 0.930 . S
C393 C388 1.418 . S
C393 C389 1.353 . S
C394 H364 0.930 . S
C394 N395 1.330 . S
C394 C396 1.446 . S
N395 Co354 2.151 . S
N395 C394 1.330 . S
N395 C399 1.418 . S
C396 H375 0.929 . S
C396 C394 1.446 . S
C396 C397 1.332 . S
C397 H377 0.931 . S
C397 C396 1.332 . S
C397 C398 1.267 . S
C398 H366 0.929 . S
C398 C397 1.267 . S
C398 C399 1.251 . S
C399 H369 0.929 . S
C399 N395 1.418 . S
C399 C398 1.251 . S
C400 H367 0.930 . S
C400 C402 1.406 . S
C400 C405 1.261 . S
C401 H368 0.930 . S
C401 N403 1.325 . S
C401 C404 1.357 . S
C402 H370 0.928 . S
C402 C400 1.406 . S
C402 N403 1.261 . S
N403 Co354 2.214 . S
N403 C401 1.325 . S
N403 C402 1.261 . S
C404 H374 0.931 . S
C404 C401 1.357 . S
C404 C405 1.312 . S
C405 H376 0.930 . S
C405 C400 1.261 . S
C405 C404 1.312 . S
C406 O378 1.214 . S
C406 O386 1.234 . S
C407 H379 0.929 . S
C407 C410 1.391 . S
C407 C412 1.391 . S
C408 H380 0.929 . S
C408 C409 1.390 . S
C408 N411 1.391 . S
C409 H381 0.930 . S
C409 C408 1.390 . S
C409 C410 1.392 . S
C410 H382 0.929 . S
C410 C407 1.391 . S
C410 C409 1.392 . S
N411 Co355 2.257 . S
N411 C408 1.391 . S
N411 C412 1.388 . S
C412 H383 0.930 . S
C412 C407 1.391 . S
C412 N411 1.388 . S
Co413 O415 2.143 . S
Co413 O421 2.074 . S
Co413 O424 2.093 . S
Co413 O437 2.097 . S
Co413 N454 2.151 . S
Co413 N462 2.214 . S
Co414 O415 2.160 . S
Co414 O420 2.058 . S
Co414 O430 2.057 . S
Co414 O445 2.037 . S
Co414 N449 2.145 . S
Co414 N470 2.257 . S
O415 Co413 2.143 . S
O415 Co414 2.160 . S
C416 O417 1.278 . S
C416 O424 1.224 . S
O417 C416 1.278 . S
C418 O419 1.245 . S
C418 O430 1.232 . S
O419 C418 1.245 . S
O420 Co414 2.058 . S
O420 C446 1.269 . S
O421 Co413 2.074 . S
O421 C446 1.257 . S
H422 C447 0.930 . S
H423 C453 0.930 . S
O424 Co413 2.093 . S
O424 C416 1.224 . S
H425 C457 0.929 . S
H426 C459 0.930 . S
H427 C460 0.930 . S
H428 C458 0.929 . S
H429 C461 0.928 . S
O430 Co414 2.057 . S
O430 C418 1.232 . S
H431 C450 0.929 . S
H432 C451 0.929 . S
H433 C463 0.931 . S
H434 C455 0.929 . S
H435 C464 0.930 . S
H436 C456 0.931 . S
O437 Co413 2.097 . S
O437 C465 1.214 . S
H438 C466 0.929 . S
H439 C467 0.929 . S
H440 C468 0.930 . S
H441 C469 0.929 . S
H442 C471 0.930 . S
H443 C448 0.930 . S
H444 C452 0.930 . S
O445 Co414 2.037 . S
O445 C465 1.234 . S
C446 O420 1.269 . S
C446 O421 1.257 . S
C447 H422 0.930 . S
C447 C450 1.388 . S
C447 C452 1.418 . S
C448 H443 0.930 . S
C448 C451 1.404 . S
C448 C452 1.353 . S
N449 Co414 2.145 . S
N449 C450 1.397 . S
N449 C451 1.334 . S
C450 H431 0.929 . S
C450 C447 1.388 . S
C450 N449 1.397 . S
C451 H432 0.929 . S
C451 C448 1.404 . S
C451 N449 1.334 . S
C452 H444 0.930 . S
C452 C447 1.418 . S
C452 C448 1.353 . S
C453 H423 0.930 . S
C453 N454 1.330 . S
C453 C455 1.446 . S
N454 Co413 2.151 . S
N454 C453 1.330 . S
N454 C458 1.418 . S
C455 H434 0.929 . S
C455 C453 1.446 . S
C455 C456 1.332 . S
C456 H436 0.931 . S
C456 C455 1.332 . S
C456 C457 1.267 . S
C457 H425 0.929 . S
C457 C456 1.267 . S
C457 C458 1.251 . S
C458 H428 0.929 . S
C458 N454 1.418 . S
C458 C457 1.251 . S
C459 H426 0.930 . S
C459 C461 1.406 . S
C459 C464 1.261 . S
C460 H427 0.930 . S
C460 N462 1.325 . S
C460 C463 1.357 . S
C461 H429 0.928 . S
C461 C459 1.406 . S
C461 N462 1.261 . S
N462 Co413 2.214 . S
N462 C460 1.325 . S
N462 C461 1.261 . S
C463 H433 0.931 . S
C463 C460 1.357 . S
C463 C464 1.312 . S
C464 H435 0.930 . S
C464 C459 1.261 . S
C464 C463 1.312 . S
C465 O437 1.214 . S
C465 O445 1.234 . S
C466 H438 0.929 . S
C466 C469 1.391 . S
C466 C471 1.391 . S
C467 H439 0.929 . S
C467 C468 1.390 . S
C467 N470 1.391 . S
C468 H440 0.930 . S
C468 C467 1.390 . S
C468 C469 1.392 . S
C469 H441 0.929 . S
C469 C466 1.391 . S
C469 C468 1.392 . S
N470 Co414 2.257 . S
N470 C467 1.391 . S
N470 C471 1.388 . S
C471 H442 0.930 . S
C471 C466 1.391 . S
C471 N470 1.388 . S
Co472 O474 2.143 . S
Co472 O480 2.074 . S
Co472 O483 2.093 . S
Co472 O496 2.097 . S
Co472 N513 2.151 . S
Co472 N521 2.214 . S
Co473 O474 2.160 . S
Co473 O479 2.058 . S
Co473 O489 2.057 . S
Co473 O504 2.037 . S
Co473 N508 2.145 . S
Co473 N529 2.257 . S
O474 Co472 2.143 . S
O474 Co473 2.160 . S
C475 O476 1.278 . S
C475 O483 1.224 . S
O476 C475 1.278 . S
C477 O478 1.245 . S
C477 O489 1.232 . S
O478 C477 1.245 . S
O479 Co473 2.058 . S
O479 C505 1.269 . S
O480 Co472 2.074 . S
O480 C505 1.257 . S
H481 C506 0.930 . S
H482 C512 0.930 . S
O483 Co472 2.093 . S
O483 C475 1.224 . S
H484 C516 0.929 . S
H485 C518 0.930 . S
H486 C519 0.930 . S
H487 C517 0.929 . S
H488 C520 0.928 . S
O489 Co473 2.057 . S
O489 C477 1.232 . S
H490 C509 0.929 . S
H491 C510 0.929 . S
H492 C522 0.931 . S
H493 C514 0.929 . S
H494 C523 0.930 . S
H495 C515 0.931 . S
O496 Co472 2.097 . S
O496 C524 1.214 . S
H497 C525 0.929 . S
H498 C526 0.929 . S
H499 C527 0.930 . S
H500 C528 0.929 . S
H501 C530 0.930 . S
H502 C507 0.930 . S
H503 C511 0.930 . S
O504 Co473 2.037 . S
O504 C524 1.234 . S
C505 O479 1.269 . S
C505 O480 1.257 . S
C506 H481 0.930 . S
C506 C509 1.388 . S
C506 C511 1.418 . S
C507 H502 0.930 . S
C507 C510 1.404 . S
C507 C511 1.353 . S
N508 Co473 2.145 . S
N508 C509 1.397 . S
N508 C510 1.334 . S
C509 H490 0.929 . S
C509 C506 1.388 . S
C509 N508 1.397 . S
C510 H491 0.929 . S
C510 C507 1.404 . S
C510 N508 1.334 . S
C511 H503 0.930 . S
C511 C506 1.418 . S
C511 C507 1.353 . S
C512 H482 0.930 . S
C512 N513 1.330 . S
C512 C514 1.446 . S
N513 Co472 2.151 . S
N513 C512 1.330 . S
N513 C517 1.418 . S
C514 H493 0.929 . S
C514 C512 1.446 . S
C514 C515 1.332 . S
C515 H495 0.931 . S
C515 C514 1.332 . S
C515 C516 1.267 . S
C516 H484 0.929 . S
C516 C515 1.267 . S
C516 C517 1.251 . S
C517 H487 0.929 . S
C517 N513 1.418 . S
C517 C516 1.251 . S
C518 H485 0.930 . S
C518 C520 1.406 . S
C518 C523 1.261 . S
C519 H486 0.930 . S
C519 N521 1.325 . S
C519 C522 1.357 . S
C520 H488 0.928 . S
C520 C518 1.406 . S
C520 N521 1.261 . S
N521 Co472 2.214 . S
N521 C519 1.325 . S
N521 C520 1.261 . S
C522 H492 0.931 . S
C522 C519 1.357 . S
C522 C523 1.312 . S
C523 H494 0.930 . S
C523 C518 1.261 . S
C523 C522 1.312 . S
C524 O496 1.214 . S
C524 O504 1.234 . S
C525 H497 0.929 . S
C525 C528 1.391 . S
C525 C530 1.391 1_556 S
C526 H498 0.929 . S
C526 C527 1.390 1_554 S
C526 N529 1.391 . S
C527 H499 0.930 . S
C527 C526 1.390 1_556 S
C527 C528 1.392 . S
C528 H500 0.929 . S
C528 C525 1.391 . S
C528 C527 1.392 . S
N529 Co473 2.257 . S
N529 C526 1.391 . S
N529 C530 1.388 . S
C530 H501 0.930 . S
C530 C525 1.391 1_554 S
C530 N529 1.388 . S
Co531 O533 2.143 . S
Co531 O539 2.074 . S
Co531 O542 2.093 . S
Co531 O555 2.097 . S
Co531 N572 2.151 . S
Co531 N580 2.214 . S
Co532 O533 2.160 . S
Co532 O538 2.058 . S
Co532 O548 2.057 . S
Co532 O563 2.037 . S
Co532 N567 2.145 . S
Co532 N588 2.257 . S
O533 Co531 2.143 . S
O533 Co532 2.160 . S
C534 O535 1.278 . S
C534 O542 1.224 . S
O535 C534 1.278 . S
C536 O537 1.245 . S
C536 O548 1.232 . S
O537 C536 1.245 . S
O538 Co532 2.058 . S
O538 C564 1.269 . S
O539 Co531 2.074 . S
O539 C564 1.257 . S
H540 C565 0.930 . S
H541 C571 0.930 . S
O542 Co531 2.093 . S
O542 C534 1.224 . S
H543 C575 0.929 . S
H544 C577 0.930 . S
H545 C578 0.930 . S
H546 C576 0.929 . S
H547 C579 0.928 . S
O548 Co532 2.057 . S
O548 C536 1.232 . S
H549 C568 0.929 . S
H550 C569 0.929 . S
H551 C581 0.931 . S
H552 C573 0.929 . S
H553 C582 0.930 . S
H554 C574 0.931 . S
O555 Co531 2.097 . S
O555 C583 1.214 . S
H556 C584 0.929 . S
H557 C585 0.929 . S
H558 C586 0.930 . S
H559 C587 0.929 . S
H560 C589 0.930 . S
H561 C566 0.930 . S
H562 C570 0.930 . S
O563 Co532 2.037 . S
O563 C583 1.234 . S
C564 O538 1.269 . S
C564 O539 1.257 . S
C565 H540 0.930 . S
C565 C568 1.388 . S
C565 C570 1.418 . S
C566 H561 0.930 . S
C566 C569 1.404 . S
C566 C570 1.353 . S
N567 Co532 2.145 . S
N567 C568 1.397 . S
N567 C569 1.334 . S
C568 H549 0.929 . S
C568 C565 1.388 . S
C568 N567 1.397 . S
C569 H550 0.929 . S
C569 C566 1.404 . S
C569 N567 1.334 . S
C570 H562 0.930 . S
C570 C565 1.418 . S
C570 C566 1.353 . S
C571 H541 0.930 . S
C571 N572 1.330 . S
C571 C573 1.446 . S
N572 Co531 2.151 . S
N572 C571 1.330 . S
N572 C576 1.418 . S
C573 H552 0.929 . S
C573 C571 1.446 . S
C573 C574 1.332 . S
C574 H554 0.931 . S
C574 C573 1.332 . S
C574 C575 1.267 . S
C575 H543 0.929 . S
C575 C574 1.267 . S
C575 C576 1.251 . S
C576 H546 0.929 . S
C576 N572 1.418 . S
C576 C575 1.251 . S
C577 H544 0.930 . S
C577 C579 1.406 . S
C577 C582 1.261 . S
C578 H545 0.930 . S
C578 N580 1.325 . S
C578 C581 1.357 . S
C579 H547 0.928 . S
C579 C577 1.406 . S
C579 N580 1.261 . S
N580 Co531 2.214 . S
N580 C578 1.325 . S
N580 C579 1.261 . S
C581 H551 0.931 . S
C581 C578 1.357 . S
C581 C582 1.312 . S
C582 H553 0.930 . S
C582 C577 1.261 . S
C582 C581 1.312 . S
C583 O555 1.214 . S
C583 O563 1.234 . S
C584 H556 0.929 . S
C584 C587 1.391 . S
C584 C589 1.391 . S
C585 H557 0.929 . S
C585 C586 1.390 . S
C585 N588 1.391 . S
C586 H558 0.930 . S
C586 C585 1.390 . S
C586 C587 1.392 . S
C587 H559 0.929 . S
C587 C584 1.391 . S
C587 C586 1.392 . S
N588 Co532 2.257 . S
N588 C585 1.391 . S
N588 C589 1.388 . S
C589 H560 0.930 . S
C589 C584 1.391 . S
C589 N588 1.388 . S
Co590 O592 2.143 . S
Co590 O598 2.074 . S
Co590 O601 2.093 . S
Co590 O614 2.097 . S
Co590 N631 2.151 . S
Co590 N639 2.214 . S
Co591 O592 2.160 . S
Co591 O597 2.058 . S
Co591 O607 2.057 . S
Co591 O622 2.037 . S
Co591 N626 2.145 . S
Co591 N647 2.257 . S
O592 Co590 2.143 . S
O592 Co591 2.160 . S
C593 O594 1.278 . S
C593 O601 1.224 . S
O594 C593 1.278 . S
C595 O596 1.245 . S
C595 O607 1.232 . S
O596 C595 1.245 . S
O597 Co591 2.058 . S
O597 C623 1.269 . S
O598 Co590 2.074 . S
O598 C623 1.257 . S
H599 C624 0.930 . S
H600 C630 0.930 . S
O601 Co590 2.093 . S
O601 C593 1.224 . S
H602 C634 0.929 . S
H603 C636 0.930 . S
H604 C637 0.930 . S
H605 C635 0.929 . S
H606 C638 0.928 . S
O607 Co591 2.057 . S
O607 C595 1.232 . S
H608 C627 0.929 . S
H609 C628 0.929 . S
H610 C640 0.931 . S
H611 C632 0.929 . S
H612 C641 0.930 . S
H613 C633 0.931 . S
O614 Co590 2.097 . S
O614 C642 1.214 . S
H615 C643 0.929 . S
H616 C644 0.929 . S
H617 C645 0.930 . S
H618 C646 0.929 . S
H619 C648 0.930 . S
H620 C625 0.930 . S
H621 C629 0.930 . S
O622 Co591 2.037 . S
O622 C642 1.234 . S
C623 O597 1.269 . S
C623 O598 1.257 . S
C624 H599 0.930 . S
C624 C627 1.388 . S
C624 C629 1.418 . S
C625 H620 0.930 . S
C625 C628 1.404 . S
C625 C629 1.353 . S
N626 Co591 2.145 . S
N626 C627 1.397 . S
N626 C628 1.334 . S
C627 H608 0.929 . S
C627 C624 1.388 . S
C627 N626 1.397 . S
C628 H609 0.929 . S
C628 C625 1.404 . S
C628 N626 1.334 . S
C629 H621 0.930 . S
C629 C624 1.418 . S
C629 C625 1.353 . S
C630 H600 0.930 . S
C630 N631 1.330 . S
C630 C632 1.446 . S
N631 Co590 2.151 . S
N631 C630 1.330 . S
N631 C635 1.418 . S
C632 H611 0.929 . S
C632 C630 1.446 . S
C632 C633 1.332 . S
C633 H613 0.931 . S
C633 C632 1.332 . S
C633 C634 1.267 . S
C634 H602 0.929 . S
C634 C633 1.267 . S
C634 C635 1.251 . S
C635 H605 0.929 . S
C635 N631 1.418 . S
C635 C634 1.251 . S
C636 H603 0.930 . S
C636 C638 1.406 . S
C636 C641 1.261 . S
C637 H604 0.930 . S
C637 N639 1.325 . S
C637 C640 1.357 . S
C638 H606 0.928 . S
C638 C636 1.406 . S
C638 N639 1.261 . S
N639 Co590 2.214 . S
N639 C637 1.325 . S
N639 C638 1.261 . S
C640 H610 0.931 . S
C640 C637 1.357 . S
C640 C641 1.312 . S
C641 H612 0.930 . S
C641 C636 1.261 . S
C641 C640 1.312 . S
C642 O614 1.214 . S
C642 O622 1.234 . S
C643 H615 0.929 . S
C643 C646 1.391 . S
C643 C648 1.391 1_554 S
C644 H616 0.929 . S
C644 C645 1.390 1_556 S
C644 N647 1.391 . S
C645 H617 0.930 . S
C645 C644 1.390 1_554 S
C645 C646 1.392 . S
C646 H618 0.929 . S
C646 C643 1.391 . S
C646 C645 1.392 . S
N647 Co591 2.257 . S
N647 C644 1.391 . S
N647 C648 1.388 . S
C648 H619 0.930 . S
C648 C643 1.391 1_556 S
C648 N647 1.388 . S
Co649 O651 2.143 . S
Co649 O657 2.074 . S
Co649 O660 2.093 . S
Co649 O673 2.097 . S
Co649 N690 2.151 . S
Co649 N698 2.214 . S
Co650 O651 2.160 . S
Co650 O656 2.058 . S
Co650 O666 2.057 . S
Co650 O681 2.037 . S
Co650 N685 2.145 . S
Co650 N706 2.257 . S
O651 Co649 2.143 . S
O651 Co650 2.160 . S
C652 O653 1.278 . S
C652 O660 1.224 . S
O653 C652 1.278 . S
C654 O655 1.245 . S
C654 O666 1.232 . S
O655 C654 1.245 . S
O656 Co650 2.058 . S
O656 C682 1.269 . S
O657 Co649 2.074 . S
O657 C682 1.257 . S
H658 C683 0.930 . S
H659 C689 0.930 . S
O660 Co649 2.093 . S
O660 C652 1.224 . S
H661 C693 0.929 . S
H662 C695 0.930 . S
H663 C696 0.930 . S
H664 C694 0.929 . S
H665 C697 0.928 . S
O666 Co650 2.057 . S
O666 C654 1.232 . S
H667 C686 0.929 . S
H668 C687 0.929 . S
H669 C699 0.931 . S
H670 C691 0.929 . S
H671 C700 0.930 . S
H672 C692 0.931 . S
O673 Co649 2.097 . S
O673 C701 1.214 . S
H674 C702 0.929 . S
H675 C703 0.929 . S
H676 C704 0.930 . S
H677 C705 0.929 . S
H678 C707 0.930 . S
H679 C684 0.930 . S
H680 C688 0.930 . S
O681 Co650 2.037 . S
O681 C701 1.234 . S
C682 O656 1.269 . S
C682 O657 1.257 . S
C683 H658 0.930 . S
C683 C686 1.388 . S
C683 C688 1.418 . S
C684 H679 0.930 . S
C684 C687 1.404 . S
C684 C688 1.353 . S
N685 Co650 2.145 . S
N685 C686 1.397 . S
N685 C687 1.334 . S
C686 H667 0.929 . S
C686 C683 1.388 . S
C686 N685 1.397 . S
C687 H668 0.929 . S
C687 C684 1.404 . S
C687 N685 1.334 . S
C688 H680 0.930 . S
C688 C683 1.418 . S
C688 C684 1.353 . S
C689 H659 0.930 . S
C689 N690 1.330 . S
C689 C691 1.446 . S
N690 Co649 2.151 . S
N690 C689 1.330 . S
N690 C694 1.418 . S
C691 H670 0.929 . S
C691 C689 1.446 . S
C691 C692 1.332 . S
C692 H672 0.931 . S
C692 C691 1.332 . S
C692 C693 1.267 . S
C693 H661 0.929 . S
C693 C692 1.267 . S
C693 C694 1.251 . S
C694 H664 0.929 . S
C694 N690 1.418 . S
C694 C693 1.251 . S
C695 H662 0.930 . S
C695 C697 1.406 . S
C695 C700 1.261 . S
C696 H663 0.930 . S
C696 N698 1.325 . S
C696 C699 1.357 . S
C697 H665 0.928 . S
C697 C695 1.406 . S
C697 N698 1.261 . S
N698 Co649 2.214 . S
N698 C696 1.325 . S
N698 C697 1.261 . S
C699 H669 0.931 . S
C699 C696 1.357 . S
C699 C700 1.312 . S
C700 H671 0.930 . S
C700 C695 1.261 . S
C700 C699 1.312 . S
C701 O673 1.214 . S
C701 O681 1.234 . S
C702 H674 0.929 . S
C702 C705 1.391 . S
C702 C707 1.391 . S
C703 H675 0.929 . S
C703 C704 1.390 . S
C703 N706 1.391 . S
C704 H676 0.930 . S
C704 C703 1.390 . S
C704 C705 1.392 . S
C705 H677 0.929 . S
C705 C702 1.391 . S
C705 C704 1.392 . S
N706 Co650 2.257 . S
N706 C703 1.391 . S
N706 C707 1.388 . S
C707 H678 0.930 . S
C707 C702 1.391 . S
C707 N706 1.388 . S
Co708 O710 2.143 . S
Co708 O716 2.074 . S
Co708 O719 2.093 . S
Co708 O732 2.097 . S
Co708 N749 2.151 . S
Co708 N757 2.214 . S
Co709 O710 2.160 . S
Co709 O715 2.058 . S
Co709 O725 2.057 . S
Co709 O740 2.037 . S
Co709 N744 2.145 . S
Co709 N765 2.257 . S
O710 Co708 2.143 . S
O710 Co709 2.160 . S
C711 O712 1.278 . S
C711 O719 1.224 . S
O712 C711 1.278 . S
C713 O714 1.245 . S
C713 O725 1.232 . S
O714 C713 1.245 . S
O715 Co709 2.058 . S
O715 C741 1.269 . S
O716 Co708 2.074 . S
O716 C741 1.257 . S
H717 C742 0.930 . S
H718 C748 0.930 . S
O719 Co708 2.093 . S
O719 C711 1.224 . S
H720 C752 0.929 . S
H721 C754 0.930 . S
H722 C755 0.930 . S
H723 C753 0.929 . S
H724 C756 0.928 . S
O725 Co709 2.057 . S
O725 C713 1.232 . S
H726 C745 0.922 1_556 S
H727 C746 0.929 1_556 S
H728 C758 0.931 . S
H729 C750 0.929 . S
H730 C759 0.930 . S
H731 C751 0.931 . S
O732 Co708 2.097 . S
O732 C760 1.214 . S
H733 C761 0.929 . S
H734 C762 0.929 . S
H735 C763 0.930 . S
H736 C764 0.929 . S
H737 C766 0.930 . S
H738 C743 0.930 . S
H739 C747 0.930 . S
O740 Co709 2.037 . S
O740 C760 1.234 . S
C741 O715 1.269 . S
C741 O716 1.257 . S
C742 H717 0.930 . S
C742 C745 1.400 . S
C742 C747 1.418 . S
C743 H738 0.930 . S
C743 C746 1.404 . S
C743 C747 1.353 . S
N744 Co709 2.145 . S
N744 C745 1.391 1_556 S
N744 C746 1.334 1_556 S
C745 H726 0.922 1_554 S
C745 C742 1.400 . S
C745 N744 1.391 1_554 S
C746 H727 0.929 1_554 S
C746 C743 1.404 . S
C746 N744 1.334 1_554 S
C747 H739 0.930 . S
C747 C742 1.418 . S
C747 C743 1.353 . S
C748 H718 0.930 . S
C748 N749 1.330 . S
C748 C750 1.446 . S
N749 Co708 2.151 . S
N749 C748 1.330 . S
N749 C753 1.418 . S
C750 H729 0.929 . S
C750 C748 1.446 . S
C750 C751 1.332 . S
C751 H731 0.931 . S
C751 C750 1.332 . S
C751 C752 1.267 . S
C752 H720 0.929 . S
C752 C751 1.267 . S
C752 C753 1.251 . S
C753 H723 0.929 . S
C753 N749 1.418 . S
C753 C752 1.251 . S
C754 H721 0.930 . S
C754 C756 1.406 . S
C754 C759 1.261 . S
C755 H722 0.930 . S
C755 N757 1.325 . S
C755 C758 1.357 . S
C756 H724 0.928 . S
C756 C754 1.406 . S
C756 N757 1.261 . S
N757 Co708 2.214 . S
N757 C755 1.325 . S
N757 C756 1.261 . S
C758 H728 0.931 . S
C758 C755 1.357 . S
C758 C759 1.312 . S
C759 H730 0.930 . S
C759 C754 1.261 . S
C759 C758 1.312 . S
C760 O732 1.214 . S
C760 O740 1.234 . S
C761 H733 0.929 . S
C761 C764 1.391 . S
C761 C766 1.391 . S
C762 H734 0.929 . S
C762 C763 1.390 . S
C762 N765 1.391 . S
C763 H735 0.930 . S
C763 C762 1.390 . S
C763 C764 1.392 . S
C764 H736 0.929 . S
C764 C761 1.391 . S
C764 C763 1.392 . S
N765 Co709 2.257 . S
N765 C762 1.391 . S
N765 C766 1.388 . S
C766 H737 0.930 . S
C766 C761 1.391 . S
C766 N765 1.388 . S
Co767 O769 2.143 . S
Co767 O775 2.074 . S
Co767 O778 2.093 . S
Co767 O791 2.097 . S
Co767 N808 2.151 . S
Co767 N816 2.214 . S
Co768 O769 2.160 . S
Co768 O774 2.058 . S
Co768 O784 2.057 . S
Co768 O799 2.037 . S
Co768 N803 2.145 . S
Co768 N824 2.257 . S
O769 Co767 2.143 . S
O769 Co768 2.160 . S
C770 O771 1.278 . S
C770 O778 1.224 . S
O771 C770 1.278 . S
C772 O773 1.245 . S
C772 O784 1.232 . S
O773 C772 1.245 . S
O774 Co768 2.058 . S
O774 C800 1.269 . S
O775 Co767 2.074 . S
O775 C800 1.257 . S
H776 C801 0.930 . S
H777 C807 0.930 . S
O778 Co767 2.093 . S
O778 C770 1.224 . S
H779 C811 0.929 . S
H780 C813 0.930 . S
H781 C814 0.930 . S
H782 C812 0.929 . S
H783 C815 0.928 . S
O784 Co768 2.057 . S
O784 C772 1.232 . S
H785 C804 0.929 . S
H786 C805 0.929 . S
H787 C817 0.931 . S
H788 C809 0.929 . S
H789 C818 0.930 . S
H790 C810 0.931 . S
O791 Co767 2.097 . S
O791 C819 1.214 . S
H792 C820 0.929 . S
H793 C821 0.929 . S
H794 C822 0.930 . S
H795 C823 0.929 . S
H796 C825 0.930 . S
H797 C802 0.930 . S
H798 C806 0.930 . S
O799 Co768 2.037 . S
O799 C819 1.234 . S
C800 O774 1.269 . S
C800 O775 1.257 . S
C801 H776 0.930 . S
C801 C804 1.388 . S
C801 C806 1.418 . S
C802 H797 0.930 . S
C802 C805 1.404 . S
C802 C806 1.353 . S
N803 Co768 2.145 . S
N803 C804 1.397 . S
N803 C805 1.334 . S
C804 H785 0.929 . S
C804 C801 1.388 . S
C804 N803 1.397 . S
C805 H786 0.929 . S
C805 C802 1.404 . S
C805 N803 1.334 . S
C806 H798 0.930 . S
C806 C801 1.418 . S
C806 C802 1.353 . S
C807 H777 0.930 . S
C807 N808 1.330 . S
C807 C809 1.446 . S
N808 Co767 2.151 . S
N808 C807 1.330 . S
N808 C812 1.418 . S
C809 H788 0.929 . S
C809 C807 1.446 . S
C809 C810 1.332 . S
C810 H790 0.931 . S
C810 C809 1.332 . S
C810 C811 1.267 . S
C811 H779 0.929 . S
C811 C810 1.267 . S
C811 C812 1.251 . S
C812 H782 0.929 . S
C812 N808 1.418 . S
C812 C811 1.251 . S
C813 H780 0.930 . S
C813 C815 1.406 . S
C813 C818 1.261 . S
C814 H781 0.930 . S
C814 N816 1.325 . S
C814 C817 1.357 . S
C815 H783 0.928 . S
C815 C813 1.406 . S
C815 N816 1.261 . S
N816 Co767 2.214 . S
N816 C814 1.325 . S
N816 C815 1.261 . S
C817 H787 0.931 . S
C817 C814 1.357 . S
C817 C818 1.312 . S
C818 H789 0.930 . S
C818 C813 1.261 . S
C818 C817 1.312 . S
C819 O791 1.214 . S
C819 O799 1.234 . S
C820 H792 0.929 . S
C820 C823 1.391 . S
C820 C825 1.391 . S
C821 H793 0.929 . S
C821 C822 1.390 . S
C821 N824 1.391 . S
C822 H794 0.930 . S
C822 C821 1.390 . S
C822 C823 1.392 . S
C823 H795 0.929 . S
C823 C820 1.391 . S
C823 C822 1.392 . S
N824 Co768 2.257 . S
N824 C821 1.391 . S
N824 C825 1.388 . S
C825 H796 0.930 . S
C825 C820 1.391 . S
C825 N824 1.388 . S
Co826 O828 2.143 . S
Co826 O834 2.074 . S
Co826 O837 2.093 . S
Co826 O850 2.097 . S
Co826 N867 2.151 . S
Co826 N875 2.214 . S
Co827 O828 2.160 . S
Co827 O833 2.058 . S
Co827 O843 2.057 . S
Co827 O858 2.037 . S
Co827 N862 2.145 . S
Co827 N883 2.257 . S
O828 Co826 2.143 . S
O828 Co827 2.160 . S
C829 O830 1.278 . S
C829 O837 1.224 . S
O830 C829 1.278 . S
C831 O832 1.245 . S
C831 O843 1.232 . S
O832 C831 1.245 . S
O833 Co827 2.058 . S
O833 C859 1.269 . S
O834 Co826 2.074 . S
O834 C859 1.257 . S
H835 C860 0.930 . S
H836 C866 0.930 . S
O837 Co826 2.093 . S
O837 C829 1.224 . S
H838 C870 0.929 . S
H839 C872 0.930 . S
H840 C873 0.930 . S
H841 C871 0.929 . S
H842 C874 0.928 . S
O843 Co827 2.057 . S
O843 C831 1.232 . S
H844 C863 0.922 1_554 S
H845 C864 0.929 1_554 S
H846 C876 0.931 . S
H847 C868 0.929 . S
H848 C877 0.930 . S
H849 C869 0.931 . S
O850 Co826 2.097 . S
O850 C878 1.214 . S
H851 C879 0.929 . S
H852 C880 0.929 . S
H853 C881 0.930 . S
H854 C882 0.929 . S
H855 C884 0.930 . S
H856 C861 0.930 . S
H857 C865 0.930 . S
O858 Co827 2.037 . S
O858 C878 1.234 . S
C859 O833 1.269 . S
C859 O834 1.257 . S
C860 H835 0.930 . S
C860 C863 1.400 . S
C860 C865 1.418 . S
C861 H856 0.930 . S
C861 C864 1.404 . S
C861 C865 1.353 . S
N862 Co827 2.145 . S
N862 C863 1.391 1_554 S
N862 C864 1.334 1_554 S
C863 H844 0.922 1_556 S
C863 C860 1.400 . S
C863 N862 1.391 1_556 S
C864 H845 0.929 1_556 S
C864 C861 1.404 . S
C864 N862 1.334 1_556 S
C865 H857 0.930 . S
C865 C860 1.418 . S
C865 C861 1.353 . S
C866 H836 0.930 . S
C866 N867 1.330 . S
C866 C868 1.446 . S
N867 Co826 2.151 . S
N867 C866 1.330 . S
N867 C871 1.418 . S
C868 H847 0.929 . S
C868 C866 1.446 . S
C868 C869 1.332 . S
C869 H849 0.931 . S
C869 C868 1.332 . S
C869 C870 1.267 . S
C870 H838 0.929 . S
C870 C869 1.267 . S
C870 C871 1.251 . S
C871 H841 0.929 . S
C871 N867 1.418 . S
C871 C870 1.251 . S
C872 H839 0.930 . S
C872 C874 1.406 . S
C872 C877 1.261 . S
C873 H840 0.930 . S
C873 N875 1.325 . S
C873 C876 1.357 . S
C874 H842 0.928 . S
C874 C872 1.406 . S
C874 N875 1.261 . S
N875 Co826 2.214 . S
N875 C873 1.325 . S
N875 C874 1.261 . S
C876 H846 0.931 . S
C876 C873 1.357 . S
C876 C877 1.312 . S
C877 H848 0.930 . S
C877 C872 1.261 . S
C877 C876 1.312 . S
C878 O850 1.214 . S
C878 O858 1.234 . S
C879 H851 0.929 . S
C879 C882 1.391 . S
C879 C884 1.391 . S
C880 H852 0.929 . S
C880 C881 1.390 . S
C880 N883 1.391 . S
C881 H853 0.930 . S
C881 C880 1.390 . S
C881 C882 1.392 . S
C882 H854 0.929 . S
C882 C879 1.391 . S
C882 C881 1.392 . S
N883 Co827 2.257 . S
N883 C880 1.391 . S
N883 C884 1.388 . S
C884 H855 0.930 . S
C884 C879 1.391 . S
C884 N883 1.388 . S
Co885 O887 2.143 . S
Co885 O893 2.074 . S
Co885 O896 2.093 . S
Co885 O909 2.097 . S
Co885 N926 2.151 . S
Co885 N934 2.214 . S
Co886 O887 2.160 . S
Co886 O892 2.058 . S
Co886 O902 2.057 . S
Co886 O917 2.037 . S
Co886 N921 2.145 . S
Co886 N942 2.257 . S
O887 Co885 2.143 . S
O887 Co886 2.160 . S
C888 O889 1.278 . S
C888 O896 1.224 . S
O889 C888 1.278 . S
C890 O891 1.245 . S
C890 O902 1.232 . S
O891 C890 1.245 . S
O892 Co886 2.058 . S
O892 C918 1.269 . S
O893 Co885 2.074 . S
O893 C918 1.257 . S
H894 C919 0.930 . S
H895 C925 0.930 . S
O896 Co885 2.093 . S
O896 C888 1.224 . S
H897 C929 0.929 . S
H898 C931 0.930 . S
H899 C932 0.930 . S
H900 C930 0.929 . S
H901 C933 0.928 . S
O902 Co886 2.057 . S
O902 C890 1.232 . S
H903 C922 0.929 . S
H904 C923 0.929 . S
H905 C935 0.931 . S
H906 C927 0.929 . S
H907 C936 0.930 . S
H908 C928 0.931 . S
O909 Co885 2.097 . S
O909 C937 1.214 . S
H910 C938 0.929 . S
H911 C939 0.929 . S
H912 C940 0.930 . S
H913 C941 0.929 . S
H914 C943 0.930 . S
H915 C920 0.930 . S
H916 C924 0.930 . S
O917 Co886 2.037 . S
O917 C937 1.234 . S
C918 O892 1.269 . S
C918 O893 1.257 . S
C919 H894 0.930 . S
C919 C922 1.388 . S
C919 C924 1.418 . S
C920 H915 0.930 . S
C920 C923 1.404 . S
C920 C924 1.353 . S
N921 Co886 2.145 . S
N921 C922 1.397 . S
N921 C923 1.334 . S
C922 H903 0.929 . S
C922 C919 1.388 . S
C922 N921 1.397 . S
C923 H904 0.929 . S
C923 C920 1.404 . S
C923 N921 1.334 . S
C924 H916 0.930 . S
C924 C919 1.418 . S
C924 C920 1.353 . S
C925 H895 0.930 . S
C925 N926 1.330 . S
C925 C927 1.446 . S
N926 Co885 2.151 . S
N926 C925 1.330 . S
N926 C930 1.418 . S
C927 H906 0.929 . S
C927 C925 1.446 . S
C927 C928 1.332 . S
C928 H908 0.931 . S
C928 C927 1.332 . S
C928 C929 1.267 . S
C929 H897 0.929 . S
C929 C928 1.267 . S
C929 C930 1.251 . S
C930 H900 0.929 . S
C930 N926 1.418 . S
C930 C929 1.251 . S
C931 H898 0.930 . S
C931 C933 1.406 . S
C931 C936 1.261 . S
C932 H899 0.930 . S
C932 N934 1.325 . S
C932 C935 1.357 . S
C933 H901 0.928 . S
C933 C931 1.406 . S
C933 N934 1.261 . S
N934 Co885 2.214 . S
N934 C932 1.325 . S
N934 C933 1.261 . S
C935 H905 0.931 . S
C935 C932 1.357 . S
C935 C936 1.312 . S
C936 H907 0.930 . S
C936 C931 1.261 . S
C936 C935 1.312 . S
C937 O909 1.214 . S
C937 O917 1.234 . S
C938 H910 0.929 . S
C938 C941 1.391 . S
C938 C943 1.391 . S
C939 H911 0.929 . S
C939 C940 1.390 . S
C939 N942 1.391 . S
C940 H912 0.930 . S
C940 C939 1.390 . S
C940 C941 1.392 . S
C941 H913 0.929 . S
C941 C938 1.391 . S
C941 C940 1.392 . S
N942 Co886 2.257 . S
N942 C939 1.391 . S
N942 C943 1.388 . S
C943 H914 0.930 . S
C943 C938 1.391 . S
C943 N942 1.388 . S
C944 C945 1.391 . S
C944 C946 1.394 . S
C944 H960 0.931 . S
C945 C944 1.391 . S
C945 C949 1.376 . S
C946 C944 1.394 . S
C946 C947 1.369 . S
C946 C950 1.531 . S
C947 C946 1.369 . S
C947 C948 1.410 . S
C947 C955 1.503 1_455 S
C948 C947 1.410 . S
C948 C949 1.392 . S
C948 C951 1.511 . S
C949 C945 1.376 . S
C949 C948 1.392 . S
C949 H961 0.929 . S
C950 C946 1.531 . S
C950 H962 0.960 . S
C950 H963 0.962 . S
C950 H964 0.960 . S
C951 C948 1.511 . S
C951 H965 0.961 . S
C951 H966 0.961 . S
C951 H967 0.961 . S
C952 C953 1.370 . S
C952 C954 1.363 . S
C952 H968 0.931 . S
C953 C952 1.370 . S
C953 C957 1.408 . S
C954 C952 1.363 . S
C954 C955 1.370 . S
C954 C958 1.524 . S
C955 C947 1.503 1_655 S
C955 C954 1.370 . S
C955 C956 1.403 . S
C956 C955 1.403 . S
C956 C957 1.404 . S
C956 C959 1.539 . S
C957 C953 1.408 . S
C957 C956 1.404 . S
C957 H969 0.930 . S
C958 C954 1.524 . S
C958 H970 0.956 1_655 S
C958 H971 0.961 1_655 S
C958 H972 0.961 . S
C959 C956 1.539 . S
C959 H973 0.958 . S
C959 H974 0.961 . S
C959 H975 0.960 1_655 S
H960 C944 0.931 . S
H961 C949 0.929 . S
H962 C950 0.960 . S
H963 C950 0.962 . S
H964 C950 0.960 . S
H965 C951 0.961 . S
H966 C951 0.961 . S
H967 C951 0.961 . S
H968 C952 0.931 . S
H969 C957 0.930 . S
H970 C958 0.956 1_455 S
H971 C958 0.961 1_455 S
H972 C958 0.961 . S
H973 C959 0.958 . S
H974 C959 0.961 . S
H975 C959 0.960 1_455 S
C976 C977 1.391 . S
C976 C978 1.394 . S
C976 H992 0.931 . S
C977 C976 1.391 . S
C977 C981 1.376 . S
C978 C976 1.394 . S
C978 C979 1.369 . S
C978 C982 1.531 . S
C979 C978 1.369 . S
C979 C980 1.410 . S
C979 C987 1.503 1_655 S
C980 C979 1.410 . S
C980 C981 1.392 . S
C980 C983 1.511 . S
C981 C977 1.376 . S
C981 C980 1.392 . S
C981 H993 0.929 . S
C982 C978 1.531 . S
C982 H994 0.960 . S
C982 H995 0.962 . S
C982 H996 0.960 . S
C983 C980 1.511 . S
C983 H997 0.961 . S
C983 H998 0.961 . S
C983 H999 0.961 . S
C984 C985 1.370 . S
C984 C986 1.363 . S
C984 H1000 0.931 . S
C985 C984 1.370 . S
C985 C989 1.408 . S
C986 C984 1.363 . S
C986 C987 1.370 . S
C986 C990 1.524 . S
C987 C979 1.503 1_455 S
C987 C986 1.370 . S
C987 C988 1.403 . S
C988 C987 1.403 . S
C988 C989 1.404 . S
C988 C991 1.539 . S
C989 C985 1.408 . S
C989 C988 1.404 . S
C989 H1001 0.930 . S
C990 C986 1.524 . S
C990 H1002 0.956 1_455 S
C990 H1003 0.961 1_455 S
C990 H1004 0.961 . S
C991 C988 1.539 . S
C991 H1005 0.958 . S
C991 H1006 0.961 . S
C991 H1007 0.960 1_455 S
H992 C976 0.931 . S
H993 C981 0.929 . S
H994 C982 0.960 . S
H995 C982 0.962 . S
H996 C982 0.960 . S
H997 C983 0.961 . S
H998 C983 0.961 . S
H999 C983 0.961 . S
H1000 C984 0.931 . S
H1001 C989 0.930 . S
H1002 C990 0.956 1_655 S
H1003 C990 0.961 1_655 S
H1004 C990 0.961 . S
H1005 C991 0.958 . S
H1006 C991 0.961 . S
H1007 C991 0.960 1_655 S
C1008 C1009 1.391 . S
C1008 C1010 1.394 . S
C1008 H1024 0.931 . S
C1009 C1008 1.391 . S
C1009 C1013 1.376 . S
C1010 C1008 1.394 . S
C1010 C1011 1.369 . S
C1010 C1014 1.531 . S
C1011 C1010 1.369 . S
C1011 C1012 1.410 . S
C1011 C1019 1.503 1_655 S
C1012 C1011 1.410 . S
C1012 C1013 1.392 . S
C1012 C1015 1.511 . S
C1013 C1009 1.376 . S
C1013 C1012 1.392 . S
C1013 H1025 0.929 . S
C1014 C1010 1.531 . S
C1014 H1026 0.960 1_655 S
C1014 H1027 0.962 . S
C1014 H1028 0.960 . S
C1015 C1012 1.511 . S
C1015 H1029 0.961 . S
C1015 H1030 0.961 1_655 S
C1015 H1031 0.961 . S
C1016 C1017 1.370 . S
C1016 C1018 1.363 . S
C1016 H1032 0.931 . S
C1017 C1016 1.370 . S
C1017 C1021 1.408 . S
C1018 C1016 1.363 . S
C1018 C1019 1.370 . S
C1018 C1022 1.524 . S
C1019 C1011 1.503 1_455 S
C1019 C1018 1.370 . S
C1019 C1020 1.403 . S
C1020 C1019 1.403 . S
C1020 C1021 1.404 . S
C1020 C1023 1.539 . S
C1021 C1017 1.408 . S
C1021 C1020 1.404 . S
C1021 H1033 0.930 . S
C1022 C1018 1.524 . S
C1022 H1034 0.956 . S
C1022 H1035 0.961 . S
C1022 H1036 0.961 . S
C1023 C1020 1.539 . S
C1023 H1037 0.958 . S
C1023 H1038 0.961 . S
C1023 H1039 0.960 . S
H1024 C1008 0.931 . S
H1025 C1013 0.929 . S
H1026 C1014 0.960 1_455 S
H1027 C1014 0.962 . S
H1028 C1014 0.960 . S
H1029 C1015 0.961 . S
H1030 C1015 0.961 1_455 S
H1031 C1015 0.961 . S
H1032 C1016 0.931 . S
H1033 C1021 0.930 . S
H1034 C1022 0.956 . S
H1035 C1022 0.961 . S
H1036 C1022 0.961 . S
H1037 C1023 0.958 . S
H1038 C1023 0.961 . S
H1039 C1023 0.960 . S
C1040 C1041 1.391 . S
C1040 C1042 1.394 . S
C1040 H1056 0.931 . S
C1041 C1040 1.391 . S
C1041 C1045 1.376 . S
C1042 C1040 1.394 . S
C1042 C1043 1.369 . S
C1042 C1046 1.531 . S
C1043 C1042 1.369 . S
C1043 C1044 1.410 . S
C1043 C1051 1.503 1_455 S
C1044 C1043 1.410 . S
C1044 C1045 1.392 . S
C1044 C1047 1.511 . S
C1045 C1041 1.376 . S
C1045 C1044 1.392 . S
C1045 H1057 0.929 . S
C1046 C1042 1.531 . S
C1046 H1058 0.960 1_455 S
C1046 H1059 0.977 . S
C1046 H1060 0.960 . S
C1047 C1044 1.511 . S
C1047 H1061 0.961 . S
C1047 H1062 0.961 1_455 S
C1047 H1063 0.961 . S
C1048 C1049 1.370 . S
C1048 C1050 1.363 . S
C1048 H1064 0.931 . S
C1049 C1048 1.370 . S
C1049 C1053 1.408 . S
C1050 C1048 1.363 . S
C1050 C1051 1.370 . S
C1050 C1054 1.524 . S
C1051 C1043 1.503 1_655 S
C1051 C1050 1.370 . S
C1051 C1052 1.403 . S
C1052 C1051 1.403 . S
C1052 C1053 1.404 . S
C1052 C1055 1.539 . S
C1053 C1049 1.408 . S
C1053 C1052 1.404 . S
C1053 H1065 0.930 . S
C1054 C1050 1.524 . S
C1054 H1066 0.956 . S
C1054 H1067 0.961 . S
C1054 H1068 0.961 . S
C1055 C1052 1.539 . S
C1055 H1069 0.958 . S
C1055 H1070 0.961 . S
C1055 H1071 0.960 . S
H1056 C1040 0.931 . S
H1057 C1045 0.929 . S
H1058 C1046 0.960 1_655 S
H1059 C1046 0.977 . S
H1060 C1046 0.960 . S
H1061 C1047 0.961 . S
H1062 C1047 0.961 1_655 S
H1063 C1047 0.961 . S
H1064 C1048 0.931 . S
H1065 C1053 0.930 . S
H1066 C1054 0.956 . S
H1067 C1054 0.961 . S
H1068 C1054 0.961 . S
H1069 C1055 0.958 . S
H1070 C1055 0.961 . S
H1071 C1055 0.960 . S
C1072 C1073 1.391 . S
C1072 C1074 1.394 . S
C1072 H1088 0.931 . S
C1073 C1072 1.391 . S
C1073 C1077 1.376 . S
C1074 C1072 1.394 . S
C1074 C1075 1.369 . S
C1074 C1078 1.531 . S
C1075 C1074 1.369 . S
C1075 C1076 1.410 . S
C1075 C1083 1.503 . S
C1076 C1075 1.410 . S
C1076 C1077 1.392 . S
C1076 C1079 1.511 . S
C1077 C1073 1.376 . S
C1077 C1076 1.392 . S
C1077 H1089 0.929 . S
C1078 C1074 1.531 . S
C1078 H1090 0.960 . S
C1078 H1091 0.962 . S
C1078 H1092 0.960 . S
C1079 C1076 1.511 . S
C1079 H1093 0.961 . S
C1079 H1094 0.961 . S
C1079 H1095 0.961 . S
C1080 C1081 1.370 . S
C1080 C1082 1.363 . S
C1080 H1096 0.931 . S
C1081 C1080 1.370 . S
C1081 C1085 1.408 . S
C1082 C1080 1.363 . S
C1082 C1083 1.370 . S
C1082 C1086 1.524 . S
C1083 C1075 1.503 . S
C1083 C1082 1.370 . S
C1083 C1084 1.403 . S
C1084 C1083 1.403 . S
C1084 C1085 1.404 . S
C1084 C1087 1.539 . S
C1085 C1081 1.408 . S
C1085 C1084 1.404 . S
C1085 H1097 0.930 . S
C1086 C1082 1.524 . S
C1086 H1098 0.956 . S
C1086 H1099 0.961 . S
C1086 H1100 0.961 . S
C1087 C1084 1.539 . S
C1087 H1101 0.958 . S
C1087 H1102 0.961 . S
C1087 H1103 0.960 . S
H1088 C1072 0.931 . S
H1089 C1077 0.929 . S
H1090 C1078 0.960 . S
H1091 C1078 0.962 . S
H1092 C1078 0.960 . S
H1093 C1079 0.961 . S
H1094 C1079 0.961 . S
H1095 C1079 0.961 . S
H1096 C1080 0.931 . S
H1097 C1085 0.930 . S
H1098 C1086 0.956 . S
H1099 C1086 0.961 . S
H1100 C1086 0.961 . S
H1101 C1087 0.958 . S
H1102 C1087 0.961 . S
H1103 C1087 0.960 . S
C1104 C1105 1.391 . S
C1104 C1106 1.394 . S
C1104 H1120 0.931 . S
C1105 C1104 1.391 . S
C1105 C1109 1.376 . S
C1106 C1104 1.394 . S
C1106 C1107 1.369 . S
C1106 C1110 1.531 . S
C1107 C1106 1.369 . S
C1107 C1108 1.410 . S
C1107 C1115 1.503 . S
C1108 C1107 1.410 . S
C1108 C1109 1.392 . S
C1108 C1111 1.511 . S
C1109 C1105 1.376 . S
C1109 C1108 1.392 . S
C1109 H1121 0.929 . S
C1110 C1106 1.531 . S
C1110 H1122 0.960 . S
C1110 H1123 0.962 . S
C1110 H1124 0.960 . S
C1111 C1108 1.511 . S
C1111 H1125 0.961 . S
C1111 H1126 0.961 . S
C1111 H1127 0.961 . S
C1112 C1113 1.370 . S
C1112 C1114 1.363 . S
C1112 H1128 0.931 . S
C1113 C1112 1.370 . S
C1113 C1117 1.408 . S
C1114 C1112 1.363 . S
C1114 C1115 1.370 . S
C1114 C1118 1.524 . S
C1115 C1107 1.503 . S
C1115 C1114 1.370 . S
C1115 C1116 1.403 . S
C1116 C1115 1.403 . S
C1116 C1117 1.404 . S
C1116 C1119 1.539 . S
C1117 C1113 1.408 . S
C1117 C1116 1.404 . S
C1117 H1129 0.930 . S
C1118 C1114 1.524 . S
C1118 H1130 0.956 . S
C1118 H1131 0.961 . S
C1118 H1132 0.961 . S
C1119 C1116 1.539 . S
C1119 H1133 0.958 . S
C1119 H1134 0.961 . S
C1119 H1135 0.960 . S
H1120 C1104 0.931 . S
H1121 C1109 0.929 . S
H1122 C1110 0.960 . S
H1123 C1110 0.962 . S
H1124 C1110 0.960 . S
H1125 C1111 0.961 . S
H1126 C1111 0.961 . S
H1127 C1111 0.961 . S
H1128 C1112 0.931 . S
H1129 C1117 0.930 . S
H1130 C1118 0.956 . S
H1131 C1118 0.961 . S
H1132 C1118 0.961 . S
H1133 C1119 0.958 . S
H1134 C1119 0.961 . S
H1135 C1119 0.960 . S
C1136 C1137 1.391 . S
C1136 C1138 1.394 . S
C1136 H1152 0.931 . S
C1137 C1136 1.391 . S
C1137 C1141 1.376 . S
C1138 C1136 1.394 . S
C1138 C1139 1.369 . S
C1138 C1142 1.531 . S
C1139 C1138 1.369 . S
C1139 C1140 1.410 . S
C1139 C1147 1.503 . S
C1140 C1139 1.410 . S
C1140 C1141 1.392 . S
C1140 C1143 1.511 . S
C1141 C1137 1.376 . S
C1141 C1140 1.392 . S
C1141 H1153 0.929 . S
C1142 C1138 1.531 . S
C1142 H1154 0.960 . S
C1142 H1155 0.962 . S
C1142 H1156 0.960 . S
C1143 C1140 1.511 . S
C1143 H1157 0.961 . S
C1143 H1158 0.961 . S
C1143 H1159 0.961 . S
C1144 C1145 1.370 . S
C1144 C1146 1.363 . S
C1144 H1160 0.931 . S
C1145 C1144 1.370 . S
C1145 C1149 1.408 . S
C1146 C1144 1.363 . S
C1146 C1147 1.370 . S
C1146 C1150 1.524 . S
C1147 C1139 1.503 . S
C1147 C1146 1.370 . S
C1147 C1148 1.403 . S
C1148 C1147 1.403 . S
C1148 C1149 1.404 . S
C1148 C1151 1.539 . S
C1149 C1145 1.408 . S
C1149 C1148 1.404 . S
C1149 H1161 0.930 . S
C1150 C1146 1.524 . S
C1150 H1162 0.956 . S
C1150 H1163 0.961 . S
C1150 H1164 0.961 . S
C1151 C1148 1.539 . S
C1151 H1165 0.958 . S
C1151 H1166 0.961 . S
C1151 H1167 0.960 . S
H1152 C1136 0.931 . S
H1153 C1141 0.929 . S
H1154 C1142 0.960 . S
H1155 C1142 0.962 . S
H1156 C1142 0.960 . S
H1157 C1143 0.961 . S
H1158 C1143 0.961 . S
H1159 C1143 0.961 . S
H1160 C1144 0.931 . S
H1161 C1149 0.930 . S
H1162 C1150 0.956 . S
H1163 C1150 0.961 . S
H1164 C1150 0.961 . S
H1165 C1151 0.958 . S
H1166 C1151 0.961 . S
H1167 C1151 0.960 . S
C1168 C1169 1.391 . S
C1168 C1170 1.394 . S
C1168 H1184 0.931 . S
C1169 C1168 1.391 . S
C1169 C1173 1.376 . S
C1170 C1168 1.394 . S
C1170 C1171 1.369 . S
C1170 C1174 1.531 . S
C1171 C1170 1.369 . S
C1171 C1172 1.410 . S
C1171 C1179 1.503 . S
C1172 C1171 1.410 . S
C1172 C1173 1.392 . S
C1172 C1175 1.511 . S
C1173 C1169 1.376 . S
C1173 C1172 1.392 . S
C1173 H1185 0.929 . S
C1174 C1170 1.531 . S
C1174 H1186 0.960 . S
C1174 H1187 0.962 . S
C1174 H1188 0.960 . S
C1175 C1172 1.511 . S
C1175 H1189 0.961 . S
C1175 H1190 0.961 . S
C1175 H1191 0.961 . S
C1176 C1177 1.370 . S
C1176 C1178 1.363 . S
C1176 H1192 0.931 . S
C1177 C1176 1.370 . S
C1177 C1181 1.408 . S
C1178 C1176 1.363 . S
C1178 C1179 1.370 . S
C1178 C1182 1.524 . S
C1179 C1171 1.503 . S
C1179 C1178 1.370 . S
C1179 C1180 1.403 . S
C1180 C1179 1.403 . S
C1180 C1181 1.404 . S
C1180 C1183 1.539 . S
C1181 C1177 1.408 . S
C1181 C1180 1.404 . S
C1181 H1193 0.930 . S
C1182 C1178 1.524 . S
C1182 H1194 0.956 . S
C1182 H1195 0.961 . S
C1182 H1196 0.961 . S
C1183 C1180 1.539 . S
C1183 H1197 0.958 . S
C1183 H1198 0.961 . S
C1183 H1199 0.960 . S
H1184 C1168 0.931 . S
H1185 C1173 0.929 . S
H1186 C1174 0.960 . S
H1187 C1174 0.962 . S
H1188 C1174 0.960 . S
H1189 C1175 0.961 . S
H1190 C1175 0.961 . S
H1191 C1175 0.961 . S
H1192 C1176 0.931 . S
H1193 C1181 0.930 . S
H1194 C1182 0.956 . S
H1195 C1182 0.961 . S
H1196 C1182 0.961 . S
H1197 C1183 0.958 . S
H1198 C1183 0.961 . S
H1199 C1183 0.960 . S
C1200 C1201 1.391 . S
C1200 C1202 1.394 . S
C1200 H1216 0.931 . S
C1201 C1200 1.391 . S
C1201 C1205 1.376 . S
C1202 C1200 1.394 . S
C1202 C1203 1.369 . S
C1202 C1206 1.531 . S
C1203 C1202 1.369 . S
C1203 C1204 1.410 . S
C1203 C1211 1.503 . S
C1204 C1203 1.410 . S
C1204 C1205 1.392 . S
C1204 C1207 1.511 . S
C1205 C1201 1.376 . S
C1205 C1204 1.392 . S
C1205 H1217 0.929 . S
C1206 C1202 1.531 . S
C1206 H1218 0.960 . S
C1206 H1219 0.962 . S
C1206 H1220 0.960 . S
C1207 C1204 1.511 . S
C1207 H1221 0.961 . S
C1207 H1222 0.961 . S
C1207 H1223 0.961 . S
C1208 C1209 1.370 . S
C1208 C1210 1.363 . S
C1208 H1224 0.931 . S
C1209 C1208 1.370 . S
C1209 C1213 1.408 . S
C1210 C1208 1.363 . S
C1210 C1211 1.370 . S
C1210 C1214 1.524 . S
C1211 C1203 1.503 . S
C1211 C1210 1.370 . S
C1211 C1212 1.403 . S
C1212 C1211 1.403 . S
C1212 C1213 1.404 . S
C1212 C1215 1.539 . S
C1213 C1209 1.408 . S
C1213 C1212 1.404 . S
C1213 H1225 0.930 . S
C1214 C1210 1.524 . S
C1214 H1226 0.956 . S
C1214 H1227 0.961 . S
C1214 H1228 0.961 . S
C1215 C1212 1.539 . S
C1215 H1229 0.958 . S
C1215 H1230 0.961 . S
C1215 H1231 0.960 . S
H1216 C1200 0.931 . S
H1217 C1205 0.929 . S
H1218 C1206 0.960 . S
H1219 C1206 0.962 . S
H1220 C1206 0.960 . S
H1221 C1207 0.961 . S
H1222 C1207 0.961 . S
H1223 C1207 0.961 . S
H1224 C1208 0.931 . S
H1225 C1213 0.930 . S
H1226 C1214 0.956 . S
H1227 C1214 0.961 . S
H1228 C1214 0.961 . S
H1229 C1215 0.958 . S
H1230 C1215 0.961 . S
H1231 C1215 0.960 . S
C1232 C1233 1.391 . S
C1232 C1234 1.394 . S
C1232 H1248 0.931 . S
C1233 C1232 1.391 . S
C1233 C1237 1.376 . S
C1234 C1232 1.394 . S
C1234 C1235 1.369 . S
C1234 C1238 1.531 . S
C1235 C1234 1.369 . S
C1235 C1236 1.410 . S
C1235 C1243 1.503 . S
C1236 C1235 1.410 . S
C1236 C1237 1.392 . S
C1236 C1239 1.511 . S
C1237 C1233 1.376 . S
C1237 C1236 1.392 . S
C1237 H1249 0.929 . S
C1238 C1234 1.531 . S
C1238 H1250 0.960 . S
C1238 H1251 0.962 . S
C1238 H1252 0.960 . S
C1239 C1236 1.511 . S
C1239 H1253 0.961 . S
C1239 H1254 0.961 . S
C1239 H1255 0.961 . S
C1240 C1241 1.370 . S
C1240 C1242 1.363 . S
C1240 H1256 0.931 . S
C1241 C1240 1.370 . S
C1241 C1245 1.408 . S
C1242 C1240 1.363 . S
C1242 C1243 1.370 . S
C1242 C1246 1.524 . S
C1243 C1235 1.503 . S
C1243 C1242 1.370 . S
C1243 C1244 1.403 . S
C1244 C1243 1.403 . S
C1244 C1245 1.404 . S
C1244 C1247 1.539 . S
C1245 C1241 1.408 . S
C1245 C1244 1.404 . S
C1245 H1257 0.930 . S
C1246 C1242 1.524 . S
C1246 H1258 0.956 . S
C1246 H1259 0.961 . S
C1246 H1260 0.961 . S
C1247 C1244 1.539 . S
C1247 H1261 0.958 . S
C1247 H1262 0.961 . S
C1247 H1263 0.960 . S
H1248 C1232 0.931 . S
H1249 C1237 0.929 . S
H1250 C1238 0.960 . S
H1251 C1238 0.962 . S
H1252 C1238 0.960 . S
H1253 C1239 0.961 . S
H1254 C1239 0.961 . S
H1255 C1239 0.961 . S
H1256 C1240 0.931 . S
H1257 C1245 0.930 . S
H1258 C1246 0.956 . S
H1259 C1246 0.961 . S
H1260 C1246 0.961 . S
H1261 C1247 0.958 . S
H1262 C1247 0.961 . S
H1263 C1247 0.960 . S
C1264 C1265 1.391 . S
C1264 C1266 1.394 . S
C1264 H1280 0.931 . S
C1265 C1264 1.391 . S
C1265 C1269 1.376 . S
C1266 C1264 1.394 . S
C1266 C1267 1.369 . S
C1266 C1270 1.531 . S
C1267 C1266 1.369 . S
C1267 C1268 1.410 . S
C1267 C1275 1.503 . S
C1268 C1267 1.410 . S
C1268 C1269 1.392 . S
C1268 C1271 1.511 . S
C1269 C1265 1.376 . S
C1269 C1268 1.392 . S
C1269 H1281 0.929 . S
C1270 C1266 1.531 . S
C1270 H1282 0.960 . S
C1270 H1283 0.962 . S
C1270 H1284 0.960 . S
C1271 C1268 1.511 . S
C1271 H1285 0.961 . S
C1271 H1286 0.961 . S
C1271 H1287 0.961 . S
C1272 C1273 1.370 . S
C1272 C1274 1.363 . S
C1272 H1288 0.931 . S
C1273 C1272 1.370 . S
C1273 C1277 1.408 . S
C1274 C1272 1.363 . S
C1274 C1275 1.370 . S
C1274 C1278 1.524 . S
C1275 C1267 1.503 . S
C1275 C1274 1.370 . S
C1275 C1276 1.403 . S
C1276 C1275 1.403 . S
C1276 C1277 1.404 . S
C1276 C1279 1.539 . S
C1277 C1273 1.408 . S
C1277 C1276 1.404 . S
C1277 H1289 0.930 . S
C1278 C1274 1.524 . S
C1278 H1290 0.956 . S
C1278 H1291 0.961 . S
C1278 H1292 0.961 . S
C1279 C1276 1.539 . S
C1279 H1293 0.958 . S
C1279 H1294 0.961 . S
C1279 H1295 0.960 . S
H1280 C1264 0.931 . S
H1281 C1269 0.929 . S
H1282 C1270 0.960 . S
H1283 C1270 0.962 . S
H1284 C1270 0.960 . S
H1285 C1271 0.961 . S
H1286 C1271 0.961 . S
H1287 C1271 0.961 . S
H1288 C1272 0.931 . S
H1289 C1277 0.930 . S
H1290 C1278 0.956 . S
H1291 C1278 0.961 . S
H1292 C1278 0.961 . S
H1293 C1279 0.958 . S
H1294 C1279 0.961 . S
H1295 C1279 0.960 . S
C1296 C1297 1.391 . S
C1296 C1298 1.394 . S
C1296 H1312 0.931 . S
C1297 C1296 1.391 . S
C1297 C1301 1.376 . S
C1298 C1296 1.394 . S
C1298 C1299 1.369 . S
C1298 C1302 1.531 . S
C1299 C1298 1.369 . S
C1299 C1300 1.410 . S
C1299 C1307 1.503 . S
C1300 C1299 1.410 . S
C1300 C1301 1.392 . S
C1300 C1303 1.511 . S
C1301 C1297 1.376 . S
C1301 C1300 1.392 . S
C1301 H1313 0.929 . S
C1302 C1298 1.531 . S
C1302 H1314 0.960 . S
C1302 H1315 0.962 . S
C1302 H1316 0.960 . S
C1303 C1300 1.511 . S
C1303 H1317 0.961 . S
C1303 H1318 0.961 . S
C1303 H1319 0.961 . S
C1304 C1305 1.370 . S
C1304 C1306 1.363 . S
C1304 H1320 0.931 . S
C1305 C1304 1.370 . S
C1305 C1309 1.408 . S
C1306 C1304 1.363 . S
C1306 C1307 1.370 . S
C1306 C1310 1.524 . S
C1307 C1299 1.503 . S
C1307 C1306 1.370 . S
C1307 C1308 1.403 . S
C1308 C1307 1.403 . S
C1308 C1309 1.404 . S
C1308 C1311 1.539 . S
C1309 C1305 1.408 . S
C1309 C1308 1.404 . S
C1309 H1321 0.930 . S
C1310 C1306 1.524 . S
C1310 H1322 0.956 . S
C1310 H1323 0.961 . S
C1310 H1324 0.961 . S
C1311 C1308 1.539 . S
C1311 H1325 0.958 . S
C1311 H1326 0.961 . S
C1311 H1327 0.960 . S
H1312 C1296 0.931 . S
H1313 C1301 0.929 . S
H1314 C1302 0.960 . S
H1315 C1302 0.962 . S
H1316 C1302 0.960 . S
H1317 C1303 0.961 . S
H1318 C1303 0.961 . S
H1319 C1303 0.961 . S
H1320 C1304 0.931 . S
H1321 C1309 0.930 . S
H1322 C1310 0.956 . S
H1323 C1310 0.961 . S
H1324 C1310 0.961 . S
H1325 C1311 0.958 . S
H1326 C1311 0.961 . S
H1327 C1311 0.960 . S
C1328 C1329 1.391 . S
C1328 C1330 1.394 . S
C1328 H1344 0.931 . S
C1329 C1328 1.391 . S
C1329 C1333 1.376 . S
C1330 C1328 1.394 . S
C1330 C1331 1.369 . S
C1330 C1334 1.531 . S
C1331 C1330 1.369 . S
C1331 C1332 1.410 . S
C1331 C1339 1.503 . S
C1332 C1331 1.410 . S
C1332 C1333 1.392 . S
C1332 C1335 1.511 . S
C1333 C1329 1.376 . S
C1333 C1332 1.392 . S
C1333 H1345 0.929 . S
C1334 C1330 1.531 . S
C1334 H1346 0.960 . S
C1334 H1347 0.962 . S
C1334 H1348 0.960 . S
C1335 C1332 1.511 . S
C1335 H1349 0.961 . S
C1335 H1350 0.961 . S
C1335 H1351 0.961 . S
C1336 C1337 1.370 . S
C1336 C1338 1.363 . S
C1336 H1352 0.931 . S
C1337 C1336 1.370 . S
C1337 C1341 1.408 . S
C1338 C1336 1.363 . S
C1338 C1339 1.370 . S
C1338 C1342 1.524 . S
C1339 C1331 1.503 . S
C1339 C1338 1.370 . S
C1339 C1340 1.403 . S
C1340 C1339 1.403 . S
C1340 C1341 1.404 . S
C1340 C1343 1.539 . S
C1341 C1337 1.408 . S
C1341 C1340 1.404 . S
C1341 H1353 0.930 . S
C1342 C1338 1.524 . S
C1342 H1354 0.956 . S
C1342 H1355 0.961 . S
C1342 H1356 0.961 . S
C1343 C1340 1.539 . S
C1343 H1357 0.958 . S
C1343 H1358 0.961 . S
C1343 H1359 0.960 . S
H1344 C1328 0.931 . S
H1345 C1333 0.929 . S
H1346 C1334 0.960 . S
H1347 C1334 0.962 . S
H1348 C1334 0.960 . S
H1349 C1335 0.961 . S
H1350 C1335 0.961 . S
H1351 C1335 0.961 . S
H1352 C1336 0.931 . S
H1353 C1341 0.930 . S
H1354 C1342 0.956 . S
H1355 C1342 0.961 . S
H1356 C1342 0.961 . S
H1357 C1343 0.958 . S
H1358 C1343 0.961 . S
H1359 C1343 0.960 . S
C1360 C1361 1.391 . S
C1360 C1362 1.394 . S
C1360 H1376 0.931 . S
C1361 C1360 1.391 . S
C1361 C1365 1.376 . S
C1362 C1360 1.394 . S
C1362 C1363 1.369 . S
C1362 C1366 1.531 . S
C1363 C1362 1.369 . S
C1363 C1364 1.410 . S
C1363 C1371 1.503 . S
C1364 C1363 1.410 . S
C1364 C1365 1.392 . S
C1364 C1367 1.511 . S
C1365 C1361 1.376 . S
C1365 C1364 1.392 . S
C1365 H1377 0.929 . S
C1366 C1362 1.531 . S
C1366 H1378 0.960 . S
C1366 H1379 0.962 . S
C1366 H1380 0.960 . S
C1367 C1364 1.511 . S
C1367 H1381 0.961 . S
C1367 H1382 0.961 . S
C1367 H1383 0.961 . S
C1368 C1369 1.370 . S
C1368 C1370 1.363 . S
C1368 H1384 0.931 . S
C1369 C1368 1.370 . S
C1369 C1373 1.408 . S
C1370 C1368 1.363 . S
C1370 C1371 1.370 . S
C1370 C1374 1.524 . S
C1371 C1363 1.503 . S
C1371 C1370 1.370 . S
C1371 C1372 1.403 . S
C1372 C1371 1.403 . S
C1372 C1373 1.404 . S
C1372 C1375 1.539 . S
C1373 C1369 1.408 . S
C1373 C1372 1.404 . S
C1373 H1385 0.930 . S
C1374 C1370 1.524 . S
C1374 H1386 0.956 . S
C1374 H1387 0.961 . S
C1374 H1388 0.961 . S
C1375 C1372 1.539 . S
C1375 H1389 0.958 . S
C1375 H1390 0.961 . S
C1375 H1391 0.960 . S
H1376 C1360 0.931 . S
H1377 C1365 0.929 . S
H1378 C1366 0.960 . S
H1379 C1366 0.962 . S
H1380 C1366 0.960 . S
H1381 C1367 0.961 . S
H1382 C1367 0.961 . S
H1383 C1367 0.961 . S
H1384 C1368 0.931 . S
H1385 C1373 0.930 . S
H1386 C1374 0.956 . S
H1387 C1374 0.961 . S
H1388 C1374 0.961 . S
H1389 C1375 0.958 . S
H1390 C1375 0.961 . S
H1391 C1375 0.960 . S
C1392 C1393 1.391 . S
C1392 C1394 1.394 . S
C1392 H1408 0.931 . S
C1393 C1392 1.391 . S
C1393 C1397 1.376 . S
C1394 C1392 1.394 . S
C1394 C1395 1.369 . S
C1394 C1398 1.531 . S
C1395 C1394 1.369 . S
C1395 C1396 1.410 . S
C1395 C1403 1.503 . S
C1396 C1395 1.410 . S
C1396 C1397 1.392 . S
C1396 C1399 1.511 . S
C1397 C1393 1.376 . S
C1397 C1396 1.392 . S
C1397 H1409 0.929 . S
C1398 C1394 1.531 . S
C1398 H1410 0.960 . S
C1398 H1411 0.962 . S
C1398 H1412 0.960 . S
C1399 C1396 1.511 . S
C1399 H1413 0.961 . S
C1399 H1414 0.961 . S
C1399 H1415 0.961 . S
C1400 C1401 1.370 . S
C1400 C1402 1.363 . S
C1400 H1416 0.931 . S
C1401 C1400 1.370 . S
C1401 C1405 1.408 . S
C1402 C1400 1.363 . S
C1402 C1403 1.370 . S
C1402 C1406 1.524 . S
C1403 C1395 1.503 . S
C1403 C1402 1.370 . S
C1403 C1404 1.403 . S
C1404 C1403 1.403 . S
C1404 C1405 1.404 . S
C1404 C1407 1.539 . S
C1405 C1401 1.408 . S
C1405 C1404 1.404 . S
C1405 H1417 0.930 . S
C1406 C1402 1.524 . S
C1406 H1418 0.956 . S
C1406 H1419 0.961 . S
C1406 H1420 0.961 . S
C1407 C1404 1.539 . S
C1407 H1421 0.958 . S
C1407 H1422 0.961 . S
C1407 H1423 0.960 . S
H1408 C1392 0.931 . S
H1409 C1397 0.929 . S
H1410 C1398 0.960 . S
H1411 C1398 0.962 . S
H1412 C1398 0.960 . S
H1413 C1399 0.961 . S
H1414 C1399 0.961 . S
H1415 C1399 0.961 . S
H1416 C1400 0.931 . S
H1417 C1405 0.930 . S
H1418 C1406 0.956 . S
H1419 C1406 0.961 . S
H1420 C1406 0.961 . S
H1421 C1407 0.958 . S
H1422 C1407 0.961 . S
H1423 C1407 0.960 . S
C1424 C1425 1.391 . S
C1424 C1426 1.394 . S
C1424 H1440 0.931 . S
C1425 C1424 1.391 . S
C1425 C1429 1.376 . S
C1426 C1424 1.394 . S
C1426 C1427 1.369 . S
C1426 C1430 1.531 . S
C1427 C1426 1.369 . S
C1427 C1428 1.410 . S
C1427 C1435 1.503 . S
C1428 C1427 1.410 . S
C1428 C1429 1.392 . S
C1428 C1431 1.511 . S
C1429 C1425 1.376 . S
C1429 C1428 1.392 . S
C1429 H1441 0.929 . S
C1430 C1426 1.531 . S
C1430 H1442 0.960 . S
C1430 H1443 0.962 . S
C1430 H1444 0.960 . S
C1431 C1428 1.511 . S
C1431 H1445 0.961 . S
C1431 H1446 0.961 . S
C1431 H1447 0.961 . S
C1432 C1433 1.370 . S
C1432 C1434 1.363 . S
C1432 H1448 0.931 . S
C1433 C1432 1.370 . S
C1433 C1437 1.408 . S
C1434 C1432 1.363 . S
C1434 C1435 1.370 . S
C1434 C1438 1.524 . S
C1435 C1427 1.503 . S
C1435 C1434 1.370 . S
C1435 C1436 1.403 . S
C1436 C1435 1.403 . S
C1436 C1437 1.404 . S
C1436 C1439 1.539 . S
C1437 C1433 1.408 . S
C1437 C1436 1.404 . S
C1437 H1449 0.930 . S
C1438 C1434 1.524 . S
C1438 H1450 0.956 . S
C1438 H1451 0.961 . S
C1438 H1452 0.961 . S
C1439 C1436 1.539 . S
C1439 H1453 0.958 . S
C1439 H1454 0.961 . S
C1439 H1455 0.960 . S
H1440 C1424 0.931 . S
H1441 C1429 0.929 . S
H1442 C1430 0.960 . S
H1443 C1430 0.962 . S
H1444 C1430 0.960 . S
H1445 C1431 0.961 . S
H1446 C1431 0.961 . S
H1447 C1431 0.961 . S
H1448 C1432 0.931 . S
H1449 C1437 0.930 . S
H1450 C1438 0.956 . S
H1451 C1438 0.961 . S
H1452 C1438 0.961 . S
H1453 C1439 0.958 . S
H1454 C1439 0.961 . S
H1455 C1439 0.960 . S
C1456 C1457 1.391 . S
C1456 C1458 1.394 . S
C1456 H1472 0.931 . S
C1457 C1456 1.391 . S
C1457 C1461 1.376 . S
C1458 C1456 1.394 . S
C1458 C1459 1.369 . S
C1458 C1462 1.531 . S
C1459 C1458 1.369 . S
C1459 C1460 1.410 . S
C1459 C1467 1.503 1_556 S
C1460 C1459 1.410 . S
C1460 C1461 1.392 . S
C1460 C1463 1.511 1_556 S
C1461 C1457 1.376 . S
C1461 C1460 1.392 . S
C1461 H1473 0.929 . S
C1462 C1458 1.531 . S
C1462 H1474 0.960 . S
C1462 H1475 0.962 . S
C1462 H1476 0.960 . S
C1463 C1460 1.511 1_554 S
C1463 H1477 0.961 . S
C1463 H1478 0.961 . S
C1463 H1479 0.961 1_554 S
C1464 C1465 1.370 . S
C1464 C1466 1.363 . S
C1464 H1480 0.931 . S
C1465 C1464 1.370 . S
C1465 C1469 1.408 . S
C1466 C1464 1.363 . S
C1466 C1467 1.370 . S
C1466 C1470 1.524 . S
C1467 C1459 1.503 1_554 S
C1467 C1466 1.370 . S
C1467 C1468 1.403 1_554 S
C1468 C1467 1.403 1_556 S
C1468 C1469 1.404 1_556 S
C1468 C1471 1.539 . S
C1469 C1465 1.408 . S
C1469 C1468 1.404 1_554 S
C1469 H1481 0.930 . S
C1470 C1466 1.524 . S
C1470 H1482 0.956 . S
C1470 H1483 0.961 . S
C1470 H1484 0.961 . S
C1471 C1468 1.539 . S
C1471 H1485 0.958 . S
C1471 H1486 0.961 . S
C1471 H1487 0.960 . S
H1472 C1456 0.931 . S
H1473 C1461 0.929 . S
H1474 C1462 0.960 . S
H1475 C1462 0.962 . S
H1476 C1462 0.960 . S
H1477 C1463 0.961 . S
H1478 C1463 0.961 . S
H1479 C1463 0.961 1_556 S
H1480 C1464 0.931 . S
H1481 C1469 0.930 . S
H1482 C1470 0.956 . S
H1483 C1470 0.961 . S
H1484 C1470 0.961 . S
H1485 C1471 0.958 . S
H1486 C1471 0.961 . S
H1487 C1471 0.960 . S
C1488 C1489 1.391 . S
C1488 C1490 1.394 . S
C1488 H1504 0.931 . S
C1489 C1488 1.391 . S
C1489 C1493 1.376 . S
C1490 C1488 1.394 . S
C1490 C1491 1.369 . S
C1490 C1494 1.531 . S
C1491 C1490 1.369 . S
C1491 C1492 1.410 . S
C1491 C1499 1.503 . S
C1492 C1491 1.410 . S
C1492 C1493 1.392 . S
C1492 C1495 1.511 . S
C1493 C1489 1.376 . S
C1493 C1492 1.392 . S
C1493 H1505 0.929 . S
C1494 C1490 1.531 . S
C1494 H1506 0.960 . S
C1494 H1507 0.962 . S
C1494 H1508 0.960 . S
C1495 C1492 1.511 . S
C1495 H1509 0.961 . S
C1495 H1510 0.961 . S
C1495 H1511 0.961 . S
C1496 C1497 1.370 . S
C1496 C1498 1.363 . S
C1496 H1512 0.931 . S
C1497 C1496 1.370 . S
C1497 C1501 1.408 . S
C1498 C1496 1.363 . S
C1498 C1499 1.370 . S
C1498 C1502 1.524 . S
C1499 C1491 1.503 . S
C1499 C1498 1.370 . S
C1499 C1500 1.403 . S
C1500 C1499 1.403 . S
C1500 C1501 1.404 . S
C1500 C1503 1.539 . S
C1501 C1497 1.408 . S
C1501 C1500 1.404 . S
C1501 H1513 0.930 . S
C1502 C1498 1.524 . S
C1502 H1514 0.956 . S
C1502 H1515 0.961 . S
C1502 H1516 0.961 . S
C1503 C1500 1.539 . S
C1503 H1517 0.958 . S
C1503 H1518 0.961 . S
C1503 H1519 0.960 . S
H1504 C1488 0.931 . S
H1505 C1493 0.929 . S
H1506 C1494 0.960 . S
H1507 C1494 0.962 . S
H1508 C1494 0.960 . S
H1509 C1495 0.961 . S
H1510 C1495 0.961 . S
H1511 C1495 0.961 . S
H1512 C1496 0.931 . S
H1513 C1501 0.930 . S
H1514 C1502 0.956 . S
H1515 C1502 0.961 . S
H1516 C1502 0.961 . S
H1517 C1503 0.958 . S
H1518 C1503 0.961 . S
H1519 C1503 0.960 . S
C1520 C1521 1.391 . S
C1520 C1522 1.394 . S
C1520 H1536 0.931 . S
C1521 C1520 1.391 . S
C1521 C1525 1.376 . S
C1522 C1520 1.394 . S
C1522 C1523 1.375 . S
C1522 C1526 1.531 1_554 S
C1523 C1522 1.375 . S
C1523 C1524 1.426 . S
C1523 C1531 1.484 1_554 S
C1524 C1523 1.426 . S
C1524 C1525 1.392 . S
C1524 C1527 1.511 . S
C1525 C1521 1.376 . S
C1525 C1524 1.392 . S
C1525 H1537 0.929 . S
C1526 C1522 1.531 1_556 S
C1526 H1538 0.960 . S
C1526 H1539 0.962 1_556 S
C1526 H1540 0.960 . S
C1527 C1524 1.511 . S
C1527 H1541 0.961 . S
C1527 H1542 0.961 . S
C1527 H1543 0.961 1_554 S
C1528 C1529 1.370 . S
C1528 C1530 1.385 . S
C1528 H1544 0.931 . S
C1529 C1528 1.370 . S
C1529 C1533 1.408 . S
C1530 C1528 1.385 . S
C1530 C1531 1.391 . S
C1530 C1534 1.483 1_556 S
C1531 C1523 1.484 1_556 S
C1531 C1530 1.391 . S
C1531 C1532 1.403 . S
C1532 C1531 1.403 . S
C1532 C1533 1.404 . S
C1532 C1535 1.539 . S
C1533 C1529 1.408 . S
C1533 C1532 1.404 . S
C1533 H1545 0.930 . S
C1534 C1530 1.483 1_554 S
C1534 H1546 0.956 . S
C1534 H1547 0.961 . S
C1534 H1548 0.961 . S
C1535 C1532 1.539 . S
C1535 H1549 0.958 . S
C1535 H1550 0.961 . S
C1535 H1551 0.960 . S
H1536 C1520 0.931 . S
H1537 C1525 0.929 . S
H1538 C1526 0.960 . S
H1539 C1526 0.962 1_554 S
H1540 C1526 0.960 . S
H1541 C1527 0.961 . S
H1542 C1527 0.961 . S
H1543 C1527 0.961 1_556 S
H1544 C1528 0.931 . S
H1545 C1533 0.930 . S
H1546 C1534 0.956 . S
H1547 C1534 0.961 . S
H1548 C1534 0.961 . S
H1549 C1535 0.958 . S
H1550 C1535 0.961 . S
H1551 C1535 0.960 . S
C1552 C1553 1.391 . S
C1552 C1554 1.394 . S
C1552 H1568 0.931 . S
C1553 C1552 1.391 . S
C1553 C1557 1.376 . S
C1554 C1552 1.394 . S
C1554 C1555 1.369 . S
C1554 C1558 1.531 . S
C1555 C1554 1.369 . S
C1555 C1556 1.410 . S
C1555 C1563 1.503 . S
C1556 C1555 1.410 . S
C1556 C1557 1.392 . S
C1556 C1559 1.511 . S
C1557 C1553 1.376 . S
C1557 C1556 1.392 . S
C1557 H1569 0.929 . S
C1558 C1554 1.531 . S
C1558 H1570 0.960 . S
C1558 H1571 0.962 . S
C1558 H1572 0.960 . S
C1559 C1556 1.511 . S
C1559 H1573 0.961 . S
C1559 H1574 0.961 . S
C1559 H1575 0.961 . S
C1560 C1561 1.370 . S
C1560 C1562 1.363 . S
C1560 H1576 0.931 . S
C1561 C1560 1.370 . S
C1561 C1565 1.408 . S
C1562 C1560 1.363 . S
C1562 C1563 1.370 . S
C1562 C1566 1.524 . S
C1563 C1555 1.503 . S
C1563 C1562 1.370 . S
C1563 C1564 1.403 . S
C1564 C1563 1.403 . S
C1564 C1565 1.404 . S
C1564 C1567 1.539 . S
C1565 C1561 1.408 . S
C1565 C1564 1.404 . S
C1565 H1577 0.930 . S
C1566 C1562 1.524 . S
C1566 H1578 0.956 . S
C1566 H1579 0.961 . S
C1566 H1580 0.961 . S
C1567 C1564 1.539 . S
C1567 H1581 0.958 . S
C1567 H1582 0.961 . S
C1567 H1583 0.960 . S
H1568 C1552 0.931 . S
H1569 C1557 0.929 . S
H1570 C1558 0.960 . S
H1571 C1558 0.962 . S
H1572 C1558 0.960 . S
H1573 C1559 0.961 . S
H1574 C1559 0.961 . S
H1575 C1559 0.961 . S
H1576 C1560 0.931 . S
H1577 C1565 0.930 . S
H1578 C1566 0.956 . S
H1579 C1566 0.961 . S
H1580 C1566 0.961 . S
H1581 C1567 0.958 . S
H1582 C1567 0.961 . S
H1583 C1567 0.960 . S
C1584 C1585 1.391 . S
C1584 C1586 1.394 . S
C1584 H1600 0.931 . S
C1585 C1584 1.391 . S
C1585 C1589 1.376 . S
C1586 C1584 1.394 . S
C1586 C1587 1.369 . S
C1586 C1590 1.531 1_554 S
C1587 C1586 1.369 . S
C1587 C1588 1.410 . S
C1587 C1595 1.503 1_554 S
C1588 C1587 1.410 . S
C1588 C1589 1.392 . S
C1588 C1591 1.511 . S
C1589 C1585 1.376 . S
C1589 C1588 1.392 . S
C1589 H1601 0.929 . S
C1590 C1586 1.531 1_556 S
C1590 H1602 0.960 . S
C1590 H1603 0.962 . S
C1590 H1604 0.960 1_556 S
C1591 C1588 1.511 . S
C1591 H1605 0.961 . S
C1591 H1606 0.961 . S
C1591 H1607 0.961 . S
C1592 C1593 1.370 . S
C1592 C1594 1.363 . S
C1592 H1608 0.931 . S
C1593 C1592 1.370 . S
C1593 C1597 1.408 . S
C1594 C1592 1.363 . S
C1594 C1595 1.370 . S
C1594 C1598 1.524 . S
C1595 C1587 1.503 1_556 S
C1595 C1594 1.370 . S
C1595 C1596 1.403 1_556 S
C1596 C1595 1.403 1_554 S
C1596 C1597 1.404 1_554 S
C1596 C1599 1.539 . S
C1597 C1593 1.408 . S
C1597 C1596 1.404 1_556 S
C1597 H1609 0.930 . S
C1598 C1594 1.524 . S
C1598 H1610 0.956 . S
C1598 H1611 0.961 . S
C1598 H1612 0.961 . S
C1599 C1596 1.539 . S
C1599 H1613 0.958 . S
C1599 H1614 0.961 . S
C1599 H1615 0.960 . S
H1600 C1584 0.931 . S
H1601 C1589 0.929 . S
H1602 C1590 0.960 . S
H1603 C1590 0.962 . S
H1604 C1590 0.960 1_554 S
H1605 C1591 0.961 . S
H1606 C1591 0.961 . S
H1607 C1591 0.961 . S
H1608 C1592 0.931 . S
H1609 C1597 0.930 . S
H1610 C1598 0.956 . S
H1611 C1598 0.961 . S
H1612 C1598 0.961 . S
H1613 C1599 0.958 . S
H1614 C1599 0.961 . S
H1615 C1599 0.960 . S
C1616 C1617 1.391 . S
C1616 C1618 1.394 . S
C1616 H1632 0.931 . S
C1617 C1616 1.391 . S
C1617 C1621 1.376 . S
C1618 C1616 1.394 . S
C1618 C1619 1.369 . S
C1618 C1622 1.531 . S
C1619 C1618 1.369 . S
C1619 C1620 1.410 . S
C1619 C1627 1.503 . S
C1620 C1619 1.410 . S
C1620 C1621 1.392 . S
C1620 C1623 1.511 . S
C1621 C1617 1.376 . S
C1621 C1620 1.392 . S
C1621 H1633 0.929 . S
C1622 C1618 1.531 . S
C1622 H1634 0.960 . S
C1622 H1635 0.962 . S
C1622 H1636 0.960 . S
C1623 C1620 1.511 . S
C1623 H1637 0.961 . S
C1623 H1638 0.961 . S
C1623 H1639 0.961 . S
C1624 C1625 1.370 . S
C1624 C1626 1.363 . S
C1624 H1640 0.931 . S
C1625 C1624 1.370 . S
C1625 C1629 1.408 . S
C1626 C1624 1.363 . S
C1626 C1627 1.370 . S
C1626 C1630 1.524 . S
C1627 C1619 1.503 . S
C1627 C1626 1.370 . S
C1627 C1628 1.403 . S
C1628 C1627 1.403 . S
C1628 C1629 1.404 . S
C1628 C1631 1.539 . S
C1629 C1625 1.408 . S
C1629 C1628 1.404 . S
C1629 H1641 0.930 . S
C1630 C1626 1.524 . S
C1630 H1642 0.956 . S
C1630 H1643 0.961 . S
C1630 H1644 0.961 . S
C1631 C1628 1.539 . S
C1631 H1645 0.958 . S
C1631 H1646 0.961 . S
C1631 H1647 0.960 . S
H1632 C1616 0.931 . S
H1633 C1621 0.929 . S
H1634 C1622 0.960 . S
H1635 C1622 0.962 . S
H1636 C1622 0.960 . S
H1637 C1623 0.961 . S
H1638 C1623 0.961 . S
H1639 C1623 0.961 . S
H1640 C1624 0.931 . S
H1641 C1629 0.930 . S
H1642 C1630 0.956 . S
H1643 C1630 0.961 . S
H1644 C1630 0.961 . S
H1645 C1631 0.958 . S
H1646 C1631 0.961 . S
H1647 C1631 0.960 . S
C1648 C1649 1.391 . S
C1648 C1650 1.394 . S
C1648 H1664 0.931 . S
C1649 C1648 1.391 . S
C1649 C1653 1.376 . S
C1650 C1648 1.394 . S
C1650 C1651 1.369 . S
C1650 C1654 1.531 1_554 S
C1651 C1650 1.369 . S
C1651 C1652 1.410 . S
C1651 C1659 1.503 1_554 S
C1652 C1651 1.410 . S
C1652 C1653 1.392 . S
C1652 C1655 1.511 . S
C1653 C1649 1.376 . S
C1653 C1652 1.392 . S
C1653 H1665 0.929 . S
C1654 C1650 1.531 1_556 S
C1654 H1666 0.960 . S
C1654 H1667 0.962 . S
C1654 H1668 0.954 1_556 S
C1655 C1652 1.511 . S
C1655 H1669 0.961 . S
C1655 H1670 0.961 . S
C1655 H1671 0.961 . S
C1656 C1657 1.370 . S
C1656 C1658 1.363 . S
C1656 H1672 0.931 . S
C1657 C1656 1.370 . S
C1657 C1661 1.408 . S
C1658 C1656 1.363 . S
C1658 C1659 1.370 . S
C1658 C1662 1.524 . S
C1659 C1651 1.503 1_556 S
C1659 C1658 1.370 . S
C1659 C1660 1.403 1_556 S
C1660 C1659 1.403 1_554 S
C1660 C1661 1.404 1_554 S
C1660 C1663 1.539 . S
C1661 C1657 1.408 . S
C1661 C1660 1.404 1_556 S
C1661 H1673 0.930 . S
C1662 C1658 1.524 . S
C1662 H1674 0.956 . S
C1662 H1675 0.961 . S
C1662 H1676 0.961 . S
C1663 C1660 1.539 . S
C1663 H1677 0.958 . S
C1663 H1678 0.961 . S
C1663 H1679 0.960 . S
H1664 C1648 0.931 . S
H1665 C1653 0.929 . S
H1666 C1654 0.960 . S
H1667 C1654 0.962 . S
H1668 C1654 0.954 1_554 S
H1669 C1655 0.961 . S
H1670 C1655 0.961 . S
H1671 C1655 0.961 . S
H1672 C1656 0.931 . S
H1673 C1661 0.930 . S
H1674 C1662 0.956 . S
H1675 C1662 0.961 . S
H1676 C1662 0.961 . S
H1677 C1663 0.958 . S
H1678 C1663 0.961 . S
H1679 C1663 0.960 . S
C1680 C1681 1.391 . S
C1680 C1682 1.394 . S
C1680 H1696 0.931 . S
C1681 C1680 1.391 . S
C1681 C1685 1.376 . S
C1682 C1680 1.394 . S
C1682 C1683 1.369 . S
C1682 C1686 1.531 . S
C1683 C1682 1.369 . S
C1683 C1684 1.410 . S
C1683 C1691 1.503 . S
C1684 C1683 1.410 . S
C1684 C1685 1.392 . S
C1684 C1687 1.511 . S
C1685 C1681 1.376 . S
C1685 C1684 1.392 . S
C1685 H1697 0.929 . S
C1686 C1682 1.531 . S
C1686 H1698 0.960 . S
C1686 H1699 0.962 . S
C1686 H1700 0.960 . S
C1687 C1684 1.511 . S
C1687 H1701 0.961 . S
C1687 H1702 0.961 . S
C1687 H1703 0.961 . S
C1688 C1689 1.370 . S
C1688 C1690 1.363 . S
C1688 H1704 0.931 . S
C1689 C1688 1.370 . S
C1689 C1693 1.408 . S
C1690 C1688 1.363 . S
C1690 C1691 1.370 . S
C1690 C1694 1.524 . S
C1691 C1683 1.503 . S
C1691 C1690 1.370 . S
C1691 C1692 1.403 . S
C1692 C1691 1.403 . S
C1692 C1693 1.404 . S
C1692 C1695 1.539 . S
C1693 C1689 1.408 . S
C1693 C1692 1.404 . S
C1693 H1705 0.930 . S
C1694 C1690 1.524 . S
C1694 H1706 0.956 . S
C1694 H1707 0.961 . S
C1694 H1708 0.961 . S
C1695 C1692 1.539 . S
C1695 H1709 0.958 . S
C1695 H1710 0.961 . S
C1695 H1711 0.960 . S
H1696 C1680 0.931 . S
H1697 C1685 0.929 . S
H1698 C1686 0.960 . S
H1699 C1686 0.962 . S
H1700 C1686 0.960 . S
H1701 C1687 0.961 . S
H1702 C1687 0.961 . S
H1703 C1687 0.961 . S
H1704 C1688 0.931 . S
H1705 C1693 0.930 . S
H1706 C1694 0.956 . S
H1707 C1694 0.961 . S
H1708 C1694 0.961 . S
H1709 C1695 0.958 . S
H1710 C1695 0.961 . S
H1711 C1695 0.960 . S
C1712 C1713 1.391 . S
C1712 C1714 1.394 . S
C1712 H1728 0.931 . S
C1713 C1712 1.391 . S
C1713 C1717 1.376 . S
C1714 C1712 1.394 . S
C1714 C1715 1.365 1_556 S
C1714 C1718 1.531 1_556 S
C1715 C1714 1.365 1_554 S
C1715 C1716 1.399 1_554 S
C1715 C1723 1.515 . S
C1716 C1715 1.399 1_556 S
C1716 C1717 1.392 . S
C1716 C1719 1.511 . S
C1717 C1713 1.376 . S
C1717 C1716 1.392 . S
C1717 H1729 0.929 . S
C1718 C1714 1.531 1_554 S
C1718 H1730 0.960 . S
C1718 H1731 0.962 1_554 S
C1718 H1732 0.960 . S
C1719 C1716 1.511 . S
C1719 H1733 0.961 . S
C1719 H1734 0.961 . S
C1719 H1735 0.961 1_556 S
C1720 C1721 1.370 1_556 S
C1720 C1722 1.363 . S
C1720 H1736 0.931 . S
C1721 C1720 1.370 1_554 S
C1721 C1725 1.408 . S
C1722 C1720 1.363 . S
C1722 C1723 1.370 1_556 S
C1722 C1726 1.524 . S
C1723 C1715 1.515 . S
C1723 C1722 1.370 1_554 S
C1723 C1724 1.403 . S
C1724 C1723 1.403 . S
C1724 C1725 1.404 . S
C1724 C1727 1.539 . S
C1725 C1721 1.408 . S
C1725 C1724 1.404 . S
C1725 H1737 0.930 . S
C1726 C1722 1.524 . S
C1726 H1738 0.956 . S
C1726 H1739 0.961 . S
C1726 H1740 0.961 . S
C1727 C1724 1.539 . S
C1727 H1741 0.958 . S
C1727 H1742 0.961 . S
C1727 H1743 0.960 . S
H1728 C1712 0.931 . S
H1729 C1717 0.929 . S
H1730 C1718 0.960 . S
H1731 C1718 0.962 1_556 S
H1732 C1718 0.960 . S
H1733 C1719 0.961 . S
H1734 C1719 0.961 . S
H1735 C1719 0.961 1_554 S
H1736 C1720 0.931 . S
H1737 C1725 0.930 . S
H1738 C1726 0.956 . S
H1739 C1726 0.961 . S
H1740 C1726 0.961 . S
H1741 C1727 0.958 . S
H1742 C1727 0.961 . S
H1743 C1727 0.960 . S
C1744 C1745 1.391 . S
C1744 C1746 1.394 . S
C1744 H1760 0.931 . S
C1745 C1744 1.391 . S
C1745 C1749 1.376 . S
C1746 C1744 1.394 . S
C1746 C1747 1.369 . S
C1746 C1750 1.531 . S
C1747 C1746 1.369 . S
C1747 C1748 1.410 . S
C1747 C1755 1.503 . S
C1748 C1747 1.410 . S
C1748 C1749 1.392 . S
C1748 C1751 1.511 . S
C1749 C1745 1.376 . S
C1749 C1748 1.392 . S
C1749 H1761 0.929 . S
C1750 C1746 1.531 . S
C1750 H1762 0.960 . S
C1750 H1763 0.962 . S
C1750 H1764 0.960 . S
C1751 C1748 1.511 . S
C1751 H1765 0.961 . S
C1751 H1766 0.961 . S
C1751 H1767 0.961 . S
C1752 C1753 1.370 . S
C1752 C1754 1.363 . S
C1752 H1768 0.931 . S
C1753 C1752 1.370 . S
C1753 C1757 1.408 . S
C1754 C1752 1.363 . S
C1754 C1755 1.370 . S
C1754 C1758 1.524 . S
C1755 C1747 1.503 . S
C1755 C1754 1.370 . S
C1755 C1756 1.403 . S
C1756 C1755 1.403 . S
C1756 C1757 1.404 . S
C1756 C1759 1.539 . S
C1757 C1753 1.408 . S
C1757 C1756 1.404 . S
C1757 H1769 0.930 . S
C1758 C1754 1.524 . S
C1758 H1770 0.956 . S
C1758 H1771 0.961 . S
C1758 H1772 0.961 . S
C1759 C1756 1.539 . S
C1759 H1773 0.958 . S
C1759 H1774 0.961 . S
C1759 H1775 0.960 . S
H1760 C1744 0.931 . S
H1761 C1749 0.929 . S
H1762 C1750 0.960 . S
H1763 C1750 0.962 . S
H1764 C1750 0.960 . S
H1765 C1751 0.961 . S
H1766 C1751 0.961 . S
H1767 C1751 0.961 . S
H1768 C1752 0.931 . S
H1769 C1757 0.930 . S
H1770 C1758 0.956 . S
H1771 C1758 0.961 . S
H1772 C1758 0.961 . S
H1773 C1759 0.958 . S
H1774 C1759 0.961 . S
H1775 C1759 0.960 . S
C1776 C1777 1.391 . S
C1776 C1778 1.394 . S
C1776 H1792 0.931 . S
C1777 C1776 1.391 . S
C1777 C1781 1.376 . S
C1778 C1776 1.394 . S
C1778 C1779 1.369 . S
C1778 C1782 1.531 . S
C1779 C1778 1.369 . S
C1779 C1780 1.410 . S
C1779 C1787 1.503 1_554 S
C1780 C1779 1.410 . S
C1780 C1781 1.392 . S
C1780 C1783 1.511 1_554 S
C1781 C1777 1.376 . S
C1781 C1780 1.392 . S
C1781 H1793 0.929 . S
C1782 C1778 1.531 . S
C1782 H1794 0.960 . S
C1782 H1795 0.962 . S
C1782 H1796 0.960 . S
C1783 C1780 1.511 1_556 S
C1783 H1797 0.961 . S
C1783 H1798 0.961 . S
C1783 H1799 0.961 1_556 S
C1784 C1785 1.370 . S
C1784 C1786 1.363 . S
C1784 H1800 0.931 . S
C1785 C1784 1.370 . S
C1785 C1789 1.388 1_556 S
C1786 C1784 1.363 . S
C1786 C1787 1.370 . S
C1786 C1790 1.524 . S
C1787 C1779 1.503 1_556 S
C1787 C1786 1.370 . S
C1787 C1788 1.403 1_556 S
C1788 C1787 1.403 1_554 S
C1788 C1789 1.413 . S
C1788 C1791 1.539 . S
C1789 C1785 1.388 1_554 S
C1789 C1788 1.413 . S
C1789 H1801 0.941 . S
C1790 C1786 1.524 . S
C1790 H1802 0.956 . S
C1790 H1803 0.961 . S
C1790 H1804 0.961 . S
C1791 C1788 1.539 . S
C1791 H1805 0.958 . S
C1791 H1806 0.961 . S
C1791 H1807 0.960 . S
H1792 C1776 0.931 . S
H1793 C1781 0.929 . S
H1794 C1782 0.960 . S
H1795 C1782 0.962 . S
H1796 C1782 0.960 . S
H1797 C1783 0.961 . S
H1798 C1783 0.961 . S
H1799 C1783 0.961 1_554 S
H1800 C1784 0.931 . S
H1801 C1789 0.941 . S
H1802 C1790 0.956 . S
H1803 C1790 0.961 . S
H1804 C1790 0.961 . S
H1805 C1791 0.958 . S
H1806 C1791 0.961 . S
H1807 C1791 0.960 . S
C1808 C1809 1.391 . S
C1808 C1810 1.394 . S
C1808 H1824 0.931 . S
C1809 C1808 1.391 . S
C1809 C1813 1.376 . S
C1810 C1808 1.394 . S
C1810 C1811 1.369 . S
C1810 C1814 1.531 . S
C1811 C1810 1.369 . S
C1811 C1812 1.410 . S
C1811 C1819 1.503 . S
C1812 C1811 1.410 . S
C1812 C1813 1.392 . S
C1812 C1815 1.511 . S
C1813 C1809 1.376 . S
C1813 C1812 1.392 . S
C1813 H1825 0.929 . S
C1814 C1810 1.531 . S
C1814 H1826 0.960 . S
C1814 H1827 0.962 . S
C1814 H1828 0.960 . S
C1815 C1812 1.511 . S
C1815 H1829 0.961 . S
C1815 H1830 0.961 . S
C1815 H1831 0.961 . S
C1816 C1817 1.370 . S
C1816 C1818 1.363 . S
C1816 H1832 0.931 . S
C1817 C1816 1.370 . S
C1817 C1821 1.408 . S
C1818 C1816 1.363 . S
C1818 C1819 1.370 . S
C1818 C1822 1.524 . S
C1819 C1811 1.503 . S
C1819 C1818 1.370 . S
C1819 C1820 1.403 . S
C1820 C1819 1.403 . S
C1820 C1821 1.404 . S
C1820 C1823 1.539 . S
C1821 C1817 1.408 . S
C1821 C1820 1.404 . S
C1821 H1833 0.930 . S
C1822 C1818 1.524 . S
C1822 H1834 0.956 . S
C1822 H1835 0.961 . S
C1822 H1836 0.961 . S
C1823 C1820 1.539 . S
C1823 H1837 0.958 . S
C1823 H1838 0.961 . S
C1823 H1839 0.960 . S
H1824 C1808 0.931 . S
H1825 C1813 0.929 . S
H1826 C1814 0.960 . S
H1827 C1814 0.962 . S
H1828 C1814 0.960 . S
H1829 C1815 0.961 . S
H1830 C1815 0.961 . S
H1831 C1815 0.961 . S
H1832 C1816 0.931 . S
H1833 C1821 0.930 . S
H1834 C1822 0.956 . S
H1835 C1822 0.961 . S
H1836 C1822 0.961 . S
H1837 C1823 0.958 . S
H1838 C1823 0.961 . S
H1839 C1823 0.960 . S
C1840 C1841 1.391 1_554 S
C1840 C1842 1.394 . S
C1840 H1856 0.931 . S
C1841 C1840 1.391 1_556 S
C1841 C1845 1.376 . S
C1842 C1840 1.394 . S
C1842 C1843 1.369 1_554 S
C1842 C1846 1.531 . S
C1843 C1842 1.369 1_556 S
C1843 C1844 1.410 . S
C1843 C1851 1.503 1_546 S
C1844 C1843 1.410 . S
C1844 C1845 1.392 . S
C1844 C1847 1.511 1_545 S
C1845 C1841 1.376 . S
C1845 C1844 1.392 . S
C1845 H1857 0.929 . S
C1846 C1842 1.531 . S
C1846 H1858 0.960 . S
C1846 H1859 0.962 . S
C1846 H1860 0.960 . S
C1847 C1844 1.511 1_565 S
C1847 H1861 0.961 1_565 S
C1847 H1862 0.961 . S
C1847 H1863 0.961 . S
C1848 C1849 1.370 . S
C1848 C1850 1.363 . S
C1848 H1864 0.931 . S
C1849 C1848 1.370 . S
C1849 C1853 1.408 . S
C1850 C1848 1.363 . S
C1850 C1851 1.370 . S
C1850 C1854 1.524 . S
C1851 C1843 1.503 1_564 S
C1851 C1850 1.370 . S
C1851 C1852 1.403 . S
C1852 C1851 1.403 . S
C1852 C1853 1.404 . S
C1852 C1855 1.539 1_554 S
C1853 C1849 1.408 . S
C1853 C1852 1.404 . S
C1853 H1865 0.930 . S
C1854 C1850 1.524 . S
C1854 H1866 0.956 1_565 S
C1854 H1867 0.973 1_554 S
C1854 H1868 0.961 . S
C1855 C1852 1.539 1_556 S
C1855 H1869 0.958 1_556 S
C1855 H1870 0.961 . S
C1855 H1871 0.960 . S
H1856 C1840 0.931 . S
H1857 C1845 0.929 . S
H1858 C1846 0.960 . S
H1859 C1846 0.962 . S
H1860 C1846 0.960 . S
H1861 C1847 0.961 1_545 S
H1862 C1847 0.961 . S
H1863 C1847 0.961 . S
H1864 C1848 0.931 . S
H1865 C1853 0.930 . S
H1866 C1854 0.956 1_545 S
H1867 C1854 0.973 1_556 S
H1868 C1854 0.961 . S
H1869 C1855 0.958 1_554 S
H1870 C1855 0.961 . S
H1871 C1855 0.960 . S
C1872 C1873 1.391 . S
C1872 C1874 1.394 . S
C1872 H1888 0.931 . S
C1873 C1872 1.391 . S
C1873 C1877 1.376 . S
C1874 C1872 1.394 . S
C1874 C1875 1.369 . S
C1874 C1878 1.531 . S
C1875 C1874 1.369 . S
C1875 C1876 1.410 . S
C1875 C1883 1.503 1_565 S
C1876 C1875 1.410 . S
C1876 C1877 1.392 . S
C1876 C1879 1.511 . S
C1877 C1873 1.376 . S
C1877 C1876 1.392 . S
C1877 H1889 0.929 . S
C1878 C1874 1.531 . S
C1878 H1890 0.960 1_565 S
C1878 H1891 0.962 . S
C1878 H1892 0.960 . S
C1879 C1876 1.511 . S
C1879 H1893 0.961 . S
C1879 H1894 0.961 1_565 S
C1879 H1895 0.961 1_565 S
C1880 C1881 1.370 . S
C1880 C1882 1.363 . S
C1880 H1896 0.931 . S
C1881 C1880 1.370 . S
C1881 C1885 1.408 . S
C1882 C1880 1.363 . S
C1882 C1883 1.370 . S
C1882 C1886 1.524 1_545 S
C1883 C1875 1.503 1_545 S
C1883 C1882 1.370 . S
C1883 C1884 1.403 . S
C1884 C1883 1.403 . S
C1884 C1885 1.404 . S
C1884 C1887 1.539 . S
C1885 C1881 1.408 . S
C1885 C1884 1.404 . S
C1885 H1897 0.930 . S
C1886 C1882 1.524 1_565 S
C1886 H1898 0.956 . S
C1886 H1899 0.961 . S
C1886 H1900 0.961 1_565 S
C1887 C1884 1.539 . S
C1887 H1901 0.958 . S
C1887 H1902 0.961 . S
C1887 H1903 0.960 . S
H1888 C1872 0.931 . S
H1889 C1877 0.929 . S
H1890 C1878 0.960 1_545 S
H1891 C1878 0.962 . S
H1892 C1878 0.960 . S
H1893 C1879 0.961 . S
H1894 C1879 0.961 1_545 S
H1895 C1879 0.961 1_545 S
H1896 C1880 0.931 . S
H1897 C1885 0.930 . S
H1898 C1886 0.956 . S
H1899 C1886 0.961 . S
H1900 C1886 0.961 1_545 S
H1901 C1887 0.958 . S
H1902 C1887 0.961 . S
H1903 C1887 0.960 . S
C1904 C1905 1.391 . S
C1904 C1906 1.394 1_554 S
C1904 H1920 0.937 . S
C1905 C1904 1.391 . S
C1905 C1909 1.376 . S
C1906 C1904 1.394 1_556 S
C1906 C1907 1.361 1_556 S
C1906 C1910 1.531 . S
C1907 C1906 1.361 1_554 S
C1907 C1908 1.431 . S
C1907 C1915 1.493 1_564 S
C1908 C1907 1.431 . S
C1908 C1909 1.392 . S
C1908 C1911 1.511 . S
C1909 C1905 1.376 . S
C1909 C1908 1.392 . S
C1909 H1921 0.929 . S
C1910 C1906 1.531 . S
C1910 H1922 0.960 . S
C1910 H1923 0.962 . S
C1910 H1924 0.960 . S
C1911 C1908 1.511 . S
C1911 H1925 0.961 . S
C1911 H1926 0.961 1_565 S
C1911 H1927 0.961 . S
C1912 C1913 1.370 . S
C1912 C1914 1.363 1_556 S
C1912 H1928 0.931 1_556 S
C1913 C1912 1.370 . S
C1913 C1917 1.408 . S
C1914 C1912 1.363 1_554 S
C1914 C1915 1.370 1_554 S
C1914 C1918 1.524 . S
C1915 C1907 1.493 1_546 S
C1915 C1914 1.370 1_556 S
C1915 C1916 1.403 . S
C1916 C1915 1.403 . S
C1916 C1917 1.404 . S
C1916 C1919 1.539 1_545 S
C1917 C1913 1.408 . S
C1917 C1916 1.404 . S
C1917 H1929 0.930 . S
C1918 C1914 1.524 . S
C1918 H1930 0.956 . S
C1918 H1931 0.961 . S
C1918 H1932 0.961 . S
C1919 C1916 1.539 1_565 S
C1919 H1933 0.958 . S
C1919 H1934 0.961 1_565 S
C1919 H1935 0.960 . S
H1920 C1904 0.937 . S
H1921 C1909 0.929 . S
H1922 C1910 0.960 . S
H1923 C1910 0.962 . S
H1924 C1910 0.960 . S
H1925 C1911 0.961 . S
H1926 C1911 0.961 1_545 S
H1927 C1911 0.961 . S
H1928 C1912 0.931 1_554 S
H1929 C1917 0.930 . S
H1930 C1918 0.956 . S
H1931 C1918 0.961 . S
H1932 C1918 0.961 . S
H1933 C1919 0.958 . S
H1934 C1919 0.961 1_545 S
H1935 C1919 0.960 . S
C1936 C1937 1.391 . S
C1936 C1938 1.394 . S
C1936 H1952 0.931 . S
C1937 C1936 1.391 . S
C1937 C1941 1.376 . S
C1938 C1936 1.394 . S
C1938 C1939 1.369 . S
C1938 C1942 1.531 . S
C1939 C1938 1.369 . S
C1939 C1940 1.410 . S
C1939 C1947 1.503 1_545 S
C1940 C1939 1.410 . S
C1940 C1941 1.392 . S
C1940 C1943 1.511 1_545 S
C1941 C1937 1.376 . S
C1941 C1940 1.392 . S
C1941 H1953 0.929 . S
C1942 C1938 1.531 . S
C1942 H1954 0.960 . S
C1942 H1955 0.962 . S
C1942 H1956 0.960 . S
C1943 C1940 1.511 1_565 S
C1943 H1957 0.961 1_565 S
C1943 H1958 0.961 . S
C1943 H1959 0.961 . S
C1944 C1945 1.370 . S
C1944 C1946 1.363 . S
C1944 H1960 0.931 . S
C1945 C1944 1.370 . S
C1945 C1949 1.408 . S
C1946 C1944 1.363 . S
C1946 C1947 1.370 . S
C1946 C1950 1.524 1_565 S
C1947 C1939 1.503 1_565 S
C1947 C1946 1.370 . S
C1947 C1948 1.403 . S
C1948 C1947 1.403 . S
C1948 C1949 1.404 . S
C1948 C1951 1.539 . S
C1949 C1945 1.408 . S
C1949 C1948 1.404 . S
C1949 H1961 0.930 . S
C1950 C1946 1.524 1_545 S
C1950 H1962 0.956 . S
C1950 H1963 0.961 . S
C1950 H1964 0.961 1_545 S
C1951 C1948 1.539 . S
C1951 H1965 0.958 . S
C1951 H1966 0.961 . S
C1951 H1967 0.960 . S
H1952 C1936 0.931 . S
H1953 C1941 0.929 . S
H1954 C1942 0.960 . S
H1955 C1942 0.962 . S
H1956 C1942 0.960 . S
H1957 C1943 0.961 1_545 S
H1958 C1943 0.961 . S
H1959 C1943 0.961 . S
H1960 C1944 0.931 . S
H1961 C1949 0.930 . S
H1962 C1950 0.956 . S
H1963 C1950 0.961 . S
H1964 C1950 0.961 1_565 S
H1965 C1951 0.958 . S
H1966 C1951 0.961 . S
H1967 C1951 0.960 . S
C945 C52 1.524 . S
C953 C406 1.535 . S
C977 C111 1.518 . S
C985 C465 1.536 . S
C1009 C288 1.525 . S
C1017 C170 1.533 . S
C1041 C347 1.522 . S
C1049 C229 1.534 . S
C1073 C878 1.528 . S
C1081 C524 1.530 . S
C1105 C937 1.523 . S
C1113 C583 1.534 . S
C1137 C642 1.523 . S
C1145 C760 1.535 . S
C1169 C701 1.538 . S
C1177 C819 1.531 . S
C1201 C33 1.582 . S
C1209 C298 1.576 . S
C1233 C92 1.606 . S
C1241 C239 1.589 . S
C1265 C151 1.581 . S
C1273 C416 1.575 . S
C1297 C357 1.585 . S
C1305 C210 1.602 . S
C1329 C770 1.575 . S
C1337 C505 1.599 . S
C1361 C711 1.593 . S
C1369 C564 1.601 . S
C1393 C623 1.581 . S
C1401 C888 1.575 . S
C1425 C829 1.565 . S
C1433 C682 1.596 . S
C1457 C713 1.565 . S
C1465 C5 1.562 . S
C1489 C64 1.559 . S
C1497 C772 1.561 . S
C1521 C831 1.545 . S
C1529 C123 1.568 . S
C1553 C890 1.570 . S
C1561 C182 1.560 . S
C1585 C477 1.569 . S
C1593 C241 1.556 . S
C1617 C536 1.554 . S
C1625 C300 1.563 . S
C1649 C359 1.570 . S
C1657 C595 1.560 . S
C1681 C418 1.568 . S
C1689 C654 1.561 . S
C1713 C121 1.223 . S
C1721 C3 1.194 . S
C1745 C62 1.198 . S
C1753 C180 1.195 . S
C1777 C387 1.929 . S
C1785 C269 1.948 . S
C1809 C328 1.950 . S
C1817 C446 1.940 . S
C1841 C593 1.180 . S
C1849 C475 1.202 . S
C1873 C652 1.175 . S
C1881 C534 1.214 . S
C1905 C859 1.949 . S
C1913 C741 1.942 . S
C1937 C918 1.932 . S
C1945 C800 1.949 . S
