# Generated by pormake.
# Topology uoq, (4)-cn, num edge types: 1
# Building blocks:
#     Node 0, Type 0, BuildingBlock: NAHDIM_clean_sbu_0, # of connection points: 4
#     Node 1, Type 0, BuildingBlock: NAHDIM_clean_sbu_0, # of connection points: 4
#     Node 2, Type 0, BuildingBlock: NAHDIM_clean_sbu_0, # of connection points: 4
#     Node 3, Type 0, BuildingBlock: NAHDIM_clean_sbu_0, # of connection points: 4
#     Node 4, Type 0, BuildingBlock: NAHDIM_clean_sbu_0, # of connection points: 4
#     Node 5, Type 0, BuildingBlock: NAHDIM_clean_sbu_0, # of connection points: 4
#     Node 6, Type 0, BuildingBlock: NAHDIM_clean_sbu_0, # of connection points: 4
#     Node 7, Type 0, BuildingBlock: NAHDIM_clean_sbu_0, # of connection points: 4
#     Node 8, Type 0, BuildingBlock: NAHDIM_clean_sbu_0, # of connection points: 4
#     Node 9, Type 0, BuildingBlock: NAHDIM_clean_sbu_0, # of connection points: 4
#     Node 10, Type 0, BuildingBlock: NAHDIM_clean_sbu_0, # of connection points: 4
#     Node 11, Type 0, BuildingBlock: NAHDIM_clean_sbu_0, # of connection points: 4
#     Edge 12, Type (0, 0), BuildingBlock: KIFKEQ_clean_linker_1, # of connection points: 2
#     Edge 13, Type (0, 0), BuildingBlock: KIFKEQ_clean_linker_1, # of connection points: 2
#     Edge 14, Type (0, 0), BuildingBlock: KIFKEQ_clean_linker_1, # of connection points: 2
#     Edge 15, Type (0, 0), BuildingBlock: KIFKEQ_clean_linker_1, # of connection points: 2
#     Edge 16, Type (0, 0), BuildingBlock: KIFKEQ_clean_linker_1, # of connection points: 2
#     Edge 17, Type (0, 0), BuildingBlock: KIFKEQ_clean_linker_1, # of connection points: 2
#     Edge 18, Type (0, 0), BuildingBlock: KIFKEQ_clean_linker_1, # of connection points: 2
#     Edge 19, Type (0, 0), BuildingBlock: KIFKEQ_clean_linker_1, # of connection points: 2
#     Edge 20, Type (0, 0), BuildingBlock: KIFKEQ_clean_linker_1, # of connection points: 2
#     Edge 21, Type (0, 0), BuildingBlock: KIFKEQ_clean_linker_1, # of connection points: 2
#     Edge 22, Type (0, 0), BuildingBlock: KIFKEQ_clean_linker_1, # of connection points: 2
#     Edge 23, Type (0, 0), BuildingBlock: KIFKEQ_clean_linker_1, # of connection points: 2
#     Edge 24, Type (0, 0), BuildingBlock: KIFKEQ_clean_linker_1, # of connection points: 2
#     Edge 25, Type (0, 0), BuildingBlock: KIFKEQ_clean_linker_1, # of connection points: 2
#     Edge 26, Type (0, 0), BuildingBlock: KIFKEQ_clean_linker_1, # of connection points: 2
#     Edge 27, Type (0, 0), BuildingBlock: KIFKEQ_clean_linker_1, # of connection points: 2
#     Edge 28, Type (0, 0), BuildingBlock: KIFKEQ_clean_linker_1, # of connection points: 2
#     Edge 29, Type (0, 0), BuildingBlock: KIFKEQ_clean_linker_1, # of connection points: 2
#     Edge 30, Type (0, 0), BuildingBlock: KIFKEQ_clean_linker_1, # of connection points: 2
#     Edge 31, Type (0, 0), BuildingBlock: KIFKEQ_clean_linker_1, # of connection points: 2
#     Edge 32, Type (0, 0), BuildingBlock: KIFKEQ_clean_linker_1, # of connection points: 2
#     Edge 33, Type (0, 0), BuildingBlock: KIFKEQ_clean_linker_1, # of connection points: 2
#     Edge 34, Type (0, 0), BuildingBlock: KIFKEQ_clean_linker_1, # of connection points: 2
#     Edge 35, Type (0, 0), BuildingBlock: KIFKEQ_clean_linker_1, # of connection points: 2
# Relax obj value: 0.071
# Max RMSD: 0.071
# Mean RMSD: 0.071
data_MOF--net-uoq--node1-NAHDIM_clean_sbu_0--edge1-KIFKEQ_clean_linker_1
_symmetry_space_group_name_H-M    P1
_symmetry_Int_Tables_number       1
_symmetry_cell_setting            triclinic
loop_
_symmetry_equiv_pos_as_xyz
'x, y, z'
_cell_length_a     59.537783
_cell_length_b     59.566285
_cell_length_c     24.313315
_cell_angle_alpha  90.000075
_cell_angle_beta   90.02774
_cell_angle_gamma 120.01407
loop_
_atom_site_label
_atom_site_type_symbol
_atom_site_fract_x
_atom_site_fract_y
_atom_site_fract_z
_atom_type_partial_charge
C0 C 0.26877 0.44684 0.16354 0.0
O1 O 0.26598 0.45841 0.20684 0.0
O2 O 0.33359 0.47682 0.24779 0.0
Zn3 Zn 0.30186 0.44142 0.23953 0.0
O4 O 0.27659 0.43653 0.29972 0.0
C5 C 0.3272 0.41839 0.29189 0.0
O6 O 0.33115 0.43696 0.32653 0.0
O7 O 0.28417 0.43787 0.16646 0.0
C8 C 0.26523 0.41697 0.33124 0.0
O9 O 0.26979 0.39767 0.32605 0.0
C10 C 0.33361 0.49505 0.27504 0.0
O11 O 0.3117 0.49165 0.29547 0.0
O12 O 0.31401 0.41553 0.24862 0.0
C13 C 0.81687 0.27654 0.51335 0.0
O14 O 0.8048 0.28189 0.55185 0.0
O15 O 0.84949 0.32881 0.6101 0.0
Zn16 Zn 0.85593 0.29912 0.59448 0.0
O17 O 0.83921 0.27248 0.65379 0.0
C18 C 0.91004 0.33676 0.58665 0.0
O19 O 0.90061 0.35063 0.56553 0.0
O20 O 0.84034 0.28252 0.52127 0.0
C21 C 0.84715 0.27884 0.70289 0.0
O22 O 0.86622 0.30245 0.71286 0.0
C23 C 0.83134 0.32715 0.64054 0.0
O24 O 0.81475 0.3047 0.66239 0.0
O25 O 0.89454 0.3132 0.599 0.0
C26 C 0.54609 0.8193 0.83892 0.0
O27 O 0.535 0.80495 0.88252 0.0
O28 O 0.5164 0.851 0.92647 0.0
Zn29 Zn 0.55297 0.85772 0.9161 0.0
O30 O 0.5605 0.83883 0.97516 0.0
C31 C 0.57731 0.90638 0.96919 0.0
O32 O 0.56186 0.89143 0.00832 0.0
O33 O 0.55576 0.84373 0.84245 0.0
C34 C 0.58186 0.84704 0.00051 0.0
O35 O 0.60174 0.86976 0.98782 0.0
C36 C 0.50437 0.84243 0.97173 0.0
O37 O 0.51572 0.83727 0.01216 0.0
O38 O 0.57748 0.89621 0.9233 0.0
C39 C 0.73061 0.55078 0.17711 0.0
O40 O 0.73408 0.5401 0.22116 0.0
O41 O 0.66719 0.51839 0.25874 0.0
Zn42 Zn 0.69655 0.55539 0.25156 0.0
O43 O 0.72239 0.56391 0.31285 0.0
C44 C 0.66133 0.57215 0.28509 0.0
O45 O 0.65017 0.54911 0.30807 0.0
O46 O 0.71484 0.5593 0.17944 0.0
C47 C 0.71653 0.56397 0.36306 0.0
O48 O 0.69296 0.5587 0.3758 0.0
C49 C 0.66776 0.50156 0.28998 0.0
O50 O 0.68893 0.50764 0.31792 0.0
O51 O 0.68178 0.57945 0.25669 0.0
C52 C 0.18086 0.73374 0.51191 0.0
O53 O 0.19559 0.73631 0.55444 0.0
O54 O 0.15076 0.66772 0.58494 0.0
Zn55 Zn 0.14215 0.6966 0.58391 0.0
O56 O 0.15738 0.71871 0.65097 0.0
C57 C 0.09199 0.6615 0.62206 0.0
O58 O 0.10598 0.6538 0.64936 0.0
O59 O 0.15663 0.71778 0.5148 0.0
C60 C 0.161 0.74144 0.65742 0.0
O61 O 0.15485 0.75231 0.61762 0.0
C62 C 0.16521 0.66633 0.62176 0.0
O63 O 0.176 0.68483 0.65868 0.0
O64 O 0.10328 0.68048 0.58898 0.0
C65 C 0.45755 0.18383 0.8511 0.0
O66 O 0.4747 0.19507 0.89056 0.0
O67 O 0.47653 0.14765 0.9392 0.0
Zn68 Zn 0.44071 0.1428 0.92723 0.0
O69 O 0.43153 0.1588 0.98939 0.0
C70 C 0.42134 0.08855 0.90895 0.0
O71 O 0.4442 0.09745 0.88591 0.0
O72 O 0.4401 0.16019 0.85665 0.0
C73 C 0.42847 0.14937 0.03747 0.0
O74 O 0.43141 0.12917 0.04559 0.0
C75 C 0.49266 0.16295 0.9746 0.0
O76 O 0.48652 0.17729 0.00507 0.0
O77 O 0.41497 0.10455 0.92731 0.0
C78 C 0.54173 0.73091 0.48158 0.0
O79 O 0.53158 0.73547 0.43796 0.0
O80 O 0.51071 0.66867 0.39122 0.0
Zn81 Zn 0.54707 0.69832 0.40381 0.0
O82 O 0.55418 0.72453 0.34474 0.0
C83 C 0.57566 0.6789 0.34791 0.0
O84 O 0.5636 0.68221 0.30615 0.0
O85 O 0.54991 0.71492 0.47777 0.0
C86 C 0.57663 0.74135 0.32819 0.0
O87 O 0.5972 0.74238 0.35066 0.0
C88 C 0.50486 0.64525 0.39888 0.0
O89 O 0.52254 0.64033 0.41834 0.0
O90 O 0.5721 0.68502 0.39593 0.0
C91 C 0.81523 0.54452 0.82275 0.0
O92 O 0.80011 0.53327 0.7802 0.0
O93 O 0.84715 0.51009 0.74435 0.0
Zn94 Zn 0.85192 0.54603 0.74621 0.0
O95 O 0.83097 0.54923 0.68514 0.0
C96 C 0.89973 0.56474 0.69342 0.0
O97 O 0.88476 0.54356 0.66532 0.0
O98 O 0.8393 0.55213 0.81876 0.0
C99 C 0.83859 0.56941 0.65584 0.0
O100 O 0.86169 0.58959 0.66434 0.0
C101 C 0.82665 0.49035 0.72697 0.0
O102 O 0.80675 0.4928 0.71226 0.0
O103 O 0.8899 0.57103 0.73277 0.0
C104 C 0.26728 0.81837 0.15418 0.0
O105 O 0.26359 0.8029 0.11238 0.0
O106 O 0.33079 0.84798 0.06963 0.0
Zn107 Zn 0.30042 0.85423 0.07457 0.0
O108 O 0.2748 0.83387 0.0151 0.0
C109 C 0.32255 0.89937 0.01103 0.0
O110 O 0.3212 0.88196 0.97594 0.0
O111 O 0.28295 0.84254 0.14861 0.0
C112 C 0.25813 0.83916 0.996 0.0
O113 O 0.25644 0.85861 0.01687 0.0
C114 C 0.33379 0.83663 0.02829 0.0
O115 O 0.31623 0.82786 0.98915 0.0
O116 O 0.31418 0.89222 0.05972 0.0
C117 C 0.46737 0.28376 0.50829 0.0
O118 O 0.48698 0.29048 0.47461 0.0
O119 O 0.48808 0.3332 0.40618 0.0
Zn120 Zn 0.45191 0.30292 0.41856 0.0
O121 O 0.44527 0.27485 0.36433 0.0
C122 C 0.42404 0.3227 0.36004 0.0
O123 O 0.43791 0.32127 0.31964 0.0
O124 O 0.44923 0.28792 0.49403 0.0
C125 C 0.42336 0.25968 0.34273 0.0
O126 O 0.40316 0.26191 0.3558 0.0
C127 C 0.49894 0.33679 0.35941 0.0
O128 O 0.48656 0.32033 0.31943 0.0
O129 O 0.42629 0.31538 0.40785 0.0
C130 C 0.16701 0.42971 0.81778 0.0
O131 O 0.16238 0.41155 0.78149 0.0
O132 O 0.15567 0.48575 0.71799 0.0
Zn133 Zn 0.14784 0.44893 0.73111 0.0
O134 O 0.16587 0.43907 0.67413 0.0
C135 C 0.09342 0.43291 0.73063 0.0
O136 O 0.1023 0.45678 0.74793 0.0
O137 O 0.1614 0.44712 0.80594 0.0
C138 C 0.15497 0.42951 0.62832 0.0
O139 O 0.13181 0.4262 0.61843 0.0
C140 C 0.16234 0.49701 0.67152 0.0
O141 O 0.16516 0.48476 0.62959 0.0
O142 O 0.10924 0.4247 0.72359 0.0
C143 C 0.71736 0.18448 0.17116 0.0
O144 O 0.71135 0.19722 0.13551 0.0
O145 O 0.66372 0.15319 0.07767 0.0
Zn146 Zn 0.69447 0.14775 0.08665 0.0
O147 O 0.72117 0.16857 0.02943 0.0
C148 C 0.67214 0.09952 0.03081 0.0
O149 O 0.67136 0.11437 0.9918 0.0
O150 O 0.71132 0.16124 0.16033 0.0
C151 C 0.73529 0.16134 0.00486 0.0
O152 O 0.73279 0.13865 0.01643 0.0
C153 C 0.65939 0.16083 0.03209 0.0
O154 O 0.6755 0.16578 0.99096 0.0
O155 O 0.6819 0.10961 0.07715 0.0
H156 H 0.32503 0.3796 0.22728 0.0
H157 H 0.35517 0.41951 0.38162 0.0
H158 H 0.34567 0.35366 0.24448 0.0
H159 H 0.37608 0.39402 0.39821 0.0
H160 H 0.39382 0.33008 0.43455 0.0
H161 H 0.36759 0.35046 0.41853 0.0
H162 H 0.38981 0.36098 0.24723 0.0
H163 H 0.41557 0.34022 0.26291 0.0
C164 C 0.33596 0.38278 0.26491 0.0
C165 C 0.33856 0.4017 0.30294 0.0
C166 C 0.34788 0.368 0.27465 0.0
C167 C 0.36256 0.3718 0.32268 0.0
C168 C 0.36464 0.39034 0.36117 0.0
C169 C 0.35279 0.40511 0.35142 0.0
C170 C 0.39294 0.33656 0.3934 0.0
C171 C 0.40692 0.33367 0.3501 0.0
C172 C 0.378 0.34833 0.38427 0.0
C173 C 0.37671 0.35745 0.33165 0.0
C174 C 0.39014 0.35391 0.2881 0.0
C175 C 0.40507 0.34217 0.29722 0.0
H176 H 0.9352 0.31494 0.63935 0.0
H177 H 0.94736 0.38736 0.57212 0.0
H178 H 0.97938 0.33714 0.67566 0.0
H179 H 0.99149 0.40937 0.60774 0.0
H180 H 0.05543 0.44575 0.73549 0.0
H181 H 0.01152 0.4215 0.69907 0.0
H182 H 0.02552 0.36011 0.64804 0.0
H183 H 0.06948 0.38425 0.68518 0.0
C184 C 0.94739 0.3355 0.63165 0.0
C185 C 0.93768 0.3494 0.60309 0.0
C186 C 0.97272 0.34821 0.65241 0.0
C187 C 0.98882 0.37507 0.64519 0.0
C188 C 0.97939 0.38875 0.61498 0.0
C189 C 0.95414 0.37607 0.59414 0.0
C190 C 0.04912 0.42699 0.71694 0.0
C191 C 0.06602 0.41701 0.71308 0.0
C192 C 0.02401 0.41318 0.69564 0.0
C193 C 0.01515 0.38903 0.67002 0.0
C194 C 0.03174 0.37863 0.6677 0.0
C195 C 0.05694 0.39249 0.68893 0.0
H196 H 0.61092 0.94333 0.89711 0.0
H197 H 0.58062 0.93335 0.06233 0.0
H198 H 0.63644 0.99009 0.91202 0.0
H199 H 0.60562 0.97995 0.07674 0.0
H200 H 0.66979 0.06286 0.10239 0.0
H201 H 0.64941 0.0162 0.08715 0.0
H202 H 0.62828 0.02595 0.92251 0.0
H203 H 0.64907 0.0725 0.93724 0.0
C204 C 0.60974 0.95109 0.9366 0.0
C205 C 0.59365 0.93463 0.97843 0.0
C206 C 0.62427 0.97789 0.94507 0.0
C207 C 0.62303 0.98877 0.99555 0.0
C208 C 0.60731 0.97221 0.03765 0.0
C209 C 0.59281 0.94547 0.0292 0.0
C210 C 0.66096 0.05505 0.06283 0.0
C211 C 0.66095 0.07139 0.02114 0.0
C212 C 0.64917 0.02831 0.05418 0.0
C213 C 0.63713 0.01733 0.00367 0.0
C214 C 0.63765 0.03378 0.96164 0.0
C215 C 0.64943 0.06048 0.97026 0.0
H216 H 0.62315 0.56497 0.3566 0.0
H217 H 0.67526 0.61859 0.23485 0.0
H218 H 0.60509 0.59309 0.37254 0.0
H219 H 0.65705 0.64688 0.2511 0.0
H220 H 0.59124 0.66855 0.25029 0.0
H221 H 0.61408 0.64459 0.23566 0.0
H222 H 0.61864 0.63693 0.41132 0.0
H223 H 0.59568 0.6608 0.42612 0.0
C224 C 0.6308 0.58279 0.33324 0.0
C225 C 0.6506 0.58951 0.29431 0.0
C226 C 0.62057 0.59901 0.34276 0.0
C227 C 0.62975 0.62224 0.31328 0.0
C228 C 0.64954 0.62901 0.27424 0.0
C229 C 0.65999 0.61287 0.26506 0.0
C230 C 0.59731 0.66196 0.28583 0.0
C231 C 0.59148 0.6664 0.33937 0.0
C232 C 0.61053 0.64838 0.2774 0.0
C233 C 0.61799 0.63877 0.32233 0.0
C234 C 0.61284 0.64386 0.37591 0.0
C235 C 0.59982 0.65764 0.38437 0.0
H236 H 0.92812 0.54961 0.63256 0.0
H237 H 0.93449 0.61454 0.72497 0.0
H238 H 0.97451 0.57395 0.61348 0.0
H239 H 0.98113 0.63908 0.70494 0.0
H240 H 0.05861 0.67943 0.59914 0.0
H241 H 0.01162 0.65696 0.61547 0.0
H242 H 0.01465 0.59092 0.67929 0.0
H243 H 0.06138 0.61331 0.66401 0.0
C244 C 0.93938 0.56916 0.64846 0.0
C245 C 0.92769 0.58014 0.68051 0.0
C246 C 0.96593 0.58302 0.63763 0.0
C247 C 0.9813 0.60831 0.65785 0.0
C248 C 0.9696 0.61963 0.6887 0.0
C249 C 0.94301 0.60556 0.70038 0.0
C250 C 0.04918 0.6601 0.61655 0.0
C251 C 0.06362 0.64809 0.63026 0.0
C252 C 0.02241 0.64737 0.62615 0.0
C253 C 0.00964 0.62226 0.6485 0.0
C254 C 0.02405 0.61022 0.66168 0.0
C255 C 0.05079 0.62308 0.65309 0.0
H256 H 0.34102 0.91964 0.90964 0.0
H257 H 0.33124 0.94127 0.07381 0.0
H258 H 0.36265 0.96491 0.88186 0.0
H259 H 0.35339 0.98679 0.04607 0.0
H260 H 0.37514 0.06408 0.96441 0.0
H261 H 0.34932 0.01809 0.98701 0.0
H262 H 0.40412 0.00362 0.9002 0.0
H263 H 0.42967 0.0494 0.87683 0.0
C264 C 0.34345 0.93405 0.93985 0.0
C265 C 0.33454 0.92685 0.99408 0.0
C266 C 0.35597 0.96004 0.92392 0.0
C267 C 0.3599 0.97947 0.96181 0.0
C268 C 0.35045 0.97225 0.01575 0.0
C269 C 0.33789 0.94619 0.03174 0.0
C270 C 0.38153 0.05103 0.94964 0.0
C271 C 0.40449 0.06042 0.91885 0.0
C272 C 0.36683 0.02472 0.96297 0.0
C273 C 0.37472 0.00722 0.94561 0.0
C274 C 0.39734 0.01653 0.9137 0.0
C275 C 0.41205 0.04282 0.90048 0.0
H276 H 0.18025 0.39492 0.85781 0.0
H277 H 0.1847 0.46793 0.89555 0.0
H278 H 0.20424 0.39836 0.94174 0.0
H279 H 0.20927 0.47174 0.97838 0.0
H280 H 0.23065 0.45895 0.14969 0.0
H281 H 0.20506 0.45359 0.06774 0.0
H282 H 0.24712 0.42296 0.98046 0.0
H283 H 0.27229 0.42762 0.06333 0.0
C284 C 0.18633 0.4117 0.884 0.0
C285 C 0.18051 0.43113 0.86999 0.0
C286 C 0.20027 0.41377 0.93191 0.0
C287 C 0.20879 0.43536 0.96682 0.0
C288 C 0.20272 0.45465 0.95295 0.0
C289 C 0.1887 0.45252 0.90525 0.0
C290 C 0.23448 0.45107 0.11305 0.0
C291 C 0.25358 0.44377 0.11304 0.0
C292 C 0.21986 0.44811 0.06589 0.0
C293 C 0.22405 0.43793 0.01733 0.0
C294 C 0.24313 0.43055 0.01734 0.0
C295 C 0.25769 0.43339 0.06472 0.0
H296 H 0.77 0.26858 0.47847 0.0
H297 H 0.83196 0.2543 0.43336 0.0
H298 H 0.74613 0.24595 0.39612 0.0
H299 H 0.80788 0.23155 0.35052 0.0
H300 H 0.74101 0.16775 0.24409 0.0
H301 H 0.7658 0.19022 0.32639 0.0
H302 H 0.75133 0.25317 0.29431 0.0
H303 H 0.72664 0.23087 0.21239 0.0
C304 C 0.77857 0.26065 0.45092 0.0
C305 C 0.80291 0.26327 0.46242 0.0
C306 C 0.76491 0.24778 0.40362 0.0
C307 C 0.77515 0.23701 0.36692 0.0
C308 C 0.79945 0.23949 0.37838 0.0
C309 C 0.81329 0.25266 0.42555 0.0
C310 C 0.74306 0.18635 0.25475 0.0
C311 C 0.7318 0.1975 0.22182 0.0
C312 C 0.75741 0.19927 0.30158 0.0
C313 C 0.76048 0.22343 0.3167 0.0
C314 C 0.74909 0.23447 0.28393 0.0
C315 C 0.73502 0.22172 0.2369 0.0
H316 H 0.56356 0.84231 0.73836 0.0
H317 H 0.53049 0.76834 0.82126 0.0
H318 H 0.56392 0.82147 0.65208 0.0
H319 H 0.53063 0.74757 0.73508 0.0
H320 H 0.55836 0.72376 0.58177 0.0
H321 H 0.56094 0.74591 0.66812 0.0
H322 H 0.53171 0.79048 0.58629 0.0
H323 H 0.52937 0.76863 0.50003 0.0
C324 C 0.55641 0.82164 0.73822 0.0
C325 C 0.54693 0.80698 0.78665 0.0
C326 C 0.55651 0.80969 0.68876 0.0
C327 C 0.54728 0.78287 0.68678 0.0
C328 C 0.53814 0.76831 0.73538 0.0
C329 C 0.53791 0.78021 0.7847 0.0
C330 C 0.55254 0.73833 0.58219 0.0
C331 C 0.5436 0.74438 0.53404 0.0
C332 C 0.55393 0.75093 0.63169 0.0
C333 C 0.54654 0.76995 0.634 0.0
C334 C 0.53785 0.77615 0.58572 0.0
C335 C 0.53633 0.76348 0.53635 0.0
H336 H 0.76713 0.53653 0.16115 0.0
H337 H 0.72542 0.56824 0.07627 0.0
H338 H 0.78865 0.53704 0.07562 0.0
H339 H 0.74727 0.56904 0.99072 0.0
H340 H 0.76548 0.53324 0.84074 0.0
H341 H 0.7463 0.53675 0.92632 0.0
H342 H 0.82035 0.56673 0.00772 0.0
H343 H 0.83959 0.56292 0.92194 0.0
C344 C 0.76267 0.54378 0.12432 0.0
C345 C 0.74444 0.55221 0.12548 0.0
C346 C 0.77516 0.54424 0.07537 0.0
C347 C 0.76965 0.55305 0.02639 0.0
C348 C 0.75172 0.56187 0.02769 0.0
C349 C 0.73928 0.56151 0.07674 0.0
C350 C 0.77774 0.54068 0.87678 0.0
C351 C 0.80406 0.5477 0.87456 0.0
C352 C 0.76676 0.54286 0.92577 0.0
C353 C 0.7818 0.55203 0.9738 0.0
C354 C 0.80821 0.55935 0.9715 0.0
C355 C 0.81925 0.55728 0.92233 0.0
H356 H 0.15701 0.72927 0.41294 0.0
H357 H 0.23133 0.77106 0.49449 0.0
H358 H 0.17704 0.75137 0.32697 0.0
H359 H 0.25134 0.79292 0.4084 0.0
H360 H 0.2743 0.84331 0.25304 0.0
H361 H 0.25241 0.82448 0.34019 0.0
H362 H 0.20781 0.74992 0.26127 0.0
H363 H 0.22938 0.76865 0.17447 0.0
C364 C 0.17758 0.74326 0.41264 0.0
C365 C 0.1926 0.74827 0.46051 0.0
C366 C 0.18907 0.75583 0.36332 0.0
C367 C 0.2158 0.7738 0.36083 0.0
C368 C 0.23066 0.77936 0.40907 0.0
C369 C 0.21921 0.76669 0.45833 0.0
C370 C 0.25972 0.82294 0.25429 0.0
C371 C 0.25364 0.80747 0.20685 0.0
C372 C 0.24727 0.81214 0.30423 0.0
C373 C 0.22836 0.78572 0.30759 0.0
C374 C 0.22204 0.7704 0.25991 0.0
C375 C 0.23456 0.78113 0.21021 0.0
H376 H 0.42177 0.16913 0.76802 0.0
H377 H 0.49573 0.23226 0.822 0.0
H378 H 0.4239 0.19402 0.68623 0.0
H379 H 0.49775 0.25703 0.74055 0.0
H380 H 0.50547 0.27776 0.55605 0.0
H381 H 0.50265 0.25374 0.63936 0.0
H382 H 0.42313 0.23485 0.66156 0.0
H383 H 0.42586 0.25889 0.57789 0.0
C384 C 0.43846 0.18829 0.76247 0.0
C385 C 0.45861 0.19869 0.80143 0.0
C386 C 0.43958 0.20259 0.71586 0.0
C387 C 0.461 0.22745 0.70704 0.0
C388 C 0.48112 0.23782 0.74601 0.0
C389 C 0.47989 0.22365 0.79277 0.0
C390 C 0.4874 0.2686 0.57877 0.0
C391 C 0.46589 0.27023 0.56036 0.0
C392 C 0.48584 0.25493 0.62662 0.0
C393 C 0.46266 0.24239 0.65689 0.0
C394 C 0.44116 0.24412 0.63872 0.0
C395 C 0.4428 0.25803 0.59107 0.0
H396 H 0.14356 0.422 0.51887 0.0
H397 H 0.19843 0.42545 0.63985 0.0
H398 H 0.16875 0.41658 0.44619 0.0
H399 H 0.22347 0.41982 0.56697 0.0
H400 H 0.24708 0.3855 0.42161 0.0
H401 H 0.21862 0.38597 0.49379 0.0
H402 H 0.21447 0.44743 0.40882 0.0
H403 H 0.24296 0.44719 0.33712 0.0
C404 C 0.16082 0.42132 0.53002 0.0
C405 C 0.16913 0.42431 0.58499 0.0
C406 C 0.17526 0.41832 0.4884 0.0
C407 C 0.19804 0.41786 0.50109 0.0
C408 C 0.20587 0.41994 0.55622 0.0
C409 C 0.19164 0.42331 0.59779 0.0
C410 C 0.23996 0.39899 0.41826 0.0
C411 C 0.24729 0.41636 0.37385 0.0
C412 C 0.2238 0.39931 0.45959 0.0
C413 C 0.21436 0.41669 0.45666 0.0
C414 C 0.22129 0.43367 0.41173 0.0
C415 C 0.23772 0.43363 0.37093 0.0
H416 H 0.81036 0.22754 0.69611 0.0
H417 H 0.85325 0.2892 0.81295 0.0
H418 H 0.78546 0.19863 0.77137 0.0
H419 H 0.82832 0.26022 0.88803 0.0
H420 H 0.75171 0.21229 0.98605 0.0
H421 H 0.78114 0.24007 0.91462 0.0
H422 H 0.79053 0.17671 0.85674 0.0
H423 H 0.76097 0.14871 0.92857 0.0
C424 C 0.81465 0.23484 0.73785 0.0
C425 C 0.83363 0.26071 0.74858 0.0
C426 C 0.8005 0.21824 0.78091 0.0
C427 C 0.80491 0.22726 0.8354 0.0
C428 C 0.82438 0.25288 0.84628 0.0
C429 C 0.8387 0.26941 0.80331 0.0
C430 C 0.76013 0.20427 0.95832 0.0
C431 C 0.75397 0.17829 0.96282 0.0
C432 C 0.77712 0.22025 0.91768 0.0
C433 C 0.78813 0.21053 0.88032 0.0
C434 C 0.78218 0.18461 0.88495 0.0
C435 C 0.76538 0.16867 0.92613 0.0
H436 H 0.54675 0.79723 0.0271 0.0
H437 H 0.62035 0.862 0.07775 0.0
H438 H 0.54721 0.77256 0.10612 0.0
H439 H 0.62048 0.83735 0.15812 0.0
H440 H 0.62027 0.77341 0.26874 0.0
H441 H 0.62318 0.79931 0.1881 0.0
H442 H 0.54169 0.7743 0.20392 0.0
H443 H 0.53865 0.74812 0.2831 0.0
C444 C 0.56306 0.80622 0.05514 0.0
C445 C 0.58341 0.83166 0.04645 0.0
C446 C 0.56324 0.79212 0.10066 0.0
C447 C 0.58367 0.80315 0.13887 0.0
C448 C 0.6045 0.8283 0.12929 0.0
C449 C 0.60439 0.84242 0.08339 0.0
C450 C 0.60304 0.77359 0.25505 0.0
C451 C 0.57918 0.75853 0.28192 0.0
C452 C 0.60473 0.78847 0.20901 0.0
C453 C 0.58259 0.78857 0.1892 0.0
C454 C 0.55897 0.77414 0.2173 0.0
C455 C 0.55726 0.75925 0.26294 0.0
H456 H 0.76752 0.57785 0.35109 0.0
H457 H 0.70802 0.55833 0.47381 0.0
H458 H 0.7976 0.58082 0.42282 0.0
H459 H 0.73817 0.56144 0.54535 0.0
H460 H 0.78756 0.5341 0.63906 0.0
H461 H 0.75876 0.53495 0.56905 0.0
H462 H 0.82126 0.60714 0.50645 0.0
H463 H 0.8503 0.60632 0.57662 0.0
C464 C 0.76093 0.57442 0.39338 0.0
C465 C 0.73534 0.5677 0.40675 0.0
C466 C 0.7782 0.57626 0.43443 0.0
C467 C 0.77015 0.57122 0.48955 0.0
C468 C 0.74478 0.56512 0.50307 0.0
C469 C 0.72757 0.56347 0.46212 0.0
C470 C 0.79521 0.55019 0.61044 0.0
C471 C 0.82123 0.57014 0.61332 0.0
C472 C 0.77864 0.55075 0.5706 0.0
C473 C 0.78776 0.57117 0.53251 0.0
C474 C 0.81378 0.59111 0.53518 0.0
C475 C 0.83035 0.59067 0.57543 0.0
H476 H 0.16944 0.72192 0.75135 0.0
H477 H 0.17907 0.79276 0.68043 0.0
H478 H 0.19062 0.7451 0.83508 0.0
H479 H 0.20103 0.81621 0.76417 0.0
H480 H 0.22092 0.84528 0.9426 0.0
H481 H 0.19538 0.82132 0.86236 0.0
H482 H 0.23418 0.77641 0.86121 0.0
H483 H 0.25906 0.79971 0.94157 0.0
C484 C 0.17612 0.74248 0.75359 0.0
C485 C 0.17278 0.75556 0.70904 0.0
C486 C 0.18837 0.75579 0.80157 0.0
C487 C 0.19778 0.78255 0.80608 0.0
C488 C 0.19382 0.79555 0.76213 0.0
C489 C 0.18138 0.78215 0.71406 0.0
C490 C 0.22383 0.83016 0.92536 0.0
C491 C 0.24196 0.82435 0.94856 0.0
C492 C 0.20933 0.81656 0.87922 0.0
C493 C 0.21268 0.7969 0.85553 0.0
C494 C 0.23076 0.7911 0.87899 0.0
C495 C 0.24516 0.8046 0.92497 0.0
H496 H 0.41412 0.18626 0.03349 0.0
H497 H 0.43248 0.14189 0.14702 0.0
H498 H 0.40986 0.21018 0.11045 0.0
H499 H 0.42828 0.16595 0.2239 0.0
H500 H 0.45766 0.24299 0.32357 0.0
H501 H 0.45562 0.21341 0.25196 0.0
H502 H 0.38232 0.20359 0.19651 0.0
H503 H 0.38423 0.2332 0.2686 0.0
C504 C 0.41701 0.18145 0.07489 0.0
C505 C 0.42381 0.16232 0.08422 0.0
C506 C 0.41439 0.19502 0.1189 0.0
C507 C 0.41882 0.18993 0.17298 0.0
C508 C 0.42495 0.17035 0.18248 0.0
C509 C 0.42725 0.15654 0.13852 0.0
C510 C 0.44099 0.23438 0.29642 0.0
C511 C 0.42115 0.24049 0.30151 0.0
C512 C 0.43975 0.21731 0.2557 0.0
C513 C 0.41881 0.20624 0.21883 0.0
C514 C 0.39873 0.21199 0.22436 0.0
C515 C 0.39979 0.22883 0.26567 0.0
H516 H 0.38261 0.50549 0.24953 0.0
H517 H 0.34095 0.53769 0.33275 0.0
H518 H 0.42359 0.54235 0.27921 0.0
H519 H 0.38206 0.57448 0.3629 0.0
H520 H 0.46333 0.6484 0.3599 0.0
H521 H 0.4218 0.61296 0.32749 0.0
H522 H 0.44663 0.55809 0.36763 0.0
H523 H 0.48815 0.59341 0.39949 0.0
C524 C 0.38217 0.52051 0.27382 0.0
C525 C 0.35848 0.51858 0.28894 0.0
C526 C 0.40567 0.54154 0.29118 0.0
C527 C 0.40605 0.56118 0.32386 0.0
C528 C 0.3824 0.5597 0.33753 0.0
C529 C 0.35886 0.53858 0.32038 0.0
C530 C 0.45988 0.62876 0.36203 0.0
C531 C 0.47909 0.62374 0.38217 0.0
C532 C 0.43606 0.60847 0.34361 0.0
C533 C 0.43102 0.58277 0.34462 0.0
C534 C 0.4501 0.57774 0.36549 0.0
C535 C 0.47382 0.59798 0.38416 0.0
H536 H 0.86673 0.48089 0.73998 0.0
H537 H 0.78576 0.44373 0.69428 0.0
H538 H 0.86704 0.44099 0.71994 0.0
H539 H 0.78622 0.40379 0.67386 0.0
H540 H 0.79311 0.33007 0.69698 0.0
H541 H 0.79127 0.36901 0.72027 0.0
H542 H 0.86381 0.41603 0.63555 0.0
H543 H 0.86581 0.37726 0.61254 0.0
C544 C 0.84894 0.46417 0.72599 0.0
C545 C 0.82623 0.46553 0.71855 0.0
C546 C 0.84919 0.44137 0.71414 0.0
C547 C 0.82672 0.41934 0.69489 0.0
C548 C 0.8038 0.42043 0.6889 0.0
C549 C 0.80358 0.44333 0.70042 0.0
C550 C 0.80863 0.34871 0.6832 0.0
C551 C 0.82963 0.35057 0.653 0.0
C552 C 0.8075 0.37098 0.69637 0.0
C553 C 0.82746 0.39557 0.68001 0.0
C554 C 0.84833 0.39738 0.6494 0.0
C555 C 0.84937 0.37514 0.6359 0.0
H556 H 0.47491 0.85062 0.89674 0.0
H557 H 0.47509 0.82771 0.06537 0.0
H558 H 0.43299 0.84759 0.91171 0.0
H559 H 0.43301 0.82436 0.08 0.0
H560 H 0.37474 0.85386 0.09967 0.0
H561 H 0.41528 0.85375 0.08606 0.0
H562 H 0.38734 0.81551 0.92944 0.0
H563 H 0.34698 0.81591 0.94258 0.0
C564 C 0.46594 0.84476 0.93687 0.0
C565 C 0.47839 0.83948 0.97989 0.0
C566 C 0.44184 0.84288 0.94536 0.0
C567 C 0.4297 0.83576 0.99708 0.0
C568 C 0.44201 0.83019 0.03989 0.0
C569 C 0.46606 0.83198 0.03136 0.0
C570 C 0.37717 0.84528 0.0625 0.0
C571 C 0.35767 0.83501 0.02211 0.0
C572 C 0.40036 0.84511 0.05482 0.0
C573 C 0.40456 0.83473 0.00654 0.0
C574 C 0.38483 0.82399 0.96671 0.0
C575 C 0.36164 0.82409 0.97444 0.0
H576 H 0.6227 0.48086 0.23099 0.0
H577 H 0.65909 0.46475 0.36738 0.0
H578 H 0.58271 0.44011 0.24767 0.0
H579 H 0.61899 0.42391 0.38388 0.0
H580 H 0.53222 0.37204 0.4345 0.0
H581 H 0.57395 0.41089 0.41647 0.0
H582 H 0.56564 0.39231 0.24331 0.0
H583 H 0.52395 0.35357 0.26109 0.0
C584 C 0.62224 0.46854 0.26427 0.0
C585 C 0.64407 0.47607 0.2979 0.0
C586 C 0.59936 0.44515 0.27364 0.0
C587 C 0.59773 0.42887 0.31714 0.0
C588 C 0.61964 0.4362 0.35037 0.0
C589 C 0.64263 0.45951 0.34067 0.0
C590 C 0.53935 0.37618 0.39262 0.0
C591 C 0.52472 0.35977 0.34921 0.0
C592 C 0.56331 0.39834 0.38237 0.0
C593 C 0.573 0.40464 0.32846 0.0
C594 C 0.55852 0.38807 0.28519 0.0
C595 C 0.5347 0.36582 0.29547 0.0
H596 H 0.18997 0.65487 0.7022 0.0
H597 H 0.14619 0.62477 0.55186 0.0
H598 H 0.19159 0.61503 0.71338 0.0
H599 H 0.14761 0.58483 0.56347 0.0
H600 H 0.17444 0.52552 0.57689 0.0
H601 H 0.17762 0.56759 0.56343 0.0
H602 H 0.16019 0.56944 0.73523 0.0
H603 H 0.1573 0.52753 0.74897 0.0
C604 C 0.18084 0.63985 0.67131 0.0
C605 C 0.16786 0.64297 0.62621 0.0
C606 C 0.18164 0.61696 0.67794 0.0
C607 C 0.16962 0.59674 0.63948 0.0
C608 C 0.15727 0.60015 0.59356 0.0
C609 C 0.15635 0.62299 0.58705 0.0
C610 C 0.17143 0.53495 0.6119 0.0
C611 C 0.16553 0.52312 0.66399 0.0
C612 C 0.17314 0.55901 0.60408 0.0
C613 C 0.16909 0.5718 0.64821 0.0
C614 C 0.1637 0.56021 0.70053 0.0
C615 C 0.16191 0.53612 0.70832 0.0
H616 H 0.62388 0.15582 0.10985 0.0
H617 H 0.64152 0.17039 0.93663 0.0
H618 H 0.58409 0.15744 0.09569 0.0
H619 H 0.60187 0.17213 0.92273 0.0
H620 H 0.51354 0.13994 0.91173 0.0
H621 H 0.55442 0.14063 0.92615 0.0
H622 H 0.5696 0.18892 0.06958 0.0
H623 H 0.52862 0.18818 0.05542 0.0
C624 C 0.61935 0.1595 0.06886 0.0
C625 C 0.63582 0.16289 0.02435 0.0
C626 C 0.59664 0.16056 0.06082 0.0
C627 C 0.58984 0.16482 0.00806 0.0
C628 C 0.60646 0.16851 0.96373 0.0
C629 C 0.62925 0.16765 0.97181 0.0
C630 C 0.52561 0.15078 0.94626 0.0
C631 C 0.51782 0.164 0.98244 0.0
C632 C 0.54909 0.15127 0.95433 0.0
C633 C 0.5652 0.16484 -0.00101 0.0
C634 C 0.55746 0.17812 0.0351 0.0
C635 C 0.53407 0.17781 0.02677 0.0
loop_
_geom_bond_atom_site_label_1
_geom_bond_atom_site_label_2
_geom_bond_distance
_geom_bond_site_symmetry_2
_ccdc_geom_bond_type
C0 O1 1.160 . S
C0 O7 1.185 . S
O1 C0 1.160 . S
O2 Zn3 1.899 . S
O2 C10 1.284 . S
Zn3 O2 1.899 . S
Zn3 O4 2.032 . S
Zn3 O7 2.086 . S
Zn3 O12 1.977 . S
O4 Zn3 2.032 . S
O4 C8 1.278 . S
C5 O6 1.203 . S
C5 O12 1.267 . S
O6 C5 1.203 . S
O7 C0 1.185 . S
O7 Zn3 2.086 . S
C8 O4 1.278 . S
C8 O9 1.211 . S
O9 C8 1.211 . S
C10 O2 1.284 . S
C10 O11 1.273 . S
O11 C10 1.273 . S
O12 Zn3 1.977 . S
O12 C5 1.267 . S
C13 O14 1.160 . S
C13 O20 1.185 . S
O14 C13 1.160 . S
O15 Zn16 1.899 . S
O15 C23 1.284 . S
Zn16 O15 1.899 . S
Zn16 O17 2.032 . S
Zn16 O20 2.086 . S
Zn16 O25 1.977 . S
O17 Zn16 2.032 . S
O17 C21 1.278 . S
C18 O19 1.203 . S
C18 O25 1.267 . S
O19 C18 1.203 . S
O20 C13 1.185 . S
O20 Zn16 2.086 . S
C21 O17 1.278 . S
C21 O22 1.211 . S
O22 C21 1.211 . S
C23 O15 1.284 . S
C23 O24 1.273 . S
O24 C23 1.273 . S
O25 Zn16 1.977 . S
O25 C18 1.267 . S
C26 O27 1.160 . S
C26 O33 1.185 . S
O27 C26 1.160 . S
O28 Zn29 1.899 . S
O28 C36 1.284 . S
Zn29 O28 1.899 . S
Zn29 O30 2.032 . S
Zn29 O33 2.086 . S
Zn29 O38 1.977 . S
O30 Zn29 2.032 . S
O30 C34 1.278 1_556 S
C31 O32 1.203 . S
C31 O38 1.267 . S
O32 C31 1.203 . S
O33 C26 1.185 . S
O33 Zn29 2.086 . S
C34 O30 1.278 1_554 S
C34 O35 1.211 . S
O35 C34 1.211 . S
C36 O28 1.284 . S
C36 O37 1.273 1_556 S
O37 C36 1.273 1_554 S
O38 Zn29 1.977 . S
O38 C31 1.267 . S
C39 O40 1.160 . S
C39 O46 1.185 . S
O40 C39 1.160 . S
O41 Zn42 1.899 . S
O41 C49 1.284 . S
Zn42 O41 1.899 . S
Zn42 O43 2.032 . S
Zn42 O46 2.086 . S
Zn42 O51 1.977 . S
O43 Zn42 2.032 . S
O43 C47 1.278 . S
C44 O45 1.203 . S
C44 O51 1.267 . S
O45 C44 1.203 . S
O46 C39 1.185 . S
O46 Zn42 2.086 . S
C47 O43 1.278 . S
C47 O48 1.211 . S
O48 C47 1.211 . S
C49 O41 1.284 . S
C49 O50 1.273 . S
O50 C49 1.273 . S
O51 Zn42 1.977 . S
O51 C44 1.267 . S
C52 O53 1.160 . S
C52 O59 1.185 . S
O53 C52 1.160 . S
O54 Zn55 1.899 . S
O54 C62 1.284 . S
Zn55 O54 1.899 . S
Zn55 O56 2.032 . S
Zn55 O59 2.086 . S
Zn55 O64 1.977 . S
O56 Zn55 2.032 . S
O56 C60 1.278 . S
C57 O58 1.203 . S
C57 O64 1.267 . S
O58 C57 1.203 . S
O59 C52 1.185 . S
O59 Zn55 2.086 . S
C60 O56 1.278 . S
C60 O61 1.211 . S
O61 C60 1.211 . S
C62 O54 1.284 . S
C62 O63 1.273 . S
O63 C62 1.273 . S
O64 Zn55 1.977 . S
O64 C57 1.267 . S
C65 O66 1.160 . S
C65 O72 1.185 . S
O66 C65 1.160 . S
O67 Zn68 1.899 . S
O67 C75 1.284 . S
Zn68 O67 1.899 . S
Zn68 O69 2.032 . S
Zn68 O72 2.086 . S
Zn68 O77 1.977 . S
O69 Zn68 2.032 . S
O69 C73 1.278 1_556 S
C70 O71 1.203 . S
C70 O77 1.267 . S
O71 C70 1.203 . S
O72 C65 1.185 . S
O72 Zn68 2.086 . S
C73 O69 1.278 1_554 S
C73 O74 1.211 . S
O74 C73 1.211 . S
C75 O67 1.284 . S
C75 O76 1.273 1_556 S
O76 C75 1.273 1_554 S
O77 Zn68 1.977 . S
O77 C70 1.267 . S
C78 O79 1.160 . S
C78 O85 1.185 . S
O79 C78 1.160 . S
O80 Zn81 1.899 . S
O80 C88 1.284 . S
Zn81 O80 1.899 . S
Zn81 O82 2.032 . S
Zn81 O85 2.086 . S
Zn81 O90 1.977 . S
O82 Zn81 2.032 . S
O82 C86 1.278 . S
C83 O84 1.203 . S
C83 O90 1.267 . S
O84 C83 1.203 . S
O85 C78 1.185 . S
O85 Zn81 2.086 . S
C86 O82 1.278 . S
C86 O87 1.211 . S
O87 C86 1.211 . S
C88 O80 1.284 . S
C88 O89 1.273 . S
O89 C88 1.273 . S
O90 Zn81 1.977 . S
O90 C83 1.267 . S
C91 O92 1.160 . S
C91 O98 1.185 . S
O92 C91 1.160 . S
O93 Zn94 1.899 . S
O93 C101 1.284 . S
Zn94 O93 1.899 . S
Zn94 O95 2.032 . S
Zn94 O98 2.086 . S
Zn94 O103 1.977 . S
O95 Zn94 2.032 . S
O95 C99 1.278 . S
C96 O97 1.203 . S
C96 O103 1.267 . S
O97 C96 1.203 . S
O98 C91 1.185 . S
O98 Zn94 2.086 . S
C99 O95 1.278 . S
C99 O100 1.211 . S
O100 C99 1.211 . S
C101 O93 1.284 . S
C101 O102 1.273 . S
O102 C101 1.273 . S
O103 Zn94 1.977 . S
O103 C96 1.267 . S
C104 O105 1.160 . S
C104 O111 1.185 . S
O105 C104 1.160 . S
O106 Zn107 1.899 . S
O106 C114 1.284 . S
Zn107 O106 1.899 . S
Zn107 O108 2.032 . S
Zn107 O111 2.086 . S
Zn107 O116 1.977 . S
O108 Zn107 2.032 . S
O108 C112 1.278 1_554 S
C109 O110 1.203 . S
C109 O116 1.267 . S
O110 C109 1.203 . S
O111 C104 1.185 . S
O111 Zn107 2.086 . S
C112 O108 1.278 1_556 S
C112 O113 1.211 . S
O113 C112 1.211 . S
C114 O106 1.284 . S
C114 O115 1.273 1_554 S
O115 C114 1.273 1_556 S
O116 Zn107 1.977 . S
O116 C109 1.267 . S
C117 O118 1.160 . S
C117 O124 1.185 . S
O118 C117 1.160 . S
O119 Zn120 1.899 . S
O119 C127 1.284 . S
Zn120 O119 1.899 . S
Zn120 O121 2.032 . S
Zn120 O124 2.086 . S
Zn120 O129 1.977 . S
O121 Zn120 2.032 . S
O121 C125 1.278 . S
C122 O123 1.203 . S
C122 O129 1.267 . S
O123 C122 1.203 . S
O124 C117 1.185 . S
O124 Zn120 2.086 . S
C125 O121 1.278 . S
C125 O126 1.211 . S
O126 C125 1.211 . S
C127 O119 1.284 . S
C127 O128 1.273 . S
O128 C127 1.273 . S
O129 Zn120 1.977 . S
O129 C122 1.267 . S
C130 O131 1.160 . S
C130 O137 1.185 . S
O131 C130 1.160 . S
O132 Zn133 1.899 . S
O132 C140 1.284 . S
Zn133 O132 1.899 . S
Zn133 O134 2.032 . S
Zn133 O137 2.086 . S
Zn133 O142 1.977 . S
O134 Zn133 2.032 . S
O134 C138 1.278 . S
C135 O136 1.203 . S
C135 O142 1.267 . S
O136 C135 1.203 . S
O137 C130 1.185 . S
O137 Zn133 2.086 . S
C138 O134 1.278 . S
C138 O139 1.211 . S
O139 C138 1.211 . S
C140 O132 1.284 . S
C140 O141 1.273 . S
O141 C140 1.273 . S
O142 Zn133 1.977 . S
O142 C135 1.267 . S
C143 O144 1.160 . S
C143 O150 1.185 . S
O144 C143 1.160 . S
O145 Zn146 1.899 . S
O145 C153 1.284 . S
Zn146 O145 1.899 . S
Zn146 O147 2.032 . S
Zn146 O150 2.086 . S
Zn146 O155 1.977 . S
O147 Zn146 2.032 . S
O147 C151 1.278 1_554 S
C148 O149 1.203 . S
C148 O155 1.267 . S
O149 C148 1.203 . S
O150 C143 1.185 . S
O150 Zn146 2.086 . S
C151 O147 1.278 1_556 S
C151 O152 1.211 . S
O152 C151 1.211 . S
C153 O145 1.284 . S
C153 O154 1.273 1_554 S
O154 C153 1.273 1_556 S
O155 Zn146 1.977 . S
O155 C148 1.267 . S
H156 C164 0.950 . S
H157 C169 0.950 . S
H158 C166 0.950 . S
H159 C168 0.950 . S
H160 C170 0.950 . S
H161 C172 0.950 . S
H162 C174 0.950 . S
H163 C175 0.950 . S
C164 H156 0.950 . S
C164 C165 1.386 . S
C164 C166 1.391 . S
C165 C164 1.386 . S
C165 C169 1.393 . S
C166 H158 0.950 . S
C166 C164 1.391 . S
C166 C167 1.400 . S
C167 C166 1.400 . S
C167 C168 1.398 . S
C167 C173 1.491 . S
C168 H159 0.950 . S
C168 C167 1.398 . S
C168 C169 1.391 . S
C169 H157 0.950 . S
C169 C165 1.393 . S
C169 C168 1.391 . S
C170 H160 0.950 . S
C170 C171 1.386 . S
C170 C172 1.391 . S
C171 C170 1.386 . S
C171 C175 1.393 . S
C172 H161 0.950 . S
C172 C170 1.391 . S
C172 C173 1.400 . S
C173 C167 1.491 . S
C173 C172 1.400 . S
C173 C174 1.398 . S
C174 H162 0.950 . S
C174 C173 1.398 . S
C174 C175 1.391 . S
C175 H163 0.950 . S
C175 C171 1.393 . S
C175 C174 1.391 . S
H176 C184 0.950 . S
H177 C189 0.950 . S
H178 C186 0.950 . S
H179 C188 0.950 . S
H180 C190 0.950 . S
H181 C192 0.950 . S
H182 C194 0.950 . S
H183 C195 0.950 . S
C184 H176 0.950 . S
C184 C185 1.386 . S
C184 C186 1.391 . S
C185 C184 1.386 . S
C185 C189 1.393 . S
C186 H178 0.950 . S
C186 C184 1.391 . S
C186 C187 1.400 . S
C187 C186 1.400 . S
C187 C188 1.398 . S
C187 C193 1.491 1_655 S
C188 H179 0.950 . S
C188 C187 1.398 . S
C188 C189 1.391 . S
C189 H177 0.950 . S
C189 C185 1.393 . S
C189 C188 1.391 . S
C190 H180 0.950 . S
C190 C191 1.386 . S
C190 C192 1.391 . S
C191 C190 1.386 . S
C191 C195 1.393 . S
C192 H181 0.950 . S
C192 C190 1.391 . S
C192 C193 1.400 . S
C193 C187 1.491 1_455 S
C193 C192 1.400 . S
C193 C194 1.398 . S
C194 H182 0.950 . S
C194 C193 1.398 . S
C194 C195 1.391 . S
C195 H183 0.950 . S
C195 C191 1.393 . S
C195 C194 1.391 . S
H196 C204 0.950 . S
H197 C209 0.950 . S
H198 C206 0.950 . S
H199 C208 0.950 . S
H200 C210 0.950 . S
H201 C212 0.950 . S
H202 C214 0.950 . S
H203 C215 0.950 . S
C204 H196 0.950 . S
C204 C205 1.386 . S
C204 C206 1.391 . S
C205 C204 1.386 . S
C205 C209 1.393 1_556 S
C206 H198 0.950 . S
C206 C204 1.391 . S
C206 C207 1.400 . S
C207 C206 1.400 . S
C207 C208 1.398 1_556 S
C207 C213 1.491 1_566 S
C208 H199 0.950 . S
C208 C207 1.398 1_554 S
C208 C209 1.391 . S
C209 H197 0.950 . S
C209 C205 1.393 1_554 S
C209 C208 1.391 . S
C210 H200 0.950 . S
C210 C211 1.386 . S
C210 C212 1.391 . S
C211 C210 1.386 . S
C211 C215 1.393 1_554 S
C212 H201 0.950 . S
C212 C210 1.391 . S
C212 C213 1.400 . S
C213 C207 1.491 1_544 S
C213 C212 1.400 . S
C213 C214 1.398 1_554 S
C214 H202 0.950 . S
C214 C213 1.398 1_556 S
C214 C215 1.391 . S
C215 H203 0.950 . S
C215 C211 1.393 1_556 S
C215 C214 1.391 . S
H216 C224 0.950 . S
H217 C229 0.950 . S
H218 C226 0.950 . S
H219 C228 0.950 . S
H220 C230 0.950 . S
H221 C232 0.950 . S
H222 C234 0.950 . S
H223 C235 0.950 . S
C224 H216 0.950 . S
C224 C225 1.386 . S
C224 C226 1.391 . S
C225 C224 1.386 . S
C225 C229 1.393 . S
C226 H218 0.950 . S
C226 C224 1.391 . S
C226 C227 1.400 . S
C227 C226 1.400 . S
C227 C228 1.398 . S
C227 C233 1.491 . S
C228 H219 0.950 . S
C228 C227 1.398 . S
C228 C229 1.391 . S
C229 H217 0.950 . S
C229 C225 1.393 . S
C229 C228 1.391 . S
C230 H220 0.950 . S
C230 C231 1.386 . S
C230 C232 1.391 . S
C231 C230 1.386 . S
C231 C235 1.393 . S
C232 H221 0.950 . S
C232 C230 1.391 . S
C232 C233 1.400 . S
C233 C227 1.491 . S
C233 C232 1.400 . S
C233 C234 1.398 . S
C234 H222 0.950 . S
C234 C233 1.398 . S
C234 C235 1.391 . S
C235 H223 0.950 . S
C235 C231 1.393 . S
C235 C234 1.391 . S
H236 C244 0.950 . S
H237 C249 0.950 . S
H238 C246 0.950 . S
H239 C248 0.950 . S
H240 C250 0.950 . S
H241 C252 0.950 . S
H242 C254 0.950 . S
H243 C255 0.950 . S
C244 H236 0.950 . S
C244 C245 1.386 . S
C244 C246 1.391 . S
C245 C244 1.386 . S
C245 C249 1.393 . S
C246 H238 0.950 . S
C246 C244 1.391 . S
C246 C247 1.400 . S
C247 C246 1.400 . S
C247 C248 1.398 . S
C247 C253 1.491 1_655 S
C248 H239 0.950 . S
C248 C247 1.398 . S
C248 C249 1.391 . S
C249 H237 0.950 . S
C249 C245 1.393 . S
C249 C248 1.391 . S
C250 H240 0.950 . S
C250 C251 1.386 . S
C250 C252 1.391 . S
C251 C250 1.386 . S
C251 C255 1.393 . S
C252 H241 0.950 . S
C252 C250 1.391 . S
C252 C253 1.400 . S
C253 C247 1.491 1_455 S
C253 C252 1.400 . S
C253 C254 1.398 . S
C254 H242 0.950 . S
C254 C253 1.398 . S
C254 C255 1.391 . S
C255 H243 0.950 . S
C255 C251 1.393 . S
C255 C254 1.391 . S
H256 C264 0.945 1_556 S
H257 C269 0.950 . S
H258 C266 0.950 . S
H259 C268 0.950 . S
H260 C270 0.945 1_554 S
H261 C272 0.950 . S
H262 C274 0.950 . S
H263 C275 0.950 . S
C264 H256 0.945 1_554 S
C264 C265 1.393 . S
C264 C266 1.388 1_554 S
C265 C264 1.393 . S
C265 C269 1.393 . S
C266 H258 0.950 . S
C266 C264 1.388 1_556 S
C266 C267 1.400 1_556 S
C267 C266 1.400 1_554 S
C267 C268 1.398 . S
C267 C273 1.491 1_564 S
C268 H259 0.950 . S
C268 C267 1.398 . S
C268 C269 1.391 . S
C269 H257 0.950 . S
C269 C265 1.393 . S
C269 C268 1.391 . S
C270 H260 0.945 1_556 S
C270 C271 1.394 . S
C270 C272 1.388 1_556 S
C271 C270 1.394 . S
C271 C275 1.393 . S
C272 H261 0.950 . S
C272 C270 1.388 1_554 S
C272 C273 1.400 1_554 S
C273 C267 1.491 1_546 S
C273 C272 1.400 1_556 S
C273 C274 1.398 . S
C274 H262 0.950 . S
C274 C273 1.398 . S
C274 C275 1.391 . S
C275 H263 0.950 . S
C275 C271 1.393 . S
C275 C274 1.391 . S
H276 C284 0.950 . S
H277 C289 0.950 . S
H278 C286 0.950 . S
H279 C288 0.950 1_554 S
H280 C290 0.950 . S
H281 C292 0.950 . S
H282 C294 0.950 1_556 S
H283 C295 0.950 . S
C284 H276 0.950 . S
C284 C285 1.386 . S
C284 C286 1.391 . S
C285 C284 1.386 . S
C285 C289 1.393 . S
C286 H278 0.950 . S
C286 C284 1.391 . S
C286 C287 1.400 . S
C287 C286 1.400 . S
C287 C288 1.398 . S
C287 C293 1.491 1_556 S
C288 H279 0.950 1_556 S
C288 C287 1.398 . S
C288 C289 1.391 . S
C289 H277 0.950 . S
C289 C285 1.393 . S
C289 C288 1.391 . S
C290 H280 0.950 . S
C290 C291 1.386 . S
C290 C292 1.391 . S
C291 C290 1.386 . S
C291 C295 1.393 . S
C292 H281 0.950 . S
C292 C290 1.391 . S
C292 C293 1.400 . S
C293 C287 1.491 1_554 S
C293 C292 1.400 . S
C293 C294 1.398 . S
C294 H282 0.950 1_554 S
C294 C293 1.398 . S
C294 C295 1.391 . S
C295 H283 0.950 . S
C295 C291 1.393 . S
C295 C294 1.391 . S
H296 C304 0.950 . S
H297 C309 0.950 . S
H298 C306 0.950 . S
H299 C308 0.950 . S
H300 C310 0.950 . S
H301 C312 0.950 . S
H302 C314 0.950 . S
H303 C315 0.950 . S
C304 H296 0.950 . S
C304 C305 1.386 . S
C304 C306 1.391 . S
C305 C304 1.386 . S
C305 C309 1.393 . S
C306 H298 0.950 . S
C306 C304 1.391 . S
C306 C307 1.400 . S
C307 C306 1.400 . S
C307 C308 1.398 . S
C307 C313 1.491 . S
C308 H299 0.950 . S
C308 C307 1.398 . S
C308 C309 1.391 . S
C309 H297 0.950 . S
C309 C305 1.393 . S
C309 C308 1.391 . S
C310 H300 0.950 . S
C310 C311 1.386 . S
C310 C312 1.391 . S
C311 C310 1.386 . S
C311 C315 1.393 . S
C312 H301 0.950 . S
C312 C310 1.391 . S
C312 C313 1.400 . S
C313 C307 1.491 . S
C313 C312 1.400 . S
C313 C314 1.398 . S
C314 H302 0.950 . S
C314 C313 1.398 . S
C314 C315 1.391 . S
C315 H303 0.950 . S
C315 C311 1.393 . S
C315 C314 1.391 . S
H316 C324 0.950 . S
H317 C329 0.950 . S
H318 C326 0.950 . S
H319 C328 0.950 . S
H320 C330 0.950 . S
H321 C332 0.950 . S
H322 C334 0.950 . S
H323 C335 0.950 . S
C324 H316 0.950 . S
C324 C325 1.386 . S
C324 C326 1.391 . S
C325 C324 1.386 . S
C325 C329 1.393 . S
C326 H318 0.950 . S
C326 C324 1.391 . S
C326 C327 1.400 . S
C327 C326 1.400 . S
C327 C328 1.398 . S
C327 C333 1.491 . S
C328 H319 0.950 . S
C328 C327 1.398 . S
C328 C329 1.391 . S
C329 H317 0.950 . S
C329 C325 1.393 . S
C329 C328 1.391 . S
C330 H320 0.950 . S
C330 C331 1.386 . S
C330 C332 1.391 . S
C331 C330 1.386 . S
C331 C335 1.393 . S
C332 H321 0.950 . S
C332 C330 1.391 . S
C332 C333 1.400 . S
C333 C327 1.491 . S
C333 C332 1.400 . S
C333 C334 1.398 . S
C334 H322 0.950 . S
C334 C333 1.398 . S
C334 C335 1.391 . S
C335 H323 0.950 . S
C335 C331 1.393 . S
C335 C334 1.391 . S
H336 C344 0.950 . S
H337 C349 0.950 . S
H338 C346 0.950 . S
H339 C348 0.950 1_556 S
H340 C350 0.950 . S
H341 C352 0.950 . S
H342 C354 0.950 1_554 S
H343 C355 0.950 . S
C344 H336 0.950 . S
C344 C345 1.386 . S
C344 C346 1.391 . S
C345 C344 1.386 . S
C345 C349 1.393 . S
C346 H338 0.950 . S
C346 C344 1.391 . S
C346 C347 1.400 . S
C347 C346 1.400 . S
C347 C348 1.398 . S
C347 C353 1.491 1_554 S
C348 H339 0.950 1_554 S
C348 C347 1.398 . S
C348 C349 1.391 . S
C349 H337 0.950 . S
C349 C345 1.393 . S
C349 C348 1.391 . S
C350 H340 0.950 . S
C350 C351 1.386 . S
C350 C352 1.391 . S
C351 C350 1.386 . S
C351 C355 1.393 . S
C352 H341 0.950 . S
C352 C350 1.391 . S
C352 C353 1.400 . S
C353 C347 1.491 1_556 S
C353 C352 1.400 . S
C353 C354 1.398 . S
C354 H342 0.950 1_556 S
C354 C353 1.398 . S
C354 C355 1.391 . S
C355 H343 0.950 . S
C355 C351 1.393 . S
C355 C354 1.391 . S
H356 C364 0.950 . S
H357 C369 0.950 . S
H358 C366 0.950 . S
H359 C368 0.950 . S
H360 C370 0.950 . S
H361 C372 0.950 . S
H362 C374 0.950 . S
H363 C375 0.950 . S
C364 H356 0.950 . S
C364 C365 1.386 . S
C364 C366 1.391 . S
C365 C364 1.386 . S
C365 C369 1.393 . S
C366 H358 0.950 . S
C366 C364 1.391 . S
C366 C367 1.400 . S
C367 C366 1.400 . S
C367 C368 1.398 . S
C367 C373 1.491 . S
C368 H359 0.950 . S
C368 C367 1.398 . S
C368 C369 1.391 . S
C369 H357 0.950 . S
C369 C365 1.393 . S
C369 C368 1.391 . S
C370 H360 0.950 . S
C370 C371 1.386 . S
C370 C372 1.391 . S
C371 C370 1.386 . S
C371 C375 1.393 . S
C372 H361 0.950 . S
C372 C370 1.391 . S
C372 C373 1.400 . S
C373 C367 1.491 . S
C373 C372 1.400 . S
C373 C374 1.398 . S
C374 H362 0.950 . S
C374 C373 1.398 . S
C374 C375 1.391 . S
C375 H363 0.950 . S
C375 C371 1.393 . S
C375 C374 1.391 . S
H376 C384 0.950 . S
H377 C389 0.950 . S
H378 C386 0.950 . S
H379 C388 0.950 . S
H380 C390 0.950 . S
H381 C392 0.950 . S
H382 C394 0.950 . S
H383 C395 0.950 . S
C384 H376 0.950 . S
C384 C385 1.386 . S
C384 C386 1.391 . S
C385 C384 1.386 . S
C385 C389 1.393 . S
C386 H378 0.950 . S
C386 C384 1.391 . S
C386 C387 1.400 . S
C387 C386 1.400 . S
C387 C388 1.398 . S
C387 C393 1.491 . S
C388 H379 0.950 . S
C388 C387 1.398 . S
C388 C389 1.391 . S
C389 H377 0.950 . S
C389 C385 1.393 . S
C389 C388 1.391 . S
C390 H380 0.950 . S
C390 C391 1.386 . S
C390 C392 1.391 . S
C391 C390 1.386 . S
C391 C395 1.393 . S
C392 H381 0.950 . S
C392 C390 1.391 . S
C392 C393 1.400 . S
C393 C387 1.491 . S
C393 C392 1.400 . S
C393 C394 1.398 . S
C394 H382 0.950 . S
C394 C393 1.398 . S
C394 C395 1.391 . S
C395 H383 0.950 . S
C395 C391 1.393 . S
C395 C394 1.391 . S
H396 C404 0.950 . S
H397 C409 0.950 . S
H398 C406 0.950 . S
H399 C408 0.950 . S
H400 C410 0.950 . S
H401 C412 0.950 . S
H402 C414 0.950 . S
H403 C415 0.950 . S
C404 H396 0.950 . S
C404 C405 1.386 . S
C404 C406 1.391 . S
C405 C404 1.386 . S
C405 C409 1.393 . S
C406 H398 0.950 . S
C406 C404 1.391 . S
C406 C407 1.400 . S
C407 C406 1.400 . S
C407 C408 1.398 . S
C407 C413 1.491 . S
C408 H399 0.950 . S
C408 C407 1.398 . S
C408 C409 1.391 . S
C409 H397 0.950 . S
C409 C405 1.393 . S
C409 C408 1.391 . S
C410 H400 0.950 . S
C410 C411 1.386 . S
C410 C412 1.391 . S
C411 C410 1.386 . S
C411 C415 1.393 . S
C412 H401 0.950 . S
C412 C410 1.391 . S
C412 C413 1.400 . S
C413 C407 1.491 . S
C413 C412 1.400 . S
C413 C414 1.398 . S
C414 H402 0.950 . S
C414 C413 1.398 . S
C414 C415 1.391 . S
C415 H403 0.950 . S
C415 C411 1.393 . S
C415 C414 1.391 . S
H416 C424 0.950 . S
H417 C429 0.950 . S
H418 C426 0.950 . S
H419 C428 0.950 . S
H420 C430 0.950 . S
H421 C432 0.950 . S
H422 C434 0.950 . S
H423 C435 0.950 . S
C424 H416 0.950 . S
C424 C425 1.386 . S
C424 C426 1.391 . S
C425 C424 1.386 . S
C425 C429 1.393 . S
C426 H418 0.950 . S
C426 C424 1.391 . S
C426 C427 1.400 . S
C427 C426 1.400 . S
C427 C428 1.398 . S
C427 C433 1.491 . S
C428 H419 0.950 . S
C428 C427 1.398 . S
C428 C429 1.391 . S
C429 H417 0.950 . S
C429 C425 1.393 . S
C429 C428 1.391 . S
C430 H420 0.950 . S
C430 C431 1.386 . S
C430 C432 1.391 . S
C431 C430 1.386 . S
C431 C435 1.393 . S
C432 H421 0.950 . S
C432 C430 1.391 . S
C432 C433 1.400 . S
C433 C427 1.491 . S
C433 C432 1.400 . S
C433 C434 1.398 . S
C434 H422 0.950 . S
C434 C433 1.398 . S
C434 C435 1.391 . S
C435 H423 0.950 . S
C435 C431 1.393 . S
C435 C434 1.391 . S
H436 C444 0.950 . S
H437 C449 0.950 . S
H438 C446 0.950 . S
H439 C448 0.950 . S
H440 C450 0.950 . S
H441 C452 0.950 . S
H442 C454 0.950 . S
H443 C455 0.950 . S
C444 H436 0.950 . S
C444 C445 1.386 . S
C444 C446 1.391 . S
C445 C444 1.386 . S
C445 C449 1.393 . S
C446 H438 0.950 . S
C446 C444 1.391 . S
C446 C447 1.400 . S
C447 C446 1.400 . S
C447 C448 1.398 . S
C447 C453 1.491 . S
C448 H439 0.950 . S
C448 C447 1.398 . S
C448 C449 1.391 . S
C449 H437 0.950 . S
C449 C445 1.393 . S
C449 C448 1.391 . S
C450 H440 0.950 . S
C450 C451 1.386 . S
C450 C452 1.391 . S
C451 C450 1.386 . S
C451 C455 1.393 . S
C452 H441 0.950 . S
C452 C450 1.391 . S
C452 C453 1.400 . S
C453 C447 1.491 . S
C453 C452 1.400 . S
C453 C454 1.398 . S
C454 H442 0.950 . S
C454 C453 1.398 . S
C454 C455 1.391 . S
C455 H443 0.950 . S
C455 C451 1.393 . S
C455 C454 1.391 . S
H456 C464 0.950 . S
H457 C469 0.950 . S
H458 C466 0.950 . S
H459 C468 0.950 . S
H460 C470 0.950 . S
H461 C472 0.950 . S
H462 C474 0.950 . S
H463 C475 0.950 . S
C464 H456 0.950 . S
C464 C465 1.386 . S
C464 C466 1.391 . S
C465 C464 1.386 . S
C465 C469 1.393 . S
C466 H458 0.950 . S
C466 C464 1.391 . S
C466 C467 1.400 . S
C467 C466 1.400 . S
C467 C468 1.398 . S
C467 C473 1.491 . S
C468 H459 0.950 . S
C468 C467 1.398 . S
C468 C469 1.391 . S
C469 H457 0.950 . S
C469 C465 1.393 . S
C469 C468 1.391 . S
C470 H460 0.950 . S
C470 C471 1.386 . S
C470 C472 1.391 . S
C471 C470 1.386 . S
C471 C475 1.393 . S
C472 H461 0.950 . S
C472 C470 1.391 . S
C472 C473 1.400 . S
C473 C467 1.491 . S
C473 C472 1.400 . S
C473 C474 1.398 . S
C474 H462 0.950 . S
C474 C473 1.398 . S
C474 C475 1.391 . S
C475 H463 0.950 . S
C475 C471 1.393 . S
C475 C474 1.391 . S
H476 C484 0.950 . S
H477 C489 0.950 . S
H478 C486 0.950 . S
H479 C488 0.950 . S
H480 C490 0.950 . S
H481 C492 0.950 . S
H482 C494 0.950 . S
H483 C495 0.950 . S
C484 H476 0.950 . S
C484 C485 1.386 . S
C484 C486 1.391 . S
C485 C484 1.386 . S
C485 C489 1.393 . S
C486 H478 0.950 . S
C486 C484 1.391 . S
C486 C487 1.400 . S
C487 C486 1.400 . S
C487 C488 1.398 . S
C487 C493 1.491 . S
C488 H479 0.950 . S
C488 C487 1.398 . S
C488 C489 1.391 . S
C489 H477 0.950 . S
C489 C485 1.393 . S
C489 C488 1.391 . S
C490 H480 0.950 . S
C490 C491 1.386 . S
C490 C492 1.391 . S
C491 C490 1.386 . S
C491 C495 1.393 . S
C492 H481 0.950 . S
C492 C490 1.391 . S
C492 C493 1.400 . S
C493 C487 1.491 . S
C493 C492 1.400 . S
C493 C494 1.398 . S
C494 H482 0.950 . S
C494 C493 1.398 . S
C494 C495 1.391 . S
C495 H483 0.950 . S
C495 C491 1.393 . S
C495 C494 1.391 . S
H496 C504 0.950 . S
H497 C509 0.950 . S
H498 C506 0.950 . S
H499 C508 0.950 . S
H500 C510 0.950 . S
H501 C512 0.950 . S
H502 C514 0.950 . S
H503 C515 0.950 . S
C504 H496 0.950 . S
C504 C505 1.386 . S
C504 C506 1.391 . S
C505 C504 1.386 . S
C505 C509 1.393 . S
C506 H498 0.950 . S
C506 C504 1.391 . S
C506 C507 1.400 . S
C507 C506 1.400 . S
C507 C508 1.398 . S
C507 C513 1.491 . S
C508 H499 0.950 . S
C508 C507 1.398 . S
C508 C509 1.391 . S
C509 H497 0.950 . S
C509 C505 1.393 . S
C509 C508 1.391 . S
C510 H500 0.950 . S
C510 C511 1.386 . S
C510 C512 1.391 . S
C511 C510 1.386 . S
C511 C515 1.393 . S
C512 H501 0.950 . S
C512 C510 1.391 . S
C512 C513 1.400 . S
C513 C507 1.491 . S
C513 C512 1.400 . S
C513 C514 1.398 . S
C514 H502 0.950 . S
C514 C513 1.398 . S
C514 C515 1.391 . S
C515 H503 0.950 . S
C515 C511 1.393 . S
C515 C514 1.391 . S
H516 C524 0.950 . S
H517 C529 0.950 . S
H518 C526 0.950 . S
H519 C528 0.950 . S
H520 C530 0.950 . S
H521 C532 0.950 . S
H522 C534 0.950 . S
H523 C535 0.950 . S
C524 H516 0.950 . S
C524 C525 1.386 . S
C524 C526 1.391 . S
C525 C524 1.386 . S
C525 C529 1.393 . S
C526 H518 0.950 . S
C526 C524 1.391 . S
C526 C527 1.400 . S
C527 C526 1.400 . S
C527 C528 1.398 . S
C527 C533 1.491 . S
C528 H519 0.950 . S
C528 C527 1.398 . S
C528 C529 1.391 . S
C529 H517 0.950 . S
C529 C525 1.393 . S
C529 C528 1.391 . S
C530 H520 0.950 . S
C530 C531 1.386 . S
C530 C532 1.391 . S
C531 C530 1.386 . S
C531 C535 1.393 . S
C532 H521 0.950 . S
C532 C530 1.391 . S
C532 C533 1.400 . S
C533 C527 1.491 . S
C533 C532 1.400 . S
C533 C534 1.398 . S
C534 H522 0.950 . S
C534 C533 1.398 . S
C534 C535 1.391 . S
C535 H523 0.950 . S
C535 C531 1.393 . S
C535 C534 1.391 . S
H536 C544 0.950 . S
H537 C549 0.950 . S
H538 C546 0.950 . S
H539 C548 0.950 . S
H540 C550 0.950 . S
H541 C552 0.950 . S
H542 C554 0.950 . S
H543 C555 0.950 . S
C544 H536 0.950 . S
C544 C545 1.386 . S
C544 C546 1.391 . S
C545 C544 1.386 . S
C545 C549 1.393 . S
C546 H538 0.950 . S
C546 C544 1.391 . S
C546 C547 1.400 . S
C547 C546 1.400 . S
C547 C548 1.398 . S
C547 C553 1.491 . S
C548 H539 0.950 . S
C548 C547 1.398 . S
C548 C549 1.391 . S
C549 H537 0.950 . S
C549 C545 1.393 . S
C549 C548 1.391 . S
C550 H540 0.950 . S
C550 C551 1.386 . S
C550 C552 1.391 . S
C551 C550 1.386 . S
C551 C555 1.393 . S
C552 H541 0.950 . S
C552 C550 1.391 . S
C552 C553 1.400 . S
C553 C547 1.491 . S
C553 C552 1.400 . S
C553 C554 1.398 . S
C554 H542 0.950 . S
C554 C553 1.398 . S
C554 C555 1.391 . S
C555 H543 0.950 . S
C555 C551 1.393 . S
C555 C554 1.391 . S
H556 C564 0.950 . S
H557 C569 0.950 . S
H558 C566 0.950 . S
H559 C568 0.950 . S
H560 C570 0.950 . S
H561 C572 0.950 . S
H562 C574 0.950 . S
H563 C575 0.950 . S
C564 H556 0.950 . S
C564 C565 1.386 . S
C564 C566 1.391 . S
C565 C564 1.386 . S
C565 C569 1.393 1_556 S
C566 H558 0.950 . S
C566 C564 1.391 . S
C566 C567 1.400 . S
C567 C566 1.400 . S
C567 C568 1.398 1_556 S
C567 C573 1.491 1_556 S
C568 H559 0.950 . S
C568 C567 1.398 1_554 S
C568 C569 1.391 . S
C569 H557 0.950 . S
C569 C565 1.393 1_554 S
C569 C568 1.391 . S
C570 H560 0.950 . S
C570 C571 1.386 . S
C570 C572 1.391 . S
C571 C570 1.386 . S
C571 C575 1.393 1_554 S
C572 H561 0.950 . S
C572 C570 1.391 . S
C572 C573 1.400 . S
C573 C567 1.491 1_554 S
C573 C572 1.400 . S
C573 C574 1.398 1_554 S
C574 H562 0.950 . S
C574 C573 1.398 1_556 S
C574 C575 1.391 . S
C575 H563 0.950 . S
C575 C571 1.393 1_556 S
C575 C574 1.391 . S
H576 C584 0.950 . S
H577 C589 0.950 . S
H578 C586 0.950 . S
H579 C588 0.950 . S
H580 C590 0.950 . S
H581 C592 0.950 . S
H582 C594 0.950 . S
H583 C595 0.950 . S
C584 H576 0.950 . S
C584 C585 1.386 . S
C584 C586 1.391 . S
C585 C584 1.386 . S
C585 C589 1.393 . S
C586 H578 0.950 . S
C586 C584 1.391 . S
C586 C587 1.400 . S
C587 C586 1.400 . S
C587 C588 1.398 . S
C587 C593 1.491 . S
C588 H579 0.950 . S
C588 C587 1.398 . S
C588 C589 1.391 . S
C589 H577 0.950 . S
C589 C585 1.393 . S
C589 C588 1.391 . S
C590 H580 0.950 . S
C590 C591 1.386 . S
C590 C592 1.391 . S
C591 C590 1.386 . S
C591 C595 1.393 . S
C592 H581 0.950 . S
C592 C590 1.391 . S
C592 C593 1.400 . S
C593 C587 1.491 . S
C593 C592 1.400 . S
C593 C594 1.398 . S
C594 H582 0.950 . S
C594 C593 1.398 . S
C594 C595 1.391 . S
C595 H583 0.950 . S
C595 C591 1.393 . S
C595 C594 1.391 . S
H596 C604 0.950 . S
H597 C609 0.950 . S
H598 C606 0.950 . S
H599 C608 0.950 . S
H600 C610 0.950 . S
H601 C612 0.950 . S
H602 C614 0.950 . S
H603 C615 0.950 . S
C604 H596 0.950 . S
C604 C605 1.386 . S
C604 C606 1.391 . S
C605 C604 1.386 . S
C605 C609 1.393 . S
C606 H598 0.950 . S
C606 C604 1.391 . S
C606 C607 1.400 . S
C607 C606 1.400 . S
C607 C608 1.398 . S
C607 C613 1.491 . S
C608 H599 0.950 . S
C608 C607 1.398 . S
C608 C609 1.391 . S
C609 H597 0.950 . S
C609 C605 1.393 . S
C609 C608 1.391 . S
C610 H600 0.950 . S
C610 C611 1.386 . S
C610 C612 1.391 . S
C611 C610 1.386 . S
C611 C615 1.393 . S
C612 H601 0.950 . S
C612 C610 1.391 . S
C612 C613 1.400 . S
C613 C607 1.491 . S
C613 C612 1.400 . S
C613 C614 1.398 . S
C614 H602 0.950 . S
C614 C613 1.398 . S
C614 C615 1.391 . S
C615 H603 0.950 . S
C615 C611 1.393 . S
C615 C614 1.391 . S
H616 C624 0.950 . S
H617 C629 0.950 . S
H618 C626 0.950 . S
H619 C628 0.950 . S
H620 C630 0.950 . S
H621 C632 0.950 . S
H622 C634 0.950 . S
H623 C635 0.950 . S
C624 H616 0.950 . S
C624 C625 1.386 . S
C624 C626 1.391 . S
C625 C624 1.386 . S
C625 C629 1.393 1_554 S
C626 H618 0.950 . S
C626 C624 1.391 . S
C626 C627 1.400 . S
C627 C626 1.400 . S
C627 C628 1.398 1_554 S
C627 C633 1.491 1_554 S
C628 H619 0.950 . S
C628 C627 1.398 1_556 S
C628 C629 1.391 . S
C629 H617 0.950 . S
C629 C625 1.393 1_556 S
C629 C628 1.391 . S
C630 H620 0.950 . S
C630 C631 1.386 . S
C630 C632 1.391 . S
C631 C630 1.386 . S
C631 C635 1.393 1_556 S
C632 H621 0.950 . S
C632 C630 1.391 . S
C632 C633 1.400 . S
C633 C627 1.491 1_556 S
C633 C632 1.400 . S
C633 C634 1.398 1_556 S
C634 H622 0.950 . S
C634 C633 1.398 1_554 S
C634 C635 1.391 . S
C635 H623 0.950 . S
C635 C631 1.393 1_554 S
C635 C634 1.391 . S
C165 C5 1.292 . S
C171 C122 1.317 . S
C185 C18 1.304 . S
C191 C135 1.313 . S
C205 C31 1.291 . S
C211 C148 1.317 . S
C225 C44 1.312 . S
C231 C83 1.287 . S
C245 C96 1.301 . S
C251 C57 1.291 . S
C265 C109 1.303 . S
C271 C70 1.290 . S
C285 C130 1.609 . S
C291 C0 1.625 . S
C305 C13 1.610 . S
C311 C143 1.617 . S
C325 C26 1.625 . S
C331 C78 1.608 . S
C345 C39 1.607 . S
C351 C91 1.622 . S
C365 C52 1.625 . S
C371 C104 1.609 . S
C385 C65 1.622 . S
C391 C117 1.613 . S
C405 C138 0.924 . S
C411 C8 0.919 . S
C425 C21 0.913 . S
C431 C151 0.920 . S
C445 C34 0.925 . S
C451 C86 0.926 . S
C465 C47 0.899 . S
C471 C99 0.905 . S
C485 C60 0.926 . S
C491 C112 0.923 . S
C505 C73 0.907 . S
C511 C125 0.915 . S
C525 C10 1.564 . S
C531 C88 1.566 . S
C545 C101 1.565 . S
C551 C23 1.566 . S
C565 C36 1.551 . S
C571 C114 1.554 . S
C585 C49 1.563 . S
C591 C127 1.565 . S
C605 C62 1.562 . S
C611 C140 1.558 . S
C625 C153 1.550 . S
C631 C75 1.552 . S
