# Generated by pormake.
# Topology fcu, (12)-cn, num edge types: 1
# Building blocks:
#     Node 0, Type 0, BuildingBlock: FANWIC_clean_sbu_0, # of connection points: 12
#     Node 1, Type 0, BuildingBlock: FANWIC_clean_sbu_0, # of connection points: 12
#     Node 2, Type 0, BuildingBlock: FANWIC_clean_sbu_0, # of connection points: 12
#     Node 3, Type 0, BuildingBlock: FANWIC_clean_sbu_0, # of connection points: 12
#     Edge 4, Type (0, 0), BuildingBlock: CIFDUS_clean_linker_0, # of connection points: 2
#     Edge 5, Type (0, 0), BuildingBlock: CIFDUS_clean_linker_0, # of connection points: 2
#     Edge 6, Type (0, 0), BuildingBlock: CIFDUS_clean_linker_0, # of connection points: 2
#     Edge 7, Type (0, 0), BuildingBlock: CIFDUS_clean_linker_0, # of connection points: 2
#     Edge 8, Type (0, 0), BuildingBlock: CIFDUS_clean_linker_0, # of connection points: 2
#     Edge 9, Type (0, 0), BuildingBlock: CIFDUS_clean_linker_0, # of connection points: 2
#     Edge 10, Type (0, 0), BuildingBlock: CIFDUS_clean_linker_0, # of connection points: 2
#     Edge 11, Type (0, 0), BuildingBlock: CIFDUS_clean_linker_0, # of connection points: 2
#     Edge 12, Type (0, 0), BuildingBlock: CIFDUS_clean_linker_0, # of connection points: 2
#     Edge 13, Type (0, 0), BuildingBlock: CIFDUS_clean_linker_0, # of connection points: 2
#     Edge 14, Type (0, 0), BuildingBlock: CIFDUS_clean_linker_0, # of connection points: 2
#     Edge 15, Type (0, 0), BuildingBlock: CIFDUS_clean_linker_0, # of connection points: 2
#     Edge 16, Type (0, 0), BuildingBlock: CIFDUS_clean_linker_0, # of connection points: 2
#     Edge 17, Type (0, 0), BuildingBlock: CIFDUS_clean_linker_0, # of connection points: 2
#     Edge 18, Type (0, 0), BuildingBlock: CIFDUS_clean_linker_0, # of connection points: 2
#     Edge 19, Type (0, 0), BuildingBlock: CIFDUS_clean_linker_0, # of connection points: 2
#     Edge 20, Type (0, 0), BuildingBlock: CIFDUS_clean_linker_0, # of connection points: 2
#     Edge 21, Type (0, 0), BuildingBlock: CIFDUS_clean_linker_0, # of connection points: 2
#     Edge 22, Type (0, 0), BuildingBlock: CIFDUS_clean_linker_0, # of connection points: 2
#     Edge 23, Type (0, 0), BuildingBlock: CIFDUS_clean_linker_0, # of connection points: 2
#     Edge 24, Type (0, 0), BuildingBlock: CIFDUS_clean_linker_0, # of connection points: 2
#     Edge 25, Type (0, 0), BuildingBlock: CIFDUS_clean_linker_0, # of connection points: 2
#     Edge 26, Type (0, 0), BuildingBlock: CIFDUS_clean_linker_0, # of connection points: 2
#     Edge 27, Type (0, 0), BuildingBlock: CIFDUS_clean_linker_0, # of connection points: 2
# Relax obj value: 0.218
# Max RMSD: 0.293
# Mean RMSD: 0.293
data_MOF--net-fcu--node1-FANWIC_clean_sbu_0--edge1-CIFDUS_clean_linker_0
_symmetry_space_group_name_H-M    P1
_symmetry_Int_Tables_number       1
_symmetry_cell_setting            triclinic
loop_
_symmetry_equiv_pos_as_xyz
'x, y, z'
_cell_length_a     21.559628
_cell_length_b     22.534531
_cell_length_c     22.417382
_cell_angle_alpha  91.507497
_cell_angle_beta   89.457454
_cell_angle_gamma 89.457799
loop_
_atom_site_label
_atom_site_type_symbol
_atom_site_fract_x
_atom_site_fract_y
_atom_site_fract_z
_atom_type_partial_charge
Zn0 Zn 0.94819 0.00508 0.9241 0.0
Zn1 Zn 0.91641 0.94835 0.05622 0.0
Zn2 Zn 0.98556 0.09395 0.03143 0.0
Zn3 Zn 0.84721 0.04956 0.01469 0.0
O4 O 0.93426 0.02161 0.01199 0.0
C5 C 0.06707 0.09459 0.13491 0.0
O6 O 0.11124 0.07823 0.09706 0.0
N7 N 0.011 0.94268 0.90682 0.0
N8 N 0.06093 0.93101 0.93896 0.0
N9 N 0.0634 0.86994 0.8596 0.0
C10 C 0.01237 0.90494 0.85922 0.0
C11 C 0.09316 0.88741 0.90958 0.0
N12 N 0.98785 0.91058 0.08782 0.0
C13 C 0.07094 0.89212 0.1353 0.0
N14 N 0.03683 0.84231 0.13904 0.0
C15 C 0.98461 0.85599 0.10984 0.0
N16 N 0.04106 0.93432 0.10452 0.0
H17 H 0.92909 0.78077 0.08583 0.0
C18 C 0.92514 0.82194 0.1138 0.0
H19 H 0.88509 0.8485 0.09874 0.0
H20 H 0.91632 0.80885 0.16048 0.0
N21 N 0.05976 0.09255 0.98277 0.0
C22 C 0.09113 0.14076 0.96716 0.0
C23 C 0.13632 0.06609 0.92585 0.0
N24 N 0.08746 0.04574 0.95695 0.0
N25 N 0.1387 0.12585 0.93012 0.0
C26 C 0.07607 0.20211 -0.00925 0.0
H27 H 0.04368 0.22388 0.95975 0.0
H28 H 0.05333 0.20004 0.03524 0.0
H29 H 0.11861 0.22924 -0.00556 0.0
O30 O 0.79695 0.02105 0.94572 0.0
O31 O 0.86839 -0.01427 0.88241 0.0
C32 C 0.81203 -0.00278 0.89566 0.0
O33 O 0.8764 0.89376 -0.00373 0.0
O34 O 0.84236 0.13547 0.01125 0.0
O35 O 0.9371 0.17207 0.01601 0.0
O36 O 0.97442 0.0824 0.88913 0.0
O37 O 0.80171 0.03303 0.0903 0.0
O38 O 0.8576 0.96109 0.12737 0.0
O39 O 0.01128 0.09797 0.11703 0.0
C40 C 0.90435 0.85185 0.96774 0.0
O41 O 0.96345 0.8417 0.97712 0.0
C42 C 0.8786 0.17921 0.01165 0.0
C43 C 0.9896 0.08609 0.83456 0.0
O44 O 0.98774 0.03869 0.79946 0.0
C45 C 0.81224 -0.00266 0.13187 0.0
H46 H 0.93825 0.94128 0.80674 0.0
H47 H 0.92555 0.86805 0.83319 0.0
H48 H 0.97837 0.87885 0.77203 0.0
C49 C 0.9609 0.89827 0.81504 0.0
Zn50 Zn 0.93763 0.49614 0.42032 0.0
Zn51 Zn 0.92441 0.44094 0.54842 0.0
Zn52 Zn 0.98082 0.59408 0.51219 0.0
Zn53 Zn 0.84842 0.5435 0.52226 0.0
O54 O 0.93434 0.51755 0.50709 0.0
C55 C 0.98854 0.60168 0.64804 0.0
O56 O 0.9585 0.55194 0.65461 0.0
N57 N 0.00191 0.43651 0.40313 0.0
N58 N 0.04753 0.4216 0.43928 0.0
N59 N 0.04844 0.35674 0.36235 0.0
C60 C 0.00349 0.39813 0.35621 0.0
C61 C 0.0762 0.37364 0.4138 0.0
N62 N 0.0006 0.40391 0.56851 0.0
C63 C 0.08293 0.40069 0.62071 0.0
N64 N 0.05892 0.34556 0.6236 0.0
C65 C 0.00655 0.34956 0.59137 0.0
N66 N 0.04753 0.43617 0.58742 0.0
H67 H 0.96286 0.27076 0.55771 0.0
C68 C 0.95464 0.30546 0.59298 0.0
H69 H 0.90939 0.32756 0.58559 0.0
H70 H 0.9521 0.28261 0.63601 0.0
N71 N 0.06036 0.58379 0.47101 0.0
C72 C 0.11504 0.60616 0.4887 0.0
C73 C 0.13193 0.55635 0.40897 0.0
N74 N 0.07072 0.55277 0.4208 0.0
N75 N 0.16126 0.5888 0.45117 0.0
C76 C 0.12216 0.64841 0.54065 0.0
H77 H 0.08297 0.68068 0.54182 0.0
H78 H 0.12149 0.62267 0.58214 0.0
H79 H 0.16651 0.67285 0.53879 0.0
O80 O 0.79109 0.51357 0.45892 0.0
O81 O 0.85379 0.4698 0.39185 0.0
C82 C 0.79964 0.48496 0.40987 0.0
O83 O 0.87069 0.38946 0.49758 0.0
O84 O 0.84025 0.63032 0.5175 0.0
O85 O 0.92825 0.66192 0.47807 0.0
O86 O 0.95808 0.56662 0.37246 0.0
O87 O 0.81542 0.52212 0.60323 0.0
O88 O 0.88198 0.45176 0.62704 0.0
O89 O -0.00139 0.62099 0.59622 0.0
C90 C 0.89137 0.34697 0.46479 0.0
O91 O 0.95089 0.3354 0.46358 0.0
C92 C 0.8717 0.67087 0.49372 0.0
C93 C 0.93819 0.56937 0.31954 0.0
O94 O 0.89777 0.53051 0.29993 0.0
C95 C 0.83636 0.48543 0.64029 0.0
H96 H 0.96517 0.44312 0.28267 0.0
H97 H 0.91109 0.39714 0.32152 0.0
H98 H 0.96881 0.36447 0.27121 0.0
C99 C 0.95947 0.40033 0.30499 0.0
Zn100 Zn 0.43916 -0.01262 0.4228 0.0
Zn101 Zn 0.4193 0.93951 0.55975 0.0
Zn102 Zn 0.46272 0.09027 0.53409 0.0
Zn103 Zn 0.33396 0.02658 0.513 0.0
O104 O 0.42424 0.01172 0.51036 0.0
C105 C 0.54223 0.10342 0.64083 0.0
O106 O 0.58904 0.09922 0.60299 0.0
N107 N 0.50667 0.93085 0.41186 0.0
N108 N 0.55369 0.92001 0.44782 0.0
N109 N 0.56599 0.86277 0.3656 0.0
C110 C 0.51432 0.89653 0.36247 0.0
C111 C 0.5898 0.87862 0.41921 0.0
N112 N 0.4962 0.91214 0.59139 0.0
C113 C 0.58262 0.90581 0.63691 0.0
N114 N 0.55586 0.85236 0.64308 0.0
C115 C 0.50116 0.85848 0.61549 0.0
N116 N 0.54614 0.94293 0.60594 0.0
H117 H 0.45513 0.77625 0.59607 0.0
C118 C 0.44717 0.81755 0.62318 0.0
H119 H 0.40311 0.8387 0.60977 0.0
H120 H 0.44291 0.8048 0.67053 0.0
N121 N 0.53333 0.1014 0.48264 0.0
C122 C 0.56016 0.1542 0.47607 0.0
C123 C 0.59952 0.09468 0.41084 0.0
N124 N 0.5576 0.06365 0.44211 0.0
N125 N 0.60163 0.15165 0.43088 0.0
C126 C 0.54546 0.20779 0.51483 0.0
H127 H 0.51829 0.19552 0.55479 0.0
H128 H 0.58886 0.22998 0.52892 0.0
H129 H 0.51755 0.23966 0.48911 0.0
O130 O 0.29093 0.00121 0.43937 0.0
O131 O 0.36254 0.95698 0.38217 0.0
C132 C 0.30671 0.97322 0.39182 0.0
O133 O 0.38223 0.87661 0.50536 0.0
O134 O 0.31578 0.11116 0.51715 0.0
O135 O 0.40289 0.16144 0.52152 0.0
O136 O 0.46104 0.05446 0.37038 0.0
O137 O 0.28776 -0.00455 0.58313 0.0
O138 O 0.36221 0.95066 0.63162 0.0
O139 O 0.48727 0.09608 0.62172 0.0
C140 C 0.40882 0.83216 0.47956 0.0
O141 O 0.46825 0.8222 0.48704 0.0
C142 C 0.34389 0.16013 0.51865 0.0
C143 C 0.43204 0.10322 0.366 0.0
O144 O 0.38253 0.1144 0.39888 0.0
C145 C 0.30691 0.9702 0.62945 0.0
H146 H 0.45237 0.94094 0.30355 0.0
H147 H 0.42975 0.86725 0.32322 0.0
H148 H 0.49216 0.87688 0.27024 0.0
C149 C 0.46983 0.8954 0.31157 0.0
Zn150 Zn 0.45954 0.49662 0.91112 0.0
Zn151 Zn 0.41799 0.45877 0.04377 0.0
Zn152 Zn 0.47934 0.60298 0.01392 0.0
Zn153 Zn 0.3476 0.55417 0.97902 0.0
O154 O 0.43438 0.52778 -0.00735 0.0
C155 C 0.53381 0.60353 0.1333 0.0
O156 O 0.58241 0.57891 0.10663 0.0
N157 N 0.52178 0.43235 0.91179 0.0
N158 N 0.56647 0.42496 0.95129 0.0
N159 N 0.57643 0.35258 0.88186 0.0
C160 C 0.5279 0.38829 0.87019 0.0
C161 C 0.60006 0.37709 0.93221 0.0
N162 N 0.48178 0.42972 0.09452 0.0
C163 C 0.55503 0.41589 0.15608 0.0
N164 N 0.51893 0.3676 0.16052 0.0
C165 C 0.47331 0.37793 0.1217 0.0
N166 N 0.53268 0.45443 0.11612 0.0
H167 H 0.42627 0.30179 0.08662 0.0
C168 C 0.41579 0.34127 0.11571 0.0
H169 H 0.37737 0.36675 0.09605 0.0
H170 H 0.40037 0.32539 0.15983 0.0
N171 N 0.56161 0.594 0.98025 0.0
C172 C 0.61043 0.63003 0.98587 0.0
C173 C 0.63847 0.55724 0.92891 0.0
N174 N 0.57876 0.54898 0.94465 0.0
N175 N 0.65974 0.60791 0.95483 0.0
C176 C 0.60855 0.68838 0.0194 0.0
H177 H 0.61252 0.72489 0.98738 0.0
H178 H 0.56445 0.69404 0.04491 0.0
H179 H 0.64866 0.69139 0.04996 0.0
O180 O 0.30814 0.51486 0.90785 0.0
O181 O 0.38722 0.46483 0.86739 0.0
C182 C 0.33038 0.47922 0.86818 0.0
O183 O 0.40116 0.39093 0.98832 0.0
O184 O 0.34323 0.63907 0.9623 0.0
O185 O 0.43532 0.67798 0.98132 0.0
O186 O 0.48943 0.56548 0.86289 0.0
O187 O 0.29254 0.54438 0.05105 0.0
O188 O 0.34534 0.47608 0.09859 0.0
O189 O 0.48534 0.61436 0.10338 0.0
C190 C 0.34665 0.3833 0.96974 0.0
O191 O 0.30271 0.42092 0.98678 0.0
C192 C 0.37933 0.68301 0.96374 0.0
C193 C 0.48025 0.56704 0.80707 0.0
O194 O 0.44661 0.5259 0.78098 0.0
C195 C 0.29907 0.51116 0.09552 0.0
H196 H 0.47027 0.42253 0.80128 0.0
H197 H 0.44517 0.35387 0.83277 0.0
H198 H 0.5095 0.35429 0.78108 0.0
C199 C 0.4859 0.37951 0.81807 0.0
H200 H 0.98973 0.12132 0.22669 0.0
H201 H 0.17935 0.14081 0.16818 0.0
H202 H 0.19372 0.22126 0.24204 0.0
H203 H 0.14486 0.2994 0.30837 0.0
H204 H 0.95244 0.28327 0.35649 0.0
H205 H 0.94625 0.18861 0.30248 0.0
C206 C 0.0347 0.14216 0.23111 0.0
C207 C 0.08268 0.12653 0.19098 0.0
C208 C 0.04157 0.19011 0.2712 0.0
C209 C 0.14124 0.1527 0.19812 0.0
C210 C 0.1493 0.19923 0.23987 0.0
C211 C 0.10222 0.2743 0.30744 0.0
C212 C 0.04872 0.29816 0.33536 0.0
C213 C 0.09863 0.22063 0.2741 0.0
C214 C 0.99375 0.2654 0.33503 0.0
C215 C 0.99025 0.21151 0.30395 0.0
H216 H 0.71816 0.07472 0.1552 0.0
H217 H 0.8174 0.92872 0.23218 0.0
H218 H 0.75582 0.94138 0.3242 0.0
H219 H 0.67604 -0.00182 0.38513 0.0
H220 H 0.58833 0.15023 0.30799 0.0
H221 H 0.64072 0.12947 0.2133 0.0
C222 C 0.72607 0.04496 0.19168 0.0
C223 C 0.77256 0.00089 0.18657 0.0
C224 C 0.69129 0.05296 0.24442 0.0
C225 C 0.78193 0.96308 0.23473 0.0
C226 C 0.74646 0.97014 0.28739 0.0
C227 C 0.66781 0.02577 0.34704 0.0
C228 C 0.62718 0.07491 0.35284 0.0
C229 C 0.70127 0.0154 0.29309 0.0
C230 C 0.61796 0.11132 0.30386 0.0
C231 C 0.64858 0.09991 0.24992 0.0
H232 H 0.02771 0.7281 0.11111 0.0
H233 H 0.054 0.85129 0.25833 0.0
H234 H 0.0338 0.77305 0.3292 0.0
H235 H 0.99068 0.67469 0.34815 0.0
H236 H 0.94764 0.5573 0.19933 0.0
H237 H 0.99013 0.62827 0.12991 0.0
C238 C 0.03043 0.73691 0.15881 0.0
C239 C 0.0425 0.79461 0.17973 0.0
C240 C 0.01335 0.69336 0.19874 0.0
C241 C 0.04596 0.80665 0.24139 0.0
C242 C 0.03318 0.76227 0.2818 0.0
C243 C 0.99108 0.66469 0.30053 0.0
C244 C 0.96518 0.61172 0.27852 0.0
C245 C 0.01386 0.70634 0.26085 0.0
C246 C 0.96611 0.59866 0.21695 0.0
C247 C 0.99085 0.63885 0.17735 0.0
H248 H 0.30142 0.88747 0.30399 0.0
H249 H 0.21058 0.04745 0.37137 0.0
H250 H 0.13555 0.04159 0.29098 0.0
H251 H 0.09125 -0.01256 0.20586 0.0
H252 H 0.17023 0.81896 0.14942 0.0
H253 H 0.25497 0.83161 0.2202 0.0
C254 C 0.26485 0.92061 0.30133 0.0
C255 C 0.26077 0.96707 0.34408 0.0
C256 C 0.22036 0.91582 0.25628 0.0
C257 C 0.21377 0.01042 0.33962 0.0
C258 C 0.17116 0.00747 0.29342 0.0
C259 C 0.12815 0.95453 0.20804 0.0
C260 C 0.12646 0.90358 0.17111 0.0
C261 C 0.17358 0.96002 0.25194 0.0
C262 C 0.17261 0.85969 0.17578 0.0
C263 C 0.22022 0.86642 0.21701 0.0
H264 H 0.01386 0.76432 0.87885 0.0
H265 H 0.12853 0.86107 0.75809 0.0
H266 H 0.12179 0.78039 0.6832 0.0
H267 H 0.0699 0.69166 0.64793 0.0
H268 H 0.95006 0.59501 0.7651 0.0
H269 H 0.97163 0.66656 0.84646 0.0
C270 C 0.03902 0.76613 0.83682 0.0
C271 C 0.07268 0.81728 0.82365 0.0
C272 C 0.0326 0.72065 0.79345 0.0
C273 C 0.10382 0.8211 0.76893 0.0
C274 C 0.09918 0.77549 0.72616 0.0
C275 C 0.04947 0.68511 0.69139 0.0
C276 C 0.00793 0.63837 0.70011 0.0
C277 C 0.06171 0.72633 0.7372 0.0
C278 C 0.98199 0.63081 0.7571 0.0
C279 C 0.99422 0.67176 0.80353 0.0
H280 H 0.09974 0.0246 0.81954 0.0
H281 H 0.2555 0.02456 0.93715 0.0
H282 H 0.32262 0.98521 0.8559 0.0
H283 H 0.33896 0.96705 0.74715 0.0
H284 H 0.18124 0.97266 0.63013 0.0
H285 H 0.11233 -0.0074 0.71519 0.0
C286 C 0.14797 0.01508 0.82735 0.0
C287 C 0.17331 0.02946 0.88293 0.0
C288 C 0.18587 -0.00608 0.78027 0.0
C289 C 0.2357 0.01564 0.89367 0.0
C290 C 0.27388 -0.00694 0.84733 0.0
C291 C 0.28936 0.97124 0.74055 0.0
C292 C 0.26537 0.96949 0.68232 0.0
C293 C 0.24998 0.98462 0.78965 0.0
C294 C 0.20096 0.97485 0.6744 0.0
C295 C 0.16149 -0.01364 0.72297 0.0
H296 H 0.00863 0.34207 0.73286 0.0
H297 H 0.13435 0.25088 0.61176 0.0
H298 H 0.12777 0.16074 0.6701 0.0
H299 H 0.07247 0.10451 0.74612 0.0
H300 H 0.94641 0.19527 0.86837 0.0
H301 H 0.96623 0.28952 0.81964 0.0
C302 C 0.03598 0.30285 0.72084 0.0
C303 C 0.07049 0.3016 0.66742 0.0
C304 C 0.03044 0.25118 0.754 0.0
C305 C 0.1061 0.25134 0.65165 0.0
C306 C 0.10215 0.20011 0.68497 0.0
C307 C 0.05002 0.14511 0.76245 0.0
C308 C 0.00736 0.14336 0.81 0.0
C309 C 0.06193 0.1987 0.7344 0.0
C310 C 0.97924 0.19613 0.83162 0.0
C311 C 0.99049 0.24975 0.80372 0.0
H312 H 0.58365 -0.00883 0.72215 0.0
H313 H 0.69914 0.85974 0.63185 0.0
H314 H 0.78246 0.87816 0.70326 0.0
H315 H 0.81876 0.92644 0.79566 0.0
H316 H 0.69794 0.04984 0.89226 0.0
H317 H 0.62009 0.03974 0.8145 0.0
C318 C 0.62782 0.96793 0.71747 0.0
C319 C 0.63635 0.92511 0.67165 0.0
C320 C 0.67374 0.97634 0.76059 0.0
C321 C 0.69252 0.89354 0.66652 0.0
C322 C 0.73969 0.90363 0.70763 0.0
C323 C 0.77531 0.9509 0.79983 0.0
C324 C 0.76391 -0.01177 0.84999 0.0
C325 C 0.73017 0.94388 0.7557 0.0
C326 C 0.70746 0.01994 0.85459 0.0
C327 C 0.66308 0.0146 0.80995 0.0
H328 H 0.24974 0.36471 0.8974 0.0
H329 H 0.4072 0.27695 0.9746 0.0
H330 H 0.3606 0.18045 0.95356 0.0
H331 H 0.26174 0.12794 0.94168 0.0
H332 H 0.1077 0.21532 0.8601 0.0
H333 H 0.16769 0.30575 0.85102 0.0
C334 C 0.27525 0.32441 0.90688 0.0
C335 C 0.33036 0.32752 0.93921 0.0
C336 C 0.24871 0.26943 0.894 0.0
C337 C 0.36367 0.2753 0.95089 0.0
C338 C 0.33707 0.22017 0.93899 0.0
C339 C 0.24298 0.16527 0.91819 0.0
C340 C 0.18038 0.16586 0.90231 0.0
C341 C 0.27754 0.21725 0.9146 0.0
C342 C 0.15581 0.21473 0.8728 0.0
C343 C 0.18983 0.26653 0.86849 0.0
H344 H 0.30597 0.74792 0.03649 0.0
H345 H 0.38188 0.74089 0.85829 0.0
H346 H 0.3009 0.81002 0.82569 0.0
H347 H 0.19895 0.8594 0.84547 0.0
H348 H 0.12016 0.85849 0.02269 0.0
H349 H 0.21208 0.80581 0.05814 0.0
C350 C 0.30636 0.76378 -0.00882 0.0
C351 C 0.35052 0.74059 0.95017 0.0
C352 C 0.25787 0.80069 0.9723 0.0
C353 C 0.34942 0.7596 0.89102 0.0
C354 C 0.30235 0.79816 0.8722 0.0
C355 C 0.2018 0.84743 0.89182 0.0
C356 C 0.15196 0.86114 0.93121 0.0
C357 C 0.2546 0.81665 0.9119 0.0
C358 C 0.15762 0.84799 -0.00835 0.0
C359 C 0.21001 0.81797 0.01195 0.0
H360 H 0.72151 0.37735 0.89967 0.0
H361 H 0.59552 0.32271 0.03765 0.0
H362 H 0.67874 0.26571 0.08365 0.0
H363 H 0.781 0.21911 0.07458 0.0
H364 H 0.90695 0.26855 0.93465 0.0
H365 H 0.83123 0.34205 0.90038 0.0
C366 C 0.71294 0.35347 0.94025 0.0
C367 C 0.65272 0.35251 0.96481 0.0
C368 C 0.76098 0.32056 0.96606 0.0
C369 C 0.64167 0.32317 0.01805 0.0
C370 C 0.68914 0.29076 0.04422 0.0
C371 C 0.7927 0.24756 0.03786 0.0
C372 C 0.84865 0.23782 0.00624 0.0
C373 C 0.74819 0.28751 0.01739 0.0
C374 C 0.86386 0.27496 0.95917 0.0
C375 C 0.82023 0.31641 0.93925 0.0
H376 H 0.91047 0.7354 0.98695 0.0
H377 H 0.81152 0.86717 0.88897 0.0
H378 H 0.73053 0.79548 0.86433 0.0
H379 H 0.67865 0.70206 0.88851 0.0
H380 H 0.76701 0.58089 0.0065 0.0
H381 H 0.86157 0.6405 0.00632 0.0
C382 C 0.87203 0.74762 0.95875 0.0
C383 C 0.86645 0.80595 0.93937 0.0
C384 C 0.82333 0.70795 0.9497 0.0
C385 C 0.81635 0.82212 0.9037 0.0
C386 C 0.76993 0.78138 0.8903 0.0
C387 C 0.71953 0.68849 0.91269 0.0
C388 C 0.71749 0.63712 0.94633 0.0
C389 C 0.77142 0.72522 0.91572 0.0
C390 C 0.7691 0.61991 0.97938 0.0
C391 C 0.82262 0.65404 0.97947 0.0
H392 H 0.76236 0.52723 0.90853 0.0
H393 H 0.58074 0.50567 0.83441 0.0
H394 H 0.62517 0.47875 0.73787 0.0
H395 H 0.71593 0.47748 0.67054 0.0
H396 H 0.89894 0.49136 0.74472 0.0
H397 H 0.8543 0.5072 0.84493 0.0
C398 C 0.73251 0.51826 0.87111 0.0
C399 C 0.6679 0.52492 0.87721 0.0
C400 C 0.75897 0.50197 0.81553 0.0
C401 C 0.63028 0.50562 0.8299 0.0
C402 C 0.65582 0.48963 0.77455 0.0
C403 C 0.74581 0.48321 0.70891 0.0
C404 C 0.81014 0.48512 0.70074 0.0
C405 C 0.72004 0.49079 0.76613 0.0
C406 C 0.84901 0.49079 0.75042 0.0
C407 C 0.82357 0.49977 0.80754 0.0
H408 H 0.1913 0.35163 0.65631 0.0
H409 H 0.07232 0.50528 0.68111 0.0
H410 H 0.13755 0.54282 0.76145 0.0
H411 H 0.22585 0.52964 0.8274 0.0
H412 H 0.34725 0.37787 0.80086 0.0
H413 H 0.28289 0.34084 0.71954 0.0
C414 C 0.17985 0.39314 0.67958 0.0
C415 C 0.127 0.42535 0.66381 0.0
C416 C 0.21739 0.41425 0.72585 0.0
C417 C 0.11313 0.47997 0.69269 0.0
C418 C 0.15001 0.50116 0.73892 0.0
C419 C 0.23792 0.4883 0.80402 0.0
C420 C 0.29063 0.4561 0.82041 0.0
C421 C 0.20168 0.46818 0.75645 0.0
C422 C 0.30683 0.4034 0.78888 0.0
C423 C 0.27006 0.38217 0.74245 0.0
H424 H 0.09912 0.57565 0.29494 0.0
H425 H 0.23409 0.48657 0.40206 0.0
H426 H 0.29433 0.45829 0.31267 0.0
H427 H 0.31402 0.46809 0.20608 0.0
H428 H 0.18492 0.56593 0.09918 0.0
H429 H 0.11691 0.58183 0.1862 0.0
C430 C 0.14102 0.54899 0.29815 0.0
C431 C 0.16227 0.53257 0.35435 0.0
C432 C 0.1768 0.53538 0.2468 0.0
C433 C 0.21708 0.49913 0.35882 0.0
C434 C 0.25157 0.48334 0.30789 0.0
C435 C 0.2706 0.49221 0.20148 0.0
C436 C 0.25474 0.51598 0.14626 0.0
C437 C 0.23274 0.50261 0.25188 0.0
C438 C 0.19843 0.54743 0.14129 0.0
C439 C 0.15948 0.55653 0.191 0.0
H440 H 0.56629 0.49937 0.24329 0.0
H441 H 0.66111 0.35214 0.15564 0.0
H442 H 0.74582 0.35924 0.2274 0.0
H443 H 0.79101 0.40599 0.31677 0.0
H444 H 0.69064 0.54699 0.4106 0.0
H445 H 0.60921 0.54303 0.3358 0.0
C446 C 0.60632 0.4699 0.23954 0.0
C447 C 0.60915 0.4265 0.19375 0.0
C448 C 0.65284 0.47226 0.28284 0.0
C449 C 0.6595 0.38678 0.18995 0.0
C450 C 0.7073 0.3904 0.2313 0.0
C451 C 0.75106 0.43547 0.32108 0.0
C452 C 0.74688 0.4766 0.36913 0.0
C453 C 0.7041 0.43256 0.27834 0.0
C454 C 0.69466 0.51437 0.37436 0.0
C455 C 0.64834 0.51261 0.33131 0.0
H456 H 0.4105 0.71485 0.50071 0.0
H457 H 0.31772 0.84869 0.4003 0.0
H458 H 0.2374 0.77837 0.37103 0.0
H459 H 0.18406 0.68495 0.39008 0.0
H460 H 0.26753 0.55648 0.5033 0.0
H461 H 0.36139 0.61725 0.51191 0.0
C462 C 0.37362 0.72772 0.47094 0.0
C463 C 0.36974 0.78647 0.45194 0.0
C464 C 0.32557 0.68798 0.45782 0.0
C465 C 0.32139 0.80349 0.41461 0.0
C466 C 0.27536 0.76342 0.39843 0.0
C467 C 0.22391 0.66995 0.41496 0.0
C468 C 0.22016 0.61693 0.44579 0.0
C469 C 0.27554 0.70648 0.42201 0.0
C470 C 0.27061 0.59732 0.47908 0.0
C471 C 0.32369 0.63216 0.4842 0.0
H472 H 0.20089 0.38674 0.42855 0.0
H473 H 0.04744 0.27243 0.46765 0.0
H474 H 0.11737 0.20048 0.5102 0.0
H475 H 0.22069 0.16774 0.53225 0.0
H476 H 0.37897 0.27258 0.48372 0.0
H477 H 0.30867 0.35262 0.45254 0.0
C478 C 0.18316 0.34672 0.44793 0.0
C479 C 0.11913 0.33518 0.44617 0.0
C480 C 0.22434 0.30456 0.47151 0.0
C481 C 0.09626 0.28268 0.46964 0.0
C482 C 0.13634 0.24133 0.49357 0.0
C483 C 0.24038 0.20813 0.51515 0.0
C484 C 0.30512 0.21387 0.50983 0.0
C485 C 0.20025 0.25168 0.49446 0.0
C486 C 0.32933 0.2671 0.48857 0.0
C487 C 0.2891 0.3125 0.47018 0.0
H488 H 0.77559 0.71749 0.55588 0.0
H489 H 0.88816 0.74542 0.39923 0.0
H490 H 0.81213 0.81872 0.36487 0.0
H491 H 0.7069 0.86415 0.37399 0.0
H492 H 0.59224 0.82706 0.52621 0.0
H493 H 0.67583 0.76771 0.56828 0.0
C494 C 0.78417 0.74039 0.51465 0.0
C495 C 0.83706 0.72569 0.47978 0.0
C496 C 0.73929 0.77998 0.49421 0.0
C497 C 0.848 0.75623 0.42698 0.0
C498 C 0.80412 0.79748 0.40703 0.0
C499 C 0.70048 0.84296 0.41621 0.0
C500 C 0.64337 0.84903 0.44678 0.0
C501 C 0.74847 0.80786 0.43922 0.0
C502 C 0.63597 0.8232 0.50243 0.0
C503 C 0.68356 0.78902 0.52612 0.0
H504 H 0.72242 0.12989 0.42178 0.0
H505 H 0.58445 0.26813 0.40856 0.0
H506 H 0.6659 0.34341 0.40887 0.0
H507 H 0.77361 0.36825 0.43242 0.0
H508 H 0.91112 0.22896 0.44441 0.0
H509 H 0.83232 0.15456 0.4236 0.0
C510 C 0.7105 0.17636 0.41701 0.0
C511 C 0.64813 0.19424 0.41734 0.0
C512 C 0.75719 0.21863 0.41753 0.0
C513 C 0.63251 0.25421 0.41077 0.0
C514 C 0.67889 0.29689 0.41069 0.0
C515 C 0.78663 0.32186 0.42829 0.0
C516 C 0.84769 0.30399 0.43981 0.0
C517 C 0.74107 0.27956 0.4172 0.0
C518 C 0.86425 0.24365 0.43527 0.0
C519 C 0.81923 0.20114 0.42383 0.0
H520 H 0.50854 0.25456 0.87719 0.0
H521 H 0.67681 0.3316 0.81196 0.0
H522 H 0.68819 0.25117 0.73682 0.0
H523 H 0.63922 0.1707 0.67841 0.0
H524 H 0.46387 0.101 0.73712 0.0
H525 H 0.46618 0.16581 0.82622 0.0
C526 C 0.54877 0.25208 0.84777 0.0
C527 C 0.59242 0.29798 0.85045 0.0
C528 C 0.55276 0.20767 0.80268 0.0
C529 C 0.64377 0.29575 0.81161 0.0
C530 C 0.64954 0.25031 0.76805 0.0
C531 C 0.60237 0.16843 0.71151 0.0
C532 C 0.55102 0.13154 0.70073 0.0
C533 C 0.60281 0.20761 0.76146 0.0
C534 C 0.50356 0.12941 0.74402 0.0
C535 C 0.50478 0.16662 0.79491 0.0
H536 H 0.5691 0.73951 0.61139 0.0
H537 H 0.57101 0.86051 0.7627 0.0
H538 H 0.55806 0.77794 0.83045 0.0
H539 H 0.52339 0.67494 0.84372 0.0
H540 H 0.50787 0.55779 0.68918 0.0
H541 H 0.54824 0.6346 0.62544 0.0
C542 C 0.56919 0.747 0.6594 0.0
C543 C 0.57105 0.80527 0.6823 0.0
C544 C 0.55683 0.70017 0.69718 0.0
C545 C 0.57052 0.81564 0.74433 0.0
C546 C 0.56182 0.76858 0.78287 0.0
C547 C 0.52974 0.66616 0.79622 0.0
C548 C 0.51109 0.61162 0.77075 0.0
C549 C 0.55117 0.71123 0.75945 0.0
C550 C 0.52023 0.60019 0.7094 0.0
C551 C 0.54374 0.64386 0.673 0.0
H552 H 0.62645 0.67638 0.16335 0.0
H553 H 0.45554 0.604 0.22921 0.0
H554 H 0.45711 0.67354 0.31528 0.0
H555 H 0.49905 0.76446 0.36257 0.0
H556 H 0.65822 0.84739 0.28484 0.0
H557 H 0.67076 0.7642 0.2131 0.0
C558 C 0.59063 0.67485 0.19758 0.0
C559 C 0.54126 0.63516 0.19078 0.0
C560 C 0.58986 0.71733 0.2444 0.0
C561 C 0.49409 0.63418 0.23422 0.0
C562 C 0.49484 0.67408 0.28299 0.0
C563 C 0.53724 0.76304 0.33068 0.0
C564 C 0.57903 0.8104 0.32979 0.0
C565 C 0.54123 0.71726 0.28723 0.0
C566 C 0.62739 0.80995 0.28763 0.0
C567 C 0.6338 0.76292 0.24615 0.0
H568 H 0.45035 0.22086 0.38305 0.0
H569 H 0.4622 0.07862 0.251 0.0
H570 H 0.49807 0.14781 0.17603 0.0
H571 H 0.52044 0.25002 0.14697 0.0
H572 H 0.50783 0.39233 0.2782 0.0
H573 H 0.48055 0.32206 0.3555 0.0
C574 C 0.4607 0.20544 0.33775 0.0
C575 C 0.453 0.14544 0.32181 0.0
C576 C 0.48244 0.2452 0.29536 0.0
C577 C 0.46744 0.12504 0.2636 0.0
C578 C 0.48811 0.16441 0.22096 0.0
C579 C 0.51307 0.26494 0.19291 0.0
C580 C 0.51668 0.32559 0.20746 0.0
C581 C 0.49541 0.2246 0.23626 0.0
C582 C 0.50659 0.34542 0.26667 0.0
C583 C 0.48996 0.30546 0.31047 0.0
loop_
_geom_bond_atom_site_label_1
_geom_bond_atom_site_label_2
_geom_bond_distance
_geom_bond_site_symmetry_2
_ccdc_geom_bond_type
Zn0 O4 1.994 . S
Zn0 N7 2.004 1_545 S
Zn0 O31 2.064 1_545 S
Zn0 O36 1.963 . S
Zn1 O4 1.970 1_564 S
Zn1 N12 2.004 . S
Zn1 O33 1.963 1_554 S
Zn1 O38 2.064 . S
Zn2 O4 1.970 1_554 S
Zn2 N21 2.003 1_655 S
Zn2 O35 2.064 . S
Zn2 O39 1.963 . S
Zn3 O4 1.913 . S
Zn3 O30 1.941 . S
Zn3 O34 1.941 1_556 S
Zn3 O37 1.941 1_556 S
O4 Zn0 1.994 . S
O4 Zn1 1.970 1_546 S
O4 Zn2 1.970 1_556 S
O4 Zn3 1.913 . S
C5 O6 1.237 1_655 S
C5 O39 1.268 . S
O6 C5 1.237 1_455 S
N7 Zn0 2.004 1_565 S
N7 N8 1.383 1_655 S
N7 C10 1.306 1_655 S
N8 N7 1.383 1_455 S
N8 C11 1.302 . S
N9 C10 1.368 . S
N9 C11 1.379 . S
C10 N7 1.306 1_455 S
C10 N9 1.368 . S
C10 C49 1.481 1_455 S
C11 N8 1.302 . S
C11 N9 1.379 . S
N12 Zn1 2.004 . S
N12 C15 1.306 1_655 S
N12 N16 1.383 1_655 S
C13 N14 1.379 . S
C13 N16 1.302 . S
N14 C13 1.379 . S
N14 C15 1.368 . S
C15 N12 1.306 1_455 S
C15 N14 1.368 . S
C15 C18 1.481 1_455 S
N16 N12 1.383 1_455 S
N16 C13 1.302 . S
H17 C18 0.969 . S
C18 C15 1.481 1_655 S
C18 H17 0.969 . S
C18 H19 0.970 . S
C18 H20 0.971 . S
H19 C18 0.970 . S
H20 C18 0.971 . S
N21 Zn2 2.003 1_455 S
N21 C22 1.306 . S
N21 N24 1.384 1_554 S
C22 N21 1.306 . S
C22 N25 1.368 1_554 S
C22 C26 1.481 . S
C23 N24 1.302 . S
C23 N25 1.379 . S
N24 N21 1.384 1_556 S
N24 C23 1.302 . S
N25 C22 1.368 1_556 S
N25 C23 1.379 . S
C26 C22 1.481 . S
C26 H27 0.971 . S
C26 H28 0.970 . S
C26 H29 0.969 . S
H27 C26 0.971 . S
H28 C26 0.970 . S
H29 C26 0.969 . S
O30 Zn3 1.941 . S
O30 C32 1.277 1_545 S
O31 Zn0 2.064 1_565 S
O31 C32 1.233 . S
C32 O30 1.277 1_565 S
C32 O31 1.233 . S
O33 Zn1 1.963 1_556 S
O33 C40 1.268 . S
O34 Zn3 1.941 1_554 S
O34 C42 1.277 1_554 S
O35 Zn2 2.064 . S
O35 C42 1.230 1_554 S
O36 Zn0 1.963 . S
O36 C43 1.268 . S
O37 Zn3 1.941 1_554 S
O37 C45 1.277 1_545 S
O38 Zn1 2.064 . S
O38 C45 1.233 . S
O39 Zn2 1.963 . S
O39 C5 1.268 . S
C40 O33 1.268 . S
C40 O41 1.237 1_556 S
O41 C40 1.237 1_554 S
C42 O34 1.277 1_556 S
C42 O35 1.230 1_556 S
C43 O36 1.268 . S
C43 O44 1.237 . S
O44 C43 1.237 . S
C45 O37 1.277 1_565 S
C45 O38 1.233 . S
H46 C49 0.970 . S
H47 C49 0.971 . S
H48 C49 0.969 1_455 S
C49 C10 1.481 1_655 S
C49 H46 0.970 . S
C49 H47 0.971 . S
C49 H48 0.969 1_655 S
Zn50 O54 1.978 . S
Zn50 N57 2.004 . S
Zn50 O81 2.064 . S
Zn50 O86 1.963 . S
Zn51 O54 1.978 . S
Zn51 N62 2.004 . S
Zn51 O83 1.963 . S
Zn51 O88 2.064 . S
Zn52 O54 1.978 . S
Zn52 N71 2.004 1_655 S
Zn52 O85 2.064 . S
Zn52 O89 1.963 . S
Zn53 O54 1.913 . S
Zn53 O80 1.941 . S
Zn53 O84 1.941 . S
Zn53 O87 1.941 . S
O54 Zn50 1.978 . S
O54 Zn51 1.978 . S
O54 Zn52 1.978 . S
O54 Zn53 1.913 . S
C55 O56 1.237 1_655 S
C55 O89 1.268 . S
O56 C55 1.237 1_455 S
N57 Zn50 2.004 . S
N57 N58 1.383 1_655 S
N57 C60 1.306 1_655 S
N58 N57 1.383 1_455 S
N58 C61 1.302 . S
N59 C60 1.368 . S
N59 C61 1.379 . S
C60 N57 1.306 1_455 S
C60 N59 1.368 . S
C60 C99 1.481 1_455 S
C61 N58 1.302 . S
C61 N59 1.379 . S
N62 Zn51 2.004 . S
N62 C65 1.306 1_655 S
N62 N66 1.383 1_655 S
C63 N64 1.379 . S
C63 N66 1.302 . S
N64 C63 1.379 . S
N64 C65 1.368 . S
C65 N62 1.306 1_455 S
C65 N64 1.368 . S
C65 C68 1.481 1_455 S
N66 N62 1.383 1_455 S
N66 C63 1.302 . S
H67 C68 0.969 . S
C68 C65 1.481 1_655 S
C68 H67 0.969 . S
C68 H69 0.970 . S
C68 H70 0.971 . S
H69 C68 0.970 . S
H70 C68 0.971 . S
N71 Zn52 2.004 1_455 S
N71 C72 1.306 . S
N71 N74 1.383 . S
C72 N71 1.306 . S
C72 N75 1.368 . S
C72 C76 1.481 . S
C73 N74 1.302 . S
C73 N75 1.379 . S
N74 N71 1.383 . S
N74 C73 1.302 . S
N75 C72 1.368 . S
N75 C73 1.379 . S
C76 C72 1.481 . S
C76 H77 0.971 . S
C76 H78 0.970 . S
C76 H79 0.969 . S
H77 C76 0.971 . S
H78 C76 0.970 . S
H79 C76 0.969 . S
O80 Zn53 1.941 . S
O80 C82 1.277 . S
O81 Zn50 2.064 . S
O81 C82 1.233 . S
C82 O80 1.277 . S
C82 O81 1.233 . S
O83 Zn51 1.963 . S
O83 C90 1.268 . S
O84 Zn53 1.941 . S
O84 C92 1.277 . S
O85 Zn52 2.064 . S
O85 C92 1.233 . S
O86 Zn50 1.963 . S
O86 C93 1.268 . S
O87 Zn53 1.941 . S
O87 C95 1.277 . S
O88 Zn51 2.064 . S
O88 C95 1.233 . S
O89 Zn52 1.963 . S
O89 C55 1.268 . S
C90 O83 1.268 . S
C90 O91 1.237 . S
O91 C90 1.237 . S
C92 O84 1.277 . S
C92 O85 1.233 . S
C93 O86 1.268 . S
C93 O94 1.237 . S
O94 C93 1.237 . S
C95 O87 1.277 . S
C95 O88 1.233 . S
H96 C99 0.970 . S
H97 C99 0.971 . S
H98 C99 0.969 1_455 S
C99 C60 1.481 1_655 S
C99 H96 0.970 . S
C99 H97 0.971 . S
C99 H98 0.969 1_655 S
Zn100 O104 1.978 . S
Zn100 N107 2.004 1_545 S
Zn100 O131 2.064 1_545 S
Zn100 O136 1.963 . S
Zn101 O104 1.978 1_565 S
Zn101 N112 2.004 . S
Zn101 O133 1.963 . S
Zn101 O138 2.064 . S
Zn102 O104 1.978 . S
Zn102 N121 2.004 . S
Zn102 O135 2.064 . S
Zn102 O139 1.963 . S
Zn103 O104 1.913 . S
Zn103 O130 1.941 . S
Zn103 O134 1.941 . S
Zn103 O137 1.941 . S
O104 Zn100 1.978 . S
O104 Zn101 1.978 1_545 S
O104 Zn102 1.978 . S
O104 Zn103 1.913 . S
C105 O106 1.237 . S
C105 O139 1.268 . S
O106 C105 1.237 . S
N107 Zn100 2.004 1_565 S
N107 N108 1.383 . S
N107 C110 1.306 . S
N108 N107 1.383 . S
N108 C111 1.302 . S
N109 C110 1.368 . S
N109 C111 1.379 . S
C110 N107 1.306 . S
C110 N109 1.368 . S
C110 C149 1.481 . S
C111 N108 1.302 . S
C111 N109 1.379 . S
N112 Zn101 2.004 . S
N112 C115 1.306 . S
N112 N116 1.383 . S
C113 N114 1.379 . S
C113 N116 1.302 . S
N114 C113 1.379 . S
N114 C115 1.368 . S
C115 N112 1.306 . S
C115 N114 1.368 . S
C115 C118 1.481 . S
N116 N112 1.383 . S
N116 C113 1.302 . S
H117 C118 0.969 . S
C118 C115 1.481 . S
C118 H117 0.969 . S
C118 H119 0.970 . S
C118 H120 0.971 . S
H119 C118 0.970 . S
H120 C118 0.971 . S
N121 Zn102 2.004 . S
N121 C122 1.306 . S
N121 N124 1.383 . S
C122 N121 1.306 . S
C122 N125 1.368 . S
C122 C126 1.481 . S
C123 N124 1.302 . S
C123 N125 1.379 . S
N124 N121 1.383 . S
N124 C123 1.302 . S
N125 C122 1.368 . S
N125 C123 1.379 . S
C126 C122 1.481 . S
C126 H127 0.971 . S
C126 H128 0.970 . S
C126 H129 0.969 . S
H127 C126 0.971 . S
H128 C126 0.970 . S
H129 C126 0.969 . S
O130 Zn103 1.941 . S
O130 C132 1.277 1_545 S
O131 Zn100 2.064 1_565 S
O131 C132 1.233 . S
C132 O130 1.277 1_565 S
C132 O131 1.233 . S
O133 Zn101 1.963 . S
O133 C140 1.268 . S
O134 Zn103 1.941 . S
O134 C142 1.277 . S
O135 Zn102 2.064 . S
O135 C142 1.233 . S
O136 Zn100 1.963 . S
O136 C143 1.268 . S
O137 Zn103 1.941 . S
O137 C145 1.277 1_545 S
O138 Zn101 2.064 . S
O138 C145 1.233 . S
O139 Zn102 1.963 . S
O139 C105 1.268 . S
C140 O133 1.268 . S
C140 O141 1.237 . S
O141 C140 1.237 . S
C142 O134 1.277 . S
C142 O135 1.233 . S
C143 O136 1.268 . S
C143 O144 1.237 . S
O144 C143 1.237 . S
C145 O137 1.277 1_565 S
C145 O138 1.233 . S
H146 C149 0.970 . S
H147 C149 0.971 . S
H148 C149 0.969 . S
C149 C110 1.481 . S
C149 H146 0.970 . S
C149 H147 0.971 . S
C149 H148 0.969 . S
Zn150 O154 1.994 . S
Zn150 N157 2.004 . S
Zn150 O181 2.064 . S
Zn150 O186 1.963 . S
Zn151 O154 1.970 1_554 S
Zn151 N162 2.004 . S
Zn151 O183 1.963 1_554 S
Zn151 O188 2.064 . S
Zn152 O154 1.970 1_554 S
Zn152 N171 2.003 . S
Zn152 O185 2.064 . S
Zn152 O189 1.963 . S
Zn153 O154 1.913 . S
Zn153 O180 1.941 . S
Zn153 O184 1.941 1_556 S
Zn153 O187 1.941 1_556 S
O154 Zn150 1.994 . S
O154 Zn151 1.970 1_556 S
O154 Zn152 1.970 1_556 S
O154 Zn153 1.913 . S
C155 O156 1.237 . S
C155 O189 1.268 . S
O156 C155 1.237 . S
N157 Zn150 2.004 . S
N157 N158 1.383 . S
N157 C160 1.306 . S
N158 N157 1.383 . S
N158 C161 1.302 . S
N159 C160 1.368 . S
N159 C161 1.379 . S
C160 N157 1.306 . S
C160 N159 1.368 . S
C160 C199 1.481 . S
C161 N158 1.302 . S
C161 N159 1.379 . S
N162 Zn151 2.004 . S
N162 C165 1.306 . S
N162 N166 1.383 . S
C163 N164 1.379 . S
C163 N166 1.302 . S
N164 C163 1.379 . S
N164 C165 1.368 . S
C165 N162 1.306 . S
C165 N164 1.368 . S
C165 C168 1.481 . S
N166 N162 1.383 . S
N166 C163 1.302 . S
H167 C168 0.969 . S
C168 C165 1.481 . S
C168 H167 0.969 . S
C168 H169 0.970 . S
C168 H170 0.971 . S
H169 C168 0.970 . S
H170 C168 0.971 . S
N171 Zn152 2.003 . S
N171 C172 1.306 . S
N171 N174 1.384 1_554 S
C172 N171 1.306 . S
C172 N175 1.368 1_554 S
C172 C176 1.481 . S
C173 N174 1.302 . S
C173 N175 1.379 . S
N174 N171 1.384 1_556 S
N174 C173 1.302 . S
N175 C172 1.368 1_556 S
N175 C173 1.379 . S
C176 C172 1.481 . S
C176 H177 0.971 . S
C176 H178 0.970 . S
C176 H179 0.969 . S
H177 C176 0.971 . S
H178 C176 0.970 . S
H179 C176 0.969 . S
O180 Zn153 1.941 . S
O180 C182 1.277 . S
O181 Zn150 2.064 . S
O181 C182 1.233 . S
C182 O180 1.277 . S
C182 O181 1.233 . S
O183 Zn151 1.963 1_556 S
O183 C190 1.268 . S
O184 Zn153 1.941 1_554 S
O184 C192 1.277 1_554 S
O185 Zn152 2.064 . S
O185 C192 1.230 1_554 S
O186 Zn150 1.963 . S
O186 C193 1.268 . S
O187 Zn153 1.941 1_554 S
O187 C195 1.277 . S
O188 Zn151 2.064 . S
O188 C195 1.233 . S
O189 Zn152 1.963 . S
O189 C155 1.268 . S
C190 O183 1.268 . S
C190 O191 1.237 1_556 S
O191 C190 1.237 1_554 S
C192 O184 1.277 1_556 S
C192 O185 1.230 1_556 S
C193 O186 1.268 . S
C193 O194 1.237 . S
O194 C193 1.237 . S
C195 O187 1.277 . S
C195 O188 1.233 . S
H196 C199 0.970 . S
H197 C199 0.971 . S
H198 C199 0.969 . S
C199 C160 1.481 . S
C199 H196 0.970 . S
C199 H197 0.971 . S
C199 H198 0.969 . S
H200 C206 0.930 . S
H201 C209 0.930 . S
H202 C210 0.930 . S
H203 C211 0.930 . S
H204 C214 0.930 . S
H205 C215 0.930 . S
C206 H200 0.930 . S
C206 C207 1.355 1_655 S
C206 C208 1.415 . S
C207 C206 1.355 1_455 S
C207 C209 1.419 . S
C208 C206 1.415 . S
C208 C213 1.425 1_655 S
C208 C215 1.409 . S
C209 H201 0.930 . S
C209 C207 1.419 . S
C209 C210 1.362 . S
C210 H202 0.930 . S
C210 C209 1.362 . S
C210 C213 1.409 . S
C211 H203 0.930 . S
C211 C212 1.355 . S
C211 C213 1.415 . S
C212 C211 1.355 . S
C212 C214 1.419 1_455 S
C213 C208 1.425 1_455 S
C213 C210 1.409 . S
C213 C211 1.415 . S
C214 H204 0.930 . S
C214 C212 1.419 1_655 S
C214 C215 1.362 . S
C215 H205 0.930 . S
C215 C208 1.409 . S
C215 C214 1.362 . S
H216 C222 0.930 . S
H217 C225 0.930 . S
H218 C226 0.930 . S
H219 C227 0.923 1_565 S
H220 C230 0.930 . S
H221 C231 0.930 . S
C222 H216 0.930 . S
C222 C223 1.355 . S
C222 C224 1.415 . S
C223 C222 1.355 . S
C223 C225 1.419 1_545 S
C224 C222 1.415 . S
C224 C229 1.425 . S
C224 C231 1.409 . S
C225 H217 0.930 . S
C225 C223 1.419 1_565 S
C225 C226 1.362 . S
C226 H218 0.930 . S
C226 C225 1.362 . S
C226 C229 1.409 1_565 S
C227 H219 0.923 1_545 S
C227 C228 1.355 . S
C227 C229 1.415 . S
C228 C227 1.355 . S
C228 C230 1.419 . S
C229 C224 1.425 . S
C229 C226 1.409 1_545 S
C229 C227 1.415 . S
C230 H220 0.930 . S
C230 C228 1.419 . S
C230 C231 1.362 . S
C231 H221 0.930 . S
C231 C224 1.409 . S
C231 C230 1.362 . S
H232 C238 0.930 . S
H233 C241 0.930 . S
H234 C242 0.930 . S
H235 C243 0.930 . S
H236 C246 0.930 . S
H237 C247 0.930 . S
C238 H232 0.930 . S
C238 C239 1.355 . S
C238 C240 1.415 . S
C239 C238 1.355 . S
C239 C241 1.419 . S
C240 C238 1.415 . S
C240 C245 1.425 . S
C240 C247 1.409 . S
C241 H233 0.930 . S
C241 C239 1.419 . S
C241 C242 1.362 1_455 S
C242 H234 0.930 . S
C242 C241 1.362 1_655 S
C242 C245 1.409 1_655 S
C243 H235 0.930 . S
C243 C244 1.355 1_655 S
C243 C245 1.415 1_655 S
C244 C243 1.355 1_455 S
C244 C246 1.419 . S
C245 C240 1.425 . S
C245 C242 1.409 1_455 S
C245 C243 1.415 1_455 S
C246 H236 0.930 . S
C246 C244 1.419 . S
C246 C247 1.362 . S
C247 H237 0.930 . S
C247 C240 1.409 . S
C247 C246 1.362 . S
H248 C254 0.930 . S
H249 C257 0.930 . S
H250 C258 0.930 . S
H251 C259 0.930 . S
H252 C262 0.930 . S
H253 C263 0.930 . S
C254 H248 0.930 . S
C254 C255 1.355 . S
C254 C256 1.415 . S
C255 C254 1.355 . S
C255 C257 1.419 . S
C256 C254 1.415 . S
C256 C261 1.425 . S
C256 C263 1.409 . S
C257 H249 0.930 . S
C257 C255 1.419 . S
C257 C258 1.362 . S
C258 H250 0.930 . S
C258 C257 1.362 . S
C258 C261 1.409 . S
C259 H251 0.930 . S
C259 C260 1.355 . S
C259 C261 1.415 . S
C260 C259 1.355 . S
C260 C262 1.419 . S
C261 C256 1.425 . S
C261 C258 1.409 . S
C261 C259 1.415 . S
C262 H252 0.930 . S
C262 C260 1.419 . S
C262 C263 1.362 . S
C263 H253 0.930 . S
C263 C256 1.409 . S
C263 C262 1.362 . S
H264 C270 0.930 . S
H265 C273 0.930 . S
H266 C274 0.930 . S
H267 C275 0.930 . S
H268 C278 0.930 . S
H269 C279 0.930 . S
C270 H264 0.930 . S
C270 C271 1.355 . S
C270 C272 1.415 . S
C271 C270 1.355 . S
C271 C273 1.419 . S
C272 C270 1.415 . S
C272 C277 1.425 . S
C272 C279 1.409 1_455 S
C273 H265 0.930 . S
C273 C271 1.419 . S
C273 C274 1.362 . S
C274 H266 0.930 . S
C274 C273 1.362 . S
C274 C277 1.409 . S
C275 H267 0.930 . S
C275 C276 1.355 1_455 S
C275 C277 1.415 . S
C276 C275 1.355 1_655 S
C276 C278 1.419 . S
C277 C272 1.425 . S
C277 C274 1.409 . S
C277 C275 1.415 . S
C278 H268 0.930 . S
C278 C276 1.419 . S
C278 C279 1.362 . S
C279 H269 0.930 . S
C279 C272 1.409 1_655 S
C279 C278 1.362 . S
H280 C286 0.930 . S
H281 C289 0.930 . S
H282 C290 0.930 . S
H283 C291 0.930 . S
H284 C294 0.930 . S
H285 C295 0.930 . S
C286 H280 0.930 . S
C286 C287 1.355 . S
C286 C288 1.415 . S
C287 C286 1.355 . S
C287 C289 1.419 . S
C288 C286 1.415 . S
C288 C293 1.425 . S
C288 C295 1.409 1_545 S
C289 H281 0.930 . S
C289 C287 1.419 . S
C289 C290 1.362 . S
C290 H282 0.930 . S
C290 C289 1.362 . S
C290 C293 1.409 . S
C291 H283 0.930 . S
C291 C292 1.355 . S
C291 C293 1.415 . S
C292 C291 1.355 . S
C292 C294 1.419 1_545 S
C293 C288 1.425 . S
C293 C290 1.409 . S
C293 C291 1.415 . S
C294 H284 0.930 . S
C294 C292 1.419 1_565 S
C294 C295 1.362 . S
C295 H285 0.930 . S
C295 C288 1.409 1_565 S
C295 C294 1.362 . S
H296 C302 0.930 1_655 S
H297 C305 0.930 . S
H298 C306 0.930 . S
H299 C307 0.930 . S
H300 C310 0.930 . S
H301 C311 0.930 . S
C302 H296 0.930 1_455 S
C302 C303 1.355 . S
C302 C304 1.415 . S
C303 C302 1.355 . S
C303 C305 1.419 . S
C304 C302 1.415 . S
C304 C309 1.425 . S
C304 C311 1.409 1_455 S
C305 H297 0.930 . S
C305 C303 1.419 . S
C305 C306 1.362 . S
C306 H298 0.930 . S
C306 C305 1.362 . S
C306 C309 1.409 . S
C307 H299 0.930 . S
C307 C308 1.355 . S
C307 C309 1.415 . S
C308 C307 1.355 . S
C308 C310 1.419 1_455 S
C309 C304 1.425 . S
C309 C306 1.409 . S
C309 C307 1.415 . S
C310 H300 0.930 . S
C310 C308 1.419 1_655 S
C310 C311 1.362 . S
C311 H301 0.930 . S
C311 C304 1.409 1_655 S
C311 C310 1.362 . S
H312 C318 0.930 . S
H313 C321 0.930 . S
H314 C322 0.930 . S
H315 C323 0.930 . S
H316 C326 0.930 . S
H317 C327 0.930 . S
C318 H312 0.930 . S
C318 C319 1.355 . S
C318 C320 1.415 . S
C319 C318 1.355 . S
C319 C321 1.419 1_565 S
C320 C318 1.415 . S
C320 C325 1.425 1_565 S
C320 C327 1.409 . S
C321 H313 0.930 . S
C321 C319 1.419 1_545 S
C321 C322 1.362 . S
C322 H314 0.930 . S
C322 C321 1.362 . S
C322 C325 1.409 . S
C323 H315 0.930 . S
C323 C324 1.355 1_545 S
C323 C325 1.415 . S
C324 C323 1.355 1_565 S
C324 C326 1.419 . S
C325 C320 1.425 1_545 S
C325 C322 1.409 . S
C325 C323 1.415 . S
C326 H316 0.930 . S
C326 C324 1.419 . S
C326 C327 1.362 . S
C327 H317 0.930 . S
C327 C320 1.409 . S
C327 C326 1.362 . S
H328 C334 0.930 . S
H329 C337 0.930 . S
H330 C338 0.930 . S
H331 C339 0.930 . S
H332 C342 0.930 . S
H333 C343 0.930 . S
C334 H328 0.930 . S
C334 C335 1.355 . S
C334 C336 1.415 . S
C335 C334 1.355 . S
C335 C337 1.419 1_556 S
C336 C334 1.415 . S
C336 C341 1.425 . S
C336 C343 1.409 . S
C337 H329 0.930 . S
C337 C335 1.419 1_554 S
C337 C338 1.362 . S
C338 H330 0.930 . S
C338 C337 1.362 . S
C338 C341 1.409 1_554 S
C339 H331 0.930 . S
C339 C340 1.355 . S
C339 C341 1.415 . S
C340 C339 1.355 . S
C340 C342 1.419 . S
C341 C336 1.425 . S
C341 C338 1.409 1_556 S
C341 C339 1.415 . S
C342 H332 0.930 . S
C342 C340 1.419 . S
C342 C343 1.362 . S
C343 H333 0.930 . S
C343 C336 1.409 . S
C343 C342 1.362 . S
H344 C350 0.930 . S
H345 C353 0.930 . S
H346 C354 0.930 . S
H347 C355 0.930 . S
H348 C358 0.930 . S
H349 C359 0.930 . S
C350 H344 0.930 . S
C350 C351 1.355 . S
C350 C352 1.415 . S
C351 C350 1.355 . S
C351 C353 1.419 . S
C352 C350 1.415 . S
C352 C357 1.425 . S
C352 C359 1.409 . S
C353 H345 0.930 . S
C353 C351 1.419 . S
C353 C354 1.362 . S
C354 H346 0.930 . S
C354 C353 1.362 . S
C354 C357 1.409 . S
C355 H347 0.930 . S
C355 C356 1.355 . S
C355 C357 1.415 . S
C356 C355 1.355 . S
C356 C358 1.419 . S
C357 C352 1.425 . S
C357 C354 1.409 . S
C357 C355 1.415 . S
C358 H348 0.930 . S
C358 C356 1.419 . S
C358 C359 1.362 . S
C359 H349 0.930 . S
C359 C352 1.409 . S
C359 C358 1.362 . S
H360 C366 0.930 . S
H361 C369 0.930 . S
H362 C370 0.930 . S
H363 C371 0.930 . S
H364 C374 0.930 . S
H365 C375 0.930 . S
C366 H360 0.930 . S
C366 C367 1.355 . S
C366 C368 1.415 . S
C367 C366 1.355 . S
C367 C369 1.419 . S
C368 C366 1.415 . S
C368 C373 1.425 . S
C368 C375 1.409 . S
C369 H361 0.930 . S
C369 C367 1.419 . S
C369 C370 1.362 . S
C370 H362 0.930 . S
C370 C369 1.362 . S
C370 C373 1.409 . S
C371 H363 0.930 . S
C371 C372 1.355 . S
C371 C373 1.415 . S
C372 C371 1.355 . S
C372 C374 1.419 . S
C373 C368 1.425 . S
C373 C370 1.409 . S
C373 C371 1.415 . S
C374 H364 0.930 . S
C374 C372 1.419 . S
C374 C375 1.362 . S
C375 H365 0.930 . S
C375 C368 1.409 . S
C375 C374 1.362 . S
H376 C382 0.930 . S
H377 C385 0.930 . S
H378 C386 0.930 . S
H379 C387 0.930 . S
H380 C390 0.930 . S
H381 C391 0.930 . S
C382 H376 0.930 . S
C382 C383 1.355 1_554 S
C382 C384 1.415 1_554 S
C383 C382 1.355 1_556 S
C383 C385 1.419 . S
C384 C382 1.415 1_556 S
C384 C389 1.425 . S
C384 C391 1.409 1_556 S
C385 H377 0.930 . S
C385 C383 1.419 . S
C385 C386 1.362 . S
C386 H378 0.930 . S
C386 C385 1.362 . S
C386 C389 1.409 . S
C387 H379 0.930 . S
C387 C388 1.355 . S
C387 C389 1.415 . S
C388 C387 1.355 . S
C388 C390 1.419 1_556 S
C389 C384 1.425 . S
C389 C386 1.409 . S
C389 C387 1.415 . S
C390 H380 0.930 . S
C390 C388 1.419 1_554 S
C390 C391 1.362 . S
C391 H381 0.930 . S
C391 C384 1.409 1_554 S
C391 C390 1.362 . S
H392 C398 0.930 . S
H393 C401 0.930 . S
H394 C402 0.930 . S
H395 C403 0.930 . S
H396 C406 0.930 . S
H397 C407 0.930 . S
C398 H392 0.930 . S
C398 C399 1.355 . S
C398 C400 1.415 . S
C399 C398 1.355 . S
C399 C401 1.419 . S
C400 C398 1.415 . S
C400 C405 1.425 . S
C400 C407 1.409 . S
C401 H393 0.930 . S
C401 C399 1.419 . S
C401 C402 1.362 . S
C402 H394 0.930 . S
C402 C401 1.362 . S
C402 C405 1.409 . S
C403 H395 0.930 . S
C403 C404 1.355 . S
C403 C405 1.415 . S
C404 C403 1.355 . S
C404 C406 1.419 . S
C405 C400 1.425 . S
C405 C402 1.409 . S
C405 C403 1.415 . S
C406 H396 0.930 . S
C406 C404 1.419 . S
C406 C407 1.362 . S
C407 H397 0.930 . S
C407 C400 1.409 . S
C407 C406 1.362 . S
H408 C414 0.930 . S
H409 C417 0.930 . S
H410 C418 0.930 . S
H411 C419 0.930 . S
H412 C422 0.930 . S
H413 C423 0.930 . S
C414 H408 0.930 . S
C414 C415 1.355 . S
C414 C416 1.415 . S
C415 C414 1.355 . S
C415 C417 1.419 . S
C416 C414 1.415 . S
C416 C421 1.425 . S
C416 C423 1.409 . S
C417 H409 0.930 . S
C417 C415 1.419 . S
C417 C418 1.362 . S
C418 H410 0.930 . S
C418 C417 1.362 . S
C418 C421 1.409 . S
C419 H411 0.930 . S
C419 C420 1.355 . S
C419 C421 1.415 . S
C420 C419 1.355 . S
C420 C422 1.419 . S
C421 C416 1.425 . S
C421 C418 1.409 . S
C421 C419 1.415 . S
C422 H412 0.930 . S
C422 C420 1.419 . S
C422 C423 1.362 . S
C423 H413 0.930 . S
C423 C416 1.409 . S
C423 C422 1.362 . S
H424 C430 0.930 . S
H425 C433 0.930 . S
H426 C434 0.930 . S
H427 C435 0.930 . S
H428 C438 0.930 . S
H429 C439 0.930 . S
C430 H424 0.930 . S
C430 C431 1.355 . S
C430 C432 1.415 . S
C431 C430 1.355 . S
C431 C433 1.419 . S
C432 C430 1.415 . S
C432 C437 1.425 . S
C432 C439 1.409 . S
C433 H425 0.930 . S
C433 C431 1.419 . S
C433 C434 1.362 . S
C434 H426 0.930 . S
C434 C433 1.362 . S
C434 C437 1.409 . S
C435 H427 0.930 . S
C435 C436 1.355 . S
C435 C437 1.415 . S
C436 C435 1.355 . S
C436 C438 1.419 . S
C437 C432 1.425 . S
C437 C434 1.409 . S
C437 C435 1.415 . S
C438 H428 0.930 . S
C438 C436 1.419 . S
C438 C439 1.362 . S
C439 H429 0.930 . S
C439 C432 1.409 . S
C439 C438 1.362 . S
H440 C446 0.930 . S
H441 C449 0.930 . S
H442 C450 0.930 . S
H443 C451 0.930 . S
H444 C454 0.930 . S
H445 C455 0.930 . S
C446 H440 0.930 . S
C446 C447 1.355 . S
C446 C448 1.415 . S
C447 C446 1.355 . S
C447 C449 1.419 . S
C448 C446 1.415 . S
C448 C453 1.425 . S
C448 C455 1.409 . S
C449 H441 0.930 . S
C449 C447 1.419 . S
C449 C450 1.362 . S
C450 H442 0.930 . S
C450 C449 1.362 . S
C450 C453 1.409 . S
C451 H443 0.930 . S
C451 C452 1.355 . S
C451 C453 1.415 . S
C452 C451 1.355 . S
C452 C454 1.419 . S
C453 C448 1.425 . S
C453 C450 1.409 . S
C453 C451 1.415 . S
C454 H444 0.930 . S
C454 C452 1.419 . S
C454 C455 1.362 . S
C455 H445 0.930 . S
C455 C448 1.409 . S
C455 C454 1.362 . S
H456 C462 0.930 . S
H457 C465 0.930 . S
H458 C466 0.930 . S
H459 C467 0.930 . S
H460 C470 0.930 . S
H461 C471 0.930 . S
C462 H456 0.930 . S
C462 C463 1.355 . S
C462 C464 1.415 . S
C463 C462 1.355 . S
C463 C465 1.419 . S
C464 C462 1.415 . S
C464 C469 1.425 . S
C464 C471 1.409 . S
C465 H457 0.930 . S
C465 C463 1.419 . S
C465 C466 1.362 . S
C466 H458 0.930 . S
C466 C465 1.362 . S
C466 C469 1.409 . S
C467 H459 0.930 . S
C467 C468 1.355 . S
C467 C469 1.415 . S
C468 C467 1.355 . S
C468 C470 1.419 . S
C469 C464 1.425 . S
C469 C466 1.409 . S
C469 C467 1.415 . S
C470 H460 0.930 . S
C470 C468 1.419 . S
C470 C471 1.362 . S
C471 H461 0.930 . S
C471 C464 1.409 . S
C471 C470 1.362 . S
H472 C478 0.930 . S
H473 C481 0.930 . S
H474 C482 0.930 . S
H475 C483 0.930 . S
H476 C486 0.930 . S
H477 C487 0.930 . S
C478 H472 0.930 . S
C478 C479 1.355 . S
C478 C480 1.415 . S
C479 C478 1.355 . S
C479 C481 1.419 . S
C480 C478 1.415 . S
C480 C485 1.425 . S
C480 C487 1.409 . S
C481 H473 0.930 . S
C481 C479 1.419 . S
C481 C482 1.362 . S
C482 H474 0.930 . S
C482 C481 1.362 . S
C482 C485 1.409 . S
C483 H475 0.930 . S
C483 C484 1.355 . S
C483 C485 1.415 . S
C484 C483 1.355 . S
C484 C486 1.419 . S
C485 C480 1.425 . S
C485 C482 1.409 . S
C485 C483 1.415 . S
C486 H476 0.930 . S
C486 C484 1.419 . S
C486 C487 1.362 . S
C487 H477 0.930 . S
C487 C480 1.409 . S
C487 C486 1.362 . S
H488 C494 0.930 . S
H489 C497 0.930 . S
H490 C498 0.930 . S
H491 C499 0.930 . S
H492 C502 0.930 . S
H493 C503 0.930 . S
C494 H488 0.930 . S
C494 C495 1.355 . S
C494 C496 1.415 . S
C495 C494 1.355 . S
C495 C497 1.419 . S
C496 C494 1.415 . S
C496 C501 1.425 . S
C496 C503 1.409 . S
C497 H489 0.930 . S
C497 C495 1.419 . S
C497 C498 1.362 . S
C498 H490 0.930 . S
C498 C497 1.362 . S
C498 C501 1.409 . S
C499 H491 0.930 . S
C499 C500 1.355 . S
C499 C501 1.415 . S
C500 C499 1.355 . S
C500 C502 1.419 . S
C501 C496 1.425 . S
C501 C498 1.409 . S
C501 C499 1.415 . S
C502 H492 0.930 . S
C502 C500 1.419 . S
C502 C503 1.362 . S
C503 H493 0.930 . S
C503 C496 1.409 . S
C503 C502 1.362 . S
H504 C510 0.930 . S
H505 C513 0.930 . S
H506 C514 0.930 . S
H507 C515 0.930 . S
H508 C518 0.930 . S
H509 C519 0.930 . S
C510 H504 0.930 . S
C510 C511 1.355 . S
C510 C512 1.415 . S
C511 C510 1.355 . S
C511 C513 1.419 . S
C512 C510 1.415 . S
C512 C517 1.425 . S
C512 C519 1.409 . S
C513 H505 0.930 . S
C513 C511 1.419 . S
C513 C514 1.362 . S
C514 H506 0.930 . S
C514 C513 1.362 . S
C514 C517 1.409 . S
C515 H507 0.930 . S
C515 C516 1.355 . S
C515 C517 1.415 . S
C516 C515 1.355 . S
C516 C518 1.419 . S
C517 C512 1.425 . S
C517 C514 1.409 . S
C517 C515 1.415 . S
C518 H508 0.930 . S
C518 C516 1.419 . S
C518 C519 1.362 . S
C519 H509 0.930 . S
C519 C512 1.409 . S
C519 C518 1.362 . S
H520 C526 0.930 . S
H521 C529 0.930 . S
H522 C530 0.930 . S
H523 C531 0.930 . S
H524 C534 0.930 . S
H525 C535 0.930 . S
C526 H520 0.930 . S
C526 C527 1.355 . S
C526 C528 1.415 . S
C527 C526 1.355 . S
C527 C529 1.419 . S
C528 C526 1.415 . S
C528 C533 1.425 . S
C528 C535 1.409 . S
C529 H521 0.930 . S
C529 C527 1.419 . S
C529 C530 1.362 . S
C530 H522 0.930 . S
C530 C529 1.362 . S
C530 C533 1.409 . S
C531 H523 0.930 . S
C531 C532 1.355 . S
C531 C533 1.415 . S
C532 C531 1.355 . S
C532 C534 1.419 . S
C533 C528 1.425 . S
C533 C530 1.409 . S
C533 C531 1.415 . S
C534 H524 0.930 . S
C534 C532 1.419 . S
C534 C535 1.362 . S
C535 H525 0.930 . S
C535 C528 1.409 . S
C535 C534 1.362 . S
H536 C542 0.930 . S
H537 C545 0.930 . S
H538 C546 0.930 . S
H539 C547 0.930 . S
H540 C550 0.930 . S
H541 C551 0.930 . S
C542 H536 0.930 . S
C542 C543 1.355 . S
C542 C544 1.415 . S
C543 C542 1.355 . S
C543 C545 1.419 . S
C544 C542 1.415 . S
C544 C549 1.425 . S
C544 C551 1.409 . S
C545 H537 0.930 . S
C545 C543 1.419 . S
C545 C546 1.362 . S
C546 H538 0.930 . S
C546 C545 1.362 . S
C546 C549 1.409 . S
C547 H539 0.930 . S
C547 C548 1.355 . S
C547 C549 1.415 . S
C548 C547 1.355 . S
C548 C550 1.419 . S
C549 C544 1.425 . S
C549 C546 1.409 . S
C549 C547 1.415 . S
C550 H540 0.930 . S
C550 C548 1.419 . S
C550 C551 1.362 . S
C551 H541 0.930 . S
C551 C544 1.409 . S
C551 C550 1.362 . S
H552 C558 0.930 . S
H553 C561 0.930 . S
H554 C562 0.930 . S
H555 C563 0.930 . S
H556 C566 0.930 . S
H557 C567 0.930 . S
C558 H552 0.930 . S
C558 C559 1.355 . S
C558 C560 1.415 . S
C559 C558 1.355 . S
C559 C561 1.419 . S
C560 C558 1.415 . S
C560 C565 1.425 . S
C560 C567 1.409 . S
C561 H553 0.930 . S
C561 C559 1.419 . S
C561 C562 1.362 . S
C562 H554 0.930 . S
C562 C561 1.362 . S
C562 C565 1.409 . S
C563 H555 0.930 . S
C563 C564 1.355 . S
C563 C565 1.415 . S
C564 C563 1.355 . S
C564 C566 1.419 . S
C565 C560 1.425 . S
C565 C562 1.409 . S
C565 C563 1.415 . S
C566 H556 0.930 . S
C566 C564 1.419 . S
C566 C567 1.362 . S
C567 H557 0.930 . S
C567 C560 1.409 . S
C567 C566 1.362 . S
H568 C574 0.930 . S
H569 C577 0.930 . S
H570 C578 0.930 . S
H571 C579 0.930 . S
H572 C582 0.930 . S
H573 C583 0.930 . S
C574 H568 0.930 . S
C574 C575 1.355 . S
C574 C576 1.415 . S
C575 C574 1.355 . S
C575 C577 1.419 . S
C576 C574 1.415 . S
C576 C581 1.425 . S
C576 C583 1.409 . S
C577 H569 0.930 . S
C577 C575 1.419 . S
C577 C578 1.362 . S
C578 H570 0.930 . S
C578 C577 1.362 . S
C578 C581 1.409 . S
C579 H571 0.930 . S
C579 C580 1.355 . S
C579 C581 1.415 . S
C580 C579 1.355 . S
C580 C582 1.419 . S
C581 C576 1.425 . S
C581 C578 1.409 . S
C581 C579 1.415 . S
C582 H572 0.930 . S
C582 C580 1.419 . S
C582 C583 1.362 . S
C583 H573 0.930 . S
C583 C576 1.409 . S
C583 C582 1.362 . S
C207 C5 1.147 1_455 S
C212 N59 1.284 . S
C223 C45 1.726 1_545 S
C228 C123 1.675 . S
C239 N14 1.558 . S
C244 C93 1.776 1_455 S
C255 C132 1.344 . S
C260 C13 1.265 . S
C271 N9 1.355 . S
C276 C55 1.217 . S
C287 C23 1.690 . S
C292 C145 1.732 1_545 S
C303 N64 1.639 . S
C308 C43 1.761 1_455 S
C319 C113 1.297 . S
C324 C32 1.383 . S
C335 C190 0.894 . S
C340 N25 0.959 . S
C351 C192 1.847 . S
C356 C11 1.914 . S
C367 C161 1.939 . S
C372 C42 1.863 . S
C383 C40 0.996 . S
C388 N175 0.940 . S
C399 C173 1.686 . S
C404 C95 1.730 . S
C415 C63 1.158 . S
C420 C182 1.285 . S
C431 C73 1.708 . S
C436 C195 1.728 . S
C447 C163 1.278 . S
C452 C82 1.352 . S
C463 C140 0.910 . S
C468 N75 0.987 . S
C479 C61 1.926 . S
C484 C142 1.882 . S
C495 C92 1.929 . S
C500 C111 1.972 . S
C511 N125 0.926 . S
C516 C90 0.978 . S
C527 N159 1.348 . S
C532 C105 1.222 . S
C543 N114 1.539 . S
C548 C193 1.784 . S
C559 C155 1.196 . S
C564 N109 1.303 . S
C575 C143 1.776 . S
C580 N164 1.549 . S
