# Generated by pormake.
# Topology whw, (6)-cn, num edge types: 1
# Building blocks:
#     Node 0, Type 0, BuildingBlock: BETDIP_clean_sbu_0, # of connection points: 6
#     Node 1, Type 0, BuildingBlock: BETDIP_clean_sbu_0, # of connection points: 6
#     Node 2, Type 0, BuildingBlock: BETDIP_clean_sbu_0, # of connection points: 6
#     Node 3, Type 0, BuildingBlock: BETDIP_clean_sbu_0, # of connection points: 6
#     Node 4, Type 0, BuildingBlock: BETDIP_clean_sbu_0, # of connection points: 6
#     Node 5, Type 0, BuildingBlock: BETDIP_clean_sbu_0, # of connection points: 6
#     Node 6, Type 0, BuildingBlock: BETDIP_clean_sbu_0, # of connection points: 6
#     Node 7, Type 0, BuildingBlock: BETDIP_clean_sbu_0, # of connection points: 6
#     Node 8, Type 0, BuildingBlock: BETDIP_clean_sbu_0, # of connection points: 6
#     Node 9, Type 0, BuildingBlock: BETDIP_clean_sbu_0, # of connection points: 6
#     Node 10, Type 0, BuildingBlock: BETDIP_clean_sbu_0, # of connection points: 6
#     Node 11, Type 0, BuildingBlock: BETDIP_clean_sbu_0, # of connection points: 6
#     Node 12, Type 0, BuildingBlock: BETDIP_clean_sbu_0, # of connection points: 6
#     Node 13, Type 0, BuildingBlock: BETDIP_clean_sbu_0, # of connection points: 6
#     Node 14, Type 0, BuildingBlock: BETDIP_clean_sbu_0, # of connection points: 6
#     Node 15, Type 0, BuildingBlock: BETDIP_clean_sbu_0, # of connection points: 6
#     Edge 16, Type (0, 0), BuildingBlock: KIFKEQ_clean_linker_1, # of connection points: 2
#     Edge 17, Type (0, 0), BuildingBlock: KIFKEQ_clean_linker_1, # of connection points: 2
#     Edge 18, Type (0, 0), BuildingBlock: KIFKEQ_clean_linker_1, # of connection points: 2
#     Edge 19, Type (0, 0), BuildingBlock: KIFKEQ_clean_linker_1, # of connection points: 2
#     Edge 20, Type (0, 0), BuildingBlock: KIFKEQ_clean_linker_1, # of connection points: 2
#     Edge 21, Type (0, 0), BuildingBlock: KIFKEQ_clean_linker_1, # of connection points: 2
#     Edge 22, Type (0, 0), BuildingBlock: KIFKEQ_clean_linker_1, # of connection points: 2
#     Edge 23, Type (0, 0), BuildingBlock: KIFKEQ_clean_linker_1, # of connection points: 2
#     Edge 24, Type (0, 0), BuildingBlock: KIFKEQ_clean_linker_1, # of connection points: 2
#     Edge 25, Type (0, 0), BuildingBlock: KIFKEQ_clean_linker_1, # of connection points: 2
#     Edge 26, Type (0, 0), BuildingBlock: KIFKEQ_clean_linker_1, # of connection points: 2
#     Edge 27, Type (0, 0), BuildingBlock: KIFKEQ_clean_linker_1, # of connection points: 2
#     Edge 28, Type (0, 0), BuildingBlock: KIFKEQ_clean_linker_1, # of connection points: 2
#     Edge 29, Type (0, 0), BuildingBlock: KIFKEQ_clean_linker_1, # of connection points: 2
#     Edge 30, Type (0, 0), BuildingBlock: KIFKEQ_clean_linker_1, # of connection points: 2
#     Edge 31, Type (0, 0), BuildingBlock: KIFKEQ_clean_linker_1, # of connection points: 2
#     Edge 32, Type (0, 0), BuildingBlock: KIFKEQ_clean_linker_1, # of connection points: 2
#     Edge 33, Type (0, 0), BuildingBlock: KIFKEQ_clean_linker_1, # of connection points: 2
#     Edge 34, Type (0, 0), BuildingBlock: KIFKEQ_clean_linker_1, # of connection points: 2
#     Edge 35, Type (0, 0), BuildingBlock: KIFKEQ_clean_linker_1, # of connection points: 2
#     Edge 36, Type (0, 0), BuildingBlock: KIFKEQ_clean_linker_1, # of connection points: 2
#     Edge 37, Type (0, 0), BuildingBlock: KIFKEQ_clean_linker_1, # of connection points: 2
#     Edge 38, Type (0, 0), BuildingBlock: KIFKEQ_clean_linker_1, # of connection points: 2
#     Edge 39, Type (0, 0), BuildingBlock: KIFKEQ_clean_linker_1, # of connection points: 2
#     Edge 40, Type (0, 0), BuildingBlock: KIFKEQ_clean_linker_1, # of connection points: 2
#     Edge 41, Type (0, 0), BuildingBlock: KIFKEQ_clean_linker_1, # of connection points: 2
#     Edge 42, Type (0, 0), BuildingBlock: KIFKEQ_clean_linker_1, # of connection points: 2
#     Edge 43, Type (0, 0), BuildingBlock: KIFKEQ_clean_linker_1, # of connection points: 2
#     Edge 44, Type (0, 0), BuildingBlock: KIFKEQ_clean_linker_1, # of connection points: 2
#     Edge 45, Type (0, 0), BuildingBlock: KIFKEQ_clean_linker_1, # of connection points: 2
#     Edge 46, Type (0, 0), BuildingBlock: KIFKEQ_clean_linker_1, # of connection points: 2
#     Edge 47, Type (0, 0), BuildingBlock: KIFKEQ_clean_linker_1, # of connection points: 2
#     Edge 48, Type (0, 0), BuildingBlock: KIFKEQ_clean_linker_1, # of connection points: 2
#     Edge 49, Type (0, 0), BuildingBlock: KIFKEQ_clean_linker_1, # of connection points: 2
#     Edge 50, Type (0, 0), BuildingBlock: KIFKEQ_clean_linker_1, # of connection points: 2
#     Edge 51, Type (0, 0), BuildingBlock: KIFKEQ_clean_linker_1, # of connection points: 2
#     Edge 52, Type (0, 0), BuildingBlock: KIFKEQ_clean_linker_1, # of connection points: 2
#     Edge 53, Type (0, 0), BuildingBlock: KIFKEQ_clean_linker_1, # of connection points: 2
#     Edge 54, Type (0, 0), BuildingBlock: KIFKEQ_clean_linker_1, # of connection points: 2
#     Edge 55, Type (0, 0), BuildingBlock: KIFKEQ_clean_linker_1, # of connection points: 2
#     Edge 56, Type (0, 0), BuildingBlock: KIFKEQ_clean_linker_1, # of connection points: 2
#     Edge 57, Type (0, 0), BuildingBlock: KIFKEQ_clean_linker_1, # of connection points: 2
#     Edge 58, Type (0, 0), BuildingBlock: KIFKEQ_clean_linker_1, # of connection points: 2
#     Edge 59, Type (0, 0), BuildingBlock: KIFKEQ_clean_linker_1, # of connection points: 2
#     Edge 60, Type (0, 0), BuildingBlock: KIFKEQ_clean_linker_1, # of connection points: 2
#     Edge 61, Type (0, 0), BuildingBlock: KIFKEQ_clean_linker_1, # of connection points: 2
#     Edge 62, Type (0, 0), BuildingBlock: KIFKEQ_clean_linker_1, # of connection points: 2
#     Edge 63, Type (0, 0), BuildingBlock: KIFKEQ_clean_linker_1, # of connection points: 2
# Relax obj value: 0.453
# Max RMSD: 0.258
# Mean RMSD: 0.221
data_MOF--net-whw--node1-BETDIP_clean_sbu_0--edge1-KIFKEQ_clean_linker_1
_symmetry_space_group_name_H-M    P1
_symmetry_Int_Tables_number       1
_symmetry_cell_setting            triclinic
loop_
_symmetry_equiv_pos_as_xyz
'x, y, z'
_cell_length_a     47.001211
_cell_length_b     46.464045
_cell_length_c     34.07296
_cell_angle_alpha  90.716101
_cell_angle_beta   76.957869
_cell_angle_gamma 103.10422
loop_
_atom_site_label
_atom_site_type_symbol
_atom_site_fract_x
_atom_site_fract_y
_atom_site_fract_z
_atom_type_partial_charge
Tb0 Tb 0.03781 0.11372 0.20528 0.0
Tb1 Tb 0.01299 0.11632 0.13197 0.0
C2 C 0.05319 0.12944 0.2715 0.0
C3 C 0.06177 0.14074 0.31071 0.0
C4 C 0.05687 0.16818 0.3256 0.0
C5 C 0.06538 0.17953 0.36121 0.0
C6 C 0.07943 0.16414 0.38402 0.0
C7 C 0.08427 0.13655 0.36893 0.0
C8 C 0.07567 0.12517 0.33325 0.0
C9 C 0.0257 0.06242 0.16865 0.0
C10 C 0.96621 0.10084 0.21334 0.0
C11 C -0.00174 0.13049 0.0686 0.0
C12 C -0.0106 0.13916 1.03077 0.0
C13 C -0.009 0.1216 0.99653 0.0
C14 C 0.98317 0.13003 0.96116 0.0
C15 C 0.9737 0.15662 0.9582 0.0
C16 C 0.97201 0.17403 0.9927 0.0
C17 C 0.97953 0.16544 1.02814 0.0
C18 C 0.02419 0.1715 0.17863 0.0
C19 C 0.08065 0.11641 0.1211 0.0
O20 O 0.03805 0.14293 0.25324 0.0
O21 O 0.0589 0.10574 0.253 0.0
O22 O 0.01081 0.0819 0.17316 0.0
O23 O 0.04682 0.06972 0.18846 0.0
O24 O -0.01067 0.10523 0.23088 0.0
O25 O 0.96948 0.10139 0.17363 0.0
O26 O 0.0132 0.10989 0.0699 0.0
O27 O -0.00854 0.14273 0.10338 0.0
O28 O 0.03534 0.14952 0.16456 0.0
O29 O 0.03514 0.1497 0.16461 0.0
O30 O 0.05653 0.10661 0.10612 0.0
O31 O 0.07885 0.12517 0.15854 0.0
H32 H 0.04637 0.18117 0.30957 0.0
H33 H 0.06042 0.20045 0.37094 0.0
H34 H 0.09529 0.12364 0.38422 0.0
H35 H 0.08016 0.10411 0.32316 0.0
H36 H -0.0016 0.10119 0.99697 0.0
H37 H 0.98517 0.11584 0.93573 0.0
H38 H 0.96448 0.19439 0.99265 0.0
H39 H 0.97783 0.17969 0.05355 0.0
Tb40 Tb 0.1487 0.77472 0.48101 0.0
Tb41 Tb 0.12903 0.71514 0.46362 0.0
C42 C 0.16597 0.82471 0.50752 0.0
C43 C 0.16537 0.83709 0.54715 0.0
C44 C 0.14308 0.82411 0.58071 0.0
C45 C 0.1445 0.83421 0.61899 0.0
C46 C 0.16842 0.85722 0.62432 0.0
C47 C 0.19034 0.87061 0.59045 0.0
C48 C 0.18884 0.86051 0.55206 0.0
C49 C 0.18744 0.75758 0.42082 0.0
C50 C 0.13506 0.72359 0.55194 0.0
C51 C 0.1246 0.66659 0.43148 0.0
C52 C 0.13388 0.66129 0.38884 0.0
C53 C 0.16392 0.67185 0.36781 0.0
C54 C 0.17131 0.67319 0.32592 0.0
C55 C 0.14864 0.66427 0.30508 0.0
C56 C 0.11893 0.65263 0.32595 0.0
C57 C 0.11162 0.65092 0.36763 0.0
C58 C 0.08639 0.73449 0.51419 0.0
C59 C 0.12228 0.76513 0.40375 0.0
O60 O 0.14007 0.81602 0.49762 0.0
O61 O 0.18275 0.80554 0.49883 0.0
O62 O 0.1738 0.74243 0.45341 0.0
O63 O 0.17995 0.78255 0.42285 0.0
O64 O 0.13831 0.75217 0.54285 0.0
O65 O 0.13663 0.70512 0.5223 0.0
O66 O 0.1463 0.67771 0.4494 0.0
O67 O 0.10252 0.68013 0.44002 0.0
O68 O 0.10503 0.74862 0.48433 0.0
O69 O 0.08975 0.70763 0.51367 0.0
O70 O 0.12504 0.73748 0.40796 0.0
O71 O 0.12706 0.78388 0.43266 0.0
H72 H 0.12488 0.80587 0.57743 0.0
H73 H 0.12688 0.82396 0.64447 0.0
H74 H 0.20898 0.88833 0.59374 0.0
H75 H 0.20637 0.8705 0.52631 0.0
H76 H 0.18153 0.68004 0.38356 0.0
H77 H 0.19441 0.68154 0.3099 0.0
H78 H 0.10136 0.64479 0.3099 0.0
H79 H 0.08837 0.64288 0.38329 0.0
Tb80 Tb 0.50189 0.84929 0.66812 0.0
Tb81 Tb 0.5612 0.88 0.67198 0.0
C82 C 0.45174 0.83522 0.65191 0.0
C83 C 0.44329 0.84133 0.61476 0.0
C84 C 0.43017 0.86538 0.61233 0.0
C85 C 0.42628 0.87429 0.57552 0.0
C86 C 0.43523 0.85903 0.54094 0.0
C87 C 0.44801 0.83481 0.54342 0.0
C88 C 0.45194 0.82595 0.58007 0.0
C89 C 0.53258 0.81661 0.69642 0.0
C90 C 0.55483 0.84895 0.5906 0.0
C91 C 0.61011 0.90567 0.68702 0.0
C92 C 0.62267 0.90489 0.72197 0.0
C93 C 0.6119 0.88039 0.74903 0.0
C94 C 0.62217 0.88027 0.78399 0.0
C95 C 0.64282 0.90499 0.79285 0.0
C96 C 0.65379 0.92949 0.76554 0.0
C97 C 0.64371 0.9294 0.73008 0.0
C98 C 0.53732 0.91094 0.62936 0.0
C99 C 0.50906 0.86075 0.75508 0.0
O100 O 0.46023 0.85882 0.67155 0.0
O101 O 0.46949 0.81689 0.64947 0.0
O102 O 0.54172 0.83563 0.66846 0.0
O103 O 0.50378 0.81289 0.70839 0.0
O104 O 0.52559 0.84699 0.60433 0.0
O105 O 0.57362 0.85836 0.61449 0.0
O106 O 0.6064 0.88101 0.66784 0.0
O107 O 0.58662 0.91723 0.69322 0.0
O108 O 0.52313 0.89647 0.66245 0.0
O109 O 0.56439 0.90784 0.62128 0.0
O110 O 0.53847 0.86805 0.73807 0.0
O111 O 0.48999 0.85814 0.73165 0.0
H112 H 0.42358 0.87773 0.6387 0.0
H113 H 0.41618 0.8929 0.57404 0.0
H114 H 0.4543 0.82222 0.51719 0.0
H115 H 0.46221 0.80738 0.58093 0.0
H116 H 0.59518 0.86156 0.7435 0.0
H117 H 0.61373 0.8609 0.80425 0.0
H118 H 0.66952 0.94886 0.77204 0.0
H119 H 0.65177 0.94861 0.70951 0.0
Tb120 Tb 0.39241 0.19635 0.88232 0.0
Tb121 Tb 0.4116 0.2584 0.84875 0.0
C122 C 0.37839 0.14509 0.91401 0.0
C123 C 0.37344 0.13207 0.95446 0.0
C124 C 0.39595 0.13827 0.97621 0.0
C125 C 0.38908 0.13019 1.0169 0.0
C126 C 0.35975 0.11567 1.03617 0.0
C127 C 0.33775 0.1075 1.01396 0.0
C128 C 0.34459 0.11573 0.97315 0.0
C129 C 0.35128 0.21611 0.8563 0.0
C130 C 0.4052 0.24976 0.94354 0.0
C131 C 0.41092 0.30538 0.81446 0.0
C132 C 0.39665 0.3103 0.78211 0.0
C133 C 0.37348 0.28805 0.77373 0.0
C134 C 0.36004 0.29198 0.74242 0.0
C135 C 0.37089 0.31761 0.71713 0.0
C136 C 0.39455 0.33982 0.72549 0.0
C137 C 0.40706 0.33631 0.75807 0.0
C138 C 0.45597 0.24003 0.86652 0.0
C139 C 0.41476 0.20506 0.78815 0.0
O140 O 0.4059 0.15822 0.89587 0.0
O141 O 0.35899 0.16041 0.91024 0.0
O142 O 0.36916 0.23052 0.87604 0.0
O143 O 0.35635 0.19014 0.8506 0.0
O144 O 0.39746 0.22068 0.93853 0.0
O145 O 0.40954 0.26893 0.9128 0.0
O146 O 0.39229 0.29465 0.84849 0.0
O147 O 0.43277 0.29166 0.80396 0.0
O148 O 0.43411 0.22437 0.8546 0.0
O149 O 0.45502 0.26757 0.86368 0.0
O150 O 0.41053 0.23237 0.79337 0.0
O151 O 0.41282 0.18788 0.81988 0.0
H152 H 0.41851 0.15023 0.96238 0.0
H153 H 0.4065 0.13598 1.03364 0.0
H154 H 0.3151 0.09601 1.02851 0.0
H155 H 0.32701 0.11058 0.95661 0.0
H156 H 0.36639 0.26726 0.79075 0.0
H157 H 0.34187 0.27443 0.73734 0.0
H158 H 0.40444 0.35941 0.70597 0.0
H159 H 0.4255 0.35338 0.76361 0.0
Tb160 Tb 0.02795 0.86375 0.96734 0.0
Tb161 Tb -0.00162 0.87631 0.89399 0.0
C162 C 0.04386 0.85573 1.03231 0.0
C163 C 0.05316 0.84835 0.07038 0.0
C164 C 0.06239 0.86998 0.09726 0.0
C165 C 0.07059 0.86224 0.13278 0.0
C166 C 0.07023 0.83258 0.1427 0.0
C167 C 0.06117 0.81115 0.11543 0.0
C168 C 0.05279 0.81882 0.08032 0.0
C169 C 0.01267 0.82158 0.91909 0.0
C170 C 0.95782 0.86476 0.9806 0.0
C171 C 0.97722 0.86563 0.83096 0.0
C172 C 0.97467 0.85645 0.78844 0.0
C173 C 0.98456 0.83184 0.77048 0.0
C174 C 0.97797 0.82109 0.73346 0.0
C175 C 0.96067 0.83411 0.71259 0.0
C176 C 0.95131 0.85915 0.73081 0.0
C177 C 0.95823 0.87 0.76748 0.0
C178 C 0.01039 0.92029 0.94191 0.0
C179 C 0.07 0.88348 0.88255 0.0
O180 O 0.04918 0.88216 1.01484 0.0
O181 O 0.02931 0.83483 1.0133 0.0
O182 O -0.00063 0.84117 0.93162 0.0
O183 O 0.03547 0.8235 0.9352 0.0
O184 O 0.98214 0.8682 0.99588 0.0
O185 O 0.95846 0.86348 0.94157 0.0
O186 O 0.97756 0.84557 0.85742 0.0
O187 O -0.0101 0.89246 0.83984 0.0
O188 O 0.02486 0.90049 0.93239 0.0
O189 O -0.01008 0.91772 0.92077 0.0
O190 O 0.04598 0.87962 0.86669 0.0
O191 O 0.06881 0.88083 0.92174 0.0
H192 H 0.06315 0.89297 0.09098 0.0
H193 H 0.07761 0.87972 0.15223 0.0
H194 H 0.05998 0.78804 0.12148 0.0
H195 H 0.04595 0.80133 0.06076 0.0
H196 H -0.00285 0.8205 0.78538 0.0
H197 H -0.01343 0.8023 0.72164 0.0
H198 H 0.93769 0.87034 0.71773 0.0
H199 H 0.94964 0.88864 0.78029 0.0
Tb200 Tb 0.41823 0.7758 0.13773 0.0
Tb201 Tb 0.39262 0.71656 0.12012 0.0
C202 C 0.42135 0.82869 0.15407 0.0
C203 C 0.40902 0.84027 0.19245 0.0
C204 C 0.37961 0.82715 0.21382 0.0
C205 C 0.37142 0.82966 0.2553 0.0
C206 C 0.39251 0.8455 0.27519 0.0
C207 C 0.42079 0.8609 0.25354 0.0
C208 C 0.42898 0.85846 0.21215 0.0
C209 C 0.45897 0.74614 0.10874 0.0
C210 C 0.41862 0.72645 0.19925 0.0
C211 C 0.37212 0.66778 0.0934 0.0
C212 C 0.37341 0.65452 0.054 0.0
C213 C 0.40081 0.65697 1.02588 0.0
C214 C 0.40125 0.64529 0.98796 0.0
C215 C 0.37434 0.63142 0.97747 0.0
C216 C 0.34698 0.62893 1.00554 0.0
C217 C 0.34656 0.64021 1.04376 0.0
C218 C 0.3571 0.7371 0.18069 0.0
C219 C 0.4163 0.76857 1.04639 0.0
O220 O 0.40165 0.81374 0.13537 0.0
O221 O 0.44269 0.81517 0.15541 0.0
O222 O 0.43489 0.74417 0.09811 0.0
O223 O 0.46238 0.76701 0.13404 0.0
O224 O 0.41539 0.75399 0.19616 0.0
O225 O 0.41467 0.70827 0.16924 0.0
O226 O 0.39701 0.67358 0.10649 0.0
O227 O 0.35772 0.68913 0.09945 0.0
O228 O 0.37197 0.75143 0.14807 0.0
O229 O 0.36151 0.71085 0.1789 0.0
O230 O 0.40212 0.74032 0.05792 0.0
O231 O 0.4251 0.78636 0.07382 0.0
H232 H 0.36384 0.81279 0.19929 0.0
H233 H 0.34962 0.81757 0.27206 0.0
H234 H 0.43727 0.87295 0.26909 0.0
H235 H 0.45182 0.86828 0.19626 0.0
H236 H 0.4218 0.66824 1.03291 0.0
H237 H 0.42257 0.64777 0.96641 0.0
H238 H 0.32603 0.6183 0.99788 0.0
H239 H 0.32522 0.63821 0.06513 0.0
Tb240 Tb 0.47975 0.10437 0.41905 0.0
Tb241 Tb 0.53772 0.13815 0.42513 0.0
C242 C 0.43159 0.07795 0.40257 0.0
C243 C 0.41826 0.07999 0.3686 0.0
C244 C 0.4265 0.1063 0.34508 0.0
C245 C 0.4148 0.1081 0.31162 0.0
C246 C 0.39531 0.08333 0.30059 0.0
C247 C 0.387 0.05695 0.3243 0.0
C248 C 0.39844 0.05533 0.35833 0.0
C249 C 0.50497 0.0753 0.46202 0.0
C250 C 0.53294 0.12653 0.3373 0.0
C251 C 0.58607 0.15515 0.44512 0.0
C252 C 0.59292 0.14565 0.48188 0.0
C253 C 0.59206 0.11561 0.48904 0.0
C254 C 0.59332 0.10568 0.5267 0.0
C255 C 0.59515 0.12556 0.55758 0.0
C256 C 0.59613 0.1555 0.55054 0.0
C257 C 0.59523 0.16554 0.51279 0.0
C258 C 0.50516 0.1682 0.39604 0.0
C259 C 0.48385 0.13404 0.502 0.0
O260 O 0.43411 0.10139 0.42437 0.0
O261 O 0.45604 0.06784 0.39418 0.0
O262 O 0.51904 0.09065 0.42967 0.0
O263 O 0.47701 0.07503 0.46828 0.0
O264 O 0.5034 0.11767 0.35333 0.0
O265 O 0.55148 0.12998 0.3616 0.0
O266 O 0.5819 0.13455 0.41906 0.0
O267 O 0.56557 0.17073 0.45102 0.0
O268 O 0.49667 0.14911 0.42383 0.0
O269 O 0.53416 0.17417 0.38561 0.0
O270 O 0.51308 0.13609 0.489 0.0
O271 O 0.46581 0.12565 0.47682 0.0
H272 H 0.44222 0.12535 0.35231 0.0
H273 H 0.4212 0.12885 0.29422 0.0
H274 H 0.37227 0.0375 0.31604 0.0
H275 H 0.39229 0.03478 0.37616 0.0
H276 H 0.58973 0.09957 0.46597 0.0
H277 H 0.59291 0.08259 0.53175 0.0
H278 H 0.59831 0.17128 0.574 0.0
H279 H 0.59548 0.18863 0.50806 0.0
Tb280 Tb 0.13719 0.23411 0.7441 0.0
Tb281 Tb 0.14973 0.29615 0.71664 0.0
C282 C 0.14714 0.186 0.76187 0.0
C283 C 0.15449 0.17806 0.79938 0.0
C284 C 0.18436 0.17781 0.79948 0.0
C285 C 0.19321 0.17715 0.83582 0.0
C286 C 0.17229 0.17675 0.87242 0.0
C287 C 0.14217 0.17551 0.87233 0.0
C288 C 0.13331 0.17612 0.83618 0.0
C289 C 0.08792 0.25145 0.74385 0.0
C290 C 0.12586 0.28251 0.80917 0.0
C291 C 0.16145 0.34654 0.68392 0.0
C292 C 0.16277 0.35828 0.64404 0.0
C293 C 0.14219 0.34464 0.6217 0.0
C294 C 0.1474 0.35213 0.58091 0.0
C295 C 0.17353 0.3729 0.56186 0.0
C296 C 0.19344 0.38734 0.5848 0.0
C297 C 0.18798 0.38014 0.62573 0.0
C298 C 0.19194 0.28038 0.74557 0.0
C299 C 0.13916 0.24508 0.65062 0.0
O300 O 0.1676 0.20709 0.74005 0.0
O301 O 0.11999 0.18982 0.76463 0.0
O302 O 0.11307 0.25954 0.71959 0.0
O303 O 0.09052 0.23328 0.77087 0.0
O304 O 0.13471 0.25715 0.80222 0.0
O305 O 0.12531 0.29964 0.77862 0.0
O306 O 0.13486 0.33404 0.70623 0.0
O307 O 0.18154 0.3311 0.68387 0.0
O308 O 0.17718 0.2664 0.72214 0.0
O309 O 0.18282 0.30423 0.75442 0.0
O310 O 0.14643 0.27402 0.65767 0.0
O311 O 0.13428 0.22528 0.68078 0.0
H312 H 0.20114 0.17954 0.77145 0.0
H313 H 0.21645 0.17771 0.83537 0.0
H314 H 0.12542 0.1742 0.90033 0.0
H315 H 0.11014 0.17629 0.83724 0.0
H316 H 0.12281 0.32738 0.63527 0.0
H317 H 0.13131 0.34116 0.5641 0.0
H318 H 0.21385 0.40323 0.57086 0.0
H319 H 0.20432 0.39044 0.64262 0.0
Tb320 Tb 0.9174 0.27563 0.63897 0.0
Tb321 Tb 0.89419 0.2154 0.62029 0.0
C322 C 0.91888 0.32827 0.65699 0.0
C323 C 0.90517 0.33974 0.69462 0.0
C324 C 0.88187 0.32058 0.72163 0.0
C325 C 0.87369 0.32782 0.76153 0.0
C326 C 0.88922 0.35409 0.77488 0.0
C327 C 0.91045 0.37464 0.74696 0.0
C328 C 0.91851 0.36738 0.70678 0.0
C329 C 0.95976 0.24824 0.60738 0.0
C330 C 0.92016 0.22568 0.69897 0.0
C331 C 0.8752 0.16669 0.59211 0.0
C332 C 0.87678 0.15447 0.55213 0.0
C333 C 0.90115 0.16576 0.51999 0.0
C334 C 0.90097 0.15574 0.48129 0.0
C335 C 0.87627 0.13454 0.47406 0.0
C336 C 0.85223 0.12282 0.5066 0.0
C337 C 0.8525 0.13277 0.54537 0.0
C338 C 0.85727 0.23391 0.6819 0.0
C339 C 0.91496 0.26816 0.54739 0.0
O340 O 0.89989 0.31305 0.63749 0.0
O341 O 0.93994 0.31481 0.65995 0.0
O342 O 0.93502 0.2452 0.59841 0.0
O343 O 0.96299 0.26927 0.63244 0.0
O344 O 0.91563 0.25285 0.69661 0.0
O345 O 0.91718 0.20778 0.66845 0.0
O346 O 0.90034 0.17318 0.60458 0.0
O347 O 0.85991 0.1873 0.59929 0.0
O348 O 0.87177 0.24902 0.64961 0.0
O349 O 0.86298 0.20815 0.67891 0.0
O350 O 0.90393 0.23932 0.55845 0.0
O351 O 0.92198 0.28685 0.57501 0.0
H352 H 0.8719 0.29893 0.71271 0.0
H353 H 0.85741 0.31164 0.78272 0.0
H354 H 0.92295 0.39484 0.75693 0.0
H355 H 0.93677 0.38218 0.68619 0.0
H356 H 0.92003 0.18266 0.52466 0.0
H357 H 0.92014 0.16471 0.45698 0.0
H358 H 0.83287 0.10659 0.50192 0.0
H359 H 0.83342 0.12405 0.56994 0.0
Tb360 Tb 0.645 0.73577 0.2379 0.0
Tb361 Tb 0.65319 0.79794 0.21388 0.0
C362 C 0.65661 0.68807 0.25345 0.0
C363 C 0.65527 0.67639 0.2933 0.0
C364 C 0.67721 0.662 0.29919 0.0
C365 C 0.6801 0.65682 0.33818 0.0
C366 C 0.66116 0.66621 0.37136 0.0
C367 C 0.63921 0.68059 0.36515 0.0
C368 C 0.63618 0.68549 0.32647 0.0
C369 C 0.59373 0.75039 0.24273 0.0
C370 C 0.63066 0.78171 0.30586 0.0
C371 C 0.66241 0.84885 0.18389 0.0
C372 C 0.66283 0.8609 0.14464 0.0
C373 C 0.64221 0.84677 0.12266 0.0
C374 C 0.64704 0.85407 0.08195 0.0
C375 C 0.67278 0.87519 0.06269 0.0
C376 C 0.69264 0.89026 0.08522 0.0
C377 C 0.6876 0.88318 0.12611 0.0
C378 C 0.69789 0.78396 0.23857 0.0
C379 C 0.6449 0.7483 0.14598 0.0
O380 O 0.67711 0.71262 0.24365 0.0
O381 O 0.63087 0.68963 0.24582 0.0
O382 O 0.61795 0.75988 0.21702 0.0
O383 O 0.59838 0.73214 0.26797 0.0
O384 O 0.64038 0.75694 0.29747 0.0
O385 O 0.62946 0.79952 0.27651 0.0
O386 O 0.63627 0.83504 0.20616 0.0
O387 O 0.68346 0.83439 0.18251 0.0
O388 O 0.68315 0.76995 0.21512 0.0
O389 O 0.68683 0.80628 0.25057 0.0
O390 O 0.64892 0.77696 0.15467 0.0
O391 O 0.64367 0.72831 0.17422 0.0
H392 H 0.6927 0.65577 0.27366 0.0
H393 H 0.69701 0.64549 0.34242 0.0
H394 H 0.62465 0.68849 0.39022 0.0
H395 H 0.61977 0.69756 0.32244 0.0
H396 H 0.62321 0.82918 0.13638 0.0
H397 H 0.63098 0.84269 0.06535 0.0
H398 H 0.71264 0.90656 0.07095 0.0
H399 H 0.70398 0.89383 0.14273 0.0
Tb400 Tb 0.64688 0.27737 0.98027 0.0
Tb401 Tb 0.62874 0.21835 0.9596 0.0
C402 C 0.66342 0.3267 1.00921 0.0
C403 C 0.66309 0.3387 0.04915 0.0
C404 C 0.63992 0.32697 0.08248 0.0
C405 C 0.64131 0.33724 0.12079 0.0
C406 C 0.66608 0.35912 0.12642 0.0
C407 C 0.68908 0.37098 0.09277 0.0
C408 C 0.68756 0.36081 0.05442 0.0
C409 C 0.68764 0.26167 0.92086 0.0
C410 C 0.63185 0.22504 0.0499 0.0
C411 C 0.62695 0.16961 0.92768 0.0
C412 C 0.64023 0.16257 0.88732 0.0
C413 C 0.65908 0.18529 0.86069 0.0
C414 C 0.66958 0.17956 0.82067 0.0
C415 C 0.66028 0.15122 0.80674 0.0
C416 C 0.64298 0.12808 0.83429 0.0
C417 C 0.63301 0.13378 0.87456 0.0
C418 C 0.58476 0.2356 1.01034 0.0
C419 C 0.62185 0.26949 0.90169 0.0
O420 O 0.63756 0.31808 0.9992 0.0
O421 O 0.68047 0.30788 0.99953 0.0
O422 O 0.67306 0.24589 0.95257 0.0
O423 O 0.6796 0.2864 0.92306 0.0
O424 O 0.63571 0.25383 1.04155 0.0
O425 O 0.63353 0.20704 1.01966 0.0
O426 O 0.64661 0.18114 0.94853 0.0
O427 O 0.60587 0.18419 0.92998 0.0
O428 O 0.60358 0.25087 0.98156 0.0
O429 O 0.58839 0.20884 1.00787 0.0
O430 O 0.62572 0.24209 0.90439 0.0
O431 O 0.62539 0.28734 0.93195 0.0
H432 H 0.62097 0.30967 0.079 0.0
H433 H 0.62292 0.32808 0.14599 0.0
H434 H 0.70852 0.38766 0.09617 0.0
H435 H 0.70581 0.36981 1.02893 0.0
H436 H 0.66435 0.20773 0.87042 0.0
H437 H 0.68284 0.19773 0.80002 0.0
H438 H 0.63491 0.10617 0.82422 0.0
H439 H 0.61837 0.11618 0.8951 0.0
Tb440 Tb 0.89508 0.70012 0.38199 0.0
Tb441 Tb 0.90801 0.76301 0.35076 0.0
C442 C 0.88434 0.64876 0.4124 0.0
C443 C 0.87995 0.63573 0.45262 0.0
C444 C 0.89931 0.64729 0.47761 0.0
C445 C 0.89171 0.63844 0.51808 0.0
C446 C 0.86463 0.61799 0.53408 0.0
C447 C 0.84604 0.60515 0.50869 0.0
C448 C 0.85367 0.61407 0.46805 0.0
C449 C 0.85138 0.71659 0.358 0.0
C450 C 0.90386 0.75314 0.44466 0.0
C451 C 0.89889 0.80634 0.3175 0.0
C452 C 0.88445 0.80651 0.28345 0.0
C453 C 0.85667 0.81432 0.28911 0.0
C454 C 0.84178 0.81232 0.25764 0.0
C455 C 0.85459 0.80264 0.21995 0.0
C456 C 0.88212 0.79428 0.21476 0.0
C457 C 0.89683 0.79614 0.24608 0.0
C458 C 0.95536 0.74987 0.36649 0.0
C459 C 0.91655 0.71091 0.28842 0.0
O460 O 0.91137 0.66347 0.39463 0.0
O461 O 0.86367 0.66256 0.40902 0.0
O462 O 0.86858 0.73146 0.37811 0.0
O463 O 0.85863 0.69168 0.35038 0.0
O464 O 0.89941 0.7242 0.4383 0.0
O465 O 0.90524 0.77248 0.41526 0.0
O466 O 0.8811 0.79325 0.35076 0.0
O467 O 0.92498 0.79916 0.30953 0.0
O468 O 0.93444 0.7322 0.3547 0.0
O469 O 0.95166 0.77665 0.36434 0.0
O470 O 0.91006 0.73735 0.29453 0.0
O471 O 0.91628 0.69384 0.31943 0.0
H472 H 0.91972 0.66384 0.4664 0.0
H473 H 0.90677 0.64799 0.53709 0.0
H474 H 0.82519 0.58916 0.52056 0.0
H475 H 0.83842 0.60507 0.44905 0.0
H476 H 0.84644 0.82185 0.31795 0.0
H477 H 0.82065 0.81895 0.26245 0.0
H478 H 0.89319 0.78756 0.18584 0.0
H479 H 0.91804 0.78961 0.24073 0.0
Tb480 Tb 0.53948 0.61607 0.70989 0.0
Tb481 Tb 0.51851 0.62814 0.62838 0.0
C482 C 0.5595 0.62353 0.77409 0.0
C483 C 0.56378 0.63822 0.81339 0.0
C484 C 0.58016 0.66773 0.81377 0.0
C485 C 0.58761 0.68025 0.84932 0.0
C486 C 0.58011 0.66352 0.88609 0.0
C487 C 0.56399 0.63382 0.88563 0.0
C488 C 0.55593 0.62153 0.85018 0.0
C489 C 0.5287 0.57051 0.66265 0.0
C490 C 0.47182 0.61632 0.71392 0.0
C491 C 0.49295 0.63014 0.57002 0.0
C492 C 0.49108 0.64167 0.52918 0.0
C493 C 0.48818 0.62236 0.49724 0.0
C494 C 0.48158 0.63137 0.46129 0.0
C495 C 0.47738 0.66014 0.45555 0.0
C496 C 0.48084 0.67959 0.48739 0.0
C497 C 0.48739 0.67055 0.52333 0.0
C498 C 0.54657 0.6731 0.66364 0.0
C499 C 0.58455 0.62414 0.62553 0.0
O500 O 0.57169 0.63884 0.73996 0.0
O501 O 0.53525 0.6034 0.77162 0.0
O502 O 0.5161 0.59178 0.66794 0.0
O503 O 0.54634 0.57259 0.68755 0.0
O504 O 0.49352 0.61913 0.73374 0.0
O505 O 0.4761 0.61606 0.67403 0.0
O506 O 0.50927 0.61099 0.573 0.0
O507 O 0.49136 0.64762 0.60063 0.0
O508 O 0.52843 0.65041 0.68013 0.0
O509 O 0.54853 0.67266 0.62504 0.0
O510 O 0.5624 0.61833 0.6061 0.0
O511 O 0.58084 0.62987 0.6642 0.0
H512 H 0.58846 0.68099 0.78604 0.0
H513 H 0.60052 0.70288 0.84738 0.0
H514 H 0.55756 0.61983 0.91282 0.0
H515 H 0.54428 0.59849 0.85133 0.0
H516 H 0.4902 0.5998 0.50047 0.0
H517 H 0.47968 0.61549 0.43798 0.0
H518 H 0.47746 0.70174 0.48533 0.0
H519 H 0.48869 0.68611 0.54714 0.0
Tb520 Tb 0.00292 0.35407 0.17251 0.0
Tb521 Tb 0.06298 0.38413 0.17579 0.0
C522 C 0.95244 0.3397 0.1566 0.0
C523 C 0.94269 0.34332 0.11947 0.0
C524 C 0.92633 0.36475 0.117 0.0
C525 C 0.92048 0.37147 0.08037 0.0
C526 C 0.93061 0.35656 1.04586 0.0
C527 C 0.94611 0.33441 1.04866 0.0
C528 C 0.95218 0.32788 0.08514 0.0
C529 C 0.03388 0.32093 0.19918 0.0
C530 C 0.05522 0.35484 0.09347 0.0
C531 C 0.11326 0.40665 0.1893 0.0
C532 C 0.12816 0.40526 0.222 0.0
C533 C 0.12161 0.3793 0.24607 0.0
C534 C 0.13563 0.37848 0.2777 0.0
C535 C 0.15591 0.40374 0.28588 0.0
C536 C 0.16223 0.42976 0.262 0.0
C537 C 0.14851 0.43044 0.22995 0.0
C538 C 0.03811 0.41653 0.13639 0.0
C539 C 0.01098 0.36579 0.25966 0.0
O540 O 0.96193 0.36451 0.17324 0.0
O541 O 0.9698 0.32119 0.15598 0.0
O542 O 0.04296 0.33996 0.17117 0.0
O543 O 0.00525 0.31795 0.21251 0.0
O544 O 0.02601 0.35219 0.10833 0.0
O545 O 0.07453 0.36431 0.1166 0.0
O546 O 0.10759 0.3822 0.17005 0.0
O547 O 0.09063 0.41949 0.1976 0.0
O548 O 0.02453 0.4009 0.16868 0.0
O549 O 0.06567 0.41485 0.12794 0.0
O550 O 0.04038 0.37236 0.24211 0.0
O551 O -0.00838 0.36295 0.23647 0.0
H552 H 0.91894 0.377 0.14312 0.0
H553 H 0.90859 0.3887 0.07888 0.0
H554 H 0.95354 0.32209 1.02265 0.0
H555 H 0.96485 0.31121 0.08608 0.0
H556 H 0.1055 0.35982 0.24069 0.0
H557 H 0.13001 0.35842 0.29647 0.0
H558 H 0.17765 0.44948 0.26825 0.0
H559 H 0.15348 0.45067 0.21168 0.0
Tb560 Tb 0.53009 0.36942 0.46259 0.0
Tb561 Tb 0.50533 0.38423 0.38505 0.0
C562 C 0.54368 0.36145 0.52955 0.0
C563 C 0.55261 0.35454 0.56829 0.0
C564 C 0.54717 0.37063 0.60361 0.0
C565 C 0.555 0.36303 0.63954 0.0
C566 C 0.56868 0.33899 0.64182 0.0
C567 C 0.57412 0.32311 0.60622 0.0
C568 C 0.56631 0.33068 0.57054 0.0
C569 C 0.51624 0.32649 0.41262 0.0
C570 C 0.45927 0.36137 0.46643 0.0
C571 C 0.49598 0.3774 0.31362 0.0
C572 C 0.48147 0.36021 0.28159 0.0
C573 C 0.48842 0.33348 0.26645 0.0
C574 C 0.4786 0.32031 0.23238 0.0
C575 C 0.46164 0.33335 0.21115 0.0
C576 C 0.45421 0.35977 0.22707 0.0
C577 C 0.46393 0.37283 0.26117 0.0
C578 C 0.51459 0.42747 0.43545 0.0
C579 C 0.57653 0.3962 0.38281 0.0
O580 O 0.52843 0.38111 0.52455 0.0
O581 O 0.55132 0.34742 0.49673 0.0
O582 O 0.50499 0.34794 0.42156 0.0
O583 O 0.53481 0.32686 0.43556 0.0
O584 O 0.48156 0.36552 0.48582 0.0
O585 O 0.46356 0.36283 0.42651 0.0
O586 O 0.51637 0.36772 0.32686 0.0
O587 O 0.48116 0.3919 0.34141 0.0
O588 O 0.52844 0.40706 0.42797 0.0
O589 O 0.49777 0.4268 0.40948 0.0
O590 O 0.55421 0.3934 0.36395 0.0
O591 O 0.57251 0.39127 0.42225 0.0
H592 H 0.53676 0.38917 0.60358 0.0
H593 H 0.55054 0.37634 0.6655 0.0
H594 H 0.58396 0.30417 0.60589 0.0
H595 H 0.57084 0.31739 0.54454 0.0
H596 H 0.50235 0.32302 0.28019 0.0
H597 H 0.48542 0.30029 0.22189 0.0
H598 H 0.44084 0.37077 0.21311 0.0
H599 H 0.45834 0.39355 0.2709 0.0
Tb600 Tb 0.98077 0.61022 0.92095 0.0
Tb601 Tb 0.04063 0.6381 0.92778 0.0
C602 C 0.93153 0.58721 0.9047 0.0
C603 C 0.9187 0.58773 0.86986 0.0
C604 C 0.92775 0.61266 0.84356 0.0
C605 C 0.91664 0.61249 0.80917 0.0
C606 C 0.89691 0.58707 0.80008 0.0
C607 C 0.88783 0.56209 0.82655 0.0
C608 C 0.89867 0.56248 0.86142 0.0
C609 C 0.00208 0.57742 0.96496 0.0
C610 C 0.03466 0.62804 0.83957 0.0
C611 C 0.08935 0.64795 0.9476 0.0
C612 C 0.09479 0.63774 0.985 0.0
C613 C 0.10508 0.61164 0.98579 0.0
C614 C 0.10617 0.59932 1.02222 0.0
C615 C 0.0973 0.61315 0.05814 0.0
C616 C 0.08668 0.63903 0.05738 0.0
C617 C 0.08555 0.65128 1.02114 0.0
C618 C 0.01372 0.67329 0.89703 0.0
C619 C -0.01338 0.63985 1.00316 0.0
O620 O 0.93654 0.6122 0.92299 0.0
O621 O 0.95401 0.57422 0.89925 0.0
O622 O 0.01726 0.59192 0.9324 0.0
O623 O 0.97505 0.58059 0.97131 0.0
O624 O 0.00507 0.62142 0.85541 0.0
O625 O 0.05313 0.62996 0.86388 0.0
O626 O 0.08144 0.62663 0.92399 0.0
O627 O 0.07278 0.66751 0.95117 0.0
O628 O 0.00248 0.65416 0.9248 0.0
O629 O 0.04246 0.67576 0.8876 0.0
O630 O 0.01545 0.63944 0.99099 0.0
O631 O 0.96857 0.63284 0.97777 0.0
H632 H 0.94367 0.63211 0.84931 0.0
H633 H 0.92362 0.63224 0.78962 0.0
H634 H 0.87294 0.54214 0.81989 0.0
H635 H 0.89193 0.54293 0.88135 0.0
H636 H 0.11193 0.60055 0.9583 0.0
H637 H 0.11481 0.57961 1.02229 0.0
H638 H 0.08061 0.65069 0.08462 0.0
H639 H 0.07724 0.67125 1.02163 0.0
H640 H 0.09833 0.08563 0.05546 0.0
H641 H 0.12924 0.16015 0.12431 0.0
H642 H 0.14112 0.10362 0.99973 0.0
H643 H 0.17184 0.17864 0.06795 0.0
H644 H 0.16077 0.21134 0.93606 0.0
H645 H 0.15635 0.19681 1.00576 0.0
H646 H 0.19757 0.12409 0.96632 0.0
H647 H 0.20192 0.13873 0.89621 0.0
C648 C 0.11495 0.10524 0.05914 0.0
C649 C 0.11027 0.12192 0.09348 0.0
C650 C 0.1397 0.11539 1.0275 0.0
C651 C 0.15961 0.1427 1.02951 0.0
C652 C 0.15684 0.15751 0.06582 0.0
C653 C 0.13238 0.14698 0.09788 0.0
C654 C 0.17024 0.19316 0.94232 0.0
C655 C 0.18072 0.17546 0.91123 0.0
C656 C 0.16807 0.18501 0.98221 0.0
C657 C 0.17603 0.15889 0.99125 0.0
C658 C 0.19108 0.14415 0.95991 0.0
C659 C 0.19346 0.15245 0.91989 0.0
H660 H 0.11765 0.82098 0.38172 0.0
H661 H 0.10937 0.73266 0.33838 0.0
H662 H 0.10649 0.83755 0.32033 0.0
H663 H 0.09722 0.7488 0.27757 0.0
H664 H 0.09911 0.78832 0.15448 0.0
H665 H 0.11151 0.77297 0.21528 0.0
H666 H 0.07353 0.84081 0.28032 0.0
H667 H 0.06158 0.85644 0.21905 0.0
C668 C 0.11323 0.8049 0.35929 0.0
C669 C 0.11454 0.7753 0.36578 0.0
C670 C 0.10655 0.81445 0.3237 0.0
C671 C 0.10072 0.79484 0.29277 0.0
C672 C 0.10193 0.76514 0.29954 0.0
C673 C 0.10873 0.75565 0.33505 0.0
C674 C 0.09309 0.79998 0.18169 0.0
C675 C 0.07893 0.82373 0.18094 0.0
C676 C 0.10024 0.79099 0.21717 0.0
C677 C 0.09351 0.80514 0.25404 0.0
C678 C 0.07969 0.82919 0.25314 0.0
C679 C 0.07268 0.8383 0.21751 0.0
H680 H 0.36549 0.87906 0.32977 0.0
H681 H 0.41043 0.80697 0.31621 0.0
H682 H 0.37361 0.88578 0.39821 0.0
H683 H 0.41857 0.8135 0.38439 0.0
H684 H 0.47171 0.86522 0.46604 0.0
H685 H 0.4547 0.85978 0.40321 0.0
H686 H 0.36468 0.86055 0.46855 0.0
H687 H 0.38159 0.86578 0.53144 0.0
C688 C 0.37592 0.86397 0.34232 0.0
C689 C 0.38753 0.84274 0.31859 0.0
C690 C 0.38074 0.86788 0.38101 0.0
C691 C 0.39745 0.85072 0.39545 0.0
C692 C 0.40623 0.82737 0.37311 0.0
C693 C 0.40127 0.82339 0.33464 0.0
C694 C 0.44849 0.86499 0.46666 0.0
C695 C 0.42773 0.86534 0.50321 0.0
C696 C 0.43875 0.86157 0.43106 0.0
C697 C 0.40826 0.85875 0.43185 0.0
C698 C 0.38819 0.86233 0.46771 0.0
C699 C 0.39793 0.86563 0.5034 0.0
H700 H 0.43809 0.1565 0.76535 0.0
H701 H 0.41102 0.2279 0.71507 0.0
H702 H 0.45343 0.1388 0.69776 0.0
H703 H 0.42605 0.20984 0.64722 0.0
H704 H 0.43055 0.15064 0.53423 0.0
H705 H 0.41317 0.16732 0.60232 0.0
H706 H 0.49291 0.15378 0.63456 0.0
H707 H 0.51044 0.13763 0.5666 0.0
C708 C 0.43523 0.16844 0.73996 0.0
C709 C 0.42327 0.19383 0.74619 0.0
C710 C 0.44424 0.15829 0.70091 0.0
C711 C 0.44118 0.17278 0.66647 0.0
C712 C 0.42866 0.19785 0.67273 0.0
C713 C 0.42013 0.20835 0.71182 0.0
C714 C 0.44433 0.15106 0.55587 0.0
C715 C 0.47199 0.14268 0.54447 0.0
C716 C 0.43444 0.16088 0.595 0.0
C717 C 0.45153 0.16208 0.62444 0.0
C718 C 0.47888 0.15308 0.61318 0.0
C719 C 0.48904 0.14385 0.5739 0.0
H720 H 0.83368 0.84926 0.1999 0.0
H721 H 0.85024 0.76527 0.15754 0.0
H722 H 0.84217 0.86731 0.1308 0.0
H723 H 0.86004 0.78383 0.08842 0.0
H724 H 0.94404 0.8905 0.05181 0.0
H725 H 0.89839 0.87555 0.10407 0.0
H726 H 0.8599 0.8123 1.02529 0.0
H727 H 0.90584 0.82789 0.9724 0.0
C728 C 0.83735 0.83399 0.17604 0.0
C729 C 0.84307 0.80647 0.18384 0.0
C730 C 0.8423 0.84443 0.13632 0.0
C731 C 0.85336 0.82755 0.10449 0.0
C732 C 0.8522 0.79764 0.1124 0.0
C733 C 0.84687 0.78706 0.15212 0.0
C734 C 0.92546 0.87406 1.04532 0.0
C735 C 0.92845 0.85992 1.00868 0.0
C736 C 0.89908 0.86577 0.07495 0.0
C737 C 0.87548 0.84272 0.0687 0.0
C738 C 0.87763 0.83022 1.03073 0.0
C739 C 0.90391 0.83903 1.00068 0.0
H740 H 0.93486 0.17274 0.71435 0.0
H741 H 0.92358 0.25435 0.77015 0.0
H742 H 0.94778 0.15622 0.77462 0.0
H743 H 0.93569 0.23776 0.83066 0.0
H744 H 0.98276 0.21332 0.92495 0.0
H745 H 0.97063 0.22907 0.86413 0.0
H746 H 0.93439 0.13808 0.84152 0.0
H747 H 0.94702 0.12234 0.9023 0.0
C748 C 0.93493 0.18722 0.73949 0.0
C749 C 0.92803 0.21509 0.73663 0.0
C750 C 0.94226 0.17759 0.77461 0.0
C751 C 0.94307 0.19537 0.80866 0.0
C752 C 0.93607 0.22323 0.80558 0.0
C753 C 0.92881 0.23284 0.77051 0.0
C754 C 0.97195 0.19649 0.90743 0.0
C755 C 0.96597 0.16632 0.91963 0.0
C756 C 0.96482 0.20565 0.872 0.0
C757 C 0.95113 0.18518 0.84683 0.0
C758 C 0.94524 0.15493 0.85897 0.0
C759 C 0.95253 0.14575 0.89437 0.0
H760 H 0.67273 0.10471 0.76148 0.0
H761 H 0.6483 0.18871 0.75595 0.0
H762 H 0.65442 0.09044 0.70064 0.0
H763 H 0.63132 0.17491 0.69504 0.0
H764 H 0.56367 0.1322 0.63276 0.0
H765 H 0.58423 0.13549 0.69279 0.0
H766 H 0.66045 0.10419 0.62641 0.0
H767 H 0.63953 0.10035 0.56671 0.0
C768 C 0.66454 0.12045 0.74642 0.0
C769 C 0.66128 0.14743 0.76376 0.0
C770 C 0.65395 0.11224 0.71198 0.0
C771 C 0.64032 0.13112 0.69479 0.0
C772 C 0.64075 0.15961 0.70901 0.0
C773 C 0.65116 0.16775 0.74333 0.0
C774 C 0.58411 0.12483 0.63175 0.0
C775 C 0.60051 0.11661 0.59551 0.0
C776 C 0.59601 0.127 0.66566 0.0
C777 C 0.62437 0.12114 0.66321 0.0
C778 C 0.6387 0.1091 0.62855 0.0
C779 C 0.62668 0.10672 0.59466 0.0
H780 H 0.52312 0.81376 0.54175 0.0
H781 H 0.61277 0.86154 0.54427 0.0
H782 H 0.54207 0.79653 0.47466 0.0
H783 H 0.63149 0.84498 0.47666 0.0
H784 H 0.64117 0.83711 0.33524 0.0
H785 H 0.62369 0.85286 0.40362 0.0
H786 H 0.57939 0.76253 0.44163 0.0
H787 H 0.59803 0.74656 0.37325 0.0
C788 C 0.54686 0.82074 0.52804 0.0
C789 C 0.56635 0.83909 0.54885 0.0
C790 C 0.55776 0.81067 0.48953 0.0
C791 C 0.5884 0.81918 0.47007 0.0
C792 C 0.60779 0.83794 0.49055 0.0
C793 C 0.59702 0.84743 0.52947 0.0
C794 C 0.62797 0.82051 0.35825 0.0
C795 C 0.62119 0.7905 0.34861 0.0
C796 C 0.61796 0.82957 0.39756 0.0
C797 C 0.59999 0.80906 0.42838 0.0
C798 C 0.59307 0.779 0.41874 0.0
C799 C 0.60393 0.76979 0.37959 0.0
H800 H 0.61437 0.64452 0.43285 0.0
H801 H 0.71121 0.67319 0.40291 0.0
H802 H 0.61518 0.63392 0.50168 0.0
H803 H 0.71194 0.66138 0.4732 0.0
H804 H 0.62807 0.67425 0.61235 0.0
H805 H 0.6688 0.68447 0.55197 0.0
H806 H 0.6512 0.5918 0.52689 0.0
H807 H 0.6092 0.58188 0.58546 0.0
C808 C 0.63587 0.64855 0.44105 0.0
C809 C 0.66271 0.65961 0.41272 0.0
C810 C 0.63636 0.64217 0.48026 0.0
C811 C 0.66371 0.64623 0.492 0.0
C812 C 0.69076 0.65767 0.4642 0.0
C813 C 0.69027 0.66424 0.42438 0.0
C814 C 0.634 0.65592 0.59496 0.0
C815 C 0.61508 0.62758 0.60185 0.0
C816 C 0.65777 0.66165 0.56103 0.0
C817 C 0.66194 0.63902 0.53422 0.0
C818 C 0.64783 0.60959 0.54701 0.0
C819 C 0.62336 0.60398 0.57991 0.0
H820 H 0.59689 0.31707 0.8914 0.0
H821 H 0.6287 0.24654 0.82552 0.0
H822 H 0.58465 0.33426 0.83088 0.0
H823 H 0.61643 0.26343 0.76511 0.0
H824 H 0.61547 0.31339 0.65032 0.0
H825 H 0.62777 0.29768 0.711 0.0
H826 H 0.55385 0.32859 0.78397 0.0
H827 H 0.54146 0.34434 0.723 0.0
C828 C 0.60138 0.30514 0.86403 0.0
C829 C 0.61397 0.28024 0.86406 0.0
C830 C 0.59408 0.31495 0.82895 0.0
C831 C 0.59941 0.3006 0.79192 0.0
C832 C 0.61213 0.27572 0.79215 0.0
C833 C 0.61903 0.26571 0.82733 0.0
C834 C 0.60141 0.31668 0.67909 0.0
C835 C 0.57703 0.33017 0.68056 0.0
C836 C 0.6086 0.30751 0.71451 0.0
C837 C 0.59188 0.3113 0.75357 0.0
C838 C 0.5678 0.32527 0.75513 0.0
C839 C 0.56058 0.33445 0.71961 0.0
H840 H 0.96883 0.36236 0.97197 0.0
H841 H 0.87828 0.36572 1.03251 0.0
H842 H 0.95582 0.36496 0.90689 0.0
H843 H 0.8658 0.36937 0.9671 0.0
H844 H 0.89969 0.31327 0.82129 0.0
H845 H 0.90947 0.3193 0.88837 0.0
H846 H 0.89058 0.40609 0.89164 0.0
H847 H 0.88108 0.40031 0.8234 0.0
C848 C 0.94635 0.36414 0.97132 0.0
C849 C 0.92435 0.36327 1.00709 0.0
C850 C 0.93906 0.36587 0.93428 0.0
C851 C 0.90988 0.36722 0.93266 0.0
C852 C 0.88847 0.36856 0.96813 0.0
C853 C 0.89565 0.3665 1.00531 0.0
C854 C 0.89679 0.33332 0.83671 0.0
C855 C 0.88934 0.35629 0.8177 0.0
C856 C 0.90273 0.33685 0.8747 0.0
C857 C 0.90099 0.36323 0.89431 0.0
C858 C 0.89204 0.38567 0.87649 0.0
C859 C 0.88655 0.38234 0.83792 0.0
H860 H 0.9126 0.73417 0.21557 0.0
H861 H 0.94071 0.66312 0.26508 0.0
H862 H 0.92818 0.71667 0.14749 0.0
H863 H 0.95626 0.64585 0.19752 0.0
H864 H 0.01305 0.6439 0.06792 0.0
H865 H -0.00455 0.66064 0.13541 0.0
H866 H 0.91642 0.67493 0.10182 0.0
H867 H 0.93398 0.65785 1.03411 0.0
C868 C 0.92209 0.71487 0.2121 0.0
C869 C 0.92545 0.7003 0.24628 0.0
C870 C 0.93089 0.70466 0.17292 0.0
C871 C 0.94377 0.67982 0.16651 0.0
C872 C 0.9469 0.66524 0.20079 0.0
C873 C 0.93776 0.67516 0.23984 0.0
C874 C -0.00815 0.6505 0.07479 0.0
C875 C 0.97504 0.6494 1.04513 0.0
C876 C 0.98162 0.66004 0.11379 0.0
C877 C 0.9544 0.66932 0.12456 0.0
C878 C 0.93759 0.6683 0.09485 0.0
C879 C 0.9476 0.65826 0.05594 0.0
H880 H 0.41016 0.38524 0.48386 0.0
H881 H 0.44197 0.30753 0.5018 0.0
H882 H 0.36612 0.36789 0.53927 0.0
H883 H 0.39929 0.29041 0.55702 0.0
H884 H 0.35171 0.27216 0.66958 0.0
H885 H 0.35178 0.27682 0.59915 0.0
H886 H 0.37004 0.37197 0.60653 0.0
H887 H 0.36646 0.36719 0.67794 0.0
C888 C 0.40703 0.36396 0.49887 0.0
C889 C 0.42942 0.34797 0.49007 0.0
C890 C 0.38195 0.354 0.53049 0.0
C891 C 0.37959 0.32831 0.55373 0.0
C892 C 0.40009 0.31037 0.54037 0.0
C893 C 0.42493 0.32031 0.50898 0.0
C894 C 0.35403 0.29406 0.657 0.0
C895 C 0.36083 0.31952 0.67911 0.0
C896 C 0.35428 0.2967 0.61622 0.0
C897 C 0.36283 0.32477 0.59654 0.0
C898 C 0.36416 0.34988 0.62018 0.0
C899 C 0.36286 0.34721 0.66125 0.0
H900 H 0.49105 0.71601 0.4171 0.0
H901 H 0.44423 0.62617 0.40555 0.0
H902 H 0.47721 0.73115 0.35721 0.0
H903 H 0.43052 0.64134 0.34544 0.0
H904 H 0.43041 0.67247 0.21654 0.0
H905 H 0.44454 0.65668 0.27633 0.0
H906 H 0.43971 0.74126 0.32775 0.0
H907 H 0.42609 0.75703 0.26787 0.0
C908 C 0.47757 0.69931 0.40227 0.0
C909 C 0.469 0.66959 0.4173 0.0
C910 C 0.46951 0.70814 0.36737 0.0
C911 C 0.45246 0.68774 0.34549 0.0
C912 C 0.444 0.65798 0.36036 0.0
C913 C 0.45202 0.64916 0.39534 0.0
C914 C 0.43226 0.68775 0.24059 0.0
C915 C 0.42691 0.71618 0.23669 0.0
C916 C 0.44032 0.67858 0.27536 0.0
C917 C 0.44354 0.69746 0.30786 0.0
C918 C 0.43812 0.7259 0.30377 0.0
C919 C 0.43001 0.73501 0.26911 0.0
H920 H 0.12858 0.69423 0.25394 0.0
H921 H 0.18194 0.63075 0.26004 0.0
H922 H 0.11785 0.67371 0.19121 0.0
H923 H 0.17097 0.6099 0.19746 0.0
H924 H 0.15108 0.6049 0.0642 0.0
H925 H 0.17191 0.61942 0.1225 0.0
H926 H 0.0834 0.62067 0.19283 0.0
H927 H 0.06243 0.60604 0.1344 0.0
C928 C 0.13925 0.67693 0.24055 0.0
C929 C 0.15549 0.66344 0.26149 0.0
C930 C 0.13265 0.66482 0.2054 0.0
C931 C 0.14248 0.63942 0.19127 0.0
C932 C 0.16274 0.6291 0.20868 0.0
C933 C 0.16936 0.64126 0.24391 0.0
C934 C 0.13582 0.60655 0.09273 0.0
C935 C 0.1054 0.60542 0.09486 0.0
C936 C 0.14785 0.61529 0.12579 0.0
C937 C 0.12933 0.62248 0.16089 0.0
C938 C 0.09811 0.61622 0.16516 0.0
C939 C 0.08607 0.60737 0.13218 0.0
H940 H 0.13008 0.33944 0.83394 0.0
H941 H 0.10117 0.24916 0.88074 0.0
H942 H 0.11421 0.35686 0.90177 0.0
H943 H 0.08421 0.26669 0.94864 0.0
H944 H 0.02429 0.31386 0.04998 0.0
H945 H 0.04223 0.29595 0.98297 0.0
H946 H 0.12844 0.35575 0.97342 0.0
H947 H 0.11088 0.37291 1.04124 0.0
C948 C 0.12029 0.32322 0.85867 0.0
C949 C 0.11698 0.29277 0.8515 0.0
C950 C 0.11125 0.3333 0.89774 0.0
C951 C 0.09775 0.31329 0.93098 0.0
C952 C 0.09435 0.28281 0.92387 0.0
C953 C 0.10423 0.27272 0.88489 0.0
C954 C 0.04711 0.32324 1.03372 0.0
C955 C 0.06607 0.34489 0.05145 0.0
C956 C 0.05747 0.31278 0.99525 0.0
C957 C 0.0869 0.32419 0.97255 0.0
C958 C 0.10567 0.34635 0.98985 0.0
C959 C 0.09558 0.35619 1.02887 0.0
H960 H 0.08904 0.31239 0.1639 0.0
H961 H 0.02581 0.30556 0.27865 0.0
H962 H 0.11378 0.27892 0.19025 0.0
H963 H 0.05416 0.27639 0.30631 0.0
H964 H 0.08496 0.18885 0.17294 0.0
H965 H 0.11022 0.22918 0.20831 0.0
H966 H 0.02319 0.23776 0.27771 0.0
H967 H -0.00113 0.19916 0.24095 0.0
C968 C 0.08112 0.30463 0.19519 0.0
C969 C 0.05395 0.30924 0.21844 0.0
C970 C 0.09583 0.28612 0.21088 0.0
C971 C 0.0813 0.27059 0.24792 0.0
C972 C 0.06271 0.28503 0.27547 0.0
C973 C 0.04605 0.30141 0.25968 0.0
C974 C 0.07153 0.19952 0.19608 0.0
C975 C 0.04002 0.1926 0.20284 0.0
C976 C 0.08598 0.22219 0.21686 0.0
C977 C 0.06903 0.23838 0.24403 0.0
C978 C 0.03752 0.22731 0.25555 0.0
C979 C 0.02319 0.20542 0.23403 0.0
H980 H 0.00857 0.78234 0.37369 0.0
H981 H 0.94294 0.70296 0.42002 0.0
H982 H 0.02947 0.78257 0.43206 0.0
H983 H 0.9598 0.70525 0.4821 0.0
H984 H 0.03349 0.69516 0.5438 0.0
H985 H -0.00876 0.69895 0.51765 0.0
H986 H 0.02703 0.7933 0.49697 0.0
H987 H 0.07174 0.7883 0.51823 0.0
C988 C -0.00145 0.76483 0.39673 0.0
C989 C 0.97339 0.74309 0.3933 0.0
C990 C 0.00967 0.76557 0.43122 0.0
C991 C -0.00484 0.7451 0.46382 0.0
C992 C 0.97146 0.72186 0.45851 0.0
C993 C 0.9616 0.72033 0.42278 0.0
C994 C 0.03184 0.71695 0.53498 0.0
C995 C 0.05685 0.74086 0.52869 0.0
C996 C 0.00738 0.71923 0.51971 0.0
C997 C 0.00783 0.74589 0.50015 0.0
C998 C 0.02791 0.77174 0.50767 0.0
C999 C 0.05322 0.76913 0.5208 0.0
H1000 H 0.59757 0.71523 0.63325 0.0
H1001 H 0.53567 0.67853 0.74402 0.0
H1002 H 0.61976 0.75635 0.66893 0.0
H1003 H 0.55773 0.71895 0.78043 0.0
H1004 H 0.51939 0.78949 0.77166 0.0
H1005 H 0.55154 0.76311 0.79646 0.0
H1006 H 0.62483 0.79958 0.69765 0.0
H1007 H 0.59291 0.82472 0.67096 0.0
C1008 C 0.58897 0.71599 0.66545 0.0
C1009 C 0.56386 0.69497 0.68554 0.0
C1010 C 0.6018 0.7395 0.68646 0.0
C1011 C 0.58843 0.74312 0.72741 0.0
C1012 C 0.56714 0.71872 0.74844 0.0
C1013 C 0.55435 0.69535 0.72751 0.0
C1014 C 0.54226 0.7914 0.75476 0.0
C1015 C 0.55276 0.80636 0.71709 0.0
C1016 C 0.56098 0.7767 0.76904 0.0
C1017 C 0.58788 0.77359 0.74245 0.0
C1018 C 0.60184 0.79721 0.71427 0.0
C1019 C 0.58351 0.81154 0.69874 0.0
H1020 H 0.53373 0.1962 1.04756 0.0
H1021 H 0.56816 0.28854 1.01185 0.0
H1022 H 0.48879 0.19644 1.02492 0.0
H1023 H 0.52121 0.28979 0.99401 0.0
H1024 H 0.51236 0.2652 0.86872 0.0
H1025 H 0.53111 0.26929 0.9293 0.0
H1026 H 0.45392 0.2021 0.98937 0.0
H1027 H 0.43775 0.19582 0.9262 0.0
C1028 C 0.53075 0.21713 1.03752 0.0
C1029 C 0.55522 0.24153 1.02692 0.0
C1030 C 0.5047 0.21734 1.02475 0.0
C1031 C 0.50355 0.24238 1.00307 0.0
C1032 C 0.52319 0.26946 1.00728 0.0
C1033 C 0.55002 0.2689 1.01779 0.0
C1034 C 0.50006 0.25055 0.89449 0.0
C1035 C 0.4727 0.23127 0.89375 0.0
C1036 C 0.51002 0.25372 0.92991 0.0
C1037 C 0.4925 0.23795 0.96558 0.0
C1038 C 0.46722 0.2157 0.96312 0.0
C1039 C 0.458 0.21182 0.92685 0.0
H1040 H 0.95871 0.78518 0.94123 0.0
H1041 H 0.03586 0.80907 0.84237 0.0
H1042 H 0.93602 0.74553 0.90392 0.0
H1043 H 0.01342 0.76997 0.80336 0.0
H1044 H 0.03239 0.69588 0.81917 0.0
H1045 H 0.00547 0.7235 0.78594 0.0
H1046 H 0.92806 0.69986 0.88265 0.0
H1047 H 0.95374 0.6713 0.9166 0.0
C1048 C 0.97091 0.78136 0.91133 0.0
C1049 C 6e-05 0.79783 0.89574 0.0
C1050 C 0.95776 0.75889 0.88934 0.0
C1051 C 0.97406 0.75192 0.85162 0.0
C1052 C 0.00105 0.7724 0.83357 0.0
C1053 C 0.01439 0.79459 0.85598 0.0
C1054 C 0.00964 0.69672 0.83373 0.0
C1055 C -0.00374 0.68441 0.8727 0.0
C1056 C -0.006 0.71225 0.81469 0.0
C1057 C 0.96868 0.72046 0.8386 0.0
C1058 C 0.95089 0.69905 0.86843 0.0
C1059 C 0.9656 0.68293 0.8882 0.0
H1060 H 0.56298 0.69462 0.23497 0.0
H1061 H 0.56873 0.78664 0.20826 0.0
H1062 H 0.53844 0.68039 0.17952 0.0
H1063 H 0.54301 0.77258 0.15434 0.0
H1064 H 0.51448 0.76393 0.06019 0.0
H1065 H 0.55505 0.75327 0.08655 0.0
H1066 H 0.49273 0.67951 0.15768 0.0
H1067 H 0.45375 0.68759 0.12624 0.0
C1068 C 0.55759 0.71169 0.21851 0.0
C1069 C 0.56743 0.74177 0.22586 0.0
C1070 C 0.54434 0.70356 0.18612 0.0
C1071 C 0.54038 0.7254 0.16121 0.0
C1072 C 0.54732 0.75524 0.17155 0.0
C1073 C 0.56088 0.76335 0.20346 0.0
C1074 C 0.51019 0.74386 0.07857 0.0
C1075 C 0.48074 0.72825 0.09476 0.0
C1076 C 0.53327 0.73799 0.09423 0.0
C1077 C 0.52597 0.71762 0.12714 0.0
C1078 C 0.49859 0.69654 0.13394 0.0
C1079 C 0.47604 0.70145 0.11627 0.0
H1080 H 0.51801 0.19825 0.32318 0.0
H1081 H 0.44494 0.16115 0.42379 0.0
H1082 H 0.48903 0.23213 0.30759 0.0
H1083 H 0.4173 0.19629 0.40874 0.0
H1084 H 0.50544 0.27226 0.44708 0.0
H1085 H 0.47393 0.22763 0.43047 0.0
H1086 H 0.45352 0.2751 0.33567 0.0
H1087 H 0.4827 0.32098 0.35646 0.0
C1088 C 0.49551 0.19677 0.34113 0.0
C1089 C 0.48473 0.17937 0.37694 0.0
C1090 C 0.47839 0.21547 0.3316 0.0
C1091 C 0.45379 0.21958 0.36153 0.0
C1092 C 0.43815 0.19531 0.38785 0.0
C1093 C 0.45447 0.17578 0.3973 0.0
C1094 C 0.49408 0.27322 0.42292 0.0
C1095 C 0.49814 0.29948 0.40092 0.0
C1096 C 0.47525 0.24778 0.41392 0.0
C1097 C 0.46136 0.24777 0.3812 0.0
C1098 C 0.46383 0.27454 0.36098 0.0
C1099 C 0.48149 0.30045 0.37171 0.0
H1100 H 0.06531 0.28747 0.70516 0.0
H1101 H 0.0588 0.1956 0.73361 0.0
H1102 H 0.04381 0.27334 0.64764 0.0
H1103 H 0.0388 0.18125 0.67447 0.0
H1104 H 0.9555 0.18931 0.62103 0.0
H1105 H -0.00449 0.17892 0.64811 0.0
H1106 H 0.05688 0.25455 0.58026 0.0
H1107 H 0.01533 0.26777 0.55903 0.0
C1108 C 0.05816 0.26417 0.69984 0.0
C1109 C 0.06316 0.24269 0.72404 0.0
C1110 C 0.04715 0.256 0.66584 0.0
C1111 C 0.04125 0.22615 0.65509 0.0
C1112 C 0.04387 0.20441 0.68134 0.0
C1113 C 0.05444 0.21261 0.71585 0.0
C1114 C 0.97771 0.20327 0.61093 0.0
C1115 C 0.98204 0.23106 0.59212 0.0
C1116 C 0.00095 0.19695 0.62586 0.0
C1117 C 0.02826 0.21812 0.61973 0.0
C1118 C 0.03503 0.23938 0.58798 0.0
C1119 C 0.01133 0.24688 0.57548 0.0
H1120 H -0.01097 0.05519 0.11689 0.0
H1121 H 0.05721 0.01862 0.15019 0.0
H1122 H -0.01369 0.02121 0.06298 0.0
H1123 H 0.05313 0.98258 0.09737 0.0
H1124 H 0.05954 0.9412 0.97293 0.0
H1125 H 0.06357 0.97438 1.02869 0.0
H1126 H 0.96939 0.97406 1.04605 0.0
H1127 H 0.96634 0.94279 0.98871 0.0
C1128 C 0.00318 0.03945 0.11305 0.0
C1129 C 0.02334 0.03963 0.13788 0.0
C1130 C 0.00139 0.01957 0.08217 0.0
C1131 C 0.01922 -0.00141 0.07558 0.0
C1132 C 0.03924 -0.00148 0.10091 0.0
C1133 C 0.04142 0.01897 0.13155 0.0
C1134 C 0.03984 0.94849 0.98871 0.0
C1135 C 0.01275 0.93984 0.97621 0.0
C1136 C 0.04201 0.96731 1.02098 0.0
C1137 C 0.01691 0.97741 1.04211 0.0
C1138 C -0.01043 0.96776 1.03005 0.0
C1139 C -0.01234 0.94962 0.99722 0.0
H1140 H 0.22487 0.71717 0.41304 0.0
H1141 H 0.20313 0.78471 0.34734 0.0
H1142 H 0.26551 0.71325 0.35476 0.0
H1143 H 0.24384 0.78215 0.29086 0.0
H1144 H 0.30738 0.75916 0.17871 0.0
H1145 H 0.26524 0.76077 0.2353 0.0
H1146 H 0.31334 0.73399 0.31734 0.0
H1147 H 0.35435 0.73089 0.2603 0.0
C1148 C 0.22858 0.73104 0.38622 0.0
C1149 C 0.21059 0.75132 0.38529 0.0
C1150 C 0.25226 0.72917 0.3527 0.0
C1151 C 0.25878 0.74764 0.31733 0.0
C1152 C 0.23997 0.76717 0.31655 0.0
C1153 C 0.21647 0.76885 0.34958 0.0
C1154 C 0.3092 0.75441 0.20897 0.0
C1155 C 0.3346 0.7455 0.21489 0.0
C1156 C 0.28482 0.75511 0.24181 0.0
C1157 C 0.28516 0.74729 0.28185 0.0
C1158 C 0.31132 0.73949 0.28749 0.0
C1159 C 0.33531 0.73828 0.25465 0.0
H1160 H 0.47951 0.05963 0.53932 0.0
H1161 H 0.55092 0.04453 0.44279 0.0
H1162 H 0.48539 0.01995 0.58023 0.0
H1163 H 0.55721 0.00442 0.48448 0.0
H1164 H 0.5787 0.95569 0.58589 0.0
H1165 H 0.57257 0.99523 0.54604 0.0
H1166 H 0.47635 0.96522 0.58422 0.0
H1167 H 0.48252 0.92446 0.62519 0.0
C1168 C 0.49686 0.04799 0.52693 0.0
C1169 C 0.51473 0.0553 0.48758 0.0
C1170 C 0.49991 0.02489 0.5504 0.0
C1171 C 0.52126 0.00838 0.53563 0.0
C1172 C 0.54036 0.01659 0.49692 0.0
C1173 C 0.53707 0.03977 0.47303 0.0
C1174 C 0.55598 0.95719 0.58624 0.0
C1175 C 0.53102 0.93655 0.60918 0.0
C1176 C 0.55261 0.98001 0.56277 0.0
C1177 C 0.52409 0.98343 0.56116 0.0
C1178 C 0.4988 0.96333 0.58478 0.0
C1179 C 0.50221 0.94004 0.60849 0.0
H1180 H 0.31327 0.18439 0.81459 0.0
H1181 H 0.33204 0.26798 0.87119 0.0
H1182 H 0.27317 0.19847 0.79131 0.0
H1183 H 0.2931 0.28335 0.84515 0.0
H1184 H 0.20603 0.29519 0.81744 0.0
H1185 H 0.24245 0.27885 0.84751 0.0
H1186 H 0.26474 0.22736 0.74306 0.0
H1187 H 0.22701 0.24243 0.71462 0.0
C1188 C 0.30893 0.20599 0.82183 0.0
C1189 C 0.32618 0.22529 0.84417 0.0
C1190 C 0.28606 0.21426 0.80799 0.0
C1191 C 0.28002 0.24237 0.81542 0.0
C1192 C 0.29677 0.26142 0.83893 0.0
C1193 C 0.31933 0.25279 0.85364 0.0
C1194 C 0.21867 0.28021 0.80117 0.0
C1195 C 0.21368 0.26995 0.76381 0.0
C1196 C 0.23976 0.27099 0.81823 0.0
C1197 C 0.25684 0.25174 0.79791 0.0
C1198 C 0.25173 0.24163 0.76029 0.0
C1199 C 0.23019 0.25038 0.7437 0.0
H1200 H 0.71088 0.21097 0.90267 0.0
H1201 H 0.72272 0.30132 0.86224 0.0
H1202 H 0.75062 0.20478 0.84471 0.0
H1203 H 0.7631 0.29601 0.80659 0.0
H1204 H 0.82042 0.27439 0.6871 0.0
H1205 H 0.77952 0.27971 0.7439 0.0
H1206 H 0.80061 0.2134 0.81322 0.0
H1207 H 0.84028 0.20768 0.75638 0.0
C1208 C 0.72213 0.22963 0.88184 0.0
C1209 C 0.71316 0.25659 0.8875 0.0
C1210 C 0.74525 0.22623 0.84839 0.0
C1211 C 0.76067 0.24988 0.81989 0.0
C1212 C 0.75183 0.27687 0.82646 0.0
C1213 C 0.72857 0.28003 0.85917 0.0
C1214 C 0.8164 0.26119 0.71461 0.0
C1215 C 0.83391 0.24069 0.71686 0.0
C1216 C 0.79282 0.26418 0.74759 0.0
C1217 C 0.78599 0.24686 0.78408 0.0
C1218 C 0.80409 0.22679 0.78606 0.0
C1219 C 0.82733 0.22372 0.75322 0.0
H1220 H 0.8274 0.76492 0.37816 0.0
H1221 H 0.82169 0.68914 0.30352 0.0
H1222 H 0.79105 0.78165 0.34857 0.0
H1223 H 0.78352 0.70416 0.27642 0.0
H1224 H 0.73848 0.7525 0.20309 0.0
H1225 H 0.77576 0.73699 0.23224 0.0
H1226 H 0.7417 0.77476 0.34504 0.0
H1227 H 0.70611 0.79197 0.31454 0.0
C1228 C 0.8185 0.75197 0.35521 0.0
C1229 C 0.82815 0.72633 0.34214 0.0
C1230 C 0.7971 0.76117 0.33877 0.0
C1231 C 0.78436 0.74452 0.30952 0.0
C1232 C 0.79337 0.7182 0.29776 0.0
C1233 C 0.81509 0.70935 0.31367 0.0
C1234 C 0.73915 0.75744 0.23408 0.0
C1235 C 0.71959 0.77342 0.25658 0.0
C1236 C 0.76033 0.74837 0.25104 0.0
C1237 C 0.7619 0.75445 0.29128 0.0
C1238 C 0.74181 0.77015 0.31381 0.0
C1239 C 0.72119 0.77984 0.29647 0.0
H1240 H 0.57069 0.5409 0.62557 0.0
H1241 H 0.48236 0.55262 0.6258 0.0
H1242 H 0.5688 0.50859 0.56904 0.0
H1243 H 0.47871 0.51798 0.57208 0.0
H1244 H 0.48595 0.4726 0.45382 0.0
H1245 H 0.49037 0.50779 0.50677 0.0
H1246 H 0.55276 0.46454 0.54478 0.0
H1247 H 0.55054 0.43183 0.48895 0.0
C1248 C 0.55062 0.53609 0.61381 0.0
C1249 C 0.52676 0.54935 0.6299 0.0
C1250 C 0.54928 0.51721 0.5815 0.0
C1251 C 0.52349 0.51012 0.5653 0.0
C1252 C 0.49935 0.52313 0.58239 0.0
C1253 C 0.5012 0.54282 0.61374 0.0
C1254 C 0.50077 0.47088 0.4734 0.0
C1255 C 0.51745 0.44904 0.4677 0.0
C1256 C 0.50309 0.49089 0.50435 0.0
C1257 C 0.52168 0.48924 0.53117 0.0
C1258 C 0.53847 0.46727 0.52495 0.0
C1259 C 0.53677 0.44787 0.49328 0.0
H1260 H 0.96494 0.54655 1.03003 0.0
H1261 H 0.0552 0.55714 0.95805 0.0
H1262 H 0.97232 0.50888 0.07213 0.0
H1263 H 0.06274 0.51847 1.00117 0.0
H1264 H 0.07461 0.46979 0.1111 0.0
H1265 H 0.06734 0.50799 0.06895 0.0
H1266 H 0.97688 0.45844 0.07411 0.0
H1267 H 0.98432 0.4198 0.11702 0.0
C1268 C -0.01347 0.54074 1.02284 0.0
C1269 C 0.00939 0.55492 0.98997 0.0
C1270 C -0.00939 0.51874 1.04718 0.0
C1271 C 0.0179 0.50999 1.04011 0.0
C1272 C 0.04128 0.52453 1.00771 0.0
C1273 C 0.03705 0.54669 0.9828 0.0
C1274 C 0.05289 0.46711 0.10384 0.0
C1275 C 0.02989 0.4417 0.11803 0.0
C1276 C 0.04893 0.48899 0.07902 0.0
C1277 C 0.02174 0.4864 0.06727 0.0
C1278 C -0.00181 0.46143 0.08256 0.0
C1279 C 0.00223 0.43932 0.10759 0.0
H1280 H 0.08789 0.13449 0.45037 0.0
H1281 H 0.09279 0.22302 0.40819 0.0
H1282 H 0.10321 0.1539 0.51042 0.0
H1283 H 0.10593 0.24231 0.46987 0.0
H1284 H 0.14907 0.27594 0.57645 0.0
H1285 H 0.13579 0.25756 0.51372 0.0
H1286 H 0.09574 0.17134 0.57225 0.0
H1287 H 0.1104 0.18937 0.63337 0.0
C1288 C 0.09212 0.15818 0.45344 0.0
C1289 C 0.08875 0.17666 0.42286 0.0
C1290 C 0.10058 0.16957 0.48908 0.0
C1291 C 0.1059 0.20019 0.49682 0.0
C1292 C 0.10257 0.21872 0.46621 0.0
C1293 C 0.09437 0.20734 0.43032 0.0
C1294 C 0.13779 0.25292 0.57579 0.0
C1295 C 0.13161 0.23425 0.61061 0.0
C1296 C 0.12973 0.24221 0.53944 0.0
C1297 C 0.11466 0.21234 0.53618 0.0
C1298 C 0.10802 0.19407 0.57159 0.0
C1299 C 0.11643 0.20464 0.60749 0.0
H1300 H 0.15846 0.82283 0.69214 0.0
H1301 H 0.18196 0.91405 0.64885 0.0
H1302 H 0.14944 0.83833 0.761 0.0
H1303 H 0.17436 0.92988 0.7183 0.0
H1304 H 0.08559 0.92331 0.82052 0.0
H1305 H 0.12543 0.92488 0.76107 0.0
H1306 H 0.16032 0.86321 0.82015 0.0
H1307 H 0.11952 0.86142 0.87999 0.0
C1308 C 0.16249 0.84629 0.69747 0.0
C1309 C 0.1699 0.86719 0.66529 0.0
C1310 C 0.15793 0.85527 0.73703 0.0
C1311 C 0.1608 0.8854 0.74523 0.0
C1312 C 0.17157 0.90649 0.71291 0.0
C1313 C 0.17596 0.89744 0.67317 0.0
C1314 C 0.10244 0.91093 0.82126 0.0
C1315 C 0.09917 0.89154 0.85397 0.0
C1316 C 0.12557 0.91207 0.78733 0.0
C1317 C 0.14559 0.89348 0.78543 0.0
C1318 C 0.14478 0.87728 0.82052 0.0
C1319 C 0.12157 0.8763 0.85475 0.0
H1320 H 0.45554 0.82129 1.01905 0.0
H1321 H 0.40658 0.74352 0.97243 0.0
H1322 H 0.47826 0.84166 0.95134 0.0
H1323 H 0.42942 0.76476 0.90325 0.0
H1324 H 0.45177 0.82928 0.7888 0.0
H1325 H 0.43039 0.80549 0.85539 0.0
H1326 H 0.5149 0.83771 0.88838 0.0
H1327 H 0.53685 0.86125 0.82055 0.0
C1328 C 0.44927 0.80829 0.99447 0.0
C1329 C 0.42857 0.7804 1.00246 0.0
C1330 C 0.46282 0.82018 0.95498 0.0
C1331 C 0.45622 0.80521 0.92083 0.0
C1332 C 0.43526 0.77736 0.92838 0.0
C1333 C 0.42198 0.76503 0.96835 0.0
C1334 C 0.46608 0.83171 0.81003 0.0
C1335 C 0.49629 0.8481 0.7985 0.0
C1336 C 0.45365 0.81751 0.8486 0.0
C1337 C 0.4705 0.8193 0.87825 0.0
C1338 C 0.50076 0.83577 0.86699 0.0
C1339 C 0.51349 0.84953 0.82782 0.0
H1340 H 0.33854 0.06197 0.28954 0.0
H1341 H 0.428 0.10856 0.22856 0.0
H1342 H 0.32052 0.06897 0.2288 0.0
H1343 H 0.40978 0.11631 0.16923 0.0
H1344 H 0.36719 0.15656 0.09169 0.0
H1345 H 0.36839 0.14707 0.16145 0.0
H1346 H 0.33797 0.05332 0.14806 0.0
H1347 H 0.33667 0.06287 0.07783 0.0
C1348 C 0.35428 0.0735 0.26319 0.0
C1349 C 0.38449 0.08522 0.26378 0.0
C1350 C 0.34394 0.07762 0.22885 0.0
C1351 C 0.36372 0.09377 0.19532 0.0
C1352 C 0.39406 0.10447 0.19543 0.0
C1353 C 0.40442 0.10006 0.22927 0.0
C1354 C 0.35982 0.13405 0.10418 0.0
C1355 C 0.35248 0.1103 0.07978 0.0
C1356 C 0.36037 0.12867 0.14386 0.0
C1357 C 0.35366 0.09951 0.15933 0.0
C1358 C 0.34309 0.07594 0.13638 0.0
C1359 C 0.34247 0.08136 0.09647 0.0
H1360 H 0.91886 0.81096 0.46828 0.0
H1361 H 0.90495 0.72143 0.51316 0.0
H1362 H 0.93278 0.82945 0.53006 0.0
H1363 H 0.91806 0.73977 0.5758 0.0
H1364 H 0.96442 0.77945 0.67598 0.0
H1365 H 0.95159 0.76085 0.61402 0.0
H1366 H 0.92197 0.83998 0.59627 0.0
H1367 H 0.93686 0.85969 0.65601 0.0
C1368 C 0.91826 0.79502 0.49154 0.0
C1369 C 0.91027 0.76447 0.48497 0.0
C1370 C 0.92626 0.80575 0.52767 0.0
C1371 C 0.92668 0.78652 0.55944 0.0
C1372 C 0.91859 0.75584 0.55279 0.0
C1373 C 0.91061 0.74511 0.51653 0.0
C1374 C 0.95568 0.79351 0.65907 0.0
C1375 C 0.95218 0.82175 0.67303 0.0
C1376 C 0.9477 0.78231 0.62299 0.0
C1377 C 0.93541 0.79846 0.59873 0.0
C1378 C 0.93171 0.8265 0.61269 0.0
C1379 C 0.94002 0.83785 0.64838 0.0
H1380 H 0.89341 0.16923 0.40524 0.0
H1381 H 0.85757 0.07845 0.44914 0.0
H1382 H 0.90023 0.15341 0.33649 0.0
H1383 H 0.86302 0.06254 0.37979 0.0
H1384 H 0.94585 0.05807 0.27174 0.0
H1385 H 0.90912 0.06068 0.33339 0.0
H1386 H 0.88324 0.13144 0.27901 0.0
H1387 H 0.92092 0.12897 0.21715 0.0
C1388 C 0.88644 0.14589 0.40012 0.0
C1389 C 0.87573 0.12502 0.43255 0.0
C1390 C 0.88971 0.13682 0.3606 0.0
C1391 C 0.88222 0.10663 0.35252 0.0
C1392 C 0.8692 0.08594 0.38502 0.0
C1393 C 0.86604 0.09505 0.42472 0.0
C1394 C 0.9312 0.07312 0.27236 0.0
C1395 C 0.9364 0.09373 0.24038 0.0
C1396 C 0.91 0.0746 0.3077 0.0
C1397 C 0.89394 0.09698 0.31157 0.0
C1398 C 0.89587 0.11445 0.27714 0.0
C1399 C 0.91716 0.11288 0.24161 0.0
H1400 H 0.63317 0.24945 0.1259 0.0
H1401 H 0.59699 0.16904 0.07215 0.0
H1402 H 0.60861 0.22616 0.19337 0.0
H1403 H 0.57182 0.14639 0.1389 0.0
H1404 H 0.5073 0.1235 0.26905 0.0
H1405 H 0.5302 0.14746 0.20141 0.0
H1406 H 0.61117 0.18572 0.24025 0.0
H1407 H 0.5891 0.16144 0.30636 0.0
C1408 C 0.62019 0.22683 0.12818 0.0
C1409 C 0.61799 0.21126 0.09267 0.0
C1410 C 0.60587 0.21333 0.16719 0.0
C1411 C 0.58783 0.18401 0.17249 0.0
C1412 C 0.58514 0.16885 0.13689 0.0
C1413 C 0.60008 0.18196 0.09816 0.0
C1414 C 0.53012 0.13665 0.26312 0.0
C1415 C 0.54615 0.13963 0.294 0.0
C1416 C 0.54338 0.15063 0.22405 0.0
C1417 C 0.5729 0.16896 0.2145 0.0
C1418 C 0.58851 0.17223 0.24566 0.0
C1419 C 0.57567 0.15778 0.28402 0.0
H1420 H 0.6995 0.92341 0.80519 0.0
H1421 H 0.60718 0.88668 0.86636 0.0
H1422 H 0.71515 0.91804 0.86832 0.0
H1423 H 0.62307 0.88038 0.92825 0.0
H1424 H 0.66709 0.83488 1.00499 0.0
H1425 H 0.66624 0.84505 0.93528 0.0
H1426 H 0.69193 0.9388 0.95195 0.0
H1427 H 0.69188 0.92889 1.02233 0.0
C1428 C 0.68264 0.91453 0.83212 0.0
C1429 C 0.65226 0.90495 0.83099 0.0
C1430 C 0.69161 0.91133 0.86781 0.0
C1431 C 0.67024 0.8983 0.90213 0.0
C1432 C 0.63982 0.88997 0.90151 0.0
C1433 C 0.63083 0.89349 0.86625 0.0
C1434 C 0.673 0.85764 0.99361 0.0
C1435 C 0.67866 0.88118 1.0191 0.0
C1436 C 0.67289 0.86336 0.95382 0.0
C1437 C 0.6789 0.89261 0.93909 0.0
C1438 C 0.68749 0.91611 0.96315 0.0
C1439 C 0.68734 0.91042 1.00321 0.0
H1440 H 0.58472 0.72094 0.91364 0.0
H1441 H 0.59838 0.63647 0.94549 0.0
H1442 H 0.60018 0.74165 0.97378 0.0
H1443 H 0.61465 0.65712 1.00473 0.0
H1444 H 0.62061 0.69143 0.12837 0.0
H1445 H 0.6048 0.67241 0.06842 0.0
H1446 H 0.63442 0.76017 1.01221 0.0
H1447 H 0.64902 0.77949 0.07393 0.0
C1448 C 0.59123 0.70666 0.93316 0.0
C1449 C 0.58982 0.67664 0.92395 0.0
C1450 C 0.60035 0.71872 0.96811 0.0
C1451 C 0.60883 0.70147 0.99555 0.0
C1452 C 0.60774 0.67152 0.98588 0.0
C1453 C 0.59833 0.65942 0.95125 0.0
C1454 C 0.62414 0.70687 0.10324 0.0
C1455 C 0.63679 0.73719 0.10658 0.0
C1456 C 0.61505 0.69575 0.06811 0.0
C1457 C 0.61842 0.71421 1.03388 0.0
C1458 C 0.63096 0.74474 1.03728 0.0
C1459 C 0.63975 0.75599 0.07291 0.0
H1460 H 0.59724 0.43903 0.3241 0.0
H1461 H 0.6229 0.37005 0.38188 0.0
H1462 H 0.63453 0.43604 0.26331 0.0
H1463 H 0.66122 0.36734 0.32095 0.0
H1464 H 0.6509 0.32599 0.19659 0.0
H1465 H 0.6447 0.34352 0.26446 0.0
H1466 H 0.68014 0.43361 0.21701 0.0
H1467 H 0.68479 0.41598 0.14863 0.0
C1468 C 0.61217 0.42438 0.32443 0.0
C1469 C 0.60683 0.40419 0.35696 0.0
C1470 C 0.63371 0.42268 0.28953 0.0
C1471 C 0.65008 0.40059 0.28674 0.0
C1472 C 0.64828 0.38399 0.3219 0.0
C1473 C 0.62661 0.38574 0.35696 0.0
C1474 C 0.65763 0.34952 0.20061 0.0
C1475 C 0.66752 0.36964 0.1673 0.0
C1476 C 0.65472 0.3596 0.23964 0.0
C1477 C 0.66181 0.39007 0.24631 0.0
C1478 C 0.67423 0.41003 0.21289 0.0
C1479 C 0.67696 0.39991 0.17372 0.0
H1480 H 0.95206 0.35323 0.30243 0.0
H1481 H 0.04001 0.35204 0.31897 0.0
H1482 H 0.92938 0.32933 0.36886 0.0
H1483 H 0.01686 0.32684 0.38572 0.0
H1484 H 0.95759 0.25154 0.486 0.0
H1485 H 0.98226 0.2765 0.41949 0.0
H1486 H 0.9244 0.33758 0.44298 0.0
H1487 H 0.90078 0.31337 0.50966 0.0
C1488 C 0.96686 0.34825 0.32023 0.0
C1489 C -0.00171 0.35503 0.30415 0.0
C1490 C 0.95359 0.33422 0.35884 0.0
C1491 C 0.97085 0.32551 0.38352 0.0
C1492 C 0.00241 0.33268 0.36801 0.0
C1493 C 0.01585 0.34759 0.32955 0.0
C1494 C 0.94963 0.26988 0.47666 0.0
C1495 C 0.92623 0.2796 0.5034 0.0
C1496 C 0.96422 0.28464 0.43849 0.0
C1497 C 0.95567 0.30945 0.42491 0.0
C1498 C 0.93182 0.31862 0.45145 0.0
C1499 C 0.91793 0.30446 0.48994 0.0
H1500 H 0.84021 0.56454 0.78932 0.0
H1501 H 0.93002 0.60881 0.72637 0.0
H1502 H 0.82241 0.56877 0.72761 0.0
H1503 H 0.91189 0.61393 0.666 0.0
H1504 H 0.86362 0.65618 0.59443 0.0
H1505 H 0.86372 0.64475 0.66406 0.0
H1506 H 0.84731 0.55163 0.64079 0.0
H1507 H 0.8475 0.56302 0.57058 0.0
C1508 C 0.8561 0.57485 0.76232 0.0
C1509 C 0.88634 0.58686 0.76265 0.0
C1510 C 0.84588 0.57736 0.72741 0.0
C1511 C 0.86582 0.59211 0.69302 0.0
C1512 C 0.89618 0.60292 0.69279 0.0
C1513 C 0.90644 0.60013 0.72725 0.0
C1514 C 0.85909 0.63323 0.60459 0.0
C1515 C 0.85631 0.61044 0.57737 0.0
C1516 C 0.85889 0.62675 0.64426 0.0
C1517 C 0.8557 0.59744 0.657 0.0
C1518 C 0.84955 0.57434 0.63118 0.0
C1519 C 0.84978 0.58085 0.59126 0.0
H1520 H 0.45054 0.36176 0.14596 0.0
H1521 H 0.45176 0.27449 0.18603 0.0
H1522 H 0.43586 0.34177 0.08577 0.0
H1523 H 0.43883 0.25459 0.12417 0.0
H1524 H 0.39564 0.21947 1.01784 0.0
H1525 H 0.40816 0.23823 0.08077 0.0
H1526 H 0.44514 0.32508 1.02316 0.0
H1527 H 0.43146 0.30651 0.96147 0.0
C1528 C 0.44769 0.33819 0.14242 0.0
C1529 C 0.45253 0.32022 0.17244 0.0
C1530 C 0.43961 0.32651 0.10669 0.0
C1531 C 0.43607 0.29609 0.0983 0.0
C1532 C 0.44083 0.27801 0.12838 0.0
C1533 C 0.44879 0.28971 0.16435 0.0
C1534 C 0.40606 0.24271 1.01868 0.0
C1535 C 0.4118 0.26133 0.98383 0.0
C1536 C 0.41369 0.25363 0.05518 0.0
C1537 C 0.42774 0.28375 0.05874 0.0
C1538 C 0.43372 0.30208 1.02347 0.0
C1539 C 0.42587 0.29124 0.98727 0.0
H1540 H 0.34534 0.64673 0.92317 0.0
H1541 H 0.40589 0.59308 0.9398 0.0
H1542 H 0.35488 0.63676 0.85103 0.0
H1543 H 0.41527 0.58292 0.86841 0.0
H1544 H 0.44411 0.65998 0.73987 0.0
H1545 H 0.40578 0.65671 0.80226 0.0
H1546 H 0.39513 0.56193 0.8084 0.0
H1547 H 0.43379 0.56548 0.74598 0.0
C1548 C 0.35985 0.632 0.91153 0.0
C1549 C 0.37514 0.62079 0.93653 0.0
C1550 C 0.36526 0.62631 0.87047 0.0
C1551 C 0.38562 0.60895 0.85426 0.0
C1552 C 0.399 0.59591 0.88015 0.0
C1553 C 0.39396 0.60195 0.92089 0.0
C1554 C 0.43221 0.63835 0.75338 0.0
C1555 C 0.44159 0.61297 0.73864 0.0
C1556 C 0.41026 0.63641 0.78904 0.0
C1557 C 0.39792 0.60908 0.8104 0.0
C1558 C 0.40451 0.58324 0.79255 0.0
C1559 C 0.42645 0.58521 0.75686 0.0
H1560 H 0.1016 0.66732 0.57516 0.0
H1561 H 0.13525 0.74945 0.62724 0.0
H1562 H 0.0761 0.64547 0.64214 0.0
H1563 H 0.1104 0.72689 0.6951 0.0
H1564 H 0.09132 0.66197 0.80905 0.0
H1565 H 0.11391 0.68597 0.74275 0.0
H1566 H 0.03297 0.64848 0.70345 0.0
H1567 H 0.00951 0.62501 0.77121 0.0
C1568 C 0.10409 0.6808 0.60086 0.0
C1569 C 0.12135 0.71034 0.59488 0.0
C1570 C 0.08896 0.66814 0.63968 0.0
C1571 C 0.09085 0.68404 0.67486 0.0
C1572 C 0.10831 0.71357 0.66915 0.0
C1573 C 0.12279 0.72662 0.62998 0.0
C1574 C 0.07806 0.6584 0.78651 0.0
C1575 C 0.04839 0.64063 0.79627 0.0
C1576 C 0.09117 0.67268 0.74813 0.0
C1577 C 0.07566 0.66948 0.71689 0.0
C1578 C 0.04601 0.65154 0.72625 0.0
C1579 C 0.03246 0.63782 0.76532 0.0
H1580 H 0.18624 0.36454 0.30425 0.0
H1581 H 0.15337 0.44147 0.34679 0.0
H1582 H 0.20068 0.35941 0.3679 0.0
H1583 H 0.16655 0.43589 0.41081 0.0
H1584 H 0.19712 0.42618 0.52066 0.0
H1585 H 0.20364 0.43624 0.44883 0.0
H1586 H 0.17007 0.34314 0.43313 0.0
H1587 H 0.16567 0.33288 0.50405 0.0
C1588 C 0.1826 0.38055 0.32714 0.0
C1589 C 0.16871 0.40329 0.32114 0.0
C1590 C 0.19073 0.37763 0.36344 0.0
C1591 C 0.18456 0.39712 0.39438 0.0
C1592 C 0.17213 0.42084 0.38731 0.0
C1593 C 0.1644 0.42398 0.35083 0.0
C1594 C 0.19193 0.40781 0.50161 0.0
C1595 C 0.18021 0.37884 0.51801 0.0
C1596 C 0.19546 0.4136 0.4606 0.0
C1597 C 0.18699 0.39056 0.43552 0.0
C1598 C 0.17704 0.36137 0.45155 0.0
C1599 C 0.1739 0.35555 0.49237 0.0
loop_
_geom_bond_atom_site_label_1
_geom_bond_atom_site_label_2
_geom_bond_distance
_geom_bond_site_symmetry_2
_ccdc_geom_bond_type
Tb0 C2 2.809 . S
Tb0 O20 2.484 . S
Tb0 O21 2.440 . S
Tb0 O22 2.658 . S
Tb0 O23 2.409 . S
Tb0 O24 2.378 . S
Tb0 O28 2.325 . S
Tb0 O31 2.341 . S
Tb1 C11 2.809 . S
Tb1 O22 2.325 . S
Tb1 O25 2.341 . S
Tb1 O26 2.484 . S
Tb1 O27 2.440 1_455 S
Tb1 O28 2.658 . S
Tb1 O29 2.409 . S
Tb1 O30 2.378 . S
C2 Tb0 2.809 . S
C2 C3 1.514 . S
C2 O20 1.248 . S
C2 O21 1.266 . S
C3 C2 1.514 . S
C3 C4 1.359 . S
C3 C8 1.348 . S
C4 C3 1.359 . S
C4 C5 1.380 . S
C4 H32 0.929 . S
C5 C4 1.380 . S
C5 C6 1.347 . S
C5 H33 0.931 . S
C6 C5 1.347 . S
C6 C7 1.369 . S
C7 C6 1.369 . S
C7 C8 1.408 . S
C7 H34 0.930 . S
C8 C3 1.348 . S
C8 C7 1.408 . S
C8 H35 0.930 . S
C9 O22 1.281 . S
C9 O23 1.254 . S
C10 O24 1.236 . S
C10 O25 1.266 . S
C11 Tb1 2.809 . S
C11 C12 1.514 1_454 S
C11 O26 1.248 . S
C11 O27 1.266 1_455 S
C12 C11 1.514 1_656 S
C12 C13 1.359 . S
C12 C17 1.348 . S
C13 C12 1.359 . S
C13 C14 1.380 . S
C13 H36 0.929 1_655 S
C14 C13 1.380 . S
C14 C15 1.347 . S
C14 H37 0.931 . S
C15 C14 1.347 . S
C15 C16 1.369 . S
C16 C15 1.369 . S
C16 C17 1.408 . S
C16 H38 0.930 . S
C17 C12 1.348 . S
C17 C16 1.408 . S
C17 H39 0.930 . S
C18 O28 1.281 . S
C18 O29 1.254 . S
C19 O30 1.236 . S
C19 O31 1.266 . S
O20 Tb0 2.484 . S
O20 C2 1.248 . S
O21 Tb0 2.440 . S
O21 C2 1.266 . S
O22 Tb0 2.658 . S
O22 Tb1 2.325 . S
O22 C9 1.281 . S
O23 Tb0 2.409 . S
O23 C9 1.254 . S
O24 Tb0 2.378 . S
O24 C10 1.236 . S
O25 Tb1 2.341 . S
O25 C10 1.266 . S
O26 Tb1 2.484 . S
O26 C11 1.248 . S
O27 Tb1 2.440 1_655 S
O27 C11 1.266 1_655 S
O28 Tb0 2.325 . S
O28 Tb1 2.658 . S
O28 C18 1.281 . S
O29 Tb1 2.409 . S
O29 C18 1.254 . S
O30 Tb1 2.378 . S
O30 C19 1.236 . S
O31 Tb0 2.341 . S
O31 C19 1.266 . S
H32 C4 0.929 . S
H33 C5 0.931 . S
H34 C7 0.930 . S
H35 C8 0.930 . S
H36 C13 0.929 1_455 S
H37 C14 0.931 . S
H38 C16 0.930 . S
H39 C17 0.930 . S
Tb40 C42 2.809 . S
Tb40 O60 2.484 . S
Tb40 O61 2.440 . S
Tb40 O62 2.658 . S
Tb40 O63 2.409 . S
Tb40 O64 2.378 . S
Tb40 O68 2.325 . S
Tb40 O71 2.341 . S
Tb41 C51 2.809 . S
Tb41 O62 2.325 . S
Tb41 O65 2.341 . S
Tb41 O66 2.484 . S
Tb41 O67 2.440 . S
Tb41 O68 2.658 . S
Tb41 O69 2.409 . S
Tb41 O70 2.378 . S
C42 Tb40 2.809 . S
C42 C43 1.514 . S
C42 O60 1.248 . S
C42 O61 1.266 . S
C43 C42 1.514 . S
C43 C44 1.359 . S
C43 C48 1.348 . S
C44 C43 1.359 . S
C44 C45 1.380 . S
C44 H72 0.929 . S
C45 C44 1.380 . S
C45 C46 1.347 . S
C45 H73 0.931 . S
C46 C45 1.347 . S
C46 C47 1.369 . S
C47 C46 1.369 . S
C47 C48 1.408 . S
C47 H74 0.930 . S
C48 C43 1.348 . S
C48 C47 1.408 . S
C48 H75 0.930 . S
C49 O62 1.281 . S
C49 O63 1.254 . S
C50 O64 1.236 . S
C50 O65 1.266 . S
C51 Tb41 2.809 . S
C51 C52 1.514 . S
C51 O66 1.248 . S
C51 O67 1.266 . S
C52 C51 1.514 . S
C52 C53 1.359 . S
C52 C57 1.348 . S
C53 C52 1.359 . S
C53 C54 1.380 . S
C53 H76 0.929 . S
C54 C53 1.380 . S
C54 C55 1.347 . S
C54 H77 0.931 . S
C55 C54 1.347 . S
C55 C56 1.369 . S
C56 C55 1.369 . S
C56 C57 1.408 . S
C56 H78 0.930 . S
C57 C52 1.348 . S
C57 C56 1.408 . S
C57 H79 0.930 . S
C58 O68 1.281 . S
C58 O69 1.254 . S
C59 O70 1.236 . S
C59 O71 1.266 . S
O60 Tb40 2.484 . S
O60 C42 1.248 . S
O61 Tb40 2.440 . S
O61 C42 1.266 . S
O62 Tb40 2.658 . S
O62 Tb41 2.325 . S
O62 C49 1.281 . S
O63 Tb40 2.409 . S
O63 C49 1.254 . S
O64 Tb40 2.378 . S
O64 C50 1.236 . S
O65 Tb41 2.341 . S
O65 C50 1.266 . S
O66 Tb41 2.484 . S
O66 C51 1.248 . S
O67 Tb41 2.440 . S
O67 C51 1.266 . S
O68 Tb40 2.325 . S
O68 Tb41 2.658 . S
O68 C58 1.281 . S
O69 Tb41 2.409 . S
O69 C58 1.254 . S
O70 Tb41 2.378 . S
O70 C59 1.236 . S
O71 Tb40 2.341 . S
O71 C59 1.266 . S
H72 C44 0.929 . S
H73 C45 0.931 . S
H74 C47 0.930 . S
H75 C48 0.930 . S
H76 C53 0.929 . S
H77 C54 0.931 . S
H78 C56 0.930 . S
H79 C57 0.930 . S
Tb80 C82 2.809 . S
Tb80 O100 2.484 . S
Tb80 O101 2.440 . S
Tb80 O102 2.658 . S
Tb80 O103 2.409 . S
Tb80 O104 2.378 . S
Tb80 O108 2.325 . S
Tb80 O111 2.341 . S
Tb81 C91 2.809 . S
Tb81 O102 2.325 . S
Tb81 O105 2.341 . S
Tb81 O106 2.484 . S
Tb81 O107 2.440 . S
Tb81 O108 2.658 . S
Tb81 O109 2.409 . S
Tb81 O110 2.378 . S
C82 Tb80 2.809 . S
C82 C83 1.514 . S
C82 O100 1.248 . S
C82 O101 1.266 . S
C83 C82 1.514 . S
C83 C84 1.359 . S
C83 C88 1.348 . S
C84 C83 1.359 . S
C84 C85 1.380 . S
C84 H112 0.929 . S
C85 C84 1.380 . S
C85 C86 1.347 . S
C85 H113 0.931 . S
C86 C85 1.347 . S
C86 C87 1.369 . S
C87 C86 1.369 . S
C87 C88 1.408 . S
C87 H114 0.930 . S
C88 C83 1.348 . S
C88 C87 1.408 . S
C88 H115 0.930 . S
C89 O102 1.281 . S
C89 O103 1.254 . S
C90 O104 1.236 . S
C90 O105 1.266 . S
C91 Tb81 2.809 . S
C91 C92 1.514 . S
C91 O106 1.248 . S
C91 O107 1.266 . S
C92 C91 1.514 . S
C92 C93 1.359 . S
C92 C97 1.348 . S
C93 C92 1.359 . S
C93 C94 1.380 . S
C93 H116 0.929 . S
C94 C93 1.380 . S
C94 C95 1.347 . S
C94 H117 0.931 . S
C95 C94 1.347 . S
C95 C96 1.369 . S
C96 C95 1.369 . S
C96 C97 1.408 . S
C96 H118 0.930 . S
C97 C92 1.348 . S
C97 C96 1.408 . S
C97 H119 0.930 . S
C98 O108 1.281 . S
C98 O109 1.254 . S
C99 O110 1.236 . S
C99 O111 1.266 . S
O100 Tb80 2.484 . S
O100 C82 1.248 . S
O101 Tb80 2.440 . S
O101 C82 1.266 . S
O102 Tb80 2.658 . S
O102 Tb81 2.325 . S
O102 C89 1.281 . S
O103 Tb80 2.409 . S
O103 C89 1.254 . S
O104 Tb80 2.378 . S
O104 C90 1.236 . S
O105 Tb81 2.341 . S
O105 C90 1.266 . S
O106 Tb81 2.484 . S
O106 C91 1.248 . S
O107 Tb81 2.440 . S
O107 C91 1.266 . S
O108 Tb80 2.325 . S
O108 Tb81 2.658 . S
O108 C98 1.281 . S
O109 Tb81 2.409 . S
O109 C98 1.254 . S
O110 Tb81 2.378 . S
O110 C99 1.236 . S
O111 Tb80 2.341 . S
O111 C99 1.266 . S
H112 C84 0.929 . S
H113 C85 0.931 . S
H114 C87 0.930 . S
H115 C88 0.930 . S
H116 C93 0.929 . S
H117 C94 0.931 . S
H118 C96 0.930 . S
H119 C97 0.930 . S
Tb120 C122 2.809 . S
Tb120 O140 2.484 . S
Tb120 O141 2.440 . S
Tb120 O142 2.658 . S
Tb120 O143 2.409 . S
Tb120 O144 2.378 . S
Tb120 O148 2.325 . S
Tb120 O151 2.341 . S
Tb121 C131 2.809 . S
Tb121 O142 2.325 . S
Tb121 O145 2.341 . S
Tb121 O146 2.484 . S
Tb121 O147 2.440 . S
Tb121 O148 2.658 . S
Tb121 O149 2.409 . S
Tb121 O150 2.378 . S
C122 Tb120 2.809 . S
C122 C123 1.514 . S
C122 O140 1.248 . S
C122 O141 1.266 . S
C123 C122 1.514 . S
C123 C124 1.359 . S
C123 C128 1.348 . S
C124 C123 1.359 . S
C124 C125 1.380 1_556 S
C124 H152 0.929 . S
C125 C124 1.380 1_554 S
C125 C126 1.347 . S
C125 H153 0.931 . S
C126 C125 1.347 . S
C126 C127 1.369 . S
C127 C126 1.369 . S
C127 C128 1.408 1_554 S
C127 H154 0.930 . S
C128 C123 1.348 . S
C128 C127 1.408 1_556 S
C128 H155 0.930 . S
C129 O142 1.281 . S
C129 O143 1.254 . S
C130 O144 1.236 . S
C130 O145 1.266 . S
C131 Tb121 2.809 . S
C131 C132 1.514 . S
C131 O146 1.248 . S
C131 O147 1.266 . S
C132 C131 1.514 . S
C132 C133 1.359 . S
C132 C137 1.348 . S
C133 C132 1.359 . S
C133 C134 1.380 . S
C133 H156 0.929 . S
C134 C133 1.380 . S
C134 C135 1.347 . S
C134 H157 0.931 . S
C135 C134 1.347 . S
C135 C136 1.369 . S
C136 C135 1.369 . S
C136 C137 1.408 . S
C136 H158 0.930 . S
C137 C132 1.348 . S
C137 C136 1.408 . S
C137 H159 0.930 . S
C138 O148 1.281 . S
C138 O149 1.254 . S
C139 O150 1.236 . S
C139 O151 1.266 . S
O140 Tb120 2.484 . S
O140 C122 1.248 . S
O141 Tb120 2.440 . S
O141 C122 1.266 . S
O142 Tb120 2.658 . S
O142 Tb121 2.325 . S
O142 C129 1.281 . S
O143 Tb120 2.409 . S
O143 C129 1.254 . S
O144 Tb120 2.378 . S
O144 C130 1.236 . S
O145 Tb121 2.341 . S
O145 C130 1.266 . S
O146 Tb121 2.484 . S
O146 C131 1.248 . S
O147 Tb121 2.440 . S
O147 C131 1.266 . S
O148 Tb120 2.325 . S
O148 Tb121 2.658 . S
O148 C138 1.281 . S
O149 Tb121 2.409 . S
O149 C138 1.254 . S
O150 Tb121 2.378 . S
O150 C139 1.236 . S
O151 Tb120 2.341 . S
O151 C139 1.266 . S
H152 C124 0.929 . S
H153 C125 0.931 . S
H154 C127 0.930 . S
H155 C128 0.930 . S
H156 C133 0.929 . S
H157 C134 0.931 . S
H158 C136 0.930 . S
H159 C137 0.930 . S
Tb160 C162 2.809 . S
Tb160 O180 2.484 . S
Tb160 O181 2.440 . S
Tb160 O182 2.658 . S
Tb160 O183 2.409 . S
Tb160 O184 2.378 . S
Tb160 O188 2.325 . S
Tb160 O191 2.341 . S
Tb161 C171 2.809 . S
Tb161 O182 2.325 1_655 S
Tb161 O185 2.341 . S
Tb161 O186 2.484 . S
Tb161 O187 2.440 . S
Tb161 O188 2.658 1_655 S
Tb161 O189 2.409 . S
Tb161 O190 2.378 1_655 S
C162 Tb160 2.809 . S
C162 C163 1.514 1_556 S
C162 O180 1.248 . S
C162 O181 1.266 . S
C163 C162 1.514 1_554 S
C163 C164 1.359 . S
C163 C168 1.348 . S
C164 C163 1.359 . S
C164 C165 1.380 . S
C164 H192 0.929 . S
C165 C164 1.380 . S
C165 C166 1.347 . S
C165 H193 0.931 . S
C166 C165 1.347 . S
C166 C167 1.369 . S
C167 C166 1.369 . S
C167 C168 1.408 . S
C167 H194 0.930 . S
C168 C163 1.348 . S
C168 C167 1.408 . S
C168 H195 0.930 . S
C169 O182 1.281 . S
C169 O183 1.254 . S
C170 O184 1.236 1_655 S
C170 O185 1.266 . S
C171 Tb161 2.809 . S
C171 C172 1.514 . S
C171 O186 1.248 . S
C171 O187 1.266 . S
C172 C171 1.514 . S
C172 C173 1.359 . S
C172 C177 1.348 . S
C173 C172 1.359 . S
C173 C174 1.380 . S
C173 H196 0.929 . S
C174 C173 1.380 . S
C174 C175 1.347 . S
C174 H197 0.931 . S
C175 C174 1.347 . S
C175 C176 1.369 . S
C176 C175 1.369 . S
C176 C177 1.408 . S
C176 H198 0.930 . S
C177 C172 1.348 . S
C177 C176 1.408 . S
C177 H199 0.930 . S
C178 O188 1.281 . S
C178 O189 1.254 1_455 S
C179 O190 1.236 . S
C179 O191 1.266 . S
O180 Tb160 2.484 . S
O180 C162 1.248 . S
O181 Tb160 2.440 . S
O181 C162 1.266 . S
O182 Tb160 2.658 . S
O182 Tb161 2.325 1_455 S
O182 C169 1.281 . S
O183 Tb160 2.409 . S
O183 C169 1.254 . S
O184 Tb160 2.378 . S
O184 C170 1.236 1_455 S
O185 Tb161 2.341 . S
O185 C170 1.266 . S
O186 Tb161 2.484 . S
O186 C171 1.248 . S
O187 Tb161 2.440 . S
O187 C171 1.266 . S
O188 Tb160 2.325 . S
O188 Tb161 2.658 1_455 S
O188 C178 1.281 . S
O189 Tb161 2.409 . S
O189 C178 1.254 1_655 S
O190 Tb161 2.378 1_455 S
O190 C179 1.236 . S
O191 Tb160 2.341 . S
O191 C179 1.266 . S
H192 C164 0.929 . S
H193 C165 0.931 . S
H194 C167 0.930 . S
H195 C168 0.930 . S
H196 C173 0.929 . S
H197 C174 0.931 . S
H198 C176 0.930 . S
H199 C177 0.930 . S
Tb200 C202 2.809 . S
Tb200 O220 2.484 . S
Tb200 O221 2.440 . S
Tb200 O222 2.658 . S
Tb200 O223 2.409 . S
Tb200 O224 2.378 . S
Tb200 O228 2.325 . S
Tb200 O231 2.341 . S
Tb201 C211 2.809 . S
Tb201 O222 2.325 . S
Tb201 O225 2.341 . S
Tb201 O226 2.484 . S
Tb201 O227 2.440 . S
Tb201 O228 2.658 . S
Tb201 O229 2.409 . S
Tb201 O230 2.378 . S
C202 Tb200 2.809 . S
C202 C203 1.514 . S
C202 O220 1.248 . S
C202 O221 1.266 . S
C203 C202 1.514 . S
C203 C204 1.359 . S
C203 C208 1.348 . S
C204 C203 1.359 . S
C204 C205 1.380 . S
C204 H232 0.929 . S
C205 C204 1.380 . S
C205 C206 1.347 . S
C205 H233 0.931 . S
C206 C205 1.347 . S
C206 C207 1.369 . S
C207 C206 1.369 . S
C207 C208 1.408 . S
C207 H234 0.930 . S
C208 C203 1.348 . S
C208 C207 1.408 . S
C208 H235 0.930 . S
C209 O222 1.281 . S
C209 O223 1.254 . S
C210 O224 1.236 . S
C210 O225 1.266 . S
C211 Tb201 2.809 . S
C211 C212 1.514 1_554 S
C211 O226 1.248 . S
C211 O227 1.266 . S
C212 C211 1.514 1_556 S
C212 C213 1.359 . S
C212 C217 1.348 . S
C213 C212 1.359 . S
C213 C214 1.380 . S
C213 H236 0.929 . S
C214 C213 1.380 . S
C214 C215 1.347 . S
C214 H237 0.931 . S
C215 C214 1.347 . S
C215 C216 1.369 . S
C216 C215 1.369 . S
C216 C217 1.408 . S
C216 H238 0.930 . S
C217 C212 1.348 . S
C217 C216 1.408 . S
C217 H239 0.930 . S
C218 O228 1.281 . S
C218 O229 1.254 . S
C219 O230 1.236 . S
C219 O231 1.266 . S
O220 Tb200 2.484 . S
O220 C202 1.248 . S
O221 Tb200 2.440 . S
O221 C202 1.266 . S
O222 Tb200 2.658 . S
O222 Tb201 2.325 . S
O222 C209 1.281 . S
O223 Tb200 2.409 . S
O223 C209 1.254 . S
O224 Tb200 2.378 . S
O224 C210 1.236 . S
O225 Tb201 2.341 . S
O225 C210 1.266 . S
O226 Tb201 2.484 . S
O226 C211 1.248 . S
O227 Tb201 2.440 . S
O227 C211 1.266 . S
O228 Tb200 2.325 . S
O228 Tb201 2.658 . S
O228 C218 1.281 . S
O229 Tb201 2.409 . S
O229 C218 1.254 . S
O230 Tb201 2.378 . S
O230 C219 1.236 . S
O231 Tb200 2.341 . S
O231 C219 1.266 . S
H232 C204 0.929 . S
H233 C205 0.931 . S
H234 C207 0.930 . S
H235 C208 0.930 . S
H236 C213 0.929 . S
H237 C214 0.931 . S
H238 C216 0.930 . S
H239 C217 0.930 . S
Tb240 C242 2.809 . S
Tb240 O260 2.484 . S
Tb240 O261 2.440 . S
Tb240 O262 2.658 . S
Tb240 O263 2.409 . S
Tb240 O264 2.378 . S
Tb240 O268 2.325 . S
Tb240 O271 2.341 . S
Tb241 C251 2.809 . S
Tb241 O262 2.325 . S
Tb241 O265 2.341 . S
Tb241 O266 2.484 . S
Tb241 O267 2.440 . S
Tb241 O268 2.658 . S
Tb241 O269 2.409 . S
Tb241 O270 2.378 . S
C242 Tb240 2.809 . S
C242 C243 1.514 . S
C242 O260 1.248 . S
C242 O261 1.266 . S
C243 C242 1.514 . S
C243 C244 1.359 . S
C243 C248 1.348 . S
C244 C243 1.359 . S
C244 C245 1.380 . S
C244 H272 0.929 . S
C245 C244 1.380 . S
C245 C246 1.347 . S
C245 H273 0.931 . S
C246 C245 1.347 . S
C246 C247 1.369 . S
C247 C246 1.369 . S
C247 C248 1.408 . S
C247 H274 0.930 . S
C248 C243 1.348 . S
C248 C247 1.408 . S
C248 H275 0.930 . S
C249 O262 1.281 . S
C249 O263 1.254 . S
C250 O264 1.236 . S
C250 O265 1.266 . S
C251 Tb241 2.809 . S
C251 C252 1.514 . S
C251 O266 1.248 . S
C251 O267 1.266 . S
C252 C251 1.514 . S
C252 C253 1.359 . S
C252 C257 1.348 . S
C253 C252 1.359 . S
C253 C254 1.380 . S
C253 H276 0.929 . S
C254 C253 1.380 . S
C254 C255 1.347 . S
C254 H277 0.931 . S
C255 C254 1.347 . S
C255 C256 1.369 . S
C256 C255 1.369 . S
C256 C257 1.408 . S
C256 H278 0.930 . S
C257 C252 1.348 . S
C257 C256 1.408 . S
C257 H279 0.930 . S
C258 O268 1.281 . S
C258 O269 1.254 . S
C259 O270 1.236 . S
C259 O271 1.266 . S
O260 Tb240 2.484 . S
O260 C242 1.248 . S
O261 Tb240 2.440 . S
O261 C242 1.266 . S
O262 Tb240 2.658 . S
O262 Tb241 2.325 . S
O262 C249 1.281 . S
O263 Tb240 2.409 . S
O263 C249 1.254 . S
O264 Tb240 2.378 . S
O264 C250 1.236 . S
O265 Tb241 2.341 . S
O265 C250 1.266 . S
O266 Tb241 2.484 . S
O266 C251 1.248 . S
O267 Tb241 2.440 . S
O267 C251 1.266 . S
O268 Tb240 2.325 . S
O268 Tb241 2.658 . S
O268 C258 1.281 . S
O269 Tb241 2.409 . S
O269 C258 1.254 . S
O270 Tb241 2.378 . S
O270 C259 1.236 . S
O271 Tb240 2.341 . S
O271 C259 1.266 . S
H272 C244 0.929 . S
H273 C245 0.931 . S
H274 C247 0.930 . S
H275 C248 0.930 . S
H276 C253 0.929 . S
H277 C254 0.931 . S
H278 C256 0.930 . S
H279 C257 0.930 . S
Tb280 C282 2.809 . S
Tb280 O300 2.484 . S
Tb280 O301 2.440 . S
Tb280 O302 2.658 . S
Tb280 O303 2.409 . S
Tb280 O304 2.378 . S
Tb280 O308 2.325 . S
Tb280 O311 2.341 . S
Tb281 C291 2.809 . S
Tb281 O302 2.325 . S
Tb281 O305 2.341 . S
Tb281 O306 2.484 . S
Tb281 O307 2.440 . S
Tb281 O308 2.658 . S
Tb281 O309 2.409 . S
Tb281 O310 2.378 . S
C282 Tb280 2.809 . S
C282 C283 1.514 . S
C282 O300 1.248 . S
C282 O301 1.266 . S
C283 C282 1.514 . S
C283 C284 1.359 . S
C283 C288 1.348 . S
C284 C283 1.359 . S
C284 C285 1.380 . S
C284 H312 0.929 . S
C285 C284 1.380 . S
C285 C286 1.347 . S
C285 H313 0.931 . S
C286 C285 1.347 . S
C286 C287 1.369 . S
C287 C286 1.369 . S
C287 C288 1.408 . S
C287 H314 0.930 . S
C288 C283 1.348 . S
C288 C287 1.408 . S
C288 H315 0.930 . S
C289 O302 1.281 . S
C289 O303 1.254 . S
C290 O304 1.236 . S
C290 O305 1.266 . S
C291 Tb281 2.809 . S
C291 C292 1.514 . S
C291 O306 1.248 . S
C291 O307 1.266 . S
C292 C291 1.514 . S
C292 C293 1.359 . S
C292 C297 1.348 . S
C293 C292 1.359 . S
C293 C294 1.380 . S
C293 H316 0.929 . S
C294 C293 1.380 . S
C294 C295 1.347 . S
C294 H317 0.931 . S
C295 C294 1.347 . S
C295 C296 1.369 . S
C296 C295 1.369 . S
C296 C297 1.408 . S
C296 H318 0.930 . S
C297 C292 1.348 . S
C297 C296 1.408 . S
C297 H319 0.930 . S
C298 O308 1.281 . S
C298 O309 1.254 . S
C299 O310 1.236 . S
C299 O311 1.266 . S
O300 Tb280 2.484 . S
O300 C282 1.248 . S
O301 Tb280 2.440 . S
O301 C282 1.266 . S
O302 Tb280 2.658 . S
O302 Tb281 2.325 . S
O302 C289 1.281 . S
O303 Tb280 2.409 . S
O303 C289 1.254 . S
O304 Tb280 2.378 . S
O304 C290 1.236 . S
O305 Tb281 2.341 . S
O305 C290 1.266 . S
O306 Tb281 2.484 . S
O306 C291 1.248 . S
O307 Tb281 2.440 . S
O307 C291 1.266 . S
O308 Tb280 2.325 . S
O308 Tb281 2.658 . S
O308 C298 1.281 . S
O309 Tb281 2.409 . S
O309 C298 1.254 . S
O310 Tb281 2.378 . S
O310 C299 1.236 . S
O311 Tb280 2.341 . S
O311 C299 1.266 . S
H312 C284 0.929 . S
H313 C285 0.931 . S
H314 C287 0.930 . S
H315 C288 0.930 . S
H316 C293 0.929 . S
H317 C294 0.931 . S
H318 C296 0.930 . S
H319 C297 0.930 . S
Tb320 C322 2.809 . S
Tb320 O340 2.484 . S
Tb320 O341 2.440 . S
Tb320 O342 2.658 . S
Tb320 O343 2.409 . S
Tb320 O344 2.378 . S
Tb320 O348 2.325 . S
Tb320 O351 2.341 . S
Tb321 C331 2.809 . S
Tb321 O342 2.325 . S
Tb321 O345 2.341 . S
Tb321 O346 2.484 . S
Tb321 O347 2.440 . S
Tb321 O348 2.658 . S
Tb321 O349 2.409 . S
Tb321 O350 2.378 . S
C322 Tb320 2.809 . S
C322 C323 1.514 . S
C322 O340 1.248 . S
C322 O341 1.266 . S
C323 C322 1.514 . S
C323 C324 1.359 . S
C323 C328 1.348 . S
C324 C323 1.359 . S
C324 C325 1.380 . S
C324 H352 0.929 . S
C325 C324 1.380 . S
C325 C326 1.347 . S
C325 H353 0.931 . S
C326 C325 1.347 . S
C326 C327 1.369 . S
C327 C326 1.369 . S
C327 C328 1.408 . S
C327 H354 0.930 . S
C328 C323 1.348 . S
C328 C327 1.408 . S
C328 H355 0.930 . S
C329 O342 1.281 . S
C329 O343 1.254 . S
C330 O344 1.236 . S
C330 O345 1.266 . S
C331 Tb321 2.809 . S
C331 C332 1.514 . S
C331 O346 1.248 . S
C331 O347 1.266 . S
C332 C331 1.514 . S
C332 C333 1.359 . S
C332 C337 1.348 . S
C333 C332 1.359 . S
C333 C334 1.380 . S
C333 H356 0.929 . S
C334 C333 1.380 . S
C334 C335 1.347 . S
C334 H357 0.931 . S
C335 C334 1.347 . S
C335 C336 1.369 . S
C336 C335 1.369 . S
C336 C337 1.408 . S
C336 H358 0.930 . S
C337 C332 1.348 . S
C337 C336 1.408 . S
C337 H359 0.930 . S
C338 O348 1.281 . S
C338 O349 1.254 . S
C339 O350 1.236 . S
C339 O351 1.266 . S
O340 Tb320 2.484 . S
O340 C322 1.248 . S
O341 Tb320 2.440 . S
O341 C322 1.266 . S
O342 Tb320 2.658 . S
O342 Tb321 2.325 . S
O342 C329 1.281 . S
O343 Tb320 2.409 . S
O343 C329 1.254 . S
O344 Tb320 2.378 . S
O344 C330 1.236 . S
O345 Tb321 2.341 . S
O345 C330 1.266 . S
O346 Tb321 2.484 . S
O346 C331 1.248 . S
O347 Tb321 2.440 . S
O347 C331 1.266 . S
O348 Tb320 2.325 . S
O348 Tb321 2.658 . S
O348 C338 1.281 . S
O349 Tb321 2.409 . S
O349 C338 1.254 . S
O350 Tb321 2.378 . S
O350 C339 1.236 . S
O351 Tb320 2.341 . S
O351 C339 1.266 . S
H352 C324 0.929 . S
H353 C325 0.931 . S
H354 C327 0.930 . S
H355 C328 0.930 . S
H356 C333 0.929 . S
H357 C334 0.931 . S
H358 C336 0.930 . S
H359 C337 0.930 . S
Tb360 C362 2.809 . S
Tb360 O380 2.484 . S
Tb360 O381 2.440 . S
Tb360 O382 2.658 . S
Tb360 O383 2.409 . S
Tb360 O384 2.378 . S
Tb360 O388 2.325 . S
Tb360 O391 2.341 . S
Tb361 C371 2.809 . S
Tb361 O382 2.325 . S
Tb361 O385 2.341 . S
Tb361 O386 2.484 . S
Tb361 O387 2.440 . S
Tb361 O388 2.658 . S
Tb361 O389 2.409 . S
Tb361 O390 2.378 . S
C362 Tb360 2.809 . S
C362 C363 1.514 . S
C362 O380 1.248 . S
C362 O381 1.266 . S
C363 C362 1.514 . S
C363 C364 1.359 . S
C363 C368 1.348 . S
C364 C363 1.359 . S
C364 C365 1.380 . S
C364 H392 0.929 . S
C365 C364 1.380 . S
C365 C366 1.347 . S
C365 H393 0.931 . S
C366 C365 1.347 . S
C366 C367 1.369 . S
C367 C366 1.369 . S
C367 C368 1.408 . S
C367 H394 0.930 . S
C368 C363 1.348 . S
C368 C367 1.408 . S
C368 H395 0.930 . S
C369 O382 1.281 . S
C369 O383 1.254 . S
C370 O384 1.236 . S
C370 O385 1.266 . S
C371 Tb361 2.809 . S
C371 C372 1.514 . S
C371 O386 1.248 . S
C371 O387 1.266 . S
C372 C371 1.514 . S
C372 C373 1.359 . S
C372 C377 1.348 . S
C373 C372 1.359 . S
C373 C374 1.380 1_554 S
C373 H396 0.929 . S
C374 C373 1.380 1_556 S
C374 C375 1.347 . S
C374 H397 0.931 . S
C375 C374 1.347 . S
C375 C376 1.369 . S
C376 C375 1.369 . S
C376 C377 1.408 1_556 S
C376 H398 0.930 . S
C377 C372 1.348 . S
C377 C376 1.408 1_554 S
C377 H399 0.930 . S
C378 O388 1.281 . S
C378 O389 1.254 . S
C379 O390 1.236 . S
C379 O391 1.266 . S
O380 Tb360 2.484 . S
O380 C362 1.248 . S
O381 Tb360 2.440 . S
O381 C362 1.266 . S
O382 Tb360 2.658 . S
O382 Tb361 2.325 . S
O382 C369 1.281 . S
O383 Tb360 2.409 . S
O383 C369 1.254 . S
O384 Tb360 2.378 . S
O384 C370 1.236 . S
O385 Tb361 2.341 . S
O385 C370 1.266 . S
O386 Tb361 2.484 . S
O386 C371 1.248 . S
O387 Tb361 2.440 . S
O387 C371 1.266 . S
O388 Tb360 2.325 . S
O388 Tb361 2.658 . S
O388 C378 1.281 . S
O389 Tb361 2.409 . S
O389 C378 1.254 . S
O390 Tb361 2.378 . S
O390 C379 1.236 . S
O391 Tb360 2.341 . S
O391 C379 1.266 . S
H392 C364 0.929 . S
H393 C365 0.931 . S
H394 C367 0.930 . S
H395 C368 0.930 . S
H396 C373 0.929 . S
H397 C374 0.931 . S
H398 C376 0.930 . S
H399 C377 0.930 . S
Tb400 C402 2.809 . S
Tb400 O420 2.484 . S
Tb400 O421 2.440 . S
Tb400 O422 2.658 . S
Tb400 O423 2.409 . S
Tb400 O424 2.378 . S
Tb400 O428 2.325 . S
Tb400 O431 2.341 . S
Tb401 C411 2.809 . S
Tb401 O422 2.325 . S
Tb401 O425 2.341 . S
Tb401 O426 2.484 . S
Tb401 O427 2.440 . S
Tb401 O428 2.658 . S
Tb401 O429 2.409 . S
Tb401 O430 2.378 . S
C402 Tb400 2.809 . S
C402 C403 1.514 1_556 S
C402 O420 1.248 . S
C402 O421 1.266 . S
C403 C402 1.514 1_554 S
C403 C404 1.359 . S
C403 C408 1.348 . S
C404 C403 1.359 . S
C404 C405 1.380 . S
C404 H432 0.929 . S
C405 C404 1.380 . S
C405 C406 1.347 . S
C405 H433 0.931 . S
C406 C405 1.347 . S
C406 C407 1.369 . S
C407 C406 1.369 . S
C407 C408 1.408 . S
C407 H434 0.930 . S
C408 C403 1.348 . S
C408 C407 1.408 . S
C408 H435 0.930 . S
C409 O422 1.281 . S
C409 O423 1.254 . S
C410 O424 1.236 . S
C410 O425 1.266 . S
C411 Tb401 2.809 . S
C411 C412 1.514 . S
C411 O426 1.248 . S
C411 O427 1.266 . S
C412 C411 1.514 . S
C412 C413 1.359 . S
C412 C417 1.348 . S
C413 C412 1.359 . S
C413 C414 1.380 . S
C413 H436 0.929 . S
C414 C413 1.380 . S
C414 C415 1.347 . S
C414 H437 0.931 . S
C415 C414 1.347 . S
C415 C416 1.369 . S
C416 C415 1.369 . S
C416 C417 1.408 . S
C416 H438 0.930 . S
C417 C412 1.348 . S
C417 C416 1.408 . S
C417 H439 0.930 . S
C418 O428 1.281 . S
C418 O429 1.254 . S
C419 O430 1.236 . S
C419 O431 1.266 . S
O420 Tb400 2.484 . S
O420 C402 1.248 . S
O421 Tb400 2.440 . S
O421 C402 1.266 . S
O422 Tb400 2.658 . S
O422 Tb401 2.325 . S
O422 C409 1.281 . S
O423 Tb400 2.409 . S
O423 C409 1.254 . S
O424 Tb400 2.378 . S
O424 C410 1.236 . S
O425 Tb401 2.341 . S
O425 C410 1.266 . S
O426 Tb401 2.484 . S
O426 C411 1.248 . S
O427 Tb401 2.440 . S
O427 C411 1.266 . S
O428 Tb400 2.325 . S
O428 Tb401 2.658 . S
O428 C418 1.281 . S
O429 Tb401 2.409 . S
O429 C418 1.254 . S
O430 Tb401 2.378 . S
O430 C419 1.236 . S
O431 Tb400 2.341 . S
O431 C419 1.266 . S
H432 C404 0.929 . S
H433 C405 0.931 . S
H434 C407 0.930 . S
H435 C408 0.930 . S
H436 C413 0.929 . S
H437 C414 0.931 . S
H438 C416 0.930 . S
H439 C417 0.930 . S
Tb440 C442 2.809 . S
Tb440 O460 2.484 . S
Tb440 O461 2.440 . S
Tb440 O462 2.658 . S
Tb440 O463 2.409 . S
Tb440 O464 2.378 . S
Tb440 O468 2.325 . S
Tb440 O471 2.341 . S
Tb441 C451 2.809 . S
Tb441 O462 2.325 . S
Tb441 O465 2.341 . S
Tb441 O466 2.484 . S
Tb441 O467 2.440 . S
Tb441 O468 2.658 . S
Tb441 O469 2.409 . S
Tb441 O470 2.378 . S
C442 Tb440 2.809 . S
C442 C443 1.514 . S
C442 O460 1.248 . S
C442 O461 1.266 . S
C443 C442 1.514 . S
C443 C444 1.359 . S
C443 C448 1.348 . S
C444 C443 1.359 . S
C444 C445 1.380 . S
C444 H472 0.929 . S
C445 C444 1.380 . S
C445 C446 1.347 . S
C445 H473 0.931 . S
C446 C445 1.347 . S
C446 C447 1.369 . S
C447 C446 1.369 . S
C447 C448 1.408 . S
C447 H474 0.930 . S
C448 C443 1.348 . S
C448 C447 1.408 . S
C448 H475 0.930 . S
C449 O462 1.281 . S
C449 O463 1.254 . S
C450 O464 1.236 . S
C450 O465 1.266 . S
C451 Tb441 2.809 . S
C451 C452 1.514 . S
C451 O466 1.248 . S
C451 O467 1.266 . S
C452 C451 1.514 . S
C452 C453 1.359 . S
C452 C457 1.348 . S
C453 C452 1.359 . S
C453 C454 1.380 . S
C453 H476 0.929 . S
C454 C453 1.380 . S
C454 C455 1.347 . S
C454 H477 0.931 . S
C455 C454 1.347 . S
C455 C456 1.369 . S
C456 C455 1.369 . S
C456 C457 1.408 . S
C456 H478 0.930 . S
C457 C452 1.348 . S
C457 C456 1.408 . S
C457 H479 0.930 . S
C458 O468 1.281 . S
C458 O469 1.254 . S
C459 O470 1.236 . S
C459 O471 1.266 . S
O460 Tb440 2.484 . S
O460 C442 1.248 . S
O461 Tb440 2.440 . S
O461 C442 1.266 . S
O462 Tb440 2.658 . S
O462 Tb441 2.325 . S
O462 C449 1.281 . S
O463 Tb440 2.409 . S
O463 C449 1.254 . S
O464 Tb440 2.378 . S
O464 C450 1.236 . S
O465 Tb441 2.341 . S
O465 C450 1.266 . S
O466 Tb441 2.484 . S
O466 C451 1.248 . S
O467 Tb441 2.440 . S
O467 C451 1.266 . S
O468 Tb440 2.325 . S
O468 Tb441 2.658 . S
O468 C458 1.281 . S
O469 Tb441 2.409 . S
O469 C458 1.254 . S
O470 Tb441 2.378 . S
O470 C459 1.236 . S
O471 Tb440 2.341 . S
O471 C459 1.266 . S
H472 C444 0.929 . S
H473 C445 0.931 . S
H474 C447 0.930 . S
H475 C448 0.930 . S
H476 C453 0.929 . S
H477 C454 0.931 . S
H478 C456 0.930 . S
H479 C457 0.930 . S
Tb480 C482 2.809 . S
Tb480 O500 2.484 . S
Tb480 O501 2.440 . S
Tb480 O502 2.658 . S
Tb480 O503 2.409 . S
Tb480 O504 2.378 . S
Tb480 O508 2.325 . S
Tb480 O511 2.341 . S
Tb481 C491 2.809 . S
Tb481 O502 2.325 . S
Tb481 O505 2.341 . S
Tb481 O506 2.484 . S
Tb481 O507 2.440 . S
Tb481 O508 2.658 . S
Tb481 O509 2.409 . S
Tb481 O510 2.378 . S
C482 Tb480 2.809 . S
C482 C483 1.514 . S
C482 O500 1.248 . S
C482 O501 1.266 . S
C483 C482 1.514 . S
C483 C484 1.359 . S
C483 C488 1.348 . S
C484 C483 1.359 . S
C484 C485 1.380 . S
C484 H512 0.929 . S
C485 C484 1.380 . S
C485 C486 1.347 . S
C485 H513 0.931 . S
C486 C485 1.347 . S
C486 C487 1.369 . S
C487 C486 1.369 . S
C487 C488 1.408 . S
C487 H514 0.930 . S
C488 C483 1.348 . S
C488 C487 1.408 . S
C488 H515 0.930 . S
C489 O502 1.281 . S
C489 O503 1.254 . S
C490 O504 1.236 . S
C490 O505 1.266 . S
C491 Tb481 2.809 . S
C491 C492 1.514 . S
C491 O506 1.248 . S
C491 O507 1.266 . S
C492 C491 1.514 . S
C492 C493 1.359 . S
C492 C497 1.348 . S
C493 C492 1.359 . S
C493 C494 1.380 . S
C493 H516 0.929 . S
C494 C493 1.380 . S
C494 C495 1.347 . S
C494 H517 0.931 . S
C495 C494 1.347 . S
C495 C496 1.369 . S
C496 C495 1.369 . S
C496 C497 1.408 . S
C496 H518 0.930 . S
C497 C492 1.348 . S
C497 C496 1.408 . S
C497 H519 0.930 . S
C498 O508 1.281 . S
C498 O509 1.254 . S
C499 O510 1.236 . S
C499 O511 1.266 . S
O500 Tb480 2.484 . S
O500 C482 1.248 . S
O501 Tb480 2.440 . S
O501 C482 1.266 . S
O502 Tb480 2.658 . S
O502 Tb481 2.325 . S
O502 C489 1.281 . S
O503 Tb480 2.409 . S
O503 C489 1.254 . S
O504 Tb480 2.378 . S
O504 C490 1.236 . S
O505 Tb481 2.341 . S
O505 C490 1.266 . S
O506 Tb481 2.484 . S
O506 C491 1.248 . S
O507 Tb481 2.440 . S
O507 C491 1.266 . S
O508 Tb480 2.325 . S
O508 Tb481 2.658 . S
O508 C498 1.281 . S
O509 Tb481 2.409 . S
O509 C498 1.254 . S
O510 Tb481 2.378 . S
O510 C499 1.236 . S
O511 Tb480 2.341 . S
O511 C499 1.266 . S
H512 C484 0.929 . S
H513 C485 0.931 . S
H514 C487 0.930 . S
H515 C488 0.930 . S
H516 C493 0.929 . S
H517 C494 0.931 . S
H518 C496 0.930 . S
H519 C497 0.930 . S
Tb520 C522 2.809 . S
Tb520 O540 2.484 . S
Tb520 O541 2.436 1_455 S
Tb520 O542 2.658 . S
Tb520 O543 2.409 . S
Tb520 O544 2.378 . S
Tb520 O548 2.325 . S
Tb520 O551 2.341 . S
Tb521 C531 2.809 . S
Tb521 O542 2.325 . S
Tb521 O545 2.341 . S
Tb521 O546 2.484 . S
Tb521 O547 2.440 . S
Tb521 O548 2.658 . S
Tb521 O549 2.409 . S
Tb521 O550 2.378 . S
C522 Tb520 2.809 . S
C522 C523 1.514 1_454 S
C522 O540 1.248 . S
C522 O541 1.268 1_455 S
C523 C522 1.514 1_656 S
C523 C524 1.359 . S
C523 C528 1.348 . S
C524 C523 1.359 . S
C524 C525 1.380 . S
C524 H552 0.929 1_655 S
C525 C524 1.380 . S
C525 C526 1.347 . S
C525 H553 0.931 . S
C526 C525 1.347 . S
C526 C527 1.369 . S
C527 C526 1.369 . S
C527 C528 1.408 . S
C527 H554 0.930 . S
C528 C523 1.348 . S
C528 C527 1.408 . S
C528 H555 0.930 . S
C529 O542 1.281 . S
C529 O543 1.254 . S
C530 O544 1.236 . S
C530 O545 1.266 . S
C531 Tb521 2.809 . S
C531 C532 1.514 . S
C531 O546 1.248 . S
C531 O547 1.266 . S
C532 C531 1.514 . S
C532 C533 1.359 . S
C532 C537 1.348 . S
C533 C532 1.359 . S
C533 C534 1.380 . S
C533 H556 0.929 . S
C534 C533 1.380 . S
C534 C535 1.347 . S
C534 H557 0.931 . S
C535 C534 1.347 . S
C535 C536 1.369 . S
C536 C535 1.369 . S
C536 C537 1.408 . S
C536 H558 0.930 . S
C537 C532 1.348 . S
C537 C536 1.408 . S
C537 H559 0.930 . S
C538 O548 1.281 . S
C538 O549 1.254 . S
C539 O550 1.236 . S
C539 O551 1.266 . S
O540 Tb520 2.484 . S
O540 C522 1.248 . S
O541 Tb520 2.436 1_655 S
O541 C522 1.268 1_655 S
O542 Tb520 2.658 . S
O542 Tb521 2.325 . S
O542 C529 1.281 . S
O543 Tb520 2.409 . S
O543 C529 1.254 . S
O544 Tb520 2.378 . S
O544 C530 1.236 . S
O545 Tb521 2.341 . S
O545 C530 1.266 . S
O546 Tb521 2.484 . S
O546 C531 1.248 . S
O547 Tb521 2.440 . S
O547 C531 1.266 . S
O548 Tb520 2.325 . S
O548 Tb521 2.658 . S
O548 C538 1.281 . S
O549 Tb521 2.409 . S
O549 C538 1.254 . S
O550 Tb521 2.378 . S
O550 C539 1.236 . S
O551 Tb520 2.341 . S
O551 C539 1.266 . S
H552 C524 0.929 1_455 S
H553 C525 0.931 . S
H554 C527 0.930 . S
H555 C528 0.930 . S
H556 C533 0.929 . S
H557 C534 0.931 . S
H558 C536 0.930 . S
H559 C537 0.930 . S
Tb560 C562 2.809 . S
Tb560 O580 2.484 . S
Tb560 O581 2.440 . S
Tb560 O582 2.658 . S
Tb560 O583 2.409 . S
Tb560 O584 2.378 . S
Tb560 O588 2.325 . S
Tb560 O591 2.341 . S
Tb561 C571 2.809 . S
Tb561 O582 2.325 . S
Tb561 O585 2.341 . S
Tb561 O586 2.484 . S
Tb561 O587 2.440 . S
Tb561 O588 2.658 . S
Tb561 O589 2.409 . S
Tb561 O590 2.378 . S
C562 Tb560 2.809 . S
C562 C563 1.514 . S
C562 O580 1.248 . S
C562 O581 1.266 . S
C563 C562 1.514 . S
C563 C564 1.359 . S
C563 C568 1.348 . S
C564 C563 1.359 . S
C564 C565 1.380 . S
C564 H592 0.929 . S
C565 C564 1.380 . S
C565 C566 1.347 . S
C565 H593 0.931 . S
C566 C565 1.347 . S
C566 C567 1.369 . S
C567 C566 1.369 . S
C567 C568 1.408 . S
C567 H594 0.930 . S
C568 C563 1.348 . S
C568 C567 1.408 . S
C568 H595 0.930 . S
C569 O582 1.281 . S
C569 O583 1.254 . S
C570 O584 1.236 . S
C570 O585 1.266 . S
C571 Tb561 2.809 . S
C571 C572 1.514 . S
C571 O586 1.248 . S
C571 O587 1.266 . S
C572 C571 1.514 . S
C572 C573 1.359 . S
C572 C577 1.348 . S
C573 C572 1.359 . S
C573 C574 1.380 . S
C573 H596 0.929 . S
C574 C573 1.380 . S
C574 C575 1.347 . S
C574 H597 0.931 . S
C575 C574 1.347 . S
C575 C576 1.369 . S
C576 C575 1.369 . S
C576 C577 1.408 . S
C576 H598 0.930 . S
C577 C572 1.348 . S
C577 C576 1.408 . S
C577 H599 0.930 . S
C578 O588 1.281 . S
C578 O589 1.254 . S
C579 O590 1.236 . S
C579 O591 1.266 . S
O580 Tb560 2.484 . S
O580 C562 1.248 . S
O581 Tb560 2.440 . S
O581 C562 1.266 . S
O582 Tb560 2.658 . S
O582 Tb561 2.325 . S
O582 C569 1.281 . S
O583 Tb560 2.409 . S
O583 C569 1.254 . S
O584 Tb560 2.378 . S
O584 C570 1.236 . S
O585 Tb561 2.341 . S
O585 C570 1.266 . S
O586 Tb561 2.484 . S
O586 C571 1.248 . S
O587 Tb561 2.440 . S
O587 C571 1.266 . S
O588 Tb560 2.325 . S
O588 Tb561 2.658 . S
O588 C578 1.281 . S
O589 Tb561 2.409 . S
O589 C578 1.254 . S
O590 Tb561 2.378 . S
O590 C579 1.236 . S
O591 Tb560 2.341 . S
O591 C579 1.266 . S
H592 C564 0.929 . S
H593 C565 0.931 . S
H594 C567 0.930 . S
H595 C568 0.930 . S
H596 C573 0.929 . S
H597 C574 0.931 . S
H598 C576 0.930 . S
H599 C577 0.930 . S
Tb600 C602 2.809 . S
Tb600 O620 2.484 . S
Tb600 O621 2.440 . S
Tb600 O622 2.658 1_655 S
Tb600 O623 2.409 . S
Tb600 O624 2.378 1_655 S
Tb600 O628 2.325 1_655 S
Tb600 O631 2.341 . S
Tb601 C611 2.809 . S
Tb601 O622 2.325 . S
Tb601 O625 2.341 . S
Tb601 O626 2.484 . S
Tb601 O627 2.440 . S
Tb601 O628 2.658 . S
Tb601 O629 2.409 . S
Tb601 O630 2.378 . S
C602 Tb600 2.809 . S
C602 C603 1.514 . S
C602 O620 1.248 . S
C602 O621 1.266 . S
C603 C602 1.514 . S
C603 C604 1.359 . S
C603 C608 1.348 . S
C604 C603 1.359 . S
C604 C605 1.380 . S
C604 H632 0.929 . S
C605 C604 1.380 . S
C605 C606 1.347 . S
C605 H633 0.931 . S
C606 C605 1.347 . S
C606 C607 1.369 . S
C607 C606 1.369 . S
C607 C608 1.408 . S
C607 H634 0.930 . S
C608 C603 1.348 . S
C608 C607 1.408 . S
C608 H635 0.930 . S
C609 O622 1.281 . S
C609 O623 1.254 1_455 S
C610 O624 1.236 . S
C610 O625 1.266 . S
C611 Tb601 2.809 . S
C611 C612 1.514 1_556 S
C611 O626 1.248 . S
C611 O627 1.266 . S
C612 C611 1.514 1_554 S
C612 C613 1.359 . S
C612 C617 1.348 . S
C613 C612 1.359 . S
C613 C614 1.380 . S
C613 H636 0.929 . S
C614 C613 1.380 . S
C614 C615 1.347 . S
C614 H637 0.931 . S
C615 C614 1.347 . S
C615 C616 1.369 . S
C616 C615 1.369 . S
C616 C617 1.408 . S
C616 H638 0.930 . S
C617 C612 1.348 . S
C617 C616 1.408 . S
C617 H639 0.930 . S
C618 O628 1.281 . S
C618 O629 1.254 . S
C619 O630 1.236 1_655 S
C619 O631 1.266 . S
O620 Tb600 2.484 . S
O620 C602 1.248 . S
O621 Tb600 2.440 . S
O621 C602 1.266 . S
O622 Tb600 2.658 1_455 S
O622 Tb601 2.325 . S
O622 C609 1.281 . S
O623 Tb600 2.409 . S
O623 C609 1.254 1_655 S
O624 Tb600 2.378 1_455 S
O624 C610 1.236 . S
O625 Tb601 2.341 . S
O625 C610 1.266 . S
O626 Tb601 2.484 . S
O626 C611 1.248 . S
O627 Tb601 2.440 . S
O627 C611 1.266 . S
O628 Tb600 2.325 1_455 S
O628 Tb601 2.658 . S
O628 C618 1.281 . S
O629 Tb601 2.409 . S
O629 C618 1.254 . S
O630 Tb601 2.378 . S
O630 C619 1.236 1_455 S
O631 Tb600 2.341 . S
O631 C619 1.266 . S
H632 C604 0.929 . S
H633 C605 0.931 . S
H634 C607 0.930 . S
H635 C608 0.930 . S
H636 C613 0.929 . S
H637 C614 0.931 . S
H638 C616 0.930 . S
H639 C617 0.930 . S
H640 C648 0.950 . S
H641 C653 0.950 . S
H642 C650 0.950 . S
H643 C652 0.950 . S
H644 C654 0.950 . S
H645 C656 0.950 . S
H646 C658 0.950 . S
H647 C659 0.950 . S
C648 H640 0.950 . S
C648 C649 1.386 . S
C648 C650 1.391 1_554 S
C649 C648 1.386 . S
C649 C653 1.393 . S
C650 H642 0.950 . S
C650 C648 1.391 1_556 S
C650 C651 1.400 . S
C651 C650 1.400 . S
C651 C652 1.398 . S
C651 C657 1.491 . S
C652 H643 0.950 . S
C652 C651 1.398 . S
C652 C653 1.391 1_556 S
C653 H641 0.950 . S
C653 C649 1.393 . S
C653 C652 1.391 1_554 S
C654 H644 0.950 . S
C654 C655 1.386 . S
C654 C656 1.391 . S
C655 C654 1.386 . S
C655 C659 1.393 . S
C656 H645 0.950 . S
C656 C654 1.391 . S
C656 C657 1.400 . S
C657 C651 1.491 . S
C657 C656 1.400 . S
C657 C658 1.398 . S
C658 H646 0.950 . S
C658 C657 1.398 . S
C658 C659 1.391 . S
C659 H647 0.950 . S
C659 C655 1.393 . S
C659 C658 1.391 . S
H660 C668 0.950 . S
H661 C673 0.950 . S
H662 C670 0.950 . S
H663 C672 0.950 . S
H664 C674 0.950 . S
H665 C676 0.950 . S
H666 C678 0.950 . S
H667 C679 0.950 . S
C668 H660 0.950 . S
C668 C669 1.386 . S
C668 C670 1.391 . S
C669 C668 1.386 . S
C669 C673 1.393 . S
C670 H662 0.950 . S
C670 C668 1.391 . S
C670 C671 1.400 . S
C671 C670 1.400 . S
C671 C672 1.398 . S
C671 C677 1.491 . S
C672 H663 0.950 . S
C672 C671 1.398 . S
C672 C673 1.391 . S
C673 H661 0.950 . S
C673 C669 1.393 . S
C673 C672 1.391 . S
C674 H664 0.950 . S
C674 C675 1.386 . S
C674 C676 1.391 . S
C675 C674 1.386 . S
C675 C679 1.393 . S
C676 H665 0.950 . S
C676 C674 1.391 . S
C676 C677 1.400 . S
C677 C671 1.491 . S
C677 C676 1.400 . S
C677 C678 1.398 . S
C678 H666 0.950 . S
C678 C677 1.398 . S
C678 C679 1.391 . S
C679 H667 0.950 . S
C679 C675 1.393 . S
C679 C678 1.391 . S
H680 C688 0.950 . S
H681 C693 0.950 . S
H682 C690 0.950 . S
H683 C692 0.950 . S
H684 C694 0.950 . S
H685 C696 0.950 . S
H686 C698 0.950 . S
H687 C699 0.950 . S
C688 H680 0.950 . S
C688 C689 1.386 . S
C688 C690 1.391 . S
C689 C688 1.386 . S
C689 C693 1.393 . S
C690 H682 0.950 . S
C690 C688 1.391 . S
C690 C691 1.400 . S
C691 C690 1.400 . S
C691 C692 1.398 . S
C691 C697 1.491 . S
C692 H683 0.950 . S
C692 C691 1.398 . S
C692 C693 1.391 . S
C693 H681 0.950 . S
C693 C689 1.393 . S
C693 C692 1.391 . S
C694 H684 0.950 . S
C694 C695 1.386 . S
C694 C696 1.391 . S
C695 C694 1.386 . S
C695 C699 1.393 . S
C696 H685 0.950 . S
C696 C694 1.391 . S
C696 C697 1.400 . S
C697 C691 1.491 . S
C697 C696 1.400 . S
C697 C698 1.398 . S
C698 H686 0.950 . S
C698 C697 1.398 . S
C698 C699 1.391 . S
C699 H687 0.950 . S
C699 C695 1.393 . S
C699 C698 1.391 . S
H700 C708 0.950 . S
H701 C713 0.950 . S
H702 C710 0.950 . S
H703 C712 0.950 . S
H704 C714 0.950 . S
H705 C716 0.950 . S
H706 C718 0.950 . S
H707 C719 0.950 . S
C708 H700 0.950 . S
C708 C709 1.386 . S
C708 C710 1.391 . S
C709 C708 1.386 . S
C709 C713 1.393 . S
C710 H702 0.950 . S
C710 C708 1.391 . S
C710 C711 1.400 . S
C711 C710 1.400 . S
C711 C712 1.398 . S
C711 C717 1.491 . S
C712 H703 0.950 . S
C712 C711 1.398 . S
C712 C713 1.391 . S
C713 H701 0.950 . S
C713 C709 1.393 . S
C713 C712 1.391 . S
C714 H704 0.950 . S
C714 C715 1.386 . S
C714 C716 1.391 . S
C715 C714 1.386 . S
C715 C719 1.393 . S
C716 H705 0.950 . S
C716 C714 1.391 . S
C716 C717 1.400 . S
C717 C711 1.491 . S
C717 C716 1.400 . S
C717 C718 1.398 . S
C718 H706 0.950 . S
C718 C717 1.398 . S
C718 C719 1.391 . S
C719 H707 0.950 . S
C719 C715 1.393 . S
C719 C718 1.391 . S
H720 C728 0.950 . S
H721 C733 0.950 . S
H722 C730 0.950 . S
H723 C732 0.950 . S
H724 C734 0.950 . S
H725 C736 0.950 . S
H726 C738 0.950 . S
H727 C739 0.950 . S
C728 H720 0.950 . S
C728 C729 1.386 . S
C728 C730 1.391 . S
C729 C728 1.386 . S
C729 C733 1.393 . S
C730 H722 0.950 . S
C730 C728 1.391 . S
C730 C731 1.400 . S
C731 C730 1.400 . S
C731 C732 1.398 . S
C731 C737 1.491 . S
C732 H723 0.950 . S
C732 C731 1.398 . S
C732 C733 1.391 . S
C733 H721 0.950 . S
C733 C729 1.393 . S
C733 C732 1.391 . S
C734 H724 0.950 . S
C734 C735 1.386 1_455 S
C734 C736 1.391 1_456 S
C735 C734 1.386 1_655 S
C735 C739 1.393 . S
C736 H725 0.950 . S
C736 C734 1.391 1_654 S
C736 C737 1.400 . S
C737 C731 1.491 . S
C737 C736 1.400 . S
C737 C738 1.398 . S
C738 H726 0.950 . S
C738 C737 1.398 . S
C738 C739 1.391 1_554 S
C739 H727 0.950 . S
C739 C735 1.393 . S
C739 C738 1.391 1_556 S
H740 C748 0.950 . S
H741 C753 0.950 . S
H742 C750 0.950 . S
H743 C752 0.950 . S
H744 C754 0.950 . S
H745 C756 0.950 . S
H746 C758 0.950 . S
H747 C759 0.950 . S
C748 H740 0.950 . S
C748 C749 1.386 . S
C748 C750 1.391 . S
C749 C748 1.386 . S
C749 C753 1.393 . S
C750 H742 0.950 . S
C750 C748 1.391 . S
C750 C751 1.400 . S
C751 C750 1.400 . S
C751 C752 1.398 . S
C751 C757 1.491 . S
C752 H743 0.950 . S
C752 C751 1.398 . S
C752 C753 1.391 . S
C753 H741 0.950 . S
C753 C749 1.393 . S
C753 C752 1.391 . S
C754 H744 0.950 . S
C754 C755 1.386 . S
C754 C756 1.391 . S
C755 C754 1.386 . S
C755 C759 1.393 . S
C756 H745 0.950 . S
C756 C754 1.391 . S
C756 C757 1.400 . S
C757 C751 1.491 . S
C757 C756 1.400 . S
C757 C758 1.398 . S
C758 H746 0.950 . S
C758 C757 1.398 . S
C758 C759 1.391 . S
C759 H747 0.950 . S
C759 C755 1.393 . S
C759 C758 1.391 . S
H760 C768 0.950 . S
H761 C773 0.950 . S
H762 C770 0.950 . S
H763 C772 0.950 . S
H764 C774 0.950 . S
H765 C776 0.950 . S
H766 C778 0.950 . S
H767 C779 0.950 . S
C768 H760 0.950 . S
C768 C769 1.386 . S
C768 C770 1.391 . S
C769 C768 1.386 . S
C769 C773 1.393 . S
C770 H762 0.950 . S
C770 C768 1.391 . S
C770 C771 1.400 . S
C771 C770 1.400 . S
C771 C772 1.398 . S
C771 C777 1.491 . S
C772 H763 0.950 . S
C772 C771 1.398 . S
C772 C773 1.391 . S
C773 H761 0.950 . S
C773 C769 1.393 . S
C773 C772 1.391 . S
C774 H764 0.950 . S
C774 C775 1.386 . S
C774 C776 1.391 . S
C775 C774 1.386 . S
C775 C779 1.393 . S
C776 H765 0.950 . S
C776 C774 1.391 . S
C776 C777 1.400 . S
C777 C771 1.491 . S
C777 C776 1.400 . S
C777 C778 1.398 . S
C778 H766 0.950 . S
C778 C777 1.398 . S
C778 C779 1.391 . S
C779 H767 0.950 . S
C779 C775 1.393 . S
C779 C778 1.391 . S
H780 C788 0.950 . S
H781 C793 0.950 . S
H782 C790 0.950 . S
H783 C792 0.950 . S
H784 C794 0.950 . S
H785 C796 0.950 . S
H786 C798 0.950 . S
H787 C799 0.950 . S
C788 H780 0.950 . S
C788 C789 1.386 . S
C788 C790 1.391 . S
C789 C788 1.386 . S
C789 C793 1.393 . S
C790 H782 0.950 . S
C790 C788 1.391 . S
C790 C791 1.400 . S
C791 C790 1.400 . S
C791 C792 1.398 . S
C791 C797 1.491 . S
C792 H783 0.950 . S
C792 C791 1.398 . S
C792 C793 1.391 . S
C793 H781 0.950 . S
C793 C789 1.393 . S
C793 C792 1.391 . S
C794 H784 0.950 . S
C794 C795 1.386 . S
C794 C796 1.391 . S
C795 C794 1.386 . S
C795 C799 1.393 . S
C796 H785 0.950 . S
C796 C794 1.391 . S
C796 C797 1.400 . S
C797 C791 1.491 . S
C797 C796 1.400 . S
C797 C798 1.398 . S
C798 H786 0.950 . S
C798 C797 1.398 . S
C798 C799 1.391 . S
C799 H787 0.950 . S
C799 C795 1.393 . S
C799 C798 1.391 . S
H800 C808 0.950 . S
H801 C813 0.950 . S
H802 C810 0.950 . S
H803 C812 0.950 . S
H804 C814 0.950 . S
H805 C816 0.950 . S
H806 C818 0.950 . S
H807 C819 0.950 . S
C808 H800 0.950 . S
C808 C809 1.386 . S
C808 C810 1.391 . S
C809 C808 1.386 . S
C809 C813 1.393 . S
C810 H802 0.950 . S
C810 C808 1.391 . S
C810 C811 1.400 . S
C811 C810 1.400 . S
C811 C812 1.398 . S
C811 C817 1.491 . S
C812 H803 0.950 . S
C812 C811 1.398 . S
C812 C813 1.391 . S
C813 H801 0.950 . S
C813 C809 1.393 . S
C813 C812 1.391 . S
C814 H804 0.950 . S
C814 C815 1.386 . S
C814 C816 1.391 . S
C815 C814 1.386 . S
C815 C819 1.393 . S
C816 H805 0.950 . S
C816 C814 1.391 . S
C816 C817 1.400 . S
C817 C811 1.491 . S
C817 C816 1.400 . S
C817 C818 1.398 . S
C818 H806 0.950 . S
C818 C817 1.398 . S
C818 C819 1.391 . S
C819 H807 0.950 . S
C819 C815 1.393 . S
C819 C818 1.391 . S
H820 C828 0.950 . S
H821 C833 0.950 . S
H822 C830 0.950 . S
H823 C832 0.950 . S
H824 C834 0.950 . S
H825 C836 0.950 . S
H826 C838 0.950 . S
H827 C839 0.950 . S
C828 H820 0.950 . S
C828 C829 1.386 . S
C828 C830 1.391 . S
C829 C828 1.386 . S
C829 C833 1.393 . S
C830 H822 0.950 . S
C830 C828 1.391 . S
C830 C831 1.400 . S
C831 C830 1.400 . S
C831 C832 1.398 . S
C831 C837 1.491 . S
C832 H823 0.950 . S
C832 C831 1.398 . S
C832 C833 1.391 . S
C833 H821 0.950 . S
C833 C829 1.393 . S
C833 C832 1.391 . S
C834 H824 0.950 . S
C834 C835 1.386 . S
C834 C836 1.391 . S
C835 C834 1.386 . S
C835 C839 1.393 . S
C836 H825 0.950 . S
C836 C834 1.391 . S
C836 C837 1.400 . S
C837 C831 1.491 . S
C837 C836 1.400 . S
C837 C838 1.398 . S
C838 H826 0.950 . S
C838 C837 1.398 . S
C838 C839 1.391 . S
C839 H827 0.950 . S
C839 C835 1.393 . S
C839 C838 1.391 . S
H840 C848 0.950 1_455 S
H841 C853 0.950 . S
H842 C850 0.950 . S
H843 C852 0.950 . S
H844 C854 0.950 . S
H845 C856 0.950 . S
H846 C858 0.950 . S
H847 C859 0.950 . S
C848 H840 0.950 1_655 S
C848 C849 1.386 . S
C848 C850 1.391 . S
C849 C848 1.386 . S
C849 C853 1.393 . S
C850 H842 0.950 . S
C850 C848 1.391 . S
C850 C851 1.400 . S
C851 C850 1.400 . S
C851 C852 1.398 . S
C851 C857 1.491 . S
C852 H843 0.950 . S
C852 C851 1.398 . S
C852 C853 1.391 . S
C853 H841 0.950 . S
C853 C849 1.393 . S
C853 C852 1.391 . S
C854 H844 0.950 . S
C854 C855 1.386 . S
C854 C856 1.391 . S
C855 C854 1.386 . S
C855 C859 1.393 . S
C856 H845 0.950 . S
C856 C854 1.391 . S
C856 C857 1.400 . S
C857 C851 1.491 . S
C857 C856 1.400 . S
C857 C858 1.398 . S
C858 H846 0.950 . S
C858 C857 1.398 . S
C858 C859 1.391 . S
C859 H847 0.950 . S
C859 C855 1.393 . S
C859 C858 1.391 . S
H860 C868 0.950 . S
H861 C873 0.950 . S
H862 C870 0.950 . S
H863 C872 0.950 . S
H864 C874 0.950 . S
H865 C876 0.950 . S
H866 C878 0.950 . S
H867 C879 0.950 . S
C868 H860 0.950 . S
C868 C869 1.386 . S
C868 C870 1.391 . S
C869 C868 1.386 . S
C869 C873 1.393 . S
C870 H862 0.950 . S
C870 C868 1.391 . S
C870 C871 1.400 . S
C871 C870 1.400 . S
C871 C872 1.398 . S
C871 C877 1.491 . S
C872 H863 0.950 . S
C872 C871 1.398 . S
C872 C873 1.391 . S
C873 H861 0.950 . S
C873 C869 1.393 . S
C873 C872 1.391 . S
C874 H864 0.950 . S
C874 C875 1.386 . S
C874 C876 1.391 . S
C875 C874 1.386 . S
C875 C879 1.393 . S
C876 H865 0.950 . S
C876 C874 1.391 . S
C876 C877 1.400 . S
C877 C871 1.491 . S
C877 C876 1.400 . S
C877 C878 1.398 . S
C878 H866 0.950 . S
C878 C877 1.398 . S
C878 C879 1.391 . S
C879 H867 0.950 . S
C879 C875 1.393 . S
C879 C878 1.391 . S
H880 C888 0.950 . S
H881 C893 0.950 . S
H882 C890 0.950 . S
H883 C892 0.950 . S
H884 C894 0.950 . S
H885 C896 0.950 . S
H886 C898 0.950 . S
H887 C899 0.950 . S
C888 H880 0.950 . S
C888 C889 1.386 . S
C888 C890 1.391 . S
C889 C888 1.386 . S
C889 C893 1.393 . S
C890 H882 0.950 . S
C890 C888 1.391 . S
C890 C891 1.400 . S
C891 C890 1.400 . S
C891 C892 1.398 . S
C891 C897 1.491 . S
C892 H883 0.950 . S
C892 C891 1.398 . S
C892 C893 1.391 . S
C893 H881 0.950 . S
C893 C889 1.393 . S
C893 C892 1.391 . S
C894 H884 0.950 . S
C894 C895 1.386 . S
C894 C896 1.391 . S
C895 C894 1.386 . S
C895 C899 1.393 . S
C896 H885 0.950 . S
C896 C894 1.391 . S
C896 C897 1.400 . S
C897 C891 1.491 . S
C897 C896 1.400 . S
C897 C898 1.398 . S
C898 H886 0.950 . S
C898 C897 1.398 . S
C898 C899 1.391 . S
C899 H887 0.950 . S
C899 C895 1.393 . S
C899 C898 1.391 . S
H900 C908 0.950 . S
H901 C913 0.950 . S
H902 C910 0.950 . S
H903 C912 0.950 . S
H904 C914 0.950 . S
H905 C916 0.950 . S
H906 C918 0.950 . S
H907 C919 0.950 . S
C908 H900 0.950 . S
C908 C909 1.386 . S
C908 C910 1.391 . S
C909 C908 1.386 . S
C909 C913 1.393 . S
C910 H902 0.950 . S
C910 C908 1.391 . S
C910 C911 1.400 . S
C911 C910 1.400 . S
C911 C912 1.398 . S
C911 C917 1.491 . S
C912 H903 0.950 . S
C912 C911 1.398 . S
C912 C913 1.391 . S
C913 H901 0.950 . S
C913 C909 1.393 . S
C913 C912 1.391 . S
C914 H904 0.950 . S
C914 C915 1.386 . S
C914 C916 1.391 . S
C915 C914 1.386 . S
C915 C919 1.393 . S
C916 H905 0.950 . S
C916 C914 1.391 . S
C916 C917 1.400 . S
C917 C911 1.491 . S
C917 C916 1.400 . S
C917 C918 1.398 . S
C918 H906 0.950 . S
C918 C917 1.398 . S
C918 C919 1.391 . S
C919 H907 0.950 . S
C919 C915 1.393 . S
C919 C918 1.391 . S
H920 C928 0.950 . S
H921 C933 0.950 . S
H922 C930 0.950 . S
H923 C932 0.950 . S
H924 C934 0.950 . S
H925 C936 0.950 . S
H926 C938 0.950 . S
H927 C939 0.950 . S
C928 H920 0.950 . S
C928 C929 1.386 . S
C928 C930 1.391 . S
C929 C928 1.386 . S
C929 C933 1.393 . S
C930 H922 0.950 . S
C930 C928 1.391 . S
C930 C931 1.400 . S
C931 C930 1.400 . S
C931 C932 1.398 . S
C931 C937 1.491 . S
C932 H923 0.950 . S
C932 C931 1.398 . S
C932 C933 1.391 . S
C933 H921 0.950 . S
C933 C929 1.393 . S
C933 C932 1.391 . S
C934 H924 0.950 . S
C934 C935 1.386 . S
C934 C936 1.391 . S
C935 C934 1.386 . S
C935 C939 1.393 . S
C936 H925 0.950 . S
C936 C934 1.391 . S
C936 C937 1.400 . S
C937 C931 1.491 . S
C937 C936 1.400 . S
C937 C938 1.398 . S
C938 H926 0.950 . S
C938 C937 1.398 . S
C938 C939 1.391 . S
C939 H927 0.950 . S
C939 C935 1.393 . S
C939 C938 1.391 . S
H940 C948 0.950 . S
H941 C953 0.950 . S
H942 C950 0.950 . S
H943 C952 0.950 . S
H944 C954 0.950 . S
H945 C956 0.950 . S
H946 C958 0.950 . S
H947 C959 0.950 . S
C948 H940 0.950 . S
C948 C949 1.386 . S
C948 C950 1.391 . S
C949 C948 1.386 . S
C949 C953 1.393 . S
C950 H942 0.950 . S
C950 C948 1.391 . S
C950 C951 1.400 . S
C951 C950 1.400 . S
C951 C952 1.398 . S
C951 C957 1.491 . S
C952 H943 0.950 . S
C952 C951 1.398 . S
C952 C953 1.391 . S
C953 H941 0.950 . S
C953 C949 1.393 . S
C953 C952 1.391 . S
C954 H944 0.950 . S
C954 C955 1.386 . S
C954 C956 1.391 . S
C955 C954 1.386 . S
C955 C959 1.393 . S
C956 H945 0.950 . S
C956 C954 1.391 . S
C956 C957 1.400 . S
C957 C951 1.491 . S
C957 C956 1.400 . S
C957 C958 1.398 . S
C958 H946 0.950 . S
C958 C957 1.398 . S
C958 C959 1.391 . S
C959 H947 0.950 . S
C959 C955 1.393 . S
C959 C958 1.391 . S
H960 C968 0.950 . S
H961 C973 0.950 . S
H962 C970 0.950 . S
H963 C972 0.950 . S
H964 C974 0.950 . S
H965 C976 0.950 . S
H966 C978 0.950 . S
H967 C979 0.950 . S
C968 H960 0.950 . S
C968 C969 1.386 . S
C968 C970 1.391 . S
C969 C968 1.386 . S
C969 C973 1.393 . S
C970 H962 0.950 . S
C970 C968 1.391 . S
C970 C971 1.400 . S
C971 C970 1.400 . S
C971 C972 1.398 . S
C971 C977 1.491 . S
C972 H963 0.950 . S
C972 C971 1.398 . S
C972 C973 1.391 . S
C973 H961 0.950 . S
C973 C969 1.393 . S
C973 C972 1.391 . S
C974 H964 0.950 . S
C974 C975 1.386 . S
C974 C976 1.391 . S
C975 C974 1.386 . S
C975 C979 1.393 . S
C976 H965 0.950 . S
C976 C974 1.391 . S
C976 C977 1.400 . S
C977 C971 1.491 . S
C977 C976 1.400 . S
C977 C978 1.398 . S
C978 H966 0.950 . S
C978 C977 1.398 . S
C978 C979 1.391 . S
C979 H967 0.950 . S
C979 C975 1.393 . S
C979 C978 1.391 . S
H980 C988 0.950 . S
H981 C993 0.950 . S
H982 C990 0.950 . S
H983 C992 0.950 . S
H984 C994 0.950 . S
H985 C996 0.950 . S
H986 C998 0.950 . S
H987 C999 0.950 . S
C988 H980 0.950 . S
C988 C989 1.386 . S
C988 C990 1.391 1_655 S
C989 C988 1.386 . S
C989 C993 1.393 . S
C990 H982 0.950 . S
C990 C988 1.391 1_455 S
C990 C991 1.400 . S
C991 C990 1.400 . S
C991 C992 1.398 1_455 S
C991 C997 1.491 . S
C992 H983 0.950 . S
C992 C991 1.398 1_655 S
C992 C993 1.391 . S
C993 H981 0.950 . S
C993 C989 1.393 . S
C993 C992 1.391 . S
C994 H984 0.950 . S
C994 C995 1.386 . S
C994 C996 1.391 . S
C995 C994 1.386 . S
C995 C999 1.393 . S
C996 H985 0.950 . S
C996 C994 1.391 . S
C996 C997 1.400 . S
C997 C991 1.491 . S
C997 C996 1.400 . S
C997 C998 1.398 . S
C998 H986 0.950 . S
C998 C997 1.398 . S
C998 C999 1.391 . S
C999 H987 0.950 . S
C999 C995 1.393 . S
C999 C998 1.391 . S
H1000 C1008 0.950 . S
H1001 C1013 0.950 . S
H1002 C1010 0.950 . S
H1003 C1012 0.950 . S
H1004 C1014 0.950 . S
H1005 C1016 0.950 . S
H1006 C1018 0.950 . S
H1007 C1019 0.950 . S
C1008 H1000 0.950 . S
C1008 C1009 1.386 . S
C1008 C1010 1.391 . S
C1009 C1008 1.386 . S
C1009 C1013 1.393 . S
C1010 H1002 0.950 . S
C1010 C1008 1.391 . S
C1010 C1011 1.400 . S
C1011 C1010 1.400 . S
C1011 C1012 1.398 . S
C1011 C1017 1.491 . S
C1012 H1003 0.950 . S
C1012 C1011 1.398 . S
C1012 C1013 1.391 . S
C1013 H1001 0.950 . S
C1013 C1009 1.393 . S
C1013 C1012 1.391 . S
C1014 H1004 0.950 . S
C1014 C1015 1.386 . S
C1014 C1016 1.391 . S
C1015 C1014 1.386 . S
C1015 C1019 1.393 . S
C1016 H1005 0.950 . S
C1016 C1014 1.391 . S
C1016 C1017 1.400 . S
C1017 C1011 1.491 . S
C1017 C1016 1.400 . S
C1017 C1018 1.398 . S
C1018 H1006 0.950 . S
C1018 C1017 1.398 . S
C1018 C1019 1.391 . S
C1019 H1007 0.950 . S
C1019 C1015 1.393 . S
C1019 C1018 1.391 . S
H1020 C1028 0.950 . S
H1021 C1033 0.950 . S
H1022 C1030 0.950 . S
H1023 C1032 0.950 . S
H1024 C1034 0.950 . S
H1025 C1036 0.950 . S
H1026 C1038 0.950 . S
H1027 C1039 0.950 . S
C1028 H1020 0.950 . S
C1028 C1029 1.386 . S
C1028 C1030 1.391 . S
C1029 C1028 1.386 . S
C1029 C1033 1.393 . S
C1030 H1022 0.950 . S
C1030 C1028 1.391 . S
C1030 C1031 1.400 . S
C1031 C1030 1.400 . S
C1031 C1032 1.398 . S
C1031 C1037 1.491 . S
C1032 H1023 0.950 . S
C1032 C1031 1.398 . S
C1032 C1033 1.391 . S
C1033 H1021 0.950 . S
C1033 C1029 1.393 . S
C1033 C1032 1.391 . S
C1034 H1024 0.950 . S
C1034 C1035 1.386 . S
C1034 C1036 1.391 . S
C1035 C1034 1.386 . S
C1035 C1039 1.393 . S
C1036 H1025 0.950 . S
C1036 C1034 1.391 . S
C1036 C1037 1.400 . S
C1037 C1031 1.491 . S
C1037 C1036 1.400 . S
C1037 C1038 1.398 . S
C1038 H1026 0.950 . S
C1038 C1037 1.398 . S
C1038 C1039 1.391 . S
C1039 H1027 0.950 . S
C1039 C1035 1.393 . S
C1039 C1038 1.391 . S
H1040 C1048 0.950 . S
H1041 C1053 0.950 . S
H1042 C1050 0.950 . S
H1043 C1052 0.950 . S
H1044 C1054 0.949 . S
H1045 C1056 0.954 . S
H1046 C1058 0.950 . S
H1047 C1059 0.950 . S
C1048 H1040 0.950 . S
C1048 C1049 1.386 . S
C1048 C1050 1.391 . S
C1049 C1048 1.386 . S
C1049 C1053 1.393 1_455 S
C1050 H1042 0.950 . S
C1050 C1048 1.391 . S
C1050 C1051 1.400 . S
C1051 C1050 1.400 . S
C1051 C1052 1.398 1_455 S
C1051 C1057 1.491 . S
C1052 H1043 0.950 . S
C1052 C1051 1.398 1_655 S
C1052 C1053 1.391 . S
C1053 H1041 0.950 . S
C1053 C1049 1.393 1_655 S
C1053 C1052 1.391 . S
C1054 H1044 0.949 . S
C1054 C1055 1.386 1_655 S
C1054 C1056 1.390 . S
C1055 C1054 1.386 1_455 S
C1055 C1059 1.393 . S
C1056 H1045 0.954 . S
C1056 C1054 1.390 . S
C1056 C1057 1.398 1_655 S
C1057 C1051 1.491 . S
C1057 C1056 1.398 1_455 S
C1057 C1058 1.398 . S
C1058 H1046 0.950 . S
C1058 C1057 1.398 . S
C1058 C1059 1.391 . S
C1059 H1047 0.950 . S
C1059 C1055 1.393 . S
C1059 C1058 1.391 . S
H1060 C1068 0.950 . S
H1061 C1073 0.950 . S
H1062 C1070 0.950 . S
H1063 C1072 0.950 . S
H1064 C1074 0.950 . S
H1065 C1076 0.950 . S
H1066 C1078 0.950 . S
H1067 C1079 0.950 . S
C1068 H1060 0.950 . S
C1068 C1069 1.386 . S
C1068 C1070 1.391 . S
C1069 C1068 1.386 . S
C1069 C1073 1.393 . S
C1070 H1062 0.950 . S
C1070 C1068 1.391 . S
C1070 C1071 1.400 . S
C1071 C1070 1.400 . S
C1071 C1072 1.398 . S
C1071 C1077 1.491 . S
C1072 H1063 0.950 . S
C1072 C1071 1.398 . S
C1072 C1073 1.391 . S
C1073 H1061 0.950 . S
C1073 C1069 1.393 . S
C1073 C1072 1.391 . S
C1074 H1064 0.950 . S
C1074 C1075 1.386 . S
C1074 C1076 1.391 . S
C1075 C1074 1.386 . S
C1075 C1079 1.393 . S
C1076 H1065 0.950 . S
C1076 C1074 1.391 . S
C1076 C1077 1.400 . S
C1077 C1071 1.491 . S
C1077 C1076 1.400 . S
C1077 C1078 1.398 . S
C1078 H1066 0.950 . S
C1078 C1077 1.398 . S
C1078 C1079 1.391 . S
C1079 H1067 0.950 . S
C1079 C1075 1.393 . S
C1079 C1078 1.391 . S
H1080 C1088 0.950 . S
H1081 C1093 0.950 . S
H1082 C1090 0.950 . S
H1083 C1092 0.950 . S
H1084 C1094 0.950 . S
H1085 C1096 0.950 . S
H1086 C1098 0.950 . S
H1087 C1099 0.950 . S
C1088 H1080 0.950 . S
C1088 C1089 1.386 . S
C1088 C1090 1.391 . S
C1089 C1088 1.386 . S
C1089 C1093 1.393 . S
C1090 H1082 0.950 . S
C1090 C1088 1.391 . S
C1090 C1091 1.400 . S
C1091 C1090 1.400 . S
C1091 C1092 1.398 . S
C1091 C1097 1.491 . S
C1092 H1083 0.950 . S
C1092 C1091 1.398 . S
C1092 C1093 1.391 . S
C1093 H1081 0.950 . S
C1093 C1089 1.393 . S
C1093 C1092 1.391 . S
C1094 H1084 0.950 . S
C1094 C1095 1.386 . S
C1094 C1096 1.391 . S
C1095 C1094 1.386 . S
C1095 C1099 1.393 . S
C1096 H1085 0.950 . S
C1096 C1094 1.391 . S
C1096 C1097 1.400 . S
C1097 C1091 1.491 . S
C1097 C1096 1.400 . S
C1097 C1098 1.398 . S
C1098 H1086 0.950 . S
C1098 C1097 1.398 . S
C1098 C1099 1.391 . S
C1099 H1087 0.950 . S
C1099 C1095 1.393 . S
C1099 C1098 1.391 . S
H1100 C1108 0.950 . S
H1101 C1113 0.950 . S
H1102 C1110 0.950 . S
H1103 C1112 0.950 . S
H1104 C1114 0.950 . S
H1105 C1116 0.950 . S
H1106 C1118 0.950 . S
H1107 C1119 0.950 . S
C1108 H1100 0.950 . S
C1108 C1109 1.386 . S
C1108 C1110 1.391 . S
C1109 C1108 1.386 . S
C1109 C1113 1.393 . S
C1110 H1102 0.950 . S
C1110 C1108 1.391 . S
C1110 C1111 1.400 . S
C1111 C1110 1.400 . S
C1111 C1112 1.398 . S
C1111 C1117 1.491 . S
C1112 H1103 0.950 . S
C1112 C1111 1.398 . S
C1112 C1113 1.391 . S
C1113 H1101 0.950 . S
C1113 C1109 1.393 . S
C1113 C1112 1.391 . S
C1114 H1104 0.950 . S
C1114 C1115 1.386 . S
C1114 C1116 1.391 1_655 S
C1115 C1114 1.386 . S
C1115 C1119 1.393 . S
C1116 H1105 0.950 . S
C1116 C1114 1.391 1_455 S
C1116 C1117 1.400 . S
C1117 C1111 1.491 . S
C1117 C1116 1.400 . S
C1117 C1118 1.398 . S
C1118 H1106 0.950 . S
C1118 C1117 1.398 . S
C1118 C1119 1.391 1_455 S
C1119 H1107 0.950 . S
C1119 C1115 1.393 . S
C1119 C1118 1.391 1_655 S
H1120 C1128 0.950 . S
H1121 C1133 0.950 . S
H1122 C1130 0.950 1_655 S
H1123 C1132 0.950 . S
H1124 C1134 0.950 . S
H1125 C1136 0.950 . S
H1126 C1138 0.950 1_655 S
H1127 C1139 0.950 1_655 S
C1128 H1120 0.950 . S
C1128 C1129 1.386 . S
C1128 C1130 1.391 . S
C1129 C1128 1.386 . S
C1129 C1133 1.393 . S
C1130 H1122 0.950 1_455 S
C1130 C1128 1.391 . S
C1130 C1131 1.400 . S
C1131 C1130 1.400 . S
C1131 C1132 1.398 . S
C1131 C1137 1.491 1_544 S
C1132 H1123 0.950 . S
C1132 C1131 1.398 . S
C1132 C1133 1.391 . S
C1133 H1121 0.950 . S
C1133 C1129 1.393 . S
C1133 C1132 1.391 . S
C1134 H1124 0.950 . S
C1134 C1135 1.386 . S
C1134 C1136 1.391 . S
C1135 C1134 1.386 . S
C1135 C1139 1.393 . S
C1136 H1125 0.950 . S
C1136 C1134 1.391 . S
C1136 C1137 1.400 . S
C1137 C1131 1.491 1_566 S
C1137 C1136 1.400 . S
C1137 C1138 1.398 . S
C1138 H1126 0.950 1_455 S
C1138 C1137 1.398 . S
C1138 C1139 1.391 . S
C1139 H1127 0.950 1_455 S
C1139 C1135 1.393 . S
C1139 C1138 1.391 . S
H1140 C1148 0.950 . S
H1141 C1153 0.950 . S
H1142 C1150 0.950 . S
H1143 C1152 0.950 . S
H1144 C1154 0.950 . S
H1145 C1156 0.950 . S
H1146 C1158 0.950 . S
H1147 C1159 0.950 . S
C1148 H1140 0.950 . S
C1148 C1149 1.386 . S
C1148 C1150 1.391 . S
C1149 C1148 1.386 . S
C1149 C1153 1.393 . S
C1150 H1142 0.950 . S
C1150 C1148 1.391 . S
C1150 C1151 1.400 . S
C1151 C1150 1.400 . S
C1151 C1152 1.398 . S
C1151 C1157 1.491 . S
C1152 H1143 0.950 . S
C1152 C1151 1.398 . S
C1152 C1153 1.391 . S
C1153 H1141 0.950 . S
C1153 C1149 1.393 . S
C1153 C1152 1.391 . S
C1154 H1144 0.950 . S
C1154 C1155 1.386 . S
C1154 C1156 1.391 . S
C1155 C1154 1.386 . S
C1155 C1159 1.393 . S
C1156 H1145 0.950 . S
C1156 C1154 1.391 . S
C1156 C1157 1.400 . S
C1157 C1151 1.491 . S
C1157 C1156 1.400 . S
C1157 C1158 1.398 . S
C1158 H1146 0.950 . S
C1158 C1157 1.398 . S
C1158 C1159 1.391 . S
C1159 H1147 0.950 . S
C1159 C1155 1.393 . S
C1159 C1158 1.391 . S
H1160 C1168 0.950 . S
H1161 C1173 0.950 . S
H1162 C1170 0.950 . S
H1163 C1172 0.950 . S
H1164 C1174 0.950 . S
H1165 C1176 0.950 . S
H1166 C1178 0.950 . S
H1167 C1179 0.950 . S
C1168 H1160 0.950 . S
C1168 C1169 1.386 . S
C1168 C1170 1.391 1_545 S
C1169 C1168 1.386 . S
C1169 C1173 1.393 . S
C1170 H1162 0.950 . S
C1170 C1168 1.391 1_565 S
C1170 C1171 1.400 1_565 S
C1171 C1170 1.400 1_545 S
C1171 C1172 1.398 . S
C1171 C1177 1.491 1_545 S
C1172 H1163 0.950 . S
C1172 C1171 1.398 . S
C1172 C1173 1.391 . S
C1173 H1161 0.950 . S
C1173 C1169 1.393 . S
C1173 C1172 1.391 . S
C1174 H1164 0.950 . S
C1174 C1175 1.386 . S
C1174 C1176 1.391 1_565 S
C1175 C1174 1.386 . S
C1175 C1179 1.393 . S
C1176 H1165 0.950 . S
C1176 C1174 1.391 1_545 S
C1176 C1177 1.400 1_545 S
C1177 C1171 1.491 1_565 S
C1177 C1176 1.400 1_565 S
C1177 C1178 1.398 . S
C1178 H1166 0.950 . S
C1178 C1177 1.398 . S
C1178 C1179 1.391 . S
C1179 H1167 0.950 . S
C1179 C1175 1.393 . S
C1179 C1178 1.391 . S
H1180 C1188 0.950 . S
H1181 C1193 0.950 . S
H1182 C1190 0.950 . S
H1183 C1192 0.950 . S
H1184 C1194 0.950 . S
H1185 C1196 0.950 . S
H1186 C1198 0.950 . S
H1187 C1199 0.950 . S
C1188 H1180 0.950 . S
C1188 C1189 1.386 . S
C1188 C1190 1.391 . S
C1189 C1188 1.386 . S
C1189 C1193 1.393 . S
C1190 H1182 0.950 . S
C1190 C1188 1.391 . S
C1190 C1191 1.400 . S
C1191 C1190 1.400 . S
C1191 C1192 1.398 . S
C1191 C1197 1.491 . S
C1192 H1183 0.950 . S
C1192 C1191 1.398 . S
C1192 C1193 1.391 . S
C1193 H1181 0.950 . S
C1193 C1189 1.393 . S
C1193 C1192 1.391 . S
C1194 H1184 0.950 . S
C1194 C1195 1.386 . S
C1194 C1196 1.391 . S
C1195 C1194 1.386 . S
C1195 C1199 1.393 . S
C1196 H1185 0.950 . S
C1196 C1194 1.391 . S
C1196 C1197 1.400 . S
C1197 C1191 1.491 . S
C1197 C1196 1.400 . S
C1197 C1198 1.398 . S
C1198 H1186 0.950 . S
C1198 C1197 1.398 . S
C1198 C1199 1.391 . S
C1199 H1187 0.950 . S
C1199 C1195 1.393 . S
C1199 C1198 1.391 . S
H1200 C1208 0.950 . S
H1201 C1213 0.950 . S
H1202 C1210 0.950 . S
H1203 C1212 0.950 . S
H1204 C1214 0.950 . S
H1205 C1216 0.950 . S
H1206 C1218 0.950 . S
H1207 C1219 0.950 . S
C1208 H1200 0.950 . S
C1208 C1209 1.386 . S
C1208 C1210 1.391 . S
C1209 C1208 1.386 . S
C1209 C1213 1.393 . S
C1210 H1202 0.950 . S
C1210 C1208 1.391 . S
C1210 C1211 1.400 . S
C1211 C1210 1.400 . S
C1211 C1212 1.398 . S
C1211 C1217 1.491 . S
C1212 H1203 0.950 . S
C1212 C1211 1.398 . S
C1212 C1213 1.391 . S
C1213 H1201 0.950 . S
C1213 C1209 1.393 . S
C1213 C1212 1.391 . S
C1214 H1204 0.950 . S
C1214 C1215 1.386 . S
C1214 C1216 1.391 . S
C1215 C1214 1.386 . S
C1215 C1219 1.393 . S
C1216 H1205 0.950 . S
C1216 C1214 1.391 . S
C1216 C1217 1.400 . S
C1217 C1211 1.491 . S
C1217 C1216 1.400 . S
C1217 C1218 1.398 . S
C1218 H1206 0.950 . S
C1218 C1217 1.398 . S
C1218 C1219 1.391 . S
C1219 H1207 0.950 . S
C1219 C1215 1.393 . S
C1219 C1218 1.391 . S
H1220 C1228 0.950 . S
H1221 C1233 0.950 . S
H1222 C1230 0.950 . S
H1223 C1232 0.950 . S
H1224 C1234 0.950 . S
H1225 C1236 0.950 . S
H1226 C1238 0.950 . S
H1227 C1239 0.950 . S
C1228 H1220 0.950 . S
C1228 C1229 1.386 . S
C1228 C1230 1.391 . S
C1229 C1228 1.386 . S
C1229 C1233 1.393 . S
C1230 H1222 0.950 . S
C1230 C1228 1.391 . S
C1230 C1231 1.400 . S
C1231 C1230 1.400 . S
C1231 C1232 1.398 . S
C1231 C1237 1.491 . S
C1232 H1223 0.950 . S
C1232 C1231 1.398 . S
C1232 C1233 1.391 . S
C1233 H1221 0.950 . S
C1233 C1229 1.393 . S
C1233 C1232 1.391 . S
C1234 H1224 0.950 . S
C1234 C1235 1.386 . S
C1234 C1236 1.391 . S
C1235 C1234 1.386 . S
C1235 C1239 1.393 . S
C1236 H1225 0.950 . S
C1236 C1234 1.391 . S
C1236 C1237 1.400 . S
C1237 C1231 1.491 . S
C1237 C1236 1.400 . S
C1237 C1238 1.398 . S
C1238 H1226 0.950 . S
C1238 C1237 1.398 . S
C1238 C1239 1.391 . S
C1239 H1227 0.950 . S
C1239 C1235 1.393 . S
C1239 C1238 1.391 . S
H1240 C1248 0.950 . S
H1241 C1253 0.950 . S
H1242 C1250 0.950 . S
H1243 C1252 0.950 . S
H1244 C1254 0.950 . S
H1245 C1256 0.950 . S
H1246 C1258 0.950 . S
H1247 C1259 0.950 . S
C1248 H1240 0.950 . S
C1248 C1249 1.386 . S
C1248 C1250 1.391 . S
C1249 C1248 1.386 . S
C1249 C1253 1.393 . S
C1250 H1242 0.950 . S
C1250 C1248 1.391 . S
C1250 C1251 1.400 . S
C1251 C1250 1.400 . S
C1251 C1252 1.398 . S
C1251 C1257 1.491 . S
C1252 H1243 0.950 . S
C1252 C1251 1.398 . S
C1252 C1253 1.391 . S
C1253 H1241 0.950 . S
C1253 C1249 1.393 . S
C1253 C1252 1.391 . S
C1254 H1244 0.950 . S
C1254 C1255 1.386 . S
C1254 C1256 1.391 . S
C1255 C1254 1.386 . S
C1255 C1259 1.393 . S
C1256 H1245 0.950 . S
C1256 C1254 1.391 . S
C1256 C1257 1.400 . S
C1257 C1251 1.491 . S
C1257 C1256 1.400 . S
C1257 C1258 1.398 . S
C1258 H1246 0.950 . S
C1258 C1257 1.398 . S
C1258 C1259 1.391 . S
C1259 H1247 0.950 . S
C1259 C1255 1.393 . S
C1259 C1258 1.391 . S
H1260 C1268 0.971 . S
H1261 C1273 0.950 . S
H1262 C1270 0.950 1_655 S
H1263 C1272 0.950 . S
H1264 C1274 0.950 . S
H1265 C1276 0.950 . S
H1266 C1278 0.950 1_655 S
H1267 C1279 0.950 . S
C1268 H1260 0.971 . S
C1268 C1269 1.374 1_655 S
C1268 C1270 1.382 1_655 S
C1269 C1268 1.374 1_455 S
C1269 C1273 1.393 . S
C1270 H1262 0.950 1_455 S
C1270 C1268 1.382 1_455 S
C1270 C1271 1.400 . S
C1271 C1270 1.400 . S
C1271 C1272 1.398 . S
C1271 C1277 1.491 1_556 S
C1272 H1263 0.950 . S
C1272 C1271 1.398 . S
C1272 C1273 1.391 . S
C1273 H1261 0.950 . S
C1273 C1269 1.393 . S
C1273 C1272 1.391 . S
C1274 H1264 0.950 . S
C1274 C1275 1.386 . S
C1274 C1276 1.391 . S
C1275 C1274 1.386 . S
C1275 C1279 1.393 . S
C1276 H1265 0.950 . S
C1276 C1274 1.391 . S
C1276 C1277 1.400 . S
C1277 C1271 1.491 1_554 S
C1277 C1276 1.400 . S
C1277 C1278 1.398 . S
C1278 H1266 0.950 1_455 S
C1278 C1277 1.398 . S
C1278 C1279 1.391 . S
C1279 H1267 0.950 . S
C1279 C1275 1.393 . S
C1279 C1278 1.391 . S
H1280 C1288 0.950 . S
H1281 C1293 0.950 . S
H1282 C1290 0.950 . S
H1283 C1292 0.950 . S
H1284 C1294 0.950 . S
H1285 C1296 0.950 . S
H1286 C1298 0.950 . S
H1287 C1299 0.950 . S
C1288 H1280 0.950 . S
C1288 C1289 1.386 . S
C1288 C1290 1.391 . S
C1289 C1288 1.386 . S
C1289 C1293 1.393 . S
C1290 H1282 0.950 . S
C1290 C1288 1.391 . S
C1290 C1291 1.400 . S
C1291 C1290 1.400 . S
C1291 C1292 1.398 . S
C1291 C1297 1.491 . S
C1292 H1283 0.950 . S
C1292 C1291 1.398 . S
C1292 C1293 1.391 . S
C1293 H1281 0.950 . S
C1293 C1289 1.393 . S
C1293 C1292 1.391 . S
C1294 H1284 0.950 . S
C1294 C1295 1.386 . S
C1294 C1296 1.391 . S
C1295 C1294 1.386 . S
C1295 C1299 1.393 . S
C1296 H1285 0.950 . S
C1296 C1294 1.391 . S
C1296 C1297 1.400 . S
C1297 C1291 1.491 . S
C1297 C1296 1.400 . S
C1297 C1298 1.398 . S
C1298 H1286 0.950 . S
C1298 C1297 1.398 . S
C1298 C1299 1.391 . S
C1299 H1287 0.950 . S
C1299 C1295 1.393 . S
C1299 C1298 1.391 . S
H1300 C1308 0.950 . S
H1301 C1313 0.950 . S
H1302 C1310 0.950 . S
H1303 C1312 0.950 . S
H1304 C1314 0.950 . S
H1305 C1316 0.950 . S
H1306 C1318 0.950 . S
H1307 C1319 0.950 . S
C1308 H1300 0.950 . S
C1308 C1309 1.386 . S
C1308 C1310 1.391 . S
C1309 C1308 1.386 . S
C1309 C1313 1.393 . S
C1310 H1302 0.950 . S
C1310 C1308 1.391 . S
C1310 C1311 1.400 . S
C1311 C1310 1.400 . S
C1311 C1312 1.398 . S
C1311 C1317 1.491 . S
C1312 H1303 0.950 . S
C1312 C1311 1.398 . S
C1312 C1313 1.391 . S
C1313 H1301 0.950 . S
C1313 C1309 1.393 . S
C1313 C1312 1.391 . S
C1314 H1304 0.950 . S
C1314 C1315 1.386 . S
C1314 C1316 1.391 . S
C1315 C1314 1.386 . S
C1315 C1319 1.393 . S
C1316 H1305 0.950 . S
C1316 C1314 1.391 . S
C1316 C1317 1.400 . S
C1317 C1311 1.491 . S
C1317 C1316 1.400 . S
C1317 C1318 1.398 . S
C1318 H1306 0.950 . S
C1318 C1317 1.398 . S
C1318 C1319 1.391 . S
C1319 H1307 0.950 . S
C1319 C1315 1.393 . S
C1319 C1318 1.391 . S
H1320 C1328 0.950 . S
H1321 C1333 0.950 . S
H1322 C1330 0.950 . S
H1323 C1332 0.950 . S
H1324 C1334 0.950 . S
H1325 C1336 0.950 . S
H1326 C1338 0.950 . S
H1327 C1339 0.950 . S
C1328 H1320 0.950 . S
C1328 C1329 1.386 . S
C1328 C1330 1.391 . S
C1329 C1328 1.386 . S
C1329 C1333 1.393 . S
C1330 H1322 0.950 . S
C1330 C1328 1.391 . S
C1330 C1331 1.400 . S
C1331 C1330 1.400 . S
C1331 C1332 1.398 . S
C1331 C1337 1.491 . S
C1332 H1323 0.950 . S
C1332 C1331 1.398 . S
C1332 C1333 1.391 . S
C1333 H1321 0.950 . S
C1333 C1329 1.393 . S
C1333 C1332 1.391 . S
C1334 H1324 0.950 . S
C1334 C1335 1.386 . S
C1334 C1336 1.391 . S
C1335 C1334 1.386 . S
C1335 C1339 1.393 . S
C1336 H1325 0.950 . S
C1336 C1334 1.391 . S
C1336 C1337 1.400 . S
C1337 C1331 1.491 . S
C1337 C1336 1.400 . S
C1337 C1338 1.398 . S
C1338 H1326 0.950 . S
C1338 C1337 1.398 . S
C1338 C1339 1.391 . S
C1339 H1327 0.950 . S
C1339 C1335 1.393 . S
C1339 C1338 1.391 . S
H1340 C1348 0.950 . S
H1341 C1353 0.950 . S
H1342 C1350 0.950 . S
H1343 C1352 0.950 . S
H1344 C1354 0.950 . S
H1345 C1356 0.950 . S
H1346 C1358 0.950 . S
H1347 C1359 0.950 . S
C1348 H1340 0.950 . S
C1348 C1349 1.386 . S
C1348 C1350 1.391 . S
C1349 C1348 1.386 . S
C1349 C1353 1.393 . S
C1350 H1342 0.950 . S
C1350 C1348 1.391 . S
C1350 C1351 1.400 . S
C1351 C1350 1.400 . S
C1351 C1352 1.398 . S
C1351 C1357 1.491 . S
C1352 H1343 0.950 . S
C1352 C1351 1.398 . S
C1352 C1353 1.391 . S
C1353 H1341 0.950 . S
C1353 C1349 1.393 . S
C1353 C1352 1.391 . S
C1354 H1344 0.950 . S
C1354 C1355 1.386 . S
C1354 C1356 1.391 . S
C1355 C1354 1.386 . S
C1355 C1359 1.393 . S
C1356 H1345 0.950 . S
C1356 C1354 1.391 . S
C1356 C1357 1.400 . S
C1357 C1351 1.491 . S
C1357 C1356 1.400 . S
C1357 C1358 1.398 . S
C1358 H1346 0.950 . S
C1358 C1357 1.398 . S
C1358 C1359 1.391 . S
C1359 H1347 0.950 . S
C1359 C1355 1.393 . S
C1359 C1358 1.391 . S
H1360 C1368 0.950 . S
H1361 C1373 0.950 . S
H1362 C1370 0.950 . S
H1363 C1372 0.950 . S
H1364 C1374 0.950 . S
H1365 C1376 0.950 . S
H1366 C1378 0.950 . S
H1367 C1379 0.950 . S
C1368 H1360 0.950 . S
C1368 C1369 1.386 . S
C1368 C1370 1.391 . S
C1369 C1368 1.386 . S
C1369 C1373 1.393 . S
C1370 H1362 0.950 . S
C1370 C1368 1.391 . S
C1370 C1371 1.400 . S
C1371 C1370 1.400 . S
C1371 C1372 1.398 . S
C1371 C1377 1.491 . S
C1372 H1363 0.950 . S
C1372 C1371 1.398 . S
C1372 C1373 1.391 . S
C1373 H1361 0.950 . S
C1373 C1369 1.393 . S
C1373 C1372 1.391 . S
C1374 H1364 0.950 . S
C1374 C1375 1.386 . S
C1374 C1376 1.391 . S
C1375 C1374 1.386 . S
C1375 C1379 1.393 . S
C1376 H1365 0.950 . S
C1376 C1374 1.391 . S
C1376 C1377 1.400 . S
C1377 C1371 1.491 . S
C1377 C1376 1.400 . S
C1377 C1378 1.398 . S
C1378 H1366 0.950 . S
C1378 C1377 1.398 . S
C1378 C1379 1.391 . S
C1379 H1367 0.950 . S
C1379 C1375 1.393 . S
C1379 C1378 1.391 . S
H1380 C1388 0.950 . S
H1381 C1393 0.950 . S
H1382 C1390 0.950 . S
H1383 C1392 0.950 . S
H1384 C1394 0.950 . S
H1385 C1396 0.950 . S
H1386 C1398 0.950 . S
H1387 C1399 0.947 . S
C1388 H1380 0.950 . S
C1388 C1389 1.386 . S
C1388 C1390 1.391 . S
C1389 C1388 1.386 . S
C1389 C1393 1.393 . S
C1390 H1382 0.950 . S
C1390 C1388 1.391 . S
C1390 C1391 1.400 . S
C1391 C1390 1.400 . S
C1391 C1392 1.398 . S
C1391 C1397 1.491 . S
C1392 H1383 0.950 . S
C1392 C1391 1.398 . S
C1392 C1393 1.391 . S
C1393 H1381 0.950 . S
C1393 C1389 1.393 . S
C1393 C1392 1.391 . S
C1394 H1384 0.950 . S
C1394 C1395 1.386 . S
C1394 C1396 1.391 1_455 S
C1395 C1394 1.386 . S
C1395 C1399 1.393 1_455 S
C1396 H1385 0.950 . S
C1396 C1394 1.391 1_655 S
C1396 C1397 1.400 . S
C1397 C1391 1.491 . S
C1397 C1396 1.400 . S
C1397 C1398 1.398 . S
C1398 H1386 0.950 . S
C1398 C1397 1.398 . S
C1398 C1399 1.391 . S
C1399 H1387 0.947 . S
C1399 C1395 1.393 1_655 S
C1399 C1398 1.391 . S
H1400 C1408 0.950 . S
H1401 C1413 0.950 . S
H1402 C1410 0.950 . S
H1403 C1412 0.950 . S
H1404 C1414 0.950 . S
H1405 C1416 0.950 . S
H1406 C1418 0.950 . S
H1407 C1419 0.950 . S
C1408 H1400 0.950 . S
C1408 C1409 1.386 . S
C1408 C1410 1.391 . S
C1409 C1408 1.386 . S
C1409 C1413 1.393 . S
C1410 H1402 0.950 . S
C1410 C1408 1.391 . S
C1410 C1411 1.400 . S
C1411 C1410 1.400 . S
C1411 C1412 1.398 . S
C1411 C1417 1.491 . S
C1412 H1403 0.950 . S
C1412 C1411 1.398 . S
C1412 C1413 1.391 . S
C1413 H1401 0.950 . S
C1413 C1409 1.393 . S
C1413 C1412 1.391 . S
C1414 H1404 0.950 . S
C1414 C1415 1.386 . S
C1414 C1416 1.391 . S
C1415 C1414 1.386 . S
C1415 C1419 1.393 . S
C1416 H1405 0.950 . S
C1416 C1414 1.391 . S
C1416 C1417 1.400 . S
C1417 C1411 1.491 . S
C1417 C1416 1.400 . S
C1417 C1418 1.398 . S
C1418 H1406 0.950 . S
C1418 C1417 1.398 . S
C1418 C1419 1.391 . S
C1419 H1407 0.950 . S
C1419 C1415 1.393 . S
C1419 C1418 1.391 . S
H1420 C1428 0.950 . S
H1421 C1433 0.950 . S
H1422 C1430 0.950 . S
H1423 C1432 0.950 . S
H1424 C1434 0.950 . S
H1425 C1436 0.950 . S
H1426 C1438 0.950 . S
H1427 C1439 0.950 . S
C1428 H1420 0.950 . S
C1428 C1429 1.386 . S
C1428 C1430 1.391 . S
C1429 C1428 1.386 . S
C1429 C1433 1.393 . S
C1430 H1422 0.950 . S
C1430 C1428 1.391 . S
C1430 C1431 1.400 . S
C1431 C1430 1.400 . S
C1431 C1432 1.398 . S
C1431 C1437 1.491 . S
C1432 H1423 0.950 . S
C1432 C1431 1.398 . S
C1432 C1433 1.391 . S
C1433 H1421 0.950 . S
C1433 C1429 1.393 . S
C1433 C1432 1.391 . S
C1434 H1424 0.950 . S
C1434 C1435 1.386 . S
C1434 C1436 1.391 . S
C1435 C1434 1.386 . S
C1435 C1439 1.393 . S
C1436 H1425 0.950 . S
C1436 C1434 1.391 . S
C1436 C1437 1.400 . S
C1437 C1431 1.491 . S
C1437 C1436 1.400 . S
C1437 C1438 1.398 . S
C1438 H1426 0.950 . S
C1438 C1437 1.398 . S
C1438 C1439 1.391 . S
C1439 H1427 0.950 . S
C1439 C1435 1.393 . S
C1439 C1438 1.391 . S
H1440 C1448 0.950 . S
H1441 C1453 0.950 . S
H1442 C1450 0.950 . S
H1443 C1452 0.950 . S
H1444 C1454 0.950 . S
H1445 C1456 0.950 . S
H1446 C1458 0.950 . S
H1447 C1459 0.948 1_554 S
C1448 H1440 0.950 . S
C1448 C1449 1.386 . S
C1448 C1450 1.391 . S
C1449 C1448 1.386 . S
C1449 C1453 1.393 . S
C1450 H1442 0.950 . S
C1450 C1448 1.391 . S
C1450 C1451 1.400 . S
C1451 C1450 1.400 . S
C1451 C1452 1.398 . S
C1451 C1457 1.491 . S
C1452 H1443 0.950 . S
C1452 C1451 1.398 . S
C1452 C1453 1.391 . S
C1453 H1441 0.950 . S
C1453 C1449 1.393 . S
C1453 C1452 1.391 . S
C1454 H1444 0.950 . S
C1454 C1455 1.386 . S
C1454 C1456 1.391 1_554 S
C1455 C1454 1.386 . S
C1455 C1459 1.370 1_554 S
C1456 H1445 0.950 . S
C1456 C1454 1.391 1_556 S
C1456 C1457 1.400 . S
C1457 C1451 1.491 . S
C1457 C1456 1.400 . S
C1457 C1458 1.398 . S
C1458 H1446 0.950 . S
C1458 C1457 1.398 . S
C1458 C1459 1.416 . S
C1459 H1447 0.948 1_556 S
C1459 C1455 1.370 1_556 S
C1459 C1458 1.416 . S
H1460 C1468 0.950 . S
H1461 C1473 0.950 . S
H1462 C1470 0.950 . S
H1463 C1472 0.950 . S
H1464 C1474 0.950 . S
H1465 C1476 0.950 . S
H1466 C1478 0.950 . S
H1467 C1479 0.950 . S
C1468 H1460 0.950 . S
C1468 C1469 1.386 . S
C1468 C1470 1.391 . S
C1469 C1468 1.386 . S
C1469 C1473 1.393 . S
C1470 H1462 0.950 . S
C1470 C1468 1.391 . S
C1470 C1471 1.400 . S
C1471 C1470 1.400 . S
C1471 C1472 1.398 . S
C1471 C1477 1.491 . S
C1472 H1463 0.950 . S
C1472 C1471 1.398 . S
C1472 C1473 1.391 . S
C1473 H1461 0.950 . S
C1473 C1469 1.393 . S
C1473 C1472 1.391 . S
C1474 H1464 0.950 . S
C1474 C1475 1.386 . S
C1474 C1476 1.391 . S
C1475 C1474 1.386 . S
C1475 C1479 1.393 . S
C1476 H1465 0.950 . S
C1476 C1474 1.391 . S
C1476 C1477 1.400 . S
C1477 C1471 1.491 . S
C1477 C1476 1.400 . S
C1477 C1478 1.398 . S
C1478 H1466 0.950 . S
C1478 C1477 1.398 . S
C1478 C1479 1.391 . S
C1479 H1467 0.950 . S
C1479 C1475 1.393 . S
C1479 C1478 1.391 . S
H1480 C1488 0.950 . S
H1481 C1493 0.950 . S
H1482 C1490 0.950 . S
H1483 C1492 0.945 1_455 S
H1484 C1494 0.950 . S
H1485 C1496 0.950 . S
H1486 C1498 0.950 . S
H1487 C1499 0.950 . S
C1488 H1480 0.950 . S
C1488 C1489 1.386 . S
C1488 C1490 1.391 . S
C1489 C1488 1.386 . S
C1489 C1493 1.393 1_655 S
C1490 H1482 0.950 . S
C1490 C1488 1.391 . S
C1490 C1491 1.400 . S
C1491 C1490 1.400 . S
C1491 C1492 1.404 . S
C1491 C1497 1.491 . S
C1492 H1483 0.945 1_655 S
C1492 C1491 1.404 . S
C1492 C1493 1.390 1_655 S
C1493 H1481 0.950 . S
C1493 C1489 1.393 1_455 S
C1493 C1492 1.390 1_455 S
C1494 H1484 0.950 . S
C1494 C1495 1.386 . S
C1494 C1496 1.391 . S
C1495 C1494 1.386 . S
C1495 C1499 1.393 . S
C1496 H1485 0.950 . S
C1496 C1494 1.391 . S
C1496 C1497 1.400 . S
C1497 C1491 1.491 . S
C1497 C1496 1.400 . S
C1497 C1498 1.398 . S
C1498 H1486 0.950 . S
C1498 C1497 1.398 . S
C1498 C1499 1.391 . S
C1499 H1487 0.950 . S
C1499 C1495 1.393 . S
C1499 C1498 1.391 . S
H1500 C1508 0.950 . S
H1501 C1513 0.950 . S
H1502 C1510 0.950 . S
H1503 C1512 0.950 . S
H1504 C1514 0.950 . S
H1505 C1516 0.950 . S
H1506 C1518 0.950 . S
H1507 C1519 0.950 . S
C1508 H1500 0.950 . S
C1508 C1509 1.386 . S
C1508 C1510 1.391 . S
C1509 C1508 1.386 . S
C1509 C1513 1.393 . S
C1510 H1502 0.950 . S
C1510 C1508 1.391 . S
C1510 C1511 1.400 . S
C1511 C1510 1.400 . S
C1511 C1512 1.398 . S
C1511 C1517 1.491 . S
C1512 H1503 0.950 . S
C1512 C1511 1.398 . S
C1512 C1513 1.391 . S
C1513 H1501 0.950 . S
C1513 C1509 1.393 . S
C1513 C1512 1.391 . S
C1514 H1504 0.950 . S
C1514 C1515 1.386 . S
C1514 C1516 1.391 . S
C1515 C1514 1.386 . S
C1515 C1519 1.393 . S
C1516 H1505 0.950 . S
C1516 C1514 1.391 . S
C1516 C1517 1.400 . S
C1517 C1511 1.491 . S
C1517 C1516 1.400 . S
C1517 C1518 1.398 . S
C1518 H1506 0.950 . S
C1518 C1517 1.398 . S
C1518 C1519 1.391 . S
C1519 H1507 0.950 . S
C1519 C1515 1.393 . S
C1519 C1518 1.391 . S
H1520 C1528 0.950 . S
H1521 C1533 0.950 . S
H1522 C1530 0.950 . S
H1523 C1532 0.950 . S
H1524 C1534 0.950 . S
H1525 C1536 0.950 . S
H1526 C1538 0.953 1_556 S
H1527 C1539 0.950 . S
C1528 H1520 0.950 . S
C1528 C1529 1.386 . S
C1528 C1530 1.391 . S
C1529 C1528 1.386 . S
C1529 C1533 1.393 . S
C1530 H1522 0.950 . S
C1530 C1528 1.391 . S
C1530 C1531 1.400 . S
C1531 C1530 1.400 . S
C1531 C1532 1.398 . S
C1531 C1537 1.491 . S
C1532 H1523 0.950 . S
C1532 C1531 1.398 . S
C1532 C1533 1.391 . S
C1533 H1521 0.950 . S
C1533 C1529 1.393 . S
C1533 C1532 1.391 . S
C1534 H1524 0.950 . S
C1534 C1535 1.386 1_554 S
C1534 C1536 1.391 . S
C1535 C1534 1.386 1_556 S
C1535 C1539 1.393 . S
C1536 H1525 0.950 . S
C1536 C1534 1.391 . S
C1536 C1537 1.400 . S
C1537 C1531 1.491 . S
C1537 C1536 1.400 . S
C1537 C1538 1.423 . S
C1538 H1526 0.953 1_554 S
C1538 C1537 1.423 . S
C1538 C1539 1.364 1_554 S
C1539 H1527 0.950 . S
C1539 C1535 1.393 . S
C1539 C1538 1.364 1_556 S
H1540 C1548 0.950 . S
H1541 C1553 0.950 . S
H1542 C1550 0.950 . S
H1543 C1552 0.950 . S
H1544 C1554 0.950 . S
H1545 C1556 0.950 . S
H1546 C1558 0.950 . S
H1547 C1559 0.950 . S
C1548 H1540 0.950 . S
C1548 C1549 1.386 . S
C1548 C1550 1.391 . S
C1549 C1548 1.386 . S
C1549 C1553 1.393 . S
C1550 H1542 0.950 . S
C1550 C1548 1.391 . S
C1550 C1551 1.400 . S
C1551 C1550 1.400 . S
C1551 C1552 1.398 . S
C1551 C1557 1.491 . S
C1552 H1543 0.950 . S
C1552 C1551 1.398 . S
C1552 C1553 1.391 . S
C1553 H1541 0.950 . S
C1553 C1549 1.393 . S
C1553 C1552 1.391 . S
C1554 H1544 0.950 . S
C1554 C1555 1.386 . S
C1554 C1556 1.391 . S
C1555 C1554 1.386 . S
C1555 C1559 1.393 . S
C1556 H1545 0.950 . S
C1556 C1554 1.391 . S
C1556 C1557 1.400 . S
C1557 C1551 1.491 . S
C1557 C1556 1.400 . S
C1557 C1558 1.398 . S
C1558 H1546 0.950 . S
C1558 C1557 1.398 . S
C1558 C1559 1.391 . S
C1559 H1547 0.950 . S
C1559 C1555 1.393 . S
C1559 C1558 1.391 . S
H1560 C1568 0.950 . S
H1561 C1573 0.950 . S
H1562 C1570 0.950 . S
H1563 C1572 0.950 . S
H1564 C1574 0.950 . S
H1565 C1576 0.950 . S
H1566 C1578 0.950 . S
H1567 C1579 0.950 . S
C1568 H1560 0.950 . S
C1568 C1569 1.386 . S
C1568 C1570 1.391 . S
C1569 C1568 1.386 . S
C1569 C1573 1.393 . S
C1570 H1562 0.950 . S
C1570 C1568 1.391 . S
C1570 C1571 1.400 . S
C1571 C1570 1.400 . S
C1571 C1572 1.398 . S
C1571 C1577 1.491 . S
C1572 H1563 0.950 . S
C1572 C1571 1.398 . S
C1572 C1573 1.391 . S
C1573 H1561 0.950 . S
C1573 C1569 1.393 . S
C1573 C1572 1.391 . S
C1574 H1564 0.950 . S
C1574 C1575 1.386 . S
C1574 C1576 1.391 . S
C1575 C1574 1.386 . S
C1575 C1579 1.393 . S
C1576 H1565 0.950 . S
C1576 C1574 1.391 . S
C1576 C1577 1.400 . S
C1577 C1571 1.491 . S
C1577 C1576 1.400 . S
C1577 C1578 1.398 . S
C1578 H1566 0.950 . S
C1578 C1577 1.398 . S
C1578 C1579 1.391 . S
C1579 H1567 0.950 . S
C1579 C1575 1.393 . S
C1579 C1578 1.391 . S
H1580 C1588 0.950 . S
H1581 C1593 0.950 . S
H1582 C1590 0.950 . S
H1583 C1592 0.950 . S
H1584 C1594 0.950 . S
H1585 C1596 0.950 . S
H1586 C1598 0.950 . S
H1587 C1599 0.950 . S
C1588 H1580 0.950 . S
C1588 C1589 1.386 . S
C1588 C1590 1.391 . S
C1589 C1588 1.386 . S
C1589 C1593 1.393 . S
C1590 H1582 0.950 . S
C1590 C1588 1.391 . S
C1590 C1591 1.400 . S
C1591 C1590 1.400 . S
C1591 C1592 1.398 . S
C1591 C1597 1.491 . S
C1592 H1583 0.950 . S
C1592 C1591 1.398 . S
C1592 C1593 1.391 . S
C1593 H1581 0.950 . S
C1593 C1589 1.393 . S
C1593 C1592 1.391 . S
C1594 H1584 0.950 . S
C1594 C1595 1.386 . S
C1594 C1596 1.391 . S
C1595 C1594 1.386 . S
C1595 C1599 1.393 . S
C1596 H1585 0.950 . S
C1596 C1594 1.391 . S
C1596 C1597 1.400 . S
C1597 C1591 1.491 . S
C1597 C1596 1.400 . S
C1597 C1598 1.398 . S
C1598 H1586 0.950 . S
C1598 C1597 1.398 . S
C1598 C1599 1.391 . S
C1599 H1587 0.950 . S
C1599 C1595 1.393 . S
C1599 C1598 1.391 . S
C649 C19 0.545 . S
C655 C286 0.516 . S
C669 C59 1.984 . S
C675 C166 2.001 . S
C689 C206 0.942 . S
C695 C86 0.858 . S
C709 C139 2.664 . S
C715 C259 2.611 . S
C729 C455 0.487 . S
C735 C170 0.515 . S
C749 C330 1.967 . S
C755 C15 2.002 . S
C769 C415 0.934 . S
C775 C255 0.829 . S
C789 C90 2.622 . S
C795 C370 2.661 . S
C809 C366 0.512 . S
C815 C499 0.511 . S
C829 C419 1.976 . S
C835 C566 1.997 . S
C849 C526 0.839 . S
C855 C326 0.956 . S
C869 C459 2.654 . S
C875 C619 2.618 1_554 S
C889 C570 0.530 . S
C895 C135 0.475 . S
C909 C495 2.007 . S
C915 C210 1.982 . S
C929 C55 0.948 . S
C935 C615 0.860 . S
C949 C290 2.654 . S
C955 C530 2.612 1_556 S
C969 C529 0.472 . S
C975 C18 0.451 . S
C989 C458 0.665 . S
C995 C58 0.676 . S
C1009 C498 0.412 . S
C1015 C89 0.507 . S
C1029 C418 0.763 . S
C1035 C138 0.733 . S
C1049 C169 0.496 . S
C1055 C618 0.425 . S
C1069 C369 0.713 . S
C1075 C209 0.762 . S
C1089 C258 0.463 . S
C1095 C569 0.461 . S
C1109 C289 0.689 . S
C1115 C329 0.689 . S
C1129 C9 1.598 . S
C1135 C178 1.598 . S
C1149 C49 2.103 . S
C1155 C218 2.103 . S
C1169 C249 1.509 . S
C1175 C98 1.509 . S
C1189 C129 1.343 . S
C1195 C298 1.343 . S
C1209 C409 2.087 . S
C1215 C338 2.087 . S
C1229 C449 1.322 . S
C1235 C378 1.322 . S
C1249 C489 1.616 . S
C1255 C578 1.617 . S
C1269 C609 1.508 . S
C1275 C538 1.508 . S
C1289 C6 2.838 . S
C1295 C299 2.891 . S
C1309 C46 1.091 . S
C1315 C179 1.124 . S
C1329 C219 3.701 1_556 S
C1335 C99 3.686 . S
C1349 C246 0.641 . S
C1355 C126 0.635 . S
C1369 C450 2.894 . S
C1375 C175 2.835 . S
C1389 C335 1.054 . S
C1395 C10 1.116 . S
C1409 C410 3.701 1_554 S
C1415 C250 3.686 . S
C1429 C95 0.689 . S
C1435 C375 0.695 . S
C1449 C486 2.831 . S
C1455 C379 2.894 . S
C1469 C579 1.120 . S
C1475 C406 1.056 . S
C1489 C539 3.681 1_655 S
C1495 C339 3.700 . S
C1509 C606 0.641 . S
C1515 C446 0.635 . S
C1529 C575 2.829 . S
C1535 C130 2.893 . S
C1549 C215 1.063 . S
C1555 C490 1.125 . S
C1569 C50 3.701 . S
C1575 C610 3.681 . S
C1589 C535 0.656 . S
C1595 C295 0.633 . S
