# Generated by pormake.
# Topology whk, (6)-cn, num edge types: 1
# Building blocks:
#     Node 0, Type 0, BuildingBlock: LEVNOQ01_clean_sbu_1, # of connection points: 6
#     Node 1, Type 0, BuildingBlock: LEVNOQ01_clean_sbu_1, # of connection points: 6
#     Node 2, Type 0, BuildingBlock: LEVNOQ01_clean_sbu_1, # of connection points: 6
#     Node 3, Type 0, BuildingBlock: LEVNOQ01_clean_sbu_1, # of connection points: 6
#     Node 4, Type 0, BuildingBlock: LEVNOQ01_clean_sbu_1, # of connection points: 6
#     Node 5, Type 0, BuildingBlock: LEVNOQ01_clean_sbu_1, # of connection points: 6
#     Node 6, Type 0, BuildingBlock: LEVNOQ01_clean_sbu_1, # of connection points: 6
#     Node 7, Type 0, BuildingBlock: LEVNOQ01_clean_sbu_1, # of connection points: 6
#     Node 8, Type 0, BuildingBlock: LEVNOQ01_clean_sbu_1, # of connection points: 6
#     Node 9, Type 0, BuildingBlock: LEVNOQ01_clean_sbu_1, # of connection points: 6
#     Node 10, Type 0, BuildingBlock: LEVNOQ01_clean_sbu_1, # of connection points: 6
#     Node 11, Type 0, BuildingBlock: LEVNOQ01_clean_sbu_1, # of connection points: 6
#     Node 12, Type 0, BuildingBlock: LEVNOQ01_clean_sbu_1, # of connection points: 6
#     Node 13, Type 0, BuildingBlock: LEVNOQ01_clean_sbu_1, # of connection points: 6
#     Node 14, Type 0, BuildingBlock: LEVNOQ01_clean_sbu_1, # of connection points: 6
#     Node 15, Type 0, BuildingBlock: LEVNOQ01_clean_sbu_1, # of connection points: 6
#     Edge 16, Type (0, 0), None
#     Edge 17, Type (0, 0), None
#     Edge 18, Type (0, 0), None
#     Edge 19, Type (0, 0), None
#     Edge 20, Type (0, 0), None
#     Edge 21, Type (0, 0), None
#     Edge 22, Type (0, 0), None
#     Edge 23, Type (0, 0), None
#     Edge 24, Type (0, 0), None
#     Edge 25, Type (0, 0), None
#     Edge 26, Type (0, 0), None
#     Edge 27, Type (0, 0), None
#     Edge 28, Type (0, 0), None
#     Edge 29, Type (0, 0), None
#     Edge 30, Type (0, 0), None
#     Edge 31, Type (0, 0), None
#     Edge 32, Type (0, 0), None
#     Edge 33, Type (0, 0), None
#     Edge 34, Type (0, 0), None
#     Edge 35, Type (0, 0), None
#     Edge 36, Type (0, 0), None
#     Edge 37, Type (0, 0), None
#     Edge 38, Type (0, 0), None
#     Edge 39, Type (0, 0), None
#     Edge 40, Type (0, 0), None
#     Edge 41, Type (0, 0), None
#     Edge 42, Type (0, 0), None
#     Edge 43, Type (0, 0), None
#     Edge 44, Type (0, 0), None
#     Edge 45, Type (0, 0), None
#     Edge 46, Type (0, 0), None
#     Edge 47, Type (0, 0), None
#     Edge 48, Type (0, 0), None
#     Edge 49, Type (0, 0), None
#     Edge 50, Type (0, 0), None
#     Edge 51, Type (0, 0), None
#     Edge 52, Type (0, 0), None
#     Edge 53, Type (0, 0), None
#     Edge 54, Type (0, 0), None
#     Edge 55, Type (0, 0), None
#     Edge 56, Type (0, 0), None
#     Edge 57, Type (0, 0), None
#     Edge 58, Type (0, 0), None
#     Edge 59, Type (0, 0), None
#     Edge 60, Type (0, 0), None
#     Edge 61, Type (0, 0), None
#     Edge 62, Type (0, 0), None
#     Edge 63, Type (0, 0), None
# Relax obj value: 0.390
# Max RMSD: 0.259
# Mean RMSD: 0.259
data_MOF--net-whk--node1-LEVNOQ01_clean_sbu_1--edge1-none
_symmetry_space_group_name_H-M    P1
_symmetry_Int_Tables_number       1
_symmetry_cell_setting            triclinic
loop_
_symmetry_equiv_pos_as_xyz
'x, y, z'
_cell_length_a     17.471025
_cell_length_b     17.474967
_cell_length_c     23.849875
_cell_angle_alpha  89.994762
_cell_angle_beta   90.002198
_cell_angle_gamma 90.006411
loop_
_atom_site_label
_atom_site_type_symbol
_atom_site_fract_x
_atom_site_fract_y
_atom_site_fract_z
_atom_type_partial_charge
O0 O 0.55894 0.32609 0.4558 0.0
Mg1 Mg 0.551 0.32286 0.3634 0.0
O2 O 0.48792 0.22427 0.4808 0.0
Mg3 Mg 0.50152 0.15639 0.39923 0.0
O4 O 0.45623 0.26009 0.3567 0.0
O5 O 0.45275 0.37613 0.32674 0.0
O6 O 0.52107 0.10186 0.31254 0.0
O7 O 0.37467 0.11026 0.38913 0.0
Mg8 Mg 0.49547 -0.03549 0.40665 0.0
O9 O 0.55202 0.05099 0.44486 0.0
O10 O 0.52647 -0.02515 0.3195 0.0
O11 O 0.38614 0.00417 0.43497 0.0
O12 O 0.57653 0.93052 0.46619 0.0
C13 C 0.66668 0.21372 0.35658 0.0
C14 C 0.52324 0.28668 0.49293 0.0
C15 C 0.41693 0.32197 0.35204 0.0
C16 C 0.53026 0.03603 0.29076 0.0
C17 C 0.34874 0.04368 0.40012 0.0
C18 C 0.58691 0.00203 0.47647 0.0
O19 O 0.63832 0.26028 0.32172 0.0
O20 O 0.62818 0.19301 0.39921 0.0
O21 O 0.08865 0.55859 0.45579 0.0
Mg22 Mg 0.09206 0.55025 0.36343 0.0
O23 O 0.19058 0.48794 0.48117 0.0
Mg24 Mg 0.2585 0.50115 0.39958 0.0
O25 O 0.15482 0.45545 0.35722 0.0
O26 O 0.03895 0.45182 0.32688 0.0
O27 O 0.31284 0.52037 0.31274 0.0
O28 O 0.30496 0.37442 0.39003 0.0
Mg29 Mg 0.45062 0.49619 0.40662 0.0
O30 O 0.36384 0.55218 0.44491 0.0
O31 O 0.43985 0.5269 0.31947 0.0
O32 O 0.41174 0.38669 0.43509 0.0
O33 O 0.48421 0.57754 0.46606 0.0
C34 C 0.20105 0.66602 0.35663 0.0
C35 C 0.12804 0.52319 0.49308 0.0
C36 C 0.09296 0.41613 0.35244 0.0
C37 C 0.37855 0.52997 0.29081 0.0
C38 C 0.37187 0.34898 0.40063 0.0
C39 C 0.41263 0.58743 0.47643 0.0
O40 O 0.1547 0.6375 0.32167 0.0
O41 O 0.22164 0.62765 0.39933 0.0
O42 O 0.02793 0.4114 0.43533 0.0
Mg43 Mg 0.91861 0.45056 0.40661 0.0
O44 O 0.04009 0.30438 0.39059 0.0
Mg45 Mg 0.91315 0.25835 0.39994 0.0
O46 O 0.8623 0.36398 0.44482 0.0
O47 O 0.83703 0.4843 0.46591 0.0
O48 O 0.7867 0.22155 0.39944 0.0
O49 O 0.92568 0.19033 0.4815 0.0
Mg50 Mg 0.86431 0.0907 0.36323 0.0
O51 O -0.04161 0.15432 0.35858 0.0
O52 O 0.77717 0.15421 0.32189 0.0
O53 O 0.85628 0.08757 0.45566 0.0
O54 O -0.03587 0.03985 0.3263 0.0
C55 C 0.88498 0.37802 0.29088 0.0
C56 C 0.06566 0.37127 0.40105 0.0
C57 C 0.82702 0.41276 0.47629 0.0
C58 C 0.74852 0.20067 0.35672 0.0
C59 C 0.89101 0.12733 0.49313 0.0
C60 C -0.00087 0.09374 0.35245 0.0
O61 O 0.88808 0.43939 0.31944 0.0
O62 O 0.89444 0.31236 0.31291 0.0
O63 O 0.00477 0.02878 0.43527 0.0
Mg64 Mg -0.03523 0.91967 0.40674 0.0
O65 O 0.11107 0.03967 0.38944 0.0
Mg66 Mg 0.15669 0.91269 0.39946 0.0
O67 O 0.05098 0.86251 0.44475 0.0
O68 O 0.93047 0.83839 0.46612 0.0
O69 O 0.19319 0.78615 0.39928 0.0
O70 O 0.22468 0.92572 0.48099 0.0
Mg71 Mg 0.32453 0.86341 0.36319 0.0
O72 O 0.26079 -0.04267 0.35782 0.0
O73 O 0.26105 0.77619 0.32198 0.0
O74 O 0.32734 0.85587 0.45567 0.0
O75 O 0.37571 -0.03702 0.32614 0.0
C76 C 0.03646 0.88488 0.29081 0.0
C77 C 0.0447 0.06603 0.40058 0.0
C78 C 0.00196 0.82768 0.47633 0.0
C79 C 0.21419 0.74783 0.35665 0.0
C80 C 0.28751 0.89095 0.49292 0.0
C81 C 0.32149 -0.00202 0.35192 0.0
O82 O -0.02474 0.8891 0.31952 0.0
O83 O 0.10238 0.89348 0.31262 0.0
O84 O 0.05895 0.58802 0.06514 0.0
Mg85 Mg 0.05109 0.59122 0.15754 0.0
O86 O -0.01206 0.68985 0.04017 0.0
Mg87 Mg 0.00161 0.75773 0.12172 0.0
O88 O 0.95639 0.65406 0.16431 0.0
O89 O 0.9528 0.53802 0.19426 0.0
O90 O 0.0213 0.81234 0.20838 0.0
O91 O 0.87475 0.80367 0.13187 0.0
Mg92 Mg -0.00509 0.94943 0.11409 0.0
O93 O 0.05195 0.86315 0.07602 0.0
O94 O 0.02565 0.93939 0.20129 0.0
O95 O 0.88565 0.9096 0.08573 0.0
O96 O 0.076 -0.0163 0.05465 0.0
C97 C 0.16678 0.70043 0.1643 0.0
C98 C 0.02326 0.62746 0.02802 0.0
C99 C 0.91702 0.59222 0.169 0.0
C100 C 0.02999 0.87829 0.23009 0.0
C101 C 0.84843 0.87001 0.12063 0.0
C102 C 0.08673 0.91222 0.04443 0.0
O103 O 0.13843 0.65385 0.19916 0.0
O104 O 0.12828 0.72116 0.12168 0.0
O105 O 0.50343 0.88662 0.08558 0.0
Mg106 Mg 0.46394 -0.0042 0.11426 0.0
O107 O 0.61031 0.87458 0.13042 0.0
Mg108 Mg 0.65619 0.00155 0.12103 0.0
O109 O 0.55049 0.05224 0.07609 0.0
O110 O 0.43013 0.07732 0.05492 0.0
O111 O 0.69291 0.12802 0.12153 0.0
O112 O 0.72424 -0.01104 0.03946 0.0
Mg113 Mg 0.82398 0.05042 0.15766 0.0
O114 O 0.76023 0.95646 0.16244 0.0
O115 O 0.76054 0.13761 0.19895 0.0
O116 O 0.82712 0.05827 0.06521 0.0
O117 O 0.87484 0.9507 0.19473 0.0
C118 C 0.53641 0.02963 0.23001 0.0
C119 C 0.54342 0.84894 0.11997 0.0
C120 C 0.50167 0.08744 0.04458 0.0
C121 C 0.71394 0.16622 0.1642 0.0
C122 C 0.78727 0.02354 0.02778 0.0
C123 C 0.82082 0.91575 0.16868 0.0
O124 O 0.47505 0.02636 0.20141 0.0
O125 O 0.60213 0.02029 0.20802 0.0
O126 O 0.35608 0.82606 0.06512 0.0
Mg127 Mg 0.36441 0.82259 0.15748 0.0
O128 O 0.42665 0.7241 0.03969 0.0
Mg129 Mg 0.41347 0.65617 0.12127 0.0
O130 O 0.45918 0.75979 0.16362 0.0
O131 O 0.46286 0.87564 0.1941 0.0
O132 O 0.39427 0.60185 0.20811 0.0
O133 O 0.54027 0.6098 0.13078 0.0
Mg134 Mg 0.41862 0.46413 0.11424 0.0
O135 O 0.36246 0.55082 0.07596 0.0
O136 O 0.38796 0.47486 0.20141 0.0
O137 O 0.52807 0.50313 0.08572 0.0
O138 O 0.33722 0.43045 0.05483 0.0
C139 C 0.2486 0.71363 0.16424 0.0
C140 C 0.39143 0.78666 0.02781 0.0
C141 C 0.49849 0.82162 0.16854 0.0
C142 C 0.38474 0.53616 0.23004 0.0
C143 C 0.5658 0.54293 0.12021 0.0
C144 C 0.32723 0.50199 0.04446 0.0
O145 O 0.27714 0.75993 0.19921 0.0
O146 O 0.28692 0.69301 0.12153 0.0
O147 O 0.58854 0.35581 0.06508 0.0
Mg148 Mg 0.59197 0.36389 0.15745 0.0
O149 O 0.6906 0.42638 0.03983 0.0
Mg150 Mg 0.75856 0.41303 0.12143 0.0
O151 O 0.65487 0.45859 0.16385 0.0
O152 O 0.53889 0.4622 0.19418 0.0
O153 O 0.813 0.39372 0.20822 0.0
O154 O 0.80498 0.53979 0.13107 0.0
Mg155 Mg 0.95068 0.41818 0.11431 0.0
O156 O 0.86392 0.36218 0.07602 0.0
O157 O 0.94001 0.38729 0.20144 0.0
O158 O 0.91167 0.52765 0.0859 0.0
O159 O -0.0157 0.33698 0.0548 0.0
C160 C 0.70097 0.24806 0.1643 0.0
C161 C 0.62801 0.39125 0.02784 0.0
C162 C 0.59302 0.49788 0.16874 0.0
C163 C 0.87873 0.38409 0.23011 0.0
C164 C 0.87186 0.56528 0.12043 0.0
C165 C 0.91272 0.32705 0.04444 0.0
O166 O 0.65445 0.2765 0.19916 0.0
O167 O 0.72174 0.28647 0.12166 0.0
O168 O 0.35569 0.58839 0.56501 0.0
Mg169 Mg 0.36371 0.59174 0.6574 0.0
O170 O 0.42654 0.6903 0.53987 0.0
Mg171 Mg 0.41321 0.75818 0.62147 0.0
O172 O 0.45855 0.65445 0.66391 0.0
O173 O 0.46198 0.53851 0.69409 0.0
O174 O 0.39391 0.81261 0.70825 0.0
O175 O 0.54007 0.80437 0.63117 0.0
Mg176 Mg 0.41874 0.95032 0.6143 0.0
O177 O 0.36267 0.8636 0.57606 0.0
O178 O 0.38778 0.93961 0.70143 0.0
O179 O 0.52804 0.91085 0.58586 0.0
O180 O 0.33757 -0.01608 0.55472 0.0
C181 C 0.24806 0.70094 0.66424 0.0
C182 C 0.39125 0.62783 0.52783 0.0
C183 C 0.49782 0.59258 0.6687 0.0
C184 C 0.38443 0.87835 0.73011 0.0
C185 C 0.56564 0.87121 0.62051 0.0
C186 C 0.32763 0.91236 0.5444 0.0
O187 O 0.27644 0.6544 0.69911 0.0
O188 O 0.28653 0.72162 0.6216 0.0
O189 O 0.82611 0.35602 0.56493 0.0
Mg190 Mg 0.82268 0.36409 0.65731 0.0
O191 O 0.72401 0.42651 0.53965 0.0
Mg192 Mg 0.65615 0.41312 0.62124 0.0
O193 O 0.75982 0.4588 0.6636 0.0
O194 O 0.87564 0.46249 0.69404 0.0
O195 O 0.60189 0.39385 0.70808 0.0
O196 O 0.60971 0.53984 0.63084 0.0
Mg197 Mg 0.4641 0.41825 0.61422 0.0
O198 O 0.55079 0.36217 0.5759 0.0
O199 O 0.47486 0.38765 0.70141 0.0
O200 O 0.50295 0.52774 0.58572 0.0
O201 O 0.43038 0.33692 0.5548 0.0
C202 C 0.71366 0.24824 0.66417 0.0
C203 C 0.7866 0.3914 0.52769 0.0
C204 C 0.82161 0.4982 0.66852 0.0
C205 C 0.53618 0.38441 0.73004 0.0
C206 C 0.54287 0.5654 0.62017 0.0
C207 C 0.50193 0.327 0.54438 0.0
O208 O 0.76009 0.27676 0.69906 0.0
O209 O 0.69302 0.28657 0.62146 0.0
O210 O 0.05831 0.82665 0.56509 0.0
Mg211 Mg 0.05018 0.82301 0.65747 0.0
O212 O -0.01192 0.72447 0.53959 0.0
Mg213 Mg 0.00135 0.65642 0.62121 0.0
O214 O 0.95559 0.75989 0.66362 0.0
O215 O 0.95155 0.87553 0.69426 0.0
O216 O 0.02058 0.60211 0.70808 0.0
O217 O 0.87458 0.61001 0.63074 0.0
Mg218 Mg -0.00396 0.46452 0.61421 0.0
O219 O 0.0524 0.55108 0.5759 0.0
O220 O 0.02652 0.47511 0.70141 0.0
O221 O 0.88658 0.5033 0.58559 0.0
O222 O 0.07743 0.43057 0.55496 0.0
C223 C 0.16622 0.7141 0.66417 0.0
C224 C 0.02314 0.78715 0.52774 0.0
C225 C 0.91597 0.82147 0.66869 0.0
C226 C 0.02988 0.5364 0.73004 0.0
C227 C 0.84891 0.54324 0.62001 0.0
C228 C 0.08755 0.50208 0.54449 0.0
O229 O 0.13767 0.76048 0.69908 0.0
O230 O 0.12789 0.69336 0.62149 0.0
O231 O 0.58781 0.05856 0.56517 0.0
Mg232 Mg 0.59131 0.05055 0.65756 0.0
O233 O 0.68989 -0.01194 0.53988 0.0
Mg234 Mg 0.75792 0.00135 0.62147 0.0
O235 O 0.65437 0.95596 0.664 0.0
O236 O 0.53845 0.9521 0.69434 0.0
O237 O 0.81241 0.02066 0.70821 0.0
O238 O 0.80405 0.87453 0.63113 0.0
Mg239 Mg 0.94993 -0.0045 0.61422 0.0
O240 O 0.86334 0.05194 0.57607 0.0
O241 O 0.93946 0.02624 0.70137 0.0
O242 O 0.91058 0.88621 0.5857 0.0
O243 O -0.0162 0.07674 0.55483 0.0
C244 C 0.70047 0.16642 0.66424 0.0
C245 C 0.62732 0.02324 0.52791 0.0
C246 C 0.59266 0.91648 0.66897 0.0
C247 C 0.87822 0.02986 0.73006 0.0
C248 C 0.87073 0.84871 0.62027 0.0
C249 C 0.91226 0.08697 0.54453 0.0
O250 O 0.6539 0.13804 0.6991 0.0
O251 O 0.72128 0.12796 0.62164 0.0
O252 O 0.85588 0.32626 0.95583 0.0
Mg253 Mg 0.86385 0.32294 0.86344 0.0
O254 O 0.92657 0.22425 0.98096 0.0
Mg255 Mg 0.9132 0.15643 0.89937 0.0
O256 O -0.0414 0.26011 0.85692 0.0
O257 O -0.03779 0.37601 0.8267 0.0
O258 O 0.89385 0.102 0.81262 0.0
O259 O 0.04005 0.11029 0.88968 0.0
Mg260 Mg 0.91895 -0.03563 0.90663 0.0
O261 O 0.86263 0.05101 0.94477 0.0
O262 O 0.88812 -0.02502 0.81949 0.0
O263 O 0.02823 0.00387 0.9351 0.0
O264 O 0.8377 0.93065 0.9661 0.0
C265 C 0.74806 0.21382 0.85664 0.0
C266 C 0.89135 0.28674 0.99302 0.0
C267 C -0.00202 0.32191 0.85208 0.0
C268 C 0.88455 0.03621 0.7908 0.0
C269 C 0.06577 0.04356 0.90045 0.0
C270 C 0.82756 0.0022 0.97637 0.0
O271 O 0.77646 0.26037 0.82178 0.0
O272 O 0.78654 0.19303 0.89925 0.0
O273 O 0.08782 0.85598 0.95566 0.0
Mg274 Mg 0.09149 0.86417 0.8633 0.0
O275 O 0.18995 0.92626 0.98122 0.0
Mg276 Mg 0.25809 0.91313 0.89962 0.0
O277 O 0.15459 -0.04125 0.85717 0.0
O278 O 0.03882 -0.03726 0.82652 0.0
O279 O 0.31247 0.89397 0.8128 0.0
O280 O 0.30432 0.03996 0.89013 0.0
Mg281 Mg 0.45005 0.91865 0.90669 0.0
O282 O 0.36351 0.86223 0.94497 0.0
O283 O 0.4395 0.88803 0.81952 0.0
O284 O 0.41095 0.02799 0.93527 0.0
O285 O 0.48405 0.83734 0.96598 0.0
C286 C 0.20053 0.74824 0.85664 0.0
C287 C 0.12729 0.89113 0.99303 0.0
C288 C 0.09296 -0.00172 0.85205 0.0
C289 C 0.37821 0.88463 0.79087 0.0
C290 C 0.37112 0.06564 0.90077 0.0
C291 C 0.41253 0.82715 0.97641 0.0
O292 O 0.15414 0.77677 0.82172 0.0
O293 O 0.22128 0.78659 0.89931 0.0
O294 O 0.55833 0.0883 0.95593 0.0
Mg295 Mg 0.55025 0.09174 0.86355 0.0
O296 O 0.48797 0.19047 0.98124 0.0
Mg297 Mg 0.50134 0.25831 0.89963 0.0
O298 O 0.45559 0.1547 0.85729 0.0
O299 O 0.45182 0.03886 0.82676 0.0
O300 O 0.52058 0.31256 0.81277 0.0
O301 O 0.37458 0.30476 0.89006 0.0
Mg302 Mg 0.49624 0.45032 0.90662 0.0
O303 O 0.5524 0.36365 0.94493 0.0
O304 O 0.52679 0.43956 0.81943 0.0
O305 O 0.38678 0.4114 0.93516 0.0
O306 O 0.57766 0.48405 0.96599 0.0
C307 C 0.66622 0.20067 0.85671 0.0
C308 C 0.52302 0.12784 0.99318 0.0
C309 C 0.4162 0.09293 0.85228 0.0
C310 C 0.53003 0.37825 0.79081 0.0
C311 C 0.34905 0.37162 0.90067 0.0
C312 C 0.58762 0.41252 0.97641 0.0
O313 O 0.63768 0.15423 0.82184 0.0
O314 O 0.62789 0.2214 0.89939 0.0
O315 O 0.32625 0.55875 0.95583 0.0
Mg316 Mg 0.32279 0.5507 0.86345 0.0
O317 O 0.22422 0.48812 0.98109 0.0
Mg318 Mg 0.15626 0.50146 0.89952 0.0
O319 O 0.25995 0.45597 0.85709 0.0
O320 O 0.3759 0.45241 0.82672 0.0
O321 O 0.10186 0.52077 0.81271 0.0
O322 O 0.10993 0.37468 0.88987 0.0
Mg323 Mg -0.03578 0.49604 0.90664 0.0
O324 O 0.05088 0.55219 0.94497 0.0
O325 O -0.02516 0.52682 0.81947 0.0
O326 O 0.00325 0.38661 0.9351 0.0
O327 O 0.93043 0.57721 0.96613 0.0
C328 C 0.21365 0.66642 0.85662 0.0
C329 C 0.28678 0.52332 0.99307 0.0
C330 C 0.3218 0.4167 0.85216 0.0
C331 C 0.03612 0.5302 0.79081 0.0
C332 C 0.04313 0.34903 0.90059 0.0
C333 C 0.00198 0.58721 0.97654 0.0
O334 O 0.26014 0.63799 0.82174 0.0
O335 O 0.19301 0.62804 0.89932 0.0
loop_
_geom_bond_atom_site_label_1
_geom_bond_atom_site_label_2
_geom_bond_distance
_geom_bond_site_symmetry_2
_ccdc_geom_bond_type
O0 Mg1 1.990 . S
O0 C14 1.253 . S
Mg1 O0 1.990 . S
Mg1 O4 2.180 . S
Mg1 O5 2.117 . S
Mg1 O19 2.030 . S
O2 Mg3 2.072 . S
O2 C14 1.260 . S
Mg3 O2 2.072 . S
Mg3 O4 2.099 . S
Mg3 O6 2.079 . S
Mg3 O7 2.072 . S
Mg3 O9 2.099 . S
Mg3 O20 2.079 . S
O4 Mg1 2.180 . S
O4 Mg3 2.099 . S
O4 C15 1.279 . S
O5 Mg1 2.117 . S
O5 C15 1.250 . S
O6 Mg3 2.079 . S
O6 C16 1.264 . S
O7 Mg3 2.072 . S
O7 C17 1.260 . S
Mg8 O9 2.180 1_565 S
Mg8 O10 2.030 1_565 S
Mg8 O11 1.990 1_565 S
Mg8 O12 2.117 . S
O9 Mg3 2.099 . S
O9 Mg8 2.180 1_545 S
O9 C18 1.279 . S
O10 Mg8 2.030 1_545 S
O10 C16 1.248 . S
O11 Mg8 1.990 1_545 S
O11 C17 1.253 . S
O12 Mg8 2.117 . S
O12 C18 1.250 1_565 S
C13 O19 1.248 . S
C13 O20 1.264 . S
C14 O0 1.253 . S
C14 O2 1.260 . S
C15 O4 1.279 . S
C15 O5 1.250 . S
C16 O6 1.264 . S
C16 O10 1.248 . S
C17 O7 1.260 . S
C17 O11 1.253 . S
C18 O9 1.279 . S
C18 O12 1.250 1_545 S
O19 Mg1 2.030 . S
O19 C13 1.248 . S
O20 Mg3 2.079 . S
O20 C13 1.264 . S
O21 Mg22 1.990 . S
O21 C35 1.253 . S
Mg22 O21 1.990 . S
Mg22 O25 2.180 . S
Mg22 O26 2.117 . S
Mg22 O40 2.030 . S
O23 Mg24 2.072 . S
O23 C35 1.260 . S
Mg24 O23 2.072 . S
Mg24 O25 2.099 . S
Mg24 O27 2.079 . S
Mg24 O28 2.072 . S
Mg24 O30 2.099 . S
Mg24 O41 2.079 . S
O25 Mg22 2.180 . S
O25 Mg24 2.099 . S
O25 C36 1.279 . S
O26 Mg22 2.117 . S
O26 C36 1.250 . S
O27 Mg24 2.079 . S
O27 C37 1.264 . S
O28 Mg24 2.072 . S
O28 C38 1.260 . S
Mg29 O30 2.180 . S
Mg29 O31 2.030 . S
Mg29 O32 1.990 . S
Mg29 O33 2.117 . S
O30 Mg24 2.099 . S
O30 Mg29 2.180 . S
O30 C39 1.279 . S
O31 Mg29 2.030 . S
O31 C37 1.248 . S
O32 Mg29 1.990 . S
O32 C38 1.253 . S
O33 Mg29 2.117 . S
O33 C39 1.250 . S
C34 O40 1.248 . S
C34 O41 1.264 . S
C35 O21 1.253 . S
C35 O23 1.260 . S
C36 O25 1.279 . S
C36 O26 1.250 . S
C37 O27 1.264 . S
C37 O31 1.248 . S
C38 O28 1.260 . S
C38 O32 1.253 . S
C39 O30 1.279 . S
C39 O33 1.250 . S
O40 Mg22 2.030 . S
O40 C34 1.248 . S
O41 Mg24 2.079 . S
O41 C34 1.264 . S
O42 Mg43 1.990 1_455 S
O42 C56 1.253 . S
Mg43 O42 1.990 1_655 S
Mg43 O46 2.180 . S
Mg43 O47 2.117 . S
Mg43 O61 2.030 . S
O44 Mg45 2.072 1_455 S
O44 C56 1.260 . S
Mg45 O44 2.072 1_655 S
Mg45 O46 2.099 . S
Mg45 O48 2.079 . S
Mg45 O49 2.072 . S
Mg45 O51 2.099 . S
Mg45 O62 2.079 . S
O46 Mg43 2.180 . S
O46 Mg45 2.099 . S
O46 C57 1.279 . S
O47 Mg43 2.117 . S
O47 C57 1.250 . S
O48 Mg45 2.079 . S
O48 C58 1.264 . S
O49 Mg45 2.072 . S
O49 C59 1.260 . S
Mg50 O51 2.180 . S
Mg50 O52 2.030 . S
Mg50 O53 1.990 . S
Mg50 O54 2.117 1_655 S
O51 Mg45 2.099 . S
O51 Mg50 2.180 . S
O51 C60 1.279 1_655 S
O52 Mg50 2.030 . S
O52 C58 1.248 . S
O53 Mg50 1.990 . S
O53 C59 1.253 . S
O54 Mg50 2.117 1_455 S
O54 C60 1.250 . S
C55 O61 1.248 . S
C55 O62 1.264 . S
C56 O42 1.253 . S
C56 O44 1.260 . S
C57 O46 1.279 . S
C57 O47 1.250 . S
C58 O48 1.264 . S
C58 O52 1.248 . S
C59 O49 1.260 . S
C59 O53 1.253 . S
C60 O51 1.279 1_455 S
C60 O54 1.250 . S
O61 Mg43 2.030 . S
O61 C55 1.248 . S
O62 Mg45 2.079 . S
O62 C55 1.264 . S
O63 Mg64 1.990 1_445 S
O63 C77 1.253 . S
Mg64 O63 1.990 1_665 S
Mg64 O67 2.180 1_655 S
Mg64 O68 2.117 . S
Mg64 O82 2.030 1_655 S
O65 Mg66 2.072 1_545 S
O65 C77 1.260 . S
Mg66 O65 2.072 1_565 S
Mg66 O67 2.099 . S
Mg66 O69 2.079 . S
Mg66 O70 2.072 . S
Mg66 O72 2.099 . S
Mg66 O83 2.079 . S
O67 Mg64 2.180 1_455 S
O67 Mg66 2.099 . S
O67 C78 1.279 . S
O68 Mg64 2.117 . S
O68 C78 1.250 1_655 S
O69 Mg66 2.079 . S
O69 C79 1.264 . S
O70 Mg66 2.072 . S
O70 C80 1.260 . S
Mg71 O72 2.180 . S
Mg71 O73 2.030 . S
Mg71 O74 1.990 . S
Mg71 O75 2.117 1_565 S
O72 Mg66 2.099 . S
O72 Mg71 2.180 . S
O72 C81 1.279 1_565 S
O73 Mg71 2.030 . S
O73 C79 1.248 . S
O74 Mg71 1.990 . S
O74 C80 1.253 . S
O75 Mg71 2.117 1_545 S
O75 C81 1.250 . S
C76 O82 1.248 . S
C76 O83 1.264 . S
C77 O63 1.253 . S
C77 O65 1.260 . S
C78 O67 1.279 . S
C78 O68 1.250 1_455 S
C79 O69 1.264 . S
C79 O73 1.248 . S
C80 O70 1.260 . S
C80 O74 1.253 . S
C81 O72 1.279 1_545 S
C81 O75 1.250 . S
O82 Mg64 2.030 1_455 S
O82 C76 1.248 . S
O83 Mg66 2.079 . S
O83 C76 1.264 . S
O84 Mg85 1.990 . S
O84 C98 1.253 1_554 S
Mg85 O84 1.990 . S
Mg85 O88 2.180 . S
Mg85 O89 2.117 1_455 S
Mg85 O103 2.030 . S
O86 Mg87 2.072 . S
O86 C98 1.260 1_554 S
Mg87 O86 2.072 . S
Mg87 O88 2.099 . S
Mg87 O90 2.079 . S
Mg87 O91 2.072 1_455 S
Mg87 O93 2.099 . S
Mg87 O104 2.079 . S
O88 Mg85 2.180 . S
O88 Mg87 2.099 . S
O88 C99 1.279 1_455 S
O89 Mg85 2.117 1_655 S
O89 C99 1.250 . S
O90 Mg87 2.079 . S
O90 C100 1.264 . S
O91 Mg87 2.072 1_655 S
O91 C101 1.260 . S
Mg92 O93 2.180 1_545 S
Mg92 O94 2.030 1_545 S
Mg92 O95 1.990 1_445 S
Mg92 O96 2.117 . S
O93 Mg87 2.099 . S
O93 Mg92 2.180 1_565 S
O93 C102 1.279 . S
O94 Mg92 2.030 1_565 S
O94 C100 1.248 . S
O95 Mg92 1.990 1_665 S
O95 C101 1.253 . S
O96 Mg92 2.117 . S
O96 C102 1.250 1_545 S
C97 O103 1.248 . S
C97 O104 1.264 . S
C98 O84 1.253 1_556 S
C98 O86 1.260 1_556 S
C99 O88 1.279 1_655 S
C99 O89 1.250 . S
C100 O90 1.264 . S
C100 O94 1.248 . S
C101 O91 1.260 . S
C101 O95 1.253 . S
C102 O93 1.279 . S
C102 O96 1.250 1_565 S
O103 Mg85 2.030 . S
O103 C97 1.248 . S
O104 Mg87 2.079 . S
O104 C97 1.264 . S
O105 Mg106 1.990 1_565 S
O105 C119 1.253 . S
Mg106 O105 1.990 1_545 S
Mg106 O109 2.180 . S
Mg106 O110 2.117 . S
Mg106 O124 2.030 . S
O107 Mg108 2.072 1_565 S
O107 C119 1.260 . S
Mg108 O107 2.072 1_545 S
Mg108 O109 2.099 . S
Mg108 O111 2.079 . S
Mg108 O112 2.072 . S
Mg108 O114 2.099 . S
Mg108 O125 2.079 . S
O109 Mg106 2.180 . S
O109 Mg108 2.099 . S
O109 C120 1.279 . S
O110 Mg106 2.117 . S
O110 C120 1.250 . S
O111 Mg108 2.079 . S
O111 C121 1.264 . S
O112 Mg108 2.072 . S
O112 C122 1.260 1_554 S
Mg113 O114 2.180 . S
Mg113 O115 2.030 . S
Mg113 O116 1.990 . S
Mg113 O117 2.117 1_545 S
O114 Mg108 2.099 . S
O114 Mg113 2.180 . S
O114 C123 1.279 1_545 S
O115 Mg113 2.030 . S
O115 C121 1.248 . S
O116 Mg113 1.990 . S
O116 C122 1.253 1_554 S
O117 Mg113 2.117 1_565 S
O117 C123 1.250 . S
C118 O124 1.248 . S
C118 O125 1.264 . S
C119 O105 1.253 . S
C119 O107 1.260 . S
C120 O109 1.279 . S
C120 O110 1.250 . S
C121 O111 1.264 . S
C121 O115 1.248 . S
C122 O112 1.260 1_556 S
C122 O116 1.253 1_556 S
C123 O114 1.279 1_565 S
C123 O117 1.250 . S
O124 Mg106 2.030 . S
O124 C118 1.248 . S
O125 Mg108 2.079 . S
O125 C118 1.264 . S
O126 Mg127 1.990 . S
O126 C140 1.253 1_554 S
Mg127 O126 1.990 . S
Mg127 O130 2.180 . S
Mg127 O131 2.117 . S
Mg127 O145 2.030 . S
O128 Mg129 2.072 . S
O128 C140 1.260 1_554 S
Mg129 O128 2.072 . S
Mg129 O130 2.099 . S
Mg129 O132 2.079 . S
Mg129 O133 2.072 . S
Mg129 O135 2.099 . S
Mg129 O146 2.079 . S
O130 Mg127 2.180 . S
O130 Mg129 2.099 . S
O130 C141 1.279 . S
O131 Mg127 2.117 . S
O131 C141 1.250 . S
O132 Mg129 2.079 . S
O132 C142 1.264 . S
O133 Mg129 2.072 . S
O133 C143 1.260 . S
Mg134 O135 2.180 . S
Mg134 O136 2.030 . S
Mg134 O137 1.990 . S
Mg134 O138 2.117 . S
O135 Mg129 2.099 . S
O135 Mg134 2.180 . S
O135 C144 1.279 . S
O136 Mg134 2.030 . S
O136 C142 1.248 . S
O137 Mg134 1.990 . S
O137 C143 1.253 . S
O138 Mg134 2.117 . S
O138 C144 1.250 . S
C139 O145 1.248 . S
C139 O146 1.264 . S
C140 O126 1.253 1_556 S
C140 O128 1.260 1_556 S
C141 O130 1.279 . S
C141 O131 1.250 . S
C142 O132 1.264 . S
C142 O136 1.248 . S
C143 O133 1.260 . S
C143 O137 1.253 . S
C144 O135 1.279 . S
C144 O138 1.250 . S
O145 Mg127 2.030 . S
O145 C139 1.248 . S
O146 Mg129 2.079 . S
O146 C139 1.264 . S
O147 Mg148 1.990 . S
O147 C161 1.253 1_554 S
Mg148 O147 1.990 . S
Mg148 O151 2.180 . S
Mg148 O152 2.117 . S
Mg148 O166 2.030 . S
O149 Mg150 2.072 . S
O149 C161 1.260 1_554 S
Mg150 O149 2.072 . S
Mg150 O151 2.099 . S
Mg150 O153 2.079 . S
Mg150 O154 2.072 . S
Mg150 O156 2.099 . S
Mg150 O167 2.079 . S
O151 Mg148 2.180 . S
O151 Mg150 2.099 . S
O151 C162 1.279 . S
O152 Mg148 2.117 . S
O152 C162 1.250 . S
O153 Mg150 2.079 . S
O153 C163 1.264 . S
O154 Mg150 2.072 . S
O154 C164 1.260 . S
Mg155 O156 2.180 1_455 S
Mg155 O157 2.030 1_455 S
Mg155 O158 1.990 1_455 S
Mg155 O159 2.117 . S
O156 Mg150 2.099 . S
O156 Mg155 2.180 1_655 S
O156 C165 1.279 . S
O157 Mg155 2.030 1_655 S
O157 C163 1.248 . S
O158 Mg155 1.990 1_655 S
O158 C164 1.253 . S
O159 Mg155 2.117 . S
O159 C165 1.250 1_455 S
C160 O166 1.248 . S
C160 O167 1.264 . S
C161 O147 1.253 1_556 S
C161 O149 1.260 1_556 S
C162 O151 1.279 . S
C162 O152 1.250 . S
C163 O153 1.264 . S
C163 O157 1.248 . S
C164 O154 1.260 . S
C164 O158 1.253 . S
C165 O156 1.279 . S
C165 O159 1.250 1_655 S
O166 Mg148 2.030 . S
O166 C160 1.248 . S
O167 Mg150 2.079 . S
O167 C160 1.264 . S
O168 Mg169 1.990 . S
O168 C182 1.253 . S
Mg169 O168 1.990 . S
Mg169 O172 2.180 . S
Mg169 O173 2.117 . S
Mg169 O187 2.030 . S
O170 Mg171 2.072 . S
O170 C182 1.260 . S
Mg171 O170 2.072 . S
Mg171 O172 2.099 . S
Mg171 O174 2.079 . S
Mg171 O175 2.072 . S
Mg171 O177 2.099 . S
Mg171 O188 2.079 . S
O172 Mg169 2.180 . S
O172 Mg171 2.099 . S
O172 C183 1.279 . S
O173 Mg169 2.117 . S
O173 C183 1.250 . S
O174 Mg171 2.079 . S
O174 C184 1.264 . S
O175 Mg171 2.072 . S
O175 C185 1.260 . S
Mg176 O177 2.180 1_545 S
Mg176 O178 2.030 1_545 S
Mg176 O179 1.990 1_545 S
Mg176 O180 2.117 . S
O177 Mg171 2.099 . S
O177 Mg176 2.180 1_565 S
O177 C186 1.279 . S
O178 Mg176 2.030 1_565 S
O178 C184 1.248 . S
O179 Mg176 1.990 1_565 S
O179 C185 1.253 . S
O180 Mg176 2.117 . S
O180 C186 1.250 1_545 S
C181 O187 1.248 . S
C181 O188 1.264 . S
C182 O168 1.253 . S
C182 O170 1.260 . S
C183 O172 1.279 . S
C183 O173 1.250 . S
C184 O174 1.264 . S
C184 O178 1.248 . S
C185 O175 1.260 . S
C185 O179 1.253 . S
C186 O177 1.279 . S
C186 O180 1.250 1_565 S
O187 Mg169 2.030 . S
O187 C181 1.248 . S
O188 Mg171 2.079 . S
O188 C181 1.264 . S
O189 Mg190 1.990 . S
O189 C203 1.253 . S
Mg190 O189 1.990 . S
Mg190 O193 2.180 . S
Mg190 O194 2.117 . S
Mg190 O208 2.030 . S
O191 Mg192 2.072 . S
O191 C203 1.260 . S
Mg192 O191 2.072 . S
Mg192 O193 2.099 . S
Mg192 O195 2.079 . S
Mg192 O196 2.072 . S
Mg192 O198 2.099 . S
Mg192 O209 2.079 . S
O193 Mg190 2.180 . S
O193 Mg192 2.099 . S
O193 C204 1.279 . S
O194 Mg190 2.117 . S
O194 C204 1.250 . S
O195 Mg192 2.079 . S
O195 C205 1.264 . S
O196 Mg192 2.072 . S
O196 C206 1.260 . S
Mg197 O198 2.180 . S
Mg197 O199 2.030 . S
Mg197 O200 1.990 . S
Mg197 O201 2.117 . S
O198 Mg192 2.099 . S
O198 Mg197 2.180 . S
O198 C207 1.279 . S
O199 Mg197 2.030 . S
O199 C205 1.248 . S
O200 Mg197 1.990 . S
O200 C206 1.253 . S
O201 Mg197 2.117 . S
O201 C207 1.250 . S
C202 O208 1.248 . S
C202 O209 1.264 . S
C203 O189 1.253 . S
C203 O191 1.260 . S
C204 O193 1.279 . S
C204 O194 1.250 . S
C205 O195 1.264 . S
C205 O199 1.248 . S
C206 O196 1.260 . S
C206 O200 1.253 . S
C207 O198 1.279 . S
C207 O201 1.250 . S
O208 Mg190 2.030 . S
O208 C202 1.248 . S
O209 Mg192 2.079 . S
O209 C202 1.264 . S
O210 Mg211 1.990 . S
O210 C224 1.253 . S
Mg211 O210 1.990 . S
Mg211 O214 2.180 . S
Mg211 O215 2.117 1_455 S
Mg211 O229 2.030 . S
O212 Mg213 2.072 . S
O212 C224 1.260 . S
Mg213 O212 2.072 . S
Mg213 O214 2.099 . S
Mg213 O216 2.079 . S
Mg213 O217 2.072 1_455 S
Mg213 O219 2.099 . S
Mg213 O230 2.079 . S
O214 Mg211 2.180 . S
O214 Mg213 2.099 . S
O214 C225 1.279 1_455 S
O215 Mg211 2.117 1_655 S
O215 C225 1.250 . S
O216 Mg213 2.079 . S
O216 C226 1.264 . S
O217 Mg213 2.072 1_655 S
O217 C227 1.260 . S
Mg218 O219 2.180 . S
Mg218 O220 2.030 . S
Mg218 O221 1.990 1_455 S
Mg218 O222 2.117 . S
O219 Mg213 2.099 . S
O219 Mg218 2.180 . S
O219 C228 1.279 . S
O220 Mg218 2.030 . S
O220 C226 1.248 . S
O221 Mg218 1.990 1_655 S
O221 C227 1.253 . S
O222 Mg218 2.117 . S
O222 C228 1.250 . S
C223 O229 1.248 . S
C223 O230 1.264 . S
C224 O210 1.253 . S
C224 O212 1.260 . S
C225 O214 1.279 1_655 S
C225 O215 1.250 . S
C226 O216 1.264 . S
C226 O220 1.248 . S
C227 O217 1.260 . S
C227 O221 1.253 . S
C228 O219 1.279 . S
C228 O222 1.250 . S
O229 Mg211 2.030 . S
O229 C223 1.248 . S
O230 Mg213 2.079 . S
O230 C223 1.264 . S
O231 Mg232 1.990 . S
O231 C245 1.253 . S
Mg232 O231 1.990 . S
Mg232 O235 2.180 . S
Mg232 O236 2.117 1_545 S
Mg232 O250 2.030 . S
O233 Mg234 2.072 . S
O233 C245 1.260 . S
Mg234 O233 2.072 . S
Mg234 O235 2.099 . S
Mg234 O237 2.079 . S
Mg234 O238 2.072 1_545 S
Mg234 O240 2.099 . S
Mg234 O251 2.079 . S
O235 Mg232 2.180 . S
O235 Mg234 2.099 . S
O235 C246 1.279 1_545 S
O236 Mg232 2.117 1_565 S
O236 C246 1.250 . S
O237 Mg234 2.079 . S
O237 C247 1.264 . S
O238 Mg234 2.072 1_565 S
O238 C248 1.260 . S
Mg239 O240 2.180 1_455 S
Mg239 O241 2.030 1_455 S
Mg239 O242 1.990 1_445 S
Mg239 O243 2.117 . S
O240 Mg234 2.099 . S
O240 Mg239 2.180 1_655 S
O240 C249 1.279 . S
O241 Mg239 2.030 1_655 S
O241 C247 1.248 . S
O242 Mg239 1.990 1_665 S
O242 C248 1.253 . S
O243 Mg239 2.117 . S
O243 C249 1.250 1_455 S
C244 O250 1.248 . S
C244 O251 1.264 . S
C245 O231 1.253 . S
C245 O233 1.260 . S
C246 O235 1.279 1_565 S
C246 O236 1.250 . S
C247 O237 1.264 . S
C247 O241 1.248 . S
C248 O238 1.260 . S
C248 O242 1.253 . S
C249 O240 1.279 . S
C249 O243 1.250 1_655 S
O250 Mg232 2.030 . S
O250 C244 1.248 . S
O251 Mg234 2.079 . S
O251 C244 1.264 . S
O252 Mg253 1.990 . S
O252 C266 1.253 1_556 S
Mg253 O252 1.990 . S
Mg253 O256 2.180 . S
Mg253 O257 2.117 1_655 S
Mg253 O271 2.030 . S
O254 Mg255 2.072 . S
O254 C266 1.260 1_556 S
Mg255 O254 2.072 . S
Mg255 O256 2.099 . S
Mg255 O258 2.079 . S
Mg255 O259 2.072 1_655 S
Mg255 O261 2.099 . S
Mg255 O272 2.079 . S
O256 Mg253 2.180 . S
O256 Mg255 2.099 . S
O256 C267 1.279 1_655 S
O257 Mg253 2.117 1_455 S
O257 C267 1.250 . S
O258 Mg255 2.079 . S
O258 C268 1.264 . S
O259 Mg255 2.072 1_455 S
O259 C269 1.260 . S
Mg260 O261 2.180 1_565 S
Mg260 O262 2.030 1_565 S
Mg260 O263 1.990 1_665 S
Mg260 O264 2.117 . S
O261 Mg255 2.099 . S
O261 Mg260 2.180 1_545 S
O261 C270 1.279 . S
O262 Mg260 2.030 1_545 S
O262 C268 1.248 . S
O263 Mg260 1.990 1_445 S
O263 C269 1.253 . S
O264 Mg260 2.117 . S
O264 C270 1.250 1_565 S
C265 O271 1.248 . S
C265 O272 1.264 . S
C266 O252 1.253 1_554 S
C266 O254 1.260 1_554 S
C267 O256 1.279 1_455 S
C267 O257 1.250 . S
C268 O258 1.264 . S
C268 O262 1.248 . S
C269 O259 1.260 . S
C269 O263 1.253 . S
C270 O261 1.279 . S
C270 O264 1.250 1_545 S
O271 Mg253 2.030 . S
O271 C265 1.248 . S
O272 Mg255 2.079 . S
O272 C265 1.264 . S
O273 Mg274 1.990 . S
O273 C287 1.253 1_556 S
Mg274 O273 1.990 . S
Mg274 O277 2.180 . S
Mg274 O278 2.117 1_565 S
Mg274 O292 2.030 . S
O275 Mg276 2.072 . S
O275 C287 1.260 1_556 S
Mg276 O275 2.072 . S
Mg276 O277 2.099 . S
Mg276 O279 2.079 . S
Mg276 O280 2.072 1_565 S
Mg276 O282 2.099 . S
Mg276 O293 2.079 . S
O277 Mg274 2.180 . S
O277 Mg276 2.099 . S
O277 C288 1.279 1_565 S
O278 Mg274 2.117 1_545 S
O278 C288 1.250 . S
O279 Mg276 2.079 . S
O279 C289 1.264 . S
O280 Mg276 2.072 1_545 S
O280 C290 1.260 . S
Mg281 O282 2.180 . S
Mg281 O283 2.030 . S
Mg281 O284 1.990 1_565 S
Mg281 O285 2.117 . S
O282 Mg276 2.099 . S
O282 Mg281 2.180 . S
O282 C291 1.279 . S
O283 Mg281 2.030 . S
O283 C289 1.248 . S
O284 Mg281 1.990 1_545 S
O284 C290 1.253 . S
O285 Mg281 2.117 . S
O285 C291 1.250 . S
C286 O292 1.248 . S
C286 O293 1.264 . S
C287 O273 1.253 1_554 S
C287 O275 1.260 1_554 S
C288 O277 1.279 1_545 S
C288 O278 1.250 . S
C289 O279 1.264 . S
C289 O283 1.248 . S
C290 O280 1.260 . S
C290 O284 1.253 . S
C291 O282 1.279 . S
C291 O285 1.250 . S
O292 Mg274 2.030 . S
O292 C286 1.248 . S
O293 Mg276 2.079 . S
O293 C286 1.264 . S
O294 Mg295 1.990 . S
O294 C308 1.253 1_556 S
Mg295 O294 1.990 . S
Mg295 O298 2.180 . S
Mg295 O299 2.117 . S
Mg295 O313 2.030 . S
O296 Mg297 2.072 . S
O296 C308 1.260 1_556 S
Mg297 O296 2.072 . S
Mg297 O298 2.099 . S
Mg297 O300 2.079 . S
Mg297 O301 2.072 . S
Mg297 O303 2.099 . S
Mg297 O314 2.079 . S
O298 Mg295 2.180 . S
O298 Mg297 2.099 . S
O298 C309 1.279 . S
O299 Mg295 2.117 . S
O299 C309 1.250 . S
O300 Mg297 2.079 . S
O300 C310 1.264 . S
O301 Mg297 2.072 . S
O301 C311 1.260 . S
Mg302 O303 2.180 . S
Mg302 O304 2.030 . S
Mg302 O305 1.990 . S
Mg302 O306 2.117 . S
O303 Mg297 2.099 . S
O303 Mg302 2.180 . S
O303 C312 1.279 . S
O304 Mg302 2.030 . S
O304 C310 1.248 . S
O305 Mg302 1.990 . S
O305 C311 1.253 . S
O306 Mg302 2.117 . S
O306 C312 1.250 . S
C307 O313 1.248 . S
C307 O314 1.264 . S
C308 O294 1.253 1_554 S
C308 O296 1.260 1_554 S
C309 O298 1.279 . S
C309 O299 1.250 . S
C310 O300 1.264 . S
C310 O304 1.248 . S
C311 O301 1.260 . S
C311 O305 1.253 . S
C312 O303 1.279 . S
C312 O306 1.250 . S
O313 Mg295 2.030 . S
O313 C307 1.248 . S
O314 Mg297 2.079 . S
O314 C307 1.264 . S
O315 Mg316 1.990 . S
O315 C329 1.253 1_556 S
Mg316 O315 1.990 . S
Mg316 O319 2.180 . S
Mg316 O320 2.117 . S
Mg316 O334 2.030 . S
O317 Mg318 2.072 . S
O317 C329 1.260 1_556 S
Mg318 O317 2.072 . S
Mg318 O319 2.099 . S
Mg318 O321 2.079 . S
Mg318 O322 2.072 . S
Mg318 O324 2.099 . S
Mg318 O335 2.079 . S
O319 Mg316 2.180 . S
O319 Mg318 2.099 . S
O319 C330 1.279 . S
O320 Mg316 2.117 . S
O320 C330 1.250 . S
O321 Mg318 2.079 . S
O321 C331 1.264 . S
O322 Mg318 2.072 . S
O322 C332 1.260 . S
Mg323 O324 2.180 1_655 S
Mg323 O325 2.030 1_655 S
Mg323 O326 1.990 1_655 S
Mg323 O327 2.117 . S
O324 Mg318 2.099 . S
O324 Mg323 2.180 1_455 S
O324 C333 1.279 . S
O325 Mg323 2.030 1_455 S
O325 C331 1.248 . S
O326 Mg323 1.990 1_455 S
O326 C332 1.253 . S
O327 Mg323 2.117 . S
O327 C333 1.250 1_655 S
C328 O334 1.248 . S
C328 O335 1.264 . S
C329 O315 1.253 1_554 S
C329 O317 1.260 1_554 S
C330 O319 1.279 . S
C330 O320 1.250 . S
C331 O321 1.264 . S
C331 O325 1.248 . S
C332 O322 1.260 . S
C332 O326 1.253 . S
C333 O324 1.279 . S
C333 O327 1.250 1_455 S
O334 Mg316 2.030 . S
O334 C328 1.248 . S
O335 Mg318 2.079 . S
O335 C328 1.264 . S
C16 C118 1.972 . S
C142 C37 1.972 . S
C55 C163 1.972 . S
C76 C100 1.972 . S
C289 C184 1.972 . S
C310 C205 1.972 . S
C226 C331 1.972 . S
C247 C268 1.971 . S
C17 C81 1.558 . S
C38 C15 1.558 . S
C56 C36 1.558 . S
C77 C60 1.558 . S
C101 C123 1.558 . S
C141 C119 1.558 . S
C143 C162 1.558 . S
C99 C164 1.558 . S
C246 C185 1.558 . S
C206 C183 1.558 . S
C227 C204 1.558 . S
C248 C225 1.558 . S
C269 C288 1.558 . S
C290 C309 1.558 . S
C311 C330 1.558 . S
C332 C267 1.558 . S
C13 C58 1.874 . S
C34 C79 1.874 . S
C139 C97 1.874 . S
C160 C121 1.874 . S
C223 C181 1.874 . S
C244 C202 1.874 . S
C265 C307 1.874 . S
C286 C328 1.874 . S
C18 C245 1.718 . S
C182 C39 1.718 . S
C57 C203 1.718 . S
C224 C78 1.718 . S
C287 C102 1.718 . S
C120 C308 1.718 . S
C329 C144 1.718 . S
C165 C266 1.718 . S
C186 C80 1.718 . S
C207 C14 1.718 . S
C35 C228 1.718 . S
C249 C59 1.718 . S
C270 C122 1.718 . S
C291 C140 1.718 . S
C161 C312 1.718 . S
C98 C333 1.718 . S
