# Generated by pormake.
# Topology wme, (6)-cn, num edge types: 1
# Building blocks:
#     Node 0, Type 0, BuildingBlock: KUMBOL_clean_sbu_0, # of connection points: 6
#     Node 1, Type 0, BuildingBlock: KUMBOL_clean_sbu_0, # of connection points: 6
#     Node 2, Type 0, BuildingBlock: KUMBOL_clean_sbu_0, # of connection points: 6
#     Node 3, Type 0, BuildingBlock: KUMBOL_clean_sbu_0, # of connection points: 6
#     Node 4, Type 0, BuildingBlock: KUMBOL_clean_sbu_0, # of connection points: 6
#     Node 5, Type 0, BuildingBlock: KUMBOL_clean_sbu_0, # of connection points: 6
#     Node 6, Type 0, BuildingBlock: KUMBOL_clean_sbu_0, # of connection points: 6
#     Node 7, Type 0, BuildingBlock: KUMBOL_clean_sbu_0, # of connection points: 6
#     Node 8, Type 0, BuildingBlock: KUMBOL_clean_sbu_0, # of connection points: 6
#     Node 9, Type 0, BuildingBlock: KUMBOL_clean_sbu_0, # of connection points: 6
#     Node 10, Type 0, BuildingBlock: KUMBOL_clean_sbu_0, # of connection points: 6
#     Node 11, Type 0, BuildingBlock: KUMBOL_clean_sbu_0, # of connection points: 6
#     Edge 12, Type (0, 0), BuildingBlock: ZUJKAS_clean_linker_0, # of connection points: 2
#     Edge 13, Type (0, 0), BuildingBlock: ZUJKAS_clean_linker_0, # of connection points: 2
#     Edge 14, Type (0, 0), BuildingBlock: ZUJKAS_clean_linker_0, # of connection points: 2
#     Edge 15, Type (0, 0), BuildingBlock: ZUJKAS_clean_linker_0, # of connection points: 2
#     Edge 16, Type (0, 0), BuildingBlock: ZUJKAS_clean_linker_0, # of connection points: 2
#     Edge 17, Type (0, 0), BuildingBlock: ZUJKAS_clean_linker_0, # of connection points: 2
#     Edge 18, Type (0, 0), BuildingBlock: ZUJKAS_clean_linker_0, # of connection points: 2
#     Edge 19, Type (0, 0), BuildingBlock: ZUJKAS_clean_linker_0, # of connection points: 2
#     Edge 20, Type (0, 0), BuildingBlock: ZUJKAS_clean_linker_0, # of connection points: 2
#     Edge 21, Type (0, 0), BuildingBlock: ZUJKAS_clean_linker_0, # of connection points: 2
#     Edge 22, Type (0, 0), BuildingBlock: ZUJKAS_clean_linker_0, # of connection points: 2
#     Edge 23, Type (0, 0), BuildingBlock: ZUJKAS_clean_linker_0, # of connection points: 2
#     Edge 24, Type (0, 0), BuildingBlock: ZUJKAS_clean_linker_0, # of connection points: 2
#     Edge 25, Type (0, 0), BuildingBlock: ZUJKAS_clean_linker_0, # of connection points: 2
#     Edge 26, Type (0, 0), BuildingBlock: ZUJKAS_clean_linker_0, # of connection points: 2
#     Edge 27, Type (0, 0), BuildingBlock: ZUJKAS_clean_linker_0, # of connection points: 2
#     Edge 28, Type (0, 0), BuildingBlock: ZUJKAS_clean_linker_0, # of connection points: 2
#     Edge 29, Type (0, 0), BuildingBlock: ZUJKAS_clean_linker_0, # of connection points: 2
#     Edge 30, Type (0, 0), BuildingBlock: ZUJKAS_clean_linker_0, # of connection points: 2
#     Edge 31, Type (0, 0), BuildingBlock: ZUJKAS_clean_linker_0, # of connection points: 2
#     Edge 32, Type (0, 0), BuildingBlock: ZUJKAS_clean_linker_0, # of connection points: 2
#     Edge 33, Type (0, 0), BuildingBlock: ZUJKAS_clean_linker_0, # of connection points: 2
#     Edge 34, Type (0, 0), BuildingBlock: ZUJKAS_clean_linker_0, # of connection points: 2
#     Edge 35, Type (0, 0), BuildingBlock: ZUJKAS_clean_linker_0, # of connection points: 2
#     Edge 36, Type (0, 0), BuildingBlock: ZUJKAS_clean_linker_0, # of connection points: 2
#     Edge 37, Type (0, 0), BuildingBlock: ZUJKAS_clean_linker_0, # of connection points: 2
#     Edge 38, Type (0, 0), BuildingBlock: ZUJKAS_clean_linker_0, # of connection points: 2
#     Edge 39, Type (0, 0), BuildingBlock: ZUJKAS_clean_linker_0, # of connection points: 2
#     Edge 40, Type (0, 0), BuildingBlock: ZUJKAS_clean_linker_0, # of connection points: 2
#     Edge 41, Type (0, 0), BuildingBlock: ZUJKAS_clean_linker_0, # of connection points: 2
#     Edge 42, Type (0, 0), BuildingBlock: ZUJKAS_clean_linker_0, # of connection points: 2
#     Edge 43, Type (0, 0), BuildingBlock: ZUJKAS_clean_linker_0, # of connection points: 2
#     Edge 44, Type (0, 0), BuildingBlock: ZUJKAS_clean_linker_0, # of connection points: 2
#     Edge 45, Type (0, 0), BuildingBlock: ZUJKAS_clean_linker_0, # of connection points: 2
#     Edge 46, Type (0, 0), BuildingBlock: ZUJKAS_clean_linker_0, # of connection points: 2
#     Edge 47, Type (0, 0), BuildingBlock: ZUJKAS_clean_linker_0, # of connection points: 2
# Relax obj value: 0.097
# Max RMSD: 0.203
# Mean RMSD: 0.203
data_MOF--net-wme--node1-KUMBOL_clean_sbu_0--edge1-ZUJKAS_clean_linker_0
_symmetry_space_group_name_H-M    P1
_symmetry_Int_Tables_number       1
_symmetry_cell_setting            triclinic
loop_
_symmetry_equiv_pos_as_xyz
'x, y, z'
_cell_length_a     47.098307
_cell_length_b     47.115376
_cell_length_c     71.287122
_cell_angle_alpha  89.975239
_cell_angle_beta   89.971493
_cell_angle_gamma 119.99532
loop_
_atom_site_label
_atom_site_type_symbol
_atom_site_fract_x
_atom_site_fract_y
_atom_site_fract_z
_atom_type_partial_charge
Gd0 Gd 0.24861 0.32883 0.13256 0.0
Gd1 Gd 0.19892 0.36184 0.11126 0.0
C2 C 0.0905 0.29859 0.09642 0.0
C3 C 0.09214 0.29634 0.06241 0.0
C4 C 0.14255 0.3271 0.08021 0.0
C5 C 0.12501 0.31761 0.09678 0.0
C6 C 0.12628 0.31723 0.06281 0.0
C7 C 0.07425 0.28714 0.0792 0.0
C8 C 0.07329 0.29288 0.11329 0.0
C9 C 0.09047 0.30668 0.12986 0.0
N10 N 0.14147 0.32946 0.11314 0.0
C11 C 0.12472 0.32528 0.12949 0.0
H12 H 0.13768 0.33583 0.1424 0.0
C13 C 0.19288 0.36238 0.06517 0.0
N14 N 0.17526 0.34828 0.08113 0.0
C15 C 0.17801 0.35281 0.04756 0.0
C16 C 0.14463 0.32979 0.04635 0.0
H17 H 0.21873 0.38013 0.06604 0.0
H18 H 0.04779 0.27209 0.07867 0.0
H19 H 0.31192 0.36378 0.10246 0.0
H20 H 0.04676 0.27866 0.11357 0.0
H21 H 0.07737 0.30295 0.14293 0.0
H22 H 0.07922 0.28822 0.04918 0.0
H23 H 0.22544 0.30546 0.17715 0.0
H24 H 0.40058 0.41626 0.13385 0.0
H25 H 0.37186 0.39885 0.10336 0.0
H26 H 0.3644 0.3914 0.19766 0.0
H27 H 0.19226 0.36329 0.03493 0.0
H28 H 0.13307 0.32272 0.0327 0.0
H29 H 0.39752 0.41372 0.16903 0.0
H30 H 0.25 0.31701 0.20865 0.0
N31 N 0.30619 0.36169 0.13213 0.0
C32 C 0.37415 0.40086 0.13353 0.0
C33 C 0.35804 0.391 0.11632 0.0
C34 C 0.35602 0.39008 0.15015 0.0
C35 C 0.32166 0.37001 0.14896 0.0
C36 C 0.32393 0.37101 0.11588 0.0
N37 N 0.27039 0.33711 0.16315 0.0
C38 C 0.30316 0.3573 0.165 0.0
C39 C 0.26526 0.32853 0.19649 0.0
C40 C 0.2988 0.35013 0.19865 0.0
C41 C 0.25144 0.32196 0.17855 0.0
C42 C 0.31829 0.36452 0.18278 0.0
H43 H 0.30945 0.35513 0.21256 0.0
O44 O 0.23164 0.27795 0.13964 0.0
O45 O 0.19943 0.31839 0.12265 0.0
O46 O 0.19805 0.3614 0.14369 0.0
O47 O 0.24724 0.3645 0.15267 0.0
O48 O 0.20019 0.29411 0.14655 0.0
O49 O 0.26682 0.30136 0.11718 0.0
O50 O 0.20894 0.40923 0.10044 0.0
O51 O 0.24776 0.37261 0.12149 0.0
O52 O 0.25277 0.33259 0.10097 0.0
O53 O 0.20333 0.32686 0.09074 0.0
O54 O 0.24765 0.39806 0.0981 0.0
O55 O 0.18369 0.3917 0.12686 0.0
C56 C 0.18149 0.29779 0.13488 0.0
C57 C 0.35235 0.3854 0.18412 0.0
C58 C 0.37119 0.39813 0.16783 0.0
C59 C 0.25014 0.27485 0.12719 0.0
C60 C 0.26727 0.25758 0.13338 0.0
C61 C 0.29856 0.27469 0.14141 0.0
C62 C 0.2517 0.22329 0.13146 0.0
C63 C 0.26725 0.20593 0.13751 0.0
C64 C 0.31425 0.25776 0.14733 0.0
C65 C 0.29882 0.22371 0.1454 0.0
C66 C 0.22148 0.36774 0.15628 0.0
C67 C 0.2662 0.39436 0.10992 0.0
C68 C 0.19346 0.41438 0.11401 0.0
C69 C 0.16951 0.42448 0.10844 0.0
C70 C 0.14239 0.40342 0.09745 0.0
C71 C 0.17303 0.45472 0.11436 0.0
C72 C 0.149 0.46317 0.10966 0.0
C73 C 0.11872 0.41167 0.09275 0.0
C74 C 0.12184 0.44119 0.09887 0.0
C75 C 0.22967 0.32387 0.0881 0.0
H76 H 0.31082 0.30104 0.14309 0.0
H77 H 0.22725 0.21015 0.12555 0.0
H78 H 0.3385 0.27108 0.15343 0.0
H79 H 0.31182 0.21137 0.14991 0.0
H80 H 0.13946 0.38055 0.09248 0.0
H81 H 0.19397 0.47128 0.1228 0.0
H82 H 0.09785 0.39511 0.0843 0.0
H83 H 0.10321 0.44712 0.0949 0.0
Gd84 Gd 0.93749 0.23818 0.63402 0.0
Gd85 Gd 0.85533 0.19278 0.61198 0.0
C86 C 0.80221 0.08286 0.59971 0.0
C87 C 0.80299 0.08168 0.56565 0.0
C88 C 0.82888 0.13371 0.58228 0.0
C89 C 0.82084 0.11739 0.59925 0.0
C90 C 0.81931 0.11606 0.56527 0.0
C91 C 0.79413 0.0651 0.58284 0.0
C92 C 0.79088 0.06725 0.61704 0.0
C93 C 0.79761 0.086 0.63326 0.0
N94 N 0.828 0.13532 0.61523 0.0
C95 C 0.81581 0.12016 0.63206 0.0
H96 H 0.82017 0.13419 0.64471 0.0
C97 C 0.8447 0.18336 0.56631 0.0
N98 N 0.84235 0.16673 0.5825 0.0
C99 C 0.83672 0.16715 0.54904 0.0
C100 C 0.82443 0.13338 0.54848 0.0
H101 H 0.85371 0.20943 0.56673 0.0
H102 H 0.78011 0.03856 0.58293 0.0
H103 H 0.96929 0.29939 0.6023 0.0
H104 H 0.77631 0.04079 0.61798 0.0
H105 H 0.78851 0.0742 0.6467 0.0
H106 H 0.79562 0.06769 0.55273 0.0
H107 H 0.93764 0.218 0.67902 0.0
H108 H 1.00614 0.39033 0.6314 0.0
H109 H 0.99563 0.35947 0.60174 0.0
H110 H 0.99172 0.35851 0.69613 0.0
H111 H 0.83966 0.18064 0.53621 0.0
H112 H 0.81755 0.12073 0.53513 0.0
H113 H 1.00378 0.38968 0.66663 0.0
H114 H 0.95075 0.24478 0.71007 0.0
N115 N 0.96388 0.29575 0.63203 0.0
C116 C 0.99436 0.36384 0.63175 0.0
C117 C 0.98861 0.34652 0.61499 0.0
C118 C 0.98576 0.34685 0.6488 0.0
C119 C 0.97069 0.31238 0.64847 0.0
C120 C 0.97364 0.31234 0.6154 0.0
N121 N 0.95108 0.26202 0.66404 0.0
C122 C 0.9641 0.29495 0.66502 0.0
C123 C 0.95457 0.25918 0.69751 0.0
C124 C 0.96667 0.29289 0.6988 0.0
C125 C 0.94725 0.2441 0.6799 0.0
C126 C 0.97204 0.31132 0.68243 0.0
H127 H 0.97238 0.30453 0.71246 0.0
O128 O 0.96879 0.21922 0.64318 0.0
O129 O 0.89779 0.19018 0.62327 0.0
O130 O 0.85383 0.1926 0.64438 0.0
O131 O 0.90153 0.23958 0.65389 0.0
O132 O 0.91937 0.18906 0.64823 0.0
O133 O 0.98457 0.25469 0.62057 0.0
O134 O 0.81991 0.20514 0.60063 0.0
O135 O 0.89499 0.24047 0.62235 0.0
O136 O 0.94126 0.24043 0.6024 0.0
O137 O 0.89311 0.19616 0.59064 0.0
O138 O 0.8719 0.24201 0.5983 0.0
O139 O 0.81092 0.181 0.62747 0.0
C140 C 0.89795 0.17137 0.63581 0.0
C141 C 0.98571 0.3455 0.68289 0.0
C142 C 0.99256 0.36325 0.66609 0.0
C143 C 0.99218 0.23723 0.63145 0.0
C144 C 0.02562 0.25344 0.63905 0.0
C145 C 0.03751 0.2819 0.64992 0.0
C146 C 0.04568 0.23977 0.63562 0.0
C147 C 0.07764 0.25432 0.64307 0.0
C148 C 0.06913 0.29652 0.65734 0.0
C149 C 0.08907 0.28288 0.654 0.0
C150 C 0.87153 0.21534 0.65713 0.0
C151 C 0.89413 0.25968 0.61036 0.0
C152 C 0.7989 0.1909 0.6142 0.0
C153 C 0.7647 0.1675 0.60868 0.0
C154 C 0.75822 0.14145 0.59661 0.0
C155 C 0.73821 0.17018 0.61588 0.0
C156 C 0.70565 0.14632 0.61136 0.0
C157 C 0.72616 0.11785 0.59219 0.0
C158 C 0.7 0.12009 0.5996 0.0
C159 C 0.92443 0.21923 0.589 0.0
H160 H 1.02236 0.2927 0.6527 0.0
H161 H 0.0364 0.21796 0.62702 0.0
H162 H 0.07818 0.31842 0.66581 0.0
H163 H 0.11326 0.29446 0.66023 0.0
H164 H 0.7779 0.13928 0.59057 0.0
H165 H 0.74283 0.19034 0.62509 0.0
H166 H 0.72159 0.09779 0.58293 0.0
H167 H 0.67525 0.10163 0.59583 0.0
Gd168 Gd 0.72024 0.93116 0.12819 0.0
Gd169 Gd 0.67749 0.84557 0.11287 0.0
C170 C 0.74446 0.80333 0.10112 0.0
C171 C 0.74237 0.7989 0.06714 0.0
C172 C 0.7118 0.82051 0.0834 0.0
C173 C 0.72386 0.81706 0.10038 0.0
C174 C 0.72005 0.81042 0.06663 0.0
C175 C 0.75441 0.79518 0.08437 0.0
C176 C 0.75331 0.79695 0.11868 0.0
C177 C 0.74106 0.80356 0.13491 0.0
N178 N 0.71318 0.82454 0.11629 0.0
C179 C 0.72083 0.81733 0.13345 0.0
H180 H 0.71161 0.82238 0.14611 0.0
C181 C 0.6711 0.82686 0.06777 0.0
N182 N 0.68906 0.83013 0.08357 0.0
C183 C 0.67902 0.81793 0.0507 0.0
C184 C 0.70405 0.81026 0.05005 0.0
H185 H 0.65151 0.83254 0.0683 0.0
H186 H 0.77041 0.78482 0.08463 0.0
H187 H 0.76602 0.98837 0.09674 0.0
H188 H 0.76897 0.78629 0.11986 0.0
H189 H 0.74737 0.79828 0.14856 0.0
H190 H 0.74925 0.79134 0.05438 0.0
H191 H 0.66747 0.91259 0.16411 0.0
H192 H 0.72273 0.04814 0.08646 0.0
H193 H 0.76656 0.03495 0.08031 0.0
H194 H 0.6359 1.00885 0.13167 0.0
H195 H 0.6656 0.81664 0.03811 0.0
H196 H 0.70975 0.80275 0.03688 0.0
H197 H 0.67347 0.03778 0.10549 0.0
H198 H 0.62758 0.92776 0.17553 0.0
N199 N 0.72181 0.97496 0.11149 0.0
C200 C 0.72237 0.02771 0.09365 0.0
C201 C 0.74716 0.02035 0.09013 0.0
C202 C 0.69835 1.00964 0.10712 0.0
C203 C 0.69911 0.9834 0.11616 0.0
C204 C 0.74687 0.99412 0.09948 0.0
N205 N 0.68156 0.94402 0.14028 0.0
C206 C 0.67827 0.96738 0.131 0.0
C207 C 0.6416 0.93902 0.16294 0.0
C208 C 0.6368 0.96185 0.15304 0.0
C209 C 0.66432 0.93047 0.15639 0.0
C210 C 0.65562 0.97676 0.13704 0.0
H211 H 0.61913 0.96836 0.15813 0.0
O212 O 0.73972 0.95902 0.15392 0.0
O213 O 0.72453 0.88635 0.1238 0.0
O214 O 0.67559 0.84615 0.14487 0.0
O215 O 0.70966 0.9005 0.15408 0.0
O216 O 0.7598 0.92956 0.11126 0.0
O217 O 0.77253 0.96546 0.13109 0.0
O218 O 0.62823 0.80841 0.10414 0.0
O219 O 0.67117 0.88578 0.12511 0.0
O220 O 0.70588 0.92968 0.09807 0.0
O221 O 0.70094 0.88049 0.08769 0.0
O222 O 0.64198 0.8603 0.10221 0.0
O223 O 0.65035 0.79934 0.12796 0.0
C224 C 0.75086 0.8993 0.11435 0.0
C225 C 0.65334 1.0015 0.12734 0.0
C226 C 0.6747 0.01795 0.11242 0.0
C227 C 0.76934 0.97638 0.14722 0.0
C228 C 0.78556 1.01247 0.14899 0.0
C229 C 0.76714 0.02783 0.15274 0.0
C230 C 0.81984 0.03192 0.14666 0.0
C231 C 0.83562 0.0663 0.14853 0.0
C232 C 0.78265 0.06183 0.1545 0.0
C233 C 0.81661 0.08094 0.15254 0.0
C234 C 0.69084 0.86904 0.15785 0.0
C235 C 0.6484 0.88295 0.11435 0.0
C236 C 0.62546 0.78698 0.11658 0.0
C237 C 0.61451 0.75339 0.10965 0.0
C238 C 0.63655 0.74724 0.09971 0.0
C239 C 0.58227 0.72727 0.11289 0.0
C240 C 0.57229 0.69557 0.10577 0.0
C241 C 0.62691 0.71612 0.09277 0.0
C242 C 0.59507 0.69051 0.09569 0.0
C243 C 0.70525 0.91026 0.08457 0.0
H244 H 0.74076 1.01362 0.15431 0.0
H245 H 0.83424 0.02031 0.14367 0.0
H246 H 0.76826 0.07344 0.1574 0.0
H247 H 0.82803 0.1073 0.15391 0.0
H248 H 0.66133 0.76644 0.09737 0.0
H249 H 0.56503 0.73165 0.12063 0.0
H250 H 0.64426 0.7118 0.08512 0.0
H251 H 0.58835 0.66648 0.09027 0.0
Gd252 Gd 0.80369 0.70263 0.63343 0.0
Gd253 Gd 0.84799 0.66551 0.61045 0.0
C254 C 0.95704 0.72023 0.59581 0.0
C255 C 0.95605 0.72125 0.56175 0.0
C256 C 0.90509 0.69641 0.57951 0.0
C257 C 0.92251 0.70469 0.59611 0.0
C258 C 0.92164 0.70385 0.56212 0.0
C259 C 0.97371 0.7292 0.57856 0.0
C260 C 0.97373 0.72509 0.61279 0.0
C261 C 0.95601 0.71403 0.62945 0.0
N262 N 0.90562 0.69492 0.61249 0.0
C263 C 0.92181 0.69849 0.62901 0.0
H264 H 0.90855 0.68961 0.642 0.0
C265 C 0.85411 0.66385 0.56452 0.0
N266 N 0.87197 0.67797 0.58039 0.0
C267 C 0.86926 0.67132 0.54693 0.0
C268 C 0.90316 0.69186 0.54569 0.0
H269 H 0.82796 0.64742 0.56547 0.0
H270 H 1.00024 0.74144 0.57807 0.0
H271 H 0.7407 0.67148 0.60292 0.0
H272 H 1.00023 0.73678 0.61315 0.0
H273 H 0.96865 0.71724 0.64263 0.0
H274 H 0.96919 0.7274 0.54853 0.0
H275 H 0.82669 0.72482 0.67785 0.0
H276 H 0.65139 0.61937 0.63392 0.0
H277 H 0.68056 0.63768 0.60359 0.0
H278 H 0.68691 0.64158 0.69794 0.0
H279 H 0.85485 0.66091 0.53436 0.0
H280 H 0.91495 0.6971 0.53207 0.0
H281 H 0.65402 0.62068 0.66914 0.0
H282 H 0.80165 0.71417 0.70931 0.0
N283 N 0.74601 0.6716 0.6326 0.0
C284 C 0.67789 0.63417 0.63373 0.0
C285 C 0.69426 0.64454 0.61659 0.0
C286 C 0.69585 0.6438 0.65043 0.0
C287 C 0.73031 0.66295 0.64938 0.0
C288 C 0.72847 0.66377 0.61629 0.0
N289 N 0.78166 0.69394 0.66387 0.0
C290 C 0.74872 0.6746 0.66554 0.0
C291 C 0.78649 0.70264 0.69714 0.0
C292 C 0.75278 0.68159 0.69918 0.0
C293 C 0.80059 0.70874 0.67928 0.0
C294 C 0.73336 0.66757 0.68325 0.0
H295 H 0.74192 0.67687 0.71305 0.0
O296 O 0.823 0.75319 0.64214 0.0
O297 O 0.85114 0.71057 0.622 0.0
O298 O 0.84991 0.6651 0.64285 0.0
O299 O 0.80334 0.66586 0.6534 0.0
O300 O 0.85355 0.73426 0.64676 0.0
O301 O 0.78682 0.73279 0.61992 0.0
O302 O 0.83158 0.61628 0.60006 0.0
O303 O 0.80074 0.65737 0.62191 0.0
O304 O 0.79984 0.7031 0.60185 0.0
O305 O 0.84459 0.7006 0.5896 0.0
O306 O 0.79823 0.63304 0.59747 0.0
O307 O 0.86353 0.63405 0.62412 0.0
C308 C 0.8706 0.72996 0.63415 0.0
C309 C 0.69917 0.64749 0.68444 0.0
C310 C 0.68044 0.63559 0.66805 0.0
C311 C 0.80456 0.75817 0.63054 0.0
C312 C 0.78854 0.77563 0.63812 0.0
C313 C 0.75812 0.75868 0.64719 0.0
C314 C 0.80416 0.8099 0.63631 0.0
C315 C 0.78949 0.82743 0.64345 0.0
C316 C 0.74336 0.77578 0.65427 0.0
C317 C 0.7588 0.80984 0.65241 0.0
C318 C 0.82786 0.66031 0.65604 0.0
C319 C 0.78107 0.63724 0.61007 0.0
C320 C 0.84945 0.61067 0.61179 0.0
C321 C 0.87004 0.59818 0.60358 0.0
C322 C 0.88862 0.61299 0.58743 0.0
C323 C 0.87124 0.57141 0.61168 0.0
C324 C 0.89115 0.5599 0.60367 0.0
C325 C 0.90828 0.60188 0.57952 0.0
C326 C 0.90954 0.57558 0.5875 0.0
C327 C 0.82113 0.7084 0.58831 0.0
H328 H 0.7458 0.73231 0.64874 0.0
H329 H 0.82794 0.82287 0.62955 0.0
H330 H 0.71977 0.76257 0.66118 0.0
H331 H 0.74645 0.82232 0.65778 0.0
H332 H 0.88773 0.63293 0.58071 0.0
H333 H 0.85691 0.55977 0.62414 0.0
H334 H 0.92234 0.6135 0.56699 0.0
H335 H 0.92442 0.56703 0.58068 0.0
Gd336 Gd 0.11495 0.79284 0.13216 0.0
Gd337 Gd 0.19682 0.83874 0.10969 0.0
C338 C 0.24894 0.94711 0.09385 0.0
C339 C 0.24557 0.94493 0.05982 0.0
C340 C 0.22117 0.89462 0.07813 0.0
C341 C 0.23038 0.9126 0.09455 0.0
C342 C 0.22912 0.91055 0.06056 0.0
C343 C 0.25578 0.96317 0.07643 0.0
C344 C 0.26133 0.96441 0.11062 0.0
C345 C 0.25543 0.94731 0.12745 0.0
N346 N 0.22414 0.89632 0.11111 0.0
C347 C 0.23711 0.9131 0.12741 0.0
H348 H 0.23341 0.90032 0.14052 0.0
C349 C 0.20225 0.84316 0.06357 0.0
N350 N 0.20725 0.8616 0.07936 0.0
C351 C 0.20866 0.85771 0.04582 0.0
C352 C 0.22184 0.89154 0.04429 0.0
H353 H 0.1923 0.817 0.06472 0.0
H354 H 0.2697 0.98968 0.07564 0.0
H355 H 0.08345 0.72758 0.10344 0.0
H356 H 0.27595 0.99092 0.11067 0.0
H357 H 0.26526 0.96044 0.14046 0.0
H358 H 0.25175 0.95763 0.04647 0.0
H359 H 0.11761 0.81925 0.17623 0.0
H360 H 0.04795 0.64092 0.13671 0.0
H361 H 0.05775 0.66765 0.10564 0.0
H362 H 0.06359 0.68144 0.19975 0.0
H363 H 0.20376 0.84287 0.03335 0.0
H364 H 0.2274 0.90286 0.03054 0.0
H365 H 0.05046 0.64633 0.17183 0.0
H366 H 0.10646 0.79688 0.20834 0.0
N367 N 0.08887 0.73521 0.13295 0.0
C368 C 0.05922 0.66734 0.13583 0.0
C369 C 0.06465 0.68232 0.11828 0.0
C370 C 0.06774 0.68657 0.15205 0.0
C371 C 0.08244 0.72086 0.15011 0.0
C372 C 0.07923 0.71642 0.1171 0.0
N373 N 0.10262 0.7732 0.16323 0.0
C374 C 0.08955 0.74049 0.16576 0.0
C375 C 0.10156 0.78073 0.19648 0.0
C376 C 0.08916 0.74725 0.19934 0.0
C377 C 0.10775 0.7933 0.17823 0.0
C378 C 0.08258 0.72659 0.18388 0.0
H379 H 0.08432 0.73756 0.2135 0.0
O380 O 0.08246 0.8116 0.1391 0.0
O381 O 0.15397 0.84058 0.12075 0.0
O382 O 0.1983 0.84196 0.14203 0.0
O383 O 0.15205 0.79408 0.15224 0.0
O384 O 0.13101 0.84289 0.14479 0.0
O385 O 0.06833 0.7743 0.11771 0.0
O386 O 0.23275 0.82682 0.09865 0.0
O387 O 0.15824 0.79108 0.12102 0.0
O388 O 0.1129 0.78672 0.10063 0.0
O389 O 0.15736 0.83468 0.08936 0.0
O390 O 0.18192 0.78897 0.09728 0.0
O391 O 0.24171 0.8522 0.12511 0.0
C392 C 0.15285 0.86006 0.13244 0.0
C393 C 0.06894 0.69257 0.18595 0.0
C394 C 0.06149 0.67259 0.17005 0.0
C395 C 0.05983 0.79245 0.12731 0.0
C396 C 0.02588 0.77674 0.13423 0.0
C397 C 1.01281 0.74813 0.14509 0.0
C398 C 1.00663 0.79122 0.13036 0.0
C399 C 0.97441 0.77739 0.1374 0.0
C400 C 0.98084 0.73411 0.15198 0.0
C401 C 0.96177 0.74859 0.14823 0.0
C402 C 0.18139 0.81967 0.15518 0.0
C403 C 0.16016 0.77158 0.10964 0.0
C404 C 0.25374 0.84168 0.11215 0.0
C405 C 0.28804 0.86459 0.10649 0.0
C406 C 0.29507 0.89125 0.0948 0.0
C407 C 0.3141 0.86049 0.113 0.0
C408 C 0.34679 0.88346 0.10812 0.0
C409 C 0.32732 0.91401 0.09005 0.0
C410 C 0.35306 0.91029 0.09674 0.0
C411 C 0.12751 0.80888 0.08728 0.0
H412 H 0.02733 0.73676 0.14827 0.0
H413 H 1.01703 0.81364 0.1222 0.0
H414 H 0.97081 0.71197 0.16033 0.0
H415 H 0.93699 0.73705 0.15367 0.0
H416 H 0.27566 0.89452 0.08929 0.0
H417 H 0.30905 0.83983 0.12191 0.0
H418 H 0.33236 0.93458 0.08109 0.0
H419 H 0.37796 0.92815 0.09281 0.0
Gd420 Gd 0.33962 0.10429 0.63348 0.0
Gd421 Gd 0.37559 0.18614 0.61091 0.0
C422 C 0.31834 0.23716 0.59485 0.0
C423 C 0.31761 0.23399 0.56082 0.0
C424 C 0.34383 0.21002 0.57922 0.0
C425 C 0.33467 0.21896 0.5956 0.0
C426 C 0.33608 0.2181 0.56162 0.0
C427 C 0.30902 0.24378 0.5774 0.0
C428 C 0.3133 0.24957 0.61157 0.0
C429 C 0.32501 0.24429 0.6284 0.0
N430 N 0.34494 0.21306 0.61218 0.0
C431 C 0.34129 0.22633 0.6284 0.0
H432 H 0.35071 0.223 0.64148 0.0
C433 C 0.37791 0.19276 0.56485 0.0
N434 N 0.36348 0.19672 0.58053 0.0
C435 C 0.37018 0.19947 0.54706 0.0
C436 C 0.34878 0.21176 0.54542 0.0
H437 H 0.39463 0.18343 0.56608 0.0
H438 H 0.2961 0.25738 0.57657 0.0
H439 H 0.3736 0.0735 0.60422 0.0
H440 H 0.30108 0.26388 0.61158 0.0
H441 H 0.32174 0.25426 0.64136 0.0
H442 H 0.3112 0.24019 0.54744 0.0
H443 H 0.31532 0.10517 0.67763 0.0
H444 H 0.42619 0.03891 0.63688 0.0
H445 H 0.40866 0.04868 0.60601 0.0
H446 H 0.40076 0.05253 0.7002 0.0
H447 H 0.38091 0.19538 0.53466 0.0
H448 H 0.34329 0.21751 0.53165 0.0
H449 H 0.42327 0.04063 0.67204 0.0
H450 H 0.32633 0.09302 0.70954 0.0
N451 N 0.37163 0.07863 0.6338 0.0
C452 C 0.4107 0.04981 0.63619 0.0
C453 C 0.40079 0.05522 0.61876 0.0
C454 C 0.39982 0.05781 0.65255 0.0
C455 C 0.37985 0.07214 0.65086 0.0
C456 C 0.38081 0.06932 0.61782 0.0
N457 N 0.34722 0.09149 0.66436 0.0
C458 C 0.3672 0.07875 0.66665 0.0
C459 C 0.33805 0.08895 0.69761 0.0
C460 C 0.35959 0.07704 0.70024 0.0
C461 C 0.33179 0.09571 0.67946 0.0
C462 C 0.37416 0.07138 0.68465 0.0
H463 H 0.36438 0.07179 0.71431 0.0
O464 O 0.28833 0.07226 0.6405 0.0
O465 O 0.3309 0.14331 0.62208 0.0
O466 O 0.3748 0.18804 0.64334 0.0
O467 O 0.37516 0.14114 0.65365 0.0
O468 O 0.30629 0.12076 0.64644 0.0
O469 O 0.31141 0.05725 0.61952 0.0
O470 O 0.42369 0.22188 0.60007 0.0
O471 O 0.38448 0.14759 0.6223 0.0
O472 O 0.34309 0.10189 0.60198 0.0
O473 O 0.34103 0.14684 0.59018 0.0
O474 O 0.41046 0.1712 0.59859 0.0
O475 O 0.40659 0.2314 0.62611 0.0
C476 C 0.3108 0.14248 0.63405 0.0
C477 C 0.39493 0.05814 0.68648 0.0
C478 C 0.40774 0.05138 0.67045 0.0
C479 C 0.28488 0.04906 0.62919 0.0
C480 C 0.26733 1.01564 0.63687 0.0
C481 C 0.28358 1.00384 0.64812 0.0
C482 C 0.2336 0.99562 0.63332 0.0
C483 C 0.21592 0.9638 0.64098 0.0
C484 C 0.26633 0.97239 0.65575 0.0
C485 C 0.2328 0.95252 0.65228 0.0
C486 C 0.37975 0.17083 0.65653 0.0
C487 C 0.40592 0.14943 0.61097 0.0
C488 C 0.42935 0.24323 0.61327 0.0
C489 C 0.44031 0.27721 0.60714 0.0
C490 C 0.42101 0.28318 0.59456 0.0
C491 C 0.4695 0.304 0.61413 0.0
C492 C 0.47851 0.33638 0.60889 0.0
C493 C 0.4298 0.31504 0.58939 0.0
C494 C 0.45821 0.34149 0.59657 0.0
C495 C 0.33618 0.11662 0.58842 0.0
H496 H 0.30948 0.01897 0.65106 0.0
H497 H 0.22128 1.00484 0.62447 0.0
H498 H 0.27894 0.96344 0.66451 0.0
H499 H 0.22002 0.92849 0.65871 0.0
H500 H 0.39913 0.26323 0.58869 0.0
H501 H 0.48479 0.29974 0.62376 0.0
H502 H 0.41454 0.31923 0.57973 0.0
H503 H 0.46468 0.36604 0.59223 0.0
Gd504 Gd 0.71028 0.79003 0.38041 0.0
Gd505 Gd 0.67461 0.83729 0.40157 0.0
C506 C 0.73271 0.9466 0.41524 0.0
C507 C 0.73553 0.94636 0.44926 0.0
C508 C 0.7074 0.89503 0.43202 0.0
C509 C 0.71571 0.91202 0.41527 0.0
C510 C 0.71636 0.91201 0.44924 0.0
C511 C 0.74358 0.96365 0.43228 0.0
C512 C 0.73671 0.96293 0.3982 0.0
C513 C 0.7231 0.94473 0.3819 0.0
N514 N 0.70457 0.89475 0.39909 0.0
C515 C 0.7073 0.91058 0.38257 0.0
H516 H 0.69701 0.89703 0.36982 0.0
C517 C 0.67368 0.8448 0.44755 0.0
N518 N 0.68758 0.86206 0.43144 0.0
C519 C 0.68239 0.86041 0.465 0.0
C520 C 0.70428 0.8941 0.46587 0.0
H521 H 0.65673 0.81873 0.44691 0.0
H522 H 0.75712 0.9902 0.4325 0.0
H523 H 0.67464 0.72628 0.41038 0.0
H524 H 0.74914 0.98944 0.39759 0.0
H525 H 0.72436 0.9569 0.36881 0.0
H526 H 0.74298 0.95983 0.46235 0.0
H527 H 0.73842 0.81249 0.33661 0.0
H528 H 0.61964 0.63846 0.37862 0.0
H529 H 0.63783 0.66662 0.40921 0.0
H530 H 0.64876 0.67476 0.31506 0.0
H531 H 0.67214 0.84647 0.47774 0.0
H532 H 0.71065 0.90622 0.47939 0.0
H533 H 0.6236 0.64178 0.34343 0.0
H534 H 0.72964 0.78775 0.30525 0.0
N535 N 0.67679 0.73247 0.38072 0.0
C536 C 0.63585 0.66476 0.37903 0.0
C537 C 0.64615 0.68056 0.39632 0.0
C538 C 0.64753 0.68298 0.36249 0.0
C539 C 0.66841 0.7172 0.36384 0.0
C540 C 0.66713 0.71451 0.3969 0.0
N541 N 0.70343 0.76821 0.34997 0.0
C542 C 0.68237 0.73565 0.34793 0.0
C543 C 0.71572 0.77292 0.31706 0.0
C544 C 0.6928 0.73979 0.31458 0.0
C545 C 0.72082 0.78681 0.33493 0.0
C546 C 0.67608 0.72058 0.33015 0.0
H547 H 0.68886 0.72912 0.30069 0.0
O548 O 0.7618 0.80853 0.3742 0.0
O549 O 0.71943 0.83868 0.39075 0.0
O550 O 0.67551 0.83855 0.36909 0.0
O551 O 0.6759 0.79134 0.35938 0.0
O552 O 0.74419 0.83899 0.36679 0.0
O553 O 0.73732 0.77043 0.39499 0.0
O554 O 0.62683 0.82557 0.41268 0.0
O555 O 0.66527 0.78919 0.39091 0.0
O556 O 0.70626 0.78534 0.41186 0.0
O557 O 0.70914 0.83319 0.4227 0.0
O558 O 0.63999 0.78814 0.41469 0.0
O559 O 0.64266 0.84987 0.38593 0.0
C560 C 0.73995 0.85717 0.37861 0.0
C561 C 0.65416 0.68675 0.32861 0.0
C562 C 0.63985 0.66799 0.34476 0.0
C563 C 0.76427 0.78823 0.38554 0.0
C564 C 0.78103 0.77144 0.37792 0.0
C565 C 0.7635 0.74221 0.36777 0.0
C566 C 0.81517 0.78544 0.38018 0.0
C567 C 0.83185 0.77051 0.37217 0.0
C568 C 0.77978 0.72714 0.35996 0.0
C569 C 0.81366 0.74114 0.36208 0.0
C570 C 0.67101 0.81617 0.35614 0.0
C571 C 0.64397 0.77022 0.40254 0.0
C572 C 0.62041 0.83996 0.39904 0.0
C573 C 0.60947 0.86334 0.4045 0.0
C574 C 0.62952 0.88999 0.41607 0.0
C575 C 0.57952 0.85984 0.39795 0.0
C576 C 0.57053 0.88351 0.4026 0.0
C577 C 0.62077 0.91333 0.42064 0.0
C578 C 0.59165 0.91028 0.41388 0.0
C579 C 0.71355 0.80763 0.42503 0.0
H580 H 0.7373 0.73114 0.36583 0.0
H581 H 0.82878 0.80829 0.3878 0.0
H582 H 0.7661 0.70455 0.35217 0.0
H583 H 0.82561 0.72881 0.35594 0.0
H584 H 0.65197 0.8928 0.42162 0.0
H585 H 0.56361 0.83921 0.38912 0.0
H586 H 0.63663 0.93385 0.42952 0.0
H587 H 0.58526 0.92862 0.41778 0.0
Gd588 Gd 0.93708 0.70528 0.87848 0.0
Gd589 Gd 0.85481 0.67 0.90068 0.0
C590 C 0.804 0.72826 0.91494 0.0
C591 C 0.80933 0.73277 0.94886 0.0
C592 C 0.83154 0.70393 0.93139 0.0
C593 C 0.82163 0.71131 0.91476 0.0
C594 C 0.82471 0.71379 0.94868 0.0
C595 C 0.79885 0.73987 0.93201 0.0
C596 C 0.79076 0.73164 0.89808 0.0
C597 C 0.79466 0.71762 0.88174 0.0
N598 N 0.82691 0.6996 0.89852 0.0
C599 C 0.81314 0.70193 0.88216 0.0
H600 H 0.81596 0.6914 0.86937 0.0
C601 C 0.84963 0.67142 0.94684 0.0
N602 N 0.8449 0.68428 0.9307 0.0
C603 C 0.84409 0.68117 0.96433 0.0
C604 C 0.83202 0.70286 0.96527 0.0
H605 H 0.8589 0.65459 0.94614 0.0
H606 H 0.78579 0.75337 0.9324 0.0
H607 H 0.96721 0.67156 0.90827 0.0
H608 H 0.77662 0.74403 0.89765 0.0
H609 H 0.78315 0.71851 0.86881 0.0
H610 H 0.80418 0.74088 0.96199 0.0
H611 H 0.93746 0.72939 0.83418 0.0
H612 H 1.00369 0.61974 0.87652 0.0
H613 H 0.99285 0.63722 0.9071 0.0
H614 H 0.99066 0.6439 0.81284 0.0
H615 H 0.84891 0.6718 0.97707 0.0
H616 H 0.82726 0.70998 0.97884 0.0
H617 H 1.00193 0.62159 0.84132 0.0
H618 H 0.95128 0.71902 0.80259 0.0
N619 N 0.96242 0.67296 0.87865 0.0
C620 C 0.99216 0.63468 0.87694 0.0
C621 C 0.98623 0.64462 0.89422 0.0
C622 C 0.984 0.64493 0.8604 0.0
C623 C 0.96928 0.66458 0.86176 0.0
C624 C 0.97166 0.6642 0.89481 0.0
N625 N 0.95048 0.69729 0.84782 0.0
C626 C 0.96316 0.67722 0.84581 0.0
C627 C 0.95453 0.70689 0.8146 0.0
C628 C 0.96637 0.68523 0.81223 0.0
C629 C 0.94685 0.71283 0.83259 0.0
C630 C 0.97122 0.67038 0.82796 0.0
H631 H 0.97227 0.68066 0.79827 0.0
O632 O 0.97008 0.75628 0.87115 0.0
O633 O 0.89765 0.71427 0.88896 0.0
O634 O 0.85342 0.67023 0.86826 0.0
O635 O 0.90033 0.66941 0.85827 0.0
O636 O 0.92165 0.73897 0.86492 0.0
O637 O 0.98331 0.73358 0.89326 0.0
O638 O 0.82041 0.62187 0.91203 0.0
O639 O 0.89342 0.66068 0.88967 0.0
O640 O 0.93877 0.70221 0.91006 0.0
O641 O 0.89419 0.706 0.92084 0.0
O642 O 0.87015 0.6359 0.91375 0.0
O643 O 0.80859 0.63804 0.88643 0.0
C644 C 0.89936 0.73467 0.87685 0.0
C645 C 0.98455 0.64966 0.82644 0.0
C646 C 0.99095 0.63695 0.84265 0.0
C647 C 0.99241 0.7599 0.8832 0.0
C648 C 0.02649 0.77718 0.87636 0.0
C649 C 0.03941 0.7602 0.86679 0.0
C650 C 0.04605 0.81128 0.87902 0.0
C651 C 0.07842 0.82852 0.87203 0.0
C652 C 0.0715 0.77699 0.85999 0.0
C653 C 0.09087 0.81084 0.86254 0.0
C654 C 0.87065 0.66484 0.8553 0.0
C655 C 0.89173 0.6398 0.90137 0.0
C656 C 0.79799 0.61549 0.89939 0.0
C657 C 0.76437 0.60403 0.90653 0.0
C658 C 0.7591 0.62394 0.91899 0.0
C659 C 0.73751 0.57321 0.90138 0.0
C660 C 0.70593 0.56257 0.90898 0.0
C661 C 0.72802 0.61394 0.92615 0.0
C662 C 0.70167 0.58357 0.92123 0.0
C663 C 0.92389 0.7098 0.9232 0.0
H664 H 0.0247 0.73402 0.86454 0.0
H665 H 0.03581 0.82443 0.88617 0.0
H666 H 0.0814 0.76374 0.85266 0.0
H667 H 0.11574 0.82314 0.85722 0.0
H668 H 0.77907 0.64719 0.92334 0.0
H669 H 0.7413 0.55741 0.89192 0.0
H670 H 0.72439 0.62973 0.93567 0.0
H671 H 0.67776 0.57648 0.92702 0.0
Gd672 Gd 0.24639 0.92652 0.37801 0.0
Gd673 Gd 0.1982 0.84415 0.40008 0.0
C674 C 0.08925 0.79687 0.41473 0.0
C675 C 0.09041 0.79887 0.44879 0.0
C676 C 0.14116 0.82038 0.43103 0.0
C677 C 0.12381 0.81274 0.41446 0.0
C678 C 0.1246 0.81251 0.44841 0.0
C679 C 0.07274 0.791 0.43196 0.0
C680 C 0.07229 0.78615 0.39777 0.0
C681 C 0.08974 0.79058 0.38117 0.0
N682 N 0.14056 0.81839 0.39811 0.0
C683 C 0.124 0.80652 0.38162 0.0
H684 H 0.13704 0.80966 0.36865 0.0
C685 C 0.19115 0.83394 0.4459 0.0
N686 N 0.17393 0.8323 0.4301 0.0
C687 C 0.176 0.82705 0.4635 0.0
C688 C 0.14268 0.81687 0.4648 0.0
H689 H 0.21689 0.84161 0.44493 0.0
H690 H 0.04624 0.7793 0.43243 0.0
H691 H 0.3088 0.95599 0.4088 0.0
H692 H 0.04575 0.77368 0.3974 0.0
H693 H 0.07684 0.78182 0.368 0.0
H694 H 0.07728 0.79302 0.462 0.0
H695 H 0.22447 0.92609 0.33324 0.0
H696 H 0.39807 0.989 0.37829 0.0
H697 H 0.3687 0.97972 0.40845 0.0
H698 H 0.36363 0.97595 0.31405 0.0
H699 H 0.19 0.82943 0.47602 0.0
H700 H 0.13089 0.81113 0.47843 0.0
H701 H 0.39592 0.98733 0.34305 0.0
H702 H 0.24981 0.93742 0.3018 0.0
N703 N 0.30386 0.95104 0.3791 0.0
C704 C 0.3717 0.9786 0.37834 0.0
C705 C 0.35522 0.97346 0.39538 0.0
C706 C 0.35403 0.97096 0.36154 0.0
C707 C 0.31972 0.95729 0.3624 0.0
C708 C 0.32117 0.95998 0.3955 0.0
N709 N 0.26889 0.93891 0.3476 0.0
C710 C 0.30166 0.95101 0.34613 0.0
C711 C 0.26468 0.94134 0.31416 0.0
C712 C 0.29819 0.9526 0.31236 0.0
C713 C 0.25043 0.93505 0.332 0.0
C714 C 0.31722 0.95801 0.32847 0.0
H715 H 0.30918 0.95753 0.29853 0.0
O716 O 0.2285 0.95923 0.36991 0.0
O717 O 0.1979 0.88795 0.38886 0.0
O718 O 0.19628 0.84336 0.36771 0.0
O719 O 0.24496 0.88922 0.35801 0.0
O720 O 0.19742 0.91144 0.36444 0.0
O721 O 0.26577 0.97416 0.39139 0.0
O722 O 0.21248 0.80918 0.40968 0.0
O723 O 0.24657 0.88259 0.38934 0.0
O724 O 0.24953 0.92951 0.40966 0.0
O725 O 0.20373 0.88265 0.42156 0.0
O726 O 0.24726 0.8585 0.41323 0.0
O727 O 0.18135 0.79774 0.38545 0.0
C728 C 0.17938 0.88991 0.37675 0.0
C729 C 0.35124 0.97062 0.32749 0.0
C730 C 0.36962 0.97709 0.344 0.0
C731 C 0.2479 0.98244 0.38133 0.0
C732 C 0.26405 1.01593 0.37367 0.0
C733 C 0.29085 0.02684 0.3615 0.0
C734 C 0.25158 0.03679 0.37803 0.0
C735 C 0.26551 0.06847 0.37011 0.0
C736 C 0.30493 0.05812 0.35366 0.0
C737 C 0.29235 0.07872 0.35781 0.0
C738 C 0.21915 0.86014 0.35483 0.0
C739 C 0.26541 0.88042 0.40112 0.0
C740 C 0.19452 0.78683 0.39743 0.0
C741 C 0.17288 0.75338 0.40491 0.0
C742 C 0.15117 0.74882 0.41957 0.0
C743 C 0.17382 0.72589 0.39768 0.0
C744 C 0.15304 0.69414 0.40514 0.0
C745 C 0.13087 0.71783 0.42704 0.0
C746 C 0.13184 0.69077 0.42 0.0
C747 C 0.22797 0.91353 0.42312 0.0
H748 H 0.30066 1.01108 0.35794 0.0
H749 H 0.23106 0.02822 0.38763 0.0
H750 H 0.32547 0.06634 0.34413 0.0
H751 H 0.30335 0.10245 0.35104 0.0
H752 H 0.15007 0.76927 0.42542 0.0
H753 H 0.19041 0.72921 0.38627 0.0
H754 H 0.11446 0.71479 0.43849 0.0
H755 H 0.11625 0.66719 0.42651 0.0
Gd756 Gd 0.33627 0.24293 0.87908 0.0
Gd757 Gd 0.37001 0.19374 0.9001 0.0
C758 C 0.30776 0.08462 0.91354 0.0
C759 C 0.30474 0.08479 0.94756 0.0
C760 C 0.33504 0.13606 0.93041 0.0
C761 C 0.32641 0.11916 0.91363 0.0
C762 C 0.32506 0.11901 0.9476 0.0
C763 C 0.29618 0.0676 0.93055 0.0
C764 C 0.30232 0.06818 0.89642 0.0
C765 C 0.31569 0.08612 0.88001 0.0
N766 N 0.33816 0.13635 0.89746 0.0
C767 C 0.33389 0.12034 0.88081 0.0
H768 H 0.34415 0.13381 0.86802 0.0
C769 C 0.36939 0.18591 0.94612 0.0
N770 N 0.35567 0.16893 0.92994 0.0
C771 C 0.35967 0.17024 0.96353 0.0
C772 C 0.33703 0.13671 0.96429 0.0
H773 H 0.38695 0.21184 0.94556 0.0
H774 H 0.28143 0.0411 0.93073 0.0
H775 H 0.37223 0.30593 0.90938 0.0
H776 H 0.28851 0.04166 0.89577 0.0
H777 H 0.312 0.07363 0.86674 0.0
H778 H 0.29652 0.07128 0.96062 0.0
H779 H 0.31083 0.22082 0.83479 0.0
H780 H 0.42701 0.39449 0.87815 0.0
H781 H 0.40893 0.36561 0.90858 0.0
H782 H 0.39976 0.35933 0.81432 0.0
H783 H 0.36978 0.18397 0.97633 0.0
H784 H 0.32987 0.12453 0.97778 0.0
H785 H 0.42357 0.39187 0.84295 0.0
H786 H 0.3221 0.24577 0.80331 0.0
N787 N 0.36985 0.30044 0.87969 0.0
C788 C 0.41078 0.36817 0.87841 0.0
C789 C 0.40057 0.35198 0.8956 0.0
C790 C 0.39923 0.3503 0.86177 0.0
C791 C 0.37833 0.31606 0.8629 0.0
C792 C 0.37964 0.31801 0.89598 0.0
N793 N 0.34406 0.26523 0.84866 0.0
C794 C 0.36493 0.29788 0.84686 0.0
C795 C 0.33436 0.26072 0.81544 0.0
C796 C 0.35676 0.29408 0.81329 0.0
C797 C 0.32797 0.24667 0.83334 0.0
C798 C 0.37207 0.31321 0.82913 0.0
H799 H 0.36165 0.30491 0.79941 0.0
O800 O 0.28515 0.22563 0.87239 0.0
O801 O 0.3263 0.19408 0.88916 0.0
O802 O 0.3701 0.19333 0.86763 0.0
O803 O 0.37072 0.2412 0.85817 0.0
O804 O 0.30157 0.19417 0.86537 0.0
O805 O 0.30907 0.26177 0.89424 0.0
O806 O 0.41826 0.20649 0.91071 0.0
O807 O 0.38067 0.24242 0.8895 0.0
O808 O 0.34018 0.24695 0.91068 0.0
O809 O 0.33496 0.19769 0.92081 0.0
O810 O 0.40538 0.24249 0.91334 0.0
O811 O 0.39981 0.17681 0.88579 0.0
C812 C 0.30561 0.17579 0.87713 0.0
C813 C 0.39377 0.34712 0.82782 0.0
C814 C 0.40734 0.36564 0.84412 0.0
C815 C 0.28233 0.24475 0.88449 0.0
C816 C 0.26528 0.26189 0.87784 0.0
C817 C 0.28253 0.29208 0.86856 0.0
C818 C 0.23111 0.24737 0.88033 0.0
C819 C 0.21408 0.26279 0.87345 0.0
C820 C 0.26594 0.30765 0.86188 0.0
C821 C 0.23204 0.29318 0.86426 0.0
C822 C 0.37508 0.21605 0.8548 0.0
C823 C 0.40212 0.26091 0.9012 0.0
C824 C 0.42314 0.18905 0.89828 0.0
C825 C 0.43425 0.16677 0.90564 0.0
C826 C 0.41598 0.14418 0.91972 0.0
C827 C 0.46319 0.16807 0.89895 0.0
C828 C 0.47352 0.14672 0.90633 0.0
C829 C 0.42599 0.12326 0.92709 0.0
C830 C 0.45447 0.12453 0.92055 0.0
C831 C 0.33177 0.22387 0.92353 0.0
H832 H 0.30875 0.30353 0.86643 0.0
H833 H 0.21775 0.22377 0.88725 0.0
H834 H 0.2794 0.33101 0.85478 0.0
H835 H 0.2199 0.30596 0.85902 0.0
H836 H 0.39412 0.14291 0.92523 0.0
H837 H 0.47738 0.18542 0.88802 0.0
H838 H 0.41174 0.10614 0.93807 0.0
H839 H 0.46188 0.10843 0.92698 0.0
Gd840 Gd 0.11103 0.32787 0.37823 0.0
Gd841 Gd 0.19324 0.36227 0.40022 0.0
C842 C 0.24007 0.30074 0.41565 0.0
C843 C 0.2365 0.29923 0.44967 0.0
C844 C 0.21568 0.32871 0.43158 0.0
C845 C 0.22417 0.31938 0.41512 0.0
C846 C 0.22264 0.31959 0.44908 0.0
C847 C 0.24526 0.28987 0.43297 0.0
C848 C 0.25146 0.29474 0.39883 0.0
C849 C 0.24747 0.30777 0.38212 0.0
N850 N 0.21909 0.33058 0.39865 0.0
C851 C 0.23146 0.32601 0.38231 0.0
H852 H 0.2286 0.33596 0.36929 0.0
C853 C 0.2 0.36375 0.44631 0.0
N854 N 0.20338 0.34925 0.43048 0.0
C855 C 0.20605 0.35506 0.464 0.0
C856 C 0.21692 0.33246 0.46541 0.0
H857 H 0.19157 0.38122 0.44526 0.0
H858 H 0.25699 0.27512 0.43364 0.0
H859 H 0.08138 0.3616 0.4085 0.0
H860 H 0.2641 0.28084 0.39864 0.0
H861 H 0.25667 0.30374 0.36907 0.0
H862 H 0.24168 0.29164 0.46298 0.0
H863 H 0.10979 0.30411 0.3338 0.0
H864 H 0.04915 0.4177 0.37728 0.0
H865 H 0.05811 0.39806 0.40768 0.0
H866 H 0.06094 0.39368 0.31335 0.0
H867 H 0.2024 0.36585 0.47651 0.0
H868 H 0.22191 0.32602 0.47912 0.0
H869 H 0.0505 0.41609 0.34206 0.0
H870 H 0.09768 0.31666 0.30223 0.0
N871 N 0.08641 0.36085 0.37883 0.0
C872 C 0.05935 0.40156 0.37754 0.0
C873 C 0.06429 0.39047 0.39471 0.0
C874 C 0.06677 0.39094 0.36089 0.0
C875 C 0.08018 0.3701 0.36203 0.0
C876 C 0.0775 0.36967 0.39509 0.0
N877 N 0.09768 0.33661 0.34774 0.0
C878 C 0.08591 0.35749 0.34595 0.0
C879 C 0.09428 0.32835 0.31441 0.0
C880 C 0.08336 0.3508 0.31228 0.0
C881 C 0.10102 0.32122 0.33235 0.0
C882 C 0.07864 0.36538 0.32818 0.0
H883 H 0.07816 0.35628 0.29837 0.0
O884 O 0.07736 0.27731 0.37037 0.0
O885 O 0.1499 0.31831 0.38882 0.0
O886 O 0.19482 0.36219 0.36779 0.0
O887 O 0.14802 0.36322 0.35796 0.0
O888 O 0.12619 0.29392 0.36468 0.0
O889 O 0.06517 0.29941 0.39332 0.0
O890 O 0.22809 0.41111 0.41031 0.0
O891 O 0.15511 0.37229 0.38915 0.0
O892 O 0.10949 0.33078 0.40984 0.0
O893 O 0.15415 0.32738 0.42086 0.0
O894 O 0.17884 0.3972 0.41309 0.0
O895 O 0.24031 0.39167 0.38618 0.0
C896 C 0.14818 0.29795 0.37676 0.0
C897 C 0.06643 0.38709 0.32688 0.0
C898 C 0.06052 0.39987 0.34322 0.0
C899 C 0.05556 0.27343 0.38289 0.0
C900 C 1.02121 0.25654 0.37661 0.0
C901 C 1.00822 0.27378 0.3674 0.0
C902 C 1.0012 0.22265 0.37985 0.0
C903 C 0.96812 0.20597 0.37409 0.0
C904 C 0.97556 0.25746 0.36159 0.0
C905 C 0.95562 0.22389 0.36491 0.0
C906 C 0.17755 0.36749 0.35482 0.0
C907 C 0.15722 0.39345 0.40079 0.0
C908 C 0.25085 0.4155 0.3983 0.0
C909 C 0.28398 0.42707 0.40615 0.0
C910 C 0.28788 0.4103 0.42126 0.0
C911 C 0.31181 0.45504 0.39883 0.0
C912 C 0.34329 0.46602 0.40664 0.0
C913 C 0.31866 0.42093 0.42905 0.0
C914 C 0.34608 0.44855 0.42191 0.0
C915 C 0.1242 0.32306 0.42302 0.0
H916 H 1.02332 0.2998 0.36472 0.0
H917 H 1.01131 0.20944 0.38707 0.0
H918 H 0.96565 0.27087 0.35444 0.0
H919 H 0.9305 0.21185 0.36001 0.0
H920 H 0.2671 0.38916 0.42725 0.0
H921 H 0.30894 0.468 0.38709 0.0
H922 H 0.32122 0.40787 0.44082 0.0
H923 H 0.36946 0.45658 0.42867 0.0
Gd924 Gd 0.79967 0.10551 0.87832 0.0
Gd925 Gd 0.84677 0.18771 0.90037 0.0
C926 C 0.95614 0.23565 0.91367 0.0
C927 C 0.95607 0.23268 0.9477 0.0
C928 C 0.90471 0.2112 0.93061 0.0
C929 C 0.92157 0.21952 0.91381 0.0
C930 C 0.92181 0.2186 0.94778 0.0
C931 C 0.97323 0.24126 0.93066 0.0
C932 C 0.97252 0.24679 0.89653 0.0
C933 C 0.9545 0.24231 0.88019 0.0
N934 N 0.90429 0.214 0.89769 0.0
C935 C 0.92026 0.22611 0.88105 0.0
H936 H 0.90675 0.22296 0.86829 0.0
C937 C 0.85489 0.19592 0.94632 0.0
N938 N 0.87181 0.19876 0.93015 0.0
C939 C 0.87061 0.20223 0.96372 0.0
C940 C 0.90414 0.21313 0.96447 0.0
H941 H 0.829 0.18773 0.94575 0.0
H942 H 0.99975 0.25317 0.9308 0.0
H943 H 0.73825 0.07437 0.91001 0.0
H944 H 0.99905 0.25961 0.89583 0.0
H945 H 0.96694 0.2513 0.8669 0.0
H946 H 0.96962 0.2382 0.96074 0.0
H947 H 0.81979 0.10547 0.83333 0.0
H948 H 0.64752 0.03863 0.88085 0.0
H949 H 0.67827 0.04879 0.91052 0.0
H950 H 0.67947 0.05285 0.81614 0.0
H951 H 0.8569 0.19892 0.97651 0.0
H952 H 0.91636 0.21844 0.97795 0.0
H953 H 0.64827 0.04101 0.84562 0.0
H954 H 0.79311 0.0929 0.80226 0.0
N955 N 0.74208 0.07975 0.88027 0.0
C956 C 0.674 0.05007 0.88051 0.0
C957 C 0.69125 0.05565 0.89727 0.0
C958 C 0.69103 0.05848 0.86347 0.0
C959 C 0.72548 0.07313 0.86383 0.0
C960 C 0.72541 0.07022 0.89689 0.0
N961 N 0.77577 0.09211 0.84831 0.0
C962 C 0.7429 0.07951 0.8473 0.0
C963 C 0.77869 0.08904 0.81481 0.0
C964 C 0.74502 0.07724 0.8135 0.0
C965 C 0.7937 0.09602 0.83244 0.0
C966 C 0.72659 0.07189 0.82987 0.0
H967 H 0.73344 0.07179 0.79983 0.0
O968 O 0.81596 0.07216 0.86874 0.0
O969 O 0.84807 0.14474 0.88876 0.0
O970 O 0.84742 0.18924 0.86797 0.0
O971 O 0.79954 0.14229 0.85854 0.0
O972 O 0.84866 0.12189 0.86423 0.0
O973 O 0.78472 0.06002 0.89324 0.0
O974 O 0.83267 0.22217 0.91104 0.0
O975 O 0.79862 0.1489 0.88971 0.0
O976 O 0.79677 0.10252 0.90992 0.0
O977 O 0.84299 0.1493 0.92128 0.0
O978 O 0.79753 0.17222 0.91382 0.0
O979 O 0.86285 0.23442 0.88626 0.0
C980 C 0.86668 0.14357 0.87643 0.0
C981 C 0.69244 0.05863 0.82939 0.0
C982 C 0.67468 0.05191 0.84617 0.0
C983 C 0.79991 0.05053 0.88175 0.0
C984 C 0.78195 1.01606 0.87579 0.0
C985 C 0.75119 1.00297 0.86718 0.0
C986 C 0.79573 0.99596 0.87888 0.0
C987 C 0.77878 0.96269 0.87355 0.0
C988 C 0.73428 0.97009 0.8618 0.0
C989 C 0.74787 0.95006 0.86495 0.0
C990 C 0.8245 0.17189 0.85522 0.0
C991 C 0.77959 0.15034 0.90165 0.0
C992 C 0.85012 0.24488 0.8988 0.0
C993 C 0.87198 0.27812 0.90639 0.0
C994 C 0.89346 0.28231 0.9211 0.0
C995 C 0.87153 0.30583 0.89914 0.0
C996 C 0.89258 0.33745 0.9066 0.0
C997 C 0.91414 0.31322 0.92854 0.0
C998 C 0.91368 0.34053 0.92145 0.0
C999 C 0.81871 0.1186 0.9231 0.0
H1000 H 0.74029 0.01812 0.86466 0.0
H1001 H 0.81942 1.00614 0.88569 0.0
H1002 H 0.71056 0.96009 0.85511 0.0
H1003 H 0.73434 0.92477 0.8604 0.0
H1004 H 0.89409 0.26166 0.92703 0.0
H1005 H 0.85508 0.30278 0.88771 0.0
H1006 H 0.9304 0.316 0.94 0.0
H1007 H 0.92952 0.36406 0.92792 0.0
H1008 H 0.15158 0.89239 0.10076 0.0
H1009 H 0.16401 0.94944 0.09858 0.0
H1010 H 0.19469 0.96443 0.15657 0.0
H1011 H 0.17891 0.90674 0.15911 0.0
H1012 H 0.16173 0.99126 0.15229 0.0
H1013 H 0.20143 1.00166 0.08431 0.0
H1014 H 0.22515 0.99023 0.09884 0.0
H1015 H 0.24312 0.03118 0.08987 0.0
C1016 C 0.16142 0.90816 0.11291 0.0
C1017 C 0.16507 0.89548 0.13 0.0
C1018 C 0.16876 0.94094 0.11165 0.0
C1019 C 0.18119 0.96205 0.12727 0.0
C1020 C 0.18519 0.94909 0.14424 0.0
H1021 H 0.26762 0.16194 0.16259 0.0
H1022 H 0.24309 0.10279 0.1591 0.0
C1023 C 0.1765 0.91612 0.14569 0.0
C1024 C 0.18862 0.99704 0.12669 0.0
H1025 H 0.23239 0.07039 0.10369 0.0
C1026 C 0.17738 1.00842 0.14164 0.0
C1027 C 0.20786 0.01976 0.11246 0.0
C1028 C 0.22026 1.01017 0.09552 0.0
C1029 C 0.18615 0.04155 0.14331 0.0
C1030 C 0.20719 0.06441 0.12981 0.0
C1031 C 0.21675 0.05296 0.11425 0.0
C1032 C 0.22106 0.10044 0.13208 0.0
C1033 C 0.17264 0.05168 0.15956 0.0
C1034 C 0.21769 0.1192 0.11785 0.0
C1035 C 0.23224 0.15331 0.11967 0.0
C1036 C 0.25073 0.16946 0.13572 0.0
C1037 C 0.2539 0.15051 0.14995 0.0
C1038 C 0.23943 0.1165 0.1481 0.0
H1039 H 0.149 0.03092 0.16458 0.0
H1040 H 0.19025 0.05961 0.1714 0.0
H1041 H 0.16878 0.07233 0.15567 0.0
H1042 H 0.20393 0.10746 0.10526 0.0
H1043 H 0.22961 0.16708 0.10831 0.0
H1044 H 0.27488 0.13876 0.60306 0.0
H1045 H 0.23022 0.15118 0.60144 0.0
H1046 H 0.25091 0.18695 0.65847 0.0
H1047 H 0.29252 0.17072 0.66062 0.0
H1048 H 0.19172 0.15572 0.65619 0.0
H1049 H 0.22773 0.22945 0.59078 0.0
H1050 H 0.21446 0.18712 0.58649 0.0
H1051 H 0.2511 0.21189 0.59971 0.0
C1052 C 0.26995 0.14964 0.61511 0.0
C1053 C 0.28755 0.15459 0.63183 0.0
C1054 C 0.24454 0.15701 0.61417 0.0
C1055 C 0.23732 0.17096 0.62966 0.0
C1056 C 0.25554 0.17621 0.64625 0.0
H1057 H 0.14376 0.28639 0.63608 0.0
H1058 H 0.17916 0.26275 0.63204 0.0
C1059 C 0.27964 0.16727 0.64748 0.0
C1060 C 0.21012 0.1789 0.62933 0.0
H1061 H 0.1787 0.22011 0.60542 0.0
C1062 C 0.18924 0.17003 0.64507 0.0
C1063 C 0.20567 0.19675 0.61464 0.0
C1064 C 0.22607 0.20704 0.59702 0.0
C1065 C 0.16587 0.18006 0.64708 0.0
C1066 C 0.16227 0.19864 0.63268 0.0
C1067 C 0.18176 0.20613 0.61653 0.0
C1068 C 0.14005 0.21242 0.63459 0.0
C1069 C 0.14624 0.17183 0.66502 0.0
C1070 C 0.10614 0.192 0.63709 0.0
C1071 C 0.08581 0.2055 0.63967 0.0
C1072 C 0.09896 0.23972 0.63963 0.0
C1073 C 0.13283 0.26 0.63658 0.0
C1074 C 0.1531 0.2465 0.63409 0.0
H1075 H 0.15717 0.16411 0.67633 0.0
H1076 H 0.14441 0.19314 0.67007 0.0
H1077 H 0.12106 0.15131 0.66236 0.0
H1078 H 0.09539 0.16562 0.63716 0.0
H1079 H 0.05991 0.1891 0.64207 0.0
H1080 H 0.87829 0.11283 0.17271 0.0
H1081 H 0.93695 0.15048 0.1684 0.0
H1082 H 0.93329 0.10607 0.11488 0.0
H1083 H 0.87455 0.06731 0.11957 0.0
H1084 H 0.98808 0.11976 0.13254 0.0
H1085 H 0.97549 0.23002 0.13625 0.0
H1086 H 0.96006 0.20602 0.15717 0.0
H1087 H 0.94038 0.18932 0.13499 0.0
C1088 C 0.89004 0.11103 0.16005 0.0
C1089 C 0.87179 0.08733 0.1464 0.0
C1090 C 0.92355 0.13277 0.15751 0.0
C1091 C 0.93952 0.13199 0.14101 0.0
C1092 C 0.92157 0.1075 0.12764 0.0
H1093 H 0.1438 0.26499 0.10437 0.0
H1094 H 0.08497 0.22351 0.10435 0.0
C1095 C 0.88803 0.0853 0.13034 0.0
C1096 C 0.97486 0.15669 0.13788 0.0
H1097 H 0.02997 0.23884 0.14003 0.0
C1098 C 0.99713 0.14583 0.13385 0.0
C1099 C 0.98688 0.19087 0.13939 0.0
C1100 C 0.96437 0.20474 0.14197 0.0
C1101 C 0.03101 0.16804 0.13209 0.0
C1102 C 0.043 0.20195 0.1345 0.0
C1103 C 1.02077 0.21286 0.13815 0.0
C1104 C 0.07865 0.22642 0.13424 0.0
C1105 C 0.05401 0.15514 0.12832 0.0
C1106 C 0.0945 0.24189 0.15097 0.0
C1107 C 0.12786 0.26541 0.15098 0.0
C1108 C 0.14585 0.27465 0.13417 0.0
C1109 C 0.13018 0.25893 0.11741 0.0
C1110 C 0.09676 0.23503 0.11744 0.0
H1111 H 0.04134 0.12795 0.12891 0.0
H1112 H 0.06501 0.16317 0.11417 0.0
H1113 H 0.07433 0.16533 0.13868 0.0
H1114 H 0.08104 0.2356 0.16407 0.0
H1115 H 0.13962 0.27669 0.16412 0.0
H1116 H 0.82433 0.8656 0.61335 0.0
H1117 H 0.84976 0.92507 0.61001 0.0
H1118 H 0.81577 0.93098 0.66526 0.0
H1119 H 0.7917 0.87193 0.66907 0.0
H1120 H 0.82105 0.96118 0.60953 0.0
H1121 H 0.90931 1.00398 0.66803 0.0
H1122 H 0.8891 0.96216 0.65981 0.0
H1123 H 0.86881 0.97539 0.6761 0.0
C1124 C 0.82287 0.87961 0.62497 0.0
C1125 C 0.80594 0.86383 0.64151 0.0
C1126 C 0.83727 0.91364 0.62298 0.0
C1127 C 0.83523 0.9327 0.6375 0.0
C1128 C 0.81845 0.91703 0.65402 0.0
H1129 H 0.87399 0.12561 0.66309 0.0
H1130 H 0.85986 0.06827 0.66114 0.0
C1131 C 0.80419 0.88308 0.65606 0.0
C1132 C 0.84843 0.96853 0.63494 0.0
H1133 H 0.89452 0.04262 0.65628 0.0
C1134 C 0.83736 0.97911 0.61965 0.0
C1135 C 0.87026 0.99203 0.64789 0.0
C1136 C 0.88535 0.98285 0.66375 0.0
C1137 C 0.84558 1.01206 0.61765 0.0
C1138 C 0.86566 0.03539 0.63137 0.0
C1139 C 0.87832 0.02493 0.64603 0.0
C1140 C 0.87244 0.07011 0.63171 0.0
C1141 C 0.83149 0.02076 0.60115 0.0
C1142 C 0.88388 0.09069 0.61583 0.0
C1143 C 0.89048 0.12322 0.61678 0.0
C1144 C 0.88693 0.13614 0.6338 0.0
C1145 C 0.87642 0.11601 0.64974 0.0
C1146 C 0.86861 0.08328 0.64863 0.0
H1147 H 0.84956 0.02967 0.58951 0.0
H1148 H 0.8086 0.99926 0.59594 0.0
H1149 H 0.82607 0.0402 0.60485 0.0
H1150 H 0.88836 0.08192 0.60276 0.0
H1151 H 0.89954 0.13861 0.60442 0.0
H1152 H 0.93519 0.78662 0.16209 0.0
H1153 H 0.90057 0.81069 0.15594 0.0
H1154 H 0.93327 0.82826 0.09843 0.0
H1155 H 0.96767 0.80369 0.10439 0.0
H1156 H 0.91986 0.87542 0.14198 0.0
H1157 H 0.83148 0.77682 0.09472 0.0
H1158 H 0.85882 0.77119 0.11004 0.0
H1159 H 0.87418 0.79459 0.08884 0.0
C1160 C 0.93485 0.79535 0.14808 0.0
C1161 C 0.95407 0.79298 0.1337 0.0
C1162 C 0.91519 0.8093 0.14462 0.0
C1163 C 0.91401 0.82094 0.12668 0.0
C1164 C 0.93345 0.81905 0.11233 0.0
H1165 H 0.78503 0.89274 0.08546 0.0
H1166 H 0.8278 0.87734 0.08743 0.0
C1167 C 0.95333 0.80526 0.1158 0.0
C1168 C 0.89245 0.8351 0.12315 0.0
H1169 H 0.82338 0.82157 0.0999 0.0
C1170 C 0.89877 0.86368 0.13276 0.0
C1171 C 0.86513 0.81996 0.11097 0.0
C1172 C 0.85669 0.78881 0.10061 0.0
C1173 C 0.8784 0.87738 0.13064 0.0
C1174 C 0.85037 0.86161 0.11897 0.0
C1175 C 0.84463 0.83355 0.10895 0.0
C1176 C 0.8258 0.87271 0.1177 0.0
C1177 C 0.88745 0.9089 0.14078 0.0
C1178 C 0.81036 0.87522 0.13399 0.0
C1179 C 0.78594 0.88379 0.13283 0.0
C1180 C 0.77592 0.88929 0.11533 0.0
C1181 C 0.79192 0.88783 0.09906 0.0
C1182 C 0.81635 0.87914 0.1002 0.0
H1183 H 0.91424 0.92337 0.1435 0.0
H1184 H 0.88011 0.9243 0.13265 0.0
H1185 H 0.87476 0.90308 0.15455 0.0
H1186 H 0.81659 0.86975 0.14762 0.0
H1187 H 0.77449 0.88564 0.1456 0.0
H1188 H 0.90267 0.7645 0.60265 0.0
H1189 H 0.95977 0.809 0.6005 0.0
H1190 H 0.97514 0.79169 0.65817 0.0
H1191 H 0.91736 0.75012 0.66074 0.0
H1192 H 1.00319 0.85091 0.6546 0.0
H1193 H 0.04049 0.81041 0.59081 0.0
H1194 H 1.01089 0.82273 0.58584 0.0
H1195 H 0.99984 0.78742 0.60022 0.0
C1196 C 0.91852 0.77013 0.61474 0.0
C1197 C 0.90594 0.75345 0.63176 0.0
C1198 C 0.95132 0.79545 0.6135 0.0
C1199 C 0.97259 0.80359 0.62902 0.0
C1200 C 0.95969 0.78633 0.64592 0.0
H1201 H 0.18175 0.89747 0.63475 0.0
H1202 H 0.1227 0.86199 0.63098 0.0
C1203 C 0.92667 0.76225 0.64739 0.0
C1204 C 1.00775 0.83072 0.62835 0.0
H1205 H 0.08021 0.86048 0.60436 0.0
C1206 C 1.0199 0.85267 0.6436 0.0
C1207 C 0.02996 0.83413 0.61382 0.0
C1208 C 1.01972 0.81229 0.59682 0.0
C1209 C 0.05333 0.87619 0.6453 0.0
C1210 C 0.07541 0.87886 0.63104 0.0
C1211 C 0.06326 0.85822 0.61536 0.0
C1212 C 0.11149 0.9012 0.63271 0.0
C1213 C 0.06485 0.89699 0.66279 0.0
C1214 C 0.12507 0.93523 0.63462 0.0
C1215 C 0.15894 0.95564 0.63706 0.0
C1216 C 0.18001 0.94247 0.63747 0.0
C1217 C 0.16632 0.90847 0.63493 0.0
C1218 C 0.13252 0.88813 0.63259 0.0
H1219 H 0.04635 0.88673 0.67422 0.0
H1220 H 0.08812 0.89928 0.66801 0.0
H1221 H 0.06933 0.92192 0.6595 0.0
H1222 H 0.10947 0.94603 0.63436 0.0
H1223 H 0.16848 0.98164 0.63905 0.0
H1224 H 0.13586 0.87113 0.34839 0.0
H1225 H 0.0773 0.85316 0.35008 0.0
H1226 H 0.08481 0.86609 0.41013 0.0
H1227 H 0.14372 0.88435 0.4084 0.0
H1228 H 0.02938 0.79868 0.37036 0.0
H1229 H 0.03607 0.91449 0.39367 0.0
H1230 H 0.07082 0.91346 0.38371 0.0
H1231 H 0.05865 0.90053 0.40748 0.0
C1232 C 0.12494 0.87006 0.36194 0.0
C1233 C 0.14394 0.87809 0.37832 0.0
C1234 C 0.09155 0.8599 0.3629 0.0
C1235 C 0.07662 0.85838 0.38021 0.0
C1236 C 0.09583 0.86741 0.39659 0.0
H1237 H 0.87001 0.79669 0.40363 0.0
H1238 H 0.92918 0.81778 0.40677 0.0
C1239 C 0.12932 0.87738 0.39564 0.0
C1240 C 0.04069 0.84593 0.38097 0.0
H1241 H 0.98327 0.86825 0.39027 0.0
C1242 C 1.01932 0.81383 0.37486 0.0
C1243 C 0.02751 0.86566 0.38686 0.0
C1244 C 0.04935 0.90055 0.39319 0.0
C1245 C 0.98522 0.80089 0.37446 0.0
C1246 C 0.97201 0.82097 0.37965 0.0
C1247 C 0.99333 0.85289 0.38618 0.0
C1248 C 0.93636 0.80958 0.37771 0.0
C1249 C 0.96369 0.7656 0.36866 0.0
C1250 C 0.92079 0.79885 0.36025 0.0
C1251 C 0.88709 0.78668 0.35846 0.0
C1252 C 0.8681 0.78537 0.37403 0.0
C1253 C 0.88392 0.7974 0.39136 0.0
C1254 C 0.91772 0.80937 0.39318 0.0
H1255 H 0.976 0.75106 0.37117 0.0
H1256 H 0.94004 0.75393 0.37637 0.0
H1257 H 0.95848 0.76458 0.35342 0.0
H1258 H 0.93473 0.79973 0.34796 0.0
H1259 H 0.87584 0.77831 0.34482 0.0
H1260 H 0.11849 0.87343 0.84596 0.0
H1261 H 0.15414 0.93253 0.84984 0.0
H1262 H 0.1208 0.92542 0.90688 0.0
H1263 H 0.08535 0.86595 0.90321 0.0
H1264 H 0.13629 0.98024 0.85996 0.0
H1265 H 0.22205 0.97515 0.91169 0.0
H1266 H 0.19446 0.94014 0.89772 0.0
H1267 H 0.17913 0.95218 0.9174 0.0
C1268 C 0.1189 0.88432 0.85941 0.0
C1269 C 0.0992 0.86481 0.87433 0.0
C1270 C 0.13918 0.91819 0.86157 0.0
C1271 C 0.14053 0.93341 0.87872 0.0
C1272 C 0.12057 0.91417 0.8936 0.0
H1273 H 0.27478 0.14054 0.90876 0.0
H1274 H 0.23217 0.08234 0.91044 0.0
C1275 C 0.10007 0.88022 0.89142 0.0
C1276 C 0.16263 0.96946 0.88077 0.0
H1277 H 0.23197 0.0274 0.9028 0.0
C1278 C 0.15725 0.99056 0.86931 0.0
C1279 C 0.18967 0.98301 0.8932 0.0
C1280 C 0.19698 0.96156 0.90565 0.0
C1281 C 0.17845 0.02469 0.86967 0.0
C1282 C 0.20649 0.03819 0.88141 0.0
C1283 C 0.21102 0.01718 0.89349 0.0
C1284 C 0.2322 0.07362 0.8806 0.0
C1285 C 0.17016 0.0459 0.85762 0.0
C1286 C 0.24691 0.08812 0.86339 0.0
C1287 C 0.27094 0.12125 0.86243 0.0
C1288 C 0.28179 0.14039 0.87875 0.0
C1289 C 0.26737 0.12605 0.89603 0.0
C1290 C 0.24291 0.09288 0.89696 0.0
H1291 H 0.14331 0.03403 0.8552 0.0
H1292 H 0.1787 0.07027 0.8641 0.0
H1293 H 0.18212 0.04949 0.84373 0.0
H1294 H 0.23994 0.07375 0.85063 0.0
H1295 H 0.28147 0.13187 0.84892 0.0
H1296 H 0.17009 0.27525 0.34885 0.0
H1297 H 0.18726 0.23419 0.35076 0.0
H1298 H 0.16703 0.22399 0.41021 0.0
H1299 H 0.15127 0.26643 0.40837 0.0
H1300 H 0.22079 0.22303 0.40442 0.0
H1301 H 0.13114 0.13797 0.35322 0.0
H1302 H 0.15588 0.17723 0.34251 0.0
H1303 H 0.12956 0.17302 0.36199 0.0
C1304 C 0.16948 0.26429 0.36232 0.0
C1305 C 0.16005 0.2744 0.37852 0.0
C1306 C 0.1789 0.2405 0.36339 0.0
C1307 C 0.1777 0.22518 0.38054 0.0
C1308 C 0.16803 0.2352 0.39677 0.0
H1309 H 0.20098 0.05165 0.37581 0.0
H1310 H 0.17881 0.088 0.38118 0.0
C1311 C 0.15918 0.25954 0.39576 0.0
C1312 C 0.18739 0.19944 0.38147 0.0
H1313 H 0.17749 0.1308 0.35923 0.0
C1314 C 0.21118 0.20282 0.39457 0.0
C1315 C 0.17406 0.17213 0.36919 0.0
C1316 C 0.14598 0.16467 0.35612 0.0
C1317 C 0.22323 0.18084 0.39503 0.0
C1318 C 0.21181 0.15511 0.3817 0.0
C1319 C 0.18685 0.1508 0.36924 0.0
C1320 C 0.22576 0.13282 0.38006 0.0
C1321 C 0.24783 0.18535 0.40996 0.0
C1322 C 0.25963 0.14563 0.3777 0.0
C1323 C 0.27252 0.12482 0.37503 0.0
C1324 C 0.25183 0.09054 0.37421 0.0
C1325 C 0.21788 0.07776 0.37665 0.0
C1326 C 0.20506 0.09862 0.37956 0.0
H1327 H 0.24503 0.19761 0.42257 0.0
H1328 H 0.24532 0.16157 0.4143 0.0
H1329 H 0.27296 0.20125 0.40441 0.0
H1330 H 0.27618 0.17186 0.3775 0.0
H1331 H 0.29879 0.13575 0.3735 0.0
H1332 H 0.16985 0.25868 0.84716 0.0
H1333 H 0.11066 0.23532 0.85066 0.0
H1334 H 0.11627 0.20771 0.90759 0.0
H1335 H 0.17583 0.23158 0.9043 0.0
H1336 H 0.06246 0.16935 0.86042 0.0
H1337 H 0.06679 0.25978 0.9122 0.0
H1338 H 0.102 0.26736 0.89832 0.0
H1339 H 0.0897 0.23976 0.9179 0.0
C1340 C 0.1586 0.24789 0.8605 0.0
C1341 C 0.17773 0.24729 0.8755 0.0
C1342 C 0.12469 0.23437 0.86244 0.0
C1343 C 0.10902 0.22015 0.87946 0.0
C1344 C 0.12787 0.219 0.89441 0.0
H1345 H 0.90122 0.14709 0.9082 0.0
H1346 H 0.95939 0.16264 0.91019 0.0
C1347 C 0.16187 0.23237 0.89245 0.0
C1348 C 0.07293 0.20629 0.88127 0.0
H1349 H 1.01466 0.2179 0.90281 0.0
C1350 C 0.052 0.17998 0.86969 0.0
C1351 C 0.05919 0.21978 0.89358 0.0
C1352 C 0.08047 0.24837 0.90616 0.0
C1353 C 1.01787 0.16717 0.86982 0.0
C1354 C 1.0042 0.1817 0.88145 0.0
C1355 C 0.02502 0.20713 0.89362 0.0
C1356 C 0.96879 0.17204 0.88044 0.0
C1357 C 0.99683 0.13785 0.85764 0.0
C1358 C 0.95468 0.1726 0.86316 0.0
C1359 C 0.92156 0.16355 0.86203 0.0
C1360 C 0.90204 0.15489 0.87823 0.0
C1361 C 0.91599 0.15443 0.89556 0.0
C1362 C 0.94915 0.16312 0.89668 0.0
H1363 H 1.00871 0.12288 0.85521 0.0
H1364 H 0.97234 0.12196 0.86401 0.0
H1365 H 0.99345 0.14641 0.84375 0.0
H1366 H 0.96934 0.18025 0.8505 0.0
H1367 H 0.91126 0.1638 0.84848 0.0
H1368 H 0.90418 0.17355 0.38583 0.0
H1369 H 0.86744 0.11449 0.38882 0.0
H1370 H 0.94602 0.09762 0.37267 0.0
H1371 H 0.98304 0.15686 0.36967 0.0
H1372 H 0.84989 0.07043 0.36058 0.0
H1373 H 0.90726 0.03652 0.41763 0.0
H1374 H 0.91801 0.07841 0.41301 0.0
H1375 H 0.93452 0.05873 0.39866 0.0
C1376 C 0.91375 0.15733 0.38299 0.0
C1377 C 0.94658 0.17003 0.3774 0.0
C1378 C 0.89273 0.12352 0.38481 0.0
C1379 C 0.90394 0.10148 0.38116 0.0
C1380 C 0.93689 0.11405 0.37598 0.0
H1381 H 0.76751 0.89807 0.34928 0.0
H1382 H 0.80857 0.95624 0.34968 0.0
C1383 C 0.95804 0.14798 0.37421 0.0
C1384 C 0.88031 0.06548 0.38127 0.0
H1385 H 0.86421 0.9926 0.40075 0.0
C1386 C 0.8529 0.05342 0.36948 0.0
C1387 C 0.88413 0.04326 0.39288 0.0
C1388 C 0.9124 0.05483 0.4064 0.0
C1389 C 0.82924 0.01995 0.36887 0.0
C1390 C 0.83325 0.99731 0.38017 0.0
C1391 C 0.86077 1.00954 0.39207 0.0
C1392 C 0.80936 0.9611 0.37994 0.0
C1393 C 0.80016 1.00989 0.35617 0.0
C1394 C 0.79759 0.94327 0.3968 0.0
C1395 C 0.77486 0.90949 0.39655 0.0
C1396 C 0.76263 0.89304 0.37946 0.0
C1397 C 0.77543 0.91045 0.36267 0.0
C1398 C 0.79877 0.94388 0.3629 0.0
H1399 H 0.79405 0.02974 0.35486 0.0
H1400 H 0.80621 1.00499 0.34193 0.0
H1401 H 0.77823 0.98768 0.3613 0.0
H1402 H 0.80568 0.95552 0.4102 0.0
H1403 H 0.76675 0.89627 0.40969 0.0
H1404 H 0.88816 0.76202 0.90803 0.0
H1405 H 0.8677 0.80082 0.90878 0.0
H1406 H 0.86729 0.80221 0.84823 0.0
H1407 H 0.88458 0.76126 0.84765 0.0
H1408 H 0.88884 0.85906 0.89893 0.0
H1409 H 0.77945 0.78777 0.85474 0.0
H1410 H 0.80602 0.77213 0.86077 0.0
H1411 H 0.81576 0.79962 0.84123 0.0
C1412 C 0.88242 0.76974 0.89495 0.0
C1413 C 0.88595 0.75713 0.87782 0.0
C1414 C 0.8713 0.7924 0.89532 0.0
C1415 C 0.86451 0.80373 0.87854 0.0
C1416 C 0.87044 0.79274 0.86142 0.0
H1417 H 0.84241 0.97706 0.86802 0.0
H1418 H 0.86453 0.93996 0.87086 0.0
C1419 C 0.8806 0.76947 0.86108 0.0
C1420 C 0.85221 0.8276 0.87893 0.0
H1421 H 0.79488 0.84378 0.86016 0.0
C1422 C 0.86806 0.85541 0.89056 0.0
C1423 C 0.82506 0.82331 0.86803 0.0
C1424 C 0.80547 0.79391 0.85564 0.0
C1425 C 0.85777 0.87881 0.8915 0.0
C1426 C 0.83122 0.8747 0.88027 0.0
C1427 C 0.81529 0.84698 0.86875 0.0
C1428 C 0.81897 0.89839 0.88026 0.0
C1429 C 0.8751 0.90743 0.90472 0.0
C1430 C 0.78595 0.88747 0.88448 0.0
C1431 C 0.77321 0.90854 0.88276 0.0
C1432 C 0.79314 0.9411 0.8767 0.0
C1433 C 0.82645 0.95228 0.87293 0.0
C1434 C 0.83918 0.9311 0.87461 0.0
H1435 H 0.88878 0.90258 0.91576 0.0
H1436 H 0.89295 0.92931 0.89668 0.0
H1437 H 0.85744 0.91323 0.91158 0.0
H1438 H 0.76984 0.86237 0.88886 0.0
H1439 H 0.7476 0.89922 0.88605 0.0
H1440 H 0.14854 0.72584 0.0835 0.0
H1441 H 0.14339 0.67206 0.08797 0.0
H1442 H 0.14866 0.68607 0.14793 0.0
H1443 H 0.15478 0.74058 0.1434 0.0
H1444 H 0.19031 0.66533 0.13581 0.0
H1445 H 0.06804 0.5855 0.10498 0.0
H1446 H 0.09408 0.61784 0.08923 0.0
H1447 H 0.08225 0.62759 0.11126 0.0
C1448 C 0.14786 0.71713 0.09766 0.0
C1449 C 0.1513 0.73711 0.1131 0.0
C1450 C 0.14479 0.6863 0.10022 0.0
C1451 C 0.1451 0.67461 0.1183 0.0
C1452 C 0.14809 0.69437 0.13383 0.0
H1453 H 0.10302 0.47204 0.12769 0.0
H1454 H 0.10311 0.52342 0.13277 0.0
C1455 C 0.15122 0.72539 0.13126 0.0
C1456 C 0.14464 0.64286 0.12067 0.0
H1457 H 0.10347 0.56262 0.10705 0.0
C1458 C 0.17108 0.64274 0.12975 0.0
C1459 C 0.11942 0.61319 0.11302 0.0
C1460 C 0.08918 0.6109 0.10425 0.0
C1461 C 0.17361 0.61419 0.13071 0.0
C1462 C 0.14941 0.58503 0.12198 0.0
C1463 C 0.12234 0.58492 0.11356 0.0
C1464 C 0.15153 0.55438 0.12114 0.0
C1465 C 0.2021 0.61561 0.14119 0.0
C1466 C 0.17902 0.5544 0.11331 0.0
C1467 C 0.17919 0.52492 0.11068 0.0
C1468 C 0.15162 0.49478 0.11548 0.0
C1469 C 0.12461 0.49489 0.12384 0.0
C1470 C 0.12461 0.52428 0.12669 0.0
H1471 H 0.21168 0.63521 0.152 0.0
H1472 H 0.19507 0.5919 0.14813 0.0
H1473 H 0.2223 0.62129 0.13117 0.0
H1474 H 0.1998 0.57704 0.10845 0.0
H1475 H 0.20011 0.52555 0.10393 0.0
H1476 H 0.65411 0.10121 0.63194 0.0
H1477 H 0.60183 0.09923 0.63757 0.0
H1478 H 0.6392 0.19293 0.61021 0.0
H1479 H 0.69203 0.19546 0.60523 0.0
H1480 H 0.59959 0.18694 0.63932 0.0
H1481 H 0.53816 0.07545 0.59495 0.0
H1482 H 0.55793 0.07073 0.61523 0.0
H1483 H 0.5821 0.0994 0.59716 0.0
C1484 C 0.65135 0.12171 0.62755 0.0
C1485 C 0.67698 0.14845 0.61811 0.0
C1486 C 0.62138 0.12041 0.63058 0.0
C1487 C 0.61616 0.14543 0.6238 0.0
C1488 C 0.64251 0.17319 0.61545 0.0
H1489 H 0.4416 0.13888 0.5854 0.0
H1490 H 0.491 0.13535 0.59066 0.0
C1491 C 0.67273 0.17473 0.61267 0.0
C1492 C 0.58284 0.14178 0.62425 0.0
H1493 H 0.50429 0.09334 0.60863 0.0
C1494 C 0.5787 0.1664 0.6327 0.0
C1495 C 0.5556 0.11513 0.6154 0.0
C1496 C 0.55862 0.08883 0.60501 0.0
C1497 C 0.54832 0.16539 0.6323 0.0
C1498 C 0.52105 0.13858 0.6236 0.0
C1499 C 0.52506 0.11367 0.61548 0.0
C1500 C 0.48919 0.13759 0.62095 0.0
C1501 C 0.54615 0.1938 0.64046 0.0
C1502 C 0.47101 0.13898 0.63622 0.0
C1503 C 0.44278 0.14124 0.63319 0.0
C1504 C 0.43187 0.14134 0.61484 0.0
C1505 C 0.44929 0.1385 0.59968 0.0
C1506 C 0.47752 0.1365 0.60269 0.0
H1507 H 0.57077 0.21556 0.64277 0.0
H1508 H 0.53196 0.20098 0.6311 0.0
H1509 H 0.53343 0.18647 0.6542 0.0
H1510 H 0.47907 0.13913 0.65046 0.0
H1511 H 0.43027 0.14407 0.64514 0.0
H1512 H 0.53155 0.65334 0.07926 0.0
H1513 H 0.48041 0.60179 0.08401 0.0
H1514 H 0.48617 0.62063 0.14348 0.0
H1515 H 0.53746 0.6728 0.13869 0.0
H1516 H 0.47399 0.54998 0.1044 0.0
H1517 H 0.39048 0.59094 0.13286 0.0
H1518 H 0.42877 0.61874 0.12151 0.0
H1519 H 0.42852 0.6057 0.14522 0.0
C1520 C 0.52164 0.64679 0.09333 0.0
C1521 C 0.53858 0.66716 0.1086 0.0
C1522 C 0.49242 0.61723 0.09604 0.0
C1523 C 0.47923 0.60716 0.1141 0.0
C1524 C 0.49544 0.628 0.12936 0.0
H1525 H 0.29864 0.42198 0.14301 0.0
H1526 H 0.35258 0.47175 0.14632 0.0
C1527 C 0.52476 0.65785 0.12662 0.0
C1528 C 0.44977 0.57397 0.11674 0.0
H1529 H 0.36945 0.53388 0.13069 0.0
C1530 C 0.4512 0.54652 0.11025 0.0
C1531 C 0.42003 0.56921 0.12454 0.0
C1532 C 0.41658 0.59767 0.13131 0.0
C1533 C 0.42371 0.51479 0.11089 0.0
C1534 C 0.39366 0.51018 0.11804 0.0
C1535 C 0.39248 0.53736 0.12524 0.0
C1536 C 0.36259 0.47807 0.1165 0.0
C1537 C 0.42704 0.48647 0.10375 0.0
C1538 C 0.35038 0.46476 0.09872 0.0
C1539 C 0.31978 0.43642 0.09684 0.0
C1540 C 0.3007 0.42047 0.11269 0.0
C1541 C 0.31314 0.43323 0.13057 0.0
C1542 C 0.34382 0.46185 0.13245 0.0
H1543 H 0.45289 0.49201 0.10429 0.0
H1544 H 0.41162 0.46393 0.11201 0.0
H1545 H 0.41889 0.48155 0.08891 0.0
H1546 H 0.36398 0.47707 0.08618 0.0
H1547 H 0.31051 0.42746 0.08289 0.0
H1548 H 0.94484 0.55238 0.60753 0.0
H1549 H 0.94565 0.50189 0.61362 0.0
H1550 H 0.84154 0.45133 0.62414 0.0
H1551 H 0.84024 0.5016 0.61698 0.0
H1552 H 0.93066 0.4586 0.64143 0.0
H1553 H 0.84626 0.39811 0.58154 0.0
H1554 H 0.86387 0.4412 0.58635 0.0
H1555 H 0.82938 0.41146 0.59977 0.0
C1556 C 0.92204 0.53055 0.61116 0.0
C1557 C 0.89231 0.53091 0.61126 0.0
C1558 C 0.92261 0.50169 0.61481 0.0
C1559 C 0.89353 0.47245 0.61882 0.0
C1560 C 0.86419 0.47332 0.62053 0.0
H1561 H 0.89323 0.28855 0.6437 0.0
H1562 H 0.89474 0.34093 0.64753 0.0
C1563 C 0.86353 0.50222 0.61668 0.0
C1564 C 0.89395 0.44099 0.61974 0.0
H1565 H 0.86372 0.36665 0.59822 0.0
C1566 C 0.91591 0.4384 0.63204 0.0
C1567 C 0.87512 0.41477 0.60729 0.0
C1568 C 0.85256 0.41651 0.59287 0.0
C1569 C 0.91986 0.41064 0.63205 0.0
C1570 C 0.90083 0.38437 0.61968 0.0
C1571 C 0.87842 0.38674 0.60768 0.0
C1572 C 0.90427 0.35459 0.6182 0.0
C1573 C 0.94529 0.41037 0.64479 0.0
C1574 C 0.90932 0.34464 0.60051 0.0
C1575 C 0.90792 0.3145 0.59829 0.0
C1576 C 0.90213 0.29385 0.61374 0.0
C1577 C 0.89861 0.30433 0.63161 0.0
C1578 C 0.89949 0.33437 0.63381 0.0
H1579 H 0.96384 0.43549 0.64929 0.0
H1580 H 0.9331 0.3959 0.65756 0.0
H1581 H 0.9581 0.39895 0.63775 0.0
H1582 H 0.91313 0.35971 0.58824 0.0
H1583 H 0.91033 0.30681 0.58434 0.0
H1584 H 0.62805 0.9161 0.09242 0.0
H1585 H 0.57747 0.91828 0.0959 0.0
H1586 H 0.55905 0.86823 0.14908 0.0
H1587 H 0.6089 0.86464 0.14501 0.0
H1588 H 0.50658 0.83999 0.12938 0.0
H1589 H 0.55048 0.97242 0.1249 0.0
H1590 H 0.56417 0.95932 0.10499 0.0
H1591 H 0.57803 0.95668 0.12816 0.0
C1592 C 0.61368 0.90657 0.10512 0.0
C1593 C 0.62299 0.89144 0.11882 0.0
C1594 C 0.58478 0.90789 0.10716 0.0
C1595 C 0.56453 0.89407 0.12298 0.0
C1596 C 0.57425 0.87939 0.13684 0.0
H1597 H 0.39327 0.92026 0.1339 0.0
H1598 H 0.4448 0.92089 0.14017 0.0
C1599 C 0.60297 0.87773 0.13466 0.0
C1600 C 0.53183 0.89201 0.1241 0.0
H1601 H 0.49323 0.93646 0.11805 0.0
C1602 C 0.50378 0.86123 0.12716 0.0
C1603 C 0.52785 0.91965 0.12156 0.0
C1604 C 0.55679 0.95391 0.11993 0.0
C1605 C 0.47206 0.85715 0.1271 0.0
C1606 C 0.46794 0.88437 0.12316 0.0
C1607 C 0.49607 0.91536 0.12078 0.0
C1608 C 0.4349 0.8813 0.12101 0.0
C1609 C 0.44341 0.82371 0.13154 0.0
C1610 C 0.41164 0.85849 0.10843 0.0
C1611 C 0.38182 0.85761 0.10524 0.0
C1612 C 0.37492 0.87993 0.11428 0.0
C1613 C 0.39783 0.90242 0.12703 0.0
C1614 C 0.42739 0.90295 0.13046 0.0
H1615 H 0.451 0.80953 0.14065 0.0
H1616 H 0.42336 0.82543 0.13866 0.0
H1617 H 0.43376 0.80974 0.11831 0.0
H1618 H 0.41704 0.84222 0.10045 0.0
H1619 H 0.36491 0.84066 0.09496 0.0
H1620 H 0.73512 0.60241 0.58416 0.0
H1621 H 0.68195 0.55311 0.58889 0.0
H1622 H 0.69704 0.56217 0.64877 0.0
H1623 H 0.75097 0.61108 0.64397 0.0
H1624 H 0.67744 0.50048 0.637 0.0
H1625 H 0.595 0.53971 0.60634 0.0
H1626 H 0.62687 0.54619 0.59018 0.0
H1627 H 0.63719 0.56842 0.61199 0.0
C1628 C 0.72678 0.59427 0.59835 0.0
C1629 C 0.74691 0.61102 0.61369 0.0
C1630 C 0.69628 0.56615 0.60107 0.0
C1631 C 0.68509 0.55408 0.61921 0.0
C1632 C 0.70497 0.57109 0.63463 0.0
H1633 H 0.4844 0.38952 0.62739 0.0
H1634 H 0.53462 0.44156 0.63336 0.0
C1635 C 0.73566 0.59928 0.6319 0.0
C1636 C 0.65384 0.52245 0.62175 0.0
H1637 H 0.57359 0.48142 0.60816 0.0
C1638 C 0.65459 0.49643 0.63094 0.0
C1639 C 0.62382 0.51713 0.61412 0.0
C1640 C 0.62056 0.54448 0.60529 0.0
C1641 C 0.62659 0.46499 0.63199 0.0
C1642 C 0.59715 0.45912 0.6232 0.0
C1643 C 0.59612 0.48556 0.61472 0.0
C1644 C 0.56728 0.42585 0.62216 0.0
C1645 C 0.62891 0.43852 0.64259 0.0
C1646 C 0.56869 0.39912 0.61435 0.0
C1647 C 0.53993 0.36906 0.61128 0.0
C1648 C 0.50917 0.36538 0.61561 0.0
C1649 C 0.50783 0.39168 0.624 0.0
C1650 C 0.53653 0.42149 0.62732 0.0
H1651 H 0.64819 0.44912 0.65358 0.0
H1652 H 0.60524 0.42112 0.64935 0.0
H1653 H 0.63566 0.42467 0.6327 0.0
H1654 H 0.59186 0.40192 0.60976 0.0
H1655 H 0.54158 0.34938 0.60448 0.0
H1656 H 0.2968 0.88501 0.36754 0.0
H1657 H 0.35033 0.88876 0.3634 0.0
H1658 H 0.36282 0.89243 0.42346 0.0
H1659 H 0.31012 0.88997 0.42755 0.0
H1660 H 0.4193 0.93384 0.40654 0.0
H1661 H 0.36499 0.81219 0.37195 0.0
H1662 H 0.35756 0.84145 0.36006 0.0
H1663 H 0.34026 0.82687 0.38293 0.0
C1664 C 0.31138 0.88751 0.3798 0.0
C1665 C 0.29951 0.88774 0.39788 0.0
C1666 C 0.34176 0.88907 0.37745 0.0
C1667 C 0.36044 0.89015 0.39313 0.0
C1668 C 0.34896 0.8915 0.41112 0.0
H1669 H 0.50792 0.8335 0.40904 0.0
H1670 H 0.45697 0.83515 0.40472 0.0
C1671 C 0.31883 0.89014 0.41345 0.0
C1672 C 0.39142 0.88893 0.39118 0.0
H1673 H 0.42247 0.84102 0.37582 0.0
C1674 C 0.42002 0.91364 0.39971 0.0
C1675 C 0.39233 0.86228 0.38254 0.0
C1676 C 0.36213 0.834 0.37399 0.0
C1677 C 0.4492 0.9123 0.40009 0.0
C1678 C 0.45032 0.88595 0.39118 0.0
C1679 C 0.42181 0.86136 0.38249 0.0
C1680 C 0.48047 0.88295 0.39149 0.0
C1681 C 0.47813 0.93853 0.41075 0.0
C1682 C 0.51046 0.90845 0.3847 0.0
C1683 C 0.53949 0.90761 0.38731 0.0
C1684 C 0.53915 0.88091 0.39638 0.0
C1685 C 0.50887 0.85424 0.40188 0.0
C1686 C 0.47979 0.85529 0.39949 0.0
H1687 H 0.47055 0.95131 0.42096 0.0
H1688 H 0.49123 0.92806 0.41849 0.0
H1689 H 0.49553 0.95712 0.40072 0.0
H1690 H 0.51162 0.9296 0.37796 0.0
H1691 H 0.56248 0.92843 0.38284 0.0
H1692 H 0.68296 0.53272 0.87459 0.0
H1693 H 0.63011 0.48275 0.86822 0.0
H1694 H 0.61057 0.46905 0.92759 0.0
H1695 H 0.66285 0.51839 0.93398 0.0
H1696 H 0.60102 0.41506 0.88147 0.0
H1697 H 0.5317 0.47438 0.90602 0.0
H1698 H 0.57471 0.4974 0.90006 0.0
H1699 H 0.56193 0.47754 0.92252 0.0
C1700 C 0.66761 0.51865 0.88626 0.0
C1701 C 0.67692 0.52978 0.90478 0.0
C1702 C 0.63734 0.49024 0.88261 0.0
C1703 C 0.61594 0.4726 0.89741 0.0
C1704 C 0.6262 0.48266 0.9159 0.0
H1705 H 0.43712 0.30544 0.92773 0.0
H1706 H 0.48745 0.35817 0.92375 0.0
C1707 C 0.6562 0.51085 0.91954 0.0
C1708 C 0.5825 0.44416 0.8939 0.0
H1709 H 0.50161 0.41583 0.90384 0.0
C1710 C 0.57919 0.41535 0.88602 0.0
C1711 C 0.55395 0.44457 0.89975 0.0
C1712 C 0.55561 0.47522 0.90739 0.0
C1713 C 0.54839 0.38642 0.88494 0.0
C1714 C 0.52007 0.38645 0.89168 0.0
C1715 C 0.52325 0.41571 0.89872 0.0
C1716 C 0.4877 0.35571 0.89346 0.0
C1717 C 0.54661 0.35557 0.87756 0.0
C1718 C 0.47035 0.3371 0.87771 0.0
C1719 C 0.44131 0.30687 0.87999 0.0
C1720 C 0.42905 0.29495 0.89804 0.0
C1721 C 0.44585 0.31418 0.91366 0.0
C1722 C 0.47465 0.34429 0.9114 0.0
H1723 H 0.5713 0.35835 0.87572 0.0
H1724 H 0.53212 0.33471 0.88721 0.0
H1725 H 0.53413 0.34938 0.86374 0.0
H1726 H 0.47963 0.3456 0.86371 0.0
H1727 H 0.42923 0.29235 0.8677 0.0
H1728 H 0.2061 0.68802 0.39435 0.0
H1729 H 0.20665 0.63738 0.38731 0.0
H1730 H 0.10178 0.58178 0.39481 0.0
H1731 H 0.1008 0.6321 0.40048 0.0
H1732 H 0.19323 0.58977 0.40953 0.0
H1733 H 0.10747 0.53521 0.35049 0.0
H1734 H 0.12258 0.577 0.35778 0.0
H1735 H 0.08755 0.54373 0.36924 0.0
C1736 C 0.18304 0.66514 0.39388 0.0
C1737 C 0.15346 0.6643 0.3982 0.0
C1738 C 0.18339 0.63606 0.39001 0.0
C1739 C 0.1542 0.60546 0.39032 0.0
C1740 C 0.1246 0.60484 0.39396 0.0
H1741 H 0.14273 0.42578 0.42676 0.0
H1742 H 0.1406 0.47621 0.42265 0.0
C1743 C 0.12417 0.63381 0.39757 0.0
C1744 C 0.15489 0.57407 0.38888 0.0
H1745 H 0.11499 0.49698 0.36985 0.0
C1746 C 0.17642 0.56975 0.4006 0.0
C1747 C 0.13344 0.54778 0.37705 0.0
C1748 C 0.11177 0.55134 0.36279 0.0
C1749 C 0.17614 0.53979 0.40144 0.0
C1750 C 0.1528 0.5127 0.3908 0.0
C1751 C 0.13233 0.51737 0.37838 0.0
C1752 C 0.14922 0.47946 0.39269 0.0
C1753 C 0.20119 0.5377 0.41368 0.0
C1754 C 0.15225 0.46294 0.37703 0.0
C1755 C 0.15262 0.4335 0.37933 0.0
C1756 C 0.1498 0.42006 0.39732 0.0
C1757 C 0.14496 0.43564 0.41276 0.0
C1758 C 0.14412 0.46467 0.41043 0.0
H1759 H 0.22333 0.56218 0.41565 0.0
H1760 H 0.1904 0.5284 0.42774 0.0
H1761 H 0.20891 0.52091 0.40761 0.0
H1762 H 0.15586 0.47358 0.36316 0.0
H1763 H 0.15685 0.42229 0.36721 0.0
H1764 H 0.73264 0.134 0.92785 0.0
H1765 H 0.67957 0.13098 0.92431 0.0
H1766 H 0.6979 0.15036 0.86505 0.0
H1767 H 0.75031 0.15173 0.86852 0.0
H1768 H 0.67011 0.17825 0.91559 0.0
H1769 H 0.60441 0.08169 0.86227 0.0
H1770 H 0.64156 0.08806 0.87329 0.0
H1771 H 0.64339 0.11378 0.85413 0.0
C1772 C 0.72481 0.13659 0.91398 0.0
C1773 C 0.74533 0.14249 0.89843 0.0
C1774 C 0.69456 0.13511 0.91195 0.0
C1775 C 0.68431 0.14029 0.89438 0.0
C1776 C 0.70454 0.14542 0.87869 0.0
H1777 H 0.53361 0.20032 0.89724 0.0
H1778 H 0.58528 0.20106 0.89132 0.0
C1779 C 0.73464 0.14625 0.88067 0.0
C1780 C 0.65401 0.14309 0.89309 0.0
H1781 H 0.58051 0.11407 0.8705 0.0
C1782 C 0.65052 0.16408 0.90573 0.0
C1783 C 0.62826 0.12477 0.88024 0.0
C1784 C 0.62937 0.10058 0.86683 0.0
C1785 C 0.62202 0.16665 0.90627 0.0
C1786 C 0.59643 0.14869 0.89326 0.0
C1787 C 0.60014 0.12817 0.88035 0.0
C1788 C 0.56455 0.14855 0.89401 0.0
C1789 C 0.61915 0.1875 0.92141 0.0
C1790 C 0.53511 0.11874 0.89613 0.0
C1791 C 0.50545 0.11821 0.89898 0.0
C1792 C 0.50431 0.14751 0.90002 0.0
C1793 C 0.53344 0.17727 0.89665 0.0
C1794 C 0.56318 0.17775 0.89355 0.0
H1795 H 0.6367 0.19245 0.93305 0.0
H1796 H 0.62474 0.21143 0.91534 0.0
H1797 H 0.594 0.1755 0.92735 0.0
H1798 H 0.53518 0.09579 0.8963 0.0
H1799 H 0.48345 0.09469 0.90093 0.0
H1800 H 0.34968 0.52469 0.39468 0.0
H1801 H 0.40046 0.57562 0.38748 0.0
H1802 H 0.456 0.52687 0.39721 0.0
H1803 H 0.40554 0.47574 0.40307 0.0
H1804 H 0.44724 0.61045 0.41003 0.0
H1805 H 0.50383 0.57779 0.35265 0.0
H1806 H 0.4618 0.55126 0.35966 0.0
H1807 H 0.49474 0.54994 0.3718 0.0
C1808 C 0.37259 0.52453 0.39467 0.0
C1809 C 0.37335 0.49601 0.39967 0.0
C1810 C 0.40174 0.55381 0.3907 0.0
C1811 C 0.43234 0.5553 0.39159 0.0
C1812 C 0.43293 0.52652 0.39591 0.0
H1813 H 0.61069 0.72364 0.42847 0.0
H1814 H 0.56031 0.67112 0.42414 0.0
C1815 C 0.40389 0.49725 0.39963 0.0
C1816 C 0.46369 0.58736 0.39011 0.0
H1817 H 0.54137 0.62422 0.37181 0.0
C1818 C 0.46756 0.61348 0.40141 0.0
C1819 C 0.49036 0.59194 0.37867 0.0
C1820 C 0.4873 0.56631 0.36487 0.0
C1821 C 0.49744 0.64321 0.40225 0.0
C1822 C 0.52487 0.64673 0.39205 0.0
C1823 C 0.52068 0.62132 0.38001 0.0
C1824 C 0.55802 0.67639 0.3941 0.0
C1825 C 0.49914 0.67061 0.41406 0.0
C1826 C 0.57494 0.69588 0.3785 0.0
C1827 C 0.60431 0.72569 0.38093 0.0
C1828 C 0.61725 0.73633 0.399 0.0
C1829 C 0.60121 0.71598 0.41441 0.0
C1830 C 0.57224 0.68613 0.41195 0.0
H1831 H 0.47458 0.66826 0.41567 0.0
H1832 H 0.50809 0.66952 0.42829 0.0
H1833 H 0.51606 0.69497 0.40786 0.0
H1834 H 0.5647 0.68878 0.36455 0.0
H1835 H 0.61592 0.74109 0.36884 0.0
H1836 H 0.90817 0.60888 0.92723 0.0
H1837 H 0.91093 0.55879 0.92326 0.0
H1838 H 0.89146 0.55881 0.8641 0.0
H1839 H 0.89034 0.60992 0.86799 0.0
H1840 H 0.86246 0.50255 0.91414 0.0
H1841 H 0.95977 0.5331 0.86117 0.0
H1842 H 0.95396 0.564 0.87251 0.0
H1843 H 0.92817 0.54089 0.85321 0.0
C1844 C 0.90551 0.59868 0.91329 0.0
C1845 C 0.89956 0.61353 0.89789 0.0
C1846 C 0.90686 0.56993 0.91102 0.0
C1847 C 0.90149 0.55478 0.89336 0.0
C1848 C 0.89647 0.57019 0.8778 0.0
H1849 H 0.83976 0.34406 0.89602 0.0
H1850 H 0.83963 0.39505 0.8894 0.0
C1851 C 0.89578 0.59946 0.88003 0.0
C1852 C 0.89819 0.52157 0.8919 0.0
H1853 H 0.92718 0.47694 0.86948 0.0
C1854 C 0.87671 0.49705 0.90437 0.0
C1855 C 0.9166 0.51412 0.87912 0.0
C1856 C 0.94114 0.53947 0.86585 0.0
C1857 C 0.87383 0.46589 0.90488 0.0
C1858 C 0.89201 0.45829 0.89201 0.0
C1859 C 0.91294 0.48252 0.87921 0.0
C1860 C 0.89202 0.42658 0.8929 0.0
C1861 C 0.85248 0.44206 0.91985 0.0
C1862 C 0.92165 0.42687 0.8957 0.0
C1863 C 0.92187 0.39772 0.89897 0.0
C1864 C 0.89241 0.36741 0.89975 0.0
C1865 C 0.86291 0.36686 0.89565 0.0
C1866 C 0.86276 0.39613 0.89212 0.0
H1867 H 0.84708 0.45454 0.93138 0.0
H1868 H 0.82877 0.42372 0.91357 0.0
H1869 H 0.86432 0.42891 0.92601 0.0
H1870 H 0.94465 0.44986 0.89613 0.0
H1871 H 0.9452 0.3991 0.90151 0.0
H1872 H 0.21912 0.352 0.33617 0.0
H1873 H 0.23071 0.35735 0.30231 0.0
H1874 H 0.17253 0.40397 0.29534 0.0
H1875 H 0.16144 0.39928 0.32892 0.0
H1876 H 0.18253 0.32901 0.27415 0.0
H1877 H 0.25529 0.46384 0.26528 0.0
H1878 H 0.24932 0.44411 0.28782 0.0
H1879 H 0.21768 0.45024 0.27792 0.0
C1880 C 0.20964 0.36423 0.32748 0.0
C1881 C 0.18948 0.37532 0.33523 0.0
C1882 C 0.21601 0.36701 0.30812 0.0
C1883 C 0.20271 0.38132 0.2963 0.0
C1884 C 0.18356 0.3934 0.30417 0.0
H1885 H 0.16462 0.34971 0.17584 0.0
H1886 H 0.15941 0.35424 0.20988 0.0
C1887 C 0.17713 0.39055 0.3234 0.0
C1888 C 0.20671 0.38165 0.27559 0.0
H1889 H 0.23363 0.43229 0.23737 0.0
C1890 C 0.19389 0.35159 0.26612 0.0
C1891 C 0.22161 0.41113 0.26511 0.0
C1892 C 0.23705 0.44419 0.27454 0.0
C1893 C 0.19506 0.35021 0.24644 0.0
C1894 C 0.20899 0.37964 0.23594 0.0
C1895 C 0.22241 0.40972 0.24543 0.0
C1896 C 0.21167 0.3797 0.21516 0.0
C1897 C 0.18186 0.31729 0.23706 0.0
C1898 C 0.24271 0.39375 0.20679 0.0
C1899 C 0.24571 0.39144 0.18744 0.0
C1900 C 0.21772 0.37513 0.17601 0.0
C1901 C 0.18661 0.36261 0.18425 0.0
C1902 C 0.18361 0.36484 0.20371 0.0
H1903 H 0.17834 0.29786 0.24718 0.0
H1904 H 0.15777 0.31015 0.2306 0.0
H1905 H 0.19864 0.31844 0.22575 0.0
H1906 H 0.26467 0.40544 0.21531 0.0
H1907 H 0.27006 0.40143 0.18152 0.0
H1908 H 0.82774 0.15946 0.67597 0.0
H1909 H 0.81566 0.15418 0.70972 0.0
H1910 H 0.87779 0.25859 0.71629 0.0
H1911 H 0.88947 0.2641 0.68273 0.0
H1912 H 0.86385 0.17261 0.73794 0.0
H1913 H 0.79539 0.23939 0.74604 0.0
H1914 H 0.80049 0.22456 0.72365 0.0
H1915 H 0.83327 0.26175 0.73337 0.0
C1916 C 0.83805 0.18136 0.68452 0.0
C1917 C 0.8595 0.21218 0.67667 0.0
C1918 C 0.83136 0.17829 0.70382 0.0
C1919 C 0.84562 0.20603 0.71552 0.0
C1920 C 0.86604 0.23692 0.70754 0.0
H1921 H 0.88129 0.21214 0.83607 0.0
H1922 H 0.8869 0.22258 0.80211 0.0
C1923 C 0.87281 0.23998 0.68834 0.0
C1924 C 0.84133 0.20261 0.73622 0.0
H1925 H 0.8149 0.2275 0.77414 0.0
C1926 C 0.85299 0.18447 0.74584 0.0
C1927 C 0.82711 0.21804 0.74652 0.0
C1928 C 0.81306 0.2368 0.73689 0.0
C1929 C 0.85127 0.18177 0.7655 0.0
C1930 C 0.83789 0.19796 0.77583 0.0
C1931 C 0.82566 0.21558 0.7662 0.0
C1932 C 0.83476 0.1952 0.79657 0.0
C1933 C 0.86334 0.16123 0.77509 0.0
C1934 C 0.80361 0.17753 0.80475 0.0
C1935 C 0.80037 0.1717 0.82405 0.0
C1936 C 0.82824 0.1836 0.83561 0.0
C1937 C 0.8594 0.20291 0.82757 0.0
C1938 C 0.86263 0.20858 0.80816 0.0
H1939 H 0.86715 0.14545 0.76501 0.0
H1940 H 0.88706 0.17759 0.78209 0.0
H1941 H 0.84568 0.1454 0.78602 0.0
H1942 H 0.7818 0.16706 0.79608 0.0
H1943 H 0.776 0.15677 0.82985 0.0
H1944 H 0.63964 0.81473 0.17447 0.0
H1945 H 0.63019 0.8033 0.20831 0.0
H1946 H 0.72118 0.89151 0.22035 0.0
H1947 H 0.73073 0.90319 0.18688 0.0
H1948 H 0.70719 0.82766 0.23915 0.0
H1949 H 0.61123 0.86294 0.2474 0.0
H1950 H 0.60816 0.83693 0.22802 0.0
H1951 H 0.64081 0.87866 0.22851 0.0
C1952 C 0.65773 0.83148 0.18434 0.0
C1953 C 0.68588 0.85989 0.17798 0.0
C1954 C 0.65217 0.82508 0.20363 0.0
C1955 C 0.67482 0.84683 0.21678 0.0
C1956 C 0.70329 0.87461 0.21043 0.0
H1957 H 0.68418 0.87291 0.33771 0.0
H1958 H 0.68176 0.8798 0.30366 0.0
C1959 C 0.70868 0.88119 0.19127 0.0
C1960 C 0.66958 0.84068 0.23722 0.0
H1961 H 0.62734 0.84631 0.27473 0.0
C1962 C 0.68959 0.8315 0.24693 0.0
C1963 C 0.64691 0.84619 0.24729 0.0
C1964 C 0.62552 0.85688 0.2374 0.0
C1965 C 0.68749 0.82757 0.26648 0.0
C1966 C 0.66468 0.83283 0.27662 0.0
C1967 C 0.64472 0.8422 0.26692 0.0
C1968 C 0.66137 0.82833 0.29727 0.0
C1969 C 0.70996 0.81807 0.27619 0.0
C1970 C 0.64951 0.79704 0.30496 0.0
C1971 C 0.6507 0.79305 0.32429 0.0
C1972 C 0.66386 0.82031 0.33639 0.0
C1973 C 0.67376 0.85144 0.32881 0.0
C1974 C 0.67251 0.85541 0.30935 0.0
H1975 H 0.73098 0.82235 0.26716 0.0
H1976 H 0.71961 0.83197 0.28946 0.0
H1977 H 0.69587 0.79157 0.27965 0.0
H1978 H 0.64052 0.77579 0.29592 0.0
H1979 H 0.64253 0.76865 0.32967 0.0
H1980 H 0.78313 0.61339 0.67905 0.0
H1981 H 0.78804 0.60793 0.71287 0.0
H1982 H 0.88722 0.68948 0.7112 0.0
H1983 H 0.88306 0.69292 0.6771 0.0
H1984 H 0.88583 0.6502 0.73531 0.0
H1985 H 0.77702 0.66194 0.75026 0.0
H1986 H 0.76587 0.62541 0.73717 0.0
H1987 H 0.7925 0.66496 0.72685 0.0
C1988 C 0.80624 0.62948 0.68591 0.0
C1989 C 0.83286 0.65329 0.67553 0.0
C1990 C 0.80885 0.62682 0.70531 0.0
C1991 C 0.83758 0.64907 0.71489 0.0
C1992 C 0.86465 0.67208 0.7043 0.0
H1993 H 0.84582 0.69522 0.83386 0.0
H1994 H 0.83736 0.69022 0.79979 0.0
C1995 C 0.8624 0.67396 0.68478 0.0
C1996 C 0.83945 0.64882 0.73585 0.0
H1997 H 0.79963 0.64818 0.77618 0.0
C1998 C 0.86701 0.64995 0.7442 0.0
C1999 C 0.81521 0.64897 0.74767 0.0
C2000 C 0.78619 0.65061 0.74002 0.0
C2001 C 0.87118 0.65143 0.76378 0.0
C2002 C 0.84626 0.65012 0.7756 0.0
C2003 C 0.81862 0.64883 0.76726 0.0
C2004 C 0.8489 0.65131 0.79654 0.0
C2005 C 0.90301 0.65579 0.7714 0.0
C2006 C 0.85695 0.63037 0.80632 0.0
C2007 C 0.86256 0.63384 0.82566 0.0
C2008 C 0.85872 0.65724 0.83581 0.0
C2009 C 0.84839 0.67662 0.82637 0.0
C2010 C 0.84377 0.67386 0.80688 0.0
H2011 H 0.92311 0.6675 0.76093 0.0
H2012 H 0.91061 0.67107 0.78423 0.0
H2013 H 0.89992 0.63144 0.77486 0.0
H2014 H 0.85975 0.61185 0.79894 0.0
H2015 H 0.87063 0.61869 0.83266 0.0
H2016 H 0.20444 0.87575 0.17558 0.0
H2017 H 0.21188 0.88113 0.20963 0.0
H2018 H 0.19119 0.78102 0.213 0.0
H2019 H 0.18114 0.77505 0.1792 0.0
H2020 H 0.15976 0.78839 0.23856 0.0
H2021 H 0.28353 0.89707 0.24331 0.0
H2022 H 0.25659 0.90677 0.23074 0.0
H2023 H 0.26643 0.87719 0.22126 0.0
C2024 C 0.20239 0.85526 0.18359 0.0
C2025 C 0.19288 0.8252 0.17478 0.0
C2026 C 0.20672 0.85832 0.2031 0.0
C2027 C 0.20284 0.83172 0.21407 0.0
C2028 C 0.19444 0.80201 0.20501 0.0
H2029 H 0.26462 0.86125 0.33112 0.0
H2030 H 0.25933 0.851 0.29734 0.0
C2031 C 0.18907 0.79867 0.18565 0.0
C2032 C 0.20522 0.83388 0.23503 0.0
H2033 H 0.25155 0.88176 0.27144 0.0
C2034 C 0.18015 0.80864 0.2457 0.0
C2035 C 0.23185 0.86002 0.24457 0.0
C2036 C 0.26125 0.88655 0.23435 0.0
C2037 C 0.18091 0.80875 0.26543 0.0
C2038 C 0.20657 0.83581 0.27497 0.0
C2039 C 0.23165 0.86104 0.26429 0.0
C2040 C 0.20839 0.8385 0.29591 0.0
C2041 C 0.15464 0.77921 0.27569 0.0
C2042 C 0.18144 0.83426 0.30668 0.0
C2043 C 0.18413 0.8388 0.32618 0.0
C2044 C 0.21415 0.8488 0.33519 0.0
C2045 C 0.24104 0.85297 0.32452 0.0
C2046 C 0.23808 0.84746 0.30517 0.0
H2047 H 0.14464 0.75684 0.26684 0.0
H2048 H 0.1641 0.7745 0.28889 0.0
H2049 H 0.13403 0.78338 0.27912 0.0
H2050 H 0.1586 0.82863 0.29998 0.0
H2051 H 0.16335 0.83646 0.33403 0.0
H2052 H 0.36133 0.15958 0.83601 0.0
H2053 H 0.36736 0.15383 0.80219 0.0
H2054 H 0.41082 0.25831 0.79526 0.0
H2055 H 0.40541 0.26429 0.82881 0.0
H2056 H 0.33827 0.17286 0.77358 0.0
H2057 H 0.47358 0.23784 0.76601 0.0
H2058 H 0.45328 0.2232 0.78834 0.0
H2059 H 0.45845 0.26065 0.77853 0.0
C2060 C 0.37294 0.18136 0.82734 0.0
C2061 C 0.38296 0.21237 0.83512 0.0
C2062 C 0.37613 0.17804 0.808 0.0
C2063 C 0.3898 0.20569 0.7962 0.0
C2064 C 0.40073 0.2367 0.80408 0.0
H2065 H 0.36212 0.2109 0.67502 0.0
H2066 H 0.36587 0.22154 0.70896 0.0
C2067 C 0.39745 0.24002 0.8233 0.0
C2068 C 0.39081 0.20217 0.77551 0.0
H2069 H 0.44264 0.22642 0.73779 0.0
C2070 C 0.36109 0.18443 0.76576 0.0
C2071 C 0.42061 0.21724 0.76531 0.0
C2072 C 0.45334 0.23557 0.77506 0.0
C2073 C 0.36035 0.18174 0.7461 0.0
C2074 C 0.39008 0.19755 0.73587 0.0
C2075 C 0.41984 0.21481 0.74563 0.0
C2076 C 0.3908 0.19453 0.71515 0.0
C2077 C 0.32779 0.16156 0.7364 0.0
C2078 C 0.40475 0.17704 0.70732 0.0
C2079 C 0.40281 0.17114 0.68804 0.0
C2080 C 0.38704 0.18278 0.67612 0.0
C2081 C 0.37467 0.20189 0.6838 0.0
C2082 C 0.37646 0.20764 0.70321 0.0
H2083 H 0.30801 0.14587 0.74642 0.0
H2084 H 0.32077 0.17819 0.72939 0.0
H2085 H 0.32951 0.14569 0.72547 0.0
H2086 H 0.41601 0.16679 0.71623 0.0
H2087 H 0.41261 0.15635 0.68254 0.0
H2088 H 0.29378 0.17781 0.95037 0.0
H2089 H 0.26776 0.18663 0.97807 0.0
H2090 H 0.31463 0.28966 0.96496 0.0
H2091 H 0.33972 0.28106 0.93747 0.0
H2092 H 0.29074 0.22337 0.00936 0.0
H2093 H 0.22134 0.26886 0.96948 0.0
H2094 H 0.24122 0.2491 0.95823 0.0
H2095 H 0.26404 0.2922 0.96373 0.0
C2096 C 0.29856 0.20231 0.95348 0.0
C2097 C 0.31846 0.2286 0.94148 0.0
C2098 C 0.28356 0.20733 0.96926 0.0
C2099 C 0.28825 0.23868 0.97329 0.0
C2100 C 0.30945 0.26503 0.96182 0.0
H2101 H 0.28681 0.33063 0.07476 0.0
H2102 H 0.29569 0.30585 0.04726 0.0
C2103 C 0.32409 0.26005 0.9461 0.0
C2104 C 0.27209 0.24469 0.98967 0.0
H2105 H 0.23147 0.28512 1.00218 0.0
C2106 C 0.2773 0.23636 0.00774 0.0
C2107 C 0.25368 0.26089 0.98769 0.0
C2108 C 0.24442 0.26791 0.9687 0.0
C2109 C 0.2667 0.24579 0.02383 0.0
C2110 C 0.25121 0.26487 0.02189 0.0
C2111 C 0.24391 0.27113 1.00379 0.0
C2112 C 0.24501 0.28071 0.03834 0.0
C2113 C 0.27259 0.23545 0.0428 0.0
C2114 C 0.21377 0.27658 0.04209 0.0
C2115 C 0.20859 0.29138 0.05791 0.0
C2116 C 0.23461 0.31055 0.07021 0.0
C2117 C 0.26598 0.31558 0.06589 0.0
C2118 C 0.27112 0.30112 0.05016 0.0
H2119 H 0.273 0.21212 0.04182 0.0
H2120 H 0.29684 0.25449 0.04816 0.0
H2121 H 0.25348 0.23222 0.05307 0.0
H2122 H 0.19328 0.2614 0.03302 0.0
H2123 H 0.18416 0.28707 0.06077 0.0
H2124 H 0.06507 0.31643 0.43254 0.0
H2125 H 0.03348 0.29389 0.46105 0.0
H2126 H 0.1086 0.27641 0.483 0.0
H2127 H 0.14064 0.2986 0.45401 0.0
H2128 H 1.01115 0.22794 0.47698 0.0
H2129 H 0.09168 0.33126 0.52432 0.0
H2130 H 0.09264 0.33607 0.49915 0.0
H2131 H 0.11041 0.31401 0.50967 0.0
C2132 C 0.0752 0.30792 0.44333 0.0
C2133 C 0.10582 0.30979 0.44092 0.0
C2134 C 0.0569 0.29493 0.45968 0.0
C2135 C 0.06868 0.28363 0.4742 0.0
C2136 C 0.09918 0.28532 0.47201 0.0
H2137 H 0.98436 0.22506 0.58645 0.0
H2138 H 1.01876 0.23678 0.55859 0.0
C2139 C 0.11755 0.29816 0.45547 0.0
C2140 C 0.04855 0.27016 0.49149 0.0
H2141 H 0.04294 0.28885 0.53712 0.0
C2142 C 1.0182 0.24104 0.49021 0.0
C2143 C 0.05776 0.28729 0.5087 0.0
C2144 C 0.08979 0.319 0.51069 0.0
C2145 C 0.99673 0.22867 0.50565 0.0
C2146 C 1.00538 0.24642 0.52273 0.0
C2147 C 0.03613 0.2752 0.52407 0.0
C2148 C 0.98292 0.23606 0.53931 0.0
C2149 C 0.96518 0.19651 0.50351 0.0
C2150 C 0.95099 0.23131 0.53788 0.0
C2151 C 0.93106 0.22412 0.55385 0.0
C2152 C 0.94284 0.22204 0.57158 0.0
C2153 C 0.97456 0.2264 0.57295 0.0
C2154 C 0.99429 0.23318 0.55702 0.0
H2155 H 0.96718 0.18123 0.49229 0.0
H2156 H 0.95818 0.18231 0.5168 0.0
H2157 H 0.94525 0.20139 0.49951 0.0
H2158 H 0.94189 0.23439 0.52455 0.0
H2159 H 0.90727 0.22205 0.55242 0.0
H2160 H 0.7365 0.89852 0.05538 0.0
H2161 H 0.75821 0.93172 0.02664 0.0
H2162 H 0.71374 0.98889 0.04258 0.0
H2163 H 0.69156 0.95572 0.07082 0.0
H2164 H 0.72205 0.95156 0.99632 0.0
H2165 H 0.81876 0.05264 0.03852 0.0
H2166 H 0.79588 1.01099 0.04708 0.0
H2167 H 0.77753 0.0365 0.04693 0.0
C2168 C 0.73064 0.91757 0.05245 0.0
C2169 C 0.71267 0.92476 0.06547 0.0
C2170 C 0.74324 0.93667 0.03613 0.0
C2171 C 0.73805 0.96314 0.03268 0.0
C2172 C 0.7184 0.96889 0.04508 0.0
H2173 H 0.80269 0.12943 0.95823 0.0
H2174 H 0.78514 0.09126 0.9849 0.0
C2175 C 0.70573 0.94985 0.06122 0.0
C2176 C 0.75431 0.98609 0.01677 0.0
H2177 H 0.81248 0.06533 0.00704 0.0
C2178 C 0.74212 0.9763 0.99856 0.0
C2179 C 0.78016 0.0185 0.01981 0.0
C2180 C 0.79411 0.03033 0.03913 0.0
C2181 C 0.75441 0.99838 0.98337 0.0
C2182 C 0.78035 0.03094 0.9864 0.0
C2183 C 0.7928 0.04046 1.00463 0.0
C2184 C 0.7942 0.05567 0.97096 0.0
C2185 C 0.73841 0.98694 0.96442 0.0
C2186 C 0.80652 0.04922 0.95455 0.0
C2187 C 0.8164 0.07095 0.93937 0.0
C2188 C 0.81509 0.10003 0.94046 0.0
C2189 C 0.80468 0.10757 0.95722 0.0
C2190 C 0.79435 0.08557 0.97237 0.0
H2191 H 0.71342 0.96525 0.96564 0.0
H2192 H 0.73658 1.00668 0.95699 0.0
H2193 H 0.75334 0.97975 0.95573 0.0
H2194 H 0.80765 0.02692 0.95326 0.0
H2195 H 0.82413 0.06452 0.92651 0.0
H2196 H 0.81708 0.76358 0.58655 0.0
H2197 H 0.80227 0.78554 0.55947 0.0
H2198 H 0.80082 0.71026 0.52447 0.0
H2199 H 0.81532 0.68803 0.55161 0.0
H2200 H 0.83243 0.8059 0.52065 0.0
H2201 H 0.70557 0.69942 0.52284 0.0
H2202 H 0.73318 0.71088 0.54257 0.0
H2203 H 0.73822 0.69006 0.52289 0.0
C2204 C 0.81419 0.75206 0.57299 0.0
C2205 C 0.81774 0.72426 0.57117 0.0
C2206 C 0.80579 0.76469 0.55754 0.0
C2207 C 0.80026 0.74946 0.53997 0.0
C2208 C 0.80497 0.7224 0.53792 0.0
H2209 H 0.71947 0.75479 0.43431 0.0
H2210 H 0.74103 0.74463 0.46263 0.0
C2211 C 0.81368 0.70992 0.55339 0.0
C2212 C 0.78726 0.7604 0.52421 0.0
H2213 H 0.71859 0.73648 0.49771 0.0
C2214 C 0.80753 0.79085 0.51562 0.0
C2215 C 0.75464 0.74091 0.51788 0.0
C2216 C 0.73142 0.70858 0.52706 0.0
C2217 C 0.79644 0.80164 0.50029 0.0
C2218 C 0.76393 0.78179 0.49369 0.0
C2219 C 0.74348 0.75179 0.50272 0.0
C2220 C 0.75142 0.78972 0.47635 0.0
C2221 C 0.82001 0.83353 0.49084 0.0
C2222 C 0.74984 0.81869 0.47441 0.0
C2223 C 0.73754 0.82492 0.45784 0.0
C2224 C 0.72623 0.80209 0.44304 0.0
C2225 C 0.72775 0.77313 0.44526 0.0
C2226 C 0.74013 0.76711 0.46158 0.0
H2227 H 0.84581 0.84228 0.49501 0.0
H2228 H 0.81813 0.83091 0.47534 0.0
H2229 H 0.81384 0.85255 0.49488 0.0
H2230 H 0.75788 0.83634 0.48572 0.0
H2231 H 0.73709 0.84758 0.45661 0.0
H2232 H 0.91669 0.74795 0.95028 0.0
H2233 H 0.95171 0.77298 0.97803 0.0
H2234 H 1.00591 0.7242 0.96455 0.0
H2235 H 0.97209 0.70013 0.93701 0.0
H2236 H 0.96491 0.74929 0.0092 0.0
H2237 H 0.07984 0.81664 0.96905 0.0
H2238 H 0.04015 0.79759 0.95789 0.0
H2239 H 0.05963 0.77395 0.96328 0.0
C2240 C 0.93605 0.74257 0.95332 0.0
C2241 C 0.94192 0.7225 0.94119 0.0
C2242 C 0.95614 0.75697 0.96913 0.0
C2243 C 0.98234 0.75148 0.97306 0.0
C2244 C 0.98688 0.73002 0.96148 0.0
H2245 H 0.0756 0.752 0.07487 0.0
H2246 H 0.04156 0.74305 0.04751 0.0
C2247 C 0.96721 0.716 0.94573 0.0
C2248 C 1.00472 0.76715 0.9894 0.0
H2249 H 0.08582 0.80616 1.00169 0.0
C2250 C 0.99134 0.7622 0.00751 0.0
C2251 C 0.03933 0.78488 0.98734 0.0
C2252 C 0.05554 0.7939 0.96831 0.0
C2253 C 1.01148 0.77245 0.02355 0.0
C2254 C 0.04599 0.78724 0.02152 0.0
C2255 C 0.05943 0.79423 1.00338 0.0
C2256 C 0.06812 0.79334 0.03792 0.0
C2257 C 0.99541 0.76704 0.04255 0.0
C2258 C 0.09591 0.82429 0.04123 0.0
C2259 C 0.11612 0.82945 0.05691 0.0
C2260 C 0.10883 0.80373 0.06954 0.0
C2261 C 0.08175 0.7726 0.06571 0.0
C2262 C 0.06192 0.76745 0.05008 0.0
H2263 H 0.972 0.76732 0.04161 0.0
H2264 H 0.98959 0.74263 0.04796 0.0
H2265 H 1.01167 0.78601 0.05278 0.0
H2266 H 0.10161 0.8446 0.03189 0.0
H2267 H 0.13682 0.85369 0.0594 0.0
H2268 H 0.23739 0.97492 0.42569 0.0
H2269 H 0.25238 1.01009 0.45346 0.0
H2270 H 0.2446 0.93098 0.4876 0.0
H2271 H 0.22988 0.89579 0.45975 0.0
H2272 H 0.21888 0.99959 0.49121 0.0
H2273 H 0.34212 1.01072 0.49291 0.0
H2274 H 0.31657 0.99764 0.47222 0.0
H2275 H 0.30746 0.96986 0.49148 0.0
C2276 C 0.23837 0.96484 0.43917 0.0
C2277 C 0.23208 0.9324 0.44055 0.0
C2278 C 0.24687 0.98497 0.45503 0.0
C2279 C 0.24979 0.97327 0.47259 0.0
C2280 C 0.2425 0.94053 0.47416 0.0
H2281 H 0.32766 0.05634 0.58022 0.0
H2282 H 0.30602 0.02417 0.55198 0.0
C2283 C 0.23366 0.92024 0.45828 0.0
C2284 C 0.26249 0.99597 0.48893 0.0
H2285 H 0.32937 0.03602 0.51739 0.0
C2286 C 0.24304 1.00764 0.49696 0.0
C2287 C 0.29414 1.0067 0.49627 0.0
C2288 C 0.31652 0.99588 0.48776 0.0
C2289 C 0.25394 0.02882 0.5126 0.0
C2290 C 0.28556 0.03933 0.5201 0.0
C2291 C 0.30518 0.0281 0.51172 0.0
C2292 C 0.29803 0.05984 0.53742 0.0
C2293 C 0.23104 0.03875 0.52134 0.0
C2294 C 0.30097 0.09104 0.53887 0.0
C2295 C 0.31323 0.10976 0.55536 0.0
C2296 C 0.32327 0.09784 0.57059 0.0
C2297 C 0.32039 0.06669 0.56891 0.0
C2298 C 0.30798 0.04806 0.55264 0.0
H2299 H 0.20524 0.02243 0.5169 0.0
H2300 H 0.2322 0.03834 0.53689 0.0
H2301 H 0.23839 0.06407 0.51689 0.0
H2302 H 0.29407 0.10107 0.52723 0.0
H2303 H 0.31469 0.13338 0.55618 0.0
loop_
_geom_bond_atom_site_label_1
_geom_bond_atom_site_label_2
_geom_bond_distance
_geom_bond_site_symmetry_2
_ccdc_geom_bond_type
Gd0 N31 2.661 . S
Gd0 N37 2.601 . S
Gd0 O44 2.545 . S
Gd0 O45 2.606 . S
Gd0 O47 2.429 . S
Gd0 O48 2.545 . S
Gd0 O49 2.412 . S
Gd0 O51 2.362 . S
Gd0 O52 2.324 . S
Gd0 C59 2.828 . S
Gd1 N10 2.661 . S
Gd1 N14 2.601 . S
Gd1 O45 2.362 . S
Gd1 O46 2.324 . S
Gd1 O50 2.545 . S
Gd1 O51 2.606 . S
Gd1 O53 2.429 . S
Gd1 O54 2.545 . S
Gd1 O55 2.412 . S
Gd1 C68 2.828 . S
C2 C5 1.417 . S
C2 C7 1.431 . S
C2 C8 1.412 . S
C3 C6 1.437 . S
C3 C7 1.317 . S
C3 H22 0.929 . S
C4 C5 1.426 . S
C4 C6 1.413 . S
C4 N14 1.359 . S
C5 C2 1.417 . S
C5 C4 1.426 . S
C5 N10 1.350 . S
C6 C3 1.437 . S
C6 C4 1.413 . S
C6 C16 1.391 . S
C7 C2 1.431 . S
C7 C3 1.317 . S
C7 H18 0.930 . S
C8 C2 1.412 . S
C8 C9 1.355 . S
C8 H20 0.930 . S
C9 C8 1.355 . S
C9 C11 1.402 . S
C9 H21 0.930 . S
N10 Gd1 2.661 . S
N10 C5 1.350 . S
N10 C11 1.307 . S
C11 C9 1.402 . S
C11 N10 1.307 . S
C11 H12 0.930 . S
H12 C11 0.930 . S
C13 N14 1.334 . S
C13 C15 1.394 . S
C13 H17 0.930 . S
N14 Gd1 2.601 . S
N14 C4 1.359 . S
N14 C13 1.334 . S
C15 C13 1.394 . S
C15 C16 1.359 . S
C15 H27 0.930 . S
C16 C6 1.391 . S
C16 C15 1.359 . S
C16 H28 0.929 . S
H17 C13 0.930 . S
H18 C7 0.930 . S
H19 C36 0.930 . S
H20 C8 0.930 . S
H21 C9 0.930 . S
H22 C3 0.929 . S
H23 C41 0.930 . S
H24 C32 0.930 . S
H25 C33 0.930 . S
H26 C57 0.929 . S
H27 C15 0.930 . S
H28 C16 0.929 . S
H29 C58 0.930 . S
H30 C39 0.930 . S
N31 Gd0 2.661 . S
N31 C35 1.350 . S
N31 C36 1.307 . S
C32 H24 0.930 . S
C32 C33 1.355 . S
C32 C34 1.412 . S
C33 H25 0.930 . S
C33 C32 1.355 . S
C33 C36 1.402 . S
C34 C32 1.412 . S
C34 C35 1.417 . S
C34 C58 1.431 . S
C35 N31 1.350 . S
C35 C34 1.417 . S
C35 C38 1.426 . S
C36 H19 0.930 . S
C36 N31 1.307 . S
C36 C33 1.402 . S
N37 Gd0 2.601 . S
N37 C38 1.359 . S
N37 C41 1.334 . S
C38 C35 1.426 . S
C38 N37 1.359 . S
C38 C42 1.413 . S
C39 H30 0.930 . S
C39 C40 1.359 . S
C39 C41 1.394 . S
C40 C39 1.359 . S
C40 C42 1.391 . S
C40 H43 0.929 . S
C41 H23 0.930 . S
C41 N37 1.334 . S
C41 C39 1.394 . S
C42 C38 1.413 . S
C42 C40 1.391 . S
C42 C57 1.437 . S
H43 C40 0.929 . S
O44 Gd0 2.545 . S
O44 C59 1.258 . S
O45 Gd0 2.606 . S
O45 Gd1 2.362 . S
O45 C56 1.284 . S
O46 Gd1 2.324 . S
O46 C66 1.254 . S
O47 Gd0 2.429 . S
O47 C66 1.268 . S
O48 Gd0 2.545 . S
O48 C56 1.250 . S
O49 Gd0 2.412 . S
O49 C59 1.252 . S
O50 Gd1 2.545 . S
O50 C68 1.258 . S
O51 Gd0 2.362 . S
O51 Gd1 2.606 . S
O51 C67 1.284 . S
O52 Gd0 2.324 . S
O52 C75 1.254 . S
O53 Gd1 2.429 . S
O53 C75 1.268 . S
O54 Gd1 2.545 . S
O54 C67 1.250 . S
O55 Gd1 2.412 . S
O55 C68 1.252 . S
C56 O45 1.284 . S
C56 O48 1.250 . S
C57 H26 0.929 . S
C57 C42 1.437 . S
C57 C58 1.317 . S
C58 H29 0.930 . S
C58 C34 1.431 . S
C58 C57 1.317 . S
C59 Gd0 2.828 . S
C59 O44 1.258 . S
C59 O49 1.252 . S
C59 C60 1.497 . S
C60 C59 1.497 . S
C60 C61 1.395 . S
C60 C62 1.380 . S
C61 C60 1.395 . S
C61 C64 1.398 . S
C61 H76 0.930 . S
C62 C60 1.380 . S
C62 C63 1.391 . S
C62 H77 0.930 . S
C63 C62 1.391 . S
C63 C65 1.387 . S
C64 C61 1.398 . S
C64 C65 1.380 . S
C64 H78 0.930 . S
C65 C63 1.387 . S
C65 C64 1.380 . S
C65 H79 0.930 . S
C66 O46 1.254 . S
C66 O47 1.268 . S
C67 O51 1.284 . S
C67 O54 1.250 . S
C68 Gd1 2.828 . S
C68 O50 1.258 . S
C68 O55 1.252 . S
C68 C69 1.497 . S
C69 C68 1.497 . S
C69 C70 1.395 . S
C69 C71 1.380 . S
C70 C69 1.395 . S
C70 C73 1.398 . S
C70 H80 0.930 . S
C71 C69 1.380 . S
C71 C72 1.391 . S
C71 H81 0.930 . S
C72 C71 1.391 . S
C72 C74 1.387 . S
C73 C70 1.398 . S
C73 C74 1.380 . S
C73 H82 0.930 . S
C74 C72 1.387 . S
C74 C73 1.380 . S
C74 H83 0.930 . S
C75 O52 1.254 . S
C75 O53 1.268 . S
H76 C61 0.930 . S
H77 C62 0.930 . S
H78 C64 0.930 . S
H79 C65 0.930 . S
H80 C70 0.930 . S
H81 C71 0.930 . S
H82 C73 0.930 . S
H83 C74 0.930 . S
Gd84 N115 2.661 . S
Gd84 N121 2.601 . S
Gd84 O128 2.545 . S
Gd84 O129 2.606 . S
Gd84 O131 2.429 . S
Gd84 O132 2.545 . S
Gd84 O133 2.412 . S
Gd84 O135 2.362 . S
Gd84 O136 2.324 . S
Gd84 C143 2.828 . S
Gd85 N94 2.661 . S
Gd85 N98 2.601 . S
Gd85 O129 2.362 . S
Gd85 O130 2.324 . S
Gd85 O134 2.545 . S
Gd85 O135 2.606 . S
Gd85 O137 2.429 . S
Gd85 O138 2.545 . S
Gd85 O139 2.412 . S
Gd85 C152 2.828 . S
C86 C89 1.417 . S
C86 C91 1.431 . S
C86 C92 1.412 . S
C87 C90 1.437 . S
C87 C91 1.317 . S
C87 H106 0.929 . S
C88 C89 1.426 . S
C88 C90 1.413 . S
C88 N98 1.359 . S
C89 C86 1.417 . S
C89 C88 1.426 . S
C89 N94 1.350 . S
C90 C87 1.437 . S
C90 C88 1.413 . S
C90 C100 1.391 . S
C91 C86 1.431 . S
C91 C87 1.317 . S
C91 H102 0.930 . S
C92 C86 1.412 . S
C92 C93 1.355 . S
C92 H104 0.930 . S
C93 C92 1.355 . S
C93 C95 1.402 . S
C93 H105 0.930 . S
N94 Gd85 2.661 . S
N94 C89 1.350 . S
N94 C95 1.307 . S
C95 C93 1.402 . S
C95 N94 1.307 . S
C95 H96 0.930 . S
H96 C95 0.930 . S
C97 N98 1.334 . S
C97 C99 1.394 . S
C97 H101 0.930 . S
N98 Gd85 2.601 . S
N98 C88 1.359 . S
N98 C97 1.334 . S
C99 C97 1.394 . S
C99 C100 1.359 . S
C99 H111 0.930 . S
C100 C90 1.391 . S
C100 C99 1.359 . S
C100 H112 0.929 . S
H101 C97 0.930 . S
H102 C91 0.930 . S
H103 C120 0.930 . S
H104 C92 0.930 . S
H105 C93 0.930 . S
H106 C87 0.929 . S
H107 C125 0.930 . S
H108 C116 0.930 . S
H109 C117 0.930 . S
H110 C141 0.929 . S
H111 C99 0.930 . S
H112 C100 0.929 . S
H113 C142 0.930 . S
H114 C123 0.930 . S
N115 Gd84 2.661 . S
N115 C119 1.350 . S
N115 C120 1.307 . S
C116 H108 0.930 . S
C116 C117 1.355 . S
C116 C118 1.412 . S
C117 H109 0.930 . S
C117 C116 1.355 . S
C117 C120 1.402 . S
C118 C116 1.412 . S
C118 C119 1.417 . S
C118 C142 1.431 . S
C119 N115 1.350 . S
C119 C118 1.417 . S
C119 C122 1.426 . S
C120 H103 0.930 . S
C120 N115 1.307 . S
C120 C117 1.402 . S
N121 Gd84 2.601 . S
N121 C122 1.359 . S
N121 C125 1.334 . S
C122 C119 1.426 . S
C122 N121 1.359 . S
C122 C126 1.413 . S
C123 H114 0.930 . S
C123 C124 1.359 . S
C123 C125 1.394 . S
C124 C123 1.359 . S
C124 C126 1.391 . S
C124 H127 0.929 . S
C125 H107 0.930 . S
C125 N121 1.334 . S
C125 C123 1.394 . S
C126 C122 1.413 . S
C126 C124 1.391 . S
C126 C141 1.437 . S
H127 C124 0.929 . S
O128 Gd84 2.545 . S
O128 C143 1.258 . S
O129 Gd84 2.606 . S
O129 Gd85 2.362 . S
O129 C140 1.284 . S
O130 Gd85 2.324 . S
O130 C150 1.254 . S
O131 Gd84 2.429 . S
O131 C150 1.268 . S
O132 Gd84 2.545 . S
O132 C140 1.250 . S
O133 Gd84 2.412 . S
O133 C143 1.252 . S
O134 Gd85 2.545 . S
O134 C152 1.258 . S
O135 Gd84 2.362 . S
O135 Gd85 2.606 . S
O135 C151 1.284 . S
O136 Gd84 2.324 . S
O136 C159 1.254 . S
O137 Gd85 2.429 . S
O137 C159 1.268 . S
O138 Gd85 2.545 . S
O138 C151 1.250 . S
O139 Gd85 2.412 . S
O139 C152 1.252 . S
C140 O129 1.284 . S
C140 O132 1.250 . S
C141 H110 0.929 . S
C141 C126 1.437 . S
C141 C142 1.317 . S
C142 H113 0.930 . S
C142 C118 1.431 . S
C142 C141 1.317 . S
C143 Gd84 2.828 . S
C143 O128 1.258 . S
C143 O133 1.252 . S
C143 C144 1.497 . S
C144 C143 1.497 . S
C144 C145 1.395 . S
C144 C146 1.380 . S
C145 C144 1.395 . S
C145 C148 1.398 1_655 S
C145 H160 0.930 . S
C146 C144 1.380 . S
C146 C147 1.391 1_655 S
C146 H161 0.930 . S
C147 C146 1.391 1_455 S
C147 C149 1.387 . S
C148 C145 1.398 1_455 S
C148 C149 1.380 . S
C148 H162 0.930 . S
C149 C147 1.387 . S
C149 C148 1.380 . S
C149 H163 0.930 . S
C150 O130 1.254 . S
C150 O131 1.268 . S
C151 O135 1.284 . S
C151 O138 1.250 . S
C152 Gd85 2.828 . S
C152 O134 1.258 . S
C152 O139 1.252 . S
C152 C153 1.497 . S
C153 C152 1.497 . S
C153 C154 1.395 . S
C153 C155 1.380 . S
C154 C153 1.395 . S
C154 C157 1.398 . S
C154 H164 0.930 . S
C155 C153 1.380 . S
C155 C156 1.391 . S
C155 H165 0.930 . S
C156 C155 1.391 . S
C156 C158 1.387 . S
C157 C154 1.398 . S
C157 C158 1.380 . S
C157 H166 0.930 . S
C158 C156 1.387 . S
C158 C157 1.380 . S
C158 H167 0.930 . S
C159 O136 1.254 . S
C159 O137 1.268 . S
H160 C145 0.930 . S
H161 C146 0.930 . S
H162 C148 0.930 . S
H163 C149 0.930 . S
H164 C154 0.930 . S
H165 C155 0.930 . S
H166 C157 0.930 . S
H167 C158 0.930 . S
Gd168 N199 2.661 . S
Gd168 N205 2.601 . S
Gd168 O212 2.545 . S
Gd168 O213 2.606 . S
Gd168 O215 2.429 . S
Gd168 O216 2.545 . S
Gd168 O217 2.412 . S
Gd168 O219 2.362 . S
Gd168 O220 2.324 . S
Gd168 C227 2.828 . S
Gd169 N178 2.661 . S
Gd169 N182 2.601 . S
Gd169 O213 2.362 . S
Gd169 O214 2.324 . S
Gd169 O218 2.545 . S
Gd169 O219 2.606 . S
Gd169 O221 2.429 . S
Gd169 O222 2.545 . S
Gd169 O223 2.412 . S
Gd169 C236 2.828 . S
C170 C173 1.417 . S
C170 C175 1.431 . S
C170 C176 1.412 . S
C171 C174 1.437 . S
C171 C175 1.317 . S
C171 H190 0.929 . S
C172 C173 1.426 . S
C172 C174 1.413 . S
C172 N182 1.359 . S
C173 C170 1.417 . S
C173 C172 1.426 . S
C173 N178 1.350 . S
C174 C171 1.437 . S
C174 C172 1.413 . S
C174 C184 1.391 . S
C175 C170 1.431 . S
C175 C171 1.317 . S
C175 H186 0.930 . S
C176 C170 1.412 . S
C176 C177 1.355 . S
C176 H188 0.930 . S
C177 C176 1.355 . S
C177 C179 1.402 . S
C177 H189 0.930 . S
N178 Gd169 2.661 . S
N178 C173 1.350 . S
N178 C179 1.307 . S
C179 C177 1.402 . S
C179 N178 1.307 . S
C179 H180 0.930 . S
H180 C179 0.930 . S
C181 N182 1.334 . S
C181 C183 1.394 . S
C181 H185 0.930 . S
N182 Gd169 2.601 . S
N182 C172 1.359 . S
N182 C181 1.334 . S
C183 C181 1.394 . S
C183 C184 1.359 . S
C183 H195 0.930 . S
C184 C174 1.391 . S
C184 C183 1.359 . S
C184 H196 0.929 . S
H185 C181 0.930 . S
H186 C175 0.930 . S
H187 C204 0.930 . S
H188 C176 0.930 . S
H189 C177 0.930 . S
H190 C171 0.929 . S
H191 C209 0.930 . S
H192 C200 0.930 . S
H193 C201 0.930 . S
H194 C225 0.929 . S
H195 C183 0.930 . S
H196 C184 0.929 . S
H197 C226 0.930 . S
H198 C207 0.930 . S
N199 Gd168 2.661 . S
N199 C203 1.350 . S
N199 C204 1.307 . S
C200 H192 0.930 . S
C200 C201 1.355 . S
C200 C202 1.412 . S
C201 H193 0.930 . S
C201 C200 1.355 . S
C201 C204 1.402 . S
C202 C200 1.412 . S
C202 C203 1.417 . S
C202 C226 1.431 . S
C203 N199 1.350 . S
C203 C202 1.417 . S
C203 C206 1.426 . S
C204 H187 0.930 . S
C204 N199 1.307 . S
C204 C201 1.402 . S
N205 Gd168 2.601 . S
N205 C206 1.359 . S
N205 C209 1.334 . S
C206 C203 1.426 . S
C206 N205 1.359 . S
C206 C210 1.413 . S
C207 H198 0.930 . S
C207 C208 1.359 . S
C207 C209 1.394 . S
C208 C207 1.359 . S
C208 C210 1.391 . S
C208 H211 0.929 . S
C209 H191 0.930 . S
C209 N205 1.334 . S
C209 C207 1.394 . S
C210 C206 1.413 . S
C210 C208 1.391 . S
C210 C225 1.437 . S
H211 C208 0.929 . S
O212 Gd168 2.545 . S
O212 C227 1.258 . S
O213 Gd168 2.606 . S
O213 Gd169 2.362 . S
O213 C224 1.284 . S
O214 Gd169 2.324 . S
O214 C234 1.254 . S
O215 Gd168 2.429 . S
O215 C234 1.268 . S
O216 Gd168 2.545 . S
O216 C224 1.250 . S
O217 Gd168 2.412 . S
O217 C227 1.252 . S
O218 Gd169 2.545 . S
O218 C236 1.258 . S
O219 Gd168 2.362 . S
O219 Gd169 2.606 . S
O219 C235 1.284 . S
O220 Gd168 2.324 . S
O220 C243 1.254 . S
O221 Gd169 2.429 . S
O221 C243 1.268 . S
O222 Gd169 2.545 . S
O222 C235 1.250 . S
O223 Gd169 2.412 . S
O223 C236 1.252 . S
C224 O213 1.284 . S
C224 O216 1.250 . S
C225 H194 0.929 . S
C225 C210 1.437 . S
C225 C226 1.317 . S
C226 H197 0.930 . S
C226 C202 1.431 . S
C226 C225 1.317 . S
C227 Gd168 2.828 . S
C227 O212 1.258 . S
C227 O217 1.252 . S
C227 C228 1.497 . S
C228 C227 1.497 . S
C228 C229 1.395 . S
C228 C230 1.380 . S
C229 C228 1.395 . S
C229 C232 1.398 1_565 S
C229 H244 0.930 . S
C230 C228 1.380 . S
C230 C231 1.391 1_565 S
C230 H245 0.930 . S
C231 C230 1.391 1_545 S
C231 C233 1.387 . S
C232 C229 1.398 1_545 S
C232 C233 1.380 . S
C232 H246 0.930 . S
C233 C231 1.387 . S
C233 C232 1.380 . S
C233 H247 0.930 . S
C234 O214 1.254 . S
C234 O215 1.268 . S
C235 O219 1.284 . S
C235 O222 1.250 . S
C236 Gd169 2.828 . S
C236 O218 1.258 . S
C236 O223 1.252 . S
C236 C237 1.497 . S
C237 C236 1.497 . S
C237 C238 1.395 . S
C237 C239 1.380 . S
C238 C237 1.395 . S
C238 C241 1.398 . S
C238 H248 0.930 . S
C239 C237 1.380 . S
C239 C240 1.391 . S
C239 H249 0.930 . S
C240 C239 1.391 . S
C240 C242 1.387 . S
C241 C238 1.398 . S
C241 C242 1.380 . S
C241 H250 0.930 . S
C242 C240 1.387 . S
C242 C241 1.380 . S
C242 H251 0.930 . S
C243 O220 1.254 . S
C243 O221 1.268 . S
H244 C229 0.930 . S
H245 C230 0.930 . S
H246 C232 0.930 . S
H247 C233 0.930 . S
H248 C238 0.930 . S
H249 C239 0.930 . S
H250 C241 0.930 . S
H251 C242 0.930 . S
Gd252 N283 2.661 . S
Gd252 N289 2.601 . S
Gd252 O296 2.545 . S
Gd252 O297 2.606 . S
Gd252 O299 2.429 . S
Gd252 O300 2.545 . S
Gd252 O301 2.412 . S
Gd252 O303 2.362 . S
Gd252 O304 2.324 . S
Gd252 C311 2.828 . S
Gd253 N262 2.661 . S
Gd253 N266 2.601 . S
Gd253 O297 2.362 . S
Gd253 O298 2.324 . S
Gd253 O302 2.545 . S
Gd253 O303 2.606 . S
Gd253 O305 2.429 . S
Gd253 O306 2.545 . S
Gd253 O307 2.412 . S
Gd253 C320 2.828 . S
C254 C257 1.417 . S
C254 C259 1.431 . S
C254 C260 1.412 . S
C255 C258 1.437 . S
C255 C259 1.317 . S
C255 H274 0.929 . S
C256 C257 1.426 . S
C256 C258 1.413 . S
C256 N266 1.359 . S
C257 C254 1.417 . S
C257 C256 1.426 . S
C257 N262 1.350 . S
C258 C255 1.437 . S
C258 C256 1.413 . S
C258 C268 1.391 . S
C259 C254 1.431 . S
C259 C255 1.317 . S
C259 H270 0.930 . S
C260 C254 1.412 . S
C260 C261 1.355 . S
C260 H272 0.930 . S
C261 C260 1.355 . S
C261 C263 1.402 . S
C261 H273 0.930 . S
N262 Gd253 2.661 . S
N262 C257 1.350 . S
N262 C263 1.307 . S
C263 C261 1.402 . S
C263 N262 1.307 . S
C263 H264 0.930 . S
H264 C263 0.930 . S
C265 N266 1.334 . S
C265 C267 1.394 . S
C265 H269 0.930 . S
N266 Gd253 2.601 . S
N266 C256 1.359 . S
N266 C265 1.334 . S
C267 C265 1.394 . S
C267 C268 1.359 . S
C267 H279 0.930 . S
C268 C258 1.391 . S
C268 C267 1.359 . S
C268 H280 0.929 . S
H269 C265 0.930 . S
H270 C259 0.930 . S
H271 C288 0.930 . S
H272 C260 0.930 . S
H273 C261 0.930 . S
H274 C255 0.929 . S
H275 C293 0.930 . S
H276 C284 0.930 . S
H277 C285 0.930 . S
H278 C309 0.929 . S
H279 C267 0.930 . S
H280 C268 0.929 . S
H281 C310 0.930 . S
H282 C291 0.930 . S
N283 Gd252 2.661 . S
N283 C287 1.350 . S
N283 C288 1.307 . S
C284 H276 0.930 . S
C284 C285 1.355 . S
C284 C286 1.412 . S
C285 H277 0.930 . S
C285 C284 1.355 . S
C285 C288 1.402 . S
C286 C284 1.412 . S
C286 C287 1.417 . S
C286 C310 1.431 . S
C287 N283 1.350 . S
C287 C286 1.417 . S
C287 C290 1.426 . S
C288 H271 0.930 . S
C288 N283 1.307 . S
C288 C285 1.402 . S
N289 Gd252 2.601 . S
N289 C290 1.359 . S
N289 C293 1.334 . S
C290 C287 1.426 . S
C290 N289 1.359 . S
C290 C294 1.413 . S
C291 H282 0.930 . S
C291 C292 1.359 . S
C291 C293 1.394 . S
C292 C291 1.359 . S
C292 C294 1.391 . S
C292 H295 0.929 . S
C293 H275 0.930 . S
C293 N289 1.334 . S
C293 C291 1.394 . S
C294 C290 1.413 . S
C294 C292 1.391 . S
C294 C309 1.437 . S
H295 C292 0.929 . S
O296 Gd252 2.545 . S
O296 C311 1.258 . S
O297 Gd252 2.606 . S
O297 Gd253 2.362 . S
O297 C308 1.284 . S
O298 Gd253 2.324 . S
O298 C318 1.254 . S
O299 Gd252 2.429 . S
O299 C318 1.268 . S
O300 Gd252 2.545 . S
O300 C308 1.250 . S
O301 Gd252 2.412 . S
O301 C311 1.252 . S
O302 Gd253 2.545 . S
O302 C320 1.258 . S
O303 Gd252 2.362 . S
O303 Gd253 2.606 . S
O303 C319 1.284 . S
O304 Gd252 2.324 . S
O304 C327 1.254 . S
O305 Gd253 2.429 . S
O305 C327 1.268 . S
O306 Gd253 2.545 . S
O306 C319 1.250 . S
O307 Gd253 2.412 . S
O307 C320 1.252 . S
C308 O297 1.284 . S
C308 O300 1.250 . S
C309 H278 0.929 . S
C309 C294 1.437 . S
C309 C310 1.317 . S
C310 H281 0.930 . S
C310 C286 1.431 . S
C310 C309 1.317 . S
C311 Gd252 2.828 . S
C311 O296 1.258 . S
C311 O301 1.252 . S
C311 C312 1.497 . S
C312 C311 1.497 . S
C312 C313 1.395 . S
C312 C314 1.380 . S
C313 C312 1.395 . S
C313 C316 1.398 . S
C313 H328 0.930 . S
C314 C312 1.380 . S
C314 C315 1.391 . S
C314 H329 0.930 . S
C315 C314 1.391 . S
C315 C317 1.387 . S
C316 C313 1.398 . S
C316 C317 1.380 . S
C316 H330 0.930 . S
C317 C315 1.387 . S
C317 C316 1.380 . S
C317 H331 0.930 . S
C318 O298 1.254 . S
C318 O299 1.268 . S
C319 O303 1.284 . S
C319 O306 1.250 . S
C320 Gd253 2.828 . S
C320 O302 1.258 . S
C320 O307 1.252 . S
C320 C321 1.497 . S
C321 C320 1.497 . S
C321 C322 1.395 . S
C321 C323 1.380 . S
C322 C321 1.395 . S
C322 C325 1.398 . S
C322 H332 0.930 . S
C323 C321 1.380 . S
C323 C324 1.391 . S
C323 H333 0.930 . S
C324 C323 1.391 . S
C324 C326 1.387 . S
C325 C322 1.398 . S
C325 C326 1.380 . S
C325 H334 0.930 . S
C326 C324 1.387 . S
C326 C325 1.380 . S
C326 H335 0.930 . S
C327 O304 1.254 . S
C327 O305 1.268 . S
H328 C313 0.930 . S
H329 C314 0.930 . S
H330 C316 0.930 . S
H331 C317 0.930 . S
H332 C322 0.930 . S
H333 C323 0.930 . S
H334 C325 0.930 . S
H335 C326 0.930 . S
Gd336 N367 2.661 . S
Gd336 N373 2.601 . S
Gd336 O380 2.545 . S
Gd336 O381 2.606 . S
Gd336 O383 2.429 . S
Gd336 O384 2.545 . S
Gd336 O385 2.412 . S
Gd336 O387 2.362 . S
Gd336 O388 2.324 . S
Gd336 C395 2.828 . S
Gd337 N346 2.661 . S
Gd337 N350 2.601 . S
Gd337 O381 2.362 . S
Gd337 O382 2.324 . S
Gd337 O386 2.545 . S
Gd337 O387 2.606 . S
Gd337 O389 2.429 . S
Gd337 O390 2.545 . S
Gd337 O391 2.412 . S
Gd337 C404 2.828 . S
C338 C341 1.417 . S
C338 C343 1.431 . S
C338 C344 1.412 . S
C339 C342 1.437 . S
C339 C343 1.317 . S
C339 H358 0.929 . S
C340 C341 1.426 . S
C340 C342 1.413 . S
C340 N350 1.359 . S
C341 C338 1.417 . S
C341 C340 1.426 . S
C341 N346 1.350 . S
C342 C339 1.437 . S
C342 C340 1.413 . S
C342 C352 1.391 . S
C343 C338 1.431 . S
C343 C339 1.317 . S
C343 H354 0.930 . S
C344 C338 1.412 . S
C344 C345 1.355 . S
C344 H356 0.930 . S
C345 C344 1.355 . S
C345 C347 1.402 . S
C345 H357 0.930 . S
N346 Gd337 2.661 . S
N346 C341 1.350 . S
N346 C347 1.307 . S
C347 C345 1.402 . S
C347 N346 1.307 . S
C347 H348 0.930 . S
H348 C347 0.930 . S
C349 N350 1.334 . S
C349 C351 1.394 . S
C349 H353 0.930 . S
N350 Gd337 2.601 . S
N350 C340 1.359 . S
N350 C349 1.334 . S
C351 C349 1.394 . S
C351 C352 1.359 . S
C351 H363 0.930 . S
C352 C342 1.391 . S
C352 C351 1.359 . S
C352 H364 0.929 . S
H353 C349 0.930 . S
H354 C343 0.930 . S
H355 C372 0.930 . S
H356 C344 0.930 . S
H357 C345 0.930 . S
H358 C339 0.929 . S
H359 C377 0.930 . S
H360 C368 0.930 . S
H361 C369 0.930 . S
H362 C393 0.929 . S
H363 C351 0.930 . S
H364 C352 0.929 . S
H365 C394 0.930 . S
H366 C375 0.930 . S
N367 Gd336 2.661 . S
N367 C371 1.350 . S
N367 C372 1.307 . S
C368 H360 0.930 . S
C368 C369 1.355 . S
C368 C370 1.412 . S
C369 H361 0.930 . S
C369 C368 1.355 . S
C369 C372 1.402 . S
C370 C368 1.412 . S
C370 C371 1.417 . S
C370 C394 1.431 . S
C371 N367 1.350 . S
C371 C370 1.417 . S
C371 C374 1.426 . S
C372 H355 0.930 . S
C372 N367 1.307 . S
C372 C369 1.402 . S
N373 Gd336 2.601 . S
N373 C374 1.359 . S
N373 C377 1.334 . S
C374 C371 1.426 . S
C374 N373 1.359 . S
C374 C378 1.413 . S
C375 H366 0.930 . S
C375 C376 1.359 . S
C375 C377 1.394 . S
C376 C375 1.359 . S
C376 C378 1.391 . S
C376 H379 0.929 . S
C377 H359 0.930 . S
C377 N373 1.334 . S
C377 C375 1.394 . S
C378 C374 1.413 . S
C378 C376 1.391 . S
C378 C393 1.437 . S
H379 C376 0.929 . S
O380 Gd336 2.545 . S
O380 C395 1.258 . S
O381 Gd336 2.606 . S
O381 Gd337 2.362 . S
O381 C392 1.284 . S
O382 Gd337 2.324 . S
O382 C402 1.254 . S
O383 Gd336 2.429 . S
O383 C402 1.268 . S
O384 Gd336 2.545 . S
O384 C392 1.250 . S
O385 Gd336 2.412 . S
O385 C395 1.252 . S
O386 Gd337 2.545 . S
O386 C404 1.258 . S
O387 Gd336 2.362 . S
O387 Gd337 2.606 . S
O387 C403 1.284 . S
O388 Gd336 2.324 . S
O388 C411 1.254 . S
O389 Gd337 2.429 . S
O389 C411 1.268 . S
O390 Gd337 2.545 . S
O390 C403 1.250 . S
O391 Gd337 2.412 . S
O391 C404 1.252 . S
C392 O381 1.284 . S
C392 O384 1.250 . S
C393 H362 0.929 . S
C393 C378 1.437 . S
C393 C394 1.317 . S
C394 H365 0.930 . S
C394 C370 1.431 . S
C394 C393 1.317 . S
C395 Gd336 2.828 . S
C395 O380 1.258 . S
C395 O385 1.252 . S
C395 C396 1.497 . S
C396 C395 1.497 . S
C396 C397 1.395 . S
C396 C398 1.380 . S
C397 C396 1.395 . S
C397 C400 1.398 1_455 S
C397 H412 0.930 . S
C398 C396 1.380 . S
C398 C399 1.391 1_455 S
C398 H413 0.930 . S
C399 C398 1.391 1_655 S
C399 C401 1.387 . S
C400 C397 1.398 1_655 S
C400 C401 1.380 . S
C400 H414 0.930 . S
C401 C399 1.387 . S
C401 C400 1.380 . S
C401 H415 0.930 . S
C402 O382 1.254 . S
C402 O383 1.268 . S
C403 O387 1.284 . S
C403 O390 1.250 . S
C404 Gd337 2.828 . S
C404 O386 1.258 . S
C404 O391 1.252 . S
C404 C405 1.497 . S
C405 C404 1.497 . S
C405 C406 1.395 . S
C405 C407 1.380 . S
C406 C405 1.395 . S
C406 C409 1.398 . S
C406 H416 0.930 . S
C407 C405 1.380 . S
C407 C408 1.391 . S
C407 H417 0.930 . S
C408 C407 1.391 . S
C408 C410 1.387 . S
C409 C406 1.398 . S
C409 C410 1.380 . S
C409 H418 0.930 . S
C410 C408 1.387 . S
C410 C409 1.380 . S
C410 H419 0.930 . S
C411 O388 1.254 . S
C411 O389 1.268 . S
H412 C397 0.930 . S
H413 C398 0.930 . S
H414 C400 0.930 . S
H415 C401 0.930 . S
H416 C406 0.930 . S
H417 C407 0.930 . S
H418 C409 0.930 . S
H419 C410 0.930 . S
Gd420 N451 2.661 . S
Gd420 N457 2.601 . S
Gd420 O464 2.545 . S
Gd420 O465 2.606 . S
Gd420 O467 2.429 . S
Gd420 O468 2.545 . S
Gd420 O469 2.412 . S
Gd420 O471 2.362 . S
Gd420 O472 2.324 . S
Gd420 C479 2.828 . S
Gd421 N430 2.661 . S
Gd421 N434 2.601 . S
Gd421 O465 2.362 . S
Gd421 O466 2.324 . S
Gd421 O470 2.545 . S
Gd421 O471 2.606 . S
Gd421 O473 2.429 . S
Gd421 O474 2.545 . S
Gd421 O475 2.412 . S
Gd421 C488 2.828 . S
C422 C425 1.417 . S
C422 C427 1.431 . S
C422 C428 1.412 . S
C423 C426 1.437 . S
C423 C427 1.317 . S
C423 H442 0.929 . S
C424 C425 1.426 . S
C424 C426 1.413 . S
C424 N434 1.359 . S
C425 C422 1.417 . S
C425 C424 1.426 . S
C425 N430 1.350 . S
C426 C423 1.437 . S
C426 C424 1.413 . S
C426 C436 1.391 . S
C427 C422 1.431 . S
C427 C423 1.317 . S
C427 H438 0.930 . S
C428 C422 1.412 . S
C428 C429 1.355 . S
C428 H440 0.930 . S
C429 C428 1.355 . S
C429 C431 1.402 . S
C429 H441 0.930 . S
N430 Gd421 2.661 . S
N430 C425 1.350 . S
N430 C431 1.307 . S
C431 C429 1.402 . S
C431 N430 1.307 . S
C431 H432 0.930 . S
H432 C431 0.930 . S
C433 N434 1.334 . S
C433 C435 1.394 . S
C433 H437 0.930 . S
N434 Gd421 2.601 . S
N434 C424 1.359 . S
N434 C433 1.334 . S
C435 C433 1.394 . S
C435 C436 1.359 . S
C435 H447 0.930 . S
C436 C426 1.391 . S
C436 C435 1.359 . S
C436 H448 0.929 . S
H437 C433 0.930 . S
H438 C427 0.930 . S
H439 C456 0.930 . S
H440 C428 0.930 . S
H441 C429 0.930 . S
H442 C423 0.929 . S
H443 C461 0.930 . S
H444 C452 0.930 . S
H445 C453 0.930 . S
H446 C477 0.929 . S
H447 C435 0.930 . S
H448 C436 0.929 . S
H449 C478 0.930 . S
H450 C459 0.930 . S
N451 Gd420 2.661 . S
N451 C455 1.350 . S
N451 C456 1.307 . S
C452 H444 0.930 . S
C452 C453 1.355 . S
C452 C454 1.412 . S
C453 H445 0.930 . S
C453 C452 1.355 . S
C453 C456 1.402 . S
C454 C452 1.412 . S
C454 C455 1.417 . S
C454 C478 1.431 . S
C455 N451 1.350 . S
C455 C454 1.417 . S
C455 C458 1.426 . S
C456 H439 0.930 . S
C456 N451 1.307 . S
C456 C453 1.402 . S
N457 Gd420 2.601 . S
N457 C458 1.359 . S
N457 C461 1.334 . S
C458 C455 1.426 . S
C458 N457 1.359 . S
C458 C462 1.413 . S
C459 H450 0.930 . S
C459 C460 1.359 . S
C459 C461 1.394 . S
C460 C459 1.359 . S
C460 C462 1.391 . S
C460 H463 0.929 . S
C461 H443 0.930 . S
C461 N457 1.334 . S
C461 C459 1.394 . S
C462 C458 1.413 . S
C462 C460 1.391 . S
C462 C477 1.437 . S
H463 C460 0.929 . S
O464 Gd420 2.545 . S
O464 C479 1.258 . S
O465 Gd420 2.606 . S
O465 Gd421 2.362 . S
O465 C476 1.284 . S
O466 Gd421 2.324 . S
O466 C486 1.254 . S
O467 Gd420 2.429 . S
O467 C486 1.268 . S
O468 Gd420 2.545 . S
O468 C476 1.250 . S
O469 Gd420 2.412 . S
O469 C479 1.252 . S
O470 Gd421 2.545 . S
O470 C488 1.258 . S
O471 Gd420 2.362 . S
O471 Gd421 2.606 . S
O471 C487 1.284 . S
O472 Gd420 2.324 . S
O472 C495 1.254 . S
O473 Gd421 2.429 . S
O473 C495 1.268 . S
O474 Gd421 2.545 . S
O474 C487 1.250 . S
O475 Gd421 2.412 . S
O475 C488 1.252 . S
C476 O465 1.284 . S
C476 O468 1.250 . S
C477 H446 0.929 . S
C477 C462 1.437 . S
C477 C478 1.317 . S
C478 H449 0.930 . S
C478 C454 1.431 . S
C478 C477 1.317 . S
C479 Gd420 2.828 . S
C479 O464 1.258 . S
C479 O469 1.252 . S
C479 C480 1.497 . S
C480 C479 1.497 . S
C480 C481 1.395 . S
C480 C482 1.380 . S
C481 C480 1.395 . S
C481 C484 1.398 1_545 S
C481 H496 0.930 . S
C482 C480 1.380 . S
C482 C483 1.391 1_545 S
C482 H497 0.930 . S
C483 C482 1.391 1_565 S
C483 C485 1.387 . S
C484 C481 1.398 1_565 S
C484 C485 1.380 . S
C484 H498 0.930 . S
C485 C483 1.387 . S
C485 C484 1.380 . S
C485 H499 0.930 . S
C486 O466 1.254 . S
C486 O467 1.268 . S
C487 O471 1.284 . S
C487 O474 1.250 . S
C488 Gd421 2.828 . S
C488 O470 1.258 . S
C488 O475 1.252 . S
C488 C489 1.497 . S
C489 C488 1.497 . S
C489 C490 1.395 . S
C489 C491 1.380 . S
C490 C489 1.395 . S
C490 C493 1.398 . S
C490 H500 0.930 . S
C491 C489 1.380 . S
C491 C492 1.391 . S
C491 H501 0.930 . S
C492 C491 1.391 . S
C492 C494 1.387 . S
C493 C490 1.398 . S
C493 C494 1.380 . S
C493 H502 0.930 . S
C494 C492 1.387 . S
C494 C493 1.380 . S
C494 H503 0.930 . S
C495 O472 1.254 . S
C495 O473 1.268 . S
H496 C481 0.930 . S
H497 C482 0.930 . S
H498 C484 0.930 . S
H499 C485 0.930 . S
H500 C490 0.930 . S
H501 C491 0.930 . S
H502 C493 0.930 . S
H503 C494 0.930 . S
Gd504 N535 2.661 . S
Gd504 N541 2.601 . S
Gd504 O548 2.545 . S
Gd504 O549 2.606 . S
Gd504 O551 2.429 . S
Gd504 O552 2.545 . S
Gd504 O553 2.412 . S
Gd504 O555 2.362 . S
Gd504 O556 2.324 . S
Gd504 C563 2.828 . S
Gd505 N514 2.661 . S
Gd505 N518 2.601 . S
Gd505 O549 2.362 . S
Gd505 O550 2.324 . S
Gd505 O554 2.545 . S
Gd505 O555 2.606 . S
Gd505 O557 2.429 . S
Gd505 O558 2.545 . S
Gd505 O559 2.412 . S
Gd505 C572 2.828 . S
C506 C509 1.417 . S
C506 C511 1.431 . S
C506 C512 1.412 . S
C507 C510 1.437 . S
C507 C511 1.317 . S
C507 H526 0.929 . S
C508 C509 1.426 . S
C508 C510 1.413 . S
C508 N518 1.359 . S
C509 C506 1.417 . S
C509 C508 1.426 . S
C509 N514 1.350 . S
C510 C507 1.437 . S
C510 C508 1.413 . S
C510 C520 1.391 . S
C511 C506 1.431 . S
C511 C507 1.317 . S
C511 H522 0.930 . S
C512 C506 1.412 . S
C512 C513 1.355 . S
C512 H524 0.930 . S
C513 C512 1.355 . S
C513 C515 1.402 . S
C513 H525 0.930 . S
N514 Gd505 2.661 . S
N514 C509 1.350 . S
N514 C515 1.307 . S
C515 C513 1.402 . S
C515 N514 1.307 . S
C515 H516 0.930 . S
H516 C515 0.930 . S
C517 N518 1.334 . S
C517 C519 1.394 . S
C517 H521 0.930 . S
N518 Gd505 2.601 . S
N518 C508 1.359 . S
N518 C517 1.334 . S
C519 C517 1.394 . S
C519 C520 1.359 . S
C519 H531 0.930 . S
C520 C510 1.391 . S
C520 C519 1.359 . S
C520 H532 0.929 . S
H521 C517 0.930 . S
H522 C511 0.930 . S
H523 C540 0.930 . S
H524 C512 0.930 . S
H525 C513 0.930 . S
H526 C507 0.929 . S
H527 C545 0.930 . S
H528 C536 0.930 . S
H529 C537 0.930 . S
H530 C561 0.929 . S
H531 C519 0.930 . S
H532 C520 0.929 . S
H533 C562 0.930 . S
H534 C543 0.930 . S
N535 Gd504 2.661 . S
N535 C539 1.350 . S
N535 C540 1.307 . S
C536 H528 0.930 . S
C536 C537 1.355 . S
C536 C538 1.412 . S
C537 H529 0.930 . S
C537 C536 1.355 . S
C537 C540 1.402 . S
C538 C536 1.412 . S
C538 C539 1.417 . S
C538 C562 1.431 . S
C539 N535 1.350 . S
C539 C538 1.417 . S
C539 C542 1.426 . S
C540 H523 0.930 . S
C540 N535 1.307 . S
C540 C537 1.402 . S
N541 Gd504 2.601 . S
N541 C542 1.359 . S
N541 C545 1.334 . S
C542 C539 1.426 . S
C542 N541 1.359 . S
C542 C546 1.413 . S
C543 H534 0.930 . S
C543 C544 1.359 . S
C543 C545 1.394 . S
C544 C543 1.359 . S
C544 C546 1.391 . S
C544 H547 0.929 . S
C545 H527 0.930 . S
C545 N541 1.334 . S
C545 C543 1.394 . S
C546 C542 1.413 . S
C546 C544 1.391 . S
C546 C561 1.437 . S
H547 C544 0.929 . S
O548 Gd504 2.545 . S
O548 C563 1.258 . S
O549 Gd504 2.606 . S
O549 Gd505 2.362 . S
O549 C560 1.284 . S
O550 Gd505 2.324 . S
O550 C570 1.254 . S
O551 Gd504 2.429 . S
O551 C570 1.268 . S
O552 Gd504 2.545 . S
O552 C560 1.250 . S
O553 Gd504 2.412 . S
O553 C563 1.252 . S
O554 Gd505 2.545 . S
O554 C572 1.258 . S
O555 Gd504 2.362 . S
O555 Gd505 2.606 . S
O555 C571 1.284 . S
O556 Gd504 2.324 . S
O556 C579 1.254 . S
O557 Gd505 2.429 . S
O557 C579 1.268 . S
O558 Gd505 2.545 . S
O558 C571 1.250 . S
O559 Gd505 2.412 . S
O559 C572 1.252 . S
C560 O549 1.284 . S
C560 O552 1.250 . S
C561 H530 0.929 . S
C561 C546 1.437 . S
C561 C562 1.317 . S
C562 H533 0.930 . S
C562 C538 1.431 . S
C562 C561 1.317 . S
C563 Gd504 2.828 . S
C563 O548 1.258 . S
C563 O553 1.252 . S
C563 C564 1.497 . S
C564 C563 1.497 . S
C564 C565 1.395 . S
C564 C566 1.380 . S
C565 C564 1.395 . S
C565 C568 1.398 . S
C565 H580 0.930 . S
C566 C564 1.380 . S
C566 C567 1.391 . S
C566 H581 0.930 . S
C567 C566 1.391 . S
C567 C569 1.387 . S
C568 C565 1.398 . S
C568 C569 1.380 . S
C568 H582 0.930 . S
C569 C567 1.387 . S
C569 C568 1.380 . S
C569 H583 0.930 . S
C570 O550 1.254 . S
C570 O551 1.268 . S
C571 O555 1.284 . S
C571 O558 1.250 . S
C572 Gd505 2.828 . S
C572 O554 1.258 . S
C572 O559 1.252 . S
C572 C573 1.497 . S
C573 C572 1.497 . S
C573 C574 1.395 . S
C573 C575 1.380 . S
C574 C573 1.395 . S
C574 C577 1.398 . S
C574 H584 0.930 . S
C575 C573 1.380 . S
C575 C576 1.391 . S
C575 H585 0.930 . S
C576 C575 1.391 . S
C576 C578 1.387 . S
C577 C574 1.398 . S
C577 C578 1.380 . S
C577 H586 0.930 . S
C578 C576 1.387 . S
C578 C577 1.380 . S
C578 H587 0.930 . S
C579 O556 1.254 . S
C579 O557 1.268 . S
H580 C565 0.930 . S
H581 C566 0.930 . S
H582 C568 0.930 . S
H583 C569 0.930 . S
H584 C574 0.930 . S
H585 C575 0.930 . S
H586 C577 0.930 . S
H587 C578 0.930 . S
Gd588 N619 2.661 . S
Gd588 N625 2.601 . S
Gd588 O632 2.545 . S
Gd588 O633 2.606 . S
Gd588 O635 2.429 . S
Gd588 O636 2.545 . S
Gd588 O637 2.412 . S
Gd588 O639 2.362 . S
Gd588 O640 2.324 . S
Gd588 C647 2.828 . S
Gd589 N598 2.661 . S
Gd589 N602 2.601 . S
Gd589 O633 2.362 . S
Gd589 O634 2.324 . S
Gd589 O638 2.545 . S
Gd589 O639 2.606 . S
Gd589 O641 2.429 . S
Gd589 O642 2.545 . S
Gd589 O643 2.412 . S
Gd589 C656 2.828 . S
C590 C593 1.417 . S
C590 C595 1.431 . S
C590 C596 1.412 . S
C591 C594 1.437 . S
C591 C595 1.317 . S
C591 H610 0.929 . S
C592 C593 1.426 . S
C592 C594 1.413 . S
C592 N602 1.359 . S
C593 C590 1.417 . S
C593 C592 1.426 . S
C593 N598 1.350 . S
C594 C591 1.437 . S
C594 C592 1.413 . S
C594 C604 1.391 . S
C595 C590 1.431 . S
C595 C591 1.317 . S
C595 H606 0.930 . S
C596 C590 1.412 . S
C596 C597 1.355 . S
C596 H608 0.930 . S
C597 C596 1.355 . S
C597 C599 1.402 . S
C597 H609 0.930 . S
N598 Gd589 2.661 . S
N598 C593 1.350 . S
N598 C599 1.307 . S
C599 C597 1.402 . S
C599 N598 1.307 . S
C599 H600 0.930 . S
H600 C599 0.930 . S
C601 N602 1.334 . S
C601 C603 1.394 . S
C601 H605 0.930 . S
N602 Gd589 2.601 . S
N602 C592 1.359 . S
N602 C601 1.334 . S
C603 C601 1.394 . S
C603 C604 1.359 . S
C603 H615 0.930 . S
C604 C594 1.391 . S
C604 C603 1.359 . S
C604 H616 0.929 . S
H605 C601 0.930 . S
H606 C595 0.930 . S
H607 C624 0.930 . S
H608 C596 0.930 . S
H609 C597 0.930 . S
H610 C591 0.929 . S
H611 C629 0.930 . S
H612 C620 0.930 . S
H613 C621 0.930 . S
H614 C645 0.929 . S
H615 C603 0.930 . S
H616 C604 0.929 . S
H617 C646 0.930 . S
H618 C627 0.930 . S
N619 Gd588 2.661 . S
N619 C623 1.350 . S
N619 C624 1.307 . S
C620 H612 0.930 . S
C620 C621 1.355 . S
C620 C622 1.412 . S
C621 H613 0.930 . S
C621 C620 1.355 . S
C621 C624 1.402 . S
C622 C620 1.412 . S
C622 C623 1.417 . S
C622 C646 1.431 . S
C623 N619 1.350 . S
C623 C622 1.417 . S
C623 C626 1.426 . S
C624 H607 0.930 . S
C624 N619 1.307 . S
C624 C621 1.402 . S
N625 Gd588 2.601 . S
N625 C626 1.359 . S
N625 C629 1.334 . S
C626 C623 1.426 . S
C626 N625 1.359 . S
C626 C630 1.413 . S
C627 H618 0.930 . S
C627 C628 1.359 . S
C627 C629 1.394 . S
C628 C627 1.359 . S
C628 C630 1.391 . S
C628 H631 0.929 . S
C629 H611 0.930 . S
C629 N625 1.334 . S
C629 C627 1.394 . S
C630 C626 1.413 . S
C630 C628 1.391 . S
C630 C645 1.437 . S
H631 C628 0.929 . S
O632 Gd588 2.545 . S
O632 C647 1.258 . S
O633 Gd588 2.606 . S
O633 Gd589 2.362 . S
O633 C644 1.284 . S
O634 Gd589 2.324 . S
O634 C654 1.254 . S
O635 Gd588 2.429 . S
O635 C654 1.268 . S
O636 Gd588 2.545 . S
O636 C644 1.250 . S
O637 Gd588 2.412 . S
O637 C647 1.252 . S
O638 Gd589 2.545 . S
O638 C656 1.258 . S
O639 Gd588 2.362 . S
O639 Gd589 2.606 . S
O639 C655 1.284 . S
O640 Gd588 2.324 . S
O640 C663 1.254 . S
O641 Gd589 2.429 . S
O641 C663 1.268 . S
O642 Gd589 2.545 . S
O642 C655 1.250 . S
O643 Gd589 2.412 . S
O643 C656 1.252 . S
C644 O633 1.284 . S
C644 O636 1.250 . S
C645 H614 0.929 . S
C645 C630 1.437 . S
C645 C646 1.317 . S
C646 H617 0.930 . S
C646 C622 1.431 . S
C646 C645 1.317 . S
C647 Gd588 2.828 . S
C647 O632 1.258 . S
C647 O637 1.252 . S
C647 C648 1.497 . S
C648 C647 1.497 . S
C648 C649 1.395 . S
C648 C650 1.380 . S
C649 C648 1.395 . S
C649 C652 1.398 1_655 S
C649 H664 0.930 . S
C650 C648 1.380 . S
C650 C651 1.391 1_655 S
C650 H665 0.930 . S
C651 C650 1.391 1_455 S
C651 C653 1.387 . S
C652 C649 1.398 1_455 S
C652 C653 1.380 . S
C652 H666 0.930 . S
C653 C651 1.387 . S
C653 C652 1.380 . S
C653 H667 0.930 . S
C654 O634 1.254 . S
C654 O635 1.268 . S
C655 O639 1.284 . S
C655 O642 1.250 . S
C656 Gd589 2.828 . S
C656 O638 1.258 . S
C656 O643 1.252 . S
C656 C657 1.497 . S
C657 C656 1.497 . S
C657 C658 1.395 . S
C657 C659 1.380 . S
C658 C657 1.395 . S
C658 C661 1.398 . S
C658 H668 0.930 . S
C659 C657 1.380 . S
C659 C660 1.391 . S
C659 H669 0.930 . S
C660 C659 1.391 . S
C660 C662 1.387 . S
C661 C658 1.398 . S
C661 C662 1.380 . S
C661 H670 0.930 . S
C662 C660 1.387 . S
C662 C661 1.380 . S
C662 H671 0.930 . S
C663 O640 1.254 . S
C663 O641 1.268 . S
H664 C649 0.930 . S
H665 C650 0.930 . S
H666 C652 0.930 . S
H667 C653 0.930 . S
H668 C658 0.930 . S
H669 C659 0.930 . S
H670 C661 0.930 . S
H671 C662 0.930 . S
Gd672 N703 2.661 . S
Gd672 N709 2.601 . S
Gd672 O716 2.545 . S
Gd672 O717 2.606 . S
Gd672 O719 2.429 . S
Gd672 O720 2.545 . S
Gd672 O721 2.412 . S
Gd672 O723 2.362 . S
Gd672 O724 2.324 . S
Gd672 C731 2.828 . S
Gd673 N682 2.661 . S
Gd673 N686 2.601 . S
Gd673 O717 2.362 . S
Gd673 O718 2.324 . S
Gd673 O722 2.545 . S
Gd673 O723 2.606 . S
Gd673 O725 2.429 . S
Gd673 O726 2.545 . S
Gd673 O727 2.412 . S
Gd673 C740 2.828 . S
C674 C677 1.417 . S
C674 C679 1.431 . S
C674 C680 1.412 . S
C675 C678 1.437 . S
C675 C679 1.317 . S
C675 H694 0.929 . S
C676 C677 1.426 . S
C676 C678 1.413 . S
C676 N686 1.359 . S
C677 C674 1.417 . S
C677 C676 1.426 . S
C677 N682 1.350 . S
C678 C675 1.437 . S
C678 C676 1.413 . S
C678 C688 1.391 . S
C679 C674 1.431 . S
C679 C675 1.317 . S
C679 H690 0.930 . S
C680 C674 1.412 . S
C680 C681 1.355 . S
C680 H692 0.930 . S
C681 C680 1.355 . S
C681 C683 1.402 . S
C681 H693 0.930 . S
N682 Gd673 2.661 . S
N682 C677 1.350 . S
N682 C683 1.307 . S
C683 C681 1.402 . S
C683 N682 1.307 . S
C683 H684 0.930 . S
H684 C683 0.930 . S
C685 N686 1.334 . S
C685 C687 1.394 . S
C685 H689 0.930 . S
N686 Gd673 2.601 . S
N686 C676 1.359 . S
N686 C685 1.334 . S
C687 C685 1.394 . S
C687 C688 1.359 . S
C687 H699 0.930 . S
C688 C678 1.391 . S
C688 C687 1.359 . S
C688 H700 0.929 . S
H689 C685 0.930 . S
H690 C679 0.930 . S
H691 C708 0.930 . S
H692 C680 0.930 . S
H693 C681 0.930 . S
H694 C675 0.929 . S
H695 C713 0.930 . S
H696 C704 0.930 . S
H697 C705 0.930 . S
H698 C729 0.929 . S
H699 C687 0.930 . S
H700 C688 0.929 . S
H701 C730 0.930 . S
H702 C711 0.930 . S
N703 Gd672 2.661 . S
N703 C707 1.350 . S
N703 C708 1.307 . S
C704 H696 0.930 . S
C704 C705 1.355 . S
C704 C706 1.412 . S
C705 H697 0.930 . S
C705 C704 1.355 . S
C705 C708 1.402 . S
C706 C704 1.412 . S
C706 C707 1.417 . S
C706 C730 1.431 . S
C707 N703 1.350 . S
C707 C706 1.417 . S
C707 C710 1.426 . S
C708 H691 0.930 . S
C708 N703 1.307 . S
C708 C705 1.402 . S
N709 Gd672 2.601 . S
N709 C710 1.359 . S
N709 C713 1.334 . S
C710 C707 1.426 . S
C710 N709 1.359 . S
C710 C714 1.413 . S
C711 H702 0.930 . S
C711 C712 1.359 . S
C711 C713 1.394 . S
C712 C711 1.359 . S
C712 C714 1.391 . S
C712 H715 0.929 . S
C713 H695 0.930 . S
C713 N709 1.334 . S
C713 C711 1.394 . S
C714 C710 1.413 . S
C714 C712 1.391 . S
C714 C729 1.437 . S
H715 C712 0.929 . S
O716 Gd672 2.545 . S
O716 C731 1.258 . S
O717 Gd672 2.606 . S
O717 Gd673 2.362 . S
O717 C728 1.284 . S
O718 Gd673 2.324 . S
O718 C738 1.254 . S
O719 Gd672 2.429 . S
O719 C738 1.268 . S
O720 Gd672 2.545 . S
O720 C728 1.250 . S
O721 Gd672 2.412 . S
O721 C731 1.252 . S
O722 Gd673 2.545 . S
O722 C740 1.258 . S
O723 Gd672 2.362 . S
O723 Gd673 2.606 . S
O723 C739 1.284 . S
O724 Gd672 2.324 . S
O724 C747 1.254 . S
O725 Gd673 2.429 . S
O725 C747 1.268 . S
O726 Gd673 2.545 . S
O726 C739 1.250 . S
O727 Gd673 2.412 . S
O727 C740 1.252 . S
C728 O717 1.284 . S
C728 O720 1.250 . S
C729 H698 0.929 . S
C729 C714 1.437 . S
C729 C730 1.317 . S
C730 H701 0.930 . S
C730 C706 1.431 . S
C730 C729 1.317 . S
C731 Gd672 2.828 . S
C731 O716 1.258 . S
C731 O721 1.252 . S
C731 C732 1.497 . S
C732 C731 1.497 . S
C732 C733 1.395 . S
C732 C734 1.380 . S
C733 C732 1.395 . S
C733 C736 1.398 1_565 S
C733 H748 0.930 . S
C734 C732 1.380 . S
C734 C735 1.391 1_565 S
C734 H749 0.930 . S
C735 C734 1.391 1_545 S
C735 C737 1.387 . S
C736 C733 1.398 1_545 S
C736 C737 1.380 . S
C736 H750 0.930 . S
C737 C735 1.387 . S
C737 C736 1.380 . S
C737 H751 0.930 . S
C738 O718 1.254 . S
C738 O719 1.268 . S
C739 O723 1.284 . S
C739 O726 1.250 . S
C740 Gd673 2.828 . S
C740 O722 1.258 . S
C740 O727 1.252 . S
C740 C741 1.497 . S
C741 C740 1.497 . S
C741 C742 1.395 . S
C741 C743 1.380 . S
C742 C741 1.395 . S
C742 C745 1.398 . S
C742 H752 0.930 . S
C743 C741 1.380 . S
C743 C744 1.391 . S
C743 H753 0.930 . S
C744 C743 1.391 . S
C744 C746 1.387 . S
C745 C742 1.398 . S
C745 C746 1.380 . S
C745 H754 0.930 . S
C746 C744 1.387 . S
C746 C745 1.380 . S
C746 H755 0.930 . S
C747 O724 1.254 . S
C747 O725 1.268 . S
H748 C733 0.930 . S
H749 C734 0.930 . S
H750 C736 0.930 . S
H751 C737 0.930 . S
H752 C742 0.930 . S
H753 C743 0.930 . S
H754 C745 0.930 . S
H755 C746 0.930 . S
Gd756 N787 2.661 . S
Gd756 N793 2.601 . S
Gd756 O800 2.545 . S
Gd756 O801 2.606 . S
Gd756 O803 2.429 . S
Gd756 O804 2.545 . S
Gd756 O805 2.412 . S
Gd756 O807 2.362 . S
Gd756 O808 2.324 . S
Gd756 C815 2.828 . S
Gd757 N766 2.661 . S
Gd757 N770 2.601 . S
Gd757 O801 2.362 . S
Gd757 O802 2.324 . S
Gd757 O806 2.545 . S
Gd757 O807 2.606 . S
Gd757 O809 2.429 . S
Gd757 O810 2.545 . S
Gd757 O811 2.412 . S
Gd757 C824 2.828 . S
C758 C761 1.417 . S
C758 C763 1.431 . S
C758 C764 1.412 . S
C759 C762 1.437 . S
C759 C763 1.317 . S
C759 H778 0.929 . S
C760 C761 1.426 . S
C760 C762 1.413 . S
C760 N770 1.359 . S
C761 C758 1.417 . S
C761 C760 1.426 . S
C761 N766 1.350 . S
C762 C759 1.437 . S
C762 C760 1.413 . S
C762 C772 1.391 . S
C763 C758 1.431 . S
C763 C759 1.317 . S
C763 H774 0.930 . S
C764 C758 1.412 . S
C764 C765 1.355 . S
C764 H776 0.930 . S
C765 C764 1.355 . S
C765 C767 1.402 . S
C765 H777 0.930 . S
N766 Gd757 2.661 . S
N766 C761 1.350 . S
N766 C767 1.307 . S
C767 C765 1.402 . S
C767 N766 1.307 . S
C767 H768 0.930 . S
H768 C767 0.930 . S
C769 N770 1.334 . S
C769 C771 1.394 . S
C769 H773 0.930 . S
N770 Gd757 2.601 . S
N770 C760 1.359 . S
N770 C769 1.334 . S
C771 C769 1.394 . S
C771 C772 1.359 . S
C771 H783 0.930 . S
C772 C762 1.391 . S
C772 C771 1.359 . S
C772 H784 0.929 . S
H773 C769 0.930 . S
H774 C763 0.930 . S
H775 C792 0.930 . S
H776 C764 0.930 . S
H777 C765 0.930 . S
H778 C759 0.929 . S
H779 C797 0.930 . S
H780 C788 0.930 . S
H781 C789 0.930 . S
H782 C813 0.929 . S
H783 C771 0.930 . S
H784 C772 0.929 . S
H785 C814 0.930 . S
H786 C795 0.930 . S
N787 Gd756 2.661 . S
N787 C791 1.350 . S
N787 C792 1.307 . S
C788 H780 0.930 . S
C788 C789 1.355 . S
C788 C790 1.412 . S
C789 H781 0.930 . S
C789 C788 1.355 . S
C789 C792 1.402 . S
C790 C788 1.412 . S
C790 C791 1.417 . S
C790 C814 1.431 . S
C791 N787 1.350 . S
C791 C790 1.417 . S
C791 C794 1.426 . S
C792 H775 0.930 . S
C792 N787 1.307 . S
C792 C789 1.402 . S
N793 Gd756 2.601 . S
N793 C794 1.359 . S
N793 C797 1.334 . S
C794 C791 1.426 . S
C794 N793 1.359 . S
C794 C798 1.413 . S
C795 H786 0.930 . S
C795 C796 1.359 . S
C795 C797 1.394 . S
C796 C795 1.359 . S
C796 C798 1.391 . S
C796 H799 0.929 . S
C797 H779 0.930 . S
C797 N793 1.334 . S
C797 C795 1.394 . S
C798 C794 1.413 . S
C798 C796 1.391 . S
C798 C813 1.437 . S
H799 C796 0.929 . S
O800 Gd756 2.545 . S
O800 C815 1.258 . S
O801 Gd756 2.606 . S
O801 Gd757 2.362 . S
O801 C812 1.284 . S
O802 Gd757 2.324 . S
O802 C822 1.254 . S
O803 Gd756 2.429 . S
O803 C822 1.268 . S
O804 Gd756 2.545 . S
O804 C812 1.250 . S
O805 Gd756 2.412 . S
O805 C815 1.252 . S
O806 Gd757 2.545 . S
O806 C824 1.258 . S
O807 Gd756 2.362 . S
O807 Gd757 2.606 . S
O807 C823 1.284 . S
O808 Gd756 2.324 . S
O808 C831 1.254 . S
O809 Gd757 2.429 . S
O809 C831 1.268 . S
O810 Gd757 2.545 . S
O810 C823 1.250 . S
O811 Gd757 2.412 . S
O811 C824 1.252 . S
C812 O801 1.284 . S
C812 O804 1.250 . S
C813 H782 0.929 . S
C813 C798 1.437 . S
C813 C814 1.317 . S
C814 H785 0.930 . S
C814 C790 1.431 . S
C814 C813 1.317 . S
C815 Gd756 2.828 . S
C815 O800 1.258 . S
C815 O805 1.252 . S
C815 C816 1.497 . S
C816 C815 1.497 . S
C816 C817 1.395 . S
C816 C818 1.380 . S
C817 C816 1.395 . S
C817 C820 1.398 . S
C817 H832 0.930 . S
C818 C816 1.380 . S
C818 C819 1.391 . S
C818 H833 0.930 . S
C819 C818 1.391 . S
C819 C821 1.387 . S
C820 C817 1.398 . S
C820 C821 1.380 . S
C820 H834 0.930 . S
C821 C819 1.387 . S
C821 C820 1.380 . S
C821 H835 0.930 . S
C822 O802 1.254 . S
C822 O803 1.268 . S
C823 O807 1.284 . S
C823 O810 1.250 . S
C824 Gd757 2.828 . S
C824 O806 1.258 . S
C824 O811 1.252 . S
C824 C825 1.497 . S
C825 C824 1.497 . S
C825 C826 1.395 . S
C825 C827 1.380 . S
C826 C825 1.395 . S
C826 C829 1.398 . S
C826 H836 0.930 . S
C827 C825 1.380 . S
C827 C828 1.391 . S
C827 H837 0.930 . S
C828 C827 1.391 . S
C828 C830 1.387 . S
C829 C826 1.398 . S
C829 C830 1.380 . S
C829 H838 0.930 . S
C830 C828 1.387 . S
C830 C829 1.380 . S
C830 H839 0.930 . S
C831 O808 1.254 . S
C831 O809 1.268 . S
H832 C817 0.930 . S
H833 C818 0.930 . S
H834 C820 0.930 . S
H835 C821 0.930 . S
H836 C826 0.930 . S
H837 C827 0.930 . S
H838 C829 0.930 . S
H839 C830 0.930 . S
Gd840 N871 2.661 . S
Gd840 N877 2.601 . S
Gd840 O884 2.545 . S
Gd840 O885 2.606 . S
Gd840 O887 2.429 . S
Gd840 O888 2.545 . S
Gd840 O889 2.412 . S
Gd840 O891 2.362 . S
Gd840 O892 2.324 . S
Gd840 C899 2.828 . S
Gd841 N850 2.661 . S
Gd841 N854 2.601 . S
Gd841 O885 2.362 . S
Gd841 O886 2.324 . S
Gd841 O890 2.545 . S
Gd841 O891 2.606 . S
Gd841 O893 2.429 . S
Gd841 O894 2.545 . S
Gd841 O895 2.412 . S
Gd841 C908 2.828 . S
C842 C845 1.417 . S
C842 C847 1.431 . S
C842 C848 1.412 . S
C843 C846 1.437 . S
C843 C847 1.317 . S
C843 H862 0.929 . S
C844 C845 1.426 . S
C844 C846 1.413 . S
C844 N854 1.359 . S
C845 C842 1.417 . S
C845 C844 1.426 . S
C845 N850 1.350 . S
C846 C843 1.437 . S
C846 C844 1.413 . S
C846 C856 1.391 . S
C847 C842 1.431 . S
C847 C843 1.317 . S
C847 H858 0.930 . S
C848 C842 1.412 . S
C848 C849 1.355 . S
C848 H860 0.930 . S
C849 C848 1.355 . S
C849 C851 1.402 . S
C849 H861 0.930 . S
N850 Gd841 2.661 . S
N850 C845 1.350 . S
N850 C851 1.307 . S
C851 C849 1.402 . S
C851 N850 1.307 . S
C851 H852 0.930 . S
H852 C851 0.930 . S
C853 N854 1.334 . S
C853 C855 1.394 . S
C853 H857 0.930 . S
N854 Gd841 2.601 . S
N854 C844 1.359 . S
N854 C853 1.334 . S
C855 C853 1.394 . S
C855 C856 1.359 . S
C855 H867 0.930 . S
C856 C846 1.391 . S
C856 C855 1.359 . S
C856 H868 0.929 . S
H857 C853 0.930 . S
H858 C847 0.930 . S
H859 C876 0.930 . S
H860 C848 0.930 . S
H861 C849 0.930 . S
H862 C843 0.929 . S
H863 C881 0.930 . S
H864 C872 0.930 . S
H865 C873 0.930 . S
H866 C897 0.929 . S
H867 C855 0.930 . S
H868 C856 0.929 . S
H869 C898 0.930 . S
H870 C879 0.930 . S
N871 Gd840 2.661 . S
N871 C875 1.350 . S
N871 C876 1.307 . S
C872 H864 0.930 . S
C872 C873 1.355 . S
C872 C874 1.412 . S
C873 H865 0.930 . S
C873 C872 1.355 . S
C873 C876 1.402 . S
C874 C872 1.412 . S
C874 C875 1.417 . S
C874 C898 1.431 . S
C875 N871 1.350 . S
C875 C874 1.417 . S
C875 C878 1.426 . S
C876 H859 0.930 . S
C876 N871 1.307 . S
C876 C873 1.402 . S
N877 Gd840 2.601 . S
N877 C878 1.359 . S
N877 C881 1.334 . S
C878 C875 1.426 . S
C878 N877 1.359 . S
C878 C882 1.413 . S
C879 H870 0.930 . S
C879 C880 1.359 . S
C879 C881 1.394 . S
C880 C879 1.359 . S
C880 C882 1.391 . S
C880 H883 0.929 . S
C881 H863 0.930 . S
C881 N877 1.334 . S
C881 C879 1.394 . S
C882 C878 1.413 . S
C882 C880 1.391 . S
C882 C897 1.437 . S
H883 C880 0.929 . S
O884 Gd840 2.545 . S
O884 C899 1.258 . S
O885 Gd840 2.606 . S
O885 Gd841 2.362 . S
O885 C896 1.284 . S
O886 Gd841 2.324 . S
O886 C906 1.254 . S
O887 Gd840 2.429 . S
O887 C906 1.268 . S
O888 Gd840 2.545 . S
O888 C896 1.250 . S
O889 Gd840 2.412 . S
O889 C899 1.252 . S
O890 Gd841 2.545 . S
O890 C908 1.258 . S
O891 Gd840 2.362 . S
O891 Gd841 2.606 . S
O891 C907 1.284 . S
O892 Gd840 2.324 . S
O892 C915 1.254 . S
O893 Gd841 2.429 . S
O893 C915 1.268 . S
O894 Gd841 2.545 . S
O894 C907 1.250 . S
O895 Gd841 2.412 . S
O895 C908 1.252 . S
C896 O885 1.284 . S
C896 O888 1.250 . S
C897 H866 0.929 . S
C897 C882 1.437 . S
C897 C898 1.317 . S
C898 H869 0.930 . S
C898 C874 1.431 . S
C898 C897 1.317 . S
C899 Gd840 2.828 . S
C899 O884 1.258 . S
C899 O889 1.252 . S
C899 C900 1.497 . S
C900 C899 1.497 . S
C900 C901 1.395 . S
C900 C902 1.380 . S
C901 C900 1.395 . S
C901 C904 1.398 1_455 S
C901 H916 0.930 . S
C902 C900 1.380 . S
C902 C903 1.391 1_455 S
C902 H917 0.930 . S
C903 C902 1.391 1_655 S
C903 C905 1.387 . S
C904 C901 1.398 1_655 S
C904 C905 1.380 . S
C904 H918 0.930 . S
C905 C903 1.387 . S
C905 C904 1.380 . S
C905 H919 0.930 . S
C906 O886 1.254 . S
C906 O887 1.268 . S
C907 O891 1.284 . S
C907 O894 1.250 . S
C908 Gd841 2.828 . S
C908 O890 1.258 . S
C908 O895 1.252 . S
C908 C909 1.497 . S
C909 C908 1.497 . S
C909 C910 1.395 . S
C909 C911 1.380 . S
C910 C909 1.395 . S
C910 C913 1.398 . S
C910 H920 0.930 . S
C911 C909 1.380 . S
C911 C912 1.391 . S
C911 H921 0.930 . S
C912 C911 1.391 . S
C912 C914 1.387 . S
C913 C910 1.398 . S
C913 C914 1.380 . S
C913 H922 0.930 . S
C914 C912 1.387 . S
C914 C913 1.380 . S
C914 H923 0.930 . S
C915 O892 1.254 . S
C915 O893 1.268 . S
H916 C901 0.930 . S
H917 C902 0.930 . S
H918 C904 0.930 . S
H919 C905 0.930 . S
H920 C910 0.930 . S
H921 C911 0.930 . S
H922 C913 0.930 . S
H923 C914 0.930 . S
Gd924 N955 2.661 . S
Gd924 N961 2.601 . S
Gd924 O968 2.545 . S
Gd924 O969 2.606 . S
Gd924 O971 2.429 . S
Gd924 O972 2.545 . S
Gd924 O973 2.412 . S
Gd924 O975 2.362 . S
Gd924 O976 2.324 . S
Gd924 C983 2.828 . S
Gd925 N934 2.661 . S
Gd925 N938 2.601 . S
Gd925 O969 2.362 . S
Gd925 O970 2.324 . S
Gd925 O974 2.545 . S
Gd925 O975 2.606 . S
Gd925 O977 2.429 . S
Gd925 O978 2.545 . S
Gd925 O979 2.412 . S
Gd925 C992 2.828 . S
C926 C929 1.417 . S
C926 C931 1.431 . S
C926 C932 1.412 . S
C927 C930 1.437 . S
C927 C931 1.317 . S
C927 H946 0.929 . S
C928 C929 1.426 . S
C928 C930 1.413 . S
C928 N938 1.359 . S
C929 C926 1.417 . S
C929 C928 1.426 . S
C929 N934 1.350 . S
C930 C927 1.437 . S
C930 C928 1.413 . S
C930 C940 1.391 . S
C931 C926 1.431 . S
C931 C927 1.317 . S
C931 H942 0.930 . S
C932 C926 1.412 . S
C932 C933 1.355 . S
C932 H944 0.930 . S
C933 C932 1.355 . S
C933 C935 1.402 . S
C933 H945 0.930 . S
N934 Gd925 2.661 . S
N934 C929 1.350 . S
N934 C935 1.307 . S
C935 C933 1.402 . S
C935 N934 1.307 . S
C935 H936 0.930 . S
H936 C935 0.930 . S
C937 N938 1.334 . S
C937 C939 1.394 . S
C937 H941 0.930 . S
N938 Gd925 2.601 . S
N938 C928 1.359 . S
N938 C937 1.334 . S
C939 C937 1.394 . S
C939 C940 1.359 . S
C939 H951 0.930 . S
C940 C930 1.391 . S
C940 C939 1.359 . S
C940 H952 0.929 . S
H941 C937 0.930 . S
H942 C931 0.930 . S
H943 C960 0.930 . S
H944 C932 0.930 . S
H945 C933 0.930 . S
H946 C927 0.929 . S
H947 C965 0.930 . S
H948 C956 0.930 . S
H949 C957 0.930 . S
H950 C981 0.929 . S
H951 C939 0.930 . S
H952 C940 0.929 . S
H953 C982 0.930 . S
H954 C963 0.930 . S
N955 Gd924 2.661 . S
N955 C959 1.350 . S
N955 C960 1.307 . S
C956 H948 0.930 . S
C956 C957 1.355 . S
C956 C958 1.412 . S
C957 H949 0.930 . S
C957 C956 1.355 . S
C957 C960 1.402 . S
C958 C956 1.412 . S
C958 C959 1.417 . S
C958 C982 1.431 . S
C959 N955 1.350 . S
C959 C958 1.417 . S
C959 C962 1.426 . S
C960 H943 0.930 . S
C960 N955 1.307 . S
C960 C957 1.402 . S
N961 Gd924 2.601 . S
N961 C962 1.359 . S
N961 C965 1.334 . S
C962 C959 1.426 . S
C962 N961 1.359 . S
C962 C966 1.413 . S
C963 H954 0.930 . S
C963 C964 1.359 . S
C963 C965 1.394 . S
C964 C963 1.359 . S
C964 C966 1.391 . S
C964 H967 0.929 . S
C965 H947 0.930 . S
C965 N961 1.334 . S
C965 C963 1.394 . S
C966 C962 1.413 . S
C966 C964 1.391 . S
C966 C981 1.437 . S
H967 C964 0.929 . S
O968 Gd924 2.545 . S
O968 C983 1.258 . S
O969 Gd924 2.606 . S
O969 Gd925 2.362 . S
O969 C980 1.284 . S
O970 Gd925 2.324 . S
O970 C990 1.254 . S
O971 Gd924 2.429 . S
O971 C990 1.268 . S
O972 Gd924 2.545 . S
O972 C980 1.250 . S
O973 Gd924 2.412 . S
O973 C983 1.252 . S
O974 Gd925 2.545 . S
O974 C992 1.258 . S
O975 Gd924 2.362 . S
O975 Gd925 2.606 . S
O975 C991 1.284 . S
O976 Gd924 2.324 . S
O976 C999 1.254 . S
O977 Gd925 2.429 . S
O977 C999 1.268 . S
O978 Gd925 2.545 . S
O978 C991 1.250 . S
O979 Gd925 2.412 . S
O979 C992 1.252 . S
C980 O969 1.284 . S
C980 O972 1.250 . S
C981 H950 0.929 . S
C981 C966 1.437 . S
C981 C982 1.317 . S
C982 H953 0.930 . S
C982 C958 1.431 . S
C982 C981 1.317 . S
C983 Gd924 2.828 . S
C983 O968 1.258 . S
C983 O973 1.252 . S
C983 C984 1.497 . S
C984 C983 1.497 . S
C984 C985 1.395 . S
C984 C986 1.380 . S
C985 C984 1.395 . S
C985 C988 1.398 1_545 S
C985 H1000 0.930 . S
C986 C984 1.380 . S
C986 C987 1.391 1_545 S
C986 H1001 0.930 . S
C987 C986 1.391 1_565 S
C987 C989 1.387 . S
C988 C985 1.398 1_565 S
C988 C989 1.380 . S
C988 H1002 0.930 . S
C989 C987 1.387 . S
C989 C988 1.380 . S
C989 H1003 0.930 . S
C990 O970 1.254 . S
C990 O971 1.268 . S
C991 O975 1.284 . S
C991 O978 1.250 . S
C992 Gd925 2.828 . S
C992 O974 1.258 . S
C992 O979 1.252 . S
C992 C993 1.497 . S
C993 C992 1.497 . S
C993 C994 1.395 . S
C993 C995 1.380 . S
C994 C993 1.395 . S
C994 C997 1.398 . S
C994 H1004 0.930 . S
C995 C993 1.380 . S
C995 C996 1.391 . S
C995 H1005 0.930 . S
C996 C995 1.391 . S
C996 C998 1.387 . S
C997 C994 1.398 . S
C997 C998 1.380 . S
C997 H1006 0.930 . S
C998 C996 1.387 . S
C998 C997 1.380 . S
C998 H1007 0.930 . S
C999 O976 1.254 . S
C999 O977 1.268 . S
H1000 C985 0.930 . S
H1001 C986 0.930 . S
H1002 C988 0.930 . S
H1003 C989 0.930 . S
H1004 C994 0.930 . S
H1005 C995 0.930 . S
H1006 C997 0.930 . S
H1007 C998 0.930 . S
H1008 C1016 0.929 . S
H1009 C1018 0.930 . S
H1010 C1020 0.930 . S
H1011 C1023 0.929 . S
H1012 C1026 0.930 . S
H1013 C1028 0.960 . S
H1014 C1028 0.960 . S
H1015 C1028 0.960 . S
C1016 H1008 0.929 . S
C1016 C1017 1.377 . S
C1016 C1018 1.384 . S
C1017 C1016 1.377 . S
C1017 C1023 1.390 . S
C1018 H1009 0.930 . S
C1018 C1016 1.384 . S
C1018 C1019 1.372 . S
C1019 C1018 1.372 . S
C1019 C1020 1.400 . S
C1019 C1024 1.490 . S
C1020 H1010 0.930 . S
C1020 C1019 1.400 . S
C1020 C1023 1.386 . S
H1021 C1037 0.930 . S
H1022 C1038 0.931 . S
C1023 H1011 0.929 . S
C1023 C1017 1.390 . S
C1023 C1020 1.386 . S
C1024 C1019 1.490 . S
C1024 C1026 1.395 . S
C1024 C1027 1.403 1_565 S
H1025 C1031 0.930 . S
C1026 H1012 0.930 . S
C1026 C1024 1.395 . S
C1026 C1029 1.403 1_565 S
C1027 C1024 1.403 1_545 S
C1027 C1028 1.524 . S
C1027 C1031 1.400 . S
C1028 H1013 0.960 . S
C1028 H1014 0.960 . S
C1028 H1015 0.960 . S
C1028 C1027 1.524 . S
C1029 C1026 1.403 1_545 S
C1029 C1030 1.392 . S
C1029 C1033 1.495 . S
C1030 C1029 1.392 . S
C1030 C1031 1.385 . S
C1030 C1032 1.478 . S
C1031 H1025 0.930 . S
C1031 C1027 1.400 . S
C1031 C1030 1.385 . S
C1032 C1030 1.478 . S
C1032 C1034 1.381 . S
C1032 C1038 1.383 . S
C1033 C1029 1.495 . S
C1033 H1039 0.959 . S
C1033 H1040 0.961 . S
C1033 H1041 0.960 . S
C1034 C1032 1.381 . S
C1034 C1035 1.394 . S
C1034 H1042 0.930 . S
C1035 C1034 1.394 . S
C1035 C1036 1.383 . S
C1035 H1043 0.929 . S
C1036 C1035 1.383 . S
C1036 C1037 1.377 . S
C1037 H1021 0.930 . S
C1037 C1036 1.377 . S
C1037 C1038 1.379 . S
C1038 H1022 0.931 . S
C1038 C1032 1.383 . S
C1038 C1037 1.379 . S
H1039 C1033 0.959 . S
H1040 C1033 0.961 . S
H1041 C1033 0.960 . S
H1042 C1034 0.930 . S
H1043 C1035 0.929 . S
H1044 C1052 0.929 . S
H1045 C1054 0.930 . S
H1046 C1056 0.930 . S
H1047 C1059 0.929 . S
H1048 C1062 0.930 . S
H1049 C1064 0.960 . S
H1050 C1064 0.960 . S
H1051 C1064 0.960 . S
C1052 H1044 0.929 . S
C1052 C1053 1.377 . S
C1052 C1054 1.384 . S
C1053 C1052 1.377 . S
C1053 C1059 1.390 . S
C1054 H1045 0.930 . S
C1054 C1052 1.384 . S
C1054 C1055 1.372 . S
C1055 C1054 1.372 . S
C1055 C1056 1.400 . S
C1055 C1060 1.490 . S
C1056 H1046 0.930 . S
C1056 C1055 1.400 . S
C1056 C1059 1.386 . S
H1057 C1073 0.930 . S
H1058 C1074 0.931 . S
C1059 H1047 0.929 . S
C1059 C1053 1.390 . S
C1059 C1056 1.386 . S
C1060 C1055 1.490 . S
C1060 C1062 1.395 . S
C1060 C1063 1.403 . S
H1061 C1067 0.930 . S
C1062 H1048 0.930 . S
C1062 C1060 1.395 . S
C1062 C1065 1.403 . S
C1063 C1060 1.403 . S
C1063 C1064 1.524 . S
C1063 C1067 1.400 . S
C1064 H1049 0.960 . S
C1064 H1050 0.960 . S
C1064 H1051 0.960 . S
C1064 C1063 1.524 . S
C1065 C1062 1.403 . S
C1065 C1066 1.392 . S
C1065 C1069 1.495 . S
C1066 C1065 1.392 . S
C1066 C1067 1.385 . S
C1066 C1068 1.478 . S
C1067 H1061 0.930 . S
C1067 C1063 1.400 . S
C1067 C1066 1.385 . S
C1068 C1066 1.478 . S
C1068 C1070 1.381 . S
C1068 C1074 1.383 . S
C1069 C1065 1.495 . S
C1069 H1075 0.959 . S
C1069 H1076 0.961 . S
C1069 H1077 0.960 . S
C1070 C1068 1.381 . S
C1070 C1071 1.394 . S
C1070 H1078 0.930 . S
C1071 C1070 1.394 . S
C1071 C1072 1.383 . S
C1071 H1079 0.929 . S
C1072 C1071 1.383 . S
C1072 C1073 1.377 . S
C1073 H1057 0.930 . S
C1073 C1072 1.377 . S
C1073 C1074 1.379 . S
C1074 H1058 0.931 . S
C1074 C1068 1.383 . S
C1074 C1073 1.379 . S
H1075 C1069 0.959 . S
H1076 C1069 0.961 . S
H1077 C1069 0.960 . S
H1078 C1070 0.930 . S
H1079 C1071 0.929 . S
H1080 C1088 0.929 . S
H1081 C1090 0.930 . S
H1082 C1092 0.930 . S
H1083 C1095 0.929 . S
H1084 C1098 0.930 . S
H1085 C1100 0.960 . S
H1086 C1100 0.960 . S
H1087 C1100 0.960 . S
C1088 H1080 0.929 . S
C1088 C1089 1.377 . S
C1088 C1090 1.384 . S
C1089 C1088 1.377 . S
C1089 C1095 1.390 . S
C1090 H1081 0.930 . S
C1090 C1088 1.384 . S
C1090 C1091 1.372 . S
C1091 C1090 1.372 . S
C1091 C1092 1.400 . S
C1091 C1096 1.490 . S
C1092 H1082 0.930 . S
C1092 C1091 1.400 . S
C1092 C1095 1.386 . S
H1093 C1109 0.930 . S
H1094 C1110 0.931 . S
C1095 H1083 0.929 . S
C1095 C1089 1.390 . S
C1095 C1092 1.386 . S
C1096 C1091 1.490 . S
C1096 C1098 1.395 . S
C1096 C1099 1.403 . S
H1097 C1103 0.930 . S
C1098 H1084 0.930 . S
C1098 C1096 1.395 . S
C1098 C1101 1.403 1_655 S
C1099 C1096 1.403 . S
C1099 C1100 1.524 . S
C1099 C1103 1.400 . S
C1100 H1085 0.960 . S
C1100 H1086 0.960 . S
C1100 H1087 0.960 . S
C1100 C1099 1.524 . S
C1101 C1098 1.403 1_455 S
C1101 C1102 1.392 . S
C1101 C1105 1.495 . S
C1102 C1101 1.392 . S
C1102 C1103 1.385 1_455 S
C1102 C1104 1.478 . S
C1103 H1097 0.930 . S
C1103 C1099 1.400 . S
C1103 C1102 1.385 1_655 S
C1104 C1102 1.478 . S
C1104 C1106 1.381 . S
C1104 C1110 1.383 . S
C1105 C1101 1.495 . S
C1105 H1111 0.959 . S
C1105 H1112 0.961 . S
C1105 H1113 0.960 . S
C1106 C1104 1.381 . S
C1106 C1107 1.394 . S
C1106 H1114 0.930 . S
C1107 C1106 1.394 . S
C1107 C1108 1.383 . S
C1107 H1115 0.929 . S
C1108 C1107 1.383 . S
C1108 C1109 1.377 . S
C1109 H1093 0.930 . S
C1109 C1108 1.377 . S
C1109 C1110 1.379 . S
C1110 H1094 0.931 . S
C1110 C1104 1.383 . S
C1110 C1109 1.379 . S
H1111 C1105 0.959 . S
H1112 C1105 0.961 . S
H1113 C1105 0.960 . S
H1114 C1106 0.930 . S
H1115 C1107 0.929 . S
H1116 C1124 0.929 . S
H1117 C1126 0.930 . S
H1118 C1128 0.930 . S
H1119 C1131 0.929 . S
H1120 C1134 0.930 . S
H1121 C1136 0.960 . S
H1122 C1136 0.960 . S
H1123 C1136 0.960 . S
C1124 H1116 0.929 . S
C1124 C1125 1.377 . S
C1124 C1126 1.384 . S
C1125 C1124 1.377 . S
C1125 C1131 1.390 . S
C1126 H1117 0.930 . S
C1126 C1124 1.384 . S
C1126 C1127 1.372 . S
C1127 C1126 1.372 . S
C1127 C1128 1.400 . S
C1127 C1132 1.490 . S
C1128 H1118 0.930 . S
C1128 C1127 1.400 . S
C1128 C1131 1.386 . S
H1129 C1145 0.930 . S
H1130 C1146 0.931 . S
C1131 H1119 0.929 . S
C1131 C1125 1.390 . S
C1131 C1128 1.386 . S
C1132 C1127 1.490 . S
C1132 C1134 1.395 . S
C1132 C1135 1.403 . S
H1133 C1139 0.930 . S
C1134 H1120 0.930 . S
C1134 C1132 1.395 . S
C1134 C1137 1.403 . S
C1135 C1132 1.403 . S
C1135 C1136 1.524 . S
C1135 C1139 1.400 1_565 S
C1136 H1121 0.960 . S
C1136 H1122 0.960 . S
C1136 H1123 0.960 . S
C1136 C1135 1.524 . S
C1137 C1134 1.403 . S
C1137 C1138 1.392 1_565 S
C1137 C1141 1.495 . S
C1138 C1137 1.392 1_545 S
C1138 C1139 1.385 . S
C1138 C1140 1.478 . S
C1139 H1133 0.930 . S
C1139 C1135 1.400 1_545 S
C1139 C1138 1.385 . S
C1140 C1138 1.478 . S
C1140 C1142 1.381 . S
C1140 C1146 1.383 . S
C1141 C1137 1.495 . S
C1141 H1147 0.959 . S
C1141 H1148 0.961 . S
C1141 H1149 0.960 . S
C1142 C1140 1.381 . S
C1142 C1143 1.394 . S
C1142 H1150 0.930 . S
C1143 C1142 1.394 . S
C1143 C1144 1.383 . S
C1143 H1151 0.929 . S
C1144 C1143 1.383 . S
C1144 C1145 1.377 . S
C1145 H1129 0.930 . S
C1145 C1144 1.377 . S
C1145 C1146 1.379 . S
C1146 H1130 0.931 . S
C1146 C1140 1.383 . S
C1146 C1145 1.379 . S
H1147 C1141 0.959 . S
H1148 C1141 0.961 . S
H1149 C1141 0.960 . S
H1150 C1142 0.930 . S
H1151 C1143 0.929 . S
H1152 C1160 0.929 . S
H1153 C1162 0.930 . S
H1154 C1164 0.930 . S
H1155 C1167 0.929 . S
H1156 C1170 0.930 . S
H1157 C1172 0.960 . S
H1158 C1172 0.960 . S
H1159 C1172 0.960 . S
C1160 H1152 0.929 . S
C1160 C1161 1.377 . S
C1160 C1162 1.384 . S
C1161 C1160 1.377 . S
C1161 C1167 1.390 . S
C1162 H1153 0.930 . S
C1162 C1160 1.384 . S
C1162 C1163 1.372 . S
C1163 C1162 1.372 . S
C1163 C1164 1.400 . S
C1163 C1168 1.490 . S
C1164 H1154 0.930 . S
C1164 C1163 1.400 . S
C1164 C1167 1.386 . S
H1165 C1181 0.930 . S
H1166 C1182 0.931 . S
C1167 H1155 0.929 . S
C1167 C1161 1.390 . S
C1167 C1164 1.386 . S
C1168 C1163 1.490 . S
C1168 C1170 1.395 . S
C1168 C1171 1.403 . S
H1169 C1175 0.930 . S
C1170 H1156 0.930 . S
C1170 C1168 1.395 . S
C1170 C1173 1.403 . S
C1171 C1168 1.403 . S
C1171 C1172 1.524 . S
C1171 C1175 1.400 . S
C1172 H1157 0.960 . S
C1172 H1158 0.960 . S
C1172 H1159 0.960 . S
C1172 C1171 1.524 . S
C1173 C1170 1.403 . S
C1173 C1174 1.392 . S
C1173 C1177 1.495 . S
C1174 C1173 1.392 . S
C1174 C1175 1.385 . S
C1174 C1176 1.478 . S
C1175 H1169 0.930 . S
C1175 C1171 1.400 . S
C1175 C1174 1.385 . S
C1176 C1174 1.478 . S
C1176 C1178 1.381 . S
C1176 C1182 1.383 . S
C1177 C1173 1.495 . S
C1177 H1183 0.959 . S
C1177 H1184 0.961 . S
C1177 H1185 0.960 . S
C1178 C1176 1.381 . S
C1178 C1179 1.394 . S
C1178 H1186 0.930 . S
C1179 C1178 1.394 . S
C1179 C1180 1.383 . S
C1179 H1187 0.929 . S
C1180 C1179 1.383 . S
C1180 C1181 1.377 . S
C1181 H1165 0.930 . S
C1181 C1180 1.377 . S
C1181 C1182 1.379 . S
C1182 H1166 0.931 . S
C1182 C1176 1.383 . S
C1182 C1181 1.379 . S
H1183 C1177 0.959 . S
H1184 C1177 0.961 . S
H1185 C1177 0.960 . S
H1186 C1178 0.930 . S
H1187 C1179 0.929 . S
H1188 C1196 0.929 . S
H1189 C1198 0.930 . S
H1190 C1200 0.930 . S
H1191 C1203 0.929 . S
H1192 C1206 0.930 . S
H1193 C1208 0.960 . S
H1194 C1208 0.960 1_655 S
H1195 C1208 0.969 1_655 S
C1196 H1188 0.929 . S
C1196 C1197 1.377 . S
C1196 C1198 1.384 . S
C1197 C1196 1.377 . S
C1197 C1203 1.390 . S
C1198 H1189 0.930 . S
C1198 C1196 1.384 . S
C1198 C1199 1.372 . S
C1199 C1198 1.372 . S
C1199 C1200 1.400 . S
C1199 C1204 1.490 . S
C1200 H1190 0.930 . S
C1200 C1199 1.400 . S
C1200 C1203 1.386 . S
H1201 C1217 0.930 . S
H1202 C1218 0.931 . S
C1203 H1191 0.929 . S
C1203 C1197 1.390 . S
C1203 C1200 1.386 . S
C1204 C1199 1.490 . S
C1204 C1206 1.395 . S
C1204 C1207 1.403 1_655 S
H1205 C1211 0.930 . S
C1206 H1192 0.930 . S
C1206 C1204 1.395 . S
C1206 C1209 1.403 1_655 S
C1207 C1204 1.403 1_455 S
C1207 C1208 1.524 . S
C1207 C1211 1.400 . S
C1208 H1193 0.960 . S
C1208 H1194 0.960 1_455 S
C1208 H1195 0.969 1_455 S
C1208 C1207 1.524 . S
C1209 C1206 1.403 1_455 S
C1209 C1210 1.392 . S
C1209 C1213 1.495 . S
C1210 C1209 1.392 . S
C1210 C1211 1.385 . S
C1210 C1212 1.478 . S
C1211 H1205 0.930 . S
C1211 C1207 1.400 . S
C1211 C1210 1.385 . S
C1212 C1210 1.478 . S
C1212 C1214 1.381 . S
C1212 C1218 1.383 . S
C1213 C1209 1.495 . S
C1213 H1219 0.959 . S
C1213 H1220 0.961 . S
C1213 H1221 0.960 . S
C1214 C1212 1.381 . S
C1214 C1215 1.394 . S
C1214 H1222 0.930 . S
C1215 C1214 1.394 . S
C1215 C1216 1.383 . S
C1215 H1223 0.929 . S
C1216 C1215 1.383 . S
C1216 C1217 1.377 . S
C1217 H1201 0.930 . S
C1217 C1216 1.377 . S
C1217 C1218 1.379 . S
C1218 H1202 0.931 . S
C1218 C1212 1.383 . S
C1218 C1217 1.379 . S
H1219 C1213 0.959 . S
H1220 C1213 0.961 . S
H1221 C1213 0.960 . S
H1222 C1214 0.930 . S
H1223 C1215 0.929 . S
H1224 C1232 0.929 . S
H1225 C1234 0.930 . S
H1226 C1236 0.930 . S
H1227 C1239 0.929 . S
H1228 C1242 0.930 . S
H1229 C1244 0.960 . S
H1230 C1244 0.960 . S
H1231 C1244 0.960 . S
C1232 H1224 0.929 . S
C1232 C1233 1.377 . S
C1232 C1234 1.384 . S
C1233 C1232 1.377 . S
C1233 C1239 1.390 . S
C1234 H1225 0.930 . S
C1234 C1232 1.384 . S
C1234 C1235 1.372 . S
C1235 C1234 1.372 . S
C1235 C1236 1.400 . S
C1235 C1240 1.490 . S
C1236 H1226 0.930 . S
C1236 C1235 1.400 . S
C1236 C1239 1.386 . S
H1237 C1253 0.930 . S
H1238 C1254 0.931 . S
C1239 H1227 0.929 . S
C1239 C1233 1.390 . S
C1239 C1236 1.386 . S
C1240 C1235 1.490 . S
C1240 C1242 1.395 1_455 S
C1240 C1243 1.403 . S
H1241 C1247 0.930 . S
C1242 H1228 0.930 . S
C1242 C1240 1.395 1_655 S
C1242 C1245 1.403 . S
C1243 C1240 1.403 . S
C1243 C1244 1.524 . S
C1243 C1247 1.400 1_455 S
C1244 H1229 0.960 . S
C1244 H1230 0.960 . S
C1244 H1231 0.960 . S
C1244 C1243 1.524 . S
C1245 C1242 1.403 . S
C1245 C1246 1.392 . S
C1245 C1249 1.495 . S
C1246 C1245 1.392 . S
C1246 C1247 1.385 . S
C1246 C1248 1.478 . S
C1247 H1241 0.930 . S
C1247 C1243 1.400 1_655 S
C1247 C1246 1.385 . S
C1248 C1246 1.478 . S
C1248 C1250 1.381 . S
C1248 C1254 1.383 . S
C1249 C1245 1.495 . S
C1249 H1255 0.959 . S
C1249 H1256 0.961 . S
C1249 H1257 0.960 . S
C1250 C1248 1.381 . S
C1250 C1251 1.394 . S
C1250 H1258 0.930 . S
C1251 C1250 1.394 . S
C1251 C1252 1.383 . S
C1251 H1259 0.929 . S
C1252 C1251 1.383 . S
C1252 C1253 1.377 . S
C1253 H1237 0.930 . S
C1253 C1252 1.377 . S
C1253 C1254 1.379 . S
C1254 H1238 0.931 . S
C1254 C1248 1.383 . S
C1254 C1253 1.379 . S
H1255 C1249 0.959 . S
H1256 C1249 0.961 . S
H1257 C1249 0.960 . S
H1258 C1250 0.930 . S
H1259 C1251 0.929 . S
H1260 C1268 0.929 . S
H1261 C1270 0.930 . S
H1262 C1272 0.930 . S
H1263 C1275 0.929 . S
H1264 C1278 0.930 . S
H1265 C1280 0.960 . S
H1266 C1280 0.960 . S
H1267 C1280 0.960 . S
C1268 H1260 0.929 . S
C1268 C1269 1.377 . S
C1268 C1270 1.384 . S
C1269 C1268 1.377 . S
C1269 C1275 1.390 . S
C1270 H1261 0.930 . S
C1270 C1268 1.384 . S
C1270 C1271 1.372 . S
C1271 C1270 1.372 . S
C1271 C1272 1.400 . S
C1271 C1276 1.490 . S
C1272 H1262 0.930 . S
C1272 C1271 1.400 . S
C1272 C1275 1.386 . S
H1273 C1289 0.930 . S
H1274 C1290 0.931 . S
C1275 H1263 0.929 . S
C1275 C1269 1.390 . S
C1275 C1272 1.386 . S
C1276 C1271 1.490 . S
C1276 C1278 1.395 . S
C1276 C1279 1.403 . S
H1277 C1283 0.930 . S
C1278 H1264 0.930 . S
C1278 C1276 1.395 . S
C1278 C1281 1.403 1_565 S
C1279 C1276 1.403 . S
C1279 C1280 1.524 . S
C1279 C1283 1.400 . S
C1280 H1265 0.960 . S
C1280 H1266 0.960 . S
C1280 H1267 0.960 . S
C1280 C1279 1.524 . S
C1281 C1278 1.403 1_545 S
C1281 C1282 1.392 . S
C1281 C1285 1.495 . S
C1282 C1281 1.392 . S
C1282 C1283 1.385 1_545 S
C1282 C1284 1.478 . S
C1283 H1277 0.930 . S
C1283 C1279 1.400 . S
C1283 C1282 1.385 1_565 S
C1284 C1282 1.478 . S
C1284 C1286 1.381 . S
C1284 C1290 1.383 . S
C1285 C1281 1.495 . S
C1285 H1291 0.959 . S
C1285 H1292 0.961 . S
C1285 H1293 0.960 . S
C1286 C1284 1.381 . S
C1286 C1287 1.394 . S
C1286 H1294 0.930 . S
C1287 C1286 1.394 . S
C1287 C1288 1.383 . S
C1287 H1295 0.929 . S
C1288 C1287 1.383 . S
C1288 C1289 1.377 . S
C1289 H1273 0.930 . S
C1289 C1288 1.377 . S
C1289 C1290 1.379 . S
C1290 H1274 0.931 . S
C1290 C1284 1.383 . S
C1290 C1289 1.379 . S
H1291 C1285 0.959 . S
H1292 C1285 0.961 . S
H1293 C1285 0.960 . S
H1294 C1286 0.930 . S
H1295 C1287 0.929 . S
H1296 C1304 0.929 . S
H1297 C1306 0.930 . S
H1298 C1308 0.930 . S
H1299 C1311 0.929 . S
H1300 C1314 0.930 . S
H1301 C1316 0.960 . S
H1302 C1316 0.960 . S
H1303 C1316 0.960 . S
C1304 H1296 0.929 . S
C1304 C1305 1.377 . S
C1304 C1306 1.384 . S
C1305 C1304 1.377 . S
C1305 C1311 1.390 . S
C1306 H1297 0.930 . S
C1306 C1304 1.384 . S
C1306 C1307 1.372 . S
C1307 C1306 1.372 . S
C1307 C1308 1.400 . S
C1307 C1312 1.490 . S
C1308 H1298 0.930 . S
C1308 C1307 1.400 . S
C1308 C1311 1.386 . S
H1309 C1325 0.930 . S
H1310 C1326 0.931 . S
C1311 H1299 0.929 . S
C1311 C1305 1.390 . S
C1311 C1308 1.386 . S
C1312 C1307 1.490 . S
C1312 C1314 1.395 . S
C1312 C1315 1.403 . S
H1313 C1319 0.930 . S
C1314 H1300 0.930 . S
C1314 C1312 1.395 . S
C1314 C1317 1.403 . S
C1315 C1312 1.403 . S
C1315 C1316 1.524 . S
C1315 C1319 1.400 . S
C1316 H1301 0.960 . S
C1316 H1302 0.960 . S
C1316 H1303 0.960 . S
C1316 C1315 1.524 . S
C1317 C1314 1.403 . S
C1317 C1318 1.392 . S
C1317 C1321 1.495 . S
C1318 C1317 1.392 . S
C1318 C1319 1.385 . S
C1318 C1320 1.478 . S
C1319 H1313 0.930 . S
C1319 C1315 1.400 . S
C1319 C1318 1.385 . S
C1320 C1318 1.478 . S
C1320 C1322 1.381 . S
C1320 C1326 1.383 . S
C1321 C1317 1.495 . S
C1321 H1327 0.959 . S
C1321 H1328 0.961 . S
C1321 H1329 0.960 . S
C1322 C1320 1.381 . S
C1322 C1323 1.394 . S
C1322 H1330 0.930 . S
C1323 C1322 1.394 . S
C1323 C1324 1.383 . S
C1323 H1331 0.929 . S
C1324 C1323 1.383 . S
C1324 C1325 1.377 . S
C1325 H1309 0.930 . S
C1325 C1324 1.377 . S
C1325 C1326 1.379 . S
C1326 H1310 0.931 . S
C1326 C1320 1.383 . S
C1326 C1325 1.379 . S
H1327 C1321 0.959 . S
H1328 C1321 0.961 . S
H1329 C1321 0.960 . S
H1330 C1322 0.930 . S
H1331 C1323 0.929 . S
H1332 C1340 0.929 . S
H1333 C1342 0.930 . S
H1334 C1344 0.930 . S
H1335 C1347 0.929 . S
H1336 C1350 0.930 . S
H1337 C1352 0.960 . S
H1338 C1352 0.960 . S
H1339 C1352 0.960 . S
C1340 H1332 0.929 . S
C1340 C1341 1.377 . S
C1340 C1342 1.384 . S
C1341 C1340 1.377 . S
C1341 C1347 1.390 . S
C1342 H1333 0.930 . S
C1342 C1340 1.384 . S
C1342 C1343 1.372 . S
C1343 C1342 1.372 . S
C1343 C1344 1.400 . S
C1343 C1348 1.490 . S
C1344 H1334 0.930 . S
C1344 C1343 1.400 . S
C1344 C1347 1.386 . S
H1345 C1361 0.930 . S
H1346 C1362 0.931 . S
C1347 H1335 0.929 . S
C1347 C1341 1.390 . S
C1347 C1344 1.386 . S
C1348 C1343 1.490 . S
C1348 C1350 1.395 . S
C1348 C1351 1.403 . S
H1349 C1355 0.930 . S
C1350 H1336 0.930 . S
C1350 C1348 1.395 . S
C1350 C1353 1.403 1_455 S
C1351 C1348 1.403 . S
C1351 C1352 1.524 . S
C1351 C1355 1.400 . S
C1352 H1337 0.960 . S
C1352 H1338 0.960 . S
C1352 H1339 0.960 . S
C1352 C1351 1.524 . S
C1353 C1350 1.403 1_655 S
C1353 C1354 1.392 . S
C1353 C1357 1.495 . S
C1354 C1353 1.392 . S
C1354 C1355 1.385 1_655 S
C1354 C1356 1.478 . S
C1355 H1349 0.930 . S
C1355 C1351 1.400 . S
C1355 C1354 1.385 1_455 S
C1356 C1354 1.478 . S
C1356 C1358 1.381 . S
C1356 C1362 1.383 . S
C1357 C1353 1.495 . S
C1357 H1363 0.959 . S
C1357 H1364 0.961 . S
C1357 H1365 0.960 . S
C1358 C1356 1.381 . S
C1358 C1359 1.394 . S
C1358 H1366 0.930 . S
C1359 C1358 1.394 . S
C1359 C1360 1.383 . S
C1359 H1367 0.929 . S
C1360 C1359 1.383 . S
C1360 C1361 1.377 . S
C1361 H1345 0.930 . S
C1361 C1360 1.377 . S
C1361 C1362 1.379 . S
C1362 H1346 0.931 . S
C1362 C1356 1.383 . S
C1362 C1361 1.379 . S
H1363 C1357 0.959 . S
H1364 C1357 0.961 . S
H1365 C1357 0.960 . S
H1366 C1358 0.930 . S
H1367 C1359 0.929 . S
H1368 C1376 0.929 . S
H1369 C1378 0.930 . S
H1370 C1380 0.930 . S
H1371 C1383 0.929 . S
H1372 C1386 0.930 . S
H1373 C1388 0.960 . S
H1374 C1388 0.960 . S
H1375 C1388 0.960 . S
C1376 H1368 0.929 . S
C1376 C1377 1.377 . S
C1376 C1378 1.384 . S
C1377 C1376 1.377 . S
C1377 C1383 1.390 . S
C1378 H1369 0.930 . S
C1378 C1376 1.384 . S
C1378 C1379 1.372 . S
C1379 C1378 1.372 . S
C1379 C1380 1.400 . S
C1379 C1384 1.490 . S
C1380 H1370 0.930 . S
C1380 C1379 1.400 . S
C1380 C1383 1.386 . S
H1381 C1397 0.930 . S
H1382 C1398 0.931 . S
C1383 H1371 0.929 . S
C1383 C1377 1.390 . S
C1383 C1380 1.386 . S
C1384 C1379 1.490 . S
C1384 C1386 1.395 . S
C1384 C1387 1.403 . S
H1385 C1391 0.930 . S
C1386 H1372 0.930 . S
C1386 C1384 1.395 . S
C1386 C1389 1.403 . S
C1387 C1384 1.403 . S
C1387 C1388 1.524 . S
C1387 C1391 1.400 1_545 S
C1388 H1373 0.960 . S
C1388 H1374 0.960 . S
C1388 H1375 0.960 . S
C1388 C1387 1.524 . S
C1389 C1386 1.403 . S
C1389 C1390 1.392 1_545 S
C1389 C1393 1.495 . S
C1390 C1389 1.392 1_565 S
C1390 C1391 1.385 . S
C1390 C1392 1.478 . S
C1391 H1385 0.930 . S
C1391 C1387 1.400 1_565 S
C1391 C1390 1.385 . S
C1392 C1390 1.478 . S
C1392 C1394 1.381 . S
C1392 C1398 1.383 . S
C1393 C1389 1.495 . S
C1393 H1399 0.959 . S
C1393 H1400 0.961 1_545 S
C1393 H1401 0.960 . S
C1394 C1392 1.381 . S
C1394 C1395 1.394 . S
C1394 H1402 0.930 . S
C1395 C1394 1.394 . S
C1395 C1396 1.383 . S
C1395 H1403 0.929 . S
C1396 C1395 1.383 . S
C1396 C1397 1.377 . S
C1397 H1381 0.930 . S
C1397 C1396 1.377 . S
C1397 C1398 1.379 . S
C1398 H1382 0.931 . S
C1398 C1392 1.383 . S
C1398 C1397 1.379 . S
H1399 C1393 0.959 . S
H1400 C1393 0.961 1_565 S
H1401 C1393 0.960 . S
H1402 C1394 0.930 . S
H1403 C1395 0.929 . S
H1404 C1412 0.929 . S
H1405 C1414 0.930 . S
H1406 C1416 0.930 . S
H1407 C1419 0.929 . S
H1408 C1422 0.930 . S
H1409 C1424 0.960 . S
H1410 C1424 0.960 . S
H1411 C1424 0.960 . S
C1412 H1404 0.929 . S
C1412 C1413 1.377 . S
C1412 C1414 1.384 . S
C1413 C1412 1.377 . S
C1413 C1419 1.390 . S
C1414 H1405 0.930 . S
C1414 C1412 1.384 . S
C1414 C1415 1.372 . S
C1415 C1414 1.372 . S
C1415 C1416 1.400 . S
C1415 C1420 1.490 . S
C1416 H1406 0.930 . S
C1416 C1415 1.400 . S
C1416 C1419 1.386 . S
H1417 C1433 0.930 . S
H1418 C1434 0.931 . S
C1419 H1407 0.929 . S
C1419 C1413 1.390 . S
C1419 C1416 1.386 . S
C1420 C1415 1.490 . S
C1420 C1422 1.395 . S
C1420 C1423 1.403 . S
H1421 C1427 0.930 . S
C1422 H1408 0.930 . S
C1422 C1420 1.395 . S
C1422 C1425 1.403 . S
C1423 C1420 1.403 . S
C1423 C1424 1.524 . S
C1423 C1427 1.400 . S
C1424 H1409 0.960 . S
C1424 H1410 0.960 . S
C1424 H1411 0.960 . S
C1424 C1423 1.524 . S
C1425 C1422 1.403 . S
C1425 C1426 1.392 . S
C1425 C1429 1.495 . S
C1426 C1425 1.392 . S
C1426 C1427 1.385 . S
C1426 C1428 1.478 . S
C1427 H1421 0.930 . S
C1427 C1423 1.400 . S
C1427 C1426 1.385 . S
C1428 C1426 1.478 . S
C1428 C1430 1.381 . S
C1428 C1434 1.383 . S
C1429 C1425 1.495 . S
C1429 H1435 0.959 . S
C1429 H1436 0.961 . S
C1429 H1437 0.960 . S
C1430 C1428 1.381 . S
C1430 C1431 1.394 . S
C1430 H1438 0.930 . S
C1431 C1430 1.394 . S
C1431 C1432 1.383 . S
C1431 H1439 0.929 . S
C1432 C1431 1.383 . S
C1432 C1433 1.377 . S
C1433 H1417 0.930 . S
C1433 C1432 1.377 . S
C1433 C1434 1.379 . S
C1434 H1418 0.931 . S
C1434 C1428 1.383 . S
C1434 C1433 1.379 . S
H1435 C1429 0.959 . S
H1436 C1429 0.961 . S
H1437 C1429 0.960 . S
H1438 C1430 0.930 . S
H1439 C1431 0.929 . S
H1440 C1448 0.929 . S
H1441 C1450 0.930 . S
H1442 C1452 0.930 . S
H1443 C1455 0.929 . S
H1444 C1458 0.930 . S
H1445 C1460 0.960 . S
H1446 C1460 0.960 . S
H1447 C1460 0.960 . S
C1448 H1440 0.929 . S
C1448 C1449 1.377 . S
C1448 C1450 1.384 . S
C1449 C1448 1.377 . S
C1449 C1455 1.390 . S
C1450 H1441 0.930 . S
C1450 C1448 1.384 . S
C1450 C1451 1.372 . S
C1451 C1450 1.372 . S
C1451 C1452 1.400 . S
C1451 C1456 1.490 . S
C1452 H1442 0.930 . S
C1452 C1451 1.400 . S
C1452 C1455 1.386 . S
H1453 C1469 0.930 . S
H1454 C1470 0.931 . S
C1455 H1443 0.929 . S
C1455 C1449 1.390 . S
C1455 C1452 1.386 . S
C1456 C1451 1.490 . S
C1456 C1458 1.395 . S
C1456 C1459 1.403 . S
H1457 C1463 0.930 . S
C1458 H1444 0.930 . S
C1458 C1456 1.395 . S
C1458 C1461 1.403 . S
C1459 C1456 1.403 . S
C1459 C1460 1.524 . S
C1459 C1463 1.400 . S
C1460 H1445 0.960 . S
C1460 H1446 0.960 . S
C1460 H1447 0.960 . S
C1460 C1459 1.524 . S
C1461 C1458 1.403 . S
C1461 C1462 1.392 . S
C1461 C1465 1.495 . S
C1462 C1461 1.392 . S
C1462 C1463 1.385 . S
C1462 C1464 1.478 . S
C1463 H1457 0.930 . S
C1463 C1459 1.400 . S
C1463 C1462 1.385 . S
C1464 C1462 1.478 . S
C1464 C1466 1.381 . S
C1464 C1470 1.383 . S
C1465 C1461 1.495 . S
C1465 H1471 0.959 . S
C1465 H1472 0.961 . S
C1465 H1473 0.960 . S
C1466 C1464 1.381 . S
C1466 C1467 1.394 . S
C1466 H1474 0.930 . S
C1467 C1466 1.394 . S
C1467 C1468 1.383 . S
C1467 H1475 0.929 . S
C1468 C1467 1.383 . S
C1468 C1469 1.377 . S
C1469 H1453 0.930 . S
C1469 C1468 1.377 . S
C1469 C1470 1.379 . S
C1470 H1454 0.931 . S
C1470 C1464 1.383 . S
C1470 C1469 1.379 . S
H1471 C1465 0.959 . S
H1472 C1465 0.961 . S
H1473 C1465 0.960 . S
H1474 C1466 0.930 . S
H1475 C1467 0.929 . S
H1476 C1484 0.929 . S
H1477 C1486 0.930 . S
H1478 C1488 0.930 . S
H1479 C1491 0.929 . S
H1480 C1494 0.930 . S
H1481 C1496 0.960 . S
H1482 C1496 0.960 . S
H1483 C1496 0.960 . S
C1484 H1476 0.929 . S
C1484 C1485 1.377 . S
C1484 C1486 1.384 . S
C1485 C1484 1.377 . S
C1485 C1491 1.390 . S
C1486 H1477 0.930 . S
C1486 C1484 1.384 . S
C1486 C1487 1.372 . S
C1487 C1486 1.372 . S
C1487 C1488 1.400 . S
C1487 C1492 1.490 . S
C1488 H1478 0.930 . S
C1488 C1487 1.400 . S
C1488 C1491 1.386 . S
H1489 C1505 0.930 . S
H1490 C1506 0.931 . S
C1491 H1479 0.929 . S
C1491 C1485 1.390 . S
C1491 C1488 1.386 . S
C1492 C1487 1.490 . S
C1492 C1494 1.395 . S
C1492 C1495 1.403 . S
H1493 C1499 0.930 . S
C1494 H1480 0.930 . S
C1494 C1492 1.395 . S
C1494 C1497 1.403 . S
C1495 C1492 1.403 . S
C1495 C1496 1.524 . S
C1495 C1499 1.400 . S
C1496 H1481 0.960 . S
C1496 H1482 0.960 . S
C1496 H1483 0.960 . S
C1496 C1495 1.524 . S
C1497 C1494 1.403 . S
C1497 C1498 1.392 . S
C1497 C1501 1.495 . S
C1498 C1497 1.392 . S
C1498 C1499 1.385 . S
C1498 C1500 1.478 . S
C1499 H1493 0.930 . S
C1499 C1495 1.400 . S
C1499 C1498 1.385 . S
C1500 C1498 1.478 . S
C1500 C1502 1.381 . S
C1500 C1506 1.383 . S
C1501 C1497 1.495 . S
C1501 H1507 0.959 . S
C1501 H1508 0.961 . S
C1501 H1509 0.960 . S
C1502 C1500 1.381 . S
C1502 C1503 1.394 . S
C1502 H1510 0.930 . S
C1503 C1502 1.394 . S
C1503 C1504 1.383 . S
C1503 H1511 0.929 . S
C1504 C1503 1.383 . S
C1504 C1505 1.377 . S
C1505 H1489 0.930 . S
C1505 C1504 1.377 . S
C1505 C1506 1.379 . S
C1506 H1490 0.931 . S
C1506 C1500 1.383 . S
C1506 C1505 1.379 . S
H1507 C1501 0.959 . S
H1508 C1501 0.961 . S
H1509 C1501 0.960 . S
H1510 C1502 0.930 . S
H1511 C1503 0.929 . S
H1512 C1520 0.929 . S
H1513 C1522 0.930 . S
H1514 C1524 0.930 . S
H1515 C1527 0.929 . S
H1516 C1530 0.930 . S
H1517 C1532 0.960 . S
H1518 C1532 0.960 . S
H1519 C1532 0.960 . S
C1520 H1512 0.929 . S
C1520 C1521 1.377 . S
C1520 C1522 1.384 . S
C1521 C1520 1.377 . S
C1521 C1527 1.390 . S
C1522 H1513 0.930 . S
C1522 C1520 1.384 . S
C1522 C1523 1.372 . S
C1523 C1522 1.372 . S
C1523 C1524 1.400 . S
C1523 C1528 1.490 . S
C1524 H1514 0.930 . S
C1524 C1523 1.400 . S
C1524 C1527 1.386 . S
H1525 C1541 0.930 . S
H1526 C1542 0.931 . S
C1527 H1515 0.929 . S
C1527 C1521 1.390 . S
C1527 C1524 1.386 . S
C1528 C1523 1.490 . S
C1528 C1530 1.395 . S
C1528 C1531 1.403 . S
H1529 C1535 0.930 . S
C1530 H1516 0.930 . S
C1530 C1528 1.395 . S
C1530 C1533 1.403 . S
C1531 C1528 1.403 . S
C1531 C1532 1.524 . S
C1531 C1535 1.400 . S
C1532 H1517 0.960 . S
C1532 H1518 0.960 . S
C1532 H1519 0.960 . S
C1532 C1531 1.524 . S
C1533 C1530 1.403 . S
C1533 C1534 1.392 . S
C1533 C1537 1.495 . S
C1534 C1533 1.392 . S
C1534 C1535 1.385 . S
C1534 C1536 1.478 . S
C1535 H1529 0.930 . S
C1535 C1531 1.400 . S
C1535 C1534 1.385 . S
C1536 C1534 1.478 . S
C1536 C1538 1.381 . S
C1536 C1542 1.383 . S
C1537 C1533 1.495 . S
C1537 H1543 0.959 . S
C1537 H1544 0.961 . S
C1537 H1545 0.960 . S
C1538 C1536 1.381 . S
C1538 C1539 1.394 . S
C1538 H1546 0.930 . S
C1539 C1538 1.394 . S
C1539 C1540 1.383 . S
C1539 H1547 0.929 . S
C1540 C1539 1.383 . S
C1540 C1541 1.377 . S
C1541 H1525 0.930 . S
C1541 C1540 1.377 . S
C1541 C1542 1.379 . S
C1542 H1526 0.931 . S
C1542 C1536 1.383 . S
C1542 C1541 1.379 . S
H1543 C1537 0.959 . S
H1544 C1537 0.961 . S
H1545 C1537 0.960 . S
H1546 C1538 0.930 . S
H1547 C1539 0.929 . S
H1548 C1556 0.929 . S
H1549 C1558 0.930 . S
H1550 C1560 0.930 . S
H1551 C1563 0.929 . S
H1552 C1566 0.930 . S
H1553 C1568 0.960 . S
H1554 C1568 0.960 . S
H1555 C1568 0.960 . S
C1556 H1548 0.929 . S
C1556 C1557 1.377 . S
C1556 C1558 1.384 . S
C1557 C1556 1.377 . S
C1557 C1563 1.390 . S
C1558 H1549 0.930 . S
C1558 C1556 1.384 . S
C1558 C1559 1.372 . S
C1559 C1558 1.372 . S
C1559 C1560 1.400 . S
C1559 C1564 1.490 . S
C1560 H1550 0.930 . S
C1560 C1559 1.400 . S
C1560 C1563 1.386 . S
H1561 C1577 0.930 . S
H1562 C1578 0.931 . S
C1563 H1551 0.929 . S
C1563 C1557 1.390 . S
C1563 C1560 1.386 . S
C1564 C1559 1.490 . S
C1564 C1566 1.395 . S
C1564 C1567 1.403 . S
H1565 C1571 0.930 . S
C1566 H1552 0.930 . S
C1566 C1564 1.395 . S
C1566 C1569 1.403 . S
C1567 C1564 1.403 . S
C1567 C1568 1.524 . S
C1567 C1571 1.400 . S
C1568 H1553 0.960 . S
C1568 H1554 0.960 . S
C1568 H1555 0.960 . S
C1568 C1567 1.524 . S
C1569 C1566 1.403 . S
C1569 C1570 1.392 . S
C1569 C1573 1.495 . S
C1570 C1569 1.392 . S
C1570 C1571 1.385 . S
C1570 C1572 1.478 . S
C1571 H1565 0.930 . S
C1571 C1567 1.400 . S
C1571 C1570 1.385 . S
C1572 C1570 1.478 . S
C1572 C1574 1.381 . S
C1572 C1578 1.383 . S
C1573 C1569 1.495 . S
C1573 H1579 0.959 . S
C1573 H1580 0.961 . S
C1573 H1581 0.960 . S
C1574 C1572 1.381 . S
C1574 C1575 1.394 . S
C1574 H1582 0.930 . S
C1575 C1574 1.394 . S
C1575 C1576 1.383 . S
C1575 H1583 0.929 . S
C1576 C1575 1.383 . S
C1576 C1577 1.377 . S
C1577 H1561 0.930 . S
C1577 C1576 1.377 . S
C1577 C1578 1.379 . S
C1578 H1562 0.931 . S
C1578 C1572 1.383 . S
C1578 C1577 1.379 . S
H1579 C1573 0.959 . S
H1580 C1573 0.961 . S
H1581 C1573 0.960 . S
H1582 C1574 0.930 . S
H1583 C1575 0.929 . S
H1584 C1592 0.929 . S
H1585 C1594 0.930 . S
H1586 C1596 0.930 . S
H1587 C1599 0.929 . S
H1588 C1602 0.930 . S
H1589 C1604 0.960 . S
H1590 C1604 0.960 . S
H1591 C1604 0.960 . S
C1592 H1584 0.929 . S
C1592 C1593 1.377 . S
C1592 C1594 1.384 . S
C1593 C1592 1.377 . S
C1593 C1599 1.390 . S
C1594 H1585 0.930 . S
C1594 C1592 1.384 . S
C1594 C1595 1.372 . S
C1595 C1594 1.372 . S
C1595 C1596 1.400 . S
C1595 C1600 1.490 . S
C1596 H1586 0.930 . S
C1596 C1595 1.400 . S
C1596 C1599 1.386 . S
H1597 C1613 0.930 . S
H1598 C1614 0.931 . S
C1599 H1587 0.929 . S
C1599 C1593 1.390 . S
C1599 C1596 1.386 . S
C1600 C1595 1.490 . S
C1600 C1602 1.395 . S
C1600 C1603 1.403 . S
H1601 C1607 0.930 . S
C1602 H1588 0.930 . S
C1602 C1600 1.395 . S
C1602 C1605 1.403 . S
C1603 C1600 1.403 . S
C1603 C1604 1.524 . S
C1603 C1607 1.400 . S
C1604 H1589 0.960 . S
C1604 H1590 0.960 . S
C1604 H1591 0.960 . S
C1604 C1603 1.524 . S
C1605 C1602 1.403 . S
C1605 C1606 1.392 . S
C1605 C1609 1.495 . S
C1606 C1605 1.392 . S
C1606 C1607 1.385 . S
C1606 C1608 1.478 . S
C1607 H1601 0.930 . S
C1607 C1603 1.400 . S
C1607 C1606 1.385 . S
C1608 C1606 1.478 . S
C1608 C1610 1.381 . S
C1608 C1614 1.383 . S
C1609 C1605 1.495 . S
C1609 H1615 0.959 . S
C1609 H1616 0.961 . S
C1609 H1617 0.960 . S
C1610 C1608 1.381 . S
C1610 C1611 1.394 . S
C1610 H1618 0.930 . S
C1611 C1610 1.394 . S
C1611 C1612 1.383 . S
C1611 H1619 0.929 . S
C1612 C1611 1.383 . S
C1612 C1613 1.377 . S
C1613 H1597 0.930 . S
C1613 C1612 1.377 . S
C1613 C1614 1.379 . S
C1614 H1598 0.931 . S
C1614 C1608 1.383 . S
C1614 C1613 1.379 . S
H1615 C1609 0.959 . S
H1616 C1609 0.961 . S
H1617 C1609 0.960 . S
H1618 C1610 0.930 . S
H1619 C1611 0.929 . S
H1620 C1628 0.929 . S
H1621 C1630 0.930 . S
H1622 C1632 0.930 . S
H1623 C1635 0.929 . S
H1624 C1638 0.930 . S
H1625 C1640 0.960 . S
H1626 C1640 0.960 . S
H1627 C1640 0.960 . S
C1628 H1620 0.929 . S
C1628 C1629 1.377 . S
C1628 C1630 1.384 . S
C1629 C1628 1.377 . S
C1629 C1635 1.390 . S
C1630 H1621 0.930 . S
C1630 C1628 1.384 . S
C1630 C1631 1.372 . S
C1631 C1630 1.372 . S
C1631 C1632 1.400 . S
C1631 C1636 1.490 . S
C1632 H1622 0.930 . S
C1632 C1631 1.400 . S
C1632 C1635 1.386 . S
H1633 C1649 0.930 . S
H1634 C1650 0.931 . S
C1635 H1623 0.929 . S
C1635 C1629 1.390 . S
C1635 C1632 1.386 . S
C1636 C1631 1.490 . S
C1636 C1638 1.395 . S
C1636 C1639 1.403 . S
H1637 C1643 0.930 . S
C1638 H1624 0.930 . S
C1638 C1636 1.395 . S
C1638 C1641 1.403 . S
C1639 C1636 1.403 . S
C1639 C1640 1.524 . S
C1639 C1643 1.400 . S
C1640 H1625 0.960 . S
C1640 H1626 0.960 . S
C1640 H1627 0.960 . S
C1640 C1639 1.524 . S
C1641 C1638 1.403 . S
C1641 C1642 1.392 . S
C1641 C1645 1.495 . S
C1642 C1641 1.392 . S
C1642 C1643 1.385 . S
C1642 C1644 1.478 . S
C1643 H1637 0.930 . S
C1643 C1639 1.400 . S
C1643 C1642 1.385 . S
C1644 C1642 1.478 . S
C1644 C1646 1.381 . S
C1644 C1650 1.383 . S
C1645 C1641 1.495 . S
C1645 H1651 0.959 . S
C1645 H1652 0.961 . S
C1645 H1653 0.960 . S
C1646 C1644 1.381 . S
C1646 C1647 1.394 . S
C1646 H1654 0.930 . S
C1647 C1646 1.394 . S
C1647 C1648 1.383 . S
C1647 H1655 0.929 . S
C1648 C1647 1.383 . S
C1648 C1649 1.377 . S
C1649 H1633 0.930 . S
C1649 C1648 1.377 . S
C1649 C1650 1.379 . S
C1650 H1634 0.931 . S
C1650 C1644 1.383 . S
C1650 C1649 1.379 . S
H1651 C1645 0.959 . S
H1652 C1645 0.961 . S
H1653 C1645 0.960 . S
H1654 C1646 0.930 . S
H1655 C1647 0.929 . S
H1656 C1664 0.929 . S
H1657 C1666 0.930 . S
H1658 C1668 0.930 . S
H1659 C1671 0.929 . S
H1660 C1674 0.930 . S
H1661 C1676 0.960 . S
H1662 C1676 0.960 . S
H1663 C1676 0.960 . S
C1664 H1656 0.929 . S
C1664 C1665 1.377 . S
C1664 C1666 1.384 . S
C1665 C1664 1.377 . S
C1665 C1671 1.390 . S
C1666 H1657 0.930 . S
C1666 C1664 1.384 . S
C1666 C1667 1.372 . S
C1667 C1666 1.372 . S
C1667 C1668 1.400 . S
C1667 C1672 1.490 . S
C1668 H1658 0.930 . S
C1668 C1667 1.400 . S
C1668 C1671 1.386 . S
H1669 C1685 0.930 . S
H1670 C1686 0.931 . S
C1671 H1659 0.929 . S
C1671 C1665 1.390 . S
C1671 C1668 1.386 . S
C1672 C1667 1.490 . S
C1672 C1674 1.395 . S
C1672 C1675 1.403 . S
H1673 C1679 0.930 . S
C1674 H1660 0.930 . S
C1674 C1672 1.395 . S
C1674 C1677 1.403 . S
C1675 C1672 1.403 . S
C1675 C1676 1.524 . S
C1675 C1679 1.400 . S
C1676 H1661 0.960 . S
C1676 H1662 0.960 . S
C1676 H1663 0.960 . S
C1676 C1675 1.524 . S
C1677 C1674 1.403 . S
C1677 C1678 1.392 . S
C1677 C1681 1.495 . S
C1678 C1677 1.392 . S
C1678 C1679 1.385 . S
C1678 C1680 1.478 . S
C1679 H1673 0.930 . S
C1679 C1675 1.400 . S
C1679 C1678 1.385 . S
C1680 C1678 1.478 . S
C1680 C1682 1.381 . S
C1680 C1686 1.383 . S
C1681 C1677 1.495 . S
C1681 H1687 0.959 . S
C1681 H1688 0.961 . S
C1681 H1689 0.960 . S
C1682 C1680 1.381 . S
C1682 C1683 1.394 . S
C1682 H1690 0.930 . S
C1683 C1682 1.394 . S
C1683 C1684 1.383 . S
C1683 H1691 0.929 . S
C1684 C1683 1.383 . S
C1684 C1685 1.377 . S
C1685 H1669 0.930 . S
C1685 C1684 1.377 . S
C1685 C1686 1.379 . S
C1686 H1670 0.931 . S
C1686 C1680 1.383 . S
C1686 C1685 1.379 . S
H1687 C1681 0.959 . S
H1688 C1681 0.961 . S
H1689 C1681 0.960 . S
H1690 C1682 0.930 . S
H1691 C1683 0.929 . S
H1692 C1700 0.929 . S
H1693 C1702 0.930 . S
H1694 C1704 0.930 . S
H1695 C1707 0.929 . S
H1696 C1710 0.930 . S
H1697 C1712 0.960 . S
H1698 C1712 0.960 . S
H1699 C1712 0.960 . S
C1700 H1692 0.929 . S
C1700 C1701 1.377 . S
C1700 C1702 1.384 . S
C1701 C1700 1.377 . S
C1701 C1707 1.390 . S
C1702 H1693 0.930 . S
C1702 C1700 1.384 . S
C1702 C1703 1.372 . S
C1703 C1702 1.372 . S
C1703 C1704 1.400 . S
C1703 C1708 1.490 . S
C1704 H1694 0.930 . S
C1704 C1703 1.400 . S
C1704 C1707 1.386 . S
H1705 C1721 0.930 . S
H1706 C1722 0.931 . S
C1707 H1695 0.929 . S
C1707 C1701 1.390 . S
C1707 C1704 1.386 . S
C1708 C1703 1.490 . S
C1708 C1710 1.395 . S
C1708 C1711 1.403 . S
H1709 C1715 0.930 . S
C1710 H1696 0.930 . S
C1710 C1708 1.395 . S
C1710 C1713 1.403 . S
C1711 C1708 1.403 . S
C1711 C1712 1.524 . S
C1711 C1715 1.400 . S
C1712 H1697 0.960 . S
C1712 H1698 0.960 . S
C1712 H1699 0.960 . S
C1712 C1711 1.524 . S
C1713 C1710 1.403 . S
C1713 C1714 1.392 . S
C1713 C1717 1.495 . S
C1714 C1713 1.392 . S
C1714 C1715 1.385 . S
C1714 C1716 1.478 . S
C1715 H1709 0.930 . S
C1715 C1711 1.400 . S
C1715 C1714 1.385 . S
C1716 C1714 1.478 . S
C1716 C1718 1.381 . S
C1716 C1722 1.383 . S
C1717 C1713 1.495 . S
C1717 H1723 0.959 . S
C1717 H1724 0.961 . S
C1717 H1725 0.960 . S
C1718 C1716 1.381 . S
C1718 C1719 1.394 . S
C1718 H1726 0.930 . S
C1719 C1718 1.394 . S
C1719 C1720 1.383 . S
C1719 H1727 0.929 . S
C1720 C1719 1.383 . S
C1720 C1721 1.377 . S
C1721 H1705 0.930 . S
C1721 C1720 1.377 . S
C1721 C1722 1.379 . S
C1722 H1706 0.931 . S
C1722 C1716 1.383 . S
C1722 C1721 1.379 . S
H1723 C1717 0.959 . S
H1724 C1717 0.961 . S
H1725 C1717 0.960 . S
H1726 C1718 0.930 . S
H1727 C1719 0.929 . S
H1728 C1736 0.929 . S
H1729 C1738 0.930 . S
H1730 C1740 0.930 . S
H1731 C1743 0.929 . S
H1732 C1746 0.930 . S
H1733 C1748 0.960 . S
H1734 C1748 0.960 . S
H1735 C1748 0.960 . S
C1736 H1728 0.929 . S
C1736 C1737 1.377 . S
C1736 C1738 1.384 . S
C1737 C1736 1.377 . S
C1737 C1743 1.390 . S
C1738 H1729 0.930 . S
C1738 C1736 1.384 . S
C1738 C1739 1.372 . S
C1739 C1738 1.372 . S
C1739 C1740 1.400 . S
C1739 C1744 1.490 . S
C1740 H1730 0.930 . S
C1740 C1739 1.400 . S
C1740 C1743 1.386 . S
H1741 C1757 0.930 . S
H1742 C1758 0.931 . S
C1743 H1731 0.929 . S
C1743 C1737 1.390 . S
C1743 C1740 1.386 . S
C1744 C1739 1.490 . S
C1744 C1746 1.395 . S
C1744 C1747 1.403 . S
H1745 C1751 0.930 . S
C1746 H1732 0.930 . S
C1746 C1744 1.395 . S
C1746 C1749 1.403 . S
C1747 C1744 1.403 . S
C1747 C1748 1.524 . S
C1747 C1751 1.400 . S
C1748 H1733 0.960 . S
C1748 H1734 0.960 . S
C1748 H1735 0.960 . S
C1748 C1747 1.524 . S
C1749 C1746 1.403 . S
C1749 C1750 1.392 . S
C1749 C1753 1.495 . S
C1750 C1749 1.392 . S
C1750 C1751 1.385 . S
C1750 C1752 1.478 . S
C1751 H1745 0.930 . S
C1751 C1747 1.400 . S
C1751 C1750 1.385 . S
C1752 C1750 1.478 . S
C1752 C1754 1.381 . S
C1752 C1758 1.383 . S
C1753 C1749 1.495 . S
C1753 H1759 0.959 . S
C1753 H1760 0.961 . S
C1753 H1761 0.960 . S
C1754 C1752 1.381 . S
C1754 C1755 1.394 . S
C1754 H1762 0.930 . S
C1755 C1754 1.394 . S
C1755 C1756 1.383 . S
C1755 H1763 0.929 . S
C1756 C1755 1.383 . S
C1756 C1757 1.377 . S
C1757 H1741 0.930 . S
C1757 C1756 1.377 . S
C1757 C1758 1.379 . S
C1758 H1742 0.931 . S
C1758 C1752 1.383 . S
C1758 C1757 1.379 . S
H1759 C1753 0.959 . S
H1760 C1753 0.961 . S
H1761 C1753 0.960 . S
H1762 C1754 0.930 . S
H1763 C1755 0.929 . S
H1764 C1772 0.929 . S
H1765 C1774 0.930 . S
H1766 C1776 0.930 . S
H1767 C1779 0.929 . S
H1768 C1782 0.930 . S
H1769 C1784 0.960 . S
H1770 C1784 0.960 . S
H1771 C1784 0.960 . S
C1772 H1764 0.929 . S
C1772 C1773 1.377 . S
C1772 C1774 1.384 . S
C1773 C1772 1.377 . S
C1773 C1779 1.390 . S
C1774 H1765 0.930 . S
C1774 C1772 1.384 . S
C1774 C1775 1.372 . S
C1775 C1774 1.372 . S
C1775 C1776 1.400 . S
C1775 C1780 1.490 . S
C1776 H1766 0.930 . S
C1776 C1775 1.400 . S
C1776 C1779 1.386 . S
H1777 C1793 0.930 . S
H1778 C1794 0.931 . S
C1779 H1767 0.929 . S
C1779 C1773 1.390 . S
C1779 C1776 1.386 . S
C1780 C1775 1.490 . S
C1780 C1782 1.395 . S
C1780 C1783 1.403 . S
H1781 C1787 0.930 . S
C1782 H1768 0.930 . S
C1782 C1780 1.395 . S
C1782 C1785 1.403 . S
C1783 C1780 1.403 . S
C1783 C1784 1.524 . S
C1783 C1787 1.400 . S
C1784 H1769 0.960 . S
C1784 H1770 0.960 . S
C1784 H1771 0.960 . S
C1784 C1783 1.524 . S
C1785 C1782 1.403 . S
C1785 C1786 1.392 . S
C1785 C1789 1.495 . S
C1786 C1785 1.392 . S
C1786 C1787 1.385 . S
C1786 C1788 1.478 . S
C1787 H1781 0.930 . S
C1787 C1783 1.400 . S
C1787 C1786 1.385 . S
C1788 C1786 1.478 . S
C1788 C1790 1.381 . S
C1788 C1794 1.383 . S
C1789 C1785 1.495 . S
C1789 H1795 0.959 . S
C1789 H1796 0.961 . S
C1789 H1797 0.960 . S
C1790 C1788 1.381 . S
C1790 C1791 1.394 . S
C1790 H1798 0.930 . S
C1791 C1790 1.394 . S
C1791 C1792 1.383 . S
C1791 H1799 0.929 . S
C1792 C1791 1.383 . S
C1792 C1793 1.377 . S
C1793 H1777 0.930 . S
C1793 C1792 1.377 . S
C1793 C1794 1.379 . S
C1794 H1778 0.931 . S
C1794 C1788 1.383 . S
C1794 C1793 1.379 . S
H1795 C1789 0.959 . S
H1796 C1789 0.961 . S
H1797 C1789 0.960 . S
H1798 C1790 0.930 . S
H1799 C1791 0.929 . S
H1800 C1808 0.929 . S
H1801 C1810 0.930 . S
H1802 C1812 0.930 . S
H1803 C1815 0.929 . S
H1804 C1818 0.930 . S
H1805 C1820 0.960 . S
H1806 C1820 0.960 . S
H1807 C1820 0.960 . S
C1808 H1800 0.929 . S
C1808 C1809 1.377 . S
C1808 C1810 1.384 . S
C1809 C1808 1.377 . S
C1809 C1815 1.390 . S
C1810 H1801 0.930 . S
C1810 C1808 1.384 . S
C1810 C1811 1.372 . S
C1811 C1810 1.372 . S
C1811 C1812 1.400 . S
C1811 C1816 1.490 . S
C1812 H1802 0.930 . S
C1812 C1811 1.400 . S
C1812 C1815 1.386 . S
H1813 C1829 0.930 . S
H1814 C1830 0.931 . S
C1815 H1803 0.929 . S
C1815 C1809 1.390 . S
C1815 C1812 1.386 . S
C1816 C1811 1.490 . S
C1816 C1818 1.395 . S
C1816 C1819 1.403 . S
H1817 C1823 0.930 . S
C1818 H1804 0.930 . S
C1818 C1816 1.395 . S
C1818 C1821 1.403 . S
C1819 C1816 1.403 . S
C1819 C1820 1.524 . S
C1819 C1823 1.400 . S
C1820 H1805 0.960 . S
C1820 H1806 0.960 . S
C1820 H1807 0.960 . S
C1820 C1819 1.524 . S
C1821 C1818 1.403 . S
C1821 C1822 1.392 . S
C1821 C1825 1.495 . S
C1822 C1821 1.392 . S
C1822 C1823 1.385 . S
C1822 C1824 1.478 . S
C1823 H1817 0.930 . S
C1823 C1819 1.400 . S
C1823 C1822 1.385 . S
C1824 C1822 1.478 . S
C1824 C1826 1.381 . S
C1824 C1830 1.383 . S
C1825 C1821 1.495 . S
C1825 H1831 0.959 . S
C1825 H1832 0.961 . S
C1825 H1833 0.960 . S
C1826 C1824 1.381 . S
C1826 C1827 1.394 . S
C1826 H1834 0.930 . S
C1827 C1826 1.394 . S
C1827 C1828 1.383 . S
C1827 H1835 0.929 . S
C1828 C1827 1.383 . S
C1828 C1829 1.377 . S
C1829 H1813 0.930 . S
C1829 C1828 1.377 . S
C1829 C1830 1.379 . S
C1830 H1814 0.931 . S
C1830 C1824 1.383 . S
C1830 C1829 1.379 . S
H1831 C1825 0.959 . S
H1832 C1825 0.961 . S
H1833 C1825 0.960 . S
H1834 C1826 0.930 . S
H1835 C1827 0.929 . S
H1836 C1844 0.929 . S
H1837 C1846 0.930 . S
H1838 C1848 0.930 . S
H1839 C1851 0.929 . S
H1840 C1854 0.930 . S
H1841 C1856 0.960 . S
H1842 C1856 0.960 . S
H1843 C1856 0.960 . S
C1844 H1836 0.929 . S
C1844 C1845 1.377 . S
C1844 C1846 1.384 . S
C1845 C1844 1.377 . S
C1845 C1851 1.390 . S
C1846 H1837 0.930 . S
C1846 C1844 1.384 . S
C1846 C1847 1.372 . S
C1847 C1846 1.372 . S
C1847 C1848 1.400 . S
C1847 C1852 1.490 . S
C1848 H1838 0.930 . S
C1848 C1847 1.400 . S
C1848 C1851 1.386 . S
H1849 C1865 0.930 . S
H1850 C1866 0.931 . S
C1851 H1839 0.929 . S
C1851 C1845 1.390 . S
C1851 C1848 1.386 . S
C1852 C1847 1.490 . S
C1852 C1854 1.395 . S
C1852 C1855 1.403 . S
H1853 C1859 0.930 . S
C1854 H1840 0.930 . S
C1854 C1852 1.395 . S
C1854 C1857 1.403 . S
C1855 C1852 1.403 . S
C1855 C1856 1.524 . S
C1855 C1859 1.400 . S
C1856 H1841 0.960 . S
C1856 H1842 0.960 . S
C1856 H1843 0.960 . S
C1856 C1855 1.524 . S
C1857 C1854 1.403 . S
C1857 C1858 1.392 . S
C1857 C1861 1.495 . S
C1858 C1857 1.392 . S
C1858 C1859 1.385 . S
C1858 C1860 1.478 . S
C1859 H1853 0.930 . S
C1859 C1855 1.400 . S
C1859 C1858 1.385 . S
C1860 C1858 1.478 . S
C1860 C1862 1.381 . S
C1860 C1866 1.383 . S
C1861 C1857 1.495 . S
C1861 H1867 0.959 . S
C1861 H1868 0.961 . S
C1861 H1869 0.960 . S
C1862 C1860 1.381 . S
C1862 C1863 1.394 . S
C1862 H1870 0.930 . S
C1863 C1862 1.394 . S
C1863 C1864 1.383 . S
C1863 H1871 0.929 . S
C1864 C1863 1.383 . S
C1864 C1865 1.377 . S
C1865 H1849 0.930 . S
C1865 C1864 1.377 . S
C1865 C1866 1.379 . S
C1866 H1850 0.931 . S
C1866 C1860 1.383 . S
C1866 C1865 1.379 . S
H1867 C1861 0.959 . S
H1868 C1861 0.961 . S
H1869 C1861 0.960 . S
H1870 C1862 0.930 . S
H1871 C1863 0.929 . S
H1872 C1880 0.929 . S
H1873 C1882 0.930 . S
H1874 C1884 0.930 . S
H1875 C1887 0.929 . S
H1876 C1890 0.930 . S
H1877 C1892 0.960 . S
H1878 C1892 0.960 . S
H1879 C1892 0.960 . S
C1880 H1872 0.929 . S
C1880 C1881 1.377 . S
C1880 C1882 1.384 . S
C1881 C1880 1.377 . S
C1881 C1887 1.390 . S
C1882 H1873 0.930 . S
C1882 C1880 1.384 . S
C1882 C1883 1.372 . S
C1883 C1882 1.372 . S
C1883 C1884 1.400 . S
C1883 C1888 1.490 . S
C1884 H1874 0.930 . S
C1884 C1883 1.400 . S
C1884 C1887 1.386 . S
H1885 C1901 0.930 . S
H1886 C1902 0.931 . S
C1887 H1875 0.929 . S
C1887 C1881 1.390 . S
C1887 C1884 1.386 . S
C1888 C1883 1.490 . S
C1888 C1890 1.395 . S
C1888 C1891 1.403 . S
H1889 C1895 0.930 . S
C1890 H1876 0.930 . S
C1890 C1888 1.395 . S
C1890 C1893 1.403 . S
C1891 C1888 1.403 . S
C1891 C1892 1.524 . S
C1891 C1895 1.400 . S
C1892 H1877 0.960 . S
C1892 H1878 0.960 . S
C1892 H1879 0.960 . S
C1892 C1891 1.524 . S
C1893 C1890 1.403 . S
C1893 C1894 1.392 . S
C1893 C1897 1.495 . S
C1894 C1893 1.392 . S
C1894 C1895 1.385 . S
C1894 C1896 1.478 . S
C1895 H1889 0.930 . S
C1895 C1891 1.400 . S
C1895 C1894 1.385 . S
C1896 C1894 1.478 . S
C1896 C1898 1.381 . S
C1896 C1902 1.383 . S
C1897 C1893 1.495 . S
C1897 H1903 0.959 . S
C1897 H1904 0.961 . S
C1897 H1905 0.960 . S
C1898 C1896 1.381 . S
C1898 C1899 1.394 . S
C1898 H1906 0.930 . S
C1899 C1898 1.394 . S
C1899 C1900 1.383 . S
C1899 H1907 0.929 . S
C1900 C1899 1.383 . S
C1900 C1901 1.377 . S
C1901 H1885 0.930 . S
C1901 C1900 1.377 . S
C1901 C1902 1.379 . S
C1902 H1886 0.931 . S
C1902 C1896 1.383 . S
C1902 C1901 1.379 . S
H1903 C1897 0.959 . S
H1904 C1897 0.961 . S
H1905 C1897 0.960 . S
H1906 C1898 0.930 . S
H1907 C1899 0.929 . S
H1908 C1916 0.929 . S
H1909 C1918 0.930 . S
H1910 C1920 0.930 . S
H1911 C1923 0.929 . S
H1912 C1926 0.930 . S
H1913 C1928 0.960 . S
H1914 C1928 0.960 . S
H1915 C1928 0.960 . S
C1916 H1908 0.929 . S
C1916 C1917 1.377 . S
C1916 C1918 1.384 . S
C1917 C1916 1.377 . S
C1917 C1923 1.390 . S
C1918 H1909 0.930 . S
C1918 C1916 1.384 . S
C1918 C1919 1.372 . S
C1919 C1918 1.372 . S
C1919 C1920 1.400 . S
C1919 C1924 1.490 . S
C1920 H1910 0.930 . S
C1920 C1919 1.400 . S
C1920 C1923 1.386 . S
H1921 C1937 0.930 . S
H1922 C1938 0.931 . S
C1923 H1911 0.929 . S
C1923 C1917 1.390 . S
C1923 C1920 1.386 . S
C1924 C1919 1.490 . S
C1924 C1926 1.395 . S
C1924 C1927 1.403 . S
H1925 C1931 0.930 . S
C1926 H1912 0.930 . S
C1926 C1924 1.395 . S
C1926 C1929 1.403 . S
C1927 C1924 1.403 . S
C1927 C1928 1.524 . S
C1927 C1931 1.400 . S
C1928 H1913 0.960 . S
C1928 H1914 0.960 . S
C1928 H1915 0.960 . S
C1928 C1927 1.524 . S
C1929 C1926 1.403 . S
C1929 C1930 1.392 . S
C1929 C1933 1.495 . S
C1930 C1929 1.392 . S
C1930 C1931 1.385 . S
C1930 C1932 1.478 . S
C1931 H1925 0.930 . S
C1931 C1927 1.400 . S
C1931 C1930 1.385 . S
C1932 C1930 1.478 . S
C1932 C1934 1.381 . S
C1932 C1938 1.383 . S
C1933 C1929 1.495 . S
C1933 H1939 0.959 . S
C1933 H1940 0.961 . S
C1933 H1941 0.960 . S
C1934 C1932 1.381 . S
C1934 C1935 1.394 . S
C1934 H1942 0.930 . S
C1935 C1934 1.394 . S
C1935 C1936 1.383 . S
C1935 H1943 0.929 . S
C1936 C1935 1.383 . S
C1936 C1937 1.377 . S
C1937 H1921 0.930 . S
C1937 C1936 1.377 . S
C1937 C1938 1.379 . S
C1938 H1922 0.931 . S
C1938 C1932 1.383 . S
C1938 C1937 1.379 . S
H1939 C1933 0.959 . S
H1940 C1933 0.961 . S
H1941 C1933 0.960 . S
H1942 C1934 0.930 . S
H1943 C1935 0.929 . S
H1944 C1952 0.929 . S
H1945 C1954 0.930 . S
H1946 C1956 0.930 . S
H1947 C1959 0.929 . S
H1948 C1962 0.930 . S
H1949 C1964 0.960 . S
H1950 C1964 0.960 . S
H1951 C1964 0.960 . S
C1952 H1944 0.929 . S
C1952 C1953 1.377 . S
C1952 C1954 1.384 . S
C1953 C1952 1.377 . S
C1953 C1959 1.390 . S
C1954 H1945 0.930 . S
C1954 C1952 1.384 . S
C1954 C1955 1.372 . S
C1955 C1954 1.372 . S
C1955 C1956 1.400 . S
C1955 C1960 1.490 . S
C1956 H1946 0.930 . S
C1956 C1955 1.400 . S
C1956 C1959 1.386 . S
H1957 C1973 0.930 . S
H1958 C1974 0.931 . S
C1959 H1947 0.929 . S
C1959 C1953 1.390 . S
C1959 C1956 1.386 . S
C1960 C1955 1.490 . S
C1960 C1962 1.395 . S
C1960 C1963 1.403 . S
H1961 C1967 0.930 . S
C1962 H1948 0.930 . S
C1962 C1960 1.395 . S
C1962 C1965 1.403 . S
C1963 C1960 1.403 . S
C1963 C1964 1.524 . S
C1963 C1967 1.400 . S
C1964 H1949 0.960 . S
C1964 H1950 0.960 . S
C1964 H1951 0.960 . S
C1964 C1963 1.524 . S
C1965 C1962 1.403 . S
C1965 C1966 1.392 . S
C1965 C1969 1.495 . S
C1966 C1965 1.392 . S
C1966 C1967 1.385 . S
C1966 C1968 1.478 . S
C1967 H1961 0.930 . S
C1967 C1963 1.400 . S
C1967 C1966 1.385 . S
C1968 C1966 1.478 . S
C1968 C1970 1.381 . S
C1968 C1974 1.383 . S
C1969 C1965 1.495 . S
C1969 H1975 0.959 . S
C1969 H1976 0.961 . S
C1969 H1977 0.960 . S
C1970 C1968 1.381 . S
C1970 C1971 1.394 . S
C1970 H1978 0.930 . S
C1971 C1970 1.394 . S
C1971 C1972 1.383 . S
C1971 H1979 0.929 . S
C1972 C1971 1.383 . S
C1972 C1973 1.377 . S
C1973 H1957 0.930 . S
C1973 C1972 1.377 . S
C1973 C1974 1.379 . S
C1974 H1958 0.931 . S
C1974 C1968 1.383 . S
C1974 C1973 1.379 . S
H1975 C1969 0.959 . S
H1976 C1969 0.961 . S
H1977 C1969 0.960 . S
H1978 C1970 0.930 . S
H1979 C1971 0.929 . S
H1980 C1988 0.929 . S
H1981 C1990 0.930 . S
H1982 C1992 0.930 . S
H1983 C1995 0.929 . S
H1984 C1998 0.930 . S
H1985 C2000 0.960 . S
H1986 C2000 0.960 . S
H1987 C2000 0.960 . S
C1988 H1980 0.929 . S
C1988 C1989 1.377 . S
C1988 C1990 1.384 . S
C1989 C1988 1.377 . S
C1989 C1995 1.390 . S
C1990 H1981 0.930 . S
C1990 C1988 1.384 . S
C1990 C1991 1.372 . S
C1991 C1990 1.372 . S
C1991 C1992 1.400 . S
C1991 C1996 1.490 . S
C1992 H1982 0.930 . S
C1992 C1991 1.400 . S
C1992 C1995 1.386 . S
H1993 C2009 0.930 . S
H1994 C2010 0.931 . S
C1995 H1983 0.929 . S
C1995 C1989 1.390 . S
C1995 C1992 1.386 . S
C1996 C1991 1.490 . S
C1996 C1998 1.395 . S
C1996 C1999 1.403 . S
H1997 C2003 0.930 . S
C1998 H1984 0.930 . S
C1998 C1996 1.395 . S
C1998 C2001 1.403 . S
C1999 C1996 1.403 . S
C1999 C2000 1.524 . S
C1999 C2003 1.400 . S
C2000 H1985 0.960 . S
C2000 H1986 0.960 . S
C2000 H1987 0.960 . S
C2000 C1999 1.524 . S
C2001 C1998 1.403 . S
C2001 C2002 1.392 . S
C2001 C2005 1.495 . S
C2002 C2001 1.392 . S
C2002 C2003 1.385 . S
C2002 C2004 1.478 . S
C2003 H1997 0.930 . S
C2003 C1999 1.400 . S
C2003 C2002 1.385 . S
C2004 C2002 1.478 . S
C2004 C2006 1.381 . S
C2004 C2010 1.383 . S
C2005 C2001 1.495 . S
C2005 H2011 0.959 . S
C2005 H2012 0.961 . S
C2005 H2013 0.960 . S
C2006 C2004 1.381 . S
C2006 C2007 1.394 . S
C2006 H2014 0.930 . S
C2007 C2006 1.394 . S
C2007 C2008 1.383 . S
C2007 H2015 0.929 . S
C2008 C2007 1.383 . S
C2008 C2009 1.377 . S
C2009 H1993 0.930 . S
C2009 C2008 1.377 . S
C2009 C2010 1.379 . S
C2010 H1994 0.931 . S
C2010 C2004 1.383 . S
C2010 C2009 1.379 . S
H2011 C2005 0.959 . S
H2012 C2005 0.961 . S
H2013 C2005 0.960 . S
H2014 C2006 0.930 . S
H2015 C2007 0.929 . S
H2016 C2024 0.929 . S
H2017 C2026 0.930 . S
H2018 C2028 0.930 . S
H2019 C2031 0.929 . S
H2020 C2034 0.930 . S
H2021 C2036 0.960 . S
H2022 C2036 0.960 . S
H2023 C2036 0.960 . S
C2024 H2016 0.929 . S
C2024 C2025 1.377 . S
C2024 C2026 1.384 . S
C2025 C2024 1.377 . S
C2025 C2031 1.390 . S
C2026 H2017 0.930 . S
C2026 C2024 1.384 . S
C2026 C2027 1.372 . S
C2027 C2026 1.372 . S
C2027 C2028 1.400 . S
C2027 C2032 1.490 . S
C2028 H2018 0.930 . S
C2028 C2027 1.400 . S
C2028 C2031 1.386 . S
H2029 C2045 0.930 . S
H2030 C2046 0.931 . S
C2031 H2019 0.929 . S
C2031 C2025 1.390 . S
C2031 C2028 1.386 . S
C2032 C2027 1.490 . S
C2032 C2034 1.395 . S
C2032 C2035 1.403 . S
H2033 C2039 0.930 . S
C2034 H2020 0.930 . S
C2034 C2032 1.395 . S
C2034 C2037 1.403 . S
C2035 C2032 1.403 . S
C2035 C2036 1.524 . S
C2035 C2039 1.400 . S
C2036 H2021 0.960 . S
C2036 H2022 0.960 . S
C2036 H2023 0.960 . S
C2036 C2035 1.524 . S
C2037 C2034 1.403 . S
C2037 C2038 1.392 . S
C2037 C2041 1.495 . S
C2038 C2037 1.392 . S
C2038 C2039 1.385 . S
C2038 C2040 1.478 . S
C2039 H2033 0.930 . S
C2039 C2035 1.400 . S
C2039 C2038 1.385 . S
C2040 C2038 1.478 . S
C2040 C2042 1.381 . S
C2040 C2046 1.383 . S
C2041 C2037 1.495 . S
C2041 H2047 0.959 . S
C2041 H2048 0.961 . S
C2041 H2049 0.960 . S
C2042 C2040 1.381 . S
C2042 C2043 1.394 . S
C2042 H2050 0.930 . S
C2043 C2042 1.394 . S
C2043 C2044 1.383 . S
C2043 H2051 0.929 . S
C2044 C2043 1.383 . S
C2044 C2045 1.377 . S
C2045 H2029 0.930 . S
C2045 C2044 1.377 . S
C2045 C2046 1.379 . S
C2046 H2030 0.931 . S
C2046 C2040 1.383 . S
C2046 C2045 1.379 . S
H2047 C2041 0.959 . S
H2048 C2041 0.961 . S
H2049 C2041 0.960 . S
H2050 C2042 0.930 . S
H2051 C2043 0.929 . S
H2052 C2060 0.929 . S
H2053 C2062 0.930 . S
H2054 C2064 0.930 . S
H2055 C2067 0.929 . S
H2056 C2070 0.930 . S
H2057 C2072 0.960 . S
H2058 C2072 0.960 . S
H2059 C2072 0.960 . S
C2060 H2052 0.929 . S
C2060 C2061 1.377 . S
C2060 C2062 1.384 . S
C2061 C2060 1.377 . S
C2061 C2067 1.390 . S
C2062 H2053 0.930 . S
C2062 C2060 1.384 . S
C2062 C2063 1.372 . S
C2063 C2062 1.372 . S
C2063 C2064 1.400 . S
C2063 C2068 1.490 . S
C2064 H2054 0.930 . S
C2064 C2063 1.400 . S
C2064 C2067 1.386 . S
H2065 C2081 0.930 . S
H2066 C2082 0.931 . S
C2067 H2055 0.929 . S
C2067 C2061 1.390 . S
C2067 C2064 1.386 . S
C2068 C2063 1.490 . S
C2068 C2070 1.395 . S
C2068 C2071 1.403 . S
H2069 C2075 0.930 . S
C2070 H2056 0.930 . S
C2070 C2068 1.395 . S
C2070 C2073 1.403 . S
C2071 C2068 1.403 . S
C2071 C2072 1.524 . S
C2071 C2075 1.400 . S
C2072 H2057 0.960 . S
C2072 H2058 0.960 . S
C2072 H2059 0.960 . S
C2072 C2071 1.524 . S
C2073 C2070 1.403 . S
C2073 C2074 1.392 . S
C2073 C2077 1.495 . S
C2074 C2073 1.392 . S
C2074 C2075 1.385 . S
C2074 C2076 1.478 . S
C2075 H2069 0.930 . S
C2075 C2071 1.400 . S
C2075 C2074 1.385 . S
C2076 C2074 1.478 . S
C2076 C2078 1.381 . S
C2076 C2082 1.383 . S
C2077 C2073 1.495 . S
C2077 H2083 0.959 . S
C2077 H2084 0.961 . S
C2077 H2085 0.960 . S
C2078 C2076 1.381 . S
C2078 C2079 1.394 . S
C2078 H2086 0.930 . S
C2079 C2078 1.394 . S
C2079 C2080 1.383 . S
C2079 H2087 0.929 . S
C2080 C2079 1.383 . S
C2080 C2081 1.377 . S
C2081 H2065 0.930 . S
C2081 C2080 1.377 . S
C2081 C2082 1.379 . S
C2082 H2066 0.931 . S
C2082 C2076 1.383 . S
C2082 C2081 1.379 . S
H2083 C2077 0.959 . S
H2084 C2077 0.961 . S
H2085 C2077 0.960 . S
H2086 C2078 0.930 . S
H2087 C2079 0.929 . S
H2088 C2096 0.929 . S
H2089 C2098 0.930 . S
H2090 C2100 0.930 . S
H2091 C2103 0.929 . S
H2092 C2106 0.930 . S
H2093 C2108 0.960 . S
H2094 C2108 0.960 . S
H2095 C2108 0.960 . S
C2096 H2088 0.929 . S
C2096 C2097 1.377 . S
C2096 C2098 1.384 . S
C2097 C2096 1.377 . S
C2097 C2103 1.390 . S
C2098 H2089 0.930 . S
C2098 C2096 1.384 . S
C2098 C2099 1.372 . S
C2099 C2098 1.372 . S
C2099 C2100 1.400 . S
C2099 C2104 1.490 . S
C2100 H2090 0.930 . S
C2100 C2099 1.400 . S
C2100 C2103 1.386 . S
H2101 C2117 0.930 . S
H2102 C2118 0.931 . S
C2103 H2091 0.929 . S
C2103 C2097 1.390 . S
C2103 C2100 1.386 . S
C2104 C2099 1.490 . S
C2104 C2106 1.395 1_556 S
C2104 C2107 1.403 . S
H2105 C2111 0.938 . S
C2106 H2092 0.930 . S
C2106 C2104 1.395 1_554 S
C2106 C2109 1.403 . S
C2107 C2104 1.403 . S
C2107 C2108 1.524 . S
C2107 C2111 1.444 . S
C2108 H2093 0.960 . S
C2108 H2094 0.960 . S
C2108 H2095 0.960 . S
C2108 C2107 1.524 . S
C2109 C2106 1.403 . S
C2109 C2110 1.392 . S
C2109 C2113 1.495 . S
C2110 C2109 1.392 . S
C2110 C2111 1.336 1_554 S
C2110 C2112 1.478 . S
C2111 H2105 0.938 . S
C2111 C2107 1.444 . S
C2111 C2110 1.336 1_556 S
C2112 C2110 1.478 . S
C2112 C2114 1.381 . S
C2112 C2118 1.383 . S
C2113 C2109 1.495 . S
C2113 H2119 0.959 . S
C2113 H2120 0.961 . S
C2113 H2121 0.960 . S
C2114 C2112 1.381 . S
C2114 C2115 1.394 . S
C2114 H2122 0.930 . S
C2115 C2114 1.394 . S
C2115 C2116 1.383 . S
C2115 H2123 0.929 . S
C2116 C2115 1.383 . S
C2116 C2117 1.377 . S
C2117 H2101 0.930 . S
C2117 C2116 1.377 . S
C2117 C2118 1.379 . S
C2118 H2102 0.931 . S
C2118 C2112 1.383 . S
C2118 C2117 1.379 . S
H2119 C2113 0.959 . S
H2120 C2113 0.961 . S
H2121 C2113 0.960 . S
H2122 C2114 0.930 . S
H2123 C2115 0.929 . S
H2124 C2132 0.929 . S
H2125 C2134 0.930 . S
H2126 C2136 0.930 . S
H2127 C2139 0.929 . S
H2128 C2142 0.930 . S
H2129 C2144 0.960 . S
H2130 C2144 0.960 . S
H2131 C2144 0.960 . S
C2132 H2124 0.929 . S
C2132 C2133 1.377 . S
C2132 C2134 1.384 . S
C2133 C2132 1.377 . S
C2133 C2139 1.390 . S
C2134 H2125 0.930 . S
C2134 C2132 1.384 . S
C2134 C2135 1.372 . S
C2135 C2134 1.372 . S
C2135 C2136 1.400 . S
C2135 C2140 1.490 . S
C2136 H2126 0.930 . S
C2136 C2135 1.400 . S
C2136 C2139 1.386 . S
H2137 C2153 0.930 . S
H2138 C2154 0.931 . S
C2139 H2127 0.929 . S
C2139 C2133 1.390 . S
C2139 C2136 1.386 . S
C2140 C2135 1.490 . S
C2140 C2142 1.395 1_455 S
C2140 C2143 1.403 . S
H2141 C2147 0.930 . S
C2142 H2128 0.930 . S
C2142 C2140 1.395 1_655 S
C2142 C2145 1.403 . S
C2143 C2140 1.403 . S
C2143 C2144 1.524 . S
C2143 C2147 1.400 . S
C2144 H2129 0.960 . S
C2144 H2130 0.960 . S
C2144 H2131 0.960 . S
C2144 C2143 1.524 . S
C2145 C2142 1.403 . S
C2145 C2146 1.392 . S
C2145 C2149 1.495 . S
C2146 C2145 1.392 . S
C2146 C2147 1.385 1_655 S
C2146 C2148 1.478 . S
C2147 H2141 0.930 . S
C2147 C2143 1.400 . S
C2147 C2146 1.385 1_455 S
C2148 C2146 1.478 . S
C2148 C2150 1.381 . S
C2148 C2154 1.383 . S
C2149 C2145 1.495 . S
C2149 H2155 0.959 . S
C2149 H2156 0.961 . S
C2149 H2157 0.960 . S
C2150 C2148 1.381 . S
C2150 C2151 1.394 . S
C2150 H2158 0.930 . S
C2151 C2150 1.394 . S
C2151 C2152 1.383 . S
C2151 H2159 0.929 . S
C2152 C2151 1.383 . S
C2152 C2153 1.377 . S
C2153 H2137 0.930 . S
C2153 C2152 1.377 . S
C2153 C2154 1.379 . S
C2154 H2138 0.931 . S
C2154 C2148 1.383 . S
C2154 C2153 1.379 . S
H2155 C2149 0.959 . S
H2156 C2149 0.961 . S
H2157 C2149 0.960 . S
H2158 C2150 0.930 . S
H2159 C2151 0.929 . S
H2160 C2168 0.929 . S
H2161 C2170 0.930 . S
H2162 C2172 0.930 . S
H2163 C2175 0.929 . S
H2164 C2178 0.930 . S
H2165 C2180 0.960 . S
H2166 C2180 0.960 . S
H2167 C2180 0.960 . S
C2168 H2160 0.929 . S
C2168 C2169 1.377 . S
C2168 C2170 1.384 . S
C2169 C2168 1.377 . S
C2169 C2175 1.390 . S
C2170 H2161 0.930 . S
C2170 C2168 1.384 . S
C2170 C2171 1.372 . S
C2171 C2170 1.372 . S
C2171 C2172 1.400 . S
C2171 C2176 1.490 . S
C2172 H2162 0.930 . S
C2172 C2171 1.400 . S
C2172 C2175 1.386 . S
H2173 C2189 0.930 . S
H2174 C2190 0.931 . S
C2175 H2163 0.929 . S
C2175 C2169 1.390 . S
C2175 C2172 1.386 . S
C2176 C2171 1.490 . S
C2176 C2178 1.395 1_554 S
C2176 C2179 1.403 1_565 S
H2177 C2183 0.930 . S
C2178 H2164 0.930 . S
C2178 C2176 1.395 1_556 S
C2178 C2181 1.403 . S
C2179 C2176 1.403 1_545 S
C2179 C2180 1.524 . S
C2179 C2183 1.400 . S
C2180 H2165 0.960 . S
C2180 H2166 0.960 . S
C2180 H2167 0.960 . S
C2180 C2179 1.524 . S
C2181 C2178 1.403 . S
C2181 C2182 1.392 1_565 S
C2181 C2185 1.495 . S
C2182 C2181 1.392 1_545 S
C2182 C2183 1.385 1_556 S
C2182 C2184 1.478 . S
C2183 H2177 0.930 . S
C2183 C2179 1.400 . S
C2183 C2182 1.385 1_554 S
C2184 C2182 1.478 . S
C2184 C2186 1.381 . S
C2184 C2190 1.383 . S
C2185 C2181 1.495 . S
C2185 H2191 0.959 . S
C2185 H2192 0.961 . S
C2185 H2193 0.960 . S
C2186 C2184 1.381 . S
C2186 C2187 1.394 . S
C2186 H2194 0.930 . S
C2187 C2186 1.394 . S
C2187 C2188 1.383 . S
C2187 H2195 0.929 . S
C2188 C2187 1.383 . S
C2188 C2189 1.377 . S
C2189 H2173 0.930 . S
C2189 C2188 1.377 . S
C2189 C2190 1.379 . S
C2190 H2174 0.931 . S
C2190 C2184 1.383 . S
C2190 C2189 1.379 . S
H2191 C2185 0.959 . S
H2192 C2185 0.961 . S
H2193 C2185 0.960 . S
H2194 C2186 0.930 . S
H2195 C2187 0.929 . S
H2196 C2204 0.929 . S
H2197 C2206 0.930 . S
H2198 C2208 0.930 . S
H2199 C2211 0.929 . S
H2200 C2214 0.930 . S
H2201 C2216 0.960 . S
H2202 C2216 0.960 . S
H2203 C2216 0.960 . S
C2204 H2196 0.929 . S
C2204 C2205 1.377 . S
C2204 C2206 1.384 . S
C2205 C2204 1.377 . S
C2205 C2211 1.390 . S
C2206 H2197 0.930 . S
C2206 C2204 1.384 . S
C2206 C2207 1.372 . S
C2207 C2206 1.372 . S
C2207 C2208 1.400 . S
C2207 C2212 1.490 . S
C2208 H2198 0.930 . S
C2208 C2207 1.400 . S
C2208 C2211 1.386 . S
H2209 C2225 0.930 . S
H2210 C2226 0.931 . S
C2211 H2199 0.929 . S
C2211 C2205 1.390 . S
C2211 C2208 1.386 . S
C2212 C2207 1.490 . S
C2212 C2214 1.395 . S
C2212 C2215 1.403 . S
H2213 C2219 0.930 . S
C2214 H2200 0.930 . S
C2214 C2212 1.395 . S
C2214 C2217 1.403 . S
C2215 C2212 1.403 . S
C2215 C2216 1.524 . S
C2215 C2219 1.400 . S
C2216 H2201 0.960 . S
C2216 H2202 0.960 . S
C2216 H2203 0.960 . S
C2216 C2215 1.524 . S
C2217 C2214 1.403 . S
C2217 C2218 1.392 . S
C2217 C2221 1.495 . S
C2218 C2217 1.392 . S
C2218 C2219 1.385 . S
C2218 C2220 1.478 . S
C2219 H2213 0.930 . S
C2219 C2215 1.400 . S
C2219 C2218 1.385 . S
C2220 C2218 1.478 . S
C2220 C2222 1.381 . S
C2220 C2226 1.383 . S
C2221 C2217 1.495 . S
C2221 H2227 0.959 . S
C2221 H2228 0.961 . S
C2221 H2229 0.960 . S
C2222 C2220 1.381 . S
C2222 C2223 1.394 . S
C2222 H2230 0.930 . S
C2223 C2222 1.394 . S
C2223 C2224 1.383 . S
C2223 H2231 0.929 . S
C2224 C2223 1.383 . S
C2224 C2225 1.377 . S
C2225 H2209 0.930 . S
C2225 C2224 1.377 . S
C2225 C2226 1.379 . S
C2226 H2210 0.931 . S
C2226 C2220 1.383 . S
C2226 C2225 1.379 . S
H2227 C2221 0.959 . S
H2228 C2221 0.961 . S
H2229 C2221 0.960 . S
H2230 C2222 0.930 . S
H2231 C2223 0.929 . S
H2232 C2240 0.929 . S
H2233 C2242 0.930 . S
H2234 C2244 0.930 . S
H2235 C2247 0.929 . S
H2236 C2250 0.930 . S
H2237 C2252 0.960 . S
H2238 C2252 0.960 . S
H2239 C2252 0.960 . S
C2240 H2232 0.929 . S
C2240 C2241 1.377 . S
C2240 C2242 1.384 . S
C2241 C2240 1.377 . S
C2241 C2247 1.390 . S
C2242 H2233 0.930 . S
C2242 C2240 1.384 . S
C2242 C2243 1.372 . S
C2243 C2242 1.372 . S
C2243 C2244 1.400 . S
C2243 C2248 1.490 . S
C2244 H2234 0.930 . S
C2244 C2243 1.400 . S
C2244 C2247 1.386 . S
H2245 C2261 0.930 . S
H2246 C2262 0.931 . S
C2247 H2235 0.929 . S
C2247 C2241 1.390 . S
C2247 C2244 1.386 . S
C2248 C2243 1.490 . S
C2248 C2250 1.395 1_556 S
C2248 C2251 1.403 1_655 S
H2249 C2255 0.930 . S
C2250 H2236 0.930 . S
C2250 C2248 1.395 1_554 S
C2250 C2253 1.403 . S
C2251 C2248 1.403 1_455 S
C2251 C2252 1.524 . S
C2251 C2255 1.400 . S
C2252 H2237 0.960 . S
C2252 H2238 0.960 . S
C2252 H2239 0.960 . S
C2252 C2251 1.524 . S
C2253 C2250 1.403 . S
C2253 C2254 1.392 1_655 S
C2253 C2257 1.495 . S
C2254 C2253 1.392 1_455 S
C2254 C2255 1.385 1_554 S
C2254 C2256 1.478 . S
C2255 H2249 0.930 . S
C2255 C2251 1.400 . S
C2255 C2254 1.385 1_556 S
C2256 C2254 1.478 . S
C2256 C2258 1.381 . S
C2256 C2262 1.383 . S
C2257 C2253 1.495 . S
C2257 H2263 0.959 . S
C2257 H2264 0.961 . S
C2257 H2265 0.960 . S
C2258 C2256 1.381 . S
C2258 C2259 1.394 . S
C2258 H2266 0.930 . S
C2259 C2258 1.394 . S
C2259 C2260 1.383 . S
C2259 H2267 0.929 . S
C2260 C2259 1.383 . S
C2260 C2261 1.377 . S
C2261 H2245 0.930 . S
C2261 C2260 1.377 . S
C2261 C2262 1.379 . S
C2262 H2246 0.931 . S
C2262 C2256 1.383 . S
C2262 C2261 1.379 . S
H2263 C2257 0.959 . S
H2264 C2257 0.961 . S
H2265 C2257 0.960 . S
H2266 C2258 0.930 . S
H2267 C2259 0.929 . S
H2268 C2276 0.929 . S
H2269 C2278 0.930 . S
H2270 C2280 0.930 . S
H2271 C2283 0.929 . S
H2272 C2286 0.930 . S
H2273 C2288 0.960 . S
H2274 C2288 0.960 . S
H2275 C2288 0.960 1_565 S
C2276 H2268 0.929 . S
C2276 C2277 1.377 . S
C2276 C2278 1.384 . S
C2277 C2276 1.377 . S
C2277 C2283 1.390 . S
C2278 H2269 0.930 . S
C2278 C2276 1.384 . S
C2278 C2279 1.372 . S
C2279 C2278 1.372 . S
C2279 C2280 1.400 . S
C2279 C2284 1.490 . S
C2280 H2270 0.930 . S
C2280 C2279 1.400 . S
C2280 C2283 1.386 . S
H2281 C2297 0.930 . S
H2282 C2298 0.931 . S
C2283 H2271 0.929 . S
C2283 C2277 1.390 . S
C2283 C2280 1.386 . S
C2284 C2279 1.490 . S
C2284 C2286 1.395 . S
C2284 C2287 1.397 1_565 S
H2285 C2291 0.930 . S
C2286 H2272 0.930 . S
C2286 C2284 1.395 . S
C2286 C2289 1.403 . S
C2287 C2284 1.397 1_545 S
C2287 C2288 1.518 . S
C2287 C2291 1.412 . S
C2288 H2273 0.960 . S
C2288 H2274 0.960 . S
C2288 H2275 0.960 1_545 S
C2288 C2287 1.518 . S
C2289 C2286 1.403 . S
C2289 C2290 1.392 1_565 S
C2289 C2293 1.495 . S
C2290 C2289 1.392 1_545 S
C2290 C2291 1.385 . S
C2290 C2292 1.478 . S
C2291 H2285 0.930 . S
C2291 C2287 1.412 . S
C2291 C2290 1.385 . S
C2292 C2290 1.478 . S
C2292 C2294 1.381 . S
C2292 C2298 1.383 . S
C2293 C2289 1.495 . S
C2293 H2299 0.959 . S
C2293 H2300 0.961 . S
C2293 H2301 0.960 1_565 S
C2294 C2292 1.381 . S
C2294 C2295 1.394 . S
C2294 H2302 0.930 . S
C2295 C2294 1.394 . S
C2295 C2296 1.383 . S
C2295 H2303 0.929 . S
C2296 C2295 1.383 . S
C2296 C2297 1.377 . S
C2297 H2281 0.930 . S
C2297 C2296 1.377 . S
C2297 C2298 1.379 . S
C2298 H2282 0.931 . S
C2298 C2292 1.383 . S
C2298 C2297 1.379 . S
H2299 C2293 0.959 . S
H2300 C2293 0.961 . S
H2301 C2293 0.960 1_545 S
H2302 C2294 0.930 . S
H2303 C2295 0.929 . S
C1017 C392 1.325 . S
C1036 C63 1.244 . S
C1053 C476 1.324 . S
C1072 C147 1.220 . S
C1089 C231 1.215 . S
C1108 C56 1.304 . S
C1125 C315 1.236 . S
C1144 C140 1.335 . S
C1161 C399 1.216 . S
C1180 C224 1.291 . S
C1197 C308 1.320 . S
C1216 C483 1.183 . S
C1233 C728 1.312 . S
C1252 C567 1.202 . S
C1269 C651 1.219 . S
C1288 C812 1.285 . S
C1305 C896 1.314 . S
C1324 C735 1.238 . S
C1341 C819 1.216 . S
C1360 C980 1.294 . S
C1377 C903 1.234 . S
C1396 C560 1.311 . S
C1413 C644 1.325 . S
C1432 C987 1.261 . S
C1449 C403 1.401 . S
C1468 C72 1.349 . S
C1485 C156 1.315 . S
C1504 C487 1.395 . S
C1521 C240 1.317 . S
C1540 C67 1.397 . S
C1557 C324 1.309 . S
C1576 C151 1.426 . S
C1593 C235 1.404 . S
C1612 C408 1.332 . S
C1629 C319 1.399 . S
C1648 C492 1.357 . S
C1665 C739 1.410 . S
C1684 C576 1.278 . S
C1701 C660 1.312 . S
C1720 C823 1.406 . S
C1737 C744 1.324 . S
C1756 C907 1.367 . S
C1773 C991 1.409 . S
C1792 C828 1.302 . S
C1809 C912 1.324 . S
C1828 C571 1.370 . S
C1845 C655 1.410 . S
C1864 C996 1.292 . S
C1881 C906 1.910 . S
C1900 C66 1.879 . S
C1917 C150 1.913 . S
C1936 C990 1.882 . S
C1953 C234 1.911 . S
C1972 C570 1.907 . S
C1989 C318 1.913 . S
C2008 C654 1.890 . S
C2025 C402 1.904 . S
C2044 C738 1.907 . S
C2061 C822 1.913 . S
C2080 C486 1.882 . S
C2097 C831 2.027 . S
C2116 C75 2.022 . S
C2133 C915 2.023 . S
C2152 C159 2.039 . S
C2169 C243 2.030 . S
C2188 C999 2.008 . S
C2205 C327 2.026 . S
C2224 C579 2.030 . S
C2241 C663 2.028 . S
C2260 C411 2.017 . S
C2277 C747 2.025 . S
C2296 C495 2.031 . S
