# Generated by pormake.
# Topology whw, (6)-cn, num edge types: 1
# Building blocks:
#     Node 0, Type 0, BuildingBlock: CUKXOW_clean_sbu_0, # of connection points: 6
#     Node 1, Type 0, BuildingBlock: CUKXOW_clean_sbu_0, # of connection points: 6
#     Node 2, Type 0, BuildingBlock: CUKXOW_clean_sbu_0, # of connection points: 6
#     Node 3, Type 0, BuildingBlock: CUKXOW_clean_sbu_0, # of connection points: 6
#     Node 4, Type 0, BuildingBlock: CUKXOW_clean_sbu_0, # of connection points: 6
#     Node 5, Type 0, BuildingBlock: CUKXOW_clean_sbu_0, # of connection points: 6
#     Node 6, Type 0, BuildingBlock: CUKXOW_clean_sbu_0, # of connection points: 6
#     Node 7, Type 0, BuildingBlock: CUKXOW_clean_sbu_0, # of connection points: 6
#     Node 8, Type 0, BuildingBlock: CUKXOW_clean_sbu_0, # of connection points: 6
#     Node 9, Type 0, BuildingBlock: CUKXOW_clean_sbu_0, # of connection points: 6
#     Node 10, Type 0, BuildingBlock: CUKXOW_clean_sbu_0, # of connection points: 6
#     Node 11, Type 0, BuildingBlock: CUKXOW_clean_sbu_0, # of connection points: 6
#     Node 12, Type 0, BuildingBlock: CUKXOW_clean_sbu_0, # of connection points: 6
#     Node 13, Type 0, BuildingBlock: CUKXOW_clean_sbu_0, # of connection points: 6
#     Node 14, Type 0, BuildingBlock: CUKXOW_clean_sbu_0, # of connection points: 6
#     Node 15, Type 0, BuildingBlock: CUKXOW_clean_sbu_0, # of connection points: 6
#     Edge 16, Type (0, 0), BuildingBlock: UVAHIK_clean_linker_0, # of connection points: 2
#     Edge 17, Type (0, 0), BuildingBlock: UVAHIK_clean_linker_0, # of connection points: 2
#     Edge 18, Type (0, 0), BuildingBlock: UVAHIK_clean_linker_0, # of connection points: 2
#     Edge 19, Type (0, 0), BuildingBlock: UVAHIK_clean_linker_0, # of connection points: 2
#     Edge 20, Type (0, 0), BuildingBlock: UVAHIK_clean_linker_0, # of connection points: 2
#     Edge 21, Type (0, 0), BuildingBlock: UVAHIK_clean_linker_0, # of connection points: 2
#     Edge 22, Type (0, 0), BuildingBlock: UVAHIK_clean_linker_0, # of connection points: 2
#     Edge 23, Type (0, 0), BuildingBlock: UVAHIK_clean_linker_0, # of connection points: 2
#     Edge 24, Type (0, 0), BuildingBlock: UVAHIK_clean_linker_0, # of connection points: 2
#     Edge 25, Type (0, 0), BuildingBlock: UVAHIK_clean_linker_0, # of connection points: 2
#     Edge 26, Type (0, 0), BuildingBlock: UVAHIK_clean_linker_0, # of connection points: 2
#     Edge 27, Type (0, 0), BuildingBlock: UVAHIK_clean_linker_0, # of connection points: 2
#     Edge 28, Type (0, 0), BuildingBlock: UVAHIK_clean_linker_0, # of connection points: 2
#     Edge 29, Type (0, 0), BuildingBlock: UVAHIK_clean_linker_0, # of connection points: 2
#     Edge 30, Type (0, 0), BuildingBlock: UVAHIK_clean_linker_0, # of connection points: 2
#     Edge 31, Type (0, 0), BuildingBlock: UVAHIK_clean_linker_0, # of connection points: 2
#     Edge 32, Type (0, 0), BuildingBlock: UVAHIK_clean_linker_0, # of connection points: 2
#     Edge 33, Type (0, 0), BuildingBlock: UVAHIK_clean_linker_0, # of connection points: 2
#     Edge 34, Type (0, 0), BuildingBlock: UVAHIK_clean_linker_0, # of connection points: 2
#     Edge 35, Type (0, 0), BuildingBlock: UVAHIK_clean_linker_0, # of connection points: 2
#     Edge 36, Type (0, 0), BuildingBlock: UVAHIK_clean_linker_0, # of connection points: 2
#     Edge 37, Type (0, 0), BuildingBlock: UVAHIK_clean_linker_0, # of connection points: 2
#     Edge 38, Type (0, 0), BuildingBlock: UVAHIK_clean_linker_0, # of connection points: 2
#     Edge 39, Type (0, 0), BuildingBlock: UVAHIK_clean_linker_0, # of connection points: 2
#     Edge 40, Type (0, 0), BuildingBlock: UVAHIK_clean_linker_0, # of connection points: 2
#     Edge 41, Type (0, 0), BuildingBlock: UVAHIK_clean_linker_0, # of connection points: 2
#     Edge 42, Type (0, 0), BuildingBlock: UVAHIK_clean_linker_0, # of connection points: 2
#     Edge 43, Type (0, 0), BuildingBlock: UVAHIK_clean_linker_0, # of connection points: 2
#     Edge 44, Type (0, 0), BuildingBlock: UVAHIK_clean_linker_0, # of connection points: 2
#     Edge 45, Type (0, 0), BuildingBlock: UVAHIK_clean_linker_0, # of connection points: 2
#     Edge 46, Type (0, 0), BuildingBlock: UVAHIK_clean_linker_0, # of connection points: 2
#     Edge 47, Type (0, 0), BuildingBlock: UVAHIK_clean_linker_0, # of connection points: 2
#     Edge 48, Type (0, 0), BuildingBlock: UVAHIK_clean_linker_0, # of connection points: 2
#     Edge 49, Type (0, 0), BuildingBlock: UVAHIK_clean_linker_0, # of connection points: 2
#     Edge 50, Type (0, 0), BuildingBlock: UVAHIK_clean_linker_0, # of connection points: 2
#     Edge 51, Type (0, 0), BuildingBlock: UVAHIK_clean_linker_0, # of connection points: 2
#     Edge 52, Type (0, 0), BuildingBlock: UVAHIK_clean_linker_0, # of connection points: 2
#     Edge 53, Type (0, 0), BuildingBlock: UVAHIK_clean_linker_0, # of connection points: 2
#     Edge 54, Type (0, 0), BuildingBlock: UVAHIK_clean_linker_0, # of connection points: 2
#     Edge 55, Type (0, 0), BuildingBlock: UVAHIK_clean_linker_0, # of connection points: 2
#     Edge 56, Type (0, 0), BuildingBlock: UVAHIK_clean_linker_0, # of connection points: 2
#     Edge 57, Type (0, 0), BuildingBlock: UVAHIK_clean_linker_0, # of connection points: 2
#     Edge 58, Type (0, 0), BuildingBlock: UVAHIK_clean_linker_0, # of connection points: 2
#     Edge 59, Type (0, 0), BuildingBlock: UVAHIK_clean_linker_0, # of connection points: 2
#     Edge 60, Type (0, 0), BuildingBlock: UVAHIK_clean_linker_0, # of connection points: 2
#     Edge 61, Type (0, 0), BuildingBlock: UVAHIK_clean_linker_0, # of connection points: 2
#     Edge 62, Type (0, 0), BuildingBlock: UVAHIK_clean_linker_0, # of connection points: 2
#     Edge 63, Type (0, 0), BuildingBlock: UVAHIK_clean_linker_0, # of connection points: 2
# Relax obj value: 0.277
# Max RMSD: 0.178
# Mean RMSD: 0.171
data_MOF--net-whw--node1-CUKXOW_clean_sbu_0--edge1-UVAHIK_clean_linker_0
_symmetry_space_group_name_H-M    P1
_symmetry_Int_Tables_number       1
_symmetry_cell_setting            triclinic
loop_
_symmetry_equiv_pos_as_xyz
'x, y, z'
_cell_length_a     59.758309
_cell_length_b     60.328776
_cell_length_c     34.841354
_cell_angle_alpha  92.050484
_cell_angle_beta   89.97068
_cell_angle_gamma 90.11423
loop_
_atom_site_label
_atom_site_type_symbol
_atom_site_fract_x
_atom_site_fract_y
_atom_site_fract_z
_atom_type_partial_charge
Tb0 Tb 0.02567 0.11077 0.2102 0.0
C1 C 0.05469 0.08498 0.15107 0.0
Tb2 Tb 0.06209 0.13739 0.16816 0.0
O3 O 0.00772 0.10584 0.1554 0.0
O4 O 0.027 0.13408 0.16573 0.0
O5 O 0.04315 0.0829 0.18337 0.0
C6 C 0.077 0.16118 0.11038 0.0
O7 O 0.06109 0.1046 0.13845 0.0
C8 C 0.07903 0.12387 0.23312 0.0
C9 C 0.03849 0.15964 0.24028 0.0
O10 O 0.08203 0.14063 0.11604 0.0
O11 O 0.0645 0.16855 0.13842 0.0
O12 O 0.09039 0.13434 0.2073 0.0
O13 O 0.05999 0.1194 0.21829 0.0
O14 O 0.0515 0.16312 0.21006 0.0
O15 O 0.02745 0.14098 0.24499 0.0
C16 C 0.99481 0.09888 0.26098 0.0
O17 O 0.99174 0.11182 0.23257 0.0
O18 O 0.01536 0.09164 0.25989 0.0
C19 C 0.01553 0.1237 0.14053 0.0
Tb20 Tb 0.14343 0.72347 0.40622 0.0
C21 C 0.1838 0.73975 0.35423 0.0
Tb22 Tb 0.13623 0.76356 0.35374 0.0
O23 O 0.12074 0.70364 0.36847 0.0
O24 O 0.13988 0.72888 0.34649 0.0
O25 O 0.17753 0.72671 0.38255 0.0
C26 C 0.12469 0.78369 0.29049 0.0
O27 O 0.17019 0.75417 0.33832 0.0
C28 C 0.14239 0.77816 0.42605 0.0
C29 C 0.09853 0.74994 0.40967 0.0
O30 O 0.14316 0.78736 0.30944 0.0
O31 O 0.11259 0.76926 0.3079 0.0
O32 O 0.13924 0.7909 0.39713 0.0
O33 O 0.14354 0.75858 0.41165 0.0
O34 O 0.10277 0.75565 0.37399 0.0
O35 O 0.11303 0.73825 0.42936 0.0
C36 C 0.15265 0.69625 0.46305 0.0
O37 O 0.14216 0.69078 0.43152 0.0
O38 O 0.15856 0.71694 0.46198 0.0
C39 C 0.12484 0.71487 0.33812 0.0
Tb40 Tb 0.54066 0.85673 0.65525 0.0
C41 C 0.51531 0.89388 0.6118 0.0
Tb42 Tb 0.50036 0.84286 0.60609 0.0
O43 O 0.56011 0.86211 0.60288 0.0
O44 O 0.53529 0.83791 0.60305 0.0
O45 O 0.53069 0.88967 0.63808 0.0
C46 C 0.48073 0.83371 0.53887 0.0
O47 O 0.50197 0.87834 0.59636 0.0
C48 C 0.48892 0.8488 0.67836 0.0
C49 C 0.52124 0.80798 0.65791 0.0
O50 O 0.49711 0.84746 0.54478 0.0
O51 O 0.47482 0.82541 0.57127 0.0
O52 O 0.47593 0.83985 0.65199 0.0
O53 O 0.50518 0.85812 0.66124 0.0
O54 O 0.50999 0.81044 0.62561 0.0
O55 O 0.53291 0.82413 0.67498 0.0
C56 C 0.57063 0.86283 0.71158 0.0
O57 O 0.57316 0.85005 0.68117 0.0
O58 O 0.55127 0.8725 0.71006 0.0
C59 C 0.54902 0.84768 0.58183 0.0
Tb60 Tb 0.42339 0.29409 0.8528 0.0
C61 C 0.45112 0.30896 0.92549 0.0
Tb62 Tb 0.41887 0.26678 0.92943 0.0
O63 O 0.41011 0.32476 0.87949 0.0
O64 O 0.40363 0.29432 0.90319 0.0
O65 O 0.45046 0.30874 0.88726 0.0
C66 C 0.42767 0.24738 0.99678 0.0
O67 O 0.43905 0.29549 0.94665 0.0
C68 C 0.43698 0.24685 0.86901 0.0
C69 C 0.38196 0.26089 0.86544 0.0
O70 O 0.44158 0.25058 0.96893 0.0
O71 O 0.40821 0.25548 0.98699 0.0
O72 O 0.42564 0.23679 0.89484 0.0
O73 O 0.43884 0.26701 0.87911 0.0
O74 O 0.38605 0.25964 0.90319 0.0
O75 O 0.39584 0.27071 0.84112 0.0
C76 C 0.43488 0.30363 0.77957 0.0
O77 O 0.41666 0.30995 0.79738 0.0
O78 O 0.44649 0.29209 0.80321 0.0
C79 C 0.4018 0.31506 0.90927 0.0
Tb80 Tb 0.00365 0.87947 0.82367 0.0
C81 C 0.03953 0.90387 0.87463 0.0
Tb82 Tb 0.03453 0.8507 0.86496 0.0
O83 O 0.97621 0.87057 0.86383 0.0
O84 O 0.00878 0.87212 0.88258 0.0
O85 O 0.02312 0.90653 0.84949 0.0
C86 C 0.05875 0.82977 0.9161 0.0
O87 O 0.0465 0.88384 0.88443 0.0
C88 C 0.04159 0.84801 0.78996 0.0
C89 C 0.99309 0.83043 0.82254 0.0
O90 O 0.06673 0.84304 0.89096 0.0
O91 O 0.03721 0.82829 0.91237 0.0
O92 O 0.04484 0.83231 0.8136 0.0
O93 O 0.03625 0.86548 0.8096 0.0
O94 O 0.00519 0.82941 0.85433 0.0
O95 O 0.99507 0.84728 0.80013 0.0
C96 C 0.98088 0.90083 0.76968 0.0
O97 O 0.97379 0.89664 0.80382 0.0
O98 O 0.00147 0.89422 0.76709 0.0
C99 C 0.98928 0.8673 0.89279 0.0
Tb100 Tb 0.44046 0.69132 0.17813 0.0
C101 C 0.46664 0.67626 0.10452 0.0
Tb102 Tb 0.43414 0.71816 0.10212 0.0
O103 O 0.42665 0.66054 0.15283 0.0
O104 O 0.41906 0.69093 0.12972 0.0
O105 O 0.46731 0.67703 0.14272 0.0
C106 C 0.44078 0.73653 0.03307 0.0
O107 O 0.45336 0.68898 0.08411 0.0
C108 C 0.45432 0.73842 0.16048 0.0
C109 C 0.39907 0.72455 0.16887 0.0
O110 O 0.45592 0.73194 0.05821 0.0
O111 O 0.42134 0.73039 0.04659 0.0
O112 O 0.44241 0.74837 0.13535 0.0
O113 O 0.4556 0.7182 0.1506 0.0
O114 O 0.40205 0.72545 0.13079 0.0
O115 O 0.41374 0.71509 0.19205 0.0
C116 C 0.4516 0.68192 0.25106 0.0
O117 O 0.4336 0.6753 0.23303 0.0
O118 O 0.46333 0.69364 0.22782 0.0
C119 C 0.41716 0.67016 0.12411 0.0
Tb120 Tb 0.54208 0.14043 0.3797 0.0
C121 C 0.51746 0.10352 0.42428 0.0
Tb122 Tb 0.50276 0.15453 0.42777 0.0
O123 O 0.5619 0.1358 0.43199 0.0
O124 O 0.53754 0.16027 0.43127 0.0
O125 O 0.53282 0.1075 0.39788 0.0
C126 C 0.48038 0.16338 0.49234 0.0
O127 O 0.50421 0.11923 0.43909 0.0
C128 C 0.49084 0.14871 0.35608 0.0
C129 C 0.52341 0.18906 0.37556 0.0
O130 O 0.49854 0.15181 0.48944 0.0
O131 O 0.47462 0.17 0.45875 0.0
O132 O 0.47892 0.15904 0.38226 0.0
O133 O 0.50646 0.13805 0.37267 0.0
O134 O 0.51267 0.18695 0.40846 0.0
O135 O 0.53416 0.17249 0.35815 0.0
C136 C 0.57164 0.13449 0.32244 0.0
O137 O 0.55242 0.12458 0.32477 0.0
O138 O 0.57437 0.14726 0.35278 0.0
C139 C 0.55135 0.15078 0.45265 0.0
Tb140 Tb 0.13675 0.28285 0.62574 0.0
C141 C 0.16775 0.25467 0.6793 0.0
Tb142 Tb 0.11486 0.24602 0.67222 0.0
O143 O 0.11911 0.30741 0.66421 0.0
O144 O 0.129 0.27725 0.68384 0.0
O145 O 0.16686 0.26961 0.65206 0.0
C146 C 0.09228 0.23081 0.73141 0.0
O147 O 0.14963 0.2445 0.69271 0.0
C148 C 0.12299 0.22931 0.60286 0.0
C149 C 0.08712 0.2703 0.6083 0.0
O150 O 0.10801 0.2201 0.71279 0.0
O151 O 0.08914 0.24995 0.71641 0.0
O152 O 0.11482 0.21813 0.63092 0.0
O153 O 0.12731 0.24892 0.61567 0.0
O154 O 0.08611 0.26014 0.64163 0.0
O155 O 0.10604 0.27817 0.59487 0.0
C156 C 0.15624 0.30825 0.57374 0.0
O157 O 0.14332 0.31517 0.60155 0.0
O158 O 0.15901 0.28701 0.57637 0.0
C159 C 0.11851 0.29452 0.69321 0.0
Tb160 Tb 0.94845 0.19492 0.67996 0.0
C161 C 0.97579 0.18486 0.60542 0.0
Tb162 Tb 0.94009 0.22427 0.60788 0.0
O163 O 0.9373 0.16412 0.65081 0.0
O164 O 0.92719 0.19476 0.63146 0.0
O165 O 0.97632 0.18393 0.64346 0.0
C166 C 0.94629 0.24587 0.54185 0.0
O167 O 0.96167 0.19751 0.58659 0.0
C168 C 0.95813 0.24381 0.6689 0.0
C169 C 0.90442 0.2252 0.67417 0.0
O170 O 0.96097 0.24279 0.5685 0.0
O171 O 0.92751 0.23648 0.55217 0.0
O172 O 0.94525 0.25366 0.64505 0.0
O173 O 0.96141 0.22418 0.65661 0.0
O174 O 0.90745 0.22805 0.6365 0.0
O175 O 0.91977 0.21587 0.69631 0.0
C176 C 0.96084 0.18355 0.75113 0.0
O177 O 0.97196 0.19621 0.72858 0.0
O178 O 0.94268 0.17707 0.73341 0.0
C179 C 0.92705 0.17414 0.6233 0.0
Tb180 Tb 0.63551 0.78258 0.12191 0.0
C181 C 0.67016 0.75987 0.17675 0.0
Tb182 Tb 0.61964 0.74279 0.16737 0.0
O183 O 0.61424 0.80475 0.15829 0.0
O184 O 0.6273 0.77623 0.17999 0.0
O185 O 0.66702 0.77522 0.15075 0.0
C186 C 0.60209 0.72102 0.22478 0.0
O187 O 0.65398 0.74642 0.18817 0.0
C188 C 0.63037 0.72769 0.09817 0.0
C189 C 0.58839 0.76214 0.10404 0.0
O190 O 0.61993 0.71512 0.2058 0.0
O191 O 0.59407 0.73912 0.21126 0.0
O192 O 0.62378 0.71542 0.12588 0.0
O193 O 0.63172 0.74766 0.11115 0.0
O194 O 0.58893 0.75258 0.13786 0.0
O195 O 0.60587 0.77275 0.09048 0.0
C196 C 0.65136 0.80984 0.06928 0.0
O197 O 0.6369 0.81499 0.09585 0.0
O198 O 0.65763 0.78947 0.07344 0.0
C199 C 0.61375 0.79174 0.18713 0.0
Tb200 Tb 0.64521 0.22606 0.90668 0.0
C201 C 0.68679 0.23913 0.85439 0.0
Tb202 Tb 0.64116 0.26615 0.85463 0.0
O203 O 0.62116 0.20784 0.86901 0.0
O204 O 0.64227 0.23128 0.84659 0.0
O205 O 0.67944 0.22643 0.88246 0.0
C206 C 0.63059 0.28857 0.79355 0.0
O207 O 0.67434 0.25462 0.83878 0.0
C208 C 0.64856 0.28092 0.9264 0.0
C209 C 0.60288 0.25637 0.91207 0.0
O210 O 0.64888 0.29138 0.81331 0.0
O211 O 0.61835 0.27323 0.80823 0.0
O212 O 0.6468 0.29343 0.89694 0.0
O213 O 0.64789 0.26108 0.91298 0.0
O214 O 0.60726 0.26188 0.87633 0.0
O215 O 0.61671 0.24369 0.93123 0.0
C216 C 0.65222 0.19824 0.96366 0.0
O217 O 0.63859 0.19492 0.93507 0.0
O218 O 0.66249 0.21699 0.95946 0.0
C219 C 0.62615 0.21848 0.83841 0.0
Tb220 Tb 0.92056 0.79776 0.3581 0.0
C221 C 0.94987 0.81356 0.42853 0.0
Tb222 Tb 0.91762 0.77187 0.43615 0.0
O223 O 0.90719 0.82883 0.38331 0.0
O224 O 0.90196 0.79918 0.40985 0.0
O225 O 0.94843 0.81265 0.39037 0.0
C226 C 0.92556 0.75434 0.50546 0.0
O227 O 0.93809 0.80066 0.45108 0.0
C228 C 0.93465 0.7504 0.37594 0.0
C229 C 0.88014 0.76461 0.37418 0.0
O230 O 0.94016 0.7582 0.47893 0.0
O231 O 0.90597 0.76076 0.49319 0.0
O232 O 0.92428 0.74101 0.40364 0.0
O233 O 0.93657 0.77081 0.38428 0.0
O234 O 0.88435 0.76504 0.41195 0.0
O235 O 0.89412 0.77291 0.34843 0.0
C236 C 0.9298 0.80773 0.28421 0.0
O237 O 0.91005 0.80771 0.30006 0.0
O238 O 0.94418 0.80222 0.31013 0.0
C239 C 0.90003 0.81997 0.41466 0.0
Tb240 Tb 0.51957 0.61612 0.71337 0.0
C241 C 0.54389 0.58874 0.65048 0.0
Tb242 Tb 0.55467 0.64021 0.66928 0.0
O243 O 0.49958 0.61202 0.66066 0.0
O244 O 0.51951 0.63994 0.66931 0.0
O245 O 0.53316 0.58711 0.68361 0.0
C246 C 0.57348 0.6607 0.61127 0.0
O247 O 0.55132 0.60804 0.63819 0.0
C248 C 0.57134 0.62836 0.73426 0.0
C249 C 0.53504 0.66351 0.74352 0.0
O250 O 0.58009 0.64193 0.62434 0.0
O251 O 0.55673 0.66806 0.63151 0.0
O252 O 0.5805 0.64265 0.71202 0.0
O253 O 0.55554 0.61821 0.7159 0.0
O254 O 0.54527 0.667 0.71038 0.0
O255 O 0.52539 0.64454 0.75081 0.0
C256 C 0.48857 0.60491 0.76435 0.0
O257 O 0.4868 0.62024 0.73953 0.0
O258 O 0.50791 0.59517 0.75999 0.0
C259 C 0.50689 0.62989 0.64532 0.0
Tb260 Tb 0.05133 0.3612 0.16268 0.0
C261 C 0.02657 0.39487 0.11224 0.0
Tb262 Tb 0.0097 0.34459 0.11596 0.0
O263 O 0.07021 0.36546 0.10934 0.0
O264 O 0.04504 0.34176 0.11131 0.0
O265 O 0.03905 0.39276 0.14346 0.0
C266 C 0.98924 0.32414 0.05678 0.0
O267 O 0.01586 0.37791 0.09488 0.0
C268 C 0.99757 0.35644 0.18713 0.0
C269 C 0.02972 0.31401 0.1783 0.0
O270 O 0.98553 0.34454 0.06844 0.0
O271 O 0.00383 0.31539 0.07908 0.0
O272 O 0.98375 0.34953 0.16019 0.0
O273 O 0.01628 0.35885 0.17037 0.0
O274 O 0.0152 0.31542 0.14971 0.0
O275 O 0.04474 0.32946 0.18742 0.0
C276 C 0.08222 0.3689 0.21681 0.0
O277 O 0.08409 0.35503 0.18764 0.0
O278 O 0.06299 0.37893 0.21511 0.0
C279 C 0.05848 0.3512 0.08901 0.0
Tb280 Tb 0.51182 0.37421 0.31986 0.0
C281 C 0.53809 0.40415 0.3762 0.0
Tb282 Tb 0.54873 0.35272 0.3587 0.0
O283 O 0.49405 0.37917 0.37468 0.0
O284 O 0.51369 0.35117 0.36557 0.0
O285 O 0.52526 0.4046 0.34528 0.0
C286 C 0.57353 0.3361 0.41393 0.0
O287 O 0.54684 0.38541 0.3881 0.0
C288 C 0.56159 0.36204 0.2901 0.0
C289 C 0.52674 0.3269 0.28988 0.0
O290 O 0.57916 0.35272 0.39341 0.0
O291 O 0.55414 0.32869 0.40287 0.0
O292 O 0.57077 0.34725 0.31107 0.0
O293 O 0.54771 0.37395 0.31021 0.0
O294 O 0.5381 0.32436 0.32216 0.0
O295 O 0.51661 0.34555 0.28256 0.0
C296 C 0.47894 0.38348 0.2708 0.0
O297 O 0.47859 0.36824 0.29597 0.0
O298 O 0.49776 0.3943 0.27406 0.0
C299 C 0.502 0.36172 0.39043 0.0
Tb300 Tb 0.03683 0.64528 0.8772 0.0
C301 C 0.02107 0.60401 0.92533 0.0
Tb302 Tb 0.99443 0.64965 0.93412 0.0
O303 O 0.06244 0.65333 0.92208 0.0
O304 O 0.02932 0.65294 0.93491 0.0
O305 O 0.03367 0.6111 0.89645 0.0
C306 C 0.97172 0.66182 0.99708 0.0
O307 O 0.00643 0.6165 0.94515 0.0
C308 C 0.98283 0.64497 0.86004 0.0
C309 C 0.00814 0.68841 0.88581 0.0
O310 O 0.97411 0.64138 0.98443 0.0
O311 O 0.98178 0.67493 0.97412 0.0
O312 O 0.96885 0.64889 0.88825 0.0
O313 O 0.00134 0.64091 0.87615 0.0
O314 O 0.0055 0.6828 0.92176 0.0
O315 O 0.02024 0.67584 0.86178 0.0
C316 C 0.06327 0.64161 0.81582 0.0
O317 O 0.0629 0.65826 0.84048 0.0
O318 O 0.04866 0.6268 0.8257 0.0
C319 C 0.04816 0.65626 0.94997 0.0
C320 C 0.06882 0.19253 0.06792 0.0
C321 C 0.07819 0.17148 0.07283 0.0
C322 C 0.06574 0.20044 0.03108 0.0
C323 C 0.05883 0.18026 0.93104 0.0
H324 H 0.07863 0.23893 0.90406 0.0
C325 C 0.08602 0.20243 0.78026 0.0
C326 C 0.08212 0.22383 0.76744 0.0
C327 C 0.07922 0.19672 0.8169 0.0
C328 C 0.0725 0.22269 0.91128 0.0
H329 H 0.09239 0.14252 0.04348 0.0
H330 H 0.08728 0.15643 0.97921 0.0
H331 H 0.08042 0.22817 0.97081 0.0
H332 H 0.06708 0.25576 0.78167 0.0
H333 H 0.05531 0.2458 0.84614 0.0
H334 H 0.05164 0.1745 0.8713 0.0
C335 C 0.08202 0.16668 1.00373 0.0
C336 C 0.07363 0.21651 0.94948 0.0
C337 C 0.08528 0.15887 0.0405 0.0
C338 C 0.07027 0.23911 0.79099 0.0
C339 C 0.06363 0.23347 0.82786 0.0
C340 C 0.05768 0.18643 0.89288 0.0
C341 C 0.07178 0.18731 0.99864 0.0
C342 C 0.06759 0.19496 0.95942 0.0
C343 C 0.06857 0.21239 0.8415 0.0
C344 C 0.06527 0.20743 0.88243 0.0
H345 H 0.06299 0.20245 0.09244 0.0
H346 H 0.05785 0.21642 0.02793 0.0
H347 H 0.05347 0.16374 0.93819 0.0
H348 H 0.09511 0.19037 0.76256 0.0
H349 H 0.0835 0.18044 0.82676 0.0
C350 C 0.13665 0.80227 0.2311 0.0
C351 C 0.12059 0.79016 0.251 0.0
C352 C 0.13424 0.80523 0.19173 0.0
C353 C 0.10629 0.77986 0.10695 0.0
H354 H 0.1131 0.83761 0.06295 0.0
C355 C 0.06089 0.80596 0.97241 0.0
C356 C 0.07151 0.82033 0.94743 0.0
C357 C 0.07178 0.79941 1.00543 0.0
C358 C 0.11167 0.82126 0.07461 0.0
H359 H 0.08912 0.77231 0.24621 0.0
H360 H 0.08471 0.77779 0.17781 0.0
H361 H 0.12228 0.83298 0.1304 0.0
H362 H 0.1021 0.83824 0.93576 0.0
H363 H 0.12119 0.82687 0.99403 0.0
H364 H 0.0948 0.76836 0.0516 0.0
C365 C 0.09935 0.78464 0.19226 0.0
C366 C 0.11684 0.81865 0.11322 0.0
C367 C 0.10171 0.78178 0.23148 0.0
C368 C 0.0936 0.82715 0.95476 0.0
C369 C 0.10446 0.82074 0.98804 0.0
C370 C 0.10111 0.78248 0.06841 0.0
C371 C 0.11581 0.79599 0.17187 0.0
C372 C 0.11345 0.79811 0.13 0.0
C373 C 0.09341 0.80725 1.01411 0.0
C374 C 0.10306 0.80337 0.05225 0.0
H375 H 0.15144 0.80873 0.24561 0.0
H376 H 0.14713 0.81407 0.17663 0.0
H377 H 0.10406 0.7637 0.11904 0.0
H378 H 0.04384 0.80049 0.96726 0.0
H379 H 0.06274 0.78923 0.02524 0.0
C380 C 0.47548 0.74069 0.22223 0.0
C381 C 0.4575 0.74744 0.1997 0.0
C382 C 0.4776 0.74876 0.26017 0.0
C383 C 0.44469 0.77469 0.33937 0.0
H384 H 0.50233 0.79542 0.37712 0.0
C385 C 0.4844 0.83391 0.46815 0.0
C386 C 0.47423 0.82511 0.50057 0.0
C387 C 0.48154 0.82363 0.43209 0.0
C388 C 0.48611 0.78978 0.36688 0.0
H389 H 0.42799 0.76823 0.19813 0.0
H390 H 0.43181 0.78254 0.26398 0.0
H391 H 0.49952 0.77839 0.31277 0.0
H392 H 0.45243 0.79931 0.52089 0.0
H393 H 0.44724 0.78128 0.45742 0.0
H394 H 0.43118 0.78667 0.39307 0.0
C395 C 0.44402 0.7707 0.2529 0.0
C396 C 0.48456 0.77978 0.33026 0.0
C397 C 0.44199 0.76273 0.21509 0.0
C398 C 0.46029 0.80646 0.49619 0.0
C399 C 0.45739 0.79615 0.45996 0.0
C400 C 0.44624 0.78466 0.37601 0.0
C401 C 0.46174 0.76368 0.27593 0.0
C402 C 0.46377 0.77248 0.31592 0.0
C403 C 0.46845 0.80435 0.42776 0.0
C404 C 0.4669 0.79264 0.38984 0.0
H405 H 0.48782 0.72917 0.21052 0.0
H406 H 0.49146 0.74312 0.27729 0.0
H407 H 0.4285 0.76891 0.3292 0.0
H408 H 0.49527 0.84827 0.47083 0.0
H409 H 0.48989 0.83057 0.40765 0.0
C410 C 0.42235 0.22354 0.81484 0.0
C411 C 0.43877 0.23818 0.82943 0.0
C412 C 0.42324 0.21583 0.77678 0.0
C413 C 0.44739 0.22751 0.68285 0.0
H414 H 0.43982 0.16424 0.66279 0.0
C415 C 0.45409 0.18725 0.53072 0.0
C416 C 0.46982 0.17002 0.52881 0.0
C417 C 0.44631 0.19531 0.56633 0.0
C418 C 0.44178 0.18195 0.66799 0.0
H419 H 0.46943 0.25561 0.81695 0.0
H420 H 0.47119 0.24194 0.74988 0.0
H421 H 0.43493 0.17967 0.72789 0.0
H422 H 0.48909 0.14697 0.56174 0.0
H423 H 0.47534 0.16084 0.62384 0.0
H424 H 0.45505 0.22959 0.62307 0.0
C425 C 0.4573 0.23695 0.76762 0.0
C426 C 0.43888 0.19079 0.7051 0.0
C427 C 0.45638 0.24468 0.80581 0.0
C428 C 0.47691 0.16026 0.5626 0.0
C429 C 0.46897 0.16812 0.59805 0.0
C430 C 0.45017 0.21867 0.64563 0.0
C431 C 0.44071 0.22248 0.75282 0.0
C432 C 0.4421 0.21356 0.71297 0.0
C433 C 0.45397 0.18599 0.60025 0.0
C434 C 0.44785 0.19575 0.63813 0.0
H435 H 0.40855 0.21839 0.83264 0.0
H436 H 0.41018 0.2048 0.76599 0.0
H437 H 0.4497 0.24517 0.6882 0.0
H438 H 0.44847 0.19502 0.50489 0.0
H439 H 0.43466 0.20906 0.56745 0.0
C440 C 0.9577 0.81434 0.23125 0.0
C441 C 0.93529 0.81326 0.24357 0.0
C442 C 0.9631 0.81986 0.19341 0.0
C443 C 0.93964 0.82269 0.0939 0.0
H444 H 0.99032 0.86135 0.07748 0.0
C445 C 0.96013 0.85642 0.94184 0.0
C446 C 0.9826 0.86057 0.93229 0.0
C447 C 0.95407 0.85046 0.97928 0.0
C448 C 0.97631 0.85022 0.08111 0.0
H449 H 0.90098 0.81689 0.22507 0.0
H450 H 0.9103 0.82637 0.15904 0.0
H451 H 0.98056 0.85121 0.14232 0.0
H452 H 0.01631 0.86147 0.955 0.0
H453 H 0.00608 0.85044 0.01924 0.0
H454 H 0.93554 0.82142 0.03266 0.0
C455 C 0.9238 0.82292 0.17865 0.0
C456 C 0.97063 0.84442 0.11869 0.0
C457 C 0.91841 0.81759 0.21669 0.0
C458 C 0.99883 0.85839 0.96116 0.0
C459 C 0.99285 0.85227 0.99841 0.0
C460 C 0.94543 0.82834 0.0562 0.0
C461 C 0.94627 0.82431 0.16636 0.0
C462 C 0.95221 0.83054 0.12586 0.0
C463 C 0.97031 0.84832 1.00844 0.0
C464 C 0.96392 0.84223 0.04897 0.0
H465 H 0.97117 0.811 0.251 0.0
H466 H 0.98057 0.82039 0.18523 0.0
H467 H 0.92551 0.81175 0.09789 0.0
H468 H 0.94715 0.85796 0.92042 0.0
H469 H 0.93652 0.84793 0.98542 0.0
C470 C 0.98566 0.18895 0.80912 0.0
C471 C 0.96777 0.17775 0.79059 0.0
C472 C 0.99217 0.1836 0.84643 0.0
C473 C 0.99074 0.13835 0.91489 0.0
H474 H 0.99877 0.18455 0.99379 0.0
C475 C 0.99982 0.11617 0.07449 0.0
C476 C 0.0116 0.13034 0.10022 0.0
C477 C 0.99579 0.12219 0.03658 0.0
C478 C 0.99707 0.17132 0.9722 0.0
H479 H 0.94281 0.15208 0.7967 0.0
H480 H 0.95444 0.14239 0.86141 0.0
H481 H 0.98992 0.19446 0.92835 0.0
H482 H 0.0276 0.16239 0.10633 0.0
H483 H 0.0223 0.17229 0.03979 0.0
H484 H 0.9986 0.11517 0.95775 0.0
C485 C 0.96339 0.15539 0.84716 0.0
C486 C 0.99183 0.1771 0.9345 0.0
C487 C 0.95665 0.161 0.81014 0.0
C488 C 0.01917 0.15077 0.08702 0.0
C489 C 0.01562 0.15663 0.04879 0.0
C490 C 0.9964 0.13257 0.9523 0.0
C491 C 0.9812 0.16665 0.86588 0.0
C492 C 0.98818 0.16066 0.90551 0.0
C493 C 0.00376 0.14248 0.02279 0.0
C494 C 0.99922 0.1489 0.98197 0.0
H495 H 0.99459 0.20194 0.79483 0.0
H496 H 0.00603 0.19252 0.85984 0.0
H497 H 0.9885 0.12527 0.8931 0.0
H498 H 0.99349 0.10039 0.08376 0.0
H499 H 0.98604 0.11095 0.01839 0.0
C500 C 0.59902 0.19873 0.79318 0.0
C501 C 0.61724 0.21331 0.79886 0.0
C502 C 0.59113 0.19313 0.756 0.0
C503 C 0.60902 0.19034 0.6535 0.0
H504 H 0.54562 0.184 0.63203 0.0
C505 C 0.57616 0.1486 0.51095 0.0
C506 C 0.55785 0.15834 0.49261 0.0
C507 C 0.58289 0.15588 0.54799 0.0
C508 C 0.56339 0.18578 0.63738 0.0
H509 H 0.64125 0.23362 0.76948 0.0
H510 H 0.62766 0.22378 0.70472 0.0
H511 H 0.55809 0.19602 0.69642 0.0
H512 H 0.53215 0.18342 0.49946 0.0
H513 H 0.54355 0.19583 0.56441 0.0
H514 H 0.61436 0.17998 0.59462 0.0
C515 C 0.61947 0.21654 0.72903 0.0
C516 C 0.57058 0.19252 0.67454 0.0
C517 C 0.62721 0.22231 0.76626 0.0
C518 C 0.54625 0.17543 0.51269 0.0
C519 C 0.55279 0.18253 0.55006 0.0
C520 C 0.60185 0.18333 0.61653 0.0
C521 C 0.60136 0.20174 0.72321 0.0
C522 C 0.59354 0.19492 0.68326 0.0
C523 C 0.57137 0.173 0.56822 0.0
C524 C 0.57891 0.18088 0.60779 0.0
H525 H 0.59093 0.19147 0.81757 0.0
H526 H 0.57731 0.18157 0.75292 0.0
H527 H 0.62681 0.19176 0.65892 0.0
H528 H 0.58549 0.13537 0.49651 0.0
H529 H 0.59706 0.14787 0.56097 0.0
C530 C 0.5707 0.85349 0.52118 0.0
C531 C 0.55395 0.84192 0.54058 0.0
C532 C 0.57588 0.84816 0.48265 0.0
C533 C 0.56887 0.80357 0.40528 0.0
H534 H 0.58996 0.84998 0.34008 0.0
C535 C 0.58608 0.78853 0.24112 0.0
C536 C 0.60553 0.79816 0.22629 0.0
C537 C 0.57892 0.79378 0.27883 0.0
C538 C 0.5843 0.83673 0.3579 0.0
H539 H 0.52956 0.81546 0.53436 0.0
H540 H 0.53787 0.80669 0.46672 0.0
H541 H 0.57857 0.85923 0.40574 0.0
H542 H 0.63245 0.82125 0.2389 0.0
H543 H 0.6199 0.83076 0.30446 0.0
H544 H 0.57435 0.78116 0.35687 0.0
C545 C 0.54744 0.81965 0.48145 0.0
C546 C 0.57778 0.84203 0.39587 0.0
C547 C 0.54245 0.82483 0.52027 0.0
C548 C 0.61738 0.81359 0.2496 0.0
C549 C 0.61012 0.81904 0.28716 0.0
C550 C 0.57521 0.7983 0.36711 0.0
C551 C 0.56434 0.83119 0.46192 0.0
C552 C 0.57021 0.82553 0.42051 0.0
C553 C 0.59084 0.80911 0.30252 0.0
C554 C 0.58328 0.81477 0.34293 0.0
H555 H 0.58002 0.86663 0.53594 0.0
H556 H 0.58931 0.85721 0.46939 0.0
H557 H 0.56345 0.79023 0.42309 0.0
H558 H 0.57626 0.77706 0.22346 0.0
H559 H 0.56382 0.78604 0.28923 0.0
C560 C 0.60552 0.6922 0.27328 0.0
C561 C 0.59488 0.71126 0.26057 0.0
C562 C 0.60178 0.68518 0.31037 0.0
C563 C 0.56597 0.6925 0.39614 0.0
H564 H 0.62126 0.68112 0.45044 0.0
C565 C 0.56819 0.68742 0.55976 0.0
C566 C 0.57965 0.66916 0.57387 0.0
C567 C 0.57062 0.69295 0.52153 0.0
C568 C 0.60568 0.68406 0.43558 0.0
H569 H 0.57095 0.7372 0.27511 0.0
H570 H 0.56457 0.72507 0.34028 0.0
H571 H 0.62232 0.68783 0.38198 0.0
H572 H 0.60345 0.64301 0.56021 0.0
H573 H 0.6078 0.65268 0.4932 0.0
H574 H 0.54939 0.68901 0.44993 0.0
C575 C 0.57563 0.71543 0.32159 0.0
C576 C 0.60626 0.68778 0.39639 0.0
C577 C 0.57931 0.7224 0.28439 0.0
C578 C 0.59456 0.65726 0.54993 0.0
C579 C 0.59701 0.66279 0.51165 0.0
C580 C 0.56541 0.68881 0.43539 0.0
C581 C 0.58744 0.69721 0.33529 0.0
C582 C 0.58642 0.69205 0.37632 0.0
C583 C 0.58457 0.6803 0.49687 0.0
C584 C 0.58527 0.68461 0.45546 0.0
H585 H 0.61748 0.68329 0.25519 0.0
H586 H 0.61074 0.67081 0.32003 0.0
H587 H 0.55043 0.69561 0.38128 0.0
H588 H 0.55655 0.69682 0.57776 0.0
H589 H 0.56116 0.70678 0.51102 0.0
C590 C 0.64086 0.31368 0.74114 0.0
C591 C 0.6254 0.29934 0.75772 0.0
C592 C 0.63672 0.32192 0.7049 0.0
C593 C 0.59206 0.32833 0.63279 0.0
H594 H 0.6398 0.31945 0.55823 0.0
C595 C 0.57347 0.3159 0.47436 0.0
C596 C 0.58428 0.33048 0.44999 0.0
C597 C 0.58077 0.31404 0.51198 0.0
C598 C 0.62647 0.32226 0.57891 0.0
H599 H 0.59329 0.28293 0.75077 0.0
H600 H 0.58613 0.29708 0.68759 0.0
H601 H 0.64752 0.31517 0.62656 0.0
H602 H 0.61206 0.35332 0.44434 0.0
H603 H 0.62517 0.34967 0.51049 0.0
H604 H 0.57079 0.33439 0.58504 0.0
C605 C 0.60127 0.30226 0.70248 0.0
C606 C 0.63087 0.31997 0.61791 0.0
C607 C 0.60542 0.29403 0.73852 0.0
C608 C 0.6035 0.34195 0.46277 0.0
C609 C 0.61095 0.33993 0.50045 0.0
C610 C 0.58765 0.33041 0.59393 0.0
C611 C 0.61704 0.31597 0.68502 0.0
C612 C 0.61351 0.32232 0.64501 0.0
C613 C 0.59908 0.3266 0.52561 0.0
C614 C 0.60465 0.32673 0.56668 0.0
H615 H 0.65639 0.31798 0.75562 0.0
H616 H 0.64906 0.33258 0.69212 0.0
H617 H 0.57851 0.33067 0.65318 0.0
H618 H 0.55862 0.30687 0.46508 0.0
H619 H 0.57164 0.30335 0.53086 0.0
C620 C 0.96782 0.32488 0.99514 0.0
C621 C 0.98248 0.31399 0.0196 0.0
C622 C 0.9641 0.3164 0.95778 0.0
C623 C 0.99237 0.28486 0.88179 0.0
H624 H 0.93349 0.27576 0.83735 0.0
C625 C 0.97983 0.24453 0.73028 0.0
C626 C 0.96195 0.2522 0.70846 0.0
C627 C 0.98231 0.25169 0.76866 0.0
C628 C 0.95007 0.27853 0.84908 0.0
H629 H 0.00422 0.28549 0.02492 0.0
H630 H 0.99793 0.27095 0.95966 0.0
H631 H 0.93693 0.28913 0.90399 0.0
H632 H 0.93346 0.27436 0.70839 0.0
H633 H 0.93828 0.28764 0.77452 0.0
H634 H 0.00565 0.27498 0.82688 0.0
C635 C 0.98933 0.28594 0.96929 0.0
C636 C 0.95198 0.28608 0.88728 0.0
C637 C 0.99276 0.29418 1.00666 0.0
C638 C 0.94726 0.26797 0.72483 0.0
C639 C 0.94986 0.27535 0.76291 0.0
C640 C 0.99049 0.27763 0.84343 0.0
C641 C 0.97528 0.29716 0.94434 0.0
C642 C 0.97313 0.28925 0.90393 0.0
C643 C 0.96718 0.26703 0.78556 0.0
C644 C 0.9693 0.2744 0.82656 0.0
H645 H 0.95981 0.34024 1.00446 0.0
H646 H 0.95321 0.32534 0.9389 0.0
H647 H 0.00889 0.28744 0.89399 0.0
H648 H 0.99183 0.23297 0.71769 0.0
H649 H 0.99587 0.24493 0.78517 0.0
C650 C 0.95053 0.7498 0.30956 0.0
C651 C 0.93752 0.73982 0.3376 0.0
C652 C 0.95167 0.74038 0.2724 0.0
C653 C 0.94847 0.68882 0.21719 0.0
H654 H 0.93139 0.72477 0.13199 0.0
C655 C 0.9535 0.65457 0.06035 0.0
C656 C 0.96235 0.66942 0.03424 0.0
C657 C 0.94699 0.66223 0.09713 0.0
C658 C 0.93643 0.71454 0.15538 0.0
H659 H 0.91654 0.71152 0.34982 0.0
H660 H 0.91928 0.69459 0.28521 0.0
H661 H 0.92888 0.74021 0.19746 0.0
H662 H 0.97088 0.70382 0.02536 0.0
H663 H 0.96039 0.71694 0.0891 0.0
H664 H 0.9572 0.66354 0.17534 0.0
C665 C 0.92811 0.70997 0.29173 0.0
C666 C 0.93492 0.7234 0.19279 0.0
C667 C 0.9266 0.71965 0.32859 0.0
C668 C 0.96399 0.692 0.04489 0.0
C669 C 0.95777 0.69957 0.08148 0.0
C670 C 0.95043 0.68007 0.17968 0.0
C671 C 0.94035 0.72046 0.26323 0.0
C672 C 0.94119 0.71071 0.22389 0.0
C673 C 0.94943 0.6848 0.1083 0.0
C674 C 0.94479 0.69297 0.14826 0.0
H675 H 0.95995 0.76472 0.31645 0.0
H676 H 0.96156 0.7485 0.25092 0.0
H677 H 0.95339 0.67877 0.24092 0.0
H678 H 0.9521 0.63706 0.0527 0.0
H679 H 0.94036 0.65044 0.11693 0.0
C680 C 0.50365 0.33486 0.44556 0.0
C681 C 0.49577 0.35462 0.43006 0.0
C682 C 0.49771 0.32892 0.48314 0.0
C683 C 0.47114 0.35267 0.5752 0.0
H684 H 0.46774 0.29098 0.60193 0.0
C685 C 0.43047 0.32508 0.71869 0.0
C686 C 0.44161 0.30875 0.73926 0.0
C687 C 0.43731 0.33027 0.68129 0.0
C688 C 0.46872 0.30833 0.59512 0.0
H689 H 0.47483 0.38326 0.44223 0.0
H690 H 0.46374 0.37269 0.50602 0.0
H691 H 0.47906 0.30051 0.53723 0.0
H692 H 0.4685 0.28477 0.73585 0.0
H693 H 0.48007 0.29337 0.67053 0.0
H694 H 0.46023 0.36037 0.6329 0.0
C695 C 0.47525 0.36197 0.49024 0.0
C696 C 0.47538 0.31389 0.55776 0.0
C697 C 0.48146 0.368 0.45308 0.0
C698 C 0.45952 0.29746 0.72099 0.0
C699 C 0.46612 0.30236 0.68334 0.0
C700 C 0.46419 0.3471 0.61228 0.0
C701 C 0.48335 0.34239 0.50638 0.0
C702 C 0.47667 0.33621 0.54686 0.0
C703 C 0.45528 0.31901 0.6629 0.0
C704 C 0.4628 0.32484 0.62297 0.0
H705 H 0.51438 0.32389 0.42866 0.0
H706 H 0.50466 0.31383 0.49399 0.0
H707 H 0.47241 0.37008 0.56909 0.0
H708 H 0.4166 0.3341 0.73172 0.0
H709 H 0.42833 0.34301 0.66657 0.0
C710 C 0.4895 0.62192 0.58063 0.0
C711 C 0.50173 0.63643 0.60525 0.0
C712 C 0.48438 0.62762 0.54292 0.0
C713 C 0.50225 0.66189 0.46306 0.0
H714 H 0.44128 0.65416 0.42717 0.0
C715 C 0.47511 0.68884 0.31045 0.0
C716 C 0.45765 0.67722 0.29155 0.0
C717 C 0.48063 0.68462 0.34877 0.0
C718 C 0.45853 0.65609 0.43613 0.0
H719 H 0.51733 0.66881 0.60948 0.0
H720 H 0.50958 0.67828 0.54287 0.0
H721 H 0.45086 0.64519 0.49264 0.0
H722 H 0.43257 0.65174 0.29802 0.0
H723 H 0.44265 0.6436 0.36375 0.0
H724 H 0.51026 0.67201 0.40635 0.0
C725 C 0.50399 0.6624 0.5529 0.0
C726 C 0.46397 0.65106 0.47405 0.0
C727 C 0.50866 0.65689 0.59102 0.0
C728 C 0.44601 0.66111 0.31179 0.0
C729 C 0.45174 0.65661 0.34986 0.0
C730 C 0.49692 0.66658 0.42482 0.0
C731 C 0.49162 0.64789 0.5284 0.0
C732 C 0.48589 0.65384 0.48808 0.0
C733 C 0.46907 0.66837 0.36929 0.0
C734 C 0.47493 0.66369 0.41051 0.0
H735 H 0.48383 0.60604 0.59053 0.0
H736 H 0.47495 0.61597 0.52488 0.0
H737 H 0.51935 0.664 0.4728 0.0
H738 H 0.48437 0.70144 0.29575 0.0
H739 H 0.4938 0.69441 0.36236 0.0
C740 C 0.12212 0.72259 0.26749 0.0
C741 C 0.11539 0.7102 0.29891 0.0
C742 C 0.1134 0.71804 0.23056 0.0
C743 C 0.06826 0.68518 0.17706 0.0
H744 H 0.10627 0.69632 0.08981 0.0
C745 C 0.03789 0.66883 0.01823 0.0
C746 C 0.054 0.66224 0.99074 0.0
C747 C 0.04431 0.67536 0.05596 0.0
C748 C 0.0954 0.69275 0.11369 0.0
H749 H 0.09443 0.68293 0.31577 0.0
H750 H 0.08009 0.67417 0.25149 0.0
H751 H 0.11948 0.70564 0.15394 0.0
H752 H 0.08943 0.65673 0.98181 0.0
H753 H 0.1005 0.66708 0.04699 0.0
H754 H 0.04463 0.67124 0.13657 0.0
C755 C 0.09145 0.68807 0.25525 0.0
C756 C 0.1029 0.69857 0.15089 0.0
C757 C 0.09986 0.69294 0.29231 0.0
C758 C 0.07656 0.66189 1.0021 0.0
C759 C 0.08295 0.66811 0.03966 0.0
C760 C 0.06085 0.67909 0.13976 0.0
C761 C 0.09806 0.70049 0.22355 0.0
C762 C 0.08957 0.69481 0.18343 0.0
C763 C 0.06704 0.67528 0.06729 0.0
C764 C 0.07438 0.68257 0.10735 0.0
H765 H 0.13429 0.73581 0.27134 0.0
H766 H 0.11874 0.72842 0.20758 0.0
H767 H 0.05713 0.68231 0.20088 0.0
H768 H 0.02039 0.66932 1.01045 0.0
H769 H 0.03143 0.68089 0.07594 0.0
C770 C 0.09634 0.31837 0.74102 0.0
C771 C 0.1104 0.30012 0.73295 0.0
C772 C 0.08919 0.32343 0.77889 0.0
C773 C 0.10645 0.31807 0.87919 0.0
H774 H 0.04442 0.3289 0.9067 0.0
C775 C 0.07995 0.35625 0.02784 0.0
C776 C 0.06289 0.34525 0.04759 0.0
C777 C 0.08488 0.3506 0.98931 0.0
C778 C 0.06181 0.32591 0.89947 0.0
H779 H 0.12784 0.27283 0.75848 0.0
H780 H 0.11589 0.28195 0.82422 0.0
H781 H 0.05442 0.31949 0.83959 0.0
H782 H 0.03803 0.31931 0.04177 0.0
H783 H 0.04572 0.3102 0.97398 0.0
H784 H 0.11398 0.3249 0.93869 0.0
C785 C 0.11026 0.2923 0.80137 0.0
C786 C 0.06755 0.32066 0.86099 0.0
C787 C 0.11706 0.28705 0.7636 0.0
C788 C 0.05077 0.32855 0.02743 0.0
C789 C 0.05533 0.32322 0.98852 0.0
C790 C 0.10079 0.3238 0.91738 0.0
C791 C 0.09631 0.31061 0.80965 0.0
C792 C 0.08996 0.31658 0.85038 0.0
C793 C 0.07264 0.33403 0.96903 0.0
C794 C 0.07841 0.32776 0.92814 0.0
H795 H 0.09087 0.32873 0.71808 0.0
H796 H 0.07852 0.3377 0.78428 0.0
H797 H 0.12386 0.31511 0.87207 0.0
H798 H 0.08972 0.36917 0.04232 0.0
H799 H 0.09824 0.35935 0.97523 0.0
C800 C 0.00457 0.29458 0.22246 0.0
C801 C 0.02614 0.2976 0.20761 0.0
C802 C 0.00167 0.28516 0.2582 0.0
C803 C 0.03568 0.26484 0.34152 0.0
H804 H 0.9897 0.21995 0.33876 0.0
C805 C 0.05132 0.19472 0.27408 0.0
C806 C 0.03762 0.17589 0.27294 0.0
C807 C 0.04944 0.21031 0.30442 0.0
C808 C 0.00243 0.23273 0.34141 0.0
H809 H 0.06145 0.29224 0.21693 0.0
H810 H 0.0565 0.2738 0.27685 0.0
H811 H 0.98445 0.25273 0.30306 0.0
H812 H 0.01341 0.15708 0.30556 0.0
H813 H 0.00956 0.18477 0.35734 0.0
H814 H 0.05493 0.24252 0.37439 0.0
C815 C 0.04174 0.27997 0.2628 0.0
C816 C 0.99947 0.25165 0.3202 0.0
C817 C 0.04463 0.28985 0.2277 0.0
C818 C 0.02368 0.17187 0.30469 0.0
C819 C 0.02181 0.18743 0.33502 0.0
C820 C 0.03876 0.24539 0.36144 0.0
C821 C 0.02029 0.27809 0.27925 0.0
C822 C 0.01762 0.2662 0.31565 0.0
C823 C 0.03359 0.20749 0.33401 0.0
C824 C 0.02416 0.22755 0.35363 0.0
H825 H 0.99008 0.30101 0.2079 0.0
H826 H 0.98489 0.28404 0.26965 0.0
H827 H 0.04904 0.277 0.34182 0.0
H828 H 0.06281 0.1979 0.25086 0.0
H829 H 0.05885 0.22558 0.30243 0.0
C830 C 0.96221 0.83484 0.48735 0.0
C831 C 0.965 0.82968 0.44794 0.0
C832 C 0.97934 0.84517 0.50842 0.0
C833 C 0.041 0.85447 0.49635 0.0
H834 H 0.03739 0.79669 0.54086 0.0
C835 C 0.07355 0.78262 0.41543 0.0
C836 C 0.08254 0.76377 0.43206 0.0
C837 C 0.06517 0.79995 0.43847 0.0
C838 C 0.03923 0.81303 0.52935 0.0
H839 H 0.9858 0.83507 0.3983 0.0
H840 H 0.01606 0.85203 0.43475 0.0
H841 H 0.00767 0.82285 0.55164 0.0
H842 H 0.08733 0.74723 0.4858 0.0
H843 H 0.07181 0.7774 0.52607 0.0
H844 H 0.07188 0.84357 0.47107 0.0
C845 C 0.00082 0.8483 0.45004 0.0
C846 C 0.02209 0.82835 0.53571 0.0
C847 C 0.98355 0.83819 0.42887 0.0
C848 C 0.08072 0.76165 0.47206 0.0
C849 C 0.07219 0.77905 0.49523 0.0
C850 C 0.05831 0.83928 0.49006 0.0
C851 C 0.99982 0.84972 0.49064 0.0
C852 C 0.02094 0.84707 0.51263 0.0
C853 C 0.06532 0.79879 0.4787 0.0
C854 C 0.05574 0.81738 0.50207 0.0
H855 H 0.9476 0.82927 0.50266 0.0
H856 H 0.97767 0.84677 0.53936 0.0
H857 H 0.04138 0.86978 0.48103 0.0
H858 H 0.07431 0.78477 0.38472 0.0
H859 H 0.05872 0.81439 0.42459 0.0
C860 C 0.54543 0.7009 0.77194 0.0
C861 C 0.53462 0.68049 0.77511 0.0
C862 C 0.54193 0.71772 0.79982 0.0
C863 C 0.49221 0.73456 0.8297 0.0
H864 H 0.53226 0.78427 0.8211 0.0
C865 C 0.49398 0.78725 0.69532 0.0
C866 C 0.51614 0.78965 0.6826 0.0
C867 C 0.48969 0.77944 0.73194 0.0
C868 C 0.52056 0.77066 0.82367 0.0
H869 H 0.51476 0.66041 0.81336 0.0
H870 H 0.50755 0.69022 0.8602 0.0
H871 H 0.54111 0.75506 0.86486 0.0
H872 H 0.55089 0.78349 0.69555 0.0
H873 H 0.54353 0.76864 0.75796 0.0
H874 H 0.47383 0.7475 0.78293 0.0
C875 C 0.51891 0.69319 0.83667 0.0
C876 C 0.52531 0.7542 0.84965 0.0
C877 C 0.52266 0.67631 0.8091 0.0
C878 C 0.53367 0.78163 0.70472 0.0
C879 C 0.52943 0.77392 0.74108 0.0
C880 C 0.48777 0.75031 0.80236 0.0
C881 C 0.52702 0.71457 0.83073 0.0
C882 C 0.5139 0.73391 0.84537 0.0
C883 C 0.50755 0.77401 0.75604 0.0
C884 C 0.5039 0.76664 0.79563 0.0
H885 H 0.55542 0.70436 0.7469 0.0
H886 H 0.54879 0.73392 0.79442 0.0
H887 H 0.48159 0.71998 0.8296 0.0
H888 H 0.48021 0.79377 0.67897 0.0
H889 H 0.47259 0.77903 0.74221 0.0
C890 C 0.58566 0.26842 0.97481 0.0
C891 C 0.5875 0.27071 0.93485 0.0
C892 C 0.57638 0.28539 0.99805 0.0
C893 C 0.54043 0.31588 0.03145 0.0
H894 H 0.5367 0.37272 0.98383 0.0
C895 C 0.48318 0.33563 0.92858 0.0
C896 C 0.46516 0.32541 0.94653 0.0
C897 C 0.49923 0.34699 0.95073 0.0
C898 C 0.53787 0.35739 0.99897 0.0
H899 H 0.57949 0.29195 0.88779 0.0
H900 H 0.56228 0.32068 0.92767 0.0
H901 H 0.57019 0.35026 0.97522 0.0
H902 H 0.44722 0.32291 1.00048 0.0
H903 H 0.47521 0.34258 0.03893 0.0
H904 H 0.5076 0.32189 0.05214 0.0
C905 C 0.56919 0.30645 0.94155 0.0
C906 C 0.55693 0.34432 0.99344 0.0
C907 C 0.5785 0.28961 0.91843 0.0
C908 C 0.46152 0.3298 0.98599 0.0
C909 C 0.47741 0.3414 1.00806 0.0
C910 C 0.52152 0.32909 0.03705 0.0
C911 C 0.56856 0.30485 0.98173 0.0
C912 C 0.55673 0.3222 1.005 0.0
C913 C 0.49756 0.34806 0.99127 0.0
C914 C 0.51857 0.34767 1.01416 0.0
H915 H 0.59245 0.25405 0.98845 0.0
H916 H 0.57575 0.28345 0.02882 0.0
H917 H 0.54027 0.29939 0.04273 0.0
H918 H 0.48602 0.33315 0.89802 0.0
H919 H 0.51425 0.35224 0.93621 0.0
C920 C 0.96265 0.81567 0.77966 0.0
C921 C 0.9743 0.81515 0.81479 0.0
C922 C 0.94398 0.80214 0.77289 0.0
C923 C 0.91001 0.75935 0.8215 0.0
H924 H 0.94486 0.7236 0.74992 0.0
C925 C 0.9683 0.70017 0.88463 0.0
C926 C 0.98983 0.70095 0.86844 0.0
C927 C 0.94964 0.70688 0.86413 0.0
C928 C 0.93493 0.73321 0.77039 0.0
H929 H 0.97474 0.80122 0.87116 0.0
H930 H 0.94304 0.77717 0.85938 0.0
H931 H 0.93533 0.76116 0.7348 0.0
H932 H 0.00876 0.71002 0.81848 0.0
H933 H 0.97696 0.72443 0.78461 0.0
H934 H 0.91273 0.73323 0.86036 0.0
C935 C 0.94776 0.78821 0.83693 0.0
C936 C 0.92888 0.75473 0.76126 0.0
C937 C 0.96644 0.8016 0.84354 0.0
C938 C 0.99242 0.70955 0.83194 0.0
C939 C 0.97387 0.71715 0.81202 0.0
C940 C 0.91681 0.73822 0.83171 0.0
C941 C 0.93653 0.7879 0.80117 0.0
C942 C 0.92128 0.76913 0.79104 0.0
C943 C 0.95205 0.7157 0.82756 0.0
C944 C 0.93287 0.72686 0.80873 0.0
H945 H 0.96813 0.82631 0.75708 0.0
H946 H 0.93595 0.80211 0.74502 0.0
H947 H 0.90161 0.76971 0.84306 0.0
H948 H 0.96553 0.69312 0.91235 0.0
H949 H 0.93336 0.70503 0.87721 0.0
C950 C 0.57444 0.75904 0.03656 0.0
C951 C 0.57088 0.75544 0.07596 0.0
C952 C 0.56404 0.74548 1.00853 0.0
C953 C 0.52198 0.70733 0.98045 0.0
H954 H 0.55757 0.6563 1.00586 0.0
C955 C 0.50451 0.66121 0.09084 0.0
C956 C 0.48171 0.66162 0.08205 0.0
C957 C 0.51998 0.65753 0.06124 0.0
C958 C 0.54772 0.67009 0.99624 0.0
H959 H 0.55035 0.73802 0.11643 0.0
H960 H 0.53119 0.71534 0.06735 0.0
H961 H 0.57435 0.69294 1.00799 0.0
H962 H 0.45695 0.653 0.03876 0.0
H963 H 0.48382 0.64661 0.98742 0.0
H964 H 0.49446 0.68525 0.97463 0.0
C965 C 0.54282 0.72797 0.0584 0.0
C966 C 0.5574 0.69118 0.99737 0.0
C967 C 0.55377 0.74094 0.0865 0.0
C968 C 0.47454 0.65337 0.04585 0.0
C969 C 0.49 0.64951 1.0164 0.0
C970 C 0.51238 0.68622 0.97905 0.0
C971 C 0.54908 0.72912 0.01962 0.0
C972 C 0.54384 0.70997 0.99408 0.0
C973 C 0.51253 0.65501 0.02277 0.0
C974 C 0.52436 0.66819 0.99371 0.0
H975 H 0.58713 0.77053 0.02731 0.0
H976 H 0.569 0.74657 0.97874 0.0
H977 H 0.51136 0.72164 0.97699 0.0
H978 H 0.51045 0.66701 0.11882 0.0
H979 H 0.53739 0.66094 0.0678 0.0
C980 C 0.53617 0.21615 0.33049 0.0
C981 C 0.51826 0.20716 0.3506 0.0
C982 C 0.53324 0.22246 0.29286 0.0
C983 C 0.49194 0.23817 0.2218 0.0
H984 H 0.54787 0.2391 0.16632 0.0
C985 C 0.51478 0.31334 0.2246 0.0
C986 C 0.52769 0.31028 0.25788 0.0
C987 C 0.51442 0.29728 0.19487 0.0
C988 C 0.53159 0.23821 0.17987 0.0
H989 H 0.48271 0.20021 0.34937 0.0
H990 H 0.47739 0.21171 0.28361 0.0
H991 H 0.54207 0.21161 0.21479 0.0
H992 H 0.55324 0.29003 0.28302 0.0
H993 H 0.5523 0.26171 0.23231 0.0
H994 H 0.48221 0.26485 0.18741 0.0
C995 C 0.49383 0.21337 0.29643 0.0
C996 C 0.52857 0.2229 0.20864 0.0
C997 C 0.49675 0.20735 0.33445 0.0
C998 C 0.54227 0.29225 0.25872 0.0
C999 C 0.54202 0.27624 0.22887 0.0
C1000 C 0.49516 0.25269 0.19196 0.0
C1001 C 0.51235 0.21976 0.27456 0.0
C1002 C 0.51012 0.2254 0.23374 0.0
C1003 C 0.52656 0.27759 0.1982 0.0
C1004 C 0.51735 0.2567 0.18037 0.0
H1005 H 0.55294 0.21595 0.34232 0.0
H1006 H 0.54766 0.22861 0.27769 0.0
H1007 H 0.47665 0.23942 0.23839 0.0
H1008 H 0.50399 0.32763 0.22216 0.0
H1009 H 0.50272 0.29909 0.17145 0.0
C1010 C 0.0726 0.27368 0.54177 0.0
C1011 C 0.0687 0.26769 0.58006 0.0
C1012 C 0.06088 0.26327 0.51156 0.0
C1013 C 0.018 0.22394 0.48143 0.0
H1014 H 0.06233 0.17774 0.49147 0.0
C1015 C 0.01446 0.17461 0.5865 0.0
C1016 C 0.99145 0.17184 0.58125 0.0
C1017 C 0.02861 0.1731 0.55456 0.0
C1018 C 0.0499 0.19029 0.48598 0.0
H1019 H 0.04633 0.24984 0.61698 0.0
H1020 H 0.0251 0.23255 0.56424 0.0
H1021 H 0.07349 0.2163 0.49673 0.0
H1022 H 0.96591 0.16011 0.54158 0.0
H1023 H 0.99039 0.15738 0.48636 0.0
H1024 H 0.99385 0.19823 0.47634 0.0
C1025 C 0.03775 0.24475 0.55765 0.0
C1026 C 0.05636 0.21252 0.48902 0.0
C1027 C 0.05 0.25454 0.58793 0.0
C1028 C 0.98358 0.16268 0.54611 0.0
C1029 C 0.99773 0.16096 0.51435 0.0
C1030 C 0.01162 0.2017 0.47785 0.0
C1031 C 0.04442 0.24762 0.51938 0.0
C1032 C 0.04004 0.22921 0.49162 0.0
C1033 C 0.01944 0.1697 0.51734 0.0
C1034 C 0.02704 0.18506 0.48754 0.0
H1035 H 0.08654 0.28425 0.53457 0.0
H1036 H 0.06633 0.2656 0.48231 0.0
H1037 H 0.00521 0.23661 0.48231 0.0
H1038 H 0.021 0.18128 0.61353 0.0
H1039 H 0.04563 0.17897 0.55844 0.0
C1040 C 0.04694 0.04513 0.13117 0.0
C1041 C 0.05834 0.06514 0.12526 0.0
C1042 C 0.04824 0.02747 0.10398 0.0
C1043 C 0.06053 0.0164 1.00064 0.0
H1044 H 0.05901 0.95493 0.02918 0.0
C1045 C 0.06283 0.9211 0.92792 0.0
C1046 C 0.04747 0.92356 0.89777 0.0
C1047 C 0.06718 0.93867 0.95424 0.0
C1048 C 0.05975 0.97198 0.0206 0.0
H1049 H 0.08096 0.08177 0.08682 0.0
H1050 H 0.08357 0.05094 0.04013 0.0
H1051 H 0.06137 0.9842 0.07904 0.0
H1052 H 0.02559 0.94702 0.87066 0.0
H1053 H 0.03304 0.97748 0.91646 0.0
H1054 H 0.05913 0.0042 0.94221 0.0
C1055 C 0.07316 0.04903 0.06525 0.0
C1056 C 0.06079 0.98882 0.04931 0.0
C1057 C 0.07179 0.06668 0.09229 0.0
C1058 C 0.03755 0.94445 0.89339 0.0
C1059 C 0.04188 0.96201 0.91974 0.0
C1060 C 0.05953 -0.00043 0.97196 0.0
C1061 C 0.06104 0.02934 0.07028 0.0
C1062 C 0.061 0.01128 0.03976 0.0
C1063 C 0.05629 0.95919 0.95112 0.0
C1064 C 0.05891 0.97713 0.98152 0.0
H1065 H 0.03632 0.04336 0.15605 0.0
H1066 H 0.0385 0.01266 0.10874 0.0
H1067 H 0.06039 0.03347 0.99209 0.0
H1068 H 0.07089 0.9053 0.9322 0.0
H1069 H 0.07875 0.93602 0.97753 0.0
C1070 C 0.22529 0.73165 0.35749 0.0
C1071 C 0.20627 0.73738 0.33643 0.0
C1072 C 0.24653 0.73138 0.34002 0.0
C1073 C 0.2762 0.75222 0.25324 0.0
H1074 H 0.32177 0.71018 0.28109 0.0
C1075 C 0.358 0.73419 0.16535 0.0
C1076 C 0.37764 0.73177 0.187 0.0
C1077 C 0.3372 0.73683 0.18381 0.0
C1078 C 0.30924 0.72214 0.2732 0.0
H1079 H 0.19441 0.74599 0.28003 0.0
H1080 H 0.23076 0.74463 0.24958 0.0
H1081 H 0.28554 0.70977 0.31328 0.0
H1082 H 0.39093 0.73201 0.24509 0.0
H1083 H 0.35492 0.73639 0.27676 0.0
H1084 H 0.29986 0.76407 0.21231 0.0
C1085 C 0.22977 0.74133 0.27987 0.0
C1086 C 0.28847 0.72199 0.29181 0.0
C1087 C 0.20878 0.74194 0.29736 0.0
C1088 C 0.37615 0.73343 0.22736 0.0
C1089 C 0.35548 0.73585 0.24565 0.0
C1090 C 0.29687 0.75214 0.23427 0.0
C1091 C 0.24907 0.73651 0.301 0.0
C1092 C 0.27157 0.73698 0.28204 0.0
C1093 C 0.3357 0.73695 0.22418 0.0
C1094 C 0.31363 0.73713 0.24407 0.0
H1095 H 0.22386 0.7281 0.38765 0.0
H1096 H 0.26097 0.72771 0.3574 0.0
H1097 H 0.26391 0.76442 0.24543 0.0
H1098 H 0.35851 0.73292 0.13428 0.0
H1099 H 0.3222 0.73771 0.1665 0.0
C1100 C 0.53079 0.06408 0.42966 0.0
C1101 C 0.5156 0.08102 0.4401 0.0
C1102 C 0.53018 0.0437 0.44782 0.0
C1103 C 0.49382 0.00879 0.50824 0.0
H1104 H 0.54984 0.98128 0.53592 0.0
C1105 C 0.49754 0.92109 0.56854 0.0
C1106 C 0.51368 0.91654 0.59658 0.0
C1107 C 0.49738 0.94142 0.55061 0.0
C1108 C 0.53404 0.98886 0.52879 0.0
H1109 H 0.48749 0.08947 0.47739 0.0
H1110 H 0.48664 0.05437 0.50899 0.0
H1111 H 0.55029 0.01559 0.50094 0.0
H1112 H 0.54194 0.93028 0.62846 0.0
H1113 H 0.54136 0.96605 0.59765 0.0
H1114 H 0.47755 0.98246 0.5369 0.0
C1115 C 0.49887 0.05659 0.48649 0.0
C1116 C 0.53429 0.00837 0.50816 0.0
C1117 C 0.49945 0.07686 0.46838 0.0
C1118 C 0.52925 0.93319 0.60707 0.0
C1119 C 0.52906 0.95363 0.58909 0.0
C1120 C 0.49357 0.98935 0.52893 0.0
C1121 C 0.51436 0.0398 0.47681 0.0
C1122 C 0.51418 0.01861 0.49764 0.0
C1123 C 0.51329 0.95788 0.56024 0.0
C1124 C 0.51366 0.97908 0.53943 0.0
H1125 H 0.54348 0.06669 0.40806 0.0
H1126 H 0.54217 0.03103 0.43924 0.0
H1127 H 0.47799 0.01604 0.50035 0.0
H1128 H 0.4853 0.90871 0.55951 0.0
H1129 H 0.48516 0.94393 0.52825 0.0
C1130 C 0.34106 0.25069 0.87199 0.0
C1131 C 0.36021 0.25317 0.849 0.0
C1132 C 0.31989 0.24753 0.85494 0.0
C1133 C 0.29062 0.26277 0.76822 0.0
H1134 H 0.24563 0.2191 0.79242 0.0
C1135 C 0.20973 0.25591 0.67938 0.0
C1136 C 0.18965 0.25086 0.69813 0.0
C1137 C 0.2303 0.25402 0.69814 0.0
C1138 C 0.25786 0.23162 0.78563 0.0
H1139 H 0.37231 0.2523 0.79014 0.0
H1140 H 0.33571 0.2471 0.76092 0.0
H1141 H 0.28162 0.21933 0.82609 0.0
H1142 H 0.1755 0.23955 0.75131 0.0
H1143 H 0.21123 0.237 0.78454 0.0
H1144 H 0.26705 0.27571 0.72898 0.0
C1145 C 0.33692 0.24794 0.79197 0.0
C1146 C 0.27851 0.23167 0.8049 0.0
C1147 C 0.35792 0.2509 0.80884 0.0
C1148 C 0.19068 0.24341 0.73589 0.0
C1149 C 0.21126 0.24187 0.75494 0.0
C1150 C 0.26998 0.26297 0.74947 0.0
C1151 C 0.31758 0.24694 0.8147 0.0
C1152 C 0.2952 0.24708 0.79598 0.0
C1153 C 0.23139 0.24745 0.73653 0.0
C1154 C 0.25332 0.24723 0.75743 0.0
H1155 H 0.34222 0.25237 0.90298 0.0
H1156 H 0.30524 0.24675 0.87316 0.0
H1157 H 0.30302 0.27512 0.76123 0.0
H1158 H 0.20956 0.26146 0.65015 0.0
H1159 H 0.24537 0.25785 0.68243 0.0
C1160 C 0.7277 0.22842 0.85792 0.0
C1161 C 0.70917 0.23545 0.83679 0.0
C1162 C 0.74907 0.22745 0.84092 0.0
C1163 C 0.78049 0.2496 0.75734 0.0
H1164 H 0.8241 0.20484 0.78166 0.0
C1165 C 0.8632 0.23459 0.67101 0.0
C1166 C 0.88246 0.23032 0.69269 0.0
C1167 C 0.84213 0.23624 0.68887 0.0
C1168 C 0.81215 0.21757 0.77477 0.0
H1169 H 0.69828 0.24549 0.78061 0.0
H1170 H 0.73485 0.24306 0.75101 0.0
H1171 H 0.78748 0.20465 0.81268 0.0
H1172 H 0.89465 0.2257 0.75066 0.0
H1173 H 0.85825 0.2285 0.78125 0.0
H1174 H 0.8051 0.26223 0.7189 0.0
C1175 C 0.73337 0.23921 0.78103 0.0
C1176 C 0.79114 0.2175 0.79269 0.0
C1177 C 0.71226 0.24044 0.79802 0.0
C1178 C 0.88023 0.22871 0.73277 0.0
C1179 C 0.85929 0.23018 0.75045 0.0
C1180 C 0.8014 0.24952 0.73917 0.0
C1181 C 0.75223 0.23324 0.80234 0.0
C1182 C 0.77495 0.23348 0.78415 0.0
C1183 C 0.8399 0.2335 0.72871 0.0
C1184 C 0.81751 0.23352 0.74767 0.0
H1185 H 0.72584 0.22451 0.88786 0.0
H1186 H 0.76318 0.22282 0.85836 0.0
H1187 H 0.76874 0.26252 0.75056 0.0
H1188 H 0.86424 0.23585 0.64013 0.0
H1189 H 0.82749 0.23882 0.6713 0.0
C1190 C 0.85622 0.74866 0.3215 0.0
C1191 C 0.85806 0.75722 0.35943 0.0
C1192 C 0.83527 0.74604 0.30409 0.0
C1193 C 0.7801 0.77141 0.30629 0.0
H1194 H 0.76301 0.72168 0.23892 0.0
C1195 C 0.70755 0.776 0.19628 0.0
C1196 C 0.69224 0.75826 0.196 0.0
C1197 C 0.72761 0.77484 0.21695 0.0
C1198 C 0.76752 0.73566 0.25773 0.0
H1199 H 0.83938 0.76884 0.40946 0.0
H1200 H 0.80261 0.76444 0.37882 0.0
H1201 H 0.79762 0.71993 0.27621 0.0
H1202 H 0.68638 0.72514 0.21628 0.0
H1203 H 0.72145 0.72305 0.25164 0.0
H1204 H 0.7502 0.78729 0.28734 0.0
C1205 C 0.81744 0.75973 0.36265 0.0
C1206 C 0.78735 0.73468 0.27898 0.0
C1207 C 0.83845 0.762 0.38033 0.0
C1208 C 0.69774 0.73915 0.21597 0.0
C1209 C 0.71789 0.73788 0.23613 0.0
C1210 C 0.76043 0.77252 0.28465 0.0
C1211 C 0.8157 0.75226 0.32402 0.0
C1212 C 0.79388 0.75256 0.30346 0.0
C1213 C 0.73294 0.7558 0.23725 0.0
C1214 C 0.75394 0.75468 0.26005 0.0
H1215 H 0.87108 0.74486 0.3047 0.0
H1216 H 0.83451 0.74034 0.27428 0.0
H1217 H 0.78482 0.78558 0.32452 0.0
H1218 H 0.70381 0.79098 0.18132 0.0
H1219 H 0.739 0.78883 0.217 0.0
C1220 C 0.55767 0.57034 0.58939 0.0
C1221 C 0.54575 0.56898 0.62406 0.0
C1222 C 0.55772 0.55261 0.56248 0.0
C1223 C 0.54642 0.49238 0.55058 0.0
H1224 H 0.54121 0.50579 0.44287 0.0
C1225 C 0.52776 0.44335 0.39603 0.0
C1226 C 0.5411 0.42448 0.40088 0.0
C1227 C 0.52899 0.46143 0.42236 0.0
C1228 C 0.54252 0.50174 0.47283 0.0
H1229 H 0.52491 0.5476 0.65787 0.0
H1230 H 0.5249 0.51666 0.6108 0.0
H1231 H 0.54169 0.53592 0.49142 0.0
H1232 H 0.56694 0.41029 0.43626 0.0
H1233 H 0.56931 0.44184 0.48141 0.0
H1234 H 0.54671 0.4582 0.53211 0.0
C1235 C 0.5344 0.53142 0.6046 0.0
C1236 C 0.54307 0.51904 0.50066 0.0
C1237 C 0.53437 0.54918 0.63161 0.0
C1238 C 0.55625 0.42447 0.43176 0.0
C1239 C 0.55751 0.4425 0.45792 0.0
C1240 C 0.54587 0.47509 0.52277 0.0
C1241 C 0.54583 0.53304 0.56946 0.0
C1242 C 0.54511 0.51458 0.5399 0.0
C1243 C 0.5436 0.46104 0.45402 0.0
C1244 C 0.54401 0.47955 0.48351 0.0
H1245 H 0.56674 0.58528 0.5826 0.0
H1246 H 0.56707 0.55427 0.53611 0.0
H1247 H 0.54817 0.48833 0.58047 0.0
H1248 H 0.51585 0.44387 0.37272 0.0
H1249 H 0.51792 0.47539 0.4186 0.0
C1250 C 0.04369 0.57169 0.94673 0.0
C1251 C 0.02297 0.58081 0.93702 0.0
C1252 C 0.04467 0.55106 0.96413 0.0
C1253 C 0.00754 0.51224 0.01712 0.0
H1254 H 0.05841 0.47268 1.00746 0.0
C1255 C 0.00789 0.42213 0.07004 0.0
C1256 C 0.02585 0.41669 0.09398 0.0
C1257 C 0.00782 0.44218 0.05102 0.0
C1258 C 0.04415 0.48366 1.01049 0.0
H1259 H 0.98723 0.5752 0.93553 0.0
H1260 H 0.98888 0.53881 0.96311 0.0
H1261 H 0.05783 0.50671 0.97144 0.0
H1262 H 0.05794 0.42795 0.11635 0.0
H1263 H 0.058 0.46278 0.08225 0.0
H1264 H 0.9936 0.48865 0.0551 0.0
C1265 C 0.00439 0.54777 0.95938 0.0
C1266 C 0.04382 0.50325 0.99 0.0
C1267 C 0.00341 0.56853 0.94299 0.0
C1268 C 0.04375 0.43175 0.09842 0.0
C1269 C 0.0439 0.45158 0.07868 0.0
C1270 C 0.00769 0.49248 0.03689 0.0
C1271 C 0.02494 0.53898 0.97148 0.0
C1272 C 0.02548 0.51788 0.99295 0.0
C1273 C 0.02593 0.45699 0.05479 0.0
C1274 C 0.02599 0.47801 0.03386 0.0
H1275 H 0.05898 0.58102 0.94284 0.0
H1276 H 0.06082 0.5451 0.97321 0.0
H1277 H 0.99338 0.52321 0.02133 0.0
H1278 H 0.99388 0.41087 0.06597 0.0
H1279 H 0.99379 0.44593 0.03268 0.0
C1280 C 0.10686 0.13321 0.28434 0.0
C1281 C 0.08461 0.12764 0.2747 0.0
C1282 C 0.11222 0.14322 0.32007 0.0
C1283 C 0.11804 0.15402 0.40763 0.0
H1284 H 0.08895 0.21027 0.43111 0.0
C1285 C 0.12342 0.19644 0.55797 0.0
C1286 C 0.12406 0.21968 0.56278 0.0
C1287 C 0.12061 0.18609 0.52178 0.0
C1288 C 0.09719 0.19457 0.42522 0.0
H1289 H 0.0509 0.12621 0.29738 0.0
H1290 H 0.06007 0.14497 0.35923 0.0
H1291 H 0.07809 0.18825 0.37353 0.0
H1292 H 0.12256 0.25035 0.53249 0.0
H1293 H 0.11788 0.23213 0.46834 0.0
H1294 H 0.13682 0.15988 0.45935 0.0
C1295 C 0.07333 0.1416 0.33864 0.0
C1296 C 0.09083 0.18188 0.39226 0.0
C1297 C 0.06808 0.13081 0.30317 0.0
C1298 C 0.12249 0.23241 0.52981 0.0
C1299 C 0.11958 0.22193 0.49311 0.0
C1300 C 0.12394 0.16636 0.44103 0.0
C1301 C 0.09542 0.14841 0.34706 0.0
C1302 C 0.10115 0.16139 0.38317 0.0
C1303 C 0.11828 0.19855 0.4887 0.0
C1304 C 0.11345 0.18673 0.45073 0.0
H1305 H 0.12009 0.13097 0.26327 0.0
H1306 H 0.12941 0.14804 0.32575 0.0
H1307 H 0.12653 0.13848 0.40114 0.0
H1308 H 0.12437 0.18606 0.58266 0.0
H1309 H 0.11935 0.16817 0.52005 0.0
C1310 C 0.13287 0.8083 0.47437 0.0
C1311 C 0.13696 0.78562 0.46653 0.0
C1312 C 0.12426 0.81595 0.50984 0.0
C1313 C 0.11095 0.79898 0.61086 0.0
H1314 H 0.07212 0.85036 0.60873 0.0
C1315 C 0.07601 0.83947 0.75176 0.0
C1316 C 0.05378 0.84712 0.75254 0.0
C1317 C 0.08657 0.83324 0.71708 0.0
C1318 C 0.08275 0.8359 0.61002 0.0
H1319 H 0.13616 0.75329 0.49142 0.0
H1320 H 0.12065 0.76639 0.55318 0.0
H1321 H 0.09016 0.83679 0.5502 0.0
H1322 H 0.02528 0.85442 0.71703 0.0
H1323 H 0.04371 0.84369 0.65602 0.0
H1324 H 0.10327 0.79809 0.6709 0.0
C1325 C 0.12436 0.77851 0.53193 0.0
C1326 C 0.09341 0.8281 0.57617 0.0
C1327 C 0.13324 0.77086 0.49624 0.0
C1328 C 0.04259 0.84914 0.71736 0.0
C1329 C 0.05318 0.84279 0.68239 0.0
C1330 C 0.10038 0.80686 0.64481 0.0
C1331 C 0.11912 0.80119 0.53904 0.0
C1332 C 0.10775 0.80947 0.57578 0.0
C1333 C 0.07519 0.83416 0.68179 0.0
C1334 C 0.08615 0.82554 0.64508 0.0
H1335 H 0.13573 0.82028 0.45246 0.0
H1336 H 0.12144 0.83357 0.51399 0.0
H1337 H 0.12194 0.78482 0.61248 0.0
H1338 H 0.08504 0.83748 0.77837 0.0
H1339 H 0.10363 0.82728 0.71812 0.0
C1340 C 0.42867 0.75487 0.97158 0.0
C1341 C 0.44567 0.74814 0.9965 0.0
C1342 C 0.43386 0.76665 0.93836 0.0
C1343 C 0.47969 0.80057 0.89384 0.0
H1344 H 0.44475 0.79104 0.80128 0.0
C1345 C 0.50308 0.84002 0.74588 0.0
C1346 C 0.48553 0.84376 0.71992 0.0
C1347 C 0.49884 0.82985 0.78125 0.0
C1348 C 0.45451 0.79441 0.82699 0.0
H1349 H 0.48157 0.74836 1.00531 0.0
H1350 H 0.49058 0.76828 0.94765 0.0
H1351 H 0.43609 0.77013 0.85761 0.0
H1352 H 0.44961 0.8414 0.71276 0.0
H1353 H 0.44219 0.82516 0.77397 0.0
H1354 H 0.49822 0.82479 0.86293 0.0
C1355 C 0.47316 0.76497 0.95385 0.0
C1356 C 0.44951 0.7822 0.85958 0.0
C1357 C 0.46797 0.75328 0.98694 0.0
C1358 C 0.46364 0.83864 0.73168 0.0
C1359 C 0.45939 0.8289 0.76686 0.0
C1360 C 0.48467 0.81287 0.86116 0.0
C1361 C 0.45623 0.77208 0.929 0.0
C1362 C 0.46188 0.7851 0.89379 0.0
C1363 C 0.47691 0.82341 0.79176 0.0
C1364 C 0.47205 0.81018 0.82712 0.0
H1365 H 0.41133 0.75132 0.97802 0.0
H1366 H 0.42022 0.77191 0.92044 0.0
H1367 H 0.48959 0.80359 0.9195 0.0
H1368 H 0.52017 0.84368 0.7381 0.0
H1369 H 0.51293 0.82602 0.79933 0.0
C1370 C 0.46336 0.15719 0.30524 0.0
C1371 C 0.48538 0.15098 0.31431 0.0
C1372 C 0.45764 0.16455 0.2689 0.0
C1373 C 0.48303 0.18716 0.17897 0.0
H1374 H 0.42105 0.18621 0.14651 0.0
C1375 C 0.45525 0.22607 0.03551 0.0
C1376 C 0.43378 0.23547 0.03247 0.0
C1377 C 0.46165 0.21448 0.06801 0.0
C1378 C 0.4384 0.18714 0.15533 0.0
H1379 H 0.5187 0.14726 0.29078 0.0
H1380 H 0.50866 0.15913 0.22626 0.0
H1381 H 0.43209 0.16659 0.20284 0.0
H1382 H 0.40225 0.24005 0.06213 0.0
H1383 H 0.41346 0.22032 0.11943 0.0
H1384 H 0.48927 0.20789 0.13144 0.0
C1385 C 0.49567 0.15872 0.24785 0.0
C1386 C 0.44487 0.17573 0.1881 0.0
C1387 C 0.50148 0.15142 0.28484 0.0
C1388 C 0.41888 0.233 0.0633 0.0
C1389 C 0.42535 0.22147 0.09616 0.0
C1390 C 0.47653 0.19879 0.14639 0.0
C1391 C 0.47363 0.16587 0.23935 0.0
C1392 C 0.46726 0.17596 0.20137 0.0
C1393 C 0.4469 0.21191 0.09914 0.0
C1394 C 0.45399 0.19926 0.13409 0.0
H1395 H 0.45047 0.15741 0.32714 0.0
H1396 H 0.44069 0.17028 0.26498 0.0
H1397 H 0.50045 0.18759 0.18711 0.0
H1398 H 0.46722 0.22747 1.01236 0.0
H1399 H 0.47817 0.20718 0.06821 0.0
C1400 C 0.89547 0.82204 0.48668 0.0
C1401 C 0.8992 0.83257 0.45192 0.0
C1402 C 0.89903 0.8336 0.52187 0.0
C1403 C 0.93613 0.87603 0.56027 0.0
H1404 H 0.89914 0.87751 0.65147 0.0
C1405 C 0.97323 0.91092 0.70195 0.0
C1406 C 0.96602 0.90154 0.73599 0.0
C1407 C 0.96127 0.9071 0.66775 0.0
C1408 C 0.91001 0.87692 0.62665 0.0
H1409 H 0.90786 0.86382 0.42671 0.0
H1410 H 0.91434 0.88368 0.48773 0.0
H1411 H 0.88472 0.86064 0.59186 0.0
H1412 H 0.94052 0.88117 0.76142 0.0
H1413 H 0.92077 0.87309 0.70218 0.0
H1414 H 0.96216 0.89024 0.5945 0.0
C1415 C 0.90877 0.86658 0.48792 0.0
C1416 C 0.90153 0.8674 0.59232 0.0
C1417 C 0.90499 0.85518 0.45299 0.0
C1418 C 0.94622 0.88899 0.73565 0.0
C1419 C 0.9348 0.88439 0.70129 0.0
C1420 C 0.94495 0.8847 0.59473 0.0
C1421 C 0.90653 0.85575 0.52267 0.0
C1422 C 0.9146 0.86674 0.55888 0.0
C1423 C 0.94245 0.89283 0.66639 0.0
C1424 C 0.93215 0.88522 0.62877 0.0
H1425 H 0.89096 0.80466 0.48663 0.0
H1426 H 0.89728 0.82483 0.5483 0.0
H1427 H 0.94653 0.87589 0.53484 0.0
H1428 H 0.9885 0.92062 0.70153 0.0
H1429 H 0.96739 0.9148 0.64223 0.0
C1430 C 0.92796 0.14085 0.57932 0.0
C1431 C 0.92303 0.16347 0.5851 0.0
C1432 C 0.92891 0.13128 0.5423 0.0
C1433 C 0.93992 0.14913 0.4436 0.0
H1434 H 0.93555 0.08595 0.4196 0.0
C1435 C 0.96022 0.1118 0.29418 0.0
C1436 C 0.97981 0.09894 0.29467 0.0
C1437 C 0.94863 0.11689 0.32811 0.0
C1438 C 0.93673 0.10362 0.426 0.0
H1439 H 0.91269 0.19324 0.55731 0.0
H1440 H 0.91369 0.17648 0.49238 0.0
H1441 H 0.92104 0.10098 0.48084 0.0
H1442 H 0.00162 0.07983 0.33044 0.0
H1443 H 0.98073 0.0882 0.39001 0.0
H1444 H 0.95525 0.15166 0.38834 0.0
C1445 C 0.91772 0.16625 0.51632 0.0
C1446 C 0.92854 0.11229 0.46109 0.0
C1447 C 0.91694 0.17587 0.5535 0.0
C1448 C 0.98651 0.08966 0.32923 0.0
C1449 C 0.97463 0.09448 0.36323 0.0
C1450 C 0.94759 0.14053 0.40829 0.0
C1451 C 0.92476 0.14408 0.51009 0.0
C1452 C 0.93044 0.13513 0.47075 0.0
C1453 C 0.95613 0.10884 0.36306 0.0
C1454 C 0.94641 0.11769 0.39947 0.0
H1455 H 0.93255 0.13081 0.60324 0.0
H1456 H 0.93455 0.11428 0.53907 0.0
H1457 H 0.94232 0.16666 0.45008 0.0
H1458 H 0.95464 0.11918 0.26797 0.0
H1459 H 0.93437 0.12793 0.32734 0.0
C1460 C 0.66405 0.19315 0.03159 0.0
C1461 C 0.65173 0.18574 0.99933 0.0
C1462 C 0.66038 0.18391 0.06734 0.0
C1463 C 0.63546 0.17548 0.141 0.0
H1464 H 0.61876 0.11423 0.15585 0.0
C1465 C 0.5789 0.12439 0.2533 0.0
C1466 C 0.58593 0.13482 0.2879 0.0
C1467 C 0.59074 0.12761 0.21924 0.0
C1468 C 0.62334 0.1314 0.15213 0.0
H1469 H 0.62693 0.16201 0.97847 0.0
H1470 H 0.62031 0.14605 0.04072 0.0
H1471 H 0.63347 0.12504 0.09375 0.0
H1472 H 0.61143 0.15575 0.31461 0.0
H1473 H 0.63229 0.1611 0.2554 0.0
H1474 H 0.62483 0.18202 0.19884 0.0
C1475 C 0.63297 0.15881 0.03861 0.0
C1476 C 0.63177 0.1376 0.11655 0.0
C1477 C 0.6367 0.16802 1.00289 0.0
C1478 C 0.6056 0.14758 0.28827 0.0
C1479 C 0.61745 0.15076 0.25431 0.0
C1480 C 0.62709 0.16928 0.17649 0.0
C1481 C 0.64424 0.16712 0.07154 0.0
C1482 C 0.63762 0.15981 0.11037 0.0
C1483 C 0.60982 0.14132 0.21918 0.0
C1484 C 0.62061 0.14724 0.18237 0.0
H1485 H 0.67579 0.20678 0.02962 0.0
H1486 H 0.66967 0.19042 0.09194 0.0
H1487 H 0.63932 0.1928 0.13716 0.0
H1488 H 0.56371 0.11456 0.2522 0.0
H1489 H 0.58427 0.12025 0.19269 0.0
C1490 C 0.58006 0.87515 0.77897 0.0
C1491 C 0.58586 0.86344 0.7449 0.0
C1492 C 0.59313 0.87329 0.81203 0.0
C1493 C 0.63013 0.83324 0.85607 0.0
H1494 H 0.64042 0.88063 0.93214 0.0
C1495 C 0.66597 0.81278 1.00246 0.0
C1496 C 0.65395 0.8221 0.03364 0.0
C1497 C 0.66368 0.82133 0.96586 0.0
C1498 C 0.63767 0.8672 0.91121 0.0
H1499 H 0.6104 0.84155 0.71791 0.0
H1500 H 0.63328 0.83839 0.77547 0.0
H1501 H 0.62433 0.88915 0.86988 0.0
H1502 H 0.63169 0.84876 0.05186 0.0
H1503 H 0.62732 0.86339 0.98822 0.0
H1504 H 0.64233 0.81112 0.89758 0.0
C1505 C 0.61853 0.84879 0.77688 0.0
C1506 C 0.62845 0.8721 0.87555 0.0
C1507 C 0.60549 0.85068 0.74389 0.0
C1508 C 0.64115 0.84123 0.0283 0.0
C1509 C 0.63872 0.84968 0.99171 0.0
C1510 C 0.63918 0.82834 0.89169 0.0
C1511 C 0.6122 0.85963 0.81159 0.0
C1512 C 0.62421 0.8551 0.84785 0.0
C1513 C 0.64917 0.83923 0.95971 0.0
C1514 C 0.64268 0.84517 0.92006 0.0
H1515 H 0.56497 0.88506 0.78051 0.0
H1516 H 0.58768 0.88169 0.83839 0.0
H1517 H 0.62675 0.81969 0.83565 0.0
H1518 H 0.67604 0.79807 1.00584 0.0
H1519 H 0.67242 0.81321 0.94205 0.0
C1520 C 0.56257 0.62894 0.80592 0.0
C1521 C 0.57804 0.62849 0.77543 0.0
C1522 C 0.56864 0.63839 0.84217 0.0
C1523 C 0.60724 0.68122 0.88121 0.0
H1524 H 0.59743 0.65702 0.98113 0.0
C1525 C 0.62449 0.73106 0.02634 0.0
C1526 C 0.63093 0.71866 0.05785 0.0
C1527 C 0.61892 0.72026 0.99098 0.0
C1528 C 0.6004 0.66408 0.95347 0.0
H1529 H 0.61268 0.63475 0.76074 0.0
H1530 H 0.62317 0.65046 0.82319 0.0
H1531 H 0.58444 0.6365 0.92366 0.0
H1532 H 0.63877 0.68556 0.07579 0.0
H1533 H 0.63031 0.66711 1.01458 0.0
H1534 H 0.62311 0.70883 0.91077 0.0
C1535 C 0.60621 0.64446 0.81907 0.0
C1536 C 0.5927 0.65233 0.92054 0.0
C1537 C 0.60022 0.63508 0.78338 0.0
C1538 C 0.63363 0.69563 0.05222 0.0
C1539 C 0.62841 0.68494 0.01713 0.0
C1540 C 0.61456 0.69318 0.91418 0.0
C1541 C 0.59028 0.6473 0.84834 0.0
C1542 C 0.59641 0.66054 0.88393 0.0
C1543 C 0.62003 0.69689 0.98639 0.0
C1544 C 0.61156 0.68466 0.95087 0.0
H1545 H 0.54546 0.62367 0.80119 0.0
H1546 H 0.55607 0.63999 0.86449 0.0
H1547 H 0.61021 0.68811 0.85336 0.0
H1548 H 0.6224 0.74883 0.02963 0.0
H1549 H 0.61264 0.73013 0.968 0.0
C1550 C 0.59259 0.36172 0.24336 0.0
C1551 C 0.56945 0.36421 0.24982 0.0
C1552 C 0.60091 0.35401 0.20777 0.0
C1553 C 0.58934 0.34443 0.10457 0.0
H1554 H 0.6323 0.29663 0.1127 0.0
C1555 C 0.63929 0.31244 0.9719 0.0
C1556 C 0.64311 0.28953 0.96623 0.0
C1557 C 0.63064 0.32126 1.0065 0.0
C1558 C 0.62024 0.30983 0.10971 0.0
H1559 H 0.53702 0.36186 0.22236 0.0
H1560 H 0.55163 0.34905 0.15935 0.0
H1561 H 0.61586 0.31377 0.17075 0.0
H1562 H 0.64179 0.25805 0.99403 0.0
H1563 H 0.62674 0.27347 0.05508 0.0
H1564 H 0.59423 0.34107 0.0438 0.0
C1565 C 0.56333 0.35295 0.18235 0.0
C1566 C 0.61091 0.31983 0.14313 0.0
C1567 C 0.55494 0.36061 0.21839 0.0
C1568 C 0.63911 0.27576 0.99727 0.0
C1569 C 0.63045 0.28468 0.03234 0.0
C1570 C 0.59902 0.33474 0.07121 0.0
C1571 C 0.58639 0.34858 0.17716 0.0
C1572 C 0.59544 0.3374 0.14111 0.0
C1573 C 0.62551 0.30755 0.03711 0.0
C1574 C 0.61469 0.3173 0.0731 0.0
H1575 H 0.60425 0.364 0.26699 0.0
H1576 H 0.61876 0.35139 0.20473 0.0
H1577 H 0.57755 0.35789 0.10177 0.0
H1578 H 0.6423 0.3237 0.94891 0.0
H1579 H 0.62782 0.33897 1.00904 0.0
C1580 C 0.01006 0.34986 0.25623 0.0
C1581 C 0.99311 0.35165 0.22847 0.0
C1582 C 0.00531 0.34114 0.29257 0.0
C1583 C 0.9565 0.3222 0.35504 0.0
H1584 H 0.00254 0.28793 0.40346 0.0
C1585 C 0.93529 0.26106 0.47702 0.0
C1586 C 0.95103 0.25871 0.50659 0.0
C1587 C 0.94052 0.27336 0.44438 0.0
C1588 C 0.98941 0.29758 0.39075 0.0
H1589 H 0.95772 0.34632 0.21824 0.0
H1590 H 0.94972 0.33076 0.2794 0.0
H1591 H 0.01179 0.30946 0.34803 0.0
H1592 H 0.98461 0.26772 0.52478 0.0
H1593 H 0.99355 0.28905 0.46895 0.0
H1594 H 0.93421 0.31057 0.39826 0.0
C1595 C 0.9666 0.33648 0.2745 0.0
C1596 C 0.99476 0.31003 0.35849 0.0
C1597 C 0.97127 0.34539 0.23877 0.0
C1598 C 0.97204 0.26901 0.50259 0.0
C1599 C 0.97727 0.28122 0.47017 0.0
C1600 C 0.95116 0.30984 0.38734 0.0
C1601 C 0.9835 0.33378 0.30215 0.0
C1602 C 0.97834 0.32222 0.3393 0.0
C1603 C 0.96165 0.28368 0.44034 0.0
C1604 C 0.96743 0.29706 0.40564 0.0
H1605 H 0.02711 0.35438 0.24942 0.0
H1606 H 0.01893 0.33984 0.31279 0.0
H1607 H 0.94331 0.3319 0.34267 0.0
H1608 H 0.91897 0.25334 0.47901 0.0
H1609 H 0.92803 0.27452 0.42206 0.0
C1610 C 0.99482 0.65551 0.79227 0.0
C1611 C 0.97806 0.65195 0.81982 0.0
C1612 C 0.98959 0.66538 0.75713 0.0
C1613 C 0.94089 0.67979 0.69316 0.0
H1614 H 0.98138 0.72392 0.65447 0.0
C1615 C 0.91461 0.73766 0.56918 0.0
C1616 C 0.93105 0.74323 0.54223 0.0
C1617 C 0.92038 0.7264 0.60268 0.0
C1618 C 0.9699 0.71147 0.66441 0.0
H1619 H 0.94247 0.65503 0.83061 0.0
H1620 H 0.93346 0.67174 0.77034 0.0
H1621 H 0.99182 0.70331 0.7107 0.0
H1622 H 0.96656 0.74131 0.52995 0.0
H1623 H 0.97649 0.72176 0.58734 0.0
H1624 H 0.91892 0.68797 0.64708 0.0
C1625 C 0.95066 0.66701 0.77529 0.0
C1626 C 0.97599 0.6995 0.69684 0.0
C1627 C 0.9559 0.65742 0.81026 0.0
C1628 C 0.95338 0.73742 0.55 0.0
C1629 C 0.95914 0.72625 0.58331 0.0
C1630 C 0.93482 0.69172 0.66074 0.0
C1631 C 0.9674 0.6716 0.74825 0.0
C1632 C 0.96157 0.68349 0.71198 0.0
C1633 C 0.94279 0.72039 0.61032 0.0
C1634 C 0.94916 0.70784 0.64568 0.0
H1635 H 0.01204 0.65139 0.7983 0.0
H1636 H 0.003 0.66828 0.73701 0.0
H1637 H 0.92934 0.66745 0.70327 0.0
H1638 H 0.89726 0.74185 0.56426 0.0
H1639 H 0.90722 0.72255 0.62275 0.0
C1640 C 0.46626 0.39875 0.20837 0.0
C1641 C 0.46341 0.38381 0.23791 0.0
C1642 C 0.45397 0.39611 0.17423 0.0
C1643 C 0.40761 0.3623 0.12718 0.0
H1644 H 0.44243 0.37205 0.03552 0.0
C1645 C 0.39539 0.31494 0.9806 0.0
C1646 C 0.39958 0.32663 0.94722 0.0
C1647 C 0.39803 0.32543 0.01688 0.0
C1648 C 0.43235 0.36942 0.06078 0.0
H1649 H 0.44475 0.35512 0.25585 0.0
H1650 H 0.42419 0.34995 0.19644 0.0
H1651 H 0.45702 0.38441 0.09748 0.0
H1652 H 0.40772 0.3589 0.92541 0.0
H1653 H 0.41219 0.37711 0.98839 0.0
H1654 H 0.38366 0.34588 0.09 0.0
C1655 C 0.4353 0.36409 0.19941 0.0
C1656 C 0.44064 0.37672 0.0965 0.0
C1657 C 0.44726 0.36697 0.2336 0.0
C1658 C 0.4046 0.34937 0.95065 0.0
C1659 C 0.40729 0.35981 0.98673 0.0
C1660 C 0.39955 0.35455 0.09141 0.0
C1661 C 0.43889 0.37824 0.16874 0.0
C1662 C 0.4286 0.37295 0.13037 0.0
C1663 C 0.40488 0.34777 0.02023 0.0
C1664 C 0.41201 0.35774 0.0579 0.0
H1665 H 0.47857 0.41192 0.21103 0.0
H1666 H 0.45684 0.40771 0.15173 0.0
H1667 H 0.39753 0.35952 0.15238 0.0
H1668 H 0.39136 0.29743 0.97869 0.0
H1669 H 0.39612 0.31569 0.04219 0.0
C1670 C 0.40825 0.66988 0.05362 0.0
C1671 C 0.41273 0.65835 0.08704 0.0
C1672 C 0.40922 0.65883 0.01758 0.0
C1673 C 0.40849 0.62802 0.94419 0.0
H1674 H 0.46734 0.60119 0.93716 0.0
C1675 C 0.47722 0.58824 0.82646 0.0
C1676 C 0.47326 0.60315 0.7973 0.0
C1677 C 0.46475 0.58968 0.86055 0.0
C1678 C 0.45057 0.60794 0.93843 0.0
H1679 H 0.41919 0.62592 0.10953 0.0
H1680 H 0.42098 0.60678 0.04687 0.0
H1681 H 0.4528 0.61336 0.99923 0.0
H1682 H 0.45244 0.6304 0.77979 0.0
H1683 H 0.43166 0.63363 0.83912 0.0
H1684 H 0.40607 0.62239 0.88341 0.0
C1685 C 0.41701 0.62431 0.04834 0.0
C1686 C 0.44231 0.61511 0.97418 0.0
C1687 C 0.41598 0.6353 0.08418 0.0
C1688 C 0.45587 0.61863 0.80182 0.0
C1689 C 0.44375 0.62036 0.83595 0.0
C1690 C 0.41652 0.62033 0.90839 0.0
C1691 C 0.41467 0.63615 1.01466 0.0
C1692 C 0.42149 0.62579 0.9773 0.0
C1693 C 0.44841 0.60634 0.86633 0.0
C1694 C 0.43803 0.61085 0.90483 0.0
H1695 H 0.40551 0.68762 0.05515 0.0
H1696 H 0.40742 0.66836 0.992 0.0
H1697 H 0.39229 0.63602 0.94592 0.0
H1698 H 0.49047 0.57607 0.82357 0.0
H1699 H 0.46847 0.57819 0.88284 0.0
C1700 C 0.14214 0.66215 0.4973 0.0
C1701 C 0.15223 0.68319 0.49801 0.0
C1702 C 0.13729 0.65176 0.53158 0.0
C1703 C 0.14596 0.65525 0.63776 0.0
H1704 H 0.08429 0.63521 0.64055 0.0
C1705 C 0.09323 0.65734 0.77535 0.0
C1706 C 0.07731 0.64064 0.781 0.0
C1707 C 0.10559 0.65765 0.7414 0.0
C1708 C 0.10169 0.64027 0.64021 0.0
H1709 H 0.16661 0.70922 0.5347 0.0
H1710 H 0.15801 0.69129 0.5945 0.0
H1711 H 0.10119 0.64409 0.5795 0.0
H1712 H 0.0622 0.61078 0.75622 0.0
H1713 H 0.08385 0.61131 0.69642 0.0
H1714 H 0.14605 0.6523 0.69885 0.0
C1715 C 0.15399 0.68261 0.56763 0.0
C1716 C 0.11143 0.64535 0.60512 0.0
C1717 C 0.15887 0.69295 0.53335 0.0
C1718 C 0.07437 0.62386 0.75249 0.0
C1719 C 0.08669 0.62422 0.71829 0.0
C1720 C 0.1362 0.6502 0.67288 0.0
C1721 C 0.14239 0.66226 0.56721 0.0
C1722 C 0.13348 0.6535 0.60359 0.0
C1723 C 0.10225 0.6413 0.7122 0.0
C1724 C 0.11374 0.64326 0.67461 0.0
H1725 H 0.13692 0.65422 0.47038 0.0
H1726 H 0.12872 0.63591 0.53022 0.0
H1727 H 0.1631 0.66111 0.63751 0.0
H1728 H 0.09582 0.6705 0.79688 0.0
H1729 H 0.11716 0.67122 0.73745 0.0
C1730 C 0.09187 0.38116 0.28425 0.0
C1731 C 0.09754 0.3695 0.25004 0.0
C1732 C 0.10455 0.37851 0.31759 0.0
C1733 C 0.13829 0.33586 0.36103 0.0
H1734 H 0.15141 0.38131 0.43926 0.0
C1735 C 0.17098 0.31038 0.50685 0.0
C1736 C 0.16008 0.32056 0.53847 0.0
C1737 C 0.16958 0.31955 0.4706 0.0
C1738 C 0.14781 0.36839 0.41777 0.0
H1739 H 0.12163 0.34711 0.22303 0.0
H1740 H 0.14375 0.34256 0.28101 0.0
H1741 H 0.13645 0.39186 0.37719 0.0
H1742 H 0.14076 0.3492 0.5578 0.0
H1743 H 0.13774 0.36482 0.49476 0.0
H1744 H 0.14832 0.31227 0.40168 0.0
C1745 C 0.12942 0.35353 0.28233 0.0
C1746 C 0.13928 0.37447 0.3822 0.0
C1747 C 0.11681 0.35622 0.24909 0.0
C1748 C 0.14935 0.34099 0.5339 0.0
C1749 C 0.1477 0.35 0.49761 0.0
C1750 C 0.14656 0.32977 0.39657 0.0
C1751 C 0.12304 0.36408 0.31723 0.0
C1752 C 0.13413 0.35822 0.35365 0.0
C1753 C 0.15696 0.3389 0.46515 0.0
C1754 C 0.15111 0.34589 0.42573 0.0
H1755 H 0.07704 0.39146 0.28576 0.0
H1756 H 0.09912 0.38675 0.3441 0.0
H1757 H 0.13414 0.32289 0.33991 0.0
H1758 H 0.17947 0.29467 0.50965 0.0
H1759 H 0.1775 0.31085 0.4465 0.0
loop_
_geom_bond_atom_site_label_1
_geom_bond_atom_site_label_2
_geom_bond_distance
_geom_bond_site_symmetry_2
_ccdc_geom_bond_type
Tb0 O3 2.453 . S
Tb0 O4 2.596 . S
Tb0 O5 2.374 . S
Tb0 O13 2.343 . S
Tb0 O15 2.353 . S
Tb0 O17 2.427 . S
Tb0 O18 2.513 . S
C1 O5 1.251 . S
C1 O7 1.263 . S
Tb2 O4 2.343 . S
Tb2 O7 2.353 . S
Tb2 O10 2.427 . S
Tb2 O11 2.513 . S
Tb2 O12 2.453 . S
Tb2 O13 2.596 . S
Tb2 O14 2.374 . S
O3 Tb0 2.453 . S
O3 C19 1.245 . S
O4 Tb0 2.596 . S
O4 Tb2 2.343 . S
O4 C19 1.259 . S
O5 Tb0 2.374 . S
O5 C1 1.251 . S
C6 O10 1.275 . S
C6 O11 1.246 . S
O7 C1 1.263 . S
O7 Tb2 2.353 . S
C8 O12 1.245 . S
C8 O13 1.259 . S
C9 O14 1.250 . S
C9 O15 1.263 . S
O10 Tb2 2.427 . S
O10 C6 1.275 . S
O11 Tb2 2.513 . S
O11 C6 1.246 . S
O12 Tb2 2.453 . S
O12 C8 1.245 . S
O13 Tb0 2.343 . S
O13 Tb2 2.596 . S
O13 C8 1.259 . S
O14 Tb2 2.374 . S
O14 C9 1.250 . S
O15 Tb0 2.353 . S
O15 C9 1.263 . S
C16 O17 1.275 . S
C16 O18 1.246 . S
O17 Tb0 2.427 . S
O17 C16 1.275 . S
O18 Tb0 2.513 . S
O18 C16 1.246 . S
C19 O3 1.245 . S
C19 O4 1.259 . S
Tb20 O23 2.453 . S
Tb20 O24 2.596 . S
Tb20 O25 2.374 . S
Tb20 O33 2.343 . S
Tb20 O35 2.353 . S
Tb20 O37 2.427 . S
Tb20 O38 2.513 . S
C21 O25 1.251 . S
C21 O27 1.263 . S
Tb22 O24 2.343 . S
Tb22 O27 2.353 . S
Tb22 O30 2.427 . S
Tb22 O31 2.513 . S
Tb22 O32 2.453 . S
Tb22 O33 2.596 . S
Tb22 O34 2.374 . S
O23 Tb20 2.453 . S
O23 C39 1.245 . S
O24 Tb20 2.596 . S
O24 Tb22 2.343 . S
O24 C39 1.259 . S
O25 Tb20 2.374 . S
O25 C21 1.251 . S
C26 O30 1.275 . S
C26 O31 1.246 . S
O27 C21 1.263 . S
O27 Tb22 2.353 . S
C28 O32 1.245 . S
C28 O33 1.259 . S
C29 O34 1.250 . S
C29 O35 1.263 . S
O30 Tb22 2.427 . S
O30 C26 1.275 . S
O31 Tb22 2.513 . S
O31 C26 1.246 . S
O32 Tb22 2.453 . S
O32 C28 1.245 . S
O33 Tb20 2.343 . S
O33 Tb22 2.596 . S
O33 C28 1.259 . S
O34 Tb22 2.374 . S
O34 C29 1.250 . S
O35 Tb20 2.353 . S
O35 C29 1.263 . S
C36 O37 1.275 . S
C36 O38 1.246 . S
O37 Tb20 2.427 . S
O37 C36 1.275 . S
O38 Tb20 2.513 . S
O38 C36 1.246 . S
C39 O23 1.245 . S
C39 O24 1.259 . S
Tb40 O43 2.453 . S
Tb40 O44 2.596 . S
Tb40 O45 2.374 . S
Tb40 O53 2.343 . S
Tb40 O55 2.353 . S
Tb40 O57 2.427 . S
Tb40 O58 2.513 . S
C41 O45 1.251 . S
C41 O47 1.263 . S
Tb42 O44 2.343 . S
Tb42 O47 2.353 . S
Tb42 O50 2.427 . S
Tb42 O51 2.513 . S
Tb42 O52 2.453 . S
Tb42 O53 2.596 . S
Tb42 O54 2.374 . S
O43 Tb40 2.453 . S
O43 C59 1.245 . S
O44 Tb40 2.596 . S
O44 Tb42 2.343 . S
O44 C59 1.259 . S
O45 Tb40 2.374 . S
O45 C41 1.251 . S
C46 O50 1.275 . S
C46 O51 1.246 . S
O47 C41 1.263 . S
O47 Tb42 2.353 . S
C48 O52 1.245 . S
C48 O53 1.259 . S
C49 O54 1.250 . S
C49 O55 1.263 . S
O50 Tb42 2.427 . S
O50 C46 1.275 . S
O51 Tb42 2.513 . S
O51 C46 1.246 . S
O52 Tb42 2.453 . S
O52 C48 1.245 . S
O53 Tb40 2.343 . S
O53 Tb42 2.596 . S
O53 C48 1.259 . S
O54 Tb42 2.374 . S
O54 C49 1.250 . S
O55 Tb40 2.353 . S
O55 C49 1.263 . S
C56 O57 1.275 . S
C56 O58 1.246 . S
O57 Tb40 2.427 . S
O57 C56 1.275 . S
O58 Tb40 2.513 . S
O58 C56 1.246 . S
C59 O43 1.245 . S
C59 O44 1.259 . S
Tb60 O63 2.453 . S
Tb60 O64 2.596 . S
Tb60 O65 2.374 . S
Tb60 O73 2.343 . S
Tb60 O75 2.353 . S
Tb60 O77 2.427 . S
Tb60 O78 2.513 . S
C61 O65 1.251 . S
C61 O67 1.263 . S
Tb62 O64 2.343 . S
Tb62 O67 2.353 . S
Tb62 O70 2.427 . S
Tb62 O71 2.513 . S
Tb62 O72 2.453 . S
Tb62 O73 2.596 . S
Tb62 O74 2.374 . S
O63 Tb60 2.453 . S
O63 C79 1.245 . S
O64 Tb60 2.596 . S
O64 Tb62 2.343 . S
O64 C79 1.259 . S
O65 Tb60 2.374 . S
O65 C61 1.251 . S
C66 O70 1.275 . S
C66 O71 1.246 . S
O67 C61 1.263 . S
O67 Tb62 2.353 . S
C68 O72 1.245 . S
C68 O73 1.259 . S
C69 O74 1.250 . S
C69 O75 1.263 . S
O70 Tb62 2.427 . S
O70 C66 1.275 . S
O71 Tb62 2.513 . S
O71 C66 1.246 . S
O72 Tb62 2.453 . S
O72 C68 1.245 . S
O73 Tb60 2.343 . S
O73 Tb62 2.596 . S
O73 C68 1.259 . S
O74 Tb62 2.374 . S
O74 C69 1.250 . S
O75 Tb60 2.353 . S
O75 C69 1.263 . S
C76 O77 1.275 . S
C76 O78 1.246 . S
O77 Tb60 2.427 . S
O77 C76 1.275 . S
O78 Tb60 2.513 . S
O78 C76 1.246 . S
C79 O63 1.245 . S
C79 O64 1.259 . S
Tb80 O83 2.453 . S
Tb80 O84 2.596 . S
Tb80 O85 2.374 . S
Tb80 O93 2.343 . S
Tb80 O95 2.353 . S
Tb80 O97 2.427 . S
Tb80 O98 2.513 . S
C81 O85 1.251 . S
C81 O87 1.263 . S
Tb82 O84 2.343 . S
Tb82 O87 2.353 . S
Tb82 O90 2.427 . S
Tb82 O91 2.513 . S
Tb82 O92 2.453 . S
Tb82 O93 2.596 . S
Tb82 O94 2.374 . S
O83 Tb80 2.453 . S
O83 C99 1.245 . S
O84 Tb80 2.596 . S
O84 Tb82 2.343 . S
O84 C99 1.259 . S
O85 Tb80 2.374 . S
O85 C81 1.251 . S
C86 O90 1.275 . S
C86 O91 1.246 . S
O87 C81 1.263 . S
O87 Tb82 2.353 . S
C88 O92 1.245 . S
C88 O93 1.259 . S
C89 O94 1.250 . S
C89 O95 1.263 . S
O90 Tb82 2.427 . S
O90 C86 1.275 . S
O91 Tb82 2.513 . S
O91 C86 1.246 . S
O92 Tb82 2.453 . S
O92 C88 1.245 . S
O93 Tb80 2.343 . S
O93 Tb82 2.596 . S
O93 C88 1.259 . S
O94 Tb82 2.374 . S
O94 C89 1.250 . S
O95 Tb80 2.353 . S
O95 C89 1.263 . S
C96 O97 1.275 . S
C96 O98 1.246 . S
O97 Tb80 2.427 . S
O97 C96 1.275 . S
O98 Tb80 2.513 . S
O98 C96 1.246 . S
C99 O83 1.245 . S
C99 O84 1.259 . S
Tb100 O103 2.453 . S
Tb100 O104 2.596 . S
Tb100 O105 2.374 . S
Tb100 O113 2.343 . S
Tb100 O115 2.353 . S
Tb100 O117 2.427 . S
Tb100 O118 2.513 . S
C101 O105 1.251 . S
C101 O107 1.263 . S
Tb102 O104 2.343 . S
Tb102 O107 2.353 . S
Tb102 O110 2.427 . S
Tb102 O111 2.513 . S
Tb102 O112 2.453 . S
Tb102 O113 2.596 . S
Tb102 O114 2.374 . S
O103 Tb100 2.453 . S
O103 C119 1.245 . S
O104 Tb100 2.596 . S
O104 Tb102 2.343 . S
O104 C119 1.259 . S
O105 Tb100 2.374 . S
O105 C101 1.251 . S
C106 O110 1.275 . S
C106 O111 1.246 . S
O107 C101 1.263 . S
O107 Tb102 2.353 . S
C108 O112 1.245 . S
C108 O113 1.259 . S
C109 O114 1.250 . S
C109 O115 1.263 . S
O110 Tb102 2.427 . S
O110 C106 1.275 . S
O111 Tb102 2.513 . S
O111 C106 1.246 . S
O112 Tb102 2.453 . S
O112 C108 1.245 . S
O113 Tb100 2.343 . S
O113 Tb102 2.596 . S
O113 C108 1.259 . S
O114 Tb102 2.374 . S
O114 C109 1.250 . S
O115 Tb100 2.353 . S
O115 C109 1.263 . S
C116 O117 1.275 . S
C116 O118 1.246 . S
O117 Tb100 2.427 . S
O117 C116 1.275 . S
O118 Tb100 2.513 . S
O118 C116 1.246 . S
C119 O103 1.245 . S
C119 O104 1.259 . S
Tb120 O123 2.453 . S
Tb120 O124 2.596 . S
Tb120 O125 2.374 . S
Tb120 O133 2.343 . S
Tb120 O135 2.353 . S
Tb120 O137 2.427 . S
Tb120 O138 2.513 . S
C121 O125 1.251 . S
C121 O127 1.263 . S
Tb122 O124 2.343 . S
Tb122 O127 2.353 . S
Tb122 O130 2.427 . S
Tb122 O131 2.513 . S
Tb122 O132 2.453 . S
Tb122 O133 2.596 . S
Tb122 O134 2.374 . S
O123 Tb120 2.453 . S
O123 C139 1.245 . S
O124 Tb120 2.596 . S
O124 Tb122 2.343 . S
O124 C139 1.259 . S
O125 Tb120 2.374 . S
O125 C121 1.251 . S
C126 O130 1.275 . S
C126 O131 1.246 . S
O127 C121 1.263 . S
O127 Tb122 2.353 . S
C128 O132 1.245 . S
C128 O133 1.259 . S
C129 O134 1.250 . S
C129 O135 1.263 . S
O130 Tb122 2.427 . S
O130 C126 1.275 . S
O131 Tb122 2.513 . S
O131 C126 1.246 . S
O132 Tb122 2.453 . S
O132 C128 1.245 . S
O133 Tb120 2.343 . S
O133 Tb122 2.596 . S
O133 C128 1.259 . S
O134 Tb122 2.374 . S
O134 C129 1.250 . S
O135 Tb120 2.353 . S
O135 C129 1.263 . S
C136 O137 1.275 . S
C136 O138 1.246 . S
O137 Tb120 2.427 . S
O137 C136 1.275 . S
O138 Tb120 2.513 . S
O138 C136 1.246 . S
C139 O123 1.245 . S
C139 O124 1.259 . S
Tb140 O143 2.453 . S
Tb140 O144 2.596 . S
Tb140 O145 2.374 . S
Tb140 O153 2.343 . S
Tb140 O155 2.353 . S
Tb140 O157 2.427 . S
Tb140 O158 2.513 . S
C141 O145 1.251 . S
C141 O147 1.263 . S
Tb142 O144 2.343 . S
Tb142 O147 2.353 . S
Tb142 O150 2.427 . S
Tb142 O151 2.513 . S
Tb142 O152 2.453 . S
Tb142 O153 2.596 . S
Tb142 O154 2.374 . S
O143 Tb140 2.453 . S
O143 C159 1.245 . S
O144 Tb140 2.596 . S
O144 Tb142 2.343 . S
O144 C159 1.259 . S
O145 Tb140 2.374 . S
O145 C141 1.251 . S
C146 O150 1.275 . S
C146 O151 1.246 . S
O147 C141 1.263 . S
O147 Tb142 2.353 . S
C148 O152 1.245 . S
C148 O153 1.259 . S
C149 O154 1.250 . S
C149 O155 1.263 . S
O150 Tb142 2.427 . S
O150 C146 1.275 . S
O151 Tb142 2.513 . S
O151 C146 1.246 . S
O152 Tb142 2.453 . S
O152 C148 1.245 . S
O153 Tb140 2.343 . S
O153 Tb142 2.596 . S
O153 C148 1.259 . S
O154 Tb142 2.374 . S
O154 C149 1.250 . S
O155 Tb140 2.353 . S
O155 C149 1.263 . S
C156 O157 1.275 . S
C156 O158 1.246 . S
O157 Tb140 2.427 . S
O157 C156 1.275 . S
O158 Tb140 2.513 . S
O158 C156 1.246 . S
C159 O143 1.245 . S
C159 O144 1.259 . S
Tb160 O163 2.453 . S
Tb160 O164 2.596 . S
Tb160 O165 2.374 . S
Tb160 O173 2.343 . S
Tb160 O175 2.353 . S
Tb160 O177 2.427 . S
Tb160 O178 2.513 . S
C161 O165 1.251 . S
C161 O167 1.263 . S
Tb162 O164 2.343 . S
Tb162 O167 2.353 . S
Tb162 O170 2.427 . S
Tb162 O171 2.513 . S
Tb162 O172 2.453 . S
Tb162 O173 2.596 . S
Tb162 O174 2.374 . S
O163 Tb160 2.453 . S
O163 C179 1.245 . S
O164 Tb160 2.596 . S
O164 Tb162 2.343 . S
O164 C179 1.259 . S
O165 Tb160 2.374 . S
O165 C161 1.251 . S
C166 O170 1.275 . S
C166 O171 1.246 . S
O167 C161 1.263 . S
O167 Tb162 2.353 . S
C168 O172 1.245 . S
C168 O173 1.259 . S
C169 O174 1.250 . S
C169 O175 1.263 . S
O170 Tb162 2.427 . S
O170 C166 1.275 . S
O171 Tb162 2.513 . S
O171 C166 1.246 . S
O172 Tb162 2.453 . S
O172 C168 1.245 . S
O173 Tb160 2.343 . S
O173 Tb162 2.596 . S
O173 C168 1.259 . S
O174 Tb162 2.374 . S
O174 C169 1.250 . S
O175 Tb160 2.353 . S
O175 C169 1.263 . S
C176 O177 1.275 . S
C176 O178 1.246 . S
O177 Tb160 2.427 . S
O177 C176 1.275 . S
O178 Tb160 2.513 . S
O178 C176 1.246 . S
C179 O163 1.245 . S
C179 O164 1.259 . S
Tb180 O183 2.453 . S
Tb180 O184 2.596 . S
Tb180 O185 2.374 . S
Tb180 O193 2.343 . S
Tb180 O195 2.353 . S
Tb180 O197 2.427 . S
Tb180 O198 2.513 . S
C181 O185 1.251 . S
C181 O187 1.263 . S
Tb182 O184 2.343 . S
Tb182 O187 2.353 . S
Tb182 O190 2.427 . S
Tb182 O191 2.513 . S
Tb182 O192 2.453 . S
Tb182 O193 2.596 . S
Tb182 O194 2.374 . S
O183 Tb180 2.453 . S
O183 C199 1.245 . S
O184 Tb180 2.596 . S
O184 Tb182 2.343 . S
O184 C199 1.259 . S
O185 Tb180 2.374 . S
O185 C181 1.251 . S
C186 O190 1.275 . S
C186 O191 1.246 . S
O187 C181 1.263 . S
O187 Tb182 2.353 . S
C188 O192 1.245 . S
C188 O193 1.259 . S
C189 O194 1.250 . S
C189 O195 1.263 . S
O190 Tb182 2.427 . S
O190 C186 1.275 . S
O191 Tb182 2.513 . S
O191 C186 1.246 . S
O192 Tb182 2.453 . S
O192 C188 1.245 . S
O193 Tb180 2.343 . S
O193 Tb182 2.596 . S
O193 C188 1.259 . S
O194 Tb182 2.374 . S
O194 C189 1.250 . S
O195 Tb180 2.353 . S
O195 C189 1.263 . S
C196 O197 1.275 . S
C196 O198 1.246 . S
O197 Tb180 2.427 . S
O197 C196 1.275 . S
O198 Tb180 2.513 . S
O198 C196 1.246 . S
C199 O183 1.245 . S
C199 O184 1.259 . S
Tb200 O203 2.453 . S
Tb200 O204 2.596 . S
Tb200 O205 2.374 . S
Tb200 O213 2.343 . S
Tb200 O215 2.353 . S
Tb200 O217 2.427 . S
Tb200 O218 2.513 . S
C201 O205 1.251 . S
C201 O207 1.263 . S
Tb202 O204 2.343 . S
Tb202 O207 2.353 . S
Tb202 O210 2.427 . S
Tb202 O211 2.513 . S
Tb202 O212 2.453 . S
Tb202 O213 2.596 . S
Tb202 O214 2.374 . S
O203 Tb200 2.453 . S
O203 C219 1.245 . S
O204 Tb200 2.596 . S
O204 Tb202 2.343 . S
O204 C219 1.259 . S
O205 Tb200 2.374 . S
O205 C201 1.251 . S
C206 O210 1.275 . S
C206 O211 1.246 . S
O207 C201 1.263 . S
O207 Tb202 2.353 . S
C208 O212 1.245 . S
C208 O213 1.259 . S
C209 O214 1.250 . S
C209 O215 1.263 . S
O210 Tb202 2.427 . S
O210 C206 1.275 . S
O211 Tb202 2.513 . S
O211 C206 1.246 . S
O212 Tb202 2.453 . S
O212 C208 1.245 . S
O213 Tb200 2.343 . S
O213 Tb202 2.596 . S
O213 C208 1.259 . S
O214 Tb202 2.374 . S
O214 C209 1.250 . S
O215 Tb200 2.353 . S
O215 C209 1.263 . S
C216 O217 1.275 . S
C216 O218 1.246 . S
O217 Tb200 2.427 . S
O217 C216 1.275 . S
O218 Tb200 2.513 . S
O218 C216 1.246 . S
C219 O203 1.245 . S
C219 O204 1.259 . S
Tb220 O223 2.453 . S
Tb220 O224 2.596 . S
Tb220 O225 2.374 . S
Tb220 O233 2.343 . S
Tb220 O235 2.353 . S
Tb220 O237 2.427 . S
Tb220 O238 2.513 . S
C221 O225 1.251 . S
C221 O227 1.263 . S
Tb222 O224 2.343 . S
Tb222 O227 2.353 . S
Tb222 O230 2.427 . S
Tb222 O231 2.513 . S
Tb222 O232 2.453 . S
Tb222 O233 2.596 . S
Tb222 O234 2.374 . S
O223 Tb220 2.453 . S
O223 C239 1.245 . S
O224 Tb220 2.596 . S
O224 Tb222 2.343 . S
O224 C239 1.259 . S
O225 Tb220 2.374 . S
O225 C221 1.251 . S
C226 O230 1.275 . S
C226 O231 1.246 . S
O227 C221 1.263 . S
O227 Tb222 2.353 . S
C228 O232 1.245 . S
C228 O233 1.259 . S
C229 O234 1.250 . S
C229 O235 1.263 . S
O230 Tb222 2.427 . S
O230 C226 1.275 . S
O231 Tb222 2.513 . S
O231 C226 1.246 . S
O232 Tb222 2.453 . S
O232 C228 1.245 . S
O233 Tb220 2.343 . S
O233 Tb222 2.596 . S
O233 C228 1.259 . S
O234 Tb222 2.374 . S
O234 C229 1.250 . S
O235 Tb220 2.353 . S
O235 C229 1.263 . S
C236 O237 1.275 . S
C236 O238 1.246 . S
O237 Tb220 2.427 . S
O237 C236 1.275 . S
O238 Tb220 2.513 . S
O238 C236 1.246 . S
C239 O223 1.245 . S
C239 O224 1.259 . S
Tb240 O243 2.453 . S
Tb240 O244 2.596 . S
Tb240 O245 2.374 . S
Tb240 O253 2.343 . S
Tb240 O255 2.353 . S
Tb240 O257 2.427 . S
Tb240 O258 2.513 . S
C241 O245 1.251 . S
C241 O247 1.263 . S
Tb242 O244 2.343 . S
Tb242 O247 2.353 . S
Tb242 O250 2.427 . S
Tb242 O251 2.513 . S
Tb242 O252 2.453 . S
Tb242 O253 2.596 . S
Tb242 O254 2.374 . S
O243 Tb240 2.453 . S
O243 C259 1.245 . S
O244 Tb240 2.596 . S
O244 Tb242 2.343 . S
O244 C259 1.259 . S
O245 Tb240 2.374 . S
O245 C241 1.251 . S
C246 O250 1.275 . S
C246 O251 1.246 . S
O247 C241 1.263 . S
O247 Tb242 2.353 . S
C248 O252 1.245 . S
C248 O253 1.259 . S
C249 O254 1.250 . S
C249 O255 1.263 . S
O250 Tb242 2.427 . S
O250 C246 1.275 . S
O251 Tb242 2.513 . S
O251 C246 1.246 . S
O252 Tb242 2.453 . S
O252 C248 1.245 . S
O253 Tb240 2.343 . S
O253 Tb242 2.596 . S
O253 C248 1.259 . S
O254 Tb242 2.374 . S
O254 C249 1.250 . S
O255 Tb240 2.353 . S
O255 C249 1.263 . S
C256 O257 1.275 . S
C256 O258 1.246 . S
O257 Tb240 2.427 . S
O257 C256 1.275 . S
O258 Tb240 2.513 . S
O258 C256 1.246 . S
C259 O243 1.245 . S
C259 O244 1.259 . S
Tb260 O263 2.453 . S
Tb260 O264 2.596 . S
Tb260 O265 2.374 . S
Tb260 O273 2.343 . S
Tb260 O275 2.353 . S
Tb260 O277 2.427 . S
Tb260 O278 2.513 . S
C261 O265 1.251 . S
C261 O267 1.263 1_455 S
Tb262 O264 2.343 1_655 S
Tb262 O267 2.353 . S
Tb262 O270 2.427 . S
Tb262 O271 2.513 . S
Tb262 O272 2.453 . S
Tb262 O273 2.596 1_655 S
Tb262 O274 2.374 . S
O263 Tb260 2.453 . S
O263 C279 1.245 . S
O264 Tb260 2.596 . S
O264 Tb262 2.343 1_455 S
O264 C279 1.259 . S
O265 Tb260 2.374 . S
O265 C261 1.251 . S
C266 O270 1.275 . S
C266 O271 1.246 . S
O267 C261 1.263 1_655 S
O267 Tb262 2.353 . S
C268 O272 1.245 . S
C268 O273 1.259 1_655 S
C269 O274 1.250 1_455 S
C269 O275 1.263 . S
O270 Tb262 2.427 . S
O270 C266 1.275 . S
O271 Tb262 2.513 . S
O271 C266 1.246 . S
O272 Tb262 2.453 . S
O272 C268 1.245 . S
O273 Tb260 2.343 . S
O273 Tb262 2.596 1_455 S
O273 C268 1.259 1_455 S
O274 Tb262 2.374 . S
O274 C269 1.250 1_655 S
O275 Tb260 2.353 . S
O275 C269 1.263 . S
C276 O277 1.275 . S
C276 O278 1.246 . S
O277 Tb260 2.427 . S
O277 C276 1.275 . S
O278 Tb260 2.513 . S
O278 C276 1.246 . S
C279 O263 1.245 . S
C279 O264 1.259 . S
Tb280 O283 2.453 . S
Tb280 O284 2.596 . S
Tb280 O285 2.374 . S
Tb280 O293 2.343 . S
Tb280 O295 2.353 . S
Tb280 O297 2.427 . S
Tb280 O298 2.513 . S
C281 O285 1.251 . S
C281 O287 1.263 . S
Tb282 O284 2.343 . S
Tb282 O287 2.353 . S
Tb282 O290 2.427 . S
Tb282 O291 2.513 . S
Tb282 O292 2.453 . S
Tb282 O293 2.596 . S
Tb282 O294 2.374 . S
O283 Tb280 2.453 . S
O283 C299 1.245 . S
O284 Tb280 2.596 . S
O284 Tb282 2.343 . S
O284 C299 1.259 . S
O285 Tb280 2.374 . S
O285 C281 1.251 . S
C286 O290 1.275 . S
C286 O291 1.246 . S
O287 C281 1.263 . S
O287 Tb282 2.353 . S
C288 O292 1.245 . S
C288 O293 1.259 . S
C289 O294 1.250 . S
C289 O295 1.263 . S
O290 Tb282 2.427 . S
O290 C286 1.275 . S
O291 Tb282 2.513 . S
O291 C286 1.246 . S
O292 Tb282 2.453 . S
O292 C288 1.245 . S
O293 Tb280 2.343 . S
O293 Tb282 2.596 . S
O293 C288 1.259 . S
O294 Tb282 2.374 . S
O294 C289 1.250 . S
O295 Tb280 2.353 . S
O295 C289 1.263 . S
C296 O297 1.275 . S
C296 O298 1.246 . S
O297 Tb280 2.427 . S
O297 C296 1.275 . S
O298 Tb280 2.513 . S
O298 C296 1.246 . S
C299 O283 1.245 . S
C299 O284 1.259 . S
Tb300 O303 2.453 . S
Tb300 O304 2.596 . S
Tb300 O305 2.374 . S
Tb300 O313 2.343 . S
Tb300 O315 2.353 . S
Tb300 O317 2.427 . S
Tb300 O318 2.513 . S
C301 O305 1.251 . S
C301 O307 1.263 1_455 S
Tb302 O304 2.343 1_655 S
Tb302 O307 2.353 . S
Tb302 O310 2.427 . S
Tb302 O311 2.513 . S
Tb302 O312 2.453 . S
Tb302 O313 2.596 1_655 S
Tb302 O314 2.374 . S
O303 Tb300 2.453 . S
O303 C319 1.245 . S
O304 Tb300 2.596 . S
O304 Tb302 2.343 1_455 S
O304 C319 1.259 . S
O305 Tb300 2.374 . S
O305 C301 1.251 . S
C306 O310 1.275 . S
C306 O311 1.246 . S
O307 C301 1.263 1_655 S
O307 Tb302 2.353 . S
C308 O312 1.245 . S
C308 O313 1.259 1_655 S
C309 O314 1.250 1_455 S
C309 O315 1.263 . S
O310 Tb302 2.427 . S
O310 C306 1.275 . S
O311 Tb302 2.513 . S
O311 C306 1.246 . S
O312 Tb302 2.453 . S
O312 C308 1.245 . S
O313 Tb300 2.343 . S
O313 Tb302 2.596 1_455 S
O313 C308 1.259 1_455 S
O314 Tb302 2.374 . S
O314 C309 1.250 1_655 S
O315 Tb300 2.353 . S
O315 C309 1.263 . S
C316 O317 1.275 . S
C316 O318 1.246 . S
O317 Tb300 2.427 . S
O317 C316 1.275 . S
O318 Tb300 2.513 . S
O318 C316 1.246 . S
C319 O303 1.245 . S
C319 O304 1.259 . S
C320 C321 1.349 . S
C320 C322 1.327 1_554 S
C320 H345 0.950 . S
C321 C320 1.349 . S
C321 C337 1.349 1_554 S
C322 C320 1.327 1_556 S
C322 C341 1.429 . S
C322 H346 0.950 . S
C323 C340 1.574 . S
C323 C342 1.368 . S
C323 H347 0.949 . S
H324 C328 0.949 . S
C325 C326 1.349 . S
C325 C327 1.327 . S
C325 H348 0.950 . S
C326 C325 1.349 . S
C326 C338 1.349 . S
C327 C325 1.327 . S
C327 C343 1.429 . S
C327 H349 0.950 . S
C328 H324 0.949 . S
C328 C336 1.574 . S
C328 C344 1.368 . S
H329 C337 0.950 . S
H330 C335 0.950 . S
H331 C336 0.949 . S
H332 C338 0.950 . S
H333 C339 0.950 . S
H334 C340 0.949 . S
C335 H330 0.950 . S
C335 C337 1.327 . S
C335 C341 1.429 . S
C336 C328 1.574 . S
C336 H331 0.949 . S
C336 C342 1.368 . S
C337 C321 1.349 1_556 S
C337 H329 0.950 . S
C337 C335 1.327 . S
C338 C326 1.349 . S
C338 H332 0.950 . S
C338 C339 1.327 . S
C339 H333 0.950 . S
C339 C338 1.327 . S
C339 C343 1.429 . S
C340 C323 1.574 . S
C340 H334 0.949 . S
C340 C344 1.368 . S
C341 C322 1.429 . S
C341 C335 1.429 . S
C341 C342 1.523 . S
C342 C323 1.368 . S
C342 C336 1.368 . S
C342 C341 1.523 . S
C343 C327 1.429 . S
C343 C339 1.429 . S
C343 C344 1.523 . S
C344 C328 1.368 . S
C344 C340 1.368 . S
C344 C343 1.523 . S
H345 C320 0.950 . S
H346 C322 0.950 . S
H347 C323 0.949 . S
H348 C325 0.950 . S
H349 C327 0.950 . S
C350 C351 1.349 . S
C350 C352 1.327 . S
C350 H375 0.950 . S
C351 C350 1.349 . S
C351 C367 1.349 . S
C352 C350 1.327 . S
C352 C371 1.429 . S
C352 H376 0.950 . S
C353 C370 1.574 . S
C353 C372 1.368 . S
C353 H377 0.949 . S
H354 C358 0.949 . S
C355 C356 1.349 . S
C355 C357 1.327 1_556 S
C355 H378 0.950 . S
C356 C355 1.349 . S
C356 C368 1.349 1_556 S
C357 C355 1.327 1_554 S
C357 C373 1.429 . S
C357 H379 0.950 . S
C358 H354 0.949 . S
C358 C366 1.574 . S
C358 C374 1.368 . S
H359 C367 0.950 . S
H360 C365 0.950 . S
H361 C366 0.949 . S
H362 C368 0.950 . S
H363 C369 0.950 . S
H364 C370 0.949 . S
C365 H360 0.950 . S
C365 C367 1.327 . S
C365 C371 1.429 . S
C366 C358 1.574 . S
C366 H361 0.949 . S
C366 C372 1.368 . S
C367 C351 1.349 . S
C367 H359 0.950 . S
C367 C365 1.327 . S
C368 C356 1.349 1_554 S
C368 H362 0.950 . S
C368 C369 1.327 . S
C369 H363 0.950 . S
C369 C368 1.327 . S
C369 C373 1.429 . S
C370 C353 1.574 . S
C370 H364 0.949 . S
C370 C374 1.368 . S
C371 C352 1.429 . S
C371 C365 1.429 . S
C371 C372 1.523 . S
C372 C353 1.368 . S
C372 C366 1.368 . S
C372 C371 1.523 . S
C373 C357 1.429 . S
C373 C369 1.429 . S
C373 C374 1.523 . S
C374 C358 1.368 . S
C374 C370 1.368 . S
C374 C373 1.523 . S
H375 C350 0.950 . S
H376 C352 0.950 . S
H377 C353 0.949 . S
H378 C355 0.950 . S
H379 C357 0.950 . S
C380 C381 1.349 . S
C380 C382 1.327 . S
C380 H405 0.950 . S
C381 C380 1.349 . S
C381 C397 1.349 . S
C382 C380 1.327 . S
C382 C401 1.429 . S
C382 H406 0.950 . S
C383 C400 1.574 . S
C383 C402 1.368 . S
C383 H407 0.949 . S
H384 C388 0.949 . S
C385 C386 1.349 . S
C385 C387 1.327 . S
C385 H408 0.950 . S
C386 C385 1.349 . S
C386 C398 1.349 . S
C387 C385 1.327 . S
C387 C403 1.429 . S
C387 H409 0.950 . S
C388 H384 0.949 . S
C388 C396 1.574 . S
C388 C404 1.368 . S
H389 C397 0.950 . S
H390 C395 0.950 . S
H391 C396 0.949 . S
H392 C398 0.950 . S
H393 C399 0.950 . S
H394 C400 0.949 . S
C395 H390 0.950 . S
C395 C397 1.327 . S
C395 C401 1.429 . S
C396 C388 1.574 . S
C396 H391 0.949 . S
C396 C402 1.368 . S
C397 C381 1.349 . S
C397 H389 0.950 . S
C397 C395 1.327 . S
C398 C386 1.349 . S
C398 H392 0.950 . S
C398 C399 1.327 . S
C399 H393 0.950 . S
C399 C398 1.327 . S
C399 C403 1.429 . S
C400 C383 1.574 . S
C400 H394 0.949 . S
C400 C404 1.368 . S
C401 C382 1.429 . S
C401 C395 1.429 . S
C401 C402 1.523 . S
C402 C383 1.368 . S
C402 C396 1.368 . S
C402 C401 1.523 . S
C403 C387 1.429 . S
C403 C399 1.429 . S
C403 C404 1.523 . S
C404 C388 1.368 . S
C404 C400 1.368 . S
C404 C403 1.523 . S
H405 C380 0.950 . S
H406 C382 0.950 . S
H407 C383 0.949 . S
H408 C385 0.950 . S
H409 C387 0.950 . S
C410 C411 1.349 . S
C410 C412 1.327 . S
C410 H435 0.950 . S
C411 C410 1.349 . S
C411 C427 1.349 . S
C412 C410 1.327 . S
C412 C431 1.429 . S
C412 H436 0.950 . S
C413 C430 1.574 . S
C413 C432 1.368 . S
C413 H437 0.949 . S
H414 C418 0.949 . S
C415 C416 1.349 . S
C415 C417 1.327 . S
C415 H438 0.950 . S
C416 C415 1.349 . S
C416 C428 1.349 . S
C417 C415 1.327 . S
C417 C433 1.429 . S
C417 H439 0.950 . S
C418 H414 0.949 . S
C418 C426 1.574 . S
C418 C434 1.368 . S
H419 C427 0.950 . S
H420 C425 0.950 . S
H421 C426 0.949 . S
H422 C428 0.950 . S
H423 C429 0.950 . S
H424 C430 0.949 . S
C425 H420 0.950 . S
C425 C427 1.327 . S
C425 C431 1.429 . S
C426 C418 1.574 . S
C426 H421 0.949 . S
C426 C432 1.368 . S
C427 C411 1.349 . S
C427 H419 0.950 . S
C427 C425 1.327 . S
C428 C416 1.349 . S
C428 H422 0.950 . S
C428 C429 1.327 . S
C429 H423 0.950 . S
C429 C428 1.327 . S
C429 C433 1.429 . S
C430 C413 1.574 . S
C430 H424 0.949 . S
C430 C434 1.368 . S
C431 C412 1.429 . S
C431 C425 1.429 . S
C431 C432 1.523 . S
C432 C413 1.368 . S
C432 C426 1.368 . S
C432 C431 1.523 . S
C433 C417 1.429 . S
C433 C429 1.429 . S
C433 C434 1.523 . S
C434 C418 1.368 . S
C434 C430 1.368 . S
C434 C433 1.523 . S
H435 C410 0.950 . S
H436 C412 0.950 . S
H437 C413 0.949 . S
H438 C415 0.950 . S
H439 C417 0.950 . S
C440 C441 1.349 . S
C440 C442 1.327 . S
C440 H465 0.950 . S
C441 C440 1.349 . S
C441 C457 1.349 . S
C442 C440 1.327 . S
C442 C461 1.429 . S
C442 H466 0.950 . S
C443 C460 1.574 . S
C443 C462 1.368 . S
C443 H467 0.949 . S
H444 C448 0.949 1_455 S
C445 C446 1.349 1_655 S
C445 C447 1.327 . S
C445 H468 0.950 . S
C446 C445 1.349 1_455 S
C446 C458 1.349 . S
C447 C445 1.327 . S
C447 C463 1.429 1_556 S
C447 H469 0.950 . S
C448 H444 0.949 1_655 S
C448 C456 1.574 . S
C448 C464 1.368 . S
H449 C457 0.950 . S
H450 C455 0.950 . S
H451 C456 0.949 . S
H452 C458 0.950 . S
H453 C459 0.950 . S
H454 C460 0.949 . S
C455 H450 0.950 . S
C455 C457 1.327 . S
C455 C461 1.429 . S
C456 C448 1.574 . S
C456 H451 0.949 . S
C456 C462 1.368 . S
C457 C441 1.349 . S
C457 H449 0.950 . S
C457 C455 1.327 . S
C458 C446 1.349 . S
C458 H452 0.950 . S
C458 C459 1.327 1_556 S
C459 H453 0.950 . S
C459 C458 1.327 1_554 S
C459 C463 1.429 1_455 S
C460 C443 1.574 . S
C460 H454 0.949 . S
C460 C464 1.368 . S
C461 C442 1.429 . S
C461 C455 1.429 . S
C461 C462 1.523 . S
C462 C443 1.368 . S
C462 C456 1.368 . S
C462 C461 1.523 . S
C463 C447 1.429 1_554 S
C463 C459 1.429 1_655 S
C463 C464 1.523 . S
C464 C448 1.368 . S
C464 C460 1.368 . S
C464 C463 1.523 . S
H465 C440 0.950 . S
H466 C442 0.950 . S
H467 C443 0.949 . S
H468 C445 0.950 . S
H469 C447 0.950 . S
C470 C471 1.349 . S
C470 C472 1.327 . S
C470 H495 0.950 . S
C471 C470 1.349 . S
C471 C487 1.349 . S
C472 C470 1.327 . S
C472 C491 1.429 . S
C472 H496 0.950 . S
C473 C490 1.574 . S
C473 C492 1.368 . S
C473 H497 0.949 . S
H474 C478 0.949 . S
C475 C476 1.349 . S
C475 C477 1.325 1_455 S
C475 H498 0.950 . S
C476 C475 1.349 . S
C476 C488 1.349 . S
C477 C475 1.325 1_655 S
C477 C493 1.431 1_554 S
C477 H499 0.948 1_554 S
C478 H474 0.949 . S
C478 C486 1.574 . S
C478 C494 1.368 . S
H479 C487 0.950 . S
H480 C485 0.950 . S
H481 C486 0.949 . S
H482 C488 0.950 . S
H483 C489 0.950 . S
H484 C490 0.949 . S
C485 H480 0.950 . S
C485 C487 1.327 . S
C485 C491 1.429 . S
C486 C478 1.574 . S
C486 H481 0.949 . S
C486 C492 1.368 . S
C487 C471 1.349 . S
C487 H479 0.950 . S
C487 C485 1.327 . S
C488 C476 1.349 . S
C488 H482 0.950 . S
C488 C489 1.327 1_554 S
C489 H483 0.950 . S
C489 C488 1.327 1_556 S
C489 C493 1.429 1_455 S
C490 C473 1.574 . S
C490 H484 0.949 . S
C490 C494 1.368 . S
C491 C472 1.429 . S
C491 C485 1.429 . S
C491 C492 1.523 . S
C492 C473 1.368 . S
C492 C486 1.368 . S
C492 C491 1.523 . S
C493 C477 1.431 1_556 S
C493 C489 1.429 1_655 S
C493 C494 1.523 . S
C494 C478 1.368 . S
C494 C490 1.368 . S
C494 C493 1.523 . S
H495 C470 0.950 . S
H496 C472 0.950 . S
H497 C473 0.949 . S
H498 C475 0.950 . S
H499 C477 0.948 1_556 S
C500 C501 1.349 . S
C500 C502 1.327 . S
C500 H525 0.950 . S
C501 C500 1.349 . S
C501 C517 1.349 . S
C502 C500 1.327 . S
C502 C521 1.429 . S
C502 H526 0.950 . S
C503 C520 1.574 . S
C503 C522 1.368 . S
C503 H527 0.949 . S
H504 C508 0.949 . S
C505 C506 1.349 . S
C505 C507 1.327 . S
C505 H528 0.950 . S
C506 C505 1.349 . S
C506 C518 1.349 . S
C507 C505 1.327 . S
C507 C523 1.429 . S
C507 H529 0.950 . S
C508 H504 0.949 . S
C508 C516 1.574 . S
C508 C524 1.368 . S
H509 C517 0.950 . S
H510 C515 0.950 . S
H511 C516 0.949 . S
H512 C518 0.950 . S
H513 C519 0.950 . S
H514 C520 0.949 . S
C515 H510 0.950 . S
C515 C517 1.327 . S
C515 C521 1.429 . S
C516 C508 1.574 . S
C516 H511 0.949 . S
C516 C522 1.368 . S
C517 C501 1.349 . S
C517 H509 0.950 . S
C517 C515 1.327 . S
C518 C506 1.349 . S
C518 H512 0.950 . S
C518 C519 1.327 . S
C519 H513 0.950 . S
C519 C518 1.327 . S
C519 C523 1.429 . S
C520 C503 1.574 . S
C520 H514 0.949 . S
C520 C524 1.368 . S
C521 C502 1.429 . S
C521 C515 1.429 . S
C521 C522 1.523 . S
C522 C503 1.368 . S
C522 C516 1.368 . S
C522 C521 1.523 . S
C523 C507 1.429 . S
C523 C519 1.429 . S
C523 C524 1.523 . S
C524 C508 1.368 . S
C524 C520 1.368 . S
C524 C523 1.523 . S
H525 C500 0.950 . S
H526 C502 0.950 . S
H527 C503 0.949 . S
H528 C505 0.950 . S
H529 C507 0.950 . S
C530 C531 1.349 . S
C530 C532 1.327 . S
C530 H555 0.950 . S
C531 C530 1.349 . S
C531 C547 1.349 . S
C532 C530 1.327 . S
C532 C551 1.429 . S
C532 H556 0.950 . S
C533 C550 1.574 . S
C533 C552 1.368 . S
C533 H557 0.949 . S
H534 C538 0.949 . S
C535 C536 1.349 . S
C535 C537 1.327 . S
C535 H558 0.950 . S
C536 C535 1.349 . S
C536 C548 1.349 . S
C537 C535 1.327 . S
C537 C553 1.429 . S
C537 H559 0.950 . S
C538 H534 0.949 . S
C538 C546 1.574 . S
C538 C554 1.368 . S
H539 C547 0.950 . S
H540 C545 0.950 . S
H541 C546 0.949 . S
H542 C548 0.950 . S
H543 C549 0.950 . S
H544 C550 0.949 . S
C545 H540 0.950 . S
C545 C547 1.327 . S
C545 C551 1.429 . S
C546 C538 1.574 . S
C546 H541 0.949 . S
C546 C552 1.368 . S
C547 C531 1.349 . S
C547 H539 0.950 . S
C547 C545 1.327 . S
C548 C536 1.349 . S
C548 H542 0.950 . S
C548 C549 1.327 . S
C549 H543 0.950 . S
C549 C548 1.327 . S
C549 C553 1.429 . S
C550 C533 1.574 . S
C550 H544 0.949 . S
C550 C554 1.368 . S
C551 C532 1.429 . S
C551 C545 1.429 . S
C551 C552 1.523 . S
C552 C533 1.368 . S
C552 C546 1.368 . S
C552 C551 1.523 . S
C553 C537 1.429 . S
C553 C549 1.429 . S
C553 C554 1.523 . S
C554 C538 1.368 . S
C554 C550 1.368 . S
C554 C553 1.523 . S
H555 C530 0.950 . S
H556 C532 0.950 . S
H557 C533 0.949 . S
H558 C535 0.950 . S
H559 C537 0.950 . S
C560 C561 1.349 . S
C560 C562 1.327 . S
C560 H585 0.950 . S
C561 C560 1.349 . S
C561 C577 1.349 . S
C562 C560 1.327 . S
C562 C581 1.429 . S
C562 H586 0.950 . S
C563 C580 1.574 . S
C563 C582 1.368 . S
C563 H587 0.949 . S
H564 C568 0.949 . S
C565 C566 1.349 . S
C565 C567 1.327 . S
C565 H588 0.950 . S
C566 C565 1.349 . S
C566 C578 1.349 . S
C567 C565 1.327 . S
C567 C583 1.429 . S
C567 H589 0.950 . S
C568 H564 0.949 . S
C568 C576 1.574 . S
C568 C584 1.368 . S
H569 C577 0.950 . S
H570 C575 0.950 . S
H571 C576 0.949 . S
H572 C578 0.950 . S
H573 C579 0.950 . S
H574 C580 0.949 . S
C575 H570 0.950 . S
C575 C577 1.327 . S
C575 C581 1.429 . S
C576 C568 1.574 . S
C576 H571 0.949 . S
C576 C582 1.368 . S
C577 C561 1.349 . S
C577 H569 0.950 . S
C577 C575 1.327 . S
C578 C566 1.349 . S
C578 H572 0.950 . S
C578 C579 1.327 . S
C579 H573 0.950 . S
C579 C578 1.327 . S
C579 C583 1.429 . S
C580 C563 1.574 . S
C580 H574 0.949 . S
C580 C584 1.368 . S
C581 C562 1.429 . S
C581 C575 1.429 . S
C581 C582 1.523 . S
C582 C563 1.368 . S
C582 C576 1.368 . S
C582 C581 1.523 . S
C583 C567 1.429 . S
C583 C579 1.429 . S
C583 C584 1.523 . S
C584 C568 1.368 . S
C584 C580 1.368 . S
C584 C583 1.523 . S
H585 C560 0.950 . S
H586 C562 0.950 . S
H587 C563 0.949 . S
H588 C565 0.950 . S
H589 C567 0.950 . S
C590 C591 1.349 . S
C590 C592 1.327 . S
C590 H615 0.950 . S
C591 C590 1.349 . S
C591 C607 1.349 . S
C592 C590 1.327 . S
C592 C611 1.429 . S
C592 H616 0.950 . S
C593 C610 1.574 . S
C593 C612 1.368 . S
C593 H617 0.949 . S
H594 C598 0.949 . S
C595 C596 1.349 . S
C595 C597 1.327 . S
C595 H618 0.950 . S
C596 C595 1.349 . S
C596 C608 1.349 . S
C597 C595 1.327 . S
C597 C613 1.429 . S
C597 H619 0.950 . S
C598 H594 0.949 . S
C598 C606 1.574 . S
C598 C614 1.368 . S
H599 C607 0.950 . S
H600 C605 0.950 . S
H601 C606 0.949 . S
H602 C608 0.950 . S
H603 C609 0.950 . S
H604 C610 0.949 . S
C605 H600 0.950 . S
C605 C607 1.327 . S
C605 C611 1.429 . S
C606 C598 1.574 . S
C606 H601 0.949 . S
C606 C612 1.368 . S
C607 C591 1.349 . S
C607 H599 0.950 . S
C607 C605 1.327 . S
C608 C596 1.349 . S
C608 H602 0.950 . S
C608 C609 1.327 . S
C609 H603 0.950 . S
C609 C608 1.327 . S
C609 C613 1.429 . S
C610 C593 1.574 . S
C610 H604 0.949 . S
C610 C614 1.368 . S
C611 C592 1.429 . S
C611 C605 1.429 . S
C611 C612 1.523 . S
C612 C593 1.368 . S
C612 C606 1.368 . S
C612 C611 1.523 . S
C613 C597 1.429 . S
C613 C609 1.429 . S
C613 C614 1.523 . S
C614 C598 1.368 . S
C614 C610 1.368 . S
C614 C613 1.523 . S
H615 C590 0.950 . S
H616 C592 0.950 . S
H617 C593 0.949 . S
H618 C595 0.950 . S
H619 C597 0.950 . S
C620 C621 1.349 . S
C620 C622 1.327 . S
C620 H645 0.950 . S
C621 C620 1.349 . S
C621 C637 1.349 . S
C622 C620 1.327 . S
C622 C641 1.429 . S
C622 H646 0.950 . S
C623 C640 1.574 . S
C623 C642 1.368 . S
C623 H647 0.949 . S
H624 C628 0.949 . S
C625 C626 1.349 . S
C625 C627 1.327 . S
C625 H648 0.950 . S
C626 C625 1.349 . S
C626 C638 1.349 . S
C627 C625 1.327 . S
C627 C643 1.429 . S
C627 H649 0.950 . S
C628 H624 0.949 . S
C628 C636 1.574 . S
C628 C644 1.368 . S
H629 C637 0.899 1_455 S
H630 C635 0.950 . S
H631 C636 0.949 . S
H632 C638 0.950 . S
H633 C639 0.950 . S
H634 C640 0.949 . S
C635 H630 0.950 . S
C635 C637 1.327 . S
C635 C641 1.429 . S
C636 C628 1.574 . S
C636 H631 0.949 . S
C636 C642 1.368 . S
C637 C621 1.349 . S
C637 H629 0.899 1_655 S
C637 C635 1.327 . S
C638 C626 1.349 . S
C638 H632 0.950 . S
C638 C639 1.327 . S
C639 H633 0.950 . S
C639 C638 1.327 . S
C639 C643 1.429 . S
C640 C623 1.574 . S
C640 H634 0.949 . S
C640 C644 1.368 . S
C641 C622 1.429 . S
C641 C635 1.429 . S
C641 C642 1.523 . S
C642 C623 1.368 . S
C642 C636 1.368 . S
C642 C641 1.523 . S
C643 C627 1.429 . S
C643 C639 1.429 . S
C643 C644 1.523 . S
C644 C628 1.368 . S
C644 C640 1.368 . S
C644 C643 1.523 . S
H645 C620 0.950 . S
H646 C622 0.950 . S
H647 C623 0.949 . S
H648 C625 0.950 . S
H649 C627 0.950 . S
C650 C651 1.349 . S
C650 C652 1.327 . S
C650 H675 0.950 . S
C651 C650 1.349 . S
C651 C667 1.349 . S
C652 C650 1.327 . S
C652 C671 1.429 . S
C652 H676 0.950 . S
C653 C670 1.574 . S
C653 C672 1.368 . S
C653 H677 0.949 . S
H654 C658 0.949 . S
C655 C656 1.349 . S
C655 C657 1.327 . S
C655 H678 0.950 . S
C656 C655 1.349 . S
C656 C668 1.349 . S
C657 C655 1.327 . S
C657 C673 1.429 . S
C657 H679 0.950 . S
C658 H654 0.949 . S
C658 C666 1.574 . S
C658 C674 1.368 . S
H659 C667 0.950 . S
H660 C665 0.950 . S
H661 C666 0.949 . S
H662 C668 0.950 . S
H663 C669 0.950 . S
H664 C670 0.949 . S
C665 H660 0.950 . S
C665 C667 1.327 . S
C665 C671 1.429 . S
C666 C658 1.574 . S
C666 H661 0.949 . S
C666 C672 1.368 . S
C667 C651 1.349 . S
C667 H659 0.950 . S
C667 C665 1.327 . S
C668 C656 1.349 . S
C668 H662 0.950 . S
C668 C669 1.327 . S
C669 H663 0.950 . S
C669 C668 1.327 . S
C669 C673 1.429 . S
C670 C653 1.574 . S
C670 H664 0.949 . S
C670 C674 1.368 . S
C671 C652 1.429 . S
C671 C665 1.429 . S
C671 C672 1.523 . S
C672 C653 1.368 . S
C672 C666 1.368 . S
C672 C671 1.523 . S
C673 C657 1.429 . S
C673 C669 1.429 . S
C673 C674 1.523 . S
C674 C658 1.368 . S
C674 C670 1.368 . S
C674 C673 1.523 . S
H675 C650 0.950 . S
H676 C652 0.950 . S
H677 C653 0.949 . S
H678 C655 0.950 . S
H679 C657 0.950 . S
C680 C681 1.349 . S
C680 C682 1.327 . S
C680 H705 0.950 . S
C681 C680 1.349 . S
C681 C697 1.349 . S
C682 C680 1.327 . S
C682 C701 1.429 . S
C682 H706 0.950 . S
C683 C700 1.574 . S
C683 C702 1.368 . S
C683 H707 0.949 . S
H684 C688 0.949 . S
C685 C686 1.349 . S
C685 C687 1.327 . S
C685 H708 0.950 . S
C686 C685 1.349 . S
C686 C698 1.349 . S
C687 C685 1.327 . S
C687 C703 1.429 . S
C687 H709 0.950 . S
C688 H684 0.949 . S
C688 C696 1.574 . S
C688 C704 1.368 . S
H689 C697 0.950 . S
H690 C695 0.950 . S
H691 C696 0.949 . S
H692 C698 0.950 . S
H693 C699 0.950 . S
H694 C700 0.949 . S
C695 H690 0.950 . S
C695 C697 1.327 . S
C695 C701 1.429 . S
C696 C688 1.574 . S
C696 H691 0.949 . S
C696 C702 1.368 . S
C697 C681 1.349 . S
C697 H689 0.950 . S
C697 C695 1.327 . S
C698 C686 1.349 . S
C698 H692 0.950 . S
C698 C699 1.327 . S
C699 H693 0.950 . S
C699 C698 1.327 . S
C699 C703 1.429 . S
C700 C683 1.574 . S
C700 H694 0.949 . S
C700 C704 1.368 . S
C701 C682 1.429 . S
C701 C695 1.429 . S
C701 C702 1.523 . S
C702 C683 1.368 . S
C702 C696 1.368 . S
C702 C701 1.523 . S
C703 C687 1.429 . S
C703 C699 1.429 . S
C703 C704 1.523 . S
C704 C688 1.368 . S
C704 C700 1.368 . S
C704 C703 1.523 . S
H705 C680 0.950 . S
H706 C682 0.950 . S
H707 C683 0.949 . S
H708 C685 0.950 . S
H709 C687 0.950 . S
C710 C711 1.349 . S
C710 C712 1.327 . S
C710 H735 0.950 . S
C711 C710 1.349 . S
C711 C727 1.349 . S
C712 C710 1.327 . S
C712 C731 1.429 . S
C712 H736 0.950 . S
C713 C730 1.574 . S
C713 C732 1.368 . S
C713 H737 0.949 . S
H714 C718 0.949 . S
C715 C716 1.349 . S
C715 C717 1.327 . S
C715 H738 0.950 . S
C716 C715 1.349 . S
C716 C728 1.349 . S
C717 C715 1.327 . S
C717 C733 1.429 . S
C717 H739 0.950 . S
C718 H714 0.949 . S
C718 C726 1.574 . S
C718 C734 1.368 . S
H719 C727 0.950 . S
H720 C725 0.950 . S
H721 C726 0.949 . S
H722 C728 0.950 . S
H723 C729 0.950 . S
H724 C730 0.949 . S
C725 H720 0.950 . S
C725 C727 1.327 . S
C725 C731 1.429 . S
C726 C718 1.574 . S
C726 H721 0.949 . S
C726 C732 1.368 . S
C727 C711 1.349 . S
C727 H719 0.950 . S
C727 C725 1.327 . S
C728 C716 1.349 . S
C728 H722 0.950 . S
C728 C729 1.327 . S
C729 H723 0.950 . S
C729 C728 1.327 . S
C729 C733 1.429 . S
C730 C713 1.574 . S
C730 H724 0.949 . S
C730 C734 1.368 . S
C731 C712 1.429 . S
C731 C725 1.429 . S
C731 C732 1.523 . S
C732 C713 1.368 . S
C732 C726 1.368 . S
C732 C731 1.523 . S
C733 C717 1.429 . S
C733 C729 1.429 . S
C733 C734 1.523 . S
C734 C718 1.368 . S
C734 C730 1.368 . S
C734 C733 1.523 . S
H735 C710 0.950 . S
H736 C712 0.950 . S
H737 C713 0.949 . S
H738 C715 0.950 . S
H739 C717 0.950 . S
C740 C741 1.349 . S
C740 C742 1.327 . S
C740 H765 0.950 . S
C741 C740 1.349 . S
C741 C757 1.349 . S
C742 C740 1.327 . S
C742 C761 1.429 . S
C742 H766 0.950 . S
C743 C760 1.574 . S
C743 C762 1.368 . S
C743 H767 0.949 . S
H744 C748 0.949 . S
C745 C746 1.349 1_554 S
C745 C747 1.327 . S
C745 H768 0.950 . S
C746 C745 1.349 1_556 S
C746 C758 1.349 . S
C747 C745 1.327 . S
C747 C763 1.429 . S
C747 H769 0.950 . S
C748 H744 0.949 . S
C748 C756 1.574 . S
C748 C764 1.368 . S
H749 C757 0.950 . S
H750 C755 0.950 . S
H751 C756 0.949 . S
H752 C758 0.950 . S
H753 C759 0.950 . S
H754 C760 0.949 . S
C755 H750 0.950 . S
C755 C757 1.327 . S
C755 C761 1.429 . S
C756 C748 1.574 . S
C756 H751 0.949 . S
C756 C762 1.368 . S
C757 C741 1.349 . S
C757 H749 0.950 . S
C757 C755 1.327 . S
C758 C746 1.349 . S
C758 H752 0.950 . S
C758 C759 1.327 1_556 S
C759 H753 0.950 . S
C759 C758 1.327 1_554 S
C759 C763 1.429 . S
C760 C743 1.574 . S
C760 H754 0.949 . S
C760 C764 1.368 . S
C761 C742 1.429 . S
C761 C755 1.429 . S
C761 C762 1.523 . S
C762 C743 1.368 . S
C762 C756 1.368 . S
C762 C761 1.523 . S
C763 C747 1.429 . S
C763 C759 1.429 . S
C763 C764 1.523 . S
C764 C748 1.368 . S
C764 C760 1.368 . S
C764 C763 1.523 . S
H765 C740 0.950 . S
H766 C742 0.950 . S
H767 C743 0.949 . S
H768 C745 0.950 . S
H769 C747 0.950 . S
C770 C771 1.349 . S
C770 C772 1.327 . S
C770 H795 0.950 . S
C771 C770 1.349 . S
C771 C787 1.349 . S
C772 C770 1.327 . S
C772 C791 1.429 . S
C772 H796 0.950 . S
C773 C790 1.574 . S
C773 C792 1.368 . S
C773 H797 0.949 . S
H774 C778 0.949 . S
C775 C776 1.349 . S
C775 C777 1.327 1_554 S
C775 H798 0.950 . S
C776 C775 1.349 . S
C776 C788 1.349 1_554 S
C777 C775 1.327 1_556 S
C777 C793 1.429 . S
C777 H799 0.950 . S
C778 H774 0.949 . S
C778 C786 1.574 . S
C778 C794 1.368 . S
H779 C787 0.950 . S
H780 C785 0.950 . S
H781 C786 0.949 . S
H782 C788 0.950 . S
H783 C789 0.950 . S
H784 C790 0.949 . S
C785 H780 0.950 . S
C785 C787 1.327 . S
C785 C791 1.429 . S
C786 C778 1.574 . S
C786 H781 0.949 . S
C786 C792 1.368 . S
C787 C771 1.349 . S
C787 H779 0.950 . S
C787 C785 1.327 . S
C788 C776 1.349 1_556 S
C788 H782 0.950 . S
C788 C789 1.327 . S
C789 H783 0.950 . S
C789 C788 1.327 . S
C789 C793 1.429 . S
C790 C773 1.574 . S
C790 H784 0.949 . S
C790 C794 1.368 . S
C791 C772 1.429 . S
C791 C785 1.429 . S
C791 C792 1.523 . S
C792 C773 1.368 . S
C792 C786 1.368 . S
C792 C791 1.523 . S
C793 C777 1.429 . S
C793 C789 1.429 . S
C793 C794 1.523 . S
C794 C778 1.368 . S
C794 C790 1.368 . S
C794 C793 1.523 . S
H795 C770 0.950 . S
H796 C772 0.950 . S
H797 C773 0.949 . S
H798 C775 0.950 . S
H799 C777 0.950 . S
C800 C801 1.349 1_655 S
C800 C802 1.325 1_655 S
C800 H825 0.950 . S
C801 C800 1.349 1_455 S
C801 C817 1.349 . S
C802 C800 1.325 1_455 S
C802 C821 1.434 . S
C802 H826 0.946 1_455 S
C803 C820 1.574 . S
C803 C822 1.368 . S
C803 H827 0.949 . S
H804 C808 0.949 . S
C805 C806 1.349 . S
C805 C807 1.327 . S
C805 H828 0.950 . S
C806 C805 1.349 . S
C806 C818 1.349 . S
C807 C805 1.327 . S
C807 C823 1.429 . S
C807 H829 0.950 . S
C808 H804 0.949 . S
C808 C816 1.574 . S
C808 C824 1.368 . S
H809 C817 0.950 . S
H810 C815 0.950 . S
H811 C816 0.968 . S
H812 C818 0.950 . S
H813 C819 0.950 . S
H814 C820 0.949 . S
C815 H810 0.950 . S
C815 C817 1.327 . S
C815 C821 1.429 . S
C816 C808 1.574 . S
C816 H811 0.968 . S
C816 C822 1.368 . S
C817 C801 1.349 . S
C817 H809 0.950 . S
C817 C815 1.327 . S
C818 C806 1.349 . S
C818 H812 0.950 . S
C818 C819 1.327 . S
C819 H813 0.950 . S
C819 C818 1.327 . S
C819 C823 1.429 . S
C820 C803 1.574 . S
C820 H814 0.949 . S
C820 C824 1.368 . S
C821 C802 1.434 . S
C821 C815 1.429 . S
C821 C822 1.523 . S
C822 C803 1.368 . S
C822 C816 1.368 . S
C822 C821 1.523 . S
C823 C807 1.429 . S
C823 C819 1.429 . S
C823 C824 1.523 . S
C824 C808 1.368 . S
C824 C820 1.368 . S
C824 C823 1.523 . S
H825 C800 0.950 . S
H826 C802 0.946 1_655 S
H827 C803 0.949 . S
H828 C805 0.950 . S
H829 C807 0.950 . S
C830 C831 1.349 . S
C830 C832 1.327 . S
C830 H855 0.950 . S
C831 C830 1.349 . S
C831 C847 1.349 . S
C832 C830 1.327 . S
C832 C851 1.429 . S
C832 H856 0.950 . S
C833 C850 1.574 . S
C833 C852 1.368 . S
C833 H857 0.949 . S
H834 C838 0.949 . S
C835 C836 1.349 . S
C835 C837 1.327 . S
C835 H858 0.950 . S
C836 C835 1.349 . S
C836 C848 1.349 . S
C837 C835 1.327 . S
C837 C853 1.429 . S
C837 H859 0.950 . S
C838 H834 0.949 . S
C838 C846 1.574 . S
C838 C854 1.368 . S
H839 C847 0.950 . S
H840 C845 0.950 . S
H841 C846 0.935 1_655 S
H842 C848 0.950 . S
H843 C849 0.950 . S
H844 C850 0.949 . S
C845 H840 0.950 . S
C845 C847 1.327 . S
C845 C851 1.429 . S
C846 C838 1.574 . S
C846 H841 0.935 1_455 S
C846 C852 1.368 . S
C847 C831 1.349 . S
C847 H839 0.950 . S
C847 C845 1.327 . S
C848 C836 1.349 . S
C848 H842 0.950 . S
C848 C849 1.327 . S
C849 H843 0.950 . S
C849 C848 1.327 . S
C849 C853 1.429 . S
C850 C833 1.574 . S
C850 H844 0.949 . S
C850 C854 1.368 . S
C851 C832 1.429 . S
C851 C845 1.429 . S
C851 C852 1.523 1_655 S
C852 C833 1.368 . S
C852 C846 1.368 . S
C852 C851 1.523 1_455 S
C853 C837 1.429 . S
C853 C849 1.429 . S
C853 C854 1.523 . S
C854 C838 1.368 . S
C854 C850 1.368 . S
C854 C853 1.523 . S
H855 C830 0.950 . S
H856 C832 0.950 . S
H857 C833 0.949 . S
H858 C835 0.950 . S
H859 C837 0.950 . S
C860 C861 1.349 . S
C860 C862 1.327 . S
C860 H885 0.950 . S
C861 C860 1.349 . S
C861 C877 1.349 . S
C862 C860 1.327 . S
C862 C881 1.429 . S
C862 H886 0.950 . S
C863 C880 1.574 . S
C863 C882 1.368 . S
C863 H887 0.949 . S
H864 C868 0.949 . S
C865 C866 1.349 . S
C865 C867 1.327 . S
C865 H888 0.950 . S
C866 C865 1.349 . S
C866 C878 1.349 . S
C867 C865 1.327 . S
C867 C883 1.429 . S
C867 H889 0.950 . S
C868 H864 0.949 . S
C868 C876 1.574 . S
C868 C884 1.368 . S
H869 C877 0.950 . S
H870 C875 0.950 . S
H871 C876 0.949 . S
H872 C878 0.950 . S
H873 C879 0.950 . S
H874 C880 0.949 . S
C875 H870 0.950 . S
C875 C877 1.327 . S
C875 C881 1.429 . S
C876 C868 1.574 . S
C876 H871 0.949 . S
C876 C882 1.368 . S
C877 C861 1.349 . S
C877 H869 0.950 . S
C877 C875 1.327 . S
C878 C866 1.349 . S
C878 H872 0.950 . S
C878 C879 1.327 . S
C879 H873 0.950 . S
C879 C878 1.327 . S
C879 C883 1.429 . S
C880 C863 1.574 . S
C880 H874 0.949 . S
C880 C884 1.368 . S
C881 C862 1.429 . S
C881 C875 1.429 . S
C881 C882 1.523 . S
C882 C863 1.368 . S
C882 C876 1.368 . S
C882 C881 1.523 . S
C883 C867 1.429 . S
C883 C879 1.429 . S
C883 C884 1.523 . S
C884 C868 1.368 . S
C884 C880 1.368 . S
C884 C883 1.523 . S
H885 C860 0.950 . S
H886 C862 0.950 . S
H887 C863 0.949 . S
H888 C865 0.950 . S
H889 C867 0.950 . S
C890 C891 1.349 . S
C890 C892 1.327 . S
C890 H915 0.950 . S
C891 C890 1.349 . S
C891 C907 1.349 . S
C892 C890 1.327 . S
C892 C911 1.429 . S
C892 H916 0.950 . S
C893 C910 1.574 . S
C893 C912 1.368 . S
C893 H917 0.949 . S
H894 C898 0.949 . S
C895 C896 1.349 . S
C895 C897 1.327 . S
C895 H918 0.950 . S
C896 C895 1.349 . S
C896 C908 1.349 . S
C897 C895 1.327 . S
C897 C913 1.429 . S
C897 H919 0.950 . S
C898 H894 0.949 . S
C898 C906 1.574 . S
C898 C914 1.368 . S
H899 C907 0.950 . S
H900 C905 0.950 . S
H901 C906 0.949 . S
H902 C908 0.950 . S
H903 C909 0.950 . S
H904 C910 0.949 . S
C905 H900 0.950 . S
C905 C907 1.327 . S
C905 C911 1.429 . S
C906 C898 1.574 . S
C906 H901 0.949 . S
C906 C912 1.368 . S
C907 C891 1.349 . S
C907 H899 0.950 . S
C907 C905 1.327 . S
C908 C896 1.349 . S
C908 H902 0.950 . S
C908 C909 1.327 . S
C909 H903 0.950 . S
C909 C908 1.327 . S
C909 C913 1.429 . S
C910 C893 1.574 . S
C910 H904 0.949 . S
C910 C914 1.368 . S
C911 C892 1.429 . S
C911 C905 1.429 . S
C911 C912 1.523 . S
C912 C893 1.368 . S
C912 C906 1.368 . S
C912 C911 1.523 . S
C913 C897 1.429 . S
C913 C909 1.429 . S
C913 C914 1.523 . S
C914 C898 1.368 . S
C914 C910 1.368 . S
C914 C913 1.523 . S
H915 C890 0.950 . S
H916 C892 0.950 . S
H917 C893 0.949 . S
H918 C895 0.950 . S
H919 C897 0.950 . S
C920 C921 1.349 . S
C920 C922 1.327 . S
C920 H945 0.950 . S
C921 C920 1.349 . S
C921 C937 1.349 . S
C922 C920 1.327 . S
C922 C941 1.429 . S
C922 H946 0.950 . S
C923 C940 1.574 . S
C923 C942 1.368 . S
C923 H947 0.949 . S
H924 C928 0.949 . S
C925 C926 1.349 1_655 S
C925 C927 1.327 1_655 S
C925 H948 0.950 . S
C926 C925 1.349 1_455 S
C926 C938 1.349 . S
C927 C925 1.327 1_455 S
C927 C943 1.429 . S
C927 H949 0.946 1_455 S
C928 H924 0.949 . S
C928 C936 1.574 . S
C928 C944 1.368 . S
H929 C937 0.950 . S
H930 C935 0.950 . S
H931 C936 0.949 . S
H932 C938 0.950 . S
H933 C939 0.950 . S
H934 C940 0.949 . S
C935 H930 0.950 . S
C935 C937 1.327 . S
C935 C941 1.429 . S
C936 C928 1.574 . S
C936 H931 0.949 . S
C936 C942 1.368 . S
C937 C921 1.349 . S
C937 H929 0.950 . S
C937 C935 1.327 . S
C938 C926 1.349 . S
C938 H932 0.950 . S
C938 C939 1.327 . S
C939 H933 0.950 . S
C939 C938 1.327 . S
C939 C943 1.429 . S
C940 C923 1.574 . S
C940 H934 0.949 . S
C940 C944 1.368 . S
C941 C922 1.429 . S
C941 C935 1.429 . S
C941 C942 1.523 . S
C942 C923 1.368 . S
C942 C936 1.368 . S
C942 C941 1.523 . S
C943 C927 1.429 . S
C943 C939 1.429 . S
C943 C944 1.523 . S
C944 C928 1.368 . S
C944 C940 1.368 . S
C944 C943 1.523 . S
H945 C920 0.950 . S
H946 C922 0.950 . S
H947 C923 0.949 . S
H948 C925 0.950 . S
H949 C927 0.946 1_655 S
C950 C951 1.349 . S
C950 C952 1.327 . S
C950 H975 0.950 . S
C951 C950 1.349 . S
C951 C967 1.349 . S
C952 C950 1.327 . S
C952 C971 1.429 . S
C952 H976 0.950 . S
C953 C970 1.574 . S
C953 C972 1.368 . S
C953 H977 0.949 . S
H954 C958 0.949 . S
C955 C956 1.349 . S
C955 C957 1.327 . S
C955 H978 0.950 . S
C956 C955 1.349 . S
C956 C968 1.349 . S
C957 C955 1.327 . S
C957 C973 1.429 . S
C957 H979 0.950 . S
C958 H954 0.949 . S
C958 C966 1.574 . S
C958 C974 1.368 . S
H959 C967 0.950 . S
H960 C965 0.950 . S
H961 C966 0.949 . S
H962 C968 0.950 . S
H963 C969 0.950 . S
H964 C970 0.949 . S
C965 H960 0.950 . S
C965 C967 1.327 . S
C965 C971 1.429 . S
C966 C958 1.574 . S
C966 H961 0.949 . S
C966 C972 1.368 . S
C967 C951 1.349 . S
C967 H959 0.950 . S
C967 C965 1.327 . S
C968 C956 1.349 . S
C968 H962 0.950 . S
C968 C969 1.327 . S
C969 H963 0.950 . S
C969 C968 1.327 . S
C969 C973 1.429 . S
C970 C953 1.574 . S
C970 H964 0.949 . S
C970 C974 1.368 . S
C971 C952 1.429 . S
C971 C965 1.429 . S
C971 C972 1.523 . S
C972 C953 1.368 . S
C972 C966 1.368 . S
C972 C971 1.523 . S
C973 C957 1.429 . S
C973 C969 1.429 . S
C973 C974 1.523 . S
C974 C958 1.368 . S
C974 C970 1.368 . S
C974 C973 1.523 . S
H975 C950 0.950 . S
H976 C952 0.950 . S
H977 C953 0.949 . S
H978 C955 0.950 . S
H979 C957 0.950 . S
C980 C981 1.349 . S
C980 C982 1.327 . S
C980 H1005 0.950 . S
C981 C980 1.349 . S
C981 C997 1.349 . S
C982 C980 1.327 . S
C982 C1001 1.429 . S
C982 H1006 0.950 . S
C983 C1000 1.574 . S
C983 C1002 1.368 . S
C983 H1007 0.949 . S
H984 C988 0.949 . S
C985 C986 1.349 . S
C985 C987 1.327 . S
C985 H1008 0.950 . S
C986 C985 1.349 . S
C986 C998 1.349 . S
C987 C985 1.327 . S
C987 C1003 1.429 . S
C987 H1009 0.950 . S
C988 H984 0.949 . S
C988 C996 1.574 . S
C988 C1004 1.368 . S
H989 C997 0.950 . S
H990 C995 0.950 . S
H991 C996 0.949 . S
H992 C998 0.950 . S
H993 C999 0.950 . S
H994 C1000 0.949 . S
C995 H990 0.950 . S
C995 C997 1.327 . S
C995 C1001 1.429 . S
C996 C988 1.574 . S
C996 H991 0.949 . S
C996 C1002 1.368 . S
C997 C981 1.349 . S
C997 H989 0.950 . S
C997 C995 1.327 . S
C998 C986 1.349 . S
C998 H992 0.950 . S
C998 C999 1.327 . S
C999 H993 0.950 . S
C999 C998 1.327 . S
C999 C1003 1.429 . S
C1000 C983 1.574 . S
C1000 H994 0.949 . S
C1000 C1004 1.368 . S
C1001 C982 1.429 . S
C1001 C995 1.429 . S
C1001 C1002 1.523 . S
C1002 C983 1.368 . S
C1002 C996 1.368 . S
C1002 C1001 1.523 . S
C1003 C987 1.429 . S
C1003 C999 1.429 . S
C1003 C1004 1.523 . S
C1004 C988 1.368 . S
C1004 C1000 1.368 . S
C1004 C1003 1.523 . S
H1005 C980 0.950 . S
H1006 C982 0.950 . S
H1007 C983 0.949 . S
H1008 C985 0.950 . S
H1009 C987 0.950 . S
C1010 C1011 1.349 . S
C1010 C1012 1.327 . S
C1010 H1035 0.950 . S
C1011 C1010 1.349 . S
C1011 C1027 1.349 . S
C1012 C1010 1.327 . S
C1012 C1031 1.429 . S
C1012 H1036 0.950 . S
C1013 C1030 1.574 . S
C1013 C1032 1.368 . S
C1013 H1037 0.949 . S
H1014 C1018 0.949 . S
C1015 C1016 1.349 . S
C1015 C1017 1.327 . S
C1015 H1038 0.950 . S
C1016 C1015 1.349 . S
C1016 C1028 1.349 . S
C1017 C1015 1.327 . S
C1017 C1033 1.429 . S
C1017 H1039 0.950 . S
C1018 H1014 0.949 . S
C1018 C1026 1.574 . S
C1018 C1034 1.368 . S
H1019 C1027 0.950 . S
H1020 C1025 0.950 . S
H1021 C1026 0.949 . S
H1022 C1028 0.950 . S
H1023 C1029 0.950 . S
H1024 C1030 0.979 . S
C1025 H1020 0.950 . S
C1025 C1027 1.327 . S
C1025 C1031 1.429 . S
C1026 C1018 1.574 . S
C1026 H1021 0.949 . S
C1026 C1032 1.368 . S
C1027 C1011 1.349 . S
C1027 H1019 0.950 . S
C1027 C1025 1.327 . S
C1028 C1016 1.349 . S
C1028 H1022 0.950 . S
C1028 C1029 1.327 . S
C1029 H1023 0.950 . S
C1029 C1028 1.327 . S
C1029 C1033 1.429 . S
C1030 C1013 1.574 . S
C1030 H1024 0.979 . S
C1030 C1034 1.368 . S
C1031 C1012 1.429 . S
C1031 C1025 1.429 . S
C1031 C1032 1.523 . S
C1032 C1013 1.368 . S
C1032 C1026 1.368 . S
C1032 C1031 1.523 . S
C1033 C1017 1.429 . S
C1033 C1029 1.429 . S
C1033 C1034 1.523 1_655 S
C1034 C1018 1.368 . S
C1034 C1030 1.368 . S
C1034 C1033 1.523 1_455 S
H1035 C1010 0.950 . S
H1036 C1012 0.950 . S
H1037 C1013 0.949 . S
H1038 C1015 0.950 . S
H1039 C1017 0.950 . S
C1040 C1041 1.349 . S
C1040 C1042 1.327 . S
C1040 H1065 0.950 . S
C1041 C1040 1.349 . S
C1041 C1057 1.349 . S
C1042 C1040 1.327 . S
C1042 C1061 1.429 . S
C1042 H1066 0.950 . S
C1043 C1060 1.574 1_545 S
C1043 C1062 1.368 1_556 S
C1043 H1067 0.949 . S
H1044 C1048 0.949 . S
C1045 C1046 1.349 . S
C1045 C1047 1.327 . S
C1045 H1068 0.950 . S
C1046 C1045 1.349 . S
C1046 C1058 1.349 . S
C1047 C1045 1.327 . S
C1047 C1063 1.429 . S
C1047 H1069 0.950 . S
C1048 H1044 0.949 . S
C1048 C1056 1.574 1_565 S
C1048 C1064 1.368 1_554 S
H1049 C1057 0.950 . S
H1050 C1055 0.950 . S
H1051 C1056 0.949 . S
H1052 C1058 0.950 . S
H1053 C1059 0.950 . S
H1054 C1060 0.949 . S
C1055 H1050 0.950 . S
C1055 C1057 1.327 . S
C1055 C1061 1.429 . S
C1056 C1048 1.574 1_545 S
C1056 H1051 0.949 . S
C1056 C1062 1.368 . S
C1057 C1041 1.349 . S
C1057 H1049 0.950 . S
C1057 C1055 1.327 . S
C1058 C1046 1.349 . S
C1058 H1052 0.950 . S
C1058 C1059 1.327 . S
C1059 H1053 0.950 . S
C1059 C1058 1.327 . S
C1059 C1063 1.429 . S
C1060 C1043 1.574 1_565 S
C1060 H1054 0.949 . S
C1060 C1064 1.368 . S
C1061 C1042 1.429 . S
C1061 C1055 1.429 . S
C1061 C1062 1.523 . S
C1062 C1043 1.368 1_554 S
C1062 C1056 1.368 . S
C1062 C1061 1.523 . S
C1063 C1047 1.429 . S
C1063 C1059 1.429 . S
C1063 C1064 1.523 . S
C1064 C1048 1.368 1_556 S
C1064 C1060 1.368 . S
C1064 C1063 1.523 . S
H1065 C1040 0.950 . S
H1066 C1042 0.950 . S
H1067 C1043 0.949 . S
H1068 C1045 0.950 . S
H1069 C1047 0.950 . S
C1070 C1071 1.349 . S
C1070 C1072 1.327 . S
C1070 H1095 0.950 . S
C1071 C1070 1.349 . S
C1071 C1087 1.349 . S
C1072 C1070 1.327 . S
C1072 C1091 1.429 . S
C1072 H1096 0.950 . S
C1073 C1090 1.574 . S
C1073 C1092 1.368 . S
C1073 H1097 0.949 . S
H1074 C1078 0.949 . S
C1075 C1076 1.349 . S
C1075 C1077 1.327 . S
C1075 H1098 0.950 . S
C1076 C1075 1.349 . S
C1076 C1088 1.349 . S
C1077 C1075 1.327 . S
C1077 C1093 1.429 . S
C1077 H1099 0.950 . S
C1078 H1074 0.949 . S
C1078 C1086 1.574 . S
C1078 C1094 1.368 . S
H1079 C1087 0.950 . S
H1080 C1085 0.950 . S
H1081 C1086 0.949 . S
H1082 C1088 0.950 . S
H1083 C1089 0.950 . S
H1084 C1090 0.949 . S
C1085 H1080 0.950 . S
C1085 C1087 1.327 . S
C1085 C1091 1.429 . S
C1086 C1078 1.574 . S
C1086 H1081 0.949 . S
C1086 C1092 1.368 . S
C1087 C1071 1.349 . S
C1087 H1079 0.950 . S
C1087 C1085 1.327 . S
C1088 C1076 1.349 . S
C1088 H1082 0.950 . S
C1088 C1089 1.327 . S
C1089 H1083 0.950 . S
C1089 C1088 1.327 . S
C1089 C1093 1.429 . S
C1090 C1073 1.574 . S
C1090 H1084 0.949 . S
C1090 C1094 1.368 . S
C1091 C1072 1.429 . S
C1091 C1085 1.429 . S
C1091 C1092 1.523 . S
C1092 C1073 1.368 . S
C1092 C1086 1.368 . S
C1092 C1091 1.523 . S
C1093 C1077 1.429 . S
C1093 C1089 1.429 . S
C1093 C1094 1.523 . S
C1094 C1078 1.368 . S
C1094 C1090 1.368 . S
C1094 C1093 1.523 . S
H1095 C1070 0.950 . S
H1096 C1072 0.950 . S
H1097 C1073 0.949 . S
H1098 C1075 0.950 . S
H1099 C1077 0.950 . S
C1100 C1101 1.349 . S
C1100 C1102 1.327 . S
C1100 H1125 0.950 . S
C1101 C1100 1.349 . S
C1101 C1117 1.349 . S
C1102 C1100 1.327 . S
C1102 C1121 1.429 . S
C1102 H1126 0.950 . S
C1103 C1120 1.574 1_545 S
C1103 C1122 1.368 . S
C1103 H1127 0.949 . S
H1104 C1108 0.949 . S
C1105 C1106 1.349 . S
C1105 C1107 1.327 . S
C1105 H1128 0.950 . S
C1106 C1105 1.349 . S
C1106 C1118 1.349 . S
C1107 C1105 1.327 . S
C1107 C1123 1.429 . S
C1107 H1129 0.950 . S
C1108 H1104 0.949 . S
C1108 C1116 1.574 1_565 S
C1108 C1124 1.368 . S
H1109 C1117 0.950 . S
H1110 C1115 0.950 . S
H1111 C1116 0.949 . S
H1112 C1118 0.950 . S
H1113 C1119 0.950 . S
H1114 C1120 0.949 . S
C1115 H1110 0.950 . S
C1115 C1117 1.327 . S
C1115 C1121 1.429 . S
C1116 C1108 1.574 1_545 S
C1116 H1111 0.949 . S
C1116 C1122 1.368 . S
C1117 C1101 1.349 . S
C1117 H1109 0.950 . S
C1117 C1115 1.327 . S
C1118 C1106 1.349 . S
C1118 H1112 0.950 . S
C1118 C1119 1.327 . S
C1119 H1113 0.950 . S
C1119 C1118 1.327 . S
C1119 C1123 1.429 . S
C1120 C1103 1.574 1_565 S
C1120 H1114 0.949 . S
C1120 C1124 1.368 . S
C1121 C1102 1.429 . S
C1121 C1115 1.429 . S
C1121 C1122 1.523 . S
C1122 C1103 1.368 . S
C1122 C1116 1.368 . S
C1122 C1121 1.523 . S
C1123 C1107 1.429 . S
C1123 C1119 1.429 . S
C1123 C1124 1.523 . S
C1124 C1108 1.368 . S
C1124 C1120 1.368 . S
C1124 C1123 1.523 . S
H1125 C1100 0.950 . S
H1126 C1102 0.950 . S
H1127 C1103 0.949 . S
H1128 C1105 0.950 . S
H1129 C1107 0.950 . S
C1130 C1131 1.349 . S
C1130 C1132 1.327 . S
C1130 H1155 0.950 . S
C1131 C1130 1.349 . S
C1131 C1147 1.349 . S
C1132 C1130 1.327 . S
C1132 C1151 1.429 . S
C1132 H1156 0.950 . S
C1133 C1150 1.574 . S
C1133 C1152 1.368 . S
C1133 H1157 0.949 . S
H1134 C1138 0.949 . S
C1135 C1136 1.349 . S
C1135 C1137 1.327 . S
C1135 H1158 0.950 . S
C1136 C1135 1.349 . S
C1136 C1148 1.349 . S
C1137 C1135 1.327 . S
C1137 C1153 1.429 . S
C1137 H1159 0.950 . S
C1138 H1134 0.949 . S
C1138 C1146 1.574 . S
C1138 C1154 1.368 . S
H1139 C1147 0.950 . S
H1140 C1145 0.950 . S
H1141 C1146 0.949 . S
H1142 C1148 0.950 . S
H1143 C1149 0.950 . S
H1144 C1150 0.949 . S
C1145 H1140 0.950 . S
C1145 C1147 1.327 . S
C1145 C1151 1.429 . S
C1146 C1138 1.574 . S
C1146 H1141 0.949 . S
C1146 C1152 1.368 . S
C1147 C1131 1.349 . S
C1147 H1139 0.950 . S
C1147 C1145 1.327 . S
C1148 C1136 1.349 . S
C1148 H1142 0.950 . S
C1148 C1149 1.327 . S
C1149 H1143 0.950 . S
C1149 C1148 1.327 . S
C1149 C1153 1.429 . S
C1150 C1133 1.574 . S
C1150 H1144 0.949 . S
C1150 C1154 1.368 . S
C1151 C1132 1.429 . S
C1151 C1145 1.429 . S
C1151 C1152 1.523 . S
C1152 C1133 1.368 . S
C1152 C1146 1.368 . S
C1152 C1151 1.523 . S
C1153 C1137 1.429 . S
C1153 C1149 1.429 . S
C1153 C1154 1.523 . S
C1154 C1138 1.368 . S
C1154 C1150 1.368 . S
C1154 C1153 1.523 . S
H1155 C1130 0.950 . S
H1156 C1132 0.950 . S
H1157 C1133 0.949 . S
H1158 C1135 0.950 . S
H1159 C1137 0.950 . S
C1160 C1161 1.349 . S
C1160 C1162 1.327 . S
C1160 H1185 0.950 . S
C1161 C1160 1.349 . S
C1161 C1177 1.349 . S
C1162 C1160 1.327 . S
C1162 C1181 1.429 . S
C1162 H1186 0.950 . S
C1163 C1180 1.574 . S
C1163 C1182 1.368 . S
C1163 H1187 0.949 . S
H1164 C1168 0.949 . S
C1165 C1166 1.349 . S
C1165 C1167 1.327 . S
C1165 H1188 0.950 . S
C1166 C1165 1.349 . S
C1166 C1178 1.349 . S
C1167 C1165 1.327 . S
C1167 C1183 1.429 . S
C1167 H1189 0.950 . S
C1168 H1164 0.949 . S
C1168 C1176 1.574 . S
C1168 C1184 1.368 . S
H1169 C1177 0.950 . S
H1170 C1175 0.950 . S
H1171 C1176 0.949 . S
H1172 C1178 0.950 . S
H1173 C1179 0.950 . S
H1174 C1180 0.949 . S
C1175 H1170 0.950 . S
C1175 C1177 1.327 . S
C1175 C1181 1.429 . S
C1176 C1168 1.574 . S
C1176 H1171 0.949 . S
C1176 C1182 1.368 . S
C1177 C1161 1.349 . S
C1177 H1169 0.950 . S
C1177 C1175 1.327 . S
C1178 C1166 1.349 . S
C1178 H1172 0.950 . S
C1178 C1179 1.327 . S
C1179 H1173 0.950 . S
C1179 C1178 1.327 . S
C1179 C1183 1.429 . S
C1180 C1163 1.574 . S
C1180 H1174 0.949 . S
C1180 C1184 1.368 . S
C1181 C1162 1.429 . S
C1181 C1175 1.429 . S
C1181 C1182 1.523 . S
C1182 C1163 1.368 . S
C1182 C1176 1.368 . S
C1182 C1181 1.523 . S
C1183 C1167 1.429 . S
C1183 C1179 1.429 . S
C1183 C1184 1.523 . S
C1184 C1168 1.368 . S
C1184 C1180 1.368 . S
C1184 C1183 1.523 . S
H1185 C1160 0.950 . S
H1186 C1162 0.950 . S
H1187 C1163 0.949 . S
H1188 C1165 0.950 . S
H1189 C1167 0.950 . S
C1190 C1191 1.349 . S
C1190 C1192 1.327 . S
C1190 H1215 0.950 . S
C1191 C1190 1.349 . S
C1191 C1207 1.349 . S
C1192 C1190 1.327 . S
C1192 C1211 1.429 . S
C1192 H1216 0.950 . S
C1193 C1210 1.574 . S
C1193 C1212 1.368 . S
C1193 H1217 0.949 . S
H1194 C1198 0.949 . S
C1195 C1196 1.349 . S
C1195 C1197 1.327 . S
C1195 H1218 0.950 . S
C1196 C1195 1.349 . S
C1196 C1208 1.349 . S
C1197 C1195 1.327 . S
C1197 C1213 1.429 . S
C1197 H1219 0.950 . S
C1198 H1194 0.949 . S
C1198 C1206 1.574 . S
C1198 C1214 1.368 . S
H1199 C1207 0.950 . S
H1200 C1205 0.950 . S
H1201 C1206 0.949 . S
H1202 C1208 0.950 . S
H1203 C1209 0.950 . S
H1204 C1210 0.949 . S
C1205 H1200 0.950 . S
C1205 C1207 1.327 . S
C1205 C1211 1.429 . S
C1206 C1198 1.574 . S
C1206 H1201 0.949 . S
C1206 C1212 1.368 . S
C1207 C1191 1.349 . S
C1207 H1199 0.950 . S
C1207 C1205 1.327 . S
C1208 C1196 1.349 . S
C1208 H1202 0.950 . S
C1208 C1209 1.327 . S
C1209 H1203 0.950 . S
C1209 C1208 1.327 . S
C1209 C1213 1.429 . S
C1210 C1193 1.574 . S
C1210 H1204 0.949 . S
C1210 C1214 1.368 . S
C1211 C1192 1.429 . S
C1211 C1205 1.429 . S
C1211 C1212 1.523 . S
C1212 C1193 1.368 . S
C1212 C1206 1.368 . S
C1212 C1211 1.523 . S
C1213 C1197 1.429 . S
C1213 C1209 1.429 . S
C1213 C1214 1.523 . S
C1214 C1198 1.368 . S
C1214 C1210 1.368 . S
C1214 C1213 1.523 . S
H1215 C1190 0.950 . S
H1216 C1192 0.950 . S
H1217 C1193 0.949 . S
H1218 C1195 0.950 . S
H1219 C1197 0.950 . S
C1220 C1221 1.349 . S
C1220 C1222 1.327 . S
C1220 H1245 0.950 . S
C1221 C1220 1.349 . S
C1221 C1237 1.349 . S
C1222 C1220 1.327 . S
C1222 C1241 1.429 . S
C1222 H1246 0.950 . S
C1223 C1240 1.574 . S
C1223 C1242 1.368 . S
C1223 H1247 0.949 . S
H1224 C1228 0.949 . S
C1225 C1226 1.349 . S
C1225 C1227 1.327 . S
C1225 H1248 0.950 . S
C1226 C1225 1.349 . S
C1226 C1238 1.349 . S
C1227 C1225 1.327 . S
C1227 C1243 1.429 . S
C1227 H1249 0.950 . S
C1228 H1224 0.949 . S
C1228 C1236 1.574 . S
C1228 C1244 1.368 . S
H1229 C1237 0.950 . S
H1230 C1235 0.950 . S
H1231 C1236 0.949 . S
H1232 C1238 0.950 . S
H1233 C1239 0.950 . S
H1234 C1240 0.949 . S
C1235 H1230 0.950 . S
C1235 C1237 1.327 . S
C1235 C1241 1.429 . S
C1236 C1228 1.574 . S
C1236 H1231 0.949 . S
C1236 C1242 1.368 . S
C1237 C1221 1.349 . S
C1237 H1229 0.950 . S
C1237 C1235 1.327 . S
C1238 C1226 1.349 . S
C1238 H1232 0.950 . S
C1238 C1239 1.327 . S
C1239 H1233 0.950 . S
C1239 C1238 1.327 . S
C1239 C1243 1.429 . S
C1240 C1223 1.574 . S
C1240 H1234 0.949 . S
C1240 C1244 1.368 . S
C1241 C1222 1.429 . S
C1241 C1235 1.429 . S
C1241 C1242 1.523 . S
C1242 C1223 1.368 . S
C1242 C1236 1.368 . S
C1242 C1241 1.523 . S
C1243 C1227 1.429 . S
C1243 C1239 1.429 . S
C1243 C1244 1.523 . S
C1244 C1228 1.368 . S
C1244 C1240 1.368 . S
C1244 C1243 1.523 . S
H1245 C1220 0.950 . S
H1246 C1222 0.950 . S
H1247 C1223 0.949 . S
H1248 C1225 0.950 . S
H1249 C1227 0.950 . S
C1250 C1251 1.349 . S
C1250 C1252 1.327 . S
C1250 H1275 0.950 . S
C1251 C1250 1.349 . S
C1251 C1267 1.349 1_455 S
C1252 C1250 1.327 . S
C1252 C1271 1.429 . S
C1252 H1276 0.950 . S
C1253 C1270 1.574 . S
C1253 C1272 1.368 1_654 S
C1253 H1277 0.949 . S
H1254 C1258 0.949 . S
C1255 C1256 1.349 1_655 S
C1255 C1257 1.327 . S
C1255 H1278 0.950 . S
C1256 C1255 1.349 1_455 S
C1256 C1268 1.349 . S
C1257 C1255 1.327 . S
C1257 C1273 1.429 1_655 S
C1257 H1279 0.950 . S
C1258 H1254 0.949 . S
C1258 C1266 1.574 . S
C1258 C1274 1.368 1_556 S
H1259 C1267 0.950 . S
H1260 C1265 0.950 . S
H1261 C1266 0.949 . S
H1262 C1268 0.950 . S
H1263 C1269 0.950 . S
H1264 C1270 0.949 . S
C1265 H1260 0.950 . S
C1265 C1267 1.327 . S
C1265 C1271 1.429 1_655 S
C1266 C1258 1.574 . S
C1266 H1261 0.949 . S
C1266 C1272 1.368 . S
C1267 C1251 1.349 1_655 S
C1267 H1259 0.950 . S
C1267 C1265 1.327 . S
C1268 C1256 1.349 . S
C1268 H1262 0.950 . S
C1268 C1269 1.327 . S
C1269 H1263 0.950 . S
C1269 C1268 1.327 . S
C1269 C1273 1.429 . S
C1270 C1253 1.574 . S
C1270 H1264 0.949 . S
C1270 C1274 1.368 1_655 S
C1271 C1252 1.429 . S
C1271 C1265 1.429 1_455 S
C1271 C1272 1.523 . S
C1272 C1253 1.368 1_456 S
C1272 C1266 1.368 . S
C1272 C1271 1.523 . S
C1273 C1257 1.429 1_455 S
C1273 C1269 1.429 . S
C1273 C1274 1.523 . S
C1274 C1258 1.368 1_554 S
C1274 C1270 1.368 1_455 S
C1274 C1273 1.523 . S
H1275 C1250 0.950 . S
H1276 C1252 0.950 . S
H1277 C1253 0.949 . S
H1278 C1255 0.950 . S
H1279 C1257 0.950 . S
C1280 C1281 1.349 . S
C1280 C1282 1.327 . S
C1280 H1305 0.950 . S
C1281 C1280 1.349 . S
C1281 C1297 1.349 . S
C1282 C1280 1.327 . S
C1282 C1301 1.429 . S
C1282 H1306 0.950 . S
C1283 C1300 1.574 . S
C1283 C1302 1.368 . S
C1283 H1307 0.949 . S
H1284 C1288 0.949 . S
C1285 C1286 1.349 . S
C1285 C1287 1.327 . S
C1285 H1308 0.950 . S
C1286 C1285 1.349 . S
C1286 C1298 1.349 . S
C1287 C1285 1.327 . S
C1287 C1303 1.429 . S
C1287 H1309 0.950 . S
C1288 H1284 0.949 . S
C1288 C1296 1.574 . S
C1288 C1304 1.368 . S
H1289 C1297 0.950 . S
H1290 C1295 0.950 . S
H1291 C1296 0.949 . S
H1292 C1298 0.950 . S
H1293 C1299 0.950 . S
H1294 C1300 0.949 . S
C1295 H1290 0.950 . S
C1295 C1297 1.327 . S
C1295 C1301 1.429 . S
C1296 C1288 1.574 . S
C1296 H1291 0.949 . S
C1296 C1302 1.368 . S
C1297 C1281 1.349 . S
C1297 H1289 0.950 . S
C1297 C1295 1.327 . S
C1298 C1286 1.349 . S
C1298 H1292 0.950 . S
C1298 C1299 1.327 . S
C1299 H1293 0.950 . S
C1299 C1298 1.327 . S
C1299 C1303 1.429 . S
C1300 C1283 1.574 . S
C1300 H1294 0.949 . S
C1300 C1304 1.368 . S
C1301 C1282 1.429 . S
C1301 C1295 1.429 . S
C1301 C1302 1.523 . S
C1302 C1283 1.368 . S
C1302 C1296 1.368 . S
C1302 C1301 1.523 . S
C1303 C1287 1.429 . S
C1303 C1299 1.429 . S
C1303 C1304 1.523 . S
C1304 C1288 1.368 . S
C1304 C1300 1.368 . S
C1304 C1303 1.523 . S
H1305 C1280 0.950 . S
H1306 C1282 0.950 . S
H1307 C1283 0.949 . S
H1308 C1285 0.950 . S
H1309 C1287 0.950 . S
C1310 C1311 1.349 . S
C1310 C1312 1.327 . S
C1310 H1335 0.950 . S
C1311 C1310 1.349 . S
C1311 C1327 1.349 . S
C1312 C1310 1.327 . S
C1312 C1331 1.429 . S
C1312 H1336 0.950 . S
C1313 C1330 1.574 . S
C1313 C1332 1.368 . S
C1313 H1337 0.949 . S
H1314 C1318 0.949 . S
C1315 C1316 1.349 . S
C1315 C1317 1.327 . S
C1315 H1338 0.950 . S
C1316 C1315 1.349 . S
C1316 C1328 1.349 . S
C1317 C1315 1.327 . S
C1317 C1333 1.429 . S
C1317 H1339 0.950 . S
C1318 H1314 0.949 . S
C1318 C1326 1.574 . S
C1318 C1334 1.368 . S
H1319 C1327 0.950 . S
H1320 C1325 0.950 . S
H1321 C1326 0.949 . S
H1322 C1328 0.950 . S
H1323 C1329 0.950 . S
H1324 C1330 0.949 . S
C1325 H1320 0.950 . S
C1325 C1327 1.327 . S
C1325 C1331 1.429 . S
C1326 C1318 1.574 . S
C1326 H1321 0.949 . S
C1326 C1332 1.368 . S
C1327 C1311 1.349 . S
C1327 H1319 0.950 . S
C1327 C1325 1.327 . S
C1328 C1316 1.349 . S
C1328 H1322 0.950 . S
C1328 C1329 1.327 . S
C1329 H1323 0.950 . S
C1329 C1328 1.327 . S
C1329 C1333 1.429 . S
C1330 C1313 1.574 . S
C1330 H1324 0.949 . S
C1330 C1334 1.368 . S
C1331 C1312 1.429 . S
C1331 C1325 1.429 . S
C1331 C1332 1.523 . S
C1332 C1313 1.368 . S
C1332 C1326 1.368 . S
C1332 C1331 1.523 . S
C1333 C1317 1.429 . S
C1333 C1329 1.429 . S
C1333 C1334 1.523 . S
C1334 C1318 1.368 . S
C1334 C1330 1.368 . S
C1334 C1333 1.523 . S
H1335 C1310 0.950 . S
H1336 C1312 0.950 . S
H1337 C1313 0.949 . S
H1338 C1315 0.950 . S
H1339 C1317 0.950 . S
C1340 C1341 1.349 . S
C1340 C1342 1.327 . S
C1340 H1365 0.950 . S
C1341 C1340 1.349 . S
C1341 C1357 1.349 . S
C1342 C1340 1.327 . S
C1342 C1361 1.429 . S
C1342 H1366 0.950 . S
C1343 C1360 1.574 . S
C1343 C1362 1.368 . S
C1343 H1367 0.949 . S
H1344 C1348 0.949 . S
C1345 C1346 1.349 . S
C1345 C1347 1.327 . S
C1345 H1368 0.950 . S
C1346 C1345 1.349 . S
C1346 C1358 1.349 . S
C1347 C1345 1.327 . S
C1347 C1363 1.429 . S
C1347 H1369 0.950 . S
C1348 H1344 0.949 . S
C1348 C1356 1.574 . S
C1348 C1364 1.368 . S
H1349 C1357 0.950 1_554 S
H1350 C1355 0.950 . S
H1351 C1356 0.949 . S
H1352 C1358 0.950 . S
H1353 C1359 0.950 . S
H1354 C1360 0.949 . S
C1355 H1350 0.950 . S
C1355 C1357 1.327 . S
C1355 C1361 1.429 . S
C1356 C1348 1.574 . S
C1356 H1351 0.949 . S
C1356 C1362 1.368 . S
C1357 C1341 1.349 . S
C1357 H1349 0.950 1_556 S
C1357 C1355 1.327 . S
C1358 C1346 1.349 . S
C1358 H1352 0.950 . S
C1358 C1359 1.327 . S
C1359 H1353 0.950 . S
C1359 C1358 1.327 . S
C1359 C1363 1.429 . S
C1360 C1343 1.574 . S
C1360 H1354 0.949 . S
C1360 C1364 1.368 . S
C1361 C1342 1.429 . S
C1361 C1355 1.429 . S
C1361 C1362 1.523 . S
C1362 C1343 1.368 . S
C1362 C1356 1.368 . S
C1362 C1361 1.523 . S
C1363 C1347 1.429 . S
C1363 C1359 1.429 . S
C1363 C1364 1.523 . S
C1364 C1348 1.368 . S
C1364 C1360 1.368 . S
C1364 C1363 1.523 . S
H1365 C1340 0.950 . S
H1366 C1342 0.950 . S
H1367 C1343 0.949 . S
H1368 C1345 0.950 . S
H1369 C1347 0.950 . S
C1370 C1371 1.349 . S
C1370 C1372 1.327 . S
C1370 H1395 0.950 . S
C1371 C1370 1.349 . S
C1371 C1387 1.349 . S
C1372 C1370 1.327 . S
C1372 C1391 1.429 . S
C1372 H1396 0.950 . S
C1373 C1390 1.574 . S
C1373 C1392 1.368 . S
C1373 H1397 0.949 . S
H1374 C1378 0.949 . S
C1375 C1376 1.349 . S
C1375 C1377 1.327 . S
C1375 H1398 0.950 . S
C1376 C1375 1.349 . S
C1376 C1388 1.349 . S
C1377 C1375 1.327 . S
C1377 C1393 1.429 . S
C1377 H1399 0.950 . S
C1378 H1374 0.949 . S
C1378 C1386 1.574 . S
C1378 C1394 1.368 . S
H1379 C1387 0.950 . S
H1380 C1385 0.950 . S
H1381 C1386 0.949 . S
H1382 C1388 0.950 . S
H1383 C1389 0.950 . S
H1384 C1390 0.949 . S
C1385 H1380 0.950 . S
C1385 C1387 1.327 . S
C1385 C1391 1.429 . S
C1386 C1378 1.574 . S
C1386 H1381 0.949 . S
C1386 C1392 1.368 . S
C1387 C1371 1.349 . S
C1387 H1379 0.950 . S
C1387 C1385 1.327 . S
C1388 C1376 1.349 . S
C1388 H1382 0.950 . S
C1388 C1389 1.327 . S
C1389 H1383 0.950 . S
C1389 C1388 1.327 . S
C1389 C1393 1.429 . S
C1390 C1373 1.574 . S
C1390 H1384 0.949 . S
C1390 C1394 1.368 . S
C1391 C1372 1.429 . S
C1391 C1385 1.429 . S
C1391 C1392 1.523 . S
C1392 C1373 1.368 . S
C1392 C1386 1.368 . S
C1392 C1391 1.523 . S
C1393 C1377 1.429 . S
C1393 C1389 1.429 . S
C1393 C1394 1.523 . S
C1394 C1378 1.368 . S
C1394 C1390 1.368 . S
C1394 C1393 1.523 . S
H1395 C1370 0.950 . S
H1396 C1372 0.950 . S
H1397 C1373 0.949 . S
H1398 C1375 0.950 . S
H1399 C1377 0.950 . S
C1400 C1401 1.349 . S
C1400 C1402 1.327 . S
C1400 H1425 0.950 . S
C1401 C1400 1.349 . S
C1401 C1417 1.349 . S
C1402 C1400 1.327 . S
C1402 C1421 1.429 . S
C1402 H1426 0.950 . S
C1403 C1420 1.574 . S
C1403 C1422 1.368 . S
C1403 H1427 0.949 . S
H1404 C1408 0.949 . S
C1405 C1406 1.349 . S
C1405 C1407 1.327 . S
C1405 H1428 0.950 . S
C1406 C1405 1.349 . S
C1406 C1418 1.349 1_455 S
C1407 C1405 1.327 . S
C1407 C1423 1.429 1_455 S
C1407 H1429 0.950 . S
C1408 H1404 0.949 . S
C1408 C1416 1.574 . S
C1408 C1424 1.368 . S
H1409 C1417 0.950 . S
H1410 C1415 0.950 . S
H1411 C1416 0.949 . S
H1412 C1418 0.950 . S
H1413 C1419 0.950 . S
H1414 C1420 0.949 1_455 S
C1415 H1410 0.950 . S
C1415 C1417 1.327 . S
C1415 C1421 1.429 . S
C1416 C1408 1.574 . S
C1416 H1411 0.949 . S
C1416 C1422 1.368 . S
C1417 C1401 1.349 . S
C1417 H1409 0.950 . S
C1417 C1415 1.327 . S
C1418 C1406 1.349 1_655 S
C1418 H1412 0.950 . S
C1418 C1419 1.327 . S
C1419 H1413 0.950 . S
C1419 C1418 1.327 . S
C1419 C1423 1.429 . S
C1420 C1403 1.574 . S
C1420 H1414 0.949 1_655 S
C1420 C1424 1.368 . S
C1421 C1402 1.429 . S
C1421 C1415 1.429 . S
C1421 C1422 1.523 . S
C1422 C1403 1.368 . S
C1422 C1416 1.368 . S
C1422 C1421 1.523 . S
C1423 C1407 1.429 1_655 S
C1423 C1419 1.429 . S
C1423 C1424 1.523 . S
C1424 C1408 1.368 . S
C1424 C1420 1.368 . S
C1424 C1423 1.523 . S
H1425 C1400 0.950 . S
H1426 C1402 0.950 . S
H1427 C1403 0.949 . S
H1428 C1405 0.950 . S
H1429 C1407 0.950 . S
C1430 C1431 1.349 . S
C1430 C1432 1.327 . S
C1430 H1455 0.950 . S
C1431 C1430 1.349 . S
C1431 C1447 1.349 . S
C1432 C1430 1.327 . S
C1432 C1451 1.429 . S
C1432 H1456 0.950 . S
C1433 C1450 1.574 . S
C1433 C1452 1.368 . S
C1433 H1457 0.949 . S
H1434 C1438 0.949 . S
C1435 C1436 1.349 . S
C1435 C1437 1.327 . S
C1435 H1458 0.950 . S
C1436 C1435 1.349 . S
C1436 C1448 1.349 1_455 S
C1437 C1435 1.327 . S
C1437 C1453 1.429 1_455 S
C1437 H1459 0.950 . S
C1438 H1434 0.949 . S
C1438 C1446 1.574 . S
C1438 C1454 1.368 . S
H1439 C1447 0.950 . S
H1440 C1445 0.950 . S
H1441 C1446 0.949 . S
H1442 C1448 0.950 . S
H1443 C1449 0.950 . S
H1444 C1450 0.949 1_455 S
C1445 H1440 0.950 . S
C1445 C1447 1.327 . S
C1445 C1451 1.429 . S
C1446 C1438 1.574 . S
C1446 H1441 0.949 . S
C1446 C1452 1.368 . S
C1447 C1431 1.349 . S
C1447 H1439 0.950 . S
C1447 C1445 1.327 . S
C1448 C1436 1.349 1_655 S
C1448 H1442 0.950 . S
C1448 C1449 1.327 . S
C1449 H1443 0.950 . S
C1449 C1448 1.327 . S
C1449 C1453 1.429 . S
C1450 C1433 1.574 . S
C1450 H1444 0.949 1_655 S
C1450 C1454 1.368 . S
C1451 C1432 1.429 . S
C1451 C1445 1.429 . S
C1451 C1452 1.523 . S
C1452 C1433 1.368 . S
C1452 C1446 1.368 . S
C1452 C1451 1.523 . S
C1453 C1437 1.429 1_655 S
C1453 C1449 1.429 . S
C1453 C1454 1.523 . S
C1454 C1438 1.368 . S
C1454 C1450 1.368 . S
C1454 C1453 1.523 . S
H1455 C1430 0.950 . S
H1456 C1432 0.950 . S
H1457 C1433 0.949 . S
H1458 C1435 0.950 . S
H1459 C1437 0.950 . S
C1460 C1461 1.353 . S
C1460 C1462 1.327 . S
C1460 H1485 0.950 . S
C1461 C1460 1.353 . S
C1461 C1477 1.352 . S
C1462 C1460 1.327 . S
C1462 C1481 1.429 . S
C1462 H1486 0.950 . S
C1463 C1480 1.574 . S
C1463 C1482 1.368 . S
C1463 H1487 0.949 . S
H1464 C1468 0.949 . S
C1465 C1466 1.349 . S
C1465 C1467 1.327 . S
C1465 H1488 0.950 . S
C1466 C1465 1.349 . S
C1466 C1478 1.349 . S
C1467 C1465 1.327 . S
C1467 C1483 1.429 . S
C1467 H1489 0.950 . S
C1468 H1464 0.949 . S
C1468 C1476 1.574 . S
C1468 C1484 1.368 . S
H1469 C1477 0.950 . S
H1470 C1475 0.950 . S
H1471 C1476 0.949 . S
H1472 C1478 0.950 . S
H1473 C1479 0.950 . S
H1474 C1480 0.949 . S
C1475 H1470 0.950 . S
C1475 C1477 1.327 . S
C1475 C1481 1.429 . S
C1476 C1468 1.574 . S
C1476 H1471 0.949 . S
C1476 C1482 1.368 . S
C1477 C1461 1.352 . S
C1477 H1469 0.950 . S
C1477 C1475 1.327 . S
C1478 C1466 1.349 . S
C1478 H1472 0.950 . S
C1478 C1479 1.327 . S
C1479 H1473 0.950 . S
C1479 C1478 1.327 . S
C1479 C1483 1.429 . S
C1480 C1463 1.574 . S
C1480 H1474 0.949 . S
C1480 C1484 1.368 . S
C1481 C1462 1.429 . S
C1481 C1475 1.429 . S
C1481 C1482 1.523 . S
C1482 C1463 1.368 . S
C1482 C1476 1.368 . S
C1482 C1481 1.523 . S
C1483 C1467 1.429 . S
C1483 C1479 1.429 . S
C1483 C1484 1.523 . S
C1484 C1468 1.368 . S
C1484 C1480 1.368 . S
C1484 C1483 1.523 . S
H1485 C1460 0.950 . S
H1486 C1462 0.950 . S
H1487 C1463 0.949 . S
H1488 C1465 0.950 . S
H1489 C1467 0.950 . S
C1490 C1491 1.349 . S
C1490 C1492 1.327 . S
C1490 H1515 0.950 . S
C1491 C1490 1.349 . S
C1491 C1507 1.349 . S
C1492 C1490 1.327 . S
C1492 C1511 1.429 . S
C1492 H1516 0.950 . S
C1493 C1510 1.574 . S
C1493 C1512 1.368 . S
C1493 H1517 0.949 . S
H1494 C1498 0.949 . S
C1495 C1496 1.356 . S
C1495 C1497 1.327 . S
C1495 H1518 0.950 . S
C1496 C1495 1.356 . S
C1496 C1508 1.348 1_556 S
C1497 C1495 1.327 . S
C1497 C1513 1.429 . S
C1497 H1519 0.950 . S
C1498 H1494 0.949 . S
C1498 C1506 1.574 . S
C1498 C1514 1.368 . S
H1499 C1507 0.950 . S
H1500 C1505 0.950 . S
H1501 C1506 0.949 . S
H1502 C1508 0.950 . S
H1503 C1509 0.950 . S
H1504 C1510 0.949 . S
C1505 H1500 0.950 . S
C1505 C1507 1.327 . S
C1505 C1511 1.429 . S
C1506 C1498 1.574 . S
C1506 H1501 0.949 . S
C1506 C1512 1.368 . S
C1507 C1491 1.349 . S
C1507 H1499 0.950 . S
C1507 C1505 1.327 . S
C1508 C1496 1.348 1_554 S
C1508 H1502 0.950 . S
C1508 C1509 1.327 1_554 S
C1509 H1503 0.950 . S
C1509 C1508 1.327 1_556 S
C1509 C1513 1.429 . S
C1510 C1493 1.574 . S
C1510 H1504 0.949 . S
C1510 C1514 1.368 . S
C1511 C1492 1.429 . S
C1511 C1505 1.429 . S
C1511 C1512 1.523 . S
C1512 C1493 1.368 . S
C1512 C1506 1.368 . S
C1512 C1511 1.523 . S
C1513 C1497 1.429 . S
C1513 C1509 1.429 . S
C1513 C1514 1.523 . S
C1514 C1498 1.368 . S
C1514 C1510 1.368 . S
C1514 C1513 1.523 . S
H1515 C1490 0.950 . S
H1516 C1492 0.950 . S
H1517 C1493 0.949 . S
H1518 C1495 0.950 . S
H1519 C1497 0.950 . S
C1520 C1521 1.349 . S
C1520 C1522 1.327 . S
C1520 H1545 0.950 . S
C1521 C1520 1.349 . S
C1521 C1537 1.349 . S
C1522 C1520 1.327 . S
C1522 C1541 1.429 . S
C1522 H1546 0.950 . S
C1523 C1540 1.574 . S
C1523 C1542 1.368 . S
C1523 H1547 0.949 . S
H1524 C1528 0.949 . S
C1525 C1526 1.349 1_556 S
C1525 C1527 1.327 . S
C1525 H1548 0.950 . S
C1526 C1525 1.349 1_554 S
C1526 C1538 1.349 . S
C1527 C1525 1.327 . S
C1527 C1543 1.429 . S
C1527 H1549 0.950 . S
C1528 H1524 0.949 . S
C1528 C1536 1.574 . S
C1528 C1544 1.368 . S
H1529 C1537 0.950 . S
H1530 C1535 0.950 . S
H1531 C1536 0.949 . S
H1532 C1538 0.950 . S
H1533 C1539 0.950 . S
H1534 C1540 0.949 . S
C1535 H1530 0.950 . S
C1535 C1537 1.327 . S
C1535 C1541 1.429 . S
C1536 C1528 1.574 . S
C1536 H1531 0.949 . S
C1536 C1542 1.368 . S
C1537 C1521 1.349 . S
C1537 H1529 0.950 . S
C1537 C1535 1.327 . S
C1538 C1526 1.349 . S
C1538 H1532 0.950 . S
C1538 C1539 1.327 1_554 S
C1539 H1533 0.950 . S
C1539 C1538 1.327 1_556 S
C1539 C1543 1.429 . S
C1540 C1523 1.574 . S
C1540 H1534 0.949 . S
C1540 C1544 1.368 . S
C1541 C1522 1.429 . S
C1541 C1535 1.429 . S
C1541 C1542 1.523 . S
C1542 C1523 1.368 . S
C1542 C1536 1.368 . S
C1542 C1541 1.523 . S
C1543 C1527 1.429 . S
C1543 C1539 1.429 . S
C1543 C1544 1.523 . S
C1544 C1528 1.368 . S
C1544 C1540 1.368 . S
C1544 C1543 1.523 . S
H1545 C1520 0.950 . S
H1546 C1522 0.950 . S
H1547 C1523 0.949 . S
H1548 C1525 0.950 . S
H1549 C1527 0.950 . S
C1550 C1551 1.349 . S
C1550 C1552 1.327 . S
C1550 H1575 0.950 . S
C1551 C1550 1.349 . S
C1551 C1567 1.349 . S
C1552 C1550 1.327 . S
C1552 C1571 1.429 . S
C1552 H1576 0.950 . S
C1553 C1570 1.574 . S
C1553 C1572 1.368 . S
C1553 H1577 0.949 . S
H1554 C1558 0.949 . S
C1555 C1556 1.349 . S
C1555 C1557 1.327 1_556 S
C1555 H1578 0.950 . S
C1556 C1555 1.349 . S
C1556 C1568 1.349 1_556 S
C1557 C1555 1.327 1_554 S
C1557 C1573 1.429 . S
C1557 H1579 0.950 . S
C1558 H1554 0.949 . S
C1558 C1566 1.574 . S
C1558 C1574 1.368 . S
H1559 C1567 0.950 . S
H1560 C1565 0.950 . S
H1561 C1566 0.949 . S
H1562 C1568 0.950 . S
H1563 C1569 0.950 . S
H1564 C1570 0.949 . S
C1565 H1560 0.950 . S
C1565 C1567 1.327 . S
C1565 C1571 1.429 . S
C1566 C1558 1.574 . S
C1566 H1561 0.949 . S
C1566 C1572 1.368 . S
C1567 C1551 1.349 . S
C1567 H1559 0.950 . S
C1567 C1565 1.327 . S
C1568 C1556 1.349 1_554 S
C1568 H1562 0.950 . S
C1568 C1569 1.327 . S
C1569 H1563 0.950 . S
C1569 C1568 1.327 . S
C1569 C1573 1.429 . S
C1570 C1553 1.574 . S
C1570 H1564 0.949 . S
C1570 C1574 1.368 . S
C1571 C1552 1.429 . S
C1571 C1565 1.429 . S
C1571 C1572 1.523 . S
C1572 C1553 1.368 . S
C1572 C1566 1.368 . S
C1572 C1571 1.523 . S
C1573 C1557 1.429 . S
C1573 C1569 1.429 . S
C1573 C1574 1.523 . S
C1574 C1558 1.368 . S
C1574 C1570 1.368 . S
C1574 C1573 1.523 . S
H1575 C1550 0.950 . S
H1576 C1552 0.950 . S
H1577 C1553 0.949 . S
H1578 C1555 0.950 . S
H1579 C1557 0.950 . S
C1580 C1581 1.349 . S
C1580 C1582 1.327 . S
C1580 H1605 0.979 . S
C1581 C1580 1.349 . S
C1581 C1597 1.349 . S
C1582 C1580 1.327 . S
C1582 C1601 1.429 . S
C1582 H1606 0.950 . S
C1583 C1600 1.574 . S
C1583 C1602 1.368 . S
C1583 H1607 0.949 . S
H1584 C1588 0.949 . S
C1585 C1586 1.349 . S
C1585 C1587 1.327 . S
C1585 H1608 0.950 . S
C1586 C1585 1.349 . S
C1586 C1598 1.349 . S
C1587 C1585 1.327 . S
C1587 C1603 1.429 . S
C1587 H1609 0.950 . S
C1588 H1584 0.949 . S
C1588 C1596 1.574 . S
C1588 C1604 1.368 . S
H1589 C1597 0.950 . S
H1590 C1595 0.950 . S
H1591 C1596 0.949 . S
H1592 C1598 0.950 . S
H1593 C1599 0.950 . S
H1594 C1600 0.949 . S
C1595 H1590 0.950 . S
C1595 C1597 1.327 . S
C1595 C1601 1.429 . S
C1596 C1588 1.574 . S
C1596 H1591 0.949 . S
C1596 C1602 1.368 . S
C1597 C1581 1.349 . S
C1597 H1589 0.950 . S
C1597 C1595 1.327 . S
C1598 C1586 1.349 . S
C1598 H1592 0.950 . S
C1598 C1599 1.327 . S
C1599 H1593 0.950 . S
C1599 C1598 1.327 . S
C1599 C1603 1.429 . S
C1600 C1583 1.574 . S
C1600 H1594 0.949 . S
C1600 C1604 1.368 . S
C1601 C1582 1.429 . S
C1601 C1595 1.429 . S
C1601 C1602 1.523 . S
C1602 C1583 1.368 . S
C1602 C1596 1.368 . S
C1602 C1601 1.523 . S
C1603 C1587 1.429 . S
C1603 C1599 1.429 . S
C1603 C1604 1.523 . S
C1604 C1588 1.368 . S
C1604 C1600 1.368 . S
C1604 C1603 1.523 . S
H1605 C1580 0.979 . S
H1606 C1582 0.950 . S
H1607 C1583 0.949 . S
H1608 C1585 0.950 . S
H1609 C1587 0.950 . S
C1610 C1611 1.349 . S
C1610 C1612 1.327 . S
C1610 H1635 0.950 . S
C1611 C1610 1.349 . S
C1611 C1627 1.349 . S
C1612 C1610 1.327 . S
C1612 C1631 1.429 . S
C1612 H1636 0.950 . S
C1613 C1630 1.574 . S
C1613 C1632 1.368 . S
C1613 H1637 0.949 . S
H1614 C1618 0.949 . S
C1615 C1616 1.349 . S
C1615 C1617 1.327 . S
C1615 H1638 0.950 . S
C1616 C1615 1.349 . S
C1616 C1628 1.349 . S
C1617 C1615 1.327 . S
C1617 C1633 1.429 . S
C1617 H1639 0.950 . S
C1618 H1614 0.949 . S
C1618 C1626 1.574 . S
C1618 C1634 1.368 . S
H1619 C1627 0.950 . S
H1620 C1625 0.950 . S
H1621 C1626 0.949 . S
H1622 C1628 0.950 . S
H1623 C1629 0.950 . S
H1624 C1630 0.949 . S
C1625 H1620 0.950 . S
C1625 C1627 1.327 . S
C1625 C1631 1.429 . S
C1626 C1618 1.574 . S
C1626 H1621 0.949 . S
C1626 C1632 1.368 . S
C1627 C1611 1.349 . S
C1627 H1619 0.950 . S
C1627 C1625 1.327 . S
C1628 C1616 1.349 . S
C1628 H1622 0.950 . S
C1628 C1629 1.327 . S
C1629 H1623 0.950 . S
C1629 C1628 1.327 . S
C1629 C1633 1.429 . S
C1630 C1613 1.574 . S
C1630 H1624 0.949 . S
C1630 C1634 1.368 . S
C1631 C1612 1.429 . S
C1631 C1625 1.429 . S
C1631 C1632 1.523 . S
C1632 C1613 1.368 . S
C1632 C1626 1.368 . S
C1632 C1631 1.523 . S
C1633 C1617 1.429 . S
C1633 C1629 1.429 . S
C1633 C1634 1.523 . S
C1634 C1618 1.368 . S
C1634 C1630 1.368 . S
C1634 C1633 1.523 . S
H1635 C1610 0.950 . S
H1636 C1612 0.950 . S
H1637 C1613 0.949 . S
H1638 C1615 0.950 . S
H1639 C1617 0.950 . S
C1640 C1641 1.349 . S
C1640 C1642 1.327 . S
C1640 H1665 0.950 . S
C1641 C1640 1.349 . S
C1641 C1657 1.349 . S
C1642 C1640 1.327 . S
C1642 C1661 1.429 . S
C1642 H1666 0.950 . S
C1643 C1660 1.574 . S
C1643 C1662 1.368 . S
C1643 H1667 0.949 . S
H1644 C1648 0.949 . S
C1645 C1646 1.349 . S
C1645 C1647 1.327 1_556 S
C1645 H1668 0.950 . S
C1646 C1645 1.349 . S
C1646 C1658 1.349 . S
C1647 C1645 1.327 1_554 S
C1647 C1663 1.429 . S
C1647 H1669 0.950 . S
C1648 H1644 0.949 . S
C1648 C1656 1.574 . S
C1648 C1664 1.368 . S
H1649 C1657 0.950 . S
H1650 C1655 0.950 . S
H1651 C1656 0.949 . S
H1652 C1658 0.950 . S
H1653 C1659 0.950 . S
H1654 C1660 0.949 . S
C1655 H1650 0.950 . S
C1655 C1657 1.327 . S
C1655 C1661 1.429 . S
C1656 C1648 1.574 . S
C1656 H1651 0.949 . S
C1656 C1662 1.368 . S
C1657 C1641 1.349 . S
C1657 H1649 0.950 . S
C1657 C1655 1.327 . S
C1658 C1646 1.349 . S
C1658 H1652 0.950 . S
C1658 C1659 1.327 . S
C1659 H1653 0.950 . S
C1659 C1658 1.327 . S
C1659 C1663 1.429 1_556 S
C1660 C1643 1.574 . S
C1660 H1654 0.949 . S
C1660 C1664 1.368 . S
C1661 C1642 1.429 . S
C1661 C1655 1.429 . S
C1661 C1662 1.523 . S
C1662 C1643 1.368 . S
C1662 C1656 1.368 . S
C1662 C1661 1.523 . S
C1663 C1647 1.429 . S
C1663 C1659 1.429 1_554 S
C1663 C1664 1.523 . S
C1664 C1648 1.368 . S
C1664 C1660 1.368 . S
C1664 C1663 1.523 . S
H1665 C1640 0.950 . S
H1666 C1642 0.950 . S
H1667 C1643 0.949 . S
H1668 C1645 0.950 . S
H1669 C1647 0.950 . S
C1670 C1671 1.349 . S
C1670 C1672 1.327 1_554 S
C1670 H1695 0.950 . S
C1671 C1670 1.349 . S
C1671 C1687 1.349 . S
C1672 C1670 1.327 1_556 S
C1672 C1691 1.429 . S
C1672 H1696 0.950 . S
C1673 C1690 1.574 . S
C1673 C1692 1.368 . S
C1673 H1697 0.949 . S
H1674 C1678 0.949 . S
C1675 C1676 1.349 . S
C1675 C1677 1.327 . S
C1675 H1698 0.950 . S
C1676 C1675 1.349 . S
C1676 C1688 1.349 . S
C1677 C1675 1.327 . S
C1677 C1693 1.429 . S
C1677 H1699 0.950 . S
C1678 H1674 0.949 . S
C1678 C1686 1.574 . S
C1678 C1694 1.368 . S
H1679 C1687 0.950 . S
H1680 C1685 0.950 . S
H1681 C1686 0.949 . S
H1682 C1688 0.950 . S
H1683 C1689 0.950 . S
H1684 C1690 0.949 . S
C1685 H1680 0.950 . S
C1685 C1687 1.327 1_556 S
C1685 C1691 1.429 . S
C1686 C1678 1.574 . S
C1686 H1681 0.949 . S
C1686 C1692 1.368 . S
C1687 C1671 1.349 . S
C1687 H1679 0.950 . S
C1687 C1685 1.327 1_554 S
C1688 C1676 1.349 . S
C1688 H1682 0.950 . S
C1688 C1689 1.327 . S
C1689 H1683 0.950 . S
C1689 C1688 1.327 . S
C1689 C1693 1.429 . S
C1690 C1673 1.574 . S
C1690 H1684 0.949 . S
C1690 C1694 1.368 . S
C1691 C1672 1.429 . S
C1691 C1685 1.429 . S
C1691 C1692 1.523 . S
C1692 C1673 1.368 . S
C1692 C1686 1.368 . S
C1692 C1691 1.523 . S
C1693 C1677 1.429 . S
C1693 C1689 1.429 . S
C1693 C1694 1.523 . S
C1694 C1678 1.368 . S
C1694 C1690 1.368 . S
C1694 C1693 1.523 . S
H1695 C1670 0.950 . S
H1696 C1672 0.950 . S
H1697 C1673 0.949 . S
H1698 C1675 0.950 . S
H1699 C1677 0.950 . S
C1700 C1701 1.349 . S
C1700 C1702 1.327 . S
C1700 H1725 0.950 . S
C1701 C1700 1.349 . S
C1701 C1717 1.349 . S
C1702 C1700 1.327 . S
C1702 C1721 1.429 . S
C1702 H1726 0.950 . S
C1703 C1720 1.574 . S
C1703 C1722 1.368 . S
C1703 H1727 0.949 . S
H1704 C1708 0.949 . S
C1705 C1706 1.349 . S
C1705 C1707 1.327 . S
C1705 H1728 0.950 . S
C1706 C1705 1.349 . S
C1706 C1718 1.349 . S
C1707 C1705 1.327 . S
C1707 C1723 1.429 . S
C1707 H1729 0.950 . S
C1708 H1704 0.949 . S
C1708 C1716 1.574 . S
C1708 C1724 1.368 . S
H1709 C1717 0.950 . S
H1710 C1715 0.950 . S
H1711 C1716 0.949 . S
H1712 C1718 0.950 . S
H1713 C1719 0.950 . S
H1714 C1720 0.949 . S
C1715 H1710 0.950 . S
C1715 C1717 1.327 . S
C1715 C1721 1.429 . S
C1716 C1708 1.574 . S
C1716 H1711 0.949 . S
C1716 C1722 1.368 . S
C1717 C1701 1.349 . S
C1717 H1709 0.950 . S
C1717 C1715 1.327 . S
C1718 C1706 1.349 . S
C1718 H1712 0.950 . S
C1718 C1719 1.327 . S
C1719 H1713 0.950 . S
C1719 C1718 1.327 . S
C1719 C1723 1.429 . S
C1720 C1703 1.574 . S
C1720 H1714 0.949 . S
C1720 C1724 1.368 . S
C1721 C1702 1.429 . S
C1721 C1715 1.429 . S
C1721 C1722 1.523 . S
C1722 C1703 1.368 . S
C1722 C1716 1.368 . S
C1722 C1721 1.523 . S
C1723 C1707 1.429 . S
C1723 C1719 1.429 . S
C1723 C1724 1.523 . S
C1724 C1708 1.368 . S
C1724 C1720 1.368 . S
C1724 C1723 1.523 . S
H1725 C1700 0.950 . S
H1726 C1702 0.950 . S
H1727 C1703 0.949 . S
H1728 C1705 0.950 . S
H1729 C1707 0.950 . S
C1730 C1731 1.349 . S
C1730 C1732 1.327 . S
C1730 H1755 0.950 . S
C1731 C1730 1.349 . S
C1731 C1747 1.349 . S
C1732 C1730 1.327 . S
C1732 C1751 1.429 . S
C1732 H1756 0.950 . S
C1733 C1750 1.574 . S
C1733 C1752 1.368 . S
C1733 H1757 0.949 . S
H1734 C1738 0.949 . S
C1735 C1736 1.349 . S
C1735 C1737 1.327 . S
C1735 H1758 0.950 . S
C1736 C1735 1.349 . S
C1736 C1748 1.349 . S
C1737 C1735 1.327 . S
C1737 C1753 1.429 . S
C1737 H1759 0.950 . S
C1738 H1734 0.949 . S
C1738 C1746 1.574 . S
C1738 C1754 1.368 . S
H1739 C1747 0.950 . S
H1740 C1745 0.950 . S
H1741 C1746 0.949 . S
H1742 C1748 0.950 . S
H1743 C1749 0.950 . S
H1744 C1750 0.949 . S
C1745 H1740 0.950 . S
C1745 C1747 1.327 . S
C1745 C1751 1.429 . S
C1746 C1738 1.574 . S
C1746 H1741 0.949 . S
C1746 C1752 1.368 . S
C1747 C1731 1.349 . S
C1747 H1739 0.950 . S
C1747 C1745 1.327 . S
C1748 C1736 1.349 . S
C1748 H1742 0.950 . S
C1748 C1749 1.327 . S
C1749 H1743 0.950 . S
C1749 C1748 1.327 . S
C1749 C1753 1.429 . S
C1750 C1733 1.574 . S
C1750 H1744 0.949 . S
C1750 C1754 1.368 . S
C1751 C1732 1.429 . S
C1751 C1745 1.429 . S
C1751 C1752 1.523 . S
C1752 C1733 1.368 . S
C1752 C1746 1.368 . S
C1752 C1751 1.523 . S
C1753 C1737 1.429 . S
C1753 C1749 1.429 . S
C1753 C1754 1.523 . S
C1754 C1738 1.368 . S
C1754 C1750 1.368 . S
C1754 C1753 1.523 . S
H1755 C1730 0.950 . S
H1756 C1732 0.950 . S
H1757 C1733 0.949 . S
H1758 C1735 0.950 . S
H1759 C1737 0.950 . S
C321 C6 0.885 . S
C326 C146 0.886 . S
C351 C26 0.886 . S
C356 C86 0.885 . S
C381 C108 1.270 . S
C386 C46 1.331 . S
C411 C68 1.270 . S
C416 C126 1.331 . S
C441 C236 1.530 . S
C446 C99 1.473 . S
C471 C176 1.530 . S
C476 C19 1.473 . S
C501 C219 1.859 . S
C506 C139 1.864 . S
C531 C59 1.864 . S
C536 C199 1.859 . S
C561 C186 0.886 . S
C566 C246 0.885 . S
C591 C206 0.886 . S
C596 C286 0.885 . S
C621 C266 1.331 1_556 S
C626 C168 1.270 . S
C651 C228 1.270 . S
C656 C306 1.331 1_554 S
C681 C299 1.473 . S
C686 C76 1.530 . S
C711 C259 1.473 . S
C716 C116 1.530 . S
C741 C39 1.859 . S
C746 C319 1.864 . S
C771 C159 1.859 . S
C776 C279 1.864 . S
C801 C269 1.517 . S
C806 C9 1.657 . S
C831 C221 1.577 . S
C836 C29 1.510 . S
C861 C249 1.657 . S
C866 C49 1.517 . S
C891 C209 1.510 . S
C896 C61 1.577 . S
C921 C89 1.657 . S
C926 C309 1.517 . S
C951 C189 1.510 . S
C956 C101 1.577 . S
C981 C129 1.517 . S
C986 C289 1.657 . S
C1011 C149 1.510 . S
C1016 C161 1.577 . S
C1041 C1 1.256 . S
C1046 C81 1.256 . S
C1071 C21 1.362 . S
C1076 C109 1.370 . S
C1101 C121 1.444 . S
C1106 C41 1.444 . S
C1131 C69 1.370 . S
C1136 C141 1.362 . S
C1161 C201 1.362 . S
C1166 C169 1.370 . S
C1191 C229 1.370 . S
C1196 C181 1.362 . S
C1221 C241 1.256 . S
C1226 C281 1.256 . S
C1251 C301 1.444 . S
C1256 C261 1.444 . S
C1281 C8 2.127 . S
C1286 C148 2.123 . S
C1311 C28 2.123 . S
C1316 C88 2.127 . S
C1341 C106 2.081 1_556 S
C1346 C48 2.086 . S
C1371 C128 2.086 . S
C1376 C66 2.081 1_554 S
C1401 C239 1.246 . S
C1406 C96 1.243 . S
C1431 C179 1.246 . S
C1436 C16 1.243 . S
C1461 C216 1.179 1_554 S
C1466 C136 1.188 . S
C1491 C56 1.188 . S
C1496 C196 1.179 1_556 S
C1521 C248 2.127 . S
C1526 C188 2.123 . S
C1551 C288 2.127 . S
C1556 C208 2.123 . S
C1581 C268 2.086 . S
C1586 C166 2.081 . S
C1611 C308 2.086 . S
C1616 C226 2.081 . S
C1641 C296 1.243 . S
C1646 C79 1.246 . S
C1671 C119 1.246 . S
C1676 C256 1.243 . S
C1701 C36 1.187 . S
C1706 C316 1.188 . S
C1731 C276 1.188 . S
C1736 C156 1.187 . S
