# Generated by pormake.
# Topology yfl, (5)-cn, num edge types: 1
# Building blocks:
#     Node 0, Type 0, BuildingBlock: XOMCOT_clean_sbu_1, # of connection points: 5
#     Node 1, Type 0, BuildingBlock: XOMCOT_clean_sbu_1, # of connection points: 5
#     Node 2, Type 0, BuildingBlock: XOMCOT_clean_sbu_1, # of connection points: 5
#     Node 3, Type 0, BuildingBlock: XOMCOT_clean_sbu_1, # of connection points: 5
#     Node 4, Type 0, BuildingBlock: XOMCOT_clean_sbu_1, # of connection points: 5
#     Node 5, Type 0, BuildingBlock: XOMCOT_clean_sbu_1, # of connection points: 5
#     Node 6, Type 0, BuildingBlock: XOMCOT_clean_sbu_1, # of connection points: 5
#     Node 7, Type 0, BuildingBlock: XOMCOT_clean_sbu_1, # of connection points: 5
#     Node 8, Type 0, BuildingBlock: XOMCOT_clean_sbu_1, # of connection points: 5
#     Node 9, Type 0, BuildingBlock: XOMCOT_clean_sbu_1, # of connection points: 5
#     Node 10, Type 0, BuildingBlock: XOMCOT_clean_sbu_1, # of connection points: 5
#     Node 11, Type 0, BuildingBlock: XOMCOT_clean_sbu_1, # of connection points: 5
#     Node 12, Type 0, BuildingBlock: XOMCOT_clean_sbu_1, # of connection points: 5
#     Node 13, Type 0, BuildingBlock: XOMCOT_clean_sbu_1, # of connection points: 5
#     Node 14, Type 0, BuildingBlock: XOMCOT_clean_sbu_1, # of connection points: 5
#     Node 15, Type 0, BuildingBlock: XOMCOT_clean_sbu_1, # of connection points: 5
#     Edge 16, Type (0, 0), None
#     Edge 17, Type (0, 0), None
#     Edge 18, Type (0, 0), None
#     Edge 19, Type (0, 0), None
#     Edge 20, Type (0, 0), None
#     Edge 21, Type (0, 0), None
#     Edge 22, Type (0, 0), None
#     Edge 23, Type (0, 0), None
#     Edge 24, Type (0, 0), None
#     Edge 25, Type (0, 0), None
#     Edge 26, Type (0, 0), None
#     Edge 27, Type (0, 0), None
#     Edge 28, Type (0, 0), None
#     Edge 29, Type (0, 0), None
#     Edge 30, Type (0, 0), None
#     Edge 31, Type (0, 0), None
#     Edge 32, Type (0, 0), None
#     Edge 33, Type (0, 0), None
#     Edge 34, Type (0, 0), None
#     Edge 35, Type (0, 0), None
#     Edge 36, Type (0, 0), None
#     Edge 37, Type (0, 0), None
#     Edge 38, Type (0, 0), None
#     Edge 39, Type (0, 0), None
#     Edge 40, Type (0, 0), None
#     Edge 41, Type (0, 0), None
#     Edge 42, Type (0, 0), None
#     Edge 43, Type (0, 0), None
#     Edge 44, Type (0, 0), None
#     Edge 45, Type (0, 0), None
#     Edge 46, Type (0, 0), None
#     Edge 47, Type (0, 0), None
#     Edge 48, Type (0, 0), None
#     Edge 49, Type (0, 0), None
#     Edge 50, Type (0, 0), None
#     Edge 51, Type (0, 0), None
#     Edge 52, Type (0, 0), None
#     Edge 53, Type (0, 0), None
#     Edge 54, Type (0, 0), None
#     Edge 55, Type (0, 0), None
# Relax obj value: 0.545
# Max RMSD: 0.273
# Mean RMSD: 0.273
data_MOF--net-yfl--node1-XOMCOT_clean_sbu_1--edge1-none
_symmetry_space_group_name_H-M    P1
_symmetry_Int_Tables_number       1
_symmetry_cell_setting            triclinic
loop_
_symmetry_equiv_pos_as_xyz
'x, y, z'
_cell_length_a     13.860686
_cell_length_b     13.860936
_cell_length_c     58.622355
_cell_angle_alpha  90.003487
_cell_angle_beta   89.997325
_cell_angle_gamma 89.999283
loop_
_atom_site_label
_atom_site_type_symbol
_atom_site_fract_x
_atom_site_fract_y
_atom_site_fract_z
_atom_type_partial_charge
C0 C 0.81432 0.24421 0.30335 0.0
C1 C 0.7552 0.27327 0.28562 0.0
N2 N 0.80141 0.34275 0.2739 0.0
N3 N 0.89769 0.29434 0.30236 0.0
C4 C 0.88613 0.35528 0.28464 0.0
H5 H 0.80077 0.1848 0.31487 0.0
Co6 Co 0.01506 0.27255 0.31706 0.0
C7 C 1.00688 0.45739 0.337 0.0
O8 O 0.97546 0.41196 0.35518 0.0
N9 N 0.13421 0.25221 0.3322 0.0
C10 C 0.28921 0.22959 0.34147 0.0
C11 C 0.22386 0.23415 0.32387 0.0
C12 C 0.14719 0.25631 0.35504 0.0
N13 N 0.24054 0.24358 0.36094 0.0
O14 O 0.98974 0.13484 0.31639 0.0
H15 H 0.24173 0.22161 0.30621 0.0
H16 H 0.08949 0.26913 0.36707 0.0
O17 O 0.03135 0.40985 0.31937 0.0
C18 C 0.03661 0.05589 0.31573 0.0
O19 O 0.13108 0.05575 0.31461 0.0
N20 N 0.07732 0.26998 0.28774 0.0
C21 C 0.14997 0.28466 0.24345 0.0
C22 C 0.17787 0.35014 0.26029 0.0
C23 C 0.14101 0.34181 0.28224 0.0
C24 C 0.05126 0.20383 0.27145 0.0
C25 C 0.08797 0.20924 0.24922 0.0
H26 H 0.16438 0.39369 0.29481 0.0
H27 H 0.99754 0.14959 0.27505 0.0
H28 H 0.94292 0.40147 0.27819 0.0
H29 H 0.68815 0.23966 0.28047 0.0
H30 H 0.36567 0.21497 0.3401 0.0
H31 H 0.22648 0.40874 0.2563 0.0
H32 H 0.06383 0.15864 0.23636 0.0
C33 C 0.24428 0.20596 0.69076 0.0
C34 C 0.27331 0.26508 0.70849 0.0
N35 N 0.34275 0.21885 0.72022 0.0
N36 N 0.29439 0.12257 0.69175 0.0
C37 C 0.35529 0.13412 0.70948 0.0
H38 H 0.18491 0.21952 0.67922 0.0
Co39 Co 0.2726 1.00522 0.67705 0.0
C40 C 0.45744 0.01337 0.65711 0.0
O41 O 0.412 0.04483 0.63894 0.0
N42 N 0.25224 0.88608 0.6619 0.0
C43 C 0.22959 0.7311 0.65262 0.0
C44 C 0.23412 0.79644 0.67022 0.0
C45 C 0.2564 0.8731 0.63906 0.0
N46 N 0.24366 0.77976 0.63315 0.0
O47 O 0.1349 0.03056 0.6777 0.0
H48 H 0.22154 0.77857 0.68788 0.0
H49 H 0.26928 0.93079 0.62703 0.0
O50 O 0.4099 0.98889 0.67474 0.0
C51 C 0.05596 0.9837 0.67841 0.0
O52 O 0.05583 0.88924 0.67962 0.0
N53 N 0.26999 0.94295 0.70636 0.0
C54 C 0.2846 0.87026 0.75065 0.0
C55 C 0.35008 0.84232 0.7338 0.0
C56 C 0.34178 0.87921 0.71185 0.0
C57 C 0.20385 0.96905 0.72265 0.0
C58 C 0.20923 0.93232 0.74488 0.0
H59 H 0.39365 0.85582 0.69929 0.0
H60 H 0.14965 0.02281 0.71906 0.0
H61 H 0.40144 0.07732 0.71594 0.0
H62 H 0.23971 0.33215 0.71364 0.0
H63 H 0.21494 0.65463 0.65398 0.0
H64 H 0.40865 0.79368 0.7378 0.0
H65 H 0.15865 0.95649 0.75774 0.0
C66 C 0.20588 0.77588 0.30338 0.0
C67 C 0.265 0.74685 0.28565 0.0
N68 N 0.21875 0.67744 0.27391 0.0
N69 N 0.12246 0.72582 0.30238 0.0
C70 C 0.134 0.66493 0.28465 0.0
H71 H 0.21946 0.83523 0.31493 0.0
Co72 Co 1.00511 0.74764 0.31709 0.0
C73 C 0.01322 0.56279 0.337 0.0
O74 O 0.0447 0.60821 0.35518 0.0
N75 N 0.88597 0.76803 0.33223 0.0
C76 C 0.731 0.79081 0.34151 0.0
C77 C 0.79634 0.78624 0.32392 0.0
C78 C 0.87299 0.76386 0.35507 0.0
N79 N 0.77966 0.77667 0.36098 0.0
O80 O 0.03049 0.88533 0.31645 0.0
H81 H 0.77848 0.79884 0.30625 0.0
H82 H 0.93068 0.75093 0.3671 0.0
O83 O 0.98873 0.61034 0.31938 0.0
C84 C 0.98365 0.96427 0.31569 0.0
O85 O 0.88921 0.9644 0.31438 0.0
N86 N 0.94285 0.7503 0.28777 0.0
C87 C 0.87021 0.73568 0.24348 0.0
C88 C 0.8422 0.67025 0.26032 0.0
C89 C 0.87906 0.67855 0.28227 0.0
C90 C 0.96902 0.81639 0.27148 0.0
C91 C 0.93232 0.81102 0.24925 0.0
H92 H 0.85563 0.6267 0.29484 0.0
H93 H 0.02282 0.87054 0.27508 0.0
H94 H 0.07719 0.61881 0.27818 0.0
H95 H 0.33209 0.78041 0.28051 0.0
H96 H 0.65455 0.80551 0.34016 0.0
H97 H 0.79353 0.61171 0.25633 0.0
H98 H 0.95655 0.86156 0.23638 0.0
C99 C 0.77599 0.81438 0.69074 0.0
C100 C 0.74692 0.75526 0.70847 0.0
N101 N 0.67747 0.80148 0.7202 0.0
N102 N 0.72588 0.89777 0.69173 0.0
C103 C 0.66495 0.88622 0.70946 0.0
H104 H 0.83537 0.80082 0.67921 0.0
Co105 Co 0.74769 0.01513 0.67704 0.0
C106 C 0.56284 1.00703 0.65711 0.0
O107 O 0.60826 0.97561 0.63893 0.0
N108 N 0.76806 0.13427 0.6619 0.0
C109 C 0.79074 0.28924 0.65262 0.0
C110 C 0.78615 0.22392 0.67022 0.0
C111 C 0.76398 0.14722 0.63906 0.0
N112 N 0.77674 0.24056 0.63315 0.0
O113 O 0.88539 0.98978 0.67769 0.0
H114 H 0.79867 0.24181 0.68788 0.0
H115 H 0.75115 0.08951 0.62703 0.0
O116 O 0.61039 0.03147 0.67474 0.0
C117 C 0.96433 0.03665 0.67841 0.0
O118 O 0.96445 0.1311 0.67962 0.0
N119 N 0.75029 0.07739 0.70636 0.0
C120 C 0.7356 0.14999 0.75066 0.0
C121 C 0.67014 0.17795 0.73381 0.0
C122 C 0.67848 0.14111 0.71186 0.0
C123 C 0.81641 0.05127 0.72265 0.0
C124 C 0.811 0.08796 0.74488 0.0
H125 H 0.62663 0.16452 0.69929 0.0
H126 H 0.87062 0.99752 0.71905 0.0
H127 H 0.61879 0.94302 0.71592 0.0
H128 H 0.78051 0.68819 0.71361 0.0
H129 H 0.80539 0.36571 0.65398 0.0
H130 H 0.61156 0.22657 0.73781 0.0
H131 H 0.86156 0.06377 0.75775 0.0
C132 C 0.81437 0.27614 0.9408 0.0
C133 C 0.75527 0.24708 0.95853 0.0
N134 N 0.80148 0.17758 0.97025 0.0
N135 N 0.89774 0.22599 0.94177 0.0
C136 C 0.88619 0.16504 0.95949 0.0
H137 H 0.80082 0.33556 0.92927 0.0
Co138 Co 0.01508 0.24775 0.92706 0.0
C139 C 1.0068 0.0629 0.90712 0.0
O140 O 0.97535 0.10834 0.88895 0.0
N141 N 0.13421 0.26805 0.91191 0.0
C142 C 0.2892 0.29062 0.90263 0.0
C143 C 0.22388 0.28608 0.92023 0.0
C144 C 0.14716 0.26394 0.88907 0.0
N145 N 0.2405 0.27664 0.88316 0.0
O146 O 0.98981 0.38546 0.92774 0.0
H147 H 0.24178 0.29861 0.93789 0.0
H148 H 0.08944 0.25114 0.87704 0.0
O149 O 0.03134 0.11044 0.92475 0.0
C150 C 0.03668 0.46441 0.92836 0.0
O151 O 0.13117 0.46457 0.9294 0.0
N152 N 0.07739 0.25029 0.95637 0.0
C153 C 0.15013 0.23561 0.00066 0.0
C154 C 0.17796 0.17009 0.98381 0.0
C155 C 0.14106 0.17843 0.96187 0.0
C156 C 0.0514 0.31646 0.97266 0.0
C157 C 0.08815 0.31105 0.99489 0.0
H158 H 0.16439 0.12653 0.9493 0.0
H159 H 0.99771 0.37074 0.96907 0.0
H160 H 0.94298 0.11884 0.96594 0.0
H161 H 0.68823 0.2807 0.96369 0.0
H162 H 0.36568 0.30522 0.90398 0.0
H163 H 0.22654 0.11147 0.9878 0.0
H164 H 0.06406 0.36167 0.00776 0.0
C165 C 0.27595 0.20586 0.05336 0.0
C166 C 0.24695 0.26492 0.03562 0.0
N167 N 0.17784 0.21843 0.02384 0.0
N168 N 0.22604 0.12234 0.05234 0.0
C169 C 0.16527 0.13374 0.03458 0.0
H170 H 0.33515 0.21957 0.06494 0.0
Co171 Co 0.24786 1.00503 0.06705 0.0
C172 C 0.06301 0.01337 0.08696 0.0
O173 O 0.10843 0.04497 0.10512 0.0
N174 N 0.26822 0.88594 0.08221 0.0
C175 C 0.29088 0.73098 0.09151 0.0
C176 C 0.28635 0.79628 0.0739 0.0
C177 C 0.26403 0.87302 0.10506 0.0
N178 N 0.27678 0.7797 0.11097 0.0
O179 O 0.38556 0.03041 0.0664 0.0
H180 H 0.29894 0.77837 0.05624 0.0
H181 H 0.25112 0.93074 0.11708 0.0
O182 O 0.11056 0.98869 0.06935 0.0
C183 C 0.46453 0.98358 0.06575 0.0
O184 O 0.46471 0.8891 0.06464 0.0
N185 N 0.25051 0.94269 0.03775 0.0
C186 C 0.23576 0.87014 0.99344 0.0
C187 C 0.17032 0.84218 0.01029 0.0
C188 C 0.1787 0.87898 0.03225 0.0
C189 C 0.31666 0.96876 0.02146 0.0
C190 C 0.31121 0.93211 -0.00078 0.0
H191 H 0.12684 0.85558 0.04481 0.0
H192 H 0.3709 0.02247 0.02505 0.0
H193 H 0.1192 0.07689 0.02812 0.0
H194 H 0.28036 0.33211 0.0305 0.0
H195 H 0.30553 0.65452 0.09016 0.0
H196 H 0.11172 0.79358 0.00629 0.0
H197 H 0.36178 0.95629 0.98635 0.0
C198 C 0.20595 0.74468 0.94068 0.0
C199 C 0.26504 0.77359 0.95843 0.0
N200 N 0.21852 0.84257 0.97025 0.0
N201 N 0.1224 0.79452 0.94173 0.0
C202 C 0.13379 0.85516 0.95952 0.0
H203 H 0.21968 0.68558 0.92908 0.0
Co204 Co 1.00507 0.77265 0.92702 0.0
C205 C 0.01313 0.95751 0.90712 0.0
O206 O 0.04466 0.91209 0.88895 0.0
N207 N 0.88597 0.75222 0.91187 0.0
C208 C 0.73103 0.72939 0.90258 0.0
C209 C 0.79634 0.73397 0.92018 0.0
C210 C 0.87302 0.75641 0.88903 0.0
N211 N 0.7797 0.74356 0.88312 0.0
O212 O 0.03054 0.63498 0.92765 0.0
H213 H 0.77845 0.72134 0.93784 0.0
H214 H 0.93072 0.76937 0.877 0.0
O215 O 0.98863 0.90995 0.92475 0.0
C216 C 0.98371 0.55604 0.92844 0.0
O217 O 0.88929 0.55591 0.92982 0.0
N218 N 0.94276 0.7699 0.95634 0.0
C219 C 0.87022 0.78454 0.00064 0.0
C220 C 0.84214 0.84994 0.9838 0.0
C221 C 0.87895 0.84162 0.96184 0.0
C222 C 0.96897 0.70382 0.97263 0.0
C223 C 0.93232 0.70921 0.99487 0.0
H224 H 0.85548 0.89346 0.94927 0.0
H225 H 0.0228 0.64969 0.96903 0.0
H226 H 0.07693 0.90115 0.96602 0.0
H227 H 0.33227 0.74019 0.96353 0.0
H228 H 0.65458 0.71465 0.90393 0.0
H229 H 0.79346 0.90847 0.9878 0.0
H230 H 0.9566 0.65869 0.00773 0.0
C231 C 0.74476 0.81435 0.0534 0.0
C232 C 0.77366 0.75527 0.03565 0.0
N233 N 0.84267 0.80176 0.02383 0.0
N234 N 0.79462 0.89788 0.05236 0.0
C235 C 0.85528 0.88648 0.03457 0.0
H236 H 0.68565 0.80064 0.065 0.0
Co237 Co 0.77278 0.01522 0.06707 0.0
C238 C 0.95761 1.00708 0.08696 0.0
O239 O 0.91217 0.97554 0.10512 0.0
N240 N 0.75236 0.13433 0.08222 0.0
C241 C 0.72955 0.28927 0.09151 0.0
C242 C 0.73415 0.22396 0.07391 0.0
C243 C 0.75652 0.14728 0.10506 0.0
N244 N 0.74368 0.2406 0.11097 0.0
O245 O 0.6351 0.98975 0.06645 0.0
H246 H 0.72154 0.24184 0.05625 0.0
H247 H 0.76945 0.08958 0.11709 0.0
O248 O 0.91007 0.03165 0.06934 0.0
C249 C 0.55613 0.03657 0.0657 0.0
O250 O 0.55597 0.131 0.06439 0.0
N251 N 0.76999 0.0775 0.03775 0.0
C252 C 0.78443 0.15003 0.99344 0.0
C253 C 0.84992 0.17812 0.01027 0.0
C254 C 0.84171 0.1413 0.03223 0.0
C255 C 0.70384 0.05129 0.02148 0.0
C256 C 0.70913 0.08793 -0.00076 0.0
H257 H 0.8936 0.16475 0.04479 0.0
H258 H 0.64972 0.99747 0.02509 0.0
H259 H 0.90127 0.94334 0.02808 0.0
H260 H 0.74023 0.68805 0.03055 0.0
H261 H 0.71482 0.36572 0.09016 0.0
H262 H 0.90843 0.22679 0.00626 0.0
H263 H 0.65855 0.06365 0.98639 0.0
C264 C 0.31438 0.74447 0.80336 0.0
C265 C 0.2553 0.77346 0.78561 0.0
N266 N 0.30178 0.84258 0.77383 0.0
N267 N 0.39789 0.79439 0.80233 0.0
C268 C 0.38647 0.85516 0.78457 0.0
H269 H 0.30069 0.68526 0.81493 0.0
Co270 Co 0.51523 0.77256 0.81703 0.0
C271 C 0.50692 0.95739 0.83693 0.0
O272 O 0.47534 0.91195 0.85509 0.0
N273 N 0.63435 0.75219 0.83218 0.0
C274 C 0.78933 0.72951 0.84146 0.0
C275 C 0.72401 0.73407 0.82386 0.0
C276 C 0.64731 0.75634 0.85502 0.0
N277 N 0.74064 0.74356 0.86092 0.0
O278 O 0.48981 0.63486 0.81639 0.0
H279 H 0.74189 0.7215 0.80619 0.0
H280 H 0.5896 0.76924 0.86704 0.0
O281 O 0.53161 0.90985 0.81932 0.0
C282 C 0.53663 0.55588 0.81574 0.0
O283 O 0.63111 0.55568 0.81463 0.0
N284 N 0.5775 0.76984 0.78771 0.0
C285 C 0.64995 0.7844 0.7434 0.0
C286 C 0.67799 0.84989 0.76023 0.0
C287 C 0.64121 0.84162 0.78219 0.0
C288 C 0.55135 0.70366 0.77144 0.0
C289 C 0.58795 0.70901 0.7492 0.0
H290 H 0.66464 0.89353 0.79475 0.0
H291 H 0.49762 0.64946 0.77505 0.0
H292 H 0.44331 0.90123 0.7781 0.0
H293 H 0.18812 0.74003 0.78049 0.0
H294 H 0.86579 0.71485 0.8401 0.0
H295 H 0.7266 0.90846 0.75621 0.0
H296 H 0.56373 0.6584 0.73635 0.0
C297 C 0.74455 0.7059 0.19075 0.0
C298 C 0.7735 0.76498 0.2085 0.0
N299 N 0.84258 0.71849 0.22029 0.0
N300 N 0.79444 0.62238 0.19178 0.0
C301 C 0.85516 0.63379 0.20955 0.0
H302 H 0.68538 0.71961 0.17916 0.0
Co303 Co 0.77261 0.50505 0.17707 0.0
C304 C 0.95744 0.51333 0.15718 0.0
O305 O 0.912 0.54495 0.13902 0.0
N306 N 0.75223 0.38594 0.16192 0.0
C307 C 0.72951 0.23098 0.15263 0.0
C308 C 0.73404 0.29629 0.17023 0.0
C309 C 0.75643 0.37299 0.13908 0.0
N310 N 0.74364 0.27966 0.13317 0.0
O311 O 0.63491 0.53049 0.1777 0.0
H312 H 0.72143 0.27841 0.18789 0.0
H313 H 0.76938 0.43068 0.12706 0.0
O314 O 0.9099 0.48864 0.17479 0.0
C315 C 0.55594 0.48367 0.17839 0.0
O316 O 0.55576 0.38922 0.1796 0.0
N317 N 0.76985 0.44277 0.20639 0.0
C318 C 0.78434 0.37028 0.2507 0.0
C319 C 0.84983 0.34221 0.23387 0.0
C320 C 0.84159 0.37901 0.21191 0.0
C321 C 0.70368 0.46895 0.22266 0.0
C322 C 0.709 0.43234 0.2449 0.0
H323 H 0.89349 0.35557 0.19935 0.0
H324 H 0.64952 0.52273 0.21905 0.0
H325 H 0.9012 0.57694 0.21602 0.0
H326 H 0.74008 0.83218 0.21361 0.0
H327 H 0.71482 0.15452 0.15398 0.0
H328 H 0.90837 0.29357 0.23788 0.0
H329 H 0.65841 0.4566 0.25775 0.0
C330 C 0.70582 0.27562 0.80339 0.0
C331 C 0.7649 0.24665 0.78564 0.0
N332 N 0.71839 0.17761 0.77384 0.0
N333 N 0.62227 0.22577 0.80235 0.0
C334 C 0.63367 0.16506 0.78458 0.0
H335 H 0.71954 0.33477 0.81498 0.0
Co336 Co 0.50494 0.24763 0.81706 0.0
C337 C 0.51318 0.06279 0.83694 0.0
O338 O 0.54483 0.10821 0.85509 0.0
N339 N 0.38583 0.26805 0.83221 0.0
C340 C 0.23089 0.29088 0.8415 0.0
C341 C 0.2962 0.28631 0.8239 0.0
C342 C 0.37288 0.26383 0.85505 0.0
N343 N 0.27956 0.27669 0.86096 0.0
O344 O 0.53042 0.38531 0.81644 0.0
H345 H 0.27832 0.29895 0.80624 0.0
H346 H 0.43057 0.25082 0.86707 0.0
O347 O 0.48848 0.11034 0.81933 0.0
C348 C 0.48362 0.46428 0.8157 0.0
O349 O 0.38919 0.46447 0.8144 0.0
N350 N 0.44267 0.25043 0.78774 0.0
C351 C 0.37024 0.23594 0.74342 0.0
C352 C 0.34209 0.17049 0.76025 0.0
C353 C 0.37886 0.17873 0.78222 0.0
C354 C 0.46892 0.31656 0.77147 0.0
C355 C 0.43233 0.31124 0.74922 0.0
H356 H 0.35537 0.12686 0.79478 0.0
H357 H 0.52274 0.37068 0.77508 0.0
H358 H 0.5768 0.11905 0.7781 0.0
H359 H 0.83212 0.28005 0.78054 0.0
H360 H 0.15444 0.30562 0.84015 0.0
H361 H 0.29342 0.11198 0.75624 0.0
H362 H 0.45665 0.3618 0.73637 0.0
C363 C 0.27572 0.31444 0.19073 0.0
C364 C 0.24673 0.25536 0.20848 0.0
N365 N 0.17764 0.30185 0.22027 0.0
N366 N 0.22583 0.39797 0.19176 0.0
C367 C 0.16507 0.38655 0.20953 0.0
H368 H 0.33491 0.30074 0.17915 0.0
Co369 Co 0.24768 0.51531 0.17707 0.0
C370 C 0.06284 0.50707 0.15717 0.0
O371 O 0.10827 0.47548 0.13901 0.0
N372 N 0.26808 0.63441 0.16192 0.0
C373 C 0.29082 0.78936 0.15263 0.0
C374 C 0.28623 0.72407 0.17023 0.0
C375 C 0.26395 0.64734 0.13908 0.0
N376 N 0.27676 0.74066 0.13317 0.0
O377 O 0.38537 0.48986 0.1777 0.0
H378 H 0.29878 0.74197 0.1879 0.0
H379 H 0.25104 0.58963 0.12706 0.0
O380 O 0.11039 0.53172 0.17479 0.0
C381 C 0.46434 0.53668 0.17839 0.0
O382 O 0.46452 0.63113 0.1796 0.0
N383 N 0.25043 0.57757 0.20639 0.0
C384 C 0.23585 0.64996 0.25071 0.0
C385 C 0.17039 0.67806 0.23388 0.0
C386 C 0.17867 0.64132 0.21191 0.0
C387 C 0.31658 0.55137 0.22266 0.0
C388 C 0.31122 0.58794 0.24491 0.0
H389 H 0.12679 0.66478 0.19936 0.0
H390 H 0.37075 0.49761 0.21905 0.0
H391 H 0.11903 0.4434 0.216 0.0
H392 H 0.28014 0.18816 0.21359 0.0
H393 H 0.3055 0.86582 0.15398 0.0
H394 H 0.11184 0.72669 0.23789 0.0
H395 H 0.3618 0.56367 0.25776 0.0
C396 C 0.3144 0.77613 0.44079 0.0
C397 C 0.25529 0.74708 0.45852 0.0
N398 N 0.3015 0.67757 0.47024 0.0
N399 N 0.39777 0.72598 0.44177 0.0
C400 C 0.38621 0.66504 0.45949 0.0
H401 H 0.30085 0.83555 0.42927 0.0
Co402 Co 0.51512 0.74775 0.42707 0.0
C403 C 0.50681 0.56291 0.40713 0.0
O404 O 0.47534 0.60835 0.38896 0.0
N405 N 0.63426 0.76806 0.41192 0.0
C406 C 0.78925 0.79067 0.40264 0.0
C407 C 0.72391 0.78612 0.42024 0.0
C408 C 0.64723 0.76394 0.38907 0.0
N409 N 0.74057 0.77667 0.38317 0.0
O410 O 0.48983 0.88546 0.42774 0.0
H411 H 0.74179 0.79866 0.4379 0.0
H412 H 0.58952 0.7511 0.37705 0.0
O413 O 0.53137 0.61044 0.42475 0.0
C414 C 0.53669 0.96442 0.42836 0.0
O415 O 0.63118 0.9646 0.4294 0.0
N416 N 0.57741 0.75028 0.45638 0.0
C417 C 0.65013 0.7356 0.50066 0.0
C418 C 0.67798 0.67009 0.48382 0.0
C419 C 0.64108 0.67843 0.46187 0.0
C420 C 0.55141 0.81646 0.47266 0.0
C421 C 0.58815 0.81104 0.4949 0.0
H422 H 0.66442 0.62654 0.4493 0.0
H423 H 0.49772 0.87073 0.46907 0.0
H424 H 0.443 0.61884 0.46594 0.0
H425 H 0.18825 0.78069 0.46368 0.0
H426 H 0.86572 0.80528 0.404 0.0
H427 H 0.72656 0.61147 0.48781 0.0
H428 H 0.56405 0.86165 0.50776 0.0
C429 C 0.77594 0.70583 0.55337 0.0
C430 C 0.74694 0.7649 0.53562 0.0
N431 N 0.67783 0.71841 0.52384 0.0
N432 N 0.72604 0.62231 0.55235 0.0
C433 C 0.66526 0.63372 0.53459 0.0
H434 H 0.83513 0.71954 0.56495 0.0
Co435 Co 0.74786 0.505 0.56705 0.0
C436 C 0.56301 0.51336 0.58696 0.0
O437 O 0.60843 0.54498 0.60512 0.0
N438 N 0.76823 0.3859 0.58221 0.0
C439 C 0.79093 0.23093 0.5915 0.0
C440 C 0.78639 0.29625 0.57389 0.0
C441 C 0.76402 0.37295 0.60505 0.0
N442 N 0.77681 0.27962 0.61096 0.0
O443 O 0.88556 0.53038 0.5664 0.0
H444 H 0.79899 0.27836 0.55623 0.0
H445 H 0.75107 0.43065 0.61707 0.0
O446 O 0.61056 0.48865 0.56935 0.0
C447 C 0.96454 0.48357 0.56575 0.0
O448 O 0.96474 0.38909 0.56463 0.0
N449 N 0.75051 0.44267 0.53774 0.0
C450 C 0.73576 0.37014 0.49344 0.0
C451 C 0.67032 0.34216 0.51028 0.0
C452 C 0.6787 0.37895 0.53224 0.0
C453 C 0.81665 0.46875 0.52145 0.0
C454 C 0.8112 0.43211 0.49921 0.0
H455 H 0.62684 0.35555 0.54481 0.0
H456 H 0.87089 0.52246 0.52505 0.0
H457 H 0.6192 0.57687 0.52812 0.0
H458 H 0.78036 0.83209 0.53051 0.0
H459 H 0.80559 0.15447 0.59014 0.0
H460 H 0.61172 0.29357 0.50629 0.0
H461 H 0.86177 0.45629 0.48635 0.0
C462 C 0.70593 0.2447 0.44068 0.0
C463 C 0.76502 0.2736 0.45843 0.0
N464 N 0.7185 0.34258 0.47025 0.0
N465 N 0.62237 0.29453 0.44173 0.0
C466 C 0.63377 0.35517 0.45952 0.0
H467 H 0.71965 0.1856 0.42907 0.0
Co468 Co 0.50504 0.27266 0.42703 0.0
C469 C 0.51312 0.45751 0.40712 0.0
O470 O 0.54467 0.41209 0.38896 0.0
N471 N 0.38593 0.25221 0.41187 0.0
C472 C 0.23098 0.22934 0.40259 0.0
C473 C 0.29631 0.23393 0.42019 0.0
C474 C 0.37295 0.25641 0.38903 0.0
N475 N 0.27963 0.24353 0.38313 0.0
O476 O 0.53052 0.13498 0.42765 0.0
H477 H 0.27845 0.22129 0.43785 0.0
H478 H 0.43063 0.26942 0.37701 0.0
O479 O 0.48859 0.40995 0.42475 0.0
C480 C 0.4837 0.05603 0.42844 0.0
O481 O 0.38929 0.05589 0.42982 0.0
N482 N 0.44274 0.26991 0.45634 0.0
C483 C 0.37021 0.28455 0.50065 0.0
C484 C 0.34212 0.34994 0.4838 0.0
C485 C 0.37892 0.34162 0.46184 0.0
C486 C 0.46896 0.20383 0.47263 0.0
C487 C 0.43232 0.20922 0.49487 0.0
H488 H 0.35544 0.39345 0.44928 0.0
H489 H 0.5228 0.14971 0.46903 0.0
H490 H 0.57691 0.40115 0.46601 0.0
H491 H 0.83225 0.2402 0.46352 0.0
H492 H 0.15454 0.21458 0.40395 0.0
H493 H 0.29343 0.40846 0.4878 0.0
H494 H 0.45661 0.15871 0.50773 0.0
C495 C 0.24477 0.31437 0.55341 0.0
C496 C 0.27367 0.25529 0.53565 0.0
N497 N 0.34267 0.30178 0.52384 0.0
N498 N 0.29463 0.39791 0.55236 0.0
C499 C 0.35528 0.3865 0.53457 0.0
H500 H 0.18566 0.30066 0.56501 0.0
Co501 Co 0.27278 0.51525 0.56706 0.0
C502 C 0.45761 0.50709 0.58696 0.0
O503 O 0.41216 0.47553 0.60512 0.0
N504 N 0.25235 0.63437 0.58221 0.0
C505 C 0.22951 0.78932 0.5915 0.0
C506 C 0.23411 0.72399 0.5739 0.0
C507 C 0.25653 0.64735 0.60506 0.0
N508 N 0.24366 0.74067 0.61096 0.0
O509 O 0.1351 0.48978 0.56645 0.0
H510 H 0.22148 0.74185 0.55624 0.0
H511 H 0.2695 0.58967 0.61708 0.0
O512 O 0.41007 0.53169 0.56934 0.0
C513 C 0.05613 0.53658 0.5657 0.0
O514 O 0.05595 0.63101 0.56439 0.0
N515 N 0.27 0.57752 0.53775 0.0
C516 C 0.28444 0.65004 0.49344 0.0
C517 C 0.34992 0.67813 0.51027 0.0
C518 C 0.34171 0.64132 0.53223 0.0
C519 C 0.20385 0.5513 0.52148 0.0
C520 C 0.20915 0.58793 0.49923 0.0
H521 H 0.39359 0.66478 0.54478 0.0
H522 H 0.14973 0.49747 0.52508 0.0
H523 H 0.40127 0.44335 0.52808 0.0
H524 H 0.24024 0.18807 0.53056 0.0
H525 H 0.21476 0.86577 0.59014 0.0
H526 H 0.40843 0.72681 0.50625 0.0
H527 H 0.15857 0.56364 0.48638 0.0
loop_
_geom_bond_atom_site_label_1
_geom_bond_atom_site_label_2
_geom_bond_distance
_geom_bond_site_symmetry_2
_ccdc_geom_bond_type
C0 C1 1.351 . S
C0 N3 1.368 . S
C0 H5 0.931 . S
C1 C0 1.351 . S
C1 N2 1.373 . S
C1 H29 0.930 . S
N2 C1 1.373 . S
N2 C4 1.340 . S
N3 C0 1.368 . S
N3 C4 1.321 . S
N3 Co6 2.135 . S
C4 N2 1.340 . S
C4 N3 1.321 . S
C4 H28 0.930 . S
H5 C0 0.931 . S
Co6 N3 2.135 . S
Co6 N9 2.121 1_655 S
Co6 O14 2.055 . S
Co6 O17 2.039 . S
Co6 N20 2.140 1_655 S
C7 O8 1.227 . S
C7 O17 1.265 . S
O8 C7 1.227 . S
N9 Co6 2.121 1_455 S
N9 C11 1.375 . S
N9 C12 1.313 . S
C10 C11 1.338 . S
C10 N13 1.377 . S
C10 H30 0.930 . S
C11 N9 1.375 . S
C11 C10 1.338 . S
C11 H15 0.931 . S
C12 N9 1.313 . S
C12 N13 1.344 . S
C12 H16 0.930 . S
N13 C10 1.377 . S
N13 C12 1.344 . S
O14 Co6 2.055 . S
O14 C18 1.253 . S
H15 C11 0.931 . S
H16 C12 0.930 . S
O17 Co6 2.039 . S
O17 C7 1.265 . S
C18 O14 1.253 . S
C18 O19 1.227 1_655 S
O19 C18 1.227 1_455 S
N20 Co6 2.140 1_455 S
N20 C23 1.346 . S
N20 C24 1.345 . S
C21 C22 1.387 . S
C21 C25 1.391 . S
C22 C21 1.387 . S
C22 C23 1.369 . S
C22 H31 0.929 . S
C23 N20 1.346 . S
C23 C22 1.369 . S
C23 H26 0.928 . S
C24 N20 1.345 . S
C24 C25 1.371 . S
C24 H27 0.931 . S
C25 C21 1.391 . S
C25 C24 1.371 . S
C25 H32 0.930 . S
H26 C23 0.928 . S
H27 C24 0.931 . S
H28 C4 0.930 . S
H29 C1 0.930 . S
H30 C10 0.930 . S
H31 C22 0.929 . S
H32 C25 0.930 . S
C33 C34 1.351 . S
C33 N36 1.368 . S
C33 H38 0.931 . S
C34 C33 1.351 . S
C34 N35 1.373 . S
C34 H62 0.930 . S
N35 C34 1.373 . S
N35 C37 1.340 . S
N36 C33 1.368 . S
N36 C37 1.321 . S
N36 Co39 2.135 . S
C37 N35 1.340 . S
C37 N36 1.321 . S
C37 H61 0.930 . S
H38 C33 0.931 . S
Co39 N36 2.135 . S
Co39 N42 2.121 1_545 S
Co39 O47 2.055 . S
Co39 O50 2.039 . S
Co39 N53 2.140 1_545 S
C40 O41 1.227 . S
C40 O50 1.265 . S
O41 C40 1.227 . S
N42 Co39 2.121 1_565 S
N42 C44 1.375 . S
N42 C45 1.313 . S
C43 C44 1.338 . S
C43 N46 1.377 . S
C43 H63 0.930 . S
C44 N42 1.375 . S
C44 C43 1.338 . S
C44 H48 0.931 . S
C45 N42 1.313 . S
C45 N46 1.344 . S
C45 H49 0.930 . S
N46 C43 1.377 . S
N46 C45 1.344 . S
O47 Co39 2.055 . S
O47 C51 1.253 . S
H48 C44 0.931 . S
H49 C45 0.930 . S
O50 Co39 2.039 . S
O50 C40 1.265 . S
C51 O47 1.253 . S
C51 O52 1.227 1_545 S
O52 C51 1.227 1_565 S
N53 Co39 2.140 1_565 S
N53 C56 1.346 . S
N53 C57 1.345 . S
C54 C55 1.387 . S
C54 C58 1.391 . S
C55 C54 1.387 . S
C55 C56 1.369 . S
C55 H64 0.929 . S
C56 N53 1.346 . S
C56 C55 1.369 . S
C56 H59 0.928 . S
C57 N53 1.345 . S
C57 C58 1.371 . S
C57 H60 0.931 . S
C58 C54 1.391 . S
C58 C57 1.371 . S
C58 H65 0.930 . S
H59 C56 0.928 . S
H60 C57 0.931 . S
H61 C37 0.930 . S
H62 C34 0.930 . S
H63 C43 0.930 . S
H64 C55 0.929 . S
H65 C58 0.930 . S
C66 C67 1.351 . S
C66 N69 1.368 . S
C66 H71 0.931 . S
C67 C66 1.351 . S
C67 N68 1.373 . S
C67 H95 0.930 . S
N68 C67 1.373 . S
N68 C70 1.340 . S
N69 C66 1.368 . S
N69 C70 1.321 . S
N69 Co72 2.135 . S
C70 N68 1.340 . S
C70 N69 1.321 . S
C70 H94 0.930 . S
H71 C66 0.931 . S
Co72 N69 2.135 . S
Co72 N75 2.121 1_455 S
Co72 O80 2.055 . S
Co72 O83 2.039 . S
Co72 N86 2.140 1_455 S
C73 O74 1.227 . S
C73 O83 1.265 . S
O74 C73 1.227 . S
N75 Co72 2.121 1_655 S
N75 C77 1.375 . S
N75 C78 1.313 . S
C76 C77 1.338 . S
C76 N79 1.377 . S
C76 H96 0.930 . S
C77 N75 1.375 . S
C77 C76 1.338 . S
C77 H81 0.931 . S
C78 N75 1.313 . S
C78 N79 1.344 . S
C78 H82 0.930 . S
N79 C76 1.377 . S
N79 C78 1.344 . S
O80 Co72 2.055 . S
O80 C84 1.253 . S
H81 C77 0.931 . S
H82 C78 0.930 . S
O83 Co72 2.039 . S
O83 C73 1.265 . S
C84 O80 1.253 . S
C84 O85 1.227 1_455 S
O85 C84 1.227 1_655 S
N86 Co72 2.140 1_655 S
N86 C89 1.346 . S
N86 C90 1.345 . S
C87 C88 1.387 . S
C87 C91 1.391 . S
C88 C87 1.387 . S
C88 C89 1.369 . S
C88 H97 0.929 . S
C89 N86 1.346 . S
C89 C88 1.369 . S
C89 H92 0.928 . S
C90 N86 1.345 . S
C90 C91 1.371 . S
C90 H93 0.931 . S
C91 C87 1.391 . S
C91 C90 1.371 . S
C91 H98 0.930 . S
H92 C89 0.928 . S
H93 C90 0.931 . S
H94 C70 0.930 . S
H95 C67 0.930 . S
H96 C76 0.930 . S
H97 C88 0.929 . S
H98 C91 0.930 . S
C99 C100 1.351 . S
C99 N102 1.368 . S
C99 H104 0.931 . S
C100 C99 1.351 . S
C100 N101 1.373 . S
C100 H128 0.930 . S
N101 C100 1.373 . S
N101 C103 1.340 . S
N102 C99 1.368 . S
N102 C103 1.321 . S
N102 Co105 2.135 . S
C103 N101 1.340 . S
C103 N102 1.321 . S
C103 H127 0.930 . S
H104 C99 0.931 . S
Co105 N102 2.135 . S
Co105 N108 2.121 1_565 S
Co105 O113 2.055 . S
Co105 O116 2.039 . S
Co105 N119 2.140 1_565 S
C106 O107 1.227 . S
C106 O116 1.265 . S
O107 C106 1.227 . S
N108 Co105 2.121 1_545 S
N108 C110 1.375 . S
N108 C111 1.313 . S
C109 C110 1.338 . S
C109 N112 1.377 . S
C109 H129 0.930 . S
C110 N108 1.375 . S
C110 C109 1.338 . S
C110 H114 0.931 . S
C111 N108 1.313 . S
C111 N112 1.344 . S
C111 H115 0.930 . S
N112 C109 1.377 . S
N112 C111 1.344 . S
O113 Co105 2.055 . S
O113 C117 1.253 . S
H114 C110 0.931 . S
H115 C111 0.930 . S
O116 Co105 2.039 . S
O116 C106 1.265 . S
C117 O113 1.253 . S
C117 O118 1.227 1_565 S
O118 C117 1.227 1_545 S
N119 Co105 2.140 1_545 S
N119 C122 1.346 . S
N119 C123 1.345 . S
C120 C121 1.387 . S
C120 C124 1.391 . S
C121 C120 1.387 . S
C121 C122 1.369 . S
C121 H130 0.929 . S
C122 N119 1.346 . S
C122 C121 1.369 . S
C122 H125 0.928 . S
C123 N119 1.345 . S
C123 C124 1.371 . S
C123 H126 0.931 . S
C124 C120 1.391 . S
C124 C123 1.371 . S
C124 H131 0.930 . S
H125 C122 0.928 . S
H126 C123 0.931 . S
H127 C103 0.930 . S
H128 C100 0.930 . S
H129 C109 0.930 . S
H130 C121 0.929 . S
H131 C124 0.930 . S
C132 C133 1.351 . S
C132 N135 1.368 . S
C132 H137 0.931 . S
C133 C132 1.351 . S
C133 N134 1.373 . S
C133 H161 0.930 1_556 S
N134 C133 1.373 . S
N134 C136 1.340 . S
N135 C132 1.368 . S
N135 C136 1.321 . S
N135 Co138 2.135 . S
C136 N134 1.340 . S
C136 N135 1.321 . S
C136 H160 0.930 . S
H137 C132 0.931 . S
Co138 N135 2.135 . S
Co138 N141 2.121 1_655 S
Co138 O146 2.055 . S
Co138 O149 2.039 . S
Co138 N152 2.140 1_655 S
C139 O140 1.227 . S
C139 O149 1.265 . S
O140 C139 1.227 . S
N141 Co138 2.121 1_455 S
N141 C143 1.375 . S
N141 C144 1.313 . S
C142 C143 1.338 . S
C142 N145 1.377 . S
C142 H162 0.930 . S
C143 N141 1.375 . S
C143 C142 1.338 . S
C143 H147 0.931 . S
C144 N141 1.313 . S
C144 N145 1.344 . S
C144 H148 0.930 . S
N145 C142 1.377 . S
N145 C144 1.344 . S
O146 Co138 2.055 . S
O146 C150 1.253 . S
H147 C143 0.931 . S
H148 C144 0.930 . S
O149 Co138 2.039 . S
O149 C139 1.265 . S
C150 O146 1.253 . S
C150 O151 1.227 1_655 S
O151 C150 1.227 1_455 S
N152 Co138 2.140 1_455 S
N152 C155 1.346 . S
N152 C156 1.345 . S
C153 C154 1.387 . S
C153 C157 1.391 . S
C154 C153 1.387 . S
C154 C155 1.369 . S
C154 H163 0.929 1_556 S
C155 N152 1.346 . S
C155 C154 1.369 . S
C155 H158 0.928 . S
C156 N152 1.345 . S
C156 C157 1.371 . S
C156 H159 0.931 . S
C157 C153 1.391 . S
C157 C156 1.371 . S
C157 H164 0.930 . S
H158 C155 0.928 . S
H159 C156 0.931 . S
H160 C136 0.930 . S
H161 C133 0.930 1_554 S
H162 C142 0.930 . S
H163 C154 0.929 1_554 S
H164 C157 0.930 . S
C165 C166 1.351 . S
C165 N168 1.368 . S
C165 H170 0.931 . S
C166 C165 1.351 . S
C166 N167 1.373 . S
C166 H194 0.930 1_554 S
N167 C166 1.373 . S
N167 C169 1.340 . S
N168 C165 1.368 . S
N168 C169 1.321 . S
N168 Co171 2.135 . S
C169 N167 1.340 . S
C169 N168 1.321 . S
C169 H193 0.930 . S
H170 C165 0.931 . S
Co171 N168 2.135 . S
Co171 N174 2.121 1_545 S
Co171 O179 2.055 . S
Co171 O182 2.039 . S
Co171 N185 2.140 1_545 S
C172 O173 1.227 . S
C172 O182 1.265 . S
O173 C172 1.227 . S
N174 Co171 2.121 1_565 S
N174 C176 1.375 . S
N174 C177 1.313 . S
C175 C176 1.338 . S
C175 N178 1.377 . S
C175 H195 0.930 . S
C176 N174 1.375 . S
C176 C175 1.338 . S
C176 H180 0.931 . S
C177 N174 1.313 . S
C177 N178 1.344 . S
C177 H181 0.930 . S
N178 C175 1.377 . S
N178 C177 1.344 . S
O179 Co171 2.055 . S
O179 C183 1.253 . S
H180 C176 0.931 . S
H181 C177 0.930 . S
O182 Co171 2.039 . S
O182 C172 1.265 . S
C183 O179 1.253 . S
C183 O184 1.227 1_545 S
O184 C183 1.227 1_565 S
N185 Co171 2.140 1_565 S
N185 C188 1.346 . S
N185 C189 1.345 . S
C186 C187 1.387 . S
C186 C190 1.391 . S
C187 C186 1.387 . S
C187 C188 1.369 . S
C187 H196 0.929 1_554 S
C188 N185 1.346 . S
C188 C187 1.369 . S
C188 H191 0.928 . S
C189 N185 1.345 . S
C189 C190 1.371 . S
C189 H192 0.931 . S
C190 C186 1.391 . S
C190 C189 1.371 . S
C190 H197 0.930 . S
H191 C188 0.928 . S
H192 C189 0.931 . S
H193 C169 0.930 . S
H194 C166 0.930 1_556 S
H195 C175 0.930 . S
H196 C187 0.929 1_556 S
H197 C190 0.930 . S
C198 C199 1.351 . S
C198 N201 1.368 . S
C198 H203 0.931 . S
C199 C198 1.351 . S
C199 N200 1.373 . S
C199 H227 0.930 1_556 S
N200 C199 1.373 . S
N200 C202 1.340 . S
N201 C198 1.368 . S
N201 C202 1.321 . S
N201 Co204 2.135 . S
C202 N200 1.340 . S
C202 N201 1.321 . S
C202 H226 0.930 . S
H203 C198 0.931 . S
Co204 N201 2.135 . S
Co204 N207 2.121 1_455 S
Co204 O212 2.055 . S
Co204 O215 2.039 . S
Co204 N218 2.140 1_455 S
C205 O206 1.227 . S
C205 O215 1.265 . S
O206 C205 1.227 . S
N207 Co204 2.121 1_655 S
N207 C209 1.375 . S
N207 C210 1.313 . S
C208 C209 1.338 . S
C208 N211 1.377 . S
C208 H228 0.930 . S
C209 N207 1.375 . S
C209 C208 1.338 . S
C209 H213 0.931 . S
C210 N207 1.313 . S
C210 N211 1.344 . S
C210 H214 0.930 . S
N211 C208 1.377 . S
N211 C210 1.344 . S
O212 Co204 2.055 . S
O212 C216 1.253 . S
H213 C209 0.931 . S
H214 C210 0.930 . S
O215 Co204 2.039 . S
O215 C205 1.265 . S
C216 O212 1.253 . S
C216 O217 1.227 1_455 S
O217 C216 1.227 1_655 S
N218 Co204 2.140 1_655 S
N218 C221 1.346 . S
N218 C222 1.345 . S
C219 C220 1.387 . S
C219 C223 1.391 . S
C220 C219 1.387 . S
C220 C221 1.369 . S
C220 H229 0.929 1_556 S
C221 N218 1.346 . S
C221 C220 1.369 . S
C221 H224 0.928 . S
C222 N218 1.345 . S
C222 C223 1.371 . S
C222 H225 0.931 . S
C223 C219 1.391 . S
C223 C222 1.371 . S
C223 H230 0.930 . S
H224 C221 0.928 . S
H225 C222 0.931 . S
H226 C202 0.930 . S
H227 C199 0.930 1_554 S
H228 C208 0.930 . S
H229 C220 0.929 1_554 S
H230 C223 0.930 . S
C231 C232 1.351 . S
C231 N234 1.368 . S
C231 H236 0.931 . S
C232 C231 1.351 . S
C232 N233 1.373 . S
C232 H260 0.930 1_554 S
N233 C232 1.373 . S
N233 C235 1.340 . S
N234 C231 1.368 . S
N234 C235 1.321 . S
N234 Co237 2.135 . S
C235 N233 1.340 . S
C235 N234 1.321 . S
C235 H259 0.930 . S
H236 C231 0.931 . S
Co237 N234 2.135 . S
Co237 N240 2.121 1_565 S
Co237 O245 2.055 . S
Co237 O248 2.039 . S
Co237 N251 2.140 1_565 S
C238 O239 1.227 . S
C238 O248 1.265 . S
O239 C238 1.227 . S
N240 Co237 2.121 1_545 S
N240 C242 1.375 . S
N240 C243 1.313 . S
C241 C242 1.338 . S
C241 N244 1.377 . S
C241 H261 0.930 . S
C242 N240 1.375 . S
C242 C241 1.338 . S
C242 H246 0.931 . S
C243 N240 1.313 . S
C243 N244 1.344 . S
C243 H247 0.930 . S
N244 C241 1.377 . S
N244 C243 1.344 . S
O245 Co237 2.055 . S
O245 C249 1.253 . S
H246 C242 0.931 . S
H247 C243 0.930 . S
O248 Co237 2.039 . S
O248 C238 1.265 . S
C249 O245 1.253 . S
C249 O250 1.227 1_565 S
O250 C249 1.227 1_545 S
N251 Co237 2.140 1_545 S
N251 C254 1.346 . S
N251 C255 1.345 . S
C252 C253 1.387 . S
C252 C256 1.391 . S
C253 C252 1.387 . S
C253 C254 1.369 . S
C253 H262 0.929 1_554 S
C254 N251 1.346 . S
C254 C253 1.369 . S
C254 H257 0.928 . S
C255 N251 1.345 . S
C255 C256 1.371 . S
C255 H258 0.931 . S
C256 C252 1.391 . S
C256 C255 1.371 . S
C256 H263 0.930 . S
H257 C254 0.928 . S
H258 C255 0.931 . S
H259 C235 0.930 . S
H260 C232 0.930 1_556 S
H261 C241 0.930 . S
H262 C253 0.929 1_556 S
H263 C256 0.930 . S
C264 C265 1.351 . S
C264 N267 1.368 . S
C264 H269 0.931 . S
C265 C264 1.351 . S
C265 N266 1.373 . S
C265 H293 0.930 . S
N266 C265 1.373 . S
N266 C268 1.340 . S
N267 C264 1.368 . S
N267 C268 1.321 . S
N267 Co270 2.135 . S
C268 N266 1.340 . S
C268 N267 1.321 . S
C268 H292 0.930 . S
H269 C264 0.931 . S
Co270 N267 2.135 . S
Co270 N273 2.121 . S
Co270 O278 2.055 . S
Co270 O281 2.039 . S
Co270 N284 2.140 . S
C271 O272 1.227 . S
C271 O281 1.265 . S
O272 C271 1.227 . S
N273 Co270 2.121 . S
N273 C275 1.375 . S
N273 C276 1.313 . S
C274 C275 1.338 . S
C274 N277 1.377 . S
C274 H294 0.930 . S
C275 N273 1.375 . S
C275 C274 1.338 . S
C275 H279 0.931 . S
C276 N273 1.313 . S
C276 N277 1.344 . S
C276 H280 0.930 . S
N277 C274 1.377 . S
N277 C276 1.344 . S
O278 Co270 2.055 . S
O278 C282 1.253 . S
H279 C275 0.931 . S
H280 C276 0.930 . S
O281 Co270 2.039 . S
O281 C271 1.265 . S
C282 O278 1.253 . S
C282 O283 1.227 . S
O283 C282 1.227 . S
N284 Co270 2.140 . S
N284 C287 1.346 . S
N284 C288 1.345 . S
C285 C286 1.387 . S
C285 C289 1.391 . S
C286 C285 1.387 . S
C286 C287 1.369 . S
C286 H295 0.929 . S
C287 N284 1.346 . S
C287 C286 1.369 . S
C287 H290 0.928 . S
C288 N284 1.345 . S
C288 C289 1.371 . S
C288 H291 0.931 . S
C289 C285 1.391 . S
C289 C288 1.371 . S
C289 H296 0.930 . S
H290 C287 0.928 . S
H291 C288 0.931 . S
H292 C268 0.930 . S
H293 C265 0.930 . S
H294 C274 0.930 . S
H295 C286 0.929 . S
H296 C289 0.930 . S
C297 C298 1.351 . S
C297 N300 1.368 . S
C297 H302 0.931 . S
C298 C297 1.351 . S
C298 N299 1.373 . S
C298 H326 0.930 . S
N299 C298 1.373 . S
N299 C301 1.340 . S
N300 C297 1.368 . S
N300 C301 1.321 . S
N300 Co303 2.135 . S
C301 N299 1.340 . S
C301 N300 1.321 . S
C301 H325 0.930 . S
H302 C297 0.931 . S
Co303 N300 2.135 . S
Co303 N306 2.121 . S
Co303 O311 2.055 . S
Co303 O314 2.039 . S
Co303 N317 2.140 . S
C304 O305 1.227 . S
C304 O314 1.265 . S
O305 C304 1.227 . S
N306 Co303 2.121 . S
N306 C308 1.375 . S
N306 C309 1.313 . S
C307 C308 1.338 . S
C307 N310 1.377 . S
C307 H327 0.930 . S
C308 N306 1.375 . S
C308 C307 1.338 . S
C308 H312 0.931 . S
C309 N306 1.313 . S
C309 N310 1.344 . S
C309 H313 0.930 . S
N310 C307 1.377 . S
N310 C309 1.344 . S
O311 Co303 2.055 . S
O311 C315 1.253 . S
H312 C308 0.931 . S
H313 C309 0.930 . S
O314 Co303 2.039 . S
O314 C304 1.265 . S
C315 O311 1.253 . S
C315 O316 1.227 . S
O316 C315 1.227 . S
N317 Co303 2.140 . S
N317 C320 1.346 . S
N317 C321 1.345 . S
C318 C319 1.387 . S
C318 C322 1.391 . S
C319 C318 1.387 . S
C319 C320 1.369 . S
C319 H328 0.929 . S
C320 N317 1.346 . S
C320 C319 1.369 . S
C320 H323 0.928 . S
C321 N317 1.345 . S
C321 C322 1.371 . S
C321 H324 0.931 . S
C322 C318 1.391 . S
C322 C321 1.371 . S
C322 H329 0.930 . S
H323 C320 0.928 . S
H324 C321 0.931 . S
H325 C301 0.930 . S
H326 C298 0.930 . S
H327 C307 0.930 . S
H328 C319 0.929 . S
H329 C322 0.930 . S
C330 C331 1.351 . S
C330 N333 1.368 . S
C330 H335 0.931 . S
C331 C330 1.351 . S
C331 N332 1.373 . S
C331 H359 0.930 . S
N332 C331 1.373 . S
N332 C334 1.340 . S
N333 C330 1.368 . S
N333 C334 1.321 . S
N333 Co336 2.135 . S
C334 N332 1.340 . S
C334 N333 1.321 . S
C334 H358 0.930 . S
H335 C330 0.931 . S
Co336 N333 2.135 . S
Co336 N339 2.121 . S
Co336 O344 2.055 . S
Co336 O347 2.039 . S
Co336 N350 2.140 . S
C337 O338 1.227 . S
C337 O347 1.265 . S
O338 C337 1.227 . S
N339 Co336 2.121 . S
N339 C341 1.375 . S
N339 C342 1.313 . S
C340 C341 1.338 . S
C340 N343 1.377 . S
C340 H360 0.930 . S
C341 N339 1.375 . S
C341 C340 1.338 . S
C341 H345 0.931 . S
C342 N339 1.313 . S
C342 N343 1.344 . S
C342 H346 0.930 . S
N343 C340 1.377 . S
N343 C342 1.344 . S
O344 Co336 2.055 . S
O344 C348 1.253 . S
H345 C341 0.931 . S
H346 C342 0.930 . S
O347 Co336 2.039 . S
O347 C337 1.265 . S
C348 O344 1.253 . S
C348 O349 1.227 . S
O349 C348 1.227 . S
N350 Co336 2.140 . S
N350 C353 1.346 . S
N350 C354 1.345 . S
C351 C352 1.387 . S
C351 C355 1.391 . S
C352 C351 1.387 . S
C352 C353 1.369 . S
C352 H361 0.929 . S
C353 N350 1.346 . S
C353 C352 1.369 . S
C353 H356 0.928 . S
C354 N350 1.345 . S
C354 C355 1.371 . S
C354 H357 0.931 . S
C355 C351 1.391 . S
C355 C354 1.371 . S
C355 H362 0.930 . S
H356 C353 0.928 . S
H357 C354 0.931 . S
H358 C334 0.930 . S
H359 C331 0.930 . S
H360 C340 0.930 . S
H361 C352 0.929 . S
H362 C355 0.930 . S
C363 C364 1.351 . S
C363 N366 1.368 . S
C363 H368 0.931 . S
C364 C363 1.351 . S
C364 N365 1.373 . S
C364 H392 0.930 . S
N365 C364 1.373 . S
N365 C367 1.340 . S
N366 C363 1.368 . S
N366 C367 1.321 . S
N366 Co369 2.135 . S
C367 N365 1.340 . S
C367 N366 1.321 . S
C367 H391 0.930 . S
H368 C363 0.931 . S
Co369 N366 2.135 . S
Co369 N372 2.121 . S
Co369 O377 2.055 . S
Co369 O380 2.039 . S
Co369 N383 2.140 . S
C370 O371 1.227 . S
C370 O380 1.265 . S
O371 C370 1.227 . S
N372 Co369 2.121 . S
N372 C374 1.375 . S
N372 C375 1.313 . S
C373 C374 1.338 . S
C373 N376 1.377 . S
C373 H393 0.930 . S
C374 N372 1.375 . S
C374 C373 1.338 . S
C374 H378 0.931 . S
C375 N372 1.313 . S
C375 N376 1.344 . S
C375 H379 0.930 . S
N376 C373 1.377 . S
N376 C375 1.344 . S
O377 Co369 2.055 . S
O377 C381 1.253 . S
H378 C374 0.931 . S
H379 C375 0.930 . S
O380 Co369 2.039 . S
O380 C370 1.265 . S
C381 O377 1.253 . S
C381 O382 1.227 . S
O382 C381 1.227 . S
N383 Co369 2.140 . S
N383 C386 1.346 . S
N383 C387 1.345 . S
C384 C385 1.387 . S
C384 C388 1.391 . S
C385 C384 1.387 . S
C385 C386 1.369 . S
C385 H394 0.929 . S
C386 N383 1.346 . S
C386 C385 1.369 . S
C386 H389 0.928 . S
C387 N383 1.345 . S
C387 C388 1.371 . S
C387 H390 0.931 . S
C388 C384 1.391 . S
C388 C387 1.371 . S
C388 H395 0.930 . S
H389 C386 0.928 . S
H390 C387 0.931 . S
H391 C367 0.930 . S
H392 C364 0.930 . S
H393 C373 0.930 . S
H394 C385 0.929 . S
H395 C388 0.930 . S
C396 C397 1.351 . S
C396 N399 1.368 . S
C396 H401 0.931 . S
C397 C396 1.351 . S
C397 N398 1.373 . S
C397 H425 0.930 . S
N398 C397 1.373 . S
N398 C400 1.340 . S
N399 C396 1.368 . S
N399 C400 1.321 . S
N399 Co402 2.135 . S
C400 N398 1.340 . S
C400 N399 1.321 . S
C400 H424 0.930 . S
H401 C396 0.931 . S
Co402 N399 2.135 . S
Co402 N405 2.121 . S
Co402 O410 2.055 . S
Co402 O413 2.039 . S
Co402 N416 2.140 . S
C403 O404 1.227 . S
C403 O413 1.265 . S
O404 C403 1.227 . S
N405 Co402 2.121 . S
N405 C407 1.375 . S
N405 C408 1.313 . S
C406 C407 1.338 . S
C406 N409 1.377 . S
C406 H426 0.930 . S
C407 N405 1.375 . S
C407 C406 1.338 . S
C407 H411 0.931 . S
C408 N405 1.313 . S
C408 N409 1.344 . S
C408 H412 0.930 . S
N409 C406 1.377 . S
N409 C408 1.344 . S
O410 Co402 2.055 . S
O410 C414 1.253 . S
H411 C407 0.931 . S
H412 C408 0.930 . S
O413 Co402 2.039 . S
O413 C403 1.265 . S
C414 O410 1.253 . S
C414 O415 1.227 . S
O415 C414 1.227 . S
N416 Co402 2.140 . S
N416 C419 1.346 . S
N416 C420 1.345 . S
C417 C418 1.387 . S
C417 C421 1.391 . S
C418 C417 1.387 . S
C418 C419 1.369 . S
C418 H427 0.929 . S
C419 N416 1.346 . S
C419 C418 1.369 . S
C419 H422 0.928 . S
C420 N416 1.345 . S
C420 C421 1.371 . S
C420 H423 0.931 . S
C421 C417 1.391 . S
C421 C420 1.371 . S
C421 H428 0.930 . S
H422 C419 0.928 . S
H423 C420 0.931 . S
H424 C400 0.930 . S
H425 C397 0.930 . S
H426 C406 0.930 . S
H427 C418 0.929 . S
H428 C421 0.930 . S
C429 C430 1.351 . S
C429 N432 1.368 . S
C429 H434 0.931 . S
C430 C429 1.351 . S
C430 N431 1.373 . S
C430 H458 0.930 . S
N431 C430 1.373 . S
N431 C433 1.340 . S
N432 C429 1.368 . S
N432 C433 1.321 . S
N432 Co435 2.135 . S
C433 N431 1.340 . S
C433 N432 1.321 . S
C433 H457 0.930 . S
H434 C429 0.931 . S
Co435 N432 2.135 . S
Co435 N438 2.121 . S
Co435 O443 2.055 . S
Co435 O446 2.039 . S
Co435 N449 2.140 . S
C436 O437 1.227 . S
C436 O446 1.265 . S
O437 C436 1.227 . S
N438 Co435 2.121 . S
N438 C440 1.375 . S
N438 C441 1.313 . S
C439 C440 1.338 . S
C439 N442 1.377 . S
C439 H459 0.930 . S
C440 N438 1.375 . S
C440 C439 1.338 . S
C440 H444 0.931 . S
C441 N438 1.313 . S
C441 N442 1.344 . S
C441 H445 0.930 . S
N442 C439 1.377 . S
N442 C441 1.344 . S
O443 Co435 2.055 . S
O443 C447 1.253 . S
H444 C440 0.931 . S
H445 C441 0.930 . S
O446 Co435 2.039 . S
O446 C436 1.265 . S
C447 O443 1.253 . S
C447 O448 1.227 . S
O448 C447 1.227 . S
N449 Co435 2.140 . S
N449 C452 1.346 . S
N449 C453 1.345 . S
C450 C451 1.387 . S
C450 C454 1.391 . S
C451 C450 1.387 . S
C451 C452 1.369 . S
C451 H460 0.929 . S
C452 N449 1.346 . S
C452 C451 1.369 . S
C452 H455 0.928 . S
C453 N449 1.345 . S
C453 C454 1.371 . S
C453 H456 0.931 . S
C454 C450 1.391 . S
C454 C453 1.371 . S
C454 H461 0.930 . S
H455 C452 0.928 . S
H456 C453 0.931 . S
H457 C433 0.930 . S
H458 C430 0.930 . S
H459 C439 0.930 . S
H460 C451 0.929 . S
H461 C454 0.930 . S
C462 C463 1.351 . S
C462 N465 1.368 . S
C462 H467 0.931 . S
C463 C462 1.351 . S
C463 N464 1.373 . S
C463 H491 0.930 . S
N464 C463 1.373 . S
N464 C466 1.340 . S
N465 C462 1.368 . S
N465 C466 1.321 . S
N465 Co468 2.135 . S
C466 N464 1.340 . S
C466 N465 1.321 . S
C466 H490 0.930 . S
H467 C462 0.931 . S
Co468 N465 2.135 . S
Co468 N471 2.121 . S
Co468 O476 2.055 . S
Co468 O479 2.039 . S
Co468 N482 2.140 . S
C469 O470 1.227 . S
C469 O479 1.265 . S
O470 C469 1.227 . S
N471 Co468 2.121 . S
N471 C473 1.375 . S
N471 C474 1.313 . S
C472 C473 1.338 . S
C472 N475 1.377 . S
C472 H492 0.930 . S
C473 N471 1.375 . S
C473 C472 1.338 . S
C473 H477 0.931 . S
C474 N471 1.313 . S
C474 N475 1.344 . S
C474 H478 0.930 . S
N475 C472 1.377 . S
N475 C474 1.344 . S
O476 Co468 2.055 . S
O476 C480 1.253 . S
H477 C473 0.931 . S
H478 C474 0.930 . S
O479 Co468 2.039 . S
O479 C469 1.265 . S
C480 O476 1.253 . S
C480 O481 1.227 . S
O481 C480 1.227 . S
N482 Co468 2.140 . S
N482 C485 1.346 . S
N482 C486 1.345 . S
C483 C484 1.387 . S
C483 C487 1.391 . S
C484 C483 1.387 . S
C484 C485 1.369 . S
C484 H493 0.929 . S
C485 N482 1.346 . S
C485 C484 1.369 . S
C485 H488 0.928 . S
C486 N482 1.345 . S
C486 C487 1.371 . S
C486 H489 0.931 . S
C487 C483 1.391 . S
C487 C486 1.371 . S
C487 H494 0.930 . S
H488 C485 0.928 . S
H489 C486 0.931 . S
H490 C466 0.930 . S
H491 C463 0.930 . S
H492 C472 0.930 . S
H493 C484 0.929 . S
H494 C487 0.930 . S
C495 C496 1.351 . S
C495 N498 1.368 . S
C495 H500 0.931 . S
C496 C495 1.351 . S
C496 N497 1.373 . S
C496 H524 0.930 . S
N497 C496 1.373 . S
N497 C499 1.340 . S
N498 C495 1.368 . S
N498 C499 1.321 . S
N498 Co501 2.135 . S
C499 N497 1.340 . S
C499 N498 1.321 . S
C499 H523 0.930 . S
H500 C495 0.931 . S
Co501 N498 2.135 . S
Co501 N504 2.121 . S
Co501 O509 2.055 . S
Co501 O512 2.039 . S
Co501 N515 2.140 . S
C502 O503 1.227 . S
C502 O512 1.265 . S
O503 C502 1.227 . S
N504 Co501 2.121 . S
N504 C506 1.375 . S
N504 C507 1.313 . S
C505 C506 1.338 . S
C505 N508 1.377 . S
C505 H525 0.930 . S
C506 N504 1.375 . S
C506 C505 1.338 . S
C506 H510 0.931 . S
C507 N504 1.313 . S
C507 N508 1.344 . S
C507 H511 0.930 . S
N508 C505 1.377 . S
N508 C507 1.344 . S
O509 Co501 2.055 . S
O509 C513 1.253 . S
H510 C506 0.931 . S
H511 C507 0.930 . S
O512 Co501 2.039 . S
O512 C502 1.265 . S
C513 O509 1.253 . S
C513 O514 1.227 . S
O514 C513 1.227 . S
N515 Co501 2.140 . S
N515 C518 1.346 . S
N515 C519 1.345 . S
C516 C517 1.387 . S
C516 C520 1.391 . S
C517 C516 1.387 . S
C517 C518 1.369 . S
C517 H526 0.929 . S
C518 N515 1.346 . S
C518 C517 1.369 . S
C518 H521 0.928 . S
C519 N515 1.345 . S
C519 C520 1.371 . S
C519 H522 0.931 . S
C520 C516 1.391 . S
C520 C519 1.371 . S
C520 H527 0.930 . S
H521 C518 0.928 . S
H522 C519 0.931 . S
H523 C499 0.930 . S
H524 C496 0.930 . S
H525 C505 0.930 . S
H526 C517 0.929 . S
H527 C520 0.930 . S
C21 N365 1.416 . S
N266 C54 1.416 . S
N299 C87 1.416 . S
N332 C120 1.416 . S
N167 C153 1.416 1_554 S
N200 C186 1.416 1_556 S
C219 N233 1.416 1_556 S
C252 N134 1.416 1_554 S
C285 N101 1.416 . S
C318 N2 1.416 . S
N35 C351 1.416 . S
C384 N68 1.416 . S
N431 C417 1.416 . S
N464 C450 1.416 . S
N497 C483 1.416 . S
C516 N398 1.416 . S
C18 C84 1.706 1_645 S
C51 C117 1.706 1_445 S
C216 C150 1.706 1_455 S
C249 C183 1.706 1_565 S
C348 C282 1.706 . S
C315 C381 1.706 . S
C414 C480 1.706 1_565 S
C513 C447 1.706 1_455 S
C73 C7 2.900 1_455 S
C40 C106 2.900 1_545 S
C139 C205 2.900 1_645 S
C238 C172 2.900 1_665 S
C337 C271 2.900 1_545 S
C304 C370 2.900 1_655 S
C403 C469 2.900 . S
C502 C436 2.900 . S
N475 N13 1.608 . S
N46 N508 1.608 . S
N79 N409 1.608 . S
N112 N442 1.608 . S
N145 N343 1.608 . S
N376 N178 1.608 . S
N211 N277 1.608 . S
N244 N310 1.608 . S
