# Generated by pormake.
# Topology dei, (4)-cn, num edge types: 1
# Building blocks:
#     Node 0, Type 0, BuildingBlock: GALJAG_clean_sbu_0, # of connection points: 4
#     Node 1, Type 0, BuildingBlock: GALJAG_clean_sbu_0, # of connection points: 4
#     Node 2, Type 0, BuildingBlock: GALJAG_clean_sbu_0, # of connection points: 4
#     Node 3, Type 0, BuildingBlock: GALJAG_clean_sbu_0, # of connection points: 4
#     Node 4, Type 0, BuildingBlock: GALJAG_clean_sbu_0, # of connection points: 4
#     Node 5, Type 0, BuildingBlock: GALJAG_clean_sbu_0, # of connection points: 4
#     Node 6, Type 0, BuildingBlock: GALJAG_clean_sbu_0, # of connection points: 4
#     Node 7, Type 0, BuildingBlock: GALJAG_clean_sbu_0, # of connection points: 4
#     Node 8, Type 0, BuildingBlock: GALJAG_clean_sbu_0, # of connection points: 4
#     Node 9, Type 0, BuildingBlock: GALJAG_clean_sbu_0, # of connection points: 4
#     Node 10, Type 0, BuildingBlock: GALJAG_clean_sbu_0, # of connection points: 4
#     Node 11, Type 0, BuildingBlock: GALJAG_clean_sbu_0, # of connection points: 4
#     Node 12, Type 0, BuildingBlock: GALJAG_clean_sbu_0, # of connection points: 4
#     Node 13, Type 0, BuildingBlock: GALJAG_clean_sbu_0, # of connection points: 4
#     Node 14, Type 0, BuildingBlock: GALJAG_clean_sbu_0, # of connection points: 4
#     Node 15, Type 0, BuildingBlock: GALJAG_clean_sbu_0, # of connection points: 4
#     Node 16, Type 0, BuildingBlock: GALJAG_clean_sbu_0, # of connection points: 4
#     Node 17, Type 0, BuildingBlock: GALJAG_clean_sbu_0, # of connection points: 4
#     Node 18, Type 0, BuildingBlock: GALJAG_clean_sbu_0, # of connection points: 4
#     Node 19, Type 0, BuildingBlock: GALJAG_clean_sbu_0, # of connection points: 4
#     Node 20, Type 0, BuildingBlock: GALJAG_clean_sbu_0, # of connection points: 4
#     Node 21, Type 0, BuildingBlock: GALJAG_clean_sbu_0, # of connection points: 4
#     Node 22, Type 0, BuildingBlock: GALJAG_clean_sbu_0, # of connection points: 4
#     Node 23, Type 0, BuildingBlock: GALJAG_clean_sbu_0, # of connection points: 4
#     Node 24, Type 0, BuildingBlock: GALJAG_clean_sbu_0, # of connection points: 4
#     Node 25, Type 0, BuildingBlock: GALJAG_clean_sbu_0, # of connection points: 4
#     Node 26, Type 0, BuildingBlock: GALJAG_clean_sbu_0, # of connection points: 4
#     Node 27, Type 0, BuildingBlock: GALJAG_clean_sbu_0, # of connection points: 4
#     Node 28, Type 0, BuildingBlock: GALJAG_clean_sbu_0, # of connection points: 4
#     Node 29, Type 0, BuildingBlock: GALJAG_clean_sbu_0, # of connection points: 4
#     Node 30, Type 0, BuildingBlock: GALJAG_clean_sbu_0, # of connection points: 4
#     Node 31, Type 0, BuildingBlock: GALJAG_clean_sbu_0, # of connection points: 4
#     Edge 32, Type (0, 0), BuildingBlock: AJUNOK_clean_linker_0, # of connection points: 2
#     Edge 33, Type (0, 0), BuildingBlock: AJUNOK_clean_linker_0, # of connection points: 2
#     Edge 34, Type (0, 0), BuildingBlock: AJUNOK_clean_linker_0, # of connection points: 2
#     Edge 35, Type (0, 0), BuildingBlock: AJUNOK_clean_linker_0, # of connection points: 2
#     Edge 36, Type (0, 0), BuildingBlock: AJUNOK_clean_linker_0, # of connection points: 2
#     Edge 37, Type (0, 0), BuildingBlock: AJUNOK_clean_linker_0, # of connection points: 2
#     Edge 38, Type (0, 0), BuildingBlock: AJUNOK_clean_linker_0, # of connection points: 2
#     Edge 39, Type (0, 0), BuildingBlock: AJUNOK_clean_linker_0, # of connection points: 2
#     Edge 40, Type (0, 0), BuildingBlock: AJUNOK_clean_linker_0, # of connection points: 2
#     Edge 41, Type (0, 0), BuildingBlock: AJUNOK_clean_linker_0, # of connection points: 2
#     Edge 42, Type (0, 0), BuildingBlock: AJUNOK_clean_linker_0, # of connection points: 2
#     Edge 43, Type (0, 0), BuildingBlock: AJUNOK_clean_linker_0, # of connection points: 2
#     Edge 44, Type (0, 0), BuildingBlock: AJUNOK_clean_linker_0, # of connection points: 2
#     Edge 45, Type (0, 0), BuildingBlock: AJUNOK_clean_linker_0, # of connection points: 2
#     Edge 46, Type (0, 0), BuildingBlock: AJUNOK_clean_linker_0, # of connection points: 2
#     Edge 47, Type (0, 0), BuildingBlock: AJUNOK_clean_linker_0, # of connection points: 2
#     Edge 48, Type (0, 0), BuildingBlock: AJUNOK_clean_linker_0, # of connection points: 2
#     Edge 49, Type (0, 0), BuildingBlock: AJUNOK_clean_linker_0, # of connection points: 2
#     Edge 50, Type (0, 0), BuildingBlock: AJUNOK_clean_linker_0, # of connection points: 2
#     Edge 51, Type (0, 0), BuildingBlock: AJUNOK_clean_linker_0, # of connection points: 2
#     Edge 52, Type (0, 0), BuildingBlock: AJUNOK_clean_linker_0, # of connection points: 2
#     Edge 53, Type (0, 0), BuildingBlock: AJUNOK_clean_linker_0, # of connection points: 2
#     Edge 54, Type (0, 0), BuildingBlock: AJUNOK_clean_linker_0, # of connection points: 2
#     Edge 55, Type (0, 0), BuildingBlock: AJUNOK_clean_linker_0, # of connection points: 2
#     Edge 56, Type (0, 0), BuildingBlock: AJUNOK_clean_linker_0, # of connection points: 2
#     Edge 57, Type (0, 0), BuildingBlock: AJUNOK_clean_linker_0, # of connection points: 2
#     Edge 58, Type (0, 0), BuildingBlock: AJUNOK_clean_linker_0, # of connection points: 2
#     Edge 59, Type (0, 0), BuildingBlock: AJUNOK_clean_linker_0, # of connection points: 2
#     Edge 60, Type (0, 0), BuildingBlock: AJUNOK_clean_linker_0, # of connection points: 2
#     Edge 61, Type (0, 0), BuildingBlock: AJUNOK_clean_linker_0, # of connection points: 2
#     Edge 62, Type (0, 0), BuildingBlock: AJUNOK_clean_linker_0, # of connection points: 2
#     Edge 63, Type (0, 0), BuildingBlock: AJUNOK_clean_linker_0, # of connection points: 2
#     Edge 64, Type (0, 0), BuildingBlock: AJUNOK_clean_linker_0, # of connection points: 2
#     Edge 65, Type (0, 0), BuildingBlock: AJUNOK_clean_linker_0, # of connection points: 2
#     Edge 66, Type (0, 0), BuildingBlock: AJUNOK_clean_linker_0, # of connection points: 2
#     Edge 67, Type (0, 0), BuildingBlock: AJUNOK_clean_linker_0, # of connection points: 2
#     Edge 68, Type (0, 0), BuildingBlock: AJUNOK_clean_linker_0, # of connection points: 2
#     Edge 69, Type (0, 0), BuildingBlock: AJUNOK_clean_linker_0, # of connection points: 2
#     Edge 70, Type (0, 0), BuildingBlock: AJUNOK_clean_linker_0, # of connection points: 2
#     Edge 71, Type (0, 0), BuildingBlock: AJUNOK_clean_linker_0, # of connection points: 2
#     Edge 72, Type (0, 0), BuildingBlock: AJUNOK_clean_linker_0, # of connection points: 2
#     Edge 73, Type (0, 0), BuildingBlock: AJUNOK_clean_linker_0, # of connection points: 2
#     Edge 74, Type (0, 0), BuildingBlock: AJUNOK_clean_linker_0, # of connection points: 2
#     Edge 75, Type (0, 0), BuildingBlock: AJUNOK_clean_linker_0, # of connection points: 2
#     Edge 76, Type (0, 0), BuildingBlock: AJUNOK_clean_linker_0, # of connection points: 2
#     Edge 77, Type (0, 0), BuildingBlock: AJUNOK_clean_linker_0, # of connection points: 2
#     Edge 78, Type (0, 0), BuildingBlock: AJUNOK_clean_linker_0, # of connection points: 2
#     Edge 79, Type (0, 0), BuildingBlock: AJUNOK_clean_linker_0, # of connection points: 2
#     Edge 80, Type (0, 0), BuildingBlock: AJUNOK_clean_linker_0, # of connection points: 2
#     Edge 81, Type (0, 0), BuildingBlock: AJUNOK_clean_linker_0, # of connection points: 2
#     Edge 82, Type (0, 0), BuildingBlock: AJUNOK_clean_linker_0, # of connection points: 2
#     Edge 83, Type (0, 0), BuildingBlock: AJUNOK_clean_linker_0, # of connection points: 2
#     Edge 84, Type (0, 0), BuildingBlock: AJUNOK_clean_linker_0, # of connection points: 2
#     Edge 85, Type (0, 0), BuildingBlock: AJUNOK_clean_linker_0, # of connection points: 2
#     Edge 86, Type (0, 0), BuildingBlock: AJUNOK_clean_linker_0, # of connection points: 2
#     Edge 87, Type (0, 0), BuildingBlock: AJUNOK_clean_linker_0, # of connection points: 2
#     Edge 88, Type (0, 0), BuildingBlock: AJUNOK_clean_linker_0, # of connection points: 2
#     Edge 89, Type (0, 0), BuildingBlock: AJUNOK_clean_linker_0, # of connection points: 2
#     Edge 90, Type (0, 0), BuildingBlock: AJUNOK_clean_linker_0, # of connection points: 2
#     Edge 91, Type (0, 0), BuildingBlock: AJUNOK_clean_linker_0, # of connection points: 2
#     Edge 92, Type (0, 0), BuildingBlock: AJUNOK_clean_linker_0, # of connection points: 2
#     Edge 93, Type (0, 0), BuildingBlock: AJUNOK_clean_linker_0, # of connection points: 2
#     Edge 94, Type (0, 0), BuildingBlock: AJUNOK_clean_linker_0, # of connection points: 2
#     Edge 95, Type (0, 0), BuildingBlock: AJUNOK_clean_linker_0, # of connection points: 2
# Relax obj value: 0.292
# Max RMSD: 0.107
# Mean RMSD: 0.106
data_MOF--net-dei--node1-GALJAG_clean_sbu_0--edge1-AJUNOK_clean_linker_0
_symmetry_space_group_name_H-M    P1
_symmetry_Int_Tables_number       1
_symmetry_cell_setting            triclinic
loop_
_symmetry_equiv_pos_as_xyz
'x, y, z'
_cell_length_a     41.569267
_cell_length_b     41.634
_cell_length_c     60.625324
_cell_angle_alpha  89.97063
_cell_angle_beta   89.96296
_cell_angle_gamma 89.959239
loop_
_atom_site_label
_atom_site_type_symbol
_atom_site_fract_x
_atom_site_fract_y
_atom_site_fract_z
_atom_type_partial_charge
In0 In 0.14206 0.63463 0.03081 0.0
O1 O 0.1642 0.60601 0.00173 0.0
O2 O 0.16474 0.58495 0.03339 0.0
C3 C 0.15625 0.69712 0.02068 0.0
C4 C 0.08086 0.61861 0.02093 0.0
C5 C 0.14497 0.63712 0.07513 0.0
O6 O 0.17771 0.67779 0.02724 0.0
O7 O 0.12906 0.68438 0.01834 0.0
O8 O 0.12015 0.64466 0.06433 0.0
O9 O 0.16906 0.62958 0.06349 0.0
C10 C 0.17048 0.58143 0.0132 0.0
O11 O 0.09427 0.61127 0.03887 0.0
O12 O 0.09846 0.63398 0.00764 0.0
In13 In 0.64313 0.8983 0.28224 0.0
O14 O 0.63644 0.87304 0.31525 0.0
O15 O 0.6573 0.91969 0.31546 0.0
C16 C 0.64981 0.8349 0.27343 0.0
C17 C 0.58296 0.92343 0.2745 0.0
C18 C 0.69554 0.92489 0.26196 0.0
O19 O 0.67115 0.85127 0.28295 0.0
O20 O 0.62487 0.85049 0.26838 0.0
O21 O 0.67432 0.90934 0.25166 0.0
O22 O 0.68853 0.92982 0.28184 0.0
C23 C 0.64885 0.89536 0.32649 0.0
O24 O 0.5985 0.90774 0.26027 0.0
O25 O 0.59876 0.92866 0.29184 0.0
In26 In 0.38145 0.38857 0.53136 0.0
O27 O 0.43171 0.39182 0.54528 0.0
O28 O 0.42778 0.3929 0.51048 0.0
C29 C 0.37128 0.38315 0.57498 0.0
C30 C 0.36032 0.44733 0.51747 0.0
C31 C 0.3599 0.33077 0.51592 0.0
O32 O 0.39322 0.36808 0.56496 0.0
O33 O 0.35314 0.39985 0.56276 0.0
O34 O 0.38492 0.34446 0.50893 0.0
O35 O 0.34413 0.34739 0.52958 0.0
C36 C 0.44608 0.39356 0.52707 0.0
O37 O 0.35555 0.42219 0.50623 0.0
O38 O 0.37488 0.44239 0.53529 0.0
In39 In 0.88939 0.12462 0.77761 0.0
O40 O 0.88841 0.15146 0.81007 0.0
O41 O 0.88205 0.10076 0.81133 0.0
C42 C 0.89341 0.1878 0.7675 0.0
C43 C 0.94685 0.09693 0.76609 0.0
C44 C 0.83149 0.10155 0.76326 0.0
O45 O 0.91329 0.17339 0.77968 0.0
O46 O 0.87133 0.17014 0.75998 0.0
O47 O 0.85558 0.10377 0.75057 0.0
O48 O 0.83735 0.10944 0.78283 0.0
C49 C 0.88332 0.12699 0.82183 0.0
O50 O 0.93149 0.08926 0.78322 0.0
O51 O 0.93172 0.11604 0.75376 0.0
In52 In 0.14397 0.39583 0.96285 0.0
O53 O 0.09405 0.40914 0.95118 0.0
O54 O 0.09861 0.39706 0.98494 0.0
C55 C 0.14875 0.39188 0.91877 0.0
C56 C 0.16902 0.45227 0.97822 0.0
C57 C 0.16469 0.33574 0.97467 0.0
O58 O 0.12548 0.38022 0.92952 0.0
O59 O 0.17078 0.40412 0.93044 0.0
O60 O 0.18124 0.35428 0.96273 0.0
O61 O 0.13918 0.34835 0.98176 0.0
C62 C 0.08017 0.40539 0.96943 0.0
O63 O 0.16732 0.42746 0.99019 0.0
O64 O 0.15944 0.44787 0.95886 0.0
In65 In 0.88447 0.89638 0.21369 0.0
O66 O 0.92711 0.93154 0.2108 0.0
O67 O 0.92776 0.89885 0.2374 0.0
C68 C 0.82642 0.91842 0.22879 0.0
C69 C 0.8792 0.90305 0.16963 0.0
C70 C 0.89095 0.83258 0.22071 0.0
O71 O 0.85204 0.92219 0.23974 0.0
O72 O 0.83062 0.90462 0.21063 0.0
O73 O 0.9067 0.84783 0.20637 0.0
O74 O 0.87177 0.84961 0.23187 0.0
C75 C 0.94277 0.92023 0.22684 0.0
O76 O 0.87564 0.87653 0.1794 0.0
O77 O 0.88582 0.92645 0.18213 0.0
In78 In 0.38134 0.63318 0.46637 0.0
O79 O 0.36502 0.6019 0.49594 0.0
O80 O 0.35933 0.58282 0.46403 0.0
C81 C 0.35911 0.69145 0.48068 0.0
C82 C 0.44596 0.63807 0.47033 0.0
C83 C 0.37556 0.62648 0.42237 0.0
O84 O 0.34615 0.67621 0.46505 0.0
O85 O 0.38133 0.67611 0.49009 0.0
O86 O 0.40004 0.61738 0.43296 0.0
O87 O 0.35372 0.63918 0.43403 0.0
C88 C 0.35709 0.57796 0.48441 0.0
O89 O 0.42938 0.65637 0.4583 0.0
O90 O 0.42989 0.61704 0.48051 0.0
In91 In 0.64378 0.12631 0.71509 0.0
O92 O 0.60087 0.12238 0.73891 0.0
O93 O 0.60146 0.09072 0.71178 0.0
C94 C 0.69966 0.10116 0.73166 0.0
C95 C 0.65043 0.12551 0.67087 0.0
C96 C 0.63765 0.1902 0.72201 0.0
O97 O 0.67602 0.10835 0.74378 0.0
O98 O 0.69414 0.10456 0.71144 0.0
O99 O 0.61869 0.17421 0.71012 0.0
O100 O 0.65997 0.1739 0.73062 0.0
C101 C 0.58592 0.10128 0.72812 0.0
O102 O 0.65879 0.14903 0.68265 0.0
O103 O 0.63849 0.10215 0.68142 0.0
In104 In 0.87694 0.39566 0.96261 0.0
O105 O 0.8936 0.37599 0.92967 0.0
O106 O 0.85098 0.40446 0.92999 0.0
C107 C 0.94076 0.40488 0.96912 0.0
C108 C 0.85555 0.33666 0.97601 0.0
C109 C 0.85213 0.45287 0.97685 0.0
O110 O 0.92713 0.40744 0.9507 0.0
O111 O 0.92208 0.39782 0.9848 0.0
O112 O 0.8517 0.42801 0.98884 0.0
O113 O 0.86385 0.4482 0.95805 0.0
C114 C 0.8715 0.38927 0.91865 0.0
O115 O 0.83924 0.35469 0.96354 0.0
O116 O 0.88114 0.34938 0.98285 0.0
In117 In 0.38841 0.12312 0.71488 0.0
O118 O 0.37369 0.14691 0.68269 0.0
O119 O 0.39435 0.10024 0.68085 0.0
C120 C 0.39255 0.18693 0.72271 0.0
C121 C 0.44661 0.09896 0.72798 0.0
C122 C 0.33297 0.09604 0.73065 0.0
O123 O 0.36916 0.17023 0.72937 0.0
O124 O 0.41357 0.17142 0.71217 0.0
O125 O 0.35518 0.10562 0.74323 0.0
O126 O 0.33999 0.09778 0.71055 0.0
C127 C 0.38232 0.12381 0.6706 0.0
O128 O 0.43048 0.11851 0.73938 0.0
O129 O 0.43203 0.0893 0.711 0.0
In130 In 0.65047 0.63516 0.46777 0.0
O131 O 0.63216 0.61812 0.43444 0.0
O132 O 0.67689 0.64285 0.43524 0.0
C133 C 0.58576 0.63941 0.47128 0.0
C134 C 0.67302 0.69345 0.48172 0.0
C135 C 0.67489 0.58018 0.48593 0.0
O136 O 0.60231 0.65781 0.45929 0.0
O137 O 0.60193 0.61872 0.48171 0.0
O138 O 0.66405 0.60299 0.49746 0.0
O139 O 0.67555 0.58621 0.46564 0.0
C140 C 0.65569 0.62912 0.42367 0.0
O141 O 0.68724 0.67675 0.46737 0.0
O142 O 0.64923 0.6795 0.49032 0.0
In143 In 0.14121 0.8976 0.21687 0.0
O144 O 0.15053 0.87652 0.18295 0.0
O145 O 0.13937 0.92635 0.1848 0.0
C146 C 0.13504 0.83413 0.22504 0.0
C147 C 0.08233 0.92139 0.2289 0.0
C148 C 0.19924 0.92025 0.23143 0.0
O149 O 0.12026 0.84859 0.20984 0.0
O150 O 0.15305 0.85186 0.23657 0.0
O151 O 0.17367 0.92432 0.24243 0.0
O152 O 0.19497 0.90585 0.21351 0.0
C153 C 0.1464 0.90259 0.17272 0.0
O154 O 0.09876 0.93291 0.2133 0.0
O155 O 0.09691 0.89999 0.23972 0.0
In156 In 0.88158 0.6324 0.03034 0.0
O157 O 0.8497 0.67734 0.02258 0.0
O158 O 0.89993 0.68331 0.02629 0.0
C159 C 0.85015 0.58237 0.01088 0.0
C160 C 0.87839 0.62965 0.07475 0.0
C161 C 0.94276 0.61723 0.01983 0.0
O162 O 0.86364 0.60435 -6e-05 0.0
O163 O 0.84985 0.58742 0.03131 0.0
O164 O 0.92862 0.60709 0.03685 0.0
O165 O 0.92573 0.63497 0.00757 0.0
C166 C 0.87325 0.69661 0.02275 0.0
O167 O 0.90245 0.62079 0.06373 0.0
O168 O 0.85543 0.64078 0.06337 0.0
In169 In 0.145 0.12051 0.77867 0.0
O170 O 0.10382 0.08327 0.77973 0.0
O171 O 0.0995 0.1215 0.75708 0.0
C172 C 0.20104 0.09558 0.7621 0.0
C173 C 0.15017 0.11741 0.82294 0.0
C174 C 0.14104 0.18503 0.77451 0.0
O175 O 0.17759 0.10307 0.7499 0.0
O176 O 0.19525 0.09865 0.78231 0.0
O177 O 0.12581 0.16902 0.78869 0.0
O178 O 0.15786 0.16836 0.76147 0.0
C179 C 0.08624 0.09745 0.76584 0.0
O180 O 0.16271 0.1395 0.81157 0.0
O181 O 0.13548 0.09623 0.81188 0.0
In182 In 0.65034 0.39021 0.53258 0.0
O183 O 0.6394 0.37005 0.56641 0.0
O184 O 0.67832 0.40308 0.56385 0.0
C185 C 0.58577 0.39394 0.52777 0.0
C186 C 0.67224 0.33227 0.51765 0.0
C187 C 0.67024 0.44911 0.5183 0.0
O188 O 0.59978 0.39228 0.54612 0.0
O189 O 0.60443 0.3937 0.51133 0.0
O190 O 0.67805 0.42361 0.50827 0.0
O191 O 0.65335 0.44445 0.53518 0.0
C192 C 0.66089 0.38594 0.57624 0.0
O193 O 0.6879 0.34928 0.53111 0.0
O194 O 0.64727 0.34578 0.51038 0.0
In195 In 0.38264 0.89969 0.2833 0.0
O196 O 0.42755 0.90685 0.26121 0.0
O197 O 0.42686 0.93088 0.29173 0.0
C198 C 0.3305 0.92729 0.26347 0.0
C199 C 0.37863 0.8964 0.32761 0.0
C200 C 0.37313 0.8365 0.27502 0.0
O201 O 0.35164 0.91194 0.25288 0.0
O202 O 0.33758 0.93161 0.2834 0.0
O203 O 0.35236 0.85418 0.28403 0.0
O204 O 0.39892 0.85073 0.27005 0.0
C205 C 0.44291 0.92388 0.27478 0.0
O206 O 0.39106 0.87439 0.31608 0.0
O207 O 0.36934 0.92066 0.31682 0.0
In208 In 0.64965 0.13502 0.53102 0.0
O209 O 0.6014 0.15732 0.5397 0.0
O210 O 0.60127 0.11923 0.51651 0.0
C211 C 0.65484 0.12937 0.57517 0.0
C212 C 0.67378 0.08017 0.5124 0.0
C213 C 0.67205 0.19331 0.51704 0.0
O214 O 0.63206 0.11714 0.5643 0.0
O215 O 0.67553 0.14406 0.56368 0.0
O216 O 0.68693 0.1762 0.53088 0.0
O217 O 0.64764 0.17977 0.50899 0.0
C218 C 0.58499 0.13946 0.52727 0.0
O219 O 0.66473 0.10399 0.50112 0.0
O220 O 0.67288 0.08504 0.53285 0.0
In221 In 0.1406 0.38956 0.77923 0.0
O222 O 0.1256 0.37514 0.81349 0.0
O223 O 0.1544 0.41719 0.81064 0.0
C224 C 0.14041 0.32472 0.77546 0.0
C225 C 0.08354 0.41486 0.76486 0.0
C226 C 0.2002 0.40814 0.76525 0.0
O227 O 0.13023 0.33997 0.7919 0.0
O228 O 0.15055 0.34232 0.75996 0.0
O229 O 0.17527 0.41299 0.75373 0.0
O230 O 0.19471 0.39454 0.78337 0.0
C231 C 0.14036 0.39741 0.82325 0.0
O232 O 0.10075 0.42827 0.77928 0.0
O233 O 0.09659 0.39057 0.75627 0.0
In234 In 0.88206 0.90087 0.03013 0.0
O235 O 0.87086 0.93002 -0.00123 0.0
O236 O 0.84869 0.94496 0.02824 0.0
C237 C 0.87331 0.83689 0.02194 0.0
C238 C 0.94566 0.91061 0.02457 0.0
C239 C 0.8733 0.90681 0.07404 0.0
O240 O 0.84978 0.85625 0.02218 0.0
O241 O 0.90009 0.85007 0.02519 0.0
O242 O 0.89276 0.92375 0.06314 0.0
O243 O 0.85737 0.88693 0.06266 0.0
C244 C 0.85418 0.95116 0.00829 0.0
O245 O 0.9314 0.91397 0.04276 0.0
O246 O 0.92769 0.90243 0.00875 0.0
In247 In 0.37625 0.63517 0.28283 0.0
O248 O 0.42081 0.60436 0.27201 0.0
O249 O 0.42776 0.65164 0.28399 0.0
C250 C 0.32582 0.60742 0.2612 0.0
C251 C 0.37221 0.62608 0.32674 0.0
C252 C 0.36686 0.69789 0.27404 0.0
O253 O 0.34749 0.62313 0.2514 0.0
O254 O 0.33151 0.60296 0.28133 0.0
O255 O 0.35387 0.68372 0.29013 0.0
O256 O 0.38415 0.6802 0.26196 0.0
C257 C 0.44066 0.62643 0.27673 0.0
O258 O 0.36036 0.65011 0.31705 0.0
O259 O 0.38577 0.60596 0.31417 0.0
In260 In 0.64982 0.89017 0.46568 0.0
O261 O 0.59924 0.89079 0.45241 0.0
O262 O 0.60398 0.89488 0.48707 0.0
C263 C 0.6589 0.88576 0.42181 0.0
C264 C 0.66993 0.94944 0.47928 0.0
C265 C 0.67221 0.83237 0.48065 0.0
O266 O 0.63674 0.87116 0.43191 0.0
O267 O 0.67783 0.90148 0.43407 0.0
O268 O 0.68766 0.84942 0.46708 0.0
O269 O 0.6472 0.84575 0.48795 0.0
C270 C 0.58527 0.8936 0.4707 0.0
O271 O 0.676 0.92434 0.4903 0.0
O272 O 0.65455 0.94423 0.46183 0.0
In273 In 0.38754 0.38978 0.71453 0.0
O274 O 0.42887 0.40118 0.73868 0.0
O275 O 0.42978 0.42433 0.70779 0.0
C276 C 0.33147 0.41204 0.73242 0.0
C277 C 0.37996 0.38887 0.67035 0.0
C278 C 0.39215 0.3261 0.72322 0.0
O279 O 0.35585 0.40545 0.74402 0.0
O280 O 0.33625 0.40939 0.71202 0.0
O281 O 0.36701 0.34206 0.72721 0.0
O282 O 0.41476 0.34235 0.71506 0.0
C283 C 0.44438 0.41892 0.72562 0.0
O284 O 0.38685 0.3642 0.68147 0.0
O285 O 0.37748 0.41444 0.68148 0.0
In286 In 0.87897 0.1409 0.96094 0.0
O287 O 0.92963 0.1535 0.95069 0.0
O288 O 0.92439 0.13067 0.98173 0.0
C289 C 0.87193 0.13961 0.91676 0.0
C290 C 0.86017 0.08156 0.97487 0.0
C291 C 0.85403 0.19775 0.97568 0.0
O292 O 0.89298 0.15613 0.92647 0.0
O293 O 0.8531 0.12447 0.92942 0.0
O294 O 0.84159 0.18197 0.96011 0.0
O295 O 0.87684 0.18328 0.9851 0.0
C296 C 0.94329 0.14253 0.9676 0.0
O297 O 0.84931 0.10696 0.98366 0.0
O298 O 0.87981 0.08649 0.95944 0.0
In299 In 0.13534 0.63185 0.21498 0.0
O300 O 0.09476 0.59436 0.212 0.0
O301 O 0.0935 0.62546 0.23942 0.0
C302 C 0.19504 0.61264 0.2281 0.0
C303 C 0.1376 0.6295 0.17057 0.0
C304 C 0.13131 0.69511 0.22469 0.0
O305 O 0.1698 0.60304 0.23778 0.0
O306 O 0.18979 0.63117 0.21209 0.0
O307 O 0.1157 0.68181 0.20945 0.0
O308 O 0.1489 0.67627 0.23569 0.0
C309 C 0.07915 0.60403 0.22855 0.0
O310 O 0.12531 0.65247 0.18114 0.0
O311 O 0.14819 0.60681 0.18239 0.0
In312 In 0.38097 0.88858 0.46673 0.0
O313 O 0.39356 0.87055 0.43265 0.0
O314 O 0.35231 0.9006 0.43554 0.0
C315 C 0.44557 0.89193 0.4713 0.0
C316 C 0.35939 0.83042 0.48159 0.0
C317 C 0.36104 0.94765 0.48087 0.0
O318 O 0.43137 0.8887 0.45313 0.0
O319 O 0.42707 0.89341 0.4878 0.0
O320 O 0.35328 0.9222 0.49098 0.0
O321 O 0.37784 0.94287 0.46396 0.0
C322 C 0.37111 0.88526 0.42293 0.0
O323 O 0.34428 0.84684 0.46748 0.0
O324 O 0.38361 0.84454 0.48941 0.0
In325 In 0.88313 0.6293 0.21475 0.0
O326 O 0.86926 0.64988 0.18134 0.0
O327 O 0.8919 0.604 0.18196 0.0
C328 C 0.88988 0.69326 0.22123 0.0
C329 C 0.94027 0.60387 0.22862 0.0
C330 C 0.82596 0.6048 0.22959 0.0
O331 O 0.90718 0.67721 0.20822 0.0
O332 O 0.8689 0.67695 0.23132 0.0
O333 O 0.83183 0.61139 0.2098 0.0
O334 O 0.84973 0.60894 0.24225 0.0
C335 C 0.87984 0.6263 0.17046 0.0
O336 O 0.92637 0.62679 0.23832 0.0
O337 O 0.92392 0.59186 0.21317 0.0
In338 In 0.14731 0.13663 0.96249 0.0
O339 O 0.18175 0.18011 0.95942 0.0
O340 O 0.14681 0.18131 0.98465 0.0
C341 C 0.17413 0.08184 0.97959 0.0
C342 C 0.15033 0.12819 0.91848 0.0
C343 C 0.08294 0.1404 0.96846 0.0
O344 O 0.16828 0.10617 0.99136 0.0
O345 O 0.16828 0.08611 0.95951 0.0
O346 O 0.09806 0.15634 0.95416 0.0
O347 O 0.10039 0.12231 0.98014 0.0
C348 C 0.16859 0.19632 0.97453 0.0
O349 O 0.12695 0.11883 0.93009 0.0
O350 O 0.17243 0.1423 0.92907 0.0
In351 In 0.64124 0.39346 0.71539 0.0
O352 O 0.64608 0.36725 0.68273 0.0
O353 O 0.65181 0.418 0.68233 0.0
C354 C 0.63618 0.32955 0.72294 0.0
C355 C 0.58348 0.42136 0.72603 0.0
C356 C 0.69665 0.41625 0.73381 0.0
O357 O 0.66072 0.34546 0.72843 0.0
O358 O 0.6144 0.34599 0.71389 0.0
O359 O 0.67402 0.40455 0.74516 0.0
O360 O 0.69021 0.41858 0.71361 0.0
C361 C 0.65176 0.39207 0.67148 0.0
O362 O 0.59974 0.40502 0.7395 0.0
O363 O 0.59776 0.42616 0.70801 0.0
In364 In 0.38052 0.13413 0.5307 0.0
O365 O 0.39858 0.11573 0.56373 0.0
O366 O 0.35578 0.14379 0.56371 0.0
C367 C 0.44521 0.13882 0.52724 0.0
C368 C 0.35835 0.192 0.51566 0.0
C369 C 0.35586 0.07913 0.51268 0.0
O370 O 0.42843 0.15754 0.53883 0.0
O371 O 0.4293 0.11753 0.51724 0.0
O372 O 0.3679 0.10138 0.50122 0.0
O373 O 0.35387 0.08584 0.53285 0.0
C374 C 0.37641 0.12855 0.57491 0.0
O375 O 0.38156 0.17711 0.50706 0.0
O376 O 0.34435 0.1764 0.53072 0.0
In377 In 0.64564 0.63401 0.28403 0.0
O378 O 0.60092 0.60319 0.27363 0.0
O379 O 0.59408 0.65031 0.28593 0.0
C380 C 0.69581 0.604 0.26355 0.0
C381 C 0.65232 0.6281 0.32801 0.0
C382 C 0.65458 0.69622 0.27332 0.0
O383 O 0.67433 0.61904 0.25309 0.0
O384 O 0.69019 0.60155 0.28385 0.0
O385 O 0.66703 0.68328 0.29006 0.0
O386 O 0.63846 0.6774 0.26133 0.0
C387 C 0.58114 0.6253 0.27844 0.0
O388 O 0.66331 0.65137 0.31708 0.0
O389 O 0.6375 0.60727 0.31671 0.0
In390 In 0.148 0.90014 0.03283 0.0
O391 O 0.18164 0.85588 0.0269 0.0
O392 O 0.13145 0.85029 0.02285 0.0
C393 C 0.17755 0.95211 0.01403 0.0
C394 C 0.1534 0.90433 0.07707 0.0
C395 C 0.08458 0.90956 0.02615 0.0
O396 O 0.16354 0.93079 0.00283 0.0
O397 O 0.1795 0.94538 0.03417 0.0
O398 O 0.09742 0.9089 0.04494 0.0
O399 O 0.10382 0.90544 0.01027 0.0
C400 C 0.15862 0.837 0.02259 0.0
O401 O 0.13464 0.92154 0.06581 0.0
O402 O 0.17009 0.88469 0.06594 0.0
In403 In 0.88764 0.38968 0.77891 0.0
O404 O 0.92959 0.42553 0.78273 0.0
O405 O 0.9293 0.39632 0.75433 0.0
C406 C 0.82841 0.40977 0.76533 0.0
C407 C 0.88315 0.39214 0.82324 0.0
C408 C 0.89258 0.32672 0.76871 0.0
O409 O 0.85379 0.41764 0.75509 0.0
O410 O 0.83335 0.39267 0.78208 0.0
O411 O 0.90972 0.34035 0.78305 0.0
O412 O 0.87294 0.34505 0.75903 0.0
C413 C 0.94456 0.41653 0.76572 0.0
O414 O 0.89113 0.36715 0.81285 0.0
O415 O 0.87828 0.41656 0.81127 0.0
C416 C 0.11841 0.64935 0.13422 0.0
C417 C 0.13999 0.63019 0.14629 0.0
C418 C 0.1205 0.65164 0.11124 0.0
C419 C 0.14469 0.63538 0.09947 0.0
H420 H 0.09951 0.66254 0.14257 0.0
H421 H 0.10304 0.66637 0.10265 0.0
S422 S 0.20765 0.58262 0.12339 0.0
N423 N 0.18647 0.59479 0.14489 0.0
N424 N 0.19087 0.59958 0.10161 0.0
C425 C 0.16671 0.6164 0.11134 0.0
C426 C 0.16419 0.61361 0.13478 0.0
C427 C 0.64129 0.86502 0.38523 0.0
C428 C 0.65975 0.88704 0.39743 0.0
C429 C 0.63831 0.86771 0.3623 0.0
C430 C 0.65335 0.89278 0.35066 0.0
H431 H 0.62852 0.84579 0.39349 0.0
H432 H 0.62354 0.85032 0.35371 0.0
S433 S 0.70555 0.95603 0.37472 0.0
N434 N 0.69431 0.93412 0.39609 0.0
N435 N 0.6885 0.93939 0.35296 0.0
C436 C 0.6725 0.91459 0.36257 0.0
C437 C 0.67581 0.91163 0.38595 0.0
C438 C 0.38762 0.36098 0.6344 0.0
C439 C 0.37557 0.38749 0.64617 0.0
C440 C 0.38506 0.35931 0.61141 0.0
C441 C 0.36982 0.38379 0.59933 0.0
H442 H 0.39989 0.34166 0.64293 0.0
H443 H 0.39559 0.33888 0.60302 0.0
S444 S 0.33252 0.45749 0.62238 0.0
N445 N 0.34675 0.43827 0.64413 0.0
N446 N 0.34144 0.43486 0.60087 0.0
C447 C 0.35664 0.40993 0.61093 0.0
C448 C 0.3597 0.41189 0.63436 0.0
C449 C 0.88652 0.16057 0.87973 0.0
C450 C 0.87169 0.13659 0.8925 0.0
C451 C 0.88979 0.15724 0.85689 0.0
C452 C 0.87893 0.12953 0.84596 0.0
H453 H 0.89599 0.18202 0.88747 0.0
H454 H 0.90154 0.17635 0.8478 0.0
S455 S 0.83766 0.06002 0.87176 0.0
N456 N 0.8452 0.08454 0.89254 0.0
N457 N 0.85187 0.078 0.84949 0.0
C458 C 0.86367 0.10548 0.85845 0.0
C459 C 0.85985 0.10912 0.88175 0.0
C460 C 0.12472 0.37602 0.88286 0.0
C461 C 0.14829 0.39339 0.8944 0.0
C462 C 0.12207 0.37815 0.85994 0.0
C463 C 0.14268 0.39799 0.84757 0.0
H464 H 0.10806 0.36055 0.89159 0.0
H465 H 0.10367 0.36399 0.85186 0.0
S466 S 0.20842 0.44873 0.86978 0.0
N467 N 0.19269 0.43129 0.89176 0.0
N468 N 0.18756 0.43539 0.84849 0.0
C469 C 0.16629 0.41571 0.85884 0.0
C470 C 0.16919 0.41333 0.88228 0.0
C471 C 0.85918 0.88213 0.11033 0.0
C472 C 0.87201 0.90809 0.09841 0.0
C473 C 0.86128 0.88099 0.13339 0.0
C474 C 0.87589 0.90596 0.14542 0.0
H475 H 0.84842 0.862 0.10177 0.0
H476 H 0.85167 0.86015 0.14182 0.0
S477 S 0.91129 0.98036 0.12211 0.0
N478 N 0.89856 0.96011 0.1004 0.0
N479 N 0.90208 0.95809 0.14375 0.0
C480 C 0.88774 0.93262 0.13377 0.0
C481 C 0.88591 0.93365 0.11026 0.0
C482 C 0.35104 0.64254 0.38645 0.0
C483 C 0.37338 0.62373 0.3981 0.0
C484 C 0.35035 0.64246 0.36335 0.0
C485 C 0.37161 0.62318 0.35104 0.0
H486 H 0.33461 0.65824 0.39519 0.0
H487 H 0.33329 0.65803 0.35508 0.0
S488 S 0.43323 0.56779 0.3737 0.0
N489 N 0.41633 0.58412 0.39566 0.0
N490 N 0.41465 0.58364 0.35223 0.0
C491 C 0.39323 0.60329 0.36249 0.0
C492 C 0.39423 0.60368 0.38602 0.0
C493 C 0.6359 0.10387 0.63378 0.0
C494 C 0.65358 0.12578 0.64656 0.0
C495 C 0.63691 0.10492 0.61069 0.0
C496 C 0.65603 0.12758 0.59951 0.0
H497 H 0.62053 0.08624 0.64164 0.0
H498 H 0.62235 0.08797 0.60153 0.0
S499 S 0.70811 0.18932 0.62534 0.0
N500 N 0.69157 0.17025 0.64636 0.0
N501 N 0.69381 0.17185 0.60296 0.0
C502 C 0.67455 0.14905 0.61208 0.0
C503 C 0.6732 0.14827 0.63561 0.0
C504 C 0.89312 0.36719 0.85996 0.0
C505 C 0.87917 0.39205 0.84748 0.0
C506 C 0.88982 0.36611 0.88292 0.0
C507 C 0.87192 0.38951 0.89427 0.0
H508 H 0.90716 0.34859 0.85197 0.0
H509 H 0.90159 0.34687 0.89186 0.0
S510 S 0.82965 0.45909 0.86926 0.0
N511 N 0.84627 0.44037 0.84811 0.0
N512 N 0.83959 0.43805 0.89133 0.0
C513 C 0.85723 0.41415 0.88199 0.0
C514 C 0.86104 0.41554 0.85858 0.0
C515 C 0.3966 0.1028 0.63327 0.0
C516 C 0.37907 0.12458 0.6463 0.0
C517 C 0.39518 0.10402 0.6102 0.0
C518 C 0.3758 0.12674 0.59928 0.0
H519 H 0.41209 0.08509 0.64093 0.0
H520 H 0.40958 0.08712 0.60086 0.0
S521 S 0.32402 0.18821 0.62582 0.0
N522 N 0.34099 0.16901 0.64662 0.0
N523 N 0.33798 0.17095 0.60325 0.0
C524 C 0.35749 0.14813 0.6121 0.0
C525 C 0.35925 0.14716 0.63561 0.0
C526 C 0.63535 0.6076 0.38783 0.0
C527 C 0.65722 0.62724 0.39933 0.0
C528 C 0.63465 0.60708 0.36471 0.0
C529 C 0.65551 0.6265 0.35227 0.0
H530 H 0.61827 0.59283 0.39674 0.0
H531 H 0.61697 0.59211 0.35656 0.0
S532 S 0.71857 0.68082 0.37437 0.0
N533 N 0.70131 0.66539 0.39649 0.0
N534 N 0.69979 0.66471 0.3531 0.0
C535 C 0.6781 0.64558 0.36355 0.0
C536 C 0.67902 0.64586 0.38707 0.0
C537 C 0.16446 0.87954 0.13676 0.0
C538 C 0.14954 0.9047 0.14846 0.0
C539 C 0.16671 0.88014 0.11369 0.0
C540 C 0.15374 0.90571 0.10145 0.0
H541 H 0.1743 0.85904 0.14547 0.0
H542 H 0.17788 0.85997 0.10538 0.0
S543 S 0.11329 0.97808 0.12421 0.0
N544 N 0.12261 0.95643 0.14611 0.0
N545 N 0.12645 0.95745 0.10278 0.0
C546 C 0.13934 0.93135 0.11297 0.0
C547 C 0.13735 0.93088 0.13647 0.0
C548 C 0.85692 0.64665 0.1115 0.0
C549 C 0.87777 0.62721 0.09906 0.0
C550 C 0.8576 0.64601 0.13463 0.0
C551 C 0.8787 0.62546 0.1461 0.0
H552 H 0.84054 0.66304 0.10334 0.0
H553 H 0.84152 0.66182 0.14358 0.0
S554 S 0.93705 0.56865 0.12114 0.0
N555 N 0.91948 0.58614 0.09988 0.0
N556 N 0.92028 0.58459 0.14327 0.0
C557 C 0.89904 0.60528 0.13384 0.0
C558 C 0.8987 0.60627 0.11034 0.0
C559 C 0.17223 0.13912 0.85821 0.0
C560 C 0.15132 0.11776 0.84734 0.0
C561 C 0.17236 0.14176 0.88125 0.0
C562 C 0.15124 0.12347 0.89429 0.0
H563 H 0.18845 0.15425 0.84884 0.0
H564 H 0.18857 0.15885 0.88885 0.0
S565 S 0.09257 0.06307 0.87401 0.0
N566 N 0.10975 0.07713 0.85144 0.0
N567 N 0.10964 0.08234 0.89472 0.0
C568 C 0.13061 0.10155 0.88367 0.0
C569 C 0.13076 0.09861 0.86021 0.0
C570 C 0.64869 0.36162 0.61276 0.0
C571 C 0.66262 0.38674 0.60057 0.0
C572 C 0.64611 0.36331 0.63573 0.0
C573 C 0.65681 0.39048 0.64738 0.0
H574 H 0.63912 0.34067 0.60444 0.0
H575 H 0.63473 0.34354 0.64434 0.0
S576 S 0.6966 0.46213 0.62334 0.0
N577 N 0.68869 0.43899 0.60189 0.0
N578 N 0.68328 0.44245 0.64517 0.0
C579 C 0.67156 0.41546 0.63549 0.0
C580 C 0.67467 0.41349 0.61206 0.0
C581 C 0.39088 0.86867 0.36309 0.0
C582 C 0.37489 0.89349 0.35181 0.0
C583 C 0.38851 0.8656 0.38602 0.0
C584 C 0.36973 0.88696 0.39858 0.0
H585 H 0.4059 0.85178 0.35421 0.0
H586 H 0.40197 0.84657 0.394 0.0
S587 S 0.32146 0.95498 0.37686 0.0
N588 N 0.3385 0.9391 0.3548 0.0
N589 N 0.33383 0.93311 0.39795 0.0
C590 C 0.35274 0.91129 0.38746 0.0
C591 C 0.35543 0.91465 0.36407 0.0
C592 C 0.02886 0.63332 0.00287 0.0
C593 C 0.04618 0.6132 0.01725 0.0
C594 C 0.9951 0.63297 0.00257 0.0
C595 C 0.97767 0.61241 0.01659 0.0
H596 H 0.04133 0.65085 0.99281 0.0
H597 H 0.98266 0.65026 0.99229 0.0
S598 S 1.01199 0.55058 0.05394 0.0
N599 N 0.04363 0.569 0.04341 0.0
N600 N 0.98033 0.56812 0.04275 0.0
C601 C 0.99483 0.59021 0.02954 0.0
C602 C 0.02908 0.59067 0.02991 0.0
C603 C 0.67864 0.74956 0.28148 0.0
C604 C 0.65568 0.73134 0.26997 0.0
C605 C 0.67736 0.78313 0.28161 0.0
C606 C 0.65279 0.79977 0.27048 0.0
H607 H 0.69721 0.73778 0.29108 0.0
H608 H 0.69502 0.79602 0.2913 0.0
S609 S 0.58841 0.76337 0.23629 0.0
N610 N 0.609 0.73239 0.2458 0.0
N611 N 0.60632 0.79563 0.24628 0.0
C612 C 0.63054 0.78193 0.25803 0.0
C613 C 0.63208 0.74766 0.25769 0.0
C614 C 0.49892 0.39908 0.54566 0.0
C615 C 0.48159 0.3954 0.52592 0.0
C616 C 0.53247 0.39912 0.54584 0.0
C617 C 0.55028 0.3955 0.52628 0.0
H618 H 0.48651 0.40161 0.56129 0.0
H619 H 0.5445 0.4017 0.56158 0.0
S620 S 0.51662 0.386 0.46999 0.0
N621 N 0.48467 0.38882 0.48611 0.0
N622 N 0.54816 0.38892 0.48643 0.0
C623 C 0.53339 0.3925 0.50627 0.0
C624 C 0.49896 0.39245 0.50609 0.0
C625 C 0.91908 0.27405 0.77512 0.0
C626 C 0.89408 0.29161 0.76519 0.0
C627 C 0.91932 0.24051 0.77478 0.0
C628 C 0.89448 0.22307 0.76458 0.0
H629 H 0.93824 0.28626 0.78385 0.0
H630 H 0.93864 0.22821 0.78329 0.0
S631 S 0.82493 0.25761 0.73439 0.0
N632 N 0.84501 0.2892 0.74341 0.0
N633 N 0.84536 0.22587 0.74285 0.0
C634 C 0.87015 0.24027 0.75357 0.0
C635 C 0.86998 0.27462 0.75385 0.0
C636 C 0.9937 0.41944 0.95306 0.0
C637 C 0.97608 0.40813 0.97127 0.0
C638 C 0.02727 0.41961 0.95315 0.0
C639 C 0.04479 0.40843 0.97144 0.0
H640 H 0.98151 0.42753 0.93827 0.0
H641 H 0.03955 0.4278 0.93841 0.0
S642 S 1.01025 0.37867 0.02406 0.0
N643 N 0.97856 0.38731 0.00873 0.0
N644 N 0.04204 0.38757 0.00889 0.0
C645 C 0.02759 0.39841 0.99022 0.0
C646 C 0.99314 0.39828 0.99014 0.0
C647 C 0.86917 0.78007 0.2343 0.0
C648 C 0.89314 0.79723 0.2229 0.0
C649 C 0.86886 0.74635 0.23438 0.0
C650 C 0.89256 0.72863 0.22311 0.0
H651 H 0.84984 0.79273 0.24257 0.0
H652 H 0.84933 0.73415 0.24273 0.0
S653 S 0.96285 0.76218 0.19308 0.0
N654 N 0.94277 0.79398 0.20173 0.0
N655 N 0.94228 0.73082 0.20192 0.0
C656 C 0.91757 0.74554 0.21261 0.0
C657 C 0.91783 0.77978 0.21249 0.0
C658 C 0.49903 0.61688 0.48329 0.0
C659 C 0.48147 0.64014 0.47152 0.0
C660 C 0.53276 0.61723 0.48355 0.0
C661 C 0.55019 0.64086 0.47203 0.0
H662 H 0.48668 0.59786 0.49207 0.0
H663 H 0.54523 0.59846 0.4925 0.0
S664 S 0.51562 0.70849 0.43985 0.0
N665 N 0.48405 0.68842 0.44892 0.0
N666 N 0.54731 0.68907 0.4494 0.0
C667 C 0.53291 0.6648 0.4607 0.0
C668 C 0.4986 0.66444 0.46044 0.0
C669 C 0.66066 0.24309 0.73363 0.0
C670 C 0.63524 0.22553 0.72422 0.0
C671 C 0.66031 0.27678 0.73384 0.0
C672 C 0.63444 0.29412 0.72475 0.0
H673 H 0.68149 0.23079 0.74027 0.0
H674 H 0.68086 0.28928 0.74066 0.0
S675 S 0.56071 0.25941 0.69977 0.0
N676 N 0.58256 0.22795 0.70683 0.0
N677 N 0.58181 0.2911 0.7073 0.0
C678 C 0.60824 0.2768 0.71615 0.0
C679 C 0.60866 0.24255 0.71585 0.0
C680 C 0.36601 0.27321 0.73107 0.0
C681 C 0.39385 0.29077 0.72568 0.0
C682 C 0.36609 0.23953 0.73095 0.0
C683 C 0.39399 0.22221 0.72535 0.0
H684 H 0.34366 0.28553 0.73471 0.0
H685 H 0.34382 0.22704 0.73448 0.0
S686 S 0.47418 0.25667 0.71266 0.0
N687 N 0.45083 0.28822 0.7166 0.0
N688 N 0.4509 0.22501 0.71627 0.0
C689 C 0.42237 0.23943 0.72101 0.0
C690 C 0.42233 0.27369 0.72121 0.0
C691 C 0.10883 0.74857 0.2151 0.0
C692 C 0.13057 0.73037 0.22773 0.0
C693 C 0.1098 0.78208 0.21512 0.0
C694 C 0.13253 0.79891 0.22779 0.0
H695 H 0.0914 0.73688 0.20453 0.0
H696 H 0.09306 0.79485 0.20459 0.0
S697 S 0.19316 0.76272 0.26524 0.0
N698 N 0.17424 0.73162 0.25442 0.0
N699 N 0.17604 0.79495 0.25449 0.0
C700 C 0.15346 0.78115 0.24137 0.0
C701 C 0.15248 0.74679 0.24134 0.0
C702 C 0.14969 0.23826 0.75579 0.0
C703 C 0.14084 0.22054 0.77461 0.0
C704 C 0.14949 0.27206 0.75601 0.0
C705 C 0.14071 0.28914 0.77513 0.0
H706 H 0.15651 0.22596 0.74075 0.0
H707 H 0.15618 0.28483 0.74114 0.0
S708 S 0.11831 0.25371 0.82934 0.0
N709 N 0.12479 0.22253 0.81318 0.0
N710 N 0.12462 0.28553 0.81373 0.0
C711 C 0.13246 0.27153 0.79417 0.0
C712 C 0.13248 0.23736 0.79388 0.0
C713 C 0.39088 0.74947 0.26123 0.0
C714 C 0.36532 0.73308 0.27143 0.0
C715 C 0.39266 0.78308 0.26178 0.0
C716 C 0.36873 0.80146 0.27231 0.0
H717 H 0.41049 0.73624 0.25374 0.0
H718 H 0.41345 0.79464 0.2545 0.0
S719 S 0.29458 0.76994 0.29881 0.0
N720 N 0.31413 0.73759 0.29054 0.0
N721 N 0.31705 0.80074 0.29128 0.0
C722 C 0.34201 0.78535 0.28134 0.0
C723 C 0.34042 0.75115 0.28099 0.0
C724 C 0.49838 0.11757 0.51452 0.0
C725 C 0.48075 0.14072 0.52635 0.0
C726 C 0.5321 0.11776 0.51449 0.0
C727 C 0.54945 0.14108 0.52632 0.0
H728 H 0.48608 0.09879 0.50549 0.0
H729 H 0.54462 0.0991 0.50547 0.0
S730 S 0.5147 0.20825 0.55885 0.0
N731 N 0.48319 0.18853 0.54938 0.0
N732 N 0.54645 0.18885 0.54935 0.0
C733 C 0.53211 0.16488 0.53774 0.0
C734 C 0.4978 0.16472 0.53775 0.0
C735 C 0.99808 0.92538 0.04118 0.0
C736 C 0.98096 0.91378 0.02286 0.0
C737 C 0.03163 0.92507 0.04157 0.0
C738 C 0.04948 0.91329 0.02363 0.0
H739 H 0.98551 0.93394 0.05569 0.0
H740 H 0.04364 0.93341 0.05636 0.0
S741 S 0.0164 0.8824 0.97097 0.0
N742 N 0.98433 0.89188 0.98571 0.0
N743 N 0.04779 0.89146 0.98645 0.0
C744 C 0.03284 0.90311 0.00471 0.0
C745 C 0.99845 0.9033 0.00433 0.0
C746 C 0.49849 0.89411 0.45256 0.0
C747 C 0.48107 0.89358 0.47244 0.0
C748 C 0.532 0.8946 0.45241 0.0
C749 C 0.54975 0.89455 0.47214 0.0
H750 H 0.48619 0.89394 0.43681 0.0
H751 H 0.54404 0.89474 0.43656 0.0
S752 S 0.51587 0.89402 0.52877 0.0
N753 N 0.48399 0.89367 0.51251 0.0
N754 N 0.54749 0.89455 0.51224 0.0
C755 C 0.5328 0.89453 0.49224 0.0
C756 C 0.49835 0.89405 0.49239 0.0
C757 C 0.03035 0.16008 0.9545 0.0
C758 C 0.04743 0.14182 0.9701 0.0
C759 C 0.99678 0.16058 0.9543 0.0
C760 C 0.97874 0.143 0.96976 0.0
H761 H 0.04294 0.17369 0.94195 0.0
H762 H 0.98491 0.17462 0.94163 0.0
S763 S 1.0117 0.09269 0.01495 0.0
N764 N 0.04383 0.10663 0.00207 0.0
N765 N 0.98037 0.10776 0.00176 0.0
C766 C 0.99538 0.12537 0.98594 0.0
C767 C 0.0298 0.12471 0.98608 0.0
C768 C 0.17829 0.49074 0.00945 0.0
C769 C 0.17666 0.48498 0.98664 0.0
C770 C 0.1788 0.5222 0.01783 0.0
C771 C 0.17765 0.54919 0.00374 0.0
H772 H 0.1773 0.47089 0.021 0.0
H773 H 0.17824 0.52529 0.03555 0.0
S774 S 0.17865 0.5471 0.94259 0.0
N775 N 0.17812 0.50894 0.94999 0.0
N776 N 0.1788 0.56786 0.96578 0.0
C777 C 0.17865 0.54373 0.98089 0.0
C778 C 0.1782 0.5117 0.97233 0.0
C779 C 0.76684 0.91989 0.22308 0.0
C780 C 0.79341 0.92613 0.23689 0.0
C781 C 0.73513 0.92184 0.23091 0.0
C782 C 0.72846 0.93027 0.25289 0.0
H783 H 0.77051 0.91203 0.20624 0.0
H784 H 0.71577 0.91516 0.21986 0.0
S785 S 0.7891 0.95284 0.29517 0.0
N786 N 0.81072 0.94397 0.27313 0.0
N787 N 0.75115 0.94789 0.28788 0.0
C788 C 0.75467 0.93876 0.2665 0.0
C789 C 0.7871 0.93661 0.25851 0.0
C790 C 0.34924 0.487 0.48714 0.0
C791 C 0.35309 0.48049 0.50973 0.0
C792 C 0.34843 0.51876 0.47923 0.0
C793 C 0.35132 0.54527 0.49361 0.0
H794 H 0.34865 0.46749 0.47533 0.0
H795 H 0.34717 0.52247 0.46157 0.0
S796 S 0.35649 0.54109 0.55464 0.0
N797 N 0.35584 0.50319 0.54666 0.0
N798 N 0.35431 0.56263 0.53182 0.0
C799 C 0.35272 0.53903 0.51638 0.0
C800 C 0.35363 0.50673 0.52442 0.0
C801 C 0.79093 0.09439 0.73291 0.0
C802 C 0.79805 0.09506 0.75557 0.0
C803 C 0.75895 0.09424 0.72536 0.0
C804 C 0.73272 0.09484 0.74016 0.0
H805 H 0.81015 0.09562 0.72084 0.0
H806 H 0.75483 0.0953 0.70775 0.0
S807 S 0.7383 0.092 0.8012 0.0
N808 N 0.77608 0.09265 0.79279 0.0
N809 N 0.71622 0.09267 0.77858 0.0
C810 C 0.73952 0.09329 0.76284 0.0
C811 C 0.77207 0.09333 0.77055 0.0
C812 C 0.83933 0.52351 0.01558 0.0
C813 C 0.84263 0.55023 0.00143 0.0
C814 C 0.84016 0.4919 0.00742 0.0
C815 C 0.84418 0.48579 0.98477 0.0
H816 H 0.83821 0.52687 0.03328 0.0
H817 H 0.83958 0.47219 0.01908 0.0
S818 S 0.84775 0.54734 0.94039 0.0
N819 N 0.84569 0.5684 0.96342 0.0
N820 N 0.84683 0.50928 0.94801 0.0
C821 C 0.84458 0.51234 0.97029 0.0
C822 C 0.84391 0.54446 0.97862 0.0
C823 C 0.26035 0.09013 0.76859 0.0
C824 C 0.2342 0.08925 0.75377 0.0
C825 C 0.29234 0.09029 0.76108 0.0
C826 C 0.2996 0.08922 0.73843 0.0
H827 H 0.25615 0.09247 0.78614 0.0
H828 H 0.31145 0.09277 0.77311 0.0
S829 S 0.24008 0.08211 0.69293 0.0
N830 N 0.21789 0.08409 0.71549 0.0
N831 N 0.27782 0.08381 0.70132 0.0
C832 C 0.27373 0.08593 0.72351 0.0
C833 C 0.24112 0.08611 0.73119 0.0
C834 C 0.67033 0.50848 0.52439 0.0
C835 C 0.67742 0.48226 0.5105 0.0
C836 C 0.67183 0.54026 0.51675 0.0
C837 C 0.68034 0.54725 0.49483 0.0
H838 H 0.6623 0.50444 0.54117 0.0
H839 H 0.66463 0.55934 0.52785 0.0
S840 S 0.70498 0.48762 0.45243 0.0
N841 N 0.69624 0.46566 0.47432 0.0
N842 N 0.69902 0.52532 0.45985 0.0
C843 C 0.68955 0.5214 0.48113 0.0
C844 C 0.68811 0.48895 0.48899 0.0
C845 C 0.25867 0.92244 0.22514 0.0
C846 C 0.23228 0.92833 0.23923 0.0
C847 C 0.29049 0.92456 0.23269 0.0
C848 C 0.29746 0.93279 0.25466 0.0
H849 H 0.25478 0.91468 0.20831 0.0
H850 H 0.30972 0.91809 0.22145 0.0
S851 S 0.23735 0.95454 0.29757 0.0
N852 N 0.21544 0.94572 0.27569 0.0
N853 N 0.27521 0.94995 0.28992 0.0
C854 C 0.27141 0.94101 0.26853 0.0
C855 C 0.23887 0.9387 0.26081 0.0
C856 C 0.68364 0.021 0.51718 0.0
C857 C 0.6792 0.04752 0.50298 0.0
C858 C 0.68262 0.98924 0.50926 0.0
C859 C 0.67696 0.98274 0.48684 0.0
H860 H 0.68638 0.02468 0.53476 0.0
H861 H 0.68455 0.9697 0.52099 0.0
S862 S 0.66867 0.04347 0.44226 0.0
N863 N 0.67256 0.06495 0.46498 0.0
N864 N 0.67059 1.00556 0.45014 0.0
C865 C 0.67471 1.00904 0.47226 0.0
C866 C 0.67587 0.04132 0.4803 0.0
C867 C 0.24025 0.41908 0.73507 0.0
C868 C 0.23361 0.41474 0.75761 0.0
C869 C 0.27209 0.42014 0.72723 0.0
C870 C 0.29859 0.41707 0.74163 0.0
H871 H 0.22077 0.42006 0.72323 0.0
H872 H 0.27587 0.42194 0.7096 0.0
S873 S 0.29415 0.41014 0.80258 0.0
N874 N 0.25623 0.41096 0.79455 0.0
N875 N 0.31582 0.41299 0.77983 0.0
C876 C 0.29224 0.41497 0.76437 0.0
C877 C 0.25985 0.41377 0.77234 0.0
C878 C 0.86106 0.99043 0.97742 0.0
C879 C 0.84859 0.98353 -0.00153 0.0
C880 C 0.86313 0.02208 0.96962 0.0
C881 C 0.85271 0.04833 0.98245 0.0
H882 H 0.87095 0.9714 0.96728 0.0
H883 H 0.87421 0.02604 0.95367 0.0
S884 S 0.81431 0.04316 0.03758 0.0
N885 N 0.82271 1.00551 0.03119 0.0
N886 N 0.82653 0.06498 0.01642 0.0
C887 C 0.83807 0.04168 0.00286 0.0
C888 C 0.83602 1.00932 0.01089 0.0
C889 C 0.28637 0.61443 0.23039 0.0
C890 C 0.29347 0.60173 0.25134 0.0
C891 C 0.25461 0.61628 0.22267 0.0
C892 C 0.22847 0.60543 0.2355 0.0
H893 H 0.30529 0.62469 0.22031 0.0
H894 H 0.25046 0.62756 0.20683 0.0
S895 S 0.23432 0.56601 0.29023 0.0
N896 N 0.27188 0.57498 0.28385 0.0
N897 N 0.21224 0.57845 0.26926 0.0
C898 C 0.23538 0.59055 0.25578 0.0
C899 C 0.26782 0.58869 0.2637 0.0
C900 C 0.35928 0.03885 0.48212 0.0
C901 C 0.35062 0.04603 0.50399 0.0
C902 C 0.36092 1.00702 0.4746 0.0
C903 C 0.35384 0.98088 0.48858 0.0
H904 H 0.36643 0.05786 0.47093 0.0
H905 H 0.36901 1.00288 0.45786 0.0
S906 S 0.32619 0.98665 0.54662 0.0
N907 N 0.33201 0.02432 0.53905 0.0
N908 N 0.33503 0.96454 0.52483 0.0
C909 C 0.34309 0.98773 0.51006 0.0
C910 C 0.3415 0.02026 0.51778 0.0
C911 C 0.75474 0.59329 0.26824 0.0
C912 C 0.72805 0.5968 0.25407 0.0
C913 C 0.78642 0.59396 0.26011 0.0
C914 C 0.7927 0.59778 0.23746 0.0
H915 H 0.75129 0.59208 0.28593 0.0
H916 H 0.8061 0.59306 0.2718 0.0
S917 S 0.73115 0.60261 0.19308 0.0
N918 N 0.70999 0.60055 0.21609 0.0
N919 N 0.76925 0.60112 0.2007 0.0
C920 C 0.76614 0.59862 0.22295 0.0
C921 C 0.73392 0.59831 0.23128 0.0
C922 C 0.1811 0.99099 0.98256 0.0
C923 C 0.18422 0.9849 0.00527 0.0
C924 C 0.18017 0.0225 0.97433 0.0
C925 C 0.18187 0.04935 0.98848 0.0
H926 H 0.17777 0.9713 0.97111 0.0
H927 H 0.17625 0.02574 0.95681 0.0
S928 S 0.1942 0.04662 0.04902 0.0
N929 N 0.19242 1.00852 0.04159 0.0
N930 N 0.19004 0.06763 0.02609 0.0
C931 C 0.18714 0.04364 0.01103 0.0
C932 C 0.1885 1.01148 0.01943 0.0
C933 C 0.76896 0.40924 0.77166 0.0
C934 C 0.79508 0.41712 0.75782 0.0
C935 C 0.73705 0.41117 0.76423 0.0
C936 C 0.7298 0.42095 0.7426 0.0
H937 H 0.77317 0.4003 0.78818 0.0
H938 H 0.71806 0.40338 0.77525 0.0
S939 S 0.78906 0.44788 0.70055 0.0
N940 N 0.81129 0.43792 0.72206 0.0
N941 N 0.75138 0.44152 0.70802 0.0
C942 C 0.75554 0.43086 0.72901 0.0
C943 C 0.78813 0.42896 0.73664 0.0
C944 C 0.13485 0.78461 0.01121 0.0
C945 C 0.16168 0.80163 0.01918 0.0
C946 C 0.13433 0.75099 0.01068 0.0
C947 C 0.16055 0.73256 0.01819 0.0
H948 H 0.11345 0.79734 0.00595 0.0
H949 H 0.11251 0.73938 0.00506 0.0
S950 S 0.23798 0.76519 0.0388 0.0
N951 N 0.21627 0.79747 0.03326 0.0
N952 N 0.21523 0.73403 0.0324 0.0
C953 C 0.1883 0.74916 0.02513 0.0
C954 C 0.18888 0.7837 0.02558 0.0
C955 C 0.52981 0.91636 0.25519 0.0
C956 C 0.54761 0.92974 0.27271 0.0
C957 C 0.49592 0.91644 0.25527 0.0
C958 C 0.47829 0.92995 0.27285 0.0
H959 H 0.54208 0.9042 0.24182 0.0
H960 H 0.48351 0.90436 0.24195 0.0
S961 S 0.51323 0.97185 0.32132 0.0
N962 N 0.54483 0.95973 0.30706 0.0
N963 N 0.48147 0.95995 0.30719 0.0
C964 C 0.49579 0.94535 0.2897 0.0
C965 C 0.5303 0.94522 0.28964 0.0
C966 C 0.33322 0.24475 0.52633 0.0
C967 C 0.35279 0.22698 0.51177 0.0
C968 C 0.33358 0.27857 0.52638 0.0
C969 C 0.3536 0.29598 0.51192 0.0
H970 H 0.31904 0.23252 0.53875 0.0
H971 H 0.31969 0.29103 0.53885 0.0
S972 S 0.40507 0.26112 0.46794 0.0
N973 N 0.38939 0.22961 0.4805 0.0
N974 N 0.39018 0.29286 0.48069 0.0
C975 C 0.37114 0.27855 0.49605 0.0
C976 C 0.3707 0.24417 0.49595 0.0
C977 C 0.99951 0.10731 0.74709 0.0
C978 C 0.98194 0.09028 0.76318 0.0
C979 C 0.03334 0.10763 0.74712 0.0
C980 C 0.05117 0.0907 0.7631 0.0
H981 H 0.9871 0.12219 0.73516 0.0
H982 H 0.04556 0.12266 0.73517 0.0
S983 S 0.01696 0.0386 0.80697 0.0
N984 N 0.98514 0.05327 0.79415 0.0
N985 N 0.04854 0.0536 0.79405 0.0
C986 C 0.03397 0.07149 0.77819 0.0
C987 C 0.99945 0.07135 0.77827 0.0
C988 C 0.15336 0.24874 0.99201 0.0
C989 C 0.17345 0.23164 0.97742 0.0
C990 C 0.15228 0.28246 0.99196 0.0
C991 C 0.1714 0.30071 0.97744 0.0
H992 H 0.13696 0.236 0.0028 0.0
H993 H 0.13516 0.29426 0.00274 0.0
S994 S 0.23118 0.26793 0.93785 0.0
N995 N 0.21523 0.23577 0.94947 0.0
N996 N 0.21338 0.29909 0.94951 0.0
C997 C 0.19333 0.28405 0.96389 0.0
C998 C 0.1943 0.24958 0.96384 0.0
C999 C 0.99516 0.90854 0.24594 0.0
C1000 C 0.97779 0.92667 0.23032 0.0
C1001 C 0.029 0.90886 0.24647 0.0
C1002 C 0.04703 0.92733 0.2314 0.0
H1003 H 0.98262 0.89253 0.2571 0.0
H1004 H 0.04108 0.89307 0.258 0.0
S1005 S 1.01325 0.98268 0.18927 0.0
N1006 N 0.98132 0.9664 0.201 0.0
N1007 N 0.04469 0.967 0.20198 0.0
C1008 C 0.02994 0.94745 0.21682 0.0
C1009 C 0.99544 0.94712 0.21628 0.0
C1010 C 0.33415 0.74428 0.46999 0.0
C1011 C 0.35343 0.7264 0.48466 0.0
C1012 C 0.33414 0.7781 0.47026 0.0
C1013 C 0.3535 0.79544 0.48516 0.0
H1014 H 0.32042 0.73218 0.45731 0.0
H1015 H 0.32045 0.79066 0.45774 0.0
S1016 S 0.40412 0.76017 0.52943 0.0
N1017 N 0.38914 0.72876 0.51639 0.0
N1018 N 0.38924 0.79202 0.5168 0.0
C1019 C 0.37079 0.77784 0.50107 0.0
C1020 C 0.37072 0.74345 0.50085 0.0
C1021 C 0.49979 0.07661 0.71551 0.0
C1022 C 0.48176 0.0934 0.73148 0.0
C1023 C 0.53364 0.07717 0.71553 0.0
C1024 C 0.55095 0.09459 0.73152 0.0
H1025 H 0.48771 0.06445 0.70207 0.0
H1026 H 0.54621 0.06544 0.70211 0.0
S1027 S 0.51545 0.13847 0.779 0.0
N1028 N 0.48404 0.12476 0.76528 0.0
N1029 N 0.5474 0.12585 0.76531 0.0
C1030 C 0.53329 0.10931 0.7486 0.0
C1031 C 0.49881 0.1087 0.74859 0.0
C1032 C 0.86835 0.28379 0.99374 0.0
C1033 C 0.84882 0.30176 0.9793 0.0
C1034 C 0.8678 0.25006 0.99379 0.0
C1035 C 0.84785 0.23271 0.97929 0.0
H1036 H 0.88554 0.29582 0.00431 0.0
H1037 H 0.88468 0.23755 0.00435 0.0
S1038 S 0.78857 0.26819 0.94047 0.0
N1039 N 0.80616 0.29958 0.95192 0.0
N1040 N 0.80528 0.23626 0.95189 0.0
C1041 C 0.82631 0.25036 0.96603 0.0
C1042 C 0.82676 0.28482 0.96606 0.0
C1043 C 0.65877 0.77999 0.49883 0.0
C1044 C 0.67873 0.79752 0.48441 0.0
C1045 C 0.65898 0.74625 0.49911 0.0
C1046 C 0.67911 0.72848 0.48494 0.0
H1047 H 0.64146 0.79234 0.50916 0.0
H1048 H 0.6418 0.73406 0.50962 0.0
S1049 S 0.73941 0.7627 0.44631 0.0
N1050 N 0.72188 0.79445 0.45738 0.0
N1051 N 0.72223 0.73114 0.45786 0.0
C1052 C 0.70107 0.74568 0.47173 0.0
C1053 C 0.70089 0.78014 0.47148 0.0
C1054 C 0.89948 0.74987 0.01753 0.0
C1055 C 0.87088 0.73218 0.02008 0.0
C1056 C 0.89948 0.78347 0.01727 0.0
C1057 C 0.87087 0.80128 0.01956 0.0
H1058 H 0.92244 0.73767 0.01621 0.0
H1059 H 0.92244 0.79557 0.01578 0.0
S1060 S 0.78894 0.76686 0.02527 0.0
N1061 N 0.8127 0.73508 0.02378 0.0
N1062 N 0.81269 0.79857 0.02334 0.0
C1063 C 0.84179 0.78406 0.02122 0.0
C1064 C 0.84179 0.74949 0.02147 0.0
C1065 C 0.65835 0.27987 0.49972 0.0
C1066 C 0.67847 0.29734 0.51403 0.0
C1067 C 0.6583 0.24613 0.49957 0.0
C1068 C 0.67835 0.22829 0.51375 0.0
H1069 H 0.64111 0.29229 0.48937 0.0
H1070 H 0.64103 0.234 0.48912 0.0
S1071 S 0.73886 0.2623 0.55223 0.0
N1072 N 0.72158 0.29411 0.54105 0.0
N1073 N 0.72146 0.2308 0.5408 0.0
C1074 C 0.70043 0.24541 0.52688 0.0
C1075 C 0.70051 0.27987 0.52701 0.0
C1076 C 0.99677 0.40481 0.74656 0.0
C1077 C 0.9795 0.42309 0.76215 0.0
C1078 C 0.03059 0.40432 0.74639 0.0
C1079 C 0.04867 0.42224 0.76169 0.0
H1080 H 0.98416 0.38905 0.7353 0.0
H1081 H 0.04257 0.38824 0.73499 0.0
S1082 S 0.01523 0.47836 0.80345 0.0
N1083 N 0.9832 0.46275 0.79146 0.0
N1084 N 0.0466 0.46205 0.79102 0.0
C1085 C 0.03175 0.44287 0.77603 0.0
C1086 C 0.99725 0.44322 0.77629 0.0
C1087 C 0.49431 0.65264 0.27707 0.0
C1088 C 0.47637 0.62419 0.27478 0.0
C1089 C 0.52789 0.65234 0.27757 0.0
C1090 C 0.54551 0.62359 0.2758 0.0
H1091 H 0.48232 0.6756 0.27889 0.0
H1092 H 0.54011 0.67511 0.27973 0.0
S1093 S 0.51053 0.54237 0.26824 0.0
N1094 N 0.47884 0.5663 0.26972 0.0
N1095 N 0.54246 0.56576 0.27063 0.0
C1096 C 0.52812 0.59491 0.27268 0.0
C1097 C 0.49349 0.5952 0.27218 0.0
C1098 C 0.49674 0.44051 0.71122 0.0
C1099 C 0.47919 0.42667 0.72869 0.0
C1100 C 0.53057 0.44111 0.71133 0.0
C1101 C 0.54837 0.42793 0.72892 0.0
H1102 H 0.48438 0.44918 0.69666 0.0
H1103 H 0.54282 0.45023 0.69684 0.0
S1104 S 0.51402 0.39377 0.78039 0.0
N1105 N 0.48225 0.4032 0.76538 0.0
N1106 N 0.54563 0.40436 0.76558 0.0
C1107 C 0.5311 0.4166 0.74735 0.0
C1108 C 0.4966 0.41596 0.74723 0.0
C1109 C 0.9928 0.61442 0.24764 0.0
C1110 C 0.97516 0.5968 0.23193 0.0
C1111 C 0.02662 0.61437 0.24767 0.0
C1112 C 0.04431 0.59677 0.23194 0.0
H1113 H 0.98047 0.63001 0.25919 0.0
H1114 H 0.03889 0.62995 0.25922 0.0
S1115 S 1.00982 0.54234 0.18961 0.0
N1116 N 0.9781 0.55792 0.20206 0.0
N1117 N 0.04149 0.55792 0.20206 0.0
C1118 C 0.02701 0.57681 0.21742 0.0
C1119 C 0.99252 0.5768 0.21742 0.0
loop_
_geom_bond_atom_site_label_1
_geom_bond_atom_site_label_2
_geom_bond_distance
_geom_bond_site_symmetry_2
_ccdc_geom_bond_type
In0 O1 2.294 . S
In0 O2 2.326 . S
In0 O6 2.266 . S
In0 O7 2.326 . S
In0 O8 2.266 . S
In0 O9 2.326 . S
In0 O11 2.294 . S
In0 O12 2.326 . S
O1 In0 2.294 . S
O1 C10 1.240 . S
O2 In0 2.326 . S
O2 C10 1.252 . S
C3 O6 1.252 . S
C3 O7 1.260 . S
C4 O11 1.240 . S
C4 O12 1.252 . S
C5 O8 1.252 . S
C5 O9 1.260 . S
O6 In0 2.266 . S
O6 C3 1.252 . S
O7 In0 2.326 . S
O7 C3 1.260 . S
O8 In0 2.266 . S
O8 C5 1.252 . S
O9 In0 2.326 . S
O9 C5 1.260 . S
C10 O1 1.240 . S
C10 O2 1.252 . S
O11 In0 2.294 . S
O11 C4 1.240 . S
O12 In0 2.326 . S
O12 C4 1.252 . S
In13 O14 2.294 . S
In13 O15 2.326 . S
In13 O19 2.266 . S
In13 O20 2.326 . S
In13 O21 2.266 . S
In13 O22 2.326 . S
In13 O24 2.294 . S
In13 O25 2.326 . S
O14 In13 2.294 . S
O14 C23 1.240 . S
O15 In13 2.326 . S
O15 C23 1.252 . S
C16 O19 1.252 . S
C16 O20 1.260 . S
C17 O24 1.240 . S
C17 O25 1.252 . S
C18 O21 1.252 . S
C18 O22 1.260 . S
O19 In13 2.266 . S
O19 C16 1.252 . S
O20 In13 2.326 . S
O20 C16 1.260 . S
O21 In13 2.266 . S
O21 C18 1.252 . S
O22 In13 2.326 . S
O22 C18 1.260 . S
C23 O14 1.240 . S
C23 O15 1.252 . S
O24 In13 2.294 . S
O24 C17 1.240 . S
O25 In13 2.326 . S
O25 C17 1.252 . S
In26 O27 2.294 . S
In26 O28 2.326 . S
In26 O32 2.266 . S
In26 O33 2.326 . S
In26 O34 2.266 . S
In26 O35 2.326 . S
In26 O37 2.294 . S
In26 O38 2.326 . S
O27 In26 2.294 . S
O27 C36 1.240 . S
O28 In26 2.326 . S
O28 C36 1.252 . S
C29 O32 1.252 . S
C29 O33 1.260 . S
C30 O37 1.240 . S
C30 O38 1.252 . S
C31 O34 1.252 . S
C31 O35 1.260 . S
O32 In26 2.266 . S
O32 C29 1.252 . S
O33 In26 2.326 . S
O33 C29 1.260 . S
O34 In26 2.266 . S
O34 C31 1.252 . S
O35 In26 2.326 . S
O35 C31 1.260 . S
C36 O27 1.240 . S
C36 O28 1.252 . S
O37 In26 2.294 . S
O37 C30 1.240 . S
O38 In26 2.326 . S
O38 C30 1.252 . S
In39 O40 2.294 . S
In39 O41 2.326 . S
In39 O45 2.266 . S
In39 O46 2.326 . S
In39 O47 2.266 . S
In39 O48 2.326 . S
In39 O50 2.294 . S
In39 O51 2.326 . S
O40 In39 2.294 . S
O40 C49 1.240 . S
O41 In39 2.326 . S
O41 C49 1.252 . S
C42 O45 1.252 . S
C42 O46 1.260 . S
C43 O50 1.240 . S
C43 O51 1.252 . S
C44 O47 1.252 . S
C44 O48 1.260 . S
O45 In39 2.266 . S
O45 C42 1.252 . S
O46 In39 2.326 . S
O46 C42 1.260 . S
O47 In39 2.266 . S
O47 C44 1.252 . S
O48 In39 2.326 . S
O48 C44 1.260 . S
C49 O40 1.240 . S
C49 O41 1.252 . S
O50 In39 2.294 . S
O50 C43 1.240 . S
O51 In39 2.326 . S
O51 C43 1.252 . S
In52 O53 2.294 . S
In52 O54 2.326 . S
In52 O58 2.266 . S
In52 O59 2.326 . S
In52 O60 2.266 . S
In52 O61 2.326 . S
In52 O63 2.294 . S
In52 O64 2.326 . S
O53 In52 2.294 . S
O53 C62 1.240 . S
O54 In52 2.326 . S
O54 C62 1.252 . S
C55 O58 1.252 . S
C55 O59 1.260 . S
C56 O63 1.240 . S
C56 O64 1.252 . S
C57 O60 1.252 . S
C57 O61 1.260 . S
O58 In52 2.266 . S
O58 C55 1.252 . S
O59 In52 2.326 . S
O59 C55 1.260 . S
O60 In52 2.266 . S
O60 C57 1.252 . S
O61 In52 2.326 . S
O61 C57 1.260 . S
C62 O53 1.240 . S
C62 O54 1.252 . S
O63 In52 2.294 . S
O63 C56 1.240 . S
O64 In52 2.326 . S
O64 C56 1.252 . S
In65 O66 2.294 . S
In65 O67 2.326 . S
In65 O71 2.266 . S
In65 O72 2.326 . S
In65 O73 2.266 . S
In65 O74 2.326 . S
In65 O76 2.294 . S
In65 O77 2.326 . S
O66 In65 2.294 . S
O66 C75 1.240 . S
O67 In65 2.326 . S
O67 C75 1.252 . S
C68 O71 1.252 . S
C68 O72 1.260 . S
C69 O76 1.240 . S
C69 O77 1.252 . S
C70 O73 1.252 . S
C70 O74 1.260 . S
O71 In65 2.266 . S
O71 C68 1.252 . S
O72 In65 2.326 . S
O72 C68 1.260 . S
O73 In65 2.266 . S
O73 C70 1.252 . S
O74 In65 2.326 . S
O74 C70 1.260 . S
C75 O66 1.240 . S
C75 O67 1.252 . S
O76 In65 2.294 . S
O76 C69 1.240 . S
O77 In65 2.326 . S
O77 C69 1.252 . S
In78 O79 2.294 . S
In78 O80 2.326 . S
In78 O84 2.266 . S
In78 O85 2.326 . S
In78 O86 2.266 . S
In78 O87 2.326 . S
In78 O89 2.294 . S
In78 O90 2.326 . S
O79 In78 2.294 . S
O79 C88 1.240 . S
O80 In78 2.326 . S
O80 C88 1.252 . S
C81 O84 1.252 . S
C81 O85 1.260 . S
C82 O89 1.240 . S
C82 O90 1.252 . S
C83 O86 1.252 . S
C83 O87 1.260 . S
O84 In78 2.266 . S
O84 C81 1.252 . S
O85 In78 2.326 . S
O85 C81 1.260 . S
O86 In78 2.266 . S
O86 C83 1.252 . S
O87 In78 2.326 . S
O87 C83 1.260 . S
C88 O79 1.240 . S
C88 O80 1.252 . S
O89 In78 2.294 . S
O89 C82 1.240 . S
O90 In78 2.326 . S
O90 C82 1.252 . S
In91 O92 2.294 . S
In91 O93 2.326 . S
In91 O97 2.266 . S
In91 O98 2.326 . S
In91 O99 2.266 . S
In91 O100 2.326 . S
In91 O102 2.294 . S
In91 O103 2.326 . S
O92 In91 2.294 . S
O92 C101 1.240 . S
O93 In91 2.326 . S
O93 C101 1.252 . S
C94 O97 1.252 . S
C94 O98 1.260 . S
C95 O102 1.240 . S
C95 O103 1.252 . S
C96 O99 1.252 . S
C96 O100 1.260 . S
O97 In91 2.266 . S
O97 C94 1.252 . S
O98 In91 2.326 . S
O98 C94 1.260 . S
O99 In91 2.266 . S
O99 C96 1.252 . S
O100 In91 2.326 . S
O100 C96 1.260 . S
C101 O92 1.240 . S
C101 O93 1.252 . S
O102 In91 2.294 . S
O102 C95 1.240 . S
O103 In91 2.326 . S
O103 C95 1.252 . S
In104 O105 2.294 . S
In104 O106 2.326 . S
In104 O110 2.266 . S
In104 O111 2.326 . S
In104 O112 2.266 . S
In104 O113 2.326 . S
In104 O115 2.294 . S
In104 O116 2.326 . S
O105 In104 2.294 . S
O105 C114 1.240 . S
O106 In104 2.326 . S
O106 C114 1.252 . S
C107 O110 1.252 . S
C107 O111 1.260 . S
C108 O115 1.240 . S
C108 O116 1.252 . S
C109 O112 1.252 . S
C109 O113 1.260 . S
O110 In104 2.266 . S
O110 C107 1.252 . S
O111 In104 2.326 . S
O111 C107 1.260 . S
O112 In104 2.266 . S
O112 C109 1.252 . S
O113 In104 2.326 . S
O113 C109 1.260 . S
C114 O105 1.240 . S
C114 O106 1.252 . S
O115 In104 2.294 . S
O115 C108 1.240 . S
O116 In104 2.326 . S
O116 C108 1.252 . S
In117 O118 2.294 . S
In117 O119 2.326 . S
In117 O123 2.266 . S
In117 O124 2.326 . S
In117 O125 2.266 . S
In117 O126 2.326 . S
In117 O128 2.294 . S
In117 O129 2.326 . S
O118 In117 2.294 . S
O118 C127 1.240 . S
O119 In117 2.326 . S
O119 C127 1.252 . S
C120 O123 1.252 . S
C120 O124 1.260 . S
C121 O128 1.240 . S
C121 O129 1.252 . S
C122 O125 1.252 . S
C122 O126 1.260 . S
O123 In117 2.266 . S
O123 C120 1.252 . S
O124 In117 2.326 . S
O124 C120 1.260 . S
O125 In117 2.266 . S
O125 C122 1.252 . S
O126 In117 2.326 . S
O126 C122 1.260 . S
C127 O118 1.240 . S
C127 O119 1.252 . S
O128 In117 2.294 . S
O128 C121 1.240 . S
O129 In117 2.326 . S
O129 C121 1.252 . S
In130 O131 2.294 . S
In130 O132 2.326 . S
In130 O136 2.266 . S
In130 O137 2.326 . S
In130 O138 2.266 . S
In130 O139 2.326 . S
In130 O141 2.294 . S
In130 O142 2.326 . S
O131 In130 2.294 . S
O131 C140 1.240 . S
O132 In130 2.326 . S
O132 C140 1.252 . S
C133 O136 1.252 . S
C133 O137 1.260 . S
C134 O141 1.240 . S
C134 O142 1.252 . S
C135 O138 1.252 . S
C135 O139 1.260 . S
O136 In130 2.266 . S
O136 C133 1.252 . S
O137 In130 2.326 . S
O137 C133 1.260 . S
O138 In130 2.266 . S
O138 C135 1.252 . S
O139 In130 2.326 . S
O139 C135 1.260 . S
C140 O131 1.240 . S
C140 O132 1.252 . S
O141 In130 2.294 . S
O141 C134 1.240 . S
O142 In130 2.326 . S
O142 C134 1.252 . S
In143 O144 2.294 . S
In143 O145 2.326 . S
In143 O149 2.266 . S
In143 O150 2.326 . S
In143 O151 2.266 . S
In143 O152 2.326 . S
In143 O154 2.294 . S
In143 O155 2.326 . S
O144 In143 2.294 . S
O144 C153 1.240 . S
O145 In143 2.326 . S
O145 C153 1.252 . S
C146 O149 1.252 . S
C146 O150 1.260 . S
C147 O154 1.240 . S
C147 O155 1.252 . S
C148 O151 1.252 . S
C148 O152 1.260 . S
O149 In143 2.266 . S
O149 C146 1.252 . S
O150 In143 2.326 . S
O150 C146 1.260 . S
O151 In143 2.266 . S
O151 C148 1.252 . S
O152 In143 2.326 . S
O152 C148 1.260 . S
C153 O144 1.240 . S
C153 O145 1.252 . S
O154 In143 2.294 . S
O154 C147 1.240 . S
O155 In143 2.326 . S
O155 C147 1.252 . S
In156 O157 2.294 . S
In156 O158 2.326 . S
In156 O162 2.266 . S
In156 O163 2.326 . S
In156 O164 2.266 . S
In156 O165 2.326 . S
In156 O167 2.294 . S
In156 O168 2.326 . S
O157 In156 2.294 . S
O157 C166 1.240 . S
O158 In156 2.326 . S
O158 C166 1.252 . S
C159 O162 1.252 . S
C159 O163 1.260 . S
C160 O167 1.240 . S
C160 O168 1.252 . S
C161 O164 1.252 . S
C161 O165 1.260 . S
O162 In156 2.266 . S
O162 C159 1.252 . S
O163 In156 2.326 . S
O163 C159 1.260 . S
O164 In156 2.266 . S
O164 C161 1.252 . S
O165 In156 2.326 . S
O165 C161 1.260 . S
C166 O157 1.240 . S
C166 O158 1.252 . S
O167 In156 2.294 . S
O167 C160 1.240 . S
O168 In156 2.326 . S
O168 C160 1.252 . S
In169 O170 2.294 . S
In169 O171 2.326 . S
In169 O175 2.266 . S
In169 O176 2.326 . S
In169 O177 2.266 . S
In169 O178 2.326 . S
In169 O180 2.294 . S
In169 O181 2.326 . S
O170 In169 2.294 . S
O170 C179 1.240 . S
O171 In169 2.326 . S
O171 C179 1.252 . S
C172 O175 1.252 . S
C172 O176 1.260 . S
C173 O180 1.240 . S
C173 O181 1.252 . S
C174 O177 1.252 . S
C174 O178 1.260 . S
O175 In169 2.266 . S
O175 C172 1.252 . S
O176 In169 2.326 . S
O176 C172 1.260 . S
O177 In169 2.266 . S
O177 C174 1.252 . S
O178 In169 2.326 . S
O178 C174 1.260 . S
C179 O170 1.240 . S
C179 O171 1.252 . S
O180 In169 2.294 . S
O180 C173 1.240 . S
O181 In169 2.326 . S
O181 C173 1.252 . S
In182 O183 2.294 . S
In182 O184 2.326 . S
In182 O188 2.266 . S
In182 O189 2.326 . S
In182 O190 2.266 . S
In182 O191 2.326 . S
In182 O193 2.294 . S
In182 O194 2.326 . S
O183 In182 2.294 . S
O183 C192 1.240 . S
O184 In182 2.326 . S
O184 C192 1.252 . S
C185 O188 1.252 . S
C185 O189 1.260 . S
C186 O193 1.240 . S
C186 O194 1.252 . S
C187 O190 1.252 . S
C187 O191 1.260 . S
O188 In182 2.266 . S
O188 C185 1.252 . S
O189 In182 2.326 . S
O189 C185 1.260 . S
O190 In182 2.266 . S
O190 C187 1.252 . S
O191 In182 2.326 . S
O191 C187 1.260 . S
C192 O183 1.240 . S
C192 O184 1.252 . S
O193 In182 2.294 . S
O193 C186 1.240 . S
O194 In182 2.326 . S
O194 C186 1.252 . S
In195 O196 2.294 . S
In195 O197 2.326 . S
In195 O201 2.266 . S
In195 O202 2.326 . S
In195 O203 2.266 . S
In195 O204 2.326 . S
In195 O206 2.294 . S
In195 O207 2.326 . S
O196 In195 2.294 . S
O196 C205 1.240 . S
O197 In195 2.326 . S
O197 C205 1.252 . S
C198 O201 1.252 . S
C198 O202 1.260 . S
C199 O206 1.240 . S
C199 O207 1.252 . S
C200 O203 1.252 . S
C200 O204 1.260 . S
O201 In195 2.266 . S
O201 C198 1.252 . S
O202 In195 2.326 . S
O202 C198 1.260 . S
O203 In195 2.266 . S
O203 C200 1.252 . S
O204 In195 2.326 . S
O204 C200 1.260 . S
C205 O196 1.240 . S
C205 O197 1.252 . S
O206 In195 2.294 . S
O206 C199 1.240 . S
O207 In195 2.326 . S
O207 C199 1.252 . S
In208 O209 2.294 . S
In208 O210 2.326 . S
In208 O214 2.266 . S
In208 O215 2.326 . S
In208 O216 2.266 . S
In208 O217 2.326 . S
In208 O219 2.294 . S
In208 O220 2.326 . S
O209 In208 2.294 . S
O209 C218 1.240 . S
O210 In208 2.326 . S
O210 C218 1.252 . S
C211 O214 1.252 . S
C211 O215 1.260 . S
C212 O219 1.240 . S
C212 O220 1.252 . S
C213 O216 1.252 . S
C213 O217 1.260 . S
O214 In208 2.266 . S
O214 C211 1.252 . S
O215 In208 2.326 . S
O215 C211 1.260 . S
O216 In208 2.266 . S
O216 C213 1.252 . S
O217 In208 2.326 . S
O217 C213 1.260 . S
C218 O209 1.240 . S
C218 O210 1.252 . S
O219 In208 2.294 . S
O219 C212 1.240 . S
O220 In208 2.326 . S
O220 C212 1.252 . S
In221 O222 2.294 . S
In221 O223 2.326 . S
In221 O227 2.266 . S
In221 O228 2.326 . S
In221 O229 2.266 . S
In221 O230 2.326 . S
In221 O232 2.294 . S
In221 O233 2.326 . S
O222 In221 2.294 . S
O222 C231 1.240 . S
O223 In221 2.326 . S
O223 C231 1.252 . S
C224 O227 1.252 . S
C224 O228 1.260 . S
C225 O232 1.240 . S
C225 O233 1.252 . S
C226 O229 1.252 . S
C226 O230 1.260 . S
O227 In221 2.266 . S
O227 C224 1.252 . S
O228 In221 2.326 . S
O228 C224 1.260 . S
O229 In221 2.266 . S
O229 C226 1.252 . S
O230 In221 2.326 . S
O230 C226 1.260 . S
C231 O222 1.240 . S
C231 O223 1.252 . S
O232 In221 2.294 . S
O232 C225 1.240 . S
O233 In221 2.326 . S
O233 C225 1.252 . S
In234 O235 2.294 . S
In234 O236 2.326 . S
In234 O240 2.266 . S
In234 O241 2.326 . S
In234 O242 2.266 . S
In234 O243 2.326 . S
In234 O245 2.294 . S
In234 O246 2.326 . S
O235 In234 2.294 . S
O235 C244 1.240 . S
O236 In234 2.326 . S
O236 C244 1.252 . S
C237 O240 1.252 . S
C237 O241 1.260 . S
C238 O245 1.240 . S
C238 O246 1.252 . S
C239 O242 1.252 . S
C239 O243 1.260 . S
O240 In234 2.266 . S
O240 C237 1.252 . S
O241 In234 2.326 . S
O241 C237 1.260 . S
O242 In234 2.266 . S
O242 C239 1.252 . S
O243 In234 2.326 . S
O243 C239 1.260 . S
C244 O235 1.240 . S
C244 O236 1.252 . S
O245 In234 2.294 . S
O245 C238 1.240 . S
O246 In234 2.326 . S
O246 C238 1.252 . S
In247 O248 2.294 . S
In247 O249 2.326 . S
In247 O253 2.266 . S
In247 O254 2.326 . S
In247 O255 2.266 . S
In247 O256 2.326 . S
In247 O258 2.294 . S
In247 O259 2.326 . S
O248 In247 2.294 . S
O248 C257 1.240 . S
O249 In247 2.326 . S
O249 C257 1.252 . S
C250 O253 1.252 . S
C250 O254 1.260 . S
C251 O258 1.240 . S
C251 O259 1.252 . S
C252 O255 1.252 . S
C252 O256 1.260 . S
O253 In247 2.266 . S
O253 C250 1.252 . S
O254 In247 2.326 . S
O254 C250 1.260 . S
O255 In247 2.266 . S
O255 C252 1.252 . S
O256 In247 2.326 . S
O256 C252 1.260 . S
C257 O248 1.240 . S
C257 O249 1.252 . S
O258 In247 2.294 . S
O258 C251 1.240 . S
O259 In247 2.326 . S
O259 C251 1.252 . S
In260 O261 2.294 . S
In260 O262 2.326 . S
In260 O266 2.266 . S
In260 O267 2.326 . S
In260 O268 2.266 . S
In260 O269 2.326 . S
In260 O271 2.294 . S
In260 O272 2.326 . S
O261 In260 2.294 . S
O261 C270 1.240 . S
O262 In260 2.326 . S
O262 C270 1.252 . S
C263 O266 1.252 . S
C263 O267 1.260 . S
C264 O271 1.240 . S
C264 O272 1.252 . S
C265 O268 1.252 . S
C265 O269 1.260 . S
O266 In260 2.266 . S
O266 C263 1.252 . S
O267 In260 2.326 . S
O267 C263 1.260 . S
O268 In260 2.266 . S
O268 C265 1.252 . S
O269 In260 2.326 . S
O269 C265 1.260 . S
C270 O261 1.240 . S
C270 O262 1.252 . S
O271 In260 2.294 . S
O271 C264 1.240 . S
O272 In260 2.326 . S
O272 C264 1.252 . S
In273 O274 2.294 . S
In273 O275 2.326 . S
In273 O279 2.266 . S
In273 O280 2.326 . S
In273 O281 2.266 . S
In273 O282 2.326 . S
In273 O284 2.294 . S
In273 O285 2.326 . S
O274 In273 2.294 . S
O274 C283 1.240 . S
O275 In273 2.326 . S
O275 C283 1.252 . S
C276 O279 1.252 . S
C276 O280 1.260 . S
C277 O284 1.240 . S
C277 O285 1.252 . S
C278 O281 1.252 . S
C278 O282 1.260 . S
O279 In273 2.266 . S
O279 C276 1.252 . S
O280 In273 2.326 . S
O280 C276 1.260 . S
O281 In273 2.266 . S
O281 C278 1.252 . S
O282 In273 2.326 . S
O282 C278 1.260 . S
C283 O274 1.240 . S
C283 O275 1.252 . S
O284 In273 2.294 . S
O284 C277 1.240 . S
O285 In273 2.326 . S
O285 C277 1.252 . S
In286 O287 2.294 . S
In286 O288 2.326 . S
In286 O292 2.266 . S
In286 O293 2.326 . S
In286 O294 2.266 . S
In286 O295 2.326 . S
In286 O297 2.294 . S
In286 O298 2.326 . S
O287 In286 2.294 . S
O287 C296 1.240 . S
O288 In286 2.326 . S
O288 C296 1.252 . S
C289 O292 1.252 . S
C289 O293 1.260 . S
C290 O297 1.240 . S
C290 O298 1.252 . S
C291 O294 1.252 . S
C291 O295 1.260 . S
O292 In286 2.266 . S
O292 C289 1.252 . S
O293 In286 2.326 . S
O293 C289 1.260 . S
O294 In286 2.266 . S
O294 C291 1.252 . S
O295 In286 2.326 . S
O295 C291 1.260 . S
C296 O287 1.240 . S
C296 O288 1.252 . S
O297 In286 2.294 . S
O297 C290 1.240 . S
O298 In286 2.326 . S
O298 C290 1.252 . S
In299 O300 2.294 . S
In299 O301 2.326 . S
In299 O305 2.266 . S
In299 O306 2.326 . S
In299 O307 2.266 . S
In299 O308 2.326 . S
In299 O310 2.294 . S
In299 O311 2.326 . S
O300 In299 2.294 . S
O300 C309 1.240 . S
O301 In299 2.326 . S
O301 C309 1.252 . S
C302 O305 1.252 . S
C302 O306 1.260 . S
C303 O310 1.240 . S
C303 O311 1.252 . S
C304 O307 1.252 . S
C304 O308 1.260 . S
O305 In299 2.266 . S
O305 C302 1.252 . S
O306 In299 2.326 . S
O306 C302 1.260 . S
O307 In299 2.266 . S
O307 C304 1.252 . S
O308 In299 2.326 . S
O308 C304 1.260 . S
C309 O300 1.240 . S
C309 O301 1.252 . S
O310 In299 2.294 . S
O310 C303 1.240 . S
O311 In299 2.326 . S
O311 C303 1.252 . S
In312 O313 2.294 . S
In312 O314 2.326 . S
In312 O318 2.266 . S
In312 O319 2.326 . S
In312 O320 2.266 . S
In312 O321 2.326 . S
In312 O323 2.294 . S
In312 O324 2.326 . S
O313 In312 2.294 . S
O313 C322 1.240 . S
O314 In312 2.326 . S
O314 C322 1.252 . S
C315 O318 1.252 . S
C315 O319 1.260 . S
C316 O323 1.240 . S
C316 O324 1.252 . S
C317 O320 1.252 . S
C317 O321 1.260 . S
O318 In312 2.266 . S
O318 C315 1.252 . S
O319 In312 2.326 . S
O319 C315 1.260 . S
O320 In312 2.266 . S
O320 C317 1.252 . S
O321 In312 2.326 . S
O321 C317 1.260 . S
C322 O313 1.240 . S
C322 O314 1.252 . S
O323 In312 2.294 . S
O323 C316 1.240 . S
O324 In312 2.326 . S
O324 C316 1.252 . S
In325 O326 2.294 . S
In325 O327 2.326 . S
In325 O331 2.266 . S
In325 O332 2.326 . S
In325 O333 2.266 . S
In325 O334 2.326 . S
In325 O336 2.294 . S
In325 O337 2.326 . S
O326 In325 2.294 . S
O326 C335 1.240 . S
O327 In325 2.326 . S
O327 C335 1.252 . S
C328 O331 1.252 . S
C328 O332 1.260 . S
C329 O336 1.240 . S
C329 O337 1.252 . S
C330 O333 1.252 . S
C330 O334 1.260 . S
O331 In325 2.266 . S
O331 C328 1.252 . S
O332 In325 2.326 . S
O332 C328 1.260 . S
O333 In325 2.266 . S
O333 C330 1.252 . S
O334 In325 2.326 . S
O334 C330 1.260 . S
C335 O326 1.240 . S
C335 O327 1.252 . S
O336 In325 2.294 . S
O336 C329 1.240 . S
O337 In325 2.326 . S
O337 C329 1.252 . S
In338 O339 2.294 . S
In338 O340 2.326 . S
In338 O344 2.266 . S
In338 O345 2.326 . S
In338 O346 2.266 . S
In338 O347 2.326 . S
In338 O349 2.294 . S
In338 O350 2.326 . S
O339 In338 2.294 . S
O339 C348 1.240 . S
O340 In338 2.326 . S
O340 C348 1.252 . S
C341 O344 1.252 . S
C341 O345 1.260 . S
C342 O349 1.240 . S
C342 O350 1.252 . S
C343 O346 1.252 . S
C343 O347 1.260 . S
O344 In338 2.266 . S
O344 C341 1.252 . S
O345 In338 2.326 . S
O345 C341 1.260 . S
O346 In338 2.266 . S
O346 C343 1.252 . S
O347 In338 2.326 . S
O347 C343 1.260 . S
C348 O339 1.240 . S
C348 O340 1.252 . S
O349 In338 2.294 . S
O349 C342 1.240 . S
O350 In338 2.326 . S
O350 C342 1.252 . S
In351 O352 2.294 . S
In351 O353 2.326 . S
In351 O357 2.266 . S
In351 O358 2.326 . S
In351 O359 2.266 . S
In351 O360 2.326 . S
In351 O362 2.294 . S
In351 O363 2.326 . S
O352 In351 2.294 . S
O352 C361 1.240 . S
O353 In351 2.326 . S
O353 C361 1.252 . S
C354 O357 1.252 . S
C354 O358 1.260 . S
C355 O362 1.240 . S
C355 O363 1.252 . S
C356 O359 1.252 . S
C356 O360 1.260 . S
O357 In351 2.266 . S
O357 C354 1.252 . S
O358 In351 2.326 . S
O358 C354 1.260 . S
O359 In351 2.266 . S
O359 C356 1.252 . S
O360 In351 2.326 . S
O360 C356 1.260 . S
C361 O352 1.240 . S
C361 O353 1.252 . S
O362 In351 2.294 . S
O362 C355 1.240 . S
O363 In351 2.326 . S
O363 C355 1.252 . S
In364 O365 2.294 . S
In364 O366 2.326 . S
In364 O370 2.266 . S
In364 O371 2.326 . S
In364 O372 2.266 . S
In364 O373 2.326 . S
In364 O375 2.294 . S
In364 O376 2.326 . S
O365 In364 2.294 . S
O365 C374 1.240 . S
O366 In364 2.326 . S
O366 C374 1.252 . S
C367 O370 1.252 . S
C367 O371 1.260 . S
C368 O375 1.240 . S
C368 O376 1.252 . S
C369 O372 1.252 . S
C369 O373 1.260 . S
O370 In364 2.266 . S
O370 C367 1.252 . S
O371 In364 2.326 . S
O371 C367 1.260 . S
O372 In364 2.266 . S
O372 C369 1.252 . S
O373 In364 2.326 . S
O373 C369 1.260 . S
C374 O365 1.240 . S
C374 O366 1.252 . S
O375 In364 2.294 . S
O375 C368 1.240 . S
O376 In364 2.326 . S
O376 C368 1.252 . S
In377 O378 2.294 . S
In377 O379 2.326 . S
In377 O383 2.266 . S
In377 O384 2.326 . S
In377 O385 2.266 . S
In377 O386 2.326 . S
In377 O388 2.294 . S
In377 O389 2.326 . S
O378 In377 2.294 . S
O378 C387 1.240 . S
O379 In377 2.326 . S
O379 C387 1.252 . S
C380 O383 1.252 . S
C380 O384 1.260 . S
C381 O388 1.240 . S
C381 O389 1.252 . S
C382 O385 1.252 . S
C382 O386 1.260 . S
O383 In377 2.266 . S
O383 C380 1.252 . S
O384 In377 2.326 . S
O384 C380 1.260 . S
O385 In377 2.266 . S
O385 C382 1.252 . S
O386 In377 2.326 . S
O386 C382 1.260 . S
C387 O378 1.240 . S
C387 O379 1.252 . S
O388 In377 2.294 . S
O388 C381 1.240 . S
O389 In377 2.326 . S
O389 C381 1.252 . S
In390 O391 2.294 . S
In390 O392 2.326 . S
In390 O396 2.266 . S
In390 O397 2.326 . S
In390 O398 2.266 . S
In390 O399 2.326 . S
In390 O401 2.294 . S
In390 O402 2.326 . S
O391 In390 2.294 . S
O391 C400 1.240 . S
O392 In390 2.326 . S
O392 C400 1.252 . S
C393 O396 1.252 . S
C393 O397 1.260 . S
C394 O401 1.240 . S
C394 O402 1.252 . S
C395 O398 1.252 . S
C395 O399 1.260 . S
O396 In390 2.266 . S
O396 C393 1.252 . S
O397 In390 2.326 . S
O397 C393 1.260 . S
O398 In390 2.266 . S
O398 C395 1.252 . S
O399 In390 2.326 . S
O399 C395 1.260 . S
C400 O391 1.240 . S
C400 O392 1.252 . S
O401 In390 2.294 . S
O401 C394 1.240 . S
O402 In390 2.326 . S
O402 C394 1.252 . S
In403 O404 2.294 . S
In403 O405 2.326 . S
In403 O409 2.266 . S
In403 O410 2.326 . S
In403 O411 2.266 . S
In403 O412 2.326 . S
In403 O414 2.294 . S
In403 O415 2.326 . S
O404 In403 2.294 . S
O404 C413 1.240 . S
O405 In403 2.326 . S
O405 C413 1.252 . S
C406 O409 1.252 . S
C406 O410 1.260 . S
C407 O414 1.240 . S
C407 O415 1.252 . S
C408 O411 1.252 . S
C408 O412 1.260 . S
O409 In403 2.266 . S
O409 C406 1.252 . S
O410 In403 2.326 . S
O410 C406 1.260 . S
O411 In403 2.266 . S
O411 C408 1.252 . S
O412 In403 2.326 . S
O412 C408 1.260 . S
C413 O404 1.240 . S
C413 O405 1.252 . S
O414 In403 2.294 . S
O414 C407 1.240 . S
O415 In403 2.326 . S
O415 C407 1.252 . S
C416 C417 1.369 . S
C416 C418 1.419 . S
C416 H420 0.930 . S
C417 C416 1.369 . S
C417 C426 1.429 . S
C418 C416 1.419 . S
C418 C419 1.363 . S
C418 H421 0.929 . S
C419 C418 1.363 . S
C419 C425 1.428 . S
H420 C416 0.930 . S
H421 C418 0.929 . S
S422 N423 1.613 . S
S422 N424 1.610 . S
N423 S422 1.613 . S
N423 C426 1.350 . S
N424 S422 1.610 . S
N424 C425 1.351 . S
C425 C419 1.428 . S
C425 N424 1.351 . S
C425 C426 1.434 . S
C426 C417 1.429 . S
C426 N423 1.350 . S
C426 C425 1.434 . S
C427 C428 1.369 . S
C427 C429 1.419 . S
C427 H431 0.930 . S
C428 C427 1.369 . S
C428 C437 1.429 . S
C429 C427 1.419 . S
C429 C430 1.363 . S
C429 H432 0.929 . S
C430 C429 1.363 . S
C430 C436 1.428 . S
H431 C427 0.930 . S
H432 C429 0.929 . S
S433 N434 1.613 . S
S433 N435 1.610 . S
N434 S433 1.613 . S
N434 C437 1.350 . S
N435 S433 1.610 . S
N435 C436 1.351 . S
C436 C430 1.428 . S
C436 N435 1.351 . S
C436 C437 1.434 . S
C437 C428 1.429 . S
C437 N434 1.350 . S
C437 C436 1.434 . S
C438 C439 1.369 . S
C438 C440 1.419 . S
C438 H442 0.930 . S
C439 C438 1.369 . S
C439 C448 1.429 . S
C440 C438 1.419 . S
C440 C441 1.363 . S
C440 H443 0.929 . S
C441 C440 1.363 . S
C441 C447 1.428 . S
H442 C438 0.930 . S
H443 C440 0.929 . S
S444 N445 1.613 . S
S444 N446 1.610 . S
N445 S444 1.613 . S
N445 C448 1.350 . S
N446 S444 1.610 . S
N446 C447 1.351 . S
C447 C441 1.428 . S
C447 N446 1.351 . S
C447 C448 1.434 . S
C448 C439 1.429 . S
C448 N445 1.350 . S
C448 C447 1.434 . S
C449 C450 1.369 . S
C449 C451 1.419 . S
C449 H453 0.930 . S
C450 C449 1.369 . S
C450 C459 1.429 . S
C451 C449 1.419 . S
C451 C452 1.363 . S
C451 H454 0.929 . S
C452 C451 1.363 . S
C452 C458 1.428 . S
H453 C449 0.930 . S
H454 C451 0.929 . S
S455 N456 1.613 . S
S455 N457 1.610 . S
N456 S455 1.613 . S
N456 C459 1.350 . S
N457 S455 1.610 . S
N457 C458 1.351 . S
C458 C452 1.428 . S
C458 N457 1.351 . S
C458 C459 1.434 . S
C459 C450 1.429 . S
C459 N456 1.350 . S
C459 C458 1.434 . S
C460 C461 1.369 . S
C460 C462 1.419 . S
C460 H464 0.930 . S
C461 C460 1.369 . S
C461 C470 1.429 . S
C462 C460 1.419 . S
C462 C463 1.363 . S
C462 H465 0.929 . S
C463 C462 1.363 . S
C463 C469 1.428 . S
H464 C460 0.930 . S
H465 C462 0.929 . S
S466 N467 1.613 . S
S466 N468 1.610 . S
N467 S466 1.613 . S
N467 C470 1.350 . S
N468 S466 1.610 . S
N468 C469 1.351 . S
C469 C463 1.428 . S
C469 N468 1.351 . S
C469 C470 1.434 . S
C470 C461 1.429 . S
C470 N467 1.350 . S
C470 C469 1.434 . S
C471 C472 1.369 . S
C471 C473 1.419 . S
C471 H475 0.930 . S
C472 C471 1.369 . S
C472 C481 1.429 . S
C473 C471 1.419 . S
C473 C474 1.363 . S
C473 H476 0.929 . S
C474 C473 1.363 . S
C474 C480 1.428 . S
H475 C471 0.930 . S
H476 C473 0.929 . S
S477 N478 1.613 . S
S477 N479 1.610 . S
N478 S477 1.613 . S
N478 C481 1.350 . S
N479 S477 1.610 . S
N479 C480 1.351 . S
C480 C474 1.428 . S
C480 N479 1.351 . S
C480 C481 1.434 . S
C481 C472 1.429 . S
C481 N478 1.350 . S
C481 C480 1.434 . S
C482 C483 1.369 . S
C482 C484 1.419 . S
C482 H486 0.930 . S
C483 C482 1.369 . S
C483 C492 1.429 . S
C484 C482 1.419 . S
C484 C485 1.363 . S
C484 H487 0.929 . S
C485 C484 1.363 . S
C485 C491 1.428 . S
H486 C482 0.930 . S
H487 C484 0.929 . S
S488 N489 1.613 . S
S488 N490 1.610 . S
N489 S488 1.613 . S
N489 C492 1.350 . S
N490 S488 1.610 . S
N490 C491 1.351 . S
C491 C485 1.428 . S
C491 N490 1.351 . S
C491 C492 1.434 . S
C492 C483 1.429 . S
C492 N489 1.350 . S
C492 C491 1.434 . S
C493 C494 1.369 . S
C493 C495 1.419 . S
C493 H497 0.930 . S
C494 C493 1.369 . S
C494 C503 1.429 . S
C495 C493 1.419 . S
C495 C496 1.363 . S
C495 H498 0.929 . S
C496 C495 1.363 . S
C496 C502 1.428 . S
H497 C493 0.930 . S
H498 C495 0.929 . S
S499 N500 1.613 . S
S499 N501 1.610 . S
N500 S499 1.613 . S
N500 C503 1.350 . S
N501 S499 1.610 . S
N501 C502 1.351 . S
C502 C496 1.428 . S
C502 N501 1.351 . S
C502 C503 1.434 . S
C503 C494 1.429 . S
C503 N500 1.350 . S
C503 C502 1.434 . S
C504 C505 1.369 . S
C504 C506 1.419 . S
C504 H508 0.930 . S
C505 C504 1.369 . S
C505 C514 1.429 . S
C506 C504 1.419 . S
C506 C507 1.363 . S
C506 H509 0.929 . S
C507 C506 1.363 . S
C507 C513 1.428 . S
H508 C504 0.930 . S
H509 C506 0.929 . S
S510 N511 1.613 . S
S510 N512 1.610 . S
N511 S510 1.613 . S
N511 C514 1.350 . S
N512 S510 1.610 . S
N512 C513 1.351 . S
C513 C507 1.428 . S
C513 N512 1.351 . S
C513 C514 1.434 . S
C514 C505 1.429 . S
C514 N511 1.350 . S
C514 C513 1.434 . S
C515 C516 1.369 . S
C515 C517 1.419 . S
C515 H519 0.930 . S
C516 C515 1.369 . S
C516 C525 1.429 . S
C517 C515 1.419 . S
C517 C518 1.363 . S
C517 H520 0.929 . S
C518 C517 1.363 . S
C518 C524 1.428 . S
H519 C515 0.930 . S
H520 C517 0.929 . S
S521 N522 1.613 . S
S521 N523 1.610 . S
N522 S521 1.613 . S
N522 C525 1.350 . S
N523 S521 1.610 . S
N523 C524 1.351 . S
C524 C518 1.428 . S
C524 N523 1.351 . S
C524 C525 1.434 . S
C525 C516 1.429 . S
C525 N522 1.350 . S
C525 C524 1.434 . S
C526 C527 1.369 . S
C526 C528 1.419 . S
C526 H530 0.930 . S
C527 C526 1.369 . S
C527 C536 1.429 . S
C528 C526 1.419 . S
C528 C529 1.363 . S
C528 H531 0.929 . S
C529 C528 1.363 . S
C529 C535 1.428 . S
H530 C526 0.930 . S
H531 C528 0.929 . S
S532 N533 1.613 . S
S532 N534 1.610 . S
N533 S532 1.613 . S
N533 C536 1.350 . S
N534 S532 1.610 . S
N534 C535 1.351 . S
C535 C529 1.428 . S
C535 N534 1.351 . S
C535 C536 1.434 . S
C536 C527 1.429 . S
C536 N533 1.350 . S
C536 C535 1.434 . S
C537 C538 1.369 . S
C537 C539 1.419 . S
C537 H541 0.930 . S
C538 C537 1.369 . S
C538 C547 1.429 . S
C539 C537 1.419 . S
C539 C540 1.363 . S
C539 H542 0.929 . S
C540 C539 1.363 . S
C540 C546 1.428 . S
H541 C537 0.930 . S
H542 C539 0.929 . S
S543 N544 1.613 . S
S543 N545 1.610 . S
N544 S543 1.613 . S
N544 C547 1.350 . S
N545 S543 1.610 . S
N545 C546 1.351 . S
C546 C540 1.428 . S
C546 N545 1.351 . S
C546 C547 1.434 . S
C547 C538 1.429 . S
C547 N544 1.350 . S
C547 C546 1.434 . S
C548 C549 1.369 . S
C548 C550 1.419 . S
C548 H552 0.930 . S
C549 C548 1.369 . S
C549 C558 1.429 . S
C550 C548 1.419 . S
C550 C551 1.363 . S
C550 H553 0.929 . S
C551 C550 1.363 . S
C551 C557 1.428 . S
H552 C548 0.930 . S
H553 C550 0.929 . S
S554 N555 1.613 . S
S554 N556 1.610 . S
N555 S554 1.613 . S
N555 C558 1.350 . S
N556 S554 1.610 . S
N556 C557 1.351 . S
C557 C551 1.428 . S
C557 N556 1.351 . S
C557 C558 1.434 . S
C558 C549 1.429 . S
C558 N555 1.350 . S
C558 C557 1.434 . S
C559 C560 1.369 . S
C559 C561 1.419 . S
C559 H563 0.930 . S
C560 C559 1.369 . S
C560 C569 1.429 . S
C561 C559 1.419 . S
C561 C562 1.363 . S
C561 H564 0.929 . S
C562 C561 1.363 . S
C562 C568 1.428 . S
H563 C559 0.930 . S
H564 C561 0.929 . S
S565 N566 1.613 . S
S565 N567 1.610 . S
N566 S565 1.613 . S
N566 C569 1.350 . S
N567 S565 1.610 . S
N567 C568 1.351 . S
C568 C562 1.428 . S
C568 N567 1.351 . S
C568 C569 1.434 . S
C569 C560 1.429 . S
C569 N566 1.350 . S
C569 C568 1.434 . S
C570 C571 1.369 . S
C570 C572 1.419 . S
C570 H574 0.930 . S
C571 C570 1.369 . S
C571 C580 1.429 . S
C572 C570 1.419 . S
C572 C573 1.363 . S
C572 H575 0.929 . S
C573 C572 1.363 . S
C573 C579 1.428 . S
H574 C570 0.930 . S
H575 C572 0.929 . S
S576 N577 1.613 . S
S576 N578 1.610 . S
N577 S576 1.613 . S
N577 C580 1.350 . S
N578 S576 1.610 . S
N578 C579 1.351 . S
C579 C573 1.428 . S
C579 N578 1.351 . S
C579 C580 1.434 . S
C580 C571 1.429 . S
C580 N577 1.350 . S
C580 C579 1.434 . S
C581 C582 1.369 . S
C581 C583 1.419 . S
C581 H585 0.930 . S
C582 C581 1.369 . S
C582 C591 1.429 . S
C583 C581 1.419 . S
C583 C584 1.363 . S
C583 H586 0.929 . S
C584 C583 1.363 . S
C584 C590 1.428 . S
H585 C581 0.930 . S
H586 C583 0.929 . S
S587 N588 1.613 . S
S587 N589 1.610 . S
N588 S587 1.613 . S
N588 C591 1.350 . S
N589 S587 1.610 . S
N589 C590 1.351 . S
C590 C584 1.428 . S
C590 N589 1.351 . S
C590 C591 1.434 . S
C591 C582 1.429 . S
C591 N588 1.350 . S
C591 C590 1.434 . S
C592 C593 1.369 . S
C592 C594 1.419 1_455 S
C592 H596 0.930 . S
C593 C592 1.369 . S
C593 C602 1.429 . S
C594 C592 1.419 1_655 S
C594 C595 1.363 . S
C594 H597 0.929 . S
C595 C594 1.363 . S
C595 C601 1.428 . S
H596 C592 0.930 . S
H597 C594 0.929 . S
S598 N599 1.613 . S
S598 N600 1.610 1_455 S
N599 S598 1.613 . S
N599 C602 1.350 . S
N600 S598 1.610 1_655 S
N600 C601 1.351 . S
C601 C595 1.428 . S
C601 N600 1.351 . S
C601 C602 1.434 1_655 S
C602 C593 1.429 . S
C602 N599 1.350 . S
C602 C601 1.434 1_455 S
C603 C604 1.369 . S
C603 C605 1.419 . S
C603 H607 0.930 . S
C604 C603 1.369 . S
C604 C613 1.429 . S
C605 C603 1.419 . S
C605 C606 1.363 . S
C605 H608 0.929 . S
C606 C605 1.363 . S
C606 C612 1.428 . S
H607 C603 0.930 . S
H608 C605 0.929 . S
S609 N610 1.613 . S
S609 N611 1.610 . S
N610 S609 1.613 . S
N610 C613 1.350 . S
N611 S609 1.610 . S
N611 C612 1.351 . S
C612 C606 1.428 . S
C612 N611 1.351 . S
C612 C613 1.434 . S
C613 C604 1.429 . S
C613 N610 1.350 . S
C613 C612 1.434 . S
C614 C615 1.369 . S
C614 C616 1.419 . S
C614 H618 0.930 . S
C615 C614 1.369 . S
C615 C624 1.429 . S
C616 C614 1.419 . S
C616 C617 1.363 . S
C616 H619 0.929 . S
C617 C616 1.363 . S
C617 C623 1.428 . S
H618 C614 0.930 . S
H619 C616 0.929 . S
S620 N621 1.613 . S
S620 N622 1.610 . S
N621 S620 1.613 . S
N621 C624 1.350 . S
N622 S620 1.610 . S
N622 C623 1.351 . S
C623 C617 1.428 . S
C623 N622 1.351 . S
C623 C624 1.434 . S
C624 C615 1.429 . S
C624 N621 1.350 . S
C624 C623 1.434 . S
C625 C626 1.369 . S
C625 C627 1.419 . S
C625 H629 0.930 . S
C626 C625 1.369 . S
C626 C635 1.429 . S
C627 C625 1.419 . S
C627 C628 1.363 . S
C627 H630 0.929 . S
C628 C627 1.363 . S
C628 C634 1.428 . S
H629 C625 0.930 . S
H630 C627 0.929 . S
S631 N632 1.613 . S
S631 N633 1.610 . S
N632 S631 1.613 . S
N632 C635 1.350 . S
N633 S631 1.610 . S
N633 C634 1.351 . S
C634 C628 1.428 . S
C634 N633 1.351 . S
C634 C635 1.434 . S
C635 C626 1.429 . S
C635 N632 1.350 . S
C635 C634 1.434 . S
C636 C637 1.369 . S
C636 C638 1.419 1_655 S
C636 H640 0.930 . S
C637 C636 1.369 . S
C637 C646 1.429 . S
C638 C636 1.419 1_455 S
C638 C639 1.363 . S
C638 H641 0.929 . S
C639 C638 1.363 . S
C639 C645 1.428 . S
H640 C636 0.930 . S
H641 C638 0.929 . S
S642 N643 1.628 . S
S642 N644 1.596 1_655 S
N643 S642 1.628 . S
N643 C646 1.350 1_554 S
N644 S642 1.596 1_455 S
N644 C645 1.351 1_554 S
C645 C639 1.428 . S
C645 N644 1.351 1_556 S
C645 C646 1.434 1_455 S
C646 C637 1.429 . S
C646 N643 1.350 1_556 S
C646 C645 1.434 1_655 S
C647 C648 1.369 . S
C647 C649 1.419 . S
C647 H651 0.930 . S
C648 C647 1.369 . S
C648 C657 1.429 . S
C649 C647 1.419 . S
C649 C650 1.363 . S
C649 H652 0.929 . S
C650 C649 1.363 . S
C650 C656 1.428 . S
H651 C647 0.930 . S
H652 C649 0.929 . S
S653 N654 1.613 . S
S653 N655 1.610 . S
N654 S653 1.613 . S
N654 C657 1.350 . S
N655 S653 1.610 . S
N655 C656 1.351 . S
C656 C650 1.428 . S
C656 N655 1.351 . S
C656 C657 1.434 . S
C657 C648 1.429 . S
C657 N654 1.350 . S
C657 C656 1.434 . S
C658 C659 1.369 . S
C658 C660 1.419 . S
C658 H662 0.930 . S
C659 C658 1.369 . S
C659 C668 1.429 . S
C660 C658 1.419 . S
C660 C661 1.363 . S
C660 H663 0.929 . S
C661 C660 1.363 . S
C661 C667 1.428 . S
H662 C658 0.930 . S
H663 C660 0.929 . S
S664 N665 1.613 . S
S664 N666 1.610 . S
N665 S664 1.613 . S
N665 C668 1.350 . S
N666 S664 1.610 . S
N666 C667 1.351 . S
C667 C661 1.428 . S
C667 N666 1.351 . S
C667 C668 1.434 . S
C668 C659 1.429 . S
C668 N665 1.350 . S
C668 C667 1.434 . S
C669 C670 1.369 . S
C669 C671 1.419 . S
C669 H673 0.930 . S
C670 C669 1.369 . S
C670 C679 1.429 . S
C671 C669 1.419 . S
C671 C672 1.363 . S
C671 H674 0.929 . S
C672 C671 1.363 . S
C672 C678 1.428 . S
H673 C669 0.930 . S
H674 C671 0.929 . S
S675 N676 1.613 . S
S675 N677 1.610 . S
N676 S675 1.613 . S
N676 C679 1.350 . S
N677 S675 1.610 . S
N677 C678 1.351 . S
C678 C672 1.428 . S
C678 N677 1.351 . S
C678 C679 1.434 . S
C679 C670 1.429 . S
C679 N676 1.350 . S
C679 C678 1.434 . S
C680 C681 1.369 . S
C680 C682 1.419 . S
C680 H684 0.930 . S
C681 C680 1.369 . S
C681 C690 1.429 . S
C682 C680 1.419 . S
C682 C683 1.363 . S
C682 H685 0.929 . S
C683 C682 1.363 . S
C683 C689 1.428 . S
H684 C680 0.930 . S
H685 C682 0.929 . S
S686 N687 1.613 . S
S686 N688 1.610 . S
N687 S686 1.613 . S
N687 C690 1.350 . S
N688 S686 1.610 . S
N688 C689 1.351 . S
C689 C683 1.428 . S
C689 N688 1.351 . S
C689 C690 1.434 . S
C690 C681 1.429 . S
C690 N687 1.350 . S
C690 C689 1.434 . S
C691 C692 1.369 . S
C691 C693 1.419 . S
C691 H695 0.930 . S
C692 C691 1.369 . S
C692 C701 1.429 . S
C693 C691 1.419 . S
C693 C694 1.363 . S
C693 H696 0.929 . S
C694 C693 1.363 . S
C694 C700 1.428 . S
H695 C691 0.930 . S
H696 C693 0.929 . S
S697 N698 1.613 . S
S697 N699 1.610 . S
N698 S697 1.613 . S
N698 C701 1.350 . S
N699 S697 1.610 . S
N699 C700 1.351 . S
C700 C694 1.428 . S
C700 N699 1.351 . S
C700 C701 1.434 . S
C701 C692 1.429 . S
C701 N698 1.350 . S
C701 C700 1.434 . S
C702 C703 1.369 . S
C702 C704 1.419 . S
C702 H706 0.930 . S
C703 C702 1.369 . S
C703 C712 1.429 . S
C704 C702 1.419 . S
C704 C705 1.363 . S
C704 H707 0.929 . S
C705 C704 1.363 . S
C705 C711 1.428 . S
H706 C702 0.930 . S
H707 C704 0.929 . S
S708 N709 1.613 . S
S708 N710 1.610 . S
N709 S708 1.613 . S
N709 C712 1.350 . S
N710 S708 1.610 . S
N710 C711 1.351 . S
C711 C705 1.428 . S
C711 N710 1.351 . S
C711 C712 1.434 . S
C712 C703 1.429 . S
C712 N709 1.350 . S
C712 C711 1.434 . S
C713 C714 1.369 . S
C713 C715 1.419 . S
C713 H717 0.930 . S
C714 C713 1.369 . S
C714 C723 1.429 . S
C715 C713 1.419 . S
C715 C716 1.363 . S
C715 H718 0.929 . S
C716 C715 1.363 . S
C716 C722 1.428 . S
H717 C713 0.930 . S
H718 C715 0.929 . S
S719 N720 1.613 . S
S719 N721 1.610 . S
N720 S719 1.613 . S
N720 C723 1.350 . S
N721 S719 1.610 . S
N721 C722 1.351 . S
C722 C716 1.428 . S
C722 N721 1.351 . S
C722 C723 1.434 . S
C723 C714 1.429 . S
C723 N720 1.350 . S
C723 C722 1.434 . S
C724 C725 1.369 . S
C724 C726 1.419 . S
C724 H728 0.930 . S
C725 C724 1.369 . S
C725 C734 1.429 . S
C726 C724 1.419 . S
C726 C727 1.363 . S
C726 H729 0.929 . S
C727 C726 1.363 . S
C727 C733 1.428 . S
H728 C724 0.930 . S
H729 C726 0.929 . S
S730 N731 1.613 . S
S730 N732 1.610 . S
N731 S730 1.613 . S
N731 C734 1.350 . S
N732 S730 1.610 . S
N732 C733 1.351 . S
C733 C727 1.428 . S
C733 N732 1.351 . S
C733 C734 1.434 . S
C734 C725 1.429 . S
C734 N731 1.350 . S
C734 C733 1.434 . S
C735 C736 1.369 . S
C735 C737 1.419 1_655 S
C735 H739 0.930 . S
C736 C735 1.369 . S
C736 C745 1.429 1_554 S
C737 C735 1.419 1_455 S
C737 C738 1.363 . S
C737 H740 0.929 . S
C738 C737 1.363 . S
C738 C744 1.428 1_554 S
H739 C735 0.930 . S
H740 C737 0.929 . S
S741 N742 1.613 1_455 S
S741 N743 1.611 . S
N742 S741 1.613 1_655 S
N742 C745 1.350 . S
N743 S741 1.611 . S
N743 C744 1.351 . S
C744 C738 1.428 1_556 S
C744 N743 1.351 . S
C744 C745 1.434 1_455 S
C745 C736 1.429 1_556 S
C745 N742 1.350 . S
C745 C744 1.434 1_655 S
C746 C747 1.369 . S
C746 C748 1.419 . S
C746 H750 0.930 . S
C747 C746 1.369 . S
C747 C756 1.429 . S
C748 C746 1.419 . S
C748 C749 1.363 . S
C748 H751 0.929 . S
C749 C748 1.363 . S
C749 C755 1.428 . S
H750 C746 0.930 . S
H751 C748 0.929 . S
S752 N753 1.613 . S
S752 N754 1.610 . S
N753 S752 1.613 . S
N753 C756 1.350 . S
N754 S752 1.610 . S
N754 C755 1.351 . S
C755 C749 1.428 . S
C755 N754 1.351 . S
C755 C756 1.434 . S
C756 C747 1.429 . S
C756 N753 1.350 . S
C756 C755 1.434 . S
C757 C758 1.369 . S
C757 C759 1.419 1_455 S
C757 H761 0.930 . S
C758 C757 1.369 . S
C758 C767 1.429 . S
C759 C757 1.419 1_655 S
C759 C760 1.363 . S
C759 H762 0.929 . S
C760 C759 1.363 . S
C760 C766 1.428 . S
H761 C757 0.930 . S
H762 C759 0.929 . S
S763 N764 1.637 . S
S763 N765 1.603 1_455 S
N764 S763 1.637 . S
N764 C767 1.337 1_554 S
N765 S763 1.603 1_655 S
N765 C766 1.341 1_554 S
C766 C760 1.428 . S
C766 N765 1.341 1_556 S
C766 C767 1.434 1_655 S
C767 C758 1.429 . S
C767 N764 1.337 1_556 S
C767 C766 1.434 1_455 S
C768 C769 1.369 1_554 S
C768 C770 1.419 . S
C768 H772 0.930 . S
C769 C768 1.369 1_556 S
C769 C778 1.429 . S
C770 C768 1.419 . S
C770 C771 1.363 . S
C770 H773 0.929 . S
C771 C770 1.363 . S
C771 C777 1.428 1_554 S
H772 C768 0.930 . S
H773 C770 0.929 . S
S774 N775 1.613 . S
S774 N776 1.610 . S
N775 S774 1.613 . S
N775 C778 1.350 . S
N776 S774 1.610 . S
N776 C777 1.351 . S
C777 C771 1.428 1_556 S
C777 N776 1.351 . S
C777 C778 1.434 . S
C778 C769 1.429 . S
C778 N775 1.350 . S
C778 C777 1.434 . S
C779 C780 1.369 . S
C779 C781 1.419 . S
C779 H783 0.930 . S
C780 C779 1.369 . S
C780 C789 1.429 . S
C781 C779 1.419 . S
C781 C782 1.363 . S
C781 H784 0.929 . S
C782 C781 1.363 . S
C782 C788 1.428 . S
H783 C779 0.930 . S
H784 C781 0.929 . S
S785 N786 1.613 . S
S785 N787 1.610 . S
N786 S785 1.613 . S
N786 C789 1.350 . S
N787 S785 1.610 . S
N787 C788 1.351 . S
C788 C782 1.428 . S
C788 N787 1.351 . S
C788 C789 1.434 . S
C789 C780 1.429 . S
C789 N786 1.350 . S
C789 C788 1.434 . S
C790 C791 1.369 . S
C790 C792 1.419 . S
C790 H794 0.930 . S
C791 C790 1.369 . S
C791 C800 1.429 . S
C792 C790 1.419 . S
C792 C793 1.363 . S
C792 H795 0.929 . S
C793 C792 1.363 . S
C793 C799 1.428 . S
H794 C790 0.930 . S
H795 C792 0.929 . S
S796 N797 1.613 . S
S796 N798 1.610 . S
N797 S796 1.613 . S
N797 C800 1.350 . S
N798 S796 1.610 . S
N798 C799 1.351 . S
C799 C793 1.428 . S
C799 N798 1.351 . S
C799 C800 1.434 . S
C800 C791 1.429 . S
C800 N797 1.350 . S
C800 C799 1.434 . S
C801 C802 1.369 . S
C801 C803 1.419 . S
C801 H805 0.930 . S
C802 C801 1.369 . S
C802 C811 1.429 . S
C803 C801 1.419 . S
C803 C804 1.363 . S
C803 H806 0.929 . S
C804 C803 1.363 . S
C804 C810 1.428 . S
H805 C801 0.930 . S
H806 C803 0.929 . S
S807 N808 1.613 . S
S807 N809 1.610 . S
N808 S807 1.613 . S
N808 C811 1.350 . S
N809 S807 1.610 . S
N809 C810 1.351 . S
C810 C804 1.428 . S
C810 N809 1.351 . S
C810 C811 1.434 . S
C811 C802 1.429 . S
C811 N808 1.350 . S
C811 C810 1.434 . S
C812 C813 1.369 . S
C812 C814 1.423 . S
C812 H816 0.930 . S
C813 C812 1.369 . S
C813 C822 1.429 1_554 S
C814 C812 1.423 . S
C814 C815 1.358 1_554 S
C814 H817 0.929 . S
C815 C814 1.358 1_556 S
C815 C821 1.428 . S
H816 C812 0.930 . S
H817 C814 0.929 . S
S818 N819 1.613 . S
S818 N820 1.610 . S
N819 S818 1.613 . S
N819 C822 1.350 . S
N820 S818 1.610 . S
N820 C821 1.351 . S
C821 C815 1.428 . S
C821 N820 1.351 . S
C821 C822 1.434 . S
C822 C813 1.429 1_556 S
C822 N819 1.350 . S
C822 C821 1.434 . S
C823 C824 1.369 . S
C823 C825 1.419 . S
C823 H827 0.930 . S
C824 C823 1.369 . S
C824 C833 1.429 . S
C825 C823 1.419 . S
C825 C826 1.363 . S
C825 H828 0.929 . S
C826 C825 1.363 . S
C826 C832 1.428 . S
H827 C823 0.930 . S
H828 C825 0.929 . S
S829 N830 1.613 . S
S829 N831 1.610 . S
N830 S829 1.613 . S
N830 C833 1.350 . S
N831 S829 1.610 . S
N831 C832 1.351 . S
C832 C826 1.428 . S
C832 N831 1.351 . S
C832 C833 1.434 . S
C833 C824 1.429 . S
C833 N830 1.350 . S
C833 C832 1.434 . S
C834 C835 1.369 . S
C834 C836 1.419 . S
C834 H838 0.930 . S
C835 C834 1.369 . S
C835 C844 1.429 . S
C836 C834 1.419 . S
C836 C837 1.363 . S
C836 H839 0.929 . S
C837 C836 1.363 . S
C837 C843 1.428 . S
H838 C834 0.930 . S
H839 C836 0.929 . S
S840 N841 1.613 . S
S840 N842 1.610 . S
N841 S840 1.613 . S
N841 C844 1.350 . S
N842 S840 1.610 . S
N842 C843 1.351 . S
C843 C837 1.428 . S
C843 N842 1.351 . S
C843 C844 1.434 . S
C844 C835 1.429 . S
C844 N841 1.350 . S
C844 C843 1.434 . S
C845 C846 1.369 . S
C845 C847 1.419 . S
C845 H849 0.930 . S
C846 C845 1.369 . S
C846 C855 1.429 . S
C847 C845 1.419 . S
C847 C848 1.363 . S
C847 H850 0.929 . S
C848 C847 1.363 . S
C848 C854 1.428 . S
H849 C845 0.930 . S
H850 C847 0.929 . S
S851 N852 1.613 . S
S851 N853 1.610 . S
N852 S851 1.613 . S
N852 C855 1.350 . S
N853 S851 1.610 . S
N853 C854 1.351 . S
C854 C848 1.428 . S
C854 N853 1.351 . S
C854 C855 1.434 . S
C855 C846 1.429 . S
C855 N852 1.350 . S
C855 C854 1.434 . S
C856 C857 1.369 . S
C856 C858 1.419 1_545 S
C856 H860 0.930 . S
C857 C856 1.369 . S
C857 C866 1.429 . S
C858 C856 1.419 1_565 S
C858 C859 1.363 . S
C858 H861 0.929 . S
C859 C858 1.363 . S
C859 C865 1.428 . S
H860 C856 0.930 . S
H861 C858 0.929 . S
S862 N863 1.613 . S
S862 N864 1.610 1_545 S
N863 S862 1.613 . S
N863 C866 1.350 . S
N864 S862 1.610 1_565 S
N864 C865 1.351 . S
C865 C859 1.428 . S
C865 N864 1.351 . S
C865 C866 1.434 1_565 S
C866 C857 1.429 . S
C866 N863 1.350 . S
C866 C865 1.434 1_545 S
C867 C868 1.369 . S
C867 C869 1.419 . S
C867 H871 0.930 . S
C868 C867 1.369 . S
C868 C877 1.429 . S
C869 C867 1.419 . S
C869 C870 1.363 . S
C869 H872 0.929 . S
C870 C869 1.363 . S
C870 C876 1.428 . S
H871 C867 0.930 . S
H872 C869 0.929 . S
S873 N874 1.613 . S
S873 N875 1.610 . S
N874 S873 1.613 . S
N874 C877 1.350 . S
N875 S873 1.610 . S
N875 C876 1.351 . S
C876 C870 1.428 . S
C876 N875 1.351 . S
C876 C877 1.434 . S
C877 C868 1.429 . S
C877 N874 1.350 . S
C877 C876 1.434 . S
C878 C879 1.369 1_556 S
C878 C880 1.419 1_565 S
C878 H882 0.930 . S
C879 C878 1.369 1_554 S
C879 C888 1.429 . S
C880 C878 1.419 1_545 S
C880 C881 1.363 . S
C880 H883 0.929 . S
C881 C880 1.363 . S
C881 C887 1.428 1_556 S
H882 C878 0.930 . S
H883 C880 0.929 . S
S884 N885 1.613 1_545 S
S884 N886 1.610 . S
N885 S884 1.613 1_565 S
N885 C888 1.350 . S
N886 S884 1.610 . S
N886 C887 1.351 . S
C887 C881 1.428 1_554 S
C887 N886 1.351 . S
C887 C888 1.434 1_545 S
C888 C879 1.429 . S
C888 N885 1.350 . S
C888 C887 1.434 1_565 S
C889 C890 1.369 . S
C889 C891 1.419 . S
C889 H893 0.930 . S
C890 C889 1.369 . S
C890 C899 1.429 . S
C891 C889 1.419 . S
C891 C892 1.363 . S
C891 H894 0.929 . S
C892 C891 1.363 . S
C892 C898 1.428 . S
H893 C889 0.930 . S
H894 C891 0.929 . S
S895 N896 1.613 . S
S895 N897 1.610 . S
N896 S895 1.613 . S
N896 C899 1.350 . S
N897 S895 1.610 . S
N897 C898 1.351 . S
C898 C892 1.428 . S
C898 N897 1.351 . S
C898 C899 1.434 . S
C899 C890 1.429 . S
C899 N896 1.350 . S
C899 C898 1.434 . S
C900 C901 1.369 . S
C900 C902 1.419 1_545 S
C900 H904 0.930 . S
C901 C900 1.369 . S
C901 C910 1.429 . S
C902 C900 1.419 1_565 S
C902 C903 1.363 . S
C902 H905 0.929 . S
C903 C902 1.363 . S
C903 C909 1.428 . S
H904 C900 0.930 . S
H905 C902 0.929 . S
S906 N907 1.613 1_565 S
S906 N908 1.610 . S
N907 S906 1.613 1_545 S
N907 C910 1.350 . S
N908 S906 1.610 . S
N908 C909 1.351 . S
C909 C903 1.428 . S
C909 N908 1.351 . S
C909 C910 1.434 1_565 S
C910 C901 1.429 . S
C910 N907 1.350 . S
C910 C909 1.434 1_545 S
C911 C912 1.369 . S
C911 C913 1.419 . S
C911 H915 0.930 . S
C912 C911 1.369 . S
C912 C921 1.429 . S
C913 C911 1.419 . S
C913 C914 1.363 . S
C913 H916 0.929 . S
C914 C913 1.363 . S
C914 C920 1.428 . S
H915 C911 0.930 . S
H916 C913 0.929 . S
S917 N918 1.613 . S
S917 N919 1.610 . S
N918 S917 1.613 . S
N918 C921 1.350 . S
N919 S917 1.610 . S
N919 C920 1.351 . S
C920 C914 1.428 . S
C920 N919 1.351 . S
C920 C921 1.434 . S
C921 C912 1.429 . S
C921 N918 1.350 . S
C921 C920 1.434 . S
C922 C923 1.369 1_556 S
C922 C924 1.419 1_565 S
C922 H926 0.930 . S
C923 C922 1.369 1_554 S
C923 C932 1.429 . S
C924 C922 1.419 1_545 S
C924 C925 1.363 . S
C924 H927 0.929 . S
C925 C924 1.363 . S
C925 C931 1.428 1_556 S
H926 C922 0.930 . S
H927 C924 0.929 . S
S928 N929 1.613 1_545 S
S928 N930 1.610 . S
N929 S928 1.613 1_565 S
N929 C932 1.350 . S
N930 S928 1.610 . S
N930 C931 1.351 . S
C931 C925 1.428 1_554 S
C931 N930 1.351 . S
C931 C932 1.434 1_545 S
C932 C923 1.429 . S
C932 N929 1.350 . S
C932 C931 1.434 1_565 S
C933 C934 1.369 . S
C933 C935 1.419 . S
C933 H937 0.930 . S
C934 C933 1.369 . S
C934 C943 1.429 . S
C935 C933 1.419 . S
C935 C936 1.363 . S
C935 H938 0.929 . S
C936 C935 1.363 . S
C936 C942 1.428 . S
H937 C933 0.930 . S
H938 C935 0.929 . S
S939 N940 1.613 . S
S939 N941 1.610 . S
N940 S939 1.613 . S
N940 C943 1.350 . S
N941 S939 1.610 . S
N941 C942 1.351 . S
C942 C936 1.428 . S
C942 N941 1.351 . S
C942 C943 1.434 . S
C943 C934 1.429 . S
C943 N940 1.350 . S
C943 C942 1.434 . S
C944 C945 1.369 . S
C944 C946 1.419 . S
C944 H948 0.930 . S
C945 C944 1.369 . S
C945 C954 1.429 . S
C946 C944 1.419 . S
C946 C947 1.363 . S
C946 H949 0.929 . S
C947 C946 1.363 . S
C947 C953 1.428 . S
H948 C944 0.930 . S
H949 C946 0.929 . S
S950 N951 1.613 . S
S950 N952 1.610 . S
N951 S950 1.613 . S
N951 C954 1.350 1_556 S
N952 S950 1.610 . S
N952 C953 1.351 1_556 S
C953 C947 1.428 . S
C953 N952 1.351 1_554 S
C953 C954 1.434 . S
C954 C945 1.429 . S
C954 N951 1.350 1_554 S
C954 C953 1.434 . S
C955 C956 1.369 . S
C955 C957 1.419 . S
C955 H959 0.930 . S
C956 C955 1.369 . S
C956 C965 1.429 . S
C957 C955 1.419 . S
C957 C958 1.363 . S
C957 H960 0.929 . S
C958 C957 1.363 . S
C958 C964 1.428 . S
H959 C955 0.930 . S
H960 C957 0.929 . S
S961 N962 1.613 . S
S961 N963 1.610 . S
N962 S961 1.613 . S
N962 C965 1.350 . S
N963 S961 1.610 . S
N963 C964 1.351 . S
C964 C958 1.428 . S
C964 N963 1.351 . S
C964 C965 1.434 . S
C965 C956 1.429 . S
C965 N962 1.350 . S
C965 C964 1.434 . S
C966 C967 1.369 . S
C966 C968 1.419 . S
C966 H970 0.930 . S
C967 C966 1.369 . S
C967 C976 1.429 . S
C968 C966 1.419 . S
C968 C969 1.363 . S
C968 H971 0.929 . S
C969 C968 1.363 . S
C969 C975 1.428 . S
H970 C966 0.930 . S
H971 C968 0.929 . S
S972 N973 1.613 . S
S972 N974 1.610 . S
N973 S972 1.613 . S
N973 C976 1.350 . S
N974 S972 1.610 . S
N974 C975 1.351 . S
C975 C969 1.428 . S
C975 N974 1.351 . S
C975 C976 1.434 . S
C976 C967 1.429 . S
C976 N973 1.350 . S
C976 C975 1.434 . S
C977 C978 1.369 . S
C977 C979 1.419 1_655 S
C977 H981 0.930 . S
C978 C977 1.369 . S
C978 C987 1.429 . S
C979 C977 1.419 1_455 S
C979 C980 1.363 . S
C979 H982 0.929 . S
C980 C979 1.363 . S
C980 C986 1.428 . S
H981 C977 0.930 . S
H982 C979 0.929 . S
S983 N984 1.618 . S
S983 N985 1.605 1_655 S
N984 S983 1.618 . S
N984 C987 1.350 . S
N985 S983 1.605 1_455 S
N985 C986 1.351 . S
C986 C980 1.428 . S
C986 N985 1.351 . S
C986 C987 1.434 1_455 S
C987 C978 1.429 . S
C987 N984 1.350 . S
C987 C986 1.434 1_655 S
C988 C989 1.369 . S
C988 C990 1.419 . S
C988 H992 0.930 . S
C989 C988 1.369 . S
C989 C998 1.429 . S
C990 C988 1.419 . S
C990 C991 1.363 . S
C990 H993 0.929 . S
C991 C990 1.363 . S
C991 C997 1.428 . S
H992 C988 0.930 . S
H993 C990 0.929 . S
S994 N995 1.613 1_554 S
S994 N996 1.610 1_554 S
N995 S994 1.613 1_556 S
N995 C998 1.350 . S
N996 S994 1.610 1_556 S
N996 C997 1.351 . S
C997 C991 1.428 . S
C997 N996 1.351 . S
C997 C998 1.434 . S
C998 C989 1.429 . S
C998 N995 1.350 . S
C998 C997 1.434 . S
C999 C1000 1.369 . S
C999 C1001 1.419 1_655 S
C999 H1003 0.930 . S
C1000 C999 1.369 . S
C1000 C1009 1.429 . S
C1001 C999 1.419 1_455 S
C1001 C1002 1.363 . S
C1001 H1004 0.929 . S
C1002 C1001 1.363 . S
C1002 C1008 1.428 . S
H1003 C999 0.930 . S
H1004 C1001 0.929 . S
S1005 N1006 1.618 . S
S1005 N1007 1.606 1_655 S
N1006 S1005 1.618 . S
N1006 C1009 1.350 . S
N1007 S1005 1.606 1_455 S
N1007 C1008 1.351 . S
C1008 C1002 1.428 . S
C1008 N1007 1.351 . S
C1008 C1009 1.434 1_455 S
C1009 C1000 1.429 . S
C1009 N1006 1.350 . S
C1009 C1008 1.434 1_655 S
C1010 C1011 1.369 . S
C1010 C1012 1.419 . S
C1010 H1014 0.930 . S
C1011 C1010 1.369 . S
C1011 C1020 1.429 . S
C1012 C1010 1.419 . S
C1012 C1013 1.363 . S
C1012 H1015 0.929 . S
C1013 C1012 1.363 . S
C1013 C1019 1.428 . S
H1014 C1010 0.930 . S
H1015 C1012 0.929 . S
S1016 N1017 1.613 . S
S1016 N1018 1.610 . S
N1017 S1016 1.613 . S
N1017 C1020 1.350 . S
N1018 S1016 1.610 . S
N1018 C1019 1.351 . S
C1019 C1013 1.428 . S
C1019 N1018 1.351 . S
C1019 C1020 1.434 . S
C1020 C1011 1.429 . S
C1020 N1017 1.350 . S
C1020 C1019 1.434 . S
C1021 C1022 1.369 . S
C1021 C1023 1.419 . S
C1021 H1025 0.930 . S
C1022 C1021 1.369 . S
C1022 C1031 1.429 . S
C1023 C1021 1.419 . S
C1023 C1024 1.363 . S
C1023 H1026 0.929 . S
C1024 C1023 1.363 . S
C1024 C1030 1.428 . S
H1025 C1021 0.930 . S
H1026 C1023 0.929 . S
S1027 N1028 1.613 . S
S1027 N1029 1.610 . S
N1028 S1027 1.613 . S
N1028 C1031 1.350 . S
N1029 S1027 1.610 . S
N1029 C1030 1.351 . S
C1030 C1024 1.428 . S
C1030 N1029 1.351 . S
C1030 C1031 1.434 . S
C1031 C1022 1.429 . S
C1031 N1028 1.350 . S
C1031 C1030 1.434 . S
C1032 C1033 1.369 . S
C1032 C1034 1.419 . S
C1032 H1036 0.930 . S
C1033 C1032 1.369 . S
C1033 C1042 1.429 . S
C1034 C1032 1.419 . S
C1034 C1035 1.363 . S
C1034 H1037 0.929 . S
C1035 C1034 1.363 . S
C1035 C1041 1.428 . S
H1036 C1032 0.930 . S
H1037 C1034 0.929 . S
S1038 N1039 1.613 . S
S1038 N1040 1.610 . S
N1039 S1038 1.613 . S
N1039 C1042 1.350 . S
N1040 S1038 1.610 . S
N1040 C1041 1.351 . S
C1041 C1035 1.428 . S
C1041 N1040 1.351 . S
C1041 C1042 1.434 . S
C1042 C1033 1.429 . S
C1042 N1039 1.350 . S
C1042 C1041 1.434 . S
C1043 C1044 1.369 . S
C1043 C1045 1.419 . S
C1043 H1047 0.930 . S
C1044 C1043 1.369 . S
C1044 C1053 1.429 . S
C1045 C1043 1.419 . S
C1045 C1046 1.363 . S
C1045 H1048 0.929 . S
C1046 C1045 1.363 . S
C1046 C1052 1.428 . S
H1047 C1043 0.930 . S
H1048 C1045 0.929 . S
S1049 N1050 1.613 . S
S1049 N1051 1.610 . S
N1050 S1049 1.613 . S
N1050 C1053 1.350 . S
N1051 S1049 1.610 . S
N1051 C1052 1.351 . S
C1052 C1046 1.428 . S
C1052 N1051 1.351 . S
C1052 C1053 1.434 . S
C1053 C1044 1.429 . S
C1053 N1050 1.350 . S
C1053 C1052 1.434 . S
C1054 C1055 1.369 . S
C1054 C1056 1.419 . S
C1054 H1058 0.930 . S
C1055 C1054 1.369 . S
C1055 C1064 1.429 . S
C1056 C1054 1.419 . S
C1056 C1057 1.363 . S
C1056 H1059 0.929 . S
C1057 C1056 1.363 . S
C1057 C1063 1.428 . S
H1058 C1054 0.930 . S
H1059 C1056 0.929 . S
S1060 N1061 1.613 . S
S1060 N1062 1.610 . S
N1061 S1060 1.613 . S
N1061 C1064 1.350 . S
N1062 S1060 1.610 . S
N1062 C1063 1.351 . S
C1063 C1057 1.428 . S
C1063 N1062 1.351 . S
C1063 C1064 1.434 . S
C1064 C1055 1.429 . S
C1064 N1061 1.350 . S
C1064 C1063 1.434 . S
C1065 C1066 1.369 . S
C1065 C1067 1.419 . S
C1065 H1069 0.930 . S
C1066 C1065 1.369 . S
C1066 C1075 1.429 . S
C1067 C1065 1.419 . S
C1067 C1068 1.363 . S
C1067 H1070 0.929 . S
C1068 C1067 1.363 . S
C1068 C1074 1.428 . S
H1069 C1065 0.930 . S
H1070 C1067 0.929 . S
S1071 N1072 1.613 . S
S1071 N1073 1.610 . S
N1072 S1071 1.613 . S
N1072 C1075 1.350 . S
N1073 S1071 1.610 . S
N1073 C1074 1.351 . S
C1074 C1068 1.428 . S
C1074 N1073 1.351 . S
C1074 C1075 1.434 . S
C1075 C1066 1.429 . S
C1075 N1072 1.350 . S
C1075 C1074 1.434 . S
C1076 C1077 1.369 . S
C1076 C1078 1.419 1_655 S
C1076 H1080 0.930 . S
C1077 C1076 1.369 . S
C1077 C1086 1.429 . S
C1078 C1076 1.419 1_455 S
C1078 C1079 1.363 . S
C1078 H1081 0.929 . S
C1079 C1078 1.363 . S
C1079 C1085 1.428 . S
H1080 C1076 0.930 . S
H1081 C1078 0.929 . S
S1082 N1083 1.611 1_455 S
S1082 N1084 1.612 . S
N1083 S1082 1.611 1_655 S
N1083 C1086 1.350 . S
N1084 S1082 1.612 . S
N1084 C1085 1.351 . S
C1085 C1079 1.428 . S
C1085 N1084 1.351 . S
C1085 C1086 1.434 1_455 S
C1086 C1077 1.429 . S
C1086 N1083 1.350 . S
C1086 C1085 1.434 1_655 S
C1087 C1088 1.369 . S
C1087 C1089 1.419 . S
C1087 H1091 0.930 . S
C1088 C1087 1.369 . S
C1088 C1097 1.429 . S
C1089 C1087 1.419 . S
C1089 C1090 1.363 . S
C1089 H1092 0.929 . S
C1090 C1089 1.363 . S
C1090 C1096 1.428 . S
H1091 C1087 0.930 . S
H1092 C1089 0.929 . S
S1093 N1094 1.613 . S
S1093 N1095 1.610 . S
N1094 S1093 1.613 . S
N1094 C1097 1.350 . S
N1095 S1093 1.610 . S
N1095 C1096 1.351 . S
C1096 C1090 1.428 . S
C1096 N1095 1.351 . S
C1096 C1097 1.434 . S
C1097 C1088 1.429 . S
C1097 N1094 1.350 . S
C1097 C1096 1.434 . S
C1098 C1099 1.369 . S
C1098 C1100 1.419 . S
C1098 H1102 0.930 . S
C1099 C1098 1.369 . S
C1099 C1108 1.429 . S
C1100 C1098 1.419 . S
C1100 C1101 1.363 . S
C1100 H1103 0.929 . S
C1101 C1100 1.363 . S
C1101 C1107 1.428 . S
H1102 C1098 0.930 . S
H1103 C1100 0.929 . S
S1104 N1105 1.613 . S
S1104 N1106 1.610 . S
N1105 S1104 1.613 . S
N1105 C1108 1.350 . S
N1106 S1104 1.610 . S
N1106 C1107 1.351 . S
C1107 C1101 1.428 . S
C1107 N1106 1.351 . S
C1107 C1108 1.434 . S
C1108 C1099 1.429 . S
C1108 N1105 1.350 . S
C1108 C1107 1.434 . S
C1109 C1110 1.369 . S
C1109 C1111 1.419 1_655 S
C1109 H1113 0.930 . S
C1110 C1109 1.369 . S
C1110 C1119 1.429 . S
C1111 C1109 1.419 1_455 S
C1111 C1112 1.363 . S
C1111 H1114 0.929 . S
C1112 C1111 1.363 . S
C1112 C1118 1.428 . S
H1113 C1109 0.930 . S
H1114 C1111 0.929 . S
S1115 N1116 1.615 . S
S1115 N1117 1.608 1_655 S
N1116 S1115 1.615 . S
N1116 C1119 1.350 . S
N1117 S1115 1.608 1_455 S
N1117 C1118 1.351 . S
C1118 C1112 1.428 . S
C1118 N1117 1.351 . S
C1118 C1119 1.434 1_455 S
C1119 C1110 1.429 . S
C1119 N1116 1.350 . S
C1119 C1118 1.434 1_655 S
C417 C303 1.820 . S
C419 C5 1.825 . S
C428 C263 1.822 . S
C430 C23 1.822 . S
C439 C277 1.822 . S
C441 C29 1.824 . S
C450 C289 1.820 . S
C452 C49 1.823 . S
C461 C55 1.823 . S
C463 C231 1.822 . S
C472 C239 1.820 . S
C474 C69 1.823 . S
C483 C83 1.820 . S
C485 C251 1.818 . S
C494 C95 1.815 . S
C496 C211 1.823 . S
C505 C407 1.811 . S
C507 C114 1.811 . S
C516 C127 1.811 . S
C518 C374 1.812 . S
C527 C140 1.813 . S
C529 C381 1.806 . S
C538 C153 1.809 . S
C540 C394 1.806 . S
C549 C160 1.808 . S
C551 C335 1.812 . S
C560 C173 1.812 . S
C562 C342 1.806 . S
C571 C192 1.812 . S
C573 C361 1.811 . S
C582 C199 1.812 . S
C584 C322 1.811 . S
C593 C4 1.326 . S
C595 C161 1.326 . S
C604 C382 1.325 . S
C606 C16 1.325 . S
C615 C36 1.324 . S
C617 C185 1.325 . S
C626 C408 1.324 . S
C628 C42 1.325 . S
C637 C107 1.326 . S
C639 C62 1.326 . S
C648 C70 1.321 . S
C650 C328 1.321 . S
C659 C82 1.321 . S
C661 C133 1.323 . S
C670 C96 1.321 . S
C672 C354 1.321 . S
C681 C278 1.327 . S
C683 C120 1.326 . S
C692 C304 1.327 . S
C694 C146 1.326 . S
C703 C174 1.321 . S
C705 C224 1.322 . S
C714 C252 1.325 . S
C716 C200 1.324 . S
C725 C367 1.323 . S
C727 C218 1.323 . S
C736 C238 1.328 . S
C738 C395 1.327 . S
C747 C315 1.326 . S
C749 C270 1.325 . S
C758 C343 1.326 . S
C760 C296 1.326 . S
C769 C56 1.281 . S
C771 C10 1.285 . S
C780 C68 1.285 . S
C782 C18 1.281 . S
C791 C30 1.284 . S
C793 C88 1.286 . S
C802 C44 1.286 . S
C804 C94 1.286 . S
C813 C159 1.293 . S
C815 C109 1.291 . S
C824 C172 1.291 . S
C826 C122 1.287 . S
C835 C187 1.296 . S
C837 C135 1.291 . S
C846 C148 1.287 . S
C848 C198 1.285 . S
C857 C212 1.287 . S
C859 C264 1.283 . S
C868 C226 1.283 . S
C870 C276 1.286 . S
C879 C244 1.286 . S
C881 C290 1.286 . S
C890 C250 1.283 . S
C892 C302 1.286 . S
C901 C369 1.290 . S
C903 C317 1.294 . S
C912 C380 1.288 . S
C914 C330 1.285 . S
C923 C393 1.290 . S
C925 C341 1.294 . S
C934 C406 1.291 . S
C936 C356 1.288 . S
C945 C400 1.788 . S
C947 C3 1.784 . S
C956 C17 1.784 . S
C958 C205 1.783 . S
C967 C368 1.787 . S
C969 C31 1.783 . S
C978 C43 1.786 . S
C980 C179 1.785 . S
C989 C348 1.789 . S
C991 C57 1.784 . S
C1000 C75 1.786 . S
C1002 C147 1.785 . S
C1011 C81 1.780 . S
C1013 C316 1.785 . S
C1022 C121 1.785 . S
C1024 C101 1.786 . S
C1033 C108 1.788 . S
C1035 C291 1.784 . S
C1044 C265 1.784 . S
C1046 C134 1.788 . S
C1055 C166 1.789 . S
C1057 C237 1.784 . S
C1066 C186 1.789 . S
C1068 C213 1.784 . S
C1077 C413 1.786 . S
C1079 C225 1.786 . S
C1088 C257 1.787 . S
C1090 C387 1.786 . S
C1099 C283 1.788 . S
C1101 C355 1.787 . S
C1110 C329 1.783 . S
C1112 C309 1.785 . S
