# Generated by pormake.
# Topology umc, (4)-cn, num edge types: 1
# Building blocks:
#     Node 0, Type 0, BuildingBlock: NAWXER_clean_sbu_0, # of connection points: 4
#     Node 1, Type 0, BuildingBlock: NAWXER_clean_sbu_0, # of connection points: 4
#     Node 2, Type 0, BuildingBlock: NAWXER_clean_sbu_0, # of connection points: 4
#     Node 3, Type 0, BuildingBlock: NAWXER_clean_sbu_0, # of connection points: 4
#     Node 4, Type 0, BuildingBlock: NAWXER_clean_sbu_0, # of connection points: 4
#     Node 5, Type 0, BuildingBlock: NAWXER_clean_sbu_0, # of connection points: 4
#     Node 6, Type 0, BuildingBlock: NAWXER_clean_sbu_0, # of connection points: 4
#     Node 7, Type 0, BuildingBlock: NAWXER_clean_sbu_0, # of connection points: 4
#     Node 8, Type 0, BuildingBlock: NAWXER_clean_sbu_0, # of connection points: 4
#     Node 9, Type 0, BuildingBlock: NAWXER_clean_sbu_0, # of connection points: 4
#     Node 10, Type 0, BuildingBlock: NAWXER_clean_sbu_0, # of connection points: 4
#     Node 11, Type 0, BuildingBlock: NAWXER_clean_sbu_0, # of connection points: 4
#     Node 12, Type 0, BuildingBlock: NAWXER_clean_sbu_0, # of connection points: 4
#     Node 13, Type 0, BuildingBlock: NAWXER_clean_sbu_0, # of connection points: 4
#     Node 14, Type 0, BuildingBlock: NAWXER_clean_sbu_0, # of connection points: 4
#     Node 15, Type 0, BuildingBlock: NAWXER_clean_sbu_0, # of connection points: 4
#     Edge 16, Type (0, 0), BuildingBlock: XUDNAN_clean_linker_2, # of connection points: 2
#     Edge 17, Type (0, 0), BuildingBlock: XUDNAN_clean_linker_2, # of connection points: 2
#     Edge 18, Type (0, 0), BuildingBlock: XUDNAN_clean_linker_2, # of connection points: 2
#     Edge 19, Type (0, 0), BuildingBlock: XUDNAN_clean_linker_2, # of connection points: 2
#     Edge 20, Type (0, 0), BuildingBlock: XUDNAN_clean_linker_2, # of connection points: 2
#     Edge 21, Type (0, 0), BuildingBlock: XUDNAN_clean_linker_2, # of connection points: 2
#     Edge 22, Type (0, 0), BuildingBlock: XUDNAN_clean_linker_2, # of connection points: 2
#     Edge 23, Type (0, 0), BuildingBlock: XUDNAN_clean_linker_2, # of connection points: 2
#     Edge 24, Type (0, 0), BuildingBlock: XUDNAN_clean_linker_2, # of connection points: 2
#     Edge 25, Type (0, 0), BuildingBlock: XUDNAN_clean_linker_2, # of connection points: 2
#     Edge 26, Type (0, 0), BuildingBlock: XUDNAN_clean_linker_2, # of connection points: 2
#     Edge 27, Type (0, 0), BuildingBlock: XUDNAN_clean_linker_2, # of connection points: 2
#     Edge 28, Type (0, 0), BuildingBlock: XUDNAN_clean_linker_2, # of connection points: 2
#     Edge 29, Type (0, 0), BuildingBlock: XUDNAN_clean_linker_2, # of connection points: 2
#     Edge 30, Type (0, 0), BuildingBlock: XUDNAN_clean_linker_2, # of connection points: 2
#     Edge 31, Type (0, 0), BuildingBlock: XUDNAN_clean_linker_2, # of connection points: 2
#     Edge 32, Type (0, 0), BuildingBlock: XUDNAN_clean_linker_2, # of connection points: 2
#     Edge 33, Type (0, 0), BuildingBlock: XUDNAN_clean_linker_2, # of connection points: 2
#     Edge 34, Type (0, 0), BuildingBlock: XUDNAN_clean_linker_2, # of connection points: 2
#     Edge 35, Type (0, 0), BuildingBlock: XUDNAN_clean_linker_2, # of connection points: 2
#     Edge 36, Type (0, 0), BuildingBlock: XUDNAN_clean_linker_2, # of connection points: 2
#     Edge 37, Type (0, 0), BuildingBlock: XUDNAN_clean_linker_2, # of connection points: 2
#     Edge 38, Type (0, 0), BuildingBlock: XUDNAN_clean_linker_2, # of connection points: 2
#     Edge 39, Type (0, 0), BuildingBlock: XUDNAN_clean_linker_2, # of connection points: 2
#     Edge 40, Type (0, 0), BuildingBlock: XUDNAN_clean_linker_2, # of connection points: 2
#     Edge 41, Type (0, 0), BuildingBlock: XUDNAN_clean_linker_2, # of connection points: 2
#     Edge 42, Type (0, 0), BuildingBlock: XUDNAN_clean_linker_2, # of connection points: 2
#     Edge 43, Type (0, 0), BuildingBlock: XUDNAN_clean_linker_2, # of connection points: 2
#     Edge 44, Type (0, 0), BuildingBlock: XUDNAN_clean_linker_2, # of connection points: 2
#     Edge 45, Type (0, 0), BuildingBlock: XUDNAN_clean_linker_2, # of connection points: 2
#     Edge 46, Type (0, 0), BuildingBlock: XUDNAN_clean_linker_2, # of connection points: 2
#     Edge 47, Type (0, 0), BuildingBlock: XUDNAN_clean_linker_2, # of connection points: 2
# Relax obj value: 0.015
# Max RMSD: 0.104
# Mean RMSD: 0.104
data_MOF--net-umc--node1-NAWXER_clean_sbu_0--edge1-XUDNAN_clean_linker_2
_symmetry_space_group_name_H-M    P1
_symmetry_Int_Tables_number       1
_symmetry_cell_setting            triclinic
loop_
_symmetry_equiv_pos_as_xyz
'x, y, z'
_cell_length_a     53.959735
_cell_length_b     21.914942
_cell_length_c     58.082857
_cell_angle_alpha  89.930065
_cell_angle_beta   89.825775
_cell_angle_gamma 90.10076
loop_
_atom_site_label
_atom_site_type_symbol
_atom_site_fract_x
_atom_site_fract_y
_atom_site_fract_z
_atom_type_partial_charge
C0 C 0.39768 0.12505 0.41962 0.0
C1 C 0.39419 0.1168 0.33462 0.0
O2 O 0.40452 0.17407 0.40936 0.0
Zn3 Zn 0.40891 0.20901 0.37537 0.0
O4 O 0.3912 0.07921 0.4076 0.0
Zn5 Zn 0.39646 0.11741 0.37709 0.0
O6 O 0.43664 0.12956 0.37541 0.0
O7 O 0.44339 0.22867 0.37345 0.0
O8 O 0.3897 0.07255 0.34825 0.0
O9 O 0.40137 0.16792 0.34294 0.0
O10 O 0.38641 0.27565 0.37506 0.0
O11 O 0.36728 0.18665 0.37646 0.0
C12 C 0.45185 0.17472 0.37396 0.0
C13 C 0.36637 0.24524 0.37556 0.0
C14 C 0.70484 0.92175 0.37307 0.0
C15 C 0.6238 0.02459 0.37168 0.0
O16 O 0.70099 0.97801 0.36889 0.0
Zn17 Zn 0.66514 0.97666 0.3724 0.0
O18 O 0.68647 0.88679 0.37791 0.0
Zn19 Zn 0.64701 0.89216 0.38169 0.0
O20 O 0.63538 0.83759 0.35748 0.0
O21 O 0.65457 0.92016 0.34445 0.0
O22 O 0.62283 0.9679 0.37698 0.0
O23 O 0.64474 0.04923 0.36758 0.0
O24 O 0.66105 0.96161 0.40822 0.0
O25 O 0.64225 0.87355 0.41427 0.0
C26 C 0.64357 0.86939 0.34075 0.0
C27 C 0.65224 0.92183 0.42217 0.0
C28 C 0.37832 0.99818 0.08486 0.0
C29 C 0.38186 0.03226 0.16797 0.0
O30 O 0.38092 0.94764 0.09581 0.0
Zn31 Zn 0.38382 0.92012 0.13177 0.0
O32 O 0.37718 0.04765 0.09615 0.0
Zn33 Zn 0.38047 0.01407 0.12654 0.0
O34 O 0.41829 0.9818 0.1273 0.0
O35 O 0.4162 0.88248 0.13273 0.0
O36 O 0.37986 0.07035 0.15159 0.0
O37 O 0.38353 0.9751 0.16325 0.0
O38 O 0.35462 0.86864 0.13567 0.0
O39 O 0.34584 0.96605 0.13123 0.0
C40 C 0.42922 0.93028 0.12981 0.0
C41 C 0.33857 0.91091 0.13448 0.0
C42 C 0.65931 0.92738 0.17776 0.0
C43 C 0.67065 0.93467 0.09509 0.0
O44 O 0.65222 0.97868 0.16939 0.0
Zn45 Zn 0.65326 0.02395 0.13619 0.0
O46 O 0.67038 0.88907 0.16503 0.0
Zn47 Zn 0.66741 0.93391 0.13675 0.0
O48 O 0.69543 0.00216 0.13919 0.0
O49 O 0.67724 0.09172 0.13924 0.0
O50 O 0.67632 0.89237 0.10906 0.0
O51 O 0.66211 0.98533 0.10286 0.0
O52 O 0.61775 0.03974 0.13239 0.0
O53 O 0.62765 0.94205 0.13289 0.0
C54 C 0.69705 0.06043 0.13989 0.0
C55 C 0.6111 0.98393 0.13157 0.0
C56 C 0.65142 0.9333 0.59129 0.0
C57 C 0.65567 0.90947 0.67462 0.0
O58 O 0.66139 0.96966 0.6056 0.0
Zn59 Zn 0.65318 0.92504 0.63329 0.0
O60 O 0.6402 0.88549 0.59864 0.0
Zn61 Zn 0.63197 0.84191 0.63059 0.0
O62 O 0.59557 0.84725 0.63253 0.0
O63 O 0.61432 0.93614 0.63604 0.0
O64 O 0.64374 0.86663 0.66448 0.0
O65 O 0.66406 0.95439 0.66307 0.0
O66 O 0.6745 0.84354 0.62954 0.0
O67 O 0.64934 0.76428 0.62704 0.0
C68 C 0.59433 0.90466 0.63562 0.0
C69 C 0.67129 0.78586 0.62745 0.0
C70 C 0.37681 0.08148 0.58832 0.0
C71 C 0.36509 0.01192 0.66842 0.0
O72 O 0.36642 0.03219 0.59478 0.0
Zn73 Zn 0.36929 0.04687 0.62816 0.0
O74 O 0.38427 0.11942 0.6036 0.0
Zn75 Zn 0.38557 0.12748 0.6403 0.0
O76 O 0.42016 0.1349 0.6457 0.0
O77 O 0.40961 0.04382 0.63295 0.0
O78 O 0.37476 0.06516 0.66683 0.0
O79 O 0.35882 0.98394 0.65016 0.0
O80 O 0.34316 0.12234 0.63441 0.0
O81 O 0.36654 0.19799 0.64665 0.0
C82 C 0.42637 0.08125 0.63989 0.0
C83 C 0.34524 0.17769 0.64158 0.0
C84 C 0.66621 0.93747 0.92599 0.0
C85 C 0.66475 0.93343 0.84288 0.0
O86 O 0.66937 0.89369 0.91208 0.0
Zn87 Zn 0.66459 0.93781 0.88436 0.0
O88 O 0.66116 0.99083 0.9181 0.0
Zn89 Zn 0.65645 0.03045 0.88394 0.0
O90 O 0.62283 0.05893 0.88406 0.0
O91 O 0.62543 0.95867 0.88433 0.0
O92 O 0.66007 0.98758 0.85016 0.0
O93 O 0.66843 0.89094 0.85729 0.0
O94 O 0.69644 0.99803 0.883 0.0
O95 O 0.68186 0.09194 0.88295 0.0
C96 C 0.61219 0.00726 0.88411 0.0
C97 C 0.70024 0.05587 0.88252 0.0
C98 C 0.37556 0.9349 0.91653 0.0
C99 C 0.37661 0.91032 0.83292 0.0
O100 O 0.36629 0.9682 0.90089 0.0
Zn101 Zn 0.37659 0.92143 0.87474 0.0
O102 O 0.38716 0.886 0.91077 0.0
Zn103 Zn 0.39657 0.84028 0.87843 0.0
O104 O 0.43241 0.84097 0.87874 0.0
O105 O 0.41618 0.93265 0.87537 0.0
O106 O 0.38758 0.86554 0.84294 0.0
O107 O 0.36786 0.95338 0.84504 0.0
O108 O 0.35454 0.83917 0.87743 0.0
O109 O 0.38035 0.76203 0.88157 0.0
C110 C 0.43531 0.8983 0.877 0.0
C111 C 0.3583 0.78167 0.87993 0.0
C112 C 0.87041 0.5283 0.42253 0.0
C113 C 0.87586 0.51988 0.34061 0.0
O114 O 0.88285 0.57487 0.41541 0.0
Zn115 Zn 0.89353 0.60959 0.38113 0.0
O116 O 0.86098 0.49217 0.40804 0.0
Zn117 Zn 0.87347 0.53059 0.38158 0.0
O118 O 0.91383 0.51868 0.38528 0.0
O119 O 0.92861 0.61245 0.38371 0.0
O120 O 0.86571 0.48572 0.35542 0.0
O121 O 0.887 0.56881 0.34713 0.0
O122 O 0.87858 0.6881 0.37918 0.0
O123 O 0.85114 0.61384 0.37887 0.0
C124 C 0.93232 0.5557 0.38594 0.0
C125 C 0.85617 0.6712 0.37816 0.0
C126 C 0.16588 0.51484 0.41997 0.0
C127 C 0.15273 0.50907 0.33619 0.0
O128 O 0.16055 0.46194 0.41193 0.0
Zn129 Zn 0.15069 0.41926 0.37996 0.0
O130 O 0.16577 0.56114 0.40669 0.0
Zn131 Zn 0.15747 0.51655 0.3785 0.0
O132 O 0.12022 0.49219 0.38537 0.0
O133 O 0.11624 0.392 0.38473 0.0
O134 O 0.15616 0.55666 0.34833 0.0
O135 O 0.1504 0.45724 0.34618 0.0
O136 O 0.17838 0.36183 0.3772 0.0
O137 O 0.1893 0.45891 0.37492 0.0
C138 C 0.10664 0.44454 0.38723 0.0
C139 C 0.19522 0.40225 0.37475 0.0
C140 C 0.86011 0.45812 0.09116 0.0
C141 C 0.86165 0.45556 0.17468 0.0
O142 O 0.87396 0.41606 0.0994 0.0
Zn143 Zn 0.88544 0.3829 0.13207 0.0
O144 O 0.84879 0.49412 0.10472 0.0
Zn145 Zn 0.8605 0.45911 0.13312 0.0
O146 O 0.89898 0.48252 0.13298 0.0
O147 O 0.92144 0.39879 0.13189 0.0
O148 O 0.85024 0.49407 0.16223 0.0
O149 O 0.87474 0.41352 0.16539 0.0
O150 O 0.87165 0.30052 0.13227 0.0
O151 O 0.84259 0.37105 0.13363 0.0
C152 C 0.92029 0.45679 0.13265 0.0
C153 C 0.84876 0.31454 0.1333 0.0
C154 C 0.08435 0.65871 0.13711 0.0
C155 C 0.16764 0.75046 0.14002 0.0
O156 O 0.1015 0.62065 0.13189 0.0
Zn157 Zn 0.14135 0.62125 0.12874 0.0
O158 O 0.09027 0.71328 0.14213 0.0
Zn159 Zn 0.1259 0.70606 0.13877 0.0
O160 O 0.13041 0.69439 0.10238 0.0
O161 O 0.14632 0.60334 0.09616 0.0
O162 O 0.14699 0.77612 0.14427 0.0
O163 O 0.16792 0.69392 0.13426 0.0
O164 O 0.15086 0.5623 0.15207 0.0
O165 O 0.1357 0.64711 0.1668 0.0
C166 C 0.13838 0.65387 0.08831 0.0
C167 C 0.14497 0.59383 0.16963 0.0
C168 C 0.17161 0.53714 0.587 0.0
C169 C 0.15397 0.55297 0.66986 0.0
O170 O 0.1755 0.5835 0.59965 0.0
Zn171 Zn 0.16389 0.54726 0.6286 0.0
O172 O 0.16218 0.48868 0.59577 0.0
Zn173 Zn 0.14879 0.45624 0.62818 0.0
O174 O 0.11336 0.44481 0.62267 0.0
O175 O 0.12486 0.54144 0.62278 0.0
O176 O 0.14776 0.50186 0.6608 0.0
O177 O 0.1648 0.59314 0.65756 0.0
O178 O 0.19 0.47527 0.63499 0.0
O179 O 0.17061 0.38656 0.63362 0.0
C180 C 0.10777 0.50107 0.62102 0.0
C181 C 0.19053 0.41681 0.63639 0.0
C182 C 0.83797 0.60422 0.62978 0.0
C183 C 0.92824 0.57859 0.62759 0.0
O184 O 0.85438 0.64586 0.62853 0.0
Zn185 Zn 0.88322 0.59344 0.62942 0.0
O186 O 0.84475 0.54825 0.63125 0.0
Zn187 Zn 0.87877 0.4967 0.63201 0.0
O188 O 0.87786 0.45805 0.66211 0.0
O189 O 0.88198 0.55823 0.66343 0.0
O190 O 0.91658 0.52772 0.62941 0.0
O191 O 0.91606 0.62821 0.62723 0.0
O192 O 0.88039 0.54624 0.59768 0.0
O193 O 0.87544 0.44771 0.60447 0.0
C194 C 0.87992 0.50683 0.67378 0.0
C195 C 0.8775 0.49172 0.59028 0.0
C196 C 0.14388 0.66398 0.91885 0.0
C197 C 0.13911 0.63243 0.8351 0.0
O198 O 0.14812 0.60917 0.91227 0.0
Zn199 Zn 0.15042 0.55654 0.88132 0.0
O200 O 0.13952 0.70512 0.90386 0.0
Zn201 Zn 0.1419 0.65301 0.87672 0.0
O202 O 0.11106 0.59494 0.8825 0.0
O203 O 0.12286 0.4989 0.88627 0.0
O204 O 0.13687 0.68342 0.84534 0.0
O205 O 0.14377 0.58408 0.8467 0.0
O206 O 0.18574 0.53277 0.88111 0.0
O207 O 0.17977 0.63153 0.87673 0.0
C208 C 0.10568 0.5388 0.88607 0.0
C209 C 0.19457 0.58632 0.87851 0.0
C210 C 0.86785 0.42981 0.92284 0.0
C211 C 0.87743 0.43996 0.84093 0.0
O212 O 0.85961 0.46726 0.90816 0.0
Zn213 Zn 0.87297 0.42965 0.88199 0.0
O214 O 0.88087 0.38394 0.91606 0.0
Zn215 Zn 0.89355 0.35041 0.88215 0.0
O216 O 0.92908 0.34966 0.88518 0.0
O217 O 0.91264 0.44164 0.88659 0.0
O218 O 0.88843 0.39161 0.84812 0.0
O219 O 0.86608 0.47355 0.85513 0.0
O220 O 0.85119 0.34712 0.87931 0.0
O221 O 0.87815 0.27188 0.87961 0.0
C222 C 0.93177 0.40687 0.88733 0.0
C223 C 0.85584 0.28974 0.8787 0.0
H224 H 0.37766 0.03802 0.44984 0.0
H225 H 0.41696 0.21135 0.44774 0.0
H226 H 0.41549 0.217 0.48978 0.0
H227 H 0.33703 0.07689 0.49699 0.0
H228 H 0.33791 0.00271 0.5104 0.0
H229 H 0.34232 0.00977 0.47975 0.0
H230 H 0.38423 0.95314 0.48282 0.0
H231 H 0.37989 0.94565 0.51347 0.0
H232 H 0.40757 0.98121 0.50229 0.0
H233 H 0.40925 0.20789 0.53122 0.0
H234 H 0.39979 0.18219 0.5713 0.0
H235 H 0.36459 0.01365 0.54912 0.0
C236 C 0.38611 0.07682 0.45828 0.0
C237 C 0.39738 0.12432 0.44528 0.0
C238 C 0.4081 0.17444 0.45708 0.0
C239 C 0.4074 0.17819 0.48107 0.0
C240 C 0.39595 0.13145 0.49331 0.0
C241 C 0.38558 0.08146 0.48252 0.0
C242 C 0.3743 0.03821 0.50028 0.0
C243 C 0.34622 0.03152 0.49663 0.0
C244 C 0.38728 0.97585 0.49968 0.0
C245 C 0.37993 0.07217 0.52256 0.0
C246 C 0.39242 0.12584 0.51788 0.0
C247 C 0.39956 0.16587 0.53518 0.0
C248 C 0.39401 0.15073 0.55799 0.0
C249 C 0.38142 0.09578 0.56357 0.0
C250 C 0.37422 0.05597 0.54549 0.0
H251 H 0.63459 0.85924 0.5568 0.0
H252 H 0.6724 0.03132 0.56902 0.0
H253 H 0.67614 0.04702 0.527 0.0
H254 H 0.67116 0.81309 0.50865 0.0
H255 H 0.64561 0.77888 0.49344 0.0
H256 H 0.64522 0.78199 0.52442 0.0
H257 H 0.60299 0.83803 0.52341 0.0
H258 H 0.6032 0.83496 0.49242 0.0
H259 H 0.60002 0.90729 0.50687 0.0
H260 H 0.67637 0.04309 0.48405 0.0
H261 H 0.67314 0.0209 0.44274 0.0
H262 H 0.6353 0.85045 0.45829 0.0
C263 C 0.64355 0.90049 0.5507 0.0
C264 C 0.65317 0.94421 0.56622 0.0
C265 C 0.66487 0.99729 0.55747 0.0
C266 C 0.66708 0.00657 0.53365 0.0
C267 C 0.65751 0.96233 0.51889 0.0
C268 C 0.64596 0.91038 0.52705 0.0
C269 C 0.63762 0.86944 0.50752 0.0
C270 C 0.65069 0.80717 0.50858 0.0
C271 C 0.60927 0.86202 0.50756 0.0
C272 C 0.64636 0.90646 0.48703 0.0
C273 C 0.65773 0.95988 0.49403 0.0
C274 C 0.66747 0.00149 0.47836 0.0
C275 C 0.66552 0.98829 0.45488 0.0
C276 C 0.65394 0.93381 0.4472 0.0
C277 C 0.64424 0.89241 0.46357 0.0
H278 H 0.38895 0.90582 0.05397 0.0
H279 H 0.36288 0.09288 0.05794 0.0
H280 H 0.35874 0.09566 0.01571 0.0
H281 H 0.42527 0.92631 1.00218 0.0
H282 H 0.41803 0.85204 0.9907 0.0
H283 H 0.41842 0.86378 0.02139 0.0
H284 H 0.37344 0.82302 0.02432 0.0
H285 H 0.37289 0.81125 0.99363 0.0
H286 H 0.3495 0.85775 0.00716 0.0
H287 H 0.35675 0.07843 0.97331 0.0
H288 H 0.35905 0.04416 0.93301 0.0
H289 H 0.38782 0.86914 0.95563 0.0
C290 C 0.3823 0.94729 0.04595 0.0
C291 C 0.37616 0.99912 0.05935 0.0
C292 C 0.36774 0.05264 0.04812 0.0
C293 C 0.36526 0.05463 0.02411 0.0
C294 C 0.37144 0.00292 0.01144 0.0
C295 C 0.37996 0.95034 0.02188 0.0
C296 C 0.38589 0.90176 1.00406 0.0
C297 C 0.41355 0.885 1.00462 0.0
C298 C 0.36944 0.84509 0.0075 0.0
C299 C 0.37931 0.93529 0.98201 0.0
C300 C 0.37086 0.99342 0.98675 0.0
C301 C 0.3634 0.03307 0.96937 0.0
C302 C 0.36474 0.01304 0.94649 0.0
C303 C 0.37365 0.95394 0.94104 0.0
C304 C 0.38099 0.91462 0.95916 0.0
H305 H 0.65684 0.01724 0.96163 0.0
H306 H 0.68168 0.83283 0.94694 0.0
H307 H 0.68661 0.81356 0.98841 0.0
H308 H 0.69791 0.04485 0.00962 0.0
H309 H 0.67521 0.08683 0.02598 0.0
H310 H 0.67402 0.08708 0.99499 0.0
H311 H 0.62868 0.04798 0.99646 0.0
H312 H 0.62972 0.04777 0.02744 0.0
H313 H 0.62157 0.9791 0.01216 0.0
H314 H 0.6887 0.81339 0.03121 0.0
H315 H 0.68649 0.83153 0.07305 0.0
H316 H 0.6599 0.0155 0.06032 0.0
C317 C 0.66338 0.97289 0.96714 0.0
C318 C 0.66889 0.9266 0.951 0.0
C319 C 0.67728 0.86904 0.95894 0.0
C320 C 0.68022 0.85762 0.98248 0.0
C321 C 0.67465 0.90413 0.99791 0.0
C322 C 0.66632 0.96054 0.99064 0.0
C323 C 0.66115 0.00204 0.01094 0.0
C324 C 0.67809 0.05854 0.01034 0.0
C325 C 0.63365 0.02027 0.01179 0.0
C326 C 0.6678 0.95995 0.03069 0.0
C327 C 0.67566 0.90383 0.02275 0.0
C328 C 0.6826 0.85717 0.03768 0.0
C329 C 0.6813 0.86796 0.06141 0.0
C330 C 0.67303 0.92491 0.06999 0.0
C331 C 0.66635 0.97151 0.05433 0.0
H332 H 0.89251 0.57044 0.55691 0.0
H333 H 0.85883 0.39234 0.56717 0.0
H334 H 0.85314 0.38276 0.525 0.0
H335 H 0.85315 0.62076 0.51245 0.0
H336 H 0.8772 0.65986 0.49663 0.0
H337 H 0.87964 0.6514 0.52738 0.0
H338 H 0.92242 0.5992 0.52263 0.0
H339 H 0.92028 0.60814 0.49188 0.0
H340 H 0.92528 0.53358 0.50413 0.0
H341 H 0.84895 0.39611 0.48225 0.0
H342 H 0.84971 0.4262 0.44145 0.0
H343 H 0.88703 0.59534 0.45944 0.0
C344 C 0.88407 0.52913 0.55033 0.0
C345 C 0.87597 0.48214 0.56524 0.0
C346 C 0.86522 0.4287 0.55597 0.0
C347 C 0.86183 0.42306 0.53211 0.0
C348 C 0.86954 0.47103 0.51796 0.0
C349 C 0.88073 0.52265 0.52671 0.0
C350 C 0.8873 0.56781 0.50792 0.0
C351 C 0.87349 0.62853 0.51131 0.0
C352 C 0.91549 0.57773 0.50656 0.0
C353 C 0.87781 0.53382 0.48714 0.0
C354 C 0.86754 0.47826 0.49333 0.0
C355 C 0.85711 0.43925 0.47719 0.0
C356 C 0.85755 0.45702 0.45405 0.0
C357 C 0.86849 0.5132 0.44724 0.0
C358 C 0.87857 0.55218 0.46409 0.0
H359 H 0.15789 0.616 0.55219 0.0
H360 H 0.20011 0.45245 0.56669 0.0
H361 H 0.20757 0.43777 0.52518 0.0
H362 H 0.12675 0.55666 0.50511 0.0
H363 H 0.12646 0.62532 0.488 0.0
H364 H 0.12802 0.6303 0.51888 0.0
H365 H 0.16812 0.69487 0.51578 0.0
H366 H 0.1666 0.69045 0.48481 0.0
H367 H 0.19415 0.66592 0.49964 0.0
H368 H 0.20579 0.43177 0.48316 0.0
H369 H 0.19519 0.43492 0.44201 0.0
H370 H 0.15383 0.60208 0.45277 0.0
C371 C 0.16946 0.57856 0.54652 0.0
C372 C 0.17892 0.53593 0.56253 0.0
C373 C 0.19307 0.48591 0.55463 0.0
C374 C 0.19742 0.4773 0.53111 0.0
C375 C 0.18734 0.51894 0.51563 0.0
C376 C 0.17371 0.56878 0.52288 0.0
C377 C 0.16281 0.6025 0.50236 0.0
C378 C 0.13432 0.60373 0.50367 0.0
C379 C 0.17357 0.66729 0.50054 0.0
C380 C 0.17178 0.56263 0.48261 0.0
C381 C 0.18614 0.51517 0.49081 0.0
C382 C 0.19498 0.46931 0.47645 0.0
C383 C 0.18876 0.47134 0.45312 0.0
C384 C 0.17393 0.519 0.44422 0.0
C385 C 0.16569 0.56595 0.45908 0.0
H386 H 0.88662 0.36873 0.96042 0.0
H387 H 0.83727 0.51635 0.94092 0.0
H388 H 0.82945 0.53882 0.98175 0.0
H389 H 0.85122 0.31819 0.01024 0.0
H390 H 0.87841 0.30158 0.02707 0.0
H391 H 0.87957 0.2956 0.99615 0.0
H392 H 0.91679 0.37056 0.99515 0.0
H393 H 0.91567 0.37693 0.02603 0.0
H394 H 0.91381 0.44452 0.00842 0.0
H395 H 0.82771 0.5476 0.02463 0.0
H396 H 0.83194 0.54032 0.06692 0.0
H397 H 0.88234 0.38757 0.05838 0.0
C398 C 0.87402 0.40541 0.96474 0.0
C399 C 0.86259 0.44069 0.94746 0.0
C400 C 0.84632 0.48864 0.95384 0.0
C401 C 0.8417 0.50184 0.97701 0.0
C402 C 0.85345 0.46669 0.99362 0.0
C403 C 0.86921 0.41937 0.98784 0.0
C404 C 0.87981 0.38946 0.00911 0.0
C405 C 0.87176 0.32222 0.01073 0.0
C406 C 0.9082 0.39578 0.0097 0.0
C407 C 0.86763 0.42762 0.02765 0.0
C408 C 0.85247 0.47186 0.01838 0.0
C409 C 0.83947 0.51299 0.03215 0.0
C410 C 0.842 0.50859 0.05612 0.0
C411 C 0.85743 0.46344 0.06596 0.0
C412 C 0.87036 0.4226 0.05143 0.0
H413 H 0.15077 0.57728 0.05231 0.0
H414 H 0.12619 0.76153 0.06747 0.0
H415 H 0.12623 0.78566 0.02604 0.0
H416 H 0.19129 0.61688 1.00476 0.0
H417 H 0.18341 0.55016 0.9882 0.0
H418 H 0.18203 0.54755 0.01917 0.0
H419 H 0.13617 0.51249 0.01726 0.0
H420 H 0.13746 0.51482 0.9863 0.0
H421 H 0.11412 0.55778 1.00147 0.0
H422 H 0.12841 0.78978 0.98257 0.0
H423 H 0.13154 0.77167 0.94057 0.0
H424 H 0.15442 0.58514 0.954 0.0
C425 C 0.14547 0.62274 0.04694 0.0
C426 C 0.1385 0.66742 0.06324 0.0
C427 C 0.13159 0.72634 0.05539 0.0
C428 C 0.1316 0.74065 0.03185 0.0
C429 C 0.13854 0.69564 0.01625 0.0
C430 C 0.14529 0.63783 0.02345 0.0
C431 C 0.15145 0.5974 1.0031 0.0
C432 C 0.17866 0.5768 1.00386 0.0
C433 C 0.13374 0.54239 1.00197 0.0
C434 C 0.14697 0.64141 0.9834 0.0
C435 C 0.13965 0.69795 0.99129 0.0
C436 C 0.13419 0.74566 0.97618 0.0
C437 C 0.13605 0.73504 0.95236 0.0
C438 C 0.14322 0.6771 0.94391 0.0
C439 C 0.14891 0.63008 0.95979 0.0
H440 H 0.57669 0.97996 0.37589 0.0
H441 H 0.61758 0.1484 0.36503 0.0
H442 H 0.57795 0.2054 0.3642 0.0
H443 H 0.52542 0.01563 0.33878 0.0
H444 H 0.50288 0.97915 0.3572 0.0
H445 H 0.5344 0.95227 0.35671 0.0
H446 H 0.53724 0.96706 0.40089 0.0
H447 H 0.50576 0.99411 0.40152 0.0
H448 H 0.53028 0.04062 0.41316 0.0
H449 H 0.53352 0.24373 0.36544 0.0
H450 H 0.48836 0.26034 0.3677 0.0
H451 H 0.47696 0.0658 0.37735 0.0
C452 C 0.57744 0.02887 0.3733 0.0
C453 C 0.60033 0.05975 0.37057 0.0
C454 C 0.60031 0.12374 0.36714 0.0
C455 C 0.57789 0.15645 0.36667 0.0
C456 C 0.55569 0.12443 0.36955 0.0
C457 C 0.55534 0.06199 0.37271 0.0
C458 C 0.52912 0.0381 0.37541 0.0
C459 C 0.52258 0.99367 0.35586 0.0
C460 C 0.52539 0.00823 0.39916 0.0
C461 C 0.51464 0.09692 0.37342 0.0
C462 C 0.53028 0.14624 0.37007 0.0
C463 C 0.52115 0.20539 0.36799 0.0
C464 C 0.49542 0.21433 0.36934 0.0
C465 C 0.47902 0.16438 0.37268 0.0
C466 C 0.48892 0.10496 0.37472 0.0
H467 H 0.46294 0.02522 0.12941 0.0
H468 H 0.45792 0.8274 0.12927 0.0
H469 H 0.50354 0.82081 0.12864 0.0
H470 H 0.51637 0.03765 0.09168 0.0
H471 H 0.52991 0.10052 0.10721 0.0
H472 H 0.49677 0.09024 0.10711 0.0
H473 H 0.49642 0.08864 0.15169 0.0
H474 H 0.52954 0.099 0.15193 0.0
H475 H 0.5158 0.035 0.16677 0.0
H476 H 0.54934 0.83491 0.12829 0.0
H477 H 0.59279 0.86817 0.12936 0.0
H478 H 0.56913 0.05759 0.13033 0.0
C479 C 0.47142 0.98049 0.12914 0.0
C480 C 0.45674 0.92674 0.12932 0.0
C481 C 0.46866 0.86919 0.12914 0.0
C482 C 0.4946 0.86497 0.12874 0.0
C483 C 0.50847 0.91869 0.1286 0.0
C484 C 0.49737 0.9754 0.12887 0.0
C485 C 0.51673 0.02591 0.12918 0.0
C486 C 0.51483 0.06594 0.1075 0.0
C487 C 0.51448 0.0644 0.15121 0.0
C488 C 0.54044 0.98864 0.12909 0.0
C489 C 0.53513 0.92692 0.12865 0.0
C490 C 0.55373 0.88311 0.12862 0.0
C491 C 0.57844 0.90265 0.12922 0.0
C492 C 0.58456 0.96565 0.12992 0.0
C493 C 0.56517 0.00917 0.12974 0.0
H494 H 0.54628 0.86545 0.62587 0.0
H495 H 0.58846 0.01774 0.65345 0.0
H496 H 0.55021 0.07655 0.65809 0.0
H497 H 0.50347 0.95615 0.59359 0.0
H498 H 0.47684 0.90873 0.59939 0.0
H499 H 0.5074 0.87577 0.5991 0.0
H500 H 0.50051 0.83407 0.64037 0.0
H501 H 0.46988 0.86672 0.64075 0.0
H502 H 0.4917 0.88584 0.66305 0.0
H503 H 0.50867 0.12129 0.65868 0.0
H504 H 0.46483 0.14978 0.65569 0.0
H505 H 0.44777 0.97074 0.6277 0.0
C506 C 0.54736 0.91088 0.63311 0.0
C507 C 0.57047 0.93687 0.63924 0.0
C508 C 0.5711 0.99676 0.64846 0.0
C509 C 0.54943 0.03068 0.65125 0.0
C510 C 0.52709 0.00439 0.64476 0.0
C511 C 0.52571 0.94593 0.63594 0.0
C512 C 0.49909 0.92999 0.62983 0.0
C513 C 0.49656 0.9169 0.60394 0.0
C514 C 0.48974 0.87594 0.64437 0.0
C515 C 0.48597 0.98884 0.63644 0.0
C516 C 0.50261 0.03081 0.64507 0.0
C517 C 0.49537 0.0888 0.65205 0.0
C518 C 0.47036 0.10457 0.65023 0.0
C519 C 0.45274 0.06262 0.64147 0.0
C520 C 0.46074 0.00383 0.63451 0.0
H521 H 0.58335 0.90364 0.88456 0.0
H522 H 0.57897 0.1014 0.88175 0.0
H523 H 0.53341 0.09467 0.87939 0.0
H524 H 0.5342 0.8736 0.84471 0.0
H525 H 0.52265 0.80801 0.86016 0.0
H526 H 0.55497 0.82817 0.86188 0.0
H527 H 0.55179 0.83253 0.90638 0.0
H528 H 0.51949 0.81217 0.9048 0.0
H529 H 0.52877 0.88069 0.91962 0.0
H530 H 0.48848 0.06672 0.87681 0.0
H531 H 0.44702 0.01963 0.87518 0.0
H532 H 0.48041 0.83984 0.8799 0.0
C533 C 0.57283 0.94559 0.88351 0.0
C534 C 0.58479 0.0031 0.88334 0.0
C535 C 0.57028 0.05682 0.88194 0.0
C536 C 0.54438 0.05349 0.88056 0.0
C537 C 0.53322 0.99612 0.88065 0.0
C538 C 0.54694 0.94313 0.88217 0.0
C539 C 0.53034 0.88726 0.88196 0.0
C540 C 0.53587 0.84689 0.86092 0.0
C541 C 0.53274 0.85104 0.90453 0.0
C542 C 0.50513 0.91716 0.88004 0.0
C543 C 0.50724 0.97997 0.87927 0.0
C544 C 0.48658 0.01758 0.87744 0.0
C545 C 0.46309 0.99031 0.87649 0.0
C546 C 0.46039 0.92597 0.87741 0.0
C547 C 0.4818 0.8891 0.87915 0.0
H548 H 0.96059 0.46445 0.3659 0.0
H549 H 0.96072 0.60199 0.41948 0.0
H550 H 1.00391 0.57625 0.42899 0.0
H551 H 1.00331 0.35354 0.39499 0.0
H552 H 0.01904 0.33461 0.36853 0.0
H553 H 0.98682 0.35632 0.36807 0.0
H554 H 0.99687 0.44192 0.3387 0.0
H555 H 0.02903 0.42045 0.33906 0.0
H556 H 0.02024 0.49785 0.34559 0.0
H557 H 0.04738 0.54581 0.43013 0.0
H558 H 0.0903 0.51496 0.42175 0.0
H559 H 0.06434 0.3969 0.36701 0.0
C560 C 0.96964 0.48774 0.38 0.0
C561 C 0.95736 0.53469 0.39221 0.0
C562 C 0.96986 0.56574 0.41007 0.0
C563 C 0.99432 0.55119 0.41566 0.0
C564 C 1.00618 0.50567 0.40312 0.0
C565 C 0.99443 0.47439 0.38559 0.0
C566 C 1.01256 0.43232 0.3733 0.0
C567 C 1.00497 0.3652 0.37641 0.0
C568 C 1.0148 0.44917 0.34765 0.0
C569 C 0.03638 0.44643 0.38623 0.0
C570 C 0.03198 0.48818 0.4036 0.0
C571 C 0.05103 0.51232 0.41688 0.0
C572 C 0.07534 0.49459 0.41198 0.0
C573 C 0.0805 0.45294 0.39403 0.0
C574 C 0.06074 0.42744 0.38127 0.0
H575 H 0.06556 0.54248 0.13107 0.0
H576 H 0.04324 0.72994 0.14347 0.0
H577 H 0.9994 0.69788 0.14348 0.0
H578 H 1.01526 0.50275 0.09313 0.0
H579 H 1.01182 0.42637 0.10425 0.0
H580 H 0.0416 0.46362 0.10513 0.0
H581 H 0.04374 0.44567 0.14915 0.0
H582 H 1.01399 0.40832 0.14841 0.0
H583 H 0.01886 0.47246 0.16727 0.0
H584 H 0.95821 0.64671 0.14174 0.0
H585 H 0.92185 0.57962 0.13934 0.0
H586 H 0.96997 0.42334 0.12868 0.0
C587 C 0.05146 0.57685 0.13377 0.0
C588 C 0.05794 0.63895 0.13723 0.0
C589 C 0.03885 0.68224 0.14079 0.0
C590 C 1.01385 0.66445 0.1408 0.0
C591 C 1.00814 0.60308 0.13733 0.0
C592 C 0.02634 0.5598 0.13395 0.0
C593 C 1.01502 0.49672 0.13082 0.0
C594 C 0.0213 0.47086 0.10691 0.0
C595 C 0.0234 0.45323 0.15006 0.0
C596 C 0.9876 0.51141 0.1329 0.0
C597 C 0.98417 0.57315 0.13659 0.0
C598 C 0.96066 0.5983 0.1389 0.0
C599 C 0.94006 0.55955 0.13746 0.0
C600 C 0.94289 0.49589 0.1338 0.0
C601 C 0.96711 0.47164 0.13152 0.0
H602 H 0.95994 0.48103 0.63138 0.0
H603 H 0.95855 0.67621 0.61837 0.0
H604 H 1.00401 0.67576 0.61339 0.0
H605 H 1.01624 0.48046 0.66408 0.0
H606 H 0.02687 0.40863 0.65268 0.0
H607 H 0.99416 0.42403 0.65464 0.0
H608 H 0.98956 0.40205 0.61104 0.0
H609 H 0.02231 0.38698 0.60891 0.0
H610 H 1.00832 0.44382 0.59066 0.0
H611 H 0.04933 0.65464 0.61011 0.0
H612 H 0.09205 0.61583 0.61071 0.0
H613 H 0.06455 0.43388 0.62617 0.0
C614 C 0.96916 0.52373 0.62745 0.0
C615 C 0.95562 0.57873 0.62522 0.0
C616 C 0.96847 0.63357 0.62019 0.0
C617 C 0.99429 0.63372 0.61725 0.0
C618 C 1.00701 0.5787 0.61942 0.0
C619 C 0.99494 0.52476 0.62454 0.0
C620 C 1.01312 0.47225 0.62657 0.0
C621 C 1.01256 0.44474 0.65094 0.0
C622 C 1.00802 0.42339 0.6082 0.0
C623 C 0.03736 0.5052 0.62189 0.0
C624 C 0.03331 0.5665 0.61768 0.0
C625 C 0.05273 0.60674 0.61335 0.0
C626 C 0.07697 0.58411 0.61373 0.0
C627 C 0.08173 0.5217 0.61847 0.0
C628 C 0.06155 0.48163 0.62228 0.0
H629 H 0.08005 0.4304 0.87814 0.0
H630 H 0.0719 0.61433 0.90486 0.0
H631 H 0.02728 0.59765 0.91 0.0
H632 H 0.02467 0.42981 0.84596 0.0
H633 H 1.01644 0.35157 0.85185 0.0
H634 H 0.04848 0.37461 0.85217 0.0
H635 H 0.053 0.33312 0.89371 0.0
H636 H 0.02098 0.30954 0.89346 0.0
H637 H 0.03211 0.35932 0.91586 0.0
H638 H 0.9836 0.56672 0.90911 0.0
H639 H 0.94248 0.51997 0.90387 0.0
H640 H 0.97731 0.35464 0.87841 0.0
C641 C 0.06889 0.46648 0.88551 0.0
C642 C 0.07946 0.5237 0.89104 0.0
C643 C 0.06421 0.57027 0.90031 0.0
C644 C 0.03881 0.56125 0.90341 0.0
C645 C 0.02878 0.50526 0.89724 0.0
C646 C 0.04321 0.45833 0.88866 0.0
C647 C 0.02715 0.40386 0.88237 0.0
C648 C 0.02932 0.38912 0.85655 0.0
C649 C 0.0337 0.34816 0.89724 0.0
C650 C 1.00158 0.4283 0.88836 0.0
C651 C 1.0031 0.48685 0.89697 0.0
C652 C 0.98211 0.52055 0.90267 0.0
C653 C 0.95882 0.49371 0.89952 0.0
C654 C 0.95667 0.43363 0.89085 0.0
C655 C 0.97839 0.4004 0.88534 0.0
H656 H 0.21827 0.28939 0.38024 0.0
H657 H 0.23264 0.47978 0.36374 0.0
H658 H 0.27715 0.4589 0.36183 0.0
H659 H 0.27122 0.2682 0.41625 0.0
H660 H 0.27796 0.19192 0.40653 0.0
H661 H 0.24662 0.21999 0.40577 0.0
H662 H 0.24412 0.19572 0.36222 0.0
H663 H 0.27542 0.16722 0.36287 0.0
H664 H 0.26714 0.22682 0.34292 0.0
H665 H 0.31982 0.4211 0.36347 0.0
H666 H 0.35923 0.36585 0.36665 0.0
H667 H 0.31901 0.19817 0.38132 0.0
C668 C 0.23079 0.3264 0.37598 0.0
C669 C 0.22182 0.38631 0.37222 0.0
C670 C 0.23889 0.43356 0.36682 0.0
C671 C 0.26432 0.42225 0.36566 0.0
C672 C 0.27259 0.36331 0.36982 0.0
C673 C 0.25649 0.31589 0.3747 0.0
C674 C 0.27075 0.25705 0.37873 0.0
C675 C 0.26637 0.23288 0.40328 0.0
C676 C 0.26395 0.20885 0.3606 0.0
C677 C 0.29725 0.27937 0.37557 0.0
C678 C 0.29771 0.3409 0.37047 0.0
C679 C 0.31977 0.37277 0.3673 0.0
C680 C 0.3421 0.34091 0.36924 0.0
C681 C 0.3423 0.2776 0.37421 0.0
C682 C 0.31949 0.24648 0.37741 0.0
H683 H 0.7178 0.80154 0.3775 0.0
H684 H 0.74921 0.98213 0.3672 0.0
H685 H 0.79127 0.93722 0.36686 0.0
H686 H 0.76454 0.74511 0.41527 0.0
H687 H 0.7641 0.66901 0.40354 0.0
H688 H 0.73658 0.71527 0.40258 0.0
H689 H 0.73432 0.70097 0.35836 0.0
H690 H 0.76184 0.65459 0.35916 0.0
H691 H 0.76074 0.72091 0.34081 0.0
H692 H 0.82984 0.87265 0.36862 0.0
H693 H 0.86214 0.79382 0.37158 0.0
H694 H 0.80542 0.65476 0.3802 0.0
C695 C 0.73348 0.83185 0.37514 0.0
C696 C 0.73018 0.89555 0.37243 0.0
C697 C 0.75125 0.93329 0.3693 0.0
C698 C 0.7752 0.90816 0.36909 0.0
C699 C 0.77774 0.84522 0.37191 0.0
C700 C 0.75743 0.80756 0.37479 0.0
C701 C 0.76515 0.74143 0.37753 0.0
C702 C 0.75712 0.71625 0.40113 0.0
C703 C 0.7549 0.70217 0.35779 0.0
C704 C 0.79306 0.74769 0.37592 0.0
C705 C 0.79991 0.80795 0.37269 0.0
C706 C 0.82467 0.82534 0.37106 0.0
C707 C 0.8429 0.78007 0.37281 0.0
C708 C 0.83638 0.71789 0.3761 0.0
C709 C 0.81104 0.70172 0.37759 0.0
H710 H 0.21517 0.70646 0.13565 0.0
H711 H 0.17371 0.87356 0.14672 0.0
H712 H 0.21291 0.93197 0.14716 0.0
H713 H 0.26714 0.74555 0.17238 0.0
H714 H 0.28973 0.71026 0.15378 0.0
H715 H 0.25846 0.68144 0.15471 0.0
H716 H 0.25489 0.69551 0.11056 0.0
H717 H 0.28613 0.72447 0.10949 0.0
H718 H 0.26105 0.76932 0.09803 0.0
H719 H 0.25645 0.97278 0.14485 0.0
H720 H 0.30126 0.99296 0.14138 0.0
H721 H 0.31481 0.79906 0.1328 0.0
C722 C 0.21429 0.75533 0.13827 0.0
C723 C 0.19126 0.7854 0.14113 0.0
C724 C 0.19105 0.84941 0.14453 0.0
C725 C 0.21324 0.88301 0.14478 0.0
C726 C 0.23556 0.85198 0.14176 0.0
C727 C 0.23628 0.78953 0.13871 0.0
C728 C 0.26273 0.76733 0.13575 0.0
C729 C 0.26993 0.72356 0.15533 0.0
C730 C 0.26641 0.7374 0.11205 0.0
C731 C 0.27679 0.82715 0.13743 0.0
C732 C 0.26072 0.87539 0.14084 0.0
C733 C 0.2692 0.93531 0.14232 0.0
C734 C 0.29473 0.94629 0.14027 0.0
C735 C 0.31165 0.89764 0.13689 0.0
C736 C 0.30244 0.83723 0.13556 0.0
H737 H 0.70944 0.1837 0.13772 0.0
H738 H 0.74168 0.00278 0.14306 0.0
H739 H 0.78346 0.04768 0.14206 0.0
H740 H 0.75468 0.24484 0.09855 0.0
H741 H 0.75538 0.31954 0.11149 0.0
H742 H 0.72767 0.27378 0.11325 0.0
H743 H 0.72804 0.28297 0.1577 0.0
H744 H 0.75569 0.329 0.15606 0.0
H745 H 0.75535 0.26074 0.1734 0.0
H746 H 0.82213 0.11133 0.13935 0.0
H747 H 0.85477 0.19026 0.13642 0.0
H748 H 0.79808 0.33038 0.13316 0.0
C749 C 0.72527 0.15358 0.13886 0.0
C750 C 0.72208 0.08951 0.14049 0.0
C751 C 0.74343 0.05191 0.14181 0.0
C752 C 0.76736 0.07698 0.14124 0.0
C753 C 0.76988 0.14 0.13938 0.0
C754 C 0.74945 0.17795 0.13833 0.0
C755 C 0.75749 0.24421 0.13621 0.0
C756 C 0.74825 0.27223 0.11352 0.0
C757 C 0.74862 0.28141 0.15709 0.0
C758 C 0.78552 0.23735 0.13614 0.0
C759 C 0.79226 0.17682 0.13796 0.0
C760 C 0.81708 0.15896 0.138 0.0
C761 C 0.83552 0.20416 0.13628 0.0
C762 C 0.82913 0.26667 0.13458 0.0
C763 C 0.8037 0.2831 0.13449 0.0
H764 H 0.71973 0.82184 0.62624 0.0
H765 H 0.67327 0.65988 0.62663 0.0
H766 H 0.71096 0.59532 0.62685 0.0
H767 H 0.76787 0.76287 0.58923 0.0
H768 H 0.79228 0.80122 0.60466 0.0
H769 H 0.76166 0.83376 0.60386 0.0
H770 H 0.76054 0.83592 0.64847 0.0
H771 H 0.79109 0.80314 0.64943 0.0
H772 H 0.76579 0.76641 0.66433 0.0
H773 H 0.75415 0.54907 0.62828 0.0
H774 H 0.79875 0.52462 0.62975 0.0
H775 H 0.8164 0.71797 0.62835 0.0
C776 C 0.71734 0.77277 0.62623 0.0
C777 C 0.69346 0.74592 0.6264 0.0
C778 C 0.69133 0.6815 0.62642 0.0
C779 C 0.71264 0.64453 0.62659 0.0
C780 C 0.73587 0.67274 0.62667 0.0
C781 C 0.73828 0.73545 0.62639 0.0
C782 C 0.76523 0.75485 0.62682 0.0
C783 C 0.77216 0.79025 0.60483 0.0
C784 C 0.77099 0.79228 0.64856 0.0
C785 C 0.77776 0.6932 0.62751 0.0
C786 C 0.76054 0.64637 0.62742 0.0
C787 C 0.76775 0.58542 0.62827 0.0
C788 C 0.79317 0.57204 0.62915 0.0
C789 C 0.81117 0.61936 0.62915 0.0
C790 C 0.8032 0.6807 0.62833 0.0
H791 H 0.20493 0.29801 0.62627 0.0
H792 H 0.23068 0.46728 0.65686 0.0
H793 H 0.27177 0.42191 0.66292 0.0
H794 H 0.24103 0.19433 0.66338 0.0
H795 H 0.24796 0.14191 0.64037 0.0
H796 H 0.21966 0.18548 0.63981 0.0
H797 H 0.2314 0.22776 0.59958 0.0
H798 H 0.25975 0.18453 0.60005 0.0
H799 H 0.26074 0.26595 0.59567 0.0
H800 H 0.31022 0.36232 0.66421 0.0
H801 H 0.34492 0.29101 0.6605 0.0
H802 H 0.29615 0.15803 0.62847 0.0
C803 C 0.21914 0.32503 0.63457 0.0
C804 C 0.21451 0.38625 0.64118 0.0
C805 C 0.23372 0.42046 0.65161 0.0
C806 C 0.25715 0.39503 0.65521 0.0
C807 C 0.26127 0.3352 0.64821 0.0
C808 C 0.24292 0.30038 0.63812 0.0
C809 C 0.25298 0.23809 0.63124 0.0
C810 C 0.23961 0.18692 0.6445 0.0
C811 C 0.2511 0.22855 0.60508 0.0
C812 C 0.27986 0.24396 0.63883 0.0
C813 C 0.28399 0.30038 0.6487 0.0
C814 C 0.30722 0.31785 0.65662 0.0
C815 C 0.32688 0.27683 0.65435 0.0
C816 C 0.32342 0.21864 0.64417 0.0
C817 C 0.29944 0.20194 0.63643 0.0
H818 H 0.71517 0.17594 0.88225 0.0
H819 H 0.74331 0.99046 0.87995 0.0
H820 H 0.78604 0.03026 0.87773 0.0
H821 H 0.75961 0.24111 0.84264 0.0
H822 H 0.76225 0.31192 0.8582 0.0
H823 H 0.73377 0.26899 0.8593 0.0
H824 H 0.73601 0.26665 0.90387 0.0
H825 H 0.76445 0.30967 0.9029 0.0
H826 H 0.76341 0.23731 0.91766 0.0
H827 H 0.82569 0.08988 0.87622 0.0
H828 H 0.85965 0.16536 0.87615 0.0
H829 H 0.80574 0.31208 0.87942 0.0
C830 C 0.73029 0.14363 0.88124 0.0
C831 C 0.72585 0.08002 0.88126 0.0
C832 C 0.74621 0.03937 0.87997 0.0
C833 C 0.77056 0.06151 0.87867 0.0
C834 C 0.77427 0.12441 0.87867 0.0
C835 C 0.75473 0.16493 0.87995 0.0
C836 C 0.76382 0.23038 0.87998 0.0
C837 C 0.7543 0.26513 0.85876 0.0
C838 C 0.75649 0.2629 0.90244 0.0
C839 C 0.79155 0.22028 0.87861 0.0
C840 C 0.79716 0.15883 0.87781 0.0
C841 C 0.82153 0.13814 0.87679 0.0
C842 C 0.84069 0.18142 0.87675 0.0
C843 C 0.83539 0.24469 0.87775 0.0
C844 C 0.81043 0.26411 0.87855 0.0
H845 H 0.21598 0.69733 0.87338 0.0
H846 H 0.23429 0.5064 0.88356 0.0
H847 H 0.27901 0.53427 0.8848 0.0
H848 H 0.26714 0.73699 0.83721 0.0
H849 H 0.27031 0.81177 0.84976 0.0
H850 H 0.24042 0.77521 0.84903 0.0
H851 H 0.23642 0.78781 0.89329 0.0
H852 H 0.26633 0.82415 0.8942 0.0
H853 H 0.26031 0.75778 0.91171 0.0
H854 H 0.32229 0.58677 0.8855 0.0
H855 H 0.3586 0.65636 0.88538 0.0
H856 H 0.3095 0.81068 0.87539 0.0
C857 C 0.22923 0.66082 0.87575 0.0
C858 C 0.22156 0.59949 0.87833 0.0
C859 C 0.23973 0.55367 0.88147 0.0
C860 C 0.26513 0.56916 0.88222 0.0
C861 C 0.27189 0.63054 0.87985 0.0
C862 C 0.25429 0.67537 0.87665 0.0
C863 C 0.26571 0.73814 0.87498 0.0
C864 C 0.26059 0.7672 0.85134 0.0
C865 C 0.25666 0.77937 0.89472 0.0
C866 C 0.29268 0.72217 0.87769 0.0
C867 C 0.29609 0.66005 0.88047 0.0
C868 C 0.31972 0.63539 0.88332 0.0
C869 C 0.34022 0.67528 0.88326 0.0
C870 C 0.33692 0.73907 0.8804 0.0
C871 C 0.31276 0.76229 0.87764 0.0
H872 H 0.39248 0.0135 0.30645 0.0
H873 H 0.38728 0.21134 0.30544 0.0
H874 H 0.38255 0.2096 0.2635 0.0
H875 H 0.42839 0.00095 0.25446 0.0
H876 H 0.41326 0.93276 0.2443 0.0
H877 H 0.415 0.94785 0.27474 0.0
H878 H 0.36726 0.93905 0.27799 0.0
H879 H 0.36538 0.92376 0.24756 0.0
H880 H 0.34798 0.98588 0.25987 0.0
H881 H 0.37955 0.18909 0.22209 0.0
H882 H 0.37854 0.15008 0.1825 0.0
H883 H 0.38615 0.96487 0.20835 0.0
C884 C 0.3901 0.05625 0.29737 0.0
C885 C 0.39031 0.11258 0.30935 0.0
C886 C 0.38738 0.1676 0.29677 0.0
C887 C 0.38458 0.1672 0.27287 0.0
C888 C 0.38479 0.11141 0.26155 0.0
C889 C 0.38746 0.05681 0.27322 0.0
C890 C 0.38781 0.00368 0.25636 0.0
C891 C 0.41259 0.96929 0.25754 0.0
C892 C 0.3658 0.96054 0.26071 0.0
C893 C 0.38508 0.03731 0.23355 0.0
C894 C 0.38326 0.0994 0.23713 0.0
C895 C 0.38088 0.14052 0.21901 0.0
C896 C 0.38035 0.11779 0.19652 0.0
C897 C 0.38226 0.05435 0.19217 0.0
C898 C 0.38461 0.01359 0.21105 0.0
H899 H 0.68885 0.88594 0.21259 0.0
H900 H 0.61295 0.9307 0.19547 0.0
H901 H 0.59945 0.89951 0.23453 0.0
H902 H 0.67642 0.75749 0.25242 0.0
H903 H 0.70031 0.78075 0.2722 0.0
H904 H 0.70355 0.79683 0.24189 0.0
H905 H 0.70922 0.91205 0.25067 0.0
H906 H 0.70652 0.89594 0.28091 0.0
H907 H 0.68619 0.95094 0.26773 0.0
H908 H 0.59456 0.86947 0.27593 0.0
H909 H 0.59971 0.86246 0.31822 0.0
H910 H 0.67903 0.84553 0.30924 0.0
C911 C 0.66938 0.88815 0.21708 0.0
C912 C 0.65182 0.90997 0.20119 0.0
C913 C 0.62658 0.91397 0.2076 0.0
C914 C 0.61874 0.8957 0.22959 0.0
C915 C 0.63647 0.87432 0.24501 0.0
C916 C 0.66135 0.87171 0.2392 0.0
C917 C 0.67705 0.85557 0.25987 0.0
C918 C 0.6901 0.79398 0.25638 0.0
C919 C 0.69583 0.90667 0.26511 0.0
C920 C 0.65721 0.85108 0.27831 0.0
C921 C 0.63383 0.85997 0.26925 0.0
C922 C 0.61272 0.86154 0.2832 0.0
C923 C 0.61573 0.85687 0.30714 0.0
C924 C 0.63966 0.85193 0.3167 0.0
C925 C 0.66051 0.84727 0.30212 0.0
H926 H 0.66189 0.01399 0.80637 0.0
H927 H 0.66968 0.82159 0.82307 0.0
H928 H 0.67052 0.79669 0.78185 0.0
H929 H 0.62179 0.99426 0.75839 0.0
H930 H 0.63546 0.05435 0.74133 0.0
H931 H 0.63653 0.05823 0.77227 0.0
H932 H 0.68433 0.06863 0.77062 0.0
H933 H 0.68342 0.06468 0.73964 0.0
H934 H 0.70229 0.01181 0.75562 0.0
H935 H 0.66784 0.79078 0.73972 0.0
H936 H 0.66278 0.80451 0.69794 0.0
H937 H 0.65835 0.00068 0.70726 0.0
C938 C 0.66391 0.9667 0.80133 0.0
C939 C 0.6657 0.91975 0.81799 0.0
C940 C 0.66831 0.85841 0.81069 0.0
C941 C 0.66884 0.84372 0.78729 0.0
C942 C 0.66695 0.89086 0.77136 0.0
C943 C 0.66466 0.95113 0.77794 0.0
C944 C 0.66242 0.99256 0.75708 0.0
C945 C 0.63757 0.02685 0.75729 0.0
C946 C 0.68443 0.03705 0.75566 0.0
C947 C 0.66339 0.94584 0.73785 0.0
C948 C 0.66602 0.88754 0.74661 0.0
C949 C 0.66605 0.83619 0.73258 0.0
C950 C 0.66308 0.84445 0.70891 0.0
C951 C 0.66032 0.90361 0.69947 0.0
C952 C 0.66083 0.95509 0.71407 0.0
H953 H 0.36998 0.01064 0.80552 0.0
H954 H 0.37757 0.81382 0.80282 0.0
H955 H 0.37237 0.81698 0.76045 0.0
H956 H 0.32473 0.02733 0.76018 0.0
H957 H 0.33852 0.09628 0.749 0.0
H958 H 0.34139 0.07788 0.77912 0.0
H959 H 0.38922 0.08537 0.77591 0.0
H960 H 0.38649 0.10425 0.74586 0.0
H961 H 0.40523 0.04034 0.7546 0.0
H962 H 0.36595 0.84274 0.71785 0.0
H963 H 0.36373 0.88944 0.67899 0.0
H964 H 0.36278 0.06929 0.71004 0.0
C965 C 0.37036 0.96811 0.79604 0.0
C966 C 0.37397 0.91189 0.80749 0.0
C967 C 0.37482 0.8574 0.7944 0.0
C968 C 0.37175 0.85875 0.77035 0.0
C969 C 0.36813 0.91503 0.7596 0.0
C970 C 0.36777 0.96876 0.77205 0.0
C971 C 0.36516 0.02364 0.75638 0.0
C972 C 0.34101 0.05831 0.76148 0.0
C973 C 0.38788 0.06586 0.7583 0.0
C974 C 0.36417 0.99258 0.73313 0.0
C975 C 0.36551 0.92987 0.73529 0.0
C976 C 0.36493 0.89182 0.71601 0.0
C977 C 0.36352 0.91868 0.69401 0.0
C978 C 0.3631 0.98295 0.69147 0.0
C979 C 0.36311 0.02 0.71139 0.0
H980 H 0.86378 0.55508 0.20355 0.0
H981 H 0.85684 0.3578 0.20217 0.0
H982 H 0.85965 0.35454 0.24443 0.0
H983 H 0.90901 0.55984 0.24754 0.0
H984 H 0.89733 0.62729 0.26157 0.0
H985 H 0.89228 0.61629 0.23122 0.0
H986 H 0.8449 0.62741 0.23717 0.0
H987 H 0.84984 0.63944 0.2675 0.0
H988 H 0.82933 0.57962 0.25797 0.0
H989 H 0.86542 0.37018 0.28542 0.0
H990 H 0.8718 0.40463 0.3251 0.0
H991 H 0.87661 0.59254 0.30152 0.0
C992 C 0.86223 0.5116 0.21232 0.0
C993 C 0.85988 0.45664 0.19984 0.0
C994 C 0.85857 0.40024 0.2116 0.0
C995 C 0.86017 0.39793 0.23553 0.0
C996 C 0.86327 0.45245 0.24737 0.0
C997 C 0.86416 0.50836 0.23636 0.0
C998 C 0.86884 0.55943 0.25347 0.0
C999 C 0.89332 0.59266 0.24812 0.0
C1000 C 0.84692 0.60411 0.25406 0.0
C1001 C 0.87059 0.52313 0.27568 0.0
C1002 C 0.86722 0.46158 0.27155 0.0
C1003 C 0.86793 0.41825 0.28898 0.0
C1004 C 0.87161 0.43834 0.31144 0.0
C1005 C 0.87464 0.50121 0.31633 0.0
C1006 C 0.87454 0.5442 0.29818 0.0
H1007 H 0.14707 0.60939 0.30752 0.0
H1008 H 0.15841 0.41325 0.30693 0.0
H1009 H 0.15893 0.41412 0.26459 0.0
H1010 H 0.10575 0.61249 0.25893 0.0
H1011 H 0.11756 0.68355 0.24769 0.0
H1012 H 0.11894 0.66829 0.27813 0.0
H1013 H 0.16635 0.68729 0.27752 0.0
H1014 H 0.16511 0.70246 0.24705 0.0
H1015 H 0.18557 0.64437 0.25795 0.0
H1016 H 0.15863 0.4355 0.22222 0.0
H1017 H 0.15497 0.47595 0.18262 0.0
H1018 H 0.1423 0.65726 0.21028 0.0
C1019 C 0.14974 0.56674 0.29846 0.0
C1020 C 0.15271 0.5113 0.31063 0.0
C1021 C 0.15597 0.45635 0.29808 0.0
C1022 C 0.1564 0.4563 0.27398 0.0
C1023 C 0.15339 0.5115 0.2625 0.0
C1024 C 0.14993 0.56569 0.27426 0.0
C1025 C 0.14632 0.61827 0.25761 0.0
C1026 C 0.12061 0.64735 0.26078 0.0
C1027 C 0.16708 0.6659 0.26019 0.0
C1028 C 0.14825 0.58504 0.23476 0.0
C1029 C 0.15256 0.52358 0.23798 0.0
C1030 C 0.1552 0.48359 0.21946 0.0
C1031 C 0.15314 0.50697 0.19702 0.0
C1032 C 0.14826 0.56966 0.1933 0.0
C1033 C 0.14591 0.60903 0.21251 0.0
H1034 H 0.164 0.68616 0.79865 0.0
H1035 H 0.10491 0.55983 0.81597 0.0
H1036 H 0.10032 0.53313 0.77498 0.0
H1037 H 0.13907 0.735 0.74118 0.0
H1038 H 0.16941 0.73694 0.72813 0.0
H1039 H 0.16582 0.75329 0.75838 0.0
H1040 H 0.19757 0.66868 0.76802 0.0
H1041 H 0.20108 0.65163 0.73787 0.0
H1042 H 0.1923 0.59214 0.75776 0.0
H1043 H 0.1049 0.51109 0.73388 0.0
H1044 H 0.11736 0.49639 0.69362 0.0
H1045 H 0.17409 0.63583 0.70105 0.0
C1046 C 0.14957 0.65458 0.79356 0.0
C1047 C 0.13438 0.62585 0.81027 0.0
C1048 C 0.11638 0.58284 0.80329 0.0
C1049 C 0.11367 0.56741 0.78008 0.0
C1050 C 0.12927 0.59508 0.76403 0.0
C1051 C 0.1468 0.638 0.77029 0.0
C1052 C 0.1625 0.65651 0.7496 0.0
C1053 C 0.15898 0.72448 0.74399 0.0
C1054 C 0.18999 0.64132 0.75356 0.0
C1055 C 0.15136 0.61627 0.73097 0.0
C1056 C 0.13213 0.58164 0.73982 0.0
C1057 C 0.11971 0.53846 0.72664 0.0
C1058 C 0.12709 0.53019 0.70378 0.0
C1059 C 0.14671 0.56494 0.69411 0.0
C1060 C 0.15886 0.60909 0.70788 0.0
H1061 H 0.88503 0.40832 0.70338 0.0
H1062 H 0.87361 0.60463 0.70161 0.0
H1063 H 0.87289 0.60726 0.74376 0.0
H1064 H 0.84561 0.37818 0.75234 0.0
H1065 H 0.8655 0.32078 0.7646 0.0
H1066 H 0.86535 0.33314 0.73394 0.0
H1067 H 0.9128 0.35119 0.73455 0.0
H1068 H 0.91309 0.33903 0.76524 0.0
H1069 H 0.92551 0.40868 0.75332 0.0
H1070 H 0.87211 0.59059 0.78512 0.0
H1071 H 0.87201 0.555 0.82515 0.0
H1072 H 0.88522 0.36933 0.80202 0.0
C1073 C 0.88236 0.45171 0.71193 0.0
C1074 C 0.87941 0.50627 0.69917 0.0
C1075 C 0.87605 0.56226 0.71095 0.0
C1076 C 0.87558 0.56433 0.73492 0.0
C1077 C 0.87864 0.51012 0.74697 0.0
C1078 C 0.88205 0.4548 0.73605 0.0
C1079 C 0.88491 0.40364 0.75352 0.0
C1080 C 0.8641 0.35614 0.75094 0.0
C1081 C 0.91061 0.37389 0.75154 0.0
C1082 C 0.88232 0.43914 0.77582 0.0
C1083 C 0.87868 0.50044 0.77143 0.0
C1084 C 0.87505 0.54277 0.78888 0.0
C1085 C 0.87494 0.52198 0.81155 0.0
C1086 C 0.87859 0.45942 0.81667 0.0
C1087 C 0.8826 0.41746 0.79857 0.0
loop_
_geom_bond_atom_site_label_1
_geom_bond_atom_site_label_2
_geom_bond_distance
_geom_bond_site_symmetry_2
_ccdc_geom_bond_type
C0 O2 1.247 . S
C0 O4 1.258 . S
C1 O8 1.247 . S
C1 O9 1.258 . S
O2 C0 1.247 . S
O2 Zn3 2.028 . S
Zn3 O2 2.028 . S
Zn3 O7 2.035 . S
Zn3 O9 2.035 . S
Zn3 O10 2.028 . S
O4 C0 1.258 . S
O4 Zn5 2.035 . S
Zn5 O4 2.035 . S
Zn5 O6 2.028 . S
Zn5 O8 2.028 . S
Zn5 O11 2.035 . S
O6 Zn5 2.028 . S
O6 C12 1.247 . S
O7 Zn3 2.035 . S
O7 C12 1.258 . S
O8 C1 1.247 . S
O8 Zn5 2.028 . S
O9 C1 1.258 . S
O9 Zn3 2.035 . S
O10 Zn3 2.028 . S
O10 C13 1.247 . S
O11 Zn5 2.035 . S
O11 C13 1.258 . S
C12 O6 1.247 . S
C12 O7 1.258 . S
C13 O10 1.247 . S
C13 O11 1.258 . S
C14 O16 1.247 . S
C14 O18 1.258 . S
C15 O22 1.247 . S
C15 O23 1.258 . S
O16 C14 1.247 . S
O16 Zn17 2.028 . S
Zn17 O16 2.028 . S
Zn17 O21 2.035 . S
Zn17 O23 2.035 . S
Zn17 O24 2.028 . S
O18 C14 1.258 . S
O18 Zn19 2.035 . S
Zn19 O18 2.035 . S
Zn19 O20 2.028 . S
Zn19 O22 2.028 . S
Zn19 O25 2.035 . S
O20 Zn19 2.028 . S
O20 C26 1.247 . S
O21 Zn17 2.035 . S
O21 C26 1.258 . S
O22 C15 1.247 . S
O22 Zn19 2.028 . S
O23 C15 1.258 . S
O23 Zn17 2.035 . S
O24 Zn17 2.028 . S
O24 C27 1.247 . S
O25 Zn19 2.035 . S
O25 C27 1.258 . S
C26 O20 1.247 . S
C26 O21 1.258 . S
C27 O24 1.247 . S
C27 O25 1.258 . S
C28 O30 1.247 . S
C28 O32 1.258 . S
C29 O36 1.247 . S
C29 O37 1.258 . S
O30 C28 1.247 . S
O30 Zn31 2.028 . S
Zn31 O30 2.028 . S
Zn31 O35 2.035 . S
Zn31 O37 2.035 . S
Zn31 O38 2.028 . S
O32 C28 1.258 . S
O32 Zn33 2.035 . S
Zn33 O32 2.035 . S
Zn33 O34 2.028 . S
Zn33 O36 2.028 . S
Zn33 O39 2.035 . S
O34 Zn33 2.028 . S
O34 C40 1.247 . S
O35 Zn31 2.035 . S
O35 C40 1.258 . S
O36 C29 1.247 . S
O36 Zn33 2.028 . S
O37 C29 1.258 . S
O37 Zn31 2.035 . S
O38 Zn31 2.028 . S
O38 C41 1.247 . S
O39 Zn33 2.035 . S
O39 C41 1.258 . S
C40 O34 1.247 . S
C40 O35 1.258 . S
C41 O38 1.247 . S
C41 O39 1.258 . S
C42 O44 1.247 . S
C42 O46 1.258 . S
C43 O50 1.247 . S
C43 O51 1.258 . S
O44 C42 1.247 . S
O44 Zn45 2.028 . S
Zn45 O44 2.028 . S
Zn45 O49 2.035 . S
Zn45 O51 2.035 . S
Zn45 O52 2.028 . S
O46 C42 1.258 . S
O46 Zn47 2.035 . S
Zn47 O46 2.035 . S
Zn47 O48 2.028 . S
Zn47 O50 2.028 . S
Zn47 O53 2.035 . S
O48 Zn47 2.028 . S
O48 C54 1.247 . S
O49 Zn45 2.035 . S
O49 C54 1.258 . S
O50 C43 1.247 . S
O50 Zn47 2.028 . S
O51 C43 1.258 . S
O51 Zn45 2.035 . S
O52 Zn45 2.028 . S
O52 C55 1.247 . S
O53 Zn47 2.035 . S
O53 C55 1.258 . S
C54 O48 1.247 . S
C54 O49 1.258 . S
C55 O52 1.247 . S
C55 O53 1.258 . S
C56 O58 1.247 . S
C56 O60 1.258 . S
C57 O64 1.247 . S
C57 O65 1.258 . S
O58 C56 1.247 . S
O58 Zn59 2.028 . S
Zn59 O58 2.028 . S
Zn59 O63 2.035 . S
Zn59 O65 2.035 . S
Zn59 O66 2.028 . S
O60 C56 1.258 . S
O60 Zn61 2.035 . S
Zn61 O60 2.035 . S
Zn61 O62 2.028 . S
Zn61 O64 2.028 . S
Zn61 O67 2.035 . S
O62 Zn61 2.028 . S
O62 C68 1.247 . S
O63 Zn59 2.035 . S
O63 C68 1.258 . S
O64 C57 1.247 . S
O64 Zn61 2.028 . S
O65 C57 1.258 . S
O65 Zn59 2.035 . S
O66 Zn59 2.028 . S
O66 C69 1.247 . S
O67 Zn61 2.035 . S
O67 C69 1.258 . S
C68 O62 1.247 . S
C68 O63 1.258 . S
C69 O66 1.247 . S
C69 O67 1.258 . S
C70 O72 1.247 . S
C70 O74 1.258 . S
C71 O78 1.247 . S
C71 O79 1.258 . S
O72 C70 1.247 . S
O72 Zn73 2.028 . S
Zn73 O72 2.028 . S
Zn73 O77 2.035 . S
Zn73 O79 2.035 . S
Zn73 O80 2.028 . S
O74 C70 1.258 . S
O74 Zn75 2.035 . S
Zn75 O74 2.035 . S
Zn75 O76 2.028 . S
Zn75 O78 2.028 . S
Zn75 O81 2.035 . S
O76 Zn75 2.028 . S
O76 C82 1.247 . S
O77 Zn73 2.035 . S
O77 C82 1.258 . S
O78 C71 1.247 . S
O78 Zn75 2.028 . S
O79 C71 1.258 . S
O79 Zn73 2.035 . S
O80 Zn73 2.028 . S
O80 C83 1.247 . S
O81 Zn75 2.035 . S
O81 C83 1.258 . S
C82 O76 1.247 . S
C82 O77 1.258 . S
C83 O80 1.247 . S
C83 O81 1.258 . S
C84 O86 1.247 . S
C84 O88 1.258 . S
C85 O92 1.247 . S
C85 O93 1.258 . S
O86 C84 1.247 . S
O86 Zn87 2.028 . S
Zn87 O86 2.028 . S
Zn87 O91 2.035 . S
Zn87 O93 2.035 . S
Zn87 O94 2.028 . S
O88 C84 1.258 . S
O88 Zn89 2.035 . S
Zn89 O88 2.035 . S
Zn89 O90 2.028 . S
Zn89 O92 2.028 . S
Zn89 O95 2.035 . S
O90 Zn89 2.028 . S
O90 C96 1.247 . S
O91 Zn87 2.035 . S
O91 C96 1.258 . S
O92 C85 1.247 . S
O92 Zn89 2.028 . S
O93 C85 1.258 . S
O93 Zn87 2.035 . S
O94 Zn87 2.028 . S
O94 C97 1.247 . S
O95 Zn89 2.035 . S
O95 C97 1.258 . S
C96 O90 1.247 . S
C96 O91 1.258 . S
C97 O94 1.247 . S
C97 O95 1.258 . S
C98 O100 1.247 . S
C98 O102 1.258 . S
C99 O106 1.247 . S
C99 O107 1.258 . S
O100 C98 1.247 . S
O100 Zn101 2.028 . S
Zn101 O100 2.028 . S
Zn101 O105 2.035 . S
Zn101 O107 2.035 . S
Zn101 O108 2.028 . S
O102 C98 1.258 . S
O102 Zn103 2.035 . S
Zn103 O102 2.035 . S
Zn103 O104 2.028 . S
Zn103 O106 2.028 . S
Zn103 O109 2.035 . S
O104 Zn103 2.028 . S
O104 C110 1.247 . S
O105 Zn101 2.035 . S
O105 C110 1.258 . S
O106 C99 1.247 . S
O106 Zn103 2.028 . S
O107 C99 1.258 . S
O107 Zn101 2.035 . S
O108 Zn101 2.028 . S
O108 C111 1.247 . S
O109 Zn103 2.035 . S
O109 C111 1.258 . S
C110 O104 1.247 . S
C110 O105 1.258 . S
C111 O108 1.247 . S
C111 O109 1.258 . S
C112 O114 1.247 . S
C112 O116 1.258 . S
C113 O120 1.247 . S
C113 O121 1.258 . S
O114 C112 1.247 . S
O114 Zn115 2.028 . S
Zn115 O114 2.028 . S
Zn115 O119 2.035 . S
Zn115 O121 2.035 . S
Zn115 O122 2.028 . S
O116 C112 1.258 . S
O116 Zn117 2.035 . S
Zn117 O116 2.035 . S
Zn117 O118 2.028 . S
Zn117 O120 2.028 . S
Zn117 O123 2.035 . S
O118 Zn117 2.028 . S
O118 C124 1.247 . S
O119 Zn115 2.035 . S
O119 C124 1.258 . S
O120 C113 1.247 . S
O120 Zn117 2.028 . S
O121 C113 1.258 . S
O121 Zn115 2.035 . S
O122 Zn115 2.028 . S
O122 C125 1.247 . S
O123 Zn117 2.035 . S
O123 C125 1.258 . S
C124 O118 1.247 . S
C124 O119 1.258 . S
C125 O122 1.247 . S
C125 O123 1.258 . S
C126 O128 1.247 . S
C126 O130 1.258 . S
C127 O134 1.247 . S
C127 O135 1.258 . S
O128 C126 1.247 . S
O128 Zn129 2.028 . S
Zn129 O128 2.028 . S
Zn129 O133 2.035 . S
Zn129 O135 2.035 . S
Zn129 O136 2.028 . S
O130 C126 1.258 . S
O130 Zn131 2.035 . S
Zn131 O130 2.035 . S
Zn131 O132 2.028 . S
Zn131 O134 2.028 . S
Zn131 O137 2.035 . S
O132 Zn131 2.028 . S
O132 C138 1.247 . S
O133 Zn129 2.035 . S
O133 C138 1.258 . S
O134 C127 1.247 . S
O134 Zn131 2.028 . S
O135 C127 1.258 . S
O135 Zn129 2.035 . S
O136 Zn129 2.028 . S
O136 C139 1.247 . S
O137 Zn131 2.035 . S
O137 C139 1.258 . S
C138 O132 1.247 . S
C138 O133 1.258 . S
C139 O136 1.247 . S
C139 O137 1.258 . S
C140 O142 1.247 . S
C140 O144 1.258 . S
C141 O148 1.247 . S
C141 O149 1.258 . S
O142 C140 1.247 . S
O142 Zn143 2.028 . S
Zn143 O142 2.028 . S
Zn143 O147 2.035 . S
Zn143 O149 2.035 . S
Zn143 O150 2.028 . S
O144 C140 1.258 . S
O144 Zn145 2.035 . S
Zn145 O144 2.035 . S
Zn145 O146 2.028 . S
Zn145 O148 2.028 . S
Zn145 O151 2.035 . S
O146 Zn145 2.028 . S
O146 C152 1.247 . S
O147 Zn143 2.035 . S
O147 C152 1.258 . S
O148 C141 1.247 . S
O148 Zn145 2.028 . S
O149 C141 1.258 . S
O149 Zn143 2.035 . S
O150 Zn143 2.028 . S
O150 C153 1.247 . S
O151 Zn145 2.035 . S
O151 C153 1.258 . S
C152 O146 1.247 . S
C152 O147 1.258 . S
C153 O150 1.247 . S
C153 O151 1.258 . S
C154 O156 1.247 . S
C154 O158 1.258 . S
C155 O162 1.247 . S
C155 O163 1.258 . S
O156 C154 1.247 . S
O156 Zn157 2.028 . S
Zn157 O156 2.028 . S
Zn157 O161 2.035 . S
Zn157 O163 2.035 . S
Zn157 O164 2.028 . S
O158 C154 1.258 . S
O158 Zn159 2.035 . S
Zn159 O158 2.035 . S
Zn159 O160 2.028 . S
Zn159 O162 2.028 . S
Zn159 O165 2.035 . S
O160 Zn159 2.028 . S
O160 C166 1.247 . S
O161 Zn157 2.035 . S
O161 C166 1.258 . S
O162 C155 1.247 . S
O162 Zn159 2.028 . S
O163 C155 1.258 . S
O163 Zn157 2.035 . S
O164 Zn157 2.028 . S
O164 C167 1.247 . S
O165 Zn159 2.035 . S
O165 C167 1.258 . S
C166 O160 1.247 . S
C166 O161 1.258 . S
C167 O164 1.247 . S
C167 O165 1.258 . S
C168 O170 1.247 . S
C168 O172 1.258 . S
C169 O176 1.247 . S
C169 O177 1.258 . S
O170 C168 1.247 . S
O170 Zn171 2.028 . S
Zn171 O170 2.028 . S
Zn171 O175 2.035 . S
Zn171 O177 2.035 . S
Zn171 O178 2.028 . S
O172 C168 1.258 . S
O172 Zn173 2.035 . S
Zn173 O172 2.035 . S
Zn173 O174 2.028 . S
Zn173 O176 2.028 . S
Zn173 O179 2.035 . S
O174 Zn173 2.028 . S
O174 C180 1.247 . S
O175 Zn171 2.035 . S
O175 C180 1.258 . S
O176 C169 1.247 . S
O176 Zn173 2.028 . S
O177 C169 1.258 . S
O177 Zn171 2.035 . S
O178 Zn171 2.028 . S
O178 C181 1.247 . S
O179 Zn173 2.035 . S
O179 C181 1.258 . S
C180 O174 1.247 . S
C180 O175 1.258 . S
C181 O178 1.247 . S
C181 O179 1.258 . S
C182 O184 1.247 . S
C182 O186 1.258 . S
C183 O190 1.247 . S
C183 O191 1.258 . S
O184 C182 1.247 . S
O184 Zn185 2.028 . S
Zn185 O184 2.028 . S
Zn185 O189 2.035 . S
Zn185 O191 2.035 . S
Zn185 O192 2.028 . S
O186 C182 1.258 . S
O186 Zn187 2.035 . S
Zn187 O186 2.035 . S
Zn187 O188 2.028 . S
Zn187 O190 2.028 . S
Zn187 O193 2.035 . S
O188 Zn187 2.028 . S
O188 C194 1.247 . S
O189 Zn185 2.035 . S
O189 C194 1.258 . S
O190 C183 1.247 . S
O190 Zn187 2.028 . S
O191 C183 1.258 . S
O191 Zn185 2.035 . S
O192 Zn185 2.028 . S
O192 C195 1.247 . S
O193 Zn187 2.035 . S
O193 C195 1.258 . S
C194 O188 1.247 . S
C194 O189 1.258 . S
C195 O192 1.247 . S
C195 O193 1.258 . S
C196 O198 1.247 . S
C196 O200 1.258 . S
C197 O204 1.247 . S
C197 O205 1.258 . S
O198 C196 1.247 . S
O198 Zn199 2.028 . S
Zn199 O198 2.028 . S
Zn199 O203 2.035 . S
Zn199 O205 2.035 . S
Zn199 O206 2.028 . S
O200 C196 1.258 . S
O200 Zn201 2.035 . S
Zn201 O200 2.035 . S
Zn201 O202 2.028 . S
Zn201 O204 2.028 . S
Zn201 O207 2.035 . S
O202 Zn201 2.028 . S
O202 C208 1.247 . S
O203 Zn199 2.035 . S
O203 C208 1.258 . S
O204 C197 1.247 . S
O204 Zn201 2.028 . S
O205 C197 1.258 . S
O205 Zn199 2.035 . S
O206 Zn199 2.028 . S
O206 C209 1.247 . S
O207 Zn201 2.035 . S
O207 C209 1.258 . S
C208 O202 1.247 . S
C208 O203 1.258 . S
C209 O206 1.247 . S
C209 O207 1.258 . S
C210 O212 1.247 . S
C210 O214 1.258 . S
C211 O218 1.247 . S
C211 O219 1.258 . S
O212 C210 1.247 . S
O212 Zn213 2.028 . S
Zn213 O212 2.028 . S
Zn213 O217 2.035 . S
Zn213 O219 2.035 . S
Zn213 O220 2.028 . S
O214 C210 1.258 . S
O214 Zn215 2.035 . S
Zn215 O214 2.035 . S
Zn215 O216 2.028 . S
Zn215 O218 2.028 . S
Zn215 O221 2.035 . S
O216 Zn215 2.028 . S
O216 C222 1.247 . S
O217 Zn213 2.035 . S
O217 C222 1.258 . S
O218 C211 1.247 . S
O218 Zn215 2.028 . S
O219 C211 1.258 . S
O219 Zn213 2.035 . S
O220 Zn213 2.028 . S
O220 C223 1.247 . S
O221 Zn215 2.035 . S
O221 C223 1.258 . S
C222 O216 1.247 . S
C222 O217 1.258 . S
C223 O220 1.247 . S
C223 O221 1.258 . S
H224 C236 0.930 . S
H225 C238 0.930 . S
H226 C239 0.930 . S
H227 C243 0.959 . S
H228 C243 0.959 . S
H229 C243 0.961 . S
H230 C244 0.960 1_565 S
H231 C244 0.961 1_565 S
H232 C244 0.959 . S
H233 C247 0.929 . S
H234 C248 0.931 . S
H235 C250 0.930 . S
C236 H224 0.930 . S
C236 C237 1.399 . S
C236 C241 1.399 . S
C237 C236 1.399 . S
C237 C238 1.376 . S
C238 H225 0.930 . S
C238 C237 1.376 . S
C238 C239 1.388 . S
C239 H226 0.930 . S
C239 C238 1.388 . S
C239 C240 1.390 . S
C240 C239 1.390 . S
C240 C241 1.394 . S
C240 C246 1.465 . S
C241 C236 1.399 . S
C241 C240 1.394 . S
C241 C242 1.516 . S
C242 C241 1.516 . S
C242 C243 1.502 . S
C242 C244 1.561 . S
C242 C245 1.526 . S
C243 H227 0.959 . S
C243 H228 0.959 . S
C243 H229 0.961 . S
C243 C242 1.502 . S
C244 H230 0.960 1_545 S
C244 H231 0.961 1_545 S
C244 H232 0.959 . S
C244 C242 1.561 . S
C245 C242 1.526 . S
C245 C246 1.396 . S
C245 C250 1.390 . S
C246 C240 1.465 . S
C246 C245 1.396 . S
C246 C247 1.399 . S
C247 H233 0.929 . S
C247 C246 1.399 . S
C247 C248 1.385 . S
C248 H234 0.931 . S
C248 C247 1.385 . S
C248 C249 1.389 . S
C249 C248 1.389 . S
C249 C250 1.387 . S
C250 H235 0.930 . S
C250 C245 1.390 . S
C250 C249 1.387 . S
H251 C263 0.930 . S
H252 C265 0.930 . S
H253 C266 0.930 . S
H254 C270 0.959 . S
H255 C270 0.959 . S
H256 C270 0.961 . S
H257 C271 0.960 . S
H258 C271 0.961 . S
H259 C271 0.959 . S
H260 C274 0.929 . S
H261 C275 0.931 . S
H262 C277 0.930 . S
C263 H251 0.930 . S
C263 C264 1.399 . S
C263 C268 1.399 . S
C264 C263 1.399 . S
C264 C265 1.376 . S
C265 H252 0.930 . S
C265 C264 1.376 . S
C265 C266 1.388 . S
C266 H253 0.930 . S
C266 C265 1.388 . S
C266 C267 1.390 . S
C267 C266 1.390 . S
C267 C268 1.394 . S
C267 C273 1.465 . S
C268 C263 1.399 . S
C268 C267 1.394 . S
C268 C269 1.516 . S
C269 C268 1.516 . S
C269 C270 1.502 . S
C269 C271 1.561 . S
C269 C272 1.526 . S
C270 H254 0.959 . S
C270 H255 0.959 . S
C270 H256 0.961 . S
C270 C269 1.502 . S
C271 H257 0.960 . S
C271 H258 0.961 . S
C271 H259 0.959 . S
C271 C269 1.561 . S
C272 C269 1.526 . S
C272 C273 1.396 . S
C272 C277 1.390 . S
C273 C267 1.465 . S
C273 C272 1.396 . S
C273 C274 1.399 . S
C274 H260 0.929 . S
C274 C273 1.399 . S
C274 C275 1.385 . S
C275 H261 0.931 . S
C275 C274 1.385 . S
C275 C276 1.389 . S
C276 C275 1.389 . S
C276 C277 1.387 . S
C277 H262 0.930 . S
C277 C272 1.390 . S
C277 C276 1.387 . S
H278 C290 0.930 . S
H279 C292 0.930 . S
H280 C293 0.930 . S
H281 C297 0.962 . S
H282 C297 0.979 . S
H283 C297 0.940 1_554 S
H284 C298 0.958 1_554 S
H285 C298 0.963 . S
H286 C298 0.959 . S
H287 C301 0.929 . S
H288 C302 0.931 . S
H289 C304 0.930 . S
C290 H278 0.930 . S
C290 C291 1.399 . S
C290 C295 1.399 . S
C291 C290 1.399 . S
C291 C292 1.376 . S
C292 H279 0.930 . S
C292 C291 1.376 . S
C292 C293 1.388 . S
C293 H280 0.930 . S
C293 C292 1.388 . S
C293 C294 1.390 . S
C294 C293 1.390 . S
C294 C295 1.394 . S
C294 C300 1.465 1_554 S
C295 C290 1.399 . S
C295 C294 1.394 . S
C295 C296 1.517 1_554 S
C296 C295 1.517 1_556 S
C296 C297 1.502 . S
C296 C298 1.561 . S
C296 C299 1.525 . S
C297 H281 0.962 . S
C297 H282 0.979 . S
C297 H283 0.940 1_556 S
C297 C296 1.502 . S
C298 H284 0.958 1_556 S
C298 H285 0.963 . S
C298 H286 0.959 . S
C298 C296 1.561 . S
C299 C296 1.525 . S
C299 C300 1.396 . S
C299 C304 1.390 . S
C300 C294 1.465 1_556 S
C300 C299 1.396 . S
C300 C301 1.399 . S
C301 H287 0.929 . S
C301 C300 1.399 . S
C301 C302 1.385 . S
C302 H288 0.931 . S
C302 C301 1.385 . S
C302 C303 1.389 . S
C303 C302 1.389 . S
C303 C304 1.387 . S
C304 H289 0.930 . S
C304 C299 1.390 . S
C304 C303 1.387 . S
H305 C317 0.930 . S
H306 C319 0.930 . S
H307 C320 0.930 . S
H308 C324 0.962 . S
H309 C324 0.979 . S
H310 C324 0.940 1_556 S
H311 C325 0.958 1_556 S
H312 C325 0.963 . S
H313 C325 0.959 . S
H314 C328 0.929 . S
H315 C329 0.931 . S
H316 C331 0.930 . S
C317 H305 0.930 . S
C317 C318 1.399 . S
C317 C322 1.399 . S
C318 C317 1.399 . S
C318 C319 1.376 . S
C319 H306 0.930 . S
C319 C318 1.376 . S
C319 C320 1.388 . S
C320 H307 0.930 . S
C320 C319 1.388 . S
C320 C321 1.390 . S
C321 C320 1.390 . S
C321 C322 1.394 . S
C321 C327 1.465 1_556 S
C322 C317 1.399 . S
C322 C321 1.394 . S
C322 C323 1.517 1_556 S
C323 C322 1.517 1_554 S
C323 C324 1.502 . S
C323 C325 1.561 . S
C323 C326 1.525 . S
C324 H308 0.962 . S
C324 H309 0.979 . S
C324 H310 0.940 1_554 S
C324 C323 1.502 . S
C325 H311 0.958 1_554 S
C325 H312 0.963 . S
C325 H313 0.959 . S
C325 C323 1.561 . S
C326 C323 1.525 . S
C326 C327 1.396 . S
C326 C331 1.390 . S
C327 C321 1.465 1_554 S
C327 C326 1.396 . S
C327 C328 1.399 . S
C328 H314 0.929 . S
C328 C327 1.399 . S
C328 C329 1.385 . S
C329 H315 0.931 . S
C329 C328 1.385 . S
C329 C330 1.389 . S
C330 C329 1.389 . S
C330 C331 1.387 . S
C331 H316 0.930 . S
C331 C326 1.390 . S
C331 C330 1.387 . S
H332 C344 0.930 . S
H333 C346 0.930 . S
H334 C347 0.930 . S
H335 C351 0.959 . S
H336 C351 0.959 . S
H337 C351 0.961 . S
H338 C352 0.960 . S
H339 C352 0.961 . S
H340 C352 0.959 . S
H341 C355 0.929 . S
H342 C356 0.931 . S
H343 C358 0.930 . S
C344 H332 0.930 . S
C344 C345 1.399 . S
C344 C349 1.399 . S
C345 C344 1.399 . S
C345 C346 1.376 . S
C346 H333 0.930 . S
C346 C345 1.376 . S
C346 C347 1.388 . S
C347 H334 0.930 . S
C347 C346 1.388 . S
C347 C348 1.390 . S
C348 C347 1.390 . S
C348 C349 1.394 . S
C348 C354 1.465 . S
C349 C344 1.399 . S
C349 C348 1.394 . S
C349 C350 1.516 . S
C350 C349 1.516 . S
C350 C351 1.502 . S
C350 C352 1.561 . S
C350 C353 1.526 . S
C351 H335 0.959 . S
C351 H336 0.959 . S
C351 H337 0.961 . S
C351 C350 1.502 . S
C352 H338 0.960 . S
C352 H339 0.961 . S
C352 H340 0.959 . S
C352 C350 1.561 . S
C353 C350 1.526 . S
C353 C354 1.396 . S
C353 C358 1.390 . S
C354 C348 1.465 . S
C354 C353 1.396 . S
C354 C355 1.399 . S
C355 H341 0.929 . S
C355 C354 1.399 . S
C355 C356 1.385 . S
C356 H342 0.931 . S
C356 C355 1.385 . S
C356 C357 1.389 . S
C357 C356 1.389 . S
C357 C358 1.387 . S
C358 H343 0.930 . S
C358 C353 1.390 . S
C358 C357 1.387 . S
H359 C371 0.930 . S
H360 C373 0.930 . S
H361 C374 0.930 . S
H362 C378 0.959 . S
H363 C378 0.959 . S
H364 C378 0.961 . S
H365 C379 0.960 . S
H366 C379 0.961 . S
H367 C379 0.959 . S
H368 C382 0.929 . S
H369 C383 0.931 . S
H370 C385 0.930 . S
C371 H359 0.930 . S
C371 C372 1.399 . S
C371 C376 1.399 . S
C372 C371 1.399 . S
C372 C373 1.376 . S
C373 H360 0.930 . S
C373 C372 1.376 . S
C373 C374 1.388 . S
C374 H361 0.930 . S
C374 C373 1.388 . S
C374 C375 1.390 . S
C375 C374 1.390 . S
C375 C376 1.394 . S
C375 C381 1.465 . S
C376 C371 1.399 . S
C376 C375 1.394 . S
C376 C377 1.516 . S
C377 C376 1.516 . S
C377 C378 1.502 . S
C377 C379 1.561 . S
C377 C380 1.526 . S
C378 H362 0.959 . S
C378 H363 0.959 . S
C378 H364 0.961 . S
C378 C377 1.502 . S
C379 H365 0.960 . S
C379 H366 0.961 . S
C379 H367 0.959 . S
C379 C377 1.561 . S
C380 C377 1.526 . S
C380 C381 1.396 . S
C380 C385 1.390 . S
C381 C375 1.465 . S
C381 C380 1.396 . S
C381 C382 1.399 . S
C382 H368 0.929 . S
C382 C381 1.399 . S
C382 C383 1.385 . S
C383 H369 0.931 . S
C383 C382 1.385 . S
C383 C384 1.389 . S
C384 C383 1.389 . S
C384 C385 1.387 . S
C385 H370 0.930 . S
C385 C380 1.390 . S
C385 C384 1.387 . S
H386 C398 0.930 . S
H387 C400 0.930 . S
H388 C401 0.930 . S
H389 C405 0.962 . S
H390 C405 0.979 . S
H391 C405 0.940 1_556 S
H392 C406 0.958 1_556 S
H393 C406 0.963 . S
H394 C406 0.959 . S
H395 C409 0.929 . S
H396 C410 0.931 . S
H397 C412 0.930 . S
C398 H386 0.930 . S
C398 C399 1.399 . S
C398 C403 1.399 . S
C399 C398 1.399 . S
C399 C400 1.376 . S
C400 H387 0.930 . S
C400 C399 1.376 . S
C400 C401 1.388 . S
C401 H388 0.930 . S
C401 C400 1.388 . S
C401 C402 1.390 . S
C402 C401 1.390 . S
C402 C403 1.394 . S
C402 C408 1.465 1_556 S
C403 C398 1.399 . S
C403 C402 1.394 . S
C403 C404 1.517 1_556 S
C404 C403 1.517 1_554 S
C404 C405 1.502 . S
C404 C406 1.561 . S
C404 C407 1.525 . S
C405 H389 0.962 . S
C405 H390 0.979 . S
C405 H391 0.940 1_554 S
C405 C404 1.502 . S
C406 H392 0.958 1_554 S
C406 H393 0.963 . S
C406 H394 0.959 . S
C406 C404 1.561 . S
C407 C404 1.525 . S
C407 C408 1.396 . S
C407 C412 1.390 . S
C408 C402 1.465 1_554 S
C408 C407 1.396 . S
C408 C409 1.399 . S
C409 H395 0.929 . S
C409 C408 1.399 . S
C409 C410 1.385 . S
C410 H396 0.931 . S
C410 C409 1.385 . S
C410 C411 1.389 . S
C411 C410 1.389 . S
C411 C412 1.387 . S
C412 H397 0.930 . S
C412 C407 1.390 . S
C412 C411 1.387 . S
H413 C425 0.930 . S
H414 C427 0.930 . S
H415 C428 0.930 . S
H416 C432 0.962 . S
H417 C432 0.978 . S
H418 C432 0.940 1_554 S
H419 C433 0.958 1_554 S
H420 C433 0.962 . S
H421 C433 0.959 . S
H422 C436 0.929 . S
H423 C437 0.931 . S
H424 C439 0.930 . S
C425 H413 0.930 . S
C425 C426 1.399 . S
C425 C430 1.399 . S
C426 C425 1.399 . S
C426 C427 1.376 . S
C427 H414 0.930 . S
C427 C426 1.376 . S
C427 C428 1.388 . S
C428 H415 0.930 . S
C428 C427 1.388 . S
C428 C429 1.390 . S
C429 C428 1.390 . S
C429 C430 1.394 . S
C429 C435 1.465 1_554 S
C430 C425 1.399 . S
C430 C429 1.394 . S
C430 C431 1.517 1_554 S
C431 C430 1.517 1_556 S
C431 C432 1.502 . S
C431 C433 1.561 . S
C431 C434 1.524 . S
C432 H416 0.962 . S
C432 H417 0.978 . S
C432 H418 0.940 1_556 S
C432 C431 1.502 . S
C433 H419 0.958 1_556 S
C433 H420 0.962 . S
C433 H421 0.959 . S
C433 C431 1.561 . S
C434 C431 1.524 . S
C434 C435 1.396 . S
C434 C439 1.390 . S
C435 C429 1.465 1_556 S
C435 C434 1.396 . S
C435 C436 1.399 . S
C436 H422 0.929 . S
C436 C435 1.399 . S
C436 C437 1.385 . S
C437 H423 0.931 . S
C437 C436 1.385 . S
C437 C438 1.389 . S
C438 C437 1.389 . S
C438 C439 1.387 . S
C439 H424 0.930 . S
C439 C434 1.390 . S
C439 C438 1.387 . S
H440 C452 0.930 . S
H441 C454 0.930 . S
H442 C455 0.930 . S
H443 C459 0.959 . S
H444 C459 0.959 . S
H445 C459 0.961 . S
H446 C460 0.960 . S
H447 C460 0.961 . S
H448 C460 0.959 . S
H449 C463 0.929 . S
H450 C464 0.931 . S
H451 C466 0.930 . S
C452 H440 0.930 . S
C452 C453 1.399 . S
C452 C457 1.399 . S
C453 C452 1.399 . S
C453 C454 1.376 . S
C454 H441 0.930 . S
C454 C453 1.376 . S
C454 C455 1.388 . S
C455 H442 0.930 . S
C455 C454 1.388 . S
C455 C456 1.390 . S
C456 C455 1.390 . S
C456 C457 1.394 . S
C456 C462 1.465 . S
C457 C452 1.399 . S
C457 C456 1.394 . S
C457 C458 1.516 1_565 S
C458 C457 1.516 1_545 S
C458 C459 1.502 . S
C458 C460 1.561 1_545 S
C458 C461 1.526 . S
C459 H443 0.959 . S
C459 H444 0.959 . S
C459 H445 0.961 . S
C459 C458 1.502 . S
C460 H446 0.960 . S
C460 H447 0.961 . S
C460 H448 0.959 . S
C460 C458 1.561 1_565 S
C461 C458 1.526 . S
C461 C462 1.396 1_545 S
C461 C466 1.390 . S
C462 C456 1.465 . S
C462 C461 1.396 1_565 S
C462 C463 1.399 . S
C463 H449 0.929 . S
C463 C462 1.399 . S
C463 C464 1.385 1_565 S
C464 H450 0.931 . S
C464 C463 1.385 1_545 S
C464 C465 1.389 . S
C465 C464 1.389 . S
C465 C466 1.387 . S
C466 H451 0.930 . S
C466 C461 1.390 . S
C466 C465 1.387 . S
H467 C479 0.930 1_545 S
H468 C481 0.930 . S
H469 C482 0.930 . S
H470 C486 0.959 . S
H471 C486 0.959 . S
H472 C486 0.961 . S
H473 C487 0.960 . S
H474 C487 0.961 . S
H475 C487 0.959 1_565 S
H476 C490 0.929 . S
H477 C491 0.931 1_565 S
H478 C493 0.930 . S
C479 H467 0.930 1_565 S
C479 C480 1.399 . S
C479 C484 1.399 . S
C480 C479 1.399 . S
C480 C481 1.376 . S
C481 H468 0.930 . S
C481 C480 1.376 . S
C481 C482 1.388 . S
C482 H469 0.930 . S
C482 C481 1.388 . S
C482 C483 1.390 . S
C483 C482 1.390 . S
C483 C484 1.394 . S
C483 C489 1.465 . S
C484 C479 1.399 . S
C484 C483 1.394 . S
C484 C485 1.516 1_565 S
C485 C484 1.516 1_545 S
C485 C486 1.502 . S
C485 C487 1.561 . S
C485 C488 1.526 . S
C486 H470 0.959 . S
C486 H471 0.959 . S
C486 H472 0.961 . S
C486 C485 1.502 . S
C487 H473 0.960 . S
C487 H474 0.961 . S
C487 H475 0.959 1_545 S
C487 C485 1.561 . S
C488 C485 1.526 . S
C488 C489 1.396 1_545 S
C488 C493 1.390 . S
C489 C483 1.465 . S
C489 C488 1.396 1_565 S
C489 C490 1.399 . S
C490 H476 0.929 . S
C490 C489 1.399 . S
C490 C491 1.385 1_565 S
C491 H477 0.931 1_545 S
C491 C490 1.385 1_545 S
C491 C492 1.389 . S
C492 C491 1.389 . S
C492 C493 1.387 . S
C493 H478 0.930 . S
C493 C488 1.390 . S
C493 C492 1.387 . S
H494 C506 0.930 . S
H495 C508 0.930 . S
H496 C509 0.930 . S
H497 C513 0.959 . S
H498 C513 0.959 . S
H499 C513 0.961 . S
H500 C514 0.960 . S
H501 C514 0.961 . S
H502 C514 0.959 . S
H503 C517 0.929 . S
H504 C518 0.931 . S
H505 C520 0.930 . S
C506 H494 0.930 . S
C506 C507 1.399 . S
C506 C511 1.399 . S
C507 C506 1.399 . S
C507 C508 1.376 . S
C508 H495 0.930 . S
C508 C507 1.376 . S
C508 C509 1.388 . S
C509 H496 0.930 . S
C509 C508 1.388 . S
C509 C510 1.390 . S
C510 C509 1.390 . S
C510 C511 1.394 . S
C510 C516 1.465 1_565 S
C511 C506 1.399 . S
C511 C510 1.394 . S
C511 C512 1.516 . S
C512 C511 1.516 . S
C512 C513 1.502 1_565 S
C512 C514 1.561 . S
C512 C515 1.526 1_565 S
C513 H497 0.959 . S
C513 H498 0.959 . S
C513 H499 0.961 . S
C513 C512 1.502 1_545 S
C514 H500 0.960 . S
C514 H501 0.961 . S
C514 H502 0.959 . S
C514 C512 1.561 . S
C515 C512 1.526 1_545 S
C515 C516 1.396 . S
C515 C520 1.390 . S
C516 C510 1.465 1_545 S
C516 C515 1.396 . S
C516 C517 1.399 . S
C517 H503 0.929 . S
C517 C516 1.399 . S
C517 C518 1.385 . S
C518 H504 0.931 . S
C518 C517 1.385 . S
C518 C519 1.389 . S
C519 C518 1.389 . S
C519 C520 1.387 . S
C520 H505 0.930 . S
C520 C515 1.390 . S
C520 C519 1.387 . S
H521 C533 0.930 . S
H522 C535 0.930 . S
H523 C536 0.930 . S
H524 C540 0.959 . S
H525 C540 0.959 . S
H526 C540 0.961 . S
H527 C541 0.960 . S
H528 C541 0.961 . S
H529 C541 0.959 . S
H530 C544 0.929 1_545 S
H531 C545 0.931 . S
H532 C547 0.930 . S
C533 H521 0.930 . S
C533 C534 1.399 . S
C533 C538 1.399 . S
C534 C533 1.399 . S
C534 C535 1.376 . S
C535 H522 0.930 . S
C535 C534 1.376 . S
C535 C536 1.388 . S
C536 H523 0.930 . S
C536 C535 1.388 . S
C536 C537 1.390 . S
C537 C536 1.390 . S
C537 C538 1.394 . S
C537 C543 1.466 1_545 S
C538 C533 1.399 . S
C538 C537 1.394 . S
C538 C539 1.516 1_545 S
C539 C538 1.516 1_565 S
C539 C540 1.502 . S
C539 C541 1.561 1_565 S
C539 C542 1.526 . S
C540 H524 0.959 . S
C540 H525 0.959 . S
C540 H526 0.961 . S
C540 C539 1.502 . S
C541 H527 0.960 . S
C541 H528 0.961 . S
C541 H529 0.959 . S
C541 C539 1.561 1_545 S
C542 C539 1.526 . S
C542 C543 1.396 . S
C542 C547 1.390 . S
C543 C537 1.466 1_565 S
C543 C542 1.396 . S
C543 C544 1.399 . S
C544 H530 0.929 1_565 S
C544 C543 1.399 . S
C544 C545 1.385 . S
C545 H531 0.931 . S
C545 C544 1.385 . S
C545 C546 1.389 . S
C546 C545 1.389 . S
C546 C547 1.387 . S
C547 H532 0.930 . S
C547 C542 1.390 . S
C547 C546 1.387 . S
H548 C560 0.930 . S
H549 C562 0.930 . S
H550 C563 0.930 . S
H551 C567 0.959 . S
H552 C567 0.959 1_455 S
H553 C567 0.961 . S
H554 C568 0.960 1_655 S
H555 C568 0.961 . S
H556 C568 0.959 . S
H557 C571 0.929 . S
H558 C572 0.931 . S
H559 C574 0.930 . S
C560 H548 0.930 . S
C560 C561 1.399 . S
C560 C565 1.399 . S
C561 C560 1.399 . S
C561 C562 1.376 . S
C562 H549 0.930 . S
C562 C561 1.376 . S
C562 C563 1.388 . S
C563 H550 0.930 . S
C563 C562 1.388 . S
C563 C564 1.390 . S
C564 C563 1.390 . S
C564 C565 1.394 . S
C564 C570 1.465 1_655 S
C565 C560 1.399 . S
C565 C564 1.394 . S
C565 C566 1.516 . S
C566 C565 1.516 . S
C566 C567 1.502 . S
C566 C568 1.561 1_655 S
C566 C569 1.526 1_655 S
C567 H551 0.959 . S
C567 H552 0.959 1_655 S
C567 H553 0.961 . S
C567 C566 1.502 . S
C568 H554 0.960 1_455 S
C568 H555 0.961 . S
C568 H556 0.959 . S
C568 C566 1.561 1_455 S
C569 C566 1.526 1_455 S
C569 C570 1.396 . S
C569 C574 1.390 . S
C570 C564 1.465 1_455 S
C570 C569 1.396 . S
C570 C571 1.399 . S
C571 H557 0.929 . S
C571 C570 1.399 . S
C571 C572 1.385 . S
C572 H558 0.931 . S
C572 C571 1.385 . S
C572 C573 1.389 . S
C573 C572 1.389 . S
C573 C574 1.387 . S
C574 H559 0.930 . S
C574 C569 1.390 . S
C574 C573 1.387 . S
H575 C587 0.930 . S
H576 C589 0.930 . S
H577 C590 0.930 . S
H578 C594 0.959 . S
H579 C594 0.959 1_655 S
H580 C594 0.961 . S
H581 C595 0.960 1_455 S
H582 C595 0.961 . S
H583 C595 0.959 . S
H584 C598 0.929 . S
H585 C599 0.931 . S
H586 C601 0.930 . S
C587 H575 0.930 . S
C587 C588 1.399 . S
C587 C592 1.399 . S
C588 C587 1.399 . S
C588 C589 1.376 . S
C589 H576 0.930 . S
C589 C588 1.376 . S
C589 C590 1.388 . S
C590 H577 0.930 . S
C590 C589 1.388 . S
C590 C591 1.390 . S
C591 C590 1.390 . S
C591 C592 1.394 . S
C591 C597 1.465 1_455 S
C592 C587 1.399 . S
C592 C591 1.394 . S
C592 C593 1.541 . S
C593 C592 1.541 . S
C593 C594 1.511 . S
C593 C595 1.553 1_455 S
C593 C596 1.499 1_455 S
C594 H578 0.959 . S
C594 H579 0.959 1_455 S
C594 H580 0.961 . S
C594 C593 1.511 . S
C595 H581 0.960 1_655 S
C595 H582 0.961 . S
C595 H583 0.959 . S
C595 C593 1.553 1_655 S
C596 C593 1.499 1_655 S
C596 C597 1.396 . S
C596 C601 1.390 . S
C597 C591 1.465 1_655 S
C597 C596 1.396 . S
C597 C598 1.399 . S
C598 H584 0.929 . S
C598 C597 1.399 . S
C598 C599 1.385 . S
C599 H585 0.931 . S
C599 C598 1.385 . S
C599 C600 1.389 . S
C600 C599 1.389 . S
C600 C601 1.387 . S
C601 H586 0.930 . S
C601 C596 1.390 . S
C601 C600 1.387 . S
H602 C614 0.930 . S
H603 C616 0.930 . S
H604 C617 0.930 . S
H605 C621 0.959 . S
H606 C621 0.959 1_455 S
H607 C621 0.961 . S
H608 C622 0.960 1_655 S
H609 C622 0.961 . S
H610 C622 0.959 . S
H611 C625 0.929 . S
H612 C626 0.931 . S
H613 C628 0.930 . S
C614 H602 0.930 . S
C614 C615 1.399 . S
C614 C619 1.399 . S
C615 C614 1.399 . S
C615 C616 1.376 . S
C616 H603 0.930 . S
C616 C615 1.376 . S
C616 C617 1.388 . S
C617 H604 0.930 . S
C617 C616 1.388 . S
C617 C618 1.390 . S
C618 C617 1.390 . S
C618 C619 1.394 . S
C618 C624 1.465 1_655 S
C619 C614 1.399 . S
C619 C618 1.394 . S
C619 C620 1.516 . S
C620 C619 1.516 . S
C620 C621 1.502 . S
C620 C622 1.561 1_655 S
C620 C623 1.526 1_655 S
C621 H605 0.959 . S
C621 H606 0.959 1_655 S
C621 H607 0.961 . S
C621 C620 1.502 . S
C622 H608 0.960 1_455 S
C622 H609 0.961 . S
C622 H610 0.959 . S
C622 C620 1.561 1_455 S
C623 C620 1.526 1_455 S
C623 C624 1.396 . S
C623 C628 1.390 . S
C624 C618 1.465 1_455 S
C624 C623 1.396 . S
C624 C625 1.399 . S
C625 H611 0.929 . S
C625 C624 1.399 . S
C625 C626 1.385 . S
C626 H612 0.931 . S
C626 C625 1.385 . S
C626 C627 1.389 . S
C627 C626 1.389 . S
C627 C628 1.387 . S
C628 H613 0.930 . S
C628 C623 1.390 . S
C628 C627 1.387 . S
H629 C641 0.930 . S
H630 C643 0.930 . S
H631 C644 0.930 . S
H632 C648 0.959 1_655 S
H633 C648 0.959 1_655 S
H634 C648 0.961 . S
H635 C649 0.960 . S
H636 C649 0.961 . S
H637 C649 0.959 . S
H638 C652 0.929 . S
H639 C653 0.931 . S
H640 C655 0.930 . S
C641 H629 0.930 . S
C641 C642 1.399 . S
C641 C646 1.399 . S
C642 C641 1.399 . S
C642 C643 1.376 . S
C643 H630 0.930 . S
C643 C642 1.376 . S
C643 C644 1.388 . S
C644 H631 0.930 . S
C644 C643 1.388 . S
C644 C645 1.390 . S
C645 C644 1.390 . S
C645 C646 1.394 . S
C645 C651 1.465 1_455 S
C646 C641 1.399 . S
C646 C645 1.394 . S
C646 C647 1.516 . S
C647 C646 1.516 . S
C647 C648 1.502 . S
C647 C649 1.561 . S
C647 C650 1.526 1_455 S
C648 H632 0.959 1_455 S
C648 H633 0.959 1_455 S
C648 H634 0.961 . S
C648 C647 1.502 . S
C649 H635 0.960 . S
C649 H636 0.961 . S
C649 H637 0.959 . S
C649 C647 1.561 . S
C650 C647 1.526 1_655 S
C650 C651 1.396 . S
C650 C655 1.390 . S
C651 C645 1.465 1_655 S
C651 C650 1.396 . S
C651 C652 1.399 . S
C652 H638 0.929 . S
C652 C651 1.399 . S
C652 C653 1.385 . S
C653 H639 0.931 . S
C653 C652 1.385 . S
C653 C654 1.389 . S
C654 C653 1.389 . S
C654 C655 1.387 . S
C655 H640 0.930 . S
C655 C650 1.390 . S
C655 C654 1.387 . S
H656 C668 0.930 . S
H657 C670 0.930 . S
H658 C671 0.930 . S
H659 C675 0.959 . S
H660 C675 0.959 . S
H661 C675 0.961 . S
H662 C676 0.960 . S
H663 C676 0.961 . S
H664 C676 0.959 . S
H665 C679 0.929 . S
H666 C680 0.931 . S
H667 C682 0.930 . S
C668 H656 0.930 . S
C668 C669 1.399 . S
C668 C673 1.399 . S
C669 C668 1.399 . S
C669 C670 1.376 . S
C670 H657 0.930 . S
C670 C669 1.376 . S
C670 C671 1.388 . S
C671 H658 0.930 . S
C671 C670 1.388 . S
C671 C672 1.390 . S
C672 C671 1.390 . S
C672 C673 1.394 . S
C672 C678 1.465 . S
C673 C668 1.399 . S
C673 C672 1.394 . S
C673 C674 1.516 . S
C674 C673 1.516 . S
C674 C675 1.502 . S
C674 C676 1.561 . S
C674 C677 1.526 . S
C675 H659 0.959 . S
C675 H660 0.959 . S
C675 H661 0.961 . S
C675 C674 1.502 . S
C676 H662 0.960 . S
C676 H663 0.961 . S
C676 H664 0.959 . S
C676 C674 1.561 . S
C677 C674 1.526 . S
C677 C678 1.396 . S
C677 C682 1.390 . S
C678 C672 1.465 . S
C678 C677 1.396 . S
C678 C679 1.399 . S
C679 H665 0.929 . S
C679 C678 1.399 . S
C679 C680 1.385 . S
C680 H666 0.931 . S
C680 C679 1.385 . S
C680 C681 1.389 . S
C681 C680 1.389 . S
C681 C682 1.387 . S
C682 H667 0.930 . S
C682 C677 1.390 . S
C682 C681 1.387 . S
H683 C695 0.930 . S
H684 C697 0.930 . S
H685 C698 0.930 . S
H686 C702 0.959 . S
H687 C702 0.959 . S
H688 C702 0.961 . S
H689 C703 0.960 . S
H690 C703 0.961 . S
H691 C703 0.959 . S
H692 C706 0.929 . S
H693 C707 0.931 . S
H694 C709 0.930 . S
C695 H683 0.930 . S
C695 C696 1.399 . S
C695 C700 1.399 . S
C696 C695 1.399 . S
C696 C697 1.376 . S
C697 H684 0.930 . S
C697 C696 1.376 . S
C697 C698 1.388 . S
C698 H685 0.930 . S
C698 C697 1.388 . S
C698 C699 1.390 . S
C699 C698 1.390 . S
C699 C700 1.394 . S
C699 C705 1.465 . S
C700 C695 1.399 . S
C700 C699 1.394 . S
C700 C701 1.516 . S
C701 C700 1.516 . S
C701 C702 1.502 . S
C701 C703 1.561 . S
C701 C704 1.526 . S
C702 H686 0.959 . S
C702 H687 0.959 . S
C702 H688 0.961 . S
C702 C701 1.502 . S
C703 H689 0.960 . S
C703 H690 0.961 . S
C703 H691 0.959 . S
C703 C701 1.561 . S
C704 C701 1.526 . S
C704 C705 1.396 . S
C704 C709 1.390 . S
C705 C699 1.465 . S
C705 C704 1.396 . S
C705 C706 1.399 . S
C706 H692 0.929 . S
C706 C705 1.399 . S
C706 C707 1.385 . S
C707 H693 0.931 . S
C707 C706 1.385 . S
C707 C708 1.389 . S
C708 C707 1.389 . S
C708 C709 1.387 . S
C709 H694 0.930 . S
C709 C704 1.390 . S
C709 C708 1.387 . S
H710 C722 0.930 . S
H711 C724 0.930 . S
H712 C725 0.930 . S
H713 C729 0.959 . S
H714 C729 0.959 . S
H715 C729 0.961 . S
H716 C730 0.960 . S
H717 C730 0.961 . S
H718 C730 0.959 . S
H719 C733 0.929 . S
H720 C734 0.931 . S
H721 C736 0.930 . S
C722 H710 0.930 . S
C722 C723 1.399 . S
C722 C727 1.399 . S
C723 C722 1.399 . S
C723 C724 1.376 . S
C724 H711 0.930 . S
C724 C723 1.376 . S
C724 C725 1.388 . S
C725 H712 0.930 . S
C725 C724 1.388 . S
C725 C726 1.390 . S
C726 C725 1.390 . S
C726 C727 1.394 . S
C726 C732 1.465 . S
C727 C722 1.399 . S
C727 C726 1.394 . S
C727 C728 1.516 . S
C728 C727 1.516 . S
C728 C729 1.502 . S
C728 C730 1.561 . S
C728 C731 1.526 . S
C729 H713 0.959 . S
C729 H714 0.959 . S
C729 H715 0.961 . S
C729 C728 1.502 . S
C730 H716 0.960 . S
C730 H717 0.961 . S
C730 H718 0.959 . S
C730 C728 1.561 . S
C731 C728 1.526 . S
C731 C732 1.396 . S
C731 C736 1.390 . S
C732 C726 1.465 . S
C732 C731 1.396 . S
C732 C733 1.399 . S
C733 H719 0.929 . S
C733 C732 1.399 . S
C733 C734 1.385 . S
C734 H720 0.931 . S
C734 C733 1.385 . S
C734 C735 1.389 . S
C735 C734 1.389 . S
C735 C736 1.387 . S
C736 H721 0.930 . S
C736 C731 1.390 . S
C736 C735 1.387 . S
H737 C749 0.930 . S
H738 C751 0.930 . S
H739 C752 0.930 . S
H740 C756 0.959 . S
H741 C756 0.959 . S
H742 C756 0.961 . S
H743 C757 0.960 . S
H744 C757 0.961 . S
H745 C757 0.959 . S
H746 C760 0.929 . S
H747 C761 0.931 . S
H748 C763 0.930 . S
C749 H737 0.930 . S
C749 C750 1.399 . S
C749 C754 1.399 . S
C750 C749 1.399 . S
C750 C751 1.376 . S
C751 H738 0.930 . S
C751 C750 1.376 . S
C751 C752 1.388 . S
C752 H739 0.930 . S
C752 C751 1.388 . S
C752 C753 1.390 . S
C753 C752 1.390 . S
C753 C754 1.394 . S
C753 C759 1.465 . S
C754 C749 1.399 . S
C754 C753 1.394 . S
C754 C755 1.516 . S
C755 C754 1.516 . S
C755 C756 1.502 . S
C755 C757 1.561 . S
C755 C758 1.526 . S
C756 H740 0.959 . S
C756 H741 0.959 . S
C756 H742 0.961 . S
C756 C755 1.502 . S
C757 H743 0.960 . S
C757 H744 0.961 . S
C757 H745 0.959 . S
C757 C755 1.561 . S
C758 C755 1.526 . S
C758 C759 1.396 . S
C758 C763 1.390 . S
C759 C753 1.465 . S
C759 C758 1.396 . S
C759 C760 1.399 . S
C760 H746 0.929 . S
C760 C759 1.399 . S
C760 C761 1.385 . S
C761 H747 0.931 . S
C761 C760 1.385 . S
C761 C762 1.389 . S
C762 C761 1.389 . S
C762 C763 1.387 . S
C763 H748 0.930 . S
C763 C758 1.390 . S
C763 C762 1.387 . S
H764 C776 0.930 . S
H765 C778 0.930 . S
H766 C779 0.930 . S
H767 C783 0.959 . S
H768 C783 0.959 . S
H769 C783 0.961 . S
H770 C784 0.960 . S
H771 C784 0.961 . S
H772 C784 0.959 . S
H773 C787 0.929 . S
H774 C788 0.931 . S
H775 C790 0.930 . S
C776 H764 0.930 . S
C776 C777 1.399 . S
C776 C781 1.399 . S
C777 C776 1.399 . S
C777 C778 1.376 . S
C778 H765 0.930 . S
C778 C777 1.376 . S
C778 C779 1.388 . S
C779 H766 0.930 . S
C779 C778 1.388 . S
C779 C780 1.390 . S
C780 C779 1.390 . S
C780 C781 1.394 . S
C780 C786 1.465 . S
C781 C776 1.399 . S
C781 C780 1.394 . S
C781 C782 1.516 . S
C782 C781 1.516 . S
C782 C783 1.502 . S
C782 C784 1.561 . S
C782 C785 1.526 . S
C783 H767 0.959 . S
C783 H768 0.959 . S
C783 H769 0.961 . S
C783 C782 1.502 . S
C784 H770 0.960 . S
C784 H771 0.961 . S
C784 H772 0.959 . S
C784 C782 1.561 . S
C785 C782 1.526 . S
C785 C786 1.396 . S
C785 C790 1.390 . S
C786 C780 1.465 . S
C786 C785 1.396 . S
C786 C787 1.399 . S
C787 H773 0.929 . S
C787 C786 1.399 . S
C787 C788 1.385 . S
C788 H774 0.931 . S
C788 C787 1.385 . S
C788 C789 1.389 . S
C789 C788 1.389 . S
C789 C790 1.387 . S
C790 H775 0.930 . S
C790 C785 1.390 . S
C790 C789 1.387 . S
H791 C803 0.930 . S
H792 C805 0.930 . S
H793 C806 0.930 . S
H794 C810 0.959 . S
H795 C810 0.959 . S
H796 C810 0.961 . S
H797 C811 0.960 . S
H798 C811 0.961 . S
H799 C811 0.959 . S
H800 C814 0.929 . S
H801 C815 0.931 . S
H802 C817 0.930 . S
C803 H791 0.930 . S
C803 C804 1.399 . S
C803 C808 1.399 . S
C804 C803 1.399 . S
C804 C805 1.376 . S
C805 H792 0.930 . S
C805 C804 1.376 . S
C805 C806 1.388 . S
C806 H793 0.930 . S
C806 C805 1.388 . S
C806 C807 1.390 . S
C807 C806 1.390 . S
C807 C808 1.394 . S
C807 C813 1.465 . S
C808 C803 1.399 . S
C808 C807 1.394 . S
C808 C809 1.516 . S
C809 C808 1.516 . S
C809 C810 1.502 . S
C809 C811 1.561 . S
C809 C812 1.526 . S
C810 H794 0.959 . S
C810 H795 0.959 . S
C810 H796 0.961 . S
C810 C809 1.502 . S
C811 H797 0.960 . S
C811 H798 0.961 . S
C811 H799 0.959 . S
C811 C809 1.561 . S
C812 C809 1.526 . S
C812 C813 1.396 . S
C812 C817 1.390 . S
C813 C807 1.465 . S
C813 C812 1.396 . S
C813 C814 1.399 . S
C814 H800 0.929 . S
C814 C813 1.399 . S
C814 C815 1.385 . S
C815 H801 0.931 . S
C815 C814 1.385 . S
C815 C816 1.389 . S
C816 C815 1.389 . S
C816 C817 1.387 . S
C817 H802 0.930 . S
C817 C812 1.390 . S
C817 C816 1.387 . S
H818 C830 0.930 . S
H819 C832 0.930 . S
H820 C833 0.930 . S
H821 C837 0.959 . S
H822 C837 0.959 . S
H823 C837 0.961 . S
H824 C838 0.960 . S
H825 C838 0.961 . S
H826 C838 0.959 . S
H827 C841 0.929 . S
H828 C842 0.931 . S
H829 C844 0.930 . S
C830 H818 0.930 . S
C830 C831 1.399 . S
C830 C835 1.399 . S
C831 C830 1.399 . S
C831 C832 1.376 . S
C832 H819 0.930 . S
C832 C831 1.376 . S
C832 C833 1.388 . S
C833 H820 0.930 . S
C833 C832 1.388 . S
C833 C834 1.390 . S
C834 C833 1.390 . S
C834 C835 1.394 . S
C834 C840 1.465 . S
C835 C830 1.399 . S
C835 C834 1.394 . S
C835 C836 1.516 . S
C836 C835 1.516 . S
C836 C837 1.502 . S
C836 C838 1.561 . S
C836 C839 1.526 . S
C837 H821 0.959 . S
C837 H822 0.959 . S
C837 H823 0.961 . S
C837 C836 1.502 . S
C838 H824 0.960 . S
C838 H825 0.961 . S
C838 H826 0.959 . S
C838 C836 1.561 . S
C839 C836 1.526 . S
C839 C840 1.396 . S
C839 C844 1.390 . S
C840 C834 1.465 . S
C840 C839 1.396 . S
C840 C841 1.399 . S
C841 H827 0.929 . S
C841 C840 1.399 . S
C841 C842 1.385 . S
C842 H828 0.931 . S
C842 C841 1.385 . S
C842 C843 1.389 . S
C843 C842 1.389 . S
C843 C844 1.387 . S
C844 H829 0.930 . S
C844 C839 1.390 . S
C844 C843 1.387 . S
H845 C857 0.930 . S
H846 C859 0.930 . S
H847 C860 0.930 . S
H848 C864 0.959 . S
H849 C864 0.959 . S
H850 C864 0.961 . S
H851 C865 0.960 . S
H852 C865 0.961 . S
H853 C865 0.959 . S
H854 C868 0.929 . S
H855 C869 0.931 . S
H856 C871 0.930 . S
C857 H845 0.930 . S
C857 C858 1.399 . S
C857 C862 1.399 . S
C858 C857 1.399 . S
C858 C859 1.376 . S
C859 H846 0.930 . S
C859 C858 1.376 . S
C859 C860 1.388 . S
C860 H847 0.930 . S
C860 C859 1.388 . S
C860 C861 1.390 . S
C861 C860 1.390 . S
C861 C862 1.394 . S
C861 C867 1.465 . S
C862 C857 1.399 . S
C862 C861 1.394 . S
C862 C863 1.516 . S
C863 C862 1.516 . S
C863 C864 1.502 . S
C863 C865 1.561 . S
C863 C866 1.526 . S
C864 H848 0.959 . S
C864 H849 0.959 . S
C864 H850 0.961 . S
C864 C863 1.502 . S
C865 H851 0.960 . S
C865 H852 0.961 . S
C865 H853 0.959 . S
C865 C863 1.561 . S
C866 C863 1.526 . S
C866 C867 1.396 . S
C866 C871 1.390 . S
C867 C861 1.465 . S
C867 C866 1.396 . S
C867 C868 1.399 . S
C868 H854 0.929 . S
C868 C867 1.399 . S
C868 C869 1.385 . S
C869 H855 0.931 . S
C869 C868 1.385 . S
C869 C870 1.389 . S
C870 C869 1.389 . S
C870 C871 1.387 . S
C871 H856 0.930 . S
C871 C866 1.390 . S
C871 C870 1.387 . S
H872 C884 0.930 1_565 S
H873 C886 0.930 . S
H874 C887 0.930 . S
H875 C891 0.959 . S
H876 C891 0.959 . S
H877 C891 0.961 . S
H878 C892 0.960 . S
H879 C892 0.961 . S
H880 C892 0.959 . S
H881 C895 0.929 . S
H882 C896 0.931 1_545 S
H883 C898 0.930 . S
C884 H872 0.930 1_545 S
C884 C885 1.399 . S
C884 C889 1.399 1_545 S
C885 C884 1.399 . S
C885 C886 1.376 . S
C886 H873 0.930 . S
C886 C885 1.376 . S
C886 C887 1.388 . S
C887 H874 0.930 . S
C887 C886 1.388 . S
C887 C888 1.390 . S
C888 C887 1.390 . S
C888 C889 1.394 1_545 S
C888 C894 1.465 . S
C889 C884 1.399 1_565 S
C889 C888 1.394 1_565 S
C889 C890 1.516 . S
C890 C889 1.516 . S
C890 C891 1.502 . S
C890 C892 1.561 . S
C890 C893 1.526 . S
C891 H875 0.959 . S
C891 H876 0.959 . S
C891 H877 0.961 . S
C891 C890 1.502 . S
C892 H878 0.960 . S
C892 H879 0.961 . S
C892 H880 0.959 . S
C892 C890 1.561 . S
C893 C890 1.526 . S
C893 C894 1.396 1_565 S
C893 C898 1.390 . S
C894 C888 1.465 . S
C894 C893 1.396 1_545 S
C894 C895 1.399 . S
C895 H881 0.929 . S
C895 C894 1.399 . S
C895 C896 1.385 1_545 S
C896 H882 0.931 1_565 S
C896 C895 1.385 1_565 S
C896 C897 1.389 . S
C897 C896 1.389 . S
C897 C898 1.387 . S
C898 H883 0.930 . S
C898 C893 1.390 . S
C898 C897 1.387 . S
H899 C911 0.930 1_565 S
H900 C913 0.930 . S
H901 C914 0.930 . S
H902 C918 0.959 . S
H903 C918 0.959 . S
H904 C918 0.961 . S
H905 C919 0.960 . S
H906 C919 0.961 . S
H907 C919 0.959 . S
H908 C922 0.929 . S
H909 C923 0.931 1_545 S
H910 C925 0.930 . S
C911 H899 0.930 1_545 S
C911 C912 1.399 . S
C911 C916 1.399 1_545 S
C912 C911 1.399 . S
C912 C913 1.376 . S
C913 H900 0.930 . S
C913 C912 1.376 . S
C913 C914 1.388 . S
C914 H901 0.930 . S
C914 C913 1.388 . S
C914 C915 1.390 . S
C915 C914 1.390 . S
C915 C916 1.394 1_545 S
C915 C921 1.465 . S
C916 C911 1.399 1_565 S
C916 C915 1.394 1_565 S
C916 C917 1.516 . S
C917 C916 1.516 . S
C917 C918 1.502 . S
C917 C919 1.561 . S
C917 C920 1.526 . S
C918 H902 0.959 . S
C918 H903 0.959 . S
C918 H904 0.961 . S
C918 C917 1.502 . S
C919 H905 0.960 . S
C919 H906 0.961 . S
C919 H907 0.959 . S
C919 C917 1.561 . S
C920 C917 1.526 . S
C920 C921 1.396 1_565 S
C920 C925 1.390 . S
C921 C915 1.465 . S
C921 C920 1.396 1_545 S
C921 C922 1.399 . S
C922 H908 0.929 . S
C922 C921 1.399 . S
C922 C923 1.385 1_545 S
C923 H909 0.931 1_565 S
C923 C922 1.385 1_565 S
C923 C924 1.389 . S
C924 C923 1.389 . S
C924 C925 1.387 . S
C925 H910 0.930 . S
C925 C920 1.390 . S
C925 C924 1.387 . S
H926 C938 0.930 . S
H927 C940 0.930 1_565 S
H928 C941 0.930 . S
H929 C945 0.959 . S
H930 C945 0.959 . S
H931 C945 0.961 . S
H932 C946 0.960 . S
H933 C946 0.961 . S
H934 C946 0.959 . S
H935 C949 0.929 . S
H936 C950 0.931 . S
H937 C952 0.930 1_545 S
C938 H926 0.930 . S
C938 C939 1.399 . S
C938 C943 1.399 . S
C939 C938 1.399 . S
C939 C940 1.376 . S
C940 H927 0.930 1_545 S
C940 C939 1.376 . S
C940 C941 1.388 1_545 S
C941 H928 0.930 . S
C941 C940 1.388 1_565 S
C941 C942 1.390 . S
C942 C941 1.390 . S
C942 C943 1.394 1_565 S
C942 C948 1.465 . S
C943 C938 1.399 . S
C943 C942 1.394 1_545 S
C943 C944 1.516 . S
C944 C943 1.516 . S
C944 C945 1.502 . S
C944 C946 1.561 . S
C944 C947 1.526 . S
C945 H929 0.959 . S
C945 H930 0.959 . S
C945 H931 0.961 . S
C945 C944 1.502 . S
C946 H932 0.960 . S
C946 H933 0.961 . S
C946 H934 0.959 . S
C946 C944 1.561 . S
C947 C944 1.526 . S
C947 C948 1.396 1_545 S
C947 C952 1.390 1_545 S
C948 C942 1.465 . S
C948 C947 1.396 1_565 S
C948 C949 1.399 . S
C949 H935 0.929 . S
C949 C948 1.399 . S
C949 C950 1.385 . S
C950 H936 0.931 . S
C950 C949 1.385 . S
C950 C951 1.389 . S
C951 C950 1.389 . S
C951 C952 1.387 . S
C952 H937 0.930 1_565 S
C952 C947 1.390 1_565 S
C952 C951 1.387 . S
H953 C965 0.930 1_545 S
H954 C967 0.930 . S
H955 C968 0.930 . S
H956 C972 0.959 . S
H957 C972 0.959 . S
H958 C972 0.961 . S
H959 C973 0.960 . S
H960 C973 0.961 . S
H961 C973 0.959 . S
H962 C976 0.929 . S
H963 C977 0.931 1_565 S
H964 C979 0.930 . S
C965 H953 0.930 1_565 S
C965 C966 1.399 . S
C965 C970 1.399 1_565 S
C966 C965 1.399 . S
C966 C967 1.376 . S
C967 H954 0.930 . S
C967 C966 1.376 . S
C967 C968 1.388 . S
C968 H955 0.930 . S
C968 C967 1.388 . S
C968 C969 1.390 . S
C969 C968 1.390 . S
C969 C970 1.394 1_565 S
C969 C975 1.465 . S
C970 C965 1.399 1_545 S
C970 C969 1.394 1_545 S
C970 C971 1.516 . S
C971 C970 1.516 . S
C971 C972 1.502 . S
C971 C973 1.561 . S
C971 C974 1.526 . S
C972 H956 0.959 . S
C972 H957 0.959 . S
C972 H958 0.961 . S
C972 C971 1.502 . S
C973 H959 0.960 . S
C973 H960 0.961 . S
C973 H961 0.959 . S
C973 C971 1.561 . S
C974 C971 1.526 . S
C974 C975 1.396 1_545 S
C974 C979 1.390 . S
C975 C969 1.465 . S
C975 C974 1.396 1_565 S
C975 C976 1.399 . S
C976 H962 0.929 . S
C976 C975 1.399 . S
C976 C977 1.385 1_565 S
C977 H963 0.931 1_545 S
C977 C976 1.385 1_545 S
C977 C978 1.389 . S
C978 C977 1.389 . S
C978 C979 1.387 . S
C979 H964 0.930 . S
C979 C974 1.390 . S
C979 C978 1.387 . S
H980 C992 0.930 . S
H981 C994 0.930 . S
H982 C995 0.930 . S
H983 C999 0.959 . S
H984 C999 0.959 . S
H985 C999 0.961 . S
H986 C1000 0.960 . S
H987 C1000 0.961 . S
H988 C1000 0.959 . S
H989 C1003 0.929 . S
H990 C1004 0.931 . S
H991 C1006 0.930 . S
C992 H980 0.930 . S
C992 C993 1.399 . S
C992 C997 1.399 . S
C993 C992 1.399 . S
C993 C994 1.376 . S
C994 H981 0.930 . S
C994 C993 1.376 . S
C994 C995 1.388 . S
C995 H982 0.930 . S
C995 C994 1.388 . S
C995 C996 1.390 . S
C996 C995 1.390 . S
C996 C997 1.394 . S
C996 C1002 1.465 . S
C997 C992 1.399 . S
C997 C996 1.394 . S
C997 C998 1.516 . S
C998 C997 1.516 . S
C998 C999 1.502 . S
C998 C1000 1.561 . S
C998 C1001 1.526 . S
C999 H983 0.959 . S
C999 H984 0.959 . S
C999 H985 0.961 . S
C999 C998 1.502 . S
C1000 H986 0.960 . S
C1000 H987 0.961 . S
C1000 H988 0.959 . S
C1000 C998 1.561 . S
C1001 C998 1.526 . S
C1001 C1002 1.396 . S
C1001 C1006 1.390 . S
C1002 C996 1.465 . S
C1002 C1001 1.396 . S
C1002 C1003 1.399 . S
C1003 H989 0.929 . S
C1003 C1002 1.399 . S
C1003 C1004 1.385 . S
C1004 H990 0.931 . S
C1004 C1003 1.385 . S
C1004 C1005 1.389 . S
C1005 C1004 1.389 . S
C1005 C1006 1.387 . S
C1006 H991 0.930 . S
C1006 C1001 1.390 . S
C1006 C1005 1.387 . S
H1007 C1019 0.930 . S
H1008 C1021 0.930 . S
H1009 C1022 0.930 . S
H1010 C1026 0.959 . S
H1011 C1026 0.959 . S
H1012 C1026 0.961 . S
H1013 C1027 0.960 . S
H1014 C1027 0.961 . S
H1015 C1027 0.959 . S
H1016 C1030 0.929 . S
H1017 C1031 0.931 . S
H1018 C1033 0.930 . S
C1019 H1007 0.930 . S
C1019 C1020 1.399 . S
C1019 C1024 1.399 . S
C1020 C1019 1.399 . S
C1020 C1021 1.376 . S
C1021 H1008 0.930 . S
C1021 C1020 1.376 . S
C1021 C1022 1.388 . S
C1022 H1009 0.930 . S
C1022 C1021 1.388 . S
C1022 C1023 1.390 . S
C1023 C1022 1.390 . S
C1023 C1024 1.394 . S
C1023 C1029 1.465 . S
C1024 C1019 1.399 . S
C1024 C1023 1.394 . S
C1024 C1025 1.516 . S
C1025 C1024 1.516 . S
C1025 C1026 1.502 . S
C1025 C1027 1.561 . S
C1025 C1028 1.526 . S
C1026 H1010 0.959 . S
C1026 H1011 0.959 . S
C1026 H1012 0.961 . S
C1026 C1025 1.502 . S
C1027 H1013 0.960 . S
C1027 H1014 0.961 . S
C1027 H1015 0.959 . S
C1027 C1025 1.561 . S
C1028 C1025 1.526 . S
C1028 C1029 1.396 . S
C1028 C1033 1.390 . S
C1029 C1023 1.465 . S
C1029 C1028 1.396 . S
C1029 C1030 1.399 . S
C1030 H1016 0.929 . S
C1030 C1029 1.399 . S
C1030 C1031 1.385 . S
C1031 H1017 0.931 . S
C1031 C1030 1.385 . S
C1031 C1032 1.389 . S
C1032 C1031 1.389 . S
C1032 C1033 1.387 . S
C1033 H1018 0.930 . S
C1033 C1028 1.390 . S
C1033 C1032 1.387 . S
H1034 C1046 0.930 . S
H1035 C1048 0.930 . S
H1036 C1049 0.930 . S
H1037 C1053 0.959 . S
H1038 C1053 0.959 . S
H1039 C1053 0.961 . S
H1040 C1054 0.960 . S
H1041 C1054 0.961 . S
H1042 C1054 0.959 . S
H1043 C1057 0.929 . S
H1044 C1058 0.931 . S
H1045 C1060 0.930 . S
C1046 H1034 0.930 . S
C1046 C1047 1.399 . S
C1046 C1051 1.399 . S
C1047 C1046 1.399 . S
C1047 C1048 1.376 . S
C1048 H1035 0.930 . S
C1048 C1047 1.376 . S
C1048 C1049 1.388 . S
C1049 H1036 0.930 . S
C1049 C1048 1.388 . S
C1049 C1050 1.390 . S
C1050 C1049 1.390 . S
C1050 C1051 1.394 . S
C1050 C1056 1.465 . S
C1051 C1046 1.399 . S
C1051 C1050 1.394 . S
C1051 C1052 1.516 . S
C1052 C1051 1.516 . S
C1052 C1053 1.502 . S
C1052 C1054 1.561 . S
C1052 C1055 1.526 . S
C1053 H1037 0.959 . S
C1053 H1038 0.959 . S
C1053 H1039 0.961 . S
C1053 C1052 1.502 . S
C1054 H1040 0.960 . S
C1054 H1041 0.961 . S
C1054 H1042 0.959 . S
C1054 C1052 1.561 . S
C1055 C1052 1.526 . S
C1055 C1056 1.396 . S
C1055 C1060 1.390 . S
C1056 C1050 1.465 . S
C1056 C1055 1.396 . S
C1056 C1057 1.399 . S
C1057 H1043 0.929 . S
C1057 C1056 1.399 . S
C1057 C1058 1.385 . S
C1058 H1044 0.931 . S
C1058 C1057 1.385 . S
C1058 C1059 1.389 . S
C1059 C1058 1.389 . S
C1059 C1060 1.387 . S
C1060 H1045 0.930 . S
C1060 C1055 1.390 . S
C1060 C1059 1.387 . S
H1061 C1073 0.930 . S
H1062 C1075 0.930 . S
H1063 C1076 0.930 . S
H1064 C1080 0.959 . S
H1065 C1080 0.959 . S
H1066 C1080 0.961 . S
H1067 C1081 0.960 . S
H1068 C1081 0.961 . S
H1069 C1081 0.959 . S
H1070 C1084 0.929 . S
H1071 C1085 0.931 . S
H1072 C1087 0.930 . S
C1073 H1061 0.930 . S
C1073 C1074 1.399 . S
C1073 C1078 1.399 . S
C1074 C1073 1.399 . S
C1074 C1075 1.376 . S
C1075 H1062 0.930 . S
C1075 C1074 1.376 . S
C1075 C1076 1.388 . S
C1076 H1063 0.930 . S
C1076 C1075 1.388 . S
C1076 C1077 1.390 . S
C1077 C1076 1.390 . S
C1077 C1078 1.394 . S
C1077 C1083 1.465 . S
C1078 C1073 1.399 . S
C1078 C1077 1.394 . S
C1078 C1079 1.516 . S
C1079 C1078 1.516 . S
C1079 C1080 1.502 . S
C1079 C1081 1.561 . S
C1079 C1082 1.526 . S
C1080 H1064 0.959 . S
C1080 H1065 0.959 . S
C1080 H1066 0.961 . S
C1080 C1079 1.502 . S
C1081 H1067 0.960 . S
C1081 H1068 0.961 . S
C1081 H1069 0.959 . S
C1081 C1079 1.561 . S
C1082 C1079 1.526 . S
C1082 C1083 1.396 . S
C1082 C1087 1.390 . S
C1083 C1077 1.465 . S
C1083 C1082 1.396 . S
C1083 C1084 1.399 . S
C1084 H1070 0.929 . S
C1084 C1083 1.399 . S
C1084 C1085 1.385 . S
C1085 H1071 0.931 . S
C1085 C1084 1.385 . S
C1085 C1086 1.389 . S
C1086 C1085 1.389 . S
C1086 C1087 1.387 . S
C1087 H1072 0.930 . S
C1087 C1082 1.390 . S
C1087 C1086 1.387 . S
C237 C0 1.609 . S
C249 C70 1.614 . S
C264 C56 1.589 . S
C276 C27 1.589 . S
C291 C28 1.606 . S
C303 C98 1.600 . S
C318 C84 1.590 . S
C330 C43 1.589 . S
C345 C195 1.589 . S
C357 C112 1.590 . S
C372 C168 1.618 . S
C384 C126 1.621 . S
C399 C210 1.589 . S
C411 C140 1.590 . S
C426 C166 1.608 . S
C438 C196 1.613 . S
C453 C15 1.486 . S
C465 C12 1.492 . S
C480 C40 1.488 . S
C492 C55 1.495 . S
C507 C68 1.503 . S
C519 C82 1.507 . S
C534 C96 1.501 . S
C546 C110 1.507 . S
C561 C124 1.487 . S
C573 C138 1.491 . S
C588 C154 1.487 . S
C600 C152 1.491 . S
C615 C183 1.500 . S
C627 C180 1.508 . S
C642 C208 1.487 . S
C654 C222 1.493 . S
C669 C139 1.506 . S
C681 C13 1.504 . S
C696 C14 1.504 . S
C708 C125 1.503 . S
C723 C155 1.489 . S
C735 C41 1.492 . S
C750 C54 1.501 . S
C762 C153 1.499 . S
C777 C69 1.501 . S
C789 C182 1.506 . S
C804 C181 1.491 . S
C816 C83 1.488 . S
C831 C97 1.491 . S
C843 C223 1.488 . S
C858 C209 1.488 . S
C870 C111 1.492 . S
C885 C1 1.635 . S
C897 C29 1.609 . S
C912 C42 1.635 . S
C924 C26 1.611 . S
C939 C85 1.610 . S
C951 C57 1.642 . S
C966 C99 1.644 . S
C978 C71 1.619 . S
C993 C141 1.631 . S
C1005 C113 1.609 . S
C1020 C127 1.631 . S
C1032 C167 1.609 . S
C1047 C197 1.610 . S
C1059 C169 1.642 . S
C1074 C194 1.644 . S
C1086 C211 1.617 . S
