# Generated by pormake.
# Topology uot, (4)-cn, num edge types: 1
# Building blocks:
#     Node 0, Type 0, BuildingBlock: AZAVOO_clean_sbu_0, # of connection points: 4
#     Node 1, Type 0, BuildingBlock: AZAVOO_clean_sbu_0, # of connection points: 4
#     Node 2, Type 0, BuildingBlock: AZAVOO_clean_sbu_0, # of connection points: 4
#     Node 3, Type 0, BuildingBlock: AZAVOO_clean_sbu_0, # of connection points: 4
#     Node 4, Type 0, BuildingBlock: AZAVOO_clean_sbu_0, # of connection points: 4
#     Node 5, Type 0, BuildingBlock: AZAVOO_clean_sbu_0, # of connection points: 4
#     Node 6, Type 0, BuildingBlock: AZAVOO_clean_sbu_0, # of connection points: 4
#     Node 7, Type 0, BuildingBlock: AZAVOO_clean_sbu_0, # of connection points: 4
#     Node 8, Type 0, BuildingBlock: AZAVOO_clean_sbu_0, # of connection points: 4
#     Node 9, Type 0, BuildingBlock: AZAVOO_clean_sbu_0, # of connection points: 4
#     Node 10, Type 0, BuildingBlock: AZAVOO_clean_sbu_0, # of connection points: 4
#     Node 11, Type 0, BuildingBlock: AZAVOO_clean_sbu_0, # of connection points: 4
#     Node 12, Type 0, BuildingBlock: AZAVOO_clean_sbu_0, # of connection points: 4
#     Node 13, Type 0, BuildingBlock: AZAVOO_clean_sbu_0, # of connection points: 4
#     Node 14, Type 0, BuildingBlock: AZAVOO_clean_sbu_0, # of connection points: 4
#     Node 15, Type 0, BuildingBlock: AZAVOO_clean_sbu_0, # of connection points: 4
#     Edge 16, Type (0, 0), BuildingBlock: UVAHIK_clean_linker_0, # of connection points: 2
#     Edge 17, Type (0, 0), BuildingBlock: UVAHIK_clean_linker_0, # of connection points: 2
#     Edge 18, Type (0, 0), BuildingBlock: UVAHIK_clean_linker_0, # of connection points: 2
#     Edge 19, Type (0, 0), BuildingBlock: UVAHIK_clean_linker_0, # of connection points: 2
#     Edge 20, Type (0, 0), BuildingBlock: UVAHIK_clean_linker_0, # of connection points: 2
#     Edge 21, Type (0, 0), BuildingBlock: UVAHIK_clean_linker_0, # of connection points: 2
#     Edge 22, Type (0, 0), BuildingBlock: UVAHIK_clean_linker_0, # of connection points: 2
#     Edge 23, Type (0, 0), BuildingBlock: UVAHIK_clean_linker_0, # of connection points: 2
#     Edge 24, Type (0, 0), BuildingBlock: UVAHIK_clean_linker_0, # of connection points: 2
#     Edge 25, Type (0, 0), BuildingBlock: UVAHIK_clean_linker_0, # of connection points: 2
#     Edge 26, Type (0, 0), BuildingBlock: UVAHIK_clean_linker_0, # of connection points: 2
#     Edge 27, Type (0, 0), BuildingBlock: UVAHIK_clean_linker_0, # of connection points: 2
#     Edge 28, Type (0, 0), BuildingBlock: UVAHIK_clean_linker_0, # of connection points: 2
#     Edge 29, Type (0, 0), BuildingBlock: UVAHIK_clean_linker_0, # of connection points: 2
#     Edge 30, Type (0, 0), BuildingBlock: UVAHIK_clean_linker_0, # of connection points: 2
#     Edge 31, Type (0, 0), BuildingBlock: UVAHIK_clean_linker_0, # of connection points: 2
#     Edge 32, Type (0, 0), BuildingBlock: UVAHIK_clean_linker_0, # of connection points: 2
#     Edge 33, Type (0, 0), BuildingBlock: UVAHIK_clean_linker_0, # of connection points: 2
#     Edge 34, Type (0, 0), BuildingBlock: UVAHIK_clean_linker_0, # of connection points: 2
#     Edge 35, Type (0, 0), BuildingBlock: UVAHIK_clean_linker_0, # of connection points: 2
#     Edge 36, Type (0, 0), BuildingBlock: UVAHIK_clean_linker_0, # of connection points: 2
#     Edge 37, Type (0, 0), BuildingBlock: UVAHIK_clean_linker_0, # of connection points: 2
#     Edge 38, Type (0, 0), BuildingBlock: UVAHIK_clean_linker_0, # of connection points: 2
#     Edge 39, Type (0, 0), BuildingBlock: UVAHIK_clean_linker_0, # of connection points: 2
#     Edge 40, Type (0, 0), BuildingBlock: UVAHIK_clean_linker_0, # of connection points: 2
#     Edge 41, Type (0, 0), BuildingBlock: UVAHIK_clean_linker_0, # of connection points: 2
#     Edge 42, Type (0, 0), BuildingBlock: UVAHIK_clean_linker_0, # of connection points: 2
#     Edge 43, Type (0, 0), BuildingBlock: UVAHIK_clean_linker_0, # of connection points: 2
#     Edge 44, Type (0, 0), BuildingBlock: UVAHIK_clean_linker_0, # of connection points: 2
#     Edge 45, Type (0, 0), BuildingBlock: UVAHIK_clean_linker_0, # of connection points: 2
#     Edge 46, Type (0, 0), BuildingBlock: UVAHIK_clean_linker_0, # of connection points: 2
#     Edge 47, Type (0, 0), BuildingBlock: UVAHIK_clean_linker_0, # of connection points: 2
# Relax obj value: 0.218
# Max RMSD: 0.313
# Mean RMSD: 0.230
data_MOF--net-uot--node1-AZAVOO_clean_sbu_0--edge1-UVAHIK_clean_linker_0
_symmetry_space_group_name_H-M    P1
_symmetry_Int_Tables_number       1
_symmetry_cell_setting            triclinic
loop_
_symmetry_equiv_pos_as_xyz
'x, y, z'
_cell_length_a     62.276313
_cell_length_b     45.752562
_cell_length_c     51.777521
_cell_angle_alpha  90.022776
_cell_angle_beta   89.895005
_cell_angle_gamma 89.945476
loop_
_atom_site_label
_atom_site_type_symbol
_atom_site_fract_x
_atom_site_fract_y
_atom_site_fract_z
_atom_type_partial_charge
Mg0 Mg 0.19285 0.45503 0.31683 0.0
O1 O 0.182 0.49737 0.29674 0.0
O2 O 0.20092 0.53416 0.3135 0.0
Mg3 Mg 0.22365 0.51559 0.34408 0.0
C4 C 0.18666 0.52452 0.29801 0.0
C5 C 0.15407 0.43144 0.28801 0.0
O6 O 0.14626 0.45376 0.30096 0.0
O7 O 0.22418 0.45383 0.29385 0.0
O8 O 0.24247 0.48973 0.31324 0.0
O9 O 0.16879 0.46176 0.34799 0.0
O10 O 0.20212 0.47808 0.34968 0.0
C11 C 0.24126 0.46894 0.29679 0.0
C12 C 0.18347 0.47605 0.36029 0.0
O13 O 0.17426 0.42724 0.28809 0.0
Mg14 Mg 0.47419 0.67981 0.70067 0.0
O15 O 0.45742 0.72452 0.6999 0.0
O16 O 0.48057 0.75942 0.68832 0.0
Mg17 Mg 0.51256 0.73637 0.6804 0.0
C18 C 0.46187 0.75125 0.69537 0.0
C19 C 0.42804 0.66772 0.72143 0.0
O20 O 0.43378 0.68979 0.73609 0.0
O21 O 0.47365 0.67678 0.65625 0.0
O22 O 0.49725 0.71208 0.64664 0.0
O23 O 0.48447 0.68995 0.7412 0.0
O24 O 0.50361 0.70033 0.7064 0.0
C25 C 0.4842 0.692 0.63986 0.0
C26 C 0.50113 0.7023 0.73097 0.0
O27 O 0.44124 0.65794 0.70473 0.0
Mg28 Mg 0.81828 0.52756 0.31859 0.0
O29 O 0.83103 0.48617 0.29857 0.0
O30 O 0.81128 0.44919 0.31361 0.0
Mg31 Mg 0.78728 0.46633 0.34362 0.0
C32 C 0.82627 0.45902 0.29919 0.0
C33 C 0.84401 0.57855 0.30595 0.0
O34 O 0.83803 0.57974 0.33028 0.0
O35 O 0.78804 0.52826 0.29382 0.0
O36 O 0.769 0.49297 0.31297 0.0
O37 O 0.84123 0.52121 0.3508 0.0
O38 O 0.80809 0.50415 0.3508 0.0
C39 C 0.77067 0.51368 0.2965 0.0
C40 C 0.82617 0.50702 0.36256 0.0
O41 O 0.83721 0.55753 0.29212 0.0
Mg42 Mg 0.52615 0.30962 0.66521 0.0
O43 O 0.54302 0.266 0.67355 0.0
O44 O 0.52234 0.22905 0.66044 0.0
Mg45 Mg 0.49216 0.24943 0.64272 0.0
C46 C 0.53942 0.23869 0.67099 0.0
C47 C 0.56308 0.33991 0.69632 0.0
O48 O 0.54967 0.33463 0.71535 0.0
O49 O 0.53345 0.30693 0.62183 0.0
O50 O 0.51198 0.26999 0.6102 0.0
O51 O 0.50971 0.30478 0.70344 0.0
O52 O 0.49641 0.28909 0.66635 0.0
C53 C 0.52572 0.28976 0.60474 0.0
C54 C 0.49497 0.29061 0.69107 0.0
O55 O 0.55786 0.33272 0.67344 0.0
Mg56 Mg 0.17363 0.55094 0.67348 0.0
O57 O 0.16231 0.51005 0.69567 0.0
O58 O 0.18446 0.47377 0.68416 0.0
Mg59 Mg 0.20771 0.49002 0.65308 0.0
C60 C 0.16867 0.48354 0.69735 0.0
C61 C 0.14674 0.60263 0.68343 0.0
O62 O 0.15445 0.60435 0.65983 0.0
O63 O 0.20364 0.55592 0.69893 0.0
O64 O 0.22402 0.52021 0.6824 0.0
O65 O 0.15183 0.54031 0.64074 0.0
O66 O 0.18546 0.52547 0.64349 0.0
C67 C 0.22147 0.54203 0.69753 0.0
C68 C 0.16773 0.52597 0.63079 0.0
O69 O 0.15269 0.58136 0.69755 0.0
Mg70 Mg 0.53147 0.68164 0.31356 0.0
O71 O 0.55188 0.72327 0.30873 0.0
O72 O 0.53356 0.76148 0.32424 0.0
Mg73 Mg 0.501 0.74471 0.33806 0.0
C74 C 0.55023 0.75051 0.31368 0.0
C75 C 0.57285 0.66037 0.28538 0.0
O76 O 0.56742 0.68261 0.27073 0.0
O77 O 0.53718 0.67996 0.35757 0.0
O78 O 0.51725 0.71831 0.36973 0.0
O79 O 0.51636 0.69076 0.27499 0.0
O80 O 0.50361 0.70663 0.31225 0.0
C81 C 0.52938 0.69665 0.37507 0.0
C82 C 0.50237 0.70626 0.2875 0.0
O83 O 0.56119 0.654 0.30478 0.0
Mg84 Mg 0.8141 0.46743 0.67526 0.0
O85 O 0.82537 0.50565 0.7005 0.0
O86 O 0.80526 0.54416 0.68974 0.0
Mg87 Mg 0.78218 0.53092 0.65739 0.0
C88 C 0.82015 0.53248 0.70316 0.0
C89 C 0.84165 0.41612 0.68414 0.0
O90 O 0.83812 0.41807 0.65919 0.0
O91 O 0.7835 0.46186 0.69872 0.0
O92 O 0.76389 0.49941 0.68437 0.0
O93 O 0.83768 0.47973 0.6452 0.0
O94 O 0.80411 0.49544 0.64601 0.0
C95 C 0.76593 0.47625 0.69799 0.0
C96 C 0.82263 0.49529 0.63485 0.0
O97 O 0.8328 0.43465 0.69906 0.0
Mg98 Mg 0.48872 0.30696 0.27413 0.0
O99 O 0.47299 0.26173 0.27326 0.0
O100 O 0.49776 0.2271 0.27892 0.0
Mg101 Mg 0.52955 0.25086 0.28632 0.0
C102 C 0.47838 0.23487 0.27482 0.0
C103 C 0.45263 0.35429 0.27005 0.0
O104 O 0.46962 0.37071 0.26609 0.0
O105 O 0.49069 0.30567 0.31856 0.0
O106 O 0.51568 0.27085 0.32321 0.0
O107 O 0.49712 0.30105 0.232 0.0
O108 O 0.51829 0.28906 0.26453 0.0
C109 C 0.50257 0.28945 0.33275 0.0
C110 C 0.51482 0.28942 0.24012 0.0
O111 O 0.45521 0.32719 0.27448 0.0
Mg112 Mg 0.66145 0.97328 0.85947 0.0
O113 O 0.65238 0.01062 0.83176 0.0
O114 O 0.67291 0.04897 0.84203 0.0
Mg115 Mg 0.69286 0.03747 0.87777 0.0
C116 C 0.65862 0.03687 0.82799 0.0
C117 C 0.62407 0.93935 0.83481 0.0
O118 O 0.61397 0.95945 0.84827 0.0
O119 O 0.69391 0.96623 0.83945 0.0
O120 O 0.71267 0.00446 0.85401 0.0
O121 O 0.63608 0.98749 0.88717 0.0
O122 O 0.66951 0.0033 0.88822 0.0
C123 C 0.71144 0.9806 0.84122 0.0
C124 C 0.65036 0.00419 0.89765 0.0
O125 O 0.64448 0.93981 0.83397 0.0
Mg126 Mg 0.98419 0.17258 0.19966 0.0
O127 O 0.96746 0.21728 0.20048 0.0
O128 O 0.99009 0.25209 0.18752 0.0
Mg129 Mg 0.02087 0.22864 0.17484 0.0
C130 C 0.9718 0.24409 0.19612 0.0
C131 C 0.9463 0.12656 0.19982 0.0
O132 O 0.95992 0.1116 0.18561 0.0
O133 O 0.97983 0.16921 0.15571 0.0
O134 O 0.00231 0.20474 0.14321 0.0
O135 O 0.99799 0.18326 0.23862 0.0
O136 O 0.01415 0.19238 0.20141 0.0
C137 C 0.98875 0.18463 0.13813 0.0
C138 C 0.01391 0.19472 0.2261 0.0
O139 O 0.95166 0.1517 0.208 0.0
Mg140 Mg 0.31286 0.04438 0.80616 0.0
O141 O 0.325 0.00155 0.7885 0.0
O142 O 0.30417 0.9654 0.8031 0.0
Mg143 Mg 0.28067 0.98479 0.8327 0.0
C144 C 0.31967 0.97465 0.78918 0.0
C145 C 0.35289 0.06686 0.77925 0.0
O146 O 0.36019 0.04614 0.79444 0.0
O147 O 0.28281 0.04444 0.7809 0.0
O148 O 0.2631 0.01052 0.80101 0.0
O149 O 0.33517 0.03923 0.83921 0.0
O150 O 0.30189 0.02261 0.83896 0.0
C151 C 0.26523 0.03039 0.78384 0.0
C152 C 0.3199 0.02536 0.85088 0.0
O153 O 0.33271 0.07065 0.77757 0.0
Mg154 Mg 0.03134 0.80819 0.18851 0.0
O155 O 0.05062 0.76509 0.18908 0.0
O156 O 0.03077 0.72974 0.17153 0.0
Mg157 Mg 0.99942 0.75034 0.15789 0.0
C158 C 0.04793 0.73842 0.18252 0.0
C159 C 0.07418 0.82416 0.21721 0.0
O160 O 0.06927 0.80018 0.22986 0.0
O161 O 0.03768 0.81472 0.14529 0.0
O162 O 0.01756 0.77869 0.12886 0.0
O163 O 0.01555 0.79522 0.22585 0.0
O164 O 0.00277 0.78488 0.18717 0.0
C165 C 0.03027 0.80034 0.12612 0.0
C166 C 0.00125 0.78223 0.21179 0.0
O167 O 0.06172 0.83318 0.19948 0.0
Mg168 Mg 0.68001 0.0551 0.20387 0.0
O169 O 0.67025 0.00762 0.20971 0.0
O170 O 0.68483 0.97929 0.1793 0.0
Mg171 Mg 0.7023 0.01062 0.15151 0.0
C172 C 0.67341 0.98262 0.19956 0.0
C173 C 0.65498 0.07735 0.2556 0.0
O174 O 0.65226 0.07665 0.28077 0.0
O175 O 0.71472 0.04605 0.21608 0.0
O176 O 0.72762 0.02119 0.18224 0.0
O177 O 0.65094 0.06183 0.17848 0.0
O178 O 0.68296 0.04862 0.16445 0.0
C179 C 0.73019 0.03348 0.20418 0.0
C180 C 0.66332 0.0548 0.15935 0.0
O181 O 0.67057 0.06314 0.24587 0.0
Mg182 Mg 0.02442 0.18817 0.8105 0.0
O183 O 0.04239 0.23213 0.80756 0.0
O184 O 0.02154 0.26757 0.82354 0.0
Mg185 Mg 0.99017 0.24654 0.83677 0.0
C186 C 0.03899 0.25896 0.81307 0.0
C187 C 0.06667 0.17206 0.78151 0.0
O188 O 0.06017 0.19444 0.76768 0.0
O189 O 0.03015 0.18516 0.85439 0.0
O190 O 0.00807 0.22081 0.86759 0.0
O191 O 0.00901 0.19746 0.77215 0.0
O192 O 0.99523 0.21002 0.80987 0.0
C193 C 0.02142 0.20033 0.87234 0.0
C194 C 0.99412 0.21074 0.78512 0.0
O195 O 0.0555 0.16396 0.80081 0.0
Mg196 Mg 0.31924 0.95295 0.16511 0.0
O197 O 0.33202 0.99375 0.18591 0.0
O198 O 0.31116 0.03105 0.17388 0.0
Mg199 Mg 0.28603 0.01464 0.14511 0.0
C200 C 0.32693 0.02079 0.18676 0.0
C201 C 0.34869 0.90352 0.17599 0.0
O202 O 0.34453 0.90293 0.15112 0.0
O203 O 0.29016 0.95005 0.19185 0.0
O204 O 0.2698 0.98614 0.17615 0.0
O205 O 0.34075 0.96219 0.1319 0.0
O206 O 0.30734 0.97815 0.13492 0.0
C207 C 0.27261 0.96453 0.19145 0.0
C208 C 0.32509 0.97714 0.12216 0.0
O209 O 0.33965 0.92294 0.18983 0.0
Mg210 Mg 0.96269 0.82215 0.80777 0.0
O211 O 0.95005 0.77513 0.8086 0.0
O212 O 0.97729 0.74403 0.81393 0.0
Mg213 Mg 0.00753 0.77167 0.81967 0.0
C214 C 0.95736 0.74914 0.81041 0.0
C215 C 0.92365 0.86552 0.8088 0.0
O216 O 0.9396 0.88429 0.80819 0.0
O217 O 0.96596 0.823 0.85213 0.0
O218 O 0.99329 0.79151 0.85618 0.0
O219 O 0.97066 0.81527 0.76551 0.0
O220 O 0.99316 0.80757 0.79768 0.0
C221 C 0.97936 0.80874 0.866 0.0
C222 C 0.98921 0.80622 0.77345 0.0
O223 O 0.92789 0.83833 0.80908 0.0
C224 C 0.27859 0.47931 0.28162 0.0
C225 C 0.26136 0.45968 0.28383 0.0
C226 C 0.29903 0.46936 0.27477 0.0
C227 C 0.33002 0.4042 0.25175 0.0
H228 H 0.37477 0.43827 0.29417 0.0
C229 C 0.41251 0.34902 0.2695 0.0
C230 C 0.43078 0.36707 0.26883 0.0
C231 C 0.39191 0.36113 0.26819 0.0
C232 C 0.36254 0.42876 0.28193 0.0
H233 H 0.25174 0.4145 0.27891 0.0
H234 H 0.28747 0.39696 0.26762 0.0
H235 H 0.33867 0.45827 0.29591 0.0
H236 H 0.44169 0.41198 0.2661 0.0
H237 H 0.40573 0.43307 0.26408 0.0
H238 H 0.35401 0.37396 0.23857 0.0
C239 C 0.28522 0.42015 0.27076 0.0
C240 C 0.3418 0.44032 0.2828 0.0
C241 C 0.26467 0.43021 0.27725 0.0
C242 C 0.42797 0.39746 0.26674 0.0
C243 C 0.40737 0.40957 0.26566 0.0
C244 C 0.35079 0.39245 0.25106 0.0
C245 C 0.30282 0.43944 0.27038 0.0
C246 C 0.3252 0.42814 0.26783 0.0
C247 C 0.38911 0.39155 0.26642 0.0
C248 C 0.36724 0.40453 0.26626 0.0
H249 H 0.27649 0.50223 0.28626 0.0
H250 H 0.31204 0.48502 0.27388 0.0
H251 H 0.31775 0.39446 0.23973 0.0
H252 H 0.4141 0.32551 0.27103 0.0
H253 H 0.37814 0.34672 0.26911 0.0
C254 C 0.39 0.67044 0.73701 0.0
C255 C 0.40634 0.65488 0.72419 0.0
C256 C 0.36938 0.65864 0.73936 0.0
C257 C 0.33968 0.58966 0.73974 0.0
H258 H 0.29128 0.63549 0.71572 0.0
C259 C 0.26003 0.53725 0.71 0.0
C260 C 0.2408 0.55336 0.71096 0.0
C261 C 0.27942 0.54978 0.71758 0.0
C262 C 0.30446 0.62256 0.72315 0.0
H263 H 0.41397 0.61456 0.70415 0.0
H264 H 0.378 0.5937 0.70871 0.0
H265 H 0.32696 0.65729 0.71685 0.0
H266 H 0.22669 0.5946 0.72278 0.0
H267 H 0.26057 0.61629 0.73682 0.0
H268 H 0.31736 0.55495 0.74619 0.0
C269 C 0.38118 0.61508 0.71683 0.0
C270 C 0.32495 0.63505 0.7236 0.0
C271 C 0.40171 0.6271 0.71408 0.0
C272 C 0.24121 0.58161 0.72164 0.0
C273 C 0.26069 0.59416 0.72942 0.0
C274 C 0.31916 0.5773 0.73968 0.0
C275 C 0.36479 0.63081 0.72936 0.0
C276 C 0.34283 0.61848 0.73128 0.0
C277 C 0.28016 0.57874 0.72663 0.0
C278 C 0.30134 0.59329 0.73067 0.0
H279 H 0.39305 0.69195 0.74494 0.0
H280 H 0.35705 0.67117 0.74915 0.0
H281 H 0.35316 0.57657 0.74617 0.0
H282 H 0.26037 0.51534 0.70207 0.0
H283 H 0.29397 0.53719 0.71484 0.0
C284 C 0.5964 0.61648 0.29168 0.0
C285 C 0.59261 0.64354 0.27969 0.0
C286 C 0.61532 0.60097 0.2867 0.0
C287 C 0.67112 0.61207 0.26883 0.0
H288 H 0.6715 0.52832 0.25739 0.0
C289 C 0.75089 0.54935 0.26821 0.0
C290 C 0.75086 0.52382 0.28333 0.0
C291 C 0.73152 0.56232 0.26065 0.0
C292 C 0.67172 0.55169 0.26068 0.0
H293 H 0.60561 0.67544 0.2529 0.0
H294 H 0.63885 0.64856 0.24465 0.0
H295 H 0.63737 0.55455 0.25914 0.0
H296 H 0.73039 0.49056 0.30034 0.0
H297 H 0.69697 0.51335 0.28787 0.0
H298 H 0.70524 0.60926 0.27189 0.0
C299 C 0.62709 0.63932 0.25775 0.0
C300 C 0.65215 0.56668 0.26161 0.0
C301 C 0.60804 0.65464 0.26244 0.0
C302 C 0.7311 0.51033 0.28888 0.0
C303 C 0.7118 0.52338 0.28152 0.0
C304 C 0.69067 0.59706 0.26825 0.0
C305 C 0.63095 0.6124 0.2699 0.0
C306 C 0.65166 0.59692 0.26621 0.0
C307 C 0.71172 0.55013 0.26816 0.0
C308 C 0.69121 0.56654 0.26474 0.0
H309 H 0.58479 0.60731 0.305 0.0
H310 H 0.61798 0.58041 0.29655 0.0
H311 H 0.6712 0.63536 0.27261 0.0
H312 H 0.76581 0.5602 0.26335 0.0
H313 H 0.73209 0.58252 0.24979 0.0
C314 C 0.59964 0.35573 0.68176 0.0
C315 C 0.58427 0.3533 0.70154 0.0
C316 C 0.61978 0.36783 0.68676 0.0
C317 C 0.66499 0.37817 0.70632 0.0
H318 H 0.66908 0.45163 0.74339 0.0
C319 C 0.74634 0.43434 0.71851 0.0
C320 C 0.74639 0.46348 0.70987 0.0
C321 C 0.72699 0.42019 0.7241 0.0
C322 C 0.6682 0.43102 0.73316 0.0
H323 H 0.57798 0.36186 0.74209 0.0
H324 H 0.6132 0.3832 0.75074 0.0
H325 H 0.63416 0.4278 0.73869 0.0
H326 H 0.72626 0.50141 0.70282 0.0
H327 H 0.69265 0.47675 0.71246 0.0
H328 H 0.69877 0.38182 0.69987 0.0
C329 C 0.60959 0.37573 0.73137 0.0
C330 C 0.64824 0.4173 0.7306 0.0
C331 C 0.58946 0.36342 0.72641 0.0
C332 C 0.72683 0.47887 0.70919 0.0
C333 C 0.70752 0.46476 0.71486 0.0
C334 C 0.68491 0.39177 0.709 0.0
C335 C 0.625 0.37793 0.71162 0.0
C336 C 0.64637 0.39108 0.71662 0.0
C337 C 0.70731 0.43494 0.72132 0.0
C338 C 0.68669 0.41867 0.72196 0.0
H339 H 0.59617 0.34816 0.66239 0.0
H340 H 0.6312 0.36963 0.67104 0.0
H341 H 0.66409 0.35777 0.69575 0.0
H342 H 0.76111 0.42185 0.71946 0.0
H343 H 0.72736 0.39732 0.72949 0.0
C344 C 0.73307 0.93835 0.82397 0.0
C345 C 0.73157 0.96817 0.83039 0.0
C346 C 0.75293 0.92591 0.81748 0.0
C347 C 0.80877 0.94377 0.79771 0.0
H348 H 0.82354 0.87269 0.83438 0.0
C349 C 0.89649 0.90601 0.80974 0.0
C350 C 0.90107 0.87595 0.80882 0.0
C351 C 0.87526 0.91598 0.80971 0.0
C352 C 0.81961 0.89227 0.82363 0.0
H353 H 0.74963 0.00857 0.83355 0.0
H354 H 0.78404 0.98697 0.82215 0.0
H355 H 0.78719 0.8922 0.83751 0.0
H356 H 0.88683 0.83274 0.80694 0.0
H357 H 0.84978 0.85015 0.80657 0.0
H358 H 0.84122 0.94408 0.78406 0.0
C359 C 0.76993 0.97315 0.82214 0.0
C360 C 0.79873 0.90345 0.82541 0.0
C361 C 0.75017 0.98551 0.82882 0.0
C362 C 0.88388 0.85606 0.80778 0.0
C363 C 0.86262 0.86604 0.80768 0.0
C364 C 0.82961 0.93255 0.79584 0.0
C365 C 0.77166 0.94308 0.81698 0.0
C366 C 0.79316 0.9296 0.81283 0.0
C367 C 0.85803 0.89614 0.80866 0.0
C368 C 0.83542 0.90692 0.80914 0.0
H369 H 0.71908 0.92434 0.82501 0.0
H370 H 0.7537 0.90273 0.81331 0.0
H371 H 0.80491 0.96373 0.78747 0.0
H372 H 0.90932 0.92195 0.81065 0.0
H373 H 0.87237 0.93928 0.81095 0.0
C374 C 0.76918 0.02037 0.20268 0.0
C375 C 0.75243 0.03658 0.214 0.0
C376 C 0.79059 0.02733 0.20771 0.0
C377 C 0.8226 0.0915 0.22364 0.0
H378 H 0.86974 0.03609 0.22477 0.0
C379 C 0.91079 0.12986 0.22255 0.0
C380 C 0.92482 0.11454 0.20608 0.0
C381 C 0.89031 0.11896 0.22798 0.0
C382 C 0.85676 0.05184 0.22432 0.0
H383 H 0.7451 0.07137 0.24113 0.0
H384 H 0.78257 0.08342 0.25001 0.0
H385 H 0.83283 0.01847 0.22808 0.0
H386 H 0.92839 0.07552 0.18267 0.0
H387 H 0.89254 0.05679 0.19171 0.0
H388 H 0.84634 0.12479 0.21898 0.0
C389 C 0.77906 0.06557 0.23693 0.0
C390 C 0.83562 0.04175 0.22633 0.0
C391 C 0.75759 0.05849 0.232 0.0
C392 C 0.91801 0.08785 0.19546 0.0
C393 C 0.89749 0.07699 0.20082 0.0
C394 C 0.8437 0.10158 0.22156 0.0
C395 C 0.79578 0.05073 0.22414 0.0
C396 C 0.81828 0.06143 0.22555 0.0
C397 C 0.88332 0.09253 0.21699 0.0
C398 C 0.86103 0.08185 0.22141 0.0
H399 H 0.76579 0.00321 0.18886 0.0
H400 H 0.80304 0.01553 0.19743 0.0
H401 H 0.80963 0.10723 0.2225 0.0
H402 H 0.91557 0.1504 0.23122 0.0
H403 H 0.87995 0.13129 0.2408 0.0
C404 C 0.09125 0.12886 0.78501 0.0
C405 C 0.08674 0.15656 0.77463 0.0
C406 C 0.11027 0.11433 0.77857 0.0
C407 C 0.16544 0.12794 0.75968 0.0
H408 H 0.16635 0.04521 0.74343 0.0
C409 C 0.24559 0.06662 0.75599 0.0
C410 C 0.24562 0.04043 0.7702 0.0
C411 C 0.22618 0.0796 0.74859 0.0
C412 C 0.16642 0.0683 0.74801 0.0
H413 H 0.09862 0.19072 0.74931 0.0
H414 H 0.13212 0.16551 0.73857 0.0
H415 H 0.13203 0.07071 0.7473 0.0
H416 H 0.22532 0.0059 0.78541 0.0
H417 H 0.19183 0.02865 0.77323 0.0
H418 H 0.19961 0.12544 0.76202 0.0
C419 C 0.12081 0.15502 0.75148 0.0
C420 C 0.14675 0.08287 0.75017 0.0
C421 C 0.10163 0.16938 0.75761 0.0
C422 C 0.22595 0.02624 0.77473 0.0
C423 C 0.20662 0.03927 0.76752 0.0
C424 C 0.1851 0.11331 0.75788 0.0
C425 C 0.12531 0.12736 0.76192 0.0
C426 C 0.14608 0.11267 0.75661 0.0
C427 C 0.20642 0.06672 0.75533 0.0
C428 C 0.18583 0.08311 0.75269 0.0
H429 H 0.08007 0.11837 0.7981 0.0
H430 H 0.11346 0.09317 0.78714 0.0
H431 H 0.16538 0.15089 0.76483 0.0
H432 H 0.26045 0.07803 0.75192 0.0
H433 H 0.22666 0.10039 0.73861 0.0
C434 C 0.25477 0.92709 0.21986 0.0
C435 C 0.25381 0.95367 0.20627 0.0
C436 C 0.23599 0.91407 0.2293 0.0
C437 C 0.17692 0.92644 0.23866 0.0
H438 H 0.17327 0.84412 0.22139 0.0
C439 C 0.09793 0.86804 0.21299 0.0
C440 C 0.09447 0.83976 0.22271 0.0
C441 C 0.11747 0.88226 0.21715 0.0
C442 C 0.17411 0.86698 0.22674 0.0
H443 H 0.2325 0.98855 0.19391 0.0
H444 H 0.20002 0.96574 0.20969 0.0
H445 H 0.20776 0.86888 0.21898 0.0
H446 H 0.10868 0.80438 0.24475 0.0
H447 H 0.143 0.82912 0.25159 0.0
H448 H 0.1429 0.92468 0.24494 0.0
C449 C 0.21517 0.95491 0.21337 0.0
C450 C 0.19393 0.88121 0.22549 0.0
C451 C 0.23389 0.96796 0.2041 0.0
C452 C 0.11084 0.82618 0.23704 0.0
C453 C 0.13051 0.84027 0.24089 0.0
C454 C 0.15705 0.91226 0.23961 0.0
C455 C 0.21585 0.92731 0.22529 0.0
C456 C 0.19551 0.91132 0.23079 0.0
C457 C 0.13406 0.86837 0.23084 0.0
C458 C 0.15538 0.88256 0.23307 0.0
H459 H 0.26985 0.91557 0.2221 0.0
H460 H 0.23718 0.89311 0.2389 0.0
H461 H 0.17758 0.94947 0.2434 0.0
H462 H 0.08562 0.87911 0.20194 0.0
H463 H 0.11984 0.90378 0.20891 0.0
C464 C 0.15789 0.53623 0.26557 0.0
C465 C 0.17446 0.54571 0.28197 0.0
C466 C 0.14553 0.55644 0.25178 0.0
C467 C 0.14411 0.6338 0.22975 0.0
H468 H 0.08255 0.62144 0.22879 0.0
C469 C 0.08295 0.72455 0.20341 0.0
C470 C 0.06451 0.71644 0.18948 0.0
C471 C 0.09749 0.70335 0.21202 0.0
C472 C 0.09973 0.62505 0.22851 0.0
H473 H 0.19131 0.584 0.29617 0.0
H474 H 0.16965 0.61909 0.27242 0.0
H475 H 0.10578 0.58499 0.24849 0.0
H476 H 0.04749 0.67962 0.17275 0.0
H477 H 0.07291 0.64286 0.1875 0.0
H478 H 0.13794 0.67417 0.21012 0.0
C479 C 0.16634 0.59603 0.26996 0.0
C480 C 0.11308 0.6041 0.23981 0.0
C481 C 0.1787 0.57585 0.28373 0.0
C482 C 0.06141 0.68672 0.18358 0.0
C483 C 0.07592 0.66556 0.19219 0.0
C484 C 0.13074 0.6548 0.21846 0.0
C485 C 0.14944 0.58662 0.25404 0.0
C486 C 0.13543 0.60828 0.24075 0.0
C487 C 0.09393 0.67354 0.2069 0.0
C488 C 0.10837 0.65075 0.21785 0.0
H489 H 0.15421 0.5132 0.26363 0.0
H490 H 0.13284 0.54841 0.2394 0.0
H491 H 0.16128 0.63754 0.22981 0.0
H492 H 0.08591 0.74721 0.20828 0.0
H493 H 0.11111 0.71024 0.22346 0.0
C494 C 0.5075 0.73802 0.76682 0.0
C495 C 0.5153 0.72186 0.74576 0.0
C496 C 0.52016 0.75997 0.7779 0.0
C497 C 0.5662 0.80776 0.76093 0.0
H498 H 0.56386 0.82891 0.83337 0.0
C499 C 0.62204 0.89418 0.80739 0.0
C500 C 0.6119 0.91478 0.82345 0.0
C501 C 0.61068 0.86999 0.79814 0.0
C502 C 0.56457 0.82328 0.81307 0.0
H503 H 0.54276 0.71435 0.72089 0.0
H504 H 0.56514 0.75149 0.74086 0.0
H505 H 0.54379 0.78647 0.81809 0.0
H506 H 0.58183 0.92631 0.84216 0.0
H507 H 0.56215 0.88404 0.82617 0.0
H508 H 0.58721 0.84438 0.75605 0.0
C509 C 0.54904 0.74825 0.74826 0.0
C510 C 0.55303 0.79903 0.80429 0.0
C511 C 0.53631 0.72675 0.73696 0.0
C512 C 0.59013 0.91088 0.8298 0.0
C513 C 0.57887 0.88656 0.82083 0.0
C514 C 0.57791 0.83174 0.76977 0.0
C515 C 0.54091 0.76581 0.76831 0.0
C516 C 0.55364 0.79102 0.77807 0.0
C517 C 0.58906 0.86579 0.80506 0.0
C518 C 0.5771 0.83984 0.79587 0.0
H519 H 0.49127 0.7348 0.77379 0.0
H520 H 0.51328 0.77318 0.79318 0.0
H521 H 0.56668 0.80274 0.7405 0.0
H522 H 0.6388 0.89657 0.80218 0.0
H523 H 0.61892 0.85423 0.78605 0.0
C524 C 0.93509 0.25835 0.21183 0.0
C525 C 0.95544 0.26662 0.20254 0.0
C526 C 0.92018 0.27943 0.21962 0.0
C527 C 0.90666 0.35829 0.2155 0.0
H528 H 0.87627 0.34278 0.27945 0.0
C529 C 0.83359 0.40818 0.28327 0.0
C530 C 0.83936 0.43788 0.28407 0.0
C531 C 0.84681 0.38769 0.27108 0.0
C532 C 0.88435 0.34733 0.26136 0.0
H533 H 0.97575 0.3038 0.19355 0.0
H534 H 0.94977 0.34054 0.20739 0.0
H535 H 0.90091 0.3064 0.26226 0.0
H536 H 0.86333 0.46938 0.27182 0.0
H537 H 0.88654 0.43352 0.25081 0.0
H538 H 0.89016 0.39944 0.21483 0.0
C539 C 0.9453 0.3177 0.20841 0.0
C540 C 0.89851 0.32643 0.25149 0.0
C541 C 0.96025 0.29659 0.20058 0.0
C542 C 0.85836 0.44671 0.27157 0.0
C543 C 0.87165 0.42614 0.25942 0.0
C544 C 0.89244 0.37925 0.22539 0.0
C545 C 0.92521 0.30936 0.21839 0.0
C546 C 0.90985 0.33161 0.22844 0.0
C547 C 0.86622 0.3963 0.25945 0.0
C548 C 0.8811 0.374 0.24845 0.0
H549 H 0.93073 0.23551 0.21345 0.0
H550 H 0.90471 0.27225 0.22678 0.0
H551 H 0.91498 0.36286 0.19757 0.0
H552 H 0.81898 0.40058 0.29245 0.0
H553 H 0.8419 0.36499 0.271 0.0
C554 C 0.48368 0.25867 0.7278 0.0
C555 C 0.47882 0.27277 0.70446 0.0
C556 C 0.46956 0.23784 0.73794 0.0
C557 C 0.41421 0.21123 0.73681 0.0
H558 H 0.43911 0.1341 0.74507 0.0
C559 C 0.36075 0.10992 0.75085 0.0
C560 C 0.36789 0.08857 0.76832 0.0
C561 C 0.37445 0.13246 0.74307 0.0
C562 C 0.4319 0.15554 0.74331 0.0
H563 H 0.45511 0.27768 0.67419 0.0
H564 H 0.43016 0.24204 0.69236 0.0
H565 H 0.46222 0.17544 0.73476 0.0
H566 H 0.39516 0.07368 0.79083 0.0
H567 H 0.41869 0.11326 0.77801 0.0
H568 H 0.38397 0.19171 0.74579 0.0
C569 C 0.4449 0.24678 0.70264 0.0
C570 C 0.44517 0.17919 0.73741 0.0
C571 C 0.45916 0.26706 0.69224 0.0
C572 C 0.38918 0.08969 0.77721 0.0
C573 C 0.40274 0.11241 0.76975 0.0
C574 C 0.40096 0.18769 0.74314 0.0
C575 C 0.45024 0.23141 0.72516 0.0
C576 C 0.43641 0.20715 0.73388 0.0
C577 C 0.39548 0.13434 0.75288 0.0
C578 C 0.4096 0.15946 0.74621 0.0
H579 H 0.49885 0.26255 0.73741 0.0
H580 H 0.47394 0.22624 0.75539 0.0
H581 H 0.40713 0.23267 0.73421 0.0
H582 H 0.34446 0.10952 0.74356 0.0
H583 H 0.36845 0.14856 0.72956 0.0
C584 C 0.16741 0.43875 0.72496 0.0
C585 C 0.1568 0.46282 0.71401 0.0
C586 C 0.15598 0.41773 0.73893 0.0
C587 C 0.10197 0.40203 0.76823 0.0
H588 H 0.12186 0.32202 0.76258 0.0
C589 C 0.056 0.30824 0.81819 0.0
C590 C 0.05505 0.28119 0.80541 0.0
C591 C 0.06989 0.33019 0.80957 0.0
C592 C 0.11585 0.34415 0.76416 0.0
H593 H 0.12594 0.48397 0.7093 0.0
H594 H 0.10577 0.44668 0.73245 0.0
H595 H 0.14223 0.36075 0.74236 0.0
H596 H 0.06804 0.25585 0.77366 0.0
H597 H 0.09144 0.29434 0.75784 0.0
H598 H 0.07475 0.38516 0.78837 0.0
C599 C 0.12303 0.44436 0.73117 0.0
C600 C 0.12785 0.36663 0.75292 0.0
C601 C 0.13457 0.46577 0.71773 0.0
C602 C 0.06857 0.27635 0.7841 0.0
C603 C 0.08211 0.29851 0.77511 0.0
C604 C 0.08973 0.37948 0.779 0.0
C605 C 0.13353 0.4198 0.74174 0.0
C606 C 0.12107 0.39595 0.75467 0.0
C607 C 0.08284 0.32591 0.78754 0.0
C608 C 0.09642 0.35014 0.77703 0.0
H609 H 0.18459 0.43609 0.72263 0.0
H610 H 0.16484 0.39975 0.74733 0.0
H611 H 0.09632 0.42426 0.7705 0.0
H612 H 0.0459 0.31251 0.83483 0.0
H613 H 0.07032 0.35058 0.82016 0.0
C614 C 0.37682 0.8652 0.17049 0.0
C615 C 0.3643 0.88268 0.187 0.0
C616 C 0.39201 0.84589 0.18051 0.0
C617 C 0.42351 0.83091 0.23954 0.0
H618 H 0.43217 0.75501 0.20766 0.0
C619 C 0.47065 0.73933 0.28887 0.0
C620 C 0.4865 0.72497 0.27425 0.0
C621 C 0.4562 0.75832 0.27713 0.0
C622 C 0.43006 0.77627 0.21654 0.0
H623 H 0.35761 0.89333 0.22701 0.0
H624 H 0.38376 0.85897 0.24463 0.0
H625 H 0.40543 0.78849 0.18992 0.0
H626 H 0.49909 0.71835 0.23561 0.0
H627 H 0.47335 0.75152 0.21485 0.0
H628 H 0.44777 0.81829 0.26654 0.0
C629 C 0.38219 0.86069 0.22386 0.0
C630 C 0.41478 0.79547 0.20641 0.0
C631 C 0.36711 0.88025 0.2138 0.0
C632 C 0.48711 0.72924 0.24738 0.0
C633 C 0.47241 0.74814 0.23553 0.0
C634 C 0.43861 0.81162 0.24978 0.0
C635 C 0.3949 0.84338 0.20731 0.0
C636 C 0.41124 0.82297 0.21789 0.0
C637 C 0.45706 0.76316 0.25042 0.0
C638 C 0.44192 0.78406 0.23849 0.0
H639 H 0.37516 0.8667 0.14971 0.0
H640 H 0.40173 0.8333 0.16717 0.0
H641 H 0.42157 0.85214 0.24851 0.0
H642 H 0.46935 0.736 0.30951 0.0
H643 H 0.44423 0.76915 0.28897 0.0
C644 C 0.8517 0.54091 0.73247 0.0
C645 C 0.83268 0.55125 0.72101 0.0
C646 C 0.86462 0.55962 0.74711 0.0
C647 C 0.86525 0.63108 0.78104 0.0
H648 H 0.92579 0.6308 0.76345 0.0
C649 C 0.92076 0.72931 0.80036 0.0
C650 C 0.94244 0.72424 0.8065 0.0
C651 C 0.90714 0.70608 0.79424 0.0
C652 C 0.90902 0.63086 0.76902 0.0
H653 H 0.8119 0.58911 0.71703 0.0
H654 H 0.83442 0.62159 0.74244 0.0
H655 H 0.90224 0.59368 0.74535 0.0
H656 H 0.96649 0.69048 0.81212 0.0
H657 H 0.94261 0.64994 0.80179 0.0
H658 H 0.87197 0.66862 0.80435 0.0
C659 C 0.83931 0.59901 0.7402 0.0
C660 C 0.8955 0.60956 0.7586 0.0
C661 C 0.82646 0.58039 0.72547 0.0
C662 C 0.94993 0.69524 0.80732 0.0
C663 C 0.93627 0.67198 0.80125 0.0
C664 C 0.87879 0.65235 0.79154 0.0
C665 C 0.85875 0.58901 0.75078 0.0
C666 C 0.87339 0.60974 0.7641 0.0
C667 C 0.9148 0.67716 0.79419 0.0
C668 C 0.90078 0.65284 0.78526 0.0
H669 H 0.85696 0.51859 0.72952 0.0
H670 H 0.87938 0.55117 0.75526 0.0
H671 H 0.84834 0.63154 0.78596 0.0
H672 H 0.9144 0.75133 0.79951 0.0
H673 H 0.89079 0.71096 0.7886 0.0
C674 C 0.61862 0.0978 0.24782 0.0
C675 C 0.63992 0.09434 0.23955 0.0
C676 C 0.60471 0.1165 0.23473 0.0
C677 C 0.60658 0.18339 0.19636 0.0
H678 H 0.54485 0.1737 0.20079 0.0
C679 C 0.52182 0.25357 0.20444 0.0
C680 C 0.52953 0.27306 0.22317 0.0
C681 C 0.53561 0.23254 0.19368 0.0
C682 C 0.562 0.17675 0.19861 0.0
H683 H 0.6634 0.10738 0.21092 0.0
H684 H 0.6389 0.13983 0.18752 0.0
H685 H 0.56814 0.13138 0.20533 0.0
H686 H 0.55775 0.28794 0.24362 0.0
H687 H 0.58166 0.25189 0.22504 0.0
H688 H 0.60044 0.22889 0.19031 0.0
C689 C 0.63294 0.12805 0.20419 0.0
C690 C 0.5754 0.15247 0.20162 0.0
C691 C 0.64692 0.10928 0.21741 0.0
C692 C 0.55146 0.27309 0.22917 0.0
C693 C 0.56521 0.25247 0.21832 0.0
C694 C 0.59317 0.20761 0.19304 0.0
C695 C 0.61177 0.13236 0.21304 0.0
C696 C 0.59785 0.15584 0.20222 0.0
C697 C 0.5573 0.23103 0.20136 0.0
C698 C 0.57078 0.20487 0.19585 0.0
H699 H 0.61284 0.08665 0.26493 0.0
H700 H 0.58873 0.11964 0.24254 0.0
H701 H 0.62377 0.18689 0.19652 0.0
H702 H 0.50489 0.25304 0.19968 0.0
H703 H 0.52906 0.21648 0.1805 0.0
C704 C 0.65983 0.07653 0.79479 0.0
C705 C 0.64828 0.05451 0.80755 0.0
C706 C 0.64971 0.09463 0.77676 0.0
C707 C 0.5982 0.10437 0.73974 0.0
H708 H 0.61827 0.18435 0.73587 0.0
C709 C 0.55576 0.1886 0.67398 0.0
C710 C 0.55458 0.21761 0.68276 0.0
C711 C 0.56888 0.16823 0.68654 0.0
C712 C 0.61218 0.16223 0.73688 0.0
H713 H 0.61715 0.03395 0.81139 0.0
H714 H 0.59913 0.06644 0.7812 0.0
H715 H 0.63684 0.1499 0.76319 0.0
H716 H 0.56623 0.24801 0.71161 0.0
H717 H 0.58811 0.21249 0.73424 0.0
H718 H 0.5725 0.11736 0.71504 0.0
C719 C 0.6162 0.06923 0.78414 0.0
C720 C 0.6232 0.14212 0.75226 0.0
C721 C 0.62649 0.05061 0.80165 0.0
C722 C 0.56699 0.2259 0.70415 0.0
C723 C 0.5797 0.20542 0.71708 0.0
C724 C 0.58686 0.12468 0.72484 0.0
C725 C 0.6276 0.09176 0.77158 0.0
C726 C 0.61634 0.11287 0.75409 0.0
C727 C 0.58077 0.17618 0.70861 0.0
C728 C 0.59356 0.15403 0.72332 0.0
H729 H 0.67673 0.07979 0.79877 0.0
H730 H 0.65931 0.11099 0.76705 0.0
H731 H 0.59255 0.08201 0.74007 0.0
H732 H 0.54647 0.18162 0.65743 0.0
H733 H 0.56958 0.14621 0.67895 0.0
C734 C 0.14739 0.38371 0.26555 0.0
C735 C 0.13939 0.4085 0.27842 0.0
C736 C 0.13385 0.36017 0.26 0.0
C737 C 0.08527 0.32461 0.28386 0.0
H738 H 0.08457 0.28597 0.21729 0.0
C739 C 0.02308 0.23554 0.25615 0.0
C740 C 0.02961 0.21416 0.23839 0.0
C741 C 0.03712 0.25818 0.26294 0.0
C742 C 0.08484 0.2961 0.23618 0.0
H743 H 0.11068 0.42853 0.2945 0.0
H744 H 0.0872 0.38739 0.28491 0.0
H745 H 0.10754 0.32833 0.22375 0.0
H746 H 0.05608 0.19809 0.21526 0.0
H747 H 0.08092 0.23639 0.22814 0.0
H748 H 0.06287 0.29214 0.29651 0.0
C749 C 0.10396 0.38611 0.27934 0.0
C750 C 0.09792 0.32052 0.23977 0.0
C751 C 0.1174 0.40975 0.28462 0.0
C752 C 0.05072 0.21447 0.22896 0.0
C753 C 0.06482 0.23665 0.23608 0.0
C754 C 0.07235 0.29995 0.28038 0.0
C755 C 0.11214 0.36089 0.26744 0.0
C756 C 0.09821 0.33506 0.2636 0.0
C757 C 0.05795 0.25948 0.25229 0.0
C758 C 0.07198 0.28536 0.25648 0.0
H759 H 0.16423 0.38208 0.26052 0.0
H760 H 0.14055 0.34094 0.25079 0.0
H761 H 0.0854 0.33526 0.30255 0.0
H762 H 0.00674 0.23593 0.26334 0.0
H763 H 0.03122 0.27546 0.27537 0.0
C764 C 0.32328 0.92779 0.76457 0.0
C765 C 0.33267 0.95324 0.77457 0.0
C766 C 0.33587 0.9068 0.75201 0.0
C767 C 0.39166 0.89342 0.72615 0.0
H768 H 0.37436 0.81258 0.73353 0.0
C769 C 0.4449 0.79995 0.68648 0.0
C770 C 0.44525 0.77363 0.70039 0.0
C771 C 0.42975 0.82161 0.69233 0.0
C772 C 0.3797 0.83497 0.73155 0.0
H773 H 0.36254 0.9768 0.77934 0.0
H774 H 0.38472 0.93962 0.75907 0.0
H775 H 0.35156 0.85075 0.75042 0.0
H776 H 0.43024 0.74944 0.73148 0.0
H777 H 0.40481 0.78745 0.74271 0.0
H778 H 0.42067 0.87747 0.70929 0.0
C779 C 0.36755 0.93613 0.7597 0.0
C780 C 0.36627 0.85712 0.74081 0.0
C781 C 0.35484 0.95747 0.77157 0.0
C782 C 0.43015 0.76933 0.72016 0.0
C783 C 0.4154 0.79121 0.72646 0.0
C784 C 0.40537 0.87122 0.71753 0.0
C785 C 0.35831 0.91031 0.74985 0.0
C786 C 0.3721 0.88673 0.73849 0.0
C787 C 0.41497 0.81778 0.71271 0.0
C788 C 0.39972 0.8416 0.72034 0.0
H789 H 0.30616 0.92415 0.7664 0.0
H790 H 0.32793 0.88777 0.74412 0.0
H791 H 0.39662 0.91585 0.72331 0.0
H792 H 0.4563 0.80375 0.67102 0.0
H793 H 0.42973 0.84135 0.68082 0.0
C794 C 0.86358 0.60317 0.2695 0.0
C795 C 0.85958 0.60013 0.29604 0.0
C796 C 0.87869 0.62351 0.26069 0.0
C797 C 0.90961 0.689 0.28206 0.0
H798 H 0.9453 0.66975 0.22304 0.0
C799 C 0.9846 0.75571 0.24938 0.0
C800 C 0.98471 0.76285 0.22298 0.0
C801 C 0.96926 0.73626 0.25919 0.0
C802 C 0.93539 0.67537 0.23954 0.0
H803 H 0.86844 0.61565 0.33419 0.0
H804 H 0.89511 0.65009 0.31902 0.0
H805 H 0.91846 0.63482 0.23793 0.0
H806 H 0.96812 0.75639 0.18653 0.0
H807 H 0.94203 0.72202 0.20349 0.0
H808 H 0.92706 0.72934 0.28385 0.0
C809 C 0.88622 0.63762 0.30484 0.0
C810 C 0.9199 0.6555 0.24795 0.0
C811 C 0.87097 0.61767 0.31356 0.0
C812 C 0.96892 0.75077 0.2068 0.0
C813 C 0.95389 0.73113 0.21649 0.0
C814 C 0.92533 0.70867 0.27385 0.0
C815 C 0.89027 0.6409 0.2783 0.0
C816 C 0.90671 0.66212 0.26923 0.0
C817 C 0.95402 0.7235 0.24268 0.0
C818 C 0.93822 0.7021 0.25241 0.0
H819 H 0.85497 0.59 0.25556 0.0
H820 H 0.88114 0.62575 0.24009 0.0
H821 H 0.89951 0.6951 0.29823 0.0
H822 H 0.99648 0.76481 0.26233 0.0
H823 H 0.96959 0.73069 0.27952 0.0
C824 C 0.67286 0.9297 0.21243 0.0
C825 C 0.66274 0.95708 0.21139 0.0
C826 C 0.66284 0.9061 0.2248 0.0
C827 C 0.61679 0.88954 0.26958 0.0
H828 H 0.62745 0.81002 0.2474 0.0
C829 C 0.57306 0.79479 0.31983 0.0
C830 C 0.56726 0.77056 0.30483 0.0
C831 C 0.58742 0.8156 0.3102 0.0
C832 C 0.62397 0.83207 0.2537 0.0
H833 H 0.6339 0.98106 0.22133 0.0
H834 H 0.61583 0.93988 0.24114 0.0
H835 H 0.64573 0.84993 0.22595 0.0
H836 H 0.57204 0.74867 0.26821 0.0
H837 H 0.59586 0.78573 0.2506 0.0
H838 H 0.59374 0.8722 0.29574 0.0
C839 C 0.63195 0.93658 0.23386 0.0
C840 C 0.63487 0.85511 0.24162 0.0
C841 C 0.64221 0.96026 0.22221 0.0
C842 C 0.57646 0.76707 0.28027 0.0
C843 C 0.59026 0.78837 0.27025 0.0
C844 C 0.60548 0.86666 0.28111 0.0
C845 C 0.64221 0.9092 0.2358 0.0
C846 C 0.63131 0.88428 0.24923 0.0
C847 C 0.5957 0.81329 0.28489 0.0
C848 C 0.60878 0.83751 0.27334 0.0
H849 H 0.68877 0.92675 0.20433 0.0
H850 H 0.6715 0.88564 0.22612 0.0
H851 H 0.61394 0.91145 0.27668 0.0
H852 H 0.56632 0.79779 0.33895 0.0
H853 H 0.59168 0.83373 0.32258 0.0
C854 C 0.86935 0.37766 0.67671 0.0
C855 C 0.8565 0.39362 0.69405 0.0
C856 C 0.88394 0.35695 0.68573 0.0
C857 C 0.91336 0.33534 0.74465 0.0
H858 H 0.92347 0.26352 0.70657 0.0
C859 C 0.96054 0.24001 0.78752 0.0
C860 C 0.97749 0.22877 0.77255 0.0
C861 C 0.94567 0.25913 0.77678 0.0
C862 C 0.92091 0.28362 0.71722 0.0
H863 H 0.84853 0.40002 0.73441 0.0
H864 H 0.87361 0.36315 0.75024 0.0
H865 H 0.89701 0.29867 0.69076 0.0
H866 H 0.99149 0.22749 0.73419 0.0
H867 H 0.965 0.26093 0.71516 0.0
H868 H 0.93689 0.31987 0.77142 0.0
C869 C 0.87279 0.36717 0.72966 0.0
C870 C 0.90581 0.30378 0.7082 0.0
C871 C 0.85832 0.38816 0.72062 0.0
C872 C 0.97865 0.23596 0.7462 0.0
C873 C 0.96354 0.25501 0.73534 0.0
C874 C 0.92824 0.31507 0.75378 0.0
C875 C 0.88589 0.35147 0.71231 0.0
C876 C 0.90182 0.32986 0.72187 0.0
C877 C 0.94722 0.2672 0.75075 0.0
C878 C 0.93207 0.289 0.74022 0.0
H879 H 0.86844 0.3815 0.6561 0.0
H880 H 0.89401 0.34568 0.67185 0.0
H881 H 0.91109 0.35546 0.75535 0.0
H882 H 0.95885 0.23433 0.80771 0.0
H883 H 0.93296 0.26776 0.78892 0.0
C884 C 0.44031 0.22024 0.26574 0.0
C885 C 0.46174 0.21216 0.2705 0.0
C886 C 0.42487 0.19913 0.25991 0.0
C887 C 0.41308 0.11981 0.2627 0.0
H888 H 0.37526 0.13771 0.20545 0.0
C889 C 0.33428 0.07072 0.20466 0.0
C890 C 0.34064 0.04143 0.20147 0.0
C891 C 0.3481 0.09103 0.21598 0.0
C892 C 0.38542 0.13248 0.22176 0.0
H893 H 0.48352 0.17526 0.27359 0.0
H894 H 0.45656 0.13845 0.26321 0.0
H895 H 0.40106 0.17398 0.21988 0.0
H896 H 0.36629 0.01037 0.2087 0.0
H897 H 0.39052 0.04595 0.2281 0.0
H898 H 0.39748 0.0781 0.26436 0.0
C899 C 0.4517 0.16116 0.2642 0.0
C900 C 0.40026 0.15331 0.23002 0.0
C901 C 0.46718 0.18231 0.27003 0.0
C902 C 0.36084 0.03273 0.21086 0.0
C903 C 0.37473 0.05313 0.22209 0.0
C904 C 0.39816 0.09892 0.25446 0.0
C905 C 0.43043 0.16938 0.25868 0.0
C906 C 0.41431 0.14725 0.25054 0.0
C907 C 0.3687 0.08267 0.22428 0.0
C908 C 0.38417 0.105 0.23383 0.0
H909 H 0.43545 0.24298 0.26612 0.0
H910 H 0.40855 0.20616 0.25619 0.0
H911 H 0.42354 0.11457 0.27874 0.0
H912 H 0.31876 0.07816 0.19792 0.0
H913 H 0.34273 0.11345 0.21789 0.0
C914 C 0.12436 0.64706 0.67571 0.0
C915 C 0.13034 0.62394 0.6921 0.0
C916 C 0.10818 0.66655 0.68288 0.0
C917 C 0.07976 0.69555 0.73961 0.0
H918 H 0.03914 0.72395 0.68864 0.0
C919 C 0.02651 0.79316 0.76233 0.0
C920 C 0.00455 0.79047 0.75688 0.0
C921 C 0.04129 0.77366 0.75182 0.0
C922 C 0.05028 0.71609 0.7031 0.0
H923 H 0.124 0.60325 0.72898 0.0
H924 H 0.09561 0.6374 0.74158 0.0
H925 H 0.06553 0.68671 0.67653 0.0
H926 H 0.9808 0.76638 0.73508 0.0
H927 H 0.00683 0.73179 0.71654 0.0
H928 H 0.06445 0.72451 0.76626 0.0
C929 C 0.10361 0.6405 0.7232 0.0
C930 C 0.06551 0.69496 0.69614 0.0
C931 C 0.11986 0.62092 0.716 0.0
C932 C 0.99772 0.76909 0.73927 0.0
C933 C 0.0126 0.74925 0.72883 0.0
C934 C 0.0646 0.71663 0.74653 0.0
C935 C 0.09753 0.66347 0.70664 0.0
C936 C 0.08056 0.68467 0.71428 0.0
C937 C 0.03442 0.7507 0.73585 0.0
C938 C 0.04988 0.72746 0.72828 0.0
H939 H 0.13213 0.65011 0.65718 0.0
H940 H 0.1042 0.6843 0.6699 0.0
H941 H 0.09118 0.68829 0.754 0.0
H942 H 0.03216 0.80957 0.77581 0.0
H943 H 0.05805 0.77589 0.75702 0.0
C944 C 0.14726 0.51525 0.59035 0.0
C945 C 0.16663 0.51438 0.60425 0.0
C946 C 0.14717 0.51012 0.56373 0.0
C947 C 0.18156 0.52211 0.50899 0.0
H948 H 0.1453 0.46855 0.4709 0.0
C949 C 0.19686 0.4949 0.40242 0.0
C950 C 0.17952 0.48713 0.38661 0.0
C951 C 0.19365 0.50058 0.42861 0.0
C952 C 0.15523 0.48409 0.48117 0.0
H953 H 0.20081 0.50548 0.60153 0.0
H954 H 0.20061 0.49692 0.55508 0.0
H955 H 0.14251 0.47095 0.51795 0.0
H956 H 0.145 0.48114 0.38529 0.0
H957 H 0.13924 0.49218 0.43087 0.0
H958 H 0.19401 0.53591 0.47255 0.0
C959 C 0.18558 0.50168 0.56479 0.0
C960 C 0.15372 0.48521 0.5081 0.0
C961 C 0.18563 0.50639 0.59138 0.0
C962 C 0.15871 0.48687 0.39711 0.0
C963 C 0.15544 0.49292 0.42327 0.0
C964 C 0.18284 0.52137 0.48212 0.0
C965 C 0.16649 0.50443 0.55066 0.0
C966 C 0.16719 0.50382 0.52219 0.0
C967 C 0.17296 0.49901 0.4395 0.0
C968 C 0.17 0.50194 0.46788 0.0
H969 H 0.13236 0.52129 0.59978 0.0
H970 H 0.13226 0.51227 0.55315 0.0
H971 H 0.19181 0.53708 0.5195 0.0
H972 H 0.21311 0.49511 0.39492 0.0
H973 H 0.20758 0.50482 0.44051 0.0
C974 C 0.52921 0.66032 0.41134 0.0
C975 C 0.53151 0.68931 0.4027 0.0
C976 C 0.5241 0.65464 0.43729 0.0
C977 C 0.49315 0.69019 0.48709 0.0
H978 H 0.5198 0.64013 0.53822 0.0
C979 C 0.48366 0.70951 0.59467 0.0
C980 C 0.48262 0.68597 0.61196 0.0
C981 C 0.48657 0.70467 0.56836 0.0
C982 C 0.51188 0.65366 0.52395 0.0
H983 H 0.53269 0.73464 0.41473 0.0
H984 H 0.5241 0.72472 0.45975 0.0
H985 H 0.53396 0.64112 0.49386 0.0
H986 H 0.48303 0.6388 0.61534 0.0
H987 H 0.48833 0.63018 0.56881 0.0
H988 H 0.47141 0.70332 0.51688 0.0
C989 C 0.52577 0.70648 0.44654 0.0
C990 C 0.52008 0.65433 0.49868 0.0
C991 C 0.53084 0.71212 0.42083 0.0
C992 C 0.48353 0.6573 0.60229 0.0
C993 C 0.4868 0.6524 0.5758 0.0
C994 C 0.48492 0.68938 0.51211 0.0
C995 C 0.52125 0.6779 0.45471 0.0
C996 C 0.51124 0.67347 0.48037 0.0
C997 C 0.48875 0.67613 0.55866 0.0
C998 C 0.49468 0.67198 0.53109 0.0
H999 H 0.52947 0.64237 0.3977 0.0
H1000 H 0.52079 0.6324 0.44324 0.0
H1001 H 0.48575 0.70465 0.47312 0.0
H1002 H 0.4831 0.73183 0.60167 0.0
H1003 H 0.48826 0.72345 0.55579 0.0
C1004 C 0.84824 0.50257 0.40256 0.0
C1005 C 0.8283 0.49964 0.39014 0.0
C1006 C 0.84941 0.50258 0.4295 0.0
C1007 C 0.81728 0.52518 0.48392 0.0
H1008 H 0.85646 0.48033 0.52637 0.0
C1009 C 0.80742 0.51397 0.5936 0.0
C1010 C 0.82548 0.50749 0.60873 0.0
C1011 C 0.80951 0.51764 0.56697 0.0
C1012 C 0.84576 0.49358 0.51479 0.0
H1013 H 0.79423 0.4922 0.39605 0.0
H1014 H 0.79633 0.4925 0.4431 0.0
H1015 H 0.85672 0.47369 0.47963 0.0
H1016 H 0.86015 0.50316 0.60849 0.0
H1017 H 0.86393 0.51084 0.56213 0.0
H1018 H 0.80648 0.54552 0.51876 0.0
C1019 C 0.81096 0.49499 0.43196 0.0
C1020 C 0.84579 0.48948 0.48807 0.0
C1021 C 0.80982 0.49455 0.40506 0.0
C1022 C 0.84591 0.50775 0.59721 0.0
C1023 C 0.84804 0.51183 0.57061 0.0
C1024 C 0.81745 0.52963 0.51057 0.0
C1025 C 0.83064 0.50001 0.44435 0.0
C1026 C 0.83125 0.50482 0.47251 0.0
C1027 C 0.82975 0.51535 0.55501 0.0
C1028 C 0.8314 0.51348 0.52642 0.0
H1029 H 0.86275 0.50645 0.39153 0.0
H1030 H 0.86478 0.50636 0.43869 0.0
H1031 H 0.80622 0.53773 0.47218 0.0
H1032 H 0.79145 0.51389 0.60194 0.0
H1033 H 0.79503 0.52019 0.55565 0.0
C1034 C 0.49969 0.32036 0.37285 0.0
C1035 C 0.5027 0.29294 0.36113 0.0
C1036 C 0.5039 0.32408 0.39928 0.0
C1037 C 0.53542 0.28884 0.45146 0.0
H1038 H 0.50043 0.33499 0.49815 0.0
C1039 C 0.53148 0.27014 0.56053 0.0
C1040 C 0.53067 0.29433 0.57718 0.0
C1041 C 0.53168 0.27406 0.53383 0.0
C1042 C 0.51058 0.32248 0.48521 0.0
H1043 H 0.51075 0.24753 0.36814 0.0
H1044 H 0.51729 0.25369 0.41399 0.0
H1045 H 0.49165 0.3337 0.45207 0.0
H1046 H 0.53019 0.34162 0.57911 0.0
H1047 H 0.53012 0.34853 0.53204 0.0
H1048 H 0.55374 0.27659 0.48469 0.0
C1049 C 0.51257 0.27264 0.40281 0.0
C1050 C 0.50552 0.32168 0.45885 0.0
C1051 C 0.50859 0.26903 0.37656 0.0
C1052 C 0.53108 0.32263 0.56665 0.0
C1053 C 0.53082 0.32657 0.5398 0.0
C1054 C 0.54033 0.28945 0.47772 0.0
C1055 C 0.51104 0.30036 0.41436 0.0
C1056 C 0.51752 0.30413 0.44181 0.0
C1057 C 0.53066 0.30226 0.52319 0.0
C1058 C 0.52765 0.30567 0.49496 0.0
H1059 H 0.49527 0.33921 0.36136 0.0
H1060 H 0.50248 0.3457 0.40762 0.0
H1061 H 0.54542 0.2758 0.43876 0.0
H1062 H 0.53106 0.2481 0.56819 0.0
H1063 H 0.53141 0.25492 0.52151 0.0
C1064 C 0.67134 0.05571 0.11243 0.0
C1065 C 0.65593 0.05509 0.13227 0.0
C1066 C 0.6651 0.05755 0.08671 0.0
C1067 C 0.62483 0.03666 0.04188 0.0
H1068 H 0.65412 0.09166 0.99697 0.0
C1069 C 0.62462 0.02043 0.93197 0.0
C1070 C 0.64533 0.02131 0.92111 0.0
C1071 C 0.62079 0.03206 0.95653 0.0
C1072 C 0.64572 0.07623 0.00921 0.0
H1073 H 0.62183 0.05561 0.14072 0.0
H1074 H 0.6108 0.05767 0.09505 0.0
H1075 H 0.6567 0.09714 0.04376 0.0
H1076 H 0.67787 0.03684 0.9267 0.0
H1077 H 0.67133 0.0567 0.96945 0.0
H1078 H 0.61519 0.01437 0.00752 0.0
C1079 C 0.62773 0.05725 0.09978 0.0
C1080 C 0.6471 0.07949 0.03595 0.0
C1081 C 0.63402 0.056 0.12578 0.0
C1082 C 0.66174 0.03581 0.9345 0.0
C1083 C 0.65792 0.04738 0.95903 0.0
C1084 C 0.62361 0.03321 0.01508 0.0
C1085 C 0.64329 0.05839 0.08011 0.0
C1086 C 0.6374 0.05905 0.05248 0.0
C1087 C 0.63758 0.0448 0.9707 0.0
C1088 C 0.63482 0.05225 -0.00153 0.0
H1089 H 0.68835 0.05524 0.11673 0.0
H1090 H 0.6774 0.05789 0.07188 0.0
H1091 H 0.61733 0.02054 0.05427 0.0
H1092 H 0.61158 0.00958 0.92203 0.0
H1093 H 0.60486 0.03014 0.96479 0.0
C1094 C 0.02433 0.16294 0.90762 0.0
C1095 C 0.02414 0.19238 0.89976 0.0
C1096 C 0.02009 0.15567 0.93348 0.0
C1097 C 0.98772 0.18473 0.98539 0.0
H1098 H 0.02035 0.1384 0.03418 0.0
C1099 C 0.98292 0.20212 0.09355 0.0
C1100 C 0.98483 0.17853 0.11065 0.0
C1101 C 0.98419 0.19769 0.067 0.0
C1102 C 0.01078 0.15077 0.02057 0.0
H1103 H 0.02177 0.2372 0.91301 0.0
H1104 H 0.01468 0.22456 0.95785 0.0
H1105 H 0.03257 0.14219 0.98915 0.0
H1106 H 0.98869 0.13162 0.11361 0.0
H1107 H 0.99118 0.12375 0.06666 0.0
H1108 H 0.9663 0.19413 0.01661 0.0
C1109 C 0.01759 0.20712 0.9441 0.0
C1110 C 0.01786 0.15305 0.99492 0.0
C1111 C 0.02181 0.21434 0.9185 0.0
C1112 C 0.98688 0.15009 0.10071 0.0
C1113 C 0.98854 0.14566 0.07396 0.0
C1114 C 0.98061 0.18233 0.01082 0.0
C1115 C 0.01563 0.17778 0.95157 0.0
C1116 C 0.00681 0.17104 0.97745 0.0
C1117 C 0.98772 0.16957 0.0569 0.0
C1118 C 0.99252 0.16632 0.02896 0.0
H1119 H 0.02592 0.14559 0.89351 0.0
H1120 H 0.01879 0.13287 0.93891 0.0
H1121 H 0.97867 0.19823 0.97209 0.0
H1122 H 0.9815 0.22427 0.10081 0.0
H1123 H 0.98375 0.21663 0.05445 0.0
C1124 C 0.30403 0.01015 0.89298 0.0
C1125 C 0.32231 0.01613 0.87797 0.0
C1126 C 0.30581 0.00675 0.91966 0.0
C1127 C 0.34204 0.9897 0.97255 0.0
H1128 H 0.30488 0.04042 0.01281 0.0
C1129 C 0.34664 0.99034 0.08317 0.0
C1130 C 0.3268 0.9898 0.09608 0.0
C1131 C 0.34766 0.99732 0.05695 0.0
C1132 C 0.31523 0.02591 0.00191 0.0
H1133 H 0.35693 0.02127 0.87876 0.0
H1134 H 0.36005 0.01453 0.92546 0.0
H1135 H 0.3031 0.04155 0.96579 0.0
H1136 H 0.29263 0.99774 0.09213 0.0
H1137 H 0.29425 0.00907 0.04641 0.0
H1138 H 0.35362 0.97313 0.00847 0.0
C1139 C 0.34437 0.01291 0.91655 0.0
C1140 C 0.31421 0.0266 0.97501 0.0
C1141 C 0.34256 0.01675 0.88988 0.0
C1142 C 0.30817 0.99805 0.08272 0.0
C1143 C 0.30914 0.00466 0.05645 0.0
C1144 C 0.34286 0.98867 -0.00052 0.0
C1145 C 0.32592 0.00881 0.93171 0.0
C1146 C 0.32744 0.00829 0.96014 0.0
C1147 C 0.32881 0.00355 0.04307 0.0
C1148 C 0.3293 0.00657 0.0145 0.0
H1149 H 0.2882 0.00958 0.88434 0.0
H1150 H 0.2914 0.00321 0.93099 0.0
H1151 H 0.35237 0.97535 0.96142 0.0
H1152 H 0.3613 0.98432 0.09308 0.0
H1153 H 0.36314 0.99698 0.0474 0.0
C1154 C 0.97799 0.84153 0.90498 0.0
C1155 C 0.98081 0.8136 0.89412 0.0
C1156 C 0.98487 0.84714 0.93034 0.0
C1157 C 0.02566 0.82006 0.97491 0.0
H1158 H 0.99249 0.85378 0.03087 0.0
C1159 C 0.03733 0.78977 0.08003 0.0
C1160 C 0.03401 0.81051 0.09956 0.0
C1161 C 0.03503 0.79753 0.05417 0.0
C1162 C 0.00217 0.84504 0.01528 0.0
H1163 H 0.991 0.76914 0.90185 0.0
H1164 H 0.0026 0.77878 0.94578 0.0
H1165 H 0.97753 0.85291 0.98709 0.0
H1166 H 0.02679 0.85592 0.1076 0.0
H1167 H 0.0224 0.86954 0.06201 0.0
H1168 H 0.04987 0.81097 0.00304 0.0
C1169 C 0.99571 0.79652 0.93468 0.0
C1170 C 0.99356 0.84444 0.9903 0.0
C1171 C 0.98889 0.79096 0.90961 0.0
C1172 C 0.02973 0.83967 0.09279 0.0
C1173 C 0.02699 0.84736 0.0668 0.0
C1174 C 0.03425 0.82072 -0.00026 0.0
C1175 C 0.99464 0.82488 0.94492 0.0
C1176 C 0.00488 0.83077 0.97018 0.0
C1177 C 0.02896 0.82609 0.04732 0.0
C1178 C 0.02224 0.83208 0.02038 0.0
H1179 H 0.97192 0.8594 0.89338 0.0
H1180 H 0.98369 0.86913 0.93796 0.0
H1181 H 0.03493 0.80999 0.95957 0.0
H1182 H 0.04044 0.76711 0.08484 0.0
H1183 H 0.03644 0.78056 0.03966 0.0
loop_
_geom_bond_atom_site_label_1
_geom_bond_atom_site_label_2
_geom_bond_distance
_geom_bond_site_symmetry_2
_ccdc_geom_bond_type
Mg0 O1 2.028 . S
Mg0 O7 1.986 . S
Mg0 O9 2.114 . S
Mg0 O10 2.251 . S
Mg0 O13 2.010 . S
O1 Mg0 2.028 . S
O1 C4 1.250 . S
O2 Mg3 2.028 . S
O2 C4 1.248 . S
Mg3 O2 2.028 . S
Mg3 O8 2.032 . S
Mg3 O10 2.079 . S
C4 O1 1.250 . S
C4 O2 1.248 . S
C5 O6 1.264 . S
C5 O13 1.249 . S
O6 C5 1.264 . S
O7 Mg0 1.986 . S
O7 C11 1.246 . S
O8 Mg3 2.032 . S
O8 C11 1.259 . S
O9 Mg0 2.114 . S
O9 C12 1.252 . S
O10 Mg0 2.251 . S
O10 Mg3 2.079 . S
O10 C12 1.273 . S
C11 O7 1.246 . S
C11 O8 1.259 . S
C12 O9 1.252 . S
C12 O10 1.273 . S
O13 Mg0 2.010 . S
O13 C5 1.249 . S
Mg14 O15 2.028 . S
Mg14 O21 1.986 . S
Mg14 O23 2.114 . S
Mg14 O24 2.251 . S
Mg14 O27 2.010 . S
O15 Mg14 2.028 . S
O15 C18 1.250 . S
O16 Mg17 2.028 . S
O16 C18 1.248 . S
Mg17 O16 2.028 . S
Mg17 O22 2.032 . S
Mg17 O24 2.079 . S
C18 O15 1.250 . S
C18 O16 1.248 . S
C19 O20 1.264 . S
C19 O27 1.249 . S
O20 C19 1.264 . S
O21 Mg14 1.986 . S
O21 C25 1.246 . S
O22 Mg17 2.032 . S
O22 C25 1.259 . S
O23 Mg14 2.114 . S
O23 C26 1.252 . S
O24 Mg14 2.251 . S
O24 Mg17 2.079 . S
O24 C26 1.273 . S
C25 O21 1.246 . S
C25 O22 1.259 . S
C26 O23 1.252 . S
C26 O24 1.273 . S
O27 Mg14 2.010 . S
O27 C19 1.249 . S
Mg28 O29 2.028 . S
Mg28 O35 1.986 . S
Mg28 O37 2.114 . S
Mg28 O38 2.251 . S
Mg28 O41 2.010 . S
O29 Mg28 2.028 . S
O29 C32 1.250 . S
O30 Mg31 2.028 . S
O30 C32 1.248 . S
Mg31 O30 2.028 . S
Mg31 O36 2.032 . S
Mg31 O38 2.079 . S
C32 O29 1.250 . S
C32 O30 1.248 . S
C33 O34 1.264 . S
C33 O41 1.249 . S
O34 C33 1.264 . S
O35 Mg28 1.986 . S
O35 C39 1.246 . S
O36 Mg31 2.032 . S
O36 C39 1.259 . S
O37 Mg28 2.114 . S
O37 C40 1.252 . S
O38 Mg28 2.251 . S
O38 Mg31 2.079 . S
O38 C40 1.273 . S
C39 O35 1.246 . S
C39 O36 1.259 . S
C40 O37 1.252 . S
C40 O38 1.273 . S
O41 Mg28 2.010 . S
O41 C33 1.249 . S
Mg42 O43 2.028 . S
Mg42 O49 1.986 . S
Mg42 O51 2.114 . S
Mg42 O52 2.251 . S
Mg42 O55 2.010 . S
O43 Mg42 2.028 . S
O43 C46 1.250 . S
O44 Mg45 2.028 . S
O44 C46 1.248 . S
Mg45 O44 2.028 . S
Mg45 O50 2.032 . S
Mg45 O52 2.079 . S
C46 O43 1.250 . S
C46 O44 1.248 . S
C47 O48 1.264 . S
C47 O55 1.249 . S
O48 C47 1.264 . S
O49 Mg42 1.986 . S
O49 C53 1.246 . S
O50 Mg45 2.032 . S
O50 C53 1.259 . S
O51 Mg42 2.114 . S
O51 C54 1.252 . S
O52 Mg42 2.251 . S
O52 Mg45 2.079 . S
O52 C54 1.273 . S
C53 O49 1.246 . S
C53 O50 1.259 . S
C54 O51 1.252 . S
C54 O52 1.273 . S
O55 Mg42 2.010 . S
O55 C47 1.249 . S
Mg56 O57 2.028 . S
Mg56 O63 1.986 . S
Mg56 O65 2.114 . S
Mg56 O66 2.251 . S
Mg56 O69 2.010 . S
O57 Mg56 2.028 . S
O57 C60 1.250 . S
O58 Mg59 2.028 . S
O58 C60 1.248 . S
Mg59 O58 2.028 . S
Mg59 O64 2.032 . S
Mg59 O66 2.079 . S
C60 O57 1.250 . S
C60 O58 1.248 . S
C61 O62 1.264 . S
C61 O69 1.249 . S
O62 C61 1.264 . S
O63 Mg56 1.986 . S
O63 C67 1.246 . S
O64 Mg59 2.032 . S
O64 C67 1.259 . S
O65 Mg56 2.114 . S
O65 C68 1.252 . S
O66 Mg56 2.251 . S
O66 Mg59 2.079 . S
O66 C68 1.273 . S
C67 O63 1.246 . S
C67 O64 1.259 . S
C68 O65 1.252 . S
C68 O66 1.273 . S
O69 Mg56 2.010 . S
O69 C61 1.249 . S
Mg70 O71 2.028 . S
Mg70 O77 1.986 . S
Mg70 O79 2.114 . S
Mg70 O80 2.251 . S
Mg70 O83 2.010 . S
O71 Mg70 2.028 . S
O71 C74 1.250 . S
O72 Mg73 2.028 . S
O72 C74 1.248 . S
Mg73 O72 2.028 . S
Mg73 O78 2.032 . S
Mg73 O80 2.079 . S
C74 O71 1.250 . S
C74 O72 1.248 . S
C75 O76 1.264 . S
C75 O83 1.249 . S
O76 C75 1.264 . S
O77 Mg70 1.986 . S
O77 C81 1.246 . S
O78 Mg73 2.032 . S
O78 C81 1.259 . S
O79 Mg70 2.114 . S
O79 C82 1.252 . S
O80 Mg70 2.251 . S
O80 Mg73 2.079 . S
O80 C82 1.273 . S
C81 O77 1.246 . S
C81 O78 1.259 . S
C82 O79 1.252 . S
C82 O80 1.273 . S
O83 Mg70 2.010 . S
O83 C75 1.249 . S
Mg84 O85 2.028 . S
Mg84 O91 1.986 . S
Mg84 O93 2.114 . S
Mg84 O94 2.251 . S
Mg84 O97 2.010 . S
O85 Mg84 2.028 . S
O85 C88 1.250 . S
O86 Mg87 2.028 . S
O86 C88 1.248 . S
Mg87 O86 2.028 . S
Mg87 O92 2.032 . S
Mg87 O94 2.079 . S
C88 O85 1.250 . S
C88 O86 1.248 . S
C89 O90 1.264 . S
C89 O97 1.249 . S
O90 C89 1.264 . S
O91 Mg84 1.986 . S
O91 C95 1.246 . S
O92 Mg87 2.032 . S
O92 C95 1.259 . S
O93 Mg84 2.114 . S
O93 C96 1.252 . S
O94 Mg84 2.251 . S
O94 Mg87 2.079 . S
O94 C96 1.273 . S
C95 O91 1.246 . S
C95 O92 1.259 . S
C96 O93 1.252 . S
C96 O94 1.273 . S
O97 Mg84 2.010 . S
O97 C89 1.249 . S
Mg98 O99 2.028 . S
Mg98 O105 1.986 . S
Mg98 O107 2.114 . S
Mg98 O108 2.251 . S
Mg98 O111 2.010 . S
O99 Mg98 2.028 . S
O99 C102 1.250 . S
O100 Mg101 2.028 . S
O100 C102 1.248 . S
Mg101 O100 2.028 . S
Mg101 O106 2.032 . S
Mg101 O108 2.079 . S
C102 O99 1.250 . S
C102 O100 1.248 . S
C103 O104 1.264 . S
C103 O111 1.249 . S
O104 C103 1.264 . S
O105 Mg98 1.986 . S
O105 C109 1.246 . S
O106 Mg101 2.032 . S
O106 C109 1.259 . S
O107 Mg98 2.114 . S
O107 C110 1.252 . S
O108 Mg98 2.251 . S
O108 Mg101 2.079 . S
O108 C110 1.273 . S
C109 O105 1.246 . S
C109 O106 1.259 . S
C110 O107 1.252 . S
C110 O108 1.273 . S
O111 Mg98 2.010 . S
O111 C103 1.249 . S
Mg112 O113 2.028 . S
Mg112 O119 1.986 . S
Mg112 O121 2.114 . S
Mg112 O122 2.251 . S
Mg112 O125 2.010 . S
O113 Mg112 2.028 . S
O113 C116 1.250 . S
O114 Mg115 2.028 . S
O114 C116 1.248 . S
Mg115 O114 2.028 . S
Mg115 O120 2.032 . S
Mg115 O122 2.079 . S
C116 O113 1.250 . S
C116 O114 1.248 . S
C117 O118 1.264 . S
C117 O125 1.249 . S
O118 C117 1.264 . S
O119 Mg112 1.986 . S
O119 C123 1.246 . S
O120 Mg115 2.032 . S
O120 C123 1.259 . S
O121 Mg112 2.114 . S
O121 C124 1.252 . S
O122 Mg112 2.251 . S
O122 Mg115 2.079 . S
O122 C124 1.273 . S
C123 O119 1.246 . S
C123 O120 1.259 . S
C124 O121 1.252 . S
C124 O122 1.273 . S
O125 Mg112 2.010 . S
O125 C117 1.249 . S
Mg126 O127 2.028 . S
Mg126 O133 1.986 . S
Mg126 O135 2.114 . S
Mg126 O136 2.251 . S
Mg126 O139 2.010 . S
O127 Mg126 2.028 . S
O127 C130 1.250 . S
O128 Mg129 2.028 . S
O128 C130 1.248 . S
Mg129 O128 2.028 . S
Mg129 O134 2.032 . S
Mg129 O136 2.079 . S
C130 O127 1.250 . S
C130 O128 1.248 . S
C131 O132 1.264 . S
C131 O139 1.249 . S
O132 C131 1.264 . S
O133 Mg126 1.986 . S
O133 C137 1.246 . S
O134 Mg129 2.032 . S
O134 C137 1.259 . S
O135 Mg126 2.114 . S
O135 C138 1.252 . S
O136 Mg126 2.251 . S
O136 Mg129 2.079 . S
O136 C138 1.273 . S
C137 O133 1.246 . S
C137 O134 1.259 . S
C138 O135 1.252 . S
C138 O136 1.273 . S
O139 Mg126 2.010 . S
O139 C131 1.249 . S
Mg140 O141 2.028 . S
Mg140 O147 1.986 . S
Mg140 O149 2.114 . S
Mg140 O150 2.251 . S
Mg140 O153 2.010 . S
O141 Mg140 2.028 . S
O141 C144 1.250 . S
O142 Mg143 2.028 . S
O142 C144 1.248 . S
Mg143 O142 2.028 . S
Mg143 O148 2.032 . S
Mg143 O150 2.079 . S
C144 O141 1.250 . S
C144 O142 1.248 . S
C145 O146 1.264 . S
C145 O153 1.249 . S
O146 C145 1.264 . S
O147 Mg140 1.986 . S
O147 C151 1.246 . S
O148 Mg143 2.032 . S
O148 C151 1.259 . S
O149 Mg140 2.114 . S
O149 C152 1.252 . S
O150 Mg140 2.251 . S
O150 Mg143 2.079 . S
O150 C152 1.273 . S
C151 O147 1.246 . S
C151 O148 1.259 . S
C152 O149 1.252 . S
C152 O150 1.273 . S
O153 Mg140 2.010 . S
O153 C145 1.249 . S
Mg154 O155 2.028 . S
Mg154 O161 1.986 . S
Mg154 O163 2.114 . S
Mg154 O164 2.251 . S
Mg154 O167 2.010 . S
O155 Mg154 2.028 . S
O155 C158 1.250 . S
O156 Mg157 2.028 . S
O156 C158 1.248 . S
Mg157 O156 2.028 . S
Mg157 O162 2.032 . S
Mg157 O164 2.079 . S
C158 O155 1.250 . S
C158 O156 1.248 . S
C159 O160 1.264 . S
C159 O167 1.249 . S
O160 C159 1.264 . S
O161 Mg154 1.986 . S
O161 C165 1.246 . S
O162 Mg157 2.032 . S
O162 C165 1.259 . S
O163 Mg154 2.114 . S
O163 C166 1.252 . S
O164 Mg154 2.251 . S
O164 Mg157 2.079 . S
O164 C166 1.273 . S
C165 O161 1.246 . S
C165 O162 1.259 . S
C166 O163 1.252 . S
C166 O164 1.273 . S
O167 Mg154 2.010 . S
O167 C159 1.249 . S
Mg168 O169 2.028 . S
Mg168 O175 1.986 . S
Mg168 O177 2.114 . S
Mg168 O178 2.251 . S
Mg168 O181 2.010 . S
O169 Mg168 2.028 . S
O169 C172 1.250 . S
O170 Mg171 2.028 . S
O170 C172 1.248 . S
Mg171 O170 2.028 . S
Mg171 O176 2.032 . S
Mg171 O178 2.079 . S
C172 O169 1.250 . S
C172 O170 1.248 . S
C173 O174 1.264 . S
C173 O181 1.249 . S
O174 C173 1.264 . S
O175 Mg168 1.986 . S
O175 C179 1.246 . S
O176 Mg171 2.032 . S
O176 C179 1.259 . S
O177 Mg168 2.114 . S
O177 C180 1.252 . S
O178 Mg168 2.251 . S
O178 Mg171 2.079 . S
O178 C180 1.273 . S
C179 O175 1.246 . S
C179 O176 1.259 . S
C180 O177 1.252 . S
C180 O178 1.273 . S
O181 Mg168 2.010 . S
O181 C173 1.249 . S
Mg182 O183 2.028 . S
Mg182 O189 1.986 . S
Mg182 O191 2.114 . S
Mg182 O192 2.251 . S
Mg182 O195 2.010 . S
O183 Mg182 2.028 . S
O183 C186 1.250 . S
O184 Mg185 2.028 . S
O184 C186 1.248 . S
Mg185 O184 2.028 . S
Mg185 O190 2.032 . S
Mg185 O192 2.079 . S
C186 O183 1.250 . S
C186 O184 1.248 . S
C187 O188 1.264 . S
C187 O195 1.249 . S
O188 C187 1.264 . S
O189 Mg182 1.986 . S
O189 C193 1.246 . S
O190 Mg185 2.032 . S
O190 C193 1.259 . S
O191 Mg182 2.114 . S
O191 C194 1.252 . S
O192 Mg182 2.251 . S
O192 Mg185 2.079 . S
O192 C194 1.273 . S
C193 O189 1.246 . S
C193 O190 1.259 . S
C194 O191 1.252 . S
C194 O192 1.273 . S
O195 Mg182 2.010 . S
O195 C187 1.249 . S
Mg196 O197 2.028 . S
Mg196 O203 1.986 . S
Mg196 O205 2.114 . S
Mg196 O206 2.251 . S
Mg196 O209 2.010 . S
O197 Mg196 2.028 . S
O197 C200 1.250 . S
O198 Mg199 2.028 . S
O198 C200 1.248 . S
Mg199 O198 2.028 . S
Mg199 O204 2.032 . S
Mg199 O206 2.079 . S
C200 O197 1.250 . S
C200 O198 1.248 . S
C201 O202 1.264 . S
C201 O209 1.249 . S
O202 C201 1.264 . S
O203 Mg196 1.986 . S
O203 C207 1.246 . S
O204 Mg199 2.032 . S
O204 C207 1.259 . S
O205 Mg196 2.114 . S
O205 C208 1.252 . S
O206 Mg196 2.251 . S
O206 Mg199 2.079 . S
O206 C208 1.273 . S
C207 O203 1.246 . S
C207 O204 1.259 . S
C208 O205 1.252 . S
C208 O206 1.273 . S
O209 Mg196 2.010 . S
O209 C201 1.249 . S
Mg210 O211 2.028 . S
Mg210 O217 1.986 . S
Mg210 O219 2.114 . S
Mg210 O220 2.251 . S
Mg210 O223 2.010 . S
O211 Mg210 2.028 . S
O211 C214 1.250 . S
O212 Mg213 2.028 . S
O212 C214 1.248 . S
Mg213 O212 2.028 . S
Mg213 O218 2.032 . S
Mg213 O220 2.079 . S
C214 O211 1.250 . S
C214 O212 1.248 . S
C215 O216 1.264 . S
C215 O223 1.249 . S
O216 C215 1.264 . S
O217 Mg210 1.986 . S
O217 C221 1.246 . S
O218 Mg213 2.032 . S
O218 C221 1.259 . S
O219 Mg210 2.114 . S
O219 C222 1.252 . S
O220 Mg210 2.251 . S
O220 Mg213 2.079 . S
O220 C222 1.273 . S
C221 O217 1.246 . S
C221 O218 1.259 . S
C222 O219 1.252 . S
C222 O220 1.273 . S
O223 Mg210 2.010 . S
O223 C215 1.249 . S
C224 C225 1.349 . S
C224 C226 1.327 . S
C224 H249 0.950 . S
C225 C224 1.349 . S
C225 C241 1.349 . S
C226 C224 1.327 . S
C226 C245 1.429 . S
C226 H250 0.950 . S
C227 C244 1.574 . S
C227 C246 1.368 . S
C227 H251 0.949 . S
H228 C232 0.949 . S
C229 C230 1.349 . S
C229 C231 1.327 . S
C229 H252 0.950 . S
C230 C229 1.349 . S
C230 C242 1.349 . S
C231 C229 1.327 . S
C231 C247 1.429 . S
C231 H253 0.950 . S
C232 H228 0.949 . S
C232 C240 1.574 . S
C232 C248 1.368 . S
H233 C241 0.950 . S
H234 C239 0.950 . S
H235 C240 0.949 . S
H236 C242 0.950 . S
H237 C243 0.950 . S
H238 C244 0.949 . S
C239 H234 0.950 . S
C239 C241 1.327 . S
C239 C245 1.429 . S
C240 C232 1.574 . S
C240 H235 0.949 . S
C240 C246 1.368 . S
C241 C225 1.349 . S
C241 H233 0.950 . S
C241 C239 1.327 . S
C242 C230 1.349 . S
C242 H236 0.950 . S
C242 C243 1.327 . S
C243 H237 0.950 . S
C243 C242 1.327 . S
C243 C247 1.429 . S
C244 C227 1.574 . S
C244 H238 0.949 . S
C244 C248 1.368 . S
C245 C226 1.429 . S
C245 C239 1.429 . S
C245 C246 1.523 . S
C246 C227 1.368 . S
C246 C240 1.368 . S
C246 C245 1.523 . S
C247 C231 1.429 . S
C247 C243 1.429 . S
C247 C248 1.523 . S
C248 C232 1.368 . S
C248 C244 1.368 . S
C248 C247 1.523 . S
H249 C224 0.950 . S
H250 C226 0.950 . S
H251 C227 0.949 . S
H252 C229 0.950 . S
H253 C231 0.950 . S
C254 C255 1.349 . S
C254 C256 1.327 . S
C254 H279 0.950 . S
C255 C254 1.349 . S
C255 C271 1.349 . S
C256 C254 1.327 . S
C256 C275 1.429 . S
C256 H280 0.950 . S
C257 C274 1.574 . S
C257 C276 1.368 . S
C257 H281 0.949 . S
H258 C262 0.949 . S
C259 C260 1.349 . S
C259 C261 1.327 . S
C259 H282 0.950 . S
C260 C259 1.349 . S
C260 C272 1.349 . S
C261 C259 1.327 . S
C261 C277 1.429 . S
C261 H283 0.950 . S
C262 H258 0.949 . S
C262 C270 1.574 . S
C262 C278 1.368 . S
H263 C271 0.950 . S
H264 C269 0.950 . S
H265 C270 0.949 . S
H266 C272 0.950 . S
H267 C273 0.950 . S
H268 C274 0.949 . S
C269 H264 0.950 . S
C269 C271 1.327 . S
C269 C275 1.429 . S
C270 C262 1.574 . S
C270 H265 0.949 . S
C270 C276 1.368 . S
C271 C255 1.349 . S
C271 H263 0.950 . S
C271 C269 1.327 . S
C272 C260 1.349 . S
C272 H266 0.950 . S
C272 C273 1.327 . S
C273 H267 0.950 . S
C273 C272 1.327 . S
C273 C277 1.429 . S
C274 C257 1.574 . S
C274 H268 0.949 . S
C274 C278 1.368 . S
C275 C256 1.429 . S
C275 C269 1.429 . S
C275 C276 1.523 . S
C276 C257 1.368 . S
C276 C270 1.368 . S
C276 C275 1.523 . S
C277 C261 1.429 . S
C277 C273 1.429 . S
C277 C278 1.523 . S
C278 C262 1.368 . S
C278 C274 1.368 . S
C278 C277 1.523 . S
H279 C254 0.950 . S
H280 C256 0.950 . S
H281 C257 0.949 . S
H282 C259 0.950 . S
H283 C261 0.950 . S
C284 C285 1.349 . S
C284 C286 1.327 . S
C284 H309 0.950 . S
C285 C284 1.349 . S
C285 C301 1.349 . S
C286 C284 1.327 . S
C286 C305 1.429 . S
C286 H310 0.950 . S
C287 C304 1.574 . S
C287 C306 1.368 . S
C287 H311 0.949 . S
H288 C292 0.949 . S
C289 C290 1.349 . S
C289 C291 1.327 . S
C289 H312 0.950 . S
C290 C289 1.349 . S
C290 C302 1.349 . S
C291 C289 1.327 . S
C291 C307 1.429 . S
C291 H313 0.950 . S
C292 H288 0.949 . S
C292 C300 1.574 . S
C292 C308 1.368 . S
H293 C301 0.950 . S
H294 C299 0.950 . S
H295 C300 0.949 . S
H296 C302 0.950 . S
H297 C303 0.950 . S
H298 C304 0.949 . S
C299 H294 0.950 . S
C299 C301 1.327 . S
C299 C305 1.429 . S
C300 C292 1.574 . S
C300 H295 0.949 . S
C300 C306 1.368 . S
C301 C285 1.349 . S
C301 H293 0.950 . S
C301 C299 1.327 . S
C302 C290 1.349 . S
C302 H296 0.950 . S
C302 C303 1.327 . S
C303 H297 0.950 . S
C303 C302 1.327 . S
C303 C307 1.429 . S
C304 C287 1.574 . S
C304 H298 0.949 . S
C304 C308 1.368 . S
C305 C286 1.429 . S
C305 C299 1.429 . S
C305 C306 1.523 . S
C306 C287 1.368 . S
C306 C300 1.368 . S
C306 C305 1.523 . S
C307 C291 1.429 . S
C307 C303 1.429 . S
C307 C308 1.523 . S
C308 C292 1.368 . S
C308 C304 1.368 . S
C308 C307 1.523 . S
H309 C284 0.950 . S
H310 C286 0.950 . S
H311 C287 0.949 . S
H312 C289 0.950 . S
H313 C291 0.950 . S
C314 C315 1.349 . S
C314 C316 1.327 . S
C314 H339 0.950 . S
C315 C314 1.349 . S
C315 C331 1.349 . S
C316 C314 1.327 . S
C316 C335 1.429 . S
C316 H340 0.950 . S
C317 C334 1.574 . S
C317 C336 1.368 . S
C317 H341 0.949 . S
H318 C322 0.949 . S
C319 C320 1.349 . S
C319 C321 1.327 . S
C319 H342 0.950 . S
C320 C319 1.349 . S
C320 C332 1.349 . S
C321 C319 1.327 . S
C321 C337 1.429 . S
C321 H343 0.950 . S
C322 H318 0.949 . S
C322 C330 1.574 . S
C322 C338 1.368 . S
H323 C331 0.950 . S
H324 C329 0.950 . S
H325 C330 0.949 . S
H326 C332 0.950 . S
H327 C333 0.950 . S
H328 C334 0.949 . S
C329 H324 0.950 . S
C329 C331 1.327 . S
C329 C335 1.429 . S
C330 C322 1.574 . S
C330 H325 0.949 . S
C330 C336 1.368 . S
C331 C315 1.349 . S
C331 H323 0.950 . S
C331 C329 1.327 . S
C332 C320 1.349 . S
C332 H326 0.950 . S
C332 C333 1.327 . S
C333 H327 0.950 . S
C333 C332 1.327 . S
C333 C337 1.429 . S
C334 C317 1.574 . S
C334 H328 0.949 . S
C334 C338 1.368 . S
C335 C316 1.429 . S
C335 C329 1.429 . S
C335 C336 1.523 . S
C336 C317 1.368 . S
C336 C330 1.368 . S
C336 C335 1.523 . S
C337 C321 1.429 . S
C337 C333 1.429 . S
C337 C338 1.523 . S
C338 C322 1.368 . S
C338 C334 1.368 . S
C338 C337 1.523 . S
H339 C314 0.950 . S
H340 C316 0.950 . S
H341 C317 0.949 . S
H342 C319 0.950 . S
H343 C321 0.950 . S
C344 C345 1.349 . S
C344 C346 1.327 . S
C344 H369 0.950 . S
C345 C344 1.349 . S
C345 C361 1.349 . S
C346 C344 1.327 . S
C346 C365 1.429 . S
C346 H370 0.950 . S
C347 C364 1.574 . S
C347 C366 1.368 . S
C347 H371 0.949 . S
H348 C352 0.949 . S
C349 C350 1.349 . S
C349 C351 1.327 . S
C349 H372 0.950 . S
C350 C349 1.349 . S
C350 C362 1.349 . S
C351 C349 1.327 . S
C351 C367 1.429 . S
C351 H373 0.950 . S
C352 H348 0.949 . S
C352 C360 1.574 . S
C352 C368 1.368 . S
H353 C361 0.950 . S
H354 C359 0.950 . S
H355 C360 0.949 . S
H356 C362 0.950 . S
H357 C363 0.950 . S
H358 C364 0.949 . S
C359 H354 0.950 . S
C359 C361 1.327 . S
C359 C365 1.429 . S
C360 C352 1.574 . S
C360 H355 0.949 . S
C360 C366 1.368 . S
C361 C345 1.349 . S
C361 H353 0.950 . S
C361 C359 1.327 . S
C362 C350 1.349 . S
C362 H356 0.950 . S
C362 C363 1.327 . S
C363 H357 0.950 . S
C363 C362 1.327 . S
C363 C367 1.429 . S
C364 C347 1.574 . S
C364 H358 0.949 . S
C364 C368 1.368 . S
C365 C346 1.429 . S
C365 C359 1.429 . S
C365 C366 1.523 . S
C366 C347 1.368 . S
C366 C360 1.368 . S
C366 C365 1.523 . S
C367 C351 1.429 . S
C367 C363 1.429 . S
C367 C368 1.523 . S
C368 C352 1.368 . S
C368 C364 1.368 . S
C368 C367 1.523 . S
H369 C344 0.950 . S
H370 C346 0.950 . S
H371 C347 0.949 . S
H372 C349 0.950 . S
H373 C351 0.950 . S
C374 C375 1.349 . S
C374 C376 1.327 . S
C374 H399 0.950 . S
C375 C374 1.349 . S
C375 C391 1.349 . S
C376 C374 1.327 . S
C376 C395 1.429 . S
C376 H400 0.950 . S
C377 C394 1.574 . S
C377 C396 1.368 . S
C377 H401 0.949 . S
H378 C382 0.949 . S
C379 C380 1.349 . S
C379 C381 1.327 . S
C379 H402 0.950 . S
C380 C379 1.349 . S
C380 C392 1.349 . S
C381 C379 1.327 . S
C381 C397 1.429 . S
C381 H403 0.950 . S
C382 H378 0.949 . S
C382 C390 1.574 . S
C382 C398 1.368 . S
H383 C391 0.950 . S
H384 C389 0.950 . S
H385 C390 0.949 . S
H386 C392 0.950 . S
H387 C393 0.950 . S
H388 C394 0.949 . S
C389 H384 0.950 . S
C389 C391 1.327 . S
C389 C395 1.429 . S
C390 C382 1.574 . S
C390 H385 0.949 . S
C390 C396 1.368 . S
C391 C375 1.349 . S
C391 H383 0.950 . S
C391 C389 1.327 . S
C392 C380 1.349 . S
C392 H386 0.950 . S
C392 C393 1.327 . S
C393 H387 0.950 . S
C393 C392 1.327 . S
C393 C397 1.429 . S
C394 C377 1.574 . S
C394 H388 0.949 . S
C394 C398 1.368 . S
C395 C376 1.429 . S
C395 C389 1.429 . S
C395 C396 1.523 . S
C396 C377 1.368 . S
C396 C390 1.368 . S
C396 C395 1.523 . S
C397 C381 1.429 . S
C397 C393 1.429 . S
C397 C398 1.523 . S
C398 C382 1.368 . S
C398 C394 1.368 . S
C398 C397 1.523 . S
H399 C374 0.950 . S
H400 C376 0.950 . S
H401 C377 0.949 . S
H402 C379 0.950 . S
H403 C381 0.950 . S
C404 C405 1.349 . S
C404 C406 1.327 . S
C404 H429 0.950 . S
C405 C404 1.349 . S
C405 C421 1.349 . S
C406 C404 1.327 . S
C406 C425 1.429 . S
C406 H430 0.950 . S
C407 C424 1.574 . S
C407 C426 1.368 . S
C407 H431 0.949 . S
H408 C412 0.949 . S
C409 C410 1.349 . S
C409 C411 1.327 . S
C409 H432 0.950 . S
C410 C409 1.349 . S
C410 C422 1.349 . S
C411 C409 1.327 . S
C411 C427 1.429 . S
C411 H433 0.950 . S
C412 H408 0.949 . S
C412 C420 1.574 . S
C412 C428 1.368 . S
H413 C421 0.950 . S
H414 C419 0.950 . S
H415 C420 0.949 . S
H416 C422 0.950 . S
H417 C423 0.950 . S
H418 C424 0.949 . S
C419 H414 0.950 . S
C419 C421 1.327 . S
C419 C425 1.429 . S
C420 C412 1.574 . S
C420 H415 0.949 . S
C420 C426 1.368 . S
C421 C405 1.349 . S
C421 H413 0.950 . S
C421 C419 1.327 . S
C422 C410 1.349 . S
C422 H416 0.950 . S
C422 C423 1.327 . S
C423 H417 0.950 . S
C423 C422 1.327 . S
C423 C427 1.429 . S
C424 C407 1.574 . S
C424 H418 0.949 . S
C424 C428 1.368 . S
C425 C406 1.429 . S
C425 C419 1.429 . S
C425 C426 1.523 . S
C426 C407 1.368 . S
C426 C420 1.368 . S
C426 C425 1.523 . S
C427 C411 1.429 . S
C427 C423 1.429 . S
C427 C428 1.523 . S
C428 C412 1.368 . S
C428 C424 1.368 . S
C428 C427 1.523 . S
H429 C404 0.950 . S
H430 C406 0.950 . S
H431 C407 0.949 . S
H432 C409 0.950 . S
H433 C411 0.950 . S
C434 C435 1.349 . S
C434 C436 1.327 . S
C434 H459 0.950 . S
C435 C434 1.349 . S
C435 C451 1.349 . S
C436 C434 1.327 . S
C436 C455 1.429 . S
C436 H460 0.950 . S
C437 C454 1.574 . S
C437 C456 1.368 . S
C437 H461 0.949 . S
H438 C442 0.949 . S
C439 C440 1.349 . S
C439 C441 1.327 . S
C439 H462 0.950 . S
C440 C439 1.349 . S
C440 C452 1.349 . S
C441 C439 1.327 . S
C441 C457 1.429 . S
C441 H463 0.950 . S
C442 H438 0.949 . S
C442 C450 1.574 . S
C442 C458 1.368 . S
H443 C451 0.950 . S
H444 C449 0.950 . S
H445 C450 0.949 . S
H446 C452 0.950 . S
H447 C453 0.950 . S
H448 C454 0.949 . S
C449 H444 0.950 . S
C449 C451 1.327 . S
C449 C455 1.429 . S
C450 C442 1.574 . S
C450 H445 0.949 . S
C450 C456 1.368 . S
C451 C435 1.349 . S
C451 H443 0.950 . S
C451 C449 1.327 . S
C452 C440 1.349 . S
C452 H446 0.950 . S
C452 C453 1.327 . S
C453 H447 0.950 . S
C453 C452 1.327 . S
C453 C457 1.429 . S
C454 C437 1.574 . S
C454 H448 0.949 . S
C454 C458 1.368 . S
C455 C436 1.429 . S
C455 C449 1.429 . S
C455 C456 1.523 . S
C456 C437 1.368 . S
C456 C450 1.368 . S
C456 C455 1.523 . S
C457 C441 1.429 . S
C457 C453 1.429 . S
C457 C458 1.523 . S
C458 C442 1.368 . S
C458 C454 1.368 . S
C458 C457 1.523 . S
H459 C434 0.950 . S
H460 C436 0.950 . S
H461 C437 0.949 . S
H462 C439 0.950 . S
H463 C441 0.950 . S
C464 C465 1.349 . S
C464 C466 1.327 . S
C464 H489 0.950 . S
C465 C464 1.349 . S
C465 C481 1.349 . S
C466 C464 1.327 . S
C466 C485 1.429 . S
C466 H490 0.950 . S
C467 C484 1.574 . S
C467 C486 1.368 . S
C467 H491 0.949 . S
H468 C472 0.949 . S
C469 C470 1.349 . S
C469 C471 1.327 . S
C469 H492 0.950 . S
C470 C469 1.349 . S
C470 C482 1.349 . S
C471 C469 1.327 . S
C471 C487 1.429 . S
C471 H493 0.950 . S
C472 H468 0.949 . S
C472 C480 1.574 . S
C472 C488 1.368 . S
H473 C481 0.950 . S
H474 C479 0.950 . S
H475 C480 0.949 . S
H476 C482 0.950 . S
H477 C483 0.950 . S
H478 C484 0.949 . S
C479 H474 0.950 . S
C479 C481 1.327 . S
C479 C485 1.429 . S
C480 C472 1.574 . S
C480 H475 0.949 . S
C480 C486 1.368 . S
C481 C465 1.349 . S
C481 H473 0.950 . S
C481 C479 1.327 . S
C482 C470 1.349 . S
C482 H476 0.950 . S
C482 C483 1.327 . S
C483 H477 0.950 . S
C483 C482 1.327 . S
C483 C487 1.429 . S
C484 C467 1.574 . S
C484 H478 0.949 . S
C484 C488 1.368 . S
C485 C466 1.429 . S
C485 C479 1.429 . S
C485 C486 1.523 . S
C486 C467 1.368 . S
C486 C480 1.368 . S
C486 C485 1.523 . S
C487 C471 1.429 . S
C487 C483 1.429 . S
C487 C488 1.523 . S
C488 C472 1.368 . S
C488 C484 1.368 . S
C488 C487 1.523 . S
H489 C464 0.950 . S
H490 C466 0.950 . S
H491 C467 0.949 . S
H492 C469 0.950 . S
H493 C471 0.950 . S
C494 C495 1.349 . S
C494 C496 1.327 . S
C494 H519 0.950 . S
C495 C494 1.349 . S
C495 C511 1.349 . S
C496 C494 1.327 . S
C496 C515 1.429 . S
C496 H520 0.950 . S
C497 C514 1.574 . S
C497 C516 1.368 . S
C497 H521 0.949 . S
H498 C502 0.949 . S
C499 C500 1.349 . S
C499 C501 1.327 . S
C499 H522 0.950 . S
C500 C499 1.349 . S
C500 C512 1.349 . S
C501 C499 1.327 . S
C501 C517 1.429 . S
C501 H523 0.950 . S
C502 H498 0.949 . S
C502 C510 1.574 . S
C502 C518 1.368 . S
H503 C511 0.950 . S
H504 C509 0.950 . S
H505 C510 0.949 . S
H506 C512 0.950 . S
H507 C513 0.950 . S
H508 C514 0.949 . S
C509 H504 0.950 . S
C509 C511 1.327 . S
C509 C515 1.429 . S
C510 C502 1.574 . S
C510 H505 0.949 . S
C510 C516 1.368 . S
C511 C495 1.349 . S
C511 H503 0.950 . S
C511 C509 1.327 . S
C512 C500 1.349 . S
C512 H506 0.950 . S
C512 C513 1.327 . S
C513 H507 0.950 . S
C513 C512 1.327 . S
C513 C517 1.429 . S
C514 C497 1.574 . S
C514 H508 0.949 . S
C514 C518 1.368 . S
C515 C496 1.429 . S
C515 C509 1.429 . S
C515 C516 1.523 . S
C516 C497 1.368 . S
C516 C510 1.368 . S
C516 C515 1.523 . S
C517 C501 1.429 . S
C517 C513 1.429 . S
C517 C518 1.523 . S
C518 C502 1.368 . S
C518 C514 1.368 . S
C518 C517 1.523 . S
H519 C494 0.950 . S
H520 C496 0.950 . S
H521 C497 0.949 . S
H522 C499 0.950 . S
H523 C501 0.950 . S
C524 C525 1.349 . S
C524 C526 1.327 . S
C524 H549 0.950 . S
C525 C524 1.349 . S
C525 C541 1.349 . S
C526 C524 1.327 . S
C526 C545 1.429 . S
C526 H550 0.950 . S
C527 C544 1.574 . S
C527 C546 1.368 . S
C527 H551 0.949 . S
H528 C532 0.949 . S
C529 C530 1.349 . S
C529 C531 1.327 . S
C529 H552 0.950 . S
C530 C529 1.349 . S
C530 C542 1.349 . S
C531 C529 1.327 . S
C531 C547 1.429 . S
C531 H553 0.950 . S
C532 H528 0.949 . S
C532 C540 1.574 . S
C532 C548 1.368 . S
H533 C541 0.950 . S
H534 C539 0.950 . S
H535 C540 0.949 . S
H536 C542 0.950 . S
H537 C543 0.950 . S
H538 C544 0.949 . S
C539 H534 0.950 . S
C539 C541 1.327 . S
C539 C545 1.429 . S
C540 C532 1.574 . S
C540 H535 0.949 . S
C540 C546 1.368 . S
C541 C525 1.349 . S
C541 H533 0.950 . S
C541 C539 1.327 . S
C542 C530 1.349 . S
C542 H536 0.950 . S
C542 C543 1.327 . S
C543 H537 0.950 . S
C543 C542 1.327 . S
C543 C547 1.429 . S
C544 C527 1.574 . S
C544 H538 0.949 . S
C544 C548 1.368 . S
C545 C526 1.429 . S
C545 C539 1.429 . S
C545 C546 1.523 . S
C546 C527 1.368 . S
C546 C540 1.368 . S
C546 C545 1.523 . S
C547 C531 1.429 . S
C547 C543 1.429 . S
C547 C548 1.523 . S
C548 C532 1.368 . S
C548 C544 1.368 . S
C548 C547 1.523 . S
H549 C524 0.950 . S
H550 C526 0.950 . S
H551 C527 0.949 . S
H552 C529 0.950 . S
H553 C531 0.950 . S
C554 C555 1.349 . S
C554 C556 1.327 . S
C554 H579 0.950 . S
C555 C554 1.349 . S
C555 C571 1.349 . S
C556 C554 1.327 . S
C556 C575 1.429 . S
C556 H580 0.950 . S
C557 C574 1.574 . S
C557 C576 1.368 . S
C557 H581 0.949 . S
H558 C562 0.949 . S
C559 C560 1.349 . S
C559 C561 1.327 . S
C559 H582 0.950 . S
C560 C559 1.349 . S
C560 C572 1.349 . S
C561 C559 1.327 . S
C561 C577 1.429 . S
C561 H583 0.950 . S
C562 H558 0.949 . S
C562 C570 1.574 . S
C562 C578 1.368 . S
H563 C571 0.950 . S
H564 C569 0.950 . S
H565 C570 0.949 . S
H566 C572 0.950 . S
H567 C573 0.950 . S
H568 C574 0.949 . S
C569 H564 0.950 . S
C569 C571 1.327 . S
C569 C575 1.429 . S
C570 C562 1.574 . S
C570 H565 0.949 . S
C570 C576 1.368 . S
C571 C555 1.349 . S
C571 H563 0.950 . S
C571 C569 1.327 . S
C572 C560 1.349 . S
C572 H566 0.950 . S
C572 C573 1.327 . S
C573 H567 0.950 . S
C573 C572 1.327 . S
C573 C577 1.429 . S
C574 C557 1.574 . S
C574 H568 0.949 . S
C574 C578 1.368 . S
C575 C556 1.429 . S
C575 C569 1.429 . S
C575 C576 1.523 . S
C576 C557 1.368 . S
C576 C570 1.368 . S
C576 C575 1.523 . S
C577 C561 1.429 . S
C577 C573 1.429 . S
C577 C578 1.523 . S
C578 C562 1.368 . S
C578 C574 1.368 . S
C578 C577 1.523 . S
H579 C554 0.950 . S
H580 C556 0.950 . S
H581 C557 0.949 . S
H582 C559 0.950 . S
H583 C561 0.950 . S
C584 C585 1.349 . S
C584 C586 1.327 . S
C584 H609 0.950 . S
C585 C584 1.349 . S
C585 C601 1.349 . S
C586 C584 1.327 . S
C586 C605 1.429 . S
C586 H610 0.950 . S
C587 C604 1.574 . S
C587 C606 1.368 . S
C587 H611 0.949 . S
H588 C592 0.949 . S
C589 C590 1.349 . S
C589 C591 1.327 . S
C589 H612 0.950 . S
C590 C589 1.349 . S
C590 C602 1.349 . S
C591 C589 1.327 . S
C591 C607 1.429 . S
C591 H613 0.950 . S
C592 H588 0.949 . S
C592 C600 1.574 . S
C592 C608 1.368 . S
H593 C601 0.950 . S
H594 C599 0.950 . S
H595 C600 0.949 . S
H596 C602 0.950 . S
H597 C603 0.950 . S
H598 C604 0.949 . S
C599 H594 0.950 . S
C599 C601 1.327 . S
C599 C605 1.429 . S
C600 C592 1.574 . S
C600 H595 0.949 . S
C600 C606 1.368 . S
C601 C585 1.349 . S
C601 H593 0.950 . S
C601 C599 1.327 . S
C602 C590 1.349 . S
C602 H596 0.950 . S
C602 C603 1.327 . S
C603 H597 0.950 . S
C603 C602 1.327 . S
C603 C607 1.429 . S
C604 C587 1.574 . S
C604 H598 0.949 . S
C604 C608 1.368 . S
C605 C586 1.429 . S
C605 C599 1.429 . S
C605 C606 1.523 . S
C606 C587 1.368 . S
C606 C600 1.368 . S
C606 C605 1.523 . S
C607 C591 1.429 . S
C607 C603 1.429 . S
C607 C608 1.523 . S
C608 C592 1.368 . S
C608 C604 1.368 . S
C608 C607 1.523 . S
H609 C584 0.950 . S
H610 C586 0.950 . S
H611 C587 0.949 . S
H612 C589 0.950 . S
H613 C591 0.950 . S
C614 C615 1.349 . S
C614 C616 1.327 . S
C614 H639 0.950 . S
C615 C614 1.349 . S
C615 C631 1.349 . S
C616 C614 1.327 . S
C616 C635 1.429 . S
C616 H640 0.950 . S
C617 C634 1.574 . S
C617 C636 1.368 . S
C617 H641 0.949 . S
H618 C622 0.949 . S
C619 C620 1.349 . S
C619 C621 1.327 . S
C619 H642 0.950 . S
C620 C619 1.349 . S
C620 C632 1.349 . S
C621 C619 1.327 . S
C621 C637 1.429 . S
C621 H643 0.950 . S
C622 H618 0.949 . S
C622 C630 1.574 . S
C622 C638 1.368 . S
H623 C631 0.950 . S
H624 C629 0.950 . S
H625 C630 0.949 . S
H626 C632 0.950 . S
H627 C633 0.950 . S
H628 C634 0.949 . S
C629 H624 0.950 . S
C629 C631 1.327 . S
C629 C635 1.429 . S
C630 C622 1.574 . S
C630 H625 0.949 . S
C630 C636 1.368 . S
C631 C615 1.349 . S
C631 H623 0.950 . S
C631 C629 1.327 . S
C632 C620 1.349 . S
C632 H626 0.950 . S
C632 C633 1.327 . S
C633 H627 0.950 . S
C633 C632 1.327 . S
C633 C637 1.429 . S
C634 C617 1.574 . S
C634 H628 0.949 . S
C634 C638 1.368 . S
C635 C616 1.429 . S
C635 C629 1.429 . S
C635 C636 1.523 . S
C636 C617 1.368 . S
C636 C630 1.368 . S
C636 C635 1.523 . S
C637 C621 1.429 . S
C637 C633 1.429 . S
C637 C638 1.523 . S
C638 C622 1.368 . S
C638 C634 1.368 . S
C638 C637 1.523 . S
H639 C614 0.950 . S
H640 C616 0.950 . S
H641 C617 0.949 . S
H642 C619 0.950 . S
H643 C621 0.950 . S
C644 C645 1.349 . S
C644 C646 1.327 . S
C644 H669 0.950 . S
C645 C644 1.349 . S
C645 C661 1.349 . S
C646 C644 1.327 . S
C646 C665 1.429 . S
C646 H670 0.950 . S
C647 C664 1.574 . S
C647 C666 1.368 . S
C647 H671 0.949 . S
H648 C652 0.949 . S
C649 C650 1.349 . S
C649 C651 1.327 . S
C649 H672 0.950 . S
C650 C649 1.349 . S
C650 C662 1.349 . S
C651 C649 1.327 . S
C651 C667 1.429 . S
C651 H673 0.950 . S
C652 H648 0.949 . S
C652 C660 1.574 . S
C652 C668 1.368 . S
H653 C661 0.950 . S
H654 C659 0.950 . S
H655 C660 0.949 . S
H656 C662 0.950 . S
H657 C663 0.950 . S
H658 C664 0.949 . S
C659 H654 0.950 . S
C659 C661 1.327 . S
C659 C665 1.429 . S
C660 C652 1.574 . S
C660 H655 0.949 . S
C660 C666 1.368 . S
C661 C645 1.349 . S
C661 H653 0.950 . S
C661 C659 1.327 . S
C662 C650 1.349 . S
C662 H656 0.950 . S
C662 C663 1.327 . S
C663 H657 0.950 . S
C663 C662 1.327 . S
C663 C667 1.429 . S
C664 C647 1.574 . S
C664 H658 0.949 . S
C664 C668 1.368 . S
C665 C646 1.429 . S
C665 C659 1.429 . S
C665 C666 1.523 . S
C666 C647 1.368 . S
C666 C660 1.368 . S
C666 C665 1.523 . S
C667 C651 1.429 . S
C667 C663 1.429 . S
C667 C668 1.523 . S
C668 C652 1.368 . S
C668 C664 1.368 . S
C668 C667 1.523 . S
H669 C644 0.950 . S
H670 C646 0.950 . S
H671 C647 0.949 . S
H672 C649 0.950 . S
H673 C651 0.950 . S
C674 C675 1.349 . S
C674 C676 1.327 . S
C674 H699 0.950 . S
C675 C674 1.349 . S
C675 C691 1.349 . S
C676 C674 1.327 . S
C676 C695 1.429 . S
C676 H700 0.950 . S
C677 C694 1.574 . S
C677 C696 1.368 . S
C677 H701 0.949 . S
H678 C682 0.949 . S
C679 C680 1.349 . S
C679 C681 1.327 . S
C679 H702 0.950 . S
C680 C679 1.349 . S
C680 C692 1.349 . S
C681 C679 1.327 . S
C681 C697 1.429 . S
C681 H703 0.950 . S
C682 H678 0.949 . S
C682 C690 1.574 . S
C682 C698 1.368 . S
H683 C691 0.950 . S
H684 C689 0.950 . S
H685 C690 0.949 . S
H686 C692 0.950 . S
H687 C693 0.950 . S
H688 C694 0.949 . S
C689 H684 0.950 . S
C689 C691 1.327 . S
C689 C695 1.429 . S
C690 C682 1.574 . S
C690 H685 0.949 . S
C690 C696 1.368 . S
C691 C675 1.349 . S
C691 H683 0.950 . S
C691 C689 1.327 . S
C692 C680 1.349 . S
C692 H686 0.950 . S
C692 C693 1.327 . S
C693 H687 0.950 . S
C693 C692 1.327 . S
C693 C697 1.429 . S
C694 C677 1.574 . S
C694 H688 0.949 . S
C694 C698 1.368 . S
C695 C676 1.429 . S
C695 C689 1.429 . S
C695 C696 1.523 . S
C696 C677 1.368 . S
C696 C690 1.368 . S
C696 C695 1.523 . S
C697 C681 1.429 . S
C697 C693 1.429 . S
C697 C698 1.523 . S
C698 C682 1.368 . S
C698 C694 1.368 . S
C698 C697 1.523 . S
H699 C674 0.950 . S
H700 C676 0.950 . S
H701 C677 0.949 . S
H702 C679 0.950 . S
H703 C681 0.950 . S
C704 C705 1.349 1_545 S
C704 C706 1.327 . S
C704 H729 0.950 . S
C705 C704 1.349 1_565 S
C705 C721 1.349 . S
C706 C704 1.327 . S
C706 C725 1.429 . S
C706 H730 0.950 . S
C707 C724 1.574 . S
C707 C726 1.368 . S
C707 H731 0.949 . S
H708 C712 0.949 . S
C709 C710 1.349 . S
C709 C711 1.327 . S
C709 H732 0.950 . S
C710 C709 1.349 . S
C710 C722 1.349 . S
C711 C709 1.327 . S
C711 C727 1.429 . S
C711 H733 0.950 . S
C712 H708 0.949 . S
C712 C720 1.574 . S
C712 C728 1.368 . S
H713 C721 0.950 . S
H714 C719 0.950 . S
H715 C720 0.949 . S
H716 C722 0.950 . S
H717 C723 0.950 . S
H718 C724 0.949 . S
C719 H714 0.950 . S
C719 C721 1.327 1_545 S
C719 C725 1.429 . S
C720 C712 1.574 . S
C720 H715 0.949 . S
C720 C726 1.368 . S
C721 C705 1.349 . S
C721 H713 0.950 . S
C721 C719 1.327 1_565 S
C722 C710 1.349 . S
C722 H716 0.950 . S
C722 C723 1.327 . S
C723 H717 0.950 . S
C723 C722 1.327 . S
C723 C727 1.429 . S
C724 C707 1.574 . S
C724 H718 0.949 . S
C724 C728 1.368 . S
C725 C706 1.429 . S
C725 C719 1.429 . S
C725 C726 1.523 . S
C726 C707 1.368 . S
C726 C720 1.368 . S
C726 C725 1.523 . S
C727 C711 1.429 . S
C727 C723 1.429 . S
C727 C728 1.523 . S
C728 C712 1.368 . S
C728 C724 1.368 . S
C728 C727 1.523 . S
H729 C704 0.950 . S
H730 C706 0.950 . S
H731 C707 0.949 . S
H732 C709 0.950 . S
H733 C711 0.950 . S
C734 C735 1.349 . S
C734 C736 1.327 . S
C734 H759 0.950 . S
C735 C734 1.349 . S
C735 C751 1.349 . S
C736 C734 1.327 . S
C736 C755 1.429 . S
C736 H760 0.950 . S
C737 C754 1.574 . S
C737 C756 1.368 . S
C737 H761 0.949 . S
H738 C742 0.949 . S
C739 C740 1.349 . S
C739 C741 1.327 . S
C739 H762 0.950 . S
C740 C739 1.349 . S
C740 C752 1.353 . S
C741 C739 1.327 . S
C741 C757 1.429 1_655 S
C741 H763 0.950 . S
C742 H738 0.949 . S
C742 C750 1.574 . S
C742 C758 1.368 . S
H743 C751 0.950 . S
H744 C749 0.950 . S
H745 C750 0.949 . S
H746 C752 0.948 1_455 S
H747 C753 0.950 . S
H748 C754 0.949 . S
C749 H744 0.950 . S
C749 C751 1.327 . S
C749 C755 1.429 . S
C750 C742 1.574 . S
C750 H745 0.949 . S
C750 C756 1.368 . S
C751 C735 1.349 . S
C751 H743 0.950 . S
C751 C749 1.327 . S
C752 C740 1.353 . S
C752 H746 0.948 1_655 S
C752 C753 1.324 1_655 S
C753 H747 0.950 . S
C753 C752 1.324 1_455 S
C753 C757 1.429 . S
C754 C737 1.574 . S
C754 H748 0.949 . S
C754 C758 1.368 . S
C755 C736 1.429 . S
C755 C749 1.429 . S
C755 C756 1.523 . S
C756 C737 1.368 . S
C756 C750 1.368 . S
C756 C755 1.523 . S
C757 C741 1.429 1_455 S
C757 C753 1.429 . S
C757 C758 1.523 . S
C758 C742 1.368 . S
C758 C754 1.368 . S
C758 C757 1.523 . S
H759 C734 0.950 . S
H760 C736 0.950 . S
H761 C737 0.949 . S
H762 C739 0.950 . S
H763 C741 0.950 . S
C764 C765 1.349 1_565 S
C764 C766 1.327 . S
C764 H789 0.950 . S
C765 C764 1.349 1_545 S
C765 C781 1.349 . S
C766 C764 1.327 . S
C766 C785 1.429 . S
C766 H790 0.950 . S
C767 C784 1.574 . S
C767 C786 1.368 . S
C767 H791 0.949 . S
H768 C772 0.949 . S
C769 C770 1.349 . S
C769 C771 1.327 . S
C769 H792 0.950 . S
C770 C769 1.349 . S
C770 C782 1.349 . S
C771 C769 1.327 . S
C771 C787 1.429 . S
C771 H793 0.950 . S
C772 H768 0.949 . S
C772 C780 1.574 . S
C772 C788 1.368 . S
H773 C781 0.950 . S
H774 C779 0.950 . S
H775 C780 0.949 . S
H776 C782 0.950 . S
H777 C783 0.950 . S
H778 C784 0.949 . S
C779 H774 0.950 . S
C779 C781 1.327 1_565 S
C779 C785 1.429 . S
C780 C772 1.574 . S
C780 H775 0.949 . S
C780 C786 1.368 . S
C781 C765 1.349 . S
C781 H773 0.950 . S
C781 C779 1.327 1_545 S
C782 C770 1.349 . S
C782 H776 0.950 . S
C782 C783 1.327 . S
C783 H777 0.950 . S
C783 C782 1.327 . S
C783 C787 1.429 . S
C784 C767 1.574 . S
C784 H778 0.949 . S
C784 C788 1.368 . S
C785 C766 1.429 . S
C785 C779 1.429 . S
C785 C786 1.523 . S
C786 C767 1.368 . S
C786 C780 1.368 . S
C786 C785 1.523 . S
C787 C771 1.429 . S
C787 C783 1.429 . S
C787 C788 1.523 . S
C788 C772 1.368 . S
C788 C784 1.368 . S
C788 C787 1.523 . S
H789 C764 0.950 . S
H790 C766 0.950 . S
H791 C767 0.949 . S
H792 C769 0.950 . S
H793 C771 0.950 . S
C794 C795 1.349 . S
C794 C796 1.327 . S
C794 H819 0.950 . S
C795 C794 1.349 . S
C795 C811 1.349 . S
C796 C794 1.327 . S
C796 C815 1.429 . S
C796 H820 0.950 . S
C797 C814 1.574 . S
C797 C816 1.368 . S
C797 H821 0.949 . S
H798 C802 0.949 . S
C799 C800 1.349 . S
C799 C801 1.327 . S
C799 H822 0.950 . S
C800 C799 1.349 . S
C800 C812 1.349 1_455 S
C801 C799 1.327 . S
C801 C817 1.429 1_455 S
C801 H823 0.950 . S
C802 H798 0.949 . S
C802 C810 1.574 . S
C802 C818 1.368 . S
H803 C811 0.950 . S
H804 C809 0.950 . S
H805 C810 0.949 . S
H806 C812 0.950 . S
H807 C813 0.950 . S
H808 C814 0.949 . S
C809 H804 0.950 . S
C809 C811 1.327 . S
C809 C815 1.429 . S
C810 C802 1.574 . S
C810 H805 0.949 . S
C810 C816 1.368 . S
C811 C795 1.349 . S
C811 H803 0.950 . S
C811 C809 1.327 . S
C812 C800 1.349 1_655 S
C812 H806 0.950 . S
C812 C813 1.327 . S
C813 H807 0.950 . S
C813 C812 1.327 . S
C813 C817 1.429 . S
C814 C797 1.574 . S
C814 H808 0.949 . S
C814 C818 1.368 . S
C815 C796 1.429 . S
C815 C809 1.429 . S
C815 C816 1.523 . S
C816 C797 1.368 . S
C816 C810 1.368 . S
C816 C815 1.523 . S
C817 C801 1.429 1_655 S
C817 C813 1.429 . S
C817 C818 1.523 . S
C818 C802 1.368 . S
C818 C814 1.368 . S
C818 C817 1.523 . S
H819 C794 0.950 . S
H820 C796 0.950 . S
H821 C797 0.949 . S
H822 C799 0.950 . S
H823 C801 0.950 . S
C824 C825 1.349 1_565 S
C824 C826 1.327 . S
C824 H849 0.950 . S
C825 C824 1.349 1_545 S
C825 C841 1.349 . S
C826 C824 1.327 . S
C826 C845 1.429 . S
C826 H850 0.950 . S
C827 C844 1.574 . S
C827 C846 1.368 . S
C827 H851 0.949 . S
H828 C832 0.949 . S
C829 C830 1.349 . S
C829 C831 1.327 . S
C829 H852 0.950 . S
C830 C829 1.349 . S
C830 C842 1.349 . S
C831 C829 1.327 . S
C831 C847 1.429 . S
C831 H853 0.950 . S
C832 H828 0.949 . S
C832 C840 1.574 . S
C832 C848 1.368 . S
H833 C841 0.950 . S
H834 C839 0.950 . S
H835 C840 0.949 . S
H836 C842 0.950 . S
H837 C843 0.950 . S
H838 C844 0.949 . S
C839 H834 0.950 . S
C839 C841 1.327 1_565 S
C839 C845 1.429 . S
C840 C832 1.574 . S
C840 H835 0.949 . S
C840 C846 1.368 . S
C841 C825 1.349 . S
C841 H833 0.950 . S
C841 C839 1.327 1_545 S
C842 C830 1.349 . S
C842 H836 0.950 . S
C842 C843 1.327 . S
C843 H837 0.950 . S
C843 C842 1.327 . S
C843 C847 1.429 . S
C844 C827 1.574 . S
C844 H838 0.949 . S
C844 C848 1.368 . S
C845 C826 1.429 . S
C845 C839 1.429 . S
C845 C846 1.523 . S
C846 C827 1.368 . S
C846 C840 1.368 . S
C846 C845 1.523 . S
C847 C831 1.429 . S
C847 C843 1.429 . S
C847 C848 1.523 . S
C848 C832 1.368 . S
C848 C844 1.368 . S
C848 C847 1.523 . S
H849 C824 0.950 . S
H850 C826 0.950 . S
H851 C827 0.949 . S
H852 C829 0.950 . S
H853 C831 0.950 . S
C854 C855 1.349 . S
C854 C856 1.327 . S
C854 H879 0.950 . S
C855 C854 1.349 . S
C855 C871 1.349 . S
C856 C854 1.327 . S
C856 C875 1.429 . S
C856 H880 0.950 . S
C857 C874 1.574 . S
C857 C876 1.368 . S
C857 H881 0.949 . S
H858 C862 0.949 . S
C859 C860 1.315 1_655 S
C859 C861 1.357 . S
C859 H882 0.955 . S
C860 C859 1.315 1_455 S
C860 C872 1.349 . S
C861 C859 1.357 . S
C861 C877 1.429 . S
C861 H883 0.950 . S
C862 H858 0.949 . S
C862 C870 1.574 . S
C862 C878 1.368 . S
H863 C871 0.950 . S
H864 C869 0.950 . S
H865 C870 0.949 . S
H866 C872 0.950 . S
H867 C873 0.950 . S
H868 C874 0.949 . S
C869 H864 0.950 . S
C869 C871 1.327 . S
C869 C875 1.429 . S
C870 C862 1.574 . S
C870 H865 0.949 . S
C870 C876 1.368 . S
C871 C855 1.349 . S
C871 H863 0.950 . S
C871 C869 1.327 . S
C872 C860 1.349 . S
C872 H866 0.950 . S
C872 C873 1.327 . S
C873 H867 0.950 . S
C873 C872 1.327 . S
C873 C877 1.429 1_455 S
C874 C857 1.574 . S
C874 H868 0.949 . S
C874 C878 1.368 . S
C875 C856 1.429 . S
C875 C869 1.429 . S
C875 C876 1.523 . S
C876 C857 1.368 . S
C876 C870 1.368 . S
C876 C875 1.523 . S
C877 C861 1.429 . S
C877 C873 1.429 1_655 S
C877 C878 1.523 . S
C878 C862 1.368 . S
C878 C874 1.368 . S
C878 C877 1.523 . S
H879 C854 0.950 . S
H880 C856 0.950 . S
H881 C857 0.949 . S
H882 C859 0.955 . S
H883 C861 0.950 . S
C884 C885 1.349 . S
C884 C886 1.327 . S
C884 H909 0.950 . S
C885 C884 1.349 . S
C885 C901 1.349 . S
C886 C884 1.327 . S
C886 C905 1.429 . S
C886 H910 0.950 . S
C887 C904 1.574 . S
C887 C906 1.368 . S
C887 H911 0.949 . S
H888 C892 0.949 . S
C889 C890 1.349 1_545 S
C889 C891 1.327 . S
C889 H912 0.950 1_545 S
C890 C889 1.349 1_565 S
C890 C902 1.349 1_565 S
C891 C889 1.327 . S
C891 C907 1.429 . S
C891 H913 0.950 . S
C892 H888 0.949 . S
C892 C900 1.574 . S
C892 C908 1.368 . S
H893 C901 0.950 . S
H894 C899 0.950 . S
H895 C900 0.949 . S
H896 C902 0.950 . S
H897 C903 0.950 . S
H898 C904 0.949 . S
C899 H894 0.950 . S
C899 C901 1.327 . S
C899 C905 1.429 . S
C900 C892 1.574 . S
C900 H895 0.949 . S
C900 C906 1.368 . S
C901 C885 1.349 . S
C901 H893 0.950 . S
C901 C899 1.327 . S
C902 C890 1.349 1_545 S
C902 H896 0.950 . S
C902 C903 1.327 . S
C903 H897 0.950 . S
C903 C902 1.327 . S
C903 C907 1.429 . S
C904 C887 1.574 . S
C904 H898 0.949 . S
C904 C908 1.368 . S
C905 C886 1.429 . S
C905 C899 1.429 . S
C905 C906 1.523 . S
C906 C887 1.368 . S
C906 C900 1.368 . S
C906 C905 1.523 . S
C907 C891 1.429 . S
C907 C903 1.429 . S
C907 C908 1.523 . S
C908 C892 1.368 . S
C908 C904 1.368 . S
C908 C907 1.523 . S
H909 C884 0.950 . S
H910 C886 0.950 . S
H911 C887 0.949 . S
H912 C889 0.950 1_565 S
H913 C891 0.950 . S
C914 C915 1.349 . S
C914 C916 1.327 . S
C914 H939 0.950 . S
C915 C914 1.349 . S
C915 C931 1.349 . S
C916 C914 1.327 . S
C916 C935 1.429 . S
C916 H940 0.950 . S
C917 C934 1.574 . S
C917 C936 1.368 . S
C917 H941 0.949 . S
H918 C922 0.949 . S
C919 C920 1.349 1_455 S
C919 C921 1.327 . S
C919 H942 0.950 . S
C920 C919 1.349 1_655 S
C920 C932 1.349 . S
C921 C919 1.327 . S
C921 C937 1.429 . S
C921 H943 0.950 . S
C922 H918 0.949 . S
C922 C930 1.574 . S
C922 C938 1.368 . S
H923 C931 0.950 . S
H924 C929 0.950 . S
H925 C930 0.949 . S
H926 C932 0.950 . S
H927 C933 0.950 . S
H928 C934 0.949 . S
C929 H924 0.950 . S
C929 C931 1.327 . S
C929 C935 1.429 . S
C930 C922 1.574 . S
C930 H925 0.949 . S
C930 C936 1.368 . S
C931 C915 1.349 . S
C931 H923 0.950 . S
C931 C929 1.327 . S
C932 C920 1.349 . S
C932 H926 0.950 . S
C932 C933 1.327 . S
C933 H927 0.950 . S
C933 C932 1.327 . S
C933 C937 1.429 1_655 S
C934 C917 1.574 . S
C934 H928 0.949 . S
C934 C938 1.368 . S
C935 C916 1.429 . S
C935 C929 1.429 . S
C935 C936 1.523 . S
C936 C917 1.368 . S
C936 C930 1.368 . S
C936 C935 1.523 . S
C937 C921 1.429 . S
C937 C933 1.429 1_455 S
C937 C938 1.523 . S
C938 C922 1.368 . S
C938 C934 1.368 . S
C938 C937 1.523 . S
H939 C914 0.950 . S
H940 C916 0.950 . S
H941 C917 0.949 . S
H942 C919 0.950 . S
H943 C921 0.950 . S
C944 C945 1.349 . S
C944 C946 1.327 . S
C944 H969 0.950 . S
C945 C944 1.349 . S
C945 C961 1.349 . S
C946 C944 1.327 . S
C946 C965 1.429 . S
C946 H970 0.950 . S
C947 C964 1.574 . S
C947 C966 1.368 . S
C947 H971 0.949 . S
H948 C952 0.949 . S
C949 C950 1.349 . S
C949 C951 1.327 . S
C949 H972 0.950 . S
C950 C949 1.349 . S
C950 C962 1.349 . S
C951 C949 1.327 . S
C951 C967 1.429 . S
C951 H973 0.950 . S
C952 H948 0.949 . S
C952 C960 1.574 . S
C952 C968 1.368 . S
H953 C961 0.950 . S
H954 C959 0.950 . S
H955 C960 0.949 . S
H956 C962 0.950 . S
H957 C963 0.950 . S
H958 C964 0.949 . S
C959 H954 0.950 . S
C959 C961 1.327 . S
C959 C965 1.429 . S
C960 C952 1.574 . S
C960 H955 0.949 . S
C960 C966 1.368 . S
C961 C945 1.349 . S
C961 H953 0.950 . S
C961 C959 1.327 . S
C962 C950 1.349 . S
C962 H956 0.950 . S
C962 C963 1.327 . S
C963 H957 0.950 . S
C963 C962 1.327 . S
C963 C967 1.429 . S
C964 C947 1.574 . S
C964 H958 0.949 . S
C964 C968 1.368 . S
C965 C946 1.429 . S
C965 C959 1.429 . S
C965 C966 1.523 . S
C966 C947 1.368 . S
C966 C960 1.368 . S
C966 C965 1.523 . S
C967 C951 1.429 . S
C967 C963 1.429 . S
C967 C968 1.523 . S
C968 C952 1.368 . S
C968 C964 1.368 . S
C968 C967 1.523 . S
H969 C944 0.950 . S
H970 C946 0.950 . S
H971 C947 0.949 . S
H972 C949 0.950 . S
H973 C951 0.950 . S
C974 C975 1.349 . S
C974 C976 1.327 . S
C974 H999 0.950 . S
C975 C974 1.349 . S
C975 C991 1.349 . S
C976 C974 1.327 . S
C976 C995 1.429 . S
C976 H1000 0.950 . S
C977 C994 1.574 . S
C977 C996 1.368 . S
C977 H1001 0.949 . S
H978 C982 0.949 . S
C979 C980 1.349 . S
C979 C981 1.327 . S
C979 H1002 0.950 . S
C980 C979 1.349 . S
C980 C992 1.349 . S
C981 C979 1.327 . S
C981 C997 1.429 . S
C981 H1003 0.950 . S
C982 H978 0.949 . S
C982 C990 1.574 . S
C982 C998 1.368 . S
H983 C991 0.950 . S
H984 C989 0.950 . S
H985 C990 0.949 . S
H986 C992 0.950 . S
H987 C993 0.950 . S
H988 C994 0.949 . S
C989 H984 0.950 . S
C989 C991 1.327 . S
C989 C995 1.429 . S
C990 C982 1.574 . S
C990 H985 0.949 . S
C990 C996 1.368 . S
C991 C975 1.349 . S
C991 H983 0.950 . S
C991 C989 1.327 . S
C992 C980 1.349 . S
C992 H986 0.950 . S
C992 C993 1.327 . S
C993 H987 0.950 . S
C993 C992 1.327 . S
C993 C997 1.429 . S
C994 C977 1.574 . S
C994 H988 0.949 . S
C994 C998 1.368 . S
C995 C976 1.429 . S
C995 C989 1.429 . S
C995 C996 1.523 . S
C996 C977 1.368 . S
C996 C990 1.368 . S
C996 C995 1.523 . S
C997 C981 1.429 . S
C997 C993 1.429 . S
C997 C998 1.523 . S
C998 C982 1.368 . S
C998 C994 1.368 . S
C998 C997 1.523 . S
H999 C974 0.950 . S
H1000 C976 0.950 . S
H1001 C977 0.949 . S
H1002 C979 0.950 . S
H1003 C981 0.950 . S
C1004 C1005 1.349 . S
C1004 C1006 1.327 . S
C1004 H1029 0.950 . S
C1005 C1004 1.349 . S
C1005 C1021 1.349 . S
C1006 C1004 1.327 . S
C1006 C1025 1.429 . S
C1006 H1030 0.950 . S
C1007 C1024 1.574 . S
C1007 C1026 1.368 . S
C1007 H1031 0.949 . S
H1008 C1012 0.949 . S
C1009 C1010 1.349 . S
C1009 C1011 1.327 . S
C1009 H1032 0.950 . S
C1010 C1009 1.349 . S
C1010 C1022 1.349 . S
C1011 C1009 1.327 . S
C1011 C1027 1.429 . S
C1011 H1033 0.950 . S
C1012 H1008 0.949 . S
C1012 C1020 1.574 . S
C1012 C1028 1.368 . S
H1013 C1021 0.950 . S
H1014 C1019 0.950 . S
H1015 C1020 0.949 . S
H1016 C1022 0.950 . S
H1017 C1023 0.950 . S
H1018 C1024 0.949 . S
C1019 H1014 0.950 . S
C1019 C1021 1.327 . S
C1019 C1025 1.429 . S
C1020 C1012 1.574 . S
C1020 H1015 0.949 . S
C1020 C1026 1.368 . S
C1021 C1005 1.349 . S
C1021 H1013 0.950 . S
C1021 C1019 1.327 . S
C1022 C1010 1.349 . S
C1022 H1016 0.950 . S
C1022 C1023 1.327 . S
C1023 H1017 0.950 . S
C1023 C1022 1.327 . S
C1023 C1027 1.429 . S
C1024 C1007 1.574 . S
C1024 H1018 0.949 . S
C1024 C1028 1.368 . S
C1025 C1006 1.429 . S
C1025 C1019 1.429 . S
C1025 C1026 1.523 . S
C1026 C1007 1.368 . S
C1026 C1020 1.368 . S
C1026 C1025 1.523 . S
C1027 C1011 1.429 . S
C1027 C1023 1.429 . S
C1027 C1028 1.523 . S
C1028 C1012 1.368 . S
C1028 C1024 1.368 . S
C1028 C1027 1.523 . S
H1029 C1004 0.950 . S
H1030 C1006 0.950 . S
H1031 C1007 0.949 . S
H1032 C1009 0.950 . S
H1033 C1011 0.950 . S
C1034 C1035 1.349 . S
C1034 C1036 1.327 . S
C1034 H1059 0.950 . S
C1035 C1034 1.349 . S
C1035 C1051 1.349 . S
C1036 C1034 1.327 . S
C1036 C1055 1.429 . S
C1036 H1060 0.950 . S
C1037 C1054 1.574 . S
C1037 C1056 1.368 . S
C1037 H1061 0.949 . S
H1038 C1042 0.949 . S
C1039 C1040 1.349 . S
C1039 C1041 1.327 . S
C1039 H1062 0.950 . S
C1040 C1039 1.349 . S
C1040 C1052 1.349 . S
C1041 C1039 1.327 . S
C1041 C1057 1.429 . S
C1041 H1063 0.950 . S
C1042 H1038 0.949 . S
C1042 C1050 1.574 . S
C1042 C1058 1.368 . S
H1043 C1051 0.950 . S
H1044 C1049 0.950 . S
H1045 C1050 0.949 . S
H1046 C1052 0.950 . S
H1047 C1053 0.950 . S
H1048 C1054 0.949 . S
C1049 H1044 0.950 . S
C1049 C1051 1.327 . S
C1049 C1055 1.429 . S
C1050 C1042 1.574 . S
C1050 H1045 0.949 . S
C1050 C1056 1.368 . S
C1051 C1035 1.349 . S
C1051 H1043 0.950 . S
C1051 C1049 1.327 . S
C1052 C1040 1.349 . S
C1052 H1046 0.950 . S
C1052 C1053 1.327 . S
C1053 H1047 0.950 . S
C1053 C1052 1.327 . S
C1053 C1057 1.429 . S
C1054 C1037 1.574 . S
C1054 H1048 0.949 . S
C1054 C1058 1.368 . S
C1055 C1036 1.429 . S
C1055 C1049 1.429 . S
C1055 C1056 1.523 . S
C1056 C1037 1.368 . S
C1056 C1050 1.368 . S
C1056 C1055 1.523 . S
C1057 C1041 1.429 . S
C1057 C1053 1.429 . S
C1057 C1058 1.523 . S
C1058 C1042 1.368 . S
C1058 C1054 1.368 . S
C1058 C1057 1.523 . S
H1059 C1034 0.950 . S
H1060 C1036 0.950 . S
H1061 C1037 0.949 . S
H1062 C1039 0.950 . S
H1063 C1041 0.950 . S
C1064 C1065 1.349 . S
C1064 C1066 1.327 . S
C1064 H1089 0.950 . S
C1065 C1064 1.349 . S
C1065 C1081 1.349 . S
C1066 C1064 1.327 . S
C1066 C1085 1.429 . S
C1066 H1090 0.950 . S
C1067 C1084 1.574 1_554 S
C1067 C1086 1.368 1_565 S
C1067 H1091 0.949 . S
H1068 C1072 0.949 . S
C1069 C1070 1.349 . S
C1069 C1071 1.327 . S
C1069 H1092 0.950 . S
C1070 C1069 1.349 . S
C1070 C1082 1.349 . S
C1071 C1069 1.327 . S
C1071 C1087 1.429 . S
C1071 H1093 0.950 . S
C1072 H1068 0.949 . S
C1072 C1080 1.574 1_556 S
C1072 C1088 1.368 1_545 S
H1073 C1081 0.950 . S
H1074 C1079 0.950 1_565 S
H1075 C1080 0.949 . S
H1076 C1082 0.950 . S
H1077 C1083 0.950 1_545 S
H1078 C1084 0.949 . S
C1079 H1074 0.950 1_545 S
C1079 C1081 1.327 . S
C1079 C1085 1.429 . S
C1080 C1072 1.574 1_554 S
C1080 H1075 0.949 . S
C1080 C1086 1.368 . S
C1081 C1065 1.349 . S
C1081 H1073 0.950 . S
C1081 C1079 1.327 . S
C1082 C1070 1.349 . S
C1082 H1076 0.950 . S
C1082 C1083 1.327 . S
C1083 H1077 0.950 1_565 S
C1083 C1082 1.327 . S
C1083 C1087 1.429 . S
C1084 C1067 1.574 1_556 S
C1084 H1078 0.949 . S
C1084 C1088 1.368 . S
C1085 C1066 1.429 . S
C1085 C1079 1.429 . S
C1085 C1086 1.523 . S
C1086 C1067 1.368 1_545 S
C1086 C1080 1.368 . S
C1086 C1085 1.523 . S
C1087 C1071 1.429 . S
C1087 C1083 1.429 . S
C1087 C1088 1.523 . S
C1088 C1072 1.368 1_565 S
C1088 C1084 1.368 . S
C1088 C1087 1.523 . S
H1089 C1064 0.950 . S
H1090 C1066 0.950 . S
H1091 C1067 0.949 . S
H1092 C1069 0.950 . S
H1093 C1071 0.950 . S
C1094 C1095 1.349 . S
C1094 C1096 1.327 . S
C1094 H1119 0.950 . S
C1095 C1094 1.349 . S
C1095 C1111 1.349 . S
C1096 C1094 1.327 . S
C1096 C1115 1.429 . S
C1096 H1120 0.950 . S
C1097 C1114 1.574 1_556 S
C1097 C1116 1.368 1_655 S
C1097 H1121 0.949 . S
H1098 C1102 0.949 . S
C1099 C1100 1.349 . S
C1099 C1101 1.327 . S
C1099 H1122 0.950 . S
C1100 C1099 1.349 . S
C1100 C1112 1.349 . S
C1101 C1099 1.327 . S
C1101 C1117 1.429 . S
C1101 H1123 0.950 . S
C1102 H1098 0.949 . S
C1102 C1110 1.574 1_554 S
C1102 C1118 1.368 1_455 S
H1103 C1111 0.950 . S
H1104 C1109 0.950 . S
H1105 C1110 0.949 . S
H1106 C1112 0.950 . S
H1107 C1113 0.950 . S
H1108 C1114 0.949 . S
C1109 H1104 0.950 . S
C1109 C1111 1.327 . S
C1109 C1115 1.429 . S
C1110 C1102 1.574 1_556 S
C1110 H1105 0.949 . S
C1110 C1116 1.368 . S
C1111 C1095 1.349 . S
C1111 H1103 0.950 . S
C1111 C1109 1.327 . S
C1112 C1100 1.349 . S
C1112 H1106 0.950 . S
C1112 C1113 1.327 . S
C1113 H1107 0.950 . S
C1113 C1112 1.327 . S
C1113 C1117 1.429 . S
C1114 C1097 1.574 1_554 S
C1114 H1108 0.949 . S
C1114 C1118 1.368 . S
C1115 C1096 1.429 . S
C1115 C1109 1.429 . S
C1115 C1116 1.523 . S
C1116 C1097 1.368 1_455 S
C1116 C1110 1.368 . S
C1116 C1115 1.523 . S
C1117 C1101 1.429 . S
C1117 C1113 1.429 . S
C1117 C1118 1.523 . S
C1118 C1102 1.368 1_655 S
C1118 C1114 1.368 . S
C1118 C1117 1.523 . S
H1119 C1094 0.950 . S
H1120 C1096 0.950 . S
H1121 C1097 0.949 . S
H1122 C1099 0.950 . S
H1123 C1101 0.950 . S
C1124 C1125 1.349 . S
C1124 C1126 1.327 . S
C1124 H1149 0.950 . S
C1125 C1124 1.349 . S
C1125 C1141 1.349 . S
C1126 C1124 1.327 . S
C1126 C1145 1.429 . S
C1126 H1150 0.950 . S
C1127 C1144 1.574 1_556 S
C1127 C1146 1.368 1_565 S
C1127 H1151 0.949 . S
H1128 C1132 0.949 . S
C1129 C1130 1.349 . S
C1129 C1131 1.327 . S
C1129 H1152 0.950 . S
C1130 C1129 1.349 . S
C1130 C1142 1.349 . S
C1131 C1129 1.327 . S
C1131 C1147 1.429 . S
C1131 H1153 0.950 . S
C1132 H1128 0.949 . S
C1132 C1140 1.574 1_554 S
C1132 C1148 1.368 1_545 S
H1133 C1141 0.950 . S
H1134 C1139 0.950 1_565 S
H1135 C1140 0.949 . S
H1136 C1142 0.950 . S
H1137 C1143 0.950 1_545 S
H1138 C1144 0.949 . S
C1139 H1134 0.950 1_545 S
C1139 C1141 1.327 . S
C1139 C1145 1.429 . S
C1140 C1132 1.574 1_556 S
C1140 H1135 0.949 . S
C1140 C1146 1.368 . S
C1141 C1125 1.349 . S
C1141 H1133 0.950 . S
C1141 C1139 1.327 . S
C1142 C1130 1.349 . S
C1142 H1136 0.950 . S
C1142 C1143 1.327 . S
C1143 H1137 0.950 1_565 S
C1143 C1142 1.327 . S
C1143 C1147 1.429 . S
C1144 C1127 1.574 1_554 S
C1144 H1138 0.949 . S
C1144 C1148 1.368 . S
C1145 C1126 1.429 . S
C1145 C1139 1.429 . S
C1145 C1146 1.523 . S
C1146 C1127 1.368 1_545 S
C1146 C1140 1.368 . S
C1146 C1145 1.523 . S
C1147 C1131 1.429 . S
C1147 C1143 1.429 . S
C1147 C1148 1.523 . S
C1148 C1132 1.368 1_565 S
C1148 C1144 1.368 . S
C1148 C1147 1.523 . S
H1149 C1124 0.950 . S
H1150 C1126 0.950 . S
H1151 C1127 0.949 . S
H1152 C1129 0.950 . S
H1153 C1131 0.950 . S
C1154 C1155 1.349 . S
C1154 C1156 1.327 . S
C1154 H1179 0.950 . S
C1155 C1154 1.349 . S
C1155 C1171 1.349 . S
C1156 C1154 1.327 . S
C1156 C1175 1.429 . S
C1156 H1180 0.950 . S
C1157 C1174 1.574 1_556 S
C1157 C1176 1.368 1_455 S
C1157 H1181 0.949 . S
H1158 C1162 0.949 . S
C1159 C1160 1.349 . S
C1159 C1161 1.327 . S
C1159 H1182 0.950 . S
C1160 C1159 1.349 . S
C1160 C1172 1.349 . S
C1161 C1159 1.327 . S
C1161 C1177 1.429 . S
C1161 H1183 0.950 . S
C1162 H1158 0.949 . S
C1162 C1170 1.574 1_554 S
C1162 C1178 1.368 1_655 S
H1163 C1171 0.950 . S
H1164 C1169 0.950 . S
H1165 C1170 0.949 . S
H1166 C1172 0.950 . S
H1167 C1173 0.950 . S
H1168 C1174 0.949 . S
C1169 H1164 0.950 . S
C1169 C1171 1.327 . S
C1169 C1175 1.429 . S
C1170 C1162 1.574 1_556 S
C1170 H1165 0.949 . S
C1170 C1176 1.368 . S
C1171 C1155 1.349 . S
C1171 H1163 0.950 . S
C1171 C1169 1.327 . S
C1172 C1160 1.349 . S
C1172 H1166 0.950 . S
C1172 C1173 1.327 . S
C1173 H1167 0.950 . S
C1173 C1172 1.327 . S
C1173 C1177 1.429 . S
C1174 C1157 1.574 1_554 S
C1174 H1168 0.949 . S
C1174 C1178 1.368 . S
C1175 C1156 1.429 . S
C1175 C1169 1.429 . S
C1175 C1176 1.523 . S
C1176 C1157 1.368 1_655 S
C1176 C1170 1.368 . S
C1176 C1175 1.523 . S
C1177 C1161 1.429 . S
C1177 C1173 1.429 . S
C1177 C1178 1.523 . S
C1178 C1162 1.368 1_455 S
C1178 C1174 1.368 . S
C1178 C1177 1.523 . S
H1179 C1154 0.950 . S
H1180 C1156 0.950 . S
H1181 C1157 0.949 . S
H1182 C1159 0.950 . S
H1183 C1161 0.950 . S
C225 C11 1.201 . S
C230 C103 1.146 . S
C255 C19 1.146 . S
C260 C67 1.201 . S
C285 C75 1.146 . S
C290 C39 1.201 . S
C315 C47 1.146 . S
C320 C95 1.201 . S
C345 C123 1.201 . S
C350 C215 1.146 . S
C375 C179 1.201 . S
C380 C131 1.146 . S
C405 C187 1.146 . S
C410 C151 1.201 . S
C435 C207 1.201 . S
C440 C159 1.146 . S
C465 C4 1.144 . S
C470 C158 1.126 . S
C495 C26 0.847 . S
C500 C117 0.807 . S
C525 C130 1.126 . S
C530 C32 1.144 . S
C555 C54 0.847 . S
C560 C145 0.807 . S
C585 C60 1.144 . S
C590 C186 1.126 . S
C615 C201 0.807 . S
C620 C82 0.847 . S
C645 C88 1.144 . S
C650 C214 1.126 . S
C675 C173 0.807 . S
C680 C110 0.847 . S
C705 C116 1.144 . S
C710 C46 1.126 . S
C735 C5 0.807 . S
C740 C138 0.847 . S
C765 C144 1.144 . S
C770 C18 1.126 . S
C795 C33 0.807 . S
C800 C166 0.847 . S
C825 C172 1.144 . S
C830 C74 1.126 . S
C855 C89 0.807 . S
C860 C194 0.847 . S
C885 C102 1.126 . S
C890 C200 1.144 . S
C915 C61 0.807 . S
C920 C222 0.847 . S
C945 C68 1.407 . S
C950 C12 1.407 . S
C975 C81 1.733 . S
C980 C25 1.733 . S
C1005 C40 1.407 . S
C1010 C96 1.407 . S
C1035 C109 1.733 . S
C1040 C53 1.733 . S
C1065 C180 1.407 . S
C1070 C124 1.407 . S
C1095 C193 1.733 . S
C1100 C137 1.733 . S
C1125 C152 1.407 . S
C1130 C208 1.407 . S
C1155 C221 1.733 . S
C1160 C165 1.733 . S
