# Generated by pormake.
# Topology wll, (5)-cn, num edge types: 1
# Building blocks:
#     Node 0, Type 0, BuildingBlock: BEQFEK_clean_sbu_0, # of connection points: 5
#     Node 1, Type 0, BuildingBlock: BEQFEK_clean_sbu_0, # of connection points: 5
#     Node 2, Type 0, BuildingBlock: BEQFEK_clean_sbu_0, # of connection points: 5
#     Node 3, Type 0, BuildingBlock: BEQFEK_clean_sbu_0, # of connection points: 5
#     Node 4, Type 0, BuildingBlock: BEQFEK_clean_sbu_0, # of connection points: 5
#     Node 5, Type 0, BuildingBlock: BEQFEK_clean_sbu_0, # of connection points: 5
#     Node 6, Type 0, BuildingBlock: BEQFEK_clean_sbu_0, # of connection points: 5
#     Node 7, Type 0, BuildingBlock: BEQFEK_clean_sbu_0, # of connection points: 5
#     Node 8, Type 0, BuildingBlock: BEQFEK_clean_sbu_0, # of connection points: 5
#     Node 9, Type 0, BuildingBlock: BEQFEK_clean_sbu_0, # of connection points: 5
#     Node 10, Type 0, BuildingBlock: BEQFEK_clean_sbu_0, # of connection points: 5
#     Node 11, Type 0, BuildingBlock: BEQFEK_clean_sbu_0, # of connection points: 5
#     Node 12, Type 0, BuildingBlock: BEQFEK_clean_sbu_0, # of connection points: 5
#     Node 13, Type 0, BuildingBlock: BEQFEK_clean_sbu_0, # of connection points: 5
#     Node 14, Type 0, BuildingBlock: BEQFEK_clean_sbu_0, # of connection points: 5
#     Node 15, Type 0, BuildingBlock: BEQFEK_clean_sbu_0, # of connection points: 5
#     Node 16, Type 0, BuildingBlock: BEQFEK_clean_sbu_0, # of connection points: 5
#     Node 17, Type 0, BuildingBlock: BEQFEK_clean_sbu_0, # of connection points: 5
#     Edge 18, Type (0, 0), BuildingBlock: CIFDUS_clean_linker_0, # of connection points: 2
#     Edge 19, Type (0, 0), BuildingBlock: CIFDUS_clean_linker_0, # of connection points: 2
#     Edge 20, Type (0, 0), BuildingBlock: CIFDUS_clean_linker_0, # of connection points: 2
#     Edge 21, Type (0, 0), BuildingBlock: CIFDUS_clean_linker_0, # of connection points: 2
#     Edge 22, Type (0, 0), BuildingBlock: CIFDUS_clean_linker_0, # of connection points: 2
#     Edge 23, Type (0, 0), BuildingBlock: CIFDUS_clean_linker_0, # of connection points: 2
#     Edge 24, Type (0, 0), BuildingBlock: CIFDUS_clean_linker_0, # of connection points: 2
#     Edge 25, Type (0, 0), BuildingBlock: CIFDUS_clean_linker_0, # of connection points: 2
#     Edge 26, Type (0, 0), BuildingBlock: CIFDUS_clean_linker_0, # of connection points: 2
#     Edge 27, Type (0, 0), BuildingBlock: CIFDUS_clean_linker_0, # of connection points: 2
#     Edge 28, Type (0, 0), BuildingBlock: CIFDUS_clean_linker_0, # of connection points: 2
#     Edge 29, Type (0, 0), BuildingBlock: CIFDUS_clean_linker_0, # of connection points: 2
#     Edge 30, Type (0, 0), BuildingBlock: CIFDUS_clean_linker_0, # of connection points: 2
#     Edge 31, Type (0, 0), BuildingBlock: CIFDUS_clean_linker_0, # of connection points: 2
#     Edge 32, Type (0, 0), BuildingBlock: CIFDUS_clean_linker_0, # of connection points: 2
#     Edge 33, Type (0, 0), BuildingBlock: CIFDUS_clean_linker_0, # of connection points: 2
#     Edge 34, Type (0, 0), BuildingBlock: CIFDUS_clean_linker_0, # of connection points: 2
#     Edge 35, Type (0, 0), BuildingBlock: CIFDUS_clean_linker_0, # of connection points: 2
#     Edge 36, Type (0, 0), BuildingBlock: CIFDUS_clean_linker_0, # of connection points: 2
#     Edge 37, Type (0, 0), BuildingBlock: CIFDUS_clean_linker_0, # of connection points: 2
#     Edge 38, Type (0, 0), BuildingBlock: CIFDUS_clean_linker_0, # of connection points: 2
#     Edge 39, Type (0, 0), BuildingBlock: CIFDUS_clean_linker_0, # of connection points: 2
#     Edge 40, Type (0, 0), BuildingBlock: CIFDUS_clean_linker_0, # of connection points: 2
#     Edge 41, Type (0, 0), BuildingBlock: CIFDUS_clean_linker_0, # of connection points: 2
#     Edge 42, Type (0, 0), BuildingBlock: CIFDUS_clean_linker_0, # of connection points: 2
#     Edge 43, Type (0, 0), BuildingBlock: CIFDUS_clean_linker_0, # of connection points: 2
#     Edge 44, Type (0, 0), BuildingBlock: CIFDUS_clean_linker_0, # of connection points: 2
#     Edge 45, Type (0, 0), BuildingBlock: CIFDUS_clean_linker_0, # of connection points: 2
#     Edge 46, Type (0, 0), BuildingBlock: CIFDUS_clean_linker_0, # of connection points: 2
#     Edge 47, Type (0, 0), BuildingBlock: CIFDUS_clean_linker_0, # of connection points: 2
#     Edge 48, Type (0, 0), BuildingBlock: CIFDUS_clean_linker_0, # of connection points: 2
#     Edge 49, Type (0, 0), BuildingBlock: CIFDUS_clean_linker_0, # of connection points: 2
#     Edge 50, Type (0, 0), BuildingBlock: CIFDUS_clean_linker_0, # of connection points: 2
#     Edge 51, Type (0, 0), BuildingBlock: CIFDUS_clean_linker_0, # of connection points: 2
#     Edge 52, Type (0, 0), BuildingBlock: CIFDUS_clean_linker_0, # of connection points: 2
#     Edge 53, Type (0, 0), BuildingBlock: CIFDUS_clean_linker_0, # of connection points: 2
#     Edge 54, Type (0, 0), BuildingBlock: CIFDUS_clean_linker_0, # of connection points: 2
#     Edge 55, Type (0, 0), BuildingBlock: CIFDUS_clean_linker_0, # of connection points: 2
#     Edge 56, Type (0, 0), BuildingBlock: CIFDUS_clean_linker_0, # of connection points: 2
#     Edge 57, Type (0, 0), BuildingBlock: CIFDUS_clean_linker_0, # of connection points: 2
#     Edge 58, Type (0, 0), BuildingBlock: CIFDUS_clean_linker_0, # of connection points: 2
#     Edge 59, Type (0, 0), BuildingBlock: CIFDUS_clean_linker_0, # of connection points: 2
#     Edge 60, Type (0, 0), BuildingBlock: CIFDUS_clean_linker_0, # of connection points: 2
#     Edge 61, Type (0, 0), BuildingBlock: CIFDUS_clean_linker_0, # of connection points: 2
#     Edge 62, Type (0, 0), BuildingBlock: CIFDUS_clean_linker_0, # of connection points: 2
# Relax obj value: 0.201
# Max RMSD: 0.163
# Mean RMSD: 0.161
data_MOF--net-wll--node1-BEQFEK_clean_sbu_0--edge1-CIFDUS_clean_linker_0
_symmetry_space_group_name_H-M    P1
_symmetry_Int_Tables_number       1
_symmetry_cell_setting            triclinic
loop_
_symmetry_equiv_pos_as_xyz
'x, y, z'
_cell_length_a     35.370753
_cell_length_b     35.566741
_cell_length_c     59.680168
_cell_angle_alpha  90.035854
_cell_angle_beta   89.7443
_cell_angle_gamma 120.06706
loop_
_atom_site_label
_atom_site_type_symbol
_atom_site_fract_x
_atom_site_fract_y
_atom_site_fract_z
_atom_type_partial_charge
Co0 Co 0.29651 0.31572 0.12727 0.0
Co1 Co 0.34587 0.30473 0.08618 0.0
C2 C 0.32105 0.2468 0.12679 0.0
O3 O 0.3032 0.26601 0.13628 0.0
O4 O 0.33796 0.25811 0.10736 0.0
C5 C 0.23166 0.28975 0.16189 0.0
O6 O 0.23035 0.25234 0.15991 0.0
C7 C 0.34381 0.25367 0.04838 0.0
C8 C 0.40144 0.29818 0.02805 0.0
C9 C 0.36578 0.25639 0.02867 0.0
N10 N 0.36494 0.29217 0.0588 0.0
N11 N 0.39955 0.31872 0.04668 0.0
C12 C 0.30485 0.21461 0.05817 0.0
H13 H 0.3164 0.19853 0.07002 0.0
H14 H 0.28446 0.22465 0.06778 0.0
H15 H 0.28486 0.19065 0.0452 0.0
C16 C 0.2378 0.31243 0.09104 0.0
N17 N 0.27194 0.30894 0.09837 0.0
N18 N 0.29354 0.30626 0.08102 0.0
C19 C 0.27433 0.30897 0.06207 0.0
C20 C 0.23825 0.3126 0.06779 0.0
C21 C 0.20811 0.31984 0.106 0.0
H22 H 0.22773 0.34986 0.1159 0.0
H23 H 0.19163 0.29233 0.11794 0.0
H24 H 0.18312 0.32296 0.0963 0.0
O25 O 0.35567 0.36824 0.12784 0.0
O26 O 0.39123 0.36109 0.09872 0.0
H27 H 0.32733 0.33224 0.03849 0.0
H28 H 0.27612 0.32158 0.02639 0.0
C29 C 0.29142 0.31037 0.0389 0.0
H30 H 0.28398 0.27727 0.03408 0.0
H31 H 0.42162 0.35083 0.05103 0.0
O32 O 0.25817 0.32165 0.14975 0.0
C33 C 0.39011 0.38211 0.11583 0.0
Co34 Co 0.6803 0.9749 0.13041 0.0
Co35 Co 0.69539 0.04423 0.09329 0.0
C36 C 0.74975 0.0678 0.13528 0.0
O37 O 0.72937 0.02877 0.14209 0.0
O38 O 0.74031 0.07834 0.11664 0.0
C39 C 0.70621 0.93198 0.16145 0.0
O40 O 0.74428 0.96706 0.15812 0.0
C41 C 0.75063 0.09338 0.05585 0.0
C42 C 0.71331 0.1186 0.03816 0.0
C43 C 0.75164 0.1169 0.03707 0.0
N44 N 0.71321 0.08093 0.06718 0.0
N45 N 0.69111 0.0964 0.05661 0.0
C46 C 0.78519 0.08365 0.0634 0.0
H47 H 0.78284 0.07766 0.0817 0.0
H48 H 0.78057 0.05388 0.05495 0.0
H49 H 0.81818 0.11086 0.05904 0.0
C50 C 0.68264 0.92614 0.09111 0.0
N51 N 0.68916 0.96327 0.10066 0.0
N52 N 0.69223 0.99059 0.08494 0.0
C53 C 0.68617 0.97088 0.06483 0.0
C54 C 0.68071 0.92977 0.06807 0.0
C55 C 0.67186 0.88586 0.10397 0.0
H56 H 0.69829 0.89322 0.11614 0.0
H57 H 0.66786 0.85925 0.09273 0.0
H58 H 0.64118 0.87506 0.11359 0.0
O59 O 0.62763 0.9811 0.1316 0.0
O60 O 0.63731 0.03117 0.10606 0.0
H61 H 0.6608 0.96206 0.03105 0.0
H62 H 0.71175 0.01074 0.03561 0.0
C63 C 0.67956 0.98837 0.04327 0.0
H64 H 0.66208 0.00645 0.04644 0.0
H65 H 0.66066 0.09127 0.06178 0.0
O66 O 0.67304 0.92745 0.15084 0.0
C67 C 0.61462 0.00432 0.12161 0.0
Co68 Co 0.01568 0.70706 0.12671 0.0
Co69 Co 0.95296 0.65217 0.08758 0.0
C70 C 0.92377 0.68469 0.12802 0.0
O71 O 0.96174 0.70619 0.13653 0.0
O72 O 0.91752 0.66363 0.10982 0.0
C73 C 0.06587 0.76218 0.16483 0.0
O74 O 0.02883 0.75617 0.17321 0.0
C75 C 0.90678 0.65609 0.04866 0.0
C76 C 0.88404 0.59316 0.03178 0.0
C77 C 0.88503 0.63251 0.0298 0.0
N78 N 0.91897 0.63235 0.06092 0.0
N79 N 0.90508 0.59458 0.05085 0.0
C80 C 0.91503 0.70014 0.05544 0.0
H81 H 0.91987 0.70465 0.07378 0.0
H82 H 0.94522 0.72547 0.04713 0.0
H83 H 0.88746 0.70469 0.0503 0.0
C84 C 0.07111 0.75657 0.08816 0.0
N85 N 0.03232 0.72627 0.09677 0.0
N86 N 0.00738 0.70167 0.08043 0.0
C87 C 0.03004 0.71454 0.06101 0.0
C88 C 0.07101 0.74998 0.06525 0.0
C89 C 0.10962 0.78689 0.102 0.0
H90 H 0.12225 0.76799 0.1108 0.0
H91 H 0.09943 0.80277 0.11477 0.0
H92 H 0.13621 0.81211 0.09151 0.0
O93 O 0.00387 0.64666 0.12978 0.0
O94 O 0.96364 0.60736 0.10084 0.0
H95 H 0.99708 0.65502 0.04238 0.0
H96 H 0.0418 0.69918 0.02736 0.0
C97 C 0.01454 0.69054 0.03928 0.0
H98 H 0.99164 0.69908 0.03127 0.0
H99 H 0.9104 0.57006 0.05683 0.0
O100 O 0.06578 0.74412 0.14643 0.0
C101 C 0.98434 0.61107 0.11891 0.0
Co102 Co 0.69686 0.67885 0.87756 0.0
Co103 Co 0.64917 0.69426 0.91856 0.0
C104 C 0.67713 0.75088 0.87712 0.0
O105 O 0.69412 0.73062 0.86788 0.0
O106 O 0.65951 0.73997 0.89642 0.0
C107 C 0.7501 0.69173 0.83797 0.0
O108 O 0.73937 0.72098 0.83267 0.0
C109 C 0.65814 0.74824 0.95708 0.0
C110 C 0.59566 0.71088 0.97529 0.0
C111 C 0.63575 0.74902 0.97607 0.0
N112 N 0.63291 0.71116 0.94584 0.0
N113 N 0.59548 0.68898 0.95677 0.0
C114 C 0.70203 0.78307 0.949 0.0
H115 H 0.70603 0.7796 0.93083 0.0
H116 H 0.728 0.78037 0.95791 0.0
H117 H 0.7064 0.81568 0.95249 0.0
C118 C 0.75146 0.6769 0.91434 0.0
N119 N 0.72044 0.68502 0.90667 0.0
N120 N 0.69917 0.68897 0.92382 0.0
C121 C 0.71514 0.68215 0.94291 0.0
C122 C 0.74914 0.67494 0.93753 0.0
C123 C 0.77866 0.66548 0.8997 0.0
H124 H 0.75706 0.63463 0.89082 0.0
H125 H 0.79575 0.69126 0.8869 0.0
H126 H 0.80306 0.66168 0.90959 0.0
O127 O 0.63609 0.62827 0.87757 0.0
O128 O 0.60173 0.6383 0.90645 0.0
H129 H 0.65849 0.65948 0.96405 0.0
H130 H 0.70391 0.65838 0.97715 0.0
C131 C 0.69456 0.67669 0.96557 0.0
H132 H 0.70569 0.70908 0.97302 0.0
H133 H 0.56986 0.65894 0.95161 0.0
O134 O 0.73439 0.66934 0.85576 0.0
C135 C 0.60186 0.61612 0.88961 0.0
Co136 Co 0.32146 0.01722 0.88191 0.0
Co137 Co 0.31469 0.95434 0.92052 0.0
C138 C 0.25259 0.92558 0.88062 0.0
O139 O 0.26936 0.96316 0.87178 0.0
O140 O 0.26757 0.91948 0.89876 0.0
C141 C 0.31743 0.06543 0.84314 0.0
O142 O 0.29062 0.02774 0.83397 0.0
C143 C 0.26301 0.90876 0.95909 0.0
C144 C 0.29986 0.88186 0.97579 0.0
C145 C 0.26249 0.88513 0.97763 0.0
N146 N 0.2993 0.91982 0.94708 0.0
N147 N 0.32125 0.90352 0.95705 0.0
C148 C 0.2286 0.91926 0.95227 0.0
H149 H 0.23122 0.92721 0.93419 0.0
H150 H 0.23288 0.94796 0.96173 0.0
H151 H 0.19557 0.89158 0.95612 0.0
C152 C 0.32247 0.06958 0.92043 0.0
N153 N 0.31683 0.03216 0.91171 0.0
N154 N 0.31824 0.00789 0.92791 0.0
C155 C 0.32651 0.02982 0.9474 0.0
C156 C 0.32895 0.06938 0.9433 0.0
C157 C 0.32786 0.10718 0.90672 0.0
H158 H 0.36003 0.12231 0.89809 0.0
H159 H 0.30198 0.09556 0.89379 0.0
H160 H 0.32639 0.13212 0.91726 0.0
O161 O 0.37301 0.00968 0.87949 0.0
O162 O 0.37074 0.96571 0.90674 0.0
H163 H 0.35289 0.99641 0.9659 0.0
H164 H 0.35603 0.04258 0.98035 0.0
C165 C 0.33587 0.01494 0.9691 0.0
H166 H 0.30469 0.99353 0.97791 0.0
H167 H 0.35079 0.90733 0.95117 0.0
O168 O 0.33292 0.06665 0.86245 0.0
C169 C 0.38937 0.98965 0.88964 0.0
Co170 Co 0.98529 0.2901 0.88137 0.0
Co171 Co 0.04892 0.34945 0.91922 0.0
C172 C 0.07983 0.3173 0.88012 0.0
O173 O 0.0417 0.29577 0.8719 0.0
O174 O 0.08646 0.33853 0.89825 0.0
C175 C 0.94675 0.23744 0.84199 0.0
O176 O 0.98742 0.2549 0.83508 0.0
C177 C 0.10054 0.35572 0.95831 0.0
C178 C 0.1225 0.42157 0.97132 0.0
C179 C 0.12504 0.38443 0.97514 0.0
N180 N 0.08372 0.37462 0.94537 0.0
N181 N 0.0969 0.41401 0.95324 0.0
C182 C 0.09553 0.31209 0.9536 0.0
H183 H 0.08212 0.30073 0.9366 0.0
H184 H 0.07271 0.2881 0.96595 0.0
H185 H 0.12752 0.31361 0.95526 0.0
C186 C 0.93263 0.24163 0.921 0.0
N187 N 0.97044 0.27236 0.91169 0.0
N188 N 0.99593 0.29836 0.92752 0.0
C189 C 0.97458 0.28564 0.94733 0.0
C190 C 0.93398 0.24899 0.94392 0.0
C191 C 0.89379 0.20994 0.90778 0.0
H192 H 0.88157 0.22793 0.89778 0.0
H193 H 0.90367 0.19236 0.89591 0.0
H194 H 0.86716 0.18625 0.91882 0.0
O195 O 0.98984 0.34762 0.8774 0.0
O196 O 0.03455 0.39072 0.90404 0.0
H197 H 0.00569 0.34619 0.96513 0.0
H198 H 0.96397 0.30119 0.98114 0.0
C199 C 0.9906 0.31094 0.96866 0.0
H200 H 0.01567 0.30493 0.97615 0.0
H201 H 0.08893 0.43591 0.9461 0.0
O202 O 0.93872 0.24801 0.86106 0.0
C203 C 0.01004 0.38448 0.88713 0.0
Co204 Co 0.94998 0.63837 0.46036 0.0
Co205 Co 0.00603 0.63364 0.42051 0.0
C206 C 0.98183 0.57474 0.46062 0.0
O207 O 0.96083 0.59129 0.46963 0.0
O208 O 0.99985 0.58732 0.44147 0.0
C209 C 0.88913 0.61599 0.49767 0.0
O210 O 0.89542 0.58304 0.50102 0.0
C211 C 0.01868 0.58937 0.38276 0.0
C212 C 0.06312 0.64328 0.36051 0.0
C213 C 0.03867 0.5984 0.36192 0.0
N214 N 0.03065 0.62711 0.39325 0.0
N215 N 0.05792 0.65927 0.38005 0.0
C216 C 0.98438 0.54598 0.39143 0.0
H217 H 0.96112 0.54967 0.40247 0.0
H218 H 0.96639 0.52355 0.37746 0.0
H219 H 0.00037 0.53158 0.40141 0.0
C220 C 0.89327 0.63301 0.42303 0.0
N221 N 0.92781 0.63104 0.43102 0.0
N222 N 0.95164 0.63051 0.41417 0.0
C223 C 0.9331 0.63264 0.39484 0.0
C224 C 0.89557 0.63425 0.39983 0.0
C225 C 0.86204 0.63918 0.43742 0.0
H226 H 0.88028 0.67003 0.44686 0.0
H227 H 0.84666 0.61228 0.44978 0.0
H228 H 0.83623 0.64012 0.42736 0.0
O229 O 0.00584 0.69337 0.46224 0.0
O230 O 0.04702 0.69032 0.43476 0.0
H231 H 0.98545 0.66475 0.37127 0.0
H232 H 0.93186 0.63837 0.35869 0.0
C233 C 0.95223 0.63586 0.37202 0.0
H234 H 0.95474 0.60652 0.36882 0.0
H235 H 0.07115 0.69211 0.38389 0.0
O236 O 0.90906 0.64231 0.48169 0.0
C237 C 0.04179 0.70976 0.45145 0.0
Co238 Co 0.34498 0.30209 0.46791 0.0
Co239 Co 0.35986 0.36896 0.42934 0.0
C240 C 0.41567 0.39396 0.47106 0.0
O241 O 0.39648 0.35528 0.4784 0.0
O242 O 0.40439 0.40339 0.45263 0.0
C243 C 0.3684 0.25851 0.50019 0.0
O244 O 0.40661 0.29389 0.49792 0.0
C245 C 0.41561 0.41955 0.39229 0.0
C246 C 0.37665 0.44259 0.37429 0.0
C247 C 0.41608 0.44301 0.37363 0.0
N248 N 0.37745 0.40518 0.4032 0.0
N249 N 0.35433 0.41927 0.39244 0.0
C250 C 0.45164 0.41241 0.40028 0.0
H251 H 0.44753 0.40366 0.41828 0.0
H252 H 0.45112 0.3853 0.39086 0.0
H253 H 0.48386 0.44199 0.39739 0.0
C254 C 0.34825 0.25158 0.42919 0.0
N255 N 0.35179 0.28803 0.43815 0.0
N256 N 0.35674 0.31523 0.42194 0.0
C257 C 0.35555 0.2964 0.40209 0.0
C258 C 0.35086 0.25588 0.40606 0.0
C259 C 0.3416 0.21319 0.44259 0.0
H260 H 0.36817 0.22384 0.45507 0.0
H261 H 0.34132 0.18764 0.43181 0.0
H262 H 0.31023 0.19955 0.45191 0.0
O263 O 0.29526 0.31332 0.47009 0.0
O264 O 0.30252 0.35745 0.44165 0.0
H265 H 0.33449 0.28672 0.36761 0.0
H266 H 0.38577 0.33476 0.3728 0.0
C267 C 0.35252 0.31362 0.37967 0.0
H268 H 0.33556 0.33256 0.38118 0.0
H269 H 0.32323 0.41264 0.39735 0.0
O270 O 0.33622 0.25445 0.48876 0.0
C271 C 0.28195 0.33498 0.45884 0.0
Co272 Co 0.69503 0.04734 0.45519 0.0
Co273 Co 0.6213 0.99081 0.42079 0.0
C274 C 0.60247 0.02602 0.46253 0.0
O275 O 0.64246 0.04576 0.46829 0.0
O276 O 0.59015 0.0042 0.44444 0.0
C277 C 0.74573 0.09918 0.4928 0.0
O278 O 0.70832 0.08183 0.50365 0.0
C279 C 0.55334 0.97462 0.38833 0.0
C280 C 0.55716 0.92871 0.36476 0.0
C281 C 0.5369 0.95291 0.36832 0.0
N282 N 0.58221 0.96392 0.39629 0.0
N283 N 0.58373 0.93579 0.38235 0.0
C284 C 0.54586 0.0089 0.3984 0.0
H285 H 0.57716 0.03603 0.40474 0.0
H286 H 0.53138 0.02142 0.3861 0.0
H287 H 0.52319 0.99476 0.41286 0.0
C288 C 0.74162 0.09025 0.41362 0.0
N289 N 0.70445 0.0631 0.42465 0.0
N290 N 0.67317 0.04106 0.41014 0.0
C291 C 0.68914 0.0549 0.38929 0.0
C292 C 0.73328 0.08612 0.39071 0.0
C293 C 0.78535 0.11362 0.42477 0.0
H294 H 0.78811 0.09159 0.43695 0.0
H295 H 0.78819 0.14189 0.43413 0.0
H296 H 0.81273 0.12496 0.41264 0.0
O297 O 0.6887 0.98971 0.45848 0.0
O298 O 0.63635 0.94841 0.4343 0.0
H299 H 0.6575 0.00513 0.36467 0.0
H300 H 0.67973 0.05961 0.35379 0.0
C301 C 0.66294 0.03805 0.3683 0.0
H302 H 0.63091 0.03602 0.37055 0.0
H303 H 0.60459 0.92321 0.38423 0.0
O304 O 0.74655 0.08876 0.47252 0.0
C305 C 0.6641 0.95314 0.44928 0.0
Co306 Co 0.36663 0.01638 0.21282 0.0
Co307 Co 0.3214 0.03335 0.25467 0.0
C308 C 0.34412 0.08782 0.21322 0.0
O309 O 0.35999 0.06666 0.20376 0.0
O310 O 0.32895 0.07881 0.23309 0.0
C311 C 0.43309 0.04309 0.17879 0.0
O312 O 0.43526 0.08075 0.18162 0.0
C313 C 0.31153 0.08001 0.29361 0.0
C314 C 0.26855 0.02534 0.31584 0.0
C315 C 0.29226 0.07032 0.31481 0.0
N316 N 0.30072 0.04249 0.28298 0.0
N317 N 0.27454 0.01001 0.29631 0.0
C318 C 0.33928 0.12407 0.28343 0.0
H319 H 0.33346 0.12308 0.26524 0.0
H320 H 0.37426 0.13463 0.286 0.0
H321 H 0.33206 0.14825 0.29106 0.0
C322 C 0.423 0.01526 0.24898 0.0
N323 N 0.39139 0.02288 0.24171 0.0
N324 N 0.37404 0.03186 0.25898 0.0
C325 C 0.39508 0.03159 0.27774 0.0
C326 C 0.42645 0.02046 0.27213 0.0
C327 C 0.44506 0.99775 0.23431 0.0
H328 H 0.42092 0.97313 0.22271 0.0
H329 H 0.47056 0.02465 0.22409 0.0
H330 H 0.46035 0.98256 0.2442 0.0
O331 O 0.30742 0.96451 0.21278 0.0
O332 O 0.27544 0.97671 0.24194 0.0
H333 H 0.35405 0.01482 0.30676 0.0
H334 H 0.41171 0.04803 0.31268 0.0
C335 C 0.38554 0.04209 0.30062 0.0
H336 H 0.3829 0.07175 0.29979 0.0
H337 H 0.26164 0.97728 0.29228 0.0
O338 O 0.40521 0.01044 0.19009 0.0
C339 C 0.27411 0.95338 0.22533 0.0
Co340 Co 0.9911 0.36507 0.21264 0.0
Co341 Co 0.9735 0.29358 0.24837 0.0
C342 C 0.91765 0.27268 0.20787 0.0
O343 O 0.93926 0.31194 0.20132 0.0
O344 O 0.92702 0.26079 0.2261 0.0
C345 C 0.96374 0.4197 0.19576 0.0
O346 O 0.93254 0.39705 0.21034 0.0
C347 C 0.92261 0.23013 0.28287 0.0
C348 C 0.97326 0.23699 0.30668 0.0
C349 C 0.92846 0.21717 0.30384 0.0
N350 N 0.96211 0.25666 0.2738 0.0
N351 N 0.99229 0.25966 0.28785 0.0
C352 C 0.88065 0.22313 0.27309 0.0
H353 H 0.88554 0.25386 0.26566 0.0
H354 H 0.85416 0.21107 0.28583 0.0
H355 H 0.87062 0.19884 0.25943 0.0
C356 C 0.99825 0.4149 0.25368 0.0
N357 N 0.98711 0.37724 0.24312 0.0
N358 N 0.9758 0.34622 0.25806 0.0
C359 C 0.9769 0.36278 0.2786 0.0
C360 C 0.99176 0.40705 0.27657 0.0
C361 C 0.02165 0.4585 0.2425 0.0
H362 H 0.03897 0.45723 0.22725 0.0
H363 H 0.9976 0.46836 0.23771 0.0
H364 H 0.04574 0.48347 0.254 0.0
O365 O 0.04256 0.35875 0.20888 0.0
O366 O 0.03089 0.30757 0.23402 0.0
H367 H 0.9893 0.32981 0.30501 0.0
H368 H 0.95723 0.35406 0.31352 0.0
C369 C 0.96335 0.33672 0.2998 0.0
H370 H 0.93278 0.30573 0.29699 0.0
H371 H 0.02581 0.27972 0.2853 0.0
O372 O 0.99505 0.41216 0.19356 0.0
C373 C 0.05417 0.33424 0.21857 0.0
Co374 Co 0.64308 0.62478 0.21884 0.0
Co375 Co 0.70929 0.68534 0.25527 0.0
C376 C 0.73669 0.65217 0.21482 0.0
O377 O 0.6982 0.62974 0.20702 0.0
O378 O 0.74371 0.67353 0.23293 0.0
C379 C 0.59215 0.57252 0.18057 0.0
O380 O 0.62896 0.58987 0.16918 0.0
C381 C 0.76309 0.68978 0.29261 0.0
C382 C 0.78863 0.75593 0.30607 0.0
C383 C 0.78943 0.71769 0.30923 0.0
N384 N 0.74683 0.71012 0.28043 0.0
N385 N 0.7622 0.74973 0.28852 0.0
C386 C 0.75555 0.64533 0.28738 0.0
H387 H 0.7424 0.63529 0.27024 0.0
H388 H 0.73144 0.62149 0.29937 0.0
H389 H 0.78643 0.64465 0.28912 0.0
C390 C 0.59524 0.57612 0.25946 0.0
N391 N 0.6316 0.60759 0.24937 0.0
N392 N 0.65761 0.63469 0.26468 0.0
C393 C 0.63799 0.62218 0.28491 0.0
C394 C 0.59805 0.58436 0.2823 0.0
C395 C 0.55597 0.54267 0.24714 0.0
H396 H 0.54006 0.55882 0.23864 0.0
H397 H 0.56616 0.52716 0.23416 0.0
H398 H 0.53199 0.51739 0.25865 0.0
O399 O 0.64736 0.68221 0.21534 0.0
O400 O 0.69408 0.72639 0.24103 0.0
H401 H 0.6708 0.68355 0.30196 0.0
H402 H 0.62866 0.63981 0.31845 0.0
C403 C 0.65497 0.6484 0.30591 0.0
H404 H 0.6796 0.64188 0.31355 0.0
H405 H 0.75495 0.77259 0.28197 0.0
O406 O 0.59238 0.58307 0.20093 0.0
C407 C 0.66814 0.71934 0.22471 0.0
Co408 Co 0.63198 0.98087 0.79298 0.0
Co409 Co 0.69111 0.97944 0.75385 0.0
C410 C 0.66016 0.91523 0.79225 0.0
O411 O 0.63826 0.93082 0.80104 0.0
O412 O 0.68143 0.93084 0.77416 0.0
C413 C 0.56982 0.95436 0.82927 0.0
O414 O 0.57601 0.92098 0.8305 0.0
C415 C 0.68781 0.93254 0.71404 0.0
C416 C 0.75211 0.97155 0.69772 0.0
C417 C 0.71184 0.93403 0.69537 0.0
N418 N 0.7121 0.96783 0.72665 0.0
N419 N 0.75069 0.99107 0.71689 0.0
C420 C 0.64294 0.89699 0.72042 0.0
H421 H 0.63632 0.89881 0.73842 0.0
H422 H 0.61818 0.9002 0.7106 0.0
H423 H 0.63929 0.86479 0.71659 0.0
C424 C 0.58075 0.984 0.75477 0.0
N425 N 0.61302 0.97864 0.76326 0.0
N426 N 0.63947 0.98146 0.74696 0.0
C427 C 0.6257 0.99035 0.72766 0.0
C428 C 0.58771 0.99152 0.73191 0.0
C429 C 0.54747 0.98753 0.76875 0.0
H430 H 0.53161 0.95942 0.78037 0.0
H431 H 0.52231 0.98871 0.7582 0.0
H432 H 0.56406 0.0175 0.77902 0.0
O433 O 0.69011 0.03358 0.79655 0.0
O434 O 0.73372 0.03464 0.76911 0.0
H435 H 0.64333 0.02335 0.69554 0.0
H436 H 0.64204 0.97251 0.69639 0.0
C437 C 0.65095 0.00237 0.70608 0.0
H438 H 0.68651 0.01954 0.70945 0.0
H439 H 0.77593 0.02016 0.72326 0.0
O440 O 0.59037 0.98357 0.81452 0.0
C441 C 0.72721 0.05136 0.78667 0.0
Co442 Co 0.01835 0.64379 0.79972 0.0
Co443 Co 0.02314 0.7037 0.75953 0.0
C444 C 0.08344 0.73778 0.79975 0.0
O445 O 0.06773 0.70063 0.80894 0.0
O446 O 0.06886 0.74238 0.78113 0.0
C447 C 0.03602 0.60529 0.83834 0.0
O448 O 0.0643 0.64556 0.84381 0.0
C449 C 0.07474 0.7494 0.72067 0.0
C450 C 0.03461 0.77044 0.70224 0.0
C451 C 0.07384 0.77047 0.70133 0.0
N452 N 0.03756 0.73666 0.73225 0.0
N453 N 0.01371 0.74957 0.72123 0.0
C454 C 0.11122 0.74285 0.72854 0.0
H455 H 0.10869 0.73641 0.74679 0.0
H456 H 0.1096 0.71448 0.71992 0.0
H457 H 0.14328 0.77182 0.72451 0.0
C458 C 0.02391 0.59231 0.76225 0.0
N459 N 0.02519 0.62835 0.77032 0.0
N460 N 0.02404 0.65162 0.75349 0.0
C461 C 0.0206 0.63033 0.73419 0.0
C462 C 0.02126 0.59265 0.73912 0.0
C463 C 0.02153 0.5566 0.77649 0.0
H464 H 0.04783 0.57049 0.78921 0.0
H465 H 0.02469 0.53224 0.76624 0.0
H466 H 0.98972 0.54027 0.78548 0.0
O467 O 0.96406 0.64731 0.80117 0.0
O468 O 0.96524 0.68888 0.77285 0.0
H469 H 0.9914 0.61302 0.70137 0.0
H470 H 0.04192 0.66335 0.7027 0.0
C471 C 0.01091 0.64238 0.71176 0.0
H472 H 0.99267 0.66 0.71374 0.0
H473 H 0.98309 0.74378 0.72653 0.0
O474 O 0.01301 0.59797 0.82081 0.0
C475 C 0.9466 0.66544 0.79015 0.0
Co476 Co 0.35475 0.35928 0.79057 0.0
Co477 Co 0.29045 0.31006 0.75096 0.0
C478 C 0.26144 0.33733 0.79265 0.0
O479 O 0.29934 0.35505 0.80139 0.0
O480 O 0.25436 0.31978 0.77334 0.0
C481 C 0.40208 0.41775 0.82771 0.0
O482 O 0.36448 0.41389 0.83364 0.0
C483 C 0.23406 0.3044 0.7143 0.0
C484 C 0.2373 0.25722 0.69141 0.0
C485 C 0.2208 0.28507 0.69352 0.0
N486 N 0.25747 0.28882 0.72413 0.0
N487 N 0.25862 0.25998 0.71056 0.0
C488 C 0.229 0.34072 0.72359 0.0
H489 H 0.25713 0.3618 0.73448 0.0
H490 H 0.22618 0.36035 0.70994 0.0
H491 H 0.19876 0.32678 0.73389 0.0
C492 C 0.40854 0.41466 0.7528 0.0
N493 N 0.37044 0.38252 0.76114 0.0
N494 N 0.34411 0.36143 0.74444 0.0
C495 C 0.3649 0.3793 0.72495 0.0
C496 C 0.40625 0.41362 0.72961 0.0
C497 C 0.44815 0.44222 0.76662 0.0
H498 H 0.45881 0.42117 0.77489 0.0
H499 H 0.4398 0.45872 0.7799 0.0
H500 H 0.47541 0.46698 0.75627 0.0
O501 O 0.34692 0.29996 0.79127 0.0
O502 O 0.30185 0.265 0.76311 0.0
H503 H 0.33929 0.32725 0.70128 0.0
H504 H 0.37101 0.38043 0.68874 0.0
C505 C 0.34729 0.36158 0.70222 0.0
H506 H 0.31706 0.3629 0.69939 0.0
H507 H 0.27579 0.24383 0.7139 0.0
O508 O 0.40377 0.39675 0.81085 0.0
C509 C 0.32504 0.26573 0.77957 0.0
Co510 Co 0.03707 0.35425 0.55053 0.0
Co511 Co 0.98549 0.36858 0.58988 0.0
C512 C 0.01512 0.42567 0.54922 0.0
O513 O 0.03337 0.40591 0.54069 0.0
O514 O 0.99626 0.41464 0.56821 0.0
C515 C 0.11834 0.37947 0.53088 0.0
O516 O 0.12893 0.41151 0.54504 0.0
C517 C 0.97367 0.41553 0.62751 0.0
C518 C 0.92316 0.36192 0.6479 0.0
C519 C 0.95086 0.40653 0.64764 0.0
N520 N 0.96106 0.37784 0.61672 0.0
N521 N 0.93036 0.346 0.62886 0.0
C522 C 0.00681 0.45924 0.61855 0.0
H523 H 0.00228 0.46087 0.60036 0.0
H524 H 0.04013 0.4645 0.6212 0.0
H525 H 0.00402 0.48567 0.62684 0.0
C526 C 0.08251 0.34394 0.58976 0.0
N527 N 0.05584 0.35667 0.58065 0.0
N528 N 0.03683 0.36636 0.59685 0.0
C529 C 0.05259 0.36235 0.6167 0.0
C530 C 0.08163 0.34743 0.61293 0.0
C531 C 0.10174 0.32118 0.57699 0.0
H532 H 0.08193 0.30504 0.56196 0.0
H533 H 0.13546 0.34526 0.57171 0.0
H534 H 0.1033 0.29633 0.58755 0.0
O535 O 0.97826 0.30346 0.54786 0.0
O536 O 0.94159 0.31225 0.57594 0.0
H537 H 0.00581 0.34564 0.64318 0.0
H538 H 0.062 0.37422 0.65244 0.0
C539 C 0.03941 0.37172 0.63895 0.0
H540 H 0.03998 0.40302 0.63813 0.0
H541 H 0.91524 0.31324 0.62447 0.0
O542 O 0.07863 0.34948 0.52965 0.0
C543 C 0.9432 0.29071 0.55916 0.0
Co544 Co 0.64768 0.69716 0.54368 0.0
Co545 Co 0.63579 0.63064 0.58163 0.0
C546 C 0.57688 0.60482 0.54134 0.0
O547 O 0.59646 0.64325 0.53369 0.0
O548 O 0.58855 0.59563 0.55971 0.0
C549 C 0.61979 0.73969 0.51348 0.0
O550 O 0.58148 0.70608 0.51836 0.0
C551 C 0.58515 0.58225 0.62037 0.0
C552 C 0.62469 0.55714 0.63585 0.0
C553 C 0.58627 0.55829 0.63841 0.0
N554 N 0.62149 0.59541 0.60799 0.0
N555 N 0.64499 0.58016 0.61725 0.0
C556 C 0.54923 0.59104 0.61431 0.0
H557 H 0.55133 0.6 0.59639 0.0
H558 H 0.5522 0.61856 0.6244 0.0
H559 H 0.5169 0.56214 0.61798 0.0
C560 C 0.65252 0.75004 0.58262 0.0
N561 N 0.64319 0.71163 0.57357 0.0
N562 N 0.64094 0.68511 0.58956 0.0
C563 C 0.65014 0.70643 0.6093 0.0
C564 C 0.65731 0.74807 0.60557 0.0
C565 C 0.66339 0.78968 0.56914 0.0
H566 H 0.63541 0.78274 0.55816 0.0
H567 H 0.67095 0.81795 0.57996 0.0
H568 H 0.69197 0.79784 0.55822 0.0
O569 O 0.69909 0.68912 0.54092 0.0
O570 O 0.69156 0.64165 0.56751 0.0
H571 H 0.67511 0.67167 0.62765 0.0
H572 H 0.675 0.71519 0.64328 0.0
C573 C 0.65698 0.68911 0.63086 0.0
H574 H 0.62486 0.66598 0.63832 0.0
H575 H 0.67487 0.58554 0.61094 0.0
O576 O 0.65378 0.74337 0.52281 0.0
C577 C 0.71256 0.66636 0.551 0.0
Co578 Co 0.30203 0.94487 0.54584 0.0
Co579 Co 0.37104 0.00025 0.58269 0.0
C580 C 0.39635 0.97204 0.54024 0.0
O581 O 0.35695 0.95185 0.53374 0.0
O582 O 0.40656 0.99186 0.55895 0.0
C583 C 0.25954 0.87883 0.51294 0.0
O584 O 0.29599 0.87765 0.5141 0.0
C585 C 0.42276 -0.00065 0.62003 0.0
C586 C 0.44312 0.06125 0.63751 0.0
C587 C 0.44497 0.02324 0.63878 0.0
N588 N 0.40765 0.02159 0.60858 0.0
N589 N 0.42022 0.0588 0.61899 0.0
C590 C 0.41653 0.95634 0.61265 0.0
H591 H 0.41142 0.95238 0.59431 0.0
H592 H 0.38708 0.92982 0.62091 0.0
H593 H 0.44517 0.95321 0.61733 0.0
C594 C 0.2531 0.89387 0.58518 0.0
N595 N 0.29065 0.92424 0.57556 0.0
N596 N 0.31804 0.9487 0.59121 0.0
C597 C 0.29804 0.93534 0.61135 0.0
C598 C 0.25651 0.89984 0.60821 0.0
C599 C 0.21249 0.86474 0.57238 0.0
H600 H 0.20148 0.88482 0.56337 0.0
H601 H 0.21979 0.84644 0.55968 0.0
H602 H 0.18586 0.84155 0.58359 0.0
O603 O 0.3062 0.00239 0.54493 0.0
O604 O 0.3558 0.04322 0.5705 0.0
H605 H 0.33142 0.99522 0.62965 0.0
H606 H 0.2896 0.95037 0.64564 0.0
C607 C 0.31559 0.95979 0.63281 0.0
H608 H 0.34025 0.95253 0.63969 0.0
H609 H 0.41254 0.08213 0.6137 0.0
O610 O 0.25447 0.90491 0.52549 0.0
C611 C 0.32859 0.03843 0.55515 0.0
H612 H 0.41552 0.22519 0.01162 0.0
H613 H 0.28862 0.21358 0.00666 0.0
H614 H 0.26596 0.15473 0.97943 0.0
H615 H 0.28166 0.1049 0.95791 0.0
H616 H 0.40841 0.11634 0.96277 0.0
H617 H 0.43203 0.17689 0.98911 0.0
C618 C 0.38304 0.20977 1.00443 0.0
C619 C 0.35337 0.22274 0.01136 0.0
C620 C 0.37026 0.17588 0.9889 0.0
C621 C 0.3115 0.2031 1.0019 0.0
C622 C 0.29864 0.16969 0.98629 0.0
C623 C 0.3144 0.12085 0.96479 0.0
C624 C 0.34319 0.1062 0.95884 0.0
C625 C 0.32756 0.15544 0.97988 0.0
C626 C 0.38568 0.12698 0.96754 0.0
C627 C 0.39916 0.16158 0.98247 0.0
H628 H 0.78297 0.1942 0.01549 0.0
H629 H 0.79364 0.0787 0.01705 0.0
H630 H 0.85014 0.1088 0.98813 0.0
H631 H 0.89822 0.16903 0.96273 0.0
H632 H 0.88787 0.28453 0.96107 0.0
H633 H 0.82943 0.2535 0.9893 0.0
C634 C 0.79767 0.17568 0.00944 0.0
C635 C 0.785 0.13482 0.01892 0.0
C636 C 0.83017 0.19321 0.99267 0.0
C637 C 0.80396 0.11093 0.01073 0.0
C638 C 0.83598 0.12793 0.99396 0.0
C639 C 0.88285 0.18711 0.96854 0.0
C640 C 0.89717 0.22892 0.96006 0.0
C641 C 0.84968 0.1692 0.98495 0.0
C642 C 0.87726 0.25228 0.96756 0.0
C643 C 0.84397 0.23458 0.98368 0.0
H644 H 0.80855 0.58362 0.00811 0.0
H645 H 0.9227 0.71148 0.00887 0.0
H646 H 0.89143 0.73546 0.97969 0.0
H647 H 0.82988 0.72102 0.95498 0.0
H648 H 0.71576 0.59352 0.95408 0.0
H649 H 0.74869 0.56806 0.98195 0.0
C650 C 0.82658 0.61663 1.00176 0.0
C651 C 0.8672 0.64611 0.01112 0.0
C652 C 0.80839 0.63016 0.98489 0.0
C653 C 0.89056 0.68866 1.0026 0.0
C654 C 0.87291 0.70229 0.98572 0.0
C655 C 0.81266 0.68761 0.9608 0.0
C656 C 0.77072 0.65902 0.95273 0.0
C657 C 0.83159 0.67353 0.97698 0.0
C658 C 0.74823 0.61583 0.96024 0.0
C659 C 0.76697 0.60141 0.97615 0.0
H660 H 0.72732 0.89669 0.04909 0.0
H661 H 0.59966 0.88378 0.05035 0.0
H662 H 0.57383 0.82569 0.02232 0.0
H663 H 0.58828 0.77963 0.99686 0.0
H664 H 0.71627 0.79284 0.99565 0.0
H665 H 0.74144 0.84972 0.02401 0.0
C666 C 0.6939 0.88097 0.04316 0.0
C667 C 0.66535 0.8943 0.0515 0.0
C668 C 0.67952 0.84794 0.02695 0.0
C669 C 0.62207 0.8739 0.04393 0.0
C670 C 0.60738 0.8408 0.02796 0.0
C671 C 0.62165 0.79498 1.00285 0.0
C672 C 0.65065 0.7828 0.99373 0.0
C673 C 0.63588 0.82768 0.01925 0.0
C674 C 0.6937 0.80267 1.00177 0.0
C675 C 0.70802 0.83492 0.01819 0.0
H676 H 0.22594 0.80499 0.99637 0.0
H677 H 0.22584 0.92598 0.99988 0.0
H678 H 0.16708 0.89513 0.02766 0.0
H679 H 0.11345 0.83257 0.05 0.0
H680 H 0.1133 0.71159 0.04668 0.0
H681 H 0.17445 0.74335 0.02 0.0
C682 C 0.21316 0.82456 1.00338 0.0
C683 C 0.22932 0.86725 0.99571 0.0
C684 C 0.17924 0.80651 0.01933 0.0
C685 C 0.21284 0.89252 0.00497 0.0
C686 C 0.17949 0.87503 0.021 0.0
C687 C 0.1271 0.81343 0.04343 0.0
C688 C 0.10894 0.76988 0.04991 0.0
C689 C 0.16198 0.83187 0.02806 0.0
C690 C 0.12673 0.74514 0.04157 0.0
C691 C 0.16163 0.76329 0.0264 0.0
H692 H 0.26142 0.3848 0.04328 0.0
H693 H 0.15274 0.25805 0.05845 0.0
H694 H 0.10731 0.2691 0.03125 0.0
H695 H 0.09954 0.31439 1.00243 0.0
H696 H 0.20792 0.44191 0.98787 0.0
H697 H 0.25246 0.43154 0.01577 0.0
C698 C 0.2277 0.35983 0.04061 0.0
C699 C 0.21026 0.32057 0.05254 0.0
C700 C 0.20195 0.36659 0.02508 0.0
C701 C 0.16658 0.28842 0.04929 0.0
C702 C 0.14077 0.29473 0.03375 0.0
C703 C 0.13306 0.33963 0.00519 0.0
C704 C 0.15086 0.37845 0.99278 0.0
C705 C 0.15828 0.3335 0.02136 0.0
C706 C 0.19372 0.41165 0.99715 0.0
C707 C 0.21918 0.40569 0.01304 0.0
H708 H 0.05184 0.52981 0.36162 0.0
H709 H 0.0046 0.59793 0.32133 0.0
H710 H 0.98418 0.5437 0.29155 0.0
H711 H 0.97799 0.47571 0.27759 0.0
H712 H 0.03371 0.4128 0.31597 0.0
H713 H 0.05165 0.46535 0.34612 0.0
C714 C 0.03734 0.53273 0.34622 0.0
C715 C 0.02954 0.56744 0.34352 0.0
C716 C 0.02664 0.50203 0.32904 0.0
C717 C 0.01103 0.57142 0.32356 0.0
C718 C 0.99919 0.54036 0.30665 0.0
C719 C 0.99451 0.4738 0.29243 0.0
C720 C 0.00348 0.43969 0.29472 0.0
C721 C 0.00664 0.50539 0.30926 0.0
C722 C 0.02488 0.43768 0.3141 0.0
C723 C 0.0357 0.4681 0.33125 0.0
H724 H 0.56549 0.50436 0.30041 0.0
H725 H 0.55123 0.61765 0.30111 0.0
H726 H 0.49271 0.58361 0.32917 0.0
H727 H 0.44642 0.52176 0.35401 0.0
H728 H 0.46097 0.40847 0.35317 0.0
H729 H 0.51848 0.4421 0.32489 0.0
C730 C 0.54941 0.52137 0.30679 0.0
C731 C 0.56255 0.56337 0.29902 0.0
C732 C 0.51609 0.50168 0.32299 0.0
C733 C 0.54164 0.58534 0.30715 0.0
C734 C 0.50824 0.56589 0.32311 0.0
C735 C 0.46224 0.50453 0.34758 0.0
C736 C 0.45027 0.46319 0.35609 0.0
C737 C 0.49531 0.52412 0.33124 0.0
C738 C 0.47068 0.44097 0.34752 0.0
C739 C 0.50328 0.46001 0.33114 0.0
H740 H 0.56308 0.99533 0.32885 0.0
H741 H 0.45101 0.92742 0.37213 0.0
H742 H 0.40619 0.94079 0.34561 0.0
H743 H 0.39935 0.97211 0.31021 0.0
H744 H 0.51306 0.04623 0.26862 0.0
H745 H 0.55685 0.0295 0.29405 0.0
C746 C 0.52874 0.98331 0.33227 0.0
C747 C 0.50989 0.96002 0.3521 0.0
C748 C 0.50369 0.9922 0.31727 0.0
C749 C 0.46577 0.94513 0.35679 0.0
C750 C 0.44031 0.95284 0.34169 0.0
C751 C 0.43387 0.98516 0.3069 0.0
C752 C 0.45305 0.01057 0.28763 0.0
C753 C 0.45899 0.9765 0.32193 0.0
C754 C 0.49755 0.02634 0.28326 0.0
C755 C 0.52259 0.01696 0.29784 0.0
H756 H 0.28178 0.17562 0.39801 0.0
H757 H 0.41231 0.26663 0.3757 0.0
H758 H 0.40668 0.21668 0.3459 0.0
H759 H 0.36447 0.14745 0.32626 0.0
H760 H 0.23151 0.05861 0.34634 0.0
H761 H 0.23852 0.1066 0.37739 0.0
C762 C 0.30897 0.1841 0.38668 0.0
C763 C 0.34758 0.22426 0.38903 0.0
C764 C 0.30499 0.1557 0.36924 0.0
C765 C 0.38247 0.2356 0.37416 0.0
C766 C 0.37919 0.20715 0.35715 0.0
C767 C 0.33649 0.13911 0.33691 0.0
C768 C 0.29696 0.10014 0.33342 0.0
C769 C 0.34046 0.16729 0.3544 0.0
C770 C 0.26211 0.08871 0.34844 0.0
C771 C 0.26607 0.11616 0.36619 0.0
H772 H 0.86086 0.13464 0.30729 0.0
H773 H 0.92254 0.25891 0.3403 0.0
H774 H 0.86603 0.23021 0.36952 0.0
H775 H 0.79873 0.16963 0.38552 0.0
H776 H 0.74156 0.04329 0.35469 0.0
H777 H 0.79567 0.07283 0.32455 0.0
C778 C 0.86185 0.15512 0.32101 0.0
C779 C 0.89559 0.19855 0.32189 0.0
C780 C 0.82973 0.13815 0.33793 0.0
C781 C 0.89689 0.22516 0.33958 0.0
C782 C 0.86454 0.20885 0.35616 0.0
C783 C 0.79834 0.14859 0.37225 0.0
C784 C 0.76577 0.10452 0.37217 0.0
C785 C 0.83078 0.16539 0.35552 0.0
C786 C 0.76552 0.07761 0.35484 0.0
C787 C 0.7968 0.09435 0.33772 0.0
H788 H 0.92262 0.70721 0.37541 0.0
H789 H 0.80974 0.58283 0.38994 0.0
H790 H 0.76623 0.59789 0.36333 0.0
H791 H 0.761 0.64631 0.33565 0.0
H792 H 0.87354 0.77145 0.32166 0.0
H793 H 0.91658 0.75683 0.34867 0.0
C794 C 0.88848 0.68355 0.37265 0.0
C795 C 0.86922 0.64386 0.38427 0.0
C796 C 0.86381 0.69268 0.35754 0.0
C797 C 0.82498 0.61347 0.38098 0.0
C798 C 0.80025 0.62209 0.36581 0.0
C799 C 0.79509 0.67008 0.33831 0.0
C800 C 0.81448 0.70946 0.32635 0.0
C801 C 0.81943 0.66146 0.35389 0.0
C802 C 0.85812 0.74081 0.33062 0.0
C803 C 0.88271 0.73239 0.34597 0.0
H804 H 0.61789 0.79146 0.62066 0.0
H805 H 0.73682 0.78674 0.62555 0.0
H806 H 0.76574 0.846 0.65296 0.0
H807 H 0.75557 0.89715 0.67678 0.0
H808 H 0.63605 0.90103 0.67197 0.0
H809 H 0.60891 0.84445 0.64335 0.0
C810 C 0.65015 0.80367 0.62775 0.0
C811 C 0.6751 0.78473 0.62149 0.0
C812 C 0.66629 0.83744 0.64356 0.0
C813 C 0.71699 0.80072 0.6305 0.0
C814 C 0.73349 0.83456 0.64608 0.0
C815 C 0.72378 0.88575 0.66928 0.0
C816 C 0.69743 0.90246 0.67675 0.0
C817 C 0.70825 0.8529 0.65292 0.0
C818 C 0.65635 0.88768 0.66692 0.0
C819 C 0.64093 0.85554 0.65045 0.0
H820 H 0.21947 0.81997 0.627 0.0
H821 H 0.21302 0.93762 0.62596 0.0
H822 H 0.15436 0.90746 0.65412 0.0
H823 H 0.10636 0.84805 0.67995 0.0
H824 H 0.11373 0.73073 0.6811 0.0
H825 H 0.17036 0.75999 0.65219 0.0
C826 C 0.20498 0.83874 0.63299 0.0
C827 C 0.22038 0.88085 0.62471 0.0
C828 C 0.17166 0.82131 0.64929 0.0
C829 C 0.20157 0.90514 0.63235 0.0
C830 C 0.16812 0.88792 0.64839 0.0
C831 C 0.12034 0.82896 0.67376 0.0
C832 C 0.10667 0.78776 0.68301 0.0
C833 C 0.1531 0.84613 0.65712 0.0
C834 C 0.12475 0.76312 0.67479 0.0
C835 C 0.15688 0.77968 0.65809 0.0
H836 H 0.16405 0.3602 0.61322 0.0
H837 H 0.04226 0.2972 0.64982 0.0
H838 H 0.07492 0.27343 0.67835 0.0
H839 H 0.13859 0.27102 0.69318 0.0
H840 H 0.25778 0.32674 0.65467 0.0
H841 H 0.22564 0.3521 0.62628 0.0
C842 C 0.14463 0.34096 0.62735 0.0
C843 C 0.10124 0.33164 0.62976 0.0
C844 C 0.16311 0.32582 0.64322 0.0
C845 C 0.07629 0.30635 0.64804 0.0
C846 C 0.09476 0.29226 0.66424 0.0
C847 C 0.15716 0.2884 0.67843 0.0
C848 C 0.2002 0.29716 0.6758 0.0
C849 C 0.1382 0.30202 0.66208 0.0
C850 C 0.22436 0.31955 0.65676 0.0
C851 C 0.2061 0.33416 0.64066 0.0
H852 H 0.02737 0.47235 0.66373 0.0
H853 H 0.88798 0.40633 0.67414 0.0
H854 H 0.89746 0.45654 0.70459 0.0
H855 H 0.94555 0.52177 0.72702 0.0
H856 H 0.0844 0.58911 0.71531 0.0
H857 H 0.07522 0.53636 0.68628 0.0
C858 C 0.999 0.46952 0.67233 0.0
C859 C 0.95691 0.43665 0.66621 0.0
C860 C 0.00473 0.49868 0.68959 0.0
C861 C 0.92065 0.43186 0.67835 0.0
C862 C 0.92606 0.46054 0.69572 0.0
C863 C 0.97363 0.52434 0.71819 0.0
C864 C 0.01557 0.55865 0.72318 0.0
C865 C 0.96791 0.49436 0.70133 0.0
C866 C 0.05194 0.56249 0.71168 0.0
C867 C 0.04664 0.53253 0.6951 0.0
H868 H 0.44275 0.49653 0.71482 0.0
H869 H 0.45035 0.37993 0.70853 0.0
H870 H 0.50843 0.41498 0.68032 0.0
H871 H 0.5551 0.47817 0.65641 0.0
H872 H 0.54617 0.59428 0.66212 0.0
H873 H 0.49064 0.56037 0.6914 0.0
C874 C 0.4575 0.47915 0.7073 0.0
C875 C 0.44275 0.43599 0.71358 0.0
C876 C 0.49027 0.4993 0.69086 0.0
C877 C 0.46157 0.41332 0.70381 0.0
C878 C 0.4946 0.43329 0.68771 0.0
C879 C 0.54104 0.49599 0.66416 0.0
C880 C 0.55392 0.53824 0.65677 0.0
C881 C 0.50895 0.47616 0.68094 0.0
C882 C 0.53572 0.56119 0.667 0.0
C883 C 0.50426 0.54196 0.6839 0.0
H884 H 0.50871 0.9409 0.71314 0.0
H885 H 0.61565 0.07259 0.71581 0.0
H886 H 0.58028 0.09466 0.68761 0.0
H887 H 0.52024 0.07546 0.66094 0.0
H888 H 0.41303 0.94353 0.65861 0.0
H889 H 0.44703 0.92241 0.68766 0.0
C890 C 0.52388 0.97442 0.7076 0.0
C891 C 0.56458 0.00516 0.71629 0.0
C892 C 0.50357 0.98663 0.69123 0.0
C893 C 0.58426 0.04854 0.70916 0.0
C894 C 0.56413 0.06106 0.69305 0.0
C895 C 0.50435 0.04214 0.66685 0.0
C896 C 0.46491 0.01084 0.65707 0.0
C897 C 0.52401 0.03026 0.68375 0.0
C898 C 0.44433 0.9679 0.66511 0.0
C899 C 0.4635 0.95587 0.68196 0.0
H900 H 0.4018 0.42919 0.15359 0.0
H901 H 0.47001 0.42316 0.09473 0.0
H902 H 0.53839 0.48311 0.10903 0.0
H903 H 0.57964 0.53423 0.13945 0.0
H904 H 0.51055 0.53783 0.19854 0.0
H905 H 0.44186 0.48182 0.18289 0.0
C906 C 0.43146 0.44116 0.14371 0.0
C907 C 0.43066 0.42144 0.12315 0.0
C908 C 0.47072 0.47504 0.15218 0.0
C909 C 0.46958 0.43758 0.11065 0.0
C910 C 0.50878 0.47181 0.11885 0.0
C911 C 0.54952 0.52295 0.14882 0.0
C912 C 0.55043 0.54003 0.17022 0.0
C913 C 0.50989 0.49029 0.13979 0.0
C914 C 0.51101 0.52506 0.18213 0.0
C915 C 0.47159 0.49303 0.17318 0.0
H916 H 0.59055 0.0661 0.1184 0.0
H917 H 0.54756 0.93739 0.14404 0.0
H918 H 0.4857 0.93665 0.16264 0.0
H919 H 0.4473 0.97482 0.17439 0.0
H920 H 0.49171 0.1047 0.15008 0.0
H921 H 0.54911 0.10257 0.12825 0.0
C922 C 0.56718 0.0376 0.1277 0.0
C923 C 0.57386 0.00196 0.12987 0.0
C924 C 0.53208 0.03774 0.13887 0.0
C925 C 0.54343 0.96542 0.1422 0.0
C926 C 0.50802 0.96496 0.1529 0.0
C927 C 0.46918 0.00248 0.16411 0.0
C928 C 0.46527 0.03993 0.16403 0.0
C929 C 0.5026 0.00133 0.15181 0.0
C930 C 0.49406 0.0755 0.15062 0.0
C931 C 0.52697 0.07435 0.13809 0.0
H932 H 0.98778 0.44477 0.15265 0.0
H933 H 0.94121 0.47608 0.21276 0.0
H934 H 0.94467 0.5389 0.19419 0.0
H935 H 0.9616 0.58518 0.16113 0.0
H936 H 0.00071 0.55082 0.09956 0.0
H937 H 0.99929 0.48848 0.11826 0.0
C938 C 0.97843 0.46548 0.16156 0.0
C939 C 0.96468 0.45638 0.18401 0.0
C940 C 0.97909 0.50068 0.15053 0.0
C941 C 0.95189 0.48269 0.19544 0.0
C942 C 0.95393 0.51857 0.18487 0.0
C943 C 0.9698 0.56394 0.15186 0.0
C944 C 0.9818 0.57247 0.12922 0.0
C945 C 0.9676 0.52788 0.16248 0.0
C946 C 0.99152 0.54458 0.11709 0.0
C947 C 0.9908 0.50918 0.12777 0.0
H948 H 0.4114 0.46891 0.86382 0.0
H949 H 0.48524 0.43819 0.81687 0.0
H950 H 0.55328 0.49496 0.83284 0.0
H951 H 0.59197 0.55627 0.85835 0.0
H952 H 0.51894 0.58768 0.90546 0.0
H953 H 0.45062 0.52739 0.89136 0.0
C954 C 0.44236 0.47438 0.8572 0.0
C955 C 0.44306 0.44953 0.839 0.0
C956 C 0.48161 0.5073 0.86644 0.0
C957 C 0.48357 0.45691 0.83077 0.0
C958 C 0.52261 0.48946 0.83987 0.0
C959 C 0.56117 0.54984 0.86569 0.0
C960 C 0.5607 0.57684 0.8828 0.0
C961 C 0.52202 0.51533 0.85743 0.0
C962 C 0.52039 0.56756 0.89223 0.0
C963 C 0.48123 0.53315 0.88412 0.0
H964 H 0.54994 0.01873 0.83131 0.0
H965 H 0.51774 0.89552 0.86103 0.0
H966 H 0.4617 0.89753 0.88418 0.0
H967 H 0.41823 0.93187 0.89401 0.0
H968 H 0.44978 0.05408 0.86327 0.0
H969 H 0.50999 0.05509 0.84281 0.0
C970 C 0.5309 0.99243 0.84295 0.0
C971 C 0.5378 0.9569 0.84427 0.0
C972 C 0.49856 0.9936 0.85609 0.0
C973 C 0.51296 0.92321 0.85956 0.0
C974 C 0.48089 0.92431 0.87284 0.0
C975 C 0.43879 0.95905 0.88314 0.0
C976 C 0.42936 0.99266 0.88005 0.0
C977 C 0.47293 0.95903 0.871 0.0
C978 C 0.45611 0.02757 0.86578 0.0
C979 C 0.49053 0.02818 0.85403 0.0
H980 H 0.98284 0.51894 0.8308 0.0
H981 H 0.08333 0.60917 0.87532 0.0
H982 H 0.08246 0.54878 0.89527 0.0
H983 H 0.05595 0.47042 0.89877 0.0
H984 H 0.95603 0.38089 0.85368 0.0
H985 H 0.95387 0.44094 0.83546 0.0
C986 C 0.00437 0.52548 0.84497 0.0
C987 C 0.03327 0.5686 0.85144 0.0
C988 C 0.00395 0.49067 0.85627 0.0
C989 C 0.06081 0.57633 0.8699 0.0
C990 C 0.06039 0.54179 0.88132 0.0
C991 C 0.03339 0.46397 0.8851 0.0
C992 C 0.00644 0.42109 0.87757 0.0
C993 C 0.0325 0.49882 0.87447 0.0
C994 C 0.97742 0.41349 0.8598 0.0
C995 C 0.97611 0.44785 0.84931 0.0
H996 H 0.17698 0.86547 0.51004 0.0
H997 H 0.26369 0.82578 0.48124 0.0
H998 H 0.20502 0.77374 0.45732 0.0
H999 H 0.12764 0.7352 0.44688 0.0
H1000 H 0.04004 0.77217 0.47714 0.0
H1001 H 0.10068 0.83014 0.49781 0.0
C1002 C 0.18315 0.84572 0.49839 0.0
C1003 C 0.22452 0.84924 0.49759 0.0
C1004 C 0.14912 0.81541 0.48487 0.0
C1005 C 0.232 0.82344 0.48237 0.0
C1006 C 0.1985 0.79371 0.46862 0.0
C1007 C 0.12202 0.75656 0.45762 0.0
C1008 C 0.07946 0.74937 0.46053 0.0
C1009 C 0.15674 0.78888 0.47002 0.0
C1010 C 0.07255 0.77698 0.4747 0.0
C1011 C 0.10714 0.81 0.4866 0.0
H1012 H 0.11502 0.34305 0.49004 0.0
H1013 H 0.1995 0.40605 0.54637 0.0
H1014 H 0.25666 0.39628 0.52923 0.0
H1015 H 0.28261 0.36924 0.49858 0.0
H1016 H 0.20267 0.3128 0.44027 0.0
H1017 H 0.14364 0.32053 0.45765 0.0
C1018 C 0.14604 0.35467 0.49845 0.0
C1019 C 0.15303 0.37502 0.51947 0.0
C1020 C 0.17941 0.35004 0.48816 0.0
C1021 C 0.19345 0.39046 0.53013 0.0
C1022 C 0.2261 0.38475 0.5204 0.0
C1023 C 0.25215 0.35862 0.48975 0.0
C1024 C 0.24637 0.33997 0.46844 0.0
C1025 C 0.21938 0.36448 0.4995 0.0
C1026 C 0.2074 0.32702 0.4568 0.0
C1027 C 0.17381 0.33144 0.46674 0.0
H1028 H 0.59795 0.86936 0.45027 0.0
H1029 H 0.73284 0.95204 0.46876 0.0
H1030 H 0.73199 0.89206 0.48905 0.0
H1031 H 0.69105 0.81835 0.50447 0.0
H1032 H 0.55499 0.73674 0.48764 0.0
H1033 H 0.55818 0.79398 0.46383 0.0
C1034 C 0.62738 0.87392 0.45834 0.0
C1035 C 0.66533 0.91501 0.45807 0.0
C1036 C 0.62628 0.83968 0.47058 0.0
C1037 C 0.70313 0.92068 0.46883 0.0
C1038 C 0.70264 0.88648 0.4805 0.0
C1039 C 0.66221 0.81293 0.49543 0.0
C1040 C 0.62279 0.77349 0.49798 0.0
C1041 C 0.66407 0.8462 0.482 0.0
C1042 C 0.5857 0.76698 0.48614 0.0
C1043 C 0.58748 0.79966 0.47247 0.0
H1044 H 0.07993 0.81101 0.2026 0.0
H1045 H 0.14726 0.78134 0.15117 0.0
H1046 H 0.21736 0.83546 0.16639 0.0
H1047 H 0.25972 0.89454 0.19257 0.0
H1048 H 0.19331 0.9252 0.24406 0.0
H1049 H 0.12296 0.86698 0.23074 0.0
C1050 C 0.10992 0.81611 0.19484 0.0
C1051 C 0.10815 0.79244 0.17557 0.0
C1052 C 0.15043 0.84754 0.20367 0.0
C1053 C 0.14745 0.79933 0.16585 0.0
C1054 C 0.1877 0.83031 0.17456 0.0
C1055 C 0.22995 0.88832 0.20107 0.0
C1056 C 0.23195 0.91461 0.21917 0.0
C1057 C 0.18958 0.85513 0.1932 0.0
C1058 C 0.1929 0.90565 0.23004 0.0
C1059 C 0.15255 0.87243 0.22237 0.0
H1060 H 0.07525 0.27042 0.22166 0.0
H1061 H 0.12252 0.40029 0.1965 0.0
H1062 H 0.18361 0.39918 0.17814 0.0
H1063 H 0.21997 0.35927 0.16647 0.0
H1064 H 0.17162 0.22834 0.19027 0.0
H1065 H 0.11487 0.23205 0.21193 0.0
C1066 C 0.09936 0.29872 0.21249 0.0
C1067 C 0.09415 0.33523 0.21033 0.0
C1068 C 0.134 0.29755 0.2015 0.0
C1069 C 0.12553 0.37159 0.19826 0.0
C1070 C 0.16048 0.371 0.18771 0.0
C1071 C 0.19734 0.33168 0.17658 0.0
C1072 C 0.19988 0.2935 0.17659 0.0
C1073 C 0.16443 0.33379 0.18875 0.0
C1074 C 0.17028 0.25809 0.18983 0.0
C1075 C 0.13776 0.26015 0.20224 0.0
H1076 H 0.72731 0.80549 0.22732 0.0
H1077 H 0.60214 0.71432 0.19913 0.0
H1078 H 0.60134 0.77283 0.17816 0.0
H1079 H 0.63903 0.84875 0.16539 0.0
H1080 H 0.76608 0.93891 0.1921 0.0
H1081 H 0.76326 0.88203 0.21603 0.0
C1082 C 0.6995 0.79857 0.21691 0.0
C1083 C 0.66492 0.75566 0.21475 0.0
C1084 C 0.69983 0.83212 0.20438 0.0
C1085 C 0.6293 0.74711 0.20099 0.0
C1086 C 0.62885 0.78051 0.18894 0.0
C1087 C 0.66588 0.85602 0.17662 0.0
C1088 C 0.70279 0.89789 0.17685 0.0
C1089 C 0.66441 0.82296 0.1901 0.0
C1090 C 0.73742 0.90681 0.19143 0.0
C1091 C 0.73583 0.87433 0.20518 0.0
H1092 H 0.81451 0.09124 0.77645 0.0
H1093 H 0.72206 0.09934 0.82087 0.0
H1094 H 0.78155 0.15803 0.84139 0.0
H1095 H 0.85969 0.20434 0.8483 0.0
H1096 H 0.95293 0.19744 0.80411 0.0
H1097 H 0.89336 0.14123 0.78204 0.0
C1098 C 0.80736 0.1062 0.79043 0.0
C1099 C 0.76377 0.09048 0.79715 0.0
C1100 C 0.8419 0.13999 0.8024 0.0
C1101 C 0.75522 0.11038 0.81536 0.0
C1102 C 0.78926 0.14401 0.82719 0.0
C1103 C 0.86704 0.19069 0.83379 0.0
C1104 C 0.9107 0.20486 0.828 0.0
C1105 C 0.8327 0.15852 0.82113 0.0
C1106 C 0.91959 0.18706 0.80901 0.0
C1107 C 0.88553 0.15487 0.79636 0.0
H1108 H 0.78116 0.63643 0.8448 0.0
H1109 H 0.79477 0.73925 0.80113 0.0
H1110 H 0.85468 0.73813 0.78128 0.0
H1111 H 0.90676 0.71145 0.778 0.0
H1112 H 0.8931 0.60924 0.82223 0.0
H1113 H 0.82969 0.60653 0.83991 0.0
C1114 C 0.79691 0.65833 0.8308 0.0
C1115 C 0.78358 0.68805 0.82461 0.0
C1116 C 0.8316 0.6578 0.81955 0.0
C1117 C 0.80436 0.71608 0.80636 0.0
C1118 C 0.83875 0.71554 0.79498 0.0
C1119 C 0.88958 0.6882 0.79129 0.0
C1120 C 0.90509 0.66091 0.79884 0.0
C1121 C 0.85317 0.68704 0.80167 0.0
C1122 C 0.8823 0.63099 0.81615 0.0
C1123 C 0.84594 0.62936 0.82633 0.0
H1124 H 0.36956 0.2551 0.81359 0.0
H1125 H 0.27713 0.18464 0.76111 0.0
H1126 H 0.26863 0.11643 0.77529 0.0
H1127 H 0.28325 0.07625 0.80436 0.0
H1128 H 0.37494 0.14756 0.857 0.0
H1129 H 0.38781 0.21581 0.84091 0.0
C1130 C 0.34784 0.22493 0.80508 0.0
C1131 C 0.32374 0.22507 0.78644 0.0
C1132 C 0.34264 0.18581 0.81346 0.0
C1133 C 0.29599 0.18558 0.77557 0.0
C1134 C 0.29097 0.14647 0.7837 0.0
C1135 C 0.30633 0.10673 0.81218 0.0
C1136 C 0.32765 0.10665 0.83201 0.0
C1137 C 0.31346 0.1461 0.80292 0.0
C1138 C 0.35764 0.14652 0.84187 0.0
C1139 C 0.36513 0.18567 0.83268 0.0
H1140 H 0.93389 0.24252 0.52225 0.0
H1141 H 0.8616 0.25142 0.57853 0.0
H1142 H 0.79415 0.19111 0.56355 0.0
H1143 H 0.7552 0.13878 0.53323 0.0
H1144 H 0.82842 0.13276 0.47657 0.0
H1145 H 0.89603 0.18913 0.49304 0.0
C1146 C 0.90353 0.23116 0.53142 0.0
C1147 C 0.90288 0.2517 0.55145 0.0
C1148 C 0.86492 0.19714 0.52256 0.0
C1149 C 0.86309 0.23633 0.56304 0.0
C1150 C 0.82447 0.20191 0.55445 0.0
C1151 C 0.78599 0.1496 0.52458 0.0
C1152 C 0.78667 0.13173 0.50364 0.0
C1153 C 0.8249 0.18253 0.53403 0.0
C1154 C 0.82685 0.14613 0.49263 0.0
C1155 C 0.86561 0.17836 0.50204 0.0
H1156 H 0.73926 0.6077 0.55908 0.0
H1157 H 0.77326 0.72488 0.52208 0.0
H1158 H 0.8322 0.72064 0.50325 0.0
H1159 H 0.87071 0.68125 0.49526 0.0
H1160 H 0.83646 0.56318 0.53137 0.0
H1161 H 0.78112 0.57034 0.55259 0.0
C1162 C 0.75997 0.63265 0.54715 0.0
C1163 C 0.75159 0.66638 0.54192 0.0
C1164 C 0.79351 0.62967 0.53604 0.0
C1165 C 0.77869 0.69836 0.52633 0.0
C1166 C 0.81242 0.69596 0.51549 0.0
C1167 C 0.85138 0.65716 0.50787 0.0
C1168 C 0.85752 0.62155 0.51158 0.0
C1169 C 0.81951 0.6613 0.51987 0.0
C1170 C 0.8323 0.59083 0.52809 0.0
C1171 C 0.80062 0.59489 0.54024 0.0
H1172 H 0.38838 0.12409 0.5603 0.0
H1173 H 0.26213 0.03734 0.5317 0.0
H1174 H 0.26161 0.09849 0.51353 0.0
H1175 H 0.30006 0.17555 0.50283 0.0
H1176 H 0.42777 0.26167 0.53013 0.0
H1177 H 0.42454 0.20197 0.55171 0.0
C1178 C 0.36039 0.11868 0.55044 0.0
C1179 C 0.32551 0.07621 0.54726 0.0
C1180 C 0.36077 0.15385 0.53954 0.0
C1181 C 0.2896 0.06971 0.53429 0.0
C1182 C 0.28929 0.10464 0.52383 0.0
C1183 C 0.32693 0.18136 0.51371 0.0
C1184 C 0.36421 0.22292 0.5147 0.0
C1185 C 0.32521 0.1467 0.52585 0.0
C1186 C 0.3988 0.22989 0.52888 0.0
C1187 C 0.39701 0.19577 0.54127 0.0
H1188 H 0.36117 0.10747 0.16878 0.0
H1189 H 0.31598 0.14223 0.22839 0.0
H1190 H 0.30327 0.1928 0.20673 0.0
H1191 H 0.30419 0.22674 0.17097 0.0
H1192 H 0.34952 0.19269 0.11121 0.0
H1193 H 0.36231 0.14182 0.13283 0.0
C1194 C 0.34887 0.12633 0.1771 0.0
C1195 C 0.33974 0.12103 0.20026 0.0
C1196 C 0.34111 0.15513 0.16447 0.0
C1197 C 0.32351 0.14563 0.21065 0.0
C1198 C 0.316 0.17448 0.19825 0.0
C1199 C 0.31653 0.20797 0.16258 0.0
C1200 C 0.3257 0.21348 0.13945 0.0
C1201 C 0.32438 0.17926 0.17514 0.0
C1202 C 0.34207 0.18909 0.12897 0.0
C1203 C 0.34956 0.16009 0.14134 0.0
H1204 H 0.78764 0.1561 0.13181 0.0
H1205 H 0.78507 0.05502 0.173 0.0
H1206 H 0.83453 0.10907 0.19955 0.0
H1207 H 0.87845 0.1848 0.21132 0.0
H1208 H 0.88213 0.28651 0.17029 0.0
H1209 H 0.83191 0.23243 0.14372 0.0
C1210 C 0.79819 0.14593 0.14649 0.0
C1211 C 0.78263 0.10147 0.15029 0.0
C1212 C 0.82647 0.17725 0.16193 0.0
C1213 C 0.79644 0.08894 0.16955 0.0
C1214 C 0.82466 0.11984 0.18485 0.0
C1215 C 0.86799 0.1952 0.19669 0.0
C1216 C 0.88402 0.2397 0.19289 0.0
C1217 C 0.83967 0.16403 0.18129 0.0
C1218 C 0.87031 0.25248 0.17369 0.0
C1219 C 0.8417 0.22157 0.15841 0.0
H1220 H 0.91932 0.70058 0.17228 0.0
H1221 H 0.84101 0.65522 0.11245 0.0
H1222 H 0.77572 0.63873 0.13415 0.0
H1223 H 0.74056 0.6364 0.17029 0.0
H1224 H 0.81931 0.68146 0.23001 0.0
H1225 H 0.88438 0.69809 0.20824 0.0
C1226 C 0.8881 0.68764 0.1639 0.0
C1227 C 0.88523 0.67946 0.14072 0.0
C1228 C 0.85052 0.67745 0.17655 0.0
C1229 C 0.84427 0.66201 0.13026 0.0
C1230 C 0.80682 0.65233 0.14268 0.0
C1231 C 0.77186 0.64934 0.17858 0.0
C1232 C 0.77491 0.65747 0.20179 0.0
C1233 C 0.80945 0.65949 0.16589 0.0
C1234 C 0.81592 0.67481 0.21219 0.0
C1235 C 0.85326 0.68455 0.19973 0.0
H1236 H 0.69818 0.77387 0.83325 0.0
H1237 H 0.64839 0.80449 0.89254 0.0
H1238 H 0.63701 0.85631 0.87119 0.0
H1239 H 0.64021 0.89224 0.83582 0.0
H1240 H 0.691 0.8632 0.77648 0.0
H1241 H 0.70251 0.81101 0.79775 0.0
C1242 C 0.68523 0.79214 0.84158 0.0
C1243 C 0.67418 0.78518 0.8645 0.0
C1244 C 0.67843 0.82177 0.82916 0.0
C1245 C 0.65718 0.80907 0.87494 0.0
C1246 C 0.65049 0.83864 0.86272 0.0
C1247 C 0.6534 0.87422 0.82743 0.0
C1248 C 0.66438 0.88138 0.80453 0.0
C1249 C 0.6606 0.84493 0.83981 0.0
C1250 C 0.6821 0.8582 0.79406 0.0
C1251 C 0.68884 0.82848 0.80624 0.0
H1252 H 0.10884 0.74384 0.84318 0.0
H1253 H 0.13342 0.81989 0.7829 0.0
H1254 H 0.1862 0.88514 0.80284 0.0
H1255 H 0.22578 0.92063 0.83737 0.0
H1256 H 0.20081 0.84416 0.89755 0.0
H1257 H 0.14747 0.77931 0.87769 0.0
C1258 C 0.12594 0.7746 0.83433 0.0
C1259 C 0.11725 0.77683 0.81155 0.0
C1260 C 0.15592 0.8121 0.84594 0.0
C1261 C 0.13945 0.81715 0.80044 0.0
C1262 C 0.16958 0.85455 0.81184 0.0
C1263 C 0.20834 0.88989 0.84621 0.0
C1264 C 0.21736 0.88738 0.86893 0.0
C1265 C 0.17797 0.85246 0.83462 0.0
C1266 C 0.19465 0.84711 0.88005 0.0
C1267 C 0.16419 0.80991 0.8687 0.0
H1268 H 0.08209 0.29783 0.83623 0.0
H1269 H 0.16334 0.34736 0.89489 0.0
H1270 H 0.22701 0.35962 0.87288 0.0
H1271 H 0.25976 0.35679 0.83686 0.0
H1272 H 0.1781 0.3081 0.77823 0.0
H1273 H 0.11473 0.29562 0.80032 0.0
C1274 C 0.11359 0.31088 0.8443 0.0
C1275 C 0.11775 0.32136 0.86725 0.0
C1276 C 0.15021 0.31855 0.83147 0.0
C1277 C 0.15908 0.33886 0.87729 0.0
C1278 C 0.19559 0.34605 0.86468 0.0
C1279 C 0.22821 0.34381 0.82884 0.0
C1280 C 0.22392 0.3335 0.80584 0.0
C1281 C 0.19161 0.33631 0.84171 0.0
C1282 C 0.18256 0.31641 0.79585 0.0
C1283 C 0.14616 0.30906 0.80851 0.0
H1284 H 0.96888 0.55837 0.50518 0.0
H1285 H 0.01287 0.52231 0.44565 0.0
H1286 H 0.02985 0.47507 0.46802 0.0
H1287 H 0.03162 0.44364 0.50455 0.0
H1288 H 0.98777 0.48087 0.56379 0.0
H1289 H 0.97217 0.52861 0.54146 0.0
C1290 C 0.9818 0.53991 0.497 0.0
C1291 C 0.9892 0.54362 0.47372 0.0
C1292 C 0.99215 0.51346 0.50997 0.0
C1293 C 0.00663 0.51991 0.46352 0.0
C1294 C 0.01654 0.49304 0.47632 0.0
C1295 C 0.01921 0.46263 0.51263 0.0
C1296 C 0.01102 0.45861 0.53589 0.0
C1297 C 0.0096 0.4897 0.49959 0.0
C1298 C 0.99453 0.48324 0.54599 0.0
C1299 C 0.98531 0.51045 0.53319 0.0
H1300 H 0.54566 0.51786 0.54484 0.0
H1301 H 0.53384 0.61344 0.50566 0.0
H1302 H 0.48481 0.55706 0.4798 0.0
H1303 H 0.44612 0.48081 0.46791 0.0
H1304 H 0.45802 0.38524 0.50705 0.0
H1305 H 0.50668 0.44155 0.53305 0.0
C1306 C 0.53193 0.5263 0.53081 0.0
C1307 C 0.54333 0.56981 0.52727 0.0
C1308 C 0.50429 0.49382 0.51575 0.0
C1309 C 0.52561 0.5802 0.50883 0.0
C1310 C 0.49771 0.54801 0.49394 0.0
C1311 C 0.45973 0.47235 0.48198 0.0
C1312 C 0.44854 0.42887 0.48543 0.0
C1313 C 0.48721 0.50479 0.49709 0.0
C1314 C 0.4661 0.41845 0.50394 0.0
C1315 C 0.4938 0.4506 0.5189 0.0
H1316 H 0.51476 0.97131 0.46112 0.0
H1317 H 0.61527 0.07508 0.50026 0.0
H1318 H 0.5609 0.06633 0.52836 0.0
H1319 H 0.4846 0.02842 0.54207 0.0
H1320 H 0.38516 0.92394 0.50275 0.0
H1321 H 0.43947 0.9334 0.47477 0.0
C1322 C 0.52483 0.9924 0.47566 0.0
C1323 C 0.56909 0.02399 0.47844 0.0
C1324 C 0.49362 0.98664 0.49196 0.0
C1325 C 0.58143 0.0506 0.49759 0.0
C1326 C 0.55037 0.04547 0.51375 0.0
C1327 C 0.47491 0.00741 0.52751 0.0
C1328 C 0.43074 0.97544 0.52462 0.0
C1329 C 0.50638 0.01329 0.51123 0.0
C1330 C 0.4188 0.94882 0.50549 0.0
C1331 C 0.44985 0.9543 0.48937 0.0
loop_
_geom_bond_atom_site_label_1
_geom_bond_atom_site_label_2
_geom_bond_distance
_geom_bond_site_symmetry_2
_ccdc_geom_bond_type
Co0 O3 1.970 . S
Co0 N17 1.989 . S
Co0 O25 1.967 . S
Co0 O32 1.920 . S
Co1 O4 1.966 . S
Co1 N10 2.022 . S
Co1 N18 1.993 . S
Co1 O26 1.941 . S
C2 O3 1.258 . S
C2 O4 1.263 . S
O3 Co0 1.970 . S
O3 C2 1.258 . S
O4 Co1 1.966 . S
O4 C2 1.263 . S
C5 O6 1.235 . S
C5 O32 1.289 . S
O6 C5 1.235 . S
C7 C9 1.400 . S
C7 N10 1.351 . S
C7 C12 1.501 . S
C8 C9 1.387 . S
C8 N11 1.341 . S
C9 C7 1.400 . S
C9 C8 1.387 . S
N10 Co1 2.022 . S
N10 C7 1.351 . S
N10 N11 1.365 . S
N11 C8 1.341 . S
N11 N10 1.365 . S
N11 H31 0.862 . S
C12 C7 1.501 . S
C12 H13 0.961 . S
C12 H14 0.961 . S
C12 H15 0.960 . S
H13 C12 0.961 . S
H14 C12 0.961 . S
H15 C12 0.960 . S
C16 N17 1.342 . S
C16 C20 1.401 . S
C16 C21 1.499 . S
N17 Co0 1.989 . S
N17 C16 1.342 . S
N17 N18 1.388 . S
N18 Co1 1.993 . S
N18 N17 1.388 . S
N18 C19 1.346 . S
C19 N18 1.346 . S
C19 C20 1.396 . S
C19 C29 1.510 . S
C20 C16 1.401 . S
C20 C19 1.396 . S
C21 C16 1.499 . S
C21 H22 0.959 . S
C21 H23 0.960 . S
C21 H24 0.961 . S
H22 C21 0.959 . S
H23 C21 0.960 . S
H24 C21 0.961 . S
O25 Co0 1.967 . S
O25 C33 1.258 . S
O26 Co1 1.941 . S
O26 C33 1.266 . S
H27 C29 0.959 . S
H28 C29 0.961 . S
C29 C19 1.510 . S
C29 H27 0.959 . S
C29 H28 0.961 . S
C29 H30 0.960 . S
H30 C29 0.960 . S
H31 N11 0.862 . S
O32 Co0 1.920 . S
O32 C5 1.289 . S
C33 O25 1.258 . S
C33 O26 1.266 . S
Co34 O37 1.970 1_565 S
Co34 N51 1.989 . S
Co34 O59 1.967 . S
Co34 O66 1.920 . S
Co35 O38 1.966 . S
Co35 N44 2.022 . S
Co35 N52 1.993 1_545 S
Co35 O60 1.941 . S
C36 O37 1.258 . S
C36 O38 1.263 . S
O37 Co34 1.970 1_545 S
O37 C36 1.258 . S
O38 Co35 1.966 . S
O38 C36 1.263 . S
C39 O40 1.235 . S
C39 O66 1.289 . S
O40 C39 1.235 . S
C41 C43 1.400 . S
C41 N44 1.351 . S
C41 C46 1.501 . S
C42 C43 1.387 . S
C42 N45 1.341 . S
C43 C41 1.400 . S
C43 C42 1.387 . S
N44 Co35 2.022 . S
N44 C41 1.351 . S
N44 N45 1.365 . S
N45 C42 1.341 . S
N45 N44 1.365 . S
N45 H65 0.862 . S
C46 C41 1.501 . S
C46 H47 0.961 . S
C46 H48 0.961 . S
C46 H49 0.960 . S
H47 C46 0.961 . S
H48 C46 0.961 . S
H49 C46 0.960 . S
C50 N51 1.342 . S
C50 C54 1.401 . S
C50 C55 1.499 . S
N51 Co34 1.989 . S
N51 C50 1.342 . S
N51 N52 1.388 . S
N52 Co35 1.993 1_565 S
N52 N51 1.388 . S
N52 C53 1.346 . S
C53 N52 1.346 . S
C53 C54 1.396 . S
C53 C63 1.510 . S
C54 C50 1.401 . S
C54 C53 1.396 . S
C55 C50 1.499 . S
C55 H56 0.959 . S
C55 H57 0.960 . S
C55 H58 0.961 . S
H56 C55 0.959 . S
H57 C55 0.960 . S
H58 C55 0.961 . S
O59 Co34 1.967 . S
O59 C67 1.258 1_565 S
O60 Co35 1.941 . S
O60 C67 1.266 . S
H61 C63 0.959 . S
H62 C63 0.961 . S
C63 C53 1.510 . S
C63 H61 0.959 . S
C63 H62 0.961 . S
C63 H64 0.960 1_565 S
H64 C63 0.960 1_545 S
H65 N45 0.862 . S
O66 Co34 1.920 . S
O66 C39 1.289 . S
C67 O59 1.258 1_545 S
C67 O60 1.266 . S
Co68 O71 1.970 1_455 S
Co68 N85 1.989 . S
Co68 O93 1.967 . S
Co68 O100 1.920 . S
Co69 O72 1.966 . S
Co69 N78 2.022 . S
Co69 N86 1.993 1_655 S
Co69 O94 1.941 . S
C70 O71 1.258 . S
C70 O72 1.263 . S
O71 Co68 1.970 1_655 S
O71 C70 1.258 . S
O72 Co69 1.966 . S
O72 C70 1.263 . S
C73 O74 1.235 . S
C73 O100 1.289 . S
O74 C73 1.235 . S
C75 C77 1.400 . S
C75 N78 1.351 . S
C75 C80 1.501 . S
C76 C77 1.387 . S
C76 N79 1.341 . S
C77 C75 1.400 . S
C77 C76 1.387 . S
N78 Co69 2.022 . S
N78 C75 1.351 . S
N78 N79 1.365 . S
N79 C76 1.341 . S
N79 N78 1.365 . S
N79 H99 0.862 . S
C80 C75 1.501 . S
C80 H81 0.961 . S
C80 H82 0.961 . S
C80 H83 0.960 . S
H81 C80 0.961 . S
H82 C80 0.961 . S
H83 C80 0.960 . S
C84 N85 1.342 . S
C84 C88 1.401 . S
C84 C89 1.499 . S
N85 Co68 1.989 . S
N85 C84 1.342 . S
N85 N86 1.388 . S
N86 Co69 1.993 1_455 S
N86 N85 1.388 . S
N86 C87 1.346 . S
C87 N86 1.346 . S
C87 C88 1.396 . S
C87 C97 1.510 . S
C88 C84 1.401 . S
C88 C87 1.396 . S
C89 C84 1.499 . S
C89 H90 0.959 . S
C89 H91 0.960 . S
C89 H92 0.961 . S
H90 C89 0.959 . S
H91 C89 0.960 . S
H92 C89 0.961 . S
O93 Co68 1.967 . S
O93 C101 1.258 1_455 S
O94 Co69 1.941 . S
O94 C101 1.266 . S
H95 C97 0.959 . S
H96 C97 0.961 . S
C97 C87 1.510 . S
C97 H95 0.959 . S
C97 H96 0.961 . S
C97 H98 0.960 1_455 S
H98 C97 0.960 1_655 S
H99 N79 0.862 . S
O100 Co68 1.920 . S
O100 C73 1.289 . S
C101 O93 1.258 1_655 S
C101 O94 1.266 . S
Co102 O105 1.970 . S
Co102 N119 1.989 . S
Co102 O127 1.967 . S
Co102 O134 1.920 . S
Co103 O106 1.966 . S
Co103 N112 2.022 . S
Co103 N120 1.993 . S
Co103 O128 1.941 . S
C104 O105 1.258 . S
C104 O106 1.263 . S
O105 Co102 1.970 . S
O105 C104 1.258 . S
O106 Co103 1.966 . S
O106 C104 1.263 . S
C107 O108 1.235 . S
C107 O134 1.289 . S
O108 C107 1.235 . S
C109 C111 1.400 . S
C109 N112 1.351 . S
C109 C114 1.501 . S
C110 C111 1.387 . S
C110 N113 1.341 . S
C111 C109 1.400 . S
C111 C110 1.387 . S
N112 Co103 2.022 . S
N112 C109 1.351 . S
N112 N113 1.365 . S
N113 C110 1.341 . S
N113 N112 1.365 . S
N113 H133 0.862 . S
C114 C109 1.501 . S
C114 H115 0.961 . S
C114 H116 0.961 . S
C114 H117 0.960 . S
H115 C114 0.961 . S
H116 C114 0.961 . S
H117 C114 0.960 . S
C118 N119 1.342 . S
C118 C122 1.401 . S
C118 C123 1.499 . S
N119 Co102 1.989 . S
N119 C118 1.342 . S
N119 N120 1.388 . S
N120 Co103 1.993 . S
N120 N119 1.388 . S
N120 C121 1.346 . S
C121 N120 1.346 . S
C121 C122 1.396 . S
C121 C131 1.510 . S
C122 C118 1.401 . S
C122 C121 1.396 . S
C123 C118 1.499 . S
C123 H124 0.959 . S
C123 H125 0.960 . S
C123 H126 0.961 . S
H124 C123 0.959 . S
H125 C123 0.960 . S
H126 C123 0.961 . S
O127 Co102 1.967 . S
O127 C135 1.258 . S
O128 Co103 1.941 . S
O128 C135 1.266 . S
H129 C131 0.959 . S
H130 C131 0.961 . S
C131 C121 1.510 . S
C131 H129 0.959 . S
C131 H130 0.961 . S
C131 H132 0.960 . S
H132 C131 0.960 . S
H133 N113 0.862 . S
O134 Co102 1.920 . S
O134 C107 1.289 . S
C135 O127 1.258 . S
C135 O128 1.266 . S
Co136 O139 1.970 1_545 S
Co136 N153 1.989 . S
Co136 O161 1.967 . S
Co136 O168 1.920 . S
Co137 O140 1.966 . S
Co137 N146 2.022 . S
Co137 N154 1.993 1_565 S
Co137 O162 1.941 . S
C138 O139 1.258 . S
C138 O140 1.263 . S
O139 Co136 1.970 1_565 S
O139 C138 1.258 . S
O140 Co137 1.966 . S
O140 C138 1.263 . S
C141 O142 1.235 . S
C141 O168 1.289 . S
O142 C141 1.235 . S
C143 C145 1.400 . S
C143 N146 1.351 . S
C143 C148 1.501 . S
C144 C145 1.387 . S
C144 N147 1.341 . S
C145 C143 1.400 . S
C145 C144 1.387 . S
N146 Co137 2.022 . S
N146 C143 1.351 . S
N146 N147 1.365 . S
N147 C144 1.341 . S
N147 N146 1.365 . S
N147 H167 0.862 . S
C148 C143 1.501 . S
C148 H149 0.961 . S
C148 H150 0.961 . S
C148 H151 0.960 . S
H149 C148 0.961 . S
H150 C148 0.961 . S
H151 C148 0.960 . S
C152 N153 1.342 . S
C152 C156 1.401 . S
C152 C157 1.499 . S
N153 Co136 1.989 . S
N153 C152 1.342 . S
N153 N154 1.388 . S
N154 Co137 1.993 1_545 S
N154 N153 1.388 . S
N154 C155 1.346 . S
C155 N154 1.346 . S
C155 C156 1.396 . S
C155 C165 1.510 . S
C156 C152 1.401 . S
C156 C155 1.396 . S
C157 C152 1.499 . S
C157 H158 0.959 . S
C157 H159 0.960 . S
C157 H160 0.961 . S
H158 C157 0.959 . S
H159 C157 0.960 . S
H160 C157 0.961 . S
O161 Co136 1.967 . S
O161 C169 1.258 1_545 S
O162 Co137 1.941 . S
O162 C169 1.266 . S
H163 C165 0.959 . S
H164 C165 0.961 . S
C165 C155 1.510 . S
C165 H163 0.959 . S
C165 H164 0.961 . S
C165 H166 0.960 1_545 S
H166 C165 0.960 1_565 S
H167 N147 0.862 . S
O168 Co136 1.920 . S
O168 C141 1.289 . S
C169 O161 1.258 1_565 S
C169 O162 1.266 . S
Co170 O173 1.970 1_655 S
Co170 N187 1.989 . S
Co170 O195 1.967 . S
Co170 O202 1.920 . S
Co171 O174 1.966 . S
Co171 N180 2.022 . S
Co171 N188 1.993 1_455 S
Co171 O196 1.941 . S
C172 O173 1.258 . S
C172 O174 1.263 . S
O173 Co170 1.970 1_455 S
O173 C172 1.258 . S
O174 Co171 1.966 . S
O174 C172 1.263 . S
C175 O176 1.235 . S
C175 O202 1.289 . S
O176 C175 1.235 . S
C177 C179 1.400 . S
C177 N180 1.351 . S
C177 C182 1.501 . S
C178 C179 1.387 . S
C178 N181 1.341 . S
C179 C177 1.400 . S
C179 C178 1.387 . S
N180 Co171 2.022 . S
N180 C177 1.351 . S
N180 N181 1.365 . S
N181 C178 1.341 . S
N181 N180 1.365 . S
N181 H201 0.862 . S
C182 C177 1.501 . S
C182 H183 0.961 . S
C182 H184 0.961 . S
C182 H185 0.960 . S
H183 C182 0.961 . S
H184 C182 0.961 . S
H185 C182 0.960 . S
C186 N187 1.342 . S
C186 C190 1.401 . S
C186 C191 1.499 . S
N187 Co170 1.989 . S
N187 C186 1.342 . S
N187 N188 1.388 . S
N188 Co171 1.993 1_655 S
N188 N187 1.388 . S
N188 C189 1.346 . S
C189 N188 1.346 . S
C189 C190 1.396 . S
C189 C199 1.510 . S
C190 C186 1.401 . S
C190 C189 1.396 . S
C191 C186 1.499 . S
C191 H192 0.959 . S
C191 H193 0.960 . S
C191 H194 0.961 . S
H192 C191 0.959 . S
H193 C191 0.960 . S
H194 C191 0.961 . S
O195 Co170 1.967 . S
O195 C203 1.258 1_655 S
O196 Co171 1.941 . S
O196 C203 1.266 . S
H197 C199 0.959 . S
H198 C199 0.961 . S
C199 C189 1.510 . S
C199 H197 0.959 . S
C199 H198 0.961 . S
C199 H200 0.960 1_655 S
H200 C199 0.960 1_455 S
H201 N181 0.862 . S
O202 Co170 1.920 . S
O202 C175 1.289 . S
C203 O195 1.258 1_455 S
C203 O196 1.266 . S
Co204 O207 1.970 . S
Co204 N221 1.989 . S
Co204 O229 1.967 1_655 S
Co204 O236 1.920 . S
Co205 O208 1.966 . S
Co205 N214 2.022 . S
Co205 N222 1.993 1_455 S
Co205 O230 1.941 . S
C206 O207 1.258 . S
C206 O208 1.263 1_655 S
O207 Co204 1.970 . S
O207 C206 1.258 . S
O208 Co205 1.966 . S
O208 C206 1.263 1_455 S
C209 O210 1.235 . S
C209 O236 1.289 . S
O210 C209 1.235 . S
C211 C213 1.400 . S
C211 N214 1.351 . S
C211 C216 1.501 . S
C212 C213 1.387 . S
C212 N215 1.341 . S
C213 C211 1.400 . S
C213 C212 1.387 . S
N214 Co205 2.022 . S
N214 C211 1.351 . S
N214 N215 1.365 . S
N215 C212 1.341 . S
N215 N214 1.365 . S
N215 H235 0.862 . S
C216 C211 1.501 . S
C216 H217 0.961 . S
C216 H218 0.961 1_455 S
C216 H219 0.960 . S
H217 C216 0.961 . S
H218 C216 0.961 1_655 S
H219 C216 0.960 . S
C220 N221 1.342 . S
C220 C224 1.401 . S
C220 C225 1.499 . S
N221 Co204 1.989 . S
N221 C220 1.342 . S
N221 N222 1.388 . S
N222 Co205 1.993 1_655 S
N222 N221 1.388 . S
N222 C223 1.346 . S
C223 N222 1.346 . S
C223 C224 1.396 . S
C223 C233 1.510 . S
C224 C220 1.401 . S
C224 C223 1.396 . S
C225 C220 1.499 . S
C225 H226 0.959 . S
C225 H227 0.960 . S
C225 H228 0.961 . S
H226 C225 0.959 . S
H227 C225 0.960 . S
H228 C225 0.961 . S
O229 Co204 1.967 1_455 S
O229 C237 1.258 . S
O230 Co205 1.941 . S
O230 C237 1.266 . S
H231 C233 0.959 . S
H232 C233 0.961 . S
C233 C223 1.510 . S
C233 H231 0.959 . S
C233 H232 0.961 . S
C233 H234 0.960 . S
H234 C233 0.960 . S
H235 N215 0.862 . S
O236 Co204 1.920 . S
O236 C209 1.289 . S
C237 O229 1.258 . S
C237 O230 1.266 . S
Co238 O241 1.970 . S
Co238 N255 1.989 . S
Co238 O263 1.967 . S
Co238 O270 1.920 . S
Co239 O242 1.966 . S
Co239 N248 2.022 . S
Co239 N256 1.993 . S
Co239 O264 1.941 . S
C240 O241 1.258 . S
C240 O242 1.263 . S
O241 Co238 1.970 . S
O241 C240 1.258 . S
O242 Co239 1.966 . S
O242 C240 1.263 . S
C243 O244 1.235 . S
C243 O270 1.289 . S
O244 C243 1.235 . S
C245 C247 1.400 . S
C245 N248 1.351 . S
C245 C250 1.501 . S
C246 C247 1.387 . S
C246 N249 1.341 . S
C247 C245 1.400 . S
C247 C246 1.387 . S
N248 Co239 2.022 . S
N248 C245 1.351 . S
N248 N249 1.365 . S
N249 C246 1.341 . S
N249 N248 1.365 . S
N249 H269 0.862 . S
C250 C245 1.501 . S
C250 H251 0.961 . S
C250 H252 0.961 . S
C250 H253 0.960 . S
H251 C250 0.961 . S
H252 C250 0.961 . S
H253 C250 0.960 . S
C254 N255 1.342 . S
C254 C258 1.401 . S
C254 C259 1.499 . S
N255 Co238 1.989 . S
N255 C254 1.342 . S
N255 N256 1.388 . S
N256 Co239 1.993 . S
N256 N255 1.388 . S
N256 C257 1.346 . S
C257 N256 1.346 . S
C257 C258 1.396 . S
C257 C267 1.510 . S
C258 C254 1.401 . S
C258 C257 1.396 . S
C259 C254 1.499 . S
C259 H260 0.959 . S
C259 H261 0.960 . S
C259 H262 0.961 . S
H260 C259 0.959 . S
H261 C259 0.960 . S
H262 C259 0.961 . S
O263 Co238 1.967 . S
O263 C271 1.258 . S
O264 Co239 1.941 . S
O264 C271 1.266 . S
H265 C267 0.959 . S
H266 C267 0.961 . S
C267 C257 1.510 . S
C267 H265 0.959 . S
C267 H266 0.961 . S
C267 H268 0.960 . S
H268 C267 0.960 . S
H269 N249 0.862 . S
O270 Co238 1.920 . S
O270 C243 1.289 . S
C271 O263 1.258 . S
C271 O264 1.266 . S
Co272 O275 1.970 . S
Co272 N289 1.989 . S
Co272 O297 1.967 1_545 S
Co272 O304 1.920 . S
Co273 O276 1.966 . S
Co273 N282 2.022 . S
Co273 N290 1.993 1_565 S
Co273 O298 1.941 . S
C274 O275 1.258 . S
C274 O276 1.263 1_545 S
O275 Co272 1.970 . S
O275 C274 1.258 . S
O276 Co273 1.966 . S
O276 C274 1.263 1_565 S
C277 O278 1.235 . S
C277 O304 1.289 . S
O278 C277 1.235 . S
C279 C281 1.400 . S
C279 N282 1.351 . S
C279 C284 1.501 . S
C280 C281 1.387 . S
C280 N283 1.341 . S
C281 C279 1.400 . S
C281 C280 1.387 . S
N282 Co273 2.022 . S
N282 C279 1.351 . S
N282 N283 1.365 . S
N283 C280 1.341 . S
N283 N282 1.365 . S
N283 H303 0.862 . S
C284 C279 1.501 . S
C284 H285 0.961 . S
C284 H286 0.961 1_565 S
C284 H287 0.960 . S
H285 C284 0.961 . S
H286 C284 0.961 1_545 S
H287 C284 0.960 . S
C288 N289 1.342 . S
C288 C292 1.401 . S
C288 C293 1.499 . S
N289 Co272 1.989 . S
N289 C288 1.342 . S
N289 N290 1.388 . S
N290 Co273 1.993 1_545 S
N290 N289 1.388 . S
N290 C291 1.346 . S
C291 N290 1.346 . S
C291 C292 1.396 . S
C291 C301 1.510 . S
C292 C288 1.401 . S
C292 C291 1.396 . S
C293 C288 1.499 . S
C293 H294 0.959 . S
C293 H295 0.960 . S
C293 H296 0.961 . S
H294 C293 0.959 . S
H295 C293 0.960 . S
H296 C293 0.961 . S
O297 Co272 1.967 1_565 S
O297 C305 1.258 . S
O298 Co273 1.941 . S
O298 C305 1.266 . S
H299 C301 0.959 . S
H300 C301 0.961 . S
C301 C291 1.510 . S
C301 H299 0.959 . S
C301 H300 0.961 . S
C301 H302 0.960 . S
H302 C301 0.960 . S
H303 N283 0.862 . S
O304 Co272 1.920 . S
O304 C277 1.289 . S
C305 O297 1.258 . S
C305 O298 1.266 . S
Co306 O309 1.970 1_565 S
Co306 N323 1.989 . S
Co306 O331 1.967 . S
Co306 O338 1.920 . S
Co307 O310 1.966 . S
Co307 N316 2.022 . S
Co307 N324 1.993 . S
Co307 O332 1.941 1_545 S
C308 O309 1.258 . S
C308 O310 1.263 . S
O309 Co306 1.970 1_545 S
O309 C308 1.258 . S
O310 Co307 1.966 . S
O310 C308 1.263 . S
C311 O312 1.226 1_565 S
C311 O338 1.291 . S
O312 C311 1.226 1_545 S
C313 C315 1.400 . S
C313 N316 1.351 . S
C313 C318 1.501 . S
C314 C315 1.387 . S
C314 N317 1.341 . S
C315 C313 1.400 . S
C315 C314 1.387 . S
N316 Co307 2.022 . S
N316 C313 1.351 . S
N316 N317 1.365 . S
N317 C314 1.341 . S
N317 N316 1.365 . S
N317 H337 0.862 1_545 S
C318 C313 1.501 . S
C318 H319 0.961 . S
C318 H320 0.961 . S
C318 H321 0.960 . S
H319 C318 0.961 . S
H320 C318 0.961 . S
H321 C318 0.960 . S
C322 N323 1.343 . S
C322 C326 1.401 . S
C322 C327 1.499 . S
N323 Co306 1.989 . S
N323 C322 1.343 . S
N323 N324 1.387 1_565 S
N324 Co307 1.993 . S
N324 N323 1.387 1_545 S
N324 C325 1.346 . S
C325 N324 1.346 . S
C325 C326 1.396 1_545 S
C325 C335 1.510 . S
C326 C322 1.401 . S
C326 C325 1.396 1_565 S
C327 C322 1.499 . S
C327 H328 0.959 . S
C327 H329 0.960 . S
C327 H330 0.961 . S
H328 C327 0.959 . S
H329 C327 0.960 . S
H330 C327 0.961 . S
O331 Co306 1.967 . S
O331 C339 1.258 . S
O332 Co307 1.941 1_565 S
O332 C339 1.266 . S
H333 C335 0.959 . S
H334 C335 0.961 . S
C335 C325 1.510 . S
C335 H333 0.959 . S
C335 H334 0.961 . S
C335 H336 0.960 . S
H336 C335 0.960 . S
H337 N317 0.862 1_565 S
O338 Co306 1.920 . S
O338 C311 1.291 . S
C339 O331 1.258 . S
C339 O332 1.266 . S
Co340 O343 1.970 1_455 S
Co340 N357 1.988 1_455 S
Co340 O365 1.967 . S
Co340 O372 1.920 . S
Co341 O344 1.966 . S
Co341 N350 2.022 . S
Co341 N358 1.993 . S
Co341 O366 1.941 1_655 S
C342 O343 1.258 . S
C342 O344 1.263 . S
O343 Co340 1.970 1_655 S
O343 C342 1.258 . S
O344 Co341 1.966 . S
O344 C342 1.263 . S
C345 O346 1.235 . S
C345 O372 1.289 1_655 S
O346 C345 1.235 . S
C347 C349 1.400 . S
C347 N350 1.351 . S
C347 C352 1.501 . S
C348 C349 1.387 . S
C348 N351 1.341 . S
C349 C347 1.400 . S
C349 C348 1.387 . S
N350 Co341 2.022 . S
N350 C347 1.351 . S
N350 N351 1.365 . S
N351 C348 1.341 . S
N351 N350 1.365 . S
N351 H371 0.862 1_655 S
C352 C347 1.501 . S
C352 H353 0.961 . S
C352 H354 0.961 . S
C352 H355 0.960 . S
H353 C352 0.961 . S
H354 C352 0.961 . S
H355 C352 0.960 . S
C356 N357 1.344 1_455 S
C356 C360 1.403 . S
C356 C361 1.499 . S
N357 Co340 1.988 1_655 S
N357 C356 1.344 1_655 S
N357 N358 1.387 . S
N358 Co341 1.993 . S
N358 N357 1.387 . S
N358 C359 1.346 . S
C359 N358 1.346 . S
C359 C360 1.400 1_655 S
C359 C369 1.510 . S
C360 C356 1.403 . S
C360 C359 1.400 1_455 S
C361 C356 1.499 . S
C361 H362 0.959 . S
C361 H363 0.960 . S
C361 H364 0.961 . S
H362 C361 0.959 . S
H363 C361 0.960 . S
H364 C361 0.961 . S
O365 Co340 1.967 . S
O365 C373 1.258 . S
O366 Co341 1.941 1_455 S
O366 C373 1.266 . S
H367 C369 0.959 . S
H368 C369 0.961 . S
C369 C359 1.510 . S
C369 H367 0.959 . S
C369 H368 0.961 . S
C369 H370 0.960 . S
H370 C369 0.960 . S
H371 N351 0.862 1_455 S
O372 Co340 1.920 . S
O372 C345 1.289 1_455 S
C373 O365 1.258 . S
C373 O366 1.266 . S
Co374 O377 1.970 . S
Co374 N391 1.989 . S
Co374 O399 1.967 . S
Co374 O406 1.920 . S
Co375 O378 1.966 . S
Co375 N384 2.022 . S
Co375 N392 1.993 . S
Co375 O400 1.941 . S
C376 O377 1.258 . S
C376 O378 1.263 . S
O377 Co374 1.970 . S
O377 C376 1.258 . S
O378 Co375 1.966 . S
O378 C376 1.263 . S
C379 O380 1.235 . S
C379 O406 1.289 . S
O380 C379 1.235 . S
C381 C383 1.400 . S
C381 N384 1.351 . S
C381 C386 1.501 . S
C382 C383 1.387 . S
C382 N385 1.341 . S
C383 C381 1.400 . S
C383 C382 1.387 . S
N384 Co375 2.022 . S
N384 C381 1.351 . S
N384 N385 1.365 . S
N385 C382 1.341 . S
N385 N384 1.365 . S
N385 H405 0.862 . S
C386 C381 1.501 . S
C386 H387 0.961 . S
C386 H388 0.961 . S
C386 H389 0.960 . S
H387 C386 0.961 . S
H388 C386 0.961 . S
H389 C386 0.960 . S
C390 N391 1.342 . S
C390 C394 1.401 . S
C390 C395 1.499 . S
N391 Co374 1.989 . S
N391 C390 1.342 . S
N391 N392 1.388 . S
N392 Co375 1.993 . S
N392 N391 1.388 . S
N392 C393 1.346 . S
C393 N392 1.346 . S
C393 C394 1.396 . S
C393 C403 1.510 . S
C394 C390 1.401 . S
C394 C393 1.396 . S
C395 C390 1.499 . S
C395 H396 0.959 . S
C395 H397 0.960 . S
C395 H398 0.961 . S
H396 C395 0.959 . S
H397 C395 0.960 . S
H398 C395 0.961 . S
O399 Co374 1.967 . S
O399 C407 1.258 . S
O400 Co375 1.941 . S
O400 C407 1.266 . S
H401 C403 0.959 . S
H402 C403 0.961 . S
C403 C393 1.510 . S
C403 H401 0.959 . S
C403 H402 0.961 . S
C403 H404 0.960 . S
H404 C403 0.960 . S
H405 N385 0.862 . S
O406 Co374 1.920 . S
O406 C379 1.289 . S
C407 O399 1.258 . S
C407 O400 1.266 . S
Co408 O411 1.970 1_545 S
Co408 N425 1.989 . S
Co408 O433 1.967 . S
Co408 O440 1.920 . S
Co409 O412 1.966 . S
Co409 N418 2.022 . S
Co409 N426 1.993 . S
Co409 O434 1.941 1_565 S
C410 O411 1.258 . S
C410 O412 1.263 . S
O411 Co408 1.970 1_565 S
O411 C410 1.258 . S
O412 Co409 1.966 . S
O412 C410 1.263 . S
C413 O414 1.226 1_545 S
C413 O440 1.291 . S
O414 C413 1.226 1_565 S
C415 C417 1.400 . S
C415 N418 1.351 . S
C415 C420 1.501 . S
C416 C417 1.387 . S
C416 N419 1.341 . S
C417 C415 1.400 . S
C417 C416 1.387 . S
N418 Co409 2.022 . S
N418 C415 1.351 . S
N418 N419 1.365 . S
N419 C416 1.341 . S
N419 N418 1.365 . S
N419 H439 0.862 1_565 S
C420 C415 1.501 . S
C420 H421 0.961 . S
C420 H422 0.961 . S
C420 H423 0.960 . S
H421 C420 0.961 . S
H422 C420 0.961 . S
H423 C420 0.960 . S
C424 N425 1.343 . S
C424 C428 1.401 . S
C424 C429 1.499 . S
N425 Co408 1.989 . S
N425 C424 1.343 . S
N425 N426 1.387 1_545 S
N426 Co409 1.993 . S
N426 N425 1.387 1_565 S
N426 C427 1.346 . S
C427 N426 1.346 . S
C427 C428 1.396 1_565 S
C427 C437 1.510 . S
C428 C424 1.401 . S
C428 C427 1.396 1_545 S
C429 C424 1.499 . S
C429 H430 0.959 . S
C429 H431 0.960 . S
C429 H432 0.961 . S
H430 C429 0.959 . S
H431 C429 0.960 . S
H432 C429 0.961 . S
O433 Co408 1.967 . S
O433 C441 1.258 . S
O434 Co409 1.941 1_545 S
O434 C441 1.266 . S
H435 C437 0.959 . S
H436 C437 0.961 . S
C437 C427 1.510 . S
C437 H435 0.959 . S
C437 H436 0.961 . S
C437 H438 0.960 . S
H438 C437 0.960 . S
H439 N419 0.862 1_545 S
O440 Co408 1.920 . S
O440 C413 1.291 . S
C441 O433 1.258 . S
C441 O434 1.266 . S
Co442 O445 1.970 1_655 S
Co442 N459 1.988 1_655 S
Co442 O467 1.967 . S
Co442 O474 1.920 . S
Co443 O446 1.966 . S
Co443 N452 2.022 . S
Co443 N460 1.993 . S
Co443 O468 1.941 1_455 S
C444 O445 1.258 . S
C444 O446 1.263 . S
O445 Co442 1.970 1_455 S
O445 C444 1.258 . S
O446 Co443 1.966 . S
O446 C444 1.263 . S
C447 O448 1.235 . S
C447 O474 1.289 1_455 S
O448 C447 1.235 . S
C449 C451 1.400 . S
C449 N452 1.351 . S
C449 C454 1.501 . S
C450 C451 1.387 . S
C450 N453 1.341 . S
C451 C449 1.400 . S
C451 C450 1.387 . S
N452 Co443 2.022 . S
N452 C449 1.351 . S
N452 N453 1.365 . S
N453 C450 1.341 . S
N453 N452 1.365 . S
N453 H473 0.862 1_455 S
C454 C449 1.501 . S
C454 H455 0.961 . S
C454 H456 0.961 . S
C454 H457 0.960 . S
H455 C454 0.961 . S
H456 C454 0.961 . S
H457 C454 0.960 . S
C458 N459 1.344 1_655 S
C458 C462 1.403 . S
C458 C463 1.499 . S
N459 Co442 1.988 1_455 S
N459 C458 1.344 1_455 S
N459 N460 1.387 . S
N460 Co443 1.993 . S
N460 N459 1.387 . S
N460 C461 1.346 . S
C461 N460 1.346 . S
C461 C462 1.400 1_455 S
C461 C471 1.510 . S
C462 C458 1.403 . S
C462 C461 1.400 1_655 S
C463 C458 1.499 . S
C463 H464 0.959 . S
C463 H465 0.960 . S
C463 H466 0.961 . S
H464 C463 0.959 . S
H465 C463 0.960 . S
H466 C463 0.961 . S
O467 Co442 1.967 . S
O467 C475 1.258 . S
O468 Co443 1.941 1_655 S
O468 C475 1.266 . S
H469 C471 0.959 . S
H470 C471 0.961 . S
C471 C461 1.510 . S
C471 H469 0.959 . S
C471 H470 0.961 . S
C471 H472 0.960 . S
H472 C471 0.960 . S
H473 N453 0.862 1_655 S
O474 Co442 1.920 . S
O474 C447 1.289 1_655 S
C475 O467 1.258 . S
C475 O468 1.266 . S
Co476 O479 1.970 . S
Co476 N493 1.989 . S
Co476 O501 1.967 . S
Co476 O508 1.920 . S
Co477 O480 1.966 . S
Co477 N486 2.022 . S
Co477 N494 1.993 . S
Co477 O502 1.941 . S
C478 O479 1.258 . S
C478 O480 1.263 . S
O479 Co476 1.970 . S
O479 C478 1.258 . S
O480 Co477 1.966 . S
O480 C478 1.263 . S
C481 O482 1.235 . S
C481 O508 1.289 . S
O482 C481 1.235 . S
C483 C485 1.400 . S
C483 N486 1.351 . S
C483 C488 1.501 . S
C484 C485 1.387 . S
C484 N487 1.341 . S
C485 C483 1.400 . S
C485 C484 1.387 . S
N486 Co477 2.022 . S
N486 C483 1.351 . S
N486 N487 1.365 . S
N487 C484 1.341 . S
N487 N486 1.365 . S
N487 H507 0.862 . S
C488 C483 1.501 . S
C488 H489 0.961 . S
C488 H490 0.961 . S
C488 H491 0.960 . S
H489 C488 0.961 . S
H490 C488 0.961 . S
H491 C488 0.960 . S
C492 N493 1.342 . S
C492 C496 1.401 . S
C492 C497 1.499 . S
N493 Co476 1.989 . S
N493 C492 1.342 . S
N493 N494 1.388 . S
N494 Co477 1.993 . S
N494 N493 1.388 . S
N494 C495 1.346 . S
C495 N494 1.346 . S
C495 C496 1.396 . S
C495 C505 1.510 . S
C496 C492 1.401 . S
C496 C495 1.396 . S
C497 C492 1.499 . S
C497 H498 0.959 . S
C497 H499 0.960 . S
C497 H500 0.961 . S
H498 C497 0.959 . S
H499 C497 0.960 . S
H500 C497 0.961 . S
O501 Co476 1.967 . S
O501 C509 1.258 . S
O502 Co477 1.941 . S
O502 C509 1.266 . S
H503 C505 0.959 . S
H504 C505 0.961 . S
C505 C495 1.510 . S
C505 H503 0.959 . S
C505 H504 0.961 . S
C505 H506 0.960 . S
H506 C505 0.960 . S
H507 N487 0.862 . S
O508 Co476 1.920 . S
O508 C481 1.289 . S
C509 O501 1.258 . S
C509 O502 1.266 . S
Co510 O513 1.970 . S
Co510 N527 1.989 . S
Co510 O535 1.967 1_455 S
Co510 O542 1.920 . S
Co511 O514 1.966 . S
Co511 N520 2.022 . S
Co511 N528 1.993 1_655 S
Co511 O536 1.941 . S
C512 O513 1.258 . S
C512 O514 1.263 1_455 S
O513 Co510 1.970 . S
O513 C512 1.258 . S
O514 Co511 1.966 . S
O514 C512 1.263 1_655 S
C515 O516 1.235 . S
C515 O542 1.289 . S
O516 C515 1.235 . S
C517 C519 1.400 . S
C517 N520 1.351 . S
C517 C522 1.501 . S
C518 C519 1.387 . S
C518 N521 1.341 . S
C519 C517 1.400 . S
C519 C518 1.387 . S
N520 Co511 2.022 . S
N520 C517 1.351 . S
N520 N521 1.365 . S
N521 C518 1.341 . S
N521 N520 1.365 . S
N521 H541 0.862 . S
C522 C517 1.501 . S
C522 H523 0.961 . S
C522 H524 0.961 1_655 S
C522 H525 0.960 . S
H523 C522 0.961 . S
H524 C522 0.961 1_455 S
H525 C522 0.960 . S
C526 N527 1.342 . S
C526 C530 1.401 . S
C526 C531 1.499 . S
N527 Co510 1.989 . S
N527 C526 1.342 . S
N527 N528 1.388 . S
N528 Co511 1.993 1_455 S
N528 N527 1.388 . S
N528 C529 1.346 . S
C529 N528 1.346 . S
C529 C530 1.396 . S
C529 C539 1.510 . S
C530 C526 1.401 . S
C530 C529 1.396 . S
C531 C526 1.499 . S
C531 H532 0.959 . S
C531 H533 0.960 . S
C531 H534 0.961 . S
H532 C531 0.959 . S
H533 C531 0.960 . S
H534 C531 0.961 . S
O535 Co510 1.967 1_655 S
O535 C543 1.258 . S
O536 Co511 1.941 . S
O536 C543 1.266 . S
H537 C539 0.959 . S
H538 C539 0.961 . S
C539 C529 1.510 . S
C539 H537 0.959 . S
C539 H538 0.961 . S
C539 H540 0.960 . S
H540 C539 0.960 . S
H541 N521 0.862 . S
O542 Co510 1.920 . S
O542 C515 1.289 . S
C543 O535 1.258 . S
C543 O536 1.266 . S
Co544 O547 1.970 . S
Co544 N561 1.989 . S
Co544 O569 1.967 . S
Co544 O576 1.920 . S
Co545 O548 1.966 . S
Co545 N554 2.022 . S
Co545 N562 1.993 . S
Co545 O570 1.941 . S
C546 O547 1.258 . S
C546 O548 1.263 . S
O547 Co544 1.970 . S
O547 C546 1.258 . S
O548 Co545 1.966 . S
O548 C546 1.263 . S
C549 O550 1.235 . S
C549 O576 1.289 . S
O550 C549 1.235 . S
C551 C553 1.400 . S
C551 N554 1.351 . S
C551 C556 1.501 . S
C552 C553 1.387 . S
C552 N555 1.341 . S
C553 C551 1.400 . S
C553 C552 1.387 . S
N554 Co545 2.022 . S
N554 C551 1.351 . S
N554 N555 1.365 . S
N555 C552 1.341 . S
N555 N554 1.365 . S
N555 H575 0.862 . S
C556 C551 1.501 . S
C556 H557 0.961 . S
C556 H558 0.961 . S
C556 H559 0.960 . S
H557 C556 0.961 . S
H558 C556 0.961 . S
H559 C556 0.960 . S
C560 N561 1.342 . S
C560 C564 1.401 . S
C560 C565 1.499 . S
N561 Co544 1.989 . S
N561 C560 1.342 . S
N561 N562 1.388 . S
N562 Co545 1.993 . S
N562 N561 1.388 . S
N562 C563 1.346 . S
C563 N562 1.346 . S
C563 C564 1.396 . S
C563 C573 1.510 . S
C564 C560 1.401 . S
C564 C563 1.396 . S
C565 C560 1.499 . S
C565 H566 0.959 . S
C565 H567 0.960 . S
C565 H568 0.961 . S
H566 C565 0.959 . S
H567 C565 0.960 . S
H568 C565 0.961 . S
O569 Co544 1.967 . S
O569 C577 1.258 . S
O570 Co545 1.941 . S
O570 C577 1.266 . S
H571 C573 0.959 . S
H572 C573 0.961 . S
C573 C563 1.510 . S
C573 H571 0.959 . S
C573 H572 0.961 . S
C573 H574 0.960 . S
H574 C573 0.960 . S
H575 N555 0.862 . S
O576 Co544 1.920 . S
O576 C549 1.289 . S
C577 O569 1.258 . S
C577 O570 1.266 . S
Co578 O581 1.970 . S
Co578 N595 1.989 . S
Co578 O603 1.967 1_565 S
Co578 O610 1.920 . S
Co579 O582 1.966 . S
Co579 N588 2.022 . S
Co579 N596 1.993 1_545 S
Co579 O604 1.941 . S
C580 O581 1.258 . S
C580 O582 1.263 1_565 S
O581 Co578 1.970 . S
O581 C580 1.258 . S
O582 Co579 1.966 . S
O582 C580 1.263 1_545 S
C583 O584 1.235 . S
C583 O610 1.289 . S
O584 C583 1.235 . S
C585 C587 1.400 . S
C585 N588 1.351 . S
C585 C590 1.501 . S
C586 C587 1.387 . S
C586 N589 1.341 . S
C587 C585 1.400 . S
C587 C586 1.387 . S
N588 Co579 2.022 . S
N588 C585 1.351 . S
N588 N589 1.365 . S
N589 C586 1.341 . S
N589 N588 1.365 . S
N589 H609 0.862 . S
C590 C585 1.501 . S
C590 H591 0.961 . S
C590 H592 0.961 1_545 S
C590 H593 0.960 . S
H591 C590 0.961 . S
H592 C590 0.961 1_565 S
H593 C590 0.960 . S
C594 N595 1.342 . S
C594 C598 1.401 . S
C594 C599 1.499 . S
N595 Co578 1.989 . S
N595 C594 1.342 . S
N595 N596 1.388 . S
N596 Co579 1.993 1_565 S
N596 N595 1.388 . S
N596 C597 1.346 . S
C597 N596 1.346 . S
C597 C598 1.396 . S
C597 C607 1.510 . S
C598 C594 1.401 . S
C598 C597 1.396 . S
C599 C594 1.499 . S
C599 H600 0.959 . S
C599 H601 0.960 . S
C599 H602 0.961 . S
H600 C599 0.959 . S
H601 C599 0.960 . S
H602 C599 0.961 . S
O603 Co578 1.967 1_545 S
O603 C611 1.258 . S
O604 Co579 1.941 . S
O604 C611 1.266 . S
H605 C607 0.959 . S
H606 C607 0.961 . S
C607 C597 1.510 . S
C607 H605 0.959 . S
C607 H606 0.961 . S
C607 H608 0.960 . S
H608 C607 0.960 . S
H609 N589 0.862 . S
O610 Co578 1.920 . S
O610 C583 1.289 . S
C611 O603 1.258 . S
C611 O604 1.266 . S
H612 C618 0.930 . S
H613 C621 0.930 . S
H614 C622 0.930 . S
H615 C623 0.930 . S
H616 C626 0.930 . S
H617 C627 0.930 . S
C618 H612 0.930 . S
C618 C619 1.355 1_556 S
C618 C620 1.415 . S
C619 C618 1.355 1_554 S
C619 C621 1.419 . S
C620 C618 1.415 . S
C620 C625 1.425 . S
C620 C627 1.409 . S
C621 H613 0.930 . S
C621 C619 1.419 . S
C621 C622 1.362 . S
C622 H614 0.930 . S
C622 C621 1.362 . S
C622 C625 1.409 1_554 S
C623 H615 0.930 . S
C623 C624 1.355 . S
C623 C625 1.415 . S
C624 C623 1.355 . S
C624 C626 1.419 . S
C625 C620 1.425 . S
C625 C622 1.409 1_556 S
C625 C623 1.415 . S
C626 H616 0.930 . S
C626 C624 1.419 . S
C626 C627 1.362 . S
C627 H617 0.930 . S
C627 C620 1.409 . S
C627 C626 1.362 . S
H628 C634 0.930 . S
H629 C637 0.930 . S
H630 C638 0.930 . S
H631 C639 0.930 . S
H632 C642 0.930 . S
H633 C643 0.930 . S
C634 H628 0.930 . S
C634 C635 1.355 . S
C634 C636 1.415 1_554 S
C635 C634 1.355 . S
C635 C637 1.419 . S
C636 C634 1.415 1_556 S
C636 C641 1.425 . S
C636 C643 1.409 . S
C637 H629 0.930 . S
C637 C635 1.419 . S
C637 C638 1.362 . S
C638 H630 0.930 . S
C638 C637 1.362 . S
C638 C641 1.409 1_554 S
C639 H631 0.930 . S
C639 C640 1.355 . S
C639 C641 1.415 . S
C640 C639 1.355 . S
C640 C642 1.419 . S
C641 C636 1.425 . S
C641 C638 1.409 1_556 S
C641 C639 1.415 . S
C642 H632 0.930 . S
C642 C640 1.419 . S
C642 C643 1.362 . S
C643 H633 0.930 . S
C643 C636 1.409 . S
C643 C642 1.362 . S
H644 C650 0.930 . S
H645 C653 0.930 . S
H646 C654 0.930 . S
H647 C655 0.930 . S
H648 C658 0.930 . S
H649 C659 0.930 . S
C650 H644 0.930 . S
C650 C651 1.355 . S
C650 C652 1.408 1_554 S
C651 C650 1.355 . S
C651 C653 1.419 1_554 S
C652 C650 1.408 1_556 S
C652 C657 1.434 . S
C652 C659 1.408 1_556 S
C653 H645 0.930 . S
C653 C651 1.419 1_556 S
C653 C654 1.362 . S
C654 H646 0.930 . S
C654 C653 1.362 . S
C654 C657 1.409 . S
C655 H647 0.930 . S
C655 C656 1.355 . S
C655 C657 1.415 . S
C656 C655 1.355 . S
C656 C658 1.419 . S
C657 C652 1.434 . S
C657 C654 1.409 . S
C657 C655 1.415 . S
C658 H648 0.930 . S
C658 C656 1.419 . S
C658 C659 1.362 1_556 S
C659 H649 0.930 . S
C659 C652 1.408 1_554 S
C659 C658 1.362 1_554 S
H660 C666 0.930 . S
H661 C669 0.930 . S
H662 C670 0.930 . S
H663 C671 0.930 . S
H664 C674 0.930 . S
H665 C675 0.930 . S
C666 H660 0.930 . S
C666 C667 1.355 . S
C666 C668 1.415 . S
C667 C666 1.355 . S
C667 C669 1.419 . S
C668 C666 1.415 . S
C668 C673 1.425 . S
C668 C675 1.409 1_554 S
C669 H661 0.930 . S
C669 C667 1.419 . S
C669 C670 1.362 . S
C670 H662 0.930 . S
C670 C669 1.362 . S
C670 C673 1.409 . S
C671 H663 0.930 . S
C671 C672 1.355 1_554 S
C671 C673 1.415 . S
C672 C671 1.355 1_556 S
C672 C674 1.419 . S
C673 C668 1.425 . S
C673 C670 1.409 . S
C673 C671 1.415 . S
C674 H664 0.930 . S
C674 C672 1.419 . S
C674 C675 1.362 . S
C675 H665 0.930 . S
C675 C668 1.409 1_556 S
C675 C674 1.362 . S
H676 C682 0.930 . S
H677 C685 0.930 . S
H678 C686 0.930 . S
H679 C687 0.930 . S
H680 C690 0.930 . S
H681 C691 0.931 1_556 S
C682 H676 0.930 . S
C682 C683 1.355 . S
C682 C684 1.415 1_556 S
C683 C682 1.355 . S
C683 C685 1.419 1_556 S
C684 C682 1.415 1_554 S
C684 C689 1.425 . S
C684 C691 1.409 . S
C685 H677 0.930 . S
C685 C683 1.419 1_554 S
C685 C686 1.362 . S
C686 H678 0.930 . S
C686 C685 1.362 . S
C686 C689 1.409 . S
C687 H679 0.930 . S
C687 C688 1.355 . S
C687 C689 1.415 . S
C688 C687 1.355 . S
C688 C690 1.419 . S
C689 C684 1.425 . S
C689 C686 1.409 . S
C689 C687 1.415 . S
C690 H680 0.930 . S
C690 C688 1.419 . S
C690 C691 1.362 . S
C691 H681 0.931 1_554 S
C691 C684 1.409 . S
C691 C690 1.362 . S
H692 C698 0.930 . S
H693 C701 0.930 . S
H694 C702 0.930 . S
H695 C703 0.930 . S
H696 C706 0.930 . S
H697 C707 0.930 . S
C698 H692 0.930 . S
C698 C699 1.355 . S
C698 C700 1.415 . S
C699 C698 1.355 . S
C699 C701 1.419 . S
C700 C698 1.415 . S
C700 C705 1.425 . S
C700 C707 1.409 1_554 S
C701 H693 0.930 . S
C701 C699 1.419 . S
C701 C702 1.362 . S
C702 H694 0.930 . S
C702 C701 1.362 . S
C702 C705 1.409 . S
C703 H695 0.930 . S
C703 C704 1.353 1_554 S
C703 C705 1.416 . S
C704 C703 1.353 1_556 S
C704 C706 1.419 . S
C705 C700 1.425 . S
C705 C702 1.409 . S
C705 C703 1.416 . S
C706 H696 0.930 . S
C706 C704 1.419 . S
C706 C707 1.362 . S
C707 H697 0.930 . S
C707 C700 1.409 1_556 S
C707 C706 1.362 . S
H708 C714 0.930 . S
H709 C717 0.930 . S
H710 C718 0.930 . S
H711 C719 0.930 . S
H712 C722 0.930 . S
H713 C723 0.930 . S
C714 H708 0.930 . S
C714 C715 1.355 . S
C714 C716 1.415 . S
C715 C714 1.355 . S
C715 C717 1.419 . S
C716 C714 1.415 . S
C716 C721 1.425 . S
C716 C723 1.409 . S
C717 H709 0.930 . S
C717 C715 1.419 . S
C717 C718 1.362 . S
C718 H710 0.930 . S
C718 C717 1.362 . S
C718 C721 1.409 . S
C719 H711 0.930 . S
C719 C720 1.355 . S
C719 C721 1.415 . S
C720 C719 1.355 . S
C720 C722 1.419 . S
C721 C716 1.425 . S
C721 C718 1.409 . S
C721 C719 1.415 . S
C722 H712 0.930 . S
C722 C720 1.419 . S
C722 C723 1.362 . S
C723 H713 0.930 . S
C723 C716 1.409 . S
C723 C722 1.362 . S
H724 C730 0.930 . S
H725 C733 0.930 . S
H726 C734 0.930 . S
H727 C735 0.930 . S
H728 C738 0.930 . S
H729 C739 0.930 . S
C730 H724 0.930 . S
C730 C731 1.355 . S
C730 C732 1.415 . S
C731 C730 1.355 . S
C731 C733 1.419 . S
C732 C730 1.415 . S
C732 C737 1.425 . S
C732 C739 1.409 . S
C733 H725 0.930 . S
C733 C731 1.419 . S
C733 C734 1.362 . S
C734 H726 0.930 . S
C734 C733 1.362 . S
C734 C737 1.409 . S
C735 H727 0.930 . S
C735 C736 1.355 . S
C735 C737 1.415 . S
C736 C735 1.355 . S
C736 C738 1.419 . S
C737 C732 1.425 . S
C737 C734 1.409 . S
C737 C735 1.415 . S
C738 H728 0.930 . S
C738 C736 1.419 . S
C738 C739 1.362 . S
C739 H729 0.930 . S
C739 C732 1.409 . S
C739 C738 1.362 . S
H740 C746 0.930 . S
H741 C749 0.930 . S
H742 C750 0.930 . S
H743 C751 0.930 . S
H744 C754 0.930 . S
H745 C755 0.930 . S
C746 H740 0.930 . S
C746 C747 1.355 . S
C746 C748 1.415 . S
C747 C746 1.355 . S
C747 C749 1.419 . S
C748 C746 1.415 . S
C748 C753 1.425 . S
C748 C755 1.409 1_565 S
C749 H741 0.930 . S
C749 C747 1.419 . S
C749 C750 1.362 . S
C750 H742 0.930 . S
C750 C749 1.362 . S
C750 C753 1.409 . S
C751 H743 0.930 . S
C751 C752 1.355 . S
C751 C753 1.415 . S
C752 C751 1.355 . S
C752 C754 1.419 1_565 S
C753 C748 1.425 . S
C753 C750 1.409 . S
C753 C751 1.415 . S
C754 H744 0.930 . S
C754 C752 1.419 1_545 S
C754 C755 1.362 . S
C755 H745 0.930 . S
C755 C748 1.409 1_545 S
C755 C754 1.362 . S
H756 C762 0.930 . S
H757 C765 0.930 . S
H758 C766 0.930 . S
H759 C767 0.930 . S
H760 C770 0.930 . S
H761 C771 0.930 . S
C762 H756 0.930 . S
C762 C763 1.355 . S
C762 C764 1.415 . S
C763 C762 1.355 . S
C763 C765 1.419 . S
C764 C762 1.415 . S
C764 C769 1.425 . S
C764 C771 1.409 . S
C765 H757 0.930 . S
C765 C763 1.419 . S
C765 C766 1.362 . S
C766 H758 0.930 . S
C766 C765 1.362 . S
C766 C769 1.409 . S
C767 H759 0.930 . S
C767 C768 1.355 . S
C767 C769 1.415 . S
C768 C767 1.355 . S
C768 C770 1.419 . S
C769 C764 1.425 . S
C769 C766 1.409 . S
C769 C767 1.415 . S
C770 H760 0.930 . S
C770 C768 1.419 . S
C770 C771 1.362 . S
C771 H761 0.930 . S
C771 C764 1.409 . S
C771 C770 1.362 . S
H772 C778 0.930 . S
H773 C781 0.930 . S
H774 C782 0.930 . S
H775 C783 0.930 . S
H776 C786 0.930 . S
H777 C787 0.930 . S
C778 H772 0.930 . S
C778 C779 1.355 . S
C778 C780 1.415 . S
C779 C778 1.355 . S
C779 C781 1.419 . S
C780 C778 1.415 . S
C780 C785 1.425 . S
C780 C787 1.409 . S
C781 H773 0.930 . S
C781 C779 1.419 . S
C781 C782 1.362 . S
C782 H774 0.930 . S
C782 C781 1.362 . S
C782 C785 1.409 . S
C783 H775 0.930 . S
C783 C784 1.355 . S
C783 C785 1.415 . S
C784 C783 1.355 . S
C784 C786 1.419 . S
C785 C780 1.425 . S
C785 C782 1.409 . S
C785 C783 1.415 . S
C786 H776 0.930 . S
C786 C784 1.419 . S
C786 C787 1.362 . S
C787 H777 0.930 . S
C787 C780 1.409 . S
C787 C786 1.362 . S
H788 C794 0.930 . S
H789 C797 0.930 . S
H790 C798 0.930 . S
H791 C799 0.930 . S
H792 C802 0.930 . S
H793 C803 0.930 . S
C794 H788 0.930 . S
C794 C795 1.355 . S
C794 C796 1.415 . S
C795 C794 1.355 . S
C795 C797 1.419 . S
C796 C794 1.415 . S
C796 C801 1.425 . S
C796 C803 1.409 . S
C797 H789 0.930 . S
C797 C795 1.419 . S
C797 C798 1.362 . S
C798 H790 0.930 . S
C798 C797 1.362 . S
C798 C801 1.409 . S
C799 H791 0.930 . S
C799 C800 1.355 . S
C799 C801 1.415 . S
C800 C799 1.355 . S
C800 C802 1.419 . S
C801 C796 1.425 . S
C801 C798 1.409 . S
C801 C799 1.415 . S
C802 H792 0.930 . S
C802 C800 1.419 . S
C802 C803 1.362 . S
C803 H793 0.930 . S
C803 C796 1.409 . S
C803 C802 1.362 . S
H804 C810 0.930 . S
H805 C813 0.930 . S
H806 C814 0.930 . S
H807 C815 0.930 . S
H808 C818 0.930 . S
H809 C819 0.930 . S
C810 H804 0.930 . S
C810 C811 1.355 . S
C810 C812 1.415 . S
C811 C810 1.355 . S
C811 C813 1.419 . S
C812 C810 1.415 . S
C812 C817 1.425 . S
C812 C819 1.409 . S
C813 H805 0.930 . S
C813 C811 1.419 . S
C813 C814 1.362 . S
C814 H806 0.930 . S
C814 C813 1.362 . S
C814 C817 1.409 . S
C815 H807 0.930 . S
C815 C816 1.355 . S
C815 C817 1.415 . S
C816 C815 1.355 . S
C816 C818 1.419 . S
C817 C812 1.425 . S
C817 C814 1.409 . S
C817 C815 1.415 . S
C818 H808 0.930 . S
C818 C816 1.419 . S
C818 C819 1.362 . S
C819 H809 0.930 . S
C819 C812 1.409 . S
C819 C818 1.362 . S
H820 C826 0.930 . S
H821 C829 0.930 . S
H822 C830 0.930 . S
H823 C831 0.930 . S
H824 C834 0.930 . S
H825 C835 0.930 . S
C826 H820 0.930 . S
C826 C827 1.355 . S
C826 C828 1.415 . S
C827 C826 1.355 . S
C827 C829 1.419 . S
C828 C826 1.415 . S
C828 C833 1.425 . S
C828 C835 1.409 . S
C829 H821 0.930 . S
C829 C827 1.419 . S
C829 C830 1.362 . S
C830 H822 0.930 . S
C830 C829 1.362 . S
C830 C833 1.409 . S
C831 H823 0.930 . S
C831 C832 1.355 . S
C831 C833 1.415 . S
C832 C831 1.355 . S
C832 C834 1.419 . S
C833 C828 1.425 . S
C833 C830 1.409 . S
C833 C831 1.415 . S
C834 H824 0.930 . S
C834 C832 1.419 . S
C834 C835 1.362 . S
C835 H825 0.930 . S
C835 C828 1.409 . S
C835 C834 1.362 . S
H836 C842 0.930 . S
H837 C845 0.930 . S
H838 C846 0.930 . S
H839 C847 0.930 . S
H840 C850 0.930 . S
H841 C851 0.930 . S
C842 H836 0.930 . S
C842 C843 1.355 . S
C842 C844 1.415 . S
C843 C842 1.355 . S
C843 C845 1.419 . S
C844 C842 1.415 . S
C844 C849 1.425 . S
C844 C851 1.409 . S
C845 H837 0.930 . S
C845 C843 1.419 . S
C845 C846 1.362 . S
C846 H838 0.930 . S
C846 C845 1.362 . S
C846 C849 1.409 . S
C847 H839 0.930 . S
C847 C848 1.355 . S
C847 C849 1.415 . S
C848 C847 1.355 . S
C848 C850 1.419 . S
C849 C844 1.425 . S
C849 C846 1.409 . S
C849 C847 1.415 . S
C850 H840 0.930 . S
C850 C848 1.419 . S
C850 C851 1.362 . S
C851 H841 0.930 . S
C851 C844 1.409 . S
C851 C850 1.362 . S
H852 C858 0.915 1_455 S
H853 C861 0.930 . S
H854 C862 0.930 . S
H855 C863 0.930 . S
H856 C866 0.930 . S
H857 C867 0.930 . S
C858 H852 0.915 1_655 S
C858 C859 1.355 . S
C858 C860 1.415 . S
C859 C858 1.355 . S
C859 C861 1.419 . S
C860 C858 1.415 . S
C860 C865 1.425 . S
C860 C867 1.409 1_655 S
C861 H853 0.930 . S
C861 C859 1.419 . S
C861 C862 1.362 . S
C862 H854 0.930 . S
C862 C861 1.362 . S
C862 C865 1.409 . S
C863 H855 0.930 . S
C863 C864 1.355 . S
C863 C865 1.415 . S
C864 C863 1.355 . S
C864 C866 1.419 1_655 S
C865 C860 1.425 . S
C865 C862 1.409 . S
C865 C863 1.415 . S
C866 H856 0.930 . S
C866 C864 1.419 1_455 S
C866 C867 1.362 . S
C867 H857 0.930 . S
C867 C860 1.409 1_455 S
C867 C866 1.362 . S
H868 C874 0.930 . S
H869 C877 0.930 . S
H870 C878 0.930 . S
H871 C879 0.930 . S
H872 C882 0.930 . S
H873 C883 0.930 . S
C874 H868 0.930 . S
C874 C875 1.355 . S
C874 C876 1.415 . S
C875 C874 1.355 . S
C875 C877 1.419 . S
C876 C874 1.415 . S
C876 C881 1.425 . S
C876 C883 1.409 . S
C877 H869 0.930 . S
C877 C875 1.419 . S
C877 C878 1.362 . S
C878 H870 0.930 . S
C878 C877 1.362 . S
C878 C881 1.409 . S
C879 H871 0.930 . S
C879 C880 1.355 . S
C879 C881 1.415 . S
C880 C879 1.355 . S
C880 C882 1.419 . S
C881 C876 1.425 . S
C881 C878 1.409 . S
C881 C879 1.415 . S
C882 H872 0.930 . S
C882 C880 1.419 . S
C882 C883 1.362 . S
C883 H873 0.930 . S
C883 C876 1.409 . S
C883 C882 1.362 . S
H884 C890 0.930 1_565 S
H885 C893 0.930 . S
H886 C894 0.930 . S
H887 C895 0.930 . S
H888 C898 0.930 . S
H889 C899 0.930 1_565 S
C890 H884 0.930 1_545 S
C890 C891 1.355 . S
C890 C892 1.415 . S
C891 C890 1.355 . S
C891 C893 1.419 . S
C892 C890 1.415 . S
C892 C897 1.425 . S
C892 C899 1.409 . S
C893 H885 0.930 . S
C893 C891 1.419 . S
C893 C894 1.362 . S
C894 H886 0.930 . S
C894 C893 1.362 . S
C894 C897 1.409 . S
C895 H887 0.930 . S
C895 C896 1.355 . S
C895 C897 1.415 . S
C896 C895 1.355 . S
C896 C898 1.419 . S
C897 C892 1.425 . S
C897 C894 1.409 . S
C897 C895 1.415 . S
C898 H888 0.930 . S
C898 C896 1.419 . S
C898 C899 1.362 . S
C899 H889 0.930 1_545 S
C899 C892 1.409 . S
C899 C898 1.362 . S
H900 C906 0.930 . S
H901 C909 0.930 . S
H902 C910 0.930 . S
H903 C911 0.930 . S
H904 C914 0.930 . S
H905 C915 0.930 . S
C906 H900 0.930 . S
C906 C907 1.355 . S
C906 C908 1.415 . S
C907 C906 1.355 . S
C907 C909 1.419 . S
C908 C906 1.415 . S
C908 C913 1.425 . S
C908 C915 1.409 . S
C909 H901 0.930 . S
C909 C907 1.419 . S
C909 C910 1.362 . S
C910 H902 0.930 . S
C910 C909 1.362 . S
C910 C913 1.409 . S
C911 H903 0.930 . S
C911 C912 1.355 . S
C911 C913 1.415 . S
C912 C911 1.355 . S
C912 C914 1.419 . S
C913 C908 1.425 . S
C913 C910 1.409 . S
C913 C911 1.415 . S
C914 H904 0.930 . S
C914 C912 1.419 . S
C914 C915 1.362 . S
C915 H905 0.930 . S
C915 C908 1.409 . S
C915 C914 1.362 . S
H916 C922 0.930 . S
H917 C925 0.930 . S
H918 C926 0.930 . S
H919 C927 0.930 . S
H920 C930 0.930 . S
H921 C931 0.930 . S
C922 H916 0.930 . S
C922 C923 1.353 . S
C922 C924 1.415 . S
C923 C922 1.353 . S
C923 C925 1.421 1_545 S
C924 C922 1.415 . S
C924 C929 1.425 1_545 S
C924 C931 1.409 . S
C925 H917 0.930 . S
C925 C923 1.421 1_565 S
C925 C926 1.362 . S
C926 H918 0.930 . S
C926 C925 1.362 . S
C926 C929 1.409 . S
C927 H919 0.930 . S
C927 C928 1.355 . S
C927 C929 1.415 . S
C928 C927 1.355 . S
C928 C930 1.419 1_565 S
C929 C924 1.425 1_565 S
C929 C926 1.409 . S
C929 C927 1.415 . S
C930 H920 0.930 . S
C930 C928 1.419 1_545 S
C930 C931 1.362 . S
C931 H921 0.930 . S
C931 C924 1.409 . S
C931 C930 1.362 . S
H932 C938 0.930 . S
H933 C941 0.930 . S
H934 C942 0.930 . S
H935 C943 0.930 . S
H936 C946 0.930 . S
H937 C947 0.930 . S
C938 H932 0.930 . S
C938 C939 1.355 . S
C938 C940 1.415 . S
C939 C938 1.355 . S
C939 C941 1.419 1_455 S
C940 C938 1.415 . S
C940 C945 1.425 1_455 S
C940 C947 1.409 . S
C941 H933 0.930 . S
C941 C939 1.419 1_655 S
C941 C942 1.362 . S
C942 H934 0.930 . S
C942 C941 1.362 . S
C942 C945 1.409 . S
C943 H935 0.930 . S
C943 C944 1.355 . S
C943 C945 1.415 . S
C944 C943 1.355 . S
C944 C946 1.419 1_655 S
C945 C940 1.425 1_655 S
C945 C942 1.409 . S
C945 C943 1.415 . S
C946 H936 0.930 . S
C946 C944 1.419 1_455 S
C946 C947 1.362 . S
C947 H937 0.930 . S
C947 C940 1.409 . S
C947 C946 1.362 . S
H948 C954 0.930 . S
H949 C957 0.930 . S
H950 C958 0.930 . S
H951 C959 0.930 . S
H952 C962 0.930 . S
H953 C963 0.930 . S
C954 H948 0.930 . S
C954 C955 1.355 . S
C954 C956 1.415 . S
C955 C954 1.355 . S
C955 C957 1.419 . S
C956 C954 1.415 . S
C956 C961 1.425 . S
C956 C963 1.409 . S
C957 H949 0.930 . S
C957 C955 1.419 . S
C957 C958 1.362 . S
C958 H950 0.930 . S
C958 C957 1.362 . S
C958 C961 1.409 . S
C959 H951 0.930 . S
C959 C960 1.355 . S
C959 C961 1.415 . S
C960 C959 1.355 . S
C960 C962 1.419 . S
C961 C956 1.425 . S
C961 C958 1.409 . S
C961 C959 1.415 . S
C962 H952 0.930 . S
C962 C960 1.419 . S
C962 C963 1.362 . S
C963 H953 0.930 . S
C963 C956 1.409 . S
C963 C962 1.362 . S
H964 C970 0.930 . S
H965 C973 0.930 . S
H966 C974 0.930 . S
H967 C975 0.930 . S
H968 C978 0.930 . S
H969 C979 0.930 . S
C970 H964 0.930 . S
C970 C971 1.355 . S
C970 C972 1.415 . S
C971 C970 1.355 . S
C971 C973 1.419 1_545 S
C972 C970 1.415 . S
C972 C977 1.425 1_545 S
C972 C979 1.409 . S
C973 H965 0.930 . S
C973 C971 1.419 1_565 S
C973 C974 1.362 . S
C974 H966 0.930 . S
C974 C973 1.362 . S
C974 C977 1.409 . S
C975 H967 0.930 . S
C975 C976 1.355 1_565 S
C975 C977 1.415 . S
C976 C975 1.355 1_545 S
C976 C978 1.419 . S
C977 C972 1.425 1_565 S
C977 C974 1.409 . S
C977 C975 1.415 . S
C978 H968 0.930 . S
C978 C976 1.419 . S
C978 C979 1.362 . S
C979 H969 0.930 . S
C979 C972 1.409 . S
C979 C978 1.362 . S
H980 C986 0.930 . S
H981 C989 0.930 . S
H982 C990 0.930 . S
H983 C991 0.930 . S
H984 C994 0.930 . S
H985 C995 0.930 . S
C986 H980 0.930 . S
C986 C987 1.355 . S
C986 C988 1.415 . S
C987 C986 1.355 . S
C987 C989 1.419 1_655 S
C988 C986 1.415 . S
C988 C993 1.425 1_655 S
C988 C995 1.409 . S
C989 H981 0.930 . S
C989 C987 1.419 1_455 S
C989 C990 1.362 . S
C990 H982 0.930 . S
C990 C989 1.362 . S
C990 C993 1.409 . S
C991 H983 0.930 . S
C991 C992 1.352 1_455 S
C991 C993 1.415 . S
C992 C991 1.352 1_655 S
C992 C994 1.433 . S
C993 C988 1.425 1_455 S
C993 C990 1.409 . S
C993 C991 1.415 . S
C994 H984 0.930 . S
C994 C992 1.433 . S
C994 C995 1.362 . S
C995 H985 0.930 . S
C995 C988 1.409 . S
C995 C994 1.362 . S
H996 C1002 0.930 . S
H997 C1005 0.930 . S
H998 C1006 0.930 . S
H999 C1007 0.930 . S
H1000 C1010 0.930 . S
H1001 C1011 0.930 . S
C1002 H996 0.930 . S
C1002 C1003 1.355 . S
C1002 C1004 1.415 . S
C1003 C1002 1.355 . S
C1003 C1005 1.419 . S
C1004 C1002 1.415 . S
C1004 C1009 1.425 . S
C1004 C1011 1.409 . S
C1005 H997 0.930 . S
C1005 C1003 1.419 . S
C1005 C1006 1.362 . S
C1006 H998 0.930 . S
C1006 C1005 1.362 . S
C1006 C1009 1.409 . S
C1007 H999 0.930 . S
C1007 C1008 1.355 . S
C1007 C1009 1.415 . S
C1008 C1007 1.355 . S
C1008 C1010 1.419 . S
C1009 C1004 1.425 . S
C1009 C1006 1.409 . S
C1009 C1007 1.415 . S
C1010 H1000 0.930 . S
C1010 C1008 1.419 . S
C1010 C1011 1.362 . S
C1011 H1001 0.930 . S
C1011 C1004 1.409 . S
C1011 C1010 1.362 . S
H1012 C1018 0.930 . S
H1013 C1021 0.930 . S
H1014 C1022 0.930 . S
H1015 C1023 0.930 . S
H1016 C1026 0.930 . S
H1017 C1027 0.930 . S
C1018 H1012 0.930 . S
C1018 C1019 1.355 . S
C1018 C1020 1.415 . S
C1019 C1018 1.355 . S
C1019 C1021 1.419 . S
C1020 C1018 1.415 . S
C1020 C1025 1.425 . S
C1020 C1027 1.409 . S
C1021 H1013 0.930 . S
C1021 C1019 1.419 . S
C1021 C1022 1.362 . S
C1022 H1014 0.930 . S
C1022 C1021 1.362 . S
C1022 C1025 1.409 . S
C1023 H1015 0.930 . S
C1023 C1024 1.355 . S
C1023 C1025 1.415 . S
C1024 C1023 1.355 . S
C1024 C1026 1.419 . S
C1025 C1020 1.425 . S
C1025 C1022 1.409 . S
C1025 C1023 1.415 . S
C1026 H1016 0.930 . S
C1026 C1024 1.419 . S
C1026 C1027 1.362 . S
C1027 H1017 0.930 . S
C1027 C1020 1.409 . S
C1027 C1026 1.362 . S
H1028 C1034 0.930 . S
H1029 C1037 0.930 . S
H1030 C1038 0.930 . S
H1031 C1039 0.930 . S
H1032 C1042 0.930 . S
H1033 C1043 0.930 . S
C1034 H1028 0.930 . S
C1034 C1035 1.355 . S
C1034 C1036 1.415 . S
C1035 C1034 1.355 . S
C1035 C1037 1.419 . S
C1036 C1034 1.415 . S
C1036 C1041 1.425 . S
C1036 C1043 1.409 . S
C1037 H1029 0.930 . S
C1037 C1035 1.419 . S
C1037 C1038 1.362 . S
C1038 H1030 0.930 . S
C1038 C1037 1.362 . S
C1038 C1041 1.409 . S
C1039 H1031 0.930 . S
C1039 C1040 1.355 . S
C1039 C1041 1.415 . S
C1040 C1039 1.355 . S
C1040 C1042 1.419 . S
C1041 C1036 1.425 . S
C1041 C1038 1.409 . S
C1041 C1039 1.415 . S
C1042 H1032 0.930 . S
C1042 C1040 1.419 . S
C1042 C1043 1.362 . S
C1043 H1033 0.930 . S
C1043 C1036 1.409 . S
C1043 C1042 1.362 . S
H1044 C1050 0.930 . S
H1045 C1053 0.930 . S
H1046 C1054 0.930 . S
H1047 C1055 0.930 . S
H1048 C1058 0.930 . S
H1049 C1059 0.930 . S
C1050 H1044 0.930 . S
C1050 C1051 1.355 . S
C1050 C1052 1.415 . S
C1051 C1050 1.355 . S
C1051 C1053 1.419 . S
C1052 C1050 1.415 . S
C1052 C1057 1.425 . S
C1052 C1059 1.409 . S
C1053 H1045 0.930 . S
C1053 C1051 1.419 . S
C1053 C1054 1.362 . S
C1054 H1046 0.930 . S
C1054 C1053 1.362 . S
C1054 C1057 1.409 . S
C1055 H1047 0.930 . S
C1055 C1056 1.355 . S
C1055 C1057 1.415 . S
C1056 C1055 1.355 . S
C1056 C1058 1.419 . S
C1057 C1052 1.425 . S
C1057 C1054 1.409 . S
C1057 C1055 1.415 . S
C1058 H1048 0.930 . S
C1058 C1056 1.419 . S
C1058 C1059 1.362 . S
C1059 H1049 0.930 . S
C1059 C1052 1.409 . S
C1059 C1058 1.362 . S
H1060 C1066 0.930 . S
H1061 C1069 0.930 . S
H1062 C1070 0.930 . S
H1063 C1071 0.930 . S
H1064 C1074 0.930 . S
H1065 C1075 0.930 . S
C1066 H1060 0.930 . S
C1066 C1067 1.355 . S
C1066 C1068 1.415 . S
C1067 C1066 1.355 . S
C1067 C1069 1.419 . S
C1068 C1066 1.415 . S
C1068 C1073 1.425 . S
C1068 C1075 1.409 . S
C1069 H1061 0.930 . S
C1069 C1067 1.419 . S
C1069 C1070 1.362 . S
C1070 H1062 0.930 . S
C1070 C1069 1.362 . S
C1070 C1073 1.409 . S
C1071 H1063 0.930 . S
C1071 C1072 1.355 . S
C1071 C1073 1.415 . S
C1072 C1071 1.355 . S
C1072 C1074 1.419 . S
C1073 C1068 1.425 . S
C1073 C1070 1.409 . S
C1073 C1071 1.415 . S
C1074 H1064 0.930 . S
C1074 C1072 1.419 . S
C1074 C1075 1.362 . S
C1075 H1065 0.930 . S
C1075 C1068 1.409 . S
C1075 C1074 1.362 . S
H1076 C1082 0.930 . S
H1077 C1085 0.930 . S
H1078 C1086 0.930 . S
H1079 C1087 0.930 . S
H1080 C1090 0.930 . S
H1081 C1091 0.930 . S
C1082 H1076 0.930 . S
C1082 C1083 1.355 . S
C1082 C1084 1.415 . S
C1083 C1082 1.355 . S
C1083 C1085 1.419 . S
C1084 C1082 1.415 . S
C1084 C1089 1.425 . S
C1084 C1091 1.409 . S
C1085 H1077 0.930 . S
C1085 C1083 1.419 . S
C1085 C1086 1.362 . S
C1086 H1078 0.930 . S
C1086 C1085 1.362 . S
C1086 C1089 1.409 . S
C1087 H1079 0.930 . S
C1087 C1088 1.355 . S
C1087 C1089 1.415 . S
C1088 C1087 1.355 . S
C1088 C1090 1.419 . S
C1089 C1084 1.425 . S
C1089 C1086 1.409 . S
C1089 C1087 1.415 . S
C1090 H1080 0.930 . S
C1090 C1088 1.419 . S
C1090 C1091 1.362 . S
C1091 H1081 0.930 . S
C1091 C1084 1.409 . S
C1091 C1090 1.362 . S
H1092 C1098 0.930 . S
H1093 C1101 0.930 . S
H1094 C1102 0.930 . S
H1095 C1103 0.930 . S
H1096 C1106 0.930 . S
H1097 C1107 0.930 . S
C1098 H1092 0.930 . S
C1098 C1099 1.355 . S
C1098 C1100 1.415 . S
C1099 C1098 1.355 . S
C1099 C1101 1.419 . S
C1100 C1098 1.415 . S
C1100 C1105 1.425 . S
C1100 C1107 1.409 . S
C1101 H1093 0.930 . S
C1101 C1099 1.419 . S
C1101 C1102 1.362 . S
C1102 H1094 0.930 . S
C1102 C1101 1.362 . S
C1102 C1105 1.409 . S
C1103 H1095 0.930 . S
C1103 C1104 1.355 . S
C1103 C1105 1.415 . S
C1104 C1103 1.355 . S
C1104 C1106 1.419 . S
C1105 C1100 1.425 . S
C1105 C1102 1.409 . S
C1105 C1103 1.415 . S
C1106 H1096 0.930 . S
C1106 C1104 1.419 . S
C1106 C1107 1.362 . S
C1107 H1097 0.930 . S
C1107 C1100 1.409 . S
C1107 C1106 1.362 . S
H1108 C1114 0.930 . S
H1109 C1117 0.930 . S
H1110 C1118 0.930 . S
H1111 C1119 0.930 . S
H1112 C1122 0.930 . S
H1113 C1123 0.930 . S
C1114 H1108 0.930 . S
C1114 C1115 1.355 . S
C1114 C1116 1.415 . S
C1115 C1114 1.355 . S
C1115 C1117 1.419 . S
C1116 C1114 1.415 . S
C1116 C1121 1.425 . S
C1116 C1123 1.409 . S
C1117 H1109 0.930 . S
C1117 C1115 1.419 . S
C1117 C1118 1.362 . S
C1118 H1110 0.930 . S
C1118 C1117 1.362 . S
C1118 C1121 1.409 . S
C1119 H1111 0.930 . S
C1119 C1120 1.355 . S
C1119 C1121 1.415 . S
C1120 C1119 1.355 . S
C1120 C1122 1.419 . S
C1121 C1116 1.425 . S
C1121 C1118 1.409 . S
C1121 C1119 1.415 . S
C1122 H1112 0.930 . S
C1122 C1120 1.419 . S
C1122 C1123 1.362 . S
C1123 H1113 0.930 . S
C1123 C1116 1.409 . S
C1123 C1122 1.362 . S
H1124 C1130 0.930 . S
H1125 C1133 0.930 . S
H1126 C1134 0.930 . S
H1127 C1135 0.930 . S
H1128 C1138 0.930 . S
H1129 C1139 0.930 . S
C1130 H1124 0.930 . S
C1130 C1131 1.355 . S
C1130 C1132 1.415 . S
C1131 C1130 1.355 . S
C1131 C1133 1.419 . S
C1132 C1130 1.415 . S
C1132 C1137 1.425 . S
C1132 C1139 1.409 . S
C1133 H1125 0.930 . S
C1133 C1131 1.419 . S
C1133 C1134 1.362 . S
C1134 H1126 0.930 . S
C1134 C1133 1.362 . S
C1134 C1137 1.409 . S
C1135 H1127 0.930 . S
C1135 C1136 1.355 . S
C1135 C1137 1.415 . S
C1136 C1135 1.355 . S
C1136 C1138 1.419 . S
C1137 C1132 1.425 . S
C1137 C1134 1.409 . S
C1137 C1135 1.415 . S
C1138 H1128 0.930 . S
C1138 C1136 1.419 . S
C1138 C1139 1.362 . S
C1139 H1129 0.930 . S
C1139 C1132 1.409 . S
C1139 C1138 1.362 . S
H1140 C1146 0.930 . S
H1141 C1149 0.930 . S
H1142 C1150 0.930 . S
H1143 C1151 0.930 . S
H1144 C1154 0.930 . S
H1145 C1155 0.930 . S
C1146 H1140 0.930 . S
C1146 C1147 1.355 . S
C1146 C1148 1.415 . S
C1147 C1146 1.355 . S
C1147 C1149 1.419 . S
C1148 C1146 1.415 . S
C1148 C1153 1.425 . S
C1148 C1155 1.409 . S
C1149 H1141 0.930 . S
C1149 C1147 1.419 . S
C1149 C1150 1.362 . S
C1150 H1142 0.930 . S
C1150 C1149 1.362 . S
C1150 C1153 1.409 . S
C1151 H1143 0.930 . S
C1151 C1152 1.355 . S
C1151 C1153 1.415 . S
C1152 C1151 1.355 . S
C1152 C1154 1.419 . S
C1153 C1148 1.425 . S
C1153 C1150 1.409 . S
C1153 C1151 1.415 . S
C1154 H1144 0.930 . S
C1154 C1152 1.419 . S
C1154 C1155 1.362 . S
C1155 H1145 0.930 . S
C1155 C1148 1.409 . S
C1155 C1154 1.362 . S
H1156 C1162 0.930 . S
H1157 C1165 0.930 . S
H1158 C1166 0.930 . S
H1159 C1167 0.930 . S
H1160 C1170 0.930 . S
H1161 C1171 0.930 . S
C1162 H1156 0.930 . S
C1162 C1163 1.355 . S
C1162 C1164 1.415 . S
C1163 C1162 1.355 . S
C1163 C1165 1.419 . S
C1164 C1162 1.415 . S
C1164 C1169 1.425 . S
C1164 C1171 1.409 . S
C1165 H1157 0.930 . S
C1165 C1163 1.419 . S
C1165 C1166 1.362 . S
C1166 H1158 0.930 . S
C1166 C1165 1.362 . S
C1166 C1169 1.409 . S
C1167 H1159 0.930 . S
C1167 C1168 1.355 . S
C1167 C1169 1.415 . S
C1168 C1167 1.355 . S
C1168 C1170 1.419 . S
C1169 C1164 1.425 . S
C1169 C1166 1.409 . S
C1169 C1167 1.415 . S
C1170 H1160 0.930 . S
C1170 C1168 1.419 . S
C1170 C1171 1.362 . S
C1171 H1161 0.930 . S
C1171 C1164 1.409 . S
C1171 C1170 1.362 . S
H1172 C1178 0.930 . S
H1173 C1181 0.930 . S
H1174 C1182 0.930 . S
H1175 C1183 0.930 . S
H1176 C1186 0.930 . S
H1177 C1187 0.930 . S
C1178 H1172 0.930 . S
C1178 C1179 1.355 . S
C1178 C1180 1.415 . S
C1179 C1178 1.355 . S
C1179 C1181 1.419 . S
C1180 C1178 1.415 . S
C1180 C1185 1.425 . S
C1180 C1187 1.409 . S
C1181 H1173 0.930 . S
C1181 C1179 1.419 . S
C1181 C1182 1.362 . S
C1182 H1174 0.930 . S
C1182 C1181 1.362 . S
C1182 C1185 1.409 . S
C1183 H1175 0.930 . S
C1183 C1184 1.355 . S
C1183 C1185 1.415 . S
C1184 C1183 1.355 . S
C1184 C1186 1.419 . S
C1185 C1180 1.425 . S
C1185 C1182 1.409 . S
C1185 C1183 1.415 . S
C1186 H1176 0.930 . S
C1186 C1184 1.419 . S
C1186 C1187 1.362 . S
C1187 H1177 0.930 . S
C1187 C1180 1.409 . S
C1187 C1186 1.362 . S
H1188 C1194 0.930 . S
H1189 C1197 0.930 . S
H1190 C1198 0.930 . S
H1191 C1199 0.930 . S
H1192 C1202 0.930 . S
H1193 C1203 0.930 . S
C1194 H1188 0.930 . S
C1194 C1195 1.355 . S
C1194 C1196 1.415 . S
C1195 C1194 1.355 . S
C1195 C1197 1.419 . S
C1196 C1194 1.415 . S
C1196 C1201 1.425 . S
C1196 C1203 1.409 . S
C1197 H1189 0.930 . S
C1197 C1195 1.419 . S
C1197 C1198 1.362 . S
C1198 H1190 0.930 . S
C1198 C1197 1.362 . S
C1198 C1201 1.409 . S
C1199 H1191 0.930 . S
C1199 C1200 1.355 . S
C1199 C1201 1.415 . S
C1200 C1199 1.355 . S
C1200 C1202 1.419 . S
C1201 C1196 1.425 . S
C1201 C1198 1.409 . S
C1201 C1199 1.415 . S
C1202 H1192 0.930 . S
C1202 C1200 1.419 . S
C1202 C1203 1.362 . S
C1203 H1193 0.930 . S
C1203 C1196 1.409 . S
C1203 C1202 1.362 . S
H1204 C1210 0.930 . S
H1205 C1213 0.930 . S
H1206 C1214 0.930 . S
H1207 C1215 0.930 . S
H1208 C1218 0.930 . S
H1209 C1219 0.930 . S
C1210 H1204 0.930 . S
C1210 C1211 1.355 . S
C1210 C1212 1.415 . S
C1211 C1210 1.355 . S
C1211 C1213 1.419 . S
C1212 C1210 1.415 . S
C1212 C1217 1.425 . S
C1212 C1219 1.409 . S
C1213 H1205 0.930 . S
C1213 C1211 1.419 . S
C1213 C1214 1.362 . S
C1214 H1206 0.930 . S
C1214 C1213 1.362 . S
C1214 C1217 1.409 . S
C1215 H1207 0.930 . S
C1215 C1216 1.355 . S
C1215 C1217 1.415 . S
C1216 C1215 1.355 . S
C1216 C1218 1.419 . S
C1217 C1212 1.425 . S
C1217 C1214 1.409 . S
C1217 C1215 1.415 . S
C1218 H1208 0.930 . S
C1218 C1216 1.419 . S
C1218 C1219 1.362 . S
C1219 H1209 0.930 . S
C1219 C1212 1.409 . S
C1219 C1218 1.362 . S
H1220 C1226 0.930 . S
H1221 C1229 0.930 . S
H1222 C1230 0.930 . S
H1223 C1231 0.930 . S
H1224 C1234 0.930 . S
H1225 C1235 0.930 . S
C1226 H1220 0.930 . S
C1226 C1227 1.355 . S
C1226 C1228 1.415 . S
C1227 C1226 1.355 . S
C1227 C1229 1.419 . S
C1228 C1226 1.415 . S
C1228 C1233 1.425 . S
C1228 C1235 1.409 . S
C1229 H1221 0.930 . S
C1229 C1227 1.419 . S
C1229 C1230 1.362 . S
C1230 H1222 0.930 . S
C1230 C1229 1.362 . S
C1230 C1233 1.409 . S
C1231 H1223 0.930 . S
C1231 C1232 1.355 . S
C1231 C1233 1.415 . S
C1232 C1231 1.355 . S
C1232 C1234 1.419 . S
C1233 C1228 1.425 . S
C1233 C1230 1.409 . S
C1233 C1231 1.415 . S
C1234 H1224 0.930 . S
C1234 C1232 1.419 . S
C1234 C1235 1.362 . S
C1235 H1225 0.930 . S
C1235 C1228 1.409 . S
C1235 C1234 1.362 . S
H1236 C1242 0.930 . S
H1237 C1245 0.930 . S
H1238 C1246 0.930 . S
H1239 C1247 0.930 . S
H1240 C1250 0.930 . S
H1241 C1251 0.930 . S
C1242 H1236 0.930 . S
C1242 C1243 1.355 . S
C1242 C1244 1.415 . S
C1243 C1242 1.355 . S
C1243 C1245 1.419 . S
C1244 C1242 1.415 . S
C1244 C1249 1.425 . S
C1244 C1251 1.409 . S
C1245 H1237 0.930 . S
C1245 C1243 1.419 . S
C1245 C1246 1.362 . S
C1246 H1238 0.930 . S
C1246 C1245 1.362 . S
C1246 C1249 1.409 . S
C1247 H1239 0.930 . S
C1247 C1248 1.355 . S
C1247 C1249 1.415 . S
C1248 C1247 1.355 . S
C1248 C1250 1.419 . S
C1249 C1244 1.425 . S
C1249 C1246 1.409 . S
C1249 C1247 1.415 . S
C1250 H1240 0.930 . S
C1250 C1248 1.419 . S
C1250 C1251 1.362 . S
C1251 H1241 0.930 . S
C1251 C1244 1.409 . S
C1251 C1250 1.362 . S
H1252 C1258 0.930 . S
H1253 C1261 0.930 . S
H1254 C1262 0.930 . S
H1255 C1263 0.930 . S
H1256 C1266 0.930 . S
H1257 C1267 0.930 . S
C1258 H1252 0.930 . S
C1258 C1259 1.355 . S
C1258 C1260 1.415 . S
C1259 C1258 1.355 . S
C1259 C1261 1.419 . S
C1260 C1258 1.415 . S
C1260 C1265 1.425 . S
C1260 C1267 1.409 . S
C1261 H1253 0.930 . S
C1261 C1259 1.419 . S
C1261 C1262 1.362 . S
C1262 H1254 0.930 . S
C1262 C1261 1.362 . S
C1262 C1265 1.409 . S
C1263 H1255 0.930 . S
C1263 C1264 1.355 . S
C1263 C1265 1.415 . S
C1264 C1263 1.355 . S
C1264 C1266 1.419 . S
C1265 C1260 1.425 . S
C1265 C1262 1.409 . S
C1265 C1263 1.415 . S
C1266 H1256 0.930 . S
C1266 C1264 1.419 . S
C1266 C1267 1.362 . S
C1267 H1257 0.930 . S
C1267 C1260 1.409 . S
C1267 C1266 1.362 . S
H1268 C1274 0.930 . S
H1269 C1277 0.930 . S
H1270 C1278 0.930 . S
H1271 C1279 0.930 . S
H1272 C1282 0.930 . S
H1273 C1283 0.930 . S
C1274 H1268 0.930 . S
C1274 C1275 1.355 . S
C1274 C1276 1.415 . S
C1275 C1274 1.355 . S
C1275 C1277 1.419 . S
C1276 C1274 1.415 . S
C1276 C1281 1.425 . S
C1276 C1283 1.409 . S
C1277 H1269 0.930 . S
C1277 C1275 1.419 . S
C1277 C1278 1.362 . S
C1278 H1270 0.930 . S
C1278 C1277 1.362 . S
C1278 C1281 1.409 . S
C1279 H1271 0.930 . S
C1279 C1280 1.355 . S
C1279 C1281 1.415 . S
C1280 C1279 1.355 . S
C1280 C1282 1.419 . S
C1281 C1276 1.425 . S
C1281 C1278 1.409 . S
C1281 C1279 1.415 . S
C1282 H1272 0.930 . S
C1282 C1280 1.419 . S
C1282 C1283 1.362 . S
C1283 H1273 0.930 . S
C1283 C1276 1.409 . S
C1283 C1282 1.362 . S
H1284 C1290 0.930 . S
H1285 C1293 0.930 . S
H1286 C1294 0.930 . S
H1287 C1295 0.930 . S
H1288 C1298 0.930 . S
H1289 C1299 0.930 . S
C1290 H1284 0.930 . S
C1290 C1291 1.355 1_455 S
C1290 C1292 1.415 . S
C1291 C1290 1.355 1_655 S
C1291 C1293 1.419 . S
C1292 C1290 1.415 . S
C1292 C1297 1.425 1_455 S
C1292 C1299 1.409 . S
C1293 H1285 0.930 . S
C1293 C1291 1.419 . S
C1293 C1294 1.362 . S
C1294 H1286 0.930 . S
C1294 C1293 1.362 . S
C1294 C1297 1.409 . S
C1295 H1287 0.930 . S
C1295 C1296 1.355 1_655 S
C1295 C1297 1.415 . S
C1296 C1295 1.355 1_455 S
C1296 C1298 1.419 . S
C1297 C1292 1.425 1_655 S
C1297 C1294 1.409 . S
C1297 C1295 1.415 . S
C1298 H1288 0.930 . S
C1298 C1296 1.419 . S
C1298 C1299 1.362 . S
C1299 H1289 0.930 . S
C1299 C1292 1.409 . S
C1299 C1298 1.362 . S
H1300 C1306 0.930 . S
H1301 C1309 0.930 . S
H1302 C1310 0.930 . S
H1303 C1311 0.930 . S
H1304 C1314 0.930 . S
H1305 C1315 0.930 . S
C1306 H1300 0.930 . S
C1306 C1307 1.355 . S
C1306 C1308 1.415 . S
C1307 C1306 1.355 . S
C1307 C1309 1.419 . S
C1308 C1306 1.415 . S
C1308 C1313 1.425 . S
C1308 C1315 1.409 . S
C1309 H1301 0.930 . S
C1309 C1307 1.419 . S
C1309 C1310 1.362 . S
C1310 H1302 0.930 . S
C1310 C1309 1.362 . S
C1310 C1313 1.409 . S
C1311 H1303 0.930 . S
C1311 C1312 1.355 . S
C1311 C1313 1.415 . S
C1312 C1311 1.355 . S
C1312 C1314 1.419 . S
C1313 C1308 1.425 . S
C1313 C1310 1.409 . S
C1313 C1311 1.415 . S
C1314 H1304 0.930 . S
C1314 C1312 1.419 . S
C1314 C1315 1.362 . S
C1315 H1305 0.930 . S
C1315 C1308 1.409 . S
C1315 C1314 1.362 . S
H1316 C1322 0.930 . S
H1317 C1325 0.930 . S
H1318 C1326 0.930 . S
H1319 C1327 0.930 . S
H1320 C1330 0.930 . S
H1321 C1331 0.930 . S
C1322 H1316 0.930 . S
C1322 C1323 1.355 1_565 S
C1322 C1324 1.415 . S
C1323 C1322 1.355 1_545 S
C1323 C1325 1.419 . S
C1324 C1322 1.415 . S
C1324 C1329 1.425 1_565 S
C1324 C1331 1.409 . S
C1325 H1317 0.930 . S
C1325 C1323 1.419 . S
C1325 C1326 1.362 . S
C1326 H1318 0.930 . S
C1326 C1325 1.362 . S
C1326 C1329 1.409 . S
C1327 H1319 0.930 . S
C1327 C1328 1.355 1_545 S
C1327 C1329 1.415 . S
C1328 C1327 1.355 1_565 S
C1328 C1330 1.419 . S
C1329 C1324 1.425 1_545 S
C1329 C1326 1.409 . S
C1329 C1327 1.415 . S
C1330 H1320 0.930 . S
C1330 C1328 1.419 . S
C1330 C1331 1.362 . S
C1331 H1321 0.930 . S
C1331 C1324 1.409 . S
C1331 C1330 1.362 . S
C619 C9 1.345 . S
C624 C156 1.346 . S
C635 C43 1.376 . S
C640 C190 1.385 . S
C651 C77 1.419 . S
C656 C122 1.437 . S
C667 C54 1.344 . S
C672 C111 1.350 . S
C683 C145 1.371 . S
C688 C88 1.392 . S
C699 C20 1.415 . S
C704 C179 1.439 . S
C715 C213 1.394 . S
C720 C360 1.415 . S
C731 C394 1.404 . S
C736 C247 1.382 . S
C747 C281 1.402 . S
C752 C326 1.380 . S
C763 C258 1.402 . S
C768 C315 1.397 . S
C779 C349 1.373 . S
C784 C292 1.399 . S
C795 C224 1.377 . S
C800 C383 1.397 . S
C811 C564 1.383 . S
C816 C417 1.402 . S
C827 C598 1.382 . S
C832 C451 1.379 . S
C843 C530 1.393 . S
C848 C485 1.367 . S
C859 C519 1.397 . S
C864 C462 1.415 . S
C875 C496 1.409 . S
C880 C553 1.382 . S
C891 C428 1.380 . S
C896 C587 1.390 . S
C907 C33 1.388 . S
C912 C379 1.400 . S
C923 C67 1.356 . S
C928 C311 1.347 . S
C939 C345 1.366 1_455 S
C944 C101 1.429 . S
C955 C481 1.400 . S
C960 C135 1.390 . S
C971 C413 1.315 . S
C976 C169 1.384 1_545 S
C987 C447 1.366 1_655 S
C992 C203 1.382 1_655 S
C1003 C583 1.336 . S
C1008 C237 1.414 . S
C1019 C515 1.356 . S
C1024 C271 1.421 . S
C1035 C305 1.380 . S
C1040 C549 1.342 . S
C1051 C73 1.338 . S
C1056 C339 1.371 . S
C1067 C373 1.398 . S
C1072 C5 1.344 . S
C1083 C407 1.364 . S
C1088 C39 1.283 . S
C1099 C441 1.328 . S
C1104 C175 1.309 . S
C1115 C107 1.308 . S
C1120 C475 1.387 . S
C1131 C509 1.366 . S
C1136 C141 1.360 . S
C1147 C543 1.420 . S
C1152 C277 1.358 . S
C1163 C577 1.380 . S
C1168 C209 1.357 . S
C1179 C611 1.417 . S
C1184 C243 1.346 . S
C1195 C308 2.016 . S
C1200 C2 2.016 . S
C1211 C36 2.048 . S
C1216 C342 2.050 . S
C1227 C70 2.033 . S
C1232 C376 2.036 . S
C1243 C104 2.014 . S
C1248 C410 2.014 . S
C1259 C444 2.047 . S
C1264 C138 2.049 . S
C1275 C172 2.035 . S
C1280 C478 2.038 . S
C1291 C206 1.986 . S
C1296 C512 1.986 . S
C1307 C546 1.993 . S
C1312 C240 1.993 . S
C1323 C274 1.990 . S
C1328 C580 1.990 . S
