# Generated by pormake.
# Topology umf, (4)-cn, num edge types: 1
# Building blocks:
#     Node 0, Type 0, BuildingBlock: QUQFOY_clean_sbu_3, # of connection points: 4
#     Node 1, Type 0, BuildingBlock: QUQFOY_clean_sbu_3, # of connection points: 4
#     Node 2, Type 0, BuildingBlock: QUQFOY_clean_sbu_3, # of connection points: 4
#     Node 3, Type 0, BuildingBlock: QUQFOY_clean_sbu_3, # of connection points: 4
#     Node 4, Type 0, BuildingBlock: QUQFOY_clean_sbu_3, # of connection points: 4
#     Node 5, Type 0, BuildingBlock: QUQFOY_clean_sbu_3, # of connection points: 4
#     Node 6, Type 0, BuildingBlock: QUQFOY_clean_sbu_3, # of connection points: 4
#     Node 7, Type 0, BuildingBlock: QUQFOY_clean_sbu_3, # of connection points: 4
#     Edge 8, Type (0, 0), BuildingBlock: TEMPAE_clean_linker_10, # of connection points: 2
#     Edge 9, Type (0, 0), BuildingBlock: TEMPAE_clean_linker_10, # of connection points: 2
#     Edge 10, Type (0, 0), BuildingBlock: TEMPAE_clean_linker_10, # of connection points: 2
#     Edge 11, Type (0, 0), BuildingBlock: TEMPAE_clean_linker_10, # of connection points: 2
#     Edge 12, Type (0, 0), BuildingBlock: TEMPAE_clean_linker_10, # of connection points: 2
#     Edge 13, Type (0, 0), BuildingBlock: TEMPAE_clean_linker_10, # of connection points: 2
#     Edge 14, Type (0, 0), BuildingBlock: TEMPAE_clean_linker_10, # of connection points: 2
#     Edge 15, Type (0, 0), BuildingBlock: TEMPAE_clean_linker_10, # of connection points: 2
#     Edge 16, Type (0, 0), BuildingBlock: TEMPAE_clean_linker_10, # of connection points: 2
#     Edge 17, Type (0, 0), BuildingBlock: TEMPAE_clean_linker_10, # of connection points: 2
#     Edge 18, Type (0, 0), BuildingBlock: TEMPAE_clean_linker_10, # of connection points: 2
#     Edge 19, Type (0, 0), BuildingBlock: TEMPAE_clean_linker_10, # of connection points: 2
#     Edge 20, Type (0, 0), BuildingBlock: TEMPAE_clean_linker_10, # of connection points: 2
#     Edge 21, Type (0, 0), BuildingBlock: TEMPAE_clean_linker_10, # of connection points: 2
#     Edge 22, Type (0, 0), BuildingBlock: TEMPAE_clean_linker_10, # of connection points: 2
#     Edge 23, Type (0, 0), BuildingBlock: TEMPAE_clean_linker_10, # of connection points: 2
# Relax obj value: 0.168
# Max RMSD: 0.287
# Mean RMSD: 0.287
data_MOF--net-umf--node1-QUQFOY_clean_sbu_3--edge1-TEMPAE_clean_linker_10
_symmetry_space_group_name_H-M    P1
_symmetry_Int_Tables_number       1
_symmetry_cell_setting            triclinic
loop_
_symmetry_equiv_pos_as_xyz
'x, y, z'
_cell_length_a     29.23845
_cell_length_b     29.438828
_cell_length_c     54.087287
_cell_angle_alpha  90.324916
_cell_angle_beta   89.792141
_cell_angle_gamma 89.838892
loop_
_atom_site_label
_atom_site_type_symbol
_atom_site_fract_x
_atom_site_fract_y
_atom_site_fract_z
_atom_type_partial_charge
C0 C 0.17529 0.22169 0.15752 0.0
O1 O 0.18401 0.24743 0.13946 0.0
Cd2 Cd 0.13381 0.20464 0.11084 0.0
O3 O 0.13999 0.19711 0.15599 0.0
Cd4 Cd 0.07946 0.22897 0.12899 0.0
C5 C 0.07146 0.12453 0.1385 0.0
O6 O 0.08118 0.23728 0.08225 0.0
O7 O 0.01641 0.22451 0.1013 0.0
O8 O 0.10379 0.30511 0.13772 0.0
C9 C 0.03758 0.23383 0.0814 0.0
O10 O 0.10665 0.12977 0.12489 0.0
C11 C 0.06987 0.31524 0.15145 0.0
O12 O 0.04867 0.15929 0.14522 0.0
O13 O 0.04002 0.28448 0.15505 0.0
C14 C 0.73371 0.1451 0.66311 0.0
O15 O 0.70827 0.15916 0.6459 0.0
Cd16 Cd 0.74651 0.117 0.61238 0.0
O17 O 0.75676 0.10926 0.65921 0.0
Cd18 Cd 0.73046 0.05196 0.62857 0.0
C19 C 0.83625 0.05335 0.63155 0.0
O20 O 0.70474 0.06857 0.58483 0.0
O21 O 0.75001 0.01133 0.59145 0.0
O22 O 0.65736 0.05242 0.64885 0.0
C23 C 0.72402 0.03247 0.57668 0.0
O24 O 0.82553 0.08977 0.6203 0.0
C25 C 0.65727 0.01016 0.65337 0.0
O26 O 0.80493 0.02722 0.63921 0.0
O27 O 0.69166 -0.01313 0.64633 0.0
C28 C 0.80712 0.72463 0.1525 0.0
O29 O 0.79325 0.74435 0.13314 0.0
Cd30 Cd 0.84842 0.75995 0.10053 0.0
O31 O 0.84829 0.71144 0.154 0.0
Cd32 Cd 0.91795 0.70938 0.12901 0.0
C33 C 0.92531 0.82143 0.1343 0.0
O34 O 0.89933 0.70143 0.08443 0.0
O35 O 0.96558 0.72875 0.09473 0.0
O36 O 0.9209 0.62914 0.13346 0.0
C37 C 0.93947 0.71371 0.07791 0.0
O38 O 0.89495 0.82029 0.11749 0.0
C39 C 0.95718 0.62764 0.14619 0.0
O40 O 0.93937 0.78484 0.14425 0.0
O41 O 0.97601 0.66531 0.15165 0.0
C42 C 0.24158 0.82089 0.65196 0.0
O43 O 0.26787 0.80667 0.63495 0.0
Cd44 Cd 0.23478 0.85576 0.60279 0.0
O45 O 0.22132 0.85838 0.64854 0.0
Cd46 Cd 0.25897 0.9123 0.61981 0.0
C47 C 0.15375 0.92689 0.62348 0.0
O48 O 0.27758 0.9001 0.57407 0.0
O49 O 0.25491 0.96638 0.58763 0.0
O50 O 0.33148 0.89372 0.63828 0.0
C51 C 0.27075 0.94234 0.57 0.0
O52 O 0.15924 0.88995 0.61147 0.0
C53 C 0.33845 0.93367 0.64641 0.0
O54 O 0.18857 0.94797 0.63139 0.0
O55 O 0.30815 0.96369 0.64222 0.0
C56 C 0.1727 0.72705 0.82192 0.0
O57 O 0.192 0.73979 0.84172 0.0
Cd58 Cd 0.14036 0.75955 0.8755 0.0
O59 O 0.12985 0.7206 0.82173 0.0
Cd60 Cd 0.0632 0.71868 0.84887 0.0
C61 C 0.06557 0.83092 0.84568 0.0
O62 O 0.08726 0.70409 0.89232 0.0
O63 O 0.02256 0.7382 0.88561 0.0
O64 O 0.06301 0.64137 0.83455 0.0
C65 C 0.04934 0.71933 0.90082 0.0
O66 O 0.09791 0.8255 0.86112 0.0
C67 C 0.02083 0.63965 0.82937 0.0
O68 O 0.04638 0.79656 0.8357 0.0
O69 O -0.00279 0.67552 0.83291 0.0
C70 C 0.23444 0.19085 0.32883 0.0
O71 O 0.2089 0.206 0.34602 0.0
Cd72 Cd 0.17292 0.15552 0.37617 0.0
O73 O 0.24413 0.14893 0.32787 0.0
Cd74 Cd 0.22937 0.0816 0.35186 0.0
C75 C 0.11129 0.0842 0.34258 0.0
O76 O 0.20786 0.08928 0.3953 0.0
O77 O 0.28002 0.09416 0.38783 0.0
O78 O 0.28833 0.0575 0.32337 0.0
C79 C 0.24831 0.08859 0.40354 0.0
O80 O 0.11025 0.12105 0.35495 0.0
C81 C 0.29184 0.01728 0.33132 0.0
O82 O 0.14904 0.06292 0.33932 0.0
O83 O 0.26345 0.0052 0.34789 0.0
C84 C 0.78028 0.22266 0.83758 0.0
O85 O 0.76527 0.1975 0.85479 0.0
Cd86 Cd 0.81142 0.17589 0.89046 0.0
O87 O 0.82019 0.23937 0.83892 0.0
Cd88 Cd 0.88949 0.24482 0.86355 0.0
C89 C 0.90535 0.12894 0.86052 0.0
O90 O 0.86168 0.23325 0.90563 0.0
O91 O 0.91183 0.28556 0.90152 0.0
O92 O 0.88377 0.31369 0.84013 0.0
C93 C 0.88742 0.26218 0.91594 0.0
O94 O 0.86827 0.12501 0.87282 0.0
C95 C 0.92666 0.3196 0.8381 0.0
O96 O 0.92099 0.16795 0.85456 0.0
O97 O 0.95289 0.28913 0.847 0.0
C98 C 0.73367 0.79427 0.32469 0.0
O99 O 0.7526 0.78134 0.3445 0.0
Cd100 Cd 0.76167 0.83663 0.37771 0.0
O101 O 0.71709 0.83395 0.32317 0.0
Cd102 Cd 0.70362 0.90141 0.34866 0.0
C103 C 0.81567 0.9201 0.34441 0.0
O104 O 0.69719 0.8803 0.39312 0.0
O105 O 0.7157 0.94941 0.38359 0.0
O106 O 0.62548 0.88577 0.33802 0.0
C107 C 0.70501 0.92105 0.40017 0.0
O108 O 0.81657 0.88993 0.36118 0.0
C109 C 0.61589 0.92527 0.33037 0.0
O110 O 0.77817 0.93038 0.33373 0.0
O111 O 0.64779 0.95468 0.33074 0.0
C112 C 0.09017 0.39713 0.15059 0.0
C113 C 0.063 0.36228 0.16027 0.0
C114 C 0.07785 0.44273 0.15387 0.0
C115 C 0.0379 0.45354 0.16754 0.0
C116 C 0.01384 0.41881 0.18001 0.0
C117 C 0.02635 0.37333 0.17597 0.0
C118 C 0.10444 0.47869 0.14021 0.0
C119 C 0.9722 0.4293 0.1956 0.0
C120 C 0.00772 0.57906 0.17265 0.0
C121 C 0.97716 0.58347 0.15289 0.0
C122 C 0.02658 0.53647 0.17852 0.0
C123 C 0.01566 0.49822 0.1637 0.0
C124 C 0.98465 0.50274 0.14382 0.0
C125 C 0.96542 0.54513 0.1389 0.0
C126 C 0.05858 0.53267 0.20024 0.0
C127 C 0.97256 0.46302 0.12723 0.0
H128 H 0.11907 0.38883 0.13877 0.0
H129 H 0.00587 0.34649 0.18398 0.0
H130 H 0.08462 0.48965 0.12381 0.0
H131 H 0.10982 0.50901 0.15206 0.0
H132 H 0.13827 0.46593 0.13377 0.0
H133 H 0.96391 0.40092 0.20829 0.0
H134 H 0.97736 0.46074 0.20665 0.0
H135 H 0.94237 0.43495 0.18336 0.0
H136 H 0.01654 0.60871 0.18359 0.0
H137 H 0.94197 0.54848 0.12352 0.0
H138 H 0.09437 0.53079 0.19346 0.0
H139 H 0.05173 0.50128 0.21088 0.0
H140 H 0.05557 0.56242 0.21287 0.0
H141 H 0.00399 0.44895 0.1185 0.0
H142 H 0.94836 0.47264 0.11235 0.0
H143 H 0.95678 0.43554 0.13828 0.0
C144 C 0.40499 0.91619 0.67326 0.0
C145 C 0.38263 0.9458 0.65712 0.0
C146 C 0.45047 0.92409 0.68017 0.0
C147 C 0.47436 0.96078 0.66941 0.0
C148 C 0.45093 -0.008 0.65408 0.0
C149 C 0.40487 -0.01537 0.64862 0.0
C150 C 0.47332 0.89174 0.69782 0.0
C151 C 0.47533 0.03098 0.64166 0.0
C152 C 0.59059 0.00932 0.6818 0.0
C153 C 0.61575 -0.01135 0.66275 0.0
C154 C 0.54546 -0.004 0.68659 0.0
C155 C 0.52479 0.96346 0.67091 0.0
C156 C 0.5515 0.93989 0.65304 0.0
C157 C 0.59723 0.95222 0.64956 0.0
C158 C 0.51894 0.01943 0.70698 0.0
C159 C 0.5306 0.90548 0.63564 0.0
H160 H 0.38729 0.88637 0.68001 0.0
H161 H 0.38731 0.00726 0.63603 0.0
H162 H 0.48978 0.86376 0.68721 0.0
H163 H 0.50006 0.90902 0.70891 0.0
H164 H 0.44794 0.87634 0.71058 0.0
H165 H 0.45193 0.052 0.63029 0.0
H166 H 0.49147 0.05329 0.65568 0.0
H167 H 0.50298 0.0176 0.6295 0.0
H168 H 0.60544 0.03723 0.69216 0.0
H169 H 0.61697 0.93654 0.63478 0.0
H170 H 0.49476 -0.00443 0.71595 0.0
H171 H 0.4987 0.04781 0.69917 0.0
H172 H 0.54214 0.03371 0.72125 0.0
H173 H 0.51215 0.87903 0.64617 0.0
H174 H 0.55665 0.88859 0.62371 0.0
H175 H 0.50532 0.92261 0.62356 0.0
C176 C 0.92 0.38814 0.8115 0.0
C177 C 0.94442 0.36328 0.82914 0.0
C178 C 0.93147 0.43338 0.80633 0.0
C179 C 0.96682 0.45458 0.81992 0.0
C180 C -0.00716 0.42888 0.83696 0.0
C181 C 0.98181 0.3832 0.84101 0.0
C182 C 0.90437 0.459 0.78721 0.0
C183 C 0.03022 0.45041 0.85223 0.0
C184 C 0.02335 0.56697 0.80595 0.0
C185 C 0.00026 0.59598 0.82241 0.0
C186 C 0.01007 0.52148 0.8032 0.0
C187 C 0.97433 0.50437 0.81816 0.0
C188 C 0.94933 0.53431 0.83381 0.0
C189 C 0.96215 0.58013 0.8354 0.0
C190 C 0.03614 0.4912 0.78546 0.0
C191 C 0.91167 0.51724 0.8505 0.0
H192 H 0.8911 0.37257 0.80226 0.0
H193 H 0.00033 0.3641 0.85486 0.0
H194 H 0.88044 0.48287 0.79656 0.0
H195 H 0.92742 0.47942 0.77533 0.0
H196 H 0.8841 0.43579 0.77528 0.0
H197 H 0.04784 0.42546 0.86426 0.0
H198 H 0.05604 0.46643 0.84005 0.0
H199 H 0.01542 0.47763 0.86411 0.0
H200 H 0.05285 0.57948 0.79589 0.0
H201 H 0.94479 0.60259 0.84836 0.0
H202 H 0.01244 0.46857 0.77522 0.0
H203 H 0.06008 0.4693 0.79592 0.0
H204 H 0.05633 0.51121 0.77193 0.0
H205 H 0.88615 0.49775 0.8397 0.0
H206 H 0.89377 0.54532 0.8604 0.0
H207 H 0.92638 0.49384 0.86442 0.0
C208 C 0.35341 0.96377 0.34342 0.0
C209 C 0.33279 -0.00983 0.32511 0.0
C210 C 0.39895 0.94928 0.34089 0.0
C211 C 0.42376 0.96039 0.3192 0.0
C212 C 0.40141 -0.01714 0.29958 0.0
C213 C 0.35631 -0.00183 0.30293 0.0
C214 C 0.42166 0.92583 0.36239 0.0
C215 C 0.42607 -0.00631 0.27577 0.0
C216 C 0.55061 0.97967 0.32905 0.0
C217 C 0.56851 0.93667 0.32354 0.0
C218 C 0.50355 -0.01175 0.32696 0.0
C219 C 0.47411 0.95333 0.31844 0.0
C220 C 0.49265 0.91091 0.31111 0.0
C221 C 0.53959 0.90281 0.31417 0.0
C222 C 0.48501 0.0338 0.3353 0.0
C223 C 0.46271 0.87347 0.30105 0.0
H224 H 0.33544 0.95794 0.36068 0.0
H225 H 0.34028 0.01848 0.28869 0.0
H226 H 0.43967 0.89466 0.35606 0.0
H227 H 0.44767 0.94874 0.37059 0.0
H228 H 0.39678 0.91644 0.37705 0.0
H229 H 0.4019 0.00324 0.26087 0.0
H230 H 0.44974 0.02252 0.27889 0.0
H231 H 0.44686 0.96424 0.26942 0.0
H232 H 0.57293 0.00571 0.33646 0.0
H233 H 0.55357 0.86958 0.30973 0.0
H234 H 0.46173 0.02909 0.35133 0.0
H235 H 0.46476 0.04955 0.32031 0.0
H236 H 0.51259 0.05767 0.34077 0.0
H237 H 0.44162 0.85922 0.31621 0.0
H238 H 0.48316 0.84545 0.29267 0.0
H239 H 0.43894 0.88698 0.28692 0.0
C240 C 0.89381 0.2214 0.95612 0.0
C241 C 0.89714 0.26191 0.94275 0.0
C242 C 0.91332 0.21761 0.97974 0.0
C243 C 0.93566 0.25559 0.99042 0.0
C244 C 0.93589 0.29754 0.97774 0.0
C245 C 0.91716 0.30002 0.95392 0.0
C246 C 0.91282 0.17212 -0.00752 0.0
C247 C 0.95811 0.3392 0.98875 0.0
C248 C 0.96517 0.25132 0.05884 0.0
C249 C 0.01195 0.24049 0.05811 0.0
C250 C 0.93999 0.25697 0.037 0.0
C251 C 0.96185 0.25056 0.01385 0.0
C252 C 0.00906 0.23942 0.01301 0.0
C253 C 0.03366 0.23506 0.03515 0.0
C254 C 0.89008 0.26998 0.03868 0.0
C255 C 0.03348 0.23157 0.98871 0.0
H256 H 0.87885 0.1917 0.94743 0.0
H257 H 0.91973 0.33142 0.94362 0.0
H258 H 0.94819 0.15842 -0.0067 0.0
H259 H 0.90041 0.17581 0.01179 0.0
H260 H 0.89093 0.14704 0.98272 0.0
H261 H 0.95035 0.37033 0.97802 0.0
H262 H 0.94653 0.34442 0.00812 0.0
H263 H -0.00425 0.33444 0.98911 0.0
H264 H 0.94826 0.25588 0.07656 0.0
H265 H 0.06971 0.2264 0.0345 0.0
H266 H 0.86875 0.24332 0.02992 0.0
H267 H 0.88397 0.30194 0.02841 0.0
H268 H 0.87845 0.27481 0.05809 0.0
H269 H 0.01613 0.20426 0.97811 0.0
H270 H 0.0699 0.22187 0.99125 0.0
H271 H 0.03208 0.26281 0.97736 0.0
C272 C 0.68119 0.03036 0.53639 0.0
C273 C 0.71742 0.01518 0.55113 0.0
C274 C 0.67512 0.01324 0.51225 0.0
C275 C 0.70652 0.98089 0.50254 0.0
C276 C 0.74295 0.96535 0.51745 0.0
C277 C 0.7477 0.98237 0.54156 0.0
C278 C 0.6355 0.03018 0.49702 0.0
C279 C 0.77781 0.93171 0.50769 0.0
C280 C 0.6817 0.91036 0.44468 0.0
C281 C 0.70434 0.93555 0.42647 0.0
C282 C 0.68078 0.92538 0.46948 0.0
C283 C 0.70383 0.96594 0.47619 0.0
C284 C 0.72679 -0.00872 0.45782 0.0
C285 C 0.72641 0.97602 0.43325 0.0
C286 C 0.65537 0.89783 0.48851 0.0
C287 C 0.75267 0.03413 0.46419 0.0
H288 H 0.65745 0.05538 0.54375 0.0
H289 H 0.77589 0.9705 0.5528 0.0
H290 H 0.64853 0.04963 0.48097 0.0
H291 H 0.61574 0.00105 0.48958 0.0
H292 H 0.61207 0.05243 0.50788 0.0
H293 H 0.80318 0.92183 0.52194 0.0
H294 H 0.76053 0.9006 0.50089 0.0
H295 H 0.79642 0.94664 0.49178 0.0
H296 H 0.66432 0.87927 0.43952 0.0
H297 H 0.74422 -0.00439 0.41932 0.0
H298 H 0.63031 0.91968 0.49847 0.0
H299 H 0.67969 0.88465 0.50244 0.0
H300 H 0.63694 0.86865 0.48011 0.0
H301 H 0.72948 0.05911 0.47322 0.0
H302 H 0.76824 0.05022 0.44765 0.0
H303 H 0.78029 0.02626 0.47753 0.0
C304 C 0.93332 0.6854 0.03405 0.0
C305 C 0.95596 0.71143 0.05197 0.0
C306 C 0.94992 0.68298 0.00959 0.0
C307 C -0.01047 0.70781 0.00289 0.0
C308 C 0.01253 0.73392 0.02099 0.0
C309 C -0.00432 0.73513 0.04528 0.0
C310 C 0.92479 0.65434 0.99085 0.0
C311 C 0.05426 0.76169 0.01457 0.0
C312 C 0.05459 0.68353 0.94291 0.0
C313 C 0.03588 0.71632 0.92719 0.0
C314 C 0.03916 0.67955 0.96752 0.0
C315 C 0.00498 0.70965 0.97662 0.0
C316 C -0.01339 0.74318 0.96086 0.0
C317 C 0.00198 0.74583 0.93636 0.0
C318 C 0.05914 0.64302 0.98372 0.0
C319 C 0.95093 0.77666 0.96992 0.0
H320 H 0.90287 0.6667 0.03916 0.0
H321 H 0.01337 0.75543 0.059 0.0
H322 H 0.90999 0.67646 0.97638 0.0
H323 H 0.9489 0.63059 0.98152 0.0
H324 H 0.89673 0.63438 -0.00062 0.0
H325 H 0.06919 0.77884 0.031 0.0
H326 H 0.08087 0.73973 0.00598 0.0
H327 H 0.04501 0.78798 0.00082 0.0
H328 H 0.0805 0.66043 0.93583 0.0
H329 H -0.01247 0.77147 0.92435 0.0
H330 H 0.0314 0.62112 0.99099 0.0
H331 H 0.07636 0.65868 -0.00011 0.0
H332 H 0.08428 0.62136 0.97365 0.0
H333 H 0.92027 0.75828 0.97661 0.0
H334 H 0.94019 0.80074 0.95529 0.0
H335 H 0.96455 0.7965 0.98575 0.0
C336 C 0.2209 0.06114 0.44451 0.0
C337 C 0.25762 0.07179 0.42884 0.0
C338 C 0.22805 0.03985 0.46729 0.0
C339 C 0.27314 0.02925 0.47482 0.0
C340 C 0.31056 0.04113 0.45948 0.0
C341 C 0.30237 0.06217 0.4366 0.0
C342 C 0.18714 0.02791 0.48311 0.0
C343 C 0.35913 0.03088 0.46703 0.0
C344 C 0.28202 0.0108 0.54385 0.0
C345 C 0.27863 0.96336 0.54554 0.0
C346 C 0.28327 0.03251 0.52087 0.0
C347 C 0.28049 0.00623 0.49896 0.0
C348 C 0.27954 0.95815 0.50049 0.0
C349 C 0.27891 0.93721 0.52382 0.0
C350 C 0.28495 0.08376 0.52011 0.0
C351 C 0.27639 0.92895 0.47754 0.0
H352 H 0.18621 0.06839 0.43871 0.0
H353 H 0.33093 0.07013 0.42457 0.0
H354 H 0.18633 -0.00928 0.48631 0.0
H355 H 0.18984 0.04474 0.50144 0.0
H356 H 0.1543 0.03825 0.47451 0.0
H357 H 0.38452 0.04387 0.4535 0.0
H358 H 0.3663 0.04621 0.4854 0.0
H359 H 0.36388 -0.00636 0.46882 0.0
H360 H 0.2824 0.03122 0.5606 0.0
H361 H 0.2763 0.90057 0.52503 0.0
H362 H 0.25144 0.09716 0.51387 0.0
H363 H 0.31115 0.09526 0.50666 0.0
H364 H 0.29271 0.09884 0.53849 0.0
H365 H 0.24242 0.93386 0.46884 0.0
H366 H 0.28086 0.89228 0.48166 0.0
H367 H 0.30263 0.93918 0.46381 0.0
C368 C 0.19211 0.19047 0.19893 0.0
C369 C 0.20022 0.22406 0.18123 0.0
C370 C 0.20786 0.1952 0.22315 0.0
C371 C 0.23299 0.23442 0.22994 0.0
C372 C 0.24407 0.26711 0.21176 0.0
C373 C 0.22726 0.26167 0.18754 0.0
C374 C 0.19554 0.15902 0.24177 0.0
C375 C 0.27153 0.30889 0.21799 0.0
C376 C 0.21188 0.24858 0.29779 0.0
C377 C 0.24491 0.21845 0.30683 0.0
C378 C 0.21115 0.25996 0.27261 0.0
C379 C 0.24457 0.24112 0.25647 0.0
C380 C 0.28235 0.21752 0.26647 0.0
C381 C 0.28182 0.20594 0.29158 0.0
C382 C 0.17092 0.28639 0.2628 0.0
C383 C 0.31996 0.19897 0.25011 0.0
H384 H 0.17171 0.16105 0.19409 0.0
H385 H 0.23359 0.28782 0.17392 0.0
H386 H 0.22696 0.14496 0.25027 0.0
H387 H 0.1744 0.17405 0.25682 0.0
H388 H 0.17614 0.1305 0.23334 0.0
H389 H 0.28902 0.32253 0.20136 0.0
H390 H 0.2482 0.33566 0.22522 0.0
H391 H 0.2975 0.30182 0.23239 0.0
H392 H 0.18353 0.25876 0.30957 0.0
H393 H 0.30802 0.18341 0.29867 0.0
H394 H 0.14624 0.26247 0.25422 0.0
H395 H 0.18204 0.31057 0.24835 0.0
H396 H 0.15294 0.30553 0.27771 0.0
H397 H 0.30847 0.16668 0.24149 0.0
H398 H 0.35148 0.19188 0.26085 0.0
H399 H 0.32823 0.22305 0.23504 0.0
C400 C 0.72474 0.19211 0.80657 0.0
C401 C 0.75605 0.22574 0.8136 0.0
C402 C 0.71275 0.18617 0.78161 0.0
C403 C 0.73243 0.21465 0.76343 0.0
C404 C 0.7594 0.2521 0.77088 0.0
C405 C 0.77091 0.25717 0.79589 0.0
C406 C 0.68321 0.14628 0.77449 0.0
C407 C 0.78044 0.28381 0.75222 0.0
C408 C 0.76882 0.15403 0.70463 0.0
C409 C 0.73468 0.16676 0.6879 0.0
C410 C 0.7686 0.17007 0.72903 0.0
C411 C 0.73323 0.19967 0.73708 0.0
C412 C 0.69928 0.21383 0.72013 0.0
C413 C 0.70042 0.19721 0.69565 0.0
C414 C 0.80591 0.15447 0.74634 0.0
C415 C 0.66109 0.24535 0.72803 0.0
H416 H 0.71277 0.16788 0.82013 0.0
H417 H 0.79448 0.28383 0.80125 0.0
H418 H 0.65866 0.15584 0.75982 0.0
H419 H 0.70522 0.1186 0.76704 0.0
H420 H 0.66385 0.13289 0.79058 0.0
H421 H 0.7925 0.3158 0.761 0.0
H422 H 0.81022 0.26682 0.74332 0.0
H423 H 0.75568 0.29233 0.73745 0.0
H424 H 0.7956 0.13077 0.69875 0.0
H425 H 0.67379 0.20699 0.68283 0.0
H426 H 0.79069 0.13558 0.76202 0.0
H427 H 0.82412 0.18425 0.75415 0.0
H428 H 0.83138 0.1321 0.737 0.0
H429 H 0.63787 0.22732 0.7409 0.0
H430 H 0.64076 0.25749 0.71205 0.0
H431 H 0.67491 0.27519 0.73812 0.0
C432 C 0.78079 0.76005 0.2915 0.0
C433 C 0.73748 0.76729 0.30182 0.0
C434 C 0.78562 0.74659 0.26669 0.0
C435 C 0.74604 0.73853 0.25223 0.0
C436 C 0.70224 0.74174 0.26338 0.0
C437 C 0.69841 0.7574 0.2879 0.0
C438 C 0.83299 0.74487 0.25546 0.0
C439 C 0.65933 0.73122 0.24906 0.0
C440 C 0.76327 0.76642 0.18454 0.0
C441 C 0.77944 0.72489 0.17529 0.0
C442 C 0.74982 0.77084 0.20938 0.0
C443 C 0.75087 0.73228 0.22498 0.0
C444 C 0.76255 0.68927 0.21491 0.0
C445 C 0.77796 0.6863 0.19031 0.0
C446 C 0.73879 0.8176 0.21942 0.0
C447 C 0.7617 0.64694 0.2305 0.0
H448 H 0.81088 0.76867 0.3022 0.0
H449 H 0.66488 0.76346 0.29592 0.0
H450 H 0.83916 0.71144 0.24651 0.0
H451 H 0.83598 0.77115 0.2409 0.0
H452 H 0.86019 0.75079 0.26939 0.0
H453 H 0.62982 0.72494 0.26157 0.0
H454 H 0.65061 0.76037 0.23705 0.0
H455 H 0.66441 0.70103 0.23696 0.0
H456 H 0.76523 0.79638 0.17301 0.0
H457 H 0.7907 0.65418 0.18313 0.0
H458 H 0.76534 0.82783 0.23296 0.0
H459 H 0.70553 0.81743 0.2293 0.0
H460 H 0.73733 0.8436 0.20463 0.0
H461 H 0.79253 0.64591 0.24236 0.0
H462 H 0.76141 0.61569 0.21889 0.0
H463 H 0.73126 0.6468 0.24282 0.0
C464 C 0.20433 0.81355 0.69312 0.0
C465 C 0.23688 0.7976 0.67605 0.0
C466 C 0.20107 0.79518 0.71685 0.0
C467 C 0.23106 0.7597 0.72383 0.0
C468 C 0.26352 0.74267 0.70659 0.0
C469 C 0.26609 0.76188 0.68282 0.0
C470 C 0.16561 0.81421 0.73454 0.0
C471 C 0.29594 0.70482 0.71338 0.0
C472 C 0.23441 0.75446 0.79355 0.0
C473 C 0.19761 0.72524 0.79808 0.0
C474 C 0.24935 0.76263 0.76924 0.0
C475 C 0.2271 0.74075 0.74921 0.0
C476 C 0.19378 0.70718 0.75404 0.0
C477 C 0.17927 0.7 0.77842 0.0
C478 C 0.28538 0.79833 0.76491 0.0
C479 C 0.16971 0.68243 0.73333 0.0
H480 H 0.1815 0.84102 0.68805 0.0
H481 H 0.29151 0.74958 0.66976 0.0
H482 H 0.14196 0.78691 0.74044 0.0
H483 H 0.18253 0.82766 0.75137 0.0
H484 H 0.14508 0.84196 0.72621 0.0
H485 H 0.31682 0.69316 0.69735 0.0
H486 H 0.31932 0.71663 0.72818 0.0
H487 H 0.27668 0.67546 0.72082 0.0
H488 H 0.24884 0.77392 0.80869 0.0
H489 H 0.15128 0.67676 0.7819 0.0
H490 H 0.26859 0.8303 0.75898 0.0
H491 H 0.30927 0.78767 0.74998 0.0
H492 H 0.30532 0.80554 0.78193 0.0
H493 H 0.14403 0.7054 0.72492 0.0
H494 H 0.15173 0.65166 0.74006 0.0
H495 H 0.19422 0.67225 0.7186 0.0
C496 C 0.0747 0.04053 0.13277 0.0
C497 C 0.05571 0.07839 0.14489 0.0
C498 C 0.05571 -0.00274 0.13562 0.0
C499 C 0.0172 -0.00832 0.15122 0.0
C500 C 0.00038 0.02899 0.16517 0.0
C501 C 0.01961 0.07212 0.16167 0.0
C502 C 0.07452 0.95838 0.1203 0.0
C503 C 0.96011 0.02406 0.18248 0.0
C504 C 0.93387 0.90442 0.12734 0.0
C505 C 0.94585 0.86574 0.14092 0.0
C506 C 0.95579 0.94593 0.13124 0.0
C507 C -0.00978 0.9492 0.14947 0.0
C508 C 0.00089 0.91105 0.16421 0.0
C509 C 0.97878 0.86951 0.15963 0.0
C510 C 0.94351 -0.01425 0.115 0.0
C511 C 0.03672 0.91369 0.18418 0.0
H512 H 0.10289 0.04502 0.11995 0.0
H513 H 0.00527 0.10114 0.17142 0.0
H514 H 0.07951 0.92781 0.13187 0.0
H515 H 0.04964 0.94941 0.10562 0.0
H516 H 0.10761 0.96701 0.11135 0.0
H517 H 0.95694 0.05349 0.19532 0.0
H518 H 0.92817 0.02166 0.17154 0.0
H519 H 0.96312 -0.0075 0.19347 0.0
H520 H 0.9083 0.90203 0.11293 0.0
H521 H -0.01206 0.83988 0.17035 0.0
H522 H 0.97364 -0.00439 0.10372 0.0
H523 H 0.93381 0.01555 0.12652 0.0
H524 H 0.91476 0.97797 0.1023 0.0
H525 H 0.07113 0.91588 0.17558 0.0
H526 H 0.036 0.88349 0.1964 0.0
H527 H 0.03179 0.94469 0.19565 0.0
C528 C 0.10049 0.98135 0.64443 0.0
C529 C 0.10756 0.94577 0.62748 0.0
C530 C 0.05707 0.00089 0.64755 0.0
C531 C 0.02024 -0.01521 0.63311 0.0
C532 C 0.02706 0.94852 0.6162 0.0
C533 C 0.07063 0.92921 0.61371 0.0
C534 C 0.0507 0.03902 0.66604 0.0
C535 C -0.01146 0.93072 0.60035 0.0
C536 C 0.89648 0.00479 0.65044 0.0
C537 C 0.88452 0.03986 0.63424 0.0
C538 C 0.9413 -0.012 0.65119 0.0
C539 C 0.9746 0.00637 0.63511 0.0
C540 C 0.96323 0.04308 0.61949 0.0
C541 C 0.91827 0.05964 0.61937 0.0
C542 C 0.95249 0.94932 0.6684 0.0
C543 C -0.00211 0.06326 0.60196 0.0
H544 H 0.12893 -0.00596 0.65524 0.0
H545 H 0.07597 0.90182 0.60053 0.0
H546 H 0.04035 0.0705 0.65635 0.0
H547 H 0.02287 0.03055 0.67922 0.0
H548 H 0.08236 0.04606 0.67668 0.0
H549 H -0.00047 0.90206 0.58824 0.0
H550 H 0.95992 0.91902 0.61221 0.0
H551 H 0.9751 0.95837 0.58853 0.0
H552 H 0.87056 -0.01027 0.66217 0.0
H553 H 0.90915 0.08675 0.60681 0.0
H554 H 0.98384 0.95702 0.6791 0.0
H555 H 0.95939 0.91807 0.65744 0.0
H556 H 0.92414 0.94226 0.68154 0.0
H557 H 0.02935 0.07293 0.61208 0.0
H558 H 0.98444 0.09369 0.59232 0.0
H559 H 0.00783 0.03751 0.58786 0.0
C560 C 0.92125 0.04675 0.86679 0.0
C561 C 0.93081 0.08695 0.85399 0.0
C562 C 0.94519 0.00656 0.86172 0.0
C563 C 0.97924 0.00615 0.84307 0.0
C564 C -0.01162 0.04622 0.82955 0.0
C565 C 0.96433 0.08641 0.83536 0.0
C566 C 0.93485 0.96482 0.8769 0.0
C567 C 0.02388 0.04672 0.80924 0.0
C568 C 0.06656 0.91418 0.85459 0.0
C569 C 0.04815 0.87754 0.84123 0.0
C570 C 0.04631 0.9573 0.85393 0.0
C571 C 0.00697 0.96426 0.83928 0.0
C572 C -0.00953 0.92852 0.82413 0.0
C573 C 0.01108 0.88538 0.82541 0.0
C574 C 0.06483 -0.00569 0.87054 0.0
C575 C 0.94919 0.93496 0.80784 0.0
H576 H 0.89557 0.04683 0.8813 0.0
H577 H 0.9716 0.11727 0.82525 0.0
H578 H 0.92511 0.93618 0.86461 0.0
H579 H 0.96588 0.95425 0.88716 0.0
H580 H 0.90675 0.97067 0.89043 0.0
H581 H 0.02402 0.07935 0.79902 0.0
H582 H 0.05834 0.04122 0.81721 0.0
H583 H 0.0176 0.01859 0.79595 0.0
H584 H 0.09553 0.90874 0.86667 0.0
H585 H -0.00302 0.85748 0.81476 0.0
H586 H 0.04053 0.00046 0.88602 0.0
H587 H 0.06831 0.02662 0.86028 0.0
H588 H 0.09864 -0.01477 0.87845 0.0
H589 H 0.91784 0.93574 0.81945 0.0
H590 H 0.94577 0.90706 0.79406 0.0
H591 H 0.95113 0.9678 0.79793 0.0
C592 C 0.89511 0.94187 0.35543 0.0
C593 C 0.85884 0.94414 0.33856 0.0
C594 C 0.93595 0.96529 0.35137 0.0
C595 C 0.94129 -0.00876 0.32962 0.0
C596 C 0.90553 -0.00743 0.31201 0.0
C597 C 0.86435 0.96939 0.31683 0.0
C598 C 0.97282 0.96338 0.37088 0.0
C599 C 0.91047 0.01905 0.28835 0.0
C600 C 0.02595 0.0853 0.34095 0.0
C601 C 0.06735 0.06414 0.33428 0.0
C602 C 0.98396 0.06339 0.33753 0.0
C603 C 0.98313 0.01946 0.32682 0.0
C604 C 0.02427 -0.0002 0.31781 0.0
C605 C 0.06605 0.02221 0.32183 0.0
C606 C 0.94106 0.08556 0.34761 0.0
C607 C 0.02462 0.95357 0.30563 0.0
H608 H 0.89122 0.92262 0.37233 0.0
H609 H 0.83663 0.97096 0.30361 0.0
H610 H 0.00529 0.95078 0.36267 0.0
H611 H 0.9793 -0.002 0.37828 0.0
H612 H 0.96349 0.94097 0.38656 0.0
H613 H 0.88245 0.0116 0.27513 0.0
H614 H 0.91007 0.05597 0.29255 0.0
H615 H 0.94372 0.01121 0.27931 0.0
H616 H 0.02636 0.118 0.35025 0.0
H617 H 0.09773 0.00589 0.31623 0.0
H618 H 0.93002 0.06756 0.36459 0.0
H619 H 0.91279 0.08311 0.33408 0.0
H620 H 0.94643 0.12192 0.35235 0.0
H621 H 0.02129 0.927 0.31998 0.0
H622 H 0.05686 0.94731 0.2952 0.0
H623 H -0.00473 0.94989 0.29282 0.0
loop_
_geom_bond_atom_site_label_1
_geom_bond_atom_site_label_2
_geom_bond_distance
_geom_bond_site_symmetry_2
_ccdc_geom_bond_type
C0 O1 1.306 . S
C0 O3 1.160 . S
O1 C0 1.306 . S
O1 Cd2 2.228 . S
Cd2 O1 2.228 . S
Cd2 O6 2.273 . S
Cd2 O10 2.277 . S
O3 C0 1.160 . S
O3 Cd4 2.203 . S
Cd4 O3 2.203 . S
Cd4 O6 2.411 . S
Cd4 O7 2.333 . S
Cd4 O8 2.352 . S
Cd4 O12 2.277 . S
Cd4 O13 2.356 . S
C5 O10 1.209 . S
C5 O12 1.226 . S
O6 Cd2 2.273 . S
O6 Cd4 2.411 . S
O6 C9 1.320 . S
O7 Cd4 2.333 . S
O7 C9 1.214 . S
O8 Cd4 2.352 . S
O8 C11 1.258 . S
C9 O6 1.320 . S
C9 O7 1.214 . S
O10 Cd2 2.277 . S
O10 C5 1.209 . S
C11 O8 1.258 . S
C11 O13 1.282 . S
O12 Cd4 2.277 . S
O12 C5 1.226 . S
O13 Cd4 2.356 . S
O13 C11 1.282 . S
C14 O15 1.306 . S
C14 O17 1.160 . S
O15 C14 1.306 . S
O15 Cd16 2.228 . S
Cd16 O15 2.228 . S
Cd16 O20 2.273 . S
Cd16 O24 2.277 . S
O17 C14 1.160 . S
O17 Cd18 2.203 . S
Cd18 O17 2.203 . S
Cd18 O20 2.411 . S
Cd18 O21 2.333 . S
Cd18 O22 2.352 . S
Cd18 O26 2.277 . S
Cd18 O27 2.356 . S
C19 O24 1.209 . S
C19 O26 1.226 . S
O20 Cd16 2.273 . S
O20 Cd18 2.411 . S
O20 C23 1.320 . S
O21 Cd18 2.333 . S
O21 C23 1.214 . S
O22 Cd18 2.352 . S
O22 C25 1.258 . S
C23 O20 1.320 . S
C23 O21 1.214 . S
O24 Cd16 2.277 . S
O24 C19 1.209 . S
C25 O22 1.258 . S
C25 O27 1.282 . S
O26 Cd18 2.277 . S
O26 C19 1.226 . S
O27 Cd18 2.356 . S
O27 C25 1.282 . S
C28 O29 1.306 . S
C28 O31 1.160 . S
O29 C28 1.306 . S
O29 Cd30 2.228 . S
Cd30 O29 2.228 . S
Cd30 O34 2.273 . S
Cd30 O38 2.277 . S
O31 C28 1.160 . S
O31 Cd32 2.203 . S
Cd32 O31 2.203 . S
Cd32 O34 2.411 . S
Cd32 O35 2.333 . S
Cd32 O36 2.352 . S
Cd32 O40 2.277 . S
Cd32 O41 2.356 . S
C33 O38 1.209 . S
C33 O40 1.226 . S
O34 Cd30 2.273 . S
O34 Cd32 2.411 . S
O34 C37 1.320 . S
O35 Cd32 2.333 . S
O35 C37 1.214 . S
O36 Cd32 2.352 . S
O36 C39 1.258 . S
C37 O34 1.320 . S
C37 O35 1.214 . S
O38 Cd30 2.277 . S
O38 C33 1.209 . S
C39 O36 1.258 . S
C39 O41 1.282 . S
O40 Cd32 2.277 . S
O40 C33 1.226 . S
O41 Cd32 2.356 . S
O41 C39 1.282 . S
C42 O43 1.306 . S
C42 O45 1.160 . S
O43 C42 1.306 . S
O43 Cd44 2.228 . S
Cd44 O43 2.228 . S
Cd44 O48 2.273 . S
Cd44 O52 2.277 . S
O45 C42 1.160 . S
O45 Cd46 2.203 . S
Cd46 O45 2.203 . S
Cd46 O48 2.411 . S
Cd46 O49 2.333 . S
Cd46 O50 2.352 . S
Cd46 O54 2.277 . S
Cd46 O55 2.356 . S
C47 O52 1.209 . S
C47 O54 1.226 . S
O48 Cd44 2.273 . S
O48 Cd46 2.411 . S
O48 C51 1.320 . S
O49 Cd46 2.333 . S
O49 C51 1.214 . S
O50 Cd46 2.352 . S
O50 C53 1.258 . S
C51 O48 1.320 . S
C51 O49 1.214 . S
O52 Cd44 2.277 . S
O52 C47 1.209 . S
C53 O50 1.258 . S
C53 O55 1.282 . S
O54 Cd46 2.277 . S
O54 C47 1.226 . S
O55 Cd46 2.356 . S
O55 C53 1.282 . S
C56 O57 1.306 . S
C56 O59 1.160 . S
O57 C56 1.306 . S
O57 Cd58 2.228 . S
Cd58 O57 2.228 . S
Cd58 O62 2.273 . S
Cd58 O66 2.277 . S
O59 C56 1.160 . S
O59 Cd60 2.203 . S
Cd60 O59 2.203 . S
Cd60 O62 2.411 . S
Cd60 O63 2.333 . S
Cd60 O64 2.352 . S
Cd60 O68 2.277 . S
Cd60 O69 2.356 . S
C61 O66 1.209 . S
C61 O68 1.226 . S
O62 Cd58 2.273 . S
O62 Cd60 2.411 . S
O62 C65 1.320 . S
O63 Cd60 2.333 . S
O63 C65 1.214 . S
O64 Cd60 2.352 . S
O64 C67 1.258 . S
C65 O62 1.320 . S
C65 O63 1.214 . S
O66 Cd58 2.277 . S
O66 C61 1.209 . S
C67 O64 1.258 . S
C67 O69 1.282 . S
O68 Cd60 2.277 . S
O68 C61 1.226 . S
O69 Cd60 2.356 . S
O69 C67 1.282 . S
C70 O71 1.306 . S
C70 O73 1.160 . S
O71 C70 1.306 . S
O71 Cd72 2.228 . S
Cd72 O71 2.228 . S
Cd72 O76 2.273 . S
Cd72 O80 2.277 . S
O73 C70 1.160 . S
O73 Cd74 2.203 . S
Cd74 O73 2.203 . S
Cd74 O76 2.411 . S
Cd74 O77 2.333 . S
Cd74 O78 2.352 . S
Cd74 O82 2.277 . S
Cd74 O83 2.356 . S
C75 O80 1.209 . S
C75 O82 1.226 . S
O76 Cd72 2.273 . S
O76 Cd74 2.411 . S
O76 C79 1.320 . S
O77 Cd74 2.333 . S
O77 C79 1.214 . S
O78 Cd74 2.352 . S
O78 C81 1.258 . S
C79 O76 1.320 . S
C79 O77 1.214 . S
O80 Cd72 2.277 . S
O80 C75 1.209 . S
C81 O78 1.258 . S
C81 O83 1.282 . S
O82 Cd74 2.277 . S
O82 C75 1.226 . S
O83 Cd74 2.356 . S
O83 C81 1.282 . S
C84 O85 1.306 . S
C84 O87 1.160 . S
O85 C84 1.306 . S
O85 Cd86 2.228 . S
Cd86 O85 2.228 . S
Cd86 O90 2.273 . S
Cd86 O94 2.277 . S
O87 C84 1.160 . S
O87 Cd88 2.203 . S
Cd88 O87 2.203 . S
Cd88 O90 2.411 . S
Cd88 O91 2.333 . S
Cd88 O92 2.352 . S
Cd88 O96 2.277 . S
Cd88 O97 2.356 . S
C89 O94 1.209 . S
C89 O96 1.226 . S
O90 Cd86 2.273 . S
O90 Cd88 2.411 . S
O90 C93 1.320 . S
O91 Cd88 2.333 . S
O91 C93 1.214 . S
O92 Cd88 2.352 . S
O92 C95 1.258 . S
C93 O90 1.320 . S
C93 O91 1.214 . S
O94 Cd86 2.277 . S
O94 C89 1.209 . S
C95 O92 1.258 . S
C95 O97 1.282 . S
O96 Cd88 2.277 . S
O96 C89 1.226 . S
O97 Cd88 2.356 . S
O97 C95 1.282 . S
C98 O99 1.306 . S
C98 O101 1.160 . S
O99 C98 1.306 . S
O99 Cd100 2.228 . S
Cd100 O99 2.228 . S
Cd100 O104 2.273 . S
Cd100 O108 2.277 . S
O101 C98 1.160 . S
O101 Cd102 2.203 . S
Cd102 O101 2.203 . S
Cd102 O104 2.411 . S
Cd102 O105 2.333 . S
Cd102 O106 2.352 . S
Cd102 O110 2.277 . S
Cd102 O111 2.356 . S
C103 O108 1.209 . S
C103 O110 1.226 . S
O104 Cd100 2.273 . S
O104 Cd102 2.411 . S
O104 C107 1.320 . S
O105 Cd102 2.333 . S
O105 C107 1.214 . S
O106 Cd102 2.352 . S
O106 C109 1.258 . S
C107 O104 1.320 . S
C107 O105 1.214 . S
O108 Cd100 2.277 . S
O108 C103 1.209 . S
C109 O106 1.258 . S
C109 O111 1.282 . S
O110 Cd102 2.277 . S
O110 C103 1.226 . S
O111 Cd102 2.356 . S
O111 C109 1.282 . S
C112 C113 1.391 . S
C112 C114 1.394 . S
C112 H128 0.931 . S
C113 C112 1.391 . S
C113 C117 1.376 1_455 S
C114 C112 1.394 . S
C114 C115 1.370 1_455 S
C114 C118 1.531 . S
C115 C114 1.370 1_655 S
C115 C116 1.409 . S
C115 C123 1.503 . S
C116 C115 1.409 . S
C116 C117 1.392 . S
C116 C119 1.511 . S
C117 C113 1.376 1_655 S
C117 C116 1.392 . S
C117 H129 0.929 . S
C118 C114 1.531 . S
C118 H130 0.960 . S
C118 H131 0.962 . S
C118 H132 0.960 . S
C119 C116 1.511 . S
C119 H133 0.961 . S
C119 H134 0.961 . S
C119 H135 0.961 . S
C120 C121 1.360 1_455 S
C120 C122 1.366 . S
C120 H136 0.938 . S
C121 C120 1.360 1_655 S
C121 C125 1.408 . S
C122 C120 1.366 . S
C122 C123 1.370 1_455 S
C122 C126 1.524 . S
C123 C115 1.503 . S
C123 C122 1.370 1_655 S
C123 C124 1.403 . S
C124 C123 1.403 . S
C124 C125 1.404 . S
C124 C127 1.539 . S
C125 C121 1.408 . S
C125 C124 1.404 . S
C125 H137 0.930 . S
C126 C122 1.524 . S
C126 H138 0.956 . S
C126 H139 0.961 . S
C126 H140 0.961 . S
C127 C124 1.539 . S
C127 H141 0.958 . S
C127 H142 0.961 . S
C127 H143 0.960 . S
H128 C112 0.931 . S
H129 C117 0.929 . S
H130 C118 0.960 . S
H131 C118 0.962 . S
H132 C118 0.960 . S
H133 C119 0.961 . S
H134 C119 0.961 . S
H135 C119 0.961 . S
H136 C120 0.938 . S
H137 C125 0.930 . S
H138 C126 0.956 . S
H139 C126 0.961 . S
H140 C126 0.961 . S
H141 C127 0.958 . S
H142 C127 0.961 . S
H143 C127 0.960 . S
C144 C145 1.391 . S
C144 C146 1.394 . S
C144 H160 0.931 . S
C145 C144 1.391 . S
C145 C149 1.376 . S
C146 C144 1.394 . S
C146 C147 1.369 . S
C146 C150 1.531 . S
C147 C146 1.369 . S
C147 C148 1.410 . S
C147 C155 1.502 1_565 S
C148 C147 1.410 . S
C148 C149 1.392 . S
C148 C151 1.511 1_565 S
C149 C145 1.376 . S
C149 C148 1.392 . S
C149 H161 0.929 . S
C150 C146 1.531 . S
C150 H162 0.960 . S
C150 H163 0.962 . S
C150 H164 0.960 . S
C151 C148 1.511 1_545 S
C151 H165 0.961 . S
C151 H166 0.961 . S
C151 H167 0.961 1_545 S
C152 C153 1.370 . S
C152 C154 1.363 . S
C152 H168 0.931 . S
C153 C152 1.370 . S
C153 C157 1.408 1_545 S
C154 C152 1.363 . S
C154 C155 1.375 . S
C154 C158 1.524 . S
C155 C147 1.502 1_545 S
C155 C154 1.375 . S
C155 C156 1.400 1_545 S
C156 C155 1.400 1_565 S
C156 C157 1.404 . S
C156 C159 1.539 . S
C157 C153 1.408 1_565 S
C157 C156 1.404 . S
C157 H169 0.930 . S
C158 C154 1.524 . S
C158 H170 0.956 . S
C158 H171 0.961 . S
C158 H172 0.961 . S
C159 C156 1.539 . S
C159 H173 0.958 . S
C159 H174 0.961 . S
C159 H175 0.960 . S
H160 C144 0.931 . S
H161 C149 0.929 . S
H162 C150 0.960 . S
H163 C150 0.962 . S
H164 C150 0.960 . S
H165 C151 0.961 . S
H166 C151 0.961 . S
H167 C151 0.961 1_565 S
H168 C152 0.931 . S
H169 C157 0.930 . S
H170 C158 0.956 . S
H171 C158 0.961 . S
H172 C158 0.961 . S
H173 C159 0.958 . S
H174 C159 0.961 . S
H175 C159 0.960 . S
C176 C177 1.391 . S
C176 C178 1.394 . S
C176 H192 0.931 . S
C177 C176 1.391 . S
C177 C181 1.376 1_655 S
C178 C176 1.394 . S
C178 C179 1.369 . S
C178 C182 1.531 . S
C179 C178 1.369 . S
C179 C180 1.410 1_655 S
C179 C187 1.503 1_655 S
C180 C179 1.410 1_455 S
C180 C181 1.392 . S
C180 C183 1.511 . S
C181 C177 1.376 1_455 S
C181 C180 1.392 . S
C181 H193 0.929 . S
C182 C178 1.531 . S
C182 H194 0.960 . S
C182 H195 0.962 . S
C182 H196 0.960 . S
C183 C180 1.511 . S
C183 H197 0.961 . S
C183 H198 0.961 . S
C183 H199 0.961 . S
C184 C185 1.370 . S
C184 C186 1.363 . S
C184 H200 0.931 . S
C185 C184 1.370 . S
C185 C189 1.408 . S
C186 C184 1.363 . S
C186 C187 1.370 . S
C186 C190 1.524 . S
C187 C179 1.503 1_455 S
C187 C186 1.370 . S
C187 C188 1.403 1_455 S
C188 C187 1.403 1_655 S
C188 C189 1.404 1_655 S
C188 C191 1.539 . S
C189 C185 1.408 . S
C189 C188 1.404 1_455 S
C189 H201 0.930 . S
C190 C186 1.524 . S
C190 H202 0.956 . S
C190 H203 0.961 . S
C190 H204 0.961 . S
C191 C188 1.539 . S
C191 H205 0.958 . S
C191 H206 0.961 . S
C191 H207 0.960 . S
H192 C176 0.931 . S
H193 C181 0.929 . S
H194 C182 0.960 . S
H195 C182 0.962 . S
H196 C182 0.960 . S
H197 C183 0.961 . S
H198 C183 0.961 . S
H199 C183 0.961 . S
H200 C184 0.931 . S
H201 C189 0.930 . S
H202 C190 0.956 . S
H203 C190 0.961 . S
H204 C190 0.961 . S
H205 C191 0.958 . S
H206 C191 0.961 . S
H207 C191 0.960 . S
C208 C209 1.391 . S
C208 C210 1.387 1_545 S
C208 H224 0.931 . S
C209 C208 1.391 . S
C209 C213 1.376 . S
C210 C208 1.387 1_565 S
C210 C211 1.370 . S
C210 C214 1.537 . S
C211 C210 1.370 . S
C211 C212 1.410 1_565 S
C211 C219 1.503 . S
C212 C211 1.410 1_545 S
C212 C213 1.392 . S
C212 C215 1.511 . S
C213 C209 1.376 . S
C213 C212 1.392 . S
C213 H225 0.929 . S
C214 C210 1.537 . S
C214 H226 0.960 . S
C214 H227 0.962 1_565 S
C214 H228 0.960 . S
C215 C212 1.511 . S
C215 H229 0.961 . S
C215 H230 0.961 . S
C215 H231 0.961 1_545 S
C216 C217 1.370 1_545 S
C216 C218 1.363 . S
C216 H232 0.931 . S
C217 C216 1.370 1_565 S
C217 C221 1.408 . S
C218 C216 1.363 . S
C218 C219 1.370 1_545 S
C218 C222 1.524 . S
C219 C211 1.503 . S
C219 C218 1.370 1_565 S
C219 C220 1.403 . S
C220 C219 1.403 . S
C220 C221 1.404 . S
C220 C223 1.539 . S
C221 C217 1.408 . S
C221 C220 1.404 . S
C221 H233 0.930 . S
C222 C218 1.524 . S
C222 H234 0.956 . S
C222 H235 0.961 . S
C222 H236 0.961 . S
C223 C220 1.539 . S
C223 H237 0.958 . S
C223 H238 0.961 . S
C223 H239 0.960 . S
H224 C208 0.931 . S
H225 C213 0.929 . S
H226 C214 0.960 . S
H227 C214 0.962 1_545 S
H228 C214 0.960 . S
H229 C215 0.961 . S
H230 C215 0.961 . S
H231 C215 0.961 1_565 S
H232 C216 0.931 . S
H233 C221 0.930 . S
H234 C222 0.956 . S
H235 C222 0.961 . S
H236 C222 0.961 . S
H237 C223 0.958 . S
H238 C223 0.961 . S
H239 C223 0.960 . S
C240 C241 1.391 . S
C240 C242 1.384 1_655 S
C240 H256 0.931 . S
C241 C240 1.391 . S
C241 C245 1.376 . S
C242 C240 1.384 1_455 S
C242 C243 1.365 1_455 S
C242 C246 1.545 . S
C243 C242 1.365 1_655 S
C243 C244 1.410 . S
C243 C251 1.503 1_656 S
C244 C243 1.410 . S
C244 C245 1.392 . S
C244 C247 1.511 1_556 S
C245 C241 1.376 . S
C245 C244 1.392 . S
C245 H257 0.929 . S
C246 C242 1.545 . S
C246 H258 0.960 . S
C246 H259 0.962 . S
C246 H260 0.960 . S
C247 C244 1.511 1_554 S
C247 H261 0.961 . S
C247 H262 0.961 . S
C247 H263 0.961 . S
C248 C249 1.370 . S
C248 C250 1.363 . S
C248 H264 0.931 . S
C249 C248 1.370 . S
C249 C253 1.408 . S
C250 C248 1.363 . S
C250 C251 1.370 . S
C250 C254 1.524 1_455 S
C251 C243 1.503 1_454 S
C251 C250 1.370 . S
C251 C252 1.403 . S
C252 C251 1.403 . S
C252 C253 1.404 . S
C252 C255 1.539 . S
C253 C249 1.408 . S
C253 C252 1.404 . S
C253 H265 0.930 . S
C254 C250 1.524 1_655 S
C254 H266 0.977 1_655 S
C254 H267 0.961 . S
C254 H268 0.961 . S
C255 C252 1.539 . S
C255 H269 0.958 1_554 S
C255 H270 0.961 . S
C255 H271 0.960 1_554 S
H256 C240 0.931 . S
H257 C245 0.929 . S
H258 C246 0.960 . S
H259 C246 0.962 . S
H260 C246 0.960 . S
H261 C247 0.961 . S
H262 C247 0.961 . S
H263 C247 0.961 . S
H264 C248 0.931 . S
H265 C253 0.930 . S
H266 C254 0.977 1_455 S
H267 C254 0.961 . S
H268 C254 0.961 . S
H269 C255 0.958 1_556 S
H270 C255 0.961 . S
H271 C255 0.960 1_556 S
C272 C273 1.391 . S
C272 C274 1.394 . S
C272 H288 0.931 . S
C273 C272 1.391 . S
C273 C277 1.376 . S
C274 C272 1.394 . S
C274 C275 1.369 . S
C274 C278 1.531 . S
C275 C274 1.369 . S
C275 C276 1.410 . S
C275 C283 1.503 1_545 S
C276 C275 1.410 . S
C276 C277 1.392 . S
C276 C279 1.511 . S
C277 C273 1.376 . S
C277 C276 1.392 . S
C277 H289 0.929 . S
C278 C274 1.531 . S
C278 H290 0.960 . S
C278 H291 0.962 . S
C278 H292 0.960 . S
C279 C276 1.511 . S
C279 H293 0.961 . S
C279 H294 0.961 1_545 S
C279 H295 0.961 . S
C280 C281 1.370 . S
C280 C282 1.363 . S
C280 H296 0.931 . S
C281 C280 1.370 . S
C281 C285 1.408 . S
C282 C280 1.363 . S
C282 C283 1.370 . S
C282 C286 1.524 . S
C283 C275 1.503 1_565 S
C283 C282 1.370 . S
C283 C284 1.403 1_565 S
C284 C283 1.403 1_545 S
C284 C285 1.404 1_545 S
C284 C287 1.539 . S
C285 C281 1.408 . S
C285 C284 1.404 1_565 S
C285 H297 0.930 . S
C286 C282 1.524 . S
C286 H298 0.956 . S
C286 H299 0.961 . S
C286 H300 0.961 . S
C287 C284 1.539 . S
C287 H301 0.958 . S
C287 H302 0.961 . S
C287 H303 0.960 . S
H288 C272 0.931 . S
H289 C277 0.929 . S
H290 C278 0.960 . S
H291 C278 0.962 . S
H292 C278 0.960 . S
H293 C279 0.961 . S
H294 C279 0.961 1_565 S
H295 C279 0.961 . S
H296 C280 0.931 . S
H297 C285 0.930 . S
H298 C286 0.956 . S
H299 C286 0.961 . S
H300 C286 0.961 . S
H301 C287 0.958 . S
H302 C287 0.961 . S
H303 C287 0.960 . S
C304 C305 1.391 . S
C304 C306 1.394 . S
C304 H320 0.931 . S
C305 C304 1.391 . S
C305 C309 1.376 . S
C306 C304 1.394 . S
C306 C307 1.369 . S
C306 C310 1.531 1_554 S
C307 C306 1.369 . S
C307 C308 1.418 . S
C307 C315 1.503 1_654 S
C308 C307 1.418 . S
C308 C309 1.407 . S
C308 C311 1.490 1_655 S
C309 C305 1.376 . S
C309 C308 1.407 . S
C309 H321 0.929 . S
C310 C306 1.531 1_556 S
C310 H322 0.960 . S
C310 H323 0.962 . S
C310 H324 0.960 . S
C311 C308 1.490 1_455 S
C311 H325 0.961 . S
C311 H326 0.961 . S
C311 H327 0.961 . S
C312 C313 1.370 . S
C312 C314 1.363 . S
C312 H328 0.931 . S
C313 C312 1.370 . S
C313 C317 1.408 . S
C314 C312 1.363 . S
C314 C315 1.370 . S
C314 C318 1.524 . S
C315 C307 1.503 1_456 S
C315 C314 1.370 . S
C315 C316 1.403 . S
C316 C315 1.403 . S
C316 C317 1.404 . S
C316 C319 1.539 . S
C317 C313 1.408 . S
C317 C316 1.404 . S
C317 H329 0.930 . S
C318 C314 1.524 . S
C318 H330 0.956 1_455 S
C318 H331 0.961 1_556 S
C318 H332 0.961 . S
C319 C316 1.539 . S
C319 H333 0.958 1_455 S
C319 H334 0.961 . S
C319 H335 0.960 1_556 S
H320 C304 0.931 . S
H321 C309 0.929 . S
H322 C310 0.960 . S
H323 C310 0.962 . S
H324 C310 0.960 . S
H325 C311 0.961 . S
H326 C311 0.961 . S
H327 C311 0.961 . S
H328 C312 0.931 . S
H329 C317 0.930 . S
H330 C318 0.956 1_655 S
H331 C318 0.961 1_554 S
H332 C318 0.961 . S
H333 C319 0.958 1_655 S
H334 C319 0.961 . S
H335 C319 0.960 1_554 S
C336 C337 1.391 . S
C336 C338 1.383 1_545 S
C336 H352 0.931 . S
C337 C336 1.391 . S
C337 C341 1.376 . S
C338 C336 1.383 1_565 S
C338 C339 1.363 1_565 S
C338 C342 1.547 . S
C339 C338 1.363 1_545 S
C339 C340 1.410 . S
C339 C347 1.503 1_545 S
C340 C339 1.410 . S
C340 C341 1.392 . S
C340 C343 1.511 . S
C341 C337 1.376 . S
C341 C340 1.392 . S
C341 H353 0.929 . S
C342 C338 1.547 . S
C342 H354 0.960 . S
C342 H355 0.962 . S
C342 H356 0.960 . S
C343 C340 1.511 . S
C343 H357 0.961 . S
C343 H358 0.961 . S
C343 H359 0.961 . S
C344 C345 1.370 . S
C344 C346 1.363 . S
C344 H360 0.931 . S
C345 C344 1.370 . S
C345 C349 1.408 . S
C346 C344 1.363 . S
C346 C347 1.370 . S
C346 C350 1.524 . S
C347 C339 1.503 1_565 S
C347 C346 1.370 . S
C347 C348 1.403 . S
C348 C347 1.403 . S
C348 C349 1.404 . S
C348 C351 1.539 . S
C349 C345 1.408 . S
C349 C348 1.404 . S
C349 H361 0.930 . S
C350 C346 1.524 . S
C350 H362 0.956 . S
C350 H363 0.961 1_565 S
C350 H364 0.961 . S
C351 C348 1.539 . S
C351 H365 0.958 . S
C351 H366 0.961 . S
C351 H367 0.940 1_565 S
H352 C336 0.931 . S
H353 C341 0.929 . S
H354 C342 0.960 . S
H355 C342 0.962 . S
H356 C342 0.960 . S
H357 C343 0.961 . S
H358 C343 0.961 . S
H359 C343 0.961 . S
H360 C344 0.931 . S
H361 C349 0.930 . S
H362 C350 0.956 . S
H363 C350 0.961 1_545 S
H364 C350 0.961 . S
H365 C351 0.958 . S
H366 C351 0.961 . S
H367 C351 0.940 1_545 S
C368 C369 1.391 . S
C368 C370 1.394 . S
C368 H384 0.931 . S
C369 C368 1.391 . S
C369 C373 1.376 . S
C370 C368 1.394 . S
C370 C371 1.369 . S
C370 C374 1.531 . S
C371 C370 1.369 . S
C371 C372 1.410 . S
C371 C379 1.503 . S
C372 C371 1.410 . S
C372 C373 1.392 . S
C372 C375 1.511 . S
C373 C369 1.376 . S
C373 C372 1.392 . S
C373 H385 0.929 . S
C374 C370 1.531 . S
C374 H386 0.960 . S
C374 H387 0.962 . S
C374 H388 0.960 . S
C375 C372 1.511 . S
C375 H389 0.961 . S
C375 H390 0.961 . S
C375 H391 0.961 . S
C376 C377 1.370 . S
C376 C378 1.363 . S
C376 H392 0.931 . S
C377 C376 1.370 . S
C377 C381 1.408 . S
C378 C376 1.363 . S
C378 C379 1.370 . S
C378 C382 1.524 . S
C379 C371 1.503 . S
C379 C378 1.370 . S
C379 C380 1.403 . S
C380 C379 1.403 . S
C380 C381 1.404 . S
C380 C383 1.539 . S
C381 C377 1.408 . S
C381 C380 1.404 . S
C381 H393 0.930 . S
C382 C378 1.524 . S
C382 H394 0.956 . S
C382 H395 0.961 . S
C382 H396 0.961 . S
C383 C380 1.539 . S
C383 H397 0.958 . S
C383 H398 0.961 . S
C383 H399 0.960 . S
H384 C368 0.931 . S
H385 C373 0.929 . S
H386 C374 0.960 . S
H387 C374 0.962 . S
H388 C374 0.960 . S
H389 C375 0.961 . S
H390 C375 0.961 . S
H391 C375 0.961 . S
H392 C376 0.931 . S
H393 C381 0.930 . S
H394 C382 0.956 . S
H395 C382 0.961 . S
H396 C382 0.961 . S
H397 C383 0.958 . S
H398 C383 0.961 . S
H399 C383 0.960 . S
C400 C401 1.391 . S
C400 C402 1.394 . S
C400 H416 0.931 . S
C401 C400 1.391 . S
C401 C405 1.376 . S
C402 C400 1.394 . S
C402 C403 1.369 . S
C402 C406 1.531 . S
C403 C402 1.369 . S
C403 C404 1.410 . S
C403 C411 1.503 . S
C404 C403 1.410 . S
C404 C405 1.392 . S
C404 C407 1.511 . S
C405 C401 1.376 . S
C405 C404 1.392 . S
C405 H417 0.929 . S
C406 C402 1.531 . S
C406 H418 0.960 . S
C406 H419 0.962 . S
C406 H420 0.960 . S
C407 C404 1.511 . S
C407 H421 0.961 . S
C407 H422 0.961 . S
C407 H423 0.961 . S
C408 C409 1.370 . S
C408 C410 1.363 . S
C408 H424 0.931 . S
C409 C408 1.370 . S
C409 C413 1.408 . S
C410 C408 1.363 . S
C410 C411 1.370 . S
C410 C414 1.524 . S
C411 C403 1.503 . S
C411 C410 1.370 . S
C411 C412 1.403 . S
C412 C411 1.403 . S
C412 C413 1.404 . S
C412 C415 1.539 . S
C413 C409 1.408 . S
C413 C412 1.404 . S
C413 H425 0.930 . S
C414 C410 1.524 . S
C414 H426 0.956 . S
C414 H427 0.961 . S
C414 H428 0.961 . S
C415 C412 1.539 . S
C415 H429 0.958 . S
C415 H430 0.961 . S
C415 H431 0.960 . S
H416 C400 0.931 . S
H417 C405 0.929 . S
H418 C406 0.960 . S
H419 C406 0.962 . S
H420 C406 0.960 . S
H421 C407 0.961 . S
H422 C407 0.961 . S
H423 C407 0.961 . S
H424 C408 0.931 . S
H425 C413 0.930 . S
H426 C414 0.956 . S
H427 C414 0.961 . S
H428 C414 0.961 . S
H429 C415 0.958 . S
H430 C415 0.961 . S
H431 C415 0.960 . S
C432 C433 1.391 . S
C432 C434 1.394 . S
C432 H448 0.931 . S
C433 C432 1.391 . S
C433 C437 1.376 . S
C434 C432 1.394 . S
C434 C435 1.369 . S
C434 C438 1.531 . S
C435 C434 1.369 . S
C435 C436 1.410 . S
C435 C443 1.503 . S
C436 C435 1.410 . S
C436 C437 1.392 . S
C436 C439 1.511 . S
C437 C433 1.376 . S
C437 C436 1.392 . S
C437 H449 0.929 . S
C438 C434 1.531 . S
C438 H450 0.960 . S
C438 H451 0.962 . S
C438 H452 0.960 . S
C439 C436 1.511 . S
C439 H453 0.961 . S
C439 H454 0.961 . S
C439 H455 0.961 . S
C440 C441 1.370 . S
C440 C442 1.363 . S
C440 H456 0.931 . S
C441 C440 1.370 . S
C441 C445 1.408 . S
C442 C440 1.363 . S
C442 C443 1.370 . S
C442 C446 1.524 . S
C443 C435 1.503 . S
C443 C442 1.370 . S
C443 C444 1.403 . S
C444 C443 1.403 . S
C444 C445 1.404 . S
C444 C447 1.539 . S
C445 C441 1.408 . S
C445 C444 1.404 . S
C445 H457 0.930 . S
C446 C442 1.524 . S
C446 H458 0.956 . S
C446 H459 0.961 . S
C446 H460 0.961 . S
C447 C444 1.539 . S
C447 H461 0.958 . S
C447 H462 0.961 . S
C447 H463 0.960 . S
H448 C432 0.931 . S
H449 C437 0.929 . S
H450 C438 0.960 . S
H451 C438 0.962 . S
H452 C438 0.960 . S
H453 C439 0.961 . S
H454 C439 0.961 . S
H455 C439 0.961 . S
H456 C440 0.931 . S
H457 C445 0.930 . S
H458 C446 0.956 . S
H459 C446 0.961 . S
H460 C446 0.961 . S
H461 C447 0.958 . S
H462 C447 0.961 . S
H463 C447 0.960 . S
C464 C465 1.391 . S
C464 C466 1.394 . S
C464 H480 0.931 . S
C465 C464 1.391 . S
C465 C469 1.376 . S
C466 C464 1.394 . S
C466 C467 1.369 . S
C466 C470 1.531 . S
C467 C466 1.369 . S
C467 C468 1.410 . S
C467 C475 1.503 . S
C468 C467 1.410 . S
C468 C469 1.392 . S
C468 C471 1.511 . S
C469 C465 1.376 . S
C469 C468 1.392 . S
C469 H481 0.929 . S
C470 C466 1.531 . S
C470 H482 0.960 . S
C470 H483 0.962 . S
C470 H484 0.960 . S
C471 C468 1.511 . S
C471 H485 0.961 . S
C471 H486 0.961 . S
C471 H487 0.961 . S
C472 C473 1.370 . S
C472 C474 1.363 . S
C472 H488 0.931 . S
C473 C472 1.370 . S
C473 C477 1.408 . S
C474 C472 1.363 . S
C474 C475 1.370 . S
C474 C478 1.524 . S
C475 C467 1.503 . S
C475 C474 1.370 . S
C475 C476 1.403 . S
C476 C475 1.403 . S
C476 C477 1.404 . S
C476 C479 1.539 . S
C477 C473 1.408 . S
C477 C476 1.404 . S
C477 H489 0.930 . S
C478 C474 1.524 . S
C478 H490 0.956 . S
C478 H491 0.961 . S
C478 H492 0.961 . S
C479 C476 1.539 . S
C479 H493 0.958 . S
C479 H494 0.961 . S
C479 H495 0.960 . S
H480 C464 0.931 . S
H481 C469 0.929 . S
H482 C470 0.960 . S
H483 C470 0.962 . S
H484 C470 0.960 . S
H485 C471 0.961 . S
H486 C471 0.961 . S
H487 C471 0.961 . S
H488 C472 0.931 . S
H489 C477 0.930 . S
H490 C478 0.956 . S
H491 C478 0.961 . S
H492 C478 0.961 . S
H493 C479 0.958 . S
H494 C479 0.961 . S
H495 C479 0.960 . S
C496 C497 1.391 . S
C496 C498 1.394 . S
C496 H512 0.931 . S
C497 C496 1.391 . S
C497 C501 1.376 1_455 S
C498 C496 1.394 . S
C498 C499 1.369 . S
C498 C502 1.531 . S
C499 C498 1.369 . S
C499 C500 1.410 1_455 S
C499 C507 1.503 1_445 S
C500 C499 1.410 1_655 S
C500 C501 1.392 . S
C500 C503 1.511 . S
C501 C497 1.376 1_655 S
C501 C500 1.392 . S
C501 H513 0.929 . S
C502 C498 1.531 . S
C502 H514 0.960 1_545 S
C502 H515 0.962 1_545 S
C502 H516 0.960 . S
C503 C500 1.511 . S
C503 H517 0.961 . S
C503 H518 0.961 . S
C503 H519 0.961 . S
C504 C505 1.370 . S
C504 C506 1.363 . S
C504 H520 0.931 . S
C505 C504 1.370 . S
C505 C509 1.408 . S
C506 C504 1.363 . S
C506 C507 1.370 . S
C506 C510 1.524 . S
C507 C499 1.503 1_665 S
C507 C506 1.370 . S
C507 C508 1.403 . S
C508 C507 1.403 . S
C508 C509 1.404 . S
C508 C511 1.539 1_655 S
C509 C505 1.408 . S
C509 C508 1.404 . S
C509 H521 0.930 . S
C510 C506 1.524 . S
C510 H522 0.956 1_655 S
C510 H523 0.961 1_565 S
C510 H524 0.961 . S
C511 C508 1.539 1_455 S
C511 H525 0.962 . S
C511 H526 0.959 1_455 S
C511 H527 0.958 1_465 S
H512 C496 0.931 . S
H513 C501 0.929 . S
H514 C502 0.960 1_565 S
H515 C502 0.962 1_565 S
H516 C502 0.960 . S
H517 C503 0.961 . S
H518 C503 0.961 . S
H519 C503 0.961 . S
H520 C504 0.931 . S
H521 C509 0.930 . S
H522 C510 0.956 1_455 S
H523 C510 0.961 1_545 S
H524 C510 0.961 . S
H525 C511 0.962 . S
H526 C511 0.959 1_655 S
H527 C511 0.958 1_645 S
C528 C529 1.391 . S
C528 C530 1.394 . S
C528 H544 0.931 . S
C529 C528 1.391 . S
C529 C533 1.376 1_565 S
C530 C528 1.394 . S
C530 C531 1.358 1_565 S
C530 C534 1.531 . S
C531 C530 1.358 1_545 S
C531 C532 1.417 . S
C531 C539 1.506 1_455 S
C532 C531 1.417 . S
C532 C533 1.392 . S
C532 C535 1.511 . S
C533 C529 1.376 1_545 S
C533 C532 1.392 . S
C533 H545 0.929 . S
C534 C530 1.531 . S
C534 H546 0.960 1_455 S
C534 H547 0.962 1_455 S
C534 H548 0.960 . S
C535 C532 1.511 . S
C535 H549 0.961 . S
C535 H550 0.961 . S
C535 H551 0.961 . S
C536 C537 1.370 1_565 S
C536 C538 1.363 . S
C536 H552 0.931 . S
C537 C536 1.370 1_545 S
C537 C541 1.408 . S
C538 C536 1.363 . S
C538 C539 1.370 1_565 S
C538 C542 1.524 . S
C539 C531 1.506 1_655 S
C539 C538 1.370 1_545 S
C539 C540 1.403 . S
C540 C539 1.403 . S
C540 C541 1.404 . S
C540 C543 1.539 . S
C541 C537 1.408 . S
C541 C540 1.404 . S
C541 H553 0.930 . S
C542 C538 1.524 . S
C542 H554 0.956 . S
C542 H555 0.961 . S
C542 H556 0.961 . S
C543 C540 1.539 . S
C543 H557 0.958 . S
C543 H558 0.961 . S
C543 H559 0.960 1_655 S
H544 C528 0.931 . S
H545 C533 0.929 . S
H546 C534 0.960 1_655 S
H547 C534 0.962 1_655 S
H548 C534 0.960 . S
H549 C535 0.961 . S
H550 C535 0.961 . S
H551 C535 0.961 . S
H552 C536 0.931 . S
H553 C541 0.930 . S
H554 C542 0.956 . S
H555 C542 0.961 . S
H556 C542 0.961 . S
H557 C543 0.958 . S
H558 C543 0.961 . S
H559 C543 0.960 1_455 S
C560 C561 1.391 . S
C560 C562 1.394 . S
C560 H576 0.931 . S
C561 C560 1.391 . S
C561 C565 1.376 . S
C562 C560 1.394 . S
C562 C563 1.369 . S
C562 C566 1.531 1_655 S
C563 C562 1.369 . S
C563 C564 1.410 . S
C563 C571 1.503 1_545 S
C564 C563 1.410 . S
C564 C565 1.392 . S
C564 C567 1.511 . S
C565 C561 1.376 . S
C565 C564 1.392 . S
C565 H577 0.929 . S
C566 C562 1.531 1_455 S
C566 H578 0.960 1_545 S
C566 H579 0.962 . S
C566 H580 0.960 . S
C567 C564 1.511 . S
C567 H581 0.961 . S
C567 H582 0.961 1_545 S
C567 H583 0.961 . S
C568 C569 1.370 . S
C568 C570 1.363 . S
C568 H584 0.931 . S
C569 C568 1.370 . S
C569 C573 1.408 1_455 S
C570 C568 1.363 . S
C570 C571 1.370 1_455 S
C570 C574 1.524 . S
C571 C563 1.503 1_565 S
C571 C570 1.370 1_655 S
C571 C572 1.403 . S
C572 C571 1.403 . S
C572 C573 1.404 . S
C572 C575 1.539 . S
C573 C569 1.408 1_655 S
C573 C572 1.404 . S
C573 H585 0.930 . S
C574 C570 1.524 . S
C574 H586 0.956 1_565 S
C574 H587 0.961 1_565 S
C574 H588 0.961 . S
C575 C572 1.539 . S
C575 H589 0.958 . S
C575 H590 0.961 . S
C575 H591 0.960 . S
H576 C560 0.931 . S
H577 C565 0.929 . S
H578 C566 0.960 1_565 S
H579 C566 0.962 . S
H580 C566 0.960 . S
H581 C567 0.961 . S
H582 C567 0.961 1_565 S
H583 C567 0.961 . S
H584 C568 0.931 . S
H585 C573 0.930 . S
H586 C574 0.956 1_545 S
H587 C574 0.961 1_545 S
H588 C574 0.961 . S
H589 C575 0.958 . S
H590 C575 0.961 . S
H591 C575 0.960 . S
C592 C593 1.391 . S
C592 C594 1.394 . S
C592 H608 0.931 . S
C593 C592 1.391 . S
C593 C597 1.376 1_565 S
C594 C592 1.394 . S
C594 C595 1.369 . S
C594 C598 1.531 . S
C595 C594 1.369 . S
C595 C596 1.410 1_565 S
C595 C603 1.503 1_665 S
C596 C595 1.410 1_545 S
C596 C597 1.392 . S
C596 C599 1.511 . S
C597 C593 1.376 1_545 S
C597 C596 1.392 . S
C597 H609 0.929 . S
C598 C594 1.531 . S
C598 H610 0.960 1_655 S
C598 H611 0.962 1_655 S
C598 H612 0.960 . S
C599 C596 1.511 . S
C599 H613 0.961 . S
C599 H614 0.961 . S
C599 H615 0.961 . S
C600 C601 1.370 . S
C600 C602 1.363 . S
C600 H616 0.931 . S
C601 C600 1.370 . S
C601 C605 1.408 . S
C602 C600 1.363 . S
C602 C603 1.370 . S
C602 C606 1.524 1_545 S
C603 C595 1.503 1_445 S
C603 C602 1.370 . S
C603 C604 1.403 . S
C604 C603 1.403 . S
C604 C605 1.404 . S
C604 C607 1.539 . S
C605 C601 1.408 . S
C605 C604 1.404 . S
C605 H617 0.930 . S
C606 C602 1.524 1_565 S
C606 H618 0.956 . S
C606 H619 0.961 1_465 S
C606 H620 0.961 . S
C607 C604 1.539 . S
C607 H621 0.958 . S
C607 H622 0.961 . S
C607 H623 0.960 1_455 S
H608 C592 0.931 . S
H609 C597 0.929 . S
H610 C598 0.960 1_455 S
H611 C598 0.962 1_455 S
H612 C598 0.960 . S
H613 C599 0.961 . S
H614 C599 0.961 . S
H615 C599 0.961 . S
H616 C600 0.931 . S
H617 C605 0.930 . S
H618 C606 0.956 . S
H619 C606 0.961 1_645 S
H620 C606 0.961 . S
H621 C607 0.958 . S
H622 C607 0.961 . S
H623 C607 0.960 1_655 S
C113 C11 1.378 . S
C121 C39 1.391 . S
C145 C53 1.387 . S
C153 C25 1.389 . S
C177 C95 1.379 . S
C185 C67 1.387 . S
C209 C81 1.388 . S
C217 C109 1.396 . S
C241 C93 1.506 . S
C249 C9 1.529 . S
C273 C23 1.570 . S
C281 C107 1.511 . S
C305 C37 1.535 . S
C313 C65 1.530 . S
C337 C79 1.513 . S
C345 C51 1.526 . S
C369 C0 1.426 . S
C377 C70 1.416 . S
C401 C84 1.432 . S
C409 C14 1.434 . S
C433 C98 1.449 . S
C441 C28 1.430 . S
C465 C42 1.436 . S
C473 C56 1.421 . S
C497 C5 0.962 . S
C505 C33 0.960 . S
C529 C47 0.979 . S
C537 C19 0.951 . S
C561 C89 0.928 . S
C569 C61 0.967 . S
C593 C103 0.971 . S
C601 C75 0.956 . S
