# Generated by pormake.
# Topology tfs, (6)-cn, num edge types: 1
# Building blocks:
#     Node 0, Type 0, BuildingBlock: HISSIN_clean_sbu_0, # of connection points: 6
#     Node 1, Type 0, BuildingBlock: HISSIN_clean_sbu_0, # of connection points: 6
#     Node 2, Type 0, BuildingBlock: HISSIN_clean_sbu_0, # of connection points: 6
#     Node 3, Type 0, BuildingBlock: HISSIN_clean_sbu_0, # of connection points: 6
#     Node 4, Type 0, BuildingBlock: HISSIN_clean_sbu_0, # of connection points: 6
#     Node 5, Type 0, BuildingBlock: HISSIN_clean_sbu_0, # of connection points: 6
#     Edge 6, Type (0, 0), BuildingBlock: MIFKUJ_clean_linker_0, # of connection points: 2
#     Edge 7, Type (0, 0), BuildingBlock: MIFKUJ_clean_linker_0, # of connection points: 2
#     Edge 8, Type (0, 0), BuildingBlock: MIFKUJ_clean_linker_0, # of connection points: 2
#     Edge 9, Type (0, 0), BuildingBlock: MIFKUJ_clean_linker_0, # of connection points: 2
#     Edge 10, Type (0, 0), BuildingBlock: MIFKUJ_clean_linker_0, # of connection points: 2
#     Edge 11, Type (0, 0), BuildingBlock: MIFKUJ_clean_linker_0, # of connection points: 2
#     Edge 12, Type (0, 0), BuildingBlock: MIFKUJ_clean_linker_0, # of connection points: 2
#     Edge 13, Type (0, 0), BuildingBlock: MIFKUJ_clean_linker_0, # of connection points: 2
#     Edge 14, Type (0, 0), BuildingBlock: MIFKUJ_clean_linker_0, # of connection points: 2
#     Edge 15, Type (0, 0), BuildingBlock: MIFKUJ_clean_linker_0, # of connection points: 2
#     Edge 16, Type (0, 0), BuildingBlock: MIFKUJ_clean_linker_0, # of connection points: 2
#     Edge 17, Type (0, 0), BuildingBlock: MIFKUJ_clean_linker_0, # of connection points: 2
#     Edge 18, Type (0, 0), BuildingBlock: MIFKUJ_clean_linker_0, # of connection points: 2
#     Edge 19, Type (0, 0), BuildingBlock: MIFKUJ_clean_linker_0, # of connection points: 2
#     Edge 20, Type (0, 0), BuildingBlock: MIFKUJ_clean_linker_0, # of connection points: 2
#     Edge 21, Type (0, 0), BuildingBlock: MIFKUJ_clean_linker_0, # of connection points: 2
#     Edge 22, Type (0, 0), BuildingBlock: MIFKUJ_clean_linker_0, # of connection points: 2
#     Edge 23, Type (0, 0), BuildingBlock: MIFKUJ_clean_linker_0, # of connection points: 2
# Relax obj value: 0.522
# Max RMSD: 0.292
# Mean RMSD: 0.292
data_MOF--net-tfs--node1-HISSIN_clean_sbu_0--edge1-MIFKUJ_clean_linker_0
_symmetry_space_group_name_H-M    P1
_symmetry_Int_Tables_number       1
_symmetry_cell_setting            triclinic
loop_
_symmetry_equiv_pos_as_xyz
'x, y, z'
_cell_length_a     66.575574
_cell_length_b     66.472804
_cell_length_c     19.743945
_cell_angle_alpha  89.403
_cell_angle_beta   90.226601
_cell_angle_gamma 119.99373
loop_
_atom_site_label
_atom_site_type_symbol
_atom_site_fract_x
_atom_site_fract_y
_atom_site_fract_z
_atom_type_partial_charge
Eu0 Eu 0.22759 0.40781 0.94566 0.0
Eu1 Eu 0.20083 0.43817 0.94708 0.0
C2 C 0.21736 0.42643 0.08346 0.0
C3 C 0.24491 0.36013 0.95973 0.0
C4 C 0.2456 0.35545 0.02759 0.0
C5 C 0.24437 0.32504 0.92361 0.0
C6 C 0.24574 0.33495 0.04323 0.0
C7 C 0.24432 0.34552 0.90803 0.0
C8 C 0.24518 0.31878 0.99136 0.0
C9 C 0.2481 0.38311 0.94128 0.0
O10 O 0.23798 0.46461 0.92373 0.0
O11 O 0.25601 0.44471 0.96106 0.0
C12 C 0.25672 0.46399 0.94122 0.0
O13 O 0.23069 0.42366 0.84257 0.0
O14 O 0.18225 0.45403 -0.00208 0.0
O15 O 0.18845 0.4581 0.89052 0.0
O16 O 0.1954 0.42097 0.84573 0.0
C17 C 0.2127 0.4222 0.81102 0.0
O18 O 0.18968 0.38169 0.93126 0.0
O19 O 0.17381 0.40204 0.97857 0.0
O20 O 0.21824 0.44391 0.04937 0.0
O21 O 0.2352 0.38381 0.89244 0.0
O22 O 0.25118 0.39753 0.98996 0.0
O23 O 0.21592 0.40845 0.05201 0.0
C24 C 0.18703 0.48783 0.95182 0.0
C25 C 0.19091 0.50182 0.894 0.0
C26 C 0.19486 0.52258 0.02221 0.0
C27 C 0.19618 0.52485 0.90016 0.0
C28 C 0.18962 0.49951 0.01605 0.0
C29 C 0.19749 0.5344 0.96429 0.0
C30 C 0.18055 0.46319 0.94416 0.0
C31 C 0.17205 0.38253 0.95773 0.0
H32 H 0.246 0.36633 0.06862 0.0
H33 H 0.24512 0.31481 0.88239 0.0
H34 H 0.24618 0.33047 0.09591 0.0
H35 H 0.24477 0.35043 0.85531 0.0
H36 H 0.18968 0.49492 0.84373 0.0
H37 H 0.19541 0.52932 0.07231 0.0
H38 H 0.19917 0.53517 0.85455 0.0
H39 H 0.1865 0.48914 0.06162 0.0
Eu40 Eu 0.82571 0.22217 0.01121 0.0
Eu41 Eu 0.76838 0.19688 0.01014 0.0
C42 C 0.79666 0.20742 0.14587 0.0
C43 C 0.89091 0.23854 0.00306 0.0
C44 C 0.89989 0.23042 0.05424 0.0
C45 C 0.92358 0.24584 0.93344 0.0
C46 C 0.9213 0.23166 0.04586 0.0
C47 C 0.90217 0.24465 0.94187 0.0
C48 C 0.9332 0.23908 0.98633 0.0
C49 C 0.87084 0.24162 0.01758 0.0
O50 O 0.78022 0.23443 0.02996 0.0
O51 O 0.81861 0.25168 -0.00237 0.0
C52 C 0.80017 0.2529 0.01459 0.0
O53 O 0.81332 0.20985 0.90346 0.0
O54 O 0.73665 0.18551 0.06793 0.0
O55 O 0.73351 0.1751 0.96145 0.0
O56 O 0.7794 0.21093 0.90699 0.0
C57 C 0.79636 0.21104 0.87289 0.0
O58 O 0.81277 0.1837 0.021 0.0
O59 O 0.77546 0.1677 0.9749 0.0
O60 O 0.78008 0.19056 0.11131 0.0
O61 O 0.85889 0.24251 0.96684 0.0
O62 O 0.85685 0.22911 0.06638 0.0
O63 O 0.81357 0.22517 0.11439 0.0
C64 C 0.7046 0.18282 0.00755 0.0
C65 C 0.69651 0.18422 0.94342 0.0
C66 C 0.67479 0.18855 0.05931 0.0
C67 C 0.67815 0.1887 0.93736 0.0
C68 C 0.69303 0.184 0.06533 0.0
C69 C 0.66749 0.19178 -0.00475 0.0
C70 C 0.72316 0.17693 0.01539 0.0
C71 C 0.7939 0.16697 -0.00681 0.0
H72 H 0.89096 0.22415 0.10222 0.0
H73 H 0.93327 0.25347 0.88723 0.0
H74 H 0.9282 0.22612 0.08721 0.0
H75 H 0.89585 0.25127 0.90175 0.0
H76 H 0.70494 0.18322 0.89781 0.0
H77 H 0.66641 0.18956 0.10503 0.0
H78 H 0.67278 0.19083 0.88723 0.0
H79 H 0.69798 0.18124 0.1154 0.0
Eu80 Eu 0.60907 0.82012 0.03539 0.0
Eu81 Eu 0.57917 0.76264 0.03508 0.0
C82 C 0.59441 0.79069 0.17052 0.0
C83 C 0.65586 0.88557 0.02938 0.0
C84 C 0.66606 0.90251 0.07951 0.0
C85 C 0.68689 0.90764 0.95383 0.0
C86 C 0.68675 0.92307 0.06665 0.0
C87 C 0.66614 0.88696 0.96687 0.0
C88 C 0.69768 0.92716 0.00317 0.0
C89 C 0.63279 0.86537 0.04278 0.0
O90 O 0.5526 0.77355 0.0525 0.0
O91 O 0.57241 0.81108 0.01163 0.0
C92 C 0.55307 0.79249 0.03043 0.0
O93 O 0.60975 0.80721 0.92919 0.0
O94 O 0.55641 0.73033 0.08911 0.0
O95 O 0.56727 0.72716 0.9879 0.0
O96 O 0.57533 0.77263 0.93048 0.0
C97 C 0.59232 0.79005 0.89745 0.0
O98 O 0.63611 0.80935 0.04755 0.0
O99 O 0.61556 0.77173 0.00954 0.0
O100 O 0.59555 0.77433 0.13745 0.0
O101 O 0.61886 0.85213 0.99104 0.0
O102 O 0.63129 0.85154 0.09227 0.0
O103 O 0.59286 0.80705 0.13763 0.0
C104 C 0.53112 0.69914 0.02048 0.0
C105 C 0.51681 0.70113 0.97276 0.0
C106 C 0.49899 0.66011 0.03872 0.0
C107 C 0.49423 0.68361 0.95769 0.0
C108 C 0.52155 0.67756 0.05343 0.0
C109 C 0.48455 0.66182 0.99047 0.0
C110 C 0.55471 0.7173 0.03802 0.0
C111 C 0.63517 0.79023 0.02618 0.0
H112 H 0.65756 0.90019 0.128 0.0
H113 H 0.69498 0.91027 0.90456 0.0
H114 H 0.69347 0.93628 0.10534 0.0
H115 H 0.65866 0.87404 0.92749 0.0
H116 H 0.52391 0.71781 0.94717 0.0
H117 H 0.49194 0.64374 0.06596 0.0
H118 H 0.48448 0.68706 0.91988 0.0
H119 H 0.53149 0.67425 0.09097 0.0
Eu120 Eu 0.79599 0.60795 0.9597 0.0
Eu121 Eu 0.82072 0.57526 0.96161 0.0
C122 C 0.80897 0.59372 0.09808 0.0
C123 C 0.77976 0.65656 0.97164 0.0
C124 C 0.78143 0.6653 0.03929 0.0
C125 C 0.7799 0.69159 0.93449 0.0
C126 C 0.78119 0.68571 0.05433 0.0
C127 C 0.78006 0.6712 0.91951 0.0
C128 C 0.78034 0.6998 0.00203 0.0
C129 C 0.77639 0.63355 0.95394 0.0
O130 O 0.78301 0.55021 0.94241 0.0
O131 O 0.76711 0.57157 0.98224 0.0
C132 C 0.76515 0.55176 0.96336 0.0
O133 O 0.79192 0.5921 0.85717 0.0
O134 O 0.84164 0.56365 0.01307 0.0
O135 O 0.8302 0.55273 0.90839 0.0
O136 O 0.8259 0.59176 0.85846 0.0
C137 C 0.8091 0.59217 0.82494 0.0
O138 O 0.83418 0.63349 0.94615 0.0
O139 O 0.84968 0.61116 0.98329 0.0
O140 O 0.8077 0.57589 0.06608 0.0
O141 O 0.78933 0.63283 0.90563 0.0
O142 O 0.77395 0.62091 0.00297 0.0
O143 O 0.81031 0.61161 0.06522 0.0
C144 C 0.83333 0.52471 0.97602 0.0
C145 C 0.8139 0.50595 0.94603 0.0
C146 C 0.84436 0.49973 0.02824 0.0
C147 C 0.80953 0.48326 0.95595 0.0
C148 C 0.84882 0.52241 0.01788 0.0
C149 C 0.82544 0.48095 -0.00368 0.0
C150 C 0.83956 0.54895 0.96161 0.0
C151 C 0.85191 0.63127 0.9655 0.0
H152 H 0.78126 0.65438 0.08064 0.0
H153 H 0.77888 0.70182 0.89297 0.0
H154 H 0.78094 0.69009 0.10689 0.0
H155 H 0.77939 0.66636 0.86695 0.0
H156 H 0.80238 0.50883 0.91366 0.0
H157 H 0.8559 0.49694 0.06077 0.0
H158 H 0.79493 0.46927 0.93008 0.0
H159 H 0.86383 0.53662 0.04174 0.0
Eu160 Eu 0.19657 0.79343 0.03407 0.0
Eu161 Eu 0.25375 0.81731 0.03485 0.0
C162 C 0.22506 0.80505 0.16993 0.0
C163 C 0.13234 0.77919 0.02359 0.0
C164 C 0.12452 0.78866 0.07339 0.0
C165 C 0.0984 0.77013 0.95325 0.0
C166 C 0.10405 0.78933 0.0639 0.0
C167 C 0.11884 0.76942 0.96277 0.0
C168 C 0.09093 0.78046 0.00459 0.0
C169 C 0.15147 0.77456 0.03844 0.0
O170 O 0.23985 0.77929 0.0551 0.0
O171 O 0.20366 0.76464 0.00806 0.0
C172 C 0.22084 0.76198 0.03011 0.0
O173 O 0.20764 0.80575 0.92948 0.0
O174 O 0.28521 0.8258 0.09067 0.0
O175 O 0.28655 0.83388 0.98516 0.0
O176 O 0.2404 0.8026 0.92928 0.0
C177 C 0.22414 0.80451 0.897 0.0
O178 O 0.20983 0.83162 0.04971 0.0
O179 O 0.24777 0.84715 0.01461 0.0
O180 O 0.24232 0.82213 0.13721 0.0
O181 O 0.16156 0.77024 0.98748 0.0
O182 O 0.16514 0.78554 0.08902 0.0
O183 O 0.20798 0.78817 0.13677 0.0
C184 C 0.31517 0.82579 0.0261 0.0
C185 C 0.32266 0.82385 0.96096 0.0
C186 C 0.33968 0.81142 0.07176 0.0
C187 C 0.33912 0.81691 0.95143 0.0
C188 C 0.32334 0.81843 0.08133 0.0
C189 C 0.34842 0.8118 0.00681 0.0
C190 C 0.29859 0.83413 0.03757 0.0
C191 C 0.22996 0.84942 0.03174 0.0
H192 H 0.13362 0.79462 0.12106 0.0
H193 H 0.08849 0.76282 0.90742 0.0
H194 H 0.09797 0.79589 0.1042 0.0
H195 H 0.12424 0.76178 0.92376 0.0
H196 H 0.31684 0.82957 0.91737 0.0
H197 H 0.34603 0.80641 0.11568 0.0
H198 H 0.34547 0.81729 0.90075 0.0
H199 H 0.31738 0.81841 0.13231 0.0
Eu200 Eu 0.41033 0.19165 0.9718 0.0
Eu201 Eu 0.44169 0.24874 0.97194 0.0
C202 C 0.42744 0.22155 0.10899 0.0
C203 C 0.36156 0.12708 0.98407 0.0
C204 C 0.35904 0.11576 0.04296 0.0
C205 C 0.32214 0.0997 0.94859 0.0
C206 C 0.33796 0.09535 0.05389 0.0
C207 C 0.3432 0.12017 0.93774 0.0
C208 C 0.32006 0.08779 0.00582 0.0
C209 C 0.38502 0.14644 0.96758 0.0
O210 O 0.467 0.23669 0.9483 0.0
O211 O 0.44792 0.20189 -0.00653 0.0
C212 C 0.46618 0.21762 0.97073 0.0
O213 O 0.42634 0.20414 0.86922 0.0
O214 O 0.45764 0.28421 0.02349 0.0
O215 O 0.46176 0.28109 0.91566 0.0
O216 O 0.42429 0.23715 0.87047 0.0
C217 C 0.42511 0.22072 0.83669 0.0
O218 O 0.38443 0.20389 0.95877 0.0
O219 O 0.40697 0.24282 0.0015 0.0
O220 O 0.44532 0.23789 0.07575 0.0
O221 O 0.38694 0.1602 0.91729 0.0
O222 O 0.39987 0.15968 0.0178 0.0
O223 O 0.40948 0.2053 0.07671 0.0
C224 C 0.49205 0.31208 0.97704 0.0
C225 C 0.50842 0.31594 0.92637 0.0
C226 C 0.52311 0.34662 0.03992 0.0
C227 C 0.5313 0.33404 0.93218 0.0
C228 C 0.50018 0.32857 0.03395 0.0
C229 C 0.53837 0.34869 0.98876 0.0
C230 C 0.46742 0.29402 0.96946 0.0
C231 C 0.38601 0.22291 0.98357 0.0
H232 H 0.37292 0.12047 0.07919 0.0
H233 H 0.3086 0.09434 0.91085 0.0
H234 H 0.33625 0.08474 0.09792 0.0
H235 H 0.34539 0.13003 0.89161 0.0
H236 H 0.50352 0.30527 0.88152 0.0
H237 H 0.52804 0.35739 0.08456 0.0
H238 H 0.54327 0.33695 0.89127 0.0
H239 H 0.48791 0.32606 0.07358 0.0
H240 H 0.34306 0.19566 0.92692 0.0
H241 H 0.30893 0.2004 0.93768 0.0
H242 H 0.34814 0.26029 0.07152 0.0
H243 H 0.38208 0.25577 0.06112 0.0
H244 H 0.30262 0.23141 0.11393 0.0
H245 H 0.34463 0.26859 0.90882 0.0
H246 H 0.36173 0.26995 0.79708 0.0
H247 H 0.29481 0.2192 0.72217 0.0
H248 H 0.27736 0.21736 0.83393 0.0
H249 H 0.2767 0.32035 0.0827 0.0
H250 H 0.28951 0.29202 0.09217 0.0
H251 H 0.23797 0.24719 0.94282 0.0
H252 H 0.22504 0.27573 0.93289 0.0
H253 H 0.27944 0.2563 0.90656 0.0
H254 H 0.23662 0.22902 0.10779 0.0
H255 H 0.22091 0.2301 0.2197 0.0
H256 H 0.28953 0.26329 0.30381 0.0
H257 H 0.30572 0.26274 0.19225 0.0
C258 C 0.34406 0.20921 0.95916 0.0
C259 C 0.36586 0.22657 -0.00754 0.0
C260 C 0.32457 0.21186 0.96531 0.0
C261 C 0.3266 0.23177 0.00527 0.0
C262 C 0.34699 0.24636 0.04068 0.0
C263 C 0.36646 0.24388 0.0341 0.0
C264 C 0.30736 0.23685 0.00621 0.0
C265 C 0.29759 0.2372 0.06871 0.0
C266 C 0.29932 0.2416 0.94681 0.0
C267 C 0.30977 0.24261 0.87983 0.0
C268 C 0.33361 0.25757 0.86867 0.0
C269 C 0.34335 0.25846 0.80536 0.0
C270 C 0.32937 0.24463 0.75263 0.0
C271 C 0.30562 0.22987 0.76312 0.0
C272 C 0.29579 0.2289 0.82642 0.0
C273 C 0.26771 0.30454 0.0536 0.0
C274 C 0.25046 0.30139 0.00672 0.0
C275 C 0.27505 0.28828 0.05914 0.0
C276 C 0.26513 0.2684 0.01849 0.0
C277 C 0.24586 0.2624 0.97469 0.0
C278 C 0.23855 0.27874 0.96893 0.0
C279 C 0.27624 0.25386 0.01491 0.0
C280 C 0.28359 0.2497 0.95178 0.0
C281 C 0.28202 0.24556 0.07391 0.0
C282 C 0.27239 0.24588 0.14141 0.0
C283 C 0.24839 0.23668 0.15002 0.0
C284 C 0.23939 0.23718 0.21345 0.0
C285 C 0.25421 0.24676 0.26881 0.0
C286 C 0.27806 0.25584 0.26089 0.0
C287 C 0.28715 0.25539 0.19757 0.0
H288 H 0.24722 0.24714 0.31787 0.0
H289 H 0.33695 0.24545 0.70359 0.0
H290 H 0.15496 0.34428 0.8771 0.0
H291 H 0.11545 0.31067 0.87824 0.0
H292 H 0.09967 0.34095 0.05047 0.0
H293 H 0.13881 0.37472 0.04875 0.0
H294 H 0.08199 0.29002 0.05365 0.0
H295 H 0.08547 0.351 0.90971 0.0
H296 H 0.10197 0.37846 0.81351 0.0
H297 H 0.08255 0.32157 0.67781 0.0
H298 H 0.06624 0.2938 0.77355 0.0
H299 H 0.96707 0.2616 0.08353 0.0
H300 H 1.00845 0.27624 0.07397 0.0
H301 H 0.99777 0.24683 0.87164 0.0
H302 H 0.95601 0.23255 0.88057 0.0
H303 H 0.03056 0.28897 0.86939 0.0
H304 H 0.01802 0.22732 0.00721 0.0
H305 H 1.00208 0.19893 0.10124 0.0
H306 H 0.03868 0.25348 0.24468 0.0
H307 H 0.05458 0.28228 0.15164 0.0
C308 C 0.14291 0.3431 0.91579 0.0
C309 C 0.14928 0.36113 0.96244 0.0
C310 C 0.12043 0.32393 0.9164 0.0
C311 C 0.10424 0.32238 0.96446 0.0
C312 C 0.11201 0.34184 0.01322 0.0
C313 C 0.13427 0.36118 0.01182 0.0
C314 C 0.07961 0.3041 0.96024 0.0
C315 C 0.07085 0.29007 0.01346 0.0
C316 C 0.06544 0.30372 0.90628 0.0
C317 C 0.07492 0.32038 0.84878 0.0
C318 C 0.0849 0.34438 0.85943 0.0
C319 C 0.09418 0.35999 0.805 0.0
C320 C 0.09338 0.35177 0.73961 0.0
C321 C 0.08321 0.32792 0.7285 0.0
C322 C 0.07394 0.31224 0.78281 0.0
C323 C 0.97361 0.2581 0.03765 0.0
C324 C 0.95774 0.24478 0.98291 0.0
C325 C 0.99735 0.26643 0.03228 0.0
C326 C 1.00578 0.26129 0.97249 0.0
C327 C 0.99088 0.24932 0.91843 0.0
C328 C 0.96706 0.24119 0.92351 0.0
C329 C 0.03139 0.27304 0.96446 0.0
C330 C 0.04152 0.28813 0.90883 0.0
C331 C 0.04691 0.27424 0.01583 0.0
C332 C 0.03745 0.257 0.07227 0.0
C333 C 0.02257 0.2333 0.05881 0.0
C334 C 0.01354 0.21713 0.11196 0.0
C335 C 0.01934 0.2244 0.17889 0.0
C336 C 0.03421 0.24787 0.1928 0.0
C337 C 0.04328 0.26413 0.13983 0.0
H338 H 0.01234 0.21185 0.21997 0.0
H339 H 0.10059 0.36388 0.69754 0.0
H340 H 0.81384 0.14608 0.06577 0.0
H341 H 0.80521 0.10574 0.05588 0.0
H342 H 0.75964 0.09415 0.88523 0.0
H343 H 0.76753 0.1339 0.89643 0.0
H344 H 0.73735 0.06204 0.97481 0.0
H345 H 0.81258 0.09495 0.87116 0.0
H346 H 0.85497 0.12059 0.8637 0.0
H347 H 0.86502 0.09012 0.04108 0.0
H348 H 0.82264 0.06448 0.05017 0.0
H349 H 0.7031 0.95029 0.88732 0.0
H350 H 0.72877 0.992 0.87263 0.0
H351 H 0.76043 0.99738 0.06788 0.0
H352 H 0.73511 0.95539 0.08245 0.0
H353 H 0.79071 0.03024 0.96654 0.0
H354 H 0.71659 1.00222 0.07419 0.0
H355 H 0.67427 0.97599 0.0805 0.0
H356 H 0.66466 1.00218 0.89325 0.0
H357 H 0.70703 0.02825 0.88517 0.0
C358 C 0.80252 0.13543 0.02554 0.0
C359 C 0.79055 0.1419 0.98252 0.0
C360 C 0.79769 0.11244 0.01968 0.0
C361 C 0.78122 0.09584 0.96981 0.0
C362 C 0.77144 0.10493 0.92445 0.0
C363 C 0.77593 0.12765 0.93099 0.0
C364 C 0.77312 0.0706 0.96887 0.0
C365 C 0.74911 0.05522 0.97179 0.0
C366 C 0.78841 0.06156 0.96724 0.0
C367 C 0.81389 0.0769 0.96175 0.0
C368 C 0.82358 0.09338 0.90892 0.0
C369 C 0.84762 0.10789 0.90433 0.0
C370 C 0.86216 0.10598 0.95201 0.0
C371 C 0.85373 0.09159 0.00423 0.0
C372 C 0.82971 0.07705 0.00909 0.0
C373 C 0.71598 0.95963 0.92589 0.0
C374 C 0.71625 0.94858 0.9867 0.0
C375 C 0.73063 0.98351 0.91742 0.0
C376 C 0.74567 0.9967 0.96969 0.0
C377 C 0.7489 0.98746 0.02706 0.0
C378 C 0.73424 0.96353 0.03559 0.0
C379 C 0.75512 0.02211 0.97053 0.0
C380 C 0.77917 0.03732 0.96869 0.0
C381 C 0.73996 0.0312 0.97313 0.0
C382 C 0.71445 0.01595 0.97875 0.0
C383 C 0.70569 1.00272 0.03412 0.0
C384 C 0.6817 0.98789 0.03803 0.0
C385 C 0.66627 0.98635 0.98725 0.0
C386 C 0.67583 1.00176 0.93252 0.0
C387 C 0.69983 0.01656 0.92824 0.0
H388 H 0.64769 0.97485 0.99035 0.0
H389 H 0.88076 0.11723 0.94837 0.0
H390 H 0.79875 0.74079 0.94141 0.0
H391 H 0.78547 0.769 0.95074 0.0
H392 H 0.7371 0.72804 0.1037 0.0
H393 H 0.75025 0.70002 0.09478 0.0
H394 H 0.74465 0.7603 0.91567 0.0
H395 H 0.72102 0.75722 0.20291 0.0
H396 H 0.73822 0.7575 0.31392 0.0
H397 H 0.80621 0.79142 0.22496 0.0
H398 H 0.78949 0.79169 0.11358 0.0
H399 H 0.63921 0.75346 0.97172 0.0
H400 H 0.67397 0.75031 0.96744 0.0
H401 H 0.71411 0.819 0.06373 0.0
H402 H 0.67902 0.82225 0.06904 0.0
H403 H 0.7226 0.78759 0.12238 0.0
H404 H 0.72376 0.81186 0.89878 0.0
H405 H 0.71008 0.81479 0.78483 0.0
H406 H 0.69241 0.74453 0.74389 0.0
H407 H 0.70565 0.74102 0.85789 0.0
C408 C 0.7854 0.73763 0.97807 0.0
C409 C 0.77596 0.71912 0.01699 0.0
C410 C 0.77789 0.75379 0.9835 0.0
C411 C 0.76086 0.75177 0.02805 0.0
C412 C 0.7514 0.73192 0.06994 0.0
C413 C 0.75894 0.71582 0.06472 0.0
C414 C 0.74939 0.76601 0.02399 0.0
C415 C 0.73989 0.76613 0.96081 0.0
C416 C 0.74377 0.77431 0.08253 0.0
C417 C 0.75395 0.77438 0.14969 0.0
C418 C 0.73966 0.76489 0.20704 0.0
C419 C 0.74932 0.76491 0.27005 0.0
C420 C 0.77328 0.77444 0.27647 0.0
C421 C 0.78764 0.78399 0.21989 0.0
C422 C 0.77807 0.78403 0.15677 0.0
C423 C 0.65517 0.76758 0.99172 0.0
C424 C 0.65679 0.78913 0.02096 0.0
C425 C 0.67513 0.76582 0.98867 0.0
C426 C 0.69725 0.78561 0.01436 0.0
C427 C 0.69803 0.8052 0.04321 0.0
C428 C 0.67798 0.80703 0.04613 0.0
C429 C 0.71781 0.7825 0.0147 0.0
C430 C 0.72791 0.78236 0.07713 0.0
C431 C 0.72428 0.77441 0.95528 0.0
C432 C 0.71573 0.77619 0.88706 0.0
C433 C 0.71679 0.79696 0.86572 0.0
C434 C 0.70915 0.79874 0.80104 0.0
C435 C 0.7005 0.7799 0.75708 0.0
C436 C 0.69924 0.75915 0.77791 0.0
C437 C 0.70684 0.75727 0.84253 0.0
H438 H 0.6948 0.78137 0.70681 0.0
H439 H 0.78073 0.77443 0.32529 0.0
H440 H 0.05776 0.76305 0.10262 0.0
H441 H 0.01639 0.74808 0.08815 0.0
H442 H 0.02714 0.77152 0.88201 0.0
H443 H 0.0688 0.78631 0.89596 0.0
H444 H 0.98455 0.75959 0.05288 0.0
H445 H 0.98711 0.72836 0.78391 0.0
H446 H 0.01359 0.7227 0.70954 0.0
H447 H 0.04312 0.70768 0.88311 0.0
H448 H 0.01659 0.71291 0.95824 0.0
H449 H 0.86483 0.67731 0.9459 0.0
H450 H 0.90447 0.71078 0.9447 0.0
H451 H 0.93161 0.66496 0.98461 0.0
H452 H 0.89258 0.63177 0.98597 0.0
H453 H 0.95431 0.69537 0.8806 0.0
H454 H 0.92907 0.69768 0.10934 0.0
H455 H 0.90309 0.69977 0.19415 0.0
H456 H 0.91928 0.76689 0.11712 0.0
H457 H 0.94516 0.76504 0.03124 0.0
C458 C 0.05171 0.76623 0.05488 0.0
C459 C 0.06701 0.77659 4e-05 0.0
C460 C 0.02799 0.75767 0.0467 0.0
C461 C 0.01809 0.75726 0.98367 0.0
C462 C 0.03359 0.76972 0.93083 0.0
C463 C 0.05735 0.77809 0.93876 0.0
C464 C 0.99286 0.74261 0.9709 0.0
C465 C 0.9781 0.7463 0.01431 0.0
C466 C 0.98443 0.72501 0.92129 0.0
C467 C 1.00011 0.72134 0.87657 0.0
C468 C 0.99922 0.72378 0.80606 0.0
C469 C 0.01422 0.72064 0.76382 0.0
C470 C 0.03009 0.71492 0.7916 0.0
C471 C 0.03088 0.71218 0.86166 0.0
C472 C 0.01586 0.71522 0.90407 0.0
C473 C 0.87927 0.67441 0.95445 0.0
C474 C 0.87551 0.65184 0.96596 0.0
C475 C 0.90186 0.69353 0.95382 0.0
C476 C 0.92091 0.69027 0.96426 0.0
C477 C 0.91713 0.66781 0.97591 0.0
C478 C 0.89473 0.64884 0.97701 0.0
C479 C 0.94503 0.70995 0.96348 0.0
C480 C 0.96062 0.70924 0.91741 0.0
C481 C 0.95429 0.72996 0.01181 0.0
C482 C 0.93877 0.73108 0.06333 0.0
C483 C 0.92691 0.71278 0.11009 0.0
C484 C 0.91225 0.71394 0.15844 0.0
C485 C 0.90947 0.73341 0.16086 0.0
C486 C 0.9214 0.75179 0.11507 0.0
C487 C 0.93607 0.7507 0.06656 0.0
H488 H 0.89811 0.73429 0.19833 0.0
H489 H 0.04172 0.71255 0.75883 0.0
H490 H 0.1977 0.86249 0.06091 0.0
H491 H 0.20409 0.90216 0.06511 0.0
H492 H 0.2756 0.92928 0.00806 0.0
H493 H 0.26954 0.89013 0.004 0.0
H494 H 0.27144 0.95179 0.11582 0.0
H495 H 0.2357 0.92388 0.89405 0.0
H496 H 0.20463 0.89818 0.81576 0.0
H497 H 0.15722 0.91465 0.91356 0.0
H498 H 0.18901 0.94232 -0.00699 0.0
H499 H 0.30038 0.05374 0.90571 0.0
H500 H 0.27416 0.01217 0.91937 0.0
H501 H 0.26688 0.02386 0.13103 0.0
H502 H 0.29352 0.0657 0.1178 0.0
H503 H 0.23159 0.97948 0.96298 0.0
H504 H 0.274 0.98378 0.21871 0.0
H505 H 0.30821 0.01017 0.28677 0.0
H506 H 0.34704 0.04133 0.1048 0.0
H507 H 0.31319 0.01488 0.03584 0.0
C508 C 0.21476 0.87692 0.04911 0.0
C509 C 0.23313 0.8731 0.03231 0.0
C510 C 0.21835 0.89954 0.05146 0.0
C511 C 0.24033 0.91861 0.03712 0.0
C512 C 0.25854 0.91479 0.01982 0.0
C513 C 0.25499 0.89233 0.01726 0.0
C514 C 0.2449 0.94277 0.04035 0.0
C515 C 0.26266 0.95821 0.08323 0.0
C516 C 0.2335 0.95114 -0.0023 0.0
C517 C 0.21402 0.93371 0.95003 0.0
C518 C 0.21859 0.92185 0.89925 0.0
C519 C 0.20105 0.90734 0.85458 0.0
C520 C 0.17894 0.90471 0.85984 0.0
C521 C 0.17434 0.91665 0.90966 0.0
C522 C 0.19181 0.93116 0.95452 0.0
C523 C 0.29233 0.04718 0.95466 0.0
C524 C 0.29983 0.06396 0.01097 0.0
C525 C 0.27727 0.02335 0.96237 0.0
C526 C 0.26945 0.01591 0.02644 0.0
C527 C 0.27384 0.03085 0.08129 0.0
C528 C 0.28911 0.0547 0.07376 0.0
C529 C 0.2595 0.9906 0.03739 0.0
C530 C 0.24079 0.97496 -0.0027 0.0
C531 C 0.27037 0.98201 0.08146 0.0
C532 C 0.29101 0.99758 0.12231 0.0
C533 C 0.28988 0.99621 0.19335 0.0
C534 C 0.3092 0.01117 0.23203 0.0
C535 C 0.32976 0.02747 0.20013 0.0
C536 C 0.33109 0.02874 0.12946 0.0
C537 C 0.31186 0.01377 0.09057 0.0
H538 H 0.34466 0.03908 0.23017 0.0
H539 H 0.16539 0.89348 0.82519 0.0
H540 H 0.24547 0.74598 0.1006 0.0
H541 H 0.2428 0.70811 0.09123 0.0
H542 H 0.18915 0.68649 0.93738 0.0
H543 H 0.19107 0.72398 0.94858 0.0
H544 H 0.1782 0.65413 0.01993 0.0
H545 H 0.24765 0.70364 0.90116 0.0
H546 H 0.28635 0.73842 0.88844 0.0
H547 H 0.3131 0.71682 0.0524 0.0
H548 H 0.27444 0.68202 0.06669 0.0
H549 H 0.17921 0.55555 0.88668 0.0
H550 H 0.18501 0.59459 0.89851 0.0
H551 H 0.23142 0.6087 0.06856 0.0
H552 H 0.22627 0.56975 0.05573 0.0
H553 H 0.24687 0.64478 0.98153 0.0
H554 H 0.17665 0.59465 0.09702 0.0
H555 H 0.13766 0.56013 0.10717 0.0
H556 H 0.11238 0.58344 0.94375 0.0
H557 H 0.15132 0.61797 0.93202 0.0
C558 C 0.23332 0.7336 0.06481 0.0
C559 C 0.21901 0.73898 0.02523 0.0
C560 C 0.23191 0.712 0.0592 0.0
C561 C 0.21659 0.69562 0.01268 0.0
C562 C 0.20112 0.69885 0.97357 0.0
C563 C 0.20223 0.72028 0.98001 0.0
C564 C 0.21525 0.67277 0.00546 0.0
C565 C 0.19343 0.65261 0.01059 0.0
C566 C 0.2352 0.67071 -0.00509 0.0
C567 C 0.25757 0.68927 0.98541 0.0
C568 C 0.26153 0.7059 0.93473 0.0
C569 C 0.28345 0.72561 0.92722 0.0
C570 C 0.30163 0.72882 0.96974 0.0
C571 C 0.29899 0.71433 0.01957 0.0
C572 C 0.27708 0.69458 0.02733 0.0
C573 C 0.19072 0.56659 0.92598 0.0
C574 C 0.20171 0.55847 0.97042 0.0
C575 C 0.19386 0.58884 0.933 0.0
C576 C 0.20789 0.60337 0.98494 0.0
C577 C 0.22045 0.5977 0.0283 0.0
C578 C 0.21732 0.57539 0.02129 0.0
C579 C 0.21085 0.62839 -0.00491 0.0
C580 C 0.23171 0.64642 0.99081 0.0
C581 C 0.19097 0.63048 0.00576 0.0
C582 C 0.16747 0.60984 0.01329 0.0
C583 C 0.16304 0.5928 0.06296 0.0
C584 C 0.14095 0.57324 0.06904 0.0
C585 C 0.12309 0.57061 0.02602 0.0
C586 C 0.12623 0.58549 0.97701 0.0
C587 C 0.1483 0.60507 0.97067 0.0
H588 H 0.106 0.55545 0.03078 0.0
H589 H 0.31858 0.74413 0.96395 0.0
H590 H 0.4759 0.18963 0.04275 0.0
H591 H 0.51154 0.18753 0.04364 0.0
H592 H 0.54151 0.24205 0.89935 0.0
H593 H 0.50598 0.2445 0.8987 0.0
H594 H 0.54719 0.20322 0.86797 0.0
H595 H 0.55971 0.25645 0.05004 0.0
H596 H 0.55013 0.26967 0.15486 0.0
H597 H 0.54657 0.21178 0.26412 0.0
H598 H 0.55561 0.19789 0.15956 0.0
H599 H 0.66158 0.21985 0.90991 0.0
H600 H 0.62853 0.22633 0.90163 0.0
H601 H 0.59423 0.17725 0.05905 0.0
H602 H 0.62692 0.1704 0.06692 0.0
H603 H 0.59254 0.21671 0.08052 0.0
H604 H 0.57753 0.16221 0.89659 0.0
H605 H 0.58721 0.14905 0.79173 0.0
H606 H 0.59581 0.20967 0.68613 0.0
H607 H 0.58649 0.22336 0.79071 0.0
C608 C 0.49027 0.20162 0.01109 0.0
C609 C 0.48763 0.21621 0.97075 0.0
C610 C 0.51063 0.20044 0.01186 0.0
C611 C 0.52861 0.21367 0.97182 0.0
C612 C 0.52698 0.23011 0.93064 0.0
C613 C 0.50673 0.23153 0.93058 0.0
C614 C 0.55016 0.2124 0.97326 0.0
C615 C 0.55714 0.20608 0.9141 0.0
C616 C 0.56385 0.21787 0.03379 0.0
C617 C 0.5581 0.22599 0.09671 0.0
C618 C 0.5566 0.24636 0.0962 0.0
C619 C 0.5513 0.254 0.15562 0.0
C620 C 0.54767 0.24154 0.21608 0.0
C621 C 0.54931 0.22139 0.21722 0.0
C622 C 0.55452 0.21362 0.15787 0.0
C623 C 0.64667 0.2098 0.94225 0.0
C624 C 0.64641 0.19361 0.98925 0.0
C625 C 0.62784 0.21358 0.93759 0.0
C626 C 0.6084 0.20117 0.97963 0.0
C627 C 0.60913 0.1871 0.02644 0.0
C628 C 0.62788 0.18328 0.03103 0.0
C629 C 0.58837 0.20505 0.97554 0.0
C630 C 0.58271 0.21399 0.03423 0.0
C631 C 0.57599 0.20215 0.91458 0.0
C632 C 0.58158 0.19394 0.85167 0.0
C633 C 0.58169 0.17284 0.85117 0.0
C634 C 0.58707 0.16526 0.79176 0.0
C635 C 0.59219 0.17855 0.73236 0.0
C636 C 0.59188 0.19942 0.73221 0.0
C637 C 0.58654 0.20709 0.79153 0.0
H638 H 0.59635 0.17265 0.6864 0.0
H639 H 0.54368 0.24756 0.26208 0.0
H640 H 0.46884 0.61534 0.97856 0.0
H641 H 0.42922 0.58424 0.95985 0.0
H642 H 0.40633 0.63447 0.94524 0.0
H643 H 0.44591 0.66574 0.96755 0.0
H644 H 0.37861 0.60139 0.02185 0.0
H645 H 0.41015 0.60632 0.80338 0.0
H646 H 0.43869 0.60936 0.71875 0.0
H647 H 0.42653 0.54174 0.77682 0.0
H648 H 0.39815 0.53842 0.8625 0.0
H649 H 0.26537 0.50838 0.91794 0.0
H650 H 0.30311 0.54414 0.91546 0.0
H651 H 0.3371 0.50452 0.95608 0.0
H652 H 0.29962 0.46876 0.9584 0.0
H653 H 0.3585 0.53723 0.85416 0.0
H654 H 0.32989 0.53525 0.08135 0.0
H655 H 0.30089 0.53262 0.16368 0.0
H656 H 0.30702 0.59576 0.08353 0.0
H657 H 0.33587 0.59859 0.00012 0.0
C658 C 0.45539 0.61982 0.97182 0.0
C659 C 0.46058 0.64306 0.97488 0.0
C660 C 0.43276 0.60201 0.96016 0.0
C661 C 0.41482 0.60703 0.95009 0.0
C662 C 0.41992 0.63021 0.9525 0.0
C663 C 0.44259 0.64808 0.96467 0.0
C664 C 0.39066 0.58785 0.94006 0.0
C665 C 0.37332 0.586 0.98423 0.0
C666 C 0.3851 0.57033 0.89139 0.0
C667 C 0.40212 0.5722 0.83972 0.0
C668 C 0.41367 0.59216 0.79845 0.0
C669 C 0.42981 0.59392 0.75023 0.0
C670 C 0.43445 0.57577 0.74249 0.0
C671 C 0.42292 0.55579 0.78288 0.0
C672 C 0.40678 0.55395 0.83122 0.0
C673 C 0.28087 0.50725 0.92616 0.0
C674 C 0.27945 0.48569 0.93864 0.0
C675 C 0.3024 0.52772 0.92487 0.0
C676 C 0.32285 0.52696 0.93596 0.0
C677 C 0.32151 0.50546 0.94732 0.0
C678 C 0.30003 0.48504 0.94895 0.0
C679 C 0.34574 0.54851 0.93697 0.0
C680 C 0.36277 0.55077 0.89105 0.0
C681 C 0.35095 0.5665 0.98353 0.0
C682 C 0.33483 0.56699 0.03404 0.0
C683 C 0.32493 0.54847 0.08097 0.0
C684 C 0.30854 0.54697 0.12788 0.0
C685 C 0.30206 0.56398 0.1287 0.0
C686 C 0.31202 0.58258 0.08276 0.0
C687 C 0.3284 0.58415 0.0357 0.0
H688 H 0.28937 0.56277 0.16504 0.0
H689 H 0.44695 0.57717 0.70513 0.0
H690 H 0.78433 0.43965 0.00805 0.0
H691 H 0.77881 0.40044 0.0121 0.0
H692 H 0.85294 0.42898 0.005 0.0
H693 H 0.85856 0.46808 -0.00259 0.0
H694 H 0.83143 0.39219 0.92051 0.0
H695 H 0.8209 0.40672 0.15349 0.0
H696 H 0.80295 0.4163 0.24753 0.0
H697 H 0.73624 0.35889 0.19563 0.0
H698 H 0.75375 0.34915 0.10069 0.0
H699 H 0.83957 0.29544 0.01253 0.0
H700 H 0.84252 0.33352 0.01214 0.0
H701 H 0.76791 0.30087 0.01731 0.0
H702 H 0.76479 0.26262 0.01969 0.0
H703 H 0.78689 0.33686 0.10035 0.0
H704 H 0.79823 0.32167 0.86904 0.0
H705 H 0.81688 0.31194 0.77736 0.0
H706 H 0.88276 0.37093 0.82724 0.0
H707 H 0.86458 0.3808 0.91997 0.0
C708 C 0.79946 0.43759 0.00695 0.0
C709 C 0.8219 0.45707 0.0026 0.0
C710 C 0.79628 0.41515 0.01002 0.0
C711 C 0.81548 0.41177 0.00961 0.0
C712 C 0.83787 0.43117 0.00559 0.0
C713 C 0.84106 0.45355 0.00203 0.0
C714 C 0.81236 0.38805 0.01149 0.0
C715 C 0.82169 0.37973 0.96031 0.0
C716 C 0.79913 0.37157 0.06237 0.0
C717 C 0.7886 0.37736 0.11957 0.0
C718 C 0.80237 0.39625 0.16182 0.0
C719 C 0.79228 0.40169 0.21534 0.0
C720 C 0.76846 0.38825 0.22743 0.0
C721 C 0.75468 0.36931 0.18614 0.0
C722 C 0.76468 0.36381 0.13251 0.0
C723 C 0.82376 0.29632 0.01359 0.0
C724 C 0.80194 0.27598 0.01568 0.0
C725 C 0.82548 0.31812 0.01314 0.0
C726 C 0.80542 0.32005 0.01342 0.0
C727 C 0.78361 0.29979 0.01683 0.0
C728 C 0.78187 0.27795 0.01806 0.0
C729 C 0.80725 0.34321 0.00981 0.0
C730 C 0.79657 0.3493 0.06047 0.0
C731 C 0.81921 0.35753 0.95852 0.0
C732 C 0.83006 0.35186 0.90183 0.0
C733 C 0.81671 0.3325 0.86068 0.0
C734 C 0.8272 0.32696 0.8085 0.0
C735 C 0.851 0.34078 0.79658 0.0
C736 C 0.86434 0.36023 0.83659 0.0
C737 C 0.85395 0.36581 0.88893 0.0
H738 H 0.85913 0.33644 0.75637 0.0
H739 H 0.76068 0.39249 0.26889 0.0
H740 H 0.35137 0.77575 0.06438 0.0
H741 H 0.3845 0.76936 0.06174 0.0
H742 H 0.41976 0.82635 0.92775 0.0
H743 H 0.38675 0.8329 0.93036 0.0
H744 H 0.42717 0.79095 0.89307 0.0
H745 H 0.43145 0.83475 0.09349 0.0
H746 H 0.41652 0.84175 0.19943 0.0
H747 H 0.40869 0.77855 0.2849 0.0
H748 H 0.42324 0.77098 0.17896 0.0
H749 H 0.54404 0.82181 0.9628 0.0
H750 H 0.5074 0.82176 0.95285 0.0
H751 H 0.47453 0.76171 0.07614 0.0
H752 H 0.51108 0.7615 0.08616 0.0
H753 H 0.46491 0.79649 0.11524 0.0
H754 H 0.46357 0.75454 0.9141 0.0
H755 H 0.47975 0.74919 0.80817 0.0
H756 H 0.48355 0.81083 0.72402 0.0
H757 H 0.46773 0.81676 0.82993 0.0
C758 C 0.36636 0.78728 0.03402 0.0
C759 C 0.3671 0.80604 -0.00179 0.0
C760 C 0.38524 0.78358 0.03243 0.0
C761 C 0.40525 0.79866 -0.00458 0.0
C762 C 0.40449 0.81453 0.95668 0.0
C763 C 0.38559 0.81821 0.95811 0.0
C764 C 0.42642 0.79671 0.00075 0.0
C765 C 0.43531 0.79188 0.94155 0.0
C766 C 0.43684 0.79762 0.06418 0.0
C767 C 0.42818 0.80216 0.12803 0.0
C768 C 0.42635 0.82224 0.13467 0.0
C769 C 0.41799 0.82633 0.19474 0.0
C770 C 0.41159 0.81057 0.24879 0.0
C771 C 0.41361 0.79072 0.24293 0.0
C772 C 0.42192 0.78652 0.1829 0.0
C773 C 0.52882 0.80814 0.98794 0.0
C774 C 0.531 0.7927 0.02531 0.0
C775 C 0.50787 0.80807 0.98185 0.0
C776 C 0.48879 0.79266 0.01328 0.0
C777 C 0.4899 0.77531 0.05133 0.0
C778 C 0.51078 0.77521 0.05686 0.0
C779 C 0.46668 0.7928 0.00759 0.0
C780 C 0.45664 0.79532 0.06682 0.0
C781 C 0.45528 0.7898 0.94417 0.0
C782 C 0.46467 0.78621 0.88023 0.0
C783 C 0.46804 0.76707 0.87324 0.0
C784 C 0.47712 0.76391 0.81315 0.0
C785 C 0.48273 0.77969 0.75946 0.0
C786 C 0.47922 0.79863 0.76569 0.0
C787 C 0.47018 0.80189 0.82572 0.0
H788 H 0.48976 0.77722 0.71297 0.0
H789 H 0.40513 0.81377 0.29528 0.0
H790 H 0.72564 0.54921 0.01212 0.0
H791 H 0.68791 0.51379 0.02014 0.0
H792 H 0.71575 0.47258 0.93211 0.0
H793 H 0.75357 0.50794 0.92337 0.0
H794 H 0.67428 0.4618 0.87572 0.0
H795 H 0.70629 0.47076 0.09873 0.0
H796 H 0.72409 0.49042 0.20589 0.0
H797 H 0.66538 0.49882 0.24616 0.0
H798 H 0.64737 0.47951 0.13866 0.0
H799 H 0.57889 0.35031 0.95255 0.0
H800 H 0.61798 0.38414 0.95158 0.0
H801 H 0.59249 0.42823 0.03375 0.0
H802 H 0.55329 0.39465 0.03364 0.0
H803 H 0.63339 0.43669 0.09464 0.0
H804 H 0.60223 0.4291 0.86967 0.0
H805 H 0.58451 0.40961 0.76225 0.0
H806 H 0.6419 0.39871 0.72588 0.0
H807 H 0.65981 0.41785 0.83369 0.0
C808 C 0.72401 0.5331 -0.00567 0.0
C809 C 0.74215 0.53039 0.9672 0.0
C810 C 0.70244 0.51284 -0.00071 0.0
C811 C 0.69859 0.48949 0.97744 0.0
C812 C 0.71759 0.48883 0.94945 0.0
C813 C 0.7392 0.50907 0.94463 0.0
C814 C 0.67573 0.46798 0.98298 0.0
C815 C 0.66527 0.45564 0.92375 0.0
C816 C 0.66485 0.46234 0.04545 0.0
C817 C 0.67558 0.47389 0.11028 0.0
C818 C 0.69726 0.47697 0.13014 0.0
C819 C 0.70737 0.48803 0.191 0.0
C820 C 0.6959 0.49592 0.23272 0.0
C821 C 0.67426 0.49273 0.21374 0.0
C822 C 0.66408 0.48171 0.15287 0.0
C823 C 0.58133 0.36676 0.97019 0.0
C824 C 0.56342 0.37083 -0.00728 0.0
C825 C 0.60369 0.38604 0.96985 0.0
C826 C 0.60857 0.40975 -0.00805 0.0
C827 C 0.58987 0.41166 0.01659 0.0
C828 C 0.56749 0.39241 0.01671 0.0
C829 C 0.63092 0.42851 0.98741 0.0
C830 C 0.64249 0.4428 0.04672 0.0
C831 C 0.64293 0.43613 0.92503 0.0
C832 C 0.63223 0.42467 0.86011 0.0
C833 C 0.61097 0.42236 0.83906 0.0
C834 C 0.60091 0.41141 0.77805 0.0
C835 C 0.61203 0.40286 0.73736 0.0
C836 C 0.63328 0.4053 0.75752 0.0
C837 C 0.6434 0.41621 0.81855 0.0
H838 H 0.60422 0.3944 0.69012 0.0
H839 H 0.70376 0.50447 0.27983 0.0
H840 H 0.24659 0.4268 0.72424 0.0
H841 H 0.24615 0.42787 0.60069 0.0
H842 H 0.17741 0.41904 0.60452 0.0
H843 H 0.17759 0.41776 0.72846 0.0
H844 H 0.18129 0.39182 0.50944 0.0
H845 H 0.22256 0.47155 0.57411 0.0
H846 H 0.25235 0.50578 0.63496 0.0
H847 H 0.30605 0.49984 0.53343 0.0
H848 H 0.27656 0.46534 0.47269 0.0
H849 H 0.21722 0.45929 0.16536 0.0
H850 H 0.2152 0.4588 0.28888 0.0
H851 H 0.21539 0.394 0.29478 0.0
H852 H 0.21703 0.39412 0.17118 0.0
H853 H 0.24351 0.45952 0.38522 0.0
H854 H 0.18139 0.36074 0.42552 0.0
H855 H 0.1498 0.32772 0.36501 0.0
H856 H 0.1341 0.37443 0.25618 0.0
H857 H 0.16534 0.40768 0.31677 0.0
C858 C 0.23134 0.42503 0.69893 0.0
C859 C 0.21217 0.42232 0.73619 0.0
C860 C 0.23115 0.42572 0.62829 0.0
C861 C 0.21185 0.42379 0.59356 0.0
C862 C 0.19249 0.4206 0.63046 0.0
C863 C 0.19267 0.41996 0.70123 0.0
C864 C 0.21206 0.42534 0.51868 0.0
C865 C 0.19487 0.40661 0.48221 0.0
C866 C 0.22954 0.44486 0.48335 0.0
C867 C 0.24734 0.46574 0.51926 0.0
C868 C 0.24072 0.47744 0.5651 0.0
C869 C 0.25755 0.49691 0.59953 0.0
C870 C 0.28108 0.50495 0.58818 0.0
C871 C 0.28782 0.49358 0.54222 0.0
C872 C 0.27105 0.47408 0.50772 0.0
C873 C 0.21688 0.44494 0.19285 0.0
C874 C 0.21716 0.42667 0.15835 0.0
C875 C 0.21577 0.44472 0.26349 0.0
C876 C 0.21486 0.42623 0.30095 0.0
C877 C 0.21567 0.40824 0.26677 0.0
C878 C 0.2167 0.40839 0.19611 0.0
C879 C 0.21301 0.42576 0.37581 0.0
C880 C 0.22991 0.44471 0.41235 0.0
C881 C 0.19499 0.40664 0.41114 0.0
C882 C 0.17587 0.38672 0.37524 0.0
C883 C 0.17112 0.36395 0.38891 0.0
C884 C 0.15329 0.3452 0.35456 0.0
C885 C 0.14 0.34899 0.30663 0.0
C886 C 0.14445 0.37153 0.29315 0.0
C887 C 0.16224 0.39034 0.32743 0.0
H888 H 0.12622 0.33445 0.28002 0.0
H889 H 0.29408 0.52001 0.6149 0.0
H890 H 0.83293 0.22597 0.78595 0.0
H891 H 0.83179 0.22558 0.66182 0.0
H892 H 0.75756 0.19604 0.66721 0.0
H893 H 0.75857 0.1969 0.79134 0.0
H894 H 0.77725 0.17271 0.58044 0.0
H895 H 0.78192 0.24625 0.62357 0.0
H896 H 0.79837 0.2851 0.67398 0.0
H897 H 0.86373 0.30615 0.57756 0.0
H898 H 0.84772 0.26729 0.52715 0.0
H899 H 0.75952 0.18152 0.22871 0.0
H900 H 0.75859 0.182 0.35247 0.0
H901 H 0.83191 0.23188 0.35536 0.0
H902 H 0.83269 0.23216 0.23176 0.0
H903 H 0.8115 0.24465 0.44011 0.0
H904 H 0.80855 0.1724 0.39734 0.0
H905 H 0.79368 0.13372 0.34698 0.0
H906 H 0.72781 0.10986 0.44362 0.0
H907 H 0.74219 0.14852 0.49385 0.0
C908 C 0.81639 0.2195 0.76067 0.0
C909 C 0.79584 0.21151 0.79819 0.0
C910 C 0.81578 0.21932 0.68994 0.0
C911 C 0.7946 0.21077 0.65576 0.0
C912 C 0.77405 0.20269 0.69297 0.0
C913 C 0.77469 0.20331 0.76369 0.0
C914 C 0.79395 0.21001 0.58104 0.0
C915 C 0.78442 0.18837 0.54946 0.0
C916 C 0.80393 0.23052 0.5413 0.0
C917 C 0.81369 0.25379 0.5722 0.0
C918 C 0.79988 0.25907 0.61376 0.0
C919 C 0.8091 0.28112 0.64218 0.0
C920 C 0.8321 0.29807 0.62913 0.0
C921 C 0.84593 0.293 0.58768 0.0
C922 C 0.83678 0.27097 0.5591 0.0
C923 C 0.77545 0.19247 0.25583 0.0
C924 C 0.79618 0.20678 0.22063 0.0
C925 C 0.77493 0.19267 0.32659 0.0
C926 C 0.79525 0.20676 0.36344 0.0
C927 C 0.81599 0.22091 0.32817 0.0
C928 C 0.81643 0.221 0.2575 0.0
C929 C 0.79489 0.20725 0.43864 0.0
C930 C 0.80426 0.22889 0.47062 0.0
C931 C 0.78505 0.18671 0.47876 0.0
C932 C 0.77638 0.16343 0.44879 0.0
C933 C 0.79084 0.15896 0.40744 0.0
C934 C 0.7825 0.13703 0.37899 0.0
C935 C 0.75979 0.11936 0.39194 0.0
C936 C 0.74538 0.12357 0.43355 0.0
C937 C 0.75362 0.14548 0.46207 0.0
H938 H 0.75337 0.1024 0.36987 0.0
H939 H 0.83916 0.31516 0.65081 0.0
H940 H 0.56929 0.75306 0.81362 0.0
H941 H 0.56942 0.75343 0.68952 0.0
H942 H 0.61371 0.82787 0.68876 0.0
H943 H 0.61414 0.82764 0.81293 0.0
H944 H 0.57195 0.80735 0.59646 0.0
H945 H 0.63926 0.80226 0.66154 0.0
H946 H 0.65871 0.78491 0.72565 0.0
H947 H 0.61702 0.71995 0.62508 0.0
H948 H 0.59672 0.73675 0.56194 0.0
H949 H 0.60573 0.82721 0.25379 0.0
H950 H 0.60536 0.82705 0.37739 0.0
H951 H 0.58195 0.75363 0.37953 0.0
H952 H 0.58333 0.75396 0.25567 0.0
H953 H 0.61243 0.77316 0.47322 0.0
H954 H 0.54464 0.77615 0.40904 0.0
H955 H 0.52206 0.79101 0.34915 0.0
H956 H 0.56121 0.85665 0.44836 0.0
H957 H 0.58426 0.84229 0.50818 0.0
C958 C 0.57898 0.76952 0.78702 0.0
C959 C 0.5918 0.79032 0.8228 0.0
C960 C 0.57904 0.76968 0.71631 0.0
C961 C 0.59159 0.79067 0.68043 0.0
C962 C 0.60391 0.81153 0.71588 0.0
C963 C 0.60425 0.81134 0.78661 0.0
C964 C 0.59246 0.79072 0.60577 0.0
C965 C 0.58101 0.80016 0.56922 0.0
C966 C 0.60371 0.78067 0.57095 0.0
C967 C 0.61627 0.77069 0.60762 0.0
C968 C 0.63406 0.7842 0.65358 0.0
C969 C 0.64527 0.77447 0.68971 0.0
C970 C 0.63912 0.75133 0.67947 0.0
C971 C 0.62174 0.73787 0.63302 0.0
C972 C 0.61035 0.74748 0.59714 0.0
C973 C 0.60051 0.81103 0.28064 0.0
C974 C 0.59442 0.79056 0.2452 0.0
C975 C 0.60019 0.81093 0.3513 0.0
C976 C 0.59315 0.79022 0.38788 0.0
C977 C 0.58738 0.76981 0.35247 0.0
C978 C 0.58814 0.77 0.28173 0.0
C979 C 0.59191 0.7899 0.46299 0.0
C980 C 0.60329 0.78036 0.49995 0.0
C981 C 0.58024 0.79955 0.49823 0.0
C982 C 0.56632 0.80821 0.46262 0.0
C983 C 0.54854 0.79381 0.41774 0.0
C984 C 0.53564 0.80213 0.38385 0.0
C985 C 0.54023 0.82477 0.39482 0.0
C986 C 0.55769 0.83912 0.43986 0.0
C987 C 0.57067 0.83089 0.47382 0.0
H988 H 0.53023 0.83119 0.36853 0.0
H989 H 0.64784 0.74383 0.70745 0.0
H990 H 0.78499 0.60505 0.74037 0.0
H991 H 0.78526 0.60558 0.61678 0.0
H992 H 0.83344 0.57999 0.61705 0.0
H993 H 0.83395 0.58034 0.74092 0.0
H994 H 0.84587 0.61188 0.52492 0.0
H995 H 0.77402 0.54436 0.58332 0.0
H996 H 0.73616 0.52174 0.64035 0.0
H997 H 0.71156 0.56297 0.54033 0.0
H998 H 0.74941 0.58606 0.48339 0.0
H999 H 0.82183 0.56963 0.18326 0.0
H1000 H 0.82209 0.56995 0.30739 0.0
H1001 H 0.79543 0.6172 0.30535 0.0
H1002 H 0.79566 0.61748 0.18115 0.0
H1003 H 0.77199 0.57396 0.39626 0.0
H1004 H 0.84581 0.64156 0.33909 0.0
H1005 H 0.8835 0.66173 0.28002 0.0
H1006 H 0.90383 0.61651 0.3767 0.0
H1007 H 0.86607 0.59581 0.43554 0.0
C1008 C 0.79562 0.59951 0.71409 0.0
C1009 C 0.80936 0.59253 0.75024 0.0
C1010 C 0.79568 0.59972 0.64342 0.0
C1011 C 0.80902 0.5924 0.60753 0.0
C1012 C 0.82297 0.58567 0.64361 0.0
C1013 C 0.82322 0.58583 0.71437 0.0
C1014 C 0.80855 0.59193 0.53239 0.0
C1015 C 0.82969 0.60331 0.49698 0.0
C1016 C 0.78746 0.581 0.49563 0.0
C1017 C 0.76463 0.56709 0.52959 0.0
C1018 C 0.7606 0.54872 0.57386 0.0
C1019 C 0.73913 0.53579 0.60612 0.0
C1020 C 0.72149 0.54095 0.59411 0.0
C1021 C 0.72526 0.55901 0.54966 0.0
C1022 C 0.7467 0.57201 0.51733 0.0
C1023 C 0.816 0.58006 0.20927 0.0
C1024 C 0.80878 0.59358 0.17271 0.0
C1025 C 0.8162 0.58025 0.27997 0.0
C1026 C 0.80881 0.59362 0.31503 0.0
C1027 C 0.80119 0.6068 0.27882 0.0
C1028 C 0.80144 0.60701 0.2081 0.0
C1029 C 0.80919 0.59394 0.38968 0.0
C1030 C 0.78807 0.58248 0.42469 0.0
C1031 C 0.83026 0.60444 0.42602 0.0
C1032 C 0.85302 0.61697 0.3911 0.0
C1033 C 0.85822 0.63576 0.34723 0.0
C1034 C 0.87962 0.64733 0.3139 0.0
C1035 C 0.89602 0.64036 0.32443 0.0
C1036 C 0.89109 0.62186 0.36849 0.0
C1037 C 0.8697 0.61022 0.40188 0.0
H1038 H 0.91257 0.64934 0.29859 0.0
H1039 H 0.70488 0.53093 0.61913 0.0
H1040 H 0.18835 0.77923 0.25389 0.0
H1041 H 0.18818 0.77906 0.3779 0.0
H1042 H 0.26123 0.82953 0.37862 0.0
H1043 H 0.26155 0.83005 0.2546 0.0
H1044 H 0.2466 0.78968 0.46916 0.0
H1045 H 0.22718 0.8488 0.40837 0.0
H1046 H 0.20415 0.86316 0.34857 0.0
H1047 H 0.14245 0.81148 0.44925 0.0
H1048 H 0.16508 0.79658 0.50892 0.0
H1049 H 0.26145 0.82074 0.81311 0.0
H1050 H 0.26149 0.82104 0.68939 0.0
H1051 H 0.18674 0.78787 0.6894 0.0
H1052 H 0.18682 0.78889 0.81318 0.0
H1053 H 0.20171 0.81813 0.59632 0.0
H1054 H 0.21828 0.75817 0.65699 0.0
H1055 H 0.2388 0.74064 0.71499 0.0
H1056 H 0.30206 0.7888 0.61374 0.0
H1057 H 0.282 0.80683 0.55582 0.0
C1058 C 0.20439 0.79026 0.28044 0.0
C1059 C 0.22495 0.80471 0.24463 0.0
C1060 C 0.20423 0.79017 0.35115 0.0
C1061 C 0.22468 0.80434 0.38704 0.0
C1062 C 0.24531 0.81849 0.35155 0.0
C1063 C 0.24541 0.81884 0.28084 0.0
C1064 C 0.22448 0.80458 0.46178 0.0
C1065 C 0.23704 0.79613 0.49725 0.0
C1066 C 0.21133 0.81229 0.4978 0.0
C1067 C 0.19779 0.82144 0.46261 0.0
C1068 C 0.20867 0.84038 0.41736 0.0
C1069 C 0.1957 0.84864 0.38356 0.0
C1070 C 0.17184 0.8382 0.39498 0.0
C1071 C 0.16093 0.81953 0.4404 0.0
C1072 C 0.17382 0.81119 0.47426 0.0
C1073 C 0.24506 0.81354 0.78656 0.0
C1074 C 0.22413 0.80471 0.82246 0.0
C1075 C 0.24506 0.81357 0.71587 0.0
C1076 C 0.22407 0.80398 0.67984 0.0
C1077 C 0.20316 0.79532 0.7159 0.0
C1078 C 0.2032 0.79587 0.78659 0.0
C1079 C 0.22392 0.80322 0.60465 0.0
C1080 C 0.21127 0.81158 0.56877 0.0
C1081 C 0.2366 0.79492 0.56824 0.0
C1082 C 0.24868 0.78398 0.60254 0.0
C1083 C 0.2366 0.76511 0.64742 0.0
C1084 C 0.24815 0.75508 0.68024 0.0
C1085 C 0.27173 0.76364 0.66819 0.0
C1086 C 0.2838 0.78221 0.62309 0.0
C1087 C 0.27235 0.79232 0.5902 0.0
H1088 H 0.28064 0.75586 0.69369 0.0
H1089 H 0.16182 0.84461 0.36874 0.0
H1090 H 0.42252 0.25216 0.75151 0.0
H1091 H 0.42268 0.2523 0.62754 0.0
H1092 H 0.42736 0.18986 0.62913 0.0
H1093 H 0.42748 0.18971 0.7526 0.0
H1094 H 0.45679 0.22012 0.53984 0.0
H1095 H 0.3767 0.18714 0.59373 0.0
H1096 H 0.342 0.18436 0.64727 0.0
H1097 H 0.35457 0.24684 0.54445 0.0
H1098 H 0.38957 0.25016 0.4909 0.0
H1099 H 0.3931 0.19094 0.1934 0.0
H1100 H 0.39269 0.19087 0.31693 0.0
H1101 H 0.46061 0.2521 0.31786 0.0
H1102 H 0.46132 0.25218 0.19404 0.0
H1103 H 0.39419 0.22135 0.40586 0.0
H1104 H 0.49067 0.24843 0.45348 0.0
H1105 H 0.52168 0.2439 0.40038 0.0
H1106 H 0.47061 0.18218 0.30074 0.0
H1107 H 0.43933 0.18616 0.35384 0.0
C1108 C 0.42357 0.23846 0.72545 0.0
C1109 C 0.42497 0.22091 0.76188 0.0
C1110 C 0.42359 0.23853 0.65465 0.0
C1111 C 0.42491 0.22102 0.61922 0.0
C1112 C 0.42641 0.20357 0.65551 0.0
C1113 C 0.42638 0.20348 0.72613 0.0
C1114 C 0.42482 0.22083 0.54425 0.0
C1115 C 0.44317 0.22051 0.51053 0.0
C1116 C 0.40673 0.22075 0.50614 0.0
C1117 C 0.38589 0.21903 0.53886 0.0
C1118 C 0.37221 0.20042 0.58305 0.0
C1119 C 0.35246 0.19872 0.61328 0.0
C1120 C 0.3461 0.21543 0.59932 0.0
C1121 C 0.35953 0.23392 0.55522 0.0
C1122 C 0.37932 0.23571 0.52488 0.0
C1123 C 0.408 0.20439 0.21975 0.0
C1124 C 0.4273 0.22153 0.18384 0.0
C1125 C 0.40767 0.20437 0.29039 0.0
C1126 C 0.42664 0.2214 0.32651 0.0
C1127 C 0.44588 0.23865 0.2909 0.0
C1128 C 0.44623 0.23869 0.22015 0.0
C1129 C 0.42633 0.22096 0.40149 0.0
C1130 C 0.40793 0.2212 0.4352 0.0
C1131 C 0.44395 0.22017 0.43964 0.0
C1132 C 0.46268 0.21776 0.40709 0.0
C1133 C 0.48607 0.23389 0.42029 0.0
C1134 C 0.50369 0.23141 0.39021 0.0
C1135 C 0.4981 0.21278 0.34717 0.0
C1136 C 0.4749 0.19663 0.33393 0.0
C1137 C 0.45723 0.19902 0.3639 0.0
H1138 H 0.51172 0.21078 0.32435 0.0
H1139 H 0.33072 0.21398 0.62244 0.0
loop_
_geom_bond_atom_site_label_1
_geom_bond_atom_site_label_2
_geom_bond_distance
_geom_bond_site_symmetry_2
_ccdc_geom_bond_type
Eu0 C9 2.828 1_556 S
Eu0 O11 2.392 . S
Eu0 O13 2.418 . S
Eu0 O18 2.373 . S
Eu0 O21 2.488 . S
Eu0 O22 2.471 1_556 S
Eu0 O23 2.349 1_556 S
Eu1 O10 2.373 . S
Eu1 O14 2.488 . S
Eu1 O15 2.471 1_554 S
Eu1 O16 2.349 1_554 S
Eu1 O19 2.392 . S
Eu1 O20 2.418 . S
Eu1 C30 2.828 1_554 S
C2 O20 1.244 . S
C2 O23 1.265 . S
C3 C4 1.379 . S
C3 C7 1.373 1_554 S
C3 C9 1.505 . S
C4 C3 1.379 . S
C4 C6 1.369 . S
C4 H32 0.930 . S
C5 C7 1.383 . S
C5 C8 1.382 1_556 S
C5 H33 0.930 . S
C6 C4 1.369 . S
C6 C8 1.392 . S
C6 H34 0.930 . S
C7 C3 1.373 1_556 S
C7 C5 1.383 . S
C7 H35 0.931 . S
C8 C5 1.382 1_554 S
C8 C6 1.392 . S
C9 Eu0 2.828 1_554 S
C9 C3 1.505 . S
C9 O21 1.249 1_554 S
C9 O22 1.244 . S
O10 Eu1 2.373 . S
O10 C12 1.258 . S
O11 Eu0 2.392 . S
O11 C12 1.242 1_556 S
C12 O10 1.258 . S
C12 O11 1.242 1_554 S
O13 Eu0 2.418 . S
O13 C17 1.244 . S
O14 Eu1 2.488 . S
O14 C30 1.249 1_554 S
O15 Eu1 2.471 1_556 S
O15 C30 1.244 . S
O16 Eu1 2.349 1_556 S
O16 C17 1.265 . S
C17 O13 1.244 . S
C17 O16 1.265 . S
O18 Eu0 2.373 . S
O18 C31 1.258 . S
O19 Eu1 2.392 . S
O19 C31 1.242 1_554 S
O20 Eu1 2.418 . S
O20 C2 1.244 . S
O21 Eu0 2.488 . S
O21 C9 1.249 1_556 S
O22 Eu0 2.471 1_554 S
O22 C9 1.244 . S
O23 Eu0 2.349 1_554 S
O23 C2 1.265 . S
C24 C25 1.379 . S
C24 C28 1.373 1_556 S
C24 C30 1.505 . S
C25 C24 1.379 . S
C25 C27 1.369 . S
C25 H36 0.930 . S
C26 C28 1.383 . S
C26 C29 1.382 1_554 S
C26 H37 0.930 . S
C27 C25 1.369 . S
C27 C29 1.392 . S
C27 H38 0.930 . S
C28 C24 1.373 1_554 S
C28 C26 1.383 . S
C28 H39 0.931 . S
C29 C26 1.382 1_556 S
C29 C27 1.392 . S
C30 Eu1 2.828 1_556 S
C30 O14 1.249 1_556 S
C30 O15 1.244 . S
C30 C24 1.505 . S
C31 O18 1.258 . S
C31 O19 1.242 1_556 S
H32 C4 0.930 . S
H33 C5 0.930 . S
H34 C6 0.930 . S
H35 C7 0.931 . S
H36 C25 0.930 . S
H37 C26 0.930 . S
H38 C27 0.930 . S
H39 C28 0.931 . S
Eu40 C49 2.828 1_556 S
Eu40 O51 2.392 . S
Eu40 O53 2.418 . S
Eu40 O58 2.373 . S
Eu40 O61 2.488 . S
Eu40 O62 2.471 1_556 S
Eu40 O63 2.349 1_556 S
Eu41 O50 2.373 . S
Eu41 O54 2.488 . S
Eu41 O55 2.471 1_554 S
Eu41 O56 2.349 1_554 S
Eu41 O59 2.392 . S
Eu41 O60 2.418 . S
Eu41 C70 2.828 1_554 S
C42 O60 1.244 . S
C42 O63 1.265 . S
C43 C44 1.379 . S
C43 C47 1.373 1_554 S
C43 C49 1.505 . S
C44 C43 1.379 . S
C44 C46 1.369 . S
C44 H72 0.930 . S
C45 C47 1.383 . S
C45 C48 1.382 1_556 S
C45 H73 0.930 . S
C46 C44 1.369 . S
C46 C48 1.392 . S
C46 H74 0.930 . S
C47 C43 1.373 1_556 S
C47 C45 1.383 . S
C47 H75 0.931 . S
C48 C45 1.382 1_554 S
C48 C46 1.392 . S
C49 Eu40 2.828 1_554 S
C49 C43 1.505 . S
C49 O61 1.249 1_554 S
C49 O62 1.244 . S
O50 Eu41 2.373 . S
O50 C52 1.258 . S
O51 Eu40 2.392 . S
O51 C52 1.242 1_556 S
C52 O50 1.258 . S
C52 O51 1.242 1_554 S
O53 Eu40 2.418 . S
O53 C57 1.244 . S
O54 Eu41 2.488 . S
O54 C70 1.249 1_554 S
O55 Eu41 2.471 1_556 S
O55 C70 1.244 . S
O56 Eu41 2.349 1_556 S
O56 C57 1.265 . S
C57 O53 1.244 . S
C57 O56 1.265 . S
O58 Eu40 2.373 . S
O58 C71 1.258 . S
O59 Eu41 2.392 . S
O59 C71 1.242 1_554 S
O60 Eu41 2.418 . S
O60 C42 1.244 . S
O61 Eu40 2.488 . S
O61 C49 1.249 1_556 S
O62 Eu40 2.471 1_554 S
O62 C49 1.244 . S
O63 Eu40 2.349 1_554 S
O63 C42 1.265 . S
C64 C65 1.379 . S
C64 C68 1.373 1_556 S
C64 C70 1.505 . S
C65 C64 1.379 . S
C65 C67 1.369 . S
C65 H76 0.930 . S
C66 C68 1.383 . S
C66 C69 1.382 1_554 S
C66 H77 0.930 . S
C67 C65 1.369 . S
C67 C69 1.392 . S
C67 H78 0.930 . S
C68 C64 1.373 1_554 S
C68 C66 1.383 . S
C68 H79 0.931 . S
C69 C66 1.382 1_556 S
C69 C67 1.392 . S
C70 Eu41 2.828 1_556 S
C70 O54 1.249 1_556 S
C70 O55 1.244 . S
C70 C64 1.505 . S
C71 O58 1.258 . S
C71 O59 1.242 1_556 S
H72 C44 0.930 . S
H73 C45 0.930 . S
H74 C46 0.930 . S
H75 C47 0.931 . S
H76 C65 0.930 . S
H77 C66 0.930 . S
H78 C67 0.930 . S
H79 C68 0.931 . S
Eu80 C89 2.828 1_556 S
Eu80 O91 2.392 . S
Eu80 O93 2.418 . S
Eu80 O98 2.373 . S
Eu80 O101 2.488 . S
Eu80 O102 2.471 1_556 S
Eu80 O103 2.349 1_556 S
Eu81 O90 2.373 . S
Eu81 O94 2.488 . S
Eu81 O95 2.471 1_554 S
Eu81 O96 2.349 1_554 S
Eu81 O99 2.392 . S
Eu81 O100 2.418 . S
Eu81 C110 2.828 1_554 S
C82 O100 1.244 . S
C82 O103 1.265 . S
C83 C84 1.379 . S
C83 C87 1.373 1_554 S
C83 C89 1.505 . S
C84 C83 1.379 . S
C84 C86 1.369 . S
C84 H112 0.930 . S
C85 C87 1.383 . S
C85 C88 1.382 1_556 S
C85 H113 0.930 . S
C86 C84 1.369 . S
C86 C88 1.392 . S
C86 H114 0.930 . S
C87 C83 1.373 1_556 S
C87 C85 1.383 . S
C87 H115 0.931 . S
C88 C85 1.382 1_554 S
C88 C86 1.392 . S
C89 Eu80 2.828 1_554 S
C89 C83 1.505 . S
C89 O101 1.249 1_554 S
C89 O102 1.244 . S
O90 Eu81 2.373 . S
O90 C92 1.258 . S
O91 Eu80 2.392 . S
O91 C92 1.242 1_556 S
C92 O90 1.258 . S
C92 O91 1.242 1_554 S
O93 Eu80 2.418 . S
O93 C97 1.244 . S
O94 Eu81 2.488 . S
O94 C110 1.249 1_554 S
O95 Eu81 2.471 1_556 S
O95 C110 1.244 . S
O96 Eu81 2.349 1_556 S
O96 C97 1.265 . S
C97 O93 1.244 . S
C97 O96 1.265 . S
O98 Eu80 2.373 . S
O98 C111 1.258 . S
O99 Eu81 2.392 . S
O99 C111 1.242 1_554 S
O100 Eu81 2.418 . S
O100 C82 1.244 . S
O101 Eu80 2.488 . S
O101 C89 1.249 1_556 S
O102 Eu80 2.471 1_554 S
O102 C89 1.244 . S
O103 Eu80 2.349 1_554 S
O103 C82 1.265 . S
C104 C105 1.379 . S
C104 C108 1.373 1_556 S
C104 C110 1.505 . S
C105 C104 1.379 . S
C105 C107 1.369 . S
C105 H116 0.930 . S
C106 C108 1.383 . S
C106 C109 1.382 1_554 S
C106 H117 0.930 . S
C107 C105 1.369 . S
C107 C109 1.392 . S
C107 H118 0.930 . S
C108 C104 1.373 1_554 S
C108 C106 1.383 . S
C108 H119 0.931 . S
C109 C106 1.382 1_556 S
C109 C107 1.392 . S
C110 Eu81 2.828 1_556 S
C110 O94 1.249 1_556 S
C110 O95 1.244 . S
C110 C104 1.505 . S
C111 O98 1.258 . S
C111 O99 1.242 1_556 S
H112 C84 0.930 . S
H113 C85 0.930 . S
H114 C86 0.930 . S
H115 C87 0.931 . S
H116 C105 0.930 . S
H117 C106 0.930 . S
H118 C107 0.930 . S
H119 C108 0.931 . S
Eu120 C129 2.828 1_556 S
Eu120 O131 2.392 . S
Eu120 O133 2.418 . S
Eu120 O138 2.373 . S
Eu120 O141 2.488 . S
Eu120 O142 2.471 1_556 S
Eu120 O143 2.349 1_556 S
Eu121 O130 2.373 . S
Eu121 O134 2.488 . S
Eu121 O135 2.471 1_554 S
Eu121 O136 2.349 1_554 S
Eu121 O139 2.392 . S
Eu121 O140 2.418 . S
Eu121 C150 2.828 1_554 S
C122 O140 1.244 . S
C122 O143 1.265 . S
C123 C124 1.379 . S
C123 C127 1.373 1_554 S
C123 C129 1.505 . S
C124 C123 1.379 . S
C124 C126 1.369 . S
C124 H152 0.930 . S
C125 C127 1.383 . S
C125 C128 1.382 1_556 S
C125 H153 0.930 . S
C126 C124 1.369 . S
C126 C128 1.392 . S
C126 H154 0.930 . S
C127 C123 1.373 1_556 S
C127 C125 1.383 . S
C127 H155 0.931 . S
C128 C125 1.382 1_554 S
C128 C126 1.392 . S
C129 Eu120 2.828 1_554 S
C129 C123 1.505 . S
C129 O141 1.249 1_554 S
C129 O142 1.244 . S
O130 Eu121 2.373 . S
O130 C132 1.258 . S
O131 Eu120 2.392 . S
O131 C132 1.242 1_556 S
C132 O130 1.258 . S
C132 O131 1.242 1_554 S
O133 Eu120 2.418 . S
O133 C137 1.244 . S
O134 Eu121 2.488 . S
O134 C150 1.249 1_554 S
O135 Eu121 2.471 1_556 S
O135 C150 1.244 . S
O136 Eu121 2.349 1_556 S
O136 C137 1.265 . S
C137 O133 1.244 . S
C137 O136 1.265 . S
O138 Eu120 2.373 . S
O138 C151 1.258 . S
O139 Eu121 2.392 . S
O139 C151 1.242 1_554 S
O140 Eu121 2.418 . S
O140 C122 1.244 . S
O141 Eu120 2.488 . S
O141 C129 1.249 1_556 S
O142 Eu120 2.471 1_554 S
O142 C129 1.244 . S
O143 Eu120 2.349 1_554 S
O143 C122 1.265 . S
C144 C145 1.379 . S
C144 C148 1.373 1_556 S
C144 C150 1.505 . S
C145 C144 1.379 . S
C145 C147 1.369 . S
C145 H156 0.930 . S
C146 C148 1.383 . S
C146 C149 1.382 1_554 S
C146 H157 0.930 . S
C147 C145 1.369 . S
C147 C149 1.392 . S
C147 H158 0.930 . S
C148 C144 1.373 1_554 S
C148 C146 1.383 . S
C148 H159 0.931 . S
C149 C146 1.382 1_556 S
C149 C147 1.392 . S
C150 Eu121 2.828 1_556 S
C150 O134 1.249 1_556 S
C150 O135 1.244 . S
C150 C144 1.505 . S
C151 O138 1.258 . S
C151 O139 1.242 1_556 S
H152 C124 0.930 . S
H153 C125 0.930 . S
H154 C126 0.930 . S
H155 C127 0.931 . S
H156 C145 0.930 . S
H157 C146 0.930 . S
H158 C147 0.930 . S
H159 C148 0.931 . S
Eu160 C169 2.828 1_556 S
Eu160 O171 2.392 . S
Eu160 O173 2.418 . S
Eu160 O178 2.373 . S
Eu160 O181 2.488 . S
Eu160 O182 2.471 1_556 S
Eu160 O183 2.349 1_556 S
Eu161 O170 2.373 . S
Eu161 O174 2.488 . S
Eu161 O175 2.471 1_554 S
Eu161 O176 2.349 1_554 S
Eu161 O179 2.392 . S
Eu161 O180 2.418 . S
Eu161 C190 2.828 1_554 S
C162 O180 1.244 . S
C162 O183 1.265 . S
C163 C164 1.379 . S
C163 C167 1.373 1_554 S
C163 C169 1.505 . S
C164 C163 1.379 . S
C164 C166 1.369 . S
C164 H192 0.930 . S
C165 C167 1.383 . S
C165 C168 1.382 1_556 S
C165 H193 0.930 . S
C166 C164 1.369 . S
C166 C168 1.392 . S
C166 H194 0.930 . S
C167 C163 1.373 1_556 S
C167 C165 1.383 . S
C167 H195 0.931 . S
C168 C165 1.382 1_554 S
C168 C166 1.392 . S
C169 Eu160 2.828 1_554 S
C169 C163 1.505 . S
C169 O181 1.249 1_554 S
C169 O182 1.244 . S
O170 Eu161 2.373 . S
O170 C172 1.258 . S
O171 Eu160 2.392 . S
O171 C172 1.242 1_556 S
C172 O170 1.258 . S
C172 O171 1.242 1_554 S
O173 Eu160 2.418 . S
O173 C177 1.244 . S
O174 Eu161 2.488 . S
O174 C190 1.249 1_554 S
O175 Eu161 2.471 1_556 S
O175 C190 1.244 . S
O176 Eu161 2.349 1_556 S
O176 C177 1.265 . S
C177 O173 1.244 . S
C177 O176 1.265 . S
O178 Eu160 2.373 . S
O178 C191 1.258 . S
O179 Eu161 2.392 . S
O179 C191 1.242 1_554 S
O180 Eu161 2.418 . S
O180 C162 1.244 . S
O181 Eu160 2.488 . S
O181 C169 1.249 1_556 S
O182 Eu160 2.471 1_554 S
O182 C169 1.244 . S
O183 Eu160 2.349 1_554 S
O183 C162 1.265 . S
C184 C185 1.379 . S
C184 C188 1.373 1_556 S
C184 C190 1.505 . S
C185 C184 1.379 . S
C185 C187 1.369 . S
C185 H196 0.930 . S
C186 C188 1.383 . S
C186 C189 1.382 1_554 S
C186 H197 0.930 . S
C187 C185 1.369 . S
C187 C189 1.392 . S
C187 H198 0.930 . S
C188 C184 1.373 1_554 S
C188 C186 1.383 . S
C188 H199 0.931 . S
C189 C186 1.382 1_556 S
C189 C187 1.392 . S
C190 Eu161 2.828 1_556 S
C190 O174 1.249 1_556 S
C190 O175 1.244 . S
C190 C184 1.505 . S
C191 O178 1.258 . S
C191 O179 1.242 1_556 S
H192 C164 0.930 . S
H193 C165 0.930 . S
H194 C166 0.930 . S
H195 C167 0.931 . S
H196 C185 0.930 . S
H197 C186 0.930 . S
H198 C187 0.930 . S
H199 C188 0.931 . S
Eu200 C209 2.828 1_556 S
Eu200 O211 2.392 . S
Eu200 O213 2.418 . S
Eu200 O218 2.373 . S
Eu200 O221 2.488 . S
Eu200 O222 2.471 1_556 S
Eu200 O223 2.349 1_556 S
Eu201 O210 2.373 . S
Eu201 O214 2.488 . S
Eu201 O215 2.471 1_554 S
Eu201 O216 2.349 1_554 S
Eu201 O219 2.392 . S
Eu201 O220 2.418 . S
Eu201 C230 2.828 1_554 S
C202 O220 1.244 . S
C202 O223 1.265 . S
C203 C204 1.379 . S
C203 C207 1.373 1_554 S
C203 C209 1.505 . S
C204 C203 1.379 . S
C204 C206 1.369 . S
C204 H232 0.930 . S
C205 C207 1.383 . S
C205 C208 1.382 1_556 S
C205 H233 0.930 . S
C206 C204 1.369 . S
C206 C208 1.392 . S
C206 H234 0.930 . S
C207 C203 1.373 1_556 S
C207 C205 1.383 . S
C207 H235 0.931 . S
C208 C205 1.382 1_554 S
C208 C206 1.392 . S
C209 Eu200 2.828 1_554 S
C209 C203 1.505 . S
C209 O221 1.249 1_554 S
C209 O222 1.244 . S
O210 Eu201 2.373 . S
O210 C212 1.258 . S
O211 Eu200 2.392 . S
O211 C212 1.242 1_556 S
C212 O210 1.258 . S
C212 O211 1.242 1_554 S
O213 Eu200 2.418 . S
O213 C217 1.244 . S
O214 Eu201 2.488 . S
O214 C230 1.249 1_554 S
O215 Eu201 2.471 1_556 S
O215 C230 1.244 . S
O216 Eu201 2.349 1_556 S
O216 C217 1.265 . S
C217 O213 1.244 . S
C217 O216 1.265 . S
O218 Eu200 2.373 . S
O218 C231 1.258 . S
O219 Eu201 2.392 . S
O219 C231 1.242 1_554 S
O220 Eu201 2.418 . S
O220 C202 1.244 . S
O221 Eu200 2.488 . S
O221 C209 1.249 1_556 S
O222 Eu200 2.471 1_554 S
O222 C209 1.244 . S
O223 Eu200 2.349 1_554 S
O223 C202 1.265 . S
C224 C225 1.379 . S
C224 C228 1.373 1_556 S
C224 C230 1.505 . S
C225 C224 1.379 . S
C225 C227 1.369 . S
C225 H236 0.930 . S
C226 C228 1.383 . S
C226 C229 1.382 1_554 S
C226 H237 0.930 . S
C227 C225 1.369 . S
C227 C229 1.392 . S
C227 H238 0.930 . S
C228 C224 1.373 1_554 S
C228 C226 1.383 . S
C228 H239 0.931 . S
C229 C226 1.382 1_556 S
C229 C227 1.392 . S
C230 Eu201 2.828 1_556 S
C230 O214 1.249 1_556 S
C230 O215 1.244 . S
C230 C224 1.505 . S
C231 O218 1.258 . S
C231 O219 1.242 1_556 S
H232 C204 0.930 . S
H233 C205 0.930 . S
H234 C206 0.930 . S
H235 C207 0.931 . S
H236 C225 0.930 . S
H237 C226 0.930 . S
H238 C227 0.930 . S
H239 C228 0.931 . S
H240 C258 0.951 . S
H241 C260 0.951 . S
H242 C262 0.950 . S
H243 C263 0.950 . S
H244 C265 0.950 . S
H245 C268 0.950 . S
H246 C269 0.950 . S
H247 C271 0.950 . S
H248 C272 0.950 . S
H249 C273 0.951 . S
H250 C275 0.951 . S
H251 C277 0.950 . S
H252 C278 0.950 . S
H253 C280 0.950 . S
H254 C283 0.950 . S
H255 C284 0.950 . S
H256 C286 0.950 . S
H257 C287 0.950 . S
C258 H240 0.951 . S
C258 C259 1.366 . S
C258 C260 1.388 1_556 S
C259 C258 1.366 . S
C259 C263 1.384 1_556 S
C260 H241 0.951 . S
C260 C258 1.388 1_554 S
C260 C261 1.366 . S
C261 C260 1.366 . S
C261 C262 1.414 . S
C261 C264 1.499 . S
C262 H242 0.950 . S
C262 C261 1.414 . S
C262 C263 1.375 . S
C263 H243 0.950 . S
C263 C259 1.384 1_554 S
C263 C262 1.375 . S
C264 C261 1.499 . S
C264 C265 1.373 . S
C264 C266 1.389 1_554 S
C265 H244 0.950 . S
C265 C264 1.373 . S
C265 C281 1.377 . S
C266 C264 1.389 1_556 S
C266 C267 1.524 . S
C266 C280 1.377 . S
C267 C266 1.524 . S
C267 C268 1.397 . S
C267 C272 1.363 . S
C268 H245 0.950 . S
C268 C267 1.397 . S
C268 C269 1.334 . S
C269 H246 0.950 . S
C269 C268 1.334 . S
C269 C270 1.287 . S
C270 C269 1.287 . S
C270 C271 1.524 . S
C270 H289 0.913 . S
C271 H247 0.950 . S
C271 C270 1.524 . S
C271 C272 1.415 . S
C272 H248 0.950 . S
C272 C267 1.363 . S
C272 C271 1.415 . S
C273 H249 0.951 . S
C273 C274 1.366 . S
C273 C275 1.388 . S
C274 C273 1.366 . S
C274 C278 1.385 . S
C275 H250 0.951 . S
C275 C273 1.388 . S
C275 C276 1.366 . S
C276 C275 1.366 . S
C276 C277 1.414 . S
C276 C279 1.499 . S
C277 H251 0.950 . S
C277 C276 1.414 . S
C277 C278 1.374 . S
C278 H252 0.950 . S
C278 C274 1.385 . S
C278 C277 1.374 . S
C279 C276 1.499 . S
C279 C280 1.373 1_554 S
C279 C281 1.389 . S
C280 H253 0.950 . S
C280 C266 1.377 . S
C280 C279 1.373 1_556 S
C281 C265 1.377 . S
C281 C279 1.389 . S
C281 C282 1.524 . S
C282 C281 1.524 . S
C282 C283 1.397 . S
C282 C287 1.363 . S
C283 H254 0.950 . S
C283 C282 1.397 . S
C283 C284 1.334 . S
C284 H255 0.950 . S
C284 C283 1.334 . S
C284 C285 1.287 . S
C285 C284 1.287 . S
C285 C286 1.524 . S
C285 H288 0.999 . S
C286 H256 0.950 . S
C286 C285 1.524 . S
C286 C287 1.415 . S
C287 H257 0.950 . S
C287 C282 1.363 . S
C287 C286 1.415 . S
H288 C285 0.999 . S
H289 C270 0.913 . S
H290 C308 0.951 . S
H291 C310 0.951 . S
H292 C312 0.950 . S
H293 C313 0.950 . S
H294 C315 0.950 . S
H295 C318 0.950 1_554 S
H296 C319 0.950 . S
H297 C321 0.950 . S
H298 C322 0.950 . S
H299 C323 0.951 . S
H300 C325 0.951 . S
H301 C327 0.950 . S
H302 C328 0.950 . S
H303 C330 0.950 . S
H304 C333 0.950 . S
H305 C334 0.950 . S
H306 C336 0.950 . S
H307 C337 0.950 . S
C308 H290 0.951 . S
C308 C309 1.366 . S
C308 C310 1.388 . S
C309 C308 1.366 . S
C309 C313 1.385 1_556 S
C310 H291 0.951 . S
C310 C308 1.388 . S
C310 C311 1.366 1_556 S
C311 C310 1.366 1_554 S
C311 C312 1.414 . S
C311 C314 1.499 . S
C312 H292 0.950 . S
C312 C311 1.414 . S
C312 C313 1.374 . S
C313 H293 0.950 . S
C313 C309 1.385 1_554 S
C313 C312 1.374 . S
C314 C311 1.499 . S
C314 C315 1.373 . S
C314 C316 1.389 1_554 S
C315 H294 0.950 . S
C315 C314 1.373 . S
C315 C331 1.377 . S
C316 C314 1.389 1_556 S
C316 C317 1.524 . S
C316 C330 1.377 . S
C317 C316 1.524 . S
C317 C318 1.397 . S
C317 C322 1.363 . S
C318 H295 0.950 1_556 S
C318 C317 1.397 . S
C318 C319 1.334 . S
C319 H296 0.950 . S
C319 C318 1.334 . S
C319 C320 1.287 . S
C320 C319 1.287 . S
C320 C321 1.524 . S
C320 H339 0.913 . S
C321 H297 0.950 . S
C321 C320 1.524 . S
C321 C322 1.415 . S
C322 H298 0.950 . S
C322 C317 1.363 . S
C322 C321 1.415 . S
C323 H299 0.951 . S
C323 C324 1.366 . S
C323 C325 1.388 . S
C324 C323 1.366 . S
C324 C328 1.385 1_554 S
C325 H300 0.951 . S
C325 C323 1.388 . S
C325 C326 1.366 . S
C326 C325 1.366 . S
C326 C327 1.414 1_554 S
C326 C329 1.499 1_655 S
C327 H301 0.950 . S
C327 C326 1.414 1_556 S
C327 C328 1.374 . S
C328 H302 0.950 . S
C328 C324 1.385 1_556 S
C328 C327 1.374 . S
C329 C326 1.499 1_455 S
C329 C330 1.373 1_554 S
C329 C331 1.389 . S
C330 H303 0.950 . S
C330 C316 1.377 . S
C330 C329 1.373 1_556 S
C331 C315 1.377 . S
C331 C329 1.389 . S
C331 C332 1.524 . S
C332 C331 1.524 . S
C332 C333 1.397 . S
C332 C337 1.363 . S
C333 H304 0.950 . S
C333 C332 1.397 . S
C333 C334 1.334 . S
C334 H305 0.950 . S
C334 C333 1.334 . S
C334 C335 1.287 . S
C335 C334 1.287 . S
C335 C336 1.524 . S
C335 H338 0.999 . S
C336 H306 0.950 . S
C336 C335 1.524 . S
C336 C337 1.415 . S
C337 H307 0.950 . S
C337 C332 1.363 . S
C337 C336 1.415 . S
H338 C335 0.999 . S
H339 C320 0.913 . S
H340 C358 0.951 . S
H341 C360 0.951 . S
H342 C362 0.950 . S
H343 C363 0.950 . S
H344 C365 0.950 . S
H345 C368 0.950 . S
H346 C369 0.950 . S
H347 C371 0.950 . S
H348 C372 0.950 . S
H349 C373 0.951 . S
H350 C375 0.951 . S
H351 C377 0.950 . S
H352 C378 0.950 . S
H353 C380 0.950 . S
H354 C383 0.950 . S
H355 C384 0.950 . S
H356 C386 0.950 . S
H357 C387 0.950 . S
C358 H340 0.951 . S
C358 C359 1.366 1_554 S
C358 C360 1.388 . S
C359 C358 1.366 1_556 S
C359 C363 1.385 . S
C360 H341 0.951 . S
C360 C358 1.388 . S
C360 C361 1.366 . S
C361 C360 1.366 . S
C361 C362 1.414 1_554 S
C361 C364 1.499 . S
C362 H342 0.950 . S
C362 C361 1.414 1_556 S
C362 C363 1.374 . S
C363 H343 0.950 . S
C363 C359 1.385 . S
C363 C362 1.374 . S
C364 C361 1.499 . S
C364 C365 1.373 1_554 S
C364 C366 1.389 . S
C365 H344 0.950 . S
C365 C364 1.373 1_556 S
C365 C381 1.377 1_556 S
C366 C364 1.389 . S
C366 C367 1.524 . S
C366 C380 1.377 . S
C367 C366 1.524 . S
C367 C368 1.397 1_554 S
C367 C372 1.363 . S
C368 H345 0.950 . S
C368 C367 1.397 1_556 S
C368 C369 1.334 . S
C369 H346 0.950 . S
C369 C368 1.334 . S
C369 C370 1.287 1_556 S
C370 C369 1.287 1_554 S
C370 C371 1.524 . S
C370 H389 0.913 . S
C371 H347 0.950 . S
C371 C370 1.524 . S
C371 C372 1.415 . S
C372 H348 0.950 . S
C372 C367 1.363 . S
C372 C371 1.415 . S
C373 H349 0.951 . S
C373 C374 1.366 1_556 S
C373 C375 1.388 . S
C374 C373 1.366 1_554 S
C374 C378 1.385 . S
C375 H350 0.951 . S
C375 C373 1.388 . S
C375 C376 1.366 1_556 S
C376 C375 1.366 1_554 S
C376 C377 1.414 . S
C376 C379 1.499 1_565 S
C377 H351 0.950 . S
C377 C376 1.414 . S
C377 C378 1.374 . S
C378 H352 0.950 . S
C378 C374 1.385 . S
C378 C377 1.374 . S
C379 C376 1.499 1_545 S
C379 C380 1.373 . S
C379 C381 1.389 . S
C380 H353 0.950 . S
C380 C366 1.377 . S
C380 C379 1.373 . S
C381 C365 1.377 1_554 S
C381 C379 1.389 . S
C381 C382 1.525 . S
C382 C381 1.525 . S
C382 C383 1.402 1_545 S
C382 C387 1.357 1_554 S
C383 H354 0.950 . S
C383 C382 1.402 1_565 S
C383 C384 1.334 . S
C384 H355 0.950 . S
C384 C383 1.334 . S
C384 C385 1.287 . S
C385 C384 1.287 . S
C385 C386 1.524 1_554 S
C385 H388 0.999 . S
C386 H356 0.950 . S
C386 C385 1.524 1_556 S
C386 C387 1.415 1_565 S
C387 H357 0.950 . S
C387 C382 1.357 1_556 S
C387 C386 1.415 1_545 S
H388 C385 0.999 . S
H389 C370 0.913 . S
H390 C408 0.951 . S
H391 C410 0.951 . S
H392 C412 0.950 . S
H393 C413 0.950 . S
H394 C415 0.950 . S
H395 C418 0.950 . S
H396 C419 0.950 . S
H397 C421 0.950 . S
H398 C422 0.950 . S
H399 C423 0.951 . S
H400 C425 0.951 1_556 S
H401 C427 0.950 . S
H402 C428 0.950 . S
H403 C430 0.950 . S
H404 C433 0.950 . S
H405 C434 0.950 . S
H406 C436 0.950 . S
H407 C437 0.950 . S
C408 H390 0.951 . S
C408 C409 1.366 . S
C408 C410 1.388 . S
C409 C408 1.366 . S
C409 C413 1.385 . S
C410 H391 0.951 . S
C410 C408 1.388 . S
C410 C411 1.366 . S
C411 C410 1.366 . S
C411 C412 1.414 . S
C411 C414 1.499 . S
C412 H392 0.950 . S
C412 C411 1.414 . S
C412 C413 1.374 . S
C413 H393 0.950 . S
C413 C409 1.385 . S
C413 C412 1.374 . S
C414 C411 1.499 . S
C414 C415 1.373 1_554 S
C414 C416 1.389 . S
C415 H394 0.950 . S
C415 C414 1.373 1_556 S
C415 C431 1.377 . S
C416 C414 1.389 . S
C416 C417 1.524 . S
C416 C430 1.377 . S
C417 C416 1.524 . S
C417 C418 1.397 . S
C417 C422 1.363 . S
C418 H395 0.950 . S
C418 C417 1.397 . S
C418 C419 1.334 . S
C419 H396 0.950 . S
C419 C418 1.334 . S
C419 C420 1.287 . S
C420 C419 1.287 . S
C420 C421 1.524 . S
C420 H439 0.913 . S
C421 H397 0.950 . S
C421 C420 1.524 . S
C421 C422 1.415 . S
C422 H398 0.950 . S
C422 C417 1.363 . S
C422 C421 1.415 . S
C423 H399 0.951 . S
C423 C424 1.366 . S
C423 C425 1.388 1_556 S
C424 C423 1.366 . S
C424 C428 1.385 1_556 S
C425 H400 0.951 1_554 S
C425 C423 1.388 1_554 S
C425 C426 1.366 . S
C426 C425 1.366 . S
C426 C427 1.414 . S
C426 C429 1.499 . S
C427 H401 0.950 . S
C427 C426 1.414 . S
C427 C428 1.374 . S
C428 H402 0.950 . S
C428 C424 1.385 1_554 S
C428 C427 1.374 . S
C429 C426 1.499 . S
C429 C430 1.373 . S
C429 C431 1.389 1_554 S
C430 H403 0.950 . S
C430 C416 1.377 . S
C430 C429 1.373 . S
C431 C415 1.377 . S
C431 C429 1.389 1_556 S
C431 C432 1.524 . S
C432 C431 1.524 . S
C432 C433 1.397 . S
C432 C437 1.363 . S
C433 H404 0.950 . S
C433 C432 1.397 . S
C433 C434 1.334 . S
C434 H405 0.950 . S
C434 C433 1.334 . S
C434 C435 1.287 . S
C435 C434 1.287 . S
C435 C436 1.524 . S
C435 H438 0.999 . S
C436 H406 0.950 . S
C436 C435 1.524 . S
C436 C437 1.415 . S
C437 H407 0.950 . S
C437 C432 1.363 . S
C437 C436 1.415 . S
H438 C435 0.999 . S
H439 C420 0.913 . S
H440 C458 0.951 . S
H441 C460 0.951 . S
H442 C462 0.950 . S
H443 C463 0.950 . S
H444 C465 0.950 . S
H445 C468 0.961 . S
H446 C469 0.950 . S
H447 C471 0.950 . S
H448 C472 0.950 . S
H449 C473 0.951 . S
H450 C475 0.951 . S
H451 C477 0.950 . S
H452 C478 0.950 . S
H453 C480 0.950 . S
H454 C483 0.950 . S
H455 C484 0.950 . S
H456 C486 0.950 . S
H457 C487 0.950 . S
C458 H440 0.951 . S
C458 C459 1.366 . S
C458 C460 1.388 . S
C459 C458 1.366 . S
C459 C463 1.385 . S
C460 H441 0.951 . S
C460 C458 1.388 . S
C460 C461 1.366 . S
C461 C460 1.366 . S
C461 C462 1.414 . S
C461 C464 1.499 1_455 S
C462 H442 0.950 . S
C462 C461 1.414 . S
C462 C463 1.374 . S
C463 H443 0.950 . S
C463 C459 1.385 . S
C463 C462 1.374 . S
C464 C461 1.499 1_655 S
C464 C465 1.373 . S
C464 C466 1.389 1_554 S
C465 H444 0.950 . S
C465 C464 1.373 . S
C465 C481 1.377 . S
C466 C464 1.389 1_556 S
C466 C467 1.524 . S
C466 C480 1.377 . S
C467 C466 1.524 . S
C467 C468 1.399 . S
C467 C472 1.363 . S
C468 H445 0.961 . S
C468 C467 1.399 . S
C468 C469 1.320 1_655 S
C469 H446 0.950 . S
C469 C468 1.320 1_455 S
C469 C470 1.287 . S
C470 C469 1.287 . S
C470 C471 1.524 . S
C470 H489 0.913 . S
C471 H447 0.950 . S
C471 C470 1.524 . S
C471 C472 1.415 1_455 S
C472 H448 0.950 . S
C472 C467 1.363 . S
C472 C471 1.415 1_655 S
C473 H449 0.951 . S
C473 C474 1.366 . S
C473 C475 1.388 1_556 S
C474 C473 1.366 . S
C474 C478 1.385 1_556 S
C475 H450 0.951 . S
C475 C473 1.388 1_554 S
C475 C476 1.366 . S
C476 C475 1.366 . S
C476 C477 1.414 . S
C476 C479 1.499 . S
C477 H451 0.950 . S
C477 C476 1.414 . S
C477 C478 1.374 . S
C478 H452 0.950 . S
C478 C474 1.385 1_554 S
C478 C477 1.374 . S
C479 C476 1.499 . S
C479 C480 1.373 1_554 S
C479 C481 1.389 . S
C480 H453 0.950 . S
C480 C466 1.377 . S
C480 C479 1.373 1_556 S
C481 C465 1.377 . S
C481 C479 1.389 . S
C481 C482 1.524 . S
C482 C481 1.524 . S
C482 C483 1.397 . S
C482 C487 1.363 . S
C483 H454 0.950 . S
C483 C482 1.397 . S
C483 C484 1.334 . S
C484 H455 0.950 . S
C484 C483 1.334 . S
C484 C485 1.287 . S
C485 C484 1.287 . S
C485 C486 1.524 . S
C485 H488 0.999 . S
C486 H456 0.950 . S
C486 C485 1.524 . S
C486 C487 1.415 . S
C487 H457 0.950 . S
C487 C482 1.363 . S
C487 C486 1.415 . S
H488 C485 0.999 . S
H489 C470 0.913 . S
H490 C508 0.951 . S
H491 C510 0.951 . S
H492 C512 0.950 . S
H493 C513 0.950 . S
H494 C515 0.950 . S
H495 C518 0.950 . S
H496 C519 0.950 . S
H497 C521 0.950 . S
H498 C522 0.950 . S
H499 C523 0.951 . S
H500 C525 0.951 . S
H501 C527 0.950 . S
H502 C528 0.950 . S
H503 C530 0.950 . S
H504 C533 0.950 . S
H505 C534 0.950 . S
H506 C536 0.950 . S
H507 C537 0.950 . S
C508 H490 0.951 . S
C508 C509 1.366 1_554 S
C508 C510 1.388 . S
C509 C508 1.366 1_556 S
C509 C513 1.385 . S
C510 H491 0.951 . S
C510 C508 1.388 . S
C510 C511 1.366 . S
C511 C510 1.366 . S
C511 C512 1.414 . S
C511 C514 1.499 . S
C512 H492 0.950 . S
C512 C511 1.414 . S
C512 C513 1.373 1_554 S
C513 H493 0.950 . S
C513 C509 1.385 . S
C513 C512 1.373 1_556 S
C514 C511 1.499 . S
C514 C515 1.373 . S
C514 C516 1.389 1_554 S
C515 H494 0.950 . S
C515 C514 1.373 . S
C515 C531 1.377 . S
C516 C514 1.389 1_556 S
C516 C517 1.524 . S
C516 C530 1.377 . S
C517 C516 1.524 . S
C517 C518 1.397 . S
C517 C522 1.363 . S
C518 H495 0.950 . S
C518 C517 1.397 . S
C518 C519 1.334 . S
C519 H496 0.950 . S
C519 C518 1.334 . S
C519 C520 1.287 . S
C520 C519 1.287 . S
C520 C521 1.524 . S
C520 H539 0.913 . S
C521 H497 0.950 . S
C521 C520 1.524 . S
C521 C522 1.415 . S
C522 H498 0.950 . S
C522 C517 1.363 . S
C522 C521 1.415 . S
C523 H499 0.951 . S
C523 C524 1.366 . S
C523 C525 1.388 . S
C524 C523 1.366 . S
C524 C528 1.385 . S
C525 H500 0.951 . S
C525 C523 1.388 . S
C525 C526 1.366 . S
C526 C525 1.366 . S
C526 C527 1.414 . S
C526 C529 1.499 1_545 S
C527 H501 0.950 . S
C527 C526 1.414 . S
C527 C528 1.374 . S
C528 H502 0.950 . S
C528 C524 1.385 . S
C528 C527 1.374 . S
C529 C526 1.499 1_565 S
C529 C530 1.373 1_554 S
C529 C531 1.389 . S
C530 H503 0.950 . S
C530 C516 1.377 . S
C530 C529 1.373 1_556 S
C531 C515 1.377 . S
C531 C529 1.389 . S
C531 C532 1.524 . S
C532 C531 1.524 . S
C532 C533 1.397 . S
C532 C537 1.363 . S
C533 H504 0.950 . S
C533 C532 1.397 . S
C533 C534 1.334 1_565 S
C534 H505 0.950 . S
C534 C533 1.334 1_545 S
C534 C535 1.287 . S
C535 C534 1.287 . S
C535 C536 1.524 1_545 S
C535 H538 0.999 . S
C536 H506 0.950 . S
C536 C535 1.524 1_565 S
C536 C537 1.415 . S
C537 H507 0.950 . S
C537 C532 1.363 . S
C537 C536 1.415 . S
H538 C535 0.999 . S
H539 C520 0.913 . S
H540 C558 0.951 . S
H541 C560 0.951 . S
H542 C562 0.950 . S
H543 C563 0.950 . S
H544 C565 0.950 . S
H545 C568 0.950 . S
H546 C569 0.950 1_556 S
H547 C571 0.950 . S
H548 C572 0.950 . S
H549 C573 0.951 . S
H550 C575 0.951 . S
H551 C577 0.950 . S
H552 C578 0.950 . S
H553 C580 0.950 . S
H554 C583 0.950 1_554 S
H555 C584 0.950 . S
H556 C586 0.950 . S
H557 C587 0.950 . S
C558 H540 0.951 . S
C558 C559 1.373 . S
C558 C560 1.388 . S
C559 C558 1.373 . S
C559 C563 1.377 1_554 S
C560 H541 0.951 . S
C560 C558 1.388 . S
C560 C561 1.366 1_554 S
C561 C560 1.366 1_556 S
C561 C562 1.414 . S
C561 C564 1.499 . S
C562 H542 0.950 . S
C562 C561 1.414 . S
C562 C563 1.374 . S
C563 H543 0.950 . S
C563 C559 1.377 1_556 S
C563 C562 1.374 . S
C564 C561 1.499 . S
C564 C565 1.373 . S
C564 C566 1.389 1_556 S
C565 H544 0.950 . S
C565 C564 1.373 . S
C565 C581 1.377 . S
C566 C564 1.389 1_554 S
C566 C567 1.524 . S
C566 C580 1.377 . S
C567 C566 1.524 . S
C567 C568 1.397 1_554 S
C567 C572 1.363 . S
C568 H545 0.950 . S
C568 C567 1.397 1_556 S
C568 C569 1.334 1_556 S
C569 H546 0.950 1_554 S
C569 C568 1.334 1_554 S
C569 C570 1.287 . S
C570 C569 1.287 . S
C570 C571 1.524 . S
C570 H589 0.913 . S
C571 H547 0.950 . S
C571 C570 1.524 . S
C571 C572 1.415 . S
C572 H548 0.950 . S
C572 C567 1.363 . S
C572 C571 1.415 . S
C573 H549 0.951 . S
C573 C574 1.366 . S
C573 C575 1.388 . S
C574 C573 1.366 . S
C574 C578 1.385 1_556 S
C575 H550 0.951 . S
C575 C573 1.388 . S
C575 C576 1.366 . S
C576 C575 1.366 . S
C576 C577 1.414 1_556 S
C576 C579 1.499 . S
C577 H551 0.950 . S
C577 C576 1.414 1_554 S
C577 C578 1.374 . S
C578 H552 0.950 . S
C578 C574 1.385 1_554 S
C578 C577 1.374 . S
C579 C576 1.499 . S
C579 C580 1.373 1_556 S
C579 C581 1.389 . S
C580 H553 0.950 . S
C580 C566 1.377 . S
C580 C579 1.373 1_554 S
C581 C565 1.377 . S
C581 C579 1.389 . S
C581 C582 1.524 . S
C582 C581 1.524 . S
C582 C583 1.397 . S
C582 C587 1.363 . S
C583 H554 0.950 1_556 S
C583 C582 1.397 . S
C583 C584 1.334 . S
C584 H555 0.950 . S
C584 C583 1.334 . S
C584 C585 1.287 . S
C585 C584 1.287 . S
C585 C586 1.524 . S
C585 H588 0.999 . S
C586 H556 0.950 . S
C586 C585 1.524 . S
C586 C587 1.415 . S
C587 H557 0.950 . S
C587 C582 1.363 . S
C587 C586 1.415 . S
H588 C585 0.999 . S
H589 C570 0.913 . S
H590 C608 0.951 . S
H591 C610 0.951 . S
H592 C612 0.950 . S
H593 C613 0.950 . S
H594 C615 0.950 . S
H595 C618 0.950 . S
H596 C619 0.950 . S
H597 C621 0.950 . S
H598 C622 0.950 . S
H599 C623 0.951 . S
H600 C625 0.951 . S
H601 C627 0.950 . S
H602 C628 0.950 . S
H603 C630 0.950 . S
H604 C633 0.950 . S
H605 C634 0.950 . S
H606 C636 0.950 . S
H607 C637 0.950 . S
C608 H590 0.951 . S
C608 C609 1.371 . S
C608 C610 1.388 . S
C609 C608 1.371 . S
C609 C613 1.379 1_554 S
C610 H591 0.951 . S
C610 C608 1.388 . S
C610 C611 1.366 1_554 S
C611 C610 1.366 1_556 S
C611 C612 1.414 . S
C611 C614 1.499 . S
C612 H592 0.950 . S
C612 C611 1.414 . S
C612 C613 1.374 . S
C613 H593 0.950 . S
C613 C609 1.379 1_556 S
C613 C612 1.374 . S
C614 C611 1.499 . S
C614 C615 1.373 . S
C614 C616 1.389 1_556 S
C615 H594 0.950 . S
C615 C614 1.373 . S
C615 C631 1.377 . S
C616 C614 1.389 1_554 S
C616 C617 1.524 . S
C616 C630 1.377 . S
C617 C616 1.524 . S
C617 C618 1.397 . S
C617 C622 1.363 . S
C618 H595 0.950 . S
C618 C617 1.397 . S
C618 C619 1.334 . S
C619 H596 0.950 . S
C619 C618 1.334 . S
C619 C620 1.287 . S
C620 C619 1.287 . S
C620 C621 1.524 . S
C620 H639 0.913 . S
C621 H597 0.950 . S
C621 C620 1.524 . S
C621 C622 1.415 . S
C622 H598 0.950 . S
C622 C617 1.363 . S
C622 C621 1.415 . S
C623 H599 0.951 . S
C623 C624 1.366 . S
C623 C625 1.388 . S
C624 C623 1.366 . S
C624 C628 1.385 1_556 S
C625 H600 0.951 . S
C625 C623 1.388 . S
C625 C626 1.366 . S
C626 C625 1.366 . S
C626 C627 1.414 1_556 S
C626 C629 1.499 . S
C627 H601 0.950 . S
C627 C626 1.414 1_554 S
C627 C628 1.374 . S
C628 H602 0.950 . S
C628 C624 1.385 1_554 S
C628 C627 1.374 . S
C629 C626 1.499 . S
C629 C630 1.373 1_556 S
C629 C631 1.389 . S
C630 H603 0.950 . S
C630 C616 1.377 . S
C630 C629 1.373 1_554 S
C631 C615 1.377 . S
C631 C629 1.389 . S
C631 C632 1.524 . S
C632 C631 1.524 . S
C632 C633 1.397 . S
C632 C637 1.363 . S
C633 H604 0.950 . S
C633 C632 1.397 . S
C633 C634 1.334 . S
C634 H605 0.950 . S
C634 C633 1.334 . S
C634 C635 1.287 . S
C635 C634 1.287 . S
C635 C636 1.524 . S
C635 H638 0.999 . S
C636 H606 0.950 . S
C636 C635 1.524 . S
C636 C637 1.415 . S
C637 H607 0.950 . S
C637 C632 1.363 . S
C637 C636 1.415 . S
H638 C635 0.999 . S
H639 C620 0.913 . S
H640 C658 0.951 . S
H641 C660 0.951 . S
H642 C662 0.950 . S
H643 C663 0.950 . S
H644 C665 0.950 . S
H645 C668 0.950 . S
H646 C669 0.950 . S
H647 C671 0.950 . S
H648 C672 0.950 . S
H649 C673 0.951 . S
H650 C675 0.951 . S
H651 C677 0.950 . S
H652 C678 0.950 . S
H653 C680 0.950 . S
H654 C683 0.950 . S
H655 C684 0.950 . S
H656 C686 0.950 . S
H657 C687 0.950 . S
C658 H640 0.951 . S
C658 C659 1.366 . S
C658 C660 1.388 . S
C659 C658 1.366 . S
C659 C663 1.385 . S
C660 H641 0.951 . S
C660 C658 1.388 . S
C660 C661 1.366 . S
C661 C660 1.366 . S
C661 C662 1.414 . S
C661 C664 1.499 . S
C662 H642 0.950 . S
C662 C661 1.414 . S
C662 C663 1.374 . S
C663 H643 0.950 . S
C663 C659 1.385 . S
C663 C662 1.374 . S
C664 C661 1.499 . S
C664 C665 1.373 1_556 S
C664 C666 1.389 . S
C665 H644 0.950 . S
C665 C664 1.373 1_554 S
C665 C681 1.377 . S
C666 C664 1.389 . S
C666 C667 1.524 . S
C666 C680 1.377 . S
C667 C666 1.524 . S
C667 C668 1.397 . S
C667 C672 1.363 . S
C668 H645 0.950 . S
C668 C667 1.397 . S
C668 C669 1.334 . S
C669 H646 0.950 . S
C669 C668 1.334 . S
C669 C670 1.287 . S
C670 C669 1.287 . S
C670 C671 1.524 . S
C670 H689 0.913 . S
C671 H647 0.950 . S
C671 C670 1.524 . S
C671 C672 1.415 . S
C672 H648 0.950 . S
C672 C667 1.363 . S
C672 C671 1.415 . S
C673 H649 0.951 . S
C673 C674 1.365 1_556 S
C673 C675 1.388 . S
C674 C673 1.365 1_554 S
C674 C678 1.386 . S
C675 H650 0.951 . S
C675 C673 1.388 . S
C675 C676 1.366 . S
C676 C675 1.366 . S
C676 C677 1.414 1_556 S
C676 C679 1.499 . S
C677 H651 0.950 . S
C677 C676 1.414 1_554 S
C677 C678 1.374 . S
C678 H652 0.950 . S
C678 C674 1.386 . S
C678 C677 1.374 . S
C679 C676 1.499 . S
C679 C680 1.373 . S
C679 C681 1.389 1_556 S
C680 H653 0.950 . S
C680 C666 1.377 . S
C680 C679 1.373 . S
C681 C665 1.377 . S
C681 C679 1.389 1_554 S
C681 C682 1.524 . S
C682 C681 1.524 . S
C682 C683 1.397 . S
C682 C687 1.363 . S
C683 H654 0.950 . S
C683 C682 1.397 . S
C683 C684 1.334 . S
C684 H655 0.950 . S
C684 C683 1.334 . S
C684 C685 1.287 . S
C685 C684 1.287 . S
C685 C686 1.524 . S
C685 H688 0.999 . S
C686 H656 0.950 . S
C686 C685 1.524 . S
C686 C687 1.415 . S
C687 H657 0.950 . S
C687 C682 1.363 . S
C687 C686 1.415 . S
H688 C685 0.999 . S
H689 C670 0.913 . S
H690 C708 0.951 . S
H691 C710 0.951 . S
H692 C712 0.950 . S
H693 C713 0.950 . S
H694 C715 0.950 . S
H695 C718 0.950 . S
H696 C719 0.950 . S
H697 C721 0.950 . S
H698 C722 0.950 1_556 S
H699 C723 0.951 . S
H700 C725 0.951 . S
H701 C727 0.950 . S
H702 C728 0.950 . S
H703 C730 0.950 . S
H704 C733 0.950 . S
H705 C734 0.950 . S
H706 C736 0.950 . S
H707 C737 0.950 . S
C708 H690 0.951 . S
C708 C709 1.366 . S
C708 C710 1.388 . S
C709 C708 1.366 . S
C709 C713 1.385 1_556 S
C710 H691 0.951 . S
C710 C708 1.388 . S
C710 C711 1.366 . S
C711 C710 1.366 . S
C711 C712 1.414 1_556 S
C711 C714 1.499 . S
C712 H692 0.950 . S
C712 C711 1.414 1_554 S
C712 C713 1.374 . S
C713 H693 0.950 . S
C713 C709 1.385 1_554 S
C713 C712 1.374 . S
C714 C711 1.499 . S
C714 C715 1.373 . S
C714 C716 1.389 1_556 S
C715 H694 0.950 . S
C715 C714 1.373 . S
C715 C731 1.377 . S
C716 C714 1.389 1_554 S
C716 C717 1.524 . S
C716 C730 1.377 . S
C717 C716 1.524 . S
C717 C718 1.397 . S
C717 C722 1.363 . S
C718 H695 0.950 . S
C718 C717 1.397 . S
C718 C719 1.334 . S
C719 H696 0.950 . S
C719 C718 1.334 . S
C719 C720 1.287 . S
C720 C719 1.287 . S
C720 C721 1.524 . S
C720 H739 0.913 . S
C721 H697 0.950 . S
C721 C720 1.524 . S
C721 C722 1.415 . S
C722 H698 0.950 1_554 S
C722 C717 1.363 . S
C722 C721 1.415 . S
C723 H699 0.951 . S
C723 C724 1.370 . S
C723 C725 1.388 . S
C724 C723 1.370 . S
C724 C728 1.380 1_554 S
C725 H700 0.951 . S
C725 C723 1.388 . S
C725 C726 1.366 1_554 S
C726 C725 1.366 1_556 S
C726 C727 1.414 . S
C726 C729 1.499 . S
C727 H701 0.950 . S
C727 C726 1.414 . S
C727 C728 1.374 . S
C728 H702 0.950 . S
C728 C724 1.380 1_556 S
C728 C727 1.374 . S
C729 C726 1.499 . S
C729 C730 1.373 1_556 S
C729 C731 1.389 . S
C730 H703 0.950 . S
C730 C716 1.377 . S
C730 C729 1.373 1_554 S
C731 C715 1.377 . S
C731 C729 1.389 . S
C731 C732 1.524 . S
C732 C731 1.524 . S
C732 C733 1.397 . S
C732 C737 1.363 . S
C733 H704 0.950 . S
C733 C732 1.397 . S
C733 C734 1.334 . S
C734 H705 0.950 . S
C734 C733 1.334 . S
C734 C735 1.287 . S
C735 C734 1.287 . S
C735 C736 1.524 . S
C735 H738 0.999 . S
C736 H706 0.950 . S
C736 C735 1.524 . S
C736 C737 1.415 . S
C737 H707 0.950 . S
C737 C732 1.363 . S
C737 C736 1.415 . S
H738 C735 0.999 . S
H739 C720 0.913 . S
H740 C758 0.951 . S
H741 C760 0.951 . S
H742 C762 0.950 . S
H743 C763 0.950 . S
H744 C765 0.950 . S
H745 C768 0.950 . S
H746 C769 0.950 . S
H747 C771 0.950 . S
H748 C772 0.950 . S
H749 C773 0.951 . S
H750 C775 0.951 . S
H751 C777 0.950 . S
H752 C778 0.950 . S
H753 C780 0.950 . S
H754 C783 0.950 . S
H755 C784 0.950 . S
H756 C786 0.950 . S
H757 C787 0.950 . S
C758 H740 0.951 . S
C758 C759 1.366 1_554 S
C758 C760 1.388 . S
C759 C758 1.366 1_556 S
C759 C763 1.385 . S
C760 H741 0.951 . S
C760 C758 1.388 . S
C760 C761 1.366 1_554 S
C761 C760 1.366 1_556 S
C761 C762 1.414 . S
C761 C764 1.499 . S
C762 H742 0.950 . S
C762 C761 1.414 . S
C762 C763 1.374 . S
C763 H743 0.950 . S
C763 C759 1.385 . S
C763 C762 1.374 . S
C764 C761 1.499 . S
C764 C765 1.373 . S
C764 C766 1.389 1_556 S
C765 H744 0.950 . S
C765 C764 1.373 . S
C765 C781 1.377 . S
C766 C764 1.389 1_554 S
C766 C767 1.524 . S
C766 C780 1.377 . S
C767 C766 1.524 . S
C767 C768 1.397 . S
C767 C772 1.363 . S
C768 H745 0.950 . S
C768 C767 1.397 . S
C768 C769 1.334 . S
C769 H746 0.950 . S
C769 C768 1.334 . S
C769 C770 1.287 . S
C770 C769 1.287 . S
C770 C771 1.524 . S
C770 H789 0.913 . S
C771 H747 0.950 . S
C771 C770 1.524 . S
C771 C772 1.415 . S
C772 H748 0.950 . S
C772 C767 1.363 . S
C772 C771 1.415 . S
C773 H749 0.951 . S
C773 C774 1.358 1_556 S
C773 C775 1.388 . S
C774 C773 1.358 1_554 S
C774 C778 1.392 . S
C775 H750 0.951 . S
C775 C773 1.388 . S
C775 C776 1.366 . S
C776 C775 1.366 . S
C776 C777 1.414 1_556 S
C776 C779 1.499 . S
C777 H751 0.950 . S
C777 C776 1.414 1_554 S
C777 C778 1.374 . S
C778 H752 0.950 . S
C778 C774 1.392 . S
C778 C777 1.374 . S
C779 C776 1.499 . S
C779 C780 1.373 1_556 S
C779 C781 1.389 . S
C780 H753 0.950 . S
C780 C766 1.377 . S
C780 C779 1.373 1_554 S
C781 C765 1.377 . S
C781 C779 1.389 . S
C781 C782 1.524 . S
C782 C781 1.524 . S
C782 C783 1.397 . S
C782 C787 1.363 . S
C783 H754 0.950 . S
C783 C782 1.397 . S
C783 C784 1.334 . S
C784 H755 0.950 . S
C784 C783 1.334 . S
C784 C785 1.287 . S
C785 C784 1.287 . S
C785 C786 1.524 . S
C785 H788 0.999 . S
C786 H756 0.950 . S
C786 C785 1.524 . S
C786 C787 1.415 . S
C787 H757 0.950 . S
C787 C782 1.363 . S
C787 C786 1.415 . S
H788 C785 0.999 . S
H789 C770 0.913 . S
H790 C808 0.951 . S
H791 C810 0.951 . S
H792 C812 0.950 . S
H793 C813 0.950 . S
H794 C815 0.950 . S
H795 C818 0.950 . S
H796 C819 0.950 . S
H797 C821 0.950 . S
H798 C822 0.950 . S
H799 C823 0.951 . S
H800 C825 0.951 . S
H801 C827 0.950 . S
H802 C828 0.950 . S
H803 C830 0.950 . S
H804 C833 0.950 . S
H805 C834 0.950 . S
H806 C836 0.950 . S
H807 C837 0.950 . S
C808 H790 0.951 . S
C808 C809 1.369 . S
C808 C810 1.388 . S
C809 C808 1.369 . S
C809 C813 1.381 1_554 S
C810 H791 0.951 . S
C810 C808 1.388 . S
C810 C811 1.366 1_554 S
C811 C810 1.366 1_556 S
C811 C812 1.414 . S
C811 C814 1.499 . S
C812 H792 0.950 . S
C812 C811 1.414 . S
C812 C813 1.374 . S
C813 H793 0.950 . S
C813 C809 1.381 1_556 S
C813 C812 1.374 . S
C814 C811 1.499 . S
C814 C815 1.373 . S
C814 C816 1.389 1_556 S
C815 H794 0.950 . S
C815 C814 1.373 . S
C815 C831 1.377 . S
C816 C814 1.389 1_554 S
C816 C817 1.524 . S
C816 C830 1.377 . S
C817 C816 1.524 . S
C817 C818 1.397 . S
C817 C822 1.363 . S
C818 H795 0.950 . S
C818 C817 1.397 . S
C818 C819 1.334 . S
C819 H796 0.950 . S
C819 C818 1.334 . S
C819 C820 1.287 . S
C820 C819 1.287 . S
C820 C821 1.524 . S
C820 H839 0.913 . S
C821 H797 0.950 . S
C821 C820 1.524 . S
C821 C822 1.415 . S
C822 H798 0.950 . S
C822 C817 1.363 . S
C822 C821 1.415 . S
C823 H799 0.951 . S
C823 C824 1.366 . S
C823 C825 1.388 . S
C824 C823 1.366 . S
C824 C828 1.385 1_556 S
C825 H800 0.951 . S
C825 C823 1.388 . S
C825 C826 1.366 . S
C826 C825 1.366 . S
C826 C827 1.414 1_556 S
C826 C829 1.499 . S
C827 H801 0.950 . S
C827 C826 1.414 1_554 S
C827 C828 1.374 . S
C828 H802 0.950 . S
C828 C824 1.385 1_554 S
C828 C827 1.374 . S
C829 C826 1.499 . S
C829 C830 1.373 1_556 S
C829 C831 1.389 . S
C830 H803 0.950 . S
C830 C816 1.377 . S
C830 C829 1.373 1_554 S
C831 C815 1.377 . S
C831 C829 1.389 . S
C831 C832 1.524 . S
C832 C831 1.524 . S
C832 C833 1.397 . S
C832 C837 1.363 . S
C833 H804 0.950 . S
C833 C832 1.397 . S
C833 C834 1.334 . S
C834 H805 0.950 . S
C834 C833 1.334 . S
C834 C835 1.287 . S
C835 C834 1.287 . S
C835 C836 1.524 . S
C835 H838 0.999 . S
C836 H806 0.950 . S
C836 C835 1.524 . S
C836 C837 1.415 . S
C837 H807 0.950 . S
C837 C832 1.363 . S
C837 C836 1.415 . S
H838 C835 0.999 . S
H839 C820 0.913 . S
H840 C858 0.951 . S
H841 C860 0.951 . S
H842 C862 0.950 . S
H843 C863 0.950 . S
H844 C865 0.950 . S
H845 C868 0.950 . S
H846 C869 0.950 . S
H847 C871 0.950 . S
H848 C872 0.950 . S
H849 C873 0.951 . S
H850 C875 0.951 . S
H851 C877 0.950 . S
H852 C878 0.950 . S
H853 C880 0.950 . S
H854 C883 0.950 . S
H855 C884 0.950 . S
H856 C886 0.950 . S
H857 C887 0.950 . S
C858 H840 0.951 . S
C858 C859 1.366 . S
C858 C860 1.388 . S
C859 C858 1.366 . S
C859 C863 1.385 . S
C860 H841 0.951 . S
C860 C858 1.388 . S
C860 C861 1.366 . S
C861 C860 1.366 . S
C861 C862 1.414 . S
C861 C864 1.499 . S
C862 H842 0.950 . S
C862 C861 1.414 . S
C862 C863 1.374 . S
C863 H843 0.950 . S
C863 C859 1.385 . S
C863 C862 1.374 . S
C864 C861 1.499 . S
C864 C865 1.373 . S
C864 C866 1.389 . S
C865 H844 0.950 . S
C865 C864 1.373 . S
C865 C881 1.377 . S
C866 C864 1.389 . S
C866 C867 1.524 . S
C866 C880 1.377 . S
C867 C866 1.524 . S
C867 C868 1.397 . S
C867 C872 1.363 . S
C868 H845 0.950 . S
C868 C867 1.397 . S
C868 C869 1.334 . S
C869 H846 0.950 . S
C869 C868 1.334 . S
C869 C870 1.287 . S
C870 C869 1.287 . S
C870 C871 1.524 . S
C870 H889 0.913 . S
C871 H847 0.950 . S
C871 C870 1.524 . S
C871 C872 1.415 . S
C872 H848 0.950 . S
C872 C867 1.363 . S
C872 C871 1.415 . S
C873 H849 0.951 . S
C873 C874 1.366 . S
C873 C875 1.388 . S
C874 C873 1.366 . S
C874 C878 1.385 . S
C875 H850 0.951 . S
C875 C873 1.388 . S
C875 C876 1.366 . S
C876 C875 1.366 . S
C876 C877 1.414 . S
C876 C879 1.499 . S
C877 H851 0.950 . S
C877 C876 1.414 . S
C877 C878 1.374 . S
C878 H852 0.950 . S
C878 C874 1.385 . S
C878 C877 1.374 . S
C879 C876 1.499 . S
C879 C880 1.373 . S
C879 C881 1.389 . S
C880 H853 0.950 . S
C880 C866 1.377 . S
C880 C879 1.373 . S
C881 C865 1.377 . S
C881 C879 1.389 . S
C881 C882 1.524 . S
C882 C881 1.524 . S
C882 C883 1.397 . S
C882 C887 1.363 . S
C883 H854 0.950 . S
C883 C882 1.397 . S
C883 C884 1.334 . S
C884 H855 0.950 . S
C884 C883 1.334 . S
C884 C885 1.287 . S
C885 C884 1.287 . S
C885 C886 1.524 . S
C885 H888 0.999 . S
C886 H856 0.950 . S
C886 C885 1.524 . S
C886 C887 1.415 . S
C887 H857 0.950 . S
C887 C882 1.363 . S
C887 C886 1.415 . S
H888 C885 0.999 . S
H889 C870 0.913 . S
H890 C908 0.951 . S
H891 C910 0.951 . S
H892 C912 0.950 . S
H893 C913 0.950 . S
H894 C915 0.950 . S
H895 C918 0.950 . S
H896 C919 0.950 . S
H897 C921 0.950 . S
H898 C922 0.950 . S
H899 C923 0.951 . S
H900 C925 0.951 . S
H901 C927 0.950 . S
H902 C928 0.950 . S
H903 C930 0.950 . S
H904 C933 0.950 . S
H905 C934 0.950 . S
H906 C936 0.950 . S
H907 C937 0.950 . S
C908 H890 0.951 . S
C908 C909 1.366 . S
C908 C910 1.388 . S
C909 C908 1.366 . S
C909 C913 1.385 . S
C910 H891 0.951 . S
C910 C908 1.388 . S
C910 C911 1.366 . S
C911 C910 1.366 . S
C911 C912 1.414 . S
C911 C914 1.499 . S
C912 H892 0.950 . S
C912 C911 1.414 . S
C912 C913 1.374 . S
C913 H893 0.950 . S
C913 C909 1.385 . S
C913 C912 1.374 . S
C914 C911 1.499 . S
C914 C915 1.373 . S
C914 C916 1.389 . S
C915 H894 0.950 . S
C915 C914 1.373 . S
C915 C931 1.377 . S
C916 C914 1.389 . S
C916 C917 1.524 . S
C916 C930 1.377 . S
C917 C916 1.524 . S
C917 C918 1.397 . S
C917 C922 1.363 . S
C918 H895 0.950 . S
C918 C917 1.397 . S
C918 C919 1.334 . S
C919 H896 0.950 . S
C919 C918 1.334 . S
C919 C920 1.287 . S
C920 C919 1.287 . S
C920 C921 1.524 . S
C920 H939 0.913 . S
C921 H897 0.950 . S
C921 C920 1.524 . S
C921 C922 1.415 . S
C922 H898 0.950 . S
C922 C917 1.363 . S
C922 C921 1.415 . S
C923 H899 0.951 . S
C923 C924 1.366 . S
C923 C925 1.388 . S
C924 C923 1.366 . S
C924 C928 1.385 . S
C925 H900 0.951 . S
C925 C923 1.388 . S
C925 C926 1.366 . S
C926 C925 1.366 . S
C926 C927 1.414 . S
C926 C929 1.499 . S
C927 H901 0.950 . S
C927 C926 1.414 . S
C927 C928 1.374 . S
C928 H902 0.950 . S
C928 C924 1.385 . S
C928 C927 1.374 . S
C929 C926 1.499 . S
C929 C930 1.373 . S
C929 C931 1.389 . S
C930 H903 0.950 . S
C930 C916 1.377 . S
C930 C929 1.373 . S
C931 C915 1.377 . S
C931 C929 1.389 . S
C931 C932 1.524 . S
C932 C931 1.524 . S
C932 C933 1.397 . S
C932 C937 1.363 . S
C933 H904 0.950 . S
C933 C932 1.397 . S
C933 C934 1.334 . S
C934 H905 0.950 . S
C934 C933 1.334 . S
C934 C935 1.287 . S
C935 C934 1.287 . S
C935 C936 1.524 . S
C935 H938 0.999 . S
C936 H906 0.950 . S
C936 C935 1.524 . S
C936 C937 1.415 . S
C937 H907 0.950 . S
C937 C932 1.363 . S
C937 C936 1.415 . S
H938 C935 0.999 . S
H939 C920 0.913 . S
H940 C958 0.951 . S
H941 C960 0.951 . S
H942 C962 0.950 . S
H943 C963 0.950 . S
H944 C965 0.950 . S
H945 C968 0.950 . S
H946 C969 0.950 . S
H947 C971 0.950 . S
H948 C972 0.950 . S
H949 C973 0.951 . S
H950 C975 0.951 . S
H951 C977 0.950 . S
H952 C978 0.950 . S
H953 C980 0.950 . S
H954 C983 0.950 . S
H955 C984 0.950 . S
H956 C986 0.950 . S
H957 C987 0.950 . S
C958 H940 0.951 . S
C958 C959 1.366 . S
C958 C960 1.388 . S
C959 C958 1.366 . S
C959 C963 1.385 . S
C960 H941 0.951 . S
C960 C958 1.388 . S
C960 C961 1.366 . S
C961 C960 1.366 . S
C961 C962 1.414 . S
C961 C964 1.499 . S
C962 H942 0.950 . S
C962 C961 1.414 . S
C962 C963 1.374 . S
C963 H943 0.950 . S
C963 C959 1.385 . S
C963 C962 1.374 . S
C964 C961 1.499 . S
C964 C965 1.373 . S
C964 C966 1.389 . S
C965 H944 0.950 . S
C965 C964 1.373 . S
C965 C981 1.377 . S
C966 C964 1.389 . S
C966 C967 1.524 . S
C966 C980 1.377 . S
C967 C966 1.524 . S
C967 C968 1.397 . S
C967 C972 1.363 . S
C968 H945 0.950 . S
C968 C967 1.397 . S
C968 C969 1.334 . S
C969 H946 0.950 . S
C969 C968 1.334 . S
C969 C970 1.287 . S
C970 C969 1.287 . S
C970 C971 1.524 . S
C970 H989 0.913 . S
C971 H947 0.950 . S
C971 C970 1.524 . S
C971 C972 1.415 . S
C972 H948 0.950 . S
C972 C967 1.363 . S
C972 C971 1.415 . S
C973 H949 0.951 . S
C973 C974 1.366 . S
C973 C975 1.388 . S
C974 C973 1.366 . S
C974 C978 1.385 . S
C975 H950 0.951 . S
C975 C973 1.388 . S
C975 C976 1.366 . S
C976 C975 1.366 . S
C976 C977 1.414 . S
C976 C979 1.499 . S
C977 H951 0.950 . S
C977 C976 1.414 . S
C977 C978 1.374 . S
C978 H952 0.950 . S
C978 C974 1.385 . S
C978 C977 1.374 . S
C979 C976 1.499 . S
C979 C980 1.373 . S
C979 C981 1.389 . S
C980 H953 0.950 . S
C980 C966 1.377 . S
C980 C979 1.373 . S
C981 C965 1.377 . S
C981 C979 1.389 . S
C981 C982 1.524 . S
C982 C981 1.524 . S
C982 C983 1.397 . S
C982 C987 1.363 . S
C983 H954 0.950 . S
C983 C982 1.397 . S
C983 C984 1.334 . S
C984 H955 0.950 . S
C984 C983 1.334 . S
C984 C985 1.287 . S
C985 C984 1.287 . S
C985 C986 1.524 . S
C985 H988 0.999 . S
C986 H956 0.950 . S
C986 C985 1.524 . S
C986 C987 1.415 . S
C987 H957 0.950 . S
C987 C982 1.363 . S
C987 C986 1.415 . S
H988 C985 0.999 . S
H989 C970 0.913 . S
H990 C1008 0.951 . S
H991 C1010 0.951 . S
H992 C1012 0.950 . S
H993 C1013 0.950 . S
H994 C1015 0.950 . S
H995 C1018 0.950 . S
H996 C1019 0.950 . S
H997 C1021 0.950 . S
H998 C1022 0.950 . S
H999 C1023 0.951 . S
H1000 C1025 0.951 . S
H1001 C1027 0.950 . S
H1002 C1028 0.950 . S
H1003 C1030 0.950 . S
H1004 C1033 0.950 . S
H1005 C1034 0.950 . S
H1006 C1036 0.950 . S
H1007 C1037 0.950 . S
C1008 H990 0.951 . S
C1008 C1009 1.366 . S
C1008 C1010 1.388 . S
C1009 C1008 1.366 . S
C1009 C1013 1.385 . S
C1010 H991 0.951 . S
C1010 C1008 1.388 . S
C1010 C1011 1.366 . S
C1011 C1010 1.366 . S
C1011 C1012 1.414 . S
C1011 C1014 1.499 . S
C1012 H992 0.950 . S
C1012 C1011 1.414 . S
C1012 C1013 1.374 . S
C1013 H993 0.950 . S
C1013 C1009 1.385 . S
C1013 C1012 1.374 . S
C1014 C1011 1.499 . S
C1014 C1015 1.373 . S
C1014 C1016 1.389 . S
C1015 H994 0.950 . S
C1015 C1014 1.373 . S
C1015 C1031 1.377 . S
C1016 C1014 1.389 . S
C1016 C1017 1.524 . S
C1016 C1030 1.377 . S
C1017 C1016 1.524 . S
C1017 C1018 1.397 . S
C1017 C1022 1.363 . S
C1018 H995 0.950 . S
C1018 C1017 1.397 . S
C1018 C1019 1.334 . S
C1019 H996 0.950 . S
C1019 C1018 1.334 . S
C1019 C1020 1.287 . S
C1020 C1019 1.287 . S
C1020 C1021 1.524 . S
C1020 H1039 0.913 . S
C1021 H997 0.950 . S
C1021 C1020 1.524 . S
C1021 C1022 1.415 . S
C1022 H998 0.950 . S
C1022 C1017 1.363 . S
C1022 C1021 1.415 . S
C1023 H999 0.951 . S
C1023 C1024 1.366 . S
C1023 C1025 1.388 . S
C1024 C1023 1.366 . S
C1024 C1028 1.385 . S
C1025 H1000 0.951 . S
C1025 C1023 1.388 . S
C1025 C1026 1.366 . S
C1026 C1025 1.366 . S
C1026 C1027 1.414 . S
C1026 C1029 1.499 . S
C1027 H1001 0.950 . S
C1027 C1026 1.414 . S
C1027 C1028 1.374 . S
C1028 H1002 0.950 . S
C1028 C1024 1.385 . S
C1028 C1027 1.374 . S
C1029 C1026 1.499 . S
C1029 C1030 1.373 . S
C1029 C1031 1.389 . S
C1030 H1003 0.950 . S
C1030 C1016 1.377 . S
C1030 C1029 1.373 . S
C1031 C1015 1.377 . S
C1031 C1029 1.389 . S
C1031 C1032 1.524 . S
C1032 C1031 1.524 . S
C1032 C1033 1.397 . S
C1032 C1037 1.363 . S
C1033 H1004 0.950 . S
C1033 C1032 1.397 . S
C1033 C1034 1.334 . S
C1034 H1005 0.950 . S
C1034 C1033 1.334 . S
C1034 C1035 1.287 . S
C1035 C1034 1.287 . S
C1035 C1036 1.524 . S
C1035 H1038 0.999 . S
C1036 H1006 0.950 . S
C1036 C1035 1.524 . S
C1036 C1037 1.415 . S
C1037 H1007 0.950 . S
C1037 C1032 1.363 . S
C1037 C1036 1.415 . S
H1038 C1035 0.999 . S
H1039 C1020 0.913 . S
H1040 C1058 0.951 . S
H1041 C1060 0.951 . S
H1042 C1062 0.950 . S
H1043 C1063 0.950 . S
H1044 C1065 0.950 . S
H1045 C1068 0.950 . S
H1046 C1069 0.950 . S
H1047 C1071 0.950 . S
H1048 C1072 0.950 . S
H1049 C1073 0.951 . S
H1050 C1075 0.951 . S
H1051 C1077 0.950 . S
H1052 C1078 0.950 . S
H1053 C1080 0.950 . S
H1054 C1083 0.950 . S
H1055 C1084 0.950 . S
H1056 C1086 0.950 . S
H1057 C1087 0.950 . S
C1058 H1040 0.951 . S
C1058 C1059 1.366 . S
C1058 C1060 1.388 . S
C1059 C1058 1.366 . S
C1059 C1063 1.385 . S
C1060 H1041 0.951 . S
C1060 C1058 1.388 . S
C1060 C1061 1.366 . S
C1061 C1060 1.366 . S
C1061 C1062 1.414 . S
C1061 C1064 1.499 . S
C1062 H1042 0.950 . S
C1062 C1061 1.414 . S
C1062 C1063 1.374 . S
C1063 H1043 0.950 . S
C1063 C1059 1.385 . S
C1063 C1062 1.374 . S
C1064 C1061 1.499 . S
C1064 C1065 1.373 . S
C1064 C1066 1.389 . S
C1065 H1044 0.950 . S
C1065 C1064 1.373 . S
C1065 C1081 1.377 . S
C1066 C1064 1.389 . S
C1066 C1067 1.524 . S
C1066 C1080 1.377 . S
C1067 C1066 1.524 . S
C1067 C1068 1.397 . S
C1067 C1072 1.363 . S
C1068 H1045 0.950 . S
C1068 C1067 1.397 . S
C1068 C1069 1.334 . S
C1069 H1046 0.950 . S
C1069 C1068 1.334 . S
C1069 C1070 1.287 . S
C1070 C1069 1.287 . S
C1070 C1071 1.524 . S
C1070 H1089 0.913 . S
C1071 H1047 0.950 . S
C1071 C1070 1.524 . S
C1071 C1072 1.415 . S
C1072 H1048 0.950 . S
C1072 C1067 1.363 . S
C1072 C1071 1.415 . S
C1073 H1049 0.951 . S
C1073 C1074 1.366 . S
C1073 C1075 1.388 . S
C1074 C1073 1.366 . S
C1074 C1078 1.385 . S
C1075 H1050 0.951 . S
C1075 C1073 1.388 . S
C1075 C1076 1.366 . S
C1076 C1075 1.366 . S
C1076 C1077 1.414 . S
C1076 C1079 1.499 . S
C1077 H1051 0.950 . S
C1077 C1076 1.414 . S
C1077 C1078 1.374 . S
C1078 H1052 0.950 . S
C1078 C1074 1.385 . S
C1078 C1077 1.374 . S
C1079 C1076 1.499 . S
C1079 C1080 1.373 . S
C1079 C1081 1.389 . S
C1080 H1053 0.950 . S
C1080 C1066 1.377 . S
C1080 C1079 1.373 . S
C1081 C1065 1.377 . S
C1081 C1079 1.389 . S
C1081 C1082 1.524 . S
C1082 C1081 1.524 . S
C1082 C1083 1.397 . S
C1082 C1087 1.363 . S
C1083 H1054 0.950 . S
C1083 C1082 1.397 . S
C1083 C1084 1.334 . S
C1084 H1055 0.950 . S
C1084 C1083 1.334 . S
C1084 C1085 1.287 . S
C1085 C1084 1.287 . S
C1085 C1086 1.524 . S
C1085 H1088 0.999 . S
C1086 H1056 0.950 . S
C1086 C1085 1.524 . S
C1086 C1087 1.415 . S
C1087 H1057 0.950 . S
C1087 C1082 1.363 . S
C1087 C1086 1.415 . S
H1088 C1085 0.999 . S
H1089 C1070 0.913 . S
H1090 C1108 0.951 . S
H1091 C1110 0.951 . S
H1092 C1112 0.950 . S
H1093 C1113 0.950 . S
H1094 C1115 0.950 . S
H1095 C1118 0.950 . S
H1096 C1119 0.950 . S
H1097 C1121 0.950 . S
H1098 C1122 0.950 . S
H1099 C1123 0.951 . S
H1100 C1125 0.951 . S
H1101 C1127 0.950 . S
H1102 C1128 0.950 . S
H1103 C1130 0.950 . S
H1104 C1133 0.950 . S
H1105 C1134 0.950 . S
H1106 C1136 0.950 . S
H1107 C1137 0.950 . S
C1108 H1090 0.951 . S
C1108 C1109 1.366 . S
C1108 C1110 1.388 . S
C1109 C1108 1.366 . S
C1109 C1113 1.385 . S
C1110 H1091 0.951 . S
C1110 C1108 1.388 . S
C1110 C1111 1.366 . S
C1111 C1110 1.366 . S
C1111 C1112 1.414 . S
C1111 C1114 1.499 . S
C1112 H1092 0.950 . S
C1112 C1111 1.414 . S
C1112 C1113 1.374 . S
C1113 H1093 0.950 . S
C1113 C1109 1.385 . S
C1113 C1112 1.374 . S
C1114 C1111 1.499 . S
C1114 C1115 1.373 . S
C1114 C1116 1.389 . S
C1115 H1094 0.950 . S
C1115 C1114 1.373 . S
C1115 C1131 1.377 . S
C1116 C1114 1.389 . S
C1116 C1117 1.524 . S
C1116 C1130 1.377 . S
C1117 C1116 1.524 . S
C1117 C1118 1.397 . S
C1117 C1122 1.363 . S
C1118 H1095 0.950 . S
C1118 C1117 1.397 . S
C1118 C1119 1.334 . S
C1119 H1096 0.950 . S
C1119 C1118 1.334 . S
C1119 C1120 1.287 . S
C1120 C1119 1.287 . S
C1120 C1121 1.524 . S
C1120 H1139 0.913 . S
C1121 H1097 0.950 . S
C1121 C1120 1.524 . S
C1121 C1122 1.415 . S
C1122 H1098 0.950 . S
C1122 C1117 1.363 . S
C1122 C1121 1.415 . S
C1123 H1099 0.951 . S
C1123 C1124 1.366 . S
C1123 C1125 1.388 . S
C1124 C1123 1.366 . S
C1124 C1128 1.385 . S
C1125 H1100 0.951 . S
C1125 C1123 1.388 . S
C1125 C1126 1.366 . S
C1126 C1125 1.366 . S
C1126 C1127 1.414 . S
C1126 C1129 1.499 . S
C1127 H1101 0.950 . S
C1127 C1126 1.414 . S
C1127 C1128 1.374 . S
C1128 H1102 0.950 . S
C1128 C1124 1.385 . S
C1128 C1127 1.374 . S
C1129 C1126 1.499 . S
C1129 C1130 1.373 . S
C1129 C1131 1.389 . S
C1130 H1103 0.950 . S
C1130 C1116 1.377 . S
C1130 C1129 1.373 . S
C1131 C1115 1.377 . S
C1131 C1129 1.389 . S
C1131 C1132 1.524 . S
C1132 C1131 1.524 . S
C1132 C1133 1.397 . S
C1132 C1137 1.363 . S
C1133 H1104 0.950 . S
C1133 C1132 1.397 . S
C1133 C1134 1.334 . S
C1134 H1105 0.950 . S
C1134 C1133 1.334 . S
C1134 C1135 1.287 . S
C1135 C1134 1.287 . S
C1135 C1136 1.524 . S
C1135 H1138 0.999 . S
C1136 H1106 0.950 . S
C1136 C1135 1.524 . S
C1136 C1137 1.415 . S
C1137 H1107 0.950 . S
C1137 C1132 1.363 . S
C1137 C1136 1.415 . S
H1138 C1135 0.999 . S
H1139 C1120 0.913 . S
C259 C231 1.617 . S
C274 C8 1.441 . S
C309 C31 1.618 . S
C324 C48 1.440 . S
C359 C71 1.617 . S
C374 C88 1.442 . S
C409 C128 1.441 . S
C424 C111 1.617 . S
C459 C168 1.442 . S
C474 C151 1.617 . S
C509 C191 1.617 . S
C524 C208 1.441 . S
C559 C172 2.012 . S
C574 C29 1.991 . S
C609 C212 2.012 . S
C624 C69 1.991 . S
C659 C109 1.991 . S
C674 C12 2.012 . S
C709 C149 1.991 . S
C724 C52 2.012 . S
C759 C189 1.991 . S
C774 C92 2.012 . S
C809 C132 2.012 . S
C824 C229 1.991 . S
C859 C17 1.459 . S
C874 C2 1.459 . S
C909 C57 1.459 . S
C924 C42 1.459 . S
C959 C97 1.459 . S
C974 C82 1.459 . S
C1009 C137 1.459 . S
C1024 C122 1.459 . S
C1059 C162 1.459 . S
C1074 C177 1.459 . S
C1109 C217 1.459 . S
C1124 C202 1.459 . S
