# Generated by pormake.
# Topology qtz-e, (6)-cn, num edge types: 1
# Building blocks:
#     Node 0, Type 0, BuildingBlock: INOVEN_clean_sbu_0, # of connection points: 6
#     Node 1, Type 0, BuildingBlock: INOVEN_clean_sbu_0, # of connection points: 6
#     Node 2, Type 0, BuildingBlock: INOVEN_clean_sbu_0, # of connection points: 6
#     Node 3, Type 0, BuildingBlock: INOVEN_clean_sbu_0, # of connection points: 6
#     Node 4, Type 0, BuildingBlock: INOVEN_clean_sbu_0, # of connection points: 6
#     Node 5, Type 0, BuildingBlock: INOVEN_clean_sbu_0, # of connection points: 6
#     Edge 6, Type (0, 0), BuildingBlock: EYOCIG_clean_linker_4, # of connection points: 2
#     Edge 7, Type (0, 0), BuildingBlock: EYOCIG_clean_linker_4, # of connection points: 2
#     Edge 8, Type (0, 0), BuildingBlock: EYOCIG_clean_linker_4, # of connection points: 2
#     Edge 9, Type (0, 0), BuildingBlock: EYOCIG_clean_linker_4, # of connection points: 2
#     Edge 10, Type (0, 0), BuildingBlock: EYOCIG_clean_linker_4, # of connection points: 2
#     Edge 11, Type (0, 0), BuildingBlock: EYOCIG_clean_linker_4, # of connection points: 2
#     Edge 12, Type (0, 0), BuildingBlock: EYOCIG_clean_linker_4, # of connection points: 2
#     Edge 13, Type (0, 0), BuildingBlock: EYOCIG_clean_linker_4, # of connection points: 2
#     Edge 14, Type (0, 0), BuildingBlock: EYOCIG_clean_linker_4, # of connection points: 2
#     Edge 15, Type (0, 0), BuildingBlock: EYOCIG_clean_linker_4, # of connection points: 2
#     Edge 16, Type (0, 0), BuildingBlock: EYOCIG_clean_linker_4, # of connection points: 2
#     Edge 17, Type (0, 0), BuildingBlock: EYOCIG_clean_linker_4, # of connection points: 2
#     Edge 18, Type (0, 0), BuildingBlock: EYOCIG_clean_linker_4, # of connection points: 2
#     Edge 19, Type (0, 0), BuildingBlock: EYOCIG_clean_linker_4, # of connection points: 2
#     Edge 20, Type (0, 0), BuildingBlock: EYOCIG_clean_linker_4, # of connection points: 2
#     Edge 21, Type (0, 0), BuildingBlock: EYOCIG_clean_linker_4, # of connection points: 2
#     Edge 22, Type (0, 0), BuildingBlock: EYOCIG_clean_linker_4, # of connection points: 2
#     Edge 23, Type (0, 0), BuildingBlock: EYOCIG_clean_linker_4, # of connection points: 2
# Relax obj value: 0.083
# Max RMSD: 0.177
# Mean RMSD: 0.177
data_MOF--net-qtz-e--node1-INOVEN_clean_sbu_0--edge1-EYOCIG_clean_linker_4
_symmetry_space_group_name_H-M    P1
_symmetry_Int_Tables_number       1
_symmetry_cell_setting            triclinic
loop_
_symmetry_equiv_pos_as_xyz
'x, y, z'
_cell_length_a     20.687838
_cell_length_b     20.70631
_cell_length_c     44.803672
_cell_angle_alpha  90.029391
_cell_angle_beta   89.963425
_cell_angle_gamma 119.98923
loop_
_atom_site_label
_atom_site_type_symbol
_atom_site_fract_x
_atom_site_fract_y
_atom_site_fract_z
_atom_type_partial_charge
Gd0 Gd 0.21907 0.48411 0.08018 0.0
Gd1 Gd 0.17406 0.34382 0.04211 0.0
C2 C 0.13456 0.3177 0.11107 0.0
C3 C 0.21507 0.57886 0.11607 0.0
C4 C 0.21907 0.58698 0.14886 0.0
C5 C 0.2878 0.61551 0.16387 0.0
C6 C 0.15384 0.56573 0.16551 0.0
C7 C 0.22617 0.60286 0.21112 0.0
C8 C 0.15739 0.57353 0.19652 0.0
C9 C 0.29118 0.62332 0.19482 0.0
C10 C 0.32946 0.4568 0.07292 0.0
C11 C 0.26891 0.50932 1.01292 0.0
C12 C 0.16322 0.24364 1.0042 0.0
C13 C 0.17534 0.23401 0.9721 0.0
C14 C 0.11372 0.19626 0.95281 0.0
C15 C 0.24721 0.25718 0.9608 0.0
C16 C 0.19536 0.20459 0.91211 0.0
C17 C 0.25703 0.2427 0.93107 0.0
C18 C 0.12368 0.1819 0.92307 0.0
C19 C 0.07552 0.39328 0.0467 0.0
O20 O 0.15555 0.38926 0.11268 0.0
O21 O 0.14299 0.28662 0.08672 0.0
O22 O 0.27612 0.5903 0.10261 0.0
O23 O 0.15453 0.52188 0.10519 0.0
O24 O 0.33902 0.52214 0.07863 0.0
O25 O 0.26196 0.40532 0.07604 0.0
O26 O 0.25257 0.43891 1.01223 0.0
O27 O 0.24842 0.53732 0.03505 0.0
O28 O 0.10825 0.25531 1.0106 0.0
O29 O 0.22177 0.28236 0.02116 0.0
O30 O 0.05472 0.32295 0.04714 0.0
O31 O 0.14408 0.43133 0.04318 0.0
H32 H 0.33917 0.63247 0.15178 0.0
H33 H 0.10023 0.54371 0.15455 0.0
H34 H 0.10681 0.55817 0.20898 0.0
H35 H 0.34476 0.64675 0.20594 0.0
H36 H 0.05757 0.17678 0.96087 0.0
H37 H 0.29588 0.28561 0.97499 0.0
H38 H 0.31286 0.2606 0.92298 0.0
H39 H 0.07532 0.15233 0.90876 0.0
Gd40 Gd 0.73273 0.22089 0.41358 0.0
Gd41 Gd 0.82793 0.17554 0.37556 0.0
C42 C 0.8141 0.13581 0.44449 0.0
C43 C 0.63384 0.21719 0.44936 0.0
C44 C 0.62947 0.22094 0.48214 0.0
C45 C 0.6696 0.28949 0.49726 0.0
C46 C 0.58544 0.15565 0.4987 0.0
C47 C 0.62056 0.22755 0.54441 0.0
C48 C 0.58113 0.15896 0.52971 0.0
C49 C 0.6651 0.29263 0.52821 0.0
C50 C 0.87067 0.33079 0.40651 0.0
C51 C 0.75796 0.27106 0.34639 0.0
C52 C 0.91725 0.16452 0.33763 0.0
C53 C 0.93913 0.17692 0.30555 0.0
C54 C 0.91543 0.11552 0.28617 0.0
C55 C 0.98773 0.24883 0.29435 0.0
C56 C 0.98874 0.19742 0.24557 0.0
C57 C 0.01212 0.25889 0.26462 0.0
C58 C 0.93983 0.12571 0.25643 0.0
C59 C 0.67978 0.07755 0.37998 0.0
O60 O 0.76366 0.15706 0.44609 0.0
O61 O 0.85368 0.14411 0.42017 0.0
O62 O 0.68376 0.27818 0.43602 0.0
O63 O 0.63009 0.15663 0.4384 0.0
O64 O 0.81497 0.34063 0.41214 0.0
O65 O 0.85439 0.26325 0.40958 0.0
O66 O 0.81191 0.25447 0.34575 0.0
O67 O 0.7093 0.25061 0.36845 0.0
O68 O 0.85045 0.10977 0.34393 0.0
O69 O 0.93724 0.22287 0.35472 0.0
O70 O 0.72915 0.05648 0.38046 0.0
O71 O 0.71051 0.14608 0.37651 0.0
H72 H 0.70404 0.34092 0.48524 0.0
H73 H 0.55391 0.10218 0.48766 0.0
H74 H 0.5459 0.10833 0.5421 0.0
H75 H 0.69523 0.34607 0.53942 0.0
H76 H 0.87883 0.05934 0.29415 0.0
H77 H 0.00782 0.29735 0.30861 0.0
H78 H 0.04996 0.31475 0.2566 0.0
H79 H 0.92117 0.07751 0.24205 0.0
Gd80 Gd 0.50946 0.73254 0.74677 0.0
Gd81 Gd 0.64988 0.82838 0.70882 0.0
C82 C 0.676 0.81461 0.77771 0.0
C83 C 0.41478 0.63341 0.78256 0.0
C84 C 0.4063 0.6294 0.81533 0.0
C85 C 0.37811 0.67003 0.83026 0.0
C86 C 0.42698 0.58517 0.83206 0.0
C87 C 0.38991 0.62092 0.87757 0.0
C88 C 0.41892 0.58106 0.86306 0.0
C89 C 0.37002 0.66573 0.8612 0.0
C90 C 0.53647 0.87009 0.73986 0.0
C91 C 0.48435 0.7576 0.67958 0.0
C92 C 0.75005 0.91806 0.67096 0.0
C93 C 0.75955 0.9401 0.6389 0.0
C94 C 0.79741 0.9166 0.61948 0.0
C95 C 0.73611 0.98867 0.62777 0.0
C96 C 0.78863 0.98997 0.57897 0.0
C97 C 0.75042 0.01318 0.59807 0.0
C98 C 0.8116 0.94113 0.58977 0.0
C99 C 0.60065 0.68049 0.71316 0.0
O100 O 0.6044 0.76393 0.77928 0.0
O101 O 0.70711 0.8543 0.75341 0.0
O102 O 0.40281 0.68244 0.76897 0.0
O103 O 0.47232 0.63054 0.77185 0.0
O104 O 0.47112 0.81416 0.74548 0.0
O105 O 0.58811 0.85425 0.74288 0.0
O106 O 0.55471 0.81189 0.67901 0.0
O107 O 0.45642 0.70885 0.70161 0.0
O108 O 0.73835 0.85139 0.67719 0.0
O109 O 0.71139 0.9377 0.68808 0.0
O110 O 0.671 0.73011 0.71371 0.0
O111 O 0.5625 0.71087 0.7097 0.0
H112 H 0.36163 0.70469 0.81811 0.0
H113 H 0.44877 0.5533 0.82116 0.0
H114 H 0.43386 0.54566 0.87558 0.0
H115 H 0.34685 0.69621 0.87225 0.0
H116 H 0.81711 0.88005 0.62741 0.0
H117 H 0.70758 0.00862 0.64207 0.0
H118 H 0.73229 0.05098 0.59011 0.0
H119 H 0.84124 0.92261 0.57536 0.0
Gd120 Gd 0.77235 0.51083 0.08039 0.0
Gd121 Gd 0.81778 0.65118 0.04224 0.0
C122 C 0.85786 0.67744 0.11115 0.0
C123 C 0.77645 0.41584 0.11606 0.0
C124 C 0.77274 0.40753 0.14883 0.0
C125 C 0.70414 0.37891 0.16398 0.0
C126 C 0.83813 0.42876 0.16534 0.0
C127 C 0.76623 0.39156 0.21107 0.0
C128 C 0.83487 0.42091 0.19634 0.0
C129 C 0.70105 0.37104 0.19492 0.0
C130 C 0.66256 0.53914 0.07357 0.0
C131 C 0.7213 0.48564 1.01325 0.0
C132 C 0.82903 0.75136 1.00428 0.0
C133 C 0.81674 0.76069 0.97218 0.0
C134 C 0.87828 0.79835 0.95284 0.0
C135 C 0.7448 0.73723 0.96093 0.0
C136 C 0.79643 0.78947 0.91217 0.0
C137 C 0.73484 0.7514 0.93119 0.0
C138 C 0.86818 0.8124 0.92308 0.0
C139 C 0.91551 0.60067 0.04654 0.0
O140 O 0.83655 0.60579 0.1128 0.0
O141 O 0.84944 0.70853 0.08682 0.0
O142 O 0.71531 0.40458 0.10276 0.0
O143 O 0.83695 0.47282 0.10514 0.0
O144 O 0.65254 0.47372 0.07944 0.0
O145 O 0.7303 0.59026 0.07638 0.0
O146 O 0.73829 0.55623 1.01256 0.0
O147 O 0.74174 0.45742 0.0353 0.0
O148 O 0.88379 0.73934 1.01063 0.0
O149 O 0.77056 0.71309 0.02135 0.0
O150 O 0.93682 0.67111 0.04698 0.0
O151 O 0.84687 0.56302 0.04319 0.0
H152 H 0.65264 0.36194 0.152 0.0
H153 H 0.89163 0.45084 0.15427 0.0
H154 H 0.88558 0.4363 0.20869 0.0
H155 H 0.64758 0.34758 0.20615 0.0
H156 H 0.93448 0.81802 0.96085 0.0
H157 H 0.69618 0.70881 0.97517 0.0
H158 H 0.67895 0.7333 0.92313 0.0
H159 H 0.91647 0.84192 0.90872 0.0
Gd160 Gd 0.26052 0.77474 0.41356 0.0
Gd161 Gd 0.16429 0.81882 0.37556 0.0
C162 C 0.17793 0.85871 0.44448 0.0
C163 C 0.36016 0.7798 0.44922 0.0
C164 C 0.36438 0.77524 0.48197 0.0
C165 C 0.32365 0.70647 0.49687 0.0
C166 C 0.40895 0.84006 0.49871 0.0
C167 C 0.37323 0.76724 0.54418 0.0
C168 C 0.41324 0.83605 0.52969 0.0
C169 C 0.32814 0.70263 0.5278 0.0
C170 C 0.12282 0.66413 0.40681 0.0
C171 C 0.23511 0.72398 0.3464 0.0
C172 C 0.07441 0.82903 0.33773 0.0
C173 C 0.05283 0.81713 0.30561 0.0
C174 C 0.07669 0.8788 0.28638 0.0
C175 C 0.00423 0.74539 0.29426 0.0
C176 C 0.00359 0.79744 0.24561 0.0
C177 C 0.98004 0.73573 0.26453 0.0
C178 C 0.05248 0.86901 0.25663 0.0
C179 C 0.31231 0.91758 0.37978 0.0
O180 O 0.22893 0.83819 0.44604 0.0
O181 O 0.1381 0.84982 0.4202 0.0
O182 O 0.31129 0.71874 0.4356 0.0
O183 O 0.36254 0.84001 0.43862 0.0
O184 O 0.17876 0.65479 0.41255 0.0
O185 O 0.13873 0.73161 0.40969 0.0
O186 O 0.18086 0.74013 0.34577 0.0
O187 O 0.28393 0.74492 0.36841 0.0
O188 O 0.14075 0.88432 0.34422 0.0
O189 O 0.05511 0.77043 0.35457 0.0
O190 O 0.26261 0.93822 0.38028 0.0
O191 O 0.28193 0.84905 0.3764 0.0
H192 H 0.28873 0.6554 0.48472 0.0
H193 H 0.4409 0.89367 0.48782 0.0
H194 H 0.44886 0.88632 0.54223 0.0
H195 H 0.29754 0.64902 0.53883 0.0
H196 H 0.11326 0.93487 0.29448 0.0
H197 H 0.98398 0.69668 0.30841 0.0
H198 H 0.9422 0.67999 0.25639 0.0
H199 H 0.07126 0.91739 0.24236 0.0
Gd200 Gd 0.48288 0.26044 0.74698 0.0
Gd201 Gd 0.34265 0.16544 0.70886 0.0
C202 C 0.31613 0.179 0.77775 0.0
C203 C 0.57771 0.35922 0.78284 0.0
C204 C 0.58547 0.3639 0.81564 0.0
C205 C 0.61447 0.32452 0.83092 0.0
C206 C 0.56345 0.40761 0.83204 0.0
C207 C 0.60063 0.3736 0.87792 0.0
C208 C 0.5709 0.41231 0.86306 0.0
C209 C 0.62192 0.3294 0.86187 0.0
C210 C 0.4552 0.12272 0.73984 0.0
C211 C 0.50841 0.2355 0.6798 0.0
C212 C 0.24238 0.07624 0.67094 0.0
C213 C 0.23269 0.05422 0.63888 0.0
C214 C 0.19472 0.07775 0.61957 0.0
C215 C 0.25601 0.00562 0.62765 0.0
C216 C 0.20312 0.00431 0.57896 0.0
C217 C 0.24145 0.98108 0.59795 0.0
C218 C 0.18028 0.0532 0.58986 0.0
C219 C 0.39266 0.31347 0.71332 0.0
O220 O 0.3878 0.22941 0.77941 0.0
O221 O 0.2851 0.13952 0.7534 0.0
O222 O 0.58874 0.30903 0.7697 0.0
O223 O 0.52117 0.36317 0.77168 0.0
O224 O 0.52068 0.17843 0.74546 0.0
O225 O 0.40377 0.13885 0.74291 0.0
O226 O 0.43787 0.18162 0.67908 0.0
O227 O 0.53644 0.28399 0.70191 0.0
O228 O 0.25442 0.14301 0.67723 0.0
O229 O 0.28083 0.05628 0.68799 0.0
O230 O 0.32221 0.26414 0.71377 0.0
O231 O 0.43052 0.28275 0.70987 0.0
H232 H 0.63208 0.29038 0.81903 0.0
H233 H 0.54109 0.43861 0.82088 0.0
H234 H 0.55492 0.44729 0.87533 0.0
H235 H 0.64568 0.29983 0.8732 0.0
H236 H 0.17512 0.11433 0.62757 0.0
H237 H 0.28462 0.98564 0.64186 0.0
H238 H 0.25948 0.94324 0.58991 0.0
H239 H 0.15055 0.07174 0.57553 0.0
C240 C 0.242 0.65735 0.29795 0.0
C241 C 0.24354 0.68756 0.32099 0.0
C242 C 0.23634 0.63109 0.26869 0.0
C243 C 0.23129 0.61806 0.24244 0.0
C244 C 0.58197 0.24256 0.63132 0.0
C245 C 0.55328 0.24397 0.65438 0.0
C246 C 0.60257 0.23717 0.60203 0.0
C247 C 0.61053 0.23239 0.57576 0.0
C248 C 0.33519 0.58268 0.9644 0.0
C249 C 0.30516 0.5541 0.98748 0.0
C250 C 0.36139 0.60318 0.93513 0.0
C251 C 0.3745 0.61108 0.90888 0.0
C252 C 0.75116 0.33749 0.2979 0.0
C253 C 0.74965 0.30741 0.32095 0.0
C254 C 0.75664 0.36358 0.26864 0.0
C255 C 0.76144 0.3765 0.24239 0.0
C256 C 0.41125 0.75056 0.63101 0.0
C257 C 0.43967 0.74904 0.65411 0.0
C258 C 0.39093 0.75635 0.60173 0.0
C259 C 0.38306 0.76163 0.57549 0.0
C260 C 0.65426 0.41248 0.96481 0.0
C261 C 0.68458 0.44093 0.98786 0.0
C262 C 0.62811 0.39206 0.93553 0.0
C263 C 0.61533 0.38403 0.90927 0.0
C264 C 0.45706 0.47647 0.0584 0.0
C265 C 0.39173 0.4503 0.06368 0.0
C266 C 0.53549 0.51979 0.05848 0.0
C267 C 0.60071 0.54589 0.06394 0.0
C268 C 0.01483 0.53652 0.39239 0.0
C269 C 0.05412 0.60178 0.39763 0.0
C270 C 0.97932 0.45814 0.39234 0.0
C271 C 0.93976 0.39288 0.39751 0.0
C272 C 0.47417 0.01406 0.72591 0.0
C273 C 0.4484 0.05364 0.73098 0.0
C274 C 0.51701 0.97845 0.72592 0.0
C275 C 0.54291 0.93901 0.731 0.0
C276 C 0.52448 0.53515 0.71824 0.0
C277 C 0.56706 0.60132 0.71639 0.0
C278 C 0.46929 0.45885 0.71826 0.0
C279 C 0.4266 0.39269 0.71647 0.0
C280 C 0.00594 0.4692 0.05162 0.0
C281 C 0.02985 0.42685 0.04984 0.0
C282 C 0.9844 0.52407 0.05156 0.0
C283 C 0.96071 0.56659 0.04971 0.0
C284 C 0.4578 0.98711 0.38482 0.0
C285 C 0.39153 0.96327 0.38298 0.0
C286 C 0.53423 0.00855 0.38486 0.0
C287 C 0.60049 0.03222 0.3831 0.0
C288 C 0.24352 0.16894 0.82769 0.0
C289 C 0.27133 0.16902 0.8039 0.0
C290 C 0.22005 0.17704 0.85656 0.0
C291 C 0.20616 0.18834 0.88164 0.0
C292 C 0.04102 0.22228 0.19001 0.0
C293 C 0.01588 0.20843 0.2151 0.0
C294 C 0.07246 0.24553 0.16111 0.0
C295 C 0.09998 0.27309 0.13727 0.0
C296 C 0.81589 0.0423 0.52344 0.0
C297 C 0.80466 0.01715 0.54852 0.0
C298 C 0.82401 0.07369 0.49455 0.0
C299 C 0.824 0.10121 0.47071 0.0
C300 C 0.74827 0.8247 0.82772 0.0
C301 C 0.72062 0.82463 0.8039 0.0
C302 C 0.77162 0.81664 0.8566 0.0
C303 C 0.78551 0.80549 0.88169 0.0
C304 C 0.95161 0.77304 0.19004 0.0
C305 C 0.97668 0.78679 0.21513 0.0
C306 C 0.92019 0.74975 0.16115 0.0
C307 C 0.89258 0.7221 0.13733 0.0
C308 C 0.17554 0.95193 0.52344 0.0
C309 C 0.18688 0.97713 0.54851 0.0
C310 C 0.16744 0.92054 0.49454 0.0
C311 C 0.16764 0.89309 0.4707 0.0
loop_
_geom_bond_atom_site_label_1
_geom_bond_atom_site_label_2
_geom_bond_distance
_geom_bond_site_symmetry_2
_ccdc_geom_bond_type
Gd0 C3 2.818 . S
Gd0 O20 2.377 . S
Gd0 O22 2.448 . S
Gd0 O23 2.506 . S
Gd0 O24 2.435 . S
Gd0 O25 2.717 . S
Gd0 O27 2.395 . S
Gd0 O31 2.327 . S
Gd1 C12 2.818 1_554 S
Gd1 O21 2.395 . S
Gd1 O25 2.327 . S
Gd1 O26 2.377 1_554 S
Gd1 O28 2.448 1_554 S
Gd1 O29 2.506 1_554 S
Gd1 O30 2.435 . S
Gd1 O31 2.717 . S
C2 O20 1.240 . S
C2 O21 1.240 . S
C3 Gd0 2.818 . S
C3 C4 1.510 . S
C3 O22 1.249 . S
C3 O23 1.252 . S
C4 C3 1.510 . S
C4 C5 1.404 . S
C4 C6 1.352 . S
C5 C4 1.404 . S
C5 C9 1.389 . S
C5 H32 0.930 . S
C6 C4 1.352 . S
C6 C8 1.374 . S
C6 H33 0.931 . S
C7 C8 1.359 . S
C7 C9 1.364 . S
C8 C6 1.374 . S
C8 C7 1.359 . S
C8 H34 0.931 . S
C9 C5 1.389 . S
C9 C7 1.364 . S
C9 H35 0.931 . S
C10 O24 1.256 . S
C10 O25 1.257 . S
C11 O26 1.240 . S
C11 O27 1.240 1_556 S
C12 Gd1 2.818 1_556 S
C12 C13 1.510 . S
C12 O28 1.249 . S
C12 O29 1.252 . S
C13 C12 1.510 . S
C13 C14 1.404 . S
C13 C15 1.352 . S
C14 C13 1.404 . S
C14 C18 1.389 . S
C14 H36 0.930 . S
C15 C13 1.352 . S
C15 C17 1.374 . S
C15 H37 0.931 . S
C16 C17 1.359 . S
C16 C18 1.364 . S
C17 C15 1.374 . S
C17 C16 1.359 . S
C17 H38 0.931 . S
C18 C14 1.389 . S
C18 C16 1.364 . S
C18 H39 0.931 . S
C19 O30 1.256 . S
C19 O31 1.257 . S
O20 Gd0 2.377 . S
O20 C2 1.240 . S
O21 Gd1 2.395 . S
O21 C2 1.240 . S
O22 Gd0 2.448 . S
O22 C3 1.249 . S
O23 Gd0 2.506 . S
O23 C3 1.252 . S
O24 Gd0 2.435 . S
O24 C10 1.256 . S
O25 Gd0 2.717 . S
O25 Gd1 2.327 . S
O25 C10 1.257 . S
O26 Gd1 2.377 1_556 S
O26 C11 1.240 . S
O27 Gd0 2.395 . S
O27 C11 1.240 1_554 S
O28 Gd1 2.448 1_556 S
O28 C12 1.249 . S
O29 Gd1 2.506 1_556 S
O29 C12 1.252 . S
O30 Gd1 2.435 . S
O30 C19 1.256 . S
O31 Gd0 2.327 . S
O31 Gd1 2.717 . S
O31 C19 1.257 . S
H32 C5 0.930 . S
H33 C6 0.931 . S
H34 C8 0.931 . S
H35 C9 0.931 . S
H36 C14 0.930 . S
H37 C15 0.931 . S
H38 C17 0.931 . S
H39 C18 0.931 . S
Gd40 C43 2.818 . S
Gd40 O60 2.377 . S
Gd40 O62 2.448 . S
Gd40 O63 2.506 . S
Gd40 O64 2.435 . S
Gd40 O65 2.717 . S
Gd40 O67 2.395 . S
Gd40 O71 2.327 . S
Gd41 C52 2.818 . S
Gd41 O61 2.395 . S
Gd41 O65 2.327 . S
Gd41 O66 2.377 . S
Gd41 O68 2.448 . S
Gd41 O69 2.506 . S
Gd41 O70 2.435 . S
Gd41 O71 2.717 . S
C42 O60 1.240 . S
C42 O61 1.240 . S
C43 Gd40 2.818 . S
C43 C44 1.510 . S
C43 O62 1.249 . S
C43 O63 1.252 . S
C44 C43 1.510 . S
C44 C45 1.404 . S
C44 C46 1.352 . S
C45 C44 1.404 . S
C45 C49 1.389 . S
C45 H72 0.930 . S
C46 C44 1.352 . S
C46 C48 1.374 . S
C46 H73 0.931 . S
C47 C48 1.359 . S
C47 C49 1.364 . S
C48 C46 1.374 . S
C48 C47 1.359 . S
C48 H74 0.931 . S
C49 C45 1.389 . S
C49 C47 1.364 . S
C49 H75 0.931 . S
C50 O64 1.256 . S
C50 O65 1.257 . S
C51 O66 1.240 . S
C51 O67 1.240 . S
C52 Gd41 2.818 . S
C52 C53 1.510 . S
C52 O68 1.249 . S
C52 O69 1.252 . S
C53 C52 1.510 . S
C53 C54 1.404 . S
C53 C55 1.352 . S
C54 C53 1.404 . S
C54 C58 1.389 . S
C54 H76 0.930 . S
C55 C53 1.352 . S
C55 C57 1.374 1_655 S
C55 H77 0.931 1_655 S
C56 C57 1.359 . S
C56 C58 1.364 1_455 S
C57 C55 1.374 1_455 S
C57 C56 1.359 . S
C57 H78 0.931 . S
C58 C54 1.389 . S
C58 C56 1.364 1_655 S
C58 H79 0.931 . S
C59 O70 1.256 . S
C59 O71 1.257 . S
O60 Gd40 2.377 . S
O60 C42 1.240 . S
O61 Gd41 2.395 . S
O61 C42 1.240 . S
O62 Gd40 2.448 . S
O62 C43 1.249 . S
O63 Gd40 2.506 . S
O63 C43 1.252 . S
O64 Gd40 2.435 . S
O64 C50 1.256 . S
O65 Gd40 2.717 . S
O65 Gd41 2.327 . S
O65 C50 1.257 . S
O66 Gd41 2.377 . S
O66 C51 1.240 . S
O67 Gd40 2.395 . S
O67 C51 1.240 . S
O68 Gd41 2.448 . S
O68 C52 1.249 . S
O69 Gd41 2.506 . S
O69 C52 1.252 . S
O70 Gd41 2.435 . S
O70 C59 1.256 . S
O71 Gd40 2.327 . S
O71 Gd41 2.717 . S
O71 C59 1.257 . S
H72 C45 0.930 . S
H73 C46 0.931 . S
H74 C48 0.931 . S
H75 C49 0.931 . S
H76 C54 0.930 . S
H77 C55 0.931 1_455 S
H78 C57 0.931 . S
H79 C58 0.931 . S
Gd80 C83 2.818 . S
Gd80 O100 2.377 . S
Gd80 O102 2.448 . S
Gd80 O103 2.506 . S
Gd80 O104 2.435 . S
Gd80 O105 2.717 . S
Gd80 O107 2.395 . S
Gd80 O111 2.327 . S
Gd81 C92 2.818 . S
Gd81 O101 2.395 . S
Gd81 O105 2.327 . S
Gd81 O106 2.377 . S
Gd81 O108 2.448 . S
Gd81 O109 2.506 . S
Gd81 O110 2.435 . S
Gd81 O111 2.717 . S
C82 O100 1.240 . S
C82 O101 1.240 . S
C83 Gd80 2.818 . S
C83 C84 1.510 . S
C83 O102 1.249 . S
C83 O103 1.252 . S
C84 C83 1.510 . S
C84 C85 1.404 . S
C84 C86 1.352 . S
C85 C84 1.404 . S
C85 C89 1.389 . S
C85 H112 0.930 . S
C86 C84 1.352 . S
C86 C88 1.374 . S
C86 H113 0.931 . S
C87 C88 1.359 . S
C87 C89 1.364 . S
C88 C86 1.374 . S
C88 C87 1.359 . S
C88 H114 0.931 . S
C89 C85 1.389 . S
C89 C87 1.364 . S
C89 H115 0.931 . S
C90 O104 1.256 . S
C90 O105 1.257 . S
C91 O106 1.240 . S
C91 O107 1.240 . S
C92 Gd81 2.818 . S
C92 C93 1.510 . S
C92 O108 1.249 . S
C92 O109 1.252 . S
C93 C92 1.510 . S
C93 C94 1.404 . S
C93 C95 1.352 . S
C94 C93 1.404 . S
C94 C98 1.389 . S
C94 H116 0.930 . S
C95 C93 1.352 . S
C95 C97 1.374 1_565 S
C95 H117 0.931 1_565 S
C96 C97 1.359 . S
C96 C98 1.364 1_545 S
C97 C95 1.374 1_545 S
C97 C96 1.359 . S
C97 H118 0.931 . S
C98 C94 1.389 . S
C98 C96 1.364 1_565 S
C98 H119 0.931 . S
C99 O110 1.256 . S
C99 O111 1.257 . S
O100 Gd80 2.377 . S
O100 C82 1.240 . S
O101 Gd81 2.395 . S
O101 C82 1.240 . S
O102 Gd80 2.448 . S
O102 C83 1.249 . S
O103 Gd80 2.506 . S
O103 C83 1.252 . S
O104 Gd80 2.435 . S
O104 C90 1.256 . S
O105 Gd80 2.717 . S
O105 Gd81 2.327 . S
O105 C90 1.257 . S
O106 Gd81 2.377 . S
O106 C91 1.240 . S
O107 Gd80 2.395 . S
O107 C91 1.240 . S
O108 Gd81 2.448 . S
O108 C92 1.249 . S
O109 Gd81 2.506 . S
O109 C92 1.252 . S
O110 Gd81 2.435 . S
O110 C99 1.256 . S
O111 Gd80 2.327 . S
O111 Gd81 2.717 . S
O111 C99 1.257 . S
H112 C85 0.930 . S
H113 C86 0.931 . S
H114 C88 0.931 . S
H115 C89 0.931 . S
H116 C94 0.930 . S
H117 C95 0.931 1_545 S
H118 C97 0.931 . S
H119 C98 0.931 . S
Gd120 C123 2.818 . S
Gd120 O140 2.377 . S
Gd120 O142 2.448 . S
Gd120 O143 2.506 . S
Gd120 O144 2.435 . S
Gd120 O145 2.717 . S
Gd120 O147 2.395 . S
Gd120 O151 2.327 . S
Gd121 C132 2.818 1_554 S
Gd121 O141 2.395 . S
Gd121 O145 2.327 . S
Gd121 O146 2.377 1_554 S
Gd121 O148 2.448 1_554 S
Gd121 O149 2.506 1_554 S
Gd121 O150 2.435 . S
Gd121 O151 2.717 . S
C122 O140 1.240 . S
C122 O141 1.240 . S
C123 Gd120 2.818 . S
C123 C124 1.510 . S
C123 O142 1.249 . S
C123 O143 1.252 . S
C124 C123 1.510 . S
C124 C125 1.404 . S
C124 C126 1.352 . S
C125 C124 1.404 . S
C125 C129 1.389 . S
C125 H152 0.930 . S
C126 C124 1.352 . S
C126 C128 1.374 . S
C126 H153 0.931 . S
C127 C128 1.359 . S
C127 C129 1.364 . S
C128 C126 1.374 . S
C128 C127 1.359 . S
C128 H154 0.931 . S
C129 C125 1.389 . S
C129 C127 1.364 . S
C129 H155 0.931 . S
C130 O144 1.256 . S
C130 O145 1.257 . S
C131 O146 1.240 . S
C131 O147 1.240 1_556 S
C132 Gd121 2.818 1_556 S
C132 C133 1.510 . S
C132 O148 1.249 . S
C132 O149 1.252 . S
C133 C132 1.510 . S
C133 C134 1.404 . S
C133 C135 1.352 . S
C134 C133 1.404 . S
C134 C138 1.389 . S
C134 H156 0.930 . S
C135 C133 1.352 . S
C135 C137 1.374 . S
C135 H157 0.931 . S
C136 C137 1.359 . S
C136 C138 1.364 . S
C137 C135 1.374 . S
C137 C136 1.359 . S
C137 H158 0.931 . S
C138 C134 1.389 . S
C138 C136 1.364 . S
C138 H159 0.931 . S
C139 O150 1.256 . S
C139 O151 1.257 . S
O140 Gd120 2.377 . S
O140 C122 1.240 . S
O141 Gd121 2.395 . S
O141 C122 1.240 . S
O142 Gd120 2.448 . S
O142 C123 1.249 . S
O143 Gd120 2.506 . S
O143 C123 1.252 . S
O144 Gd120 2.435 . S
O144 C130 1.256 . S
O145 Gd120 2.717 . S
O145 Gd121 2.327 . S
O145 C130 1.257 . S
O146 Gd121 2.377 1_556 S
O146 C131 1.240 . S
O147 Gd120 2.395 . S
O147 C131 1.240 1_554 S
O148 Gd121 2.448 1_556 S
O148 C132 1.249 . S
O149 Gd121 2.506 1_556 S
O149 C132 1.252 . S
O150 Gd121 2.435 . S
O150 C139 1.256 . S
O151 Gd120 2.327 . S
O151 Gd121 2.717 . S
O151 C139 1.257 . S
H152 C125 0.930 . S
H153 C126 0.931 . S
H154 C128 0.931 . S
H155 C129 0.931 . S
H156 C134 0.930 . S
H157 C135 0.931 . S
H158 C137 0.931 . S
H159 C138 0.931 . S
Gd160 C163 2.818 . S
Gd160 O180 2.377 . S
Gd160 O182 2.448 . S
Gd160 O183 2.506 . S
Gd160 O184 2.435 . S
Gd160 O185 2.717 . S
Gd160 O187 2.395 . S
Gd160 O191 2.327 . S
Gd161 C172 2.818 . S
Gd161 O181 2.395 . S
Gd161 O185 2.327 . S
Gd161 O186 2.377 . S
Gd161 O188 2.448 . S
Gd161 O189 2.506 . S
Gd161 O190 2.435 . S
Gd161 O191 2.717 . S
C162 O180 1.240 . S
C162 O181 1.240 . S
C163 Gd160 2.818 . S
C163 C164 1.510 . S
C163 O182 1.249 . S
C163 O183 1.252 . S
C164 C163 1.510 . S
C164 C165 1.404 . S
C164 C166 1.352 . S
C165 C164 1.404 . S
C165 C169 1.389 . S
C165 H192 0.930 . S
C166 C164 1.352 . S
C166 C168 1.374 . S
C166 H193 0.931 . S
C167 C168 1.359 . S
C167 C169 1.364 . S
C168 C166 1.374 . S
C168 C167 1.359 . S
C168 H194 0.931 . S
C169 C165 1.389 . S
C169 C167 1.364 . S
C169 H195 0.931 . S
C170 O184 1.256 . S
C170 O185 1.257 . S
C171 O186 1.240 . S
C171 O187 1.240 . S
C172 Gd161 2.818 . S
C172 C173 1.510 . S
C172 O188 1.249 . S
C172 O189 1.252 . S
C173 C172 1.510 . S
C173 C174 1.404 . S
C173 C175 1.352 . S
C174 C173 1.404 . S
C174 C178 1.389 . S
C174 H196 0.930 . S
C175 C173 1.352 . S
C175 C177 1.374 1_455 S
C175 H197 0.931 1_455 S
C176 C177 1.359 . S
C176 C178 1.364 1_655 S
C177 C175 1.374 1_655 S
C177 C176 1.359 . S
C177 H198 0.931 . S
C178 C174 1.389 . S
C178 C176 1.364 1_455 S
C178 H199 0.931 . S
C179 O190 1.256 . S
C179 O191 1.257 . S
O180 Gd160 2.377 . S
O180 C162 1.240 . S
O181 Gd161 2.395 . S
O181 C162 1.240 . S
O182 Gd160 2.448 . S
O182 C163 1.249 . S
O183 Gd160 2.506 . S
O183 C163 1.252 . S
O184 Gd160 2.435 . S
O184 C170 1.256 . S
O185 Gd160 2.717 . S
O185 Gd161 2.327 . S
O185 C170 1.257 . S
O186 Gd161 2.377 . S
O186 C171 1.240 . S
O187 Gd160 2.395 . S
O187 C171 1.240 . S
O188 Gd161 2.448 . S
O188 C172 1.249 . S
O189 Gd161 2.506 . S
O189 C172 1.252 . S
O190 Gd161 2.435 . S
O190 C179 1.256 . S
O191 Gd160 2.327 . S
O191 Gd161 2.717 . S
O191 C179 1.257 . S
H192 C165 0.930 . S
H193 C166 0.931 . S
H194 C168 0.931 . S
H195 C169 0.931 . S
H196 C174 0.930 . S
H197 C175 0.931 1_655 S
H198 C177 0.931 . S
H199 C178 0.931 . S
Gd200 C203 2.818 . S
Gd200 O220 2.377 . S
Gd200 O222 2.448 . S
Gd200 O223 2.506 . S
Gd200 O224 2.435 . S
Gd200 O225 2.717 . S
Gd200 O227 2.395 . S
Gd200 O231 2.327 . S
Gd201 C212 2.818 . S
Gd201 O221 2.395 . S
Gd201 O225 2.327 . S
Gd201 O226 2.377 . S
Gd201 O228 2.448 . S
Gd201 O229 2.506 . S
Gd201 O230 2.435 . S
Gd201 O231 2.717 . S
C202 O220 1.240 . S
C202 O221 1.240 . S
C203 Gd200 2.818 . S
C203 C204 1.510 . S
C203 O222 1.249 . S
C203 O223 1.252 . S
C204 C203 1.510 . S
C204 C205 1.404 . S
C204 C206 1.352 . S
C205 C204 1.404 . S
C205 C209 1.389 . S
C205 H232 0.930 . S
C206 C204 1.352 . S
C206 C208 1.374 . S
C206 H233 0.931 . S
C207 C208 1.359 . S
C207 C209 1.364 . S
C208 C206 1.374 . S
C208 C207 1.359 . S
C208 H234 0.931 . S
C209 C205 1.389 . S
C209 C207 1.364 . S
C209 H235 0.931 . S
C210 O224 1.256 . S
C210 O225 1.257 . S
C211 O226 1.240 . S
C211 O227 1.240 . S
C212 Gd201 2.818 . S
C212 C213 1.510 . S
C212 O228 1.249 . S
C212 O229 1.252 . S
C213 C212 1.510 . S
C213 C214 1.404 . S
C213 C215 1.352 . S
C214 C213 1.404 . S
C214 C218 1.389 . S
C214 H236 0.930 . S
C215 C213 1.352 . S
C215 C217 1.374 1_545 S
C215 H237 0.931 1_545 S
C216 C217 1.359 . S
C216 C218 1.364 1_565 S
C217 C215 1.374 1_565 S
C217 C216 1.359 . S
C217 H238 0.931 . S
C218 C214 1.389 . S
C218 C216 1.364 1_545 S
C218 H239 0.931 . S
C219 O230 1.256 . S
C219 O231 1.257 . S
O220 Gd200 2.377 . S
O220 C202 1.240 . S
O221 Gd201 2.395 . S
O221 C202 1.240 . S
O222 Gd200 2.448 . S
O222 C203 1.249 . S
O223 Gd200 2.506 . S
O223 C203 1.252 . S
O224 Gd200 2.435 . S
O224 C210 1.256 . S
O225 Gd200 2.717 . S
O225 Gd201 2.327 . S
O225 C210 1.257 . S
O226 Gd201 2.377 . S
O226 C211 1.240 . S
O227 Gd200 2.395 . S
O227 C211 1.240 . S
O228 Gd201 2.448 . S
O228 C212 1.249 . S
O229 Gd201 2.506 . S
O229 C212 1.252 . S
O230 Gd201 2.435 . S
O230 C219 1.256 . S
O231 Gd200 2.327 . S
O231 Gd201 2.717 . S
O231 C219 1.257 . S
H232 C205 0.930 . S
H233 C206 0.931 . S
H234 C208 0.931 . S
H235 C209 0.931 . S
H236 C214 0.930 . S
H237 C215 0.931 1_565 S
H238 C217 0.931 . S
H239 C218 0.931 . S
C240 C241 1.170 . S
C240 C242 1.380 . S
C241 C240 1.170 . S
C242 C240 1.380 . S
C242 C243 1.170 . S
C243 C242 1.170 . S
C244 C245 1.170 . S
C244 C246 1.380 . S
C245 C244 1.170 . S
C246 C244 1.380 . S
C246 C247 1.170 . S
C247 C246 1.170 . S
C248 C249 1.170 . S
C248 C250 1.380 . S
C249 C248 1.170 . S
C250 C248 1.380 . S
C250 C251 1.170 . S
C251 C250 1.170 . S
C252 C253 1.170 . S
C252 C254 1.380 . S
C253 C252 1.170 . S
C254 C252 1.380 . S
C254 C255 1.170 . S
C255 C254 1.170 . S
C256 C257 1.170 . S
C256 C258 1.380 . S
C257 C256 1.170 . S
C258 C256 1.380 . S
C258 C259 1.170 . S
C259 C258 1.170 . S
C260 C261 1.170 . S
C260 C262 1.380 . S
C261 C260 1.170 . S
C262 C260 1.380 . S
C262 C263 1.170 . S
C263 C262 1.170 . S
C264 C265 1.170 . S
C264 C266 1.380 . S
C265 C264 1.170 . S
C266 C264 1.380 . S
C266 C267 1.170 . S
C267 C266 1.170 . S
C268 C269 1.170 . S
C268 C270 1.380 1_455 S
C269 C268 1.170 . S
C270 C268 1.380 1_655 S
C270 C271 1.170 . S
C271 C270 1.170 . S
C272 C273 1.170 . S
C272 C274 1.380 1_545 S
C273 C272 1.170 . S
C274 C272 1.380 1_565 S
C274 C275 1.170 . S
C275 C274 1.170 . S
C276 C277 1.170 . S
C276 C278 1.380 . S
C277 C276 1.170 . S
C278 C276 1.380 . S
C278 C279 1.170 . S
C279 C278 1.170 . S
C280 C281 1.170 . S
C280 C282 1.380 1_455 S
C281 C280 1.170 . S
C282 C280 1.380 1_655 S
C282 C283 1.170 . S
C283 C282 1.170 . S
C284 C285 1.170 . S
C284 C286 1.380 1_565 S
C285 C284 1.170 . S
C286 C284 1.380 1_545 S
C286 C287 1.170 . S
C287 C286 1.170 . S
C288 C289 1.170 . S
C288 C290 1.380 . S
C289 C288 1.170 . S
C290 C288 1.380 . S
C290 C291 1.170 . S
C291 C290 1.170 . S
C292 C293 1.170 . S
C292 C294 1.380 . S
C293 C292 1.170 . S
C294 C292 1.380 . S
C294 C295 1.170 . S
C295 C294 1.170 . S
C296 C297 1.170 . S
C296 C298 1.380 . S
C297 C296 1.170 . S
C298 C296 1.380 . S
C298 C299 1.170 . S
C299 C298 1.170 . S
C300 C301 1.170 . S
C300 C302 1.380 . S
C301 C300 1.170 . S
C302 C300 1.380 . S
C302 C303 1.170 . S
C303 C302 1.170 . S
C304 C305 1.170 . S
C304 C306 1.380 . S
C305 C304 1.170 . S
C306 C304 1.380 . S
C306 C307 1.170 . S
C307 C306 1.170 . S
C308 C309 1.170 . S
C308 C310 1.380 . S
C309 C308 1.170 . S
C310 C308 1.380 . S
C310 C311 1.170 . S
C311 C310 1.170 . S
C241 C171 1.227 . S
C243 C7 1.223 . S
C245 C211 1.224 . S
C247 C47 1.225 . S
C249 C11 1.223 . S
C251 C87 1.225 . S
C253 C51 1.226 . S
C255 C127 1.224 . S
C257 C91 1.212 . S
C259 C167 1.230 . S
C261 C131 1.227 . S
C263 C207 1.221 . S
C265 C10 1.224 . S
C267 C130 1.240 . S
C269 C170 1.200 . S
C271 C50 1.277 . S
C273 C210 1.274 . S
C275 C90 1.208 . S
C277 C99 1.452 . S
C279 C219 1.436 . S
C281 C19 1.454 . S
C283 C139 1.430 . S
C285 C179 1.454 . S
C287 C59 1.429 . S
C289 C202 1.386 . S
C291 C16 1.356 . S
C293 C56 1.322 . S
C295 C2 1.397 . S
C297 C96 1.331 . S
C299 C42 1.394 . S
C301 C82 1.397 . S
C303 C136 1.323 . S
C305 C176 1.365 . S
C307 C122 1.383 . S
C309 C216 1.346 . S
C311 C162 1.389 . S
