# Generated by pormake.
# Topology snk, (6)-cn, num edge types: 1
# Building blocks:
#     Node 0, Type 0, BuildingBlock: KUMBOL_clean_sbu_1, # of connection points: 6
#     Node 1, Type 0, BuildingBlock: KUMBOL_clean_sbu_1, # of connection points: 6
#     Node 2, Type 0, BuildingBlock: KUMBOL_clean_sbu_1, # of connection points: 6
#     Node 3, Type 0, BuildingBlock: KUMBOL_clean_sbu_1, # of connection points: 6
#     Node 4, Type 0, BuildingBlock: KUMBOL_clean_sbu_1, # of connection points: 6
#     Node 5, Type 0, BuildingBlock: KUMBOL_clean_sbu_1, # of connection points: 6
#     Node 6, Type 0, BuildingBlock: KUMBOL_clean_sbu_1, # of connection points: 6
#     Node 7, Type 0, BuildingBlock: KUMBOL_clean_sbu_1, # of connection points: 6
#     Edge 8, Type (0, 0), BuildingBlock: XUDNAN_clean_linker_2, # of connection points: 2
#     Edge 9, Type (0, 0), BuildingBlock: XUDNAN_clean_linker_2, # of connection points: 2
#     Edge 10, Type (0, 0), BuildingBlock: XUDNAN_clean_linker_2, # of connection points: 2
#     Edge 11, Type (0, 0), BuildingBlock: XUDNAN_clean_linker_2, # of connection points: 2
#     Edge 12, Type (0, 0), BuildingBlock: XUDNAN_clean_linker_2, # of connection points: 2
#     Edge 13, Type (0, 0), BuildingBlock: XUDNAN_clean_linker_2, # of connection points: 2
#     Edge 14, Type (0, 0), BuildingBlock: XUDNAN_clean_linker_2, # of connection points: 2
#     Edge 15, Type (0, 0), BuildingBlock: XUDNAN_clean_linker_2, # of connection points: 2
#     Edge 16, Type (0, 0), BuildingBlock: XUDNAN_clean_linker_2, # of connection points: 2
#     Edge 17, Type (0, 0), BuildingBlock: XUDNAN_clean_linker_2, # of connection points: 2
#     Edge 18, Type (0, 0), BuildingBlock: XUDNAN_clean_linker_2, # of connection points: 2
#     Edge 19, Type (0, 0), BuildingBlock: XUDNAN_clean_linker_2, # of connection points: 2
#     Edge 20, Type (0, 0), BuildingBlock: XUDNAN_clean_linker_2, # of connection points: 2
#     Edge 21, Type (0, 0), BuildingBlock: XUDNAN_clean_linker_2, # of connection points: 2
#     Edge 22, Type (0, 0), BuildingBlock: XUDNAN_clean_linker_2, # of connection points: 2
#     Edge 23, Type (0, 0), BuildingBlock: XUDNAN_clean_linker_2, # of connection points: 2
#     Edge 24, Type (0, 0), BuildingBlock: XUDNAN_clean_linker_2, # of connection points: 2
#     Edge 25, Type (0, 0), BuildingBlock: XUDNAN_clean_linker_2, # of connection points: 2
#     Edge 26, Type (0, 0), BuildingBlock: XUDNAN_clean_linker_2, # of connection points: 2
#     Edge 27, Type (0, 0), BuildingBlock: XUDNAN_clean_linker_2, # of connection points: 2
#     Edge 28, Type (0, 0), BuildingBlock: XUDNAN_clean_linker_2, # of connection points: 2
#     Edge 29, Type (0, 0), BuildingBlock: XUDNAN_clean_linker_2, # of connection points: 2
#     Edge 30, Type (0, 0), BuildingBlock: XUDNAN_clean_linker_2, # of connection points: 2
#     Edge 31, Type (0, 0), BuildingBlock: XUDNAN_clean_linker_2, # of connection points: 2
# Relax obj value: 0.007
# Max RMSD: 0.070
# Mean RMSD: 0.069
data_MOF--net-snk--node1-KUMBOL_clean_sbu_1--edge1-XUDNAN_clean_linker_2
_symmetry_space_group_name_H-M    P1
_symmetry_Int_Tables_number       1
_symmetry_cell_setting            triclinic
loop_
_symmetry_equiv_pos_as_xyz
'x, y, z'
_cell_length_a     38.321129
_cell_length_b     38.278487
_cell_length_c     24.684733
_cell_angle_alpha  90.310644
_cell_angle_beta   90.065199
_cell_angle_gamma 89.936645
loop_
_atom_site_label
_atom_site_type_symbol
_atom_site_fract_x
_atom_site_fract_y
_atom_site_fract_z
_atom_type_partial_charge
C0 C 0.96697 0.90638 0.44914 0.0
C1 C 0.90698 0.91438 0.41922 0.0
C2 C 0.94059 0.92787 0.42939 0.0
C3 C 0.90017 0.87895 0.429 0.0
C4 C 0.96036 0.87053 0.45745 0.0
C5 C 0.92679 0.85708 0.44797 0.0
N6 N 0.99919 0.92024 0.45875 0.0
C7 C 0.0267 0.89862 0.46961 0.0
C8 C 0.98791 0.84904 0.47386 0.0
C9 C 0.02135 0.86303 0.4789 0.0
Gd10 Gd 0.01232 0.0241 0.59025 0.0
Gd11 Gd 1.00427 0.98085 0.44271 0.0
N12 N 0.94754 0.96237 0.42197 0.0
C13 C 0.88113 0.93702 0.39986 0.0
C14 C 0.92271 0.98444 0.40207 0.0
C15 C 0.8891 0.97215 0.39097 0.0
H16 H 0.9289 0.01156 0.395 0.0
H17 H 0.86935 0.98976 0.37568 0.0
H18 H 0.07971 0.98486 0.65074 0.0
H19 H 0.05311 0.90816 0.4695 0.0
H20 H 0.1396 0.99954 0.68023 0.0
H21 H 0.855 0.92762 0.39151 0.0
H22 H 0.87444 0.86817 0.42174 0.0
H23 H 0.97474 0.10145 0.55387 0.0
H24 H 0.98392 0.82139 0.48066 0.0
H25 H 0.04319 0.84628 0.48886 0.0
H26 H 0.15093 0.12159 0.64007 0.0
H27 H 0.92124 0.82968 0.45455 0.0
H28 H 0.05304 0.18033 0.56128 0.0
H29 H 0.99291 0.16192 0.53884 0.0
N30 N 0.02512 0.08391 0.57832 0.0
C31 C 0.05747 0.09417 0.59506 0.0
C32 C 1.00157 0.10819 0.56088 0.0
C33 C 0.04542 0.15333 0.56682 0.0
C34 C 0.01155 0.14298 0.55371 0.0
C35 C 0.06868 0.12902 0.58875 0.0
H36 H 0.11159 0.16518 0.59999 0.0
N37 N 0.06854 0.03603 0.62275 0.0
C38 C 0.07968 0.06963 0.6183 0.0
C39 C 0.13535 0.0536 0.6571 0.0
C40 C 0.1136 0.07921 0.63482 0.0
C41 C 0.08933 0.01111 0.64539 0.0
C42 C 0.12308 0.01945 0.66265 0.0
O43 O 0.95943 0.976 0.5029 0.0
O44 O 0.98776 0.97067 0.58359 0.0
O45 O 0.01715 0.01935 0.67769 0.0
O46 O 0.97197 0.04472 0.64308 0.0
O47 O 0.98472 0.03623 0.44879 0.0
O48 O 0.96589 0.04016 0.53774 0.0
O49 O 0.05637 0.03299 0.53037 0.0
O50 O 0.03149 0.03349 0.44569 0.0
O51 O 0.99453 0.98978 0.35707 0.0
O52 O 0.03945 0.95974 0.38183 0.0
O53 O 0.03179 0.96871 0.58085 0.0
O54 O 0.0528 0.96877 0.49335 0.0
C55 C 0.96106 0.96365 0.55231 0.0
C56 C 0.96368 0.0489 0.48607 0.0
C57 C 0.96409 0.01325 0.72485 0.0
C58 C 0.95322 0.99322 0.81746 0.0
C59 C 0.91147 0.98075 0.74525 0.0
C60 C 0.9326 0.99796 0.70794 0.0
C61 C 0.92146 0.97855 0.79961 0.0
C62 C 0.97444 0.01033 0.77922 0.0
C63 C 0.98652 0.03262 0.68692 0.0
C64 C 0.1249 0.11378 0.62787 0.0
C65 C 0.10252 0.13859 0.60489 0.0
H66 H 0.1616 0.05993 0.67021 0.0
C67 C 0.05506 0.04457 0.48043 0.0
C68 C 0.05491 0.95894 0.54449 0.0
C69 C 0.01371 0.94584 0.29678 0.0
C70 C 1.00432 0.93616 0.19962 0.0
C71 C 0.00735 0.8869 0.26176 0.0
C72 C 0.01245 0.90968 0.30542 0.0
C73 C 1.00363 0.8999 0.20922 0.0
C74 C 0.00902 0.95888 0.24424 0.0
C75 C 0.02061 0.97064 0.34135 0.0
H76 H 0.88708 0.96924 0.73203 0.0
H77 H 0.92422 0.99947 0.6661 0.0
H78 H 0.90398 0.96575 0.82758 0.0
H79 H 0.99934 0.02127 0.7913 0.0
H80 H 0.00673 0.859 0.26855 0.0
H81 H 0.01569 0.89903 0.34566 0.0
H82 H 1.00081 0.88141 0.1762 0.0
H83 H 0.009 0.98691 0.2385 0.0
C84 C 0.36693 0.71941 0.68386 0.0
C85 C 0.36221 0.65871 0.6557 0.0
C86 C 0.34662 0.69116 0.66806 0.0
C87 C 0.3984 0.6546 0.66204 0.0
C88 C 0.40349 0.7158 0.6878 0.0
C89 C 0.41898 0.68306 0.67819 0.0
N90 N 0.35122 0.75089 0.69195 0.0
C91 C 0.37094 0.78033 0.69847 0.0
C92 C 0.42352 0.74548 0.69931 0.0
C93 C 0.40721 0.778 0.70365 0.0
Gd94 Gd 0.22934 0.74733 0.82247 0.0
Gd95 Gd 0.28984 0.75134 0.68541 0.0
N96 N 0.31156 0.69569 0.66348 0.0
C97 C 0.34101 0.63158 0.63631 0.0
C98 C 0.29103 0.67003 0.64171 0.0
C99 C 0.30535 0.63745 0.62851 0.0
H100 H 0.26355 0.67462 0.63516 0.0
H101 H 0.2889 0.61691 0.61239 0.0
H102 H 0.2173 0.83295 0.84228 0.0
H103 H 0.35878 0.80582 0.69908 0.0
H104 H 0.16831 0.87494 0.84691 0.0
H105 H 0.35202 0.60629 0.62623 0.0
H106 H 0.41082 0.62975 0.6534 0.0
H107 H 0.19236 0.6669 0.82329 0.0
H108 H 0.45167 0.74379 0.70273 0.0
H109 H 0.42259 0.80134 0.71019 0.0
H110 H 0.06661 0.80396 0.81933 0.0
H111 H 0.44698 0.67973 0.68158 0.0
H112 H 0.08204 0.68008 0.80627 0.0
H113 H 0.13354 0.64151 0.81423 0.0
N114 N 0.17465 0.71951 0.81678 0.0
C115 C 0.14652 0.7412 0.81568 0.0
C116 C 0.17016 0.6841 0.81872 0.0
C117 C 0.10785 0.69145 0.8095 0.0
C118 C 0.13685 0.66957 0.81396 0.0
C119 C 0.11235 0.72771 0.81166 0.0
H120 H 0.05734 0.74076 0.80836 0.0
N121 N 0.1848 0.78917 0.8274 0.0
C122 C 0.15168 0.77694 0.82208 0.0
C123 C 0.12913 0.83556 0.83304 0.0
C124 C 0.12293 0.79992 0.82425 0.0
C125 C 0.19097 0.82371 0.83745 0.0
C126 C 0.16329 0.84747 0.83985 0.0
O127 O 0.29371 0.70454 0.74027 0.0
O128 O 0.28559 0.728 0.82454 0.0
O129 O 0.23219 0.76788 0.90439 0.0
O130 O 0.22379 0.71258 0.89152 0.0
O131 O 0.23418 0.73172 0.68273 0.0
O132 O 0.22942 0.70227 0.76284 0.0
O133 O 0.20938 0.77991 0.75141 0.0
O134 O 0.25913 0.79956 0.70851 0.0
O135 O 0.26771 0.74679 0.6046 0.0
O136 O 0.31407 0.77773 0.61726 0.0
O137 O 0.26934 0.79026 0.82526 0.0
O138 O 0.3078 0.7899 0.75135 0.0
C139 C 0.2996 0.70438 0.79257 0.0
C140 C 0.22045 0.70666 0.71196 0.0
C141 C 0.20239 0.73788 0.97327 0.0
C142 C 0.19416 0.74321 0.07124 0.0
C143 C 0.1441 0.73649 1.01124 0.0
C144 C 0.1662 0.73512 0.96629 0.0
C145 C 0.15789 0.74056 0.06339 0.0
C146 C 0.21619 0.74193 0.02563 0.0
C147 C 0.22647 0.73781 0.92692 0.0
C148 C 0.089 0.78665 0.81825 0.0
C149 C 0.08373 0.75066 0.81183 0.0
H150 H 0.10772 0.85404 0.83505 0.0
C151 C 0.22543 0.80159 0.71829 0.0
C152 C 0.29738 0.80138 0.79961 0.0
C153 C 0.27846 0.79137 0.54121 0.0
C154 C 0.26054 0.80139 0.4474 0.0
C155 C 0.26129 0.84938 0.51259 0.0
C156 C 0.27343 0.82686 0.55283 0.0
C157 C 0.25487 0.83682 0.46018 0.0
C158 C 0.27193 0.77879 0.48865 0.0
C159 C 0.29102 0.76673 0.58244 0.0
H160 H 0.11616 0.73433 1.00566 0.0
H161 H 0.15504 0.73203 0.92637 0.0
H162 H 0.14021 0.7411 0.09758 0.0
H163 H 0.24418 0.74463 0.03069 0.0
H164 H 0.25732 0.87677 0.52184 0.0
H165 H 0.2792 0.83712 0.59269 0.0
H166 H 0.24637 0.85501 0.42941 0.0
H167 H 0.27583 0.75126 0.47994 0.0
C168 C 0.55112 0.10724 0.96275 0.0
C169 C 0.60942 0.09307 0.9315 0.0
C170 C 0.57444 0.08335 0.94059 0.0
C171 C 0.62088 0.12649 0.94711 0.0
C172 C 0.56223 0.14114 0.97704 0.0
C173 C 0.59732 0.1505 0.96967 0.0
N174 N 0.51752 0.09708 0.97086 0.0
C175 C 0.49309 0.12035 0.98885 0.0
C176 C 0.53765 0.16467 0.998 0.0
C177 C 0.50286 0.15433 1.00339 0.0
Gd178 Gd 0.49549 0.98403 0.08803 0.0
Gd179 Gd 0.50402 0.03916 0.94721 0.0
N180 N 0.56263 0.05108 0.92623 0.0
C181 C 0.63161 0.06922 0.90563 0.0
C182 C 0.58335 0.02895 0.8971 0.0
C183 C 0.61831 0.03733 0.88735 0.0
H184 H 0.57277 1.00512 0.88032 0.0
H185 H 0.63489 0.01941 0.86518 0.0
H186 H 0.41236 1.00183 0.11733 0.0
H187 H 0.46609 0.11272 0.9922 0.0
H188 H 0.35567 0.97074 0.12085 0.0
H189 H 0.65866 0.07568 0.89783 0.0
H190 H 0.64774 0.13428 0.94087 0.0
H191 H 0.55722 0.92196 0.09939 0.0
H192 H 0.54514 0.19099 1.00943 0.0
H193 H 0.48355 0.17256 0.01857 0.0
H194 H 0.38592 0.85082 0.08555 0.0
H195 H 0.60641 0.17639 0.98058 0.0
H196 H 0.50776 0.82216 0.08246 0.0
H197 H 0.5613 0.85758 0.09389 0.0
N198 N 0.50214 0.92293 0.08844 0.0
C199 C 0.47235 0.90387 0.08553 0.0
C200 C 0.53373 0.90673 0.09369 0.0
C201 C 0.50585 0.85038 0.08439 0.0
C202 C 0.53612 0.87028 0.09099 0.0
C203 C 0.47335 0.86709 0.08282 0.0
H204 H 0.44214 0.81994 0.07809 0.0
N205 N 0.44106 0.95638 0.09559 0.0
C206 C 0.44075 0.92114 0.0897 0.0
C207 C 0.37818 0.92058 0.10125 0.0
C208 C 0.40922 0.90228 0.09135 0.0
C209 C 0.41136 0.97405 0.10953 0.0
C210 C 0.37937 0.95653 0.11155 0.0
O211 O 0.52482 0.05767 0.02885 0.0
O212 O 0.54701 0.00897 0.06852 0.0
O213 O 0.48694 0.01539 0.16028 0.0
O214 O 0.51106 0.96488 0.16764 0.0
O215 O 0.52873 0.98526 0.94474 0.0
O216 O 0.54113 0.96821 0.03378 0.0
O217 O 0.45382 0.98076 0.02296 0.0
O218 O 0.48147 0.98445 0.9408 0.0
O219 O 0.51284 0.05024 0.86194 0.0
O220 O 0.46172 0.05808 0.89631 0.0
O221 O 0.47247 0.03848 0.08297 0.0
O222 O 0.4541 0.04707 0.99473 0.0
C223 C 0.55001 0.04183 0.055 0.0
C224 C 0.54426 0.96491 0.98057 0.0
C225 C 0.52644 0.00844 0.23205 0.0
C226 C 0.53862 0.03052 0.32339 0.0
C227 C 0.58112 0.03795 0.25105 0.0
C228 C 0.55897 0.02082 0.21471 0.0
C229 C 0.571 0.04297 0.30491 0.0
C230 C 0.51649 0.01299 0.28656 0.0
C231 C 0.50163 0.99326 0.19286 0.0
C232 C 0.4099 0.86578 0.08519 0.0
C233 C 0.44193 0.8482 0.08092 0.0
H234 H 0.35338 0.90706 0.10285 0.0
C235 C 0.45721 0.97113 0.97209 0.0
C236 C 0.45012 0.05106 0.04752 0.0
C237 C 0.46507 0.03787 0.80496 0.0
C238 C 0.46381 0.02683 0.70675 0.0
C239 C 0.42561 0.99446 0.76742 0.0
C240 C 0.43926 0.0123 0.81208 0.0
C241 C 0.4376 1.00167 0.71524 0.0
C242 C 0.47738 0.04484 0.75231 0.0
C243 C 0.4802 0.05665 0.85202 0.0
H244 H 0.60608 0.04767 0.23728 0.0
H245 H 0.56702 0.01762 0.17299 0.0
H246 H 0.58859 0.05648 0.33227 0.0
H247 H 0.49111 1.00394 0.29983 0.0
H248 H 0.40549 0.97503 0.77328 0.0
H249 H 0.42963 1.00604 0.8521 0.0
H250 H 0.42589 0.9878 0.6815 0.0
H251 H 0.49795 0.06393 0.74719 0.0
C252 C 0.35124 0.31397 0.32004 0.0
C253 C 0.33355 0.37222 0.34684 0.0
C254 C 0.32593 0.33643 0.33966 0.0
C255 C 0.36585 0.3854 0.32943 0.0
C256 C 0.38436 0.32666 0.30502 0.0
C257 C 0.39119 0.36266 0.30838 0.0
N258 N 0.3436 0.27943 0.31655 0.0
C259 C 0.36845 0.25579 0.30118 0.0
C260 C 0.40967 0.30271 0.28761 0.0
C261 C 0.40178 0.26707 0.28627 0.0
Gd262 Gd 0.22051 0.26935 0.20512 0.0
Gd263 Gd 0.28592 0.26284 0.33611 0.0
N264 N 0.29497 0.32278 0.35599 0.0
C265 C 0.30923 0.39326 0.37386 0.0
C266 C 0.27363 0.34217 0.38873 0.0
C267 C 0.27964 0.3779 0.39644 0.0
H268 H 0.25193 0.33022 0.40938 0.0
H269 H 0.26176 0.3934 0.42052 0.0
H270 H 0.20996 0.18365 0.18518 0.0
H271 H 0.36224 0.22831 0.29933 0.0
H272 H 0.16147 0.14192 0.17188 0.0
H273 H 0.31406 0.42085 0.38032 0.0
H274 H 0.37193 0.41291 0.33374 0.0
H275 H 0.18395 0.3487 0.21041 0.0
H276 H 0.43542 0.31141 0.27564 0.0
H277 H 0.42124 0.24831 0.27326 0.0
H278 H 0.05832 0.21224 0.19169 0.0
H279 H 0.41626 0.37304 0.29619 0.0
H280 H 0.07299 0.33579 0.21593 0.0
H281 H 0.12483 0.3743 0.21775 0.0
N282 N 0.16571 0.29634 0.20935 0.0
C283 C 0.13763 0.27477 0.20697 0.0
C284 C 0.1615 0.3317 0.2117 0.0
C285 C 0.09887 0.32442 0.21403 0.0
C286 C 0.12807 0.34625 0.21507 0.0
C287 C 0.10339 0.28824 0.2089 0.0
H288 H 0.04838 0.27516 0.20596 0.0
N289 N 0.17652 0.22714 0.19864 0.0
C290 C 0.14318 0.2392 0.20026 0.0
C291 C 0.12153 0.18099 0.18284 0.0
C292 C 0.11472 0.21631 0.19343 0.0
C293 C 0.18338 0.19279 0.18787 0.0
C294 C 0.156 0.16916 0.18019 0.0
O295 O 0.30506 0.27683 0.25219 0.0
O296 O 0.26166 0.31115 0.21844 0.0
O297 O 0.24681 0.2568 0.12926 0.0
O298 O 0.20235 0.29151 0.1292 0.0
O299 O 0.23155 0.28683 0.34384 0.0
O300 O 0.22873 0.31403 0.26237 0.0
O301 O 0.19958 0.23666 0.2761 0.0
O302 O 0.24805 0.21867 0.32518 0.0
O303 O 0.27996 0.26291 0.42463 0.0
O304 O 0.31866 0.22944 0.38603 0.0
O305 O 0.25985 0.22559 0.20306 0.0
O306 O 0.29518 0.2168 0.2794 0.0
C307 C 0.2949 0.30324 0.22246 0.0
C308 C 0.21863 0.31146 0.31271 0.0
C309 C 0.21117 0.25662 0.05082 0.0
C310 C 0.21476 0.24352 0.95356 0.0
C311 C 0.16915 0.21754 1.00876 0.0
C312 C 0.18175 0.235 0.05443 0.0
C313 C 0.18551 0.22162 0.95875 0.0
C314 C 0.2275 0.26107 1.00009 0.0
C315 C 0.22489 0.27449 0.09966 0.0
C316 C 0.08054 0.22948 0.19629 0.0
C317 C 0.07489 0.26533 0.20441 0.0
H318 H 0.10038 0.16268 0.17632 0.0
C319 C 0.2146 0.2171 0.31363 0.0
C320 C 0.28438 0.20866 0.22983 0.0
C321 C 0.31536 0.22606 0.4845 0.0
C322 C 0.3092 0.22267 0.58335 0.0
C323 C 0.35111 0.18567 0.53624 0.0
C324 C 0.34131 0.20014 0.48681 0.0
C325 C 0.33514 0.19667 0.58409 0.0
C326 C 0.29955 0.23756 0.53321 0.0
C327 C 0.30435 0.23972 0.43097 0.0
H328 H 0.14643 0.20091 1.01207 0.0
H329 H 0.16831 0.23175 0.09241 0.0
H330 H 0.17483 0.20813 0.92381 0.0
H331 H 0.25018 0.27782 0.99699 0.0
H332 H 0.37111 0.1657 0.53746 0.0
H333 H 0.35393 0.19077 0.45026 0.0
H334 H 0.3434 0.18508 0.62194 0.0
H335 H 0.27936 0.25739 0.53207 0.0
C336 C 0.8745 0.25659 0.20068 0.0
C337 C 0.89473 0.19725 0.18421 0.0
C338 C 0.86731 0.22162 0.1897 0.0
C339 C 0.92939 0.20827 0.19109 0.0
C340 C 0.9094 0.26783 0.20629 0.0
C341 C 0.93669 0.24343 0.20224 0.0
N342 N 0.84757 0.27974 0.20397 0.0
C343 C 0.85408 0.31478 0.20797 0.0
C344 C 0.91593 0.30343 0.21454 0.0
C345 C 0.88817 0.32704 0.21465 0.0
Gd346 Gd 0.73283 0.24921 0.33195 0.0
Gd347 Gd 0.79155 0.25551 0.19244 0.0
N348 N 0.83348 0.21137 0.18466 0.0
C349 C 0.88645 0.16246 0.17198 0.0
C350 C 0.82526 0.17764 0.17236 0.0
C351 C 0.85157 0.15262 0.16611 0.0
H352 H 0.79848 0.17015 0.16694 0.0
H353 H 0.84494 0.12582 0.15649 0.0
H354 H 0.74872 0.33061 0.37401 0.0
H355 H 0.83312 0.33357 0.20542 0.0
H356 H 0.71566 0.38455 0.3949 0.0
H357 H 0.90678 0.14302 0.16699 0.0
H358 H 0.95075 0.18984 0.18752 0.0
H359 H 0.67417 0.18348 0.32872 0.0
H360 H 0.94234 0.31306 0.21926 0.0
H361 H 0.89305 0.35475 0.21912 0.0
H362 H 0.59577 0.34936 0.37972 0.0
H363 H 0.96361 0.2516 0.20678 0.0
H364 H 0.57236 0.22813 0.34676 0.0
H365 H 0.61021 0.1765 0.33265 0.0
N366 N 0.67249 0.2388 0.338 0.0
C367 C 0.65225 0.26727 0.3481 0.0
C368 C 0.65788 0.20634 0.33381 0.0
C369 C 0.6004 0.23142 0.34462 0.0
C370 C 0.62167 0.20222 0.3365 0.0
C371 C 0.61561 0.2644 0.35126 0.0
H372 H 0.56722 0.29269 0.36373 0.0
N373 N 0.70366 0.3011 0.35437 0.0
C374 C 0.66827 0.29939 0.35632 0.0
C375 C 0.66555 0.36042 0.3815 0.0
C376 C 0.6482 0.3292 0.36906 0.0
C377 C 0.72073 0.33061 0.37061 0.0
C378 C 0.702 0.36094 0.38325 0.0
O379 O 0.8141 0.2268 0.26577 0.0
O380 O 0.76432 0.20409 0.30137 0.0
O381 O 0.76436 0.25142 0.40532 0.0
O382 O 0.71613 0.22254 0.40509 0.0
O383 O 0.75043 0.21295 0.18746 0.0
O384 O 0.71569 0.21073 0.26601 0.0
O385 O 0.71963 0.29274 0.2736 0.0
O386 O 0.73456 0.27173 0.18844 0.0
O387 O 0.79236 0.23881 0.10804 0.0
O388 O 0.79845 0.29355 0.12846 0.0
O389 O 0.78485 0.27736 0.33035 0.0
O390 O 0.78511 0.30276 0.24653 0.0
C391 C 0.79835 0.20522 0.29916 0.0
C392 C 0.72375 0.20096 0.21588 0.0
C393 C 0.73212 0.25124 0.48651 0.0
C394 C 0.74403 0.26193 0.58241 0.0
C395 C 0.69625 0.29202 0.53778 0.0
C396 C 0.70392 0.2746 0.4895 0.0
C397 C 0.71631 0.28596 0.58393 0.0
C398 C 0.7519 0.24458 0.53342 0.0
C399 C 0.74163 0.23469 0.43444 0.0
C400 C 0.61166 0.32666 0.37056 0.0
C401 C 0.59541 0.29435 0.36159 0.0
H402 H 0.65108 0.38389 0.39162 0.0
C403 C 0.71479 0.2907 0.22081 0.0
C404 C 0.79406 0.3027 0.29783 0.0
C405 C 0.82443 0.27347 0.04652 0.0
C406 C 0.83832 0.26874 0.95026 0.0
C407 C 0.88069 0.29302 1.01323 0.0
C408 C 0.8575 0.28802 0.05615 0.0
C409 C 0.87107 0.2838 0.96042 0.0
C410 C 0.81521 0.2634 0.99359 0.0
C411 C 0.79833 0.2701 0.08999 0.0
H412 H 0.67457 0.31015 0.53948 0.0
H413 H 0.68773 0.27938 0.45469 0.0
H414 H 0.70965 0.29943 0.62123 0.0
H415 H 0.77351 0.2263 0.5317 0.0
H416 H 0.90606 0.30446 0.02085 0.0
H417 H 0.86526 0.29596 0.09646 0.0
H418 H 0.88922 0.28821 0.92755 0.0
H419 H 0.78961 0.25237 0.98583 0.0
C420 C 0.84629 0.82702 0.86209 0.0
C421 C 0.82064 0.88149 0.89252 0.0
C422 C 0.81717 0.84596 0.87786 0.0
C423 C 0.8533 0.8979 0.88826 0.0
C424 C 0.87944 0.84285 0.86043 0.0
C425 C 0.88265 0.87855 0.87243 0.0
N426 N 0.84232 0.79269 0.8497 0.0
C427 C 0.87047 0.77233 0.8374 0.0
C428 C 0.90847 0.82214 0.84774 0.0
C429 C 0.90394 0.78673 0.83597 0.0
Gd430 Gd 0.73533 0.75761 0.71437 0.0
Gd431 Gd 0.78625 0.76931 0.8587 0.0
N432 N 0.78604 0.82912 0.88242 0.0
C433 C 0.79159 0.89899 0.91356 0.0
C434 C 0.75851 0.84542 0.90696 0.0
C435 C 0.76071 0.88059 0.9221 0.0
H436 H 0.73519 0.83119 0.91713 0.0
H437 H 0.73894 0.89318 0.94193 0.0
H438 H 0.75124 0.67536 0.67565 0.0
H439 H 0.86706 0.74491 0.82953 0.0
H440 H 0.72055 0.61825 0.6742 0.0
H441 H 0.79325 0.92615 0.92588 0.0
H442 H 0.85637 0.92525 0.89876 0.0
H443 H 0.67135 0.81849 0.71161 0.0
H444 H 0.93449 0.83319 0.8472 0.0
H445 H 0.92623 0.77047 0.82633 0.0
H446 H 0.60443 0.64608 0.73446 0.0
H447 H 0.90782 0.89118 0.87045 0.0
H448 H 0.57482 0.76756 0.74821 0.0
H449 H 0.60811 0.82165 0.73025 0.0
N450 N 0.67431 0.76348 0.72327 0.0
C451 C 0.65601 0.73337 0.72855 0.0
C452 C 0.65721 0.79477 0.72049 0.0
C453 C 0.60264 0.76607 0.74078 0.0
C454 C 0.62132 0.79665 0.73052 0.0
C455 C 0.61976 0.73378 0.73819 0.0
H456 H 0.57383 0.70179 0.7507 0.0
N457 N 0.70753 0.70303 0.70688 0.0
C458 C 0.67308 0.70209 0.7193 0.0
C459 C 0.67222 0.6397 0.70435 0.0
C460 C 0.6546 0.6703 0.71953 0.0
C461 C 0.7242 0.67383 0.68794 0.0
C462 C 0.70698 0.6416 0.68736 0.0
O463 O 0.80937 0.79226 0.78102 0.0
O464 O 0.76026 0.80914 0.73583 0.0
O465 O 0.766 0.75442 0.64041 0.0
O466 O 0.71178 0.76894 0.63618 0.0
O467 O 0.72902 0.7833 0.85404 0.0
O468 O 0.72249 0.80468 0.7677 0.0
O469 O 0.73832 0.71318 0.77461 0.0
O470 O 0.73541 0.73872 0.85829 0.0
O471 O 0.78366 0.77448 0.94594 0.0
O472 O 0.81285 0.73175 0.91084 0.0
O473 O 0.79022 0.73564 0.71896 0.0
O474 O 0.80333 0.72231 0.80901 0.0
C475 C 0.79377 0.81251 0.74549 0.0
C476 C 0.71258 0.80278 0.81864 0.0
C477 C 0.74903 0.78959 0.56686 0.0
C478 C 0.76787 0.80084 0.47387 0.0
C479 C 0.75442 0.84913 0.53508 0.0
C480 C 0.74584 0.82558 0.576 0.0
C481 C 0.76533 0.83694 0.48432 0.0
C482 C 0.76017 0.77737 0.51601 0.0
C483 C 0.74051 0.76413 0.60925 0.0
C484 C 0.61899 0.67031 0.733 0.0
C485 C 0.60158 0.70203 0.74234 0.0
H486 H 0.65895 0.61471 0.70402 0.0
C487 C 0.72647 0.71378 0.82434 0.0
C488 C 0.808 0.71839 0.75616 0.0
C489 C 0.82955 0.75273 0.99881 0.0
C490 C 0.84099 0.75857 0.0961 0.0
C491 C 0.88806 0.7654 0.03084 0.0
C492 C 0.86486 0.75918 0.9881 0.0
C493 C 0.87628 0.76519 0.08449 0.0
C494 C 0.81784 0.75248 0.05271 0.0
C495 C 0.80364 0.74782 0.95527 0.0
H496 H 0.75203 0.87694 0.54243 0.0
H497 H 0.73643 0.83534 0.61449 0.0
H498 H 0.77072 0.85577 0.45284 0.0
H499 H 0.76262 0.74946 0.50928 0.0
H500 H 0.9153 0.77041 0.02236 0.0
H501 H 0.87449 0.75961 0.947 0.0
H502 H 0.89487 0.76971 0.11686 0.0
H503 H 0.79036 0.74818 0.0607 0.0
C504 C 0.503 0.39175 0.94581 0.0
C505 C 0.44042 0.38187 0.94276 0.0
C506 C 0.46917 0.4048 0.94353 0.0
C507 C 0.44616 0.34564 0.94407 0.0
C508 C 0.50885 0.35539 0.94713 0.0
C509 C 0.48026 0.33244 0.94625 0.0
N510 N 0.53014 0.41458 0.94748 0.0
C511 C 0.56378 0.40286 0.9488 0.0
C512 C 0.54328 0.34319 0.94965 0.0
C513 C 0.57085 0.36703 0.9503 0.0
Gd514 Gd 0.50856 0.53428 0.08184 0.0
Gd515 Gd 0.5154 0.47403 0.94765 0.0
N516 N 0.46438 0.44004 0.94467 0.0
C517 C 0.40674 0.39607 0.9414 0.0
C518 C 0.43168 0.45404 0.94175 0.0
C519 C 0.40238 0.43231 0.94059 0.0
H520 H 0.42817 0.4819 0.94216 0.0
H521 H 0.37645 0.44352 0.93948 0.0
H522 H 0.59473 0.51783 0.09008 0.0
H523 H 0.58524 0.42115 0.94841 0.0
H524 H 0.64944 0.55115 0.0996 0.0
H525 H 0.38396 0.37932 0.941 0.0
H526 H 0.42438 0.3276 0.94367 0.0
H527 H 0.44382 0.59283 0.08668 0.0
H528 H 0.54885 0.31544 0.95088 0.0
H529 H 0.59755 0.35784 0.95184 0.0
H530 H 0.61199 0.67061 0.11147 0.0
H531 H 0.48425 0.30442 0.94739 0.0
H532 H 0.48942 0.69465 0.1001 0.0
H533 H 0.43713 0.65708 0.09212 0.0
N534 N 0.49916 0.59455 0.08701 0.0
C535 C 0.52824 0.61456 0.09264 0.0
C536 C 0.46675 0.60923 0.08793 0.0
C537 C 0.49249 0.66659 0.09654 0.0
C538 C 0.4629 0.64549 0.09193 0.0
C539 C 0.52565 0.65119 0.09765 0.0
H540 H 0.5546 0.69936 0.1083 0.0
N541 N 0.56245 0.56296 0.0886 0.0
C542 C 0.56075 0.59833 0.09415 0.0
C543 C 0.62355 0.60112 0.10196 0.0
C544 C 0.59132 0.61836 0.10076 0.0
C545 C 0.59364 0.5459 0.09204 0.0
C546 C 0.62468 0.56473 0.09784 0.0
O547 O 0.48747 0.45228 0.02053 0.0
O548 O 0.46249 0.49777 0.06814 0.0
O549 O 0.52688 0.5188 0.16139 0.0
O550 O 0.48051 0.55055 0.15442 0.0
O551 O 0.48777 0.52651 0.94404 0.0
O552 O 0.462 0.54106 0.02595 0.0
O553 O 0.53772 0.55701 1.00853 0.0
O554 O 0.56104 0.50856 0.96676 0.0
O555 O 0.49619 0.48878 0.86854 0.0
O556 O 0.54342 0.45819 0.87471 0.0
O557 O 0.53485 0.48121 0.08602 0.0
O558 O 0.56173 0.47059 1.00418 0.0
C559 C 0.465 0.46432 0.05623 0.0
C560 C 0.46243 0.541 0.97243 0.0
C561 C 0.48343 0.51017 0.22672 0.0
C562 C 0.48181 0.48416 0.31696 0.0
C563 C 0.44185 0.46429 0.24672 0.0
C564 C 0.45596 0.4883 0.21061 0.0
C565 C 0.45465 0.46212 0.29951 0.0
C566 C 0.49609 0.50832 0.2802 0.0
C567 C 0.50066 0.53293 0.18691 0.0
C568 C 0.58878 0.6548 0.10621 0.0
C569 C 0.55608 0.67119 0.1043 0.0
H570 H 0.64764 0.61562 0.10665 0.0
C571 C 0.56023 0.54244 0.97474 0.0
C572 C 0.5579 0.46433 0.0562 0.0
C573 C 0.53746 0.49574 0.79922 0.0
C574 C 0.54532 0.50687 0.70245 0.0
C575 C 0.56869 0.54732 0.76984 0.0
C576 C 0.55541 0.52664 0.81144 0.0
C577 C 0.5637 0.53759 0.71569 0.0
C578 C 0.53239 0.48599 0.74485 0.0
C579 C 0.52204 0.47444 0.84243 0.0
H580 H 0.42118 0.44705 0.23359 0.0
H581 H 0.44572 0.48959 0.16995 0.0
H582 H 0.44314 0.44332 0.32685 0.0
H583 H 0.51761 0.52488 0.29267 0.0
H584 H 0.58269 0.5711 0.7796 0.0
H585 H 0.55868 0.53491 0.85303 0.0
H586 H 0.5744 0.55401 0.68424 0.0
H587 H 0.51756 0.46259 0.73569 0.0
C588 C 0.97065 0.61198 0.43891 0.0
C589 C 0.02275 0.64737 0.4323 0.0
C590 C 0.00654 0.6146 0.43857 0.0
C591 C 1.0021 0.67768 0.42969 0.0
C592 C 0.9497 0.64198 0.43287 0.0
C593 C 0.9656 0.67499 0.4299 0.0
N594 N 0.95632 0.5797 0.44088 0.0
C595 C 0.92132 0.57515 0.43352 0.0
C596 C 0.91355 0.63772 0.42788 0.0
C597 C 0.89934 0.6041 0.42752 0.0
Gd598 Gd 0.99669 0.47175 0.59264 0.0
Gd599 Gd 0.99435 0.53268 0.45561 0.0
N600 N 0.02549 0.58471 0.43997 0.0
C601 C 0.05908 0.64847 0.42659 0.0
C602 C 0.06056 0.58538 0.42991 0.0
C603 C 0.07799 0.61726 0.42438 0.0
H604 H 0.07521 0.56125 0.42794 0.0
H605 H 0.10595 0.61773 0.41824 0.0
H606 H 0.92635 0.51679 0.64453 0.0
H607 H 0.91036 0.54918 0.43355 0.0
H608 H 0.86328 0.50877 0.65166 0.0
H609 H 0.07258 0.67311 0.42183 0.0
H610 H 0.01406 0.70316 0.42555 0.0
H611 H 0.02999 0.39358 0.56752 0.0
H612 H 0.89652 0.6601 0.42296 0.0
H613 H 0.8715 0.60048 0.4228 0.0
H614 H 0.84551 0.38906 0.60226 0.0
H615 H 0.94995 0.69843 0.42596 0.0
H616 H 0.94643 0.3194 0.56345 0.0
H617 H 0.00937 0.33275 0.55554 0.0
N618 N 0.97913 0.41414 0.57937 0.0
C619 C 0.94457 0.40742 0.58525 0.0
C620 C 1.00244 0.38793 0.56976 0.0
C621 C 0.95531 0.34612 0.56804 0.0
C622 C 0.99087 0.35354 0.56347 0.0
C623 C 0.93164 0.37317 0.57897 0.0
H624 H 0.88532 0.34078 0.57968 0.0
N625 N 0.93581 0.46732 0.6073 0.0
C626 C 0.9222 0.43484 0.59852 0.0
C627 C 0.86466 0.45574 0.62238 0.0
C628 C 0.88622 0.42832 0.60542 0.0
C629 C 0.91531 0.49296 0.62924 0.0
C630 C 0.87941 0.48799 0.63539 0.0
O631 O 0.03836 0.54623 0.51258 0.0
O632 O 0.03127 0.52036 0.59782 0.0
O633 O 0.98582 0.45979 0.67698 0.0
O634 O 0.03741 0.45084 0.64504 0.0
O635 O 0.04365 0.50115 0.4689 0.0
O636 O 0.03873 0.45639 0.53329 0.0
O637 O 0.97769 0.4519 0.51066 0.0
O638 O 0.94946 0.50096 0.48602 0.0
O639 O 0.99465 0.48914 0.39818 0.0
O640 O 0.99224 0.54209 0.36886 0.0
O641 O 0.98137 0.52821 0.60163 0.0
O642 O 0.95474 0.54381 0.52171 0.0
C643 C 0.04594 0.54304 0.56442 0.0
C644 C 0.05391 0.47157 0.49156 0.0
C645 C 0.03245 0.46987 0.73724 0.0
C646 C 0.03137 0.48051 0.83585 0.0
C647 C 0.0715 0.51249 0.77779 0.0
C648 C 0.05878 0.49508 0.73215 0.0
C649 C 0.05821 0.5052 0.82907 0.0
C650 C 0.0187 0.46279 0.78922 0.0
C651 C 0.018 0.45215 0.68846 0.0
C652 C 0.87308 0.39444 0.59727 0.0
C653 C 0.89575 0.36691 0.5845 0.0
H654 H 0.83691 0.45181 0.62808 0.0
C655 C 0.9514 0.46693 0.48597 0.0
C656 C 0.96292 0.55027 0.57256 0.0
C657 C 0.96747 0.49843 0.31288 0.0
C658 C 0.95595 0.48037 0.21914 0.0
C659 C 0.90866 0.48347 0.2847 0.0
C660 C 0.9319 0.49501 0.32454 0.0
C661 C 0.9206 0.4759 0.23246 0.0
C662 C 0.97939 0.49169 0.25972 0.0
C663 C 0.99223 0.50914 0.35572 0.0
H664 H 0.09181 0.53182 0.77355 0.0
H665 H 0.06946 0.50148 0.69287 0.0
H666 H 0.06942 0.51877 0.86351 0.0
H667 H 0.99773 0.44401 0.79296 0.0
H668 H 0.88127 0.48051 0.29429 0.0
H669 H 0.92223 0.50141 0.36443 0.0
H670 H 0.90211 0.46711 0.20209 0.0
H671 H 0.00681 0.49479 0.25014 0.0
H672 H 0.0518 0.094 0.39894 0.0
H673 H 0.12099 0.05032 0.52037 0.0
H674 H 0.16739 0.09075 0.49223 0.0
H675 H 0.11684 0.10659 0.29487 0.0
H676 H 0.09768 0.14704 0.27252 0.0
H677 H 0.07073 0.11445 0.30346 0.0
H678 H 0.05041 0.16199 0.37235 0.0
H679 H 0.07904 0.19363 0.3419 0.0
H680 H 0.08251 0.18429 0.41322 0.0
H681 H 0.20686 0.13345 0.44984 0.0
H682 H 0.23792 0.17743 0.39743 0.0
H683 H 0.14448 0.19624 0.3016 0.0
C684 C 0.07679 0.09297 0.41941 0.0
C685 C 0.08272 0.06899 0.46205 0.0
C686 C 0.11564 0.06865 0.48813 0.0
C687 C 0.14225 0.09146 0.47226 0.0
C688 C 0.13566 0.1147 0.43021 0.0
C689 C 0.10376 0.11591 0.40426 0.0
C690 C 0.10398 0.14354 0.36007 0.0
C691 C 0.09693 0.12685 0.30442 0.0
C692 C 0.0774 0.17259 0.37265 0.0
C693 C 0.14129 0.15706 0.36443 0.0
C694 C 0.15879 0.13995 0.4055 0.0
C695 C 0.19345 0.14708 0.41764 0.0
C696 C 0.21093 0.17226 0.38714 0.0
C697 C 0.19403 0.19047 0.34443 0.0
C698 C 0.15844 0.18279 0.33336 0.0
H699 H 0.05415 0.89983 0.60657 0.0
H700 H 0.12359 0.97126 0.52434 0.0
H701 H 0.17464 0.93967 0.56183 0.0
H702 H 0.10393 0.88656 0.72781 0.0
H703 H 0.09341 0.84069 0.73078 0.0
H704 H 0.06386 0.8705 0.69847 0.0
H705 H 0.06693 0.83091 0.61229 0.0
H706 H 0.09774 0.80248 0.64535 0.0
H707 H 0.10872 0.82229 0.58153 0.0
H708 H 0.21775 0.9031 0.61433 0.0
H709 H 0.25045 0.85963 0.66745 0.0
H710 H 0.15353 0.80751 0.70803 0.0
C711 C 0.08018 0.90856 0.59631 0.0
C712 C 0.08514 0.93798 0.56279 0.0
C713 C 0.11941 0.94859 0.5496 0.0
C714 C 0.14847 0.93096 0.57103 0.0
C715 C 0.14278 0.90224 0.6045 0.0
C716 C 0.1095 0.89058 0.61604 0.0
C717 C 0.11066 0.85811 0.65114 0.0
C718 C 0.09188 0.86441 0.70529 0.0
C719 C 0.09509 0.82658 0.62076 0.0
C720 C 0.14978 0.85394 0.65904 0.0
C721 C 0.16774 0.87983 0.632 0.0
C722 C 0.20397 0.88228 0.63465 0.0
C723 C 0.22239 0.85723 0.66462 0.0
C724 C 0.20485 0.82944 0.69071 0.0
C725 C 0.16789 0.8282 0.68837 0.0
H726 H 0.36779 0.82001 0.7916 0.0
H727 H 0.27098 0.8487 0.87141 0.0
H728 H 0.30096 0.89599 0.91935 0.0
H729 H 0.4228 0.83562 0.90586 0.0
H730 H 0.45864 0.85332 0.86763 0.0
H731 H 0.42946 0.82228 0.83645 0.0
H732 H 0.4171 0.86593 0.75947 0.0
H733 H 0.44571 0.89767 0.79039 0.0
H734 H 0.40105 0.90899 0.77557 0.0
H735 H 0.34051 0.93878 0.96157 0.0
H736 H 0.38854 0.97503 0.9966 0.0
H737 H 0.46142 0.92062 0.89146 0.0
C738 C 0.35267 0.83678 0.81783 0.0
C739 C 0.31654 0.8308 0.82623 0.0
C740 C 0.29836 0.85264 0.86328 0.0
C741 C 0.31522 0.87977 0.89094 0.0
C742 C 0.35059 0.88495 0.8817 0.0
C743 C 0.3693 0.86417 0.84621 0.0
C744 C 0.40757 0.87488 0.84589 0.0
C745 C 0.43099 0.84472 0.86511 0.0
C746 C 0.41851 0.88763 0.78948 0.0
C747 C 0.40722 0.90475 0.88689 0.0
C748 C 0.37393 0.90992 0.90684 0.0
C749 C 0.3667 0.93505 0.94624 0.0
C750 C 0.39423 0.95532 0.96625 0.0
C751 C 0.42871 0.9504 0.94726 0.0
C752 C 0.43522 0.92507 0.90641 0.0
H753 H 0.44352 0.08357 0.1467 0.0
H754 H 0.38956 0.06625 0.99416 0.0
H755 H 0.33965 0.10095 0.02772 0.0
H756 H 0.36745 0.08049 0.23436 0.0
H757 H 0.38263 0.11509 0.27824 0.0
H758 H 0.41361 0.08748 0.24355 0.0
H759 H 0.4427 0.14197 0.2014 0.0
H760 H 0.41195 0.16978 0.23606 0.0
H761 H 0.41641 0.17237 0.16352 0.0
H762 H 0.2966 0.13838 0.0761 0.0
H763 H 0.26419 0.17955 0.13334 0.0
H764 H 0.34569 0.1737 0.25565 0.0
C765 C 0.42108 0.08684 0.12051 0.0
C766 C 0.42036 0.07207 0.06779 0.0
C767 C 0.39074 0.07739 0.03454 0.0
C768 C 0.36219 0.09689 0.05339 0.0
C769 C 0.36372 0.11106 0.10549 0.0
C770 C 0.39246 0.10656 0.1385 0.0
C771 C 0.38807 0.12615 0.19175 0.0
C772 C 0.38793 0.10078 0.23982 0.0
C773 C 0.41647 0.15423 0.19856 0.0
C774 C 0.35238 0.14249 0.18336 0.0
C775 C 0.33881 0.13314 0.13344 0.0
C776 C 0.30686 0.14575 0.11539 0.0
C777 C 0.28857 0.16918 0.14855 0.0
C778 C 0.30218 0.18005 0.19947 0.0
C779 C 0.33431 0.16586 0.21736 0.0
H780 H 0.96292 0.91118 0.62764 0.0
H781 H 0.8921 0.97075 0.52678 0.0
H782 H 0.84195 0.93949 0.56682 0.0
H783 H 0.91482 0.82959 0.61522 0.0
H784 H 0.9243 0.81599 0.68348 0.0
H785 H 0.95455 0.84361 0.64791 0.0
H786 H 0.95103 0.89146 0.72472 0.0
H787 H 0.9238 0.86107 0.75997 0.0
H788 H 0.90843 0.90474 0.74827 0.0
H789 H 0.79948 0.90493 0.62294 0.0
H790 H 0.76761 0.86412 0.68149 0.0
H791 H 0.86579 0.82178 0.7394 0.0
C792 C 0.9368 0.91763 0.61414 0.0
C793 C 0.93129 0.94366 0.57457 0.0
C794 C 0.89687 0.95095 0.5571 0.0
C795 C 0.86824 0.93344 0.57981 0.0
C796 C 0.8745 0.90821 0.61925 0.0
C797 C 0.90795 0.89979 0.63548 0.0
C798 C 0.90755 0.87052 0.67674 0.0
C799 C 0.92642 0.838 0.6545 0.0
C800 C 0.92365 0.88276 0.73059 0.0
C801 C 0.86854 0.86418 0.68214 0.0
C802 C 0.85005 0.88653 0.64891 0.0
C803 C 0.81373 0.88681 0.64819 0.0
C804 C 0.79582 0.86322 0.68135 0.0
C805 C 0.81397 0.83884 0.71401 0.0
C806 C 0.85097 0.83977 0.71476 0.0
H807 H 0.96387 0.094 0.39987 0.0
H808 H 0.8994 0.05733 0.53215 0.0
H809 H 0.85072 0.09427 0.49975 0.0
H810 H 0.93129 0.18415 0.40203 0.0
H811 H 0.93338 0.18852 0.32942 0.0
H812 H 0.96335 0.15987 0.36387 0.0
H813 H 0.94328 0.1078 0.30337 0.0
H814 H 0.91432 0.13706 0.26867 0.0
H815 H 0.89738 0.09779 0.29873 0.0
H816 H 0.80784 0.13173 0.44906 0.0
H817 H 0.77494 0.17058 0.38833 0.0
H818 H 0.8682 0.18663 0.29211 0.0
C819 C 0.93954 0.09393 0.42214 0.0
C820 C 0.93532 0.07271 0.46846 0.0
C821 C 0.90324 0.07351 0.49679 0.0
C822 C 0.87543 0.09432 0.47856 0.0
C823 C 0.8803 0.11468 0.43247 0.0
C824 C 0.91172 0.1151 0.40512 0.0
C825 C 0.91013 0.13946 0.35681 0.0
C826 C 0.93608 0.1698 0.36346 0.0
C827 C 0.91663 0.11928 0.30377 0.0
C828 C 0.87266 0.15219 0.36062 0.0
C829 C 0.85593 0.13739 0.40444 0.0
C830 C 0.82081 0.1438 0.41505 0.0
C831 C 0.8023 0.16592 0.38013 0.0
C832 C 0.8189 0.18193 0.33534 0.0
C833 C 0.8547 0.17504 0.32592 0.0
H834 H 0.65225 0.19657 0.20802 0.0
H835 H 0.74766 0.14155 0.1673 0.0
H836 H 0.71355 0.09531 0.12216 0.0
H837 H 0.59912 0.11951 0.23278 0.0
H838 H 0.56024 0.13714 0.20213 0.0
H839 H 0.59151 0.166 0.23338 0.0
H840 H 0.59709 0.20098 0.14521 0.0
H841 H 0.56575 0.17277 0.11271 0.0
H842 H 0.60832 0.17878 0.08312 0.0
H843 H 0.66942 0.05422 0.08329 0.0
H844 H 0.61776 0.02242 0.04848 0.0
H845 H 0.5505 0.10542 0.10723 0.0
C846 C 0.66582 0.17457 0.18997 0.0
C847 C 0.70271 0.17268 0.19096 0.0
C848 C 0.7196 0.14382 0.16636 0.0
C849 C 0.70037 0.11726 0.14091 0.0
C850 C 0.66414 0.12006 0.13985 0.0
C851 C 0.64693 0.14801 0.16344 0.0
C852 C 0.60778 0.1451 0.15461 0.0
C853 C 0.58854 0.14172 0.20897 0.0
C854 C 0.59392 0.17625 0.12194 0.0
C855 C 0.60583 0.11134 0.12209 0.0
C856 C 0.63866 0.09709 0.11488 0.0
C857 C 0.6436 0.06523 0.08831 0.0
C858 C 0.61421 0.04734 0.06878 0.0
C859 C 0.58045 0.0617 0.07485 0.0
C860 C 0.57621 0.09422 0.10148 0.0
H861 H 0.70147 0.87347 0.82124 0.0
H862 H 0.65443 0.77409 0.86093 0.0
H863 H 0.60431 0.80468 0.90299 0.0
H864 H 0.6809 0.91644 0.94376 0.0
H865 H 0.672 0.95815 0.9133 0.0
H866 H 0.70162 0.92832 0.88067 0.0
H867 H 0.66427 0.93161 0.79335 0.0
H868 H 0.63404 0.96082 0.8264 0.0
H869 H 0.61852 0.92086 0.79618 0.0
H870 H 0.55975 0.84653 0.9424 0.0
H871 H 0.5264 0.89634 0.98084 0.0
H872 H 0.60767 0.96713 0.9295 0.0
C873 C 0.68013 0.85836 0.83774 0.0
C874 C 0.68126 0.82154 0.83739 0.0
C875 C 0.65366 0.80235 0.86075 0.0
C876 C 0.62513 0.8195 0.88452 0.0
C877 C 0.62502 0.8559 0.88549 0.0
C878 C 0.65191 0.87514 0.86306 0.0
C879 C 0.64656 0.9139 0.87293 0.0
C880 C 0.67713 0.9301 0.90457 0.0
C881 C 0.64049 0.93292 0.81902 0.0
C882 C 0.61357 0.91325 0.90666 0.0
C883 C 0.60085 0.8797 0.91182 0.0
C884 C 0.56983 0.87284 0.93932 0.0
C885 C 0.5514 0.90111 0.96194 0.0
C886 C 0.56484 0.93541 0.95903 0.0
C887 C 0.59642 0.94138 0.9314 0.0
H888 H 0.56778 0.61499 0.97189 0.0
H889 H 0.61731 0.51812 0.92061 0.0
H890 H 0.6638 0.5514 0.87646 0.0
H891 H 0.58892 0.66287 0.84887 0.0
H892 H 0.59724 0.70381 0.88292 0.0
H893 H 0.5665 0.67323 0.911 0.0
H894 H 0.5997 0.67386 0.99999 0.0
H895 H 0.63231 0.70321 0.97462 0.0
H896 H 0.64519 0.66164 1.00245 0.0
H897 H 0.70462 0.59432 0.83556 0.0
H898 H 0.73927 0.64509 0.80554 0.0
H899 H 0.66653 0.71488 0.88587 0.0
C900 C 0.58848 0.60081 0.9516 0.0
C901 C 0.58859 0.56374 0.94988 0.0
C902 C 0.61629 0.54636 0.92265 0.0
C903 C 0.64294 0.56506 0.89718 0.0
C904 C 0.64198 0.60135 0.89924 0.0
C905 C 0.61564 0.61919 0.92585 0.0
C906 C 0.62133 0.65843 0.92178 0.0
C907 C 0.59174 0.67561 0.88921 0.0
C908 C 0.62492 0.67525 0.97812 0.0
C909 C 0.65553 0.6596 0.8907 0.0
C910 C 0.66646 0.62632 0.87704 0.0
C911 C 0.6965 0.6205 0.84644 0.0
C912 C 0.716 0.64945 0.82956 0.0
C913 C 0.70578 0.68377 0.84394 0.0
C914 C 0.6752 0.68887 0.87508 0.0
H915 H 0.71768 0.33738 0.1357 0.0
H916 H 0.64665 0.28929 0.24894 0.0
H917 H 0.59909 0.32742 0.21775 0.0
H918 H 0.68542 0.42391 0.14498 0.0
H919 H 0.68893 0.43372 0.07385 0.0
H920 H 0.71755 0.40186 0.10383 0.0
H921 H 0.69743 0.35579 0.03325 0.0
H922 H 0.66869 0.38752 1.00297 0.0
H923 H 0.65156 0.34638 0.026 0.0
H924 H 0.56081 0.37335 0.18014 0.0
H925 H 0.53194 0.42217 0.13374 0.0
H926 H 0.62492 0.43914 0.03719 0.0
C927 C 0.69196 0.33477 0.15334 0.0
C928 C 0.68604 0.31139 0.19669 0.0
C929 C 0.65212 0.30838 0.21834 0.0
C930 C 0.6248 0.32951 0.19995 0.0
C931 C 0.63157 0.35312 0.1586 0.0
C932 C 0.66408 0.35558 0.13473 0.0
C933 C 0.66398 0.38356 0.09109 0.0
C934 C 0.69055 0.41247 0.10425 0.0
C935 C 0.67083 0.36734 0.035 0.0
C936 C 0.62669 0.397 0.09546 0.0
C937 C 0.6086 0.37885 0.13469 0.0
C938 C 0.57449 0.38741 0.14875 0.0
C939 C 0.55836 0.41532 0.12225 0.0
C940 C 0.57604 0.43429 0.08153 0.0
C941 C 0.61061 0.42474 0.06757 0.0
H942 H 0.95129 0.39654 0.4567 0.0
H943 H 0.88787 0.49056 0.45376 0.0
H944 H 0.84313 0.45975 0.40062 0.0
H945 H 0.92839 0.36473 0.3223 0.0
H946 H 0.92624 0.3195 0.34188 0.0
H947 H 0.95488 0.34907 0.3775 0.0
H948 H 0.92566 0.33223 0.4673 0.0
H949 H 0.89631 0.30308 0.43279 0.0
H950 H 0.87908 0.33736 0.47537 0.0
H951 H 0.80692 0.42045 0.34194 0.0
H952 H 0.77596 0.37132 0.29718 0.0
H953 H 0.85774 0.3004 0.34786 0.0
C954 C 0.92792 0.41055 0.44502 0.0
C955 C 0.92367 0.4464 0.45808 0.0
C956 C 0.89232 0.46347 0.443 0.0
C957 C 0.86664 0.44618 0.41274 0.0
C958 C 0.87205 0.41134 0.39894 0.0
C959 C 0.90143 0.39333 0.41565 0.0
C960 C 0.89953 0.35534 0.39754 0.0
C961 C 0.92902 0.34666 0.35743 0.0
C962 C 0.90014 0.33056 0.44624 0.0
C963 C 0.86426 0.35484 0.36947 0.0
C964 C 0.84946 0.38774 0.36913 0.0
C965 C 0.81792 0.39441 0.34281 0.0
C966 C 0.80059 0.36649 0.31741 0.0
C967 C 0.81417 0.33223 0.32038 0.0
C968 C 0.84654 0.32637 0.34628 0.0
H969 H 0.81595 0.69086 0.65338 0.0
H970 H 0.85947 0.68664 0.81584 0.0
H971 H 0.90672 0.64873 0.78253 0.0
H972 H 0.83147 0.59906 0.62648 0.0
H973 H 0.84024 0.60544 0.55549 0.0
H974 H 0.81146 0.63493 0.59096 0.0
H975 H 0.84979 0.68733 0.56112 0.0
H976 H 0.87838 0.65763 0.52586 0.0
H977 H 0.89585 0.68702 0.57625 0.0
H978 H 0.9505 0.61406 0.73185 0.0
H979 H 0.98199 0.57372 0.67208 0.0
H980 H 0.90621 0.59236 0.54431 0.0
C981 C 0.83555 0.6822 0.68195 0.0
C982 C 0.83478 0.69316 0.73694 0.0
C983 C 0.86019 0.68001 0.77321 0.0
C984 C 0.88712 0.65828 0.75469 0.0
C985 C 0.88764 0.64887 0.70012 0.0
C986 C 0.86198 0.65942 0.66456 0.0
C987 C 0.86693 0.64253 0.60921 0.0
C988 C 0.83567 0.6191 0.5947 0.0
C989 C 0.87312 0.67031 0.56555 0.0
C990 C 0.89962 0.62105 0.61924 0.0
C991 C 0.91137 0.62587 0.67172 0.0
C992 C 0.94127 0.6096 0.69095 0.0
C993 C 0.95896 0.58666 0.65644 0.0
C994 C 0.94633 0.57927 0.60348 0.0
C995 C 0.91665 0.59743 0.58426 0.0
H996 H 0.29541 0.37322 0.1916 0.0
H997 H 0.35574 0.27724 0.18489 0.0
H998 H 0.40489 0.30898 0.14478 0.0
H999 H 0.32964 0.40823 0.06097 0.0
H1000 H 0.32982 0.45271 0.08529 0.0
H1001 H 0.29832 0.4221 0.11114 0.0
H1002 H 0.31875 0.43722 0.20702 0.0
H1003 H 0.35301 0.4657 0.18381 0.0
H1004 H 0.36311 0.42905 0.22677 0.0
H1005 H 0.44799 0.34962 0.10946 0.0
H1006 H 0.48314 0.39737 0.07346 0.0
H1007 H 0.39699 0.46958 0.09851 0.0
C1008 C 0.31876 0.35891 0.18064 0.0
C1009 C 0.32188 0.32274 0.19195 0.0
C1010 C 0.35292 0.30496 0.1774 0.0
C1011 C 0.381 0.32276 0.15444 0.0
C1012 C 0.37767 0.35843 0.1454 0.0
C1013 C 0.34729 0.3764 0.15696 0.0
C1014 C 0.35129 0.4149 0.14263 0.0
C1015 C 0.32574 0.42508 0.09731 0.0
C1016 C 0.34629 0.43813 0.19302 0.0
C1017 C 0.38891 0.41567 0.12244 0.0
C1018 C 0.40323 0.38254 0.12443 0.0
C1019 C 0.4371 0.37568 0.10752 0.0
C1020 C 0.45689 0.40316 0.08706 0.0
C1021 C 0.44304 0.43744 0.0832 0.0
C1022 C 0.40851 0.44383 0.10159 0.0
H1023 H 0.42756 0.60306 0.99854 0.0
H1024 H 0.43682 0.52385 0.87316 0.0
H1025 H 0.3939 0.55524 0.81787 0.0
H1026 H 0.33507 0.62313 0.98154 0.0
H1027 H 0.34077 0.66953 0.99069 0.0
H1028 H 0.37009 0.63942 0.02344 0.0
H1029 H 0.4228 0.66995 0.97873 0.0
H1030 H 0.39372 0.7002 0.94588 0.0
H1031 H 0.42392 0.67465 0.90612 0.0
H1032 H 0.34994 0.59406 0.77607 0.0
H1033 H 0.31157 0.64129 0.74555 0.0
H1034 H 0.33402 0.70015 0.89216 0.0
C1035 C 0.42009 0.59187 0.96022 0.0
C1036 C 0.43512 0.56021 0.94131 0.0
C1037 C 0.42543 0.54754 0.88937 0.0
C1038 C 0.40096 0.56525 0.85747 0.0
C1039 C 0.38676 0.59625 0.87726 0.0
C1040 C 0.39622 0.60986 0.92702 0.0
C1041 C 0.37893 0.64526 0.93632 0.0
C1042 C 0.35477 0.64426 0.98595 0.0
C1043 C 0.40649 0.67423 0.9421 0.0
C1044 C 0.35815 0.64915 0.88407 0.0
C1045 C 0.36292 0.62024 0.85111 0.0
C1046 C 0.34642 0.61706 0.80116 0.0
C1047 C 0.32492 0.64435 0.78381 0.0
C1048 C 0.32056 0.67508 0.81533 0.0
C1049 C 0.337 0.67718 0.86679 0.0
H1050 H 0.20767 0.63596 0.71619 0.0
H1051 H 0.16577 0.73382 0.6569 0.0
H1052 H 0.11551 0.70238 0.61721 0.0
H1053 H 0.18431 0.58624 0.5975 0.0
H1054 H 0.17406 0.54683 0.63376 0.0
H1055 H 0.20572 0.57699 0.6609 0.0
H1056 H 0.17027 0.58297 0.75105 0.0
H1057 H 0.14097 0.55074 0.72348 0.0
H1058 H 0.12415 0.59216 0.74709 0.0
H1059 H 0.07129 0.66099 0.58158 0.0
H1060 H 0.03529 0.61165 0.55023 0.0
H1061 H 0.10519 0.53892 0.62974 0.0
C1062 C 0.18762 0.65063 0.69529 0.0
C1063 C 0.19032 0.68728 0.68969 0.0
C1064 C 0.16411 0.70572 0.66136 0.0
C1065 C 0.13544 0.68811 0.63897 0.0
C1066 C 0.13356 0.65195 0.64471 0.0
C1067 C 0.15895 0.63329 0.67188 0.0
C1068 C 0.15144 0.5943 0.66921 0.0
C1069 C 0.18062 0.57496 0.63852 0.0
C1070 C 0.14638 0.57919 0.72615 0.0
C1071 C 0.11753 0.59403 0.63712 0.0
C1072 C 0.10794 0.62771 0.62336 0.0
C1073 C 0.07845 0.63455 0.59226 0.0
C1074 C 0.05829 0.60633 0.57437 0.0
C1075 C 0.06752 0.57154 0.58738 0.0
C1076 C 0.09734 0.56529 0.6198 0.0
H1077 H 0.17091 0.30864 0.39612 0.0
H1078 H 0.22068 0.37976 0.28396 0.0
H1079 H 0.1872 0.42886 0.32272 0.0
H1080 H 0.08636 0.34801 0.38905 0.0
H1081 H 0.07613 0.34151 0.45955 0.0
H1082 H 0.10561 0.31209 0.42542 0.0
H1083 H 0.15284 0.32463 0.49811 0.0
H1084 H 0.12357 0.35427 0.53235 0.0
H1085 H 0.16605 0.36906 0.51124 0.0
H1086 H 0.14756 0.46988 0.37087 0.0
H1087 H 0.10132 0.50008 0.4218 0.0
H1088 H 0.07561 0.40299 0.50281 0.0
C1089 C 0.17483 0.33464 0.38016 0.0
C1090 C 0.19822 0.34044 0.3369 0.0
C1091 C 0.20254 0.3747 0.31661 0.0
C1092 C 0.18388 0.40281 0.33867 0.0
C1093 C 0.16086 0.39629 0.38099 0.0
C1094 C 0.15603 0.36309 0.40142 0.0
C1095 C 0.12819 0.36321 0.44515 0.0
C1096 C 0.09724 0.33982 0.4288 0.0
C1097 C 0.14359 0.35214 0.49997 0.0
C1098 C 0.11798 0.40156 0.44562 0.0
C1099 C 0.13748 0.42014 0.40863 0.0
C1100 C 0.1322 0.45567 0.40016 0.0
C1101 C 0.10576 0.47261 0.42938 0.0
C1102 C 0.08467 0.45407 0.46662 0.0
C1103 C 0.09144 0.41813 0.47537 0.0
H1104 H 0.93967 0.94059 0.89092 0.0
H1105 H 0.9912 0.04119 0.87717 0.0
H1106 H 0.01117 0.03638 0.97147 0.0
H1107 H 0.90785 0.95617 0.02737 0.0
H1108 H 0.91295 0.91121 0.04731 0.0
H1109 H 0.90404 0.92172 0.97766 0.0
H1110 H 0.95911 0.88752 0.94808 0.0
H1111 H 0.96849 0.87712 1.01765 0.0
H1112 H 1.00086 0.8988 0.977 0.0
H1113 H 0.02764 0.01968 0.06613 0.0
H1114 H 0.03505 0.99508 0.15708 0.0
H1115 H 0.96619 0.90912 0.11336 0.0
C1116 C 0.95469 0.9619 0.90761 0.0
C1117 C 0.96416 0.99098 0.87557 0.0
C1118 C 0.98436 0.01801 0.89967 0.0
C1119 C 0.99563 0.01572 0.9536 0.0
C1120 C 0.98599 0.98659 0.98355 0.0
C1121 C 0.9655 0.96042 0.96174 0.0
C1122 C 0.9577 0.93251 1.00338 0.0
C1123 C 0.9183 0.9303 1.0146 0.0
C1124 C 0.97243 0.89689 0.98544 0.0
C1125 C 0.97734 0.947 0.05189 0.0
C1126 C 0.99372 0.97802 0.03933 0.0
C1127 C 0.01439 0.99573 0.0768 0.0
C1128 C 0.01814 0.98161 0.12875 0.0
C1129 C 1.00074 0.95032 0.14348 0.0
C1130 C 0.98015 0.93288 0.10398 0.0
H1131 H 0.20828 0.81773 0.3746 0.0
H1132 H 0.30232 0.75538 0.39209 0.0
H1133 H 0.2949 0.73312 0.29891 0.0
H1134 H 0.15977 0.75557 0.2946 0.0
H1135 H 0.1399 0.78821 0.25214 0.0
H1136 H 0.15219 0.79901 0.32067 0.0
H1137 H 0.18981 0.85036 0.28574 0.0
H1138 H 0.17756 0.83979 0.21713 0.0
H1139 H 0.22302 0.84207 0.23561 0.0
H1140 H 0.27785 0.71799 0.20364 0.0
H1141 H 0.25218 0.71099 0.11254 0.0
H1142 H 0.16996 0.78416 0.15553 0.0
C1143 C 0.22743 0.79954 0.35877 0.0
C1144 C 0.25577 0.78815 0.39099 0.0
C1145 C 0.28004 0.76405 0.36872 0.0
C1146 C 0.27618 0.7514 0.31565 0.0
C1147 C 0.24795 0.76308 0.28513 0.0
C1148 C 0.22398 0.78662 0.30577 0.0
C1149 C 0.19611 0.7951 0.26418 0.0
C1150 C 0.15985 0.78379 0.2841 0.0
C1151 C 0.19668 0.83415 0.24982 0.0
C1152 C 0.20823 0.7727 0.21695 0.0
C1153 C 0.23818 0.75446 0.22995 0.0
C1154 C 0.25444 0.73221 0.19293 0.0
C1155 C 0.23976 0.72857 0.14114 0.0
C1156 C 0.20911 0.74709 0.12667 0.0
C1157 C 0.19318 0.76934 0.16541 0.0
H1158 H 0.47208 0.9807 0.62076 0.0
H1159 H 0.48414 0.09015 0.66445 0.0
H1160 H 0.50468 0.10265 0.572 0.0
H1161 H 0.54607 0.97407 0.53264 0.0
H1162 H 0.52453 0.94591 0.48437 0.0
H1163 H 0.51174 0.94526 0.55455 0.0
H1164 H 0.44785 0.95844 0.52704 0.0
H1165 H 0.46042 0.95917 0.45676 0.0
H1166 H 0.43845 0.99629 0.48635 0.0
H1167 H 0.52449 0.10334 0.4746 0.0
H1168 H 0.54069 0.09229 0.37911 0.0
H1169 H 0.51249 0.98326 0.3968 0.0
C1170 C 0.47866 0.00742 0.61101 0.0
C1171 C 0.47654 0.03437 0.65061 0.0
C1172 C 0.4861 0.0688 0.63568 0.0
C1173 C 0.49755 0.07627 0.58295 0.0
C1174 C 0.49912 0.04914 0.54513 0.0
C1175 C 0.48979 0.01543 0.55839 0.0
C1176 C 0.4934 0.9911 0.50992 0.0
C1177 C 0.52056 0.96239 0.52105 0.0
C1178 C 0.45791 0.97533 0.49409 0.0
C1179 C 0.50625 0.01641 0.46728 0.0
C1180 C 0.50957 0.04972 0.48858 0.0
C1181 C 0.52185 0.07739 0.45749 0.0
C1182 C 0.53109 0.07084 0.40335 0.0
C1183 C 0.52777 0.03696 0.3805 0.0
C1184 C 0.51492 0.0095 0.41298 0.0
H1185 H 0.23112 0.19259 0.87921 0.0
H1186 H 0.23488 0.30468 0.90472 0.0
H1187 H 0.25746 0.31225 0.81142 0.0
H1188 H 0.31009 0.18616 0.80042 0.0
H1189 H 0.2931 0.15237 0.75666 0.0
H1190 H 0.2775 0.15632 0.8252 0.0
H1191 H 0.21403 0.16091 0.78949 0.0
H1192 H 0.22948 0.15731 0.7208 0.0
H1193 H 0.20313 0.19419 0.74089 0.0
H1194 H 0.27752 0.30718 0.71259 0.0
H1195 H 0.29909 0.28948 0.62174 0.0
H1196 H 0.28289 0.18077 0.66297 0.0
C1197 C 0.23671 0.21876 0.86521 0.0
C1198 C 0.23111 0.24809 0.89924 0.0
C1199 C 0.23922 0.28183 0.87956 0.0
C1200 C 0.25178 0.28637 0.82647 0.0
C1201 C 0.25636 0.25689 0.79366 0.0
C1202 C 0.24946 0.2237 0.81265 0.0
C1203 C 0.25722 0.19617 0.77001 0.0
C1204 C 0.2862 0.1713 0.78922 0.0
C1205 C 0.22398 0.17597 0.75439 0.0
C1206 C 0.26957 0.21896 0.72391 0.0
C1207 C 0.26858 0.25395 0.73794 0.0
C1208 C 0.27852 0.27983 0.70138 0.0
C1209 C 0.29049 0.26959 0.64974 0.0
C1210 C 0.29279 0.23379 0.63537 0.0
C1211 C 0.2817 0.20834 0.67293 0.0
H1212 H 0.8325 0.31262 0.864 0.0
H1213 H 0.81911 0.2047 0.91153 0.0
H1214 H 0.7992 0.18984 0.81861 0.0
H1215 H 0.75564 0.31694 0.78587 0.0
H1216 H 0.77343 0.3455 0.7351 0.0
H1217 H 0.79055 0.34657 0.80298 0.0
H1218 H 0.8527 0.33469 0.76571 0.0
H1219 H 0.83568 0.33348 0.69763 0.0
H1220 H 0.86027 0.29696 0.72327 0.0
H1221 H 0.77896 0.18737 0.72118 0.0
H1222 H 0.75381 0.19862 0.63035 0.0
H1223 H 0.77686 0.30885 0.6488 0.0
C1224 C 0.82597 0.28577 0.85434 0.0
C1225 C 0.82774 0.25961 0.8943 0.0
C1226 C 0.8181 0.22494 0.88106 0.0
C1227 C 0.80696 0.21629 0.82846 0.0
C1228 C 0.80531 0.24274 0.78987 0.0
C1229 C 0.81421 0.27687 0.80235 0.0
C1230 C 0.807 0.30099 0.75517 0.0
C1231 C 0.78005 0.32915 0.77072 0.0
C1232 C 0.84094 0.3175 0.73421 0.0
C1233 C 0.79216 0.27523 0.71449 0.0
C1234 C 0.79209 0.24164 0.73479 0.0
C1235 C 0.77903 0.21354 0.7048 0.0
C1236 C 0.76498 0.22009 0.65326 0.0
C1237 C 0.76356 0.25451 0.63282 0.0
C1238 C 0.77779 0.28227 0.66358 0.0
H1239 H 0.81625 0.82703 0.40145 0.0
H1240 H 0.73886 0.74517 0.42034 0.0
H1241 H 0.75158 0.72395 0.32815 0.0
H1242 H 0.796 0.8466 0.26428 0.0
H1243 H 0.84053 0.85446 0.24429 0.0
H1244 H 0.8274 0.86195 0.31339 0.0
H1245 H 0.87585 0.82006 0.3468 0.0
H1246 H 0.88929 0.8126 0.27779 0.0
H1247 H 0.8779 0.77617 0.32021 0.0
H1248 H 0.77061 0.71277 0.23308 0.0
H1249 H 0.79452 0.71265 0.14045 0.0
H1250 H 0.85818 0.80292 0.18078 0.0
C1251 C 0.802 0.80462 0.38626 0.0
C1252 C 0.77673 0.78761 0.41862 0.0
C1253 C 0.75885 0.75824 0.39706 0.0
C1254 C 0.76573 0.74608 0.3445 0.0
C1255 C 0.79059 0.7635 0.31374 0.0
C1256 C 0.80851 0.79211 0.3337 0.0
C1257 C 0.83315 0.80669 0.29137 0.0
C1258 C 0.82368 0.84467 0.27752 0.0
C1259 C 0.87131 0.80369 0.31017 0.0
C1260 C 0.82574 0.78216 0.24422 0.0
C1261 C 0.8013 0.75731 0.25827 0.0
C1262 C 0.78977 0.7321 0.22155 0.0
C1263 C 0.80334 0.7324 0.16887 0.0
C1264 C 0.82809 0.75788 0.15304 0.0
C1265 C 0.83959 0.78287 0.19164 0.0
H1266 H 0.52851 0.5497 0.61669 0.0
H1267 H 0.54816 0.44122 0.65737 0.0
H1268 H 0.53604 0.4241 0.5627 0.0
H1269 H 0.45843 0.53432 0.52536 0.0
H1270 H 0.47081 0.56815 0.47867 0.0
H1271 H 0.48201 0.57211 0.54929 0.0
H1272 H 0.54716 0.57934 0.52383 0.0
H1273 H 0.53616 0.57541 0.45307 0.0
H1274 H 0.56813 0.54656 0.48243 0.0
H1275 H 0.51961 0.41834 0.46469 0.0
H1276 H 0.50043 0.42449 0.36962 0.0
H1277 H 0.49319 0.53679 0.39129 0.0
C1278 C 0.5308 0.52239 0.60559 0.0
C1279 C 0.53924 0.4968 0.64474 0.0
C1280 C 0.54128 0.46128 0.62848 0.0
C1281 C 0.53469 0.4513 0.57466 0.0
C1282 C 0.52624 0.47715 0.53732 0.0
C1283 C 0.5244 0.51198 0.55196 0.0
C1284 C 0.51401 0.53445 0.50411 0.0
C1285 C 0.47925 0.55336 0.51502 0.0
C1286 C 0.54311 0.56048 0.49003 0.0
C1287 C 0.51005 0.50676 0.46037 0.0
C1288 C 0.51724 0.47388 0.48046 0.0
C1289 C 0.51413 0.44397 0.44843 0.0
C1290 C 0.50312 0.4477 0.39458 0.0
C1291 C 0.49545 0.48109 0.37311 0.0
C1292 C 0.49936 0.511 0.40642 0.0
H1293 H 0.02274 0.52707 0.92122 0.0
H1294 H 0.00825 0.41788 0.87795 0.0
H1295 H 0.98767 0.40602 0.97078 0.0
H1296 H 0.05705 0.5115 0.05417 0.0
H1297 H 0.03598 0.54903 0.08415 0.0
H1298 H 0.0477 0.54937 1.01351 0.0
H1299 H 0.9837 0.56336 0.98764 0.0
H1300 H 0.9718 0.56323 0.0582 0.0
H1301 H 0.94921 0.53521 1.01091 0.0
H1302 H 0.96837 0.40612 0.06934 0.0
H1303 H 0.95274 0.41823 0.16503 0.0
H1304 H 0.98419 0.52611 0.14582 0.0
C1305 C 0.0156 0.50051 0.93103 0.0
C1306 C 0.01729 0.47343 0.89154 0.0
C1307 C 0.00678 0.43931 0.90664 0.0
C1308 C 0.9953 0.43222 0.95961 0.0
C1309 C 0.99458 0.45942 0.99748 0.0
C1310 C 1.00451 0.49289 0.98383 0.0
C1311 C 1.00189 0.51743 0.03221 0.0
C1312 C 0.0378 0.53272 0.04687 0.0
C1313 C 0.97506 0.54652 0.02159 0.0
C1314 C 0.98916 0.49252 0.07548 0.0
C1315 C 0.98478 0.45922 0.05448 0.0
C1316 C 0.97201 0.43202 0.08619 0.0
C1317 C 0.96326 0.43908 0.14047 0.0
C1318 C 0.96779 0.47291 0.16288 0.0
C1319 C 0.98116 0.49986 0.12995 0.0
loop_
_geom_bond_atom_site_label_1
_geom_bond_atom_site_label_2
_geom_bond_distance
_geom_bond_site_symmetry_2
_ccdc_geom_bond_type
C0 C2 1.422 . S
C0 C4 1.415 . S
C0 N6 1.369 1_655 S
C1 C2 1.421 . S
C1 C3 1.417 . S
C1 C13 1.422 . S
C2 C0 1.422 . S
C2 C1 1.421 . S
C2 N12 1.359 . S
C3 C1 1.417 . S
C3 C5 1.329 . S
C3 H22 0.930 . S
C4 C0 1.415 . S
C4 C5 1.437 . S
C4 C8 1.413 1_655 S
C5 C3 1.329 . S
C5 C4 1.437 . S
C5 H27 0.929 . S
N6 C0 1.369 1_455 S
N6 C7 1.338 . S
N6 Gd11 2.622 . S
C7 N6 1.338 . S
C7 C9 1.378 . S
C7 H19 0.929 . S
C8 C4 1.413 1_455 S
C8 C9 1.348 . S
C8 H24 0.931 . S
C9 C7 1.378 . S
C9 C8 1.348 . S
C9 H25 0.930 . S
Gd10 N30 2.623 . S
Gd10 N37 2.546 1_655 S
Gd10 O44 2.371 1_545 S
Gd10 O45 2.463 1_655 S
Gd10 O46 2.443 . S
Gd10 O48 2.410 . S
Gd10 O49 2.371 1_655 S
Gd10 O53 2.288 1_645 S
Gd10 C63 2.811 . S
Gd11 N6 2.622 . S
Gd11 N12 2.570 1_455 S
Gd11 O43 2.386 1_455 S
Gd11 O47 2.307 1_465 S
Gd11 O50 2.353 1_565 S
Gd11 O51 2.468 1_455 S
Gd11 O52 2.427 . S
Gd11 O54 2.388 . S
Gd11 C75 2.805 . S
N12 C2 1.359 . S
N12 Gd11 2.570 1_655 S
N12 C14 1.343 . S
C13 C1 1.422 . S
C13 C15 1.321 . S
C13 H21 0.931 . S
C14 N12 1.343 . S
C14 C15 1.390 . S
C14 H16 0.931 . S
C15 C13 1.321 . S
C15 C14 1.390 . S
C15 H17 0.930 . S
H16 C14 0.931 . S
H17 C15 0.930 . S
H18 C41 0.931 . S
H19 C7 0.929 . S
H20 C42 0.930 . S
H21 C13 0.931 . S
H22 C3 0.930 . S
H23 C32 0.929 . S
H24 C8 0.931 . S
H25 C9 0.930 . S
H26 C64 0.930 . S
H27 C5 0.929 . S
H28 C33 0.931 . S
H29 C34 0.930 . S
N30 Gd10 2.623 . S
N30 C31 1.369 1_655 S
N30 C32 1.338 . S
C31 N30 1.369 1_455 S
C31 C35 1.415 . S
C31 C38 1.422 . S
C32 H23 0.929 . S
C32 N30 1.338 . S
C32 C34 1.378 . S
C33 H28 0.931 . S
C33 C34 1.348 . S
C33 C35 1.413 1_655 S
C34 H29 0.930 . S
C34 C32 1.378 . S
C34 C33 1.348 . S
C35 C31 1.415 . S
C35 C33 1.413 1_455 S
C35 C65 1.437 . S
H36 C65 0.929 . S
N37 Gd10 2.546 1_455 S
N37 C38 1.359 . S
N37 C41 1.343 . S
C38 C31 1.422 . S
C38 N37 1.359 . S
C38 C40 1.421 . S
C39 C40 1.422 . S
C39 C42 1.321 . S
C39 H66 0.931 . S
C40 C38 1.421 . S
C40 C39 1.422 . S
C40 C64 1.417 . S
C41 H18 0.931 . S
C41 N37 1.343 . S
C41 C42 1.390 . S
C42 H20 0.930 . S
C42 C39 1.321 . S
C42 C41 1.390 . S
O43 Gd11 2.386 1_655 S
O43 C55 1.265 . S
O44 Gd10 2.371 1_565 S
O44 C55 1.242 . S
O45 Gd10 2.463 1_455 S
O45 C63 1.263 1_455 S
O46 Gd10 2.443 . S
O46 C63 1.252 . S
O47 Gd11 2.307 1_645 S
O47 C56 1.261 . S
O48 Gd10 2.410 . S
O48 C56 1.252 . S
O49 Gd10 2.371 1_455 S
O49 C67 1.265 . S
O50 Gd11 2.353 1_545 S
O50 C67 1.242 . S
O51 Gd11 2.468 1_655 S
O51 C75 1.263 1_655 S
O52 Gd11 2.427 . S
O52 C75 1.252 . S
O53 Gd10 2.288 1_465 S
O53 C68 1.261 . S
O54 Gd11 2.388 . S
O54 C68 1.252 . S
C55 O43 1.265 . S
C55 O44 1.242 . S
C56 O47 1.261 . S
C56 O48 1.252 . S
C57 C60 1.394 . S
C57 C62 1.370 . S
C57 C63 1.500 . S
C58 C61 1.383 . S
C58 C62 1.395 . S
C59 C60 1.396 . S
C59 C61 1.365 . S
C59 H76 0.929 . S
C60 C57 1.394 . S
C60 C59 1.396 . S
C60 H77 0.930 . S
C61 C58 1.383 . S
C61 C59 1.365 . S
C61 H78 0.931 . S
C62 C57 1.370 . S
C62 C58 1.395 . S
C62 H79 0.930 1_645 S
C63 Gd10 2.811 . S
C63 O45 1.263 1_655 S
C63 O46 1.252 . S
C63 C57 1.500 . S
C64 H26 0.930 . S
C64 C40 1.417 . S
C64 C65 1.329 . S
C65 C35 1.437 . S
C65 H36 0.929 . S
C65 C64 1.329 . S
H66 C39 0.931 . S
C67 O49 1.265 . S
C67 O50 1.242 . S
C68 O53 1.261 . S
C68 O54 1.252 . S
C69 C72 1.394 . S
C69 C74 1.370 . S
C69 C75 1.500 . S
C70 C73 1.383 . S
C70 C74 1.395 . S
C71 C72 1.396 . S
C71 C73 1.365 . S
C71 H80 0.929 . S
C72 C69 1.394 . S
C72 C71 1.396 . S
C72 H81 0.930 . S
C73 C70 1.383 . S
C73 C71 1.365 . S
C73 H82 0.931 . S
C74 C69 1.370 . S
C74 C70 1.395 . S
C74 H83 0.930 1_465 S
C75 Gd11 2.805 . S
C75 O51 1.263 1_455 S
C75 O52 1.252 . S
C75 C69 1.500 . S
H76 C59 0.929 . S
H77 C60 0.930 . S
H78 C61 0.931 . S
H79 C62 0.930 1_465 S
H80 C71 0.929 . S
H81 C72 0.930 . S
H82 C73 0.931 . S
H83 C74 0.930 1_645 S
C84 C86 1.422 . S
C84 C88 1.415 . S
C84 N90 1.369 . S
C85 C86 1.421 . S
C85 C87 1.417 . S
C85 C97 1.422 . S
C86 C84 1.422 . S
C86 C85 1.421 . S
C86 N96 1.359 . S
C87 C85 1.417 . S
C87 C89 1.329 . S
C87 H106 0.930 . S
C88 C84 1.415 . S
C88 C89 1.437 . S
C88 C92 1.413 . S
C89 C87 1.329 . S
C89 C88 1.437 . S
C89 H111 0.929 . S
N90 C84 1.369 . S
N90 C91 1.338 . S
N90 Gd95 2.622 . S
C91 N90 1.338 . S
C91 C93 1.378 . S
C91 H103 0.929 . S
C92 C88 1.413 . S
C92 C93 1.348 . S
C92 H108 0.931 . S
C93 C91 1.378 . S
C93 C92 1.348 . S
C93 H109 0.930 . S
Gd94 N114 2.622 . S
Gd94 N121 2.570 . S
Gd94 O128 2.353 . S
Gd94 O129 2.468 . S
Gd94 O130 2.427 . S
Gd94 O132 2.388 . S
Gd94 O133 2.386 . S
Gd94 O137 2.307 . S
Gd94 C147 2.805 . S
Gd95 N90 2.622 . S
Gd95 N96 2.570 . S
Gd95 O127 2.386 . S
Gd95 O131 2.307 . S
Gd95 O134 2.353 . S
Gd95 O135 2.468 . S
Gd95 O136 2.427 . S
Gd95 O138 2.388 . S
Gd95 C159 2.805 . S
N96 C86 1.359 . S
N96 Gd95 2.570 . S
N96 C98 1.343 . S
C97 C85 1.422 . S
C97 C99 1.321 . S
C97 H105 0.931 . S
C98 N96 1.343 . S
C98 C99 1.390 . S
C98 H100 0.931 . S
C99 C97 1.321 . S
C99 C98 1.390 . S
C99 H101 0.930 . S
H100 C98 0.931 . S
H101 C99 0.930 . S
H102 C125 0.931 . S
H103 C91 0.929 . S
H104 C126 0.930 . S
H105 C97 0.931 . S
H106 C87 0.930 . S
H107 C116 0.929 . S
H108 C92 0.931 . S
H109 C93 0.930 . S
H110 C148 0.930 . S
H111 C89 0.929 . S
H112 C117 0.931 . S
H113 C118 0.930 . S
N114 Gd94 2.622 . S
N114 C115 1.369 . S
N114 C116 1.338 . S
C115 N114 1.369 . S
C115 C119 1.415 . S
C115 C122 1.422 . S
C116 H107 0.929 . S
C116 N114 1.338 . S
C116 C118 1.378 . S
C117 H112 0.931 . S
C117 C118 1.348 . S
C117 C119 1.413 . S
C118 H113 0.930 . S
C118 C116 1.378 . S
C118 C117 1.348 . S
C119 C115 1.415 . S
C119 C117 1.413 . S
C119 C149 1.437 . S
H120 C149 0.929 . S
N121 Gd94 2.570 . S
N121 C122 1.359 . S
N121 C125 1.343 . S
C122 C115 1.422 . S
C122 N121 1.359 . S
C122 C124 1.421 . S
C123 C124 1.422 . S
C123 C126 1.321 . S
C123 H150 0.931 . S
C124 C122 1.421 . S
C124 C123 1.422 . S
C124 C148 1.417 . S
C125 H102 0.931 . S
C125 N121 1.343 . S
C125 C126 1.390 . S
C126 H104 0.930 . S
C126 C123 1.321 . S
C126 C125 1.390 . S
O127 Gd95 2.386 . S
O127 C139 1.265 . S
O128 Gd94 2.353 . S
O128 C139 1.242 . S
O129 Gd94 2.468 . S
O129 C147 1.263 . S
O130 Gd94 2.427 . S
O130 C147 1.252 . S
O131 Gd95 2.307 . S
O131 C140 1.261 . S
O132 Gd94 2.388 . S
O132 C140 1.252 . S
O133 Gd94 2.386 . S
O133 C151 1.265 . S
O134 Gd95 2.353 . S
O134 C151 1.242 . S
O135 Gd95 2.468 . S
O135 C159 1.263 . S
O136 Gd95 2.427 . S
O136 C159 1.252 . S
O137 Gd94 2.307 . S
O137 C152 1.261 . S
O138 Gd95 2.388 . S
O138 C152 1.252 . S
C139 O127 1.265 . S
C139 O128 1.242 . S
C140 O131 1.261 . S
C140 O132 1.252 . S
C141 C144 1.394 1_556 S
C141 C146 1.370 1_556 S
C141 C147 1.500 . S
C142 C145 1.383 . S
C142 C146 1.395 . S
C143 C144 1.396 . S
C143 C145 1.365 . S
C143 H160 0.929 . S
C144 C141 1.394 1_554 S
C144 C143 1.396 . S
C144 H161 0.930 1_554 S
C145 C142 1.383 . S
C145 C143 1.365 . S
C145 H162 0.931 . S
C146 C141 1.370 1_554 S
C146 C142 1.395 . S
C146 H163 0.936 . S
C147 Gd94 2.805 . S
C147 O129 1.263 . S
C147 O130 1.252 . S
C147 C141 1.500 . S
C148 H110 0.930 . S
C148 C124 1.417 . S
C148 C149 1.329 . S
C149 C119 1.437 . S
C149 H120 0.929 . S
C149 C148 1.329 . S
H150 C123 0.931 . S
C151 O133 1.265 . S
C151 O134 1.242 . S
C152 O137 1.261 . S
C152 O138 1.252 . S
C153 C156 1.394 . S
C153 C158 1.370 . S
C153 C159 1.500 . S
C154 C157 1.383 . S
C154 C158 1.395 . S
C155 C156 1.396 . S
C155 C157 1.365 . S
C155 H164 0.929 . S
C156 C153 1.394 . S
C156 C155 1.396 . S
C156 H165 0.930 . S
C157 C154 1.383 . S
C157 C155 1.365 . S
C157 H166 0.931 . S
C158 C153 1.370 . S
C158 C154 1.395 . S
C158 H167 0.930 . S
C159 Gd95 2.805 . S
C159 O135 1.263 . S
C159 O136 1.252 . S
C159 C153 1.500 . S
H160 C143 0.929 . S
H161 C144 0.930 1_556 S
H162 C145 0.931 . S
H163 C146 0.936 . S
H164 C155 0.929 . S
H165 C156 0.930 . S
H166 C157 0.931 . S
H167 C158 0.930 . S
C168 C170 1.422 . S
C168 C172 1.415 . S
C168 N174 1.369 . S
C169 C170 1.421 . S
C169 C171 1.417 . S
C169 C181 1.422 . S
C170 C168 1.422 . S
C170 C169 1.421 . S
C170 N180 1.359 . S
C171 C169 1.417 . S
C171 C173 1.329 . S
C171 H190 0.930 . S
C172 C168 1.415 . S
C172 C173 1.437 . S
C172 C176 1.413 . S
C173 C171 1.329 . S
C173 C172 1.437 . S
C173 H195 0.929 . S
N174 C168 1.369 . S
N174 C175 1.338 . S
N174 Gd179 2.622 . S
C175 N174 1.338 . S
C175 C177 1.378 . S
C175 H187 0.929 . S
C176 C172 1.413 . S
C176 C177 1.348 . S
C176 H192 0.931 . S
C177 C175 1.378 . S
C177 C176 1.348 . S
C177 H193 0.930 . S
Gd178 N198 2.622 . S
Gd178 N205 2.570 . S
Gd178 O212 2.353 1_565 S
Gd178 O213 2.468 . S
Gd178 O214 2.427 . S
Gd178 O216 2.388 . S
Gd178 O217 2.386 1_554 S
Gd178 O221 2.307 1_565 S
Gd178 C231 2.805 . S
Gd179 N174 2.622 . S
Gd179 N180 2.570 . S
Gd179 O211 2.386 1_556 S
Gd179 O215 2.307 1_545 S
Gd179 O218 2.353 1_545 S
Gd179 O219 2.468 . S
Gd179 O220 2.427 . S
Gd179 O222 2.388 . S
Gd179 C243 2.805 . S
N180 C170 1.359 . S
N180 Gd179 2.570 . S
N180 C182 1.343 . S
C181 C169 1.422 . S
C181 C183 1.321 . S
C181 H189 0.931 . S
C182 N180 1.343 . S
C182 C183 1.390 . S
C182 H184 0.931 . S
C183 C181 1.321 . S
C183 C182 1.390 . S
C183 H185 0.930 . S
H184 C182 0.931 . S
H185 C183 0.930 . S
H186 C209 0.931 . S
H187 C175 0.929 . S
H188 C210 0.930 . S
H189 C181 0.931 . S
H190 C171 0.930 . S
H191 C200 0.929 . S
H192 C176 0.931 . S
H193 C177 0.930 . S
H194 C232 0.930 . S
H195 C173 0.929 . S
H196 C201 0.931 . S
H197 C202 0.930 . S
N198 Gd178 2.622 . S
N198 C199 1.369 . S
N198 C200 1.338 . S
C199 N198 1.369 . S
C199 C203 1.415 . S
C199 C206 1.422 . S
C200 H191 0.929 . S
C200 N198 1.338 . S
C200 C202 1.378 . S
C201 H196 0.931 . S
C201 C202 1.348 . S
C201 C203 1.413 . S
C202 H197 0.930 . S
C202 C200 1.378 . S
C202 C201 1.348 . S
C203 C199 1.415 . S
C203 C201 1.413 . S
C203 C233 1.437 . S
H204 C233 0.929 . S
N205 Gd178 2.570 . S
N205 C206 1.359 . S
N205 C209 1.343 . S
C206 C199 1.422 . S
C206 N205 1.359 . S
C206 C208 1.421 . S
C207 C208 1.422 . S
C207 C210 1.321 . S
C207 H234 0.931 . S
C208 C206 1.421 . S
C208 C207 1.422 . S
C208 C232 1.417 . S
C209 H186 0.931 . S
C209 N205 1.343 . S
C209 C210 1.390 . S
C210 H188 0.930 . S
C210 C207 1.321 . S
C210 C209 1.390 . S
O211 Gd179 2.386 1_554 S
O211 C223 1.265 . S
O212 Gd178 2.353 1_545 S
O212 C223 1.242 . S
O213 Gd178 2.468 . S
O213 C231 1.263 . S
O214 Gd178 2.427 . S
O214 C231 1.252 . S
O215 Gd179 2.307 1_565 S
O215 C224 1.261 . S
O216 Gd178 2.388 . S
O216 C224 1.252 1_554 S
O217 Gd178 2.386 1_556 S
O217 C235 1.265 . S
O218 Gd179 2.353 1_565 S
O218 C235 1.242 . S
O219 Gd179 2.468 . S
O219 C243 1.263 . S
O220 Gd179 2.427 . S
O220 C243 1.252 . S
O221 Gd178 2.307 1_545 S
O221 C236 1.261 . S
O222 Gd179 2.388 . S
O222 C236 1.252 1_556 S
C223 O211 1.265 . S
C223 O212 1.242 . S
C224 O215 1.261 . S
C224 O216 1.252 1_556 S
C225 C228 1.394 . S
C225 C230 1.370 . S
C225 C231 1.500 . S
C226 C229 1.383 . S
C226 C230 1.395 . S
C227 C228 1.396 . S
C227 C229 1.365 . S
C227 H244 0.929 . S
C228 C225 1.394 . S
C228 C227 1.396 . S
C228 H245 0.930 . S
C229 C226 1.383 . S
C229 C227 1.365 . S
C229 H246 0.931 . S
C230 C225 1.370 . S
C230 C226 1.395 . S
C230 H247 0.930 1_565 S
C231 Gd178 2.805 . S
C231 O213 1.263 . S
C231 O214 1.252 . S
C231 C225 1.500 . S
C232 H194 0.930 . S
C232 C208 1.417 . S
C232 C233 1.329 . S
C233 C203 1.437 . S
C233 H204 0.929 . S
C233 C232 1.329 . S
H234 C207 0.931 . S
C235 O217 1.265 . S
C235 O218 1.242 . S
C236 O221 1.261 . S
C236 O222 1.252 1_554 S
C237 C240 1.394 . S
C237 C242 1.370 . S
C237 C243 1.500 . S
C238 C241 1.383 . S
C238 C242 1.395 . S
C239 C240 1.396 . S
C239 C241 1.365 . S
C239 H248 0.929 . S
C240 C237 1.394 . S
C240 C239 1.396 . S
C240 H249 0.930 . S
C241 C238 1.383 . S
C241 C239 1.365 . S
C241 H250 0.931 . S
C242 C237 1.370 . S
C242 C238 1.395 . S
C242 H251 0.930 1_545 S
C243 Gd179 2.805 . S
C243 O219 1.263 . S
C243 O220 1.252 . S
C243 C237 1.500 . S
H244 C227 0.929 . S
H245 C228 0.930 . S
H246 C229 0.931 . S
H247 C230 0.930 1_545 S
H248 C239 0.929 . S
H249 C240 0.930 . S
H250 C241 0.931 . S
H251 C242 0.930 1_565 S
C252 C254 1.422 . S
C252 C256 1.415 . S
C252 N258 1.369 . S
C253 C254 1.421 . S
C253 C255 1.417 . S
C253 C265 1.422 . S
C254 C252 1.422 . S
C254 C253 1.421 . S
C254 N264 1.359 . S
C255 C253 1.417 . S
C255 C257 1.329 . S
C255 H274 0.930 . S
C256 C252 1.415 . S
C256 C257 1.437 . S
C256 C260 1.413 . S
C257 C255 1.329 . S
C257 C256 1.437 . S
C257 H279 0.929 . S
N258 C252 1.369 . S
N258 C259 1.338 . S
N258 Gd263 2.622 . S
C259 N258 1.338 . S
C259 C261 1.378 . S
C259 H271 0.929 . S
C260 C256 1.413 . S
C260 C261 1.348 . S
C260 H276 0.931 . S
C261 C259 1.378 . S
C261 C260 1.348 . S
C261 H277 0.930 . S
Gd262 N282 2.622 . S
Gd262 N289 2.570 . S
Gd262 O296 2.353 . S
Gd262 O297 2.468 . S
Gd262 O298 2.427 . S
Gd262 O300 2.388 . S
Gd262 O301 2.386 . S
Gd262 O305 2.307 . S
Gd262 C315 2.805 . S
Gd263 N258 2.622 . S
Gd263 N264 2.570 . S
Gd263 O295 2.386 . S
Gd263 O299 2.307 . S
Gd263 O302 2.353 . S
Gd263 O303 2.468 . S
Gd263 O304 2.427 . S
Gd263 O306 2.388 . S
Gd263 C327 2.805 . S
N264 C254 1.359 . S
N264 Gd263 2.570 . S
N264 C266 1.343 . S
C265 C253 1.422 . S
C265 C267 1.321 . S
C265 H273 0.931 . S
C266 N264 1.343 . S
C266 C267 1.390 . S
C266 H268 0.931 . S
C267 C265 1.321 . S
C267 C266 1.390 . S
C267 H269 0.930 . S
H268 C266 0.931 . S
H269 C267 0.930 . S
H270 C293 0.931 . S
H271 C259 0.929 . S
H272 C294 0.930 . S
H273 C265 0.931 . S
H274 C255 0.930 . S
H275 C284 0.929 . S
H276 C260 0.931 . S
H277 C261 0.930 . S
H278 C316 0.930 . S
H279 C257 0.929 . S
H280 C285 0.931 . S
H281 C286 0.930 . S
N282 Gd262 2.622 . S
N282 C283 1.369 . S
N282 C284 1.338 . S
C283 N282 1.369 . S
C283 C287 1.415 . S
C283 C290 1.422 . S
C284 H275 0.929 . S
C284 N282 1.338 . S
C284 C286 1.378 . S
C285 H280 0.931 . S
C285 C286 1.348 . S
C285 C287 1.413 . S
C286 H281 0.930 . S
C286 C284 1.378 . S
C286 C285 1.348 . S
C287 C283 1.415 . S
C287 C285 1.413 . S
C287 C317 1.437 . S
H288 C317 0.929 . S
N289 Gd262 2.570 . S
N289 C290 1.359 . S
N289 C293 1.343 . S
C290 C283 1.422 . S
C290 N289 1.359 . S
C290 C292 1.421 . S
C291 C292 1.422 . S
C291 C294 1.321 . S
C291 H318 0.931 . S
C292 C290 1.421 . S
C292 C291 1.422 . S
C292 C316 1.417 . S
C293 H270 0.931 . S
C293 N289 1.343 . S
C293 C294 1.390 . S
C294 H272 0.930 . S
C294 C291 1.321 . S
C294 C293 1.390 . S
O295 Gd263 2.386 . S
O295 C307 1.265 . S
O296 Gd262 2.353 . S
O296 C307 1.242 . S
O297 Gd262 2.468 . S
O297 C315 1.263 . S
O298 Gd262 2.427 . S
O298 C315 1.252 . S
O299 Gd263 2.307 . S
O299 C308 1.261 . S
O300 Gd262 2.388 . S
O300 C308 1.252 . S
O301 Gd262 2.386 . S
O301 C319 1.265 . S
O302 Gd263 2.353 . S
O302 C319 1.242 . S
O303 Gd263 2.468 . S
O303 C327 1.263 . S
O304 Gd263 2.427 . S
O304 C327 1.252 . S
O305 Gd262 2.307 . S
O305 C320 1.261 . S
O306 Gd263 2.388 . S
O306 C320 1.252 . S
C307 O295 1.265 . S
C307 O296 1.242 . S
C308 O299 1.261 . S
C308 O300 1.252 . S
C309 C312 1.394 1_554 S
C309 C314 1.370 1_554 S
C309 C315 1.500 . S
C310 C313 1.383 . S
C310 C314 1.395 . S
C311 C312 1.396 . S
C311 C313 1.365 . S
C311 H328 0.929 . S
C312 C309 1.394 1_556 S
C312 C311 1.396 . S
C312 H329 0.930 1_556 S
C313 C310 1.383 . S
C313 C311 1.365 . S
C313 H330 0.931 . S
C314 C309 1.370 1_556 S
C314 C310 1.395 . S
C314 H331 0.936 . S
C315 Gd262 2.805 . S
C315 O297 1.263 . S
C315 O298 1.252 . S
C315 C309 1.500 . S
C316 H278 0.930 . S
C316 C292 1.417 . S
C316 C317 1.329 . S
C317 C287 1.437 . S
C317 H288 0.929 . S
C317 C316 1.329 . S
H318 C291 0.931 . S
C319 O301 1.265 . S
C319 O302 1.242 . S
C320 O305 1.261 . S
C320 O306 1.252 . S
C321 C324 1.394 . S
C321 C326 1.370 . S
C321 C327 1.500 . S
C322 C325 1.383 . S
C322 C326 1.395 . S
C323 C324 1.396 . S
C323 C325 1.365 . S
C323 H332 0.929 . S
C324 C321 1.394 . S
C324 C323 1.396 . S
C324 H333 0.930 . S
C325 C322 1.383 . S
C325 C323 1.365 . S
C325 H334 0.931 . S
C326 C321 1.370 . S
C326 C322 1.395 . S
C326 H335 0.930 . S
C327 Gd263 2.805 . S
C327 O303 1.263 . S
C327 O304 1.252 . S
C327 C321 1.500 . S
H328 C311 0.929 . S
H329 C312 0.930 1_554 S
H330 C313 0.931 . S
H331 C314 0.936 . S
H332 C323 0.929 . S
H333 C324 0.930 . S
H334 C325 0.931 . S
H335 C326 0.930 . S
C336 C338 1.422 . S
C336 C340 1.415 . S
C336 N342 1.369 . S
C337 C338 1.421 . S
C337 C339 1.417 . S
C337 C349 1.422 . S
C338 C336 1.422 . S
C338 C337 1.421 . S
C338 N348 1.359 . S
C339 C337 1.417 . S
C339 C341 1.329 . S
C339 H358 0.930 . S
C340 C336 1.415 . S
C340 C341 1.437 . S
C340 C344 1.413 . S
C341 C339 1.329 . S
C341 C340 1.437 . S
C341 H363 0.929 . S
N342 C336 1.369 . S
N342 C343 1.338 . S
N342 Gd347 2.622 . S
C343 N342 1.338 . S
C343 C345 1.378 . S
C343 H355 0.929 . S
C344 C340 1.413 . S
C344 C345 1.348 . S
C344 H360 0.931 . S
C345 C343 1.378 . S
C345 C344 1.348 . S
C345 H361 0.930 . S
Gd346 N366 2.622 . S
Gd346 N373 2.570 . S
Gd346 O380 2.353 . S
Gd346 O381 2.468 . S
Gd346 O382 2.427 . S
Gd346 O384 2.388 . S
Gd346 O385 2.386 . S
Gd346 O389 2.307 . S
Gd346 C399 2.805 . S
Gd347 N342 2.622 . S
Gd347 N348 2.570 . S
Gd347 O379 2.386 . S
Gd347 O383 2.307 . S
Gd347 O386 2.353 . S
Gd347 O387 2.468 . S
Gd347 O388 2.427 . S
Gd347 O390 2.388 . S
Gd347 C411 2.805 . S
N348 C338 1.359 . S
N348 Gd347 2.570 . S
N348 C350 1.343 . S
C349 C337 1.422 . S
C349 C351 1.321 . S
C349 H357 0.931 . S
C350 N348 1.343 . S
C350 C351 1.390 . S
C350 H352 0.931 . S
C351 C349 1.321 . S
C351 C350 1.390 . S
C351 H353 0.930 . S
H352 C350 0.931 . S
H353 C351 0.930 . S
H354 C377 0.931 . S
H355 C343 0.929 . S
H356 C378 0.930 . S
H357 C349 0.931 . S
H358 C339 0.930 . S
H359 C368 0.929 . S
H360 C344 0.931 . S
H361 C345 0.930 . S
H362 C400 0.930 . S
H363 C341 0.929 . S
H364 C369 0.931 . S
H365 C370 0.930 . S
N366 Gd346 2.622 . S
N366 C367 1.369 . S
N366 C368 1.338 . S
C367 N366 1.369 . S
C367 C371 1.415 . S
C367 C374 1.422 . S
C368 H359 0.929 . S
C368 N366 1.338 . S
C368 C370 1.378 . S
C369 H364 0.931 . S
C369 C370 1.348 . S
C369 C371 1.413 . S
C370 H365 0.930 . S
C370 C368 1.378 . S
C370 C369 1.348 . S
C371 C367 1.415 . S
C371 C369 1.413 . S
C371 C401 1.437 . S
H372 C401 0.929 . S
N373 Gd346 2.570 . S
N373 C374 1.359 . S
N373 C377 1.343 . S
C374 C367 1.422 . S
C374 N373 1.359 . S
C374 C376 1.421 . S
C375 C376 1.422 . S
C375 C378 1.321 . S
C375 H402 0.931 . S
C376 C374 1.421 . S
C376 C375 1.422 . S
C376 C400 1.417 . S
C377 H354 0.931 . S
C377 N373 1.343 . S
C377 C378 1.390 . S
C378 H356 0.930 . S
C378 C375 1.321 . S
C378 C377 1.390 . S
O379 Gd347 2.386 . S
O379 C391 1.265 . S
O380 Gd346 2.353 . S
O380 C391 1.242 . S
O381 Gd346 2.468 . S
O381 C399 1.263 . S
O382 Gd346 2.427 . S
O382 C399 1.252 . S
O383 Gd347 2.307 . S
O383 C392 1.261 . S
O384 Gd346 2.388 . S
O384 C392 1.252 . S
O385 Gd346 2.386 . S
O385 C403 1.265 . S
O386 Gd347 2.353 . S
O386 C403 1.242 . S
O387 Gd347 2.468 . S
O387 C411 1.263 . S
O388 Gd347 2.427 . S
O388 C411 1.252 . S
O389 Gd346 2.307 . S
O389 C404 1.261 . S
O390 Gd347 2.388 . S
O390 C404 1.252 . S
C391 O379 1.265 . S
C391 O380 1.242 . S
C392 O383 1.261 . S
C392 O384 1.252 . S
C393 C396 1.394 . S
C393 C398 1.370 . S
C393 C399 1.500 . S
C394 C397 1.383 . S
C394 C398 1.395 . S
C395 C396 1.396 . S
C395 C397 1.365 . S
C395 H412 0.929 . S
C396 C393 1.394 . S
C396 C395 1.396 . S
C396 H413 0.930 . S
C397 C394 1.383 . S
C397 C395 1.365 . S
C397 H414 0.931 . S
C398 C393 1.370 . S
C398 C394 1.395 . S
C398 H415 0.930 . S
C399 Gd346 2.805 . S
C399 O381 1.263 . S
C399 O382 1.252 . S
C399 C393 1.500 . S
C400 H362 0.930 . S
C400 C376 1.417 . S
C400 C401 1.329 . S
C401 C371 1.437 . S
C401 H372 0.929 . S
C401 C400 1.329 . S
H402 C375 0.931 . S
C403 O385 1.265 . S
C403 O386 1.242 . S
C404 O389 1.261 . S
C404 O390 1.252 . S
C405 C408 1.394 1_554 S
C405 C410 1.370 1_554 S
C405 C411 1.500 . S
C406 C409 1.383 . S
C406 C410 1.395 . S
C407 C408 1.396 . S
C407 C409 1.365 . S
C407 H416 0.929 . S
C408 C405 1.394 1_556 S
C408 C407 1.396 . S
C408 H417 0.930 1_556 S
C409 C406 1.383 . S
C409 C407 1.365 . S
C409 H418 0.931 . S
C410 C405 1.370 1_556 S
C410 C406 1.395 . S
C410 H419 0.936 . S
C411 Gd347 2.805 . S
C411 O387 1.263 . S
C411 O388 1.252 . S
C411 C405 1.500 . S
H412 C395 0.929 . S
H413 C396 0.930 . S
H414 C397 0.931 . S
H415 C398 0.930 . S
H416 C407 0.929 . S
H417 C408 0.930 1_554 S
H418 C409 0.931 . S
H419 C410 0.936 . S
C420 C422 1.422 . S
C420 C424 1.415 . S
C420 N426 1.369 . S
C421 C422 1.421 . S
C421 C423 1.417 . S
C421 C433 1.422 . S
C422 C420 1.422 . S
C422 C421 1.421 . S
C422 N432 1.359 . S
C423 C421 1.417 . S
C423 C425 1.329 . S
C423 H442 0.930 . S
C424 C420 1.415 . S
C424 C425 1.437 . S
C424 C428 1.413 . S
C425 C423 1.329 . S
C425 C424 1.437 . S
C425 H447 0.929 . S
N426 C420 1.369 . S
N426 C427 1.338 . S
N426 Gd431 2.622 . S
C427 N426 1.338 . S
C427 C429 1.378 . S
C427 H439 0.929 . S
C428 C424 1.413 . S
C428 C429 1.348 . S
C428 H444 0.931 . S
C429 C427 1.378 . S
C429 C428 1.348 . S
C429 H445 0.930 . S
Gd430 N450 2.622 . S
Gd430 N457 2.570 . S
Gd430 O464 2.353 . S
Gd430 O465 2.468 . S
Gd430 O466 2.427 . S
Gd430 O468 2.388 . S
Gd430 O469 2.386 . S
Gd430 O473 2.307 . S
Gd430 C483 2.805 . S
Gd431 N426 2.622 . S
Gd431 N432 2.570 . S
Gd431 O463 2.386 . S
Gd431 O467 2.307 . S
Gd431 O470 2.353 . S
Gd431 O471 2.468 . S
Gd431 O472 2.427 . S
Gd431 O474 2.388 . S
Gd431 C495 2.805 . S
N432 C422 1.359 . S
N432 Gd431 2.570 . S
N432 C434 1.343 . S
C433 C421 1.422 . S
C433 C435 1.321 . S
C433 H441 0.931 . S
C434 N432 1.343 . S
C434 C435 1.390 . S
C434 H436 0.931 . S
C435 C433 1.321 . S
C435 C434 1.390 . S
C435 H437 0.930 . S
H436 C434 0.931 . S
H437 C435 0.930 . S
H438 C461 0.931 . S
H439 C427 0.929 . S
H440 C462 0.930 . S
H441 C433 0.931 . S
H442 C423 0.930 . S
H443 C452 0.929 . S
H444 C428 0.931 . S
H445 C429 0.930 . S
H446 C484 0.930 . S
H447 C425 0.929 . S
H448 C453 0.931 . S
H449 C454 0.930 . S
N450 Gd430 2.622 . S
N450 C451 1.369 . S
N450 C452 1.338 . S
C451 N450 1.369 . S
C451 C455 1.415 . S
C451 C458 1.422 . S
C452 H443 0.929 . S
C452 N450 1.338 . S
C452 C454 1.378 . S
C453 H448 0.931 . S
C453 C454 1.348 . S
C453 C455 1.413 . S
C454 H449 0.930 . S
C454 C452 1.378 . S
C454 C453 1.348 . S
C455 C451 1.415 . S
C455 C453 1.413 . S
C455 C485 1.437 . S
H456 C485 0.929 . S
N457 Gd430 2.570 . S
N457 C458 1.359 . S
N457 C461 1.343 . S
C458 C451 1.422 . S
C458 N457 1.359 . S
C458 C460 1.421 . S
C459 C460 1.422 . S
C459 C462 1.321 . S
C459 H486 0.931 . S
C460 C458 1.421 . S
C460 C459 1.422 . S
C460 C484 1.417 . S
C461 H438 0.931 . S
C461 N457 1.343 . S
C461 C462 1.390 . S
C462 H440 0.930 . S
C462 C459 1.321 . S
C462 C461 1.390 . S
O463 Gd431 2.386 . S
O463 C475 1.265 . S
O464 Gd430 2.353 . S
O464 C475 1.242 . S
O465 Gd430 2.468 . S
O465 C483 1.263 . S
O466 Gd430 2.427 . S
O466 C483 1.252 . S
O467 Gd431 2.307 . S
O467 C476 1.261 . S
O468 Gd430 2.388 . S
O468 C476 1.252 . S
O469 Gd430 2.386 . S
O469 C487 1.265 . S
O470 Gd431 2.353 . S
O470 C487 1.242 . S
O471 Gd431 2.468 . S
O471 C495 1.263 . S
O472 Gd431 2.427 . S
O472 C495 1.252 . S
O473 Gd430 2.307 . S
O473 C488 1.261 . S
O474 Gd431 2.388 . S
O474 C488 1.252 . S
C475 O463 1.265 . S
C475 O464 1.242 . S
C476 O467 1.261 . S
C476 O468 1.252 . S
C477 C480 1.394 . S
C477 C482 1.370 . S
C477 C483 1.500 . S
C478 C481 1.383 . S
C478 C482 1.395 . S
C479 C480 1.396 . S
C479 C481 1.365 . S
C479 H496 0.929 . S
C480 C477 1.394 . S
C480 C479 1.396 . S
C480 H497 0.930 . S
C481 C478 1.383 . S
C481 C479 1.365 . S
C481 H498 0.931 . S
C482 C477 1.370 . S
C482 C478 1.395 . S
C482 H499 0.930 . S
C483 Gd430 2.805 . S
C483 O465 1.263 . S
C483 O466 1.252 . S
C483 C477 1.500 . S
C484 H446 0.930 . S
C484 C460 1.417 . S
C484 C485 1.329 . S
C485 C455 1.437 . S
C485 H456 0.929 . S
C485 C484 1.329 . S
H486 C459 0.931 . S
C487 O469 1.265 . S
C487 O470 1.242 . S
C488 O473 1.261 . S
C488 O474 1.252 . S
C489 C492 1.394 1_556 S
C489 C494 1.370 1_556 S
C489 C495 1.500 . S
C490 C493 1.383 . S
C490 C494 1.395 . S
C491 C492 1.396 . S
C491 C493 1.365 . S
C491 H500 0.929 . S
C492 C489 1.394 1_554 S
C492 C491 1.396 . S
C492 H501 0.930 1_554 S
C493 C490 1.383 . S
C493 C491 1.365 . S
C493 H502 0.931 . S
C494 C489 1.370 1_554 S
C494 C490 1.395 . S
C494 H503 0.936 . S
C495 Gd431 2.805 . S
C495 O471 1.263 . S
C495 O472 1.252 . S
C495 C489 1.500 . S
H496 C479 0.929 . S
H497 C480 0.930 . S
H498 C481 0.931 . S
H499 C482 0.930 . S
H500 C491 0.929 . S
H501 C492 0.930 1_556 S
H502 C493 0.931 . S
H503 C494 0.936 . S
C504 C506 1.422 . S
C504 C508 1.415 . S
C504 N510 1.369 . S
C505 C506 1.421 . S
C505 C507 1.417 . S
C505 C517 1.422 . S
C506 C504 1.422 . S
C506 C505 1.421 . S
C506 N516 1.359 . S
C507 C505 1.417 . S
C507 C509 1.329 . S
C507 H526 0.930 . S
C508 C504 1.415 . S
C508 C509 1.437 . S
C508 C512 1.413 . S
C509 C507 1.329 . S
C509 C508 1.437 . S
C509 H531 0.929 . S
N510 C504 1.369 . S
N510 C511 1.338 . S
N510 Gd515 2.622 . S
C511 N510 1.338 . S
C511 C513 1.378 . S
C511 H523 0.929 . S
C512 C508 1.413 . S
C512 C513 1.348 . S
C512 H528 0.931 . S
C513 C511 1.378 . S
C513 C512 1.348 . S
C513 H529 0.930 . S
Gd514 N534 2.622 . S
Gd514 N541 2.570 . S
Gd514 O548 2.353 . S
Gd514 O549 2.468 . S
Gd514 O550 2.427 . S
Gd514 O552 2.388 . S
Gd514 O553 2.386 1_554 S
Gd514 O557 2.307 . S
Gd514 C567 2.805 . S
Gd515 N510 2.622 . S
Gd515 N516 2.570 . S
Gd515 O547 2.386 1_556 S
Gd515 O551 2.307 . S
Gd515 O554 2.353 . S
Gd515 O555 2.468 . S
Gd515 O556 2.427 . S
Gd515 O558 2.388 . S
Gd515 C579 2.805 . S
N516 C506 1.359 . S
N516 Gd515 2.570 . S
N516 C518 1.343 . S
C517 C505 1.422 . S
C517 C519 1.321 . S
C517 H525 0.931 . S
C518 N516 1.343 . S
C518 C519 1.390 . S
C518 H520 0.931 . S
C519 C517 1.321 . S
C519 C518 1.390 . S
C519 H521 0.930 . S
H520 C518 0.931 . S
H521 C519 0.930 . S
H522 C545 0.931 . S
H523 C511 0.929 . S
H524 C546 0.930 . S
H525 C517 0.931 . S
H526 C507 0.930 . S
H527 C536 0.929 . S
H528 C512 0.931 . S
H529 C513 0.930 . S
H530 C568 0.930 . S
H531 C509 0.929 . S
H532 C537 0.931 . S
H533 C538 0.930 . S
N534 Gd514 2.622 . S
N534 C535 1.369 . S
N534 C536 1.338 . S
C535 N534 1.369 . S
C535 C539 1.415 . S
C535 C542 1.422 . S
C536 H527 0.929 . S
C536 N534 1.338 . S
C536 C538 1.378 . S
C537 H532 0.931 . S
C537 C538 1.348 . S
C537 C539 1.413 . S
C538 H533 0.930 . S
C538 C536 1.378 . S
C538 C537 1.348 . S
C539 C535 1.415 . S
C539 C537 1.413 . S
C539 C569 1.437 . S
H540 C569 0.929 . S
N541 Gd514 2.570 . S
N541 C542 1.359 . S
N541 C545 1.343 . S
C542 C535 1.422 . S
C542 N541 1.359 . S
C542 C544 1.421 . S
C543 C544 1.422 . S
C543 C546 1.321 . S
C543 H570 0.931 . S
C544 C542 1.421 . S
C544 C543 1.422 . S
C544 C568 1.417 . S
C545 H522 0.931 . S
C545 N541 1.343 . S
C545 C546 1.390 . S
C546 H524 0.930 . S
C546 C543 1.321 . S
C546 C545 1.390 . S
O547 Gd515 2.386 1_554 S
O547 C559 1.265 . S
O548 Gd514 2.353 . S
O548 C559 1.242 . S
O549 Gd514 2.468 . S
O549 C567 1.263 . S
O550 Gd514 2.427 . S
O550 C567 1.252 . S
O551 Gd515 2.307 . S
O551 C560 1.261 . S
O552 Gd514 2.388 . S
O552 C560 1.252 1_554 S
O553 Gd514 2.386 1_556 S
O553 C571 1.265 . S
O554 Gd515 2.353 . S
O554 C571 1.242 . S
O555 Gd515 2.468 . S
O555 C579 1.263 . S
O556 Gd515 2.427 . S
O556 C579 1.252 . S
O557 Gd514 2.307 . S
O557 C572 1.261 . S
O558 Gd515 2.388 . S
O558 C572 1.252 1_556 S
C559 O547 1.265 . S
C559 O548 1.242 . S
C560 O551 1.261 . S
C560 O552 1.252 1_556 S
C561 C564 1.394 . S
C561 C566 1.370 . S
C561 C567 1.500 . S
C562 C565 1.383 . S
C562 C566 1.395 . S
C563 C564 1.396 . S
C563 C565 1.365 . S
C563 H580 0.929 . S
C564 C561 1.394 . S
C564 C563 1.396 . S
C564 H581 0.930 . S
C565 C562 1.383 . S
C565 C563 1.365 . S
C565 H582 0.931 . S
C566 C561 1.370 . S
C566 C562 1.395 . S
C566 H583 0.930 . S
C567 Gd514 2.805 . S
C567 O549 1.263 . S
C567 O550 1.252 . S
C567 C561 1.500 . S
C568 H530 0.930 . S
C568 C544 1.417 . S
C568 C569 1.329 . S
C569 C539 1.437 . S
C569 H540 0.929 . S
C569 C568 1.329 . S
H570 C543 0.931 . S
C571 O553 1.265 . S
C571 O554 1.242 . S
C572 O557 1.261 . S
C572 O558 1.252 1_554 S
C573 C576 1.394 . S
C573 C578 1.370 . S
C573 C579 1.500 . S
C574 C577 1.383 . S
C574 C578 1.395 . S
C575 C576 1.396 . S
C575 C577 1.365 . S
C575 H584 0.929 . S
C576 C573 1.394 . S
C576 C575 1.396 . S
C576 H585 0.930 . S
C577 C574 1.383 . S
C577 C575 1.365 . S
C577 H586 0.931 . S
C578 C573 1.370 . S
C578 C574 1.395 . S
C578 H587 0.930 . S
C579 Gd515 2.805 . S
C579 O555 1.263 . S
C579 O556 1.252 . S
C579 C573 1.500 . S
H580 C563 0.929 . S
H581 C564 0.930 . S
H582 C565 0.931 . S
H583 C566 0.930 . S
H584 C575 0.929 . S
H585 C576 0.930 . S
H586 C577 0.931 . S
H587 C578 0.930 . S
C588 C590 1.422 . S
C588 C592 1.415 . S
C588 N594 1.369 1_455 S
C589 C590 1.421 . S
C589 C591 1.417 . S
C589 C601 1.422 . S
C590 C588 1.422 . S
C590 C589 1.421 . S
C590 N600 1.359 . S
C591 C589 1.417 . S
C591 C593 1.329 . S
C591 H610 0.930 . S
C592 C588 1.415 . S
C592 C593 1.437 . S
C592 C596 1.413 1_455 S
C593 C591 1.329 . S
C593 C592 1.437 . S
C593 H615 0.929 . S
N594 C588 1.369 1_655 S
N594 C595 1.338 . S
N594 Gd599 2.623 . S
C595 N594 1.338 . S
C595 C597 1.378 . S
C595 H607 0.929 . S
C596 C592 1.413 1_655 S
C596 C597 1.348 . S
C596 H612 0.931 . S
C597 C595 1.378 . S
C597 C596 1.348 . S
C597 H613 0.930 . S
Gd598 N618 2.622 . S
Gd598 N625 2.570 1_455 S
Gd598 O632 2.353 . S
Gd598 O633 2.468 1_455 S
Gd598 O634 2.427 . S
Gd598 O636 2.388 . S
Gd598 O637 2.386 1_455 S
Gd598 O641 2.307 1_455 S
Gd598 C651 2.805 . S
Gd599 N594 2.623 . S
Gd599 N600 2.546 1_655 S
Gd599 O631 2.371 1_655 S
Gd599 O635 2.288 1_655 S
Gd599 O638 2.371 . S
Gd599 O639 2.463 1_655 S
Gd599 O640 2.443 . S
Gd599 O642 2.410 . S
Gd599 C663 2.811 . S
N600 C590 1.359 . S
N600 Gd599 2.546 1_455 S
N600 C602 1.343 . S
C601 C589 1.422 . S
C601 C603 1.321 . S
C601 H609 0.931 . S
C602 N600 1.343 . S
C602 C603 1.390 . S
C602 H604 0.931 . S
C603 C601 1.321 . S
C603 C602 1.390 . S
C603 H605 0.930 . S
H604 C602 0.931 . S
H605 C603 0.930 . S
H606 C629 0.931 . S
H607 C595 0.929 . S
H608 C630 0.930 . S
H609 C601 0.931 . S
H610 C591 0.930 . S
H611 C620 0.929 . S
H612 C596 0.931 . S
H613 C597 0.930 . S
H614 C652 0.930 . S
H615 C593 0.929 . S
H616 C621 0.931 . S
H617 C622 0.930 . S
N618 Gd598 2.622 . S
N618 C619 1.369 1_455 S
N618 C620 1.338 . S
C619 N618 1.369 1_655 S
C619 C623 1.415 . S
C619 C626 1.422 . S
C620 H611 0.929 . S
C620 N618 1.338 . S
C620 C622 1.378 . S
C621 H616 0.931 . S
C621 C622 1.348 . S
C621 C623 1.413 1_455 S
C622 H617 0.930 . S
C622 C620 1.378 . S
C622 C621 1.348 . S
C623 C619 1.415 . S
C623 C621 1.413 1_655 S
C623 C653 1.437 . S
H624 C653 0.929 . S
N625 Gd598 2.570 1_655 S
N625 C626 1.359 . S
N625 C629 1.343 . S
C626 C619 1.422 . S
C626 N625 1.359 . S
C626 C628 1.421 . S
C627 C628 1.422 . S
C627 C630 1.321 . S
C627 H654 0.931 . S
C628 C626 1.421 . S
C628 C627 1.422 . S
C628 C652 1.417 . S
C629 H606 0.931 . S
C629 N625 1.343 . S
C629 C630 1.390 . S
C630 H608 0.930 . S
C630 C627 1.321 . S
C630 C629 1.390 . S
O631 Gd599 2.371 1_455 S
O631 C643 1.265 . S
O632 Gd598 2.353 . S
O632 C643 1.242 . S
O633 Gd598 2.468 1_655 S
O633 C651 1.263 1_655 S
O634 Gd598 2.427 . S
O634 C651 1.252 . S
O635 Gd599 2.288 1_455 S
O635 C644 1.261 . S
O636 Gd598 2.388 . S
O636 C644 1.252 . S
O637 Gd598 2.386 1_655 S
O637 C655 1.265 . S
O638 Gd599 2.371 . S
O638 C655 1.242 . S
O639 Gd599 2.463 1_455 S
O639 C663 1.263 1_455 S
O640 Gd599 2.443 . S
O640 C663 1.252 . S
O641 Gd598 2.307 1_655 S
O641 C656 1.261 . S
O642 Gd599 2.410 . S
O642 C656 1.252 . S
C643 O631 1.265 . S
C643 O632 1.242 . S
C644 O635 1.261 . S
C644 O636 1.252 . S
C645 C648 1.394 . S
C645 C650 1.370 . S
C645 C651 1.500 . S
C646 C649 1.383 . S
C646 C650 1.395 . S
C647 C648 1.396 . S
C647 C649 1.365 . S
C647 H664 0.929 . S
C648 C645 1.394 . S
C648 C647 1.396 . S
C648 H665 0.930 . S
C649 C646 1.383 . S
C649 C647 1.365 . S
C649 H666 0.931 . S
C650 C645 1.370 . S
C650 C646 1.395 . S
C650 H667 0.930 1_455 S
C651 Gd598 2.805 . S
C651 O633 1.263 1_455 S
C651 O634 1.252 . S
C651 C645 1.500 . S
C652 H614 0.930 . S
C652 C628 1.417 . S
C652 C653 1.329 . S
C653 C623 1.437 . S
C653 H624 0.929 . S
C653 C652 1.329 . S
H654 C627 0.931 . S
C655 O637 1.265 . S
C655 O638 1.242 . S
C656 O641 1.261 . S
C656 O642 1.252 . S
C657 C660 1.394 . S
C657 C662 1.370 . S
C657 C663 1.500 . S
C658 C661 1.383 . S
C658 C662 1.395 . S
C659 C660 1.396 . S
C659 C661 1.365 . S
C659 H668 0.929 . S
C660 C657 1.394 . S
C660 C659 1.396 . S
C660 H669 0.930 . S
C661 C658 1.383 . S
C661 C659 1.365 . S
C661 H670 0.931 . S
C662 C657 1.370 . S
C662 C658 1.395 . S
C662 H671 0.930 1_655 S
C663 Gd599 2.811 . S
C663 O639 1.263 1_655 S
C663 O640 1.252 . S
C663 C657 1.500 . S
H664 C647 0.929 . S
H665 C648 0.930 . S
H666 C649 0.931 . S
H667 C650 0.930 1_655 S
H668 C659 0.929 . S
H669 C660 0.930 . S
H670 C661 0.931 . S
H671 C662 0.930 1_455 S
H672 C684 0.930 . S
H673 C686 0.930 . S
H674 C687 0.930 . S
H675 C691 0.959 . S
H676 C691 0.959 . S
H677 C691 0.961 . S
H678 C692 0.960 . S
H679 C692 0.961 . S
H680 C692 0.959 . S
H681 C695 0.929 . S
H682 C696 0.931 . S
H683 C698 0.930 . S
C684 H672 0.930 . S
C684 C685 1.399 . S
C684 C689 1.399 . S
C685 C684 1.399 . S
C685 C686 1.376 . S
C686 H673 0.930 . S
C686 C685 1.376 . S
C686 C687 1.388 . S
C687 H674 0.930 . S
C687 C686 1.388 . S
C687 C688 1.390 . S
C688 C687 1.390 . S
C688 C689 1.394 . S
C688 C694 1.465 . S
C689 C684 1.399 . S
C689 C688 1.394 . S
C689 C690 1.516 . S
C690 C689 1.516 . S
C690 C691 1.502 . S
C690 C692 1.561 . S
C690 C693 1.526 . S
C691 H675 0.959 . S
C691 H676 0.959 . S
C691 H677 0.961 . S
C691 C690 1.502 . S
C692 H678 0.960 . S
C692 H679 0.961 . S
C692 H680 0.959 . S
C692 C690 1.561 . S
C693 C690 1.526 . S
C693 C694 1.396 . S
C693 C698 1.390 . S
C694 C688 1.465 . S
C694 C693 1.396 . S
C694 C695 1.399 . S
C695 H681 0.929 . S
C695 C694 1.399 . S
C695 C696 1.385 . S
C696 H682 0.931 . S
C696 C695 1.385 . S
C696 C697 1.389 . S
C697 C696 1.389 . S
C697 C698 1.387 . S
C698 H683 0.930 . S
C698 C693 1.390 . S
C698 C697 1.387 . S
H699 C711 0.930 . S
H700 C713 0.930 . S
H701 C714 0.930 . S
H702 C718 0.959 . S
H703 C718 0.959 . S
H704 C718 0.961 . S
H705 C719 0.960 . S
H706 C719 0.961 . S
H707 C719 0.959 . S
H708 C722 0.929 . S
H709 C723 0.931 . S
H710 C725 0.930 . S
C711 H699 0.930 . S
C711 C712 1.399 . S
C711 C716 1.399 . S
C712 C711 1.399 . S
C712 C713 1.376 . S
C713 H700 0.930 . S
C713 C712 1.376 . S
C713 C714 1.388 . S
C714 H701 0.930 . S
C714 C713 1.388 . S
C714 C715 1.390 . S
C715 C714 1.390 . S
C715 C716 1.394 . S
C715 C721 1.465 . S
C716 C711 1.399 . S
C716 C715 1.394 . S
C716 C717 1.516 . S
C717 C716 1.516 . S
C717 C718 1.502 . S
C717 C719 1.561 . S
C717 C720 1.526 . S
C718 H702 0.959 . S
C718 H703 0.959 . S
C718 H704 0.961 . S
C718 C717 1.502 . S
C719 H705 0.960 . S
C719 H706 0.961 . S
C719 H707 0.959 . S
C719 C717 1.561 . S
C720 C717 1.526 . S
C720 C721 1.396 . S
C720 C725 1.390 . S
C721 C715 1.465 . S
C721 C720 1.396 . S
C721 C722 1.399 . S
C722 H708 0.929 . S
C722 C721 1.399 . S
C722 C723 1.385 . S
C723 H709 0.931 . S
C723 C722 1.385 . S
C723 C724 1.389 . S
C724 C723 1.389 . S
C724 C725 1.387 . S
C725 H710 0.930 . S
C725 C720 1.390 . S
C725 C724 1.387 . S
H726 C738 0.930 . S
H727 C740 0.930 . S
H728 C741 0.930 . S
H729 C745 0.959 . S
H730 C745 0.959 . S
H731 C745 0.961 . S
H732 C746 0.960 . S
H733 C746 0.961 . S
H734 C746 0.959 . S
H735 C749 0.929 . S
H736 C750 0.931 1_554 S
H737 C752 0.930 . S
C738 H726 0.930 . S
C738 C739 1.399 . S
C738 C743 1.399 . S
C739 C738 1.399 . S
C739 C740 1.376 . S
C740 H727 0.930 . S
C740 C739 1.376 . S
C740 C741 1.388 . S
C741 H728 0.930 . S
C741 C740 1.388 . S
C741 C742 1.390 . S
C742 C741 1.390 . S
C742 C743 1.394 . S
C742 C748 1.465 . S
C743 C738 1.399 . S
C743 C742 1.394 . S
C743 C744 1.516 . S
C744 C743 1.516 . S
C744 C745 1.502 . S
C744 C746 1.561 . S
C744 C747 1.526 . S
C745 H729 0.959 . S
C745 H730 0.959 . S
C745 H731 0.961 . S
C745 C744 1.502 . S
C746 H732 0.960 . S
C746 H733 0.961 . S
C746 H734 0.959 . S
C746 C744 1.561 . S
C747 C744 1.526 . S
C747 C748 1.396 . S
C747 C752 1.390 . S
C748 C742 1.465 . S
C748 C747 1.396 . S
C748 C749 1.399 . S
C749 H735 0.929 . S
C749 C748 1.399 . S
C749 C750 1.385 . S
C750 H736 0.931 1_556 S
C750 C749 1.385 . S
C750 C751 1.389 . S
C751 C750 1.389 . S
C751 C752 1.387 . S
C752 H737 0.930 . S
C752 C747 1.390 . S
C752 C751 1.387 . S
H753 C765 0.930 . S
H754 C767 0.930 1_556 S
H755 C768 0.930 . S
H756 C772 0.959 . S
H757 C772 0.959 . S
H758 C772 0.961 . S
H759 C773 0.960 . S
H760 C773 0.961 . S
H761 C773 0.959 . S
H762 C776 0.929 . S
H763 C777 0.931 . S
H764 C779 0.930 . S
C765 H753 0.930 . S
C765 C766 1.399 . S
C765 C770 1.399 . S
C766 C765 1.399 . S
C766 C767 1.376 . S
C767 H754 0.930 1_554 S
C767 C766 1.376 . S
C767 C768 1.388 . S
C768 H755 0.930 . S
C768 C767 1.388 . S
C768 C769 1.390 . S
C769 C768 1.390 . S
C769 C770 1.394 . S
C769 C775 1.465 . S
C770 C765 1.399 . S
C770 C769 1.394 . S
C770 C771 1.516 . S
C771 C770 1.516 . S
C771 C772 1.502 . S
C771 C773 1.561 . S
C771 C774 1.526 . S
C772 H756 0.959 . S
C772 H757 0.959 . S
C772 H758 0.961 . S
C772 C771 1.502 . S
C773 H759 0.960 . S
C773 H760 0.961 . S
C773 H761 0.959 . S
C773 C771 1.561 . S
C774 C771 1.526 . S
C774 C775 1.396 . S
C774 C779 1.390 . S
C775 C769 1.465 . S
C775 C774 1.396 . S
C775 C776 1.399 . S
C776 H762 0.929 . S
C776 C775 1.399 . S
C776 C777 1.385 . S
C777 H763 0.931 . S
C777 C776 1.385 . S
C777 C778 1.389 . S
C778 C777 1.389 . S
C778 C779 1.387 . S
C779 H764 0.930 . S
C779 C774 1.390 . S
C779 C778 1.387 . S
H780 C792 0.930 . S
H781 C794 0.930 . S
H782 C795 0.930 . S
H783 C799 0.959 . S
H784 C799 0.959 . S
H785 C799 0.961 . S
H786 C800 0.960 . S
H787 C800 0.961 . S
H788 C800 0.959 . S
H789 C803 0.929 . S
H790 C804 0.931 . S
H791 C806 0.930 . S
C792 H780 0.930 . S
C792 C793 1.399 . S
C792 C797 1.399 . S
C793 C792 1.399 . S
C793 C794 1.376 . S
C794 H781 0.930 . S
C794 C793 1.376 . S
C794 C795 1.388 . S
C795 H782 0.930 . S
C795 C794 1.388 . S
C795 C796 1.390 . S
C796 C795 1.390 . S
C796 C797 1.394 . S
C796 C802 1.465 . S
C797 C792 1.399 . S
C797 C796 1.394 . S
C797 C798 1.516 . S
C798 C797 1.516 . S
C798 C799 1.502 . S
C798 C800 1.561 . S
C798 C801 1.526 . S
C799 H783 0.959 . S
C799 H784 0.959 . S
C799 H785 0.961 . S
C799 C798 1.502 . S
C800 H786 0.960 . S
C800 H787 0.961 . S
C800 H788 0.959 . S
C800 C798 1.561 . S
C801 C798 1.526 . S
C801 C802 1.396 . S
C801 C806 1.390 . S
C802 C796 1.465 . S
C802 C801 1.396 . S
C802 C803 1.399 . S
C803 H789 0.929 . S
C803 C802 1.399 . S
C803 C804 1.385 . S
C804 H790 0.931 . S
C804 C803 1.385 . S
C804 C805 1.389 . S
C805 C804 1.389 . S
C805 C806 1.387 . S
C806 H791 0.930 . S
C806 C801 1.390 . S
C806 C805 1.387 . S
H807 C819 0.930 . S
H808 C821 0.930 . S
H809 C822 0.930 . S
H810 C826 0.959 . S
H811 C826 0.959 . S
H812 C826 0.961 . S
H813 C827 0.960 . S
H814 C827 0.961 . S
H815 C827 0.959 . S
H816 C830 0.929 . S
H817 C831 0.931 . S
H818 C833 0.930 . S
C819 H807 0.930 . S
C819 C820 1.399 . S
C819 C824 1.399 . S
C820 C819 1.399 . S
C820 C821 1.376 . S
C821 H808 0.930 . S
C821 C820 1.376 . S
C821 C822 1.388 . S
C822 H809 0.930 . S
C822 C821 1.388 . S
C822 C823 1.390 . S
C823 C822 1.390 . S
C823 C824 1.394 . S
C823 C829 1.465 . S
C824 C819 1.399 . S
C824 C823 1.394 . S
C824 C825 1.516 . S
C825 C824 1.516 . S
C825 C826 1.502 . S
C825 C827 1.561 . S
C825 C828 1.526 . S
C826 H810 0.959 . S
C826 H811 0.959 . S
C826 H812 0.961 . S
C826 C825 1.502 . S
C827 H813 0.960 . S
C827 H814 0.961 . S
C827 H815 0.959 . S
C827 C825 1.561 . S
C828 C825 1.526 . S
C828 C829 1.396 . S
C828 C833 1.390 . S
C829 C823 1.465 . S
C829 C828 1.396 . S
C829 C830 1.399 . S
C830 H816 0.929 . S
C830 C829 1.399 . S
C830 C831 1.385 . S
C831 H817 0.931 . S
C831 C830 1.385 . S
C831 C832 1.389 . S
C832 C831 1.389 . S
C832 C833 1.387 . S
C833 H818 0.930 . S
C833 C828 1.390 . S
C833 C832 1.387 . S
H834 C846 0.930 . S
H835 C848 0.930 . S
H836 C849 0.930 . S
H837 C853 0.959 . S
H838 C853 0.959 . S
H839 C853 0.961 . S
H840 C854 0.960 . S
H841 C854 0.961 . S
H842 C854 0.959 . S
H843 C857 0.929 . S
H844 C858 0.931 1_556 S
H845 C860 0.930 . S
C846 H834 0.930 . S
C846 C847 1.399 . S
C846 C851 1.399 . S
C847 C846 1.399 . S
C847 C848 1.376 . S
C848 H835 0.930 . S
C848 C847 1.376 . S
C848 C849 1.388 . S
C849 H836 0.930 . S
C849 C848 1.388 . S
C849 C850 1.390 . S
C850 C849 1.390 . S
C850 C851 1.394 . S
C850 C856 1.465 . S
C851 C846 1.399 . S
C851 C850 1.394 . S
C851 C852 1.516 . S
C852 C851 1.516 . S
C852 C853 1.502 . S
C852 C854 1.561 . S
C852 C855 1.526 . S
C853 H837 0.959 . S
C853 H838 0.959 . S
C853 H839 0.961 . S
C853 C852 1.502 . S
C854 H840 0.960 . S
C854 H841 0.961 . S
C854 H842 0.959 . S
C854 C852 1.561 . S
C855 C852 1.526 . S
C855 C856 1.396 . S
C855 C860 1.390 . S
C856 C850 1.465 . S
C856 C855 1.396 . S
C856 C857 1.399 . S
C857 H843 0.929 . S
C857 C856 1.399 . S
C857 C858 1.385 . S
C858 H844 0.931 1_554 S
C858 C857 1.385 . S
C858 C859 1.389 . S
C859 C858 1.389 . S
C859 C860 1.387 . S
C860 H845 0.930 . S
C860 C855 1.390 . S
C860 C859 1.387 . S
H861 C873 0.930 . S
H862 C875 0.930 . S
H863 C876 0.930 . S
H864 C880 0.959 . S
H865 C880 0.959 . S
H866 C880 0.961 . S
H867 C881 0.960 . S
H868 C881 0.961 . S
H869 C881 0.959 . S
H870 C884 0.929 . S
H871 C885 0.931 . S
H872 C887 0.930 . S
C873 H861 0.930 . S
C873 C874 1.399 . S
C873 C878 1.399 . S
C874 C873 1.399 . S
C874 C875 1.376 . S
C875 H862 0.930 . S
C875 C874 1.376 . S
C875 C876 1.388 . S
C876 H863 0.930 . S
C876 C875 1.388 . S
C876 C877 1.390 . S
C877 C876 1.390 . S
C877 C878 1.394 . S
C877 C883 1.465 . S
C878 C873 1.399 . S
C878 C877 1.394 . S
C878 C879 1.516 . S
C879 C878 1.516 . S
C879 C880 1.502 . S
C879 C881 1.561 . S
C879 C882 1.526 . S
C880 H864 0.959 . S
C880 H865 0.959 . S
C880 H866 0.961 . S
C880 C879 1.502 . S
C881 H867 0.960 . S
C881 H868 0.961 . S
C881 H869 0.959 . S
C881 C879 1.561 . S
C882 C879 1.526 . S
C882 C883 1.396 . S
C882 C887 1.390 . S
C883 C877 1.465 . S
C883 C882 1.396 . S
C883 C884 1.399 . S
C884 H870 0.929 . S
C884 C883 1.399 . S
C884 C885 1.385 . S
C885 H871 0.931 . S
C885 C884 1.385 . S
C885 C886 1.389 . S
C886 C885 1.389 . S
C886 C887 1.387 . S
C887 H872 0.930 . S
C887 C882 1.390 . S
C887 C886 1.387 . S
H888 C900 0.930 . S
H889 C902 0.930 . S
H890 C903 0.930 . S
H891 C907 0.959 . S
H892 C907 0.959 . S
H893 C907 0.961 . S
H894 C908 0.960 . S
H895 C908 0.961 . S
H896 C908 0.959 . S
H897 C911 0.929 . S
H898 C912 0.931 . S
H899 C914 0.930 . S
C900 H888 0.930 . S
C900 C901 1.399 . S
C900 C905 1.399 . S
C901 C900 1.399 . S
C901 C902 1.376 . S
C902 H889 0.930 . S
C902 C901 1.376 . S
C902 C903 1.388 . S
C903 H890 0.930 . S
C903 C902 1.388 . S
C903 C904 1.390 . S
C904 C903 1.390 . S
C904 C905 1.394 . S
C904 C910 1.465 . S
C905 C900 1.399 . S
C905 C904 1.394 . S
C905 C906 1.516 . S
C906 C905 1.516 . S
C906 C907 1.502 . S
C906 C908 1.561 . S
C906 C909 1.526 . S
C907 H891 0.959 . S
C907 H892 0.959 . S
C907 H893 0.961 . S
C907 C906 1.502 . S
C908 H894 0.960 . S
C908 H895 0.961 . S
C908 H896 0.959 . S
C908 C906 1.561 . S
C909 C906 1.526 . S
C909 C910 1.396 . S
C909 C914 1.390 . S
C910 C904 1.465 . S
C910 C909 1.396 . S
C910 C911 1.399 . S
C911 H897 0.929 . S
C911 C910 1.399 . S
C911 C912 1.385 . S
C912 H898 0.931 . S
C912 C911 1.385 . S
C912 C913 1.389 . S
C913 C912 1.389 . S
C913 C914 1.387 . S
C914 H899 0.930 . S
C914 C909 1.390 . S
C914 C913 1.387 . S
H915 C927 0.930 . S
H916 C929 0.930 . S
H917 C930 0.930 . S
H918 C934 0.959 . S
H919 C934 0.959 . S
H920 C934 0.961 . S
H921 C935 0.960 . S
H922 C935 0.961 . S
H923 C935 0.959 . S
H924 C938 0.929 . S
H925 C939 0.931 . S
H926 C941 0.930 . S
C927 H915 0.930 . S
C927 C928 1.399 . S
C927 C932 1.399 . S
C928 C927 1.399 . S
C928 C929 1.376 . S
C929 H916 0.930 . S
C929 C928 1.376 . S
C929 C930 1.388 . S
C930 H917 0.930 . S
C930 C929 1.388 . S
C930 C931 1.390 . S
C931 C930 1.390 . S
C931 C932 1.394 . S
C931 C937 1.465 . S
C932 C927 1.399 . S
C932 C931 1.394 . S
C932 C933 1.516 . S
C933 C932 1.516 . S
C933 C934 1.502 . S
C933 C935 1.561 . S
C933 C936 1.526 . S
C934 H918 0.959 . S
C934 H919 0.959 . S
C934 H920 0.961 . S
C934 C933 1.502 . S
C935 H921 0.960 . S
C935 H922 0.961 . S
C935 H923 0.959 . S
C935 C933 1.561 . S
C936 C933 1.526 . S
C936 C937 1.396 . S
C936 C941 1.390 . S
C937 C931 1.465 . S
C937 C936 1.396 . S
C937 C938 1.399 . S
C938 H924 0.929 . S
C938 C937 1.399 . S
C938 C939 1.385 . S
C939 H925 0.931 . S
C939 C938 1.385 . S
C939 C940 1.389 . S
C940 C939 1.389 . S
C940 C941 1.387 . S
C941 H926 0.930 . S
C941 C936 1.390 . S
C941 C940 1.387 . S
H942 C954 0.930 . S
H943 C956 0.930 . S
H944 C957 0.930 . S
H945 C961 0.959 . S
H946 C961 0.959 . S
H947 C961 0.961 . S
H948 C962 0.960 . S
H949 C962 0.961 . S
H950 C962 0.959 . S
H951 C965 0.929 . S
H952 C966 0.931 . S
H953 C968 0.930 . S
C954 H942 0.930 . S
C954 C955 1.399 . S
C954 C959 1.399 . S
C955 C954 1.399 . S
C955 C956 1.376 . S
C956 H943 0.930 . S
C956 C955 1.376 . S
C956 C957 1.388 . S
C957 H944 0.930 . S
C957 C956 1.388 . S
C957 C958 1.390 . S
C958 C957 1.390 . S
C958 C959 1.394 . S
C958 C964 1.465 . S
C959 C954 1.399 . S
C959 C958 1.394 . S
C959 C960 1.516 . S
C960 C959 1.516 . S
C960 C961 1.502 . S
C960 C962 1.561 . S
C960 C963 1.526 . S
C961 H945 0.959 . S
C961 H946 0.959 . S
C961 H947 0.961 . S
C961 C960 1.502 . S
C962 H948 0.960 . S
C962 H949 0.961 . S
C962 H950 0.959 . S
C962 C960 1.561 . S
C963 C960 1.526 . S
C963 C964 1.396 . S
C963 C968 1.390 . S
C964 C958 1.465 . S
C964 C963 1.396 . S
C964 C965 1.399 . S
C965 H951 0.929 . S
C965 C964 1.399 . S
C965 C966 1.385 . S
C966 H952 0.931 . S
C966 C965 1.385 . S
C966 C967 1.389 . S
C967 C966 1.389 . S
C967 C968 1.387 . S
C968 H953 0.930 . S
C968 C963 1.390 . S
C968 C967 1.387 . S
H969 C981 0.930 . S
H970 C983 0.930 . S
H971 C984 0.930 . S
H972 C988 0.959 . S
H973 C988 0.959 . S
H974 C988 0.961 . S
H975 C989 0.960 . S
H976 C989 0.961 . S
H977 C989 0.959 . S
H978 C992 0.929 . S
H979 C993 0.931 . S
H980 C995 0.930 . S
C981 H969 0.930 . S
C981 C982 1.399 . S
C981 C986 1.399 . S
C982 C981 1.399 . S
C982 C983 1.376 . S
C983 H970 0.930 . S
C983 C982 1.376 . S
C983 C984 1.388 . S
C984 H971 0.930 . S
C984 C983 1.388 . S
C984 C985 1.390 . S
C985 C984 1.390 . S
C985 C986 1.394 . S
C985 C991 1.465 . S
C986 C981 1.399 . S
C986 C985 1.394 . S
C986 C987 1.516 . S
C987 C986 1.516 . S
C987 C988 1.502 . S
C987 C989 1.561 . S
C987 C990 1.526 . S
C988 H972 0.959 . S
C988 H973 0.959 . S
C988 H974 0.961 . S
C988 C987 1.502 . S
C989 H975 0.960 . S
C989 H976 0.961 . S
C989 H977 0.959 . S
C989 C987 1.561 . S
C990 C987 1.526 . S
C990 C991 1.396 . S
C990 C995 1.390 . S
C991 C985 1.465 . S
C991 C990 1.396 . S
C991 C992 1.399 . S
C992 H978 0.929 . S
C992 C991 1.399 . S
C992 C993 1.385 . S
C993 H979 0.931 . S
C993 C992 1.385 . S
C993 C994 1.389 . S
C994 C993 1.389 . S
C994 C995 1.387 . S
C995 H980 0.930 . S
C995 C990 1.390 . S
C995 C994 1.387 . S
H996 C1008 0.930 . S
H997 C1010 0.930 . S
H998 C1011 0.930 . S
H999 C1015 0.959 . S
H1000 C1015 0.959 . S
H1001 C1015 0.961 . S
H1002 C1016 0.960 . S
H1003 C1016 0.961 . S
H1004 C1016 0.959 . S
H1005 C1019 0.929 . S
H1006 C1020 0.931 . S
H1007 C1022 0.930 . S
C1008 H996 0.930 . S
C1008 C1009 1.399 . S
C1008 C1013 1.399 . S
C1009 C1008 1.399 . S
C1009 C1010 1.376 . S
C1010 H997 0.930 . S
C1010 C1009 1.376 . S
C1010 C1011 1.388 . S
C1011 H998 0.930 . S
C1011 C1010 1.388 . S
C1011 C1012 1.390 . S
C1012 C1011 1.390 . S
C1012 C1013 1.394 . S
C1012 C1018 1.465 . S
C1013 C1008 1.399 . S
C1013 C1012 1.394 . S
C1013 C1014 1.516 . S
C1014 C1013 1.516 . S
C1014 C1015 1.502 . S
C1014 C1016 1.561 . S
C1014 C1017 1.526 . S
C1015 H999 0.959 . S
C1015 H1000 0.959 . S
C1015 H1001 0.961 . S
C1015 C1014 1.502 . S
C1016 H1002 0.960 . S
C1016 H1003 0.961 . S
C1016 H1004 0.959 . S
C1016 C1014 1.561 . S
C1017 C1014 1.526 . S
C1017 C1018 1.396 . S
C1017 C1022 1.390 . S
C1018 C1012 1.465 . S
C1018 C1017 1.396 . S
C1018 C1019 1.399 . S
C1019 H1005 0.929 . S
C1019 C1018 1.399 . S
C1019 C1020 1.385 . S
C1020 H1006 0.931 . S
C1020 C1019 1.385 . S
C1020 C1021 1.389 . S
C1021 C1020 1.389 . S
C1021 C1022 1.387 . S
C1022 H1007 0.930 . S
C1022 C1017 1.390 . S
C1022 C1021 1.387 . S
H1023 C1035 0.930 . S
H1024 C1037 0.930 . S
H1025 C1038 0.930 . S
H1026 C1042 0.959 . S
H1027 C1042 0.959 . S
H1028 C1042 0.961 1_554 S
H1029 C1043 0.960 . S
H1030 C1043 0.961 . S
H1031 C1043 0.959 . S
H1032 C1046 0.929 . S
H1033 C1047 0.931 . S
H1034 C1049 0.930 . S
C1035 H1023 0.930 . S
C1035 C1036 1.399 . S
C1035 C1040 1.399 . S
C1036 C1035 1.399 . S
C1036 C1037 1.376 . S
C1037 H1024 0.930 . S
C1037 C1036 1.376 . S
C1037 C1038 1.388 . S
C1038 H1025 0.930 . S
C1038 C1037 1.388 . S
C1038 C1039 1.390 . S
C1039 C1038 1.390 . S
C1039 C1040 1.394 . S
C1039 C1045 1.465 . S
C1040 C1035 1.399 . S
C1040 C1039 1.394 . S
C1040 C1041 1.516 . S
C1041 C1040 1.516 . S
C1041 C1042 1.502 . S
C1041 C1043 1.561 . S
C1041 C1044 1.526 . S
C1042 H1026 0.959 . S
C1042 H1027 0.959 . S
C1042 H1028 0.961 1_556 S
C1042 C1041 1.502 . S
C1043 H1029 0.960 . S
C1043 H1030 0.961 . S
C1043 H1031 0.959 . S
C1043 C1041 1.561 . S
C1044 C1041 1.526 . S
C1044 C1045 1.396 . S
C1044 C1049 1.390 . S
C1045 C1039 1.465 . S
C1045 C1044 1.396 . S
C1045 C1046 1.399 . S
C1046 H1032 0.929 . S
C1046 C1045 1.399 . S
C1046 C1047 1.385 . S
C1047 H1033 0.931 . S
C1047 C1046 1.385 . S
C1047 C1048 1.389 . S
C1048 C1047 1.389 . S
C1048 C1049 1.387 . S
C1049 H1034 0.930 . S
C1049 C1044 1.390 . S
C1049 C1048 1.387 . S
H1050 C1062 0.930 . S
H1051 C1064 0.930 . S
H1052 C1065 0.930 . S
H1053 C1069 0.959 . S
H1054 C1069 0.959 . S
H1055 C1069 0.961 . S
H1056 C1070 0.960 . S
H1057 C1070 0.961 . S
H1058 C1070 0.959 . S
H1059 C1073 0.929 . S
H1060 C1074 0.931 . S
H1061 C1076 0.930 . S
C1062 H1050 0.930 . S
C1062 C1063 1.399 . S
C1062 C1067 1.399 . S
C1063 C1062 1.399 . S
C1063 C1064 1.376 . S
C1064 H1051 0.930 . S
C1064 C1063 1.376 . S
C1064 C1065 1.388 . S
C1065 H1052 0.930 . S
C1065 C1064 1.388 . S
C1065 C1066 1.390 . S
C1066 C1065 1.390 . S
C1066 C1067 1.394 . S
C1066 C1072 1.465 . S
C1067 C1062 1.399 . S
C1067 C1066 1.394 . S
C1067 C1068 1.516 . S
C1068 C1067 1.516 . S
C1068 C1069 1.502 . S
C1068 C1070 1.561 . S
C1068 C1071 1.526 . S
C1069 H1053 0.959 . S
C1069 H1054 0.959 . S
C1069 H1055 0.961 . S
C1069 C1068 1.502 . S
C1070 H1056 0.960 . S
C1070 H1057 0.961 . S
C1070 H1058 0.959 . S
C1070 C1068 1.561 . S
C1071 C1068 1.526 . S
C1071 C1072 1.396 . S
C1071 C1076 1.390 . S
C1072 C1066 1.465 . S
C1072 C1071 1.396 . S
C1072 C1073 1.399 . S
C1073 H1059 0.929 . S
C1073 C1072 1.399 . S
C1073 C1074 1.385 . S
C1074 H1060 0.931 . S
C1074 C1073 1.385 . S
C1074 C1075 1.389 . S
C1075 C1074 1.389 . S
C1075 C1076 1.387 . S
C1076 H1061 0.930 . S
C1076 C1071 1.390 . S
C1076 C1075 1.387 . S
H1077 C1089 0.930 . S
H1078 C1091 0.930 . S
H1079 C1092 0.930 . S
H1080 C1096 0.959 . S
H1081 C1096 0.959 . S
H1082 C1096 0.961 . S
H1083 C1097 0.960 . S
H1084 C1097 0.961 . S
H1085 C1097 0.959 . S
H1086 C1100 0.929 . S
H1087 C1101 0.931 . S
H1088 C1103 0.930 . S
C1089 H1077 0.930 . S
C1089 C1090 1.399 . S
C1089 C1094 1.399 . S
C1090 C1089 1.399 . S
C1090 C1091 1.376 . S
C1091 H1078 0.930 . S
C1091 C1090 1.376 . S
C1091 C1092 1.388 . S
C1092 H1079 0.930 . S
C1092 C1091 1.388 . S
C1092 C1093 1.390 . S
C1093 C1092 1.390 . S
C1093 C1094 1.394 . S
C1093 C1099 1.465 . S
C1094 C1089 1.399 . S
C1094 C1093 1.394 . S
C1094 C1095 1.516 . S
C1095 C1094 1.516 . S
C1095 C1096 1.502 . S
C1095 C1097 1.561 . S
C1095 C1098 1.526 . S
C1096 H1080 0.959 . S
C1096 H1081 0.959 . S
C1096 H1082 0.961 . S
C1096 C1095 1.502 . S
C1097 H1083 0.960 . S
C1097 H1084 0.961 . S
C1097 H1085 0.959 . S
C1097 C1095 1.561 . S
C1098 C1095 1.526 . S
C1098 C1099 1.396 . S
C1098 C1103 1.390 . S
C1099 C1093 1.465 . S
C1099 C1098 1.396 . S
C1099 C1100 1.399 . S
C1100 H1086 0.929 . S
C1100 C1099 1.399 . S
C1100 C1101 1.385 . S
C1101 H1087 0.931 . S
C1101 C1100 1.385 . S
C1101 C1102 1.389 . S
C1102 C1101 1.389 . S
C1102 C1103 1.387 . S
C1103 H1088 0.930 . S
C1103 C1098 1.390 . S
C1103 C1102 1.387 . S
H1104 C1116 0.930 . S
H1105 C1118 0.930 . S
H1106 C1119 0.930 . S
H1107 C1123 0.959 . S
H1108 C1123 0.959 . S
H1109 C1123 0.961 1_556 S
H1110 C1124 0.960 1_656 S
H1111 C1124 0.961 1_655 S
H1112 C1124 0.959 . S
H1113 C1127 0.929 . S
H1114 C1128 0.931 . S
H1115 C1130 0.930 . S
C1116 H1104 0.930 . S
C1116 C1117 1.399 1_655 S
C1116 C1121 1.399 . S
C1117 C1116 1.399 1_455 S
C1117 C1118 1.376 1_565 S
C1118 H1105 0.930 . S
C1118 C1117 1.376 1_545 S
C1118 C1119 1.388 . S
C1119 H1106 0.930 . S
C1119 C1118 1.388 . S
C1119 C1120 1.390 . S
C1120 C1119 1.390 . S
C1120 C1121 1.394 1_445 S
C1120 C1126 1.465 1_556 S
C1121 C1116 1.399 . S
C1121 C1120 1.394 1_665 S
C1121 C1122 1.516 1_556 S
C1122 C1121 1.516 1_554 S
C1122 C1123 1.502 . S
C1122 C1124 1.561 1_655 S
C1122 C1125 1.526 . S
C1123 H1107 0.959 . S
C1123 H1108 0.959 . S
C1123 H1109 0.961 1_554 S
C1123 C1122 1.502 . S
C1124 H1110 0.960 1_454 S
C1124 H1111 0.961 1_455 S
C1124 H1112 0.959 . S
C1124 C1122 1.561 1_455 S
C1125 C1122 1.526 . S
C1125 C1126 1.396 1_665 S
C1125 C1130 1.390 . S
C1126 C1120 1.465 1_554 S
C1126 C1125 1.396 1_445 S
C1126 C1127 1.399 . S
C1127 H1113 0.929 . S
C1127 C1126 1.399 . S
C1127 C1128 1.385 . S
C1128 H1114 0.931 . S
C1128 C1127 1.385 . S
C1128 C1129 1.389 . S
C1129 C1128 1.389 . S
C1129 C1130 1.387 1_445 S
C1130 H1115 0.930 . S
C1130 C1125 1.390 . S
C1130 C1129 1.387 1_665 S
H1131 C1143 0.930 . S
H1132 C1145 0.930 . S
H1133 C1146 0.930 . S
H1134 C1150 0.959 . S
H1135 C1150 0.959 . S
H1136 C1150 0.961 . S
H1137 C1151 0.960 . S
H1138 C1151 0.961 . S
H1139 C1151 0.959 . S
H1140 C1154 0.929 . S
H1141 C1155 0.931 . S
H1142 C1157 0.930 . S
C1143 H1131 0.930 . S
C1143 C1144 1.399 . S
C1143 C1148 1.399 . S
C1144 C1143 1.399 . S
C1144 C1145 1.376 . S
C1145 H1132 0.930 . S
C1145 C1144 1.376 . S
C1145 C1146 1.388 . S
C1146 H1133 0.930 . S
C1146 C1145 1.388 . S
C1146 C1147 1.390 . S
C1147 C1146 1.390 . S
C1147 C1148 1.394 . S
C1147 C1153 1.465 . S
C1148 C1143 1.399 . S
C1148 C1147 1.394 . S
C1148 C1149 1.516 . S
C1149 C1148 1.516 . S
C1149 C1150 1.502 . S
C1149 C1151 1.561 . S
C1149 C1152 1.526 . S
C1150 H1134 0.959 . S
C1150 H1135 0.959 . S
C1150 H1136 0.961 . S
C1150 C1149 1.502 . S
C1151 H1137 0.960 . S
C1151 H1138 0.961 . S
C1151 H1139 0.959 . S
C1151 C1149 1.561 . S
C1152 C1149 1.526 . S
C1152 C1153 1.396 . S
C1152 C1157 1.390 . S
C1153 C1147 1.465 . S
C1153 C1152 1.396 . S
C1153 C1154 1.399 . S
C1154 H1140 0.929 . S
C1154 C1153 1.399 . S
C1154 C1155 1.385 . S
C1155 H1141 0.931 . S
C1155 C1154 1.385 . S
C1155 C1156 1.389 . S
C1156 C1155 1.389 . S
C1156 C1157 1.387 . S
C1157 H1142 0.930 . S
C1157 C1152 1.390 . S
C1157 C1156 1.387 . S
H1158 C1170 0.930 . S
H1159 C1172 0.930 . S
H1160 C1173 0.930 . S
H1161 C1177 0.959 . S
H1162 C1177 0.959 . S
H1163 C1177 0.961 . S
H1164 C1178 0.960 . S
H1165 C1178 0.961 . S
H1166 C1178 0.959 . S
H1167 C1181 0.929 . S
H1168 C1182 0.931 . S
H1169 C1184 0.930 . S
C1170 H1158 0.930 . S
C1170 C1171 1.399 . S
C1170 C1175 1.399 . S
C1171 C1170 1.399 . S
C1171 C1172 1.376 1_565 S
C1172 H1159 0.930 . S
C1172 C1171 1.376 1_545 S
C1172 C1173 1.388 . S
C1173 H1160 0.930 . S
C1173 C1172 1.388 . S
C1173 C1174 1.390 . S
C1174 C1173 1.390 . S
C1174 C1175 1.394 1_545 S
C1174 C1180 1.465 . S
C1175 C1170 1.399 . S
C1175 C1174 1.394 1_565 S
C1175 C1176 1.516 . S
C1176 C1175 1.516 . S
C1176 C1177 1.502 . S
C1176 C1178 1.561 . S
C1176 C1179 1.526 . S
C1177 H1161 0.959 . S
C1177 H1162 0.959 . S
C1177 H1163 0.961 . S
C1177 C1176 1.502 . S
C1178 H1164 0.960 . S
C1178 H1165 0.961 . S
C1178 H1166 0.959 . S
C1178 C1176 1.561 . S
C1179 C1176 1.526 . S
C1179 C1180 1.396 1_565 S
C1179 C1184 1.390 . S
C1180 C1174 1.465 . S
C1180 C1179 1.396 1_545 S
C1180 C1181 1.399 . S
C1181 H1167 0.929 . S
C1181 C1180 1.399 . S
C1181 C1182 1.385 . S
C1182 H1168 0.931 . S
C1182 C1181 1.385 . S
C1182 C1183 1.389 . S
C1183 C1182 1.389 . S
C1183 C1184 1.387 1_545 S
C1184 H1169 0.930 . S
C1184 C1179 1.390 . S
C1184 C1183 1.387 1_565 S
H1185 C1197 0.930 . S
H1186 C1199 0.930 . S
H1187 C1200 0.930 . S
H1188 C1204 0.959 . S
H1189 C1204 0.959 . S
H1190 C1204 0.961 . S
H1191 C1205 0.960 . S
H1192 C1205 0.961 . S
H1193 C1205 0.959 . S
H1194 C1208 0.929 . S
H1195 C1209 0.931 . S
H1196 C1211 0.930 . S
C1197 H1185 0.930 . S
C1197 C1198 1.399 . S
C1197 C1202 1.399 . S
C1198 C1197 1.399 . S
C1198 C1199 1.376 . S
C1199 H1186 0.930 . S
C1199 C1198 1.376 . S
C1199 C1200 1.388 . S
C1200 H1187 0.930 . S
C1200 C1199 1.388 . S
C1200 C1201 1.390 . S
C1201 C1200 1.390 . S
C1201 C1202 1.394 . S
C1201 C1207 1.465 . S
C1202 C1197 1.399 . S
C1202 C1201 1.394 . S
C1202 C1203 1.516 . S
C1203 C1202 1.516 . S
C1203 C1204 1.502 . S
C1203 C1205 1.561 . S
C1203 C1206 1.526 . S
C1204 H1188 0.959 . S
C1204 H1189 0.959 . S
C1204 H1190 0.961 . S
C1204 C1203 1.502 . S
C1205 H1191 0.960 . S
C1205 H1192 0.961 . S
C1205 H1193 0.959 . S
C1205 C1203 1.561 . S
C1206 C1203 1.526 . S
C1206 C1207 1.396 . S
C1206 C1211 1.390 . S
C1207 C1201 1.465 . S
C1207 C1206 1.396 . S
C1207 C1208 1.399 . S
C1208 H1194 0.929 . S
C1208 C1207 1.399 . S
C1208 C1209 1.385 . S
C1209 H1195 0.931 . S
C1209 C1208 1.385 . S
C1209 C1210 1.389 . S
C1210 C1209 1.389 . S
C1210 C1211 1.387 . S
C1211 H1196 0.930 . S
C1211 C1206 1.390 . S
C1211 C1210 1.387 . S
H1212 C1224 0.930 . S
H1213 C1226 0.930 . S
H1214 C1227 0.930 . S
H1215 C1231 0.959 . S
H1216 C1231 0.959 . S
H1217 C1231 0.961 . S
H1218 C1232 0.960 . S
H1219 C1232 0.961 . S
H1220 C1232 0.959 . S
H1221 C1235 0.929 . S
H1222 C1236 0.931 . S
H1223 C1238 0.930 . S
C1224 H1212 0.930 . S
C1224 C1225 1.399 . S
C1224 C1229 1.399 . S
C1225 C1224 1.399 . S
C1225 C1226 1.376 . S
C1226 H1213 0.930 . S
C1226 C1225 1.376 . S
C1226 C1227 1.388 . S
C1227 H1214 0.930 . S
C1227 C1226 1.388 . S
C1227 C1228 1.390 . S
C1228 C1227 1.390 . S
C1228 C1229 1.394 . S
C1228 C1234 1.465 . S
C1229 C1224 1.399 . S
C1229 C1228 1.394 . S
C1229 C1230 1.516 . S
C1230 C1229 1.516 . S
C1230 C1231 1.502 . S
C1230 C1232 1.561 . S
C1230 C1233 1.526 . S
C1231 H1215 0.959 . S
C1231 H1216 0.959 . S
C1231 H1217 0.961 . S
C1231 C1230 1.502 . S
C1232 H1218 0.960 . S
C1232 H1219 0.961 . S
C1232 H1220 0.959 . S
C1232 C1230 1.561 . S
C1233 C1230 1.526 . S
C1233 C1234 1.396 . S
C1233 C1238 1.390 . S
C1234 C1228 1.465 . S
C1234 C1233 1.396 . S
C1234 C1235 1.399 . S
C1235 H1221 0.929 . S
C1235 C1234 1.399 . S
C1235 C1236 1.385 . S
C1236 H1222 0.931 . S
C1236 C1235 1.385 . S
C1236 C1237 1.389 . S
C1237 C1236 1.389 . S
C1237 C1238 1.387 . S
C1238 H1223 0.930 . S
C1238 C1233 1.390 . S
C1238 C1237 1.387 . S
H1239 C1251 0.930 . S
H1240 C1253 0.930 . S
H1241 C1254 0.930 . S
H1242 C1258 0.959 . S
H1243 C1258 0.959 . S
H1244 C1258 0.961 . S
H1245 C1259 0.960 . S
H1246 C1259 0.961 . S
H1247 C1259 0.959 . S
H1248 C1262 0.929 . S
H1249 C1263 0.931 . S
H1250 C1265 0.930 . S
C1251 H1239 0.930 . S
C1251 C1252 1.399 . S
C1251 C1256 1.399 . S
C1252 C1251 1.399 . S
C1252 C1253 1.376 . S
C1253 H1240 0.930 . S
C1253 C1252 1.376 . S
C1253 C1254 1.388 . S
C1254 H1241 0.930 . S
C1254 C1253 1.388 . S
C1254 C1255 1.390 . S
C1255 C1254 1.390 . S
C1255 C1256 1.394 . S
C1255 C1261 1.465 . S
C1256 C1251 1.399 . S
C1256 C1255 1.394 . S
C1256 C1257 1.516 . S
C1257 C1256 1.516 . S
C1257 C1258 1.502 . S
C1257 C1259 1.561 . S
C1257 C1260 1.526 . S
C1258 H1242 0.959 . S
C1258 H1243 0.959 . S
C1258 H1244 0.961 . S
C1258 C1257 1.502 . S
C1259 H1245 0.960 . S
C1259 H1246 0.961 . S
C1259 H1247 0.959 . S
C1259 C1257 1.561 . S
C1260 C1257 1.526 . S
C1260 C1261 1.396 . S
C1260 C1265 1.390 . S
C1261 C1255 1.465 . S
C1261 C1260 1.396 . S
C1261 C1262 1.399 . S
C1262 H1248 0.929 . S
C1262 C1261 1.399 . S
C1262 C1263 1.385 . S
C1263 H1249 0.931 . S
C1263 C1262 1.385 . S
C1263 C1264 1.389 . S
C1264 C1263 1.389 . S
C1264 C1265 1.387 . S
C1265 H1250 0.930 . S
C1265 C1260 1.390 . S
C1265 C1264 1.387 . S
H1266 C1278 0.930 . S
H1267 C1280 0.930 . S
H1268 C1281 0.930 . S
H1269 C1285 0.959 . S
H1270 C1285 0.959 . S
H1271 C1285 0.961 . S
H1272 C1286 0.960 . S
H1273 C1286 0.961 . S
H1274 C1286 0.959 . S
H1275 C1289 0.929 . S
H1276 C1290 0.931 . S
H1277 C1292 0.930 . S
C1278 H1266 0.930 . S
C1278 C1279 1.399 . S
C1278 C1283 1.399 . S
C1279 C1278 1.399 . S
C1279 C1280 1.376 . S
C1280 H1267 0.930 . S
C1280 C1279 1.376 . S
C1280 C1281 1.388 . S
C1281 H1268 0.930 . S
C1281 C1280 1.388 . S
C1281 C1282 1.390 . S
C1282 C1281 1.390 . S
C1282 C1283 1.394 . S
C1282 C1288 1.465 . S
C1283 C1278 1.399 . S
C1283 C1282 1.394 . S
C1283 C1284 1.516 . S
C1284 C1283 1.516 . S
C1284 C1285 1.502 . S
C1284 C1286 1.561 . S
C1284 C1287 1.526 . S
C1285 H1269 0.959 . S
C1285 H1270 0.959 . S
C1285 H1271 0.961 . S
C1285 C1284 1.502 . S
C1286 H1272 0.960 . S
C1286 H1273 0.961 . S
C1286 H1274 0.959 . S
C1286 C1284 1.561 . S
C1287 C1284 1.526 . S
C1287 C1288 1.396 . S
C1287 C1292 1.390 . S
C1288 C1282 1.465 . S
C1288 C1287 1.396 . S
C1288 C1289 1.399 . S
C1289 H1275 0.929 . S
C1289 C1288 1.399 . S
C1289 C1290 1.385 . S
C1290 H1276 0.931 . S
C1290 C1289 1.385 . S
C1290 C1291 1.389 . S
C1291 C1290 1.389 . S
C1291 C1292 1.387 . S
C1292 H1277 0.930 . S
C1292 C1287 1.390 . S
C1292 C1291 1.387 . S
H1293 C1305 0.930 . S
H1294 C1307 0.930 . S
H1295 C1308 0.930 . S
H1296 C1312 0.959 . S
H1297 C1312 0.959 . S
H1298 C1312 0.961 1_556 S
H1299 C1313 0.960 1_456 S
H1300 C1313 0.961 1_455 S
H1301 C1313 0.959 . S
H1302 C1316 0.929 . S
H1303 C1317 0.931 . S
H1304 C1319 0.930 . S
C1305 H1293 0.930 . S
C1305 C1306 1.388 1_455 S
C1305 C1310 1.399 . S
C1306 C1305 1.388 1_655 S
C1306 C1307 1.393 . S
C1307 H1294 0.930 . S
C1307 C1306 1.393 . S
C1307 C1308 1.388 . S
C1308 H1295 0.930 . S
C1308 C1307 1.388 . S
C1308 C1309 1.390 . S
C1309 C1308 1.390 . S
C1309 C1310 1.394 1_655 S
C1309 C1315 1.465 1_556 S
C1310 C1305 1.399 . S
C1310 C1309 1.394 1_455 S
C1310 C1311 1.516 1_556 S
C1311 C1310 1.516 1_554 S
C1311 C1312 1.502 . S
C1311 C1313 1.561 1_455 S
C1311 C1314 1.526 . S
C1312 H1296 0.959 . S
C1312 H1297 0.959 . S
C1312 H1298 0.961 1_554 S
C1312 C1311 1.502 . S
C1313 H1299 0.960 1_654 S
C1313 H1300 0.961 1_655 S
C1313 H1301 0.959 . S
C1313 C1311 1.561 1_655 S
C1314 C1311 1.526 . S
C1314 C1315 1.396 1_455 S
C1314 C1319 1.390 . S
C1315 C1309 1.465 1_554 S
C1315 C1314 1.396 1_655 S
C1315 C1316 1.399 . S
C1316 H1302 0.929 . S
C1316 C1315 1.399 . S
C1316 C1317 1.385 . S
C1317 H1303 0.931 . S
C1317 C1316 1.385 . S
C1317 C1318 1.389 . S
C1318 C1317 1.389 . S
C1318 C1319 1.387 1_655 S
C1319 H1304 0.930 . S
C1319 C1314 1.390 . S
C1319 C1318 1.387 1_455 S
C685 C67 1.506 . S
C697 C319 1.495 . S
C712 C68 1.473 . S
C724 C151 1.500 . S
C739 C152 1.500 . S
C751 C235 1.505 . S
C766 C236 1.475 . S
C778 C320 1.503 . S
C793 C55 1.508 . S
C805 C475 1.498 . S
C820 C56 1.474 . S
C832 C391 1.492 . S
C847 C392 1.505 . S
C859 C223 1.489 . S
C874 C476 1.497 . S
C886 C224 1.482 . S
C901 C571 1.501 . S
C913 C487 1.507 . S
C928 C403 1.481 . S
C940 C572 1.503 . S
C955 C655 1.508 . S
C967 C404 1.489 . S
C982 C488 1.484 . S
C994 C656 1.504 . S
C1009 C307 1.480 . S
C1021 C559 1.482 . S
C1036 C560 1.512 . S
C1048 C139 1.507 . S
C1063 C140 1.492 . S
C1075 C643 1.477 . S
C1090 C308 1.475 . S
C1102 C644 1.497 . S
C1117 C58 1.352 1_465 S
C1129 C70 1.359 1_545 S
C1144 C154 1.318 . S
C1156 C142 1.338 . S
C1171 C238 1.277 1_565 S
C1183 C226 1.408 1_545 S
C1198 C310 1.272 . S
C1210 C322 1.401 . S
C1225 C406 1.329 . S
C1237 C394 1.328 . S
C1252 C478 1.405 . S
C1264 C490 1.276 . S
C1279 C574 1.280 . S
C1291 C562 1.408 . S
C1306 C646 1.339 1_655 S
C1318 C658 1.360 . S
