# Generated by pormake.
# Topology wji, (4)-cn, num edge types: 1
# Building blocks:
#     Node 0, Type 0, BuildingBlock: UXUYUI_clean_sbu_0, # of connection points: 4
#     Node 1, Type 0, BuildingBlock: UXUYUI_clean_sbu_0, # of connection points: 4
#     Node 2, Type 0, BuildingBlock: UXUYUI_clean_sbu_0, # of connection points: 4
#     Node 3, Type 0, BuildingBlock: UXUYUI_clean_sbu_0, # of connection points: 4
#     Node 4, Type 0, BuildingBlock: UXUYUI_clean_sbu_0, # of connection points: 4
#     Node 5, Type 0, BuildingBlock: UXUYUI_clean_sbu_0, # of connection points: 4
#     Node 6, Type 0, BuildingBlock: UXUYUI_clean_sbu_0, # of connection points: 4
#     Node 7, Type 0, BuildingBlock: UXUYUI_clean_sbu_0, # of connection points: 4
#     Node 8, Type 0, BuildingBlock: UXUYUI_clean_sbu_0, # of connection points: 4
#     Node 9, Type 0, BuildingBlock: UXUYUI_clean_sbu_0, # of connection points: 4
#     Node 10, Type 0, BuildingBlock: UXUYUI_clean_sbu_0, # of connection points: 4
#     Node 11, Type 0, BuildingBlock: UXUYUI_clean_sbu_0, # of connection points: 4
#     Edge 12, Type (0, 0), BuildingBlock: EZIPEK_clean_linker_0, # of connection points: 2
#     Edge 13, Type (0, 0), BuildingBlock: EZIPEK_clean_linker_0, # of connection points: 2
#     Edge 14, Type (0, 0), BuildingBlock: EZIPEK_clean_linker_0, # of connection points: 2
#     Edge 15, Type (0, 0), BuildingBlock: EZIPEK_clean_linker_0, # of connection points: 2
#     Edge 16, Type (0, 0), BuildingBlock: EZIPEK_clean_linker_0, # of connection points: 2
#     Edge 17, Type (0, 0), BuildingBlock: EZIPEK_clean_linker_0, # of connection points: 2
#     Edge 18, Type (0, 0), BuildingBlock: EZIPEK_clean_linker_0, # of connection points: 2
#     Edge 19, Type (0, 0), BuildingBlock: EZIPEK_clean_linker_0, # of connection points: 2
#     Edge 20, Type (0, 0), BuildingBlock: EZIPEK_clean_linker_0, # of connection points: 2
#     Edge 21, Type (0, 0), BuildingBlock: EZIPEK_clean_linker_0, # of connection points: 2
#     Edge 22, Type (0, 0), BuildingBlock: EZIPEK_clean_linker_0, # of connection points: 2
#     Edge 23, Type (0, 0), BuildingBlock: EZIPEK_clean_linker_0, # of connection points: 2
#     Edge 24, Type (0, 0), BuildingBlock: EZIPEK_clean_linker_0, # of connection points: 2
#     Edge 25, Type (0, 0), BuildingBlock: EZIPEK_clean_linker_0, # of connection points: 2
#     Edge 26, Type (0, 0), BuildingBlock: EZIPEK_clean_linker_0, # of connection points: 2
#     Edge 27, Type (0, 0), BuildingBlock: EZIPEK_clean_linker_0, # of connection points: 2
#     Edge 28, Type (0, 0), BuildingBlock: EZIPEK_clean_linker_0, # of connection points: 2
#     Edge 29, Type (0, 0), BuildingBlock: EZIPEK_clean_linker_0, # of connection points: 2
#     Edge 30, Type (0, 0), BuildingBlock: EZIPEK_clean_linker_0, # of connection points: 2
#     Edge 31, Type (0, 0), BuildingBlock: EZIPEK_clean_linker_0, # of connection points: 2
#     Edge 32, Type (0, 0), BuildingBlock: EZIPEK_clean_linker_0, # of connection points: 2
#     Edge 33, Type (0, 0), BuildingBlock: EZIPEK_clean_linker_0, # of connection points: 2
#     Edge 34, Type (0, 0), BuildingBlock: EZIPEK_clean_linker_0, # of connection points: 2
#     Edge 35, Type (0, 0), BuildingBlock: EZIPEK_clean_linker_0, # of connection points: 2
# Relax obj value: 0.267
# Max RMSD: 0.141
# Mean RMSD: 0.141
data_MOF--net-wji--node1-UXUYUI_clean_sbu_0--edge1-EZIPEK_clean_linker_0
_symmetry_space_group_name_H-M    P1
_symmetry_Int_Tables_number       1
_symmetry_cell_setting            triclinic
loop_
_symmetry_equiv_pos_as_xyz
'x, y, z'
_cell_length_a     68.391837
_cell_length_b     68.388738
_cell_length_c     27.265008
_cell_angle_alpha  89.987179
_cell_angle_beta   90.008168
_cell_angle_gamma 120.01619
loop_
_atom_site_label
_atom_site_type_symbol
_atom_site_fract_x
_atom_site_fract_y
_atom_site_fract_z
_atom_type_partial_charge
Li0 Li 0.41084 0.33166 0.4541 0.0
Li1 Li 0.41822 0.30142 0.43342 0.0
Li2 Li 0.44525 0.34131 0.41085 0.0
Li3 Li 0.40838 0.32041 0.36803 0.0
C4 C 0.45559 0.33515 0.50114 0.0
N5 N 0.49647 0.35055 0.54839 0.0
C6 C 0.46556 0.32162 0.50338 0.0
C7 C 0.46647 0.35654 0.52287 0.0
C8 C 0.48621 0.3297 0.52747 0.0
C9 C 0.4871 0.364 0.54662 0.0
C10 C 0.37311 0.28045 0.42451 0.0
C11 C 0.3523 0.24414 0.38519 0.0
N12 N 0.34019 0.23542 0.42707 0.0
C13 C 0.36039 0.27122 0.46704 0.0
C14 C 0.369 0.26689 0.38314 0.0
C15 C 0.34385 0.24837 0.46766 0.0
C16 C 0.37757 0.34002 0.49263 0.0
N17 N 0.3969 0.33977 0.50295 0.0
C18 C 0.39632 0.35045 0.58582 0.0
C19 C 0.40623 0.34455 0.54845 0.0
C20 C 0.37661 0.35116 0.57598 0.0
C21 C 0.36708 0.34586 0.52899 0.0
H22 H 0.37042 0.33576 0.45616 0.0
H23 H 0.42128 0.34369 0.55575 0.0
C24 C 0.42057 0.25976 0.44903 0.0
N25 N 0.41466 0.27487 0.46571 0.0
C26 C 0.41933 0.24287 0.48054 0.0
C27 C 0.40571 0.25736 0.54478 0.0
C28 C 0.40727 0.27384 0.51245 0.0
C29 C 0.41201 0.24181 0.52918 0.0
H30 H 0.42682 0.26119 0.41199 0.0
H31 H 0.40315 0.28635 0.52501 0.0
C32 C 0.41798 0.36757 0.4062 0.0
N33 N 0.40564 0.39923 0.42978 0.0
C34 C 0.40151 0.36902 0.37868 0.0
C35 C 0.42836 0.38242 0.44538 0.0
C36 C 0.39549 0.38512 0.39121 0.0
C37 C 0.42182 0.39823 0.45687 0.0
C38 C 0.4382 0.30995 0.32253 0.0
C39 C 0.45507 0.32775 0.29545 0.0
C40 C 0.42577 0.28858 0.30125 0.0
C41 C 0.45897 0.32394 0.24702 0.0
C42 C 0.43017 0.28547 0.25272 0.0
N43 N 0.44652 0.30306 0.22683 0.0
C44 C 0.49339 0.35956 0.40845 0.0
C45 C 0.48056 0.38581 0.39984 0.0
C46 C 0.51587 0.37715 0.40927 0.0
N47 N 0.47629 0.36425 0.40484 0.0
C48 C 0.50266 0.40382 0.40077 0.0
C49 C 0.52055 0.39957 0.40639 0.0
H50 H 0.48954 0.34224 0.41187 0.0
H51 H 0.46679 0.38911 0.39598 0.0
C52 C 0.37021 0.31341 0.31388 0.0
N53 N 0.39245 0.3198 0.30911 0.0
C54 C 0.35926 0.3189 0.27756 0.0
C55 C 0.39378 0.33602 0.23039 0.0
C56 C 0.40418 0.3306 0.268 0.0
C57 C 0.37128 0.33089 0.23579 0.0
H58 H 0.36145 0.30568 0.34765 0.0
H59 H 0.42203 0.33651 0.26579 0.0
O60 O 0.43543 0.32763 0.47742 0.0
O61 O 0.38968 0.30263 0.42355 0.0
O62 O 0.42384 0.35163 0.39504 0.0
O63 O 0.43426 0.31327 0.37006 0.0
H64 H 0.45761 0.30517 0.48628 0.0
H65 H 0.45915 0.36734 0.52116 0.0
H66 H 0.49413 0.31943 0.52937 0.0
H67 H 0.4957 0.38052 0.5635 0.0
H68 H 0.34896 0.23341 0.35349 0.0
H69 H 0.36337 0.28157 0.49932 0.0
H70 H 0.37862 0.27387 0.34987 0.0
H71 H 0.33395 0.24094 0.50041 0.0
H72 H 0.4039 0.35442 0.62198 0.0
H73 H 0.35182 0.3463 0.52069 0.0
H74 H 0.42441 0.23111 0.46755 0.0
H75 H 0.40008 0.25703 0.58207 0.0
H76 H 0.39346 0.3579 0.34796 0.0
H77 H 0.44109 0.38151 0.46719 0.0
H78 H 0.38272 0.38637 0.37026 0.0
H79 H 0.42955 0.40965 0.48741 0.0
H80 H 0.4649 0.34437 0.31147 0.0
H81 H 0.41293 0.27455 0.32207 0.0
H82 H 0.47186 0.33758 0.22549 0.0
H83 H 0.42062 0.26904 0.23568 0.0
H84 H 0.5294 0.37338 0.41323 0.0
H85 H 0.50578 0.42095 0.39793 0.0
H86 H 0.34197 0.31488 0.28317 0.0
H87 H 0.4036 0.34544 0.19884 0.0
Li88 Li 0.12071 0.41683 0.59681 0.0
Li89 Li 0.08466 0.41137 0.62491 0.0
Li90 Li 0.0891 0.40574 0.53742 0.0
Li91 Li 0.10744 0.44396 0.57191 0.0
C92 C 0.09334 0.37101 0.57843 0.0
N93 N 0.09867 0.33587 0.54471 0.0
C94 C 0.08175 0.34984 0.60091 0.0
C95 C 0.10764 0.37434 0.5388 0.0
C96 C 0.08468 0.33229 0.58334 0.0
C97 C 0.1101 0.35635 0.52228 0.0
C98 C 0.11635 0.44676 0.68161 0.0
C99 C 0.10687 0.46857 0.736 0.0
N100 N 0.11894 0.46588 0.77235 0.0
C101 C 0.12884 0.44439 0.71933 0.0
C102 C 0.10541 0.45909 0.68983 0.0
C103 C 0.12988 0.4541 0.76502 0.0
C104 C 0.167 0.4305 0.61971 0.0
N105 N 0.14495 0.41438 0.62572 0.0
C106 C 0.15457 0.39808 0.69263 0.0
C107 C 0.13859 0.39817 0.66086 0.0
C108 C 0.17728 0.41489 0.68836 0.0
C109 C 0.18361 0.43099 0.65074 0.0
H110 H 0.17151 0.44366 0.59267 0.0
H111 H 0.12089 0.38611 0.66625 0.0
C112 C 0.04382 0.39589 0.67724 0.0
N113 N 0.0656 0.40064 0.67971 0.0
C114 C 0.03017 0.38831 0.71884 0.0
C115 C 0.06147 0.38997 0.76399 0.0
C116 C 0.07444 0.39734 0.72147 0.0
C117 C 0.03918 0.38554 0.76268 0.0
H118 H 0.03705 0.39791 0.64304 0.0
H119 H 0.09156 0.40045 0.72164 0.0
C120 C 0.12681 0.43828 0.48284 0.0
N121 N 0.13623 0.45383 0.38743 0.0
C122 C 0.11336 0.44541 0.45917 0.0
C123 C 0.14504 0.43902 0.45806 0.0
C124 C 0.11839 0.45323 0.41092 0.0
C125 C 0.14954 0.44694 0.40981 0.0
C126 C 0.06038 0.4292 0.55649 0.0
C127 C 0.05222 0.4271 0.50857 0.0
C128 C 0.05368 0.43922 0.59241 0.0
C129 C 0.03762 0.4352 0.49739 0.0
C130 C 0.03906 0.44713 0.57974 0.0
N131 N 0.0314 0.44497 0.5329 0.0
C132 C 0.04856 0.37496 0.49594 0.0
C133 C 0.0776 0.38905 0.43612 0.0
C134 C 0.03208 0.36418 0.45985 0.0
N135 N 0.07074 0.38766 0.48351 0.0
C136 C 0.06161 0.37837 0.39872 0.0
C137 C 0.03849 0.36631 0.41047 0.0
H138 H 0.04356 0.37428 0.53383 0.0
H139 H 0.09529 0.39915 0.42696 0.0
C140 C 0.13464 0.49063 0.59093 0.0
N141 N 0.11644 0.47536 0.56463 0.0
C142 C 0.13954 0.51303 0.59476 0.0
C143 C 0.1075 0.50384 0.54266 0.0
C144 C 0.10345 0.48178 0.53922 0.0
C145 C 0.12533 0.51956 0.57179 0.0
H146 H 0.14476 0.48515 0.61078 0.0
H147 H 0.0894 0.46971 0.51763 0.0
O148 O 0.09062 0.38831 0.59548 0.0
O149 O 0.11506 0.43725 0.63672 0.0
O150 O 0.12203 0.43025 0.52978 0.0
O151 O 0.07477 0.42141 0.56811 0.0
H152 H 0.07064 0.34704 0.63168 0.0
H153 H 0.11677 0.39056 0.52089 0.0
H154 H 0.07583 0.31581 0.60041 0.0
H155 H 0.1211 0.35867 0.49163 0.0
H156 H 0.09844 0.47813 0.74289 0.0
H157 H 0.13752 0.43502 0.71349 0.0
H158 H 0.09602 0.46143 0.66082 0.0
H159 H 0.13939 0.45229 0.79462 0.0
H160 H 0.14915 0.38557 0.72155 0.0
H161 H 0.20101 0.4443 0.64685 0.0
H162 H 0.01287 0.38473 0.717 0.0
H163 H 0.06866 0.38767 0.7974 0.0
H164 H 0.09901 0.44457 0.4776 0.0
H165 H 0.15555 0.43343 0.47591 0.0
H166 H 0.10806 0.45872 0.39209 0.0
H167 H 0.16358 0.44758 0.39012 0.0
H168 H 0.05731 0.4196 0.48006 0.0
H169 H 0.0596 0.44082 0.62973 0.0
H170 H 0.03128 0.43377 0.46043 0.0
H171 H 0.03377 0.45494 0.60718 0.0
H172 H 0.01442 0.35503 0.47017 0.0
H173 H 0.06711 0.38027 0.3609 0.0
H174 H 0.15358 0.52487 0.61718 0.0
H175 H 0.09638 0.50843 0.52398 0.0
Li176 Li 0.7053 0.12063 0.75997 0.0
Li177 Li 0.67774 0.08376 0.79111 0.0
Li178 Li 0.68538 0.08888 0.70162 0.0
Li179 Li 0.66494 0.10568 0.74262 0.0
C180 C 0.72191 0.09159 0.78674 0.0
N181 N 0.75376 0.09133 0.84858 0.0
C182 C 0.72466 0.10027 0.83425 0.0
C183 C 0.73528 0.08272 0.77071 0.0
C184 C 0.74087 0.1 0.86495 0.0
C185 C 0.75131 0.08276 0.80253 0.0
C186 C 0.66831 0.11253 0.84732 0.0
C187 C 0.63286 0.09683 0.8906 0.0
N188 N 0.64363 0.11063 0.92927 0.0
C189 C 0.67903 0.12657 0.8875 0.0
C190 C 0.64505 0.09752 0.84892 0.0
C191 C 0.66626 0.12534 0.92859 0.0
C192 C 0.72833 0.1621 0.8076 0.0
N193 N 0.73221 0.14725 0.7822 0.0
C194 C 0.77048 0.16564 0.81073 0.0
C195 C 0.75303 0.14919 0.78186 0.0
C196 C 0.76636 0.18015 0.83983 0.0
C197 C 0.74524 0.17874 0.83688 0.0
H198 H 0.71162 0.16013 0.80748 0.0
H199 H 0.75572 0.13712 0.76175 0.0
C200 C 0.66315 0.04071 0.82845 0.0
N201 N 0.67045 0.06243 0.84191 0.0
C202 C 0.65653 0.02393 0.86408 0.0
C203 C 0.66571 0.05238 0.92657 0.0
C204 C 0.67241 0.0686 0.88985 0.0
C205 C 0.65743 0.0298 0.91357 0.0
H206 H 0.66214 0.03642 0.78999 0.0
H207 H 0.6791 0.08604 0.89979 0.0
C208 C 0.70732 0.13194 0.66064 0.0
N209 N 0.74045 0.15431 0.5908 0.0
C210 C 0.70533 0.14619 0.62679 0.0
C211 C 0.72614 0.12903 0.65895 0.0
C212 C 0.72226 0.15735 0.59175 0.0
C213 C 0.74272 0.14052 0.62339 0.0
C214 C 0.63521 0.0561 0.72833 0.0
C215 C 0.62767 0.04933 0.68032 0.0
C216 C 0.621 0.04438 0.76764 0.0
C217 C 0.60594 0.03116 0.67244 0.0
C218 C 0.59941 0.02628 0.75824 0.0
N219 N 0.59238 0.0201 0.71123 0.0
C220 C 0.68407 0.05176 0.65595 0.0
C221 C 0.68007 0.07596 0.59961 0.0
C222 C 0.6785 0.03539 0.61957 0.0
N223 N 0.68436 0.07137 0.64567 0.0
C224 C 0.67433 0.05997 0.56209 0.0
C225 C 0.67303 0.03923 0.57235 0.0
H226 H 0.687 0.04834 0.69316 0.0
H227 H 0.67979 0.09139 0.59269 0.0
C228 C 0.64162 0.12916 0.76502 0.0
N229 N 0.64104 0.11249 0.73665 0.0
C230 C 0.62284 0.13211 0.76752 0.0
C231 C 0.60386 0.10182 0.70884 0.0
C232 C 0.62295 0.0994 0.70763 0.0
C233 C 0.60355 0.11795 0.74 0.0
H234 H 0.65631 0.13954 0.78732 0.0
H235 H 0.62306 0.08666 0.68455 0.0
O236 O 0.7063 0.09181 0.75577 0.0
O237 O 0.68066 0.11338 0.80703 0.0
O238 O 0.69073 0.12081 0.6948 0.0
O239 O 0.65657 0.07371 0.73674 0.0
H240 H 0.71458 0.10738 0.84709 0.0
H241 H 0.73333 0.07596 0.73399 0.0
H242 H 0.74326 0.10675 0.90174 0.0
H243 H 0.76183 0.07599 0.79058 0.0
H244 H 0.61483 0.08536 0.89216 0.0
H245 H 0.69707 0.1381 0.88724 0.0
H246 H 0.63646 0.08669 0.8181 0.0
H247 H 0.67436 0.13604 0.96 0.0
H248 H 0.78665 0.16637 0.81213 0.0
H249 H 0.74156 0.18973 0.85874 0.0
H250 H 0.65031 0.00656 0.85327 0.0
H251 H 0.66684 0.05732 0.96468 0.0
H252 H 0.69081 0.14855 0.62756 0.0
H253 H 0.72797 0.11802 0.68461 0.0
H254 H 0.72093 0.16842 0.56529 0.0
H255 H 0.75737 0.13843 0.62167 0.0
H256 H 0.63833 0.0582 0.64942 0.0
H257 H 0.62656 0.04907 0.8051 0.0
H258 H 0.59985 0.02586 0.63546 0.0
H259 H 0.58826 0.01709 0.78834 0.0
H260 H 0.67745 0.01948 0.62872 0.0
H261 H 0.66999 0.06332 0.52607 0.0
H262 H 0.62307 0.14478 0.79173 0.0
H263 H 0.58922 0.09077 0.68693 0.0
Li264 Li 0.59428 0.67311 0.95681 0.0
Li265 Li 0.58689 0.70368 0.92542 0.0
Li266 Li 0.55975 0.66157 0.90639 0.0
Li267 Li 0.59719 0.68166 0.86988 0.0
C268 C 0.55772 0.66986 0.01391 0.0
N269 N 0.53644 0.65406 0.10309 0.0
C270 C 0.55771 0.6849 0.04856 0.0
C271 C 0.54689 0.64679 0.02453 0.0
C272 C 0.54688 0.67659 0.09349 0.0
C273 C 0.53621 0.63913 0.06982 0.0
C274 C 0.6354 0.71492 0.90211 0.0
C275 C 0.65858 0.74351 0.8433 0.0
N276 N 0.67566 0.73923 0.8522 0.0
C277 C 0.65318 0.71085 0.91091 0.0
C278 C 0.63809 0.73141 0.86824 0.0
C279 C 0.67341 0.72331 0.88521 0.0
C280 C 0.61657 0.65279 1.00072 0.0
N281 N 0.60651 0.66525 0.00981 0.0
C282 C 0.61388 0.66602 0.09547 0.0
C283 C 0.60547 0.67236 0.05578 0.0
C284 C 0.62385 0.65276 0.08717 0.0
C285 C 0.62546 0.64629 0.03928 0.0
H286 H 0.61753 0.64782 0.96354 0.0
H287 H 0.59812 0.68293 0.06168 0.0
C288 C 0.56916 0.73159 0.95596 0.0
N289 N 0.58832 0.73035 0.95137 0.0
C290 C 0.56887 0.74795 0.98643 0.0
C291 C 0.60817 0.76183 0.00549 0.0
C292 C 0.60772 0.74526 0.97471 0.0
C293 C 0.58842 0.76291 0.01247 0.0
H294 H 0.55376 0.71903 0.93844 0.0
H295 H 0.6225 0.74343 0.97176 0.0
C296 C 0.57598 0.63012 0.89333 0.0
N297 N 0.56288 0.58544 0.87569 0.0
C298 C 0.57589 0.62273 0.84546 0.0
C299 C 0.56946 0.6148 0.93221 0.0
C300 C 0.56921 0.60007 0.83731 0.0
C301 C 0.56286 0.59227 0.92253 0.0
C302 C 0.5689 0.69063 0.8133 0.0
C303 C 0.55772 0.67133 0.78406 0.0
C304 C 0.57696 0.71197 0.79247 0.0
C305 C 0.55489 0.67374 0.7341 0.0
C306 C 0.57378 0.71366 0.74236 0.0
N307 N 0.56292 0.69468 0.71446 0.0
C308 C 0.51315 0.6402 0.93002 0.0
C309 C 0.52261 0.61988 0.87361 0.0
C310 C 0.49105 0.62207 0.93358 0.0
N311 N 0.5286 0.63851 0.90156 0.0
C312 C 0.5008 0.60133 0.87632 0.0
C313 C 0.48498 0.60214 0.90759 0.0
H314 H 0.51822 0.65529 0.95146 0.0
H315 H 0.53486 0.61907 0.85021 0.0
C316 C 0.62636 0.66971 0.82793 0.0
N317 N 0.61467 0.68025 0.8152 0.0
C318 C 0.6372 0.66383 0.79236 0.0
C319 C 0.62476 0.68061 0.73084 0.0
C320 C 0.61425 0.68635 0.76781 0.0
C321 C 0.63597 0.6688 0.74307 0.0
H322 H 0.62641 0.66492 0.86572 0.0
H323 H 0.60524 0.69497 0.75819 0.0
O324 O 0.56832 0.67774 0.96983 0.0
O325 O 0.61527 0.7025 0.9258 0.0
O326 O 0.58277 0.65232 0.90212 0.0
O327 O 0.57161 0.68864 0.8623 0.0
H328 H 0.56609 0.70282 0.04093 0.0
H329 H 0.54661 0.63493 0.99795 0.0
H330 H 0.5468 0.68805 0.12072 0.0
H331 H 0.52771 0.62131 0.07849 0.0
H332 H 0.66089 0.75626 0.81677 0.0
H333 H 0.65127 0.69806 0.93696 0.0
H334 H 0.6244 0.73466 0.861 0.0
H335 H 0.68729 0.72028 0.8914 0.0
H336 H 0.61266 0.67137 0.13218 0.0
H337 H 0.63322 0.63612 0.03206 0.0
H338 H 0.55332 0.74827 0.9914 0.0
H339 H 0.62347 0.77306 0.02533 0.0
H340 H 0.58062 0.63427 0.81481 0.0
H341 H 0.56962 0.62024 0.96951 0.0
H342 H 0.56901 0.59412 0.80045 0.0
H343 H 0.55778 0.58023 0.95228 0.0
H344 H 0.55145 0.65472 0.79971 0.0
H345 H 0.58557 0.72704 0.8148 0.0
H346 H 0.54636 0.65898 0.71092 0.0
H347 H 0.57996 0.73007 0.72565 0.0
H348 H 0.47909 0.62322 0.95773 0.0
H349 H 0.49651 0.58624 0.85539 0.0
H350 H 0.64568 0.65469 0.80296 0.0
H351 H 0.62358 0.68472 0.69299 0.0
Li352 Li 0.92275 0.59151 0.12126 0.0
Li353 Li 0.88653 0.58642 0.09714 0.0
Li354 Li 0.89902 0.55795 0.0738 0.0
Li355 Li 0.91686 0.59536 0.03714 0.0
C356 C 0.89569 0.56081 0.18472 0.0
N357 N 0.90318 0.55081 0.27857 0.0
C358 C 0.8892 0.56874 0.22522 0.0
C359 C 0.90591 0.54772 0.19189 0.0
C360 C 0.89316 0.56352 0.27239 0.0
C361 C 0.90958 0.54287 0.23965 0.0
C362 C 0.91523 0.63264 0.079 0.0
C363 C 0.8966 0.6493 0.03506 0.0
N364 N 0.91232 0.67001 0.05194 0.0
C365 C 0.93115 0.65405 0.09613 0.0
C366 C 0.89776 0.63019 0.04847 0.0
C367 C 0.92941 0.67275 0.08195 0.0
C368 C 0.9576 0.59533 0.18372 0.0
N369 N 0.94263 0.60248 0.17494 0.0
C370 C 0.95429 0.62539 0.24682 0.0
C371 C 0.94069 0.61718 0.2053 0.0
C372 C 0.97006 0.6185 0.25628 0.0
C373 C 0.97176 0.60336 0.22444 0.0
H374 H 0.9584 0.58327 0.1594 0.0
H375 H 0.92837 0.62227 0.19744 0.0
C376 C 0.8405 0.57345 0.11966 0.0
N377 N 0.86259 0.58936 0.12596 0.0
C378 C 0.82389 0.57342 0.1499 0.0
C379 C 0.85304 0.60638 0.19144 0.0
C380 C 0.86902 0.60584 0.16045 0.0
C381 C 0.83027 0.58975 0.18697 0.0
H382 H 0.83592 0.56015 0.09296 0.0
H383 H 0.88675 0.6178 0.16586 0.0
C384 C 0.95454 0.59188 0.05885 0.0
N385 N 1.00063 0.61747 0.04386 0.0
C386 C 0.96586 0.61524 0.06663 0.0
C387 C 0.96673 0.58159 0.04346 0.0
C388 C 0.98914 0.62785 0.05895 0.0
C389 C 0.99 0.59481 0.03602 0.0
C390 C 0.87948 0.56726 0.98309 0.0
C391 C 0.88577 0.5536 0.95738 0.0
C392 C 0.8684 0.57686 0.95845 0.0
C393 C 0.88133 0.55017 0.90716 0.0
C394 C 0.86422 0.573 0.90822 0.0
N395 N 0.87075 0.55987 0.8838 0.0
C396 C 0.87072 0.51117 0.09177 0.0
C397 C 0.90453 0.52122 0.04834 0.0
C398 C 0.86589 0.48878 0.09556 0.0
N399 N 0.88993 0.52685 0.06904 0.0
C400 C 0.90043 0.49912 0.05145 0.0
C401 C 0.88118 0.48279 0.0762 0.0
H402 H 0.85965 0.51626 0.10867 0.0
H403 H 0.91973 0.53409 0.0309 0.0
C404 C 0.94247 0.6333 0.96973 0.0
N405 N 0.93341 0.61073 0.97784 0.0
C406 C 0.95849 0.64412 0.93251 0.0
C407 C 0.95517 0.6083 0.91154 0.0
C408 C 0.93926 0.59819 0.949 0.0
C409 C 0.96535 0.63161 0.90375 0.0
H410 H 0.9383 0.64327 0.99352 0.0
H411 H 0.93267 0.58052 0.95712 0.0
O412 O 0.89244 0.56615 0.13825 0.0
O413 O 0.91652 0.61419 0.09341 0.0
O414 O 0.93167 0.57908 0.06583 0.0
O415 O 0.8838 0.57088 0.03225 0.0
H416 H 0.88131 0.57893 0.2203 0.0
H417 H 0.91125 0.54164 0.16093 0.0
H418 H 0.88829 0.56961 0.3041 0.0
H419 H 0.91758 0.53287 0.24577 0.0
H420 H 0.88317 0.64765 0.01138 0.0
H421 H 0.94468 0.65616 0.12015 0.0
H422 H 0.88518 0.6137 0.03563 0.0
H423 H 0.94161 0.68944 0.09487 0.0
H424 H 0.95265 0.63701 0.27115 0.0
H425 H 0.98373 0.5977 0.23136 0.0
H426 H 0.80643 0.56026 0.14587 0.0
H427 H 0.85849 0.61907 0.21997 0.0
H428 H 0.95685 0.62362 0.07844 0.0
H429 H 0.95833 0.56357 0.03725 0.0
H430 H 0.99807 0.64592 0.0648 0.0
H431 H 0.99961 0.58705 0.02402 0.0
H432 H 0.89425 0.54594 0.97586 0.0
H433 H 0.8629 0.58705 0.97785 0.0
H434 H 0.8863 0.53979 0.88675 0.0
H435 H 0.85572 0.58038 0.88866 0.0
H436 H 0.85091 0.4765 0.1149 0.0
H437 H 0.9125 0.49495 0.03611 0.0
H438 H 0.96616 0.6622 0.92756 0.0
H439 H 0.96024 0.5982 0.89027 0.0
Li440 Li 0.32801 0.91906 0.2823 0.0
Li441 Li 0.29983 0.88227 0.25308 0.0
Li442 Li 0.34208 0.89806 0.23524 0.0
Li443 Li 0.32053 0.91449 0.19521 0.0
C444 C 0.3268 0.8864 0.34657 0.0
N445 N 0.32919 0.87901 0.44542 0.0
C446 C 0.3092 0.883 0.37792 0.0
C447 C 0.34553 0.88585 0.36537 0.0
C448 C 0.31074 0.87932 0.4278 0.0
C449 C 0.34645 0.88217 0.41551 0.0
C450 C 0.27922 0.90865 0.26184 0.0
C451 C 0.24255 0.90302 0.24019 0.0
N452 N 0.23773 0.90301 0.28859 0.0
C453 C 0.27391 0.90863 0.31136 0.0
C454 C 0.26342 0.90582 0.22591 0.0
C455 C 0.25284 0.90572 0.32414 0.0
C456 C 0.32673 0.95396 0.33334 0.0
N457 N 0.33548 0.93995 0.33434 0.0
C458 C 0.35576 0.95709 0.40779 0.0
C459 C 0.34999 0.94143 0.37014 0.0
C460 C 0.34659 0.97135 0.40805 0.0
C461 C 0.33201 0.96988 0.3704 0.0
H462 H 0.3158 0.95287 0.30355 0.0
H463 H 0.35751 0.93084 0.36893 0.0
C464 C 0.27853 0.84069 0.30172 0.0
N465 N 0.27357 0.85509 0.27748 0.0
C466 C 0.2625 0.82378 0.33212 0.0
C467 C 0.23582 0.83551 0.30925 0.0
C468 C 0.25236 0.85215 0.27907 0.0
C469 C 0.24113 0.82161 0.33731 0.0
H470 H 0.29545 0.84323 0.29992 0.0
H471 H 0.24842 0.86327 0.2589 0.0
C472 C 0.36497 0.9514 0.24256 0.0
N473 N 0.39362 0.99484 0.27534 0.0
C474 C 0.36176 0.96914 0.22752 0.0
C475 C 0.38275 0.95577 0.27434 0.0
C476 C 0.37644 0.99098 0.24444 0.0
C477 C 0.39703 0.97783 0.29054 0.0
C478 C 0.30598 0.87705 0.14379 0.0
C479 C 0.31917 0.87788 0.10388 0.0
C480 C 0.28354 0.87142 0.1365 0.0
C481 C 0.30966 0.87314 0.05698 0.0
C482 C 0.27466 0.86679 0.08904 0.0
N483 N 0.28779 0.86776 0.0506 0.0
C484 C 0.36255 0.87069 0.24101 0.0
C485 C 0.3869 0.90904 0.21953 0.0
C486 C 0.38082 0.86686 0.24244 0.0
N487 N 0.36598 0.89161 0.23027 0.0
C488 C 0.40564 0.90611 0.22163 0.0
C489 C 0.40273 0.8849 0.23383 0.0
H490 H 0.34572 0.85717 0.24966 0.0
H491 H 0.3891 0.92541 0.21048 0.0
C492 C 0.31035 0.94336 0.1389 0.0
N493 N 0.32163 0.93167 0.13819 0.0
C494 C 0.31508 0.96015 0.10401 0.0
C495 C 0.34271 0.95244 0.06757 0.0
C496 C 0.33743 0.93574 0.10318 0.0
C497 C 0.33176 0.96514 0.06852 0.0
H498 H 0.29886 0.94084 0.16853 0.0
H499 H 0.34693 0.92701 0.10469 0.0
O500 O 0.3256 0.88989 0.29753 0.0
O501 O 0.2998 0.91158 0.24848 0.0
O502 O 0.35048 0.92982 0.22719 0.0
O503 O 0.31507 0.88213 0.18978 0.0
H504 H 0.29444 0.88303 0.36386 0.0
H505 H 0.35927 0.88841 0.34154 0.0
H506 H 0.29724 0.87665 0.45248 0.0
H507 H 0.36089 0.88181 0.43064 0.0
H508 H 0.23013 0.90073 0.21279 0.0
H509 H 0.28592 0.91088 0.33967 0.0
H510 H 0.26706 0.90541 0.18743 0.0
H511 H 0.24851 0.90564 0.36233 0.0
H512 H 0.36735 0.95821 0.43621 0.0
H513 H 0.32498 0.98097 0.36962 0.0
H514 H 0.26707 0.81322 0.35315 0.0
H515 H 0.21936 0.83408 0.31212 0.0
H516 H 0.348 0.9661 0.20337 0.0
H517 H 0.38523 0.94219 0.28716 0.0
H518 H 0.37412 0.00485 0.23312 0.0
H519 H 0.41075 0.98142 0.31541 0.0
H520 H 0.3366 0.8823 0.10908 0.0
H521 H 0.27317 0.87076 0.16716 0.0
H522 H 0.31967 0.8738 0.02566 0.0
H523 H 0.25733 0.86247 0.08277 0.0
H524 H 0.37803 0.85025 0.25165 0.0
H525 H 0.4223 0.92033 0.21444 0.0
H526 H 0.30661 0.96993 0.10614 0.0
H527 H 0.35589 0.95612 0.04104 0.0
Li528 Li 0.68376 0.59491 0.4686 0.0
Li529 Li 0.66427 0.55766 0.4274 0.0
Li530 Li 0.70455 0.58359 0.41087 0.0
Li531 Li 0.67651 0.59204 0.37788 0.0
C532 C 0.70632 0.57465 0.51063 0.0
N533 N 0.73919 0.58627 0.5815 0.0
C534 C 0.7041 0.55889 0.54601 0.0
C535 C 0.72524 0.59634 0.51131 0.0
C536 C 0.7209 0.56509 0.58155 0.0
C537 C 0.74168 0.60188 0.5474 0.0
C538 C 0.63352 0.57617 0.44174 0.0
C539 C 0.59675 0.5681 0.41372 0.0
N540 N 0.59022 0.56751 0.46106 0.0
C541 C 0.62646 0.57562 0.49011 0.0
C542 C 0.61857 0.5725 0.40319 0.0
C543 C 0.6045 0.57116 0.49912 0.0
C544 C 0.68094 0.63012 0.51276 0.0
N545 N 0.68249 0.61155 0.52392 0.0
C546 C 0.67381 0.61388 0.60806 0.0
C547 C 0.67947 0.60353 0.57065 0.0
C548 C 0.67124 0.63253 0.59699 0.0
C549 C 0.67537 0.64098 0.54897 0.0
H550 H 0.68292 0.63581 0.4751 0.0
H551 H 0.68021 0.58839 0.57835 0.0
C552 C 0.64377 0.51095 0.40718 0.0
N553 N 0.64109 0.52662 0.43247 0.0
C554 C 0.62594 0.4887 0.4036 0.0
C555 C 0.60338 0.49885 0.4543 0.0
C556 C 0.62165 0.52083 0.4571 0.0
C557 C 0.6053 0.48271 0.42631 0.0
H558 H 0.65945 0.51595 0.38816 0.0
H559 H 0.62002 0.53334 0.47783 0.0
C560 C 0.72159 0.63077 0.39121 0.0
N561 N 0.75708 0.66719 0.34522 0.0
C562 C 0.72665 0.62907 0.34231 0.0
C563 C 0.73452 0.65095 0.41675 0.0
C564 C 0.74468 0.64769 0.31969 0.0
C565 C 0.75241 0.66919 0.39284 0.0
C566 C 0.66828 0.55401 0.32301 0.0
C567 C 0.6794 0.55089 0.28336 0.0
C568 C 0.64495 0.54525 0.32084 0.0
C569 C 0.66695 0.53905 0.24218 0.0
C570 C 0.63309 0.53344 0.2791 0.0
N571 N 0.64424 0.53063 0.24093 0.0
C572 C 0.72817 0.56554 0.36504 0.0
C573 C 0.75233 0.6037 0.38804 0.0
C574 C 0.74507 0.56586 0.33568 0.0
N575 N 0.73176 0.5845 0.38905 0.0
C576 C 0.76972 0.60479 0.35886 0.0
C577 C 0.76584 0.58588 0.33114 0.0
H578 H 0.71165 0.55055 0.3662 0.0
H579 H 0.75486 0.61858 0.40735 0.0
C580 C 0.65911 0.61753 0.33619 0.0
N581 N 0.66924 0.60529 0.32547 0.0
C582 C 0.65227 0.62655 0.29847 0.0
C583 C 0.66719 0.61085 0.23968 0.0
C584 C 0.67384 0.60227 0.27847 0.0
C585 C 0.65606 0.62286 0.24976 0.0
H586 H 0.65598 0.6199 0.37401 0.0
H587 H 0.68254 0.5931 0.27095 0.0
O588 O 0.68985 0.56878 0.47596 0.0
O589 O 0.65508 0.58078 0.43221 0.0
O590 O 0.70436 0.61269 0.41456 0.0
O591 O 0.68031 0.56579 0.36339 0.0
H592 H 0.68951 0.54205 0.54604 0.0
H593 H 0.72725 0.60882 0.48445 0.0
H594 H 0.7194 0.55306 0.6092 0.0
H595 H 0.75641 0.61859 0.54835 0.0
H596 H 0.58502 0.5652 0.38422 0.0
H597 H 0.63768 0.57826 0.52045 0.0
H598 H 0.62373 0.57316 0.36547 0.0
H599 H 0.59879 0.57055 0.53639 0.0
H600 H 0.67053 0.60686 0.64474 0.0
H601 H 0.67333 0.65521 0.53922 0.0
H602 H 0.62793 0.47652 0.38199 0.0
H603 H 0.5877 0.49462 0.47263 0.0
H604 H 0.71708 0.6134 0.32241 0.0
H605 H 0.73083 0.65243 0.45475 0.0
H606 H 0.74891 0.64659 0.28194 0.0
H607 H 0.76262 0.68491 0.41219 0.0
H608 H 0.69749 0.55778 0.28409 0.0
H609 H 0.63607 0.54736 0.35122 0.0
H610 H 0.67536 0.53659 0.21117 0.0
H611 H 0.615 0.5265 0.27708 0.0
H612 H 0.7416 0.55098 0.31482 0.0
H613 H 0.78564 0.62047 0.35619 0.0
H614 H 0.64374 0.63588 0.30702 0.0
H615 H 0.67046 0.60797 0.20226 0.0
Li616 Li 0.0883 0.68102 0.63144 0.0
Li617 Li 0.10646 0.66055 0.59329 0.0
Li618 Li 0.11916 0.70177 0.57071 0.0
Li619 Li 0.08321 0.6714 0.54755 0.0
C620 C 0.12704 0.68787 0.68347 0.0
N621 N 0.13885 0.6863 0.77971 0.0
C622 C 0.11856 0.66714 0.70746 0.0
C623 C 0.14176 0.7078 0.70823 0.0
C624 C 0.12465 0.66669 0.75618 0.0
C625 C 0.14747 0.70665 0.75693 0.0
C626 C 0.05234 0.63558 0.59157 0.0
C627 C 0.02417 0.60099 0.55355 0.0
N628 N 0.0081 0.60649 0.56437 0.0
C629 C 0.03553 0.64089 0.6022 0.0
C630 C 0.04662 0.61547 0.56702 0.0
C631 C 0.01327 0.62595 0.58822 0.0
C632 C 0.0624 0.69313 0.69801 0.0
N633 N 0.07146 0.6796 0.6901 0.0
C634 C 0.04918 0.65511 0.75553 0.0
C635 C 0.06525 0.66097 0.71838 0.0
C636 C 0.0391 0.66832 0.76327 0.0
C637 C 0.04614 0.68779 0.73474 0.0
H638 H 0.06672 0.70735 0.67436 0.0
H639 H 0.07173 0.64983 0.71016 0.0
C640 C 0.13587 0.64235 0.58576 0.0
N641 N 0.11501 0.63812 0.59969 0.0
C642 C 0.14078 0.62479 0.58433 0.0
C643 C 0.10282 0.59913 0.61245 0.0
C644 C 0.0988 0.61719 0.61423 0.0
C645 C 0.12386 0.60277 0.5964 0.0
H646 H 0.14839 0.65917 0.57418 0.0
H647 H 0.08252 0.6144 0.62595 0.0
C648 C 0.09345 0.72102 0.59391 0.0
N649 N 0.10198 0.76227 0.63047 0.0
C650 C 0.08076 0.73067 0.57775 0.0
C651 C 0.11059 0.73247 0.6284 0.0
C652 C 0.08531 0.75151 0.59671 0.0
C653 C 0.1146 0.75325 0.64655 0.0
C654 C 0.11377 0.67209 0.48066 0.0
C655 C 0.11348 0.6872 0.44657 0.0
C656 C 0.11508 0.6534 0.46438 0.0
C657 C 0.11443 0.6833 0.39657 0.0
C658 C 0.11599 0.65008 0.41407 0.0
N659 N 0.11565 0.66498 0.38149 0.0
C660 C 0.16533 0.73161 0.54443 0.0
C661 C 0.13902 0.74144 0.51328 0.0
C662 C 0.18237 0.74787 0.51444 0.0
N663 N 0.14406 0.7285 0.54279 0.0
C664 C 0.15547 0.75776 0.48262 0.0
C665 C 0.17728 0.76074 0.48227 0.0
H666 H 0.16875 0.72065 0.56702 0.0
H667 H 0.12185 0.73814 0.51114 0.0
C668 C 0.04987 0.67228 0.48997 0.0
N669 N 0.06194 0.66157 0.49572 0.0
C670 C 0.03402 0.66589 0.45242 0.0
C671 C 0.04312 0.63734 0.42792 0.0
C672 C 0.05873 0.64423 0.46603 0.0
C673 C 0.03075 0.64836 0.42092 0.0
H674 H 0.05253 0.68572 0.51468 0.0
H675 H 0.06817 0.63567 0.47214 0.0
O676 O 0.12133 0.68867 0.63572 0.0
O677 O 0.07433 0.6503 0.60391 0.0
O678 O 0.08932 0.70074 0.57505 0.0
O679 O 0.11299 0.67562 0.52979 0.0
H680 H 0.10725 0.65155 0.68883 0.0
H681 H 0.14882 0.72399 0.69001 0.0
H682 H 0.11809 0.65076 0.77527 0.0
H683 H 0.1588 0.72195 0.77657 0.0
H684 H 0.01955 0.58547 0.5342 0.0
H685 H 0.03965 0.65654 0.62038 0.0
H686 H 0.05944 0.61129 0.55738 0.0
H687 H 1.00012 0.62989 0.59612 0.0
H688 H 0.04392 0.63983 0.77658 0.0
H689 H 0.03849 0.69822 0.73958 0.0
H690 H 0.15725 0.62814 0.57213 0.0
H691 H 0.08949 0.58237 0.62246 0.0
H692 H 0.06755 0.7222 0.55077 0.0
H693 H 0.12074 0.72549 0.64091 0.0
H694 H 0.0756 0.75914 0.58454 0.0
H695 H 0.12779 0.76224 0.67335 0.0
H696 H 0.11223 0.7016 0.45855 0.0
H697 H 0.11525 0.6415 0.4903 0.0
H698 H 0.11414 0.69481 0.36974 0.0
H699 H 0.11694 0.63566 0.40093 0.0
H700 H 0.19904 0.7497 0.51469 0.0
H701 H 0.15099 0.76731 0.45793 0.0
H702 H 0.02452 0.67454 0.44778 0.0
H703 H 0.04073 0.62363 0.40412 0.0
Li704 Li 0.44309 0.10011 0.75113 0.0
Li705 Li 0.40692 0.08472 0.79391 0.0
Li706 Li 0.40774 0.07859 0.70647 0.0
Li707 Li 0.4163 0.11549 0.73417 0.0
C708 C 0.42514 0.05673 0.79341 0.0
N709 N 0.43548 0.03399 0.86313 0.0
C710 C 0.43997 0.06858 0.83167 0.0
C711 C 0.41541 0.03328 0.79081 0.0
C712 C 0.44503 0.0568 0.8665 0.0
C713 C 0.4209 0.02209 0.82634 0.0
C714 C 0.43479 0.12801 0.83861 0.0
C715 C 0.42394 0.15009 0.88871 0.0
N716 N 0.43861 0.15143 0.92401 0.0
C717 C 0.45011 0.13002 0.87495 0.0
C718 C 0.4219 0.13849 0.84512 0.0
C719 C 0.45165 0.14176 0.91804 0.0
C720 C 0.49082 0.1269 0.76781 0.0
N721 N 0.4736 0.10648 0.75319 0.0
C722 C 0.49922 0.09298 0.73815 0.0
C723 C 0.47738 0.08964 0.73859 0.0
C724 C 0.51729 0.11386 0.75274 0.0
C725 C 0.51304 0.131 0.76787 0.0
H726 H 0.4873 0.13998 0.77922 0.0
H727 H 0.46339 0.07357 0.72718 0.0
C728 C 0.37145 0.04889 0.84269 0.0
N729 N 0.3911 0.06821 0.85199 0.0
C730 C 0.3594 0.03383 0.8805 0.0
C731 C 0.38836 0.05817 0.93689 0.0
C732 C 0.39993 0.07282 0.89791 0.0
C733 C 0.36675 0.0388 0.92985 0.0
H734 H 0.36556 0.0447 0.80525 0.0
H735 H 0.41645 0.08728 0.90406 0.0
C736 C 0.43718 0.10548 0.63984 0.0
N737 N 0.44237 0.09926 0.54158 0.0
C738 C 0.4314 0.11634 0.60406 0.0
C739 C 0.44575 0.09158 0.62565 0.0
C740 C 0.4341 0.11294 0.55457 0.0
C741 C 0.4482 0.08861 0.5758 0.0
C742 C 0.36952 0.08889 0.75353 0.0
C743 C 0.35231 0.08352 0.71939 0.0
C744 C 0.36788 0.0963 0.80029 0.0
C745 C 0.33404 0.08625 0.73219 0.0
C746 C 0.34933 0.09876 0.81175 0.0
N747 N 0.33295 0.09377 0.77771 0.0
C748 C 0.39623 0.04017 0.6493 0.0
C749 C 0.38304 0.06421 0.61982 0.0
C750 C 0.38717 0.02615 0.60862 0.0
N751 N 0.39403 0.05875 0.65388 0.0
C752 C 0.37386 0.05075 0.57839 0.0
C753 C 0.37602 0.03159 0.57272 0.0
H754 H 0.40541 0.03657 0.6767 0.0
H755 H 0.38192 0.07933 0.62439 0.0
C756 C 0.4298 0.16246 0.72081 0.0
N757 N 0.41401 0.14078 0.71066 0.0
C758 C 0.42888 0.1804 0.6981 0.0
C759 C 0.39616 0.15342 0.65348 0.0
C760 C 0.39773 0.13607 0.67676 0.0
C761 C 0.41087 0.17632 0.66595 0.0
H762 H 0.44367 0.16586 0.74507 0.0
H763 H 0.3866 0.11878 0.66581 0.0
O764 O 0.41971 0.06792 0.75928 0.0
O765 O 0.43328 0.11685 0.7959 0.0
O766 O 0.43429 0.10826 0.68848 0.0
O767 O 0.38745 0.08615 0.74149 0.0
H768 H 0.44738 0.08665 0.83458 0.0
H769 H 0.40367 0.0238 0.76178 0.0
H770 H 0.4565 0.06579 0.89628 0.0
H771 H 0.41353 0.00395 0.82474 0.0
H772 H 0.41393 0.15813 0.89435 0.0
H773 H 0.46071 0.1226 0.87002 0.0
H774 H 0.41056 0.13782 0.8167 0.0
H775 H 0.46329 0.14327 0.94665 0.0
H776 H 0.50203 0.07945 0.72642 0.0
H777 H 0.52673 0.14727 0.77946 0.0
H778 H 0.34499 0.01801 0.86969 0.0
H779 H 0.39724 0.06186 0.97131 0.0
H780 H 0.42488 0.12725 0.61431 0.0
H781 H 0.45008 0.08287 0.65279 0.0
H782 H 0.42963 0.12119 0.52649 0.0
H783 H 0.45462 0.07775 0.5643 0.0
H784 H 0.35311 0.07741 0.68327 0.0
H785 H 0.38062 0.09987 0.82768 0.0
H786 H 0.32071 0.08234 0.70597 0.0
H787 H 0.3479 0.10455 0.84778 0.0
H788 H 0.38917 0.01148 0.60467 0.0
H789 H 0.36544 0.05533 0.55083 0.0
H790 H 0.44303 0.19695 0.70475 0.0
H791 H 0.38385 0.14854 0.62443 0.0
Li792 Li 0.34222 0.442 0.92526 0.0
Li793 Li 0.32154 0.40551 0.96545 0.0
Li794 Li 0.32694 0.40796 0.87652 0.0
Li795 Li 0.30163 0.41899 0.91139 0.0
C796 C 0.36759 0.42246 0.95906 0.0
N797 N 0.40237 0.43099 0.02277 0.0
C798 C 0.36991 0.43394 0.00303 0.0
C799 C 0.38295 0.41536 0.94745 0.0
C800 C 0.38762 0.43808 0.03476 0.0
C801 C 0.40043 0.41983 0.98014 0.0
C802 C 0.30199 0.42821 0.01112 0.0
C803 C 0.26648 0.40282 0.04998 0.0
N804 N 0.27045 0.41896 0.08397 0.0
C805 C 0.30572 0.44453 0.0464 0.0
C806 C 0.28221 0.40716 0.01287 0.0
C807 C 0.28958 0.43953 0.08296 0.0
C808 C 0.36311 0.48956 0.938 0.0
N809 N 0.36711 0.4723 0.929 0.0
C810 C 0.4065 0.49828 0.918 0.0
C811 C 0.3883 0.47627 0.91911 0.0
C812 C 0.40282 0.51634 0.92665 0.0
C813 C 0.3809 0.51195 0.93699 0.0
H814 H 0.34605 0.48594 0.94507 0.0
H815 H 0.39109 0.46242 0.91085 0.0
C816 C 0.32857 0.37266 0.0075 0.0
N817 N 0.32271 0.38828 0.02025 0.0
C818 C 0.33464 0.36206 0.04335 0.0
C819 C 0.32724 0.38276 0.10538 0.0
C820 C 0.32169 0.39331 0.06818 0.0
C821 C 0.33442 0.36738 0.09295 0.0
H822 H 0.32972 0.36935 0.96912 0.0
H823 H 0.31764 0.40623 0.07754 0.0
C824 C 0.34063 0.4481 0.82604 0.0
N825 N 0.37074 0.47338 0.75286 0.0
C826 C 0.33563 0.46097 0.79402 0.0
C827 C 0.36093 0.44802 0.82058 0.0
C828 C 0.35108 0.47366 0.75735 0.0
C829 C 0.37592 0.46091 0.78343 0.0
C830 C 0.28289 0.37154 0.8861 0.0
C831 C 0.2767 0.37613 0.84056 0.0
C832 C 0.27237 0.34936 0.90349 0.0
C833 C 0.25993 0.35841 0.81319 0.0
C834 C 0.25566 0.33209 0.87503 0.0
N835 N 0.24984 0.33694 0.83086 0.0
C836 C 0.34243 0.38225 0.82771 0.0
C837 C 0.32512 0.39736 0.77647 0.0
C838 C 0.34804 0.37372 0.78699 0.0
N839 N 0.33156 0.39413 0.82154 0.0
C840 C 0.33034 0.38911 0.73484 0.0
C841 C 0.34227 0.37755 0.7401 0.0
H842 H 0.34721 0.37993 0.86412 0.0
H843 H 0.31655 0.40694 0.77269 0.0
C844 C 0.27912 0.43883 0.86739 0.0
N845 N 0.27497 0.41992 0.8924 0.0
C846 C 0.26233 0.43891 0.83827 0.0
C847 C 0.23666 0.40061 0.86418 0.0
C848 C 0.25395 0.40131 0.89308 0.0
C849 C 0.24111 0.41932 0.83505 0.0
H850 H 0.29595 0.45336 0.86745 0.0
H851 H 0.25105 0.38639 0.91286 0.0
O852 O 0.35015 0.41779 0.92777 0.0
O853 O 0.3178 0.43295 0.97546 0.0
O854 O 0.3256 0.43558 0.86215 0.0
O855 O 0.29904 0.38861 0.91395 0.0
H856 H 0.35812 0.4395 0.01266 0.0
H857 H 0.38138 0.40646 0.91354 0.0
H858 H 0.38959 0.44687 0.069 0.0
H859 H 0.41244 0.41441 0.97163 0.0
H860 H 0.25111 0.38661 0.05181 0.0
H861 H 0.32097 0.46088 0.04556 0.0
H862 H 0.27902 0.39425 0.98616 0.0
H863 H 0.29226 0.452 0.11053 0.0
H864 H 0.42325 0.50123 0.90965 0.0
H865 H 0.37761 0.52565 0.94367 0.0
H866 H 0.3402 0.3504 0.03241 0.0
H867 H 0.327 0.38733 0.14332 0.0
H868 H 0.31996 0.46113 0.79728 0.0
H869 H 0.36509 0.43805 0.84454 0.0
H870 H 0.34742 0.48371 0.73238 0.0
H871 H 0.39166 0.46097 0.77886 0.0
H872 H 0.28454 0.39325 0.82682 0.0
H873 H 0.27699 0.34557 0.93874 0.0
H874 H 0.25488 0.36175 0.778 0.0
H875 H 0.2473 0.31485 0.8881 0.0
H876 H 0.3573 0.36484 0.7918 0.0
H877 H 0.32578 0.3923 0.69888 0.0
H878 H 0.26625 0.45363 0.81634 0.0
H879 H 0.22041 0.38525 0.86247 0.0
Li880 Li 0.90006 0.34188 0.09446 0.0
Li881 Li 0.91748 0.32181 0.13536 0.0
Li882 Li 0.92523 0.33335 0.05045 0.0
Li883 Li 0.88761 0.30202 0.07149 0.0
C884 C 0.9537 0.36939 0.09817 0.0
N885 N 0.99736 0.40193 0.07424 0.0
C886 C 0.972 0.37052 0.12358 0.0
C887 C 0.95765 0.38501 0.06094 0.0
C888 C 0.99393 0.38707 0.11092 0.0
C889 C 0.97983 0.40125 0.04923 0.0
C890 C 0.87668 0.31213 0.18284 0.0
C891 C 0.85631 0.28949 0.25275 0.0
N892 N 0.86066 0.30856 0.27732 0.0
C893 C 0.88076 0.33149 0.20857 0.0
C894 C 0.86418 0.29094 0.20486 0.0
C895 C 0.8726 0.32934 0.25639 0.0
C896 C 0.86953 0.35947 0.09439 0.0
N897 N 0.89123 0.3643 0.1011 0.0
C898 C 0.90384 0.40368 0.10802 0.0
C899 C 0.90814 0.38581 0.10922 0.0
C900 C 0.88188 0.39934 0.09889 0.0
C901 C 0.86442 0.37691 0.09318 0.0
H902 H 0.85635 0.34219 0.08848 0.0
H903 H 0.92512 0.38919 0.11556 0.0
C904 C 0.94907 0.31443 0.18847 0.0
N905 N 0.93361 0.32134 0.19342 0.0
C906 C 0.96544 0.31947 0.2247 0.0
C907 C 0.94918 0.33773 0.27166 0.0
C908 C 0.93326 0.33254 0.23437 0.0
C909 C 0.96593 0.33175 0.26632 0.0
H910 H 0.94982 0.30651 0.1548 0.0
H911 H 0.92169 0.33889 0.23673 0.0
C912 C 0.88352 0.33574 0.00316 0.0
N913 N 0.85844 0.35074 0.95269 0.0
C914 C 0.86027 0.32155 0.99695 0.0
C915 C 0.89398 0.35759 0.98375 0.0
C916 C 0.84789 0.32945 0.9714 0.0
C917 C 0.88103 0.36482 0.95823 0.0
C918 C 0.9137 0.28254 0.08857 0.0
C919 C 0.92094 0.27175 0.05584 0.0
C920 C 0.9021 0.27139 0.13111 0.0
C921 C 0.91647 0.24989 0.06635 0.0
C922 C 0.89798 0.24956 0.14035 0.0
N923 N 0.90518 0.23934 0.10804 0.0
C924 C 0.96699 0.34291 0.01063 0.0
C925 C 0.94293 0.3485 0.95674 0.0
C926 C 0.98353 0.34985 0.97438 0.0
N927 N 0.94733 0.34263 1.00124 0.0
C928 C 0.95896 0.35559 0.91957 0.0
C929 C 0.97944 0.3563 0.9285 0.0
H930 H 0.96978 0.3378 0.04628 0.0
H931 H 0.92693 0.34754 0.94999 0.0
C932 C 0.84233 0.26357 0.0567 0.0
N933 N 0.86427 0.27494 0.04182 0.0
C934 C 0.82579 0.24676 0.02664 0.0
C935 C 0.8549 0.25317 0.96796 0.0
C936 C 0.87078 0.26982 0.99884 0.0
C937 C 0.83206 0.24179 0.98125 0.0
H938 H 0.83752 0.26832 0.09049 0.0
H939 H 0.88825 0.27948 0.98748 0.0
O940 O 0.93208 0.35303 0.10947 0.0
O941 O 0.88424 0.3138 0.13577 0.0
O942 O 0.89599 0.32824 0.02774 0.0
O943 O 0.91762 0.30376 0.07834 0.0
H944 H 0.96936 0.35877 0.15272 0.0
H945 H 0.94374 0.38441 0.04084 0.0
H946 H 0.00822 0.38806 0.13023 0.0
H947 H 0.9831 0.41328 0.02017 0.0
H948 H 0.84668 0.2732 0.27033 0.0
H949 H 0.89039 0.34803 0.1921 0.0
H950 H 0.86052 0.27575 0.18509 0.0
H951 H 0.87578 0.34419 0.27689 0.0
H952 H 0.91761 0.4208 0.11313 0.0
H953 H 0.84725 0.37305 0.08647 0.0
H954 H 0.97831 0.31487 0.21912 0.0
H955 H 0.94925 0.34747 0.30306 0.0
H956 H 0.8518 0.30466 0.01183 0.0
H957 H 0.91189 0.36891 0.98844 0.0
H958 H 0.82988 0.31864 0.96643 0.0
H959 H 0.88895 0.38166 0.94291 0.0
H960 H 0.92985 0.28016 0.02261 0.0
H961 H 0.89642 0.27954 0.15675 0.0
H962 H 0.92194 0.24131 0.04135 0.0
H963 H 0.88904 0.24073 0.17318 0.0
H964 H 0.99925 0.35018 0.98186 0.0
H965 H 0.95542 0.36032 0.88417 0.0
H966 H 0.80824 0.23833 0.03775 0.0
H967 H 0.86025 0.24979 0.93313 0.0
Li968 Li 0.59838 0.9163 0.29865 0.0
Li969 Li 0.5614 0.89944 0.26083 0.0
Li970 Li 0.58817 0.88366 0.24403 0.0
Li971 Li 0.5962 0.92146 0.21181 0.0
C972 C 0.57046 0.87925 0.35514 0.0
N973 N 0.56585 0.86917 0.45397 0.0
C974 C 0.55969 0.88734 0.38573 0.0
C975 C 0.57877 0.86593 0.37461 0.0
C976 C 0.55757 0.88209 0.43567 0.0
C977 C 0.57629 0.86104 0.42474 0.0
C978 C 0.57591 0.94523 0.27706 0.0
C979 C 0.55875 0.96723 0.25354 0.0
N980 N 0.55838 0.97264 0.3014 0.0
C981 C 0.57537 0.95103 0.32606 0.0
C982 C 0.56758 0.95344 0.24048 0.0
C983 C 0.56645 0.96491 0.33759 0.0
C984 C 0.62705 0.95746 0.34134 0.0
N985 N 0.61584 0.93516 0.35361 0.0
C986 C 0.62665 0.94464 0.43777 0.0
C987 C 0.61605 0.9285 0.40061 0.0
C988 C 0.6373 0.96772 0.42609 0.0
C989 C 0.63792 0.97407 0.37709 0.0
H990 H 0.62672 0.9624 0.30381 0.0
H991 H 0.60753 0.91081 0.40982 0.0
C992 C 0.51555 0.87553 0.23174 0.0
N993 N 0.53018 0.89138 0.26377 0.0
C994 C 0.49342 0.87137 0.22741 0.0
C995 C 0.5015 0.89925 0.29042 0.0
C996 C 0.52328 0.9025 0.29423 0.0
C997 C 0.48648 0.8839 0.25588 0.0
H998 H 0.52127 0.8666 0.20844 0.0
H999 H 0.53477 0.91435 0.3207 0.0
C1000 C 0.63668 0.921 0.26863 0.0
N1001 N 0.67655 0.93782 0.32049 0.0
C1002 C 0.65417 0.94306 0.26034 0.0
C1003 C 0.63948 0.90742 0.30293 0.0
C1004 C 0.6742 0.95127 0.28704 0.0
C1005 C 0.65976 0.91626 0.32887 0.0
C1006 C 0.56296 0.89025 0.1512 0.0
C1007 C 0.56601 0.87696 0.11657 0.0
C1008 C 0.55292 0.90286 0.13717 0.0
C1009 C 0.55917 0.87668 0.06818 0.0
C1010 C 0.54631 0.90214 0.08843 0.0
N1011 N 0.54956 0.88919 0.05522 0.0
C1012 C 0.56965 0.83809 0.21294 0.0
C1013 C 0.60875 0.86192 0.19741 0.0
C1014 C 0.56913 0.82132 0.18254 0.0
N1015 N 0.5892 0.85805 0.21907 0.0
C1016 C 0.60897 0.84563 0.16675 0.0
C1017 C 0.58886 0.82531 0.15812 0.0
H1018 H 0.55418 0.83579 0.22906 0.0
H1019 H 0.62385 0.87822 0.20146 0.0
C1020 C 0.61424 0.96265 0.16121 0.0
N1021 N 0.609 0.94074 0.15778 0.0
C1022 C 0.62296 0.97687 0.12068 0.0
C1023 C 0.62125 0.94579 0.0745 0.0
C1024 C 0.61288 0.93229 0.11612 0.0
C1025 C 0.62619 0.96825 0.07673 0.0
H1026 H 0.61154 0.96901 0.19529 0.0
H1027 H 0.60929 0.91501 0.11516 0.0
O1028 O 0.57244 0.88392 0.30614 0.0
O1029 O 0.58477 0.93182 0.2649 0.0
O1030 O 0.6167 0.9129 0.24411 0.0
O1031 O 0.5699 0.89101 0.19855 0.0
H1032 H 0.55319 0.89767 0.3711 0.0
H1033 H 0.58703 0.85946 0.35121 0.0
H1034 H 0.54937 0.88831 0.45988 0.0
H1035 H 0.58267 0.85079 0.44041 0.0
H1036 H 0.55221 0.97366 0.2256 0.0
H1037 H 0.58132 0.94453 0.35506 0.0
H1038 H 0.56796 0.94926 0.20239 0.0
H1039 H 0.56584 0.96943 0.37535 0.0
H1040 H 0.62599 0.93922 0.47535 0.0
H1041 H 0.646 0.99173 0.3669 0.0
H1042 H 0.4821 0.85918 0.20083 0.0
H1043 H 0.49657 0.90895 0.31346 0.0
H1044 H 0.65216 0.95377 0.23397 0.0
H1045 H 0.62601 0.89032 0.30977 0.0
H1046 H 0.68784 0.96836 0.28129 0.0
H1047 H 0.66214 0.906 0.35576 0.0
H1048 H 0.57381 0.86716 0.12687 0.0
H1049 H 0.5503 0.91309 0.16365 0.0
H1050 H 0.56155 0.86657 0.04092 0.0
H1051 H 0.5386 0.91188 0.077 0.0
H1052 H 0.55331 0.80586 0.17627 0.0
H1053 H 0.62443 0.84925 0.14817 0.0
H1054 H 0.62679 0.99424 0.12322 0.0
H1055 H 0.62378 0.93885 0.04097 0.0
C1056 C 0.33195 0.33433 0.14014 0.0
C1057 C 0.34317 0.35796 0.13112 0.0
C1058 C 0.37053 0.36377 0.19584 0.0
C1059 C 0.36115 0.34004 0.20028 0.0
N1060 N 0.33487 0.30261 0.17098 0.0
N1061 N 0.3761 0.39472 0.14356 0.0
C1062 C 0.34234 0.32525 0.17091 0.0
C1063 C 0.36328 0.37258 0.15713 0.0
N1064 N 0.31107 0.32063 0.12047 0.0
N1065 N 0.38583 0.37797 0.22962 0.0
H1066 H 0.37184 0.40179 0.11452 0.0
H1067 H 0.3921 0.40545 0.15791 0.0
H1068 H 0.39111 0.37223 0.25945 0.0
H1069 H 0.39144 0.3952 0.23093 0.0
H1070 H 0.30108 0.30364 0.12969 0.0
H1071 H 0.3028 0.32672 0.09849 0.0
H1072 H 0.32279 0.29132 0.14655 0.0
H1073 H 0.3422 0.29537 0.19249 0.0
C1074 C 0.01732 0.37245 0.34203 0.0
C1075 C 0.0208 0.35729 0.37137 0.0
C1076 C 0.9875 0.3252 0.33374 0.0
C1077 C 0.98516 0.34031 0.30178 0.0
N1078 N 1.0011 0.37783 0.26787 0.0
N1079 N 0.01179 0.31916 0.38912 0.0
C1080 C 1.00106 0.36381 0.30366 0.0
C1081 C 0.00663 0.3336 0.3654 0.0
N1082 N 0.0288 0.39506 0.35214 0.0
N1083 N 0.97102 0.30298 0.33517 0.0
H1084 H 0.02573 0.32475 0.41228 0.0
H1085 H 0.00352 0.30184 0.3825 0.0
H1086 H 0.95678 0.29625 0.31267 0.0
H1087 H 0.9705 0.29164 0.36134 0.0
H1088 H 0.02507 0.40654 0.33556 0.0
H1089 H 0.04063 0.40216 0.38031 0.0
H1090 H 0.01377 0.39465 0.26448 0.0
H1091 H 0.98973 0.37216 0.23865 0.0
C1092 C 0.66997 0.99734 0.47521 0.0
C1093 C 0.64645 0.98536 0.46513 0.0
C1094 C 0.64028 0.00743 0.52806 0.0
C1095 C 0.66399 0.02072 0.53517 0.0
N1096 N 0.70173 0.03025 0.51223 0.0
N1097 N 0.60945 0.98087 0.47655 0.0
C1098 C 0.67894 0.01616 0.50788 0.0
C1099 C 0.63165 0.9909 0.49015 0.0
N1100 N 0.68362 0.99038 0.45423 0.0
N1101 N 0.62595 0.01016 0.55857 0.0
H1102 H 0.60234 0.96835 0.44972 0.0
H1103 H 0.59842 0.98609 0.48913 0.0
H1104 H 0.63157 0.02226 0.58635 0.0
H1105 H 0.60854 0.99932 0.55907 0.0
H1106 H 0.70048 0.99679 0.46375 0.0
H1107 H 0.67762 0.97688 0.42971 0.0
H1108 H 0.71358 0.02941 0.48971 0.0
H1109 H 0.70883 0.04397 0.53623 0.0
C1110 C 0.6388 0.63053 0.64473 0.0
C1111 C 0.66231 0.64201 0.63437 0.0
C1112 C 0.66812 0.67245 0.69104 0.0
C1113 C 0.64496 0.66002 0.70434 0.0
N1114 N 0.60876 0.62588 0.69931 0.0
N1115 N 0.69991 0.67243 0.65118 0.0
C1116 C 0.63043 0.63868 0.68266 0.0
C1117 C 0.67714 0.66262 0.65844 0.0
N1118 N 0.62435 0.61223 0.61714 0.0
N1119 N 0.68135 0.69381 0.70894 0.0
H1120 H 0.70702 0.6658 0.62725 0.0
H1121 H 0.71188 0.68614 0.67134 0.0
H1122 H 0.67536 0.70129 0.73352 0.0
H1123 H 0.69771 0.70476 0.69687 0.0
H1124 H 0.60685 0.60468 0.61897 0.0
H1125 H 0.6298 0.60559 0.58936 0.0
H1126 H 0.59818 0.60909 0.68937 0.0
H1127 H 0.60176 0.63147 0.72601 0.0
C1128 C 0.02489 0.66498 0.84977 0.0
C1129 C 0.02015 0.66076 0.799 0.0
C1130 C 0.97942 0.64083 0.8167 0.0
C1131 C 0.98422 0.64291 0.86769 0.0
N1132 N 0.01145 0.65464 0.93333 0.0
N1133 N 0.99315 0.64269 0.73375 0.0
C1134 C 0.00696 0.6545 0.88442 0.0
C1135 C 0.99745 0.64824 0.7823 0.0
N1136 N 0.04655 0.67932 0.86477 0.0
N1137 N 0.95761 0.63216 0.80124 0.0
H1138 H 0.00583 0.64813 0.7073 0.0
H1139 H 0.97719 0.63141 0.72008 0.0
H1140 H 0.94403 0.62649 0.82547 0.0
H1141 H 0.95312 0.63232 0.76482 0.0
H1142 H 0.05085 0.68504 0.90069 0.0
H1143 H 0.06009 0.68703 0.8404 0.0
H1144 H 0.02758 0.66041 0.94737 0.0
H1145 H 0.99884 0.64744 0.9599 0.0
C1146 C 0.33252 0.00243 0.96344 0.0
C1147 C 0.35358 0.02239 0.97161 0.0
C1148 C 0.35668 0.00653 0.05005 0.0
C1149 C 0.33897 0.98493 0.03543 0.0
N1150 N 0.30923 0.9623 0.97815 0.0
N1151 N 0.37168 0.0466 0.04081 0.0
C1152 C 0.32654 0.98288 0.99223 0.0
C1153 C 0.3621 0.02565 0.02023 0.0
N1154 N 0.31673 0.00329 0.93441 0.0
N1155 N 0.36841 0.00891 0.09229 0.0
H1156 H 0.3715 0.06 0.02285 0.0
H1157 H 0.37641 0.04973 0.07758 0.0
H1158 H 0.36453 0.99552 0.11615 0.0
H1159 H 0.38293 0.02395 0.10168 0.0
H1160 H 0.3003 0.98983 0.93057 0.0
H1161 H 0.31926 0.01856 0.92015 0.0
H1162 H 0.30118 0.95965 0.94431 0.0
H1163 H 0.30409 0.94764 0.99869 0.0
C1164 C 0.57362 0.45419 0.37372 0.0
C1165 C 0.58526 0.45992 0.41928 0.0
C1166 C 0.55517 0.42508 0.45599 0.0
C1167 C 0.544 0.41893 0.40992 0.0
N1168 N 0.54501 0.42475 0.32263 0.0
N1169 N 0.58996 0.44878 0.50025 0.0
C1170 C 0.55406 0.43259 0.36799 0.0
C1171 C 0.57692 0.44466 0.45931 0.0
N1172 N 0.58054 0.46977 0.33675 0.0
N1173 N 0.54456 0.41289 0.49705 0.0
H1174 H 0.606 0.46297 0.50373 0.0
H1175 H 0.58582 0.4372 0.52869 0.0
H1176 H 0.52869 0.39838 0.49621 0.0
H1177 H 0.55071 0.41808 0.53244 0.0
H1178 H 0.57122 0.46746 0.3049 0.0
H1179 H 0.5947 0.48586 0.3394 0.0
H1180 H 0.55282 0.43293 0.29012 0.0
H1181 H 0.53074 0.40892 0.31724 0.0
C1182 C 0.1239 0.54859 0.62642 0.0
C1183 C 0.12819 0.54239 0.57961 0.0
C1184 C 0.13032 0.57622 0.5435 0.0
C1185 C 0.12754 0.58317 0.59085 0.0
N1186 N 0.12745 0.57886 0.67862 0.0
N1187 N 0.14107 0.55303 0.49642 0.0
C1188 C 0.12622 0.57027 0.63275 0.0
C1189 C 0.13325 0.55714 0.53905 0.0
N1190 N 0.11634 0.53338 0.66416 0.0
N1191 N 0.12886 0.58694 0.50252 0.0
H1192 H 0.14367 0.53933 0.49219 0.0
H1193 H 0.14709 0.56437 0.46722 0.0
H1194 H 0.12609 0.60059 0.50377 0.0
H1195 H 0.1283 0.58097 0.4671 0.0
H1196 H 0.1106 0.53623 0.69731 0.0
H1197 H 0.11378 0.51708 0.66102 0.0
H1198 H 0.12874 0.57113 0.71041 0.0
H1199 H 0.1295 0.59486 0.68452 0.0
C1200 C 0.54749 0.10829 0.79076 0.0
C1201 C 0.54055 0.11739 0.75223 0.0
C1202 C 0.57673 0.13037 0.71026 0.0
C1203 C 0.58249 0.11896 0.7458 0.0
N1204 N 0.57282 0.09522 0.81753 0.0
N1205 N 0.5473 0.13543 0.67315 0.0
C1206 C 0.56779 0.10754 0.78567 0.0
C1207 C 0.5549 0.12815 0.7115 0.0
N1208 N 0.53477 0.10068 0.83252 0.0
N1209 N 0.59229 0.1436 0.67582 0.0
H1210 H 0.53163 0.13455 0.67324 0.0
H1211 H 0.55582 0.14099 0.63991 0.0
H1212 H 0.60833 0.14536 0.67363 0.0
H1213 H 0.59008 0.15423 0.652 0.0
H1214 H 0.54001 0.096 0.86404 0.0
H1215 H 0.51971 0.10083 0.83724 0.0
H1216 H 0.56159 0.08436 0.8438 0.0
H1217 H 0.58772 0.09457 0.81564 0.0
C1218 C 0.44651 0.57384 0.87616 0.0
C1219 C 0.46255 0.58158 0.9148 0.0
C1220 C 0.43672 0.54895 0.96488 0.0
C1221 C 0.42214 0.53979 0.92396 0.0
N1222 N 0.4136 0.54224 0.83914 0.0
N1223 N 0.47435 0.57537 0.99402 0.0
C1224 C 0.42706 0.55196 0.87921 0.0
C1225 C 0.45797 0.56896 0.95892 0.0
N1226 N 0.44972 0.58762 0.83699 0.0
N1227 N 0.43016 0.53854 0.00952 0.0
H1228 H 0.49022 0.58981 0.99111 0.0
H1229 H 0.47293 0.56547 0.02429 0.0
H1230 H 0.41481 0.52369 0.01493 0.0
H1231 H 0.43893 0.54562 0.04192 0.0
H1232 H 0.43763 0.58391 0.80989 0.0
H1233 H 0.46376 0.60378 0.8338 0.0
H1234 H 0.41775 0.54905 0.80398 0.0
H1235 H 0.39888 0.52652 0.84034 0.0
C1236 C 0.87425 0.42537 0.04722 0.0
C1237 C 0.87774 0.41864 0.09419 0.0
C1238 C 0.8821 0.45343 0.13029 0.0
C1239 C 0.87787 0.45979 0.08363 0.0
N1240 N 0.86479 0.4497 1.00047 0.0
N1241 N 0.87952 0.42333 0.1819 0.0
C1242 C 0.87226 0.44502 0.04297 0.0
C1243 C 0.87986 0.43175 0.13625 0.0
N1244 N 0.87404 0.4137 0.00634 0.0
N1245 N 0.88943 0.46851 0.16827 0.0
H1246 H 0.87777 0.40742 0.18739 0.0
H1247 H 0.87878 0.43108 0.21417 0.0
H1248 H 0.8914 0.48461 0.16554 0.0
H1249 H 0.89529 0.46577 0.20136 0.0
H1250 H 0.87429 0.41933 0.97074 0.0
H1251 H 0.8753 0.39916 0.00783 0.0
H1252 H 0.8583 0.43848 0.97115 0.0
H1253 H 0.86314 0.46397 0.99627 0.0
C1254 C 0.42896 0.87704 0.28457 0.0
C1255 C 0.42286 0.88202 0.23836 0.0
C1256 C 0.45867 0.88857 0.20354 0.0
C1257 C 0.46392 0.88178 0.24858 0.0
N1258 N 0.45144 0.86426 0.32789 0.0
N1259 N 0.42928 0.88683 0.15108 0.0
C1260 C 0.4482 0.87431 0.28783 0.0
C1261 C 0.4369 0.88596 0.19692 0.0
N1262 N 0.41722 0.87614 0.32588 0.0
N1263 N 0.4748 0.89869 0.16803 0.0
H1264 H 0.41321 0.8845 0.14476 0.0
H1265 H 0.43797 0.88752 0.11915 0.0
H1266 H 0.49125 0.90171 0.17181 0.0
H1267 H 0.4725 0.90609 0.1368 0.0
H1268 H 0.42248 0.87497 0.36108 0.0
H1269 H 0.40344 0.87873 0.32561 0.0
H1270 H 0.43941 0.85655 0.35545 0.0
H1271 H 0.46515 0.86161 0.33109 0.0
C1272 C 0.36927 0.38741 0.67041 0.0
C1273 C 0.35009 0.37083 0.69623 0.0
C1274 C 0.34788 0.34118 0.64243 0.0
C1275 C 0.36634 0.35793 0.61517 0.0
N1276 N 0.39187 0.39713 0.59642 0.0
N1277 N 0.31861 0.33289 0.70257 0.0
C1278 C 0.37619 0.38113 0.62708 0.0
C1279 C 0.3386 0.34796 0.68093 0.0
N1280 N 0.38136 0.40893 0.68838 0.0
N1281 N 0.33979 0.31882 0.6326 0.0
H1282 H 0.31146 0.3373 0.73126 0.0
H1283 H 0.3082 0.31655 0.68969 0.0
H1284 H 0.34589 0.31323 0.60399 0.0
H1285 H 0.32812 0.30578 0.65473 0.0
H1286 H 0.39692 0.42105 0.67429 0.0
H1287 H 0.37678 0.41429 0.71995 0.0
H1288 H 0.39793 0.41436 0.60033 0.0
H1289 H 0.39743 0.39308 0.5644 0.0
C1290 C 0.99614 0.34731 0.85654 0.0
C1291 C 0.99641 0.36362 0.88906 0.0
C1292 C 0.02506 0.39434 0.83924 0.0
C1293 C 0.0252 0.37802 0.80737 0.0
N1294 N 0.01419 0.33937 0.78897 0.0
N1295 N 0.01326 0.40207 0.91731 0.0
C1296 C 0.01176 0.35458 0.8171 0.0
C1297 C 0.01158 0.387 0.88225 0.0
N1298 N 0.98042 0.32498 0.86246 0.0
N1299 N 0.03732 0.41677 0.82751 0.0
H1300 H 0.00335 0.39725 0.94895 0.0
H1301 H 0.02556 0.41909 0.91716 0.0
H1302 H 0.048 0.42283 0.79713 0.0
H1303 H 0.03596 0.42935 0.846 0.0
H1304 H 0.97751 0.31254 0.83681 0.0
H1305 H 0.96919 0.31893 0.89193 0.0
H1306 H 0.00673 0.32227 0.7973 0.0
H1307 H 0.02506 0.34409 0.75891 0.0
C1308 C 0.61819 0.98561 0.00453 0.0
C1309 C 0.63401 0.98263 0.03251 0.0
C1310 C 0.66504 0.0094 0.98027 0.0
C1311 C 0.64923 0.01236 0.95225 0.0
N1312 N 0.6108 0.00182 0.93255 0.0
N1313 N 0.67161 0.98884 0.04476 0.0
C1314 C 0.62577 0.99994 0.96277 0.0
C1315 C 0.65721 0.99365 0.01958 0.0
N1316 N 0.59604 0.97512 0.01881 0.0
N1317 N 0.68759 0.02214 0.96987 0.0
H1318 H 0.66664 0.97812 0.0751 0.0
H1319 H 0.68819 0.99436 0.03429 0.0
H1320 H 0.69381 0.03293 0.93969 0.0
H1321 H 0.70034 0.0229 0.99201 0.0
H1322 H 0.58405 0.97852 0.00394 0.0
H1323 H 0.58961 0.9635 0.04753 0.0
H1324 H 0.59336 0.99155 0.93472 0.0
H1325 H 0.61578 0.01294 0.90293 0.0
C1326 C 0.61797 0.62354 0.14947 0.0
C1327 C 0.63215 0.64522 0.12897 0.0
C1328 C 0.6623 0.65207 0.1869 0.0
C1329 C 0.6477 0.63087 0.20894 0.0
N1330 N 0.61115 0.59729 0.21598 0.0
N1331 N 0.6666 0.68124 0.12993 0.0
C1332 C 0.62537 0.61683 0.19156 0.0
C1333 C 0.654 0.65983 0.14822 0.0
N1334 N 0.59761 0.60925 0.12803 0.0
N1335 N 0.68423 0.66446 0.20232 0.0
H1336 H 0.66147 0.68716 0.10014 0.0
H1337 H 0.68151 0.69366 0.14579 0.0
H1338 H 0.69063 0.65967 0.23182 0.0
H1339 H 0.69652 0.67879 0.18438 0.0
H1340 H 0.58762 0.5923 0.13736 0.0
H1341 H 0.59114 0.61392 0.09851 0.0
H1342 H 0.59395 0.58754 0.20882 0.0
H1343 H 0.61621 0.5914 0.24593 0.0
C1344 C 0.99299 0.62198 0.38476 0.0
C1345 C 0.01452 0.64161 0.38002 0.0
C1346 C 0.00534 0.64788 0.29686 0.0
C1347 C 0.9848 0.62701 0.29979 0.0
N1348 N 0.95921 0.59324 0.34415 0.0
N1349 N 0.04249 0.67231 0.33121 0.0
C1350 C 0.97861 0.6138 0.34318 0.0
C1351 C 0.02101 0.65444 0.33608 0.0
N1352 N 0.98618 0.61153 0.42935 0.0
N1353 N 0.00973 0.66146 0.25671 0.0
H1354 H 0.05439 0.67783 0.3594 0.0
H1355 H 0.04913 0.68077 0.2983 0.0
H1356 H 0.99904 0.65682 0.22636 0.0
H1357 H 0.02311 0.67799 0.25475 0.0
H1358 H 0.96987 0.59852 0.43666 0.0
H1359 H 0.9964 0.61703 0.4605 0.0
H1360 H 0.95503 0.58157 0.37239 0.0
H1361 H 0.94772 0.58717 0.31516 0.0
C1362 C 0.37358 0.00865 0.44483 0.0
C1363 C 0.35275 0.9881 0.44767 0.0
C1364 C 0.34536 0.9984 0.52864 0.0
C1365 C 0.36738 0.01753 0.52826 0.0
N1366 N 0.40321 0.04072 0.48832 0.0
N1367 N 0.31914 0.96225 0.49217 0.0
C1368 C 0.38167 0.02274 0.48681 0.0
C1369 C 0.33859 0.98272 0.48938 0.0
N1370 N 0.3854 0.01476 0.40171 0.0
N1371 N 0.33093 0.99542 0.56633 0.0
H1372 H 0.31335 0.95057 0.46353 0.0
H1373 H 0.30941 0.95617 0.52381 0.0
H1374 H 0.33555 0.0064 0.59618 0.0
H1375 H 0.3139 0.98315 0.56639 0.0
H1376 H 0.39955 0.03052 0.39559 0.0
H1377 H 0.37998 0.00467 0.37036 0.0
H1378 H 0.41538 0.04389 0.46178 0.0
H1379 H 0.40945 0.05187 0.51786 0.0
C1380 C 0.39123 0.20408 0.57139 0.0
C1381 C 0.41137 0.22512 0.56527 0.0
C1382 C 0.42612 0.21808 0.64111 0.0
C1383 C 0.40868 0.19512 0.64033 0.0
N1384 N 0.36841 0.17426 0.62862 0.0
N1385 N 0.4486 0.25221 0.59449 0.0
C1386 C 0.38923 0.19013 0.61207 0.0
C1387 C 0.42905 0.23209 0.60006 0.0
N1388 N 0.37406 0.19729 0.53826 0.0
N1389 N 0.43655 0.22774 0.68423 0.0
H1390 H 0.45133 0.26315 0.56526 0.0
H1391 H 0.46265 0.25699 0.61686 0.0
H1392 H 0.43037 0.21939 0.71758 0.0
H1393 H 0.44819 0.24491 0.68779 0.0
H1394 H 0.36 0.1811 0.5382 0.0
H1395 H 0.37472 0.20726 0.5086 0.0
H1396 H 0.35337 0.17127 0.61242 0.0
H1397 H 0.36632 0.16635 0.66253 0.0
C1398 C 0.22326 0.40776 0.7515 0.0
C1399 C 0.22444 0.41785 0.79783 0.0
C1400 C 0.19634 0.42787 0.77046 0.0
C1401 C 0.194 0.41638 0.72547 0.0
N1402 N 0.20284 0.39293 0.67509 0.0
N1403 N 0.21033 0.43492 0.85428 0.0
C1404 C 0.20681 0.40564 0.71653 0.0
C1405 C 0.21047 0.42721 0.80809 0.0
N1406 N 0.23836 0.40084 0.7404 0.0
N1407 N 0.1854 0.43984 0.77669 0.0
H1408 H 0.22069 0.43495 0.88241 0.0
H1409 H 0.19884 0.4397 0.86594 0.0
H1410 H 0.17462 0.44039 0.75036 0.0
H1411 H 0.18821 0.45057 0.80622 0.0
H1412 H 0.24016 0.39575 0.70553 0.0
H1413 H 0.25036 0.40168 0.76526 0.0
H1414 H 0.20963 0.3825 0.66895 0.0
H1415 H 0.19142 0.39155 0.64805 0.0
C1416 C 0.80436 0.20219 0.95314 0.0
C1417 C 0.81475 0.22586 0.94586 0.0
C1418 C 0.79528 0.21946 0.86662 0.0
C1419 C 0.78352 0.19587 0.87575 0.0
N1420 N 0.77387 0.16489 0.93139 0.0
N1421 N 0.81729 0.25724 0.90011 0.0
C1422 C 0.78724 0.18725 0.92006 0.0
C1423 C 0.80941 0.23456 0.90379 0.0
N1424 N 0.81134 0.19397 0.99085 0.0
N1425 N 0.79346 0.22738 0.82181 0.0
H1426 H 0.82757 0.26883 0.92664 0.0
H1427 H 0.81207 0.26439 0.87306 0.0
H1428 H 0.78326 0.21682 0.79378 0.0
H1429 H 0.80345 0.24413 0.81091 0.0
H1430 H 0.8063 0.17695 0.99488 0.0
H1431 H 0.8236 0.20438 0.01614 0.0
H1432 H 0.77405 0.15807 0.96542 0.0
H1433 H 0.76118 0.15338 0.90822 0.0
C1434 C 0.5881 0.78911 0.13607 0.0
C1435 C 0.58818 0.80899 0.12085 0.0
C1436 C 0.58944 0.79922 0.03449 0.0
C1437 C 0.58788 0.77865 0.04965 0.0
N1438 N 0.58196 0.75206 0.11408 0.0
N1439 N 0.58512 0.83129 0.05595 0.0
C1440 C 0.58613 0.77304 0.10028 0.0
C1441 C 0.58777 0.81357 0.0701 0.0
N1442 N 0.59062 0.78595 0.18467 0.0
N1443 N 0.59321 0.80537 0.98618 0.0
H1444 H 0.58404 0.84228 0.08085 0.0
H1445 H 0.58216 0.83408 0.01986 0.0
H1446 H 0.59415 0.79513 0.95902 0.0
H1447 H 0.59708 0.82127 0.97346 0.0
H1448 H 0.59328 0.77316 0.1977 0.0
H1449 H 0.5918 0.7972 0.21192 0.0
H1450 H 0.57802 0.74599 0.14984 0.0
H1451 H 0.5806 0.73992 0.08904 0.0
C1452 C 0.78369 0.5967 0.24747 0.0
C1453 C 0.78274 0.58736 0.2946 0.0
C1454 C 0.81142 0.57778 0.2694 0.0
C1455 C 0.81353 0.58857 0.22356 0.0
N1456 N 0.8041 0.6109 0.17082 0.0
N1457 N 0.79749 0.57171 0.3532 0.0
C1458 C 0.80032 0.59876 0.21311 0.0
C1459 C 0.79712 0.57864 0.30632 0.0
N1460 N 0.7682 0.60294 0.23504 0.0
N1461 N 0.8227 0.56624 0.27711 0.0
H1462 H 0.78704 0.57185 0.38091 0.0
H1463 H 0.80926 0.56747 0.36574 0.0
H1464 H 0.83362 0.56557 0.25135 0.0
H1465 H 0.82002 0.55593 0.30739 0.0
H1466 H 0.76628 0.60743 0.19964 0.0
H1467 H 0.75604 0.6021 0.25939 0.0
H1468 H 0.79695 0.62092 0.16346 0.0
H1469 H 0.81572 0.61227 0.14431 0.0
C1470 C 0.20885 0.79924 0.45776 0.0
C1471 C 0.19418 0.77622 0.44571 0.0
C1472 C 0.20938 0.78317 0.36169 0.0
C1473 C 0.22492 0.80588 0.37458 0.0
N1474 N 0.24174 0.83508 0.43597 0.0
N1475 N 0.18201 0.7453 0.38879 0.0
C1476 C 0.2253 0.81378 0.42299 0.0
C1477 C 0.1949 0.7679 0.39835 0.0
N1478 N 0.20663 0.80732 0.50205 0.0
N1479 N 0.20812 0.77639 0.31404 0.0
H1480 H 0.17076 0.73372 0.41416 0.0
H1481 H 0.18349 0.73766 0.3571 0.0
H1482 H 0.21886 0.78695 0.28663 0.0
H1483 H 0.19556 0.76089 0.30074 0.0
H1484 H 0.21489 0.82438 0.51112 0.0
H1485 H 0.19529 0.79702 0.52894 0.0
H1486 H 0.24465 0.84105 0.47187 0.0
H1487 H 0.25363 0.84646 0.41125 0.0
loop_
_geom_bond_atom_site_label_1
_geom_bond_atom_site_label_2
_geom_bond_distance
_geom_bond_site_symmetry_2
_ccdc_geom_bond_type
Li0 N17 1.990 . S
Li0 O60 1.956 . S
Li0 O61 1.970 . S
Li0 O62 1.961 . S
Li1 N25 1.990 . S
Li1 O60 1.970 . S
Li1 O61 1.956 . S
Li1 O63 1.961 . S
Li2 N47 1.990 . S
Li2 O60 1.961 . S
Li2 O62 1.956 . S
Li2 O63 1.970 . S
Li3 N53 1.990 . S
Li3 O61 1.961 . S
Li3 O62 1.970 . S
Li3 O63 1.956 . S
C4 C6 1.348 . S
C4 C7 1.356 . S
C4 O60 1.325 . S
N5 C8 1.314 . S
N5 C9 1.279 . S
C6 C4 1.348 . S
C6 C8 1.353 . S
C6 H64 0.929 . S
C7 C4 1.356 . S
C7 C9 1.358 . S
C7 H65 0.930 . S
C8 N5 1.314 . S
C8 C6 1.353 . S
C8 H66 0.930 . S
C9 N5 1.279 . S
C9 C7 1.358 . S
C9 H67 0.930 . S
C10 C13 1.348 . S
C10 C14 1.356 . S
C10 O61 1.325 . S
C11 N12 1.279 . S
C11 C14 1.358 . S
C11 H68 0.930 . S
N12 C11 1.279 . S
N12 C15 1.314 . S
C13 C10 1.348 . S
C13 C15 1.353 . S
C13 H69 0.929 . S
C14 C10 1.356 . S
C14 C11 1.358 . S
C14 H70 0.930 . S
C15 N12 1.314 . S
C15 C13 1.353 . S
C15 H71 0.930 . S
C16 N17 1.314 . S
C16 C21 1.353 . S
C16 H22 0.930 . S
N17 Li0 1.990 . S
N17 C16 1.314 . S
N17 C19 1.279 . S
C18 C19 1.358 . S
C18 C20 1.356 . S
C18 H72 0.930 . S
C19 N17 1.279 . S
C19 C18 1.358 . S
C19 H23 0.930 . S
C20 C18 1.356 . S
C20 C21 1.348 . S
C21 C16 1.353 . S
C21 C20 1.348 . S
C21 H73 0.929 . S
H22 C16 0.930 . S
H23 C19 0.930 . S
C24 N25 1.314 . S
C24 C26 1.353 . S
C24 H30 0.930 . S
N25 Li1 1.990 . S
N25 C24 1.314 . S
N25 C28 1.279 . S
C26 C24 1.353 . S
C26 C29 1.348 . S
C26 H74 0.929 . S
C27 C28 1.358 . S
C27 C29 1.356 . S
C27 H75 0.930 . S
C28 N25 1.279 . S
C28 C27 1.358 . S
C28 H31 0.930 . S
C29 C26 1.348 . S
C29 C27 1.356 . S
H30 C24 0.930 . S
H31 C28 0.930 . S
C32 C34 1.348 . S
C32 C35 1.356 . S
C32 O62 1.325 . S
N33 C36 1.314 . S
N33 C37 1.279 . S
C34 C32 1.348 . S
C34 C36 1.353 . S
C34 H76 0.929 . S
C35 C32 1.356 . S
C35 C37 1.358 . S
C35 H77 0.930 . S
C36 N33 1.314 . S
C36 C34 1.353 . S
C36 H78 0.930 . S
C37 N33 1.279 . S
C37 C35 1.358 . S
C37 H79 0.930 . S
C38 C39 1.348 . S
C38 C40 1.356 . S
C38 O63 1.325 . S
C39 C38 1.348 . S
C39 C41 1.353 . S
C39 H80 0.929 . S
C40 C38 1.356 . S
C40 C42 1.358 . S
C40 H81 0.930 . S
C41 C39 1.353 . S
C41 N43 1.314 . S
C41 H82 0.930 . S
C42 C40 1.358 . S
C42 N43 1.279 . S
C42 H83 0.930 . S
N43 C41 1.314 . S
N43 C42 1.279 . S
C44 C46 1.353 . S
C44 N47 1.314 . S
C44 H50 0.930 . S
C45 N47 1.279 . S
C45 C48 1.358 . S
C45 H51 0.930 . S
C46 C44 1.353 . S
C46 C49 1.348 . S
C46 H84 0.929 . S
N47 Li2 1.990 . S
N47 C44 1.314 . S
N47 C45 1.279 . S
C48 C45 1.358 . S
C48 C49 1.356 . S
C48 H85 0.930 . S
C49 C46 1.348 . S
C49 C48 1.356 . S
H50 C44 0.930 . S
H51 C45 0.930 . S
C52 N53 1.314 . S
C52 C54 1.353 . S
C52 H58 0.930 . S
N53 Li3 1.990 . S
N53 C52 1.314 . S
N53 C56 1.279 . S
C54 C52 1.353 . S
C54 C57 1.348 . S
C54 H86 0.929 . S
C55 C56 1.358 . S
C55 C57 1.356 . S
C55 H87 0.930 . S
C56 N53 1.279 . S
C56 C55 1.358 . S
C56 H59 0.930 . S
C57 C54 1.348 . S
C57 C55 1.356 . S
H58 C52 0.930 . S
H59 C56 0.930 . S
O60 Li0 1.956 . S
O60 Li1 1.970 . S
O60 Li2 1.961 . S
O60 C4 1.325 . S
O61 Li0 1.970 . S
O61 Li1 1.956 . S
O61 Li3 1.961 . S
O61 C10 1.325 . S
O62 Li0 1.961 . S
O62 Li2 1.956 . S
O62 Li3 1.970 . S
O62 C32 1.325 . S
O63 Li1 1.961 . S
O63 Li2 1.970 . S
O63 Li3 1.956 . S
O63 C38 1.325 . S
H64 C6 0.929 . S
H65 C7 0.930 . S
H66 C8 0.930 . S
H67 C9 0.930 . S
H68 C11 0.930 . S
H69 C13 0.929 . S
H70 C14 0.930 . S
H71 C15 0.930 . S
H72 C18 0.930 . S
H73 C21 0.929 . S
H74 C26 0.929 . S
H75 C27 0.930 . S
H76 C34 0.929 . S
H77 C35 0.930 . S
H78 C36 0.930 . S
H79 C37 0.930 . S
H80 C39 0.929 . S
H81 C40 0.930 . S
H82 C41 0.930 . S
H83 C42 0.930 . S
H84 C46 0.929 . S
H85 C48 0.930 . S
H86 C54 0.929 . S
H87 C55 0.930 . S
Li88 N105 1.990 . S
Li88 O148 1.956 . S
Li88 O149 1.970 . S
Li88 O150 1.961 . S
Li89 N113 1.990 . S
Li89 O148 1.970 . S
Li89 O149 1.956 . S
Li89 O151 1.961 . S
Li90 N135 1.990 . S
Li90 O148 1.961 . S
Li90 O150 1.956 . S
Li90 O151 1.970 . S
Li91 N141 1.990 . S
Li91 O149 1.961 . S
Li91 O150 1.970 . S
Li91 O151 1.956 . S
C92 C94 1.348 . S
C92 C95 1.356 . S
C92 O148 1.325 . S
N93 C96 1.314 . S
N93 C97 1.279 . S
C94 C92 1.348 . S
C94 C96 1.353 . S
C94 H152 0.929 . S
C95 C92 1.356 . S
C95 C97 1.358 . S
C95 H153 0.930 . S
C96 N93 1.314 . S
C96 C94 1.353 . S
C96 H154 0.930 . S
C97 N93 1.279 . S
C97 C95 1.358 . S
C97 H155 0.930 . S
C98 C101 1.348 . S
C98 C102 1.356 . S
C98 O149 1.325 . S
C99 N100 1.279 . S
C99 C102 1.358 . S
C99 H156 0.930 . S
N100 C99 1.279 . S
N100 C103 1.314 . S
C101 C98 1.348 . S
C101 C103 1.353 . S
C101 H157 0.929 . S
C102 C98 1.356 . S
C102 C99 1.358 . S
C102 H158 0.930 . S
C103 N100 1.314 . S
C103 C101 1.353 . S
C103 H159 0.930 . S
C104 N105 1.314 . S
C104 C109 1.353 . S
C104 H110 0.930 . S
N105 Li88 1.990 . S
N105 C104 1.314 . S
N105 C107 1.279 . S
C106 C107 1.358 . S
C106 C108 1.356 . S
C106 H160 0.930 . S
C107 N105 1.279 . S
C107 C106 1.358 . S
C107 H111 0.930 . S
C108 C106 1.356 . S
C108 C109 1.348 . S
C109 C104 1.353 . S
C109 C108 1.348 . S
C109 H161 0.929 . S
H110 C104 0.930 . S
H111 C107 0.930 . S
C112 N113 1.314 . S
C112 C114 1.353 . S
C112 H118 0.930 . S
N113 Li89 1.990 . S
N113 C112 1.314 . S
N113 C116 1.279 . S
C114 C112 1.353 . S
C114 C117 1.348 . S
C114 H162 0.911 1_455 S
C115 C116 1.358 . S
C115 C117 1.356 . S
C115 H163 0.930 . S
C116 N113 1.279 . S
C116 C115 1.358 . S
C116 H119 0.930 . S
C117 C114 1.348 . S
C117 C115 1.356 . S
H118 C112 0.930 . S
H119 C116 0.930 . S
C120 C122 1.348 . S
C120 C123 1.356 . S
C120 O150 1.325 . S
N121 C124 1.314 . S
N121 C125 1.279 . S
C122 C120 1.348 . S
C122 C124 1.353 . S
C122 H164 0.929 . S
C123 C120 1.356 . S
C123 C125 1.358 . S
C123 H165 0.930 . S
C124 N121 1.314 . S
C124 C122 1.353 . S
C124 H166 0.930 . S
C125 N121 1.279 . S
C125 C123 1.358 . S
C125 H167 0.930 . S
C126 C127 1.348 . S
C126 C128 1.356 . S
C126 O151 1.325 . S
C127 C126 1.348 . S
C127 C129 1.353 . S
C127 H168 0.929 . S
C128 C126 1.356 . S
C128 C130 1.358 . S
C128 H169 0.930 . S
C129 C127 1.353 . S
C129 N131 1.314 . S
C129 H170 0.930 . S
C130 C128 1.358 . S
C130 N131 1.279 . S
C130 H171 0.930 . S
N131 C129 1.314 . S
N131 C130 1.279 . S
C132 C134 1.353 . S
C132 N135 1.314 . S
C132 H138 0.930 . S
C133 N135 1.279 . S
C133 C136 1.358 . S
C133 H139 0.930 . S
C134 C132 1.353 . S
C134 C137 1.348 . S
C134 H172 0.929 . S
N135 Li90 1.990 . S
N135 C132 1.314 . S
N135 C133 1.279 . S
C136 C133 1.358 . S
C136 C137 1.356 . S
C136 H173 0.930 . S
C137 C134 1.348 . S
C137 C136 1.356 . S
H138 C132 0.930 . S
H139 C133 0.930 . S
C140 N141 1.314 . S
C140 C142 1.353 . S
C140 H146 0.930 . S
N141 Li91 1.990 . S
N141 C140 1.314 . S
N141 C144 1.279 . S
C142 C140 1.353 . S
C142 C145 1.348 . S
C142 H174 0.929 . S
C143 C144 1.358 . S
C143 C145 1.356 . S
C143 H175 0.930 . S
C144 N141 1.279 . S
C144 C143 1.358 . S
C144 H147 0.930 . S
C145 C142 1.348 . S
C145 C143 1.356 . S
H146 C140 0.930 . S
H147 C144 0.930 . S
O148 Li88 1.956 . S
O148 Li89 1.970 . S
O148 Li90 1.961 . S
O148 C92 1.325 . S
O149 Li88 1.970 . S
O149 Li89 1.956 . S
O149 Li91 1.961 . S
O149 C98 1.325 . S
O150 Li88 1.961 . S
O150 Li90 1.956 . S
O150 Li91 1.970 . S
O150 C120 1.325 . S
O151 Li89 1.961 . S
O151 Li90 1.970 . S
O151 Li91 1.956 . S
O151 C126 1.325 . S
H152 C94 0.929 . S
H153 C95 0.930 . S
H154 C96 0.930 . S
H155 C97 0.930 . S
H156 C99 0.930 . S
H157 C101 0.929 . S
H158 C102 0.930 . S
H159 C103 0.930 . S
H160 C106 0.930 . S
H161 C109 0.929 . S
H162 C114 0.911 1_655 S
H163 C115 0.930 . S
H164 C122 0.929 . S
H165 C123 0.930 . S
H166 C124 0.930 . S
H167 C125 0.930 . S
H168 C127 0.929 . S
H169 C128 0.930 . S
H170 C129 0.930 . S
H171 C130 0.930 . S
H172 C134 0.929 . S
H173 C136 0.930 . S
H174 C142 0.929 . S
H175 C143 0.930 . S
Li176 N193 1.990 . S
Li176 O236 1.956 . S
Li176 O237 1.970 . S
Li176 O238 1.961 . S
Li177 N201 1.990 . S
Li177 O236 1.970 . S
Li177 O237 1.956 . S
Li177 O239 1.961 . S
Li178 N223 1.990 . S
Li178 O236 1.961 . S
Li178 O238 1.956 . S
Li178 O239 1.970 . S
Li179 N229 1.990 . S
Li179 O237 1.961 . S
Li179 O238 1.970 . S
Li179 O239 1.956 . S
C180 C182 1.348 . S
C180 C183 1.356 . S
C180 O236 1.325 . S
N181 C184 1.314 . S
N181 C185 1.279 . S
C182 C180 1.348 . S
C182 C184 1.353 . S
C182 H240 0.929 . S
C183 C180 1.356 . S
C183 C185 1.358 . S
C183 H241 0.930 . S
C184 N181 1.314 . S
C184 C182 1.353 . S
C184 H242 0.930 . S
C185 N181 1.279 . S
C185 C183 1.358 . S
C185 H243 0.930 . S
C186 C189 1.348 . S
C186 C190 1.356 . S
C186 O237 1.325 . S
C187 N188 1.279 . S
C187 C190 1.358 . S
C187 H244 0.930 . S
N188 C187 1.279 . S
N188 C191 1.314 . S
C189 C186 1.348 . S
C189 C191 1.353 . S
C189 H245 0.929 . S
C190 C186 1.356 . S
C190 C187 1.358 . S
C190 H246 0.930 . S
C191 N188 1.314 . S
C191 C189 1.353 . S
C191 H247 0.930 . S
C192 N193 1.314 . S
C192 C197 1.353 . S
C192 H198 0.930 . S
N193 Li176 1.990 . S
N193 C192 1.314 . S
N193 C195 1.279 . S
C194 C195 1.358 . S
C194 C196 1.356 . S
C194 H248 0.930 . S
C195 N193 1.279 . S
C195 C194 1.358 . S
C195 H199 0.930 . S
C196 C194 1.356 . S
C196 C197 1.348 . S
C197 C192 1.353 . S
C197 C196 1.348 . S
C197 H249 0.929 . S
H198 C192 0.930 . S
H199 C195 0.930 . S
C200 N201 1.314 . S
C200 C202 1.353 . S
C200 H206 0.930 . S
N201 Li177 1.990 . S
N201 C200 1.314 . S
N201 C204 1.279 . S
C202 C200 1.353 . S
C202 C205 1.348 . S
C202 H250 0.908 1_545 S
C203 C204 1.358 . S
C203 C205 1.356 . S
C203 H251 0.930 . S
C204 N201 1.279 . S
C204 C203 1.358 . S
C204 H207 0.930 . S
C205 C202 1.348 . S
C205 C203 1.356 . S
H206 C200 0.930 . S
H207 C204 0.930 . S
C208 C210 1.348 . S
C208 C211 1.356 . S
C208 O238 1.325 . S
N209 C212 1.314 . S
N209 C213 1.279 . S
C210 C208 1.348 . S
C210 C212 1.353 . S
C210 H252 0.929 . S
C211 C208 1.356 . S
C211 C213 1.358 . S
C211 H253 0.930 . S
C212 N209 1.314 . S
C212 C210 1.353 . S
C212 H254 0.930 . S
C213 N209 1.279 . S
C213 C211 1.358 . S
C213 H255 0.930 . S
C214 C215 1.348 . S
C214 C216 1.356 . S
C214 O239 1.325 . S
C215 C214 1.348 . S
C215 C217 1.353 . S
C215 H256 0.929 . S
C216 C214 1.356 . S
C216 C218 1.358 . S
C216 H257 0.930 . S
C217 C215 1.353 . S
C217 N219 1.314 . S
C217 H258 0.930 . S
C218 C216 1.358 . S
C218 N219 1.279 . S
C218 H259 0.930 . S
N219 C217 1.314 . S
N219 C218 1.279 . S
C220 C222 1.353 . S
C220 N223 1.314 . S
C220 H226 0.930 . S
C221 N223 1.279 . S
C221 C224 1.358 . S
C221 H227 0.930 . S
C222 C220 1.353 . S
C222 C225 1.348 . S
C222 H260 0.929 . S
N223 Li178 1.990 . S
N223 C220 1.314 . S
N223 C221 1.279 . S
C224 C221 1.358 . S
C224 C225 1.356 . S
C224 H261 0.930 . S
C225 C222 1.348 . S
C225 C224 1.356 . S
H226 C220 0.930 . S
H227 C221 0.930 . S
C228 N229 1.314 . S
C228 C230 1.353 . S
C228 H234 0.930 . S
N229 Li179 1.990 . S
N229 C228 1.314 . S
N229 C232 1.279 . S
C230 C228 1.353 . S
C230 C233 1.348 . S
C230 H262 0.929 . S
C231 C232 1.358 . S
C231 C233 1.356 . S
C231 H263 0.930 . S
C232 N229 1.279 . S
C232 C231 1.358 . S
C232 H235 0.930 . S
C233 C230 1.348 . S
C233 C231 1.356 . S
H234 C228 0.930 . S
H235 C232 0.930 . S
O236 Li176 1.956 . S
O236 Li177 1.970 . S
O236 Li178 1.961 . S
O236 C180 1.325 . S
O237 Li176 1.970 . S
O237 Li177 1.956 . S
O237 Li179 1.961 . S
O237 C186 1.325 . S
O238 Li176 1.961 . S
O238 Li178 1.956 . S
O238 Li179 1.970 . S
O238 C208 1.325 . S
O239 Li177 1.961 . S
O239 Li178 1.970 . S
O239 Li179 1.956 . S
O239 C214 1.325 . S
H240 C182 0.929 . S
H241 C183 0.930 . S
H242 C184 0.930 . S
H243 C185 0.930 . S
H244 C187 0.930 . S
H245 C189 0.929 . S
H246 C190 0.930 . S
H247 C191 0.930 . S
H248 C194 0.930 . S
H249 C197 0.929 . S
H250 C202 0.908 1_565 S
H251 C203 0.930 . S
H252 C210 0.929 . S
H253 C211 0.930 . S
H254 C212 0.930 . S
H255 C213 0.930 . S
H256 C215 0.929 . S
H257 C216 0.930 . S
H258 C217 0.930 . S
H259 C218 0.930 . S
H260 C222 0.929 . S
H261 C224 0.930 . S
H262 C230 0.929 . S
H263 C231 0.930 . S
Li264 N281 1.990 1_556 S
Li264 O324 1.956 . S
Li264 O325 1.970 . S
Li264 O326 1.961 . S
Li265 N289 1.990 . S
Li265 O324 1.970 . S
Li265 O325 1.956 . S
Li265 O327 1.961 . S
Li266 N311 1.990 . S
Li266 O324 1.961 . S
Li266 O326 1.956 . S
Li266 O327 1.970 . S
Li267 N317 1.990 . S
Li267 O325 1.961 . S
Li267 O326 1.970 . S
Li267 O327 1.956 . S
C268 C270 1.348 . S
C268 C271 1.356 . S
C268 O324 1.325 1_554 S
N269 C272 1.314 . S
N269 C273 1.279 . S
C270 C268 1.348 . S
C270 C272 1.353 . S
C270 H328 0.929 . S
C271 C268 1.356 . S
C271 C273 1.358 . S
C271 H329 0.930 . S
C272 N269 1.314 . S
C272 C270 1.353 . S
C272 H330 0.930 . S
C273 N269 1.279 . S
C273 C271 1.358 . S
C273 H331 0.930 . S
C274 C277 1.348 . S
C274 C278 1.356 . S
C274 O325 1.325 . S
C275 N276 1.279 . S
C275 C278 1.358 . S
C275 H332 0.930 . S
N276 C275 1.279 . S
N276 C279 1.314 . S
C277 C274 1.348 . S
C277 C279 1.353 . S
C277 H333 0.929 1_556 S
C278 C274 1.356 . S
C278 C275 1.358 . S
C278 H334 0.930 . S
C279 N276 1.314 . S
C279 C277 1.353 . S
C279 H335 0.930 1_556 S
C280 N281 1.314 . S
C280 C285 1.353 . S
C280 H286 0.930 1_554 S
N281 Li264 1.990 1_554 S
N281 C280 1.314 . S
N281 C283 1.279 . S
C282 C283 1.358 . S
C282 C284 1.356 . S
C282 H336 0.930 . S
C283 N281 1.279 . S
C283 C282 1.358 . S
C283 H287 0.930 . S
C284 C282 1.356 . S
C284 C285 1.348 . S
C285 C280 1.353 . S
C285 C284 1.348 . S
C285 H337 0.929 . S
H286 C280 0.930 1_556 S
H287 C283 0.930 . S
C288 N289 1.314 . S
C288 C290 1.353 . S
C288 H294 0.930 . S
N289 Li265 1.990 . S
N289 C288 1.314 . S
N289 C292 1.279 . S
C290 C288 1.353 . S
C290 C293 1.348 . S
C290 H338 0.929 . S
C291 C292 1.358 . S
C291 C293 1.356 . S
C291 H339 0.930 . S
C292 N289 1.279 . S
C292 C291 1.358 . S
C292 H295 0.930 . S
C293 C290 1.348 . S
C293 C291 1.356 . S
H294 C288 0.930 . S
H295 C292 0.930 . S
C296 C298 1.348 . S
C296 C299 1.356 . S
C296 O326 1.325 . S
N297 C300 1.314 . S
N297 C301 1.279 . S
C298 C296 1.348 . S
C298 C300 1.353 . S
C298 H340 0.929 . S
C299 C296 1.356 . S
C299 C301 1.358 . S
C299 H341 0.930 . S
C300 N297 1.314 . S
C300 C298 1.353 . S
C300 H342 0.930 . S
C301 N297 1.279 . S
C301 C299 1.358 . S
C301 H343 0.930 . S
C302 C303 1.348 . S
C302 C304 1.356 . S
C302 O327 1.325 . S
C303 C302 1.348 . S
C303 C305 1.353 . S
C303 H344 0.929 . S
C304 C302 1.356 . S
C304 C306 1.358 . S
C304 H345 0.930 . S
C305 C303 1.353 . S
C305 N307 1.314 . S
C305 H346 0.930 . S
C306 C304 1.358 . S
C306 N307 1.279 . S
C306 H347 0.930 . S
N307 C305 1.314 . S
N307 C306 1.279 . S
C308 C310 1.353 . S
C308 N311 1.314 . S
C308 H314 0.930 . S
C309 N311 1.279 . S
C309 C312 1.358 . S
C309 H315 0.930 . S
C310 C308 1.353 . S
C310 C313 1.348 . S
C310 H348 0.929 . S
N311 Li266 1.990 . S
N311 C308 1.314 . S
N311 C309 1.279 . S
C312 C309 1.358 . S
C312 C313 1.356 . S
C312 H349 0.930 . S
C313 C310 1.348 . S
C313 C312 1.356 . S
H314 C308 0.930 . S
H315 C309 0.930 . S
C316 N317 1.314 . S
C316 C318 1.353 . S
C316 H322 0.930 . S
N317 Li267 1.990 . S
N317 C316 1.314 . S
N317 C320 1.279 . S
C318 C316 1.353 . S
C318 C321 1.348 . S
C318 H350 0.929 . S
C319 C320 1.358 . S
C319 C321 1.356 . S
C319 H351 0.930 . S
C320 N317 1.279 . S
C320 C319 1.358 . S
C320 H323 0.930 . S
C321 C318 1.348 . S
C321 C319 1.356 . S
H322 C316 0.930 . S
H323 C320 0.930 . S
O324 Li264 1.956 . S
O324 Li265 1.970 . S
O324 Li266 1.961 . S
O324 C268 1.325 1_556 S
O325 Li264 1.970 . S
O325 Li265 1.956 . S
O325 Li267 1.961 . S
O325 C274 1.325 . S
O326 Li264 1.961 . S
O326 Li266 1.956 . S
O326 Li267 1.970 . S
O326 C296 1.325 . S
O327 Li265 1.961 . S
O327 Li266 1.970 . S
O327 Li267 1.956 . S
O327 C302 1.325 . S
H328 C270 0.929 . S
H329 C271 0.930 . S
H330 C272 0.930 . S
H331 C273 0.930 . S
H332 C275 0.930 . S
H333 C277 0.929 1_554 S
H334 C278 0.930 . S
H335 C279 0.930 1_554 S
H336 C282 0.930 . S
H337 C285 0.929 . S
H338 C290 0.929 . S
H339 C291 0.930 . S
H340 C298 0.929 . S
H341 C299 0.930 . S
H342 C300 0.930 . S
H343 C301 0.930 . S
H344 C303 0.929 . S
H345 C304 0.930 . S
H346 C305 0.930 . S
H347 C306 0.930 . S
H348 C310 0.929 . S
H349 C312 0.930 . S
H350 C318 0.929 . S
H351 C319 0.930 . S
Li352 N369 1.990 . S
Li352 O412 1.956 . S
Li352 O413 1.970 . S
Li352 O414 1.961 . S
Li353 N377 1.990 . S
Li353 O412 1.970 . S
Li353 O413 1.956 . S
Li353 O415 1.961 . S
Li354 N399 1.990 . S
Li354 O412 1.961 . S
Li354 O414 1.956 . S
Li354 O415 1.970 . S
Li355 N405 1.990 1_554 S
Li355 O413 1.961 . S
Li355 O414 1.970 . S
Li355 O415 1.956 . S
C356 C358 1.348 . S
C356 C359 1.356 . S
C356 O412 1.325 . S
N357 C360 1.314 . S
N357 C361 1.279 . S
C358 C356 1.348 . S
C358 C360 1.353 . S
C358 H416 0.929 . S
C359 C356 1.356 . S
C359 C361 1.358 . S
C359 H417 0.930 . S
C360 N357 1.314 . S
C360 C358 1.353 . S
C360 H418 0.930 . S
C361 N357 1.279 . S
C361 C359 1.358 . S
C361 H419 0.930 . S
C362 C365 1.348 . S
C362 C366 1.356 . S
C362 O413 1.325 . S
C363 N364 1.279 . S
C363 C366 1.358 . S
C363 H420 0.930 . S
N364 C363 1.279 . S
N364 C367 1.314 . S
C365 C362 1.348 . S
C365 C367 1.353 . S
C365 H421 0.929 . S
C366 C362 1.356 . S
C366 C363 1.358 . S
C366 H422 0.930 . S
C367 N364 1.314 . S
C367 C365 1.353 . S
C367 H423 0.930 . S
C368 N369 1.314 . S
C368 C373 1.353 . S
C368 H374 0.930 . S
N369 Li352 1.990 . S
N369 C368 1.314 . S
N369 C371 1.279 . S
C370 C371 1.358 . S
C370 C372 1.356 . S
C370 H424 0.930 . S
C371 N369 1.279 . S
C371 C370 1.358 . S
C371 H375 0.930 . S
C372 C370 1.356 . S
C372 C373 1.348 . S
C373 C368 1.353 . S
C373 C372 1.348 . S
C373 H425 0.911 1_655 S
H374 C368 0.930 . S
H375 C371 0.930 . S
C376 N377 1.314 . S
C376 C378 1.353 . S
C376 H382 0.930 . S
N377 Li353 1.990 . S
N377 C376 1.314 . S
N377 C380 1.279 . S
C378 C376 1.353 . S
C378 C381 1.348 . S
C378 H426 0.929 . S
C379 C380 1.358 . S
C379 C381 1.356 . S
C379 H427 0.930 . S
C380 N377 1.279 . S
C380 C379 1.358 . S
C380 H383 0.930 . S
C381 C378 1.348 . S
C381 C379 1.356 . S
H382 C376 0.930 . S
H383 C380 0.930 . S
C384 C386 1.348 . S
C384 C387 1.356 . S
C384 O414 1.325 . S
N385 C388 1.314 . S
N385 C389 1.279 . S
C386 C384 1.348 . S
C386 C388 1.353 . S
C386 H428 0.929 . S
C387 C384 1.356 . S
C387 C389 1.358 . S
C387 H429 0.930 . S
C388 N385 1.314 . S
C388 C386 1.353 . S
C388 H430 0.930 1_554 S
C389 N385 1.279 . S
C389 C387 1.358 . S
C389 H431 0.930 . S
C390 C391 1.348 1_554 S
C390 C392 1.356 1_554 S
C390 O415 1.325 . S
C391 C390 1.348 1_556 S
C391 C393 1.353 . S
C391 H432 0.929 1_556 S
C392 C390 1.356 1_556 S
C392 C394 1.358 . S
C392 H433 0.930 1_556 S
C393 C391 1.353 . S
C393 N395 1.314 . S
C393 H434 0.930 . S
C394 C392 1.358 . S
C394 N395 1.279 . S
C394 H435 0.930 . S
N395 C393 1.314 . S
N395 C394 1.279 . S
C396 C398 1.353 . S
C396 N399 1.314 . S
C396 H402 0.930 . S
C397 N399 1.279 . S
C397 C400 1.358 . S
C397 H403 0.930 . S
C398 C396 1.353 . S
C398 C401 1.348 . S
C398 H436 0.929 . S
N399 Li354 1.990 . S
N399 C396 1.314 . S
N399 C397 1.279 . S
C400 C397 1.358 . S
C400 C401 1.356 . S
C400 H437 0.930 . S
C401 C398 1.348 . S
C401 C400 1.356 . S
H402 C396 0.930 . S
H403 C397 0.930 . S
C404 N405 1.314 . S
C404 C406 1.353 . S
C404 H410 0.930 1_556 S
N405 Li355 1.990 1_556 S
N405 C404 1.314 . S
N405 C408 1.279 . S
C406 C404 1.353 . S
C406 C409 1.348 . S
C406 H438 0.929 . S
C407 C408 1.358 . S
C407 C409 1.356 . S
C407 H439 0.930 . S
C408 N405 1.279 . S
C408 C407 1.358 . S
C408 H411 0.930 . S
C409 C406 1.348 . S
C409 C407 1.356 . S
H410 C404 0.930 1_554 S
H411 C408 0.930 . S
O412 Li352 1.956 . S
O412 Li353 1.970 . S
O412 Li354 1.961 . S
O412 C356 1.325 . S
O413 Li352 1.970 . S
O413 Li353 1.956 . S
O413 Li355 1.961 . S
O413 C362 1.325 . S
O414 Li352 1.961 . S
O414 Li354 1.956 . S
O414 Li355 1.970 . S
O414 C384 1.325 . S
O415 Li353 1.961 . S
O415 Li354 1.970 . S
O415 Li355 1.956 . S
O415 C390 1.325 . S
H416 C358 0.929 . S
H417 C359 0.930 . S
H418 C360 0.930 . S
H419 C361 0.930 . S
H420 C363 0.930 . S
H421 C365 0.929 . S
H422 C366 0.930 . S
H423 C367 0.930 . S
H424 C370 0.930 . S
H425 C373 0.911 1_455 S
H426 C378 0.929 . S
H427 C379 0.930 . S
H428 C386 0.929 . S
H429 C387 0.930 . S
H430 C388 0.930 1_556 S
H431 C389 0.930 . S
H432 C391 0.929 1_554 S
H433 C392 0.930 1_554 S
H434 C393 0.930 . S
H435 C394 0.930 . S
H436 C398 0.929 . S
H437 C400 0.930 . S
H438 C406 0.929 . S
H439 C407 0.930 . S
Li440 N457 1.990 . S
Li440 O500 1.956 . S
Li440 O501 1.970 . S
Li440 O502 1.961 . S
Li441 N465 1.990 . S
Li441 O500 1.970 . S
Li441 O501 1.956 . S
Li441 O503 1.961 . S
Li442 N487 1.990 . S
Li442 O500 1.961 . S
Li442 O502 1.956 . S
Li442 O503 1.970 . S
Li443 N493 1.990 . S
Li443 O501 1.961 . S
Li443 O502 1.970 . S
Li443 O503 1.956 . S
C444 C446 1.348 . S
C444 C447 1.356 . S
C444 O500 1.325 . S
N445 C448 1.314 . S
N445 C449 1.279 . S
C446 C444 1.348 . S
C446 C448 1.353 . S
C446 H504 0.929 . S
C447 C444 1.356 . S
C447 C449 1.358 . S
C447 H505 0.930 . S
C448 N445 1.314 . S
C448 C446 1.353 . S
C448 H506 0.930 . S
C449 N445 1.279 . S
C449 C447 1.358 . S
C449 H507 0.930 . S
C450 C453 1.348 . S
C450 C454 1.356 . S
C450 O501 1.325 . S
C451 N452 1.279 . S
C451 C454 1.358 . S
C451 H508 0.930 . S
N452 C451 1.279 . S
N452 C455 1.314 . S
C453 C450 1.348 . S
C453 C455 1.353 . S
C453 H509 0.929 . S
C454 C450 1.356 . S
C454 C451 1.358 . S
C454 H510 0.930 . S
C455 N452 1.314 . S
C455 C453 1.353 . S
C455 H511 0.930 . S
C456 N457 1.314 . S
C456 C461 1.353 . S
C456 H462 0.930 . S
N457 Li440 1.990 . S
N457 C456 1.314 . S
N457 C459 1.279 . S
C458 C459 1.358 . S
C458 C460 1.356 . S
C458 H512 0.930 . S
C459 N457 1.279 . S
C459 C458 1.358 . S
C459 H463 0.930 . S
C460 C458 1.356 . S
C460 C461 1.348 . S
C461 C456 1.353 . S
C461 C460 1.348 . S
C461 H513 0.908 1_565 S
H462 C456 0.930 . S
H463 C459 0.930 . S
C464 N465 1.314 . S
C464 C466 1.353 . S
C464 H470 0.930 . S
N465 Li441 1.990 . S
N465 C464 1.314 . S
N465 C468 1.279 . S
C466 C464 1.353 . S
C466 C469 1.348 . S
C466 H514 0.929 . S
C467 C468 1.358 . S
C467 C469 1.356 . S
C467 H515 0.930 . S
C468 N465 1.279 . S
C468 C467 1.358 . S
C468 H471 0.930 . S
C469 C466 1.348 . S
C469 C467 1.356 . S
H470 C464 0.930 . S
H471 C468 0.930 . S
C472 C474 1.348 . S
C472 C475 1.356 . S
C472 O502 1.325 . S
N473 C476 1.314 . S
N473 C477 1.279 . S
C474 C472 1.348 . S
C474 C476 1.353 . S
C474 H516 0.929 . S
C475 C472 1.356 . S
C475 C477 1.358 . S
C475 H517 0.930 . S
C476 N473 1.314 . S
C476 C474 1.353 . S
C476 H518 0.930 . S
C477 N473 1.279 . S
C477 C475 1.358 . S
C477 H519 0.930 . S
C478 C479 1.348 . S
C478 C480 1.356 . S
C478 O503 1.325 . S
C479 C478 1.348 . S
C479 C481 1.353 . S
C479 H520 0.929 . S
C480 C478 1.356 . S
C480 C482 1.358 . S
C480 H521 0.930 . S
C481 C479 1.353 . S
C481 N483 1.314 . S
C481 H522 0.930 . S
C482 C480 1.358 . S
C482 N483 1.279 . S
C482 H523 0.930 . S
N483 C481 1.314 . S
N483 C482 1.279 . S
C484 C486 1.353 . S
C484 N487 1.314 . S
C484 H490 0.930 . S
C485 N487 1.279 . S
C485 C488 1.358 . S
C485 H491 0.930 . S
C486 C484 1.353 . S
C486 C489 1.348 . S
C486 H524 0.929 . S
N487 Li442 1.990 . S
N487 C484 1.314 . S
N487 C485 1.279 . S
C488 C485 1.358 . S
C488 C489 1.356 . S
C488 H525 0.930 . S
C489 C486 1.348 . S
C489 C488 1.356 . S
H490 C484 0.930 . S
H491 C485 0.930 . S
C492 N493 1.314 . S
C492 C494 1.353 . S
C492 H498 0.930 . S
N493 Li443 1.990 . S
N493 C492 1.314 . S
N493 C496 1.279 . S
C494 C492 1.353 . S
C494 C497 1.348 . S
C494 H526 0.929 . S
C495 C496 1.358 . S
C495 C497 1.356 . S
C495 H527 0.930 . S
C496 N493 1.279 . S
C496 C495 1.358 . S
C496 H499 0.930 . S
C497 C494 1.348 . S
C497 C495 1.356 . S
H498 C492 0.930 . S
H499 C496 0.930 . S
O500 Li440 1.956 . S
O500 Li441 1.970 . S
O500 Li442 1.961 . S
O500 C444 1.325 . S
O501 Li440 1.970 . S
O501 Li441 1.956 . S
O501 Li443 1.961 . S
O501 C450 1.325 . S
O502 Li440 1.961 . S
O502 Li442 1.956 . S
O502 Li443 1.970 . S
O502 C472 1.325 . S
O503 Li441 1.961 . S
O503 Li442 1.970 . S
O503 Li443 1.956 . S
O503 C478 1.325 . S
H504 C446 0.929 . S
H505 C447 0.930 . S
H506 C448 0.930 . S
H507 C449 0.930 . S
H508 C451 0.930 . S
H509 C453 0.929 . S
H510 C454 0.930 . S
H511 C455 0.930 . S
H512 C458 0.930 . S
H513 C461 0.908 1_545 S
H514 C466 0.929 . S
H515 C467 0.930 . S
H516 C474 0.929 . S
H517 C475 0.930 . S
H518 C476 0.930 . S
H519 C477 0.930 . S
H520 C479 0.929 . S
H521 C480 0.930 . S
H522 C481 0.930 . S
H523 C482 0.930 . S
H524 C486 0.929 . S
H525 C488 0.930 . S
H526 C494 0.929 . S
H527 C495 0.930 . S
Li528 N545 1.990 . S
Li528 O588 1.956 . S
Li528 O589 1.970 . S
Li528 O590 1.961 . S
Li529 N553 1.990 . S
Li529 O588 1.970 . S
Li529 O589 1.956 . S
Li529 O591 1.961 . S
Li530 N575 1.990 . S
Li530 O588 1.961 . S
Li530 O590 1.956 . S
Li530 O591 1.970 . S
Li531 N581 1.990 . S
Li531 O589 1.961 . S
Li531 O590 1.970 . S
Li531 O591 1.956 . S
C532 C534 1.348 . S
C532 C535 1.356 . S
C532 O588 1.325 . S
N533 C536 1.314 . S
N533 C537 1.279 . S
C534 C532 1.348 . S
C534 C536 1.353 . S
C534 H592 0.929 . S
C535 C532 1.356 . S
C535 C537 1.358 . S
C535 H593 0.930 . S
C536 N533 1.314 . S
C536 C534 1.353 . S
C536 H594 0.930 . S
C537 N533 1.279 . S
C537 C535 1.358 . S
C537 H595 0.930 . S
C538 C541 1.348 . S
C538 C542 1.356 . S
C538 O589 1.325 . S
C539 N540 1.279 . S
C539 C542 1.358 . S
C539 H596 0.930 . S
N540 C539 1.279 . S
N540 C543 1.314 . S
C541 C538 1.348 . S
C541 C543 1.353 . S
C541 H597 0.929 . S
C542 C538 1.356 . S
C542 C539 1.358 . S
C542 H598 0.930 . S
C543 N540 1.314 . S
C543 C541 1.353 . S
C543 H599 0.930 . S
C544 N545 1.314 . S
C544 C549 1.353 . S
C544 H550 0.930 . S
N545 Li528 1.990 . S
N545 C544 1.314 . S
N545 C547 1.279 . S
C546 C547 1.358 . S
C546 C548 1.356 . S
C546 H600 0.930 . S
C547 N545 1.279 . S
C547 C546 1.358 . S
C547 H551 0.930 . S
C548 C546 1.356 . S
C548 C549 1.348 . S
C549 C544 1.353 . S
C549 C548 1.348 . S
C549 H601 0.929 . S
H550 C544 0.930 . S
H551 C547 0.930 . S
C552 N553 1.314 . S
C552 C554 1.353 . S
C552 H558 0.930 . S
N553 Li529 1.990 . S
N553 C552 1.314 . S
N553 C556 1.279 . S
C554 C552 1.353 . S
C554 C557 1.348 . S
C554 H602 0.929 . S
C555 C556 1.358 . S
C555 C557 1.356 . S
C555 H603 0.930 . S
C556 N553 1.279 . S
C556 C555 1.358 . S
C556 H559 0.930 . S
C557 C554 1.348 . S
C557 C555 1.356 . S
H558 C552 0.930 . S
H559 C556 0.930 . S
C560 C562 1.348 . S
C560 C563 1.356 . S
C560 O590 1.325 . S
N561 C564 1.314 . S
N561 C565 1.279 . S
C562 C560 1.348 . S
C562 C564 1.353 . S
C562 H604 0.929 . S
C563 C560 1.356 . S
C563 C565 1.358 . S
C563 H605 0.930 . S
C564 N561 1.314 . S
C564 C562 1.353 . S
C564 H606 0.930 . S
C565 N561 1.279 . S
C565 C563 1.358 . S
C565 H607 0.930 . S
C566 C567 1.348 . S
C566 C568 1.356 . S
C566 O591 1.325 . S
C567 C566 1.348 . S
C567 C569 1.353 . S
C567 H608 0.929 . S
C568 C566 1.356 . S
C568 C570 1.358 . S
C568 H609 0.930 . S
C569 C567 1.353 . S
C569 N571 1.314 . S
C569 H610 0.930 . S
C570 C568 1.358 . S
C570 N571 1.279 . S
C570 H611 0.930 . S
N571 C569 1.314 . S
N571 C570 1.279 . S
C572 C574 1.353 . S
C572 N575 1.314 . S
C572 H578 0.930 . S
C573 N575 1.279 . S
C573 C576 1.358 . S
C573 H579 0.930 . S
C574 C572 1.353 . S
C574 C577 1.348 . S
C574 H612 0.929 . S
N575 Li530 1.990 . S
N575 C572 1.314 . S
N575 C573 1.279 . S
C576 C573 1.358 . S
C576 C577 1.356 . S
C576 H613 0.930 . S
C577 C574 1.348 . S
C577 C576 1.356 . S
H578 C572 0.930 . S
H579 C573 0.930 . S
C580 N581 1.314 . S
C580 C582 1.353 . S
C580 H586 0.930 . S
N581 Li531 1.990 . S
N581 C580 1.314 . S
N581 C584 1.279 . S
C582 C580 1.353 . S
C582 C585 1.348 . S
C582 H614 0.929 . S
C583 C584 1.358 . S
C583 C585 1.356 . S
C583 H615 0.930 . S
C584 N581 1.279 . S
C584 C583 1.358 . S
C584 H587 0.930 . S
C585 C582 1.348 . S
C585 C583 1.356 . S
H586 C580 0.930 . S
H587 C584 0.930 . S
O588 Li528 1.956 . S
O588 Li529 1.970 . S
O588 Li530 1.961 . S
O588 C532 1.325 . S
O589 Li528 1.970 . S
O589 Li529 1.956 . S
O589 Li531 1.961 . S
O589 C538 1.325 . S
O590 Li528 1.961 . S
O590 Li530 1.956 . S
O590 Li531 1.970 . S
O590 C560 1.325 . S
O591 Li529 1.961 . S
O591 Li530 1.970 . S
O591 Li531 1.956 . S
O591 C566 1.325 . S
H592 C534 0.929 . S
H593 C535 0.930 . S
H594 C536 0.930 . S
H595 C537 0.930 . S
H596 C539 0.930 . S
H597 C541 0.929 . S
H598 C542 0.930 . S
H599 C543 0.930 . S
H600 C546 0.930 . S
H601 C549 0.929 . S
H602 C554 0.929 . S
H603 C555 0.930 . S
H604 C562 0.929 . S
H605 C563 0.930 . S
H606 C564 0.930 . S
H607 C565 0.930 . S
H608 C567 0.929 . S
H609 C568 0.930 . S
H610 C569 0.930 . S
H611 C570 0.930 . S
H612 C574 0.929 . S
H613 C576 0.930 . S
H614 C582 0.929 . S
H615 C583 0.930 . S
Li616 N633 1.990 . S
Li616 O676 1.956 . S
Li616 O677 1.970 . S
Li616 O678 1.961 . S
Li617 N641 1.990 . S
Li617 O676 1.970 . S
Li617 O677 1.956 . S
Li617 O679 1.961 . S
Li618 N663 1.990 . S
Li618 O676 1.961 . S
Li618 O678 1.956 . S
Li618 O679 1.970 . S
Li619 N669 1.990 . S
Li619 O677 1.961 . S
Li619 O678 1.970 . S
Li619 O679 1.956 . S
C620 C622 1.348 . S
C620 C623 1.356 . S
C620 O676 1.325 . S
N621 C624 1.314 . S
N621 C625 1.279 . S
C622 C620 1.348 . S
C622 C624 1.353 . S
C622 H680 0.929 . S
C623 C620 1.356 . S
C623 C625 1.358 . S
C623 H681 0.930 . S
C624 N621 1.314 . S
C624 C622 1.353 . S
C624 H682 0.930 . S
C625 N621 1.279 . S
C625 C623 1.358 . S
C625 H683 0.930 . S
C626 C629 1.348 . S
C626 C630 1.356 . S
C626 O677 1.325 . S
C627 N628 1.279 . S
C627 C630 1.358 . S
C627 H684 0.930 . S
N628 C627 1.279 . S
N628 C631 1.314 . S
C629 C626 1.348 . S
C629 C631 1.353 . S
C629 H685 0.929 . S
C630 C626 1.356 . S
C630 C627 1.358 . S
C630 H686 0.930 . S
C631 N628 1.314 . S
C631 C629 1.353 . S
C631 H687 0.930 . S
C632 N633 1.314 . S
C632 C637 1.353 . S
C632 H638 0.930 . S
N633 Li616 1.990 . S
N633 C632 1.314 . S
N633 C635 1.279 . S
C634 C635 1.358 . S
C634 C636 1.356 . S
C634 H688 0.930 . S
C635 N633 1.279 . S
C635 C634 1.358 . S
C635 H639 0.930 . S
C636 C634 1.356 . S
C636 C637 1.348 . S
C637 C632 1.353 . S
C637 C636 1.348 . S
C637 H689 0.929 . S
H638 C632 0.930 . S
H639 C635 0.930 . S
C640 N641 1.314 . S
C640 C642 1.353 . S
C640 H646 0.930 . S
N641 Li617 1.990 . S
N641 C640 1.314 . S
N641 C644 1.279 . S
C642 C640 1.353 . S
C642 C645 1.348 . S
C642 H690 0.929 . S
C643 C644 1.358 . S
C643 C645 1.356 . S
C643 H691 0.930 . S
C644 N641 1.279 . S
C644 C643 1.358 . S
C644 H647 0.930 . S
C645 C642 1.348 . S
C645 C643 1.356 . S
H646 C640 0.930 . S
H647 C644 0.930 . S
C648 C650 1.348 . S
C648 C651 1.356 . S
C648 O678 1.325 . S
N649 C652 1.314 . S
N649 C653 1.279 . S
C650 C648 1.348 . S
C650 C652 1.353 . S
C650 H692 0.929 . S
C651 C648 1.356 . S
C651 C653 1.358 . S
C651 H693 0.930 . S
C652 N649 1.314 . S
C652 C650 1.353 . S
C652 H694 0.930 . S
C653 N649 1.279 . S
C653 C651 1.358 . S
C653 H695 0.930 . S
C654 C655 1.348 . S
C654 C656 1.356 . S
C654 O679 1.325 . S
C655 C654 1.348 . S
C655 C657 1.353 . S
C655 H696 0.929 . S
C656 C654 1.356 . S
C656 C658 1.358 . S
C656 H697 0.930 . S
C657 C655 1.353 . S
C657 N659 1.314 . S
C657 H698 0.930 . S
C658 C656 1.358 . S
C658 N659 1.279 . S
C658 H699 0.930 . S
N659 C657 1.314 . S
N659 C658 1.279 . S
C660 C662 1.353 . S
C660 N663 1.314 . S
C660 H666 0.930 . S
C661 N663 1.279 . S
C661 C664 1.358 . S
C661 H667 0.930 . S
C662 C660 1.353 . S
C662 C665 1.348 . S
C662 H700 0.929 . S
N663 Li618 1.990 . S
N663 C660 1.314 . S
N663 C661 1.279 . S
C664 C661 1.358 . S
C664 C665 1.356 . S
C664 H701 0.930 . S
C665 C662 1.348 . S
C665 C664 1.356 . S
H666 C660 0.930 . S
H667 C661 0.930 . S
C668 N669 1.314 . S
C668 C670 1.353 . S
C668 H674 0.930 . S
N669 Li619 1.990 . S
N669 C668 1.314 . S
N669 C672 1.279 . S
C670 C668 1.353 . S
C670 C673 1.348 . S
C670 H702 0.908 1_455 S
C671 C672 1.358 . S
C671 C673 1.356 . S
C671 H703 0.930 . S
C672 N669 1.279 . S
C672 C671 1.358 . S
C672 H675 0.930 . S
C673 C670 1.348 . S
C673 C671 1.356 . S
H674 C668 0.930 . S
H675 C672 0.930 . S
O676 Li616 1.956 . S
O676 Li617 1.970 . S
O676 Li618 1.961 . S
O676 C620 1.325 . S
O677 Li616 1.970 . S
O677 Li617 1.956 . S
O677 Li619 1.961 . S
O677 C626 1.325 . S
O678 Li616 1.961 . S
O678 Li618 1.956 . S
O678 Li619 1.970 . S
O678 C648 1.325 . S
O679 Li617 1.961 . S
O679 Li618 1.970 . S
O679 Li619 1.956 . S
O679 C654 1.325 . S
H680 C622 0.929 . S
H681 C623 0.930 . S
H682 C624 0.930 . S
H683 C625 0.930 . S
H684 C627 0.930 . S
H685 C629 0.929 . S
H686 C630 0.930 . S
H687 C631 0.930 . S
H688 C634 0.930 . S
H689 C637 0.929 . S
H690 C642 0.929 . S
H691 C643 0.930 . S
H692 C650 0.929 . S
H693 C651 0.930 . S
H694 C652 0.930 . S
H695 C653 0.930 . S
H696 C655 0.929 . S
H697 C656 0.930 . S
H698 C657 0.930 . S
H699 C658 0.930 . S
H700 C662 0.929 . S
H701 C664 0.930 . S
H702 C670 0.908 1_655 S
H703 C671 0.930 . S
Li704 N721 1.990 . S
Li704 O764 1.956 . S
Li704 O765 1.970 . S
Li704 O766 1.961 . S
Li705 N729 1.990 . S
Li705 O764 1.970 . S
Li705 O765 1.956 . S
Li705 O767 1.961 . S
Li706 N751 1.990 . S
Li706 O764 1.961 . S
Li706 O766 1.956 . S
Li706 O767 1.970 . S
Li707 N757 1.990 . S
Li707 O765 1.961 . S
Li707 O766 1.970 . S
Li707 O767 1.956 . S
C708 C710 1.348 . S
C708 C711 1.356 . S
C708 O764 1.325 . S
N709 C712 1.314 . S
N709 C713 1.279 . S
C710 C708 1.348 . S
C710 C712 1.353 . S
C710 H768 0.929 . S
C711 C708 1.356 . S
C711 C713 1.358 . S
C711 H769 0.930 . S
C712 N709 1.314 . S
C712 C710 1.353 . S
C712 H770 0.930 . S
C713 N709 1.279 . S
C713 C711 1.358 . S
C713 H771 0.930 . S
C714 C717 1.348 . S
C714 C718 1.356 . S
C714 O765 1.325 . S
C715 N716 1.279 . S
C715 C718 1.358 . S
C715 H772 0.930 . S
N716 C715 1.279 . S
N716 C719 1.314 . S
C717 C714 1.348 . S
C717 C719 1.353 . S
C717 H773 0.929 . S
C718 C714 1.356 . S
C718 C715 1.358 . S
C718 H774 0.930 . S
C719 N716 1.314 . S
C719 C717 1.353 . S
C719 H775 0.930 . S
C720 N721 1.314 . S
C720 C725 1.353 . S
C720 H726 0.930 . S
N721 Li704 1.990 . S
N721 C720 1.314 . S
N721 C723 1.279 . S
C722 C723 1.358 . S
C722 C724 1.356 . S
C722 H776 0.930 . S
C723 N721 1.279 . S
C723 C722 1.358 . S
C723 H727 0.930 . S
C724 C722 1.356 . S
C724 C725 1.348 . S
C725 C720 1.353 . S
C725 C724 1.348 . S
C725 H777 0.929 . S
H726 C720 0.930 . S
H727 C723 0.930 . S
C728 N729 1.314 . S
C728 C730 1.353 . S
C728 H734 0.930 . S
N729 Li705 1.990 . S
N729 C728 1.314 . S
N729 C732 1.279 . S
C730 C728 1.353 . S
C730 C733 1.348 . S
C730 H778 0.929 . S
C731 C732 1.358 . S
C731 C733 1.356 . S
C731 H779 0.930 . S
C732 N729 1.279 . S
C732 C731 1.358 . S
C732 H735 0.930 . S
C733 C730 1.348 . S
C733 C731 1.356 . S
H734 C728 0.930 . S
H735 C732 0.930 . S
C736 C738 1.348 . S
C736 C739 1.356 . S
C736 O766 1.325 . S
N737 C740 1.314 . S
N737 C741 1.279 . S
C738 C736 1.348 . S
C738 C740 1.353 . S
C738 H780 0.929 . S
C739 C736 1.356 . S
C739 C741 1.358 . S
C739 H781 0.930 . S
C740 N737 1.314 . S
C740 C738 1.353 . S
C740 H782 0.930 . S
C741 N737 1.279 . S
C741 C739 1.358 . S
C741 H783 0.930 . S
C742 C743 1.348 . S
C742 C744 1.356 . S
C742 O767 1.325 . S
C743 C742 1.348 . S
C743 C745 1.353 . S
C743 H784 0.929 . S
C744 C742 1.356 . S
C744 C746 1.358 . S
C744 H785 0.930 . S
C745 C743 1.353 . S
C745 N747 1.314 . S
C745 H786 0.930 . S
C746 C744 1.358 . S
C746 N747 1.279 . S
C746 H787 0.930 . S
N747 C745 1.314 . S
N747 C746 1.279 . S
C748 C750 1.353 . S
C748 N751 1.314 . S
C748 H754 0.930 . S
C749 N751 1.279 . S
C749 C752 1.358 . S
C749 H755 0.930 . S
C750 C748 1.353 . S
C750 C753 1.348 . S
C750 H788 0.911 1_545 S
N751 Li706 1.990 . S
N751 C748 1.314 . S
N751 C749 1.279 . S
C752 C749 1.358 . S
C752 C753 1.356 . S
C752 H789 0.930 . S
C753 C750 1.348 . S
C753 C752 1.356 . S
H754 C748 0.930 . S
H755 C749 0.930 . S
C756 N757 1.314 . S
C756 C758 1.353 . S
C756 H762 0.930 . S
N757 Li707 1.990 . S
N757 C756 1.314 . S
N757 C760 1.279 . S
C758 C756 1.353 . S
C758 C761 1.348 . S
C758 H790 0.929 . S
C759 C760 1.358 . S
C759 C761 1.356 . S
C759 H791 0.930 . S
C760 N757 1.279 . S
C760 C759 1.358 . S
C760 H763 0.930 . S
C761 C758 1.348 . S
C761 C759 1.356 . S
H762 C756 0.930 . S
H763 C760 0.930 . S
O764 Li704 1.956 . S
O764 Li705 1.970 . S
O764 Li706 1.961 . S
O764 C708 1.325 . S
O765 Li704 1.970 . S
O765 Li705 1.956 . S
O765 Li707 1.961 . S
O765 C714 1.325 . S
O766 Li704 1.961 . S
O766 Li706 1.956 . S
O766 Li707 1.970 . S
O766 C736 1.325 . S
O767 Li705 1.961 . S
O767 Li706 1.970 . S
O767 Li707 1.956 . S
O767 C742 1.325 . S
H768 C710 0.929 . S
H769 C711 0.930 . S
H770 C712 0.930 . S
H771 C713 0.930 . S
H772 C715 0.930 . S
H773 C717 0.929 . S
H774 C718 0.930 . S
H775 C719 0.930 . S
H776 C722 0.930 . S
H777 C725 0.929 . S
H778 C730 0.929 . S
H779 C731 0.930 . S
H780 C738 0.929 . S
H781 C739 0.930 . S
H782 C740 0.930 . S
H783 C741 0.930 . S
H784 C743 0.929 . S
H785 C744 0.930 . S
H786 C745 0.930 . S
H787 C746 0.930 . S
H788 C750 0.911 1_565 S
H789 C752 0.930 . S
H790 C758 0.929 . S
H791 C759 0.930 . S
Li792 N809 1.990 . S
Li792 O852 1.956 . S
Li792 O853 1.970 . S
Li792 O854 1.961 . S
Li793 N817 1.990 1_556 S
Li793 O852 1.970 . S
Li793 O853 1.956 . S
Li793 O855 1.961 . S
Li794 N839 1.990 . S
Li794 O852 1.961 . S
Li794 O854 1.956 . S
Li794 O855 1.970 . S
Li795 N845 1.990 . S
Li795 O853 1.961 . S
Li795 O854 1.970 . S
Li795 O855 1.956 . S
C796 C798 1.348 . S
C796 C799 1.356 . S
C796 O852 1.325 . S
N797 C800 1.314 . S
N797 C801 1.279 . S
C798 C796 1.348 . S
C798 C800 1.353 . S
C798 H856 0.929 . S
C799 C796 1.356 . S
C799 C801 1.358 . S
C799 H857 0.930 . S
C800 N797 1.314 . S
C800 C798 1.353 . S
C800 H858 0.930 1_556 S
C801 N797 1.279 . S
C801 C799 1.358 . S
C801 H859 0.930 . S
C802 C805 1.348 1_556 S
C802 C806 1.356 1_556 S
C802 O853 1.325 . S
C803 N804 1.279 . S
C803 C806 1.358 . S
C803 H860 0.930 . S
N804 C803 1.279 . S
N804 C807 1.314 . S
C805 C802 1.348 1_554 S
C805 C807 1.353 . S
C805 H861 0.929 1_554 S
C806 C802 1.356 1_554 S
C806 C803 1.358 . S
C806 H862 0.930 1_554 S
C807 N804 1.314 . S
C807 C805 1.353 . S
C807 H863 0.930 . S
C808 N809 1.314 . S
C808 C813 1.353 . S
C808 H814 0.930 . S
N809 Li792 1.990 . S
N809 C808 1.314 . S
N809 C811 1.279 . S
C810 C811 1.358 . S
C810 C812 1.356 . S
C810 H864 0.930 . S
C811 N809 1.279 . S
C811 C810 1.358 . S
C811 H815 0.930 . S
C812 C810 1.356 . S
C812 C813 1.348 . S
C813 C808 1.353 . S
C813 C812 1.348 . S
C813 H865 0.929 . S
H814 C808 0.930 . S
H815 C811 0.930 . S
C816 N817 1.314 . S
C816 C818 1.353 . S
C816 H822 0.930 1_554 S
N817 Li793 1.990 1_554 S
N817 C816 1.314 . S
N817 C820 1.279 . S
C818 C816 1.353 . S
C818 C821 1.348 . S
C818 H866 0.929 . S
C819 C820 1.358 . S
C819 C821 1.356 . S
C819 H867 0.930 . S
C820 N817 1.279 . S
C820 C819 1.358 . S
C820 H823 0.930 . S
C821 C818 1.348 . S
C821 C819 1.356 . S
H822 C816 0.930 1_556 S
H823 C820 0.930 . S
C824 C826 1.348 . S
C824 C827 1.356 . S
C824 O854 1.325 . S
N825 C828 1.314 . S
N825 C829 1.279 . S
C826 C824 1.348 . S
C826 C828 1.353 . S
C826 H868 0.929 . S
C827 C824 1.356 . S
C827 C829 1.358 . S
C827 H869 0.930 . S
C828 N825 1.314 . S
C828 C826 1.353 . S
C828 H870 0.930 . S
C829 N825 1.279 . S
C829 C827 1.358 . S
C829 H871 0.930 . S
C830 C831 1.348 . S
C830 C832 1.356 . S
C830 O855 1.325 . S
C831 C830 1.348 . S
C831 C833 1.353 . S
C831 H872 0.929 . S
C832 C830 1.356 . S
C832 C834 1.358 . S
C832 H873 0.930 . S
C833 C831 1.353 . S
C833 N835 1.314 . S
C833 H874 0.930 . S
C834 C832 1.358 . S
C834 N835 1.279 . S
C834 H875 0.930 . S
N835 C833 1.314 . S
N835 C834 1.279 . S
C836 C838 1.353 . S
C836 N839 1.314 . S
C836 H842 0.930 . S
C837 N839 1.279 . S
C837 C840 1.358 . S
C837 H843 0.930 . S
C838 C836 1.353 . S
C838 C841 1.348 . S
C838 H876 0.929 . S
N839 Li794 1.990 . S
N839 C836 1.314 . S
N839 C837 1.279 . S
C840 C837 1.358 . S
C840 C841 1.356 . S
C840 H877 0.930 . S
C841 C838 1.348 . S
C841 C840 1.356 . S
H842 C836 0.930 . S
H843 C837 0.930 . S
C844 N845 1.314 . S
C844 C846 1.353 . S
C844 H850 0.930 . S
N845 Li795 1.990 . S
N845 C844 1.314 . S
N845 C848 1.279 . S
C846 C844 1.353 . S
C846 C849 1.348 . S
C846 H878 0.929 . S
C847 C848 1.358 . S
C847 C849 1.356 . S
C847 H879 0.930 . S
C848 N845 1.279 . S
C848 C847 1.358 . S
C848 H851 0.930 . S
C849 C846 1.348 . S
C849 C847 1.356 . S
H850 C844 0.930 . S
H851 C848 0.930 . S
O852 Li792 1.956 . S
O852 Li793 1.970 . S
O852 Li794 1.961 . S
O852 C796 1.325 . S
O853 Li792 1.970 . S
O853 Li793 1.956 . S
O853 Li795 1.961 . S
O853 C802 1.325 . S
O854 Li792 1.961 . S
O854 Li794 1.956 . S
O854 Li795 1.970 . S
O854 C824 1.325 . S
O855 Li793 1.961 . S
O855 Li794 1.970 . S
O855 Li795 1.956 . S
O855 C830 1.325 . S
H856 C798 0.929 . S
H857 C799 0.930 . S
H858 C800 0.930 1_554 S
H859 C801 0.930 . S
H860 C803 0.930 . S
H861 C805 0.929 1_556 S
H862 C806 0.930 1_556 S
H863 C807 0.930 . S
H864 C810 0.930 . S
H865 C813 0.929 . S
H866 C818 0.929 . S
H867 C819 0.930 . S
H868 C826 0.929 . S
H869 C827 0.930 . S
H870 C828 0.930 . S
H871 C829 0.930 . S
H872 C831 0.929 . S
H873 C832 0.930 . S
H874 C833 0.930 . S
H875 C834 0.930 . S
H876 C838 0.929 . S
H877 C840 0.930 . S
H878 C846 0.929 . S
H879 C847 0.930 . S
Li880 N897 1.990 . S
Li880 O940 1.956 . S
Li880 O941 1.970 . S
Li880 O942 1.961 . S
Li881 N905 1.990 . S
Li881 O940 1.970 . S
Li881 O941 1.956 . S
Li881 O943 1.961 . S
Li882 N927 1.990 1_554 S
Li882 O940 1.961 . S
Li882 O942 1.956 . S
Li882 O943 1.970 . S
Li883 N933 1.990 . S
Li883 O941 1.961 . S
Li883 O942 1.970 . S
Li883 O943 1.956 . S
C884 C886 1.348 . S
C884 C887 1.356 . S
C884 O940 1.325 . S
N885 C888 1.314 . S
N885 C889 1.279 . S
C886 C884 1.348 . S
C886 C888 1.353 . S
C886 H944 0.929 . S
C887 C884 1.356 . S
C887 C889 1.358 . S
C887 H945 0.930 . S
C888 N885 1.314 . S
C888 C886 1.353 . S
C888 H946 0.930 . S
C889 N885 1.279 . S
C889 C887 1.358 . S
C889 H947 0.930 . S
C890 C893 1.348 . S
C890 C894 1.356 . S
C890 O941 1.325 . S
C891 N892 1.279 . S
C891 C894 1.358 . S
C891 H948 0.930 . S
N892 C891 1.279 . S
N892 C895 1.314 . S
C893 C890 1.348 . S
C893 C895 1.353 . S
C893 H949 0.929 . S
C894 C890 1.356 . S
C894 C891 1.358 . S
C894 H950 0.930 . S
C895 N892 1.314 . S
C895 C893 1.353 . S
C895 H951 0.930 . S
C896 N897 1.314 . S
C896 C901 1.353 . S
C896 H902 0.930 . S
N897 Li880 1.990 . S
N897 C896 1.314 . S
N897 C899 1.279 . S
C898 C899 1.358 . S
C898 C900 1.356 . S
C898 H952 0.930 . S
C899 N897 1.279 . S
C899 C898 1.358 . S
C899 H903 0.930 . S
C900 C898 1.356 . S
C900 C901 1.348 . S
C901 C896 1.353 . S
C901 C900 1.348 . S
C901 H953 0.929 . S
H902 C896 0.930 . S
H903 C899 0.930 . S
C904 N905 1.314 . S
C904 C906 1.353 . S
C904 H910 0.930 . S
N905 Li881 1.990 . S
N905 C904 1.314 . S
N905 C908 1.279 . S
C906 C904 1.353 . S
C906 C909 1.348 . S
C906 H954 0.929 . S
C907 C908 1.358 . S
C907 C909 1.356 . S
C907 H955 0.930 . S
C908 N905 1.279 . S
C908 C907 1.358 . S
C908 H911 0.930 . S
C909 C906 1.348 . S
C909 C907 1.356 . S
H910 C904 0.930 . S
H911 C908 0.930 . S
C912 C914 1.348 . S
C912 C915 1.356 . S
C912 O942 1.325 1_556 S
N913 C916 1.314 . S
N913 C917 1.279 . S
C914 C912 1.348 . S
C914 C916 1.353 . S
C914 H956 0.929 . S
C915 C912 1.356 . S
C915 C917 1.358 . S
C915 H957 0.930 . S
C916 N913 1.314 . S
C916 C914 1.353 . S
C916 H958 0.930 . S
C917 N913 1.279 . S
C917 C915 1.358 . S
C917 H959 0.930 . S
C918 C919 1.348 . S
C918 C920 1.356 . S
C918 O943 1.325 . S
C919 C918 1.348 . S
C919 C921 1.353 . S
C919 H960 0.929 1_554 S
C920 C918 1.356 . S
C920 C922 1.358 . S
C920 H961 0.930 . S
C921 C919 1.353 . S
C921 N923 1.314 . S
C921 H962 0.930 1_554 S
C922 C920 1.358 . S
C922 N923 1.279 . S
C922 H963 0.930 . S
N923 C921 1.314 . S
N923 C922 1.279 . S
C924 C926 1.353 . S
C924 N927 1.314 . S
C924 H930 0.930 1_556 S
C925 N927 1.279 . S
C925 C928 1.358 . S
C925 H931 0.930 . S
C926 C924 1.353 . S
C926 C929 1.348 . S
C926 H964 0.908 1_655 S
N927 Li882 1.990 1_556 S
N927 C924 1.314 . S
N927 C925 1.279 . S
C928 C925 1.358 . S
C928 C929 1.356 . S
C928 H965 0.930 . S
C929 C926 1.348 . S
C929 C928 1.356 . S
H930 C924 0.930 1_554 S
H931 C925 0.930 . S
C932 N933 1.314 . S
C932 C934 1.353 . S
C932 H938 0.930 . S
N933 Li883 1.990 . S
N933 C932 1.314 . S
N933 C936 1.279 . S
C934 C932 1.353 . S
C934 C937 1.348 . S
C934 H966 0.929 . S
C935 C936 1.358 . S
C935 C937 1.356 . S
C935 H967 0.930 . S
C936 N933 1.279 . S
C936 C935 1.358 . S
C936 H939 0.930 . S
C937 C934 1.348 . S
C937 C935 1.356 . S
H938 C932 0.930 . S
H939 C936 0.930 . S
O940 Li880 1.956 . S
O940 Li881 1.970 . S
O940 Li882 1.961 . S
O940 C884 1.325 . S
O941 Li880 1.970 . S
O941 Li881 1.956 . S
O941 Li883 1.961 . S
O941 C890 1.325 . S
O942 Li880 1.961 . S
O942 Li882 1.956 . S
O942 Li883 1.970 . S
O942 C912 1.325 1_554 S
O943 Li881 1.961 . S
O943 Li882 1.970 . S
O943 Li883 1.956 . S
O943 C918 1.325 . S
H944 C886 0.929 . S
H945 C887 0.930 . S
H946 C888 0.930 . S
H947 C889 0.930 . S
H948 C891 0.930 . S
H949 C893 0.929 . S
H950 C894 0.930 . S
H951 C895 0.930 . S
H952 C898 0.930 . S
H953 C901 0.929 . S
H954 C906 0.929 . S
H955 C907 0.930 . S
H956 C914 0.929 . S
H957 C915 0.930 . S
H958 C916 0.930 . S
H959 C917 0.930 . S
H960 C919 0.929 1_556 S
H961 C920 0.930 . S
H962 C921 0.930 1_556 S
H963 C922 0.930 . S
H964 C926 0.908 1_455 S
H965 C928 0.930 . S
H966 C934 0.929 . S
H967 C935 0.930 . S
Li968 N985 1.990 . S
Li968 O1028 1.956 . S
Li968 O1029 1.970 . S
Li968 O1030 1.961 . S
Li969 N993 1.990 . S
Li969 O1028 1.970 . S
Li969 O1029 1.956 . S
Li969 O1031 1.961 . S
Li970 N1015 1.990 . S
Li970 O1028 1.961 . S
Li970 O1030 1.956 . S
Li970 O1031 1.970 . S
Li971 N1021 1.990 . S
Li971 O1029 1.961 . S
Li971 O1030 1.970 . S
Li971 O1031 1.956 . S
C972 C974 1.348 . S
C972 C975 1.356 . S
C972 O1028 1.325 . S
N973 C976 1.314 . S
N973 C977 1.279 . S
C974 C972 1.348 . S
C974 C976 1.353 . S
C974 H1032 0.929 . S
C975 C972 1.356 . S
C975 C977 1.358 . S
C975 H1033 0.930 . S
C976 N973 1.314 . S
C976 C974 1.353 . S
C976 H1034 0.930 . S
C977 N973 1.279 . S
C977 C975 1.358 . S
C977 H1035 0.930 . S
C978 C981 1.348 . S
C978 C982 1.356 . S
C978 O1029 1.325 . S
C979 N980 1.279 . S
C979 C982 1.358 . S
C979 H1036 0.930 . S
N980 C979 1.279 . S
N980 C983 1.314 . S
C981 C978 1.348 . S
C981 C983 1.353 . S
C981 H1037 0.929 . S
C982 C978 1.356 . S
C982 C979 1.358 . S
C982 H1038 0.930 . S
C983 N980 1.314 . S
C983 C981 1.353 . S
C983 H1039 0.930 . S
C984 N985 1.314 . S
C984 C989 1.353 . S
C984 H990 0.930 . S
N985 Li968 1.990 . S
N985 C984 1.314 . S
N985 C987 1.279 . S
C986 C987 1.358 . S
C986 C988 1.356 . S
C986 H1040 0.930 . S
C987 N985 1.279 . S
C987 C986 1.358 . S
C987 H991 0.930 . S
C988 C986 1.356 . S
C988 C989 1.348 . S
C989 C984 1.353 . S
C989 C988 1.348 . S
C989 H1041 0.929 . S
H990 C984 0.930 . S
H991 C987 0.930 . S
C992 N993 1.314 . S
C992 C994 1.353 . S
C992 H998 0.930 . S
N993 Li969 1.990 . S
N993 C992 1.314 . S
N993 C996 1.279 . S
C994 C992 1.353 . S
C994 C997 1.348 . S
C994 H1042 0.929 . S
C995 C996 1.358 . S
C995 C997 1.356 . S
C995 H1043 0.930 . S
C996 N993 1.279 . S
C996 C995 1.358 . S
C996 H999 0.930 . S
C997 C994 1.348 . S
C997 C995 1.356 . S
H998 C992 0.930 . S
H999 C996 0.930 . S
C1000 C1002 1.348 . S
C1000 C1003 1.356 . S
C1000 O1030 1.325 . S
N1001 C1004 1.314 . S
N1001 C1005 1.279 . S
C1002 C1000 1.348 . S
C1002 C1004 1.353 . S
C1002 H1044 0.929 . S
C1003 C1000 1.356 . S
C1003 C1005 1.358 . S
C1003 H1045 0.930 . S
C1004 N1001 1.314 . S
C1004 C1002 1.353 . S
C1004 H1046 0.930 . S
C1005 N1001 1.279 . S
C1005 C1003 1.358 . S
C1005 H1047 0.930 . S
C1006 C1007 1.348 . S
C1006 C1008 1.356 . S
C1006 O1031 1.325 . S
C1007 C1006 1.348 . S
C1007 C1009 1.353 . S
C1007 H1048 0.929 . S
C1008 C1006 1.356 . S
C1008 C1010 1.358 . S
C1008 H1049 0.930 . S
C1009 C1007 1.353 . S
C1009 N1011 1.314 . S
C1009 H1050 0.930 . S
C1010 C1008 1.358 . S
C1010 N1011 1.279 . S
C1010 H1051 0.930 . S
N1011 C1009 1.314 . S
N1011 C1010 1.279 . S
C1012 C1014 1.353 . S
C1012 N1015 1.314 . S
C1012 H1018 0.930 . S
C1013 N1015 1.279 . S
C1013 C1016 1.358 . S
C1013 H1019 0.930 . S
C1014 C1012 1.353 . S
C1014 C1017 1.348 . S
C1014 H1052 0.929 . S
N1015 Li970 1.990 . S
N1015 C1012 1.314 . S
N1015 C1013 1.279 . S
C1016 C1013 1.358 . S
C1016 C1017 1.356 . S
C1016 H1053 0.930 . S
C1017 C1014 1.348 . S
C1017 C1016 1.356 . S
H1018 C1012 0.930 . S
H1019 C1013 0.930 . S
C1020 N1021 1.314 . S
C1020 C1022 1.353 . S
C1020 H1026 0.930 . S
N1021 Li971 1.990 . S
N1021 C1020 1.314 . S
N1021 C1024 1.279 . S
C1022 C1020 1.353 . S
C1022 C1025 1.348 . S
C1022 H1054 0.911 1_565 S
C1023 C1024 1.358 . S
C1023 C1025 1.356 . S
C1023 H1055 0.930 . S
C1024 N1021 1.279 . S
C1024 C1023 1.358 . S
C1024 H1027 0.930 . S
C1025 C1022 1.348 . S
C1025 C1023 1.356 . S
H1026 C1020 0.930 . S
H1027 C1024 0.930 . S
O1028 Li968 1.956 . S
O1028 Li969 1.970 . S
O1028 Li970 1.961 . S
O1028 C972 1.325 . S
O1029 Li968 1.970 . S
O1029 Li969 1.956 . S
O1029 Li971 1.961 . S
O1029 C978 1.325 . S
O1030 Li968 1.961 . S
O1030 Li970 1.956 . S
O1030 Li971 1.970 . S
O1030 C1000 1.325 . S
O1031 Li969 1.961 . S
O1031 Li970 1.970 . S
O1031 Li971 1.956 . S
O1031 C1006 1.325 . S
H1032 C974 0.929 . S
H1033 C975 0.930 . S
H1034 C976 0.930 . S
H1035 C977 0.930 . S
H1036 C979 0.930 . S
H1037 C981 0.929 . S
H1038 C982 0.930 . S
H1039 C983 0.930 . S
H1040 C986 0.930 . S
H1041 C989 0.929 . S
H1042 C994 0.929 . S
H1043 C995 0.930 . S
H1044 C1002 0.929 . S
H1045 C1003 0.930 . S
H1046 C1004 0.930 . S
H1047 C1005 0.930 . S
H1048 C1007 0.929 . S
H1049 C1008 0.930 . S
H1050 C1009 0.930 . S
H1051 C1010 0.930 . S
H1052 C1014 0.929 . S
H1053 C1016 0.930 . S
H1054 C1022 0.911 1_545 S
H1055 C1023 0.930 . S
C1056 C1057 1.363 . S
C1056 C1062 1.379 . S
C1056 N1064 1.356 . S
C1057 C1056 1.363 . S
C1057 C1063 1.363 . S
C1058 C1059 1.363 . S
C1058 C1063 1.379 . S
C1058 N1065 1.356 . S
C1059 C1058 1.363 . S
C1059 C1062 1.363 . S
N1060 C1062 1.356 . S
N1060 H1072 0.984 . S
N1060 H1073 0.985 . S
N1061 C1063 1.356 . S
N1061 H1066 0.984 . S
N1061 H1067 0.985 . S
C1062 C1056 1.379 . S
C1062 C1059 1.363 . S
C1062 N1060 1.356 . S
C1063 C1057 1.363 . S
C1063 C1058 1.379 . S
C1063 N1061 1.356 . S
N1064 C1056 1.356 . S
N1064 H1070 0.984 . S
N1064 H1071 0.984 . S
N1065 C1058 1.356 . S
N1065 H1068 0.984 . S
N1065 H1069 0.985 . S
H1066 N1061 0.984 . S
H1067 N1061 0.985 . S
H1068 N1065 0.984 . S
H1069 N1065 0.985 . S
H1070 N1064 0.984 . S
H1071 N1064 0.984 . S
H1072 N1060 0.984 . S
H1073 N1060 0.985 . S
C1074 C1075 1.363 . S
C1074 C1080 1.379 1_455 S
C1074 N1082 1.356 . S
C1075 C1074 1.363 . S
C1075 C1081 1.363 . S
C1076 C1077 1.363 . S
C1076 C1081 1.379 1_655 S
C1076 N1083 1.356 . S
C1077 C1076 1.363 . S
C1077 C1080 1.363 . S
N1078 C1080 1.356 . S
N1078 H1090 0.984 . S
N1078 H1091 0.985 . S
N1079 C1081 1.356 . S
N1079 H1084 0.984 . S
N1079 H1085 0.985 . S
C1080 C1074 1.379 1_655 S
C1080 C1077 1.363 . S
C1080 N1078 1.356 . S
C1081 C1075 1.363 . S
C1081 C1076 1.379 1_455 S
C1081 N1079 1.356 . S
N1082 C1074 1.356 . S
N1082 H1088 0.984 . S
N1082 H1089 0.984 . S
N1083 C1076 1.356 . S
N1083 H1086 0.984 . S
N1083 H1087 0.985 . S
H1084 N1079 0.984 . S
H1085 N1079 0.985 . S
H1086 N1083 0.984 . S
H1087 N1083 0.985 . S
H1088 N1082 0.984 . S
H1089 N1082 0.984 . S
H1090 N1078 0.984 . S
H1091 N1078 0.985 . S
C1092 C1093 1.363 . S
C1092 C1098 1.379 1_565 S
C1092 N1100 1.356 . S
C1093 C1092 1.363 . S
C1093 C1099 1.363 . S
C1094 C1095 1.363 . S
C1094 C1099 1.379 1_545 S
C1094 N1101 1.356 . S
C1095 C1094 1.363 . S
C1095 C1098 1.363 . S
N1096 C1098 1.356 . S
N1096 H1108 0.984 . S
N1096 H1109 0.985 . S
N1097 C1099 1.356 . S
N1097 H1102 0.984 . S
N1097 H1103 0.985 . S
C1098 C1092 1.379 1_545 S
C1098 C1095 1.363 . S
C1098 N1096 1.356 . S
C1099 C1093 1.363 . S
C1099 C1094 1.379 1_565 S
C1099 N1097 1.356 . S
N1100 C1092 1.356 . S
N1100 H1106 0.984 . S
N1100 H1107 0.984 . S
N1101 C1094 1.356 . S
N1101 H1104 0.984 . S
N1101 H1105 0.985 . S
H1102 N1097 0.984 . S
H1103 N1097 0.985 . S
H1104 N1101 0.984 . S
H1105 N1101 0.985 . S
H1106 N1100 0.984 . S
H1107 N1100 0.984 . S
H1108 N1096 0.984 . S
H1109 N1096 0.985 . S
C1110 C1111 1.363 . S
C1110 C1116 1.379 . S
C1110 N1118 1.356 . S
C1111 C1110 1.363 . S
C1111 C1117 1.363 . S
C1112 C1113 1.363 . S
C1112 C1117 1.379 . S
C1112 N1119 1.356 . S
C1113 C1112 1.363 . S
C1113 C1116 1.363 . S
N1114 C1116 1.356 . S
N1114 H1126 0.984 . S
N1114 H1127 0.985 . S
N1115 C1117 1.356 . S
N1115 H1120 0.984 . S
N1115 H1121 0.985 . S
C1116 C1110 1.379 . S
C1116 C1113 1.363 . S
C1116 N1114 1.356 . S
C1117 C1111 1.363 . S
C1117 C1112 1.379 . S
C1117 N1115 1.356 . S
N1118 C1110 1.356 . S
N1118 H1124 0.984 . S
N1118 H1125 0.984 . S
N1119 C1112 1.356 . S
N1119 H1122 0.984 . S
N1119 H1123 0.985 . S
H1120 N1115 0.984 . S
H1121 N1115 0.985 . S
H1122 N1119 0.984 . S
H1123 N1119 0.985 . S
H1124 N1118 0.984 . S
H1125 N1118 0.984 . S
H1126 N1114 0.984 . S
H1127 N1114 0.985 . S
C1128 C1129 1.363 . S
C1128 C1134 1.379 1_455 S
C1128 N1136 1.356 . S
C1129 C1128 1.363 . S
C1129 C1135 1.363 . S
C1130 C1131 1.363 . S
C1130 C1135 1.379 1_655 S
C1130 N1137 1.356 . S
C1131 C1130 1.363 . S
C1131 C1134 1.363 . S
N1132 C1134 1.356 . S
N1132 H1144 0.984 . S
N1132 H1145 0.985 . S
N1133 C1135 1.356 . S
N1133 H1138 0.984 . S
N1133 H1139 0.985 . S
C1134 C1128 1.379 1_655 S
C1134 C1131 1.363 . S
C1134 N1132 1.356 . S
C1135 C1129 1.363 . S
C1135 C1130 1.379 1_455 S
C1135 N1133 1.356 . S
N1136 C1128 1.356 . S
N1136 H1142 0.984 . S
N1136 H1143 0.984 . S
N1137 C1130 1.356 . S
N1137 H1140 0.984 . S
N1137 H1141 0.985 . S
H1138 N1133 0.984 . S
H1139 N1133 0.985 . S
H1140 N1137 0.984 . S
H1141 N1137 0.985 . S
H1142 N1136 0.984 . S
H1143 N1136 0.984 . S
H1144 N1132 0.984 . S
H1145 N1132 0.985 . S
C1146 C1147 1.363 . S
C1146 C1152 1.379 1_545 S
C1146 N1154 1.356 . S
C1147 C1146 1.363 . S
C1147 C1153 1.363 1_556 S
C1148 C1149 1.363 . S
C1148 C1153 1.379 1_565 S
C1148 N1155 1.356 . S
C1149 C1148 1.363 . S
C1149 C1152 1.363 1_554 S
N1150 C1152 1.356 . S
N1150 H1162 0.984 . S
N1150 H1163 0.985 . S
N1151 C1153 1.356 . S
N1151 H1156 0.984 . S
N1151 H1157 0.985 . S
C1152 C1146 1.379 1_565 S
C1152 C1149 1.363 1_556 S
C1152 N1150 1.356 . S
C1153 C1147 1.363 1_554 S
C1153 C1148 1.379 1_545 S
C1153 N1151 1.356 . S
N1154 C1146 1.356 . S
N1154 H1160 0.984 . S
N1154 H1161 0.984 . S
N1155 C1148 1.356 . S
N1155 H1158 0.984 . S
N1155 H1159 0.985 . S
H1156 N1151 0.984 . S
H1157 N1151 0.985 . S
H1158 N1155 0.984 . S
H1159 N1155 0.985 . S
H1160 N1154 0.984 . S
H1161 N1154 0.984 . S
H1162 N1150 0.984 . S
H1163 N1150 0.985 . S
C1164 C1165 1.363 . S
C1164 C1170 1.379 . S
C1164 N1172 1.356 . S
C1165 C1164 1.363 . S
C1165 C1171 1.363 . S
C1166 C1167 1.363 . S
C1166 C1171 1.379 . S
C1166 N1173 1.356 . S
C1167 C1166 1.363 . S
C1167 C1170 1.363 . S
N1168 C1170 1.356 . S
N1168 H1180 0.984 . S
N1168 H1181 0.985 . S
N1169 C1171 1.356 . S
N1169 H1174 0.984 . S
N1169 H1175 0.985 . S
C1170 C1164 1.379 . S
C1170 C1167 1.363 . S
C1170 N1168 1.356 . S
C1171 C1165 1.363 . S
C1171 C1166 1.379 . S
C1171 N1169 1.356 . S
N1172 C1164 1.356 . S
N1172 H1178 0.984 . S
N1172 H1179 0.984 . S
N1173 C1166 1.356 . S
N1173 H1176 0.984 . S
N1173 H1177 0.985 . S
H1174 N1169 0.984 . S
H1175 N1169 0.985 . S
H1176 N1173 0.984 . S
H1177 N1173 0.985 . S
H1178 N1172 0.984 . S
H1179 N1172 0.984 . S
H1180 N1168 0.984 . S
H1181 N1168 0.985 . S
C1182 C1183 1.363 . S
C1182 C1188 1.379 . S
C1182 N1190 1.356 . S
C1183 C1182 1.363 . S
C1183 C1189 1.363 . S
C1184 C1185 1.363 . S
C1184 C1189 1.379 . S
C1184 N1191 1.356 . S
C1185 C1184 1.363 . S
C1185 C1188 1.363 . S
N1186 C1188 1.356 . S
N1186 H1198 0.984 . S
N1186 H1199 0.985 . S
N1187 C1189 1.356 . S
N1187 H1192 0.984 . S
N1187 H1193 0.985 . S
C1188 C1182 1.379 . S
C1188 C1185 1.363 . S
C1188 N1186 1.356 . S
C1189 C1183 1.363 . S
C1189 C1184 1.379 . S
C1189 N1187 1.356 . S
N1190 C1182 1.356 . S
N1190 H1196 0.984 . S
N1190 H1197 0.984 . S
N1191 C1184 1.356 . S
N1191 H1194 0.984 . S
N1191 H1195 0.985 . S
H1192 N1187 0.984 . S
H1193 N1187 0.985 . S
H1194 N1191 0.984 . S
H1195 N1191 0.985 . S
H1196 N1190 0.984 . S
H1197 N1190 0.984 . S
H1198 N1186 0.984 . S
H1199 N1186 0.985 . S
C1200 C1201 1.363 . S
C1200 C1206 1.379 . S
C1200 N1208 1.356 . S
C1201 C1200 1.363 . S
C1201 C1207 1.363 . S
C1202 C1203 1.363 . S
C1202 C1207 1.379 . S
C1202 N1209 1.356 . S
C1203 C1202 1.363 . S
C1203 C1206 1.363 . S
N1204 C1206 1.356 . S
N1204 H1216 0.984 . S
N1204 H1217 0.985 . S
N1205 C1207 1.356 . S
N1205 H1210 0.984 . S
N1205 H1211 0.985 . S
C1206 C1200 1.379 . S
C1206 C1203 1.363 . S
C1206 N1204 1.356 . S
C1207 C1201 1.363 . S
C1207 C1202 1.379 . S
C1207 N1205 1.356 . S
N1208 C1200 1.356 . S
N1208 H1214 0.984 . S
N1208 H1215 0.984 . S
N1209 C1202 1.356 . S
N1209 H1212 0.984 . S
N1209 H1213 0.985 . S
H1210 N1205 0.984 . S
H1211 N1205 0.985 . S
H1212 N1209 0.984 . S
H1213 N1209 0.985 . S
H1214 N1208 0.984 . S
H1215 N1208 0.984 . S
H1216 N1204 0.984 . S
H1217 N1204 0.985 . S
C1218 C1219 1.363 . S
C1218 C1224 1.379 . S
C1218 N1226 1.356 . S
C1219 C1218 1.363 . S
C1219 C1225 1.363 . S
C1220 C1221 1.363 . S
C1220 C1225 1.379 . S
C1220 N1227 1.356 . S
C1221 C1220 1.363 . S
C1221 C1224 1.363 . S
N1222 C1224 1.356 . S
N1222 H1234 0.984 . S
N1222 H1235 0.985 . S
N1223 C1225 1.356 . S
N1223 H1228 0.984 . S
N1223 H1229 0.985 1_556 S
C1224 C1218 1.379 . S
C1224 C1221 1.363 . S
C1224 N1222 1.356 . S
C1225 C1219 1.363 . S
C1225 C1220 1.379 . S
C1225 N1223 1.356 . S
N1226 C1218 1.356 . S
N1226 H1232 0.984 . S
N1226 H1233 0.984 . S
N1227 C1220 1.356 . S
N1227 H1230 0.984 . S
N1227 H1231 0.985 1_556 S
H1228 N1223 0.984 . S
H1229 N1223 0.985 1_554 S
H1230 N1227 0.984 . S
H1231 N1227 0.985 1_554 S
H1232 N1226 0.984 . S
H1233 N1226 0.984 . S
H1234 N1222 0.984 . S
H1235 N1222 0.985 . S
C1236 C1237 1.363 . S
C1236 C1242 1.379 . S
C1236 N1244 1.356 . S
C1237 C1236 1.363 . S
C1237 C1243 1.363 . S
C1238 C1239 1.363 . S
C1238 C1243 1.379 . S
C1238 N1245 1.356 . S
C1239 C1238 1.363 . S
C1239 C1242 1.363 . S
N1240 C1242 1.356 . S
N1240 H1252 0.984 1_554 S
N1240 H1253 0.985 . S
N1241 C1243 1.356 . S
N1241 H1246 0.984 . S
N1241 H1247 0.985 . S
C1242 C1236 1.379 . S
C1242 C1239 1.363 . S
C1242 N1240 1.356 . S
C1243 C1237 1.363 . S
C1243 C1238 1.379 . S
C1243 N1241 1.356 . S
N1244 C1236 1.356 . S
N1244 H1250 0.984 1_554 S
N1244 H1251 0.984 . S
N1245 C1238 1.356 . S
N1245 H1248 0.984 . S
N1245 H1249 0.985 . S
H1246 N1241 0.984 . S
H1247 N1241 0.985 . S
H1248 N1245 0.984 . S
H1249 N1245 0.985 . S
H1250 N1244 0.984 1_556 S
H1251 N1244 0.984 . S
H1252 N1240 0.984 1_556 S
H1253 N1240 0.985 . S
C1254 C1255 1.363 . S
C1254 C1260 1.379 . S
C1254 N1262 1.356 . S
C1255 C1254 1.363 . S
C1255 C1261 1.363 . S
C1256 C1257 1.363 . S
C1256 C1261 1.379 . S
C1256 N1263 1.356 . S
C1257 C1256 1.363 . S
C1257 C1260 1.363 . S
N1258 C1260 1.356 . S
N1258 H1270 0.984 . S
N1258 H1271 0.985 . S
N1259 C1261 1.356 . S
N1259 H1264 0.984 . S
N1259 H1265 0.985 . S
C1260 C1254 1.379 . S
C1260 C1257 1.363 . S
C1260 N1258 1.356 . S
C1261 C1255 1.363 . S
C1261 C1256 1.379 . S
C1261 N1259 1.356 . S
N1262 C1254 1.356 . S
N1262 H1268 0.984 . S
N1262 H1269 0.984 . S
N1263 C1256 1.356 . S
N1263 H1266 0.984 . S
N1263 H1267 0.985 . S
H1264 N1259 0.984 . S
H1265 N1259 0.985 . S
H1266 N1263 0.984 . S
H1267 N1263 0.985 . S
H1268 N1262 0.984 . S
H1269 N1262 0.984 . S
H1270 N1258 0.984 . S
H1271 N1258 0.985 . S
C1272 C1273 1.363 . S
C1272 C1278 1.379 . S
C1272 N1280 1.356 . S
C1273 C1272 1.363 . S
C1273 C1279 1.363 . S
C1274 C1275 1.363 . S
C1274 C1279 1.379 . S
C1274 N1281 1.356 . S
C1275 C1274 1.363 . S
C1275 C1278 1.363 . S
N1276 C1278 1.356 . S
N1276 H1288 0.984 . S
N1276 H1289 0.985 . S
N1277 C1279 1.356 . S
N1277 H1282 0.984 . S
N1277 H1283 0.985 . S
C1278 C1272 1.379 . S
C1278 C1275 1.363 . S
C1278 N1276 1.356 . S
C1279 C1273 1.363 . S
C1279 C1274 1.379 . S
C1279 N1277 1.356 . S
N1280 C1272 1.356 . S
N1280 H1286 0.984 . S
N1280 H1287 0.984 . S
N1281 C1274 1.356 . S
N1281 H1284 0.984 . S
N1281 H1285 0.985 . S
H1282 N1277 0.984 . S
H1283 N1277 0.985 . S
H1284 N1281 0.984 . S
H1285 N1281 0.985 . S
H1286 N1280 0.984 . S
H1287 N1280 0.984 . S
H1288 N1276 0.984 . S
H1289 N1276 0.985 . S
C1290 C1291 1.363 . S
C1290 C1296 1.366 1_655 S
C1290 N1298 1.356 . S
C1291 C1290 1.363 . S
C1291 C1297 1.365 . S
C1292 C1293 1.363 . S
C1292 C1297 1.366 1_455 S
C1292 N1299 1.356 . S
C1293 C1292 1.363 . S
C1293 C1296 1.365 . S
N1294 C1296 1.370 . S
N1294 H1306 0.984 1_455 S
N1294 H1307 0.985 . S
N1295 C1297 1.370 . S
N1295 H1300 0.984 . S
N1295 H1301 0.985 1_655 S
C1296 C1290 1.366 1_455 S
C1296 C1293 1.365 . S
C1296 N1294 1.370 . S
C1297 C1291 1.365 . S
C1297 C1292 1.366 1_655 S
C1297 N1295 1.370 . S
N1298 C1290 1.356 . S
N1298 H1304 0.984 . S
N1298 H1305 0.984 . S
N1299 C1292 1.356 . S
N1299 H1302 0.984 . S
N1299 H1303 0.985 . S
H1300 N1295 0.984 . S
H1301 N1295 0.985 1_455 S
H1302 N1299 0.984 . S
H1303 N1299 0.985 . S
H1304 N1298 0.984 . S
H1305 N1298 0.984 . S
H1306 N1294 0.984 1_655 S
H1307 N1294 0.985 . S
C1308 C1309 1.363 . S
C1308 C1314 1.379 1_554 S
C1308 N1316 1.356 . S
C1309 C1308 1.363 . S
C1309 C1315 1.363 1_565 S
C1310 C1311 1.363 . S
C1310 C1315 1.379 1_556 S
C1310 N1317 1.356 . S
C1311 C1310 1.363 . S
C1311 C1314 1.363 1_545 S
N1312 C1314 1.356 1_545 S
N1312 H1324 0.984 1_545 S
N1312 H1325 0.985 . S
N1313 C1315 1.356 1_565 S
N1313 H1318 0.984 . S
N1313 H1319 0.985 1_565 S
C1314 C1308 1.379 1_556 S
C1314 C1311 1.363 1_565 S
C1314 N1312 1.356 1_565 S
C1315 C1309 1.363 1_545 S
C1315 C1310 1.379 1_554 S
C1315 N1313 1.356 1_545 S
N1316 C1308 1.356 . S
N1316 H1322 0.984 . S
N1316 H1323 0.984 . S
N1317 C1310 1.356 . S
N1317 H1320 0.984 . S
N1317 H1321 0.985 . S
H1318 N1313 0.984 . S
H1319 N1313 0.985 1_545 S
H1320 N1317 0.984 . S
H1321 N1317 0.985 . S
H1322 N1316 0.984 . S
H1323 N1316 0.984 . S
H1324 N1312 0.984 1_565 S
H1325 N1312 0.985 . S
C1326 C1327 1.363 . S
C1326 C1332 1.379 . S
C1326 N1334 1.356 . S
C1327 C1326 1.363 . S
C1327 C1333 1.363 . S
C1328 C1329 1.363 . S
C1328 C1333 1.379 . S
C1328 N1335 1.356 . S
C1329 C1328 1.363 . S
C1329 C1332 1.363 . S
N1330 C1332 1.356 . S
N1330 H1342 0.984 . S
N1330 H1343 0.985 . S
N1331 C1333 1.356 . S
N1331 H1336 0.984 . S
N1331 H1337 0.985 . S
C1332 C1326 1.379 . S
C1332 C1329 1.363 . S
C1332 N1330 1.356 . S
C1333 C1327 1.363 . S
C1333 C1328 1.379 . S
C1333 N1331 1.356 . S
N1334 C1326 1.356 . S
N1334 H1340 0.984 . S
N1334 H1341 0.984 . S
N1335 C1328 1.356 . S
N1335 H1338 0.984 . S
N1335 H1339 0.985 . S
H1336 N1331 0.984 . S
H1337 N1331 0.985 . S
H1338 N1335 0.984 . S
H1339 N1335 0.985 . S
H1340 N1334 0.984 . S
H1341 N1334 0.984 . S
H1342 N1330 0.984 . S
H1343 N1330 0.985 . S
C1344 C1345 1.363 1_655 S
C1344 C1350 1.379 . S
C1344 N1352 1.356 . S
C1345 C1344 1.363 1_455 S
C1345 C1351 1.363 . S
C1346 C1347 1.363 1_455 S
C1346 C1351 1.379 . S
C1346 N1353 1.356 . S
C1347 C1346 1.363 1_655 S
C1347 C1350 1.363 . S
N1348 C1350 1.356 . S
N1348 H1360 0.984 . S
N1348 H1361 0.985 . S
N1349 C1351 1.356 . S
N1349 H1354 0.984 . S
N1349 H1355 0.985 . S
C1350 C1344 1.379 . S
C1350 C1347 1.363 . S
C1350 N1348 1.356 . S
C1351 C1345 1.363 . S
C1351 C1346 1.379 . S
C1351 N1349 1.356 . S
N1352 C1344 1.356 . S
N1352 H1358 0.984 . S
N1352 H1359 0.984 1_655 S
N1353 C1346 1.356 . S
N1353 H1356 0.984 1_455 S
N1353 H1357 0.985 . S
H1354 N1349 0.984 . S
H1355 N1349 0.985 . S
H1356 N1353 0.984 1_655 S
H1357 N1353 0.985 . S
H1358 N1352 0.984 . S
H1359 N1352 0.984 1_455 S
H1360 N1348 0.984 . S
H1361 N1348 0.985 . S
C1362 C1363 1.363 1_545 S
C1362 C1368 1.379 . S
C1362 N1370 1.356 . S
C1363 C1362 1.363 1_565 S
C1363 C1369 1.363 . S
C1364 C1365 1.363 1_565 S
C1364 C1369 1.379 . S
C1364 N1371 1.356 . S
C1365 C1364 1.363 1_545 S
C1365 C1368 1.363 . S
N1366 C1368 1.356 . S
N1366 H1378 0.984 . S
N1366 H1379 0.985 . S
N1367 C1369 1.356 . S
N1367 H1372 0.984 . S
N1367 H1373 0.985 . S
C1368 C1362 1.379 . S
C1368 C1365 1.363 . S
C1368 N1366 1.356 . S
C1369 C1363 1.363 . S
C1369 C1364 1.379 . S
C1369 N1367 1.356 . S
N1370 C1362 1.356 . S
N1370 H1376 0.984 . S
N1370 H1377 0.984 1_545 S
N1371 C1364 1.356 . S
N1371 H1374 0.984 1_565 S
N1371 H1375 0.985 . S
H1372 N1367 0.984 . S
H1373 N1367 0.985 . S
H1374 N1371 0.984 1_545 S
H1375 N1371 0.985 . S
H1376 N1370 0.984 . S
H1377 N1370 0.984 1_565 S
H1378 N1366 0.984 . S
H1379 N1366 0.985 . S
C1380 C1381 1.363 . S
C1380 C1386 1.379 . S
C1380 N1388 1.356 . S
C1381 C1380 1.363 . S
C1381 C1387 1.363 . S
C1382 C1383 1.363 . S
C1382 C1387 1.379 . S
C1382 N1389 1.356 . S
C1383 C1382 1.363 . S
C1383 C1386 1.363 . S
N1384 C1386 1.356 . S
N1384 H1396 0.984 . S
N1384 H1397 0.985 . S
N1385 C1387 1.356 . S
N1385 H1390 0.984 . S
N1385 H1391 0.985 . S
C1386 C1380 1.379 . S
C1386 C1383 1.363 . S
C1386 N1384 1.356 . S
C1387 C1381 1.363 . S
C1387 C1382 1.379 . S
C1387 N1385 1.356 . S
N1388 C1380 1.356 . S
N1388 H1394 0.984 . S
N1388 H1395 0.984 . S
N1389 C1382 1.356 . S
N1389 H1392 0.984 . S
N1389 H1393 0.985 . S
H1390 N1385 0.984 . S
H1391 N1385 0.985 . S
H1392 N1389 0.984 . S
H1393 N1389 0.985 . S
H1394 N1388 0.984 . S
H1395 N1388 0.984 . S
H1396 N1384 0.984 . S
H1397 N1384 0.985 . S
C1398 C1399 1.363 . S
C1398 C1404 1.379 . S
C1398 N1406 1.356 . S
C1399 C1398 1.363 . S
C1399 C1405 1.363 . S
C1400 C1401 1.363 . S
C1400 C1405 1.379 . S
C1400 N1407 1.356 . S
C1401 C1400 1.363 . S
C1401 C1404 1.363 . S
N1402 C1404 1.356 . S
N1402 H1414 0.984 . S
N1402 H1415 0.985 . S
N1403 C1405 1.356 . S
N1403 H1408 0.984 . S
N1403 H1409 0.985 . S
C1404 C1398 1.379 . S
C1404 C1401 1.363 . S
C1404 N1402 1.356 . S
C1405 C1399 1.363 . S
C1405 C1400 1.379 . S
C1405 N1403 1.356 . S
N1406 C1398 1.356 . S
N1406 H1412 0.984 . S
N1406 H1413 0.984 . S
N1407 C1400 1.356 . S
N1407 H1410 0.984 . S
N1407 H1411 0.985 . S
H1408 N1403 0.984 . S
H1409 N1403 0.985 . S
H1410 N1407 0.984 . S
H1411 N1407 0.985 . S
H1412 N1406 0.984 . S
H1413 N1406 0.984 . S
H1414 N1402 0.984 . S
H1415 N1402 0.985 . S
C1416 C1417 1.363 . S
C1416 C1422 1.379 . S
C1416 N1424 1.356 . S
C1417 C1416 1.363 . S
C1417 C1423 1.363 . S
C1418 C1419 1.363 . S
C1418 C1423 1.379 . S
C1418 N1425 1.356 . S
C1419 C1418 1.363 . S
C1419 C1422 1.363 . S
N1420 C1422 1.356 . S
N1420 H1432 0.984 . S
N1420 H1433 0.985 . S
N1421 C1423 1.356 . S
N1421 H1426 0.984 1_556 S
N1421 H1427 0.985 . S
C1422 C1416 1.379 . S
C1422 C1419 1.363 . S
C1422 N1420 1.356 . S
C1423 C1417 1.363 . S
C1423 C1418 1.379 . S
C1423 N1421 1.356 . S
N1424 C1416 1.356 . S
N1424 H1430 0.984 . S
N1424 H1431 0.984 1_556 S
N1425 C1418 1.356 . S
N1425 H1428 0.984 . S
N1425 H1429 0.985 . S
H1426 N1421 0.984 1_554 S
H1427 N1421 0.985 . S
H1428 N1425 0.984 . S
H1429 N1425 0.985 . S
H1430 N1424 0.984 . S
H1431 N1424 0.984 1_554 S
H1432 N1420 0.984 . S
H1433 N1420 0.985 . S
C1434 C1435 1.363 . S
C1434 C1440 1.379 . S
C1434 N1442 1.356 . S
C1435 C1434 1.363 . S
C1435 C1441 1.363 . S
C1436 C1437 1.363 . S
C1436 C1441 1.379 . S
C1436 N1443 1.356 . S
C1437 C1436 1.363 . S
C1437 C1440 1.363 . S
N1438 C1440 1.356 . S
N1438 H1450 0.984 . S
N1438 H1451 0.985 . S
N1439 C1441 1.356 . S
N1439 H1444 0.984 . S
N1439 H1445 0.985 . S
C1440 C1434 1.379 . S
C1440 C1437 1.363 . S
C1440 N1438 1.356 . S
C1441 C1435 1.363 . S
C1441 C1436 1.379 . S
C1441 N1439 1.356 . S
N1442 C1434 1.356 . S
N1442 H1448 0.984 . S
N1442 H1449 0.984 . S
N1443 C1436 1.356 . S
N1443 H1446 0.984 1_554 S
N1443 H1447 0.985 . S
H1444 N1439 0.984 . S
H1445 N1439 0.985 . S
H1446 N1443 0.984 1_556 S
H1447 N1443 0.985 . S
H1448 N1442 0.984 . S
H1449 N1442 0.984 . S
H1450 N1438 0.984 . S
H1451 N1438 0.985 . S
C1452 C1453 1.363 . S
C1452 C1458 1.379 . S
C1452 N1460 1.356 . S
C1453 C1452 1.363 . S
C1453 C1459 1.363 . S
C1454 C1455 1.363 . S
C1454 C1459 1.379 . S
C1454 N1461 1.356 . S
C1455 C1454 1.363 . S
C1455 C1458 1.363 . S
N1456 C1458 1.356 . S
N1456 H1468 0.984 . S
N1456 H1469 0.985 . S
N1457 C1459 1.356 . S
N1457 H1462 0.984 . S
N1457 H1463 0.985 . S
C1458 C1452 1.379 . S
C1458 C1455 1.363 . S
C1458 N1456 1.356 . S
C1459 C1453 1.363 . S
C1459 C1454 1.379 . S
C1459 N1457 1.356 . S
N1460 C1452 1.356 . S
N1460 H1466 0.984 . S
N1460 H1467 0.984 . S
N1461 C1454 1.356 . S
N1461 H1464 0.984 . S
N1461 H1465 0.985 . S
H1462 N1457 0.984 . S
H1463 N1457 0.985 . S
H1464 N1461 0.984 . S
H1465 N1461 0.985 . S
H1466 N1460 0.984 . S
H1467 N1460 0.984 . S
H1468 N1456 0.984 . S
H1469 N1456 0.985 . S
C1470 C1471 1.363 . S
C1470 C1476 1.379 . S
C1470 N1478 1.356 . S
C1471 C1470 1.363 . S
C1471 C1477 1.363 . S
C1472 C1473 1.363 . S
C1472 C1477 1.379 . S
C1472 N1479 1.356 . S
C1473 C1472 1.363 . S
C1473 C1476 1.363 . S
N1474 C1476 1.356 . S
N1474 H1486 0.984 . S
N1474 H1487 0.985 . S
N1475 C1477 1.356 . S
N1475 H1480 0.984 . S
N1475 H1481 0.985 . S
C1476 C1470 1.379 . S
C1476 C1473 1.363 . S
C1476 N1474 1.356 . S
C1477 C1471 1.363 . S
C1477 C1472 1.379 . S
C1477 N1475 1.356 . S
N1478 C1470 1.356 . S
N1478 H1484 0.984 . S
N1478 H1485 0.984 . S
N1479 C1472 1.356 . S
N1479 H1482 0.984 . S
N1479 H1483 0.985 . S
H1480 N1475 0.984 . S
H1481 N1475 0.985 . S
H1482 N1479 0.984 . S
H1483 N1479 0.985 . S
H1484 N1478 0.984 . S
H1485 N1478 0.984 . S
H1486 N1474 0.984 . S
H1487 N1474 0.985 . S
C1057 C821 1.893 . S
C1059 C57 1.893 . S
C1075 C137 1.893 . S
C1077 C909 1.893 . S
C1093 C988 1.893 . S
C1095 C225 1.893 . S
C1111 C548 1.893 . S
C1113 C321 1.893 . S
C1129 C636 1.893 . S
C1131 C409 1.893 . S
C1147 C733 1.893 . S
C1149 C497 1.893 . S
C1165 C557 1.565 . S
C1167 C49 1.565 . S
C1183 C145 1.566 . S
C1185 C645 1.566 . S
C1201 C724 1.566 . S
C1203 C233 1.566 . S
C1219 C313 1.565 . S
C1221 C812 1.565 . S
C1237 C900 1.566 . S
C1239 C401 1.566 . S
C1255 C489 1.566 . S
C1257 C997 1.566 . S
C1273 C841 0.663 . S
C1275 C20 0.663 . S
C1291 C929 0.663 . S
C1293 C117 0.663 . S
C1309 C1025 0.663 . S
C1311 C205 0.663 . S
C1327 C284 0.663 . S
C1329 C585 0.663 . S
C1345 C673 0.663 . S
C1347 C372 0.663 . S
C1363 C460 0.663 . S
C1365 C753 0.663 . S
C1381 C29 2.015 . S
C1383 C761 2.015 . S
C1399 C849 2.015 . S
C1401 C108 2.015 . S
C1417 C937 2.015 1_556 S
C1419 C196 2.015 . S
C1435 C1017 2.015 . S
C1437 C293 2.015 1_554 S
C1453 C577 2.015 . S
C1455 C381 2.015 . S
C1471 C665 2.016 . S
C1473 C469 2.016 . S
