# Generated by pormake.
# Topology wiv, (6)-cn, num edge types: 1
# Building blocks:
#     Node 0, Type 0, BuildingBlock: MIFKUJ_clean_sbu_0, # of connection points: 6
#     Node 1, Type 0, BuildingBlock: MIFKUJ_clean_sbu_0, # of connection points: 6
#     Node 2, Type 0, BuildingBlock: MIFKUJ_clean_sbu_0, # of connection points: 6
#     Node 3, Type 0, BuildingBlock: MIFKUJ_clean_sbu_0, # of connection points: 6
#     Node 4, Type 0, BuildingBlock: MIFKUJ_clean_sbu_0, # of connection points: 6
#     Node 5, Type 0, BuildingBlock: MIFKUJ_clean_sbu_0, # of connection points: 6
#     Node 6, Type 0, BuildingBlock: MIFKUJ_clean_sbu_0, # of connection points: 6
#     Node 7, Type 0, BuildingBlock: MIFKUJ_clean_sbu_0, # of connection points: 6
#     Node 8, Type 0, BuildingBlock: MIFKUJ_clean_sbu_0, # of connection points: 6
#     Node 9, Type 0, BuildingBlock: MIFKUJ_clean_sbu_0, # of connection points: 6
#     Node 10, Type 0, BuildingBlock: MIFKUJ_clean_sbu_0, # of connection points: 6
#     Node 11, Type 0, BuildingBlock: MIFKUJ_clean_sbu_0, # of connection points: 6
#     Node 12, Type 0, BuildingBlock: MIFKUJ_clean_sbu_0, # of connection points: 6
#     Node 13, Type 0, BuildingBlock: MIFKUJ_clean_sbu_0, # of connection points: 6
#     Node 14, Type 0, BuildingBlock: MIFKUJ_clean_sbu_0, # of connection points: 6
#     Node 15, Type 0, BuildingBlock: MIFKUJ_clean_sbu_0, # of connection points: 6
#     Edge 16, Type (0, 0), BuildingBlock: OJICUG_clean_linker_0, # of connection points: 2
#     Edge 17, Type (0, 0), BuildingBlock: OJICUG_clean_linker_0, # of connection points: 2
#     Edge 18, Type (0, 0), BuildingBlock: OJICUG_clean_linker_0, # of connection points: 2
#     Edge 19, Type (0, 0), BuildingBlock: OJICUG_clean_linker_0, # of connection points: 2
#     Edge 20, Type (0, 0), BuildingBlock: OJICUG_clean_linker_0, # of connection points: 2
#     Edge 21, Type (0, 0), BuildingBlock: OJICUG_clean_linker_0, # of connection points: 2
#     Edge 22, Type (0, 0), BuildingBlock: OJICUG_clean_linker_0, # of connection points: 2
#     Edge 23, Type (0, 0), BuildingBlock: OJICUG_clean_linker_0, # of connection points: 2
#     Edge 24, Type (0, 0), BuildingBlock: OJICUG_clean_linker_0, # of connection points: 2
#     Edge 25, Type (0, 0), BuildingBlock: OJICUG_clean_linker_0, # of connection points: 2
#     Edge 26, Type (0, 0), BuildingBlock: OJICUG_clean_linker_0, # of connection points: 2
#     Edge 27, Type (0, 0), BuildingBlock: OJICUG_clean_linker_0, # of connection points: 2
#     Edge 28, Type (0, 0), BuildingBlock: OJICUG_clean_linker_0, # of connection points: 2
#     Edge 29, Type (0, 0), BuildingBlock: OJICUG_clean_linker_0, # of connection points: 2
#     Edge 30, Type (0, 0), BuildingBlock: OJICUG_clean_linker_0, # of connection points: 2
#     Edge 31, Type (0, 0), BuildingBlock: OJICUG_clean_linker_0, # of connection points: 2
#     Edge 32, Type (0, 0), BuildingBlock: OJICUG_clean_linker_0, # of connection points: 2
#     Edge 33, Type (0, 0), BuildingBlock: OJICUG_clean_linker_0, # of connection points: 2
#     Edge 34, Type (0, 0), BuildingBlock: OJICUG_clean_linker_0, # of connection points: 2
#     Edge 35, Type (0, 0), BuildingBlock: OJICUG_clean_linker_0, # of connection points: 2
#     Edge 36, Type (0, 0), BuildingBlock: OJICUG_clean_linker_0, # of connection points: 2
#     Edge 37, Type (0, 0), BuildingBlock: OJICUG_clean_linker_0, # of connection points: 2
#     Edge 38, Type (0, 0), BuildingBlock: OJICUG_clean_linker_0, # of connection points: 2
#     Edge 39, Type (0, 0), BuildingBlock: OJICUG_clean_linker_0, # of connection points: 2
#     Edge 40, Type (0, 0), BuildingBlock: OJICUG_clean_linker_0, # of connection points: 2
#     Edge 41, Type (0, 0), BuildingBlock: OJICUG_clean_linker_0, # of connection points: 2
#     Edge 42, Type (0, 0), BuildingBlock: OJICUG_clean_linker_0, # of connection points: 2
#     Edge 43, Type (0, 0), BuildingBlock: OJICUG_clean_linker_0, # of connection points: 2
#     Edge 44, Type (0, 0), BuildingBlock: OJICUG_clean_linker_0, # of connection points: 2
#     Edge 45, Type (0, 0), BuildingBlock: OJICUG_clean_linker_0, # of connection points: 2
#     Edge 46, Type (0, 0), BuildingBlock: OJICUG_clean_linker_0, # of connection points: 2
#     Edge 47, Type (0, 0), BuildingBlock: OJICUG_clean_linker_0, # of connection points: 2
#     Edge 48, Type (0, 0), BuildingBlock: OJICUG_clean_linker_0, # of connection points: 2
#     Edge 49, Type (0, 0), BuildingBlock: OJICUG_clean_linker_0, # of connection points: 2
#     Edge 50, Type (0, 0), BuildingBlock: OJICUG_clean_linker_0, # of connection points: 2
#     Edge 51, Type (0, 0), BuildingBlock: OJICUG_clean_linker_0, # of connection points: 2
#     Edge 52, Type (0, 0), BuildingBlock: OJICUG_clean_linker_0, # of connection points: 2
#     Edge 53, Type (0, 0), BuildingBlock: OJICUG_clean_linker_0, # of connection points: 2
#     Edge 54, Type (0, 0), BuildingBlock: OJICUG_clean_linker_0, # of connection points: 2
#     Edge 55, Type (0, 0), BuildingBlock: OJICUG_clean_linker_0, # of connection points: 2
#     Edge 56, Type (0, 0), BuildingBlock: OJICUG_clean_linker_0, # of connection points: 2
#     Edge 57, Type (0, 0), BuildingBlock: OJICUG_clean_linker_0, # of connection points: 2
#     Edge 58, Type (0, 0), BuildingBlock: OJICUG_clean_linker_0, # of connection points: 2
#     Edge 59, Type (0, 0), BuildingBlock: OJICUG_clean_linker_0, # of connection points: 2
#     Edge 60, Type (0, 0), BuildingBlock: OJICUG_clean_linker_0, # of connection points: 2
#     Edge 61, Type (0, 0), BuildingBlock: OJICUG_clean_linker_0, # of connection points: 2
#     Edge 62, Type (0, 0), BuildingBlock: OJICUG_clean_linker_0, # of connection points: 2
#     Edge 63, Type (0, 0), BuildingBlock: OJICUG_clean_linker_0, # of connection points: 2
# Relax obj value: 0.041
# Max RMSD: 0.123
# Mean RMSD: 0.123
data_MOF--net-wiv--node1-MIFKUJ_clean_sbu_0--edge1-OJICUG_clean_linker_0
_symmetry_space_group_name_H-M    P1
_symmetry_Int_Tables_number       1
_symmetry_cell_setting            triclinic
loop_
_symmetry_equiv_pos_as_xyz
'x, y, z'
_cell_length_a     43.80249
_cell_length_b     43.781359
_cell_length_c     14.300477
_cell_angle_alpha  90.009247
_cell_angle_beta   90.01928
_cell_angle_gamma 90.032498
loop_
_atom_site_label
_atom_site_type_symbol
_atom_site_fract_x
_atom_site_fract_y
_atom_site_fract_z
_atom_type_partial_charge
Zn0 Zn 0.34078 0.11334 0.00797 0.0
Zn1 Zn 0.39127 0.11887 0.24686 0.0
C2 C 0.28682 0.09345 0.91379 0.0
O3 O 0.30275 0.06823 0.90413 0.0
C4 C 0.45173 0.13411 0.29317 0.0
O5 O 0.43716 0.15147 0.35321 0.0
O6 O 0.36534 0.10803 0.89163 0.0
O7 O 0.34971 0.15511 0.05885 0.0
O8 O 0.37762 0.15767 0.18758 0.0
C9 C 0.36071 0.1283 0.82977 0.0
O10 O 0.34306 0.15163 0.85025 0.0
O11 O 0.29792 0.11553 0.96027 0.0
C12 C 0.39181 0.10598 0.44445 0.0
O13 O 0.40893 0.08275 0.41939 0.0
O14 O 0.3813 0.12379 0.38223 0.0
O15 O 0.37401 0.07826 0.21034 0.0
O16 O 0.34482 0.07487 0.08398 0.0
O17 O 0.43678 0.11757 0.2364 0.0
C18 C 0.36297 0.17049 0.12209 0.0
C19 C 0.35743 0.06283 0.15498 0.0
Zn20 Zn 0.12129 0.62516 0.71382 0.0
Zn21 Zn 0.11447 0.62011 0.92693 0.0
C22 C 0.14362 0.56476 0.69579 0.0
O23 O 0.16468 0.57998 0.64981 0.0
C24 C 0.09315 0.67892 0.98031 0.0
O25 O 0.06875 0.66292 0.00172 0.0
O26 O 0.12585 0.63055 0.57422 0.0
O27 O 0.08077 0.64255 0.75083 0.0
O28 O 0.07574 0.60717 0.85876 0.0
C29 C 0.10963 0.61446 0.51913 0.0
O30 O 0.08914 0.59585 0.55458 0.0
O31 O 0.12189 0.57946 0.7339 0.0
C32 C 0.12903 0.61994 0.11891 0.0
O33 O 0.15052 0.63779 0.08539 0.0
O34 O 0.11058 0.60723 0.0621 0.0
O35 O 0.15662 0.60781 0.88362 0.0
O36 O 0.15821 0.6432 0.77465 0.0
O37 O 0.11518 0.66584 0.93875 0.0
C38 C 0.06379 0.62576 0.80106 0.0
C39 C 0.17183 0.62674 0.8347 0.0
Zn40 Zn 0.626 0.8842 0.09054 0.0
Zn41 Zn 0.62798 0.87548 0.30643 0.0
C42 C 0.68513 0.90427 0.03746 0.0
O43 O 0.66968 0.92938 0.02043 0.0
C44 C 0.5646 0.8579 0.29738 0.0
O45 O 0.57597 0.83126 0.32126 0.0
O46 O 0.61247 0.88979 0.95696 0.0
O47 O 0.61161 0.8422 0.12903 0.0
O48 O 0.64375 0.83745 0.24614 0.0
C49 C 0.6232 0.87009 0.90039 0.0
O50 O 0.63942 0.84735 0.93398 0.0
O51 O 0.67161 0.88185 0.07581 0.0
C52 C 0.61706 0.88764 0.49996 0.0
O53 O 0.60052 0.90973 0.46393 0.0
O54 O 0.63182 0.87004 0.44553 0.0
O55 O 0.64989 0.91392 0.27239 0.0
O56 O 0.61563 0.92272 0.16329 0.0
O57 O 0.58255 0.8803 0.28381 0.0
C58 C 0.62863 0.82554 0.17983 0.0
C59 C 0.63507 0.93259 0.22212 0.0
Zn60 Zn 0.85511 0.37153 0.76266 0.0
Zn61 Zn 0.8626 0.37537 0.97697 0.0
C62 C 0.83864 0.43371 0.72521 0.0
O63 O 0.8226 0.42081 0.65843 0.0
C64 C 0.8907 0.31924 0.01717 0.0
O65 O 0.91266 0.33835 0.0394 0.0
O66 O 0.85097 0.36461 0.62399 0.0
O67 O 0.89689 0.35761 0.79731 0.0
O68 O 0.89966 0.39172 0.9102 0.0
C69 C 0.86911 0.3782 0.56839 0.0
O70 O 0.89101 0.39531 0.60318 0.0
O71 O 0.85355 0.41715 0.78201 0.0
C72 C 0.84917 0.37262 0.16899 0.0
O73 O 0.82878 0.35357 0.13509 0.0
O74 O 0.86641 0.38698 0.11251 0.0
O75 O 0.81998 0.38655 0.93636 0.0
O76 O 0.81908 0.35211 0.82467 0.0
O77 O 0.86618 0.32966 0.98195 0.0
C78 C 0.91262 0.37526 0.84865 0.0
C79 C 0.80508 0.36819 0.88477 0.0
Zn80 Zn 0.37878 0.36016 0.18061 0.0
Zn81 Zn 0.37654 0.35144 0.96239 0.0
C82 C 0.32566 0.38852 0.24415 0.0
O83 O 0.34628 0.4097 0.25949 0.0
C84 C 0.43883 0.33249 0.95384 0.0
O85 O 0.42665 0.31095 0.90179 0.0
O86 O 0.39493 0.36357 0.3121 0.0
O87 O 0.38811 0.31689 0.13884 0.0
O88 O 0.35617 0.31534 0.02045 0.0
C89 C 0.38298 0.34466 0.3689 0.0
O90 O 0.36438 0.3237 0.33593 0.0
O91 O 0.3336 0.36397 0.20331 0.0
C92 C 0.38982 0.36268 0.76879 0.0
O93 O 0.40721 0.38412 0.80488 0.0
O94 O 0.37388 0.34606 0.82298 0.0
O95 O 0.35934 0.39228 0.99195 0.0
O96 O 0.39178 0.39798 0.10851 0.0
O97 O 0.42144 0.35198 0.9924 0.0
C98 C 0.37031 0.30183 0.08582 0.0
C99 C 0.37466 0.4095 0.04576 0.0
Zn100 Zn 0.35434 0.60173 0.99401 0.0
Zn101 Zn 0.36069 0.65246 0.75311 0.0
C102 C 0.34936 0.53816 0.03661 0.0
O103 O 0.33359 0.54899 0.10719 0.0
C104 C 0.388 0.70098 0.65594 0.0
O105 O 0.4105 0.68117 0.65902 0.0
O106 O 0.34731 0.60882 0.1312 0.0
O107 O 0.39387 0.62289 0.96891 0.0
O108 O 0.39662 0.6506 0.83937 0.0
C109 C 0.36747 0.60179 0.19147 0.0
O110 O 0.39349 0.59005 0.16327 0.0
O111 O 0.35978 0.5563 0.97495 0.0
C112 C 0.34597 0.62905 0.58017 0.0
O113 O 0.32246 0.64647 0.60044 0.0
O114 O 0.36661 0.62533 0.64164 0.0
O115 O 0.31833 0.64579 0.80346 0.0
O116 O 0.31632 0.61644 0.93016 0.0
O117 O 0.3628 0.69435 0.69535 0.0
C118 C 0.40841 0.64042 0.91416 0.0
C119 C 0.30328 0.63183 0.8663 0.0
Zn120 Zn 0.64605 0.63563 0.24431 0.0
Zn121 Zn 0.59694 0.64562 0.00273 0.0
C122 C 0.69514 0.60766 0.33958 0.0
O123 O 0.67547 0.58499 0.33904 0.0
C124 C 0.53599 0.66426 0.97803 0.0
O125 O 0.55007 0.6863 0.93298 0.0
O126 O 0.61928 0.6317 0.35739 0.0
O127 O 0.64126 0.67817 0.1945 0.0
O128 O 0.61328 0.68293 0.06603 0.0
C129 C 0.62447 0.65225 0.41818 0.0
O130 O 0.64369 0.6743 0.39747 0.0
O131 O 0.68819 0.63252 0.29897 0.0
C132 C 0.59171 0.63518 0.80485 0.0
O133 O 0.57466 0.61214 0.8321 0.0
O134 O 0.60386 0.65243 0.86592 0.0
O135 O 0.61419 0.60427 0.02959 0.0
O136 O 0.64108 0.59922 0.16024 0.0
O137 O 0.55174 0.644 0.01937 0.0
C138 C 0.62893 0.69453 0.1317 0.0
C139 C 0.62993 0.58821 0.0855 0.0
Zn140 Zn 0.62033 0.39792 0.01368 0.0
Zn141 Zn 0.61781 0.3504 0.76998 0.0
C142 C 0.63988 0.45805 0.03158 0.0
O143 O 0.66209 0.44279 0.07202 0.0
C144 C 0.59691 0.29912 0.66407 0.0
O145 O 0.57196 0.31569 0.65905 0.0
O146 O 0.62655 0.39237 0.15135 0.0
O147 O 0.58037 0.37702 0.98463 0.0
O148 O 0.58078 0.35055 0.85206 0.0
C149 C 0.60995 0.40503 0.21302 0.0
O150 O 0.58671 0.42195 0.18687 0.0
O151 O 0.61797 0.44327 0.99465 0.0
C152 C 0.63311 0.37537 0.59895 0.0
O153 O 0.65675 0.358 0.61829 0.0
O154 O 0.61231 0.37831 0.66019 0.0
O155 O 0.65906 0.35641 0.82594 0.0
O156 O 0.6595 0.38272 0.95827 0.0
O157 O 0.6195 0.30893 0.71099 0.0
C158 C 0.56733 0.35963 0.92565 0.0
C159 C 0.6733 0.36833 0.89395 0.0
Zn160 Zn 0.86983 0.61364 0.58399 0.0
Zn161 Zn 0.87004 0.62039 0.80391 0.0
C162 C 0.81167 0.59476 0.52276 0.0
O163 O 0.82781 0.57034 0.50293 0.0
C164 C 0.93293 0.63944 0.79362 0.0
O165 O 0.9213 0.66579 0.81926 0.0
O166 O 0.88484 0.60931 0.45231 0.0
O167 O 0.88491 0.65463 0.62872 0.0
O168 O 0.85212 0.65772 0.74417 0.0
C169 C 0.87507 0.62939 0.39556 0.0
O170 O 0.85867 0.65215 0.42815 0.0
O171 O 0.82443 0.61682 0.56531 0.0
C172 C 0.88239 0.60998 0.997 0.0
O173 O 0.89928 0.58799 0.96199 0.0
O174 O 0.86693 0.62674 0.94206 0.0
O175 O 0.85021 0.5805 0.77512 0.0
O176 O 0.87869 0.5737 0.64964 0.0
O177 O 0.91527 0.61691 0.77892 0.0
C178 C 0.86742 0.67057 0.68004 0.0
C179 C 0.86226 0.5629 0.71511 0.0
Zn180 Zn 0.6394 0.12561 0.23726 0.0
Zn181 Zn 0.63106 0.12334 0.45388 0.0
C182 C 0.65868 0.06179 0.24438 0.0
O183 O 0.68608 0.07234 0.22567 0.0
C184 C 0.6044 0.17971 0.49755 0.0
O185 O 0.58193 0.16084 0.51643 0.0
O186 O 0.64489 0.13079 0.09903 0.0
O187 O 0.59861 0.14252 0.26995 0.0
O188 O 0.59394 0.10887 0.38375 0.0
C189 C 0.62781 0.11562 0.04412 0.0
O190 O 0.60643 0.09803 0.07957 0.0
O191 O 0.63669 0.08027 0.25589 0.0
C192 C 0.64498 0.12339 0.64425 0.0
O193 O 0.66623 0.14148 0.61038 0.0
O194 O 0.62646 0.11064 0.58795 0.0
O195 O 0.67344 0.11073 0.41625 0.0
O196 O 0.67641 0.14322 0.29963 0.0
O197 O 0.62895 0.16915 0.46291 0.0
C198 C 0.58195 0.12583 0.32161 0.0
C199 C 0.68928 0.128 0.36403 0.0
Zn200 Zn 0.15662 0.38205 0.52719 0.0
Zn201 Zn 0.1043 0.37757 0.7648 0.0
C202 C 0.21054 0.40141 0.43464 0.0
O203 O 0.19417 0.42633 0.42464 0.0
C204 C 0.04318 0.36772 0.82681 0.0
O205 O 0.05735 0.35295 0.89382 0.0
O206 O 0.13338 0.38793 0.40873 0.0
O207 O 0.14567 0.34066 0.57679 0.0
O208 O 0.11643 0.33845 0.70293 0.0
C209 C 0.13865 0.3681 0.34605 0.0
O210 O 0.15595 0.34453 0.36675 0.0
O211 O 0.19987 0.37935 0.48222 0.0
C212 C 0.1094 0.39206 0.96007 0.0
O213 O 0.09441 0.41674 0.93515 0.0
O214 O 0.11663 0.37253 0.89831 0.0
O215 O 0.12161 0.41808 0.72599 0.0
O216 O 0.15192 0.42059 0.60195 0.0
O217 O 0.05844 0.37998 0.76123 0.0
C218 C 0.13118 0.32545 0.63785 0.0
C219 C 0.1387 0.43311 0.67102 0.0
Zn220 Zn 0.37578 0.87146 0.2134 0.0
Zn221 Zn 0.38293 0.87687 0.42609 0.0
C222 C 0.353 0.93143 0.1901 0.0
O223 O 0.33224 0.91564 0.1446 0.0
C224 C 0.40433 0.81768 0.47587 0.0
O225 O 0.42875 0.83352 0.49827 0.0
O226 O 0.37135 0.86522 0.07403 0.0
O227 O 0.41671 0.85482 0.2511 0.0
O228 O 0.42152 0.89041 0.35847 0.0
C229 C 0.38781 0.88102 0.0189 0.0
O230 O 0.40832 0.89961 0.05441 0.0
O231 O 0.37471 0.91726 0.23022 0.0
C232 C 0.36863 0.87587 0.61845 0.0
O233 O 0.34723 0.85798 0.58448 0.0
O234 O 0.38688 0.88897 0.56194 0.0
O235 O 0.34076 0.88941 0.38365 0.0
O236 O 0.33879 0.85376 0.27552 0.0
O237 O 0.3823 0.83107 0.43519 0.0
C238 C 0.4336 0.87186 0.30092 0.0
C239 C 0.32536 0.8704 0.33553 0.0
Zn240 Zn 0.85017 0.86081 0.75806 0.0
Zn241 Zn 0.90022 0.85104 0.51712 0.0
C242 C 0.80149 0.88962 0.85386 0.0
O243 O 0.82154 0.91195 0.85351 0.0
C244 C 0.96117 0.83227 0.49097 0.0
O245 O 0.9469 0.81034 0.44592 0.0
O246 O 0.87703 0.86458 0.87124 0.0
O247 O 0.85447 0.81801 0.70849 0.0
O248 O 0.88327 0.81421 0.58137 0.0
C249 C 0.87156 0.84424 0.93245 0.0
O250 O 0.85204 0.82242 0.91212 0.0
O251 O 0.80804 0.86466 0.81302 0.0
C252 C 0.90503 0.86128 0.31889 0.0
O253 O 0.92214 0.88433 0.34575 0.0
O254 O 0.89304 0.84406 0.38029 0.0
O255 O 0.88292 0.89234 0.54347 0.0
O256 O 0.85547 0.89709 0.67315 0.0
O257 O 0.94555 0.85246 0.53318 0.0
C258 C 0.86733 0.8021 0.64553 0.0
C259 C 0.86687 0.90824 0.59893 0.0
Zn260 Zn 0.87293 0.09827 0.51549 0.0
Zn261 Zn 0.87714 0.14586 0.27183 0.0
C262 C 0.85433 0.03791 0.53771 0.0
O263 O 0.83196 0.05301 0.57779 0.0
C264 C 0.89841 0.19828 0.17238 0.0
O265 O 0.92376 0.18228 0.16952 0.0
O266 O 0.86654 0.10425 0.65273 0.0
O267 O 0.91303 0.11917 0.48769 0.0
O268 O 0.91369 0.14559 0.35511 0.0
C269 C 0.88373 0.09207 0.7138 0.0
O270 O 0.90725 0.0757 0.68679 0.0
O271 O 0.87579 0.05283 0.49898 0.0
C272 C 0.86198 0.12138 0.10054 0.0
O273 O 0.8382 0.13842 0.12095 0.0
O274 O 0.88302 0.11854 0.16108 0.0
O275 O 0.83593 0.13908 0.32615 0.0
O276 O 0.83365 0.11285 0.45845 0.0
O277 O 0.87537 0.18762 0.21527 0.0
C278 C 0.92657 0.13646 0.42952 0.0
C279 C 0.82077 0.12722 0.39227 0.0
Zn280 Zn 0.11442 0.13559 0.68873 0.0
Zn281 Zn 0.11701 0.14464 0.47251 0.0
C282 C 0.16846 0.10709 0.74409 0.0
O283 O 0.14811 0.0859 0.76251 0.0
C284 C 0.05481 0.16363 0.46362 0.0
O285 O 0.06711 0.18549 0.41315 0.0
O286 O 0.0996 0.13175 0.82164 0.0
O287 O 0.10455 0.17897 0.64895 0.0
O288 O 0.1369 0.18086 0.53175 0.0
C289 C 0.11203 0.15038 0.87839 0.0
O290 O 0.13066 0.17126 0.84514 0.0
O291 O 0.15981 0.1318 0.7056 0.0
C292 C 0.10438 0.13324 0.27869 0.0
O293 O 0.08694 0.11182 0.31464 0.0
O294 O 0.12008 0.15003 0.3331 0.0
O295 O 0.13416 0.1038 0.50237 0.0
O296 O 0.1009 0.09796 0.6165 0.0
O297 O 0.0721 0.14388 0.50125 0.0
C298 C 0.12242 0.19423 0.59674 0.0
C299 C 0.1184 0.08648 0.55464 0.0
Zn300 Zn 0.143 0.89451 0.5028 0.0
Zn301 Zn 0.13629 0.84348 0.26235 0.0
C302 C 0.14579 0.95824 0.5483 0.0
O303 O 0.16068 0.9477 0.62106 0.0
C304 C 0.10922 0.79483 0.16564 0.0
O305 O 0.08667 0.81457 0.16901 0.0
O306 O 0.15009 0.8871 0.63987 0.0
O307 O 0.10352 0.87317 0.47743 0.0
O308 O 0.10027 0.84528 0.34838 0.0
C309 C 0.12952 0.8932 0.69976 0.0
O310 O 0.10322 0.90419 0.67114 0.0
O311 O 0.13696 0.93996 0.48468 0.0
C312 C 0.15084 0.86657 0.089 0.0
O313 O 0.17446 0.84935 0.10971 0.0
O314 O 0.13017 0.87031 0.15032 0.0
O315 O 0.17868 0.85072 0.31215 0.0
O316 O 0.18123 0.8803 0.43834 0.0
O317 O 0.13443 0.8015 0.20498 0.0
C318 C 0.08873 0.85563 0.4233 0.0
C319 C 0.19401 0.86486 0.37405 0.0
C320 C 0.37278 0.98245 0.24195 0.0
C321 C 0.35245 0.9652 0.18731 0.0
H322 H 0.39003 0.02683 0.2756 0.0
C323 C 0.33245 0.98047 0.12627 0.0
H324 H 0.38837 0.97136 0.28996 0.0
C325 C 0.33354 0.01223 0.11739 0.0
C326 C 0.35446 0.02947 0.17007 0.0
H327 H 0.31647 0.96785 0.08324 0.0
H328 H 0.31831 0.02319 0.06805 0.0
C329 C 0.37366 0.01426 0.23381 0.0
C330 C 0.97952 0.607 0.8108 0.0
C331 C 0.96633 0.63545 0.78991 0.0
H332 H 0.02089 0.5818 0.83268 0.0
C333 C 0.9854 0.66042 0.77034 0.0
H334 H 0.9653 0.58743 0.82689 0.0
C335 C 0.01712 0.65702 0.77171 0.0
C336 C 0.03032 0.62881 0.79525 0.0
H337 H 0.97578 0.68258 0.75406 0.0
H338 H 0.03132 0.67669 0.75681 0.0
C339 C 0.01126 0.60381 0.81472 0.0
C340 C 0.61775 0.98669 0.21066 0.0
C341 C 0.64094 0.96559 0.23044 0.0
H342 H 0.60509 0.03378 0.20181 0.0
C343 C 0.66993 0.97627 0.25709 0.0
H344 H 0.59519 0.97901 0.19029 0.0
C345 C 0.67581 0.00762 0.26188 0.0
C346 C 0.65255 0.02872 0.24253 0.0
H347 H 0.68825 0.9604 0.27219 0.0
H348 H 0.69847 0.01535 0.28101 0.0
C349 C 0.62339 0.01798 0.21783 0.0
C350 C 0.96035 0.36917 0.75541 0.0
C351 C 0.94607 0.37499 0.84155 0.0
H352 H 0.00281 0.36316 0.6828 0.0
C353 C 0.96401 0.37946 0.92171 0.0
H354 H 0.94692 0.3658 0.6926 0.0
C355 C 0.99569 0.37694 0.91659 0.0
C356 C 0.00993 0.37106 0.83066 0.0
H357 H 0.95353 0.38402 0.98887 0.0
H358 H 0.00909 0.37977 0.97971 0.0
C359 C 0.99216 0.36775 0.74971 0.0
C360 C 0.36035 0.4567 0.95731 0.0
C361 C 0.37062 0.44288 0.04038 0.0
H362 H 0.34625 0.49832 0.89032 0.0
C363 C 0.37538 0.46104 0.11998 0.0
H364 H 0.35674 0.44323 0.89472 0.0
C365 C 0.36838 0.49209 0.11815 0.0
C366 C 0.35768 0.50574 0.03574 0.0
H367 H 0.38356 0.45112 0.18463 0.0
H368 H 0.37138 0.50549 0.18121 0.0
C369 C 0.35441 0.48809 0.9546 0.0
C370 C 0.48732 0.63805 0.02143 0.0
C371 C 0.50265 0.66051 0.96931 0.0
H372 H 0.44545 0.6142 0.04534 0.0
C373 C 0.48625 0.67771 0.90335 0.0
H374 H 0.49933 0.62451 0.07305 0.0
C375 C 0.45545 0.67162 0.88679 0.0
C376 C 0.44036 0.6484 0.93649 0.0
H377 H 0.49743 0.6952 0.86211 0.0
H378 H 0.44362 0.6848 0.83393 0.0
C379 C 0.45644 0.63215 0.00551 0.0
C380 C 0.61494 0.54025 0.00138 0.0
C381 C 0.63406 0.55533 0.06559 0.0
H382 H 0.60164 0.49754 0.94049 0.0
C383 C 0.6563 0.53841 0.11374 0.0
H384 H 0.59757 0.55266 0.96312 0.0
C385 C 0.65883 0.50696 0.09995 0.0
C386 C 0.63892 0.49168 0.03861 0.0
H387 H 0.67155 0.54938 0.16307 0.0
H388 H 0.67584 0.49453 0.13959 0.0
C389 C 0.61721 0.50868 0.98851 0.0
C390 C 0.49099 0.32042 0.89372 0.0
C391 C 0.47229 0.33692 0.95541 0.0
H392 H 0.53559 0.31466 0.83585 0.0
C393 C 0.48557 0.35943 0.01262 0.0
H394 H 0.4815 0.30291 0.84876 0.0
C395 C 0.51672 0.3661 0.00554 0.0
C396 C 0.5351 0.35062 0.94039 0.0
H397 H 0.47177 0.37246 0.06115 0.0
H398 H 0.52611 0.38411 0.0488 0.0
C399 C 0.52201 0.32728 0.88597 0.0
C400 C 0.84481 0.48373 0.80716 0.0
C401 C 0.84369 0.46684 0.72385 0.0
H402 H 0.8509 0.52792 0.86947 0.0
C403 C 0.84898 0.48154 0.63828 0.0
H404 H 0.84098 0.47267 0.87392 0.0
C405 C 0.85575 0.51265 0.63595 0.0
C406 C 0.85625 0.52982 0.71886 0.0
H407 H 0.8487 0.4688 0.57331 0.0
H408 H 0.86027 0.5233 0.56904 0.0
C409 C 0.85049 0.51517 0.80454 0.0
C410 C 0.53483 0.13286 0.22598 0.0
C411 C 0.54859 0.12721 0.31301 0.0
H412 H 0.4927 0.13862 0.15109 0.0
C413 C 0.53023 0.12332 0.39253 0.0
H414 H 0.5486 0.13572 0.16366 0.0
C415 C 0.49864 0.12604 0.3858 0.0
C416 C 0.48492 0.13149 0.29891 0.0
H417 H 0.54031 0.11878 0.46029 0.0
H418 H 0.48486 0.12346 0.44825 0.0
C419 C 0.50305 0.13443 0.21869 0.0
C420 C 0.12292 0.51433 0.74997 0.0
C421 C 0.14395 0.53097 0.69602 0.0
H422 H 0.105 0.47034 0.78539 0.0
C423 C 0.1645 0.51503 0.63848 0.0
H424 H 0.10689 0.52595 0.79533 0.0
C425 C 0.1633 0.48322 0.63219 0.0
C426 C 0.14169 0.46657 0.68399 0.0
H427 H 0.18105 0.52715 0.59615 0.0
H428 H 0.17901 0.47174 0.58546 0.0
C429 C 0.12191 0.48244 0.7444 0.0
C430 C 0.51798 0.89051 0.3139 0.0
C431 C 0.53119 0.86209 0.2927 0.0
H432 H 0.47655 0.91572 0.33504 0.0
C433 C 0.51212 0.83724 0.27161 0.0
H434 H 0.53219 0.90998 0.33106 0.0
C435 C 0.4804 0.84069 0.27194 0.0
C436 C 0.46714 0.86884 0.29586 0.0
H437 H 0.52173 0.8151 0.25496 0.0
H438 H 0.46623 0.82108 0.25597 0.0
C439 C 0.48621 0.89374 0.31674 0.0
C440 C 0.83992 0.95784 0.62608 0.0
C441 C 0.86231 0.94102 0.57828 0.0
H442 H 0.81956 0.0015 0.64958 0.0
C443 C 0.88097 0.95606 0.51274 0.0
H444 H 0.82501 0.94691 0.67641 0.0
C445 C 0.87801 0.98747 0.49785 0.0
C446 C 0.85606 0.00436 0.54728 0.0
H447 H 0.89844 0.94374 0.47465 0.0
H448 H 0.89318 -0.00143 0.44864 0.0
C449 C 0.83671 0.98913 0.61031 0.0
C450 C 0.0028 0.17618 0.40339 0.0
C451 C 0.02136 0.15919 0.46423 0.0
H452 H 0.95837 0.1823 0.34474 0.0
C453 C 0.00797 0.13622 0.51941 0.0
H454 H 0.01237 0.19408 0.36007 0.0
C455 C 0.97687 0.12952 0.51092 0.0
C456 C 0.95867 0.14546 0.44634 0.0
H457 H 0.02168 0.12282 0.56729 0.0
H458 H 0.96738 0.11113 0.55243 0.0
C459 C 0.97184 0.16929 0.39422 0.0
C460 C 0.14036 0.00813 0.46543 0.0
C461 C 0.13678 0.99049 0.54644 0.0
H462 H 0.13779 0.0529 0.4051 0.0
C463 C 0.12513 0.00402 0.62785 0.0
H464 H 0.14924 0.99801 0.40189 0.0
C465 C 0.11759 0.03495 0.62891 0.0
C466 C 0.12272 0.05313 0.54962 0.0
H467 H 0.12186 0.99062 0.69079 0.0
H468 H 0.10877 0.04479 0.6929 0.0
C469 C 0.13386 0.03941 0.46745 0.0
C470 C 0.04094 0.86427 0.51564 0.0
C471 C 0.05677 0.84784 0.44652 0.0
H472 H -0.00175 0.87218 0.58419 0.0
C473 C 0.04145 0.82459 0.39757 0.0
H474 H 0.0521 0.88226 0.55485 0.0
C475 C 0.01067 0.81863 0.41506 0.0
C476 C 0.99451 0.83598 0.4812 0.0
H477 H 0.05307 0.81127 0.34462 0.0
H478 H -0.00067 0.80109 0.3744 0.0
C479 C 0.01007 0.8585 0.53249 0.0
C480 C 0.34814 0.21935 0.04239 0.0
C481 C 0.36317 0.20427 0.11598 0.0
H482 H 0.33858 0.26192 0.9751 0.0
C483 C 0.37967 0.22173 0.18137 0.0
H484 H 0.33521 0.20664 0.99083 0.0
C485 C 0.38169 0.25342 0.17214 0.0
C486 C 0.36721 0.2684 0.09744 0.0
H487 H 0.39151 0.21091 0.23904 0.0
H488 H 0.39486 0.26611 0.22315 0.0
C489 C 0.35011 0.25107 0.0333 0.0
C490 C 0.25426 0.6487 0.79205 0.0
C491 C 0.2695 0.63194 0.86168 0.0
H492 H 0.21154 0.6602 0.72895 0.0
C493 C 0.2522 0.61413 0.92414 0.0
H494 H 0.26683 0.66266 0.7428 0.0
C495 C 0.22047 0.6126 0.91585 0.0
C496 C 0.20532 0.62894 0.8452 0.0
H497 H 0.26318 0.60091 0.97864 0.0
H498 H 0.20785 0.59845 0.96449 0.0
C499 C 0.22252 0.64726 0.78403 0.0
C500 C 0.64667 0.77343 0.22562 0.0
C501 C 0.62981 0.79216 0.16478 0.0
H502 H 0.65985 0.72803 0.2626 0.0
C503 C 0.61399 0.77867 0.08994 0.0
H504 H 0.65925 0.78312 0.28372 0.0
C505 C 0.61444 0.74703 0.07751 0.0
C506 C 0.63067 0.7282 0.13982 0.0
H507 H 0.60097 0.79249 0.0414 0.0
H508 H 0.60154 0.73733 0.02008 0.0
C509 C 0.64707 0.74181 0.21335 0.0
C510 C 0.75574 0.38321 0.96011 0.0
C511 C 0.77144 0.36686 0.89059 0.0
H512 H 0.71245 0.39634 0.0163 0.0
C513 C 0.75464 0.34987 0.82497 0.0
H514 H 0.76804 0.39639 0.01202 0.0
C515 C 0.7228 0.34988 0.82725 0.0
C516 C 0.70703 0.36676 0.89549 0.0
H517 H 0.76605 0.33697 0.77061 0.0
H518 H 0.71057 0.33694 0.77461 0.0
C519 C 0.72386 0.38311 0.96269 0.0
C520 C 0.88213 0.71842 0.59559 0.0
C521 C 0.8662 0.70411 0.66871 0.0
H522 H 0.89475 0.76045 0.53027 0.0
C523 C 0.84938 0.7222 0.73149 0.0
H524 H 0.89514 0.70513 0.54565 0.0
C525 C 0.84912 0.75397 0.7227 0.0
C526 C 0.8656 0.76836 0.65075 0.0
H527 H 0.83676 0.71187 0.78843 0.0
H528 H 0.83638 0.76725 0.7733 0.0
C529 C 0.88181 0.75017 0.58662 0.0
C530 C 0.77244 0.14544 0.3176 0.0
C531 C 0.78706 0.12885 0.38891 0.0
H532 H 0.73022 0.15824 0.25396 0.0
C533 C 0.76914 0.11288 0.45419 0.0
H534 H 0.78552 0.15809 0.26626 0.0
C535 C 0.73734 0.11291 0.44688 0.0
C536 C 0.72281 0.12899 0.37435 0.0
H537 H 0.77965 0.09988 0.51 0.0
H538 H 0.72417 0.10007 0.49753 0.0
C539 C 0.74069 0.14554 0.31049 0.0
C540 C 0.11266 0.27428 0.69314 0.0
C541 C 0.13011 0.2917 0.63007 0.0
H542 H 0.09654 0.22993 0.73215 0.0
C543 C 0.14564 0.27662 0.55744 0.0
H544 H 0.10042 0.2851 0.74998 0.0
C545 C 0.14337 0.24497 0.54721 0.0
C546 C 0.12549 0.22765 0.60926 0.0
H547 H 0.15931 0.28928 0.50762 0.0
H548 H 0.1554 0.23416 0.48994 0.0
C549 C 0.11036 0.24262 0.6828 0.0
C550 C 0.27707 0.88458 0.41872 0.0
C551 C 0.2919 0.86815 0.34759 0.0
H552 H 0.23467 0.89621 0.48358 0.0
C553 C 0.2744 0.84966 0.28766 0.0
H554 H 0.28991 0.89888 0.46646 0.0
C555 C 0.24271 0.8481 0.29741 0.0
C556 C 0.22778 0.86492 0.36758 0.0
H557 H 0.28512 0.83664 0.23226 0.0
H558 H 0.22992 0.83398 0.24908 0.0
C559 C 0.24538 0.88294 0.42874 0.0
C560 C 0.21727 0.12944 0.80267 0.0
C561 C 0.1998 0.10362 0.77971 0.0
H562 H 0.25835 0.1464 0.86499 0.0
C563 C 0.21151 0.0744 0.79859 0.0
H564 H 0.20866 0.15223 0.78957 0.0
C565 C 0.24006 0.07103 0.84088 0.0
C566 C 0.25705 0.09686 0.86685 0.0
H567 H 0.19845 0.05412 0.78151 0.0
H568 H 0.24848 0.04825 0.85523 0.0
C569 C 0.24553 0.12608 0.84671 0.0
C570 C 0.07183 0.72675 0.04955 0.0
C571 C 0.09723 0.7098 0.01992 0.0
H572 H 0.05575 0.76706 0.1184 0.0
C573 C 0.1267 0.72137 0.03654 0.0
H574 H 0.04887 0.71834 0.03794 0.0
C575 C 0.13067 0.74893 0.08442 0.0
C576 C 0.10525 0.7657 0.11502 0.0
H577 H 0.14674 0.70864 0.01535 0.0
H578 H 0.15363 0.7571 0.09747 0.0
C579 C 0.07579 0.75458 0.09583 0.0
C580 C 0.72734 0.87113 0.97776 0.0
C581 C 0.71603 0.90045 0.9979 0.0
H582 H 0.76299 0.84474 0.91472 0.0
C583 C 0.73337 0.9261 0.97226 0.0
H584 H 0.71434 0.85092 0.99586 0.0
C585 C 0.76132 0.92254 0.92647 0.0
C586 C 0.7722 0.89327 0.90382 0.0
H587 H 0.72517 0.94896 0.98672 0.0
H588 H 0.7741 0.94276 0.90708 0.0
C589 C 0.75503 0.86759 0.93043 0.0
C590 C 0.86619 0.27006 0.06369 0.0
C591 C 0.8928 0.28709 0.04688 0.0
H592 H 0.84714 0.22869 0.11807 0.0
C593 C 0.92136 0.27408 0.06717 0.0
H594 H 0.84386 0.2796 0.0493 0.0
C595 C 0.92325 0.24483 0.10571 0.0
C596 C 0.89659 0.22835 0.1263 0.0
H597 H 0.94223 0.28674 0.05479 0.0
H598 H 0.94554 0.23554 0.12205 0.0
C599 C 0.86806 0.24105 0.10384 0.0
C600 C 0.28359 0.42083 0.30719 0.0
C601 C 0.29514 0.39169 0.28627 0.0
H602 H 0.24759 0.44674 0.37017 0.0
C603 C 0.27851 0.36575 0.31347 0.0
H604 H 0.29604 0.4412 0.28715 0.0
C605 C 0.2512 0.36892 0.36297 0.0
C606 C 0.23975 0.39808 0.38446 0.0
H607 H 0.28708 0.34302 0.2991 0.0
H608 H 0.23895 0.34853 0.3839 0.0
C609 C 0.25597 0.424 0.35493 0.0
C610 C 0.42155 0.74136 0.58744 0.0
C611 C 0.39206 0.73024 0.60611 0.0
H612 H 0.44855 0.77784 0.53135 0.0
C613 C 0.36668 0.7472 0.57617 0.0
H614 H 0.44155 0.72874 0.60954 0.0
C615 C 0.37071 0.77498 0.52959 0.0
C616 C 0.40021 0.78658 0.51368 0.0
H617 H 0.3437 0.73903 0.58884 0.0
H618 H 0.3507 0.78785 0.509 0.0
C619 C 0.42557 0.76941 0.54248 0.0
C620 C 0.74098 0.63043 0.41755 0.0
C621 C 0.72448 0.60447 0.3894 0.0
H622 H 0.78126 0.64769 0.48421 0.0
C623 C 0.73607 0.57536 0.41029 0.0
H624 H 0.73244 0.65316 0.40315 0.0
C625 C 0.7641 0.57223 0.45589 0.0
C626 C 0.78076 0.59816 0.48314 0.0
H627 H 0.7238 0.55495 0.38963 0.0
H628 H 0.77286 0.5495 0.46902 0.0
C629 C 0.76875 0.6273 0.46479 0.0
C630 C 0.57405 0.22501 0.54782 0.0
C631 C 0.6026 0.21159 0.53015 0.0
H632 H 0.54987 0.26345 0.60329 0.0
C633 C 0.62928 0.22781 0.55254 0.0
H634 H 0.55312 0.21298 0.53114 0.0
C635 C 0.62741 0.2564 0.59555 0.0
C636 C 0.59884 0.26949 0.61533 0.0
H637 H 0.65159 0.21791 0.54031 0.0
H638 H 0.64834 0.26812 0.61405 0.0
C639 C 0.57219 0.25385 0.58919 0.0
C640 C 0.39458 0.09157 0.61383 0.0
C641 C 0.38549 0.1122 0.54396 0.0
H642 H 0.39406 0.08057 0.75972 0.0
C643 C 0.37006 0.13904 0.5698 0.0
H644 H 0.40668 0.0708 0.59607 0.0
C645 C 0.36308 0.14473 0.66319 0.0
C646 C 0.37124 0.12367 0.73284 0.0
H647 H 0.36303 0.15558 0.51775 0.0
H648 H 0.35063 0.16536 0.68035 0.0
C649 C 0.38746 0.09723 0.70752 0.0
C650 C 0.09625 0.59841 0.35563 0.0
C651 C 0.11468 0.6156 0.41672 0.0
H652 H 0.08636 0.58611 0.21374 0.0
C653 C 0.13833 0.63345 0.37908 0.0
H654 H 0.07788 0.58433 0.38235 0.0
C655 C 0.14331 0.63429 0.28261 0.0
C656 C 0.12469 0.61738 0.22137 0.0
H657 H 0.15306 0.64684 0.42411 0.0
H658 H 0.16158 0.64853 0.25607 0.0
C659 C 0.10116 0.59934 0.25896 0.0
C660 C 0.60294 0.9032 0.66321 0.0
C661 C 0.618 0.88293 0.60241 0.0
H662 H 0.59262 0.91504 0.80516 0.0
C663 C 0.63383 0.85796 0.64044 0.0
H664 H 0.59046 0.92263 0.63612 0.0
C665 C 0.63488 0.85352 0.73705 0.0
C666 C 0.62022 0.87401 0.79801 0.0
H667 H 0.64554 0.84182 0.59563 0.0
H668 H 0.64757 0.83419 0.76387 0.0
C669 C 0.60409 0.89882 0.76007 0.0
C670 C 0.83508 0.35826 0.33264 0.0
C671 C 0.85373 0.37501 0.27123 0.0
H672 H 0.82539 0.34596 0.47429 0.0
C673 C 0.87752 0.39282 0.30837 0.0
H674 H 0.8166 0.34423 0.30635 0.0
C675 C 0.88267 0.39369 0.40485 0.0
C676 C 0.86411 0.37678 0.46616 0.0
H677 H 0.89238 0.40589 0.26292 0.0
H678 H 0.90119 0.40763 0.43126 0.0
C679 C 0.8402 0.35915 0.429 0.0
C680 C 0.40413 0.37223 0.50872 0.0
C681 C 0.38668 0.34824 0.47116 0.0
H682 H 0.41879 0.39568 0.63234 0.0
C683 C 0.37103 0.32861 0.53242 0.0
H684 H 0.4164 0.3878 0.46339 0.0
C685 C 0.37221 0.33323 0.6289 0.0
C686 C 0.38916 0.35755 0.66653 0.0
H687 H 0.35735 0.3099 0.50591 0.0
H688 H 0.35961 0.31783 0.67391 0.0
C689 C 0.4054 0.37681 0.60551 0.0
C690 C 0.333 0.61779 0.32163 0.0
C691 C 0.36138 0.60642 0.29211 0.0
H692 H 0.30574 0.63329 0.43587 0.0
C693 C 0.38388 0.60004 0.35946 0.0
H694 H 0.31504 0.62264 0.2717 0.0
C695 C 0.37849 0.60607 0.4541 0.0
C696 C 0.35049 0.61858 0.48296 0.0
H697 H 0.40592 0.59106 0.33897 0.0
H698 H 0.39659 0.60186 0.50407 0.0
C699 C 0.32761 0.62378 0.41595 0.0
C700 C 0.58829 0.61931 0.63661 0.0
C701 C 0.59761 0.64059 0.70451 0.0
H702 H 0.58931 0.60634 0.49213 0.0
C703 C 0.61355 0.66682 0.67603 0.0
H704 H 0.57583 0.59893 0.65636 0.0
C705 C 0.62105 0.67115 0.58226 0.0
C706 C 0.61292 0.64927 0.51479 0.0
H707 H 0.62078 0.68383 0.72643 0.0
H708 H 0.63402 0.69128 0.56323 0.0
C709 C 0.59593 0.62358 0.54252 0.0
C710 C 0.65014 0.37958 0.43322 0.0
C711 C 0.62853 0.38658 0.50251 0.0
H712 H 0.66116 0.37981 0.28783 0.0
C713 C 0.60151 0.40171 0.47664 0.0
H714 H 0.67126 0.36804 0.45069 0.0
C715 C 0.59572 0.40855 0.38268 0.0
C716 C 0.61676 0.40017 0.31309 0.0
H717 H 0.58441 0.40743 0.52846 0.0
H718 H 0.57438 0.41951 0.36438 0.0
C719 C 0.64428 0.38619 0.33961 0.0
C720 C 0.86571 0.64068 0.1352 0.0
C721 C 0.88159 0.61546 0.09891 0.0
H722 H 0.85157 0.66505 0.25708 0.0
C723 C 0.89661 0.59559 0.16088 0.0
H724 H 0.85407 0.65654 0.08931 0.0
C725 C 0.89518 0.60048 0.25739 0.0
C726 C 0.87881 0.62541 0.29365 0.0
H727 H 0.90915 0.57601 0.13504 0.0
H728 H 0.90651 0.58446 0.30353 0.0
C729 C 0.8644 0.64564 0.23147 0.0
C730 C 0.66066 0.1362 0.80761 0.0
C731 C 0.64123 0.12023 0.7465 0.0
H732 H 0.6716 0.1474 0.94923 0.0
C733 C 0.61754 0.10241 0.78408 0.0
H734 H 0.67911 0.15018 0.78096 0.0
C735 C 0.6132 0.10086 0.88081 0.0
C736 C 0.63242 0.11714 0.94182 0.0
H737 H 0.60214 0.08989 0.73883 0.0
H738 H 0.59465 0.08704 0.90764 0.0
C739 C 0.65629 0.1347 0.90417 0.0
C740 C 0.1141 0.40057 0.22309 0.0
C741 C 0.12913 0.37345 0.24852 0.0
H742 H 0.09623 0.42788 0.11161 0.0
C743 C 0.13695 0.35232 0.17872 0.0
H744 H 0.10785 0.41735 0.27536 0.0
C745 C 0.13048 0.35842 0.08518 0.0
C746 C 0.11601 0.38579 0.05938 0.0
H747 H 0.14856 0.33122 0.19598 0.0
H748 H 0.13705 0.34172 0.03307 0.0
C749 C 0.10759 0.40669 0.12929 0.0
C750 C 0.35934 0.86189 0.87844 0.0
C751 C 0.38291 0.87979 0.91642 0.0
H752 H 0.33619 0.84687 0.75508 0.0
C753 C 0.40134 0.89705 0.8556 0.0
H754 H 0.34462 0.84843 0.92325 0.0
C755 C 0.39647 0.89622 0.7589 0.0
C756 C 0.373 0.87818 0.72096 0.0
H757 H 0.41964 0.91118 0.88256 0.0
H758 H 0.41125 0.90955 0.71393 0.0
C759 C 0.35442 0.86112 0.7819 0.0
C760 C 0.90831 0.87701 0.15045 0.0
C761 C 0.89888 0.85587 0.21862 0.0
H762 H 0.90724 0.88988 0.00588 0.0
C763 C 0.88261 0.82979 0.19045 0.0
H764 H 0.92102 0.89726 0.16993 0.0
C765 C 0.87493 0.82548 0.09676 0.0
C766 C 0.88322 0.84721 0.02902 0.0
H767 H 0.87528 0.8129 0.24103 0.0
H768 H 0.86173 0.80547 0.07799 0.0
C769 C 0.9005 0.87274 0.05646 0.0
C770 C 0.89339 0.09557 0.97689 0.0
C771 C 0.86628 0.11031 0.00389 0.0
H772 H 0.92023 0.07816 0.86351 0.0
C773 C 0.84423 0.117 0.93558 0.0
H774 H 0.91081 0.0901 0.02798 0.0
C775 C 0.84973 0.11045 0.84175 0.0
C776 C 0.87732 0.09688 0.81407 0.0
H777 H 0.82303 0.12821 0.95399 0.0
H778 H 0.83251 0.11657 0.79069 0.0
C779 C 0.89882 0.08882 0.88272 0.0
C780 C 0.12417 0.16645 0.0419 0.0
C781 C 0.10839 0.14687 0.98072 0.0
H782 H 0.1354 0.17746 0.18344 0.0
C783 C 0.09063 0.12314 0.01845 0.0
H784 H 0.13809 0.18496 0.01526 0.0
C785 C 0.08912 0.11881 0.11531 0.0
C786 C 0.1054 0.13808 0.17629 0.0
H787 H 0.07826 0.10763 0.97321 0.0
H788 H 0.07546 0.10016 0.14224 0.0
C789 C 0.12273 0.16209 0.13849 0.0
C790 C 0.16401 0.87769 0.83052 0.0
C791 C 0.13551 0.88861 0.80048 0.0
H792 H 0.19133 0.86271 0.94534 0.0
C793 C 0.1128 0.89467 0.86741 0.0
H794 H 0.18211 0.87306 0.7809 0.0
C795 C 0.11815 0.88884 0.96217 0.0
C796 C 0.14629 0.87681 0.99158 0.0
H797 H 0.09066 0.90332 0.84651 0.0
H798 H 0.09991 0.89283 0.01182 0.0
C799 C 0.16934 0.87186 0.92497 0.0
loop_
_geom_bond_atom_site_label_1
_geom_bond_atom_site_label_2
_geom_bond_distance
_geom_bond_site_symmetry_2
_ccdc_geom_bond_type
Zn0 O6 1.969 . S
Zn0 O7 1.965 1_556 S
Zn0 O11 2.024 1_556 S
Zn0 O16 1.969 1_556 S
Zn1 O8 1.969 . S
Zn1 O14 1.969 . S
Zn1 O15 1.965 . S
Zn1 O17 2.024 . S
C2 O3 1.229 . S
C2 O11 1.058 1_556 S
O3 C2 1.229 . S
C4 O5 1.229 . S
C4 O17 1.058 . S
O5 C4 1.229 . S
O6 Zn0 1.969 . S
O6 C9 1.267 . S
O7 Zn0 1.965 1_554 S
O7 C18 1.260 . S
O8 Zn1 1.969 . S
O8 C18 1.258 . S
C9 O6 1.267 . S
C9 O10 1.228 . S
O10 C9 1.228 . S
O11 Zn0 2.024 1_554 S
O11 C2 1.058 1_554 S
C12 O13 1.228 . S
C12 O14 1.267 . S
O13 C12 1.228 . S
O14 Zn1 1.969 . S
O14 C12 1.267 . S
O15 Zn1 1.965 . S
O15 C19 1.260 . S
O16 Zn0 1.969 1_554 S
O16 C19 1.258 . S
O17 Zn1 2.024 . S
O17 C4 1.058 . S
C18 O7 1.260 . S
C18 O8 1.258 . S
C19 O15 1.260 . S
C19 O16 1.258 . S
Zn20 O26 1.969 . S
Zn20 O27 1.965 . S
Zn20 O31 2.024 . S
Zn20 O36 1.969 . S
Zn21 O28 1.969 1_554 S
Zn21 O34 1.969 . S
Zn21 O35 1.965 1_554 S
Zn21 O37 2.024 1_554 S
C22 O23 1.229 . S
C22 O31 1.058 . S
O23 C22 1.229 . S
C24 O25 1.229 . S
C24 O37 1.058 1_554 S
O25 C24 1.229 . S
O26 Zn20 1.969 . S
O26 C29 1.267 . S
O27 Zn20 1.965 . S
O27 C38 1.260 . S
O28 Zn21 1.969 1_556 S
O28 C38 1.258 . S
C29 O26 1.267 . S
C29 O30 1.228 . S
O30 C29 1.228 . S
O31 Zn20 2.024 . S
O31 C22 1.058 . S
C32 O33 1.228 . S
C32 O34 1.267 . S
O33 C32 1.228 . S
O34 Zn21 1.969 . S
O34 C32 1.267 . S
O35 Zn21 1.965 1_556 S
O35 C39 1.260 . S
O36 Zn20 1.969 . S
O36 C39 1.258 . S
O37 Zn21 2.024 1_556 S
O37 C24 1.058 1_556 S
C38 O27 1.260 . S
C38 O28 1.258 . S
C39 O35 1.260 . S
C39 O36 1.258 . S
Zn40 O46 1.969 . S
Zn40 O47 1.965 1_556 S
Zn40 O51 2.024 1_556 S
Zn40 O56 1.969 1_556 S
Zn41 O48 1.969 . S
Zn41 O54 1.969 . S
Zn41 O55 1.965 . S
Zn41 O57 2.024 . S
C42 O43 1.229 . S
C42 O51 1.058 1_556 S
O43 C42 1.229 . S
C44 O45 1.229 . S
C44 O57 1.058 . S
O45 C44 1.229 . S
O46 Zn40 1.969 . S
O46 C49 1.267 . S
O47 Zn40 1.965 1_554 S
O47 C58 1.260 . S
O48 Zn41 1.969 . S
O48 C58 1.258 . S
C49 O46 1.267 . S
C49 O50 1.228 . S
O50 C49 1.228 . S
O51 Zn40 2.024 1_554 S
O51 C42 1.058 1_554 S
C52 O53 1.228 . S
C52 O54 1.267 . S
O53 C52 1.228 . S
O54 Zn41 1.969 . S
O54 C52 1.267 . S
O55 Zn41 1.965 . S
O55 C59 1.260 . S
O56 Zn40 1.969 1_554 S
O56 C59 1.258 . S
O57 Zn41 2.024 . S
O57 C44 1.058 . S
C58 O47 1.260 . S
C58 O48 1.258 . S
C59 O55 1.260 . S
C59 O56 1.258 . S
Zn60 O66 1.969 . S
Zn60 O67 1.965 . S
Zn60 O71 2.024 . S
Zn60 O76 1.969 . S
Zn61 O68 1.969 1_554 S
Zn61 O74 1.969 . S
Zn61 O75 1.965 1_554 S
Zn61 O77 2.024 1_554 S
C62 O63 1.229 . S
C62 O71 1.058 . S
O63 C62 1.229 . S
C64 O65 1.229 . S
C64 O77 1.058 1_554 S
O65 C64 1.229 . S
O66 Zn60 1.969 . S
O66 C69 1.267 . S
O67 Zn60 1.965 . S
O67 C78 1.260 . S
O68 Zn61 1.969 1_556 S
O68 C78 1.258 . S
C69 O66 1.267 . S
C69 O70 1.228 . S
O70 C69 1.228 . S
O71 Zn60 2.024 . S
O71 C62 1.058 . S
C72 O73 1.228 . S
C72 O74 1.267 . S
O73 C72 1.228 . S
O74 Zn61 1.969 . S
O74 C72 1.267 . S
O75 Zn61 1.965 1_556 S
O75 C79 1.260 . S
O76 Zn60 1.969 . S
O76 C79 1.258 . S
O77 Zn61 2.024 1_556 S
O77 C64 1.058 1_556 S
C78 O67 1.260 . S
C78 O68 1.258 . S
C79 O75 1.260 . S
C79 O76 1.258 . S
Zn80 O86 1.969 . S
Zn80 O87 1.965 . S
Zn80 O91 2.024 . S
Zn80 O96 1.969 . S
Zn81 O88 1.969 1_556 S
Zn81 O94 1.969 . S
Zn81 O95 1.965 1_556 S
Zn81 O97 2.024 1_556 S
C82 O83 1.229 . S
C82 O91 1.058 . S
O83 C82 1.229 . S
C84 O85 1.229 . S
C84 O97 1.058 1_556 S
O85 C84 1.229 . S
O86 Zn80 1.969 . S
O86 C89 1.267 . S
O87 Zn80 1.965 . S
O87 C98 1.260 . S
O88 Zn81 1.969 1_554 S
O88 C98 1.258 . S
C89 O86 1.267 . S
C89 O90 1.228 . S
O90 C89 1.228 . S
O91 Zn80 2.024 . S
O91 C82 1.058 . S
C92 O93 1.228 . S
C92 O94 1.267 . S
O93 C92 1.228 . S
O94 Zn81 1.969 . S
O94 C92 1.267 . S
O95 Zn81 1.965 1_554 S
O95 C99 1.260 . S
O96 Zn80 1.969 . S
O96 C99 1.258 . S
O97 Zn81 2.024 1_554 S
O97 C84 1.058 1_554 S
C98 O87 1.260 . S
C98 O88 1.258 . S
C99 O95 1.260 . S
C99 O96 1.258 . S
Zn100 O106 1.969 . S
Zn100 O107 1.965 1_554 S
Zn100 O111 2.024 1_554 S
Zn100 O116 1.969 1_554 S
Zn101 O108 1.969 . S
Zn101 O114 1.969 . S
Zn101 O115 1.965 . S
Zn101 O117 2.024 . S
C102 O103 1.229 . S
C102 O111 1.058 1_554 S
O103 C102 1.229 . S
C104 O105 1.229 . S
C104 O117 1.058 . S
O105 C104 1.229 . S
O106 Zn100 1.969 . S
O106 C109 1.267 . S
O107 Zn100 1.965 1_556 S
O107 C118 1.260 . S
O108 Zn101 1.969 . S
O108 C118 1.258 . S
C109 O106 1.267 . S
C109 O110 1.228 . S
O110 C109 1.228 . S
O111 Zn100 2.024 1_556 S
O111 C102 1.058 1_556 S
C112 O113 1.228 . S
C112 O114 1.267 . S
O113 C112 1.228 . S
O114 Zn101 1.969 . S
O114 C112 1.267 . S
O115 Zn101 1.965 . S
O115 C119 1.260 . S
O116 Zn100 1.969 1_556 S
O116 C119 1.258 . S
O117 Zn101 2.024 . S
O117 C104 1.058 . S
C118 O107 1.260 . S
C118 O108 1.258 . S
C119 O115 1.260 . S
C119 O116 1.258 . S
Zn120 O126 1.969 . S
Zn120 O127 1.965 . S
Zn120 O131 2.024 . S
Zn120 O136 1.969 . S
Zn121 O128 1.969 1_556 S
Zn121 O134 1.969 . S
Zn121 O135 1.965 1_556 S
Zn121 O137 2.024 1_556 S
C122 O123 1.229 . S
C122 O131 1.058 . S
O123 C122 1.229 . S
C124 O125 1.229 . S
C124 O137 1.058 1_556 S
O125 C124 1.229 . S
O126 Zn120 1.969 . S
O126 C129 1.267 . S
O127 Zn120 1.965 . S
O127 C138 1.260 . S
O128 Zn121 1.969 1_554 S
O128 C138 1.258 . S
C129 O126 1.267 . S
C129 O130 1.228 . S
O130 C129 1.228 . S
O131 Zn120 2.024 . S
O131 C122 1.058 . S
C132 O133 1.228 . S
C132 O134 1.267 . S
O133 C132 1.228 . S
O134 Zn121 1.969 . S
O134 C132 1.267 . S
O135 Zn121 1.965 1_554 S
O135 C139 1.260 . S
O136 Zn120 1.969 . S
O136 C139 1.258 . S
O137 Zn121 2.024 1_554 S
O137 C124 1.058 1_554 S
C138 O127 1.260 . S
C138 O128 1.258 . S
C139 O135 1.260 . S
C139 O136 1.258 . S
Zn140 O146 1.969 . S
Zn140 O147 1.965 1_554 S
Zn140 O151 2.024 1_554 S
Zn140 O156 1.969 1_554 S
Zn141 O148 1.969 . S
Zn141 O154 1.969 . S
Zn141 O155 1.965 . S
Zn141 O157 2.024 . S
C142 O143 1.229 . S
C142 O151 1.058 1_554 S
O143 C142 1.229 . S
C144 O145 1.229 . S
C144 O157 1.058 . S
O145 C144 1.229 . S
O146 Zn140 1.969 . S
O146 C149 1.267 . S
O147 Zn140 1.965 1_556 S
O147 C158 1.260 . S
O148 Zn141 1.969 . S
O148 C158 1.258 . S
C149 O146 1.267 . S
C149 O150 1.228 . S
O150 C149 1.228 . S
O151 Zn140 2.024 1_556 S
O151 C142 1.058 1_556 S
C152 O153 1.228 . S
C152 O154 1.267 . S
O153 C152 1.228 . S
O154 Zn141 1.969 . S
O154 C152 1.267 . S
O155 Zn141 1.965 . S
O155 C159 1.260 . S
O156 Zn140 1.969 1_556 S
O156 C159 1.258 . S
O157 Zn141 2.024 . S
O157 C144 1.058 . S
C158 O147 1.260 . S
C158 O148 1.258 . S
C159 O155 1.260 . S
C159 O156 1.258 . S
Zn160 O166 1.969 . S
Zn160 O167 1.965 . S
Zn160 O171 2.024 . S
Zn160 O176 1.969 . S
Zn161 O168 1.969 . S
Zn161 O174 1.969 . S
Zn161 O175 1.965 . S
Zn161 O177 2.024 . S
C162 O163 1.229 . S
C162 O171 1.058 . S
O163 C162 1.229 . S
C164 O165 1.229 . S
C164 O177 1.058 . S
O165 C164 1.229 . S
O166 Zn160 1.969 . S
O166 C169 1.267 . S
O167 Zn160 1.965 . S
O167 C178 1.260 . S
O168 Zn161 1.969 . S
O168 C178 1.258 . S
C169 O166 1.267 . S
C169 O170 1.228 . S
O170 C169 1.228 . S
O171 Zn160 2.024 . S
O171 C162 1.058 . S
C172 O173 1.228 . S
C172 O174 1.267 . S
O173 C172 1.228 . S
O174 Zn161 1.969 . S
O174 C172 1.267 . S
O175 Zn161 1.965 . S
O175 C179 1.260 . S
O176 Zn160 1.969 . S
O176 C179 1.258 . S
O177 Zn161 2.024 . S
O177 C164 1.058 . S
C178 O167 1.260 . S
C178 O168 1.258 . S
C179 O175 1.260 . S
C179 O176 1.258 . S
Zn180 O186 1.969 . S
Zn180 O187 1.965 . S
Zn180 O191 2.024 . S
Zn180 O196 1.969 . S
Zn181 O188 1.969 . S
Zn181 O194 1.969 . S
Zn181 O195 1.965 . S
Zn181 O197 2.024 . S
C182 O183 1.229 . S
C182 O191 1.058 . S
O183 C182 1.229 . S
C184 O185 1.229 . S
C184 O197 1.058 . S
O185 C184 1.229 . S
O186 Zn180 1.969 . S
O186 C189 1.267 . S
O187 Zn180 1.965 . S
O187 C198 1.260 . S
O188 Zn181 1.969 . S
O188 C198 1.258 . S
C189 O186 1.267 . S
C189 O190 1.228 . S
O190 C189 1.228 . S
O191 Zn180 2.024 . S
O191 C182 1.058 . S
C192 O193 1.228 . S
C192 O194 1.267 . S
O193 C192 1.228 . S
O194 Zn181 1.969 . S
O194 C192 1.267 . S
O195 Zn181 1.965 . S
O195 C199 1.260 . S
O196 Zn180 1.969 . S
O196 C199 1.258 . S
O197 Zn181 2.024 . S
O197 C184 1.058 . S
C198 O187 1.260 . S
C198 O188 1.258 . S
C199 O195 1.260 . S
C199 O196 1.258 . S
Zn200 O206 1.969 . S
Zn200 O207 1.965 . S
Zn200 O211 2.024 . S
Zn200 O216 1.969 . S
Zn201 O208 1.969 . S
Zn201 O214 1.969 . S
Zn201 O215 1.965 . S
Zn201 O217 2.024 . S
C202 O203 1.229 . S
C202 O211 1.058 . S
O203 C202 1.229 . S
C204 O205 1.229 . S
C204 O217 1.058 . S
O205 C204 1.229 . S
O206 Zn200 1.969 . S
O206 C209 1.267 . S
O207 Zn200 1.965 . S
O207 C218 1.260 . S
O208 Zn201 1.969 . S
O208 C218 1.258 . S
C209 O206 1.267 . S
C209 O210 1.228 . S
O210 C209 1.228 . S
O211 Zn200 2.024 . S
O211 C202 1.058 . S
C212 O213 1.228 . S
C212 O214 1.267 . S
O213 C212 1.228 . S
O214 Zn201 1.969 . S
O214 C212 1.267 . S
O215 Zn201 1.965 . S
O215 C219 1.260 . S
O216 Zn200 1.969 . S
O216 C219 1.258 . S
O217 Zn201 2.024 . S
O217 C204 1.058 . S
C218 O207 1.260 . S
C218 O208 1.258 . S
C219 O215 1.260 . S
C219 O216 1.258 . S
Zn220 O226 1.969 . S
Zn220 O227 1.965 . S
Zn220 O231 2.024 . S
Zn220 O236 1.969 . S
Zn221 O228 1.969 . S
Zn221 O234 1.969 . S
Zn221 O235 1.965 . S
Zn221 O237 2.024 . S
C222 O223 1.229 . S
C222 O231 1.058 . S
O223 C222 1.229 . S
C224 O225 1.229 . S
C224 O237 1.058 . S
O225 C224 1.229 . S
O226 Zn220 1.969 . S
O226 C229 1.267 . S
O227 Zn220 1.965 . S
O227 C238 1.260 . S
O228 Zn221 1.969 . S
O228 C238 1.258 . S
C229 O226 1.267 . S
C229 O230 1.228 . S
O230 C229 1.228 . S
O231 Zn220 2.024 . S
O231 C222 1.058 . S
C232 O233 1.228 . S
C232 O234 1.267 . S
O233 C232 1.228 . S
O234 Zn221 1.969 . S
O234 C232 1.267 . S
O235 Zn221 1.965 . S
O235 C239 1.260 . S
O236 Zn220 1.969 . S
O236 C239 1.258 . S
O237 Zn221 2.024 . S
O237 C224 1.058 . S
C238 O227 1.260 . S
C238 O228 1.258 . S
C239 O235 1.260 . S
C239 O236 1.258 . S
Zn240 O246 1.969 . S
Zn240 O247 1.965 . S
Zn240 O251 2.024 . S
Zn240 O256 1.969 . S
Zn241 O248 1.969 . S
Zn241 O254 1.969 . S
Zn241 O255 1.965 . S
Zn241 O257 2.024 . S
C242 O243 1.229 . S
C242 O251 1.058 . S
O243 C242 1.229 . S
C244 O245 1.229 . S
C244 O257 1.058 . S
O245 C244 1.229 . S
O246 Zn240 1.969 . S
O246 C249 1.267 . S
O247 Zn240 1.965 . S
O247 C258 1.260 . S
O248 Zn241 1.969 . S
O248 C258 1.258 . S
C249 O246 1.267 . S
C249 O250 1.228 . S
O250 C249 1.228 . S
O251 Zn240 2.024 . S
O251 C242 1.058 . S
C252 O253 1.228 . S
C252 O254 1.267 . S
O253 C252 1.228 . S
O254 Zn241 1.969 . S
O254 C252 1.267 . S
O255 Zn241 1.965 . S
O255 C259 1.260 . S
O256 Zn240 1.969 . S
O256 C259 1.258 . S
O257 Zn241 2.024 . S
O257 C244 1.058 . S
C258 O247 1.260 . S
C258 O248 1.258 . S
C259 O255 1.260 . S
C259 O256 1.258 . S
Zn260 O266 1.969 . S
Zn260 O267 1.965 . S
Zn260 O271 2.024 . S
Zn260 O276 1.969 . S
Zn261 O268 1.969 . S
Zn261 O274 1.969 . S
Zn261 O275 1.965 . S
Zn261 O277 2.024 . S
C262 O263 1.229 . S
C262 O271 1.058 . S
O263 C262 1.229 . S
C264 O265 1.229 . S
C264 O277 1.058 . S
O265 C264 1.229 . S
O266 Zn260 1.969 . S
O266 C269 1.267 . S
O267 Zn260 1.965 . S
O267 C278 1.260 . S
O268 Zn261 1.969 . S
O268 C278 1.258 . S
C269 O266 1.267 . S
C269 O270 1.228 . S
O270 C269 1.228 . S
O271 Zn260 2.024 . S
O271 C262 1.058 . S
C272 O273 1.228 . S
C272 O274 1.267 . S
O273 C272 1.228 . S
O274 Zn261 1.969 . S
O274 C272 1.267 . S
O275 Zn261 1.965 . S
O275 C279 1.260 . S
O276 Zn260 1.969 . S
O276 C279 1.258 . S
O277 Zn261 2.024 . S
O277 C264 1.058 . S
C278 O267 1.260 . S
C278 O268 1.258 . S
C279 O275 1.260 . S
C279 O276 1.258 . S
Zn280 O286 1.969 . S
Zn280 O287 1.965 . S
Zn280 O291 2.024 . S
Zn280 O296 1.969 . S
Zn281 O288 1.969 . S
Zn281 O294 1.969 . S
Zn281 O295 1.965 . S
Zn281 O297 2.024 . S
C282 O283 1.229 . S
C282 O291 1.058 . S
O283 C282 1.229 . S
C284 O285 1.229 . S
C284 O297 1.058 . S
O285 C284 1.229 . S
O286 Zn280 1.969 . S
O286 C289 1.267 . S
O287 Zn280 1.965 . S
O287 C298 1.260 . S
O288 Zn281 1.969 . S
O288 C298 1.258 . S
C289 O286 1.267 . S
C289 O290 1.228 . S
O290 C289 1.228 . S
O291 Zn280 2.024 . S
O291 C282 1.058 . S
C292 O293 1.228 . S
C292 O294 1.267 . S
O293 C292 1.228 . S
O294 Zn281 1.969 . S
O294 C292 1.267 . S
O295 Zn281 1.965 . S
O295 C299 1.260 . S
O296 Zn280 1.969 . S
O296 C299 1.258 . S
O297 Zn281 2.024 . S
O297 C284 1.058 . S
C298 O287 1.260 . S
C298 O288 1.258 . S
C299 O295 1.260 . S
C299 O296 1.258 . S
Zn300 O306 1.969 . S
Zn300 O307 1.965 . S
Zn300 O311 2.024 . S
Zn300 O316 1.969 . S
Zn301 O308 1.969 . S
Zn301 O314 1.969 . S
Zn301 O315 1.965 . S
Zn301 O317 2.024 . S
C302 O303 1.229 . S
C302 O311 1.058 . S
O303 C302 1.229 . S
C304 O305 1.229 . S
C304 O317 1.058 . S
O305 C304 1.229 . S
O306 Zn300 1.969 . S
O306 C309 1.267 . S
O307 Zn300 1.965 . S
O307 C318 1.260 . S
O308 Zn301 1.969 . S
O308 C318 1.258 . S
C309 O306 1.267 . S
C309 O310 1.228 . S
O310 C309 1.228 . S
O311 Zn300 2.024 . S
O311 C302 1.058 . S
C312 O313 1.228 . S
C312 O314 1.267 . S
O313 C312 1.228 . S
O314 Zn301 1.969 . S
O314 C312 1.267 . S
O315 Zn301 1.965 . S
O315 C319 1.260 . S
O316 Zn300 1.969 . S
O316 C319 1.258 . S
O317 Zn301 2.024 . S
O317 C304 1.058 . S
C318 O307 1.260 . S
C318 O308 1.258 . S
C319 O315 1.260 . S
C319 O316 1.258 . S
C320 C321 1.387 1_545 S
C320 H324 0.950 . S
C320 C329 1.390 . S
C321 C320 1.387 1_565 S
C321 C323 1.387 1_565 S
H322 C329 0.950 . S
C323 C321 1.387 1_545 S
C323 C325 1.390 . S
C323 H327 0.950 1_545 S
H324 C320 0.950 . S
C325 C323 1.390 . S
C325 C326 1.387 . S
C325 H328 0.950 . S
C326 C325 1.387 . S
C326 C329 1.387 . S
H327 C323 0.950 1_565 S
H328 C325 0.950 . S
C329 C320 1.390 . S
C329 H322 0.950 . S
C329 C326 1.387 . S
C330 C331 1.387 1_455 S
C330 H334 0.950 1_455 S
C330 C339 1.390 . S
C331 C330 1.387 1_655 S
C331 C333 1.387 1_655 S
H332 C339 0.950 . S
C333 C331 1.387 1_455 S
C333 C335 1.390 . S
C333 H337 0.950 . S
H334 C330 0.950 1_655 S
C335 C333 1.390 . S
C335 C336 1.387 . S
C335 H338 0.950 . S
C336 C335 1.387 . S
C336 C339 1.387 . S
H337 C333 0.950 . S
H338 C335 0.950 . S
C339 C330 1.390 . S
C339 H332 0.950 . S
C339 C336 1.387 . S
C340 C341 1.387 . S
C340 H344 0.950 . S
C340 C349 1.390 . S
C341 C340 1.387 . S
C341 C343 1.387 . S
H342 C349 0.950 1_545 S
C343 C341 1.387 . S
C343 C345 1.390 . S
C343 H347 0.950 . S
H344 C340 0.950 . S
C345 C343 1.390 . S
C345 C346 1.387 1_565 S
C345 H348 0.950 . S
C346 C345 1.387 1_545 S
C346 C349 1.387 1_545 S
H347 C343 0.950 . S
H348 C345 0.950 . S
C349 C340 1.390 . S
C349 H342 0.950 1_565 S
C349 C346 1.387 1_565 S
C350 C351 1.387 . S
C350 H354 0.950 . S
C350 C359 1.390 . S
C351 C350 1.387 . S
C351 C353 1.387 . S
H352 C359 0.950 . S
C353 C351 1.387 . S
C353 C355 1.390 . S
C353 H357 0.950 . S
H354 C350 0.950 . S
C355 C353 1.390 . S
C355 C356 1.387 1_655 S
C355 H358 0.950 1_655 S
C356 C355 1.387 1_455 S
C356 C359 1.387 1_455 S
H357 C353 0.950 . S
H358 C355 0.950 1_455 S
C359 C350 1.390 . S
C359 H352 0.950 . S
C359 C356 1.387 1_655 S
C360 C361 1.387 1_556 S
C360 H364 0.950 . S
C360 C369 1.390 . S
C361 C360 1.387 1_554 S
C361 C363 1.387 . S
H362 C369 0.950 . S
C363 C361 1.387 . S
C363 C365 1.390 . S
C363 H367 0.950 . S
H364 C360 0.950 . S
C365 C363 1.390 . S
C365 C366 1.387 . S
C365 H368 0.950 . S
C366 C365 1.387 . S
C366 C369 1.387 1_554 S
H367 C363 0.950 . S
H368 C365 0.950 . S
C369 C360 1.390 . S
C369 H362 0.950 . S
C369 C366 1.387 1_556 S
C370 C371 1.387 1_554 S
C370 H374 0.950 . S
C370 C379 1.390 1_554 S
C371 C370 1.387 1_556 S
C371 C373 1.387 . S
H372 C379 0.950 1_554 S
C373 C371 1.387 . S
C373 C375 1.390 . S
C373 H377 0.950 . S
H374 C370 0.950 . S
C375 C373 1.390 . S
C375 C376 1.387 . S
C375 H378 0.950 . S
C376 C375 1.387 . S
C376 C379 1.387 . S
H377 C373 0.950 . S
H378 C375 0.950 . S
C379 C370 1.390 1_556 S
C379 H372 0.950 1_556 S
C379 C376 1.387 . S
C380 C381 1.387 . S
C380 H384 0.950 . S
C380 C389 1.390 . S
C381 C380 1.387 . S
C381 C383 1.387 . S
H382 C389 0.950 . S
C383 C381 1.387 . S
C383 C385 1.390 . S
C383 H387 0.950 . S
H384 C380 0.950 . S
C385 C383 1.390 . S
C385 C386 1.387 . S
C385 H388 0.950 . S
C386 C385 1.387 . S
C386 C389 1.387 . S
H387 C383 0.950 . S
H388 C385 0.950 . S
C389 C380 1.390 . S
C389 H382 0.950 . S
C389 C386 1.387 . S
C390 C391 1.387 . S
C390 H394 0.950 . S
C390 C399 1.390 . S
C391 C390 1.387 . S
C391 C393 1.387 1_556 S
H392 C399 0.950 . S
C393 C391 1.387 1_554 S
C393 C395 1.390 1_554 S
C393 H397 0.950 . S
H394 C390 0.950 . S
C395 C393 1.390 1_556 S
C395 C396 1.387 . S
C395 H398 0.950 1_556 S
C396 C395 1.387 . S
C396 C399 1.387 . S
H397 C393 0.950 . S
H398 C395 0.950 1_554 S
C399 C390 1.390 . S
C399 H392 0.950 . S
C399 C396 1.387 . S
C400 C401 1.387 . S
C400 H404 0.950 . S
C400 C409 1.390 . S
C401 C400 1.387 . S
C401 C403 1.387 . S
H402 C409 0.950 . S
C403 C401 1.387 . S
C403 C405 1.390 . S
C403 H407 0.950 . S
H404 C400 0.950 . S
C405 C403 1.390 . S
C405 C406 1.387 . S
C405 H408 0.950 . S
C406 C405 1.387 . S
C406 C409 1.387 . S
H407 C403 0.950 . S
H408 C405 0.950 . S
C409 C400 1.390 . S
C409 H402 0.950 . S
C409 C406 1.387 . S
C410 C411 1.387 . S
C410 H414 0.950 . S
C410 C419 1.390 . S
C411 C410 1.387 . S
C411 C413 1.387 . S
H412 C419 0.950 . S
C413 C411 1.387 . S
C413 C415 1.390 . S
C413 H417 0.950 . S
H414 C410 0.950 . S
C415 C413 1.390 . S
C415 C416 1.387 . S
C415 H418 0.950 . S
C416 C415 1.387 . S
C416 C419 1.387 . S
H417 C413 0.950 . S
H418 C415 0.950 . S
C419 C410 1.390 . S
C419 H412 0.950 . S
C419 C416 1.387 . S
C420 C421 1.387 . S
C420 H424 0.950 . S
C420 C429 1.390 . S
C421 C420 1.387 . S
C421 C423 1.387 . S
H422 C429 0.950 . S
C423 C421 1.387 . S
C423 C425 1.390 . S
C423 H427 0.950 . S
H424 C420 0.950 . S
C425 C423 1.390 . S
C425 C426 1.387 . S
C425 H428 0.950 . S
C426 C425 1.387 . S
C426 C429 1.387 . S
H427 C423 0.950 . S
H428 C425 0.950 . S
C429 C420 1.390 . S
C429 H422 0.950 . S
C429 C426 1.387 . S
C430 C431 1.387 . S
C430 H434 0.950 . S
C430 C439 1.390 . S
C431 C430 1.387 . S
C431 C433 1.387 . S
H432 C439 0.950 . S
C433 C431 1.387 . S
C433 C435 1.390 . S
C433 H437 0.950 . S
H434 C430 0.950 . S
C435 C433 1.390 . S
C435 C436 1.387 . S
C435 H438 0.950 . S
C436 C435 1.387 . S
C436 C439 1.387 . S
H437 C433 0.950 . S
H438 C435 0.950 . S
C439 C430 1.390 . S
C439 H432 0.950 . S
C439 C436 1.387 . S
C440 C441 1.387 . S
C440 H444 0.950 . S
C440 C449 1.390 . S
C441 C440 1.387 . S
C441 C443 1.387 . S
H442 C449 0.950 1_545 S
C443 C441 1.387 . S
C443 C445 1.390 . S
C443 H447 0.950 . S
H444 C440 0.950 . S
C445 C443 1.390 . S
C445 C446 1.387 1_565 S
C445 H448 0.950 . S
C446 C445 1.387 1_545 S
C446 C449 1.387 1_545 S
H447 C443 0.950 . S
H448 C445 0.950 . S
C449 C440 1.390 . S
C449 H442 0.950 1_565 S
C449 C446 1.387 1_565 S
C450 C451 1.387 1_655 S
C450 H454 0.950 1_655 S
C450 C459 1.390 . S
C451 C450 1.387 1_455 S
C451 C453 1.387 1_455 S
H452 C459 0.950 . S
C453 C451 1.387 1_655 S
C453 C455 1.390 . S
C453 H457 0.950 . S
H454 C450 0.950 1_455 S
C455 C453 1.390 . S
C455 C456 1.387 . S
C455 H458 0.950 . S
C456 C455 1.387 . S
C456 C459 1.387 . S
H457 C453 0.950 . S
H458 C455 0.950 . S
C459 C450 1.390 . S
C459 H452 0.950 . S
C459 C456 1.387 . S
C460 C461 1.387 1_545 S
C460 H464 0.950 . S
C460 C469 1.390 . S
C461 C460 1.387 1_565 S
C461 C463 1.387 1_565 S
H462 C469 0.950 . S
C463 C461 1.387 1_545 S
C463 C465 1.390 . S
C463 H467 0.950 1_545 S
H464 C460 0.950 . S
C465 C463 1.390 . S
C465 C466 1.387 . S
C465 H468 0.950 . S
C466 C465 1.387 . S
C466 C469 1.387 . S
H467 C463 0.950 1_565 S
H468 C465 0.950 . S
C469 C460 1.390 . S
C469 H462 0.950 . S
C469 C466 1.387 . S
C470 C471 1.387 . S
C470 H474 0.950 . S
C470 C479 1.390 . S
C471 C470 1.387 . S
C471 C473 1.387 . S
H472 C479 0.950 1_655 S
C473 C471 1.387 . S
C473 C475 1.390 . S
C473 H477 0.950 . S
H474 C470 0.950 . S
C475 C473 1.390 . S
C475 C476 1.387 1_455 S
C475 H478 0.950 . S
C476 C475 1.387 1_655 S
C476 C479 1.387 1_655 S
H477 C473 0.950 . S
H478 C475 0.950 . S
C479 C470 1.390 . S
C479 H472 0.950 1_455 S
C479 C476 1.387 1_455 S
C480 C481 1.387 . S
C480 H484 0.950 . S
C480 C489 1.390 . S
C481 C480 1.387 . S
C481 C483 1.387 . S
H482 C489 0.950 . S
C483 C481 1.387 . S
C483 C485 1.390 . S
C483 H487 0.950 . S
H484 C480 0.950 . S
C485 C483 1.390 . S
C485 C486 1.387 . S
C485 H488 0.950 . S
C486 C485 1.387 . S
C486 C489 1.387 . S
H487 C483 0.950 . S
H488 C485 0.950 . S
C489 C480 1.390 . S
C489 H482 0.950 . S
C489 C486 1.387 . S
C490 C491 1.387 . S
C490 H494 0.950 . S
C490 C499 1.390 . S
C491 C490 1.387 . S
C491 C493 1.387 . S
H492 C499 0.950 . S
C493 C491 1.387 . S
C493 C495 1.390 . S
C493 H497 0.950 . S
H494 C490 0.950 . S
C495 C493 1.390 . S
C495 C496 1.387 . S
C495 H498 0.950 . S
C496 C495 1.387 . S
C496 C499 1.387 . S
H497 C493 0.950 . S
H498 C495 0.950 . S
C499 C490 1.390 . S
C499 H492 0.950 . S
C499 C496 1.387 . S
C500 C501 1.387 . S
C500 H504 0.950 . S
C500 C509 1.390 . S
C501 C500 1.387 . S
C501 C503 1.387 . S
H502 C509 0.950 . S
C503 C501 1.387 . S
C503 C505 1.390 . S
C503 H507 0.950 . S
H504 C500 0.950 . S
C505 C503 1.390 . S
C505 C506 1.387 . S
C505 H508 0.950 . S
C506 C505 1.387 . S
C506 C509 1.387 . S
H507 C503 0.950 . S
H508 C505 0.950 . S
C509 C500 1.390 . S
C509 H502 0.950 . S
C509 C506 1.387 . S
C510 C511 1.387 . S
C510 H514 0.950 . S
C510 C519 1.390 . S
C511 C510 1.387 . S
C511 C513 1.387 . S
H512 C519 0.950 . S
C513 C511 1.387 . S
C513 C515 1.390 . S
C513 H517 0.950 . S
H514 C510 0.950 . S
C515 C513 1.390 . S
C515 C516 1.387 . S
C515 H518 0.950 . S
C516 C515 1.387 . S
C516 C519 1.387 . S
H517 C513 0.950 . S
H518 C515 0.950 . S
C519 C510 1.390 . S
C519 H512 0.950 . S
C519 C516 1.387 . S
C520 C521 1.387 . S
C520 H524 0.950 . S
C520 C529 1.390 . S
C521 C520 1.387 . S
C521 C523 1.387 . S
H522 C529 0.950 . S
C523 C521 1.387 . S
C523 C525 1.390 . S
C523 H527 0.950 . S
H524 C520 0.950 . S
C525 C523 1.390 . S
C525 C526 1.387 . S
C525 H528 0.950 . S
C526 C525 1.387 . S
C526 C529 1.387 . S
H527 C523 0.950 . S
H528 C525 0.950 . S
C529 C520 1.390 . S
C529 H522 0.950 . S
C529 C526 1.387 . S
C530 C531 1.387 . S
C530 H534 0.950 . S
C530 C539 1.390 . S
C531 C530 1.387 . S
C531 C533 1.387 . S
H532 C539 0.950 . S
C533 C531 1.387 . S
C533 C535 1.390 . S
C533 H537 0.950 . S
H534 C530 0.950 . S
C535 C533 1.390 . S
C535 C536 1.387 . S
C535 H538 0.950 . S
C536 C535 1.387 . S
C536 C539 1.387 . S
H537 C533 0.950 . S
H538 C535 0.950 . S
C539 C530 1.390 . S
C539 H532 0.950 . S
C539 C536 1.387 . S
C540 C541 1.387 . S
C540 H544 0.950 . S
C540 C549 1.390 . S
C541 C540 1.387 . S
C541 C543 1.387 . S
H542 C549 0.950 . S
C543 C541 1.387 . S
C543 C545 1.390 . S
C543 H547 0.950 . S
H544 C540 0.950 . S
C545 C543 1.390 . S
C545 C546 1.387 . S
C545 H548 0.950 . S
C546 C545 1.387 . S
C546 C549 1.387 . S
H547 C543 0.950 . S
H548 C545 0.950 . S
C549 C540 1.390 . S
C549 H542 0.950 . S
C549 C546 1.387 . S
C550 C551 1.387 . S
C550 H554 0.950 . S
C550 C559 1.390 . S
C551 C550 1.387 . S
C551 C553 1.387 . S
H552 C559 0.950 . S
C553 C551 1.387 . S
C553 C555 1.390 . S
C553 H557 0.950 . S
H554 C550 0.950 . S
C555 C553 1.390 . S
C555 C556 1.387 . S
C555 H558 0.950 . S
C556 C555 1.387 . S
C556 C559 1.387 . S
H557 C553 0.950 . S
H558 C555 0.950 . S
C559 C550 1.390 . S
C559 H552 0.950 . S
C559 C556 1.387 . S
C560 C561 1.387 . S
C560 H564 0.950 . S
C560 C569 1.390 . S
C561 C560 1.387 . S
C561 C563 1.387 . S
H562 C569 0.950 . S
C563 C561 1.387 . S
C563 C565 1.390 . S
C563 H567 0.950 . S
H564 C560 0.950 . S
C565 C563 1.390 . S
C565 C566 1.387 . S
C565 H568 0.950 . S
C566 C565 1.387 . S
C566 C569 1.387 . S
H567 C563 0.950 . S
H568 C565 0.950 . S
C569 C560 1.390 . S
C569 H562 0.950 . S
C569 C566 1.387 . S
C570 C571 1.387 . S
C570 H574 0.950 . S
C570 C579 1.390 . S
C571 C570 1.387 . S
C571 C573 1.387 . S
H572 C579 0.950 . S
C573 C571 1.387 . S
C573 C575 1.390 . S
C573 H577 0.950 . S
H574 C570 0.950 . S
C575 C573 1.390 . S
C575 C576 1.387 . S
C575 H578 0.950 . S
C576 C575 1.387 . S
C576 C579 1.387 . S
H577 C573 0.950 . S
H578 C575 0.950 . S
C579 C570 1.390 . S
C579 H572 0.950 . S
C579 C576 1.387 . S
C580 C581 1.387 . S
C580 H584 0.950 . S
C580 C589 1.390 . S
C581 C580 1.387 . S
C581 C583 1.387 . S
H582 C589 0.950 . S
C583 C581 1.387 . S
C583 C585 1.390 . S
C583 H587 0.950 . S
H584 C580 0.950 . S
C585 C583 1.390 . S
C585 C586 1.387 . S
C585 H588 0.950 . S
C586 C585 1.387 . S
C586 C589 1.387 . S
H587 C583 0.950 . S
H588 C585 0.950 . S
C589 C580 1.390 . S
C589 H582 0.950 . S
C589 C586 1.387 . S
C590 C591 1.387 . S
C590 H594 0.950 . S
C590 C599 1.390 . S
C591 C590 1.387 . S
C591 C593 1.387 . S
H592 C599 0.950 . S
C593 C591 1.387 . S
C593 C595 1.390 . S
C593 H597 0.950 . S
H594 C590 0.950 . S
C595 C593 1.390 . S
C595 C596 1.387 . S
C595 H598 0.950 . S
C596 C595 1.387 . S
C596 C599 1.387 . S
H597 C593 0.950 . S
H598 C595 0.950 . S
C599 C590 1.390 . S
C599 H592 0.950 . S
C599 C596 1.387 . S
C600 C601 1.387 . S
C600 H604 0.950 . S
C600 C609 1.390 . S
C601 C600 1.387 . S
C601 C603 1.387 . S
H602 C609 0.950 . S
C603 C601 1.387 . S
C603 C605 1.390 . S
C603 H607 0.950 . S
H604 C600 0.950 . S
C605 C603 1.390 . S
C605 C606 1.387 . S
C605 H608 0.950 . S
C606 C605 1.387 . S
C606 C609 1.387 . S
H607 C603 0.950 . S
H608 C605 0.950 . S
C609 C600 1.390 . S
C609 H602 0.950 . S
C609 C606 1.387 . S
C610 C611 1.387 . S
C610 H614 0.950 . S
C610 C619 1.390 . S
C611 C610 1.387 . S
C611 C613 1.387 . S
H612 C619 0.950 . S
C613 C611 1.387 . S
C613 C615 1.390 . S
C613 H617 0.950 . S
H614 C610 0.950 . S
C615 C613 1.390 . S
C615 C616 1.387 . S
C615 H618 0.950 . S
C616 C615 1.387 . S
C616 C619 1.387 . S
H617 C613 0.950 . S
H618 C615 0.950 . S
C619 C610 1.390 . S
C619 H612 0.950 . S
C619 C616 1.387 . S
C620 C621 1.387 . S
C620 H624 0.950 . S
C620 C629 1.390 . S
C621 C620 1.387 . S
C621 C623 1.387 . S
H622 C629 0.950 . S
C623 C621 1.387 . S
C623 C625 1.390 . S
C623 H627 0.950 . S
H624 C620 0.950 . S
C625 C623 1.390 . S
C625 C626 1.387 . S
C625 H628 0.950 . S
C626 C625 1.387 . S
C626 C629 1.387 . S
H627 C623 0.950 . S
H628 C625 0.950 . S
C629 C620 1.390 . S
C629 H622 0.950 . S
C629 C626 1.387 . S
C630 C631 1.387 . S
C630 H634 0.950 . S
C630 C639 1.390 . S
C631 C630 1.387 . S
C631 C633 1.387 . S
H632 C639 0.950 . S
C633 C631 1.387 . S
C633 C635 1.390 . S
C633 H637 0.950 . S
H634 C630 0.950 . S
C635 C633 1.390 . S
C635 C636 1.387 . S
C635 H638 0.950 . S
C636 C635 1.387 . S
C636 C639 1.387 . S
H637 C633 0.950 . S
H638 C635 0.950 . S
C639 C630 1.390 . S
C639 H632 0.950 . S
C639 C636 1.387 . S
C640 C641 1.387 . S
C640 H644 0.950 . S
C640 C649 1.390 . S
C641 C640 1.387 . S
C641 C643 1.387 . S
H642 C649 0.950 . S
C643 C641 1.387 . S
C643 C645 1.390 . S
C643 H647 0.950 . S
H644 C640 0.950 . S
C645 C643 1.390 . S
C645 C646 1.387 . S
C645 H648 0.950 . S
C646 C645 1.387 . S
C646 C649 1.387 . S
H647 C643 0.950 . S
H648 C645 0.950 . S
C649 C640 1.390 . S
C649 H642 0.950 . S
C649 C646 1.387 . S
C650 C651 1.387 . S
C650 H654 0.950 . S
C650 C659 1.390 . S
C651 C650 1.387 . S
C651 C653 1.387 . S
H652 C659 0.950 . S
C653 C651 1.387 . S
C653 C655 1.390 . S
C653 H657 0.950 . S
H654 C650 0.950 . S
C655 C653 1.390 . S
C655 C656 1.387 . S
C655 H658 0.950 . S
C656 C655 1.387 . S
C656 C659 1.387 . S
H657 C653 0.950 . S
H658 C655 0.950 . S
C659 C650 1.390 . S
C659 H652 0.950 . S
C659 C656 1.387 . S
C660 C661 1.387 . S
C660 H664 0.950 . S
C660 C669 1.390 . S
C661 C660 1.387 . S
C661 C663 1.387 . S
H662 C669 0.950 . S
C663 C661 1.387 . S
C663 C665 1.390 . S
C663 H667 0.950 . S
H664 C660 0.950 . S
C665 C663 1.390 . S
C665 C666 1.387 . S
C665 H668 0.950 . S
C666 C665 1.387 . S
C666 C669 1.387 . S
H667 C663 0.950 . S
H668 C665 0.950 . S
C669 C660 1.390 . S
C669 H662 0.950 . S
C669 C666 1.387 . S
C670 C671 1.387 . S
C670 H674 0.950 . S
C670 C679 1.390 . S
C671 C670 1.387 . S
C671 C673 1.387 . S
H672 C679 0.950 . S
C673 C671 1.387 . S
C673 C675 1.390 . S
C673 H677 0.950 . S
H674 C670 0.950 . S
C675 C673 1.390 . S
C675 C676 1.387 . S
C675 H678 0.950 . S
C676 C675 1.387 . S
C676 C679 1.387 . S
H677 C673 0.950 . S
H678 C675 0.950 . S
C679 C670 1.390 . S
C679 H672 0.950 . S
C679 C676 1.387 . S
C680 C681 1.387 . S
C680 H684 0.950 . S
C680 C689 1.390 . S
C681 C680 1.387 . S
C681 C683 1.387 . S
H682 C689 0.950 . S
C683 C681 1.387 . S
C683 C685 1.390 . S
C683 H687 0.950 . S
H684 C680 0.950 . S
C685 C683 1.390 . S
C685 C686 1.387 . S
C685 H688 0.950 . S
C686 C685 1.387 . S
C686 C689 1.387 . S
H687 C683 0.950 . S
H688 C685 0.950 . S
C689 C680 1.390 . S
C689 H682 0.950 . S
C689 C686 1.387 . S
C690 C691 1.387 . S
C690 H694 0.950 . S
C690 C699 1.390 . S
C691 C690 1.387 . S
C691 C693 1.387 . S
H692 C699 0.950 . S
C693 C691 1.387 . S
C693 C695 1.390 . S
C693 H697 0.950 . S
H694 C690 0.950 . S
C695 C693 1.390 . S
C695 C696 1.387 . S
C695 H698 0.950 . S
C696 C695 1.387 . S
C696 C699 1.387 . S
H697 C693 0.950 . S
H698 C695 0.950 . S
C699 C690 1.390 . S
C699 H692 0.950 . S
C699 C696 1.387 . S
C700 C701 1.387 . S
C700 H704 0.950 . S
C700 C709 1.390 . S
C701 C700 1.387 . S
C701 C703 1.387 . S
H702 C709 0.950 . S
C703 C701 1.387 . S
C703 C705 1.390 . S
C703 H707 0.950 . S
H704 C700 0.950 . S
C705 C703 1.390 . S
C705 C706 1.387 . S
C705 H708 0.950 . S
C706 C705 1.387 . S
C706 C709 1.387 . S
H707 C703 0.950 . S
H708 C705 0.950 . S
C709 C700 1.390 . S
C709 H702 0.950 . S
C709 C706 1.387 . S
C710 C711 1.387 . S
C710 H714 0.950 . S
C710 C719 1.390 . S
C711 C710 1.387 . S
C711 C713 1.387 . S
H712 C719 0.950 . S
C713 C711 1.387 . S
C713 C715 1.390 . S
C713 H717 0.950 . S
H714 C710 0.950 . S
C715 C713 1.390 . S
C715 C716 1.387 . S
C715 H718 0.950 . S
C716 C715 1.387 . S
C716 C719 1.387 . S
H717 C713 0.950 . S
H718 C715 0.950 . S
C719 C710 1.390 . S
C719 H712 0.950 . S
C719 C716 1.387 . S
C720 C721 1.387 . S
C720 H724 0.950 . S
C720 C729 1.390 . S
C721 C720 1.387 . S
C721 C723 1.387 . S
H722 C729 0.950 . S
C723 C721 1.387 . S
C723 C725 1.390 . S
C723 H727 0.950 . S
H724 C720 0.950 . S
C725 C723 1.390 . S
C725 C726 1.387 . S
C725 H728 0.950 . S
C726 C725 1.387 . S
C726 C729 1.387 . S
H727 C723 0.950 . S
H728 C725 0.950 . S
C729 C720 1.390 . S
C729 H722 0.950 . S
C729 C726 1.387 . S
C730 C731 1.387 . S
C730 H734 0.950 . S
C730 C739 1.390 . S
C731 C730 1.387 . S
C731 C733 1.387 . S
H732 C739 0.950 . S
C733 C731 1.387 . S
C733 C735 1.390 . S
C733 H737 0.950 . S
H734 C730 0.950 . S
C735 C733 1.390 . S
C735 C736 1.387 . S
C735 H738 0.950 . S
C736 C735 1.387 . S
C736 C739 1.387 . S
H737 C733 0.950 . S
H738 C735 0.950 . S
C739 C730 1.390 . S
C739 H732 0.950 . S
C739 C736 1.387 . S
C740 C741 1.387 . S
C740 H744 0.950 . S
C740 C749 1.390 . S
C741 C740 1.387 . S
C741 C743 1.387 . S
H742 C749 0.950 . S
C743 C741 1.387 . S
C743 C745 1.390 . S
C743 H747 0.950 . S
H744 C740 0.950 . S
C745 C743 1.390 . S
C745 C746 1.387 . S
C745 H748 0.950 . S
C746 C745 1.387 . S
C746 C749 1.387 . S
H747 C743 0.950 . S
H748 C745 0.950 . S
C749 C740 1.390 . S
C749 H742 0.950 . S
C749 C746 1.387 . S
C750 C751 1.387 . S
C750 H754 0.950 . S
C750 C759 1.390 . S
C751 C750 1.387 . S
C751 C753 1.387 . S
H752 C759 0.950 . S
C753 C751 1.387 . S
C753 C755 1.390 . S
C753 H757 0.950 . S
H754 C750 0.950 . S
C755 C753 1.390 . S
C755 C756 1.387 . S
C755 H758 0.950 . S
C756 C755 1.387 . S
C756 C759 1.387 . S
H757 C753 0.950 . S
H758 C755 0.950 . S
C759 C750 1.390 . S
C759 H752 0.950 . S
C759 C756 1.387 . S
C760 C761 1.387 . S
C760 H764 0.950 . S
C760 C769 1.390 . S
C761 C760 1.387 . S
C761 C763 1.387 . S
H762 C769 0.950 . S
C763 C761 1.387 . S
C763 C765 1.390 . S
C763 H767 0.950 . S
H764 C760 0.950 . S
C765 C763 1.390 . S
C765 C766 1.387 . S
C765 H768 0.950 . S
C766 C765 1.387 . S
C766 C769 1.387 . S
H767 C763 0.950 . S
H768 C765 0.950 . S
C769 C760 1.390 . S
C769 H762 0.950 . S
C769 C766 1.387 . S
C770 C771 1.387 . S
C770 H774 0.950 . S
C770 C779 1.390 . S
C771 C770 1.387 . S
C771 C773 1.387 . S
H772 C779 0.950 . S
C773 C771 1.387 . S
C773 C775 1.390 . S
C773 H777 0.950 . S
H774 C770 0.950 . S
C775 C773 1.390 . S
C775 C776 1.387 . S
C775 H778 0.950 . S
C776 C775 1.387 . S
C776 C779 1.387 . S
H777 C773 0.950 . S
H778 C775 0.950 . S
C779 C770 1.390 . S
C779 H772 0.950 . S
C779 C776 1.387 . S
C780 C781 1.387 . S
C780 H784 0.950 . S
C780 C789 1.390 . S
C781 C780 1.387 . S
C781 C783 1.387 . S
H782 C789 0.950 . S
C783 C781 1.387 . S
C783 C785 1.390 . S
C783 H787 0.950 . S
H784 C780 0.950 . S
C785 C783 1.390 . S
C785 C786 1.387 . S
C785 H788 0.950 . S
C786 C785 1.387 . S
C786 C789 1.387 . S
H787 C783 0.950 . S
H788 C785 0.950 . S
C789 C780 1.390 . S
C789 H782 0.950 . S
C789 C786 1.387 . S
C790 C791 1.387 . S
C790 H794 0.950 . S
C790 C799 1.390 . S
C791 C790 1.387 . S
C791 C793 1.387 . S
H792 C799 0.950 . S
C793 C791 1.387 . S
C793 C795 1.390 . S
C793 H797 0.950 . S
H794 C790 0.950 . S
C795 C793 1.390 . S
C795 C796 1.387 . S
C795 H798 0.950 . S
C796 C795 1.387 . S
C796 C799 1.387 . S
H797 C793 0.950 . S
H798 C795 0.950 . S
C799 C790 1.390 . S
C799 H792 0.950 . S
C799 C796 1.387 . S
C321 C222 1.546 . S
C326 C19 1.560 . S
C331 C164 1.545 . S
C336 C38 1.559 . S
C341 C59 1.558 . S
C346 C182 1.547 . S
C351 C78 1.558 . S
C356 C204 1.546 . S
C361 C99 1.560 . S
C366 C102 1.546 . S
C371 C124 1.545 . S
C376 C118 1.558 . S
C381 C139 1.559 . S
C386 C142 1.547 . S
C391 C84 1.547 . S
C396 C158 1.559 . S
C401 C62 1.547 . S
C406 C179 1.560 . S
C411 C198 1.558 . S
C416 C4 1.545 . S
C421 C22 1.547 . S
C426 C219 1.560 . S
C431 C44 1.545 . S
C436 C238 1.559 . S
C441 C259 1.558 . S
C446 C262 1.546 . S
C451 C284 1.547 . S
C456 C278 1.559 . S
C461 C302 1.545 . S
C466 C299 1.560 . S
C471 C318 1.558 . S
C476 C244 1.545 . S
C481 C18 1.521 . S
C486 C98 1.521 . S
C491 C119 1.519 . S
C496 C39 1.519 . S
C501 C58 1.519 . S
C506 C138 1.519 . S
C511 C79 1.521 . S
C516 C159 1.521 . S
C521 C178 1.519 . S
C526 C258 1.519 . S
C531 C279 1.519 . S
C536 C199 1.519 . S
C541 C218 1.519 . S
C546 C298 1.519 . S
C551 C239 1.521 . S
C556 C319 1.521 . S
C561 C282 1.466 . S
C566 C2 1.466 . S
C571 C24 1.466 . S
C576 C304 1.466 . S
C581 C42 1.466 . S
C586 C242 1.466 . S
C591 C64 1.461 . S
C596 C264 1.461 . S
C601 C82 1.461 . S
C606 C202 1.461 . S
C611 C104 1.466 . S
C616 C224 1.466 . S
C621 C122 1.466 . S
C626 C162 1.466 . S
C631 C184 1.466 . S
C636 C144 1.466 . S
C641 C12 1.337 . S
C646 C9 1.337 . S
C651 C29 1.338 . S
C656 C32 1.338 . S
C661 C52 1.339 . S
C666 C49 1.339 . S
C671 C72 1.338 . S
C676 C69 1.338 . S
C681 C89 1.338 . S
C686 C92 1.338 . S
C691 C109 1.338 . S
C696 C112 1.338 . S
C701 C132 1.339 . S
C706 C129 1.339 . S
C711 C152 1.337 . S
C716 C149 1.337 . S
C721 C172 1.337 1_554 S
C726 C169 1.337 . S
C731 C192 1.337 . S
C736 C189 1.337 1_556 S
C741 C209 1.339 . S
C746 C212 1.339 1_554 S
C751 C229 1.338 1_556 S
C756 C232 1.338 . S
C761 C252 1.337 . S
C766 C249 1.337 1_554 S
C771 C272 1.338 1_556 S
C776 C269 1.338 . S
C781 C289 1.338 1_554 S
C786 C292 1.338 . S
C791 C309 1.339 . S
C796 C312 1.339 1_556 S
