# Generated by pormake.
# Topology uoo, (4)-cn, num edge types: 1
# Building blocks:
#     Node 0, Type 0, BuildingBlock: GALJAG_clean_sbu_0, # of connection points: 4
#     Node 1, Type 0, BuildingBlock: GALJAG_clean_sbu_0, # of connection points: 4
#     Node 2, Type 0, BuildingBlock: GALJAG_clean_sbu_0, # of connection points: 4
#     Node 3, Type 0, BuildingBlock: GALJAG_clean_sbu_0, # of connection points: 4
#     Node 4, Type 0, BuildingBlock: GALJAG_clean_sbu_0, # of connection points: 4
#     Node 5, Type 0, BuildingBlock: GALJAG_clean_sbu_0, # of connection points: 4
#     Edge 6, Type (0, 0), BuildingBlock: XUDNAN_clean_linker_2, # of connection points: 2
#     Edge 7, Type (0, 0), BuildingBlock: XUDNAN_clean_linker_2, # of connection points: 2
#     Edge 8, Type (0, 0), BuildingBlock: XUDNAN_clean_linker_2, # of connection points: 2
#     Edge 9, Type (0, 0), BuildingBlock: XUDNAN_clean_linker_2, # of connection points: 2
#     Edge 10, Type (0, 0), BuildingBlock: XUDNAN_clean_linker_2, # of connection points: 2
#     Edge 11, Type (0, 0), BuildingBlock: XUDNAN_clean_linker_2, # of connection points: 2
#     Edge 12, Type (0, 0), BuildingBlock: XUDNAN_clean_linker_2, # of connection points: 2
#     Edge 13, Type (0, 0), BuildingBlock: XUDNAN_clean_linker_2, # of connection points: 2
#     Edge 14, Type (0, 0), BuildingBlock: XUDNAN_clean_linker_2, # of connection points: 2
#     Edge 15, Type (0, 0), BuildingBlock: XUDNAN_clean_linker_2, # of connection points: 2
#     Edge 16, Type (0, 0), BuildingBlock: XUDNAN_clean_linker_2, # of connection points: 2
#     Edge 17, Type (0, 0), BuildingBlock: XUDNAN_clean_linker_2, # of connection points: 2
# Relax obj value: 0.098
# Max RMSD: 0.113
# Mean RMSD: 0.113
data_MOF--net-uoo--node1-GALJAG_clean_sbu_0--edge1-XUDNAN_clean_linker_2
_symmetry_space_group_name_H-M    P1
_symmetry_Int_Tables_number       1
_symmetry_cell_setting            triclinic
loop_
_symmetry_equiv_pos_as_xyz
'x, y, z'
_cell_length_a     25.371464
_cell_length_b     25.378754
_cell_length_c     38.860462
_cell_angle_alpha  89.997927
_cell_angle_beta   89.958351
_cell_angle_gamma 119.9413
loop_
_atom_site_label
_atom_site_type_symbol
_atom_site_fract_x
_atom_site_fract_y
_atom_site_fract_z
_atom_type_partial_charge
In0 In 0.15546 0.31588 0.01709 0.0
O1 O 0.14843 0.25607 0.06313 0.0
O2 O 0.07495 0.2715 0.05394 0.0
C3 C 0.14789 0.25754 0.95752 0.0
C4 C 0.11641 0.39545 0.00376 0.0
C5 C 0.27332 0.37856 0.03602 0.0
O6 O 0.11954 0.22913 0.98417 0.0
O7 O 0.17766 0.31442 0.96081 0.0
O8 O 0.25336 0.33547 0.01461 0.0
O9 O 0.23342 0.38877 0.04871 0.0
C10 C 0.09716 0.24712 0.07277 0.0
O11 O 0.17095 0.41175 0.01064 0.0
O12 O 0.08118 0.33864 0.00303 0.0
In13 In 0.84882 0.17406 0.3525 0.0
O14 O 0.83054 0.0929 0.38627 0.0
O15 O 0.89628 0.18098 0.40348 0.0
C16 C 0.89607 0.15404 0.29468 0.0
C17 C 0.72806 0.13142 0.34424 0.0
C18 C 0.90257 0.29414 0.36613 0.0
O19 O 0.91525 0.15223 0.32431 0.0
O20 O 0.85263 0.16464 0.29436 0.0
O21 O 0.85742 0.25465 0.38288 0.0
O22 O 0.92075 0.27312 0.34238 0.0
C23 C 0.86774 0.12466 0.40945 0.0
O24 O 0.76817 0.18486 0.33653 0.0
O25 O 0.74865 0.09907 0.35614 0.0
In26 In 0.69009 0.83587 0.6766 0.0
O27 O 0.61192 0.73869 0.68599 0.0
O28 O 0.69066 0.75072 0.65963 0.0
C29 C 0.60091 0.86482 0.67351 0.0
C30 C 0.74954 0.85249 0.73687 0.0
C31 C 0.76501 0.90474 0.62506 0.0
O32 O 0.61073 0.83683 0.64986 0.0
O33 O 0.63497 0.87683 0.69941 0.0
O34 O 0.77387 0.92236 0.65592 0.0
O35 O 0.71985 0.85266 0.62065 0.0
C36 C 0.63862 0.71402 0.67135 0.0
O37 O 0.74826 0.81716 0.71368 0.0
O38 O 0.7222 0.88102 0.72937 0.0
In39 In 0.83869 0.68418 0.01711 0.0
O40 O 0.90436 0.75846 0.05411 0.0
O41 O 0.83385 0.67561 0.07516 0.0
C42 C 0.84441 0.74881 0.96056 0.0
C43 C 0.90887 0.63361 0.00567 0.0
C44 C 0.7175 0.62475 0.02696 0.0
O45 O 0.85413 0.77133 0.9904 0.0
O46 O 0.83269 0.69439 0.95934 0.0
O47 O 0.7443 0.59878 0.01388 0.0
O48 O 0.75165 0.68013 0.03424 0.0
C49 C 0.87863 0.7277 0.08073 0.0
O50 O 0.85222 0.60173 0.01067 0.0
O51 O 0.92934 0.69021 0.00617 0.0
In52 In 0.15989 0.85891 0.3552 0.0
O53 O 0.25677 0.87379 0.35907 0.0
O54 O 0.24489 0.94228 0.33518 0.0
C55 C 0.11244 0.73961 0.36971 0.0
C56 C 0.15028 0.9203 0.40915 0.0
C57 C 0.08784 0.84678 0.30114 0.0
O58 O 0.14757 0.76434 0.3444 0.0
O59 O 0.10264 0.77517 0.38765 0.0
O60 O 0.07057 0.84266 0.33193 0.0
O61 O 0.14185 0.85801 0.29754 0.0
C62 C 0.28145 0.92509 0.34452 0.0
O63 O 0.14412 0.93288 0.37852 0.0
O64 O 0.16184 0.87766 0.41231 0.0
In65 In 0.31659 0.14942 0.68111 0.0
O66 O 0.41191 0.22726 0.66864 0.0
O67 O 0.34233 0.24902 0.67792 0.0
C68 C 0.37092 0.08117 0.67475 0.0
C69 C 0.26517 0.14149 0.74322 0.0
C70 C 0.2345 0.1114 0.62967 0.0
O71 O 0.36338 0.09899 0.70371 0.0
O72 O 0.35254 0.09885 0.64963 0.0
O73 O 0.23421 0.07623 0.65272 0.0
O74 O 0.27427 0.16655 0.63362 0.0
C75 C 0.39757 0.26816 0.67103 0.0
O76 O 0.23553 0.10716 0.71857 0.0
O77 O 0.3204 0.17767 0.73681 0.0
H78 H 0.30829 0.23623 0.78751 0.0
H79 H 0.15761 0.05356 0.77171 0.0
H80 H 0.10971 0.0618 0.8257 0.0
H81 H 0.31629 0.23226 0.87969 0.0
H82 H 0.33314 0.30976 0.88463 0.0
H83 H 0.35603 0.28707 0.84612 0.0
H84 H 0.2978 0.32655 0.80919 0.0
H85 H 0.27439 0.349 0.84759 0.0
H86 H 0.21814 0.29825 0.8173 0.0
H87 H 0.08043 0.09114 0.88294 0.0
H88 H 0.06965 0.14079 0.93549 0.0
H89 H 0.2362 0.3061 0.90916 0.0
C90 C 0.26558 0.1976 0.79561 0.0
C91 C 0.23692 0.14393 0.77587 0.0
C92 C 0.18037 0.0949 0.78678 0.0
C93 C 0.15296 0.09923 0.81732 0.0
C94 C 0.18238 0.15324 0.83612 0.0
C95 C 0.23723 0.20166 0.8254 0.0
C96 C 0.25849 0.25585 0.84892 0.0
C97 C 0.31959 0.27216 0.86585 0.0
C98 C 0.2624 0.31062 0.82959 0.0
C99 C 0.20732 0.23045 0.87482 0.0
C100 C 0.16402 0.17103 0.8674 0.0
C101 C 0.1138 0.13783 0.88877 0.0
C102 C 0.10799 0.16626 0.91847 0.0
C103 C 0.15163 0.22738 0.92598 0.0
C104 C 0.20153 0.25964 0.90371 0.0
H105 H 0.87205 0.17396 0.22919 0.0
H106 H 0.98821 0.1278 0.28843 0.0
H107 H 0.0452 0.13364 0.2355 0.0
H108 H 0.87136 0.09565 0.14797 0.0
H109 H 0.87366 0.15554 0.12193 0.0
H110 H 0.83635 0.13802 0.16324 0.0
H111 H 0.90425 0.25034 0.18193 0.0
H112 H 0.94184 0.26811 0.14086 0.0
H113 H 0.98584 0.28453 0.17981 0.0
H114 H 0.09689 0.15684 0.17752 0.0
H115 H 0.13974 0.19701 0.11992 0.0
H116 H 0.98989 0.22886 0.09937 0.0
C117 C 0.90843 0.16344 0.23089 0.0
C118 C 0.92551 0.14998 0.2628 0.0
C119 C 0.97419 0.13781 0.26413 0.0
C120 C 0.00666 0.14086 0.23421 0.0
C121 C 0.98962 0.15587 0.20323 0.0
C122 C 0.94139 0.16665 0.20139 0.0
C123 C 0.93583 0.1878 0.16588 0.0
C124 C 0.87573 0.14147 0.14875 0.0
C125 C 0.94237 0.25146 0.16722 0.0
C126 C 0.98971 0.18927 0.14829 0.0
C127 C 0.01968 0.16979 0.17002 0.0
C128 C 0.07323 0.17123 0.16011 0.0
C129 C 0.09726 0.19415 0.12739 0.0
C130 C 0.06795 0.21573 0.10518 0.0
C131 C 0.0129 0.212 0.11562 0.0
H132 H 0.80261 0.00633 0.43048 0.0
H133 H 0.94314 0.18533 0.46331 0.0
H134 H 0.94187 0.14481 0.5213 0.0
H135 H 0.71643 0.97051 0.50364 0.0
H136 H 0.69392 0.891 0.50447 0.0
H137 H 0.71317 0.93139 0.46427 0.0
H138 H 0.79447 0.90006 0.45279 0.0
H139 H 0.77519 0.85915 0.49299 0.0
H140 H 0.85271 0.91692 0.48443 0.0
H141 H 0.91461 0.08824 0.57765 0.0
H142 H 0.86457 0.0197 0.62717 0.0
H143 H 0.74319 0.87795 0.55699 0.0
C144 C 0.83435 0.0366 0.44958 0.0
C145 C 0.87317 0.09884 0.44241 0.0
C146 C 0.91324 0.13734 0.46825 0.0
C147 C 0.91295 0.11472 0.50123 0.0
C148 C 0.87274 0.05341 0.50781 0.0
C149 C 0.83461 0.01475 0.48258 0.0
C150 C 0.79178 0.95225 0.49695 0.0
C151 C 0.72491 0.93535 0.49205 0.0
C152 C 0.80432 0.90426 0.48083 0.0
C153 C 0.81 0.96246 0.53446 0.0
C154 C 0.85732 0.02079 0.54022 0.0
C155 C 0.87838 0.04207 0.57336 0.0
C156 C 0.84966 0.00295 0.60132 0.0
C157 C 0.80038 0.94349 0.59585 0.0
C158 C 0.78138 0.92287 0.56194 0.0
H159 H 0.83812 0.71356 0.89374 0.0
H160 H 0.8457 0.85738 0.95758 0.0
H161 H 0.83215 0.90627 0.90582 0.0
H162 H 0.91741 0.81031 0.81821 0.0
H163 H 0.86995 0.75111 0.78837 0.0
H164 H 0.88686 0.73162 0.82992 0.0
H165 H 0.77147 0.66471 0.84233 0.0
H166 H 0.75423 0.68411 0.80098 0.0
H167 H 0.72325 0.69794 0.83944 0.0
H168 H 0.80489 0.93187 0.84794 0.0
H169 H 0.77065 0.93426 0.78858 0.0
H170 H 0.78525 0.7757 0.76293 0.0
C171 C 0.83808 0.75596 0.89677 0.0
C172 C 0.84297 0.78178 0.92959 0.0
C173 C 0.84235 0.83707 0.93258 0.0
C174 C 0.8347 0.86513 0.90335 0.0
C175 C 0.82868 0.83771 0.87137 0.0
C176 C 0.8311 0.78474 0.86792 0.0
C177 C 0.82024 0.76251 0.83109 0.0
C178 C 0.87701 0.764 0.81601 0.0
C179 C 0.76396 0.69856 0.82832 0.0
C180 C 0.80918 0.81002 0.81451 0.0
C181 C 0.81459 0.8533 0.83804 0.0
C182 C 0.8017 0.89894 0.82915 0.0
C183 C 0.78219 0.89989 0.79544 0.0
C184 C 0.77599 0.85559 0.77114 0.0
C185 C 0.79071 0.81087 0.78077 0.0
H186 H 0.11814 0.8691 0.23291 0.0
H187 H 0.96459 0.79603 0.30313 0.0
H188 H 0.89426 0.76561 0.25376 0.0
H189 H 0.05057 0.92611 0.16794 0.0
H190 H 0.08356 0.90675 0.13249 0.0
H191 H 0.12208 0.92806 0.1734 0.0
H192 H 0.12415 0.82702 0.17497 0.0
H193 H 0.08543 0.80526 0.13425 0.0
H194 H 0.05384 0.75588 0.17101 0.0
H195 H 0.84093 0.73052 0.19756 0.0
H196 H 0.80766 0.70044 0.1375 0.0
H197 H 0.99507 0.80231 0.10313 0.0
C198 C 0.06975 0.84773 0.23785 0.0
C199 C 0.04666 0.83483 0.27176 0.0
C200 C 0.98316 0.80658 0.27731 0.0
C201 C 0.94289 0.78914 0.24946 0.0
C202 C 0.967 0.80135 0.2163 0.0
C203 C 0.02895 0.83089 0.21033 0.0
C204 C 0.04281 0.8363 0.17213 0.0
C205 C 0.07676 0.90329 0.16083 0.0
C206 C 0.07865 0.80418 0.16255 0.0
C207 C 0.97893 0.8031 0.15762 0.0
C208 C 0.93591 0.7834 0.18359 0.0
C209 C 0.87403 0.7469 0.17693 0.0
C210 C 0.85561 0.72983 0.14284 0.0
C211 C 0.89884 0.74991 0.11589 0.0
C212 C 0.96114 0.78774 0.12329 0.0
H213 H 0.17844 0.99508 0.60671 0.0
H214 H 0.21829 0.17662 0.57872 0.0
H215 H 0.1828 0.14129 0.51946 0.0
H216 H 0.24093 0.97267 0.53692 0.0
H217 H 0.18794 0.89268 0.53149 0.0
H218 H 0.19931 0.92655 0.57334 0.0
H219 H 0.084 0.88867 0.57863 0.0
H220 H 0.0719 0.85355 0.53686 0.0
H221 H 0.04625 0.90695 0.54536 0.0
H222 H 0.16068 0.09095 0.46137 0.0
H223 H 0.15582 0.031 0.40996 0.0
H224 H 0.13698 0.88493 0.47605 0.0
C225 C 0.177 0.02671 0.58855 0.0
C226 C 0.20022 0.0883 0.59732 0.0
C227 C 0.19987 0.129 0.57255 0.0
C228 C 0.17973 0.10928 0.53886 0.0
C229 C 0.16017 0.04882 0.53049 0.0
C230 C 0.15822 0.00801 0.55479 0.0
C231 C 0.1449 0.94854 0.53842 0.0
C232 C 0.19634 0.93436 0.54546 0.0
C233 C 0.08307 0.89634 0.55054 0.0
C234 C 0.14284 0.96329 0.50095 0.0
C235 C 0.14998 0.02061 0.49686 0.0
C236 C 0.15392 0.04558 0.46432 0.0
C237 C 0.15132 0.01138 0.43529 0.0
C238 C 0.14618 0.95356 0.43917 0.0
C239 C 0.14075 0.92899 0.47239 0.0
H240 H 0.36797 0.36988 0.00816 0.0
H241 H 0.32656 0.47614 0.0793 0.0
H242 H 0.43635 0.54785 0.08671 0.0
H243 H 0.50659 0.39247 0.05206 0.0
H244 H 0.54509 0.39748 0.01215 0.0
H245 H 0.46344 0.35174 0.01467 0.0
H246 H 0.45343 0.41156 0.96348 0.0
H247 H 0.53493 0.4578 0.96097 0.0
H248 H 0.489 0.49319 0.96608 0.0
H249 H 0.54898 0.61264 0.08229 0.0
H250 H 0.65863 0.66381 0.06915 0.0
H251 H 0.62812 0.51468 0.00187 0.0
C252 C 0.38206 0.4076 0.0258 0.0
C253 C 0.33883 0.41743 0.04327 0.0
C254 C 0.35895 0.46767 0.06579 0.0
C255 C 0.42118 0.50864 0.07013 0.0
C256 C 0.46259 0.49843 0.05194 0.0
C257 C 0.44402 0.44886 0.03049 0.0
C258 C 0.49786 0.44985 0.01287 0.0
C259 C 0.50357 0.3946 0.02359 0.0
C260 C 0.49352 0.45332 0.97352 0.0
C261 C 0.54951 0.50834 0.02732 0.0
C262 C 0.52802 0.53555 0.04979 0.0
C263 C 0.56647 0.59144 0.06509 0.0
C264 C 0.6286 0.62026 0.05732 0.0
C265 C 0.65177 0.59303 0.03462 0.0
C266 C 0.61167 0.53617 0.01959 0.0
H267 H 0.9903 0.38906 0.32857 0.0
H268 H 0.88008 0.34717 0.4209 0.0
H269 H 0.92698 0.45678 0.43355 0.0
H270 H 0.12671 0.51994 0.3629 0.0
H271 H 0.14393 0.56215 0.32321 0.0
H272 H 0.1044 0.48024 0.32235 0.0
H273 H 0.01685 0.47914 0.28747 0.0
H274 H 0.05611 0.56096 0.28816 0.0
H275 H 0.97932 0.51818 0.30418 0.0
H276 H 0.98238 0.57003 0.43515 0.0
H277 H 0.04042 0.68052 0.42465 0.0
H278 H 0.11436 0.6499 0.33088 0.0
C279 C 0.97649 0.40301 0.35161 0.0
C280 C 0.93174 0.35972 0.37386 0.0
C281 C 0.91432 0.37963 0.40354 0.0
C282 C 0.94083 0.44173 0.411 0.0
C283 C 0.9846 0.48328 0.38848 0.0
C284 C 0.00226 0.46489 0.35934 0.0
C285 C 0.04827 0.51907 0.33861 0.0
C286 C 0.10946 0.52041 0.33667 0.0
C287 C 0.02364 0.51934 0.30247 0.0
C288 C 0.05311 0.57076 0.36045 0.0
C289 C 0.01634 0.54898 0.38924 0.0
C290 C 0.01162 0.58769 0.41282 0.0
C291 C 0.04476 0.65037 0.40661 0.0
C292 C 0.08199 0.67375 0.37701 0.0
C293 C 0.08667 0.63334 0.35387 0.0
H294 H 0.44088 0.05897 0.7203 0.0
H295 H 0.36071 0.01384 0.61832 0.0
H296 H 0.4049 0.94782 0.60894 0.0
H297 H 0.58118 0.06907 0.69615 0.0
H298 H 0.59015 0.03703 0.7356 0.0
H299 H 0.54839 0.0772 0.73556 0.0
H300 H 0.45515 0.98298 0.76193 0.0
H301 H 0.49662 0.94242 0.76194 0.0
H302 H 0.42409 0.9105 0.74053 0.0
H303 H 0.45957 0.8895 0.60951 0.0
H304 H 0.52707 0.8469 0.61866 0.0
H305 H 0.57531 0.93148 0.71952 0.0
C306 C 0.43221 0.03463 0.69618 0.0
C307 C 0.3972 0.04123 0.67008 0.0
C308 C 0.3875 0.00947 0.63864 0.0
C309 C 0.41213 0.97162 0.63312 0.0
C310 C 0.44671 0.96627 0.65921 0.0
C311 C 0.45721 0.99711 0.69004 0.0
C312 C 0.49919 0.98604 0.71289 0.0
C313 C 0.55822 0.04589 0.72048 0.0
C314 C 0.46681 0.95354 0.7463 0.0
C315 C 0.51098 0.9447 0.6899 0.0
C316 C 0.47963 0.9334 0.65924 0.0
C317 C 0.48419 0.89775 0.63347 0.0
C318 C 0.5226 0.87371 0.63893 0.0
C319 C 0.55631 0.88576 0.6698 0.0
C320 C 0.54976 0.92115 0.69576 0.0
H321 H 0.38188 0.36446 0.6869 0.0
H322 H 0.51413 0.31908 0.64702 0.0
H323 H 0.58971 0.42853 0.64201 0.0
H324 H 0.42561 0.49731 0.63415 0.0
H325 H 0.41429 0.53917 0.66803 0.0
H326 H 0.3701 0.45736 0.66738 0.0
H327 H 0.40642 0.45352 0.72916 0.0
H328 H 0.45082 0.53529 0.72999 0.0
H329 H 0.48679 0.49064 0.73815 0.0
H330 H 0.65065 0.54236 0.64157 0.0
H331 H 0.69409 0.65329 0.6469 0.0
H332 H 0.52303 0.62469 0.6887 0.0
C333 C 0.42661 0.37758 0.67686 0.0
C334 C 0.44219 0.33344 0.66714 0.0
C335 C 0.50133 0.35227 0.65453 0.0
C336 C 0.54447 0.41425 0.65157 0.0
C337 C 0.52777 0.45664 0.66156 0.0
C338 C 0.47035 0.43919 0.67405 0.0
C339 C 0.46456 0.49385 0.68391 0.0
C340 C 0.41575 0.4971 0.66206 0.0
C341 C 0.45138 0.49327 0.7226 0.0
C342 C 0.52771 0.54483 0.67495 0.0
C343 C 0.56332 0.52233 0.66197 0.0
C344 C 0.62325 0.56053 0.65173 0.0
C345 C 0.64747 0.62345 0.65484 0.0
C346 C 0.61193 0.64753 0.66825 0.0
C347 C 0.5513 0.60756 0.67845 0.0
H348 H 0.87718 0.51284 0.00481 0.0
H349 H 0.03152 0.69572 0.99602 0.0
H350 H 0.10039 0.65387 0.99085 0.0
H351 H 0.94978 0.45317 0.05627 0.0
H352 H 0.91398 0.37946 0.03601 0.0
H353 H 0.87595 0.42328 0.03661 0.0
H354 H 0.86681 0.41636 0.97015 0.0
H355 H 0.90482 0.37241 0.96935 0.0
H356 H 0.93428 0.44127 0.94438 0.0
H357 H 0.15328 0.59353 0.99073 0.0
H358 H 0.18694 0.51778 0.99486 0.0
H359 H 0.99882 0.37334 0.00254 0.0
C360 C 0.92538 0.54396 0.00138 0.0
C361 C 0.94901 0.60753 0.00075 0.0
C362 C 0.01239 0.64685 0.99649 0.0
C363 C 0.0519 0.62354 0.99348 0.0
C364 C 0.02732 0.56076 0.99454 0.0
C365 C 0.96556 0.5214 0.99821 0.0
C366 C 0.9514 0.4559 -0.00017 0.0
C367 C 0.921 0.42623 0.03423 0.0
C368 C 0.91199 0.41933 0.96909 0.0
C369 C 0.01497 0.46481 0.99726 0.0
C370 C 0.05799 0.52567 0.99404 0.0
C371 C 0.12002 0.54566 0.99284 0.0
C372 C 0.13869 0.50233 0.99526 0.0
C373 C 0.09548 0.43976 0.99878 0.0
C374 C 0.0328 0.42082 -0.00061 0.0
H375 H 0.63212 0.02157 0.36475 0.0
H376 H 0.67574 0.1909 0.31392 0.0
H377 H 0.56626 0.15491 0.30699 0.0
H378 H 0.50023 0.92312 0.31289 0.0
H379 H 0.45789 0.87511 0.34854 0.0
H380 H 0.53978 0.91326 0.34862 0.0
H381 H 0.54191 0.96244 0.40741 0.0
H382 H 0.46007 0.92444 0.40752 0.0
H383 H 0.5038 0.00597 0.41187 0.0
H384 H 0.45278 0.10192 0.30646 0.0
H385 H 0.34193 0.03583 0.31324 0.0
H386 H 0.37104 0.90078 0.36489 0.0
C387 C 0.61857 0.05088 0.352 0.0
C388 C 0.66238 0.10898 0.33978 0.0
C389 C 0.64293 0.14622 0.32345 0.0
C390 C 0.58088 0.12615 0.31935 0.0
C391 C 0.53884 0.06877 0.33177 0.0
C392 C 0.55672 0.03164 0.34781 0.0
C393 C 0.50211 0.97261 0.35957 0.0
C394 C 0.49989 0.91779 0.3413 0.0
C395 C 0.50198 0.96601 0.39893 0.0
C396 C 0.4508 0.98255 0.34776 0.0
C397 C 0.4731 0.03824 0.33166 0.0
C398 C 0.43473 0.05813 0.31893 0.0
C399 C 0.37184 0.02025 0.32291 0.0
C400 C 0.34788 0.96317 0.33953 0.0
C401 C 0.38802 0.94407 0.35195 0.0
loop_
_geom_bond_atom_site_label_1
_geom_bond_atom_site_label_2
_geom_bond_distance
_geom_bond_site_symmetry_2
_ccdc_geom_bond_type
In0 O1 2.294 . S
In0 O2 2.326 . S
In0 O6 2.266 1_554 S
In0 O7 2.326 1_554 S
In0 O8 2.266 . S
In0 O9 2.326 . S
In0 O11 2.294 . S
In0 O12 2.326 . S
O1 In0 2.294 . S
O1 C10 1.240 . S
O2 In0 2.326 . S
O2 C10 1.252 . S
C3 O6 1.252 . S
C3 O7 1.260 . S
C4 O11 1.240 . S
C4 O12 1.252 . S
C5 O8 1.252 . S
C5 O9 1.260 . S
O6 In0 2.266 1_556 S
O6 C3 1.252 . S
O7 In0 2.326 1_556 S
O7 C3 1.260 . S
O8 In0 2.266 . S
O8 C5 1.252 . S
O9 In0 2.326 . S
O9 C5 1.260 . S
C10 O1 1.240 . S
C10 O2 1.252 . S
O11 In0 2.294 . S
O11 C4 1.240 . S
O12 In0 2.326 . S
O12 C4 1.252 . S
In13 O14 2.294 . S
In13 O15 2.326 . S
In13 O19 2.266 . S
In13 O20 2.326 . S
In13 O21 2.266 . S
In13 O22 2.326 . S
In13 O24 2.294 . S
In13 O25 2.326 . S
O14 In13 2.294 . S
O14 C23 1.240 . S
O15 In13 2.326 . S
O15 C23 1.252 . S
C16 O19 1.252 . S
C16 O20 1.260 . S
C17 O24 1.240 . S
C17 O25 1.252 . S
C18 O21 1.252 . S
C18 O22 1.260 . S
O19 In13 2.266 . S
O19 C16 1.252 . S
O20 In13 2.326 . S
O20 C16 1.260 . S
O21 In13 2.266 . S
O21 C18 1.252 . S
O22 In13 2.326 . S
O22 C18 1.260 . S
C23 O14 1.240 . S
C23 O15 1.252 . S
O24 In13 2.294 . S
O24 C17 1.240 . S
O25 In13 2.326 . S
O25 C17 1.252 . S
In26 O27 2.294 . S
In26 O28 2.326 . S
In26 O32 2.266 . S
In26 O33 2.326 . S
In26 O34 2.266 . S
In26 O35 2.326 . S
In26 O37 2.294 . S
In26 O38 2.326 . S
O27 In26 2.294 . S
O27 C36 1.240 . S
O28 In26 2.326 . S
O28 C36 1.252 . S
C29 O32 1.252 . S
C29 O33 1.260 . S
C30 O37 1.240 . S
C30 O38 1.252 . S
C31 O34 1.252 . S
C31 O35 1.260 . S
O32 In26 2.266 . S
O32 C29 1.252 . S
O33 In26 2.326 . S
O33 C29 1.260 . S
O34 In26 2.266 . S
O34 C31 1.252 . S
O35 In26 2.326 . S
O35 C31 1.260 . S
C36 O27 1.240 . S
C36 O28 1.252 . S
O37 In26 2.294 . S
O37 C30 1.240 . S
O38 In26 2.326 . S
O38 C30 1.252 . S
In39 O40 2.294 . S
In39 O41 2.326 . S
In39 O45 2.266 1_554 S
In39 O46 2.326 1_554 S
In39 O47 2.266 . S
In39 O48 2.326 . S
In39 O50 2.294 . S
In39 O51 2.326 . S
O40 In39 2.294 . S
O40 C49 1.240 . S
O41 In39 2.326 . S
O41 C49 1.252 . S
C42 O45 1.252 . S
C42 O46 1.260 . S
C43 O50 1.240 . S
C43 O51 1.252 . S
C44 O47 1.252 . S
C44 O48 1.260 . S
O45 In39 2.266 1_556 S
O45 C42 1.252 . S
O46 In39 2.326 1_556 S
O46 C42 1.260 . S
O47 In39 2.266 . S
O47 C44 1.252 . S
O48 In39 2.326 . S
O48 C44 1.260 . S
C49 O40 1.240 . S
C49 O41 1.252 . S
O50 In39 2.294 . S
O50 C43 1.240 . S
O51 In39 2.326 . S
O51 C43 1.252 . S
In52 O53 2.294 . S
In52 O54 2.326 . S
In52 O58 2.266 . S
In52 O59 2.326 . S
In52 O60 2.266 . S
In52 O61 2.326 . S
In52 O63 2.294 . S
In52 O64 2.326 . S
O53 In52 2.294 . S
O53 C62 1.240 . S
O54 In52 2.326 . S
O54 C62 1.252 . S
C55 O58 1.252 . S
C55 O59 1.260 . S
C56 O63 1.240 . S
C56 O64 1.252 . S
C57 O60 1.252 . S
C57 O61 1.260 . S
O58 In52 2.266 . S
O58 C55 1.252 . S
O59 In52 2.326 . S
O59 C55 1.260 . S
O60 In52 2.266 . S
O60 C57 1.252 . S
O61 In52 2.326 . S
O61 C57 1.260 . S
C62 O53 1.240 . S
C62 O54 1.252 . S
O63 In52 2.294 . S
O63 C56 1.240 . S
O64 In52 2.326 . S
O64 C56 1.252 . S
In65 O66 2.294 . S
In65 O67 2.326 . S
In65 O71 2.266 . S
In65 O72 2.326 . S
In65 O73 2.266 . S
In65 O74 2.326 . S
In65 O76 2.294 . S
In65 O77 2.326 . S
O66 In65 2.294 . S
O66 C75 1.240 . S
O67 In65 2.326 . S
O67 C75 1.252 . S
C68 O71 1.252 . S
C68 O72 1.260 . S
C69 O76 1.240 . S
C69 O77 1.252 . S
C70 O73 1.252 . S
C70 O74 1.260 . S
O71 In65 2.266 . S
O71 C68 1.252 . S
O72 In65 2.326 . S
O72 C68 1.260 . S
O73 In65 2.266 . S
O73 C70 1.252 . S
O74 In65 2.326 . S
O74 C70 1.260 . S
C75 O66 1.240 . S
C75 O67 1.252 . S
O76 In65 2.294 . S
O76 C69 1.240 . S
O77 In65 2.326 . S
O77 C69 1.252 . S
H78 C90 0.930 . S
H79 C92 0.930 . S
H80 C93 0.930 . S
H81 C97 0.959 . S
H82 C97 0.959 . S
H83 C97 0.961 . S
H84 C98 0.960 . S
H85 C98 0.961 . S
H86 C98 0.959 . S
H87 C101 0.929 . S
H88 C102 0.931 . S
H89 C104 0.930 . S
C90 H78 0.930 . S
C90 C91 1.399 . S
C90 C95 1.399 . S
C91 C90 1.399 . S
C91 C92 1.376 . S
C92 H79 0.930 . S
C92 C91 1.376 . S
C92 C93 1.388 . S
C93 H80 0.930 . S
C93 C92 1.388 . S
C93 C94 1.390 . S
C94 C93 1.390 . S
C94 C95 1.394 . S
C94 C100 1.465 . S
C95 C90 1.399 . S
C95 C94 1.394 . S
C95 C96 1.516 . S
C96 C95 1.516 . S
C96 C97 1.502 . S
C96 C98 1.561 . S
C96 C99 1.526 . S
C97 H81 0.959 . S
C97 H82 0.959 . S
C97 H83 0.961 . S
C97 C96 1.502 . S
C98 H84 0.960 . S
C98 H85 0.961 . S
C98 H86 0.959 . S
C98 C96 1.561 . S
C99 C96 1.526 . S
C99 C100 1.396 . S
C99 C104 1.390 . S
C100 C94 1.465 . S
C100 C99 1.396 . S
C100 C101 1.399 . S
C101 H87 0.929 . S
C101 C100 1.399 . S
C101 C102 1.385 . S
C102 H88 0.931 . S
C102 C101 1.385 . S
C102 C103 1.389 . S
C103 C102 1.389 . S
C103 C104 1.387 . S
C104 H89 0.930 . S
C104 C99 1.390 . S
C104 C103 1.387 . S
H105 C117 0.930 . S
H106 C119 0.930 . S
H107 C120 0.930 . S
H108 C124 0.959 . S
H109 C124 0.959 . S
H110 C124 0.961 . S
H111 C125 0.960 . S
H112 C125 0.961 . S
H113 C125 0.959 . S
H114 C128 0.929 . S
H115 C129 0.931 . S
H116 C131 0.930 . S
C117 H105 0.930 . S
C117 C118 1.399 . S
C117 C122 1.399 . S
C118 C117 1.399 . S
C118 C119 1.376 . S
C119 H106 0.930 . S
C119 C118 1.376 . S
C119 C120 1.388 . S
C120 H107 0.930 . S
C120 C119 1.388 . S
C120 C121 1.390 . S
C121 C120 1.390 . S
C121 C122 1.394 . S
C121 C127 1.465 1_655 S
C122 C117 1.399 . S
C122 C121 1.394 . S
C122 C123 1.516 . S
C123 C122 1.516 . S
C123 C124 1.504 . S
C123 C125 1.560 1_655 S
C123 C126 1.524 1_655 S
C124 H108 0.959 . S
C124 H109 0.959 . S
C124 H110 0.961 . S
C124 C123 1.504 . S
C125 H111 0.960 . S
C125 H112 0.961 . S
C125 H113 0.959 . S
C125 C123 1.560 1_455 S
C126 C123 1.524 1_455 S
C126 C127 1.396 . S
C126 C131 1.390 . S
C127 C121 1.465 1_455 S
C127 C126 1.396 . S
C127 C128 1.399 . S
C128 H114 0.929 . S
C128 C127 1.399 . S
C128 C129 1.385 . S
C129 H115 0.931 . S
C129 C128 1.385 . S
C129 C130 1.389 . S
C130 C129 1.389 . S
C130 C131 1.387 . S
C131 H116 0.930 . S
C131 C126 1.390 . S
C131 C130 1.387 . S
H132 C144 0.930 1_565 S
H133 C146 0.930 . S
H134 C147 0.930 . S
H135 C151 0.959 . S
H136 C151 0.959 . S
H137 C151 0.961 . S
H138 C152 0.960 . S
H139 C152 0.961 . S
H140 C152 0.959 . S
H141 C155 0.929 . S
H142 C156 0.931 . S
H143 C158 0.930 . S
C144 H132 0.930 1_545 S
C144 C145 1.399 . S
C144 C149 1.399 . S
C145 C144 1.399 . S
C145 C146 1.376 . S
C146 H133 0.930 . S
C146 C145 1.376 . S
C146 C147 1.388 . S
C147 H134 0.930 . S
C147 C146 1.388 . S
C147 C148 1.390 . S
C148 C147 1.390 . S
C148 C149 1.394 . S
C148 C154 1.465 . S
C149 C144 1.399 . S
C149 C148 1.394 . S
C149 C150 1.516 1_545 S
C150 C149 1.516 1_565 S
C150 C151 1.502 . S
C150 C152 1.561 . S
C150 C153 1.526 . S
C151 H135 0.959 . S
C151 H136 0.959 . S
C151 H137 0.961 . S
C151 C150 1.502 . S
C152 H138 0.960 . S
C152 H139 0.961 . S
C152 H140 0.959 . S
C152 C150 1.561 . S
C153 C150 1.526 . S
C153 C154 1.396 1_565 S
C153 C158 1.390 . S
C154 C148 1.465 . S
C154 C153 1.396 1_545 S
C154 C155 1.399 . S
C155 H141 0.929 . S
C155 C154 1.399 . S
C155 C156 1.385 1_545 S
C156 H142 0.931 . S
C156 C155 1.385 1_565 S
C156 C157 1.389 . S
C157 C156 1.389 . S
C157 C158 1.387 . S
C158 H143 0.930 . S
C158 C153 1.390 . S
C158 C157 1.387 . S
H159 C171 0.930 . S
H160 C173 0.930 . S
H161 C174 0.930 . S
H162 C178 0.959 . S
H163 C178 0.959 . S
H164 C178 0.961 . S
H165 C179 0.960 . S
H166 C179 0.961 . S
H167 C179 0.959 . S
H168 C182 0.929 . S
H169 C183 0.931 . S
H170 C185 0.930 . S
C171 H159 0.930 . S
C171 C172 1.399 . S
C171 C176 1.399 . S
C172 C171 1.399 . S
C172 C173 1.376 . S
C173 H160 0.930 . S
C173 C172 1.376 . S
C173 C174 1.388 . S
C174 H161 0.930 . S
C174 C173 1.388 . S
C174 C175 1.390 . S
C175 C174 1.390 . S
C175 C176 1.394 . S
C175 C181 1.465 . S
C176 C171 1.399 . S
C176 C175 1.394 . S
C176 C177 1.516 . S
C177 C176 1.516 . S
C177 C178 1.502 . S
C177 C179 1.561 . S
C177 C180 1.526 . S
C178 H162 0.959 . S
C178 H163 0.959 . S
C178 H164 0.961 . S
C178 C177 1.502 . S
C179 H165 0.960 . S
C179 H166 0.961 . S
C179 H167 0.959 . S
C179 C177 1.561 . S
C180 C177 1.526 . S
C180 C181 1.396 . S
C180 C185 1.390 . S
C181 C175 1.465 . S
C181 C180 1.396 . S
C181 C182 1.399 . S
C182 H168 0.929 . S
C182 C181 1.399 . S
C182 C183 1.385 . S
C183 H169 0.931 . S
C183 C182 1.385 . S
C183 C184 1.389 . S
C184 C183 1.389 . S
C184 C185 1.387 . S
C185 H170 0.930 . S
C185 C180 1.390 . S
C185 C184 1.387 . S
H186 C198 0.930 . S
H187 C200 0.930 . S
H188 C201 0.927 1_655 S
H189 C205 0.959 1_655 S
H190 C205 0.959 . S
H191 C205 0.961 . S
H192 C206 0.960 . S
H193 C206 0.961 . S
H194 C206 0.959 . S
H195 C209 0.929 . S
H196 C210 0.931 . S
H197 C212 0.930 . S
C198 H186 0.930 . S
C198 C199 1.399 . S
C198 C203 1.399 . S
C199 C198 1.399 . S
C199 C200 1.376 . S
C200 H187 0.930 . S
C200 C199 1.376 . S
C200 C201 1.397 . S
C201 H188 0.927 1_455 S
C201 C200 1.397 . S
C201 C202 1.385 . S
C202 C201 1.385 . S
C202 C203 1.394 . S
C202 C208 1.465 1_455 S
C203 C198 1.399 . S
C203 C202 1.394 . S
C203 C204 1.516 . S
C204 C203 1.516 . S
C204 C205 1.502 . S
C204 C206 1.561 . S
C204 C207 1.526 1_455 S
C205 H189 0.959 1_455 S
C205 H190 0.959 . S
C205 H191 0.961 . S
C205 C204 1.502 . S
C206 H192 0.960 . S
C206 H193 0.961 . S
C206 H194 0.959 . S
C206 C204 1.561 . S
C207 C204 1.526 1_655 S
C207 C208 1.396 . S
C207 C212 1.390 . S
C208 C202 1.465 1_655 S
C208 C207 1.396 . S
C208 C209 1.399 . S
C209 H195 0.929 . S
C209 C208 1.399 . S
C209 C210 1.385 . S
C210 H196 0.931 . S
C210 C209 1.385 . S
C210 C211 1.389 . S
C211 C210 1.389 . S
C211 C212 1.387 . S
C212 H197 0.930 . S
C212 C207 1.390 . S
C212 C211 1.387 . S
H213 C225 0.930 1_565 S
H214 C227 0.930 . S
H215 C228 0.930 . S
H216 C232 0.959 . S
H217 C232 0.959 . S
H218 C232 0.961 . S
H219 C233 0.960 . S
H220 C233 0.961 . S
H221 C233 0.959 . S
H222 C236 0.929 . S
H223 C237 0.931 1_545 S
H224 C239 0.930 . S
C225 H213 0.930 1_545 S
C225 C226 1.399 . S
C225 C230 1.399 . S
C226 C225 1.399 . S
C226 C227 1.376 . S
C227 H214 0.930 . S
C227 C226 1.376 . S
C227 C228 1.388 . S
C228 H215 0.930 . S
C228 C227 1.388 . S
C228 C229 1.390 . S
C229 C228 1.390 . S
C229 C230 1.394 . S
C229 C235 1.465 . S
C230 C225 1.399 . S
C230 C229 1.394 . S
C230 C231 1.516 1_545 S
C231 C230 1.516 1_565 S
C231 C232 1.502 . S
C231 C233 1.561 . S
C231 C234 1.526 . S
C232 H216 0.959 . S
C232 H217 0.959 . S
C232 H218 0.961 . S
C232 C231 1.502 . S
C233 H219 0.960 . S
C233 H220 0.961 . S
C233 H221 0.959 . S
C233 C231 1.561 . S
C234 C231 1.526 . S
C234 C235 1.396 1_565 S
C234 C239 1.390 . S
C235 C229 1.465 . S
C235 C234 1.396 1_545 S
C235 C236 1.399 . S
C236 H222 0.929 . S
C236 C235 1.399 . S
C236 C237 1.385 1_545 S
C237 H223 0.931 1_565 S
C237 C236 1.385 1_565 S
C237 C238 1.389 . S
C238 C237 1.389 . S
C238 C239 1.387 . S
C239 H224 0.930 . S
C239 C234 1.390 . S
C239 C238 1.387 . S
H240 C252 0.930 1_556 S
H241 C254 0.930 . S
H242 C255 0.930 . S
H243 C259 0.959 . S
H244 C259 0.959 . S
H245 C259 0.961 . S
H246 C260 0.960 . S
H247 C260 0.961 . S
H248 C260 0.959 . S
H249 C263 0.929 . S
H250 C264 0.931 . S
H251 C266 0.930 1_556 S
C252 H240 0.930 1_554 S
C252 C253 1.399 . S
C252 C257 1.399 . S
C253 C252 1.399 . S
C253 C254 1.376 . S
C254 H241 0.930 . S
C254 C253 1.376 . S
C254 C255 1.388 . S
C255 H242 0.930 . S
C255 C254 1.388 . S
C255 C256 1.390 . S
C256 C255 1.390 . S
C256 C257 1.394 . S
C256 C262 1.465 . S
C257 C252 1.399 . S
C257 C256 1.394 . S
C257 C258 1.516 1_554 S
C258 C257 1.516 1_556 S
C258 C259 1.502 . S
C258 C260 1.561 . S
C258 C261 1.526 1_556 S
C259 H243 0.959 . S
C259 H244 0.959 . S
C259 H245 0.961 . S
C259 C258 1.502 . S
C260 H246 0.960 . S
C260 H247 0.961 . S
C260 H248 0.959 . S
C260 C258 1.561 . S
C261 C258 1.526 1_554 S
C261 C262 1.396 . S
C261 C266 1.390 . S
C262 C256 1.465 . S
C262 C261 1.396 . S
C262 C263 1.399 . S
C263 H249 0.929 . S
C263 C262 1.399 . S
C263 C264 1.385 . S
C264 H250 0.931 . S
C264 C263 1.385 . S
C264 C265 1.389 . S
C265 C264 1.389 . S
C265 C266 1.387 . S
C266 H251 0.930 1_554 S
C266 C261 1.390 . S
C266 C265 1.387 . S
H267 C279 0.930 . S
H268 C281 0.930 . S
H269 C282 0.930 . S
H270 C286 0.959 . S
H271 C286 0.959 . S
H272 C286 0.961 . S
H273 C287 0.960 . S
H274 C287 0.961 . S
H275 C287 0.959 . S
H276 C290 0.929 . S
H277 C291 0.931 . S
H278 C293 0.930 . S
C279 H267 0.930 . S
C279 C280 1.399 . S
C279 C284 1.399 . S
C280 C279 1.399 . S
C280 C281 1.376 . S
C281 H268 0.930 . S
C281 C280 1.376 . S
C281 C282 1.388 . S
C282 H269 0.930 . S
C282 C281 1.388 . S
C282 C283 1.390 . S
C283 C282 1.390 . S
C283 C284 1.394 . S
C283 C289 1.465 . S
C284 C279 1.399 . S
C284 C283 1.394 . S
C284 C285 1.516 1_655 S
C285 C284 1.516 1_455 S
C285 C286 1.502 . S
C285 C287 1.561 1_455 S
C285 C288 1.526 . S
C286 H270 0.959 . S
C286 H271 0.959 . S
C286 H272 0.961 . S
C286 C285 1.502 . S
C287 H273 0.960 . S
C287 H274 0.961 . S
C287 H275 0.959 . S
C287 C285 1.561 1_655 S
C288 C285 1.526 . S
C288 C289 1.396 1_455 S
C288 C293 1.390 . S
C289 C283 1.465 . S
C289 C288 1.396 1_655 S
C289 C290 1.399 . S
C290 H276 0.929 . S
C290 C289 1.399 . S
C290 C291 1.385 1_655 S
C291 H277 0.931 . S
C291 C290 1.385 1_455 S
C291 C292 1.389 . S
C292 C291 1.389 . S
C292 C293 1.387 . S
C293 H278 0.930 . S
C293 C288 1.390 . S
C293 C292 1.387 . S
H294 C306 0.930 . S
H295 C308 0.930 . S
H296 C309 0.930 1_565 S
H297 C313 0.959 . S
H298 C313 0.959 . S
H299 C313 0.961 . S
H300 C314 0.960 . S
H301 C314 0.961 . S
H302 C314 0.959 . S
H303 C317 0.929 . S
H304 C318 0.931 . S
H305 C320 0.930 . S
C306 H294 0.930 . S
C306 C307 1.399 . S
C306 C311 1.399 . S
C307 C306 1.399 . S
C307 C308 1.376 . S
C308 H295 0.930 . S
C308 C307 1.376 . S
C308 C309 1.388 . S
C309 H296 0.930 1_545 S
C309 C308 1.388 . S
C309 C310 1.392 . S
C310 C309 1.392 . S
C310 C311 1.396 . S
C310 C316 1.461 1_545 S
C311 C306 1.399 . S
C311 C310 1.396 . S
C311 C312 1.516 . S
C312 C311 1.516 . S
C312 C313 1.502 . S
C312 C314 1.561 1_545 S
C312 C315 1.526 1_545 S
C313 H297 0.959 . S
C313 H298 0.959 . S
C313 H299 0.961 . S
C313 C312 1.502 . S
C314 H300 0.960 . S
C314 H301 0.961 . S
C314 H302 0.959 . S
C314 C312 1.561 1_565 S
C315 C312 1.526 1_565 S
C315 C316 1.396 . S
C315 C320 1.390 . S
C316 C310 1.461 1_565 S
C316 C315 1.396 . S
C316 C317 1.399 . S
C317 H303 0.929 . S
C317 C316 1.399 . S
C317 C318 1.385 . S
C318 H304 0.931 . S
C318 C317 1.385 . S
C318 C319 1.389 . S
C319 C318 1.389 . S
C319 C320 1.387 . S
C320 H305 0.930 . S
C320 C315 1.390 . S
C320 C319 1.387 . S
H321 C333 0.930 . S
H322 C335 0.930 . S
H323 C336 0.930 . S
H324 C340 0.959 . S
H325 C340 0.959 . S
H326 C340 0.961 . S
H327 C341 0.960 . S
H328 C341 0.961 . S
H329 C341 0.959 . S
H330 C344 0.929 . S
H331 C345 0.931 . S
H332 C347 0.930 . S
C333 H321 0.930 . S
C333 C334 1.399 . S
C333 C338 1.399 . S
C334 C333 1.399 . S
C334 C335 1.376 . S
C335 H322 0.930 . S
C335 C334 1.376 . S
C335 C336 1.388 . S
C336 H323 0.930 . S
C336 C335 1.388 . S
C336 C337 1.390 . S
C337 C336 1.390 . S
C337 C338 1.394 . S
C337 C343 1.465 . S
C338 C333 1.399 . S
C338 C337 1.394 . S
C338 C339 1.516 . S
C339 C338 1.516 . S
C339 C340 1.502 . S
C339 C341 1.561 . S
C339 C342 1.526 . S
C340 H324 0.959 . S
C340 H325 0.959 . S
C340 H326 0.961 . S
C340 C339 1.502 . S
C341 H327 0.960 . S
C341 H328 0.961 . S
C341 H329 0.959 . S
C341 C339 1.561 . S
C342 C339 1.526 . S
C342 C343 1.396 . S
C342 C347 1.390 . S
C343 C337 1.465 . S
C343 C342 1.396 . S
C343 C344 1.399 . S
C344 H330 0.929 . S
C344 C343 1.399 . S
C344 C345 1.385 . S
C345 H331 0.931 . S
C345 C344 1.385 . S
C345 C346 1.389 . S
C346 C345 1.389 . S
C346 C347 1.387 . S
C347 H332 0.930 . S
C347 C342 1.390 . S
C347 C346 1.387 . S
H348 C360 0.930 . S
H349 C362 0.930 . S
H350 C363 0.930 . S
H351 C367 0.959 . S
H352 C367 0.959 . S
H353 C367 0.961 . S
H354 C368 0.960 . S
H355 C368 0.961 . S
H356 C368 0.959 . S
H357 C371 0.929 . S
H358 C372 0.931 . S
H359 C374 0.930 . S
C360 H348 0.930 . S
C360 C361 1.399 1_556 S
C360 C365 1.399 . S
C361 C360 1.399 1_554 S
C361 C362 1.376 . S
C362 H349 0.930 . S
C362 C361 1.376 . S
C362 C363 1.388 1_655 S
C363 H350 0.930 . S
C363 C362 1.388 1_455 S
C363 C364 1.390 . S
C364 C363 1.390 . S
C364 C365 1.394 1_454 S
C364 C370 1.465 . S
C365 C360 1.399 . S
C365 C364 1.394 1_656 S
C365 C366 1.516 . S
C366 C365 1.516 . S
C366 C367 1.502 . S
C366 C368 1.561 1_655 S
C366 C369 1.526 1_655 S
C367 H351 0.959 . S
C367 H352 0.959 . S
C367 H353 0.961 . S
C367 C366 1.502 . S
C368 H354 0.960 . S
C368 H355 0.961 . S
C368 H356 0.959 . S
C368 C366 1.561 1_455 S
C369 C366 1.526 1_455 S
C369 C370 1.396 1_556 S
C369 C374 1.390 . S
C370 C364 1.465 . S
C370 C369 1.396 1_554 S
C370 C371 1.399 . S
C371 H357 0.929 . S
C371 C370 1.399 . S
C371 C372 1.385 . S
C372 H358 0.931 . S
C372 C371 1.385 . S
C372 C373 1.389 . S
C373 C372 1.389 . S
C373 C374 1.387 1_554 S
C374 H359 0.930 . S
C374 C369 1.390 . S
C374 C373 1.387 1_556 S
H375 C387 0.923 1_565 S
H376 C389 0.930 . S
H377 C390 0.930 . S
H378 C394 0.959 . S
H379 C394 0.959 . S
H380 C394 0.961 . S
H381 C395 0.960 . S
H382 C395 0.961 . S
H383 C395 0.959 1_545 S
H384 C398 0.929 . S
H385 C399 0.931 . S
H386 C401 0.930 . S
C387 H375 0.923 1_545 S
C387 C388 1.399 . S
C387 C392 1.399 . S
C388 C387 1.399 . S
C388 C389 1.376 . S
C389 H376 0.930 . S
C389 C388 1.376 . S
C389 C390 1.388 . S
C390 H377 0.930 . S
C390 C389 1.388 . S
C390 C391 1.390 . S
C391 C390 1.390 . S
C391 C392 1.394 . S
C391 C397 1.465 . S
C392 C387 1.399 . S
C392 C391 1.394 . S
C392 C393 1.516 1_545 S
C393 C392 1.516 1_565 S
C393 C394 1.502 . S
C393 C395 1.561 . S
C393 C396 1.526 . S
C394 H378 0.959 . S
C394 H379 0.959 . S
C394 H380 0.961 . S
C394 C393 1.502 . S
C395 H381 0.960 . S
C395 H382 0.961 . S
C395 H383 0.959 1_565 S
C395 C393 1.561 . S
C396 C393 1.526 . S
C396 C397 1.396 1_565 S
C396 C401 1.390 . S
C397 C391 1.465 . S
C397 C396 1.396 1_545 S
C397 C398 1.399 . S
C398 H384 0.929 . S
C398 C397 1.399 . S
C398 C399 1.385 1_545 S
C399 H385 0.931 . S
C399 C398 1.385 1_565 S
C399 C400 1.389 . S
C400 C399 1.389 . S
C400 C401 1.387 . S
C401 H386 0.930 . S
C401 C396 1.390 . S
C401 C400 1.387 . S
C91 C69 1.338 . S
C103 C3 1.340 . S
C118 C16 1.336 . S
C130 C10 1.341 . S
C145 C23 1.339 . S
C157 C31 1.325 . S
C172 C42 1.321 . S
C184 C30 1.336 . S
C199 C57 1.305 . S
C211 C49 1.310 . S
C226 C70 1.337 . S
C238 C56 1.319 . S
C253 C5 1.440 . S
C265 C44 1.467 . S
C280 C18 1.441 . S
C292 C55 1.466 . S
C307 C68 1.453 . S
C319 C29 1.435 . S
C334 C75 1.415 . S
C346 C36 1.446 . S
C361 C43 1.430 . S
C373 C4 1.403 . S
C388 C17 1.412 . S
C400 C62 1.447 . S
