# Generated by pormake.
# Topology uox, (4)-cn, num edge types: 1
# Building blocks:
#     Node 0, Type 0, BuildingBlock: QUQFOY_clean_sbu_1, # of connection points: 4
#     Node 1, Type 0, BuildingBlock: QUQFOY_clean_sbu_1, # of connection points: 4
#     Node 2, Type 0, BuildingBlock: QUQFOY_clean_sbu_1, # of connection points: 4
#     Node 3, Type 0, BuildingBlock: QUQFOY_clean_sbu_1, # of connection points: 4
#     Node 4, Type 0, BuildingBlock: QUQFOY_clean_sbu_1, # of connection points: 4
#     Node 5, Type 0, BuildingBlock: QUQFOY_clean_sbu_1, # of connection points: 4
#     Node 6, Type 0, BuildingBlock: QUQFOY_clean_sbu_1, # of connection points: 4
#     Node 7, Type 0, BuildingBlock: QUQFOY_clean_sbu_1, # of connection points: 4
#     Node 8, Type 0, BuildingBlock: QUQFOY_clean_sbu_1, # of connection points: 4
#     Node 9, Type 0, BuildingBlock: QUQFOY_clean_sbu_1, # of connection points: 4
#     Node 10, Type 0, BuildingBlock: QUQFOY_clean_sbu_1, # of connection points: 4
#     Node 11, Type 0, BuildingBlock: QUQFOY_clean_sbu_1, # of connection points: 4
#     Node 12, Type 0, BuildingBlock: QUQFOY_clean_sbu_1, # of connection points: 4
#     Node 13, Type 0, BuildingBlock: QUQFOY_clean_sbu_1, # of connection points: 4
#     Node 14, Type 0, BuildingBlock: QUQFOY_clean_sbu_1, # of connection points: 4
#     Node 15, Type 0, BuildingBlock: QUQFOY_clean_sbu_1, # of connection points: 4
#     Node 16, Type 0, BuildingBlock: QUQFOY_clean_sbu_1, # of connection points: 4
#     Node 17, Type 0, BuildingBlock: QUQFOY_clean_sbu_1, # of connection points: 4
#     Node 18, Type 0, BuildingBlock: QUQFOY_clean_sbu_1, # of connection points: 4
#     Node 19, Type 0, BuildingBlock: QUQFOY_clean_sbu_1, # of connection points: 4
#     Node 20, Type 0, BuildingBlock: QUQFOY_clean_sbu_1, # of connection points: 4
#     Node 21, Type 0, BuildingBlock: QUQFOY_clean_sbu_1, # of connection points: 4
#     Node 22, Type 0, BuildingBlock: QUQFOY_clean_sbu_1, # of connection points: 4
#     Node 23, Type 0, BuildingBlock: QUQFOY_clean_sbu_1, # of connection points: 4
#     Node 24, Type 0, BuildingBlock: QUQFOY_clean_sbu_1, # of connection points: 4
#     Node 25, Type 0, BuildingBlock: QUQFOY_clean_sbu_1, # of connection points: 4
#     Node 26, Type 0, BuildingBlock: QUQFOY_clean_sbu_1, # of connection points: 4
#     Node 27, Type 0, BuildingBlock: QUQFOY_clean_sbu_1, # of connection points: 4
#     Node 28, Type 0, BuildingBlock: QUQFOY_clean_sbu_1, # of connection points: 4
#     Node 29, Type 0, BuildingBlock: QUQFOY_clean_sbu_1, # of connection points: 4
#     Node 30, Type 0, BuildingBlock: QUQFOY_clean_sbu_1, # of connection points: 4
#     Node 31, Type 0, BuildingBlock: QUQFOY_clean_sbu_1, # of connection points: 4
#     Edge 32, Type (0, 0), BuildingBlock: TEMPAE_clean_linker_10, # of connection points: 2
#     Edge 33, Type (0, 0), BuildingBlock: TEMPAE_clean_linker_10, # of connection points: 2
#     Edge 34, Type (0, 0), BuildingBlock: TEMPAE_clean_linker_10, # of connection points: 2
#     Edge 35, Type (0, 0), BuildingBlock: TEMPAE_clean_linker_10, # of connection points: 2
#     Edge 36, Type (0, 0), BuildingBlock: TEMPAE_clean_linker_10, # of connection points: 2
#     Edge 37, Type (0, 0), BuildingBlock: TEMPAE_clean_linker_10, # of connection points: 2
#     Edge 38, Type (0, 0), BuildingBlock: TEMPAE_clean_linker_10, # of connection points: 2
#     Edge 39, Type (0, 0), BuildingBlock: TEMPAE_clean_linker_10, # of connection points: 2
#     Edge 40, Type (0, 0), BuildingBlock: TEMPAE_clean_linker_10, # of connection points: 2
#     Edge 41, Type (0, 0), BuildingBlock: TEMPAE_clean_linker_10, # of connection points: 2
#     Edge 42, Type (0, 0), BuildingBlock: TEMPAE_clean_linker_10, # of connection points: 2
#     Edge 43, Type (0, 0), BuildingBlock: TEMPAE_clean_linker_10, # of connection points: 2
#     Edge 44, Type (0, 0), BuildingBlock: TEMPAE_clean_linker_10, # of connection points: 2
#     Edge 45, Type (0, 0), BuildingBlock: TEMPAE_clean_linker_10, # of connection points: 2
#     Edge 46, Type (0, 0), BuildingBlock: TEMPAE_clean_linker_10, # of connection points: 2
#     Edge 47, Type (0, 0), BuildingBlock: TEMPAE_clean_linker_10, # of connection points: 2
#     Edge 48, Type (0, 0), BuildingBlock: TEMPAE_clean_linker_10, # of connection points: 2
#     Edge 49, Type (0, 0), BuildingBlock: TEMPAE_clean_linker_10, # of connection points: 2
#     Edge 50, Type (0, 0), BuildingBlock: TEMPAE_clean_linker_10, # of connection points: 2
#     Edge 51, Type (0, 0), BuildingBlock: TEMPAE_clean_linker_10, # of connection points: 2
#     Edge 52, Type (0, 0), BuildingBlock: TEMPAE_clean_linker_10, # of connection points: 2
#     Edge 53, Type (0, 0), BuildingBlock: TEMPAE_clean_linker_10, # of connection points: 2
#     Edge 54, Type (0, 0), BuildingBlock: TEMPAE_clean_linker_10, # of connection points: 2
#     Edge 55, Type (0, 0), BuildingBlock: TEMPAE_clean_linker_10, # of connection points: 2
#     Edge 56, Type (0, 0), BuildingBlock: TEMPAE_clean_linker_10, # of connection points: 2
#     Edge 57, Type (0, 0), BuildingBlock: TEMPAE_clean_linker_10, # of connection points: 2
#     Edge 58, Type (0, 0), BuildingBlock: TEMPAE_clean_linker_10, # of connection points: 2
#     Edge 59, Type (0, 0), BuildingBlock: TEMPAE_clean_linker_10, # of connection points: 2
#     Edge 60, Type (0, 0), BuildingBlock: TEMPAE_clean_linker_10, # of connection points: 2
#     Edge 61, Type (0, 0), BuildingBlock: TEMPAE_clean_linker_10, # of connection points: 2
#     Edge 62, Type (0, 0), BuildingBlock: TEMPAE_clean_linker_10, # of connection points: 2
#     Edge 63, Type (0, 0), BuildingBlock: TEMPAE_clean_linker_10, # of connection points: 2
#     Edge 64, Type (0, 0), BuildingBlock: TEMPAE_clean_linker_10, # of connection points: 2
#     Edge 65, Type (0, 0), BuildingBlock: TEMPAE_clean_linker_10, # of connection points: 2
#     Edge 66, Type (0, 0), BuildingBlock: TEMPAE_clean_linker_10, # of connection points: 2
#     Edge 67, Type (0, 0), BuildingBlock: TEMPAE_clean_linker_10, # of connection points: 2
#     Edge 68, Type (0, 0), BuildingBlock: TEMPAE_clean_linker_10, # of connection points: 2
#     Edge 69, Type (0, 0), BuildingBlock: TEMPAE_clean_linker_10, # of connection points: 2
#     Edge 70, Type (0, 0), BuildingBlock: TEMPAE_clean_linker_10, # of connection points: 2
#     Edge 71, Type (0, 0), BuildingBlock: TEMPAE_clean_linker_10, # of connection points: 2
#     Edge 72, Type (0, 0), BuildingBlock: TEMPAE_clean_linker_10, # of connection points: 2
#     Edge 73, Type (0, 0), BuildingBlock: TEMPAE_clean_linker_10, # of connection points: 2
#     Edge 74, Type (0, 0), BuildingBlock: TEMPAE_clean_linker_10, # of connection points: 2
#     Edge 75, Type (0, 0), BuildingBlock: TEMPAE_clean_linker_10, # of connection points: 2
#     Edge 76, Type (0, 0), BuildingBlock: TEMPAE_clean_linker_10, # of connection points: 2
#     Edge 77, Type (0, 0), BuildingBlock: TEMPAE_clean_linker_10, # of connection points: 2
#     Edge 78, Type (0, 0), BuildingBlock: TEMPAE_clean_linker_10, # of connection points: 2
#     Edge 79, Type (0, 0), BuildingBlock: TEMPAE_clean_linker_10, # of connection points: 2
#     Edge 80, Type (0, 0), BuildingBlock: TEMPAE_clean_linker_10, # of connection points: 2
#     Edge 81, Type (0, 0), BuildingBlock: TEMPAE_clean_linker_10, # of connection points: 2
#     Edge 82, Type (0, 0), BuildingBlock: TEMPAE_clean_linker_10, # of connection points: 2
#     Edge 83, Type (0, 0), BuildingBlock: TEMPAE_clean_linker_10, # of connection points: 2
#     Edge 84, Type (0, 0), BuildingBlock: TEMPAE_clean_linker_10, # of connection points: 2
#     Edge 85, Type (0, 0), BuildingBlock: TEMPAE_clean_linker_10, # of connection points: 2
#     Edge 86, Type (0, 0), BuildingBlock: TEMPAE_clean_linker_10, # of connection points: 2
#     Edge 87, Type (0, 0), BuildingBlock: TEMPAE_clean_linker_10, # of connection points: 2
#     Edge 88, Type (0, 0), BuildingBlock: TEMPAE_clean_linker_10, # of connection points: 2
#     Edge 89, Type (0, 0), BuildingBlock: TEMPAE_clean_linker_10, # of connection points: 2
#     Edge 90, Type (0, 0), BuildingBlock: TEMPAE_clean_linker_10, # of connection points: 2
#     Edge 91, Type (0, 0), BuildingBlock: TEMPAE_clean_linker_10, # of connection points: 2
#     Edge 92, Type (0, 0), BuildingBlock: TEMPAE_clean_linker_10, # of connection points: 2
#     Edge 93, Type (0, 0), BuildingBlock: TEMPAE_clean_linker_10, # of connection points: 2
#     Edge 94, Type (0, 0), BuildingBlock: TEMPAE_clean_linker_10, # of connection points: 2
#     Edge 95, Type (0, 0), BuildingBlock: TEMPAE_clean_linker_10, # of connection points: 2
# Relax obj value: 0.074
# Max RMSD: 0.135
# Mean RMSD: 0.135
data_MOF--net-uox--node1-QUQFOY_clean_sbu_1--edge1-TEMPAE_clean_linker_10
_symmetry_space_group_name_H-M    P1
_symmetry_Int_Tables_number       1
_symmetry_cell_setting            triclinic
loop_
_symmetry_equiv_pos_as_xyz
'x, y, z'
_cell_length_a     47.339394
_cell_length_b     47.355133
_cell_length_c     87.437505
_cell_angle_alpha  89.994467
_cell_angle_beta   90.014947
_cell_angle_gamma 90.00591
loop_
_atom_site_label
_atom_site_type_symbol
_atom_site_fract_x
_atom_site_fract_y
_atom_site_fract_z
_atom_type_partial_charge
O0 O 0.37665 0.00913 0.16737 0.0
Cd1 Cd 0.39375 0.04325 0.17858 0.0
Cd2 Cd 0.42532 0.04581 0.15066 0.0
O3 O 0.40522 0.00748 0.1474 0.0
O4 O 0.38118 0.03947 0.20026 0.0
O5 O 0.42593 0.03588 0.19325 0.0
C6 C 0.40713 0.03488 0.20395 0.0
C7 C 0.47027 0.05259 0.14008 0.0
C8 C 0.38494 0.99721 0.15515 0.0
C9 C 0.38491 0.09398 0.15892 0.0
O10 O 0.40158 0.08227 0.14948 0.0
O11 O 0.37959 0.08255 0.17175 0.0
O12 O 0.44807 0.05058 0.13167 0.0
O13 O 0.4673 0.04922 0.15464 0.0
O14 O 0.23476 0.13312 0.40882 0.0
Cd15 Cd 0.2009 0.1551 0.41792 0.0
Cd16 Cd 0.2069 0.18147 0.39187 0.0
O17 O 0.2473 0.16581 0.3923 0.0
O18 O 0.19931 0.14317 0.43978 0.0
O19 O 0.21076 0.18649 0.4326 0.0
C20 C 0.20761 0.1682 0.44344 0.0
C21 C 0.19629 0.22883 0.38843 0.0
C22 C 0.25247 0.14282 0.39922 0.0
C23 C 0.15734 0.14437 0.39455 0.0
O24 O 0.17563 0.15382 0.38525 0.0
O25 O 0.16116 0.14684 0.40889 0.0
O26 O 0.20598 0.21373 0.37733 0.0
O27 O 0.19391 0.21732 0.40178 0.0
O28 O 0.11128 -0.00051 0.65432 0.0
Cd29 Cd 0.10269 0.96482 0.66781 0.0
Cd30 Cd 0.07082 0.95149 0.64031 0.0
O31 O 0.09103 0.98724 0.6325 0.0
O32 O 0.11995 0.97712 0.68751 0.0
O33 O 0.07449 0.96737 0.68521 0.0
C34 C 0.09525 0.97585 0.69362 0.0
C35 C 0.02479 0.94252 0.63181 0.0
C36 C 0.10583 0.00428 0.64035 0.0
C37 C 0.11483 0.90967 0.65189 0.0
O38 O 0.09469 0.91569 0.64288 0.0
O39 O 0.12224 0.92671 0.66241 0.0
O40 O 0.04623 0.94029 0.62285 0.0
O41 O 0.02929 0.95091 0.64565 0.0
O42 O 0.26009 0.86949 0.91589 0.0
Cd43 Cd 0.29445 0.85163 0.92647 0.0
Cd44 Cd 0.29526 0.82056 0.89912 0.0
O45 O 0.25665 0.84043 0.89622 0.0
O46 O 0.29182 0.86375 0.94821 0.0
O47 O 0.28723 0.8192 0.94094 0.0
C48 C 0.28698 0.83779 0.95176 0.0
C49 C 0.30193 0.77476 0.88985 0.0
C50 C 0.24717 0.86104 0.904 0.0
C51 C 0.34423 0.86031 0.90631 0.0
O52 O 0.33173 0.84408 0.89694 0.0
O53 O 0.33361 0.86538 0.91936 0.0
O54 O 0.29917 0.79599 0.88079 0.0
O55 O 0.29913 0.77917 0.90435 0.0
O56 O 0.38436 0.98876 0.348 0.0
Cd57 Cd 0.40397 0.95493 0.33726 0.0
Cd58 Cd 0.43012 0.95509 0.36536 0.0
O59 O 0.41356 0.99483 0.36738 0.0
O60 O 0.38954 0.95694 0.31582 0.0
O61 O 0.43433 0.96421 0.32171 0.0
C62 C 0.41469 0.96341 0.31146 0.0
C63 C 0.47649 0.94549 0.37269 0.0
C64 C 0.39259 0.00306 0.3595 0.0
C65 C 0.39124 0.90713 0.35812 0.0
O66 O 0.40232 0.92221 0.3685 0.0
O67 O 0.39289 0.91442 0.34416 0.0
O68 O 0.45696 0.94999 0.38265 0.0
O69 O 0.46997 0.94762 0.35838 0.0
O70 O 0.25584 0.13422 0.58705 0.0
Cd71 Cd 0.29115 0.14788 0.57544 0.0
Cd72 Cd 0.29841 0.1782 0.60383 0.0
O73 O 0.26161 0.15687 0.60901 0.0
O74 O 0.28526 0.13477 0.554 0.0
O75 O 0.28571 0.17993 0.56044 0.0
C76 C 0.28258 0.16083 0.55003 0.0
C77 C 0.3058 0.22342 0.61385 0.0
C78 C 0.24767 0.14014 0.60051 0.0
C79 C 0.34419 0.13716 0.59358 0.0
O80 O 0.33508 0.15528 0.60305 0.0
O81 O 0.33001 0.13088 0.58169 0.0
O82 O 0.30601 0.2013 0.62239 0.0
O83 O 0.29985 0.22015 0.59954 0.0
O84 O 0.12101 0.00611 0.84305 0.0
Cd85 Cd 0.10798 0.04011 0.83034 0.0
Cd86 Cd 0.07456 0.04697 0.85798 0.0
O87 O 0.09362 0.00896 0.86344 0.0
O88 O 0.12444 0.03078 0.81 0.0
O89 O 0.07851 0.03584 0.8137 0.0
C90 C 0.09915 0.02987 0.8046 0.0
C91 C 0.02917 0.05579 0.86748 0.0
C92 C 0.11285 0.99649 0.85586 0.0
C93 C 0.1174 0.09265 0.84839 0.0
O94 O 0.0989 0.08313 0.85757 0.0
O95 O 0.12428 0.07895 0.83646 0.0
O96 O 0.05094 0.05523 0.87628 0.0
O97 O 0.03286 0.05002 0.85319 0.0
O98 O 0.23901 0.86886 0.09501 0.0
Cd99 Cd 0.20528 0.85149 0.08362 0.0
Cd100 Cd 0.20211 0.82031 0.11083 0.0
O101 O 0.24028 0.84023 0.11495 0.0
O102 O 0.20948 0.86411 0.06203 0.0
O103 O 0.21289 0.81932 0.06901 0.0
C104 C 0.21402 0.83817 0.05834 0.0
C105 C 0.19476 0.77413 0.11939 0.0
C106 C 0.25062 0.86066 0.10734 0.0
C107 C 0.15415 0.86059 0.10272 0.0
O108 O 0.16564 0.84397 0.11227 0.0
O109 O 0.16587 0.86576 0.08996 0.0
O110 O 0.19651 0.79503 0.12875 0.0
O111 O 0.19888 0.77911 0.10504 0.0
O112 O 0.61786 0.98664 0.84239 0.0
Cd113 Cd 0.59636 0.95308 0.83252 0.0
Cd114 Cd 0.57195 0.9554 0.86055 0.0
O115 O 0.58835 0.99538 0.8613 0.0
O116 O 0.6081 0.95425 0.81063 0.0
O117 O 0.56437 0.96295 0.81813 0.0
C118 C 0.58265 0.9615 0.80719 0.0
C119 C 0.52649 0.94594 0.86936 0.0
C120 C 0.60971 0.00232 0.85336 0.0
C121 C 0.60968 0.90647 0.8537 0.0
O122 O 0.59999 0.92279 0.86392 0.0
O123 O 0.60677 0.91255 0.83963 0.0
O124 O 0.54685 0.9515 0.87865 0.0
O125 O 0.53157 0.94708 0.85485 0.0
O126 O 0.75103 0.86381 0.59563 0.0
Cd127 Cd 0.78503 0.84903 0.58346 0.0
Cd128 Cd 0.79023 0.81797 0.61183 0.0
O129 O 0.75241 0.83791 0.61661 0.0
O130 O 0.77664 0.86532 0.56296 0.0
O131 O 0.78034 0.81936 0.56694 0.0
C132 C 0.77517 0.83998 0.55769 0.0
C133 C 0.79771 0.77229 0.62123 0.0
C134 C 0.74073 0.85687 0.6085 0.0
C135 C 0.83715 0.85895 0.60194 0.0
O136 O 0.82674 0.84182 0.61161 0.0
O137 O 0.82421 0.86454 0.58956 0.0
O138 O 0.79717 0.79391 0.63014 0.0
O139 O 0.79271 0.77637 0.60688 0.0
O140 O 0.87947 0.01319 0.33886 0.0
Cd141 Cd 0.89698 0.0486 0.32926 0.0
Cd142 Cd 0.92959 0.04643 0.35447 0.0
O143 O 0.9124 0.00633 0.35628 0.0
O144 O 0.88477 0.04808 0.30749 0.0
O145 O 0.92928 0.04228 0.31465 0.0
C146 C 0.91064 0.04283 0.30385 0.0
C147 C 0.97755 0.05456 0.35814 0.0
C148 C 0.89025 0.99812 0.34936 0.0
C149 C 0.88861 0.09472 0.35184 0.0
O150 O 0.90492 0.08063 0.3605 0.0
O151 O 0.88396 0.08675 0.33819 0.0
O152 O 0.96147 0.04709 0.36932 0.0
O153 O 0.96671 0.05601 0.3446 0.0
O154 O 0.73519 0.12606 0.09093 0.0
Cd155 Cd 0.70134 0.14401 0.07991 0.0
Cd156 Cd 0.70009 0.17592 0.10743 0.0
O157 O 0.73772 0.15473 0.11082 0.0
O158 O 0.70439 0.13108 0.05828 0.0
O159 O 0.70934 0.17579 0.06511 0.0
C160 C 0.70967 0.15683 0.05448 0.0
C161 C 0.69557 0.22178 0.11711 0.0
C162 C 0.74742 0.13412 0.10311 0.0
C163 C 0.65065 0.13686 0.0998 0.0
O164 O 0.66286 0.15347 0.1091 0.0
O165 O 0.66184 0.13096 0.08699 0.0
O166 O 0.69677 0.20013 0.12596 0.0
O167 O 0.69827 0.21762 0.10258 0.0
O168 O 0.61425 0.01019 0.6647 0.0
Cd169 Cd 0.59616 0.04448 0.67519 0.0
Cd170 Cd 0.56603 0.04542 0.6464 0.0
O171 O 0.58663 0.00701 0.64438 0.0
O172 O 0.60891 0.04184 0.69688 0.0
O173 O 0.56423 0.03695 0.69001 0.0
C174 C 0.58313 0.03669 0.70067 0.0
C175 C 0.52165 0.05051 0.6348 0.0
C176 C 0.60658 0.99741 0.65263 0.0
C177 C 0.60507 0.09464 0.65498 0.0
O178 O 0.58925 0.08237 0.64531 0.0
O179 O 0.60976 0.0837 0.66801 0.0
O180 O 0.54444 0.04842 0.62688 0.0
O181 O 0.52379 0.04837 0.64948 0.0
O182 O 0.7502 0.86423 0.4084 0.0
Cd183 Cd 0.71587 0.85026 0.42057 0.0
Cd184 Cd 0.71001 0.81845 0.3925 0.0
O185 O 0.74776 0.8383 0.38746 0.0
O186 O 0.72439 0.86634 0.4411 0.0
O187 O 0.71987 0.82046 0.43706 0.0
C188 C 0.72534 0.84095 0.44634 0.0
C189 C 0.70288 0.77269 0.38316 0.0
C190 C 0.76005 0.85702 0.39547 0.0
C191 C 0.66349 0.85997 0.40223 0.0
O192 O 0.67334 0.8421 0.39279 0.0
O193 O 0.67696 0.86629 0.41433 0.0
O194 O 0.70308 0.79431 0.37424 0.0
O195 O 0.70787 0.77685 0.3975 0.0
O196 O 0.87401 0.98531 0.16252 0.0
Cd197 Cd 0.89268 0.95232 0.17391 0.0
Cd198 Cd 0.92441 0.95027 0.14686 0.0
O199 O 0.90342 0.98786 0.14296 0.0
O200 O 0.8811 0.95667 0.19566 0.0
O201 O 0.92533 0.96157 0.18788 0.0
C202 C 0.90704 0.9625 0.19884 0.0
C203 C 0.97037 0.94485 0.13758 0.0
C204 C 0.88239 0.99743 0.15038 0.0
C205 C 0.88578 0.90081 0.15491 0.0
O206 O 0.90208 0.91295 0.14544 0.0
O207 O 0.87992 0.91231 0.16764 0.0
O208 O 0.94894 0.94599 0.12855 0.0
O209 O 0.96597 0.94837 0.15203 0.0
O210 O 0.76041 0.12942 0.91032 0.0
Cd211 Cd 0.79354 0.14699 0.92218 0.0
Cd212 Cd 0.79657 0.1795 0.89516 0.0
O213 O 0.75922 0.15857 0.8906 0.0
O214 O 0.78928 0.1331 0.94358 0.0
O215 O 0.78473 0.17811 0.93726 0.0
C216 C 0.7839 0.1587 0.94764 0.0
C217 C 0.802 0.22611 0.8868 0.0
C218 C 0.74904 0.13774 0.89794 0.0
C219 C 0.84545 0.14027 0.90318 0.0
O220 O 0.83377 0.15701 0.89376 0.0
O221 O 0.83353 0.13422 0.91577 0.0
O222 O 0.80131 0.20527 0.87737 0.0
O223 O 0.79816 0.22071 0.90113 0.0
O224 O 0.88553 0.50278 0.65853 0.0
Cd225 Cd 0.89796 0.53655 0.67163 0.0
Cd226 Cd 0.93012 0.54495 0.64349 0.0
O227 O 0.91131 0.50703 0.63761 0.0
O228 O 0.88074 0.52604 0.69166 0.0
O229 O 0.9267 0.53205 0.68868 0.0
C230 C 0.90575 0.52534 0.69741 0.0
C231 C 0.97561 0.55494 0.63441 0.0
C232 C 0.89286 0.49388 0.64541 0.0
C233 C 0.88687 0.58946 0.65399 0.0
O234 O 0.90506 0.58052 0.64446 0.0
O235 O 0.88094 0.57535 0.66594 0.0
O236 O 0.95405 0.5545 0.62546 0.0
O237 O 0.97167 0.54836 0.64859 0.0
O238 O 0.73995 0.63242 0.91284 0.0
Cd239 Cd 0.70542 0.65404 0.92149 0.0
Cd240 Cd 0.71132 0.67927 0.89483 0.0
O241 O 0.75223 0.66509 0.89626 0.0
O242 O 0.70379 0.64274 0.94344 0.0
O243 O 0.71433 0.68608 0.93594 0.0
C244 C 0.71149 0.66804 0.94693 0.0
C245 C 0.70004 0.72588 0.88939 0.0
C246 C 0.75785 0.64252 0.90347 0.0
C247 C 0.66232 0.64152 0.89807 0.0
O248 O 0.68076 0.65037 0.88868 0.0
O249 O 0.6659 0.645 0.91237 0.0
O250 O 0.71047 0.70952 0.87904 0.0
O251 O 0.69722 0.71611 0.90311 0.0
O252 O 0.61665 0.49267 0.1569 0.0
Cd253 Cd 0.60431 0.459 0.17009 0.0
Cd254 Cd 0.57019 0.45109 0.14277 0.0
O255 O 0.5893 0.4886 0.13656 0.0
O256 O 0.62165 0.46912 0.19012 0.0
O257 O 0.57562 0.46343 0.18711 0.0
C258 C 0.59663 0.46983 0.19588 0.0
C259 C 0.52441 0.44222 0.13383 0.0
C260 C 0.60848 0.50155 0.14393 0.0
C261 C 0.61341 0.40589 0.15246 0.0
O262 O 0.59451 0.41499 0.14339 0.0
O263 O 0.62065 0.42006 0.16417 0.0
O264 O 0.54588 0.44211 0.12483 0.0
O265 O 0.52864 0.44862 0.14801 0.0
O266 O 0.76144 0.36666 0.4175 0.0
Cd267 Cd 0.79537 0.34522 0.42704 0.0
Cd268 Cd 0.79165 0.32019 0.39966 0.0
O269 O 0.7512 0.33566 0.39956 0.0
O270 O 0.79472 0.35636 0.44902 0.0
O271 O 0.78584 0.31285 0.44119 0.0
C272 C 0.78743 0.33084 0.45227 0.0
C273 C 0.80183 0.27462 0.39131 0.0
C274 C 0.74484 0.3576 0.40716 0.0
C275 C 0.84063 0.35846 0.40521 0.0
O276 O 0.8235 0.34877 0.39536 0.0
O277 O 0.83562 0.35547 0.41939 0.0
O278 O 0.79512 0.29436 0.38185 0.0
O279 O 0.80136 0.28033 0.40576 0.0
O280 O 0.88542 0.49667 0.84648 0.0
Cd281 Cd 0.89742 0.46149 0.8344 0.0
Cd282 Cd 0.9313 0.45588 0.86077 0.0
O283 O 0.91491 0.49518 0.86596 0.0
O284 O 0.87992 0.46966 0.81414 0.0
O285 O 0.92598 0.46434 0.81721 0.0
C286 C 0.90492 0.47008 0.80835 0.0
C287 C 0.97876 0.44619 0.86553 0.0
C288 C 0.89505 0.50733 0.85874 0.0
C289 C 0.88671 0.41119 0.85433 0.0
O290 O 0.90527 0.42129 0.86331 0.0
O291 O 0.88089 0.42339 0.84175 0.0
O292 O 0.96121 0.45037 0.87654 0.0
O293 O 0.96968 0.4485 0.85165 0.0
O294 O 0.76064 0.62934 0.08779 0.0
Cd295 Cd 0.79488 0.65079 0.07858 0.0
Cd296 Cd 0.79115 0.67457 0.10671 0.0
O297 O 0.75067 0.65929 0.1063 0.0
O298 O 0.79444 0.63979 0.05656 0.0
O299 O 0.78566 0.68327 0.06441 0.0
C300 C 0.78727 0.66533 0.05331 0.0
C301 C 0.80094 0.7195 0.11621 0.0
C302 C 0.74409 0.63796 0.09826 0.0
C303 C 0.84003 0.63646 0.10044 0.0
O304 O 0.82296 0.64567 0.11044 0.0
O305 O 0.83505 0.64016 0.0863 0.0
O306 O 0.79427 0.69895 0.12516 0.0
O307 O 0.8008 0.71492 0.10164 0.0
O308 O 0.61987 0.50158 0.34587 0.0
Cd309 Cd 0.60784 0.53512 0.33247 0.0
Cd310 Cd 0.57364 0.54404 0.35912 0.0
O311 O 0.59215 0.50662 0.36598 0.0
O312 O 0.62434 0.5244 0.31233 0.0
O313 O 0.57851 0.53084 0.31577 0.0
C314 C 0.59911 0.52401 0.30683 0.0
C315 C 0.5273 0.55336 0.36694 0.0
C316 C 0.61134 0.49321 0.35888 0.0
C317 C 0.61746 0.58858 0.34965 0.0
O318 O 0.59827 0.57993 0.35867 0.0
O319 O 0.62469 0.57401 0.33808 0.0
O320 O 0.5481 0.55368 0.37641 0.0
O321 O 0.53253 0.54651 0.35293 0.0
O322 O 0.73653 0.36636 0.59239 0.0
Cd323 Cd 0.70225 0.34475 0.58336 0.0
Cd324 Cd 0.70649 0.32123 0.61121 0.0
O325 O 0.74717 0.33626 0.61073 0.0
O326 O 0.70226 0.3558 0.56136 0.0
O327 O 0.7114 0.31234 0.56914 0.0
C328 C 0.70952 0.3303 0.55807 0.0
C329 C 0.69564 0.27579 0.61955 0.0
C330 C 0.75343 0.35772 0.6027 0.0
C331 C 0.65758 0.35926 0.60537 0.0
O332 O 0.675 0.35034 0.61528 0.0
O333 O 0.66219 0.35523 0.59122 0.0
O334 O 0.7028 0.29536 0.62903 0.0
O335 O 0.69608 0.28158 0.60511 0.0
O336 O 0.11309 0.48873 0.34268 0.0
Cd337 Cd 0.0917 0.45495 0.33304 0.0
Cd338 Cd 0.06598 0.45868 0.36017 0.0
O339 O 0.08114 0.49929 0.36003 0.0
O340 O 0.10455 0.45453 0.31129 0.0
O341 O 0.06068 0.46459 0.31801 0.0
C342 C 0.07946 0.46218 0.30737 0.0
C343 C 0.01942 0.44791 0.36626 0.0
C344 C 0.10359 0.50547 0.35283 0.0
C345 C 0.1039 0.40995 0.35552 0.0
O346 O 0.09456 0.42731 0.36535 0.0
O347 O 0.10085 0.41485 0.34131 0.0
O348 O 0.03672 0.45713 0.3765 0.0
O349 O 0.02821 0.44599 0.3523 0.0
O350 O 0.25371 0.36701 0.0923 0.0
Cd351 Cd 0.28769 0.35004 0.08085 0.0
Cd352 Cd 0.29069 0.31845 0.10898 0.0
O353 O 0.25253 0.33875 0.11243 0.0
O354 O 0.28396 0.36378 0.05938 0.0
O355 O 0.28034 0.31869 0.06564 0.0
C356 C 0.27955 0.33805 0.05524 0.0
C357 C 0.29759 0.2735 0.11954 0.0
C358 C 0.24209 0.35892 0.10466 0.0
C359 C 0.33897 0.35839 0.10029 0.0
O360 O 0.32733 0.34195 0.10987 0.0
O361 O 0.32724 0.36369 0.08754 0.0
O362 O 0.29578 0.2957 0.12796 0.0
O363 O 0.29388 0.27647 0.10499 0.0
O364 O 0.38301 0.511 0.84318 0.0
Cd365 Cd 0.39962 0.5452 0.8319 0.0
Cd366 Cd 0.43265 0.54733 0.85764 0.0
O367 O 0.41459 0.50823 0.86165 0.0
O368 O 0.38566 0.54184 0.81045 0.0
O369 O 0.43079 0.53773 0.81665 0.0
C370 C 0.4113 0.53688 0.8063 0.0
C371 C 0.48065 0.55505 0.86185 0.0
C372 C 0.39299 0.49844 0.85483 0.0
C373 C 0.39108 0.59465 0.85257 0.0
O374 O 0.40807 0.58249 0.86169 0.0
O375 O 0.38603 0.58424 0.83945 0.0
O376 O 0.46363 0.55001 0.873 0.0
O377 O 0.4707 0.55451 0.84809 0.0
O378 O 0.24484 0.63245 0.59267 0.0
Cd379 Cd 0.21114 0.64971 0.58112 0.0
Cd380 Cd 0.20827 0.68163 0.60921 0.0
O381 O 0.24586 0.66046 0.61289 0.0
O382 O 0.2145 0.6348 0.55984 0.0
O383 O 0.21926 0.68008 0.56542 0.0
C384 C 0.21961 0.66018 0.55532 0.0
C385 C 0.20336 0.72753 0.61891 0.0
C386 C 0.25627 0.64027 0.60513 0.0
C387 C 0.15947 0.64243 0.60063 0.0
O388 O 0.17105 0.65896 0.61021 0.0
O389 O 0.1714 0.6368 0.58797 0.0
O390 O 0.2043 0.70583 0.62775 0.0
O391 O 0.20645 0.72336 0.60441 0.0
O392 O 0.11527 0.50747 0.16372 0.0
Cd393 Cd 0.09764 0.54183 0.17441 0.0
Cd394 Cd 0.06657 0.54303 0.14735 0.0
O395 O 0.08506 0.50372 0.14461 0.0
O396 O 0.11051 0.53916 0.1961 0.0
O397 O 0.06576 0.53456 0.18929 0.0
C398 C 0.08471 0.53417 0.19993 0.0
C399 C 0.01952 0.55064 0.1405 0.0
C400 C 0.10616 0.49434 0.15205 0.0
C401 C 0.10734 0.59089 0.15354 0.0
O402 O 0.09148 0.57824 0.14402 0.0
O403 O 0.11126 0.5809 0.16687 0.0
O404 O 0.03847 0.54516 0.13037 0.0
O405 O 0.02693 0.55048 0.15472 0.0
O406 O 0.24268 0.36768 0.91088 0.0
Cd407 Cd 0.20862 0.34661 0.9206 0.0
Cd408 Cd 0.2115 0.32153 0.89231 0.0
O409 O 0.25138 0.33826 0.89191 0.0
O410 O 0.20851 0.35974 0.94229 0.0
O411 O 0.21764 0.31559 0.93578 0.0
C412 C 0.21538 0.33452 0.94634 0.0
C413 C 0.20317 0.2758 0.88349 0.0
C414 C 0.25841 0.35946 0.89995 0.0
C415 C 0.16213 0.35888 0.89884 0.0
O416 O 0.17853 0.3491 0.88867 0.0
O417 O 0.16828 0.35647 0.91293 0.0
O418 O 0.20873 0.29619 0.87422 0.0
O419 O 0.20353 0.28109 0.89799 0.0
O420 O 0.3791 0.4878 0.6637 0.0
Cd421 Cd 0.3972 0.45351 0.67423 0.0
Cd422 Cd 0.42944 0.45411 0.64821 0.0
O423 O 0.41122 0.49357 0.64571 0.0
O424 O 0.38446 0.45536 0.69594 0.0
O425 O 0.42901 0.4614 0.689 0.0
C426 C 0.41016 0.46114 0.69969 0.0
C427 C 0.47709 0.44667 0.64285 0.0
C428 C 0.38916 0.50199 0.65263 0.0
C429 C 0.38912 0.40546 0.65269 0.0
O430 O 0.40488 0.41916 0.64356 0.0
O431 O 0.38483 0.41437 0.66621 0.0
O432 O 0.45938 0.4529 0.63219 0.0
O433 O 0.46808 0.44604 0.65679 0.0
O434 O 0.25699 0.6278 0.40998 0.0
Cd435 Cd 0.29184 0.64427 0.42087 0.0
Cd436 Cd 0.29325 0.67704 0.39497 0.0
O437 O 0.25387 0.65937 0.39151 0.0
O438 O 0.28957 0.63064 0.44243 0.0
O439 O 0.28532 0.67568 0.4361 0.0
C440 C 0.28512 0.65638 0.44655 0.0
C441 C 0.30135 0.72487 0.39075 0.0
C442 C 0.24408 0.63792 0.39847 0.0
C443 C 0.34082 0.63584 0.39972 0.0
O444 O 0.32818 0.65242 0.39058 0.0
O445 O 0.33081 0.631 0.41296 0.0
O446 O 0.29561 0.70802 0.37961 0.0
O447 O 0.30115 0.71488 0.4045 0.0
C448 C 0.40279 0.96038 0.28376 0.0
C449 C 0.41996 0.97142 0.29535 0.0
C450 C 0.40474 0.97033 0.26868 0.0
C451 C 0.42377 0.99249 0.26518 0.0
C452 C 0.44193 0.00304 0.27674 0.0
C453 C 0.44005 0.9921 0.29168 0.0
C454 C 0.38551 0.95793 0.25664 0.0
C455 C 0.46208 0.02702 0.27357 0.0
C456 C 0.43583 0.00734 0.22283 0.0
C457 C 0.41441 0.02702 0.21984 0.0
C458 C 0.43987 0.99648 0.23766 0.0
C459 C 0.42257 0.00616 0.24981 0.0
C460 C 0.40213 0.02737 0.24696 0.0
C461 C 0.398 0.0372 0.23198 0.0
C462 C 0.46144 0.97346 0.24013 0.0
C463 C 0.38373 0.03888 0.25962 0.0
H464 H 0.38736 0.94425 0.28654 0.0
H465 H 0.45319 0.00085 0.30066 0.0
H466 H 0.36946 0.97381 0.25324 0.0
H467 H 0.39776 0.95236 0.24625 0.0
H468 H 0.37435 0.93875 0.26077 0.0
H469 H 0.47673 0.03084 0.28328 0.0
H470 H 0.47469 0.02269 0.26314 0.0
H471 H 0.44987 0.04663 0.27143 0.0
H472 H 0.44837 0.99925 0.21343 0.0
H473 H 0.38154 0.05256 0.22971 0.0
H474 H 0.45041 0.95331 0.24264 0.0
H475 H 0.47499 0.97838 0.25013 0.0
H476 H 0.47512 0.97032 0.22995 0.0
H477 H 0.36888 0.02226 0.26353 0.0
H478 H 0.37123 0.05749 0.25587 0.0
H479 H 0.39687 0.04506 0.26958 0.0
C480 C 0.28189 0.14995 0.52217 0.0
C481 C 0.27434 0.168 0.53418 0.0
C482 C 0.27145 0.1542 0.50733 0.0
C483 C 0.25227 0.17658 0.50451 0.0
C484 C 0.24529 0.19546 0.5165 0.0
C485 C 0.25673 0.19115 0.53118 0.0
C486 C 0.28007 0.13399 0.49481 0.0
C487 C 0.22451 0.2192 0.51405 0.0
C488 C 0.23843 0.1927 0.46251 0.0
C489 C 0.21581 0.17446 0.45941 0.0
C490 C 0.2499 0.19463 0.47733 0.0
C491 C 0.23795 0.17847 0.48934 0.0
C492 C 0.2138 0.16164 0.48643 0.0
C493 C 0.2033 0.15951 0.47146 0.0
C494 C 0.27595 0.21239 0.47986 0.0
C495 C 0.19991 0.14467 0.49897 0.0
H496 H 0.29565 0.13213 0.52444 0.0
H497 H 0.25065 0.20499 0.54049 0.0
H498 H 0.26167 0.12092 0.49139 0.0
H499 H 0.2871 0.14584 0.48454 0.0
H500 H 0.29739 0.11966 0.49846 0.0
H501 H 0.22351 0.23369 0.52403 0.0
H502 H 0.23016 0.23159 0.50373 0.0
H503 H 0.20315 0.21024 0.5121 0.0
H504 H 0.24832 0.20408 0.45318 0.0
H505 H 0.1857 0.14551 0.4691 0.0
H506 H 0.29437 0.19834 0.48181 0.0
H507 H 0.27355 0.22575 0.49019 0.0
H508 H 0.28063 0.22621 0.46991 0.0
H509 H 0.21401 0.12707 0.50242 0.0
H510 H 0.17935 0.13561 0.49528 0.0
H511 H 0.19635 0.15803 0.50921 0.0
C512 C 0.11241 0.00116 0.78195 0.0
C513 C 0.09436 0.02112 0.78859 0.0
C514 C 0.10923 0.99299 0.76664 0.0
C515 C 0.08806 0.00584 0.75755 0.0
C516 C 0.06945 0.02577 0.76427 0.0
C517 C 0.07253 0.03284 0.77982 0.0
C518 C 0.12902 0.97109 0.76009 0.0
C519 C 0.04716 0.04053 0.75487 0.0
C520 C 0.10763 0.00682 0.71554 0.0
C521 C 0.09121 0.98473 0.70966 0.0
C522 C 0.10549 0.01495 0.73091 0.0
C523 C 0.08719 -4e-05 0.74081 0.0
C524 C 0.07011 0.97793 0.73487 0.0
C525 C 0.07199 0.97087 0.71925 0.0
C526 C 0.12349 0.03908 0.73663 0.0
C527 C 0.05094 0.96093 0.74513 0.0
H528 H 0.12907 0.99178 0.78879 0.0
H529 H 0.05862 0.04835 0.78496 0.0
H530 H 0.11686 0.95441 0.75408 0.0
H531 H 0.14321 0.98108 0.75157 0.0
H532 H 0.14227 0.961 0.76904 0.0
H533 H 0.03317 0.05402 0.76198 0.0
H534 H 0.05751 0.05399 0.74612 0.0
H535 H 0.03398 0.02489 0.74868 0.0
H536 H 0.12224 0.0178 0.70806 0.0
H537 H 0.05936 0.95371 0.71471 0.0
H538 H 0.13995 0.03088 0.7445 0.0
H539 H 0.1104 0.05429 0.74319 0.0
H540 H 0.13411 0.05055 0.72716 0.0
H541 H 0.0639 0.94869 0.75337 0.0
H542 H 0.0375 0.94598 0.73858 0.0
H543 H 0.0371 0.97509 0.7519 0.0
C544 C 0.2902 0.84644 0.97975 0.0
C545 C 0.27938 0.8304 0.96764 0.0
C546 C 0.28009 0.84288 0.9947 0.0
C547 C 0.258 0.82339 0.99752 0.0
C548 C 0.24791 0.80616 0.98545 0.0
C549 C 0.25901 0.80965 0.97064 0.0
C550 C 0.29202 0.86114 0.00731 0.0
C551 C 0.22406 0.78552 0.98791 0.0
C552 C 0.24162 0.80956 0.03949 0.0
C553 C 0.22196 0.83099 0.04248 0.0
C554 C 0.25282 0.8059 0.02471 0.0
C555 C 0.24355 0.82365 0.01266 0.0
C556 C 0.22221 0.84396 0.01549 0.0
C557 C 0.212 0.84765 0.0304 0.0
C558 C 0.27587 0.78437 0.02224 0.0
C559 C 0.21115 0.86283 0.00291 0.0
H560 H 0.30611 0.86236 0.97746 0.0
H561 H 0.25046 0.79738 0.96124 0.0
H562 H 0.27603 0.877 0.01082 0.0
H563 H 0.29709 0.84814 0.0175 0.0
H564 H 0.31141 0.87251 0.00366 0.0
H565 H 0.22124 0.77113 0.97799 0.0
H566 H 0.22777 0.77265 0.99832 0.0
H567 H 0.20409 0.79736 0.98968 0.0
H568 H 0.2495 0.7968 0.04886 0.0
H569 H 0.19661 0.86408 0.03268 0.0
H570 H 0.29627 0.79543 0.02045 0.0
H571 H 0.27164 0.77166 0.01183 0.0
H572 H 0.27815 0.76988 0.03216 0.0
H573 H 0.22786 0.87795 0.99942 0.0
H574 H 0.1923 0.87506 0.00656 0.0
H575 H 0.2055 0.85012 0.9927 0.0
C576 C 0.55547 0.99089 0.78846 0.0
C577 C 0.57569 0.96991 0.79134 0.0
C578 C 0.55228 0.00243 0.77372 0.0
C579 C 0.56928 0.99225 0.76157 0.0
C580 C 0.58834 0.96973 0.76427 0.0
C581 C 0.59157 0.95911 0.77915 0.0
C582 C 0.53208 0.02669 0.77138 0.0
C583 C 0.60639 0.95775 0.7516 0.0
C584 C 0.55477 0.00914 0.7197 0.0
C585 C 0.57628 0.02868 0.71659 0.0
C586 C 0.55137 0.99781 0.73447 0.0
C587 C 0.5695 0.00677 0.74643 0.0
C588 C 0.58997 0.02792 0.74351 0.0
C589 C 0.59336 0.03831 0.7286 0.0
C590 C 0.52964 0.97498 0.73703 0.0
C591 C 0.60927 0.03862 0.75598 0.0
H592 H 0.54332 -0.00055 0.79789 0.0
H593 H 0.60708 0.94275 0.78132 0.0
H594 H 0.54427 0.04639 0.76945 0.0
H595 H 0.51882 0.02316 0.7611 0.0
H596 H 0.51805 0.02989 0.78142 0.0
H597 H 0.61764 0.93824 0.75517 0.0
H598 H 0.59323 0.95286 0.74144 0.0
H599 H 0.62234 0.97363 0.74806 0.0
H600 H 0.54169 0.00148 0.71041 0.0
H601 H 0.60988 0.05357 0.72625 0.0
H602 H 0.51704 0.97941 0.74745 0.0
H603 H 0.54053 0.9545 0.73885 0.0
H604 H 0.51506 0.97275 0.72714 0.0
H605 H 0.59686 0.0444 0.76628 0.0
H606 H 0.62171 0.05731 0.75228 0.0
H607 H 0.62422 0.02169 0.75936 0.0
C608 C 0.7203 0.81525 0.47127 0.0
C609 C 0.73361 0.83595 0.46238 0.0
C610 C 0.72667 0.81242 0.48693 0.0
C611 C 0.74751 0.83005 0.49361 0.0
C612 C 0.76204 0.84989 0.4844 0.0
C613 C 0.75453 0.85294 0.46898 0.0
C614 C 0.71013 0.79163 0.49646 0.0
C615 C 0.78495 0.86855 0.49092 0.0
C616 C 0.74594 0.85257 0.53516 0.0
C617 C 0.76666 0.83521 0.54167 0.0
C618 C 0.7383 0.8498 0.51975 0.0
C619 C 0.7525 0.82988 0.51044 0.0
C620 C 0.7731 0.81185 0.51704 0.0
C621 C 0.7796 0.81441 0.5327 0.0
C622 C 0.71564 0.86887 0.51333 0.0
C623 C 0.78928 0.79094 0.50742 0.0
H624 H 0.70404 0.80219 0.46614 0.0
H625 H 0.76508 0.86872 0.46204 0.0
H626 H 0.7246 0.77806 0.5032 0.0
H627 H 0.69671 0.8033 0.50472 0.0
H628 H 0.69632 0.77792 0.48935 0.0
H629 H 0.79639 0.88043 0.48188 0.0
H630 H 0.77555 0.88397 0.49899 0.0
H631 H 0.80044 0.8557 0.49743 0.0
H632 H 0.73567 0.86842 0.54217 0.0
H633 H 0.7957 0.80106 0.53775 0.0
H634 H 0.69997 0.85635 0.50676 0.0
H635 H 0.72525 0.88431 0.50533 0.0
H636 H 0.70437 0.88075 0.52243 0.0
H637 H 0.77458 0.77771 0.50062 0.0
H638 H 0.80287 0.7769 0.51446 0.0
H639 H 0.80289 0.80252 0.4992 0.0
C640 C 0.93872 0.01475 0.28501 0.0
C641 C 0.91772 0.03491 0.28796 0.0
C642 C 0.94171 0.00283 0.27037 0.0
C643 C 0.92369 0.0118 0.25837 0.0
C644 C 0.90398 0.03375 0.26107 0.0
C645 C 0.90097 0.04475 0.27588 0.0
C646 C 0.96268 0.97921 0.26804 0.0
C647 C 0.88485 0.04449 0.24853 0.0
C648 C 0.9358 0.9923 0.21663 0.0
C649 C 0.91472 0.97191 0.21441 0.0
C650 C 0.93986 0.00485 0.23106 0.0
C651 C 0.92286 0.99625 0.24356 0.0
C652 C 0.90289 0.97428 0.24153 0.0
C653 C 0.8988 0.96268 0.22695 0.0
C654 C 0.96101 0.0285 0.23267 0.0
C655 C 0.88482 0.96393 0.25462 0.0
H656 H 0.95155 0.00693 0.29437 0.0
H657 H 0.88484 0.06047 0.27811 0.0
H658 H 0.95113 0.95892 0.26689 0.0
H659 H 0.97488 0.98241 0.25736 0.0
H660 H 0.97767 0.97737 0.27777 0.0
H661 H 0.87339 0.06396 0.25196 0.0
H662 H 0.89721 0.04901 0.23803 0.0
H663 H 0.86905 0.02804 0.24562 0.0
H664 H 0.94798 -0.00036 0.20692 0.0
H665 H 0.88262 0.94676 0.22527 0.0
H666 H 0.97438 0.02532 0.24295 0.0
H667 H 0.9496 0.04878 0.2342 0.0
H668 H 0.9749 0.03034 0.22248 0.0
H669 H 0.89815 0.95921 0.26475 0.0
H670 H 0.87268 0.94466 0.25157 0.0
H671 H 0.86965 0.98067 0.25798 0.0
C672 C 0.75508 0.18553 0.96674 0.0
C673 C 0.77543 0.16485 0.96356 0.0
C674 C 0.7437 0.18836 0.98153 0.0
C675 C 0.75352 0.17059 0.99345 0.0
C676 C 0.7754 0.15095 0.99044 0.0
C677 C 0.78576 0.14802 0.97549 0.0
C678 C 0.72001 0.20912 0.98418 0.0
C679 C 0.78705 0.13212 0.00287 0.0
C680 C 0.73781 0.18463 0.03549 0.0
C681 C 0.71774 0.16362 0.03857 0.0
C682 C 0.74902 0.18798 0.02069 0.0
C683 C 0.73933 0.17037 0.00867 0.0
C684 C 0.71768 0.15043 0.01159 0.0
C685 C 0.70747 0.14701 0.02653 0.0
C686 C 0.77245 0.20907 0.01814 0.0
C687 C 0.70617 0.13174 0.99905 0.0
H688 H 0.74689 0.19839 0.95749 0.0
H689 H 0.80165 0.13215 0.97307 0.0
H690 H 0.70007 0.19739 0.98623 0.0
H691 H 0.7242 0.22207 0.99449 0.0
H692 H 0.71687 0.22341 0.97425 0.0
H693 H 0.80615 0.12041 0.99909 0.0
H694 H 0.79253 0.14478 0.01313 0.0
H695 H 0.77076 0.11655 0.00635 0.0
H696 H 0.74596 0.19733 0.04481 0.0
H697 H 0.6918 0.13088 0.02887 0.0
H698 H 0.76813 0.22214 0.00788 0.0
H699 H 0.79254 0.19761 0.01605 0.0
H700 H 0.77541 0.22324 0.02814 0.0
H701 H 0.70059 0.14455 0.98886 0.0
H702 H 0.68718 0.1198 0.00277 0.0
H703 H 0.72259 0.11637 0.99549 0.0
C704 C 0.93031 0.52858 0.72278 0.0
C705 C 0.90989 0.51605 0.71338 0.0
C706 C 0.93248 0.52113 0.73833 0.0
C707 C 0.91446 0.49997 0.7444 0.0
C708 C 0.89486 0.48628 0.73467 0.0
C709 C 0.89247 0.49485 0.71937 0.0
C710 C 0.95305 0.53682 0.74842 0.0
C711 C 0.87581 0.46306 0.74051 0.0
C712 C 0.9296 0.46574 0.78305 0.0
C713 C 0.90896 0.47847 0.79222 0.0
C714 C 0.93205 0.47278 0.76745 0.0
C715 C 0.91412 0.49374 0.76112 0.0
C716 C 0.89417 0.50751 0.7706 0.0
C717 C 0.89149 0.49934 0.78594 0.0
C718 C 0.95294 0.45699 0.75762 0.0
C719 C 0.8752 0.53054 0.76447 0.0
H720 H 0.94372 0.54505 0.71814 0.0
H721 H 0.87691 0.48488 0.71204 0.0
H722 H 0.94118 0.54945 0.75696 0.0
H723 H 0.96649 0.52176 0.75485 0.0
H724 H 0.96689 0.55126 0.74178 0.0
H725 H 0.86413 0.4524 0.73112 0.0
H726 H 0.88834 0.44701 0.74679 0.0
H727 H 0.8602 0.47198 0.74864 0.0
H728 H 0.94305 0.44954 0.78792 0.0
H729 H 0.87578 0.50948 0.7931 0.0
H730 H 0.96676 0.472 0.75139 0.0
H731 H 0.94139 0.44447 0.7489 0.0
H732 H 0.96641 0.44245 0.76442 0.0
H733 H 0.88789 0.5467 0.75837 0.0
H734 H 0.86296 0.54112 0.77368 0.0
H735 H 0.86008 0.52148 0.75611 0.0
C736 C 0.7887 0.65642 0.02523 0.0
C737 C 0.77889 0.67274 0.03749 0.0
C738 C 0.77791 0.66014 0.01042 0.0
C739 C 0.75627 0.68025 0.00784 0.0
C740 C 0.74716 0.69769 0.02005 0.0
C741 C 0.75879 0.6939 0.03473 0.0
C742 C 0.78873 0.64152 0.99767 0.0
C743 C 0.72391 0.7191 0.01784 0.0
C744 C 0.74004 0.69541 0.96597 0.0
C745 C 0.7194 0.67493 0.96288 0.0
C746 C 0.75146 0.69839 0.98075 0.0
C747 C 0.74157 0.68085 0.99274 0.0
C748 C 0.71931 0.66157 0.98986 0.0
C749 C 0.70874 0.65863 0.97495 0.0
C750 C 0.77538 0.71894 0.98327 0.0
C751 C 0.70766 0.64291 0.00237 0.0
H752 H 0.80438 0.64017 0.02729 0.0
H753 H 0.75099 0.70643 0.0442 0.0
H754 H 0.77193 0.62653 0.99415 0.0
H755 H 0.79427 0.65445 0.98753 0.0
H756 H 0.80761 0.62915 1.00117 0.0
H757 H 0.7216 0.73325 0.02789 0.0
H758 H 0.72795 0.73217 0.00754 0.0
H759 H 0.70358 0.70794 0.01599 0.0
H760 H 0.7485 0.70793 0.95665 0.0
H761 H 0.69264 0.64291 0.97264 0.0
H762 H 0.79533 0.70705 0.98498 0.0
H763 H 0.77171 0.73166 0.99373 0.0
H764 H 0.77819 0.73347 0.97341 0.0
H765 H 0.72379 0.62707 0.00571 0.0
H766 H 0.68829 0.63151 0.99871 0.0
H767 H 0.70264 0.65562 0.01267 0.0
C768 C 0.57354 0.52786 0.28179 0.0
C769 C 0.59434 0.5151 0.29085 0.0
C770 C 0.57074 0.52081 0.26622 0.0
C771 C 0.58854 0.49985 0.25979 0.0
C772 C 0.60856 0.48594 0.26917 0.0
C773 C 0.61155 0.4941 0.2845 0.0
C774 C 0.54974 0.5367 0.2565 0.0
C775 C 0.62741 0.46292 0.26293 0.0
C776 C 0.57219 0.46593 0.22124 0.0
C777 C 0.59256 0.47872 0.21191 0.0
C778 C 0.5701 0.47298 0.23684 0.0
C779 C 0.58816 0.49397 0.24304 0.0
C780 C 0.60772 0.50791 0.23339 0.0
C781 C 0.61003 0.49975 0.21803 0.0
C782 C 0.54957 0.45705 0.24684 0.0
C783 C 0.62681 0.53097 0.23938 0.0
H784 H 0.5603 0.54419 0.28671 0.0
H785 H 0.62741 0.48396 0.29157 0.0
H786 H 0.56122 0.54961 0.24792 0.0
H787 H 0.53608 0.52178 0.2501 0.0
H788 H 0.53611 0.55091 0.26341 0.0
H789 H 0.63956 0.45211 0.27209 0.0
H790 H 0.61464 0.44696 0.25672 0.0
H791 H 0.6426 0.47208 0.25464 0.0
H792 H 0.55876 0.44959 0.21649 0.0
H793 H 0.62555 0.5099 0.21076 0.0
H794 H 0.53618 0.47195 0.2534 0.0
H795 H 0.56147 0.44418 0.25527 0.0
H796 H 0.53567 0.44281 0.2401 0.0
H797 H 0.6143 0.54691 0.24576 0.0
H798 H 0.63852 0.54181 0.23007 0.0
H799 H 0.64239 0.52185 0.24747 0.0
C800 C 0.73826 0.3022 0.53943 0.0
C801 C 0.71785 0.32303 0.54223 0.0
C802 C 0.75004 0.2988 0.52476 0.0
C803 C 0.74075 0.31628 0.51261 0.0
C804 C 0.71871 0.33594 0.5152 0.0
C805 C 0.70778 0.33929 0.53 0.0
C806 C 0.77369 0.27784 0.52253 0.0
C807 C 0.7077 0.35458 0.50251 0.0
C808 C 0.78879 0.33975 0.48035 0.0
C809 C 0.77889 0.32352 0.46807 0.0
C810 C 0.77778 0.33623 0.49512 0.0
C811 C 0.75583 0.31642 0.49763 0.0
C812 C 0.74667 0.29901 0.48541 0.0
C813 C 0.75853 0.30259 0.47078 0.0
C814 C 0.78865 0.3548 0.50787 0.0
C815 C 0.72311 0.27792 0.48755 0.0
H816 H 0.74626 0.28971 0.54888 0.0
H817 H 0.69185 0.35528 0.53209 0.0
H818 H 0.77014 0.26504 0.51209 0.0
H819 H 0.79388 0.2894 0.52096 0.0
H820 H 0.77598 0.26341 0.53248 0.0
H821 H 0.68843 0.36637 0.50596 0.0
H822 H 0.72418 0.37009 0.49921 0.0
H823 H 0.70272 0.34178 0.49223 0.0
H824 H 0.80468 0.35581 0.47832 0.0
H825 H 0.75067 0.29013 0.46129 0.0
H826 H 0.79371 0.3419 0.51811 0.0
H827 H 0.77205 0.37014 0.51122 0.0
H828 H 0.80783 0.36677 0.50447 0.0
H829 H 0.72671 0.265 0.49795 0.0
H830 H 0.7209 0.2636 0.47756 0.0
H831 H 0.70287 0.28936 0.48916 0.0
C832 C 0.08955 0.45834 0.27946 0.0
C833 C 0.07351 0.47013 0.29132 0.0
C834 C 0.08727 0.46841 0.26442 0.0
C835 C 0.06907 0.49142 0.2612 0.0
C836 C 0.05196 0.50267 0.27302 0.0
C837 C 0.05414 0.49164 0.28793 0.0
C838 C 0.10536 0.45527 0.2521 0.0
C839 C 0.0327 0.52751 0.27015 0.0
C840 C 0.09513 0.53564 0.22787 0.0
C841 C 0.07782 0.52632 0.21589 0.0
C842 C 0.09134 0.52565 0.24284 0.0
C843 C 0.07021 0.5052 0.24586 0.0
C844 C 0.05199 0.49644 0.2339 0.0
C845 C 0.05581 0.50738 0.21907 0.0
C846 C 0.11078 0.53614 0.2553 0.0
C847 C 0.02959 0.47431 0.23655 0.0
H848 H 0.10443 0.44159 0.28203 0.0
H849 H 0.04188 0.50099 0.29709 0.0
H850 H 0.09241 0.45037 0.24186 0.0
H851 H 0.12196 0.47044 0.24853 0.0
H852 H 0.11581 0.43557 0.25605 0.0
H853 H 0.01859 0.5318 0.28003 0.0
H854 H 0.04564 0.54662 0.26795 0.0
H855 H 0.01952 0.52384 0.25985 0.0
H856 H 0.11206 0.55042 0.22547 0.0
H857 H 0.04253 0.49994 0.2098 0.0
H858 H 0.125 0.51881 0.25899 0.0
H859 H 0.09837 0.54281 0.26544 0.0
H860 H 0.12399 0.5542 0.25147 0.0
H861 H 0.03986 0.45368 0.23886 0.0
H862 H 0.01535 0.47188 0.22654 0.0
H863 H 0.01669 0.47966 0.24674 0.0
C864 C 0.25371 0.3097 0.03549 0.0
C865 C 0.27247 0.3316 0.03914 0.0
C866 C 0.24386 0.30611 0.02041 0.0
C867 C 0.25361 0.3244 0.00872 0.0
C868 C 0.27388 0.34543 0.01225 0.0
C869 C 0.28272 0.34903 0.02744 0.0
C870 C 0.22184 0.28384 0.0172 0.0
C871 C 0.28542 0.36492 1.00009 0.0
C872 C 0.2433 0.30888 0.96632 0.0
C873 C 0.22222 0.32844 0.96252 0.0
C874 C 0.25312 0.30643 0.98147 0.0
C875 C 0.24102 0.32347 0.99308 0.0
C876 C 0.21843 0.34187 0.9894 0.0
C877 C 0.2096 0.34443 0.97414 0.0
C878 C 0.27759 0.28699 0.98484 0.0
C879 C 0.20441 0.35988 1.00146 0.0
H880 H 0.24559 0.29633 0.04454 0.0
H881 H 0.2974 0.36584 0.03022 0.0
H882 H 0.20145 0.29424 0.01443 0.0
H883 H 0.22793 0.27099 0.00712 0.0
H884 H 0.21854 0.26956 0.02712 0.0
H885 H 0.30323 0.378 0.00437 0.0
H886 H 0.29282 0.35256 0.99008 0.0
H887 H 0.26845 0.37924 0.99604 0.0
H888 H 0.25326 0.29666 0.95733 0.0
H889 H 0.19315 0.35944 0.97124 0.0
H890 H 0.27305 0.27374 0.99501 0.0
H891 H 0.29661 0.29978 0.98752 0.0
H892 H 0.28257 0.27297 0.97502 0.0
H893 H 0.19866 0.34684 0.01154 0.0
H894 H 0.18507 0.37045 0.9971 0.0
H895 H 0.21936 0.37637 0.00543 0.0
C896 C 0.39998 0.53797 0.77848 0.0
C897 C 0.41741 0.52845 0.79036 0.0
C898 C 0.40288 0.52738 0.76357 0.0
C899 C 0.42315 0.50608 0.76055 0.0
C900 C 0.4415 0.49709 0.7724 0.0
C901 C 0.43865 0.50868 0.78715 0.0
C902 C 0.38339 0.53816 0.7512 0.0
C903 C 0.46295 0.47404 0.76975 0.0
C904 C 0.40075 0.45881 0.7277 0.0
C905 C 0.41691 0.46944 0.71558 0.0
C906 C 0.40396 0.46934 0.7426 0.0
C907 C 0.42319 0.4917 0.74537 0.0
C908 C 0.44035 0.50179 0.73327 0.0
C909 C 0.43726 0.49025 0.71853 0.0
C910 C 0.38581 0.45738 0.75524 0.0
C911 C 0.46063 0.52598 0.73565 0.0
H912 H 0.38364 0.55337 0.78092 0.0
H913 H 0.45198 0.50108 0.79635 0.0
H914 H 0.39566 0.54391 0.74085 0.0
H915 H 0.36833 0.52129 0.74789 0.0
H916 H 0.37109 0.55689 0.75497 0.0
H917 H 0.47749 0.47146 0.77963 0.0
H918 H 0.45182 0.45372 0.76781 0.0
H919 H 0.47563 0.47849 0.75937 0.0
H920 H 0.3851 0.4426 0.72545 0.0
H921 H 0.44959 0.49871 0.70913 0.0
H922 H 0.36991 0.4733 0.75878 0.0
H923 H 0.39892 0.4524 0.76541 0.0
H924 H 0.3745 0.43793 0.75163 0.0
H925 H 0.4485 0.54566 0.73774 0.0
H926 H 0.47454 0.52935 0.72558 0.0
H927 H 0.47402 0.52223 0.74586 0.0
C928 C 0.21561 0.64855 0.52764 0.0
C929 C 0.22709 0.66557 0.53917 0.0
C930 C 0.22475 0.65094 0.51243 0.0
C931 C 0.24662 0.67019 0.50873 0.0
C932 C 0.25773 0.68806 0.52027 0.0
C933 C 0.24751 0.68582 0.53534 0.0
C934 C 0.21173 0.63205 0.50043 0.0
C935 C 0.2815 0.70836 0.51689 0.0
C936 C 0.28922 0.64598 0.4744 0.0
C937 C 0.27824 0.66288 0.46267 0.0
C938 C 0.28037 0.64942 0.4896 0.0
C939 C 0.25929 0.66966 0.4931 0.0
C940 C 0.24878 0.68744 0.48137 0.0
C941 C 0.2587 0.68409 0.4663 0.0
C942 C 0.29275 0.63056 0.50181 0.0
C943 C 0.22585 0.70879 0.48453 0.0
H944 H 0.19968 0.633 0.53057 0.0
H945 H 0.2566 0.69882 0.54428 0.0
H946 H 0.20544 0.64463 0.49027 0.0
H947 H 0.22748 0.61623 0.49658 0.0
H948 H 0.19287 0.62063 0.50479 0.0
H949 H 0.28599 0.72257 0.52671 0.0
H950 H 0.30095 0.69626 0.5142 0.0
H951 H 0.27646 0.72142 0.50673 0.0
H952 H 0.30448 0.62968 0.47163 0.0
H953 H 0.24998 0.69701 0.45721 0.0
H954 H 0.27647 0.61545 0.50584 0.0
H955 H 0.29949 0.6433 0.51182 0.0
H956 H 0.31119 0.61834 0.49757 0.0
H957 H 0.20594 0.69757 0.48735 0.0
H958 H 0.22192 0.72281 0.47457 0.0
H959 H 0.23143 0.72201 0.49455 0.0
C960 C 0.38032 0.95576 0.13746 0.0
C961 C 0.3692 0.97248 0.14926 0.0
C962 C 0.36417 0.93415 0.13077 0.0
C963 C 0.3361 0.92967 0.13578 0.0
C964 C 0.3252 0.94573 0.14808 0.0
C965 C 0.34198 0.96674 0.15477 0.0
C966 C 0.37673 0.91695 0.11793 0.0
C967 C 0.29521 0.94188 0.15363 0.0
C968 C 0.28047 0.904 0.108 0.0
C969 C 0.27493 0.87672 0.11348 0.0
C970 C 0.30109 0.92105 0.11483 0.0
C971 C 0.317 0.91038 0.12725 0.0
C972 C 0.31271 0.88228 0.13227 0.0
C973 C 0.29146 0.86585 0.12544 0.0
C974 C 0.30473 0.95105 0.10926 0.0
C975 C 0.3298 0.86996 0.14523 0.0
H976 H 0.40146 0.95989 0.13325 0.0
H977 H 0.3332 0.97956 0.16387 0.0
H978 H 0.3726 0.89413 0.11975 0.0
H979 H 0.36663 0.92297 0.10695 0.0
H980 H 0.39988 0.92025 0.11685 0.0
H981 H 0.29051 0.95492 0.16388 0.0
H982 H 0.28026 0.94786 0.1444 0.0
H983 H 0.2912 0.91942 0.15647 0.0
H984 H 0.26779 0.9126 0.09879 0.0
H985 H 0.28747 0.84467 0.12962 0.0
H986 H 0.32718 0.95519 0.10642 0.0
H987 H 0.29865 0.96598 0.11847 0.0
H988 H 0.29166 0.95564 0.099 0.0
H989 H 0.35263 0.87415 0.14347 0.0
H990 H 0.32658 0.84682 0.14638 0.0
H991 H 0.32362 0.88018 0.15614 0.0
C992 C 0.2804 0.09814 0.40037 0.0
C993 C 0.27753 0.12586 0.39495 0.0
C994 C 0.30177 0.08039 0.39486 0.0
C995 C 0.32094 0.0907 0.38376 0.0
C996 C 0.31922 0.11914 0.37889 0.0
C997 C 0.29742 0.13638 0.38449 0.0
C998 C 0.30289 0.05014 0.40032 0.0
C999 C 0.33959 0.13099 0.36726 0.0
C1000 C 0.38501 0.04421 0.37706 0.0
C1001 C 0.37609 0.02796 0.36452 0.0
C1002 C 0.36787 0.06573 0.38303 0.0
C1003 C 0.34111 0.07091 0.37639 0.0
C1004 C 0.33256 0.05548 0.36332 0.0
C1005 C 0.35021 0.03429 0.3575 0.0
C1006 C 0.37786 0.08207 0.39684 0.0
C1007 C 0.30413 0.06036 0.35592 0.0
H1008 H 0.26521 0.08984 0.40849 0.0
H1009 H 0.29551 0.15785 0.38033 0.0
H1010 H 0.29801 0.03573 0.39067 0.0
H1011 H 0.32443 0.04487 0.40442 0.0
H1012 H 0.28763 0.04596 0.40971 0.0
H1013 H 0.3376 0.15426 0.36609 0.0
H1014 H 0.36167 0.12582 0.37047 0.0
H1015 H 0.3355 0.12121 0.35594 0.0
H1016 H 0.40508 0.03963 0.38249 0.0
H1017 H 0.34316 0.02195 0.34779 0.0
H1018 H 0.36497 0.07614 0.40694 0.0
H1019 H 0.37504 0.10507 0.395 0.0
H1020 H 0.40042 0.07786 0.39951 0.0
H1021 H 0.2871 0.05447 0.36403 0.0
H1022 H 0.30142 0.04784 0.34528 0.0
H1023 H 0.30138 0.08304 0.35313 0.0
C1024 C 0.1205 0.05473 0.63957 0.0
C1025 C 0.12023 0.02795 0.63281 0.0
C1026 C 0.1378 0.07627 0.63374 0.0
C1027 C 0.15624 0.07025 0.62141 0.0
C1028 C 0.15533 0.0434 0.61428 0.0
C1029 C 0.13684 0.02272 0.61989 0.0
C1030 C 0.13724 0.10501 0.6412 0.0
C1031 C 0.17532 0.03577 0.60146 0.0
C1032 C 0.19728 0.12536 0.59905 0.0
C1033 C 0.22317 0.12512 0.60677 0.0
C1034 C 0.17456 0.10889 0.60425 0.0
C1035 C 0.1785 0.09079 0.61697 0.0
C1036 C 0.20462 0.09085 0.6249 0.0
C1037 C 0.22648 0.10852 0.61987 0.0
C1038 C 0.14664 0.11035 0.59595 0.0
C1039 C 0.21004 0.07119 0.63819 0.0
H1040 H 0.10755 0.05865 0.64958 0.0
H1041 H 0.13684 0.0018 0.61485 0.0
H1042 H 0.15653 0.10792 0.64821 0.0
H1043 H 0.13705 0.12189 0.63239 0.0
H1044 H 0.11853 0.10767 0.64873 0.0
H1045 H 0.17113 0.01437 0.59678 0.0
H1046 H 0.17368 0.0513 0.59202 0.0
H1047 H 0.19739 0.03644 0.60574 0.0
H1048 H 0.19487 0.13836 0.58892 0.0
H1049 H 0.24672 0.10822 0.62568 0.0
H1050 H 0.12906 0.11273 0.60426 0.0
H1051 H 0.143 0.09044 0.58958 0.0
H1052 H 0.14588 0.12819 0.58771 0.0
H1053 H 0.19439 0.07496 0.6474 0.0
H1054 H 0.23156 0.07382 0.64305 0.0
H1055 H 0.20753 0.04896 0.63441 0.0
C1056 C 0.15454 0.96451 0.85676 0.0
C1057 C 0.12792 0.97202 0.86252 0.0
C1058 C 0.17093 0.94374 0.86388 0.0
C1059 C 0.16022 0.92959 0.8769 0.0
C1060 C 0.13269 0.93584 0.88226 0.0
C1061 C 0.11696 0.95729 0.87511 0.0
C1062 C 0.20038 0.93807 0.85794 0.0
C1063 C 0.12029 0.92059 0.89584 0.0
C1064 C 0.20407 0.86551 0.88749 0.0
C1065 C 0.22225 0.87697 0.89853 0.0
C1066 C 0.18225 0.8818 0.88109 0.0
C1067 C 0.1791 0.91034 0.88559 0.0
C1068 C 0.19658 0.92158 0.89723 0.0
C1069 C 0.21773 0.90465 0.90367 0.0
C1070 C 0.16347 0.86887 0.86902 0.0
C1071 C 0.19425 0.95206 0.90218 0.0
H1072 H 0.16323 0.9758 0.84706 0.0
H1073 H 0.09628 0.96281 0.87952 0.0
H1074 H 0.21614 0.94396 0.86678 0.0
H1075 H 0.20314 0.91525 0.85553 0.0
H1076 H 0.2051 0.95011 0.84734 0.0
H1077 H 0.09736 0.92493 0.89719 0.0
H1078 H 0.12342 0.89746 0.8947 0.0
H1079 H 0.13127 0.92738 0.90643 0.0
H1080 H 0.20723 0.844 0.88361 0.0
H1081 H 0.23167 0.91368 0.91221 0.0
H1082 H 0.1692 0.87747 0.85764 0.0
H1083 H 0.14103 0.87436 0.87116 0.0
H1084 H 0.16555 0.84552 0.86862 0.0
H1085 H 0.20032 0.96605 0.89254 0.0
H1086 H 0.20807 0.95695 0.9121 0.0
H1087 H 0.17214 0.95722 0.90528 0.0
C1088 C 0.70966 0.1321 0.87897 0.0
C1089 C 0.72496 0.1217 0.89152 0.0
C1090 C 0.68835 0.11583 0.87208 0.0
C1091 C 0.68261 0.08842 0.87772 0.0
C1092 C 0.69743 0.07816 0.89064 0.0
C1093 C 0.71826 0.095 0.89744 0.0
C1094 C 0.67255 0.12764 0.85851 0.0
C1095 C 0.69209 0.04893 0.89694 0.0
C1096 C 0.61661 0.04627 0.86883 0.0
C1097 C 0.62678 0.02713 0.85789 0.0
C1098 C 0.63405 0.06763 0.87472 0.0
C1099 C 0.6624 0.06955 0.8697 0.0
C1100 C 0.67231 0.05126 0.85808 0.0
C1101 C 0.65431 0.03039 0.85223 0.0
C1102 C 0.62257 0.08714 0.88687 0.0
C1103 C 0.70249 0.05252 0.85251 0.0
H1104 H 0.71457 0.1528 0.8744 0.0
H1105 H 0.72997 0.08676 0.90711 0.0
H1106 H 0.67812 0.11552 0.84808 0.0
H1107 H 0.64944 0.12543 0.86023 0.0
H1108 H 0.67754 0.15026 0.85648 0.0
H1109 H 0.70481 0.04448 0.90734 0.0
H1110 H 0.66942 0.04635 0.89982 0.0
H1111 H 0.69731 0.03288 0.88813 0.0
H1112 H 0.59525 0.04408 0.87313 0.0
H1113 H 0.66232 0.01574 0.84376 0.0
H1114 H 0.62826 0.10937 0.8843 0.0
H1115 H 0.63214 0.08173 0.89808 0.0
H1116 H 0.59924 0.08555 0.88794 0.0
H1117 H 0.70816 0.07441 0.84921 0.0
H1118 H 0.7062 0.03843 0.84255 0.0
H1119 H 0.71693 0.04611 0.86188 0.0
C1120 C 0.61099 0.9534 0.63688 0.0
C1121 C 0.6225 0.97222 0.64758 0.0
C1122 C 0.62709 0.93092 0.63106 0.0
C1123 C 0.65553 0.92776 0.63576 0.0
C1124 C 0.66687 0.94605 0.64699 0.0
C1125 C 0.65011 0.96785 0.65289 0.0
C1126 C 0.61406 0.91132 0.61941 0.0
C1127 C 0.69727 0.94374 0.65212 0.0
C1128 C 0.70128 0.8637 0.62736 0.0
C1129 C 0.71645 0.87308 0.61455 0.0
C1130 C 0.68008 0.88059 0.63393 0.0
C1131 C 0.67454 0.90767 0.62775 0.0
C1132 C 0.68913 0.91678 0.61452 0.0
C1133 C 0.70965 0.89926 0.608 0.0
C1134 C 0.66436 0.8699 0.64778 0.0
C1135 C 0.6842 0.9457 0.6077 0.0
H1136 H 0.58953 0.95647 0.63288 0.0
H1137 H 0.65916 0.98233 0.66115 0.0
H1138 H 0.62315 0.91569 0.60797 0.0
H1139 H 0.61892 0.88901 0.62226 0.0
H1140 H 0.59077 0.9139 0.61871 0.0
H1141 H 0.70231 0.95848 0.66162 0.0
H1142 H 0.70201 0.92191 0.65591 0.0
H1143 H 0.71147 0.94854 0.64235 0.0
H1144 H 0.70626 0.84339 0.6324 0.0
H1145 H 0.72127 0.90673 0.59811 0.0
H1146 H 0.64131 0.87332 0.6464 0.0
H1147 H 0.67116 0.88186 0.65805 0.0
H1148 H 0.66827 0.84709 0.64986 0.0
H1149 H 0.66148 0.94873 0.60511 0.0
H1150 H 0.69648 0.94909 0.59703 0.0
H1151 H 0.69036 0.96217 0.6161 0.0
C1152 C 0.79235 0.89853 0.3958 0.0
C1153 C 0.7845 0.8727 0.3892 0.0
C1154 C 0.81272 0.91581 0.38896 0.0
C1155 C 0.82608 0.9068 0.37534 0.0
C1156 C 0.8197 0.8799 0.36916 0.0
C1157 C 0.79868 0.86326 0.37607 0.0
C1158 C 0.81861 0.94451 0.39582 0.0
C1159 C 0.83413 0.86927 0.35489 0.0
C1160 C 0.84734 0.96767 0.3499 0.0
C1161 C 0.87542 0.97222 0.35438 0.0
C1162 C 0.83147 0.94549 0.35608 0.0
C1163 C 0.84414 0.92703 0.3668 0.0
C1164 C 0.87304 0.93027 0.37059 0.0
C1165 C 0.8883 0.95307 0.36445 0.0
C1166 C 0.8006 0.94301 0.35189 0.0
C1167 C 0.88746 0.91052 0.38166 0.0
H1168 H 0.78155 0.90601 0.40596 0.0
H1169 H 0.79295 0.84317 0.371 0.0
H1170 H 0.8416 0.9474 0.39765 0.0
H1171 H 0.81154 0.96123 0.38778 0.0
H1172 H 0.80762 0.94765 0.40692 0.0
H1173 H 0.83028 0.84639 0.35301 0.0
H1174 H 0.82612 0.88102 0.34481 0.0
H1175 H 0.85725 0.87297 0.35555 0.0
H1176 H 0.83721 0.9823 0.34209 0.0
H1177 H 0.9101 0.95626 0.36783 0.0
H1178 H 0.78741 0.94755 0.36209 0.0
H1179 H 0.79563 0.92121 0.34813 0.0
H1180 H 0.79447 0.95786 0.34263 0.0
H1181 H 0.88 0.91496 0.39344 0.0
H1182 H 0.9108 0.91293 0.38142 0.0
H1183 H 0.88204 0.88824 0.37902 0.0
C1184 C 0.77753 0.09092 0.10311 0.0
C1185 C 0.7718 0.11787 0.10899 0.0
C1186 C 0.7982 0.07365 0.10973 0.0
C1187 C 0.81388 0.08376 0.12238 0.0
C1188 C 0.80941 0.11156 0.1278 0.0
C1189 C 0.7882 0.12823 0.12112 0.0
C1190 C 0.80213 0.044 0.10371 0.0
C1191 C 0.82618 0.12325 0.14105 0.0
C1192 C 0.83865 0.02667 0.14949 0.0
C1193 C 0.8662 0.02165 0.14428 0.0
C1194 C 0.82174 0.04753 0.14278 0.0
C1195 C 0.83284 0.06415 0.13075 0.0
C1196 C 0.86114 0.06026 0.12597 0.0
C1197 C 0.87743 0.03881 0.1327 0.0
C1198 C 0.79153 0.05079 0.14807 0.0
C1199 C 0.87386 0.07806 0.11342 0.0
H1200 H 0.76499 0.08273 0.09373 0.0
H1201 H 0.78409 0.14916 0.12563 0.0
H1202 H 0.82469 0.04004 0.10107 0.0
H1203 H 0.79572 0.02855 0.11261 0.0
H1204 H 0.78946 0.03997 0.09324 0.0
H1205 H 0.82285 0.14631 0.14254 0.0
H1206 H 0.8198 0.11243 0.15176 0.0
H1207 H 0.84907 0.11924 0.13938 0.0
H1208 H 0.82979 0.01349 0.15843 0.0
H1209 H 0.89883 0.03522 0.12873 0.0
H1210 H 0.77695 0.04525 0.1386 0.0
H1211 H 0.78725 0.07305 0.15125 0.0
H1212 H 0.78658 0.03713 0.15805 0.0
H1213 H 0.86383 0.07263 0.10233 0.0
H1214 H 0.89701 0.07478 0.11235 0.0
H1215 H 0.86976 0.10078 0.11557 0.0
C1216 C 0.78068 0.40277 0.60201 0.0
C1217 C 0.77904 0.37431 0.60634 0.0
C1218 C 0.80268 0.42005 0.60725 0.0
C1219 C 0.82389 0.40843 0.61678 0.0
C1220 C 0.82354 0.37922 0.62021 0.0
C1221 C 0.80089 0.36254 0.61511 0.0
C1222 C 0.80201 0.45119 0.6035 0.0
C1223 C 0.84621 0.36591 0.62998 0.0
C1224 C 0.88582 0.45742 0.62482 0.0
C1225 C 0.87753 0.46949 0.63877 0.0
C1226 C 0.86936 0.43631 0.61783 0.0
C1227 C 0.84381 0.42762 0.62482 0.0
C1228 C 0.83594 0.439 0.63916 0.0
C1229 C 0.85301 0.45953 0.64601 0.0
C1230 C 0.87877 0.42407 0.60273 0.0
C1231 C 0.80871 0.43056 0.64694 0.0
H1232 H 0.76389 0.412 0.59521 0.0
H1233 H 0.79993 0.34045 0.61832 0.0
H1234 H 0.79764 0.46342 0.61407 0.0
H1235 H 0.8228 0.45823 0.59909 0.0
H1236 H 0.78555 0.45642 0.5949 0.0
H1237 H 0.84564 0.34248 0.62938 0.0
H1238 H 0.86744 0.37329 0.62637 0.0
H1239 H 0.84322 0.37232 0.64207 0.0
H1240 H 0.90484 0.46482 0.61921 0.0
H1241 H 0.84639 0.46864 0.6568 0.0
H1242 H 0.8648 0.43186 0.59346 0.0
H1243 H 0.87706 0.4007 0.60291 0.0
H1244 H 0.90088 0.42999 0.59992 0.0
H1245 H 0.79048 0.43658 0.63965 0.0
H1246 H 0.80614 0.44074 0.6583 0.0
H1247 H 0.8079 0.40734 0.6485 0.0
C1248 C 0.88986 0.54433 0.87917 0.0
C1249 C 0.88073 0.53234 0.86534 0.0
C1250 C 0.87389 0.56544 0.88647 0.0
C1251 C 0.84805 0.57432 0.87988 0.0
C1252 C 0.83953 0.56333 0.86555 0.0
C1253 C 0.85607 0.54269 0.85842 0.0
C1254 C 0.884 0.57724 0.90153 0.0
C1255 C 0.81204 0.57212 0.85815 0.0
C1256 C 0.78563 0.59775 0.90363 0.0
C1257 C 0.78368 0.62638 0.89968 0.0
C1258 C 0.8076 0.58087 0.89799 0.0
C1259 C 0.8284 0.59304 0.8884 0.0
C1260 C 0.82783 0.6224 0.8854 0.0
C1261 C 0.80529 0.6387 0.89095 0.0
C1262 C 0.8073 0.54959 0.90137 0.0
C1263 C 0.85005 0.63628 0.87556 0.0
H1264 H 0.909 0.53664 0.88455 0.0
H1265 H 0.84887 0.53375 0.84769 0.0
H1266 H 0.88185 0.60057 0.90171 0.0
H1267 H 0.87076 0.56874 0.91094 0.0
H1268 H 0.90637 0.57163 0.90387 0.0
H1269 H 0.80916 0.56257 0.84665 0.0
H1270 H 0.79406 0.5656 0.86549 0.0
H1271 H 0.81111 0.59542 0.85699 0.0
H1272 H 0.7691 0.58808 0.91042 0.0
H1273 H 0.80412 0.66092 0.88803 0.0
H1274 H 0.82832 0.54252 0.90544 0.0
H1275 H 0.80253 0.53776 0.89072 0.0
H1276 H 0.79126 0.5439 0.91012 0.0
H1277 H 0.87144 0.6287 0.87873 0.0
H1278 H 0.84951 0.65966 0.87656 0.0
H1279 H 0.84645 0.63058 0.86341 0.0
C1280 C 0.71627 0.59324 0.09743 0.0
C1281 C 0.7186 0.62141 0.10218 0.0
C1282 C 0.69476 0.57579 0.10309 0.0
C1283 C 0.67481 0.58697 0.11352 0.0
C1284 C 0.67569 0.61598 0.11738 0.0
C1285 C 0.69779 0.63282 0.11179 0.0
C1286 C 0.69474 0.54489 0.09881 0.0
C1287 C 0.65437 0.62882 0.12816 0.0
C1288 C 0.61354 0.53836 0.12339 0.0
C1289 C 0.62347 0.52571 0.13688 0.0
C1290 C 0.62937 0.55941 0.11596 0.0
C1291 C 0.65592 0.56746 0.12202 0.0
C1292 C 0.66556 0.55541 0.13588 0.0
C1293 C 0.64911 0.53492 0.14319 0.0
C1294 C 0.61814 0.57237 0.10141 0.0
C1295 C 0.69389 0.56319 0.14265 0.0
H1296 H 0.73223 0.58429 0.08998 0.0
H1297 H 0.69924 0.65471 0.11533 0.0
H1298 H 0.70068 0.53207 0.10895 0.0
H1299 H 0.67333 0.5381 0.09522 0.0
H1300 H 0.70983 0.54016 0.08943 0.0
H1301 H 0.65494 0.65227 0.1279 0.0
H1302 H 0.6327 0.62166 0.12527 0.0
H1303 H 0.65892 0.6218 0.14002 0.0
H1304 H 0.59365 0.53151 0.1185 0.0
H1305 H 0.657 0.5253 0.1536 0.0
H1306 H 0.63099 0.56514 0.09156 0.0
H1307 H 0.61981 0.59573 0.10189 0.0
H1308 H 0.59575 0.56653 0.09928 0.0
H1309 H 0.71099 0.55743 0.13455 0.0
H1310 H 0.69793 0.55237 0.15372 0.0
H1311 H 0.69513 0.58631 0.14454 0.0
C1312 C 0.71796 0.40289 0.40685 0.0
C1313 C 0.71968 0.37429 0.40282 0.0
C1314 C 0.69679 0.42027 0.40077 0.0
C1315 C 0.67652 0.40862 0.39067 0.0
C1316 C 0.67681 0.3793 0.38753 0.0
C1317 C 0.6986 0.36251 0.39351 0.0
C1318 C 0.69743 0.45151 0.40426 0.0
C1319 C 0.65511 0.36598 0.37714 0.0
C1320 C 0.61599 0.45761 0.38006 0.0
C1321 C 0.62592 0.46914 0.36628 0.0
C1322 C 0.63154 0.43677 0.38784 0.0
C1323 C 0.65779 0.42776 0.38182 0.0
C1324 C 0.66737 0.43861 0.36766 0.0
C1325 C 0.65121 0.45893 0.36001 0.0
C1326 C 0.62036 0.42514 0.40272 0.0
C1327 C 0.69539 0.42976 0.36089 0.0
H1328 H 0.73414 0.41214 0.41405 0.0
H1329 H 0.6996 0.34031 0.39053 0.0
H1330 H 0.70332 0.46334 0.39378 0.0
H1331 H 0.67624 0.45898 0.40783 0.0
H1332 H 0.71285 0.45677 0.41341 0.0
H1333 H 0.6553 0.34257 0.37794 0.0
H1334 H 0.63361 0.37372 0.37995 0.0
H1335 H 0.65957 0.372 0.36512 0.0
H1336 H 0.59636 0.46523 0.38492 0.0
H1337 H 0.65909 0.46765 0.34937 0.0
H1338 H 0.63349 0.43295 0.41234 0.0
H1339 H 0.62168 0.40174 0.40278 0.0
H1340 H 0.5981 0.43148 0.40481 0.0
H1341 H 0.71279 0.43589 0.36873 0.0
H1342 H 0.69935 0.43956 0.34955 0.0
H1343 H 0.69619 0.40648 0.35958 0.0
C1344 C 0.10983 0.54957 0.36832 0.0
C1345 C 0.12045 0.53035 0.35753 0.0
C1346 C 0.12713 0.57074 0.37455 0.0
C1347 C 0.15576 0.57245 0.37001 0.0
C1348 C 0.16613 0.55418 0.35849 0.0
C1349 C 0.14829 0.53348 0.35232 0.0
C1350 C 0.11517 0.59022 0.38658 0.0
C1351 C 0.19658 0.55527 0.35336 0.0
C1352 C 0.20389 0.63401 0.37985 0.0
C1353 C 0.21898 0.62303 0.39234 0.0
C1354 C 0.18221 0.61837 0.37287 0.0
C1355 C 0.17577 0.59104 0.37839 0.0
C1356 C 0.19008 0.58038 0.39139 0.0
C1357 C 0.21136 0.59656 0.39825 0.0
C1358 C 0.16702 0.63062 0.35921 0.0
C1359 C 0.18389 0.55125 0.39761 0.0
H1360 H 0.08824 0.5475 0.37231 0.0
H1361 H 0.15667 0.51883 0.34395 0.0
H1362 H 0.12392 0.58447 0.39793 0.0
H1363 H 0.12135 0.61241 0.38424 0.0
H1364 H 0.09177 0.58897 0.38719 0.0
H1365 H 0.20071 0.54121 0.34344 0.0
H1366 H 0.20256 0.57714 0.35019 0.0
H1367 H 0.21051 0.54871 0.36294 0.0
H1368 H 0.20948 0.65453 0.37527 0.0
H1369 H 0.2228 0.5879 0.40791 0.0
H1370 H 0.14384 0.62819 0.36052 0.0
H1371 H 0.17328 0.61898 0.34874 0.0
H1372 H 0.17197 0.65335 0.35754 0.0
H1373 H 0.16102 0.54898 0.40005 0.0
H1374 H 0.19587 0.54668 0.40825 0.0
H1375 H 0.1895 0.53511 0.38892 0.0
C1376 C 0.20103 0.36379 0.12261 0.0
C1377 C 0.21751 0.37476 0.11066 0.0
C1378 C 0.17954 0.38001 0.12937 0.0
C1379 C 0.17492 0.408 0.12428 0.0
C1380 C 0.19075 0.41876 0.11184 0.0
C1381 C 0.21165 0.40191 0.1051 0.0
C1382 C 0.16259 0.36759 0.14235 0.0
C1383 C 0.18674 0.44864 0.10619 0.0
C1384 C 0.11102 0.4526 0.13454 0.0
C1385 C 0.12202 0.46957 0.14628 0.0
C1386 C 0.12744 0.43121 0.12783 0.0
C1387 C 0.15562 0.42714 0.13278 0.0
C1388 C 0.16637 0.44338 0.14506 0.0
C1389 C 0.14936 0.4642 0.15174 0.0
C1390 C 0.11503 0.4138 0.11502 0.0
C1391 C 0.19643 0.43994 0.15057 0.0
H1392 H 0.20525 0.34271 0.12687 0.0
H1393 H 0.22428 0.41058 0.09588 0.0
H1394 H 0.16869 0.37794 0.15324 0.0
H1395 H 0.13971 0.37154 0.14059 0.0
H1396 H 0.16605 0.34449 0.14355 0.0
H1397 H 0.19967 0.45326 0.09589 0.0
H1398 H 0.16422 0.45251 0.10339 0.0
H1399 H 0.19274 0.46373 0.11534 0.0
H1400 H 0.08982 0.45645 0.13035 0.0
H1401 H 0.15806 0.47716 0.16081 0.0
H1402 H 0.11948 0.39105 0.11685 0.0
H1403 H 0.12499 0.41994 0.10403 0.0
H1404 H 0.09184 0.41679 0.11398 0.0
H1405 H 0.20073 0.41755 0.15344 0.0
H1406 H 0.20103 0.4531 0.16079 0.0
H1407 H 0.21126 0.44605 0.14131 0.0
C1408 C 0.38833 0.45903 0.87389 0.0
C1409 C 0.37771 0.4738 0.86121 0.0
C1410 C 0.37234 0.43771 0.88098 0.0
C1411 C 0.34503 0.43136 0.87536 0.0
C1412 C 0.33469 0.44546 0.86223 0.0
C1413 C 0.35122 0.46633 0.85527 0.0
C1414 C 0.38426 0.4227 0.89478 0.0
C1415 C 0.30559 0.4394 0.85591 0.0
C1416 C 0.30296 0.36566 0.8849 0.0
C1417 C 0.28346 0.37629 0.89553 0.0
C1418 C 0.32451 0.38284 0.87899 0.0
C1419 C 0.32626 0.4114 0.88364 0.0
C1420 C 0.30765 0.42177 0.895 0.0
C1421 C 0.2866 0.40401 0.9009 0.0
C1422 C 0.34436 0.37086 0.86714 0.0
C1423 C 0.30871 0.45218 0.90019 0.0
H1424 H 0.40885 0.46453 0.87851 0.0
H1425 H 0.34282 0.47754 0.84546 0.0
H1426 H 0.37231 0.42902 0.90514 0.0
H1427 H 0.38189 0.39951 0.89351 0.0
H1428 H 0.40693 0.4277 0.89662 0.0
H1429 H 0.30113 0.45147 0.84529 0.0
H1430 H 0.30333 0.41656 0.85339 0.0
H1431 H 0.28937 0.44493 0.86456 0.0
H1432 H 0.30089 0.34413 0.88084 0.0
H1433 H 0.27167 0.41238 0.90913 0.0
H1434 H 0.36649 0.37696 0.86969 0.0
H1435 H 0.33899 0.37963 0.85574 0.0
H1436 H 0.34305 0.34746 0.8665 0.0
H1437 H 0.33055 0.45812 0.90346 0.0
H1438 H 0.29451 0.45624 0.91006 0.0
H1439 H 0.30227 0.46616 0.89061 0.0
C1440 C 0.38548 0.545 0.63598 0.0
C1441 C 0.37353 0.52695 0.64694 0.0
C1442 C 0.36951 0.56679 0.62932 0.0
C1443 C 0.34085 0.57018 0.63354 0.0
C1444 C 0.32906 0.55278 0.64505 0.0
C1445 C 0.34561 0.53157 0.6517 0.0
C1446 C 0.38297 0.58539 0.61735 0.0
C1447 C 0.29847 0.55551 0.64976 0.0
C1448 C 0.29596 0.63412 0.62386 0.0
C1449 C 0.28055 0.62412 0.61126 0.0
C1450 C 0.31696 0.61744 0.63073 0.0
C1451 C 0.32224 0.58998 0.62503 0.0
C1452 C 0.30761 0.58028 0.61192 0.0
C1453 C 0.28713 0.59755 0.60512 0.0
C1454 C 0.33261 0.62873 0.64448 0.0
C1455 C 0.31242 0.55099 0.60557 0.0
H1456 H 0.40713 0.54174 0.63235 0.0
H1457 H 0.33618 0.51776 0.66016 0.0
H1458 H 0.37407 0.58025 0.60595 0.0
H1459 H 0.37822 0.60794 0.61966 0.0
H1460 H 0.40625 0.5826 0.61686 0.0
H1461 H 0.29299 0.54138 0.65946 0.0
H1462 H 0.2937 0.57759 0.6531 0.0
H1463 H 0.28462 0.5502 0.63992 0.0
H1464 H 0.29121 0.65475 0.62857 0.0
H1465 H 0.27538 0.58964 0.59539 0.0
H1466 H 0.35564 0.62503 0.64326 0.0
H1467 H 0.32555 0.61739 0.6549 0.0
H1468 H 0.3289 0.65168 0.64618 0.0
H1469 H 0.33522 0.54749 0.60336 0.0
H1470 H 0.3006 0.54731 0.59478 0.0
H1471 H 0.3056 0.53502 0.61409 0.0
C1472 C 0.38425 0.13901 0.1442 0.0
C1473 C 0.37087 0.1206 0.15444 0.0
C1474 C 0.37075 0.16359 0.13904 0.0
C1475 C 0.34285 0.16951 0.14392 0.0
C1476 C 0.32917 0.15095 0.15425 0.0
C1477 C 0.34352 0.12687 0.15957 0.0
C1478 C 0.38638 0.18322 0.12837 0.0
C1479 C 0.29923 0.15625 0.15944 0.0
C1480 C 0.31941 0.24586 0.14071 0.0
C1481 C 0.30622 0.2462 0.12633 0.0
C1482 C 0.3308 0.2209 0.14674 0.0
C1483 C 0.32837 0.19546 0.13836 0.0
C1484 C 0.31386 0.19537 0.12417 0.0
C1485 C 0.30326 0.22085 0.11822 0.0
C1486 C 0.34665 0.22206 0.16172 0.0
C1487 C 0.31027 0.16852 0.11508 0.0
H1488 H 0.40544 0.13426 0.14026 0.0
H1489 H 0.333 0.11247 0.16734 0.0
H1490 H 0.37499 0.18479 0.11732 0.0
H1491 H 0.38723 0.20476 0.13335 0.0
H1492 H 0.40831 0.17602 0.12608 0.0
H1493 H 0.29145 0.13958 0.16732 0.0
H1494 H 0.2978 0.17695 0.16533 0.0
H1495 H 0.285 0.15721 0.14936 0.0
H1496 H 0.32196 0.26541 0.14701 0.0
H1497 H 0.29297 0.22098 0.10715 0.0
H1498 H 0.36921 0.21683 0.15975 0.0
H1499 H 0.33816 0.20616 0.16982 0.0
H1500 H 0.34545 0.24321 0.16718 0.0
H1501 H 0.33112 0.16128 0.11083 0.0
H1502 H 0.29599 0.17142 0.10512 0.0
H1503 H 0.30165 0.15152 0.12246 0.0
C1504 C 0.10572 0.13392 0.39559 0.0
C1505 C 0.13202 0.12993 0.38862 0.0
C1506 C 0.0814 0.12083 0.38973 0.0
C1507 C 0.08372 0.10246 0.37698 0.0
C1508 C 0.11043 0.09786 0.37015 0.0
C1509 C 0.13419 0.11211 0.37588 0.0
C1510 C 0.05316 0.12696 0.39704 0.0
C1511 C 0.11396 0.07764 0.35694 0.0
C1512 C 0.02245 0.05132 0.37288 0.0
C1513 C 0.00661 0.06409 0.36126 0.0
C1514 C 0.04843 0.06274 0.37754 0.0
C1515 C 0.05813 0.08818 0.37083 0.0
C1516 C 0.04248 0.10077 0.35881 0.0
C1517 C 0.01711 0.08825 0.35398 0.0
C1518 C 0.06502 0.04807 0.38997 0.0
C1519 C 0.05165 0.12832 0.35168 0.0
H1520 H 0.10407 0.14786 0.40538 0.0
H1521 H 0.15465 0.10882 0.37059 0.0
H1522 H 0.03817 0.135 0.38831 0.0
H1523 H 0.04404 0.10726 0.4018 0.0
H1524 H 0.0548 0.14275 0.4064 0.0
H1525 H 0.13636 0.0756 0.35331 0.0
H1526 H 0.10595 0.05645 0.36019 0.0
H1527 H 0.10132 0.08488 0.34701 0.0
H1528 H 0.01428 0.03261 0.3785 0.0
H1529 H 0.0046 0.09836 0.34515 0.0
H1530 H 0.06462 0.061 0.40054 0.0
H1531 H 0.08745 0.04574 0.38651 0.0
H1532 H 0.05633 0.02685 0.39267 0.0
H1533 H 0.05139 0.14523 0.36047 0.0
H1534 H 0.03771 0.13478 0.34207 0.0
H1535 H 0.07362 0.12668 0.34738 0.0
C1536 C 0.15891 0.88022 0.6531 0.0
C1537 C 0.13021 0.88286 0.64939 0.0
C1538 C 0.17415 0.85581 0.64905 0.0
C1539 C 0.16016 0.83346 0.64137 0.0
C1540 C 0.13094 0.83567 0.63815 0.0
C1541 C 0.11642 0.86039 0.64208 0.0
C1542 C 0.20534 0.8543 0.65251 0.0
C1543 C 0.11504 0.81211 0.63029 0.0
C1544 C 0.19639 0.77975 0.61582 0.0
C1545 C 0.19647 0.75576 0.62521 0.0
C1546 C 0.18635 0.8058 0.62128 0.0
C1547 C 0.17578 0.80775 0.63641 0.0
C1548 C 0.17716 0.78396 0.64617 0.0
C1549 C 0.18765 0.75832 0.64048 0.0
C1550 C 0.18567 0.83084 0.61061 0.0
C1551 C 0.16584 0.78503 0.66231 0.0
H1552 H 0.16969 0.89764 0.65864 0.0
H1553 H 0.09418 0.86225 0.63929 0.0
H1554 H 0.21025 0.83478 0.659 0.0
H1555 H 0.21742 0.85335 0.64165 0.0
H1556 H 0.21278 0.87281 0.65921 0.0
H1557 H 0.09209 0.81666 0.62926 0.0
H1558 H 0.12374 0.80872 0.61866 0.0
H1559 H 0.11771 0.79209 0.63672 0.0
H1560 H 0.20337 0.778 0.60405 0.0
H1561 H 0.18767 0.73992 0.64785 0.0
H1562 H 0.19434 0.84984 0.61636 0.0
H1563 H 0.16348 0.83558 0.60743 0.0
H1564 H 0.19787 0.82694 0.59996 0.0
H1565 H 0.17416 0.80377 0.66844 0.0
H1566 H 0.17133 0.76579 0.66894 0.0
H1567 H 0.14249 0.78702 0.66198 0.0
C1568 C 0.47427 0.93896 0.86653 0.0
C1569 C 0.49889 0.93639 0.87531 0.0
C1570 C 0.44837 0.92839 0.87191 0.0
C1571 C 0.44738 0.91412 0.88616 0.0
C1572 C 0.47218 0.91168 0.89509 0.0
C1573 C 0.49754 0.92322 0.88965 0.0
C1574 C 0.42218 0.93208 0.86227 0.0
C1575 C 0.47222 0.89593 0.91012 0.0
C1576 C 0.37766 0.90117 0.90661 0.0
C1577 C 0.37097 0.87384 0.90165 0.0
C1578 C 0.40218 0.91484 0.9014 0.0
C1579 C 0.4208 0.90044 0.8914 0.0
C1580 C 0.41438 0.87259 0.88664 0.0
C1581 C 0.38931 0.8598 0.89163 0.0
C1582 C 0.40795 0.94481 0.90639 0.0
C1583 C 0.4341 0.85619 0.87637 0.0
H1584 H 0.47527 0.94926 0.85547 0.0
H1585 H 0.51661 0.92092 0.89641 0.0
H1586 H 0.41468 0.9112 0.8582 0.0
H1587 H 0.40495 0.94145 0.86922 0.0
H1588 H 0.426 0.94578 0.85216 0.0
H1589 H 0.49321 0.89637 0.9158 0.0
H1590 H 0.45639 0.90516 0.91801 0.0
H1591 H 0.46614 0.87359 0.90816 0.0
H1592 H 0.3633 0.91216 0.91421 0.0
H1593 H 0.38419 0.8386 0.88785 0.0
H1594 H 0.41019 0.95863 0.89621 0.0
H1595 H 0.42817 0.94583 0.91278 0.0
H1596 H 0.39089 0.95337 0.91378 0.0
H1597 H 0.43656 0.86726 0.86527 0.0
H1598 H 0.42641 0.83442 0.87411 0.0
H1599 H 0.45535 0.85487 0.88168 0.0
C1600 C 0.33491 0.76449 0.39475 0.0
C1601 C 0.31079 0.75387 0.3875 0.0
C1602 C 0.34717 0.79 0.38996 0.0
C1603 C 0.33428 0.80572 0.37805 0.0
C1604 C 0.30897 0.79576 0.3713 0.0
C1605 C 0.29789 0.76958 0.37586 0.0
C1606 C 0.37464 0.79941 0.39712 0.0
C1607 C 0.29394 0.81245 0.35904 0.0
C1608 C 0.35721 0.88234 0.37507 0.0
C1609 C 0.37568 0.88148 0.36257 0.0
C1610 C 0.34274 0.85806 0.37987 0.0
C1611 C 0.34783 0.83207 0.37237 0.0
C1612 C 0.36654 0.83112 0.35971 0.0
C1613 C 0.37983 0.85604 0.35476 0.0
C1614 C 0.32212 0.8602 0.393 0.0
C1615 C 0.37319 0.80366 0.35171 0.0
H1616 H 0.34513 0.75203 0.40356 0.0
H1617 H 0.27923 0.76124 0.37026 0.0
H1618 H 0.39128 0.8007 0.3882 0.0
H1619 H 0.3723 0.82082 0.40209 0.0
H1620 H 0.38189 0.7848 0.40625 0.0
H1621 H 0.27302 0.80326 0.35614 0.0
H1622 H 0.29087 0.83461 0.36282 0.0
H1623 H 0.307 0.81301 0.34852 0.0
H1624 H 0.35386 0.90217 0.38101 0.0
H1625 H 0.39429 0.85543 0.34515 0.0
H1626 H 0.32993 0.84775 0.40287 0.0
H1627 H 0.30141 0.85117 0.38962 0.0
H1628 H 0.31888 0.88236 0.39677 0.0
H1629 H 0.38204 0.78834 0.36004 0.0
H1630 H 0.38856 0.80646 0.34223 0.0
H1631 H 0.35359 0.79425 0.347 0.0
C1632 C 0.39174 0.13671 0.60563 0.0
C1633 C 0.37099 0.12257 0.59714 0.0
C1634 C 0.41606 0.12269 0.6107 0.0
C1635 C 0.41945 0.09358 0.6075 0.0
C1636 C 0.39884 0.07926 0.59866 0.0
C1637 C 0.37493 0.09405 0.59342 0.0
C1638 C 0.43785 0.13896 0.61974 0.0
C1639 C 0.40153 0.04814 0.59525 0.0
C1640 C 0.49444 0.06671 0.61198 0.0
C1641 C 0.49454 0.05764 0.62726 0.0
C1642 C 0.4698 0.07727 0.60514 0.0
C1643 C 0.44449 0.07837 0.61371 0.0
C1644 C 0.44403 0.06763 0.62884 0.0
C1645 C 0.46914 0.05762 0.6355 0.0
C1646 C 0.47132 0.08887 0.58907 0.0
C1647 C 0.4173 0.06794 0.63826 0.0
H1648 H 0.3888 0.15881 0.60846 0.0
H1649 H 0.35874 0.083 0.58701 0.0
H1650 H 0.43926 0.13033 0.63151 0.0
H1651 H 0.45898 0.1366 0.61441 0.0
H1652 H 0.43277 0.16182 0.6205 0.0
H1653 H 0.3844 0.04041 0.58763 0.0
H1654 H 0.42218 0.04364 0.58977 0.0
H1655 H 0.40084 0.03599 0.60609 0.0
H1656 H 0.51397 0.06682 0.60551 0.0
H1657 H 0.46901 0.05046 0.64727 0.0
H1658 H 0.46874 0.11215 0.58939 0.0
H1659 H 0.45393 0.08026 0.58197 0.0
H1660 H 0.49176 0.08393 0.58343 0.0
H1661 H 0.41174 0.09004 0.6412 0.0
H1662 H 0.41958 0.05575 0.64904 0.0
H1663 H 0.39945 0.05905 0.63159 0.0
C1664 C 0.11673 0.14025 0.86044 0.0
C1665 C 0.13142 0.11965 0.85213 0.0
C1666 C 0.12995 0.16538 0.86496 0.0
C1667 C 0.15883 0.16969 0.86146 0.0
C1668 C 0.1738 0.14897 0.85304 0.0
C1669 C 0.15978 0.12431 0.84827 0.0
C1670 C 0.113 0.18727 0.87355 0.0
C1671 C 0.20476 0.15256 0.84939 0.0
C1672 C 0.18439 0.24557 0.86249 0.0
C1673 C 0.19456 0.24787 0.87751 0.0
C1674 C 0.17336 0.22004 0.85698 0.0
C1675 C 0.17309 0.19603 0.86661 0.0
C1676 C 0.18456 0.19787 0.88155 0.0
C1677 C 0.19483 0.2239 0.88691 0.0
C1678 C 0.16073 0.21917 0.84112 0.0
C1679 C 0.18524 0.17253 0.89203 0.0
H1680 H 0.09474 0.13674 0.86336 0.0
H1681 H 0.17125 0.10825 0.842 0.0
H1682 H 0.12204 0.1904 0.88513 0.0
H1683 H 0.11411 0.20787 0.86752 0.0
H1684 H 0.09045 0.18119 0.87477 0.0
H1685 H 0.21336 0.1345 0.84276 0.0
H1686 H 0.20811 0.17222 0.84274 0.0
H1687 H 0.21699 0.15466 0.86016 0.0
H1688 H 0.18395 0.26408 0.8552 0.0
H1689 H 0.20283 0.22555 0.89849 0.0
H1690 H 0.13771 0.21501 0.84193 0.0
H1691 H 0.17015 0.2017 0.83439 0.0
H1692 H 0.16393 0.23926 0.83479 0.0
H1693 H 0.16338 0.16658 0.89526 0.0
H1694 H 0.19745 0.17668 0.90264 0.0
H1695 H 0.19471 0.15416 0.88605 0.0
C1696 C 0.12116 0.90178 0.10155 0.0
C1697 C 0.12736 0.87456 0.10687 0.0
C1698 C 0.09659 0.9159 0.10632 0.0
C1699 C 0.07746 0.90208 0.11627 0.0
C1700 C 0.08341 0.87435 0.12142 0.0
C1701 C 0.10848 0.8611 0.11683 0.0
C1702 C 0.09126 0.94569 0.10089 0.0
C1703 C 0.06318 0.85858 0.13169 0.0
C1704 C 0.02296 0.94076 0.14033 0.0
C1705 C 0.99848 0.93704 0.13155 0.0
C1706 C 0.04921 0.93077 0.13512 0.0
C1707 C 0.05076 0.91609 0.12102 0.0
C1708 C 0.02622 0.91296 0.11195 0.0
C1709 C 0.00047 0.92378 0.11724 0.0
C1710 C 0.0751 0.93514 0.14492 0.0
C1711 C 0.02683 0.89691 0.09702 0.0
H1712 H 0.13593 0.91235 0.09399 0.0
H1713 H 0.1132 0.84 0.12091 0.0
H1714 H 0.07123 0.94663 0.09433 0.0
H1715 H 0.08889 0.95997 0.11087 0.0
H1716 H 0.10862 0.95375 0.09353 0.0
H1717 H 0.07063 0.83688 0.13436 0.0
H1718 H 0.06035 0.87021 0.14259 0.0
H1719 H 0.04213 0.85711 0.12615 0.0
H1720 H 0.02153 0.95114 0.15135 0.0
H1721 H 0.98159 0.92066 0.11042 0.0
H1722 H 0.09262 0.94392 0.13795 0.0
H1723 H 0.08234 0.91455 0.14953 0.0
H1724 H 0.07098 0.94959 0.15467 0.0
H1725 H 0.04328 0.90565 0.08934 0.0
H1726 H 0.0062 0.89757 0.09097 0.0
H1727 H 0.03236 0.87451 0.09924 0.0
C1728 C 0.66473 0.76456 0.89189 0.0
C1729 C 0.68948 0.75413 0.88519 0.0
C1730 C 0.65226 0.78962 0.8866 0.0
C1731 C 0.66545 0.80507 0.8747 0.0
C1732 C 0.69114 0.79521 0.86836 0.0
C1733 C 0.70256 0.76953 0.87348 0.0
C1734 C 0.62445 0.79902 0.89336 0.0
C1735 C 0.7064 0.8116 0.85607 0.0
C1736 C 0.62077 0.85516 0.85075 0.0
C1737 C 0.62492 0.88076 0.85842 0.0
C1738 C 0.63376 0.83026 0.85596 0.0
C1739 C 0.65211 0.83135 0.86877 0.0
C1740 C 0.65716 0.85745 0.87616 0.0
C1741 C 0.64306 0.88174 0.87107 0.0
C1742 C 0.6272 0.80269 0.84806 0.0
C1743 C 0.67735 0.8597 0.88949 0.0
H1744 H 0.65439 0.75241 0.90079 0.0
H1745 H 0.72175 0.76143 0.86832 0.0
H1746 H 0.62657 0.82044 0.89835 0.0
H1747 H 0.60821 0.80027 0.88423 0.0
H1748 H 0.61679 0.78443 0.90241 0.0
H1749 H 0.7272 0.80213 0.85318 0.0
H1750 H 0.69334 0.81232 0.84555 0.0
H1751 H 0.70977 0.83373 0.85983 0.0
H1752 H 0.60656 0.85444 0.84103 0.0
H1753 H 0.64645 0.90166 0.87691 0.0
H1754 H 0.61787 0.78763 0.85637 0.0
H1755 H 0.6469 0.79299 0.84365 0.0
H1756 H 0.61225 0.8054 0.83837 0.0
H1757 H 0.6692 0.84735 0.89932 0.0
H1758 H 0.68049 0.8819 0.89323 0.0
H1759 H 0.69816 0.85063 0.88634 0.0
C1760 C 0.97217 0.94017 0.63508 0.0
C1761 C 0.99638 0.93389 0.6265 0.0
C1762 C 0.94548 0.93018 0.63055 0.0
C1763 C 0.94312 0.91307 0.61731 0.0
C1764 C 0.9674 0.90724 0.60844 0.0
C1765 C 0.99366 0.91793 0.61306 0.0
C1766 C 0.91995 0.93727 0.64015 0.0
C1767 C 0.96589 0.88867 0.59441 0.0
C1768 C 0.88307 0.86009 0.61591 0.0
C1769 C 0.86446 0.87271 0.60547 0.0
C1770 C 0.90872 0.873 0.6198 0.0
C1771 C 0.91573 0.8995 0.61334 0.0
C1772 C 0.89696 0.91248 0.60286 0.0
C1773 C 0.87165 0.89877 0.59891 0.0
C1774 C 0.92844 0.85814 0.63076 0.0
C1775 C 0.90352 0.94095 0.59594 0.0
H1776 H 0.97412 0.95263 0.64543 0.0
H1777 H 0.01228 0.91289 0.60639 0.0
H1778 H 0.90282 0.94582 0.63282 0.0
H1779 H 0.91175 0.91783 0.64565 0.0
H1780 H 0.92487 0.95294 0.64922 0.0
H1781 H 0.98646 0.88731 0.58834 0.0
H1782 H 0.95933 0.86704 0.59777 0.0
H1783 H 0.94977 0.89681 0.58633 0.0
H1784 H 0.8777 0.83987 0.62095 0.0
H1785 H 0.8572 0.90873 0.59094 0.0
H1786 H 0.93214 0.87152 0.64097 0.0
H1787 H 0.94922 0.85464 0.62521 0.0
H1788 H 0.92001 0.83743 0.63459 0.0
H1789 H 0.90679 0.95674 0.60515 0.0
H1790 H 0.88639 0.94852 0.58829 0.0
H1791 H 0.92342 0.93981 0.58928 0.0
C1792 C 0.82533 0.24581 0.37126 0.0
C1793 C 0.81199 0.24712 0.38556 0.0
C1794 C 0.83718 0.22057 0.36591 0.0
C1795 C 0.83484 0.19577 0.37486 0.0
C1796 C 0.82056 0.19674 0.38909 0.0
C1797 C 0.80972 0.22259 0.39442 0.0
C1798 C 0.85296 0.22065 0.35089 0.0
C1799 C 0.81688 0.17054 0.39872 0.0
C1800 C 0.84716 0.12718 0.35331 0.0
C1801 C 0.87472 0.12033 0.35782 0.0
C1802 C 0.83349 0.15113 0.35922 0.0
C1803 C 0.84815 0.16913 0.36944 0.0
C1804 C 0.87611 0.16237 0.37392 0.0
C1805 C 0.88887 0.13775 0.36826 0.0
C1806 C 0.80339 0.15717 0.35454 0.0
C1807 C 0.89279 0.18149 0.38438 0.0
H1808 H 0.82742 0.26484 0.36446 0.0
H1809 H 0.79931 0.22357 0.40545 0.0
H1810 H 0.87514 0.21389 0.35277 0.0
H1811 H 0.84327 0.20536 0.34285 0.0
H1812 H 0.8531 0.24181 0.3454 0.0
H1813 H 0.80352 0.17442 0.40895 0.0
H1814 H 0.80711 0.15348 0.39181 0.0
H1815 H 0.8378 0.16277 0.40259 0.0
H1816 H 0.83609 0.11349 0.34538 0.0
H1817 H 0.91024 0.13249 0.37169 0.0
H1818 H 0.80244 0.17716 0.34796 0.0
H1819 H 0.78998 0.15995 0.36484 0.0
H1820 H 0.7943 0.14001 0.34741 0.0
H1821 H 0.89467 0.20278 0.37917 0.0
H1822 H 0.91436 0.17327 0.38669 0.0
H1823 H 0.88162 0.18405 0.39544 0.0
C1824 C 0.6057 0.13733 0.11462 0.0
C1825 C 0.62383 0.1234 0.10445 0.0
C1826 C 0.58093 0.12435 0.11991 0.0
C1827 C 0.57455 0.09643 0.11526 0.0
C1828 C 0.59282 0.0822 0.105 0.0
C1829 C 0.61708 0.09604 0.09954 0.0
C1830 C 0.5616 0.14055 0.13049 0.0
C1831 C 0.58704 0.05222 0.10005 0.0
C1832 C 0.52296 0.05802 0.14132 0.0
C1833 C 0.49759 0.061 0.13322 0.0
C1834 C 0.5485 0.06828 0.13527 0.0
C1835 C 0.54845 0.08246 0.12099 0.0
C1836 C 0.52298 0.08494 0.11264 0.0
C1837 C 0.49795 0.07389 0.11877 0.0
C1838 C 0.57539 0.06462 0.14434 0.0
C1839 C 0.52187 0.10044 0.09755 0.0
H1840 H 0.61083 0.15854 0.11839 0.0
H1841 H 0.63127 0.08509 0.09182 0.0
H1842 H 0.54002 0.14155 0.12555 0.0
H1843 H 0.55996 0.1295 0.14164 0.0
H1844 H 0.56913 0.16243 0.13258 0.0
H1845 H 0.60352 0.044 0.09218 0.0
H1846 H 0.58597 0.03827 0.11024 0.0
H1847 H 0.56626 0.05093 0.09423 0.0
H1848 H 0.52281 0.04795 0.15246 0.0
H1849 H 0.47838 0.07645 0.11248 0.0
H1850 H 0.58296 0.0855 0.14837 0.0
H1851 H 0.5922 0.05553 0.13699 0.0
H1852 H 0.57239 0.05071 0.15444 0.0
H1853 H 0.52747 0.12296 0.09934 0.0
H1854 H 0.50064 0.09941 0.09216 0.0
H1855 H 0.53756 0.09152 0.08946 0.0
C1856 C 0.68673 0.22396 0.61629 0.0
C1857 C 0.68503 0.2484 0.62526 0.0
C1858 C 0.67524 0.19829 0.62147 0.0
C1859 C 0.66088 0.19739 0.63569 0.0
C1860 C 0.65921 0.22206 0.64478 0.0
C1861 C 0.6717 0.24713 0.63956 0.0
C1862 C 0.67819 0.17223 0.61166 0.0
C1863 C 0.64335 0.22225 0.65977 0.0
C1864 C 0.6053 0.14026 0.64074 0.0
C1865 C 0.61895 0.1214 0.65064 0.0
C1866 C 0.61858 0.16525 0.63597 0.0
C1867 C 0.64655 0.17103 0.6408 0.0
C1868 C 0.66054 0.1519 0.65069 0.0
C1869 C 0.64637 0.12751 0.6557 0.0
C1870 C 0.60259 0.18554 0.62583 0.0
C1871 C 0.69062 0.15693 0.65574 0.0
H1872 H 0.69712 0.22489 0.60525 0.0
H1873 H 0.67005 0.26609 0.64646 0.0
H1874 H 0.68717 0.15463 0.61849 0.0
H1875 H 0.6571 0.16535 0.60759 0.0
H1876 H 0.69193 0.1759 0.60155 0.0
H1877 H 0.64421 0.24315 0.66553 0.0
H1878 H 0.62089 0.21667 0.65775 0.0
H1879 H 0.65219 0.20614 0.66763 0.0
H1880 H 0.58405 0.1356 0.63686 0.0
H1881 H 0.65709 0.11274 0.66319 0.0
H1882 H 0.61364 0.18789 0.61472 0.0
H1883 H 0.60185 0.20673 0.63123 0.0
H1884 H 0.58061 0.17842 0.62358 0.0
H1885 H 0.70452 0.15901 0.64558 0.0
H1886 H 0.69878 0.13958 0.66307 0.0
H1887 H 0.69207 0.17702 0.66221 0.0
C1888 C 0.50824 0.92325 0.39194 0.0
C1889 C 0.50488 0.93623 0.37764 0.0
C1890 C 0.53435 0.91199 0.39644 0.0
C1891 C 0.55789 0.91443 0.38656 0.0
C1892 C 0.55492 0.92855 0.37235 0.0
C1893 C 0.5283 0.93894 0.36796 0.0
C1894 C 0.53642 0.89645 0.41149 0.0
C1895 C 0.57971 0.93218 0.36168 0.0
C1896 C 0.63049 0.90122 0.40387 0.0
C1897 C 0.63622 0.87377 0.39873 0.0
C1898 C 0.60528 0.91498 0.39978 0.0
C1899 C 0.58508 0.90062 0.39069 0.0
C1900 C 0.59058 0.87269 0.38575 0.0
C1901 C 0.61623 0.85976 0.38966 0.0
C1902 C 0.60043 0.94499 0.40497 0.0
C1903 C 0.56928 0.85636 0.37639 0.0
H1904 H 0.49013 0.92089 0.39942 0.0
H1905 H 0.52581 0.94911 0.35693 0.0
H1906 H 0.54193 0.87401 0.40937 0.0
H1907 H 0.55349 0.9056 0.41862 0.0
H1908 H 0.51636 0.8972 0.41807 0.0
H1909 H 0.57453 0.94588 0.35175 0.0
H1910 H 0.59788 0.94151 0.3679 0.0
H1911 H 0.58655 0.91127 0.35732 0.0
H1912 H 0.64605 0.91221 0.41076 0.0
H1913 H 0.62052 0.83847 0.38573 0.0
H1914 H 0.58115 0.94616 0.41215 0.0
H1915 H 0.59689 0.95881 0.3949 0.0
H1916 H 0.61852 0.95344 0.41165 0.0
H1917 H 0.54889 0.85518 0.38262 0.0
H1918 H 0.57648 0.83454 0.37383 0.0
H1919 H 0.56523 0.86741 0.36543 0.0
C1920 C 0.82267 0.74743 0.13726 0.0
C1921 C 0.8105 0.74672 0.12263 0.0
C1922 C 0.83418 0.77243 0.14317 0.0
C1923 C 0.83275 0.79753 0.13444 0.0
C1924 C 0.81948 0.79719 0.1199 0.0
C1925 C 0.80891 0.77164 0.11405 0.0
C1926 C 0.84886 0.77169 0.15851 0.0
C1927 C 0.81688 0.82372 0.11042 0.0
C1928 C 0.84515 0.86708 0.15518 0.0
C1929 C 0.87274 0.87364 0.15058 0.0
C1930 C 0.83168 0.84251 0.14988 0.0
C1931 C 0.84652 0.82373 0.14015 0.0
C1932 C 0.87471 0.82989 0.13589 0.0
C1933 C 0.88732 0.85499 0.14097 0.0
C1934 C 0.80138 0.837 0.15435 0.0
C1935 C 0.89156 0.81 0.12593 0.0
H1936 H 0.82419 0.72812 0.14387 0.0
H1937 H 0.79939 0.77116 0.10278 0.0
H1938 H 0.87147 0.77726 0.15705 0.0
H1939 H 0.83948 0.78757 0.16632 0.0
H1940 H 0.84752 0.75061 0.16404 0.0
H1941 H 0.80383 0.82043 0.10002 0.0
H1942 H 0.80732 0.84089 0.11733 0.0
H1943 H 0.83816 0.83097 0.10685 0.0
H1944 H 0.83375 0.88168 0.16246 0.0
H1945 H 0.90871 0.86 0.13746 0.0
H1946 H 0.79966 0.81645 0.16037 0.0
H1947 H 0.78805 0.83562 0.14394 0.0
H1948 H 0.79276 0.85379 0.1619 0.0
H1949 H 0.89193 0.78861 0.13111 0.0
H1950 H 0.91368 0.81724 0.12429 0.0
H1951 H 0.88141 0.80807 0.11455 0.0
C1952 C 0.97652 0.06031 0.86527 0.0
C1953 C 0.00145 0.06488 0.87354 0.0
C1954 C 0.95051 0.07072 0.8706 0.0
C1955 C 0.94963 0.08665 0.88432 0.0
C1956 C 0.97468 0.0909 0.89283 0.0
C1957 C 0.00021 0.07971 0.88742 0.0
C1958 C 0.92409 0.06524 0.8614 0.0
C1959 C 0.97477 0.10825 0.90733 0.0
C1960 C 0.89062 0.14033 0.8885 0.0
C1961 C 0.87262 0.12696 0.89898 0.0
C1962 C 0.91583 0.12751 0.88376 0.0
C1963 C 0.9229 0.10034 0.88933 0.0
C1964 C 0.90477 0.08667 0.89988 0.0
C1965 C 0.87998 0.10032 0.90473 0.0
C1966 C 0.93495 0.1431 0.8728 0.0
C1967 C 0.91135 0.05749 0.90584 0.0
H1968 H 0.97736 0.04875 0.85458 0.0
H1969 H 0.01944 0.0835 0.89384 0.0
H1970 H 0.90734 0.05631 0.86884 0.0
H1971 H 0.91595 0.08541 0.85669 0.0
H1972 H 0.92792 0.05046 0.85175 0.0
H1973 H 0.99587 0.10874 0.91288 0.0
H1974 H 0.96834 0.13026 0.90469 0.0
H1975 H 0.95923 0.09969 0.9156 0.0
H1976 H 0.88505 0.16098 0.88408 0.0
H1977 H 0.86594 0.08979 0.9127 0.0
H1978 H 0.93742 0.13079 0.8621 0.0
H1979 H 0.95628 0.14553 0.8779 0.0
H1980 H 0.92671 0.16438 0.86984 0.0
H1981 H 0.91341 0.04252 0.89614 0.0
H1982 H 0.89478 0.04953 0.91374 0.0
H1983 H 0.93186 0.05761 0.91197 0.0
C1984 C 0.80333 0.71988 0.61828 0.0
C1985 C 0.8061 0.74428 0.62723 0.0
C1986 C 0.8139 0.69381 0.62341 0.0
C1987 C 0.82806 0.69229 0.63767 0.0
C1988 C 0.83006 0.71666 0.64696 0.0
C1989 C 0.81883 0.74227 0.64169 0.0
C1990 C 0.81086 0.66812 0.61332 0.0
C1991 C 0.84542 0.71608 0.6621 0.0
C1992 C 0.84451 0.62107 0.65587 0.0
C1993 C 0.87209 0.61627 0.65064 0.0
C1994 C 0.8297 0.6456 0.65162 0.0
C1995 C 0.84308 0.66599 0.64224 0.0
C1996 C 0.87118 0.66151 0.63727 0.0
C1997 C 0.8852 0.63659 0.64139 0.0
C1998 C 0.79959 0.64944 0.65691 0.0
C1999 C 0.88647 0.68303 0.62756 0.0
H2000 H 0.79336 0.72126 0.60714 0.0
H2001 H 0.82115 0.76105 0.64867 0.0
H2002 H 0.83188 0.66186 0.60886 0.0
H2003 H 0.80252 0.65005 0.62002 0.0
H2004 H 0.7966 0.67204 0.60346 0.0
H2005 H 0.84336 0.73631 0.66844 0.0
H2006 H 0.83725 0.69876 0.6694 0.0
H2007 H 0.8682 0.71191 0.66012 0.0
H2008 H 0.83422 0.60526 0.6629 0.0
H2009 H 0.90659 0.63304 0.63739 0.0
H2010 H 0.78542 0.65127 0.64685 0.0
H2011 H 0.79756 0.66931 0.66353 0.0
H2012 H 0.79222 0.63161 0.66414 0.0
H2013 H 0.87517 0.68596 0.61656 0.0
H2014 H 0.90859 0.67672 0.62506 0.0
H2015 H 0.88675 0.70378 0.63346 0.0
C2016 C 0.61048 0.6322 0.89904 0.0
C2017 C 0.6368 0.62717 0.89228 0.0
C2018 C 0.5859 0.61954 0.89322 0.0
C2019 C 0.58793 0.60053 0.88074 0.0
C2020 C 0.61464 0.59483 0.87414 0.0
C2021 C 0.6387 0.60868 0.87981 0.0
C2022 C 0.55772 0.62686 0.90026 0.0
C2023 C 0.61783 0.57391 0.86123 0.0
C2024 C 0.52503 0.55124 0.87698 0.0
C2025 C 0.50989 0.56391 0.86506 0.0
C2026 C 0.55131 0.56201 0.88162 0.0
C2027 C 0.562 0.58676 0.87461 0.0
C2028 C 0.54699 0.59925 0.86231 0.0
C2029 C 0.52132 0.58732 0.85749 0.0
C2030 C 0.56717 0.5474 0.89434 0.0
C2031 C 0.55718 0.62615 0.85486 0.0
H2032 H 0.60903 0.64669 0.90861 0.0
H2033 H 0.65915 0.60463 0.87468 0.0
H2034 H 0.54317 0.63497 0.89133 0.0
H2035 H 0.54788 0.60768 0.90521 0.0
H2036 H 0.55964 0.64301 0.90942 0.0
H2037 H 0.64025 0.57094 0.85783 0.0
H2038 H 0.60899 0.55316 0.86468 0.0
H2039 H 0.60574 0.58114 0.8511 0.0
H2040 H 0.51611 0.53311 0.88282 0.0
H2041 H 0.50933 0.59735 0.84843 0.0
H2042 H 0.56697 0.5608 0.90474 0.0
H2043 H 0.58958 0.5442 0.89106 0.0
H2044 H 0.55777 0.52659 0.89726 0.0
H2045 H 0.55732 0.64346 0.86341 0.0
H2046 H 0.54363 0.6326 0.84509 0.0
H2047 H 0.57916 0.6236 0.8507 0.0
C2048 C 0.61314 0.35857 0.14008 0.0
C2049 C 0.62746 0.37884 0.14882 0.0
C2050 C 0.62643 0.33347 0.13561 0.0
C2051 C 0.65499 0.32875 0.13968 0.0
C2052 C 0.66958 0.34907 0.14857 0.0
C2053 C 0.65551 0.37379 0.15321 0.0
C2054 C 0.60988 0.31203 0.12646 0.0
C2055 C 0.70017 0.34496 0.1529 0.0
C2056 C 0.67799 0.25217 0.13835 0.0
C2057 C 0.68879 0.24996 0.12345 0.0
C2058 C 0.66794 0.27797 0.14402 0.0
C2059 C 0.66921 0.30231 0.13467 0.0
C2060 C 0.68159 0.30059 0.11994 0.0
C2061 C 0.69097 0.27433 0.11443 0.0
C2062 C 0.65444 0.27876 0.15966 0.0
C2063 C 0.68386 0.32624 0.10977 0.0
H2064 H 0.5914 0.36233 0.13675 0.0
H2065 H 0.66672 0.38957 0.15983 0.0
H2066 H 0.61986 0.30899 0.11511 0.0
H2067 H 0.61012 0.2913 0.13238 0.0
H2068 H 0.58756 0.31851 0.1247 0.0
H2069 H 0.70845 0.36268 0.15991 0.0
H2070 H 0.70277 0.32503 0.1594 0.0
H2071 H 0.71321 0.34311 0.1424 0.0
H2072 H 0.67615 0.23342 0.14539 0.0
H2073 H 0.69947 0.27279 0.10295 0.0
H2074 H 0.63149 0.28303 0.15846 0.0
H2075 H 0.66354 0.2961 0.16662 0.0
H2076 H 0.65716 0.25858 0.16597 0.0
H2077 H 0.66247 0.33272 0.10595 0.0
H2078 H 0.69702 0.32215 0.09948 0.0
H2079 H 0.69309 0.34423 0.11618 0.0
C2080 C 0.86424 0.39164 0.38725 0.0
C2081 C 0.86604 0.37359 0.39992 0.0
C2082 C 0.88822 0.40561 0.38163 0.0
C2083 C 0.91483 0.40051 0.38848 0.0
C2084 C 0.91675 0.38221 0.40128 0.0
C2085 C 0.89218 0.36936 0.40704 0.0
C2086 C 0.8851 0.42575 0.36834 0.0
C2087 C 0.94485 0.37557 0.40862 0.0
C2088 C 0.98026 0.41303 0.3642 0.0
C2089 C 0.99125 0.43762 0.3708 0.0
C2090 C 0.95542 0.40066 0.36987 0.0
C2091 C 0.94073 0.41384 0.38206 0.0
C2092 C 0.9511 0.43944 0.38827 0.0
C2093 C 0.97659 0.45072 0.38277 0.0
C2094 C 0.94552 0.37293 0.36324 0.0
C2095 C 0.9355 0.45472 0.40085 0.0
H2096 H 0.84392 0.39507 0.38183 0.0
H2097 H 0.89355 0.35521 0.41676 0.0
H2098 H 0.89437 0.44657 0.37131 0.0
H2099 H 0.89681 0.4176 0.35829 0.0
H2100 H 0.86266 0.42888 0.36502 0.0
H2101 H 0.94279 0.36053 0.4183 0.0
H2102 H 0.95934 0.36633 0.39998 0.0
H2103 H 0.95485 0.39523 0.41288 0.0
H2104 H 0.99187 0.40268 0.35509 0.0
H2105 H 0.98513 0.46978 0.38785 0.0
H2106 H 0.92374 0.37508 0.35871 0.0
H2107 H 0.94493 0.35663 0.37235 0.0
H2108 H 0.95944 0.36535 0.35387 0.0
H2109 H 0.91312 0.45804 0.39752 0.0
H2110 H 0.94512 0.47554 0.40353 0.0
H2111 H 0.93551 0.44171 0.41139 0.0
C2112 C 0.84438 0.37944 0.85361 0.0
C2113 C 0.87191 0.38493 0.85873 0.0
C2114 C 0.83002 0.35486 0.85818 0.0
C2115 C 0.84387 0.33502 0.86772 0.0
C2116 C 0.87176 0.34042 0.87279 0.0
C2117 C 0.88528 0.36547 0.8684 0.0
C2118 C 0.80007 0.35012 0.85284 0.0
C2119 C 0.88755 0.31948 0.88263 0.0
C2120 C 0.80574 0.2785 0.89068 0.0
C2121 C 0.80953 0.25472 0.88136 0.0
C2122 C 0.81545 0.30521 0.88601 0.0
C2123 C 0.82989 0.30795 0.87189 0.0
C2124 C 0.83302 0.28415 0.86227 0.0
C2125 C 0.82251 0.25793 0.86704 0.0
C2126 C 0.8111 0.33028 0.8964 0.0
C2127 C 0.84879 0.28602 0.84728 0.0
H2128 H 0.83389 0.39462 0.84627 0.0
H2129 H 0.90663 0.36958 0.87231 0.0
H2130 H 0.79899 0.33091 0.84561 0.0
H2131 H 0.78605 0.34654 0.86283 0.0
H2132 H 0.79179 0.36827 0.84615 0.0
H2133 H 0.9092 0.3268 0.88552 0.0
H2134 H 0.87585 0.31572 0.89343 0.0
H2135 H 0.88914 0.29891 0.87661 0.0
H2136 H 0.79556 0.27616 0.90171 0.0
H2137 H 0.82565 0.23962 0.85979 0.0
H2138 H 0.80228 0.34832 0.88986 0.0
H2139 H 0.83171 0.33715 0.90116 0.0
H2140 H 0.79669 0.32535 0.90607 0.0
H2141 H 0.83983 0.30301 0.84003 0.0
H2142 H 0.8481 0.26589 0.84076 0.0
H2143 H 0.87122 0.29147 0.8495 0.0
C2144 C 0.97858 0.54752 0.12264 0.0
C2145 C 0.991 0.55944 0.13568 0.0
C2146 C 0.95296 0.55798 0.11684 0.0
C2147 C 0.94017 0.58168 0.12388 0.0
C2148 C 0.95253 0.59357 0.13717 0.0
C2149 C 0.97755 0.58194 0.14308 0.0
C2150 C 0.93987 0.54399 0.10304 0.0
C2151 C 0.94003 0.61935 0.14475 0.0
C2152 C 0.89204 0.62782 0.09952 0.0
C2153 C 0.86547 0.62117 0.10553 0.0
C2154 C 0.9166 0.61515 0.10541 0.0
C2155 C 0.91429 0.59457 0.11714 0.0
C2156 C 0.88729 0.58695 0.12274 0.0
C2157 C 0.86325 0.6008 0.11708 0.0
C2158 C 0.94505 0.62448 0.09947 0.0
C2159 C 0.8838 0.56436 0.13478 0.0
H2160 H 0.98903 0.53009 0.11692 0.0
H2161 H 0.98743 0.59143 0.15302 0.0
H2162 H 0.91735 0.539 0.1053 0.0
H2163 H 0.94049 0.55861 0.09314 0.0
H2164 H 0.951 0.5242 0.09983 0.0
H2165 H 0.95225 0.62606 0.15497 0.0
H2166 H 0.93947 0.63713 0.13648 0.0
H2167 H 0.91794 0.61511 0.14829 0.0
H2168 H 0.89368 0.64379 0.09068 0.0
H2169 H 0.84259 0.59557 0.12164 0.0
H2170 H 0.9567 0.60619 0.0947 0.0
H2171 H 0.9579 0.63307 0.10902 0.0
H2172 H 0.94322 0.64091 0.09045 0.0
H2173 H 0.89487 0.54478 0.1312 0.0
H2174 H 0.86125 0.55926 0.13695 0.0
H2175 H 0.89353 0.5714 0.14567 0.0
C2176 C 0.65965 0.62053 0.34841 0.0
C2177 C 0.6318 0.61555 0.35316 0.0
C2178 C 0.67397 0.64527 0.3528 0.0
C2179 C 0.65983 0.66566 0.36185 0.0
C2180 C 0.63149 0.66099 0.36634 0.0
C2181 C 0.61794 0.63589 0.36207 0.0
C2182 C 0.70433 0.64935 0.34802 0.0
C2183 C 0.61543 0.68248 0.37569 0.0
C2184 C 0.69764 0.72027 0.38623 0.0
C2185 C 0.69505 0.74453 0.37715 0.0
C2186 C 0.68764 0.69402 0.38103 0.0
C2187 C 0.6743 0.69217 0.36655 0.0
C2188 C 0.67252 0.7164 0.35714 0.0
C2189 C 0.68312 0.74221 0.3625 0.0
C2190 C 0.69038 0.6685 0.39127 0.0
C2191 C 0.65806 0.71545 0.34175 0.0
H2192 H 0.67052 0.60473 0.34164 0.0
H2193 H 0.59635 0.63221 0.3657 0.0
H2194 H 0.70653 0.66915 0.34134 0.0
H2195 H 0.71789 0.65149 0.3583 0.0
H2196 H 0.7123 0.6315 0.341 0.0
H2197 H 0.59325 0.67595 0.37787 0.0
H2198 H 0.62609 0.68572 0.38686 0.0
H2199 H 0.61524 0.70313 0.36969 0.0
H2200 H 0.707 0.72189 0.39751 0.0
H2201 H 0.68099 0.76086 0.35541 0.0
H2202 H 0.69932 0.65044 0.3848 0.0
H2203 H 0.66918 0.66205 0.39539 0.0
H2204 H 0.70401 0.67271 0.40136 0.0
H2205 H 0.66683 0.69811 0.33467 0.0
H2206 H 0.66028 0.7356 0.33536 0.0
H2207 H 0.63522 0.71105 0.34336 0.0
C2208 C 0.63413 0.39389 0.62259 0.0
C2209 C 0.63215 0.37454 0.61051 0.0
C2210 C 0.6101 0.40798 0.62808 0.0
C2211 C 0.58332 0.40166 0.62174 0.0
C2212 C 0.58125 0.38204 0.60953 0.0
C2213 C 0.60582 0.36911 0.60386 0.0
C2214 C 0.61336 0.42954 0.64068 0.0
C2215 C 0.55299 0.37409 0.60277 0.0
C2216 C 0.51814 0.41444 0.64618 0.0
C2217 C 0.50598 0.43773 0.63883 0.0
C2218 C 0.54344 0.40257 0.64079 0.0
C2219 C 0.55737 0.41498 0.62812 0.0
C2220 C 0.54592 0.4395 0.62122 0.0
C2221 C 0.52001 0.45023 0.62646 0.0
C2222 C 0.55449 0.37595 0.64818 0.0
C2223 C 0.56068 0.45403 0.60809 0.0
H2224 H 0.65459 0.39824 0.62764 0.0
H2225 H 0.60434 0.35395 0.5946 0.0
H2226 H 0.60343 0.44979 0.63722 0.0
H2227 H 0.60235 0.42218 0.65113 0.0
H2228 H 0.63587 0.43354 0.64356 0.0
H2229 H 0.55496 0.35809 0.59354 0.0
H2230 H 0.53905 0.36551 0.61186 0.0
H2231 H 0.54243 0.39306 0.59802 0.0
H2232 H 0.50702 0.40452 0.65559 0.0
H2233 H 0.51055 0.46825 0.62078 0.0
H2234 H 0.57646 0.37915 0.65223 0.0
H2235 H 0.55497 0.35863 0.63963 0.0
H2236 H 0.54133 0.36912 0.65803 0.0
H2237 H 0.58317 0.45793 0.611 0.0
H2238 H 0.55059 0.47447 0.60509 0.0
H2239 H 0.56031 0.44022 0.59785 0.0
C2240 C 0.13652 0.38547 0.37352 0.0
C2241 C 0.11876 0.38431 0.36071 0.0
C2242 C 0.15096 0.36136 0.37863 0.0
C2243 C 0.14664 0.33527 0.37108 0.0
C2244 C 0.12842 0.33395 0.35823 0.0
C2245 C 0.1151 0.35865 0.35302 0.0
C2246 C 0.17099 0.36385 0.39201 0.0
C2247 C 0.12261 0.30638 0.35015 0.0
C2248 C 0.19851 0.27437 0.37419 0.0
C2249 C 0.18579 0.25762 0.38545 0.0
C2250 C 0.18672 0.3004 0.36992 0.0
C2251 C 0.16099 0.30926 0.37665 0.0
C2252 C 0.14835 0.2926 0.38824 0.0
C2253 C 0.16121 0.26717 0.39269 0.0
C2254 C 0.2014 0.31805 0.35793 0.0
C2255 C 0.12053 0.3009 0.39539 0.0
H2256 H 0.13955 0.40543 0.37938 0.0
H2257 H 0.10121 0.35776 0.34317 0.0
H2258 H 0.16359 0.35044 0.4016 0.0
H2259 H 0.19225 0.35611 0.38867 0.0
H2260 H 0.17297 0.38593 0.39616 0.0
H2261 H 0.10707 0.30877 0.34072 0.0
H2262 H 0.14248 0.29773 0.34535 0.0
H2263 H 0.11437 0.29063 0.35843 0.0
H2264 H 0.21758 0.26696 0.36861 0.0
H2265 H 0.15116 0.254 0.40125 0.0
H2266 H 0.20371 0.34014 0.36198 0.0
H2267 H 0.18849 0.31861 0.34735 0.0
H2268 H 0.22264 0.30965 0.35503 0.0
H2269 H 0.12198 0.32238 0.40037 0.0
H2270 H 0.11384 0.28597 0.4045 0.0
H2271 H 0.10388 0.30152 0.38645 0.0
C2272 C 0.38394 0.35905 0.11513 0.0
C2273 C 0.3661 0.37191 0.10439 0.0
C2274 C 0.40932 0.37186 0.11962 0.0
C2275 C 0.41675 0.39852 0.11349 0.0
C2276 C 0.39872 0.41174 0.10272 0.0
C2277 C 0.37374 0.39809 0.09815 0.0
C2278 C 0.42831 0.35673 0.13084 0.0
C2279 C 0.40568 0.44041 0.09617 0.0
C2280 C 0.47172 0.43896 0.13647 0.0
C2281 C 0.49637 0.43327 0.12815 0.0
C2282 C 0.44537 0.4288 0.13147 0.0
C2283 C 0.44385 0.41201 0.11808 0.0
C2284 C 0.46863 0.40663 0.10953 0.0
C2285 C 0.49451 0.41759 0.11457 0.0
C2286 C 0.41928 0.4355 0.1407 0.0
C2287 C 0.46804 0.38832 0.09538 0.0
H2288 H 0.37818 0.33874 0.11993 0.0
H2289 H 0.35984 0.40824 0.08996 0.0
H2290 H 0.44947 0.35344 0.12569 0.0
H2291 H 0.43126 0.36981 0.14123 0.0
H2292 H 0.41967 0.33588 0.13432 0.0
H2293 H 0.38902 0.44821 0.08828 0.0
H2294 H 0.40838 0.45593 0.10557 0.0
H2295 H 0.42598 0.43947 0.08986 0.0
H2296 H 0.47305 0.45119 0.14692 0.0
H2297 H 0.51351 0.41295 0.10813 0.0
H2298 H 0.41082 0.41586 0.14587 0.0
H2299 H 0.40256 0.44424 0.13316 0.0
H2300 H 0.42362 0.45088 0.15 0.0
H2301 H 0.46117 0.36665 0.09848 0.0
H2302 H 0.48901 0.38698 0.08973 0.0
H2303 H 0.45253 0.39667 0.08702 0.0
C2304 C 0.3079 0.72232 0.89243 0.0
C2305 C 0.31089 0.74704 0.88377 0.0
C2306 C 0.31876 0.69648 0.88711 0.0
C2307 C 0.33364 0.69563 0.87306 0.0
C2308 C 0.33623 0.72045 0.86417 0.0
C2309 C 0.32449 0.74574 0.86954 0.0
C2310 C 0.31489 0.67024 0.89669 0.0
C2311 C 0.35251 0.72063 0.84931 0.0
C2312 C 0.38959 0.63899 0.86793 0.0
C2313 C 0.37648 0.62062 0.85756 0.0
C2314 C 0.37587 0.66348 0.87304 0.0
C2315 C 0.34802 0.66928 0.86802 0.0
C2316 C 0.33447 0.65052 0.85775 0.0
C2317 C 0.34905 0.62661 0.85245 0.0
C2318 C 0.39136 0.68338 0.88362 0.0
C2319 C 0.30455 0.65562 0.85246 0.0
H2320 H 0.2973 0.72322 0.90341 0.0
H2321 H 0.3271 0.76483 0.86284 0.0
H2322 H 0.30632 0.65282 0.88959 0.0
H2323 H 0.33563 0.66318 0.90119 0.0
H2324 H 0.30045 0.67384 0.90652 0.0
H2325 H 0.35189 0.74154 0.84356 0.0
H2326 H 0.37491 0.71503 0.85153 0.0
H2327 H 0.34389 0.70455 0.84136 0.0
H2328 H 0.41084 0.63442 0.87185 0.0
H2329 H 0.33874 0.61222 0.84459 0.0
H2330 H 0.37957 0.68567 0.89451 0.0
H2331 H 0.39271 0.70465 0.87835 0.0
H2332 H 0.41309 0.67599 0.88627 0.0
H2333 H 0.29035 0.65779 0.86249 0.0
H2334 H 0.29655 0.63827 0.84508 0.0
H2335 H 0.30336 0.67568 0.84594 0.0
C2336 C 0.02815 0.56016 0.6371 0.0
C2337 C 0.00336 0.56475 0.62869 0.0
C2338 C 0.05417 0.57114 0.63209 0.0
C2339 C 0.05521 0.58764 0.61858 0.0
C2340 C 0.0303 0.59197 0.60995 0.0
C2341 C 0.00477 0.58023 0.61502 0.0
C2342 C 0.08042 0.56555 0.64141 0.0
C2343 C 0.03037 0.60991 0.59566 0.0
C2344 C 0.11415 0.64173 0.61522 0.0
C2345 C 0.13235 0.62881 0.60469 0.0
C2346 C 0.08889 0.62864 0.61973 0.0
C2347 C 0.08199 0.60164 0.61385 0.0
C2348 C 0.10036 0.58841 0.60326 0.0
C2349 C 0.12517 0.60233 0.59865 0.0
C2350 C 0.06953 0.64379 0.63073 0.0
C2351 C 0.094 0.55941 0.59697 0.0
H2352 H 0.0272 0.54811 0.64763 0.0
H2353 H 0.98566 0.58404 0.60851 0.0
H2354 H 0.09736 0.55691 0.634 0.0
H2355 H 0.08837 0.58563 0.64633 0.0
H2356 H 0.07649 0.55047 0.65092 0.0
H2357 H 0.00935 0.61056 0.59002 0.0
H2358 H 0.03672 0.63182 0.59857 0.0
H2359 H 0.04605 0.60171 0.58736 0.0
H2360 H 0.11956 0.66225 0.61987 0.0
H2361 H 0.13934 0.59213 0.59063 0.0
H2362 H 0.06689 0.63108 0.64129 0.0
H2363 H 0.04829 0.64632 0.62554 0.0
H2364 H 0.07765 0.66498 0.63395 0.0
H2365 H 0.09176 0.54411 0.60651 0.0
H2366 H 0.11076 0.55176 0.58911 0.0
H2367 H 0.07363 0.55968 0.59071 0.0
C2368 C 0.10904 0.6351 0.13807 0.0
C2369 C 0.12171 0.6172 0.14884 0.0
C2370 C 0.1224 0.66006 0.13335 0.0
C2371 C 0.14948 0.66684 0.13919 0.0
C2372 C 0.16264 0.64851 0.14983 0.0
C2373 C 0.14837 0.6241 0.15472 0.0
C2374 C 0.10729 0.67945 0.12234 0.0
C2375 C 0.19178 0.65465 0.156 0.0
C2376 C 0.19028 0.72164 0.11625 0.0
C2377 C 0.18566 0.74607 0.12494 0.0
C2378 C 0.17966 0.69537 0.12109 0.0
C2379 C 0.16334 0.69377 0.13465 0.0
C2380 C 0.15898 0.71835 0.14354 0.0
C2381 C 0.17052 0.74409 0.13868 0.0
C2382 C 0.18541 0.66945 0.11154 0.0
C2383 C 0.14111 0.71774 0.15786 0.0
H2384 H 0.08837 0.62984 0.13356 0.0
H2385 H 0.15835 0.61008 0.1629 0.0
H2386 H 0.10451 0.70058 0.12762 0.0
H2387 H 0.12012 0.68237 0.11185 0.0
H2388 H 0.0862 0.67123 0.11899 0.0
H2389 H 0.19972 0.63746 0.16351 0.0
H2390 H 0.20684 0.6576 0.14641 0.0
H2391 H 0.19153 0.67459 0.16265 0.0
H2392 H 0.20207 0.72308 0.10565 0.0
H2393 H 0.16664 0.76296 0.14538 0.0
H2394 H 0.1654 0.66164 0.10647 0.0
H2395 H 0.19397 0.65227 0.11882 0.0
H2396 H 0.20059 0.67373 0.10214 0.0
H2397 H 0.11926 0.71119 0.15493 0.0
H2398 H 0.14023 0.73862 0.16363 0.0
H2399 H 0.14956 0.702 0.16605 0.0
C2400 C 0.13695 0.39262 0.88184 0.0
C2401 C 0.13613 0.37355 0.89408 0.0
C2402 C 0.11239 0.40647 0.87689 0.0
C2403 C 0.08623 0.40016 0.88395 0.0
C2404 C 0.08532 0.3807 0.89627 0.0
C2405 C 0.11044 0.36805 0.9014 0.0
C2406 C 0.11445 0.42791 0.86415 0.0
C2407 C 0.05772 0.37271 0.90377 0.0
C2408 C 0.02281 0.449 0.88099 0.0
C2409 C 0.0077 0.43673 0.86894 0.0
C2410 C 0.04907 0.4381 0.88554 0.0
C2411 C 0.05975 0.41355 0.87831 0.0
C2412 C 0.04461 0.40127 0.86601 0.0
C2413 C 0.01898 0.41339 0.86126 0.0
C2414 C 0.06511 0.45251 0.89827 0.0
C2415 C 0.05478 0.37457 0.85834 0.0
H2416 H 0.15695 0.39701 0.87628 0.0
H2417 H 0.10987 0.35311 0.9108 0.0
H2418 H 0.10229 0.42056 0.85407 0.0
H2419 H 0.10504 0.44825 0.86786 0.0
H2420 H 0.13664 0.43174 0.86057 0.0
H2421 H 0.06054 0.35658 0.91287 0.0
H2422 H 0.0477 0.39164 0.90889 0.0
H2423 H 0.04289 0.3643 0.89506 0.0
H2424 H 0.01396 0.46708 0.88691 0.0
H2425 H 0.00698 0.40366 0.8521 0.0
H2426 H 0.08729 0.45641 0.89473 0.0
H2427 H 0.06573 0.43864 0.90848 0.0
H2428 H 0.05536 0.47295 0.90158 0.0
H2429 H 0.07631 0.37766 0.85365 0.0
H2430 H 0.04061 0.36777 0.8489 0.0
H2431 H 0.05606 0.35728 0.86689 0.0
C2432 C 0.33065 0.25195 0.6336 0.0
C2433 C 0.31451 0.25106 0.62015 0.0
C2434 C 0.34159 0.27747 0.63915 0.0
C2435 C 0.33566 0.30289 0.63127 0.0
C2436 C 0.31841 0.30231 0.61802 0.0
C2437 C 0.30834 0.2763 0.61248 0.0
C2438 C 0.36044 0.27705 0.6531 0.0
C2439 C 0.31105 0.32909 0.60955 0.0
C2440 C 0.34938 0.37063 0.65343 0.0
C2441 C 0.37539 0.37922 0.64733 0.0
C2442 C 0.33573 0.34627 0.64798 0.0
C2443 C 0.34883 0.32974 0.6365 0.0
C2444 C 0.37523 0.33822 0.63042 0.0
C2445 C 0.38799 0.36307 0.63577 0.0
C2446 C 0.30729 0.33825 0.65448 0.0
C2447 C 0.39027 0.32078 0.61847 0.0
H2448 H 0.3357 0.23248 0.63952 0.0
H2449 H 0.29578 0.27571 0.60212 0.0
H2450 H 0.38182 0.28478 0.65 0.0
H2451 H 0.35202 0.29144 0.662 0.0
H2452 H 0.36249 0.25557 0.65809 0.0
H2453 H 0.29545 0.32536 0.60027 0.0
H2454 H 0.30229 0.34497 0.61759 0.0
H2455 H 0.33041 0.33832 0.60444 0.0
H2456 H 0.33943 0.38327 0.66225 0.0
H2457 H 0.40816 0.3696 0.63108 0.0
H2458 H 0.30878 0.31758 0.66039 0.0
H2459 H 0.29168 0.33586 0.6451 0.0
H2460 H 0.29926 0.35418 0.66273 0.0
H2461 H 0.39425 0.29922 0.62295 0.0
H2462 H 0.41077 0.33023 0.615 0.0
H2463 H 0.3768 0.31855 0.60817 0.0
C2464 C 0.47477 0.55612 0.36333 0.0
C2465 C 0.4989 0.56248 0.37196 0.0
C2466 C 0.44803 0.56607 0.36781 0.0
C2467 C 0.4456 0.58335 0.38098 0.0
C2468 C 0.4699 0.58961 0.38977 0.0
C2469 C 0.49616 0.57883 0.38525 0.0
C2470 C 0.42246 0.55842 0.35836 0.0
C2471 C 0.46834 0.60846 0.40368 0.0
C2472 C 0.38444 0.63491 0.38373 0.0
C2473 C 0.36733 0.62206 0.39481 0.0
C2474 C 0.40985 0.62239 0.37903 0.0
C2475 C 0.41796 0.59602 0.38527 0.0
C2476 C 0.40041 0.5826 0.39619 0.0
C2477 C 0.37546 0.59599 0.40099 0.0
C2478 C 0.42834 0.63774 0.36767 0.0
C2479 C 0.40806 0.55419 0.40284 0.0
H2480 H 0.47679 0.54338 0.35308 0.0
H2481 H 0.51477 0.58401 0.39191 0.0
H2482 H 0.40584 0.54917 0.36578 0.0
H2483 H 0.41347 0.57771 0.35307 0.0
H2484 H 0.42759 0.54312 0.34914 0.0
H2485 H 0.48918 0.61103 0.40936 0.0
H2486 H 0.46045 0.62965 0.40033 0.0
H2487 H 0.4532 0.59968 0.41211 0.0
H2488 H 0.37827 0.65514 0.37897 0.0
H2489 H 0.3621 0.58585 0.40943 0.0
H2490 H 0.43214 0.62427 0.3575 0.0
H2491 H 0.44921 0.64227 0.3729 0.0
H2492 H 0.41885 0.65798 0.36381 0.0
H2493 H 0.41201 0.5388 0.39351 0.0
H2494 H 0.39121 0.54571 0.4104 0.0
H2495 H 0.42785 0.55595 0.40956 0.0
loop_
_geom_bond_atom_site_label_1
_geom_bond_atom_site_label_2
_geom_bond_distance
_geom_bond_site_symmetry_2
_ccdc_geom_bond_type
O0 Cd1 2.223 . S
O0 C8 1.315 . S
Cd1 O0 2.223 . S
Cd1 O4 2.297 . S
Cd1 O5 2.439 . S
Cd1 O11 2.240 . S
Cd2 O3 2.240 . S
Cd2 O10 2.223 . S
Cd2 O12 2.297 . S
Cd2 O13 2.439 . S
O3 Cd2 2.240 . S
O3 C8 1.279 . S
O4 Cd1 2.297 . S
O4 C6 1.247 . S
O5 Cd1 2.439 . S
O5 C6 1.208 . S
C6 O4 1.247 . S
C6 O5 1.208 . S
C7 O12 1.247 . S
C7 O13 1.208 . S
C8 O0 1.315 . S
C8 O3 1.279 . S
C9 O10 1.315 . S
C9 O11 1.279 . S
O10 Cd2 2.223 . S
O10 C9 1.315 . S
O11 Cd1 2.240 . S
O11 C9 1.279 . S
O12 Cd2 2.297 . S
O12 C7 1.247 . S
O13 Cd2 2.439 . S
O13 C7 1.208 . S
O14 Cd15 2.223 . S
O14 C22 1.315 . S
Cd15 O14 2.223 . S
Cd15 O18 2.297 . S
Cd15 O19 2.439 . S
Cd15 O25 2.240 . S
Cd16 O17 2.240 . S
Cd16 O24 2.223 . S
Cd16 O26 2.297 . S
Cd16 O27 2.439 . S
O17 Cd16 2.240 . S
O17 C22 1.279 . S
O18 Cd15 2.297 . S
O18 C20 1.247 . S
O19 Cd15 2.439 . S
O19 C20 1.208 . S
C20 O18 1.247 . S
C20 O19 1.208 . S
C21 O26 1.247 . S
C21 O27 1.208 . S
C22 O14 1.315 . S
C22 O17 1.279 . S
C23 O24 1.315 . S
C23 O25 1.279 . S
O24 Cd16 2.223 . S
O24 C23 1.315 . S
O25 Cd15 2.240 . S
O25 C23 1.279 . S
O26 Cd16 2.297 . S
O26 C21 1.247 . S
O27 Cd16 2.439 . S
O27 C21 1.208 . S
O28 Cd29 2.223 . S
O28 C36 1.315 . S
Cd29 O28 2.223 . S
Cd29 O32 2.297 . S
Cd29 O33 2.439 . S
Cd29 O39 2.240 . S
Cd30 O31 2.240 . S
Cd30 O38 2.223 . S
Cd30 O40 2.297 . S
Cd30 O41 2.439 . S
O31 Cd30 2.240 . S
O31 C36 1.279 . S
O32 Cd29 2.297 . S
O32 C34 1.247 . S
O33 Cd29 2.439 . S
O33 C34 1.208 . S
C34 O32 1.247 . S
C34 O33 1.208 . S
C35 O40 1.247 . S
C35 O41 1.208 . S
C36 O28 1.315 . S
C36 O31 1.279 . S
C37 O38 1.315 . S
C37 O39 1.279 . S
O38 Cd30 2.223 . S
O38 C37 1.315 . S
O39 Cd29 2.240 . S
O39 C37 1.279 . S
O40 Cd30 2.297 . S
O40 C35 1.247 . S
O41 Cd30 2.439 . S
O41 C35 1.208 . S
O42 Cd43 2.223 . S
O42 C50 1.315 . S
Cd43 O42 2.223 . S
Cd43 O46 2.297 . S
Cd43 O47 2.439 . S
Cd43 O53 2.240 . S
Cd44 O45 2.240 . S
Cd44 O52 2.223 . S
Cd44 O54 2.297 . S
Cd44 O55 2.439 . S
O45 Cd44 2.240 . S
O45 C50 1.279 . S
O46 Cd43 2.297 . S
O46 C48 1.247 . S
O47 Cd43 2.439 . S
O47 C48 1.208 . S
C48 O46 1.247 . S
C48 O47 1.208 . S
C49 O54 1.247 . S
C49 O55 1.208 . S
C50 O42 1.315 . S
C50 O45 1.279 . S
C51 O52 1.315 . S
C51 O53 1.279 . S
O52 Cd44 2.223 . S
O52 C51 1.315 . S
O53 Cd43 2.240 . S
O53 C51 1.279 . S
O54 Cd44 2.297 . S
O54 C49 1.247 . S
O55 Cd44 2.439 . S
O55 C49 1.208 . S
O56 Cd57 2.223 . S
O56 C64 1.315 . S
Cd57 O56 2.223 . S
Cd57 O60 2.297 . S
Cd57 O61 2.439 . S
Cd57 O67 2.240 . S
Cd58 O59 2.240 . S
Cd58 O66 2.223 . S
Cd58 O68 2.297 . S
Cd58 O69 2.439 . S
O59 Cd58 2.240 . S
O59 C64 1.279 . S
O60 Cd57 2.297 . S
O60 C62 1.247 . S
O61 Cd57 2.439 . S
O61 C62 1.208 . S
C62 O60 1.247 . S
C62 O61 1.208 . S
C63 O68 1.247 . S
C63 O69 1.208 . S
C64 O56 1.315 . S
C64 O59 1.279 . S
C65 O66 1.315 . S
C65 O67 1.279 . S
O66 Cd58 2.223 . S
O66 C65 1.315 . S
O67 Cd57 2.240 . S
O67 C65 1.279 . S
O68 Cd58 2.297 . S
O68 C63 1.247 . S
O69 Cd58 2.439 . S
O69 C63 1.208 . S
O70 Cd71 2.223 . S
O70 C78 1.315 . S
Cd71 O70 2.223 . S
Cd71 O74 2.297 . S
Cd71 O75 2.439 . S
Cd71 O81 2.240 . S
Cd72 O73 2.240 . S
Cd72 O80 2.223 . S
Cd72 O82 2.297 . S
Cd72 O83 2.439 . S
O73 Cd72 2.240 . S
O73 C78 1.279 . S
O74 Cd71 2.297 . S
O74 C76 1.247 . S
O75 Cd71 2.439 . S
O75 C76 1.208 . S
C76 O74 1.247 . S
C76 O75 1.208 . S
C77 O82 1.247 . S
C77 O83 1.208 . S
C78 O70 1.315 . S
C78 O73 1.279 . S
C79 O80 1.315 . S
C79 O81 1.279 . S
O80 Cd72 2.223 . S
O80 C79 1.315 . S
O81 Cd71 2.240 . S
O81 C79 1.279 . S
O82 Cd72 2.297 . S
O82 C77 1.247 . S
O83 Cd72 2.439 . S
O83 C77 1.208 . S
O84 Cd85 2.223 . S
O84 C92 1.315 . S
Cd85 O84 2.223 . S
Cd85 O88 2.297 . S
Cd85 O89 2.439 . S
Cd85 O95 2.240 . S
Cd86 O87 2.240 . S
Cd86 O94 2.223 . S
Cd86 O96 2.297 . S
Cd86 O97 2.439 . S
O87 Cd86 2.240 . S
O87 C92 1.279 . S
O88 Cd85 2.297 . S
O88 C90 1.247 . S
O89 Cd85 2.439 . S
O89 C90 1.208 . S
C90 O88 1.247 . S
C90 O89 1.208 . S
C91 O96 1.247 . S
C91 O97 1.208 . S
C92 O84 1.315 . S
C92 O87 1.279 . S
C93 O94 1.315 . S
C93 O95 1.279 . S
O94 Cd86 2.223 . S
O94 C93 1.315 . S
O95 Cd85 2.240 . S
O95 C93 1.279 . S
O96 Cd86 2.297 . S
O96 C91 1.247 . S
O97 Cd86 2.439 . S
O97 C91 1.208 . S
O98 Cd99 2.223 . S
O98 C106 1.315 . S
Cd99 O98 2.223 . S
Cd99 O102 2.297 . S
Cd99 O103 2.439 . S
Cd99 O109 2.240 . S
Cd100 O101 2.240 . S
Cd100 O108 2.223 . S
Cd100 O110 2.297 . S
Cd100 O111 2.439 . S
O101 Cd100 2.240 . S
O101 C106 1.279 . S
O102 Cd99 2.297 . S
O102 C104 1.247 . S
O103 Cd99 2.439 . S
O103 C104 1.208 . S
C104 O102 1.247 . S
C104 O103 1.208 . S
C105 O110 1.247 . S
C105 O111 1.208 . S
C106 O98 1.315 . S
C106 O101 1.279 . S
C107 O108 1.315 . S
C107 O109 1.279 . S
O108 Cd100 2.223 . S
O108 C107 1.315 . S
O109 Cd99 2.240 . S
O109 C107 1.279 . S
O110 Cd100 2.297 . S
O110 C105 1.247 . S
O111 Cd100 2.439 . S
O111 C105 1.208 . S
O112 Cd113 2.223 . S
O112 C120 1.315 . S
Cd113 O112 2.223 . S
Cd113 O116 2.297 . S
Cd113 O117 2.439 . S
Cd113 O123 2.240 . S
Cd114 O115 2.240 . S
Cd114 O122 2.223 . S
Cd114 O124 2.297 . S
Cd114 O125 2.439 . S
O115 Cd114 2.240 . S
O115 C120 1.279 . S
O116 Cd113 2.297 . S
O116 C118 1.247 . S
O117 Cd113 2.439 . S
O117 C118 1.208 . S
C118 O116 1.247 . S
C118 O117 1.208 . S
C119 O124 1.247 . S
C119 O125 1.208 . S
C120 O112 1.315 . S
C120 O115 1.279 . S
C121 O122 1.315 . S
C121 O123 1.279 . S
O122 Cd114 2.223 . S
O122 C121 1.315 . S
O123 Cd113 2.240 . S
O123 C121 1.279 . S
O124 Cd114 2.297 . S
O124 C119 1.247 . S
O125 Cd114 2.439 . S
O125 C119 1.208 . S
O126 Cd127 2.223 . S
O126 C134 1.315 . S
Cd127 O126 2.223 . S
Cd127 O130 2.297 . S
Cd127 O131 2.439 . S
Cd127 O137 2.240 . S
Cd128 O129 2.240 . S
Cd128 O136 2.223 . S
Cd128 O138 2.297 . S
Cd128 O139 2.439 . S
O129 Cd128 2.240 . S
O129 C134 1.279 . S
O130 Cd127 2.297 . S
O130 C132 1.247 . S
O131 Cd127 2.439 . S
O131 C132 1.208 . S
C132 O130 1.247 . S
C132 O131 1.208 . S
C133 O138 1.247 . S
C133 O139 1.208 . S
C134 O126 1.315 . S
C134 O129 1.279 . S
C135 O136 1.315 . S
C135 O137 1.279 . S
O136 Cd128 2.223 . S
O136 C135 1.315 . S
O137 Cd127 2.240 . S
O137 C135 1.279 . S
O138 Cd128 2.297 . S
O138 C133 1.247 . S
O139 Cd128 2.439 . S
O139 C133 1.208 . S
O140 Cd141 2.223 . S
O140 C148 1.315 . S
Cd141 O140 2.223 . S
Cd141 O144 2.297 . S
Cd141 O145 2.439 . S
Cd141 O151 2.240 . S
Cd142 O143 2.240 . S
Cd142 O150 2.223 . S
Cd142 O152 2.297 . S
Cd142 O153 2.439 . S
O143 Cd142 2.240 . S
O143 C148 1.279 . S
O144 Cd141 2.297 . S
O144 C146 1.247 . S
O145 Cd141 2.439 . S
O145 C146 1.208 . S
C146 O144 1.247 . S
C146 O145 1.208 . S
C147 O152 1.247 . S
C147 O153 1.208 . S
C148 O140 1.315 . S
C148 O143 1.279 . S
C149 O150 1.315 . S
C149 O151 1.279 . S
O150 Cd142 2.223 . S
O150 C149 1.315 . S
O151 Cd141 2.240 . S
O151 C149 1.279 . S
O152 Cd142 2.297 . S
O152 C147 1.247 . S
O153 Cd142 2.439 . S
O153 C147 1.208 . S
O154 Cd155 2.223 . S
O154 C162 1.315 . S
Cd155 O154 2.223 . S
Cd155 O158 2.297 . S
Cd155 O159 2.439 . S
Cd155 O165 2.240 . S
Cd156 O157 2.240 . S
Cd156 O164 2.223 . S
Cd156 O166 2.297 . S
Cd156 O167 2.439 . S
O157 Cd156 2.240 . S
O157 C162 1.279 . S
O158 Cd155 2.297 . S
O158 C160 1.247 . S
O159 Cd155 2.439 . S
O159 C160 1.208 . S
C160 O158 1.247 . S
C160 O159 1.208 . S
C161 O166 1.247 . S
C161 O167 1.208 . S
C162 O154 1.315 . S
C162 O157 1.279 . S
C163 O164 1.315 . S
C163 O165 1.279 . S
O164 Cd156 2.223 . S
O164 C163 1.315 . S
O165 Cd155 2.240 . S
O165 C163 1.279 . S
O166 Cd156 2.297 . S
O166 C161 1.247 . S
O167 Cd156 2.439 . S
O167 C161 1.208 . S
O168 Cd169 2.223 . S
O168 C176 1.315 . S
Cd169 O168 2.223 . S
Cd169 O172 2.297 . S
Cd169 O173 2.439 . S
Cd169 O179 2.240 . S
Cd170 O171 2.240 . S
Cd170 O178 2.223 . S
Cd170 O180 2.297 . S
Cd170 O181 2.439 . S
O171 Cd170 2.240 . S
O171 C176 1.279 . S
O172 Cd169 2.297 . S
O172 C174 1.247 . S
O173 Cd169 2.439 . S
O173 C174 1.208 . S
C174 O172 1.247 . S
C174 O173 1.208 . S
C175 O180 1.247 . S
C175 O181 1.208 . S
C176 O168 1.315 . S
C176 O171 1.279 . S
C177 O178 1.315 . S
C177 O179 1.279 . S
O178 Cd170 2.223 . S
O178 C177 1.315 . S
O179 Cd169 2.240 . S
O179 C177 1.279 . S
O180 Cd170 2.297 . S
O180 C175 1.247 . S
O181 Cd170 2.439 . S
O181 C175 1.208 . S
O182 Cd183 2.223 . S
O182 C190 1.315 . S
Cd183 O182 2.223 . S
Cd183 O186 2.297 . S
Cd183 O187 2.439 . S
Cd183 O193 2.240 . S
Cd184 O185 2.240 . S
Cd184 O192 2.223 . S
Cd184 O194 2.297 . S
Cd184 O195 2.439 . S
O185 Cd184 2.240 . S
O185 C190 1.279 . S
O186 Cd183 2.297 . S
O186 C188 1.247 . S
O187 Cd183 2.439 . S
O187 C188 1.208 . S
C188 O186 1.247 . S
C188 O187 1.208 . S
C189 O194 1.247 . S
C189 O195 1.208 . S
C190 O182 1.315 . S
C190 O185 1.279 . S
C191 O192 1.315 . S
C191 O193 1.279 . S
O192 Cd184 2.223 . S
O192 C191 1.315 . S
O193 Cd183 2.240 . S
O193 C191 1.279 . S
O194 Cd184 2.297 . S
O194 C189 1.247 . S
O195 Cd184 2.439 . S
O195 C189 1.208 . S
O196 Cd197 2.223 . S
O196 C204 1.315 . S
Cd197 O196 2.223 . S
Cd197 O200 2.297 . S
Cd197 O201 2.439 . S
Cd197 O207 2.240 . S
Cd198 O199 2.240 . S
Cd198 O206 2.223 . S
Cd198 O208 2.297 . S
Cd198 O209 2.439 . S
O199 Cd198 2.240 . S
O199 C204 1.279 . S
O200 Cd197 2.297 . S
O200 C202 1.247 . S
O201 Cd197 2.439 . S
O201 C202 1.208 . S
C202 O200 1.247 . S
C202 O201 1.208 . S
C203 O208 1.247 . S
C203 O209 1.208 . S
C204 O196 1.315 . S
C204 O199 1.279 . S
C205 O206 1.315 . S
C205 O207 1.279 . S
O206 Cd198 2.223 . S
O206 C205 1.315 . S
O207 Cd197 2.240 . S
O207 C205 1.279 . S
O208 Cd198 2.297 . S
O208 C203 1.247 . S
O209 Cd198 2.439 . S
O209 C203 1.208 . S
O210 Cd211 2.223 . S
O210 C218 1.315 . S
Cd211 O210 2.223 . S
Cd211 O214 2.297 . S
Cd211 O215 2.439 . S
Cd211 O221 2.240 . S
Cd212 O213 2.240 . S
Cd212 O220 2.223 . S
Cd212 O222 2.297 . S
Cd212 O223 2.439 . S
O213 Cd212 2.240 . S
O213 C218 1.279 . S
O214 Cd211 2.297 . S
O214 C216 1.247 . S
O215 Cd211 2.439 . S
O215 C216 1.208 . S
C216 O214 1.247 . S
C216 O215 1.208 . S
C217 O222 1.247 . S
C217 O223 1.208 . S
C218 O210 1.315 . S
C218 O213 1.279 . S
C219 O220 1.315 . S
C219 O221 1.279 . S
O220 Cd212 2.223 . S
O220 C219 1.315 . S
O221 Cd211 2.240 . S
O221 C219 1.279 . S
O222 Cd212 2.297 . S
O222 C217 1.247 . S
O223 Cd212 2.439 . S
O223 C217 1.208 . S
O224 Cd225 2.223 . S
O224 C232 1.315 . S
Cd225 O224 2.223 . S
Cd225 O228 2.297 . S
Cd225 O229 2.439 . S
Cd225 O235 2.240 . S
Cd226 O227 2.240 . S
Cd226 O234 2.223 . S
Cd226 O236 2.297 . S
Cd226 O237 2.439 . S
O227 Cd226 2.240 . S
O227 C232 1.279 . S
O228 Cd225 2.297 . S
O228 C230 1.247 . S
O229 Cd225 2.439 . S
O229 C230 1.208 . S
C230 O228 1.247 . S
C230 O229 1.208 . S
C231 O236 1.247 . S
C231 O237 1.208 . S
C232 O224 1.315 . S
C232 O227 1.279 . S
C233 O234 1.315 . S
C233 O235 1.279 . S
O234 Cd226 2.223 . S
O234 C233 1.315 . S
O235 Cd225 2.240 . S
O235 C233 1.279 . S
O236 Cd226 2.297 . S
O236 C231 1.247 . S
O237 Cd226 2.439 . S
O237 C231 1.208 . S
O238 Cd239 2.223 . S
O238 C246 1.315 . S
Cd239 O238 2.223 . S
Cd239 O242 2.297 . S
Cd239 O243 2.439 . S
Cd239 O249 2.240 . S
Cd240 O241 2.240 . S
Cd240 O248 2.223 . S
Cd240 O250 2.297 . S
Cd240 O251 2.439 . S
O241 Cd240 2.240 . S
O241 C246 1.279 . S
O242 Cd239 2.297 . S
O242 C244 1.247 . S
O243 Cd239 2.439 . S
O243 C244 1.208 . S
C244 O242 1.247 . S
C244 O243 1.208 . S
C245 O250 1.247 . S
C245 O251 1.208 . S
C246 O238 1.315 . S
C246 O241 1.279 . S
C247 O248 1.315 . S
C247 O249 1.279 . S
O248 Cd240 2.223 . S
O248 C247 1.315 . S
O249 Cd239 2.240 . S
O249 C247 1.279 . S
O250 Cd240 2.297 . S
O250 C245 1.247 . S
O251 Cd240 2.439 . S
O251 C245 1.208 . S
O252 Cd253 2.223 . S
O252 C260 1.315 . S
Cd253 O252 2.223 . S
Cd253 O256 2.297 . S
Cd253 O257 2.439 . S
Cd253 O263 2.240 . S
Cd254 O255 2.240 . S
Cd254 O262 2.223 . S
Cd254 O264 2.297 . S
Cd254 O265 2.439 . S
O255 Cd254 2.240 . S
O255 C260 1.279 . S
O256 Cd253 2.297 . S
O256 C258 1.247 . S
O257 Cd253 2.439 . S
O257 C258 1.208 . S
C258 O256 1.247 . S
C258 O257 1.208 . S
C259 O264 1.247 . S
C259 O265 1.208 . S
C260 O252 1.315 . S
C260 O255 1.279 . S
C261 O262 1.315 . S
C261 O263 1.279 . S
O262 Cd254 2.223 . S
O262 C261 1.315 . S
O263 Cd253 2.240 . S
O263 C261 1.279 . S
O264 Cd254 2.297 . S
O264 C259 1.247 . S
O265 Cd254 2.439 . S
O265 C259 1.208 . S
O266 Cd267 2.223 . S
O266 C274 1.315 . S
Cd267 O266 2.223 . S
Cd267 O270 2.297 . S
Cd267 O271 2.439 . S
Cd267 O277 2.240 . S
Cd268 O269 2.240 . S
Cd268 O276 2.223 . S
Cd268 O278 2.297 . S
Cd268 O279 2.439 . S
O269 Cd268 2.240 . S
O269 C274 1.279 . S
O270 Cd267 2.297 . S
O270 C272 1.247 . S
O271 Cd267 2.439 . S
O271 C272 1.208 . S
C272 O270 1.247 . S
C272 O271 1.208 . S
C273 O278 1.247 . S
C273 O279 1.208 . S
C274 O266 1.315 . S
C274 O269 1.279 . S
C275 O276 1.315 . S
C275 O277 1.279 . S
O276 Cd268 2.223 . S
O276 C275 1.315 . S
O277 Cd267 2.240 . S
O277 C275 1.279 . S
O278 Cd268 2.297 . S
O278 C273 1.247 . S
O279 Cd268 2.439 . S
O279 C273 1.208 . S
O280 Cd281 2.223 . S
O280 C288 1.315 . S
Cd281 O280 2.223 . S
Cd281 O284 2.297 . S
Cd281 O285 2.439 . S
Cd281 O291 2.240 . S
Cd282 O283 2.240 . S
Cd282 O290 2.223 . S
Cd282 O292 2.297 . S
Cd282 O293 2.439 . S
O283 Cd282 2.240 . S
O283 C288 1.279 . S
O284 Cd281 2.297 . S
O284 C286 1.247 . S
O285 Cd281 2.439 . S
O285 C286 1.208 . S
C286 O284 1.247 . S
C286 O285 1.208 . S
C287 O292 1.247 . S
C287 O293 1.208 . S
C288 O280 1.315 . S
C288 O283 1.279 . S
C289 O290 1.315 . S
C289 O291 1.279 . S
O290 Cd282 2.223 . S
O290 C289 1.315 . S
O291 Cd281 2.240 . S
O291 C289 1.279 . S
O292 Cd282 2.297 . S
O292 C287 1.247 . S
O293 Cd282 2.439 . S
O293 C287 1.208 . S
O294 Cd295 2.223 . S
O294 C302 1.315 . S
Cd295 O294 2.223 . S
Cd295 O298 2.297 . S
Cd295 O299 2.439 . S
Cd295 O305 2.240 . S
Cd296 O297 2.240 . S
Cd296 O304 2.223 . S
Cd296 O306 2.297 . S
Cd296 O307 2.439 . S
O297 Cd296 2.240 . S
O297 C302 1.279 . S
O298 Cd295 2.297 . S
O298 C300 1.247 . S
O299 Cd295 2.439 . S
O299 C300 1.208 . S
C300 O298 1.247 . S
C300 O299 1.208 . S
C301 O306 1.247 . S
C301 O307 1.208 . S
C302 O294 1.315 . S
C302 O297 1.279 . S
C303 O304 1.315 . S
C303 O305 1.279 . S
O304 Cd296 2.223 . S
O304 C303 1.315 . S
O305 Cd295 2.240 . S
O305 C303 1.279 . S
O306 Cd296 2.297 . S
O306 C301 1.247 . S
O307 Cd296 2.439 . S
O307 C301 1.208 . S
O308 Cd309 2.223 . S
O308 C316 1.315 . S
Cd309 O308 2.223 . S
Cd309 O312 2.297 . S
Cd309 O313 2.439 . S
Cd309 O319 2.240 . S
Cd310 O311 2.240 . S
Cd310 O318 2.223 . S
Cd310 O320 2.297 . S
Cd310 O321 2.439 . S
O311 Cd310 2.240 . S
O311 C316 1.279 . S
O312 Cd309 2.297 . S
O312 C314 1.247 . S
O313 Cd309 2.439 . S
O313 C314 1.208 . S
C314 O312 1.247 . S
C314 O313 1.208 . S
C315 O320 1.247 . S
C315 O321 1.208 . S
C316 O308 1.315 . S
C316 O311 1.279 . S
C317 O318 1.315 . S
C317 O319 1.279 . S
O318 Cd310 2.223 . S
O318 C317 1.315 . S
O319 Cd309 2.240 . S
O319 C317 1.279 . S
O320 Cd310 2.297 . S
O320 C315 1.247 . S
O321 Cd310 2.439 . S
O321 C315 1.208 . S
O322 Cd323 2.223 . S
O322 C330 1.315 . S
Cd323 O322 2.223 . S
Cd323 O326 2.297 . S
Cd323 O327 2.439 . S
Cd323 O333 2.240 . S
Cd324 O325 2.240 . S
Cd324 O332 2.223 . S
Cd324 O334 2.297 . S
Cd324 O335 2.439 . S
O325 Cd324 2.240 . S
O325 C330 1.279 . S
O326 Cd323 2.297 . S
O326 C328 1.247 . S
O327 Cd323 2.439 . S
O327 C328 1.208 . S
C328 O326 1.247 . S
C328 O327 1.208 . S
C329 O334 1.247 . S
C329 O335 1.208 . S
C330 O322 1.315 . S
C330 O325 1.279 . S
C331 O332 1.315 . S
C331 O333 1.279 . S
O332 Cd324 2.223 . S
O332 C331 1.315 . S
O333 Cd323 2.240 . S
O333 C331 1.279 . S
O334 Cd324 2.297 . S
O334 C329 1.247 . S
O335 Cd324 2.439 . S
O335 C329 1.208 . S
O336 Cd337 2.223 . S
O336 C344 1.315 . S
Cd337 O336 2.223 . S
Cd337 O340 2.297 . S
Cd337 O341 2.439 . S
Cd337 O347 2.240 . S
Cd338 O339 2.240 . S
Cd338 O346 2.223 . S
Cd338 O348 2.297 . S
Cd338 O349 2.439 . S
O339 Cd338 2.240 . S
O339 C344 1.279 . S
O340 Cd337 2.297 . S
O340 C342 1.247 . S
O341 Cd337 2.439 . S
O341 C342 1.208 . S
C342 O340 1.247 . S
C342 O341 1.208 . S
C343 O348 1.247 . S
C343 O349 1.208 . S
C344 O336 1.315 . S
C344 O339 1.279 . S
C345 O346 1.315 . S
C345 O347 1.279 . S
O346 Cd338 2.223 . S
O346 C345 1.315 . S
O347 Cd337 2.240 . S
O347 C345 1.279 . S
O348 Cd338 2.297 . S
O348 C343 1.247 . S
O349 Cd338 2.439 . S
O349 C343 1.208 . S
O350 Cd351 2.223 . S
O350 C358 1.315 . S
Cd351 O350 2.223 . S
Cd351 O354 2.297 . S
Cd351 O355 2.439 . S
Cd351 O361 2.240 . S
Cd352 O353 2.240 . S
Cd352 O360 2.223 . S
Cd352 O362 2.297 . S
Cd352 O363 2.439 . S
O353 Cd352 2.240 . S
O353 C358 1.279 . S
O354 Cd351 2.297 . S
O354 C356 1.247 . S
O355 Cd351 2.439 . S
O355 C356 1.208 . S
C356 O354 1.247 . S
C356 O355 1.208 . S
C357 O362 1.247 . S
C357 O363 1.208 . S
C358 O350 1.315 . S
C358 O353 1.279 . S
C359 O360 1.315 . S
C359 O361 1.279 . S
O360 Cd352 2.223 . S
O360 C359 1.315 . S
O361 Cd351 2.240 . S
O361 C359 1.279 . S
O362 Cd352 2.297 . S
O362 C357 1.247 . S
O363 Cd352 2.439 . S
O363 C357 1.208 . S
O364 Cd365 2.223 . S
O364 C372 1.315 . S
Cd365 O364 2.223 . S
Cd365 O368 2.297 . S
Cd365 O369 2.439 . S
Cd365 O375 2.240 . S
Cd366 O367 2.240 . S
Cd366 O374 2.223 . S
Cd366 O376 2.297 . S
Cd366 O377 2.439 . S
O367 Cd366 2.240 . S
O367 C372 1.279 . S
O368 Cd365 2.297 . S
O368 C370 1.247 . S
O369 Cd365 2.439 . S
O369 C370 1.208 . S
C370 O368 1.247 . S
C370 O369 1.208 . S
C371 O376 1.247 . S
C371 O377 1.208 . S
C372 O364 1.315 . S
C372 O367 1.279 . S
C373 O374 1.315 . S
C373 O375 1.279 . S
O374 Cd366 2.223 . S
O374 C373 1.315 . S
O375 Cd365 2.240 . S
O375 C373 1.279 . S
O376 Cd366 2.297 . S
O376 C371 1.247 . S
O377 Cd366 2.439 . S
O377 C371 1.208 . S
O378 Cd379 2.223 . S
O378 C386 1.315 . S
Cd379 O378 2.223 . S
Cd379 O382 2.297 . S
Cd379 O383 2.439 . S
Cd379 O389 2.240 . S
Cd380 O381 2.240 . S
Cd380 O388 2.223 . S
Cd380 O390 2.297 . S
Cd380 O391 2.439 . S
O381 Cd380 2.240 . S
O381 C386 1.279 . S
O382 Cd379 2.297 . S
O382 C384 1.247 . S
O383 Cd379 2.439 . S
O383 C384 1.208 . S
C384 O382 1.247 . S
C384 O383 1.208 . S
C385 O390 1.247 . S
C385 O391 1.208 . S
C386 O378 1.315 . S
C386 O381 1.279 . S
C387 O388 1.315 . S
C387 O389 1.279 . S
O388 Cd380 2.223 . S
O388 C387 1.315 . S
O389 Cd379 2.240 . S
O389 C387 1.279 . S
O390 Cd380 2.297 . S
O390 C385 1.247 . S
O391 Cd380 2.439 . S
O391 C385 1.208 . S
O392 Cd393 2.223 . S
O392 C400 1.315 . S
Cd393 O392 2.223 . S
Cd393 O396 2.297 . S
Cd393 O397 2.439 . S
Cd393 O403 2.240 . S
Cd394 O395 2.240 . S
Cd394 O402 2.223 . S
Cd394 O404 2.297 . S
Cd394 O405 2.439 . S
O395 Cd394 2.240 . S
O395 C400 1.279 . S
O396 Cd393 2.297 . S
O396 C398 1.247 . S
O397 Cd393 2.439 . S
O397 C398 1.208 . S
C398 O396 1.247 . S
C398 O397 1.208 . S
C399 O404 1.247 . S
C399 O405 1.208 . S
C400 O392 1.315 . S
C400 O395 1.279 . S
C401 O402 1.315 . S
C401 O403 1.279 . S
O402 Cd394 2.223 . S
O402 C401 1.315 . S
O403 Cd393 2.240 . S
O403 C401 1.279 . S
O404 Cd394 2.297 . S
O404 C399 1.247 . S
O405 Cd394 2.439 . S
O405 C399 1.208 . S
O406 Cd407 2.223 . S
O406 C414 1.315 . S
Cd407 O406 2.223 . S
Cd407 O410 2.297 . S
Cd407 O411 2.439 . S
Cd407 O417 2.240 . S
Cd408 O409 2.240 . S
Cd408 O416 2.223 . S
Cd408 O418 2.297 . S
Cd408 O419 2.439 . S
O409 Cd408 2.240 . S
O409 C414 1.279 . S
O410 Cd407 2.297 . S
O410 C412 1.247 . S
O411 Cd407 2.439 . S
O411 C412 1.208 . S
C412 O410 1.247 . S
C412 O411 1.208 . S
C413 O418 1.247 . S
C413 O419 1.208 . S
C414 O406 1.315 . S
C414 O409 1.279 . S
C415 O416 1.315 . S
C415 O417 1.279 . S
O416 Cd408 2.223 . S
O416 C415 1.315 . S
O417 Cd407 2.240 . S
O417 C415 1.279 . S
O418 Cd408 2.297 . S
O418 C413 1.247 . S
O419 Cd408 2.439 . S
O419 C413 1.208 . S
O420 Cd421 2.223 . S
O420 C428 1.315 . S
Cd421 O420 2.223 . S
Cd421 O424 2.297 . S
Cd421 O425 2.439 . S
Cd421 O431 2.240 . S
Cd422 O423 2.240 . S
Cd422 O430 2.223 . S
Cd422 O432 2.297 . S
Cd422 O433 2.439 . S
O423 Cd422 2.240 . S
O423 C428 1.279 . S
O424 Cd421 2.297 . S
O424 C426 1.247 . S
O425 Cd421 2.439 . S
O425 C426 1.208 . S
C426 O424 1.247 . S
C426 O425 1.208 . S
C427 O432 1.247 . S
C427 O433 1.208 . S
C428 O420 1.315 . S
C428 O423 1.279 . S
C429 O430 1.315 . S
C429 O431 1.279 . S
O430 Cd422 2.223 . S
O430 C429 1.315 . S
O431 Cd421 2.240 . S
O431 C429 1.279 . S
O432 Cd422 2.297 . S
O432 C427 1.247 . S
O433 Cd422 2.439 . S
O433 C427 1.208 . S
O434 Cd435 2.223 . S
O434 C442 1.315 . S
Cd435 O434 2.223 . S
Cd435 O438 2.297 . S
Cd435 O439 2.439 . S
Cd435 O445 2.240 . S
Cd436 O437 2.240 . S
Cd436 O444 2.223 . S
Cd436 O446 2.297 . S
Cd436 O447 2.439 . S
O437 Cd436 2.240 . S
O437 C442 1.279 . S
O438 Cd435 2.297 . S
O438 C440 1.247 . S
O439 Cd435 2.439 . S
O439 C440 1.208 . S
C440 O438 1.247 . S
C440 O439 1.208 . S
C441 O446 1.247 . S
C441 O447 1.208 . S
C442 O434 1.315 . S
C442 O437 1.279 . S
C443 O444 1.315 . S
C443 O445 1.279 . S
O444 Cd436 2.223 . S
O444 C443 1.315 . S
O445 Cd435 2.240 . S
O445 C443 1.279 . S
O446 Cd436 2.297 . S
O446 C441 1.247 . S
O447 Cd436 2.439 . S
O447 C441 1.208 . S
C448 C449 1.391 1_545 S
C448 C450 1.394 . S
C448 H464 0.931 . S
C449 C448 1.391 1_565 S
C449 C453 1.376 . S
C450 C448 1.394 . S
C450 C451 1.369 . S
C450 C454 1.531 . S
C451 C450 1.369 . S
C451 C452 1.410 1_545 S
C451 C459 1.503 . S
C452 C451 1.410 1_565 S
C452 C453 1.392 . S
C452 C455 1.511 . S
C453 C449 1.376 . S
C453 C452 1.392 . S
C453 H465 0.929 . S
C454 C450 1.531 . S
C454 H466 0.960 . S
C454 H467 0.962 1_545 S
C454 H468 0.960 . S
C455 C452 1.511 . S
C455 H469 0.961 . S
C455 H470 0.961 . S
C455 H471 0.961 1_565 S
C456 C457 1.370 1_565 S
C456 C458 1.363 . S
C456 H472 0.931 . S
C457 C456 1.370 1_545 S
C457 C461 1.408 . S
C458 C456 1.363 . S
C458 C459 1.370 1_565 S
C458 C462 1.524 . S
C459 C451 1.503 . S
C459 C458 1.370 1_545 S
C459 C460 1.403 . S
C460 C459 1.403 . S
C460 C461 1.404 . S
C460 C463 1.539 . S
C461 C457 1.408 . S
C461 C460 1.404 . S
C461 H473 0.930 . S
C462 C458 1.524 . S
C462 H474 0.956 . S
C462 H475 0.961 . S
C462 H476 0.961 . S
C463 C460 1.539 . S
C463 H477 0.958 . S
C463 H478 0.961 . S
C463 H479 0.960 . S
H464 C448 0.931 . S
H465 C453 0.929 . S
H466 C454 0.960 . S
H467 C454 0.962 1_565 S
H468 C454 0.960 . S
H469 C455 0.961 . S
H470 C455 0.961 . S
H471 C455 0.961 1_545 S
H472 C456 0.931 . S
H473 C461 0.930 . S
H474 C462 0.956 . S
H475 C462 0.961 . S
H476 C462 0.961 . S
H477 C463 0.958 . S
H478 C463 0.961 . S
H479 C463 0.960 . S
C480 C481 1.391 . S
C480 C482 1.394 . S
C480 H496 0.931 . S
C481 C480 1.391 . S
C481 C485 1.376 . S
C482 C480 1.394 . S
C482 C483 1.369 . S
C482 C486 1.531 . S
C483 C482 1.369 . S
C483 C484 1.410 . S
C483 C491 1.503 . S
C484 C483 1.410 . S
C484 C485 1.392 . S
C484 C487 1.511 . S
C485 C481 1.376 . S
C485 C484 1.392 . S
C485 H497 0.929 . S
C486 C482 1.531 . S
C486 H498 0.960 . S
C486 H499 0.962 . S
C486 H500 0.960 . S
C487 C484 1.511 . S
C487 H501 0.961 . S
C487 H502 0.961 . S
C487 H503 0.961 . S
C488 C489 1.370 . S
C488 C490 1.363 . S
C488 H504 0.931 . S
C489 C488 1.370 . S
C489 C493 1.408 . S
C490 C488 1.363 . S
C490 C491 1.370 . S
C490 C494 1.524 . S
C491 C483 1.503 . S
C491 C490 1.370 . S
C491 C492 1.403 . S
C492 C491 1.403 . S
C492 C493 1.404 . S
C492 C495 1.539 . S
C493 C489 1.408 . S
C493 C492 1.404 . S
C493 H505 0.930 . S
C494 C490 1.524 . S
C494 H506 0.956 . S
C494 H507 0.961 . S
C494 H508 0.961 . S
C495 C492 1.539 . S
C495 H509 0.958 . S
C495 H510 0.961 . S
C495 H511 0.960 . S
H496 C480 0.931 . S
H497 C485 0.929 . S
H498 C486 0.960 . S
H499 C486 0.962 . S
H500 C486 0.960 . S
H501 C487 0.961 . S
H502 C487 0.961 . S
H503 C487 0.961 . S
H504 C488 0.931 . S
H505 C493 0.930 . S
H506 C494 0.956 . S
H507 C494 0.961 . S
H508 C494 0.961 . S
H509 C495 0.958 . S
H510 C495 0.961 . S
H511 C495 0.960 . S
C512 C513 1.391 1_565 S
C512 C514 1.394 . S
C512 H528 0.931 . S
C513 C512 1.391 1_545 S
C513 C517 1.376 . S
C514 C512 1.394 . S
C514 C515 1.369 . S
C514 C518 1.531 . S
C515 C514 1.369 . S
C515 C516 1.410 1_565 S
C515 C523 1.503 . S
C516 C515 1.410 1_545 S
C516 C517 1.392 . S
C516 C519 1.511 . S
C517 C513 1.376 . S
C517 C516 1.392 . S
C517 H529 0.929 . S
C518 C514 1.531 . S
C518 H530 0.960 . S
C518 H531 0.962 . S
C518 H532 0.960 . S
C519 C516 1.511 . S
C519 H533 0.961 . S
C519 H534 0.961 . S
C519 H535 0.961 . S
C520 C521 1.370 1_545 S
C520 C522 1.363 . S
C520 H536 0.931 . S
C521 C520 1.370 1_565 S
C521 C525 1.408 . S
C522 C520 1.363 . S
C522 C523 1.370 1_545 S
C522 C526 1.524 . S
C523 C515 1.503 . S
C523 C522 1.370 1_565 S
C523 C524 1.403 . S
C524 C523 1.403 . S
C524 C525 1.404 . S
C524 C527 1.539 . S
C525 C521 1.408 . S
C525 C524 1.404 . S
C525 H537 0.930 . S
C526 C522 1.524 . S
C526 H538 0.956 . S
C526 H539 0.961 . S
C526 H540 0.961 . S
C527 C524 1.539 . S
C527 H541 0.958 . S
C527 H542 0.961 . S
C527 H543 0.960 . S
H528 C512 0.931 . S
H529 C517 0.929 . S
H530 C518 0.960 . S
H531 C518 0.962 . S
H532 C518 0.960 . S
H533 C519 0.961 . S
H534 C519 0.961 . S
H535 C519 0.961 . S
H536 C520 0.931 . S
H537 C525 0.930 . S
H538 C526 0.956 . S
H539 C526 0.961 . S
H540 C526 0.961 . S
H541 C527 0.958 . S
H542 C527 0.961 . S
H543 C527 0.960 . S
C544 C545 1.391 . S
C544 C546 1.394 . S
C544 H560 0.931 . S
C545 C544 1.391 . S
C545 C549 1.376 . S
C546 C544 1.394 . S
C546 C547 1.369 . S
C546 C550 1.531 . S
C547 C546 1.369 . S
C547 C548 1.410 . S
C547 C555 1.503 1_556 S
C548 C547 1.410 . S
C548 C549 1.392 . S
C548 C551 1.511 . S
C549 C545 1.376 . S
C549 C548 1.392 . S
C549 H561 0.929 . S
C550 C546 1.531 . S
C550 H562 0.960 1_556 S
C550 H563 0.962 . S
C550 H564 0.960 . S
C551 C548 1.511 . S
C551 H565 0.961 . S
C551 H566 0.961 . S
C551 H567 0.961 . S
C552 C553 1.370 . S
C552 C554 1.363 . S
C552 H568 0.931 . S
C553 C552 1.370 . S
C553 C557 1.408 . S
C554 C552 1.363 . S
C554 C555 1.370 . S
C554 C558 1.524 . S
C555 C547 1.503 1_554 S
C555 C554 1.370 . S
C555 C556 1.403 . S
C556 C555 1.403 . S
C556 C557 1.404 . S
C556 C559 1.539 . S
C557 C553 1.408 . S
C557 C556 1.404 . S
C557 H569 0.930 . S
C558 C554 1.524 . S
C558 H570 0.956 . S
C558 H571 0.961 1_554 S
C558 H572 0.961 . S
C559 C556 1.539 . S
C559 H573 0.958 . S
C559 H574 0.961 . S
C559 H575 0.960 1_554 S
H560 C544 0.931 . S
H561 C549 0.929 . S
H562 C550 0.960 1_554 S
H563 C550 0.962 . S
H564 C550 0.960 . S
H565 C551 0.961 . S
H566 C551 0.961 . S
H567 C551 0.961 . S
H568 C552 0.931 . S
H569 C557 0.930 . S
H570 C558 0.956 . S
H571 C558 0.961 1_556 S
H572 C558 0.961 . S
H573 C559 0.958 . S
H574 C559 0.961 . S
H575 C559 0.960 1_556 S
C576 C577 1.391 . S
C576 C578 1.395 . S
C576 H592 0.931 . S
C577 C576 1.391 . S
C577 C581 1.376 . S
C578 C576 1.395 . S
C578 C579 1.367 1_565 S
C578 C582 1.530 1_565 S
C579 C578 1.367 1_545 S
C579 C580 1.410 . S
C579 C587 1.503 . S
C580 C579 1.410 . S
C580 C581 1.392 1_545 S
C580 C583 1.511 . S
C581 C577 1.376 . S
C581 C580 1.392 1_565 S
C581 H593 0.929 . S
C582 C578 1.530 1_545 S
C582 H594 0.973 . S
C582 H595 0.943 1_545 S
C582 H596 0.967 . S
C583 C580 1.511 . S
C583 H597 0.961 . S
C583 H598 0.961 . S
C583 H599 0.961 . S
C584 C585 1.370 1_565 S
C584 C586 1.363 . S
C584 H600 0.931 . S
C585 C584 1.370 1_545 S
C585 C589 1.408 . S
C586 C584 1.363 . S
C586 C587 1.370 1_565 S
C586 C590 1.524 . S
C587 C579 1.503 . S
C587 C586 1.370 1_545 S
C587 C588 1.403 . S
C588 C587 1.403 . S
C588 C589 1.404 . S
C588 C591 1.539 . S
C589 C585 1.408 . S
C589 C588 1.404 . S
C589 H601 0.930 . S
C590 C586 1.524 . S
C590 H602 0.956 . S
C590 H603 0.961 . S
C590 H604 0.961 . S
C591 C588 1.539 . S
C591 H605 0.958 . S
C591 H606 0.961 . S
C591 H607 0.960 . S
H592 C576 0.931 . S
H593 C581 0.929 . S
H594 C582 0.973 . S
H595 C582 0.943 1_565 S
H596 C582 0.967 . S
H597 C583 0.961 . S
H598 C583 0.961 . S
H599 C583 0.961 . S
H600 C584 0.931 . S
H601 C589 0.930 . S
H602 C590 0.956 . S
H603 C590 0.961 . S
H604 C590 0.961 . S
H605 C591 0.958 . S
H606 C591 0.961 . S
H607 C591 0.960 . S
C608 C609 1.391 . S
C608 C610 1.394 . S
C608 H624 0.931 . S
C609 C608 1.391 . S
C609 C613 1.376 . S
C610 C608 1.394 . S
C610 C611 1.369 . S
C610 C614 1.531 . S
C611 C610 1.369 . S
C611 C612 1.410 . S
C611 C619 1.503 . S
C612 C611 1.410 . S
C612 C613 1.392 . S
C612 C615 1.511 . S
C613 C609 1.376 . S
C613 C612 1.392 . S
C613 H625 0.929 . S
C614 C610 1.531 . S
C614 H626 0.960 . S
C614 H627 0.962 . S
C614 H628 0.960 . S
C615 C612 1.511 . S
C615 H629 0.961 . S
C615 H630 0.961 . S
C615 H631 0.961 . S
C616 C617 1.370 . S
C616 C618 1.363 . S
C616 H632 0.931 . S
C617 C616 1.370 . S
C617 C621 1.408 . S
C618 C616 1.363 . S
C618 C619 1.370 . S
C618 C622 1.524 . S
C619 C611 1.503 . S
C619 C618 1.370 . S
C619 C620 1.403 . S
C620 C619 1.403 . S
C620 C621 1.404 . S
C620 C623 1.539 . S
C621 C617 1.408 . S
C621 C620 1.404 . S
C621 H633 0.930 . S
C622 C618 1.524 . S
C622 H634 0.956 . S
C622 H635 0.961 . S
C622 H636 0.961 . S
C623 C620 1.539 . S
C623 H637 0.958 . S
C623 H638 0.961 . S
C623 H639 0.960 . S
H624 C608 0.931 . S
H625 C613 0.929 . S
H626 C614 0.960 . S
H627 C614 0.962 . S
H628 C614 0.960 . S
H629 C615 0.961 . S
H630 C615 0.961 . S
H631 C615 0.961 . S
H632 C616 0.931 . S
H633 C621 0.930 . S
H634 C622 0.956 . S
H635 C622 0.961 . S
H636 C622 0.961 . S
H637 C623 0.958 . S
H638 C623 0.961 . S
H639 C623 0.960 . S
C640 C641 1.400 . S
C640 C642 1.387 1_545 S
C640 H656 0.931 . S
C641 C640 1.400 . S
C641 C645 1.376 . S
C642 C640 1.387 1_565 S
C642 C643 1.369 . S
C642 C646 1.531 . S
C643 C642 1.369 . S
C643 C644 1.408 1_565 S
C643 C651 1.503 . S
C644 C643 1.408 1_545 S
C644 C645 1.395 . S
C644 C647 1.511 1_545 S
C645 C641 1.376 . S
C645 C644 1.395 . S
C645 H657 0.929 . S
C646 C642 1.531 . S
C646 H658 0.960 . S
C646 H659 0.962 1_565 S
C646 H660 0.960 . S
C647 C644 1.511 1_565 S
C647 H661 0.955 1_565 S
C647 H662 0.958 1_565 S
C647 H663 0.969 . S
C648 C649 1.370 1_545 S
C648 C650 1.363 . S
C648 H664 0.931 . S
C649 C648 1.370 1_565 S
C649 C653 1.408 . S
C650 C648 1.363 . S
C650 C651 1.370 1_545 S
C650 C654 1.524 . S
C651 C643 1.503 . S
C651 C650 1.370 1_565 S
C651 C652 1.403 . S
C652 C651 1.403 . S
C652 C653 1.404 . S
C652 C655 1.539 . S
C653 C649 1.408 . S
C653 C652 1.404 . S
C653 H665 0.930 . S
C654 C650 1.524 . S
C654 H666 0.956 . S
C654 H667 0.961 . S
C654 H668 0.961 . S
C655 C652 1.539 . S
C655 H669 0.958 . S
C655 H670 0.961 . S
C655 H671 0.960 . S
H656 C640 0.931 . S
H657 C645 0.929 . S
H658 C646 0.960 . S
H659 C646 0.962 1_545 S
H660 C646 0.960 . S
H661 C647 0.955 1_545 S
H662 C647 0.958 1_545 S
H663 C647 0.969 . S
H664 C648 0.931 . S
H665 C653 0.930 . S
H666 C654 0.956 . S
H667 C654 0.961 . S
H668 C654 0.961 . S
H669 C655 0.958 . S
H670 C655 0.961 . S
H671 C655 0.960 . S
C672 C673 1.391 . S
C672 C674 1.394 . S
C672 H688 0.931 . S
C673 C672 1.391 . S
C673 C677 1.376 . S
C674 C672 1.394 . S
C674 C675 1.369 . S
C674 C678 1.531 . S
C675 C674 1.369 . S
C675 C676 1.410 . S
C675 C683 1.503 1_556 S
C676 C675 1.410 . S
C676 C677 1.392 . S
C676 C679 1.511 . S
C677 C673 1.376 . S
C677 C676 1.392 . S
C677 H689 0.929 . S
C678 C674 1.531 . S
C678 H690 0.960 . S
C678 H691 0.962 . S
C678 H692 0.960 . S
C679 C676 1.511 . S
C679 H693 0.961 . S
C679 H694 0.961 1_556 S
C679 H695 0.961 . S
C680 C681 1.370 . S
C680 C682 1.363 . S
C680 H696 0.931 . S
C681 C680 1.370 . S
C681 C685 1.408 . S
C682 C680 1.363 . S
C682 C683 1.370 . S
C682 C686 1.524 . S
C683 C675 1.503 1_554 S
C683 C682 1.370 . S
C683 C684 1.403 . S
C684 C683 1.403 . S
C684 C685 1.404 . S
C684 C687 1.539 . S
C685 C681 1.408 . S
C685 C684 1.404 . S
C685 H697 0.930 . S
C686 C682 1.524 . S
C686 H698 0.967 . S
C686 H699 1.001 . S
C686 H700 0.961 . S
C687 C684 1.539 . S
C687 H701 0.958 . S
C687 H702 0.961 . S
C687 H703 0.953 . S
H688 C672 0.931 . S
H689 C677 0.929 . S
H690 C678 0.960 . S
H691 C678 0.962 . S
H692 C678 0.960 . S
H693 C679 0.961 . S
H694 C679 0.961 1_554 S
H695 C679 0.961 . S
H696 C680 0.931 . S
H697 C685 0.930 . S
H698 C686 0.967 . S
H699 C686 1.001 . S
H700 C686 0.961 . S
H701 C687 0.958 . S
H702 C687 0.961 . S
H703 C687 0.953 . S
C704 C705 1.391 . S
C704 C706 1.394 . S
C704 H720 0.931 . S
C705 C704 1.391 . S
C705 C709 1.376 . S
C706 C704 1.394 . S
C706 C707 1.369 . S
C706 C710 1.531 . S
C707 C706 1.369 . S
C707 C708 1.410 . S
C707 C715 1.503 . S
C708 C707 1.410 . S
C708 C709 1.392 . S
C708 C711 1.511 . S
C709 C705 1.376 . S
C709 C708 1.392 . S
C709 H721 0.929 . S
C710 C706 1.531 . S
C710 H722 0.960 . S
C710 H723 0.962 . S
C710 H724 0.960 . S
C711 C708 1.511 . S
C711 H725 0.961 . S
C711 H726 0.961 . S
C711 H727 0.961 . S
C712 C713 1.370 . S
C712 C714 1.363 . S
C712 H728 0.931 . S
C713 C712 1.370 . S
C713 C717 1.408 . S
C714 C712 1.363 . S
C714 C715 1.370 . S
C714 C718 1.524 . S
C715 C707 1.503 . S
C715 C714 1.370 . S
C715 C716 1.403 . S
C716 C715 1.403 . S
C716 C717 1.404 . S
C716 C719 1.539 . S
C717 C713 1.408 . S
C717 C716 1.404 . S
C717 H729 0.930 . S
C718 C714 1.524 . S
C718 H730 0.956 . S
C718 H731 0.961 . S
C718 H732 0.961 . S
C719 C716 1.539 . S
C719 H733 0.958 . S
C719 H734 0.961 . S
C719 H735 0.960 . S
H720 C704 0.931 . S
H721 C709 0.929 . S
H722 C710 0.960 . S
H723 C710 0.962 . S
H724 C710 0.960 . S
H725 C711 0.961 . S
H726 C711 0.961 . S
H727 C711 0.961 . S
H728 C712 0.931 . S
H729 C717 0.930 . S
H730 C718 0.956 . S
H731 C718 0.961 . S
H732 C718 0.961 . S
H733 C719 0.958 . S
H734 C719 0.961 . S
H735 C719 0.960 . S
C736 C737 1.391 . S
C736 C738 1.394 . S
C736 H752 0.931 . S
C737 C736 1.391 . S
C737 C741 1.376 . S
C738 C736 1.394 . S
C738 C739 1.369 . S
C738 C742 1.531 . S
C739 C738 1.369 . S
C739 C740 1.410 . S
C739 C747 1.503 1_554 S
C740 C739 1.410 . S
C740 C741 1.392 . S
C740 C743 1.511 . S
C741 C737 1.376 . S
C741 C740 1.392 . S
C741 H753 0.929 . S
C742 C738 1.531 . S
C742 H754 0.960 1_554 S
C742 H755 0.962 . S
C742 H756 0.960 . S
C743 C740 1.511 . S
C743 H757 0.961 . S
C743 H758 0.961 . S
C743 H759 0.961 . S
C744 C745 1.370 . S
C744 C746 1.363 . S
C744 H760 0.931 . S
C745 C744 1.370 . S
C745 C749 1.408 . S
C746 C744 1.363 . S
C746 C747 1.370 . S
C746 C750 1.524 . S
C747 C739 1.503 1_556 S
C747 C746 1.370 . S
C747 C748 1.403 . S
C748 C747 1.403 . S
C748 C749 1.404 . S
C748 C751 1.539 . S
C749 C745 1.408 . S
C749 C748 1.404 . S
C749 H761 0.930 . S
C750 C746 1.524 . S
C750 H762 0.956 . S
C750 H763 0.949 1_556 S
C750 H764 0.961 . S
C751 C748 1.539 . S
C751 H765 0.958 . S
C751 H766 0.961 . S
C751 H767 0.960 1_556 S
H752 C736 0.931 . S
H753 C741 0.929 . S
H754 C742 0.960 1_556 S
H755 C742 0.962 . S
H756 C742 0.960 . S
H757 C743 0.961 . S
H758 C743 0.961 . S
H759 C743 0.961 . S
H760 C744 0.931 . S
H761 C749 0.930 . S
H762 C750 0.956 . S
H763 C750 0.949 1_554 S
H764 C750 0.961 . S
H765 C751 0.958 . S
H766 C751 0.961 . S
H767 C751 0.960 1_554 S
C768 C769 1.391 . S
C768 C770 1.394 . S
C768 H784 0.931 . S
C769 C768 1.391 . S
C769 C773 1.376 . S
C770 C768 1.394 . S
C770 C771 1.369 . S
C770 C774 1.531 . S
C771 C770 1.369 . S
C771 C772 1.410 . S
C771 C779 1.503 . S
C772 C771 1.410 . S
C772 C773 1.392 . S
C772 C775 1.511 . S
C773 C769 1.376 . S
C773 C772 1.392 . S
C773 H785 0.929 . S
C774 C770 1.531 . S
C774 H786 0.960 . S
C774 H787 0.962 . S
C774 H788 0.960 . S
C775 C772 1.511 . S
C775 H789 0.961 . S
C775 H790 0.961 . S
C775 H791 0.961 . S
C776 C777 1.370 . S
C776 C778 1.363 . S
C776 H792 0.931 . S
C777 C776 1.370 . S
C777 C781 1.408 . S
C778 C776 1.363 . S
C778 C779 1.370 . S
C778 C782 1.524 . S
C779 C771 1.503 . S
C779 C778 1.370 . S
C779 C780 1.403 . S
C780 C779 1.403 . S
C780 C781 1.404 . S
C780 C783 1.539 . S
C781 C777 1.408 . S
C781 C780 1.404 . S
C781 H793 0.930 . S
C782 C778 1.524 . S
C782 H794 0.956 . S
C782 H795 0.961 . S
C782 H796 0.961 . S
C783 C780 1.539 . S
C783 H797 0.958 . S
C783 H798 0.961 . S
C783 H799 0.960 . S
H784 C768 0.931 . S
H785 C773 0.929 . S
H786 C774 0.960 . S
H787 C774 0.962 . S
H788 C774 0.960 . S
H789 C775 0.961 . S
H790 C775 0.961 . S
H791 C775 0.961 . S
H792 C776 0.931 . S
H793 C781 0.930 . S
H794 C782 0.956 . S
H795 C782 0.961 . S
H796 C782 0.961 . S
H797 C783 0.958 . S
H798 C783 0.961 . S
H799 C783 0.960 . S
C800 C801 1.391 . S
C800 C802 1.394 . S
C800 H816 0.931 . S
C801 C800 1.391 . S
C801 C805 1.376 . S
C802 C800 1.394 . S
C802 C803 1.369 . S
C802 C806 1.531 . S
C803 C802 1.369 . S
C803 C804 1.410 . S
C803 C811 1.503 . S
C804 C803 1.410 . S
C804 C805 1.392 . S
C804 C807 1.511 . S
C805 C801 1.376 . S
C805 C804 1.392 . S
C805 H817 0.929 . S
C806 C802 1.531 . S
C806 H818 0.960 . S
C806 H819 0.962 . S
C806 H820 0.960 . S
C807 C804 1.511 . S
C807 H821 0.961 . S
C807 H822 0.961 . S
C807 H823 0.961 . S
C808 C809 1.370 . S
C808 C810 1.363 . S
C808 H824 0.931 . S
C809 C808 1.370 . S
C809 C813 1.408 . S
C810 C808 1.363 . S
C810 C811 1.370 . S
C810 C814 1.524 . S
C811 C803 1.503 . S
C811 C810 1.370 . S
C811 C812 1.403 . S
C812 C811 1.403 . S
C812 C813 1.404 . S
C812 C815 1.539 . S
C813 C809 1.408 . S
C813 C812 1.404 . S
C813 H825 0.930 . S
C814 C810 1.524 . S
C814 H826 0.956 . S
C814 H827 0.961 . S
C814 H828 0.961 . S
C815 C812 1.539 . S
C815 H829 0.958 . S
C815 H830 0.961 . S
C815 H831 0.960 . S
H816 C800 0.931 . S
H817 C805 0.929 . S
H818 C806 0.960 . S
H819 C806 0.962 . S
H820 C806 0.960 . S
H821 C807 0.961 . S
H822 C807 0.961 . S
H823 C807 0.961 . S
H824 C808 0.931 . S
H825 C813 0.930 . S
H826 C814 0.956 . S
H827 C814 0.961 . S
H828 C814 0.961 . S
H829 C815 0.958 . S
H830 C815 0.961 . S
H831 C815 0.960 . S
C832 C833 1.391 . S
C832 C834 1.394 . S
C832 H848 0.931 . S
C833 C832 1.391 . S
C833 C837 1.376 . S
C834 C832 1.394 . S
C834 C835 1.369 . S
C834 C838 1.531 . S
C835 C834 1.369 . S
C835 C836 1.410 . S
C835 C843 1.503 . S
C836 C835 1.410 . S
C836 C837 1.392 . S
C836 C839 1.511 . S
C837 C833 1.376 . S
C837 C836 1.392 . S
C837 H849 0.929 . S
C838 C834 1.531 . S
C838 H850 0.960 . S
C838 H851 0.962 . S
C838 H852 0.960 . S
C839 C836 1.511 . S
C839 H853 0.961 . S
C839 H854 0.961 . S
C839 H855 0.961 . S
C840 C841 1.370 . S
C840 C842 1.363 . S
C840 H856 0.931 . S
C841 C840 1.370 . S
C841 C845 1.408 . S
C842 C840 1.363 . S
C842 C843 1.370 . S
C842 C846 1.524 . S
C843 C835 1.503 . S
C843 C842 1.370 . S
C843 C844 1.403 . S
C844 C843 1.403 . S
C844 C845 1.404 . S
C844 C847 1.539 . S
C845 C841 1.408 . S
C845 C844 1.404 . S
C845 H857 0.930 . S
C846 C842 1.524 . S
C846 H858 0.956 . S
C846 H859 0.961 . S
C846 H860 0.961 . S
C847 C844 1.539 . S
C847 H861 0.958 . S
C847 H862 0.961 . S
C847 H863 0.960 . S
H848 C832 0.931 . S
H849 C837 0.929 . S
H850 C838 0.960 . S
H851 C838 0.962 . S
H852 C838 0.960 . S
H853 C839 0.961 . S
H854 C839 0.961 . S
H855 C839 0.961 . S
H856 C840 0.931 . S
H857 C845 0.930 . S
H858 C846 0.956 . S
H859 C846 0.961 . S
H860 C846 0.961 . S
H861 C847 0.958 . S
H862 C847 0.961 . S
H863 C847 0.960 . S
C864 C865 1.391 . S
C864 C866 1.394 . S
C864 H880 0.931 . S
C865 C864 1.391 . S
C865 C869 1.376 . S
C866 C864 1.394 . S
C866 C867 1.369 . S
C866 C870 1.531 . S
C867 C866 1.369 . S
C867 C868 1.410 . S
C867 C875 1.503 1_554 S
C868 C867 1.410 . S
C868 C869 1.392 . S
C868 C871 1.511 . S
C869 C865 1.376 . S
C869 C868 1.392 . S
C869 H881 0.929 . S
C870 C866 1.531 . S
C870 H882 0.960 . S
C870 H883 0.962 . S
C870 H884 0.960 . S
C871 C868 1.511 . S
C871 H885 0.961 . S
C871 H886 0.961 1_554 S
C871 H887 0.961 . S
C872 C873 1.370 . S
C872 C874 1.363 . S
C872 H888 0.931 . S
C873 C872 1.370 . S
C873 C877 1.408 . S
C874 C872 1.363 . S
C874 C875 1.370 . S
C874 C878 1.524 . S
C875 C867 1.503 1_556 S
C875 C874 1.370 . S
C875 C876 1.403 . S
C876 C875 1.403 . S
C876 C877 1.404 . S
C876 C879 1.539 . S
C877 C873 1.408 . S
C877 C876 1.404 . S
C877 H889 0.930 . S
C878 C874 1.524 . S
C878 H890 0.960 1_556 S
C878 H891 0.987 . S
C878 H892 0.961 . S
C879 C876 1.539 . S
C879 H893 0.958 . S
C879 H894 0.961 . S
C879 H895 0.979 . S
H880 C864 0.931 . S
H881 C869 0.929 . S
H882 C870 0.960 . S
H883 C870 0.962 . S
H884 C870 0.960 . S
H885 C871 0.961 . S
H886 C871 0.961 1_556 S
H887 C871 0.961 . S
H888 C872 0.931 . S
H889 C877 0.930 . S
H890 C878 0.960 1_554 S
H891 C878 0.987 . S
H892 C878 0.961 . S
H893 C879 0.958 . S
H894 C879 0.961 . S
H895 C879 0.979 . S
C896 C897 1.391 . S
C896 C898 1.394 . S
C896 H912 0.931 . S
C897 C896 1.391 . S
C897 C901 1.376 . S
C898 C896 1.394 . S
C898 C899 1.369 . S
C898 C902 1.531 . S
C899 C898 1.369 . S
C899 C900 1.410 . S
C899 C907 1.503 . S
C900 C899 1.410 . S
C900 C901 1.392 . S
C900 C903 1.511 . S
C901 C897 1.376 . S
C901 C900 1.392 . S
C901 H913 0.929 . S
C902 C898 1.531 . S
C902 H914 0.960 . S
C902 H915 0.962 . S
C902 H916 0.960 . S
C903 C900 1.511 . S
C903 H917 0.961 . S
C903 H918 0.961 . S
C903 H919 0.961 . S
C904 C905 1.370 . S
C904 C906 1.363 . S
C904 H920 0.931 . S
C905 C904 1.370 . S
C905 C909 1.408 . S
C906 C904 1.363 . S
C906 C907 1.370 . S
C906 C910 1.524 . S
C907 C899 1.503 . S
C907 C906 1.370 . S
C907 C908 1.403 . S
C908 C907 1.403 . S
C908 C909 1.404 . S
C908 C911 1.539 . S
C909 C905 1.408 . S
C909 C908 1.404 . S
C909 H921 0.930 . S
C910 C906 1.524 . S
C910 H922 0.956 . S
C910 H923 0.961 . S
C910 H924 0.961 . S
C911 C908 1.539 . S
C911 H925 0.958 . S
C911 H926 0.961 . S
C911 H927 0.960 . S
H912 C896 0.931 . S
H913 C901 0.929 . S
H914 C902 0.960 . S
H915 C902 0.962 . S
H916 C902 0.960 . S
H917 C903 0.961 . S
H918 C903 0.961 . S
H919 C903 0.961 . S
H920 C904 0.931 . S
H921 C909 0.930 . S
H922 C910 0.956 . S
H923 C910 0.961 . S
H924 C910 0.961 . S
H925 C911 0.958 . S
H926 C911 0.961 . S
H927 C911 0.960 . S
C928 C929 1.391 . S
C928 C930 1.394 . S
C928 H944 0.931 . S
C929 C928 1.391 . S
C929 C933 1.376 . S
C930 C928 1.394 . S
C930 C931 1.369 . S
C930 C934 1.531 . S
C931 C930 1.369 . S
C931 C932 1.410 . S
C931 C939 1.503 . S
C932 C931 1.410 . S
C932 C933 1.392 . S
C932 C935 1.511 . S
C933 C929 1.376 . S
C933 C932 1.392 . S
C933 H945 0.929 . S
C934 C930 1.531 . S
C934 H946 0.960 . S
C934 H947 0.962 . S
C934 H948 0.960 . S
C935 C932 1.511 . S
C935 H949 0.961 . S
C935 H950 0.961 . S
C935 H951 0.961 . S
C936 C937 1.370 . S
C936 C938 1.363 . S
C936 H952 0.931 . S
C937 C936 1.370 . S
C937 C941 1.408 . S
C938 C936 1.363 . S
C938 C939 1.370 . S
C938 C942 1.524 . S
C939 C931 1.503 . S
C939 C938 1.370 . S
C939 C940 1.403 . S
C940 C939 1.403 . S
C940 C941 1.404 . S
C940 C943 1.539 . S
C941 C937 1.408 . S
C941 C940 1.404 . S
C941 H953 0.930 . S
C942 C938 1.524 . S
C942 H954 0.956 . S
C942 H955 0.961 . S
C942 H956 0.961 . S
C943 C940 1.539 . S
C943 H957 0.958 . S
C943 H958 0.961 . S
C943 H959 0.960 . S
H944 C928 0.931 . S
H945 C933 0.929 . S
H946 C934 0.960 . S
H947 C934 0.962 . S
H948 C934 0.960 . S
H949 C935 0.961 . S
H950 C935 0.961 . S
H951 C935 0.961 . S
H952 C936 0.931 . S
H953 C941 0.930 . S
H954 C942 0.956 . S
H955 C942 0.961 . S
H956 C942 0.961 . S
H957 C943 0.958 . S
H958 C943 0.961 . S
H959 C943 0.960 . S
C960 C961 1.391 . S
C960 C962 1.394 . S
C960 H976 0.931 1_565 S
C961 C960 1.391 . S
C961 C965 1.376 . S
C962 C960 1.394 . S
C962 C963 1.369 . S
C962 C966 1.531 . S
C963 C962 1.369 . S
C963 C964 1.410 . S
C963 C971 1.503 . S
C964 C963 1.410 . S
C964 C965 1.392 . S
C964 C967 1.511 . S
C965 C961 1.376 . S
C965 C964 1.392 . S
C965 H977 0.929 . S
C966 C962 1.531 . S
C966 H978 0.960 . S
C966 H979 0.962 . S
C966 H980 0.960 . S
C967 C964 1.511 . S
C967 H981 0.961 . S
C967 H982 0.961 . S
C967 H983 0.961 . S
C968 C969 1.370 . S
C968 C970 1.363 . S
C968 H984 0.931 . S
C969 C968 1.370 . S
C969 C973 1.408 . S
C970 C968 1.363 . S
C970 C971 1.370 . S
C970 C974 1.524 . S
C971 C963 1.503 . S
C971 C970 1.370 . S
C971 C972 1.403 . S
C972 C971 1.403 . S
C972 C973 1.404 . S
C972 C975 1.539 . S
C973 C969 1.408 . S
C973 C972 1.404 . S
C973 H985 0.930 . S
C974 C970 1.524 . S
C974 H986 0.956 . S
C974 H987 0.961 . S
C974 H988 0.961 . S
C975 C972 1.539 . S
C975 H989 0.958 . S
C975 H990 0.961 . S
C975 H991 0.960 . S
H976 C960 0.931 1_545 S
H977 C965 0.929 . S
H978 C966 0.960 . S
H979 C966 0.962 . S
H980 C966 0.960 . S
H981 C967 0.961 . S
H982 C967 0.961 . S
H983 C967 0.961 . S
H984 C968 0.931 . S
H985 C973 0.930 . S
H986 C974 0.956 . S
H987 C974 0.961 . S
H988 C974 0.961 . S
H989 C975 0.958 . S
H990 C975 0.961 . S
H991 C975 0.960 . S
C992 C993 1.391 . S
C992 C994 1.394 . S
C992 H1008 0.931 . S
C993 C992 1.391 . S
C993 C997 1.376 . S
C994 C992 1.394 . S
C994 C995 1.369 . S
C994 C998 1.531 . S
C995 C994 1.369 . S
C995 C996 1.410 . S
C995 C1003 1.503 . S
C996 C995 1.410 . S
C996 C997 1.392 . S
C996 C999 1.511 . S
C997 C993 1.376 . S
C997 C996 1.392 . S
C997 H1009 0.929 . S
C998 C994 1.531 . S
C998 H1010 0.960 . S
C998 H1011 0.962 . S
C998 H1012 0.960 . S
C999 C996 1.511 . S
C999 H1013 0.961 . S
C999 H1014 0.961 . S
C999 H1015 0.961 . S
C1000 C1001 1.370 . S
C1000 C1002 1.363 . S
C1000 H1016 0.931 1_545 S
C1001 C1000 1.370 . S
C1001 C1005 1.408 . S
C1002 C1000 1.363 . S
C1002 C1003 1.370 . S
C1002 C1006 1.524 . S
C1003 C995 1.503 . S
C1003 C1002 1.370 . S
C1003 C1004 1.403 . S
C1004 C1003 1.403 . S
C1004 C1005 1.404 . S
C1004 C1007 1.539 . S
C1005 C1001 1.408 . S
C1005 C1004 1.404 . S
C1005 H1017 0.930 . S
C1006 C1002 1.524 . S
C1006 H1018 0.956 . S
C1006 H1019 0.961 . S
C1006 H1020 0.961 . S
C1007 C1004 1.539 . S
C1007 H1021 0.958 . S
C1007 H1022 0.961 . S
C1007 H1023 0.960 . S
H1008 C992 0.931 . S
H1009 C997 0.929 . S
H1010 C998 0.960 . S
H1011 C998 0.962 . S
H1012 C998 0.960 . S
H1013 C999 0.961 . S
H1014 C999 0.961 . S
H1015 C999 0.961 . S
H1016 C1000 0.931 1_565 S
H1017 C1005 0.930 . S
H1018 C1006 0.956 . S
H1019 C1006 0.961 . S
H1020 C1006 0.961 . S
H1021 C1007 0.958 . S
H1022 C1007 0.961 . S
H1023 C1007 0.960 . S
C1024 C1025 1.391 . S
C1024 C1026 1.394 . S
C1024 H1040 0.931 . S
C1025 C1024 1.391 . S
C1025 C1029 1.376 1_545 S
C1026 C1024 1.394 . S
C1026 C1027 1.369 . S
C1026 C1030 1.531 . S
C1027 C1026 1.369 . S
C1027 C1028 1.410 . S
C1027 C1035 1.503 . S
C1028 C1027 1.410 . S
C1028 C1029 1.392 1_545 S
C1028 C1031 1.511 . S
C1029 C1025 1.376 1_565 S
C1029 C1028 1.392 1_565 S
C1029 H1041 0.929 . S
C1030 C1026 1.531 . S
C1030 H1042 0.960 . S
C1030 H1043 0.962 . S
C1030 H1044 0.960 . S
C1031 C1028 1.511 . S
C1031 H1045 0.961 1_545 S
C1031 H1046 0.961 . S
C1031 H1047 0.961 . S
C1032 C1033 1.370 . S
C1032 C1034 1.363 . S
C1032 H1048 0.931 . S
C1033 C1032 1.370 . S
C1033 C1037 1.408 . S
C1034 C1032 1.363 . S
C1034 C1035 1.370 . S
C1034 C1038 1.524 . S
C1035 C1027 1.503 . S
C1035 C1034 1.370 . S
C1035 C1036 1.403 . S
C1036 C1035 1.403 . S
C1036 C1037 1.404 . S
C1036 C1039 1.539 . S
C1037 C1033 1.408 . S
C1037 C1036 1.404 . S
C1037 H1049 0.930 . S
C1038 C1034 1.524 . S
C1038 H1050 0.956 . S
C1038 H1051 0.961 . S
C1038 H1052 0.961 . S
C1039 C1036 1.539 . S
C1039 H1053 0.958 . S
C1039 H1054 0.961 . S
C1039 H1055 0.960 . S
H1040 C1024 0.931 . S
H1041 C1029 0.929 . S
H1042 C1030 0.960 . S
H1043 C1030 0.962 . S
H1044 C1030 0.960 . S
H1045 C1031 0.961 1_565 S
H1046 C1031 0.961 . S
H1047 C1031 0.961 . S
H1048 C1032 0.931 . S
H1049 C1037 0.930 . S
H1050 C1038 0.956 . S
H1051 C1038 0.961 . S
H1052 C1038 0.961 . S
H1053 C1039 0.958 . S
H1054 C1039 0.961 . S
H1055 C1039 0.960 . S
C1056 C1057 1.391 1_545 S
C1056 C1058 1.394 1_545 S
C1056 H1072 0.931 . S
C1057 C1056 1.391 1_565 S
C1057 C1061 1.376 . S
C1058 C1056 1.394 1_565 S
C1058 C1059 1.369 . S
C1058 C1062 1.531 . S
C1059 C1058 1.369 . S
C1059 C1060 1.410 . S
C1059 C1067 1.503 . S
C1060 C1059 1.410 . S
C1060 C1061 1.392 . S
C1060 C1063 1.511 . S
C1061 C1057 1.376 . S
C1061 C1060 1.392 . S
C1061 H1073 0.929 . S
C1062 C1058 1.531 . S
C1062 H1074 0.960 . S
C1062 H1075 0.962 . S
C1062 H1076 0.960 1_565 S
C1063 C1060 1.511 . S
C1063 H1077 0.961 . S
C1063 H1078 0.961 . S
C1063 H1079 0.961 . S
C1064 C1065 1.370 . S
C1064 C1066 1.363 . S
C1064 H1080 0.931 . S
C1065 C1064 1.370 . S
C1065 C1069 1.408 . S
C1066 C1064 1.363 . S
C1066 C1067 1.370 . S
C1066 C1070 1.524 . S
C1067 C1059 1.503 . S
C1067 C1066 1.370 . S
C1067 C1068 1.403 . S
C1068 C1067 1.403 . S
C1068 C1069 1.404 . S
C1068 C1071 1.539 . S
C1069 C1065 1.408 . S
C1069 C1068 1.404 . S
C1069 H1081 0.930 . S
C1070 C1066 1.524 . S
C1070 H1082 0.956 . S
C1070 H1083 0.961 . S
C1070 H1084 0.961 . S
C1071 C1068 1.539 . S
C1071 H1085 0.958 . S
C1071 H1086 0.961 . S
C1071 H1087 0.960 . S
H1072 C1056 0.931 . S
H1073 C1061 0.929 . S
H1074 C1062 0.960 . S
H1075 C1062 0.962 . S
H1076 C1062 0.960 1_545 S
H1077 C1063 0.961 . S
H1078 C1063 0.961 . S
H1079 C1063 0.961 . S
H1080 C1064 0.931 . S
H1081 C1069 0.930 . S
H1082 C1070 0.956 . S
H1083 C1070 0.961 . S
H1084 C1070 0.961 . S
H1085 C1071 0.958 . S
H1086 C1071 0.961 . S
H1087 C1071 0.960 . S
C1088 C1089 1.391 . S
C1088 C1090 1.394 . S
C1088 H1104 0.931 . S
C1089 C1088 1.391 . S
C1089 C1093 1.376 . S
C1090 C1088 1.394 . S
C1090 C1091 1.369 . S
C1090 C1094 1.531 . S
C1091 C1090 1.369 . S
C1091 C1092 1.410 . S
C1091 C1099 1.503 . S
C1092 C1091 1.410 . S
C1092 C1093 1.392 . S
C1092 C1095 1.511 . S
C1093 C1089 1.376 . S
C1093 C1092 1.392 . S
C1093 H1105 0.929 . S
C1094 C1090 1.531 . S
C1094 H1106 0.960 . S
C1094 H1107 0.962 . S
C1094 H1108 0.960 . S
C1095 C1092 1.511 . S
C1095 H1109 0.961 . S
C1095 H1110 0.961 . S
C1095 H1111 0.961 . S
C1096 C1097 1.370 . S
C1096 C1098 1.363 . S
C1096 H1112 0.931 . S
C1097 C1096 1.370 . S
C1097 C1101 1.408 . S
C1098 C1096 1.363 . S
C1098 C1099 1.370 . S
C1098 C1102 1.524 . S
C1099 C1091 1.503 . S
C1099 C1098 1.370 . S
C1099 C1100 1.403 . S
C1100 C1099 1.403 . S
C1100 C1101 1.404 . S
C1100 C1103 1.539 . S
C1101 C1097 1.408 . S
C1101 C1100 1.404 . S
C1101 H1113 0.930 . S
C1102 C1098 1.524 . S
C1102 H1114 0.956 . S
C1102 H1115 0.961 . S
C1102 H1116 0.961 . S
C1103 C1100 1.539 . S
C1103 H1117 0.958 . S
C1103 H1118 0.961 . S
C1103 H1119 0.960 . S
H1104 C1088 0.931 . S
H1105 C1093 0.929 . S
H1106 C1094 0.960 . S
H1107 C1094 0.962 . S
H1108 C1094 0.960 . S
H1109 C1095 0.961 . S
H1110 C1095 0.961 . S
H1111 C1095 0.961 . S
H1112 C1096 0.931 . S
H1113 C1101 0.930 . S
H1114 C1102 0.956 . S
H1115 C1102 0.961 . S
H1116 C1102 0.961 . S
H1117 C1103 0.958 . S
H1118 C1103 0.961 . S
H1119 C1103 0.960 . S
C1120 C1121 1.391 . S
C1120 C1122 1.394 . S
C1120 H1136 0.931 . S
C1121 C1120 1.391 . S
C1121 C1125 1.376 . S
C1122 C1120 1.394 . S
C1122 C1123 1.369 . S
C1122 C1126 1.531 . S
C1123 C1122 1.369 . S
C1123 C1124 1.410 . S
C1123 C1131 1.503 . S
C1124 C1123 1.410 . S
C1124 C1125 1.392 . S
C1124 C1127 1.511 . S
C1125 C1121 1.376 . S
C1125 C1124 1.392 . S
C1125 H1137 0.929 . S
C1126 C1122 1.531 . S
C1126 H1138 0.960 . S
C1126 H1139 0.962 . S
C1126 H1140 0.960 . S
C1127 C1124 1.511 . S
C1127 H1141 0.961 . S
C1127 H1142 0.961 . S
C1127 H1143 0.961 . S
C1128 C1129 1.370 . S
C1128 C1130 1.363 . S
C1128 H1144 0.931 . S
C1129 C1128 1.370 . S
C1129 C1133 1.408 . S
C1130 C1128 1.363 . S
C1130 C1131 1.370 . S
C1130 C1134 1.524 . S
C1131 C1123 1.503 . S
C1131 C1130 1.370 . S
C1131 C1132 1.403 . S
C1132 C1131 1.403 . S
C1132 C1133 1.404 . S
C1132 C1135 1.539 . S
C1133 C1129 1.408 . S
C1133 C1132 1.404 . S
C1133 H1145 0.930 . S
C1134 C1130 1.524 . S
C1134 H1146 0.956 . S
C1134 H1147 0.961 . S
C1134 H1148 0.961 . S
C1135 C1132 1.539 . S
C1135 H1149 0.958 . S
C1135 H1150 0.961 . S
C1135 H1151 0.960 . S
H1136 C1120 0.931 . S
H1137 C1125 0.929 . S
H1138 C1126 0.960 . S
H1139 C1126 0.962 . S
H1140 C1126 0.960 . S
H1141 C1127 0.961 . S
H1142 C1127 0.961 . S
H1143 C1127 0.961 . S
H1144 C1128 0.931 . S
H1145 C1133 0.930 . S
H1146 C1134 0.956 . S
H1147 C1134 0.961 . S
H1148 C1134 0.961 . S
H1149 C1135 0.958 . S
H1150 C1135 0.961 . S
H1151 C1135 0.960 . S
C1152 C1153 1.391 . S
C1152 C1154 1.394 . S
C1152 H1168 0.931 . S
C1153 C1152 1.391 . S
C1153 C1157 1.376 . S
C1154 C1152 1.394 . S
C1154 C1155 1.369 . S
C1154 C1158 1.531 . S
C1155 C1154 1.369 . S
C1155 C1156 1.410 . S
C1155 C1163 1.503 . S
C1156 C1155 1.410 . S
C1156 C1157 1.392 . S
C1156 C1159 1.511 . S
C1157 C1153 1.376 . S
C1157 C1156 1.392 . S
C1157 H1169 0.929 . S
C1158 C1154 1.531 . S
C1158 H1170 0.960 . S
C1158 H1171 0.962 . S
C1158 H1172 0.960 . S
C1159 C1156 1.511 . S
C1159 H1173 0.961 . S
C1159 H1174 0.961 . S
C1159 H1175 0.961 . S
C1160 C1161 1.370 . S
C1160 C1162 1.363 . S
C1160 H1176 0.931 . S
C1161 C1160 1.370 . S
C1161 C1165 1.408 . S
C1162 C1160 1.363 . S
C1162 C1163 1.370 . S
C1162 C1166 1.524 . S
C1163 C1155 1.503 . S
C1163 C1162 1.370 . S
C1163 C1164 1.403 . S
C1164 C1163 1.403 . S
C1164 C1165 1.404 . S
C1164 C1167 1.539 . S
C1165 C1161 1.408 . S
C1165 C1164 1.404 . S
C1165 H1177 0.930 . S
C1166 C1162 1.524 . S
C1166 H1178 0.956 . S
C1166 H1179 0.961 . S
C1166 H1180 0.961 . S
C1167 C1164 1.539 . S
C1167 H1181 0.958 . S
C1167 H1182 0.961 . S
C1167 H1183 0.960 . S
H1168 C1152 0.931 . S
H1169 C1157 0.929 . S
H1170 C1158 0.960 . S
H1171 C1158 0.962 . S
H1172 C1158 0.960 . S
H1173 C1159 0.961 . S
H1174 C1159 0.961 . S
H1175 C1159 0.961 . S
H1176 C1160 0.931 . S
H1177 C1165 0.930 . S
H1178 C1166 0.956 . S
H1179 C1166 0.961 . S
H1180 C1166 0.961 . S
H1181 C1167 0.958 . S
H1182 C1167 0.961 . S
H1183 C1167 0.960 . S
C1184 C1185 1.391 . S
C1184 C1186 1.394 . S
C1184 H1200 0.931 . S
C1185 C1184 1.391 . S
C1185 C1189 1.376 . S
C1186 C1184 1.394 . S
C1186 C1187 1.369 . S
C1186 C1190 1.531 . S
C1187 C1186 1.369 . S
C1187 C1188 1.410 . S
C1187 C1195 1.503 . S
C1188 C1187 1.410 . S
C1188 C1189 1.392 . S
C1188 C1191 1.511 . S
C1189 C1185 1.376 . S
C1189 C1188 1.392 . S
C1189 H1201 0.929 . S
C1190 C1186 1.531 . S
C1190 H1202 0.960 . S
C1190 H1203 0.962 . S
C1190 H1204 0.960 . S
C1191 C1188 1.511 . S
C1191 H1205 0.961 . S
C1191 H1206 0.961 . S
C1191 H1207 0.961 . S
C1192 C1193 1.370 . S
C1192 C1194 1.363 . S
C1192 H1208 0.931 1_545 S
C1193 C1192 1.370 . S
C1193 C1197 1.408 . S
C1194 C1192 1.363 . S
C1194 C1195 1.370 . S
C1194 C1198 1.524 . S
C1195 C1187 1.503 . S
C1195 C1194 1.370 . S
C1195 C1196 1.403 . S
C1196 C1195 1.403 . S
C1196 C1197 1.404 . S
C1196 C1199 1.539 . S
C1197 C1193 1.408 . S
C1197 C1196 1.404 . S
C1197 H1209 0.930 . S
C1198 C1194 1.524 . S
C1198 H1210 0.956 . S
C1198 H1211 0.961 . S
C1198 H1212 0.961 . S
C1199 C1196 1.539 . S
C1199 H1213 0.958 . S
C1199 H1214 0.961 . S
C1199 H1215 0.960 . S
H1200 C1184 0.931 . S
H1201 C1189 0.929 . S
H1202 C1190 0.960 . S
H1203 C1190 0.962 . S
H1204 C1190 0.960 . S
H1205 C1191 0.961 . S
H1206 C1191 0.961 . S
H1207 C1191 0.961 . S
H1208 C1192 0.931 1_565 S
H1209 C1197 0.930 . S
H1210 C1198 0.956 . S
H1211 C1198 0.961 . S
H1212 C1198 0.961 . S
H1213 C1199 0.958 . S
H1214 C1199 0.961 . S
H1215 C1199 0.960 . S
C1216 C1217 1.391 . S
C1216 C1218 1.394 . S
C1216 H1232 0.931 . S
C1217 C1216 1.391 . S
C1217 C1221 1.376 . S
C1218 C1216 1.394 . S
C1218 C1219 1.369 . S
C1218 C1222 1.531 . S
C1219 C1218 1.369 . S
C1219 C1220 1.410 . S
C1219 C1227 1.503 . S
C1220 C1219 1.410 . S
C1220 C1221 1.392 . S
C1220 C1223 1.511 . S
C1221 C1217 1.376 . S
C1221 C1220 1.392 . S
C1221 H1233 0.929 . S
C1222 C1218 1.531 . S
C1222 H1234 0.960 . S
C1222 H1235 0.962 . S
C1222 H1236 0.960 . S
C1223 C1220 1.511 . S
C1223 H1237 0.961 . S
C1223 H1238 0.961 . S
C1223 H1239 0.961 . S
C1224 C1225 1.370 . S
C1224 C1226 1.363 . S
C1224 H1240 0.931 . S
C1225 C1224 1.370 . S
C1225 C1229 1.408 . S
C1226 C1224 1.363 . S
C1226 C1227 1.370 . S
C1226 C1230 1.524 . S
C1227 C1219 1.503 . S
C1227 C1226 1.370 . S
C1227 C1228 1.403 . S
C1228 C1227 1.403 . S
C1228 C1229 1.404 . S
C1228 C1231 1.539 . S
C1229 C1225 1.408 . S
C1229 C1228 1.404 . S
C1229 H1241 0.930 . S
C1230 C1226 1.524 . S
C1230 H1242 0.956 . S
C1230 H1243 0.961 . S
C1230 H1244 0.961 . S
C1231 C1228 1.539 . S
C1231 H1245 0.958 . S
C1231 H1246 0.961 . S
C1231 H1247 0.960 . S
H1232 C1216 0.931 . S
H1233 C1221 0.929 . S
H1234 C1222 0.960 . S
H1235 C1222 0.962 . S
H1236 C1222 0.960 . S
H1237 C1223 0.961 . S
H1238 C1223 0.961 . S
H1239 C1223 0.961 . S
H1240 C1224 0.931 . S
H1241 C1229 0.930 . S
H1242 C1230 0.956 . S
H1243 C1230 0.961 . S
H1244 C1230 0.961 . S
H1245 C1231 0.958 . S
H1246 C1231 0.961 . S
H1247 C1231 0.960 . S
C1248 C1249 1.391 . S
C1248 C1250 1.394 . S
C1248 H1264 0.931 . S
C1249 C1248 1.391 . S
C1249 C1253 1.376 . S
C1250 C1248 1.394 . S
C1250 C1251 1.369 . S
C1250 C1254 1.531 . S
C1251 C1250 1.369 . S
C1251 C1252 1.410 . S
C1251 C1259 1.503 . S
C1252 C1251 1.410 . S
C1252 C1253 1.392 . S
C1252 C1255 1.511 . S
C1253 C1249 1.376 . S
C1253 C1252 1.392 . S
C1253 H1265 0.929 . S
C1254 C1250 1.531 . S
C1254 H1266 0.960 . S
C1254 H1267 0.962 . S
C1254 H1268 0.960 . S
C1255 C1252 1.511 . S
C1255 H1269 0.961 . S
C1255 H1270 0.961 . S
C1255 H1271 0.961 . S
C1256 C1257 1.370 . S
C1256 C1258 1.363 . S
C1256 H1272 0.931 . S
C1257 C1256 1.370 . S
C1257 C1261 1.408 . S
C1258 C1256 1.363 . S
C1258 C1259 1.370 . S
C1258 C1262 1.524 . S
C1259 C1251 1.503 . S
C1259 C1258 1.370 . S
C1259 C1260 1.403 . S
C1260 C1259 1.403 . S
C1260 C1261 1.404 . S
C1260 C1263 1.539 . S
C1261 C1257 1.408 . S
C1261 C1260 1.404 . S
C1261 H1273 0.930 . S
C1262 C1258 1.524 . S
C1262 H1274 0.956 . S
C1262 H1275 0.961 . S
C1262 H1276 0.961 . S
C1263 C1260 1.539 . S
C1263 H1277 0.958 . S
C1263 H1278 0.961 . S
C1263 H1279 0.960 . S
H1264 C1248 0.931 . S
H1265 C1253 0.929 . S
H1266 C1254 0.960 . S
H1267 C1254 0.962 . S
H1268 C1254 0.960 . S
H1269 C1255 0.961 . S
H1270 C1255 0.961 . S
H1271 C1255 0.961 . S
H1272 C1256 0.931 . S
H1273 C1261 0.930 . S
H1274 C1262 0.956 . S
H1275 C1262 0.961 . S
H1276 C1262 0.961 . S
H1277 C1263 0.958 . S
H1278 C1263 0.961 . S
H1279 C1263 0.960 . S
C1280 C1281 1.391 . S
C1280 C1282 1.394 . S
C1280 H1296 0.931 . S
C1281 C1280 1.391 . S
C1281 C1285 1.376 . S
C1282 C1280 1.394 . S
C1282 C1283 1.369 . S
C1282 C1286 1.531 . S
C1283 C1282 1.369 . S
C1283 C1284 1.410 . S
C1283 C1291 1.503 . S
C1284 C1283 1.410 . S
C1284 C1285 1.392 . S
C1284 C1287 1.511 . S
C1285 C1281 1.376 . S
C1285 C1284 1.392 . S
C1285 H1297 0.929 . S
C1286 C1282 1.531 . S
C1286 H1298 0.960 . S
C1286 H1299 0.962 . S
C1286 H1300 0.960 . S
C1287 C1284 1.511 . S
C1287 H1301 0.961 . S
C1287 H1302 0.961 . S
C1287 H1303 0.961 . S
C1288 C1289 1.370 . S
C1288 C1290 1.363 . S
C1288 H1304 0.931 . S
C1289 C1288 1.370 . S
C1289 C1293 1.408 . S
C1290 C1288 1.363 . S
C1290 C1291 1.370 . S
C1290 C1294 1.524 . S
C1291 C1283 1.503 . S
C1291 C1290 1.370 . S
C1291 C1292 1.403 . S
C1292 C1291 1.403 . S
C1292 C1293 1.404 . S
C1292 C1295 1.539 . S
C1293 C1289 1.408 . S
C1293 C1292 1.404 . S
C1293 H1305 0.930 . S
C1294 C1290 1.524 . S
C1294 H1306 0.956 . S
C1294 H1307 0.961 . S
C1294 H1308 0.961 . S
C1295 C1292 1.539 . S
C1295 H1309 0.958 . S
C1295 H1310 0.961 . S
C1295 H1311 0.960 . S
H1296 C1280 0.931 . S
H1297 C1285 0.929 . S
H1298 C1286 0.960 . S
H1299 C1286 0.962 . S
H1300 C1286 0.960 . S
H1301 C1287 0.961 . S
H1302 C1287 0.961 . S
H1303 C1287 0.961 . S
H1304 C1288 0.931 . S
H1305 C1293 0.930 . S
H1306 C1294 0.956 . S
H1307 C1294 0.961 . S
H1308 C1294 0.961 . S
H1309 C1295 0.958 . S
H1310 C1295 0.961 . S
H1311 C1295 0.960 . S
C1312 C1313 1.391 . S
C1312 C1314 1.394 . S
C1312 H1328 0.931 . S
C1313 C1312 1.391 . S
C1313 C1317 1.376 . S
C1314 C1312 1.394 . S
C1314 C1315 1.369 . S
C1314 C1318 1.531 . S
C1315 C1314 1.369 . S
C1315 C1316 1.410 . S
C1315 C1323 1.503 . S
C1316 C1315 1.410 . S
C1316 C1317 1.392 . S
C1316 C1319 1.511 . S
C1317 C1313 1.376 . S
C1317 C1316 1.392 . S
C1317 H1329 0.929 . S
C1318 C1314 1.531 . S
C1318 H1330 0.960 . S
C1318 H1331 0.962 . S
C1318 H1332 0.960 . S
C1319 C1316 1.511 . S
C1319 H1333 0.961 . S
C1319 H1334 0.961 . S
C1319 H1335 0.961 . S
C1320 C1321 1.370 . S
C1320 C1322 1.363 . S
C1320 H1336 0.931 . S
C1321 C1320 1.370 . S
C1321 C1325 1.408 . S
C1322 C1320 1.363 . S
C1322 C1323 1.370 . S
C1322 C1326 1.524 . S
C1323 C1315 1.503 . S
C1323 C1322 1.370 . S
C1323 C1324 1.403 . S
C1324 C1323 1.403 . S
C1324 C1325 1.404 . S
C1324 C1327 1.539 . S
C1325 C1321 1.408 . S
C1325 C1324 1.404 . S
C1325 H1337 0.930 . S
C1326 C1322 1.524 . S
C1326 H1338 0.956 . S
C1326 H1339 0.961 . S
C1326 H1340 0.961 . S
C1327 C1324 1.539 . S
C1327 H1341 0.958 . S
C1327 H1342 0.961 . S
C1327 H1343 0.960 . S
H1328 C1312 0.931 . S
H1329 C1317 0.929 . S
H1330 C1318 0.960 . S
H1331 C1318 0.962 . S
H1332 C1318 0.960 . S
H1333 C1319 0.961 . S
H1334 C1319 0.961 . S
H1335 C1319 0.961 . S
H1336 C1320 0.931 . S
H1337 C1325 0.930 . S
H1338 C1326 0.956 . S
H1339 C1326 0.961 . S
H1340 C1326 0.961 . S
H1341 C1327 0.958 . S
H1342 C1327 0.961 . S
H1343 C1327 0.960 . S
C1344 C1345 1.391 . S
C1344 C1346 1.394 . S
C1344 H1360 0.931 . S
C1345 C1344 1.391 . S
C1345 C1349 1.376 . S
C1346 C1344 1.394 . S
C1346 C1347 1.369 . S
C1346 C1350 1.531 . S
C1347 C1346 1.369 . S
C1347 C1348 1.410 . S
C1347 C1355 1.503 . S
C1348 C1347 1.410 . S
C1348 C1349 1.392 . S
C1348 C1351 1.511 . S
C1349 C1345 1.376 . S
C1349 C1348 1.392 . S
C1349 H1361 0.929 . S
C1350 C1346 1.531 . S
C1350 H1362 0.960 . S
C1350 H1363 0.962 . S
C1350 H1364 0.960 . S
C1351 C1348 1.511 . S
C1351 H1365 0.961 . S
C1351 H1366 0.961 . S
C1351 H1367 0.961 . S
C1352 C1353 1.370 . S
C1352 C1354 1.363 . S
C1352 H1368 0.931 . S
C1353 C1352 1.370 . S
C1353 C1357 1.408 . S
C1354 C1352 1.363 . S
C1354 C1355 1.370 . S
C1354 C1358 1.524 . S
C1355 C1347 1.503 . S
C1355 C1354 1.370 . S
C1355 C1356 1.403 . S
C1356 C1355 1.403 . S
C1356 C1357 1.404 . S
C1356 C1359 1.539 . S
C1357 C1353 1.408 . S
C1357 C1356 1.404 . S
C1357 H1369 0.930 . S
C1358 C1354 1.524 . S
C1358 H1370 0.956 . S
C1358 H1371 0.961 . S
C1358 H1372 0.961 . S
C1359 C1356 1.539 . S
C1359 H1373 0.958 . S
C1359 H1374 0.961 . S
C1359 H1375 0.960 . S
H1360 C1344 0.931 . S
H1361 C1349 0.929 . S
H1362 C1350 0.960 . S
H1363 C1350 0.962 . S
H1364 C1350 0.960 . S
H1365 C1351 0.961 . S
H1366 C1351 0.961 . S
H1367 C1351 0.961 . S
H1368 C1352 0.931 . S
H1369 C1357 0.930 . S
H1370 C1358 0.956 . S
H1371 C1358 0.961 . S
H1372 C1358 0.961 . S
H1373 C1359 0.958 . S
H1374 C1359 0.961 . S
H1375 C1359 0.960 . S
C1376 C1377 1.391 . S
C1376 C1378 1.394 . S
C1376 H1392 0.931 . S
C1377 C1376 1.391 . S
C1377 C1381 1.376 . S
C1378 C1376 1.394 . S
C1378 C1379 1.369 . S
C1378 C1382 1.531 . S
C1379 C1378 1.369 . S
C1379 C1380 1.410 . S
C1379 C1387 1.503 . S
C1380 C1379 1.410 . S
C1380 C1381 1.392 . S
C1380 C1383 1.511 . S
C1381 C1377 1.376 . S
C1381 C1380 1.392 . S
C1381 H1393 0.929 . S
C1382 C1378 1.531 . S
C1382 H1394 0.960 . S
C1382 H1395 0.962 . S
C1382 H1396 0.960 . S
C1383 C1380 1.511 . S
C1383 H1397 0.961 . S
C1383 H1398 0.961 . S
C1383 H1399 0.961 . S
C1384 C1385 1.370 . S
C1384 C1386 1.363 . S
C1384 H1400 0.931 . S
C1385 C1384 1.370 . S
C1385 C1389 1.408 . S
C1386 C1384 1.363 . S
C1386 C1387 1.370 . S
C1386 C1390 1.524 . S
C1387 C1379 1.503 . S
C1387 C1386 1.370 . S
C1387 C1388 1.403 . S
C1388 C1387 1.403 . S
C1388 C1389 1.404 . S
C1388 C1391 1.539 . S
C1389 C1385 1.408 . S
C1389 C1388 1.404 . S
C1389 H1401 0.930 . S
C1390 C1386 1.524 . S
C1390 H1402 0.956 . S
C1390 H1403 0.961 . S
C1390 H1404 0.961 . S
C1391 C1388 1.539 . S
C1391 H1405 0.958 . S
C1391 H1406 0.961 . S
C1391 H1407 0.960 . S
H1392 C1376 0.931 . S
H1393 C1381 0.929 . S
H1394 C1382 0.960 . S
H1395 C1382 0.962 . S
H1396 C1382 0.960 . S
H1397 C1383 0.961 . S
H1398 C1383 0.961 . S
H1399 C1383 0.961 . S
H1400 C1384 0.931 . S
H1401 C1389 0.930 . S
H1402 C1390 0.956 . S
H1403 C1390 0.961 . S
H1404 C1390 0.961 . S
H1405 C1391 0.958 . S
H1406 C1391 0.961 . S
H1407 C1391 0.960 . S
C1408 C1409 1.391 . S
C1408 C1410 1.394 . S
C1408 H1424 0.931 . S
C1409 C1408 1.391 . S
C1409 C1413 1.376 . S
C1410 C1408 1.394 . S
C1410 C1411 1.369 . S
C1410 C1414 1.531 . S
C1411 C1410 1.369 . S
C1411 C1412 1.410 . S
C1411 C1419 1.503 . S
C1412 C1411 1.410 . S
C1412 C1413 1.392 . S
C1412 C1415 1.511 . S
C1413 C1409 1.376 . S
C1413 C1412 1.392 . S
C1413 H1425 0.929 . S
C1414 C1410 1.531 . S
C1414 H1426 0.960 . S
C1414 H1427 0.962 . S
C1414 H1428 0.960 . S
C1415 C1412 1.511 . S
C1415 H1429 0.961 . S
C1415 H1430 0.961 . S
C1415 H1431 0.961 . S
C1416 C1417 1.370 . S
C1416 C1418 1.363 . S
C1416 H1432 0.931 . S
C1417 C1416 1.370 . S
C1417 C1421 1.408 . S
C1418 C1416 1.363 . S
C1418 C1419 1.370 . S
C1418 C1422 1.524 . S
C1419 C1411 1.503 . S
C1419 C1418 1.370 . S
C1419 C1420 1.403 . S
C1420 C1419 1.403 . S
C1420 C1421 1.404 . S
C1420 C1423 1.539 . S
C1421 C1417 1.408 . S
C1421 C1420 1.404 . S
C1421 H1433 0.930 . S
C1422 C1418 1.524 . S
C1422 H1434 0.956 . S
C1422 H1435 0.961 . S
C1422 H1436 0.961 . S
C1423 C1420 1.539 . S
C1423 H1437 0.958 . S
C1423 H1438 0.961 . S
C1423 H1439 0.960 . S
H1424 C1408 0.931 . S
H1425 C1413 0.929 . S
H1426 C1414 0.960 . S
H1427 C1414 0.962 . S
H1428 C1414 0.960 . S
H1429 C1415 0.961 . S
H1430 C1415 0.961 . S
H1431 C1415 0.961 . S
H1432 C1416 0.931 . S
H1433 C1421 0.930 . S
H1434 C1422 0.956 . S
H1435 C1422 0.961 . S
H1436 C1422 0.961 . S
H1437 C1423 0.958 . S
H1438 C1423 0.961 . S
H1439 C1423 0.960 . S
C1440 C1441 1.391 . S
C1440 C1442 1.394 . S
C1440 H1456 0.931 . S
C1441 C1440 1.391 . S
C1441 C1445 1.376 . S
C1442 C1440 1.394 . S
C1442 C1443 1.369 . S
C1442 C1446 1.531 . S
C1443 C1442 1.369 . S
C1443 C1444 1.410 . S
C1443 C1451 1.503 . S
C1444 C1443 1.410 . S
C1444 C1445 1.392 . S
C1444 C1447 1.511 . S
C1445 C1441 1.376 . S
C1445 C1444 1.392 . S
C1445 H1457 0.929 . S
C1446 C1442 1.531 . S
C1446 H1458 0.960 . S
C1446 H1459 0.962 . S
C1446 H1460 0.960 . S
C1447 C1444 1.511 . S
C1447 H1461 0.961 . S
C1447 H1462 0.961 . S
C1447 H1463 0.961 . S
C1448 C1449 1.370 . S
C1448 C1450 1.363 . S
C1448 H1464 0.931 . S
C1449 C1448 1.370 . S
C1449 C1453 1.408 . S
C1450 C1448 1.363 . S
C1450 C1451 1.370 . S
C1450 C1454 1.524 . S
C1451 C1443 1.503 . S
C1451 C1450 1.370 . S
C1451 C1452 1.403 . S
C1452 C1451 1.403 . S
C1452 C1453 1.404 . S
C1452 C1455 1.539 . S
C1453 C1449 1.408 . S
C1453 C1452 1.404 . S
C1453 H1465 0.930 . S
C1454 C1450 1.524 . S
C1454 H1466 0.956 . S
C1454 H1467 0.961 . S
C1454 H1468 0.961 . S
C1455 C1452 1.539 . S
C1455 H1469 0.958 . S
C1455 H1470 0.961 . S
C1455 H1471 0.960 . S
H1456 C1440 0.931 . S
H1457 C1445 0.929 . S
H1458 C1446 0.960 . S
H1459 C1446 0.962 . S
H1460 C1446 0.960 . S
H1461 C1447 0.961 . S
H1462 C1447 0.961 . S
H1463 C1447 0.961 . S
H1464 C1448 0.931 . S
H1465 C1453 0.930 . S
H1466 C1454 0.956 . S
H1467 C1454 0.961 . S
H1468 C1454 0.961 . S
H1469 C1455 0.958 . S
H1470 C1455 0.961 . S
H1471 C1455 0.960 . S
C1472 C1473 1.391 . S
C1472 C1474 1.394 . S
C1472 H1488 0.931 . S
C1473 C1472 1.391 . S
C1473 C1477 1.376 . S
C1474 C1472 1.394 . S
C1474 C1475 1.369 . S
C1474 C1478 1.531 . S
C1475 C1474 1.369 . S
C1475 C1476 1.410 . S
C1475 C1483 1.503 . S
C1476 C1475 1.410 . S
C1476 C1477 1.392 . S
C1476 C1479 1.511 . S
C1477 C1473 1.376 . S
C1477 C1476 1.392 . S
C1477 H1489 0.929 . S
C1478 C1474 1.531 . S
C1478 H1490 0.960 . S
C1478 H1491 0.962 . S
C1478 H1492 0.960 . S
C1479 C1476 1.511 . S
C1479 H1493 0.961 . S
C1479 H1494 0.961 . S
C1479 H1495 0.961 . S
C1480 C1481 1.370 . S
C1480 C1482 1.363 . S
C1480 H1496 0.931 . S
C1481 C1480 1.370 . S
C1481 C1485 1.408 . S
C1482 C1480 1.363 . S
C1482 C1483 1.370 . S
C1482 C1486 1.524 . S
C1483 C1475 1.503 . S
C1483 C1482 1.370 . S
C1483 C1484 1.403 . S
C1484 C1483 1.403 . S
C1484 C1485 1.404 . S
C1484 C1487 1.539 . S
C1485 C1481 1.408 . S
C1485 C1484 1.404 . S
C1485 H1497 0.930 . S
C1486 C1482 1.524 . S
C1486 H1498 0.956 . S
C1486 H1499 0.961 . S
C1486 H1500 0.961 . S
C1487 C1484 1.539 . S
C1487 H1501 0.958 . S
C1487 H1502 0.961 . S
C1487 H1503 0.960 . S
H1488 C1472 0.931 . S
H1489 C1477 0.929 . S
H1490 C1478 0.960 . S
H1491 C1478 0.962 . S
H1492 C1478 0.960 . S
H1493 C1479 0.961 . S
H1494 C1479 0.961 . S
H1495 C1479 0.961 . S
H1496 C1480 0.931 . S
H1497 C1485 0.930 . S
H1498 C1486 0.956 . S
H1499 C1486 0.961 . S
H1500 C1486 0.961 . S
H1501 C1487 0.958 . S
H1502 C1487 0.961 . S
H1503 C1487 0.960 . S
C1504 C1505 1.391 . S
C1504 C1506 1.394 . S
C1504 H1520 0.931 . S
C1505 C1504 1.391 . S
C1505 C1509 1.376 . S
C1506 C1504 1.394 . S
C1506 C1507 1.369 . S
C1506 C1510 1.531 . S
C1507 C1506 1.369 . S
C1507 C1508 1.410 . S
C1507 C1515 1.503 . S
C1508 C1507 1.410 . S
C1508 C1509 1.392 . S
C1508 C1511 1.511 . S
C1509 C1505 1.376 . S
C1509 C1508 1.392 . S
C1509 H1521 0.929 . S
C1510 C1506 1.531 . S
C1510 H1522 0.960 . S
C1510 H1523 0.962 . S
C1510 H1524 0.960 . S
C1511 C1508 1.511 . S
C1511 H1525 0.961 . S
C1511 H1526 0.961 . S
C1511 H1527 0.961 . S
C1512 C1513 1.370 . S
C1512 C1514 1.363 . S
C1512 H1528 0.931 . S
C1513 C1512 1.370 . S
C1513 C1517 1.408 . S
C1514 C1512 1.363 . S
C1514 C1515 1.370 . S
C1514 C1518 1.524 . S
C1515 C1507 1.503 . S
C1515 C1514 1.370 . S
C1515 C1516 1.403 . S
C1516 C1515 1.403 . S
C1516 C1517 1.404 . S
C1516 C1519 1.539 . S
C1517 C1513 1.408 . S
C1517 C1516 1.404 . S
C1517 H1529 0.930 . S
C1518 C1514 1.524 . S
C1518 H1530 0.956 . S
C1518 H1531 0.961 . S
C1518 H1532 0.961 . S
C1519 C1516 1.539 . S
C1519 H1533 0.958 . S
C1519 H1534 0.961 . S
C1519 H1535 0.960 . S
H1520 C1504 0.931 . S
H1521 C1509 0.929 . S
H1522 C1510 0.960 . S
H1523 C1510 0.962 . S
H1524 C1510 0.960 . S
H1525 C1511 0.961 . S
H1526 C1511 0.961 . S
H1527 C1511 0.961 . S
H1528 C1512 0.931 . S
H1529 C1517 0.930 . S
H1530 C1518 0.956 . S
H1531 C1518 0.961 . S
H1532 C1518 0.961 . S
H1533 C1519 0.958 . S
H1534 C1519 0.961 . S
H1535 C1519 0.960 . S
C1536 C1537 1.391 . S
C1536 C1538 1.394 . S
C1536 H1552 0.931 . S
C1537 C1536 1.391 . S
C1537 C1541 1.376 . S
C1538 C1536 1.394 . S
C1538 C1539 1.369 . S
C1538 C1542 1.531 . S
C1539 C1538 1.369 . S
C1539 C1540 1.410 . S
C1539 C1547 1.503 . S
C1540 C1539 1.410 . S
C1540 C1541 1.392 . S
C1540 C1543 1.511 . S
C1541 C1537 1.376 . S
C1541 C1540 1.392 . S
C1541 H1553 0.929 . S
C1542 C1538 1.531 . S
C1542 H1554 0.960 . S
C1542 H1555 0.962 . S
C1542 H1556 0.960 . S
C1543 C1540 1.511 . S
C1543 H1557 0.961 . S
C1543 H1558 0.961 . S
C1543 H1559 0.961 . S
C1544 C1545 1.370 . S
C1544 C1546 1.363 . S
C1544 H1560 0.931 . S
C1545 C1544 1.370 . S
C1545 C1549 1.408 . S
C1546 C1544 1.363 . S
C1546 C1547 1.370 . S
C1546 C1550 1.524 . S
C1547 C1539 1.503 . S
C1547 C1546 1.370 . S
C1547 C1548 1.403 . S
C1548 C1547 1.403 . S
C1548 C1549 1.404 . S
C1548 C1551 1.539 . S
C1549 C1545 1.408 . S
C1549 C1548 1.404 . S
C1549 H1561 0.930 . S
C1550 C1546 1.524 . S
C1550 H1562 0.956 . S
C1550 H1563 0.961 . S
C1550 H1564 0.961 . S
C1551 C1548 1.539 . S
C1551 H1565 0.958 . S
C1551 H1566 0.961 . S
C1551 H1567 0.960 . S
H1552 C1536 0.931 . S
H1553 C1541 0.929 . S
H1554 C1542 0.960 . S
H1555 C1542 0.962 . S
H1556 C1542 0.960 . S
H1557 C1543 0.961 . S
H1558 C1543 0.961 . S
H1559 C1543 0.961 . S
H1560 C1544 0.931 . S
H1561 C1549 0.930 . S
H1562 C1550 0.956 . S
H1563 C1550 0.961 . S
H1564 C1550 0.961 . S
H1565 C1551 0.958 . S
H1566 C1551 0.961 . S
H1567 C1551 0.960 . S
C1568 C1569 1.391 . S
C1568 C1570 1.394 . S
C1568 H1584 0.931 . S
C1569 C1568 1.391 . S
C1569 C1573 1.376 . S
C1570 C1568 1.394 . S
C1570 C1571 1.369 . S
C1570 C1574 1.531 . S
C1571 C1570 1.369 . S
C1571 C1572 1.410 . S
C1571 C1579 1.503 . S
C1572 C1571 1.410 . S
C1572 C1573 1.392 . S
C1572 C1575 1.511 . S
C1573 C1569 1.376 . S
C1573 C1572 1.392 . S
C1573 H1585 0.929 . S
C1574 C1570 1.531 . S
C1574 H1586 0.960 . S
C1574 H1587 0.962 . S
C1574 H1588 0.960 . S
C1575 C1572 1.511 . S
C1575 H1589 0.961 . S
C1575 H1590 0.961 . S
C1575 H1591 0.961 . S
C1576 C1577 1.370 . S
C1576 C1578 1.363 . S
C1576 H1592 0.931 . S
C1577 C1576 1.370 . S
C1577 C1581 1.408 . S
C1578 C1576 1.363 . S
C1578 C1579 1.370 . S
C1578 C1582 1.524 . S
C1579 C1571 1.503 . S
C1579 C1578 1.370 . S
C1579 C1580 1.403 . S
C1580 C1579 1.403 . S
C1580 C1581 1.404 . S
C1580 C1583 1.539 . S
C1581 C1577 1.408 . S
C1581 C1580 1.404 . S
C1581 H1593 0.930 . S
C1582 C1578 1.524 . S
C1582 H1594 0.956 . S
C1582 H1595 0.961 . S
C1582 H1596 0.961 . S
C1583 C1580 1.539 . S
C1583 H1597 0.958 . S
C1583 H1598 0.961 . S
C1583 H1599 0.960 . S
H1584 C1568 0.931 . S
H1585 C1573 0.929 . S
H1586 C1574 0.960 . S
H1587 C1574 0.962 . S
H1588 C1574 0.960 . S
H1589 C1575 0.961 . S
H1590 C1575 0.961 . S
H1591 C1575 0.961 . S
H1592 C1576 0.931 . S
H1593 C1581 0.930 . S
H1594 C1582 0.956 . S
H1595 C1582 0.961 . S
H1596 C1582 0.961 . S
H1597 C1583 0.958 . S
H1598 C1583 0.961 . S
H1599 C1583 0.960 . S
C1600 C1601 1.391 . S
C1600 C1602 1.394 . S
C1600 H1616 0.931 . S
C1601 C1600 1.391 . S
C1601 C1605 1.376 . S
C1602 C1600 1.394 . S
C1602 C1603 1.369 . S
C1602 C1606 1.531 . S
C1603 C1602 1.369 . S
C1603 C1604 1.410 . S
C1603 C1611 1.503 . S
C1604 C1603 1.410 . S
C1604 C1605 1.392 . S
C1604 C1607 1.511 . S
C1605 C1601 1.376 . S
C1605 C1604 1.392 . S
C1605 H1617 0.929 . S
C1606 C1602 1.531 . S
C1606 H1618 0.960 . S
C1606 H1619 0.962 . S
C1606 H1620 0.960 . S
C1607 C1604 1.511 . S
C1607 H1621 0.961 . S
C1607 H1622 0.961 . S
C1607 H1623 0.961 . S
C1608 C1609 1.370 . S
C1608 C1610 1.363 . S
C1608 H1624 0.931 . S
C1609 C1608 1.370 . S
C1609 C1613 1.408 . S
C1610 C1608 1.363 . S
C1610 C1611 1.370 . S
C1610 C1614 1.524 . S
C1611 C1603 1.503 . S
C1611 C1610 1.370 . S
C1611 C1612 1.403 . S
C1612 C1611 1.403 . S
C1612 C1613 1.404 . S
C1612 C1615 1.539 . S
C1613 C1609 1.408 . S
C1613 C1612 1.404 . S
C1613 H1625 0.930 . S
C1614 C1610 1.524 . S
C1614 H1626 0.956 . S
C1614 H1627 0.961 . S
C1614 H1628 0.961 . S
C1615 C1612 1.539 . S
C1615 H1629 0.958 . S
C1615 H1630 0.961 . S
C1615 H1631 0.960 . S
H1616 C1600 0.931 . S
H1617 C1605 0.929 . S
H1618 C1606 0.960 . S
H1619 C1606 0.962 . S
H1620 C1606 0.960 . S
H1621 C1607 0.961 . S
H1622 C1607 0.961 . S
H1623 C1607 0.961 . S
H1624 C1608 0.931 . S
H1625 C1613 0.930 . S
H1626 C1614 0.956 . S
H1627 C1614 0.961 . S
H1628 C1614 0.961 . S
H1629 C1615 0.958 . S
H1630 C1615 0.961 . S
H1631 C1615 0.960 . S
C1632 C1633 1.391 . S
C1632 C1634 1.394 . S
C1632 H1648 0.931 . S
C1633 C1632 1.391 . S
C1633 C1637 1.376 . S
C1634 C1632 1.394 . S
C1634 C1635 1.369 . S
C1634 C1638 1.531 . S
C1635 C1634 1.369 . S
C1635 C1636 1.410 . S
C1635 C1643 1.503 . S
C1636 C1635 1.410 . S
C1636 C1637 1.392 . S
C1636 C1639 1.511 . S
C1637 C1633 1.376 . S
C1637 C1636 1.392 . S
C1637 H1649 0.929 . S
C1638 C1634 1.531 . S
C1638 H1650 0.960 . S
C1638 H1651 0.962 . S
C1638 H1652 0.960 . S
C1639 C1636 1.511 . S
C1639 H1653 0.961 . S
C1639 H1654 0.961 . S
C1639 H1655 0.961 . S
C1640 C1641 1.370 . S
C1640 C1642 1.363 . S
C1640 H1656 0.931 . S
C1641 C1640 1.370 . S
C1641 C1645 1.408 . S
C1642 C1640 1.363 . S
C1642 C1643 1.370 . S
C1642 C1646 1.524 . S
C1643 C1635 1.503 . S
C1643 C1642 1.370 . S
C1643 C1644 1.403 . S
C1644 C1643 1.403 . S
C1644 C1645 1.404 . S
C1644 C1647 1.539 . S
C1645 C1641 1.408 . S
C1645 C1644 1.404 . S
C1645 H1657 0.930 . S
C1646 C1642 1.524 . S
C1646 H1658 0.956 . S
C1646 H1659 0.961 . S
C1646 H1660 0.961 . S
C1647 C1644 1.539 . S
C1647 H1661 0.958 . S
C1647 H1662 0.961 . S
C1647 H1663 0.960 . S
H1648 C1632 0.931 . S
H1649 C1637 0.929 . S
H1650 C1638 0.960 . S
H1651 C1638 0.962 . S
H1652 C1638 0.960 . S
H1653 C1639 0.961 . S
H1654 C1639 0.961 . S
H1655 C1639 0.961 . S
H1656 C1640 0.931 . S
H1657 C1645 0.930 . S
H1658 C1646 0.956 . S
H1659 C1646 0.961 . S
H1660 C1646 0.961 . S
H1661 C1647 0.958 . S
H1662 C1647 0.961 . S
H1663 C1647 0.960 . S
C1664 C1665 1.391 . S
C1664 C1666 1.394 . S
C1664 H1680 0.931 . S
C1665 C1664 1.391 . S
C1665 C1669 1.376 . S
C1666 C1664 1.394 . S
C1666 C1667 1.369 . S
C1666 C1670 1.531 . S
C1667 C1666 1.369 . S
C1667 C1668 1.410 . S
C1667 C1675 1.503 . S
C1668 C1667 1.410 . S
C1668 C1669 1.392 . S
C1668 C1671 1.511 . S
C1669 C1665 1.376 . S
C1669 C1668 1.392 . S
C1669 H1681 0.929 . S
C1670 C1666 1.531 . S
C1670 H1682 0.960 . S
C1670 H1683 0.962 . S
C1670 H1684 0.960 . S
C1671 C1668 1.511 . S
C1671 H1685 0.961 . S
C1671 H1686 0.961 . S
C1671 H1687 0.961 . S
C1672 C1673 1.370 . S
C1672 C1674 1.363 . S
C1672 H1688 0.931 . S
C1673 C1672 1.370 . S
C1673 C1677 1.408 . S
C1674 C1672 1.363 . S
C1674 C1675 1.370 . S
C1674 C1678 1.524 . S
C1675 C1667 1.503 . S
C1675 C1674 1.370 . S
C1675 C1676 1.403 . S
C1676 C1675 1.403 . S
C1676 C1677 1.404 . S
C1676 C1679 1.539 . S
C1677 C1673 1.408 . S
C1677 C1676 1.404 . S
C1677 H1689 0.930 . S
C1678 C1674 1.524 . S
C1678 H1690 0.956 . S
C1678 H1691 0.961 . S
C1678 H1692 0.961 . S
C1679 C1676 1.539 . S
C1679 H1693 0.958 . S
C1679 H1694 0.961 . S
C1679 H1695 0.960 . S
H1680 C1664 0.931 . S
H1681 C1669 0.929 . S
H1682 C1670 0.960 . S
H1683 C1670 0.962 . S
H1684 C1670 0.960 . S
H1685 C1671 0.961 . S
H1686 C1671 0.961 . S
H1687 C1671 0.961 . S
H1688 C1672 0.931 . S
H1689 C1677 0.930 . S
H1690 C1678 0.956 . S
H1691 C1678 0.961 . S
H1692 C1678 0.961 . S
H1693 C1679 0.958 . S
H1694 C1679 0.961 . S
H1695 C1679 0.960 . S
C1696 C1697 1.391 . S
C1696 C1698 1.394 . S
C1696 H1712 0.931 . S
C1697 C1696 1.391 . S
C1697 C1701 1.376 . S
C1698 C1696 1.394 . S
C1698 C1699 1.369 . S
C1698 C1702 1.531 . S
C1699 C1698 1.369 . S
C1699 C1700 1.410 . S
C1699 C1707 1.503 . S
C1700 C1699 1.410 . S
C1700 C1701 1.392 . S
C1700 C1703 1.511 . S
C1701 C1697 1.376 . S
C1701 C1700 1.392 . S
C1701 H1713 0.929 . S
C1702 C1698 1.531 . S
C1702 H1714 0.960 . S
C1702 H1715 0.962 . S
C1702 H1716 0.960 . S
C1703 C1700 1.511 . S
C1703 H1717 0.961 . S
C1703 H1718 0.961 . S
C1703 H1719 0.961 . S
C1704 C1705 1.370 . S
C1704 C1706 1.363 . S
C1704 H1720 0.931 . S
C1705 C1704 1.370 . S
C1705 C1709 1.408 . S
C1706 C1704 1.363 . S
C1706 C1707 1.370 . S
C1706 C1710 1.524 . S
C1707 C1699 1.503 . S
C1707 C1706 1.370 . S
C1707 C1708 1.403 . S
C1708 C1707 1.403 . S
C1708 C1709 1.404 . S
C1708 C1711 1.539 . S
C1709 C1705 1.408 . S
C1709 C1708 1.404 . S
C1709 H1721 0.930 1_455 S
C1710 C1706 1.524 . S
C1710 H1722 0.956 . S
C1710 H1723 0.961 . S
C1710 H1724 0.961 . S
C1711 C1708 1.539 . S
C1711 H1725 0.958 . S
C1711 H1726 0.961 . S
C1711 H1727 0.960 . S
H1712 C1696 0.931 . S
H1713 C1701 0.929 . S
H1714 C1702 0.960 . S
H1715 C1702 0.962 . S
H1716 C1702 0.960 . S
H1717 C1703 0.961 . S
H1718 C1703 0.961 . S
H1719 C1703 0.961 . S
H1720 C1704 0.931 . S
H1721 C1709 0.930 1_655 S
H1722 C1710 0.956 . S
H1723 C1710 0.961 . S
H1724 C1710 0.961 . S
H1725 C1711 0.958 . S
H1726 C1711 0.961 . S
H1727 C1711 0.960 . S
C1728 C1729 1.391 . S
C1728 C1730 1.394 . S
C1728 H1744 0.931 . S
C1729 C1728 1.391 . S
C1729 C1733 1.376 . S
C1730 C1728 1.394 . S
C1730 C1731 1.369 . S
C1730 C1734 1.531 . S
C1731 C1730 1.369 . S
C1731 C1732 1.410 . S
C1731 C1739 1.503 . S
C1732 C1731 1.410 . S
C1732 C1733 1.392 . S
C1732 C1735 1.511 . S
C1733 C1729 1.376 . S
C1733 C1732 1.392 . S
C1733 H1745 0.929 . S
C1734 C1730 1.531 . S
C1734 H1746 0.960 . S
C1734 H1747 0.962 . S
C1734 H1748 0.960 . S
C1735 C1732 1.511 . S
C1735 H1749 0.961 . S
C1735 H1750 0.961 . S
C1735 H1751 0.961 . S
C1736 C1737 1.370 . S
C1736 C1738 1.363 . S
C1736 H1752 0.931 . S
C1737 C1736 1.370 . S
C1737 C1741 1.408 . S
C1738 C1736 1.363 . S
C1738 C1739 1.370 . S
C1738 C1742 1.524 . S
C1739 C1731 1.503 . S
C1739 C1738 1.370 . S
C1739 C1740 1.403 . S
C1740 C1739 1.403 . S
C1740 C1741 1.404 . S
C1740 C1743 1.539 . S
C1741 C1737 1.408 . S
C1741 C1740 1.404 . S
C1741 H1753 0.930 . S
C1742 C1738 1.524 . S
C1742 H1754 0.956 . S
C1742 H1755 0.961 . S
C1742 H1756 0.961 . S
C1743 C1740 1.539 . S
C1743 H1757 0.958 . S
C1743 H1758 0.961 . S
C1743 H1759 0.960 . S
H1744 C1728 0.931 . S
H1745 C1733 0.929 . S
H1746 C1734 0.960 . S
H1747 C1734 0.962 . S
H1748 C1734 0.960 . S
H1749 C1735 0.961 . S
H1750 C1735 0.961 . S
H1751 C1735 0.961 . S
H1752 C1736 0.931 . S
H1753 C1741 0.930 . S
H1754 C1742 0.956 . S
H1755 C1742 0.961 . S
H1756 C1742 0.961 . S
H1757 C1743 0.958 . S
H1758 C1743 0.961 . S
H1759 C1743 0.960 . S
C1760 C1761 1.391 . S
C1760 C1762 1.394 . S
C1760 H1776 0.931 . S
C1761 C1760 1.391 . S
C1761 C1765 1.376 . S
C1762 C1760 1.394 . S
C1762 C1763 1.369 . S
C1762 C1766 1.531 . S
C1763 C1762 1.369 . S
C1763 C1764 1.410 . S
C1763 C1771 1.503 . S
C1764 C1763 1.410 . S
C1764 C1765 1.392 . S
C1764 C1767 1.511 . S
C1765 C1761 1.376 . S
C1765 C1764 1.392 . S
C1765 H1777 0.929 1_655 S
C1766 C1762 1.531 . S
C1766 H1778 0.960 . S
C1766 H1779 0.962 . S
C1766 H1780 0.960 . S
C1767 C1764 1.511 . S
C1767 H1781 0.961 . S
C1767 H1782 0.961 . S
C1767 H1783 0.961 . S
C1768 C1769 1.370 . S
C1768 C1770 1.363 . S
C1768 H1784 0.931 . S
C1769 C1768 1.370 . S
C1769 C1773 1.408 . S
C1770 C1768 1.363 . S
C1770 C1771 1.370 . S
C1770 C1774 1.524 . S
C1771 C1763 1.503 . S
C1771 C1770 1.370 . S
C1771 C1772 1.403 . S
C1772 C1771 1.403 . S
C1772 C1773 1.404 . S
C1772 C1775 1.539 . S
C1773 C1769 1.408 . S
C1773 C1772 1.404 . S
C1773 H1785 0.930 . S
C1774 C1770 1.524 . S
C1774 H1786 0.956 . S
C1774 H1787 0.961 . S
C1774 H1788 0.961 . S
C1775 C1772 1.539 . S
C1775 H1789 0.958 . S
C1775 H1790 0.961 . S
C1775 H1791 0.960 . S
H1776 C1760 0.931 . S
H1777 C1765 0.929 1_455 S
H1778 C1766 0.960 . S
H1779 C1766 0.962 . S
H1780 C1766 0.960 . S
H1781 C1767 0.961 . S
H1782 C1767 0.961 . S
H1783 C1767 0.961 . S
H1784 C1768 0.931 . S
H1785 C1773 0.930 . S
H1786 C1774 0.956 . S
H1787 C1774 0.961 . S
H1788 C1774 0.961 . S
H1789 C1775 0.958 . S
H1790 C1775 0.961 . S
H1791 C1775 0.960 . S
C1792 C1793 1.391 . S
C1792 C1794 1.394 . S
C1792 H1808 0.931 . S
C1793 C1792 1.391 . S
C1793 C1797 1.376 . S
C1794 C1792 1.394 . S
C1794 C1795 1.369 . S
C1794 C1798 1.531 . S
C1795 C1794 1.369 . S
C1795 C1796 1.410 . S
C1795 C1803 1.503 . S
C1796 C1795 1.410 . S
C1796 C1797 1.392 . S
C1796 C1799 1.511 . S
C1797 C1793 1.376 . S
C1797 C1796 1.392 . S
C1797 H1809 0.929 . S
C1798 C1794 1.531 . S
C1798 H1810 0.960 . S
C1798 H1811 0.962 . S
C1798 H1812 0.960 . S
C1799 C1796 1.511 . S
C1799 H1813 0.961 . S
C1799 H1814 0.961 . S
C1799 H1815 0.961 . S
C1800 C1801 1.370 . S
C1800 C1802 1.363 . S
C1800 H1816 0.931 . S
C1801 C1800 1.370 . S
C1801 C1805 1.408 . S
C1802 C1800 1.363 . S
C1802 C1803 1.370 . S
C1802 C1806 1.524 . S
C1803 C1795 1.503 . S
C1803 C1802 1.370 . S
C1803 C1804 1.403 . S
C1804 C1803 1.403 . S
C1804 C1805 1.404 . S
C1804 C1807 1.539 . S
C1805 C1801 1.408 . S
C1805 C1804 1.404 . S
C1805 H1817 0.930 . S
C1806 C1802 1.524 . S
C1806 H1818 0.956 . S
C1806 H1819 0.961 . S
C1806 H1820 0.961 . S
C1807 C1804 1.539 . S
C1807 H1821 0.958 . S
C1807 H1822 0.961 . S
C1807 H1823 0.960 . S
H1808 C1792 0.931 . S
H1809 C1797 0.929 . S
H1810 C1798 0.960 . S
H1811 C1798 0.962 . S
H1812 C1798 0.960 . S
H1813 C1799 0.961 . S
H1814 C1799 0.961 . S
H1815 C1799 0.961 . S
H1816 C1800 0.931 . S
H1817 C1805 0.930 . S
H1818 C1806 0.956 . S
H1819 C1806 0.961 . S
H1820 C1806 0.961 . S
H1821 C1807 0.958 . S
H1822 C1807 0.961 . S
H1823 C1807 0.960 . S
C1824 C1825 1.391 . S
C1824 C1826 1.394 . S
C1824 H1840 0.931 . S
C1825 C1824 1.391 . S
C1825 C1829 1.376 . S
C1826 C1824 1.394 . S
C1826 C1827 1.369 . S
C1826 C1830 1.531 . S
C1827 C1826 1.369 . S
C1827 C1828 1.410 . S
C1827 C1835 1.503 . S
C1828 C1827 1.410 . S
C1828 C1829 1.392 . S
C1828 C1831 1.511 . S
C1829 C1825 1.376 . S
C1829 C1828 1.392 . S
C1829 H1841 0.929 . S
C1830 C1826 1.531 . S
C1830 H1842 0.960 . S
C1830 H1843 0.962 . S
C1830 H1844 0.960 . S
C1831 C1828 1.511 . S
C1831 H1845 0.961 . S
C1831 H1846 0.961 . S
C1831 H1847 0.961 . S
C1832 C1833 1.370 . S
C1832 C1834 1.363 . S
C1832 H1848 0.931 . S
C1833 C1832 1.370 . S
C1833 C1837 1.408 . S
C1834 C1832 1.363 . S
C1834 C1835 1.370 . S
C1834 C1838 1.524 . S
C1835 C1827 1.503 . S
C1835 C1834 1.370 . S
C1835 C1836 1.403 . S
C1836 C1835 1.403 . S
C1836 C1837 1.404 . S
C1836 C1839 1.539 . S
C1837 C1833 1.408 . S
C1837 C1836 1.404 . S
C1837 H1849 0.930 . S
C1838 C1834 1.524 . S
C1838 H1850 0.956 . S
C1838 H1851 0.961 . S
C1838 H1852 0.961 . S
C1839 C1836 1.539 . S
C1839 H1853 0.958 . S
C1839 H1854 0.961 . S
C1839 H1855 0.960 . S
H1840 C1824 0.931 . S
H1841 C1829 0.929 . S
H1842 C1830 0.960 . S
H1843 C1830 0.962 . S
H1844 C1830 0.960 . S
H1845 C1831 0.961 . S
H1846 C1831 0.961 . S
H1847 C1831 0.961 . S
H1848 C1832 0.931 . S
H1849 C1837 0.930 . S
H1850 C1838 0.956 . S
H1851 C1838 0.961 . S
H1852 C1838 0.961 . S
H1853 C1839 0.958 . S
H1854 C1839 0.961 . S
H1855 C1839 0.960 . S
C1856 C1857 1.391 . S
C1856 C1858 1.394 . S
C1856 H1872 0.931 . S
C1857 C1856 1.391 . S
C1857 C1861 1.376 . S
C1858 C1856 1.394 . S
C1858 C1859 1.369 . S
C1858 C1862 1.531 . S
C1859 C1858 1.369 . S
C1859 C1860 1.410 . S
C1859 C1867 1.503 . S
C1860 C1859 1.410 . S
C1860 C1861 1.392 . S
C1860 C1863 1.511 . S
C1861 C1857 1.376 . S
C1861 C1860 1.392 . S
C1861 H1873 0.929 . S
C1862 C1858 1.531 . S
C1862 H1874 0.960 . S
C1862 H1875 0.962 . S
C1862 H1876 0.960 . S
C1863 C1860 1.511 . S
C1863 H1877 0.961 . S
C1863 H1878 0.961 . S
C1863 H1879 0.961 . S
C1864 C1865 1.370 . S
C1864 C1866 1.363 . S
C1864 H1880 0.931 . S
C1865 C1864 1.370 . S
C1865 C1869 1.408 . S
C1866 C1864 1.363 . S
C1866 C1867 1.370 . S
C1866 C1870 1.524 . S
C1867 C1859 1.503 . S
C1867 C1866 1.370 . S
C1867 C1868 1.403 . S
C1868 C1867 1.403 . S
C1868 C1869 1.404 . S
C1868 C1871 1.539 . S
C1869 C1865 1.408 . S
C1869 C1868 1.404 . S
C1869 H1881 0.930 . S
C1870 C1866 1.524 . S
C1870 H1882 0.956 . S
C1870 H1883 0.961 . S
C1870 H1884 0.961 . S
C1871 C1868 1.539 . S
C1871 H1885 0.958 . S
C1871 H1886 0.961 . S
C1871 H1887 0.960 . S
H1872 C1856 0.931 . S
H1873 C1861 0.929 . S
H1874 C1862 0.960 . S
H1875 C1862 0.962 . S
H1876 C1862 0.960 . S
H1877 C1863 0.961 . S
H1878 C1863 0.961 . S
H1879 C1863 0.961 . S
H1880 C1864 0.931 . S
H1881 C1869 0.930 . S
H1882 C1870 0.956 . S
H1883 C1870 0.961 . S
H1884 C1870 0.961 . S
H1885 C1871 0.958 . S
H1886 C1871 0.961 . S
H1887 C1871 0.960 . S
C1888 C1889 1.391 . S
C1888 C1890 1.394 . S
C1888 H1904 0.931 . S
C1889 C1888 1.391 . S
C1889 C1893 1.376 . S
C1890 C1888 1.394 . S
C1890 C1891 1.369 . S
C1890 C1894 1.531 . S
C1891 C1890 1.369 . S
C1891 C1892 1.410 . S
C1891 C1899 1.503 . S
C1892 C1891 1.410 . S
C1892 C1893 1.392 . S
C1892 C1895 1.511 . S
C1893 C1889 1.376 . S
C1893 C1892 1.392 . S
C1893 H1905 0.929 . S
C1894 C1890 1.531 . S
C1894 H1906 0.960 . S
C1894 H1907 0.962 . S
C1894 H1908 0.960 . S
C1895 C1892 1.511 . S
C1895 H1909 0.961 . S
C1895 H1910 0.961 . S
C1895 H1911 0.961 . S
C1896 C1897 1.370 . S
C1896 C1898 1.363 . S
C1896 H1912 0.931 . S
C1897 C1896 1.370 . S
C1897 C1901 1.408 . S
C1898 C1896 1.363 . S
C1898 C1899 1.370 . S
C1898 C1902 1.524 . S
C1899 C1891 1.503 . S
C1899 C1898 1.370 . S
C1899 C1900 1.403 . S
C1900 C1899 1.403 . S
C1900 C1901 1.404 . S
C1900 C1903 1.539 . S
C1901 C1897 1.408 . S
C1901 C1900 1.404 . S
C1901 H1913 0.930 . S
C1902 C1898 1.524 . S
C1902 H1914 0.956 . S
C1902 H1915 0.961 . S
C1902 H1916 0.961 . S
C1903 C1900 1.539 . S
C1903 H1917 0.958 . S
C1903 H1918 0.961 . S
C1903 H1919 0.960 . S
H1904 C1888 0.931 . S
H1905 C1893 0.929 . S
H1906 C1894 0.960 . S
H1907 C1894 0.962 . S
H1908 C1894 0.960 . S
H1909 C1895 0.961 . S
H1910 C1895 0.961 . S
H1911 C1895 0.961 . S
H1912 C1896 0.931 . S
H1913 C1901 0.930 . S
H1914 C1902 0.956 . S
H1915 C1902 0.961 . S
H1916 C1902 0.961 . S
H1917 C1903 0.958 . S
H1918 C1903 0.961 . S
H1919 C1903 0.960 . S
C1920 C1921 1.391 . S
C1920 C1922 1.394 . S
C1920 H1936 0.931 . S
C1921 C1920 1.391 . S
C1921 C1925 1.376 . S
C1922 C1920 1.394 . S
C1922 C1923 1.369 . S
C1922 C1926 1.531 . S
C1923 C1922 1.369 . S
C1923 C1924 1.410 . S
C1923 C1931 1.503 . S
C1924 C1923 1.410 . S
C1924 C1925 1.392 . S
C1924 C1927 1.511 . S
C1925 C1921 1.376 . S
C1925 C1924 1.392 . S
C1925 H1937 0.929 . S
C1926 C1922 1.531 . S
C1926 H1938 0.960 . S
C1926 H1939 0.962 . S
C1926 H1940 0.960 . S
C1927 C1924 1.511 . S
C1927 H1941 0.961 . S
C1927 H1942 0.961 . S
C1927 H1943 0.961 . S
C1928 C1929 1.370 . S
C1928 C1930 1.363 . S
C1928 H1944 0.931 . S
C1929 C1928 1.370 . S
C1929 C1933 1.408 . S
C1930 C1928 1.363 . S
C1930 C1931 1.370 . S
C1930 C1934 1.524 . S
C1931 C1923 1.503 . S
C1931 C1930 1.370 . S
C1931 C1932 1.403 . S
C1932 C1931 1.403 . S
C1932 C1933 1.404 . S
C1932 C1935 1.539 . S
C1933 C1929 1.408 . S
C1933 C1932 1.404 . S
C1933 H1945 0.930 . S
C1934 C1930 1.524 . S
C1934 H1946 0.956 . S
C1934 H1947 0.961 . S
C1934 H1948 0.961 . S
C1935 C1932 1.539 . S
C1935 H1949 0.958 . S
C1935 H1950 0.961 . S
C1935 H1951 0.960 . S
H1936 C1920 0.931 . S
H1937 C1925 0.929 . S
H1938 C1926 0.960 . S
H1939 C1926 0.962 . S
H1940 C1926 0.960 . S
H1941 C1927 0.961 . S
H1942 C1927 0.961 . S
H1943 C1927 0.961 . S
H1944 C1928 0.931 . S
H1945 C1933 0.930 . S
H1946 C1934 0.956 . S
H1947 C1934 0.961 . S
H1948 C1934 0.961 . S
H1949 C1935 0.958 . S
H1950 C1935 0.961 . S
H1951 C1935 0.960 . S
C1952 C1953 1.391 . S
C1952 C1954 1.394 . S
C1952 H1968 0.931 . S
C1953 C1952 1.391 . S
C1953 C1957 1.376 . S
C1954 C1952 1.394 . S
C1954 C1955 1.369 . S
C1954 C1958 1.531 . S
C1955 C1954 1.369 . S
C1955 C1956 1.410 . S
C1955 C1963 1.503 . S
C1956 C1955 1.410 . S
C1956 C1957 1.392 . S
C1956 C1959 1.511 . S
C1957 C1953 1.376 . S
C1957 C1956 1.392 . S
C1957 H1969 0.929 1_655 S
C1958 C1954 1.531 . S
C1958 H1970 0.960 . S
C1958 H1971 0.962 . S
C1958 H1972 0.960 . S
C1959 C1956 1.511 . S
C1959 H1973 0.961 . S
C1959 H1974 0.961 . S
C1959 H1975 0.961 . S
C1960 C1961 1.370 . S
C1960 C1962 1.363 . S
C1960 H1976 0.931 . S
C1961 C1960 1.370 . S
C1961 C1965 1.408 . S
C1962 C1960 1.363 . S
C1962 C1963 1.370 . S
C1962 C1966 1.524 . S
C1963 C1955 1.503 . S
C1963 C1962 1.370 . S
C1963 C1964 1.403 . S
C1964 C1963 1.403 . S
C1964 C1965 1.404 . S
C1964 C1967 1.539 . S
C1965 C1961 1.408 . S
C1965 C1964 1.404 . S
C1965 H1977 0.930 . S
C1966 C1962 1.524 . S
C1966 H1978 0.956 . S
C1966 H1979 0.961 . S
C1966 H1980 0.961 . S
C1967 C1964 1.539 . S
C1967 H1981 0.958 . S
C1967 H1982 0.961 . S
C1967 H1983 0.960 . S
H1968 C1952 0.931 . S
H1969 C1957 0.929 1_455 S
H1970 C1958 0.960 . S
H1971 C1958 0.962 . S
H1972 C1958 0.960 . S
H1973 C1959 0.961 . S
H1974 C1959 0.961 . S
H1975 C1959 0.961 . S
H1976 C1960 0.931 . S
H1977 C1965 0.930 . S
H1978 C1966 0.956 . S
H1979 C1966 0.961 . S
H1980 C1966 0.961 . S
H1981 C1967 0.958 . S
H1982 C1967 0.961 . S
H1983 C1967 0.960 . S
C1984 C1985 1.391 . S
C1984 C1986 1.394 . S
C1984 H2000 0.931 . S
C1985 C1984 1.391 . S
C1985 C1989 1.376 . S
C1986 C1984 1.394 . S
C1986 C1987 1.369 . S
C1986 C1990 1.531 . S
C1987 C1986 1.369 . S
C1987 C1988 1.410 . S
C1987 C1995 1.503 . S
C1988 C1987 1.410 . S
C1988 C1989 1.392 . S
C1988 C1991 1.511 . S
C1989 C1985 1.376 . S
C1989 C1988 1.392 . S
C1989 H2001 0.929 . S
C1990 C1986 1.531 . S
C1990 H2002 0.960 . S
C1990 H2003 0.962 . S
C1990 H2004 0.960 . S
C1991 C1988 1.511 . S
C1991 H2005 0.961 . S
C1991 H2006 0.961 . S
C1991 H2007 0.961 . S
C1992 C1993 1.370 . S
C1992 C1994 1.363 . S
C1992 H2008 0.931 . S
C1993 C1992 1.370 . S
C1993 C1997 1.408 . S
C1994 C1992 1.363 . S
C1994 C1995 1.370 . S
C1994 C1998 1.524 . S
C1995 C1987 1.503 . S
C1995 C1994 1.370 . S
C1995 C1996 1.403 . S
C1996 C1995 1.403 . S
C1996 C1997 1.404 . S
C1996 C1999 1.539 . S
C1997 C1993 1.408 . S
C1997 C1996 1.404 . S
C1997 H2009 0.930 . S
C1998 C1994 1.524 . S
C1998 H2010 0.956 . S
C1998 H2011 0.961 . S
C1998 H2012 0.961 . S
C1999 C1996 1.539 . S
C1999 H2013 0.958 . S
C1999 H2014 0.961 . S
C1999 H2015 0.960 . S
H2000 C1984 0.931 . S
H2001 C1989 0.929 . S
H2002 C1990 0.960 . S
H2003 C1990 0.962 . S
H2004 C1990 0.960 . S
H2005 C1991 0.961 . S
H2006 C1991 0.961 . S
H2007 C1991 0.961 . S
H2008 C1992 0.931 . S
H2009 C1997 0.930 . S
H2010 C1998 0.956 . S
H2011 C1998 0.961 . S
H2012 C1998 0.961 . S
H2013 C1999 0.958 . S
H2014 C1999 0.961 . S
H2015 C1999 0.960 . S
C2016 C2017 1.391 . S
C2016 C2018 1.394 . S
C2016 H2032 0.931 . S
C2017 C2016 1.391 . S
C2017 C2021 1.376 . S
C2018 C2016 1.394 . S
C2018 C2019 1.369 . S
C2018 C2022 1.531 . S
C2019 C2018 1.369 . S
C2019 C2020 1.410 . S
C2019 C2027 1.503 . S
C2020 C2019 1.410 . S
C2020 C2021 1.392 . S
C2020 C2023 1.511 . S
C2021 C2017 1.376 . S
C2021 C2020 1.392 . S
C2021 H2033 0.929 . S
C2022 C2018 1.531 . S
C2022 H2034 0.960 . S
C2022 H2035 0.962 . S
C2022 H2036 0.960 . S
C2023 C2020 1.511 . S
C2023 H2037 0.961 . S
C2023 H2038 0.961 . S
C2023 H2039 0.961 . S
C2024 C2025 1.370 . S
C2024 C2026 1.363 . S
C2024 H2040 0.931 . S
C2025 C2024 1.370 . S
C2025 C2029 1.408 . S
C2026 C2024 1.363 . S
C2026 C2027 1.370 . S
C2026 C2030 1.524 . S
C2027 C2019 1.503 . S
C2027 C2026 1.370 . S
C2027 C2028 1.403 . S
C2028 C2027 1.403 . S
C2028 C2029 1.404 . S
C2028 C2031 1.539 . S
C2029 C2025 1.408 . S
C2029 C2028 1.404 . S
C2029 H2041 0.930 . S
C2030 C2026 1.524 . S
C2030 H2042 0.956 . S
C2030 H2043 0.961 . S
C2030 H2044 0.961 . S
C2031 C2028 1.539 . S
C2031 H2045 0.958 . S
C2031 H2046 0.961 . S
C2031 H2047 0.960 . S
H2032 C2016 0.931 . S
H2033 C2021 0.929 . S
H2034 C2022 0.960 . S
H2035 C2022 0.962 . S
H2036 C2022 0.960 . S
H2037 C2023 0.961 . S
H2038 C2023 0.961 . S
H2039 C2023 0.961 . S
H2040 C2024 0.931 . S
H2041 C2029 0.930 . S
H2042 C2030 0.956 . S
H2043 C2030 0.961 . S
H2044 C2030 0.961 . S
H2045 C2031 0.958 . S
H2046 C2031 0.961 . S
H2047 C2031 0.960 . S
C2048 C2049 1.391 . S
C2048 C2050 1.394 . S
C2048 H2064 0.931 . S
C2049 C2048 1.391 . S
C2049 C2053 1.376 . S
C2050 C2048 1.394 . S
C2050 C2051 1.369 . S
C2050 C2054 1.531 . S
C2051 C2050 1.369 . S
C2051 C2052 1.410 . S
C2051 C2059 1.503 . S
C2052 C2051 1.410 . S
C2052 C2053 1.392 . S
C2052 C2055 1.511 . S
C2053 C2049 1.376 . S
C2053 C2052 1.392 . S
C2053 H2065 0.929 . S
C2054 C2050 1.531 . S
C2054 H2066 0.960 . S
C2054 H2067 0.962 . S
C2054 H2068 0.960 . S
C2055 C2052 1.511 . S
C2055 H2069 0.961 . S
C2055 H2070 0.961 . S
C2055 H2071 0.961 . S
C2056 C2057 1.370 . S
C2056 C2058 1.363 . S
C2056 H2072 0.931 . S
C2057 C2056 1.370 . S
C2057 C2061 1.408 . S
C2058 C2056 1.363 . S
C2058 C2059 1.370 . S
C2058 C2062 1.524 . S
C2059 C2051 1.503 . S
C2059 C2058 1.370 . S
C2059 C2060 1.403 . S
C2060 C2059 1.403 . S
C2060 C2061 1.404 . S
C2060 C2063 1.539 . S
C2061 C2057 1.408 . S
C2061 C2060 1.404 . S
C2061 H2073 0.930 . S
C2062 C2058 1.524 . S
C2062 H2074 0.956 . S
C2062 H2075 0.961 . S
C2062 H2076 0.961 . S
C2063 C2060 1.539 . S
C2063 H2077 0.958 . S
C2063 H2078 0.961 . S
C2063 H2079 0.960 . S
H2064 C2048 0.931 . S
H2065 C2053 0.929 . S
H2066 C2054 0.960 . S
H2067 C2054 0.962 . S
H2068 C2054 0.960 . S
H2069 C2055 0.961 . S
H2070 C2055 0.961 . S
H2071 C2055 0.961 . S
H2072 C2056 0.931 . S
H2073 C2061 0.930 . S
H2074 C2062 0.956 . S
H2075 C2062 0.961 . S
H2076 C2062 0.961 . S
H2077 C2063 0.958 . S
H2078 C2063 0.961 . S
H2079 C2063 0.960 . S
C2080 C2081 1.391 . S
C2080 C2082 1.394 . S
C2080 H2096 0.931 . S
C2081 C2080 1.391 . S
C2081 C2085 1.376 . S
C2082 C2080 1.394 . S
C2082 C2083 1.369 . S
C2082 C2086 1.531 . S
C2083 C2082 1.369 . S
C2083 C2084 1.410 . S
C2083 C2091 1.503 . S
C2084 C2083 1.410 . S
C2084 C2085 1.392 . S
C2084 C2087 1.511 . S
C2085 C2081 1.376 . S
C2085 C2084 1.392 . S
C2085 H2097 0.929 . S
C2086 C2082 1.531 . S
C2086 H2098 0.960 . S
C2086 H2099 0.962 . S
C2086 H2100 0.960 . S
C2087 C2084 1.511 . S
C2087 H2101 0.961 . S
C2087 H2102 0.961 . S
C2087 H2103 0.961 . S
C2088 C2089 1.370 . S
C2088 C2090 1.363 . S
C2088 H2104 0.931 . S
C2089 C2088 1.370 . S
C2089 C2093 1.408 . S
C2090 C2088 1.363 . S
C2090 C2091 1.370 . S
C2090 C2094 1.524 . S
C2091 C2083 1.503 . S
C2091 C2090 1.370 . S
C2091 C2092 1.403 . S
C2092 C2091 1.403 . S
C2092 C2093 1.404 . S
C2092 C2095 1.539 . S
C2093 C2089 1.408 . S
C2093 C2092 1.404 . S
C2093 H2105 0.930 . S
C2094 C2090 1.524 . S
C2094 H2106 0.956 . S
C2094 H2107 0.961 . S
C2094 H2108 0.961 . S
C2095 C2092 1.539 . S
C2095 H2109 0.958 . S
C2095 H2110 0.961 . S
C2095 H2111 0.960 . S
H2096 C2080 0.931 . S
H2097 C2085 0.929 . S
H2098 C2086 0.960 . S
H2099 C2086 0.962 . S
H2100 C2086 0.960 . S
H2101 C2087 0.961 . S
H2102 C2087 0.961 . S
H2103 C2087 0.961 . S
H2104 C2088 0.931 . S
H2105 C2093 0.930 . S
H2106 C2094 0.956 . S
H2107 C2094 0.961 . S
H2108 C2094 0.961 . S
H2109 C2095 0.958 . S
H2110 C2095 0.961 . S
H2111 C2095 0.960 . S
C2112 C2113 1.391 . S
C2112 C2114 1.394 . S
C2112 H2128 0.931 . S
C2113 C2112 1.391 . S
C2113 C2117 1.376 . S
C2114 C2112 1.394 . S
C2114 C2115 1.369 . S
C2114 C2118 1.531 . S
C2115 C2114 1.369 . S
C2115 C2116 1.410 . S
C2115 C2123 1.503 . S
C2116 C2115 1.410 . S
C2116 C2117 1.392 . S
C2116 C2119 1.511 . S
C2117 C2113 1.376 . S
C2117 C2116 1.392 . S
C2117 H2129 0.929 . S
C2118 C2114 1.531 . S
C2118 H2130 0.960 . S
C2118 H2131 0.962 . S
C2118 H2132 0.960 . S
C2119 C2116 1.511 . S
C2119 H2133 0.961 . S
C2119 H2134 0.961 . S
C2119 H2135 0.961 . S
C2120 C2121 1.370 . S
C2120 C2122 1.363 . S
C2120 H2136 0.931 . S
C2121 C2120 1.370 . S
C2121 C2125 1.408 . S
C2122 C2120 1.363 . S
C2122 C2123 1.370 . S
C2122 C2126 1.524 . S
C2123 C2115 1.503 . S
C2123 C2122 1.370 . S
C2123 C2124 1.403 . S
C2124 C2123 1.403 . S
C2124 C2125 1.404 . S
C2124 C2127 1.539 . S
C2125 C2121 1.408 . S
C2125 C2124 1.404 . S
C2125 H2137 0.930 . S
C2126 C2122 1.524 . S
C2126 H2138 0.956 . S
C2126 H2139 0.961 . S
C2126 H2140 0.961 . S
C2127 C2124 1.539 . S
C2127 H2141 0.958 . S
C2127 H2142 0.961 . S
C2127 H2143 0.960 . S
H2128 C2112 0.931 . S
H2129 C2117 0.929 . S
H2130 C2118 0.960 . S
H2131 C2118 0.962 . S
H2132 C2118 0.960 . S
H2133 C2119 0.961 . S
H2134 C2119 0.961 . S
H2135 C2119 0.961 . S
H2136 C2120 0.931 . S
H2137 C2125 0.930 . S
H2138 C2126 0.956 . S
H2139 C2126 0.961 . S
H2140 C2126 0.961 . S
H2141 C2127 0.958 . S
H2142 C2127 0.961 . S
H2143 C2127 0.960 . S
C2144 C2145 1.391 . S
C2144 C2146 1.394 . S
C2144 H2160 0.931 . S
C2145 C2144 1.391 . S
C2145 C2149 1.376 . S
C2146 C2144 1.394 . S
C2146 C2147 1.369 . S
C2146 C2150 1.531 . S
C2147 C2146 1.369 . S
C2147 C2148 1.410 . S
C2147 C2155 1.503 . S
C2148 C2147 1.410 . S
C2148 C2149 1.392 . S
C2148 C2151 1.511 . S
C2149 C2145 1.376 . S
C2149 C2148 1.392 . S
C2149 H2161 0.929 . S
C2150 C2146 1.531 . S
C2150 H2162 0.960 . S
C2150 H2163 0.962 . S
C2150 H2164 0.960 . S
C2151 C2148 1.511 . S
C2151 H2165 0.961 . S
C2151 H2166 0.961 . S
C2151 H2167 0.961 . S
C2152 C2153 1.370 . S
C2152 C2154 1.363 . S
C2152 H2168 0.931 . S
C2153 C2152 1.370 . S
C2153 C2157 1.408 . S
C2154 C2152 1.363 . S
C2154 C2155 1.370 . S
C2154 C2158 1.524 . S
C2155 C2147 1.503 . S
C2155 C2154 1.370 . S
C2155 C2156 1.403 . S
C2156 C2155 1.403 . S
C2156 C2157 1.404 . S
C2156 C2159 1.539 . S
C2157 C2153 1.408 . S
C2157 C2156 1.404 . S
C2157 H2169 0.930 . S
C2158 C2154 1.524 . S
C2158 H2170 0.956 . S
C2158 H2171 0.961 . S
C2158 H2172 0.961 . S
C2159 C2156 1.539 . S
C2159 H2173 0.958 . S
C2159 H2174 0.961 . S
C2159 H2175 0.960 . S
H2160 C2144 0.931 . S
H2161 C2149 0.929 . S
H2162 C2150 0.960 . S
H2163 C2150 0.962 . S
H2164 C2150 0.960 . S
H2165 C2151 0.961 . S
H2166 C2151 0.961 . S
H2167 C2151 0.961 . S
H2168 C2152 0.931 . S
H2169 C2157 0.930 . S
H2170 C2158 0.956 . S
H2171 C2158 0.961 . S
H2172 C2158 0.961 . S
H2173 C2159 0.958 . S
H2174 C2159 0.961 . S
H2175 C2159 0.960 . S
C2176 C2177 1.391 . S
C2176 C2178 1.394 . S
C2176 H2192 0.931 . S
C2177 C2176 1.391 . S
C2177 C2181 1.376 . S
C2178 C2176 1.394 . S
C2178 C2179 1.369 . S
C2178 C2182 1.531 . S
C2179 C2178 1.369 . S
C2179 C2180 1.410 . S
C2179 C2187 1.503 . S
C2180 C2179 1.410 . S
C2180 C2181 1.392 . S
C2180 C2183 1.511 . S
C2181 C2177 1.376 . S
C2181 C2180 1.392 . S
C2181 H2193 0.929 . S
C2182 C2178 1.531 . S
C2182 H2194 0.960 . S
C2182 H2195 0.962 . S
C2182 H2196 0.960 . S
C2183 C2180 1.511 . S
C2183 H2197 0.961 . S
C2183 H2198 0.961 . S
C2183 H2199 0.961 . S
C2184 C2185 1.370 . S
C2184 C2186 1.363 . S
C2184 H2200 0.931 . S
C2185 C2184 1.370 . S
C2185 C2189 1.408 . S
C2186 C2184 1.363 . S
C2186 C2187 1.370 . S
C2186 C2190 1.524 . S
C2187 C2179 1.503 . S
C2187 C2186 1.370 . S
C2187 C2188 1.403 . S
C2188 C2187 1.403 . S
C2188 C2189 1.404 . S
C2188 C2191 1.539 . S
C2189 C2185 1.408 . S
C2189 C2188 1.404 . S
C2189 H2201 0.930 . S
C2190 C2186 1.524 . S
C2190 H2202 0.956 . S
C2190 H2203 0.961 . S
C2190 H2204 0.961 . S
C2191 C2188 1.539 . S
C2191 H2205 0.958 . S
C2191 H2206 0.961 . S
C2191 H2207 0.960 . S
H2192 C2176 0.931 . S
H2193 C2181 0.929 . S
H2194 C2182 0.960 . S
H2195 C2182 0.962 . S
H2196 C2182 0.960 . S
H2197 C2183 0.961 . S
H2198 C2183 0.961 . S
H2199 C2183 0.961 . S
H2200 C2184 0.931 . S
H2201 C2189 0.930 . S
H2202 C2190 0.956 . S
H2203 C2190 0.961 . S
H2204 C2190 0.961 . S
H2205 C2191 0.958 . S
H2206 C2191 0.961 . S
H2207 C2191 0.960 . S
C2208 C2209 1.391 . S
C2208 C2210 1.394 . S
C2208 H2224 0.931 . S
C2209 C2208 1.391 . S
C2209 C2213 1.376 . S
C2210 C2208 1.394 . S
C2210 C2211 1.369 . S
C2210 C2214 1.531 . S
C2211 C2210 1.369 . S
C2211 C2212 1.410 . S
C2211 C2219 1.503 . S
C2212 C2211 1.410 . S
C2212 C2213 1.392 . S
C2212 C2215 1.511 . S
C2213 C2209 1.376 . S
C2213 C2212 1.392 . S
C2213 H2225 0.929 . S
C2214 C2210 1.531 . S
C2214 H2226 0.960 . S
C2214 H2227 0.962 . S
C2214 H2228 0.960 . S
C2215 C2212 1.511 . S
C2215 H2229 0.961 . S
C2215 H2230 0.961 . S
C2215 H2231 0.961 . S
C2216 C2217 1.370 . S
C2216 C2218 1.363 . S
C2216 H2232 0.931 . S
C2217 C2216 1.370 . S
C2217 C2221 1.408 . S
C2218 C2216 1.363 . S
C2218 C2219 1.370 . S
C2218 C2222 1.524 . S
C2219 C2211 1.503 . S
C2219 C2218 1.370 . S
C2219 C2220 1.403 . S
C2220 C2219 1.403 . S
C2220 C2221 1.404 . S
C2220 C2223 1.539 . S
C2221 C2217 1.408 . S
C2221 C2220 1.404 . S
C2221 H2233 0.930 . S
C2222 C2218 1.524 . S
C2222 H2234 0.956 . S
C2222 H2235 0.961 . S
C2222 H2236 0.961 . S
C2223 C2220 1.539 . S
C2223 H2237 0.958 . S
C2223 H2238 0.961 . S
C2223 H2239 0.960 . S
H2224 C2208 0.931 . S
H2225 C2213 0.929 . S
H2226 C2214 0.960 . S
H2227 C2214 0.962 . S
H2228 C2214 0.960 . S
H2229 C2215 0.961 . S
H2230 C2215 0.961 . S
H2231 C2215 0.961 . S
H2232 C2216 0.931 . S
H2233 C2221 0.930 . S
H2234 C2222 0.956 . S
H2235 C2222 0.961 . S
H2236 C2222 0.961 . S
H2237 C2223 0.958 . S
H2238 C2223 0.961 . S
H2239 C2223 0.960 . S
C2240 C2241 1.391 . S
C2240 C2242 1.394 . S
C2240 H2256 0.931 . S
C2241 C2240 1.391 . S
C2241 C2245 1.376 . S
C2242 C2240 1.394 . S
C2242 C2243 1.369 . S
C2242 C2246 1.531 . S
C2243 C2242 1.369 . S
C2243 C2244 1.410 . S
C2243 C2251 1.503 . S
C2244 C2243 1.410 . S
C2244 C2245 1.392 . S
C2244 C2247 1.511 . S
C2245 C2241 1.376 . S
C2245 C2244 1.392 . S
C2245 H2257 0.929 . S
C2246 C2242 1.531 . S
C2246 H2258 0.960 . S
C2246 H2259 0.962 . S
C2246 H2260 0.960 . S
C2247 C2244 1.511 . S
C2247 H2261 0.961 . S
C2247 H2262 0.961 . S
C2247 H2263 0.961 . S
C2248 C2249 1.370 . S
C2248 C2250 1.363 . S
C2248 H2264 0.931 . S
C2249 C2248 1.370 . S
C2249 C2253 1.408 . S
C2250 C2248 1.363 . S
C2250 C2251 1.370 . S
C2250 C2254 1.524 . S
C2251 C2243 1.503 . S
C2251 C2250 1.370 . S
C2251 C2252 1.403 . S
C2252 C2251 1.403 . S
C2252 C2253 1.404 . S
C2252 C2255 1.539 . S
C2253 C2249 1.408 . S
C2253 C2252 1.404 . S
C2253 H2265 0.930 . S
C2254 C2250 1.524 . S
C2254 H2266 0.956 . S
C2254 H2267 0.961 . S
C2254 H2268 0.961 . S
C2255 C2252 1.539 . S
C2255 H2269 0.958 . S
C2255 H2270 0.961 . S
C2255 H2271 0.960 . S
H2256 C2240 0.931 . S
H2257 C2245 0.929 . S
H2258 C2246 0.960 . S
H2259 C2246 0.962 . S
H2260 C2246 0.960 . S
H2261 C2247 0.961 . S
H2262 C2247 0.961 . S
H2263 C2247 0.961 . S
H2264 C2248 0.931 . S
H2265 C2253 0.930 . S
H2266 C2254 0.956 . S
H2267 C2254 0.961 . S
H2268 C2254 0.961 . S
H2269 C2255 0.958 . S
H2270 C2255 0.961 . S
H2271 C2255 0.960 . S
C2272 C2273 1.391 . S
C2272 C2274 1.394 . S
C2272 H2288 0.931 . S
C2273 C2272 1.391 . S
C2273 C2277 1.376 . S
C2274 C2272 1.394 . S
C2274 C2275 1.369 . S
C2274 C2278 1.531 . S
C2275 C2274 1.369 . S
C2275 C2276 1.410 . S
C2275 C2283 1.503 . S
C2276 C2275 1.410 . S
C2276 C2277 1.392 . S
C2276 C2279 1.511 . S
C2277 C2273 1.376 . S
C2277 C2276 1.392 . S
C2277 H2289 0.929 . S
C2278 C2274 1.531 . S
C2278 H2290 0.960 . S
C2278 H2291 0.962 . S
C2278 H2292 0.960 . S
C2279 C2276 1.511 . S
C2279 H2293 0.961 . S
C2279 H2294 0.961 . S
C2279 H2295 0.961 . S
C2280 C2281 1.370 . S
C2280 C2282 1.363 . S
C2280 H2296 0.931 . S
C2281 C2280 1.370 . S
C2281 C2285 1.408 . S
C2282 C2280 1.363 . S
C2282 C2283 1.370 . S
C2282 C2286 1.524 . S
C2283 C2275 1.503 . S
C2283 C2282 1.370 . S
C2283 C2284 1.403 . S
C2284 C2283 1.403 . S
C2284 C2285 1.404 . S
C2284 C2287 1.539 . S
C2285 C2281 1.408 . S
C2285 C2284 1.404 . S
C2285 H2297 0.930 . S
C2286 C2282 1.524 . S
C2286 H2298 0.956 . S
C2286 H2299 0.961 . S
C2286 H2300 0.961 . S
C2287 C2284 1.539 . S
C2287 H2301 0.958 . S
C2287 H2302 0.961 . S
C2287 H2303 0.960 . S
H2288 C2272 0.931 . S
H2289 C2277 0.929 . S
H2290 C2278 0.960 . S
H2291 C2278 0.962 . S
H2292 C2278 0.960 . S
H2293 C2279 0.961 . S
H2294 C2279 0.961 . S
H2295 C2279 0.961 . S
H2296 C2280 0.931 . S
H2297 C2285 0.930 . S
H2298 C2286 0.956 . S
H2299 C2286 0.961 . S
H2300 C2286 0.961 . S
H2301 C2287 0.958 . S
H2302 C2287 0.961 . S
H2303 C2287 0.960 . S
C2304 C2305 1.391 . S
C2304 C2306 1.394 . S
C2304 H2320 0.931 . S
C2305 C2304 1.391 . S
C2305 C2309 1.376 . S
C2306 C2304 1.394 . S
C2306 C2307 1.369 . S
C2306 C2310 1.531 . S
C2307 C2306 1.369 . S
C2307 C2308 1.410 . S
C2307 C2315 1.503 . S
C2308 C2307 1.410 . S
C2308 C2309 1.392 . S
C2308 C2311 1.511 . S
C2309 C2305 1.376 . S
C2309 C2308 1.392 . S
C2309 H2321 0.929 . S
C2310 C2306 1.531 . S
C2310 H2322 0.960 . S
C2310 H2323 0.962 . S
C2310 H2324 0.960 . S
C2311 C2308 1.511 . S
C2311 H2325 0.961 . S
C2311 H2326 0.961 . S
C2311 H2327 0.961 . S
C2312 C2313 1.370 . S
C2312 C2314 1.363 . S
C2312 H2328 0.931 . S
C2313 C2312 1.370 . S
C2313 C2317 1.408 . S
C2314 C2312 1.363 . S
C2314 C2315 1.370 . S
C2314 C2318 1.524 . S
C2315 C2307 1.503 . S
C2315 C2314 1.370 . S
C2315 C2316 1.403 . S
C2316 C2315 1.403 . S
C2316 C2317 1.404 . S
C2316 C2319 1.539 . S
C2317 C2313 1.408 . S
C2317 C2316 1.404 . S
C2317 H2329 0.930 . S
C2318 C2314 1.524 . S
C2318 H2330 0.956 . S
C2318 H2331 0.961 . S
C2318 H2332 0.961 . S
C2319 C2316 1.539 . S
C2319 H2333 0.958 . S
C2319 H2334 0.961 . S
C2319 H2335 0.960 . S
H2320 C2304 0.931 . S
H2321 C2309 0.929 . S
H2322 C2310 0.960 . S
H2323 C2310 0.962 . S
H2324 C2310 0.960 . S
H2325 C2311 0.961 . S
H2326 C2311 0.961 . S
H2327 C2311 0.961 . S
H2328 C2312 0.931 . S
H2329 C2317 0.930 . S
H2330 C2318 0.956 . S
H2331 C2318 0.961 . S
H2332 C2318 0.961 . S
H2333 C2319 0.958 . S
H2334 C2319 0.961 . S
H2335 C2319 0.960 . S
C2336 C2337 1.391 . S
C2336 C2338 1.394 . S
C2336 H2352 0.931 . S
C2337 C2336 1.391 . S
C2337 C2341 1.376 . S
C2338 C2336 1.394 . S
C2338 C2339 1.369 . S
C2338 C2342 1.531 . S
C2339 C2338 1.369 . S
C2339 C2340 1.410 . S
C2339 C2347 1.503 . S
C2340 C2339 1.410 . S
C2340 C2341 1.392 . S
C2340 C2343 1.511 . S
C2341 C2337 1.376 . S
C2341 C2340 1.392 . S
C2341 H2353 0.929 . S
C2342 C2338 1.531 . S
C2342 H2354 0.960 . S
C2342 H2355 0.962 . S
C2342 H2356 0.960 . S
C2343 C2340 1.511 . S
C2343 H2357 0.961 . S
C2343 H2358 0.961 . S
C2343 H2359 0.961 . S
C2344 C2345 1.370 . S
C2344 C2346 1.363 . S
C2344 H2360 0.931 . S
C2345 C2344 1.370 . S
C2345 C2349 1.408 . S
C2346 C2344 1.363 . S
C2346 C2347 1.370 . S
C2346 C2350 1.524 . S
C2347 C2339 1.503 . S
C2347 C2346 1.370 . S
C2347 C2348 1.403 . S
C2348 C2347 1.403 . S
C2348 C2349 1.404 . S
C2348 C2351 1.539 . S
C2349 C2345 1.408 . S
C2349 C2348 1.404 . S
C2349 H2361 0.930 . S
C2350 C2346 1.524 . S
C2350 H2362 0.956 . S
C2350 H2363 0.961 . S
C2350 H2364 0.961 . S
C2351 C2348 1.539 . S
C2351 H2365 0.958 . S
C2351 H2366 0.961 . S
C2351 H2367 0.960 . S
H2352 C2336 0.931 . S
H2353 C2341 0.929 . S
H2354 C2342 0.960 . S
H2355 C2342 0.962 . S
H2356 C2342 0.960 . S
H2357 C2343 0.961 . S
H2358 C2343 0.961 . S
H2359 C2343 0.961 . S
H2360 C2344 0.931 . S
H2361 C2349 0.930 . S
H2362 C2350 0.956 . S
H2363 C2350 0.961 . S
H2364 C2350 0.961 . S
H2365 C2351 0.958 . S
H2366 C2351 0.961 . S
H2367 C2351 0.960 . S
C2368 C2369 1.391 . S
C2368 C2370 1.394 . S
C2368 H2384 0.931 . S
C2369 C2368 1.391 . S
C2369 C2373 1.376 . S
C2370 C2368 1.394 . S
C2370 C2371 1.369 . S
C2370 C2374 1.531 . S
C2371 C2370 1.369 . S
C2371 C2372 1.410 . S
C2371 C2379 1.503 . S
C2372 C2371 1.410 . S
C2372 C2373 1.392 . S
C2372 C2375 1.511 . S
C2373 C2369 1.376 . S
C2373 C2372 1.392 . S
C2373 H2385 0.929 . S
C2374 C2370 1.531 . S
C2374 H2386 0.960 . S
C2374 H2387 0.962 . S
C2374 H2388 0.960 . S
C2375 C2372 1.511 . S
C2375 H2389 0.961 . S
C2375 H2390 0.961 . S
C2375 H2391 0.961 . S
C2376 C2377 1.370 . S
C2376 C2378 1.363 . S
C2376 H2392 0.931 . S
C2377 C2376 1.370 . S
C2377 C2381 1.408 . S
C2378 C2376 1.363 . S
C2378 C2379 1.370 . S
C2378 C2382 1.524 . S
C2379 C2371 1.503 . S
C2379 C2378 1.370 . S
C2379 C2380 1.403 . S
C2380 C2379 1.403 . S
C2380 C2381 1.404 . S
C2380 C2383 1.539 . S
C2381 C2377 1.408 . S
C2381 C2380 1.404 . S
C2381 H2393 0.930 . S
C2382 C2378 1.524 . S
C2382 H2394 0.956 . S
C2382 H2395 0.961 . S
C2382 H2396 0.961 . S
C2383 C2380 1.539 . S
C2383 H2397 0.958 . S
C2383 H2398 0.961 . S
C2383 H2399 0.960 . S
H2384 C2368 0.931 . S
H2385 C2373 0.929 . S
H2386 C2374 0.960 . S
H2387 C2374 0.962 . S
H2388 C2374 0.960 . S
H2389 C2375 0.961 . S
H2390 C2375 0.961 . S
H2391 C2375 0.961 . S
H2392 C2376 0.931 . S
H2393 C2381 0.930 . S
H2394 C2382 0.956 . S
H2395 C2382 0.961 . S
H2396 C2382 0.961 . S
H2397 C2383 0.958 . S
H2398 C2383 0.961 . S
H2399 C2383 0.960 . S
C2400 C2401 1.391 . S
C2400 C2402 1.394 . S
C2400 H2416 0.931 . S
C2401 C2400 1.391 . S
C2401 C2405 1.376 . S
C2402 C2400 1.394 . S
C2402 C2403 1.369 . S
C2402 C2406 1.531 . S
C2403 C2402 1.369 . S
C2403 C2404 1.410 . S
C2403 C2411 1.503 . S
C2404 C2403 1.410 . S
C2404 C2405 1.392 . S
C2404 C2407 1.511 . S
C2405 C2401 1.376 . S
C2405 C2404 1.392 . S
C2405 H2417 0.929 . S
C2406 C2402 1.531 . S
C2406 H2418 0.960 . S
C2406 H2419 0.962 . S
C2406 H2420 0.960 . S
C2407 C2404 1.511 . S
C2407 H2421 0.961 . S
C2407 H2422 0.961 . S
C2407 H2423 0.961 . S
C2408 C2409 1.370 . S
C2408 C2410 1.363 . S
C2408 H2424 0.931 . S
C2409 C2408 1.370 . S
C2409 C2413 1.408 . S
C2410 C2408 1.363 . S
C2410 C2411 1.370 . S
C2410 C2414 1.524 . S
C2411 C2403 1.503 . S
C2411 C2410 1.370 . S
C2411 C2412 1.403 . S
C2412 C2411 1.403 . S
C2412 C2413 1.404 . S
C2412 C2415 1.539 . S
C2413 C2409 1.408 . S
C2413 C2412 1.404 . S
C2413 H2425 0.930 . S
C2414 C2410 1.524 . S
C2414 H2426 0.956 . S
C2414 H2427 0.961 . S
C2414 H2428 0.961 . S
C2415 C2412 1.539 . S
C2415 H2429 0.958 . S
C2415 H2430 0.961 . S
C2415 H2431 0.960 . S
H2416 C2400 0.931 . S
H2417 C2405 0.929 . S
H2418 C2406 0.960 . S
H2419 C2406 0.962 . S
H2420 C2406 0.960 . S
H2421 C2407 0.961 . S
H2422 C2407 0.961 . S
H2423 C2407 0.961 . S
H2424 C2408 0.931 . S
H2425 C2413 0.930 . S
H2426 C2414 0.956 . S
H2427 C2414 0.961 . S
H2428 C2414 0.961 . S
H2429 C2415 0.958 . S
H2430 C2415 0.961 . S
H2431 C2415 0.960 . S
C2432 C2433 1.391 . S
C2432 C2434 1.394 . S
C2432 H2448 0.931 . S
C2433 C2432 1.391 . S
C2433 C2437 1.376 . S
C2434 C2432 1.394 . S
C2434 C2435 1.369 . S
C2434 C2438 1.531 . S
C2435 C2434 1.369 . S
C2435 C2436 1.410 . S
C2435 C2443 1.503 . S
C2436 C2435 1.410 . S
C2436 C2437 1.392 . S
C2436 C2439 1.511 . S
C2437 C2433 1.376 . S
C2437 C2436 1.392 . S
C2437 H2449 0.929 . S
C2438 C2434 1.531 . S
C2438 H2450 0.960 . S
C2438 H2451 0.962 . S
C2438 H2452 0.960 . S
C2439 C2436 1.511 . S
C2439 H2453 0.961 . S
C2439 H2454 0.961 . S
C2439 H2455 0.961 . S
C2440 C2441 1.370 . S
C2440 C2442 1.363 . S
C2440 H2456 0.931 . S
C2441 C2440 1.370 . S
C2441 C2445 1.408 . S
C2442 C2440 1.363 . S
C2442 C2443 1.370 . S
C2442 C2446 1.524 . S
C2443 C2435 1.503 . S
C2443 C2442 1.370 . S
C2443 C2444 1.403 . S
C2444 C2443 1.403 . S
C2444 C2445 1.404 . S
C2444 C2447 1.539 . S
C2445 C2441 1.408 . S
C2445 C2444 1.404 . S
C2445 H2457 0.930 . S
C2446 C2442 1.524 . S
C2446 H2458 0.956 . S
C2446 H2459 0.961 . S
C2446 H2460 0.961 . S
C2447 C2444 1.539 . S
C2447 H2461 0.958 . S
C2447 H2462 0.961 . S
C2447 H2463 0.960 . S
H2448 C2432 0.931 . S
H2449 C2437 0.929 . S
H2450 C2438 0.960 . S
H2451 C2438 0.962 . S
H2452 C2438 0.960 . S
H2453 C2439 0.961 . S
H2454 C2439 0.961 . S
H2455 C2439 0.961 . S
H2456 C2440 0.931 . S
H2457 C2445 0.930 . S
H2458 C2446 0.956 . S
H2459 C2446 0.961 . S
H2460 C2446 0.961 . S
H2461 C2447 0.958 . S
H2462 C2447 0.961 . S
H2463 C2447 0.960 . S
C2464 C2465 1.391 . S
C2464 C2466 1.394 . S
C2464 H2480 0.931 . S
C2465 C2464 1.391 . S
C2465 C2469 1.376 . S
C2466 C2464 1.394 . S
C2466 C2467 1.369 . S
C2466 C2470 1.531 . S
C2467 C2466 1.369 . S
C2467 C2468 1.410 . S
C2467 C2475 1.503 . S
C2468 C2467 1.410 . S
C2468 C2469 1.392 . S
C2468 C2471 1.511 . S
C2469 C2465 1.376 . S
C2469 C2468 1.392 . S
C2469 H2481 0.929 . S
C2470 C2466 1.531 . S
C2470 H2482 0.960 . S
C2470 H2483 0.962 . S
C2470 H2484 0.960 . S
C2471 C2468 1.511 . S
C2471 H2485 0.961 . S
C2471 H2486 0.961 . S
C2471 H2487 0.961 . S
C2472 C2473 1.370 . S
C2472 C2474 1.363 . S
C2472 H2488 0.931 . S
C2473 C2472 1.370 . S
C2473 C2477 1.408 . S
C2474 C2472 1.363 . S
C2474 C2475 1.370 . S
C2474 C2478 1.524 . S
C2475 C2467 1.503 . S
C2475 C2474 1.370 . S
C2475 C2476 1.403 . S
C2476 C2475 1.403 . S
C2476 C2477 1.404 . S
C2476 C2479 1.539 . S
C2477 C2473 1.408 . S
C2477 C2476 1.404 . S
C2477 H2489 0.930 . S
C2478 C2474 1.524 . S
C2478 H2490 0.956 . S
C2478 H2491 0.961 . S
C2478 H2492 0.961 . S
C2479 C2476 1.539 . S
C2479 H2493 0.958 . S
C2479 H2494 0.961 . S
C2479 H2495 0.960 . S
H2480 C2464 0.931 . S
H2481 C2469 0.929 . S
H2482 C2470 0.960 . S
H2483 C2470 0.962 . S
H2484 C2470 0.960 . S
H2485 C2471 0.961 . S
H2486 C2471 0.961 . S
H2487 C2471 0.961 . S
H2488 C2472 0.931 . S
H2489 C2477 0.930 . S
H2490 C2478 0.956 . S
H2491 C2478 0.961 . S
H2492 C2478 0.961 . S
H2493 C2479 0.958 . S
H2494 C2479 0.961 . S
H2495 C2479 0.960 . S
C449 C62 1.548 . S
C457 C6 1.517 . S
C481 C76 1.525 . S
C489 C20 1.511 . S
C513 C90 1.552 . S
C521 C34 1.525 . S
C545 C48 1.507 . S
C553 C104 1.512 . S
C577 C118 1.546 . S
C585 C174 1.513 . S
C609 C188 1.551 . S
C617 C132 1.521 . S
C641 C146 1.542 . S
C649 C202 1.512 . S
C673 C216 1.506 . S
C681 C160 1.515 . S
C705 C230 1.489 . S
C713 C286 1.527 . S
C737 C300 1.514 . S
C745 C244 1.511 . S
C769 C314 1.488 . S
C777 C258 1.525 . S
C801 C328 1.519 . S
C809 C272 1.537 . S
C833 C342 1.542 . S
C841 C398 1.530 . S
C865 C356 1.503 . S
C873 C412 1.516 . S
C897 C370 1.493 . S
C905 C426 1.535 . S
C929 C384 1.542 . S
C937 C440 1.529 . S
C961 C8 1.753 1_565 S
C969 C106 1.751 . S
C993 C22 1.759 . S
C1001 C64 1.745 1_545 S
C1025 C36 1.732 1_545 S
C1033 C78 1.752 . S
C1057 C92 1.759 1_565 S
C1065 C50 1.745 . S
C1089 C218 1.759 . S
C1097 C120 1.744 1_545 S
C1121 C176 1.745 1_565 S
C1129 C134 1.746 . S
C1153 C190 1.734 . S
C1161 C148 1.755 1_565 S
C1185 C162 1.744 . S
C1193 C204 1.753 1_545 S
C1217 C330 1.758 . S
C1225 C232 1.748 . S
C1249 C288 1.750 . S
C1257 C246 1.752 . S
C1281 C302 1.741 . S
C1289 C260 1.746 . S
C1313 C274 1.759 . S
C1321 C316 1.747 . S
C1345 C344 1.739 . S
C1353 C442 1.749 . S
C1377 C358 1.756 . S
C1385 C400 1.744 . S
C1409 C372 1.744 . S
C1417 C414 1.747 . S
C1441 C428 1.759 . S
C1449 C386 1.744 . S
C1473 C9 1.424 . S
C1481 C357 1.426 . S
C1505 C23 1.398 . S
C1513 C147 1.428 1_455 S
C1537 C37 1.419 . S
C1545 C385 1.412 . S
C1569 C119 1.436 . S
C1577 C51 1.414 . S
C1601 C441 1.391 . S
C1609 C65 1.428 . S
C1633 C79 1.403 . S
C1641 C175 1.430 . S
C1665 C93 1.407 . S
C1673 C413 1.430 . S
C1697 C107 1.422 . S
C1705 C203 1.411 1_455 S
C1729 C245 1.432 . S
C1737 C121 1.429 . S
C1761 C35 1.392 1_655 S
C1769 C135 1.430 . S
C1793 C273 1.422 . S
C1801 C149 1.414 . S
C1825 C163 1.429 . S
C1833 C7 1.409 . S
C1857 C329 1.391 . S
C1865 C177 1.429 . S
C1889 C63 1.441 . S
C1897 C191 1.420 . S
C1921 C301 1.441 . S
C1929 C205 1.418 . S
C1953 C91 1.393 1_655 S
C1961 C219 1.431 . S
C1985 C133 1.422 . S
C1993 C233 1.415 . S
C2017 C247 1.397 . S
C2025 C371 1.424 . S
C2049 C261 1.430 . S
C2057 C161 1.424 . S
C2081 C275 1.443 . S
C2089 C343 1.414 1_655 S
C2113 C289 1.412 . S
C2121 C217 1.414 . S
C2145 C399 1.431 1_655 S
C2153 C303 1.426 . S
C2177 C317 1.416 . S
C2185 C189 1.413 . S
C2209 C331 1.443 . S
C2217 C427 1.412 . S
C2241 C345 1.403 . S
C2249 C21 1.429 . S
C2273 C359 1.400 . S
C2281 C259 1.418 . S
C2305 C49 1.393 . S
C2313 C373 1.431 . S
C2337 C231 1.415 1_455 S
C2345 C387 1.433 . S
C2369 C401 1.411 . S
C2377 C105 1.412 . S
C2401 C415 1.397 . S
C2409 C287 1.422 1_455 S
C2433 C77 1.426 . S
C2441 C429 1.414 . S
C2465 C315 1.415 . S
C2473 C443 1.433 . S
