# Generated by pormake.
# Topology fcp, (5)-cn, num edge types: 1
# Building blocks:
#     Node 0, Type 0, BuildingBlock: XOMCOT_clean_sbu_0, # of connection points: 5
#     Node 1, Type 0, BuildingBlock: XOMCOT_clean_sbu_0, # of connection points: 5
#     Node 2, Type 0, BuildingBlock: XOMCOT_clean_sbu_0, # of connection points: 5
#     Node 3, Type 0, BuildingBlock: XOMCOT_clean_sbu_0, # of connection points: 5
#     Node 4, Type 0, BuildingBlock: XOMCOT_clean_sbu_0, # of connection points: 5
#     Node 5, Type 0, BuildingBlock: XOMCOT_clean_sbu_0, # of connection points: 5
#     Node 6, Type 0, BuildingBlock: XOMCOT_clean_sbu_0, # of connection points: 5
#     Node 7, Type 0, BuildingBlock: XOMCOT_clean_sbu_0, # of connection points: 5
#     Node 8, Type 0, BuildingBlock: XOMCOT_clean_sbu_0, # of connection points: 5
#     Node 9, Type 0, BuildingBlock: XOMCOT_clean_sbu_0, # of connection points: 5
#     Node 10, Type 0, BuildingBlock: XOMCOT_clean_sbu_0, # of connection points: 5
#     Node 11, Type 0, BuildingBlock: XOMCOT_clean_sbu_0, # of connection points: 5
#     Node 12, Type 0, BuildingBlock: XOMCOT_clean_sbu_0, # of connection points: 5
#     Node 13, Type 0, BuildingBlock: XOMCOT_clean_sbu_0, # of connection points: 5
#     Node 14, Type 0, BuildingBlock: XOMCOT_clean_sbu_0, # of connection points: 5
#     Node 15, Type 0, BuildingBlock: XOMCOT_clean_sbu_0, # of connection points: 5
#     Node 16, Type 0, BuildingBlock: XOMCOT_clean_sbu_0, # of connection points: 5
#     Node 17, Type 0, BuildingBlock: XOMCOT_clean_sbu_0, # of connection points: 5
#     Node 18, Type 0, BuildingBlock: XOMCOT_clean_sbu_0, # of connection points: 5
#     Node 19, Type 0, BuildingBlock: XOMCOT_clean_sbu_0, # of connection points: 5
#     Node 20, Type 0, BuildingBlock: XOMCOT_clean_sbu_0, # of connection points: 5
#     Node 21, Type 0, BuildingBlock: XOMCOT_clean_sbu_0, # of connection points: 5
#     Node 22, Type 0, BuildingBlock: XOMCOT_clean_sbu_0, # of connection points: 5
#     Node 23, Type 0, BuildingBlock: XOMCOT_clean_sbu_0, # of connection points: 5
#     Edge 24, Type (0, 0), BuildingBlock: XIVTED_clean_linker_0, # of connection points: 2
#     Edge 25, Type (0, 0), BuildingBlock: XIVTED_clean_linker_0, # of connection points: 2
#     Edge 26, Type (0, 0), BuildingBlock: XIVTED_clean_linker_0, # of connection points: 2
#     Edge 27, Type (0, 0), BuildingBlock: XIVTED_clean_linker_0, # of connection points: 2
#     Edge 28, Type (0, 0), BuildingBlock: XIVTED_clean_linker_0, # of connection points: 2
#     Edge 29, Type (0, 0), BuildingBlock: XIVTED_clean_linker_0, # of connection points: 2
#     Edge 30, Type (0, 0), BuildingBlock: XIVTED_clean_linker_0, # of connection points: 2
#     Edge 31, Type (0, 0), BuildingBlock: XIVTED_clean_linker_0, # of connection points: 2
#     Edge 32, Type (0, 0), BuildingBlock: XIVTED_clean_linker_0, # of connection points: 2
#     Edge 33, Type (0, 0), BuildingBlock: XIVTED_clean_linker_0, # of connection points: 2
#     Edge 34, Type (0, 0), BuildingBlock: XIVTED_clean_linker_0, # of connection points: 2
#     Edge 35, Type (0, 0), BuildingBlock: XIVTED_clean_linker_0, # of connection points: 2
#     Edge 36, Type (0, 0), BuildingBlock: XIVTED_clean_linker_0, # of connection points: 2
#     Edge 37, Type (0, 0), BuildingBlock: XIVTED_clean_linker_0, # of connection points: 2
#     Edge 38, Type (0, 0), BuildingBlock: XIVTED_clean_linker_0, # of connection points: 2
#     Edge 39, Type (0, 0), BuildingBlock: XIVTED_clean_linker_0, # of connection points: 2
#     Edge 40, Type (0, 0), BuildingBlock: XIVTED_clean_linker_0, # of connection points: 2
#     Edge 41, Type (0, 0), BuildingBlock: XIVTED_clean_linker_0, # of connection points: 2
#     Edge 42, Type (0, 0), BuildingBlock: XIVTED_clean_linker_0, # of connection points: 2
#     Edge 43, Type (0, 0), BuildingBlock: XIVTED_clean_linker_0, # of connection points: 2
#     Edge 44, Type (0, 0), BuildingBlock: XIVTED_clean_linker_0, # of connection points: 2
#     Edge 45, Type (0, 0), BuildingBlock: XIVTED_clean_linker_0, # of connection points: 2
#     Edge 46, Type (0, 0), BuildingBlock: XIVTED_clean_linker_0, # of connection points: 2
#     Edge 47, Type (0, 0), BuildingBlock: XIVTED_clean_linker_0, # of connection points: 2
#     Edge 48, Type (0, 0), BuildingBlock: XIVTED_clean_linker_0, # of connection points: 2
#     Edge 49, Type (0, 0), BuildingBlock: XIVTED_clean_linker_0, # of connection points: 2
#     Edge 50, Type (0, 0), BuildingBlock: XIVTED_clean_linker_0, # of connection points: 2
#     Edge 51, Type (0, 0), BuildingBlock: XIVTED_clean_linker_0, # of connection points: 2
#     Edge 52, Type (0, 0), BuildingBlock: XIVTED_clean_linker_0, # of connection points: 2
#     Edge 53, Type (0, 0), BuildingBlock: XIVTED_clean_linker_0, # of connection points: 2
#     Edge 54, Type (0, 0), BuildingBlock: XIVTED_clean_linker_0, # of connection points: 2
#     Edge 55, Type (0, 0), BuildingBlock: XIVTED_clean_linker_0, # of connection points: 2
#     Edge 56, Type (0, 0), BuildingBlock: XIVTED_clean_linker_0, # of connection points: 2
#     Edge 57, Type (0, 0), BuildingBlock: XIVTED_clean_linker_0, # of connection points: 2
#     Edge 58, Type (0, 0), BuildingBlock: XIVTED_clean_linker_0, # of connection points: 2
#     Edge 59, Type (0, 0), BuildingBlock: XIVTED_clean_linker_0, # of connection points: 2
#     Edge 60, Type (0, 0), BuildingBlock: XIVTED_clean_linker_0, # of connection points: 2
#     Edge 61, Type (0, 0), BuildingBlock: XIVTED_clean_linker_0, # of connection points: 2
#     Edge 62, Type (0, 0), BuildingBlock: XIVTED_clean_linker_0, # of connection points: 2
#     Edge 63, Type (0, 0), BuildingBlock: XIVTED_clean_linker_0, # of connection points: 2
#     Edge 64, Type (0, 0), BuildingBlock: XIVTED_clean_linker_0, # of connection points: 2
#     Edge 65, Type (0, 0), BuildingBlock: XIVTED_clean_linker_0, # of connection points: 2
#     Edge 66, Type (0, 0), BuildingBlock: XIVTED_clean_linker_0, # of connection points: 2
#     Edge 67, Type (0, 0), BuildingBlock: XIVTED_clean_linker_0, # of connection points: 2
#     Edge 68, Type (0, 0), BuildingBlock: XIVTED_clean_linker_0, # of connection points: 2
#     Edge 69, Type (0, 0), BuildingBlock: XIVTED_clean_linker_0, # of connection points: 2
#     Edge 70, Type (0, 0), BuildingBlock: XIVTED_clean_linker_0, # of connection points: 2
#     Edge 71, Type (0, 0), BuildingBlock: XIVTED_clean_linker_0, # of connection points: 2
#     Edge 72, Type (0, 0), BuildingBlock: XIVTED_clean_linker_0, # of connection points: 2
#     Edge 73, Type (0, 0), BuildingBlock: XIVTED_clean_linker_0, # of connection points: 2
#     Edge 74, Type (0, 0), BuildingBlock: XIVTED_clean_linker_0, # of connection points: 2
#     Edge 75, Type (0, 0), BuildingBlock: XIVTED_clean_linker_0, # of connection points: 2
#     Edge 76, Type (0, 0), BuildingBlock: XIVTED_clean_linker_0, # of connection points: 2
#     Edge 77, Type (0, 0), BuildingBlock: XIVTED_clean_linker_0, # of connection points: 2
#     Edge 78, Type (0, 0), BuildingBlock: XIVTED_clean_linker_0, # of connection points: 2
#     Edge 79, Type (0, 0), BuildingBlock: XIVTED_clean_linker_0, # of connection points: 2
#     Edge 80, Type (0, 0), BuildingBlock: XIVTED_clean_linker_0, # of connection points: 2
#     Edge 81, Type (0, 0), BuildingBlock: XIVTED_clean_linker_0, # of connection points: 2
#     Edge 82, Type (0, 0), BuildingBlock: XIVTED_clean_linker_0, # of connection points: 2
#     Edge 83, Type (0, 0), BuildingBlock: XIVTED_clean_linker_0, # of connection points: 2
# Relax obj value: 0.054
# Max RMSD: 0.111
# Mean RMSD: 0.111
data_MOF--net-fcp--node1-XOMCOT_clean_sbu_0--edge1-XIVTED_clean_linker_0
_symmetry_space_group_name_H-M    P1
_symmetry_Int_Tables_number       1
_symmetry_cell_setting            triclinic
loop_
_symmetry_equiv_pos_as_xyz
'x, y, z'
_cell_length_a     52.062235
_cell_length_b     52.064761
_cell_length_c     52.145925
_cell_angle_alpha  89.970255
_cell_angle_beta   89.992719
_cell_angle_gamma 89.858853
loop_
_atom_site_label
_atom_site_type_symbol
_atom_site_fract_x
_atom_site_fract_y
_atom_site_fract_z
_atom_type_partial_charge
Co0 Co 0.0803 0.33415 0.17649 0.0
C1 C 0.12682 0.31438 0.14894 0.0
C2 C 0.1359 0.34118 0.17874 0.0
C3 C 0.15847 0.33214 0.16851 0.0
N4 N 0.11597 0.3306 0.16608 0.0
N5 N 0.15274 0.31523 0.14983 0.0
H6 H 0.11631 0.30149 0.13671 0.0
H7 H 0.13413 0.35393 0.19502 0.0
C8 C 0.09946 0.38793 0.16973 0.0
O9 O 0.10999 0.38085 0.14793 0.0
N10 N 0.04524 0.33754 0.18786 0.0
C11 C 0.02409 0.3277 0.17674 0.0
C12 C 1.00293 0.33521 0.19073 0.0
C13 C 0.03684 0.35044 0.20866 0.0
N14 N 0.01103 0.34939 0.21078 0.0
C15 C 0.06817 0.31788 0.1253 0.0
C16 C 0.04787 0.36378 0.10801 0.0
C17 C 0.04822 0.34267 0.09122 0.0
C18 C 0.05836 0.31943 0.10042 0.0
C19 C 0.05769 0.3613 0.13292 0.0
N20 N 0.06871 0.33883 0.14103 0.0
H21 H 0.07436 0.29937 0.13221 0.0
H22 H 0.05558 0.37733 0.14584 0.0
H23 H 0.024 0.31598 0.15963 0.0
H24 H 0.0493 0.36073 0.22169 0.0
O25 O 0.07785 0.29705 0.17913 0.0
O26 O 0.09017 0.32302 0.21039 0.0
O27 O 0.08547 0.3722 0.18232 0.0
C28 C 0.08612 0.29969 0.20254 0.0
H29 H 0.17762 0.33665 0.17521 0.0
H30 H 0.98312 0.33043 0.18664 0.0
H31 H 0.03988 0.38206 0.10213 0.0
H32 H 0.05796 0.30218 0.08886 0.0
Co33 Co 0.82641 0.43088 0.33347 0.0
C34 C 0.80932 0.38363 0.36122 0.0
C35 C 0.83609 0.37563 0.33103 0.0
C36 C 0.82795 0.35271 0.34118 0.0
N37 N 0.82494 0.39512 0.34396 0.0
N38 N 0.81105 0.35774 0.36011 0.0
H39 H 0.79613 0.39372 0.37357 0.0
H40 H 0.84835 0.37789 0.31445 0.0
C41 C 0.88225 0.41431 0.33519 0.0
O42 O 0.87886 0.40211 0.35699 0.0
N43 N 0.82792 0.46601 0.32203 0.0
C44 C 0.81858 0.48718 0.33363 0.0
C45 C 0.82547 0.50834 0.31928 0.0
C46 C 0.83984 0.47438 0.30068 0.0
N47 N 0.83873 0.50016 0.29859 0.0
C48 C 0.81179 0.44284 0.38512 0.0
C49 C 0.85784 0.46416 0.40051 0.0
C50 C 0.83704 0.46444 0.41757 0.0
C51 C 0.81381 0.45355 0.40959 0.0
C52 C 0.85488 0.45358 0.37598 0.0
N53 N 0.83224 0.44244 0.3687 0.0
H54 H 0.79328 0.43592 0.37904 0.0
H55 H 0.87051 0.45561 0.3626 0.0
H56 H 0.80791 0.48731 0.35141 0.0
H57 H 0.8498 0.46191 0.28736 0.0
O58 O 0.78908 0.432 0.33228 0.0
O59 O 0.81454 0.42086 0.30009 0.0
O60 O 0.86407 0.42755 0.32539 0.0
C61 C 0.79136 0.42436 0.30859 0.0
H62 H 0.83294 0.33379 0.33413 0.0
H63 H 0.82116 0.5282 0.32372 0.0
H64 H 0.87587 0.47313 0.40563 0.0
H65 H 0.79714 0.45367 0.42202 0.0
Co66 Co 0.92977 0.67868 0.17733 0.0
C67 C 0.88366 0.69625 0.14805 0.0
C68 C 0.87448 0.6693 0.17771 0.0
C69 C 0.85196 0.67773 0.16685 0.0
N70 N 0.89445 0.68038 0.16556 0.0
N71 N 0.85774 0.69476 0.14827 0.0
H72 H 0.89422 0.70949 0.1362 0.0
H73 H 0.8761 0.65689 0.19427 0.0
C74 C 0.91305 0.62312 0.17384 0.0
O75 O 0.90168 0.6271 0.15169 0.0
N76 N 0.96449 0.67694 0.18994 0.0
C77 C 0.9848 0.69105 0.18251 0.0
C78 C 0.00583 0.68367 0.19685 0.0
C79 C 0.97326 0.6613 0.2086 0.0
N80 N 0.99849 0.66489 0.21316 0.0
C81 C 0.94378 0.69459 0.12665 0.0
C82 C 0.96521 0.64872 0.11064 0.0
C83 C 0.96587 0.66989 0.09403 0.0
C84 C 0.95497 0.69304 0.10236 0.0
C85 C 0.95407 0.65119 0.135 0.0
N86 N 0.94278 0.67373 0.1425 0.0
H87 H 0.93671 0.713 0.13296 0.0
H88 H 0.9556 0.6352 0.14803 0.0
H89 H 0.98434 0.70564 0.16774 0.0
H90 H 0.9613 0.64792 0.219 0.0
O91 O 0.93047 0.71596 0.17933 0.0
O92 O 0.91837 0.68987 0.2106 0.0
O93 O 0.92622 0.64087 0.18435 0.0
C94 C 0.92175 0.71323 0.20258 0.0
H95 H 0.83278 0.6729 0.17322 0.0
H96 H 0.02509 0.69127 0.19517 0.0
H97 H 0.97416 0.63071 0.10529 0.0
H98 H 0.95531 0.70998 0.09031 0.0
Co99 Co 0.18178 0.58039 0.33405 0.0
C100 C 0.20424 0.6289 0.35528 0.0
C101 C 0.16388 0.62556 0.36278 0.0
C102 C 0.17235 0.64829 0.373 0.0
N103 N 0.18376 0.61338 0.35142 0.0
N104 N 0.19769 0.65046 0.36823 0.0
H105 H 0.22346 0.62483 0.34853 0.0
H106 H 0.14444 0.61847 0.36388 0.0
C107 C 0.12401 0.57362 0.32447 0.0
O108 O 0.12439 0.54858 0.32757 0.0
N109 N 0.17984 0.54747 0.31667 0.0
C110 C 0.19331 0.52607 0.32246 0.0
C111 C 0.18833 0.50758 0.30431 0.0
C112 C 0.16735 0.54186 0.29463 0.0
N113 N 0.17188 0.51749 0.287 0.0
C114 C 0.19866 0.55441 0.37935 0.0
C115 C 0.15232 0.55321 0.40507 0.0
C116 C 0.17416 0.5431 0.4172 0.0
C117 C 0.19751 0.54372 0.40386 0.0
C118 C 0.1543 0.56377 0.38041 0.0
N119 N 0.17723 0.56394 0.36756 0.0
H120 H 0.21708 0.55507 0.36995 0.0
H121 H 0.13741 0.57252 0.37239 0.0
H122 H 0.20636 0.524 0.33839 0.0
H123 H 0.15539 0.55534 0.28424 0.0
O124 O 0.21907 0.57897 0.33097 0.0
O125 O 0.19265 0.59594 0.30236 0.0
O126 O 0.14412 0.58705 0.32827 0.0
C127 C 0.21604 0.59032 0.30891 0.0
H128 H 0.16075 0.66201 0.38347 0.0
H129 H 0.19595 0.48821 0.304 0.0
H130 H 0.13397 0.55376 0.41485 0.0
H131 H 0.21492 0.53601 0.41226 0.0
Co132 Co 0.07829 0.68167 0.83347 0.0
C133 C 0.12529 0.70616 0.85534 0.0
C134 C 0.12861 0.66516 0.85336 0.0
C135 C 0.1503 0.67465 0.86472 0.0
N136 N 0.11289 0.68484 0.84714 0.0
N137 N 0.14823 0.70041 0.86619 0.0
H138 H 0.11732 0.72532 0.85433 0.0
H139 H 0.12451 0.64503 0.85091 0.0
C140 C 0.07336 0.62432 0.81951 0.0
O141 O 0.04816 0.62378 0.82021 0.0
N142 N 0.04365 0.67866 0.8202 0.0
C143 C 0.02178 0.68383 0.83305 0.0
C144 C 1.00124 0.67733 0.81788 0.0
C145 C 0.03609 0.67021 0.79687 0.0
N146 N 0.01024 0.66857 0.79527 0.0
C147 C 0.06506 0.6973 0.88412 0.0
C148 C 0.04931 0.65027 0.90283 0.0
C149 C 0.04757 0.67182 0.91893 0.0
C150 C 0.05574 0.69556 0.90916 0.0
C151 C 0.05863 0.65288 0.87775 0.0
N152 N 0.06608 0.67628 0.86851 0.0
H153 H 0.07124 0.7158 0.87719 0.0
H154 H 0.05965 0.63598 0.86606 0.0
H155 H 0.02068 0.69114 0.85241 0.0
H156 H 0.0492 0.66353 0.78219 0.0
O157 O 0.07508 0.71892 0.83095 0.0
O158 O 0.08991 0.69334 0.80046 0.0
O159 O 0.08579 0.64418 0.82673 0.0
C160 C 0.08453 0.71651 0.80793 0.0
H161 H 0.16627 0.66323 0.87157 0.0
H162 H 0.98119 0.67822 0.82332 0.0
H163 H 0.04373 0.63141 0.90956 0.0
H164 H 0.05453 0.7129 0.92054 0.0
Co165 Co 0.18395 0.42952 0.67735 0.0
C166 C 0.20151 0.38176 0.65026 0.0
C167 C 0.17462 0.37438 0.68047 0.0
C168 C 0.18257 0.35127 0.67059 0.0
N169 N 0.18592 0.39361 0.66735 0.0
N170 N 0.19954 0.35591 0.65164 0.0
H171 H 0.21478 0.39151 0.63778 0.0
H172 H 0.16226 0.37694 0.69694 0.0
C173 C 0.12854 0.41251 0.67441 0.0
O174 O 0.13261 0.40097 0.65237 0.0
N175 N 0.18179 0.46474 0.68835 0.0
C176 C 0.19503 0.48507 0.67951 0.0
C177 C 0.18721 0.5066 0.69287 0.0
C178 C 0.16629 0.47396 0.70688 0.0
N179 N 0.16906 0.49952 0.70999 0.0
C180 C 0.19868 0.44049 0.6256 0.0
C181 C 0.15326 0.46339 0.6103 0.0
C182 C 0.17394 0.46273 0.59306 0.0
C183 C 0.19681 0.45092 0.60102 0.0
C184 C 0.15599 0.45277 0.63486 0.0
N185 N 0.1783 0.44083 0.64207 0.0
H186 H 0.21705 0.43316 0.6317 0.0
H187 H 0.1405 0.45533 0.64834 0.0
H188 H 0.2092 0.48432 0.66436 0.0
H189 H 0.15351 0.46211 0.71813 0.0
O190 O 0.22122 0.43099 0.67868 0.0
O191 O 0.19587 0.41992 0.71095 0.0
O192 O 0.14627 0.42571 0.68491 0.0
C193 C 0.21903 0.42345 0.7024 0.0
H194 H 0.17737 0.33248 0.67777 0.0
H195 H 0.19402 0.52599 0.6899 0.0
H196 H 0.13552 0.47307 0.6053 0.0
H197 H 0.2134 0.45013 0.58851 0.0
Co198 Co 0.93365 0.3264 0.8317 0.0
C199 C 0.8867 0.30954 0.86007 0.0
C200 C 0.87825 0.3351 0.82895 0.0
C201 C 0.85547 0.32712 0.83953 0.0
N202 N 0.89792 0.3246 0.84217 0.0
N203 N 0.86079 0.31098 0.85903 0.0
H204 H 0.89697 0.29698 0.87291 0.0
H205 H 0.88031 0.34689 0.812 0.0
C206 C 0.91597 0.38171 0.83337 0.0
O207 O 0.90451 0.37797 0.85552 0.0
N208 N 0.96878 0.32821 0.82032 0.0
C209 C 0.98985 0.31857 0.83186 0.0
C210 C 0.01111 0.32565 0.81779 0.0
C211 C 0.9773 0.34052 0.79925 0.0
N212 N 1.00309 0.33934 0.79731 0.0
C213 C 0.94591 0.31211 0.88336 0.0
C214 C 0.96666 0.35844 0.89865 0.0
C215 C 0.96726 0.33765 0.91574 0.0
C216 C 0.95663 0.3143 0.9078 0.0
C217 C 0.95604 0.35532 0.87414 0.0
N218 N 0.94517 0.33253 0.86691 0.0
H219 H 0.93923 0.2935 0.87733 0.0
H220 H 0.95781 0.37096 0.86072 0.0
H221 H 0.98984 0.30753 0.84943 0.0
H222 H 0.96493 0.35076 0.78603 0.0
O223 O 0.93515 0.28907 0.83077 0.0
O224 O 0.92374 0.31414 0.79838 0.0
O225 O 0.9297 0.36398 0.82339 0.0
C226 C 0.92737 0.29105 0.80711 0.0
H227 H 0.83645 0.33171 0.83248 0.0
H228 H 0.03092 0.32113 0.82225 0.0
H229 H 0.97541 0.37659 0.90373 0.0
H230 H 0.95698 0.29763 0.92024 0.0
Co231 Co 0.82871 0.57822 0.67745 0.0
C232 C 0.81064 0.626 0.65083 0.0
C233 C 0.83704 0.63353 0.68142 0.0
C234 C 0.82877 0.65661 0.67167 0.0
N235 N 0.82622 0.61425 0.668 0.0
N236 N 0.81212 0.65187 0.65248 0.0
H237 H 0.79777 0.61615 0.63803 0.0
H238 H 0.84938 0.63098 0.69792 0.0
C239 C 0.88367 0.59614 0.67375 0.0
O240 O 0.87859 0.60818 0.65218 0.0
N241 N 0.83121 0.54279 0.68786 0.0
C242 C 0.82099 0.52211 0.67623 0.0
C243 C 0.82852 0.50043 0.68945 0.0
C244 C 0.84438 0.5336 0.70817 0.0
N245 N 0.84314 0.50775 0.70952 0.0
C246 C 0.81325 0.56773 0.62574 0.0
C247 C 0.85917 0.54722 0.60879 0.0
C248 C 0.83827 0.54796 0.59175 0.0
C249 C 0.81504 0.55829 0.60075 0.0
C250 C 0.85646 0.55668 0.63381 0.0
N251 N 0.83394 0.56764 0.64181 0.0
H252 H 0.79473 0.57412 0.63245 0.0
H253 H 0.87231 0.5542 0.64688 0.0
H254 H 0.80915 0.52269 0.6592 0.0
H255 H 0.85514 0.54553 0.72131 0.0
O256 O 0.79148 0.57647 0.67934 0.0
O257 O 0.81722 0.58721 0.71137 0.0
O258 O 0.86657 0.58223 0.68448 0.0
C259 C 0.79395 0.58375 0.7031 0.0
H260 H 0.83362 0.67542 0.67903 0.0
H261 H 0.82358 0.48081 0.68475 0.0
H262 H 0.87746 0.53914 0.60303 0.0
H263 H 0.79794 0.55827 0.58893 0.0
Co264 Co 0.17549 0.08182 0.32689 0.0
C265 C 0.15679 0.13255 0.30706 0.0
C266 C 0.14795 0.12758 0.34684 0.0
C267 C 0.13799 0.15072 0.3389 0.0
N268 N 0.15997 0.11609 0.32698 0.0
N269 N 0.14348 0.15381 0.31386 0.0
H270 H 0.16358 0.129 0.28781 0.0
H271 H 0.14547 0.11958 0.36565 0.0
C272 C 0.1757 0.08471 0.38715 0.0
O273 O 0.15135 0.08038 0.39204 0.0
N274 N 0.19111 0.04804 0.32691 0.0
C275 C 0.1868 0.02898 0.30999 0.0
C276 C 0.20297 0.00873 0.31567 0.0
C277 C 0.20967 0.03915 0.3427 0.0
N278 N 0.21721 0.01519 0.33627 0.0
C279 C 0.12263 0.0743 0.31616 0.0
C280 C 0.11321 0.03601 0.35169 0.0
C281 C 0.09318 0.044 0.33545 0.0
C282 C 0.09822 0.0635 0.31762 0.0
C283 C 0.13757 0.04735 0.34951 0.0
N284 N 0.14183 0.0666 0.33222 0.0
H285 H 0.12626 0.08869 0.3017 0.0
H286 H 0.15308 0.04039 0.36142 0.0
H287 H 0.17306 0.02985 0.29446 0.0
H288 H 0.21802 0.05014 0.35815 0.0
O289 O 0.17654 0.08187 0.28948 0.0
O290 O 0.20725 0.09604 0.31527 0.0
O291 O 0.1842 0.08535 0.36423 0.0
C292 C 0.19934 0.09197 0.29202 0.0
H293 H 0.12666 0.16376 0.35047 0.0
H294 H 0.20407 0.99061 0.30555 0.0
H295 H 0.11032 0.02066 0.36539 0.0
H296 H 0.08342 0.07037 0.30472 0.0
Co297 Co 0.57501 0.33314 0.18462 0.0
C298 C 0.62256 0.35992 0.20234 0.0
C299 C 0.63032 0.32922 0.17609 0.0
C300 C 0.65332 0.33895 0.18442 0.0
N301 N 0.61095 0.34273 0.18678 0.0
N302 N 0.64843 0.3582 0.201 0.0
H303 H 0.61258 0.37268 0.2152 0.0
H304 H 0.62788 0.31257 0.16394 0.0
C305 C 0.59303 0.33542 0.12962 0.0
O306 O 0.60463 0.35742 0.1338 0.0
N307 N 0.5397 0.32256 0.18239 0.0
C308 C 0.51878 0.3343 0.19213 0.0
C309 C 0.49731 0.32086 0.18449 0.0
C310 C 0.53087 0.30201 0.16944 0.0
N311 N 0.50504 0.30058 0.17031 0.0
C312 C 0.56417 0.3851 0.19941 0.0
C313 C 0.54419 0.40173 0.15322 0.0
C314 C 0.54483 0.41905 0.17388 0.0
C315 C 0.55485 0.41019 0.19726 0.0
C316 C 0.55355 0.37662 0.15627 0.0
N317 N 0.56426 0.36878 0.17893 0.0
H318 H 0.57042 0.37856 0.218 0.0
H319 H 0.55129 0.36338 0.14056 0.0
H320 H 0.51905 0.35161 0.20358 0.0
H321 H 0.54308 0.28884 0.15894 0.0
O322 O 0.57341 0.33164 0.22188 0.0
O323 O 0.58423 0.29936 0.19642 0.0
O324 O 0.57899 0.32537 0.14699 0.0
C325 C 0.58085 0.30784 0.21959 0.0
H326 H 0.67217 0.33146 0.17979 0.0
H327 H 0.47756 0.32563 0.18893 0.0
H328 H 0.53635 0.40736 0.13483 0.0
H329 H 0.55475 0.42222 0.21419 0.0
Co330 Co 0.83222 0.93196 0.32605 0.0
C331 C 0.85063 0.88152 0.30551 0.0
C332 C 0.85874 0.88531 0.34556 0.0
C333 C 0.86854 0.86226 0.33723 0.0
N334 N 0.84729 0.8975 0.32577 0.0
N335 N 0.86352 0.85993 0.31202 0.0
H336 H 0.84427 0.88565 0.28623 0.0
H337 H 0.86091 0.89271 0.36464 0.0
C338 C 0.83197 0.92814 0.38611 0.0
O339 O 0.85645 0.93206 0.39072 0.0
N340 N 0.81704 0.96589 0.32638 0.0
C341 C 0.82181 0.98518 0.30982 0.0
C342 C 0.8058 0.00551 0.31561 0.0
C343 C 0.79836 0.9747 0.34204 0.0
N344 N 0.79119 0.99885 0.3359 0.0
C345 C 0.88539 0.93884 0.31609 0.0
C346 C 0.89473 0.97687 0.35186 0.0
C347 C 0.91493 0.96867 0.33594 0.0
C348 C 0.90992 0.9493 0.31798 0.0
C349 C 0.87027 0.96585 0.34927 0.0
N350 N 0.86603 0.94669 0.33189 0.0
H351 H 0.88181 0.92459 0.3015 0.0
H352 H 0.85467 0.97294 0.36101 0.0
H353 H 0.83577 0.98441 0.29448 0.0
H354 H 0.78965 0.96352 0.35718 0.0
O355 O 0.83154 0.93248 0.28864 0.0
O356 O 0.80039 0.91832 0.31392 0.0
O357 O 0.82316 0.92797 0.3633 0.0
C358 C 0.8086 0.92258 0.29081 0.0
H359 H 0.87944 0.84875 0.34868 0.0
H360 H 0.80506 0.02382 0.30579 0.0
H361 H 0.89758 0.99214 0.36565 0.0
H362 H 0.92484 0.94226 0.30531 0.0
Co363 Co 0.43268 0.68048 0.1831 0.0
C364 C 0.38465 0.65452 0.20122 0.0
C365 C 0.37743 0.68583 0.1755 0.0
C366 C 0.35428 0.67664 0.18403 0.0
N367 N 0.39655 0.67164 0.18574 0.0
N368 N 0.3588 0.657 0.20027 0.0
H369 H 0.39446 0.64123 0.2137 0.0
H370 H 0.38018 0.70256 0.16353 0.0
C371 C 0.41386 0.6788 0.12832 0.0
O372 O 0.40168 0.65714 0.13262 0.0
N373 N 0.4682 0.69037 0.18037 0.0
C374 C 0.489 0.67827 0.18992 0.0
C375 C 0.51063 0.69132 0.18206 0.0
C376 C 0.47729 0.71076 0.1673 0.0
N377 N 0.50316 0.71173 0.16793 0.0
C378 C 0.44308 0.62845 0.19788 0.0
C379 C 0.4632 0.61189 0.1517 0.0
C380 C 0.4636 0.59508 0.17273 0.0
C381 C 0.45322 0.60366 0.19598 0.0
C382 C 0.45316 0.63676 0.15452 0.0
N383 N 0.4427 0.64467 0.17728 0.0
H384 H 0.43665 0.63494 0.21642 0.0
H385 H 0.45512 0.64991 0.13867 0.0
H386 H 0.48852 0.661 0.20144 0.0
H387 H 0.46523 0.7242 0.15695 0.0
O388 O 0.43486 0.68186 0.22032 0.0
O389 O 0.42435 0.71442 0.19505 0.0
O390 O 0.42837 0.68842 0.14553 0.0
C391 C 0.42798 0.70584 0.21816 0.0
H392 H 0.33562 0.6848 0.17976 0.0
H393 H 0.53033 0.68622 0.18639 0.0
H394 H 0.47173 0.60631 0.13359 0.0
H395 H 0.45339 0.59145 0.21281 0.0
Co396 Co 0.17815 0.93129 0.68103 0.0
C397 C 0.15021 0.88458 0.70007 0.0
C398 C 0.18028 0.87585 0.67337 0.0
C399 C 0.17015 0.85317 0.68211 0.0
N400 N 0.16742 0.89565 0.68405 0.0
N401 N 0.15129 0.85863 0.69896 0.0
H402 H 0.13785 0.89498 0.713 0.0
H403 H 0.19672 0.87777 0.66083 0.0
C404 C 0.17229 0.91266 0.62684 0.0
O405 O 0.15048 0.90169 0.63316 0.0
N406 N 0.1899 0.96624 0.67819 0.0
C407 C 0.1835 0.98611 0.69345 0.0
C408 C 0.19878 0.00678 0.6872 0.0
C409 C 0.20878 0.97499 0.66281 0.0
N410 N 0.21457 0.9997 0.66793 0.0
C411 C 0.12715 0.94425 0.69738 0.0
C412 C 0.11032 0.9654 0.65175 0.0
C413 C 0.09387 0.96586 0.67303 0.0
C414 C 0.10263 0.95512 0.69606 0.0
C415 C 0.13494 0.95467 0.65401 0.0
N416 N 0.14286 0.94344 0.67641 0.0
H417 H 0.1338 0.93736 0.71571 0.0
H418 H 0.14787 0.95643 0.63795 0.0
H419 H 0.16936 0.98534 0.70863 0.0
H420 H 0.21895 0.96318 0.64904 0.0
O421 O 0.18067 0.9333 0.71812 0.0
O422 O 0.21199 0.92104 0.69209 0.0
O423 O 0.18426 0.92657 0.64307 0.0
C424 C 0.20417 0.92514 0.7154 0.0
H425 H 0.17712 0.83413 0.67749 0.0
H426 H 0.19858 0.02546 0.69632 0.0
H427 H 0.10463 0.97428 0.63383 0.0
H428 H 0.09073 0.9554 0.7131 0.0
Co429 Co 0.43582 0.33139 0.82529 0.0
C430 C 0.38774 0.35829 0.8084 0.0
C431 C 0.38068 0.3272 0.83439 0.0
C432 C 0.35746 0.33703 0.82665 0.0
N433 N 0.39976 0.34088 0.8235 0.0
N434 N 0.3619 0.35652 0.81025 0.0
H435 H 0.39738 0.37132 0.79557 0.0
H436 H 0.38346 0.31044 0.84634 0.0
C437 C 0.41838 0.33385 0.88036 0.0
O438 O 0.4066 0.3558 0.87613 0.0
N439 N 0.47126 0.32089 0.82718 0.0
C440 C 0.49194 0.33263 0.81707 0.0
C441 C 0.51363 0.31935 0.82456 0.0
C442 C 0.48045 0.30049 0.84022 0.0
N443 N 0.50628 0.29917 0.83903 0.0
C444 C 0.44635 0.38335 0.81045 0.0
C445 C 0.46763 0.3993 0.85629 0.0
C446 C 0.46737 0.41635 0.83549 0.0
C447 C 0.45651 0.40808 0.81236 0.0
C448 C 0.45759 0.37453 0.85344 0.0
N449 N 0.44642 0.36697 0.83092 0.0
H450 H 0.43948 0.37705 0.79201 0.0
H451 H 0.46006 0.36118 0.86905 0.0
H452 H 0.49136 0.34984 0.80546 0.0
H453 H 0.46851 0.28734 0.85099 0.0
O454 O 0.43712 0.32998 0.78805 0.0
O455 O 0.42677 0.29762 0.81362 0.0
O456 O 0.43226 0.32365 0.86292 0.0
C457 C 0.42995 0.30613 0.79043 0.0
H458 H 0.33875 0.32947 0.8316 0.0
H459 H 0.53328 0.32418 0.81982 0.0
H460 H 0.47663 0.40464 0.87423 0.0
H461 H 0.45626 0.42049 0.79568 0.0
Co462 Co 0.83153 0.07591 0.6853 0.0
C463 C 0.85895 0.12353 0.70199 0.0
C464 C 0.828 0.13112 0.67597 0.0
C465 C 0.83812 0.15417 0.6837 0.0
N466 N 0.84142 0.11181 0.68688 0.0
N467 N 0.85753 0.14939 0.70012 0.0
H468 H 0.8718 0.11367 0.71487 0.0
H469 H 0.81119 0.12864 0.66404 0.0
C470 C 0.83298 0.09295 0.62986 0.0
O471 O 0.85498 0.10474 0.63344 0.0
N472 N 0.82063 0.04064 0.68361 0.0
C473 C 0.83254 0.01963 0.69294 0.0
C474 C 0.81871 0.99826 0.68571 0.0
C475 C 0.7996 0.03196 0.67132 0.0
N476 N 0.79802 0.00614 0.67221 0.0
C477 C 0.88369 0.06501 0.69925 0.0
C478 C 0.89939 0.04442 0.65302 0.0
C479 C 0.91709 0.04527 0.67335 0.0
C480 C 0.90871 0.0556 0.69677 0.0
C481 C 0.87436 0.05386 0.65643 0.0
N482 N 0.86698 0.06487 0.67909 0.0
H483 H 0.87753 0.07152 0.71788 0.0
H484 H 0.86081 0.0514 0.64101 0.0
H485 H 0.85024 0.01976 0.70378 0.0
H486 H 0.78619 0.04426 0.66123 0.0
O487 O 0.83077 0.07463 0.72257 0.0
O488 O 0.79805 0.08548 0.69767 0.0
O489 O 0.8231 0.07947 0.64776 0.0
C490 C 0.80697 0.08218 0.7207 0.0
H491 H 0.83082 0.17301 0.67872 0.0
H492 H 0.82351 0.97846 0.68994 0.0
H493 H 0.90464 0.03634 0.63463 0.0
H494 H 0.92104 0.05566 0.71348 0.0
Co495 Co 0.57639 0.67812 0.8247 0.0
C496 C 0.6244 0.65162 0.80684 0.0
C497 C 0.63172 0.6832 0.83211 0.0
C498 C 0.65486 0.67351 0.82396 0.0
N499 N 0.61254 0.66916 0.82192 0.0
N500 N 0.65026 0.65369 0.80802 0.0
H501 H 0.61461 0.6382 0.79456 0.0
H502 H 0.62904 0.70005 0.84395 0.0
C503 C 0.59537 0.67593 0.87928 0.0
O504 O 0.60733 0.65414 0.87477 0.0
N505 N 0.54087 0.68811 0.82758 0.0
C506 C 0.52005 0.67608 0.81811 0.0
C507 C 0.49844 0.68929 0.82594 0.0
C508 C 0.53182 0.70859 0.84058 0.0
N509 N 0.50595 0.70971 0.83998 0.0
C510 C 0.56647 0.6261 0.81001 0.0
C511 C 0.54722 0.6092 0.85638 0.0
C512 C 0.54787 0.59198 0.83565 0.0
C513 C 0.55754 0.60094 0.81219 0.0
C514 C 0.55619 0.63438 0.85329 0.0
N515 N 0.56651 0.64237 0.83052 0.0
H516 H 0.57242 0.63273 0.79136 0.0
H517 H 0.55387 0.64758 0.86905 0.0
H518 H 0.52051 0.6588 0.80664 0.0
H519 H 0.54391 0.722 0.85081 0.0
O520 O 0.57404 0.67952 0.78752 0.0
O521 O 0.58462 0.71205 0.81274 0.0
O522 O 0.58086 0.6859 0.86222 0.0
C523 C 0.58093 0.70346 0.78966 0.0
H524 H 0.6736 0.6813 0.82839 0.0
H525 H 0.47873 0.68432 0.8216 0.0
H526 H 0.53961 0.60345 0.87482 0.0
H527 H 0.55741 0.58895 0.79523 0.0
Co528 Co 0.32749 0.18003 0.07529 0.0
C529 C 0.30721 0.15688 0.12375 0.0
C530 C 0.3378 0.18349 0.13023 0.0
C531 C 0.3284 0.17582 0.15352 0.0
N532 N 0.32514 0.17109 0.11142 0.0
N533 N 0.3089 0.15925 0.14957 0.0
H534 H 0.29197 0.14672 0.11418 0.0
H535 H 0.3519 0.1984 0.12732 0.0
C536 C 0.38298 0.17701 0.09213 0.0
O537 O 0.37898 0.15467 0.10317 0.0
N538 N 0.32986 0.19006 0.03984 0.0
C539 C 0.32048 0.17795 0.01905 0.0
C540 C 0.32795 0.19138 0.9975 0.0
C541 C 0.34239 0.2108 0.03087 0.0
N542 N 0.34161 0.21202 0.00507 0.0
C543 C 0.31379 0.12725 0.06703 0.0
C544 C 0.35921 0.11217 0.04407 0.0
C545 C 0.3393 0.09413 0.04622 0.0
C546 C 0.3163 0.10215 0.05784 0.0
C547 C 0.35575 0.13721 0.05321 0.0
N548 N 0.33354 0.14434 0.0653 0.0
H549 H 0.2954 0.13323 0.07437 0.0
H550 H 0.3707 0.15105 0.0496 0.0
H551 H 0.30938 0.16042 0.01949 0.0
H552 H 0.35248 0.22434 0.04297 0.0
O553 O 0.29019 0.18141 0.07335 0.0
O554 O 0.31562 0.21388 0.08372 0.0
O555 O 0.36516 0.18778 0.07917 0.0
C556 C 0.29246 0.20538 0.08021 0.0
H557 H 0.33496 0.18288 0.17186 0.0
H558 H 0.32369 0.18639 0.9778 0.0
H559 H 0.3773 0.1072 0.03509 0.0
H560 H 0.29987 0.0895 0.059 0.0
Co561 Co 0.32756 0.83484 0.93191 0.0
C562 C 0.31151 0.86177 0.88365 0.0
C563 C 0.33747 0.83049 0.877 0.0
C564 C 0.32991 0.84014 0.8537 0.0
N565 N 0.32651 0.84439 0.8959 0.0
N566 N 0.31352 0.85976 0.85787 0.0
H567 H 0.29852 0.87482 0.8931 0.0
H568 H 0.34919 0.81356 0.87993 0.0
C569 C 0.38301 0.83528 0.91536 0.0
O570 O 0.37975 0.85768 0.90418 0.0
N571 N 0.32874 0.82416 0.9673 0.0
C572 C 0.3191 0.8363 0.98799 0.0
C573 C 0.32595 0.82262 0.0096 0.0
C574 C 0.34083 0.80313 0.97642 0.0
N575 N 0.33953 0.80178 1.00222 0.0
C576 C 0.31459 0.88724 0.9422 0.0
C577 C 0.36016 0.90121 0.96545 0.0
C578 C 0.33974 0.91881 0.96506 0.0
C579 C 0.31683 0.91159 0.95309 0.0
C580 C 0.35696 0.87675 0.95465 0.0
N581 N 0.33453 0.87013 0.94267 0.0
H582 H 0.29615 0.88176 0.93467 0.0
H583 H 0.3721 0.86283 0.95725 0.0
H584 H 0.30829 0.85406 0.98747 0.0
H585 H 0.35107 0.78954 0.96447 0.0
O586 O 0.29031 0.83544 0.93293 0.0
O587 O 0.31419 0.80165 0.92271 0.0
O588 O 0.36494 0.8254 0.92863 0.0
C589 C 0.29145 0.81153 0.92576 0.0
H590 H 0.33486 0.83229 0.83513 0.0
H591 H 0.32139 0.82762 0.02923 0.0
H592 H 0.37793 0.90582 0.9752 0.0
H593 H 0.30047 0.92449 0.9527 0.0
Co594 Co 0.33374 0.1787 0.57858 0.0
C595 C 0.36094 0.19734 0.6258 0.0
C596 C 0.33172 0.16961 0.63384 0.0
C597 C 0.34169 0.178 0.65671 0.0
N598 N 0.34425 0.18111 0.61432 0.0
N599 N 0.36002 0.19549 0.65163 0.0
H600 H 0.37271 0.21106 0.61587 0.0
H601 H 0.31557 0.15677 0.63165 0.0
C602 C 0.33909 0.1241 0.5961 0.0
O603 O 0.36135 0.12987 0.60646 0.0
N604 N 0.32211 0.17632 0.54366 0.0
C605 C 0.33169 0.18844 0.52298 0.0
C606 C 0.31776 0.18099 0.50178 0.0
C607 C 0.3024 0.16201 0.53501 0.0
N608 N 0.29936 0.1644 0.50942 0.0
C609 C 0.38609 0.19283 0.56795 0.0
C610 C 0.40004 0.1481 0.54304 0.0
C611 C 0.41824 0.16772 0.5456 0.0
C612 C 0.41099 0.1903 0.55824 0.0
C613 C 0.37548 0.15118 0.55364 0.0
N614 N 0.36897 0.17304 0.56671 0.0
H615 H 0.38031 0.21124 0.57537 0.0
H616 H 0.36145 0.13631 0.5504 0.0
H617 H 0.34771 0.20162 0.52329 0.0
H618 H 0.29084 0.14977 0.54716 0.0
O619 O 0.33214 0.21593 0.57669 0.0
O620 O 0.30019 0.19051 0.58861 0.0
O621 O 0.32686 0.14083 0.58297 0.0
C622 C 0.30853 0.21369 0.58467 0.0
H623 H 0.33497 0.1727 0.67562 0.0
H624 H 0.32084 0.18744 0.48229 0.0
H625 H 0.40469 0.13063 0.53276 0.0
H626 H 0.42414 0.20635 0.55962 0.0
Co627 Co 0.68491 0.17935 0.9361 0.0
C628 C 0.70267 0.15249 0.88833 0.0
C629 C 0.6772 0.18403 0.88085 0.0
C630 C 0.68516 0.17409 0.8578 0.0
N631 N 0.68762 0.17015 0.90008 0.0
N632 N 0.70121 0.15431 0.8625 0.0
H633 H 0.71506 0.13912 0.89815 0.0
H634 H 0.66528 0.20087 0.88343 0.0
C635 C 0.63025 0.17652 0.9173 0.0
O636 O 0.63504 0.15466 0.90563 0.0
N637 N 0.68209 0.18956 0.97149 0.0
C638 C 0.69176 0.17768 0.99232 0.0
C639 C 0.68389 0.19091 0.01385 0.0
C640 C 0.66893 0.21001 0.98045 0.0
N641 N 0.66962 0.21123 0.00628 0.0
C642 C 0.70027 0.12748 0.94651 0.0
C643 C 0.65399 0.11026 0.96576 0.0
C644 C 0.67493 0.09318 0.96526 0.0
C645 C 0.69835 0.10233 0.9556 0.0
C646 C 0.65683 0.13545 0.95669 0.0
N647 N 0.67954 0.14359 0.94634 0.0
H648 H 0.71887 0.13424 0.94048 0.0
H649 H 0.6409 0.14852 0.95891 0.0
H650 H 0.70339 0.16045 0.99194 0.0
H651 H 0.65849 0.22331 0.96834 0.0
O652 O 0.72215 0.18114 0.93818 0.0
O653 O 0.6964 0.21333 0.92747 0.0
O654 O 0.6472 0.18674 0.93172 0.0
C655 C 0.71966 0.205 0.93105 0.0
H656 H 0.68047 0.18164 0.83902 0.0
H657 H 0.68833 0.18602 0.03354 0.0
H658 H 0.63554 0.1044 0.9733 0.0
H659 H 0.71547 0.09049 0.95582 0.0
Co660 Co 0.67755 0.82771 0.57667 0.0
C661 C 0.64945 0.81044 0.62369 0.0
C662 C 0.68068 0.83588 0.63194 0.0
C663 C 0.67015 0.82799 0.65474 0.0
N664 N 0.66735 0.82544 0.61239 0.0
N665 N 0.65057 0.81194 0.64954 0.0
H666 H 0.63648 0.79796 0.61354 0.0
H667 H 0.69761 0.84768 0.62978 0.0
C668 C 0.67506 0.88274 0.59491 0.0
O669 O 0.65307 0.87857 0.60656 0.0
N670 N 0.68875 0.83011 0.54159 0.0
C671 C 0.67849 0.81883 0.52077 0.0
C672 C 0.69211 0.82669 0.49949 0.0
C673 C 0.70855 0.84428 0.53292 0.0
N674 N 0.71099 0.84268 0.50722 0.0
C675 C 0.62586 0.81291 0.56491 0.0
C676 C 0.60922 0.85949 0.54567 0.0
C677 C 0.59192 0.8388 0.54601 0.0
C678 C 0.60081 0.8152 0.5556 0.0
C679 C 0.6343 0.85627 0.55499 0.0
N680 N 0.64211 0.83343 0.56541 0.0
H681 H 0.63238 0.79422 0.57103 0.0
H682 H 0.64751 0.87206 0.55304 0.0
H683 H 0.66215 0.80606 0.52101 0.0
H684 H 0.72052 0.85603 0.54514 0.0
O685 O 0.67915 0.79041 0.57496 0.0
O686 O 0.71121 0.81585 0.58629 0.0
O687 O 0.68514 0.86536 0.58086 0.0
C688 C 0.70284 0.79266 0.58266 0.0
H689 H 0.67723 0.83261 0.6737 0.0
H690 H 0.68841 0.82104 0.47987 0.0
H691 H 0.60358 0.87804 0.53816 0.0
H692 H 0.5888 0.79826 0.55525 0.0
Co693 Co 0.68295 0.83095 0.07462 0.0
C694 C 0.7021 0.85413 0.12359 0.0
C695 C 0.67217 0.82662 0.12934 0.0
C696 C 0.68097 0.83432 0.15284 0.0
N697 N 0.6848 0.83951 0.11086 0.0
N698 N 0.70004 0.85152 0.14938 0.0
H699 H 0.71705 0.86494 0.1143 0.0
H700 H 0.65843 0.81145 0.12603 0.0
C701 C 0.62738 0.83428 0.09102 0.0
O702 O 0.63157 0.8564 0.1024 0.0
N703 N 0.68105 0.82127 0.03905 0.0
C704 C 0.69113 0.83341 0.01858 0.0
C705 C 0.68399 0.82029 0.99675 0.0
C706 C 0.66839 0.80082 0.02959 0.0
N707 N 0.66979 0.79982 1.0038 0.0
C708 C 0.69794 0.8833 0.06632 0.0
C709 C 0.65305 0.89958 0.04306 0.0
C710 C 0.67372 0.91669 0.0447 0.0
C711 C 0.69635 0.90827 0.05659 0.0
C712 C 0.65559 0.87458 0.0527 0.0
N713 N 0.67762 0.86683 0.0648 0.0
H714 H 0.7161 0.87688 0.07388 0.0
H715 H 0.64022 0.86119 0.04921 0.0
H716 H 0.70256 0.8507 0.01943 0.0
H717 H 0.65783 0.78732 0.04133 0.0
O718 O 0.72024 0.82916 0.07326 0.0
O719 O 0.69436 0.79685 0.08297 0.0
O720 O 0.64512 0.82359 0.07789 0.0
C721 C 0.71766 0.80516 0.0799 0.0
H722 H 0.67426 0.82683 0.17095 0.0
H723 H 0.68888 0.82536 0.97722 0.0
H724 H 0.63552 0.90504 0.03327 0.0
H725 H 0.71293 0.92073 0.0579 0.0
Co726 Co 0.33226 0.83346 0.42975 0.0
C727 C 0.3615 0.81584 0.38344 0.0
C728 C 0.33169 0.84286 0.37454 0.0
C729 C 0.3425 0.83466 0.35198 0.0
N730 N 0.34399 0.83166 0.3944 0.0
N731 N 0.36117 0.81759 0.35757 0.0
H732 H 0.37344 0.80249 0.39381 0.0
H733 H 0.31511 0.8553 0.37629 0.0
C734 C 0.33756 0.88821 0.41263 0.0
O735 O 0.36006 0.88248 0.40271 0.0
N736 N 0.31961 0.83501 0.46446 0.0
C737 C 0.32595 0.81915 0.48388 0.0
C738 C 0.31045 0.82468 0.50459 0.0
C739 C 0.30052 0.85005 0.47353 0.0
N740 N 0.29456 0.8441 0.49802 0.0
C741 C 0.38333 0.8178 0.44334 0.0
C742 C 0.39874 0.86324 0.46586 0.0
C743 C 0.41573 0.8423 0.46589 0.0
C744 C 0.40766 0.81935 0.4545 0.0
C745 C 0.37431 0.86074 0.45479 0.0
N746 N 0.36714 0.83848 0.44283 0.0
H747 H 0.37724 0.79949 0.43594 0.0
H748 H 0.36096 0.87647 0.45679 0.0
H749 H 0.34031 0.80415 0.48279 0.0
H750 H 0.29045 0.86425 0.46216 0.0
O751 O 0.33069 0.79622 0.43066 0.0
O752 O 0.299 0.82183 0.41835 0.0
O753 O 0.32535 0.8715 0.42577 0.0
C754 C 0.30741 0.79856 0.42187 0.0
H755 H 0.33607 0.83969 0.33288 0.0
H756 H 0.31066 0.81504 0.52299 0.0
H757 H 0.40389 0.88106 0.47523 0.0
H758 H 0.41997 0.80254 0.45445 0.0
Co759 Co 0.67794 0.18016 0.43214 0.0
C760 C 0.65136 0.19966 0.38469 0.0
C761 C 0.68118 0.17241 0.37674 0.0
C762 C 0.67143 0.18102 0.35384 0.0
N763 N 0.66816 0.18347 0.39622 0.0
N764 N 0.65271 0.19819 0.35884 0.0
H765 H 0.63907 0.21299 0.39461 0.0
H766 H 0.69741 0.1596 0.37903 0.0
C767 C 0.67229 0.12624 0.41323 0.0
O768 O 0.65013 0.13281 0.40304 0.0
N769 N 0.68882 0.17693 0.46732 0.0
C770 C 0.67757 0.18713 0.48824 0.0
C771 C 0.6911 0.17934 0.5096 0.0
C772 C 0.70923 0.16354 0.47604 0.0
N773 N 0.71099 0.16461 0.50183 0.0
C774 C 0.62533 0.19445 0.4421 0.0
C775 C 0.61106 0.14929 0.46597 0.0
C776 C 0.59292 0.16907 0.46365 0.0
C777 C 0.60031 0.19187 0.45151 0.0
C778 C 0.63572 0.15245 0.45572 0.0
N779 N 0.64243 0.17454 0.44318 0.0
H780 H 0.63124 0.21298 0.43512 0.0
H781 H 0.6497 0.13745 0.4589 0.0
H782 H 0.66061 0.19916 0.488 0.0
H783 H 0.72218 0.15281 0.46381 0.0
O784 O 0.67976 0.21735 0.43478 0.0
O785 O 0.71174 0.19175 0.42302 0.0
O786 O 0.68467 0.14229 0.42699 0.0
C787 C 0.7035 0.21496 0.42718 0.0
H788 H 0.67847 0.17598 0.33496 0.0
H789 H 0.68677 0.18424 0.52931 0.0
H790 H 0.60631 0.13163 0.47586 0.0
H791 H 0.5872 0.20802 0.45034 0.0
H792 H 0.1217 0.51705 0.27354 0.0
H793 H 0.1428 0.41582 0.16024 0.0
H794 H 0.19585 0.48637 0.25329 0.0
H795 H 0.07519 0.41465 0.20813 0.0
H796 H 0.15959 0.45152 0.18573 0.0
H797 H 0.10179 0.48891 0.24115 0.0
C798 C 0.13376 0.50477 0.26187 0.0
C799 C 0.16037 0.50384 0.266 0.0
C800 C 0.1409 0.44367 0.19036 0.0
C801 C 0.138 0.47208 0.22905 0.0
C802 C 0.1312 0.42344 0.17574 0.0
C803 C 0.10761 0.41214 0.18217 0.0
C804 C 0.12672 0.453 0.21127 0.0
C805 C 0.09354 0.4227 0.20263 0.0
C806 C 0.12245 0.48867 0.2436 0.0
C807 C 0.17525 0.48744 0.25068 0.0
N808 N 0.10334 0.44252 0.21652 0.0
N809 N 0.16388 0.47222 0.23285 0.0
H810 H 0.02042 0.35286 0.26184 0.0
H811 H 0.89296 0.43402 0.28789 0.0
H812 H 0.96555 0.37303 0.20333 0.0
H813 H 0.92402 0.38314 0.34561 0.0
H814 H 0.92673 0.42053 0.25857 0.0
H815 H 0.99168 0.37181 0.2944 0.0
C816 C 1.00245 0.3615 0.2559 0.0
C817 C 0.99517 0.36132 0.22998 0.0
C818 C 0.9263 0.4125 0.27774 0.0
C819 C 0.96269 0.3832 0.26672 0.0
C820 C 0.90708 0.42026 0.29461 0.0
C821 C 0.90536 0.40942 0.31924 0.0
C822 C 0.94423 0.39395 0.2855 0.0
C823 C 0.92448 0.39186 0.32677 0.0
C824 C 0.98609 0.37215 0.2744 0.0
C825 C 0.97167 0.37257 0.22315 0.0
N826 N 0.94309 0.38451 0.30987 0.0
N827 N 0.95633 0.38315 0.24138 0.0
H828 H 0.84191 0.49027 0.24766 0.0
H829 H 0.93162 0.61092 0.22126 0.0
H830 H 0.86309 0.54528 0.30558 0.0
H831 H 0.87929 0.58369 0.16307 0.0
H832 H 0.91493 0.57885 0.25073 0.0
H833 H 0.8628 0.51739 0.21501 0.0
C834 C 0.85106 0.50799 0.25344 0.0
C835 C 0.85071 0.51573 0.27923 0.0
C836 C 0.90729 0.57973 0.23142 0.0
C837 C 0.87489 0.54628 0.2424 0.0
C838 C 0.91689 0.59796 0.21446 0.0
C839 C 0.90657 0.60036 0.18966 0.0
C840 C 0.88742 0.56345 0.22359 0.0
C841 C 0.88768 0.58269 0.18203 0.0
C842 C 0.86285 0.52341 0.23489 0.0
C843 C 0.8627 0.53885 0.28585 0.0
N844 N 0.87854 0.56502 0.19903 0.0
N845 N 0.87446 0.55322 0.26759 0.0
H846 H 0.11469 0.62508 0.32282 0.0
H847 H 0.99307 0.61567 0.22966 0.0
H848 H 0.08222 0.55245 0.29973 0.0
H849 H 0.03986 0.6833 0.23866 0.0
H850 H 0.02074 0.59296 0.26033 0.0
H851 H 0.082 0.64731 0.29795 0.0
C852 C 0.10046 0.61374 0.31279 0.0
C853 C 0.1014 0.58678 0.3132 0.0
C854 C 0.02486 0.61279 0.25563 0.0
C855 C 0.06388 0.61234 0.28432 0.0
C856 C 0.00904 0.6258 0.23823 0.0
C857 C 0.01425 0.65141 0.23151 0.0
C858 C 0.04585 0.6256 0.26662 0.0
C859 C 0.03534 0.6635 0.24301 0.0
C860 C 0.08184 0.62652 0.29846 0.0
C861 C 0.08224 0.57324 0.29996 0.0
N862 N 0.05031 0.65052 0.25999 0.0
N863 N 0.06436 0.58618 0.28583 0.0
H864 H 0.12083 0.49241 0.72869 0.0
H865 H 0.12521 0.62133 0.81175 0.0
H866 H 0.18564 0.54378 0.73172 0.0
H867 H 0.0551 0.57913 0.79872 0.0
H868 H 0.14868 0.58946 0.78722 0.0
H869 H 0.09761 0.52065 0.75829 0.0
C870 C 0.13026 0.50952 0.73572 0.0
C871 C 0.15524 0.51578 0.72765 0.0
C872 C 0.1282 0.58699 0.78986 0.0
C873 C 0.12873 0.54817 0.76148 0.0
C874 C 0.11471 0.60514 0.80412 0.0
C875 C 0.08801 0.60302 0.80743 0.0
C876 C 0.11503 0.56642 0.77862 0.0
C877 C 0.07564 0.5816 0.7967 0.0
C878 C 0.11693 0.52569 0.75252 0.0
C879 C 0.16635 0.53837 0.73714 0.0
N880 N 0.08923 0.56419 0.78264 0.0
N881 N 0.15304 0.55369 0.75354 0.0
H882 H 0.99367 0.34332 0.74633 0.0
H883 H 0.11652 0.43078 0.72197 0.0
H884 H 0.04829 0.3633 0.80506 0.0
H885 H 0.08851 0.37968 0.66309 0.0
H886 H 0.08373 0.41466 0.75099 0.0
H887 H 0.02147 0.36409 0.71417 0.0
C888 C 0.01144 0.35221 0.7524 0.0
C889 C 0.01889 0.35152 0.77827 0.0
C890 C 0.08461 0.40717 0.73164 0.0
C891 C 0.05022 0.37554 0.74199 0.0
C892 C 0.10325 0.41644 0.71493 0.0
C893 C 0.1056 0.40629 0.69007 0.0
C894 C 0.06788 0.3878 0.72346 0.0
C895 C 0.08755 0.38791 0.68212 0.0
C896 C 0.02724 0.36392 0.73412 0.0
C897 C 0.04207 0.36317 0.78526 0.0
N898 N 0.06949 0.37908 0.69886 0.0
N899 N 0.05684 0.37484 0.76726 0.0
H900 H 0.88565 0.42351 0.84566 0.0
H901 H 0.86498 0.46163 0.70027 0.0
H902 H 0.93037 0.39095 0.78388 0.0
H903 H 0.84982 0.51631 0.76043 0.0
H904 H 0.88561 0.43331 0.73159 0.0
H905 H 0.86968 0.45652 0.8159 0.0
C906 C 0.89242 0.42349 0.82602 0.0
C907 C 0.90924 0.40425 0.81727 0.0
C908 C 0.8779 0.45157 0.73795 0.0
C909 C 0.89065 0.44152 0.78316 0.0
C910 C 0.86596 0.4676 0.72013 0.0
C911 C 0.85566 0.49125 0.72784 0.0
C912 C 0.87912 0.45897 0.76382 0.0
C913 C 0.85769 0.49826 0.75377 0.0
C914 C 0.88327 0.4423 0.80907 0.0
C915 C 0.91732 0.40522 0.79156 0.0
N916 N 0.86895 0.48204 0.77096 0.0
N917 N 0.90767 0.42325 0.77539 0.0
H918 H 0.01583 0.672 0.74354 0.0
H919 H 0.89971 0.57463 0.71876 0.0
H920 H 0.97107 0.63584 0.80286 0.0
H921 H 0.92132 0.63168 0.66266 0.0
H922 H 0.93384 0.58984 0.74675 0.0
H923 H 0.98843 0.65108 0.711 0.0
C924 C 1.00036 0.65953 0.74962 0.0
C925 C 0.99537 0.65587 0.77581 0.0
C926 C 0.9313 0.59888 0.7282 0.0
C927 C 0.96457 0.63168 0.73912 0.0
C928 C 0.91186 0.59013 0.71211 0.0
C929 C 0.90732 0.60215 0.68842 0.0
C930 C 0.94651 0.61977 0.72064 0.0
C931 C 0.92398 0.62197 0.68083 0.0
C932 C 0.98477 0.6477 0.73117 0.0
C933 C 0.97521 0.63953 0.78286 0.0
N934 N 0.94272 0.63037 0.69703 0.0
N935 N 0.96061 0.62804 0.76466 0.0
H936 H 0.22764 0.08797 0.38358 0.0
H937 H 0.25146 0.14803 0.5225 0.0
H938 H 0.16554 0.09925 0.43736 0.0
H939 H 0.30547 0.15048 0.45983 0.0
H940 H 0.22079 0.12564 0.49455 0.0
H941 H 0.25743 0.10528 0.41458 0.0
C942 C 0.2202 0.09387 0.40205 0.0
C943 C 0.19386 0.09229 0.4077 0.0
C944 C 0.23937 0.1311 0.487 0.0
C945 C 0.22831 0.11268 0.44353 0.0
C946 C 0.25691 0.14376 0.50293 0.0
C947 C 0.28104 0.15125 0.49343 0.0
C948 C 0.24619 0.12564 0.46152 0.0
C949 C 0.28701 0.14544 0.46787 0.0
C950 C 0.23734 0.10392 0.41977 0.0
C951 C 0.18564 0.10016 0.43215 0.0
N952 N 0.26977 0.13297 0.4529 0.0
N953 N 0.20281 0.11024 0.44916 0.0
H954 H 0.62439 0.34771 0.08875 0.0
H955 H 0.64674 0.20204 0.05181 0.0
H956 H 0.57886 0.28589 0.11995 0.0
H957 H 0.66322 0.26223 0.99755 0.0
H958 H 0.62521 0.23344 0.07937 0.0
H959 H 0.64144 0.31785 0.05642 0.0
C960 C 0.61767 0.32805 0.08859 0.0
C961 C 0.6003 0.31931 0.10728 0.0
C962 C 0.63343 0.23979 0.06137 0.0
C963 C 0.62014 0.28508 0.07082 0.0
C964 C 0.64588 0.22192 0.04579 0.0
C965 C 0.65679 0.22961 0.02246 0.0
C966 C 0.6323 0.26569 0.05386 0.0
C967 C 0.65489 0.25558 0.01536 0.0
C968 C 0.62745 0.31103 0.07018 0.0
C969 C 0.59231 0.29356 0.1061 0.0
N970 N 0.64311 0.27281 0.03114 0.0
N971 N 0.60257 0.27732 0.0885 0.0
H972 H 0.75927 0.85822 0.51977 0.0
H973 H 0.77988 0.92588 0.38375 0.0
H974 H 0.70379 0.85871 0.45835 0.0
H975 H 0.84316 0.91105 0.43524 0.0
H976 H 0.75069 0.90692 0.41449 0.0
H977 H 0.78921 0.88206 0.49224 0.0
C978 C 0.75335 0.86342 0.50055 0.0
C979 C 0.72901 0.85636 0.49129 0.0
C980 C 0.77092 0.90787 0.41923 0.0
C981 C 0.76303 0.88367 0.45987 0.0
C982 C 0.7877 0.91887 0.40168 0.0
C983 C 0.81418 0.91989 0.40674 0.0
C984 C 0.78048 0.89765 0.4422 0.0
C985 C 0.82293 0.91061 0.4305 0.0
C986 C 0.77047 0.87692 0.48486 0.0
C987 C 0.72244 0.86339 0.46618 0.0
N988 N 0.80612 0.89965 0.44732 0.0
N989 N 0.73929 0.87668 0.45143 0.0
H990 H 0.34425 0.75062 0.9935 0.0
H991 H 0.42975 0.72774 0.11826 0.0
H992 H 0.36239 0.8101 0.04795 0.0
H993 H 0.3818 0.66748 0.08768 0.0
H994 H 0.41302 0.75697 0.08583 0.0
H995 H 0.36491 0.71889 0.02193 0.0
C996 C 0.35269 0.75696 0.01138 0.0
C997 C 0.35153 0.78294 0.01854 0.0
C998 C 0.40634 0.73729 0.08609 0.0
C999 C 0.37542 0.74707 0.0507 0.0
C1000 C 0.41599 0.72046 0.1045 0.0
C1001 C 0.40699 0.69507 0.10594 0.0
C1002 C 0.38775 0.72873 0.06866 0.0
C1003 C 0.38919 0.68689 0.08741 0.0
C1004 C 0.36434 0.73891 0.02756 0.0
C1005 C 0.36262 0.79022 0.04191 0.0
N1006 N 0.38004 0.70373 0.06955 0.0
N1007 N 0.37423 0.77243 0.05707 0.0
H1008 H 0.28112 0.89429 0.50125 0.0
H1009 H 0.166 0.86852 0.59925 0.0
H1010 H 0.26243 0.81906 0.53008 0.0
H1011 H 0.21023 0.93848 0.60119 0.0
H1012 H 0.19385 0.85246 0.56491 0.0
H1013 H 0.2481 0.91287 0.52962 0.0
C1014 C 0.26987 0.88172 0.51338 0.0
C1015 C 0.27456 0.85518 0.51357 0.0
C1016 C 0.19718 0.87147 0.57263 0.0
C1017 C 0.23671 0.87608 0.54549 0.0
C1018 C 0.18117 0.88076 0.59205 0.0
C1019 C 0.18586 0.90484 0.60315 0.0
C1020 C 0.21774 0.88655 0.56395 0.0
C1021 C 0.20603 0.91974 0.59323 0.0
C1022 C 0.25118 0.89229 0.52955 0.0
C1023 C 0.25959 0.83965 0.52967 0.0
N1024 N 0.22128 0.91034 0.57421 0.0
N1025 N 0.24126 0.85031 0.54491 0.0
H1026 H 0.43463 0.28514 0.89118 0.0
H1027 H 0.34626 0.26308 0.01391 0.0
H1028 H 0.386 0.34569 0.92057 0.0
H1029 H 0.36543 0.20344 0.95988 0.0
H1030 H 0.36784 0.29459 0.98608 0.0
H1031 H 0.4174 0.25613 0.92346 0.0
C1032 C 0.42062 0.29253 0.90466 0.0
C1033 C 0.41152 0.3179 0.90289 0.0
C1034 C 0.3673 0.27459 0.98041 0.0
C1035 C 0.39172 0.28454 0.93997 0.0
C1036 C 0.35512 0.25667 0.99624 0.0
C1037 C 0.354 0.23072 0.98901 0.0
C1038 C 0.37892 0.26631 0.95758 0.0
C1039 C 0.36562 0.22331 0.96593 0.0
C1040 C 0.41069 0.27584 0.92299 0.0
C1041 C 0.39345 0.32627 0.92111 0.0
N1042 N 0.37774 0.24099 0.95111 0.0
N1043 N 0.384 0.30956 0.93885 0.0
H1044 H 0.78415 0.07662 0.62009 0.0
H1045 H 0.76195 0.15857 0.49268 0.0
H1046 H 0.84464 0.12334 0.58803 0.0
H1047 H 0.70239 0.14197 0.54757 0.0
H1048 H 0.79353 0.13807 0.52142 0.0
H1049 H 0.75518 0.09199 0.58679 0.0
C1050 C 0.79153 0.08983 0.60584 0.0
C1051 C 0.81689 0.09893 0.60712 0.0
C1052 C 0.77352 0.13888 0.52704 0.0
C1053 C 0.78355 0.1166 0.56882 0.0
C1054 C 0.75556 0.15042 0.51068 0.0
C1055 C 0.72963 0.15204 0.51792 0.0
C1056 C 0.76528 0.12839 0.55045 0.0
C1057 C 0.72225 0.14136 0.54146 0.0
C1058 C 0.77486 0.09869 0.58691 0.0
C1059 C 0.82523 0.11594 0.58791 0.0
N1060 N 0.73995 0.12988 0.55682 0.0
N1061 N 0.80854 0.12436 0.56958 0.0
H1062 H 0.64782 0.80909 0.95783 0.0
H1063 H 0.62708 0.6636 0.91989 0.0
H1064 H 0.66397 0.74874 0.01211 0.0
H1065 H 0.58069 0.72529 0.88926 0.0
H1066 H 0.64383 0.69337 0.95238 0.0
H1067 H 0.627 0.77769 0.92982 0.0
C1068 C 0.64706 0.78917 0.96375 0.0
C1069 C 0.65762 0.78142 0.98722 0.0
C1070 C 0.62972 0.70017 0.9387 0.0
C1071 C 0.63396 0.7454 0.95535 0.0
C1072 C 0.62011 0.68321 0.9202 0.0
C1073 C 0.60258 0.69195 0.90165 0.0
C1074 C 0.62208 0.72606 0.93825 0.0
C1075 C 0.59427 0.71763 0.90301 0.0
C1076 C 0.63501 0.77131 0.94791 0.0
C1077 C 0.65588 0.75542 0.99419 0.0
N1078 N 0.60437 0.73382 0.92069 0.0
N1079 N 0.64449 0.73821 0.97819 0.0
H1080 H 0.45951 0.30966 0.14727 0.0
H1081 H 0.42356 0.16429 0.1238 0.0
H1082 H 0.51424 0.24969 0.16389 0.0
H1083 H 0.39333 0.22628 0.0776 0.0
H1084 H 0.45571 0.19399 0.1413 0.0
H1085 H 0.43249 0.27828 0.12519 0.0
C1086 C 0.46573 0.28982 0.14635 0.0
C1087 C 0.48903 0.28218 0.15743 0.0
C1088 C 0.44221 0.20086 0.12704 0.0
C1089 C 0.4583 0.24617 0.13229 0.0
C1090 C 0.42392 0.18394 0.117 0.0
C1091 C 0.40549 0.19281 0.09939 0.0
C1092 C 0.4417 0.22683 0.11974 0.0
C1093 C 0.40693 0.21853 0.09129 0.0
C1094 C 0.45047 0.27198 0.13357 0.0
C1095 C 0.49643 0.25629 0.15544 0.0
N1096 N 0.42439 0.23468 0.10183 0.0
N1097 N 0.48096 0.23908 0.14332 0.0
H1098 H 0.42494 0.84712 0.8853 0.0
H1099 H 0.46008 0.70084 0.86246 0.0
H1100 H 0.39119 0.78523 0.92889 0.0
H1101 H 0.51491 0.76062 0.84642 0.0
H1102 H 0.43252 0.73242 0.88377 0.0
H1103 H 0.45706 0.81682 0.86858 0.0
C1104 C 0.42449 0.82733 0.89167 0.0
C1105 C 0.40517 0.81873 0.90838 0.0
C1106 C 0.45064 0.73864 0.8757 0.0
C1107 C 0.44141 0.78399 0.88892 0.0
C1108 C 0.46623 0.72067 0.86336 0.0
C1109 C 0.48971 0.72819 0.85263 0.0
C1110 C 0.45834 0.76445 0.87692 0.0
C1111 C 0.49698 0.75408 0.85461 0.0
C1112 C 0.44279 0.81006 0.88208 0.0
C1113 C 0.40556 0.7928 0.91595 0.0
N1114 N 0.48121 0.7714 0.8663 0.0
N1115 N 0.42311 0.77634 0.90588 0.0
H1116 H 0.22784 1.0014 0.61777 0.0
H1117 H 0.34535 0.09698 0.64053 0.0
H1118 H 0.24698 0.03221 0.69199 0.0
H1119 H 0.30037 0.099 0.57106 0.0
H1120 H 0.3167 0.06378 0.6575 0.0
H1121 H 0.26135 0.02855 0.59842 0.0
C1122 C 0.23927 0.01374 0.62995 0.0
C1123 C 0.23459 0.01483 0.65642 0.0
C1124 C 0.31339 0.07125 0.63839 0.0
C1125 C 0.27303 0.0453 0.63468 0.0
C1126 C 0.32986 0.08998 0.62858 0.0
C1127 C 0.32518 0.10079 0.60437 0.0
C1128 C 0.29241 0.06294 0.6237 0.0
C1129 C 0.30458 0.09122 0.58986 0.0
C1130 C 0.25825 0.0292 0.61895 0.0
C1131 C 0.24981 0.03113 0.67146 0.0
N1132 N 0.2889 0.07285 0.59977 0.0
N1133 N 0.26844 0.04565 0.6604 0.0
H1134 H 0.55197 0.3087 0.86149 0.0
H1135 H 0.58996 0.16365 0.88546 0.0
H1136 H 0.4978 0.24825 0.84588 0.0
H1137 H 0.61973 0.22599 0.93121 0.0
H1138 H 0.55748 0.19312 0.86786 0.0
H1139 H 0.57968 0.27762 0.88338 0.0
C1140 C 0.54602 0.28882 0.8626 0.0
C1141 C 0.52267 0.28095 0.85185 0.0
C1142 C 0.57096 0.20013 0.88202 0.0
C1143 C 0.55421 0.24528 0.87676 0.0
C1144 C 0.58945 0.18335 0.89212 0.0
C1145 C 0.60778 0.19235 0.9097 0.0
C1146 C 0.57119 0.22612 0.88923 0.0
C1147 C 0.60616 0.21812 0.9176 0.0
C1148 C 0.56168 0.27115 0.87526 0.0
C1149 C 0.51563 0.25501 0.85408 0.0
N1150 N 0.58851 0.23414 0.90702 0.0
N1151 N 0.53149 0.23798 0.86607 0.0
H1152 H 0.747 0.01559 0.66755 0.0
H1153 H 0.72384 0.8933 0.57888 0.0
H1154 H 0.80611 0.96079 0.64843 0.0
H1155 H 0.66356 0.92281 0.62768 0.0
H1156 H 0.75305 0.92523 0.59633 0.0
H1157 H 0.71518 0.98807 0.64602 0.0
C1158 C 0.75323 0.99782 0.65872 0.0
C1159 C 0.77912 0.99029 0.65984 0.0
C1160 C 0.73336 0.92486 0.60304 0.0
C1161 C 0.74319 0.9592 0.63497 0.0
C1162 C 0.71654 0.90673 0.59298 0.0
C1163 C 0.69117 0.90509 0.60204 0.0
C1164 C 0.7248 0.94179 0.62211 0.0
C1165 C 0.68296 0.92324 0.62025 0.0
C1166 C 0.73513 0.98217 0.64657 0.0
C1167 C 0.78629 0.96708 0.64824 0.0
N1168 N 0.6998 0.94081 0.62982 0.0
N1169 N 0.76846 0.95245 0.63615 0.0
H1170 H 0.5486 0.70209 0.14488 0.0
H1171 H 0.58645 0.84725 0.12212 0.0
H1172 H 0.4947 0.76278 0.16152 0.0
H1173 H 0.61697 0.78499 0.07656 0.0
H1174 H 0.55381 0.81781 0.13919 0.0
H1175 H 0.57621 0.73316 0.12309 0.0
C1176 C 0.54267 0.72201 0.14401 0.0
C1177 C 0.51944 0.72994 0.15504 0.0
C1178 C 0.56748 0.81081 0.12517 0.0
C1179 C 0.55088 0.76563 0.13021 0.0
C1180 C 0.58606 0.82758 0.11537 0.0
C1181 C 0.60469 0.81858 0.09805 0.0
C1182 C 0.56789 0.78483 0.11792 0.0
C1183 C 0.60321 0.79285 0.09001 0.0
C1184 C 0.55828 0.73969 0.13139 0.0
C1185 C 0.51244 0.75595 0.1531 0.0
N1186 N 0.58545 0.77683 0.10031 0.0
N1187 N 0.52825 0.77299 0.14115 0.0
H1188 H 0.22655 0.0112 0.38724 0.0
H1189 H 0.34625 0.91661 0.36942 0.0
H1190 H 0.252 0.98408 0.31342 0.0
H1191 H 0.29664 0.91228 0.43558 0.0
H1192 H 0.31857 0.95026 0.3516 0.0
H1193 H 0.25861 0.98317 0.40791 0.0
C1194 C 0.23907 0.99952 0.37543 0.0
C1195 C 0.23659 0.99975 0.34863 0.0
C1196 C 0.31398 0.94216 0.37018 0.0
C1197 C 0.27337 0.96816 0.37198 0.0
C1198 C 0.32988 0.92313 0.38049 0.0
C1199 C 0.3237 0.91155 0.40401 0.0
C1200 C 0.29199 0.95 0.38366 0.0
C1201 C 0.30204 0.92062 0.41734 0.0
C1202 C 0.25722 0.98352 0.38719 0.0
C1203 C 0.25315 0.98419 0.33414 0.0
N1204 N 0.28692 0.9393 0.40696 0.0
N1205 N 0.27091 0.96911 0.34598 0.0
H1206 H 0.78117 1.00185 0.38678 0.0
H1207 H 0.66361 0.09913 0.36923 0.0
H1208 H 0.7572 0.03094 0.31318 0.0
H1209 H 0.71219 0.10068 0.43626 0.0
H1210 H 0.69079 0.06527 0.35108 0.0
H1211 H 0.74924 0.02989 0.40757 0.0
C1212 C 0.76899 0.01397 0.37504 0.0
C1213 C 0.77187 0.0143 0.34828 0.0
C1214 C 0.69525 0.07281 0.36991 0.0
C1215 C 0.73525 0.0459 0.37175 0.0
C1216 C 0.67963 0.09195 0.38041 0.0
C1217 C 0.6857 0.1028 0.40427 0.0
C1218 C 0.71683 0.06414 0.38356 0.0
C1219 C 0.7069 0.09291 0.41775 0.0
C1220 C 0.75092 0.02997 0.38687 0.0
C1221 C 0.75576 0.03041 0.33388 0.0
N1222 N 0.72176 0.07414 0.40718 0.0
N1223 N 0.73806 0.0455 0.34578 0.0
H1224 H 1.00207 0.30445 0.93673 0.0
H1225 H 0.00653 0.37106 0.07415 0.0
H1226 H 0.96209 0.37536 0.95236 0.0
H1227 H 0.06456 0.31797 0.04746 0.0
H1228 H 0.98792 0.37153 0.03108 0.0
H1229 H 0.02259 0.3071 0.9788 0.0
C1230 C 0.99755 0.32056 0.94909 0.0
C1231 C 0.98023 0.33964 0.94109 0.0
C1232 C 1.0048 0.3599 0.03469 0.0
C1233 C 1.00369 0.34281 0.9894 0.0
C1234 C 0.0156 0.3597 0.05929 0.0
C1235 C 0.03719 0.34431 0.06474 0.0
C1236 C 0.01542 0.34437 0.01538 0.0
C1237 C 0.04763 0.3297 0.04455 0.0
C1238 C 0.0094 0.32215 0.97304 0.0
C1239 C 0.97539 0.36029 0.95777 0.0
N1240 N 0.03656 0.32995 0.02094 0.0
N1241 N 0.98688 0.36122 0.98124 0.0
H1242 H 0.87485 0.45948 0.45404 0.0
H1243 H 0.81431 0.56493 0.5478 0.0
H1244 H 0.8036 0.49898 0.43868 0.0
H1245 H 0.86638 0.50609 0.57478 0.0
H1246 H 0.81494 0.54521 0.50542 0.0
H1247 H 0.8768 0.48068 0.49614 0.0
C1248 C 0.8597 0.47269 0.45949 0.0
C1249 C 0.83893 0.47735 0.44294 0.0
C1250 C 0.82627 0.53666 0.52063 0.0
C1251 C 0.84117 0.50179 0.4908 0.0
C1252 C 0.82584 0.54784 0.54495 0.0
C1253 C 0.84008 0.53709 0.56524 0.0
C1254 C 0.8413 0.51469 0.51623 0.0
C1255 C 0.85525 0.51531 0.55986 0.0
C1256 C 0.86077 0.48467 0.48351 0.0
C1257 C 0.81977 0.49458 0.45098 0.0
N1258 N 0.85543 0.50483 0.53592 0.0
N1259 N 0.8214 0.50623 0.47424 0.0
H1260 H 0.06274 0.69819 0.96208 0.0
H1261 H 0.96183 0.63223 0.05731 0.0
H1262 H 0.0085 0.64083 0.93692 0.0
H1263 H 0.99967 0.70411 0.07306 0.0
H1264 H 0.98275 0.63113 0.01506 0.0
H1265 H 0.04368 0.69672 0.00475 0.0
C1266 C 0.04676 0.68534 0.9654 0.0
C1267 C 0.0371 0.66983 0.94557 0.0
C1268 C 0.98646 0.64711 0.0278 0.0
C1269 C 0.01546 0.66771 0.99488 0.0
C1270 C 0.97464 0.64768 0.05193 0.0
C1271 C 0.97887 0.66838 0.06865 0.0
C1272 C 1.00292 0.6672 0.02052 0.0
C1273 C 0.99557 0.68797 0.06066 0.0
C1274 C 0.03597 0.68443 0.98989 0.0
C1275 C 0.01681 0.65302 0.95151 0.0
N1276 N 0.00699 0.68686 0.03724 0.0
N1277 N 0.00665 0.65244 0.97558 0.0
H1278 H 0.13397 0.46247 0.55837 0.0
H1279 H 0.20938 0.54894 0.45581 0.0
H1280 H 0.21034 0.49244 0.56961 0.0
H1281 H 0.13625 0.51363 0.43957 0.0
H1282 H 0.20843 0.53029 0.49861 0.0
H1283 H 0.13273 0.4831 0.51603 0.0
C1284 C 0.15042 0.47346 0.552 0.0
C1285 C 0.17239 0.4755 0.56751 0.0
C1286 C 0.19255 0.52658 0.48574 0.0
C1287 C 0.17111 0.49912 0.51911 0.0
C1288 C 0.19315 0.53713 0.46116 0.0
C1289 C 0.17301 0.53264 0.44383 0.0
C1290 C 0.17163 0.51136 0.49329 0.0
C1291 C 0.15216 0.51772 0.45227 0.0
C1292 C 0.14974 0.48514 0.52779 0.0
C1293 C 0.19318 0.48989 0.55818 0.0
N1294 N 0.15206 0.50752 0.47635 0.0
N1295 N 0.19202 0.50109 0.53468 0.0
H1296 H 0.94315 0.98254 0.37859 0.0
H1297 H 0.06345 0.02963 0.29479 0.0
H1298 H 0.94601 0.98216 0.29589 0.0
H1299 H 0.06402 0.03024 0.37752 0.0
H1300 H 0.02024 0.01201 0.29556 0.0
H1301 H 0.98682 1.0004 0.37937 0.0
C1302 C 0.95287 0.98634 0.36062 0.0
C1303 C 0.94092 0.9806 0.33714 0.0
C1304 C 0.02971 0.01595 0.31362 0.0
C1305 C 0.9909 1.00082 0.3379 0.0
C1306 C 0.05443 0.02614 0.31318 0.0
C1307 C 0.06735 0.03171 0.33613 0.0
C1308 C 0.01755 0.0112 0.33719 0.0
C1309 C 0.05482 0.02617 0.35937 0.0
C1310 C 0.97785 0.99636 0.36109 0.0
C1311 C 0.95454 0.98577 0.31447 0.0
N1312 N 0.03055 0.01634 0.35931 0.0
N1313 N 0.97868 0.99551 0.31544 0.0
H1314 H 0.56204 0.4631 0.19742 0.0
H1315 H 0.45801 0.55802 0.1355 0.0
H1316 H 0.50348 0.43644 0.1452 0.0
H1317 H 0.49808 0.57381 0.2061 0.0
H1318 H 0.47861 0.51545 0.13409 0.0
H1319 H 0.5429 0.50584 0.19612 0.0
C1320 C 0.54511 0.46609 0.18572 0.0
C1321 C 0.53428 0.44577 0.17166 0.0
C1322 C 0.48286 0.52827 0.14986 0.0
C1323 C 0.51252 0.49524 0.16968 0.0
C1324 C 0.47122 0.55257 0.15062 0.0
C1325 C 0.47618 0.56941 0.17106 0.0
C1326 C 0.49995 0.52096 0.16944 0.0
C1327 C 0.49341 0.56133 0.19018 0.0
C1328 C 0.53427 0.49063 0.18491 0.0
C1329 C 0.51275 0.45135 0.15624 0.0
N1330 N 0.5047 0.53779 0.18885 0.0
N1331 N 0.50257 0.4755 0.1557 0.0
H1332 H 0.07348 1.00046 0.70679 0.0
H1333 H 0.93371 1.00355 0.64483 0.0
H1334 H 0.05613 0.96049 0.63651 0.0
H1335 H 0.96165 0.06238 0.69606 0.0
H1336 H 0.97704 0.98536 0.64302 0.0
H1337 H 0.03106 0.02068 0.70533 0.0
C1338 C 0.06068 0.99588 0.69107 0.0
C1339 C 0.0683 0.97866 0.6718 0.0
C1340 C 0.97364 1.00233 0.65454 0.0
C1341 C 0.01959 1.00175 0.67003 0.0
C1342 C 0.94888 0.01288 0.65549 0.0
C1343 C 0.94371 0.03457 0.67079 0.0
C1344 C 0.9934 0.01326 0.66922 0.0
C1345 C 0.96434 0.04536 0.68448 0.0
C1346 C 0.03653 0.00756 0.69016 0.0
C1347 C 0.05104 0.97372 0.6517 0.0
N1348 N 0.9881 0.0345 0.68353 0.0
N1349 N 0.02738 0.98502 0.65145 0.0
H1350 H 0.5655 0.5481 0.81204 0.0
H1351 H 0.46199 0.45285 0.8732 0.0
H1352 H 0.50669 0.57449 0.86428 0.0
H1353 H 0.50126 0.43801 0.80189 0.0
H1354 H 0.48253 0.49532 0.87503 0.0
H1355 H 0.54651 0.50537 0.813 0.0
C1356 C 0.54856 0.54503 0.82368 0.0
C1357 C 0.53757 0.56526 0.83784 0.0
C1358 C 0.48661 0.48272 0.85901 0.0
C1359 C 0.51601 0.51587 0.83942 0.0
C1360 C 0.475 0.4585 0.85801 0.0
C1361 C 0.47979 0.44198 0.83726 0.0
C1362 C 0.50349 0.49024 0.83937 0.0
C1363 C 0.49676 0.45027 0.81805 0.0
C1364 C 0.5378 0.52052 0.82429 0.0
C1365 C 0.51605 0.55962 0.85318 0.0
N1366 N 0.50805 0.47372 0.81962 0.0
N1367 N 0.50596 0.5355 0.85352 0.0
H1368 H 0.36631 0.07831 1.00329 0.0
H1369 H 0.30635 0.93837 1.00024 0.0
H1370 H 0.3181 0.04903 0.06406 0.0
H1371 H 0.37675 0.95612 0.96056 0.0
H1372 H 0.30794 0.98037 0.02119 0.0
H1373 H 0.36856 0.03515 0.98508 0.0
C1374 C 0.35643 0.06288 0.01307 0.0
C1375 C 0.34188 0.06762 0.03535 0.0
C1376 C 0.32313 0.97507 0.00801 0.0
C1377 C 0.3439 0.01811 0.01396 0.0
C1378 C 0.32216 0.95117 0.99595 0.0
C1379 C 0.34139 0.94386 0.97856 0.0
C1380 C 0.34325 0.99205 1.00234 0.0
C1381 C 0.36159 0.96105 0.9739 0.0
C1382 C 0.35764 0.03822 1.00249 0.0
C1383 C 0.3291 0.04667 0.04661 0.0
N1384 N 0.36186 0.9845 0.98551 0.0
N1385 N 0.33023 0.02298 0.0357 0.0
H1386 H 0.46472 0.1747 0.56889 0.0
H1387 H 0.54641 0.17737 0.44063 0.0
H1388 H 0.43068 0.15612 0.49591 0.0
H1389 H 0.58041 0.15576 0.51287 0.0
H1390 H 0.50367 0.17501 0.46051 0.0
H1391 H 0.50743 0.17311 0.54888 0.0
C1392 C 0.4663 0.17019 0.54867 0.0
C1393 C 0.44422 0.16544 0.53402 0.0
C1394 C 0.52049 0.17063 0.47194 0.0
C1395 C 0.49282 0.16409 0.51095 0.0
C1396 C 0.54482 0.17207 0.46066 0.0
C1397 C 0.5669 0.16667 0.47513 0.0
C1398 C 0.51827 0.16437 0.49805 0.0
C1399 C 0.56383 0.15986 0.50101 0.0
C1400 C 0.49061 0.16921 0.5373 0.0
C1401 C 0.44727 0.15969 0.50789 0.0
N1402 N 0.53999 0.15919 0.51173 0.0
N1403 N 0.4711 0.15947 0.4971 0.0
H1404 H 0.69957 0.04947 0.94834 0.0
H1405 H 0.63552 0.95302 0.0488 0.0
H1406 H 0.64568 0.07534 0.00588 0.0
H1407 H 0.70882 0.93905 0.01284 0.0
H1408 H 0.63432 0.99577 0.02868 0.0
H1409 H 0.69853 0.00667 0.96725 0.0
C1410 C 0.68756 0.04631 0.96499 0.0
C1411 C 0.67293 0.06641 0.97561 0.0
C1412 C 0.65064 0.98331 0.02525 0.0
C1413 C 0.67122 0.01689 0.99703 0.0
C1414 C 0.6513 0.95893 0.03661 0.0
C1415 C 0.6724 0.94256 0.03262 0.0
C1416 C 0.671 0.99114 0.00938 0.0
C1417 C 0.69236 0.95118 0.0167 0.0
C1418 C 0.6869 0.02173 0.97569 0.0
C1419 C 0.65714 0.06059 0.99676 0.0
N1420 N 0.69111 0.97478 0.00559 0.0
N1421 N 0.65672 0.03641 0.00676 0.0
H1422 H 0.45253 0.87987 0.46155 0.0
H1423 H 0.54795 0.81491 0.56302 0.0
H1424 H 0.43691 0.80803 0.49959 0.0
H1425 H 0.57431 0.86846 0.50548 0.0
H1426 H 0.50507 0.81683 0.54436 0.0
H1427 H 0.49512 0.8807 0.48198 0.0
C1428 C 0.458 0.86438 0.47432 0.0
C1429 C 0.44123 0.84376 0.47875 0.0
C1430 C 0.52025 0.8282 0.53585 0.0
C1431 C 0.48971 0.84468 0.50228 0.0
C1432 C 0.54487 0.82702 0.54641 0.0
C1433 C 0.56515 0.84129 0.53572 0.0
C1434 C 0.51552 0.84401 0.51456 0.0
C1435 C 0.55944 0.85724 0.51464 0.0
C1436 C 0.48232 0.86479 0.48585 0.0
C1437 C 0.44934 0.82413 0.49538 0.0
N1438 N 0.53522 0.85814 0.50475 0.0
N1439 N 0.47291 0.82511 0.50658 0.0
H1440 H 0.088 0.24874 0.1891 0.0
H1441 H 0.13457 0.20298 0.32834 0.0
H1442 H 0.09941 0.29991 0.25314 0.0
H1443 H 0.13368 0.15282 0.26254 0.0
H1444 H 0.11922 0.23809 0.3014 0.0
H1445 H 0.10188 0.21267 0.21606 0.0
C1446 C 0.0932 0.25235 0.20888 0.0
C1447 C 0.09254 0.27736 0.2189 0.0
C1448 C 0.12241 0.21943 0.29279 0.0
C1449 C 0.10856 0.23628 0.24977 0.0
C1450 C 0.13108 0.19932 0.30822 0.0
C1451 C 0.13539 0.17486 0.29774 0.0
C1452 C 0.11783 0.21514 0.2666 0.0
C1453 C 0.13088 0.17139 0.2714 0.0
C1454 C 0.10125 0.23179 0.22421 0.0
C1455 C 0.09965 0.28096 0.2446 0.0
N1456 N 0.12226 0.19128 0.25675 0.0
N1457 N 0.10736 0.26068 0.25911 0.0
H1458 H 0.79167 0.41496 0.25739 0.0
H1459 H 0.64298 0.37747 0.24928 0.0
H1460 H 0.74033 0.42095 0.3221 0.0
H1461 H 0.69688 0.37005 0.18689 0.0
H1462 H 0.67673 0.39738 0.27532 0.0
H1463 H 0.75571 0.40243 0.23049 0.0
C1464 C 0.77275 0.41375 0.26594 0.0
C1465 C 0.76902 0.41881 0.29208 0.0
C1466 C 0.68108 0.39155 0.25586 0.0
C1467 C 0.72756 0.40424 0.26128 0.0
C1468 C 0.66179 0.38034 0.24094 0.0
C1469 C 0.66721 0.3719 0.21593 0.0
C1470 C 0.70588 0.3944 0.24563 0.0
C1471 C 0.692 0.37586 0.20621 0.0
C1472 C 0.75216 0.40659 0.25052 0.0
C1473 C 0.74402 0.41715 0.30202 0.0
N1474 N 0.71039 0.38669 0.22108 0.0
N1475 N 0.72421 0.40979 0.28664 0.0
H1476 H 0.87384 0.86214 0.26083 0.0
H1477 H 0.90823 0.71239 0.25296 0.0
H1478 H 0.87184 0.81034 0.32541 0.0
H1479 H 0.91865 0.76427 0.18926 0.0
H1480 H 0.89405 0.7483 0.27933 0.0
H1481 H 0.88881 0.82674 0.2337 0.0
C1482 C 0.87636 0.84332 0.26928 0.0
C1483 C 0.8716 0.83923 0.29549 0.0
C1484 C 0.89951 0.75194 0.25962 0.0
C1485 C 0.88896 0.79872 0.26461 0.0
C1486 C 0.90764 0.7314 0.24453 0.0
C1487 C 0.91464 0.73535 0.21887 0.0
C1488 C 0.89818 0.77669 0.249 0.0
C1489 C 0.91351 0.76042 0.209 0.0
C1490 C 0.88511 0.82316 0.25382 0.0
C1491 C 0.87557 0.81449 0.30543 0.0
N1492 N 0.9053 0.78016 0.22406 0.0
N1493 N 0.88396 0.79523 0.29 0.0
H1494 H 0.36447 0.63545 0.24767 0.0
H1495 H 0.21389 0.60783 0.25986 0.0
H1496 H 0.30938 0.6481 0.18715 0.0
H1497 H 0.26779 0.5887 0.31979 0.0
H1498 H 0.24942 0.6211 0.23267 0.0
H1499 H 0.33039 0.6163 0.27388 0.0
C1500 C 0.34532 0.63392 0.23975 0.0
C1501 C 0.33972 0.64364 0.21523 0.0
C1502 C 0.25361 0.61392 0.25171 0.0
C1503 C 0.30063 0.62205 0.24521 0.0
C1504 C 0.23327 0.60637 0.2673 0.0
C1505 C 0.23787 0.59727 0.29219 0.0
C1506 C 0.27888 0.61259 0.26105 0.0
C1507 C 0.26341 0.59564 0.30071 0.0
C1508 C 0.32584 0.62312 0.25479 0.0
C1509 C 0.31448 0.64134 0.2061 0.0
N1510 N 0.28299 0.6034 0.28521 0.0
N1511 N 0.29592 0.63095 0.2211 0.0
H1512 H 0.09571 0.71559 0.75709 0.0
H1513 H 0.1324 0.86448 0.74745 0.0
H1514 H 0.08639 0.7679 0.82057 0.0
H1515 H 0.13841 0.81035 0.68516 0.0
H1516 H 0.11245 0.83095 0.77388 0.0
H1517 H 0.10842 0.75136 0.72995 0.0
C1518 C 0.09621 0.73469 0.7653 0.0
C1519 C 0.09012 0.73874 0.79118 0.0
C1520 C 0.11797 0.82651 0.75436 0.0
C1521 C 0.10494 0.78003 0.7601 0.0
C1522 C 0.12922 0.84568 0.73922 0.0
C1523 C 0.13733 0.84013 0.71411 0.0
C1524 C 0.11477 0.80168 0.74427 0.0
C1525 C 0.13292 0.81536 0.70453 0.0
C1526 C 0.10347 0.75518 0.74975 0.0
C1527 C 0.09093 0.76396 0.80069 0.0
N1528 N 0.1221 0.7971 0.71962 0.0
N1529 N 0.09845 0.78367 0.7852 0.0
H1530 H 0.31383 0.36833 0.8258 0.0
H1531 H 0.27004 0.42224 0.6887 0.0
H1532 H 0.36595 0.37632 0.76204 0.0
H1533 H 0.21925 0.41154 0.75322 0.0
H1534 H 0.30639 0.40935 0.71584 0.0
H1535 H 0.27995 0.38805 0.80021 0.0
C1536 C 0.31814 0.37432 0.80639 0.0
C1537 C 0.34267 0.37043 0.79597 0.0
C1538 C 0.2873 0.41003 0.72407 0.0
C1539 C 0.30389 0.3931 0.76639 0.0
C1540 C 0.26657 0.41742 0.70861 0.0
C1541 C 0.24157 0.4178 0.71869 0.0
C1542 C 0.28292 0.40302 0.74974 0.0
C1543 C 0.23816 0.41136 0.74458 0.0
C1544 C 0.29881 0.38567 0.79178 0.0
C1545 C 0.34735 0.37904 0.77086 0.0
N1546 N 0.25854 0.40414 0.75913 0.0
N1547 N 0.32805 0.38976 0.75682 0.0
H1548 H 0.92495 0.24018 0.82133 0.0
H1549 H 0.87013 0.19715 0.68447 0.0
H1550 H 0.91606 0.29063 0.75623 0.0
H1551 H 0.87724 0.14498 0.74834 0.0
H1552 H 0.89064 0.23057 0.70989 0.0
H1553 H 0.91127 0.20397 0.79443 0.0
C1554 C 0.92039 0.24358 0.80135 0.0
C1555 C 0.92147 0.26846 0.79103 0.0
C1556 C 0.8879 0.21179 0.71839 0.0
C1557 C 0.90578 0.22732 0.76028 0.0
C1558 C 0.87609 0.19274 0.70387 0.0
C1559 C 0.87174 0.16834 0.71436 0.0
C1560 C 0.89533 0.20657 0.74376 0.0
C1561 C 0.88032 0.1635 0.73946 0.0
C1562 C 0.91253 0.22295 0.78603 0.0
C1563 C 0.91532 0.27182 0.76506 0.0
N1564 N 0.89149 0.18254 0.75342 0.0
N1565 N 0.90764 0.25155 0.75067 0.0
H1566 H 0.64512 0.63203 0.76072 0.0
H1567 H 0.7943 0.5949 0.75408 0.0
H1568 H 0.69898 0.64306 0.82255 0.0
H1569 H 0.74287 0.58624 0.6898 0.0
H1570 H 0.75822 0.60845 0.78056 0.0
H1571 H 0.67912 0.61115 0.73566 0.0
C1572 C 0.66398 0.62977 0.76916 0.0
C1573 C 0.66929 0.63951 0.7937 0.0
C1574 C 0.7547 0.60345 0.76071 0.0
C1575 C 0.70828 0.61585 0.7651 0.0
C1576 C 0.77534 0.59567 0.74556 0.0
C1577 C 0.77162 0.58958 0.71964 0.0
C1578 C 0.73006 0.60536 0.7499 0.0
C1579 C 0.74658 0.59081 0.7097 0.0
C1580 C 0.68342 0.61799 0.75478 0.0
C1581 C 0.69416 0.63627 0.80356 0.0
N1582 N 0.72674 0.59876 0.7248 0.0
N1583 N 0.7127 0.62484 0.78921 0.0
H1584 H 0.24415 0.11813 0.29408 0.0
H1585 H 0.27457 0.11965 0.14459 0.0
H1586 H 0.19103 0.08472 0.24005 0.0
H1587 H 0.30398 0.17455 0.19933 0.0
H1588 H 0.2468 0.10209 0.17835 0.0
H1589 H 0.27013 0.13344 0.2587 0.0
C1590 C 0.23794 0.11391 0.27471 0.0
C1591 C 0.21527 0.1002 0.27004 0.0
C1592 C 0.2594 0.11801 0.18275 0.0
C1593 C 0.24519 0.11786 0.22915 0.0
C1594 C 0.27525 0.12813 0.1635 0.0
C1595 C 0.29204 0.14861 0.16892 0.0
C1596 C 0.2606 0.12823 0.20762 0.0
C1597 C 0.29203 0.15852 0.194 0.0
C1598 C 0.25279 0.12279 0.25446 0.0
C1599 C 0.20833 0.09532 0.24446 0.0
N1600 N 0.27674 0.14817 0.21228 0.0
N1601 N 0.2233 0.10414 0.22485 0.0
H1602 H 0.63962 0.18352 0.31093 0.0
H1603 H 0.58461 0.32154 0.27046 0.0
H1604 H 0.63381 0.24683 0.36392 0.0
H1605 H 0.59154 0.25671 0.21939 0.0
H1606 H 0.59916 0.29415 0.30603 0.0
H1607 H 0.61881 0.20965 0.27818 0.0
C1608 C 0.63394 0.20296 0.31567 0.0
C1609 C 0.63869 0.21305 0.34012 0.0
C1610 C 0.59726 0.28592 0.28706 0.0
C1611 C 0.61468 0.24326 0.30263 0.0
C1612 C 0.58889 0.30151 0.2668 0.0
C1613 C 0.58701 0.29142 0.24191 0.0
C1614 C 0.60374 0.26011 0.28233 0.0
C1615 C 0.59287 0.26537 0.23821 0.0
C1616 C 0.62192 0.21787 0.29698 0.0
C1617 C 0.63041 0.23823 0.34536 0.0
N1618 N 0.60107 0.25071 0.25812 0.0
N1619 N 0.619 0.25257 0.32668 0.0
H1620 H 0.81877 0.92829 0.23898 0.0
H1621 H 0.70138 0.83894 0.20027 0.0
H1622 H 0.76269 0.89828 0.29205 0.0
H1623 H 0.73622 0.88962 0.1445 0.0
H1624 H 0.72776 0.85764 0.23316 0.0
H1625 H 0.79243 0.912 0.20317 0.0
C1626 C 0.80093 0.91844 0.24309 0.0
C1627 C 0.79296 0.91456 0.26854 0.0
C1628 C 0.7296 0.86478 0.21373 0.0
C1629 C 0.76316 0.89578 0.228 0.0
C1630 C 0.71435 0.85408 0.19469 0.0
C1631 C 0.71613 0.86264 0.16917 0.0
C1632 C 0.74714 0.88419 0.20754 0.0
C1633 C 0.73407 0.88216 0.16371 0.0
C1634 C 0.78595 0.90921 0.22271 0.0
C1635 C 0.76971 0.90169 0.27281 0.0
N1636 N 0.74894 0.89224 0.18273 0.0
N1637 N 0.7558 0.89267 0.25283 0.0
H1638 H 0.42449 0.69218 0.26906 0.0
H1639 H 0.37637 0.83242 0.31038 0.0
H1640 H 0.41958 0.75737 0.21816 0.0
H1641 H 0.3783 0.76835 0.36276 0.0
H1642 H 0.39648 0.8057 0.27766 0.0
H1643 H 0.41186 0.72012 0.30491 0.0
C1644 C 0.42106 0.71239 0.26549 0.0
C1645 C 0.42291 0.72245 0.24058 0.0
C1646 C 0.3927 0.79743 0.29634 0.0
C1647 C 0.40842 0.75439 0.28132 0.0
C1648 C 0.38114 0.8127 0.315 0.0
C1649 C 0.37542 0.80254 0.33923 0.0
C1650 C 0.39849 0.77163 0.30178 0.0
C1651 C 0.38247 0.77698 0.34435 0.0
C1652 C 0.41379 0.7283 0.28592 0.0
C1653 C 0.41819 0.74874 0.237 0.0
N1654 N 0.3934 0.76229 0.32568 0.0
N1655 N 0.41106 0.76371 0.25707 0.0
H1656 H 0.3287 0.87025 0.80944 0.0
H1657 H 0.19172 0.92594 0.76658 0.0
H1658 H 0.2654 0.88012 0.8619 0.0
H1659 H 0.25467 0.91123 0.71473 0.0
H1660 H 0.21931 0.91332 0.8026 0.0
H1661 H 0.30285 0.88938 0.77542 0.0
C1662 C 0.30935 0.87652 0.81381 0.0
C1663 C 0.29914 0.87334 0.83849 0.0
C1664 C 0.22711 0.91304 0.78335 0.0
C1665 C 0.26929 0.89537 0.79956 0.0
C1666 C 0.21139 0.92028 0.7628 0.0
C1667 C 0.22088 0.91949 0.73761 0.0
C1668 C 0.25247 0.90502 0.77863 0.0
C1669 C 0.24649 0.91199 0.73381 0.0
C1670 C 0.2946 0.88753 0.79439 0.0
C1671 C 0.2741 0.8823 0.8432 0.0
N1672 N 0.26132 0.90495 0.75405 0.0
N1673 N 0.25994 0.89271 0.82384 0.0
H1674 H 0.42594 0.31973 0.73956 0.0
H1675 H 0.3739 0.18082 0.69935 0.0
H1676 H 0.42017 0.2549 0.79082 0.0
H1677 H 0.37765 0.24449 0.64655 0.0
H1678 H 0.39435 0.20722 0.73201 0.0
H1679 H 0.41196 0.29207 0.70407 0.0
C1680 C 0.42203 0.29965 0.74328 0.0
C1681 C 0.42406 0.28962 0.76818 0.0
C1682 C 0.39086 0.21546 0.71326 0.0
C1683 C 0.408 0.25801 0.72788 0.0
C1684 C 0.37907 0.20038 0.69464 0.0
C1685 C 0.37384 0.2105 0.67027 0.0
C1686 C 0.3974 0.24101 0.70763 0.0
C1687 C 0.38143 0.23586 0.66504 0.0
C1688 C 0.41399 0.2839 0.72306 0.0
C1689 C 0.41869 0.26351 0.77198 0.0
N1690 N 0.39264 0.25034 0.68366 0.0
N1691 N 0.41081 0.24869 0.75211 0.0
H1692 H 0.82153 0.08496 0.77138 0.0
H1693 H 0.68543 0.14231 0.81469 0.0
H1694 H 0.75603 0.09382 0.72143 0.0
H1695 H 0.74905 0.1334 0.86689 0.0
H1696 H 0.71051 0.12129 0.78127 0.0
H1697 H 0.79493 0.09926 0.80761 0.0
C1698 C 0.80152 0.08963 0.76809 0.0
C1699 C 0.79101 0.08836 0.74334 0.0
C1700 C 0.71903 0.12375 0.80005 0.0
C1701 C 0.76059 0.1048 0.78452 0.0
C1702 C 0.70471 0.13586 0.81911 0.0
C1703 C 0.71524 0.13984 0.84352 0.0
C1704 C 0.74426 0.11565 0.80526 0.0
C1705 C 0.74017 0.13063 0.84835 0.0
C1706 C 0.78637 0.09785 0.78874 0.0
C1707 C 0.76501 0.09469 0.74013 0.0
N1708 N 0.75395 0.11917 0.8293 0.0
N1709 N 0.75078 0.10274 0.76041 0.0
H1710 H 0.58353 0.68967 0.7388 0.0
H1711 H 0.63711 0.82741 0.69707 0.0
H1712 H 0.59047 0.75477 0.7895 0.0
H1713 H 0.63073 0.76386 0.64449 0.0
H1714 H 0.61606 0.80177 0.73001 0.0
H1715 H 0.59671 0.7171 0.70283 0.0
C1716 C 0.58751 0.70978 0.7423 0.0
C1717 C 0.58611 0.71993 0.76718 0.0
C1718 C 0.61906 0.79341 0.71124 0.0
C1719 C 0.60126 0.75128 0.72631 0.0
C1720 C 0.63118 0.80804 0.69246 0.0
C1721 C 0.63591 0.79768 0.66811 0.0
C1722 C 0.61176 0.76803 0.70579 0.0
C1723 C 0.62737 0.77262 0.66299 0.0
C1724 C 0.59509 0.72539 0.7218 0.0
C1725 C 0.59151 0.74607 0.77067 0.0
N1726 N 0.61593 0.75853 0.68178 0.0
N1727 N 0.59898 0.76075 0.75054 0.0
H1728 H 0.2927 0.25709 0.08644 0.0
H1729 H 0.14614 0.26664 0.13163 0.0
H1730 H 0.24165 0.19194 0.0862 0.0
H1731 H 0.20075 0.32865 0.13567 0.0
H1732 H 0.17876 0.23998 0.11043 0.0
H1733 H 0.25724 0.28448 0.09965 0.0
C1734 C 0.27392 0.24856 0.089 0.0
C1735 C 0.27016 0.22215 0.08542 0.0
C1736 C 0.18351 0.25949 0.1158 0.0
C1737 C 0.2293 0.2535 0.10088 0.0
C1738 C 0.16486 0.27476 0.12776 0.0
C1739 C 0.17084 0.29985 0.13561 0.0
C1740 C 0.2082 0.26948 0.11157 0.0
C1741 C 0.19547 0.30929 0.13035 0.0
C1742 C 0.25363 0.26424 0.09658 0.0
C1743 C 0.24534 0.21222 0.08879 0.0
N1744 N 0.21322 0.2941 0.11878 0.0
N1745 N 0.22584 0.22789 0.09659 0.0
H1746 H 0.24351 0.82918 0.91273 0.0
H1747 H 0.18458 0.68845 0.90165 0.0
H1748 H 0.28686 0.7596 0.92541 0.0
H1749 H 0.15389 0.75194 0.85788 0.0
H1750 H 0.21781 0.71644 0.91829 0.0
H1751 H 0.20626 0.80303 0.9001 0.0
C1752 C 0.24506 0.80843 0.91316 0.0
C1753 C 0.26823 0.79645 0.92006 0.0
C1754 C 0.20378 0.72427 0.90507 0.0
C1755 C 0.22596 0.7667 0.90592 0.0
C1756 C 0.18481 0.70823 0.89537 0.0
C1757 C 0.16661 0.7176 0.87778 0.0
C1758 C 0.20457 0.75006 0.89746 0.0
C1759 C 0.16751 0.74381 0.87129 0.0
C1760 C 0.22392 0.79359 0.90582 0.0
C1761 C 0.26938 0.76957 0.9201 0.0
N1762 N 0.1863 0.75915 0.88104 0.0
N1763 N 0.24853 0.75561 0.9132 0.0
H1764 H 0.32207 0.26471 0.58608 0.0
H1765 H 0.18418 0.30804 0.63906 0.0
H1766 H 0.25764 0.21378 0.59653 0.0
H1767 H 0.24822 0.36005 0.63285 0.0
H1768 H 0.21011 0.27438 0.61942 0.0
H1769 H 0.29474 0.30095 0.59911 0.0
C1770 C 0.30214 0.2612 0.59086 0.0
C1771 C 0.29214 0.23619 0.59037 0.0
C1772 C 0.21854 0.29317 0.62218 0.0
C1773 C 0.26088 0.2774 0.60531 0.0
C1774 C 0.20372 0.31238 0.63349 0.0
C1775 C 0.21411 0.33681 0.63785 0.0
C1776 C 0.24409 0.29827 0.61524 0.0
C1777 C 0.23941 0.34152 0.62975 0.0
C1778 C 0.28658 0.28185 0.59835 0.0
C1779 C 0.26622 0.2327 0.5968 0.0
N1780 N 0.25364 0.32233 0.61904 0.0
N1781 N 0.25157 0.25301 0.60408 0.0
H1782 H 0.86676 0.26326 0.87972 0.0
H1783 H 0.71912 0.25636 0.9217 0.0
H1784 H 0.81257 0.32553 0.87168 0.0
H1785 H 0.77066 0.19154 0.92712 0.0
H1786 H 0.75479 0.2831 0.90785 0.0
H1787 H 0.83362 0.23792 0.90145 0.0
C1788 C 0.84802 0.27174 0.88282 0.0
C1789 C 0.84234 0.2965 0.87369 0.0
C1790 C 0.75844 0.26308 0.91222 0.0
C1791 C 0.80433 0.26757 0.89831 0.0
C1792 C 0.73804 0.24778 0.92017 0.0
C1793 C 0.7419 0.22163 0.92539 0.0
C1794 C 0.78296 0.2522 0.90925 0.0
C1795 C 0.76686 0.21163 0.92324 0.0
C1796 C 0.82907 0.25721 0.89509 0.0
C1797 C 0.81764 0.30639 0.87801 0.0
N1798 N 0.78646 0.22689 0.91509 0.0
N1799 N 0.79957 0.29188 0.88988 0.0
H1800 H 0.6894 0.74159 0.58504 0.0
H1801 H 0.82692 0.70006 0.64038 0.0
H1802 H 0.75377 0.79283 0.59422 0.0
H1803 H 0.76386 0.64706 0.63279 0.0
H1804 H 0.80094 0.7333 0.62004 0.0
H1805 H 0.71681 0.7057 0.59892 0.0
C1806 C 0.70933 0.74524 0.5897 0.0
C1807 C 0.71929 0.77025 0.58862 0.0
C1808 C 0.79274 0.71438 0.62266 0.0
C1809 C 0.75063 0.72945 0.60457 0.0
C1810 C 0.80757 0.69542 0.63438 0.0
C1811 C 0.79749 0.67082 0.63852 0.0
C1812 C 0.76745 0.70887 0.61509 0.0
C1813 C 0.77244 0.66573 0.62987 0.0
C1814 C 0.72494 0.72478 0.59768 0.0
C1815 C 0.74521 0.77391 0.59493 0.0
N1816 N 0.75818 0.68467 0.61877 0.0
N1817 N 0.75989 0.75381 0.60273 0.0
H1818 H 0.86399 0.7436 0.13054 0.0
H1819 H 0.71694 0.75351 0.08717 0.0
H1820 H 0.80992 0.68106 0.13367 0.0
H1821 H 0.76862 0.81815 0.08511 0.0
H1822 H 0.75243 0.72593 0.10006 0.0
H1823 H 0.83116 0.77031 0.10981 0.0
C1824 C 0.84536 0.73536 0.12654 0.0
C1825 C 0.8396 0.7101 0.13403 0.0
C1826 C 0.75616 0.74609 0.09665 0.0
C1827 C 0.80194 0.74058 0.11057 0.0
C1828 C 0.73586 0.76189 0.08926 0.0
C1829 C 0.73981 0.78821 0.08524 0.0
C1830 C 0.78068 0.75664 0.10028 0.0
C1831 C 0.76477 0.79794 0.08806 0.0
C1832 C 0.82658 0.75067 0.11485 0.0
C1833 C 0.81504 0.70054 0.12862 0.0
N1834 N 0.78427 0.78218 0.09565 0.0
N1835 N 0.79713 0.71579 0.11736 0.0
H1836 H 0.18335 0.70012 0.37394 0.0
H1837 H 0.32166 0.74776 0.42106 0.0
H1838 H 0.24897 0.64961 0.37874 0.0
H1839 H 0.25733 0.79811 0.40656 0.0
H1840 H 0.29537 0.71112 0.4076 0.0
H1841 H 0.21017 0.73578 0.38763 0.0
C1842 C 0.20342 0.69649 0.378 0.0
C1843 C 0.21386 0.67175 0.37535 0.0
C1844 C 0.28703 0.73019 0.40741 0.0
C1845 C 0.24492 0.71275 0.39094 0.0
C1846 C 0.30198 0.75108 0.41519 0.0
C1847 C 0.29164 0.77602 0.41496 0.0
C1848 C 0.26155 0.73428 0.39948 0.0
C1849 C 0.26609 0.77924 0.40704 0.0
C1850 C 0.21879 0.71693 0.38569 0.0
C1851 C 0.24016 0.66837 0.38038 0.0
N1852 N 0.25196 0.75865 0.39966 0.0
N1853 N 0.25478 0.68863 0.38806 0.0
H1854 H 0.75484 0.21452 0.41768 0.0
H1855 H 0.76256 0.36311 0.37922 0.0
H1856 H 0.69019 0.2661 0.42424 0.0
H1857 H 0.82542 0.30941 0.37261 0.0
H1858 H 0.73666 0.32945 0.39946 0.0
H1859 H 0.78175 0.25045 0.40492 0.0
C1860 C 0.74632 0.23349 0.41661 0.0
C1861 C 0.72018 0.23729 0.42188 0.0
C1862 C 0.75619 0.32512 0.39375 0.0
C1863 C 0.75097 0.27871 0.40699 0.0
C1864 C 0.77104 0.34437 0.38233 0.0
C1865 C 0.79616 0.339 0.374 0.0
C1866 C 0.76657 0.30037 0.39692 0.0
C1867 C 0.80603 0.31428 0.3783 0.0
C1868 C 0.76173 0.25405 0.40929 0.0
C1869 C 0.71026 0.26235 0.42032 0.0
N1870 N 0.79121 0.29591 0.38931 0.0
N1871 N 0.72564 0.28211 0.41279 0.0
loop_
_geom_bond_atom_site_label_1
_geom_bond_atom_site_label_2
_geom_bond_distance
_geom_bond_site_symmetry_2
_ccdc_geom_bond_type
Co0 N4 2.148 . S
Co0 N10 2.128 . S
Co0 N20 2.194 . S
Co0 O25 2.351 . S
Co0 O26 2.155 . S
Co0 O27 2.096 . S
C1 N4 1.301 . S
C1 N5 1.328 . S
C1 H6 0.930 . S
C2 C3 1.333 . S
C2 N4 1.317 . S
C2 H7 0.930 . S
C3 C2 1.333 . S
C3 N5 1.350 . S
C3 H29 0.931 . S
N4 Co0 2.148 . S
N4 C1 1.301 . S
N4 C2 1.317 . S
N5 C1 1.328 . S
N5 C3 1.350 . S
H6 C1 0.930 . S
H7 C2 0.930 . S
C8 O9 1.224 . S
C8 O27 1.247 . S
O9 C8 1.224 . S
N10 Co0 2.128 . S
N10 C11 1.355 . S
N10 C13 1.311 . S
C11 N10 1.355 . S
C11 C12 1.363 1_455 S
C11 H23 0.929 . S
C12 C11 1.363 1_655 S
C12 N14 1.375 1_655 S
C12 H30 0.931 . S
C13 N10 1.311 . S
C13 N14 1.347 . S
C13 H24 0.929 . S
N14 C12 1.375 1_455 S
N14 C13 1.347 . S
C15 C18 1.365 . S
C15 N20 1.328 . S
C15 H21 0.929 . S
C16 C17 1.362 . S
C16 C19 1.378 . S
C16 H31 0.929 . S
C17 C16 1.362 . S
C17 C18 1.366 . S
C18 C15 1.365 . S
C18 C17 1.366 . S
C18 H32 0.930 . S
C19 C16 1.378 . S
C19 N20 1.315 . S
C19 H22 0.930 . S
N20 Co0 2.194 . S
N20 C15 1.328 . S
N20 C19 1.315 . S
H21 C15 0.929 . S
H22 C19 0.930 . S
H23 C11 0.929 . S
H24 C13 0.929 . S
O25 Co0 2.351 . S
O25 C28 1.244 . S
O26 Co0 2.155 . S
O26 C28 1.240 . S
O27 Co0 2.096 . S
O27 C8 1.247 . S
C28 O25 1.244 . S
C28 O26 1.240 . S
H29 C3 0.931 . S
H30 C12 0.931 . S
H31 C16 0.929 . S
H32 C18 0.930 . S
Co33 N37 2.148 . S
Co33 N43 2.128 . S
Co33 N53 2.194 . S
Co33 O58 2.351 . S
Co33 O59 2.155 . S
Co33 O60 2.096 . S
C34 N37 1.301 . S
C34 N38 1.328 . S
C34 H39 0.930 . S
C35 C36 1.333 . S
C35 N37 1.317 . S
C35 H40 0.930 . S
C36 C35 1.333 . S
C36 N38 1.350 . S
C36 H62 0.931 . S
N37 Co33 2.148 . S
N37 C34 1.301 . S
N37 C35 1.317 . S
N38 C34 1.328 . S
N38 C36 1.350 . S
H39 C34 0.930 . S
H40 C35 0.930 . S
C41 O42 1.224 . S
C41 O60 1.247 . S
O42 C41 1.224 . S
N43 Co33 2.128 . S
N43 C44 1.355 . S
N43 C46 1.311 . S
C44 N43 1.355 . S
C44 C45 1.363 . S
C44 H56 0.929 . S
C45 C44 1.363 . S
C45 N47 1.375 . S
C45 H63 0.931 . S
C46 N43 1.311 . S
C46 N47 1.347 . S
C46 H57 0.929 . S
N47 C45 1.375 . S
N47 C46 1.347 . S
C48 C51 1.365 . S
C48 N53 1.328 . S
C48 H54 0.929 . S
C49 C50 1.362 . S
C49 C52 1.378 . S
C49 H64 0.929 . S
C50 C49 1.362 . S
C50 C51 1.366 . S
C51 C48 1.365 . S
C51 C50 1.366 . S
C51 H65 0.930 . S
C52 C49 1.378 . S
C52 N53 1.315 . S
C52 H55 0.930 . S
N53 Co33 2.194 . S
N53 C48 1.328 . S
N53 C52 1.315 . S
H54 C48 0.929 . S
H55 C52 0.930 . S
H56 C44 0.929 . S
H57 C46 0.929 . S
O58 Co33 2.351 . S
O58 C61 1.244 . S
O59 Co33 2.155 . S
O59 C61 1.240 . S
O60 Co33 2.096 . S
O60 C41 1.247 . S
C61 O58 1.244 . S
C61 O59 1.240 . S
H62 C36 0.931 . S
H63 C45 0.931 . S
H64 C49 0.929 . S
H65 C51 0.930 . S
Co66 N70 2.148 . S
Co66 N76 2.128 . S
Co66 N86 2.194 . S
Co66 O91 2.351 . S
Co66 O92 2.155 . S
Co66 O93 2.096 . S
C67 N70 1.301 . S
C67 N71 1.328 . S
C67 H72 0.930 . S
C68 C69 1.333 . S
C68 N70 1.317 . S
C68 H73 0.930 . S
C69 C68 1.333 . S
C69 N71 1.350 . S
C69 H95 0.931 . S
N70 Co66 2.148 . S
N70 C67 1.301 . S
N70 C68 1.317 . S
N71 C67 1.328 . S
N71 C69 1.350 . S
H72 C67 0.930 . S
H73 C68 0.930 . S
C74 O75 1.224 . S
C74 O93 1.247 . S
O75 C74 1.224 . S
N76 Co66 2.128 . S
N76 C77 1.355 . S
N76 C79 1.311 . S
C77 N76 1.355 . S
C77 C78 1.363 1_655 S
C77 H89 0.929 . S
C78 C77 1.363 1_455 S
C78 N80 1.375 1_455 S
C78 H96 0.931 . S
C79 N76 1.311 . S
C79 N80 1.347 . S
C79 H90 0.929 . S
N80 C78 1.375 1_655 S
N80 C79 1.347 . S
C81 C84 1.365 . S
C81 N86 1.328 . S
C81 H87 0.929 . S
C82 C83 1.362 . S
C82 C85 1.378 . S
C82 H97 0.929 . S
C83 C82 1.362 . S
C83 C84 1.366 . S
C84 C81 1.365 . S
C84 C83 1.366 . S
C84 H98 0.930 . S
C85 C82 1.378 . S
C85 N86 1.315 . S
C85 H88 0.930 . S
N86 Co66 2.194 . S
N86 C81 1.328 . S
N86 C85 1.315 . S
H87 C81 0.929 . S
H88 C85 0.930 . S
H89 C77 0.929 . S
H90 C79 0.929 . S
O91 Co66 2.351 . S
O91 C94 1.244 . S
O92 Co66 2.155 . S
O92 C94 1.240 . S
O93 Co66 2.096 . S
O93 C74 1.247 . S
C94 O91 1.244 . S
C94 O92 1.240 . S
H95 C69 0.931 . S
H96 C78 0.931 . S
H97 C82 0.929 . S
H98 C84 0.930 . S
Co99 N103 2.148 . S
Co99 N109 2.128 . S
Co99 N119 2.194 . S
Co99 O124 2.351 . S
Co99 O125 2.155 . S
Co99 O126 2.096 . S
C100 N103 1.301 . S
C100 N104 1.328 . S
C100 H105 0.930 . S
C101 C102 1.333 . S
C101 N103 1.317 . S
C101 H106 0.930 . S
C102 C101 1.333 . S
C102 N104 1.350 . S
C102 H128 0.931 . S
N103 Co99 2.148 . S
N103 C100 1.301 . S
N103 C101 1.317 . S
N104 C100 1.328 . S
N104 C102 1.350 . S
H105 C100 0.930 . S
H106 C101 0.930 . S
C107 O108 1.224 . S
C107 O126 1.247 . S
O108 C107 1.224 . S
N109 Co99 2.128 . S
N109 C110 1.355 . S
N109 C112 1.311 . S
C110 N109 1.355 . S
C110 C111 1.363 . S
C110 H122 0.929 . S
C111 C110 1.363 . S
C111 N113 1.375 . S
C111 H129 0.931 . S
C112 N109 1.311 . S
C112 N113 1.347 . S
C112 H123 0.929 . S
N113 C111 1.375 . S
N113 C112 1.347 . S
C114 C117 1.365 . S
C114 N119 1.328 . S
C114 H120 0.929 . S
C115 C116 1.362 . S
C115 C118 1.378 . S
C115 H130 0.929 . S
C116 C115 1.362 . S
C116 C117 1.366 . S
C117 C114 1.365 . S
C117 C116 1.366 . S
C117 H131 0.930 . S
C118 C115 1.378 . S
C118 N119 1.315 . S
C118 H121 0.930 . S
N119 Co99 2.194 . S
N119 C114 1.328 . S
N119 C118 1.315 . S
H120 C114 0.929 . S
H121 C118 0.930 . S
H122 C110 0.929 . S
H123 C112 0.929 . S
O124 Co99 2.351 . S
O124 C127 1.244 . S
O125 Co99 2.155 . S
O125 C127 1.240 . S
O126 Co99 2.096 . S
O126 C107 1.247 . S
C127 O124 1.244 . S
C127 O125 1.240 . S
H128 C102 0.931 . S
H129 C111 0.931 . S
H130 C115 0.929 . S
H131 C117 0.930 . S
Co132 N136 2.148 . S
Co132 N142 2.128 . S
Co132 N152 2.194 . S
Co132 O157 2.351 . S
Co132 O158 2.155 . S
Co132 O159 2.096 . S
C133 N136 1.301 . S
C133 N137 1.328 . S
C133 H138 0.930 . S
C134 C135 1.333 . S
C134 N136 1.317 . S
C134 H139 0.930 . S
C135 C134 1.333 . S
C135 N137 1.350 . S
C135 H161 0.931 . S
N136 Co132 2.148 . S
N136 C133 1.301 . S
N136 C134 1.317 . S
N137 C133 1.328 . S
N137 C135 1.350 . S
H138 C133 0.930 . S
H139 C134 0.930 . S
C140 O141 1.224 . S
C140 O159 1.247 . S
O141 C140 1.224 . S
N142 Co132 2.128 . S
N142 C143 1.355 . S
N142 C145 1.311 . S
C143 N142 1.355 . S
C143 C144 1.363 1_455 S
C143 H155 0.929 . S
C144 C143 1.363 1_655 S
C144 N146 1.375 1_655 S
C144 H162 0.931 . S
C145 N142 1.311 . S
C145 N146 1.347 . S
C145 H156 0.929 . S
N146 C144 1.375 1_455 S
N146 C145 1.347 . S
C147 C150 1.365 . S
C147 N152 1.328 . S
C147 H153 0.929 . S
C148 C149 1.362 . S
C148 C151 1.378 . S
C148 H163 0.929 . S
C149 C148 1.362 . S
C149 C150 1.366 . S
C150 C147 1.365 . S
C150 C149 1.366 . S
C150 H164 0.930 . S
C151 C148 1.378 . S
C151 N152 1.315 . S
C151 H154 0.930 . S
N152 Co132 2.194 . S
N152 C147 1.328 . S
N152 C151 1.315 . S
H153 C147 0.929 . S
H154 C151 0.930 . S
H155 C143 0.929 . S
H156 C145 0.929 . S
O157 Co132 2.351 . S
O157 C160 1.244 . S
O158 Co132 2.155 . S
O158 C160 1.240 . S
O159 Co132 2.096 . S
O159 C140 1.247 . S
C160 O157 1.244 . S
C160 O158 1.240 . S
H161 C135 0.931 . S
H162 C144 0.931 . S
H163 C148 0.929 . S
H164 C150 0.930 . S
Co165 N169 2.148 . S
Co165 N175 2.128 . S
Co165 N185 2.194 . S
Co165 O190 2.351 . S
Co165 O191 2.155 . S
Co165 O192 2.096 . S
C166 N169 1.301 . S
C166 N170 1.328 . S
C166 H171 0.930 . S
C167 C168 1.333 . S
C167 N169 1.317 . S
C167 H172 0.930 . S
C168 C167 1.333 . S
C168 N170 1.350 . S
C168 H194 0.931 . S
N169 Co165 2.148 . S
N169 C166 1.301 . S
N169 C167 1.317 . S
N170 C166 1.328 . S
N170 C168 1.350 . S
H171 C166 0.930 . S
H172 C167 0.930 . S
C173 O174 1.224 . S
C173 O192 1.247 . S
O174 C173 1.224 . S
N175 Co165 2.128 . S
N175 C176 1.355 . S
N175 C178 1.311 . S
C176 N175 1.355 . S
C176 C177 1.363 . S
C176 H188 0.929 . S
C177 C176 1.363 . S
C177 N179 1.375 . S
C177 H195 0.931 . S
C178 N175 1.311 . S
C178 N179 1.347 . S
C178 H189 0.929 . S
N179 C177 1.375 . S
N179 C178 1.347 . S
C180 C183 1.365 . S
C180 N185 1.328 . S
C180 H186 0.929 . S
C181 C182 1.362 . S
C181 C184 1.378 . S
C181 H196 0.929 . S
C182 C181 1.362 . S
C182 C183 1.366 . S
C183 C180 1.365 . S
C183 C182 1.366 . S
C183 H197 0.930 . S
C184 C181 1.378 . S
C184 N185 1.315 . S
C184 H187 0.930 . S
N185 Co165 2.194 . S
N185 C180 1.328 . S
N185 C184 1.315 . S
H186 C180 0.929 . S
H187 C184 0.930 . S
H188 C176 0.929 . S
H189 C178 0.929 . S
O190 Co165 2.351 . S
O190 C193 1.244 . S
O191 Co165 2.155 . S
O191 C193 1.240 . S
O192 Co165 2.096 . S
O192 C173 1.247 . S
C193 O190 1.244 . S
C193 O191 1.240 . S
H194 C168 0.931 . S
H195 C177 0.931 . S
H196 C181 0.929 . S
H197 C183 0.930 . S
Co198 N202 2.148 . S
Co198 N208 2.128 . S
Co198 N218 2.194 . S
Co198 O223 2.351 . S
Co198 O224 2.155 . S
Co198 O225 2.096 . S
C199 N202 1.301 . S
C199 N203 1.328 . S
C199 H204 0.930 . S
C200 C201 1.333 . S
C200 N202 1.317 . S
C200 H205 0.930 . S
C201 C200 1.333 . S
C201 N203 1.350 . S
C201 H227 0.931 . S
N202 Co198 2.148 . S
N202 C199 1.301 . S
N202 C200 1.317 . S
N203 C199 1.328 . S
N203 C201 1.350 . S
H204 C199 0.930 . S
H205 C200 0.930 . S
C206 O207 1.224 . S
C206 O225 1.247 . S
O207 C206 1.224 . S
N208 Co198 2.128 . S
N208 C209 1.355 . S
N208 C211 1.311 . S
C209 N208 1.355 . S
C209 C210 1.363 1_655 S
C209 H221 0.929 . S
C210 C209 1.363 1_455 S
C210 N212 1.375 1_455 S
C210 H228 0.931 . S
C211 N208 1.311 . S
C211 N212 1.347 . S
C211 H222 0.929 . S
N212 C210 1.375 1_655 S
N212 C211 1.347 . S
C213 C216 1.365 . S
C213 N218 1.328 . S
C213 H219 0.929 . S
C214 C215 1.362 . S
C214 C217 1.378 . S
C214 H229 0.929 . S
C215 C214 1.362 . S
C215 C216 1.366 . S
C216 C213 1.365 . S
C216 C215 1.366 . S
C216 H230 0.930 . S
C217 C214 1.378 . S
C217 N218 1.315 . S
C217 H220 0.930 . S
N218 Co198 2.194 . S
N218 C213 1.328 . S
N218 C217 1.315 . S
H219 C213 0.929 . S
H220 C217 0.930 . S
H221 C209 0.929 . S
H222 C211 0.929 . S
O223 Co198 2.351 . S
O223 C226 1.244 . S
O224 Co198 2.155 . S
O224 C226 1.240 . S
O225 Co198 2.096 . S
O225 C206 1.247 . S
C226 O223 1.244 . S
C226 O224 1.240 . S
H227 C201 0.931 . S
H228 C210 0.931 . S
H229 C214 0.929 . S
H230 C216 0.930 . S
Co231 N235 2.148 . S
Co231 N241 2.128 . S
Co231 N251 2.194 . S
Co231 O256 2.351 . S
Co231 O257 2.155 . S
Co231 O258 2.096 . S
C232 N235 1.301 . S
C232 N236 1.328 . S
C232 H237 0.930 . S
C233 C234 1.333 . S
C233 N235 1.317 . S
C233 H238 0.930 . S
C234 C233 1.333 . S
C234 N236 1.350 . S
C234 H260 0.931 . S
N235 Co231 2.148 . S
N235 C232 1.301 . S
N235 C233 1.317 . S
N236 C232 1.328 . S
N236 C234 1.350 . S
H237 C232 0.930 . S
H238 C233 0.930 . S
C239 O240 1.224 . S
C239 O258 1.247 . S
O240 C239 1.224 . S
N241 Co231 2.128 . S
N241 C242 1.355 . S
N241 C244 1.311 . S
C242 N241 1.355 . S
C242 C243 1.363 . S
C242 H254 0.929 . S
C243 C242 1.363 . S
C243 N245 1.375 . S
C243 H261 0.931 . S
C244 N241 1.311 . S
C244 N245 1.347 . S
C244 H255 0.929 . S
N245 C243 1.375 . S
N245 C244 1.347 . S
C246 C249 1.365 . S
C246 N251 1.328 . S
C246 H252 0.929 . S
C247 C248 1.362 . S
C247 C250 1.378 . S
C247 H262 0.929 . S
C248 C247 1.362 . S
C248 C249 1.366 . S
C249 C246 1.365 . S
C249 C248 1.366 . S
C249 H263 0.930 . S
C250 C247 1.378 . S
C250 N251 1.315 . S
C250 H253 0.930 . S
N251 Co231 2.194 . S
N251 C246 1.328 . S
N251 C250 1.315 . S
H252 C246 0.929 . S
H253 C250 0.930 . S
H254 C242 0.929 . S
H255 C244 0.929 . S
O256 Co231 2.351 . S
O256 C259 1.244 . S
O257 Co231 2.155 . S
O257 C259 1.240 . S
O258 Co231 2.096 . S
O258 C239 1.247 . S
C259 O256 1.244 . S
C259 O257 1.240 . S
H260 C234 0.931 . S
H261 C243 0.931 . S
H262 C247 0.929 . S
H263 C249 0.930 . S
Co264 N268 2.148 . S
Co264 N274 2.128 . S
Co264 N284 2.194 . S
Co264 O289 2.351 . S
Co264 O290 2.155 . S
Co264 O291 2.096 . S
C265 N268 1.301 . S
C265 N269 1.328 . S
C265 H270 0.930 . S
C266 C267 1.333 . S
C266 N268 1.317 . S
C266 H271 0.930 . S
C267 C266 1.333 . S
C267 N269 1.350 . S
C267 H293 0.931 . S
N268 Co264 2.148 . S
N268 C265 1.301 . S
N268 C266 1.317 . S
N269 C265 1.328 . S
N269 C267 1.350 . S
H270 C265 0.930 . S
H271 C266 0.930 . S
C272 O273 1.224 . S
C272 O291 1.247 . S
O273 C272 1.224 . S
N274 Co264 2.128 . S
N274 C275 1.355 . S
N274 C277 1.311 . S
C275 N274 1.355 . S
C275 C276 1.363 1_545 S
C275 H287 0.929 . S
C276 C275 1.363 1_565 S
C276 N278 1.375 1_565 S
C276 H294 0.931 . S
C277 N274 1.311 . S
C277 N278 1.347 . S
C277 H288 0.929 . S
N278 C276 1.375 1_545 S
N278 C277 1.347 . S
C279 C282 1.365 . S
C279 N284 1.328 . S
C279 H285 0.929 . S
C280 C281 1.362 . S
C280 C283 1.378 . S
C280 H295 0.929 . S
C281 C280 1.362 . S
C281 C282 1.366 . S
C282 C279 1.365 . S
C282 C281 1.366 . S
C282 H296 0.930 . S
C283 C280 1.378 . S
C283 N284 1.315 . S
C283 H286 0.930 . S
N284 Co264 2.194 . S
N284 C279 1.328 . S
N284 C283 1.315 . S
H285 C279 0.929 . S
H286 C283 0.930 . S
H287 C275 0.929 . S
H288 C277 0.929 . S
O289 Co264 2.351 . S
O289 C292 1.244 . S
O290 Co264 2.155 . S
O290 C292 1.240 . S
O291 Co264 2.096 . S
O291 C272 1.247 . S
C292 O289 1.244 . S
C292 O290 1.240 . S
H293 C267 0.931 . S
H294 C276 0.931 . S
H295 C280 0.929 . S
H296 C282 0.930 . S
Co297 N301 2.148 . S
Co297 N307 2.128 . S
Co297 N317 2.194 . S
Co297 O322 2.351 . S
Co297 O323 2.155 . S
Co297 O324 2.096 . S
C298 N301 1.301 . S
C298 N302 1.328 . S
C298 H303 0.930 . S
C299 C300 1.333 . S
C299 N301 1.317 . S
C299 H304 0.930 . S
C300 C299 1.333 . S
C300 N302 1.350 . S
C300 H326 0.931 . S
N301 Co297 2.148 . S
N301 C298 1.301 . S
N301 C299 1.317 . S
N302 C298 1.328 . S
N302 C300 1.350 . S
H303 C298 0.930 . S
H304 C299 0.930 . S
C305 O306 1.224 . S
C305 O324 1.247 . S
O306 C305 1.224 . S
N307 Co297 2.128 . S
N307 C308 1.355 . S
N307 C310 1.311 . S
C308 N307 1.355 . S
C308 C309 1.363 . S
C308 H320 0.929 . S
C309 C308 1.363 . S
C309 N311 1.375 . S
C309 H327 0.931 . S
C310 N307 1.311 . S
C310 N311 1.347 . S
C310 H321 0.929 . S
N311 C309 1.375 . S
N311 C310 1.347 . S
C312 C315 1.365 . S
C312 N317 1.328 . S
C312 H318 0.929 . S
C313 C314 1.362 . S
C313 C316 1.378 . S
C313 H328 0.929 . S
C314 C313 1.362 . S
C314 C315 1.366 . S
C315 C312 1.365 . S
C315 C314 1.366 . S
C315 H329 0.930 . S
C316 C313 1.378 . S
C316 N317 1.315 . S
C316 H319 0.930 . S
N317 Co297 2.194 . S
N317 C312 1.328 . S
N317 C316 1.315 . S
H318 C312 0.929 . S
H319 C316 0.930 . S
H320 C308 0.929 . S
H321 C310 0.929 . S
O322 Co297 2.351 . S
O322 C325 1.244 . S
O323 Co297 2.155 . S
O323 C325 1.240 . S
O324 Co297 2.096 . S
O324 C305 1.247 . S
C325 O322 1.244 . S
C325 O323 1.240 . S
H326 C300 0.931 . S
H327 C309 0.931 . S
H328 C313 0.929 . S
H329 C315 0.930 . S
Co330 N334 2.148 . S
Co330 N340 2.128 . S
Co330 N350 2.194 . S
Co330 O355 2.351 . S
Co330 O356 2.155 . S
Co330 O357 2.096 . S
C331 N334 1.301 . S
C331 N335 1.328 . S
C331 H336 0.930 . S
C332 C333 1.333 . S
C332 N334 1.317 . S
C332 H337 0.930 . S
C333 C332 1.333 . S
C333 N335 1.350 . S
C333 H359 0.931 . S
N334 Co330 2.148 . S
N334 C331 1.301 . S
N334 C332 1.317 . S
N335 C331 1.328 . S
N335 C333 1.350 . S
H336 C331 0.930 . S
H337 C332 0.930 . S
C338 O339 1.224 . S
C338 O357 1.247 . S
O339 C338 1.224 . S
N340 Co330 2.128 . S
N340 C341 1.355 . S
N340 C343 1.311 . S
C341 N340 1.355 . S
C341 C342 1.363 1_565 S
C341 H353 0.929 . S
C342 C341 1.363 1_545 S
C342 N344 1.375 1_545 S
C342 H360 0.931 . S
C343 N340 1.311 . S
C343 N344 1.347 . S
C343 H354 0.929 . S
N344 C342 1.375 1_565 S
N344 C343 1.347 . S
C345 C348 1.365 . S
C345 N350 1.328 . S
C345 H351 0.929 . S
C346 C347 1.362 . S
C346 C349 1.378 . S
C346 H361 0.929 . S
C347 C346 1.362 . S
C347 C348 1.366 . S
C348 C345 1.365 . S
C348 C347 1.366 . S
C348 H362 0.930 . S
C349 C346 1.378 . S
C349 N350 1.315 . S
C349 H352 0.930 . S
N350 Co330 2.194 . S
N350 C345 1.328 . S
N350 C349 1.315 . S
H351 C345 0.929 . S
H352 C349 0.930 . S
H353 C341 0.929 . S
H354 C343 0.929 . S
O355 Co330 2.351 . S
O355 C358 1.244 . S
O356 Co330 2.155 . S
O356 C358 1.240 . S
O357 Co330 2.096 . S
O357 C338 1.247 . S
C358 O355 1.244 . S
C358 O356 1.240 . S
H359 C333 0.931 . S
H360 C342 0.931 . S
H361 C346 0.929 . S
H362 C348 0.930 . S
Co363 N367 2.148 . S
Co363 N373 2.128 . S
Co363 N383 2.194 . S
Co363 O388 2.351 . S
Co363 O389 2.155 . S
Co363 O390 2.096 . S
C364 N367 1.301 . S
C364 N368 1.328 . S
C364 H369 0.930 . S
C365 C366 1.333 . S
C365 N367 1.317 . S
C365 H370 0.930 . S
C366 C365 1.333 . S
C366 N368 1.350 . S
C366 H392 0.931 . S
N367 Co363 2.148 . S
N367 C364 1.301 . S
N367 C365 1.317 . S
N368 C364 1.328 . S
N368 C366 1.350 . S
H369 C364 0.930 . S
H370 C365 0.930 . S
C371 O372 1.224 . S
C371 O390 1.247 . S
O372 C371 1.224 . S
N373 Co363 2.128 . S
N373 C374 1.355 . S
N373 C376 1.311 . S
C374 N373 1.355 . S
C374 C375 1.363 . S
C374 H386 0.929 . S
C375 C374 1.363 . S
C375 N377 1.375 . S
C375 H393 0.931 . S
C376 N373 1.311 . S
C376 N377 1.347 . S
C376 H387 0.929 . S
N377 C375 1.375 . S
N377 C376 1.347 . S
C378 C381 1.365 . S
C378 N383 1.328 . S
C378 H384 0.929 . S
C379 C380 1.362 . S
C379 C382 1.378 . S
C379 H394 0.929 . S
C380 C379 1.362 . S
C380 C381 1.366 . S
C381 C378 1.365 . S
C381 C380 1.366 . S
C381 H395 0.930 . S
C382 C379 1.378 . S
C382 N383 1.315 . S
C382 H385 0.930 . S
N383 Co363 2.194 . S
N383 C378 1.328 . S
N383 C382 1.315 . S
H384 C378 0.929 . S
H385 C382 0.930 . S
H386 C374 0.929 . S
H387 C376 0.929 . S
O388 Co363 2.351 . S
O388 C391 1.244 . S
O389 Co363 2.155 . S
O389 C391 1.240 . S
O390 Co363 2.096 . S
O390 C371 1.247 . S
C391 O388 1.244 . S
C391 O389 1.240 . S
H392 C366 0.931 . S
H393 C375 0.931 . S
H394 C379 0.929 . S
H395 C381 0.930 . S
Co396 N400 2.148 . S
Co396 N406 2.128 . S
Co396 N416 2.194 . S
Co396 O421 2.351 . S
Co396 O422 2.155 . S
Co396 O423 2.096 . S
C397 N400 1.301 . S
C397 N401 1.328 . S
C397 H402 0.930 . S
C398 C399 1.333 . S
C398 N400 1.317 . S
C398 H403 0.930 . S
C399 C398 1.333 . S
C399 N401 1.350 . S
C399 H425 0.931 . S
N400 Co396 2.148 . S
N400 C397 1.301 . S
N400 C398 1.317 . S
N401 C397 1.328 . S
N401 C399 1.350 . S
H402 C397 0.930 . S
H403 C398 0.930 . S
C404 O405 1.224 . S
C404 O423 1.247 . S
O405 C404 1.224 . S
N406 Co396 2.128 . S
N406 C407 1.355 . S
N406 C409 1.311 . S
C407 N406 1.355 . S
C407 C408 1.363 1_565 S
C407 H419 0.929 . S
C408 C407 1.363 1_545 S
C408 N410 1.375 1_545 S
C408 H426 0.931 . S
C409 N406 1.311 . S
C409 N410 1.347 . S
C409 H420 0.929 . S
N410 C408 1.375 1_565 S
N410 C409 1.347 . S
C411 C414 1.365 . S
C411 N416 1.328 . S
C411 H417 0.929 . S
C412 C413 1.362 . S
C412 C415 1.378 . S
C412 H427 0.929 . S
C413 C412 1.362 . S
C413 C414 1.366 . S
C414 C411 1.365 . S
C414 C413 1.366 . S
C414 H428 0.930 . S
C415 C412 1.378 . S
C415 N416 1.315 . S
C415 H418 0.930 . S
N416 Co396 2.194 . S
N416 C411 1.328 . S
N416 C415 1.315 . S
H417 C411 0.929 . S
H418 C415 0.930 . S
H419 C407 0.929 . S
H420 C409 0.929 . S
O421 Co396 2.351 . S
O421 C424 1.244 . S
O422 Co396 2.155 . S
O422 C424 1.240 . S
O423 Co396 2.096 . S
O423 C404 1.247 . S
C424 O421 1.244 . S
C424 O422 1.240 . S
H425 C399 0.931 . S
H426 C408 0.931 . S
H427 C412 0.929 . S
H428 C414 0.930 . S
Co429 N433 2.148 . S
Co429 N439 2.128 . S
Co429 N449 2.194 . S
Co429 O454 2.351 . S
Co429 O455 2.155 . S
Co429 O456 2.096 . S
C430 N433 1.301 . S
C430 N434 1.328 . S
C430 H435 0.930 . S
C431 C432 1.333 . S
C431 N433 1.317 . S
C431 H436 0.930 . S
C432 C431 1.333 . S
C432 N434 1.350 . S
C432 H458 0.931 . S
N433 Co429 2.148 . S
N433 C430 1.301 . S
N433 C431 1.317 . S
N434 C430 1.328 . S
N434 C432 1.350 . S
H435 C430 0.930 . S
H436 C431 0.930 . S
C437 O438 1.224 . S
C437 O456 1.247 . S
O438 C437 1.224 . S
N439 Co429 2.128 . S
N439 C440 1.355 . S
N439 C442 1.311 . S
C440 N439 1.355 . S
C440 C441 1.363 . S
C440 H452 0.929 . S
C441 C440 1.363 . S
C441 N443 1.375 . S
C441 H459 0.931 . S
C442 N439 1.311 . S
C442 N443 1.347 . S
C442 H453 0.929 . S
N443 C441 1.375 . S
N443 C442 1.347 . S
C444 C447 1.365 . S
C444 N449 1.328 . S
C444 H450 0.929 . S
C445 C446 1.362 . S
C445 C448 1.378 . S
C445 H460 0.929 . S
C446 C445 1.362 . S
C446 C447 1.366 . S
C447 C444 1.365 . S
C447 C446 1.366 . S
C447 H461 0.930 . S
C448 C445 1.378 . S
C448 N449 1.315 . S
C448 H451 0.930 . S
N449 Co429 2.194 . S
N449 C444 1.328 . S
N449 C448 1.315 . S
H450 C444 0.929 . S
H451 C448 0.930 . S
H452 C440 0.929 . S
H453 C442 0.929 . S
O454 Co429 2.351 . S
O454 C457 1.244 . S
O455 Co429 2.155 . S
O455 C457 1.240 . S
O456 Co429 2.096 . S
O456 C437 1.247 . S
C457 O454 1.244 . S
C457 O455 1.240 . S
H458 C432 0.931 . S
H459 C441 0.931 . S
H460 C445 0.929 . S
H461 C447 0.930 . S
Co462 N466 2.148 . S
Co462 N472 2.128 . S
Co462 N482 2.194 . S
Co462 O487 2.351 . S
Co462 O488 2.155 . S
Co462 O489 2.096 . S
C463 N466 1.301 . S
C463 N467 1.328 . S
C463 H468 0.930 . S
C464 C465 1.333 . S
C464 N466 1.317 . S
C464 H469 0.930 . S
C465 C464 1.333 . S
C465 N467 1.350 . S
C465 H491 0.931 . S
N466 Co462 2.148 . S
N466 C463 1.301 . S
N466 C464 1.317 . S
N467 C463 1.328 . S
N467 C465 1.350 . S
H468 C463 0.930 . S
H469 C464 0.930 . S
C470 O471 1.224 . S
C470 O489 1.247 . S
O471 C470 1.224 . S
N472 Co462 2.128 . S
N472 C473 1.355 . S
N472 C475 1.311 . S
C473 N472 1.355 . S
C473 C474 1.363 1_545 S
C473 H485 0.929 . S
C474 C473 1.363 1_565 S
C474 N476 1.375 1_565 S
C474 H492 0.931 . S
C475 N472 1.311 . S
C475 N476 1.347 . S
C475 H486 0.929 . S
N476 C474 1.375 1_545 S
N476 C475 1.347 . S
C477 C480 1.365 . S
C477 N482 1.328 . S
C477 H483 0.929 . S
C478 C479 1.362 . S
C478 C481 1.378 . S
C478 H493 0.929 . S
C479 C478 1.362 . S
C479 C480 1.366 . S
C480 C477 1.365 . S
C480 C479 1.366 . S
C480 H494 0.930 . S
C481 C478 1.378 . S
C481 N482 1.315 . S
C481 H484 0.930 . S
N482 Co462 2.194 . S
N482 C477 1.328 . S
N482 C481 1.315 . S
H483 C477 0.929 . S
H484 C481 0.930 . S
H485 C473 0.929 . S
H486 C475 0.929 . S
O487 Co462 2.351 . S
O487 C490 1.244 . S
O488 Co462 2.155 . S
O488 C490 1.240 . S
O489 Co462 2.096 . S
O489 C470 1.247 . S
C490 O487 1.244 . S
C490 O488 1.240 . S
H491 C465 0.931 . S
H492 C474 0.931 . S
H493 C478 0.929 . S
H494 C480 0.930 . S
Co495 N499 2.148 . S
Co495 N505 2.128 . S
Co495 N515 2.194 . S
Co495 O520 2.351 . S
Co495 O521 2.155 . S
Co495 O522 2.096 . S
C496 N499 1.301 . S
C496 N500 1.328 . S
C496 H501 0.930 . S
C497 C498 1.333 . S
C497 N499 1.317 . S
C497 H502 0.930 . S
C498 C497 1.333 . S
C498 N500 1.350 . S
C498 H524 0.931 . S
N499 Co495 2.148 . S
N499 C496 1.301 . S
N499 C497 1.317 . S
N500 C496 1.328 . S
N500 C498 1.350 . S
H501 C496 0.930 . S
H502 C497 0.930 . S
C503 O504 1.224 . S
C503 O522 1.247 . S
O504 C503 1.224 . S
N505 Co495 2.128 . S
N505 C506 1.355 . S
N505 C508 1.311 . S
C506 N505 1.355 . S
C506 C507 1.363 . S
C506 H518 0.929 . S
C507 C506 1.363 . S
C507 N509 1.375 . S
C507 H525 0.931 . S
C508 N505 1.311 . S
C508 N509 1.347 . S
C508 H519 0.929 . S
N509 C507 1.375 . S
N509 C508 1.347 . S
C510 C513 1.365 . S
C510 N515 1.328 . S
C510 H516 0.929 . S
C511 C512 1.362 . S
C511 C514 1.378 . S
C511 H526 0.929 . S
C512 C511 1.362 . S
C512 C513 1.366 . S
C513 C510 1.365 . S
C513 C512 1.366 . S
C513 H527 0.930 . S
C514 C511 1.378 . S
C514 N515 1.315 . S
C514 H517 0.930 . S
N515 Co495 2.194 . S
N515 C510 1.328 . S
N515 C514 1.315 . S
H516 C510 0.929 . S
H517 C514 0.930 . S
H518 C506 0.929 . S
H519 C508 0.929 . S
O520 Co495 2.351 . S
O520 C523 1.244 . S
O521 Co495 2.155 . S
O521 C523 1.240 . S
O522 Co495 2.096 . S
O522 C503 1.247 . S
C523 O520 1.244 . S
C523 O521 1.240 . S
H524 C498 0.931 . S
H525 C507 0.931 . S
H526 C511 0.929 . S
H527 C513 0.930 . S
Co528 N532 2.148 . S
Co528 N538 2.128 . S
Co528 N548 2.194 . S
Co528 O553 2.351 . S
Co528 O554 2.155 . S
Co528 O555 2.096 . S
C529 N532 1.301 . S
C529 N533 1.328 . S
C529 H534 0.930 . S
C530 C531 1.333 . S
C530 N532 1.317 . S
C530 H535 0.930 . S
C531 C530 1.333 . S
C531 N533 1.350 . S
C531 H557 0.931 . S
N532 Co528 2.148 . S
N532 C529 1.301 . S
N532 C530 1.317 . S
N533 C529 1.328 . S
N533 C531 1.350 . S
H534 C529 0.930 . S
H535 C530 0.930 . S
C536 O537 1.224 . S
C536 O555 1.247 . S
O537 C536 1.224 . S
N538 Co528 2.128 . S
N538 C539 1.355 . S
N538 C541 1.311 . S
C539 N538 1.355 . S
C539 C540 1.363 1_554 S
C539 H551 0.929 . S
C540 C539 1.363 1_556 S
C540 N542 1.375 1_556 S
C540 H558 0.931 . S
C541 N538 1.311 . S
C541 N542 1.347 . S
C541 H552 0.929 . S
N542 C540 1.375 1_554 S
N542 C541 1.347 . S
C543 C546 1.365 . S
C543 N548 1.328 . S
C543 H549 0.929 . S
C544 C545 1.362 . S
C544 C547 1.378 . S
C544 H559 0.929 . S
C545 C544 1.362 . S
C545 C546 1.366 . S
C546 C543 1.365 . S
C546 C545 1.366 . S
C546 H560 0.930 . S
C547 C544 1.378 . S
C547 N548 1.315 . S
C547 H550 0.930 . S
N548 Co528 2.194 . S
N548 C543 1.328 . S
N548 C547 1.315 . S
H549 C543 0.929 . S
H550 C547 0.930 . S
H551 C539 0.929 . S
H552 C541 0.929 . S
O553 Co528 2.351 . S
O553 C556 1.244 . S
O554 Co528 2.155 . S
O554 C556 1.240 . S
O555 Co528 2.096 . S
O555 C536 1.247 . S
C556 O553 1.244 . S
C556 O554 1.240 . S
H557 C531 0.931 . S
H558 C540 0.931 . S
H559 C544 0.929 . S
H560 C546 0.930 . S
Co561 N565 2.148 . S
Co561 N571 2.128 . S
Co561 N581 2.194 . S
Co561 O586 2.351 . S
Co561 O587 2.155 . S
Co561 O588 2.096 . S
C562 N565 1.301 . S
C562 N566 1.328 . S
C562 H567 0.930 . S
C563 C564 1.333 . S
C563 N565 1.317 . S
C563 H568 0.930 . S
C564 C563 1.333 . S
C564 N566 1.350 . S
C564 H590 0.931 . S
N565 Co561 2.148 . S
N565 C562 1.301 . S
N565 C563 1.317 . S
N566 C562 1.328 . S
N566 C564 1.350 . S
H567 C562 0.930 . S
H568 C563 0.930 . S
C569 O570 1.224 . S
C569 O588 1.247 . S
O570 C569 1.224 . S
N571 Co561 2.128 . S
N571 C572 1.355 . S
N571 C574 1.311 . S
C572 N571 1.355 . S
C572 C573 1.363 1_556 S
C572 H584 0.929 . S
C573 C572 1.363 1_554 S
C573 N575 1.375 1_554 S
C573 H591 0.931 . S
C574 N571 1.311 . S
C574 N575 1.347 . S
C574 H585 0.929 . S
N575 C573 1.375 1_556 S
N575 C574 1.347 . S
C576 C579 1.365 . S
C576 N581 1.328 . S
C576 H582 0.929 . S
C577 C578 1.362 . S
C577 C580 1.378 . S
C577 H592 0.929 . S
C578 C577 1.362 . S
C578 C579 1.366 . S
C579 C576 1.365 . S
C579 C578 1.366 . S
C579 H593 0.930 . S
C580 C577 1.378 . S
C580 N581 1.315 . S
C580 H583 0.930 . S
N581 Co561 2.194 . S
N581 C576 1.328 . S
N581 C580 1.315 . S
H582 C576 0.929 . S
H583 C580 0.930 . S
H584 C572 0.929 . S
H585 C574 0.929 . S
O586 Co561 2.351 . S
O586 C589 1.244 . S
O587 Co561 2.155 . S
O587 C589 1.240 . S
O588 Co561 2.096 . S
O588 C569 1.247 . S
C589 O586 1.244 . S
C589 O587 1.240 . S
H590 C564 0.931 . S
H591 C573 0.931 . S
H592 C577 0.929 . S
H593 C579 0.930 . S
Co594 N598 2.148 . S
Co594 N604 2.128 . S
Co594 N614 2.194 . S
Co594 O619 2.351 . S
Co594 O620 2.155 . S
Co594 O621 2.096 . S
C595 N598 1.301 . S
C595 N599 1.328 . S
C595 H600 0.930 . S
C596 C597 1.333 . S
C596 N598 1.317 . S
C596 H601 0.930 . S
C597 C596 1.333 . S
C597 N599 1.350 . S
C597 H623 0.931 . S
N598 Co594 2.148 . S
N598 C595 1.301 . S
N598 C596 1.317 . S
N599 C595 1.328 . S
N599 C597 1.350 . S
H600 C595 0.930 . S
H601 C596 0.930 . S
C602 O603 1.224 . S
C602 O621 1.247 . S
O603 C602 1.224 . S
N604 Co594 2.128 . S
N604 C605 1.355 . S
N604 C607 1.311 . S
C605 N604 1.355 . S
C605 C606 1.363 . S
C605 H617 0.929 . S
C606 C605 1.363 . S
C606 N608 1.375 . S
C606 H624 0.931 . S
C607 N604 1.311 . S
C607 N608 1.347 . S
C607 H618 0.929 . S
N608 C606 1.375 . S
N608 C607 1.347 . S
C609 C612 1.365 . S
C609 N614 1.328 . S
C609 H615 0.929 . S
C610 C611 1.362 . S
C610 C613 1.378 . S
C610 H625 0.929 . S
C611 C610 1.362 . S
C611 C612 1.366 . S
C612 C609 1.365 . S
C612 C611 1.366 . S
C612 H626 0.930 . S
C613 C610 1.378 . S
C613 N614 1.315 . S
C613 H616 0.930 . S
N614 Co594 2.194 . S
N614 C609 1.328 . S
N614 C613 1.315 . S
H615 C609 0.929 . S
H616 C613 0.930 . S
H617 C605 0.929 . S
H618 C607 0.929 . S
O619 Co594 2.351 . S
O619 C622 1.244 . S
O620 Co594 2.155 . S
O620 C622 1.240 . S
O621 Co594 2.096 . S
O621 C602 1.247 . S
C622 O619 1.244 . S
C622 O620 1.240 . S
H623 C597 0.931 . S
H624 C606 0.931 . S
H625 C610 0.929 . S
H626 C612 0.930 . S
Co627 N631 2.148 . S
Co627 N637 2.128 . S
Co627 N647 2.194 . S
Co627 O652 2.351 . S
Co627 O653 2.155 . S
Co627 O654 2.096 . S
C628 N631 1.301 . S
C628 N632 1.328 . S
C628 H633 0.930 . S
C629 C630 1.333 . S
C629 N631 1.317 . S
C629 H634 0.930 . S
C630 C629 1.333 . S
C630 N632 1.350 . S
C630 H656 0.931 . S
N631 Co627 2.148 . S
N631 C628 1.301 . S
N631 C629 1.317 . S
N632 C628 1.328 . S
N632 C630 1.350 . S
H633 C628 0.930 . S
H634 C629 0.930 . S
C635 O636 1.224 . S
C635 O654 1.247 . S
O636 C635 1.224 . S
N637 Co627 2.128 . S
N637 C638 1.355 . S
N637 C640 1.311 . S
C638 N637 1.355 . S
C638 C639 1.363 1_556 S
C638 H650 0.929 . S
C639 C638 1.363 1_554 S
C639 N641 1.375 1_554 S
C639 H657 0.931 . S
C640 N637 1.311 . S
C640 N641 1.347 . S
C640 H651 0.929 . S
N641 C639 1.375 1_556 S
N641 C640 1.347 . S
C642 C645 1.365 . S
C642 N647 1.328 . S
C642 H648 0.929 . S
C643 C644 1.362 . S
C643 C646 1.378 . S
C643 H658 0.929 . S
C644 C643 1.362 . S
C644 C645 1.366 . S
C645 C642 1.365 . S
C645 C644 1.366 . S
C645 H659 0.930 . S
C646 C643 1.378 . S
C646 N647 1.315 . S
C646 H649 0.930 . S
N647 Co627 2.194 . S
N647 C642 1.328 . S
N647 C646 1.315 . S
H648 C642 0.929 . S
H649 C646 0.930 . S
H650 C638 0.929 . S
H651 C640 0.929 . S
O652 Co627 2.351 . S
O652 C655 1.244 . S
O653 Co627 2.155 . S
O653 C655 1.240 . S
O654 Co627 2.096 . S
O654 C635 1.247 . S
C655 O652 1.244 . S
C655 O653 1.240 . S
H656 C630 0.931 . S
H657 C639 0.931 . S
H658 C643 0.929 . S
H659 C645 0.930 . S
Co660 N664 2.148 . S
Co660 N670 2.128 . S
Co660 N680 2.194 . S
Co660 O685 2.351 . S
Co660 O686 2.155 . S
Co660 O687 2.096 . S
C661 N664 1.301 . S
C661 N665 1.328 . S
C661 H666 0.930 . S
C662 C663 1.333 . S
C662 N664 1.317 . S
C662 H667 0.930 . S
C663 C662 1.333 . S
C663 N665 1.350 . S
C663 H689 0.931 . S
N664 Co660 2.148 . S
N664 C661 1.301 . S
N664 C662 1.317 . S
N665 C661 1.328 . S
N665 C663 1.350 . S
H666 C661 0.930 . S
H667 C662 0.930 . S
C668 O669 1.224 . S
C668 O687 1.247 . S
O669 C668 1.224 . S
N670 Co660 2.128 . S
N670 C671 1.355 . S
N670 C673 1.311 . S
C671 N670 1.355 . S
C671 C672 1.363 . S
C671 H683 0.929 . S
C672 C671 1.363 . S
C672 N674 1.375 . S
C672 H690 0.931 . S
C673 N670 1.311 . S
C673 N674 1.347 . S
C673 H684 0.929 . S
N674 C672 1.375 . S
N674 C673 1.347 . S
C675 C678 1.365 . S
C675 N680 1.328 . S
C675 H681 0.929 . S
C676 C677 1.362 . S
C676 C679 1.378 . S
C676 H691 0.929 . S
C677 C676 1.362 . S
C677 C678 1.366 . S
C678 C675 1.365 . S
C678 C677 1.366 . S
C678 H692 0.930 . S
C679 C676 1.378 . S
C679 N680 1.315 . S
C679 H682 0.930 . S
N680 Co660 2.194 . S
N680 C675 1.328 . S
N680 C679 1.315 . S
H681 C675 0.929 . S
H682 C679 0.930 . S
H683 C671 0.929 . S
H684 C673 0.929 . S
O685 Co660 2.351 . S
O685 C688 1.244 . S
O686 Co660 2.155 . S
O686 C688 1.240 . S
O687 Co660 2.096 . S
O687 C668 1.247 . S
C688 O685 1.244 . S
C688 O686 1.240 . S
H689 C663 0.931 . S
H690 C672 0.931 . S
H691 C676 0.929 . S
H692 C678 0.930 . S
Co693 N697 2.148 . S
Co693 N703 2.128 . S
Co693 N713 2.194 . S
Co693 O718 2.351 . S
Co693 O719 2.155 . S
Co693 O720 2.096 . S
C694 N697 1.301 . S
C694 N698 1.328 . S
C694 H699 0.930 . S
C695 C696 1.333 . S
C695 N697 1.317 . S
C695 H700 0.930 . S
C696 C695 1.333 . S
C696 N698 1.350 . S
C696 H722 0.931 . S
N697 Co693 2.148 . S
N697 C694 1.301 . S
N697 C695 1.317 . S
N698 C694 1.328 . S
N698 C696 1.350 . S
H699 C694 0.930 . S
H700 C695 0.930 . S
C701 O702 1.224 . S
C701 O720 1.247 . S
O702 C701 1.224 . S
N703 Co693 2.128 . S
N703 C704 1.355 . S
N703 C706 1.311 . S
C704 N703 1.355 . S
C704 C705 1.363 1_554 S
C704 H716 0.929 . S
C705 C704 1.363 1_556 S
C705 N707 1.375 1_556 S
C705 H723 0.931 . S
C706 N703 1.311 . S
C706 N707 1.347 . S
C706 H717 0.929 . S
N707 C705 1.375 1_554 S
N707 C706 1.347 . S
C708 C711 1.365 . S
C708 N713 1.328 . S
C708 H714 0.929 . S
C709 C710 1.362 . S
C709 C712 1.378 . S
C709 H724 0.929 . S
C710 C709 1.362 . S
C710 C711 1.366 . S
C711 C708 1.365 . S
C711 C710 1.366 . S
C711 H725 0.930 . S
C712 C709 1.378 . S
C712 N713 1.315 . S
C712 H715 0.930 . S
N713 Co693 2.194 . S
N713 C708 1.328 . S
N713 C712 1.315 . S
H714 C708 0.929 . S
H715 C712 0.930 . S
H716 C704 0.929 . S
H717 C706 0.929 . S
O718 Co693 2.351 . S
O718 C721 1.244 . S
O719 Co693 2.155 . S
O719 C721 1.240 . S
O720 Co693 2.096 . S
O720 C701 1.247 . S
C721 O718 1.244 . S
C721 O719 1.240 . S
H722 C696 0.931 . S
H723 C705 0.931 . S
H724 C709 0.929 . S
H725 C711 0.930 . S
Co726 N730 2.148 . S
Co726 N736 2.128 . S
Co726 N746 2.194 . S
Co726 O751 2.351 . S
Co726 O752 2.155 . S
Co726 O753 2.096 . S
C727 N730 1.301 . S
C727 N731 1.328 . S
C727 H732 0.930 . S
C728 C729 1.333 . S
C728 N730 1.317 . S
C728 H733 0.930 . S
C729 C728 1.333 . S
C729 N731 1.350 . S
C729 H755 0.931 . S
N730 Co726 2.148 . S
N730 C727 1.301 . S
N730 C728 1.317 . S
N731 C727 1.328 . S
N731 C729 1.350 . S
H732 C727 0.930 . S
H733 C728 0.930 . S
C734 O735 1.224 . S
C734 O753 1.247 . S
O735 C734 1.224 . S
N736 Co726 2.128 . S
N736 C737 1.355 . S
N736 C739 1.311 . S
C737 N736 1.355 . S
C737 C738 1.363 . S
C737 H749 0.929 . S
C738 C737 1.363 . S
C738 N740 1.375 . S
C738 H756 0.931 . S
C739 N736 1.311 . S
C739 N740 1.347 . S
C739 H750 0.929 . S
N740 C738 1.375 . S
N740 C739 1.347 . S
C741 C744 1.365 . S
C741 N746 1.328 . S
C741 H747 0.929 . S
C742 C743 1.362 . S
C742 C745 1.378 . S
C742 H757 0.929 . S
C743 C742 1.362 . S
C743 C744 1.366 . S
C744 C741 1.365 . S
C744 C743 1.366 . S
C744 H758 0.930 . S
C745 C742 1.378 . S
C745 N746 1.315 . S
C745 H748 0.930 . S
N746 Co726 2.194 . S
N746 C741 1.328 . S
N746 C745 1.315 . S
H747 C741 0.929 . S
H748 C745 0.930 . S
H749 C737 0.929 . S
H750 C739 0.929 . S
O751 Co726 2.351 . S
O751 C754 1.244 . S
O752 Co726 2.155 . S
O752 C754 1.240 . S
O753 Co726 2.096 . S
O753 C734 1.247 . S
C754 O751 1.244 . S
C754 O752 1.240 . S
H755 C729 0.931 . S
H756 C738 0.931 . S
H757 C742 0.929 . S
H758 C744 0.930 . S
Co759 N763 2.148 . S
Co759 N769 2.128 . S
Co759 N779 2.194 . S
Co759 O784 2.351 . S
Co759 O785 2.155 . S
Co759 O786 2.096 . S
C760 N763 1.301 . S
C760 N764 1.328 . S
C760 H765 0.930 . S
C761 C762 1.333 . S
C761 N763 1.317 . S
C761 H766 0.930 . S
C762 C761 1.333 . S
C762 N764 1.350 . S
C762 H788 0.931 . S
N763 Co759 2.148 . S
N763 C760 1.301 . S
N763 C761 1.317 . S
N764 C760 1.328 . S
N764 C762 1.350 . S
H765 C760 0.930 . S
H766 C761 0.930 . S
C767 O768 1.224 . S
C767 O786 1.247 . S
O768 C767 1.224 . S
N769 Co759 2.128 . S
N769 C770 1.355 . S
N769 C772 1.311 . S
C770 N769 1.355 . S
C770 C771 1.363 . S
C770 H782 0.929 . S
C771 C770 1.363 . S
C771 N773 1.375 . S
C771 H789 0.931 . S
C772 N769 1.311 . S
C772 N773 1.347 . S
C772 H783 0.929 . S
N773 C771 1.375 . S
N773 C772 1.347 . S
C774 C777 1.365 . S
C774 N779 1.328 . S
C774 H780 0.929 . S
C775 C776 1.362 . S
C775 C778 1.378 . S
C775 H790 0.929 . S
C776 C775 1.362 . S
C776 C777 1.366 . S
C777 C774 1.365 . S
C777 C776 1.366 . S
C777 H791 0.930 . S
C778 C775 1.378 . S
C778 N779 1.315 . S
C778 H781 0.930 . S
N779 Co759 2.194 . S
N779 C774 1.328 . S
N779 C778 1.315 . S
H780 C774 0.929 . S
H781 C778 0.930 . S
H782 C770 0.929 . S
H783 C772 0.929 . S
O784 Co759 2.351 . S
O784 C787 1.244 . S
O785 Co759 2.155 . S
O785 C787 1.240 . S
O786 Co759 2.096 . S
O786 C767 1.247 . S
C787 O784 1.244 . S
C787 O785 1.240 . S
H788 C762 0.931 . S
H789 C771 0.931 . S
H790 C775 0.929 . S
H791 C777 0.930 . S
H792 C798 0.930 . S
H793 C802 0.930 . S
H794 C807 0.929 . S
H795 C805 0.929 . S
H796 C800 0.929 . S
H797 C806 0.929 . S
C798 H792 0.930 . S
C798 C799 1.367 . S
C798 C806 1.378 . S
C799 C798 1.367 . S
C799 C807 1.433 . S
C800 H796 0.929 . S
C800 C802 1.378 . S
C800 C804 1.350 . S
C801 C804 1.463 . S
C801 C806 1.350 . S
C801 N809 1.427 . S
C802 H793 0.930 . S
C802 C800 1.378 . S
C802 C803 1.367 . S
C803 C802 1.367 . S
C803 C805 1.433 . S
C804 C800 1.350 . S
C804 C801 1.463 . S
C804 N808 1.427 . S
C805 H795 0.929 . S
C805 C803 1.433 . S
C805 N808 1.384 . S
C806 H797 0.929 . S
C806 C798 1.378 . S
C806 C801 1.350 . S
C807 H794 0.929 . S
C807 C799 1.433 . S
C807 N809 1.384 . S
N808 C804 1.427 . S
N808 C805 1.384 . S
N809 C801 1.427 . S
N809 C807 1.384 . S
H810 C816 0.930 . S
H811 C820 0.930 . S
H812 C825 0.929 . S
H813 C823 0.929 . S
H814 C818 0.929 . S
H815 C824 0.929 . S
C816 H810 0.930 . S
C816 C817 1.367 . S
C816 C824 1.378 . S
C817 C816 1.367 . S
C817 C825 1.433 . S
C818 H814 0.929 . S
C818 C820 1.378 . S
C818 C822 1.350 . S
C819 C822 1.463 . S
C819 C824 1.350 . S
C819 N827 1.427 . S
C820 H811 0.930 . S
C820 C818 1.378 . S
C820 C821 1.367 . S
C821 C820 1.367 . S
C821 C823 1.433 . S
C822 C818 1.350 . S
C822 C819 1.463 . S
C822 N826 1.427 . S
C823 H813 0.929 . S
C823 C821 1.433 . S
C823 N826 1.384 . S
C824 H815 0.929 . S
C824 C816 1.378 . S
C824 C819 1.350 . S
C825 H812 0.929 . S
C825 C817 1.433 . S
C825 N827 1.384 . S
N826 C822 1.427 . S
N826 C823 1.384 . S
N827 C819 1.427 . S
N827 C825 1.384 . S
H828 C834 0.930 . S
H829 C838 0.930 . S
H830 C843 0.929 . S
H831 C841 0.929 . S
H832 C836 0.929 . S
H833 C842 0.929 . S
C834 H828 0.930 . S
C834 C835 1.367 . S
C834 C842 1.378 . S
C835 C834 1.367 . S
C835 C843 1.433 . S
C836 H832 0.929 . S
C836 C838 1.378 . S
C836 C840 1.350 . S
C837 C840 1.463 . S
C837 C842 1.350 . S
C837 N845 1.427 . S
C838 H829 0.930 . S
C838 C836 1.378 . S
C838 C839 1.367 . S
C839 C838 1.367 . S
C839 C841 1.433 . S
C840 C836 1.350 . S
C840 C837 1.463 . S
C840 N844 1.427 . S
C841 H831 0.929 . S
C841 C839 1.433 . S
C841 N844 1.384 . S
C842 H833 0.929 . S
C842 C834 1.378 . S
C842 C837 1.350 . S
C843 H830 0.929 . S
C843 C835 1.433 . S
C843 N845 1.384 . S
N844 C840 1.427 . S
N844 C841 1.384 . S
N845 C837 1.427 . S
N845 C843 1.384 . S
H846 C852 0.930 . S
H847 C856 0.930 1_655 S
H848 C861 0.929 . S
H849 C859 0.929 . S
H850 C854 0.929 . S
H851 C860 0.929 . S
C852 H846 0.930 . S
C852 C853 1.367 . S
C852 C860 1.378 . S
C853 C852 1.367 . S
C853 C861 1.433 . S
C854 H850 0.929 . S
C854 C856 1.378 . S
C854 C858 1.350 . S
C855 C858 1.463 . S
C855 C860 1.350 . S
C855 N863 1.427 . S
C856 H847 0.930 1_455 S
C856 C854 1.378 . S
C856 C857 1.367 . S
C857 C856 1.367 . S
C857 C859 1.433 . S
C858 C854 1.350 . S
C858 C855 1.463 . S
C858 N862 1.427 . S
C859 H849 0.929 . S
C859 C857 1.433 . S
C859 N862 1.384 . S
C860 H851 0.929 . S
C860 C852 1.378 . S
C860 C855 1.350 . S
C861 H848 0.929 . S
C861 C853 1.433 . S
C861 N863 1.384 . S
N862 C858 1.427 . S
N862 C859 1.384 . S
N863 C855 1.427 . S
N863 C861 1.384 . S
H864 C870 0.930 . S
H865 C874 0.930 . S
H866 C879 0.929 . S
H867 C877 0.929 . S
H868 C872 0.929 . S
H869 C878 0.929 . S
C870 H864 0.930 . S
C870 C871 1.367 . S
C870 C878 1.378 . S
C871 C870 1.367 . S
C871 C879 1.433 . S
C872 H868 0.929 . S
C872 C874 1.378 . S
C872 C876 1.350 . S
C873 C876 1.463 . S
C873 C878 1.350 . S
C873 N881 1.427 . S
C874 H865 0.930 . S
C874 C872 1.378 . S
C874 C875 1.367 . S
C875 C874 1.367 . S
C875 C877 1.433 . S
C876 C872 1.350 . S
C876 C873 1.463 . S
C876 N880 1.427 . S
C877 H867 0.929 . S
C877 C875 1.433 . S
C877 N880 1.384 . S
C878 H869 0.929 . S
C878 C870 1.378 . S
C878 C873 1.350 . S
C879 H866 0.929 . S
C879 C871 1.433 . S
C879 N881 1.384 . S
N880 C876 1.427 . S
N880 C877 1.384 . S
N881 C873 1.427 . S
N881 C879 1.384 . S
H882 C888 0.930 1_655 S
H883 C892 0.930 . S
H884 C897 0.929 . S
H885 C895 0.929 . S
H886 C890 0.929 . S
H887 C896 0.929 . S
C888 H882 0.930 1_455 S
C888 C889 1.367 . S
C888 C896 1.378 . S
C889 C888 1.367 . S
C889 C897 1.433 . S
C890 H886 0.929 . S
C890 C892 1.378 . S
C890 C894 1.350 . S
C891 C894 1.463 . S
C891 C896 1.350 . S
C891 N899 1.427 . S
C892 H883 0.930 . S
C892 C890 1.378 . S
C892 C893 1.367 . S
C893 C892 1.367 . S
C893 C895 1.433 . S
C894 C890 1.350 . S
C894 C891 1.463 . S
C894 N898 1.427 . S
C895 H885 0.929 . S
C895 C893 1.433 . S
C895 N898 1.384 . S
C896 H887 0.929 . S
C896 C888 1.378 . S
C896 C891 1.350 . S
C897 H884 0.929 . S
C897 C889 1.433 . S
C897 N899 1.384 . S
N898 C894 1.427 . S
N898 C895 1.384 . S
N899 C891 1.427 . S
N899 C897 1.384 . S
H900 C906 0.930 . S
H901 C910 0.930 . S
H902 C915 0.929 . S
H903 C913 0.929 . S
H904 C908 0.929 . S
H905 C914 0.929 . S
C906 H900 0.930 . S
C906 C907 1.367 . S
C906 C914 1.378 . S
C907 C906 1.367 . S
C907 C915 1.433 . S
C908 H904 0.929 . S
C908 C910 1.378 . S
C908 C912 1.350 . S
C909 C912 1.463 . S
C909 C914 1.350 . S
C909 N917 1.427 . S
C910 H901 0.930 . S
C910 C908 1.378 . S
C910 C911 1.367 . S
C911 C910 1.367 . S
C911 C913 1.433 . S
C912 C908 1.350 . S
C912 C909 1.463 . S
C912 N916 1.427 . S
C913 H903 0.929 . S
C913 C911 1.433 . S
C913 N916 1.384 . S
C914 H905 0.929 . S
C914 C906 1.378 . S
C914 C909 1.350 . S
C915 H902 0.929 . S
C915 C907 1.433 . S
C915 N917 1.384 . S
N916 C912 1.427 . S
N916 C913 1.384 . S
N917 C909 1.427 . S
N917 C915 1.384 . S
H918 C924 0.930 . S
H919 C928 0.930 . S
H920 C933 0.929 . S
H921 C931 0.929 . S
H922 C926 0.929 . S
H923 C932 0.929 . S
C924 H918 0.930 . S
C924 C925 1.367 . S
C924 C932 1.378 . S
C925 C924 1.367 . S
C925 C933 1.433 . S
C926 H922 0.929 . S
C926 C928 1.378 . S
C926 C930 1.350 . S
C927 C930 1.463 . S
C927 C932 1.350 . S
C927 N935 1.427 . S
C928 H919 0.930 . S
C928 C926 1.378 . S
C928 C929 1.367 . S
C929 C928 1.367 . S
C929 C931 1.433 . S
C930 C926 1.350 . S
C930 C927 1.463 . S
C930 N934 1.427 . S
C931 H921 0.929 . S
C931 C929 1.433 . S
C931 N934 1.384 . S
C932 H923 0.929 . S
C932 C924 1.378 . S
C932 C927 1.350 . S
C933 H920 0.929 . S
C933 C925 1.433 . S
C933 N935 1.384 . S
N934 C930 1.427 . S
N934 C931 1.384 . S
N935 C927 1.427 . S
N935 C933 1.384 . S
H936 C942 0.930 . S
H937 C946 0.930 . S
H938 C951 0.929 . S
H939 C949 0.929 . S
H940 C944 0.929 . S
H941 C950 0.929 . S
C942 H936 0.930 . S
C942 C943 1.367 . S
C942 C950 1.378 . S
C943 C942 1.367 . S
C943 C951 1.433 . S
C944 H940 0.929 . S
C944 C946 1.378 . S
C944 C948 1.350 . S
C945 C948 1.463 . S
C945 C950 1.350 . S
C945 N953 1.427 . S
C946 H937 0.930 . S
C946 C944 1.378 . S
C946 C947 1.367 . S
C947 C946 1.367 . S
C947 C949 1.433 . S
C948 C944 1.350 . S
C948 C945 1.463 . S
C948 N952 1.427 . S
C949 H939 0.929 . S
C949 C947 1.433 . S
C949 N952 1.384 . S
C950 H941 0.929 . S
C950 C942 1.378 . S
C950 C945 1.350 . S
C951 H938 0.929 . S
C951 C943 1.433 . S
C951 N953 1.384 . S
N952 C948 1.427 . S
N952 C949 1.384 . S
N953 C945 1.427 . S
N953 C951 1.384 . S
H954 C960 0.930 . S
H955 C964 0.930 . S
H956 C969 0.929 . S
H957 C967 0.929 1_556 S
H958 C962 0.929 . S
H959 C968 0.929 . S
C960 H954 0.930 . S
C960 C961 1.367 . S
C960 C968 1.378 . S
C961 C960 1.367 . S
C961 C969 1.433 . S
C962 H958 0.929 . S
C962 C964 1.378 . S
C962 C966 1.350 . S
C963 C966 1.463 . S
C963 C968 1.350 . S
C963 N971 1.427 . S
C964 H955 0.930 . S
C964 C962 1.378 . S
C964 C965 1.367 . S
C965 C964 1.367 . S
C965 C967 1.433 . S
C966 C962 1.350 . S
C966 C963 1.463 . S
C966 N970 1.427 . S
C967 H957 0.929 1_554 S
C967 C965 1.433 . S
C967 N970 1.384 . S
C968 H959 0.929 . S
C968 C960 1.378 . S
C968 C963 1.350 . S
C969 H956 0.929 . S
C969 C961 1.433 . S
C969 N971 1.384 . S
N970 C966 1.427 . S
N970 C967 1.384 . S
N971 C963 1.427 . S
N971 C969 1.384 . S
H972 C978 0.930 . S
H973 C982 0.930 . S
H974 C987 0.929 . S
H975 C985 0.929 . S
H976 C980 0.929 . S
H977 C986 0.929 . S
C978 H972 0.930 . S
C978 C979 1.367 . S
C978 C986 1.378 . S
C979 C978 1.367 . S
C979 C987 1.433 . S
C980 H976 0.929 . S
C980 C982 1.378 . S
C980 C984 1.350 . S
C981 C984 1.463 . S
C981 C986 1.350 . S
C981 N989 1.427 . S
C982 H973 0.930 . S
C982 C980 1.378 . S
C982 C983 1.367 . S
C983 C982 1.367 . S
C983 C985 1.433 . S
C984 C980 1.350 . S
C984 C981 1.463 . S
C984 N988 1.427 . S
C985 H975 0.929 . S
C985 C983 1.433 . S
C985 N988 1.384 . S
C986 H977 0.929 . S
C986 C978 1.378 . S
C986 C981 1.350 . S
C987 H974 0.929 . S
C987 C979 1.433 . S
C987 N989 1.384 . S
N988 C984 1.427 . S
N988 C985 1.384 . S
N989 C981 1.427 . S
N989 C987 1.384 . S
H990 C996 0.930 1_556 S
H991 C1000 0.930 . S
H992 C1005 0.929 . S
H993 C1003 0.929 . S
H994 C998 0.929 . S
H995 C1004 0.929 . S
C996 H990 0.930 1_554 S
C996 C997 1.367 . S
C996 C1004 1.378 . S
C997 C996 1.367 . S
C997 C1005 1.433 . S
C998 H994 0.929 . S
C998 C1000 1.378 . S
C998 C1002 1.350 . S
C999 C1002 1.463 . S
C999 C1004 1.350 . S
C999 N1007 1.427 . S
C1000 H991 0.930 . S
C1000 C998 1.378 . S
C1000 C1001 1.367 . S
C1001 C1000 1.367 . S
C1001 C1003 1.433 . S
C1002 C998 1.350 . S
C1002 C999 1.463 . S
C1002 N1006 1.427 . S
C1003 H993 0.929 . S
C1003 C1001 1.433 . S
C1003 N1006 1.384 . S
C1004 H995 0.929 . S
C1004 C996 1.378 . S
C1004 C999 1.350 . S
C1005 H992 0.929 . S
C1005 C997 1.433 . S
C1005 N1007 1.384 . S
N1006 C1002 1.427 . S
N1006 C1003 1.384 . S
N1007 C999 1.427 . S
N1007 C1005 1.384 . S
H1008 C1014 0.930 . S
H1009 C1018 0.930 . S
H1010 C1023 0.929 . S
H1011 C1021 0.929 . S
H1012 C1016 0.929 . S
H1013 C1022 0.929 . S
C1014 H1008 0.930 . S
C1014 C1015 1.367 . S
C1014 C1022 1.378 . S
C1015 C1014 1.367 . S
C1015 C1023 1.433 . S
C1016 H1012 0.929 . S
C1016 C1018 1.378 . S
C1016 C1020 1.350 . S
C1017 C1020 1.463 . S
C1017 C1022 1.350 . S
C1017 N1025 1.427 . S
C1018 H1009 0.930 . S
C1018 C1016 1.378 . S
C1018 C1019 1.367 . S
C1019 C1018 1.367 . S
C1019 C1021 1.433 . S
C1020 C1016 1.350 . S
C1020 C1017 1.463 . S
C1020 N1024 1.427 . S
C1021 H1011 0.929 . S
C1021 C1019 1.433 . S
C1021 N1024 1.384 . S
C1022 H1013 0.929 . S
C1022 C1014 1.378 . S
C1022 C1017 1.350 . S
C1023 H1010 0.929 . S
C1023 C1015 1.433 . S
C1023 N1025 1.384 . S
N1024 C1020 1.427 . S
N1024 C1021 1.384 . S
N1025 C1017 1.427 . S
N1025 C1023 1.384 . S
H1026 C1032 0.930 . S
H1027 C1036 0.930 . S
H1028 C1041 0.929 . S
H1029 C1039 0.929 . S
H1030 C1034 0.929 . S
H1031 C1040 0.929 . S
C1032 H1026 0.930 . S
C1032 C1033 1.367 . S
C1032 C1040 1.378 . S
C1033 C1032 1.367 . S
C1033 C1041 1.433 . S
C1034 H1030 0.929 . S
C1034 C1036 1.378 . S
C1034 C1038 1.350 . S
C1035 C1038 1.463 . S
C1035 C1040 1.350 . S
C1035 N1043 1.427 . S
C1036 H1027 0.930 . S
C1036 C1034 1.378 . S
C1036 C1037 1.367 . S
C1037 C1036 1.367 . S
C1037 C1039 1.433 . S
C1038 C1034 1.350 . S
C1038 C1035 1.463 . S
C1038 N1042 1.427 . S
C1039 H1029 0.929 . S
C1039 C1037 1.433 . S
C1039 N1042 1.384 . S
C1040 H1031 0.929 . S
C1040 C1032 1.378 . S
C1040 C1035 1.350 . S
C1041 H1028 0.929 . S
C1041 C1033 1.433 . S
C1041 N1043 1.384 . S
N1042 C1038 1.427 . S
N1042 C1039 1.384 . S
N1043 C1035 1.427 . S
N1043 C1041 1.384 . S
H1044 C1050 0.930 . S
H1045 C1054 0.930 . S
H1046 C1059 0.929 . S
H1047 C1057 0.929 . S
H1048 C1052 0.929 . S
H1049 C1058 0.929 . S
C1050 H1044 0.930 . S
C1050 C1051 1.367 . S
C1050 C1058 1.378 . S
C1051 C1050 1.367 . S
C1051 C1059 1.433 . S
C1052 H1048 0.929 . S
C1052 C1054 1.378 . S
C1052 C1056 1.350 . S
C1053 C1056 1.463 . S
C1053 C1058 1.350 . S
C1053 N1061 1.427 . S
C1054 H1045 0.930 . S
C1054 C1052 1.378 . S
C1054 C1055 1.367 . S
C1055 C1054 1.367 . S
C1055 C1057 1.433 . S
C1056 C1052 1.350 . S
C1056 C1053 1.463 . S
C1056 N1060 1.427 . S
C1057 H1047 0.929 . S
C1057 C1055 1.433 . S
C1057 N1060 1.384 . S
C1058 H1049 0.929 . S
C1058 C1050 1.378 . S
C1058 C1053 1.350 . S
C1059 H1046 0.929 . S
C1059 C1051 1.433 . S
C1059 N1061 1.384 . S
N1060 C1056 1.427 . S
N1060 C1057 1.384 . S
N1061 C1053 1.427 . S
N1061 C1059 1.384 . S
H1062 C1068 0.930 . S
H1063 C1072 0.930 . S
H1064 C1077 0.929 1_554 S
H1065 C1075 0.929 . S
H1066 C1070 0.929 . S
H1067 C1076 0.929 . S
C1068 H1062 0.930 . S
C1068 C1069 1.367 . S
C1068 C1076 1.378 . S
C1069 C1068 1.367 . S
C1069 C1077 1.433 . S
C1070 H1066 0.929 . S
C1070 C1072 1.378 . S
C1070 C1074 1.350 . S
C1071 C1074 1.463 . S
C1071 C1076 1.350 . S
C1071 N1079 1.427 . S
C1072 H1063 0.930 . S
C1072 C1070 1.378 . S
C1072 C1073 1.367 . S
C1073 C1072 1.367 . S
C1073 C1075 1.433 . S
C1074 C1070 1.350 . S
C1074 C1071 1.463 . S
C1074 N1078 1.427 . S
C1075 H1065 0.929 . S
C1075 C1073 1.433 . S
C1075 N1078 1.384 . S
C1076 H1067 0.929 . S
C1076 C1068 1.378 . S
C1076 C1071 1.350 . S
C1077 H1064 0.929 1_556 S
C1077 C1069 1.433 . S
C1077 N1079 1.384 . S
N1078 C1074 1.427 . S
N1078 C1075 1.384 . S
N1079 C1071 1.427 . S
N1079 C1077 1.384 . S
H1080 C1086 0.930 . S
H1081 C1090 0.930 . S
H1082 C1095 0.929 . S
H1083 C1093 0.929 . S
H1084 C1088 0.929 . S
H1085 C1094 0.929 . S
C1086 H1080 0.930 . S
C1086 C1087 1.367 . S
C1086 C1094 1.378 . S
C1087 C1086 1.367 . S
C1087 C1095 1.433 . S
C1088 H1084 0.929 . S
C1088 C1090 1.378 . S
C1088 C1092 1.350 . S
C1089 C1092 1.463 . S
C1089 C1094 1.350 . S
C1089 N1097 1.427 . S
C1090 H1081 0.930 . S
C1090 C1088 1.378 . S
C1090 C1091 1.367 . S
C1091 C1090 1.367 . S
C1091 C1093 1.433 . S
C1092 C1088 1.350 . S
C1092 C1089 1.463 . S
C1092 N1096 1.427 . S
C1093 H1083 0.929 . S
C1093 C1091 1.433 . S
C1093 N1096 1.384 . S
C1094 H1085 0.929 . S
C1094 C1086 1.378 . S
C1094 C1089 1.350 . S
C1095 H1082 0.929 . S
C1095 C1087 1.433 . S
C1095 N1097 1.384 . S
N1096 C1092 1.427 . S
N1096 C1093 1.384 . S
N1097 C1089 1.427 . S
N1097 C1095 1.384 . S
H1098 C1104 0.930 . S
H1099 C1108 0.930 . S
H1100 C1113 0.929 . S
H1101 C1111 0.929 . S
H1102 C1106 0.929 . S
H1103 C1112 0.929 . S
C1104 H1098 0.930 . S
C1104 C1105 1.367 . S
C1104 C1112 1.378 . S
C1105 C1104 1.367 . S
C1105 C1113 1.433 . S
C1106 H1102 0.929 . S
C1106 C1108 1.378 . S
C1106 C1110 1.350 . S
C1107 C1110 1.463 . S
C1107 C1112 1.350 . S
C1107 N1115 1.427 . S
C1108 H1099 0.930 . S
C1108 C1106 1.378 . S
C1108 C1109 1.367 . S
C1109 C1108 1.367 . S
C1109 C1111 1.433 . S
C1110 C1106 1.350 . S
C1110 C1107 1.463 . S
C1110 N1114 1.427 . S
C1111 H1101 0.929 . S
C1111 C1109 1.433 . S
C1111 N1114 1.384 . S
C1112 H1103 0.929 . S
C1112 C1104 1.378 . S
C1112 C1107 1.350 . S
C1113 H1100 0.929 . S
C1113 C1105 1.433 . S
C1113 N1115 1.384 . S
N1114 C1110 1.427 . S
N1114 C1111 1.384 . S
N1115 C1107 1.427 . S
N1115 C1113 1.384 . S
H1116 C1122 0.930 . S
H1117 C1126 0.930 . S
H1118 C1131 0.929 . S
H1119 C1129 0.929 . S
H1120 C1124 0.929 . S
H1121 C1130 0.929 . S
C1122 H1116 0.930 . S
C1122 C1123 1.367 . S
C1122 C1130 1.378 . S
C1123 C1122 1.367 . S
C1123 C1131 1.433 . S
C1124 H1120 0.929 . S
C1124 C1126 1.378 . S
C1124 C1128 1.350 . S
C1125 C1128 1.463 . S
C1125 C1130 1.350 . S
C1125 N1133 1.427 . S
C1126 H1117 0.930 . S
C1126 C1124 1.378 . S
C1126 C1127 1.367 . S
C1127 C1126 1.367 . S
C1127 C1129 1.433 . S
C1128 C1124 1.350 . S
C1128 C1125 1.463 . S
C1128 N1132 1.427 . S
C1129 H1119 0.929 . S
C1129 C1127 1.433 . S
C1129 N1132 1.384 . S
C1130 H1121 0.929 . S
C1130 C1122 1.378 . S
C1130 C1125 1.350 . S
C1131 H1118 0.929 . S
C1131 C1123 1.433 . S
C1131 N1133 1.384 . S
N1132 C1128 1.427 . S
N1132 C1129 1.384 . S
N1133 C1125 1.427 . S
N1133 C1131 1.384 . S
H1134 C1140 0.930 . S
H1135 C1144 0.930 . S
H1136 C1149 0.929 . S
H1137 C1147 0.929 . S
H1138 C1142 0.929 . S
H1139 C1148 0.929 . S
C1140 H1134 0.930 . S
C1140 C1141 1.367 . S
C1140 C1148 1.378 . S
C1141 C1140 1.367 . S
C1141 C1149 1.433 . S
C1142 H1138 0.929 . S
C1142 C1144 1.378 . S
C1142 C1146 1.350 . S
C1143 C1146 1.463 . S
C1143 C1148 1.350 . S
C1143 N1151 1.427 . S
C1144 H1135 0.930 . S
C1144 C1142 1.378 . S
C1144 C1145 1.367 . S
C1145 C1144 1.367 . S
C1145 C1147 1.433 . S
C1146 C1142 1.350 . S
C1146 C1143 1.463 . S
C1146 N1150 1.427 . S
C1147 H1137 0.929 . S
C1147 C1145 1.433 . S
C1147 N1150 1.384 . S
C1148 H1139 0.929 . S
C1148 C1140 1.378 . S
C1148 C1143 1.350 . S
C1149 H1136 0.929 . S
C1149 C1141 1.433 . S
C1149 N1151 1.384 . S
N1150 C1146 1.427 . S
N1150 C1147 1.384 . S
N1151 C1143 1.427 . S
N1151 C1149 1.384 . S
H1152 C1158 0.930 1_545 S
H1153 C1162 0.930 . S
H1154 C1167 0.929 . S
H1155 C1165 0.929 . S
H1156 C1160 0.929 . S
H1157 C1166 0.929 . S
C1158 H1152 0.930 1_565 S
C1158 C1159 1.367 . S
C1158 C1166 1.378 . S
C1159 C1158 1.367 . S
C1159 C1167 1.433 . S
C1160 H1156 0.929 . S
C1160 C1162 1.378 . S
C1160 C1164 1.350 . S
C1161 C1164 1.463 . S
C1161 C1166 1.350 . S
C1161 N1169 1.427 . S
C1162 H1153 0.930 . S
C1162 C1160 1.378 . S
C1162 C1163 1.367 . S
C1163 C1162 1.367 . S
C1163 C1165 1.433 . S
C1164 C1160 1.350 . S
C1164 C1161 1.463 . S
C1164 N1168 1.427 . S
C1165 H1155 0.929 . S
C1165 C1163 1.433 . S
C1165 N1168 1.384 . S
C1166 H1157 0.929 . S
C1166 C1158 1.378 . S
C1166 C1161 1.350 . S
C1167 H1154 0.929 . S
C1167 C1159 1.433 . S
C1167 N1169 1.384 . S
N1168 C1164 1.427 . S
N1168 C1165 1.384 . S
N1169 C1161 1.427 . S
N1169 C1167 1.384 . S
H1170 C1176 0.930 . S
H1171 C1180 0.930 . S
H1172 C1185 0.929 . S
H1173 C1183 0.929 . S
H1174 C1178 0.929 . S
H1175 C1184 0.929 . S
C1176 H1170 0.930 . S
C1176 C1177 1.367 . S
C1176 C1184 1.378 . S
C1177 C1176 1.367 . S
C1177 C1185 1.433 . S
C1178 H1174 0.929 . S
C1178 C1180 1.378 . S
C1178 C1182 1.350 . S
C1179 C1182 1.463 . S
C1179 C1184 1.350 . S
C1179 N1187 1.427 . S
C1180 H1171 0.930 . S
C1180 C1178 1.378 . S
C1180 C1181 1.367 . S
C1181 C1180 1.367 . S
C1181 C1183 1.433 . S
C1182 C1178 1.350 . S
C1182 C1179 1.463 . S
C1182 N1186 1.427 . S
C1183 H1173 0.929 . S
C1183 C1181 1.433 . S
C1183 N1186 1.384 . S
C1184 H1175 0.929 . S
C1184 C1176 1.378 . S
C1184 C1179 1.350 . S
C1185 H1172 0.929 . S
C1185 C1177 1.433 . S
C1185 N1187 1.384 . S
N1186 C1182 1.427 . S
N1186 C1183 1.384 . S
N1187 C1179 1.427 . S
N1187 C1185 1.384 . S
H1188 C1194 0.930 . S
H1189 C1198 0.930 . S
H1190 C1203 0.929 . S
H1191 C1201 0.929 . S
H1192 C1196 0.929 . S
H1193 C1202 0.929 . S
C1194 H1188 0.930 . S
C1194 C1195 1.367 . S
C1194 C1202 1.378 . S
C1195 C1194 1.367 . S
C1195 C1203 1.433 . S
C1196 H1192 0.929 . S
C1196 C1198 1.378 . S
C1196 C1200 1.350 . S
C1197 C1200 1.463 . S
C1197 C1202 1.350 . S
C1197 N1205 1.427 . S
C1198 H1189 0.930 . S
C1198 C1196 1.378 . S
C1198 C1199 1.367 . S
C1199 C1198 1.367 . S
C1199 C1201 1.433 . S
C1200 C1196 1.350 . S
C1200 C1197 1.463 . S
C1200 N1204 1.427 . S
C1201 H1191 0.929 . S
C1201 C1199 1.433 . S
C1201 N1204 1.384 . S
C1202 H1193 0.929 . S
C1202 C1194 1.378 . S
C1202 C1197 1.350 . S
C1203 H1190 0.929 . S
C1203 C1195 1.433 . S
C1203 N1205 1.384 . S
N1204 C1200 1.427 . S
N1204 C1201 1.384 . S
N1205 C1197 1.427 . S
N1205 C1203 1.384 . S
H1206 C1212 0.930 . S
H1207 C1216 0.930 . S
H1208 C1221 0.929 . S
H1209 C1219 0.929 . S
H1210 C1214 0.929 . S
H1211 C1220 0.929 . S
C1212 H1206 0.930 . S
C1212 C1213 1.367 . S
C1212 C1220 1.378 . S
C1213 C1212 1.367 . S
C1213 C1221 1.433 . S
C1214 H1210 0.929 . S
C1214 C1216 1.378 . S
C1214 C1218 1.350 . S
C1215 C1218 1.463 . S
C1215 C1220 1.350 . S
C1215 N1223 1.427 . S
C1216 H1207 0.930 . S
C1216 C1214 1.378 . S
C1216 C1217 1.367 . S
C1217 C1216 1.367 . S
C1217 C1219 1.433 . S
C1218 C1214 1.350 . S
C1218 C1215 1.463 . S
C1218 N1222 1.427 . S
C1219 H1209 0.929 . S
C1219 C1217 1.433 . S
C1219 N1222 1.384 . S
C1220 H1211 0.929 . S
C1220 C1212 1.378 . S
C1220 C1215 1.350 . S
C1221 H1208 0.929 . S
C1221 C1213 1.433 . S
C1221 N1223 1.384 . S
N1222 C1218 1.427 . S
N1222 C1219 1.384 . S
N1223 C1215 1.427 . S
N1223 C1221 1.384 . S
H1224 C1230 0.927 1_455 S
H1225 C1234 0.927 1_655 S
H1226 C1239 0.929 . S
H1227 C1237 0.929 . S
H1228 C1232 0.929 . S
H1229 C1238 0.929 . S
C1230 H1224 0.927 1_655 S
C1230 C1231 1.373 . S
C1230 C1238 1.375 1_655 S
C1231 C1230 1.373 . S
C1231 C1239 1.433 . S
C1232 H1228 0.929 . S
C1232 C1234 1.375 1_655 S
C1232 C1236 1.350 1_655 S
C1233 C1236 1.463 1_656 S
C1233 C1238 1.350 1_655 S
C1233 N1241 1.427 . S
C1234 H1225 0.927 1_455 S
C1234 C1232 1.375 1_455 S
C1234 C1235 1.373 . S
C1235 C1234 1.373 . S
C1235 C1237 1.433 . S
C1236 C1232 1.350 1_455 S
C1236 C1233 1.463 1_454 S
C1236 N1240 1.427 . S
C1237 H1227 0.929 . S
C1237 C1235 1.433 . S
C1237 N1240 1.384 . S
C1238 H1229 0.929 . S
C1238 C1230 1.375 1_455 S
C1238 C1233 1.350 1_455 S
C1239 H1226 0.929 . S
C1239 C1231 1.433 . S
C1239 N1241 1.384 . S
N1240 C1236 1.427 . S
N1240 C1237 1.384 . S
N1241 C1233 1.427 . S
N1241 C1239 1.384 . S
H1242 C1248 0.930 . S
H1243 C1252 0.930 . S
H1244 C1257 0.929 . S
H1245 C1255 0.929 . S
H1246 C1250 0.929 . S
H1247 C1256 0.929 . S
C1248 H1242 0.930 . S
C1248 C1249 1.367 . S
C1248 C1256 1.378 . S
C1249 C1248 1.367 . S
C1249 C1257 1.433 . S
C1250 H1246 0.929 . S
C1250 C1252 1.378 . S
C1250 C1254 1.350 . S
C1251 C1254 1.463 . S
C1251 C1256 1.350 . S
C1251 N1259 1.427 . S
C1252 H1243 0.930 . S
C1252 C1250 1.378 . S
C1252 C1253 1.367 . S
C1253 C1252 1.367 . S
C1253 C1255 1.433 . S
C1254 C1250 1.350 . S
C1254 C1251 1.463 . S
C1254 N1258 1.427 . S
C1255 H1245 0.929 . S
C1255 C1253 1.433 . S
C1255 N1258 1.384 . S
C1256 H1247 0.929 . S
C1256 C1248 1.378 . S
C1256 C1251 1.350 . S
C1257 H1244 0.929 . S
C1257 C1249 1.433 . S
C1257 N1259 1.384 . S
N1258 C1254 1.427 . S
N1258 C1255 1.384 . S
N1259 C1251 1.427 . S
N1259 C1257 1.384 . S
H1260 C1266 0.930 . S
H1261 C1270 0.930 . S
H1262 C1275 0.929 . S
H1263 C1273 0.929 . S
H1264 C1268 0.929 . S
H1265 C1274 0.929 . S
C1266 H1260 0.930 . S
C1266 C1267 1.367 . S
C1266 C1274 1.378 . S
C1267 C1266 1.367 . S
C1267 C1275 1.433 . S
C1268 H1264 0.929 . S
C1268 C1270 1.378 . S
C1268 C1272 1.350 . S
C1269 C1272 1.463 1_456 S
C1269 C1274 1.350 . S
C1269 N1277 1.427 . S
C1270 H1261 0.930 . S
C1270 C1268 1.378 . S
C1270 C1271 1.367 . S
C1271 C1270 1.367 . S
C1271 C1273 1.433 . S
C1272 C1268 1.350 . S
C1272 C1269 1.463 1_654 S
C1272 N1276 1.427 . S
C1273 H1263 0.929 . S
C1273 C1271 1.433 . S
C1273 N1276 1.384 . S
C1274 H1265 0.929 . S
C1274 C1266 1.378 . S
C1274 C1269 1.350 . S
C1275 H1262 0.929 . S
C1275 C1267 1.433 . S
C1275 N1277 1.384 . S
N1276 C1272 1.427 . S
N1276 C1273 1.384 . S
N1277 C1269 1.427 . S
N1277 C1275 1.384 . S
H1278 C1284 0.930 . S
H1279 C1288 0.930 . S
H1280 C1293 0.929 . S
H1281 C1291 0.929 . S
H1282 C1286 0.929 . S
H1283 C1292 0.929 . S
C1284 H1278 0.930 . S
C1284 C1285 1.367 . S
C1284 C1292 1.378 . S
C1285 C1284 1.367 . S
C1285 C1293 1.433 . S
C1286 H1282 0.929 . S
C1286 C1288 1.378 . S
C1286 C1290 1.350 . S
C1287 C1290 1.463 . S
C1287 C1292 1.350 . S
C1287 N1295 1.427 . S
C1288 H1279 0.930 . S
C1288 C1286 1.378 . S
C1288 C1289 1.367 . S
C1289 C1288 1.367 . S
C1289 C1291 1.433 . S
C1290 C1286 1.350 . S
C1290 C1287 1.463 . S
C1290 N1294 1.427 . S
C1291 H1281 0.929 . S
C1291 C1289 1.433 . S
C1291 N1294 1.384 . S
C1292 H1283 0.929 . S
C1292 C1284 1.378 . S
C1292 C1287 1.350 . S
C1293 H1280 0.929 . S
C1293 C1285 1.433 . S
C1293 N1295 1.384 . S
N1294 C1290 1.427 . S
N1294 C1291 1.384 . S
N1295 C1287 1.427 . S
N1295 C1293 1.384 . S
H1296 C1302 0.930 . S
H1297 C1306 0.930 . S
H1298 C1311 0.929 . S
H1299 C1309 0.929 . S
H1300 C1304 0.929 . S
H1301 C1310 0.929 . S
C1302 H1296 0.930 . S
C1302 C1303 1.367 . S
C1302 C1310 1.378 . S
C1303 C1302 1.367 . S
C1303 C1311 1.433 . S
C1304 H1300 0.929 . S
C1304 C1306 1.378 . S
C1304 C1308 1.350 . S
C1305 C1308 1.463 1_665 S
C1305 C1310 1.350 . S
C1305 N1313 1.427 . S
C1306 H1297 0.930 . S
C1306 C1304 1.378 . S
C1306 C1307 1.367 . S
C1307 C1306 1.367 . S
C1307 C1309 1.433 . S
C1308 C1304 1.350 . S
C1308 C1305 1.463 1_445 S
C1308 N1312 1.427 . S
C1309 H1299 0.929 . S
C1309 C1307 1.433 . S
C1309 N1312 1.384 . S
C1310 H1301 0.929 . S
C1310 C1302 1.378 . S
C1310 C1305 1.350 . S
C1311 H1298 0.929 . S
C1311 C1303 1.433 . S
C1311 N1313 1.384 . S
N1312 C1308 1.427 . S
N1312 C1309 1.384 . S
N1313 C1305 1.427 . S
N1313 C1311 1.384 . S
H1314 C1320 0.930 . S
H1315 C1324 0.930 . S
H1316 C1329 0.929 . S
H1317 C1327 0.929 . S
H1318 C1322 0.929 . S
H1319 C1328 0.929 . S
C1320 H1314 0.930 . S
C1320 C1321 1.367 . S
C1320 C1328 1.378 . S
C1321 C1320 1.367 . S
C1321 C1329 1.433 . S
C1322 H1318 0.929 . S
C1322 C1324 1.378 . S
C1322 C1326 1.350 . S
C1323 C1326 1.463 . S
C1323 C1328 1.350 . S
C1323 N1331 1.427 . S
C1324 H1315 0.930 . S
C1324 C1322 1.378 . S
C1324 C1325 1.367 . S
C1325 C1324 1.367 . S
C1325 C1327 1.433 . S
C1326 C1322 1.350 . S
C1326 C1323 1.463 . S
C1326 N1330 1.427 . S
C1327 H1317 0.929 . S
C1327 C1325 1.433 . S
C1327 N1330 1.384 . S
C1328 H1319 0.929 . S
C1328 C1320 1.378 . S
C1328 C1323 1.350 . S
C1329 H1316 0.929 . S
C1329 C1321 1.433 . S
C1329 N1331 1.384 . S
N1330 C1326 1.427 . S
N1330 C1327 1.384 . S
N1331 C1323 1.427 . S
N1331 C1329 1.384 . S
H1332 C1338 0.930 . S
H1333 C1342 0.930 . S
H1334 C1347 0.929 . S
H1335 C1345 0.929 . S
H1336 C1340 0.929 . S
H1337 C1346 0.929 . S
C1338 H1332 0.930 . S
C1338 C1339 1.367 . S
C1338 C1346 1.378 1_565 S
C1339 C1338 1.367 . S
C1339 C1347 1.433 . S
C1340 H1336 0.929 . S
C1340 C1342 1.378 1_565 S
C1340 C1344 1.350 1_565 S
C1341 C1344 1.463 1_465 S
C1341 C1346 1.350 1_565 S
C1341 N1349 1.427 . S
C1342 H1333 0.930 . S
C1342 C1340 1.378 1_545 S
C1342 C1343 1.367 . S
C1343 C1342 1.367 . S
C1343 C1345 1.433 . S
C1344 C1340 1.350 1_545 S
C1344 C1341 1.463 1_645 S
C1344 N1348 1.427 . S
C1345 H1335 0.929 . S
C1345 C1343 1.433 . S
C1345 N1348 1.384 . S
C1346 H1337 0.929 . S
C1346 C1338 1.378 1_545 S
C1346 C1341 1.350 1_545 S
C1347 H1334 0.929 . S
C1347 C1339 1.433 . S
C1347 N1349 1.384 . S
N1348 C1344 1.427 . S
N1348 C1345 1.384 . S
N1349 C1341 1.427 . S
N1349 C1347 1.384 . S
H1350 C1356 0.930 . S
H1351 C1360 0.930 . S
H1352 C1365 0.929 . S
H1353 C1363 0.929 . S
H1354 C1358 0.929 . S
H1355 C1364 0.929 . S
C1356 H1350 0.930 . S
C1356 C1357 1.367 . S
C1356 C1364 1.378 . S
C1357 C1356 1.367 . S
C1357 C1365 1.433 . S
C1358 H1354 0.929 . S
C1358 C1360 1.378 . S
C1358 C1362 1.350 . S
C1359 C1362 1.463 . S
C1359 C1364 1.350 . S
C1359 N1367 1.427 . S
C1360 H1351 0.930 . S
C1360 C1358 1.378 . S
C1360 C1361 1.367 . S
C1361 C1360 1.367 . S
C1361 C1363 1.433 . S
C1362 C1358 1.350 . S
C1362 C1359 1.463 . S
C1362 N1366 1.427 . S
C1363 H1353 0.929 . S
C1363 C1361 1.433 . S
C1363 N1366 1.384 . S
C1364 H1355 0.929 . S
C1364 C1356 1.378 . S
C1364 C1359 1.350 . S
C1365 H1352 0.929 . S
C1365 C1357 1.433 . S
C1365 N1367 1.384 . S
N1366 C1362 1.427 . S
N1366 C1363 1.384 . S
N1367 C1359 1.427 . S
N1367 C1365 1.384 . S
H1368 C1374 0.930 1_556 S
H1369 C1378 0.930 1_554 S
H1370 C1383 0.929 . S
H1371 C1381 0.929 . S
H1372 C1376 0.929 . S
H1373 C1382 0.929 . S
C1374 H1368 0.930 1_554 S
C1374 C1375 1.367 . S
C1374 C1382 1.378 1_554 S
C1375 C1374 1.367 . S
C1375 C1383 1.433 . S
C1376 H1372 0.929 . S
C1376 C1378 1.378 1_554 S
C1376 C1380 1.350 1_554 S
C1377 C1380 1.463 1_544 S
C1377 C1382 1.350 1_554 S
C1377 N1385 1.427 . S
C1378 H1369 0.930 1_556 S
C1378 C1376 1.378 1_556 S
C1378 C1379 1.367 . S
C1379 C1378 1.367 . S
C1379 C1381 1.433 . S
C1380 C1376 1.350 1_556 S
C1380 C1377 1.463 1_566 S
C1380 N1384 1.427 . S
C1381 H1371 0.929 . S
C1381 C1379 1.433 . S
C1381 N1384 1.384 . S
C1382 H1373 0.929 . S
C1382 C1374 1.378 1_556 S
C1382 C1377 1.350 1_556 S
C1383 H1370 0.929 . S
C1383 C1375 1.433 . S
C1383 N1385 1.384 . S
N1384 C1380 1.427 . S
N1384 C1381 1.384 . S
N1385 C1377 1.427 . S
N1385 C1383 1.384 . S
H1386 C1392 0.930 . S
H1387 C1396 0.930 . S
H1388 C1401 0.929 . S
H1389 C1399 0.929 . S
H1390 C1394 0.929 . S
H1391 C1400 0.929 . S
C1392 H1386 0.930 . S
C1392 C1393 1.367 . S
C1392 C1400 1.378 . S
C1393 C1392 1.367 . S
C1393 C1401 1.433 . S
C1394 H1390 0.929 . S
C1394 C1396 1.378 . S
C1394 C1398 1.350 . S
C1395 C1398 1.463 . S
C1395 C1400 1.350 . S
C1395 N1403 1.427 . S
C1396 H1387 0.930 . S
C1396 C1394 1.378 . S
C1396 C1397 1.367 . S
C1397 C1396 1.367 . S
C1397 C1399 1.433 . S
C1398 C1394 1.350 . S
C1398 C1395 1.463 . S
C1398 N1402 1.427 . S
C1399 H1389 0.929 . S
C1399 C1397 1.433 . S
C1399 N1402 1.384 . S
C1400 H1391 0.929 . S
C1400 C1392 1.378 . S
C1400 C1395 1.350 . S
C1401 H1388 0.929 . S
C1401 C1393 1.433 . S
C1401 N1403 1.384 . S
N1402 C1398 1.427 . S
N1402 C1399 1.384 . S
N1403 C1395 1.427 . S
N1403 C1401 1.384 . S
H1404 C1410 0.930 . S
H1405 C1414 0.930 . S
H1406 C1419 0.929 1_554 S
H1407 C1417 0.929 1_556 S
H1408 C1412 0.929 . S
H1409 C1418 0.929 . S
C1410 H1404 0.930 . S
C1410 C1411 1.367 . S
C1410 C1418 1.378 . S
C1411 C1410 1.367 . S
C1411 C1419 1.433 . S
C1412 H1408 0.929 . S
C1412 C1414 1.378 . S
C1412 C1416 1.350 . S
C1413 C1416 1.463 1_546 S
C1413 C1418 1.350 . S
C1413 N1421 1.427 1_556 S
C1414 H1405 0.930 . S
C1414 C1412 1.378 . S
C1414 C1415 1.367 . S
C1415 C1414 1.367 . S
C1415 C1417 1.433 . S
C1416 C1412 1.350 . S
C1416 C1413 1.463 1_564 S
C1416 N1420 1.427 1_554 S
C1417 H1407 0.929 1_554 S
C1417 C1415 1.433 . S
C1417 N1420 1.384 1_554 S
C1418 H1409 0.929 . S
C1418 C1410 1.378 . S
C1418 C1413 1.350 . S
C1419 H1406 0.929 1_556 S
C1419 C1411 1.433 . S
C1419 N1421 1.384 1_556 S
N1420 C1416 1.427 1_556 S
N1420 C1417 1.384 1_556 S
N1421 C1413 1.427 1_554 S
N1421 C1419 1.384 1_554 S
H1422 C1428 0.930 . S
H1423 C1432 0.930 . S
H1424 C1437 0.929 . S
H1425 C1435 0.929 . S
H1426 C1430 0.929 . S
H1427 C1436 0.929 . S
C1428 H1422 0.930 . S
C1428 C1429 1.367 . S
C1428 C1436 1.378 . S
C1429 C1428 1.367 . S
C1429 C1437 1.433 . S
C1430 H1426 0.929 . S
C1430 C1432 1.378 . S
C1430 C1434 1.350 . S
C1431 C1434 1.463 . S
C1431 C1436 1.350 . S
C1431 N1439 1.427 . S
C1432 H1423 0.930 . S
C1432 C1430 1.378 . S
C1432 C1433 1.367 . S
C1433 C1432 1.367 . S
C1433 C1435 1.433 . S
C1434 C1430 1.350 . S
C1434 C1431 1.463 . S
C1434 N1438 1.427 . S
C1435 H1425 0.929 . S
C1435 C1433 1.433 . S
C1435 N1438 1.384 . S
C1436 H1427 0.929 . S
C1436 C1428 1.378 . S
C1436 C1431 1.350 . S
C1437 H1424 0.929 . S
C1437 C1429 1.433 . S
C1437 N1439 1.384 . S
N1438 C1434 1.427 . S
N1438 C1435 1.384 . S
N1439 C1431 1.427 . S
N1439 C1437 1.384 . S
H1440 C1446 0.930 . S
H1441 C1450 0.930 . S
H1442 C1455 0.929 . S
H1443 C1453 0.929 . S
H1444 C1448 0.929 . S
H1445 C1454 0.929 . S
C1446 H1440 0.930 . S
C1446 C1447 1.367 . S
C1446 C1454 1.378 . S
C1447 C1446 1.367 . S
C1447 C1455 1.433 . S
C1448 H1444 0.929 . S
C1448 C1450 1.378 . S
C1448 C1452 1.350 . S
C1449 C1452 1.463 . S
C1449 C1454 1.350 . S
C1449 N1457 1.427 . S
C1450 H1441 0.930 . S
C1450 C1448 1.378 . S
C1450 C1451 1.367 . S
C1451 C1450 1.367 . S
C1451 C1453 1.433 . S
C1452 C1448 1.350 . S
C1452 C1449 1.463 . S
C1452 N1456 1.427 . S
C1453 H1443 0.929 . S
C1453 C1451 1.433 . S
C1453 N1456 1.384 . S
C1454 H1445 0.929 . S
C1454 C1446 1.378 . S
C1454 C1449 1.350 . S
C1455 H1442 0.929 . S
C1455 C1447 1.433 . S
C1455 N1457 1.384 . S
N1456 C1452 1.427 . S
N1456 C1453 1.384 . S
N1457 C1449 1.427 . S
N1457 C1455 1.384 . S
H1458 C1464 0.930 . S
H1459 C1468 0.930 . S
H1460 C1473 0.929 . S
H1461 C1471 0.929 . S
H1462 C1466 0.929 . S
H1463 C1472 0.929 . S
C1464 H1458 0.930 . S
C1464 C1465 1.367 . S
C1464 C1472 1.378 . S
C1465 C1464 1.367 . S
C1465 C1473 1.433 . S
C1466 H1462 0.929 . S
C1466 C1468 1.378 . S
C1466 C1470 1.350 . S
C1467 C1470 1.463 . S
C1467 C1472 1.350 . S
C1467 N1475 1.427 . S
C1468 H1459 0.930 . S
C1468 C1466 1.378 . S
C1468 C1469 1.367 . S
C1469 C1468 1.367 . S
C1469 C1471 1.433 . S
C1470 C1466 1.350 . S
C1470 C1467 1.463 . S
C1470 N1474 1.427 . S
C1471 H1461 0.929 . S
C1471 C1469 1.433 . S
C1471 N1474 1.384 . S
C1472 H1463 0.929 . S
C1472 C1464 1.378 . S
C1472 C1467 1.350 . S
C1473 H1460 0.929 . S
C1473 C1465 1.433 . S
C1473 N1475 1.384 . S
N1474 C1470 1.427 . S
N1474 C1471 1.384 . S
N1475 C1467 1.427 . S
N1475 C1473 1.384 . S
H1476 C1482 0.930 . S
H1477 C1486 0.930 . S
H1478 C1491 0.929 . S
H1479 C1489 0.929 . S
H1480 C1484 0.929 . S
H1481 C1490 0.929 . S
C1482 H1476 0.930 . S
C1482 C1483 1.367 . S
C1482 C1490 1.378 . S
C1483 C1482 1.367 . S
C1483 C1491 1.433 . S
C1484 H1480 0.929 . S
C1484 C1486 1.378 . S
C1484 C1488 1.350 . S
C1485 C1488 1.463 . S
C1485 C1490 1.350 . S
C1485 N1493 1.427 . S
C1486 H1477 0.930 . S
C1486 C1484 1.378 . S
C1486 C1487 1.367 . S
C1487 C1486 1.367 . S
C1487 C1489 1.433 . S
C1488 C1484 1.350 . S
C1488 C1485 1.463 . S
C1488 N1492 1.427 . S
C1489 H1479 0.929 . S
C1489 C1487 1.433 . S
C1489 N1492 1.384 . S
C1490 H1481 0.929 . S
C1490 C1482 1.378 . S
C1490 C1485 1.350 . S
C1491 H1478 0.929 . S
C1491 C1483 1.433 . S
C1491 N1493 1.384 . S
N1492 C1488 1.427 . S
N1492 C1489 1.384 . S
N1493 C1485 1.427 . S
N1493 C1491 1.384 . S
H1494 C1500 0.930 . S
H1495 C1504 0.930 . S
H1496 C1509 0.929 . S
H1497 C1507 0.929 . S
H1498 C1502 0.929 . S
H1499 C1508 0.929 . S
C1500 H1494 0.930 . S
C1500 C1501 1.367 . S
C1500 C1508 1.378 . S
C1501 C1500 1.367 . S
C1501 C1509 1.433 . S
C1502 H1498 0.929 . S
C1502 C1504 1.378 . S
C1502 C1506 1.350 . S
C1503 C1506 1.463 . S
C1503 C1508 1.350 . S
C1503 N1511 1.427 . S
C1504 H1495 0.930 . S
C1504 C1502 1.378 . S
C1504 C1505 1.367 . S
C1505 C1504 1.367 . S
C1505 C1507 1.433 . S
C1506 C1502 1.350 . S
C1506 C1503 1.463 . S
C1506 N1510 1.427 . S
C1507 H1497 0.929 . S
C1507 C1505 1.433 . S
C1507 N1510 1.384 . S
C1508 H1499 0.929 . S
C1508 C1500 1.378 . S
C1508 C1503 1.350 . S
C1509 H1496 0.929 . S
C1509 C1501 1.433 . S
C1509 N1511 1.384 . S
N1510 C1506 1.427 . S
N1510 C1507 1.384 . S
N1511 C1503 1.427 . S
N1511 C1509 1.384 . S
H1512 C1518 0.930 . S
H1513 C1522 0.930 . S
H1514 C1527 0.929 . S
H1515 C1525 0.929 . S
H1516 C1520 0.929 . S
H1517 C1526 0.929 . S
C1518 H1512 0.930 . S
C1518 C1519 1.367 . S
C1518 C1526 1.378 . S
C1519 C1518 1.367 . S
C1519 C1527 1.433 . S
C1520 H1516 0.929 . S
C1520 C1522 1.378 . S
C1520 C1524 1.350 . S
C1521 C1524 1.463 . S
C1521 C1526 1.350 . S
C1521 N1529 1.427 . S
C1522 H1513 0.930 . S
C1522 C1520 1.378 . S
C1522 C1523 1.367 . S
C1523 C1522 1.367 . S
C1523 C1525 1.433 . S
C1524 C1520 1.350 . S
C1524 C1521 1.463 . S
C1524 N1528 1.427 . S
C1525 H1515 0.929 . S
C1525 C1523 1.433 . S
C1525 N1528 1.384 . S
C1526 H1517 0.929 . S
C1526 C1518 1.378 . S
C1526 C1521 1.350 . S
C1527 H1514 0.929 . S
C1527 C1519 1.433 . S
C1527 N1529 1.384 . S
N1528 C1524 1.427 . S
N1528 C1525 1.384 . S
N1529 C1521 1.427 . S
N1529 C1527 1.384 . S
H1530 C1536 0.930 . S
H1531 C1540 0.930 . S
H1532 C1545 0.929 . S
H1533 C1543 0.929 . S
H1534 C1538 0.929 . S
H1535 C1544 0.929 . S
C1536 H1530 0.930 . S
C1536 C1537 1.367 . S
C1536 C1544 1.378 . S
C1537 C1536 1.367 . S
C1537 C1545 1.433 . S
C1538 H1534 0.929 . S
C1538 C1540 1.378 . S
C1538 C1542 1.350 . S
C1539 C1542 1.463 . S
C1539 C1544 1.350 . S
C1539 N1547 1.427 . S
C1540 H1531 0.930 . S
C1540 C1538 1.378 . S
C1540 C1541 1.367 . S
C1541 C1540 1.367 . S
C1541 C1543 1.433 . S
C1542 C1538 1.350 . S
C1542 C1539 1.463 . S
C1542 N1546 1.427 . S
C1543 H1533 0.929 . S
C1543 C1541 1.433 . S
C1543 N1546 1.384 . S
C1544 H1535 0.929 . S
C1544 C1536 1.378 . S
C1544 C1539 1.350 . S
C1545 H1532 0.929 . S
C1545 C1537 1.433 . S
C1545 N1547 1.384 . S
N1546 C1542 1.427 . S
N1546 C1543 1.384 . S
N1547 C1539 1.427 . S
N1547 C1545 1.384 . S
H1548 C1554 0.930 . S
H1549 C1558 0.930 . S
H1550 C1563 0.929 . S
H1551 C1561 0.929 . S
H1552 C1556 0.929 . S
H1553 C1562 0.929 . S
C1554 H1548 0.930 . S
C1554 C1555 1.367 . S
C1554 C1562 1.378 . S
C1555 C1554 1.367 . S
C1555 C1563 1.433 . S
C1556 H1552 0.929 . S
C1556 C1558 1.378 . S
C1556 C1560 1.350 . S
C1557 C1560 1.463 . S
C1557 C1562 1.350 . S
C1557 N1565 1.427 . S
C1558 H1549 0.930 . S
C1558 C1556 1.378 . S
C1558 C1559 1.367 . S
C1559 C1558 1.367 . S
C1559 C1561 1.433 . S
C1560 C1556 1.350 . S
C1560 C1557 1.463 . S
C1560 N1564 1.427 . S
C1561 H1551 0.929 . S
C1561 C1559 1.433 . S
C1561 N1564 1.384 . S
C1562 H1553 0.929 . S
C1562 C1554 1.378 . S
C1562 C1557 1.350 . S
C1563 H1550 0.929 . S
C1563 C1555 1.433 . S
C1563 N1565 1.384 . S
N1564 C1560 1.427 . S
N1564 C1561 1.384 . S
N1565 C1557 1.427 . S
N1565 C1563 1.384 . S
H1566 C1572 0.930 . S
H1567 C1576 0.930 . S
H1568 C1581 0.929 . S
H1569 C1579 0.929 . S
H1570 C1574 0.929 . S
H1571 C1580 0.929 . S
C1572 H1566 0.930 . S
C1572 C1573 1.367 . S
C1572 C1580 1.378 . S
C1573 C1572 1.367 . S
C1573 C1581 1.433 . S
C1574 H1570 0.929 . S
C1574 C1576 1.378 . S
C1574 C1578 1.350 . S
C1575 C1578 1.463 . S
C1575 C1580 1.350 . S
C1575 N1583 1.427 . S
C1576 H1567 0.930 . S
C1576 C1574 1.378 . S
C1576 C1577 1.367 . S
C1577 C1576 1.367 . S
C1577 C1579 1.433 . S
C1578 C1574 1.350 . S
C1578 C1575 1.463 . S
C1578 N1582 1.427 . S
C1579 H1569 0.929 . S
C1579 C1577 1.433 . S
C1579 N1582 1.384 . S
C1580 H1571 0.929 . S
C1580 C1572 1.378 . S
C1580 C1575 1.350 . S
C1581 H1568 0.929 . S
C1581 C1573 1.433 . S
C1581 N1583 1.384 . S
N1582 C1578 1.427 . S
N1582 C1579 1.384 . S
N1583 C1575 1.427 . S
N1583 C1581 1.384 . S
H1584 C1590 0.930 . S
H1585 C1594 0.930 . S
H1586 C1599 0.929 . S
H1587 C1597 0.929 . S
H1588 C1592 0.929 . S
H1589 C1598 0.929 . S
C1590 H1584 0.930 . S
C1590 C1591 1.367 . S
C1590 C1598 1.378 . S
C1591 C1590 1.367 . S
C1591 C1599 1.433 . S
C1592 H1588 0.929 . S
C1592 C1594 1.378 . S
C1592 C1596 1.350 . S
C1593 C1596 1.463 . S
C1593 C1598 1.350 . S
C1593 N1601 1.427 . S
C1594 H1585 0.930 . S
C1594 C1592 1.378 . S
C1594 C1595 1.367 . S
C1595 C1594 1.367 . S
C1595 C1597 1.433 . S
C1596 C1592 1.350 . S
C1596 C1593 1.463 . S
C1596 N1600 1.427 . S
C1597 H1587 0.929 . S
C1597 C1595 1.433 . S
C1597 N1600 1.384 . S
C1598 H1589 0.929 . S
C1598 C1590 1.378 . S
C1598 C1593 1.350 . S
C1599 H1586 0.929 . S
C1599 C1591 1.433 . S
C1599 N1601 1.384 . S
N1600 C1596 1.427 . S
N1600 C1597 1.384 . S
N1601 C1593 1.427 . S
N1601 C1599 1.384 . S
H1602 C1608 0.930 . S
H1603 C1612 0.930 . S
H1604 C1617 0.929 . S
H1605 C1615 0.929 . S
H1606 C1610 0.929 . S
H1607 C1616 0.929 . S
C1608 H1602 0.930 . S
C1608 C1609 1.367 . S
C1608 C1616 1.378 . S
C1609 C1608 1.367 . S
C1609 C1617 1.433 . S
C1610 H1606 0.929 . S
C1610 C1612 1.378 . S
C1610 C1614 1.350 . S
C1611 C1614 1.463 . S
C1611 C1616 1.350 . S
C1611 N1619 1.427 . S
C1612 H1603 0.930 . S
C1612 C1610 1.378 . S
C1612 C1613 1.367 . S
C1613 C1612 1.367 . S
C1613 C1615 1.433 . S
C1614 C1610 1.350 . S
C1614 C1611 1.463 . S
C1614 N1618 1.427 . S
C1615 H1605 0.929 . S
C1615 C1613 1.433 . S
C1615 N1618 1.384 . S
C1616 H1607 0.929 . S
C1616 C1608 1.378 . S
C1616 C1611 1.350 . S
C1617 H1604 0.929 . S
C1617 C1609 1.433 . S
C1617 N1619 1.384 . S
N1618 C1614 1.427 . S
N1618 C1615 1.384 . S
N1619 C1611 1.427 . S
N1619 C1617 1.384 . S
H1620 C1626 0.930 . S
H1621 C1630 0.930 . S
H1622 C1635 0.929 . S
H1623 C1633 0.929 . S
H1624 C1628 0.929 . S
H1625 C1634 0.929 . S
C1626 H1620 0.930 . S
C1626 C1627 1.367 . S
C1626 C1634 1.378 . S
C1627 C1626 1.367 . S
C1627 C1635 1.433 . S
C1628 H1624 0.929 . S
C1628 C1630 1.378 . S
C1628 C1632 1.350 . S
C1629 C1632 1.463 . S
C1629 C1634 1.350 . S
C1629 N1637 1.427 . S
C1630 H1621 0.930 . S
C1630 C1628 1.378 . S
C1630 C1631 1.367 . S
C1631 C1630 1.367 . S
C1631 C1633 1.433 . S
C1632 C1628 1.350 . S
C1632 C1629 1.463 . S
C1632 N1636 1.427 . S
C1633 H1623 0.929 . S
C1633 C1631 1.433 . S
C1633 N1636 1.384 . S
C1634 H1625 0.929 . S
C1634 C1626 1.378 . S
C1634 C1629 1.350 . S
C1635 H1622 0.929 . S
C1635 C1627 1.433 . S
C1635 N1637 1.384 . S
N1636 C1632 1.427 . S
N1636 C1633 1.384 . S
N1637 C1629 1.427 . S
N1637 C1635 1.384 . S
H1638 C1644 0.930 . S
H1639 C1648 0.930 . S
H1640 C1653 0.929 . S
H1641 C1651 0.929 . S
H1642 C1646 0.929 . S
H1643 C1652 0.929 . S
C1644 H1638 0.930 . S
C1644 C1645 1.367 . S
C1644 C1652 1.378 . S
C1645 C1644 1.367 . S
C1645 C1653 1.433 . S
C1646 H1642 0.929 . S
C1646 C1648 1.378 . S
C1646 C1650 1.350 . S
C1647 C1650 1.463 . S
C1647 C1652 1.350 . S
C1647 N1655 1.427 . S
C1648 H1639 0.930 . S
C1648 C1646 1.378 . S
C1648 C1649 1.367 . S
C1649 C1648 1.367 . S
C1649 C1651 1.433 . S
C1650 C1646 1.350 . S
C1650 C1647 1.463 . S
C1650 N1654 1.427 . S
C1651 H1641 0.929 . S
C1651 C1649 1.433 . S
C1651 N1654 1.384 . S
C1652 H1643 0.929 . S
C1652 C1644 1.378 . S
C1652 C1647 1.350 . S
C1653 H1640 0.929 . S
C1653 C1645 1.433 . S
C1653 N1655 1.384 . S
N1654 C1650 1.427 . S
N1654 C1651 1.384 . S
N1655 C1647 1.427 . S
N1655 C1653 1.384 . S
H1656 C1662 0.930 . S
H1657 C1666 0.930 . S
H1658 C1671 0.929 . S
H1659 C1669 0.929 . S
H1660 C1664 0.929 . S
H1661 C1670 0.929 . S
C1662 H1656 0.930 . S
C1662 C1663 1.367 . S
C1662 C1670 1.378 . S
C1663 C1662 1.367 . S
C1663 C1671 1.433 . S
C1664 H1660 0.929 . S
C1664 C1666 1.378 . S
C1664 C1668 1.350 . S
C1665 C1668 1.463 . S
C1665 C1670 1.350 . S
C1665 N1673 1.427 . S
C1666 H1657 0.930 . S
C1666 C1664 1.378 . S
C1666 C1667 1.367 . S
C1667 C1666 1.367 . S
C1667 C1669 1.433 . S
C1668 C1664 1.350 . S
C1668 C1665 1.463 . S
C1668 N1672 1.427 . S
C1669 H1659 0.929 . S
C1669 C1667 1.433 . S
C1669 N1672 1.384 . S
C1670 H1661 0.929 . S
C1670 C1662 1.378 . S
C1670 C1665 1.350 . S
C1671 H1658 0.929 . S
C1671 C1663 1.433 . S
C1671 N1673 1.384 . S
N1672 C1668 1.427 . S
N1672 C1669 1.384 . S
N1673 C1665 1.427 . S
N1673 C1671 1.384 . S
H1674 C1680 0.930 . S
H1675 C1684 0.930 . S
H1676 C1689 0.929 . S
H1677 C1687 0.929 . S
H1678 C1682 0.929 . S
H1679 C1688 0.929 . S
C1680 H1674 0.930 . S
C1680 C1681 1.367 . S
C1680 C1688 1.378 . S
C1681 C1680 1.367 . S
C1681 C1689 1.433 . S
C1682 H1678 0.929 . S
C1682 C1684 1.378 . S
C1682 C1686 1.350 . S
C1683 C1686 1.463 . S
C1683 C1688 1.350 . S
C1683 N1691 1.427 . S
C1684 H1675 0.930 . S
C1684 C1682 1.378 . S
C1684 C1685 1.367 . S
C1685 C1684 1.367 . S
C1685 C1687 1.433 . S
C1686 C1682 1.350 . S
C1686 C1683 1.463 . S
C1686 N1690 1.427 . S
C1687 H1677 0.929 . S
C1687 C1685 1.433 . S
C1687 N1690 1.384 . S
C1688 H1679 0.929 . S
C1688 C1680 1.378 . S
C1688 C1683 1.350 . S
C1689 H1676 0.929 . S
C1689 C1681 1.433 . S
C1689 N1691 1.384 . S
N1690 C1686 1.427 . S
N1690 C1687 1.384 . S
N1691 C1683 1.427 . S
N1691 C1689 1.384 . S
H1692 C1698 0.930 . S
H1693 C1702 0.930 . S
H1694 C1707 0.929 . S
H1695 C1705 0.929 . S
H1696 C1700 0.929 . S
H1697 C1706 0.929 . S
C1698 H1692 0.930 . S
C1698 C1699 1.367 . S
C1698 C1706 1.378 . S
C1699 C1698 1.367 . S
C1699 C1707 1.433 . S
C1700 H1696 0.929 . S
C1700 C1702 1.378 . S
C1700 C1704 1.350 . S
C1701 C1704 1.463 . S
C1701 C1706 1.350 . S
C1701 N1709 1.427 . S
C1702 H1693 0.930 . S
C1702 C1700 1.378 . S
C1702 C1703 1.367 . S
C1703 C1702 1.367 . S
C1703 C1705 1.433 . S
C1704 C1700 1.350 . S
C1704 C1701 1.463 . S
C1704 N1708 1.427 . S
C1705 H1695 0.929 . S
C1705 C1703 1.433 . S
C1705 N1708 1.384 . S
C1706 H1697 0.929 . S
C1706 C1698 1.378 . S
C1706 C1701 1.350 . S
C1707 H1694 0.929 . S
C1707 C1699 1.433 . S
C1707 N1709 1.384 . S
N1708 C1704 1.427 . S
N1708 C1705 1.384 . S
N1709 C1701 1.427 . S
N1709 C1707 1.384 . S
H1710 C1716 0.930 . S
H1711 C1720 0.930 . S
H1712 C1725 0.929 . S
H1713 C1723 0.929 . S
H1714 C1718 0.929 . S
H1715 C1724 0.929 . S
C1716 H1710 0.930 . S
C1716 C1717 1.367 . S
C1716 C1724 1.378 . S
C1717 C1716 1.367 . S
C1717 C1725 1.433 . S
C1718 H1714 0.929 . S
C1718 C1720 1.378 . S
C1718 C1722 1.350 . S
C1719 C1722 1.463 . S
C1719 C1724 1.350 . S
C1719 N1727 1.427 . S
C1720 H1711 0.930 . S
C1720 C1718 1.378 . S
C1720 C1721 1.367 . S
C1721 C1720 1.367 . S
C1721 C1723 1.433 . S
C1722 C1718 1.350 . S
C1722 C1719 1.463 . S
C1722 N1726 1.427 . S
C1723 H1713 0.929 . S
C1723 C1721 1.433 . S
C1723 N1726 1.384 . S
C1724 H1715 0.929 . S
C1724 C1716 1.378 . S
C1724 C1719 1.350 . S
C1725 H1712 0.929 . S
C1725 C1717 1.433 . S
C1725 N1727 1.384 . S
N1726 C1722 1.427 . S
N1726 C1723 1.384 . S
N1727 C1719 1.427 . S
N1727 C1725 1.384 . S
H1728 C1734 0.930 . S
H1729 C1738 0.930 . S
H1730 C1743 0.929 . S
H1731 C1741 0.929 . S
H1732 C1736 0.929 . S
H1733 C1742 0.929 . S
C1734 H1728 0.930 . S
C1734 C1735 1.367 . S
C1734 C1742 1.378 . S
C1735 C1734 1.367 . S
C1735 C1743 1.433 . S
C1736 H1732 0.929 . S
C1736 C1738 1.378 . S
C1736 C1740 1.350 . S
C1737 C1740 1.463 . S
C1737 C1742 1.350 . S
C1737 N1745 1.427 . S
C1738 H1729 0.930 . S
C1738 C1736 1.378 . S
C1738 C1739 1.367 . S
C1739 C1738 1.367 . S
C1739 C1741 1.433 . S
C1740 C1736 1.350 . S
C1740 C1737 1.463 . S
C1740 N1744 1.427 . S
C1741 H1731 0.929 . S
C1741 C1739 1.433 . S
C1741 N1744 1.384 . S
C1742 H1733 0.929 . S
C1742 C1734 1.378 . S
C1742 C1737 1.350 . S
C1743 H1730 0.929 . S
C1743 C1735 1.433 . S
C1743 N1745 1.384 . S
N1744 C1740 1.427 . S
N1744 C1741 1.384 . S
N1745 C1737 1.427 . S
N1745 C1743 1.384 . S
H1746 C1752 0.930 . S
H1747 C1756 0.930 . S
H1748 C1761 0.929 . S
H1749 C1759 0.929 . S
H1750 C1754 0.929 . S
H1751 C1760 0.929 . S
C1752 H1746 0.930 . S
C1752 C1753 1.367 . S
C1752 C1760 1.378 . S
C1753 C1752 1.367 . S
C1753 C1761 1.433 . S
C1754 H1750 0.929 . S
C1754 C1756 1.378 . S
C1754 C1758 1.350 . S
C1755 C1758 1.463 . S
C1755 C1760 1.350 . S
C1755 N1763 1.427 . S
C1756 H1747 0.930 . S
C1756 C1754 1.378 . S
C1756 C1757 1.367 . S
C1757 C1756 1.367 . S
C1757 C1759 1.433 . S
C1758 C1754 1.350 . S
C1758 C1755 1.463 . S
C1758 N1762 1.427 . S
C1759 H1749 0.929 . S
C1759 C1757 1.433 . S
C1759 N1762 1.384 . S
C1760 H1751 0.929 . S
C1760 C1752 1.378 . S
C1760 C1755 1.350 . S
C1761 H1748 0.929 . S
C1761 C1753 1.433 . S
C1761 N1763 1.384 . S
N1762 C1758 1.427 . S
N1762 C1759 1.384 . S
N1763 C1755 1.427 . S
N1763 C1761 1.384 . S
H1764 C1770 0.930 . S
H1765 C1774 0.930 . S
H1766 C1779 0.929 . S
H1767 C1777 0.929 . S
H1768 C1772 0.929 . S
H1769 C1778 0.929 . S
C1770 H1764 0.930 . S
C1770 C1771 1.367 . S
C1770 C1778 1.378 . S
C1771 C1770 1.367 . S
C1771 C1779 1.433 . S
C1772 H1768 0.929 . S
C1772 C1774 1.378 . S
C1772 C1776 1.350 . S
C1773 C1776 1.463 . S
C1773 C1778 1.350 . S
C1773 N1781 1.427 . S
C1774 H1765 0.930 . S
C1774 C1772 1.378 . S
C1774 C1775 1.367 . S
C1775 C1774 1.367 . S
C1775 C1777 1.433 . S
C1776 C1772 1.350 . S
C1776 C1773 1.463 . S
C1776 N1780 1.427 . S
C1777 H1767 0.929 . S
C1777 C1775 1.433 . S
C1777 N1780 1.384 . S
C1778 H1769 0.929 . S
C1778 C1770 1.378 . S
C1778 C1773 1.350 . S
C1779 H1766 0.929 . S
C1779 C1771 1.433 . S
C1779 N1781 1.384 . S
N1780 C1776 1.427 . S
N1780 C1777 1.384 . S
N1781 C1773 1.427 . S
N1781 C1779 1.384 . S
H1782 C1788 0.930 . S
H1783 C1792 0.930 . S
H1784 C1797 0.929 . S
H1785 C1795 0.929 . S
H1786 C1790 0.929 . S
H1787 C1796 0.929 . S
C1788 H1782 0.930 . S
C1788 C1789 1.367 . S
C1788 C1796 1.378 . S
C1789 C1788 1.367 . S
C1789 C1797 1.433 . S
C1790 H1786 0.929 . S
C1790 C1792 1.378 . S
C1790 C1794 1.350 . S
C1791 C1794 1.463 . S
C1791 C1796 1.350 . S
C1791 N1799 1.427 . S
C1792 H1783 0.930 . S
C1792 C1790 1.378 . S
C1792 C1793 1.367 . S
C1793 C1792 1.367 . S
C1793 C1795 1.433 . S
C1794 C1790 1.350 . S
C1794 C1791 1.463 . S
C1794 N1798 1.427 . S
C1795 H1785 0.929 . S
C1795 C1793 1.433 . S
C1795 N1798 1.384 . S
C1796 H1787 0.929 . S
C1796 C1788 1.378 . S
C1796 C1791 1.350 . S
C1797 H1784 0.929 . S
C1797 C1789 1.433 . S
C1797 N1799 1.384 . S
N1798 C1794 1.427 . S
N1798 C1795 1.384 . S
N1799 C1791 1.427 . S
N1799 C1797 1.384 . S
H1800 C1806 0.930 . S
H1801 C1810 0.930 . S
H1802 C1815 0.929 . S
H1803 C1813 0.929 . S
H1804 C1808 0.929 . S
H1805 C1814 0.929 . S
C1806 H1800 0.930 . S
C1806 C1807 1.367 . S
C1806 C1814 1.378 . S
C1807 C1806 1.367 . S
C1807 C1815 1.433 . S
C1808 H1804 0.929 . S
C1808 C1810 1.378 . S
C1808 C1812 1.350 . S
C1809 C1812 1.463 . S
C1809 C1814 1.350 . S
C1809 N1817 1.427 . S
C1810 H1801 0.930 . S
C1810 C1808 1.378 . S
C1810 C1811 1.367 . S
C1811 C1810 1.367 . S
C1811 C1813 1.433 . S
C1812 C1808 1.350 . S
C1812 C1809 1.463 . S
C1812 N1816 1.427 . S
C1813 H1803 0.929 . S
C1813 C1811 1.433 . S
C1813 N1816 1.384 . S
C1814 H1805 0.929 . S
C1814 C1806 1.378 . S
C1814 C1809 1.350 . S
C1815 H1802 0.929 . S
C1815 C1807 1.433 . S
C1815 N1817 1.384 . S
N1816 C1812 1.427 . S
N1816 C1813 1.384 . S
N1817 C1809 1.427 . S
N1817 C1815 1.384 . S
H1818 C1824 0.930 . S
H1819 C1828 0.930 . S
H1820 C1833 0.929 . S
H1821 C1831 0.929 . S
H1822 C1826 0.929 . S
H1823 C1832 0.929 . S
C1824 H1818 0.930 . S
C1824 C1825 1.367 . S
C1824 C1832 1.378 . S
C1825 C1824 1.367 . S
C1825 C1833 1.433 . S
C1826 H1822 0.929 . S
C1826 C1828 1.378 . S
C1826 C1830 1.350 . S
C1827 C1830 1.463 . S
C1827 C1832 1.350 . S
C1827 N1835 1.427 . S
C1828 H1819 0.930 . S
C1828 C1826 1.378 . S
C1828 C1829 1.367 . S
C1829 C1828 1.367 . S
C1829 C1831 1.433 . S
C1830 C1826 1.350 . S
C1830 C1827 1.463 . S
C1830 N1834 1.427 . S
C1831 H1821 0.929 . S
C1831 C1829 1.433 . S
C1831 N1834 1.384 . S
C1832 H1823 0.929 . S
C1832 C1824 1.378 . S
C1832 C1827 1.350 . S
C1833 H1820 0.929 . S
C1833 C1825 1.433 . S
C1833 N1835 1.384 . S
N1834 C1830 1.427 . S
N1834 C1831 1.384 . S
N1835 C1827 1.427 . S
N1835 C1833 1.384 . S
H1836 C1842 0.930 . S
H1837 C1846 0.930 . S
H1838 C1851 0.929 . S
H1839 C1849 0.929 . S
H1840 C1844 0.929 . S
H1841 C1850 0.929 . S
C1842 H1836 0.930 . S
C1842 C1843 1.367 . S
C1842 C1850 1.378 . S
C1843 C1842 1.367 . S
C1843 C1851 1.433 . S
C1844 H1840 0.929 . S
C1844 C1846 1.378 . S
C1844 C1848 1.350 . S
C1845 C1848 1.463 . S
C1845 C1850 1.350 . S
C1845 N1853 1.427 . S
C1846 H1837 0.930 . S
C1846 C1844 1.378 . S
C1846 C1847 1.367 . S
C1847 C1846 1.367 . S
C1847 C1849 1.433 . S
C1848 C1844 1.350 . S
C1848 C1845 1.463 . S
C1848 N1852 1.427 . S
C1849 H1839 0.929 . S
C1849 C1847 1.433 . S
C1849 N1852 1.384 . S
C1850 H1841 0.929 . S
C1850 C1842 1.378 . S
C1850 C1845 1.350 . S
C1851 H1838 0.929 . S
C1851 C1843 1.433 . S
C1851 N1853 1.384 . S
N1852 C1848 1.427 . S
N1852 C1849 1.384 . S
N1853 C1845 1.427 . S
N1853 C1851 1.384 . S
H1854 C1860 0.930 . S
H1855 C1864 0.930 . S
H1856 C1869 0.929 . S
H1857 C1867 0.929 . S
H1858 C1862 0.929 . S
H1859 C1868 0.929 . S
C1860 H1854 0.930 . S
C1860 C1861 1.367 . S
C1860 C1868 1.378 . S
C1861 C1860 1.367 . S
C1861 C1869 1.433 . S
C1862 H1858 0.929 . S
C1862 C1864 1.378 . S
C1862 C1866 1.350 . S
C1863 C1866 1.463 . S
C1863 C1868 1.350 . S
C1863 N1871 1.427 . S
C1864 H1855 0.930 . S
C1864 C1862 1.378 . S
C1864 C1865 1.367 . S
C1865 C1864 1.367 . S
C1865 C1867 1.433 . S
C1866 C1862 1.350 . S
C1866 C1863 1.463 . S
C1866 N1870 1.427 . S
C1867 H1857 0.929 . S
C1867 C1865 1.433 . S
C1867 N1870 1.384 . S
C1868 H1859 0.929 . S
C1868 C1860 1.378 . S
C1868 C1863 1.350 . S
C1869 H1856 0.929 . S
C1869 C1861 1.433 . S
C1869 N1871 1.384 . S
N1870 C1866 1.427 . S
N1870 C1867 1.384 . S
N1871 C1863 1.427 . S
N1871 C1869 1.384 . S
C799 N113 1.404 . S
C803 C8 1.422 . S
C817 N14 1.395 1_655 S
C821 C41 1.418 . S
C835 N47 1.400 . S
C839 C74 1.418 . S
C853 C107 1.421 . S
C857 N80 1.405 1_455 S
C871 N179 1.404 . S
C875 C140 1.421 . S
C889 N212 1.397 1_455 S
C893 C173 1.418 . S
C907 C206 1.422 . S
C911 N245 1.394 . S
C925 N146 1.395 1_655 S
C929 C239 1.418 . S
C943 C272 1.421 . S
C947 N608 1.405 . S
C961 C305 1.423 . S
C965 N641 1.400 1_554 S
C979 N674 1.404 . S
C983 C338 1.421 . S
C997 N575 1.403 1_554 S
C1001 C371 1.419 . S
C1015 N740 1.404 . S
C1019 C404 1.421 . S
C1033 C437 1.418 . S
C1037 N542 1.395 1_556 S
C1051 C470 1.418 . S
C1055 N773 1.397 . S
C1069 N707 1.394 1_556 S
C1073 C503 1.422 . S
C1087 N311 1.394 . S
C1091 C536 1.422 . S
C1105 C569 1.423 . S
C1109 N509 1.402 . S
C1123 N410 1.404 1_545 S
C1127 C602 1.422 . S
C1141 N443 1.393 . S
C1145 C635 1.421 . S
C1159 N476 1.399 1_565 S
C1163 C668 1.418 . S
C1177 N377 1.402 . S
C1181 C701 1.423 . S
C1195 N278 1.404 1_565 S
C1199 C734 1.422 . S
C1213 N344 1.403 1_545 S
C1217 C767 1.423 . S
C1231 C215 1.651 . S
C1235 C17 1.651 . S
C1249 C50 1.647 . S
C1253 C248 1.647 . S
C1267 C149 1.647 . S
C1271 C83 1.649 . S
C1285 C182 1.648 . S
C1289 C116 1.647 . S
C1303 C347 1.650 . S
C1307 C281 1.648 . S
C1321 C314 1.647 . S
C1325 C380 1.648 . S
C1339 C413 1.649 . S
C1343 C479 1.651 . S
C1357 C512 1.647 . S
C1361 C446 1.648 . S
C1375 C545 1.651 . S
C1379 C578 1.650 . S
C1393 C611 1.647 . S
C1397 C776 1.647 . S
C1411 C644 1.647 . S
C1415 C710 1.648 . S
C1429 C743 1.647 . S
C1433 C677 1.647 . S
C1447 C28 1.213 . S
C1451 N269 1.222 . S
C1465 C61 1.206 . S
C1469 N302 1.224 . S
C1483 N335 1.223 . S
C1487 C94 1.207 . S
C1501 N368 1.219 . S
C1505 C127 1.211 . S
C1519 C160 1.210 . S
C1523 N401 1.220 . S
C1537 N434 1.220 . S
C1541 C193 1.215 . S
C1555 C226 1.217 . S
C1559 N467 1.219 . S
C1573 N500 1.224 . S
C1577 C259 1.208 . S
C1591 C292 1.206 . S
C1595 N533 1.224 . S
C1609 N764 1.218 . S
C1613 C325 1.217 . S
C1627 C358 1.217 . S
C1631 N698 1.217 . S
C1645 C391 1.217 . S
C1649 N731 1.217 . S
C1663 N566 1.217 . S
C1667 C424 1.218 . S
C1681 C457 1.216 . S
C1685 N599 1.217 . S
C1699 C490 1.217 . S
C1703 N632 1.217 . S
C1717 C523 1.217 . S
C1721 N665 1.218 . S
C1735 C556 1.206 . S
C1739 N5 1.224 . S
C1753 C589 1.212 . S
C1757 N137 1.222 . S
C1771 C622 1.215 . S
C1775 N170 1.220 . S
C1789 N203 1.222 . S
C1793 C655 1.208 . S
C1807 C688 1.217 . S
C1811 N236 1.217 . S
C1825 N71 1.224 . S
C1829 C721 1.210 . S
C1843 N104 1.217 . S
C1847 C754 1.216 . S
C1861 C787 1.213 . S
C1865 N38 1.218 . S
