# Generated by pormake.
# Topology uni, (4)-cn, num edge types: 1
# Building blocks:
#     Node 0, Type 0, BuildingBlock: NAHDIM_clean_sbu_0, # of connection points: 4
#     Node 1, Type 0, BuildingBlock: NAHDIM_clean_sbu_0, # of connection points: 4
#     Node 2, Type 0, BuildingBlock: NAHDIM_clean_sbu_0, # of connection points: 4
#     Node 3, Type 0, BuildingBlock: NAHDIM_clean_sbu_0, # of connection points: 4
#     Node 4, Type 0, BuildingBlock: NAHDIM_clean_sbu_0, # of connection points: 4
#     Node 5, Type 0, BuildingBlock: NAHDIM_clean_sbu_0, # of connection points: 4
#     Edge 6, Type (0, 0), BuildingBlock: TEMPAE_clean_linker_10, # of connection points: 2
#     Edge 7, Type (0, 0), BuildingBlock: TEMPAE_clean_linker_10, # of connection points: 2
#     Edge 8, Type (0, 0), BuildingBlock: TEMPAE_clean_linker_10, # of connection points: 2
#     Edge 9, Type (0, 0), BuildingBlock: TEMPAE_clean_linker_10, # of connection points: 2
#     Edge 10, Type (0, 0), BuildingBlock: TEMPAE_clean_linker_10, # of connection points: 2
#     Edge 11, Type (0, 0), BuildingBlock: TEMPAE_clean_linker_10, # of connection points: 2
#     Edge 12, Type (0, 0), BuildingBlock: TEMPAE_clean_linker_10, # of connection points: 2
#     Edge 13, Type (0, 0), BuildingBlock: TEMPAE_clean_linker_10, # of connection points: 2
#     Edge 14, Type (0, 0), BuildingBlock: TEMPAE_clean_linker_10, # of connection points: 2
#     Edge 15, Type (0, 0), BuildingBlock: TEMPAE_clean_linker_10, # of connection points: 2
#     Edge 16, Type (0, 0), BuildingBlock: TEMPAE_clean_linker_10, # of connection points: 2
#     Edge 17, Type (0, 0), BuildingBlock: TEMPAE_clean_linker_10, # of connection points: 2
# Relax obj value: 0.045
# Max RMSD: 0.077
# Mean RMSD: 0.077
data_MOF--net-uni--node1-NAHDIM_clean_sbu_0--edge1-TEMPAE_clean_linker_10
_symmetry_space_group_name_H-M    P1
_symmetry_Int_Tables_number       1
_symmetry_cell_setting            triclinic
loop_
_symmetry_equiv_pos_as_xyz
'x, y, z'
_cell_length_a     39.423624
_cell_length_b     39.405626
_cell_length_c     23.587005
_cell_angle_alpha  90.12084
_cell_angle_beta   89.748808
_cell_angle_gamma 120.09275
loop_
_atom_site_label
_atom_site_type_symbol
_atom_site_fract_x
_atom_site_fract_y
_atom_site_fract_z
_atom_type_partial_charge
C0 C 0.64024 0.95237 0.10788 0.0
O1 O 0.64545 0.979 0.14582 0.0
O2 O 0.67736 0.04902 0.01455 0.0
Zn3 Zn 0.62573 0.00243 0.03657 0.0
O4 O 0.60143 0.01522 0.10212 0.0
C5 C 0.60357 0.99315 0.9199 0.0
O6 O 0.64095 0.00491 0.913 0.0
O7 O 0.63214 0.95655 0.05719 0.0
C8 C 0.59755 0.04533 0.10277 0.0
O9 O 0.6108 0.06979 0.05974 0.0
C10 C 0.70345 0.07246 0.0487 0.0
O11 O 0.69759 0.06651 0.10354 0.0
O12 O 0.58977 0.98868 0.96985 0.0
C13 C 0.72053 0.66479 0.29205 0.0
O14 O 0.70632 0.6813 0.32569 0.0
O15 O 0.65502 0.69435 0.22147 0.0
Zn16 Zn 0.64865 0.64098 0.23374 0.0
O17 O 0.61339 0.61455 0.30088 0.0
C18 C 0.62865 0.62247 0.11535 0.0
O19 O 0.64922 0.66073 0.10918 0.0
O20 O 0.70096 0.64605 0.2488 0.0
C21 C 0.57716 0.58971 0.29493 0.0
O22 O 0.56211 0.58161 0.24375 0.0
C23 C 0.62489 0.69805 0.2179 0.0
O24 O 0.59001 0.66683 0.22364 0.0
O25 O 0.62513 0.6077 0.16435 0.0
C26 C 0.09014 0.74444 0.43496 0.0
O27 O 0.05672 0.73525 0.45981 0.0
O28 O -0.0036 0.67735 0.37253 0.0
Zn29 Zn 0.04219 0.66917 0.38579 0.0
O30 O 0.03248 0.63569 0.45492 0.0
C31 C 0.02715 0.60519 0.31315 0.0
O32 O 0.00089 0.58588 0.3527 0.0
O33 O 0.09113 0.72065 0.39947 0.0
C34 C 0.05308 0.61966 0.46323 0.0
O35 O 0.08079 0.62573 0.42663 0.0
C36 C 0.96245 0.65222 0.39027 0.0
O37 O 0.95791 0.62133 0.41802 0.0
O38 O 0.04885 0.64216 0.31764 0.0
C39 C 0.39014 0.09852 0.609 0.0
O40 O 0.37117 0.0643 0.63443 0.0
O41 O 0.36175 0.00998 0.52407 0.0
Zn42 Zn 0.41541 0.05574 0.54104 0.0
O43 O 0.44118 0.04267 0.60363 0.0
C44 C 0.43524 0.05928 0.42229 0.0
O45 O 0.39711 0.04276 0.4159 0.0
O46 O 0.41117 0.10222 0.56586 0.0
C47 C 0.44795 0.01442 0.6002 0.0
O48 O 0.43684 0.99212 0.55477 0.0
C49 C 0.34255 0.98151 0.55791 0.0
O50 O 0.35753 0.98157 0.60757 0.0
O51 O 0.44964 0.0685 0.47179 0.0
C52 C 0.30111 0.37272 0.76574 0.0
O53 O 0.30057 0.3398 0.75448 0.0
O54 O 0.37654 0.35425 0.72904 0.0
Zn55 Zn 0.38425 0.40845 0.73978 0.0
O56 O 0.42238 0.43778 0.80228 0.0
C57 C 0.42503 0.42955 0.63341 0.0
O58 O 0.42926 0.39944 0.64609 0.0
O59 O 0.33308 0.40509 0.7608 0.0
C60 C 0.45899 0.45056 0.79834 0.0
O61 O 0.47303 0.4432 0.75228 0.0
C62 C 0.39216 0.33902 0.75896 0.0
O63 O 0.41412 0.35857 0.80233 0.0
O64 O 0.40589 0.43905 0.66712 0.0
C65 C 0.94582 0.31021 0.89755 0.0
O66 O 0.97635 0.30807 0.88006 0.0
O67 O 0.04376 0.38796 0.87022 0.0
Zn68 Zn -0.00252 0.39508 0.88577 0.0
O69 O 0.0061 0.43013 0.95295 0.0
C70 C 0.02041 0.45648 0.80914 0.0
O71 O 0.04946 0.47105 0.84556 0.0
O72 O 0.94819 0.34354 0.90095 0.0
C73 C 0.03795 0.45088 0.97961 0.0
O74 O 0.06972 0.45034 0.96415 0.0
C75 C 0.06018 0.37568 0.90415 0.0
O76 O 0.04671 0.36594 0.95617 0.0
O77 O 0.99188 0.42196 0.81714 0.0
C78 C 0.55975 0.02339 0.19356 0.0
C79 C 0.57642 0.05141 0.1502 0.0
C80 C 0.53798 0.02755 0.23739 0.0
C81 C 0.5329 0.06065 0.23813 0.0
C82 C 0.55028 0.08947 0.19519 0.0
C83 C 0.57179 0.08447 0.1516 0.0
C84 C 0.51984 0.99612 0.2824 0.0
C85 C 0.5457 0.12528 0.1949 0.0
C86 C 0.44417 0.04712 0.32068 0.0
C87 C 0.46072 0.06341 0.37338 0.0
C88 C 0.46756 0.04725 0.27558 0.0
C89 C 0.5085 0.06431 0.28328 0.0
C90 C 0.52562 0.08233 0.33555 0.0
C91 C 0.5015 0.08156 0.38006 0.0
C92 C 0.44822 0.02765 0.22047 0.0
C93 C 0.56921 0.10111 0.34519 0.0
H94 H 0.56319 -0.00222 0.19292 0.0
H95 H 0.58467 0.10631 0.11836 0.0
H96 H 0.53004 0.00921 0.325 0.0
H97 H 0.48747 0.9827 0.28189 0.0
H98 H 0.52716 0.97256 0.27626 0.0
H99 H 0.56236 0.14574 0.1598 0.0
H100 H 0.51428 0.11625 0.19054 0.0
H101 H 0.55592 0.14121 0.23573 0.0
H102 H 0.41271 0.0331 0.31508 0.0
H103 H 0.51458 0.09445 0.42054 0.0
H104 H 0.45146 0.00155 0.21357 0.0
H105 H 0.46276 0.04789 0.18436 0.0
H106 H 0.4165 0.01812 0.21999 0.0
H107 H 0.57778 0.07825 0.34461 0.0
H108 H 0.57832 0.11687 0.38636 0.0
H109 H 0.58564 0.12211 0.31059 0.0
C110 C 0.5692 0.57596 0.39914 0.0
C111 C 0.55269 0.56869 0.34478 0.0
C112 C 0.54698 0.55454 0.44623 0.0
C113 C 0.50729 0.52517 0.4388 0.0
C114 C 0.49012 0.51846 0.38438 0.0
C115 C 0.51304 0.5403 0.33799 0.0
C116 C 0.56631 0.56255 0.50366 0.0
C117 C 0.44786 0.48743 0.37486 0.0
C118 C 0.46539 0.44222 0.5458 0.0
C119 C 0.44431 0.45321 0.5822 0.0
C120 C 0.4855 0.46512 0.49856 0.0
C121 C 0.48455 0.49989 0.48736 0.0
C122 C 0.46277 0.51084 0.52326 0.0
C123 C 0.44287 0.48734 0.57033 0.0
C124 C 0.50834 0.45241 0.46117 0.0
C125 C 0.46105 0.5477 0.51249 0.0
H126 H 0.59978 0.59794 0.40483 0.0
H127 H 0.49999 0.53459 0.2962 0.0
H128 H 0.54903 0.56855 0.53522 0.0
H129 H 0.56716 0.53626 0.51841 0.0
H130 H 0.59674 0.58785 0.50288 0.0
H131 H 0.43823 0.48759 0.33071 0.0
H132 H 0.4439 0.45804 0.38388 0.0
H133 H 0.42844 0.49187 0.40439 0.0
H134 H 0.46659 0.41585 0.55451 0.0
H135 H 0.42663 0.49602 0.59822 0.0
H136 H 0.5399 0.47506 0.46174 0.0
H137 H 0.49826 0.44945 0.41665 0.0
H138 H 0.50525 0.42404 0.47487 0.0
H139 H 0.49091 0.57369 0.51545 0.0
H140 H 0.44164 0.55134 0.54317 0.0
H141 H 0.45029 0.54724 0.46895 0.0
C142 C 0.05159 0.51908 0.75455 0.0
C143 C 0.02205 0.47964 0.75888 0.0
C144 C 0.05488 0.54131 0.70641 0.0
C145 C 0.02814 0.52359 0.66126 0.0
C146 C -0.00211 0.48394 0.66558 0.0
C147 C 0.9951 0.46243 0.71453 0.0
C148 C 0.08735 0.58363 0.70354 0.0
C149 C 0.969 0.46408 0.61808 0.0
C150 C 0.02022 0.59216 0.55638 0.0
C151 C 0.0456 0.59409 0.51303 0.0
C152 C 0.01366 0.56875 0.60448 0.0
C153 C 0.03268 0.5465 0.60903 0.0
C154 C 0.05764 0.54764 0.56484 0.0
C155 C 0.06395 0.57158 0.51748 0.0
C156 C 0.98709 0.5685 0.651 0.0
C157 C 0.07819 0.52405 0.56801 0.0
H158 H 0.0724 0.53268 0.78877 0.0
H159 H 0.97225 0.43193 0.71757 0.0
H160 H 0.10733 0.58767 0.66767 0.0
H161 H 0.0749 0.60294 0.69562 0.0
H162 H 0.10485 0.59337 0.74314 0.0
H163 H 0.94652 0.4334 0.62871 0.0
H164 H 0.95393 0.48071 0.60802 0.0
H165 H 0.98478 0.46379 0.57918 0.0
H166 H 0.00591 0.60947 0.5532 0.0
H167 H 0.08335 0.57267 0.48393 0.0
H168 H 0.00411 0.58042 0.6906 0.0
H169 H 0.96361 0.538 0.66006 0.0
H170 H 0.97327 0.58619 0.63991 0.0
H171 H 0.09871 0.53422 0.60438 0.0
H172 H 0.09499 0.52659 0.52877 0.0
H173 H 0.05651 0.49264 0.57534 0.0
C174 C 0.59626 0.00424 0.81757 0.0
C175 C 0.57891 0.98944 0.87057 0.0
C176 C 0.57396 0.00507 0.77199 0.0
C177 C 0.53328 0.9903 0.77948 0.0
C178 C 0.51524 0.97346 0.83199 0.0
C179 C 0.53833 0.97344 0.87707 0.0
C180 C 0.59431 0.02354 0.71674 0.0
C181 C 0.47183 0.95693 0.84129 0.0
C182 C 0.48665 0.0354 0.6897 0.0
C183 C 0.46885 0.00745 0.64658 0.0
C184 C 0.50755 0.03002 0.73322 0.0
C185 C 0.51039 0.99561 0.73405 0.0
C186 C 0.492 0.96695 0.6912 0.0
C187 C 0.47161 0.97332 0.64769 0.0
C188 C 0.52706 0.06144 0.77794 0.0
C189 C 0.49405 0.9297 0.6912 0.0
H190 H 0.6276 0.01664 0.8122 0.0
H191 H 0.52467 0.96164 0.9178 0.0
H192 H 0.57903 0.0035 0.6808 0.0
H193 H 0.59324 0.0508 0.70939 0.0
H194 H 0.62548 0.031 0.71643 0.0
H195 H 0.46168 0.94129 0.88245 0.0
H196 H 0.46507 0.98107 0.84058 0.0
H197 H 0.45488 0.93635 0.80663 0.0
H198 H 0.48476 0.06191 0.68908 0.0
H199 H 0.45775 0.95151 0.61465 0.0
H200 H 0.55912 0.07276 0.77783 0.0
H201 H 0.51581 0.04891 0.82058 0.0
H202 H 0.52201 0.08645 0.77118 0.0
H203 H 0.52501 0.93689 0.68759 0.0
H204 H 0.47714 0.90978 0.65583 0.0
H205 H 0.48248 0.91386 0.73188 0.0
C206 C 0.60476 0.61325 0.01537 0.0
C207 C 0.60758 0.59691 0.06665 0.0
C208 C 0.58239 0.58926 0.97031 0.0
C209 C 0.56271 0.54798 0.97657 0.0
C210 C 0.56657 0.5313 0.02748 0.0
C211 C 0.58881 0.55597 0.07203 0.0
C212 C 0.57873 0.6081 0.91675 0.0
C213 C 0.54632 0.4874 0.03548 0.0
C214 C 0.47121 0.48758 0.88911 0.0
C215 C 0.4855 0.47457 0.84454 0.0
C216 C 0.49608 0.51146 0.9323 0.0
C217 C 0.53616 0.5223 0.93122 0.0
C218 C 0.55072 0.50888 0.88682 0.0
C219 C 0.52522 0.48529 0.84379 0.0
C220 C 0.47951 0.52543 0.97878 0.0
C221 C 0.59322 0.51956 0.88468 0.0
H222 H 0.61916 0.64484 0.01088 0.0
H223 H 0.59106 0.54312 0.11142 0.0
H224 H 0.5869 0.59662 0.87931 0.0
H225 H 0.5478 0.60057 0.91108 0.0
H226 H 0.5975 0.64055 0.91748 0.0
H227 H 0.55457 0.47914 0.07597 0.0
H228 H 0.51407 0.47491 0.03521 0.0
H229 H 0.55366 0.47371 -8e-05 0.0
H230 H 0.44058 0.47955 0.88993 0.0
H231 H 0.53644 0.47524 0.80958 0.0
H232 H 0.49515 0.55796 0.97945 0.0
H233 H 0.48407 0.5156 0.02064 0.0
H234 H 0.44768 0.51438 0.97337 0.0
H235 H 0.61229 0.55187 0.88194 0.0
H236 H 0.59973 0.50603 0.84794 0.0
H237 H 0.60109 0.50995 0.92422 0.0
C238 C 0.06973 0.49048 0.06664 0.0
C239 C 0.03892 0.47561 0.02748 0.0
C240 C 0.07001 0.5128 0.11331 0.0
C241 C 0.03905 0.52088 0.12034 0.0
C242 C 0.00839 0.50673 0.08016 0.0
C243 C 0.00855 0.48403 0.03447 0.0
C244 C 0.10293 0.52703 0.15573 0.0
C245 C 0.97515 0.5152 0.08578 0.0
C246 C 0.01407 0.54304 0.26608 0.0
C247 C 0.03146 0.58398 0.26442 0.0
C248 C 0.01722 0.52227 0.21998 0.0
C249 C 0.0378 0.5429 0.17073 0.0
C250 C 0.05572 0.58427 0.16892 0.0
C251 C 0.05257 0.60438 0.21601 0.0
C252 C -0.0019 0.47817 0.22373 0.0
C253 C 0.07747 0.60719 0.11681 0.0
H254 H 0.09322 0.48397 0.0615 0.0
H255 H 0.98483 0.47294 0.00404 0.0
H256 H 0.11751 0.55936 0.16026 0.0
H257 H 0.09093 0.51414 0.19797 0.0
H258 H 0.12531 0.51911 0.14337 0.0
H259 H 0.9546 0.50365 0.0494 0.0
H260 H 0.95843 0.50179 0.12531 0.0
H261 H 0.98693 0.54729 0.08887 0.0
H262 H -0.002 0.52713 0.30355 0.0
H263 H 0.066 0.63603 0.21446 0.0
H264 H 0.01996 0.46897 0.21465 0.0
H265 H 0.97473 0.46428 0.19134 0.0
H266 H 0.98493 0.46678 0.26611 0.0
H267 H 0.10105 0.6008 0.10556 0.0
H268 H 0.09072 0.63934 0.12282 0.0
H269 H 0.0571 0.59805 0.08029 0.0
C270 C 0.59567 0.74082 0.20294 0.0
C271 C 0.62892 0.7366 0.20468 0.0
C272 C 0.59877 0.77676 0.18843 0.0
C273 C 0.63599 0.80922 0.17512 0.0
C274 C 0.66975 0.80533 0.17745 0.0
C275 C 0.66582 0.76906 0.19233 0.0
C276 C 0.56212 0.77987 0.18667 0.0
C277 C 0.7099 0.83931 0.1634 0.0
C278 C 0.63643 0.88865 0.08398 0.0
C279 C 0.64142 0.9168 0.12467 0.0
C280 C 0.6354 0.85385 0.09973 0.0
C281 C 0.63935 0.84698 0.15755 0.0
C282 C 0.64517 0.87558 0.1987 0.0
C283 C 0.64622 0.9102 0.18174 0.0
C284 C 0.62935 0.82408 0.0546 0.0
C285 C 0.64945 0.86922 0.26077 0.0
H286 H 0.56708 0.71593 0.21259 0.0
H287 H 0.69166 0.76604 0.19352 0.0
H288 H 0.56535 0.80379 0.21505 0.0
H289 H 0.55761 0.78738 0.14311 0.0
H290 H 0.53556 0.75218 0.1997 0.0
H291 H 0.73332 0.83173 0.16859 0.0
H292 H 0.71048 0.84878 0.11897 0.0
H293 H 0.71665 0.86472 0.19106 0.0
H294 H 0.63284 0.89357 0.03977 0.0
H295 H 0.65012 0.9318 0.21346 0.0
H296 H 0.60144 0.79641 0.06259 0.0
H297 H 0.65329 0.81707 0.05619 0.0
H298 H 0.62838 0.83458 0.01129 0.0
H299 H 0.62225 0.84327 0.27646 0.0
H300 H 0.65528 0.89497 0.28714 0.0
H301 H 0.67374 0.86307 0.26676 0.0
C302 C 0.9325 0.68865 0.34578 0.0
C303 C 0.92818 0.65681 0.378 0.0
C304 C 0.89991 0.69236 0.33199 0.0
C305 C 0.86218 0.66357 0.35093 0.0
C306 C 0.85774 0.63178 0.38431 0.0
C307 C 0.89079 0.62878 0.39742 0.0
C308 C 0.90574 0.72668 0.29634 0.0
C309 C 0.81795 0.60054 0.40537 0.0
C310 C 0.77876 0.68551 0.35475 0.0
C311 C 0.75788 0.6663 0.30571 0.0
C312 C 0.81322 0.68552 0.3695 0.0
C313 C 0.82707 0.66586 0.33435 0.0
C314 C 0.80658 0.64711 0.28422 0.0
C315 C 0.77225 0.64757 0.27049 0.0
C316 C 0.83439 0.7059 0.42323 0.0
C317 C 0.8205 0.62588 0.24564 0.0
H318 H 0.9613 0.71049 0.33069 0.0
H319 H 0.88719 0.60415 0.42247 0.0
H320 H 0.88976 0.71591 0.2557 0.0
H321 H 0.8934 0.74298 0.31845 0.0
H322 H 0.93715 0.74732 0.28683 0.0
H323 H 0.81967 0.57841 0.43242 0.0
H324 H 0.80388 0.61414 0.43016 0.0
H325 H 0.79862 0.58524 0.3688 0.0
H326 H 0.76792 0.70013 0.38213 0.0
H327 H 0.75638 0.63274 0.23243 0.0
H328 H 0.86547 0.72758 0.41369 0.0
H329 H 0.8343 0.68415 0.45312 0.0
H330 H 0.82074 0.72126 0.44464 0.0
H331 H 0.85122 0.64599 0.23215 0.0
H332 H 0.80202 0.61399 0.2072 0.0
H333 H 0.82011 0.60123 0.26886 0.0
C334 C 0.12503 0.80846 0.48654 0.0
C335 C 0.12654 0.78081 0.45067 0.0
C336 C 0.15945 0.84221 0.50383 0.0
C337 C 0.19624 0.84825 0.48515 0.0
C338 C 0.19796 0.8207 0.44841 0.0
C339 C 0.16307 0.78739 0.43141 0.0
C340 C 0.15649 0.87117 0.54262 0.0
C341 C 0.23668 0.82605 0.42785 0.0
C342 C 0.28604 0.95007 0.49083 0.0
C343 C 0.30439 0.94797 0.54047 0.0
C344 C 0.25046 0.91805 0.47281 0.0
C345 C 0.23305 0.88299 0.5049 0.0
C346 C 0.25124 0.88077 0.55528 0.0
C347 C 0.28661 0.91338 0.57262 0.0
C348 C 0.23171 0.92161 0.41916 0.0
C349 C 0.23367 0.84373 0.59036 0.0
H350 H 0.09691 0.80366 0.50144 0.0
H351 H 0.16451 0.76612 0.4038 0.0
H352 H 0.17131 0.87311 0.58337 0.0
H353 H 0.1717 0.90084 0.5233 0.0
H354 H 0.12561 0.86288 0.55167 0.0
H355 H 0.23293 0.80223 0.39872 0.0
H356 H 0.25354 0.85451 0.40546 0.0
H357 H 0.25451 0.82675 0.46458 0.0
H358 H 0.29952 0.97678 0.46588 0.0
H359 H 0.30066 0.91148 0.61092 0.0
H360 H 0.20131 0.91491 0.4281 0.0
H361 H 0.22988 0.89993 0.38746 0.0
H362 H 0.2483 0.95137 0.40017 0.0
H363 H 0.20345 0.83539 0.60365 0.0
H364 H 0.2512 0.84698 0.62885 0.0
H365 H 0.23165 0.81923 0.56451 0.0
C366 C 0.41197 0.28797 0.7663 0.0
C367 C 0.38841 0.30119 0.74155 0.0
C368 C 0.41106 0.25388 0.74663 0.0
C369 C 0.38576 0.23241 0.70146 0.0
C370 C 0.36094 0.24486 0.67762 0.0
C371 C 0.36265 0.27917 0.69783 0.0
C372 C 0.43803 0.24152 0.77298 0.0
C373 C 0.3333 0.2225 0.62977 0.0
C374 C 0.41273 0.17024 0.60961 0.0
C375 C 0.38833 0.1326 0.63177 0.0
C376 C 0.41221 0.20297 0.63204 0.0
C377 C 0.38647 0.19789 0.67745 0.0
C378 C 0.36148 0.15995 0.69965 0.0
C379 C 0.3628 0.12775 0.67666 0.0
C380 C 0.43942 0.24304 0.6074 0.0
C381 C 0.33343 0.1534 0.74774 0.0
H382 H 0.43197 0.30484 0.80005 0.0
H383 H 0.34416 0.28905 0.67869 0.0
H384 H 0.42097 0.21069 0.78774 0.0
H385 H 0.45928 0.24294 0.74074 0.0
H386 H 0.45462 0.26039 0.80942 0.0
H387 H 0.31431 0.23477 0.61819 0.0
H388 H 0.35035 0.22329 0.59176 0.0
H389 H 0.31433 0.19125 0.64172 0.0
H390 H 0.43262 0.17425 0.57505 0.0
H391 H 0.34378 0.09875 0.69394 0.0
H392 H 0.45904 0.26285 0.64096 0.0
H393 H 0.42219 0.25614 0.59107 0.0
H394 H 0.45778 0.24201 0.57233 0.0
H395 H 0.34994 0.17039 0.7855 0.0
H396 H 0.31563 0.12198 0.75975 0.0
H397 H 0.31331 0.16417 0.73559 0.0
C398 C 0.10566 0.37935 0.82733 0.0
C399 C 0.09454 0.37308 0.88467 0.0
C400 C 0.13866 0.37809 0.80799 0.0
C401 C 0.1613 0.37061 0.84696 0.0
C402 C 0.15009 0.36387 0.90481 0.0
C403 C 0.11671 0.36505 0.92298 0.0
C404 C 0.14953 0.38517 0.74589 0.0
C405 C 0.1737 0.35601 0.9476 0.0
C406 C 0.22923 0.33689 0.78761 0.0
C407 C 0.26526 0.37211 0.78626 0.0
C408 C 0.19516 0.33588 0.80769 0.0
C409 C 0.19727 0.37088 0.82719 0.0
C410 C 0.23358 0.40647 0.82627 0.0
C411 C 0.2671 0.40669 0.80563 0.0
C412 C 0.15686 0.29744 0.80759 0.0
C413 C 0.23699 0.44437 0.84691 0.0
H414 H 0.0886 0.38539 0.79733 0.0
H415 H 0.10834 0.36023 0.96734 0.0
H416 H 0.17891 0.41164 0.74091 0.0
H417 H 0.15127 0.36006 0.72786 0.0
H418 H 0.12812 0.38936 0.7208 0.0
H419 H 0.16058 0.35051 0.99075 0.0
H420 H 0.17601 0.33021 0.93437 0.0
H421 H 0.20395 0.38146 0.94958 0.0
H422 H 0.22754 0.31005 0.77271 0.0
H423 H 0.29485 0.434 0.80502 0.0
H424 H 0.13528 0.29991 0.78043 0.0
H425 H 0.1444 0.29038 0.85108 0.0
H426 H 0.16029 0.27274 0.79183 0.0
H427 H 0.21814 0.45169 0.82093 0.0
H428 H 0.26758 0.46931 0.84482 0.0
H429 H 0.22647 0.44101 0.89138 0.0
C430 C 0.87656 0.27654 0.93291 0.0
C431 C 0.9099 0.27458 0.91714 0.0
C432 C 0.84297 0.24349 0.95411 0.0
C433 C 0.84275 0.20765 0.95997 0.0
C434 C 0.87614 0.20534 0.94371 0.0
C435 C 0.90929 0.23881 0.92231 0.0
C436 C 0.80777 0.24698 0.97056 0.0
C437 C 0.877 0.16761 0.94949 0.0
C438 C 0.76926 0.13243 0.06303 0.0
C439 C 0.73955 0.10666 0.02629 0.0
C440 C 0.80322 0.16526 0.04198 0.0
C441 C 0.80745 0.17251 0.98286 0.0
C442 C 0.77768 0.1465 0.94556 0.0
C443 C 0.74415 0.11388 0.9677 0.0
C444 C 0.83447 0.19233 0.083 0.0
C445 C 0.78106 0.15333 0.88228 0.0
H446 H 0.87674 0.30404 0.92898 0.0
H447 H 0.93495 0.23705 0.91043 0.0
H448 H 0.78171 0.22555 0.94623 0.0
H449 H 0.80093 0.2399 0.01616 0.0
H450 H 0.8125 0.27685 0.96276 0.0
H451 H 0.90521 0.17066 0.9348 0.0
H452 H 0.87227 0.15805 0.99445 0.0
H453 H 0.85284 0.14403 0.92459 0.0
H454 H 0.76597 0.12704 0.10831 0.0
H455 H 0.72134 0.09416 0.93893 0.0
H456 H 0.83855 0.22224 0.07992 0.0
H457 H 0.86292 0.1946 0.07189 0.0
H458 H 0.82708 0.18215 0.1276 0.0
H459 H 0.78355 0.18205 0.87269 0.0
H460 H 0.75547 0.13007 0.85902 0.0
H461 H 0.80805 0.15445 0.866 0.0
loop_
_geom_bond_atom_site_label_1
_geom_bond_atom_site_label_2
_geom_bond_distance
_geom_bond_site_symmetry_2
_ccdc_geom_bond_type
C0 O1 1.160 . S
C0 O7 1.185 . S
O1 C0 1.160 . S
O2 Zn3 1.899 . S
O2 C10 1.284 . S
Zn3 O2 1.899 . S
Zn3 O4 2.032 . S
Zn3 O7 2.086 1_545 S
Zn3 O12 1.981 1_544 S
O4 Zn3 2.032 . S
O4 C8 1.278 . S
C5 O6 1.203 . S
C5 O12 1.244 1_545 S
O6 C5 1.203 . S
O7 C0 1.185 . S
O7 Zn3 2.086 1_565 S
C8 O4 1.278 . S
C8 O9 1.211 . S
O9 C8 1.211 . S
C10 O2 1.284 . S
C10 O11 1.273 . S
O11 C10 1.273 . S
O12 Zn3 1.981 1_566 S
O12 C5 1.244 1_565 S
C13 O14 1.160 . S
C13 O20 1.185 . S
O14 C13 1.160 . S
O15 Zn16 1.899 . S
O15 C23 1.284 . S
Zn16 O15 1.899 . S
Zn16 O17 2.032 . S
Zn16 O20 2.086 . S
Zn16 O25 1.977 . S
O17 Zn16 2.032 . S
O17 C21 1.278 . S
C18 O19 1.203 . S
C18 O25 1.267 . S
O19 C18 1.203 . S
O20 C13 1.185 . S
O20 Zn16 2.086 . S
C21 O17 1.278 . S
C21 O22 1.211 . S
O22 C21 1.211 . S
C23 O15 1.284 . S
C23 O24 1.273 . S
O24 C23 1.273 . S
O25 Zn16 1.977 . S
O25 C18 1.267 . S
C26 O27 1.160 . S
C26 O33 1.185 . S
O27 C26 1.160 . S
O28 Zn29 1.899 . S
O28 C36 1.284 1_455 S
Zn29 O28 1.899 . S
Zn29 O30 2.032 . S
Zn29 O33 2.086 . S
Zn29 O38 1.977 . S
O30 Zn29 2.032 . S
O30 C34 1.278 . S
C31 O32 1.203 1_455 S
C31 O38 1.267 . S
O32 C31 1.203 1_655 S
O33 C26 1.185 . S
O33 Zn29 2.086 . S
C34 O30 1.278 . S
C34 O35 1.211 . S
O35 C34 1.211 . S
C36 O28 1.284 1_655 S
C36 O37 1.273 . S
O37 C36 1.273 . S
O38 Zn29 1.977 . S
O38 C31 1.267 . S
C39 O40 1.160 . S
C39 O46 1.185 . S
O40 C39 1.160 . S
O41 Zn42 1.899 . S
O41 C49 1.284 1_545 S
Zn42 O41 1.899 . S
Zn42 O43 2.032 . S
Zn42 O46 2.086 . S
Zn42 O51 1.977 . S
O43 Zn42 2.032 . S
O43 C47 1.278 . S
C44 O45 1.203 1_545 S
C44 O51 1.267 . S
O45 C44 1.203 1_565 S
O46 C39 1.185 . S
O46 Zn42 2.086 . S
C47 O43 1.278 . S
C47 O48 1.211 . S
O48 C47 1.211 . S
C49 O41 1.284 1_565 S
C49 O50 1.273 . S
O50 C49 1.273 . S
O51 Zn42 1.977 . S
O51 C44 1.267 . S
C52 O53 1.160 . S
C52 O59 1.185 . S
O53 C52 1.160 . S
O54 Zn55 1.899 . S
O54 C62 1.284 . S
Zn55 O54 1.899 . S
Zn55 O56 2.032 . S
Zn55 O59 2.086 . S
Zn55 O64 1.977 . S
O56 Zn55 2.032 . S
O56 C60 1.278 . S
C57 O58 1.203 . S
C57 O64 1.267 . S
O58 C57 1.203 . S
O59 C52 1.185 . S
O59 Zn55 2.086 . S
C60 O56 1.278 . S
C60 O61 1.211 . S
O61 C60 1.211 . S
C62 O54 1.284 . S
C62 O63 1.273 . S
O63 C62 1.273 . S
O64 Zn55 1.977 . S
O64 C57 1.267 . S
C65 O66 1.160 . S
C65 O72 1.185 . S
O66 C65 1.160 . S
O67 Zn68 1.899 . S
O67 C75 1.284 . S
Zn68 O67 1.899 . S
Zn68 O69 2.032 . S
Zn68 O72 2.086 1_455 S
Zn68 O77 1.977 1_455 S
O69 Zn68 2.032 . S
O69 C73 1.278 . S
C70 O71 1.203 . S
C70 O77 1.267 1_455 S
O71 C70 1.203 . S
O72 C65 1.185 . S
O72 Zn68 2.086 1_655 S
C73 O69 1.278 . S
C73 O74 1.211 . S
O74 C73 1.211 . S
C75 O67 1.284 . S
C75 O76 1.273 . S
O76 C75 1.273 . S
O77 Zn68 1.977 1_655 S
O77 C70 1.267 1_655 S
C78 C79 1.391 . S
C78 C80 1.394 . S
C78 H94 0.931 1_545 S
C79 C78 1.391 . S
C79 C83 1.376 . S
C80 C78 1.394 . S
C80 C81 1.369 . S
C80 C84 1.531 1_545 S
C81 C80 1.369 . S
C81 C82 1.410 . S
C81 C89 1.503 . S
C82 C81 1.410 . S
C82 C83 1.392 . S
C82 C85 1.511 . S
C83 C79 1.376 . S
C83 C82 1.392 . S
C83 H95 0.929 . S
C84 C80 1.531 1_565 S
C84 H96 0.960 . S
C84 H97 0.962 . S
C84 H98 0.960 . S
C85 C82 1.511 . S
C85 H99 0.961 . S
C85 H100 0.961 . S
C85 H101 0.961 . S
C86 C87 1.370 . S
C86 C88 1.363 . S
C86 H102 0.931 . S
C87 C86 1.370 . S
C87 C91 1.408 . S
C88 C86 1.363 . S
C88 C89 1.370 . S
C88 C92 1.524 . S
C89 C81 1.503 . S
C89 C88 1.370 . S
C89 C90 1.403 . S
C90 C89 1.403 . S
C90 C91 1.404 . S
C90 C93 1.539 . S
C91 C87 1.408 . S
C91 C90 1.404 . S
C91 H103 0.930 . S
C92 C88 1.524 . S
C92 H104 0.956 1_545 S
C92 H105 0.961 . S
C92 H106 0.971 1_545 S
C93 C90 1.539 . S
C93 H107 0.958 . S
C93 H108 0.961 . S
C93 H109 0.960 . S
H94 C78 0.931 1_565 S
H95 C83 0.929 . S
H96 C84 0.960 . S
H97 C84 0.962 . S
H98 C84 0.960 . S
H99 C85 0.961 . S
H100 C85 0.961 . S
H101 C85 0.961 . S
H102 C86 0.931 . S
H103 C91 0.930 . S
H104 C92 0.956 1_565 S
H105 C92 0.961 . S
H106 C92 0.971 1_565 S
H107 C93 0.958 . S
H108 C93 0.961 . S
H109 C93 0.960 . S
C110 C111 1.391 . S
C110 C112 1.394 . S
C110 H126 0.931 . S
C111 C110 1.391 . S
C111 C115 1.376 . S
C112 C110 1.394 . S
C112 C113 1.369 . S
C112 C116 1.531 . S
C113 C112 1.369 . S
C113 C114 1.410 . S
C113 C121 1.503 . S
C114 C113 1.410 . S
C114 C115 1.392 . S
C114 C117 1.511 . S
C115 C111 1.376 . S
C115 C114 1.392 . S
C115 H127 0.929 . S
C116 C112 1.531 . S
C116 H128 0.960 . S
C116 H129 0.962 . S
C116 H130 0.960 . S
C117 C114 1.511 . S
C117 H131 0.961 . S
C117 H132 0.961 . S
C117 H133 0.961 . S
C118 C119 1.370 . S
C118 C120 1.363 . S
C118 H134 0.931 . S
C119 C118 1.370 . S
C119 C123 1.408 . S
C120 C118 1.363 . S
C120 C121 1.370 . S
C120 C124 1.524 . S
C121 C113 1.503 . S
C121 C120 1.370 . S
C121 C122 1.403 . S
C122 C121 1.403 . S
C122 C123 1.404 . S
C122 C125 1.539 . S
C123 C119 1.408 . S
C123 C122 1.404 . S
C123 H135 0.930 . S
C124 C120 1.524 . S
C124 H136 0.956 . S
C124 H137 0.961 . S
C124 H138 0.961 . S
C125 C122 1.539 . S
C125 H139 0.958 . S
C125 H140 0.961 . S
C125 H141 0.960 . S
H126 C110 0.931 . S
H127 C115 0.929 . S
H128 C116 0.960 . S
H129 C116 0.962 . S
H130 C116 0.960 . S
H131 C117 0.961 . S
H132 C117 0.961 . S
H133 C117 0.961 . S
H134 C118 0.931 . S
H135 C123 0.930 . S
H136 C124 0.956 . S
H137 C124 0.961 . S
H138 C124 0.961 . S
H139 C125 0.958 . S
H140 C125 0.961 . S
H141 C125 0.960 . S
C142 C143 1.391 . S
C142 C144 1.394 . S
C142 H158 0.931 . S
C143 C142 1.391 . S
C143 C147 1.376 1_455 S
C144 C142 1.394 . S
C144 C145 1.369 . S
C144 C148 1.531 . S
C145 C144 1.369 . S
C145 C146 1.410 1_455 S
C145 C153 1.503 . S
C146 C145 1.410 1_655 S
C146 C147 1.392 . S
C146 C149 1.511 . S
C147 C143 1.376 1_655 S
C147 C146 1.392 . S
C147 H159 0.929 . S
C148 C144 1.531 . S
C148 H160 0.960 . S
C148 H161 0.962 . S
C148 H162 0.960 . S
C149 C146 1.511 . S
C149 H163 0.961 . S
C149 H164 0.961 . S
C149 H165 0.961 . S
C150 C151 1.370 . S
C150 C152 1.363 . S
C150 H166 0.931 . S
C151 C150 1.370 . S
C151 C155 1.408 . S
C152 C150 1.363 . S
C152 C153 1.370 . S
C152 C156 1.524 . S
C153 C145 1.503 . S
C153 C152 1.370 . S
C153 C154 1.403 . S
C154 C153 1.403 . S
C154 C155 1.404 . S
C154 C157 1.539 1_455 S
C155 C151 1.408 . S
C155 C154 1.404 . S
C155 H167 0.930 . S
C156 C152 1.524 . S
C156 H168 0.956 . S
C156 H169 0.961 . S
C156 H170 0.961 . S
C157 C154 1.539 1_655 S
C157 H171 0.958 1_655 S
C157 H172 0.961 . S
C157 H173 0.960 . S
H158 C142 0.931 . S
H159 C147 0.929 . S
H160 C148 0.960 . S
H161 C148 0.962 . S
H162 C148 0.960 . S
H163 C149 0.961 . S
H164 C149 0.961 . S
H165 C149 0.961 . S
H166 C150 0.931 . S
H167 C155 0.930 . S
H168 C156 0.956 . S
H169 C156 0.961 . S
H170 C156 0.961 . S
H171 C157 0.958 1_455 S
H172 C157 0.961 . S
H173 C157 0.960 . S
C174 C175 1.391 . S
C174 C176 1.394 . S
C174 H190 0.931 . S
C175 C174 1.391 . S
C175 C179 1.376 1_545 S
C176 C174 1.394 . S
C176 C177 1.369 . S
C176 C180 1.531 . S
C177 C176 1.369 . S
C177 C178 1.410 1_545 S
C177 C185 1.503 . S
C178 C177 1.410 1_565 S
C178 C179 1.392 . S
C178 C181 1.511 . S
C179 C175 1.376 1_565 S
C179 C178 1.392 . S
C179 H191 0.929 . S
C180 C176 1.531 . S
C180 H192 0.960 . S
C180 H193 0.962 . S
C180 H194 0.960 . S
C181 C178 1.511 . S
C181 H195 0.961 . S
C181 H196 0.961 . S
C181 H197 0.961 . S
C182 C183 1.370 . S
C182 C184 1.363 . S
C182 H198 0.931 . S
C183 C182 1.370 . S
C183 C187 1.408 1_545 S
C184 C182 1.363 . S
C184 C185 1.370 . S
C184 C188 1.524 . S
C185 C177 1.503 . S
C185 C184 1.370 . S
C185 C186 1.403 1_545 S
C186 C185 1.403 1_565 S
C186 C187 1.404 . S
C186 C189 1.539 . S
C187 C183 1.408 1_565 S
C187 C186 1.404 . S
C187 H199 0.930 . S
C188 C184 1.524 . S
C188 H200 0.956 . S
C188 H201 0.961 . S
C188 H202 0.961 . S
C189 C186 1.539 . S
C189 H203 0.958 . S
C189 H204 0.961 . S
C189 H205 0.960 . S
H190 C174 0.931 . S
H191 C179 0.929 . S
H192 C180 0.960 . S
H193 C180 0.962 . S
H194 C180 0.960 . S
H195 C181 0.961 . S
H196 C181 0.961 . S
H197 C181 0.961 . S
H198 C182 0.931 . S
H199 C187 0.930 . S
H200 C188 0.956 . S
H201 C188 0.961 . S
H202 C188 0.961 . S
H203 C189 0.958 . S
H204 C189 0.961 . S
H205 C189 0.960 . S
C206 C207 1.391 . S
C206 C208 1.394 1_554 S
C206 H222 0.931 . S
C207 C206 1.391 . S
C207 C211 1.376 . S
C208 C206 1.394 1_556 S
C208 C209 1.369 . S
C208 C212 1.531 . S
C209 C208 1.369 . S
C209 C210 1.410 1_556 S
C209 C217 1.503 . S
C210 C209 1.410 1_554 S
C210 C211 1.392 . S
C210 C213 1.511 . S
C211 C207 1.376 . S
C211 C210 1.392 . S
C211 H223 0.929 . S
C212 C208 1.531 . S
C212 H224 0.960 . S
C212 H225 0.962 . S
C212 H226 0.960 . S
C213 C210 1.511 . S
C213 H227 0.961 . S
C213 H228 0.961 . S
C213 H229 0.961 . S
C214 C215 1.370 . S
C214 C216 1.363 . S
C214 H230 0.931 . S
C215 C214 1.370 . S
C215 C219 1.408 . S
C216 C214 1.363 . S
C216 C217 1.370 . S
C216 C220 1.524 1_556 S
C217 C209 1.503 . S
C217 C216 1.370 . S
C217 C218 1.403 . S
C218 C217 1.403 . S
C218 C219 1.404 . S
C218 C221 1.539 . S
C219 C215 1.408 . S
C219 C218 1.404 . S
C219 H231 0.930 . S
C220 C216 1.524 1_554 S
C220 H232 0.956 . S
C220 H233 0.961 . S
C220 H234 0.961 . S
C221 C218 1.539 . S
C221 H235 0.958 . S
C221 H236 0.961 . S
C221 H237 0.960 . S
H222 C206 0.931 . S
H223 C211 0.929 . S
H224 C212 0.960 . S
H225 C212 0.962 . S
H226 C212 0.960 . S
H227 C213 0.961 . S
H228 C213 0.961 . S
H229 C213 0.961 . S
H230 C214 0.931 . S
H231 C219 0.930 . S
H232 C220 0.956 . S
H233 C220 0.961 . S
H234 C220 0.961 . S
H235 C221 0.958 . S
H236 C221 0.961 . S
H237 C221 0.960 . S
C238 C239 1.391 . S
C238 C240 1.394 . S
C238 H254 0.931 . S
C239 C238 1.391 . S
C239 C243 1.376 1_455 S
C240 C238 1.394 . S
C240 C241 1.369 . S
C240 C244 1.531 . S
C241 C240 1.369 . S
C241 C242 1.410 . S
C241 C249 1.503 . S
C242 C241 1.410 . S
C242 C243 1.392 1_455 S
C242 C245 1.511 1_455 S
C243 C239 1.376 1_655 S
C243 C242 1.392 1_655 S
C243 H255 0.929 . S
C244 C240 1.531 . S
C244 H256 0.960 . S
C244 H257 0.962 . S
C244 H258 0.960 . S
C245 C242 1.511 1_655 S
C245 H259 0.961 . S
C245 H260 0.961 . S
C245 H261 0.961 . S
C246 C247 1.370 . S
C246 C248 1.363 . S
C246 H262 0.931 . S
C247 C246 1.370 . S
C247 C251 1.408 . S
C248 C246 1.363 . S
C248 C249 1.370 . S
C248 C252 1.524 . S
C249 C241 1.503 . S
C249 C248 1.370 . S
C249 C250 1.403 . S
C250 C249 1.403 . S
C250 C251 1.404 . S
C250 C253 1.539 . S
C251 C247 1.408 . S
C251 C250 1.404 . S
C251 H263 0.930 . S
C252 C248 1.524 . S
C252 H264 0.956 . S
C252 H265 0.961 1_455 S
C252 H266 0.961 1_455 S
C253 C250 1.539 . S
C253 H267 0.958 . S
C253 H268 0.961 . S
C253 H269 0.960 . S
H254 C238 0.931 . S
H255 C243 0.929 . S
H256 C244 0.960 . S
H257 C244 0.962 . S
H258 C244 0.960 . S
H259 C245 0.961 . S
H260 C245 0.961 . S
H261 C245 0.961 . S
H262 C246 0.931 . S
H263 C251 0.930 . S
H264 C252 0.956 . S
H265 C252 0.961 1_655 S
H266 C252 0.961 1_655 S
H267 C253 0.958 . S
H268 C253 0.961 . S
H269 C253 0.960 . S
C270 C271 1.391 . S
C270 C272 1.394 . S
C270 H286 0.931 . S
C271 C270 1.391 . S
C271 C275 1.376 . S
C272 C270 1.394 . S
C272 C273 1.369 . S
C272 C276 1.531 . S
C273 C272 1.369 . S
C273 C274 1.410 . S
C273 C281 1.503 . S
C274 C273 1.410 . S
C274 C275 1.392 . S
C274 C277 1.511 . S
C275 C271 1.376 . S
C275 C274 1.392 . S
C275 H287 0.929 . S
C276 C272 1.531 . S
C276 H288 0.960 . S
C276 H289 0.962 . S
C276 H290 0.960 . S
C277 C274 1.511 . S
C277 H291 0.961 . S
C277 H292 0.961 . S
C277 H293 0.961 . S
C278 C279 1.370 . S
C278 C280 1.363 . S
C278 H294 0.931 . S
C279 C278 1.370 . S
C279 C283 1.408 . S
C280 C278 1.363 . S
C280 C281 1.370 . S
C280 C284 1.524 . S
C281 C273 1.503 . S
C281 C280 1.370 . S
C281 C282 1.403 . S
C282 C281 1.403 . S
C282 C283 1.404 . S
C282 C285 1.539 . S
C283 C279 1.408 . S
C283 C282 1.404 . S
C283 H295 0.930 . S
C284 C280 1.524 . S
C284 H296 0.956 . S
C284 H297 0.961 . S
C284 H298 0.961 . S
C285 C282 1.539 . S
C285 H299 0.958 . S
C285 H300 0.961 . S
C285 H301 0.960 . S
H286 C270 0.931 . S
H287 C275 0.929 . S
H288 C276 0.960 . S
H289 C276 0.962 . S
H290 C276 0.960 . S
H291 C277 0.961 . S
H292 C277 0.961 . S
H293 C277 0.961 . S
H294 C278 0.931 . S
H295 C283 0.930 . S
H296 C284 0.956 . S
H297 C284 0.961 . S
H298 C284 0.961 . S
H299 C285 0.958 . S
H300 C285 0.961 . S
H301 C285 0.960 . S
C302 C303 1.391 . S
C302 C304 1.394 . S
C302 H318 0.931 . S
C303 C302 1.391 . S
C303 C307 1.376 . S
C304 C302 1.394 . S
C304 C305 1.369 . S
C304 C308 1.531 . S
C305 C304 1.369 . S
C305 C306 1.410 . S
C305 C313 1.503 . S
C306 C305 1.410 . S
C306 C307 1.392 . S
C306 C309 1.511 . S
C307 C303 1.376 . S
C307 C306 1.392 . S
C307 H319 0.929 . S
C308 C304 1.531 . S
C308 H320 0.960 . S
C308 H321 0.962 . S
C308 H322 0.960 . S
C309 C306 1.511 . S
C309 H323 0.961 . S
C309 H324 0.961 . S
C309 H325 0.961 . S
C310 C311 1.370 . S
C310 C312 1.363 . S
C310 H326 0.931 . S
C311 C310 1.370 . S
C311 C315 1.408 . S
C312 C310 1.363 . S
C312 C313 1.370 . S
C312 C316 1.524 . S
C313 C305 1.503 . S
C313 C312 1.370 . S
C313 C314 1.403 . S
C314 C313 1.403 . S
C314 C315 1.404 . S
C314 C317 1.539 . S
C315 C311 1.408 . S
C315 C314 1.404 . S
C315 H327 0.930 . S
C316 C312 1.524 . S
C316 H328 0.956 . S
C316 H329 0.961 . S
C316 H330 0.961 . S
C317 C314 1.539 . S
C317 H331 0.958 . S
C317 H332 0.961 . S
C317 H333 0.960 . S
H318 C302 0.931 . S
H319 C307 0.929 . S
H320 C308 0.960 . S
H321 C308 0.962 . S
H322 C308 0.960 . S
H323 C309 0.961 . S
H324 C309 0.961 . S
H325 C309 0.961 . S
H326 C310 0.931 . S
H327 C315 0.930 . S
H328 C316 0.956 . S
H329 C316 0.961 . S
H330 C316 0.961 . S
H331 C317 0.958 . S
H332 C317 0.961 . S
H333 C317 0.960 . S
C334 C335 1.391 . S
C334 C336 1.394 . S
C334 H350 0.931 . S
C335 C334 1.391 . S
C335 C339 1.376 . S
C336 C334 1.394 . S
C336 C337 1.369 . S
C336 C340 1.531 . S
C337 C336 1.369 . S
C337 C338 1.410 . S
C337 C345 1.503 . S
C338 C337 1.410 . S
C338 C339 1.392 . S
C338 C341 1.511 . S
C339 C335 1.376 . S
C339 C338 1.392 . S
C339 H351 0.929 . S
C340 C336 1.531 . S
C340 H352 0.960 . S
C340 H353 0.962 . S
C340 H354 0.960 . S
C341 C338 1.511 . S
C341 H355 0.961 . S
C341 H356 0.961 . S
C341 H357 0.961 . S
C342 C343 1.370 . S
C342 C344 1.363 . S
C342 H358 0.931 . S
C343 C342 1.370 . S
C343 C347 1.408 . S
C344 C342 1.363 . S
C344 C345 1.370 . S
C344 C348 1.524 . S
C345 C337 1.503 . S
C345 C344 1.370 . S
C345 C346 1.403 . S
C346 C345 1.403 . S
C346 C347 1.404 . S
C346 C349 1.539 . S
C347 C343 1.408 . S
C347 C346 1.404 . S
C347 H359 0.930 . S
C348 C344 1.524 . S
C348 H360 0.956 . S
C348 H361 0.961 . S
C348 H362 0.961 . S
C349 C346 1.539 . S
C349 H363 0.958 . S
C349 H364 0.961 . S
C349 H365 0.960 . S
H350 C334 0.931 . S
H351 C339 0.929 . S
H352 C340 0.960 . S
H353 C340 0.962 . S
H354 C340 0.960 . S
H355 C341 0.961 . S
H356 C341 0.961 . S
H357 C341 0.961 . S
H358 C342 0.931 . S
H359 C347 0.930 . S
H360 C348 0.956 . S
H361 C348 0.961 . S
H362 C348 0.961 . S
H363 C349 0.958 . S
H364 C349 0.961 . S
H365 C349 0.960 . S
C366 C367 1.391 . S
C366 C368 1.394 . S
C366 H382 0.931 . S
C367 C366 1.391 . S
C367 C371 1.376 . S
C368 C366 1.394 . S
C368 C369 1.369 . S
C368 C372 1.531 . S
C369 C368 1.369 . S
C369 C370 1.410 . S
C369 C377 1.503 . S
C370 C369 1.410 . S
C370 C371 1.392 . S
C370 C373 1.511 . S
C371 C367 1.376 . S
C371 C370 1.392 . S
C371 H383 0.929 . S
C372 C368 1.531 . S
C372 H384 0.960 . S
C372 H385 0.962 . S
C372 H386 0.960 . S
C373 C370 1.511 . S
C373 H387 0.961 . S
C373 H388 0.961 . S
C373 H389 0.961 . S
C374 C375 1.370 . S
C374 C376 1.363 . S
C374 H390 0.931 . S
C375 C374 1.370 . S
C375 C379 1.408 . S
C376 C374 1.363 . S
C376 C377 1.370 . S
C376 C380 1.524 . S
C377 C369 1.503 . S
C377 C376 1.370 . S
C377 C378 1.403 . S
C378 C377 1.403 . S
C378 C379 1.404 . S
C378 C381 1.539 . S
C379 C375 1.408 . S
C379 C378 1.404 . S
C379 H391 0.930 . S
C380 C376 1.524 . S
C380 H392 0.956 . S
C380 H393 0.961 . S
C380 H394 0.961 . S
C381 C378 1.539 . S
C381 H395 0.958 . S
C381 H396 0.961 . S
C381 H397 0.960 . S
H382 C366 0.931 . S
H383 C371 0.929 . S
H384 C372 0.960 . S
H385 C372 0.962 . S
H386 C372 0.960 . S
H387 C373 0.961 . S
H388 C373 0.961 . S
H389 C373 0.961 . S
H390 C374 0.931 . S
H391 C379 0.930 . S
H392 C380 0.956 . S
H393 C380 0.961 . S
H394 C380 0.961 . S
H395 C381 0.958 . S
H396 C381 0.961 . S
H397 C381 0.960 . S
C398 C399 1.391 . S
C398 C400 1.394 . S
C398 H414 0.931 . S
C399 C398 1.391 . S
C399 C403 1.376 . S
C400 C398 1.394 . S
C400 C401 1.369 . S
C400 C404 1.531 . S
C401 C400 1.369 . S
C401 C402 1.410 . S
C401 C409 1.503 . S
C402 C401 1.410 . S
C402 C403 1.392 . S
C402 C405 1.511 . S
C403 C399 1.376 . S
C403 C402 1.392 . S
C403 H415 0.929 . S
C404 C400 1.531 . S
C404 H416 0.960 . S
C404 H417 0.962 . S
C404 H418 0.960 . S
C405 C402 1.511 . S
C405 H419 0.961 . S
C405 H420 0.961 . S
C405 H421 0.961 . S
C406 C407 1.370 . S
C406 C408 1.363 . S
C406 H422 0.931 . S
C407 C406 1.370 . S
C407 C411 1.408 . S
C408 C406 1.363 . S
C408 C409 1.370 . S
C408 C412 1.524 . S
C409 C401 1.503 . S
C409 C408 1.370 . S
C409 C410 1.403 . S
C410 C409 1.403 . S
C410 C411 1.404 . S
C410 C413 1.539 . S
C411 C407 1.408 . S
C411 C410 1.404 . S
C411 H423 0.930 . S
C412 C408 1.524 . S
C412 H424 0.956 . S
C412 H425 0.961 . S
C412 H426 0.961 . S
C413 C410 1.539 . S
C413 H427 0.958 . S
C413 H428 0.961 . S
C413 H429 0.960 . S
H414 C398 0.931 . S
H415 C403 0.929 . S
H416 C404 0.960 . S
H417 C404 0.962 . S
H418 C404 0.960 . S
H419 C405 0.961 . S
H420 C405 0.961 . S
H421 C405 0.961 . S
H422 C406 0.931 . S
H423 C411 0.930 . S
H424 C412 0.956 . S
H425 C412 0.961 . S
H426 C412 0.961 . S
H427 C413 0.958 . S
H428 C413 0.961 . S
H429 C413 0.960 . S
C430 C431 1.391 . S
C430 C432 1.394 . S
C430 H446 0.931 . S
C431 C430 1.391 . S
C431 C435 1.376 . S
C432 C430 1.394 . S
C432 C433 1.369 . S
C432 C436 1.531 . S
C433 C432 1.369 . S
C433 C434 1.410 . S
C433 C441 1.503 . S
C434 C433 1.410 . S
C434 C435 1.392 . S
C434 C437 1.511 1_556 S
C435 C431 1.376 . S
C435 C434 1.392 . S
C435 H447 0.929 . S
C436 C432 1.531 . S
C436 H448 0.960 . S
C436 H449 0.962 . S
C436 H450 0.960 . S
C437 C434 1.511 1_554 S
C437 H451 0.961 . S
C437 H452 0.961 . S
C437 H453 0.961 1_554 S
C438 C439 1.370 . S
C438 C440 1.363 . S
C438 H454 0.931 . S
C439 C438 1.370 . S
C439 C443 1.408 1_554 S
C440 C438 1.363 . S
C440 C441 1.370 1_554 S
C440 C444 1.524 . S
C441 C433 1.503 . S
C441 C440 1.370 1_556 S
C441 C442 1.403 . S
C442 C441 1.403 . S
C442 C443 1.404 . S
C442 C445 1.539 . S
C443 C439 1.408 1_556 S
C443 C442 1.404 . S
C443 H455 0.930 . S
C444 C440 1.524 . S
C444 H456 0.956 . S
C444 H457 0.961 . S
C444 H458 0.961 . S
C445 C442 1.539 . S
C445 H459 0.958 . S
C445 H460 0.961 . S
C445 H461 0.960 . S
H446 C430 0.931 . S
H447 C435 0.929 . S
H448 C436 0.960 . S
H449 C436 0.962 . S
H450 C436 0.960 . S
H451 C437 0.961 . S
H452 C437 0.961 . S
H453 C437 0.961 1_556 S
H454 C438 0.931 . S
H455 C443 0.930 . S
H456 C444 0.956 . S
H457 C444 0.961 . S
H458 C444 0.961 . S
H459 C445 0.958 . S
H460 C445 0.961 . S
H461 C445 0.960 . S
C79 C8 1.405 . S
C87 C44 1.394 . S
C111 C21 1.391 . S
C119 C57 1.399 . S
C143 C70 1.396 . S
C151 C34 1.371 . S
C175 C5 1.411 . S
C183 C47 1.379 . S
C207 C18 1.406 . S
C215 C60 1.374 . S
C239 C73 1.352 1_554 S
C247 C31 1.393 . S
C271 C23 1.403 . S
C279 C0 1.405 . S
C303 C36 1.405 . S
C311 C13 1.413 . S
C335 C26 1.419 . S
C343 C49 1.406 . S
C367 C62 1.416 . S
C375 C39 1.400 . S
C399 C75 1.395 . S
C407 C52 1.410 . S
C431 C65 1.398 . S
C439 C10 1.417 . S
