# Generated by pormake.
# Topology sml, (6)-cn, num edge types: 1
# Building blocks:
#     Node 0, Type 0, BuildingBlock: FUNLAD_clean_sbu_0, # of connection points: 6
#     Node 1, Type 0, BuildingBlock: FUNLAD_clean_sbu_0, # of connection points: 6
#     Node 2, Type 0, BuildingBlock: FUNLAD_clean_sbu_0, # of connection points: 6
#     Node 3, Type 0, BuildingBlock: FUNLAD_clean_sbu_0, # of connection points: 6
#     Node 4, Type 0, BuildingBlock: FUNLAD_clean_sbu_0, # of connection points: 6
#     Node 5, Type 0, BuildingBlock: FUNLAD_clean_sbu_0, # of connection points: 6
#     Edge 6, Type (0, 0), BuildingBlock: OJICUG_clean_linker_0, # of connection points: 2
#     Edge 7, Type (0, 0), BuildingBlock: OJICUG_clean_linker_0, # of connection points: 2
#     Edge 8, Type (0, 0), BuildingBlock: OJICUG_clean_linker_0, # of connection points: 2
#     Edge 9, Type (0, 0), BuildingBlock: OJICUG_clean_linker_0, # of connection points: 2
#     Edge 10, Type (0, 0), BuildingBlock: OJICUG_clean_linker_0, # of connection points: 2
#     Edge 11, Type (0, 0), BuildingBlock: OJICUG_clean_linker_0, # of connection points: 2
#     Edge 12, Type (0, 0), BuildingBlock: OJICUG_clean_linker_0, # of connection points: 2
#     Edge 13, Type (0, 0), BuildingBlock: OJICUG_clean_linker_0, # of connection points: 2
#     Edge 14, Type (0, 0), BuildingBlock: OJICUG_clean_linker_0, # of connection points: 2
#     Edge 15, Type (0, 0), BuildingBlock: OJICUG_clean_linker_0, # of connection points: 2
#     Edge 16, Type (0, 0), BuildingBlock: OJICUG_clean_linker_0, # of connection points: 2
#     Edge 17, Type (0, 0), BuildingBlock: OJICUG_clean_linker_0, # of connection points: 2
#     Edge 18, Type (0, 0), BuildingBlock: OJICUG_clean_linker_0, # of connection points: 2
#     Edge 19, Type (0, 0), BuildingBlock: OJICUG_clean_linker_0, # of connection points: 2
#     Edge 20, Type (0, 0), BuildingBlock: OJICUG_clean_linker_0, # of connection points: 2
#     Edge 21, Type (0, 0), BuildingBlock: OJICUG_clean_linker_0, # of connection points: 2
#     Edge 22, Type (0, 0), BuildingBlock: OJICUG_clean_linker_0, # of connection points: 2
#     Edge 23, Type (0, 0), BuildingBlock: OJICUG_clean_linker_0, # of connection points: 2
# Relax obj value: 0.429
# Max RMSD: 0.218
# Mean RMSD: 0.218
data_MOF--net-sml--node1-FUNLAD_clean_sbu_0--edge1-OJICUG_clean_linker_0
_symmetry_space_group_name_H-M    P1
_symmetry_Int_Tables_number       1
_symmetry_cell_setting            triclinic
loop_
_symmetry_equiv_pos_as_xyz
'x, y, z'
_cell_length_a     37.042817
_cell_length_b     37.041703
_cell_length_c     11.061944
_cell_angle_alpha  89.940735
_cell_angle_beta   89.819266
_cell_angle_gamma 119.98189
loop_
_atom_site_label
_atom_site_type_symbol
_atom_site_fract_x
_atom_site_fract_y
_atom_site_fract_z
_atom_type_partial_charge
C0 C 0.16445 0.40961 0.86482 0.0
N1 N 0.18033 0.32875 0.08786 0.0
C2 C 0.15631 0.29921 0.00534 0.0
C3 C 0.16792 0.27078 -0.03659 0.0
C4 C 0.20461 0.2731 0.0067 0.0
C5 C 0.22644 0.30128 0.1 0.0
C6 C 0.21374 0.32898 0.13932 0.0
Zn7 Zn 0.1755 0.38126 0.10779 0.0
C8 C 0.25878 0.45815 0.06777 0.0
N9 N 0.17002 0.49391 0.13182 0.0
C10 C 0.14005 0.50162 0.08869 0.0
C11 C 0.20107 0.52201 0.20387 0.0
C12 C 0.20356 0.55957 0.23306 0.0
C13 C 0.17384 0.5689 0.1885 0.0
C14 C 0.14132 0.5393 0.11655 0.0
Zn15 Zn 0.17151 0.43951 0.10756 0.0
O16 O 0.16641 0.38129 0.92372 0.0
C17 C 0.0882 0.36411 0.14642 0.0
O18 O 0.16497 0.43995 0.92025 0.0
H19 H 0.2241 0.51528 0.24032 0.0
H20 H 0.13005 0.29976 -0.03516 0.0
H21 H 0.11523 0.47864 0.03313 0.0
O22 O 0.1091 0.34529 0.13987 0.0
O23 O 0.10678 0.40343 0.13139 0.0
H24 H 0.23257 0.35284 0.20407 0.0
O25 O 0.17791 0.43787 0.29217 0.0
O26 O 0.18452 0.38225 0.295 0.0
O27 O 0.23647 0.47482 0.08348 0.0
O28 O 0.24196 0.41871 0.07312 0.0
C29 C 0.18248 0.41112 0.35082 0.0
H30 H 0.15033 0.24961 0.89112 0.0
H31 H 0.2546 0.30365 0.13684 0.0
H32 H 0.22882 0.58138 0.29007 0.0
H33 H 0.11787 0.5456 0.08047 0.0
C34 C 0.83983 0.2565 0.57505 0.0
N35 N 0.81522 0.15678 0.35096 0.0
C36 C 0.83837 0.14886 0.4308 0.0
C37 C 0.82482 0.108 0.46964 0.0
C38 C 0.78697 0.07515 0.42653 0.0
C39 C 0.76554 0.08395 0.33728 0.0
C40 C 0.78025 0.1251 0.30063 0.0
Zn41 Zn 0.82493 0.21641 0.33172 0.0
C42 C 0.74545 0.21718 0.37909 0.0
N43 N 0.84007 0.33936 0.3105 0.0
C44 C 0.81512 0.34951 0.37527 0.0
C45 C 0.86274 0.36322 0.21467 0.0
C46 C 0.85818 0.39661 0.17478 0.0
C47 C 0.82971 0.40526 0.23328 0.0
C48 C 0.80934 0.38235 0.33777 0.0
Zn49 Zn 0.83388 0.28098 0.33244 0.0
O50 O 0.8343 0.22473 0.51652 0.0
C51 C 0.91395 0.28202 0.28908 0.0
O52 O 0.84278 0.28791 0.51918 0.0
H53 H 0.88207 0.3545 0.16321 0.0
H54 H 0.86583 0.17447 0.47083 0.0
H55 H 0.79735 0.33035 0.45113 0.0
O56 O 0.89102 0.24253 0.2993 0.0
O57 O 0.89773 0.30499 0.30275 0.0
H58 H 0.7621 0.13196 0.23801 0.0
O59 O 0.82449 0.27266 0.14773 0.0
O60 O 0.81579 0.20952 0.1449 0.0
O61 O 0.77013 0.25586 0.36348 0.0
O62 O 0.75913 0.19204 0.36591 0.0
C63 C 0.81879 0.24091 0.08907 0.0
H64 H 0.84221 0.10263 0.53892 0.0
H65 H 0.73652 0.05947 0.30042 0.0
H66 H 0.87432 0.41335 0.09361 0.0
H67 H 0.78748 0.38838 0.38638 0.0
C68 C 0.57333 0.73329 0.51912 0.0
N69 N 0.65433 0.83148 0.73958 0.0
C70 C 0.68306 0.83837 0.65199 0.0
C71 C 0.71031 0.87897 0.61067 0.0
C72 C 0.70766 0.91257 0.65961 0.0
C73 C 0.68029 0.90479 0.75702 0.0
C74 C 0.65382 0.86391 0.79564 0.0
Zn75 Zn 0.602 0.77349 0.76127 0.0
C76 C 0.52555 0.7805 0.71996 0.0
N77 N 0.48794 0.65504 0.79231 0.0
C78 C 0.48284 0.61648 0.77132 0.0
C79 C 0.45819 0.65915 0.85335 0.0
C80 C 0.42248 0.6245 0.89709 0.0
C81 C 0.41706 0.58447 0.88254 0.0
C82 C 0.44736 0.58053 0.81571 0.0
Zn83 Zn 0.54304 0.7111 0.76287 0.0
O84 O 0.60136 0.76395 0.57722 0.0
C85 C 0.61912 0.70328 0.80186 0.0
O86 O 0.54325 0.70321 0.57539 0.0
H87 H 0.46276 0.68957 0.87427 0.0
H88 H 0.68274 0.81223 0.60748 0.0
H89 H 0.507 0.61358 0.72481 0.0
O90 O 0.63799 0.74293 0.79145 0.0
O91 O 0.57961 0.68252 0.79063 0.0
H92 H 0.63053 0.85793 0.86394 0.0
O93 O 0.54396 0.7202 0.94693 0.0
O94 O 0.6011 0.7813 0.94906 0.0
O95 O 0.50839 0.7414 0.73389 0.0
O96 O 0.5649 0.80271 0.72829 0.0
C97 C 0.57142 0.75102 0.00528 0.0
H98 H 0.73089 0.88359 0.5352 0.0
H99 H 0.67767 0.92987 0.79844 0.0
H100 H 0.39968 0.62937 0.94471 0.0
H101 H 0.44455 0.55031 0.802 0.0
C102 C 0.73162 0.56516 0.21739 0.0
N103 N 0.8318 0.64346 -0.0048 0.0
C104 C 0.83903 0.67297 0.08002 0.0
C105 C 0.87969 0.70002 0.1205 0.0
C106 C 0.91304 0.69634 0.07389 0.0
C107 C 0.90494 0.66787 -0.02017 0.0
C108 C 0.86403 0.64169 0.94171 0.0
Zn109 Zn 0.77295 0.59227 -0.02714 0.0
C110 C 0.77559 0.5139 0.02205 0.0
N111 N 0.65277 0.48112 0.94707 0.0
C112 C 0.61395 0.47272 -0.01799 0.0
C113 C 0.65771 0.45351 0.87776 0.0
C114 C 0.62374 0.41598 0.84297 0.0
C115 C 0.58351 0.40581 0.87908 0.0
C116 C 0.57849 0.43487 0.94843 0.0
Zn117 Zn 0.70892 0.53568 -0.02408 0.0
O118 O 0.76317 0.5915 0.15765 0.0
C119 C 0.70429 0.61264 0.93248 0.0
O120 O 0.70022 0.53631 0.16272 0.0
H121 H 0.68828 0.46065 0.8471 0.0
H122 H 0.81304 0.67361 0.12271 0.0
H123 H 0.6104 0.49527 0.0351 0.0
O124 O 0.74392 0.63011 0.94268 0.0
O125 O 0.68213 0.57324 0.94484 0.0
H126 H 0.85779 0.61783 0.8755 0.0
O127 O 0.719 0.53659 0.79094 0.0
O128 O 0.78134 0.59191 0.78554 0.0
O129 O 0.73673 0.49926 0.01071 0.0
O130 O 0.79989 0.55273 0.00516 0.0
C131 C 0.75025 0.56298 0.7309 0.0
H132 H 0.88453 0.72143 0.19347 0.0
H133 H 0.92981 0.66437 0.94028 0.0
H134 H 0.62901 0.39491 0.78763 0.0
H135 H 0.54783 0.42809 -0.02208 0.0
C136 C 0.25763 0.82779 0.15937 0.0
N137 N 0.15693 0.80494 0.38233 0.0
C138 C 0.14986 0.82736 0.2974 0.0
C139 C 0.10922 0.81405 0.2572 0.0
C140 C 0.07573 0.77718 0.30421 0.0
C141 C 0.0837 0.7567 0.39841 0.0
C142 C 0.1246 0.77113 0.43621 0.0
Zn143 Zn 0.2156 0.81206 0.40419 0.0
C144 C 0.21312 0.73228 0.34819 0.0
N145 N 0.33585 0.82078 0.43135 0.0
C146 C 0.37473 0.85472 0.41885 0.0
C147 C 0.33068 0.78553 0.48619 0.0
C148 C 0.3644 0.78339 0.53182 0.0
C149 C 0.40454 0.81826 0.52636 0.0
C150 C 0.40978 0.85408 0.46576 0.0
Zn151 Zn 0.2798 0.81981 0.40088 0.0
O152 O 0.22566 0.82157 0.2189 0.0
C153 C 0.28447 0.90057 0.45008 0.0
O154 O 0.28937 0.83118 0.21444 0.0
H155 H 0.29998 0.75924 0.50154 0.0
H156 H 0.17592 0.85384 0.25441 0.0
H157 H 0.37846 0.88289 0.37771 0.0
O158 O 0.24495 0.87886 0.43652 0.0
O159 O 0.30648 0.8832 0.4381 0.0
H160 H 0.13073 0.75339 0.50246 0.0
O161 O 0.26899 0.8083 0.58571 0.0
O162 O 0.2073 0.8029 0.59149 0.0
O163 O 0.25183 0.75701 0.35881 0.0
O164 O 0.18807 0.74552 0.37025 0.0
C165 C 0.23802 0.80411 0.64603 0.0
H166 H 0.10448 0.8307 0.18411 0.0
H167 H 0.05873 0.72846 0.43828 0.0
H168 H 0.35862 0.75462 0.57439 0.0
H169 H 0.44021 0.88178 0.45914 0.0
C170 C 0.41563 0.14818 0.88538 0.0
N171 N 0.33572 0.16694 0.66412 0.0
C172 C 0.30689 0.14356 0.74982 0.0
C173 C 0.27914 0.15577 0.794 0.0
C174 C 0.28141 0.19239 0.74962 0.0
C175 C 0.30868 0.21344 0.65314 0.0
C176 C 0.33572 0.20018 0.61172 0.0
Zn177 Zn 0.38836 0.1625 0.6409 0.0
C178 C 0.4641 0.24352 0.69535 0.0
N179 N 0.50148 0.15793 0.61449 0.0
C180 C 0.51299 0.13017 0.65319 0.0
C181 C 0.52745 0.19084 0.54316 0.0
C182 C 0.56622 0.19728 0.50907 0.0
C183 C 0.57966 0.17013 0.54923 0.0
C184 C 0.55235 0.13572 0.62115 0.0
Zn185 Zn 0.44526 0.15602 0.64387 0.0
O186 O 0.38906 0.15292 0.82594 0.0
C187 C 0.3709 0.07431 0.59732 0.0
O188 O 0.44484 0.14622 0.83024 0.0
H189 H 0.51813 0.21248 0.51091 0.0
H190 H 0.30763 0.11746 0.79107 0.0
H191 H 0.49185 0.10389 0.70858 0.0
O192 O 0.35276 0.09581 0.60814 0.0
O193 O 0.41024 0.09199 0.61084 0.0
H194 H 0.35909 0.2186 0.5447 0.0
O195 O 0.44418 0.16545 0.45852 0.0
O196 O 0.38857 0.17188 0.45396 0.0
O197 O 0.47906 0.21967 0.6814 0.0
O198 O 0.42548 0.22919 0.67635 0.0
C199 C 0.41772 0.17008 0.3988 0.0
H200 H 0.25863 0.13877 0.8687 0.0
H201 H 0.31098 0.24153 0.61547 0.0
H202 H 0.58563 0.22361 0.45109 0.0
H203 H 0.56157 0.11395 0.6538 0.0
C204 C 0.28384 0.25436 0.84559 0.0
C205 C 0.26048 0.21206 0.81419 0.0
H206 H 0.28452 0.30636 0.93081 0.0
C207 C 0.21831 0.1892 0.84901 0.0
H208 H 0.31656 0.27265 0.82189 0.0
C209 C 0.19977 0.2087 0.91207 0.0
C210 C 0.22343 0.25105 0.94369 0.0
H211 H 0.19966 0.1565 0.8263 0.0
H212 H 0.16714 0.19068 0.93692 0.0
C213 C 0.26562 0.27354 0.90965 0.0
C214 C 0.02252 0.36449 0.19378 0.0
C215 C 0.04324 0.34169 0.17922 0.0
H216 H 0.96644 0.36389 0.24062 0.0
C217 C 0.02104 0.29849 0.20205 0.0
H218 H 0.03846 0.3978 0.17756 0.0
C219 C 0.97903 0.2787 0.2388 0.0
C220 C 0.95863 0.30186 0.25412 0.0
H221 H 0.03613 0.28004 0.1922 0.0
H222 H 0.96261 0.24541 0.25528 0.0
C223 C 0.98102 0.34495 0.23088 0.0
C224 C 0.72518 0.0133 0.518 0.0
C225 C 0.76738 0.03309 0.48376 0.0
H226 H 0.67366 0.96023 0.59994 0.0
C227 C 0.79035 0.01308 0.5088 0.0
H228 H 0.70673 0.02808 0.50178 0.0
C229 C 0.77122 0.97382 0.56555 0.0
C230 C 0.72906 0.95437 0.60068 0.0
H231 H 0.82293 0.02759 0.48354 0.0
H232 H 0.78946 0.95892 0.58327 0.0
C233 C 0.70635 0.97461 0.57587 0.0
C234 C 0.61969 0.63754 0.85043 0.0
C235 C 0.64201 0.68096 0.83287 0.0
H236 H 0.62146 0.5825 0.8962 0.0
C237 C 0.68552 0.70222 0.84968 0.0
H238 H 0.58619 0.61998 0.83894 0.0
C239 C 0.70605 0.68042 0.88308 0.0
C240 C 0.68346 0.63694 0.90083 0.0
H241 H 0.70368 0.73568 0.83742 0.0
H242 H 0.73954 0.69759 0.89476 0.0
C243 C 0.64003 0.61594 0.88399 0.0
C244 C 1.01359 0.71471 0.21791 0.0
C245 C 0.0338 0.75734 0.24665 0.0
H246 H 0.96016 0.66247 0.1412 0.0
C247 C 1.01417 0.78032 0.21678 0.0
H248 H 0.02805 0.69621 0.238 0.0
C249 C 0.97485 0.76077 0.16107 0.0
C250 C 0.95494 0.71814 0.13166 0.0
H251 H 0.02901 0.81322 0.2377 0.0
H252 H 0.96024 0.77904 0.13973 0.0
C253 C 0.97485 0.69546 0.16093 0.0
C254 C 0.30417 1.0084 0.54176 0.0
C255 C 0.34747 0.02958 0.56244 0.0
H256 H 0.24999 0.95092 0.48944 0.0
C257 C 0.36927 1.008 0.54451 0.0
H258 H 0.28645 0.02415 0.5542 0.0
C259 C 0.34866 0.96663 0.50666 0.0
C260 C 0.30545 0.94522 0.48585 0.0
H261 H 0.4026 0.02314 0.5589 0.0
H262 H 0.36688 0.95138 0.49432 0.0
C263 C 0.28332 0.96653 0.50407 0.0
C264 C 0.16787 0.37593 0.67453 0.0
C265 C 0.16701 0.40926 0.73279 0.0
H266 H 0.17445 0.35079 0.50756 0.0
C267 C 0.17283 0.44372 0.66509 0.0
H268 H 0.16378 0.349 0.7248 0.0
C269 C 0.17944 0.44488 0.54109 0.0
C270 C 0.18021 0.41152 0.48282 0.0
H271 H 0.17288 0.47004 0.70789 0.0
H272 H 0.18358 0.47181 0.49079 0.0
C273 C 0.17453 0.3771 0.5505 0.0
C274 C 0.82447 0.21292 0.89015 0.0
C275 C 0.82174 0.24358 -0.04309 0.0
H276 H 0.83369 0.19367 0.71692 0.0
C277 C 0.82652 0.27937 0.89779 0.0
H278 H 0.82148 0.18533 0.93363 0.0
C279 C 0.83404 0.28447 0.77397 0.0
C280 C 0.83681 0.25382 0.70722 0.0
H281 H 0.8249 0.30376 0.94728 0.0
H282 H 0.83701 0.31206 0.73047 0.0
C283 C 0.83204 0.21804 0.76636 0.0
C284 C 0.53873 0.70829 0.31999 0.0
C285 C 0.57358 0.73627 0.38696 0.0
H286 H 0.51022 0.69188 0.14655 0.0
C287 C 0.60718 0.7702 0.3281 0.0
H288 H 0.51219 0.68227 0.36326 0.0
C289 C 0.60589 0.77612 0.20438 0.0
C290 C 0.57107 0.7481 0.13741 0.0
H291 H 0.63442 0.79253 0.37771 0.0
H292 H 0.63242 0.80214 0.16109 0.0
C293 C 0.53745 0.7142 0.19624 0.0
C294 C 0.71193 0.52996 0.54178 0.0
C295 C 0.74698 0.56259 0.59879 0.0
H296 H 0.67896 0.50562 0.37638 0.0
C297 C 0.77595 0.59664 0.53011 0.0
H298 H 0.68886 0.50335 0.59279 0.0
C299 C 0.76989 0.59813 0.40657 0.0
C300 C 0.73483 0.56551 0.34954 0.0
H301 H 0.80288 0.62245 0.57193 0.0
H302 H 0.79298 0.62474 0.35562 0.0
C303 C 0.70587 0.53145 0.41822 0.0
C304 C 0.21272 0.81302 0.84649 0.0
C305 C 0.24154 0.80755 0.77832 0.0
H306 H 0.19606 0.82522 0.02002 0.0
C307 C 0.27684 0.81056 0.83568 0.0
H308 H 0.18562 0.81153 0.80453 0.0
C309 C 0.28323 0.81903 -0.04109 0.0
C310 C 0.25437 0.82449 0.02702 0.0
H311 H 0.29987 0.80684 0.78516 0.0
H312 H 0.31027 0.82046 0.00104 0.0
C313 C 0.2191 0.82149 -0.0304 0.0
C314 C 0.45109 0.1651 0.20902 0.0
C315 C 0.41815 0.16703 0.26661 0.0
H316 H 0.4757 0.15653 0.04333 0.0
C317 C 0.38381 0.16113 0.19859 0.0
H318 H 0.47793 0.16927 0.25948 0.0
C319 C 0.38233 0.15322 0.07521 0.0
C320 C 0.41525 0.15124 0.01761 0.0
H321 H 0.35774 0.16183 0.24086 0.0
H322 H 0.35549 0.14907 0.0248 0.0
C323 C 0.44961 0.1572 0.08561 0.0
C324 C 0.21868 0.64554 0.18906 0.0
C325 C 0.17961 0.61073 0.21343 0.0
H326 H 0.25946 0.71049 0.2126 0.0
C327 C 0.14933 0.61632 0.27429 0.0
H328 H 0.24237 0.64217 0.141 0.0
C329 C 0.15915 0.65611 0.31618 0.0
C330 C 0.19943 0.69034 0.2983 0.0
H331 H 0.11898 0.58979 0.29437 0.0
H332 H 0.13602 0.65975 0.36631 0.0
C333 C 0.22849 0.68466 0.23117 0.0
C334 C 0.6711 0.16105 0.42537 0.0
C335 C 0.70284 0.20318 0.4254 0.0
H336 H 0.60664 0.11715 0.46486 0.0
C337 C 0.69438 0.23293 0.47617 0.0
H338 H 0.67691 0.13734 0.38851 0.0
C339 C 0.65511 0.22136 0.52212 0.0
C340 C 0.6226 0.17977 0.51678 0.0
H341 H 0.71826 0.26548 0.48105 0.0
H342 H 0.64994 0.24538 0.55998 0.0
C343 C 0.63112 0.14943 0.47028 0.0
C344 C 0.32674 0.52249 0.09751 0.0
C345 C 0.30297 0.48523 0.03431 0.0
H346 H 0.38225 0.58176 0.10311 0.0
C347 C 0.31936 0.47818 0.92788 0.0
H348 H 0.31479 0.52858 0.17988 0.0
C349 C 0.35762 0.5095 0.88062 0.0
C350 C 0.38018 0.5481 0.93999 0.0
H351 H 0.30123 0.44981 0.87675 0.0
H352 H 0.36819 0.5044 0.79432 0.0
C353 C 0.36514 0.55318 0.05221 0.0
C354 C 0.77459 0.4202 0.16259 0.0
C355 C 0.81712 0.43388 0.17743 0.0
H356 H 0.72848 0.43398 0.09993 0.0
C357 C 0.84659 0.4738 0.13463 0.0
H358 H 0.75112 0.38933 0.19211 0.0
C359 C 0.83355 0.49992 0.08162 0.0
C360 C 0.79082 0.48617 0.06822 0.0
H361 H 0.87961 0.48504 0.14423 0.0
H362 H 0.85682 0.53088 0.05231 0.0
C363 C 0.76165 0.44579 0.10825 0.0
C364 C 0.43173 0.79372 0.69623 0.0
C365 C 0.43947 0.81624 0.58728 0.0
H366 H 0.45292 0.76458 0.82259 0.0
C367 C 0.47917 0.83291 0.53357 0.0
H368 H 0.40216 0.78164 0.74291 0.0
C369 C 0.50904 0.82427 0.58268 0.0
C370 C 0.49938 0.79847 0.68511 0.0
H371 H 0.48627 0.85044 0.44997 0.0
H372 H 0.53842 0.8352 0.53571 0.0
C373 C 0.46097 0.78432 0.74314 0.0
C374 C 0.55337 0.32926 0.86685 0.0
C375 C 0.54845 0.36394 0.84686 0.0
H376 H 0.5312 0.26505 0.83405 0.0
C377 C 0.51305 0.35837 0.78367 0.0
H378 H 0.57989 0.33237 0.91688 0.0
C379 C 0.48441 0.31901 0.73569 0.0
C380 C 0.49131 0.28515 0.74932 0.0
H381 H 0.5086 0.38468 0.76679 0.0
H382 H 0.45797 0.31548 0.68453 0.0
C383 C 0.52551 0.29066 0.81828 0.0
loop_
_geom_bond_atom_site_label_1
_geom_bond_atom_site_label_2
_geom_bond_distance
_geom_bond_site_symmetry_2
_ccdc_geom_bond_type
C0 O16 1.251 . S
C0 O18 1.254 . S
N1 C2 1.333 . S
N1 C6 1.307 . S
N1 Zn7 2.020 . S
C2 N1 1.333 . S
C2 C3 1.379 1_554 S
C2 H20 0.952 1_554 S
C3 C2 1.379 1_556 S
C3 C4 1.390 1_556 S
C3 H30 0.949 . S
C4 C3 1.390 1_554 S
C4 C5 1.357 . S
C5 C4 1.357 . S
C5 C6 1.370 . S
C5 H31 0.950 . S
C6 N1 1.307 . S
C6 C5 1.370 . S
C6 H24 0.948 . S
Zn7 N1 2.020 . S
Zn7 O16 2.039 1_554 S
Zn7 O22 2.034 . S
Zn7 O26 2.025 . S
Zn7 O28 2.024 . S
C8 O27 1.246 . S
C8 O28 1.249 . S
N9 C10 1.307 . S
N9 C11 1.333 . S
N9 Zn15 2.020 . S
C10 N9 1.307 . S
C10 C14 1.370 . S
C10 H21 0.948 . S
C11 N9 1.333 . S
C11 C12 1.379 . S
C11 H19 0.952 . S
C12 C11 1.379 . S
C12 C13 1.390 . S
C12 H32 0.949 . S
C13 C12 1.390 . S
C13 C14 1.357 . S
C14 C10 1.370 . S
C14 C13 1.357 . S
C14 H33 0.950 . S
Zn15 N9 2.020 . S
Zn15 O18 2.025 1_554 S
Zn15 O23 2.024 . S
Zn15 O25 2.039 . S
Zn15 O27 2.034 . S
O16 C0 1.251 . S
O16 Zn7 2.039 1_556 S
C17 O22 1.246 . S
C17 O23 1.249 . S
O18 C0 1.254 . S
O18 Zn15 2.025 1_556 S
H19 C11 0.952 . S
H20 C2 0.952 1_556 S
H21 C10 0.948 . S
O22 Zn7 2.034 . S
O22 C17 1.246 . S
O23 Zn15 2.024 . S
O23 C17 1.249 . S
H24 C6 0.948 . S
O25 Zn15 2.039 . S
O25 C29 1.251 . S
O26 Zn7 2.025 . S
O26 C29 1.254 . S
O27 C8 1.246 . S
O27 Zn15 2.034 . S
O28 Zn7 2.024 . S
O28 C8 1.249 . S
C29 O25 1.251 . S
C29 O26 1.254 . S
H30 C3 0.949 . S
H31 C5 0.950 . S
H32 C12 0.949 . S
H33 C14 0.950 . S
C34 O50 1.251 . S
C34 O52 1.254 . S
N35 C36 1.333 . S
N35 C40 1.307 . S
N35 Zn41 2.020 . S
C36 N35 1.333 . S
C36 C37 1.379 . S
C36 H54 0.952 . S
C37 C36 1.379 . S
C37 C38 1.390 . S
C37 H64 0.949 . S
C38 C37 1.390 . S
C38 C39 1.357 . S
C39 C38 1.357 . S
C39 C40 1.370 . S
C39 H65 0.950 . S
C40 N35 1.307 . S
C40 C39 1.370 . S
C40 H58 0.948 . S
Zn41 N35 2.020 . S
Zn41 O50 2.039 . S
Zn41 O56 2.034 . S
Zn41 O60 2.025 . S
Zn41 O62 2.024 . S
C42 O61 1.246 . S
C42 O62 1.249 . S
N43 C44 1.307 . S
N43 C45 1.333 . S
N43 Zn49 2.020 . S
C44 N43 1.307 . S
C44 C48 1.370 . S
C44 H55 0.948 . S
C45 N43 1.333 . S
C45 C46 1.379 . S
C45 H53 0.952 . S
C46 C45 1.379 . S
C46 C47 1.390 . S
C46 H66 0.949 . S
C47 C46 1.390 . S
C47 C48 1.357 . S
C48 C44 1.370 . S
C48 C47 1.357 . S
C48 H67 0.950 . S
Zn49 N43 2.020 . S
Zn49 O52 2.025 . S
Zn49 O57 2.024 . S
Zn49 O59 2.039 . S
Zn49 O61 2.034 . S
O50 C34 1.251 . S
O50 Zn41 2.039 . S
C51 O56 1.246 . S
C51 O57 1.249 . S
O52 C34 1.254 . S
O52 Zn49 2.025 . S
H53 C45 0.952 . S
H54 C36 0.952 . S
H55 C44 0.948 . S
O56 Zn41 2.034 . S
O56 C51 1.246 . S
O57 Zn49 2.024 . S
O57 C51 1.249 . S
H58 C40 0.948 . S
O59 Zn49 2.039 . S
O59 C63 1.251 . S
O60 Zn41 2.025 . S
O60 C63 1.254 . S
O61 C42 1.246 . S
O61 Zn49 2.034 . S
O62 Zn41 2.024 . S
O62 C42 1.249 . S
C63 O59 1.251 . S
C63 O60 1.254 . S
H64 C37 0.949 . S
H65 C39 0.950 . S
H66 C46 0.949 . S
H67 C48 0.950 . S
C68 O84 1.251 . S
C68 O86 1.254 . S
N69 C70 1.333 . S
N69 C74 1.307 . S
N69 Zn75 2.020 . S
C70 N69 1.333 . S
C70 C71 1.379 . S
C70 H88 0.952 . S
C71 C70 1.379 . S
C71 C72 1.390 . S
C71 H98 0.949 . S
C72 C71 1.390 . S
C72 C73 1.357 . S
C73 C72 1.357 . S
C73 C74 1.370 . S
C73 H99 0.950 . S
C74 N69 1.307 . S
C74 C73 1.370 . S
C74 H92 0.948 . S
Zn75 N69 2.020 . S
Zn75 O84 2.039 . S
Zn75 O90 2.034 . S
Zn75 O94 2.025 1_556 S
Zn75 O96 2.024 . S
C76 O95 1.246 . S
C76 O96 1.249 . S
N77 C78 1.307 . S
N77 C79 1.333 . S
N77 Zn83 2.020 . S
C78 N77 1.307 . S
C78 C82 1.370 . S
C78 H89 0.948 . S
C79 N77 1.333 . S
C79 C80 1.379 1_556 S
C79 H87 0.952 1_556 S
C80 C79 1.379 1_554 S
C80 C81 1.390 1_554 S
C80 H100 0.949 . S
C81 C80 1.390 1_556 S
C81 C82 1.357 . S
C82 C78 1.370 . S
C82 C81 1.357 . S
C82 H101 0.950 . S
Zn83 N77 2.020 . S
Zn83 O86 2.025 . S
Zn83 O91 2.024 . S
Zn83 O93 2.039 1_556 S
Zn83 O95 2.034 . S
O84 C68 1.251 . S
O84 Zn75 2.039 . S
C85 O90 1.246 . S
C85 O91 1.249 . S
O86 C68 1.254 . S
O86 Zn83 2.025 . S
H87 C79 0.952 1_554 S
H88 C70 0.952 . S
H89 C78 0.948 . S
O90 Zn75 2.034 . S
O90 C85 1.246 . S
O91 Zn83 2.024 . S
O91 C85 1.249 . S
H92 C74 0.948 . S
O93 Zn83 2.039 1_554 S
O93 C97 1.251 . S
O94 Zn75 2.025 1_554 S
O94 C97 1.254 . S
O95 C76 1.246 . S
O95 Zn83 2.034 . S
O96 Zn75 2.024 . S
O96 C76 1.249 . S
C97 O93 1.251 . S
C97 O94 1.254 . S
H98 C71 0.949 . S
H99 C73 0.950 . S
H100 C80 0.949 . S
H101 C82 0.950 . S
C102 O118 1.251 . S
C102 O120 1.254 . S
N103 C104 1.333 . S
N103 C108 1.307 1_554 S
N103 Zn109 2.020 . S
C104 N103 1.333 . S
C104 C105 1.379 . S
C104 H122 0.952 . S
C105 C104 1.379 . S
C105 C106 1.390 . S
C105 H132 0.949 . S
C106 C105 1.390 . S
C106 C107 1.357 1_554 S
C107 C106 1.357 1_556 S
C107 C108 1.370 . S
C107 H133 0.950 . S
C108 N103 1.307 1_556 S
C108 C107 1.370 . S
C108 H126 0.948 . S
Zn109 N103 2.020 . S
Zn109 O118 2.039 . S
Zn109 O124 2.034 1_554 S
Zn109 O128 2.025 1_554 S
Zn109 O130 2.024 . S
C110 O129 1.246 . S
C110 O130 1.249 . S
N111 C112 1.307 1_556 S
N111 C113 1.333 . S
N111 Zn117 2.020 . S
C112 N111 1.307 1_554 S
C112 C116 1.370 . S
C112 H123 0.948 . S
C113 N111 1.333 . S
C113 C114 1.379 . S
C113 H121 0.952 . S
C114 C113 1.379 . S
C114 C115 1.390 . S
C114 H134 0.949 . S
C115 C114 1.390 . S
C115 C116 1.357 1_556 S
C116 C112 1.370 . S
C116 C115 1.357 1_554 S
C116 H135 0.950 . S
Zn117 N111 2.020 . S
Zn117 O120 2.025 1_556 S
Zn117 O125 2.024 . S
Zn117 O127 2.039 . S
Zn117 O129 2.034 1_556 S
O118 C102 1.251 . S
O118 Zn109 2.039 . S
C119 O124 1.246 . S
C119 O125 1.249 . S
O120 C102 1.254 . S
O120 Zn117 2.025 1_554 S
H121 C113 0.952 . S
H122 C104 0.952 . S
H123 C112 0.948 . S
O124 Zn109 2.034 1_556 S
O124 C119 1.246 . S
O125 Zn117 2.024 . S
O125 C119 1.249 . S
H126 C108 0.948 . S
O127 Zn117 2.039 . S
O127 C131 1.251 . S
O128 Zn109 2.025 1_556 S
O128 C131 1.254 . S
O129 C110 1.246 . S
O129 Zn117 2.034 1_554 S
O130 Zn109 2.024 . S
O130 C110 1.249 . S
C131 O127 1.251 . S
C131 O128 1.254 . S
H132 C105 0.949 . S
H133 C107 0.950 . S
H134 C114 0.949 . S
H135 C116 0.950 . S
C136 O152 1.251 . S
C136 O154 1.254 . S
N137 C138 1.333 . S
N137 C142 1.307 . S
N137 Zn143 2.020 . S
C138 N137 1.333 . S
C138 C139 1.379 . S
C138 H156 0.952 . S
C139 C138 1.379 . S
C139 C140 1.390 . S
C139 H166 0.949 . S
C140 C139 1.390 . S
C140 C141 1.357 . S
C141 C140 1.357 . S
C141 C142 1.370 . S
C141 H167 0.950 . S
C142 N137 1.307 . S
C142 C141 1.370 . S
C142 H160 0.948 . S
Zn143 N137 2.020 . S
Zn143 O152 2.039 . S
Zn143 O158 2.034 . S
Zn143 O162 2.025 . S
Zn143 O164 2.024 . S
C144 O163 1.246 . S
C144 O164 1.249 . S
N145 C146 1.307 . S
N145 C147 1.333 . S
N145 Zn151 2.020 . S
C146 N145 1.307 . S
C146 C150 1.370 . S
C146 H157 0.948 . S
C147 N145 1.333 . S
C147 C148 1.379 . S
C147 H155 0.952 . S
C148 C147 1.379 . S
C148 C149 1.390 . S
C148 H168 0.949 . S
C149 C148 1.390 . S
C149 C150 1.357 . S
C150 C146 1.370 . S
C150 C149 1.357 . S
C150 H169 0.950 . S
Zn151 N145 2.020 . S
Zn151 O154 2.025 . S
Zn151 O159 2.024 . S
Zn151 O161 2.039 . S
Zn151 O163 2.034 . S
O152 C136 1.251 . S
O152 Zn143 2.039 . S
C153 O158 1.246 . S
C153 O159 1.249 . S
O154 C136 1.254 . S
O154 Zn151 2.025 . S
H155 C147 0.952 . S
H156 C138 0.952 . S
H157 C146 0.948 . S
O158 Zn143 2.034 . S
O158 C153 1.246 . S
O159 Zn151 2.024 . S
O159 C153 1.249 . S
H160 C142 0.948 . S
O161 Zn151 2.039 . S
O161 C165 1.251 . S
O162 Zn143 2.025 . S
O162 C165 1.254 . S
O163 C144 1.246 . S
O163 Zn151 2.034 . S
O164 Zn143 2.024 . S
O164 C144 1.249 . S
C165 O161 1.251 . S
C165 O162 1.254 . S
H166 C139 0.949 . S
H167 C141 0.950 . S
H168 C148 0.949 . S
H169 C150 0.950 . S
C170 O186 1.251 . S
C170 O188 1.254 . S
N171 C172 1.333 . S
N171 C176 1.307 . S
N171 Zn177 2.020 . S
C172 N171 1.333 . S
C172 C173 1.379 . S
C172 H190 0.952 . S
C173 C172 1.379 . S
C173 C174 1.390 . S
C173 H200 0.949 . S
C174 C173 1.390 . S
C174 C175 1.357 . S
C175 C174 1.357 . S
C175 C176 1.370 . S
C175 H201 0.950 . S
C176 N171 1.307 . S
C176 C175 1.370 . S
C176 H194 0.948 . S
Zn177 N171 2.020 . S
Zn177 O186 2.039 . S
Zn177 O192 2.034 . S
Zn177 O196 2.025 . S
Zn177 O198 2.024 . S
C178 O197 1.246 . S
C178 O198 1.249 . S
N179 C180 1.307 . S
N179 C181 1.333 . S
N179 Zn185 2.020 . S
C180 N179 1.307 . S
C180 C184 1.370 . S
C180 H191 0.948 . S
C181 N179 1.333 . S
C181 C182 1.379 . S
C181 H189 0.952 . S
C182 C181 1.379 . S
C182 C183 1.390 . S
C182 H202 0.949 . S
C183 C182 1.390 . S
C183 C184 1.357 . S
C184 C180 1.370 . S
C184 C183 1.357 . S
C184 H203 0.950 . S
Zn185 N179 2.020 . S
Zn185 O188 2.025 . S
Zn185 O193 2.024 . S
Zn185 O195 2.039 . S
Zn185 O197 2.034 . S
O186 C170 1.251 . S
O186 Zn177 2.039 . S
C187 O192 1.246 . S
C187 O193 1.249 . S
O188 C170 1.254 . S
O188 Zn185 2.025 . S
H189 C181 0.952 . S
H190 C172 0.952 . S
H191 C180 0.948 . S
O192 Zn177 2.034 . S
O192 C187 1.246 . S
O193 Zn185 2.024 . S
O193 C187 1.249 . S
H194 C176 0.948 . S
O195 Zn185 2.039 . S
O195 C199 1.251 . S
O196 Zn177 2.025 . S
O196 C199 1.254 . S
O197 C178 1.246 . S
O197 Zn185 2.034 . S
O198 Zn177 2.024 . S
O198 C178 1.249 . S
C199 O195 1.251 . S
C199 O196 1.254 . S
H200 C173 0.949 . S
H201 C175 0.950 . S
H202 C182 0.949 . S
H203 C184 0.950 . S
C204 C205 1.387 . S
C204 H208 0.950 . S
C204 C213 1.390 . S
C205 C204 1.387 . S
C205 C207 1.387 . S
H206 C213 0.950 1_554 S
C207 C205 1.387 . S
C207 C209 1.390 . S
C207 H211 0.950 . S
H208 C204 0.950 . S
C209 C207 1.390 . S
C209 C210 1.387 . S
C209 H212 0.950 . S
C210 C209 1.387 . S
C210 C213 1.387 . S
H211 C207 0.950 . S
H212 C209 0.950 . S
C213 C204 1.390 . S
C213 H206 0.950 1_556 S
C213 C210 1.387 . S
C214 C215 1.403 . S
C214 H218 0.950 . S
C214 C223 1.374 1_455 S
C215 C214 1.403 . S
C215 C217 1.387 1_455 S
H216 C223 0.950 . S
C217 C215 1.387 1_655 S
C217 C219 1.390 . S
C217 H221 0.950 1_655 S
H218 C214 0.950 . S
C219 C217 1.390 . S
C219 C220 1.387 . S
C219 H222 0.950 . S
C220 C219 1.387 . S
C220 C223 1.387 . S
H221 C217 0.950 1_455 S
H222 C219 0.950 . S
C223 C214 1.374 1_655 S
C223 H216 0.950 . S
C223 C220 1.387 . S
C224 C225 1.387 1_565 S
C224 H228 0.950 1_565 S
C224 C233 1.390 . S
C225 C224 1.387 1_545 S
C225 C227 1.387 1_545 S
H226 C233 0.950 . S
C227 C225 1.387 1_565 S
C227 C229 1.390 . S
C227 H231 0.950 1_565 S
H228 C224 0.950 1_545 S
C229 C227 1.390 . S
C229 C230 1.387 . S
C229 H232 0.950 . S
C230 C229 1.387 . S
C230 C233 1.387 . S
H231 C227 0.950 1_545 S
H232 C229 0.950 . S
C233 C224 1.390 . S
C233 H226 0.950 . S
C233 C230 1.387 . S
C234 C235 1.387 . S
C234 H238 0.950 . S
C234 C243 1.390 . S
C235 C234 1.387 . S
C235 C237 1.387 . S
H236 C243 0.950 . S
C237 C235 1.387 . S
C237 C239 1.390 1_556 S
C237 H241 0.950 1_556 S
H238 C234 0.950 . S
C239 C237 1.390 1_554 S
C239 C240 1.387 1_554 S
C239 H242 0.950 . S
C240 C239 1.387 1_556 S
C240 C243 1.387 . S
H241 C237 0.950 1_554 S
H242 C239 0.950 . S
C243 C234 1.390 . S
C243 H236 0.950 . S
C243 C240 1.387 . S
C244 C245 1.387 1_655 S
C244 H248 0.950 . S
C244 C253 1.390 . S
C245 C244 1.387 1_455 S
C245 C247 1.387 . S
H246 C253 0.950 . S
C247 C245 1.387 . S
C247 C249 1.390 1_455 S
C247 H251 0.950 . S
H248 C244 0.950 . S
C249 C247 1.390 1_655 S
C249 C250 1.387 . S
C249 H252 0.950 . S
C250 C249 1.387 . S
C250 C253 1.387 . S
H251 C247 0.950 . S
H252 C249 0.950 . S
C253 C244 1.390 . S
C253 H246 0.950 . S
C253 C250 1.387 . S
C254 C255 1.388 1_565 S
C254 H258 0.929 1_565 S
C254 C263 1.411 . S
C255 C254 1.388 1_545 S
C255 C257 1.387 1_545 S
H256 C263 0.950 . S
C257 C255 1.387 1_565 S
C257 C259 1.390 . S
C257 H261 0.950 1_565 S
H258 C254 0.929 1_545 S
C259 C257 1.390 . S
C259 C260 1.387 . S
C259 H262 0.950 . S
C260 C259 1.387 . S
C260 C263 1.387 . S
H261 C257 0.950 1_545 S
H262 C259 0.950 . S
C263 C254 1.411 . S
C263 H256 0.950 . S
C263 C260 1.387 . S
C264 C265 1.387 . S
C264 H268 0.950 . S
C264 C273 1.390 . S
C265 C264 1.387 . S
C265 C267 1.387 . S
H266 C273 0.950 . S
C267 C265 1.387 . S
C267 C269 1.390 . S
C267 H271 0.950 . S
H268 C264 0.950 . S
C269 C267 1.390 . S
C269 C270 1.387 . S
C269 H272 0.950 . S
C270 C269 1.387 . S
C270 C273 1.387 . S
H271 C267 0.950 . S
H272 C269 0.950 . S
C273 C264 1.390 . S
C273 H266 0.950 . S
C273 C270 1.387 . S
C274 C275 1.387 . S
C274 H278 0.950 . S
C274 C283 1.390 . S
C275 C274 1.387 . S
C275 C277 1.387 . S
H276 C283 0.950 . S
C277 C275 1.387 . S
C277 C279 1.390 . S
C277 H281 0.950 . S
H278 C274 0.950 . S
C279 C277 1.390 . S
C279 C280 1.387 . S
C279 H282 0.950 . S
C280 C279 1.387 . S
C280 C283 1.387 . S
H281 C277 0.950 . S
H282 C279 0.950 . S
C283 C274 1.390 . S
C283 H276 0.950 . S
C283 C280 1.387 . S
C284 C285 1.387 . S
C284 H288 0.950 . S
C284 C293 1.390 . S
C285 C284 1.387 . S
C285 C287 1.387 . S
H286 C293 0.950 . S
C287 C285 1.387 . S
C287 C289 1.390 . S
C287 H291 0.950 . S
H288 C284 0.950 . S
C289 C287 1.390 . S
C289 C290 1.387 . S
C289 H292 0.950 . S
C290 C289 1.387 . S
C290 C293 1.387 . S
H291 C287 0.950 . S
H292 C289 0.950 . S
C293 C284 1.390 . S
C293 H286 0.950 . S
C293 C290 1.387 . S
C294 C295 1.387 . S
C294 H298 0.950 . S
C294 C303 1.390 . S
C295 C294 1.387 . S
C295 C297 1.387 . S
H296 C303 0.950 . S
C297 C295 1.387 . S
C297 C299 1.390 . S
C297 H301 0.950 . S
H298 C294 0.950 . S
C299 C297 1.390 . S
C299 C300 1.387 . S
C299 H302 0.950 . S
C300 C299 1.387 . S
C300 C303 1.387 . S
H301 C297 0.950 . S
H302 C299 0.950 . S
C303 C294 1.390 . S
C303 H296 0.950 . S
C303 C300 1.387 . S
C304 C305 1.387 . S
C304 H308 0.950 . S
C304 C313 1.390 1_556 S
C305 C304 1.387 . S
C305 C307 1.387 . S
H306 C313 0.950 . S
C307 C305 1.387 . S
C307 C309 1.390 1_556 S
C307 H311 0.950 . S
H308 C304 0.950 . S
C309 C307 1.390 1_554 S
C309 C310 1.387 . S
C309 H312 0.950 . S
C310 C309 1.387 . S
C310 C313 1.387 . S
H311 C307 0.950 . S
H312 C309 0.950 . S
C313 C304 1.390 1_554 S
C313 H306 0.950 . S
C313 C310 1.387 . S
C314 C315 1.387 . S
C314 H318 0.950 . S
C314 C323 1.390 . S
C315 C314 1.387 . S
C315 C317 1.387 . S
H316 C323 0.950 . S
C317 C315 1.387 . S
C317 C319 1.390 . S
C317 H321 0.950 . S
H318 C314 0.950 . S
C319 C317 1.390 . S
C319 C320 1.387 . S
C319 H322 0.950 . S
C320 C319 1.387 . S
C320 C323 1.387 . S
H321 C317 0.950 . S
H322 C319 0.950 . S
C323 C314 1.390 . S
C323 H316 0.950 . S
C323 C320 1.387 . S
C324 C325 1.387 . S
C324 H328 0.950 . S
C324 C333 1.390 . S
C325 C324 1.387 . S
C325 C327 1.387 . S
H326 C333 0.950 . S
C327 C325 1.387 . S
C327 C329 1.390 . S
C327 H331 0.950 . S
H328 C324 0.950 . S
C329 C327 1.390 . S
C329 C330 1.387 . S
C329 H332 0.950 . S
C330 C329 1.387 . S
C330 C333 1.387 . S
H331 C327 0.950 . S
H332 C329 0.950 . S
C333 C324 1.390 . S
C333 H326 0.950 . S
C333 C330 1.387 . S
C334 C335 1.387 . S
C334 H338 0.950 . S
C334 C343 1.390 . S
C335 C334 1.387 . S
C335 C337 1.387 . S
H336 C343 0.950 . S
C337 C335 1.387 . S
C337 C339 1.390 . S
C337 H341 0.950 . S
H338 C334 0.950 . S
C339 C337 1.390 . S
C339 C340 1.387 . S
C339 H342 0.950 . S
C340 C339 1.387 . S
C340 C343 1.387 . S
H341 C337 0.950 . S
H342 C339 0.950 . S
C343 C334 1.390 . S
C343 H336 0.950 . S
C343 C340 1.387 . S
C344 C345 1.387 . S
C344 H348 0.950 . S
C344 C353 1.390 . S
C345 C344 1.387 . S
C345 C347 1.387 1_554 S
H346 C353 0.950 . S
C347 C345 1.387 1_556 S
C347 C349 1.390 . S
C347 H351 0.950 . S
H348 C344 0.950 . S
C349 C347 1.390 . S
C349 C350 1.387 . S
C349 H352 0.950 . S
C350 C349 1.387 . S
C350 C353 1.387 1_556 S
H351 C347 0.950 . S
H352 C349 0.950 . S
C353 C344 1.390 . S
C353 H346 0.950 . S
C353 C350 1.387 1_554 S
C354 C355 1.387 . S
C354 H358 0.950 . S
C354 C363 1.390 . S
C355 C354 1.387 . S
C355 C357 1.387 . S
H356 C363 0.950 1_556 S
C357 C355 1.387 . S
C357 C359 1.390 . S
C357 H361 0.950 . S
H358 C354 0.950 . S
C359 C357 1.390 . S
C359 C360 1.387 . S
C359 H362 0.950 . S
C360 C359 1.387 . S
C360 C363 1.387 . S
H361 C357 0.950 . S
H362 C359 0.950 . S
C363 C354 1.390 . S
C363 H356 0.950 1_554 S
C363 C360 1.387 . S
C364 C365 1.387 . S
C364 H368 0.950 . S
C364 C373 1.390 . S
C365 C364 1.387 . S
C365 C367 1.387 . S
H366 C373 0.950 . S
C367 C365 1.387 . S
C367 C369 1.390 . S
C367 H371 0.950 . S
H368 C364 0.950 . S
C369 C367 1.390 . S
C369 C370 1.387 . S
C369 H372 0.950 . S
C370 C369 1.387 . S
C370 C373 1.387 . S
H371 C367 0.950 . S
H372 C369 0.950 . S
C373 C364 1.390 . S
C373 H366 0.950 . S
C373 C370 1.387 . S
C374 C375 1.387 . S
C374 H378 0.950 . S
C374 C383 1.390 . S
C375 C374 1.387 . S
C375 C377 1.387 . S
H376 C383 0.950 . S
C377 C375 1.387 . S
C377 C379 1.390 . S
C377 H381 0.950 . S
H378 C374 0.950 . S
C379 C377 1.390 . S
C379 C380 1.387 . S
C379 H382 0.950 . S
C380 C379 1.387 . S
C380 C383 1.387 . S
H381 C377 0.950 . S
H382 C379 0.950 . S
C383 C374 1.390 . S
C383 H376 0.950 . S
C383 C380 1.387 . S
C205 C174 1.603 . S
C210 C4 1.602 1_556 S
C215 C17 1.752 . S
C220 C51 1.752 . S
C225 C38 1.603 . S
C230 C72 1.603 . S
C235 C85 1.751 . S
C240 C119 1.753 . S
C245 C140 1.602 . S
C250 C106 1.603 . S
C255 C187 1.752 . S
C260 C153 1.751 . S
C265 C0 1.109 . S
C270 C29 1.109 . S
C275 C63 1.109 1_556 S
C280 C34 1.109 . S
C285 C68 1.110 . S
C290 C97 1.110 . S
C295 C131 1.111 . S
C300 C102 1.111 . S
C305 C165 1.109 . S
C310 C136 1.109 . S
C315 C199 1.111 . S
C320 C170 1.111 1_554 S
C325 C13 1.798 . S
C330 C144 1.894 . S
C335 C42 1.895 . S
C340 C183 1.800 . S
C345 C8 1.895 . S
C350 C81 1.800 . S
C355 C47 1.800 . S
C360 C110 1.894 . S
C365 C149 1.800 . S
C370 C76 1.895 . S
C375 C115 1.799 . S
C380 C178 1.895 . S
