# Generated by pormake.
# Topology uou, (4)-cn, num edge types: 1
# Building blocks:
#     Node 0, Type 0, BuildingBlock: UXUYUI_clean_sbu_0, # of connection points: 4
#     Node 1, Type 0, BuildingBlock: UXUYUI_clean_sbu_0, # of connection points: 4
#     Node 2, Type 0, BuildingBlock: UXUYUI_clean_sbu_0, # of connection points: 4
#     Node 3, Type 0, BuildingBlock: UXUYUI_clean_sbu_0, # of connection points: 4
#     Node 4, Type 0, BuildingBlock: UXUYUI_clean_sbu_0, # of connection points: 4
#     Node 5, Type 0, BuildingBlock: UXUYUI_clean_sbu_0, # of connection points: 4
#     Node 6, Type 0, BuildingBlock: UXUYUI_clean_sbu_0, # of connection points: 4
#     Node 7, Type 0, BuildingBlock: UXUYUI_clean_sbu_0, # of connection points: 4
#     Node 8, Type 0, BuildingBlock: UXUYUI_clean_sbu_0, # of connection points: 4
#     Node 9, Type 0, BuildingBlock: UXUYUI_clean_sbu_0, # of connection points: 4
#     Node 10, Type 0, BuildingBlock: UXUYUI_clean_sbu_0, # of connection points: 4
#     Node 11, Type 0, BuildingBlock: UXUYUI_clean_sbu_0, # of connection points: 4
#     Node 12, Type 0, BuildingBlock: UXUYUI_clean_sbu_0, # of connection points: 4
#     Node 13, Type 0, BuildingBlock: UXUYUI_clean_sbu_0, # of connection points: 4
#     Node 14, Type 0, BuildingBlock: UXUYUI_clean_sbu_0, # of connection points: 4
#     Node 15, Type 0, BuildingBlock: UXUYUI_clean_sbu_0, # of connection points: 4
#     Edge 16, Type (0, 0), BuildingBlock: KIFKEQ_clean_linker_1, # of connection points: 2
#     Edge 17, Type (0, 0), BuildingBlock: KIFKEQ_clean_linker_1, # of connection points: 2
#     Edge 18, Type (0, 0), BuildingBlock: KIFKEQ_clean_linker_1, # of connection points: 2
#     Edge 19, Type (0, 0), BuildingBlock: KIFKEQ_clean_linker_1, # of connection points: 2
#     Edge 20, Type (0, 0), BuildingBlock: KIFKEQ_clean_linker_1, # of connection points: 2
#     Edge 21, Type (0, 0), BuildingBlock: KIFKEQ_clean_linker_1, # of connection points: 2
#     Edge 22, Type (0, 0), BuildingBlock: KIFKEQ_clean_linker_1, # of connection points: 2
#     Edge 23, Type (0, 0), BuildingBlock: KIFKEQ_clean_linker_1, # of connection points: 2
#     Edge 24, Type (0, 0), BuildingBlock: KIFKEQ_clean_linker_1, # of connection points: 2
#     Edge 25, Type (0, 0), BuildingBlock: KIFKEQ_clean_linker_1, # of connection points: 2
#     Edge 26, Type (0, 0), BuildingBlock: KIFKEQ_clean_linker_1, # of connection points: 2
#     Edge 27, Type (0, 0), BuildingBlock: KIFKEQ_clean_linker_1, # of connection points: 2
#     Edge 28, Type (0, 0), BuildingBlock: KIFKEQ_clean_linker_1, # of connection points: 2
#     Edge 29, Type (0, 0), BuildingBlock: KIFKEQ_clean_linker_1, # of connection points: 2
#     Edge 30, Type (0, 0), BuildingBlock: KIFKEQ_clean_linker_1, # of connection points: 2
#     Edge 31, Type (0, 0), BuildingBlock: KIFKEQ_clean_linker_1, # of connection points: 2
#     Edge 32, Type (0, 0), BuildingBlock: KIFKEQ_clean_linker_1, # of connection points: 2
#     Edge 33, Type (0, 0), BuildingBlock: KIFKEQ_clean_linker_1, # of connection points: 2
#     Edge 34, Type (0, 0), BuildingBlock: KIFKEQ_clean_linker_1, # of connection points: 2
#     Edge 35, Type (0, 0), BuildingBlock: KIFKEQ_clean_linker_1, # of connection points: 2
#     Edge 36, Type (0, 0), BuildingBlock: KIFKEQ_clean_linker_1, # of connection points: 2
#     Edge 37, Type (0, 0), BuildingBlock: KIFKEQ_clean_linker_1, # of connection points: 2
#     Edge 38, Type (0, 0), BuildingBlock: KIFKEQ_clean_linker_1, # of connection points: 2
#     Edge 39, Type (0, 0), BuildingBlock: KIFKEQ_clean_linker_1, # of connection points: 2
#     Edge 40, Type (0, 0), BuildingBlock: KIFKEQ_clean_linker_1, # of connection points: 2
#     Edge 41, Type (0, 0), BuildingBlock: KIFKEQ_clean_linker_1, # of connection points: 2
#     Edge 42, Type (0, 0), BuildingBlock: KIFKEQ_clean_linker_1, # of connection points: 2
#     Edge 43, Type (0, 0), BuildingBlock: KIFKEQ_clean_linker_1, # of connection points: 2
#     Edge 44, Type (0, 0), BuildingBlock: KIFKEQ_clean_linker_1, # of connection points: 2
#     Edge 45, Type (0, 0), BuildingBlock: KIFKEQ_clean_linker_1, # of connection points: 2
#     Edge 46, Type (0, 0), BuildingBlock: KIFKEQ_clean_linker_1, # of connection points: 2
#     Edge 47, Type (0, 0), BuildingBlock: KIFKEQ_clean_linker_1, # of connection points: 2
# Relax obj value: 0.194
# Max RMSD: 0.198
# Mean RMSD: 0.197
data_MOF--net-uou--node1-UXUYUI_clean_sbu_0--edge1-KIFKEQ_clean_linker_1
_symmetry_space_group_name_H-M    P1
_symmetry_Int_Tables_number       1
_symmetry_cell_setting            triclinic
loop_
_symmetry_equiv_pos_as_xyz
'x, y, z'
_cell_length_a     57.846891
_cell_length_b     56.044879
_cell_length_c     79.062906
_cell_angle_alpha  90.010156
_cell_angle_beta   89.990718
_cell_angle_gamma 90.000981
loop_
_atom_site_label
_atom_site_type_symbol
_atom_site_fract_x
_atom_site_fract_y
_atom_site_fract_z
_atom_type_partial_charge
Li0 Li 0.05353 0.05234 0.10663 0.0
Li1 Li 0.08978 0.05813 0.12036 0.0
Li2 Li 0.0551 0.0518 0.13781 0.0
Li3 Li 0.06173 0.08902 0.12232 0.0
C4 C 0.05891 0.00741 0.122 0.0
N5 N 0.03726 0.96353 0.12381 0.0
C6 C 0.07118 0.98657 0.11831 0.0
C7 C 0.03565 0.00591 0.1267 0.0
C8 C 0.05991 0.96456 0.11925 0.0
C9 C 0.02501 0.98357 0.12754 0.0
C10 C 0.09559 0.07853 0.09139 0.0
C11 C 0.13151 0.09712 0.0833 0.0
N12 N 0.13467 0.07998 0.07134 0.0
C13 C 0.09913 0.06115 0.07898 0.0
C14 C 0.11183 0.09673 0.09354 0.0
C15 C 0.11902 0.06218 0.06898 0.0
C16 C 0.03751 0.05834 0.07396 0.0
N17 N 0.03894 0.04151 0.08631 0.0
C18 C 0.0226 0.01224 0.06786 0.0
C19 C 0.0316 0.01878 0.08356 0.0
C20 C 0.02128 0.02918 0.05481 0.0
C21 C 0.02866 0.05258 0.05808 0.0
H22 H 0.04382 0.07618 0.07632 0.0
H23 H 0.03305 0.00547 0.09328 0.0
C24 C 0.13791 0.06053 0.12828 0.0
N25 N 0.12137 0.04947 0.11893 0.0
C26 C 0.16059 0.05195 0.12818 0.0
C27 C 0.14874 0.02113 0.1086 0.0
C28 C 0.12635 0.03025 0.10912 0.0
C29 C 0.16615 0.03174 0.11845 0.0
H30 H 0.13337 0.07554 0.13619 0.0
H31 H 0.11276 0.02173 0.10193 0.0
C32 C 0.01282 0.0746 0.11579 0.0
N33 N 0.97126 0.0853 0.10032 0.0
C34 C 0.01182 0.09211 0.10323 0.0
C35 C 0.99266 0.0626 0.12053 0.0
C36 C 0.99066 0.09724 0.09554 0.0
C37 C 0.97182 0.06825 0.11255 0.0
C38 C 0.0844 0.09471 0.15096 0.0
C39 C 0.07343 0.09691 0.16664 0.0
C40 C 0.09914 0.11281 0.14535 0.0
C41 C 0.07712 0.1174 0.17633 0.0
C42 C 0.10236 0.13304 0.15541 0.0
N43 N 0.09136 0.13491 0.17055 0.0
C44 C 0.05425 0.02192 0.16665 0.0
C45 C 0.02449 0.05098 0.1649 0.0
C46 C 0.04691 0.01524 0.1828 0.0
N47 N 0.0432 0.03974 0.15826 0.0
C48 C 0.01673 0.04506 0.18103 0.0
C49 C 0.02831 0.02736 0.19031 0.0
H50 H 0.06923 0.0135 0.16103 0.0
H51 H 0.01625 0.06524 0.15793 0.0
C52 C 0.06001 0.13713 0.11068 0.0
N53 N 0.05432 0.122 0.12346 0.0
C54 C 0.0518 0.16058 0.11078 0.0
C55 C 0.03279 0.15255 0.13743 0.0
C56 C 0.04099 0.12918 0.13667 0.0
C57 C 0.03786 0.16842 0.12423 0.0
H58 H 0.07017 0.13074 0.10014 0.0
H59 H 0.03617 0.11652 0.14636 0.0
O60 O 0.06995 0.02899 0.12157 0.0
O61 O 0.07645 0.07755 0.10153 0.0
O62 O 0.03339 0.06916 0.12341 0.0
O63 O 0.08074 0.07494 0.14117 0.0
H64 H 0.08925 0.98738 0.1148 0.0
H65 H 0.02583 0.0218 0.1295 0.0
H66 H 0.06919 0.94829 0.1164 0.0
H67 H 0.00701 0.98217 0.13111 0.0
H68 H 0.14428 0.11105 0.08487 0.0
H69 H 0.08684 0.04681 0.07724 0.0
H70 H 0.10933 0.11035 0.10305 0.0
H71 H 0.12205 0.04877 0.05939 0.0
H72 H 0.01689 0.99403 0.06592 0.0
H73 H 0.02831 0.06613 0.04832 0.0
H74 H 0.17341 0.0605 0.13611 0.0
H75 H 0.15231 0.00576 0.10072 0.0
H76 H 0.02725 0.10146 0.0993 0.0
H77 H 0.99307 0.04909 0.13031 0.0
H78 H 0.98967 0.11068 0.08575 0.0
H79 H 0.95609 0.05908 0.11609 0.0
H80 H 0.06212 0.083 0.17126 0.0
H81 H 0.1078 0.11137 0.13328 0.0
H82 H 0.06864 0.11939 0.18845 0.0
H83 H 0.11358 0.14727 0.15115 0.0
H84 H 0.05635 0.00165 0.18966 0.0
H85 H 0.00223 0.05467 0.1864 0.0
H86 H 0.05602 0.17237 0.10037 0.0
H87 H 0.02179 0.15785 0.14786 0.0
Li88 Li 0.43711 0.9105 0.12421 0.0
Li89 Li 0.43989 0.95045 0.13759 0.0
Li90 Li 0.40488 0.94108 0.12257 0.0
Li91 Li 0.44195 0.9466 0.10807 0.0
C92 C 0.40203 0.90725 0.14828 0.0
N93 N 0.37134 0.87252 0.15894 0.0
C94 C 0.39909 0.90269 0.16553 0.0
C95 C 0.38931 0.8941 0.13645 0.0
C96 C 0.38351 0.88507 0.17067 0.0
C97 C 0.3739 0.87665 0.1421 0.0
C98 C 0.4853 0.93642 0.11889 0.0
C99 C 0.51506 0.96286 0.10859 0.0
N100 N 0.52932 0.94384 0.1063 0.0
C101 C 0.50034 0.91717 0.1166 0.0
C102 C 0.49282 0.95948 0.11502 0.0
C103 C 0.52248 0.92127 0.11016 0.0
C104 C 0.45849 0.86964 0.1118 0.0
N105 N 0.44618 0.87779 0.12525 0.0
C106 C 0.45069 0.8404 0.13943 0.0
C107 C 0.44226 0.86375 0.13898 0.0
C108 C 0.46371 0.83154 0.12578 0.0
C109 C 0.46749 0.84655 0.1118 0.0
H110 H 0.46202 0.88144 0.10129 0.0
H111 H 0.43299 0.87071 0.14975 0.0
C112 C 0.43858 0.96253 0.17177 0.0
N113 N 0.45089 0.96614 0.15738 0.0
C114 C 0.4467 0.97113 0.1872 0.0
C115 C 0.47925 0.98856 0.17254 0.0
C116 C 0.47061 0.97933 0.1574 0.0
C117 C 0.46764 0.98387 0.18782 0.0
H118 H 0.42275 0.95234 0.17132 0.0
H119 H 0.47992 0.98227 0.14578 0.0
C120 C 0.41605 0.9191 0.08733 0.0
N121 N 0.41207 0.91677 0.05252 0.0
C122 C 0.40839 0.93893 0.07818 0.0
C123 C 0.42129 0.89796 0.07878 0.0
C124 C 0.40663 0.93745 0.06059 0.0
C125 C 0.41924 0.89715 0.06118 0.0
C126 C 0.42501 0.99194 0.12875 0.0
C127 C 0.40964 0.99711 0.1419 0.0
C128 C 0.44205 0.00856 0.12444 0.0
C129 C 0.41173 0.01866 0.15064 0.0
C130 C 0.44356 0.02994 0.13347 0.0
N131 N 0.42852 0.03449 0.14628 0.0
C132 C 0.36198 0.95127 0.13755 0.0
C133 C 0.36016 0.94648 0.10781 0.0
C134 C 0.33883 0.95826 0.13805 0.0
N135 N 0.3723 0.94621 0.12252 0.0
C136 C 0.33697 0.95334 0.10772 0.0
C137 C 0.32617 0.95989 0.12294 0.0
H138 H 0.37192 0.95055 0.14912 0.0
H139 H 0.36854 0.94203 0.09606 0.0
C140 C 0.4692 0.94157 0.0787 0.0
N141 N 0.45561 0.95707 0.08744 0.0
C142 C 0.47786 0.94783 0.06285 0.0
C143 C 0.45813 0.98574 0.0652 0.0
C144 C 0.45004 0.97885 0.08108 0.0
C145 C 0.47211 0.97006 0.05586 0.0
H146 H 0.47281 0.92411 0.08388 0.0
H147 H 0.43863 0.9905 0.08807 0.0
O148 O 0.41722 0.92454 0.14312 0.0
O149 O 0.46345 0.93267 0.12504 0.0
O150 O 0.4184 0.92036 0.10455 0.0
O151 O 0.42353 0.97064 0.12032 0.0
H152 H 0.40884 0.91253 0.17489 0.0
H153 H 0.3912 0.89727 0.12305 0.0
H154 H 0.38112 0.88135 0.18398 0.0
H155 H 0.36396 0.86637 0.13308 0.0
H156 H 0.52097 0.9806 0.10536 0.0
H157 H 0.49508 0.89926 0.11987 0.0
H158 H 0.48142 0.97455 0.11661 0.0
H159 H 0.53426 0.90651 0.10828 0.0
H160 H 0.44713 0.82949 0.15043 0.0
H161 H 0.47787 0.84083 0.10115 0.0
H162 H 0.43721 0.96676 0.19858 0.0
H163 H 0.49518 0.9987 0.17231 0.0
H164 H 0.40432 0.95548 0.08458 0.0
H165 H 0.42669 0.88225 0.08564 0.0
H166 H 0.40102 0.95277 0.05336 0.0
H167 H 0.42331 0.88092 0.05441 0.0
H168 H 0.39649 0.98446 0.14552 0.0
H169 H 0.45407 0.00504 0.11428 0.0
H170 H 0.40005 0.02276 0.16092 0.0
H171 H 0.45673 0.0429 0.1303 0.0
H172 H 0.33105 0.96269 0.15011 0.0
H173 H 0.32789 0.95441 0.09576 0.0
H174 H 0.4883 0.93512 0.05591 0.0
H175 H 0.45336 0.00306 0.06022 0.0
Li176 Li 0.59461 0.93626 0.37143 0.0
Li177 Li 0.55874 0.94399 0.38682 0.0
Li178 Li 0.56418 0.90519 0.37125 0.0
Li179 Li 0.55741 0.94265 0.35651 0.0
C180 C 0.59567 0.90683 0.40213 0.0
N181 N 0.62358 0.8836 0.42526 0.0
C182 C 0.60177 0.918 0.4173 0.0
C183 C 0.60349 0.88367 0.39887 0.0
C184 C 0.61597 0.90601 0.42879 0.0
C185 C 0.61766 0.87228 0.41067 0.0
C186 C 0.5749 0.9872 0.3781 0.0
C187 C 0.55463 0.02261 0.38707 0.0
N188 N 0.57461 0.03127 0.39376 0.0
C189 C 0.59527 0.99651 0.38495 0.0
C190 C 0.55445 0.0004 0.37905 0.0
C191 C 0.59475 0.0188 0.39285 0.0
C192 C 0.63317 0.95502 0.35585 0.0
N193 N 0.62654 0.94372 0.37025 0.0
C194 C 0.66406 0.94899 0.38226 0.0
C195 C 0.6415 0.94027 0.38328 0.0
C196 C 0.6712 0.96145 0.36775 0.0
C197 C 0.65554 0.96404 0.3543 0.0
H198 H 0.62076 0.95773 0.3458 0.0
H199 H 0.63585 0.93138 0.39463 0.0
C200 C 0.5243 0.95227 0.41126 0.0
N201 N 0.5465 0.95732 0.40697 0.0
C202 C 0.51529 0.96027 0.42663 0.0
C203 C 0.55209 0.97884 0.43271 0.0
C204 C 0.56039 0.97037 0.41729 0.0
C205 C 0.52933 0.97356 0.43767 0.0
H206 H 0.51375 0.94152 0.40292 0.0
H207 H 0.57809 0.97382 0.41371 0.0
C208 C 0.59603 0.90269 0.34375 0.0
N209 N 0.62519 0.87102 0.32755 0.0
C210 C 0.59292 0.89758 0.3266 0.0
C211 C 0.61414 0.89194 0.3526 0.0
C212 C 0.60779 0.88144 0.31865 0.0
C213 C 0.62866 0.87592 0.34421 0.0
C214 C 0.5158 0.92751 0.3644 0.0
C215 C 0.5076 0.90799 0.35518 0.0
C216 C 0.50289 0.94857 0.36494 0.0
C217 C 0.48671 0.90999 0.34643 0.0
C218 C 0.48209 0.94987 0.35602 0.0
N219 N 0.47451 0.93073 0.34701 0.0
C220 C 0.54688 0.86425 0.38642 0.0
C221 C 0.55781 0.85826 0.35784 0.0
C222 C 0.53801 0.84114 0.38737 0.0
N223 N 0.55634 0.87236 0.37179 0.0
C224 C 0.54926 0.83498 0.35825 0.0
C225 C 0.53884 0.82624 0.37308 0.0
H226 H 0.54558 0.87607 0.39721 0.0
H227 H 0.56489 0.86527 0.34624 0.0
C228 C 0.54304 0.97843 0.33289 0.0
N229 N 0.54429 0.95471 0.33637 0.0
C230 C 0.53516 0.98615 0.31708 0.0
C231 C 0.52968 0.94488 0.30906 0.0
C232 C 0.53767 0.93802 0.32492 0.0
C233 C 0.52877 0.96921 0.30483 0.0
H234 H 0.54875 0.9913 0.34217 0.0
H235 H 0.53907 0.91928 0.32803 0.0
O236 O 0.58151 0.91821 0.39084 0.0
O237 O 0.57504 0.96535 0.3704 0.0
O238 O 0.5816 0.91848 0.35168 0.0
O239 O 0.53642 0.92604 0.37279 0.0
H240 H 0.5958 0.93581 0.42013 0.0
H241 H 0.59862 0.87448 0.3874 0.0
H242 H 0.62095 0.91453 0.44052 0.0
H243 H 0.62389 0.8544 0.40826 0.0
H244 H 0.5389 0.03295 0.38799 0.0
H245 H 0.61127 0.98657 0.3843 0.0
H246 H 0.53857 0.99351 0.37374 0.0
H247 H 0.61035 0.02618 0.39829 0.0
H248 H 0.67567 0.94631 0.39284 0.0
H249 H 0.66019 0.97377 0.34296 0.0
H250 H 0.49776 0.95549 0.43003 0.0
H251 H 0.56344 0.98928 0.4407 0.0
H252 H 0.57912 0.90591 0.3195 0.0
H253 H 0.61714 0.8961 0.36574 0.0
H254 H 0.60551 0.87722 0.30541 0.0
H255 H 0.64274 0.86746 0.35092 0.0
H256 H 0.51736 0.89155 0.35464 0.0
H257 H 0.50892 0.96376 0.37213 0.0
H258 H 0.48021 0.89508 0.33916 0.0
H259 H 0.47198 0.96611 0.35625 0.0
H260 H 0.52981 0.83536 0.39898 0.0
H261 H 0.55049 0.82407 0.34698 0.0
H262 H 0.53488 0.00506 0.31427 0.0
H263 H 0.52454 0.93124 0.30011 0.0
Li264 Li 0.94174 0.05668 0.3881 0.0
Li265 Li 0.90633 0.05983 0.37136 0.0
Li266 Li 0.9435 0.05114 0.35886 0.0
Li267 Li 0.93736 0.0916 0.371 0.0
C268 C 0.92933 0.00932 0.36809 0.0
N269 N 0.937 0.96571 0.35267 0.0
C270 C 0.91424 0.00102 0.35561 0.0
C271 C 0.94814 0.99519 0.37291 0.0
C272 C 0.91845 0.97901 0.34791 0.0
C273 C 0.95177 0.97327 0.36492 0.0
C274 C 0.9118 0.08188 0.40661 0.0
C275 C 0.91056 0.10186 0.43362 0.0
N276 N 0.90285 0.08141 0.44096 0.0
C277 C 0.90359 0.06114 0.4144 0.0
C278 C 0.91512 0.10248 0.41627 0.0
C279 C 0.89928 0.06122 0.43178 0.0
C280 C 0.96485 0.06417 0.41908 0.0
N281 N 0.95351 0.0476 0.40965 0.0
C282 C 0.95621 0.01908 0.43196 0.0
C283 C 0.94905 0.0254 0.41573 0.0
C284 C 0.96808 0.03578 0.44194 0.0
C285 C 0.97254 0.05854 0.4353 0.0
H286 H 0.96756 0.08192 0.41408 0.0
H287 H 0.93939 0.01283 0.40816 0.0
C288 C 0.86626 0.04638 0.35383 0.0
N289 N 0.87404 0.05394 0.36915 0.0
C290 C 0.84339 0.03896 0.35188 0.0
C291 C 0.8365 0.04886 0.38121 0.0
C292 C 0.85953 0.05601 0.38258 0.0
C293 C 0.82834 0.0396 0.36581 0.0
H294 H 0.87802 0.04545 0.34322 0.0
H295 H 0.86586 0.06266 0.3945 0.0
C296 C 0.9856 0.06934 0.38048 0.0
N297 N 0.02749 0.06652 0.39725 0.0
C298 C 0.99798 0.09007 0.38429 0.0
C299 C 0.99485 0.04715 0.38486 0.0
C300 C 0.01904 0.0883 0.39285 0.0
C301 C 0.01594 0.04609 0.39343 0.0
C302 C 0.90548 0.0911 0.34404 0.0
C303 C 0.90333 0.0917 0.32645 0.0
C304 C 0.89181 0.10617 0.35399 0.0
C305 C 0.88758 0.10747 0.31906 0.0
C306 C 0.87626 0.12167 0.34613 0.0
N307 N 0.87449 0.122 0.32897 0.0
C308 C 0.9434 0.03211 0.32634 0.0
C309 C 0.97978 0.02945 0.34002 0.0
C310 C 0.95291 0.02362 0.31129 0.0
N311 N 0.957 0.03533 0.34015 0.0
C312 C 0.99003 0.02091 0.32523 0.0
C313 C 0.97667 0.01859 0.31048 0.0
H314 H 0.92534 0.03705 0.32684 0.0
H315 H 0.99022 0.0323 0.35114 0.0
C316 C 0.9535 0.13498 0.3834 0.0
N317 N 0.94477 0.12459 0.36925 0.0
C318 C 0.96192 0.15828 0.38286 0.0
C319 C 0.95131 0.16022 0.35331 0.0
C320 C 0.94351 0.13667 0.35434 0.0
C321 C 0.96103 0.17107 0.36763 0.0
H322 H 0.95497 0.12472 0.39492 0.0
H323 H 0.93715 0.12787 0.34312 0.0
O324 O 0.92575 0.03113 0.3755 0.0
O325 O 0.9167 0.08194 0.38966 0.0
O326 O 0.96479 0.07079 0.37223 0.0
O327 O 0.9207 0.07558 0.35141 0.0
H328 H 0.89957 0.01153 0.35174 0.0
H329 H 0.95978 0.00095 0.38275 0.0
H330 H 0.90699 0.97252 0.33812 0.0
H331 H 0.96633 0.96225 0.36849 0.0
H332 H 0.91313 0.11766 0.44125 0.0
H333 H 0.90098 0.045 0.40712 0.0
H334 H 0.921 0.11883 0.41045 0.0
H335 H 0.89318 0.04521 0.43798 0.0
H336 H 0.9525 0.00133 0.43666 0.0
H337 H 0.98134 0.072 0.44273 0.0
H338 H 0.83766 0.03241 0.3397 0.0
H339 H 0.82549 0.04966 0.39227 0.0
H340 H 0.99158 0.10737 0.38055 0.0
H341 H 0.98574 0.03093 0.38184 0.0
H342 H 0.02871 0.10423 0.39595 0.0
H343 H 0.02312 0.02901 0.39705 0.0
H344 H 0.91375 0.08013 0.31857 0.0
H345 H 0.89315 0.10594 0.36762 0.0
H346 H 0.88575 0.10814 0.30546 0.0
H347 H 0.8656 0.13344 0.35366 0.0
H348 H 0.94203 0.02243 0.30018 0.0
H349 H 0.00837 0.01705 0.32516 0.0
H350 H 0.96936 0.1661 0.39414 0.0
H351 H 0.95064 0.16951 0.34131 0.0
Li352 Li 0.93212 0.90664 0.87543 0.0
Li353 Li 0.93904 0.94307 0.8896 0.0
Li354 Li 0.90124 0.93798 0.87649 0.0
Li355 Li 0.93729 0.94392 0.8597 0.0
C356 C 0.91651 0.91699 0.91223 0.0
N357 N 0.92114 0.91497 0.94699 0.0
C358 C 0.93059 0.89964 0.91965 0.0
C359 C 0.90466 0.9332 0.92249 0.0
C360 C 0.93271 0.89891 0.93725 0.0
C361 C 0.90729 0.93194 0.94004 0.0
C362 C 0.9813 0.92824 0.88044 0.0
C363 C 0.01497 0.9515 0.88765 0.0
N364 N 0.02478 0.9318 0.89468 0.0
C365 C 0.99177 0.90819 0.88764 0.0
C366 C 0.99303 0.95004 0.88033 0.0
C367 C 0.01375 0.91037 0.8948 0.0
C368 C 0.9558 0.8672 0.86327 0.0
N369 N 0.93879 0.87354 0.87423 0.0
C370 C 0.93537 0.83338 0.884 0.0
C371 C 0.92815 0.85718 0.88425 0.0
C372 C 0.95345 0.82647 0.87317 0.0
C373 C 0.9634 0.84364 0.86249 0.0
H374 H 0.96394 0.88067 0.85549 0.0
H375 H 0.91447 0.86273 0.89271 0.0
C376 C 0.94672 0.97978 0.91328 0.0
N377 N 0.95296 0.95714 0.90912 0.0
C378 C 0.9549 0.9902 0.92816 0.0
C379 C 0.97606 0.95395 0.93405 0.0
C380 C 0.96737 0.94421 0.91915 0.0
C381 C 0.96968 0.97716 0.93879 0.0
H382 H 0.93495 0.98955 0.90523 0.0
H383 H 0.97156 0.92604 0.91591 0.0
C384 C 0.90981 0.90002 0.84683 0.0
N385 N 0.90574 0.85852 0.82822 0.0
C386 C 0.92384 0.89631 0.83268 0.0
C387 C 0.89369 0.88266 0.85152 0.0
C388 C 0.9215 0.8752 0.82343 0.0
C389 C 0.89191 0.86178 0.84195 0.0
C390 C 0.92192 0.98707 0.86705 0.0
C391 C 0.90239 0.99397 0.85787 0.0
C392 C 0.94158 0.00156 0.86698 0.0
C393 C 0.90295 0.01518 0.8486 0.0
C394 C 0.94147 0.02263 0.85755 0.0
N395 N 0.92232 0.02894 0.84862 0.0
C396 C 0.86324 0.9635 0.88824 0.0
C397 C 0.85403 0.93555 0.86675 0.0
C398 C 0.84048 0.97168 0.88857 0.0
N399 N 0.86951 0.94578 0.87745 0.0
C400 C 0.83106 0.94324 0.86662 0.0
C401 C 0.82409 0.96166 0.87756 0.0
H402 H 0.87612 0.97182 0.8962 0.0
H403 H 0.85962 0.92185 0.85806 0.0
C404 C 0.97161 0.95335 0.8356 0.0
N405 N 0.94874 0.95603 0.83899 0.0
C406 C 0.98008 0.95799 0.81944 0.0
C407 C 0.94147 0.96909 0.81072 0.0
C408 C 0.93368 0.96399 0.82705 0.0
C409 C 0.96481 0.96539 0.80668 0.0
H410 H 0.98308 0.94638 0.84516 0.0
H411 H 0.91545 0.96513 0.82994 0.0
O412 O 0.91448 0.91822 0.89501 0.0
O413 O 0.95982 0.92644 0.87331 0.0
O414 O 0.91229 0.92024 0.85633 0.0
O415 O 0.92184 0.96625 0.87606 0.0
H416 H 0.94019 0.88719 0.91192 0.0
H417 H 0.89374 0.94677 0.91698 0.0
H418 H 0.94369 0.8857 0.94315 0.0
H419 H 0.89836 0.94449 0.94812 0.0
H420 H 0.02419 0.96829 0.88773 0.0
H421 H 0.98293 0.8912 0.88792 0.0
H422 H 0.98524 0.96568 0.87472 0.0
H423 H 0.022 0.89504 0.90052 0.0
H424 H 0.92711 0.82059 0.8923 0.0
H425 H 0.97753 0.83913 0.85409 0.0
H426 H 0.94964 0.00819 0.93136 0.0
H427 H 0.98702 0.9431 0.94206 0.0
H428 H 0.93655 0.90946 0.82896 0.0
H429 H 0.88295 0.88511 0.86259 0.0
H430 H 0.93229 0.87205 0.81247 0.0
H431 H 0.87962 0.84812 0.84549 0.0
H432 H 0.88706 0.98293 0.85771 0.0
H433 H 0.95675 0.99659 0.87415 0.0
H434 H 0.88801 0.02067 0.84136 0.0
H435 H 0.95659 0.03398 0.85733 0.0
H436 H 0.83596 0.98624 0.89695 0.0
H437 H 0.81893 0.93498 0.85798 0.0
H438 H 0.9982 0.95492 0.81674 0.0
H439 H 0.92913 0.97437 0.80112 0.0
Li440 Li 0.55777 0.08871 0.87386 0.0
Li441 Li 0.55032 0.05132 0.88846 0.0
Li442 Li 0.58675 0.05708 0.87293 0.0
Li443 Li 0.55039 0.05192 0.85763 0.0
C444 C 0.58082 0.08756 0.90679 0.0
N445 N 0.59223 0.11402 0.9351 0.0
C446 C 0.56493 0.09019 0.91999 0.0
C447 C 0.60265 0.09812 0.90812 0.0
C448 C 0.57099 0.1037 0.93416 0.0
C449 C 0.60805 0.1115 0.9225 0.0
C450 C 0.50903 0.07709 0.87953 0.0
C451 C 0.46734 0.07766 0.87955 0.0
N452 N 0.46767 0.0934 0.89265 0.0
C453 C 0.50895 0.09327 0.89297 0.0
C454 C 0.48807 0.06923 0.87273 0.0
C455 C 0.48788 0.10131 0.89943 0.0
C456 C 0.54081 0.12968 0.85888 0.0
N457 N 0.55115 0.12202 0.87333 0.0
C458 C 0.54639 0.16042 0.88601 0.0
C459 C 0.55444 0.13695 0.88669 0.0
C460 C 0.53509 0.1686 0.87141 0.0
C461 C 0.53273 0.15306 0.85759 0.0
H462 H 0.53825 0.11732 0.84854 0.0
H463 H 0.5626 0.13056 0.89806 0.0
C464 C 0.55455 0.0287 0.91921 0.0
N465 N 0.53833 0.03695 0.90826 0.0
C466 C 0.54799 0.01928 0.9348 0.0
C467 C 0.50804 0.0264 0.92735 0.0
C468 C 0.51539 0.03553 0.91183 0.0
C469 C 0.52446 0.01843 0.93918 0.0
H470 H 0.57267 0.0299 0.91591 0.0
H471 H 0.50278 0.04179 0.90282 0.0
C472 C 0.59141 0.09158 0.84783 0.0
N473 N 0.62526 0.12216 0.8361 0.0
C474 C 0.59761 0.09142 0.83075 0.0
C475 C 0.60237 0.10732 0.85893 0.0
C476 C 0.61479 0.10701 0.82506 0.0
C477 C 0.61945 0.12264 0.85277 0.0
C478 C 0.55437 0.0073 0.87277 0.0
C479 C 0.56657 0.98582 0.87352 0.0
C480 C 0.53022 0.00697 0.87218 0.0
C481 C 0.55438 0.96429 0.87362 0.0
C482 C 0.51867 0.98509 0.87231 0.0
N483 N 0.53088 0.96438 0.87302 0.0
C484 C 0.62858 0.04519 0.88835 0.0
C485 C 0.62988 0.04519 0.85837 0.0
C486 C 0.65131 0.03697 0.88918 0.0
N487 N 0.6184 0.04902 0.87311 0.0
C488 C 0.65266 0.03693 0.85861 0.0
C489 C 0.66356 0.03241 0.87417 0.0
H490 H 0.61883 0.04799 0.89985 0.0
H491 H 0.62114 0.04789 0.84644 0.0
C492 C 0.51963 0.05417 0.83094 0.0
N493 N 0.53664 0.04044 0.83763 0.0
C494 C 0.50949 0.04795 0.81558 0.0
C495 C 0.53446 0.01336 0.81435 0.0
C496 C 0.54414 0.02029 0.82978 0.0
C497 C 0.51702 0.02741 0.80698 0.0
H498 H 0.51436 0.07032 0.83736 0.0
H499 H 0.55791 0.00987 0.83535 0.0
O500 O 0.57533 0.07422 0.89285 0.0
O501 O 0.52943 0.06894 0.87296 0.0
O502 O 0.57476 0.07628 0.85357 0.0
O503 O 0.56615 0.02847 0.87274 0.0
H504 H 0.54809 0.0819 0.91937 0.0
H505 H 0.61535 0.09597 0.89819 0.0
H506 H 0.55881 0.10595 0.94442 0.0
H507 H 0.62484 0.11984 0.92365 0.0
H508 H 0.45099 0.07168 0.87444 0.0
H509 H 0.52496 0.09955 0.89836 0.0
H510 H 0.48782 0.05662 0.86236 0.0
H511 H 0.48758 0.11385 0.90983 0.0
H512 H 0.54873 0.17196 0.89687 0.0
H513 H 0.52393 0.15864 0.84617 0.0
H514 H 0.56123 0.01289 0.94335 0.0
H515 H 0.48973 0.02624 0.9302 0.0
H516 H 0.58927 0.07931 0.82199 0.0
H517 H 0.59767 0.10778 0.87214 0.0
H518 H 0.61979 0.10705 0.81188 0.0
H519 H 0.62807 0.13492 0.86124 0.0
H520 H 0.58528 0.98579 0.87401 0.0
H521 H 0.52045 0.02338 0.87161 0.0
H522 H 0.56361 0.94752 0.87419 0.0
H523 H 0.49998 0.98458 0.87185 0.0
H524 H 0.6591 0.03398 0.90145 0.0
H525 H 0.66132 0.03332 0.84674 0.0
H526 H 0.49649 0.05961 0.81022 0.0
H527 H 0.5407 0.99736 0.80818 0.0
Li528 Li 0.40503 0.06038 0.61752 0.0
Li529 Li 0.43978 0.05431 0.63326 0.0
Li530 Li 0.43392 0.09112 0.61807 0.0
Li531 Li 0.44082 0.05485 0.60287 0.0
C532 C 0.40326 0.0729 0.65148 0.0
N533 N 0.37848 0.06086 0.68011 0.0
C534 C 0.39587 0.0494 0.65395 0.0
C535 C 0.39806 0.09026 0.66358 0.0
C536 C 0.38336 0.04368 0.6685 0.0
C537 C 0.38551 0.08382 0.67797 0.0
C538 C 0.43675 0.01032 0.61734 0.0
C539 C 0.47258 0.9884 0.6191 0.0
N540 N 0.46077 0.96768 0.61676 0.0
C541 C 0.42498 0.9888 0.61498 0.0
C542 C 0.46076 0.01013 0.61945 0.0
C543 C 0.43742 0.96743 0.61472 0.0
C544 C 0.36804 0.03225 0.60804 0.0
N545 N 0.37315 0.05268 0.61647 0.0
C546 C 0.33348 0.05811 0.62393 0.0
C547 C 0.35646 0.06579 0.62423 0.0
C548 C 0.32773 0.0367 0.61563 0.0
C549 C 0.34539 0.02384 0.60751 0.0
H550 H 0.38172 0.02223 0.602 0.0
H551 H 0.36103 0.08199 0.63087 0.0
C552 C 0.4643 0.05931 0.66269 0.0
N553 N 0.45212 0.04279 0.65385 0.0
C554 C 0.47158 0.05442 0.67911 0.0
C555 C 0.45445 0.01516 0.67681 0.0
C556 C 0.44723 0.02093 0.66044 0.0
C557 C 0.46632 0.03227 0.68644 0.0
H558 H 0.46758 0.07664 0.65716 0.0
H559 H 0.43696 0.00835 0.65331 0.0
C560 C 0.40039 0.09547 0.59328 0.0
N561 N 0.36732 0.1283 0.58354 0.0
C562 C 0.39452 0.09794 0.57622 0.0
C563 C 0.38947 0.10977 0.60538 0.0
C564 C 0.37775 0.11462 0.57155 0.0
C565 C 0.37279 0.12624 0.6002 0.0
C566 C 0.47989 0.08258 0.61059 0.0
C567 C 0.47675 0.09167 0.59429 0.0
C568 C 0.50116 0.08549 0.6187 0.0
C569 C 0.49501 0.10354 0.58635 0.0
C570 C 0.519 0.09747 0.61034 0.0
N571 N 0.51558 0.10617 0.59447 0.0
C572 C 0.44609 0.13351 0.63437 0.0
C573 C 0.44365 0.13709 0.60453 0.0
C574 C 0.45461 0.15674 0.6357 0.0
N575 N 0.44111 0.12413 0.61894 0.0
C576 C 0.45238 0.16029 0.60525 0.0
C577 C 0.45831 0.17023 0.62098 0.0
H578 H 0.4442 0.12261 0.64557 0.0
H579 H 0.4397 0.12913 0.59241 0.0
C580 C 0.43882 0.04015 0.56957 0.0
N581 N 0.45355 0.04163 0.5829 0.0
C582 C 0.44668 0.03206 0.55394 0.0
C583 C 0.48462 0.02648 0.56617 0.0
C584 C 0.47604 0.03483 0.58159 0.0
C585 C 0.4699 0.02531 0.55206 0.0
H586 H 0.42099 0.04554 0.57108 0.0
H587 H 0.4874 0.03631 0.5924 0.0
O588 O 0.41573 0.07903 0.63742 0.0
O589 O 0.42467 0.03132 0.61755 0.0
O590 O 0.41682 0.07916 0.59793 0.0
O591 O 0.46225 0.07109 0.61876 0.0
H592 H 0.39973 0.03568 0.64476 0.0
H593 H 0.40369 0.10852 0.66186 0.0
H594 H 0.37755 0.02557 0.67057 0.0
H595 H 0.38136 0.09708 0.68744 0.0
H596 H 0.49114 0.98802 0.62071 0.0
H597 H 0.4064 0.98859 0.61339 0.0
H598 H 0.47022 0.0265 0.62141 0.0
H599 H 0.42852 0.95066 0.6129 0.0
H600 H 0.32041 0.06877 0.63016 0.0
H601 H 0.34192 0.00708 0.60119 0.0
H602 H 0.48082 0.06798 0.68615 0.0
H603 H 0.44988 0.99801 0.68215 0.0
H604 H 0.40286 0.08708 0.56668 0.0
H605 H 0.39381 0.10829 0.61862 0.0
H606 H 0.37304 0.11671 0.55839 0.0
H607 H 0.36421 0.13739 0.60944 0.0
H608 H 0.46039 0.08971 0.58784 0.0
H609 H 0.50382 0.07859 0.63134 0.0
H610 H 0.4928 0.1107 0.57375 0.0
H611 H 0.53555 0.09986 0.61647 0.0
H612 H 0.45918 0.16371 0.64803 0.0
H613 H 0.45481 0.17022 0.59364 0.0
H614 H 0.4347 0.03109 0.54343 0.0
H615 H 0.50269 0.02161 0.56519 0.0
Li616 Li 0.05482 0.94143 0.63447 0.0
Li617 Li 0.09113 0.93889 0.61906 0.0
Li618 Li 0.05499 0.94788 0.60459 0.0
Li619 Li 0.06262 0.90788 0.61558 0.0
C620 C 0.06979 0.98932 0.61543 0.0
N621 N 0.06727 0.03367 0.60028 0.0
C622 C 0.08947 -0.00054 0.60809 0.0
C623 C 0.04887 0.00179 0.61514 0.0
C624 C 0.08783 0.0219 0.60049 0.0
C625 C 0.04793 0.02416 0.60738 0.0
C626 C 0.09807 0.91236 0.64604 0.0
C627 C 0.1346 0.8926 0.65047 0.0
N628 N 0.13762 0.9053 0.66497 0.0
C629 C 0.10146 0.92512 0.66103 0.0
C630 C 0.11468 0.89587 0.64075 0.0
C631 C 0.12159 0.92132 0.67041 0.0
C632 C 0.03857 0.93051 0.66641 0.0
N633 N 0.04095 0.94899 0.65547 0.0
C634 C 0.02276 0.97561 0.67495 0.0
C635 C 0.03345 0.9713 0.65939 0.0
C636 C 0.01994 0.95677 0.68651 0.0
C637 C 0.02815 0.93401 0.68208 0.0
H638 H 0.0448 0.91299 0.66291 0.0
H639 H 0.03561 0.98567 0.65043 0.0
C640 C 0.13694 0.94116 0.60661 0.0
N641 N 0.12296 0.94685 0.61982 0.0
C642 C 0.15969 0.94944 0.60617 0.0
C643 C 0.15334 0.96876 0.63313 0.0
C644 C 0.13065 0.96034 0.63296 0.0
C645 C 0.16804 0.96365 0.61948 0.0
H646 H 0.13021 0.93084 0.59617 0.0
H647 H 0.1189 0.96524 0.64301 0.0
C648 C 0.0142 0.92514 0.62643 0.0
N649 N 0.97521 0.92168 0.64647 0.0
C650 C 0.00872 0.90357 0.63435 0.0
C651 C -0.00022 0.94491 0.62863 0.0
C652 C 0.98893 0.90219 0.64443 0.0
C653 C 0.98017 0.94282 0.63884 0.0
C654 C 0.08264 0.90861 0.58548 0.0
C655 C 0.06895 0.90899 0.57092 0.0
C656 C 0.09894 0.89047 0.58766 0.0
C657 C 0.07165 0.89102 0.55883 0.0
C658 C 0.10111 0.87281 0.57529 0.0
N659 N 0.08752 0.87344 0.56126 0.0
C660 C 0.05612 0.97553 0.575 0.0
C661 C 0.01871 0.96271 0.58328 0.0
C662 C 0.04718 0.98601 0.56041 0.0
N663 N 0.04185 0.96419 0.58604 0.0
C664 C 0.00905 0.97276 0.56879 0.0
C665 C 0.0234 0.98437 0.55706 0.0
H666 H 0.07454 0.97582 0.57732 0.0
H667 H 0.00787 0.95313 0.59209 0.0
C668 C 0.06203 0.85852 0.62371 0.0
N669 N 0.05573 0.87515 0.61209 0.0
C670 C 0.05357 0.83522 0.62254 0.0
C671 C 0.03309 0.84647 0.59711 0.0
C672 C 0.04164 0.86958 0.59893 0.0
C673 C 0.03852 0.82901 0.60925 0.0
H674 H 0.0727 0.86364 0.63434 0.0
H675 H 0.03629 0.88335 0.5902 0.0
O676 O 0.07096 0.96723 0.62274 0.0
O677 O 0.07864 0.91607 0.63656 0.0
O678 O 0.03386 0.92706 0.61691 0.0
O679 O 0.08009 0.92589 0.59755 0.0
H680 H 0.10578 0.99005 0.60811 0.0
H681 H 0.03342 0.99411 0.62059 0.0
H682 H 0.10289 0.02992 0.59471 0.0
H683 H 0.03181 0.03392 0.60695 0.0
H684 H 0.14765 0.87998 0.64648 0.0
H685 H 0.08883 0.93805 0.66526 0.0
H686 H 0.11226 0.88579 0.62922 0.0
H687 H 0.12452 0.93117 0.68198 0.0
H688 H 0.01656 0.99339 0.6778 0.0
H689 H 0.02684 0.91907 0.6907 0.0
H690 H 0.17055 0.94507 0.59545 0.0
H691 H 0.15901 0.97998 0.64348 0.0
H692 H 0.01974 0.88812 0.6329 0.0
H693 H 0.00387 0.9618 0.62273 0.0
H694 H 0.98454 0.88564 0.65071 0.0
H695 H 0.96896 0.95803 0.64076 0.0
H696 H 0.05621 0.92286 0.56903 0.0
H697 H 0.10972 0.88997 0.59883 0.0
H698 H 0.06109 0.89101 0.54754 0.0
H699 H 0.11357 0.8586 0.57686 0.0
H700 H 0.05886 0.99445 0.55153 0.0
H701 H 0.99062 0.97118 0.56664 0.0
H702 H 0.05793 0.82258 0.63238 0.0
H703 H 0.02188 0.84254 0.58651 0.0
Li704 Li 0.55743 0.58674 0.1255 0.0
Li705 Li 0.55147 0.54758 0.14001 0.0
Li706 Li 0.58828 0.55691 0.12517 0.0
Li707 Li 0.55316 0.55061 0.10964 0.0
C708 C 0.5902 0.58947 0.15151 0.0
N709 N 0.62133 0.6223 0.16419 0.0
C710 C 0.5936 0.59143 0.16895 0.0
C711 C 0.60265 0.60417 0.1405 0.0
C712 C 0.60941 0.60815 0.17511 0.0
C713 C 0.6183 0.62066 0.14716 0.0
C714 C 0.51047 0.56321 0.11562 0.0
C715 C 0.48058 0.5388 0.10324 0.0
N716 N 0.47198 0.55833 0.09521 0.0
C717 C 0.50124 0.58307 0.10733 0.0
C718 C 0.49997 0.54092 0.11367 0.0
C719 C 0.4818 0.58022 0.09704 0.0
C720 C 0.54723 0.6316 0.11167 0.0
N721 N 0.55004 0.61961 0.12645 0.0
C722 C 0.53872 0.65395 0.14231 0.0
C723 C 0.54616 0.63026 0.14162 0.0
C724 C 0.53488 0.66666 0.12722 0.0
C725 C 0.53951 0.6552 0.11175 0.0
H726 H 0.55019 0.62251 0.09979 0.0
H727 H 0.54842 0.62021 0.15318 0.0
C728 C 0.55467 0.52875 0.17233 0.0
N729 N 0.53955 0.53265 0.1595 0.0
C730 C 0.5469 0.51961 0.18771 0.0
C731 C 0.50826 0.51772 0.1761 0.0
C732 C 0.51676 0.52721 0.161 0.0
C733 C 0.52332 0.51426 0.18986 0.0
H734 H 0.57269 0.53343 0.17074 0.0
H735 H 0.50511 0.53064 0.1506 0.0
C736 C 0.58914 0.57299 0.09173 0.0
N737 N 0.61507 0.5661 0.06279 0.0
C738 C 0.59542 0.54996 0.08676 0.0
C739 C 0.59598 0.59252 0.08196 0.0
C740 C 0.60854 0.54684 0.0721 0.0
C741 C 0.60911 0.58867 0.06738 0.0
C742 C 0.56885 0.50377 0.12241 0.0
C743 C 0.58785 0.49187 0.11544 0.0
C744 C 0.54952 0.4907 0.12758 0.0
C745 C 0.58703 0.46711 0.11353 0.0
C746 C 0.54937 0.46596 0.12545 0.0
N747 N 0.56796 0.45477 0.11852 0.0
C748 C 0.62552 0.53252 0.13799 0.0
C749 C 0.63671 0.55963 0.11648 0.0
C750 C 0.64793 0.52352 0.13899 0.0
N751 N 0.62026 0.54984 0.12662 0.0
C752 C 0.65937 0.55099 0.11695 0.0
C753 C 0.66511 0.53231 0.12808 0.0
H754 H 0.61205 0.52523 0.14596 0.0
H755 H 0.63216 0.57362 0.10769 0.0
C756 C 0.53589 0.55657 0.07719 0.0
N757 N 0.54125 0.53926 0.08858 0.0
C758 C 0.52778 0.55052 0.06116 0.0
C759 C 0.53087 0.50889 0.0688 0.0
C760 C 0.53879 0.51575 0.08474 0.0
C761 C 0.52537 0.5264 0.05676 0.0
H762 H 0.53815 0.57513 0.08056 0.0
H763 H 0.54304 0.50226 0.09392 0.0
O764 O 0.5748 0.57315 0.14532 0.0
O765 O 0.52983 0.56556 0.12543 0.0
O766 O 0.57618 0.57656 0.10598 0.0
O767 O 0.56947 0.52798 0.12454 0.0
H768 H 0.58409 0.58016 0.17763 0.0
H769 H 0.60028 0.60291 0.12697 0.0
H770 H 0.61221 0.60988 0.18859 0.0
H771 H 0.62805 0.63216 0.1388 0.0
H772 H 0.47243 0.5216 0.10149 0.0
H773 H 0.50904 0.60047 0.10876 0.0
H774 H 0.50696 0.52532 0.11986 0.0
H775 H 0.47455 0.59542 0.09049 0.0
H776 H 0.5358 0.66209 0.15454 0.0
H777 H 0.53646 0.66403 0.09978 0.0
H778 H 0.55912 0.51773 0.19799 0.0
H779 H 0.49003 0.51358 0.17706 0.0
H780 H 0.59017 0.53466 0.09411 0.0
H781 H 0.59121 0.61047 0.08563 0.0
H782 H 0.61352 0.5291 0.06812 0.0
H783 H 0.61455 0.60363 0.0597 0.0
H784 H 0.6031 0.50163 0.11157 0.0
H785 H 0.53475 0.49954 0.13309 0.0
H786 H 0.60158 0.45769 0.1081 0.0
H787 H 0.53448 0.45564 0.12932 0.0
H788 H 0.65163 0.50955 0.14805 0.0
H789 H 0.67198 0.55827 0.10825 0.0
H790 H 0.52397 0.56457 0.05217 0.0
H791 H 0.52899 0.49008 0.06595 0.0
Li792 Li 0.9333 0.40796 0.12144 0.0
Li793 Li 0.93766 0.446 0.13531 0.0
Li794 Li 0.90114 0.43556 0.12117 0.0
Li795 Li 0.93557 0.4436 0.10436 0.0
C796 C 0.92268 0.40909 0.15582 0.0
N797 N 0.93724 0.38751 0.18537 0.0
C798 C 0.946 0.40332 0.15807 0.0
C799 C 0.90678 0.40387 0.1686 0.0
C800 C 0.95301 0.39242 0.1731 0.0
C801 C 0.91448 0.39295 0.18345 0.0
C802 C 0.97998 0.44295 0.1186 0.0
C803 C 0.00032 0.48014 0.11479 0.0
N804 N 0.02077 0.4685 0.1168 0.0
C805 C 0.0012 0.43135 0.12059 0.0
C806 C 0.97952 0.46754 0.11566 0.0
C807 C 0.02162 0.44459 0.11965 0.0
C808 C 0.96395 0.37161 0.11431 0.0
N809 N 0.94328 0.37572 0.12192 0.0
C810 C 0.94061 0.33488 0.13041 0.0
C811 C 0.93144 0.35797 0.12984 0.0
C812 C 0.96226 0.33034 0.12302 0.0
C813 C 0.97389 0.34899 0.11482 0.0
H814 H 0.97285 0.38604 0.108 0.0
H815 H 0.91511 0.3618 0.13592 0.0
C816 C 0.93466 0.47598 0.16351 0.0
N817 N 0.94958 0.46221 0.15449 0.0
C818 C 0.94176 0.48656 0.17864 0.0
C819 C 0.97954 0.46897 0.17467 0.0
C820 C 0.97167 0.45858 0.15974 0.0
C821 C 0.96442 0.48289 0.18444 0.0
H822 H 0.91707 0.47822 0.15913 0.0
H823 H 0.98297 0.44689 0.15274 0.0
C824 C 0.89907 0.39812 0.098 0.0
N825 N 0.87016 0.36039 0.09034 0.0
C826 C 0.8977 0.38957 0.08143 0.0
C827 C 0.88575 0.38748 0.11068 0.0
C828 C 0.88297 0.37048 0.07781 0.0
C829 C 0.87124 0.36843 0.10655 0.0
C830 C 0.91301 0.48835 0.11665 0.0
C831 C 0.89398 0.4934 0.10636 0.0
C832 C 0.92541 0.5071 0.12398 0.0
C833 C 0.88778 0.51714 0.10347 0.0
C834 C 0.91866 0.53061 0.12078 0.0
N835 N 0.90015 0.5351 0.11067 0.0
C836 C 0.85988 0.4477 0.1374 0.0
C837 C 0.85598 0.44123 0.10789 0.0
C838 C 0.83698 0.45541 0.13848 0.0
N839 N 0.86892 0.44118 0.12224 0.0
C840 C 0.83308 0.44902 0.10835 0.0
C841 C 0.82346 0.45665 0.12375 0.0
H842 H 0.87075 0.44777 0.14854 0.0
H843 H 0.86377 0.43624 0.09596 0.0
C844 C 0.96558 0.44356 0.07701 0.0
N845 N 0.94689 0.45516 0.08342 0.0
C846 C 0.9748 0.45025 0.06144 0.0
C847 C 0.94498 0.4803 0.05908 0.0
C848 C 0.93644 0.47314 0.0748 0.0
C849 C 0.96443 0.4688 0.05225 0.0
H850 H 0.9732 0.42892 0.08396 0.0
H851 H 0.92136 0.48174 0.07996 0.0
O852 O 0.91531 0.41988 0.14127 0.0
O853 O 0.95986 0.43016 0.11958 0.0
O854 O 0.91352 0.41674 0.10168 0.0
O855 O 0.91911 0.46521 0.11995 0.0
H856 H 0.95858 0.40718 0.14834 0.0
H857 H 0.88867 0.40824 0.16704 0.0
H858 H 0.97099 0.38787 0.175 0.0
H859 H 0.90236 0.38882 0.19345 0.0
H860 H 0.0002 0.49916 0.1125 0.0
H861 H 0.00187 0.41234 0.12295 0.0
H862 H 0.96334 0.47678 0.11395 0.0
H863 H 0.03816 0.43584 0.12121 0.0
H864 H 0.93122 0.32091 0.13691 0.0
H865 H 0.99048 0.34607 0.1088 0.0
H866 H 0.92957 0.49713 0.18585 0.0
H867 H 0.99696 0.4652 0.17893 0.0
H868 H 0.90793 0.39761 0.07148 0.0
H869 H 0.88656 0.3938 0.12359 0.0
H870 H 0.88174 0.36368 0.06503 0.0
H871 H 0.86085 0.36002 0.11624 0.0
H872 H 0.88433 0.47919 0.10044 0.0
H873 H 0.94009 0.50358 0.13207 0.0
H874 H 0.87316 0.52128 0.09546 0.0
H875 H 0.92814 0.54528 0.12635 0.0
H876 H 0.83027 0.46136 0.15055 0.0
H877 H 0.82314 0.44954 0.09675 0.0
H878 H 0.98959 0.44068 0.05647 0.0
H879 H 0.93654 0.49474 0.05238 0.0
Li880 Li 0.05256 0.45005 0.38156 0.0
Li881 Li 0.08794 0.44331 0.36653 0.0
Li882 Li 0.05174 0.4534 0.35121 0.0
Li883 Li 0.05671 0.41394 0.36556 0.0
C884 C 0.06937 0.49679 0.36945 0.0
N885 N 0.06917 0.54568 0.37401 0.0
C886 C 0.08807 0.50808 0.3773 0.0
C887 C 0.05074 0.51043 0.36369 0.0
C888 C 0.08759 0.53279 0.37955 0.0
C889 C 0.05092 0.53511 0.36618 0.0
C890 C 0.08744 0.42646 0.39992 0.0
C891 C 0.10592 0.40954 0.42448 0.0
N892 N 0.11243 0.43179 0.42945 0.0
C893 C 0.09426 0.44914 0.40528 0.0
C894 C 0.09324 0.40648 0.40959 0.0
C895 C 0.1069 0.45147 0.42024 0.0
C896 C 0.03286 0.44371 0.41314 0.0
N897 N 0.0401 0.46119 0.40245 0.0
C898 C 0.03128 0.4911 0.42297 0.0
C899 C 0.03932 0.48458 0.40698 0.0
C900 C 0.02377 0.47339 0.43424 0.0
C901 C 0.02437 0.44945 0.42912 0.0
H902 H 0.034 0.42523 0.40928 0.0
H903 H 0.04517 0.4982 0.39839 0.0
C904 C 0.12629 0.46778 0.35553 0.0
N905 N 0.12009 0.44948 0.36582 0.0
C906 C 0.14909 0.47576 0.35517 0.0
C907 C 0.15896 0.44526 0.37555 0.0
C908 C 0.1359 0.4378 0.37547 0.0
C909 C 0.1657 0.46481 0.36554 0.0
H910 H 0.11331 0.47658 0.3479 0.0
H911 H 0.13056 0.4231 0.38341 0.0
C912 C 0.00946 0.43945 0.37407 0.0
N913 N 0.96931 0.44743 0.39216 0.0
C914 C -0.00137 0.42064 0.38255 0.0
C915 C -0.00033 0.46224 0.37459 0.0
C916 C 0.97838 0.42505 0.39167 0.0
C917 C 0.97943 0.46594 0.38386 0.0
C918 C 0.09036 0.41118 0.33998 0.0
C919 C 0.09506 0.41015 0.32266 0.0
C920 C 0.10172 0.39563 0.35103 0.0
C921 C 0.11103 0.39348 0.31666 0.0
C922 C 0.11758 0.37923 0.34453 0.0
N923 N 0.12186 0.3785 0.32762 0.0
C924 C 0.05491 0.48082 0.32179 0.0
C925 C 0.01729 0.46632 0.32788 0.0
C926 C 0.04727 0.4904 0.30649 0.0
N927 N 0.03998 0.46876 0.33192 0.0
C928 C 0.00889 0.47566 0.31273 0.0
C929 C 0.02407 0.48743 0.30164 0.0
H930 H 0.07289 0.48238 0.3254 0.0
H931 H 0.00591 0.45642 0.33616 0.0
C932 C 0.04291 0.37069 0.3796 0.0
N933 N 0.04854 0.3813 0.36471 0.0
C934 C 0.03426 0.34746 0.37977 0.0
C935 C 0.03858 0.34606 0.34935 0.0
C936 C 0.04671 0.36953 0.34973 0.0
C937 C 0.03183 0.335 0.36449 0.0
H938 H 0.04442 0.38062 0.39129 0.0
H939 H 0.05104 0.37855 0.33806 0.0
O940 O 0.06964 0.47262 0.36701 0.0
O941 O 0.07496 0.42367 0.38536 0.0
O942 O 0.02959 0.43561 0.36539 0.0
O943 O 0.07483 0.42749 0.34602 0.0
H944 H 0.10284 0.4979 0.38159 0.0
H945 H 0.03631 0.50213 0.35733 0.0
H946 H 0.1019 0.54174 0.38567 0.0
H947 H 0.03656 0.54586 0.36184 0.0
H948 H 0.11057 0.39423 0.43208 0.0
H949 H 0.08977 0.46476 0.39802 0.0
H950 H 0.08803 0.3888 0.40561 0.0
H951 H 0.11229 0.46894 0.42454 0.0
H952 H 0.03094 0.50978 0.4265 0.0
H953 H 0.01894 0.43529 0.43756 0.0
H954 H 0.15359 0.49054 0.34698 0.0
H955 H 0.17116 0.43634 0.3838 0.0
H956 H 0.00583 0.40286 0.38219 0.0
H957 H 0.00773 0.47696 0.36803 0.0
H958 H 0.96991 0.41069 0.39838 0.0
H959 H 0.97179 0.48353 0.38448 0.0
H960 H 0.08643 0.42213 0.31396 0.0
H961 H 0.09835 0.39618 0.36448 0.0
H962 H 0.11483 0.39247 0.30328 0.0
H963 H 0.12648 0.36708 0.35293 0.0
H964 H 0.05948 0.49951 0.29835 0.0
H965 H 0.99097 0.47264 0.30938 0.0
H966 H 0.02932 0.33939 0.39169 0.0
H967 H 0.03676 0.33698 0.33733 0.0
Li968 Li 0.44067 0.54828 0.38937 0.0
Li969 Li 0.40513 0.55466 0.37375 0.0
Li970 Li 0.44304 0.5478 0.35889 0.0
Li971 Li 0.43521 0.58604 0.37309 0.0
C972 C 0.42769 0.50427 0.38134 0.0
N973 N 0.43312 0.46108 0.3977 0.0
C974 C 0.40936 0.49441 0.39049 0.0
C975 C 0.44866 0.492 0.38029 0.0
C976 C 0.41248 0.4726 0.39873 0.0
C977 C 0.45111 0.47023 0.38871 0.0
C978 C 0.40082 0.58694 0.40094 0.0
C979 C 0.37457 0.62035 0.40167 0.0
N980 N 0.36744 0.61357 0.41734 0.0
C981 C 0.39346 0.58048 0.41715 0.0
C982 C 0.3915 0.60718 0.39321 0.0
C983 C 0.37648 0.5941 0.42519 0.0
C984 C 0.47532 0.53828 0.41343 0.0
N985 N 0.45247 0.5359 0.40986 0.0
C986 C 0.44543 0.51813 0.43681 0.0
C987 C 0.43751 0.52613 0.42115 0.0
C988 C 0.46894 0.52055 0.44096 0.0
C989 C 0.48398 0.53066 0.42897 0.0
H990 H 0.48672 0.54664 0.40437 0.0
H991 H 0.41934 0.52489 0.41808 0.0
C992 C 0.3629 0.54425 0.3578 0.0
N993 N 0.37317 0.54723 0.37311 0.0
C994 C 0.34 0.53653 0.35679 0.0
C995 C 0.33877 0.53488 0.38734 0.0
C996 C 0.36164 0.54275 0.38775 0.0
C997 C 0.32773 0.53148 0.3717 0.0
H998 H 0.3727 0.54726 0.34635 0.0
H999 H 0.37045 0.54447 0.39973 0.0
C1000 C 0.48495 0.56554 0.3685 0.0
N1001 N 0.52903 0.56546 0.35501 0.0
C1002 C 0.49417 0.58639 0.36152 0.0
C1003 C 0.49826 0.54473 0.3688 0.0
C1004 C 0.51646 0.58597 0.35473 0.0
C1005 C 0.52047 0.54502 0.36186 0.0
C1006 C 0.40846 0.58645 0.34229 0.0
C1007 C 0.4189 0.59014 0.32656 0.0
C1008 C 0.3876 0.59787 0.34604 0.0
C1009 C 0.40851 0.60558 0.31496 0.0
C1010 C 0.37774 0.61317 0.3341 0.0
N1011 N 0.38833 0.6167 0.31894 0.0
C1012 C 0.45098 0.51143 0.33476 0.0
C1013 C 0.47081 0.54775 0.32967 0.0
C1014 C 0.45939 0.50185 0.31964 0.0
N1015 N 0.45672 0.53404 0.33939 0.0
C1016 C 0.47989 0.53879 0.31466 0.0
C1017 C 0.47397 0.51568 0.30938 0.0
H1018 H 0.43938 0.50108 0.34258 0.0
H1019 H 0.47437 0.56596 0.33327 0.0
C1020 C 0.45152 0.62728 0.38816 0.0
N1021 N 0.44269 0.61908 0.37333 0.0
C1022 C 0.4604 0.65038 0.38924 0.0
C1023 C 0.45025 0.65646 0.3599 0.0
C1024 C 0.44169 0.63317 0.35936 0.0
C1025 C 0.46015 0.66516 0.3749 0.0
H1026 H 0.45231 0.61554 0.39901 0.0
H1027 H 0.43512 0.62619 0.34761 0.0
O1028 O 0.42508 0.52577 0.37339 0.0
O1029 O 0.41751 0.57381 0.39294 0.0
O1030 O 0.4631 0.56559 0.37515 0.0
O1031 O 0.41839 0.5713 0.35376 0.0
H1032 H 0.39297 0.50359 0.39135 0.0
H1033 H 0.46288 0.49919 0.37304 0.0
H1034 H 0.39849 0.46485 0.40596 0.0
H1035 H 0.46729 0.4606 0.38808 0.0
H1036 H 0.36715 0.63601 0.3958 0.0
H1037 H 0.40069 0.56503 0.42341 0.0
H1038 H 0.39738 0.61281 0.38088 0.0
H1039 H 0.3705 0.5892 0.43768 0.0
H1040 H 0.43326 0.51023 0.44557 0.0
H1041 H 0.50213 0.5333 0.43174 0.0
H1042 H 0.33227 0.53375 0.34448 0.0
H1043 H 0.3299 0.53125 0.39913 0.0
H1044 H 0.4842 0.60269 0.36123 0.0
H1045 H 0.49152 0.52853 0.37432 0.0
H1046 H 0.52376 0.60193 0.3492 0.0
H1047 H 0.5309 0.52901 0.36194 0.0
H1048 H 0.43493 0.58131 0.32337 0.0
H1049 H 0.37894 0.59478 0.35795 0.0
H1050 H 0.41648 0.60872 0.30278 0.0
H1051 H 0.36163 0.62215 0.33685 0.0
H1052 H 0.45434 0.48401 0.31589 0.0
H1053 H 0.49062 0.55021 0.30687 0.0
H1054 H 0.4677 0.65648 0.40109 0.0
H1055 H 0.45001 0.66716 0.3485 0.0
Li1056 Li 0.44617 0.44727 0.88871 0.0
Li1057 Li 0.4394 0.41207 0.87292 0.0
Li1058 Li 0.44461 0.45013 0.85809 0.0
Li1059 Li 0.40874 0.44286 0.87559 0.0
C1060 C 0.48932 0.42723 0.87507 0.0
N1061 N 0.53522 0.41618 0.88089 0.0
C1062 C 0.49521 0.40677 0.88423 0.0
C1063 C 0.50682 0.44191 0.86871 0.0
C1064 C 0.51849 0.40153 0.88708 0.0
C1065 C 0.52991 0.43608 0.87185 0.0
C1066 C 0.4235 0.42118 0.91049 0.0
C1067 C 0.4106 0.43431 0.93796 0.0
N1068 N 0.42747 0.42096 0.94531 0.0
C1069 C 0.44056 0.4074 0.91832 0.0
C1070 C 0.40827 0.4346 0.92038 0.0
C1071 C 0.44233 0.40758 0.93594 0.0
C1072 C 0.44767 0.47834 0.91633 0.0
N1073 N 0.4597 0.4605 0.90869 0.0
C1074 C 0.48719 0.46004 0.93122 0.0
C1075 C 0.47923 0.45143 0.91573 0.0
C1076 C 0.47489 0.47817 0.93956 0.0
C1077 C 0.45502 0.48754 0.93181 0.0
H1078 H 0.43195 0.48497 0.91062 0.0
H1079 H 0.48821 0.4369 0.90975 0.0
C1080 C 0.46094 0.37295 0.85778 0.0
N1081 N 0.44666 0.37918 0.87068 0.0
C1082 C 0.4691 0.34963 0.85643 0.0
C1083 C 0.44744 0.33946 0.88157 0.0
C1084 C 0.43948 0.36297 0.88232 0.0
C1085 C 0.46281 0.3326 0.86864 0.0
H1086 H 0.46649 0.38634 0.84879 0.0
H1087 H 0.42818 0.36849 0.89249 0.0
C1088 C 0.43894 0.49353 0.87498 0.0
N1089 N 0.45834 0.53856 0.87456 0.0
C1090 C 0.42478 0.51371 0.87437 0.0
C1091 C 0.46293 0.49623 0.87542 0.0
C1092 C 0.43493 0.53633 0.87415 0.0
C1093 C 0.47242 0.51914 0.87519 0.0
C1094 C 0.41473 0.40666 0.84519 0.0
C1095 C 0.42505 0.4034 0.82938 0.0
C1096 C 0.40007 0.38907 0.85169 0.0
C1097 C 0.42064 0.38246 0.82035 0.0
C1098 C 0.39613 0.36837 0.84228 0.0
N1099 N 0.40641 0.36552 0.82694 0.0
C1100 C 0.47338 0.45151 0.8302 0.0
C1101 C 0.44812 0.48476 0.83179 0.0
C1102 C 0.48228 0.4596 0.81488 0.0
N1103 N 0.45656 0.46403 0.83823 0.0
C1104 C 0.45662 0.49361 0.81648 0.0
C1105 C 0.4738 0.48084 0.80774 0.0
H1106 H 0.47942 0.43486 0.83552 0.0
H1107 H 0.43452 0.49419 0.83837 0.0
C1108 C 0.37218 0.47037 0.88705 0.0
N1109 N 0.3772 0.45125 0.87714 0.0
C1110 C 0.34969 0.47924 0.88778 0.0
C1111 C 0.33785 0.44838 0.86822 0.0
C1112 C 0.36064 0.44012 0.86785 0.0
C1113 C 0.33222 0.46839 0.87813 0.0
H1114 H 0.38582 0.479 0.89414 0.0
H1115 H 0.36521 0.42526 0.85981 0.0
O1116 O 0.46663 0.43242 0.87176 0.0
O1117 O 0.42195 0.42183 0.89323 0.0
O1118 O 0.42923 0.47128 0.87515 0.0
O1119 O 0.41926 0.42677 0.8544 0.0
H1120 H 0.48199 0.39516 0.88927 0.0
H1121 H 0.50267 0.45761 0.86136 0.0
H1122 H 0.52326 0.38583 0.89423 0.0
H1123 H 0.54361 0.44732 0.86703 0.0
H1124 H 0.39906 0.44477 0.94577 0.0
H1125 H 0.45252 0.39695 0.91087 0.0
H1126 H 0.39493 0.4453 0.91453 0.0
H1127 H 0.45559 0.39718 0.94215 0.0
H1128 H 0.50234 0.45198 0.93688 0.0
H1129 H 0.44512 0.50166 0.93772 0.0
H1130 H 0.48052 0.34512 0.84606 0.0
H1131 H 0.4423 0.32708 0.89138 0.0
H1132 H 0.40616 0.5119 0.87402 0.0
H1133 H 0.47409 0.48082 0.87605 0.0
H1134 H 0.42419 0.55212 0.87365 0.0
H1135 H 0.49097 0.52149 0.87554 0.0
H1136 H 0.43643 0.41684 0.82418 0.0
H1137 H 0.39217 0.39122 0.86401 0.0
H1138 H 0.42857 0.37965 0.80812 0.0
H1139 H 0.38496 0.35453 0.8472 0.0
H1140 H 0.49508 0.44884 0.80843 0.0
H1141 H 0.44967 0.5101 0.81148 0.0
H1142 H 0.34606 0.49453 0.89573 0.0
H1143 H 0.32497 0.43971 0.86041 0.0
Li1144 Li 0.05695 0.55001 0.88901 0.0
Li1145 Li 0.0621 0.58879 0.87615 0.0
Li1146 Li 0.05759 0.55279 0.8584 0.0
Li1147 Li 0.09296 0.55922 0.87444 0.0
C1148 C 0.01661 0.57676 0.88305 0.0
N1149 N 0.98014 0.59658 0.90072 0.0
C1150 C 0.01978 0.58477 0.89963 0.0
C1151 C 0.9949 0.57881 0.87546 0.0
C1152 C 0.00114 0.59474 0.90835 0.0
C1153 C 0.97667 0.58888 0.8846 0.0
C1154 C 0.09175 0.59169 0.90382 0.0
C1155 C 0.12054 0.62275 0.90508 0.0
N1156 N 0.115 0.62671 0.92156 0.0
C1157 C 0.08643 0.59595 0.92079 0.0
C1158 C 0.10899 0.60509 0.8959 0.0
C1159 C 0.09835 0.61378 0.92954 0.0
C1160 C 0.05963 0.5313 0.92129 0.0
N1161 N 0.04486 0.53414 0.90812 0.0
C1162 C 0.01356 0.51847 0.92434 0.0
C1163 C 0.02231 0.52749 0.90918 0.0
C1164 C 0.02823 0.51617 0.93843 0.0
C1165 C 0.05168 0.52222 0.93662 0.0
H1166 H 0.0775 0.53669 0.91999 0.0
H1167 H 0.01095 0.52996 0.89847 0.0
C1168 C 0.04791 0.63162 0.86183 0.0
N1169 N 0.05346 0.6215 0.87691 0.0
C1170 C 0.03826 0.65443 0.86128 0.0
C1171 C 0.04046 0.65609 0.89179 0.0
C1172 C 0.05022 0.63331 0.89174 0.0
C1173 C 0.03402 0.66677 0.87643 0.0
H1174 H 0.05021 0.62159 0.85026 0.0
H1175 H 0.05427 0.62474 0.90359 0.0
C1176 C 0.0639 0.50752 0.87192 0.0
N1177 N 0.04298 0.46326 0.87037 0.0
C1178 C 0.07717 0.48679 0.87331 0.0
C1179 C 0.03997 0.50575 0.86973 0.0
C1180 C 0.06628 0.46457 0.87249 0.0
C1181 C 0.02973 0.48321 0.86899 0.0
C1182 C 0.09481 0.5886 0.84471 0.0
C1183 C 0.10003 0.57614 0.82988 0.0
C1184 C 0.10437 0.6112 0.84737 0.0
C1185 C 0.11525 0.58621 0.81816 0.0
C1186 C 0.11949 0.62068 0.83535 0.0
N1187 N 0.12461 0.60808 0.82113 0.0
C1188 C 0.02923 0.55653 0.83048 0.0
C1189 C 0.0555 0.52411 0.82874 0.0
C1190 C 0.02196 0.55258 0.81393 0.0
N1191 N 0.04596 0.54264 0.83738 0.0
C1192 C 0.04872 0.51949 0.8121 0.0
C1193 C 0.03218 0.53426 0.80438 0.0
H1194 H 0.02221 0.57129 0.83766 0.0
H1195 H 0.0691 0.51365 0.8345 0.0
C1196 C 0.1371 0.5527 0.88915 0.0
N1197 N 0.12514 0.55256 0.87435 0.0
C1198 C 0.1601 0.54519 0.88959 0.0
C1199 C 0.158 0.53733 0.85957 0.0
C1200 C 0.13505 0.54496 0.85973 0.0
C1201 C 0.17077 0.53711 0.87468 0.0
H1202 H 0.12857 0.55784 0.90075 0.0
H1203 H 0.12491 0.54401 0.8483 0.0
O1204 O 0.03463 0.56712 0.87416 0.0
O1205 O 0.08005 0.57446 0.89506 0.0
O1206 O 0.07441 0.52935 0.87277 0.0
O1207 O 0.07962 0.57919 0.85617 0.0
H1208 H 0.03645 0.58333 0.90572 0.0
H1209 H 0.99216 0.57269 0.86263 0.0
H1210 H 0.00336 0.60102 0.92119 0.0
H1211 H 0.95977 0.59059 0.87888 0.0
H1212 H 0.13393 0.63325 0.8991 0.0
H1213 H 0.07312 0.5857 0.9271 0.0
H1214 H 0.11357 0.60171 0.88288 0.0
H1215 H 0.09435 0.61736 0.94266 0.0
H1216 H 0.99533 0.51423 0.92519 0.0
H1217 H 0.06372 0.52029 0.94703 0.0
H1218 H 0.03327 0.66189 0.84918 0.0
H1219 H 0.03761 0.66507 0.90374 0.0
H1220 H 0.09572 0.48788 0.87501 0.0
H1221 H 0.02939 0.52156 0.86861 0.0
H1222 H 0.07634 0.44837 0.87356 0.0
H1223 H 0.01124 0.48158 0.86731 0.0
H1224 H 0.09256 0.55878 0.82749 0.0
H1225 H 0.09998 0.62144 0.85852 0.0
H1226 H 0.11959 0.57667 0.8067 0.0
H1227 H 0.12707 0.63812 0.83729 0.0
H1228 H 0.00894 0.56417 0.8085 0.0
H1229 H 0.05716 0.50535 0.8051 0.0
H1230 H 0.16911 0.54481 0.90159 0.0
H1231 H 0.16554 0.53133 0.84777 0.0
Li1232 Li 0.90911 0.55724 0.61868 0.0
Li1233 Li 0.94699 0.55386 0.63234 0.0
Li1234 Li 0.93768 0.58844 0.61464 0.0
Li1235 Li 0.94412 0.54884 0.60237 0.0
C1236 C 0.90584 0.58402 0.647 0.0
N1237 N 0.87016 0.59397 0.66912 0.0
C1238 C 0.90517 0.57313 0.66289 0.0
C1239 C 0.88851 0.60013 0.64241 0.0
C1240 C 0.88695 0.57836 0.67389 0.0
C1241 C 0.87057 0.60487 0.65375 0.0
C1242 C 0.93009 0.5068 0.61326 0.0
C1243 C 0.95115 0.4719 0.60427 0.0
N1244 N 0.93131 0.46261 0.5978 0.0
C1245 C 0.90987 0.49685 0.60663 0.0
C1246 C 0.95088 0.49418 0.61218 0.0
C1247 C 0.91086 0.4745 0.59883 0.0
C1248 C 0.86399 0.55106 0.60632 0.0
N1249 N 0.87728 0.5495 0.62044 0.0
C1250 C 0.84599 0.53235 0.63595 0.0
C1251 C 0.86882 0.54025 0.63506 0.0
C1252 C 0.83188 0.53314 0.62146 0.0
C1253 C 0.84121 0.54285 0.60651 0.0
H1254 H 0.87137 0.55787 0.59472 0.0
H1255 H 0.87998 0.53842 0.64594 0.0
C1256 C 0.96948 0.56349 0.66241 0.0
N1257 N 0.96234 0.54516 0.65248 0.0
C1258 C 0.98061 0.55894 0.67767 0.0
C1259 C 0.9764 0.51663 0.67243 0.0
C1260 C 0.96553 0.52203 0.6571 0.0
C1261 C 0.98412 0.53527 0.68287 0.0
H1262 H 0.96625 0.58169 0.65852 0.0
H1263 H 0.95942 0.50783 0.649 0.0
C1264 C 0.91448 0.58882 0.5855 0.0
N1265 N 0.90627 0.62448 0.56216 0.0
C1266 C 0.92745 0.58988 0.5706 0.0
C1267 C 0.89717 0.6057 0.58845 0.0
C1268 C 0.92307 0.6081 0.55897 0.0
C1269 C 0.89334 0.62365 0.57652 0.0
C1270 C 0.98728 0.57031 0.62213 0.0
C1271 C 0.99487 0.59186 0.6291 0.0
C1272 C 0.00109 0.54995 0.62351 0.0
C1273 C 0.0161 0.59259 0.63751 0.0
C1274 C 0.02219 0.55141 0.63205 0.0
N1275 N 0.02919 0.57252 0.63882 0.0
C1276 C 0.93908 0.63688 0.62459 0.0
C1277 C 0.95667 0.62827 0.59818 0.0
C1278 C 0.94721 0.66033 0.62395 0.0
N1279 N 0.94412 0.62139 0.61188 0.0
C1280 C 0.96483 0.65163 0.59691 0.0
C1281 C 0.96053 0.66782 0.61008 0.0
H1282 H 0.92964 0.63075 0.63555 0.0
H1283 H 0.96126 0.61533 0.58863 0.0
C1284 C 0.94097 0.52192 0.57232 0.0
N1285 N 0.95572 0.53369 0.58278 0.0
C1286 C 0.9488 0.51305 0.55685 0.0
C1287 C 0.98674 0.52887 0.56319 0.0
C1288 C 0.97826 0.53712 0.57862 0.0
C1289 C 0.97184 0.51694 0.55203 0.0
H1290 H 0.92295 0.52016 0.57573 0.0
H1291 H 0.98945 0.54703 0.58702 0.0
O1292 O 0.92348 0.57906 0.63604 0.0
O1293 O 0.92954 0.52877 0.62077 0.0
O1294 O 0.91863 0.57127 0.59712 0.0
O1295 O 0.96633 0.56909 0.61415 0.0
H1296 H 0.91844 0.56059 0.66664 0.0
H1297 H 0.8889 0.60883 0.63021 0.0
H1298 H 0.88613 0.56998 0.68619 0.0
H1299 H 0.85698 0.61722 0.65034 0.0
H1300 H 0.96715 0.46201 0.60324 0.0
H1301 H 0.89362 0.50632 0.60738 0.0
H1302 H 0.96666 0.50161 0.61728 0.0
H1303 H 0.89537 0.46662 0.59357 0.0
H1304 H 0.83963 0.52541 0.64785 0.0
H1305 H 0.83137 0.54337 0.59488 0.0
H1306 H 0.98586 0.57382 0.68553 0.0
H1307 H 0.97877 0.49816 0.67606 0.0
H1308 H 0.9409 0.57694 0.56811 0.0
H1309 H 0.88685 0.60497 0.59984 0.0
H1310 H 0.93307 0.60924 0.54744 0.0
H1311 H 0.88008 0.63691 0.57867 0.0
H1312 H 0.9844 0.60779 0.6282 0.0
H1313 H 0.99548 0.53314 0.61818 0.0
H1314 H 0.02213 0.60911 0.64305 0.0
H1315 H 0.03298 0.53575 0.63331 0.0
H1316 H 0.94356 0.67234 0.63435 0.0
H1317 H 0.97539 0.65662 0.58616 0.0
H1318 H 0.93674 0.50425 0.54843 0.0
H1319 H 0.00462 0.53216 0.55987 0.0
Li1320 Li 0.55647 0.44807 0.63869 0.0
Li1321 Li 0.59388 0.4395 0.62223 0.0
Li1322 Li 0.55706 0.44557 0.60793 0.0
Li1323 Li 0.56266 0.41023 0.6237 0.0
C1324 C 0.56711 0.48962 0.61495 0.0
N1325 N 0.55258 0.5303 0.59831 0.0
C1326 C 0.58071 0.49958 0.60216 0.0
C1327 C 0.54618 0.50043 0.61934 0.0
C1328 C 0.57305 0.52012 0.59387 0.0
C1329 C 0.53913 0.52098 0.61078 0.0
C1330 C 0.58627 0.40264 0.65083 0.0
C1331 C 0.60778 0.36585 0.65225 0.0
N1332 N 0.59497 0.35909 0.66586 0.0
C1333 C 0.57336 0.39539 0.66485 0.0
C1334 C 0.60366 0.38782 0.64447 0.0
C1335 C 0.57801 0.37328 0.67226 0.0
C1336 C 0.52774 0.44847 0.66667 0.0
N1337 N 0.54365 0.46176 0.65829 0.0
C1338 C 0.54152 0.49244 0.67919 0.0
C1339 C 0.55061 0.48341 0.66411 0.0
C1340 C 0.52529 0.47891 0.68832 0.0
C1341 C 0.51831 0.45671 0.68179 0.0
H1342 H 0.52272 0.43123 0.66173 0.0
H1343 H 0.5634 0.4935 0.65715 0.0
C1344 C 0.63418 0.45626 0.60707 0.0
N1345 N 0.62586 0.44602 0.6214 0.0
C1346 C 0.65693 0.46448 0.60646 0.0
C1347 C 0.66255 0.4499 0.63497 0.0
C1348 C 0.6395 0.44243 0.63516 0.0
C1349 C 0.67124 0.46156 0.62062 0.0
H1350 H 0.62292 0.45865 0.59628 0.0
H1351 H 0.6323 0.43443 0.64644 0.0
C1352 C 0.51254 0.4312 0.61988 0.0
N1353 N 0.46606 0.43188 0.61186 0.0
C1354 C 0.50313 0.41337 0.60962 0.0
C1355 C 0.49821 0.44911 0.62635 0.0
C1356 C 0.47961 0.41411 0.60563 0.0
C1357 C 0.47479 0.44922 0.62206 0.0
C1358 C 0.58059 0.40458 0.59097 0.0
C1359 C 0.55995 0.39875 0.58279 0.0
C1360 C 0.60122 0.39373 0.58592 0.0
C1361 C 0.56023 0.38191 0.56977 0.0
C1362 C 0.60079 0.37697 0.57284 0.0
N1363 N 0.58047 0.37144 0.56512 0.0
C1364 C 0.55912 0.45707 0.57373 0.0
C1365 C 0.52347 0.46819 0.58621 0.0
C1366 C 0.55149 0.46461 0.5579 0.0
N1367 N 0.54491 0.45838 0.58739 0.0
C1368 C 0.51517 0.47614 0.57063 0.0
C1369 C 0.52912 0.47397 0.55618 0.0
H1370 H 0.57638 0.44993 0.5751 0.0
H1371 H 0.51276 0.46986 0.5973 0.0
C1372 C 0.53507 0.37333 0.63515 0.0
N1373 N 0.55402 0.37741 0.62542 0.0
C1374 C 0.52555 0.35054 0.6362 0.0
C1375 C 0.55569 0.33624 0.61762 0.0
C1376 C 0.5648 0.35933 0.61709 0.0
C1377 C 0.53549 0.33168 0.62701 0.0
H1378 H 0.52708 0.38798 0.64187 0.0
H1379 H 0.58016 0.36282 0.60976 0.0
O1380 O 0.5739 0.46905 0.62283 0.0
O1381 O 0.5815 0.42383 0.64303 0.0
O1382 O 0.53545 0.43062 0.62416 0.0
O1383 O 0.58077 0.42095 0.60379 0.0
H1384 H 0.5969 0.49143 0.59855 0.0
H1385 H 0.53535 0.49288 0.62911 0.0
H1386 H 0.58334 0.52794 0.58389 0.0
H1387 H 0.5229 0.52945 0.61398 0.0
H1388 H 0.62108 0.35413 0.64742 0.0
H1389 H 0.55978 0.40663 0.66986 0.0
H1390 H 0.61362 0.39311 0.6335 0.0
H1391 H 0.5681 0.36737 0.68308 0.0
H1392 H 0.54725 0.5097 0.68369 0.0
H1393 H 0.50625 0.44541 0.68854 0.0
H1394 H 0.66321 0.47328 0.59516 0.0
H1395 H 0.67316 0.44751 0.64613 0.0
H1396 H 0.51377 0.39896 0.60492 0.0
H1397 H 0.50513 0.46288 0.63448 0.0
H1398 H 0.47212 0.40047 0.59765 0.0
H1399 H 0.46355 0.46308 0.62686 0.0
H1400 H 0.54394 0.40726 0.58638 0.0
H1401 H 0.61736 0.39815 0.59212 0.0
H1402 H 0.54437 0.3772 0.56334 0.0
H1403 H 0.6166 0.36835 0.56884 0.0
H1404 H 0.56297 0.46315 0.54713 0.0
H1405 H 0.49784 0.48336 0.56982 0.0
H1406 H 0.51039 0.34783 0.644 0.0
H1407 H 0.56396 0.32235 0.61028 0.0
H1408 H 0.28886 0.94405 0.10479 0.0
H1409 H 0.30962 0.99794 0.14081 0.0
H1410 H 0.25031 0.96163 0.10352 0.0
H1411 H 0.27088 0.01499 0.13998 0.0
H1412 H 0.20789 0.05489 0.11872 0.0
H1413 H 0.24639 0.03716 0.12013 0.0
H1414 H 0.21592 0.9668 0.12118 0.0
H1415 H 0.17751 0.98447 0.11984 0.0
C1416 C 0.28516 0.95958 0.11249 0.0
C1417 C 0.30229 0.96959 0.12291 0.0
C1418 C 0.26303 0.96953 0.11187 0.0
C1419 C 0.25757 0.98974 0.12162 0.0
C1420 C 0.27463 -0.00041 0.13217 0.0
C1421 C 0.29673 0.98962 0.13282 0.0
C1422 C 0.20942 0.03565 0.11936 0.0
C1423 C 0.18964 0.0211 0.11909 0.0
C1424 C 0.23146 0.02549 0.12018 0.0
C1425 C 0.23419 0.00057 0.12075 0.0
C1426 C 0.21441 0.98604 0.12048 0.0
C1427 C 0.1924 0.99618 0.11968 0.0
H1428 H 0.70092 0.96338 0.34078 0.0
H1429 H 0.69375 0.9854 0.3929 0.0
H1430 H 0.73824 0.98357 0.33927 0.0
H1431 H 0.73139 0.0047 0.3916 0.0
H1432 H 0.7881 0.05761 0.37887 0.0
H1433 H 0.74993 0.03906 0.3787 0.0
H1434 H 0.77731 0.97961 0.35023 0.0
H1435 H 0.81537 0.99819 0.35033 0.0
C1436 C 0.70733 0.97248 0.35192 0.0
C1437 C 0.69438 0.97274 0.36697 0.0
C1438 C 0.72879 0.98387 0.35109 0.0
C1439 C 0.73775 0.9958 0.3653 0.0
C1440 C 0.72485 0.99595 0.38036 0.0
C1441 C 0.70342 0.98457 0.38118 0.0
C1442 C 0.78593 0.0406 0.37256 0.0
C1443 C 0.80475 0.02936 0.36463 0.0
C1444 C 0.7641 0.02995 0.37249 0.0
C1445 C 0.76062 0.00778 0.36454 0.0
C1446 C 0.77933 0.99682 0.35628 0.0
C1447 C 0.80114 0.0075 0.35632 0.0
H1448 H 0.79653 0.97375 0.90432 0.0
H1449 H 0.79763 0.97114 0.84971 0.0
H1450 H 0.7579 0.99117 0.90348 0.0
H1451 H 0.75871 0.98788 0.84889 0.0
H1452 H 0.70084 0.04369 0.85433 0.0
H1453 H 0.73941 0.02606 0.85508 0.0
H1454 H 0.71818 0.98004 0.89605 0.0
H1455 H 0.67965 0.99751 0.89526 0.0
C1456 C 0.78848 0.97684 0.89214 0.0
C1457 C 0.80013 0.97109 0.87708 0.0
C1458 C 0.76629 0.98661 0.89167 0.0
C1459 C 0.75527 0.99093 0.87612 0.0
C1460 C 0.76684 0.985 0.86106 0.0
C1461 C 0.78901 0.97514 0.86154 0.0
C1462 C 0.70437 0.0297 0.86342 0.0
C1463 C 0.68719 0.02208 0.87477 0.0
C1464 C 0.72645 0.01959 0.86384 0.0
C1465 C 0.73183 0.00166 0.87563 0.0
C1466 C 0.71467 0.99407 0.88699 0.0
C1467 C 0.6926 0.00413 0.88655 0.0
H1468 H 0.18839 0.986 0.59274 0.0
H1469 H 0.20043 0.96532 0.64459 0.0
H1470 H 0.22634 0.00478 0.59172 0.0
H1471 H 0.23873 0.98351 0.6435 0.0
H1472 H 0.29648 0.03798 0.6417 0.0
H1473 H 0.2577 0.02119 0.64239 0.0
H1474 H 0.26636 0.99586 0.59113 0.0
H1475 H 0.3045 0.01395 0.59008 0.0
C1476 C 0.19934 0.98518 0.60385 0.0
C1477 C 0.19152 0.97414 0.61873 0.0
C1478 C 0.2211 0.99593 0.60327 0.0
C1479 C 0.23565 0.99569 0.61753 0.0
C1480 C 0.22784 0.98444 0.63238 0.0
C1481 C 0.20597 0.97389 0.633 0.0
C1482 C 0.28996 0.02923 0.63046 0.0
C1483 C 0.30368 0.02731 0.61584 0.0
C1484 C 0.26782 0.01926 0.63095 0.0
C1485 C 0.25892 0.00698 0.61686 0.0
C1486 C 0.27252 0.00536 0.60217 0.0
C1487 C 0.29456 0.01549 0.60164 0.0
H1488 H 0.78905 0.44781 0.14663 0.0
H1489 H 0.80506 0.48956 0.10224 0.0
H1490 H 0.75086 0.46646 0.14804 0.0
H1491 H 0.76683 0.50796 0.10352 0.0
H1492 H 0.7071 0.55451 0.12391 0.0
H1493 H 0.74528 0.53601 0.12277 0.0
H1494 H 0.71436 0.46683 0.13079 0.0
H1495 H 0.6762 0.48508 0.1315 0.0
C1496 C 0.78437 0.46093 0.13717 0.0
C1497 C 0.79997 0.46717 0.12429 0.0
C1498 C 0.7625 0.47149 0.13792 0.0
C1499 C 0.75592 0.48869 0.1259 0.0
C1500 C 0.77152 0.49492 0.11303 0.0
C1501 C 0.79329 0.48419 0.11219 0.0
C1502 C 0.7084 0.53534 0.12528 0.0
C1503 C 0.68853 0.52133 0.12785 0.0
C1504 C 0.73027 0.52476 0.12467 0.0
C1505 C 0.73277 0.49999 0.12672 0.0
C1506 C 0.71299 0.486 0.12941 0.0
C1507 C 0.69112 0.49652 0.12988 0.0
H1508 H 0.30937 0.49491 0.39019 0.0
H1509 H 0.29229 0.54606 0.35129 0.0
H1510 H 0.27026 0.47873 0.38873 0.0
H1511 H 0.25335 0.52946 0.3495 0.0
H1512 H 0.17912 0.51154 0.36573 0.0
H1513 H 0.2182 0.52749 0.36708 0.0
H1514 H 0.24562 0.45586 0.3689 0.0
H1515 H 0.20642 0.43979 0.36736 0.0
C1516 C 0.29722 0.50277 0.38139 0.0
C1517 C 0.30387 0.52183 0.3709 0.0
C1518 C 0.27492 0.49331 0.38041 0.0
C1519 C 0.25875 0.5028 0.36898 0.0
C1520 C 0.26537 0.52191 0.35853 0.0
C1521 C 0.28772 0.53128 0.35945 0.0
C1522 C 0.19347 0.49915 0.36619 0.0
C1523 C 0.18963 0.47436 0.36633 0.0
C1524 C 0.21587 0.50832 0.367 0.0
C1525 C 0.23498 0.49294 0.36806 0.0
C1526 C 0.2312 0.46816 0.36829 0.0
C1527 C 0.20876 0.45896 0.36741 0.0
H1528 H 0.18737 0.49779 0.85818 0.0
H1529 H 0.20812 0.55421 0.8922 0.0
H1530 H 0.22636 0.48149 0.85898 0.0
H1531 H 0.24692 0.53729 0.89357 0.0
H1532 H 0.31974 0.51535 0.87669 0.0
H1533 H 0.28088 0.53203 0.87592 0.0
H1534 H 0.25215 0.46095 0.87832 0.0
H1535 H 0.29109 0.44423 0.87901 0.0
C1536 C 0.20028 0.50679 0.86577 0.0
C1537 C 0.19466 0.52739 0.87506 0.0
C1538 C 0.22256 0.49724 0.86642 0.0
C1539 C 0.23974 0.50803 0.87639 0.0
C1540 C 0.23414 0.52867 0.88564 0.0
C1541 C 0.21185 0.53824 0.88499 0.0
C1542 C 0.30513 0.50328 0.87724 0.0
C1543 C 0.30849 0.47846 0.87795 0.0
C1544 C 0.28286 0.51286 0.8768 0.0
C1545 C 0.26341 0.49783 0.87706 0.0
C1546 C 0.26677 0.473 0.87784 0.0
C1547 C 0.28907 0.46341 0.87825 0.0
H1548 H 0.68289 0.50791 0.61614 0.0
H1549 H 0.71209 0.43841 0.6255 0.0
H1550 H 0.72132 0.52562 0.61711 0.0
H1551 H 0.75087 0.45559 0.62535 0.0
H1552 H 0.81571 0.49483 0.63972 0.0
H1553 H 0.77702 0.47847 0.64021 0.0
H1554 H 0.75563 0.53027 0.60281 0.0
H1555 H 0.79368 0.54823 0.60366 0.0
C1556 C 0.69771 0.49643 0.61817 0.0
C1557 C 0.6947 0.47187 0.62073 0.0
C1558 C 0.71977 0.50649 0.6186 0.0
C1559 C 0.73942 0.49211 0.62124 0.0
C1560 C 0.73625 0.46739 0.62364 0.0
C1561 C 0.71408 0.45744 0.62359 0.0
C1562 C 0.80267 0.50318 0.63189 0.0
C1563 C 0.80801 0.52304 0.62171 0.0
C1564 C 0.78046 0.49341 0.63191 0.0
C1565 C 0.76303 0.50285 0.62147 0.0
C1566 C 0.76839 0.52264 0.61124 0.0
C1567 C 0.79046 0.53274 0.6115 0.0
H1568 H 0.96134 0.99013 0.28452 0.0
H1569 H 0.01686 0.03766 0.29876 0.0
H1570 H 0.97607 0.98933 0.25548 0.0
H1571 H 0.03171 0.0364 0.26999 0.0
H1572 H 0.02245 0.06079 0.21462 0.0
H1573 H 0.01265 0.05473 0.24425 0.0
H1574 H 0.01114 0.9785 0.23632 0.0
H1575 H 0.02099 0.98463 0.20637 0.0
C1576 C 0.97692 -2e-05 0.28153 0.0
C1577 C 0.98781 0.01413 0.29388 0.0
C1578 C 0.98542 0.99937 0.26498 0.0
C1579 C 0.00483 0.01305 0.26051 0.0
C1580 C 0.01655 0.02591 0.2731 0.0
C1581 C 0.00816 0.02642 0.28962 0.0
C1582 C 0.01992 0.04274 0.21917 0.0
C1583 C 0.02227 0.02318 0.20822 0.0
C1584 C 0.01459 0.03925 0.23616 0.0
C1585 C 0.01134 0.01613 0.24256 0.0
C1586 C 0.01359 0.99649 0.23164 0.0
C1587 C 0.01926 -2e-05 0.2146 0.0
H1588 H 0.51356 0.98281 0.1962 0.0
H1589 H 0.44613 0.99802 0.21722 0.0
H1590 H 0.53043 0.98547 0.22419 0.0
H1591 H 0.46285 0.99893 0.24545 0.0
H1592 H 0.50059 0.00628 0.2952 0.0
H1593 H 0.48801 0.01629 0.2665 0.0
H1594 H 0.52882 0.95786 0.24692 0.0
H1595 H 0.54206 0.9487 0.27523 0.0
C1596 C 0.50233 0.9872 0.2067 0.0
C1597 C 0.47835 0.98977 0.20442 0.0
C1598 C 0.51201 0.98837 0.22284 0.0
C1599 C 0.49793 0.99179 0.23713 0.0
C1600 C 0.47423 0.99621 0.23474 0.0
C1601 C 0.46457 0.99534 0.21855 0.0
C1602 C 0.50715 0.99591 0.28468 0.0
C1603 C 0.52207 0.97651 0.28749 0.0
C1604 C 0.49982 0.00152 0.26828 0.0
C1605 C 0.50738 0.98788 0.25438 0.0
C1606 C 0.5229 0.96901 0.25723 0.0
C1607 C 0.53021 0.96347 0.27354 0.0
H1608 H 0.99033 0.92705 0.70326 0.0
H1609 H 0.0247 0.99529 0.70774 0.0
H1610 H 0.97621 0.93092 0.73216 0.0
H1611 H 0.00975 0.9994 0.73655 0.0
H1612 H 0.95781 0.00102 0.78346 0.0
H1613 H 0.96947 0.00098 0.75353 0.0
H1614 H 0.00035 0.93148 0.76014 0.0
H1615 H 0.98895 0.93157 0.78982 0.0
C1616 C 0.9948 0.94292 0.71036 0.0
C1617 C 0.00901 0.96066 0.70328 0.0
C1618 C 0.98659 0.94517 0.72685 0.0
C1619 C 0.99213 0.96533 0.73655 0.0
C1620 C 0.00521 0.98372 0.72925 0.0
C1621 C 0.01369 0.98137 0.71276 0.0
C1622 C 0.9672 0.98586 0.77846 0.0
C1623 C 0.97265 0.96638 0.78891 0.0
C1624 C 0.97389 0.98586 0.76143 0.0
C1625 C 0.98562 0.96615 0.7546 0.0
C1626 C 0.99112 0.94678 0.7651 0.0
C1627 C 0.98481 0.94695 0.78209 0.0
H1628 H 0.45688 0.06107 0.71307 0.0
H1629 H 0.48816 0.99351 0.70023 0.0
H1630 H 0.46738 0.05524 0.74261 0.0
H1631 H 0.49874 0.98757 0.73004 0.0
H1632 H 0.54086 0.01184 0.77916 0.0
H1633 H 0.52665 0.00885 0.75018 0.0
H1634 H 0.4582 0.02813 0.76711 0.0
H1635 H 0.47223 0.03074 0.79614 0.0
C1636 C 0.46597 0.04493 0.71662 0.0
C1637 C 0.47192 0.02784 0.7044 0.0
C1638 C 0.47176 0.04146 0.73355 0.0
C1639 C 0.48379 0.02091 0.73861 0.0
C1640 C 0.4895 0.00359 0.72643 0.0
C1641 C 0.48341 0.00694 0.70946 0.0
C1642 C 0.52264 0.01478 0.77679 0.0
C1643 C 0.50773 0.02188 0.78992 0.0
C1644 C 0.51452 0.01308 0.76018 0.0
C1645 C 0.49141 0.01856 0.7564 0.0
C1646 C 0.4762 0.0242 0.76966 0.0
C1647 C 0.48426 0.02576 0.78625 0.0
H1648 H 0.54401 0.48552 0.21368 0.0
H1649 H 0.48235 0.52723 0.20455 0.0
H1650 H 0.5318 0.47936 0.24293 0.0
H1651 H 0.46995 0.52029 0.23345 0.0
H1652 H 0.44729 0.49617 0.28459 0.0
H1653 H 0.45833 0.4891 0.25513 0.0
H1654 H 0.52847 0.50979 0.26676 0.0
H1655 H 0.51744 0.51676 0.29617 0.0
C1656 C 0.52775 0.49313 0.2178 0.0
C1657 C 0.51433 0.50714 0.20676 0.0
C1658 C 0.52073 0.48944 0.23451 0.0
C1659 C 0.49998 0.49938 0.24044 0.0
C1660 C 0.48588 0.51212 0.22916 0.0
C1661 C 0.49301 0.51606 0.21254 0.0
C1662 C 0.46519 0.49853 0.28093 0.0
C1663 C 0.48151 0.50717 0.29257 0.0
C1664 C 0.47146 0.49464 0.26408 0.0
C1665 C 0.4942 0.49905 0.25867 0.0
C1666 C 0.51086 0.50607 0.27061 0.0
C1667 C 0.50453 0.51023 0.28739 0.0
H1668 H 0.04689 0.4809 0.27189 0.0
H1669 H 0.98332 0.50892 0.29257 0.0
H1670 H 0.03201 0.48633 0.24348 0.0
H1671 H 0.96838 0.51467 0.26394 0.0
H1672 H 0.94055 0.48006 0.21407 0.0
H1673 H 0.95515 0.48753 0.24242 0.0
H1674 H 0.01969 0.51259 0.22133 0.0
H1675 H 0.00512 0.50461 0.1929 0.0
C1676 C 0.02997 0.4889 0.27035 0.0
C1677 C 0.01621 0.49433 0.28448 0.0
C1678 C 0.02142 0.49206 0.25402 0.0
C1679 C -0.00108 0.50082 0.25141 0.0
C1680 C 0.98563 0.50751 0.26553 0.0
C1681 C 0.99417 0.50425 0.28191 0.0
C1682 C 0.95762 0.48776 0.21547 0.0
C1683 C 0.9718 0.49151 0.2013 0.0
C1684 C 0.966 0.49211 0.23174 0.0
C1685 C 0.98871 0.50042 0.23417 0.0
C1686 C 0.0023 0.50573 0.2199 0.0
C1687 C 0.99396 0.50122 0.20364 0.0
H1688 H 0.4816 0.47437 0.70123 0.0
H1689 H 0.5495 0.50152 0.71346 0.0
H1690 H 0.46936 0.4809 0.73021 0.0
H1691 H 0.53678 0.50953 0.74225 0.0
H1692 H 0.51772 0.47897 0.79496 0.0
H1693 H 0.52951 0.48449 0.76578 0.0
H1694 H 0.46018 0.50687 0.75288 0.0
H1695 H 0.44804 0.49984 0.78194 0.0
C1696 C 0.49381 0.48213 0.71004 0.0
C1697 C 0.51667 0.48695 0.70509 0.0
C1698 C 0.48667 0.48624 0.72664 0.0
C1699 C 0.50216 0.49552 0.73867 0.0
C1700 C 0.52454 0.50194 0.7334 0.0
C1701 C 0.53175 0.49762 0.71681 0.0
C1702 C 0.505 0.48516 0.78592 0.0
C1703 C 0.48183 0.48848 0.79073 0.0
C1704 C 0.51184 0.48869 0.76919 0.0
C1705 C 0.49573 0.49589 0.75688 0.0
C1706 C 0.47294 0.50088 0.76196 0.0
C1707 C 0.46604 0.49713 0.77869 0.0
H1708 H 0.02412 0.49336 0.78613 0.0
H1709 H 0.0287 0.57 0.78137 0.0
H1710 H 0.01549 0.49028 0.75583 0.0
H1711 H 0.01957 0.56701 0.75148 0.0
H1712 H 0.02276 0.5557 0.69614 0.0
H1713 H 0.0368 0.55268 0.72514 0.0
H1714 H 0.98322 0.50137 0.73638 0.0
H1715 H 0.9693 0.50425 0.70725 0.0
C1716 C 0.02332 0.50949 0.77861 0.0
C1717 C 0.02687 0.53194 0.78612 0.0
C1718 C 0.01828 0.50774 0.76133 0.0
C1719 C 0.01699 0.52839 0.75127 0.0
C1720 C 0.02078 0.55074 0.75882 0.0
C1721 C 0.02568 0.55249 0.77601 0.0
C1722 C 0.01417 0.54357 0.70477 0.0
C1723 C 0.99476 0.53047 0.69955 0.0
C1724 C 0.02217 0.54186 0.72135 0.0
C1725 C 0.01086 0.5271 0.73309 0.0
C1726 C 0.99235 0.51282 0.72759 0.0
C1727 C 0.98437 0.51447 0.71093 0.0
H1728 H 0.0377 0.20117 0.14976 0.0
H1729 H 0.01438 0.18981 0.09852 0.0
H1730 H 0.01901 0.24041 0.14994 0.0
H1731 H 0.99557 0.22894 0.09874 0.0
H1732 H 0.94281 0.28744 0.11493 0.0
H1733 H 0.9614 0.24811 0.11533 0.0
H1734 H 0.02442 0.28022 0.13371 0.0
H1735 H 0.00593 0.31947 0.13319 0.0
C1736 C 0.02861 0.20713 0.13855 0.0
C1737 C 0.02754 0.19258 0.1241 0.0
C1738 C 0.018 0.22954 0.13863 0.0
C1739 C 0.0058 0.23759 0.12437 0.0
C1740 C 0.00472 0.22304 0.10993 0.0
C1741 C 0.01565 0.2008 0.10975 0.0
C1742 C 0.96058 0.28599 0.11915 0.0
C1743 C 0.97299 0.30641 0.12398 0.0
C1744 C 0.97123 0.26359 0.11927 0.0
C1745 C 0.99434 0.26121 0.12451 0.0
C1746 C 0.00656 0.28157 0.12969 0.0
C1747 C 0.99604 0.30399 0.1293 0.0
H1748 H 0.4818 0.80778 0.15314 0.0
H1749 H 0.46895 0.79988 0.09954 0.0
H1750 H 0.49907 0.76811 0.15379 0.0
H1751 H 0.487 0.76059 0.1002 0.0
H1752 H 0.5449 0.70413 0.10601 0.0
H1753 H 0.52743 0.74374 0.10573 0.0
H1754 H 0.48595 0.72504 0.14912 0.0
H1755 H 0.50267 0.68515 0.14912 0.0
C1756 C 0.48243 0.79757 0.14152 0.0
C1757 C 0.47391 0.80713 0.12628 0.0
C1758 C 0.49246 0.77489 0.14191 0.0
C1759 C 0.49447 0.76136 0.12703 0.0
C1760 C 0.48597 0.7708 0.11181 0.0
C1761 C 0.47569 0.79335 0.11145 0.0
C1762 C 0.5319 0.70831 0.1154 0.0
C1763 C 0.52521 0.69131 0.12756 0.0
C1764 C 0.52195 0.73104 0.11526 0.0
C1765 C 0.50532 0.73741 0.12738 0.0
C1766 C 0.49892 0.72067 0.13973 0.0
C1767 C 0.50863 0.69784 0.13976 0.0
H1768 H 0.44383 0.70701 0.3617 0.0
H1769 H 0.50174 0.67704 0.38883 0.0
H1770 H 0.46286 0.74587 0.36153 0.0
H1771 H 0.52097 0.7157 0.38844 0.0
H1772 H 0.5388 0.79361 0.39893 0.0
H1773 H 0.51905 0.75524 0.39993 0.0
H1774 H 0.49511 0.76575 0.34869 0.0
H1775 H 0.51376 0.80462 0.34803 0.0
C1776 C 0.46067 0.70873 0.36757 0.0
C1777 C 0.47126 0.68901 0.37532 0.0
C1778 C 0.47163 0.73096 0.36742 0.0
C1779 C 0.4935 0.73391 0.37493 0.0
C1780 C 0.50398 0.71418 0.38278 0.0
C1781 C 0.49296 0.69201 0.38301 0.0
C1782 C 0.52916 0.78783 0.38793 0.0
C1783 C 0.52788 0.80224 0.37341 0.0
C1784 C 0.51804 0.7657 0.38843 0.0
C1785 C 0.50544 0.7574 0.3744 0.0
C1786 C 0.50437 0.77171 0.35982 0.0
C1787 C 0.5154 0.79387 0.35934 0.0
H1788 H 0.99086 0.32152 0.37832 0.0
H1789 H 0.04922 0.29449 0.35019 0.0
H1790 H 0.9734 0.2817 0.37821 0.0
H1791 H 0.03191 0.2545 0.35034 0.0
H1792 H 0.00437 0.18439 0.37689 0.0
H1793 H 0.02161 0.22424 0.37525 0.0
H1794 H 0.95803 0.25184 0.35444 0.0
H1795 H 0.94088 0.21181 0.3558 0.0
C1796 C -6e-05 0.307 0.37217 0.0
C1797 C 0.02138 0.31094 0.36431 0.0
C1798 C 0.98991 0.28434 0.37201 0.0
C1799 C 0.00135 0.26515 0.36427 0.0
C1800 C 0.02282 0.26905 0.35644 0.0
C1801 C 0.03265 0.29184 0.3563 0.0
C1802 C 0.99412 0.199 0.37197 0.0
C1803 C 0.97131 0.19516 0.36653 0.0
C1804 C 0.00401 0.22168 0.37093 0.0
C1805 C 0.9911 0.24099 0.36472 0.0
C1806 C 0.96826 0.23719 0.35932 0.0
C1807 C 0.95851 0.21438 0.36005 0.0
H1808 H -0.00118 0.68143 0.89694 0.0
H1809 H 0.04159 0.70457 0.85529 0.0
H1810 H 0.97786 0.71914 0.89602 0.0
H1811 H 0.02091 0.74247 0.8545 0.0
H1812 H 0.96521 0.79808 0.8464 0.0
H1813 H 0.98394 0.7591 0.84723 0.0
H1814 H 0.98262 0.76087 0.90188 0.0
H1815 H 0.96356 0.79963 0.90099 0.0
C1816 C 0.00393 0.69473 0.88773 0.0
C1817 C 0.02189 0.69008 0.87622 0.0
C1818 C 0.99191 0.71633 0.88719 0.0
C1819 C 0.99764 0.73384 0.87516 0.0
C1820 C 0.01574 0.72922 0.86372 0.0
C1821 C 0.02767 0.70756 0.86421 0.0
C1822 C 0.96885 0.79005 0.85858 0.0
C1823 C 0.96296 0.80191 0.87363 0.0
C1824 C 0.97968 0.76778 0.85907 0.0
C1825 C 0.98498 0.75692 0.87463 0.0
C1826 C 0.97855 0.76856 0.88968 0.0
C1827 C 0.96761 0.79077 0.88918 0.0
H1828 H 0.44207 0.29 0.87685 0.0
H1829 H 0.50701 0.31994 0.85999 0.0
H1830 H 0.45967 0.25042 0.87747 0.0
H1831 H 0.52422 0.28031 0.86014 0.0
H1832 H 0.53801 0.20141 0.84591 0.0
H1833 H 0.52004 0.24091 0.84474 0.0
H1834 H 0.49104 0.22979 0.89445 0.0
H1835 H 0.50883 0.19027 0.89556 0.0
C1836 C 0.46007 0.28821 0.87331 0.0
C1837 C 0.47307 0.30824 0.86835 0.0
C1838 C 0.47011 0.26552 0.87363 0.0
C1839 C 0.4933 0.26232 0.86885 0.0
C1840 C 0.50622 0.28222 0.86368 0.0
C1841 C 0.49628 0.30492 0.86352 0.0
C1842 C 0.52776 0.20743 0.85656 0.0
C1843 C 0.52487 0.19284 0.87085 0.0
C1844 C 0.51761 0.23005 0.85593 0.0
C1845 C 0.50411 0.23836 0.86949 0.0
C1846 C 0.50118 0.22374 0.88376 0.0
C1847 C 0.51155 0.20126 0.88447 0.0
H1848 H 0.4939 0.18711 0.60182 0.0
H1849 H 0.4479 0.20686 0.6425 0.0
H1850 H 0.5128 0.22602 0.60373 0.0
H1851 H 0.46692 0.24577 0.64449 0.0
H1852 H 0.48918 0.32147 0.6268 0.0
H1853 H 0.4707 0.28248 0.62593 0.0
H1854 H 0.53766 0.24854 0.62492 0.0
H1855 H 0.55634 0.28756 0.62636 0.0
C1856 C 0.48775 0.19985 0.61109 0.0
C1857 C 0.46936 0.19404 0.62196 0.0
C1858 C 0.49872 0.22199 0.6123 0.0
C1859 C 0.49135 0.23887 0.62428 0.0
C1860 C 0.47286 0.23313 0.63508 0.0
C1861 C 0.46207 0.21086 0.634 0.0
C1862 C 0.50005 0.30574 0.62673 0.0
C1863 C 0.52431 0.30775 0.62674 0.0
C1864 C 0.48941 0.2834 0.62615 0.0
C1865 C 0.50274 0.26252 0.62535 0.0
C1866 C 0.52696 0.2644 0.62534 0.0
C1867 C 0.53764 0.28676 0.62611 0.0
H1868 H 0.99438 0.81799 0.59924 0.0
H1869 H 0.05717 0.7856 0.61811 0.0
H1870 H 0.97575 0.77907 0.5989 0.0
H1871 H 0.038 0.74678 0.61836 0.0
H1872 H 0.98468 0.68938 0.63539 0.0
H1873 H 0.00396 0.7282 0.63471 0.0
H1874 H 0.98028 0.73895 0.58349 0.0
H1875 H 0.96099 0.70005 0.58416 0.0
C1876 C 0.00437 0.80259 0.60311 0.0
C1877 C 0.0274 0.80503 0.60862 0.0
C1878 C 0.99359 0.78031 0.60299 0.0
C1879 C 0.00542 0.75997 0.60863 0.0
C1880 C 0.02841 0.76226 0.61412 0.0
C1881 C 0.03934 0.78452 0.61402 0.0
C1882 C 0.98343 0.70015 0.62405 0.0
C1883 C 0.97126 0.69181 0.60985 0.0
C1884 C 0.99465 0.72221 0.6236 0.0
C1885 C 0.99366 0.7365 0.60903 0.0
C1886 C 0.98122 0.72831 0.5949 0.0
C1887 C 0.97028 0.70607 0.59526 0.0
H1888 H 0.01306 0.97509 0.95223 0.0
H1889 H 0.94424 0.00146 0.96225 0.0
H1890 H 0.02554 0.98872 0.98006 0.0
H1891 H 0.95665 0.01495 0.99015 0.0
H1892 H 0.99326 0.05445 0.03337 0.0
H1893 H 0.98144 0.04359 0.00474 0.0
H1894 H 0.01881 0.97713 0.00921 0.0
H1895 H 0.03138 0.98839 0.03747 0.0
C1896 C 0.00062 0.98381 0.9604 0.0
C1897 C 0.97766 0.98712 0.95511 0.0
C1898 C 0.00773 0.99155 0.97634 0.0
C1899 C 0.99203 0.00271 0.98736 0.0
C1900 C 0.96922 0.00663 0.98189 0.0
C1901 C 0.96212 0.99892 0.96591 0.0
C1902 C -0.00093 0.0376 0.02817 0.0
C1903 C 0.01324 0.02227 0.03769 0.0
C1904 C 0.99214 0.03129 0.01185 0.0
C1905 C -0.00073 0.00954 0.00469 0.0
C1906 C 0.0133 0.99416 0.01427 0.0
C1907 C 0.02022 0.00046 0.03056 0.0
H1908 H 0.48649 0.9915 0.94748 0.0
H1909 H 0.54586 0.02663 0.96949 0.0
H1910 H 0.47391 0.97927 0.97564 0.0
H1911 H 0.53352 0.01385 -0.00249 0.0
H1912 H 0.51545 0.96531 0.04263 0.0
H1913 H 0.52836 0.97584 0.01413 0.0
H1914 H 0.45944 -2e-05 0.00193 0.0
H1915 H 0.44648 0.98919 0.03033 0.0
C1916 C 0.49683 0.99666 0.95829 0.0
C1917 C 0.51719 0.01006 0.9562 0.0
C1918 C 0.48965 0.9896 0.9744 0.0
C1919 C 0.50276 0.99561 0.98873 0.0
C1920 C 0.52325 0.00869 0.98665 0.0
C1921 C 0.53034 0.01593 0.97058 0.0
C1922 C 0.50307 0.97276 0.03381 0.0
C1923 C 0.48001 0.97654 0.03867 0.0
C1924 C 0.51047 0.97891 0.01757 0.0
C1925 C 0.49488 0.98871 0.00585 0.0
C1926 C 0.47177 0.99227 0.01067 0.0
C1927 C 0.46443 0.98634 0.02696 0.0
H1928 H 0.46171 0.04596 0.52143 0.0
H1929 H 0.49811 0.98746 0.54498 0.0
H1930 H 0.4761 0.03351 0.49385 0.0
H1931 H 0.51226 0.9747 0.51733 0.0
H1932 H 0.55258 0.97383 0.46779 0.0
H1933 H 0.53846 0.98672 0.4953 0.0
H1934 H 0.47173 0.00222 0.47331 0.0
H1935 H 0.48624 0.99051 0.4456 0.0
C1936 C 0.47261 0.03028 0.52067 0.0
C1937 C 0.47875 0.01763 0.53534 0.0
C1938 C 0.48082 0.02311 0.50487 0.0
C1939 C 0.49528 0.00307 0.50337 0.0
C1940 C 0.50143 0.99043 0.51807 0.0
C1941 C 0.49331 0.99769 0.5339 0.0
C1942 C 0.53499 0.9803 0.46877 0.0
C1943 C 0.52058 0.98126 0.45446 0.0
C1944 C 0.5268 0.98737 0.4846 0.0
C1945 C 0.50395 0.99546 0.48653 0.0
C1946 C 0.48951 0.99634 0.47224 0.0
C1947 C 0.49774 0.98936 0.45638 0.0
H1948 H 0.03205 0.02716 0.54173 0.0
H1949 H 0.99366 0.96161 0.53585 0.0
H1950 H 0.01772 0.04099 0.51438 0.0
H1951 H 0.97974 0.97506 0.50843 0.0
H1952 H 0.94261 0.014 0.46645 0.0
H1953 H 0.95485 0.00316 0.49494 0.0
H1954 H 0.02262 0.03246 0.48486 0.0
H1955 H 0.01009 0.04378 0.45652 0.0
C1956 C 0.02057 0.01573 0.53456 0.0
C1957 C 0.0139 0.99337 0.54091 0.0
C1958 C 0.01243 0.02358 0.51888 0.0
C1959 C 0.99761 0.00912 0.50919 0.0
C1960 C 0.99078 0.98685 0.51568 0.0
C1961 C -0.00123 0.9791 0.53138 0.0
C1962 C 0.96013 0.01805 0.47036 0.0
C1963 C 0.97546 0.0296 0.45929 0.0
C1964 C 0.96716 0.01183 0.48665 0.0
C1965 C 0.98975 0.01685 0.49217 0.0
C1966 C 0.005 0.02866 0.48112 0.0
C1967 C 0.99788 0.03506 0.46487 0.0
H1968 H 0.49002 0.54566 0.03834 0.0
H1969 H 0.54341 0.49183 0.03637 0.0
H1970 H 0.47797 0.53498 0.00971 0.0
H1971 H 0.53103 0.48079 0.00792 0.0
H1972 H 0.51891 0.48646 0.95081 0.0
H1973 H 0.53099 0.49843 0.97913 0.0
H1974 H 0.45957 0.50072 0.995 0.0
H1975 H 0.44747 0.48848 0.96677 0.0
C1976 C 0.49917 0.53156 0.03178 0.0
C1977 C 0.51764 0.51956 0.03957 0.0
C1978 C 0.49216 0.52533 0.01546 0.0
C1979 C 0.50359 0.50709 0.00658 0.0
C1980 C 0.52206 0.49509 0.01439 0.0
C1981 C 0.52897 0.50122 0.03074 0.0
C1982 C 0.50579 0.4894 0.96036 0.0
C1983 C 0.48223 0.48651 0.95653 0.0
C1984 C 0.51271 0.49626 0.97657 0.0
C1985 C 0.49622 0.50045 0.98927 0.0
C1986 C 0.47265 0.4979 0.9854 0.0
C1987 C 0.46573 0.49095 0.96921 0.0
H1988 H 0.00954 0.47578 0.04359 0.0
H1989 H 0.94026 0.47746 0.02323 0.0
H1990 H 0.02501 0.48653 0.01589 0.0
H1991 H 0.95573 0.48863 0.99556 0.0
H1992 H 0.99577 0.48171 0.9451 0.0
H1993 H 0.98008 0.47028 0.97262 0.0
H1994 H 0.02418 0.52212 -0.00307 0.0
H1995 H 0.03954 0.5339 0.96953 0.0
C1996 C 0.99764 0.47842 0.03317 0.0
C1997 C 0.97371 0.47581 0.03554 0.0
C1998 C 0.00647 0.48474 0.01737 0.0
C1999 C 0.99156 0.4884 0.0036 0.0
C2000 C 0.96762 0.48571 0.00594 0.0
C2001 C 0.95877 0.47958 0.02179 0.0
C2002 C 0.00199 0.49079 0.9563 0.0
C2003 C 0.019 0.50863 0.95511 0.0
C2004 C 0.99302 0.48422 0.97204 0.0
C2005 C 0.00097 0.49528 0.98689 0.0
C2006 C 0.018 0.51304 0.98571 0.0
C2007 C 0.02684 0.51971 0.97 0.0
H2008 H 0.99478 0.54461 0.5294 0.0
H2009 H 0.96663 0.47396 0.53622 0.0
H2010 H 0.00691 0.53416 0.50088 0.0
H2011 H 0.97957 0.46298 0.50785 0.0
H2012 H 0.98448 0.45905 0.45033 0.0
H2013 H 0.97186 0.46946 0.47886 0.0
H2014 H 0.03393 0.51145 0.48567 0.0
H2015 H 0.04589 0.50175 0.45694 0.0
C2016 C 0.99154 0.52669 0.52484 0.0
C2017 C 0.97989 0.51003 0.53498 0.0
C2018 C -0.00146 0.52064 0.50851 0.0
C2019 C 0.99432 0.49767 0.50203 0.0
C2020 C 0.98278 0.48095 0.51229 0.0
C2021 C 0.97549 0.48714 0.52857 0.0
C2022 C 0.99533 0.47053 0.45799 0.0
C2023 C 0.01605 0.47974 0.45147 0.0
C2024 C 0.98822 0.47638 0.47436 0.0
C2025 C 0.00186 0.49131 0.48462 0.0
C2026 C 0.02273 0.50031 0.47805 0.0
C2027 C 0.02965 0.49473 0.46161 0.0
H2028 H 0.533 0.44915 0.5267 0.0
H2029 H 0.50521 0.51428 0.54765 0.0
H2030 H 0.51823 0.46011 0.49892 0.0
H2031 H 0.49074 0.52554 0.51977 0.0
H2032 H 0.44763 0.52624 0.47161 0.0
H2033 H 0.46186 0.51451 0.49935 0.0
H2034 H 0.5247 0.48808 0.47646 0.0
H2035 H 0.50992 0.49861 0.44861 0.0
C2036 C 0.52394 0.46595 0.5253 0.0
C2037 C 0.52029 0.4809 0.53931 0.0
C2038 C 0.51551 0.47226 0.50938 0.0
C2039 C 0.50334 0.49373 0.5071 0.0
C2040 C 0.49973 0.5087 0.52114 0.0
C2041 C 0.50805 0.50231 0.5371 0.0
C2042 C 0.46433 0.51759 0.47245 0.0
C2043 C 0.4776 0.51328 0.45787 0.0
C2044 C 0.47264 0.51119 0.4884 0.0
C2045 C 0.49445 0.50043 0.49014 0.0
C2046 C 0.50771 0.4961 0.47555 0.0
C2047 C 0.49936 0.50239 0.4596 0.0
loop_
_geom_bond_atom_site_label_1
_geom_bond_atom_site_label_2
_geom_bond_distance
_geom_bond_site_symmetry_2
_ccdc_geom_bond_type
Li0 N17 1.990 . S
Li0 O60 1.956 . S
Li0 O61 1.970 . S
Li0 O62 1.961 . S
Li1 N25 1.990 . S
Li1 O60 1.970 . S
Li1 O61 1.956 . S
Li1 O63 1.961 . S
Li2 N47 1.990 . S
Li2 O60 1.961 . S
Li2 O62 1.956 . S
Li2 O63 1.970 . S
Li3 N53 1.990 . S
Li3 O61 1.961 . S
Li3 O62 1.970 . S
Li3 O63 1.956 . S
C4 C6 1.359 . S
C4 C7 1.371 . S
C4 O60 1.301 1_565 S
N5 C8 1.314 . S
N5 C9 1.279 . S
C6 C4 1.359 . S
C6 C8 1.353 . S
C6 H64 0.929 . S
C7 C4 1.371 . S
C7 C9 1.358 . S
C7 H65 0.930 . S
C8 N5 1.314 . S
C8 C6 1.353 . S
C8 H66 0.930 . S
C9 N5 1.279 . S
C9 C7 1.358 . S
C9 H67 0.930 . S
C10 C13 1.348 . S
C10 C14 1.356 . S
C10 O61 1.325 . S
C11 N12 1.279 . S
C11 C14 1.358 . S
C11 H68 0.930 . S
N12 C11 1.279 . S
N12 C15 1.314 . S
C13 C10 1.348 . S
C13 C15 1.353 . S
C13 H69 0.929 . S
C14 C10 1.356 . S
C14 C11 1.358 . S
C14 H70 0.930 . S
C15 N12 1.314 . S
C15 C13 1.353 . S
C15 H71 0.930 . S
C16 N17 1.314 . S
C16 C21 1.353 . S
C16 H22 0.930 . S
N17 Li0 1.990 . S
N17 C16 1.314 . S
N17 C19 1.269 1_545 S
C18 C19 1.364 . S
C18 C20 1.364 . S
C18 H72 0.930 . S
C19 N17 1.269 1_565 S
C19 C18 1.364 . S
C19 H23 0.936 . S
C20 C18 1.364 . S
C20 C21 1.332 1_565 S
C21 C16 1.353 . S
C21 C20 1.332 1_545 S
C21 H73 0.929 1_455 S
H22 C16 0.930 . S
H23 C19 0.936 . S
C24 N25 1.314 . S
C24 C26 1.353 . S
C24 H30 0.930 . S
N25 Li1 1.990 . S
N25 C24 1.314 . S
N25 C28 1.279 . S
C26 C24 1.353 . S
C26 C29 1.348 . S
C26 H74 0.929 . S
C27 C28 1.358 . S
C27 C29 1.356 . S
C27 H75 0.930 . S
C28 N25 1.279 . S
C28 C27 1.358 . S
C28 H31 0.930 . S
C29 C26 1.348 . S
C29 C27 1.356 . S
H30 C24 0.930 . S
H31 C28 0.930 . S
C32 C34 1.348 1_455 S
C32 C35 1.356 1_455 S
C32 O62 1.325 . S
N33 C36 1.314 . S
N33 C37 1.279 . S
C34 C32 1.348 1_655 S
C34 C36 1.353 . S
C34 H76 0.929 1_655 S
C35 C32 1.356 1_655 S
C35 C37 1.358 . S
C35 H77 0.930 . S
C36 N33 1.314 . S
C36 C34 1.353 . S
C36 H78 0.930 . S
C37 N33 1.279 . S
C37 C35 1.358 . S
C37 H79 0.930 . S
C38 C39 1.348 . S
C38 C40 1.356 . S
C38 O63 1.325 . S
C39 C38 1.348 . S
C39 C41 1.353 . S
C39 H80 0.929 . S
C40 C38 1.356 . S
C40 C42 1.358 . S
C40 H81 0.930 . S
C41 C39 1.353 . S
C41 N43 1.314 . S
C41 H82 0.930 . S
C42 C40 1.358 . S
C42 N43 1.279 . S
C42 H83 0.930 . S
N43 C41 1.314 . S
N43 C42 1.279 . S
C44 C46 1.353 . S
C44 N47 1.314 . S
C44 H50 0.930 . S
C45 N47 1.279 . S
C45 C48 1.375 . S
C45 H51 0.930 . S
C46 C44 1.353 . S
C46 C49 1.348 . S
C46 H84 0.929 1_545 S
N47 Li2 1.990 . S
N47 C44 1.314 . S
N47 C45 1.279 . S
C48 C45 1.375 . S
C48 C49 1.376 . S
C48 H85 0.894 1_455 S
C49 C46 1.348 . S
C49 C48 1.376 . S
H50 C44 0.930 . S
H51 C45 0.930 . S
C52 N53 1.314 . S
C52 C54 1.353 . S
C52 H58 0.930 . S
N53 Li3 1.990 . S
N53 C52 1.314 . S
N53 C56 1.279 . S
C54 C52 1.353 . S
C54 C57 1.348 . S
C54 H86 0.929 . S
C55 C56 1.358 . S
C55 C57 1.356 . S
C55 H87 0.930 . S
C56 N53 1.279 . S
C56 C55 1.358 . S
C56 H59 0.930 . S
C57 C54 1.348 . S
C57 C55 1.356 . S
H58 C52 0.930 . S
H59 C56 0.930 . S
O60 Li0 1.956 . S
O60 Li1 1.970 . S
O60 Li2 1.961 . S
O60 C4 1.301 1_545 S
O61 Li0 1.970 . S
O61 Li1 1.956 . S
O61 Li3 1.961 . S
O61 C10 1.325 . S
O62 Li0 1.961 . S
O62 Li2 1.956 . S
O62 Li3 1.970 . S
O62 C32 1.325 . S
O63 Li1 1.961 . S
O63 Li2 1.970 . S
O63 Li3 1.956 . S
O63 C38 1.325 . S
H64 C6 0.929 . S
H65 C7 0.930 . S
H66 C8 0.930 . S
H67 C9 0.930 . S
H68 C11 0.930 . S
H69 C13 0.929 . S
H70 C14 0.930 . S
H71 C15 0.930 . S
H72 C18 0.930 . S
H73 C21 0.929 1_655 S
H74 C26 0.929 . S
H75 C27 0.930 . S
H76 C34 0.929 1_455 S
H77 C35 0.930 . S
H78 C36 0.930 . S
H79 C37 0.930 . S
H80 C39 0.929 . S
H81 C40 0.930 . S
H82 C41 0.930 . S
H83 C42 0.930 . S
H84 C46 0.929 1_565 S
H85 C48 0.894 1_655 S
H86 C54 0.929 . S
H87 C55 0.930 . S
Li88 N105 1.990 . S
Li88 O148 1.956 . S
Li88 O149 1.970 . S
Li88 O150 1.961 . S
Li89 N113 1.990 . S
Li89 O148 1.970 . S
Li89 O149 1.956 . S
Li89 O151 1.961 . S
Li90 N135 1.990 . S
Li90 O148 1.961 . S
Li90 O150 1.956 . S
Li90 O151 1.970 . S
Li91 N141 1.990 . S
Li91 O149 1.961 . S
Li91 O150 1.970 . S
Li91 O151 1.956 . S
C92 C94 1.348 . S
C92 C95 1.356 . S
C92 O148 1.325 . S
N93 C96 1.314 . S
N93 C97 1.279 . S
C94 C92 1.348 . S
C94 C96 1.353 . S
C94 H152 0.929 . S
C95 C92 1.356 . S
C95 C97 1.358 . S
C95 H153 0.930 . S
C96 N93 1.314 . S
C96 C94 1.353 . S
C96 H154 0.930 . S
C97 N93 1.279 . S
C97 C95 1.358 . S
C97 H155 0.930 . S
C98 C101 1.348 . S
C98 C102 1.356 . S
C98 O149 1.325 . S
C99 N100 1.279 . S
C99 C102 1.358 . S
C99 H156 0.930 . S
N100 C99 1.279 . S
N100 C103 1.314 . S
C101 C98 1.348 . S
C101 C103 1.353 . S
C101 H157 0.929 . S
C102 C98 1.356 . S
C102 C99 1.358 . S
C102 H158 0.930 . S
C103 N100 1.314 . S
C103 C101 1.353 . S
C103 H159 0.930 . S
C104 N105 1.314 . S
C104 C109 1.353 . S
C104 H110 0.930 . S
N105 Li88 1.990 . S
N105 C104 1.314 . S
N105 C107 1.279 . S
C106 C107 1.358 . S
C106 C108 1.356 . S
C106 H160 0.930 . S
C107 N105 1.279 . S
C107 C106 1.358 . S
C107 H111 0.930 . S
C108 C106 1.356 . S
C108 C109 1.348 . S
C109 C104 1.353 . S
C109 C108 1.348 . S
C109 H161 0.929 . S
H110 C104 0.930 . S
H111 C107 0.930 . S
C112 N113 1.314 . S
C112 C114 1.353 . S
C112 H118 0.930 . S
N113 Li89 1.990 . S
N113 C112 1.314 . S
N113 C116 1.279 . S
C114 C112 1.353 . S
C114 C117 1.348 . S
C114 H162 0.929 1_565 S
C115 C116 1.358 . S
C115 C117 1.356 . S
C115 H163 0.930 . S
C116 N113 1.279 . S
C116 C115 1.358 . S
C116 H119 0.930 . S
C117 C114 1.348 . S
C117 C115 1.356 . S
H118 C112 0.930 . S
H119 C116 0.930 . S
C120 C122 1.348 . S
C120 C123 1.356 . S
C120 O150 1.325 . S
N121 C124 1.314 . S
N121 C125 1.279 . S
C122 C120 1.348 . S
C122 C124 1.353 . S
C122 H164 0.929 . S
C123 C120 1.356 . S
C123 C125 1.358 . S
C123 H165 0.930 . S
C124 N121 1.314 . S
C124 C122 1.353 . S
C124 H166 0.930 . S
C125 N121 1.279 . S
C125 C123 1.358 . S
C125 H167 0.930 . S
C126 C127 1.359 . S
C126 C128 1.371 . S
C126 O151 1.301 1_545 S
C127 C126 1.359 . S
C127 C129 1.353 . S
C127 H168 0.929 . S
C128 C126 1.371 . S
C128 C130 1.358 . S
C128 H169 0.930 . S
C129 C127 1.353 . S
C129 N131 1.314 . S
C129 H170 0.930 . S
C130 C128 1.358 . S
C130 N131 1.279 . S
C130 H171 0.930 . S
N131 C129 1.314 . S
N131 C130 1.279 . S
C132 C134 1.353 . S
C132 N135 1.314 . S
C132 H138 0.930 . S
C133 N135 1.279 . S
C133 C136 1.358 . S
C133 H139 0.930 . S
C134 C132 1.353 . S
C134 C137 1.348 . S
C134 H172 0.929 . S
N135 Li90 1.990 . S
N135 C132 1.314 . S
N135 C133 1.279 . S
C136 C133 1.358 . S
C136 C137 1.356 . S
C136 H173 0.930 . S
C137 C134 1.348 . S
C137 C136 1.356 . S
H138 C132 0.930 . S
H139 C133 0.930 . S
C140 N141 1.314 . S
C140 C142 1.353 . S
C140 H146 0.930 . S
N141 Li91 1.990 . S
N141 C140 1.314 . S
N141 C144 1.269 1_565 S
C142 C140 1.353 . S
C142 C145 1.332 1_565 S
C142 H174 0.929 . S
C143 C144 1.364 . S
C143 C145 1.364 . S
C143 H175 0.930 . S
C144 N141 1.269 1_545 S
C144 C143 1.364 . S
C144 H147 0.936 . S
C145 C142 1.332 1_545 S
C145 C143 1.364 . S
H146 C140 0.930 . S
H147 C144 0.936 . S
O148 Li88 1.956 . S
O148 Li89 1.970 . S
O148 Li90 1.961 . S
O148 C92 1.325 . S
O149 Li88 1.970 . S
O149 Li89 1.956 . S
O149 Li91 1.961 . S
O149 C98 1.325 . S
O150 Li88 1.961 . S
O150 Li90 1.956 . S
O150 Li91 1.970 . S
O150 C120 1.325 . S
O151 Li89 1.961 . S
O151 Li90 1.970 . S
O151 Li91 1.956 . S
O151 C126 1.301 1_565 S
H152 C94 0.929 . S
H153 C95 0.930 . S
H154 C96 0.930 . S
H155 C97 0.930 . S
H156 C99 0.930 . S
H157 C101 0.929 . S
H158 C102 0.930 . S
H159 C103 0.930 . S
H160 C106 0.930 . S
H161 C109 0.929 . S
H162 C114 0.929 1_545 S
H163 C115 0.930 . S
H164 C122 0.929 . S
H165 C123 0.930 . S
H166 C124 0.930 . S
H167 C125 0.930 . S
H168 C127 0.929 . S
H169 C128 0.930 . S
H170 C129 0.930 . S
H171 C130 0.930 . S
H172 C134 0.929 . S
H173 C136 0.930 . S
H174 C142 0.929 . S
H175 C143 0.930 . S
Li176 N193 1.990 . S
Li176 O236 1.956 . S
Li176 O237 1.970 . S
Li176 O238 1.961 . S
Li177 N201 1.990 . S
Li177 O236 1.970 . S
Li177 O237 1.956 . S
Li177 O239 1.961 . S
Li178 N223 1.990 . S
Li178 O236 1.961 . S
Li178 O238 1.956 . S
Li178 O239 1.970 . S
Li179 N229 1.990 . S
Li179 O237 1.961 . S
Li179 O238 1.970 . S
Li179 O239 1.956 . S
C180 C182 1.348 . S
C180 C183 1.356 . S
C180 O236 1.325 . S
N181 C184 1.314 . S
N181 C185 1.279 . S
C182 C180 1.348 . S
C182 C184 1.353 . S
C182 H240 0.929 . S
C183 C180 1.356 . S
C183 C185 1.358 . S
C183 H241 0.930 . S
C184 N181 1.314 . S
C184 C182 1.353 . S
C184 H242 0.930 . S
C185 N181 1.279 . S
C185 C183 1.358 . S
C185 H243 0.930 . S
C186 C189 1.359 . S
C186 C190 1.371 . S
C186 O237 1.301 1_545 S
C187 N188 1.279 . S
C187 C190 1.358 . S
C187 H244 0.930 . S
N188 C187 1.279 . S
N188 C191 1.314 . S
C189 C186 1.359 . S
C189 C191 1.353 . S
C189 H245 0.929 . S
C190 C186 1.371 . S
C190 C187 1.358 . S
C190 H246 0.930 . S
C191 N188 1.314 . S
C191 C189 1.353 . S
C191 H247 0.930 . S
C192 N193 1.314 . S
C192 C197 1.353 . S
C192 H198 0.930 . S
N193 Li176 1.990 . S
N193 C192 1.314 . S
N193 C195 1.279 . S
C194 C195 1.358 . S
C194 C196 1.356 . S
C194 H248 0.930 . S
C195 N193 1.279 . S
C195 C194 1.358 . S
C195 H199 0.930 . S
C196 C194 1.356 . S
C196 C197 1.348 . S
C197 C192 1.353 . S
C197 C196 1.348 . S
C197 H249 0.929 . S
H198 C192 0.930 . S
H199 C195 0.930 . S
C200 N201 1.314 . S
C200 C202 1.353 . S
C200 H206 0.930 . S
N201 Li177 1.990 . S
N201 C200 1.314 . S
N201 C204 1.269 1_565 S
C202 C200 1.353 . S
C202 C205 1.332 1_565 S
C202 H250 0.929 . S
C203 C204 1.364 . S
C203 C205 1.364 . S
C203 H251 0.930 . S
C204 N201 1.269 1_545 S
C204 C203 1.364 . S
C204 H207 0.936 . S
C205 C202 1.332 1_545 S
C205 C203 1.364 . S
H206 C200 0.930 . S
H207 C204 0.936 . S
C208 C210 1.348 . S
C208 C211 1.356 . S
C208 O238 1.325 . S
N209 C212 1.314 . S
N209 C213 1.279 . S
C210 C208 1.348 . S
C210 C212 1.353 . S
C210 H252 0.929 . S
C211 C208 1.356 . S
C211 C213 1.358 . S
C211 H253 0.930 . S
C212 N209 1.314 . S
C212 C210 1.353 . S
C212 H254 0.930 . S
C213 N209 1.279 . S
C213 C211 1.358 . S
C213 H255 0.930 . S
C214 C215 1.348 . S
C214 C216 1.356 . S
C214 O239 1.325 . S
C215 C214 1.348 . S
C215 C217 1.353 . S
C215 H256 0.929 . S
C216 C214 1.356 . S
C216 C218 1.358 . S
C216 H257 0.930 . S
C217 C215 1.353 . S
C217 N219 1.314 . S
C217 H258 0.930 . S
C218 C216 1.358 . S
C218 N219 1.279 . S
C218 H259 0.930 . S
N219 C217 1.314 . S
N219 C218 1.279 . S
C220 C222 1.353 . S
C220 N223 1.314 . S
C220 H226 0.930 . S
C221 N223 1.279 . S
C221 C224 1.358 . S
C221 H227 0.930 . S
C222 C220 1.353 . S
C222 C225 1.348 . S
C222 H260 0.929 . S
N223 Li178 1.990 . S
N223 C220 1.314 . S
N223 C221 1.279 . S
C224 C221 1.358 . S
C224 C225 1.356 . S
C224 H261 0.930 . S
C225 C222 1.348 . S
C225 C224 1.356 . S
H226 C220 0.930 . S
H227 C221 0.930 . S
C228 N229 1.314 . S
C228 C230 1.353 . S
C228 H234 0.930 . S
N229 Li179 1.990 . S
N229 C228 1.314 . S
N229 C232 1.279 . S
C230 C228 1.353 . S
C230 C233 1.348 . S
C230 H262 0.929 1_565 S
C231 C232 1.358 . S
C231 C233 1.356 . S
C231 H263 0.930 . S
C232 N229 1.279 . S
C232 C231 1.358 . S
C232 H235 0.930 . S
C233 C230 1.348 . S
C233 C231 1.356 . S
H234 C228 0.930 . S
H235 C232 0.930 . S
O236 Li176 1.956 . S
O236 Li177 1.970 . S
O236 Li178 1.961 . S
O236 C180 1.325 . S
O237 Li176 1.970 . S
O237 Li177 1.956 . S
O237 Li179 1.961 . S
O237 C186 1.301 1_565 S
O238 Li176 1.961 . S
O238 Li178 1.956 . S
O238 Li179 1.970 . S
O238 C208 1.325 . S
O239 Li177 1.961 . S
O239 Li178 1.970 . S
O239 Li179 1.956 . S
O239 C214 1.325 . S
H240 C182 0.929 . S
H241 C183 0.930 . S
H242 C184 0.930 . S
H243 C185 0.930 . S
H244 C187 0.930 . S
H245 C189 0.929 . S
H246 C190 0.930 . S
H247 C191 0.930 . S
H248 C194 0.930 . S
H249 C197 0.929 . S
H250 C202 0.929 . S
H251 C203 0.930 . S
H252 C210 0.929 . S
H253 C211 0.930 . S
H254 C212 0.930 . S
H255 C213 0.930 . S
H256 C215 0.929 . S
H257 C216 0.930 . S
H258 C217 0.930 . S
H259 C218 0.930 . S
H260 C222 0.929 . S
H261 C224 0.930 . S
H262 C230 0.929 1_545 S
H263 C231 0.930 . S
Li264 N281 1.990 . S
Li264 O324 1.956 . S
Li264 O325 1.970 . S
Li264 O326 1.961 . S
Li265 N289 1.990 . S
Li265 O324 1.970 . S
Li265 O325 1.956 . S
Li265 O327 1.961 . S
Li266 N311 1.990 . S
Li266 O324 1.961 . S
Li266 O326 1.956 . S
Li266 O327 1.970 . S
Li267 N317 1.990 . S
Li267 O325 1.961 . S
Li267 O326 1.970 . S
Li267 O327 1.956 . S
C268 C270 1.359 . S
C268 C271 1.371 . S
C268 O324 1.301 1_565 S
N269 C272 1.314 . S
N269 C273 1.279 . S
C270 C268 1.359 . S
C270 C272 1.353 . S
C270 H328 0.929 . S
C271 C268 1.371 . S
C271 C273 1.358 . S
C271 H329 0.930 . S
C272 N269 1.314 . S
C272 C270 1.353 . S
C272 H330 0.930 . S
C273 N269 1.279 . S
C273 C271 1.358 . S
C273 H331 0.930 . S
C274 C277 1.348 . S
C274 C278 1.356 . S
C274 O325 1.325 . S
C275 N276 1.279 . S
C275 C278 1.358 . S
C275 H332 0.930 . S
N276 C275 1.279 . S
N276 C279 1.314 . S
C277 C274 1.348 . S
C277 C279 1.353 . S
C277 H333 0.929 . S
C278 C274 1.356 . S
C278 C275 1.358 . S
C278 H334 0.930 . S
C279 N276 1.314 . S
C279 C277 1.353 . S
C279 H335 0.930 . S
C280 N281 1.314 . S
C280 C285 1.353 . S
C280 H286 0.930 . S
N281 Li264 1.990 . S
N281 C280 1.314 . S
N281 C283 1.269 1_545 S
C282 C283 1.364 . S
C282 C284 1.364 . S
C282 H336 0.930 . S
C283 N281 1.269 1_565 S
C283 C282 1.364 . S
C283 H287 0.936 . S
C284 C282 1.364 . S
C284 C285 1.332 1_565 S
C285 C280 1.353 . S
C285 C284 1.332 1_545 S
C285 H337 0.929 1_655 S
H286 C280 0.930 . S
H287 C283 0.936 . S
C288 N289 1.314 . S
C288 C290 1.353 . S
C288 H294 0.930 . S
N289 Li265 1.990 . S
N289 C288 1.314 . S
N289 C292 1.279 . S
C290 C288 1.353 . S
C290 C293 1.348 . S
C290 H338 0.929 . S
C291 C292 1.358 . S
C291 C293 1.356 . S
C291 H339 0.930 . S
C292 N289 1.279 . S
C292 C291 1.358 . S
C292 H295 0.930 . S
C293 C290 1.348 . S
C293 C291 1.356 . S
H294 C288 0.930 . S
H295 C292 0.930 . S
C296 C298 1.348 1_655 S
C296 C299 1.356 1_655 S
C296 O326 1.325 . S
N297 C300 1.314 . S
N297 C301 1.279 . S
C298 C296 1.348 1_455 S
C298 C300 1.353 . S
C298 H340 0.929 1_455 S
C299 C296 1.356 1_455 S
C299 C301 1.358 . S
C299 H341 0.930 . S
C300 N297 1.314 . S
C300 C298 1.353 . S
C300 H342 0.930 . S
C301 N297 1.279 . S
C301 C299 1.358 . S
C301 H343 0.930 . S
C302 C303 1.348 . S
C302 C304 1.356 . S
C302 O327 1.325 . S
C303 C302 1.348 . S
C303 C305 1.353 . S
C303 H344 0.929 . S
C304 C302 1.356 . S
C304 C306 1.358 . S
C304 H345 0.930 . S
C305 C303 1.353 . S
C305 N307 1.314 . S
C305 H346 0.930 . S
C306 C304 1.358 . S
C306 N307 1.279 . S
C306 H347 0.930 . S
N307 C305 1.314 . S
N307 C306 1.279 . S
C308 C310 1.353 . S
C308 N311 1.314 . S
C308 H314 0.930 . S
C309 N311 1.279 . S
C309 C312 1.375 . S
C309 H315 0.930 . S
C310 C308 1.353 . S
C310 C313 1.348 . S
C310 H348 0.929 1_545 S
N311 Li266 1.990 . S
N311 C308 1.314 . S
N311 C309 1.279 . S
C312 C309 1.375 . S
C312 C313 1.376 . S
C312 H349 0.894 1_655 S
C313 C310 1.348 . S
C313 C312 1.376 . S
H314 C308 0.930 . S
H315 C309 0.930 . S
C316 N317 1.314 . S
C316 C318 1.353 . S
C316 H322 0.930 . S
N317 Li267 1.990 . S
N317 C316 1.314 . S
N317 C320 1.279 . S
C318 C316 1.353 . S
C318 C321 1.348 . S
C318 H350 0.929 . S
C319 C320 1.358 . S
C319 C321 1.356 . S
C319 H351 0.930 . S
C320 N317 1.279 . S
C320 C319 1.358 . S
C320 H323 0.930 . S
C321 C318 1.348 . S
C321 C319 1.356 . S
H322 C316 0.930 . S
H323 C320 0.930 . S
O324 Li264 1.956 . S
O324 Li265 1.970 . S
O324 Li266 1.961 . S
O324 C268 1.301 1_545 S
O325 Li264 1.970 . S
O325 Li265 1.956 . S
O325 Li267 1.961 . S
O325 C274 1.325 . S
O326 Li264 1.961 . S
O326 Li266 1.956 . S
O326 Li267 1.970 . S
O326 C296 1.325 . S
O327 Li265 1.961 . S
O327 Li266 1.970 . S
O327 Li267 1.956 . S
O327 C302 1.325 . S
H328 C270 0.929 . S
H329 C271 0.930 . S
H330 C272 0.930 . S
H331 C273 0.930 . S
H332 C275 0.930 . S
H333 C277 0.929 . S
H334 C278 0.930 . S
H335 C279 0.930 . S
H336 C282 0.930 . S
H337 C285 0.929 1_455 S
H338 C290 0.929 . S
H339 C291 0.930 . S
H340 C298 0.929 1_655 S
H341 C299 0.930 . S
H342 C300 0.930 . S
H343 C301 0.930 . S
H344 C303 0.929 . S
H345 C304 0.930 . S
H346 C305 0.930 . S
H347 C306 0.930 . S
H348 C310 0.929 1_565 S
H349 C312 0.894 1_455 S
H350 C318 0.929 . S
H351 C319 0.930 . S
Li352 N369 1.990 . S
Li352 O412 1.956 . S
Li352 O413 1.970 . S
Li352 O414 1.961 . S
Li353 N377 1.990 . S
Li353 O412 1.970 . S
Li353 O413 1.956 . S
Li353 O415 1.961 . S
Li354 N399 1.990 . S
Li354 O412 1.961 . S
Li354 O414 1.956 . S
Li354 O415 1.970 . S
Li355 N405 1.990 . S
Li355 O413 1.961 . S
Li355 O414 1.970 . S
Li355 O415 1.956 . S
C356 C358 1.348 . S
C356 C359 1.356 . S
C356 O412 1.325 . S
N357 C360 1.314 . S
N357 C361 1.279 . S
C358 C356 1.348 . S
C358 C360 1.353 . S
C358 H416 0.929 . S
C359 C356 1.356 . S
C359 C361 1.358 . S
C359 H417 0.930 . S
C360 N357 1.314 . S
C360 C358 1.353 . S
C360 H418 0.930 . S
C361 N357 1.279 . S
C361 C359 1.358 . S
C361 H419 0.930 . S
C362 C365 1.348 1_655 S
C362 C366 1.356 1_655 S
C362 O413 1.325 . S
C363 N364 1.279 . S
C363 C366 1.358 . S
C363 H420 0.930 . S
N364 C363 1.279 . S
N364 C367 1.314 . S
C365 C362 1.348 1_455 S
C365 C367 1.353 . S
C365 H421 0.929 1_455 S
C366 C362 1.356 1_455 S
C366 C363 1.358 . S
C366 H422 0.930 . S
C367 N364 1.314 . S
C367 C365 1.353 . S
C367 H423 0.930 . S
C368 N369 1.314 . S
C368 C373 1.353 . S
C368 H374 0.930 . S
N369 Li352 1.990 . S
N369 C368 1.314 . S
N369 C371 1.279 . S
C370 C371 1.358 . S
C370 C372 1.356 . S
C370 H424 0.930 . S
C371 N369 1.279 . S
C371 C370 1.358 . S
C371 H375 0.930 . S
C372 C370 1.356 . S
C372 C373 1.348 . S
C373 C368 1.353 . S
C373 C372 1.348 . S
C373 H425 0.929 . S
H374 C368 0.930 . S
H375 C371 0.930 . S
C376 N377 1.314 . S
C376 C378 1.353 1_565 S
C376 H382 0.930 . S
N377 Li353 1.990 . S
N377 C376 1.314 . S
N377 C380 1.279 . S
C378 C376 1.353 1_545 S
C378 C381 1.350 . S
C378 H426 0.929 . S
C379 C380 1.358 1_455 S
C379 C381 1.350 1_465 S
C379 H427 0.930 . S
C380 N377 1.279 . S
C380 C379 1.358 1_655 S
C380 H383 0.932 1_655 S
C381 C378 1.350 . S
C381 C379 1.350 1_645 S
H382 C376 0.930 . S
H383 C380 0.932 1_455 S
C384 C386 1.348 . S
C384 C387 1.356 . S
C384 O414 1.325 . S
N385 C388 1.314 . S
N385 C389 1.279 . S
C386 C384 1.348 . S
C386 C388 1.353 . S
C386 H428 0.929 . S
C387 C384 1.356 . S
C387 C389 1.358 . S
C387 H429 0.930 . S
C388 N385 1.314 . S
C388 C386 1.353 . S
C388 H430 0.930 . S
C389 N385 1.279 . S
C389 C387 1.358 . S
C389 H431 0.930 . S
C390 C391 1.357 . S
C390 C392 1.370 . S
C390 O415 1.303 1_545 S
C391 C390 1.357 . S
C391 C393 1.353 . S
C391 H432 0.929 . S
C392 C390 1.370 . S
C392 C394 1.358 . S
C392 H433 0.930 . S
C393 C391 1.353 . S
C393 N395 1.314 . S
C393 H434 0.930 . S
C394 C392 1.358 . S
C394 N395 1.279 . S
C394 H435 0.930 . S
N395 C393 1.314 . S
N395 C394 1.279 . S
C396 C398 1.353 . S
C396 N399 1.314 . S
C396 H402 0.930 . S
C397 N399 1.279 . S
C397 C400 1.358 . S
C397 H403 0.930 . S
C398 C396 1.353 . S
C398 C401 1.348 . S
C398 H436 0.929 . S
N399 Li354 1.990 . S
N399 C396 1.314 . S
N399 C397 1.279 . S
C400 C397 1.358 . S
C400 C401 1.356 . S
C400 H437 0.930 . S
C401 C398 1.348 . S
C401 C400 1.356 . S
H402 C396 0.930 . S
H403 C397 0.930 . S
C404 N405 1.314 . S
C404 C406 1.353 . S
C404 H410 0.930 . S
N405 Li355 1.990 . S
N405 C404 1.314 . S
N405 C408 1.279 . S
C406 C404 1.353 . S
C406 C409 1.348 . S
C406 H438 0.929 1_655 S
C407 C408 1.358 . S
C407 C409 1.356 . S
C407 H439 0.930 1_565 S
C408 N405 1.279 . S
C408 C407 1.358 . S
C408 H411 0.930 . S
C409 C406 1.348 . S
C409 C407 1.356 . S
H410 C404 0.930 . S
H411 C408 0.930 . S
O412 Li352 1.956 . S
O412 Li353 1.970 . S
O412 Li354 1.961 . S
O412 C356 1.325 . S
O413 Li352 1.970 . S
O413 Li353 1.956 . S
O413 Li355 1.961 . S
O413 C362 1.325 . S
O414 Li352 1.961 . S
O414 Li354 1.956 . S
O414 Li355 1.970 . S
O414 C384 1.325 . S
O415 Li353 1.961 . S
O415 Li354 1.970 . S
O415 Li355 1.956 . S
O415 C390 1.303 1_565 S
H416 C358 0.929 . S
H417 C359 0.930 . S
H418 C360 0.930 . S
H419 C361 0.930 . S
H420 C363 0.930 . S
H421 C365 0.929 1_655 S
H422 C366 0.930 . S
H423 C367 0.930 . S
H424 C370 0.930 . S
H425 C373 0.929 . S
H426 C378 0.929 . S
H427 C379 0.930 . S
H428 C386 0.929 . S
H429 C387 0.930 . S
H430 C388 0.930 . S
H431 C389 0.930 . S
H432 C391 0.929 . S
H433 C392 0.930 . S
H434 C393 0.930 . S
H435 C394 0.930 . S
H436 C398 0.929 . S
H437 C400 0.930 . S
H438 C406 0.929 1_455 S
H439 C407 0.930 1_545 S
Li440 N457 1.990 . S
Li440 O500 1.956 . S
Li440 O501 1.970 . S
Li440 O502 1.961 . S
Li441 N465 1.990 . S
Li441 O500 1.970 . S
Li441 O501 1.956 . S
Li441 O503 1.961 . S
Li442 N487 1.990 . S
Li442 O500 1.961 . S
Li442 O502 1.956 . S
Li442 O503 1.970 . S
Li443 N493 1.990 . S
Li443 O501 1.961 . S
Li443 O502 1.970 . S
Li443 O503 1.956 . S
C444 C446 1.348 . S
C444 C447 1.356 . S
C444 O500 1.325 . S
N445 C448 1.314 . S
N445 C449 1.279 . S
C446 C444 1.348 . S
C446 C448 1.353 . S
C446 H504 0.929 . S
C447 C444 1.356 . S
C447 C449 1.358 . S
C447 H505 0.930 . S
C448 N445 1.314 . S
C448 C446 1.353 . S
C448 H506 0.930 . S
C449 N445 1.279 . S
C449 C447 1.358 . S
C449 H507 0.930 . S
C450 C453 1.348 . S
C450 C454 1.356 . S
C450 O501 1.325 . S
C451 N452 1.279 . S
C451 C454 1.358 . S
C451 H508 0.930 . S
N452 C451 1.279 . S
N452 C455 1.314 . S
C453 C450 1.348 . S
C453 C455 1.353 . S
C453 H509 0.929 . S
C454 C450 1.356 . S
C454 C451 1.358 . S
C454 H510 0.930 . S
C455 N452 1.314 . S
C455 C453 1.353 . S
C455 H511 0.930 . S
C456 N457 1.314 . S
C456 C461 1.353 . S
C456 H462 0.930 . S
N457 Li440 1.990 . S
N457 C456 1.314 . S
N457 C459 1.279 . S
C458 C459 1.358 . S
C458 C460 1.356 . S
C458 H512 0.930 . S
C459 N457 1.279 . S
C459 C458 1.358 . S
C459 H463 0.930 . S
C460 C458 1.356 . S
C460 C461 1.348 . S
C461 C456 1.353 . S
C461 C460 1.348 . S
C461 H513 0.929 . S
H462 C456 0.930 . S
H463 C459 0.930 . S
C464 N465 1.314 . S
C464 C466 1.353 1_545 S
C464 H470 0.930 . S
N465 Li441 1.990 . S
N465 C464 1.314 . S
N465 C468 1.279 . S
C466 C464 1.353 1_565 S
C466 C469 1.350 . S
C466 H514 0.929 . S
C467 C468 1.358 . S
C467 C469 1.350 1_545 S
C467 H515 0.930 . S
C468 N465 1.279 . S
C468 C467 1.358 . S
C468 H471 0.930 . S
C469 C466 1.350 . S
C469 C467 1.350 1_565 S
H470 C464 0.930 . S
H471 C468 0.930 . S
C472 C474 1.348 . S
C472 C475 1.356 . S
C472 O502 1.325 . S
N473 C476 1.314 . S
N473 C477 1.279 . S
C474 C472 1.348 . S
C474 C476 1.353 . S
C474 H516 0.929 . S
C475 C472 1.356 . S
C475 C477 1.358 . S
C475 H517 0.930 . S
C476 N473 1.314 . S
C476 C474 1.353 . S
C476 H518 0.930 . S
C477 N473 1.279 . S
C477 C475 1.358 . S
C477 H519 0.930 . S
C478 C479 1.357 . S
C478 C480 1.370 . S
C478 O503 1.303 1_565 S
C479 C478 1.357 . S
C479 C481 1.353 . S
C479 H520 0.929 . S
C480 C478 1.370 . S
C480 C482 1.358 . S
C480 H521 0.930 . S
C481 C479 1.353 . S
C481 N483 1.314 . S
C481 H522 0.930 . S
C482 C480 1.358 . S
C482 N483 1.279 . S
C482 H523 0.930 . S
N483 C481 1.314 . S
N483 C482 1.279 . S
C484 C486 1.353 . S
C484 N487 1.314 . S
C484 H490 0.930 . S
C485 N487 1.279 . S
C485 C488 1.358 . S
C485 H491 0.930 . S
C486 C484 1.353 . S
C486 C489 1.348 . S
C486 H524 0.929 . S
N487 Li442 1.990 . S
N487 C484 1.314 . S
N487 C485 1.279 . S
C488 C485 1.358 . S
C488 C489 1.356 . S
C488 H525 0.930 . S
C489 C486 1.348 . S
C489 C488 1.356 . S
H490 C484 0.930 . S
H491 C485 0.930 . S
C492 N493 1.314 . S
C492 C494 1.353 . S
C492 H498 0.930 . S
N493 Li443 1.990 . S
N493 C492 1.314 . S
N493 C496 1.279 . S
C494 C492 1.353 . S
C494 C497 1.348 . S
C494 H526 0.929 . S
C495 C496 1.358 . S
C495 C497 1.356 . S
C495 H527 0.930 1_545 S
C496 N493 1.279 . S
C496 C495 1.358 . S
C496 H499 0.930 . S
C497 C494 1.348 . S
C497 C495 1.356 . S
H498 C492 0.930 . S
H499 C496 0.930 . S
O500 Li440 1.956 . S
O500 Li441 1.970 . S
O500 Li442 1.961 . S
O500 C444 1.325 . S
O501 Li440 1.970 . S
O501 Li441 1.956 . S
O501 Li443 1.961 . S
O501 C450 1.325 . S
O502 Li440 1.961 . S
O502 Li442 1.956 . S
O502 Li443 1.970 . S
O502 C472 1.325 . S
O503 Li441 1.961 . S
O503 Li442 1.970 . S
O503 Li443 1.956 . S
O503 C478 1.303 1_545 S
H504 C446 0.929 . S
H505 C447 0.930 . S
H506 C448 0.930 . S
H507 C449 0.930 . S
H508 C451 0.930 . S
H509 C453 0.929 . S
H510 C454 0.930 . S
H511 C455 0.930 . S
H512 C458 0.930 . S
H513 C461 0.929 . S
H514 C466 0.929 . S
H515 C467 0.930 . S
H516 C474 0.929 . S
H517 C475 0.930 . S
H518 C476 0.930 . S
H519 C477 0.930 . S
H520 C479 0.929 . S
H521 C480 0.930 . S
H522 C481 0.930 . S
H523 C482 0.930 . S
H524 C486 0.929 . S
H525 C488 0.930 . S
H526 C494 0.929 . S
H527 C495 0.930 1_565 S
Li528 N545 1.990 . S
Li528 O588 1.956 . S
Li528 O589 1.970 . S
Li528 O590 1.961 . S
Li529 N553 1.990 . S
Li529 O588 1.970 . S
Li529 O589 1.956 . S
Li529 O591 1.961 . S
Li530 N575 1.990 . S
Li530 O588 1.961 . S
Li530 O590 1.956 . S
Li530 O591 1.970 . S
Li531 N581 1.990 . S
Li531 O589 1.961 . S
Li531 O590 1.970 . S
Li531 O591 1.956 . S
C532 C534 1.348 . S
C532 C535 1.356 . S
C532 O588 1.325 . S
N533 C536 1.314 . S
N533 C537 1.279 . S
C534 C532 1.348 . S
C534 C536 1.353 . S
C534 H592 0.929 . S
C535 C532 1.356 . S
C535 C537 1.358 . S
C535 H593 0.930 . S
C536 N533 1.314 . S
C536 C534 1.353 . S
C536 H594 0.930 . S
C537 N533 1.279 . S
C537 C535 1.358 . S
C537 H595 0.930 . S
C538 C541 1.357 . S
C538 C542 1.370 . S
C538 O589 1.303 1_565 S
C539 N540 1.279 . S
C539 C542 1.358 . S
C539 H596 0.930 . S
N540 C539 1.279 . S
N540 C543 1.314 . S
C541 C538 1.357 . S
C541 C543 1.353 . S
C541 H597 0.929 . S
C542 C538 1.370 . S
C542 C539 1.358 . S
C542 H598 0.930 . S
C543 N540 1.314 . S
C543 C541 1.353 . S
C543 H599 0.930 . S
C544 N545 1.314 . S
C544 C549 1.353 . S
C544 H550 0.930 . S
N545 Li528 1.990 . S
N545 C544 1.314 . S
N545 C547 1.279 . S
C546 C547 1.358 . S
C546 C548 1.356 . S
C546 H600 0.930 . S
C547 N545 1.279 . S
C547 C546 1.358 . S
C547 H551 0.930 . S
C548 C546 1.356 . S
C548 C549 1.348 . S
C549 C544 1.353 . S
C549 C548 1.348 . S
C549 H601 0.929 . S
H550 C544 0.930 . S
H551 C547 0.930 . S
C552 N553 1.314 . S
C552 C554 1.353 . S
C552 H558 0.930 . S
N553 Li529 1.990 . S
N553 C552 1.314 . S
N553 C556 1.279 . S
C554 C552 1.353 . S
C554 C557 1.348 . S
C554 H602 0.929 . S
C555 C556 1.358 . S
C555 C557 1.356 . S
C555 H603 0.930 1_545 S
C556 N553 1.279 . S
C556 C555 1.358 . S
C556 H559 0.930 . S
C557 C554 1.348 . S
C557 C555 1.356 . S
H558 C552 0.930 . S
H559 C556 0.930 . S
C560 C562 1.348 . S
C560 C563 1.356 . S
C560 O590 1.325 . S
N561 C564 1.314 . S
N561 C565 1.279 . S
C562 C560 1.348 . S
C562 C564 1.353 . S
C562 H604 0.929 . S
C563 C560 1.356 . S
C563 C565 1.358 . S
C563 H605 0.930 . S
C564 N561 1.314 . S
C564 C562 1.353 . S
C564 H606 0.930 . S
C565 N561 1.279 . S
C565 C563 1.358 . S
C565 H607 0.930 . S
C566 C567 1.348 . S
C566 C568 1.356 . S
C566 O591 1.325 . S
C567 C566 1.348 . S
C567 C569 1.353 . S
C567 H608 0.929 . S
C568 C566 1.356 . S
C568 C570 1.358 . S
C568 H609 0.930 . S
C569 C567 1.353 . S
C569 N571 1.314 . S
C569 H610 0.930 . S
C570 C568 1.358 . S
C570 N571 1.279 . S
C570 H611 0.930 . S
N571 C569 1.314 . S
N571 C570 1.279 . S
C572 C574 1.353 . S
C572 N575 1.314 . S
C572 H578 0.930 . S
C573 N575 1.279 . S
C573 C576 1.358 . S
C573 H579 0.930 . S
C574 C572 1.353 . S
C574 C577 1.348 . S
C574 H612 0.929 . S
N575 Li530 1.990 . S
N575 C572 1.314 . S
N575 C573 1.279 . S
C576 C573 1.358 . S
C576 C577 1.356 . S
C576 H613 0.930 . S
C577 C574 1.348 . S
C577 C576 1.356 . S
H578 C572 0.930 . S
H579 C573 0.930 . S
C580 N581 1.314 . S
C580 C582 1.353 1_545 S
C580 H586 0.930 . S
N581 Li531 1.990 . S
N581 C580 1.314 . S
N581 C584 1.279 . S
C582 C580 1.353 1_565 S
C582 C585 1.350 . S
C582 H614 0.929 . S
C583 C584 1.358 . S
C583 C585 1.350 1_545 S
C583 H615 0.930 . S
C584 N581 1.279 . S
C584 C583 1.358 . S
C584 H587 0.930 . S
C585 C582 1.350 . S
C585 C583 1.350 1_565 S
H586 C580 0.930 . S
H587 C584 0.930 . S
O588 Li528 1.956 . S
O588 Li529 1.970 . S
O588 Li530 1.961 . S
O588 C532 1.325 . S
O589 Li528 1.970 . S
O589 Li529 1.956 . S
O589 Li531 1.961 . S
O589 C538 1.303 1_545 S
O590 Li528 1.961 . S
O590 Li530 1.956 . S
O590 Li531 1.970 . S
O590 C560 1.325 . S
O591 Li529 1.961 . S
O591 Li530 1.970 . S
O591 Li531 1.956 . S
O591 C566 1.325 . S
H592 C534 0.929 . S
H593 C535 0.930 . S
H594 C536 0.930 . S
H595 C537 0.930 . S
H596 C539 0.930 . S
H597 C541 0.929 . S
H598 C542 0.930 . S
H599 C543 0.930 . S
H600 C546 0.930 . S
H601 C549 0.929 . S
H602 C554 0.929 . S
H603 C555 0.930 1_565 S
H604 C562 0.929 . S
H605 C563 0.930 . S
H606 C564 0.930 . S
H607 C565 0.930 . S
H608 C567 0.929 . S
H609 C568 0.930 . S
H610 C569 0.930 . S
H611 C570 0.930 . S
H612 C574 0.929 . S
H613 C576 0.930 . S
H614 C582 0.929 . S
H615 C583 0.930 . S
Li616 N633 1.990 . S
Li616 O676 1.956 . S
Li616 O677 1.970 . S
Li616 O678 1.961 . S
Li617 N641 1.990 . S
Li617 O676 1.970 . S
Li617 O677 1.956 . S
Li617 O679 1.961 . S
Li618 N663 1.990 . S
Li618 O676 1.961 . S
Li618 O678 1.956 . S
Li618 O679 1.970 . S
Li619 N669 1.990 . S
Li619 O677 1.961 . S
Li619 O678 1.970 . S
Li619 O679 1.956 . S
C620 C622 1.357 . S
C620 C623 1.370 . S
C620 O676 1.303 1_545 S
N621 C624 1.314 . S
N621 C625 1.279 . S
C622 C620 1.357 . S
C622 C624 1.353 . S
C622 H680 0.929 . S
C623 C620 1.370 . S
C623 C625 1.358 . S
C623 H681 0.930 . S
C624 N621 1.314 . S
C624 C622 1.353 . S
C624 H682 0.930 . S
C625 N621 1.279 . S
C625 C623 1.358 . S
C625 H683 0.930 . S
C626 C629 1.348 . S
C626 C630 1.356 . S
C626 O677 1.325 . S
C627 N628 1.279 . S
C627 C630 1.358 . S
C627 H684 0.930 . S
N628 C627 1.279 . S
N628 C631 1.314 . S
C629 C626 1.348 . S
C629 C631 1.353 . S
C629 H685 0.929 . S
C630 C626 1.356 . S
C630 C627 1.358 . S
C630 H686 0.930 . S
C631 N628 1.314 . S
C631 C629 1.353 . S
C631 H687 0.930 . S
C632 N633 1.314 . S
C632 C637 1.353 . S
C632 H638 0.930 . S
N633 Li616 1.990 . S
N633 C632 1.314 . S
N633 C635 1.279 . S
C634 C635 1.358 . S
C634 C636 1.356 . S
C634 H688 0.930 1_565 S
C635 N633 1.279 . S
C635 C634 1.358 . S
C635 H639 0.930 . S
C636 C634 1.356 . S
C636 C637 1.348 . S
C637 C632 1.353 . S
C637 C636 1.348 . S
C637 H689 0.929 1_455 S
H638 C632 0.930 . S
H639 C635 0.930 . S
C640 N641 1.314 . S
C640 C642 1.353 . S
C640 H646 0.930 . S
N641 Li617 1.990 . S
N641 C640 1.314 . S
N641 C644 1.279 . S
C642 C640 1.353 . S
C642 C645 1.348 . S
C642 H690 0.929 . S
C643 C644 1.358 . S
C643 C645 1.356 . S
C643 H691 0.930 . S
C644 N641 1.279 . S
C644 C643 1.358 . S
C644 H647 0.930 . S
C645 C642 1.348 . S
C645 C643 1.356 . S
H646 C640 0.930 . S
H647 C644 0.930 . S
C648 C650 1.348 1_455 S
C648 C651 1.356 1_455 S
C648 O678 1.325 . S
N649 C652 1.314 . S
N649 C653 1.279 . S
C650 C648 1.348 1_655 S
C650 C652 1.353 . S
C650 H692 0.929 1_655 S
C651 C648 1.356 1_655 S
C651 C653 1.358 . S
C651 H693 0.930 . S
C652 N649 1.314 . S
C652 C650 1.353 . S
C652 H694 0.930 . S
C653 N649 1.279 . S
C653 C651 1.358 . S
C653 H695 0.930 . S
C654 C655 1.348 . S
C654 C656 1.356 . S
C654 O679 1.325 . S
C655 C654 1.348 . S
C655 C657 1.353 . S
C655 H696 0.929 . S
C656 C654 1.356 . S
C656 C658 1.358 . S
C656 H697 0.930 . S
C657 C655 1.353 . S
C657 N659 1.314 . S
C657 H698 0.930 . S
C658 C656 1.358 . S
C658 N659 1.279 . S
C658 H699 0.930 . S
N659 C657 1.314 . S
N659 C658 1.279 . S
C660 C662 1.353 1_565 S
C660 N663 1.314 . S
C660 H666 0.930 . S
C661 N663 1.279 . S
C661 C664 1.358 1_455 S
C661 H667 0.932 1_455 S
C662 C660 1.353 1_545 S
C662 C665 1.350 . S
C662 H700 0.929 . S
N663 Li618 1.990 . S
N663 C660 1.314 . S
N663 C661 1.279 . S
C664 C661 1.358 1_655 S
C664 C665 1.350 1_665 S
C664 H701 0.930 . S
C665 C662 1.350 . S
C665 C664 1.350 1_445 S
H666 C660 0.930 . S
H667 C661 0.932 1_655 S
C668 N669 1.314 . S
C668 C670 1.353 . S
C668 H674 0.930 . S
N669 Li619 1.990 . S
N669 C668 1.314 . S
N669 C672 1.279 . S
C670 C668 1.353 . S
C670 C673 1.348 . S
C670 H702 0.929 . S
C671 C672 1.358 . S
C671 C673 1.356 . S
C671 H703 0.930 . S
C672 N669 1.279 . S
C672 C671 1.358 . S
C672 H675 0.930 . S
C673 C670 1.348 . S
C673 C671 1.356 . S
H674 C668 0.930 . S
H675 C672 0.930 . S
O676 Li616 1.956 . S
O676 Li617 1.970 . S
O676 Li618 1.961 . S
O676 C620 1.303 1_565 S
O677 Li616 1.970 . S
O677 Li617 1.956 . S
O677 Li619 1.961 . S
O677 C626 1.325 . S
O678 Li616 1.961 . S
O678 Li618 1.956 . S
O678 Li619 1.970 . S
O678 C648 1.325 . S
O679 Li617 1.961 . S
O679 Li618 1.970 . S
O679 Li619 1.956 . S
O679 C654 1.325 . S
H680 C622 0.929 . S
H681 C623 0.930 . S
H682 C624 0.930 . S
H683 C625 0.930 . S
H684 C627 0.930 . S
H685 C629 0.929 . S
H686 C630 0.930 . S
H687 C631 0.930 . S
H688 C634 0.930 1_545 S
H689 C637 0.929 1_655 S
H690 C642 0.929 . S
H691 C643 0.930 . S
H692 C650 0.929 1_455 S
H693 C651 0.930 . S
H694 C652 0.930 . S
H695 C653 0.930 . S
H696 C655 0.929 . S
H697 C656 0.930 . S
H698 C657 0.930 . S
H699 C658 0.930 . S
H700 C662 0.929 . S
H701 C664 0.930 . S
H702 C670 0.929 . S
H703 C671 0.930 . S
Li704 N721 1.990 . S
Li704 O764 1.956 . S
Li704 O765 1.970 . S
Li704 O766 1.961 . S
Li705 N729 1.990 . S
Li705 O764 1.970 . S
Li705 O765 1.956 . S
Li705 O767 1.961 . S
Li706 N751 1.990 . S
Li706 O764 1.961 . S
Li706 O766 1.956 . S
Li706 O767 1.970 . S
Li707 N757 1.990 . S
Li707 O765 1.961 . S
Li707 O766 1.970 . S
Li707 O767 1.956 . S
C708 C710 1.348 . S
C708 C711 1.356 . S
C708 O764 1.325 . S
N709 C712 1.314 . S
N709 C713 1.279 . S
C710 C708 1.348 . S
C710 C712 1.353 . S
C710 H768 0.929 . S
C711 C708 1.356 . S
C711 C713 1.358 . S
C711 H769 0.930 . S
C712 N709 1.314 . S
C712 C710 1.353 . S
C712 H770 0.930 . S
C713 N709 1.279 . S
C713 C711 1.358 . S
C713 H771 0.930 . S
C714 C717 1.348 . S
C714 C718 1.356 . S
C714 O765 1.325 . S
C715 N716 1.279 . S
C715 C718 1.358 . S
C715 H772 0.930 . S
N716 C715 1.279 . S
N716 C719 1.314 . S
C717 C714 1.348 . S
C717 C719 1.353 . S
C717 H773 0.929 . S
C718 C714 1.356 . S
C718 C715 1.358 . S
C718 H774 0.930 . S
C719 N716 1.314 . S
C719 C717 1.353 . S
C719 H775 0.930 . S
C720 N721 1.314 . S
C720 C725 1.353 . S
C720 H726 0.930 . S
N721 Li704 1.990 . S
N721 C720 1.314 . S
N721 C723 1.279 . S
C722 C723 1.358 . S
C722 C724 1.356 . S
C722 H776 0.930 . S
C723 N721 1.279 . S
C723 C722 1.358 . S
C723 H727 0.930 . S
C724 C722 1.356 . S
C724 C725 1.348 . S
C725 C720 1.353 . S
C725 C724 1.348 . S
C725 H777 0.929 . S
H726 C720 0.930 . S
H727 C723 0.930 . S
C728 N729 1.314 . S
C728 C730 1.353 . S
C728 H734 0.930 . S
N729 Li705 1.990 . S
N729 C728 1.314 . S
N729 C732 1.279 . S
C730 C728 1.353 . S
C730 C733 1.348 . S
C730 H778 0.929 . S
C731 C732 1.358 . S
C731 C733 1.356 . S
C731 H779 0.930 . S
C732 N729 1.279 . S
C732 C731 1.358 . S
C732 H735 0.930 . S
C733 C730 1.348 . S
C733 C731 1.356 . S
H734 C728 0.930 . S
H735 C732 0.930 . S
C736 C738 1.348 . S
C736 C739 1.356 . S
C736 O766 1.325 . S
N737 C740 1.314 . S
N737 C741 1.279 . S
C738 C736 1.348 . S
C738 C740 1.353 . S
C738 H780 0.929 . S
C739 C736 1.356 . S
C739 C741 1.358 . S
C739 H781 0.930 . S
C740 N737 1.314 . S
C740 C738 1.353 . S
C740 H782 0.930 . S
C741 N737 1.279 . S
C741 C739 1.358 . S
C741 H783 0.930 . S
C742 C743 1.348 . S
C742 C744 1.356 . S
C742 O767 1.325 . S
C743 C742 1.348 . S
C743 C745 1.353 . S
C743 H784 0.929 . S
C744 C742 1.356 . S
C744 C746 1.358 . S
C744 H785 0.930 . S
C745 C743 1.353 . S
C745 N747 1.314 . S
C745 H786 0.930 . S
C746 C744 1.358 . S
C746 N747 1.279 . S
C746 H787 0.930 . S
N747 C745 1.314 . S
N747 C746 1.279 . S
C748 C750 1.353 . S
C748 N751 1.314 . S
C748 H754 0.930 . S
C749 N751 1.279 . S
C749 C752 1.358 . S
C749 H755 0.930 . S
C750 C748 1.353 . S
C750 C753 1.348 . S
C750 H788 0.929 . S
N751 Li706 1.990 . S
N751 C748 1.314 . S
N751 C749 1.279 . S
C752 C749 1.358 . S
C752 C753 1.356 . S
C752 H789 0.930 . S
C753 C750 1.348 . S
C753 C752 1.356 . S
H754 C748 0.930 . S
H755 C749 0.930 . S
C756 N757 1.314 . S
C756 C758 1.353 . S
C756 H762 0.930 . S
N757 Li707 1.990 . S
N757 C756 1.314 . S
N757 C760 1.279 . S
C758 C756 1.353 . S
C758 C761 1.348 . S
C758 H790 0.929 . S
C759 C760 1.358 . S
C759 C761 1.356 . S
C759 H791 0.930 . S
C760 N757 1.279 . S
C760 C759 1.358 . S
C760 H763 0.930 . S
C761 C758 1.348 . S
C761 C759 1.356 . S
H762 C756 0.930 . S
H763 C760 0.930 . S
O764 Li704 1.956 . S
O764 Li705 1.970 . S
O764 Li706 1.961 . S
O764 C708 1.325 . S
O765 Li704 1.970 . S
O765 Li705 1.956 . S
O765 Li707 1.961 . S
O765 C714 1.325 . S
O766 Li704 1.961 . S
O766 Li706 1.956 . S
O766 Li707 1.970 . S
O766 C736 1.325 . S
O767 Li705 1.961 . S
O767 Li706 1.970 . S
O767 Li707 1.956 . S
O767 C742 1.325 . S
H768 C710 0.929 . S
H769 C711 0.930 . S
H770 C712 0.930 . S
H771 C713 0.930 . S
H772 C715 0.930 . S
H773 C717 0.929 . S
H774 C718 0.930 . S
H775 C719 0.930 . S
H776 C722 0.930 . S
H777 C725 0.929 . S
H778 C730 0.929 . S
H779 C731 0.930 . S
H780 C738 0.929 . S
H781 C739 0.930 . S
H782 C740 0.930 . S
H783 C741 0.930 . S
H784 C743 0.929 . S
H785 C744 0.930 . S
H786 C745 0.930 . S
H787 C746 0.930 . S
H788 C750 0.929 . S
H789 C752 0.930 . S
H790 C758 0.929 . S
H791 C759 0.930 . S
Li792 N809 1.990 . S
Li792 O852 1.956 . S
Li792 O853 1.970 . S
Li792 O854 1.961 . S
Li793 N817 1.990 . S
Li793 O852 1.970 . S
Li793 O853 1.956 . S
Li793 O855 1.961 . S
Li794 N839 1.990 . S
Li794 O852 1.961 . S
Li794 O854 1.956 . S
Li794 O855 1.970 . S
Li795 N845 1.990 . S
Li795 O853 1.961 . S
Li795 O854 1.970 . S
Li795 O855 1.956 . S
C796 C798 1.348 . S
C796 C799 1.356 . S
C796 O852 1.325 . S
N797 C800 1.314 . S
N797 C801 1.279 . S
C798 C796 1.348 . S
C798 C800 1.353 . S
C798 H856 0.929 . S
C799 C796 1.356 . S
C799 C801 1.358 . S
C799 H857 0.930 . S
C800 N797 1.314 . S
C800 C798 1.353 . S
C800 H858 0.930 . S
C801 N797 1.279 . S
C801 C799 1.358 . S
C801 H859 0.930 . S
C802 C805 1.348 1_655 S
C802 C806 1.356 1_655 S
C802 O853 1.325 . S
C803 N804 1.279 . S
C803 C806 1.358 . S
C803 H860 0.930 . S
N804 C803 1.279 . S
N804 C807 1.314 . S
C805 C802 1.348 1_455 S
C805 C807 1.353 . S
C805 H861 0.929 1_455 S
C806 C802 1.356 1_455 S
C806 C803 1.358 . S
C806 H862 0.930 . S
C807 N804 1.314 . S
C807 C805 1.353 . S
C807 H863 0.930 . S
C808 N809 1.314 . S
C808 C813 1.353 . S
C808 H814 0.930 . S
N809 Li792 1.990 . S
N809 C808 1.314 . S
N809 C811 1.279 . S
C810 C811 1.358 . S
C810 C812 1.356 . S
C810 H864 0.930 . S
C811 N809 1.279 . S
C811 C810 1.358 . S
C811 H815 0.930 . S
C812 C810 1.356 . S
C812 C813 1.348 . S
C813 C808 1.353 . S
C813 C812 1.348 . S
C813 H865 0.929 . S
H814 C808 0.930 . S
H815 C811 0.930 . S
C816 N817 1.314 . S
C816 C818 1.353 . S
C816 H822 0.930 . S
N817 Li793 1.990 . S
N817 C816 1.314 . S
N817 C820 1.279 . S
C818 C816 1.353 . S
C818 C821 1.348 . S
C818 H866 0.929 . S
C819 C820 1.375 . S
C819 C821 1.376 . S
C819 H867 0.894 1_655 S
C820 N817 1.279 . S
C820 C819 1.375 . S
C820 H823 0.930 . S
C821 C818 1.348 . S
C821 C819 1.376 . S
H822 C816 0.930 . S
H823 C820 0.930 . S
C824 C826 1.348 . S
C824 C827 1.356 . S
C824 O854 1.325 . S
N825 C828 1.314 . S
N825 C829 1.279 . S
C826 C824 1.348 . S
C826 C828 1.353 . S
C826 H868 0.929 . S
C827 C824 1.356 . S
C827 C829 1.358 . S
C827 H869 0.930 . S
C828 N825 1.314 . S
C828 C826 1.353 . S
C828 H870 0.930 . S
C829 N825 1.279 . S
C829 C827 1.358 . S
C829 H871 0.930 . S
C830 C831 1.348 . S
C830 C832 1.356 . S
C830 O855 1.325 . S
C831 C830 1.348 . S
C831 C833 1.353 . S
C831 H872 0.929 . S
C832 C830 1.356 . S
C832 C834 1.358 . S
C832 H873 0.930 . S
C833 C831 1.353 . S
C833 N835 1.314 . S
C833 H874 0.930 . S
C834 C832 1.358 . S
C834 N835 1.279 . S
C834 H875 0.930 . S
N835 C833 1.314 . S
N835 C834 1.279 . S
C836 C838 1.353 . S
C836 N839 1.314 . S
C836 H842 0.930 . S
C837 N839 1.279 . S
C837 C840 1.358 . S
C837 H843 0.930 . S
C838 C836 1.353 . S
C838 C841 1.348 . S
C838 H876 0.929 . S
N839 Li794 1.990 . S
N839 C836 1.314 . S
N839 C837 1.279 . S
C840 C837 1.358 . S
C840 C841 1.356 . S
C840 H877 0.930 . S
C841 C838 1.348 . S
C841 C840 1.356 . S
H842 C836 0.930 . S
H843 C837 0.930 . S
C844 N845 1.314 . S
C844 C846 1.353 . S
C844 H850 0.930 . S
N845 Li795 1.990 . S
N845 C844 1.314 . S
N845 C848 1.279 . S
C846 C844 1.353 . S
C846 C849 1.348 . S
C846 H878 0.929 1_655 S
C847 C848 1.358 . S
C847 C849 1.356 . S
C847 H879 0.930 . S
C848 N845 1.279 . S
C848 C847 1.358 . S
C848 H851 0.930 . S
C849 C846 1.348 . S
C849 C847 1.356 . S
H850 C844 0.930 . S
H851 C848 0.930 . S
O852 Li792 1.956 . S
O852 Li793 1.970 . S
O852 Li794 1.961 . S
O852 C796 1.325 . S
O853 Li792 1.970 . S
O853 Li793 1.956 . S
O853 Li795 1.961 . S
O853 C802 1.325 . S
O854 Li792 1.961 . S
O854 Li794 1.956 . S
O854 Li795 1.970 . S
O854 C824 1.325 . S
O855 Li793 1.961 . S
O855 Li794 1.970 . S
O855 Li795 1.956 . S
O855 C830 1.325 . S
H856 C798 0.929 . S
H857 C799 0.930 . S
H858 C800 0.930 . S
H859 C801 0.930 . S
H860 C803 0.930 . S
H861 C805 0.929 1_655 S
H862 C806 0.930 . S
H863 C807 0.930 . S
H864 C810 0.930 . S
H865 C813 0.929 . S
H866 C818 0.929 . S
H867 C819 0.894 1_455 S
H868 C826 0.929 . S
H869 C827 0.930 . S
H870 C828 0.930 . S
H871 C829 0.930 . S
H872 C831 0.929 . S
H873 C832 0.930 . S
H874 C833 0.930 . S
H875 C834 0.930 . S
H876 C838 0.929 . S
H877 C840 0.930 . S
H878 C846 0.929 1_455 S
H879 C847 0.930 . S
Li880 N897 1.990 . S
Li880 O940 1.956 . S
Li880 O941 1.970 . S
Li880 O942 1.961 . S
Li881 N905 1.990 . S
Li881 O940 1.970 . S
Li881 O941 1.956 . S
Li881 O943 1.961 . S
Li882 N927 1.990 . S
Li882 O940 1.961 . S
Li882 O942 1.956 . S
Li882 O943 1.970 . S
Li883 N933 1.990 . S
Li883 O941 1.961 . S
Li883 O942 1.970 . S
Li883 O943 1.956 . S
C884 C886 1.348 . S
C884 C887 1.356 . S
C884 O940 1.325 . S
N885 C888 1.314 . S
N885 C889 1.279 . S
C886 C884 1.348 . S
C886 C888 1.353 . S
C886 H944 0.929 . S
C887 C884 1.356 . S
C887 C889 1.358 . S
C887 H945 0.930 . S
C888 N885 1.314 . S
C888 C886 1.353 . S
C888 H946 0.930 . S
C889 N885 1.279 . S
C889 C887 1.358 . S
C889 H947 0.930 . S
C890 C893 1.348 . S
C890 C894 1.356 . S
C890 O941 1.325 . S
C891 N892 1.279 . S
C891 C894 1.358 . S
C891 H948 0.930 . S
N892 C891 1.279 . S
N892 C895 1.314 . S
C893 C890 1.348 . S
C893 C895 1.353 . S
C893 H949 0.929 . S
C894 C890 1.356 . S
C894 C891 1.358 . S
C894 H950 0.930 . S
C895 N892 1.314 . S
C895 C893 1.353 . S
C895 H951 0.930 . S
C896 N897 1.314 . S
C896 C901 1.353 . S
C896 H902 0.930 . S
N897 Li880 1.990 . S
N897 C896 1.314 . S
N897 C899 1.279 . S
C898 C899 1.358 . S
C898 C900 1.356 . S
C898 H952 0.930 . S
C899 N897 1.279 . S
C899 C898 1.358 . S
C899 H903 0.930 . S
C900 C898 1.356 . S
C900 C901 1.348 . S
C901 C896 1.353 . S
C901 C900 1.348 . S
C901 H953 0.929 1_455 S
H902 C896 0.930 . S
H903 C899 0.930 . S
C904 N905 1.314 . S
C904 C906 1.353 . S
C904 H910 0.930 . S
N905 Li881 1.990 . S
N905 C904 1.314 . S
N905 C908 1.279 . S
C906 C904 1.353 . S
C906 C909 1.348 . S
C906 H954 0.929 . S
C907 C908 1.358 . S
C907 C909 1.356 . S
C907 H955 0.930 . S
C908 N905 1.279 . S
C908 C907 1.358 . S
C908 H911 0.930 . S
C909 C906 1.348 . S
C909 C907 1.356 . S
H910 C904 0.930 . S
H911 C908 0.930 . S
C912 C914 1.348 1_455 S
C912 C915 1.356 1_455 S
C912 O942 1.325 . S
N913 C916 1.314 . S
N913 C917 1.279 . S
C914 C912 1.348 1_655 S
C914 C916 1.353 . S
C914 H956 0.929 1_655 S
C915 C912 1.356 1_655 S
C915 C917 1.358 . S
C915 H957 0.930 . S
C916 N913 1.314 . S
C916 C914 1.353 . S
C916 H958 0.930 . S
C917 N913 1.279 . S
C917 C915 1.358 . S
C917 H959 0.930 . S
C918 C919 1.348 . S
C918 C920 1.356 . S
C918 O943 1.325 . S
C919 C918 1.348 . S
C919 C921 1.353 . S
C919 H960 0.929 . S
C920 C918 1.356 . S
C920 C922 1.358 . S
C920 H961 0.930 . S
C921 C919 1.353 . S
C921 N923 1.314 . S
C921 H962 0.930 . S
C922 C920 1.358 . S
C922 N923 1.279 . S
C922 H963 0.930 . S
N923 C921 1.314 . S
N923 C922 1.279 . S
C924 C926 1.353 . S
C924 N927 1.314 . S
C924 H930 0.930 . S
C925 N927 1.279 . S
C925 C928 1.375 . S
C925 H931 0.930 . S
C926 C924 1.353 . S
C926 C929 1.348 . S
C926 H964 0.929 . S
N927 Li882 1.990 . S
N927 C924 1.314 . S
N927 C925 1.279 . S
C928 C925 1.375 . S
C928 C929 1.376 . S
C928 H965 0.894 1_455 S
C929 C926 1.348 . S
C929 C928 1.376 . S
H930 C924 0.930 . S
H931 C925 0.930 . S
C932 N933 1.314 . S
C932 C934 1.353 . S
C932 H938 0.930 . S
N933 Li883 1.990 . S
N933 C932 1.314 . S
N933 C936 1.279 . S
C934 C932 1.353 . S
C934 C937 1.348 . S
C934 H966 0.929 . S
C935 C936 1.358 . S
C935 C937 1.356 . S
C935 H967 0.930 . S
C936 N933 1.279 . S
C936 C935 1.358 . S
C936 H939 0.930 . S
C937 C934 1.348 . S
C937 C935 1.356 . S
H938 C932 0.930 . S
H939 C936 0.930 . S
O940 Li880 1.956 . S
O940 Li881 1.970 . S
O940 Li882 1.961 . S
O940 C884 1.325 . S
O941 Li880 1.970 . S
O941 Li881 1.956 . S
O941 Li883 1.961 . S
O941 C890 1.325 . S
O942 Li880 1.961 . S
O942 Li882 1.956 . S
O942 Li883 1.970 . S
O942 C912 1.325 . S
O943 Li881 1.961 . S
O943 Li882 1.970 . S
O943 Li883 1.956 . S
O943 C918 1.325 . S
H944 C886 0.929 . S
H945 C887 0.930 . S
H946 C888 0.930 . S
H947 C889 0.930 . S
H948 C891 0.930 . S
H949 C893 0.929 . S
H950 C894 0.930 . S
H951 C895 0.930 . S
H952 C898 0.930 . S
H953 C901 0.929 1_655 S
H954 C906 0.929 . S
H955 C907 0.930 . S
H956 C914 0.929 1_455 S
H957 C915 0.930 . S
H958 C916 0.930 . S
H959 C917 0.930 . S
H960 C919 0.929 . S
H961 C920 0.930 . S
H962 C921 0.930 . S
H963 C922 0.930 . S
H964 C926 0.929 . S
H965 C928 0.894 1_655 S
H966 C934 0.929 . S
H967 C935 0.930 . S
Li968 N985 1.990 . S
Li968 O1028 1.956 . S
Li968 O1029 1.970 . S
Li968 O1030 1.961 . S
Li969 N993 1.990 . S
Li969 O1028 1.970 . S
Li969 O1029 1.956 . S
Li969 O1031 1.961 . S
Li970 N1015 1.990 . S
Li970 O1028 1.961 . S
Li970 O1030 1.956 . S
Li970 O1031 1.970 . S
Li971 N1021 1.990 . S
Li971 O1029 1.961 . S
Li971 O1030 1.970 . S
Li971 O1031 1.956 . S
C972 C974 1.348 . S
C972 C975 1.356 . S
C972 O1028 1.325 . S
N973 C976 1.314 . S
N973 C977 1.279 . S
C974 C972 1.348 . S
C974 C976 1.353 . S
C974 H1032 0.929 . S
C975 C972 1.356 . S
C975 C977 1.358 . S
C975 H1033 0.930 . S
C976 N973 1.314 . S
C976 C974 1.353 . S
C976 H1034 0.930 . S
C977 N973 1.279 . S
C977 C975 1.358 . S
C977 H1035 0.930 . S
C978 C981 1.348 . S
C978 C982 1.356 . S
C978 O1029 1.325 . S
C979 N980 1.279 . S
C979 C982 1.358 . S
C979 H1036 0.930 . S
N980 C979 1.279 . S
N980 C983 1.314 . S
C981 C978 1.348 . S
C981 C983 1.353 . S
C981 H1037 0.929 . S
C982 C978 1.356 . S
C982 C979 1.358 . S
C982 H1038 0.930 . S
C983 N980 1.314 . S
C983 C981 1.353 . S
C983 H1039 0.930 . S
C984 N985 1.314 . S
C984 C989 1.353 . S
C984 H990 0.930 . S
N985 Li968 1.990 . S
N985 C984 1.314 . S
N985 C987 1.279 . S
C986 C987 1.358 . S
C986 C988 1.356 . S
C986 H1040 0.930 . S
C987 N985 1.279 . S
C987 C986 1.358 . S
C987 H991 0.930 . S
C988 C986 1.356 . S
C988 C989 1.348 . S
C989 C984 1.353 . S
C989 C988 1.348 . S
C989 H1041 0.929 . S
H990 C984 0.930 . S
H991 C987 0.930 . S
C992 N993 1.314 . S
C992 C994 1.353 . S
C992 H998 0.930 . S
N993 Li969 1.990 . S
N993 C992 1.314 . S
N993 C996 1.279 . S
C994 C992 1.353 . S
C994 C997 1.348 . S
C994 H1042 0.929 . S
C995 C996 1.358 . S
C995 C997 1.356 . S
C995 H1043 0.930 . S
C996 N993 1.279 . S
C996 C995 1.358 . S
C996 H999 0.930 . S
C997 C994 1.348 . S
C997 C995 1.356 . S
H998 C992 0.930 . S
H999 C996 0.930 . S
C1000 C1002 1.348 . S
C1000 C1003 1.356 . S
C1000 O1030 1.325 . S
N1001 C1004 1.314 . S
N1001 C1005 1.279 . S
C1002 C1000 1.348 . S
C1002 C1004 1.353 . S
C1002 H1044 0.929 . S
C1003 C1000 1.356 . S
C1003 C1005 1.358 . S
C1003 H1045 0.930 . S
C1004 N1001 1.314 . S
C1004 C1002 1.353 . S
C1004 H1046 0.930 . S
C1005 N1001 1.279 . S
C1005 C1003 1.358 . S
C1005 H1047 0.930 . S
C1006 C1007 1.348 . S
C1006 C1008 1.356 . S
C1006 O1031 1.325 . S
C1007 C1006 1.348 . S
C1007 C1009 1.353 . S
C1007 H1048 0.929 . S
C1008 C1006 1.356 . S
C1008 C1010 1.358 . S
C1008 H1049 0.930 . S
C1009 C1007 1.353 . S
C1009 N1011 1.314 . S
C1009 H1050 0.930 . S
C1010 C1008 1.358 . S
C1010 N1011 1.279 . S
C1010 H1051 0.930 . S
N1011 C1009 1.314 . S
N1011 C1010 1.279 . S
C1012 C1014 1.353 . S
C1012 N1015 1.314 . S
C1012 H1018 0.930 . S
C1013 N1015 1.279 . S
C1013 C1016 1.358 . S
C1013 H1019 0.930 . S
C1014 C1012 1.353 . S
C1014 C1017 1.348 . S
C1014 H1052 0.929 . S
N1015 Li970 1.990 . S
N1015 C1012 1.314 . S
N1015 C1013 1.279 . S
C1016 C1013 1.358 . S
C1016 C1017 1.356 . S
C1016 H1053 0.930 . S
C1017 C1014 1.348 . S
C1017 C1016 1.356 . S
H1018 C1012 0.930 . S
H1019 C1013 0.930 . S
C1020 N1021 1.314 . S
C1020 C1022 1.353 . S
C1020 H1026 0.930 . S
N1021 Li971 1.990 . S
N1021 C1020 1.314 . S
N1021 C1024 1.279 . S
C1022 C1020 1.353 . S
C1022 C1025 1.348 . S
C1022 H1054 0.929 . S
C1023 C1024 1.358 . S
C1023 C1025 1.356 . S
C1023 H1055 0.930 . S
C1024 N1021 1.279 . S
C1024 C1023 1.358 . S
C1024 H1027 0.930 . S
C1025 C1022 1.348 . S
C1025 C1023 1.356 . S
H1026 C1020 0.930 . S
H1027 C1024 0.930 . S
O1028 Li968 1.956 . S
O1028 Li969 1.970 . S
O1028 Li970 1.961 . S
O1028 C972 1.325 . S
O1029 Li968 1.970 . S
O1029 Li969 1.956 . S
O1029 Li971 1.961 . S
O1029 C978 1.325 . S
O1030 Li968 1.961 . S
O1030 Li970 1.956 . S
O1030 Li971 1.970 . S
O1030 C1000 1.325 . S
O1031 Li969 1.961 . S
O1031 Li970 1.970 . S
O1031 Li971 1.956 . S
O1031 C1006 1.325 . S
H1032 C974 0.929 . S
H1033 C975 0.930 . S
H1034 C976 0.930 . S
H1035 C977 0.930 . S
H1036 C979 0.930 . S
H1037 C981 0.929 . S
H1038 C982 0.930 . S
H1039 C983 0.930 . S
H1040 C986 0.930 . S
H1041 C989 0.929 . S
H1042 C994 0.929 . S
H1043 C995 0.930 . S
H1044 C1002 0.929 . S
H1045 C1003 0.930 . S
H1046 C1004 0.930 . S
H1047 C1005 0.930 . S
H1048 C1007 0.929 . S
H1049 C1008 0.930 . S
H1050 C1009 0.930 . S
H1051 C1010 0.930 . S
H1052 C1014 0.929 . S
H1053 C1016 0.930 . S
H1054 C1022 0.929 . S
H1055 C1023 0.930 . S
Li1056 N1073 1.990 . S
Li1056 O1116 1.956 . S
Li1056 O1117 1.970 . S
Li1056 O1118 1.961 . S
Li1057 N1081 1.990 . S
Li1057 O1116 1.970 . S
Li1057 O1117 1.956 . S
Li1057 O1119 1.961 . S
Li1058 N1103 1.990 . S
Li1058 O1116 1.961 . S
Li1058 O1118 1.956 . S
Li1058 O1119 1.970 . S
Li1059 N1109 1.990 . S
Li1059 O1117 1.961 . S
Li1059 O1118 1.970 . S
Li1059 O1119 1.956 . S
C1060 C1062 1.348 . S
C1060 C1063 1.356 . S
C1060 O1116 1.325 . S
N1061 C1064 1.314 . S
N1061 C1065 1.279 . S
C1062 C1060 1.348 . S
C1062 C1064 1.353 . S
C1062 H1120 0.929 . S
C1063 C1060 1.356 . S
C1063 C1065 1.358 . S
C1063 H1121 0.930 . S
C1064 N1061 1.314 . S
C1064 C1062 1.353 . S
C1064 H1122 0.930 . S
C1065 N1061 1.279 . S
C1065 C1063 1.358 . S
C1065 H1123 0.930 . S
C1066 C1069 1.348 . S
C1066 C1070 1.356 . S
C1066 O1117 1.325 . S
C1067 N1068 1.279 . S
C1067 C1070 1.358 . S
C1067 H1124 0.930 . S
N1068 C1067 1.279 . S
N1068 C1071 1.314 . S
C1069 C1066 1.348 . S
C1069 C1071 1.353 . S
C1069 H1125 0.929 . S
C1070 C1066 1.356 . S
C1070 C1067 1.358 . S
C1070 H1126 0.930 . S
C1071 N1068 1.314 . S
C1071 C1069 1.353 . S
C1071 H1127 0.930 . S
C1072 N1073 1.314 . S
C1072 C1077 1.353 . S
C1072 H1078 0.930 . S
N1073 Li1056 1.990 . S
N1073 C1072 1.314 . S
N1073 C1075 1.279 . S
C1074 C1075 1.358 . S
C1074 C1076 1.356 . S
C1074 H1128 0.930 . S
C1075 N1073 1.279 . S
C1075 C1074 1.358 . S
C1075 H1079 0.930 . S
C1076 C1074 1.356 . S
C1076 C1077 1.348 . S
C1077 C1072 1.353 . S
C1077 C1076 1.348 . S
C1077 H1129 0.929 . S
H1078 C1072 0.930 . S
H1079 C1075 0.930 . S
C1080 N1081 1.314 . S
C1080 C1082 1.353 . S
C1080 H1086 0.930 . S
N1081 Li1057 1.990 . S
N1081 C1080 1.314 . S
N1081 C1084 1.279 . S
C1082 C1080 1.353 . S
C1082 C1085 1.348 . S
C1082 H1130 0.929 . S
C1083 C1084 1.358 . S
C1083 C1085 1.356 . S
C1083 H1131 0.930 . S
C1084 N1081 1.279 . S
C1084 C1083 1.358 . S
C1084 H1087 0.930 . S
C1085 C1082 1.348 . S
C1085 C1083 1.356 . S
H1086 C1080 0.930 . S
H1087 C1084 0.930 . S
C1088 C1090 1.348 . S
C1088 C1091 1.356 . S
C1088 O1118 1.325 . S
N1089 C1092 1.314 . S
N1089 C1093 1.279 . S
C1090 C1088 1.348 . S
C1090 C1092 1.353 . S
C1090 H1132 0.929 . S
C1091 C1088 1.356 . S
C1091 C1093 1.358 . S
C1091 H1133 0.930 . S
C1092 N1089 1.314 . S
C1092 C1090 1.353 . S
C1092 H1134 0.930 . S
C1093 N1089 1.279 . S
C1093 C1091 1.358 . S
C1093 H1135 0.930 . S
C1094 C1095 1.348 . S
C1094 C1096 1.356 . S
C1094 O1119 1.325 . S
C1095 C1094 1.348 . S
C1095 C1097 1.353 . S
C1095 H1136 0.929 . S
C1096 C1094 1.356 . S
C1096 C1098 1.358 . S
C1096 H1137 0.930 . S
C1097 C1095 1.353 . S
C1097 N1099 1.314 . S
C1097 H1138 0.930 . S
C1098 C1096 1.358 . S
C1098 N1099 1.279 . S
C1098 H1139 0.930 . S
N1099 C1097 1.314 . S
N1099 C1098 1.279 . S
C1100 C1102 1.353 . S
C1100 N1103 1.314 . S
C1100 H1106 0.930 . S
C1101 N1103 1.279 . S
C1101 C1104 1.358 . S
C1101 H1107 0.930 . S
C1102 C1100 1.353 . S
C1102 C1105 1.348 . S
C1102 H1140 0.929 . S
N1103 Li1058 1.990 . S
N1103 C1100 1.314 . S
N1103 C1101 1.279 . S
C1104 C1101 1.358 . S
C1104 C1105 1.356 . S
C1104 H1141 0.930 . S
C1105 C1102 1.348 . S
C1105 C1104 1.356 . S
H1106 C1100 0.930 . S
H1107 C1101 0.930 . S
C1108 N1109 1.314 . S
C1108 C1110 1.353 . S
C1108 H1114 0.930 . S
N1109 Li1059 1.990 . S
N1109 C1108 1.314 . S
N1109 C1112 1.279 . S
C1110 C1108 1.353 . S
C1110 C1113 1.348 . S
C1110 H1142 0.929 . S
C1111 C1112 1.358 . S
C1111 C1113 1.356 . S
C1111 H1143 0.930 . S
C1112 N1109 1.279 . S
C1112 C1111 1.358 . S
C1112 H1115 0.930 . S
C1113 C1110 1.348 . S
C1113 C1111 1.356 . S
H1114 C1108 0.930 . S
H1115 C1112 0.930 . S
O1116 Li1056 1.956 . S
O1116 Li1057 1.970 . S
O1116 Li1058 1.961 . S
O1116 C1060 1.325 . S
O1117 Li1056 1.970 . S
O1117 Li1057 1.956 . S
O1117 Li1059 1.961 . S
O1117 C1066 1.325 . S
O1118 Li1056 1.961 . S
O1118 Li1058 1.956 . S
O1118 Li1059 1.970 . S
O1118 C1088 1.325 . S
O1119 Li1057 1.961 . S
O1119 Li1058 1.970 . S
O1119 Li1059 1.956 . S
O1119 C1094 1.325 . S
H1120 C1062 0.929 . S
H1121 C1063 0.930 . S
H1122 C1064 0.930 . S
H1123 C1065 0.930 . S
H1124 C1067 0.930 . S
H1125 C1069 0.929 . S
H1126 C1070 0.930 . S
H1127 C1071 0.930 . S
H1128 C1074 0.930 . S
H1129 C1077 0.929 . S
H1130 C1082 0.929 . S
H1131 C1083 0.930 . S
H1132 C1090 0.929 . S
H1133 C1091 0.930 . S
H1134 C1092 0.930 . S
H1135 C1093 0.930 . S
H1136 C1095 0.929 . S
H1137 C1096 0.930 . S
H1138 C1097 0.930 . S
H1139 C1098 0.930 . S
H1140 C1102 0.929 . S
H1141 C1104 0.930 . S
H1142 C1110 0.929 . S
H1143 C1111 0.930 . S
Li1144 N1161 1.990 . S
Li1144 O1204 1.956 . S
Li1144 O1205 1.970 . S
Li1144 O1206 1.961 . S
Li1145 N1169 1.990 . S
Li1145 O1204 1.970 . S
Li1145 O1205 1.956 . S
Li1145 O1207 1.961 . S
Li1146 N1191 1.990 . S
Li1146 O1204 1.961 . S
Li1146 O1206 1.956 . S
Li1146 O1207 1.970 . S
Li1147 N1197 1.990 . S
Li1147 O1205 1.961 . S
Li1147 O1206 1.970 . S
Li1147 O1207 1.956 . S
C1148 C1150 1.348 1_455 S
C1148 C1151 1.356 1_455 S
C1148 O1204 1.325 . S
N1149 C1152 1.314 . S
N1149 C1153 1.279 . S
C1150 C1148 1.348 1_655 S
C1150 C1152 1.353 . S
C1150 H1208 0.929 1_655 S
C1151 C1148 1.356 1_655 S
C1151 C1153 1.358 . S
C1151 H1209 0.930 . S
C1152 N1149 1.314 . S
C1152 C1150 1.353 . S
C1152 H1210 0.930 . S
C1153 N1149 1.279 . S
C1153 C1151 1.358 . S
C1153 H1211 0.930 . S
C1154 C1157 1.348 . S
C1154 C1158 1.356 . S
C1154 O1205 1.325 . S
C1155 N1156 1.279 . S
C1155 C1158 1.358 . S
C1155 H1212 0.930 . S
N1156 C1155 1.279 . S
N1156 C1159 1.314 . S
C1157 C1154 1.348 . S
C1157 C1159 1.353 . S
C1157 H1213 0.929 . S
C1158 C1154 1.356 . S
C1158 C1155 1.358 . S
C1158 H1214 0.930 . S
C1159 N1156 1.314 . S
C1159 C1157 1.353 . S
C1159 H1215 0.930 . S
C1160 N1161 1.314 . S
C1160 C1165 1.353 . S
C1160 H1166 0.930 . S
N1161 Li1144 1.990 . S
N1161 C1160 1.314 . S
N1161 C1163 1.279 . S
C1162 C1163 1.358 1_655 S
C1162 C1164 1.356 1_655 S
C1162 H1216 0.930 . S
C1163 N1161 1.279 . S
C1163 C1162 1.358 1_455 S
C1163 H1167 0.932 1_455 S
C1164 C1162 1.356 1_455 S
C1164 C1165 1.348 . S
C1165 C1160 1.353 . S
C1165 C1164 1.348 . S
C1165 H1217 0.929 . S
H1166 C1160 0.930 . S
H1167 C1163 0.932 1_655 S
C1168 N1169 1.314 . S
C1168 C1170 1.353 . S
C1168 H1174 0.930 . S
N1169 Li1145 1.990 . S
N1169 C1168 1.314 . S
N1169 C1172 1.279 . S
C1170 C1168 1.353 . S
C1170 C1173 1.348 . S
C1170 H1218 0.929 . S
C1171 C1172 1.358 . S
C1171 C1173 1.356 . S
C1171 H1219 0.930 . S
C1172 N1169 1.279 . S
C1172 C1171 1.358 . S
C1172 H1175 0.930 . S
C1173 C1170 1.348 . S
C1173 C1171 1.356 . S
H1174 C1168 0.930 . S
H1175 C1172 0.930 . S
C1176 C1178 1.348 . S
C1176 C1179 1.356 . S
C1176 O1206 1.325 . S
N1177 C1180 1.314 . S
N1177 C1181 1.279 . S
C1178 C1176 1.348 . S
C1178 C1180 1.353 . S
C1178 H1220 0.929 . S
C1179 C1176 1.356 . S
C1179 C1181 1.358 . S
C1179 H1221 0.930 . S
C1180 N1177 1.314 . S
C1180 C1178 1.353 . S
C1180 H1222 0.930 . S
C1181 N1177 1.279 . S
C1181 C1179 1.358 . S
C1181 H1223 0.930 . S
C1182 C1183 1.348 . S
C1182 C1184 1.356 . S
C1182 O1207 1.325 . S
C1183 C1182 1.348 . S
C1183 C1185 1.353 . S
C1183 H1224 0.929 . S
C1184 C1182 1.356 . S
C1184 C1186 1.358 . S
C1184 H1225 0.930 . S
C1185 C1183 1.353 . S
C1185 N1187 1.314 . S
C1185 H1226 0.930 . S
C1186 C1184 1.358 . S
C1186 N1187 1.279 . S
C1186 H1227 0.930 . S
N1187 C1185 1.314 . S
N1187 C1186 1.279 . S
C1188 C1190 1.353 . S
C1188 N1191 1.314 . S
C1188 H1194 0.930 . S
C1189 N1191 1.279 . S
C1189 C1192 1.358 . S
C1189 H1195 0.930 . S
C1190 C1188 1.353 . S
C1190 C1193 1.348 . S
C1190 H1228 0.929 1_455 S
N1191 Li1146 1.990 . S
N1191 C1188 1.314 . S
N1191 C1189 1.279 . S
C1192 C1189 1.358 . S
C1192 C1193 1.356 . S
C1192 H1229 0.930 . S
C1193 C1190 1.348 . S
C1193 C1192 1.356 . S
H1194 C1188 0.930 . S
H1195 C1189 0.930 . S
C1196 N1197 1.314 . S
C1196 C1198 1.353 . S
C1196 H1202 0.930 . S
N1197 Li1147 1.990 . S
N1197 C1196 1.314 . S
N1197 C1200 1.279 . S
C1198 C1196 1.353 . S
C1198 C1201 1.348 . S
C1198 H1230 0.929 . S
C1199 C1200 1.358 . S
C1199 C1201 1.356 . S
C1199 H1231 0.930 . S
C1200 N1197 1.279 . S
C1200 C1199 1.358 . S
C1200 H1203 0.930 . S
C1201 C1198 1.348 . S
C1201 C1199 1.356 . S
H1202 C1196 0.930 . S
H1203 C1200 0.930 . S
O1204 Li1144 1.956 . S
O1204 Li1145 1.970 . S
O1204 Li1146 1.961 . S
O1204 C1148 1.325 . S
O1205 Li1144 1.970 . S
O1205 Li1145 1.956 . S
O1205 Li1147 1.961 . S
O1205 C1154 1.325 . S
O1206 Li1144 1.961 . S
O1206 Li1146 1.956 . S
O1206 Li1147 1.970 . S
O1206 C1176 1.325 . S
O1207 Li1145 1.961 . S
O1207 Li1146 1.970 . S
O1207 Li1147 1.956 . S
O1207 C1182 1.325 . S
H1208 C1150 0.929 1_455 S
H1209 C1151 0.930 . S
H1210 C1152 0.930 . S
H1211 C1153 0.930 . S
H1212 C1155 0.930 . S
H1213 C1157 0.929 . S
H1214 C1158 0.930 . S
H1215 C1159 0.930 . S
H1216 C1162 0.930 . S
H1217 C1165 0.929 . S
H1218 C1170 0.929 . S
H1219 C1171 0.930 . S
H1220 C1178 0.929 . S
H1221 C1179 0.930 . S
H1222 C1180 0.930 . S
H1223 C1181 0.930 . S
H1224 C1183 0.929 . S
H1225 C1184 0.930 . S
H1226 C1185 0.930 . S
H1227 C1186 0.930 . S
H1228 C1190 0.929 1_655 S
H1229 C1192 0.930 . S
H1230 C1198 0.929 . S
H1231 C1199 0.930 . S
Li1232 N1249 1.990 . S
Li1232 O1292 1.956 . S
Li1232 O1293 1.970 . S
Li1232 O1294 1.961 . S
Li1233 N1257 1.990 . S
Li1233 O1292 1.970 . S
Li1233 O1293 1.956 . S
Li1233 O1295 1.961 . S
Li1234 N1279 1.990 . S
Li1234 O1292 1.961 . S
Li1234 O1294 1.956 . S
Li1234 O1295 1.970 . S
Li1235 N1285 1.990 . S
Li1235 O1293 1.961 . S
Li1235 O1294 1.970 . S
Li1235 O1295 1.956 . S
C1236 C1238 1.348 . S
C1236 C1239 1.356 . S
C1236 O1292 1.325 . S
N1237 C1240 1.314 . S
N1237 C1241 1.279 . S
C1238 C1236 1.348 . S
C1238 C1240 1.353 . S
C1238 H1296 0.929 . S
C1239 C1236 1.356 . S
C1239 C1241 1.358 . S
C1239 H1297 0.930 . S
C1240 N1237 1.314 . S
C1240 C1238 1.353 . S
C1240 H1298 0.930 . S
C1241 N1237 1.279 . S
C1241 C1239 1.358 . S
C1241 H1299 0.930 . S
C1242 C1245 1.348 . S
C1242 C1246 1.356 . S
C1242 O1293 1.325 . S
C1243 N1244 1.279 . S
C1243 C1246 1.358 . S
C1243 H1300 0.930 . S
N1244 C1243 1.279 . S
N1244 C1247 1.314 . S
C1245 C1242 1.348 . S
C1245 C1247 1.353 . S
C1245 H1301 0.929 . S
C1246 C1242 1.356 . S
C1246 C1243 1.358 . S
C1246 H1302 0.930 . S
C1247 N1244 1.314 . S
C1247 C1245 1.353 . S
C1247 H1303 0.930 . S
C1248 N1249 1.314 . S
C1248 C1253 1.353 . S
C1248 H1254 0.930 . S
N1249 Li1232 1.990 . S
N1249 C1248 1.314 . S
N1249 C1251 1.279 . S
C1250 C1251 1.358 . S
C1250 C1252 1.356 . S
C1250 H1304 0.930 . S
C1251 N1249 1.279 . S
C1251 C1250 1.358 . S
C1251 H1255 0.930 . S
C1252 C1250 1.356 . S
C1252 C1253 1.348 . S
C1253 C1248 1.353 . S
C1253 C1252 1.348 . S
C1253 H1305 0.929 . S
H1254 C1248 0.930 . S
H1255 C1251 0.930 . S
C1256 N1257 1.314 . S
C1256 C1258 1.353 . S
C1256 H1262 0.930 . S
N1257 Li1233 1.990 . S
N1257 C1256 1.314 . S
N1257 C1260 1.279 . S
C1258 C1256 1.353 . S
C1258 C1261 1.348 . S
C1258 H1306 0.929 1_655 S
C1259 C1260 1.358 . S
C1259 C1261 1.356 . S
C1259 H1307 0.930 . S
C1260 N1257 1.279 . S
C1260 C1259 1.358 . S
C1260 H1263 0.930 . S
C1261 C1258 1.348 . S
C1261 C1259 1.356 . S
H1262 C1256 0.930 . S
H1263 C1260 0.930 . S
C1264 C1266 1.348 . S
C1264 C1267 1.356 . S
C1264 O1294 1.325 . S
N1265 C1268 1.314 . S
N1265 C1269 1.279 . S
C1266 C1264 1.348 . S
C1266 C1268 1.353 . S
C1266 H1308 0.929 . S
C1267 C1264 1.356 . S
C1267 C1269 1.358 . S
C1267 H1309 0.930 . S
C1268 N1265 1.314 . S
C1268 C1266 1.353 . S
C1268 H1310 0.930 . S
C1269 N1265 1.279 . S
C1269 C1267 1.358 . S
C1269 H1311 0.930 . S
C1270 C1271 1.348 1_655 S
C1270 C1272 1.356 1_655 S
C1270 O1295 1.325 . S
C1271 C1270 1.348 1_455 S
C1271 C1273 1.353 . S
C1271 H1312 0.929 1_455 S
C1272 C1270 1.356 1_455 S
C1272 C1274 1.358 . S
C1272 H1313 0.930 . S
C1273 C1271 1.353 . S
C1273 N1275 1.314 . S
C1273 H1314 0.930 . S
C1274 C1272 1.358 . S
C1274 N1275 1.279 . S
C1274 H1315 0.930 . S
N1275 C1273 1.314 . S
N1275 C1274 1.279 . S
C1276 C1278 1.353 . S
C1276 N1279 1.314 . S
C1276 H1282 0.930 . S
C1277 N1279 1.279 . S
C1277 C1280 1.358 . S
C1277 H1283 0.930 . S
C1278 C1276 1.353 . S
C1278 C1281 1.348 . S
C1278 H1316 0.929 . S
N1279 Li1234 1.990 . S
N1279 C1276 1.314 . S
N1279 C1277 1.279 . S
C1280 C1277 1.358 . S
C1280 C1281 1.356 . S
C1280 H1317 0.930 . S
C1281 C1278 1.348 . S
C1281 C1280 1.356 . S
H1282 C1276 0.930 . S
H1283 C1277 0.930 . S
C1284 N1285 1.314 . S
C1284 C1286 1.353 . S
C1284 H1290 0.930 . S
N1285 Li1235 1.990 . S
N1285 C1284 1.314 . S
N1285 C1288 1.279 . S
C1286 C1284 1.353 . S
C1286 C1289 1.348 . S
C1286 H1318 0.929 . S
C1287 C1288 1.358 1_455 S
C1287 C1289 1.356 1_455 S
C1287 H1319 0.930 . S
C1288 N1285 1.279 . S
C1288 C1287 1.358 1_655 S
C1288 H1291 0.932 1_655 S
C1289 C1286 1.348 . S
C1289 C1287 1.356 1_655 S
H1290 C1284 0.930 . S
H1291 C1288 0.932 1_455 S
O1292 Li1232 1.956 . S
O1292 Li1233 1.970 . S
O1292 Li1234 1.961 . S
O1292 C1236 1.325 . S
O1293 Li1232 1.970 . S
O1293 Li1233 1.956 . S
O1293 Li1235 1.961 . S
O1293 C1242 1.325 . S
O1294 Li1232 1.961 . S
O1294 Li1234 1.956 . S
O1294 Li1235 1.970 . S
O1294 C1264 1.325 . S
O1295 Li1233 1.961 . S
O1295 Li1234 1.970 . S
O1295 Li1235 1.956 . S
O1295 C1270 1.325 . S
H1296 C1238 0.929 . S
H1297 C1239 0.930 . S
H1298 C1240 0.930 . S
H1299 C1241 0.930 . S
H1300 C1243 0.930 . S
H1301 C1245 0.929 . S
H1302 C1246 0.930 . S
H1303 C1247 0.930 . S
H1304 C1250 0.930 . S
H1305 C1253 0.929 . S
H1306 C1258 0.929 1_455 S
H1307 C1259 0.930 . S
H1308 C1266 0.929 . S
H1309 C1267 0.930 . S
H1310 C1268 0.930 . S
H1311 C1269 0.930 . S
H1312 C1271 0.929 1_655 S
H1313 C1272 0.930 . S
H1314 C1273 0.930 . S
H1315 C1274 0.930 . S
H1316 C1278 0.929 . S
H1317 C1280 0.930 . S
H1318 C1286 0.929 . S
H1319 C1287 0.930 . S
Li1320 N1337 1.990 . S
Li1320 O1380 1.956 . S
Li1320 O1381 1.970 . S
Li1320 O1382 1.961 . S
Li1321 N1345 1.990 . S
Li1321 O1380 1.970 . S
Li1321 O1381 1.956 . S
Li1321 O1383 1.961 . S
Li1322 N1367 1.990 . S
Li1322 O1380 1.961 . S
Li1322 O1382 1.956 . S
Li1322 O1383 1.970 . S
Li1323 N1373 1.990 . S
Li1323 O1381 1.961 . S
Li1323 O1382 1.970 . S
Li1323 O1383 1.956 . S
C1324 C1326 1.348 . S
C1324 C1327 1.356 . S
C1324 O1380 1.325 . S
N1325 C1328 1.314 . S
N1325 C1329 1.279 . S
C1326 C1324 1.348 . S
C1326 C1328 1.353 . S
C1326 H1384 0.929 . S
C1327 C1324 1.356 . S
C1327 C1329 1.358 . S
C1327 H1385 0.930 . S
C1328 N1325 1.314 . S
C1328 C1326 1.353 . S
C1328 H1386 0.930 . S
C1329 N1325 1.279 . S
C1329 C1327 1.358 . S
C1329 H1387 0.930 . S
C1330 C1333 1.348 . S
C1330 C1334 1.356 . S
C1330 O1381 1.325 . S
C1331 N1332 1.279 . S
C1331 C1334 1.358 . S
C1331 H1388 0.930 . S
N1332 C1331 1.279 . S
N1332 C1335 1.314 . S
C1333 C1330 1.348 . S
C1333 C1335 1.353 . S
C1333 H1389 0.929 . S
C1334 C1330 1.356 . S
C1334 C1331 1.358 . S
C1334 H1390 0.930 . S
C1335 N1332 1.314 . S
C1335 C1333 1.353 . S
C1335 H1391 0.930 . S
C1336 N1337 1.314 . S
C1336 C1341 1.353 . S
C1336 H1342 0.930 . S
N1337 Li1320 1.990 . S
N1337 C1336 1.314 . S
N1337 C1339 1.279 . S
C1338 C1339 1.358 . S
C1338 C1340 1.356 . S
C1338 H1392 0.930 . S
C1339 N1337 1.279 . S
C1339 C1338 1.358 . S
C1339 H1343 0.930 . S
C1340 C1338 1.356 . S
C1340 C1341 1.348 . S
C1341 C1336 1.353 . S
C1341 C1340 1.348 . S
C1341 H1393 0.929 . S
H1342 C1336 0.930 . S
H1343 C1339 0.930 . S
C1344 N1345 1.314 . S
C1344 C1346 1.353 . S
C1344 H1350 0.930 . S
N1345 Li1321 1.990 . S
N1345 C1344 1.314 . S
N1345 C1348 1.279 . S
C1346 C1344 1.353 . S
C1346 C1349 1.348 . S
C1346 H1394 0.929 . S
C1347 C1348 1.358 . S
C1347 C1349 1.356 . S
C1347 H1395 0.930 . S
C1348 N1345 1.279 . S
C1348 C1347 1.358 . S
C1348 H1351 0.930 . S
C1349 C1346 1.348 . S
C1349 C1347 1.356 . S
H1350 C1344 0.930 . S
H1351 C1348 0.930 . S
C1352 C1354 1.348 . S
C1352 C1355 1.356 . S
C1352 O1382 1.325 . S
N1353 C1356 1.314 . S
N1353 C1357 1.279 . S
C1354 C1352 1.348 . S
C1354 C1356 1.353 . S
C1354 H1396 0.929 . S
C1355 C1352 1.356 . S
C1355 C1357 1.358 . S
C1355 H1397 0.930 . S
C1356 N1353 1.314 . S
C1356 C1354 1.353 . S
C1356 H1398 0.930 . S
C1357 N1353 1.279 . S
C1357 C1355 1.358 . S
C1357 H1399 0.930 . S
C1358 C1359 1.348 . S
C1358 C1360 1.356 . S
C1358 O1383 1.325 . S
C1359 C1358 1.348 . S
C1359 C1361 1.353 . S
C1359 H1400 0.929 . S
C1360 C1358 1.356 . S
C1360 C1362 1.358 . S
C1360 H1401 0.930 . S
C1361 C1359 1.353 . S
C1361 N1363 1.314 . S
C1361 H1402 0.930 . S
C1362 C1360 1.358 . S
C1362 N1363 1.279 . S
C1362 H1403 0.930 . S
N1363 C1361 1.314 . S
N1363 C1362 1.279 . S
C1364 C1366 1.353 . S
C1364 N1367 1.314 . S
C1364 H1370 0.930 . S
C1365 N1367 1.279 . S
C1365 C1368 1.358 . S
C1365 H1371 0.930 . S
C1366 C1364 1.353 . S
C1366 C1369 1.348 . S
C1366 H1404 0.929 . S
N1367 Li1322 1.990 . S
N1367 C1364 1.314 . S
N1367 C1365 1.279 . S
C1368 C1365 1.358 . S
C1368 C1369 1.356 . S
C1368 H1405 0.930 . S
C1369 C1366 1.348 . S
C1369 C1368 1.356 . S
H1370 C1364 0.930 . S
H1371 C1365 0.930 . S
C1372 N1373 1.314 . S
C1372 C1374 1.353 . S
C1372 H1378 0.930 . S
N1373 Li1323 1.990 . S
N1373 C1372 1.314 . S
N1373 C1376 1.279 . S
C1374 C1372 1.353 . S
C1374 C1377 1.348 . S
C1374 H1406 0.929 . S
C1375 C1376 1.358 . S
C1375 C1377 1.356 . S
C1375 H1407 0.930 . S
C1376 N1373 1.279 . S
C1376 C1375 1.358 . S
C1376 H1379 0.930 . S
C1377 C1374 1.348 . S
C1377 C1375 1.356 . S
H1378 C1372 0.930 . S
H1379 C1376 0.930 . S
O1380 Li1320 1.956 . S
O1380 Li1321 1.970 . S
O1380 Li1322 1.961 . S
O1380 C1324 1.325 . S
O1381 Li1320 1.970 . S
O1381 Li1321 1.956 . S
O1381 Li1323 1.961 . S
O1381 C1330 1.325 . S
O1382 Li1320 1.961 . S
O1382 Li1322 1.956 . S
O1382 Li1323 1.970 . S
O1382 C1352 1.325 . S
O1383 Li1321 1.961 . S
O1383 Li1322 1.970 . S
O1383 Li1323 1.956 . S
O1383 C1358 1.325 . S
H1384 C1326 0.929 . S
H1385 C1327 0.930 . S
H1386 C1328 0.930 . S
H1387 C1329 0.930 . S
H1388 C1331 0.930 . S
H1389 C1333 0.929 . S
H1390 C1334 0.930 . S
H1391 C1335 0.930 . S
H1392 C1338 0.930 . S
H1393 C1341 0.929 . S
H1394 C1346 0.929 . S
H1395 C1347 0.930 . S
H1396 C1354 0.929 . S
H1397 C1355 0.930 . S
H1398 C1356 0.930 . S
H1399 C1357 0.930 . S
H1400 C1359 0.929 . S
H1401 C1360 0.930 . S
H1402 C1361 0.930 . S
H1403 C1362 0.930 . S
H1404 C1366 0.929 . S
H1405 C1368 0.930 . S
H1406 C1374 0.929 . S
H1407 C1375 0.930 . S
H1408 C1416 0.950 . S
H1409 C1421 0.974 . S
H1410 C1418 0.950 . S
H1411 C1420 0.950 . S
H1412 C1422 0.950 . S
H1413 C1424 0.950 . S
H1414 C1426 0.950 . S
H1415 C1427 0.974 . S
C1416 H1408 0.950 . S
C1416 C1417 1.386 . S
C1416 C1418 1.391 . S
C1417 C1416 1.386 . S
C1417 C1421 1.355 1_565 S
C1418 H1410 0.950 . S
C1418 C1416 1.391 . S
C1418 C1419 1.400 . S
C1419 C1418 1.400 . S
C1419 C1420 1.398 1_565 S
C1419 C1425 1.491 1_565 S
C1420 H1411 0.950 . S
C1420 C1419 1.398 1_545 S
C1420 C1421 1.405 . S
C1421 H1409 0.974 . S
C1421 C1417 1.355 1_545 S
C1421 C1420 1.405 . S
C1422 H1412 0.950 . S
C1422 C1423 1.386 . S
C1422 C1424 1.391 . S
C1423 C1422 1.386 . S
C1423 C1427 1.355 1_545 S
C1424 H1413 0.950 . S
C1424 C1422 1.391 . S
C1424 C1425 1.400 . S
C1425 C1419 1.491 1_545 S
C1425 C1424 1.400 . S
C1425 C1426 1.398 1_545 S
C1426 H1414 0.950 . S
C1426 C1425 1.398 1_565 S
C1426 C1427 1.405 . S
C1427 H1415 0.974 . S
C1427 C1423 1.355 1_565 S
C1427 C1426 1.405 . S
H1428 C1436 0.950 . S
H1429 C1441 0.943 1_545 S
H1430 C1438 0.950 . S
H1431 C1440 0.950 . S
H1432 C1442 0.950 . S
H1433 C1444 0.950 . S
H1434 C1446 0.950 . S
H1435 C1447 0.943 1_565 S
C1436 H1428 0.950 . S
C1436 C1437 1.386 . S
C1436 C1438 1.391 . S
C1437 C1436 1.386 . S
C1437 C1441 1.405 . S
C1438 H1430 0.950 . S
C1438 C1436 1.391 . S
C1438 C1439 1.400 . S
C1439 C1438 1.400 . S
C1439 C1440 1.398 1_565 S
C1439 C1445 1.491 1_565 S
C1440 H1431 0.950 . S
C1440 C1439 1.398 1_545 S
C1440 C1441 1.386 1_545 S
C1441 H1429 0.943 1_565 S
C1441 C1437 1.405 . S
C1441 C1440 1.386 1_565 S
C1442 H1432 0.950 . S
C1442 C1443 1.386 . S
C1442 C1444 1.391 . S
C1443 C1442 1.386 . S
C1443 C1447 1.405 . S
C1444 H1433 0.950 . S
C1444 C1442 1.391 . S
C1444 C1445 1.400 . S
C1445 C1439 1.491 1_545 S
C1445 C1444 1.400 . S
C1445 C1446 1.398 1_545 S
C1446 H1434 0.950 . S
C1446 C1445 1.398 1_565 S
C1446 C1447 1.386 1_565 S
C1447 H1435 0.943 1_545 S
C1447 C1443 1.405 . S
C1447 C1446 1.386 1_545 S
H1448 C1456 0.950 . S
H1449 C1461 0.950 1_545 S
H1450 C1458 0.950 . S
H1451 C1460 0.950 . S
H1452 C1462 0.950 . S
H1453 C1464 0.950 . S
H1454 C1466 0.950 . S
H1455 C1467 0.950 1_565 S
C1456 H1448 0.950 . S
C1456 C1457 1.386 . S
C1456 C1458 1.391 . S
C1457 C1456 1.386 . S
C1457 C1461 1.393 . S
C1458 H1450 0.950 . S
C1458 C1456 1.391 . S
C1458 C1459 1.400 . S
C1459 C1458 1.400 . S
C1459 C1460 1.398 1_565 S
C1459 C1465 1.491 1_565 S
C1460 H1451 0.950 . S
C1460 C1459 1.398 1_545 S
C1460 C1461 1.391 1_545 S
C1461 H1449 0.950 1_565 S
C1461 C1457 1.393 . S
C1461 C1460 1.391 1_565 S
C1462 H1452 0.950 . S
C1462 C1463 1.386 . S
C1462 C1464 1.391 . S
C1463 C1462 1.386 . S
C1463 C1467 1.393 . S
C1464 H1453 0.950 . S
C1464 C1462 1.391 . S
C1464 C1465 1.400 . S
C1465 C1459 1.491 1_545 S
C1465 C1464 1.400 . S
C1465 C1466 1.398 1_545 S
C1466 H1454 0.950 . S
C1466 C1465 1.398 1_565 S
C1466 C1467 1.391 1_565 S
C1467 H1455 0.950 1_545 S
C1467 C1463 1.393 . S
C1467 C1466 1.391 1_545 S
H1468 C1476 0.950 1_545 S
H1469 C1481 0.950 . S
H1470 C1478 0.950 . S
H1471 C1480 0.950 . S
H1472 C1482 0.950 1_565 S
H1473 C1484 0.950 . S
H1474 C1486 0.950 . S
H1475 C1487 0.950 . S
C1476 H1468 0.950 1_565 S
C1476 C1477 1.386 . S
C1476 C1478 1.391 1_565 S
C1477 C1476 1.386 . S
C1477 C1481 1.393 . S
C1478 H1470 0.950 . S
C1478 C1476 1.391 1_545 S
C1478 C1479 1.400 1_545 S
C1479 C1478 1.400 1_565 S
C1479 C1480 1.398 . S
C1479 C1485 1.491 1_565 S
C1480 H1471 0.950 . S
C1480 C1479 1.398 . S
C1480 C1481 1.391 . S
C1481 H1469 0.950 . S
C1481 C1477 1.393 . S
C1481 C1480 1.391 . S
C1482 H1472 0.950 1_545 S
C1482 C1483 1.386 . S
C1482 C1484 1.391 1_545 S
C1483 C1482 1.386 . S
C1483 C1487 1.393 . S
C1484 H1473 0.950 . S
C1484 C1482 1.391 1_565 S
C1484 C1485 1.400 1_565 S
C1485 C1479 1.491 1_545 S
C1485 C1484 1.400 1_545 S
C1485 C1486 1.398 . S
C1486 H1474 0.950 . S
C1486 C1485 1.398 . S
C1486 C1487 1.391 . S
C1487 H1475 0.950 . S
C1487 C1483 1.393 . S
C1487 C1486 1.391 . S
H1488 C1496 0.950 . S
H1489 C1501 0.950 . S
H1490 C1498 0.950 . S
H1491 C1500 0.950 . S
H1492 C1502 0.950 . S
H1493 C1504 0.950 . S
H1494 C1506 0.950 . S
H1495 C1507 0.950 . S
C1496 H1488 0.950 . S
C1496 C1497 1.386 . S
C1496 C1498 1.391 . S
C1497 C1496 1.386 . S
C1497 C1501 1.393 . S
C1498 H1490 0.950 . S
C1498 C1496 1.391 . S
C1498 C1499 1.400 . S
C1499 C1498 1.400 . S
C1499 C1500 1.398 . S
C1499 C1505 1.491 . S
C1500 H1491 0.950 . S
C1500 C1499 1.398 . S
C1500 C1501 1.391 . S
C1501 H1489 0.950 . S
C1501 C1497 1.393 . S
C1501 C1500 1.391 . S
C1502 H1492 0.950 . S
C1502 C1503 1.386 . S
C1502 C1504 1.391 . S
C1503 C1502 1.386 . S
C1503 C1507 1.393 . S
C1504 H1493 0.950 . S
C1504 C1502 1.391 . S
C1504 C1505 1.400 . S
C1505 C1499 1.491 . S
C1505 C1504 1.400 . S
C1505 C1506 1.398 . S
C1506 H1494 0.950 . S
C1506 C1505 1.398 . S
C1506 C1507 1.391 . S
C1507 H1495 0.950 . S
C1507 C1503 1.393 . S
C1507 C1506 1.391 . S
H1508 C1516 0.950 . S
H1509 C1521 0.950 . S
H1510 C1518 0.950 . S
H1511 C1520 0.950 . S
H1512 C1522 0.950 . S
H1513 C1524 0.950 . S
H1514 C1526 0.950 . S
H1515 C1527 0.950 . S
C1516 H1508 0.950 . S
C1516 C1517 1.386 . S
C1516 C1518 1.391 . S
C1517 C1516 1.386 . S
C1517 C1521 1.393 . S
C1518 H1510 0.950 . S
C1518 C1516 1.391 . S
C1518 C1519 1.400 . S
C1519 C1518 1.400 . S
C1519 C1520 1.398 . S
C1519 C1525 1.491 . S
C1520 H1511 0.950 . S
C1520 C1519 1.398 . S
C1520 C1521 1.391 . S
C1521 H1509 0.950 . S
C1521 C1517 1.393 . S
C1521 C1520 1.391 . S
C1522 H1512 0.950 . S
C1522 C1523 1.386 . S
C1522 C1524 1.391 . S
C1523 C1522 1.386 . S
C1523 C1527 1.393 . S
C1524 H1513 0.950 . S
C1524 C1522 1.391 . S
C1524 C1525 1.400 . S
C1525 C1519 1.491 . S
C1525 C1524 1.400 . S
C1525 C1526 1.398 . S
C1526 H1514 0.950 . S
C1526 C1525 1.398 . S
C1526 C1527 1.391 . S
C1527 H1515 0.950 . S
C1527 C1523 1.393 . S
C1527 C1526 1.391 . S
H1528 C1536 0.950 . S
H1529 C1541 0.950 . S
H1530 C1538 0.950 . S
H1531 C1540 0.950 . S
H1532 C1542 0.950 . S
H1533 C1544 0.950 . S
H1534 C1546 0.950 . S
H1535 C1547 0.950 . S
C1536 H1528 0.950 . S
C1536 C1537 1.386 . S
C1536 C1538 1.391 . S
C1537 C1536 1.386 . S
C1537 C1541 1.393 . S
C1538 H1530 0.950 . S
C1538 C1536 1.391 . S
C1538 C1539 1.400 . S
C1539 C1538 1.400 . S
C1539 C1540 1.398 . S
C1539 C1545 1.491 . S
C1540 H1531 0.950 . S
C1540 C1539 1.398 . S
C1540 C1541 1.391 . S
C1541 H1529 0.950 . S
C1541 C1537 1.393 . S
C1541 C1540 1.391 . S
C1542 H1532 0.950 . S
C1542 C1543 1.386 . S
C1542 C1544 1.391 . S
C1543 C1542 1.386 . S
C1543 C1547 1.393 . S
C1544 H1533 0.950 . S
C1544 C1542 1.391 . S
C1544 C1545 1.400 . S
C1545 C1539 1.491 . S
C1545 C1544 1.400 . S
C1545 C1546 1.398 . S
C1546 H1534 0.950 . S
C1546 C1545 1.398 . S
C1546 C1547 1.391 . S
C1547 H1535 0.950 . S
C1547 C1543 1.393 . S
C1547 C1546 1.391 . S
H1548 C1556 0.950 . S
H1549 C1561 0.950 . S
H1550 C1558 0.950 . S
H1551 C1560 0.950 . S
H1552 C1562 0.950 . S
H1553 C1564 0.950 . S
H1554 C1566 0.950 . S
H1555 C1567 0.950 . S
C1556 H1548 0.950 . S
C1556 C1557 1.386 . S
C1556 C1558 1.391 . S
C1557 C1556 1.386 . S
C1557 C1561 1.393 . S
C1558 H1550 0.950 . S
C1558 C1556 1.391 . S
C1558 C1559 1.400 . S
C1559 C1558 1.400 . S
C1559 C1560 1.398 . S
C1559 C1565 1.491 . S
C1560 H1551 0.950 . S
C1560 C1559 1.398 . S
C1560 C1561 1.391 . S
C1561 H1549 0.950 . S
C1561 C1557 1.393 . S
C1561 C1560 1.391 . S
C1562 H1552 0.950 . S
C1562 C1563 1.386 . S
C1562 C1564 1.391 . S
C1563 C1562 1.386 . S
C1563 C1567 1.393 . S
C1564 H1553 0.950 . S
C1564 C1562 1.391 . S
C1564 C1565 1.400 . S
C1565 C1559 1.491 . S
C1565 C1564 1.400 . S
C1565 C1566 1.398 . S
C1566 H1554 0.950 . S
C1566 C1565 1.398 . S
C1566 C1567 1.391 . S
C1567 H1555 0.950 . S
C1567 C1563 1.393 . S
C1567 C1566 1.391 . S
H1568 C1576 0.950 . S
H1569 C1581 0.950 . S
H1570 C1578 0.950 . S
H1571 C1580 0.950 . S
H1572 C1582 0.950 . S
H1573 C1584 0.950 . S
H1574 C1586 0.950 . S
H1575 C1587 0.950 . S
C1576 H1568 0.950 . S
C1576 C1577 1.386 1_565 S
C1576 C1578 1.391 . S
C1577 C1576 1.386 1_545 S
C1577 C1581 1.393 . S
C1578 H1570 0.950 . S
C1578 C1576 1.391 . S
C1578 C1579 1.400 1_565 S
C1579 C1578 1.400 1_545 S
C1579 C1580 1.398 . S
C1579 C1585 1.491 1_655 S
C1580 H1571 0.950 . S
C1580 C1579 1.398 . S
C1580 C1581 1.391 . S
C1581 H1569 0.950 . S
C1581 C1577 1.393 . S
C1581 C1580 1.391 . S
C1582 H1572 0.950 . S
C1582 C1583 1.386 . S
C1582 C1584 1.391 . S
C1583 C1582 1.386 . S
C1583 C1587 1.393 1_545 S
C1584 H1573 0.950 . S
C1584 C1582 1.391 . S
C1584 C1585 1.400 . S
C1585 C1579 1.491 1_455 S
C1585 C1584 1.400 . S
C1585 C1586 1.398 1_545 S
C1586 H1574 0.950 . S
C1586 C1585 1.398 1_565 S
C1586 C1587 1.391 . S
C1587 H1575 0.950 . S
C1587 C1583 1.393 1_565 S
C1587 C1586 1.391 . S
H1588 C1596 0.950 . S
H1589 C1601 0.950 . S
H1590 C1598 0.950 . S
H1591 C1600 0.950 . S
H1592 C1602 0.950 . S
H1593 C1604 0.950 . S
H1594 C1606 0.950 . S
H1595 C1607 0.950 . S
C1596 H1588 0.950 . S
C1596 C1597 1.386 . S
C1596 C1598 1.391 . S
C1597 C1596 1.386 . S
C1597 C1601 1.393 1_565 S
C1598 H1590 0.950 . S
C1598 C1596 1.391 . S
C1598 C1599 1.400 . S
C1599 C1598 1.400 . S
C1599 C1600 1.398 1_565 S
C1599 C1605 1.491 . S
C1600 H1591 0.950 . S
C1600 C1599 1.398 1_545 S
C1600 C1601 1.391 . S
C1601 H1589 0.950 . S
C1601 C1597 1.393 1_545 S
C1601 C1600 1.391 . S
C1602 H1592 0.950 . S
C1602 C1603 1.386 1_545 S
C1602 C1604 1.391 . S
C1603 C1602 1.386 1_565 S
C1603 C1607 1.393 . S
C1604 H1593 0.950 . S
C1604 C1602 1.391 . S
C1604 C1605 1.400 1_545 S
C1605 C1599 1.491 . S
C1605 C1604 1.400 1_565 S
C1605 C1606 1.398 . S
C1606 H1594 0.950 . S
C1606 C1605 1.398 . S
C1606 C1607 1.391 . S
C1607 H1595 0.950 . S
C1607 C1603 1.393 . S
C1607 C1606 1.391 . S
H1608 C1616 0.950 . S
H1609 C1621 0.950 . S
H1610 C1618 0.950 . S
H1611 C1620 0.950 . S
H1612 C1622 0.950 . S
H1613 C1624 0.950 . S
H1614 C1626 0.950 . S
H1615 C1627 0.950 . S
C1616 H1608 0.950 . S
C1616 C1617 1.386 1_655 S
C1616 C1618 1.391 . S
C1617 C1616 1.386 1_455 S
C1617 C1621 1.393 1_565 S
C1618 H1610 0.950 . S
C1618 C1616 1.391 . S
C1618 C1619 1.400 1_655 S
C1619 C1618 1.400 1_455 S
C1619 C1620 1.398 1_565 S
C1619 C1625 1.491 1_455 S
C1620 H1611 0.950 . S
C1620 C1619 1.398 1_545 S
C1620 C1621 1.391 . S
C1621 H1609 0.950 . S
C1621 C1617 1.393 1_545 S
C1621 C1620 1.391 . S
C1622 H1612 0.950 . S
C1622 C1623 1.386 1_445 S
C1622 C1624 1.391 . S
C1623 C1622 1.386 1_665 S
C1623 C1627 1.393 . S
C1624 H1613 0.950 . S
C1624 C1622 1.391 . S
C1624 C1625 1.400 1_445 S
C1625 C1619 1.491 1_655 S
C1625 C1624 1.400 1_665 S
C1625 C1626 1.398 . S
C1626 H1614 0.950 . S
C1626 C1625 1.398 . S
C1626 C1627 1.391 . S
C1627 H1615 0.950 . S
C1627 C1623 1.393 . S
C1627 C1626 1.391 . S
H1628 C1636 0.950 . S
H1629 C1641 0.950 1_565 S
H1630 C1638 0.950 . S
H1631 C1640 0.950 1_565 S
H1632 C1642 0.950 1_565 S
H1633 C1644 0.950 1_565 S
H1634 C1646 0.950 . S
H1635 C1647 0.950 . S
C1636 H1628 0.950 . S
C1636 C1637 1.386 . S
C1636 C1638 1.391 . S
C1637 C1636 1.386 . S
C1637 C1641 1.393 . S
C1638 H1630 0.950 . S
C1638 C1636 1.391 . S
C1638 C1639 1.400 . S
C1639 C1638 1.400 . S
C1639 C1640 1.398 . S
C1639 C1645 1.491 . S
C1640 H1631 0.950 1_545 S
C1640 C1639 1.398 . S
C1640 C1641 1.391 . S
C1641 H1629 0.950 1_545 S
C1641 C1637 1.393 . S
C1641 C1640 1.391 . S
C1642 H1632 0.950 1_545 S
C1642 C1643 1.386 . S
C1642 C1644 1.391 . S
C1643 C1642 1.386 . S
C1643 C1647 1.393 . S
C1644 H1633 0.950 1_545 S
C1644 C1642 1.391 . S
C1644 C1645 1.400 . S
C1645 C1639 1.491 . S
C1645 C1644 1.400 . S
C1645 C1646 1.398 . S
C1646 H1634 0.950 . S
C1646 C1645 1.398 . S
C1646 C1647 1.391 . S
C1647 H1635 0.950 . S
C1647 C1643 1.393 . S
C1647 C1646 1.391 . S
H1648 C1656 0.950 . S
H1649 C1661 0.950 . S
H1650 C1658 0.950 . S
H1651 C1660 0.950 . S
H1652 C1662 0.950 . S
H1653 C1664 0.950 . S
H1654 C1666 0.950 . S
H1655 C1667 0.950 . S
C1656 H1648 0.950 . S
C1656 C1657 1.386 . S
C1656 C1658 1.391 . S
C1657 C1656 1.386 . S
C1657 C1661 1.393 . S
C1658 H1650 0.950 . S
C1658 C1656 1.391 . S
C1658 C1659 1.400 . S
C1659 C1658 1.400 . S
C1659 C1660 1.398 . S
C1659 C1665 1.491 . S
C1660 H1651 0.950 . S
C1660 C1659 1.398 . S
C1660 C1661 1.391 . S
C1661 H1649 0.950 . S
C1661 C1657 1.393 . S
C1661 C1660 1.391 . S
C1662 H1652 0.950 . S
C1662 C1663 1.386 . S
C1662 C1664 1.391 . S
C1663 C1662 1.386 . S
C1663 C1667 1.393 . S
C1664 H1653 0.950 . S
C1664 C1662 1.391 . S
C1664 C1665 1.400 . S
C1665 C1659 1.491 . S
C1665 C1664 1.400 . S
C1665 C1666 1.398 . S
C1666 H1654 0.950 . S
C1666 C1665 1.398 . S
C1666 C1667 1.391 . S
C1667 H1655 0.950 . S
C1667 C1663 1.393 . S
C1667 C1666 1.391 . S
H1668 C1676 0.950 . S
H1669 C1681 0.950 . S
H1670 C1678 0.950 . S
H1671 C1680 0.950 . S
H1672 C1682 0.950 . S
H1673 C1684 0.950 . S
H1674 C1686 0.950 . S
H1675 C1687 0.950 . S
C1676 H1668 0.950 . S
C1676 C1677 1.386 . S
C1676 C1678 1.391 . S
C1677 C1676 1.386 . S
C1677 C1681 1.393 1_455 S
C1678 H1670 0.950 . S
C1678 C1676 1.391 . S
C1678 C1679 1.400 . S
C1679 C1678 1.400 . S
C1679 C1680 1.398 1_455 S
C1679 C1685 1.491 1_455 S
C1680 H1671 0.950 . S
C1680 C1679 1.398 1_655 S
C1680 C1681 1.391 . S
C1681 H1669 0.950 . S
C1681 C1677 1.393 1_655 S
C1681 C1680 1.391 . S
C1682 H1672 0.950 . S
C1682 C1683 1.386 . S
C1682 C1684 1.391 . S
C1683 C1682 1.386 . S
C1683 C1687 1.393 1_655 S
C1684 H1673 0.950 . S
C1684 C1682 1.391 . S
C1684 C1685 1.400 . S
C1685 C1679 1.491 1_655 S
C1685 C1684 1.400 . S
C1685 C1686 1.398 1_655 S
C1686 H1674 0.950 . S
C1686 C1685 1.398 1_455 S
C1686 C1687 1.391 . S
C1687 H1675 0.950 . S
C1687 C1683 1.393 1_455 S
C1687 C1686 1.391 . S
H1688 C1696 0.950 . S
H1689 C1701 0.950 . S
H1690 C1698 0.950 . S
H1691 C1700 0.950 . S
H1692 C1702 0.950 . S
H1693 C1704 0.950 . S
H1694 C1706 0.950 . S
H1695 C1707 0.950 . S
C1696 H1688 0.950 . S
C1696 C1697 1.386 . S
C1696 C1698 1.391 . S
C1697 C1696 1.386 . S
C1697 C1701 1.393 . S
C1698 H1690 0.950 . S
C1698 C1696 1.391 . S
C1698 C1699 1.400 . S
C1699 C1698 1.400 . S
C1699 C1700 1.398 . S
C1699 C1705 1.491 . S
C1700 H1691 0.950 . S
C1700 C1699 1.398 . S
C1700 C1701 1.391 . S
C1701 H1689 0.950 . S
C1701 C1697 1.393 . S
C1701 C1700 1.391 . S
C1702 H1692 0.950 . S
C1702 C1703 1.386 . S
C1702 C1704 1.391 . S
C1703 C1702 1.386 . S
C1703 C1707 1.393 . S
C1704 H1693 0.950 . S
C1704 C1702 1.391 . S
C1704 C1705 1.400 . S
C1705 C1699 1.491 . S
C1705 C1704 1.400 . S
C1705 C1706 1.398 . S
C1706 H1694 0.950 . S
C1706 C1705 1.398 . S
C1706 C1707 1.391 . S
C1707 H1695 0.950 . S
C1707 C1703 1.393 . S
C1707 C1706 1.391 . S
H1708 C1716 0.950 . S
H1709 C1721 0.950 . S
H1710 C1718 0.950 . S
H1711 C1720 0.950 . S
H1712 C1722 0.950 . S
H1713 C1724 0.950 . S
H1714 C1726 0.950 . S
H1715 C1727 0.950 . S
C1716 H1708 0.950 . S
C1716 C1717 1.386 1_655 S
C1716 C1718 1.391 . S
C1717 C1716 1.386 1_455 S
C1717 C1721 1.393 . S
C1718 H1710 0.950 . S
C1718 C1716 1.391 . S
C1718 C1719 1.400 1_655 S
C1719 C1718 1.400 1_455 S
C1719 C1720 1.398 . S
C1719 C1725 1.491 1_455 S
C1720 H1711 0.950 . S
C1720 C1719 1.398 . S
C1720 C1721 1.391 . S
C1721 H1709 0.950 . S
C1721 C1717 1.393 . S
C1721 C1720 1.391 . S
C1722 H1712 0.950 . S
C1722 C1723 1.386 1_455 S
C1722 C1724 1.391 . S
C1723 C1722 1.386 1_655 S
C1723 C1727 1.393 . S
C1724 H1713 0.950 . S
C1724 C1722 1.391 . S
C1724 C1725 1.400 1_455 S
C1725 C1719 1.491 1_655 S
C1725 C1724 1.400 1_655 S
C1725 C1726 1.398 . S
C1726 H1714 0.950 . S
C1726 C1725 1.398 . S
C1726 C1727 1.391 . S
C1727 H1715 0.950 . S
C1727 C1723 1.393 . S
C1727 C1726 1.391 . S
H1728 C1736 0.950 . S
H1729 C1741 0.929 1_655 S
H1730 C1738 0.950 . S
H1731 C1740 0.950 . S
H1732 C1742 0.950 . S
H1733 C1744 0.950 . S
H1734 C1746 0.950 . S
H1735 C1747 0.929 1_455 S
C1736 H1728 0.950 . S
C1736 C1737 1.386 . S
C1736 C1738 1.391 . S
C1737 C1736 1.386 . S
C1737 C1741 1.393 . S
C1738 H1730 0.950 . S
C1738 C1736 1.391 . S
C1738 C1739 1.400 . S
C1739 C1738 1.400 . S
C1739 C1740 1.398 1_455 S
C1739 C1745 1.491 1_455 S
C1740 H1731 0.950 . S
C1740 C1739 1.398 1_655 S
C1740 C1741 1.391 1_655 S
C1741 H1729 0.929 1_455 S
C1741 C1737 1.393 . S
C1741 C1740 1.391 1_455 S
C1742 H1732 0.950 . S
C1742 C1743 1.386 . S
C1742 C1744 1.391 . S
C1743 C1742 1.386 . S
C1743 C1747 1.393 . S
C1744 H1733 0.950 . S
C1744 C1742 1.391 . S
C1744 C1745 1.400 . S
C1745 C1739 1.491 1_655 S
C1745 C1744 1.400 . S
C1745 C1746 1.398 1_655 S
C1746 H1734 0.950 . S
C1746 C1745 1.398 1_455 S
C1746 C1747 1.391 1_455 S
C1747 H1735 0.929 1_655 S
C1747 C1743 1.393 . S
C1747 C1746 1.391 1_655 S
H1748 C1756 0.950 . S
H1749 C1761 0.950 . S
H1750 C1758 0.950 . S
H1751 C1760 0.950 . S
H1752 C1762 0.950 . S
H1753 C1764 0.950 . S
H1754 C1766 0.950 . S
H1755 C1767 0.950 . S
C1756 H1748 0.950 . S
C1756 C1757 1.386 . S
C1756 C1758 1.391 . S
C1757 C1756 1.386 . S
C1757 C1761 1.393 . S
C1758 H1750 0.950 . S
C1758 C1756 1.391 . S
C1758 C1759 1.400 . S
C1759 C1758 1.400 . S
C1759 C1760 1.398 . S
C1759 C1765 1.491 . S
C1760 H1751 0.950 . S
C1760 C1759 1.398 . S
C1760 C1761 1.391 . S
C1761 H1749 0.950 . S
C1761 C1757 1.393 . S
C1761 C1760 1.391 . S
C1762 H1752 0.950 . S
C1762 C1763 1.386 . S
C1762 C1764 1.391 . S
C1763 C1762 1.386 . S
C1763 C1767 1.393 . S
C1764 H1753 0.950 . S
C1764 C1762 1.391 . S
C1764 C1765 1.400 . S
C1765 C1759 1.491 . S
C1765 C1764 1.400 . S
C1765 C1766 1.398 . S
C1766 H1754 0.950 . S
C1766 C1765 1.398 . S
C1766 C1767 1.391 . S
C1767 H1755 0.950 . S
C1767 C1763 1.393 . S
C1767 C1766 1.391 . S
H1768 C1776 0.950 . S
H1769 C1781 0.950 . S
H1770 C1778 0.950 . S
H1771 C1780 0.950 . S
H1772 C1782 0.950 . S
H1773 C1784 0.950 . S
H1774 C1786 0.950 . S
H1775 C1787 0.950 . S
C1776 H1768 0.950 . S
C1776 C1777 1.386 . S
C1776 C1778 1.391 . S
C1777 C1776 1.386 . S
C1777 C1781 1.393 . S
C1778 H1770 0.950 . S
C1778 C1776 1.391 . S
C1778 C1779 1.400 . S
C1779 C1778 1.400 . S
C1779 C1780 1.398 . S
C1779 C1785 1.491 . S
C1780 H1771 0.950 . S
C1780 C1779 1.398 . S
C1780 C1781 1.391 . S
C1781 H1769 0.950 . S
C1781 C1777 1.393 . S
C1781 C1780 1.391 . S
C1782 H1772 0.950 . S
C1782 C1783 1.386 . S
C1782 C1784 1.391 . S
C1783 C1782 1.386 . S
C1783 C1787 1.393 . S
C1784 H1773 0.950 . S
C1784 C1782 1.391 . S
C1784 C1785 1.400 . S
C1785 C1779 1.491 . S
C1785 C1784 1.400 . S
C1785 C1786 1.398 . S
C1786 H1774 0.950 . S
C1786 C1785 1.398 . S
C1786 C1787 1.391 . S
C1787 H1775 0.950 . S
C1787 C1783 1.393 . S
C1787 C1786 1.391 . S
H1788 C1796 0.955 . S
H1789 C1801 0.950 . S
H1790 C1798 0.950 . S
H1791 C1800 0.950 . S
H1792 C1802 0.955 . S
H1793 C1804 0.950 . S
H1794 C1806 0.950 . S
H1795 C1807 0.950 . S
C1796 H1788 0.955 . S
C1796 C1797 1.386 . S
C1796 C1798 1.391 1_455 S
C1797 C1796 1.386 . S
C1797 C1801 1.393 . S
C1798 H1790 0.950 . S
C1798 C1796 1.391 1_655 S
C1798 C1799 1.400 1_655 S
C1799 C1798 1.400 1_455 S
C1799 C1800 1.398 . S
C1799 C1805 1.491 1_455 S
C1800 H1791 0.950 . S
C1800 C1799 1.398 . S
C1800 C1801 1.391 . S
C1801 H1789 0.950 . S
C1801 C1797 1.393 . S
C1801 C1800 1.391 . S
C1802 H1792 0.955 . S
C1802 C1803 1.386 . S
C1802 C1804 1.391 1_655 S
C1803 C1802 1.386 . S
C1803 C1807 1.393 . S
C1804 H1793 0.950 . S
C1804 C1802 1.391 1_455 S
C1804 C1805 1.400 1_455 S
C1805 C1799 1.491 1_655 S
C1805 C1804 1.400 1_655 S
C1805 C1806 1.398 . S
C1806 H1794 0.950 . S
C1806 C1805 1.398 . S
C1806 C1807 1.391 . S
C1807 H1795 0.950 . S
C1807 C1803 1.393 . S
C1807 C1806 1.391 . S
H1808 C1816 0.950 . S
H1809 C1821 0.950 . S
H1810 C1818 0.950 . S
H1811 C1820 0.950 . S
H1812 C1822 0.950 . S
H1813 C1824 0.950 . S
H1814 C1826 0.950 . S
H1815 C1827 0.950 . S
C1816 H1808 0.950 . S
C1816 C1817 1.386 . S
C1816 C1818 1.391 . S
C1817 C1816 1.386 . S
C1817 C1821 1.393 . S
C1818 H1810 0.950 . S
C1818 C1816 1.391 . S
C1818 C1819 1.400 . S
C1819 C1818 1.400 . S
C1819 C1820 1.398 . S
C1819 C1825 1.491 1_455 S
C1820 H1811 0.950 . S
C1820 C1819 1.398 . S
C1820 C1821 1.391 . S
C1821 H1809 0.950 . S
C1821 C1817 1.393 . S
C1821 C1820 1.391 . S
C1822 H1812 0.950 . S
C1822 C1823 1.386 . S
C1822 C1824 1.391 . S
C1823 C1822 1.386 . S
C1823 C1827 1.393 . S
C1824 H1813 0.950 . S
C1824 C1822 1.391 . S
C1824 C1825 1.400 . S
C1825 C1819 1.491 1_655 S
C1825 C1824 1.400 . S
C1825 C1826 1.398 . S
C1826 H1814 0.950 . S
C1826 C1825 1.398 . S
C1826 C1827 1.391 . S
C1827 H1815 0.950 . S
C1827 C1823 1.393 . S
C1827 C1826 1.391 . S
H1828 C1836 0.950 . S
H1829 C1841 0.950 . S
H1830 C1838 0.950 . S
H1831 C1840 0.950 . S
H1832 C1842 0.950 . S
H1833 C1844 0.950 . S
H1834 C1846 0.950 . S
H1835 C1847 0.950 . S
C1836 H1828 0.950 . S
C1836 C1837 1.386 . S
C1836 C1838 1.391 . S
C1837 C1836 1.386 . S
C1837 C1841 1.393 . S
C1838 H1830 0.950 . S
C1838 C1836 1.391 . S
C1838 C1839 1.400 . S
C1839 C1838 1.400 . S
C1839 C1840 1.398 . S
C1839 C1845 1.491 . S
C1840 H1831 0.950 . S
C1840 C1839 1.398 . S
C1840 C1841 1.391 . S
C1841 H1829 0.950 . S
C1841 C1837 1.393 . S
C1841 C1840 1.391 . S
C1842 H1832 0.950 . S
C1842 C1843 1.386 . S
C1842 C1844 1.391 . S
C1843 C1842 1.386 . S
C1843 C1847 1.393 . S
C1844 H1833 0.950 . S
C1844 C1842 1.391 . S
C1844 C1845 1.400 . S
C1845 C1839 1.491 . S
C1845 C1844 1.400 . S
C1845 C1846 1.398 . S
C1846 H1834 0.950 . S
C1846 C1845 1.398 . S
C1846 C1847 1.391 . S
C1847 H1835 0.950 . S
C1847 C1843 1.393 . S
C1847 C1846 1.391 . S
H1848 C1856 0.950 . S
H1849 C1861 0.950 . S
H1850 C1858 0.950 . S
H1851 C1860 0.950 . S
H1852 C1862 0.950 . S
H1853 C1864 0.950 . S
H1854 C1866 0.950 . S
H1855 C1867 0.950 . S
C1856 H1848 0.950 . S
C1856 C1857 1.386 . S
C1856 C1858 1.391 . S
C1857 C1856 1.386 . S
C1857 C1861 1.393 . S
C1858 H1850 0.950 . S
C1858 C1856 1.391 . S
C1858 C1859 1.400 . S
C1859 C1858 1.400 . S
C1859 C1860 1.398 . S
C1859 C1865 1.491 . S
C1860 H1851 0.950 . S
C1860 C1859 1.398 . S
C1860 C1861 1.391 . S
C1861 H1849 0.950 . S
C1861 C1857 1.393 . S
C1861 C1860 1.391 . S
C1862 H1852 0.950 . S
C1862 C1863 1.386 . S
C1862 C1864 1.391 . S
C1863 C1862 1.386 . S
C1863 C1867 1.393 . S
C1864 H1853 0.950 . S
C1864 C1862 1.391 . S
C1864 C1865 1.400 . S
C1865 C1859 1.491 . S
C1865 C1864 1.400 . S
C1865 C1866 1.398 . S
C1866 H1854 0.950 . S
C1866 C1865 1.398 . S
C1866 C1867 1.391 . S
C1867 H1855 0.950 . S
C1867 C1863 1.393 . S
C1867 C1866 1.391 . S
H1868 C1876 0.950 . S
H1869 C1881 0.950 . S
H1870 C1878 0.950 . S
H1871 C1880 0.950 . S
H1872 C1882 0.950 . S
H1873 C1884 0.950 . S
H1874 C1886 0.950 . S
H1875 C1887 0.950 . S
C1876 H1868 0.950 . S
C1876 C1877 1.386 . S
C1876 C1878 1.391 1_455 S
C1877 C1876 1.386 . S
C1877 C1881 1.393 . S
C1878 H1870 0.950 . S
C1878 C1876 1.391 1_655 S
C1878 C1879 1.400 1_655 S
C1879 C1878 1.400 1_455 S
C1879 C1880 1.398 . S
C1879 C1885 1.491 1_455 S
C1880 H1871 0.950 . S
C1880 C1879 1.398 . S
C1880 C1881 1.391 . S
C1881 H1869 0.950 . S
C1881 C1877 1.393 . S
C1881 C1880 1.391 . S
C1882 H1872 0.950 . S
C1882 C1883 1.386 . S
C1882 C1884 1.391 1_655 S
C1883 C1882 1.386 . S
C1883 C1887 1.393 . S
C1884 H1873 0.950 . S
C1884 C1882 1.391 1_455 S
C1884 C1885 1.400 1_455 S
C1885 C1879 1.491 1_655 S
C1885 C1884 1.400 1_655 S
C1885 C1886 1.398 . S
C1886 H1874 0.950 . S
C1886 C1885 1.398 . S
C1886 C1887 1.391 . S
C1887 H1875 0.950 . S
C1887 C1883 1.393 . S
C1887 C1886 1.391 . S
H1888 C1896 0.950 . S
H1889 C1901 0.950 . S
H1890 C1898 0.949 . S
H1891 C1900 0.950 . S
H1892 C1902 0.950 . S
H1893 C1904 0.951 . S
H1894 C1906 0.950 . S
H1895 C1907 0.950 . S
C1896 H1888 0.950 . S
C1896 C1897 1.386 1_455 S
C1896 C1898 1.391 1_545 S
C1897 C1896 1.386 1_655 S
C1897 C1901 1.393 . S
C1898 H1890 0.949 . S
C1898 C1896 1.391 1_565 S
C1898 C1899 1.366 1_465 S
C1899 C1898 1.366 1_645 S
C1899 C1900 1.435 . S
C1899 C1905 1.489 1_646 S
C1900 H1891 0.950 . S
C1900 C1899 1.435 . S
C1900 C1901 1.391 . S
C1901 H1889 0.950 . S
C1901 C1897 1.393 . S
C1901 C1900 1.391 . S
C1902 H1892 0.950 . S
C1902 C1903 1.386 1_655 S
C1902 C1904 1.391 1_565 S
C1903 C1902 1.386 1_455 S
C1903 C1907 1.393 . S
C1904 H1893 0.951 . S
C1904 C1902 1.391 1_545 S
C1904 C1905 1.382 1_645 S
C1905 C1899 1.489 1_464 S
C1905 C1904 1.382 1_465 S
C1905 C1906 1.417 . S
C1906 H1894 0.950 . S
C1906 C1905 1.417 . S
C1906 C1907 1.391 . S
C1907 H1895 0.950 . S
C1907 C1903 1.393 . S
C1907 C1906 1.391 . S
H1908 C1916 0.950 . S
H1909 C1921 0.950 . S
H1910 C1918 0.950 . S
H1911 C1920 0.950 . S
H1912 C1922 0.950 . S
H1913 C1924 0.950 . S
H1914 C1926 0.950 . S
H1915 C1927 0.950 . S
C1916 H1908 0.950 . S
C1916 C1917 1.386 . S
C1916 C1918 1.391 . S
C1917 C1916 1.386 . S
C1917 C1921 1.393 1_565 S
C1918 H1910 0.950 . S
C1918 C1916 1.391 . S
C1918 C1919 1.400 . S
C1919 C1918 1.400 . S
C1919 C1920 1.398 1_565 S
C1919 C1925 1.491 1_566 S
C1920 H1911 0.950 . S
C1920 C1919 1.398 1_545 S
C1920 C1921 1.391 . S
C1921 H1909 0.950 . S
C1921 C1917 1.393 1_545 S
C1921 C1920 1.391 . S
C1922 H1912 0.950 . S
C1922 C1923 1.386 . S
C1922 C1924 1.391 . S
C1923 C1922 1.386 . S
C1923 C1927 1.393 1_545 S
C1924 H1913 0.950 . S
C1924 C1922 1.391 . S
C1924 C1925 1.400 . S
C1925 C1919 1.491 1_544 S
C1925 C1924 1.400 . S
C1925 C1926 1.398 1_545 S
C1926 H1914 0.950 . S
C1926 C1925 1.398 1_565 S
C1926 C1927 1.391 . S
C1927 H1915 0.950 . S
C1927 C1923 1.393 1_565 S
C1927 C1926 1.391 . S
H1928 C1936 0.950 . S
H1929 C1941 0.950 . S
H1930 C1938 0.950 . S
H1931 C1940 0.950 . S
H1932 C1942 0.950 . S
H1933 C1944 0.950 . S
H1934 C1946 0.950 . S
H1935 C1947 0.950 . S
C1936 H1928 0.950 . S
C1936 C1937 1.386 1_545 S
C1936 C1938 1.391 . S
C1937 C1936 1.386 1_565 S
C1937 C1941 1.393 . S
C1938 H1930 0.950 . S
C1938 C1936 1.391 . S
C1938 C1939 1.380 1_545 S
C1939 C1938 1.380 1_565 S
C1939 C1940 1.423 . S
C1939 C1945 1.488 1_565 S
C1940 H1931 0.950 . S
C1940 C1939 1.423 . S
C1940 C1941 1.391 . S
C1941 H1929 0.950 . S
C1941 C1937 1.393 . S
C1941 C1940 1.391 . S
C1942 H1932 0.950 . S
C1942 C1943 1.386 1_565 S
C1942 C1944 1.391 . S
C1943 C1942 1.386 1_545 S
C1943 C1947 1.393 . S
C1944 H1933 0.950 . S
C1944 C1942 1.391 . S
C1944 C1945 1.383 1_565 S
C1945 C1939 1.488 1_545 S
C1945 C1944 1.383 1_545 S
C1945 C1946 1.419 . S
C1946 H1934 0.950 . S
C1946 C1945 1.419 . S
C1946 C1947 1.391 . S
C1947 H1935 0.950 . S
C1947 C1943 1.393 . S
C1947 C1946 1.391 . S
H1948 C1956 0.950 . S
H1949 C1961 0.950 . S
H1950 C1958 0.950 . S
H1951 C1960 0.950 . S
H1952 C1962 0.950 . S
H1953 C1964 0.950 . S
H1954 C1966 0.950 . S
H1955 C1967 0.950 . S
C1956 H1948 0.950 . S
C1956 C1957 1.386 . S
C1956 C1958 1.391 . S
C1957 C1956 1.386 . S
C1957 C1961 1.393 1_445 S
C1958 H1950 0.950 . S
C1958 C1956 1.391 . S
C1958 C1959 1.425 . S
C1959 C1958 1.425 . S
C1959 C1960 1.377 1_445 S
C1959 C1965 1.486 1_445 S
C1960 H1951 0.950 . S
C1960 C1959 1.377 1_665 S
C1960 C1961 1.391 . S
C1961 H1949 0.950 . S
C1961 C1957 1.393 1_665 S
C1961 C1960 1.391 . S
C1962 H1952 0.950 . S
C1962 C1963 1.386 . S
C1962 C1964 1.391 . S
C1963 C1962 1.386 . S
C1963 C1967 1.393 1_665 S
C1964 H1953 0.950 . S
C1964 C1962 1.391 . S
C1964 C1965 1.446 . S
C1965 C1959 1.486 1_665 S
C1965 C1964 1.446 . S
C1965 C1966 1.358 1_665 S
C1966 H1954 0.950 . S
C1966 C1965 1.358 1_445 S
C1966 C1967 1.391 . S
C1967 H1955 0.950 . S
C1967 C1963 1.393 1_445 S
C1967 C1966 1.391 . S
H1968 C1976 0.950 . S
H1969 C1981 0.950 . S
H1970 C1978 0.950 . S
H1971 C1980 0.950 . S
H1972 C1982 0.950 . S
H1973 C1984 0.950 . S
H1974 C1986 0.950 . S
H1975 C1987 0.950 . S
C1976 H1968 0.950 . S
C1976 C1977 1.386 . S
C1976 C1978 1.391 . S
C1977 C1976 1.386 . S
C1977 C1981 1.393 . S
C1978 H1970 0.950 . S
C1978 C1976 1.391 . S
C1978 C1979 1.400 . S
C1979 C1978 1.400 . S
C1979 C1980 1.398 . S
C1979 C1985 1.491 1_554 S
C1980 H1971 0.950 . S
C1980 C1979 1.398 . S
C1980 C1981 1.391 . S
C1981 H1969 0.950 . S
C1981 C1977 1.393 . S
C1981 C1980 1.391 . S
C1982 H1972 0.950 . S
C1982 C1983 1.386 . S
C1982 C1984 1.391 . S
C1983 C1982 1.386 . S
C1983 C1987 1.393 . S
C1984 H1973 0.950 . S
C1984 C1982 1.391 . S
C1984 C1985 1.400 . S
C1985 C1979 1.491 1_556 S
C1985 C1984 1.400 . S
C1985 C1986 1.398 . S
C1986 H1974 0.950 . S
C1986 C1985 1.398 . S
C1986 C1987 1.391 . S
C1987 H1975 0.950 . S
C1987 C1983 1.393 . S
C1987 C1986 1.391 . S
H1988 C1996 0.950 . S
H1989 C2001 0.950 . S
H1990 C1998 0.950 . S
H1991 C2000 0.950 . S
H1992 C2002 0.950 . S
H1993 C2004 0.950 . S
H1994 C2006 0.950 . S
H1995 C2007 0.950 . S
C1996 H1988 0.950 . S
C1996 C1997 1.386 1_455 S
C1996 C1998 1.391 . S
C1997 C1996 1.386 1_655 S
C1997 C2001 1.393 . S
C1998 H1990 0.950 . S
C1998 C1996 1.391 . S
C1998 C1999 1.388 1_455 S
C1999 C1998 1.388 1_655 S
C1999 C2000 1.411 . S
C1999 C2005 1.489 1_654 S
C2000 H1991 0.950 . S
C2000 C1999 1.411 . S
C2000 C2001 1.391 . S
C2001 H1989 0.950 . S
C2001 C1997 1.393 . S
C2001 C2000 1.391 . S
C2002 H1992 0.950 . S
C2002 C2003 1.386 1_655 S
C2002 C2004 1.391 . S
C2003 C2002 1.386 1_455 S
C2003 C2007 1.393 . S
C2004 H1993 0.950 . S
C2004 C2002 1.391 . S
C2004 C2005 1.372 1_655 S
C2005 C1999 1.489 1_456 S
C2005 C2004 1.372 1_455 S
C2005 C2006 1.428 . S
C2006 H1994 0.950 . S
C2006 C2005 1.428 . S
C2006 C2007 1.391 . S
C2007 H1995 0.950 . S
C2007 C2003 1.393 . S
C2007 C2006 1.391 . S
H2008 C2016 0.950 . S
H2009 C2021 0.950 . S
H2010 C2018 0.950 . S
H2011 C2020 0.950 . S
H2012 C2022 0.950 . S
H2013 C2024 0.950 . S
H2014 C2026 0.950 . S
H2015 C2027 0.950 . S
C2016 H2008 0.950 . S
C2016 C2017 1.386 1_455 S
C2016 C2018 1.391 . S
C2017 C2016 1.386 1_655 S
C2017 C2021 1.393 . S
C2018 H2010 0.950 . S
C2018 C2016 1.391 . S
C2018 C2019 1.384 1_455 S
C2019 C2018 1.384 1_655 S
C2019 C2020 1.415 . S
C2019 C2025 1.490 1_655 S
C2020 H2011 0.950 . S
C2020 C2019 1.415 . S
C2020 C2021 1.391 . S
C2021 H2009 0.950 . S
C2021 C2017 1.393 . S
C2021 C2020 1.391 . S
C2022 H2012 0.950 . S
C2022 C2023 1.386 1_655 S
C2022 C2024 1.391 . S
C2023 C2022 1.386 1_455 S
C2023 C2027 1.393 . S
C2024 H2013 0.950 . S
C2024 C2022 1.391 . S
C2024 C2025 1.396 1_655 S
C2025 C2019 1.490 1_455 S
C2025 C2024 1.396 1_455 S
C2025 C2026 1.403 . S
C2026 H2014 0.950 . S
C2026 C2025 1.403 . S
C2026 C2027 1.391 . S
C2027 H2015 0.950 . S
C2027 C2023 1.393 . S
C2027 C2026 1.391 . S
H2028 C2036 0.950 . S
H2029 C2041 0.950 . S
H2030 C2038 0.950 . S
H2031 C2040 0.950 . S
H2032 C2042 0.950 . S
H2033 C2044 0.950 . S
H2034 C2046 0.950 . S
H2035 C2047 0.950 . S
C2036 H2028 0.950 . S
C2036 C2037 1.386 . S
C2036 C2038 1.391 . S
C2037 C2036 1.386 . S
C2037 C2041 1.393 . S
C2038 H2030 0.950 . S
C2038 C2036 1.391 . S
C2038 C2039 1.400 . S
C2039 C2038 1.400 . S
C2039 C2040 1.398 . S
C2039 C2045 1.491 . S
C2040 H2031 0.950 . S
C2040 C2039 1.398 . S
C2040 C2041 1.391 . S
C2041 H2029 0.950 . S
C2041 C2037 1.393 . S
C2041 C2040 1.391 . S
C2042 H2032 0.950 . S
C2042 C2043 1.386 . S
C2042 C2044 1.391 . S
C2043 C2042 1.386 . S
C2043 C2047 1.393 . S
C2044 H2033 0.950 . S
C2044 C2042 1.391 . S
C2044 C2045 1.400 . S
C2045 C2039 1.491 . S
C2045 C2044 1.400 . S
C2045 C2046 1.398 . S
C2046 H2034 0.950 . S
C2046 C2045 1.398 . S
C2046 C2047 1.391 . S
C2047 H2035 0.950 . S
C2047 C2043 1.393 . S
C2047 C2046 1.391 . S
C1417 C137 1.515 . S
C1423 C29 1.514 . S
C1437 C196 1.513 . S
C1443 C293 1.512 . S
C1457 C401 1.505 . S
C1463 C489 1.505 . S
C1477 C645 1.505 . S
C1483 C548 1.505 . S
C1497 C841 1.513 . S
C1503 C753 1.512 . S
C1517 C997 1.516 . S
C1523 C909 1.517 . S
C1537 C1201 1.509 . S
C1543 C1113 1.509 . S
C1557 C1349 1.505 . S
C1563 C1252 1.506 . S
C1577 C313 1.102 . S
C1583 C49 1.106 . S
C1597 C117 1.125 . S
C1603 C233 1.116 . S
C1617 C636 1.099 . S
C1623 C409 1.107 . S
C1637 C557 1.117 . S
C1643 C497 1.100 . S
C1657 C733 1.100 . S
C1663 C1017 1.116 . S
C1677 C929 1.101 . S
C1683 C821 1.121 . S
C1697 C1340 1.102 . S
C1703 C1105 1.121 . S
C1717 C1193 1.115 . S
C1723 C1261 1.125 . S
C1737 C57 1.698 . S
C1743 C812 1.693 . S
C1757 C108 1.704 . S
C1763 C724 1.703 . S
C1777 C1025 1.704 . S
C1783 C225 1.702 . S
C1797 C937 1.697 . S
C1803 C321 1.701 . S
C1817 C1173 1.705 . S
C1823 C372 1.705 . S
C1837 C1085 1.703 . S
C1843 C460 1.705 . S
C1857 C577 1.703 . S
C1863 C1377 1.701 . S
C1877 C673 1.702 . S
C1883 C1281 1.699 . S
C1897 C381 1.162 . S
C1903 C20 1.165 . S
C1917 C469 1.154 . S
C1923 C145 1.156 . S
C1937 C585 1.140 . S
C1943 C205 1.144 . S
C1957 C665 1.123 . S
C1963 C284 1.126 . S
C1977 C761 1.128 . S
C1983 C1076 1.126 . S
C1997 C849 1.130 . S
C2003 C1164 1.128 . S
C2017 C1289 1.162 . S
C2023 C900 1.164 . S
C2037 C1369 1.133 . S
C2043 C988 1.136 . S
