# Generated by pormake.
# Topology umg, (4)-cn, num edge types: 1
# Building blocks:
#     Node 0, Type 0, BuildingBlock: NAWXER_clean_sbu_0, # of connection points: 4
#     Node 1, Type 0, BuildingBlock: NAWXER_clean_sbu_0, # of connection points: 4
#     Node 2, Type 0, BuildingBlock: NAWXER_clean_sbu_0, # of connection points: 4
#     Node 3, Type 0, BuildingBlock: NAWXER_clean_sbu_0, # of connection points: 4
#     Node 4, Type 0, BuildingBlock: NAWXER_clean_sbu_0, # of connection points: 4
#     Node 5, Type 0, BuildingBlock: NAWXER_clean_sbu_0, # of connection points: 4
#     Node 6, Type 0, BuildingBlock: NAWXER_clean_sbu_0, # of connection points: 4
#     Node 7, Type 0, BuildingBlock: NAWXER_clean_sbu_0, # of connection points: 4
#     Node 8, Type 0, BuildingBlock: NAWXER_clean_sbu_0, # of connection points: 4
#     Node 9, Type 0, BuildingBlock: NAWXER_clean_sbu_0, # of connection points: 4
#     Node 10, Type 0, BuildingBlock: NAWXER_clean_sbu_0, # of connection points: 4
#     Node 11, Type 0, BuildingBlock: NAWXER_clean_sbu_0, # of connection points: 4
#     Edge 12, Type (0, 0), BuildingBlock: XIVTED_clean_linker_0, # of connection points: 2
#     Edge 13, Type (0, 0), BuildingBlock: XIVTED_clean_linker_0, # of connection points: 2
#     Edge 14, Type (0, 0), BuildingBlock: XIVTED_clean_linker_0, # of connection points: 2
#     Edge 15, Type (0, 0), BuildingBlock: XIVTED_clean_linker_0, # of connection points: 2
#     Edge 16, Type (0, 0), BuildingBlock: XIVTED_clean_linker_0, # of connection points: 2
#     Edge 17, Type (0, 0), BuildingBlock: XIVTED_clean_linker_0, # of connection points: 2
#     Edge 18, Type (0, 0), BuildingBlock: XIVTED_clean_linker_0, # of connection points: 2
#     Edge 19, Type (0, 0), BuildingBlock: XIVTED_clean_linker_0, # of connection points: 2
#     Edge 20, Type (0, 0), BuildingBlock: XIVTED_clean_linker_0, # of connection points: 2
#     Edge 21, Type (0, 0), BuildingBlock: XIVTED_clean_linker_0, # of connection points: 2
#     Edge 22, Type (0, 0), BuildingBlock: XIVTED_clean_linker_0, # of connection points: 2
#     Edge 23, Type (0, 0), BuildingBlock: XIVTED_clean_linker_0, # of connection points: 2
#     Edge 24, Type (0, 0), BuildingBlock: XIVTED_clean_linker_0, # of connection points: 2
#     Edge 25, Type (0, 0), BuildingBlock: XIVTED_clean_linker_0, # of connection points: 2
#     Edge 26, Type (0, 0), BuildingBlock: XIVTED_clean_linker_0, # of connection points: 2
#     Edge 27, Type (0, 0), BuildingBlock: XIVTED_clean_linker_0, # of connection points: 2
#     Edge 28, Type (0, 0), BuildingBlock: XIVTED_clean_linker_0, # of connection points: 2
#     Edge 29, Type (0, 0), BuildingBlock: XIVTED_clean_linker_0, # of connection points: 2
#     Edge 30, Type (0, 0), BuildingBlock: XIVTED_clean_linker_0, # of connection points: 2
#     Edge 31, Type (0, 0), BuildingBlock: XIVTED_clean_linker_0, # of connection points: 2
#     Edge 32, Type (0, 0), BuildingBlock: XIVTED_clean_linker_0, # of connection points: 2
#     Edge 33, Type (0, 0), BuildingBlock: XIVTED_clean_linker_0, # of connection points: 2
#     Edge 34, Type (0, 0), BuildingBlock: XIVTED_clean_linker_0, # of connection points: 2
#     Edge 35, Type (0, 0), BuildingBlock: XIVTED_clean_linker_0, # of connection points: 2
# Relax obj value: 0.016
# Max RMSD: 0.162
# Mean RMSD: 0.161
data_MOF--net-umg--node1-NAWXER_clean_sbu_0--edge1-XIVTED_clean_linker_0
_symmetry_space_group_name_H-M    P1
_symmetry_Int_Tables_number       1
_symmetry_cell_setting            triclinic
loop_
_symmetry_equiv_pos_as_xyz
'x, y, z'
_cell_length_a     29.672707
_cell_length_b     29.669627
_cell_length_c     88.484482
_cell_angle_alpha  89.983555
_cell_angle_beta   90.007284
_cell_angle_gamma 120.01682
loop_
_atom_site_label
_atom_site_type_symbol
_atom_site_fract_x
_atom_site_fract_y
_atom_site_fract_z
_atom_type_partial_charge
C0 C 0.18353 0.52845 0.08507 0.0
C1 C 0.34821 0.52876 0.08518 0.0
O2 O 0.19088 0.48992 0.08618 0.0
Zn3 Zn 0.26588 0.52842 0.08508 0.0
O4 O 0.22288 0.57448 0.08374 0.0
Zn5 Zn 0.30646 0.61016 0.08273 0.0
O6 O 0.32263 0.6423 0.06303 0.0
O7 O 0.28003 0.55651 0.06216 0.0
O8 O 0.35483 0.5748 0.08391 0.0
O9 O 0.30233 0.49008 0.08615 0.0
O10 O 0.28771 0.57145 0.10599 0.0
O11 O 0.32805 0.65497 0.10016 0.0
C12 C 0.30199 0.60058 0.05533 0.0
C13 C 0.31103 0.61933 0.11011 0.0
C14 C 0.69276 0.30847 0.44373 0.0
C15 C 0.70231 0.30066 0.38892 0.0
O16 O 0.6739 0.32548 0.43386 0.0
Zn17 Zn 0.69723 0.3045 0.41633 0.0
O18 O 0.71747 0.28542 0.43952 0.0
Zn19 Zn 0.73871 0.26419 0.41853 0.0
O20 O 0.81349 0.30095 0.41956 0.0
O21 O 0.78091 0.35317 0.41751 0.0
O22 O 0.72458 0.27872 0.39567 0.0
O23 O 0.68115 0.32104 0.3967 0.0
O24 O 0.64972 0.22088 0.41714 0.0
O25 O 0.70254 0.18916 0.41947 0.0
C26 C 0.82046 0.34676 0.4187 0.0
C27 C 0.65659 0.18163 0.41835 0.0
C28 C 0.38266 0.69154 0.77665 0.0
C29 C 0.40421 0.70226 0.72196 0.0
O30 O 0.34755 0.67342 0.76655 0.0
Zn31 Zn 0.39327 0.69679 0.74931 0.0
O32 O 0.43075 0.7159 0.77274 0.0
Zn33 Zn 0.47482 0.73732 0.75202 0.0
O34 O 0.51371 0.81197 0.75321 0.0
O35 O 0.42924 0.78062 0.75061 0.0
O36 O 0.44791 0.72396 0.72898 0.0
O37 O 0.3621 0.68138 0.72947 0.0
O38 O 0.42839 0.64838 0.7505 0.0
O39 O 0.51288 0.70055 0.7533 0.0
C40 C 0.47543 0.8197 0.75207 0.0
C41 C 0.47424 0.65479 0.75203 0.0
C42 C 0.69246 0.38195 0.11015 0.0
C43 C 0.70259 0.40209 0.05543 0.0
O44 O 0.67561 0.34661 0.10012 0.0
Zn45 Zn 0.69758 0.39187 0.0828 0.0
O46 O 0.71591 0.42996 0.10614 0.0
Zn47 Zn 0.73815 0.47353 0.08532 0.0
O48 O 0.7017 0.51188 0.08641 0.0
O49 O 0.64923 0.42723 0.08397 0.0
O50 O 0.72444 0.446 0.06234 0.0
O51 O 0.68173 0.36018 0.06305 0.0
O52 O 0.78113 0.42748 0.08389 0.0
O53 O 0.81314 0.51198 0.08652 0.0
C54 C 0.65584 0.47325 0.08533 0.0
C55 C 0.82048 0.47346 0.08532 0.0
C56 C 0.31311 0.69394 0.44346 0.0
C57 C 0.30044 0.69861 0.38865 0.0
O58 O 0.32752 0.6723 0.43371 0.0
Zn59 Zn 0.30578 0.69477 0.41608 0.0
O60 O 0.29052 0.71901 0.43918 0.0
Zn61 Zn 0.26609 0.73699 0.41825 0.0
O62 O 0.19111 0.70071 0.4198 0.0
O63 O 0.2225 0.64769 0.4174 0.0
O64 O 0.27917 0.72145 0.39543 0.0
O65 O 0.32091 0.67744 0.39639 0.0
O66 O 0.35481 0.77883 0.41673 0.0
O67 O 0.30279 0.81174 0.41868 0.0
C68 C 0.18343 0.65468 0.41882 0.0
C69 C 0.34852 0.81855 0.41772 0.0
C70 C 0.52655 0.18107 0.7524 0.0
C71 C 0.52784 0.34603 0.75232 0.0
O72 O 0.48825 0.18879 0.75347 0.0
Zn73 Zn 0.5272 0.26346 0.75235 0.0
O74 O 0.57278 0.22016 0.75104 0.0
Zn75 Zn 0.60882 0.304 0.74983 0.0
O76 O 0.65407 0.32712 0.76716 0.0
O77 O 0.5707 0.2846 0.77318 0.0
O78 O 0.57372 0.35243 0.7509 0.0
O79 O 0.48915 0.30027 0.75352 0.0
O80 O 0.55475 0.27708 0.72938 0.0
O81 O 0.64055 0.31962 0.73008 0.0
C82 C 0.61869 0.3089 0.77719 0.0
C83 C 0.59864 0.29883 0.72246 0.0
C84 C 0.47847 0.82176 0.57961 0.0
C85 C 0.47838 0.65744 0.57852 0.0
O86 O 0.51717 0.81455 0.57877 0.0
Zn87 Zn 0.47856 0.7399 0.57908 0.0
O88 O 0.43224 0.78229 0.58044 0.0
Zn89 Zn 0.39659 0.69816 0.58097 0.0
O90 O 0.36329 0.68058 0.60055 0.0
O91 O 0.44902 0.72402 0.6018 0.0
O92 O 0.43235 0.65067 0.57979 0.0
O93 O 0.51695 0.70337 0.57766 0.0
O94 O 0.43703 0.72256 0.558 0.0
O95 O 0.35306 0.67627 0.5632 0.0
C96 C 0.40462 0.7013 0.60843 0.0
C97 C 0.38952 0.69784 0.55357 0.0
C98 C 0.69577 0.38688 0.88721 0.0
C99 C 0.70582 0.40708 0.94193 0.0
O100 O 0.67723 0.35157 0.89725 0.0
Zn101 Zn 0.7006 0.39689 0.91455 0.0
O102 O 0.72038 0.4349 0.8912 0.0
Zn103 Zn 0.74171 0.47846 0.91202 0.0
O104 O 0.81628 0.51698 0.91091 0.0
O105 O 0.78438 0.43235 0.91334 0.0
O106 O 0.72791 0.451 0.93501 0.0
O107 O 0.68473 0.36519 0.9343 0.0
O108 O 0.65277 0.43265 0.91342 0.0
O109 O 0.70562 0.51711 0.91079 0.0
C110 C 0.82366 0.47846 0.91198 0.0
C111 C 0.65969 0.47873 0.91197 0.0
C112 C 0.30032 0.70299 0.27513 0.0
C113 C 0.31018 0.69386 0.22036 0.0
O114 O 0.32087 0.68178 0.26746 0.0
Zn115 Zn 0.30524 0.69824 0.24774 0.0
O116 O 0.27883 0.72551 0.26828 0.0
Zn117 Zn 0.26533 0.73998 0.24534 0.0
O118 O 0.19051 0.70429 0.24416 0.0
O119 O 0.22159 0.65097 0.24664 0.0
O120 O 0.28715 0.71871 0.22445 0.0
O121 O 0.32676 0.67489 0.23033 0.0
O122 O 0.35417 0.78198 0.24664 0.0
O123 O 0.3021 0.81467 0.24436 0.0
C124 C 0.18261 0.65822 0.24527 0.0
C125 C 0.34783 0.82158 0.24537 0.0
C126 C 0.6021 0.30119 0.60896 0.0
C127 C 0.6203 0.30927 0.55416 0.0
O128 O 0.64378 0.32133 0.60124 0.0
Zn129 Zn 0.6115 0.30525 0.58155 0.0
O130 O 0.55801 0.27968 0.60215 0.0
Zn131 Zn 0.52973 0.26559 0.57926 0.0
O132 O 0.49023 0.19068 0.57827 0.0
O133 O 0.57463 0.22157 0.5807 0.0
O134 O 0.5725 0.2866 0.55833 0.0
O135 O 0.65606 0.32596 0.56406 0.0
O136 O 0.57716 0.35451 0.58031 0.0
O137 O 0.49228 0.30278 0.57816 0.0
C138 C 0.52831 0.18265 0.57942 0.0
C139 C 0.53134 0.34844 0.57905 0.0
C140 C 0.31204 0.61951 0.88712 0.0
C141 C 0.3014 0.59808 0.94181 0.0
O142 O 0.33047 0.65458 0.89723 0.0
Zn143 Zn 0.30696 0.60887 0.91445 0.0
O144 O 0.2874 0.5714 0.89102 0.0
Zn145 Zn 0.2659 0.52737 0.91177 0.0
O146 O 0.19133 0.48885 0.9106 0.0
O147 O 0.22319 0.57341 0.91321 0.0
O148 O 0.27941 0.55432 0.93482 0.0
O149 O 0.3226 0.64014 0.93426 0.0
O150 O 0.35482 0.57317 0.91328 0.0
O151 O 0.30202 0.48877 0.91049 0.0
C152 C 0.18393 0.52732 0.91176 0.0
C153 C 0.34793 0.52712 0.91176 0.0
C154 C 0.70388 0.30154 0.27541 0.0
C155 C 0.69336 0.31254 0.22073 0.0
O156 O 0.68337 0.32313 0.26789 0.0
Zn157 Zn 0.6988 0.30739 0.24806 0.0
O158 O 0.72533 0.27929 0.2684 0.0
Zn159 Zn 0.73868 0.26573 0.24537 0.0
O160 O 0.81349 0.30153 0.24409 0.0
O161 O 0.78242 0.35474 0.24689 0.0
O162 O 0.71647 0.28757 0.22464 0.0
O163 O 0.67698 0.33125 0.23082 0.0
O164 O 0.64989 0.22368 0.24679 0.0
O165 O 0.70193 0.19107 0.24418 0.0
C166 C 0.82138 0.34756 0.24536 0.0
C167 C 0.65621 0.18412 0.24534 0.0
H168 H 0.25973 0.51493 0.96104 0.0
H169 H 0.3448 0.6863 0.03667 0.0
H170 H 0.34383 0.68302 0.96076 0.0
H171 H 0.26119 0.51824 0.03583 0.0
H172 H 0.34524 0.68679 0.00898 0.0
H173 H 0.26028 0.51628 0.98853 0.0
C174 C 0.27836 0.55221 0.96675 0.0
C175 C 0.30178 0.59896 0.95854 0.0
C176 C 0.32683 0.64985 0.01488 0.0
C177 C 0.30254 0.60077 0.99018 0.0
C178 C 0.32655 0.64954 0.03068 0.0
C179 C 0.30292 0.60215 0.0386 0.0
C180 C 0.30329 0.60246 0.00695 0.0
C181 C 0.27988 0.55573 0.03024 0.0
C182 C 0.27865 0.55294 0.98249 0.0
C183 C 0.3253 0.64603 0.96662 0.0
N184 N 0.28066 0.55709 0.01491 0.0
N185 N 0.32508 0.64574 0.982 0.0
H186 H 0.65977 0.34421 0.3704 0.0
H187 H 0.74431 0.25865 0.29454 0.0
H188 H 0.74317 0.25962 0.36929 0.0
H189 H 0.66229 0.34465 0.29445 0.0
H190 H 0.74348 0.25881 0.32203 0.0
H191 H 0.65955 0.34499 0.34271 0.0
C192 C 0.67802 0.32582 0.36436 0.0
C193 C 0.70154 0.30182 0.3722 0.0
C194 C 0.72563 0.27769 0.31604 0.0
C195 C 0.70139 0.30257 0.34055 0.0
C196 C 0.72608 0.27762 0.3003 0.0
C197 C 0.70333 0.3017 0.29214 0.0
C198 C 0.70226 0.30201 0.32378 0.0
C199 C 0.6803 0.32562 0.30027 0.0
C200 C 0.67788 0.32629 0.34855 0.0
C201 C 0.72458 0.27861 0.36376 0.0
N202 N 0.68035 0.32518 0.31566 0.0
N203 N 0.7239 0.27958 0.34843 0.0
H204 H 0.4876 0.74369 0.70285 0.0
H205 H 0.31814 0.65783 0.62684 0.0
H206 H 0.31953 0.65971 0.70288 0.0
H207 H 0.48615 0.74185 0.62818 0.0
H208 H 0.31675 0.65735 0.65455 0.0
H209 H 0.48674 0.74274 0.67537 0.0
C210 C 0.45041 0.72501 0.69709 0.0
C211 C 0.40354 0.70174 0.70522 0.0
C212 C 0.35386 0.67584 0.64875 0.0
C213 C 0.40229 0.70049 0.67358 0.0
C214 C 0.35469 0.67612 0.63294 0.0
C215 C 0.40233 0.69993 0.62515 0.0
C216 C 0.401 0.69954 0.65681 0.0
C217 C 0.44846 0.72302 0.63365 0.0
C218 C 0.44996 0.72447 0.68135 0.0
C219 C 0.35661 0.67814 0.69707 0.0
N220 N 0.4466 0.72224 0.64898 0.0
N221 N 0.35716 0.67811 0.68169 0.0
H222 H 0.66007 0.31679 0.03662 0.0
H223 H 0.74739 0.4898 0.96129 0.0
H224 H 0.74403 0.48487 0.03607 0.0
H225 H 0.66283 0.32173 0.96072 0.0
H226 H 0.74624 0.48786 0.98878 0.0
H227 H 0.66035 0.31691 0.00893 0.0
C228 C 0.67854 0.35368 0.0307 0.0
C229 C 0.70206 0.40089 0.0387 0.0
C230 C 0.7279 0.45133 0.98268 0.0
C231 C 0.70251 0.40128 0.00705 0.0
C232 C 0.72854 0.4524 0.96694 0.0
C233 C 0.70515 0.40584 0.95865 0.0
C234 C 0.70369 0.40334 0.99028 0.0
C235 C 0.68134 0.35859 0.96665 0.0
C236 C 0.67868 0.35371 0.01489 0.0
C237 C 0.7254 0.4475 0.03041 0.0
N238 N 0.68121 0.35854 0.98203 0.0
N239 N 0.72502 0.44648 0.01508 0.0
H240 H 0.25963 0.74481 0.29454 0.0
H241 H 0.34245 0.65494 0.36994 0.0
H242 H 0.34169 0.65886 0.2939 0.0
H243 H 0.25987 0.74037 0.36919 0.0
H244 H 0.34297 0.65526 0.34222 0.0
H245 H 0.25988 0.74299 0.32201 0.0
C246 C 0.27776 0.72551 0.30017 0.0
C247 C 0.30069 0.70194 0.29186 0.0
C248 C 0.32474 0.67388 0.34815 0.0
C249 C 0.30108 0.6997 0.32349 0.0
C250 C 0.32441 0.6737 0.36397 0.0
C251 C 0.30109 0.69768 0.37192 0.0
C252 C 0.3016 0.69821 0.34026 0.0
C253 C 0.27833 0.7214 0.36358 0.0
C254 C 0.27787 0.72448 0.3159 0.0
C255 C 0.32356 0.67754 0.29984 0.0
N256 N 0.2792 0.72106 0.34826 0.0
N257 N 0.32318 0.67704 0.31523 0.0
H258 H 0.51581 0.25803 0.70315 0.0
H259 H 0.6878 0.34307 0.62763 0.0
H260 H 0.68387 0.34103 0.7036 0.0
H261 H 0.51977 0.26111 0.62844 0.0
H262 H 0.68816 0.34311 0.65534 0.0
H263 H 0.51751 0.25912 0.67567 0.0
C264 C 0.55317 0.27652 0.69748 0.0
C265 C 0.5998 0.29948 0.70573 0.0
C266 C 0.65127 0.32516 0.64942 0.0
C267 C 0.60201 0.30088 0.6741 0.0
C268 C 0.65102 0.32512 0.63361 0.0
C269 C 0.60368 0.30204 0.62568 0.0
C270 C 0.60385 0.30195 0.65733 0.0
C271 C 0.55723 0.27937 0.63404 0.0
C272 C 0.5541 0.27714 0.68174 0.0
C273 C 0.64697 0.32285 0.6977 0.0
N274 N 0.55853 0.2799 0.64936 0.0
N275 N 0.64688 0.32295 0.68232 0.0
H276 H 0.30186 0.74787 0.19655 0.0
H277 H 0.30194 0.55667 0.1339 0.0
H278 H 0.33137 0.62294 0.20715 0.0
H279 H 0.33247 0.7115 0.12334 0.0
H280 H 0.30679 0.57723 0.16082 0.0
H281 H 0.30714 0.73238 0.16964 0.0
C282 C 0.30961 0.71727 0.19322 0.0
C283 C 0.31601 0.6865 0.2041 0.0
C284 C 0.3128 0.60681 0.15261 0.0
C285 C 0.32163 0.66834 0.17334 0.0
C286 C 0.30983 0.59506 0.13725 0.0
C287 C 0.31664 0.6324 0.12637 0.0
C288 C 0.32176 0.65594 0.15714 0.0
C289 C 0.32706 0.6816 0.13135 0.0
C290 C 0.31283 0.70863 0.17786 0.0
C291 C 0.32627 0.6476 0.19913 0.0
N292 N 0.32877 0.69179 0.14639 0.0
N293 N 0.32823 0.63926 0.1841 0.0
H294 H 0.74655 0.29894 0.46739 0.0
H295 H 0.5576 0.30106 0.53049 0.0
H296 H 0.62253 0.33019 0.45716 0.0
H297 H 0.71184 0.32936 0.54076 0.0
H298 H 0.57761 0.30571 0.50354 0.0
H299 H 0.73156 0.30403 0.49435 0.0
C300 C 0.71625 0.30702 0.47082 0.0
C301 C 0.68559 0.31398 0.46002 0.0
C302 C 0.60718 0.31126 0.51169 0.0
C303 C 0.66803 0.3194 0.49083 0.0
C304 C 0.59575 0.30841 0.52707 0.0
C305 C 0.63309 0.31466 0.53788 0.0
C306 C 0.65599 0.31956 0.50707 0.0
C307 C 0.68196 0.32439 0.53281 0.0
C308 C 0.70789 0.31013 0.4862 0.0
C309 C 0.64709 0.32464 0.4651 0.0
N310 N 0.69184 0.32602 0.51775 0.0
N311 N 0.63904 0.32652 0.48016 0.0
H312 H 0.28961 0.62083 0.78946 0.0
H313 H 0.38261 0.71264 0.87433 0.0
H314 H 0.44411 0.74437 0.80072 0.0
H315 H 0.25896 0.55822 0.86304 0.0
H316 H 0.39741 0.73301 0.84731 0.0
H317 H 0.26958 0.60559 0.81649 0.0
C318 C 0.31914 0.645 0.79761 0.0
C319 C 0.36871 0.6837 0.79285 0.0
C320 C 0.36693 0.69476 0.85079 0.0
C321 C 0.34594 0.66672 0.82369 0.0
C322 C 0.35833 0.68318 0.86618 0.0
C323 C 0.31972 0.63355 0.87092 0.0
C324 C 0.33619 0.65671 0.84009 0.0
C325 C 0.28944 0.59683 0.85987 0.0
C326 C 0.30776 0.63614 0.81301 0.0
C327 C 0.40555 0.71383 0.8039 0.0
N328 N 0.29826 0.60917 0.84496 0.0
N329 N 0.3934 0.70476 0.81881 0.0
H330 H 0.6697 0.28903 0.12313 0.0
H331 H 0.67187 0.38374 0.20784 0.0
H332 H 0.70164 0.44404 0.13411 0.0
H333 H 0.70077 0.25877 0.19672 0.0
H334 H 0.66652 0.3984 0.1808 0.0
H335 H 0.66478 0.26942 0.15019 0.0
C336 C 0.67526 0.31878 0.13122 0.0
C337 C 0.68643 0.36835 0.12638 0.0
C338 C 0.67383 0.36767 0.18432 0.0
C339 C 0.6805 0.34606 0.15726 0.0
C340 C 0.67668 0.35915 0.19972 0.0
C341 C 0.68712 0.3202 0.20452 0.0
C342 C 0.68068 0.33651 0.17367 0.0
C343 C 0.6931 0.28952 0.19351 0.0
C344 C 0.67266 0.30763 0.14664 0.0
C345 C 0.69338 0.40546 0.13736 0.0
N346 N 0.68973 0.29828 0.1786 0.0
N347 N 0.69024 0.39355 0.15229 0.0
H348 H 0.44139 0.77425 0.53291 0.0
H349 H 0.31153 0.61389 0.45937 0.0
H350 H 0.31163 0.61806 0.53743 0.0
H351 H 0.33877 0.77025 0.46421 0.0
H352 H 0.32856 0.61286 0.48662 0.0
H353 H 0.42187 0.77209 0.50589 0.0
C354 C 0.40897 0.73943 0.52817 0.0
C355 C 0.37786 0.69632 0.53734 0.0
C356 C 0.33067 0.6472 0.48163 0.0
C357 C 0.35636 0.69329 0.50657 0.0
C358 C 0.32132 0.64795 0.46616 0.0
C359 C 0.3237 0.69218 0.45964 0.0
C360 C 0.3441 0.69158 0.49038 0.0
C361 C 0.33627 0.73531 0.46887 0.0
C362 C 0.39784 0.73834 0.51284 0.0
C363 C 0.33619 0.65217 0.5307 0.0
N364 N 0.34667 0.73421 0.48376 0.0
N365 N 0.3269 0.6515 0.51561 0.0
H366 H 0.74918 0.4487 0.86325 0.0
H367 H 0.5566 0.25586 0.80113 0.0
H368 H 0.62483 0.29429 0.87423 0.0
H369 H 0.71131 0.37966 0.7902 0.0
H370 H 0.57788 0.27214 0.828 0.0
H371 H 0.73314 0.42717 0.83639 0.0
C372 C 0.7186 0.4102 0.86001 0.0
C373 C 0.68814 0.37326 0.87099 0.0
C374 C 0.60727 0.29546 0.81971 0.0
C375 C 0.66936 0.34863 0.84029 0.0
C376 C 0.59512 0.28636 0.80438 0.0
C377 C 0.63221 0.3166 0.79342 0.0
C378 C 0.65656 0.33568 0.82412 0.0
C379 C 0.68159 0.3554 0.79828 0.0
C380 C 0.70964 0.3979 0.84468 0.0
C381 C 0.64926 0.3239 0.86614 0.0
N382 N 0.69218 0.36421 0.81329 0.0
N383 N 0.6406 0.31318 0.85114 0.0
H384 H 0.84899 0.39886 0.08453 0.0
H385 H 0.155 0.60306 0.08439 0.0
H386 H 0.91367 0.56539 0.08652 0.0
H387 H 0.09035 0.4365 0.08625 0.0
H388 H 0.067 0.59 0.08463 0.0
H389 H 0.93699 0.41191 0.08463 0.0
C390 C 0.88168 0.43822 0.08499 0.0
C391 C 0.87382 0.48111 0.08551 0.0
C392 C 0.07201 0.55628 0.08501 0.0
C393 C 0.97496 0.49631 0.08561 0.0
C394 C 0.12232 0.56369 0.08485 0.0
C395 C 0.13018 0.52079 0.08529 0.0
C396 C 0.02905 0.50559 0.08556 0.0
C397 C 0.08622 0.47073 0.0859 0.0
C398 C 0.93199 0.44562 0.08507 0.0
C399 C 0.91779 0.53116 0.08612 0.0
N400 N 0.03759 0.46453 0.08599 0.0
N401 N 0.96643 0.53737 0.08612 0.0
H402 H 0.55346 0.1528 0.41745 0.0
H403 H 0.45169 0.84675 0.41716 0.0
H404 H 0.65567 0.08856 0.41931 0.0
H405 H 0.35012 0.91179 0.41854 0.0
H406 H 0.52685 0.93478 0.41741 0.0
H407 H 0.47869 0.06474 0.41734 0.0
C408 C 0.56025 0.12018 0.41784 0.0
C409 C 0.61104 0.12819 0.41839 0.0
C410 C 0.48813 0.92981 0.41767 0.0
C411 C 0.52528 0.02694 0.41824 0.0
C412 C 0.44513 0.87951 0.4175 0.0
C413 C 0.39441 0.87177 0.41782 0.0
C414 C 0.48049 0.97284 0.41811 0.0
C415 C 0.38844 0.91581 0.41829 0.0
C416 C 0.51744 0.06983 0.41779 0.0
C417 C 0.61727 0.0843 0.41889 0.0
N418 N 0.43092 0.96438 0.4184 0.0
N419 N 0.57491 0.03559 0.41878 0.0
H420 H 0.60276 0.44908 0.75159 0.0
H421 H 0.39937 0.55174 0.75116 0.0
H422 H 0.43614 0.3476 0.75344 0.0
H423 H 0.56591 0.65324 0.75346 0.0
H424 H 0.41211 0.4766 0.75141 0.0
H425 H 0.59002 0.52424 0.7517 0.0
C426 C 0.56345 0.44254 0.75202 0.0
C427 C 0.52043 0.39185 0.7525 0.0
C428 C 0.44589 0.51529 0.75188 0.0
C429 C 0.5056 0.47797 0.75261 0.0
C430 C 0.43866 0.55829 0.75172 0.0
C431 C 0.48166 0.60899 0.75228 0.0
C432 C 0.4965 0.52287 0.75256 0.0
C433 C 0.53162 0.61493 0.75302 0.0
C434 C 0.55623 0.48555 0.7521 0.0
C435 C 0.47045 0.38591 0.75307 0.0
N436 N 0.53765 0.57241 0.75311 0.0
N437 N 0.46442 0.42843 0.75308 0.0
H438 H 0.43559 0.09028 0.57816 0.0
H439 H 0.57072 0.91437 0.57909 0.0
H440 H 0.60174 0.15269 0.5805 0.0
H441 H 0.40427 0.851 0.57998 0.0
H442 H 0.58269 0.00202 0.57895 0.0
H443 H 0.42313 0.0023 0.57815 0.0
C444 C 0.46945 0.08554 0.57866 0.0
C445 C 0.51979 0.12901 0.57934 0.0
C446 C 0.54353 0.96895 0.57919 0.0
C447 C 0.5058 0.02837 0.57932 0.0
C448 C 0.53667 0.91884 0.57926 0.0
C449 C 0.48641 0.87518 0.57956 0.0
C450 C 0.49985 0.9756 0.57938 0.0
C451 C 0.44376 0.88347 0.57977 0.0
C452 C 0.46231 0.03527 0.57867 0.0
C453 C 0.5622 0.1204 0.57998 0.0
N454 N 0.45145 0.93265 0.57966 0.0
N455 N 0.55424 0.07116 0.57994 0.0
H456 H 0.34825 0.43488 0.91035 0.0
H457 H 0.65939 0.571 0.91065 0.0
H458 H 0.45125 0.6012 0.91265 0.0
H459 H 0.55635 0.40464 0.91268 0.0
H460 H 0.58359 0.58287 0.91038 0.0
H461 H 0.42406 0.42301 0.91019 0.0
C462 C 0.38677 0.46891 0.9108 0.0
C463 C 0.39334 0.51911 0.91153 0.0
C464 C 0.57757 0.54376 0.91089 0.0
C465 C 0.48036 0.5058 0.91134 0.0
C466 C 0.62086 0.53696 0.91103 0.0
C467 C 0.61429 0.48674 0.91171 0.0
C468 C 0.52727 0.50005 0.91138 0.0
C469 C 0.56336 0.44409 0.91217 0.0
C470 C 0.43007 0.46211 0.91073 0.0
C471 C 0.44425 0.56175 0.91211 0.0
N472 N 0.52187 0.45172 0.91199 0.0
N473 N 0.48575 0.55412 0.91199 0.0
H474 H 0.09028 0.65849 0.24418 0.0
H475 H 0.91369 0.34737 0.24382 0.0
H476 H 0.15272 0.55471 0.24584 0.0
H477 H 0.85127 0.45104 0.24634 0.0
H478 H 1.00159 0.4229 0.24358 0.0
H479 H 1.00236 0.58297 0.244 0.0
C480 C 0.08555 0.61986 0.24449 0.0
C481 C 0.12902 0.613 0.24504 0.0
C482 C 0.96865 0.42912 0.24419 0.0
C483 C 0.02839 0.5263 0.24482 0.0
C484 C 0.91842 0.38598 0.24431 0.0
C485 C 0.87496 0.3928 0.24512 0.0
C486 C 0.97557 0.47953 0.24484 0.0
C487 C 0.88356 0.44383 0.24574 0.0
C488 C 0.03531 0.57673 0.2444 0.0
C489 C 0.12042 0.56195 0.24543 0.0
N490 N 0.93281 0.48517 0.24557 0.0
N491 N 0.07117 0.52062 0.24531 0.0
H492 H 0.55263 0.3987 0.08456 0.0
H493 H 0.45144 0.60337 0.08474 0.0
H494 H 0.65477 0.56519 0.0866 0.0
H495 H 0.34928 0.43679 0.08622 0.0
H496 H 0.5263 0.59015 0.08499 0.0
H497 H 0.47778 0.41192 0.08473 0.0
C498 C 0.55938 0.43808 0.08505 0.0
C499 C 0.61018 0.48092 0.08555 0.0
C500 C 0.48753 0.55647 0.08528 0.0
C501 C 0.52439 0.49632 0.08574 0.0
C502 C 0.44468 0.56397 0.08512 0.0
C503 C 0.39388 0.52111 0.08545 0.0
C504 C 0.47968 0.50572 0.08572 0.0
C505 C 0.38768 0.471 0.08596 0.0
C506 C 0.51655 0.44558 0.08516 0.0
C507 C 0.61638 0.53101 0.0862 0.0
N508 N 0.43004 0.46471 0.08605 0.0
N509 N 0.57402 0.53731 0.08625 0.0
H510 H 0.84869 0.44991 0.41843 0.0
H511 H 0.15458 0.55154 0.41823 0.0
H512 H 0.91364 0.34824 0.41971 0.0
H513 H 0.09044 0.65384 0.42019 0.0
H514 H 0.06656 0.47678 0.41847 0.0
H515 H 0.9367 0.52503 0.41876 0.0
C516 C 0.88144 0.44332 0.41878 0.0
C517 C 0.87368 0.39258 0.41903 0.0
C518 C 0.07166 0.51555 0.41887 0.0
C519 C 0.97472 0.47863 0.41939 0.0
C520 C 0.12199 0.55836 0.41872 0.0
C521 C 0.13001 0.60917 0.41918 0.0
C522 C 0.0288 0.52341 0.41943 0.0
C523 C 0.08616 0.61542 0.41983 0.0
C524 C 0.93172 0.4863 0.41899 0.0
C525 C 0.91768 0.38657 0.41951 0.0
N526 N 0.03746 0.57306 0.41991 0.0
N527 N 0.96625 0.42905 0.41965 0.0
H528 H 0.43394 0.0888 0.75356 0.0
H529 H 0.56798 0.91193 0.75358 0.0
H530 H 0.60015 0.15113 0.75179 0.0
H531 H 0.40185 0.84965 0.75128 0.0
H532 H 0.58052 0.99985 0.75391 0.0
H533 H 0.42138 1.00086 0.75371 0.0
C534 C 0.46781 0.08404 0.75322 0.0
C535 C 0.51819 0.12749 0.75264 0.0
C536 C 0.54132 0.96695 0.75333 0.0
C537 C 0.50406 0.0268 0.75282 0.0
C538 C 0.53412 0.91669 0.75315 0.0
C539 C 0.48378 0.87327 0.75238 0.0
C540 C 0.49788 0.97394 0.75277 0.0
C541 C 0.44139 0.88192 0.75185 0.0
C542 C 0.4606 0.03378 0.75329 0.0
C543 C 0.56059 0.11884 0.75221 0.0
N544 N 0.4494 0.93121 0.75207 0.0
N545 N 0.55257 0.06955 0.75232 0.0
H546 H 0.40366 0.55444 0.57888 0.0
H547 H 0.60674 0.45144 0.57948 0.0
H548 H 0.57031 0.65616 0.57748 0.0
H549 H 0.44001 0.35049 0.57777 0.0
H550 H 0.59438 0.52687 0.57904 0.0
H551 H 0.41647 0.47943 0.57874 0.0
C552 C 0.44301 0.56107 0.57853 0.0
C553 C 0.486 0.61178 0.57821 0.0
C554 C 0.5605 0.48822 0.57874 0.0
C555 C 0.50093 0.52576 0.57807 0.0
C556 C 0.5675 0.44508 0.57901 0.0
C557 C 0.52433 0.39446 0.57868 0.0
C558 C 0.50994 0.48082 0.57818 0.0
C559 C 0.47445 0.38873 0.57804 0.0
C560 C 0.45028 0.51812 0.57844 0.0
C561 C 0.53603 0.61781 0.57774 0.0
N562 N 0.46864 0.43135 0.57784 0.0
N563 N 0.54211 0.57531 0.57772 0.0
H564 H 0.09143 0.43506 0.91034 0.0
H565 H 0.91616 0.57074 0.91074 0.0
H566 H 0.15462 0.60136 0.91263 0.0
H567 H 0.85294 0.40437 0.91256 0.0
H568 H 0.00385 0.58274 0.91045 0.0
H569 H 0.00373 0.42305 0.91016 0.0
C570 C 0.08691 0.46907 0.91079 0.0
C571 C 0.13052 0.51931 0.91152 0.0
C572 C 0.97079 0.54361 0.91092 0.0
C573 C 0.03013 0.50581 0.91131 0.0
C574 C 0.92067 0.53672 0.91107 0.0
C575 C 0.87706 0.48646 0.9117 0.0
C576 C 0.97744 0.49995 0.91135 0.0
C577 C 0.88537 0.44385 0.91209 0.0
C578 C 0.03679 0.46217 0.91071 0.0
C579 C 0.12219 0.5619 0.91208 0.0
N580 N 0.93453 0.45156 0.91191 0.0
N581 N 0.07303 0.55418 0.91196 0.0
H582 H 0.45093 0.8498 0.24587 0.0
H583 H 0.55314 0.15588 0.24617 0.0
H584 H 0.34928 0.91474 0.24436 0.0
H585 H 0.65475 0.09099 0.24396 0.0
H586 H 0.47806 0.06789 0.24598 0.0
H587 H 0.52601 0.9378 0.24564 0.0
C588 C 0.44434 0.88254 0.24549 0.0
C589 C 0.39364 0.87479 0.24514 0.0
C590 C 0.51677 0.07287 0.24551 0.0
C591 C 0.47962 0.97583 0.2449 0.0
C592 C 0.55972 0.12315 0.24564 0.0
C593 C 0.61041 0.13091 0.24509 0.0
C594 C 0.52443 0.02987 0.24489 0.0
C595 C 0.61643 0.08692 0.2444 0.0
C596 C 0.48729 0.93283 0.24534 0.0
C597 C 0.38761 0.9188 0.24463 0.0
N598 N 0.57397 0.03833 0.24434 0.0
N599 N 0.43007 0.96739 0.24455 0.0
loop_
_geom_bond_atom_site_label_1
_geom_bond_atom_site_label_2
_geom_bond_distance
_geom_bond_site_symmetry_2
_ccdc_geom_bond_type
C0 O2 1.247 . S
C0 O4 1.258 . S
C1 O8 1.247 . S
C1 O9 1.258 . S
O2 C0 1.247 . S
O2 Zn3 2.028 . S
Zn3 O2 2.028 . S
Zn3 O7 2.035 . S
Zn3 O9 2.035 . S
Zn3 O10 2.028 . S
O4 C0 1.258 . S
O4 Zn5 2.035 . S
Zn5 O4 2.035 . S
Zn5 O6 2.028 . S
Zn5 O8 2.028 . S
Zn5 O11 2.035 . S
O6 Zn5 2.028 . S
O6 C12 1.247 . S
O7 Zn3 2.035 . S
O7 C12 1.258 . S
O8 C1 1.247 . S
O8 Zn5 2.028 . S
O9 C1 1.258 . S
O9 Zn3 2.035 . S
O10 Zn3 2.028 . S
O10 C13 1.247 . S
O11 Zn5 2.035 . S
O11 C13 1.258 . S
C12 O6 1.247 . S
C12 O7 1.258 . S
C13 O10 1.247 . S
C13 O11 1.258 . S
C14 O16 1.247 . S
C14 O18 1.258 . S
C15 O22 1.247 . S
C15 O23 1.258 . S
O16 C14 1.247 . S
O16 Zn17 2.028 . S
Zn17 O16 2.028 . S
Zn17 O21 2.035 . S
Zn17 O23 2.035 . S
Zn17 O24 2.028 . S
O18 C14 1.258 . S
O18 Zn19 2.035 . S
Zn19 O18 2.035 . S
Zn19 O20 2.028 . S
Zn19 O22 2.028 . S
Zn19 O25 2.035 . S
O20 Zn19 2.028 . S
O20 C26 1.247 . S
O21 Zn17 2.035 . S
O21 C26 1.258 . S
O22 C15 1.247 . S
O22 Zn19 2.028 . S
O23 C15 1.258 . S
O23 Zn17 2.035 . S
O24 Zn17 2.028 . S
O24 C27 1.247 . S
O25 Zn19 2.035 . S
O25 C27 1.258 . S
C26 O20 1.247 . S
C26 O21 1.258 . S
C27 O24 1.247 . S
C27 O25 1.258 . S
C28 O30 1.247 . S
C28 O32 1.258 . S
C29 O36 1.247 . S
C29 O37 1.258 . S
O30 C28 1.247 . S
O30 Zn31 2.028 . S
Zn31 O30 2.028 . S
Zn31 O35 2.035 . S
Zn31 O37 2.035 . S
Zn31 O38 2.028 . S
O32 C28 1.258 . S
O32 Zn33 2.035 . S
Zn33 O32 2.035 . S
Zn33 O34 2.028 . S
Zn33 O36 2.028 . S
Zn33 O39 2.035 . S
O34 Zn33 2.028 . S
O34 C40 1.247 . S
O35 Zn31 2.035 . S
O35 C40 1.258 . S
O36 C29 1.247 . S
O36 Zn33 2.028 . S
O37 C29 1.258 . S
O37 Zn31 2.035 . S
O38 Zn31 2.028 . S
O38 C41 1.247 . S
O39 Zn33 2.035 . S
O39 C41 1.258 . S
C40 O34 1.247 . S
C40 O35 1.258 . S
C41 O38 1.247 . S
C41 O39 1.258 . S
C42 O44 1.247 . S
C42 O46 1.258 . S
C43 O50 1.247 . S
C43 O51 1.258 . S
O44 C42 1.247 . S
O44 Zn45 2.028 . S
Zn45 O44 2.028 . S
Zn45 O49 2.035 . S
Zn45 O51 2.035 . S
Zn45 O52 2.028 . S
O46 C42 1.258 . S
O46 Zn47 2.035 . S
Zn47 O46 2.035 . S
Zn47 O48 2.028 . S
Zn47 O50 2.028 . S
Zn47 O53 2.035 . S
O48 Zn47 2.028 . S
O48 C54 1.247 . S
O49 Zn45 2.035 . S
O49 C54 1.258 . S
O50 C43 1.247 . S
O50 Zn47 2.028 . S
O51 C43 1.258 . S
O51 Zn45 2.035 . S
O52 Zn45 2.028 . S
O52 C55 1.247 . S
O53 Zn47 2.035 . S
O53 C55 1.258 . S
C54 O48 1.247 . S
C54 O49 1.258 . S
C55 O52 1.247 . S
C55 O53 1.258 . S
C56 O58 1.247 . S
C56 O60 1.258 . S
C57 O64 1.247 . S
C57 O65 1.258 . S
O58 C56 1.247 . S
O58 Zn59 2.028 . S
Zn59 O58 2.028 . S
Zn59 O63 2.035 . S
Zn59 O65 2.035 . S
Zn59 O66 2.028 . S
O60 C56 1.258 . S
O60 Zn61 2.035 . S
Zn61 O60 2.035 . S
Zn61 O62 2.028 . S
Zn61 O64 2.028 . S
Zn61 O67 2.035 . S
O62 Zn61 2.028 . S
O62 C68 1.247 . S
O63 Zn59 2.035 . S
O63 C68 1.258 . S
O64 C57 1.247 . S
O64 Zn61 2.028 . S
O65 C57 1.258 . S
O65 Zn59 2.035 . S
O66 Zn59 2.028 . S
O66 C69 1.247 . S
O67 Zn61 2.035 . S
O67 C69 1.258 . S
C68 O62 1.247 . S
C68 O63 1.258 . S
C69 O66 1.247 . S
C69 O67 1.258 . S
C70 O72 1.247 . S
C70 O74 1.258 . S
C71 O78 1.247 . S
C71 O79 1.258 . S
O72 C70 1.247 . S
O72 Zn73 2.028 . S
Zn73 O72 2.028 . S
Zn73 O77 2.035 . S
Zn73 O79 2.035 . S
Zn73 O80 2.028 . S
O74 C70 1.258 . S
O74 Zn75 2.035 . S
Zn75 O74 2.035 . S
Zn75 O76 2.028 . S
Zn75 O78 2.028 . S
Zn75 O81 2.035 . S
O76 Zn75 2.028 . S
O76 C82 1.247 . S
O77 Zn73 2.035 . S
O77 C82 1.258 . S
O78 C71 1.247 . S
O78 Zn75 2.028 . S
O79 C71 1.258 . S
O79 Zn73 2.035 . S
O80 Zn73 2.028 . S
O80 C83 1.247 . S
O81 Zn75 2.035 . S
O81 C83 1.258 . S
C82 O76 1.247 . S
C82 O77 1.258 . S
C83 O80 1.247 . S
C83 O81 1.258 . S
C84 O86 1.247 . S
C84 O88 1.258 . S
C85 O92 1.247 . S
C85 O93 1.258 . S
O86 C84 1.247 . S
O86 Zn87 2.028 . S
Zn87 O86 2.028 . S
Zn87 O91 2.035 . S
Zn87 O93 2.035 . S
Zn87 O94 2.028 . S
O88 C84 1.258 . S
O88 Zn89 2.035 . S
Zn89 O88 2.035 . S
Zn89 O90 2.028 . S
Zn89 O92 2.028 . S
Zn89 O95 2.035 . S
O90 Zn89 2.028 . S
O90 C96 1.247 . S
O91 Zn87 2.035 . S
O91 C96 1.258 . S
O92 C85 1.247 . S
O92 Zn89 2.028 . S
O93 C85 1.258 . S
O93 Zn87 2.035 . S
O94 Zn87 2.028 . S
O94 C97 1.247 . S
O95 Zn89 2.035 . S
O95 C97 1.258 . S
C96 O90 1.247 . S
C96 O91 1.258 . S
C97 O94 1.247 . S
C97 O95 1.258 . S
C98 O100 1.247 . S
C98 O102 1.258 . S
C99 O106 1.247 . S
C99 O107 1.258 . S
O100 C98 1.247 . S
O100 Zn101 2.028 . S
Zn101 O100 2.028 . S
Zn101 O105 2.035 . S
Zn101 O107 2.035 . S
Zn101 O108 2.028 . S
O102 C98 1.258 . S
O102 Zn103 2.035 . S
Zn103 O102 2.035 . S
Zn103 O104 2.028 . S
Zn103 O106 2.028 . S
Zn103 O109 2.035 . S
O104 Zn103 2.028 . S
O104 C110 1.247 . S
O105 Zn101 2.035 . S
O105 C110 1.258 . S
O106 C99 1.247 . S
O106 Zn103 2.028 . S
O107 C99 1.258 . S
O107 Zn101 2.035 . S
O108 Zn101 2.028 . S
O108 C111 1.247 . S
O109 Zn103 2.035 . S
O109 C111 1.258 . S
C110 O104 1.247 . S
C110 O105 1.258 . S
C111 O108 1.247 . S
C111 O109 1.258 . S
C112 O114 1.247 . S
C112 O116 1.258 . S
C113 O120 1.247 . S
C113 O121 1.258 . S
O114 C112 1.247 . S
O114 Zn115 2.028 . S
Zn115 O114 2.028 . S
Zn115 O119 2.035 . S
Zn115 O121 2.035 . S
Zn115 O122 2.028 . S
O116 C112 1.258 . S
O116 Zn117 2.035 . S
Zn117 O116 2.035 . S
Zn117 O118 2.028 . S
Zn117 O120 2.028 . S
Zn117 O123 2.035 . S
O118 Zn117 2.028 . S
O118 C124 1.247 . S
O119 Zn115 2.035 . S
O119 C124 1.258 . S
O120 C113 1.247 . S
O120 Zn117 2.028 . S
O121 C113 1.258 . S
O121 Zn115 2.035 . S
O122 Zn115 2.028 . S
O122 C125 1.247 . S
O123 Zn117 2.035 . S
O123 C125 1.258 . S
C124 O118 1.247 . S
C124 O119 1.258 . S
C125 O122 1.247 . S
C125 O123 1.258 . S
C126 O128 1.247 . S
C126 O130 1.258 . S
C127 O134 1.247 . S
C127 O135 1.258 . S
O128 C126 1.247 . S
O128 Zn129 2.028 . S
Zn129 O128 2.028 . S
Zn129 O133 2.035 . S
Zn129 O135 2.035 . S
Zn129 O136 2.028 . S
O130 C126 1.258 . S
O130 Zn131 2.035 . S
Zn131 O130 2.035 . S
Zn131 O132 2.028 . S
Zn131 O134 2.028 . S
Zn131 O137 2.035 . S
O132 Zn131 2.028 . S
O132 C138 1.247 . S
O133 Zn129 2.035 . S
O133 C138 1.258 . S
O134 C127 1.247 . S
O134 Zn131 2.028 . S
O135 C127 1.258 . S
O135 Zn129 2.035 . S
O136 Zn129 2.028 . S
O136 C139 1.247 . S
O137 Zn131 2.035 . S
O137 C139 1.258 . S
C138 O132 1.247 . S
C138 O133 1.258 . S
C139 O136 1.247 . S
C139 O137 1.258 . S
C140 O142 1.247 . S
C140 O144 1.258 . S
C141 O148 1.247 . S
C141 O149 1.258 . S
O142 C140 1.247 . S
O142 Zn143 2.028 . S
Zn143 O142 2.028 . S
Zn143 O147 2.035 . S
Zn143 O149 2.035 . S
Zn143 O150 2.028 . S
O144 C140 1.258 . S
O144 Zn145 2.035 . S
Zn145 O144 2.035 . S
Zn145 O146 2.028 . S
Zn145 O148 2.028 . S
Zn145 O151 2.035 . S
O146 Zn145 2.028 . S
O146 C152 1.247 . S
O147 Zn143 2.035 . S
O147 C152 1.258 . S
O148 C141 1.247 . S
O148 Zn145 2.028 . S
O149 C141 1.258 . S
O149 Zn143 2.035 . S
O150 Zn143 2.028 . S
O150 C153 1.247 . S
O151 Zn145 2.035 . S
O151 C153 1.258 . S
C152 O146 1.247 . S
C152 O147 1.258 . S
C153 O150 1.247 . S
C153 O151 1.258 . S
C154 O156 1.247 . S
C154 O158 1.258 . S
C155 O162 1.247 . S
C155 O163 1.258 . S
O156 C154 1.247 . S
O156 Zn157 2.028 . S
Zn157 O156 2.028 . S
Zn157 O161 2.035 . S
Zn157 O163 2.035 . S
Zn157 O164 2.028 . S
O158 C154 1.258 . S
O158 Zn159 2.035 . S
Zn159 O158 2.035 . S
Zn159 O160 2.028 . S
Zn159 O162 2.028 . S
Zn159 O165 2.035 . S
O160 Zn159 2.028 . S
O160 C166 1.247 . S
O161 Zn157 2.035 . S
O161 C166 1.258 . S
O162 C155 1.247 . S
O162 Zn159 2.028 . S
O163 C155 1.258 . S
O163 Zn157 2.035 . S
O164 Zn157 2.028 . S
O164 C167 1.247 . S
O165 Zn159 2.035 . S
O165 C167 1.258 . S
C166 O160 1.247 . S
C166 O161 1.258 . S
C167 O164 1.247 . S
C167 O165 1.258 . S
H168 C174 0.930 . S
H169 C178 0.930 . S
H170 C183 0.929 . S
H171 C181 0.929 . S
H172 C176 0.929 . S
H173 C182 0.929 . S
C174 H168 0.930 . S
C174 C175 1.367 . S
C174 C182 1.378 . S
C175 C174 1.367 . S
C175 C183 1.433 . S
C176 H172 0.929 . S
C176 C178 1.378 . S
C176 C180 1.350 . S
C177 C180 1.463 1_556 S
C177 C182 1.350 . S
C177 N185 1.427 . S
C178 H169 0.930 . S
C178 C176 1.378 . S
C178 C179 1.367 . S
C179 C178 1.367 . S
C179 C181 1.433 . S
C180 C176 1.350 . S
C180 C177 1.463 1_554 S
C180 N184 1.427 . S
C181 H171 0.929 . S
C181 C179 1.433 . S
C181 N184 1.384 . S
C182 H173 0.929 . S
C182 C174 1.378 . S
C182 C177 1.350 . S
C183 H170 0.929 . S
C183 C175 1.433 . S
C183 N185 1.384 . S
N184 C180 1.427 . S
N184 C181 1.384 . S
N185 C177 1.427 . S
N185 C183 1.384 . S
H186 C192 0.930 . S
H187 C196 0.930 . S
H188 C201 0.929 . S
H189 C199 0.929 . S
H190 C194 0.929 . S
H191 C200 0.929 . S
C192 H186 0.930 . S
C192 C193 1.367 . S
C192 C200 1.378 . S
C193 C192 1.367 . S
C193 C201 1.433 . S
C194 H190 0.929 . S
C194 C196 1.378 . S
C194 C198 1.350 . S
C195 C198 1.463 . S
C195 C200 1.350 . S
C195 N203 1.427 . S
C196 H187 0.930 . S
C196 C194 1.378 . S
C196 C197 1.367 . S
C197 C196 1.367 . S
C197 C199 1.433 . S
C198 C194 1.350 . S
C198 C195 1.463 . S
C198 N202 1.427 . S
C199 H189 0.929 . S
C199 C197 1.433 . S
C199 N202 1.384 . S
C200 H191 0.929 . S
C200 C192 1.378 . S
C200 C195 1.350 . S
C201 H188 0.929 . S
C201 C193 1.433 . S
C201 N203 1.384 . S
N202 C198 1.427 . S
N202 C199 1.384 . S
N203 C195 1.427 . S
N203 C201 1.384 . S
H204 C210 0.930 . S
H205 C214 0.930 . S
H206 C219 0.929 . S
H207 C217 0.929 . S
H208 C212 0.929 . S
H209 C218 0.929 . S
C210 H204 0.930 . S
C210 C211 1.367 . S
C210 C218 1.378 . S
C211 C210 1.367 . S
C211 C219 1.433 . S
C212 H208 0.929 . S
C212 C214 1.378 . S
C212 C216 1.350 . S
C213 C216 1.463 . S
C213 C218 1.350 . S
C213 N221 1.427 . S
C214 H205 0.930 . S
C214 C212 1.378 . S
C214 C215 1.367 . S
C215 C214 1.367 . S
C215 C217 1.433 . S
C216 C212 1.350 . S
C216 C213 1.463 . S
C216 N220 1.427 . S
C217 H207 0.929 . S
C217 C215 1.433 . S
C217 N220 1.384 . S
C218 H209 0.929 . S
C218 C210 1.378 . S
C218 C213 1.350 . S
C219 H206 0.929 . S
C219 C211 1.433 . S
C219 N221 1.384 . S
N220 C216 1.427 . S
N220 C217 1.384 . S
N221 C213 1.427 . S
N221 C219 1.384 . S
H222 C228 0.930 . S
H223 C232 0.930 . S
H224 C237 0.929 . S
H225 C235 0.929 . S
H226 C230 0.929 . S
H227 C236 0.929 . S
C228 H222 0.930 . S
C228 C229 1.367 . S
C228 C236 1.378 . S
C229 C228 1.367 . S
C229 C237 1.433 . S
C230 H226 0.929 . S
C230 C232 1.378 . S
C230 C234 1.350 . S
C231 C234 1.463 1_554 S
C231 C236 1.350 . S
C231 N239 1.427 . S
C232 H223 0.930 . S
C232 C230 1.378 . S
C232 C233 1.367 . S
C233 C232 1.367 . S
C233 C235 1.433 . S
C234 C230 1.350 . S
C234 C231 1.463 1_556 S
C234 N238 1.427 . S
C235 H225 0.929 . S
C235 C233 1.433 . S
C235 N238 1.384 . S
C236 H227 0.929 . S
C236 C228 1.378 . S
C236 C231 1.350 . S
C237 H224 0.929 . S
C237 C229 1.433 . S
C237 N239 1.384 . S
N238 C234 1.427 . S
N238 C235 1.384 . S
N239 C231 1.427 . S
N239 C237 1.384 . S
H240 C246 0.930 . S
H241 C250 0.930 . S
H242 C255 0.929 . S
H243 C253 0.929 . S
H244 C248 0.929 . S
H245 C254 0.929 . S
C246 H240 0.930 . S
C246 C247 1.367 . S
C246 C254 1.378 . S
C247 C246 1.367 . S
C247 C255 1.433 . S
C248 H244 0.929 . S
C248 C250 1.378 . S
C248 C252 1.350 . S
C249 C252 1.463 . S
C249 C254 1.350 . S
C249 N257 1.427 . S
C250 H241 0.930 . S
C250 C248 1.378 . S
C250 C251 1.367 . S
C251 C250 1.367 . S
C251 C253 1.433 . S
C252 C248 1.350 . S
C252 C249 1.463 . S
C252 N256 1.427 . S
C253 H243 0.929 . S
C253 C251 1.433 . S
C253 N256 1.384 . S
C254 H245 0.929 . S
C254 C246 1.378 . S
C254 C249 1.350 . S
C255 H242 0.929 . S
C255 C247 1.433 . S
C255 N257 1.384 . S
N256 C252 1.427 . S
N256 C253 1.384 . S
N257 C249 1.427 . S
N257 C255 1.384 . S
H258 C264 0.930 . S
H259 C268 0.930 . S
H260 C273 0.929 . S
H261 C271 0.929 . S
H262 C266 0.929 . S
H263 C272 0.929 . S
C264 H258 0.930 . S
C264 C265 1.367 . S
C264 C272 1.378 . S
C265 C264 1.367 . S
C265 C273 1.433 . S
C266 H262 0.929 . S
C266 C268 1.378 . S
C266 C270 1.350 . S
C267 C270 1.463 . S
C267 C272 1.350 . S
C267 N275 1.427 . S
C268 H259 0.930 . S
C268 C266 1.378 . S
C268 C269 1.367 . S
C269 C268 1.367 . S
C269 C271 1.433 . S
C270 C266 1.350 . S
C270 C267 1.463 . S
C270 N274 1.427 . S
C271 H261 0.929 . S
C271 C269 1.433 . S
C271 N274 1.384 . S
C272 H263 0.929 . S
C272 C264 1.378 . S
C272 C267 1.350 . S
C273 H260 0.929 . S
C273 C265 1.433 . S
C273 N275 1.384 . S
N274 C270 1.427 . S
N274 C271 1.384 . S
N275 C267 1.427 . S
N275 C273 1.384 . S
H276 C282 0.930 . S
H277 C286 0.930 . S
H278 C291 0.929 . S
H279 C289 0.929 . S
H280 C284 0.929 . S
H281 C290 0.929 . S
C282 H276 0.930 . S
C282 C283 1.367 . S
C282 C290 1.378 . S
C283 C282 1.367 . S
C283 C291 1.433 . S
C284 H280 0.929 . S
C284 C286 1.378 . S
C284 C288 1.350 . S
C285 C288 1.463 . S
C285 C290 1.350 . S
C285 N293 1.427 . S
C286 H277 0.930 . S
C286 C284 1.378 . S
C286 C287 1.367 . S
C287 C286 1.367 . S
C287 C289 1.433 . S
C288 C284 1.350 . S
C288 C285 1.463 . S
C288 N292 1.427 . S
C289 H279 0.929 . S
C289 C287 1.433 . S
C289 N292 1.384 . S
C290 H281 0.929 . S
C290 C282 1.378 . S
C290 C285 1.350 . S
C291 H278 0.929 . S
C291 C283 1.433 . S
C291 N293 1.384 . S
N292 C288 1.427 . S
N292 C289 1.384 . S
N293 C285 1.427 . S
N293 C291 1.384 . S
H294 C300 0.930 . S
H295 C304 0.930 . S
H296 C309 0.929 . S
H297 C307 0.929 . S
H298 C302 0.929 . S
H299 C308 0.929 . S
C300 H294 0.930 . S
C300 C301 1.367 . S
C300 C308 1.378 . S
C301 C300 1.367 . S
C301 C309 1.433 . S
C302 H298 0.929 . S
C302 C304 1.378 . S
C302 C306 1.350 . S
C303 C306 1.463 . S
C303 C308 1.350 . S
C303 N311 1.427 . S
C304 H295 0.930 . S
C304 C302 1.378 . S
C304 C305 1.367 . S
C305 C304 1.367 . S
C305 C307 1.433 . S
C306 C302 1.350 . S
C306 C303 1.463 . S
C306 N310 1.427 . S
C307 H297 0.929 . S
C307 C305 1.433 . S
C307 N310 1.384 . S
C308 H299 0.929 . S
C308 C300 1.378 . S
C308 C303 1.350 . S
C309 H296 0.929 . S
C309 C301 1.433 . S
C309 N311 1.384 . S
N310 C306 1.427 . S
N310 C307 1.384 . S
N311 C303 1.427 . S
N311 C309 1.384 . S
H312 C318 0.930 . S
H313 C322 0.930 . S
H314 C327 0.929 . S
H315 C325 0.929 . S
H316 C320 0.929 . S
H317 C326 0.929 . S
C318 H312 0.930 . S
C318 C319 1.367 . S
C318 C326 1.378 . S
C319 C318 1.367 . S
C319 C327 1.433 . S
C320 H316 0.929 . S
C320 C322 1.378 . S
C320 C324 1.350 . S
C321 C324 1.463 . S
C321 C326 1.350 . S
C321 N329 1.427 . S
C322 H313 0.930 . S
C322 C320 1.378 . S
C322 C323 1.367 . S
C323 C322 1.367 . S
C323 C325 1.433 . S
C324 C320 1.350 . S
C324 C321 1.463 . S
C324 N328 1.427 . S
C325 H315 0.929 . S
C325 C323 1.433 . S
C325 N328 1.384 . S
C326 H317 0.929 . S
C326 C318 1.378 . S
C326 C321 1.350 . S
C327 H314 0.929 . S
C327 C319 1.433 . S
C327 N329 1.384 . S
N328 C324 1.427 . S
N328 C325 1.384 . S
N329 C321 1.427 . S
N329 C327 1.384 . S
H330 C336 0.930 . S
H331 C340 0.930 . S
H332 C345 0.929 . S
H333 C343 0.929 . S
H334 C338 0.929 . S
H335 C344 0.929 . S
C336 H330 0.930 . S
C336 C337 1.367 . S
C336 C344 1.378 . S
C337 C336 1.367 . S
C337 C345 1.433 . S
C338 H334 0.929 . S
C338 C340 1.378 . S
C338 C342 1.350 . S
C339 C342 1.463 . S
C339 C344 1.350 . S
C339 N347 1.427 . S
C340 H331 0.930 . S
C340 C338 1.378 . S
C340 C341 1.367 . S
C341 C340 1.367 . S
C341 C343 1.433 . S
C342 C338 1.350 . S
C342 C339 1.463 . S
C342 N346 1.427 . S
C343 H333 0.929 . S
C343 C341 1.433 . S
C343 N346 1.384 . S
C344 H335 0.929 . S
C344 C336 1.378 . S
C344 C339 1.350 . S
C345 H332 0.929 . S
C345 C337 1.433 . S
C345 N347 1.384 . S
N346 C342 1.427 . S
N346 C343 1.384 . S
N347 C339 1.427 . S
N347 C345 1.384 . S
H348 C354 0.930 . S
H349 C358 0.930 . S
H350 C363 0.929 . S
H351 C361 0.929 . S
H352 C356 0.929 . S
H353 C362 0.929 . S
C354 H348 0.930 . S
C354 C355 1.367 . S
C354 C362 1.378 . S
C355 C354 1.367 . S
C355 C363 1.433 . S
C356 H352 0.929 . S
C356 C358 1.378 . S
C356 C360 1.350 . S
C357 C360 1.463 . S
C357 C362 1.350 . S
C357 N365 1.427 . S
C358 H349 0.930 . S
C358 C356 1.378 . S
C358 C359 1.367 . S
C359 C358 1.367 . S
C359 C361 1.433 . S
C360 C356 1.350 . S
C360 C357 1.463 . S
C360 N364 1.427 . S
C361 H351 0.929 . S
C361 C359 1.433 . S
C361 N364 1.384 . S
C362 H353 0.929 . S
C362 C354 1.378 . S
C362 C357 1.350 . S
C363 H350 0.929 . S
C363 C355 1.433 . S
C363 N365 1.384 . S
N364 C360 1.427 . S
N364 C361 1.384 . S
N365 C357 1.427 . S
N365 C363 1.384 . S
H366 C372 0.930 . S
H367 C376 0.930 . S
H368 C381 0.929 . S
H369 C379 0.929 . S
H370 C374 0.929 . S
H371 C380 0.929 . S
C372 H366 0.930 . S
C372 C373 1.367 . S
C372 C380 1.378 . S
C373 C372 1.367 . S
C373 C381 1.433 . S
C374 H370 0.929 . S
C374 C376 1.378 . S
C374 C378 1.350 . S
C375 C378 1.463 . S
C375 C380 1.350 . S
C375 N383 1.427 . S
C376 H367 0.930 . S
C376 C374 1.378 . S
C376 C377 1.367 . S
C377 C376 1.367 . S
C377 C379 1.433 . S
C378 C374 1.350 . S
C378 C375 1.463 . S
C378 N382 1.427 . S
C379 H369 0.929 . S
C379 C377 1.433 . S
C379 N382 1.384 . S
C380 H371 0.929 . S
C380 C372 1.378 . S
C380 C375 1.350 . S
C381 H368 0.929 . S
C381 C373 1.433 . S
C381 N383 1.384 . S
N382 C378 1.427 . S
N382 C379 1.384 . S
N383 C375 1.427 . S
N383 C381 1.384 . S
H384 C390 0.930 . S
H385 C394 0.930 . S
H386 C399 0.929 . S
H387 C397 0.929 . S
H388 C392 0.929 . S
H389 C398 0.929 . S
C390 H384 0.930 . S
C390 C391 1.367 . S
C390 C398 1.378 . S
C391 C390 1.367 . S
C391 C399 1.433 . S
C392 H388 0.929 . S
C392 C394 1.378 . S
C392 C396 1.350 . S
C393 C396 1.463 1_655 S
C393 C398 1.350 . S
C393 N401 1.427 . S
C394 H385 0.930 . S
C394 C392 1.378 . S
C394 C395 1.367 . S
C395 C394 1.367 . S
C395 C397 1.433 . S
C396 C392 1.350 . S
C396 C393 1.463 1_455 S
C396 N400 1.427 . S
C397 H387 0.929 . S
C397 C395 1.433 . S
C397 N400 1.384 . S
C398 H389 0.929 . S
C398 C390 1.378 . S
C398 C393 1.350 . S
C399 H386 0.929 . S
C399 C391 1.433 . S
C399 N401 1.384 . S
N400 C396 1.427 . S
N400 C397 1.384 . S
N401 C393 1.427 . S
N401 C399 1.384 . S
H402 C408 0.930 . S
H403 C412 0.930 . S
H404 C417 0.929 . S
H405 C415 0.929 . S
H406 C410 0.929 . S
H407 C416 0.929 . S
C408 H402 0.930 . S
C408 C409 1.367 . S
C408 C416 1.378 . S
C409 C408 1.367 . S
C409 C417 1.433 . S
C410 H406 0.929 . S
C410 C412 1.378 . S
C410 C414 1.350 . S
C411 C414 1.463 1_545 S
C411 C416 1.350 . S
C411 N419 1.427 . S
C412 H403 0.930 . S
C412 C410 1.378 . S
C412 C413 1.367 . S
C413 C412 1.367 . S
C413 C415 1.433 . S
C414 C410 1.350 . S
C414 C411 1.463 1_565 S
C414 N418 1.427 . S
C415 H405 0.929 . S
C415 C413 1.433 . S
C415 N418 1.384 . S
C416 H407 0.929 . S
C416 C408 1.378 . S
C416 C411 1.350 . S
C417 H404 0.929 . S
C417 C409 1.433 . S
C417 N419 1.384 . S
N418 C414 1.427 . S
N418 C415 1.384 . S
N419 C411 1.427 . S
N419 C417 1.384 . S
H420 C426 0.930 . S
H421 C430 0.930 . S
H422 C435 0.929 . S
H423 C433 0.929 . S
H424 C428 0.929 . S
H425 C434 0.929 . S
C426 H420 0.930 . S
C426 C427 1.367 . S
C426 C434 1.378 . S
C427 C426 1.367 . S
C427 C435 1.433 . S
C428 H424 0.929 . S
C428 C430 1.378 . S
C428 C432 1.350 . S
C429 C432 1.463 . S
C429 C434 1.350 . S
C429 N437 1.427 . S
C430 H421 0.930 . S
C430 C428 1.378 . S
C430 C431 1.367 . S
C431 C430 1.367 . S
C431 C433 1.433 . S
C432 C428 1.350 . S
C432 C429 1.463 . S
C432 N436 1.427 . S
C433 H423 0.929 . S
C433 C431 1.433 . S
C433 N436 1.384 . S
C434 H425 0.929 . S
C434 C426 1.378 . S
C434 C429 1.350 . S
C435 H422 0.929 . S
C435 C427 1.433 . S
C435 N437 1.384 . S
N436 C432 1.427 . S
N436 C433 1.384 . S
N437 C429 1.427 . S
N437 C435 1.384 . S
H438 C444 0.930 . S
H439 C448 0.930 . S
H440 C453 0.929 . S
H441 C451 0.929 . S
H442 C446 0.929 . S
H443 C452 0.929 . S
C444 H438 0.930 . S
C444 C445 1.367 . S
C444 C452 1.378 . S
C445 C444 1.367 . S
C445 C453 1.433 . S
C446 H442 0.929 . S
C446 C448 1.378 . S
C446 C450 1.350 . S
C447 C450 1.463 1_545 S
C447 C452 1.350 . S
C447 N455 1.427 . S
C448 H439 0.930 . S
C448 C446 1.378 . S
C448 C449 1.367 . S
C449 C448 1.367 . S
C449 C451 1.433 . S
C450 C446 1.350 . S
C450 C447 1.463 1_565 S
C450 N454 1.427 . S
C451 H441 0.929 . S
C451 C449 1.433 . S
C451 N454 1.384 . S
C452 H443 0.929 . S
C452 C444 1.378 . S
C452 C447 1.350 . S
C453 H440 0.929 . S
C453 C445 1.433 . S
C453 N455 1.384 . S
N454 C450 1.427 . S
N454 C451 1.384 . S
N455 C447 1.427 . S
N455 C453 1.384 . S
H456 C462 0.930 . S
H457 C466 0.930 . S
H458 C471 0.929 . S
H459 C469 0.929 . S
H460 C464 0.929 . S
H461 C470 0.929 . S
C462 H456 0.930 . S
C462 C463 1.367 . S
C462 C470 1.378 . S
C463 C462 1.367 . S
C463 C471 1.433 . S
C464 H460 0.929 . S
C464 C466 1.378 . S
C464 C468 1.350 . S
C465 C468 1.463 . S
C465 C470 1.350 . S
C465 N473 1.427 . S
C466 H457 0.930 . S
C466 C464 1.378 . S
C466 C467 1.367 . S
C467 C466 1.367 . S
C467 C469 1.433 . S
C468 C464 1.350 . S
C468 C465 1.463 . S
C468 N472 1.427 . S
C469 H459 0.929 . S
C469 C467 1.433 . S
C469 N472 1.384 . S
C470 H461 0.929 . S
C470 C462 1.378 . S
C470 C465 1.350 . S
C471 H458 0.929 . S
C471 C463 1.433 . S
C471 N473 1.384 . S
N472 C468 1.427 . S
N472 C469 1.384 . S
N473 C465 1.427 . S
N473 C471 1.384 . S
H474 C480 0.930 . S
H475 C484 0.930 . S
H476 C489 0.929 . S
H477 C487 0.929 . S
H478 C482 0.929 . S
H479 C488 0.929 . S
C480 H474 0.930 . S
C480 C481 1.367 . S
C480 C488 1.378 . S
C481 C480 1.367 . S
C481 C489 1.433 . S
C482 H478 0.929 . S
C482 C484 1.378 . S
C482 C486 1.350 . S
C483 C486 1.463 1_455 S
C483 C488 1.350 . S
C483 N491 1.427 . S
C484 H475 0.930 . S
C484 C482 1.378 . S
C484 C485 1.367 . S
C485 C484 1.367 . S
C485 C487 1.433 . S
C486 C482 1.350 . S
C486 C483 1.463 1_655 S
C486 N490 1.427 . S
C487 H477 0.929 . S
C487 C485 1.433 . S
C487 N490 1.384 . S
C488 H479 0.929 . S
C488 C480 1.378 . S
C488 C483 1.350 . S
C489 H476 0.929 . S
C489 C481 1.433 . S
C489 N491 1.384 . S
N490 C486 1.427 . S
N490 C487 1.384 . S
N491 C483 1.427 . S
N491 C489 1.384 . S
H492 C498 0.930 . S
H493 C502 0.930 . S
H494 C507 0.929 . S
H495 C505 0.929 . S
H496 C500 0.929 . S
H497 C506 0.929 . S
C498 H492 0.930 . S
C498 C499 1.367 . S
C498 C506 1.378 . S
C499 C498 1.367 . S
C499 C507 1.433 . S
C500 H496 0.929 . S
C500 C502 1.378 . S
C500 C504 1.350 . S
C501 C504 1.463 . S
C501 C506 1.350 . S
C501 N509 1.427 . S
C502 H493 0.930 . S
C502 C500 1.378 . S
C502 C503 1.367 . S
C503 C502 1.367 . S
C503 C505 1.433 . S
C504 C500 1.350 . S
C504 C501 1.463 . S
C504 N508 1.427 . S
C505 H495 0.929 . S
C505 C503 1.433 . S
C505 N508 1.384 . S
C506 H497 0.929 . S
C506 C498 1.378 . S
C506 C501 1.350 . S
C507 H494 0.929 . S
C507 C499 1.433 . S
C507 N509 1.384 . S
N508 C504 1.427 . S
N508 C505 1.384 . S
N509 C501 1.427 . S
N509 C507 1.384 . S
H510 C516 0.930 . S
H511 C520 0.930 . S
H512 C525 0.929 . S
H513 C523 0.929 . S
H514 C518 0.929 . S
H515 C524 0.929 . S
C516 H510 0.930 . S
C516 C517 1.367 . S
C516 C524 1.378 . S
C517 C516 1.367 . S
C517 C525 1.433 . S
C518 H514 0.929 . S
C518 C520 1.378 . S
C518 C522 1.350 . S
C519 C522 1.463 1_655 S
C519 C524 1.350 . S
C519 N527 1.427 . S
C520 H511 0.930 . S
C520 C518 1.378 . S
C520 C521 1.367 . S
C521 C520 1.367 . S
C521 C523 1.433 . S
C522 C518 1.350 . S
C522 C519 1.463 1_455 S
C522 N526 1.427 . S
C523 H513 0.929 . S
C523 C521 1.433 . S
C523 N526 1.384 . S
C524 H515 0.929 . S
C524 C516 1.378 . S
C524 C519 1.350 . S
C525 H512 0.929 . S
C525 C517 1.433 . S
C525 N527 1.384 . S
N526 C522 1.427 . S
N526 C523 1.384 . S
N527 C519 1.427 . S
N527 C525 1.384 . S
H528 C534 0.930 . S
H529 C538 0.930 . S
H530 C543 0.929 . S
H531 C541 0.929 . S
H532 C536 0.929 . S
H533 C542 0.929 . S
C534 H528 0.930 . S
C534 C535 1.367 . S
C534 C542 1.378 . S
C535 C534 1.367 . S
C535 C543 1.433 . S
C536 H532 0.929 . S
C536 C538 1.378 . S
C536 C540 1.350 . S
C537 C540 1.463 1_545 S
C537 C542 1.350 . S
C537 N545 1.427 . S
C538 H529 0.930 . S
C538 C536 1.378 . S
C538 C539 1.367 . S
C539 C538 1.367 . S
C539 C541 1.433 . S
C540 C536 1.350 . S
C540 C537 1.463 1_565 S
C540 N544 1.427 . S
C541 H531 0.929 . S
C541 C539 1.433 . S
C541 N544 1.384 . S
C542 H533 0.929 . S
C542 C534 1.378 . S
C542 C537 1.350 . S
C543 H530 0.929 . S
C543 C535 1.433 . S
C543 N545 1.384 . S
N544 C540 1.427 . S
N544 C541 1.384 . S
N545 C537 1.427 . S
N545 C543 1.384 . S
H546 C552 0.930 . S
H547 C556 0.930 . S
H548 C561 0.929 . S
H549 C559 0.929 . S
H550 C554 0.929 . S
H551 C560 0.929 . S
C552 H546 0.930 . S
C552 C553 1.367 . S
C552 C560 1.378 . S
C553 C552 1.367 . S
C553 C561 1.433 . S
C554 H550 0.929 . S
C554 C556 1.378 . S
C554 C558 1.350 . S
C555 C558 1.463 . S
C555 C560 1.350 . S
C555 N563 1.427 . S
C556 H547 0.930 . S
C556 C554 1.378 . S
C556 C557 1.367 . S
C557 C556 1.367 . S
C557 C559 1.433 . S
C558 C554 1.350 . S
C558 C555 1.463 . S
C558 N562 1.427 . S
C559 H549 0.929 . S
C559 C557 1.433 . S
C559 N562 1.384 . S
C560 H551 0.929 . S
C560 C552 1.378 . S
C560 C555 1.350 . S
C561 H548 0.929 . S
C561 C553 1.433 . S
C561 N563 1.384 . S
N562 C558 1.427 . S
N562 C559 1.384 . S
N563 C555 1.427 . S
N563 C561 1.384 . S
H564 C570 0.930 . S
H565 C574 0.930 . S
H566 C579 0.929 . S
H567 C577 0.929 . S
H568 C572 0.929 . S
H569 C578 0.929 . S
C570 H564 0.930 . S
C570 C571 1.367 . S
C570 C578 1.378 . S
C571 C570 1.367 . S
C571 C579 1.433 . S
C572 H568 0.929 . S
C572 C574 1.378 . S
C572 C576 1.350 . S
C573 C576 1.463 1_455 S
C573 C578 1.350 . S
C573 N581 1.427 . S
C574 H565 0.930 . S
C574 C572 1.378 . S
C574 C575 1.367 . S
C575 C574 1.367 . S
C575 C577 1.433 . S
C576 C572 1.350 . S
C576 C573 1.463 1_655 S
C576 N580 1.427 . S
C577 H567 0.929 . S
C577 C575 1.433 . S
C577 N580 1.384 . S
C578 H569 0.929 . S
C578 C570 1.378 . S
C578 C573 1.350 . S
C579 H566 0.929 . S
C579 C571 1.433 . S
C579 N581 1.384 . S
N580 C576 1.427 . S
N580 C577 1.384 . S
N581 C573 1.427 . S
N581 C579 1.384 . S
H582 C588 0.930 . S
H583 C592 0.930 . S
H584 C597 0.929 . S
H585 C595 0.929 . S
H586 C590 0.929 . S
H587 C596 0.929 . S
C588 H582 0.930 . S
C588 C589 1.367 . S
C588 C596 1.378 . S
C589 C588 1.367 . S
C589 C597 1.433 . S
C590 H586 0.929 . S
C590 C592 1.378 . S
C590 C594 1.350 . S
C591 C594 1.463 1_565 S
C591 C596 1.350 . S
C591 N599 1.427 . S
C592 H583 0.930 . S
C592 C590 1.378 . S
C592 C593 1.367 . S
C593 C592 1.367 . S
C593 C595 1.433 . S
C594 C590 1.350 . S
C594 C591 1.463 1_545 S
C594 N598 1.427 . S
C595 H585 0.929 . S
C595 C593 1.433 . S
C595 N598 1.384 . S
C596 H587 0.929 . S
C596 C588 1.378 . S
C596 C591 1.350 . S
C597 H584 0.929 . S
C597 C589 1.433 . S
C597 N599 1.384 . S
N598 C594 1.427 . S
N598 C595 1.384 . S
N599 C591 1.427 . S
N599 C597 1.384 . S
C175 C141 1.605 . S
C179 C12 1.601 . S
C193 C15 1.608 . S
C197 C154 1.607 . S
C211 C29 1.607 . S
C215 C96 1.603 . S
C229 C43 1.604 . S
C233 C99 1.607 . S
C247 C112 1.607 . S
C251 C57 1.604 . S
C265 C83 1.608 . S
C269 C126 1.604 . S
C283 C113 1.633 . S
C287 C13 1.634 . S
C301 C14 1.633 . S
C305 C127 1.633 . S
C319 C28 1.627 . S
C323 C140 1.626 . S
C337 C42 1.626 . S
C341 C155 1.629 . S
C355 C97 1.632 . S
C359 C56 1.628 . S
C373 C98 1.633 . S
C377 C82 1.633 . S
C391 C55 1.401 . S
C395 C0 1.397 . S
C409 C27 1.401 . S
C413 C69 1.398 . S
C427 C71 1.401 . S
C431 C41 1.400 . S
C445 C138 1.391 . S
C449 C84 1.390 . S
C463 C153 1.391 . S
C467 C111 1.393 . S
C481 C124 1.392 . S
C485 C166 1.395 . S
C499 C54 1.813 . S
C503 C1 1.813 . S
C517 C26 1.810 . S
C521 C68 1.813 . S
C535 C70 1.812 . S
C539 C40 1.809 . S
C553 C85 1.815 . S
C557 C139 1.813 . S
C571 C152 1.809 . S
C575 C110 1.811 . S
C589 C125 1.816 . S
C593 C167 1.816 . S
