# Generated by pormake.
# Topology fnc, (5)-cn, num edge types: 1
# Building blocks:
#     Node 0, Type 0, BuildingBlock: XOMCOT_clean_sbu_0, # of connection points: 5
#     Node 1, Type 0, BuildingBlock: XOMCOT_clean_sbu_0, # of connection points: 5
#     Node 2, Type 0, BuildingBlock: XOMCOT_clean_sbu_0, # of connection points: 5
#     Node 3, Type 0, BuildingBlock: XOMCOT_clean_sbu_0, # of connection points: 5
#     Node 4, Type 0, BuildingBlock: XOMCOT_clean_sbu_0, # of connection points: 5
#     Node 5, Type 0, BuildingBlock: XOMCOT_clean_sbu_0, # of connection points: 5
#     Node 6, Type 0, BuildingBlock: XOMCOT_clean_sbu_0, # of connection points: 5
#     Node 7, Type 0, BuildingBlock: XOMCOT_clean_sbu_0, # of connection points: 5
#     Node 8, Type 0, BuildingBlock: XOMCOT_clean_sbu_0, # of connection points: 5
#     Node 9, Type 0, BuildingBlock: XOMCOT_clean_sbu_0, # of connection points: 5
#     Node 10, Type 0, BuildingBlock: XOMCOT_clean_sbu_0, # of connection points: 5
#     Node 11, Type 0, BuildingBlock: XOMCOT_clean_sbu_0, # of connection points: 5
#     Node 12, Type 0, BuildingBlock: XOMCOT_clean_sbu_0, # of connection points: 5
#     Node 13, Type 0, BuildingBlock: XOMCOT_clean_sbu_0, # of connection points: 5
#     Node 14, Type 0, BuildingBlock: XOMCOT_clean_sbu_0, # of connection points: 5
#     Node 15, Type 0, BuildingBlock: XOMCOT_clean_sbu_0, # of connection points: 5
#     Node 16, Type 0, BuildingBlock: XOMCOT_clean_sbu_0, # of connection points: 5
#     Node 17, Type 0, BuildingBlock: XOMCOT_clean_sbu_0, # of connection points: 5
#     Edge 18, Type (0, 0), BuildingBlock: CIFDUS_clean_linker_0, # of connection points: 2
#     Edge 19, Type (0, 0), BuildingBlock: CIFDUS_clean_linker_0, # of connection points: 2
#     Edge 20, Type (0, 0), BuildingBlock: CIFDUS_clean_linker_0, # of connection points: 2
#     Edge 21, Type (0, 0), BuildingBlock: CIFDUS_clean_linker_0, # of connection points: 2
#     Edge 22, Type (0, 0), BuildingBlock: CIFDUS_clean_linker_0, # of connection points: 2
#     Edge 23, Type (0, 0), BuildingBlock: CIFDUS_clean_linker_0, # of connection points: 2
#     Edge 24, Type (0, 0), BuildingBlock: CIFDUS_clean_linker_0, # of connection points: 2
#     Edge 25, Type (0, 0), BuildingBlock: CIFDUS_clean_linker_0, # of connection points: 2
#     Edge 26, Type (0, 0), BuildingBlock: CIFDUS_clean_linker_0, # of connection points: 2
#     Edge 27, Type (0, 0), BuildingBlock: CIFDUS_clean_linker_0, # of connection points: 2
#     Edge 28, Type (0, 0), BuildingBlock: CIFDUS_clean_linker_0, # of connection points: 2
#     Edge 29, Type (0, 0), BuildingBlock: CIFDUS_clean_linker_0, # of connection points: 2
#     Edge 30, Type (0, 0), BuildingBlock: CIFDUS_clean_linker_0, # of connection points: 2
#     Edge 31, Type (0, 0), BuildingBlock: CIFDUS_clean_linker_0, # of connection points: 2
#     Edge 32, Type (0, 0), BuildingBlock: CIFDUS_clean_linker_0, # of connection points: 2
#     Edge 33, Type (0, 0), BuildingBlock: CIFDUS_clean_linker_0, # of connection points: 2
#     Edge 34, Type (0, 0), BuildingBlock: CIFDUS_clean_linker_0, # of connection points: 2
#     Edge 35, Type (0, 0), BuildingBlock: CIFDUS_clean_linker_0, # of connection points: 2
#     Edge 36, Type (0, 0), BuildingBlock: CIFDUS_clean_linker_0, # of connection points: 2
#     Edge 37, Type (0, 0), BuildingBlock: CIFDUS_clean_linker_0, # of connection points: 2
#     Edge 38, Type (0, 0), BuildingBlock: CIFDUS_clean_linker_0, # of connection points: 2
#     Edge 39, Type (0, 0), BuildingBlock: CIFDUS_clean_linker_0, # of connection points: 2
#     Edge 40, Type (0, 0), BuildingBlock: CIFDUS_clean_linker_0, # of connection points: 2
#     Edge 41, Type (0, 0), BuildingBlock: CIFDUS_clean_linker_0, # of connection points: 2
#     Edge 42, Type (0, 0), BuildingBlock: CIFDUS_clean_linker_0, # of connection points: 2
#     Edge 43, Type (0, 0), BuildingBlock: CIFDUS_clean_linker_0, # of connection points: 2
#     Edge 44, Type (0, 0), BuildingBlock: CIFDUS_clean_linker_0, # of connection points: 2
#     Edge 45, Type (0, 0), BuildingBlock: CIFDUS_clean_linker_0, # of connection points: 2
#     Edge 46, Type (0, 0), BuildingBlock: CIFDUS_clean_linker_0, # of connection points: 2
#     Edge 47, Type (0, 0), BuildingBlock: CIFDUS_clean_linker_0, # of connection points: 2
#     Edge 48, Type (0, 0), BuildingBlock: CIFDUS_clean_linker_0, # of connection points: 2
#     Edge 49, Type (0, 0), BuildingBlock: CIFDUS_clean_linker_0, # of connection points: 2
#     Edge 50, Type (0, 0), BuildingBlock: CIFDUS_clean_linker_0, # of connection points: 2
#     Edge 51, Type (0, 0), BuildingBlock: CIFDUS_clean_linker_0, # of connection points: 2
#     Edge 52, Type (0, 0), BuildingBlock: CIFDUS_clean_linker_0, # of connection points: 2
#     Edge 53, Type (0, 0), BuildingBlock: CIFDUS_clean_linker_0, # of connection points: 2
#     Edge 54, Type (0, 0), BuildingBlock: CIFDUS_clean_linker_0, # of connection points: 2
#     Edge 55, Type (0, 0), BuildingBlock: CIFDUS_clean_linker_0, # of connection points: 2
#     Edge 56, Type (0, 0), BuildingBlock: CIFDUS_clean_linker_0, # of connection points: 2
#     Edge 57, Type (0, 0), BuildingBlock: CIFDUS_clean_linker_0, # of connection points: 2
#     Edge 58, Type (0, 0), BuildingBlock: CIFDUS_clean_linker_0, # of connection points: 2
#     Edge 59, Type (0, 0), BuildingBlock: CIFDUS_clean_linker_0, # of connection points: 2
#     Edge 60, Type (0, 0), BuildingBlock: CIFDUS_clean_linker_0, # of connection points: 2
#     Edge 61, Type (0, 0), BuildingBlock: CIFDUS_clean_linker_0, # of connection points: 2
#     Edge 62, Type (0, 0), BuildingBlock: CIFDUS_clean_linker_0, # of connection points: 2
# Relax obj value: 0.185
# Max RMSD: 0.313
# Mean RMSD: 0.299
data_MOF--net-fnc--node1-XOMCOT_clean_sbu_0--edge1-CIFDUS_clean_linker_0
_symmetry_space_group_name_H-M    P1
_symmetry_Int_Tables_number       1
_symmetry_cell_setting            triclinic
loop_
_symmetry_equiv_pos_as_xyz
'x, y, z'
_cell_length_a     81.909229
_cell_length_b     91.754789
_cell_length_c     15.789346
_cell_angle_alpha  90.619468
_cell_angle_beta   90.935931
_cell_angle_gamma 122.07466
loop_
_atom_site_label
_atom_site_type_symbol
_atom_site_fract_x
_atom_site_fract_y
_atom_site_fract_z
_atom_type_partial_charge
Co0 Co 0.01305 0.46165 0.02827 0.0
C1 C 0.01445 0.46322 0.8417 0.0
C2 C 0.03336 0.45573 0.89036 0.0
C3 C 0.03336 0.45502 0.80308 0.0
N4 N 0.02182 0.4613 0.91479 0.0
N5 N 0.02131 0.45963 0.77296 0.0
H6 H 0.00343 0.46625 0.83819 0.0
H7 H 0.04032 0.4513 0.93211 0.0
C8 C 0.05367 0.46994 0.07495 0.0
O9 O 0.06243 0.48299 0.02383 0.0
N10 N 0.00422 0.46164 0.1405 0.0
C11 C 0.99305 0.46753 0.16537 0.0
C12 C 0.99291 0.46773 0.25277 0.0
C13 C 0.0105 0.45819 0.21225 0.0
N14 N 0.00414 0.46209 0.28155 0.0
C15 C 0.02126 0.49437 0.97329 0.0
C16 C 0.04636 0.5139 0.10504 0.0
C17 C 0.04097 0.52193 0.04546 0.0
C18 C 0.02843 0.51191 0.97849 0.0
C19 C 0.03896 0.49622 0.09686 0.0
N20 N 0.0267 0.48668 0.03086 0.0
H21 H 0.01031 0.48688 0.9259 0.0
H22 H 0.04237 0.49011 0.14607 0.0
H23 H 0.98636 0.47219 0.12326 0.0
H24 H 0.02003 0.45345 0.2145 0.0
O25 O 0.98844 0.45629 0.98038 0.0
O26 O -0.00442 0.43713 0.01962 0.0
O27 O 0.03538 0.46132 0.07992 0.0
C28 C 0.98309 0.44022 0.98678 0.0
H29 H 0.04065 0.45041 0.765 0.0
H30 H 0.98601 0.47257 0.292 0.0
H31 H 0.05575 0.5211 0.15869 0.0
H32 H 0.02317 0.51734 0.93308 0.0
Co33 Co 0.61683 0.67189 0.03504 0.0
C34 C 0.61561 0.6694 0.21911 0.0
C35 C 0.64461 0.6812 0.17614 0.0
C36 C 0.64502 0.68119 0.26329 0.0
N37 N 0.62616 0.67371 0.14911 0.0
N38 N 0.62676 0.67378 0.29006 0.0
H39 H 0.60018 0.66378 0.21776 0.0
H40 H 0.65691 0.68668 0.13557 0.0
C41 C 0.6385 0.6581 0.94259 0.0
O42 O 0.623 0.64602 0.90141 0.0
N43 N 0.60773 0.67049 0.91953 0.0
C44 C 0.58997 0.66603 0.89139 0.0
C45 C 0.59005 0.66724 0.80476 0.0
C46 C 0.61856 0.67524 0.84989 0.0
N47 N 0.60802 0.67297 0.77894 0.0
C48 C 0.57925 0.64159 0.05289 0.0
C49 C 0.59144 0.6192 0.08325 0.0
C50 C 0.57164 0.61268 0.07649 0.0
C51 C 0.56559 0.62417 0.06297 0.0
C52 C 0.6046 0.63671 0.07171 0.0
N53 N 0.59844 0.6475 0.05141 0.0
H54 H 0.57434 0.65035 0.04868 0.0
H55 H 0.61976 0.64159 0.08052 0.0
H56 H 0.57785 0.66277 0.93013 0.0
H57 H 0.63385 0.68026 0.85092 0.0
O58 O 0.60183 0.6813 0.0727 0.0
O59 O 0.63196 0.69649 0.02932 0.0
O60 O 0.63747 0.66807 0.99612 0.0
C61 C 0.61736 0.69632 0.06148 0.0
H62 H 0.65781 0.68633 0.30355 0.0
H63 H 0.57794 0.66455 0.76414 0.0
H64 H 0.59671 0.61082 0.09646 0.0
H65 H 0.55042 0.61978 0.0619 0.0
Co66 Co 0.43803 0.09016 0.11433 0.0
C67 C 0.43864 0.08665 0.92863 0.0
C68 C 0.40976 0.07324 0.97288 0.0
C69 C 0.40908 0.07242 0.88552 0.0
N70 N 0.42834 0.08188 0.99988 0.0
N71 N 0.42732 0.08091 0.85783 0.0
H72 H 0.45406 0.0952 0.92797 0.0
H73 H 0.39755 0.06844 0.01374 0.0
C74 C 0.4087 0.05155 0.1366 0.0
O75 O 0.41197 0.04654 0.06404 0.0
N76 N 0.4475 0.0985 0.22822 0.0
C77 C 0.46589 0.10879 0.25606 0.0
C78 C 0.46613 0.10966 0.34344 0.0
C79 C 0.43685 0.09351 0.29825 0.0
N80 N 0.44781 0.09997 0.36972 0.0
C81 C 0.4744 0.09645 0.06161 0.0
C82 C 0.47164 0.06773 0.13063 0.0
C83 C 0.48821 0.07921 0.08655 0.0
C84 C 0.48951 0.09378 0.05233 0.0
C85 C 0.45683 0.07092 0.13871 0.0
N86 N 0.45801 0.08486 0.10188 0.0
H87 H 0.47607 0.10804 0.03666 0.0
H88 H 0.44484 0.06237 0.17694 0.0
H89 H 0.47828 0.11485 0.21604 0.0
H90 H 0.42143 0.08483 0.29702 0.0
O91 O 0.45137 0.11356 0.07322 0.0
O92 O 0.42163 0.09919 0.12125 0.0
O93 O 0.41889 0.06723 0.16217 0.0
C94 C 0.43556 0.11312 0.089 0.0
H95 H 0.39615 0.06637 0.84582 0.0
H96 H 0.47882 0.11674 0.3843 0.0
H97 H 0.47034 0.0566 0.1606 0.0
H98 H 0.50209 0.10307 0.01824 0.0
Co99 Co 0.04481 0.66126 0.00951 0.0
C100 C 0.04112 0.65856 0.20071 0.0
C101 C 0.01692 0.65709 0.13809 0.0
C102 C 0.01507 0.65795 0.22416 0.0
N103 N 0.03305 0.65708 0.12213 0.0
N104 N 0.03034 0.65902 0.26411 0.0
H105 H 0.0554 0.66097 0.21163 0.0
H106 H 0.00776 0.6578 0.0905 0.0
C107 C 0.00255 0.63588 0.9614 0.0
O108 O -0.00053 0.626 0.02641 0.0
N109 N 0.0564 0.6658 0.89769 0.0
C110 C 0.07347 0.66765 0.88125 0.0
C111 C 0.07539 0.66741 0.79474 0.0
C112 C 0.04825 0.66467 0.82 0.0
N113 N 0.05951 0.66542 0.7558 0.0
C114 C 0.05582 0.63835 0.07232 0.0
C115 C 0.0378 0.61374 0.94421 0.0
C116 C 0.04855 0.61151 1.00691 0.0
C117 C 0.05758 0.62402 0.07177 0.0
C118 C 0.03635 0.62821 0.94735 0.0
N119 N 0.04493 0.64013 0.01194 0.0
H120 H 0.06391 0.64834 0.11939 0.0
H121 H 0.02887 0.63006 0.89583 0.0
H122 H 0.08342 0.66818 0.92893 0.0
H123 H 0.03396 0.66237 0.81034 0.0
O124 O 0.0697 0.67695 0.06299 0.0
O125 O 0.04912 0.68395 0.01579 0.0
O126 O 0.01891 0.64954 0.95041 0.0
C127 C 0.0653 0.68858 0.05509 0.0
H128 H 0.00371 0.65858 0.25475 0.0
H129 H 0.08739 0.66812 0.76287 0.0
H130 H 0.03066 0.60445 0.89257 0.0
H131 H 0.0665 0.62306 0.12002 0.0
Co132 Co 0.43575 0.45602 0.0895 0.0
C133 C 0.43386 0.4571 0.8985 0.0
C134 C 0.40876 0.45418 0.95594 0.0
C135 C 0.40619 0.45327 0.86924 0.0
N136 N 0.42612 0.45661 0.97509 0.0
N137 N 0.42183 0.4549 0.8323 0.0
H138 H 0.44761 0.45825 0.89152 0.0
H139 H 0.39827 0.45258 1.00157 0.0
C140 C 0.41399 0.47104 0.18097 0.0
O141 O 0.42857 0.48645 0.20244 0.0
N142 N 0.44519 0.45506 0.20433 0.0
C143 C 0.45868 0.45128 0.22289 0.0
C144 C 0.46134 0.4517 0.30965 0.0
C145 C 0.4396 0.45734 0.28176 0.0
N146 N 0.44927 0.45543 0.34689 0.0
C147 C 0.47435 0.48531 0.09488 0.0
C148 C 0.46501 0.5088 0.04387 0.0
C149 C 0.48442 0.51451 0.06002 0.0
C150 C 0.48903 0.50248 0.08534 0.0
C151 C 0.45083 0.49152 0.05383 0.0
N152 N 0.45552 0.48014 0.08146 0.0
H153 H 0.47817 0.4761 0.11111 0.0
H154 H 0.43601 0.48727 0.0389 0.0
H155 H 0.46623 0.44841 0.17669 0.0
H156 H 0.42893 0.46056 0.29164 0.0
O157 O 0.44853 0.44548 0.03728 0.0
O158 O 0.41899 0.43173 0.0874 0.0
O159 O 0.41637 0.46022 0.14076 0.0
C160 C 0.43188 0.43108 0.04383 0.0
H161 H 0.39347 0.45132 0.83628 0.0
H162 H 0.47122 0.44917 0.34291 0.0
H163 H 0.46074 0.51759 0.02408 0.0
H164 H 0.50386 0.5062 0.09588 0.0
Co165 Co 0.61195 0.03678 0.02153 0.0
C166 C 0.61072 0.03953 0.20748 0.0
C167 C 0.6396 0.05376 0.16326 0.0
C168 C 0.64035 0.05382 0.25038 0.0
N169 N 0.62099 0.04505 0.13637 0.0
N170 N 0.62215 0.04468 0.27774 0.0
H171 H 0.59533 0.03091 0.20835 0.0
H172 H 0.6518 0.05876 0.12221 0.0
C173 C 0.6395 0.07522 1.00531 0.0
O174 O 0.63374 0.07837 0.07647 0.0
N175 N 0.60348 0.02855 0.90749 0.0
C176 C 0.58542 0.01729 0.87866 0.0
C177 C 0.58545 0.01708 0.79138 0.0
C178 C 0.61427 0.03482 0.83848 0.0
N179 N 0.60361 0.02827 0.76641 0.0
C180 C 0.57621 0.03237 0.07051 0.0
C181 C 0.57865 0.05896 0.97958 0.0
C182 C 0.56228 0.04867 0.02735 0.0
C183 C 0.5611 0.03515 0.07245 0.0
C184 C 0.59342 0.05558 0.97847 0.0
N185 N 0.5925 0.04288 0.02672 0.0
H186 H 0.57437 0.02133 0.10258 0.0
H187 H 0.60511 0.06281 0.93614 0.0
H188 H 0.57299 0.01037 0.91809 0.0
H189 H 0.62956 0.04434 0.84111 0.0
O190 O 0.59685 0.01362 0.06259 0.0
O191 O 0.62714 0.02628 0.0226 0.0
O192 O 0.63206 0.05986 0.97631 0.0
C193 C 0.61212 0.0129 0.05393 0.0
H194 H 0.65324 0.05903 0.29004 0.0
H195 H 0.57289 0.00994 0.74987 0.0
H196 H 0.57976 0.06917 0.94139 0.0
H197 H 0.54854 0.02672 0.10906 0.0
Co198 Co 0.69009 0.80322 0.41438 0.0
C199 C 0.68773 0.80135 0.6051 0.0
C200 C 0.66437 0.77911 0.54054 0.0
C201 C 0.66227 0.77669 0.62637 0.0
N202 N 0.68023 0.79457 0.52664 0.0
N203 N 0.67697 0.79058 0.66775 0.0
H204 H 0.70099 0.81366 0.61584 0.0
H205 H 0.65509 0.77 0.49145 0.0
C206 C 0.64762 0.78132 0.32941 0.0
O207 O 0.63257 0.78288 0.33136 0.0
N208 N 0.70001 0.81168 0.30039 0.0
C209 C 0.71881 0.82119 0.28013 0.0
C210 C 0.72031 0.82357 0.19405 0.0
C211 C 0.69037 0.8084 0.2245 0.0
N212 N 0.70247 0.81541 0.15887 0.0
C213 C 0.7081 0.83938 0.43812 0.0
C214 C 0.67551 0.83885 0.48666 0.0
C215 C 0.69287 0.85468 0.47895 0.0
C216 C 0.7094 0.85484 0.45618 0.0
C217 C 0.67486 0.82366 0.46845 0.0
N218 N 0.69089 0.82413 0.44159 0.0
H219 H 0.72095 0.83971 0.42065 0.0
H220 H 0.66147 0.81154 0.47607 0.0
H221 H 0.73087 0.82586 0.32429 0.0
H222 H 0.6749 0.80096 0.21647 0.0
O223 O 0.71544 0.81042 0.45603 0.0
O224 O 0.69479 0.78471 0.39903 0.0
O225 O 0.66272 0.79281 0.37055 0.0
C226 C 0.71169 0.7953 0.4341 0.0
H227 H 0.65064 0.76542 0.65576 0.0
H228 H 0.73355 0.83028 0.15939 0.0
H229 H 0.66252 0.83826 0.50566 0.0
H230 H 0.72307 0.86683 0.44939 0.0
Co231 Co 0.27888 -0.0039 0.37167 0.0
C232 C 0.27577 0.98985 0.55634 0.0
C233 C 0.30394 -0.00232 0.51451 0.0
C234 C 0.30383 -0.00336 0.60145 0.0
N235 N 0.28624 0.99322 0.48566 0.0
N236 N 0.28615 0.99194 0.62786 0.0
H237 H 0.26147 0.98769 0.55658 0.0
H238 H 0.31656 0.00268 0.47662 0.0
C239 C 0.30764 0.98509 0.32981 0.0
O240 O 0.30055 0.97195 0.38053 0.0
N241 N 0.2715 -0.00112 0.25892 0.0
C242 C 0.25391 -0.00494 0.23264 0.0
C243 C 0.25366 -0.00401 0.14551 0.0
C244 C 0.28172 0.00217 0.18776 0.0
N245 N 0.27114 0.00036 0.11734 0.0
C246 C 0.24439 0.96526 0.4138 0.0
C247 C 0.25117 0.94304 0.32424 0.0
C248 C 0.23719 0.93649 0.38687 0.0
C249 C 0.23299 0.94773 0.4275 0.0
C250 C 0.26205 0.96078 0.31151 0.0
N251 N 0.25985 0.97167 0.36269 0.0
H252 H 0.24127 0.97374 0.44745 0.0
H253 H 0.27276 0.96572 0.26324 0.0
H254 H 0.24185 0.9911 0.27356 0.0
H255 H 0.29629 0.00492 0.18685 0.0
O256 O 0.2636 0.00438 0.42177 0.0
O257 O 0.29431 0.02062 0.38981 0.0
O258 O 0.29996 0.99402 0.32167 0.0
C259 C 0.27944 0.0195 0.42462 0.0
H260 H 0.31617 3e-05 0.64207 0.0
H261 H 0.24138 0.99325 0.10602 0.0
H262 H 0.25431 0.93475 0.28825 0.0
H263 H 0.22136 0.94311 0.47175 0.0
Co264 Co 0.09751 0.40895 0.39898 0.0
C265 C 0.0954 0.40819 0.58433 0.0
C266 C 0.11544 0.43378 0.54397 0.0
C267 C 0.11517 0.43392 0.63114 0.0
N268 N 0.10299 0.4176 0.51474 0.0
N269 N 0.1026 0.41776 0.65597 0.0
H270 H 0.08491 0.39453 0.58315 0.0
H271 H 0.12447 0.44475 0.50568 0.0
C272 C 0.12282 0.44851 0.33247 0.0
O273 O 0.1416 0.45738 0.34533 0.0
N274 N 0.09201 0.40014 0.28479 0.0
C275 C 0.09055 0.38558 0.25711 0.0
C276 C 0.08911 0.38495 0.17023 0.0
C277 C 0.09109 0.40801 0.21546 0.0
N278 N 0.08958 0.39916 0.14396 0.0
C279 C 0.12305 0.39868 0.46127 0.0
C280 C 0.14978 0.41446 0.33548 0.0
C281 C 0.15291 0.4054 0.39764 0.0
C282 C 0.13942 0.39754 0.46164 0.0
C283 C 0.13343 0.41546 0.33799 0.0
N284 N 0.12035 0.40768 0.40035 0.0
H285 H 0.1124 0.39216 0.50913 0.0
H286 H 0.13106 0.42215 0.28817 0.0
H287 H 0.09149 0.37655 0.29713 0.0
H288 H 0.09216 0.42019 0.21757 0.0
O289 O 0.07822 0.38603 0.43576 0.0
O290 O 0.0728 0.40658 0.40321 0.0
O291 O 0.11292 0.43312 0.35822 0.0
C292 C 0.06601 0.391 0.42887 0.0
H293 H 0.12397 0.44493 0.67284 0.0
H294 H 0.08883 0.3752 0.13007 0.0
H295 H 0.15984 0.42064 0.28488 0.0
H296 H 0.14122 0.39016 0.50986 0.0
Co297 Co 0.69637 0.99206 0.35868 0.0
C298 C 0.69507 0.98997 0.54231 0.0
C299 C 0.67318 0.99399 0.49349 0.0
C300 C 0.67379 -0.00458 0.58068 0.0
N301 N 0.68656 0.99059 0.4701 0.0
N302 N 0.68772 0.99305 0.61115 0.0
H303 H 0.70704 0.98811 0.54352 0.0
H304 H 0.66452 -0.00363 0.45021 0.0
C305 C 0.6611 0.9692 0.25031 0.0
O306 O 0.66965 0.96168 0.21891 0.0
N307 N 0.70642 0.99422 0.24594 0.0
C308 C 0.72157 0.9936 0.21893 0.0
C309 C 0.72271 -0.00441 0.1325 0.0
C310 C 0.69939 -0.00237 0.17629 0.0
N311 N 0.70856 -0.00206 0.10537 0.0
C312 C 0.70968 0.9689 0.38259 0.0
C313 C 0.67365 0.94036 0.4117 0.0
C314 C 0.68951 0.93852 0.40965 0.0
C315 C 0.70783 0.95311 0.39693 0.0
C316 C 0.67617 0.95631 0.39667 0.0
N317 N 0.69379 0.97008 0.37664 0.0
H318 H 0.72391 0.98023 0.37898 0.0
H319 H 0.66389 0.9576 0.40267 0.0
H320 H 0.73144 0.99208 0.25792 0.0
H321 H 0.68762 -0.00026 0.17809 0.0
O322 O 0.72211 0.00754 0.40563 0.0
O323 O 0.7025 0.01519 0.35344 0.0
O324 O 0.66946 0.98076 0.30881 0.0
C325 C 0.71847 0.01961 0.394 0.0
H326 H 0.66542 -0.00103 0.618 0.0
H327 H 0.73297 0.99493 0.09304 0.0
H328 H 0.65942 0.92962 0.42593 0.0
H329 H 0.72058 0.95235 0.39775 0.0
Co330 Co 0.09838 0.79066 0.41746 0.0
C331 C 0.10148 0.79224 0.60197 0.0
C332 C 0.09636 0.76818 0.55335 0.0
C333 C 0.09549 0.76751 0.64041 0.0
N334 N 0.10009 0.78369 0.52982 0.0
N335 N 0.09851 0.7826 0.67066 0.0
H336 H 0.10377 0.80498 0.60351 0.0
H337 H 0.09331 0.75774 0.51027 0.0
C338 C 0.11819 0.77705 0.31102 0.0
O339 O 0.12921 0.79206 0.2761 0.0
N340 N 0.09612 0.7973 0.30358 0.0
C341 C 0.099 0.81236 0.27624 0.0
C342 C 0.09735 0.81162 0.1892 0.0
C343 C 0.0915 0.78732 0.23308 0.0
N344 N 0.09296 0.79593 0.16214 0.0
C345 C 0.12738 0.82622 0.4381 0.0
C346 C 0.15877 0.82251 0.43815 0.0
C347 C 0.16164 0.83888 0.43257 0.0
C348 C 0.14583 0.84077 0.43665 0.0
C349 C 0.13993 0.80825 0.44112 0.0
N350 N 0.12456 0.81022 0.43222 0.0
H351 H 0.11533 0.82785 0.44214 0.0
H352 H 0.13777 0.79566 0.44795 0.0
H353 H 0.10219 0.82328 0.31546 0.0
H354 H 0.08746 0.77403 0.23346 0.0
O355 O 0.08432 0.80059 0.46158 0.0
O356 O 0.07123 0.77376 0.41324 0.0
O357 O 0.10695 0.77537 0.37055 0.0
C358 C 0.06892 0.78543 0.44803 0.0
H359 H 0.09171 0.75638 0.67787 0.0
H360 H 0.10004 0.82212 0.14902 0.0
H361 H 0.17085 0.82076 0.43894 0.0
H362 H 0.14772 0.85339 0.43567 0.0
Co363 Co 0.28179 0.37022 0.42354 0.0
C364 C 0.27997 0.37214 0.60639 0.0
C365 C 0.30926 0.3866 0.5657 0.0
C366 C 0.3094 0.38666 0.6527 0.0
N367 N 0.2908 0.37751 0.53746 0.0
N368 N 0.29096 0.37744 0.67773 0.0
H369 H 0.26441 0.364 0.60393 0.0
H370 H 0.32172 0.39198 0.52606 0.0
C371 C 0.30946 0.40682 0.35356 0.0
O372 O 0.29636 0.41004 0.32826 0.0
N373 N 0.27312 0.36267 0.30758 0.0
C374 C 0.25827 0.34727 0.27923 0.0
C375 C 0.25807 0.34692 0.19224 0.0
C376 C 0.28197 0.37118 0.23749 0.0
N377 N 0.27305 0.36204 0.16599 0.0
C378 C 0.24649 0.3691 0.40779 0.0
C379 C 0.25953 0.40154 0.47503 0.0
C380 C 0.24043 0.39137 0.44453 0.0
C381 C 0.2339 0.37488 0.41186 0.0
C382 C 0.27178 0.39527 0.4688 0.0
N383 N 0.26536 0.37948 0.43238 0.0
H384 H 0.24089 0.3561 0.38601 0.0
H385 H 0.28646 0.40316 0.49283 0.0
H386 H 0.24831 0.33684 0.31861 0.0
H387 H 0.29502 0.38355 0.23853 0.0
O388 O 0.26419 0.34712 0.46363 0.0
O389 O 0.29416 0.35743 0.42277 0.0
O390 O 0.30472 0.39246 0.38625 0.0
C391 C 0.2784 0.34476 0.4533 0.0
H392 H 0.32206 0.39217 0.69402 0.0
H393 H 0.24783 0.33614 0.15231 0.0
H394 H 0.26498 0.41424 0.5023 0.0
H395 H 0.21903 0.36636 0.39092 0.0
Co396 Co 0.33858 0.12544 0.75413 0.0
C397 C 0.33946 0.1277 0.5701 0.0
C398 C 0.35986 0.12165 0.61771 0.0
C399 C 0.35953 0.12076 0.53071 0.0
N400 N 0.34733 0.12607 0.6418 0.0
N401 N 0.34657 0.12441 0.50132 0.0
H402 H 0.32819 0.1305 0.56862 0.0
H403 H 0.36776 0.11827 0.66018 0.0
C404 C 0.37718 0.14431 0.8496 0.0
O405 O 0.37288 0.15457 0.88804 0.0
N406 N 0.32948 0.12401 0.86806 0.0
C407 C 0.31309 0.1227 0.89325 0.0
C408 C 0.31229 0.12162 0.97998 0.0
C409 C 0.33749 0.12227 0.9392 0.0
N410 N 0.32783 0.12154 1.00882 0.0
C411 C 0.3324 0.15343 0.75922 0.0
C412 C 0.3692 0.17868 0.71435 0.0
C413 C 0.35612 0.1833 0.73741 0.0
C414 C 0.33744 0.17049 0.75851 0.0
C415 C 0.36366 0.16144 0.71797 0.0
N416 N 0.34574 0.14919 0.7446 0.0
H417 H 0.31767 0.14367 0.77009 0.0
H418 H 0.37385 0.15796 0.70015 0.0
H419 H 0.30205 0.12202 0.85209 0.0
H420 H 0.34978 0.1209 0.93997 0.0
O421 O 0.31227 0.11374 0.70897 0.0
O422 O 0.32762 0.1012 0.75338 0.0
O423 O 0.3651 0.13248 0.79816 0.0
C424 C 0.31228 0.09965 0.7182 0.0
H425 H 0.3673 0.11669 0.49231 0.0
H426 H 0.30117 0.12108 0.01833 0.0
H427 H 0.3836 0.1883 0.69515 0.0
H428 H 0.32675 0.17363 0.7729 0.0
Co429 Co 0.93525 0.33367 0.71489 0.0
C430 C 0.93651 0.33057 0.90443 0.0
C431 C 0.96457 0.34233 0.851 0.0
C432 C 0.96646 0.34196 0.93775 0.0
N433 N 0.94578 0.33508 0.82949 0.0
N434 N 0.94888 0.33467 0.97171 0.0
H435 H 0.92109 0.32454 0.90973 0.0
H436 H 0.97625 0.34795 0.80708 0.0
C437 C 0.96273 0.32658 0.6188 0.0
O438 O 0.94917 0.31106 0.59271 0.0
N439 N 0.9249 0.33279 0.59926 0.0
C440 C 0.90804 0.33153 0.58067 0.0
C441 C 0.90582 0.33189 0.49436 0.0
C442 C 0.93295 0.3345 0.52204 0.0
N443 N 0.92148 0.33378 0.45672 0.0
C444 C 0.90166 0.2999 0.70415 0.0
C445 C 0.91868 0.28234 0.75782 0.0
C446 C 0.89877 0.27307 0.73954 0.0
C447 C 0.89033 0.28215 0.7128 0.0
C448 C 0.92955 0.30021 0.74817 0.0
N449 N 0.92108 0.30871 0.71923 0.0
H450 H 0.89457 0.30662 0.68867 0.0
H451 H 0.94475 0.30726 0.76471 0.0
H452 H 0.89788 0.33055 0.62657 0.0
H453 H 0.94718 0.33696 0.51295 0.0
O454 O 0.91643 0.33754 0.76564 0.0
O455 O 0.94518 0.3579 0.7217 0.0
O456 O 0.95886 0.33577 0.66528 0.0
C457 C 0.92931 0.35387 0.75883 0.0
H458 H 0.97989 0.34719 0.97351 0.0
H459 H 0.89343 0.33075 0.4621 0.0
H460 H 0.92579 0.27589 0.77974 0.0
H461 H 0.87491 0.27571 0.70161 0.0
Co462 Co 0.77155 0.74346 0.7173 0.0
C463 C 0.77145 0.73836 0.52745 0.0
C464 C 0.74358 0.72232 0.58073 0.0
C465 C 0.74177 0.72019 0.49396 0.0
N466 N 0.76218 0.7336 0.60252 0.0
N467 N 0.75923 0.73026 0.45968 0.0
H468 H 0.78665 0.74792 0.52249 0.0
H469 H 0.73187 0.7166 0.62453 0.0
C470 C 0.74665 0.70861 0.80365 0.0
O471 O 0.76065 0.70594 0.81808 0.0
N472 N 0.78038 0.75367 0.83317 0.0
C473 C 0.78987 0.77062 0.8537 0.0
C474 C 0.79239 0.77287 0.94024 0.0
C475 C 0.77748 0.74592 0.90958 0.0
N476 N 0.78458 0.75737 0.97625 0.0
C477 C 0.80691 0.74536 0.75432 0.0
C478 C 0.79667 0.71417 0.67883 0.0
C479 C 0.81473 0.72413 0.71942 0.0
C480 C 0.81989 0.73993 0.75705 0.0
C481 C 0.78393 0.7199 0.67918 0.0
N482 N 0.78893 0.73512 0.71865 0.0
H483 H 0.81143 0.75789 0.78057 0.0
H484 H 0.76982 0.71182 0.64975 0.0
H485 H 0.79459 0.78091 0.80942 0.0
H486 H 0.77056 0.73226 0.91692 0.0
O487 O 0.78807 0.76556 0.66538 0.0
O488 O 0.75791 0.75489 0.70585 0.0
O489 O 0.7496 0.72217 0.76798 0.0
C490 C 0.77303 0.76695 0.66874 0.0
H491 H 0.72831 0.71238 0.45866 0.0
H492 H 0.79905 0.78512 0.97395 0.0
H493 H 0.79231 0.70192 0.64864 0.0
H494 H 0.83398 0.74814 0.78699 0.0
Co495 Co 0.37588 0.32841 0.6642 0.0
C496 C 0.37425 0.32538 0.85033 0.0
C497 C 0.35211 0.32877 0.80011 0.0
C498 C 0.3522 0.32997 0.88704 0.0
N499 N 0.36564 0.32545 0.77691 0.0
N500 N 0.36629 0.328 0.91822 0.0
H501 H 0.38703 0.32484 0.85446 0.0
H502 H 0.34378 0.33154 0.75684 0.0
C503 C 0.33252 0.30604 0.63248 0.0
O504 O 0.32983 0.29697 0.70045 0.0
N505 N 0.38599 0.3319 0.55246 0.0
C506 C 0.40089 0.33083 0.52662 0.0
C507 C 0.40125 0.33146 0.43943 0.0
C508 C 0.37766 0.33338 0.48174 0.0
N509 N 0.3865 0.3329 0.41149 0.0
C510 C 0.38562 0.30412 0.71695 0.0
C511 C 0.36134 0.27817 0.60283 0.0
C512 C 0.37262 0.27541 0.65997 0.0
C513 C 0.38503 0.28867 0.71697 0.0
C514 C 0.36225 0.29378 0.60556 0.0
N515 N 0.37366 0.30627 0.6647 0.0
H516 H 0.39627 0.31455 0.75686 0.0
H517 H 0.35419 0.29593 0.55806 0.0
H518 H 0.41017 0.32883 0.56784 0.0
H519 H 0.36503 0.33428 0.4816 0.0
O520 O 0.40174 0.34288 0.71226 0.0
O521 O 0.38256 0.35179 0.67039 0.0
O522 O 0.34932 0.3182 0.61235 0.0
C523 C 0.39873 0.35541 0.70653 0.0
H524 H 0.34363 0.33338 0.92393 0.0
H525 H 0.41094 0.32997 0.39969 0.0
H526 H 0.35185 0.26835 0.55655 0.0
H527 H 0.39457 0.28727 0.75975 0.0
Co528 Co 0.76754 0.11542 0.79846 0.0
C529 C 0.76533 0.11726 0.60598 0.0
C530 C 0.73814 0.10747 0.66433 0.0
C531 C 0.73533 0.10662 0.57775 0.0
N532 N 0.75706 0.11462 0.68332 0.0
N533 N 0.75241 0.11278 0.54046 0.0
H534 H 0.78026 0.12173 0.59684 0.0
H535 H 0.72687 0.10234 0.71032 0.0
C536 C 0.74203 0.12965 0.82724 0.0
O537 O 0.74719 0.13812 0.75625 0.0
N538 N 0.77752 0.11574 0.9123 0.0
C539 C 0.79567 0.1202 0.93151 0.0
C540 C 0.79779 0.11997 0.01815 0.0
C541 C 0.7688 0.11288 0.98832 0.0
N542 N 0.78091 0.11534 0.05464 0.0
C543 C 0.80194 0.14361 0.73141 0.0
C544 C 0.803 0.16937 0.82827 0.0
C545 C 0.81661 0.17375 0.76542 0.0
C546 C 0.81624 0.16069 0.71768 0.0
C547 C 0.78871 0.15206 0.83905 0.0
N548 N 0.78773 0.13951 0.78776 0.0
H549 H 0.80244 0.13368 0.69688 0.0
H550 H 0.77862 0.14885 0.88914 0.0
H551 H 0.80678 0.12377 0.88563 0.0
H552 H 0.75393 0.10911 0.99495 0.0
O553 O 0.78051 0.10473 0.7516 0.0
O554 O 0.75086 0.09088 0.80036 0.0
O555 O 0.74924 0.12097 0.8513 0.0
C556 C 0.7643 0.09021 0.76113 0.0
H557 H 0.72154 0.1011 0.54475 0.0
H558 H 0.81104 0.12344 0.05164 0.0
H559 H 0.80325 0.17922 0.86771 0.0
H560 H 0.82697 0.16367 0.67045 0.0
Co561 Co 0.94252 0.68673 0.67399 0.0
C562 C 0.94101 0.69019 0.86022 0.0
C563 C 0.96949 0.70689 0.81555 0.0
C564 C 0.97019 0.70776 0.90285 0.0
N565 N 0.95106 0.69617 0.7885 0.0
N566 N 0.95221 0.69718 0.93085 0.0
H567 H 0.92619 0.67974 0.86156 0.0
H568 H 0.98179 0.71294 0.77495 0.0
C569 C 0.96893 0.725 0.6431 0.0
O570 O 0.96277 0.72936 0.70919 0.0
N571 N 0.93444 0.67727 0.56052 0.0
C572 C 0.91634 0.66596 0.53217 0.0
C573 C 0.91633 0.66511 0.44492 0.0
C574 C 0.94522 0.68293 0.49082 0.0
N575 N 0.93449 0.67593 0.41896 0.0
C576 C 0.90731 0.68403 0.72069 0.0
C577 C 0.90902 0.70734 0.60623 0.0
C578 C 0.89338 0.69924 0.6603 0.0
C579 C 0.89253 0.68731 0.71746 0.0
C580 C 0.92351 0.7037 0.61173 0.0
N581 N 0.92303 0.69275 0.67117 0.0
H582 H 0.90559 0.6739 0.76055 0.0
H583 H 0.93471 0.70928 0.56574 0.0
H584 H 0.90389 0.65949 0.5718 0.0
H585 H 0.96042 0.69267 0.49253 0.0
O586 O 0.92764 0.66392 0.72061 0.0
O587 O 0.95813 0.67688 0.68232 0.0
O588 O 0.9624 0.70924 0.62417 0.0
C589 C 0.94331 0.66364 0.71549 0.0
H590 H 0.98306 0.71518 0.94233 0.0
H591 H 0.90378 0.65746 0.40395 0.0
H592 H 0.91005 0.71637 0.55979 0.0
H593 H 0.88026 0.68018 0.75769 0.0
H594 H 0.04258 0.46578 0.63451 0.0
H595 H 0.98638 0.45239 0.71588 0.0
H596 H 0.97609 0.45197 0.57064 0.0
H597 H 0.98299 0.45551 0.41946 0.0
H598 H 0.03912 0.46908 0.33617 0.0
H599 H 0.04948 0.46922 0.48222 0.0
C600 C 0.02806 0.46264 0.62016 0.0
C601 C 0.0153 0.45914 0.68626 0.0
C602 C 0.02222 0.46248 0.53588 0.0
C603 C -0.00342 0.45531 0.66682 0.0
C604 C 0.99064 0.45501 0.58343 0.0
C605 C -0.00251 0.45856 0.43361 0.0
C606 C 0.01019 0.46217 0.3675 0.0
C607 C 0.00335 0.45865 0.51752 0.0
C608 C 0.02894 0.46597 0.38612 0.0
C609 C 0.03493 0.46615 0.46959 0.0
H610 H 0.58696 0.65518 0.64131 0.0
H611 H 0.64364 0.69627 0.72437 0.0
H612 H 0.6546 0.70019 0.57865 0.0
H613 H 0.64783 0.69214 0.42801 0.0
H614 H 0.59127 0.65041 0.34617 0.0
H615 H 0.58031 0.64689 0.49108 0.0
C616 C 0.60163 0.66513 0.62732 0.0
C617 C 0.61443 0.67549 0.69324 0.0
C618 C 0.60781 0.66725 0.54375 0.0
C619 C 0.63356 0.68806 0.67465 0.0
C620 C 0.6398 0.69035 0.5914 0.0
C621 C 0.63318 0.68214 0.44181 0.0
C622 C 0.62043 0.67158 0.37602 0.0
C623 C 0.62704 0.68 0.52552 0.0
C624 C 0.60136 0.6589 0.39517 0.0
C625 C 0.59509 0.65678 0.47819 0.0
H626 H 0.40698 0.08059 0.71994 0.0
H627 H 0.4622 0.08926 0.79987 0.0
H628 H 0.47361 0.09647 0.65601 0.0
H629 H 0.46794 0.10006 0.50694 0.0
H630 H 0.41259 0.09084 0.42612 0.0
H631 H 0.40108 0.0836 0.57022 0.0
C632 C 0.42143 0.08384 0.70603 0.0
C633 C 0.43368 0.08446 0.77147 0.0
C634 C 0.4279 0.08781 0.62262 0.0
C635 C 0.45248 0.08895 0.75162 0.0
C636 C 0.45903 0.09299 0.66901 0.0
C637 C 0.45345 0.09669 0.52093 0.0
C638 C 0.44124 0.09613 0.45558 0.0
C639 C 0.4469 0.09254 0.60408 0.0
C640 C 0.42231 0.0913 0.47481 0.0
C641 C 0.41572 0.08721 0.55742 0.0
H642 H 0.03985 0.6759 0.65912 0.0
H643 H 0.06889 0.64822 0.64714 0.0
H644 H 0.06308 0.64421 0.49419 0.0
H645 H 0.04982 0.64857 0.36142 0.0
H646 H 0.0212 0.67663 0.37257 0.0
H647 H 0.0268 0.68051 0.52564 0.0
C648 C 0.04481 0.66893 0.62301 0.0
C649 C 0.05498 0.66253 0.66525 0.0
C650 C 0.04156 0.66677 0.53385 0.0
C651 C 0.06134 0.65357 0.61676 0.0
C652 C 0.05796 0.65121 0.5289 0.0
C653 C 0.04494 0.65564 0.39726 0.0
C654 C 0.03489 0.66209 0.35469 0.0
C655 C 0.04822 0.65785 0.48631 0.0
C656 C 0.02862 0.67117 0.403 0.0
C657 C 0.0319 0.67348 0.49103 0.0
H658 H 0.41641 0.44434 0.43288 0.0
H659 H 0.47797 0.46985 0.46608 0.0
H660 H 0.47522 0.47191 0.61943 0.0
H661 H 0.45518 0.46652 0.7458 0.0
H662 H 0.39334 0.43923 0.71107 0.0
H663 H 0.39638 0.43785 0.55912 0.0
C664 C 0.42922 0.45045 0.47369 0.0
C665 C 0.44739 0.45701 0.43751 0.0
C666 C 0.42749 0.45127 0.56257 0.0
C667 C 0.4638 0.46463 0.49192 0.0
C668 C 0.46223 0.46583 0.57988 0.0
C669 C 0.44235 0.46019 0.70529 0.0
C670 C 0.42406 0.45337 0.74153 0.0
C671 C 0.44412 0.45914 0.61635 0.0
C672 C 0.40769 0.44513 0.68653 0.0
C673 C 0.40937 0.44419 0.59876 0.0
H674 H 0.58675 0.01016 0.62215 0.0
H675 H 0.63474 0.05864 0.71851 0.0
H676 H 0.64492 0.06789 0.57495 0.0
H677 H 0.63977 0.06252 0.42114 0.0
H678 H 0.59117 0.01442 0.32544 0.0
H679 H 0.5814 0.00494 0.46927 0.0
C680 C 0.59934 0.02279 0.61189 0.0
C681 C 0.60992 0.03358 0.68141 0.0
C682 C 0.60494 0.0282 0.52902 0.0
C683 C 0.62642 0.04986 0.66667 0.0
C684 C 0.63221 0.05527 0.58433 0.0
C685 C 0.62711 0.04995 0.43202 0.0
C686 C 0.61623 0.03925 0.36277 0.0
C687 C 0.62154 0.04456 0.51503 0.0
C688 C 0.59969 0.02304 0.3775 0.0
C689 C 0.59415 0.01754 0.45982 0.0
H690 H 0.69782 0.82042 0.76169 0.0
H691 H 0.66364 0.76519 0.78317 0.0
H692 H 0.66691 0.76801 0.93648 0.0
H693 H 0.67988 0.78605 0.06738 0.0
H694 H 0.71602 0.84099 0.0474 0.0
H695 H 0.71154 0.83846 0.89274 0.0
C696 C 0.69117 0.809 0.79969 0.0
C697 C 0.68018 0.79262 0.75942 0.0
C698 C 0.69334 0.81066 0.88926 0.0
C699 C 0.67175 0.77802 0.81101 0.0
C700 C 0.6737 0.77958 0.89946 0.0
C701 C 0.68649 0.79744 0.02898 0.0
C702 C 0.69802 0.81373 0.06881 0.0
C703 C 0.68434 0.79582 0.93958 0.0
C704 C 0.70694 0.82836 0.01812 0.0
C705 C 0.70445 0.82689 0.92964 0.0
H706 H 0.30922 0.00937 0.76406 0.0
H707 H 0.24977 0.97444 0.68644 0.0
H708 H 0.23973 0.97459 0.83092 0.0
H709 H 0.24789 0.98387 0.98031 0.0
H710 H 0.3074 0.01851 0.05779 0.0
H711 H 0.31735 0.01882 0.91278 0.0
C712 C 0.29408 0.00158 0.77863 0.0
C713 C 0.28032 0.99179 0.71399 0.0
C714 C 0.2884 0.00159 0.86214 0.0
C715 C 0.26071 0.98217 0.73441 0.0
C716 C 0.25494 0.98219 0.81726 0.0
C717 C 0.26301 0.99168 0.96551 0.0
C718 C 0.27684 0.00115 0.03046 0.0
C719 C 0.26867 0.99181 0.88173 0.0
C720 C 0.29642 0.01094 0.00971 0.0
C721 C 0.30214 0.01118 0.92654 0.0
H722 H 0.10516 0.43588 0.79582 0.0
H723 H 0.09047 0.38554 0.70721 0.0
H724 H 0.08329 0.37496 0.85049 0.0
H725 H 0.08236 0.38019 1.00062 0.0
H726 H 0.09984 0.43124 0.09171 0.0
H727 H 0.10439 0.44115 0.9477 0.0
C728 C 0.10054 0.42265 0.80801 0.0
C729 C 0.09833 0.41157 0.74082 0.0
C730 C 0.09682 0.41669 0.89096 0.0
C731 C 0.09199 0.39433 0.75738 0.0
C732 C 0.08799 0.38826 0.83949 0.0
C733 C 0.08732 0.39352 0.98975 0.0
C734 C 0.09091 0.40484 0.05816 0.0
C735 C 0.09053 0.39937 0.90677 0.0
C736 C 0.09682 0.42202 0.04137 0.0
C737 C 0.0996 0.42783 0.95856 0.0
H738 H 0.72898 0.00253 0.96361 0.0
H739 H 0.67529 -0.00493 0.04916 0.0
H740 H 0.66398 0.99244 0.90403 0.0
H741 H 0.66856 0.99093 0.75238 0.0
H742 H 0.72307 0.00037 0.66606 0.0
H743 H 0.7345 0.00314 0.81172 0.0
C744 C 0.71477 0.00025 0.95115 0.0
C745 C 0.70286 -0.00157 0.01871 0.0
C746 C 0.70834 -0.00107 0.86682 0.0
C747 C 0.68473 -0.0039 0.99976 0.0
C748 C 0.67818 0.99461 0.91619 0.0
C749 C 0.68301 0.99377 0.7651 0.0
C750 C 0.69471 -0.00486 0.69768 0.0
C751 C 0.68975 -0.00423 0.84924 0.0
C752 C 0.71341 -0.00125 0.71607 0.0
C753 C 0.72011 0.00052 0.79968 0.0
H754 H 0.10394 0.76958 0.81272 0.0
H755 H 0.08799 0.8047 0.72246 0.0
H756 H 0.08428 0.81153 0.86737 0.0
H757 H 0.08555 0.80759 0.01997 0.0
H758 H 0.10134 0.77239 0.11033 0.0
H759 H 0.10441 0.76508 0.96541 0.0
C760 C 0.0995 0.77861 0.82469 0.0
C761 C 0.09644 0.78669 0.75659 0.0
C762 C 0.09713 0.78233 0.90832 0.0
C763 C 0.09087 0.79853 0.77342 0.0
C764 C 0.08855 0.80234 0.85641 0.0
C765 C 0.08968 0.79834 1.00799 0.0
C766 C 0.09319 0.79059 0.07623 0.0
C767 C 0.09169 0.79436 0.92433 0.0
C768 C 0.09827 0.77841 0.05936 0.0
C769 C 0.10022 0.77432 0.9763 0.0
H770 H 0.30872 0.39543 0.81964 0.0
H771 H 0.25865 0.34818 0.72528 0.0
H772 H 0.2483 0.33945 0.86951 0.0
H773 H 0.25398 0.34494 0.02121 0.0
H774 H 0.30529 0.39178 0.11456 0.0
H775 H 0.31456 0.40075 0.97174 0.0
C776 C 0.29562 0.38319 0.83079 0.0
C777 C 0.28449 0.37253 0.76223 0.0
C778 C 0.28995 0.37809 0.91358 0.0
C779 C 0.26734 0.35679 0.77713 0.0
C780 C 0.26149 0.3517 0.85955 0.0
C781 C 0.26724 0.35706 0.01123 0.0
C782 C 0.27873 0.36744 0.08034 0.0
C783 C 0.27278 0.36222 0.92824 0.0
C784 C 0.29584 0.38327 0.0643 0.0
C785 C 0.30132 0.38854 0.9819 0.0
H786 H 0.36782 0.13124 0.36398 0.0
H787 H 0.31052 0.11419 0.44589 0.0
H788 H 0.29937 0.11132 0.29879 0.0
H789 H 0.30595 0.11339 0.14754 0.0
H790 H 0.36364 0.13108 0.06697 0.0
H791 H 0.37439 0.13334 0.21284 0.0
C792 C 0.35288 0.1268 0.34938 0.0
C793 C 0.34006 0.12302 0.4152 0.0
C794 C 0.34658 0.12508 0.26505 0.0
C795 C 0.32076 0.11747 0.39603 0.0
C796 C 0.31433 0.11568 0.31205 0.0
C797 C 0.32089 0.11784 0.16153 0.0
C798 C 0.33386 0.12202 0.09553 0.0
C799 C 0.32714 0.11946 0.24607 0.0
C800 C 0.35315 0.12751 0.11563 0.0
C801 C 0.35942 0.12897 0.19944 0.0
H802 H 0.94568 0.32726 0.36997 0.0
H803 H 0.90507 0.34323 0.33561 0.0
H804 H 0.90883 0.34369 0.18322 0.0
H805 H 0.92378 0.33985 0.05705 0.0
H806 H 0.96564 0.32548 0.09036 0.0
H807 H 0.96127 0.32411 0.2437 0.0
C808 C 0.93774 0.33097 0.32946 0.0
C809 C 0.92487 0.33496 0.36581 0.0
C810 C 0.94011 0.33142 0.24047 0.0
C811 C 0.91475 0.33968 0.31084 0.0
C812 C 0.91695 0.34005 0.22292 0.0
C813 C 0.93177 0.33624 0.09777 0.0
C814 C 0.94495 0.33268 0.0617 0.0
C815 C 0.92948 0.33584 0.18667 0.0
C816 C 0.95543 0.32832 0.11614 0.0
C817 C 0.95294 0.32755 0.20408 0.0
H818 H 0.75897 0.72814 0.05893 0.0
H819 H 0.80807 0.77961 0.10186 0.0
H820 H 0.80504 0.77583 0.2543 0.0
H821 H 0.78762 0.75833 0.37823 0.0
H822 H 0.73908 0.70663 0.33441 0.0
H823 H 0.74277 0.71014 0.18201 0.0
C824 C 0.76914 0.7385 0.10122 0.0
C825 C 0.78355 0.75426 0.06722 0.0
C826 C 0.76738 0.73626 0.19012 0.0
C827 C 0.79652 0.76744 0.12471 0.0
C828 C 0.79489 0.76527 0.21269 0.0
C829 C 0.77801 0.74775 0.33553 0.0
C830 C 0.76293 0.73227 0.3691 0.0
C831 C 0.78023 0.74981 0.24654 0.0
C832 C 0.7506 0.71881 0.31153 0.0
C833 C 0.75275 0.72077 0.22373 0.0
H834 H 0.34502 0.32054 0.05688 0.0
H835 H 0.40313 0.34139 0.97417 0.0
H836 H 0.41461 0.34498 0.12083 0.0
H837 H 0.40812 0.34203 0.27266 0.0
H838 H 0.34998 0.3212 0.35515 0.0
H839 H 0.33865 0.31821 0.20905 0.0
C840 C 0.3602 0.32599 0.07116 0.0
C841 C 0.37312 0.33047 1.00481 0.0
C842 C 0.36674 0.32813 0.15566 0.0
C843 C 0.39277 0.33743 0.02399 0.0
C844 C 0.3994 0.33963 0.10789 0.0
C845 C 0.39297 0.33677 0.25865 0.0
C846 C 0.37998 0.33184 0.32506 0.0
C847 C 0.38649 0.33492 0.1742 0.0
C848 C 0.3604 0.3253 0.30575 0.0
C849 C 0.35385 0.32346 0.22194 0.0
H850 H 0.77953 0.11017 0.4551 0.0
H851 H 0.73205 0.11741 0.41852 0.0
H852 H 0.73603 0.11827 0.26551 0.0
H853 H 0.75335 0.11745 0.13997 0.0
H854 H 0.8004 0.10956 0.17713 0.0
H855 H 0.79634 0.10869 0.32949 0.0
C856 C 0.77015 0.11208 0.41383 0.0
C857 C 0.75549 0.11373 0.44941 0.0
C858 C 0.77246 0.1125 0.32478 0.0
C859 C 0.74334 0.11592 0.39379 0.0
C860 C 0.74565 0.11648 0.30576 0.0
C861 C 0.76263 0.11539 0.18109 0.0
C862 C 0.77737 0.11381 0.14551 0.0
C863 C 0.76015 0.11477 0.27012 0.0
C864 C 0.7892 0.11122 0.20131 0.0
C865 C 0.78683 0.11061 0.28922 0.0
H866 H 0.91271 0.67328 0.2823 0.0
H867 H 0.97078 0.6896 0.36139 0.0
H868 H 0.98161 0.69818 0.21726 0.0
H869 H 0.97443 0.70033 0.06775 0.0
H870 H 0.9163 0.68419 0.99007 0.0
H871 H 0.90563 0.6758 0.13413 0.0
C872 C 0.92768 0.67846 0.26813 0.0
C873 C 0.94081 0.6806 0.33306 0.0
C874 C 0.93382 0.68332 0.18495 0.0
C875 C 0.9603 0.68783 0.3132 0.0
C876 C 0.96653 0.6927 0.23052 0.0
C877 C 0.95948 0.69517 0.08224 0.0
C878 C 0.94622 0.69284 0.01736 0.0
C879 C 0.9534 0.69046 0.16578 0.0
C880 C 0.92682 0.68589 0.0379 0.0
C881 C 0.92069 0.68116 0.1206 0.0
H882 H 0.04639 0.5913 0.13692 0.0
H883 H 0.05563 0.59795 0.86814 0.0
H884 H 0.05653 0.57183 0.85858 0.0
H885 H 0.05209 0.54594 0.92412 0.0
H886 H 0.04155 0.53852 0.19165 0.0
H887 H 0.04457 0.56643 0.20482 0.0
C888 C 0.04889 0.58716 0.07654 0.0
C889 C 0.05064 0.59641 1.00314 0.0
C890 C 0.04927 0.57204 0.07136 0.0
C891 C 0.0538 0.59084 0.92525 0.0
C892 C 0.05445 0.57598 0.9198 0.0
C893 C 0.05062 0.5505 0.98547 0.0
C894 C 0.04641 0.54008 0.05656 0.0
C895 C 0.05176 0.56628 0.99204 0.0
C896 C 0.04493 0.54632 0.13596 0.0
C897 C 0.04643 0.5622 0.14337 0.0
H898 H 0.51633 0.53428 0.16094 0.0
H899 H 0.48695 0.53601 0.93528 0.0
H900 H 0.51124 0.56648 0.9213 0.0
H901 H 0.54064 0.59272 0.9736 0.0
H902 H 0.57064 0.59099 0.19651 0.0
H903 H 0.54649 0.56032 0.21018 0.0
C904 C 0.51536 0.54126 0.1081 0.0
C905 C 0.49973 0.53288 0.04971 0.0
C906 C 0.52949 0.55877 0.09987 0.0
C907 C 0.4986 0.5422 0.98214 0.0
C908 C 0.51255 0.55961 0.97373 0.0
C909 C 0.54182 0.58561 0.02535 0.0
C910 C 0.5573 0.59406 0.0842 0.0
C911 C 0.52796 0.56804 0.03255 0.0
C912 C 0.55888 0.5847 0.15018 0.0
C913 C 0.54505 0.56721 0.15818 0.0
H914 H 0.56494 0.07899 0.05727 0.0
H915 H 0.52386 0.02514 1.00465 0.0
H916 H 0.49725 0.02977 0.0188 0.0
H917 H 0.48569 0.04909 0.04827 0.0
H918 H 0.52682 0.10284 0.10461 0.0
H919 H 0.55336 0.09833 0.08633 0.0
C920 C 0.55016 0.06834 0.04799 0.0
C921 C 0.54632 0.05178 0.03006 0.0
C922 C 0.53495 0.07106 0.05724 0.0
C923 C 0.52712 0.038 0.01918 0.0
C924 C 0.51192 0.04063 0.0272 0.0
C925 C 0.50046 0.05978 0.0572 0.0
C926 C 0.50426 0.07628 0.07749 0.0
C927 C 0.51566 0.05708 0.04703 0.0
C928 C 0.5235 0.09005 0.08782 0.0
C929 C 0.53869 0.08748 0.07772 0.0
H930 H 0.6682 0.86185 0.40549 0.0
H931 H 0.71925 0.88403 0.56653 0.0
H932 H 0.72237 0.91208 0.5621 0.0
H933 H 0.71154 0.9305 0.50506 0.0
H934 H 0.66121 0.90816 0.33885 0.0
H935 H 0.65667 0.87984 0.35366 0.0
C936 C 0.67977 0.87275 0.44103 0.0
C937 C 0.69346 0.87097 0.48628 0.0
C938 C 0.68168 0.88879 0.43665 0.0
C939 C 0.70861 0.88521 0.5309 0.0
C940 C 0.71041 0.90121 0.52824 0.0
C941 C 0.69965 0.91943 0.47188 0.0
C942 C 0.68677 0.9214 0.42077 0.0
C943 C 0.69725 0.90321 0.47978 0.0
C944 C 0.67121 0.90692 0.37921 0.0
C945 C 0.66864 0.89075 0.38732 0.0
H946 H 0.18396 0.86427 0.54468 0.0
H947 H 0.18056 0.84779 0.28535 0.0
H948 H 0.20597 0.87697 0.2479 0.0
H949 H 0.22443 0.9079 0.28506 0.0
H950 H 0.22787 0.92409 0.54611 0.0
H951 H 0.2071 0.89431 0.58691 0.0
C952 C 0.18939 0.86703 0.48085 0.0
C953 C 0.18063 0.85416 0.41768 0.0
C954 C 0.20353 0.88383 0.4597 0.0
C955 C 0.18741 0.85765 0.3348 0.0
C956 C 0.2017 0.87433 0.31331 0.0
C957 C 0.22103 0.9049 0.35112 0.0
C958 C 0.2271 0.91824 0.41183 0.0
C959 C 0.20916 0.88769 0.37451 0.0
C960 C 0.2227 0.91409 0.49741 0.0
C961 C 0.21098 0.89706 0.52111 0.0
H962 H 0.21752 0.39022 0.31692 0.0
H963 H 0.23308 0.40596 0.57896 0.0
H964 H 0.2075 0.4122 0.58764 0.0
H965 H 0.17913 0.41109 0.52251 0.0
H966 H 0.16407 0.3953 0.25998 0.0
H967 H 0.19094 0.39102 0.24963 0.0
C968 C 0.21535 0.39511 0.37577 0.0
C969 C 0.22693 0.39744 0.44747 0.0
C970 C 0.20059 0.39846 0.38032 0.0
C971 C 0.22431 0.4041 0.52295 0.0
C972 C 0.20961 0.40752 0.52805 0.0
C973 C 0.1818 0.40672 0.46324 0.0
C974 C 0.16962 0.40339 0.39228 0.0
C975 C 0.19738 0.40438 0.4576 0.0
C976 C 0.17332 0.39798 0.31532 0.0
C977 C 0.18864 0.39551 0.3094 0.0
H978 H 0.36927 0.25656 0.79617 0.0
H979 H 0.37336 0.25711 0.52413 0.0
H980 H 0.37024 0.22907 0.52472 0.0
H981 H 0.36475 0.20374 0.60259 0.0
H982 H 0.35885 0.20265 0.87339 0.0
H983 H 0.36467 0.23175 0.87404 0.0
C984 C 0.36971 0.25061 0.7372 0.0
C985 C 0.37151 0.2588 0.66027 0.0
C986 C 0.36765 0.23446 0.73802 0.0
C987 C 0.37178 0.25091 0.58404 0.0
C988 C 0.37009 0.23494 0.5844 0.0
C989 C 0.36504 0.21007 0.66155 0.0
C990 C 0.36153 0.20134 0.73787 0.0
C991 C 0.3678 0.22652 0.66092 0.0
C992 C 0.36159 0.20933 0.81415 0.0
C993 C 0.36485 0.22587 0.81442 0.0
H994 H 0.86912 0.24933 0.63824 0.0
H995 H 0.90062 0.25441 0.86981 0.0
H996 H 0.87814 0.22397 0.89785 0.0
H997 H 0.84819 0.19621 0.8607 0.0
H998 H 0.81689 0.19142 0.62955 0.0
H999 H 0.84029 0.22157 0.59811 0.0
C1000 C 0.87106 0.2438 0.69501 0.0
C1001 C 0.88643 0.2542 0.75224 0.0
C1002 C 0.85792 0.22641 0.71139 0.0
C1003 C 0.889 0.2467 0.82438 0.0
C1004 C 0.87603 0.22933 0.84091 0.0
C1005 C 0.8466 0.20188 0.80367 0.0
C1006 C 0.8309 0.19187 0.74772 0.0
C1007 C 0.86024 0.21914 0.78567 0.0
C1008 C 0.82892 0.19907 0.67335 0.0
C1009 C 0.84228 0.21624 0.65542 0.0
H1010 H 0.82918 0.71619 0.5863 0.0
H1011 H 0.83072 0.71925 0.85911 0.0
H1012 H 0.85472 0.7111 0.86503 0.0
H1013 H 0.8763 0.70448 0.79238 0.0
H1014 H 0.87573 0.70237 0.51918 0.0
H1015 H 0.85053 0.70904 0.51328 0.0
C1016 C 0.83471 0.7149 0.64681 0.0
C1017 C 0.82833 0.71827 0.72219 0.0
C1018 C 0.8488 0.71061 0.64953 0.0
C1019 C 0.83561 0.71677 0.80047 0.0
C1020 C 0.84929 0.71213 0.80379 0.0
C1021 C 0.8705 0.7053 0.73158 0.0
C1022 C 0.87786 0.70295 0.6564 0.0
C1023 C 0.85615 0.70923 0.72872 0.0
C1024 C 0.87044 0.70432 0.57798 0.0
C1025 C 0.85597 0.70803 0.57456 0.0
H1026 H 0.08478 0.43632 0.32222 0.0
H1027 H 0.13965 0.47766 0.23747 0.0
H1028 H 0.12334 0.48847 0.15108 0.0
H1029 H 0.09302 0.48524 0.09477 0.0
H1030 H 0.03861 0.44193 0.1741 0.0
H1031 H 0.05521 0.43277 0.26578 0.0
C1032 C 0.09321 0.44766 0.28461 0.0
C1033 C 0.11333 0.45597 0.28518 0.0
C1034 C 0.08378 0.45342 0.23338 0.0
C1035 C 0.12407 0.47091 0.23765 0.0
C1036 C 0.11475 0.47705 0.18788 0.0
C1037 C 0.08484 0.47382 0.13211 0.0
C1038 C 0.06455 0.46453 0.12813 0.0
C1039 C 0.09453 0.46824 0.18425 0.0
C1040 C 0.0542 0.44964 0.17668 0.0
C1041 C 0.06367 0.44426 0.22922 0.0
H1042 H 0.61464 0.75362 0.26874 0.0
H1043 H 0.67613 0.77613 0.27237 0.0
H1044 H 0.67208 0.7526 0.18371 0.0
H1045 H 0.65093 0.72529 0.10677 0.0
H1046 H 0.58931 0.7024 0.10491 0.0
H1047 H 0.59359 0.72689 0.18848 0.0
C1048 C 0.62725 0.75346 0.25053 0.0
C1049 C 0.64579 0.76668 0.27935 0.0
C1050 C 0.62473 0.73995 0.19815 0.0
C1051 C 0.66177 0.76607 0.2544 0.0
C1052 C 0.65942 0.75266 0.20211 0.0
C1053 C 0.63844 0.72579 0.12334 0.0
C1054 C 0.61982 0.71212 0.09947 0.0
C1055 C 0.64097 0.73954 0.17375 0.0
C1056 C 0.60377 0.71281 0.12247 0.0
C1057 C 0.60622 0.72673 0.17069 0.0
H1058 H 0.38452 0.01588 0.12618 0.0
H1059 H 0.39328 0.06127 0.25703 0.0
H1060 H 0.36457 0.04416 0.33517 0.0
H1061 H 0.33545 0.01732 0.3582 0.0
H1062 H 0.32355 0.97095 0.22961 0.0
H1063 H 0.35494 0.98726 0.15959 0.0
C1064 C 0.3802 0.02192 0.17252 0.0
C1065 C 0.39145 0.03993 0.18627 0.0
C1066 C 0.36302 0.01185 0.21748 0.0
C1067 C 0.3855 0.04752 0.24627 0.0
C1068 C 0.36883 0.03773 0.29087 0.0
C1069 C 0.33985 0.01066 0.31609 0.0
C1070 C 0.32735 0.99308 0.29865 0.0
C1071 C 0.35739 0.02004 0.27598 0.0
C1072 C 0.33313 0.98455 0.24409 0.0
C1073 C 0.35095 0.99391 0.20365 0.0
H1074 H 0.43448 0.12071 0.92709 0.0
H1075 H 0.42619 0.13264 0.18103 0.0
H1076 H 0.41045 0.14717 0.12585 0.0
H1077 H 0.39404 0.15165 1.00657 0.0
H1078 H 0.39786 0.13517 0.75493 0.0
H1079 H 0.42063 0.12761 0.80672 0.0
C1080 C 0.42991 0.12714 0.96985 0.0
C1081 C 0.43175 0.12602 0.05758 0.0
C1082 C 0.41974 0.13437 0.93772 0.0
C1083 C 0.42517 0.13372 0.11314 0.0
C1084 C 0.41602 0.14184 0.08157 0.0
C1085 C 0.40022 0.14678 0.96295 0.0
C1086 C 0.39412 0.14375 0.87743 0.0
C1087 C 0.41245 0.14154 0.99412 0.0
C1088 C 0.40222 0.13744 0.82131 0.0
C1089 C 0.41519 0.13307 0.85091 0.0
H1090 H 0.95815 0.40801 0.04201 0.0
H1091 H 0.9691 0.44135 0.83281 0.0
H1092 H 0.95009 0.41642 0.73723 0.0
H1093 H 0.93713 0.38531 0.71123 0.0
H1094 H 0.92127 0.35195 0.92445 0.0
H1095 H 0.9348 0.37667 0.0221 0.0
C1096 C 0.95565 0.40978 0.97628 0.0
C1097 C 0.96571 0.42632 0.94265 0.0
C1098 C 0.94399 0.39541 0.92298 0.0
C1099 C 0.96203 0.4286 0.85842 0.0
C1100 C 0.95116 0.41437 0.80404 0.0
C1101 C 0.9358 0.38343 0.77908 0.0
C1102 C 0.92886 0.36699 0.81107 0.0
C1103 C 0.94308 0.3977 0.83489 0.0
C1104 C 0.92691 0.36458 0.89878 0.0
C1105 C 0.93477 0.37873 0.95464 0.0
H1106 H 0.71589 0.67621 0.76857 0.0
H1107 H 0.73693 0.72013 0.93761 0.0
H1108 H 0.70585 0.70686 1.00426 0.0
H1109 H 0.67224 0.68473 1.004 0.0
H1110 H 0.64879 0.64176 0.82652 0.0
H1111 H 0.68129 0.65244 0.77454 0.0
C1112 C 0.71365 0.68255 0.82142 0.0
C1113 C 0.72871 0.69889 0.84994 0.0
C1114 C 0.69531 0.67511 0.85709 0.0
C1115 C 0.72568 0.70735 0.91656 0.0
C1116 C 0.70785 0.69983 0.95406 0.0
C1117 C 0.67409 0.67746 0.95465 0.0
C1118 C 0.65801 0.66255 0.91855 0.0
C1119 C 0.69248 0.68397 0.92335 0.0
C1120 C 0.6609 0.65336 0.85497 0.0
C1121 C 0.67947 0.6595 0.82506 0.0
H1122 H 0.96795 0.63187 0.9944 0.0
H1123 H 0.00342 0.63324 0.79236 0.0
H1124 H 0.98496 0.63897 0.69025 0.0
H1125 H 0.96409 0.65025 0.66629 0.0
H1126 H 0.92871 0.64945 0.86718 0.0
H1127 H 0.94135 0.63653 0.96157 0.0
C1128 C 0.97096 0.63261 0.9274 0.0
C1129 C 0.98707 0.63237 0.90056 0.0
C1130 C 0.96056 0.63639 0.86927 0.0
C1131 C 0.99111 0.63355 0.81399 0.0
C1132 C 0.98066 0.63695 0.75577 0.0
C1133 C 0.95865 0.64663 0.72976 0.0
C1134 C 0.94575 0.65094 0.7604 0.0
C1135 C 0.96617 0.63945 0.78369 0.0
C1136 C 0.93864 0.64617 0.84238 0.0
C1137 C 0.94602 0.63895 0.89663 0.0
H1138 H 0.44948 0.41478 0.97689 0.0
H1139 H 0.39829 0.41728 0.96038 0.0
H1140 H 0.38564 0.39666 0.84428 0.0
H1141 H 0.3876 0.37673 0.75297 0.0
H1142 H 0.4353 0.36948 0.77715 0.0
H1143 H 0.45099 0.39324 0.88277 0.0
C1144 C 0.43554 0.41063 0.94797 0.0
C1145 C 0.42477 0.4174 0.97811 0.0
C1146 C 0.42778 0.39804 0.8819 0.0
C1147 C 0.40675 0.41204 0.93983 0.0
C1148 C 0.39951 0.40034 0.87259 0.0
C1149 C 0.40162 0.38049 0.77991 0.0
C1150 C 0.41036 0.3715 0.75682 0.0
C1151 C 0.40976 0.39316 0.84374 0.0
C1152 C 0.42837 0.37638 0.7936 0.0
C1153 C 0.43722 0.38982 0.85453 0.0
H1154 H 0.70671 0.11759 0.75833 0.0
H1155 H 0.73888 0.13339 0.99522 0.0
H1156 H 0.70892 0.12046 0.07333 0.0
H1157 H 0.67378 0.10008 0.07388 0.0
H1158 H 0.64206 0.08082 0.83683 0.0
H1159 H 0.67131 0.09969 0.75882 0.0
C1160 C 0.70708 0.11875 0.82691 0.0
C1161 C 0.72485 0.12659 0.8713 0.0
C1162 C 0.68978 0.11031 0.87122 0.0
C1163 C 0.72528 0.12758 0.96014 0.0
C1164 C 0.70816 0.12004 1.00467 0.0
C1165 C 0.67325 0.10047 1.00528 0.0
C1166 C 0.65594 0.08917 0.96077 0.0
C1167 C 0.69033 0.11069 0.96099 0.0
C1168 C 0.65535 0.08943 0.87195 0.0
C1169 C 0.67206 0.10017 0.82748 0.0
H1170 H 0.63519 0.9761 0.31072 0.0
H1171 H 0.65137 0.96122 0.08242 0.0
H1172 H 0.63486 0.9718 0.99665 0.0
H1173 H 0.62313 0.99184 0.98863 0.0
H1174 H 0.60531 0.00497 0.21723 0.0
H1175 H 0.61547 0.98885 0.30113 0.0
C1176 C 0.63454 0.97465 0.2422 0.0
C1177 C 0.64511 0.9686 0.2027 0.0
C1178 C 0.62534 0.98103 0.19346 0.0
C1179 C 0.64362 0.96617 0.11426 0.0
C1180 C 0.63441 0.97246 0.06506 0.0
C1181 C 0.62098 0.99067 0.05642 0.0
C1182 C 0.6139 -0.00024 0.09746 0.0
C1183 C 0.62645 0.98101 0.10409 0.0
C1184 C 0.61087 -0.0019 0.18492 0.0
C1185 C 0.61671 0.98892 0.23286 0.0
H1186 H 0.10154 0.71783 0.04919 0.0
H1187 H 0.0488 0.693 0.18762 0.0
H1188 H 0.0624 0.71678 0.28971 0.0
H1189 H 0.08773 0.74518 0.33327 0.0
H1190 H 0.13889 0.77331 0.18554 0.0
H1191 H 0.12778 0.74769 0.09432 0.0
C1192 C 0.09318 0.71778 0.10187 0.0
C1193 C 0.07428 0.70374 0.11176 0.0
C1194 C 0.10083 0.73203 0.15854 0.0
C1195 C 0.0634 0.70367 0.17943 0.0
C1196 C 0.07116 0.71725 0.23781 0.0
C1197 C 0.09673 0.74577 0.28207 0.0
C1198 C 0.11411 0.76117 0.26617 0.0
C1199 C 0.08971 0.73155 0.22731 0.0
C1200 C 0.12543 0.76157 0.19918 0.0
C1201 C 0.11899 0.74698 0.14659 0.0
H1202 H 0.39609 0.44153 0.26122 0.0
H1203 H 0.38985 0.4836 0.19141 0.0
H1204 H 0.35645 0.46764 0.24184 0.0
H1205 H 0.32829 0.44024 0.29586 0.0
H1206 H 0.33722 0.39943 0.36586 0.0
H1207 H 0.37037 0.41651 0.32554 0.0
C1208 C 0.38761 0.44744 0.25837 0.0
C1209 C 0.39531 0.46365 0.22261 0.0
C1210 C 0.3688 0.43829 0.28671 0.0
C1211 C 0.38416 0.47111 0.21924 0.0
C1212 C 0.36507 0.46192 0.24738 0.0
C1213 C 0.33756 0.43519 0.30264 0.0
C1214 C 0.33004 0.41843 0.33309 0.0
C1215 C 0.35707 0.44526 0.27955 0.0
C1216 C 0.34237 0.41218 0.34245 0.0
C1217 C 0.36145 0.42194 0.31934 0.0
H1218 H 0.74065 0.81048 0.55051 0.0
H1219 H 0.71425 0.76937 0.36218 0.0
H1220 H 0.73599 0.75996 0.40629 0.0
H1221 H 0.75825 0.76062 0.51297 0.0
H1222 H 0.7808 0.79876 0.71482 0.0
H1223 H 0.76534 0.81273 0.64934 0.0
C1224 C 0.73986 0.79962 0.51817 0.0
C1225 C 0.72576 0.79045 0.4539 0.0
C1226 C 0.75182 0.79394 0.54613 0.0
C1227 C 0.72482 0.77641 0.41263 0.0
C1228 C 0.73727 0.77111 0.43759 0.0
C1229 C 0.76044 0.77241 0.54044 0.0
C1230 C 0.77088 0.77894 0.61723 0.0
C1231 C 0.75031 0.77941 0.50613 0.0
C1232 C 0.77319 0.79387 0.6544 0.0
C1233 C 0.76407 0.80161 0.61777 0.0
H1234 H 0.26783 0.04293 0.43461 0.0
H1235 H 0.30003 0.02471 0.56492 0.0
H1236 H 0.30718 0.04433 0.68209 0.0
H1237 H 0.30892 0.06941 0.73809 0.0
H1238 H 0.28448 0.09356 0.59694 0.0
H1239 H 0.26923 0.06905 0.4958 0.0
C1240 C 0.27619 0.04325 0.48933 0.0
C1241 C 0.28285 0.03193 0.49266 0.0
C1242 C 0.28174 0.05582 0.5546 0.0
C1243 C 0.29406 0.03269 0.56254 0.0
C1244 C 0.29837 0.04411 0.62944 0.0
C1245 C 0.29995 0.06921 0.68617 0.0
C1246 C 0.29809 0.08334 0.67422 0.0
C1247 C 0.2928 0.05603 0.62506 0.0
C1248 C 0.28616 0.08277 0.60742 0.0
C1249 C 0.27769 0.06888 0.54883 0.0
H1250 H 0.04567 0.35674 0.46806 0.0
H1251 H 0.04118 0.40148 0.45325 0.0
H1252 H 0.00907 0.38539 0.51059 0.0
H1253 H 0.98281 0.35926 0.56974 0.0
H1254 H 0.98518 0.3135 0.57859 0.0
H1255 H 0.01758 0.32929 0.51862 0.0
C1256 C 0.03757 0.36288 0.47692 0.0
C1257 C 0.0459 0.38034 0.45693 0.0
C1258 C 0.01883 0.35343 0.50926 0.0
C1259 C 0.03518 0.3881 0.46806 0.0
C1260 C 0.01681 0.37892 0.50117 0.0
C1261 C 0.99042 0.35272 0.55871 0.0
C1262 C 0.98183 0.33535 0.57968 0.0
C1263 C 0.00862 0.3617 0.52289 0.0
C1264 C 0.99161 0.32691 0.56322 0.0
C1265 C 0.0101 0.33595 0.52911 0.0
H1266 H 0.30118 0.30551 0.69079 0.0
H1267 H 0.32821 0.30351 0.46307 0.0
H1268 H 0.3095 0.31211 0.37939 0.0
H1269 H 0.29214 0.32714 0.3788 0.0
H1270 H 0.26572 0.33019 0.60619 0.0
H1271 H 0.27697 0.31388 0.68225 0.0
C1272 C 0.30222 0.30617 0.62237 0.0
C1273 C 0.31622 0.30424 0.58274 0.0
C1274 C 0.2918 0.31166 0.57514 0.0
C1275 C 0.31766 0.30523 0.49435 0.0
C1276 C 0.30706 0.31023 0.44676 0.0
C1277 C 0.28819 0.32356 0.44402 0.0
C1278 C 0.27839 0.32994 0.48744 0.0
C1279 C 0.29508 0.31457 0.48742 0.0
C1280 C 0.27321 0.32529 0.57169 0.0
C1281 C 0.27986 0.31616 0.61539 0.0
H1282 H 0.73348 0.07568 0.66042 0.0
H1283 H 0.78345 0.07358 0.72443 0.0
H1284 H 0.77454 0.05181 0.61023 0.0
H1285 H 0.75167 0.03326 0.49259 0.0
H1286 H 0.70602 0.04125 0.41739 0.0
H1287 H 0.71487 0.06178 0.53297 0.0
C1288 C 0.74248 0.0705 0.64965 0.0
C1289 C 0.75875 0.07579 0.70176 0.0
C1290 C 0.73831 0.05947 0.58036 0.0
C1291 C 0.77053 0.06927 0.68607 0.0
C1292 C 0.76557 0.05706 0.62028 0.0
C1293 C 0.74403 0.03986 0.50031 0.0
C1294 C 0.728 0.03547 0.44705 0.0
C1295 C 0.74948 0.05213 0.56652 0.0
C1296 C 0.71835 0.04425 0.45732 0.0
C1297 C 0.72321 0.05587 0.52421 0.0
H1298 H -0.00034 0.75684 0.68964 0.0
H1299 H 0.97159 0.72249 0.4742 0.0
H1300 H -0.00045 0.7402 0.38846 0.0
H1301 H 0.03382 0.76233 0.38247 0.0
H1302 H 0.06253 0.797 0.59568 0.0
H1303 H 0.0325 0.78265 0.67394 0.0
C1304 C -0.00047 0.75356 0.62333 0.0
C1305 C 0.98389 0.73812 0.58886 0.0
C1306 C 0.01585 0.76378 0.57425 0.0
C1307 C 0.98377 0.73402 0.50276 0.0
C1308 C -0.00029 0.74418 0.45354 0.0
C1309 C 0.0333 0.76704 0.44509 0.0
C1310 C 0.05025 0.78049 0.48384 0.0
C1311 C 0.01615 0.75859 0.48978 0.0
C1312 C 0.04953 0.78665 0.56464 0.0
C1313 C 0.03243 0.77833 0.6097 0.0
loop_
_geom_bond_atom_site_label_1
_geom_bond_atom_site_label_2
_geom_bond_distance
_geom_bond_site_symmetry_2
_ccdc_geom_bond_type
Co0 N4 2.148 1_554 S
Co0 N10 2.128 . S
Co0 N20 2.194 . S
Co0 O25 2.351 1_454 S
Co0 O26 2.155 . S
Co0 O27 2.096 . S
C1 N4 1.301 . S
C1 N5 1.328 . S
C1 H6 0.930 . S
C2 C3 1.333 . S
C2 N4 1.317 . S
C2 H7 0.930 . S
C3 C2 1.333 . S
C3 N5 1.350 . S
C3 H29 0.931 . S
N4 Co0 2.148 1_556 S
N4 C1 1.301 . S
N4 C2 1.317 . S
N5 C1 1.328 . S
N5 C3 1.350 . S
H6 C1 0.930 . S
H7 C2 0.930 . S
C8 O9 1.224 . S
C8 O27 1.247 . S
O9 C8 1.224 . S
N10 Co0 2.128 . S
N10 C11 1.355 . S
N10 C13 1.311 . S
C11 N10 1.355 . S
C11 C12 1.363 . S
C11 H23 0.929 1_455 S
C12 C11 1.363 . S
C12 N14 1.375 . S
C12 H30 0.931 1_455 S
C13 N10 1.311 . S
C13 N14 1.347 . S
C13 H24 0.929 . S
N14 C12 1.375 . S
N14 C13 1.347 . S
C15 C18 1.365 . S
C15 N20 1.328 1_556 S
C15 H21 0.929 . S
C16 C17 1.362 . S
C16 C19 1.378 . S
C16 H31 0.929 . S
C17 C16 1.362 . S
C17 C18 1.366 1_554 S
C18 C15 1.365 . S
C18 C17 1.366 1_556 S
C18 H32 0.930 . S
C19 C16 1.378 . S
C19 N20 1.315 . S
C19 H22 0.930 . S
N20 Co0 2.194 . S
N20 C15 1.328 1_554 S
N20 C19 1.315 . S
H21 C15 0.929 . S
H22 C19 0.930 . S
H23 C11 0.929 1_655 S
H24 C13 0.929 . S
O25 Co0 2.351 1_656 S
O25 C28 1.244 . S
O26 Co0 2.155 . S
O26 C28 1.240 1_454 S
O27 Co0 2.096 . S
O27 C8 1.247 . S
C28 O25 1.244 . S
C28 O26 1.240 1_656 S
H29 C3 0.931 . S
H30 C12 0.931 1_655 S
H31 C16 0.929 . S
H32 C18 0.930 . S
Co33 N37 2.148 . S
Co33 N43 2.128 1_554 S
Co33 N53 2.194 . S
Co33 O58 2.351 . S
Co33 O59 2.155 . S
Co33 O60 2.096 1_554 S
C34 N37 1.301 . S
C34 N38 1.328 . S
C34 H39 0.930 . S
C35 C36 1.333 . S
C35 N37 1.317 . S
C35 H40 0.930 . S
C36 C35 1.333 . S
C36 N38 1.350 . S
C36 H62 0.931 . S
N37 Co33 2.148 . S
N37 C34 1.301 . S
N37 C35 1.317 . S
N38 C34 1.328 . S
N38 C36 1.350 . S
H39 C34 0.930 . S
H40 C35 0.930 . S
C41 O42 1.224 . S
C41 O60 1.247 . S
O42 C41 1.224 . S
N43 Co33 2.128 1_556 S
N43 C44 1.355 . S
N43 C46 1.311 . S
C44 N43 1.355 . S
C44 C45 1.363 . S
C44 H56 0.929 . S
C45 C44 1.363 . S
C45 N47 1.375 . S
C45 H63 0.931 . S
C46 N43 1.311 . S
C46 N47 1.347 . S
C46 H57 0.929 . S
N47 C45 1.375 . S
N47 C46 1.347 . S
C48 C51 1.365 . S
C48 N53 1.328 . S
C48 H54 0.929 . S
C49 C50 1.362 . S
C49 C52 1.378 . S
C49 H64 0.929 1_554 S
C50 C49 1.362 . S
C50 C51 1.366 . S
C51 C48 1.365 . S
C51 C50 1.366 . S
C51 H65 0.930 . S
C52 C49 1.378 . S
C52 N53 1.315 . S
C52 H55 0.930 1_554 S
N53 Co33 2.194 . S
N53 C48 1.328 . S
N53 C52 1.315 . S
H54 C48 0.929 . S
H55 C52 0.930 1_556 S
H56 C44 0.929 . S
H57 C46 0.929 . S
O58 Co33 2.351 . S
O58 C61 1.244 . S
O59 Co33 2.155 . S
O59 C61 1.240 . S
O60 Co33 2.096 1_556 S
O60 C41 1.247 . S
C61 O58 1.244 . S
C61 O59 1.240 . S
H62 C36 0.931 . S
H63 C45 0.931 . S
H64 C49 0.929 1_556 S
H65 C51 0.930 . S
Co66 N70 2.148 1_554 S
Co66 N76 2.128 . S
Co66 N86 2.194 . S
Co66 O91 2.351 . S
Co66 O92 2.155 . S
Co66 O93 2.096 . S
C67 N70 1.301 . S
C67 N71 1.328 . S
C67 H72 0.930 . S
C68 C69 1.333 . S
C68 N70 1.317 . S
C68 H73 0.930 . S
C69 C68 1.333 . S
C69 N71 1.350 . S
C69 H95 0.931 . S
N70 Co66 2.148 1_556 S
N70 C67 1.301 . S
N70 C68 1.317 . S
N71 C67 1.328 . S
N71 C69 1.350 . S
H72 C67 0.930 . S
H73 C68 0.930 . S
C74 O75 1.224 . S
C74 O93 1.247 . S
O75 C74 1.224 . S
N76 Co66 2.128 . S
N76 C77 1.355 . S
N76 C79 1.311 . S
C77 N76 1.355 . S
C77 C78 1.363 . S
C77 H89 0.929 . S
C78 C77 1.363 . S
C78 N80 1.375 . S
C78 H96 0.931 . S
C79 N76 1.311 . S
C79 N80 1.347 . S
C79 H90 0.929 . S
N80 C78 1.375 . S
N80 C79 1.347 . S
C81 C84 1.365 . S
C81 N86 1.328 . S
C81 H87 0.936 . S
C82 C83 1.362 . S
C82 C85 1.378 . S
C82 H97 0.929 . S
C83 C82 1.362 . S
C83 C84 1.366 . S
C84 C81 1.365 . S
C84 C83 1.366 . S
C84 H98 0.930 . S
C85 C82 1.378 . S
C85 N86 1.315 . S
C85 H88 0.930 . S
N86 Co66 2.194 . S
N86 C81 1.328 . S
N86 C85 1.315 . S
H87 C81 0.936 . S
H88 C85 0.930 . S
H89 C77 0.929 . S
H90 C79 0.929 . S
O91 Co66 2.351 . S
O91 C94 1.244 . S
O92 Co66 2.155 . S
O92 C94 1.240 . S
O93 Co66 2.096 . S
O93 C74 1.247 . S
C94 O91 1.244 . S
C94 O92 1.240 . S
H95 C69 0.931 . S
H96 C78 0.931 . S
H97 C82 0.929 . S
H98 C84 0.930 . S
Co99 N103 2.148 . S
Co99 N109 2.128 1_554 S
Co99 N119 2.194 . S
Co99 O124 2.351 . S
Co99 O125 2.155 . S
Co99 O126 2.096 1_554 S
C100 N103 1.301 . S
C100 N104 1.328 . S
C100 H105 0.930 . S
C101 C102 1.333 . S
C101 N103 1.317 . S
C101 H106 0.930 . S
C102 C101 1.333 . S
C102 N104 1.350 . S
C102 H128 0.931 . S
N103 Co99 2.148 . S
N103 C100 1.301 . S
N103 C101 1.317 . S
N104 C100 1.328 . S
N104 C102 1.350 . S
H105 C100 0.930 . S
H106 C101 0.930 . S
C107 O108 1.224 . S
C107 O126 1.247 . S
O108 C107 1.224 . S
N109 Co99 2.128 1_556 S
N109 C110 1.355 . S
N109 C112 1.311 . S
C110 N109 1.355 . S
C110 C111 1.363 . S
C110 H122 0.929 . S
C111 C110 1.363 . S
C111 N113 1.375 . S
C111 H129 0.931 . S
C112 N109 1.311 . S
C112 N113 1.347 . S
C112 H123 0.929 . S
N113 C111 1.375 . S
N113 C112 1.347 . S
C114 C117 1.365 . S
C114 N119 1.328 . S
C114 H120 0.929 . S
C115 C116 1.362 1_556 S
C115 C118 1.378 . S
C115 H130 0.929 . S
C116 C115 1.362 1_554 S
C116 C117 1.366 . S
C117 C114 1.365 . S
C117 C116 1.366 . S
C117 H131 0.930 . S
C118 C115 1.378 . S
C118 N119 1.315 1_556 S
C118 H121 0.930 . S
N119 Co99 2.194 . S
N119 C114 1.328 . S
N119 C118 1.315 1_554 S
H120 C114 0.929 . S
H121 C118 0.930 . S
H122 C110 0.929 . S
H123 C112 0.929 . S
O124 Co99 2.351 . S
O124 C127 1.244 . S
O125 Co99 2.155 . S
O125 C127 1.240 . S
O126 Co99 2.096 1_556 S
O126 C107 1.247 . S
C127 O124 1.244 . S
C127 O125 1.240 . S
H128 C102 0.931 . S
H129 C111 0.931 . S
H130 C115 0.929 . S
H131 C117 0.930 . S
Co132 N136 2.148 1_554 S
Co132 N142 2.128 . S
Co132 N152 2.194 . S
Co132 O157 2.351 1_554 S
Co132 O158 2.155 . S
Co132 O159 2.096 . S
C133 N136 1.301 . S
C133 N137 1.328 . S
C133 H138 0.930 . S
C134 C135 1.333 . S
C134 N136 1.317 . S
C134 H139 0.930 . S
C135 C134 1.333 . S
C135 N137 1.350 . S
C135 H161 0.931 . S
N136 Co132 2.148 1_556 S
N136 C133 1.301 . S
N136 C134 1.317 . S
N137 C133 1.328 . S
N137 C135 1.350 . S
H138 C133 0.930 . S
H139 C134 0.930 . S
C140 O141 1.224 . S
C140 O159 1.247 . S
O141 C140 1.224 . S
N142 Co132 2.128 . S
N142 C143 1.355 . S
N142 C145 1.311 . S
C143 N142 1.355 . S
C143 C144 1.363 . S
C143 H155 0.929 . S
C144 C143 1.363 . S
C144 N146 1.375 . S
C144 H162 0.931 . S
C145 N142 1.311 . S
C145 N146 1.347 . S
C145 H156 0.929 . S
N146 C144 1.375 . S
N146 C145 1.347 . S
C147 C150 1.365 . S
C147 N152 1.328 . S
C147 H153 0.929 1_554 S
C148 C149 1.362 . S
C148 C151 1.378 . S
C148 H163 0.929 . S
C149 C148 1.362 . S
C149 C150 1.366 . S
C150 C147 1.365 . S
C150 C149 1.366 . S
C150 H164 0.930 1_554 S
C151 C148 1.378 . S
C151 N152 1.315 . S
C151 H154 0.930 . S
N152 Co132 2.194 . S
N152 C147 1.328 . S
N152 C151 1.315 . S
H153 C147 0.929 1_556 S
H154 C151 0.930 . S
H155 C143 0.929 . S
H156 C145 0.929 . S
O157 Co132 2.351 1_556 S
O157 C160 1.244 . S
O158 Co132 2.155 . S
O158 C160 1.240 1_554 S
O159 Co132 2.096 . S
O159 C140 1.247 . S
C160 O157 1.244 . S
C160 O158 1.240 1_556 S
H161 C135 0.931 . S
H162 C144 0.931 . S
H163 C148 0.929 . S
H164 C150 0.930 1_556 S
Co165 N169 2.148 . S
Co165 N175 2.128 1_554 S
Co165 N185 2.194 . S
Co165 O190 2.351 . S
Co165 O191 2.155 . S
Co165 O192 2.096 . S
C166 N169 1.301 . S
C166 N170 1.328 . S
C166 H171 0.930 . S
C167 C168 1.333 . S
C167 N169 1.317 . S
C167 H172 0.930 . S
C168 C167 1.333 . S
C168 N170 1.350 . S
C168 H194 0.931 . S
N169 Co165 2.148 . S
N169 C166 1.301 . S
N169 C167 1.317 . S
N170 C166 1.328 . S
N170 C168 1.350 . S
H171 C166 0.930 . S
H172 C167 0.930 . S
C173 O174 1.224 . S
C173 O192 1.247 1_556 S
O174 C173 1.224 . S
N175 Co165 2.128 1_556 S
N175 C176 1.355 . S
N175 C178 1.311 . S
C176 N175 1.355 . S
C176 C177 1.363 . S
C176 H188 0.929 . S
C177 C176 1.363 . S
C177 N179 1.375 . S
C177 H195 0.931 . S
C178 N175 1.311 . S
C178 N179 1.347 . S
C178 H189 0.929 . S
N179 C177 1.375 . S
N179 C178 1.347 . S
C180 C183 1.365 . S
C180 N185 1.328 . S
C180 H186 0.929 . S
C181 C182 1.362 . S
C181 C184 1.378 . S
C181 H196 0.929 1_554 S
C182 C181 1.362 . S
C182 C183 1.366 . S
C183 C180 1.365 . S
C183 C182 1.366 . S
C183 H197 0.930 . S
C184 C181 1.378 . S
C184 N185 1.315 . S
C184 H187 0.930 . S
N185 Co165 2.194 . S
N185 C180 1.328 . S
N185 C184 1.315 . S
H186 C180 0.929 . S
H187 C184 0.930 . S
H188 C176 0.929 . S
H189 C178 0.929 . S
O190 Co165 2.351 . S
O190 C193 1.244 . S
O191 Co165 2.155 . S
O191 C193 1.240 . S
O192 Co165 2.096 . S
O192 C173 1.247 1_554 S
C193 O190 1.244 . S
C193 O191 1.240 . S
H194 C168 0.931 . S
H195 C177 0.931 . S
H196 C181 0.929 1_556 S
H197 C183 0.930 . S
Co198 N202 2.148 . S
Co198 N208 2.128 . S
Co198 N218 2.194 . S
Co198 O223 2.351 . S
Co198 O224 2.155 . S
Co198 O225 2.096 . S
C199 N202 1.301 . S
C199 N203 1.328 . S
C199 H204 0.930 . S
C200 C201 1.333 . S
C200 N202 1.317 . S
C200 H205 0.930 . S
C201 C200 1.333 . S
C201 N203 1.350 . S
C201 H227 0.931 . S
N202 Co198 2.148 . S
N202 C199 1.301 . S
N202 C200 1.317 . S
N203 C199 1.328 . S
N203 C201 1.350 . S
H204 C199 0.930 . S
H205 C200 0.930 . S
C206 O207 1.224 . S
C206 O225 1.247 . S
O207 C206 1.224 . S
N208 Co198 2.128 . S
N208 C209 1.355 . S
N208 C211 1.311 . S
C209 N208 1.355 . S
C209 C210 1.363 . S
C209 H221 0.929 . S
C210 C209 1.363 . S
C210 N212 1.375 . S
C210 H228 0.931 . S
C211 N208 1.311 . S
C211 N212 1.347 . S
C211 H222 0.929 . S
N212 C210 1.375 . S
N212 C211 1.347 . S
C213 C216 1.365 . S
C213 N218 1.328 . S
C213 H219 0.929 . S
C214 C215 1.362 . S
C214 C217 1.378 . S
C214 H229 0.929 . S
C215 C214 1.362 . S
C215 C216 1.366 . S
C216 C213 1.365 . S
C216 C215 1.366 . S
C216 H230 0.930 . S
C217 C214 1.378 . S
C217 N218 1.315 . S
C217 H220 0.930 . S
N218 Co198 2.194 . S
N218 C213 1.328 . S
N218 C217 1.315 . S
H219 C213 0.929 . S
H220 C217 0.930 . S
H221 C209 0.929 . S
H222 C211 0.929 . S
O223 Co198 2.351 . S
O223 C226 1.244 . S
O224 Co198 2.155 . S
O224 C226 1.240 . S
O225 Co198 2.096 . S
O225 C206 1.247 . S
C226 O223 1.244 . S
C226 O224 1.240 . S
H227 C201 0.931 . S
H228 C210 0.931 . S
H229 C214 0.929 . S
H230 C216 0.930 . S
Co231 N235 2.148 . S
Co231 N241 2.128 . S
Co231 N251 2.194 1_545 S
Co231 O256 2.351 . S
Co231 O257 2.155 . S
Co231 O258 2.096 . S
C232 N235 1.301 . S
C232 N236 1.328 . S
C232 H237 0.905 . S
C233 C234 1.333 . S
C233 N235 1.317 . S
C233 H238 0.930 . S
C234 C233 1.333 . S
C234 N236 1.350 . S
C234 H260 0.931 . S
N235 Co231 2.148 . S
N235 C232 1.301 . S
N235 C233 1.317 . S
N236 C232 1.328 . S
N236 C234 1.350 . S
H237 C232 0.905 . S
H238 C233 0.930 . S
C239 O240 1.224 1_545 S
C239 O258 1.247 . S
O240 C239 1.224 1_565 S
N241 Co231 2.128 . S
N241 C242 1.352 . S
N241 C244 1.311 . S
C242 N241 1.352 . S
C242 C243 1.359 . S
C242 H254 0.930 1_545 S
C243 C242 1.359 . S
C243 N245 1.373 . S
C243 H261 0.942 1_545 S
C244 N241 1.311 . S
C244 N245 1.347 . S
C244 H255 0.929 . S
N245 C243 1.373 . S
N245 C244 1.347 . S
C246 C249 1.365 . S
C246 N251 1.328 . S
C246 H252 0.929 . S
C247 C248 1.362 . S
C247 C250 1.378 . S
C247 H262 0.929 . S
C248 C247 1.362 . S
C248 C249 1.366 . S
C249 C246 1.365 . S
C249 C248 1.366 . S
C249 H263 0.930 . S
C250 C247 1.378 . S
C250 N251 1.315 . S
C250 H253 0.930 . S
N251 Co231 2.194 1_565 S
N251 C246 1.328 . S
N251 C250 1.315 . S
H252 C246 0.929 . S
H253 C250 0.930 . S
H254 C242 0.930 1_565 S
H255 C244 0.929 . S
O256 Co231 2.351 . S
O256 C259 1.244 . S
O257 Co231 2.155 . S
O257 C259 1.240 . S
O258 Co231 2.096 . S
O258 C239 1.247 . S
C259 O256 1.244 . S
C259 O257 1.240 . S
H260 C234 0.931 . S
H261 C243 0.942 1_565 S
H262 C247 0.929 . S
H263 C249 0.930 . S
Co264 N268 2.148 . S
Co264 N274 2.128 . S
Co264 N284 2.194 . S
Co264 O289 2.351 . S
Co264 O290 2.155 . S
Co264 O291 2.096 . S
C265 N268 1.301 . S
C265 N269 1.328 . S
C265 H270 0.930 . S
C266 C267 1.333 . S
C266 N268 1.317 . S
C266 H271 0.930 . S
C267 C266 1.333 . S
C267 N269 1.350 . S
C267 H293 0.931 . S
N268 Co264 2.148 . S
N268 C265 1.301 . S
N268 C266 1.317 . S
N269 C265 1.328 . S
N269 C267 1.350 . S
H270 C265 0.930 . S
H271 C266 0.930 . S
C272 O273 1.224 . S
C272 O291 1.247 . S
O273 C272 1.224 . S
N274 Co264 2.128 . S
N274 C275 1.355 . S
N274 C277 1.311 . S
C275 N274 1.355 . S
C275 C276 1.363 . S
C275 H287 0.929 . S
C276 C275 1.363 . S
C276 N278 1.375 . S
C276 H294 0.931 . S
C277 N274 1.311 . S
C277 N278 1.347 . S
C277 H288 0.929 . S
N278 C276 1.375 . S
N278 C277 1.347 . S
C279 C282 1.365 . S
C279 N284 1.328 . S
C279 H285 0.929 . S
C280 C281 1.362 . S
C280 C283 1.378 . S
C280 H295 0.929 . S
C281 C280 1.362 . S
C281 C282 1.366 . S
C282 C279 1.365 . S
C282 C281 1.366 . S
C282 H296 0.930 . S
C283 C280 1.378 . S
C283 N284 1.315 . S
C283 H286 0.930 . S
N284 Co264 2.194 . S
N284 C279 1.328 . S
N284 C283 1.315 . S
H285 C279 0.929 . S
H286 C283 0.930 . S
H287 C275 0.929 . S
H288 C277 0.929 . S
O289 Co264 2.351 . S
O289 C292 1.244 . S
O290 Co264 2.155 . S
O290 C292 1.240 . S
O291 Co264 2.096 . S
O291 C272 1.247 . S
C292 O289 1.244 . S
C292 O290 1.240 . S
H293 C267 0.931 . S
H294 C276 0.931 . S
H295 C280 0.929 . S
H296 C282 0.930 . S
Co297 N301 2.148 . S
Co297 N307 2.128 . S
Co297 N317 2.194 . S
Co297 O322 2.351 1_565 S
Co297 O323 2.155 1_565 S
Co297 O324 2.096 1_565 S
C298 N301 1.301 . S
C298 N302 1.328 . S
C298 H303 0.930 . S
C299 C300 1.333 . S
C299 N301 1.317 . S
C299 H304 0.930 . S
C300 C299 1.333 . S
C300 N302 1.350 . S
C300 H326 0.931 . S
N301 Co297 2.148 . S
N301 C298 1.301 . S
N301 C299 1.317 . S
N302 C298 1.328 . S
N302 C300 1.350 . S
H303 C298 0.930 . S
H304 C299 0.930 . S
C305 O306 1.224 . S
C305 O324 1.247 1_565 S
O306 C305 1.224 . S
N307 Co297 2.128 . S
N307 C308 1.355 . S
N307 C310 1.311 1_565 S
C308 N307 1.355 . S
C308 C309 1.363 . S
C308 H320 0.929 . S
C309 C308 1.363 . S
C309 N311 1.358 1_565 S
C309 H327 0.931 . S
C310 N307 1.311 1_545 S
C310 N311 1.357 . S
C310 H321 0.929 . S
N311 C309 1.358 1_545 S
N311 C310 1.357 . S
C312 C315 1.365 . S
C312 N317 1.328 . S
C312 H318 0.929 . S
C313 C314 1.362 . S
C313 C316 1.378 . S
C313 H328 0.929 . S
C314 C313 1.362 . S
C314 C315 1.366 . S
C315 C312 1.365 . S
C315 C314 1.366 . S
C315 H329 0.930 . S
C316 C313 1.378 . S
C316 N317 1.315 . S
C316 H319 0.930 . S
N317 Co297 2.194 . S
N317 C312 1.328 . S
N317 C316 1.315 . S
H318 C312 0.929 . S
H319 C316 0.930 . S
H320 C308 0.929 . S
H321 C310 0.929 . S
O322 Co297 2.351 1_545 S
O322 C325 1.244 . S
O323 Co297 2.155 1_545 S
O323 C325 1.240 . S
O324 Co297 2.096 1_545 S
O324 C305 1.247 1_545 S
C325 O322 1.244 . S
C325 O323 1.240 . S
H326 C300 0.931 . S
H327 C309 0.931 . S
H328 C313 0.929 . S
H329 C315 0.930 . S
Co330 N334 2.148 . S
Co330 N340 2.128 . S
Co330 N350 2.194 . S
Co330 O355 2.351 . S
Co330 O356 2.155 . S
Co330 O357 2.096 . S
C331 N334 1.301 . S
C331 N335 1.328 . S
C331 H336 0.930 . S
C332 C333 1.333 . S
C332 N334 1.317 . S
C332 H337 0.930 . S
C333 C332 1.333 . S
C333 N335 1.350 . S
C333 H359 0.931 . S
N334 Co330 2.148 . S
N334 C331 1.301 . S
N334 C332 1.317 . S
N335 C331 1.328 . S
N335 C333 1.350 . S
H336 C331 0.930 . S
H337 C332 0.930 . S
C338 O339 1.224 . S
C338 O357 1.247 . S
O339 C338 1.224 . S
N340 Co330 2.128 . S
N340 C341 1.355 . S
N340 C343 1.311 . S
C341 N340 1.355 . S
C341 C342 1.363 . S
C341 H353 0.929 . S
C342 C341 1.363 . S
C342 N344 1.375 . S
C342 H360 0.931 . S
C343 N340 1.311 . S
C343 N344 1.347 . S
C343 H354 0.929 . S
N344 C342 1.375 . S
N344 C343 1.347 . S
C345 C348 1.365 . S
C345 N350 1.328 . S
C345 H351 0.929 . S
C346 C347 1.362 . S
C346 C349 1.378 . S
C346 H361 0.929 . S
C347 C346 1.362 . S
C347 C348 1.366 . S
C348 C345 1.365 . S
C348 C347 1.366 . S
C348 H362 0.930 . S
C349 C346 1.378 . S
C349 N350 1.315 . S
C349 H352 0.930 . S
N350 Co330 2.194 . S
N350 C345 1.328 . S
N350 C349 1.315 . S
H351 C345 0.929 . S
H352 C349 0.930 . S
H353 C341 0.929 . S
H354 C343 0.929 . S
O355 Co330 2.351 . S
O355 C358 1.244 . S
O356 Co330 2.155 . S
O356 C358 1.240 . S
O357 Co330 2.096 . S
O357 C338 1.247 . S
C358 O355 1.244 . S
C358 O356 1.240 . S
H359 C333 0.931 . S
H360 C342 0.931 . S
H361 C346 0.929 . S
H362 C348 0.930 . S
Co363 N367 2.148 . S
Co363 N373 2.128 . S
Co363 N383 2.194 . S
Co363 O388 2.351 . S
Co363 O389 2.155 . S
Co363 O390 2.096 . S
C364 N367 1.301 . S
C364 N368 1.328 . S
C364 H369 0.930 . S
C365 C366 1.333 . S
C365 N367 1.317 . S
C365 H370 0.930 . S
C366 C365 1.333 . S
C366 N368 1.350 . S
C366 H392 0.931 . S
N367 Co363 2.148 . S
N367 C364 1.301 . S
N367 C365 1.317 . S
N368 C364 1.328 . S
N368 C366 1.350 . S
H369 C364 0.930 . S
H370 C365 0.930 . S
C371 O372 1.224 . S
C371 O390 1.247 . S
O372 C371 1.224 . S
N373 Co363 2.128 . S
N373 C374 1.355 . S
N373 C376 1.311 . S
C374 N373 1.355 . S
C374 C375 1.363 . S
C374 H386 0.929 . S
C375 C374 1.363 . S
C375 N377 1.375 . S
C375 H393 0.931 . S
C376 N373 1.311 . S
C376 N377 1.347 . S
C376 H387 0.929 . S
N377 C375 1.375 . S
N377 C376 1.347 . S
C378 C381 1.365 . S
C378 N383 1.328 . S
C378 H384 0.929 . S
C379 C380 1.362 . S
C379 C382 1.378 . S
C379 H394 0.929 . S
C380 C379 1.362 . S
C380 C381 1.366 . S
C381 C378 1.365 . S
C381 C380 1.366 . S
C381 H395 0.930 . S
C382 C379 1.378 . S
C382 N383 1.315 . S
C382 H385 0.930 . S
N383 Co363 2.194 . S
N383 C378 1.328 . S
N383 C382 1.315 . S
H384 C378 0.929 . S
H385 C382 0.930 . S
H386 C374 0.929 . S
H387 C376 0.929 . S
O388 Co363 2.351 . S
O388 C391 1.244 . S
O389 Co363 2.155 . S
O389 C391 1.240 . S
O390 Co363 2.096 . S
O390 C371 1.247 . S
C391 O388 1.244 . S
C391 O389 1.240 . S
H392 C366 0.931 . S
H393 C375 0.931 . S
H394 C379 0.929 . S
H395 C381 0.930 . S
Co396 N400 2.148 . S
Co396 N406 2.128 . S
Co396 N416 2.194 . S
Co396 O421 2.351 . S
Co396 O422 2.155 . S
Co396 O423 2.096 . S
C397 N400 1.301 . S
C397 N401 1.328 . S
C397 H402 0.930 . S
C398 C399 1.333 . S
C398 N400 1.317 . S
C398 H403 0.930 . S
C399 C398 1.333 . S
C399 N401 1.350 . S
C399 H425 0.931 . S
N400 Co396 2.148 . S
N400 C397 1.301 . S
N400 C398 1.317 . S
N401 C397 1.328 . S
N401 C399 1.350 . S
H402 C397 0.930 . S
H403 C398 0.930 . S
C404 O405 1.224 . S
C404 O423 1.247 . S
O405 C404 1.224 . S
N406 Co396 2.128 . S
N406 C407 1.355 . S
N406 C409 1.311 . S
C407 N406 1.355 . S
C407 C408 1.363 . S
C407 H419 0.929 . S
C408 C407 1.363 . S
C408 N410 1.375 . S
C408 H426 0.931 . S
C409 N406 1.311 . S
C409 N410 1.347 . S
C409 H420 0.929 . S
N410 C408 1.375 . S
N410 C409 1.347 . S
C411 C414 1.365 . S
C411 N416 1.328 . S
C411 H417 0.929 . S
C412 C413 1.362 . S
C412 C415 1.378 . S
C412 H427 0.929 . S
C413 C412 1.362 . S
C413 C414 1.366 . S
C414 C411 1.365 . S
C414 C413 1.366 . S
C414 H428 0.930 . S
C415 C412 1.378 . S
C415 N416 1.315 . S
C415 H418 0.930 . S
N416 Co396 2.194 . S
N416 C411 1.328 . S
N416 C415 1.315 . S
H417 C411 0.929 . S
H418 C415 0.930 . S
H419 C407 0.929 . S
H420 C409 0.929 . S
O421 Co396 2.351 . S
O421 C424 1.244 . S
O422 Co396 2.155 . S
O422 C424 1.240 . S
O423 Co396 2.096 . S
O423 C404 1.247 . S
C424 O421 1.244 . S
C424 O422 1.240 . S
H425 C399 0.931 . S
H426 C408 0.931 . S
H427 C412 0.929 . S
H428 C414 0.930 . S
Co429 N433 2.148 . S
Co429 N439 2.128 . S
Co429 N449 2.194 . S
Co429 O454 2.351 . S
Co429 O455 2.155 . S
Co429 O456 2.096 . S
C430 N433 1.301 . S
C430 N434 1.328 . S
C430 H435 0.930 . S
C431 C432 1.333 . S
C431 N433 1.317 . S
C431 H436 0.930 . S
C432 C431 1.333 . S
C432 N434 1.350 . S
C432 H458 0.931 . S
N433 Co429 2.148 . S
N433 C430 1.301 . S
N433 C431 1.317 . S
N434 C430 1.328 . S
N434 C432 1.350 . S
H435 C430 0.930 . S
H436 C431 0.930 . S
C437 O438 1.224 . S
C437 O456 1.247 . S
O438 C437 1.224 . S
N439 Co429 2.128 . S
N439 C440 1.355 . S
N439 C442 1.311 . S
C440 N439 1.355 . S
C440 C441 1.363 . S
C440 H452 0.929 . S
C441 C440 1.363 . S
C441 N443 1.375 . S
C441 H459 0.931 . S
C442 N439 1.311 . S
C442 N443 1.347 . S
C442 H453 0.929 . S
N443 C441 1.375 . S
N443 C442 1.347 . S
C444 C447 1.365 . S
C444 N449 1.328 . S
C444 H450 0.929 . S
C445 C446 1.362 . S
C445 C448 1.378 . S
C445 H460 0.929 . S
C446 C445 1.362 . S
C446 C447 1.366 . S
C447 C444 1.365 . S
C447 C446 1.366 . S
C447 H461 0.930 . S
C448 C445 1.378 . S
C448 N449 1.315 . S
C448 H451 0.930 . S
N449 Co429 2.194 . S
N449 C444 1.328 . S
N449 C448 1.315 . S
H450 C444 0.929 . S
H451 C448 0.930 . S
H452 C440 0.929 . S
H453 C442 0.929 . S
O454 Co429 2.351 . S
O454 C457 1.244 . S
O455 Co429 2.155 . S
O455 C457 1.240 . S
O456 Co429 2.096 . S
O456 C437 1.247 . S
C457 O454 1.244 . S
C457 O455 1.240 . S
H458 C432 0.931 . S
H459 C441 0.931 . S
H460 C445 0.929 . S
H461 C447 0.930 . S
Co462 N466 2.148 . S
Co462 N472 2.128 . S
Co462 N482 2.194 . S
Co462 O487 2.351 . S
Co462 O488 2.155 . S
Co462 O489 2.096 . S
C463 N466 1.301 . S
C463 N467 1.328 . S
C463 H468 0.930 . S
C464 C465 1.333 . S
C464 N466 1.317 . S
C464 H469 0.930 . S
C465 C464 1.333 . S
C465 N467 1.350 . S
C465 H491 0.931 . S
N466 Co462 2.148 . S
N466 C463 1.301 . S
N466 C464 1.317 . S
N467 C463 1.328 . S
N467 C465 1.350 . S
H468 C463 0.930 . S
H469 C464 0.930 . S
C470 O471 1.224 . S
C470 O489 1.247 . S
O471 C470 1.224 . S
N472 Co462 2.128 . S
N472 C473 1.355 . S
N472 C475 1.311 . S
C473 N472 1.355 . S
C473 C474 1.363 . S
C473 H485 0.929 . S
C474 C473 1.363 . S
C474 N476 1.375 . S
C474 H492 0.931 . S
C475 N472 1.311 . S
C475 N476 1.347 . S
C475 H486 0.929 . S
N476 C474 1.375 . S
N476 C475 1.347 . S
C477 C480 1.365 . S
C477 N482 1.328 . S
C477 H483 0.929 . S
C478 C479 1.362 . S
C478 C481 1.378 . S
C478 H493 0.929 . S
C479 C478 1.362 . S
C479 C480 1.366 . S
C480 C477 1.365 . S
C480 C479 1.366 . S
C480 H494 0.930 . S
C481 C478 1.378 . S
C481 N482 1.315 . S
C481 H484 0.930 . S
N482 Co462 2.194 . S
N482 C477 1.328 . S
N482 C481 1.315 . S
H483 C477 0.929 . S
H484 C481 0.930 . S
H485 C473 0.929 . S
H486 C475 0.929 . S
O487 Co462 2.351 . S
O487 C490 1.244 . S
O488 Co462 2.155 . S
O488 C490 1.240 . S
O489 Co462 2.096 . S
O489 C470 1.247 . S
C490 O487 1.244 . S
C490 O488 1.240 . S
H491 C465 0.931 . S
H492 C474 0.931 . S
H493 C478 0.929 . S
H494 C480 0.930 . S
Co495 N499 2.148 . S
Co495 N505 2.128 . S
Co495 N515 2.194 . S
Co495 O520 2.351 . S
Co495 O521 2.155 . S
Co495 O522 2.096 . S
C496 N499 1.301 . S
C496 N500 1.328 . S
C496 H501 0.930 . S
C497 C498 1.333 . S
C497 N499 1.317 . S
C497 H502 0.930 . S
C498 C497 1.333 . S
C498 N500 1.350 . S
C498 H524 0.931 . S
N499 Co495 2.148 . S
N499 C496 1.301 . S
N499 C497 1.317 . S
N500 C496 1.328 . S
N500 C498 1.350 . S
H501 C496 0.930 . S
H502 C497 0.930 . S
C503 O504 1.224 . S
C503 O522 1.247 . S
O504 C503 1.224 . S
N505 Co495 2.128 . S
N505 C506 1.355 . S
N505 C508 1.311 . S
C506 N505 1.355 . S
C506 C507 1.363 . S
C506 H518 0.929 . S
C507 C506 1.363 . S
C507 N509 1.375 . S
C507 H525 0.931 . S
C508 N505 1.311 . S
C508 N509 1.347 . S
C508 H519 0.929 . S
N509 C507 1.375 . S
N509 C508 1.347 . S
C510 C513 1.365 . S
C510 N515 1.328 . S
C510 H516 0.929 . S
C511 C512 1.362 . S
C511 C514 1.378 . S
C511 H526 0.929 . S
C512 C511 1.362 . S
C512 C513 1.366 . S
C513 C510 1.365 . S
C513 C512 1.366 . S
C513 H527 0.930 . S
C514 C511 1.378 . S
C514 N515 1.315 . S
C514 H517 0.930 . S
N515 Co495 2.194 . S
N515 C510 1.328 . S
N515 C514 1.315 . S
H516 C510 0.929 . S
H517 C514 0.930 . S
H518 C506 0.929 . S
H519 C508 0.929 . S
O520 Co495 2.351 . S
O520 C523 1.244 . S
O521 Co495 2.155 . S
O521 C523 1.240 . S
O522 Co495 2.096 . S
O522 C503 1.247 . S
C523 O520 1.244 . S
C523 O521 1.240 . S
H524 C498 0.931 . S
H525 C507 0.931 . S
H526 C511 0.929 . S
H527 C513 0.930 . S
Co528 N532 2.148 . S
Co528 N538 2.128 . S
Co528 N548 2.194 . S
Co528 O553 2.351 . S
Co528 O554 2.155 . S
Co528 O555 2.096 . S
C529 N532 1.301 . S
C529 N533 1.328 . S
C529 H534 0.930 . S
C530 C531 1.333 . S
C530 N532 1.317 . S
C530 H535 0.930 . S
C531 C530 1.333 . S
C531 N533 1.350 . S
C531 H557 0.931 . S
N532 Co528 2.148 . S
N532 C529 1.301 . S
N532 C530 1.317 . S
N533 C529 1.328 . S
N533 C531 1.350 . S
H534 C529 0.930 . S
H535 C530 0.930 . S
C536 O537 1.224 . S
C536 O555 1.247 . S
O537 C536 1.224 . S
N538 Co528 2.128 . S
N538 C539 1.355 . S
N538 C541 1.311 . S
C539 N538 1.355 . S
C539 C540 1.363 . S
C539 H551 0.929 . S
C540 C539 1.363 . S
C540 N542 1.375 . S
C540 H558 0.931 . S
C541 N538 1.311 . S
C541 N542 1.347 . S
C541 H552 0.929 . S
N542 C540 1.375 . S
N542 C541 1.347 . S
C543 C546 1.365 . S
C543 N548 1.328 . S
C543 H549 0.929 . S
C544 C545 1.362 . S
C544 C547 1.378 . S
C544 H559 0.929 . S
C545 C544 1.362 . S
C545 C546 1.366 . S
C546 C543 1.365 . S
C546 C545 1.366 . S
C546 H560 0.930 . S
C547 C544 1.378 . S
C547 N548 1.315 . S
C547 H550 0.930 . S
N548 Co528 2.194 . S
N548 C543 1.328 . S
N548 C547 1.315 . S
H549 C543 0.929 . S
H550 C547 0.930 . S
H551 C539 0.929 . S
H552 C541 0.929 . S
O553 Co528 2.351 . S
O553 C556 1.244 . S
O554 Co528 2.155 . S
O554 C556 1.240 . S
O555 Co528 2.096 . S
O555 C536 1.247 . S
C556 O553 1.244 . S
C556 O554 1.240 . S
H557 C531 0.931 . S
H558 C540 0.931 . S
H559 C544 0.929 . S
H560 C546 0.930 . S
Co561 N565 2.148 . S
Co561 N571 2.128 . S
Co561 N581 2.194 . S
Co561 O586 2.351 . S
Co561 O587 2.155 . S
Co561 O588 2.096 . S
C562 N565 1.301 . S
C562 N566 1.328 . S
C562 H567 0.930 . S
C563 C564 1.333 . S
C563 N565 1.317 . S
C563 H568 0.930 . S
C564 C563 1.333 . S
C564 N566 1.350 . S
C564 H590 0.931 . S
N565 Co561 2.148 . S
N565 C562 1.301 . S
N565 C563 1.317 . S
N566 C562 1.328 . S
N566 C564 1.350 . S
H567 C562 0.930 . S
H568 C563 0.930 . S
C569 O570 1.224 . S
C569 O588 1.247 . S
O570 C569 1.224 . S
N571 Co561 2.128 . S
N571 C572 1.355 . S
N571 C574 1.311 . S
C572 N571 1.355 . S
C572 C573 1.363 . S
C572 H584 0.929 . S
C573 C572 1.363 . S
C573 N575 1.375 . S
C573 H591 0.931 . S
C574 N571 1.311 . S
C574 N575 1.347 . S
C574 H585 0.929 . S
N575 C573 1.375 . S
N575 C574 1.347 . S
C576 C579 1.365 . S
C576 N581 1.328 . S
C576 H582 0.929 . S
C577 C578 1.362 . S
C577 C580 1.378 . S
C577 H592 0.929 . S
C578 C577 1.362 . S
C578 C579 1.366 . S
C579 C576 1.365 . S
C579 C578 1.366 . S
C579 H593 0.930 . S
C580 C577 1.378 . S
C580 N581 1.315 . S
C580 H583 0.930 . S
N581 Co561 2.194 . S
N581 C576 1.328 . S
N581 C580 1.315 . S
H582 C576 0.929 . S
H583 C580 0.930 . S
H584 C572 0.929 . S
H585 C574 0.929 . S
O586 Co561 2.351 . S
O586 C589 1.244 . S
O587 Co561 2.155 . S
O587 C589 1.240 . S
O588 Co561 2.096 . S
O588 C569 1.247 . S
C589 O586 1.244 . S
C589 O587 1.240 . S
H590 C564 0.931 . S
H591 C573 0.931 . S
H592 C577 0.929 . S
H593 C579 0.930 . S
H594 C600 0.930 . S
H595 C603 0.930 . S
H596 C604 0.930 . S
H597 C605 0.930 . S
H598 C608 0.930 . S
H599 C609 0.930 . S
C600 H594 0.930 . S
C600 C601 1.355 . S
C600 C602 1.415 . S
C601 C600 1.355 . S
C601 C603 1.419 . S
C602 C600 1.415 . S
C602 C607 1.425 . S
C602 C609 1.409 . S
C603 H595 0.930 . S
C603 C601 1.419 . S
C603 C604 1.362 . S
C604 H596 0.930 . S
C604 C603 1.362 . S
C604 C607 1.409 . S
C605 H597 0.930 . S
C605 C606 1.355 . S
C605 C607 1.415 . S
C606 C605 1.355 . S
C606 C608 1.419 . S
C607 C602 1.425 . S
C607 C604 1.409 . S
C607 C605 1.415 . S
C608 H598 0.930 . S
C608 C606 1.419 . S
C608 C609 1.362 . S
C609 H599 0.930 . S
C609 C602 1.409 . S
C609 C608 1.362 . S
H610 C616 0.930 . S
H611 C619 0.930 . S
H612 C620 0.930 . S
H613 C621 0.930 . S
H614 C624 0.930 . S
H615 C625 0.930 . S
C616 H610 0.930 . S
C616 C617 1.355 . S
C616 C618 1.415 . S
C617 C616 1.355 . S
C617 C619 1.419 . S
C618 C616 1.415 . S
C618 C623 1.425 . S
C618 C625 1.409 . S
C619 H611 0.930 . S
C619 C617 1.419 . S
C619 C620 1.362 . S
C620 H612 0.930 . S
C620 C619 1.362 . S
C620 C623 1.409 . S
C621 H613 0.930 . S
C621 C622 1.355 . S
C621 C623 1.415 . S
C622 C621 1.355 . S
C622 C624 1.419 . S
C623 C618 1.425 . S
C623 C620 1.409 . S
C623 C621 1.415 . S
C624 H614 0.930 . S
C624 C622 1.419 . S
C624 C625 1.362 . S
C625 H615 0.930 . S
C625 C618 1.409 . S
C625 C624 1.362 . S
H626 C632 0.930 . S
H627 C635 0.930 . S
H628 C636 0.930 . S
H629 C637 0.930 . S
H630 C640 0.930 . S
H631 C641 0.930 . S
C632 H626 0.930 . S
C632 C633 1.355 . S
C632 C634 1.415 . S
C633 C632 1.355 . S
C633 C635 1.419 . S
C634 C632 1.415 . S
C634 C639 1.425 . S
C634 C641 1.409 . S
C635 H627 0.930 . S
C635 C633 1.419 . S
C635 C636 1.362 . S
C636 H628 0.930 . S
C636 C635 1.362 . S
C636 C639 1.409 . S
C637 H629 0.930 . S
C637 C638 1.355 . S
C637 C639 1.415 . S
C638 C637 1.355 . S
C638 C640 1.419 . S
C639 C634 1.425 . S
C639 C636 1.409 . S
C639 C637 1.415 . S
C640 H630 0.930 . S
C640 C638 1.419 . S
C640 C641 1.362 . S
C641 H631 0.930 . S
C641 C634 1.409 . S
C641 C640 1.362 . S
H642 C648 0.930 . S
H643 C651 0.930 . S
H644 C652 0.930 . S
H645 C653 0.930 . S
H646 C656 0.930 . S
H647 C657 0.930 . S
C648 H642 0.930 . S
C648 C649 1.355 . S
C648 C650 1.415 . S
C649 C648 1.355 . S
C649 C651 1.419 . S
C650 C648 1.415 . S
C650 C655 1.425 . S
C650 C657 1.409 . S
C651 H643 0.930 . S
C651 C649 1.419 . S
C651 C652 1.362 . S
C652 H644 0.930 . S
C652 C651 1.362 . S
C652 C655 1.409 . S
C653 H645 0.930 . S
C653 C654 1.355 . S
C653 C655 1.415 . S
C654 C653 1.355 . S
C654 C656 1.419 . S
C655 C650 1.425 . S
C655 C652 1.409 . S
C655 C653 1.415 . S
C656 H646 0.930 . S
C656 C654 1.419 . S
C656 C657 1.362 . S
C657 H647 0.930 . S
C657 C650 1.409 . S
C657 C656 1.362 . S
H658 C664 0.930 . S
H659 C667 0.930 . S
H660 C668 0.930 . S
H661 C669 0.930 . S
H662 C672 0.930 . S
H663 C673 0.930 . S
C664 H658 0.930 . S
C664 C665 1.355 . S
C664 C666 1.415 . S
C665 C664 1.355 . S
C665 C667 1.419 . S
C666 C664 1.415 . S
C666 C671 1.425 . S
C666 C673 1.409 . S
C667 H659 0.930 . S
C667 C665 1.419 . S
C667 C668 1.362 . S
C668 H660 0.930 . S
C668 C667 1.362 . S
C668 C671 1.409 . S
C669 H661 0.930 . S
C669 C670 1.355 . S
C669 C671 1.415 . S
C670 C669 1.355 . S
C670 C672 1.419 . S
C671 C666 1.425 . S
C671 C668 1.409 . S
C671 C669 1.415 . S
C672 H662 0.930 . S
C672 C670 1.419 . S
C672 C673 1.362 . S
C673 H663 0.930 . S
C673 C666 1.409 . S
C673 C672 1.362 . S
H674 C680 0.930 . S
H675 C683 0.930 . S
H676 C684 0.930 . S
H677 C685 0.930 . S
H678 C688 0.930 . S
H679 C689 0.930 . S
C680 H674 0.930 . S
C680 C681 1.355 . S
C680 C682 1.415 . S
C681 C680 1.355 . S
C681 C683 1.419 . S
C682 C680 1.415 . S
C682 C687 1.425 . S
C682 C689 1.409 . S
C683 H675 0.930 . S
C683 C681 1.419 . S
C683 C684 1.362 . S
C684 H676 0.930 . S
C684 C683 1.362 . S
C684 C687 1.409 . S
C685 H677 0.930 . S
C685 C686 1.355 . S
C685 C687 1.415 . S
C686 C685 1.355 . S
C686 C688 1.419 . S
C687 C682 1.425 . S
C687 C684 1.409 . S
C687 C685 1.415 . S
C688 H678 0.930 . S
C688 C686 1.419 . S
C688 C689 1.362 . S
C689 H679 0.930 . S
C689 C682 1.409 . S
C689 C688 1.362 . S
H690 C696 0.930 . S
H691 C699 0.930 . S
H692 C700 0.930 . S
H693 C701 0.930 1_554 S
H694 C704 0.930 1_554 S
H695 C705 0.930 . S
C696 H690 0.930 . S
C696 C697 1.355 . S
C696 C698 1.415 . S
C697 C696 1.355 . S
C697 C699 1.419 . S
C698 C696 1.415 . S
C698 C703 1.425 . S
C698 C705 1.409 . S
C699 H691 0.930 . S
C699 C697 1.419 . S
C699 C700 1.362 . S
C700 H692 0.930 . S
C700 C699 1.362 . S
C700 C703 1.409 . S
C701 H693 0.930 1_556 S
C701 C702 1.355 1_556 S
C701 C703 1.415 . S
C702 C701 1.355 1_554 S
C702 C704 1.419 1_554 S
C703 C698 1.425 . S
C703 C700 1.409 . S
C703 C701 1.415 . S
C704 H694 0.930 1_556 S
C704 C702 1.419 1_556 S
C704 C705 1.362 . S
C705 H695 0.930 . S
C705 C698 1.409 . S
C705 C704 1.362 . S
H706 C712 0.930 . S
H707 C715 0.930 . S
H708 C716 0.930 . S
H709 C717 0.930 1_565 S
H710 C720 0.930 . S
H711 C721 0.930 . S
C712 H706 0.930 . S
C712 C713 1.357 . S
C712 C714 1.415 . S
C713 C712 1.357 . S
C713 C715 1.418 1_545 S
C714 C712 1.415 . S
C714 C719 1.423 1_545 S
C714 C721 1.409 . S
C715 H707 0.930 . S
C715 C713 1.418 1_565 S
C715 C716 1.362 . S
C716 H708 0.930 . S
C716 C715 1.362 . S
C716 C719 1.415 . S
C717 H709 0.930 1_545 S
C717 C718 1.354 1_556 S
C717 C719 1.411 1_545 S
C718 C717 1.354 1_554 S
C718 C720 1.419 . S
C719 C714 1.423 1_565 S
C719 C716 1.415 . S
C719 C717 1.411 1_565 S
C720 H710 0.930 . S
C720 C718 1.419 . S
C720 C721 1.362 1_554 S
C721 H711 0.930 . S
C721 C714 1.409 . S
C721 C720 1.362 1_556 S
H722 C728 0.930 . S
H723 C731 0.930 . S
H724 C732 0.930 . S
H725 C733 0.930 . S
H726 C736 0.930 . S
H727 C737 0.930 . S
C728 H722 0.930 . S
C728 C729 1.355 . S
C728 C730 1.415 . S
C729 C728 1.355 . S
C729 C731 1.419 . S
C730 C728 1.415 . S
C730 C735 1.425 . S
C730 C737 1.409 . S
C731 H723 0.930 . S
C731 C729 1.419 . S
C731 C732 1.362 . S
C732 H724 0.930 . S
C732 C731 1.362 . S
C732 C735 1.409 . S
C733 H725 0.930 . S
C733 C734 1.355 1_556 S
C733 C735 1.415 . S
C734 C733 1.355 1_554 S
C734 C736 1.419 . S
C735 C730 1.425 . S
C735 C732 1.409 . S
C735 C733 1.415 . S
C736 H726 0.930 . S
C736 C734 1.419 . S
C736 C737 1.362 1_554 S
C737 H727 0.930 . S
C737 C730 1.409 . S
C737 C736 1.362 1_556 S
H738 C744 0.930 . S
H739 C747 0.930 . S
H740 C748 0.930 . S
H741 C749 0.930 . S
H742 C752 0.930 . S
H743 C753 0.930 . S
C744 H738 0.930 . S
C744 C745 1.355 1_546 S
C744 C746 1.415 . S
C745 C744 1.355 1_564 S
C745 C747 1.419 . S
C746 C744 1.415 . S
C746 C751 1.425 1_545 S
C746 C753 1.409 . S
C747 H739 0.930 . S
C747 C745 1.419 . S
C747 C748 1.362 1_554 S
C748 H740 0.930 . S
C748 C747 1.362 1_556 S
C748 C751 1.409 . S
C749 H741 0.930 . S
C749 C750 1.355 . S
C749 C751 1.415 . S
C750 C749 1.355 . S
C750 C752 1.419 1_565 S
C751 C746 1.425 1_565 S
C751 C748 1.409 . S
C751 C749 1.415 . S
C752 H742 0.930 . S
C752 C750 1.419 1_545 S
C752 C753 1.362 . S
C753 H743 0.930 . S
C753 C746 1.409 . S
C753 C752 1.362 . S
H754 C760 0.930 . S
H755 C763 0.930 . S
H756 C764 0.930 . S
H757 C765 0.930 . S
H758 C768 0.930 . S
H759 C769 0.930 . S
C760 H754 0.930 . S
C760 C761 1.355 . S
C760 C762 1.415 . S
C761 C760 1.355 . S
C761 C763 1.419 . S
C762 C760 1.415 . S
C762 C767 1.425 . S
C762 C769 1.409 . S
C763 H755 0.930 . S
C763 C761 1.419 . S
C763 C764 1.362 . S
C764 H756 0.930 . S
C764 C763 1.362 . S
C764 C767 1.409 . S
C765 H757 0.930 . S
C765 C766 1.355 1_556 S
C765 C767 1.415 . S
C766 C765 1.355 1_554 S
C766 C768 1.419 . S
C767 C762 1.425 . S
C767 C764 1.409 . S
C767 C765 1.415 . S
C768 H758 0.930 . S
C768 C766 1.419 . S
C768 C769 1.362 1_554 S
C769 H759 0.930 . S
C769 C762 1.409 . S
C769 C768 1.362 1_556 S
H770 C776 0.930 . S
H771 C779 0.930 . S
H772 C780 0.930 . S
H773 C781 0.930 . S
H774 C784 0.930 . S
H775 C785 0.930 . S
C776 H770 0.930 . S
C776 C777 1.355 . S
C776 C778 1.415 . S
C777 C776 1.355 . S
C777 C779 1.419 . S
C778 C776 1.415 . S
C778 C783 1.425 . S
C778 C785 1.409 . S
C779 H771 0.930 . S
C779 C777 1.419 . S
C779 C780 1.362 . S
C780 H772 0.930 . S
C780 C779 1.362 . S
C780 C783 1.409 . S
C781 H773 0.930 . S
C781 C782 1.355 1_556 S
C781 C783 1.415 . S
C782 C781 1.355 1_554 S
C782 C784 1.419 . S
C783 C778 1.425 . S
C783 C780 1.409 . S
C783 C781 1.415 . S
C784 H774 0.930 . S
C784 C782 1.419 . S
C784 C785 1.362 1_554 S
C785 H775 0.930 . S
C785 C778 1.409 . S
C785 C784 1.362 1_556 S
H786 C792 0.930 . S
H787 C795 0.930 . S
H788 C796 0.930 . S
H789 C797 0.930 . S
H790 C800 0.930 . S
H791 C801 0.930 . S
C792 H786 0.930 . S
C792 C793 1.355 . S
C792 C794 1.415 . S
C793 C792 1.355 . S
C793 C795 1.419 . S
C794 C792 1.415 . S
C794 C799 1.425 . S
C794 C801 1.409 . S
C795 H787 0.930 . S
C795 C793 1.419 . S
C795 C796 1.362 . S
C796 H788 0.930 . S
C796 C795 1.362 . S
C796 C799 1.409 . S
C797 H789 0.930 . S
C797 C798 1.355 . S
C797 C799 1.415 . S
C798 C797 1.355 . S
C798 C800 1.419 . S
C799 C794 1.425 . S
C799 C796 1.409 . S
C799 C797 1.415 . S
C800 H790 0.930 . S
C800 C798 1.419 . S
C800 C801 1.362 . S
C801 H791 0.930 . S
C801 C794 1.409 . S
C801 C800 1.362 . S
H802 C808 0.930 . S
H803 C811 0.930 . S
H804 C812 0.930 . S
H805 C813 0.930 . S
H806 C816 0.930 . S
H807 C817 0.930 . S
C808 H802 0.930 . S
C808 C809 1.355 . S
C808 C810 1.415 . S
C809 C808 1.355 . S
C809 C811 1.419 . S
C810 C808 1.415 . S
C810 C815 1.425 . S
C810 C817 1.409 . S
C811 H803 0.930 . S
C811 C809 1.419 . S
C811 C812 1.362 . S
C812 H804 0.930 . S
C812 C811 1.362 . S
C812 C815 1.409 . S
C813 H805 0.930 . S
C813 C814 1.355 . S
C813 C815 1.415 . S
C814 C813 1.355 . S
C814 C816 1.419 . S
C815 C810 1.425 . S
C815 C812 1.409 . S
C815 C813 1.415 . S
C816 H806 0.930 . S
C816 C814 1.419 . S
C816 C817 1.362 . S
C817 H807 0.930 . S
C817 C810 1.409 . S
C817 C816 1.362 . S
H818 C824 0.930 . S
H819 C827 0.930 . S
H820 C828 0.930 . S
H821 C829 0.930 . S
H822 C832 0.930 . S
H823 C833 0.930 . S
C824 H818 0.930 . S
C824 C825 1.355 . S
C824 C826 1.415 . S
C825 C824 1.355 . S
C825 C827 1.419 . S
C826 C824 1.415 . S
C826 C831 1.425 . S
C826 C833 1.409 . S
C827 H819 0.930 . S
C827 C825 1.419 . S
C827 C828 1.362 . S
C828 H820 0.930 . S
C828 C827 1.362 . S
C828 C831 1.409 . S
C829 H821 0.930 . S
C829 C830 1.355 . S
C829 C831 1.415 . S
C830 C829 1.355 . S
C830 C832 1.419 . S
C831 C826 1.425 . S
C831 C828 1.409 . S
C831 C829 1.415 . S
C832 H822 0.930 . S
C832 C830 1.419 . S
C832 C833 1.362 . S
C833 H823 0.930 . S
C833 C826 1.409 . S
C833 C832 1.362 . S
H834 C840 0.930 . S
H835 C843 0.930 . S
H836 C844 0.930 . S
H837 C845 0.930 . S
H838 C848 0.930 . S
H839 C849 0.930 . S
C840 H834 0.930 . S
C840 C841 1.355 . S
C840 C842 1.415 . S
C841 C840 1.355 . S
C841 C843 1.419 . S
C842 C840 1.415 . S
C842 C847 1.425 . S
C842 C849 1.409 . S
C843 H835 0.930 . S
C843 C841 1.419 . S
C843 C844 1.362 . S
C844 H836 0.930 . S
C844 C843 1.362 . S
C844 C847 1.409 . S
C845 H837 0.930 . S
C845 C846 1.355 . S
C845 C847 1.415 . S
C846 C845 1.355 . S
C846 C848 1.419 . S
C847 C842 1.425 . S
C847 C844 1.409 . S
C847 C845 1.415 . S
C848 H838 0.930 . S
C848 C846 1.419 . S
C848 C849 1.362 . S
C849 H839 0.930 . S
C849 C842 1.409 . S
C849 C848 1.362 . S
H850 C856 0.930 . S
H851 C859 0.930 . S
H852 C860 0.930 . S
H853 C861 0.930 . S
H854 C864 0.930 . S
H855 C865 0.930 . S
C856 H850 0.930 . S
C856 C857 1.355 . S
C856 C858 1.415 . S
C857 C856 1.355 . S
C857 C859 1.419 . S
C858 C856 1.415 . S
C858 C863 1.425 . S
C858 C865 1.409 . S
C859 H851 0.930 . S
C859 C857 1.419 . S
C859 C860 1.362 . S
C860 H852 0.930 . S
C860 C859 1.362 . S
C860 C863 1.409 . S
C861 H853 0.930 . S
C861 C862 1.355 . S
C861 C863 1.415 . S
C862 C861 1.355 . S
C862 C864 1.419 . S
C863 C858 1.425 . S
C863 C860 1.409 . S
C863 C861 1.415 . S
C864 H854 0.930 . S
C864 C862 1.419 . S
C864 C865 1.362 . S
C865 H855 0.930 . S
C865 C858 1.409 . S
C865 C864 1.362 . S
H866 C872 0.930 . S
H867 C875 0.930 . S
H868 C876 0.930 . S
H869 C877 0.930 . S
H870 C880 0.930 1_556 S
H871 C881 0.930 . S
C872 H866 0.930 . S
C872 C873 1.355 . S
C872 C874 1.415 . S
C873 C872 1.355 . S
C873 C875 1.419 . S
C874 C872 1.415 . S
C874 C879 1.425 . S
C874 C881 1.409 . S
C875 H867 0.930 . S
C875 C873 1.419 . S
C875 C876 1.362 . S
C876 H868 0.930 . S
C876 C875 1.362 . S
C876 C879 1.409 . S
C877 H869 0.930 . S
C877 C878 1.355 . S
C877 C879 1.415 . S
C878 C877 1.355 . S
C878 C880 1.419 . S
C879 C874 1.425 . S
C879 C876 1.409 . S
C879 C877 1.415 . S
C880 H870 0.930 1_554 S
C880 C878 1.419 . S
C880 C881 1.362 . S
C881 H871 0.930 . S
C881 C874 1.409 . S
C881 C880 1.362 . S
H882 C888 0.930 . S
H883 C891 0.930 . S
H884 C892 0.930 . S
H885 C893 0.930 . S
H886 C896 0.930 . S
H887 C897 0.930 . S
C888 H882 0.930 . S
C888 C889 1.355 . S
C888 C890 1.415 . S
C889 C888 1.355 . S
C889 C891 1.419 1_554 S
C890 C888 1.415 . S
C890 C895 1.425 1_554 S
C890 C897 1.409 . S
C891 H883 0.930 . S
C891 C889 1.419 1_556 S
C891 C892 1.362 . S
C892 H884 0.930 . S
C892 C891 1.362 . S
C892 C895 1.409 . S
C893 H885 0.930 . S
C893 C894 1.355 1_556 S
C893 C895 1.415 . S
C894 C893 1.355 1_554 S
C894 C896 1.419 . S
C895 C890 1.425 1_556 S
C895 C892 1.409 . S
C895 C893 1.415 . S
C896 H886 0.930 . S
C896 C894 1.419 . S
C896 C897 1.362 . S
C897 H887 0.930 . S
C897 C890 1.409 . S
C897 C896 1.362 . S
H898 C904 0.930 . S
H899 C907 0.930 . S
H900 C908 0.930 . S
H901 C909 0.930 . S
H902 C912 0.930 . S
H903 C913 0.930 . S
C904 H898 0.930 . S
C904 C905 1.355 . S
C904 C906 1.415 . S
C905 C904 1.355 . S
C905 C907 1.419 . S
C906 C904 1.415 . S
C906 C911 1.425 . S
C906 C913 1.409 . S
C907 H899 0.930 . S
C907 C905 1.419 . S
C907 C908 1.362 . S
C908 H900 0.930 . S
C908 C907 1.362 . S
C908 C911 1.409 . S
C909 H901 0.930 . S
C909 C910 1.355 . S
C909 C911 1.415 . S
C910 C909 1.355 . S
C910 C912 1.419 . S
C911 C906 1.425 . S
C911 C908 1.409 . S
C911 C909 1.415 . S
C912 H902 0.930 . S
C912 C910 1.419 . S
C912 C913 1.362 . S
C913 H903 0.930 . S
C913 C906 1.409 . S
C913 C912 1.362 . S
H914 C920 0.930 . S
H915 C923 0.930 1_556 S
H916 C924 0.930 1_556 S
H917 C925 0.930 . S
H918 C928 0.930 . S
H919 C929 0.930 . S
C920 H914 0.930 . S
C920 C921 1.355 . S
C920 C922 1.415 . S
C921 C920 1.355 . S
C921 C923 1.419 . S
C922 C920 1.415 . S
C922 C927 1.425 . S
C922 C929 1.409 . S
C923 H915 0.930 1_554 S
C923 C921 1.419 . S
C923 C924 1.362 . S
C924 H916 0.930 1_554 S
C924 C923 1.362 . S
C924 C927 1.409 . S
C925 H917 0.930 . S
C925 C926 1.355 . S
C925 C927 1.415 . S
C926 C925 1.355 . S
C926 C928 1.419 . S
C927 C922 1.425 . S
C927 C924 1.409 . S
C927 C925 1.415 . S
C928 H918 0.930 . S
C928 C926 1.419 . S
C928 C929 1.362 . S
C929 H919 0.930 . S
C929 C922 1.409 . S
C929 C928 1.362 . S
H930 C936 0.930 . S
H931 C939 0.930 . S
H932 C940 0.930 . S
H933 C941 0.930 . S
H934 C944 0.930 . S
H935 C945 0.930 . S
C936 H930 0.930 . S
C936 C937 1.355 . S
C936 C938 1.415 . S
C937 C936 1.355 . S
C937 C939 1.419 . S
C938 C936 1.415 . S
C938 C943 1.425 . S
C938 C945 1.409 . S
C939 H931 0.930 . S
C939 C937 1.419 . S
C939 C940 1.362 . S
C940 H932 0.930 . S
C940 C939 1.362 . S
C940 C943 1.409 . S
C941 H933 0.930 . S
C941 C942 1.355 . S
C941 C943 1.415 . S
C942 C941 1.355 . S
C942 C944 1.419 . S
C943 C938 1.425 . S
C943 C940 1.409 . S
C943 C941 1.415 . S
C944 H934 0.930 . S
C944 C942 1.419 . S
C944 C945 1.362 . S
C945 H935 0.930 . S
C945 C938 1.409 . S
C945 C944 1.362 . S
H946 C952 0.930 . S
H947 C955 0.930 . S
H948 C956 0.930 . S
H949 C957 0.930 . S
H950 C960 0.930 . S
H951 C961 0.930 . S
C952 H946 0.930 . S
C952 C953 1.355 . S
C952 C954 1.415 . S
C953 C952 1.355 . S
C953 C955 1.419 . S
C954 C952 1.415 . S
C954 C959 1.425 . S
C954 C961 1.409 . S
C955 H947 0.930 . S
C955 C953 1.419 . S
C955 C956 1.362 . S
C956 H948 0.930 . S
C956 C955 1.362 . S
C956 C959 1.409 . S
C957 H949 0.930 . S
C957 C958 1.355 . S
C957 C959 1.415 . S
C958 C957 1.355 . S
C958 C960 1.419 . S
C959 C954 1.425 . S
C959 C956 1.409 . S
C959 C957 1.415 . S
C960 H950 0.930 . S
C960 C958 1.419 . S
C960 C961 1.362 . S
C961 H951 0.930 . S
C961 C954 1.409 . S
C961 C960 1.362 . S
H962 C968 0.930 . S
H963 C971 0.930 . S
H964 C972 0.930 . S
H965 C973 0.930 . S
H966 C976 0.930 . S
H967 C977 0.930 . S
C968 H962 0.930 . S
C968 C969 1.355 . S
C968 C970 1.415 . S
C969 C968 1.355 . S
C969 C971 1.419 . S
C970 C968 1.415 . S
C970 C975 1.425 . S
C970 C977 1.409 . S
C971 H963 0.930 . S
C971 C969 1.419 . S
C971 C972 1.362 . S
C972 H964 0.930 . S
C972 C971 1.362 . S
C972 C975 1.409 . S
C973 H965 0.930 . S
C973 C974 1.355 . S
C973 C975 1.415 . S
C974 C973 1.355 . S
C974 C976 1.419 . S
C975 C970 1.425 . S
C975 C972 1.409 . S
C975 C973 1.415 . S
C976 H966 0.930 . S
C976 C974 1.419 . S
C976 C977 1.362 . S
C977 H967 0.930 . S
C977 C970 1.409 . S
C977 C976 1.362 . S
H978 C984 0.930 . S
H979 C987 0.930 . S
H980 C988 0.930 . S
H981 C989 0.930 . S
H982 C992 0.930 . S
H983 C993 0.930 . S
C984 H978 0.930 . S
C984 C985 1.355 . S
C984 C986 1.415 . S
C985 C984 1.355 . S
C985 C987 1.419 . S
C986 C984 1.415 . S
C986 C991 1.425 . S
C986 C993 1.409 . S
C987 H979 0.930 . S
C987 C985 1.419 . S
C987 C988 1.362 . S
C988 H980 0.930 . S
C988 C987 1.362 . S
C988 C991 1.409 . S
C989 H981 0.930 . S
C989 C990 1.355 . S
C989 C991 1.415 . S
C990 C989 1.355 . S
C990 C992 1.419 . S
C991 C986 1.425 . S
C991 C988 1.409 . S
C991 C989 1.415 . S
C992 H982 0.930 . S
C992 C990 1.419 . S
C992 C993 1.362 . S
C993 H983 0.930 . S
C993 C986 1.409 . S
C993 C992 1.362 . S
H994 C1000 0.930 . S
H995 C1003 0.930 . S
H996 C1004 0.930 . S
H997 C1005 0.930 . S
H998 C1008 0.930 . S
H999 C1009 0.930 . S
C1000 H994 0.930 . S
C1000 C1001 1.355 . S
C1000 C1002 1.415 . S
C1001 C1000 1.355 . S
C1001 C1003 1.419 . S
C1002 C1000 1.415 . S
C1002 C1007 1.425 . S
C1002 C1009 1.409 . S
C1003 H995 0.930 . S
C1003 C1001 1.419 . S
C1003 C1004 1.362 . S
C1004 H996 0.930 . S
C1004 C1003 1.362 . S
C1004 C1007 1.409 . S
C1005 H997 0.930 . S
C1005 C1006 1.355 . S
C1005 C1007 1.415 . S
C1006 C1005 1.355 . S
C1006 C1008 1.419 . S
C1007 C1002 1.425 . S
C1007 C1004 1.409 . S
C1007 C1005 1.415 . S
C1008 H998 0.930 . S
C1008 C1006 1.419 . S
C1008 C1009 1.362 . S
C1009 H999 0.930 . S
C1009 C1002 1.409 . S
C1009 C1008 1.362 . S
H1010 C1016 0.930 . S
H1011 C1019 0.930 . S
H1012 C1020 0.930 . S
H1013 C1021 0.930 . S
H1014 C1024 0.930 . S
H1015 C1025 0.930 . S
C1016 H1010 0.930 . S
C1016 C1017 1.355 . S
C1016 C1018 1.415 . S
C1017 C1016 1.355 . S
C1017 C1019 1.419 . S
C1018 C1016 1.415 . S
C1018 C1023 1.425 . S
C1018 C1025 1.409 . S
C1019 H1011 0.930 . S
C1019 C1017 1.419 . S
C1019 C1020 1.362 . S
C1020 H1012 0.930 . S
C1020 C1019 1.362 . S
C1020 C1023 1.409 . S
C1021 H1013 0.930 . S
C1021 C1022 1.355 . S
C1021 C1023 1.415 . S
C1022 C1021 1.355 . S
C1022 C1024 1.419 . S
C1023 C1018 1.425 . S
C1023 C1020 1.409 . S
C1023 C1021 1.415 . S
C1024 H1014 0.930 . S
C1024 C1022 1.419 . S
C1024 C1025 1.362 . S
C1025 H1015 0.930 . S
C1025 C1018 1.409 . S
C1025 C1024 1.362 . S
H1026 C1032 0.930 . S
H1027 C1035 0.930 . S
H1028 C1036 0.930 . S
H1029 C1037 0.930 . S
H1030 C1040 0.930 . S
H1031 C1041 0.930 . S
C1032 H1026 0.930 . S
C1032 C1033 1.355 . S
C1032 C1034 1.415 . S
C1033 C1032 1.355 . S
C1033 C1035 1.419 . S
C1034 C1032 1.415 . S
C1034 C1039 1.425 . S
C1034 C1041 1.409 . S
C1035 H1027 0.930 . S
C1035 C1033 1.419 . S
C1035 C1036 1.362 . S
C1036 H1028 0.930 . S
C1036 C1035 1.362 . S
C1036 C1039 1.409 . S
C1037 H1029 0.930 . S
C1037 C1038 1.355 . S
C1037 C1039 1.415 . S
C1038 C1037 1.355 . S
C1038 C1040 1.419 . S
C1039 C1034 1.425 . S
C1039 C1036 1.409 . S
C1039 C1037 1.415 . S
C1040 H1030 0.930 . S
C1040 C1038 1.419 . S
C1040 C1041 1.362 . S
C1041 H1031 0.930 . S
C1041 C1034 1.409 . S
C1041 C1040 1.362 . S
H1042 C1048 0.930 . S
H1043 C1051 0.930 . S
H1044 C1052 0.930 . S
H1045 C1053 0.930 . S
H1046 C1056 0.930 . S
H1047 C1057 0.930 . S
C1048 H1042 0.930 . S
C1048 C1049 1.355 . S
C1048 C1050 1.415 . S
C1049 C1048 1.355 . S
C1049 C1051 1.419 . S
C1050 C1048 1.415 . S
C1050 C1055 1.425 . S
C1050 C1057 1.409 . S
C1051 H1043 0.930 . S
C1051 C1049 1.419 . S
C1051 C1052 1.362 . S
C1052 H1044 0.930 . S
C1052 C1051 1.362 . S
C1052 C1055 1.409 . S
C1053 H1045 0.930 . S
C1053 C1054 1.355 . S
C1053 C1055 1.415 . S
C1054 C1053 1.355 . S
C1054 C1056 1.419 . S
C1055 C1050 1.425 . S
C1055 C1052 1.409 . S
C1055 C1053 1.415 . S
C1056 H1046 0.930 . S
C1056 C1054 1.419 . S
C1056 C1057 1.362 . S
C1057 H1047 0.930 . S
C1057 C1050 1.409 . S
C1057 C1056 1.362 . S
H1058 C1064 0.930 . S
H1059 C1067 0.930 . S
H1060 C1068 0.930 . S
H1061 C1069 0.930 . S
H1062 C1072 0.930 . S
H1063 C1073 0.930 1_565 S
C1064 H1058 0.930 . S
C1064 C1065 1.355 . S
C1064 C1066 1.415 . S
C1065 C1064 1.355 . S
C1065 C1067 1.419 . S
C1066 C1064 1.415 . S
C1066 C1071 1.425 . S
C1066 C1073 1.409 . S
C1067 H1059 0.930 . S
C1067 C1065 1.419 . S
C1067 C1068 1.362 . S
C1068 H1060 0.930 . S
C1068 C1067 1.362 . S
C1068 C1071 1.409 . S
C1069 H1061 0.930 . S
C1069 C1070 1.355 . S
C1069 C1071 1.415 . S
C1070 C1069 1.355 . S
C1070 C1072 1.419 1_545 S
C1071 C1066 1.425 . S
C1071 C1068 1.409 . S
C1071 C1069 1.415 . S
C1072 H1062 0.930 . S
C1072 C1070 1.419 1_565 S
C1072 C1073 1.362 1_565 S
C1073 H1063 0.930 1_545 S
C1073 C1066 1.409 . S
C1073 C1072 1.362 1_545 S
H1074 C1080 0.930 . S
H1075 C1083 0.930 . S
H1076 C1084 0.930 . S
H1077 C1085 0.930 . S
H1078 C1088 0.930 . S
H1079 C1089 0.930 . S
C1080 H1074 0.930 . S
C1080 C1081 1.355 . S
C1080 C1082 1.415 . S
C1081 C1080 1.355 . S
C1081 C1083 1.419 . S
C1082 C1080 1.415 . S
C1082 C1087 1.425 . S
C1082 C1089 1.409 . S
C1083 H1075 0.930 . S
C1083 C1081 1.419 . S
C1083 C1084 1.362 . S
C1084 H1076 0.930 . S
C1084 C1083 1.362 . S
C1084 C1087 1.409 . S
C1085 H1077 0.930 . S
C1085 C1086 1.355 . S
C1085 C1087 1.415 . S
C1086 C1085 1.355 . S
C1086 C1088 1.419 . S
C1087 C1082 1.425 . S
C1087 C1084 1.409 . S
C1087 C1085 1.415 . S
C1088 H1078 0.930 . S
C1088 C1086 1.419 . S
C1088 C1089 1.362 . S
C1089 H1079 0.930 . S
C1089 C1082 1.409 . S
C1089 C1088 1.362 . S
H1090 C1096 0.930 1_554 S
H1091 C1099 0.930 . S
H1092 C1100 0.930 . S
H1093 C1101 0.930 . S
H1094 C1104 0.930 . S
H1095 C1105 0.930 . S
C1096 H1090 0.930 1_556 S
C1096 C1097 1.355 . S
C1096 C1098 1.415 . S
C1097 C1096 1.355 . S
C1097 C1099 1.419 . S
C1098 C1096 1.415 . S
C1098 C1103 1.425 . S
C1098 C1105 1.409 . S
C1099 H1091 0.930 . S
C1099 C1097 1.419 . S
C1099 C1100 1.362 . S
C1100 H1092 0.930 . S
C1100 C1099 1.362 . S
C1100 C1103 1.409 . S
C1101 H1093 0.930 . S
C1101 C1102 1.355 . S
C1101 C1103 1.415 . S
C1102 C1101 1.355 . S
C1102 C1104 1.419 . S
C1103 C1098 1.425 . S
C1103 C1100 1.409 . S
C1103 C1101 1.415 . S
C1104 H1094 0.930 . S
C1104 C1102 1.419 . S
C1104 C1105 1.362 . S
C1105 H1095 0.930 . S
C1105 C1098 1.409 . S
C1105 C1104 1.362 . S
H1106 C1112 0.930 . S
H1107 C1115 0.930 . S
H1108 C1116 0.930 . S
H1109 C1117 0.930 . S
H1110 C1120 0.930 . S
H1111 C1121 0.930 . S
C1112 H1106 0.930 . S
C1112 C1113 1.355 . S
C1112 C1114 1.415 . S
C1113 C1112 1.355 . S
C1113 C1115 1.419 . S
C1114 C1112 1.415 . S
C1114 C1119 1.425 . S
C1114 C1121 1.409 . S
C1115 H1107 0.930 . S
C1115 C1113 1.419 . S
C1115 C1116 1.362 . S
C1116 H1108 0.930 . S
C1116 C1115 1.362 . S
C1116 C1119 1.409 . S
C1117 H1109 0.930 . S
C1117 C1118 1.355 . S
C1117 C1119 1.415 . S
C1118 C1117 1.355 . S
C1118 C1120 1.419 . S
C1119 C1114 1.425 . S
C1119 C1116 1.409 . S
C1119 C1117 1.415 . S
C1120 H1110 0.930 . S
C1120 C1118 1.419 . S
C1120 C1121 1.362 . S
C1121 H1111 0.930 . S
C1121 C1114 1.409 . S
C1121 C1120 1.362 . S
H1122 C1128 0.930 . S
H1123 C1131 0.930 . S
H1124 C1132 0.921 1_455 S
H1125 C1133 0.930 . S
H1126 C1136 0.930 . S
H1127 C1137 0.930 . S
C1128 H1122 0.930 . S
C1128 C1129 1.355 1_655 S
C1128 C1130 1.415 . S
C1129 C1128 1.355 1_455 S
C1129 C1131 1.419 . S
C1130 C1128 1.415 . S
C1130 C1135 1.425 . S
C1130 C1137 1.409 . S
C1131 H1123 0.930 . S
C1131 C1129 1.419 . S
C1131 C1132 1.328 1_455 S
C1132 H1124 0.921 1_655 S
C1132 C1131 1.328 1_655 S
C1132 C1135 1.454 . S
C1133 H1125 0.930 . S
C1133 C1134 1.355 . S
C1133 C1135 1.415 . S
C1134 C1133 1.355 . S
C1134 C1136 1.419 . S
C1135 C1130 1.425 . S
C1135 C1132 1.454 . S
C1135 C1133 1.415 . S
C1136 H1126 0.930 . S
C1136 C1134 1.419 . S
C1136 C1137 1.362 . S
C1137 H1127 0.930 . S
C1137 C1130 1.409 . S
C1137 C1136 1.362 . S
H1138 C1144 0.930 . S
H1139 C1147 0.930 . S
H1140 C1148 0.930 . S
H1141 C1149 0.930 . S
H1142 C1152 0.930 . S
H1143 C1153 0.930 . S
C1144 H1138 0.930 . S
C1144 C1145 1.355 . S
C1144 C1146 1.415 . S
C1145 C1144 1.355 . S
C1145 C1147 1.419 . S
C1146 C1144 1.415 . S
C1146 C1151 1.425 . S
C1146 C1153 1.409 . S
C1147 H1139 0.930 . S
C1147 C1145 1.419 . S
C1147 C1148 1.362 . S
C1148 H1140 0.930 . S
C1148 C1147 1.362 . S
C1148 C1151 1.409 . S
C1149 H1141 0.930 . S
C1149 C1150 1.355 . S
C1149 C1151 1.415 . S
C1150 C1149 1.355 . S
C1150 C1152 1.419 . S
C1151 C1146 1.425 . S
C1151 C1148 1.409 . S
C1151 C1149 1.415 . S
C1152 H1142 0.930 . S
C1152 C1150 1.419 . S
C1152 C1153 1.362 . S
C1153 H1143 0.930 . S
C1153 C1146 1.409 . S
C1153 C1152 1.362 . S
H1154 C1160 0.930 . S
H1155 C1163 0.930 . S
H1156 C1164 0.930 1_554 S
H1157 C1165 0.930 1_554 S
H1158 C1168 0.930 . S
H1159 C1169 0.930 . S
C1160 H1154 0.930 . S
C1160 C1161 1.355 . S
C1160 C1162 1.415 . S
C1161 C1160 1.355 . S
C1161 C1163 1.419 . S
C1162 C1160 1.415 . S
C1162 C1167 1.425 . S
C1162 C1169 1.409 . S
C1163 H1155 0.930 . S
C1163 C1161 1.419 . S
C1163 C1164 1.362 . S
C1164 H1156 0.930 1_556 S
C1164 C1163 1.362 . S
C1164 C1167 1.409 . S
C1165 H1157 0.930 1_556 S
C1165 C1166 1.355 . S
C1165 C1167 1.415 . S
C1166 C1165 1.355 . S
C1166 C1168 1.419 . S
C1167 C1162 1.425 . S
C1167 C1164 1.409 . S
C1167 C1165 1.415 . S
C1168 H1158 0.930 . S
C1168 C1166 1.419 . S
C1168 C1169 1.362 . S
C1169 H1159 0.930 . S
C1169 C1162 1.409 . S
C1169 C1168 1.362 . S
H1170 C1176 0.930 . S
H1171 C1179 0.930 . S
H1172 C1180 0.930 . S
H1173 C1181 0.930 . S
H1174 C1184 0.930 . S
H1175 C1185 0.930 . S
C1176 H1170 0.930 . S
C1176 C1177 1.355 1_545 S
C1176 C1178 1.415 . S
C1177 C1176 1.355 1_565 S
C1177 C1179 1.419 . S
C1178 C1176 1.415 . S
C1178 C1183 1.425 1_545 S
C1178 C1185 1.409 . S
C1179 H1171 0.930 . S
C1179 C1177 1.419 . S
C1179 C1180 1.362 . S
C1180 H1172 0.930 . S
C1180 C1179 1.362 . S
C1180 C1183 1.409 . S
C1181 H1173 0.930 . S
C1181 C1182 1.355 1_565 S
C1181 C1183 1.415 . S
C1182 C1181 1.355 1_545 S
C1182 C1184 1.419 . S
C1183 C1178 1.425 1_565 S
C1183 C1180 1.409 . S
C1183 C1181 1.415 . S
C1184 H1174 0.930 . S
C1184 C1182 1.419 . S
C1184 C1185 1.362 . S
C1185 H1175 0.930 . S
C1185 C1178 1.409 . S
C1185 C1184 1.362 . S
H1186 C1192 0.930 . S
H1187 C1195 0.930 . S
H1188 C1196 0.930 . S
H1189 C1197 0.930 . S
H1190 C1200 0.930 . S
H1191 C1201 0.930 . S
C1192 H1186 0.930 . S
C1192 C1193 1.355 . S
C1192 C1194 1.415 . S
C1193 C1192 1.355 . S
C1193 C1195 1.419 . S
C1194 C1192 1.415 . S
C1194 C1199 1.425 . S
C1194 C1201 1.409 . S
C1195 H1187 0.930 . S
C1195 C1193 1.419 . S
C1195 C1196 1.362 . S
C1196 H1188 0.930 . S
C1196 C1195 1.362 . S
C1196 C1199 1.409 . S
C1197 H1189 0.930 . S
C1197 C1198 1.355 . S
C1197 C1199 1.415 . S
C1198 C1197 1.355 . S
C1198 C1200 1.419 . S
C1199 C1194 1.425 . S
C1199 C1196 1.409 . S
C1199 C1197 1.415 . S
C1200 H1190 0.930 . S
C1200 C1198 1.419 . S
C1200 C1201 1.362 . S
C1201 H1191 0.930 . S
C1201 C1194 1.409 . S
C1201 C1200 1.362 . S
H1202 C1208 0.930 . S
H1203 C1211 0.930 . S
H1204 C1212 0.930 . S
H1205 C1213 0.930 . S
H1206 C1216 0.930 . S
H1207 C1217 0.930 . S
C1208 H1202 0.930 . S
C1208 C1209 1.355 . S
C1208 C1210 1.415 . S
C1209 C1208 1.355 . S
C1209 C1211 1.419 . S
C1210 C1208 1.415 . S
C1210 C1215 1.425 . S
C1210 C1217 1.409 . S
C1211 H1203 0.930 . S
C1211 C1209 1.419 . S
C1211 C1212 1.362 . S
C1212 H1204 0.930 . S
C1212 C1211 1.362 . S
C1212 C1215 1.409 . S
C1213 H1205 0.930 . S
C1213 C1214 1.355 . S
C1213 C1215 1.415 . S
C1214 C1213 1.355 . S
C1214 C1216 1.419 . S
C1215 C1210 1.425 . S
C1215 C1212 1.409 . S
C1215 C1213 1.415 . S
C1216 H1206 0.930 . S
C1216 C1214 1.419 . S
C1216 C1217 1.362 . S
C1217 H1207 0.930 . S
C1217 C1210 1.409 . S
C1217 C1216 1.362 . S
H1218 C1224 0.930 . S
H1219 C1227 0.930 . S
H1220 C1228 0.930 . S
H1221 C1229 0.930 . S
H1222 C1232 0.930 . S
H1223 C1233 0.930 . S
C1224 H1218 0.930 . S
C1224 C1225 1.355 . S
C1224 C1226 1.415 . S
C1225 C1224 1.355 . S
C1225 C1227 1.419 . S
C1226 C1224 1.415 . S
C1226 C1231 1.425 . S
C1226 C1233 1.409 . S
C1227 H1219 0.930 . S
C1227 C1225 1.419 . S
C1227 C1228 1.362 . S
C1228 H1220 0.930 . S
C1228 C1227 1.362 . S
C1228 C1231 1.409 . S
C1229 H1221 0.930 . S
C1229 C1230 1.355 . S
C1229 C1231 1.415 . S
C1230 C1229 1.355 . S
C1230 C1232 1.419 . S
C1231 C1226 1.425 . S
C1231 C1228 1.409 . S
C1231 C1229 1.415 . S
C1232 H1222 0.930 . S
C1232 C1230 1.419 . S
C1232 C1233 1.362 . S
C1233 H1223 0.930 . S
C1233 C1226 1.409 . S
C1233 C1232 1.362 . S
H1234 C1240 0.930 . S
H1235 C1243 0.930 . S
H1236 C1244 0.930 . S
H1237 C1245 0.930 . S
H1238 C1248 0.930 . S
H1239 C1249 0.930 . S
C1240 H1234 0.930 . S
C1240 C1241 1.355 . S
C1240 C1242 1.415 . S
C1241 C1240 1.355 . S
C1241 C1243 1.419 . S
C1242 C1240 1.415 . S
C1242 C1247 1.425 . S
C1242 C1249 1.409 . S
C1243 H1235 0.930 . S
C1243 C1241 1.419 . S
C1243 C1244 1.362 . S
C1244 H1236 0.930 . S
C1244 C1243 1.362 . S
C1244 C1247 1.409 . S
C1245 H1237 0.930 . S
C1245 C1246 1.355 . S
C1245 C1247 1.415 . S
C1246 C1245 1.355 . S
C1246 C1248 1.419 . S
C1247 C1242 1.425 . S
C1247 C1244 1.409 . S
C1247 C1245 1.415 . S
C1248 H1238 0.930 . S
C1248 C1246 1.419 . S
C1248 C1249 1.362 . S
C1249 H1239 0.930 . S
C1249 C1242 1.409 . S
C1249 C1248 1.362 . S
H1250 C1256 0.930 . S
H1251 C1259 0.930 . S
H1252 C1260 0.930 . S
H1253 C1261 0.873 1_655 S
H1254 C1264 0.930 1_655 S
H1255 C1265 0.930 . S
C1256 H1250 0.930 . S
C1256 C1257 1.355 . S
C1256 C1258 1.415 . S
C1257 C1256 1.355 . S
C1257 C1259 1.419 . S
C1258 C1256 1.415 . S
C1258 C1263 1.425 . S
C1258 C1265 1.409 . S
C1259 H1251 0.930 . S
C1259 C1257 1.419 . S
C1259 C1260 1.362 . S
C1260 H1252 0.930 . S
C1260 C1259 1.362 . S
C1260 C1263 1.409 . S
C1261 H1253 0.873 1_455 S
C1261 C1262 1.354 1_455 S
C1261 C1263 1.474 . S
C1262 C1261 1.354 1_655 S
C1262 C1264 1.364 1_655 S
C1263 C1258 1.425 . S
C1263 C1260 1.409 . S
C1263 C1261 1.474 . S
C1264 H1254 0.930 1_455 S
C1264 C1262 1.364 1_455 S
C1264 C1265 1.420 . S
C1265 H1255 0.930 . S
C1265 C1258 1.409 . S
C1265 C1264 1.420 . S
H1266 C1272 0.930 . S
H1267 C1275 0.930 . S
H1268 C1276 0.930 . S
H1269 C1277 0.930 . S
H1270 C1280 0.930 . S
H1271 C1281 0.930 . S
C1272 H1266 0.930 . S
C1272 C1273 1.355 . S
C1272 C1274 1.415 . S
C1273 C1272 1.355 . S
C1273 C1275 1.419 . S
C1274 C1272 1.415 . S
C1274 C1279 1.425 . S
C1274 C1281 1.409 . S
C1275 H1267 0.930 . S
C1275 C1273 1.419 . S
C1275 C1276 1.362 . S
C1276 H1268 0.930 . S
C1276 C1275 1.362 . S
C1276 C1279 1.409 . S
C1277 H1269 0.930 . S
C1277 C1278 1.355 . S
C1277 C1279 1.415 . S
C1278 C1277 1.355 . S
C1278 C1280 1.419 . S
C1279 C1274 1.425 . S
C1279 C1276 1.409 . S
C1279 C1277 1.415 . S
C1280 H1270 0.930 . S
C1280 C1278 1.419 . S
C1280 C1281 1.362 . S
C1281 H1271 0.930 . S
C1281 C1274 1.409 . S
C1281 C1280 1.362 . S
H1282 C1288 0.930 . S
H1283 C1291 0.930 . S
H1284 C1292 0.930 . S
H1285 C1293 0.930 . S
H1286 C1296 0.930 . S
H1287 C1297 0.930 . S
C1288 H1282 0.930 . S
C1288 C1289 1.355 . S
C1288 C1290 1.415 . S
C1289 C1288 1.355 . S
C1289 C1291 1.419 . S
C1290 C1288 1.415 . S
C1290 C1295 1.425 . S
C1290 C1297 1.409 . S
C1291 H1283 0.930 . S
C1291 C1289 1.419 . S
C1291 C1292 1.362 . S
C1292 H1284 0.930 . S
C1292 C1291 1.362 . S
C1292 C1295 1.409 . S
C1293 H1285 0.930 . S
C1293 C1294 1.355 . S
C1293 C1295 1.415 . S
C1294 C1293 1.355 . S
C1294 C1296 1.419 . S
C1295 C1290 1.425 . S
C1295 C1292 1.409 . S
C1295 C1293 1.415 . S
C1296 H1286 0.930 . S
C1296 C1294 1.419 . S
C1296 C1297 1.362 . S
C1297 H1287 0.930 . S
C1297 C1290 1.409 . S
C1297 C1296 1.362 . S
H1298 C1304 0.930 . S
H1299 C1307 0.930 . S
H1300 C1308 0.930 . S
H1301 C1309 0.930 . S
H1302 C1312 0.930 . S
H1303 C1313 0.930 . S
C1304 H1298 0.930 . S
C1304 C1305 1.355 1_455 S
C1304 C1306 1.415 . S
C1305 C1304 1.355 1_655 S
C1305 C1307 1.419 . S
C1306 C1304 1.415 . S
C1306 C1311 1.425 . S
C1306 C1313 1.409 . S
C1307 H1299 0.930 . S
C1307 C1305 1.419 . S
C1307 C1308 1.362 1_655 S
C1308 H1300 0.930 . S
C1308 C1307 1.362 1_455 S
C1308 C1311 1.409 . S
C1309 H1301 0.930 . S
C1309 C1310 1.355 . S
C1309 C1311 1.415 . S
C1310 C1309 1.355 . S
C1310 C1312 1.419 . S
C1311 C1306 1.425 . S
C1311 C1308 1.409 . S
C1311 C1309 1.415 . S
C1312 H1302 0.930 . S
C1312 C1310 1.419 . S
C1312 C1313 1.362 . S
C1313 H1303 0.930 . S
C1313 C1306 1.409 . S
C1313 C1312 1.362 . S
C601 N5 1.533 . S
C606 N14 1.528 . S
C617 N47 1.568 . S
C622 N38 1.568 . S
C633 N71 1.575 . S
C638 N80 1.575 . S
C649 N113 1.528 . S
C654 N104 1.535 . S
C665 N146 1.543 . S
C670 N137 1.550 . S
C681 N179 1.554 . S
C686 N170 1.555 . S
C697 N203 1.527 . S
C702 N212 1.519 . S
C713 N236 1.559 . S
C718 N245 1.560 . S
C729 N269 1.561 . S
C734 N278 1.559 . S
C745 N311 1.530 1_565 S
C750 N302 1.529 . S
C761 N335 1.535 . S
C766 N344 1.531 . S
C777 N368 1.551 . S
C782 N377 1.549 . S
C793 N401 1.531 . S
C798 N410 1.528 1_554 S
C809 N443 1.555 . S
C814 N434 1.558 1_554 S
C825 N476 1.555 1_554 S
C830 N467 1.560 . S
C841 N500 1.523 1_554 S
C846 N509 1.516 . S
C857 N533 1.561 . S
C862 N542 1.558 1_554 S
C873 N575 1.560 . S
C878 N566 1.559 1_554 S
C889 C116 1.312 . S
C894 C17 1.310 . S
C905 C149 1.305 . S
C910 C50 1.302 . S
C921 C182 1.346 . S
C926 C83 1.346 . S
C937 C215 1.252 . S
C942 C314 1.255 . S
C953 C347 1.287 . S
C958 C248 1.271 . S
C969 C380 1.249 . S
C974 C281 1.267 . S
C985 C512 1.294 . S
C990 C413 1.293 . S
C1001 C446 1.300 . S
C1006 C545 1.305 . S
C1017 C479 1.311 . S
C1022 C578 1.301 . S
C1033 C272 0.944 . S
C1038 C8 0.892 . S
C1049 C206 0.928 . S
C1054 C61 0.998 . S
C1065 C74 0.922 . S
C1070 C239 0.983 . S
C1081 C94 1.009 1_556 S
C1086 C404 0.956 . S
C1097 C28 0.955 . S
C1102 C457 0.913 . S
C1113 C470 0.928 . S
C1118 C41 1.000 . S
C1129 C107 1.020 . S
C1134 C589 0.992 . S
C1145 C160 0.844 . S
C1150 C523 0.962 . S
C1161 C536 0.969 . S
C1166 C173 0.940 . S
C1177 C305 0.981 . S
C1182 C193 0.856 . S
C1193 C127 0.872 . S
C1198 C338 0.947 . S
C1209 C140 1.001 . S
C1214 C371 0.940 . S
C1225 C226 0.892 . S
C1230 C490 0.911 . S
C1241 C259 0.830 . S
C1246 C424 0.946 . S
C1257 C292 0.901 . S
C1262 C437 0.975 . S
C1273 C503 0.941 . S
C1278 C391 0.848 . S
C1289 C556 0.957 . S
C1294 C325 0.862 . S
C1305 C569 0.912 . S
C1310 C358 0.911 . S
