# Generated by pormake.
# Topology ulh, (4)-cn, num edge types: 1
# Building blocks:
#     Node 0, Type 0, BuildingBlock: CEKHIL_clean_sbu_0, # of connection points: 4
#     Node 1, Type 0, BuildingBlock: CEKHIL_clean_sbu_0, # of connection points: 4
#     Node 2, Type 0, BuildingBlock: CEKHIL_clean_sbu_0, # of connection points: 4
#     Node 3, Type 0, BuildingBlock: CEKHIL_clean_sbu_0, # of connection points: 4
#     Node 4, Type 0, BuildingBlock: CEKHIL_clean_sbu_0, # of connection points: 4
#     Node 5, Type 0, BuildingBlock: CEKHIL_clean_sbu_0, # of connection points: 4
#     Node 6, Type 0, BuildingBlock: CEKHIL_clean_sbu_0, # of connection points: 4
#     Node 7, Type 0, BuildingBlock: CEKHIL_clean_sbu_0, # of connection points: 4
#     Node 8, Type 0, BuildingBlock: CEKHIL_clean_sbu_0, # of connection points: 4
#     Node 9, Type 0, BuildingBlock: CEKHIL_clean_sbu_0, # of connection points: 4
#     Node 10, Type 0, BuildingBlock: CEKHIL_clean_sbu_0, # of connection points: 4
#     Node 11, Type 0, BuildingBlock: CEKHIL_clean_sbu_0, # of connection points: 4
#     Node 12, Type 0, BuildingBlock: CEKHIL_clean_sbu_0, # of connection points: 4
#     Node 13, Type 0, BuildingBlock: CEKHIL_clean_sbu_0, # of connection points: 4
#     Node 14, Type 0, BuildingBlock: CEKHIL_clean_sbu_0, # of connection points: 4
#     Node 15, Type 0, BuildingBlock: CEKHIL_clean_sbu_0, # of connection points: 4
#     Node 16, Type 0, BuildingBlock: CEKHIL_clean_sbu_0, # of connection points: 4
#     Node 17, Type 0, BuildingBlock: CEKHIL_clean_sbu_0, # of connection points: 4
#     Node 18, Type 0, BuildingBlock: CEKHIL_clean_sbu_0, # of connection points: 4
#     Node 19, Type 0, BuildingBlock: CEKHIL_clean_sbu_0, # of connection points: 4
#     Node 20, Type 0, BuildingBlock: CEKHIL_clean_sbu_0, # of connection points: 4
#     Node 21, Type 0, BuildingBlock: CEKHIL_clean_sbu_0, # of connection points: 4
#     Node 22, Type 0, BuildingBlock: CEKHIL_clean_sbu_0, # of connection points: 4
#     Node 23, Type 0, BuildingBlock: CEKHIL_clean_sbu_0, # of connection points: 4
#     Node 24, Type 0, BuildingBlock: CEKHIL_clean_sbu_0, # of connection points: 4
#     Node 25, Type 0, BuildingBlock: CEKHIL_clean_sbu_0, # of connection points: 4
#     Node 26, Type 0, BuildingBlock: CEKHIL_clean_sbu_0, # of connection points: 4
#     Node 27, Type 0, BuildingBlock: CEKHIL_clean_sbu_0, # of connection points: 4
#     Node 28, Type 0, BuildingBlock: CEKHIL_clean_sbu_0, # of connection points: 4
#     Node 29, Type 0, BuildingBlock: CEKHIL_clean_sbu_0, # of connection points: 4
#     Node 30, Type 0, BuildingBlock: CEKHIL_clean_sbu_0, # of connection points: 4
#     Node 31, Type 0, BuildingBlock: CEKHIL_clean_sbu_0, # of connection points: 4
#     Node 32, Type 0, BuildingBlock: CEKHIL_clean_sbu_0, # of connection points: 4
#     Node 33, Type 0, BuildingBlock: CEKHIL_clean_sbu_0, # of connection points: 4
#     Node 34, Type 0, BuildingBlock: CEKHIL_clean_sbu_0, # of connection points: 4
#     Node 35, Type 0, BuildingBlock: CEKHIL_clean_sbu_0, # of connection points: 4
#     Node 36, Type 0, BuildingBlock: CEKHIL_clean_sbu_0, # of connection points: 4
#     Node 37, Type 0, BuildingBlock: CEKHIL_clean_sbu_0, # of connection points: 4
#     Node 38, Type 0, BuildingBlock: CEKHIL_clean_sbu_0, # of connection points: 4
#     Node 39, Type 0, BuildingBlock: CEKHIL_clean_sbu_0, # of connection points: 4
#     Node 40, Type 0, BuildingBlock: CEKHIL_clean_sbu_0, # of connection points: 4
#     Node 41, Type 0, BuildingBlock: CEKHIL_clean_sbu_0, # of connection points: 4
#     Node 42, Type 0, BuildingBlock: CEKHIL_clean_sbu_0, # of connection points: 4
#     Node 43, Type 0, BuildingBlock: CEKHIL_clean_sbu_0, # of connection points: 4
#     Node 44, Type 0, BuildingBlock: CEKHIL_clean_sbu_0, # of connection points: 4
#     Node 45, Type 0, BuildingBlock: CEKHIL_clean_sbu_0, # of connection points: 4
#     Node 46, Type 0, BuildingBlock: CEKHIL_clean_sbu_0, # of connection points: 4
#     Node 47, Type 0, BuildingBlock: CEKHIL_clean_sbu_0, # of connection points: 4
#     Node 48, Type 0, BuildingBlock: CEKHIL_clean_sbu_0, # of connection points: 4
#     Node 49, Type 0, BuildingBlock: CEKHIL_clean_sbu_0, # of connection points: 4
#     Node 50, Type 0, BuildingBlock: CEKHIL_clean_sbu_0, # of connection points: 4
#     Node 51, Type 0, BuildingBlock: CEKHIL_clean_sbu_0, # of connection points: 4
#     Node 52, Type 0, BuildingBlock: CEKHIL_clean_sbu_0, # of connection points: 4
#     Node 53, Type 0, BuildingBlock: CEKHIL_clean_sbu_0, # of connection points: 4
#     Node 54, Type 0, BuildingBlock: CEKHIL_clean_sbu_0, # of connection points: 4
#     Node 55, Type 0, BuildingBlock: CEKHIL_clean_sbu_0, # of connection points: 4
#     Node 56, Type 0, BuildingBlock: CEKHIL_clean_sbu_0, # of connection points: 4
#     Node 57, Type 0, BuildingBlock: CEKHIL_clean_sbu_0, # of connection points: 4
#     Node 58, Type 0, BuildingBlock: CEKHIL_clean_sbu_0, # of connection points: 4
#     Node 59, Type 0, BuildingBlock: CEKHIL_clean_sbu_0, # of connection points: 4
#     Node 60, Type 0, BuildingBlock: CEKHIL_clean_sbu_0, # of connection points: 4
#     Node 61, Type 0, BuildingBlock: CEKHIL_clean_sbu_0, # of connection points: 4
#     Node 62, Type 0, BuildingBlock: CEKHIL_clean_sbu_0, # of connection points: 4
#     Node 63, Type 0, BuildingBlock: CEKHIL_clean_sbu_0, # of connection points: 4
#     Node 64, Type 0, BuildingBlock: CEKHIL_clean_sbu_0, # of connection points: 4
#     Node 65, Type 0, BuildingBlock: CEKHIL_clean_sbu_0, # of connection points: 4
#     Node 66, Type 0, BuildingBlock: CEKHIL_clean_sbu_0, # of connection points: 4
#     Node 67, Type 0, BuildingBlock: CEKHIL_clean_sbu_0, # of connection points: 4
#     Node 68, Type 0, BuildingBlock: CEKHIL_clean_sbu_0, # of connection points: 4
#     Node 69, Type 0, BuildingBlock: CEKHIL_clean_sbu_0, # of connection points: 4
#     Node 70, Type 0, BuildingBlock: CEKHIL_clean_sbu_0, # of connection points: 4
#     Node 71, Type 0, BuildingBlock: CEKHIL_clean_sbu_0, # of connection points: 4
#     Node 72, Type 0, BuildingBlock: CEKHIL_clean_sbu_0, # of connection points: 4
#     Node 73, Type 0, BuildingBlock: CEKHIL_clean_sbu_0, # of connection points: 4
#     Node 74, Type 0, BuildingBlock: CEKHIL_clean_sbu_0, # of connection points: 4
#     Node 75, Type 0, BuildingBlock: CEKHIL_clean_sbu_0, # of connection points: 4
#     Node 76, Type 0, BuildingBlock: CEKHIL_clean_sbu_0, # of connection points: 4
#     Node 77, Type 0, BuildingBlock: CEKHIL_clean_sbu_0, # of connection points: 4
#     Node 78, Type 0, BuildingBlock: CEKHIL_clean_sbu_0, # of connection points: 4
#     Node 79, Type 0, BuildingBlock: CEKHIL_clean_sbu_0, # of connection points: 4
#     Node 80, Type 0, BuildingBlock: CEKHIL_clean_sbu_0, # of connection points: 4
#     Node 81, Type 0, BuildingBlock: CEKHIL_clean_sbu_0, # of connection points: 4
#     Node 82, Type 0, BuildingBlock: CEKHIL_clean_sbu_0, # of connection points: 4
#     Node 83, Type 0, BuildingBlock: CEKHIL_clean_sbu_0, # of connection points: 4
#     Node 84, Type 0, BuildingBlock: CEKHIL_clean_sbu_0, # of connection points: 4
#     Node 85, Type 0, BuildingBlock: CEKHIL_clean_sbu_0, # of connection points: 4
#     Node 86, Type 0, BuildingBlock: CEKHIL_clean_sbu_0, # of connection points: 4
#     Node 87, Type 0, BuildingBlock: CEKHIL_clean_sbu_0, # of connection points: 4
#     Node 88, Type 0, BuildingBlock: CEKHIL_clean_sbu_0, # of connection points: 4
#     Node 89, Type 0, BuildingBlock: CEKHIL_clean_sbu_0, # of connection points: 4
#     Node 90, Type 0, BuildingBlock: CEKHIL_clean_sbu_0, # of connection points: 4
#     Node 91, Type 0, BuildingBlock: CEKHIL_clean_sbu_0, # of connection points: 4
#     Node 92, Type 0, BuildingBlock: CEKHIL_clean_sbu_0, # of connection points: 4
#     Node 93, Type 0, BuildingBlock: CEKHIL_clean_sbu_0, # of connection points: 4
#     Node 94, Type 0, BuildingBlock: CEKHIL_clean_sbu_0, # of connection points: 4
#     Node 95, Type 0, BuildingBlock: CEKHIL_clean_sbu_0, # of connection points: 4
#     Edge 96, Type (0, 0), BuildingBlock: KIFKEQ_clean_linker_1, # of connection points: 2
#     Edge 97, Type (0, 0), BuildingBlock: KIFKEQ_clean_linker_1, # of connection points: 2
#     Edge 98, Type (0, 0), BuildingBlock: KIFKEQ_clean_linker_1, # of connection points: 2
#     Edge 99, Type (0, 0), BuildingBlock: KIFKEQ_clean_linker_1, # of connection points: 2
#     Edge 100, Type (0, 0), BuildingBlock: KIFKEQ_clean_linker_1, # of connection points: 2
#     Edge 101, Type (0, 0), BuildingBlock: KIFKEQ_clean_linker_1, # of connection points: 2
#     Edge 102, Type (0, 0), BuildingBlock: KIFKEQ_clean_linker_1, # of connection points: 2
#     Edge 103, Type (0, 0), BuildingBlock: KIFKEQ_clean_linker_1, # of connection points: 2
#     Edge 104, Type (0, 0), BuildingBlock: KIFKEQ_clean_linker_1, # of connection points: 2
#     Edge 105, Type (0, 0), BuildingBlock: KIFKEQ_clean_linker_1, # of connection points: 2
#     Edge 106, Type (0, 0), BuildingBlock: KIFKEQ_clean_linker_1, # of connection points: 2
#     Edge 107, Type (0, 0), BuildingBlock: KIFKEQ_clean_linker_1, # of connection points: 2
#     Edge 108, Type (0, 0), BuildingBlock: KIFKEQ_clean_linker_1, # of connection points: 2
#     Edge 109, Type (0, 0), BuildingBlock: KIFKEQ_clean_linker_1, # of connection points: 2
#     Edge 110, Type (0, 0), BuildingBlock: KIFKEQ_clean_linker_1, # of connection points: 2
#     Edge 111, Type (0, 0), BuildingBlock: KIFKEQ_clean_linker_1, # of connection points: 2
#     Edge 112, Type (0, 0), BuildingBlock: KIFKEQ_clean_linker_1, # of connection points: 2
#     Edge 113, Type (0, 0), BuildingBlock: KIFKEQ_clean_linker_1, # of connection points: 2
#     Edge 114, Type (0, 0), BuildingBlock: KIFKEQ_clean_linker_1, # of connection points: 2
#     Edge 115, Type (0, 0), BuildingBlock: KIFKEQ_clean_linker_1, # of connection points: 2
#     Edge 116, Type (0, 0), BuildingBlock: KIFKEQ_clean_linker_1, # of connection points: 2
#     Edge 117, Type (0, 0), BuildingBlock: KIFKEQ_clean_linker_1, # of connection points: 2
#     Edge 118, Type (0, 0), BuildingBlock: KIFKEQ_clean_linker_1, # of connection points: 2
#     Edge 119, Type (0, 0), BuildingBlock: KIFKEQ_clean_linker_1, # of connection points: 2
#     Edge 120, Type (0, 0), BuildingBlock: KIFKEQ_clean_linker_1, # of connection points: 2
#     Edge 121, Type (0, 0), BuildingBlock: KIFKEQ_clean_linker_1, # of connection points: 2
#     Edge 122, Type (0, 0), BuildingBlock: KIFKEQ_clean_linker_1, # of connection points: 2
#     Edge 123, Type (0, 0), BuildingBlock: KIFKEQ_clean_linker_1, # of connection points: 2
#     Edge 124, Type (0, 0), BuildingBlock: KIFKEQ_clean_linker_1, # of connection points: 2
#     Edge 125, Type (0, 0), BuildingBlock: KIFKEQ_clean_linker_1, # of connection points: 2
#     Edge 126, Type (0, 0), BuildingBlock: KIFKEQ_clean_linker_1, # of connection points: 2
#     Edge 127, Type (0, 0), BuildingBlock: KIFKEQ_clean_linker_1, # of connection points: 2
#     Edge 128, Type (0, 0), BuildingBlock: KIFKEQ_clean_linker_1, # of connection points: 2
#     Edge 129, Type (0, 0), BuildingBlock: KIFKEQ_clean_linker_1, # of connection points: 2
#     Edge 130, Type (0, 0), BuildingBlock: KIFKEQ_clean_linker_1, # of connection points: 2
#     Edge 131, Type (0, 0), BuildingBlock: KIFKEQ_clean_linker_1, # of connection points: 2
#     Edge 132, Type (0, 0), BuildingBlock: KIFKEQ_clean_linker_1, # of connection points: 2
#     Edge 133, Type (0, 0), BuildingBlock: KIFKEQ_clean_linker_1, # of connection points: 2
#     Edge 134, Type (0, 0), BuildingBlock: KIFKEQ_clean_linker_1, # of connection points: 2
#     Edge 135, Type (0, 0), BuildingBlock: KIFKEQ_clean_linker_1, # of connection points: 2
#     Edge 136, Type (0, 0), BuildingBlock: KIFKEQ_clean_linker_1, # of connection points: 2
#     Edge 137, Type (0, 0), BuildingBlock: KIFKEQ_clean_linker_1, # of connection points: 2
#     Edge 138, Type (0, 0), BuildingBlock: KIFKEQ_clean_linker_1, # of connection points: 2
#     Edge 139, Type (0, 0), BuildingBlock: KIFKEQ_clean_linker_1, # of connection points: 2
#     Edge 140, Type (0, 0), BuildingBlock: KIFKEQ_clean_linker_1, # of connection points: 2
#     Edge 141, Type (0, 0), BuildingBlock: KIFKEQ_clean_linker_1, # of connection points: 2
#     Edge 142, Type (0, 0), BuildingBlock: KIFKEQ_clean_linker_1, # of connection points: 2
#     Edge 143, Type (0, 0), BuildingBlock: KIFKEQ_clean_linker_1, # of connection points: 2
#     Edge 144, Type (0, 0), BuildingBlock: KIFKEQ_clean_linker_1, # of connection points: 2
#     Edge 145, Type (0, 0), BuildingBlock: KIFKEQ_clean_linker_1, # of connection points: 2
#     Edge 146, Type (0, 0), BuildingBlock: KIFKEQ_clean_linker_1, # of connection points: 2
#     Edge 147, Type (0, 0), BuildingBlock: KIFKEQ_clean_linker_1, # of connection points: 2
#     Edge 148, Type (0, 0), BuildingBlock: KIFKEQ_clean_linker_1, # of connection points: 2
#     Edge 149, Type (0, 0), BuildingBlock: KIFKEQ_clean_linker_1, # of connection points: 2
#     Edge 150, Type (0, 0), BuildingBlock: KIFKEQ_clean_linker_1, # of connection points: 2
#     Edge 151, Type (0, 0), BuildingBlock: KIFKEQ_clean_linker_1, # of connection points: 2
#     Edge 152, Type (0, 0), BuildingBlock: KIFKEQ_clean_linker_1, # of connection points: 2
#     Edge 153, Type (0, 0), BuildingBlock: KIFKEQ_clean_linker_1, # of connection points: 2
#     Edge 154, Type (0, 0), BuildingBlock: KIFKEQ_clean_linker_1, # of connection points: 2
#     Edge 155, Type (0, 0), BuildingBlock: KIFKEQ_clean_linker_1, # of connection points: 2
#     Edge 156, Type (0, 0), BuildingBlock: KIFKEQ_clean_linker_1, # of connection points: 2
#     Edge 157, Type (0, 0), BuildingBlock: KIFKEQ_clean_linker_1, # of connection points: 2
#     Edge 158, Type (0, 0), BuildingBlock: KIFKEQ_clean_linker_1, # of connection points: 2
#     Edge 159, Type (0, 0), BuildingBlock: KIFKEQ_clean_linker_1, # of connection points: 2
#     Edge 160, Type (0, 0), BuildingBlock: KIFKEQ_clean_linker_1, # of connection points: 2
#     Edge 161, Type (0, 0), BuildingBlock: KIFKEQ_clean_linker_1, # of connection points: 2
#     Edge 162, Type (0, 0), BuildingBlock: KIFKEQ_clean_linker_1, # of connection points: 2
#     Edge 163, Type (0, 0), BuildingBlock: KIFKEQ_clean_linker_1, # of connection points: 2
#     Edge 164, Type (0, 0), BuildingBlock: KIFKEQ_clean_linker_1, # of connection points: 2
#     Edge 165, Type (0, 0), BuildingBlock: KIFKEQ_clean_linker_1, # of connection points: 2
#     Edge 166, Type (0, 0), BuildingBlock: KIFKEQ_clean_linker_1, # of connection points: 2
#     Edge 167, Type (0, 0), BuildingBlock: KIFKEQ_clean_linker_1, # of connection points: 2
#     Edge 168, Type (0, 0), BuildingBlock: KIFKEQ_clean_linker_1, # of connection points: 2
#     Edge 169, Type (0, 0), BuildingBlock: KIFKEQ_clean_linker_1, # of connection points: 2
#     Edge 170, Type (0, 0), BuildingBlock: KIFKEQ_clean_linker_1, # of connection points: 2
#     Edge 171, Type (0, 0), BuildingBlock: KIFKEQ_clean_linker_1, # of connection points: 2
#     Edge 172, Type (0, 0), BuildingBlock: KIFKEQ_clean_linker_1, # of connection points: 2
#     Edge 173, Type (0, 0), BuildingBlock: KIFKEQ_clean_linker_1, # of connection points: 2
#     Edge 174, Type (0, 0), BuildingBlock: KIFKEQ_clean_linker_1, # of connection points: 2
#     Edge 175, Type (0, 0), BuildingBlock: KIFKEQ_clean_linker_1, # of connection points: 2
#     Edge 176, Type (0, 0), BuildingBlock: KIFKEQ_clean_linker_1, # of connection points: 2
#     Edge 177, Type (0, 0), BuildingBlock: KIFKEQ_clean_linker_1, # of connection points: 2
#     Edge 178, Type (0, 0), BuildingBlock: KIFKEQ_clean_linker_1, # of connection points: 2
#     Edge 179, Type (0, 0), BuildingBlock: KIFKEQ_clean_linker_1, # of connection points: 2
#     Edge 180, Type (0, 0), BuildingBlock: KIFKEQ_clean_linker_1, # of connection points: 2
#     Edge 181, Type (0, 0), BuildingBlock: KIFKEQ_clean_linker_1, # of connection points: 2
#     Edge 182, Type (0, 0), BuildingBlock: KIFKEQ_clean_linker_1, # of connection points: 2
#     Edge 183, Type (0, 0), BuildingBlock: KIFKEQ_clean_linker_1, # of connection points: 2
#     Edge 184, Type (0, 0), BuildingBlock: KIFKEQ_clean_linker_1, # of connection points: 2
#     Edge 185, Type (0, 0), BuildingBlock: KIFKEQ_clean_linker_1, # of connection points: 2
#     Edge 186, Type (0, 0), BuildingBlock: KIFKEQ_clean_linker_1, # of connection points: 2
#     Edge 187, Type (0, 0), BuildingBlock: KIFKEQ_clean_linker_1, # of connection points: 2
#     Edge 188, Type (0, 0), BuildingBlock: KIFKEQ_clean_linker_1, # of connection points: 2
#     Edge 189, Type (0, 0), BuildingBlock: KIFKEQ_clean_linker_1, # of connection points: 2
#     Edge 190, Type (0, 0), BuildingBlock: KIFKEQ_clean_linker_1, # of connection points: 2
#     Edge 191, Type (0, 0), BuildingBlock: KIFKEQ_clean_linker_1, # of connection points: 2
#     Edge 192, Type (0, 0), BuildingBlock: KIFKEQ_clean_linker_1, # of connection points: 2
#     Edge 193, Type (0, 0), BuildingBlock: KIFKEQ_clean_linker_1, # of connection points: 2
#     Edge 194, Type (0, 0), BuildingBlock: KIFKEQ_clean_linker_1, # of connection points: 2
#     Edge 195, Type (0, 0), BuildingBlock: KIFKEQ_clean_linker_1, # of connection points: 2
#     Edge 196, Type (0, 0), BuildingBlock: KIFKEQ_clean_linker_1, # of connection points: 2
#     Edge 197, Type (0, 0), BuildingBlock: KIFKEQ_clean_linker_1, # of connection points: 2
#     Edge 198, Type (0, 0), BuildingBlock: KIFKEQ_clean_linker_1, # of connection points: 2
#     Edge 199, Type (0, 0), BuildingBlock: KIFKEQ_clean_linker_1, # of connection points: 2
#     Edge 200, Type (0, 0), BuildingBlock: KIFKEQ_clean_linker_1, # of connection points: 2
#     Edge 201, Type (0, 0), BuildingBlock: KIFKEQ_clean_linker_1, # of connection points: 2
#     Edge 202, Type (0, 0), BuildingBlock: KIFKEQ_clean_linker_1, # of connection points: 2
#     Edge 203, Type (0, 0), BuildingBlock: KIFKEQ_clean_linker_1, # of connection points: 2
#     Edge 204, Type (0, 0), BuildingBlock: KIFKEQ_clean_linker_1, # of connection points: 2
#     Edge 205, Type (0, 0), BuildingBlock: KIFKEQ_clean_linker_1, # of connection points: 2
#     Edge 206, Type (0, 0), BuildingBlock: KIFKEQ_clean_linker_1, # of connection points: 2
#     Edge 207, Type (0, 0), BuildingBlock: KIFKEQ_clean_linker_1, # of connection points: 2
#     Edge 208, Type (0, 0), BuildingBlock: KIFKEQ_clean_linker_1, # of connection points: 2
#     Edge 209, Type (0, 0), BuildingBlock: KIFKEQ_clean_linker_1, # of connection points: 2
#     Edge 210, Type (0, 0), BuildingBlock: KIFKEQ_clean_linker_1, # of connection points: 2
#     Edge 211, Type (0, 0), BuildingBlock: KIFKEQ_clean_linker_1, # of connection points: 2
#     Edge 212, Type (0, 0), BuildingBlock: KIFKEQ_clean_linker_1, # of connection points: 2
#     Edge 213, Type (0, 0), BuildingBlock: KIFKEQ_clean_linker_1, # of connection points: 2
#     Edge 214, Type (0, 0), BuildingBlock: KIFKEQ_clean_linker_1, # of connection points: 2
#     Edge 215, Type (0, 0), BuildingBlock: KIFKEQ_clean_linker_1, # of connection points: 2
#     Edge 216, Type (0, 0), BuildingBlock: KIFKEQ_clean_linker_1, # of connection points: 2
#     Edge 217, Type (0, 0), BuildingBlock: KIFKEQ_clean_linker_1, # of connection points: 2
#     Edge 218, Type (0, 0), BuildingBlock: KIFKEQ_clean_linker_1, # of connection points: 2
#     Edge 219, Type (0, 0), BuildingBlock: KIFKEQ_clean_linker_1, # of connection points: 2
#     Edge 220, Type (0, 0), BuildingBlock: KIFKEQ_clean_linker_1, # of connection points: 2
#     Edge 221, Type (0, 0), BuildingBlock: KIFKEQ_clean_linker_1, # of connection points: 2
#     Edge 222, Type (0, 0), BuildingBlock: KIFKEQ_clean_linker_1, # of connection points: 2
#     Edge 223, Type (0, 0), BuildingBlock: KIFKEQ_clean_linker_1, # of connection points: 2
#     Edge 224, Type (0, 0), BuildingBlock: KIFKEQ_clean_linker_1, # of connection points: 2
#     Edge 225, Type (0, 0), BuildingBlock: KIFKEQ_clean_linker_1, # of connection points: 2
#     Edge 226, Type (0, 0), BuildingBlock: KIFKEQ_clean_linker_1, # of connection points: 2
#     Edge 227, Type (0, 0), BuildingBlock: KIFKEQ_clean_linker_1, # of connection points: 2
#     Edge 228, Type (0, 0), BuildingBlock: KIFKEQ_clean_linker_1, # of connection points: 2
#     Edge 229, Type (0, 0), BuildingBlock: KIFKEQ_clean_linker_1, # of connection points: 2
#     Edge 230, Type (0, 0), BuildingBlock: KIFKEQ_clean_linker_1, # of connection points: 2
#     Edge 231, Type (0, 0), BuildingBlock: KIFKEQ_clean_linker_1, # of connection points: 2
#     Edge 232, Type (0, 0), BuildingBlock: KIFKEQ_clean_linker_1, # of connection points: 2
#     Edge 233, Type (0, 0), BuildingBlock: KIFKEQ_clean_linker_1, # of connection points: 2
#     Edge 234, Type (0, 0), BuildingBlock: KIFKEQ_clean_linker_1, # of connection points: 2
#     Edge 235, Type (0, 0), BuildingBlock: KIFKEQ_clean_linker_1, # of connection points: 2
#     Edge 236, Type (0, 0), BuildingBlock: KIFKEQ_clean_linker_1, # of connection points: 2
#     Edge 237, Type (0, 0), BuildingBlock: KIFKEQ_clean_linker_1, # of connection points: 2
#     Edge 238, Type (0, 0), BuildingBlock: KIFKEQ_clean_linker_1, # of connection points: 2
#     Edge 239, Type (0, 0), BuildingBlock: KIFKEQ_clean_linker_1, # of connection points: 2
#     Edge 240, Type (0, 0), BuildingBlock: KIFKEQ_clean_linker_1, # of connection points: 2
#     Edge 241, Type (0, 0), BuildingBlock: KIFKEQ_clean_linker_1, # of connection points: 2
#     Edge 242, Type (0, 0), BuildingBlock: KIFKEQ_clean_linker_1, # of connection points: 2
#     Edge 243, Type (0, 0), BuildingBlock: KIFKEQ_clean_linker_1, # of connection points: 2
#     Edge 244, Type (0, 0), BuildingBlock: KIFKEQ_clean_linker_1, # of connection points: 2
#     Edge 245, Type (0, 0), BuildingBlock: KIFKEQ_clean_linker_1, # of connection points: 2
#     Edge 246, Type (0, 0), BuildingBlock: KIFKEQ_clean_linker_1, # of connection points: 2
#     Edge 247, Type (0, 0), BuildingBlock: KIFKEQ_clean_linker_1, # of connection points: 2
#     Edge 248, Type (0, 0), BuildingBlock: KIFKEQ_clean_linker_1, # of connection points: 2
#     Edge 249, Type (0, 0), BuildingBlock: KIFKEQ_clean_linker_1, # of connection points: 2
#     Edge 250, Type (0, 0), BuildingBlock: KIFKEQ_clean_linker_1, # of connection points: 2
#     Edge 251, Type (0, 0), BuildingBlock: KIFKEQ_clean_linker_1, # of connection points: 2
#     Edge 252, Type (0, 0), BuildingBlock: KIFKEQ_clean_linker_1, # of connection points: 2
#     Edge 253, Type (0, 0), BuildingBlock: KIFKEQ_clean_linker_1, # of connection points: 2
#     Edge 254, Type (0, 0), BuildingBlock: KIFKEQ_clean_linker_1, # of connection points: 2
#     Edge 255, Type (0, 0), BuildingBlock: KIFKEQ_clean_linker_1, # of connection points: 2
#     Edge 256, Type (0, 0), BuildingBlock: KIFKEQ_clean_linker_1, # of connection points: 2
#     Edge 257, Type (0, 0), BuildingBlock: KIFKEQ_clean_linker_1, # of connection points: 2
#     Edge 258, Type (0, 0), BuildingBlock: KIFKEQ_clean_linker_1, # of connection points: 2
#     Edge 259, Type (0, 0), BuildingBlock: KIFKEQ_clean_linker_1, # of connection points: 2
#     Edge 260, Type (0, 0), BuildingBlock: KIFKEQ_clean_linker_1, # of connection points: 2
#     Edge 261, Type (0, 0), BuildingBlock: KIFKEQ_clean_linker_1, # of connection points: 2
#     Edge 262, Type (0, 0), BuildingBlock: KIFKEQ_clean_linker_1, # of connection points: 2
#     Edge 263, Type (0, 0), BuildingBlock: KIFKEQ_clean_linker_1, # of connection points: 2
#     Edge 264, Type (0, 0), BuildingBlock: KIFKEQ_clean_linker_1, # of connection points: 2
#     Edge 265, Type (0, 0), BuildingBlock: KIFKEQ_clean_linker_1, # of connection points: 2
#     Edge 266, Type (0, 0), BuildingBlock: KIFKEQ_clean_linker_1, # of connection points: 2
#     Edge 267, Type (0, 0), BuildingBlock: KIFKEQ_clean_linker_1, # of connection points: 2
#     Edge 268, Type (0, 0), BuildingBlock: KIFKEQ_clean_linker_1, # of connection points: 2
#     Edge 269, Type (0, 0), BuildingBlock: KIFKEQ_clean_linker_1, # of connection points: 2
#     Edge 270, Type (0, 0), BuildingBlock: KIFKEQ_clean_linker_1, # of connection points: 2
#     Edge 271, Type (0, 0), BuildingBlock: KIFKEQ_clean_linker_1, # of connection points: 2
#     Edge 272, Type (0, 0), BuildingBlock: KIFKEQ_clean_linker_1, # of connection points: 2
#     Edge 273, Type (0, 0), BuildingBlock: KIFKEQ_clean_linker_1, # of connection points: 2
#     Edge 274, Type (0, 0), BuildingBlock: KIFKEQ_clean_linker_1, # of connection points: 2
#     Edge 275, Type (0, 0), BuildingBlock: KIFKEQ_clean_linker_1, # of connection points: 2
#     Edge 276, Type (0, 0), BuildingBlock: KIFKEQ_clean_linker_1, # of connection points: 2
#     Edge 277, Type (0, 0), BuildingBlock: KIFKEQ_clean_linker_1, # of connection points: 2
#     Edge 278, Type (0, 0), BuildingBlock: KIFKEQ_clean_linker_1, # of connection points: 2
#     Edge 279, Type (0, 0), BuildingBlock: KIFKEQ_clean_linker_1, # of connection points: 2
#     Edge 280, Type (0, 0), BuildingBlock: KIFKEQ_clean_linker_1, # of connection points: 2
#     Edge 281, Type (0, 0), BuildingBlock: KIFKEQ_clean_linker_1, # of connection points: 2
#     Edge 282, Type (0, 0), BuildingBlock: KIFKEQ_clean_linker_1, # of connection points: 2
#     Edge 283, Type (0, 0), BuildingBlock: KIFKEQ_clean_linker_1, # of connection points: 2
#     Edge 284, Type (0, 0), BuildingBlock: KIFKEQ_clean_linker_1, # of connection points: 2
#     Edge 285, Type (0, 0), BuildingBlock: KIFKEQ_clean_linker_1, # of connection points: 2
#     Edge 286, Type (0, 0), BuildingBlock: KIFKEQ_clean_linker_1, # of connection points: 2
#     Edge 287, Type (0, 0), BuildingBlock: KIFKEQ_clean_linker_1, # of connection points: 2
# Relax obj value: 0.198
# Max RMSD: 0.230
# Mean RMSD: 0.230
data_MOF--net-ulh--node1-CEKHIL_clean_sbu_0--edge1-KIFKEQ_clean_linker_1
_symmetry_space_group_name_H-M    P1
_symmetry_Int_Tables_number       1
_symmetry_cell_setting            triclinic
loop_
_symmetry_equiv_pos_as_xyz
'x, y, z'
_cell_length_a     81.49449
_cell_length_b     81.47744
_cell_length_c     81.467048
_cell_angle_alpha  90.005591
_cell_angle_beta   89.979382
_cell_angle_gamma 90.006199
loop_
_atom_site_label
_atom_site_type_symbol
_atom_site_fract_x
_atom_site_fract_y
_atom_site_fract_z
_atom_type_partial_charge
Co0 Co 0.03635 0.31727 0.09159 0.0
O1 O 0.02188 0.30214 0.1022 0.0
O2 O 0.04567 0.29525 0.09091 0.0
C3 C 0.03594 0.33659 0.11142 0.0
O4 O 0.05445 0.33043 0.08016 0.0
Co5 Co 0.02153 0.35115 0.08169 0.0
O6 O 0.04497 0.35632 0.0776 0.0
C7 C 0.01434 0.32214 0.06153 0.0
C8 C 0.03264 0.29089 0.09909 0.0
C9 C 0.05644 0.34571 0.07639 0.0
O10 O 0.02484 0.31374 0.06985 0.0
O11 O 0.01002 0.33675 0.06537 0.0
O12 O 0.04543 0.32388 0.11275 0.0
O13 O 0.02561 0.33601 0.0994 0.0
Co14 Co 0.93523 0.28971 0.34065 0.0
O15 O 0.94834 0.27463 0.35286 0.0
O16 O 0.95838 0.29546 0.33855 0.0
C17 C 0.91679 0.29421 0.36084 0.0
O18 O 0.92464 0.30823 0.32749 0.0
Co19 Co 0.89905 0.27956 0.33329 0.0
O20 O 0.8975 0.30286 0.3265 0.0
C21 C 0.92579 0.26593 0.31305 0.0
C22 C 0.96094 0.28328 0.34859 0.0
C23 C 0.90977 0.31222 0.32382 0.0
O24 O 0.93628 0.27536 0.32024 0.0
O25 O 0.91081 0.26471 0.31763 0.0
O26 O 0.93064 0.30205 0.3607 0.0
O27 O 0.91542 0.28273 0.35001 0.0
Co28 Co 0.96402 0.1882 0.58625 0.0
O29 O 0.98119 0.20209 0.59437 0.0
O30 O 0.95677 0.21092 0.58625 0.0
C31 C 0.96525 0.16909 0.60635 0.0
O32 O 0.9433 0.17707 0.57766 0.0
Co33 Co 0.97271 0.15253 0.57547 0.0
O34 O 0.94849 0.14989 0.57673 0.0
C35 C 0.98116 0.18032 0.55386 0.0
C36 C 0.97113 0.21424 0.59241 0.0
C37 C 0.93864 0.16204 0.57607 0.0
O38 O 0.97291 0.19019 0.56308 0.0
O39 O 0.98382 0.16527 0.5575 0.0
O40 O 0.95729 0.18269 0.60864 0.0
O41 O 0.97373 0.16846 0.59295 0.0
Co42 Co 0.05954 0.21084 0.8388 0.0
O43 O 0.04564 0.22735 0.84815 0.0
O44 O 0.03674 0.20412 0.83709 0.0
C45 C 0.07769 0.20949 0.85969 0.0
O46 O 0.07072 0.1909 0.82856 0.0
Co47 Co 0.09568 0.21998 0.8304 0.0
O48 O 0.09796 0.1957 0.82956 0.0
C49 C 0.06902 0.23072 0.80841 0.0
C50 C 0.03344 0.2178 0.84465 0.0
C51 C 0.08576 0.18617 0.82732 0.0
O52 O 0.05866 0.22209 0.81667 0.0
O53 O 0.08401 0.23264 0.81272 0.0
O54 O 0.06385 0.20166 0.86047 0.0
O55 O 0.07916 0.21941 0.84738 0.0
Co56 Co 0.03622 0.68472 0.91137 0.0
O57 O 0.02134 0.70047 0.90229 0.0
O58 O 0.04572 0.70657 0.91277 0.0
C59 C 0.03496 0.66629 0.8907 0.0
O60 O 0.05476 0.67113 0.9213 0.0
Co61 Co 0.0219 0.65045 0.92055 0.0
O62 O 0.04546 0.64517 0.92358 0.0
C63 C 0.01561 0.67854 0.94224 0.0
C64 C 0.03233 0.71146 0.90556 0.0
C65 C 0.05694 0.65578 0.92454 0.0
O66 O 0.02572 0.68726 0.93378 0.0
O67 O 0.01113 0.66408 0.93802 0.0
O68 O 0.04427 0.67914 0.88949 0.0
O69 O 0.02518 0.66625 0.9032 0.0
Co70 Co 0.5654 0.28516 0.16355 0.0
O71 O 0.55131 0.26832 0.15508 0.0
O72 O 0.54276 0.29263 0.16384 0.0
C73 C 0.58444 0.28423 0.14337 0.0
O74 O 0.57677 0.30555 0.17261 0.0
Co75 Co 0.60098 0.2758 0.17402 0.0
O76 O 0.60388 0.30002 0.17336 0.0
C77 C 0.57317 0.26724 0.19556 0.0
C78 C 0.53927 0.27845 0.15736 0.0
C79 C 0.59185 0.30999 0.17429 0.0
O80 O 0.56338 0.27574 0.1865 0.0
O81 O 0.5882 0.26451 0.19184 0.0
O82 O 0.5709 0.29236 0.14131 0.0
O83 O 0.58502 0.27542 0.15654 0.0
Co84 Co 0.96511 0.81604 0.40906 0.0
O85 O 0.97985 0.79993 0.40042 0.0
O86 O 0.95597 0.79426 0.41226 0.0
C87 C 0.96552 0.83307 0.38715 0.0
O88 O 0.94664 0.82986 0.41882 0.0
Co89 Co 0.97828 0.85152 0.41491 0.0
O90 O 0.95464 0.85632 0.41814 0.0
C91 C 0.98652 0.82524 0.43847 0.0
C92 C 0.96911 0.78907 0.40482 0.0
C93 C 0.94378 0.84532 0.42068 0.0
O94 O 0.97662 0.81528 0.43115 0.0
O95 O 0.98993 0.83955 0.43293 0.0
O96 O 0.95614 0.8202 0.38715 0.0
O97 O 0.97562 0.83399 0.39931 0.0
Co98 Co 0.43277 0.213 0.66291 0.0
O99 O 0.44288 0.23049 0.65098 0.0
O100 O 0.45628 0.20917 0.6612 0.0
C101 C 0.41193 0.20924 0.64502 0.0
O102 O 0.42578 0.19221 0.67502 0.0
Co103 Co 0.39722 0.2183 0.6764 0.0
O104 O 0.39875 0.19445 0.68085 0.0
C105 C 0.42532 0.23361 0.69327 0.0
C106 C 0.45656 0.22256 0.65246 0.0
C107 C 0.41211 0.18634 0.68037 0.0
O108 O 0.43552 0.22525 0.6845 0.0
O109 O 0.40984 0.23385 0.69059 0.0
O110 O 0.42617 0.20271 0.64217 0.0
O111 O 0.41133 0.219 0.65747 0.0
Co112 Co 0.08867 0.03595 0.31473 0.0
O113 O 0.09705 0.01983 0.2998 0.0
O114 O 0.08522 0.04318 0.29229 0.0
C115 C 0.11087 0.03724 0.33126 0.0
O116 O 0.07924 0.05563 0.32703 0.0
Co117 Co 0.08341 0.02648 0.3514 0.0
O118 O 0.0829 0.05068 0.35402 0.0
C119 C 0.05868 0.01668 0.32663 0.0
C120 C 0.0927 0.0297 0.28812 0.0
C121 C 0.07947 0.06029 0.34215 0.0
O122 O 0.06655 0.02456 0.31536 0.0
O123 O 0.06407 0.0151 0.34132 0.0
O124 O 0.11054 0.04526 0.31752 0.0
O125 O 0.09884 0.02713 0.33347 0.0
Co126 Co 0.21403 0.33756 0.56776 0.0
O127 O 0.22918 0.34773 0.55298 0.0
O128 O 0.20515 0.3373 0.54558 0.0
C129 C 0.2146 0.3572 0.58733 0.0
O130 O 0.19526 0.32668 0.58035 0.0
Co131 Co 0.22765 0.32678 0.60185 0.0
O132 O 0.20399 0.32332 0.6064 0.0
C133 C 0.23485 0.30664 0.57283 0.0
C134 C 0.21855 0.345 0.54151 0.0
C135 C 0.19276 0.32271 0.5955 0.0
O136 O 0.22486 0.31542 0.56428 0.0
O137 O 0.23894 0.31018 0.58758 0.0
O138 O 0.20553 0.35898 0.57437 0.0
O139 O 0.22455 0.34484 0.58687 0.0
Co140 Co 0.91345 0.45957 0.81599 0.0
O141 O 0.90264 0.47602 0.80319 0.0
O142 O 0.91263 0.45273 0.79317 0.0
C143 C 0.89485 0.45846 0.8365 0.0
O144 O 0.92483 0.43969 0.82603 0.0
Co145 Co 0.92625 0.4698 0.85059 0.0
O146 O 0.93238 0.44628 0.85191 0.0
C147 C 0.94408 0.48056 0.82125 0.0
C148 C 0.90486 0.46645 0.79069 0.0
C149 C 0.93124 0.43614 0.84003 0.0
O150 O 0.93536 0.47078 0.8124 0.0
O151 O 0.9411 0.48338 0.83641 0.0
O152 O 0.89233 0.45056 0.8229 0.0
O153 O 0.90733 0.46825 0.8364 0.0
Co154 Co 0.79086 0.16127 0.06489 0.0
O155 O 0.77361 0.15277 0.05139 0.0
O156 O 0.79681 0.16335 0.04185 0.0
C157 C 0.79215 0.14 0.08255 0.0
O158 O 0.81142 0.17073 0.07571 0.0
Co159 Co 0.78288 0.16911 0.10145 0.0
O160 O 0.80722 0.16937 0.10306 0.0
C161 C 0.77199 0.19189 0.07556 0.0
C162 C 0.78273 0.15639 0.0389 0.0
C163 C 0.81653 0.1716 0.09067 0.0
O164 O 0.78023 0.1837 0.06484 0.0
O165 O 0.77029 0.18728 0.0905 0.0
O166 O 0.79956 0.13926 0.06846 0.0
O167 O 0.78264 0.15254 0.08453 0.0
Co168 Co 0.08867 0.96378 0.68262 0.0
O169 O 0.0977 0.98029 0.69672 0.0
O170 O 0.08823 0.95619 0.70521 0.0
C171 C 0.10883 0.96437 0.66361 0.0
O172 O 0.07903 0.94368 0.67124 0.0
Co173 Co 0.07847 0.97333 0.647 0.0
O174 O 0.07838 0.9491 0.6441 0.0
C175 C 0.05728 0.98259 0.67488 0.0
C176 C 0.09521 0.97013 0.70869 0.0
C177 C 0.07717 0.93922 0.65618 0.0
O178 O 0.06604 0.97382 0.6847 0.0
O179 O 0.06109 0.98519 0.65985 0.0
O180 O 0.11068 0.95603 0.67705 0.0
O181 O 0.09585 0.97345 0.66305 0.0
Co182 Co 0.28724 0.33983 0.93226 0.0
O183 O 0.26887 0.34638 0.94543 0.0
O184 O 0.29285 0.33823 0.95538 0.0
C185 C 0.28631 0.36145 0.91491 0.0
O186 O 0.30909 0.33262 0.92216 0.0
Co187 Co 0.28281 0.33255 0.89494 0.0
O188 O 0.30696 0.33544 0.89474 0.0
C189 C 0.27419 0.30714 0.9197 0.0
C190 C 0.27813 0.34379 0.95809 0.0
C191 C 0.31545 0.33315 0.90767 0.0
O192 O 0.27885 0.31639 0.93166 0.0
O193 O 0.27419 0.31169 0.90464 0.0
O194 O 0.29356 0.3628 0.92903 0.0
O195 O 0.27866 0.3478 0.9125 0.0
Co196 Co 0.9102 0.53616 0.18476 0.0
O197 O 0.90074 0.52165 0.20059 0.0
O198 O 0.91112 0.54616 0.20642 0.0
C199 C 0.89001 0.53444 0.1659 0.0
O200 O 0.9204 0.55441 0.17094 0.0
Co201 Co 0.92005 0.52117 0.15095 0.0
O202 O 0.9227 0.54467 0.14514 0.0
C203 C 0.94109 0.51543 0.17964 0.0
C204 C 0.90377 0.53288 0.21141 0.0
C205 C 0.92359 0.55635 0.15554 0.0
O206 O 0.93252 0.52575 0.188 0.0
O207 O 0.93715 0.51065 0.1652 0.0
O208 O 0.88849 0.54408 0.17848 0.0
O209 O 0.90247 0.52464 0.16643 0.0
Co210 Co 0.71499 0.16657 0.43358 0.0
O211 O 0.73204 0.15826 0.44749 0.0
O212 O 0.70857 0.16877 0.45643 0.0
C213 C 0.71428 0.1449 0.41628 0.0
O214 O 0.69443 0.17575 0.42255 0.0
Co215 Co 0.72239 0.17353 0.39669 0.0
O216 O 0.69809 0.17355 0.39521 0.0
C217 C 0.73316 0.19725 0.42213 0.0
C218 C 0.72249 0.16169 0.45974 0.0
C219 C 0.68902 0.17619 0.40769 0.0
O220 O 0.72558 0.18909 0.43338 0.0
O221 O 0.7343 0.19231 0.40723 0.0
O222 O 0.70656 0.14438 0.43019 0.0
O223 O 0.7235 0.15761 0.41413 0.0
Co224 Co 0.31433 0.08803 0.0341 0.0
O225 O 0.30119 0.09799 0.01732 0.0
O226 O 0.2916 0.08893 0.04116 0.0
C227 C 0.33464 0.10691 0.03436 0.0
O228 O 0.3246 0.07762 0.05436 0.0
Co229 Co 0.34911 0.07532 0.02432 0.0
O230 O 0.35052 0.07003 0.04804 0.0
C231 C 0.32003 0.05651 0.01455 0.0
C232 C 0.28885 0.09614 0.02718 0.0
C233 C 0.33865 0.07146 0.05814 0.0
O234 O 0.31101 0.06555 0.02388 0.0
O235 O 0.33512 0.05963 0.01153 0.0
O236 O 0.32102 0.1096 0.04217 0.0
O237 O 0.33463 0.09406 0.02506 0.0
Co238 Co 0.82063 0.9135 0.4661 0.0
O239 O 0.80879 0.90535 0.48465 0.0
O240 O 0.79722 0.91358 0.46145 0.0
C241 C 0.83954 0.8932 0.46533 0.0
O242 O 0.82948 0.92209 0.44426 0.0
Co243 Co 0.85736 0.92352 0.47046 0.0
O244 O 0.85709 0.92176 0.44618 0.0
C245 C 0.831 0.94573 0.48209 0.0
C246 C 0.79557 0.90724 0.47603 0.0
C247 C 0.84392 0.92295 0.43784 0.0
O248 O 0.8199 0.93661 0.4754 0.0
O249 O 0.84622 0.9418 0.48253 0.0
O250 O 0.82521 0.89106 0.45873 0.0
O251 O 0.84119 0.90661 0.4736 0.0
Co252 Co 0.33779 0.06593 0.71489 0.0
O253 O 0.34708 0.05037 0.72983 0.0
O254 O 0.33458 0.04378 0.70657 0.0
C255 C 0.35966 0.08299 0.71421 0.0
O256 O 0.32729 0.07922 0.69636 0.0
Co257 Co 0.33209 0.10166 0.72747 0.0
O258 O 0.32744 0.10582 0.70396 0.0
C259 C 0.30926 0.07532 0.73731 0.0
C260 C 0.34254 0.0391 0.71961 0.0
C261 C 0.3248 0.09458 0.69337 0.0
O262 O 0.31613 0.0653 0.72717 0.0
O263 O 0.31488 0.08969 0.74032 0.0
O264 O 0.35938 0.06991 0.70514 0.0
O265 O 0.34775 0.08423 0.72458 0.0
Co266 Co 0.18582 0.58893 0.96025 0.0
O267 O 0.19875 0.60106 0.9756 0.0
O268 O 0.20851 0.58982 0.95279 0.0
C269 C 0.16497 0.60708 0.95893 0.0
O270 O 0.17533 0.57646 0.94126 0.0
Co271 Co 0.15176 0.57617 0.97224 0.0
O272 O 0.14955 0.56961 0.9489 0.0
C273 C 0.18159 0.55877 0.98233 0.0
C274 C 0.21103 0.59877 0.9658 0.0
C275 C 0.1611 0.57019 0.93834 0.0
O276 O 0.19014 0.56755 0.97232 0.0
O277 O 0.16646 0.56156 0.98548 0.0
O278 O 0.1782 0.60941 0.95039 0.0
O279 O 0.16566 0.59513 0.96933 0.0
Co280 Co 0.15936 0.93612 0.21606 0.0
O281 O 0.1506 0.95209 0.23086 0.0
O282 O 0.16346 0.95807 0.20761 0.0
C283 C 0.13695 0.91987 0.21489 0.0
O284 O 0.16933 0.92226 0.19767 0.0
Co285 Co 0.16361 0.90045 0.22917 0.0
O286 O 0.16707 0.89584 0.20555 0.0
C287 C 0.18819 0.9256 0.23787 0.0
C288 C 0.15553 0.96311 0.22054 0.0
C289 C 0.17046 0.90671 0.1948 0.0
O290 O 0.18104 0.93602 0.22834 0.0
O291 O 0.18232 0.91132 0.24085 0.0
O292 O 0.13785 0.93307 0.20605 0.0
O293 O 0.14845 0.91824 0.22569 0.0
Co294 Co 0.68241 0.91334 0.03729 0.0
O295 O 0.69364 0.90377 0.01908 0.0
O296 O 0.7057 0.91128 0.04228 0.0
C297 C 0.66152 0.89518 0.03822 0.0
O298 O 0.67392 0.92329 0.05867 0.0
Co299 Co 0.64745 0.92751 0.03039 0.0
O300 O 0.64725 0.92991 0.05463 0.0
C301 C 0.67655 0.94563 0.01924 0.0
C302 C 0.70692 0.90477 0.02772 0.0
C303 C 0.65985 0.92842 0.06379 0.0
O304 O 0.68582 0.93602 0.02768 0.0
O305 O 0.66116 0.94321 0.01725 0.0
O306 O 0.6755 0.8917 0.04499 0.0
O307 O 0.6614 0.90841 0.02948 0.0
Co308 Co 0.34076 0.43734 0.78816 0.0
O309 O 0.35052 0.45241 0.77306 0.0
O310 O 0.33733 0.45969 0.79577 0.0
C311 C 0.36244 0.42021 0.7902 0.0
O312 O 0.32979 0.4247 0.8068 0.0
Co313 Co 0.33514 0.4014 0.77637 0.0
O314 O 0.33024 0.39791 0.79994 0.0
C315 C 0.312 0.42729 0.76611 0.0
C316 C 0.34572 0.46396 0.78286 0.0
C317 C 0.32735 0.40943 0.81015 0.0
O318 O 0.31938 0.43771 0.77545 0.0
O319 O 0.31729 0.41268 0.76374 0.0
O320 O 0.36194 0.43366 0.7987 0.0
O321 O 0.351 0.41868 0.77933 0.0
Co322 Co 0.66269 0.06752 0.28825 0.0
O323 O 0.6524 0.05427 0.27174 0.0
O324 O 0.66361 0.04457 0.29458 0.0
C325 C 0.64252 0.08651 0.29002 0.0
O326 O 0.67371 0.07776 0.30827 0.0
Co327 Co 0.67205 0.10381 0.28024 0.0
O328 O 0.67429 0.10519 0.30446 0.0
C329 C 0.6926 0.0766 0.26769 0.0
C330 C 0.65557 0.0418 0.28107 0.0
C331 C 0.67605 0.09251 0.31344 0.0
O332 O 0.68458 0.06608 0.27641 0.0
O333 O 0.68845 0.09172 0.26648 0.0
O334 O 0.64124 0.0727 0.29785 0.0
O335 O 0.65489 0.08755 0.28019 0.0
Co336 Co 0.03458 0.81701 0.58779 0.0
O337 O 0.01747 0.80321 0.59614 0.0
O338 O 0.04078 0.79417 0.58533 0.0
C339 C 0.03595 0.83423 0.60946 0.0
O340 O 0.05518 0.82785 0.57856 0.0
Co341 Co 0.02755 0.85394 0.58098 0.0
O342 O 0.05187 0.85517 0.58127 0.0
C343 C 0.01683 0.82884 0.55692 0.0
C344 C 0.02688 0.79091 0.5925 0.0
C345 C 0.0608 0.84262 0.57849 0.0
O346 O 0.02387 0.81744 0.56534 0.0
O347 O 0.01602 0.84379 0.56175 0.0
O348 O 0.04334 0.82014 0.60985 0.0
O349 O 0.02643 0.83654 0.59698 0.0
Co350 Co 0.93878 0.78731 0.8417 0.0
O351 O 0.95432 0.77201 0.85037 0.0
O352 O 0.96094 0.79562 0.83853 0.0
C353 C 0.92181 0.78776 0.86358 0.0
O354 O 0.92542 0.80616 0.83193 0.0
Co355 Co 0.90329 0.77448 0.83557 0.0
O356 O 0.89892 0.79824 0.83248 0.0
C357 C 0.92941 0.766 0.81218 0.0
C358 C 0.96561 0.78229 0.84602 0.0
C359 C 0.90996 0.80909 0.83007 0.0
O360 O 0.93925 0.77587 0.81965 0.0
O361 O 0.91506 0.76248 0.81753 0.0
O362 O 0.9351 0.79651 0.86347 0.0
O363 O 0.92047 0.77745 0.85158 0.0
Co364 Co 0.96281 0.68453 0.08848 0.0
O365 O 0.97876 0.69683 0.10055 0.0
O366 O 0.95617 0.70746 0.08974 0.0
C367 C 0.9607 0.66356 0.10646 0.0
O368 O 0.94341 0.67482 0.07594 0.0
Co369 Co 0.97359 0.65011 0.07548 0.0
O370 O 0.95029 0.64896 0.06852 0.0
C371 C 0.98468 0.67972 0.05829 0.0
C372 C 0.9694 0.70948 0.09847 0.0
C373 C 0.94012 0.66084 0.06928 0.0
O374 O 0.97493 0.68855 0.0671 0.0
O375 O 0.98736 0.6645 0.06105 0.0
O376 O 0.95273 0.67712 0.10895 0.0
O377 O 0.97111 0.66397 0.09451 0.0
Co378 Co 0.06199 0.7108 0.34335 0.0
O379 O 0.0468 0.72538 0.35371 0.0
O380 O 0.03968 0.70332 0.33937 0.0
C381 C 0.079 0.70799 0.36504 0.0
O382 O 0.07479 0.69273 0.33163 0.0
Co383 Co 0.09797 0.72292 0.33855 0.0
O384 O 0.10156 0.69966 0.33236 0.0
C385 C 0.07202 0.73489 0.31637 0.0
C386 C 0.03531 0.71585 0.34829 0.0
C387 C 0.09008 0.68953 0.32905 0.0
O388 O 0.06175 0.72459 0.3226 0.0
O389 O 0.08645 0.73719 0.32217 0.0
O390 O 0.06567 0.69932 0.3641 0.0
O391 O 0.08049 0.71928 0.35404 0.0
Co392 Co 0.03988 0.18634 0.40991 0.0
O393 O 0.02581 0.20009 0.39724 0.0
O394 O 0.04733 0.20906 0.41127 0.0
C395 C 0.04313 0.16684 0.39056 0.0
O396 O 0.05747 0.17475 0.42351 0.0
Co397 Co 0.02635 0.15171 0.41884 0.0
O398 O 0.0495 0.14831 0.42554 0.0
C399 C 0.01554 0.18019 0.43809 0.0
C400 C 0.03529 0.21218 0.40121 0.0
C401 C 0.06004 0.1597 0.42773 0.0
O402 O 0.02581 0.18932 0.43025 0.0
O403 O 0.01274 0.1652 0.4343 0.0
O404 O 0.05184 0.18016 0.39014 0.0
O405 O 0.03143 0.16675 0.40128 0.0
Co406 Co 0.56739 0.78753 0.66524 0.0
O407 O 0.55371 0.7706 0.65632 0.0
O408 O 0.54443 0.79312 0.66848 0.0
C409 C 0.58392 0.78999 0.64311 0.0
O410 O 0.57822 0.80783 0.67525 0.0
Co411 Co 0.60458 0.7806 0.67063 0.0
O412 O 0.60553 0.80492 0.67181 0.0
C413 C 0.58021 0.76791 0.69449 0.0
C414 C 0.54131 0.77954 0.66067 0.0
C415 C 0.59298 0.81354 0.67537 0.0
O416 O 0.56856 0.77567 0.68709 0.0
O417 O 0.59497 0.76739 0.68907 0.0
O418 O 0.56983 0.79738 0.64352 0.0
O419 O 0.58672 0.78006 0.65515 0.0
Co420 Co 0.96261 0.31344 0.91453 0.0
O421 O 0.97776 0.29789 0.90557 0.0
O422 O 0.9534 0.29146 0.9159 0.0
C423 C 0.96391 0.33168 0.89372 0.0
O424 O 0.94381 0.32685 0.92434 0.0
Co425 Co 0.97627 0.34809 0.9234 0.0
O426 O 0.95261 0.35301 0.92634 0.0
C427 C 0.98323 0.32018 0.94515 0.0
C428 C 0.96688 0.28676 0.90871 0.0
C429 C 0.94133 0.34219 0.92743 0.0
O430 O 0.97309 0.31122 0.93696 0.0
O431 O 0.98748 0.33464 0.94071 0.0
O432 O 0.95463 0.3188 0.89258 0.0
O433 O 0.97352 0.33194 0.90633 0.0
Co434 Co 0.4362 0.71562 0.16106 0.0
O435 O 0.4506 0.73232 0.15288 0.0
O436 O 0.45885 0.7094 0.16504 0.0
C437 C 0.42036 0.71382 0.13838 0.0
O438 O 0.42468 0.69547 0.17046 0.0
Co439 Co 0.39893 0.72299 0.16524 0.0
O440 O 0.39755 0.69868 0.16623 0.0
C441 C 0.42265 0.73495 0.19013 0.0
C442 C 0.46259 0.72299 0.15753 0.0
C443 C 0.40989 0.68989 0.17015 0.0
O444 O 0.43449 0.72721 0.18302 0.0
O445 O 0.4081 0.73571 0.18421 0.0
O446 O 0.43428 0.70613 0.13913 0.0
O447 O 0.41738 0.72362 0.15047 0.0
Co448 Co 0.08812 0.53915 0.81233 0.0
O449 O 0.09869 0.52293 0.79895 0.0
O450 O 0.08876 0.54649 0.78961 0.0
C451 C 0.107 0.53954 0.83261 0.0
O452 O 0.07689 0.55882 0.82309 0.0
Co453 Co 0.07586 0.52805 0.84692 0.0
O454 O 0.06947 0.55146 0.84881 0.0
C455 C 0.05767 0.51799 0.81757 0.0
C456 C 0.09642 0.53278 0.7867 0.0
C457 C 0.07049 0.56195 0.83723 0.0
O458 O 0.06608 0.52813 0.80882 0.0
O459 O 0.06104 0.51468 0.83254 0.0
O460 O 0.10942 0.54784 0.81923 0.0
O461 O 0.09444 0.52989 0.83237 0.0
Co462 Co 0.21465 0.83827 0.06914 0.0
O463 O 0.23163 0.85005 0.05803 0.0
O464 O 0.21 0.83919 0.0457 0.0
C465 C 0.21132 0.85677 0.08957 0.0
O466 O 0.1943 0.82613 0.0773 0.0
Co467 Co 0.22163 0.82602 0.10483 0.0
O468 O 0.19789 0.82079 0.1043 0.0
C469 C 0.23549 0.80796 0.07668 0.0
C470 C 0.22328 0.84804 0.04466 0.0
C471 C 0.18917 0.82086 0.09131 0.0
O472 O 0.22698 0.8167 0.06656 0.0
O473 O 0.2363 0.811 0.09208 0.0
O474 O 0.20429 0.85904 0.07546 0.0
O475 O 0.22136 0.84455 0.09018 0.0
Co476 Co 0.91199 0.96239 0.31479 0.0
O477 O 0.90175 0.97786 0.30042 0.0
O478 O 0.91502 0.95559 0.2921 0.0
C479 C 0.89055 0.95963 0.33216 0.0
O480 O 0.9234 0.94348 0.32666 0.0
Co481 Co 0.91791 0.97306 0.35107 0.0
O482 O 0.92354 0.94954 0.35367 0.0
C483 C 0.94047 0.98461 0.32517 0.0
C484 C 0.90635 0.9685 0.28844 0.0
C485 C 0.92631 0.93974 0.34177 0.0
O486 O 0.93322 0.97541 0.31452 0.0
O487 O 0.93522 0.98645 0.33988 0.0
O488 O 0.89098 0.95146 0.3185 0.0
O489 O 0.90193 0.97052 0.33385 0.0
Co490 Co 0.79104 0.65978 0.56812 0.0
O491 O 0.7757 0.64864 0.5544 0.0
O492 O 0.79701 0.66288 0.54518 0.0
C493 C 0.79484 0.63856 0.58546 0.0
O494 O 0.8099 0.67191 0.57927 0.0
Co495 Co 0.7821 0.66571 0.60483 0.0
O496 O 0.80627 0.66824 0.60647 0.0
C497 C 0.76859 0.68773 0.57926 0.0
C498 C 0.78462 0.65327 0.5421 0.0
C499 C 0.8151 0.6723 0.5942 0.0
O500 O 0.77722 0.68052 0.56811 0.0
O501 O 0.76797 0.6828 0.59418 0.0
O502 O 0.80277 0.6392 0.57167 0.0
O503 O 0.78378 0.64973 0.58748 0.0
Co504 Co 0.0882 0.46559 0.18506 0.0
O505 O 0.0986 0.48047 0.19993 0.0
O506 O 0.08774 0.45655 0.20715 0.0
C507 C 0.10788 0.4661 0.16555 0.0
O508 O 0.077 0.44707 0.17245 0.0
Co509 Co 0.07763 0.4794 0.15094 0.0
O510 O 0.07324 0.45587 0.14648 0.0
C511 C 0.05774 0.48696 0.18004 0.0
C512 C 0.09567 0.46978 0.21131 0.0
C513 C 0.07261 0.44468 0.15742 0.0
O514 O 0.06626 0.47673 0.18856 0.0
O515 O 0.06139 0.49106 0.16532 0.0
O516 O 0.10953 0.45687 0.17842 0.0
O517 O 0.09558 0.4761 0.16599 0.0
Co518 Co 0.28606 0.84172 0.43403 0.0
O519 O 0.26899 0.84933 0.4483 0.0
O520 O 0.29218 0.83779 0.45669 0.0
C521 C 0.28738 0.86449 0.41825 0.0
O522 O 0.3066 0.83295 0.42272 0.0
Co523 Co 0.27926 0.83733 0.3967 0.0
O524 O 0.30359 0.8371 0.39555 0.0
C525 C 0.26774 0.81207 0.42027 0.0
C526 C 0.27833 0.84483 0.46035 0.0
C527 C 0.31235 0.83345 0.40799 0.0
O528 O 0.27511 0.81944 0.43218 0.0
O529 O 0.26702 0.81792 0.40569 0.0
O530 O 0.29492 0.86392 0.43225 0.0
O531 O 0.27796 0.85212 0.41512 0.0
Co532 Co 0.91293 0.04132 0.68336 0.0
O533 O 0.90271 0.02624 0.69814 0.0
O534 O 0.91556 0.04896 0.70589 0.0
C535 C 0.89194 0.04313 0.66541 0.0
O536 O 0.92428 0.05981 0.6707 0.0
Co537 Co 0.9201 0.02829 0.64814 0.0
O538 O 0.92486 0.05184 0.64419 0.0
C539 C 0.94179 0.01858 0.67518 0.0
C540 C 0.90719 0.03593 0.70988 0.0
C541 C 0.9272 0.06259 0.65536 0.0
O542 O 0.93429 0.02873 0.6847 0.0
O543 O 0.937 0.01537 0.66056 0.0
O544 O 0.89188 0.05173 0.67881 0.0
O545 O 0.90342 0.03221 0.66448 0.0
Co546 Co 0.71231 0.65955 0.93778 0.0
O547 O 0.73046 0.65268 0.95109 0.0
O548 O 0.70697 0.66243 0.96081 0.0
C549 C 0.71174 0.63716 0.92142 0.0
O550 O 0.69074 0.66733 0.92762 0.0
Co551 Co 0.71671 0.66511 0.9002 0.0
O552 O 0.69246 0.66323 0.90034 0.0
C553 C 0.72603 0.69138 0.92373 0.0
C554 C 0.72138 0.65619 0.96367 0.0
C555 C 0.68422 0.66644 0.91324 0.0
O556 O 0.72166 0.68254 0.9361 0.0
O557 O 0.72547 0.68642 0.90882 0.0
O558 O 0.70481 0.63689 0.93575 0.0
O559 O 0.72021 0.65019 0.91822 0.0
Co560 Co 0.31587 0.58868 0.53693 0.0
O561 O 0.30218 0.59822 0.5205 0.0
O562 O 0.29288 0.58532 0.5426 0.0
C563 C 0.33265 0.61049 0.54024 0.0
O564 O 0.32711 0.57786 0.55658 0.0
Co565 Co 0.3526 0.5833 0.52763 0.0
O566 O 0.3543 0.57815 0.55132 0.0
C567 C 0.32767 0.55995 0.51565 0.0
C568 C 0.28979 0.5935 0.52922 0.0
C569 C 0.34216 0.5753 0.56081 0.0
O570 O 0.3166 0.5672 0.52432 0.0
O571 O 0.34234 0.56542 0.51422 0.0
O572 O 0.31858 0.60994 0.54765 0.0
O573 O 0.33507 0.59902 0.52956 0.0
Co574 Co 0.81355 0.40918 0.9636 0.0
O575 O 0.79938 0.39915 0.97948 0.0
O576 O 0.79108 0.40906 0.95552 0.0
C577 C 0.83343 0.38988 0.96381 0.0
O578 O 0.82529 0.41988 0.9442 0.0
Co579 Co 0.848 0.42064 0.97592 0.0
O580 O 0.851 0.42632 0.95243 0.0
C581 C 0.81892 0.4401 0.98425 0.0
C582 C 0.78751 0.40166 0.96923 0.0
C583 C 0.8398 0.42562 0.94152 0.0
O584 O 0.81025 0.43147 0.97421 0.0
O585 O 0.8337 0.4365 0.98813 0.0
O586 O 0.82019 0.38768 0.95524 0.0
O587 O 0.83311 0.40238 0.97354 0.0
Co588 Co 0.33971 0.57098 0.21799 0.0
O589 O 0.34732 0.55887 0.23656 0.0
O590 O 0.33746 0.54756 0.21386 0.0
C591 C 0.36148 0.58799 0.21607 0.0
O592 O 0.33129 0.58015 0.19622 0.0
Co593 Co 0.33277 0.60835 0.22207 0.0
O594 O 0.33415 0.60764 0.19776 0.0
C595 C 0.30844 0.58414 0.23405 0.0
C596 C 0.344 0.54569 0.22832 0.0
C597 C 0.33163 0.59453 0.18961 0.0
O598 O 0.3169 0.57229 0.22786 0.0
O599 O 0.31333 0.59909 0.234 0.0
O600 O 0.3621 0.57336 0.20983 0.0
O601 O 0.34864 0.59106 0.22487 0.0
Co602 Co 0.18137 0.08579 0.46385 0.0
O603 O 0.19531 0.09272 0.48147 0.0
O604 O 0.20418 0.08393 0.45726 0.0
C605 C 0.16412 0.10749 0.46494 0.0
O606 O 0.17039 0.07811 0.44268 0.0
Co607 Co 0.14442 0.07851 0.47036 0.0
O608 O 0.14304 0.0801 0.44609 0.0
C609 C 0.16966 0.05375 0.47925 0.0
C610 C 0.20754 0.08982 0.47173 0.0
C611 C 0.15562 0.07797 0.43704 0.0
O612 O 0.18109 0.06257 0.47276 0.0
O613 O 0.15473 0.05857 0.48045 0.0
O614 O 0.17794 0.1086 0.45709 0.0
O615 O 0.16199 0.09407 0.47307 0.0
Co616 Co 0.16356 0.43286 0.71637 0.0
O617 O 0.1544 0.44825 0.7316 0.0
O618 O 0.16571 0.45505 0.70779 0.0
C619 C 0.14236 0.41495 0.7165 0.0
O620 O 0.17376 0.4197 0.69756 0.0
Co621 Co 0.171 0.39756 0.72924 0.0
O622 O 0.17447 0.39322 0.70556 0.0
C623 C 0.19382 0.42456 0.73709 0.0
C624 C 0.15822 0.45959 0.72117 0.0
C625 C 0.17643 0.40433 0.6947 0.0
O626 O 0.18571 0.43435 0.72766 0.0
O627 O 0.18903 0.40997 0.74042 0.0
O628 O 0.14178 0.42805 0.70746 0.0
O629 O 0.15458 0.41431 0.72656 0.0
Co630 Co 0.68461 0.41527 0.53443 0.0
O631 O 0.70003 0.40718 0.51867 0.0
O632 O 0.70682 0.41891 0.5423 0.0
C633 C 0.66836 0.39281 0.53502 0.0
O634 O 0.6716 0.42443 0.55381 0.0
Co635 Co 0.64836 0.42014 0.52333 0.0
O636 O 0.64481 0.42249 0.54728 0.0
C637 C 0.67322 0.44505 0.51452 0.0
C638 C 0.7114 0.41159 0.52885 0.0
C639 C 0.65625 0.42545 0.55756 0.0
O640 O 0.6841 0.43748 0.52316 0.0
O641 O 0.65878 0.43935 0.51205 0.0
O642 O 0.68182 0.39329 0.54349 0.0
O643 O 0.66633 0.40489 0.52495 0.0
Co644 Co 0.33734 0.93671 0.28741 0.0
O645 O 0.34729 0.94774 0.26933 0.0
O646 O 0.3364 0.9604 0.29075 0.0
C647 C 0.35806 0.91866 0.2909 0.0
O648 O 0.3269 0.92861 0.30875 0.0
Co649 Co 0.32878 0.89961 0.28381 0.0
O650 O 0.32897 0.90101 0.30813 0.0
C651 C 0.30651 0.92473 0.26972 0.0
C652 C 0.34476 0.96133 0.27715 0.0
C653 C 0.32643 0.91443 0.31576 0.0
O654 O 0.31519 0.93641 0.27599 0.0
O655 O 0.31064 0.90957 0.27052 0.0
O656 O 0.35894 0.93324 0.29719 0.0
O657 O 0.34558 0.91604 0.2815 0.0
Co658 Co 0.66277 0.56731 0.78903 0.0
O659 O 0.65489 0.555 0.77067 0.0
O660 O 0.66577 0.54398 0.79307 0.0
C661 C 0.64058 0.5837 0.79151 0.0
O662 O 0.67165 0.57657 0.81055 0.0
Co663 Co 0.66849 0.6049 0.78516 0.0
O664 O 0.66815 0.60399 0.80951 0.0
C665 C 0.69286 0.58145 0.77179 0.0
C666 C 0.65883 0.54193 0.77882 0.0
C667 C 0.6713 0.59083 0.81737 0.0
O668 O 0.68517 0.56931 0.77842 0.0
O669 O 0.68746 0.59622 0.77208 0.0
O670 O 0.64055 0.56911 0.79788 0.0
O671 O 0.65313 0.58714 0.78246 0.0
Co672 Co 0.54086 0.31623 0.5876 0.0
O673 O 0.52493 0.30292 0.59852 0.0
O674 O 0.54709 0.29323 0.58597 0.0
C675 C 0.54353 0.33489 0.60787 0.0
O676 O 0.56024 0.3269 0.57588 0.0
Co677 Co 0.53147 0.35215 0.57868 0.0
O678 O 0.55571 0.35419 0.57692 0.0
C679 C 0.51974 0.32508 0.55776 0.0
C680 C 0.534 0.29045 0.59472 0.0
C681 C 0.56504 0.34189 0.57435 0.0
O682 O 0.52834 0.31482 0.56617 0.0
O683 O 0.51826 0.34026 0.56158 0.0
O684 O 0.5514 0.32107 0.60852 0.0
O685 O 0.53296 0.33613 0.5961 0.0
Co686 Co 0.43702 0.28964 0.83913 0.0
O687 O 0.45049 0.27249 0.84793 0.0
O688 O 0.46004 0.29521 0.83633 0.0
C689 C 0.4199 0.29194 0.86082 0.0
O690 O 0.42643 0.31013 0.8293 0.0
Co691 Co 0.40004 0.28265 0.83258 0.0
O692 O 0.39908 0.30698 0.83213 0.0
C693 C 0.42498 0.27092 0.80887 0.0
C694 C 0.46298 0.28139 0.84378 0.0
C695 C 0.41165 0.31577 0.82907 0.0
O696 O 0.43639 0.27826 0.81701 0.0
O697 O 0.41004 0.27031 0.81375 0.0
O698 O 0.4341 0.29912 0.86095 0.0
O699 O 0.41742 0.28209 0.84863 0.0
Co700 Co 0.46091 0.18752 0.08639 0.0
O701 O 0.47644 0.20157 0.09703 0.0
O702 O 0.4529 0.21003 0.0863 0.0
C703 C 0.46054 0.16771 0.10574 0.0
O704 O 0.44186 0.17584 0.07502 0.0
Co705 Co 0.47348 0.15302 0.07539 0.0
O706 O 0.45019 0.15006 0.06894 0.0
C707 C 0.48253 0.18208 0.05619 0.0
C708 C 0.46631 0.21348 0.09428 0.0
C709 C 0.43931 0.16132 0.06923 0.0
O710 O 0.47228 0.19081 0.06449 0.0
O711 O 0.48621 0.16727 0.0599 0.0
O712 O 0.45182 0.18091 0.10758 0.0
O713 O 0.47063 0.16797 0.09352 0.0
Co714 Co 0.56333 0.21304 0.34208 0.0
O715 O 0.54769 0.22781 0.35154 0.0
O716 O 0.54131 0.20412 0.33975 0.0
C717 C 0.58126 0.21277 0.36318 0.0
O718 O 0.57682 0.19464 0.33165 0.0
Co719 Co 0.59813 0.22698 0.33459 0.0
O720 O 0.60306 0.20338 0.33109 0.0
C721 C 0.57091 0.23487 0.31235 0.0
C722 C 0.53655 0.21722 0.34756 0.0
C723 C 0.59226 0.19219 0.32912 0.0
O724 O 0.56165 0.22467 0.32013 0.0
O725 O 0.58534 0.23877 0.31716 0.0
O726 O 0.56817 0.20373 0.36357 0.0
O727 O 0.58178 0.2233 0.35132 0.0
Co728 Co 0.53276 0.68033 0.41206 0.0
O729 O 0.5143 0.69182 0.40335 0.0
O730 O 0.53647 0.70383 0.41359 0.0
C731 C 0.53563 0.66256 0.39101 0.0
O732 O 0.55437 0.67201 0.42149 0.0
Co733 Co 0.52932 0.64321 0.42041 0.0
O734 O 0.55363 0.64443 0.41949 0.0
C735 C 0.51573 0.66807 0.44314 0.0
C736 C 0.52226 0.70524 0.40642 0.0
C737 C 0.56136 0.65784 0.42173 0.0
O738 O 0.52215 0.67969 0.43454 0.0
O739 O 0.51623 0.65294 0.43888 0.0
O740 O 0.54168 0.67726 0.39005 0.0
O741 O 0.52655 0.65978 0.40372 0.0
Co742 Co 0.06505 0.28826 0.6628 0.0
O743 O 0.05008 0.27347 0.65237 0.0
O744 O 0.04293 0.29727 0.6635 0.0
C745 C 0.0844 0.28797 0.64294 0.0
O746 O 0.07784 0.30665 0.67406 0.0
Co747 Co 0.09923 0.27419 0.67275 0.0
O748 O 0.10385 0.29771 0.67706 0.0
C749 C 0.07036 0.26641 0.69289 0.0
C750 C 0.0387 0.28409 0.6555 0.0
C751 C 0.09299 0.30895 0.67808 0.0
O752 O 0.06177 0.27683 0.68467 0.0
O753 O 0.08501 0.2623 0.68896 0.0
O754 O 0.07156 0.29727 0.64152 0.0
O755 O 0.08396 0.27776 0.65506 0.0
Co756 Co 0.46659 0.81868 0.9122 0.0
O757 O 0.48226 0.80371 0.90317 0.0
O758 O 0.45921 0.79625 0.9156 0.0
C759 C 0.46486 0.83545 0.8902 0.0
O760 O 0.44741 0.83122 0.92236 0.0
Co761 Co 0.47761 0.85492 0.91757 0.0
O762 O 0.45383 0.85812 0.92146 0.0
C763 C 0.48701 0.82968 0.94185 0.0
C764 C 0.47245 0.79207 0.90768 0.0
C765 C 0.44372 0.8465 0.92431 0.0
O766 O 0.47852 0.81884 0.93405 0.0
O767 O 0.4892 0.8443 0.93648 0.0
O768 O 0.45668 0.82182 0.89066 0.0
O769 O 0.47541 0.83736 0.9019 0.0
Co770 Co 0.93567 0.21396 0.16461 0.0
O771 O 0.94895 0.23182 0.15694 0.0
O772 O 0.95875 0.20861 0.16722 0.0
C773 C 0.91885 0.21263 0.14258 0.0
O774 O 0.92539 0.19273 0.17316 0.0
Co775 Co 0.89843 0.21955 0.171 0.0
O776 O 0.89804 0.19522 0.16997 0.0
C777 C 0.92273 0.23025 0.19591 0.0
C778 C 0.96156 0.22284 0.16053 0.0
C779 C 0.91079 0.18664 0.17283 0.0
O780 O 0.93453 0.22404 0.18738 0.0
O781 O 0.90782 0.23059 0.1909 0.0
O782 O 0.93317 0.20571 0.14225 0.0
O783 O 0.916 0.22168 0.1553 0.0
Co784 Co 0.58851 0.03494 0.81589 0.0
O785 O 0.59881 0.02003 0.80093 0.0
O786 O 0.58805 0.044 0.79381 0.0
C787 C 0.60824 0.03438 0.83535 0.0
O788 O 0.57738 0.05347 0.82861 0.0
Co789 Co 0.57797 0.02099 0.84997 0.0
O790 O 0.57363 0.04451 0.85454 0.0
C791 C 0.5581 0.01347 0.82087 0.0
C792 C 0.59588 0.03073 0.78957 0.0
C793 C 0.57302 0.05579 0.84368 0.0
O794 O 0.56654 0.02383 0.81243 0.0
O795 O 0.56181 0.00927 0.83555 0.0
O796 O 0.60989 0.04359 0.82247 0.0
O797 O 0.59593 0.02439 0.83494 0.0
Co798 Co 0.71202 0.33645 0.06585 0.0
O799 O 0.72707 0.34624 0.0507 0.0
O800 O 0.70408 0.33361 0.04347 0.0
C801 C 0.71058 0.35774 0.08349 0.0
O802 O 0.69351 0.3255 0.07884 0.0
Co803 Co 0.7251 0.32981 0.10118 0.0
O804 O 0.70155 0.3252 0.10532 0.0
C805 C 0.73452 0.30757 0.07443 0.0
C806 C 0.71714 0.34176 0.03916 0.0
C807 C 0.69076 0.32279 0.09422 0.0
O808 O 0.72436 0.3149 0.06479 0.0
O809 O 0.73785 0.31267 0.08892 0.0
O810 O 0.70187 0.35769 0.07016 0.0
O811 O 0.72138 0.34616 0.08449 0.0
Co812 Co 0.41493 0.46056 0.31979 0.0
O813 O 0.40726 0.47999 0.30917 0.0
O814 O 0.415 0.45742 0.2961 0.0
C815 C 0.39451 0.459 0.33844 0.0
O816 O 0.42308 0.43803 0.32729 0.0
Co817 Co 0.42507 0.46238 0.35663 0.0
O818 O 0.42223 0.43829 0.35496 0.0
C819 C 0.44852 0.4729 0.33093 0.0
C820 C 0.40904 0.47224 0.29541 0.0
C821 C 0.42353 0.43074 0.34133 0.0
O822 O 0.43822 0.46923 0.31952 0.0
O823 O 0.44543 0.47156 0.34627 0.0
O824 O 0.39246 0.45336 0.3237 0.0
O825 O 0.40801 0.46696 0.34086 0.0
Co826 Co 0.28425 0.15895 0.56588 0.0
O827 O 0.26847 0.14864 0.55185 0.0
O828 O 0.2924 0.15862 0.54348 0.0
C829 C 0.28419 0.1399 0.58602 0.0
O830 O 0.30364 0.16977 0.57733 0.0
Co831 Co 0.2722 0.17087 0.60025 0.0
O832 O 0.29575 0.17631 0.60312 0.0
C833 C 0.26378 0.19006 0.571 0.0
C834 C 0.2788 0.151 0.54001 0.0
C835 C 0.30652 0.17549 0.59178 0.0
O836 O 0.2736 0.18119 0.56232 0.0
O837 O 0.26007 0.18674 0.58589 0.0
O838 O 0.29268 0.13758 0.57275 0.0
O839 O 0.2744 0.15237 0.58562 0.0
Co840 Co 0.5858 0.96456 0.18597 0.0
O841 O 0.59478 0.98173 0.19928 0.0
O842 O 0.58474 0.95832 0.20896 0.0
C843 C 0.6064 0.96359 0.16744 0.0
O844 O 0.57604 0.94406 0.17544 0.0
Co845 Co 0.57639 0.97271 0.14982 0.0
O846 O 0.5761 0.94838 0.14809 0.0
C847 C 0.55467 0.98333 0.17675 0.0
C848 C 0.5918 0.97237 0.21178 0.0
C849 C 0.57448 0.93902 0.16053 0.0
O850 O 0.56332 0.97506 0.18707 0.0
O851 O 0.55866 0.98516 0.16165 0.0
O852 O 0.60773 0.95608 0.18141 0.0
O853 O 0.59367 0.97297 0.16602 0.0
Co854 Co 0.78687 0.34443 0.43511 0.0
O855 O 0.77063 0.35358 0.44943 0.0
O856 O 0.79342 0.34124 0.45779 0.0
C857 C 0.78914 0.36619 0.41813 0.0
O858 O 0.80661 0.33422 0.42356 0.0
Co859 Co 0.77828 0.33861 0.39831 0.0
O860 O 0.80254 0.33754 0.3964 0.0
C861 C 0.76664 0.31507 0.42342 0.0
C862 C 0.78004 0.34916 0.46145 0.0
C863 C 0.81173 0.33414 0.40859 0.0
O864 O 0.77484 0.32265 0.43464 0.0
O865 O 0.76552 0.32028 0.40863 0.0
O866 O 0.79686 0.36598 0.43205 0.0
O867 O 0.7788 0.35436 0.41596 0.0
Co868 Co 0.40962 0.53701 0.68458 0.0
O869 O 0.40139 0.52064 0.69931 0.0
O870 O 0.41208 0.54448 0.70704 0.0
C871 C 0.38791 0.53685 0.66731 0.0
O872 O 0.41882 0.557 0.67266 0.0
Co873 Co 0.41639 0.5282 0.64798 0.0
O874 O 0.4167 0.55244 0.64547 0.0
C875 C 0.43996 0.518 0.67377 0.0
C876 C 0.40512 0.53069 0.71106 0.0
C877 C 0.41938 0.56191 0.65764 0.0
O878 O 0.43208 0.5263 0.68471 0.0
O879 O 0.43488 0.51627 0.65898 0.0
O880 O 0.38738 0.54533 0.68079 0.0
O881 O 0.40066 0.52761 0.66563 0.0
Co882 Co 0.21019 0.16329 0.93298 0.0
O883 O 0.22779 0.15559 0.94652 0.0
O884 O 0.20496 0.16706 0.95594 0.0
C885 C 0.20833 0.14059 0.9172 0.0
O886 O 0.18922 0.17209 0.92234 0.0
Co887 Co 0.21566 0.16764 0.89538 0.0
O888 O 0.19135 0.16722 0.89519 0.0
C889 C 0.22736 0.19327 0.91853 0.0
C890 C 0.21896 0.15999 0.95898 0.0
C891 C 0.18298 0.17109 0.90782 0.0
O892 O 0.22112 0.18554 0.93085 0.0
O893 O 0.22722 0.18761 0.90385 0.0
O894 O 0.20123 0.14112 0.93144 0.0
O895 O 0.21765 0.15294 0.91379 0.0
Co896 Co 0.81608 0.09237 0.53577 0.0
O897 O 0.80192 0.10185 0.51961 0.0
O898 O 0.79331 0.08934 0.54221 0.0
C899 C 0.83315 0.11405 0.53818 0.0
O900 O 0.82757 0.0818 0.55539 0.0
Co901 Co 0.85281 0.08643 0.52696 0.0
O902 O 0.85475 0.08494 0.5512 0.0
C903 C 0.82749 0.06323 0.51509 0.0
C904 C 0.78981 0.09746 0.5289 0.0
C905 C 0.84257 0.08146 0.5604 0.0
O906 O 0.81637 0.07074 0.52347 0.0
O907 O 0.8423 0.06837 0.51394 0.0
O908 O 0.8193 0.11378 0.54602 0.0
O909 O 0.83528 0.10228 0.52777 0.0
Co910 Co 0.3156 0.91043 0.96076 0.0
O911 O 0.30096 0.89975 0.97562 0.0
O912 O 0.29332 0.91114 0.95209 0.0
C913 C 0.33509 0.89077 0.96091 0.0
O914 O 0.32817 0.92181 0.94225 0.0
Co915 Co 0.34975 0.92076 0.97458 0.0
O916 O 0.3543 0.92447 0.95093 0.0
C917 C 0.32081 0.94071 0.9825 0.0
C918 C 0.2894 0.90293 0.96524 0.0
C919 C 0.34337 0.92553 0.93976 0.0
O920 O 0.31221 0.93224 0.97228 0.0
O921 O 0.33557 0.93704 0.98642 0.0
O922 O 0.32221 0.88923 0.95166 0.0
O923 O 0.33463 0.90291 0.97109 0.0
Co924 Co 0.83987 0.0659 0.21375 0.0
O925 O 0.84798 0.05209 0.23098 0.0
O926 O 0.83703 0.04302 0.20775 0.0
C927 C 0.8619 0.08267 0.21239 0.0
O928 O 0.83081 0.07682 0.19308 0.0
Co929 Co 0.83379 0.10299 0.2206 0.0
O930 O 0.83412 0.10409 0.19627 0.0
C931 C 0.80927 0.07839 0.23152 0.0
C932 C 0.84411 0.03978 0.22169 0.0
C933 C 0.83102 0.09158 0.1874 0.0
O934 O 0.81744 0.06679 0.22452 0.0
O935 O 0.81438 0.09325 0.2322 0.0
O936 O 0.862 0.06858 0.20499 0.0
O937 O 0.84942 0.08528 0.22182 0.0
Co938 Co 0.6847 0.59331 0.46336 0.0
O939 O 0.69743 0.60377 0.47997 0.0
O940 O 0.70793 0.59124 0.45819 0.0
C941 C 0.66706 0.61442 0.46025 0.0
O942 O 0.67475 0.58216 0.44327 0.0
Co943 Co 0.64776 0.58606 0.46995 0.0
O944 O 0.64735 0.58502 0.44561 0.0
C945 C 0.67318 0.56359 0.48314 0.0
C946 C 0.71021 0.60022 0.47122 0.0
C947 C 0.66014 0.58172 0.43723 0.0
O948 O 0.68462 0.57173 0.4758 0.0
O949 O 0.65811 0.5681 0.4832 0.0
O950 O 0.68114 0.61454 0.45285 0.0
O951 O 0.66479 0.60245 0.47039 0.0
Co952 Co 0.66438 0.93634 0.71335 0.0
O953 O 0.65587 0.95025 0.73031 0.0
O954 O 0.66572 0.95916 0.70654 0.0
C955 C 0.64348 0.91812 0.71307 0.0
O956 O 0.67363 0.92517 0.69292 0.0
Co957 Co 0.67327 0.90021 0.72208 0.0
O958 O 0.67292 0.89793 0.69778 0.0
C959 C 0.6955 0.92698 0.73203 0.0
C960 C 0.65888 0.96246 0.72059 0.0
C961 C 0.67464 0.91013 0.68813 0.0
O962 O 0.68703 0.93728 0.72353 0.0
O963 O 0.69122 0.91201 0.73423 0.0
O964 O 0.64227 0.93196 0.70528 0.0
O965 O 0.65628 0.91671 0.72233 0.0
Co966 Co 0.18437 0.9093 0.53682 0.0
O967 O 0.19948 0.8985 0.52253 0.0
O968 O 0.2067 0.9131 0.54437 0.0
C969 C 0.16716 0.88785 0.54001 0.0
O970 O 0.17152 0.92145 0.5546 0.0
Co971 Co 0.14856 0.91419 0.52427 0.0
O972 O 0.14481 0.92049 0.54748 0.0
C973 C 0.17471 0.93629 0.51255 0.0
C974 C 0.21099 0.90382 0.53208 0.0
C975 C 0.15619 0.92399 0.55765 0.0
O976 O 0.18493 0.92982 0.52274 0.0
O977 O 0.1602 0.93071 0.51026 0.0
O978 O 0.18048 0.88885 0.54866 0.0
O979 O 0.16581 0.8986 0.52844 0.0
Co980 Co 0.84139 0.43522 0.28633 0.0
O981 O 0.84907 0.44977 0.26952 0.0
O982 O 0.83868 0.4578 0.29339 0.0
C983 C 0.86339 0.41831 0.28602 0.0
O984 O 0.83273 0.42359 0.30673 0.0
Co985 Co 0.83518 0.39828 0.27854 0.0
O986 O 0.83508 0.39633 0.30284 0.0
C987 C 0.81107 0.42344 0.26796 0.0
C988 C 0.84531 0.46167 0.27938 0.0
C989 C 0.83236 0.4087 0.31203 0.0
O990 O 0.81875 0.43472 0.276 0.0
O991 O 0.81648 0.40875 0.26647 0.0
O992 O 0.86385 0.43192 0.2943 0.0
O993 O 0.85047 0.41625 0.27711 0.0
Co994 Co 0.16016 0.06681 0.78669 0.0
O995 O 0.15275 0.05331 0.76891 0.0
O996 O 0.16276 0.04385 0.7924 0.0
C997 C 0.13815 0.08364 0.78746 0.0
O998 O 0.16842 0.07726 0.8079 0.0
Co999 Co 0.16664 0.10401 0.78093 0.0
O1000 O 0.16535 0.10461 0.80525 0.0
C1001 C 0.19152 0.07955 0.77054 0.0
C1002 C 0.15628 0.04084 0.77812 0.0
C1003 C 0.16806 0.09188 0.81393 0.0
O1004 O 0.18298 0.06782 0.77687 0.0
O1005 O 0.18654 0.09446 0.77001 0.0
O1006 O 0.1377 0.06941 0.79458 0.0
O1007 O 0.15103 0.08638 0.77861 0.0
Co1008 Co 0.53441 0.81749 0.09068 0.0
O1009 O 0.51961 0.80159 0.09957 0.0
O1010 O 0.54287 0.7955 0.08679 0.0
C1011 C 0.53552 0.83389 0.11299 0.0
O1012 O 0.55279 0.83124 0.08059 0.0
Co1013 Co 0.52142 0.85319 0.08618 0.0
O1014 O 0.54504 0.85772 0.08259 0.0
C1015 C 0.51291 0.82793 0.06162 0.0
C1016 C 0.52994 0.79053 0.09477 0.0
C1017 C 0.55572 0.84676 0.07927 0.0
O1018 O 0.52222 0.81746 0.06897 0.0
O1019 O 0.50996 0.84227 0.06736 0.0
O1020 O 0.54438 0.8207 0.11218 0.0
O1021 O 0.52476 0.83546 0.10144 0.0
Co1022 Co 0.43187 0.78784 0.33848 0.0
O1023 O 0.44503 0.77005 0.34613 0.0
O1024 O 0.45493 0.79302 0.3353 0.0
C1025 C 0.41546 0.78959 0.36071 0.0
O1026 O 0.42154 0.80893 0.32984 0.0
Co1027 Co 0.39454 0.78206 0.33277 0.0
O1028 O 0.39425 0.80641 0.33357 0.0
C1029 C 0.4185 0.77046 0.30802 0.0
C1030 C 0.45765 0.77882 0.3421 0.0
C1031 C 0.40695 0.81499 0.33047 0.0
O1032 O 0.43031 0.77735 0.31598 0.0
O1033 O 0.4037 0.77002 0.31334 0.0
O1034 O 0.42981 0.79646 0.36073 0.0
O1035 O 0.41239 0.78033 0.3482 0.0
Co1036 Co 0.46199 0.68549 0.59149 0.0
O1037 O 0.47992 0.69845 0.59952 0.0
O1038 O 0.45639 0.70863 0.59041 0.0
C1039 C 0.46129 0.6674 0.61244 0.0
O1040 O 0.44066 0.67553 0.58282 0.0
Co1041 Co 0.46767 0.64864 0.58283 0.0
O1042 O 0.4434 0.64805 0.58447 0.0
C1043 C 0.47671 0.67442 0.55885 0.0
C1044 C 0.47073 0.71116 0.59696 0.0
C1045 C 0.43469 0.66088 0.58246 0.0
O1046 O 0.47141 0.68579 0.56847 0.0
O1047 O 0.47688 0.65916 0.56257 0.0
O1048 O 0.45432 0.68163 0.61382 0.0
O1049 O 0.47008 0.66538 0.59939 0.0
Co1050 Co 0.56658 0.71328 0.84209 0.0
O1051 O 0.55324 0.73099 0.84994 0.0
O1052 O 0.54358 0.70823 0.83855 0.0
C1053 C 0.5826 0.71106 0.86459 0.0
O1054 O 0.57689 0.69225 0.8332 0.0
Co1055 Co 0.60407 0.71864 0.83715 0.0
O1056 O 0.60414 0.69428 0.83744 0.0
C1057 C 0.58071 0.73077 0.81203 0.0
C1058 C 0.54069 0.72221 0.84569 0.0
C1059 C 0.59138 0.68594 0.83391 0.0
O1060 O 0.5686 0.72414 0.81976 0.0
O1061 O 0.59542 0.73084 0.8176 0.0
O1062 O 0.56822 0.70427 0.86421 0.0
O1063 O 0.58597 0.72048 0.85227 0.0
Co1064 Co 0.53607 0.18295 0.91003 0.0
O1065 O 0.52126 0.19803 0.8998 0.0
O1066 O 0.54524 0.20498 0.91067 0.0
C1067 C 0.53552 0.16356 0.89026 0.0
O1068 O 0.55455 0.17007 0.92103 0.0
Co1069 Co 0.52203 0.14892 0.92041 0.0
O1070 O 0.54561 0.14406 0.92406 0.0
C1071 C 0.51472 0.1779 0.94055 0.0
C1072 C 0.53199 0.20932 0.90287 0.0
C1073 C 0.55691 0.15488 0.92487 0.0
O1074 O 0.52496 0.18638 0.932 0.0
O1075 O 0.51057 0.16319 0.93689 0.0
O1076 O 0.54478 0.17642 0.88868 0.0
O1077 O 0.52541 0.16403 0.90249 0.0
Co1078 Co 0.06879 0.7856 0.16724 0.0
O1079 O 0.05642 0.76695 0.15993 0.0
O1080 O 0.04548 0.79049 0.16809 0.0
C1081 C 0.08693 0.78562 0.1462 0.0
O1082 O 0.07797 0.80757 0.17513 0.0
Co1083 Co 0.10581 0.78164 0.17605 0.0
O1084 O 0.10555 0.80588 0.17399 0.0
C1085 C 0.08026 0.7714 0.19997 0.0
C1086 C 0.0434 0.77579 0.16218 0.0
C1087 C 0.09236 0.81412 0.17561 0.0
O1088 O 0.06877 0.77692 0.19058 0.0
O1089 O 0.09542 0.77122 0.19577 0.0
O1090 O 0.07261 0.79235 0.14448 0.0
O1091 O 0.08911 0.77778 0.1598 0.0
Co1092 Co 0.46033 0.30997 0.41309 0.0
O1093 O 0.47573 0.2947 0.40411 0.0
O1094 O 0.45251 0.28763 0.41642 0.0
C1095 C 0.45919 0.3268 0.39109 0.0
O1096 O 0.44147 0.32305 0.42324 0.0
Co1097 Co 0.47281 0.34568 0.41873 0.0
O1098 O 0.44915 0.34964 0.4229 0.0
C1099 C 0.48205 0.31986 0.44217 0.0
C1100 C 0.46574 0.28321 0.40863 0.0
C1101 C 0.43849 0.33845 0.4255 0.0
O1102 O 0.47223 0.30979 0.43494 0.0
O1103 O 0.48527 0.33422 0.43665 0.0
O1104 O 0.4506 0.31341 0.39149 0.0
O1105 O 0.46969 0.32839 0.40289 0.0
Co1106 Co 0.93728 0.71259 0.66457 0.0
O1107 O 0.95088 0.72967 0.65589 0.0
O1108 O 0.96017 0.70613 0.66595 0.0
C1109 C 0.91926 0.71187 0.64358 0.0
O1110 O 0.92649 0.69204 0.67397 0.0
Co1111 Co 0.90091 0.72049 0.67317 0.0
O1112 O 0.89916 0.69615 0.67303 0.0
C1113 C 0.92732 0.73102 0.69563 0.0
C1114 C 0.96322 0.72011 0.65886 0.0
C1115 C 0.91159 0.68685 0.67496 0.0
O1116 O 0.93792 0.72295 0.68712 0.0
O1117 O 0.91229 0.73274 0.69132 0.0
O1118 O 0.93319 0.70425 0.64254 0.0
O1119 O 0.91755 0.72118 0.65632 0.0
Co1120 Co 0.59232 0.53484 0.31742 0.0
O1121 O 0.6015 0.5183 0.30348 0.0
O1122 O 0.58856 0.54056 0.2946 0.0
C1123 C 0.6145 0.53778 0.33373 0.0
O1124 O 0.58192 0.55478 0.32849 0.0
Co1125 Co 0.58751 0.52771 0.35467 0.0
O1126 O 0.58608 0.55201 0.35569 0.0
C1127 C 0.56366 0.51457 0.33053 0.0
C1128 C 0.5967 0.52724 0.29124 0.0
C1129 C 0.58207 0.56055 0.34322 0.0
O1130 O 0.57083 0.52239 0.31878 0.0
O1131 O 0.56916 0.51427 0.34527 0.0
O1132 O 0.61377 0.54524 0.31968 0.0
O1133 O 0.60277 0.52751 0.33658 0.0
Co1134 Co 0.71522 0.83583 0.56857 0.0
O1135 O 0.73376 0.84332 0.55631 0.0
O1136 O 0.71092 0.83361 0.54517 0.0
C1137 C 0.71368 0.85773 0.5855 0.0
O1138 O 0.69346 0.82754 0.5779 0.0
Co1139 Co 0.71936 0.82908 0.60596 0.0
O1140 O 0.69508 0.83065 0.60535 0.0
C1141 C 0.73114 0.80454 0.5818 0.0
C1142 C 0.7254 0.84008 0.5432 0.0
C1143 C 0.68688 0.82803 0.59229 0.0
O1144 O 0.72498 0.81296 0.56989 0.0
O1145 O 0.73112 0.80953 0.59672 0.0
O1146 O 0.70722 0.8583 0.57097 0.0
O1147 O 0.72233 0.84481 0.58856 0.0
Co1148 Co 0.41088 0.96221 0.81272 0.0
O1149 O 0.40137 0.97846 0.79865 0.0
O1150 O 0.41112 0.9545 0.79014 0.0
C1151 C 0.39105 0.96251 0.83212 0.0
O1152 O 0.42111 0.94244 0.82419 0.0
Co1153 Co 0.42153 0.97264 0.848 0.0
O1154 O 0.42222 0.94847 0.8512 0.0
C1155 C 0.44219 0.9816 0.81966 0.0
C1156 C 0.40394 0.96834 0.78667 0.0
C1157 C 0.42339 0.93836 0.8393 0.0
O1158 O 0.43331 0.9726 0.81016 0.0
O1159 O 0.43863 0.98443 0.83471 0.0
O1160 O 0.38911 0.95408 0.81874 0.0
O1161 O 0.40382 0.9719 0.83233 0.0
Co1162 Co 0.29067 0.66167 0.0657 0.0
O1163 O 0.2737 0.65095 0.05361 0.0
O1164 O 0.29534 0.66295 0.04228 0.0
C1165 C 0.29399 0.64121 0.08411 0.0
O1166 O 0.31108 0.67295 0.0749 0.0
Co1167 Co 0.28468 0.67046 0.10239 0.0
O1168 O 0.30903 0.67102 0.10242 0.0
C1169 C 0.27134 0.69207 0.07635 0.0
C1170 C 0.28211 0.65414 0.04052 0.0
C1171 C 0.31731 0.67371 0.08942 0.0
O1172 O 0.27845 0.68339 0.06518 0.0
O1173 O 0.27146 0.6882 0.0916 0.0
O1174 O 0.30106 0.64048 0.06986 0.0
O1175 O 0.28396 0.65333 0.0861 0.0
Co1176 Co 0.58882 0.46747 0.68146 0.0
O1177 O 0.59698 0.48496 0.69483 0.0
O1178 O 0.58786 0.46119 0.70446 0.0
C1179 C 0.60964 0.46747 0.66313 0.0
O1180 O 0.58003 0.44651 0.67087 0.0
Co1181 Co 0.57991 0.47466 0.64492 0.0
O1182 O 0.58099 0.45037 0.64346 0.0
C1183 C 0.55737 0.48511 0.67145 0.0
C1184 C 0.5944 0.47548 0.70733 0.0
C1185 C 0.57933 0.44114 0.65599 0.0
O1186 O 0.56595 0.47728 0.68221 0.0
O1187 O 0.56172 0.48657 0.65641 0.0
O1188 O 0.61121 0.4599 0.67705 0.0
O1189 O 0.5965 0.47619 0.66167 0.0
Co1190 Co 0.7878 0.8363 0.93152 0.0
O1191 O 0.7693 0.84461 0.94331 0.0
O1192 O 0.79123 0.83352 0.955 0.0
C1193 C 0.79087 0.85825 0.91486 0.0
O1194 O 0.80934 0.82689 0.92281 0.0
Co1195 Co 0.7846 0.83006 0.89394 0.0
O1196 O 0.80889 0.8301 0.89533 0.0
C1197 C 0.77074 0.80601 0.91749 0.0
C1198 C 0.777 0.84062 0.95663 0.0
C1199 C 0.81642 0.82693 0.90866 0.0
O1200 O 0.77685 0.81404 0.92968 0.0
O1201 O 0.77162 0.81103 0.90261 0.0
O1202 O 0.79701 0.85837 0.92955 0.0
O1203 O 0.78176 0.84575 0.91141 0.0
Co1204 Co 0.40934 0.04085 0.1839 0.0
O1205 O 0.39873 0.02663 0.19921 0.0
O1206 O 0.4106 0.05023 0.20585 0.0
C1207 C 0.38921 0.04043 0.1649 0.0
O1208 O 0.42073 0.05878 0.17062 0.0
Co1209 Co 0.41865 0.02603 0.14981 0.0
O1210 O 0.42308 0.04942 0.14468 0.0
C1211 C 0.43903 0.01843 0.17853 0.0
C1212 C 0.40217 0.03741 0.21034 0.0
C1213 C 0.42443 0.06081 0.15535 0.0
O1214 O 0.43105 0.02909 0.18708 0.0
O1215 O 0.43486 0.01415 0.164 0.0
O1216 O 0.38812 0.05005 0.17755 0.0
O1217 O 0.40125 0.03013 0.16529 0.0
Co1218 Co 0.21484 0.66342 0.43157 0.0
O1219 O 0.23324 0.65522 0.44362 0.0
O1220 O 0.21079 0.66551 0.455 0.0
C1221 C 0.21245 0.64181 0.4144 0.0
O1222 O 0.19321 0.67237 0.42262 0.0
Co1223 Co 0.21866 0.67047 0.39418 0.0
O1224 O 0.19434 0.66954 0.39512 0.0
C1225 C 0.23175 0.69421 0.41843 0.0
C1226 C 0.22502 0.65848 0.45683 0.0
C1227 C 0.18639 0.67215 0.40835 0.0
O1228 O 0.22527 0.68603 0.43034 0.0
O1229 O 0.23147 0.6893 0.40349 0.0
O1230 O 0.20616 0.64123 0.42901 0.0
O1231 O 0.22145 0.6545 0.41139 0.0
Co1232 Co 0.81653 0.58658 0.03679 0.0
O1233 O 0.80155 0.59693 0.02197 0.0
O1234 O 0.79448 0.58595 0.04588 0.0
C1235 C 0.83579 0.60652 0.0363 0.0
O1236 O 0.82924 0.57543 0.05527 0.0
Co1237 Co 0.85072 0.57634 0.02305 0.0
O1238 O 0.85529 0.5721 0.04658 0.0
C1239 C 0.82182 0.55616 0.01537 0.0
C1240 C 0.79023 0.59392 0.0327 0.0
C1241 C 0.84432 0.57127 0.05773 0.0
O1242 O 0.81319 0.56466 0.02554 0.0
O1243 O 0.83656 0.55987 0.0114 0.0
O1244 O 0.82294 0.60793 0.04559 0.0
O1245 O 0.83553 0.59422 0.02626 0.0
Co1246 Co 0.31706 0.41008 0.46728 0.0
O1247 O 0.30279 0.40248 0.48438 0.0
O1248 O 0.29434 0.41234 0.46046 0.0
C1249 C 0.33429 0.3883 0.46746 0.0
O1250 O 0.32853 0.41854 0.44666 0.0
Co1251 Co 0.3539 0.41691 0.47509 0.0
O1252 O 0.35577 0.41608 0.45082 0.0
C1253 C 0.32858 0.44129 0.48459 0.0
C1254 C 0.29072 0.40585 0.4746 0.0
C1255 C 0.34348 0.4186 0.44148 0.0
O1256 O 0.31734 0.43296 0.47717 0.0
O1257 O 0.3434 0.43623 0.48612 0.0
O1258 O 0.32048 0.38755 0.45958 0.0
O1259 O 0.33625 0.40127 0.47635 0.0
Co1260 Co 0.84079 0.56757 0.71821 0.0
O1261 O 0.84802 0.55352 0.73563 0.0
O1262 O 0.83684 0.54485 0.71235 0.0
C1263 C 0.86352 0.58333 0.71682 0.0
O1264 O 0.83251 0.5786 0.69736 0.0
Co1265 Co 0.83633 0.60498 0.7245 0.0
O1266 O 0.8369 0.60575 0.70015 0.0
C1267 C 0.8108 0.58166 0.73576 0.0
C1268 C 0.8436 0.54135 0.72639 0.0
C1269 C 0.83344 0.59322 0.69143 0.0
O1270 O 0.81834 0.56966 0.72874 0.0
O1271 O 0.81663 0.59626 0.73639 0.0
O1272 O 0.8631 0.56914 0.70963 0.0
O1273 O 0.85111 0.58658 0.72615 0.0
Co1274 Co 0.68593 0.08942 0.96149 0.0
O1275 O 0.69961 0.10112 0.97661 0.0
O1276 O 0.70845 0.08961 0.95356 0.0
C1277 C 0.66548 0.10808 0.96037 0.0
O1278 O 0.67477 0.07703 0.94281 0.0
Co1279 Co 0.65171 0.07769 0.97412 0.0
O1280 O 0.64916 0.07025 0.95106 0.0
C1281 C 0.68129 0.05983 0.9841 0.0
C1282 C 0.71163 0.09823 0.96663 0.0
C1283 C 0.66052 0.07063 0.94029 0.0
O1284 O 0.68984 0.06806 0.97365 0.0
O1285 O 0.66634 0.06318 0.98755 0.0
O1286 O 0.67865 0.11005 0.95162 0.0
O1287 O 0.66609 0.09623 0.97087 0.0
Co1288 Co 0.6633 0.43134 0.21507 0.0
O1289 O 0.65449 0.44535 0.23176 0.0
O1290 O 0.66625 0.45413 0.2088 0.0
C1291 C 0.64149 0.41438 0.21319 0.0
O1292 O 0.67314 0.42014 0.19492 0.0
Co1293 Co 0.66946 0.39446 0.22291 0.0
O1294 O 0.67 0.3929 0.19861 0.0
C1295 C 0.69329 0.41948 0.23423 0.0
C1296 C 0.65865 0.45753 0.22244 0.0
C1297 C 0.67323 0.40525 0.18957 0.0
O1298 O 0.68533 0.43082 0.22659 0.0
O1299 O 0.68827 0.4046 0.23514 0.0
O1300 O 0.64154 0.42836 0.20557 0.0
O1301 O 0.65362 0.41203 0.22313 0.0
Co1302 Co 0.18409 0.41348 0.03746 0.0
O1303 O 0.19717 0.40188 0.02174 0.0
O1304 O 0.20675 0.41258 0.04488 0.0
C1305 C 0.16329 0.39517 0.03866 0.0
O1306 O 0.17362 0.42559 0.0567 0.0
Co1307 Co 0.14997 0.42632 0.02585 0.0
O1308 O 0.14796 0.43298 0.04919 0.0
C1309 C 0.17969 0.44405 0.01597 0.0
C1310 C 0.20944 0.40418 0.03155 0.0
C1311 C 0.15953 0.43211 0.0597 0.0
O1312 O 0.18827 0.43509 0.02579 0.0
O1313 O 0.16455 0.44129 0.01284 0.0
O1314 O 0.17666 0.39278 0.04698 0.0
O1315 O 0.16384 0.40727 0.0284 0.0
Co1316 Co 0.84282 0.93435 0.78646 0.0
O1317 O 0.85187 0.94646 0.76845 0.0
O1318 O 0.84333 0.95764 0.79172 0.0
C1319 C 0.86226 0.91459 0.78735 0.0
O1320 O 0.8333 0.92517 0.80776 0.0
Co1321 Co 0.83111 0.89844 0.78009 0.0
O1322 O 0.83171 0.8977 0.80447 0.0
C1323 C 0.81089 0.92614 0.76866 0.0
C1324 C 0.84998 0.95953 0.77731 0.0
C1325 C 0.83121 0.91053 0.81341 0.0
O1326 O 0.82001 0.93629 0.77667 0.0
O1327 O 0.81419 0.91084 0.76719 0.0
O1328 O 0.86484 0.92871 0.79426 0.0
O1329 O 0.8491 0.91373 0.77857 0.0
Co1330 Co 0.15984 0.56844 0.28512 0.0
O1331 O 0.15205 0.55417 0.26812 0.0
O1332 O 0.16251 0.54575 0.29181 0.0
C1333 C 0.13793 0.58547 0.28537 0.0
O1334 O 0.16859 0.57981 0.30564 0.0
Co1335 Co 0.16616 0.60544 0.27757 0.0
O1336 O 0.16605 0.60709 0.3019 0.0
C1337 C 0.19015 0.58033 0.26672 0.0
C1338 C 0.1558 0.54211 0.27778 0.0
C1339 C 0.16878 0.59468 0.31102 0.0
O1340 O 0.18245 0.56902 0.2747 0.0
O1341 O 0.1848 0.59505 0.26533 0.0
O1342 O 0.13743 0.57165 0.29327 0.0
O1343 O 0.15074 0.58759 0.2763 0.0
H1344 H 0.03117 0.30297 0.03986 0.0
H1345 H 0.98472 0.32748 0.04694 0.0
H1346 H 0.02401 0.29778 0.0111 0.0
H1347 H 0.97742 0.32185 0.01838 0.0
H1348 H 0.01247 0.3267 0.95996 0.0
H1349 H 0.01966 0.32197 0.9887 0.0
H1350 H 0.97347 0.29721 0.99629 0.0
H1351 H 0.96643 0.30152 0.96733 0.0
C1352 C 0.0192 0.30672 0.03544 0.0
C1353 C 0.00851 0.31569 0.0456 0.0
C1354 C 0.01516 0.30382 0.01899 0.0
C1355 C 1.00019 0.30943 0.01258 0.0
C1356 C 0.98898 0.31727 0.02307 0.0
C1357 C 0.99318 0.32053 0.03939 0.0
C1358 C 0.00407 0.31983 0.96764 0.0
C1359 C 0.98889 0.3145 0.96143 0.0
C1360 C 0.0082 0.31707 0.98405 0.0
C1361 C 0.99709 0.30926 0.99466 0.0
C1362 C 0.98224 0.30323 0.98831 0.0
C1363 C 0.97827 0.30564 0.97176 0.0
H1364 H 0.90043 0.2421 0.21786 0.0
H1365 H 0.95223 0.23168 0.21279 0.0
H1366 H 0.90452 0.24887 0.24649 0.0
H1367 H 0.95627 0.23877 0.24187 0.0
H1368 H 0.95003 0.27423 0.29095 0.0
H1369 H 0.95189 0.26504 0.26228 0.0
H1370 H 0.91295 0.23025 0.271 0.0
H1371 H 0.91106 0.23927 0.2994 0.0
C1372 C 0.91276 0.24137 0.22275 0.0
C1373 C 0.92597 0.23615 0.21292 0.0
C1374 C 0.91506 0.24517 0.23926 0.0
C1375 C 0.93065 0.24405 0.24648 0.0
C1376 C 0.9441 0.23963 0.23661 0.0
C1377 C 0.94176 0.23559 0.21998 0.0
C1378 C 0.94226 0.26424 0.28688 0.0
C1379 C 0.93021 0.25767 0.2974 0.0
C1380 C 0.9433 0.25903 0.27046 0.0
C1381 C 0.93232 0.2472 0.26437 0.0
C1382 C 0.92136 0.23962 0.2753 0.0
C1383 C 0.92032 0.24477 0.29159 0.0
H1384 H 0.01039 0.17399 0.53914 0.0
H1385 H 0.9641 0.19855 0.53153 0.0
H1386 H 0.01781 0.179 0.51046 0.0
H1387 H 0.9713 0.203 0.50254 0.0
H1388 H 0.98593 0.17229 0.45172 0.0
H1389 H 0.97728 0.17721 0.48008 0.0
H1390 H 0.02121 0.20543 0.48867 0.0
H1391 H 0.02966 0.20102 0.46014 0.0
C1392 C 0.00197 0.18076 0.53139 0.0
C1393 C 0.98672 0.18595 0.53753 0.0
C1394 C 0.00622 0.18365 0.51503 0.0
C1395 C 0.99512 0.19139 0.50436 0.0
C1396 C 0.98008 0.19709 0.51059 0.0
C1397 C 0.97602 0.19461 0.52714 0.0
C1398 C 0.99346 0.18002 0.45949 0.0
C1399 C 0.00846 0.18627 0.4537 0.0
C1400 C 0.98849 0.18285 0.47569 0.0
C1401 C 0.99862 0.19165 0.48651 0.0
C1402 C 0.01318 0.19866 0.48051 0.0
C1403 C 0.01795 0.19619 0.46418 0.0
H1404 H 0.07929 0.25914 0.79406 0.0
H1405 H 0.04798 0.21712 0.78619 0.0
H1406 H 0.07464 0.26791 0.76571 0.0
H1407 H 0.04382 0.22565 0.7576 0.0
H1408 H 0.07447 0.23604 0.70621 0.0
H1409 H 0.06944 0.22801 0.73472 0.0
H1410 H 0.04861 0.27567 0.74457 0.0
H1411 H 0.05309 0.28355 0.71583 0.0
C1412 C 0.07117 0.25197 0.78636 0.0
C1413 C 0.06401 0.23746 0.79231 0.0
C1414 C 0.06846 0.25702 0.77018 0.0
C1415 C 0.05887 0.24744 0.75954 0.0
C1416 C 0.0512 0.23326 0.76563 0.0
C1417 C 0.05354 0.22844 0.78197 0.0
C1418 C 0.06832 0.2446 0.71433 0.0
C1419 C 0.06413 0.26039 0.70883 0.0
C1420 C 0.06543 0.24 0.73061 0.0
C1421 C 0.05868 0.25125 0.74178 0.0
C1422 C 0.05377 0.26678 0.73613 0.0
C1423 C 0.05625 0.27123 0.7197 0.0
H1424 H 0.969 0.69997 0.03684 0.0
H1425 H 0.01432 0.67355 0.04413 0.0
H1426 H 0.9763 0.70441 0.00797 0.0
H1427 H 0.02182 0.6785 0.01547 0.0
H1428 H 0.98694 0.67168 0.95809 0.0
H1429 H 0.98015 0.67754 0.98673 0.0
H1430 H 0.02574 0.70384 0.99228 0.0
H1431 H 0.03238 0.69845 0.96339 0.0
C1432 C 0.98082 0.69575 0.03247 0.0
C1433 C 0.9911 0.6864 0.0427 0.0
C1434 C 0.98493 0.6982 0.01595 0.0
C1435 C 0.99959 0.69177 0.00957 0.0
C1436 C 0.01052 0.6837 0.02016 0.0
C1437 C 0.00622 0.68086 0.03653 0.0
C1438 C 0.9953 0.67911 0.96527 0.0
C1439 C 0.01019 0.68458 0.9585 0.0
C1440 C 0.99138 0.68252 0.98163 0.0
C1441 C 0.00243 0.69116 0.99163 0.0
C1442 C 0.01701 0.69723 0.98474 0.0
C1443 C 0.02075 0.69418 0.96823 0.0
H1444 H 0.55373 0.28356 0.21743 0.0
H1445 H 0.58054 0.23839 0.21063 0.0
H1446 H 0.54897 0.27632 0.24633 0.0
H1447 H 0.57527 0.23093 0.23925 0.0
H1448 H 0.55265 0.21864 0.28945 0.0
H1449 H 0.54907 0.22619 0.26053 0.0
H1450 H 0.57391 0.27208 0.2694 0.0
H1451 H 0.57799 0.26436 0.29815 0.0
C1452 C 0.55813 0.27186 0.22197 0.0
C1453 C 0.56751 0.26152 0.21183 0.0
C1454 C 0.55547 0.26778 0.23848 0.0
C1455 C 0.56172 0.25307 0.24494 0.0
C1456 C 0.57019 0.24227 0.23451 0.0
C1457 C 0.57324 0.24655 0.21817 0.0
C1458 C 0.55695 0.23053 0.28533 0.0
C1459 C 0.56564 0.2409 0.29604 0.0
C1460 C 0.55496 0.23479 0.26879 0.0
C1461 C 0.56121 0.2497 0.2628 0.0
C1462 C 0.56886 0.26058 0.27376 0.0
C1463 C 0.57123 0.25614 0.29018 0.0
H1464 H 0.01795 0.7995 0.53982 0.0
H1465 H 0.00177 0.84992 0.53574 0.0
H1466 H 0.0112 0.79521 0.5107 0.0
H1467 H 0.99542 0.84557 0.507 0.0
H1468 H 0.01192 0.83984 0.45447 0.0
H1469 H 0.01861 0.83782 0.48346 0.0
H1470 H 0.98261 0.79952 0.48945 0.0
H1471 H 0.97558 0.80159 0.46016 0.0
C1472 C 0.01276 0.80957 0.53287 0.0
C1473 C 0.01061 0.82512 0.54015 0.0
C1474 C 0.00891 0.80708 0.51623 0.0
C1475 C 0.00304 0.82014 0.50665 0.0
C1476 C 1.00013 0.83537 0.51412 0.0
C1477 C 0.00377 0.83781 0.53064 0.0
C1478 C 0.00558 0.83074 0.4618 0.0
C1479 C 0.99298 0.82109 0.45501 0.0
C1480 C 0.00945 0.82961 0.47842 0.0
C1481 C 0.00095 0.8187 0.48866 0.0
C1482 C 0.98931 0.80803 0.48174 0.0
C1483 C 0.98533 0.80922 0.465 0.0
H1484 H 0.4506 0.22489 0.71392 0.0
H1485 H 0.41204 0.26066 0.70731 0.0
H1486 H 0.45395 0.23403 0.74254 0.0
H1487 H 0.41535 0.26955 0.73564 0.0
H1488 H 0.40428 0.25392 0.78882 0.0
H1489 H 0.40848 0.24641 0.76032 0.0
H1490 H 0.4581 0.2646 0.76236 0.0
H1491 H 0.45397 0.27251 0.79122 0.0
C1492 C 0.4433 0.23509 0.71835 0.0
C1493 C 0.4309 0.24191 0.70845 0.0
C1494 C 0.44519 0.24024 0.73471 0.0
C1495 C 0.43471 0.25228 0.74126 0.0
C1496 C 0.42344 0.26012 0.73088 0.0
C1497 C 0.42158 0.25503 0.71467 0.0
C1498 C 0.4162 0.25622 0.7834 0.0
C1499 C 0.4287 0.26407 0.79235 0.0
C1500 C 0.41856 0.2519 0.76703 0.0
C1501 C 0.43352 0.25514 0.75916 0.0
C1502 C 0.44645 0.26204 0.76821 0.0
C1503 C 0.44404 0.26654 0.7847 0.0
H1504 H 0.96117 0.97741 0.29931 0.0
H1505 H 0.95689 0.00808 0.34242 0.0
H1506 H 0.99023 0.98512 0.2969 0.0
H1507 H 0.98568 0.01546 0.34003 0.0
H1508 H 0.03878 0.9995 0.34733 0.0
H1509 H 0.00992 0.99315 0.34389 0.0
H1510 H 0.01097 0.01315 0.2949 0.0
H1511 H 0.04019 0.0199 0.29832 0.0
C1512 C 0.96625 0.98609 0.308 0.0
C1513 C 0.95673 0.99189 0.32123 0.0
C1514 C 0.98288 0.99046 0.30661 0.0
C1515 C 0.99018 0.00062 0.31847 0.0
C1516 C 0.98037 0.00739 0.33088 0.0
C1517 C 0.96385 0.00315 0.33221 0.0
C1518 C 0.03305 0.00244 0.3357 0.0
C1519 C 0.04186 0.01045 0.32318 0.0
C1520 C 0.01646 0.99882 0.33378 0.0
C1521 C 0.00821 0.00291 0.31925 0.0
C1522 C 0.01709 0.00995 0.30626 0.0
C1523 C 0.0338 0.01378 0.30824 0.0
H1524 H 0.21784 0.28567 0.55301 0.0
H1525 H 0.26392 0.29112 0.57858 0.0
H1526 H 0.22438 0.25682 0.54745 0.0
H1527 H 0.27062 0.26249 0.57258 0.0
H1528 H 0.23433 0.20497 0.57613 0.0
H1529 H 0.22766 0.23381 0.57118 0.0
H1530 H 0.27465 0.24073 0.54778 0.0
H1531 H 0.28115 0.21168 0.55227 0.0
C1532 C 0.2296 0.28087 0.55693 0.0
C1533 C 0.24035 0.29061 0.56629 0.0
C1534 C 0.23329 0.26437 0.55381 0.0
C1535 C 0.24799 0.25747 0.55959 0.0
C1536 C 0.25927 0.26755 0.56786 0.0
C1537 C 0.25541 0.2839 0.57134 0.0
C1538 C 0.24298 0.21251 0.56941 0.0
C1539 C 0.25823 0.2061 0.56456 0.0
C1540 C 0.23916 0.22899 0.56655 0.0
C1541 C 0.25068 0.23947 0.55915 0.0
C1542 C 0.26556 0.23287 0.55348 0.0
C1543 C 0.26922 0.21625 0.55596 0.0
H1544 H 0.95775 0.51031 0.82781 0.0
H1545 H 0.96531 0.46593 0.79987 0.0
H1546 H 0.98556 0.51931 0.82106 0.0
H1547 H 0.9934 0.47475 0.79355 0.0
H1548 H 0.04516 0.48737 0.82187 0.0
H1549 H 0.01682 0.47873 0.81713 0.0
H1550 H 0.00606 0.5258 0.79541 0.0
H1551 H 0.03465 0.53429 0.79965 0.0
C1552 C 0.96523 0.50269 0.81989 0.0
C1553 C 0.9594 0.48743 0.81438 0.0
C1554 C 0.9811 0.50786 0.81597 0.0
C1555 C 0.99158 0.4977 0.8068 0.0
C1556 C 0.9855 0.48281 0.80058 0.0
C1557 C 0.96944 0.47782 0.80415 0.0
C1558 C 0.03689 0.49563 0.81553 0.0
C1559 C 0.04206 0.51147 0.8111 0.0
C1560 C 0.02071 0.49069 0.81279 0.0
C1561 C 0.0093 0.50164 0.80595 0.0
C1562 C 0.01468 0.51714 0.80065 0.0
C1563 C 0.03102 0.52194 0.803 0.0
H1564 H 0.74401 0.2064 0.08673 0.0
H1565 H 0.78538 0.21427 0.05454 0.0
H1566 H 0.73513 0.23477 0.08221 0.0
H1567 H 0.77675 0.24287 0.05054 0.0
H1568 H 0.76429 0.29446 0.08232 0.0
H1569 H 0.77309 0.26595 0.07857 0.0
H1570 H 0.72802 0.25528 0.05301 0.0
H1571 H 0.71939 0.28395 0.0562 0.0
C1572 C 0.75104 0.21412 0.0785 0.0
C1573 C 0.76536 0.20815 0.07098 0.0
C1574 C 0.74594 0.23029 0.07588 0.0
C1575 C 0.75529 0.24088 0.06602 0.0
C1576 C 0.76934 0.23484 0.05811 0.0
C1577 C 0.77421 0.21851 0.06037 0.0
C1578 C 0.75648 0.28615 0.07549 0.0
C1579 C 0.74118 0.29142 0.06953 0.0
C1580 C 0.76153 0.26989 0.07333 0.0
C1581 C 0.75119 0.25854 0.06552 0.0
C1582 C 0.7362 0.26389 0.05899 0.0
C1583 C 0.73133 0.28028 0.06076 0.0
H1584 H 0.0434 0.01213 0.66809 0.0
H1585 H 0.0346 0.96648 0.69348 0.0
H1586 H 0.01489 0.0203 0.67285 0.0
H1587 H 0.00582 0.97444 0.6977 0.0
H1588 H 0.95552 0.98923 0.66662 0.0
H1589 H 0.98386 0.98044 0.67132 0.0
H1590 H 0.99294 0.02442 0.69933 0.0
H1591 H 0.96443 0.03302 0.69514 0.0
C1592 C 0.03544 0.00403 0.675 0.0
C1593 C 0.04117 0.98872 0.68046 0.0
C1594 C 0.01918 0.0087 0.67774 0.0
C1595 C 0.00824 0.99797 0.68562 0.0
C1596 C 0.01409 0.98292 0.69166 0.0
C1597 C 0.03052 0.97843 0.68932 0.0
C1598 C 0.96343 0.99679 0.67417 0.0
C1599 C 0.95777 0.01181 0.68049 0.0
C1600 C 0.9796 0.99173 0.6769 0.0
C1601 C 0.9905 0.00179 0.68567 0.0
C1602 C 0.9847 0.01645 0.6926 0.0
C1603 C 0.9684 0.02131 0.69023 0.0
H1604 H 0.23262 0.21621 0.89506 0.0
H1605 H 0.23766 0.20826 0.94728 0.0
H1606 H 0.2445 0.24318 0.89787 0.0
H1607 H 0.25016 0.23564 0.95004 0.0
H1608 H 0.25551 0.2945 0.94505 0.0
H1609 H 0.24447 0.26637 0.94685 0.0
H1610 H 0.27187 0.25316 0.9034 0.0
H1611 H 0.28221 0.28097 0.90134 0.0
C1612 C 0.23644 0.22013 0.90717 0.0
C1613 C 0.23445 0.20989 0.9209 0.0
C1614 C 0.24332 0.23566 0.90877 0.0
C1615 C 0.24865 0.24144 0.92412 0.0
C1616 C 0.24623 0.23149 0.93804 0.0
C1617 C 0.23915 0.21582 0.93645 0.0
C1618 C 0.25927 0.28544 0.93608 0.0
C1619 C 0.26939 0.28995 0.92285 0.0
C1620 C 0.25301 0.26937 0.93711 0.0
C1621 C 0.25698 0.25767 0.92501 0.0
C1622 C 0.26815 0.262 0.91262 0.0
C1623 C 0.27413 0.27793 0.91146 0.0
H1624 H 0.04262 0.51622 0.17425 0.0
H1625 H 0.03645 0.47011 0.19962 0.0
H1626 H 0.0139 0.523 0.17959 0.0
H1627 H 0.00753 0.47674 0.20455 0.0
H1628 H 0.95658 0.48622 0.17465 0.0
H1629 H 0.98534 0.47983 0.18027 0.0
H1630 H 0.99138 0.52704 0.20348 0.0
H1631 H 0.96241 0.5333 0.19827 0.0
C1632 C 0.03523 0.50774 0.18135 0.0
C1633 C 0.04175 0.49263 0.18648 0.0
C1634 C 0.01882 0.51164 0.18445 0.0
C1635 C 0.00853 0.50035 0.19242 0.0
C1636 C 0.01525 0.48564 0.1984 0.0
C1637 C 0.0318 0.48191 0.19564 0.0
C1638 C 0.96392 0.49502 0.18138 0.0
C1639 C 0.95729 0.51026 0.18598 0.0
C1640 C 0.98034 0.49134 0.18466 0.0
C1641 C 0.99054 0.50297 0.19227 0.0
C1642 C 0.98373 0.51788 0.19763 0.0
C1643 C 0.96717 0.5214 0.19471 0.0
H1644 H 0.72797 0.2165 0.44963 0.0
H1645 H 0.75321 0.21583 0.40291 0.0
H1646 H 0.73531 0.2456 0.45295 0.0
H1647 H 0.76018 0.24458 0.40624 0.0
H1648 H 0.74519 0.2978 0.40449 0.0
H1649 H 0.73763 0.2691 0.40713 0.0
H1650 H 0.76406 0.26597 0.45286 0.0
H1651 H 0.77196 0.29498 0.45024 0.0
C1652 C 0.73531 0.2224 0.44025 0.0
C1653 C 0.73976 0.21385 0.42587 0.0
C1654 C 0.73947 0.23903 0.44217 0.0
C1655 C 0.74804 0.24731 0.4297 0.0
C1656 C 0.75333 0.23851 0.41589 0.0
C1657 C 0.74932 0.22201 0.41402 0.0
C1658 C 0.74925 0.29117 0.41528 0.0
C1659 C 0.75946 0.29868 0.427 0.0
C1660 C 0.74489 0.27471 0.41676 0.0
C1661 C 0.7505 0.26532 0.43005 0.0
C1662 C 0.75963 0.273 0.44248 0.0
C1663 C 0.76412 0.28958 0.44096 0.0
H1664 H 0.30129 0.96235 0.96604 0.0
H1665 H 0.3265 0.95524 0.01209 0.0
H1666 H 0.29608 0.99107 0.97339 0.0
H1667 H 0.32083 0.98375 0.0196 0.0
H1668 H 0.32569 0.0421 0.98497 0.0
H1669 H 0.32047 0.01349 0.97756 0.0
H1670 H 0.29609 0.00585 0.02394 0.0
H1671 H 0.30084 0.03471 0.03117 0.0
C1672 C 0.30518 0.96675 0.97797 0.0
C1673 C 0.31435 0.95659 0.98848 0.0
C1674 C 0.30226 0.98318 0.98212 0.0
C1675 C 0.30806 0.98957 0.99705 0.0
C1676 C 0.3161 0.97907 0.00809 0.0
C1677 C 0.31939 0.96279 0.00377 0.0
C1678 C 0.31872 0.03445 0.99333 0.0
C1679 C 0.31363 0.04061 0.00862 0.0
C1680 C 0.31571 0.01811 0.98908 0.0
C1681 C 0.30791 0.00749 1.0002 0.0
C1682 C 0.30208 0.01383 0.01515 0.0
C1683 C 0.30471 0.03033 0.01923 0.0
H1684 H 0.80121 0.04273 0.52127 0.0
H1685 H 0.84563 0.04661 0.49246 0.0
H1686 H 0.79879 0.01372 0.5133 0.0
H1687 H 0.84319 0.0179 0.48481 0.0
H1688 H 0.84941 0.96502 0.50209 0.0
H1689 H 0.84519 0.99373 0.50873 0.0
H1690 H 0.79865 0.99309 0.48359 0.0
H1691 H 0.80289 0.96399 0.47657 0.0
C1692 C 0.81019 0.03757 0.51294 0.0
C1693 C 0.82378 0.04695 0.50774 0.0
C1694 C 0.80878 0.02099 0.5084 0.0
C1695 C 0.82094 0.01362 0.49866 0.0
C1696 C 0.83376 0.0233 0.4925 0.0
C1697 C 0.83514 0.03976 0.49692 0.0
C1698 C 0.83814 0.97082 0.49808 0.0
C1699 C 0.82662 0.96222 0.48853 0.0
C1700 C 0.83576 0.98729 0.50191 0.0
C1701 C 0.82175 0.99561 0.49643 0.0
C1702 C 0.80959 0.98688 0.48788 0.0
C1703 C 0.81202 0.97026 0.48391 0.0
H1704 H 0.28663 0.05251 0.7267 0.0
H1705 H 0.29505 0.08908 0.7642 0.0
H1706 H 0.2577 0.05083 0.73505 0.0
H1707 H 0.26639 0.0874 0.77232 0.0
H1708 H 0.21385 0.10175 0.75928 0.0
H1709 H 0.24248 0.09731 0.75267 0.0
H1710 H 0.23695 0.04545 0.76174 0.0
H1711 H 0.20789 0.04982 0.76869 0.0
C1712 C 0.28247 0.05982 0.73699 0.0
C1713 C 0.29308 0.07117 0.74458 0.0
C1714 C 0.26592 0.05885 0.74174 0.0
C1715 C 0.25982 0.06922 0.75409 0.0
C1716 C 0.27075 0.07948 0.76256 0.0
C1717 C 0.28717 0.08042 0.7579 0.0
C1718 C 0.21854 0.08933 0.7598 0.0
C1719 C 0.20849 0.07617 0.7647 0.0
C1720 C 0.23503 0.08682 0.75606 0.0
C1721 C 0.24195 0.0711 0.75696 0.0
C1722 C 0.23187 0.05772 0.76105 0.0
C1723 C 0.21527 0.06025 0.76502 0.0
H1724 H 0.20013 0.46516 0.03198 0.0
H1725 H 0.17424 0.45838 0.98626 0.0
H1726 H 0.20602 0.49369 0.02435 0.0
H1727 H 0.1806 0.48665 0.97845 0.0
H1728 H 0.20094 0.5369 0.96605 0.0
H1729 H 0.20574 0.50818 0.97369 0.0
H1730 H 0.18205 0.51664 0.02029 0.0
H1731 H 0.17677 0.54513 0.01246 0.0
C1732 C 0.19626 0.46957 0.02004 0.0
C1733 C 0.18671 0.45958 0.0097 0.0
C1734 C 0.19957 0.48589 0.01574 0.0
C1735 C 0.19378 0.49233 0.00083 0.0
C1736 C 0.18535 0.48194 0.98994 0.0
C1737 C 0.18168 0.46579 0.99443 0.0
C1738 C 0.19729 0.53277 0.97814 0.0
C1739 C 0.18848 0.54322 0.98868 0.0
C1740 C 0.19994 0.51633 0.98246 0.0
C1741 C 0.19424 0.51023 0.99755 0.0
C1742 C 0.1867 0.52107 0.00864 0.0
C1743 C 0.18366 0.53736 0.00416 0.0
H1744 H 0.28784 0.95293 0.27271 0.0
H1745 H 0.28774 0.90457 0.25084 0.0
H1746 H 0.25872 0.9561 0.26536 0.0
H1747 H 0.25897 0.90774 0.24386 0.0
H1748 H 0.20588 0.90765 0.2599 0.0
H1749 H 0.23479 0.91031 0.26649 0.0
H1750 H 0.23781 0.95434 0.2373 0.0
H1751 H 0.20858 0.95168 0.23034 0.0
C1752 C 0.28178 0.94316 0.26605 0.0
C1753 C 0.2901 0.92838 0.26262 0.0
C1754 C 0.26513 0.94498 0.26189 0.0
C1755 C 0.2566 0.93202 0.25434 0.0
C1756 C 0.26522 0.91779 0.24994 0.0
C1757 C 0.28174 0.91602 0.25394 0.0
C1758 C 0.21252 0.91808 0.25501 0.0
C1759 C 0.20487 0.9293 0.24434 0.0
C1760 C 0.22913 0.91956 0.2588 0.0
C1761 C 0.23854 0.93236 0.25218 0.0
C1762 C 0.23078 0.94433 0.2425 0.0
C1763 C 0.21406 0.94278 0.23856 0.0
H1764 H 0.66945 0.96049 0.99023 0.0
H1765 H 0.69839 0.96607 0.03424 0.0
H1766 H 0.67658 0.98845 0.98197 0.0
H1767 H 0.70504 0.99436 0.02622 0.0
H1768 H 0.67684 0.04705 0.01465 0.0
H1769 H 0.68128 0.01852 0.02288 0.0
H1770 H 0.70338 0.00833 0.97586 0.0
H1771 H 0.69947 0.03706 0.96779 0.0
C1772 C 0.67764 0.96759 0.99793 0.0
C1773 C 0.68338 0.96116 0.01285 0.0
C1774 C 0.68177 0.98354 0.99319 0.0
C1775 C 0.69137 0.9935 0.00347 0.0
C1776 C 0.69771 0.98686 0.01806 0.0
C1777 C 0.69395 0.9707 0.0226 0.0
C1778 C 0.68324 0.03887 0.00634 0.0
C1779 C 0.68783 0.04424 0.99061 0.0
C1780 C 0.68579 0.02257 0.01105 0.0
C1781 C 0.69261 0.01128 0.99996 0.0
C1782 C 0.69816 0.01686 0.98462 0.0
C1783 C 0.696 0.03329 0.98006 0.0
H1784 H 0.29204 0.45357 0.77374 0.0
H1785 H 0.29444 0.41007 0.74338 0.0
H1786 H 0.26285 0.45657 0.76683 0.0
H1787 H 0.26547 0.4131 0.73682 0.0
H1788 H 0.21278 0.4087 0.75963 0.0
H1789 H 0.24174 0.41303 0.76528 0.0
H1790 H 0.24194 0.45549 0.73376 0.0
H1791 H 0.21269 0.45113 0.72771 0.0
C1792 C 0.28653 0.44492 0.76528 0.0
C1793 C 0.29558 0.43143 0.75931 0.0
C1794 C 0.26984 0.44667 0.76136 0.0
C1795 C 0.26203 0.43498 0.75143 0.0
C1796 C 0.27129 0.42222 0.74456 0.0
C1797 C 0.28788 0.4205 0.74837 0.0
C1798 C 0.2188 0.41916 0.75406 0.0
C1799 C 0.21038 0.42942 0.743 0.0
C1800 C 0.2354 0.42161 0.75734 0.0
C1801 C 0.24398 0.43448 0.74983 0.0
C1802 C 0.23548 0.4455 0.73968 0.0
C1803 C 0.21877 0.44299 0.73627 0.0
H1804 H 0.71427 0.05228 0.27687 0.0
H1805 H 0.70678 0.09068 0.24108 0.0
H1806 H 0.743 0.04974 0.26789 0.0
H1807 H 0.73519 0.08814 0.23231 0.0
H1808 H 0.78823 0.10021 0.24567 0.0
H1809 H 0.75972 0.09615 0.25297 0.0
H1810 H 0.76311 0.04506 0.23958 0.0
H1811 H 0.79205 0.04906 0.23189 0.0
C1812 C 0.71857 0.05978 0.26677 0.0
C1813 C 0.70834 0.07188 0.25987 0.0
C1814 C 0.73499 0.05834 0.26168 0.0
C1815 C 0.74131 0.06896 0.24964 0.0
C1816 C 0.73067 0.07998 0.2418 0.0
C1817 C 0.71439 0.08141 0.24682 0.0
C1818 C 0.78311 0.08801 0.24435 0.0
C1819 C 0.79251 0.07501 0.23797 0.0
C1820 C 0.7667 0.08574 0.24851 0.0
C1821 C 0.75919 0.07037 0.24659 0.0
C1822 C 0.76865 0.05705 0.24109 0.0
C1823 C 0.78518 0.05937 0.2367 0.0
H1824 H 0.94717 0.78184 0.78865 0.0
H1825 H 0.92126 0.73662 0.79834 0.0
H1826 H 0.95012 0.7739 0.75974 0.0
H1827 H 0.92478 0.7285 0.76959 0.0
H1828 H 0.94842 0.71718 0.71763 0.0
H1829 H 0.95254 0.72527 0.74639 0.0
H1830 H 0.92113 0.76722 0.73912 0.0
H1831 H 0.91649 0.75889 0.71061 0.0
C1832 C 0.94258 0.76999 0.78473 0.0
C1833 C 0.93397 0.75984 0.79572 0.0
C1834 C 0.94422 0.76552 0.76822 0.0
C1835 C 0.93771 0.7506 0.76257 0.0
C1836 C 0.93001 0.74 0.77374 0.0
C1837 C 0.92797 0.74466 0.79014 0.0
C1838 C 0.94269 0.72832 0.72209 0.0
C1839 C 0.93212 0.73741 0.71192 0.0
C1840 C 0.94501 0.73288 0.73851 0.0
C1841 C 0.93718 0.74686 0.74483 0.0
C1842 C 0.92738 0.75646 0.73443 0.0
C1843 C 0.92471 0.75167 0.71817 0.0
H1844 H 0.05022 0.72518 0.29247 0.0
H1845 H 0.08538 0.76303 0.3044 0.0
H1846 H 0.04946 0.73502 0.264 0.0
H1847 H 0.0845 0.77279 0.2762 0.0
H1848 H 0.10187 0.76287 0.22396 0.0
H1849 H 0.0963 0.75603 0.25226 0.0
H1850 H 0.04428 0.76059 0.24359 0.0
H1851 H 0.04981 0.76772 0.21474 0.0
C1852 C 0.05736 0.7359 0.28918 0.0
C1853 C 0.06811 0.74313 0.30062 0.0
C1854 C 0.05691 0.74151 0.27288 0.0
C1855 C 0.06719 0.75443 0.26786 0.0
C1856 C 0.0767 0.76259 0.27968 0.0
C1857 C 0.07717 0.75701 0.29585 0.0
C1858 C 0.08918 0.7624 0.22789 0.0
C1859 C 0.07629 0.76597 0.21696 0.0
C1860 C 0.08602 0.75858 0.24423 0.0
C1861 C 0.06988 0.75806 0.2502 0.0
C1862 C 0.05685 0.76102 0.23929 0.0
C1863 C 0.06003 0.76508 0.22281 0.0
H1864 H 0.55412 0.77295 0.71555 0.0
H1865 H 0.59946 0.74585 0.71059 0.0
H1866 H 0.55213 0.76408 0.7443 0.0
H1867 H 0.5974 0.73715 0.739 0.0
H1868 H 0.60295 0.74703 0.79303 0.0
H1869 H 0.60044 0.75493 0.76449 0.0
H1870 H 0.55028 0.73799 0.76386 0.0
H1871 H 0.55272 0.72986 0.79281 0.0
C1872 C 0.56346 0.76486 0.72044 0.0
C1873 C 0.5771 0.76036 0.71081 0.0
C1874 C 0.56231 0.75981 0.73689 0.0
C1875 C 0.5748 0.75023 0.74396 0.0
C1876 C 0.58779 0.74484 0.73399 0.0
C1877 C 0.58892 0.74981 0.71766 0.0
C1878 C 0.59129 0.74504 0.78698 0.0
C1879 C 0.5781 0.73757 0.79526 0.0
C1880 C 0.5899 0.74953 0.77054 0.0
C1881 C 0.57528 0.74677 0.76186 0.0
C1882 C 0.56172 0.74017 0.77026 0.0
C1883 C 0.56314 0.73554 0.78682 0.0
H1884 H 0.4482 0.72971 0.2118 0.0
H1885 H 0.40272 0.75645 0.20615 0.0
H1886 H 0.44929 0.73803 0.24077 0.0
H1887 H 0.40387 0.76456 0.23478 0.0
H1888 H 0.39707 0.75379 0.28846 0.0
H1889 H 0.40047 0.7461 0.25993 0.0
H1890 H 0.45024 0.76414 0.26062 0.0
H1891 H 0.4469 0.77205 0.28952 0.0
C1892 C 0.43864 0.7376 0.21659 0.0
C1893 C 0.42523 0.74218 0.20669 0.0
C1894 C 0.43927 0.74233 0.23317 0.0
C1895 C 0.42648 0.75163 0.24006 0.0
C1896 C 0.41371 0.75708 0.22987 0.0
C1897 C 0.4131 0.75245 0.21342 0.0
C1898 C 0.40883 0.75606 0.2827 0.0
C1899 C 0.42163 0.7638 0.29131 0.0
C1900 C 0.41074 0.75168 0.26628 0.0
C1901 C 0.42551 0.75482 0.25798 0.0
C1902 C 0.4387 0.76166 0.26673 0.0
C1903 C 0.43676 0.76618 0.28326 0.0
H1904 H 0.2756 0.7104 0.0481 0.0
H1905 H 0.25075 0.71064 0.09501 0.0
H1906 H 0.26768 0.73926 0.04398 0.0
H1907 H 0.24319 0.7392 0.09087 0.0
H1908 H 0.26147 0.79235 0.09049 0.0
H1909 H 0.26944 0.76382 0.0866 0.0
H1910 H 0.23478 0.75923 0.04691 0.0
H1911 H 0.22654 0.78804 0.05083 0.0
C1912 C 0.26814 0.71641 0.05732 0.0
C1913 C 0.26401 0.70822 0.072 0.0
C1914 C 0.26366 0.73291 0.05494 0.0
C1915 C 0.25501 0.74138 0.0672 0.0
C1916 C 0.24998 0.73291 0.08131 0.0
C1917 C 0.25434 0.71654 0.08365 0.0
C1918 C 0.25581 0.78546 0.08062 0.0
C1919 C 0.24321 0.79242 0.07111 0.0
C1920 C 0.2604 0.76913 0.07841 0.0
C1921 C 0.25259 0.75938 0.06659 0.0
C1922 C 0.241 0.76659 0.05607 0.0
C1923 C 0.23634 0.78306 0.05829 0.0
H1924 H 0.77479 0.70929 0.55388 0.0
H1925 H 0.74392 0.70222 0.59645 0.0
H1926 H 0.76539 0.73789 0.552 0.0
H1927 H 0.73473 0.73052 0.59454 0.0
H1928 H 0.74612 0.78415 0.60365 0.0
H1929 H 0.75358 0.75562 0.60004 0.0
H1930 H 0.73844 0.75764 0.54936 0.0
H1931 H 0.73067 0.7866 0.55291 0.0
C1932 C 0.76569 0.71366 0.56253 0.0
C1933 C 0.76033 0.70354 0.5755 0.0
C1934 C 0.76035 0.73003 0.56146 0.0
C1935 C 0.74962 0.73647 0.57334 0.0
C1936 C 0.74326 0.72595 0.58541 0.0
C1937 C 0.74852 0.70971 0.58647 0.0
C1938 C 0.74441 0.77869 0.59165 0.0
C1939 C 0.73755 0.78772 0.57863 0.0
C1940 C 0.74865 0.76226 0.58963 0.0
C1941 C 0.74629 0.75434 0.57452 0.0
C1942 C 0.74028 0.76346 0.56117 0.0
C1943 C 0.73586 0.78002 0.56322 0.0
H1944 H 0.2288 0.71374 0.44606 0.0
H1945 H 0.25072 0.71232 0.39773 0.0
H1946 H 0.23708 0.74263 0.44877 0.0
H1947 H 0.25879 0.74082 0.40049 0.0
H1948 H 0.24823 0.79472 0.39939 0.0
H1949 H 0.24025 0.76612 0.40126 0.0
H1950 H 0.26338 0.76243 0.44874 0.0
H1951 H 0.27157 0.79141 0.44694 0.0
C1952 C 0.2356 0.71944 0.43616 0.0
C1953 C 0.23884 0.71074 0.42156 0.0
C1954 C 0.24032 0.73597 0.43773 0.0
C1955 C 0.24826 0.74403 0.42469 0.0
C1956 C 0.25235 0.73503 0.41059 0.0
C1957 C 0.24774 0.71864 0.40905 0.0
C1958 C 0.25154 0.78797 0.41035 0.0
C1959 C 0.2608 0.79538 0.4229 0.0
C1960 C 0.24699 0.77152 0.41138 0.0
C1961 C 0.25148 0.76197 0.42499 0.0
C1962 C 0.25982 0.76952 0.43808 0.0
C1963 C 0.26449 0.7861 0.43702 0.0
H1964 H 0.71353 0.71728 0.90778 0.0
H1965 H 0.74863 0.70444 0.94524 0.0
H1966 H 0.72265 0.74564 0.90867 0.0
H1967 H 0.75854 0.73299 0.94562 0.0
H1968 H 0.76578 0.78973 0.94691 0.0
H1969 H 0.75357 0.76248 0.95087 0.0
H1970 H 0.74668 0.75824 0.89845 0.0
H1971 H 0.75821 0.78519 0.89456 0.0
C1972 C 0.72323 0.72062 0.91626 0.0
C1973 C 0.73058 0.70871 0.92625 0.0
C1974 C 0.72853 0.73685 0.91672 0.0
C1975 C 0.74165 0.74154 0.92688 0.0
C1976 C 0.74842 0.72979 0.93764 0.0
C1977 C 0.74282 0.71347 0.9374 0.0
C1978 C 0.76149 0.78301 0.93627 0.0
C1979 C 0.7629 0.78978 0.92042 0.0
C1980 C 0.7546 0.76736 0.93854 0.0
C1981 C 0.74895 0.75822 0.92501 0.0
C1982 C 0.75047 0.76504 0.90923 0.0
C1983 C 0.75723 0.78056 0.90698 0.0
H1984 H 0.30069 0.54001 0.52063 0.0
H1985 H 0.34689 0.54239 0.49459 0.0
H1986 H 0.2981 0.51094 0.51304 0.0
H1987 H 0.34428 0.51361 0.48732 0.0
H1988 H 0.34801 0.46047 0.50384 0.0
H1989 H 0.34493 0.48944 0.50987 0.0
H1990 H 0.29816 0.48999 0.48514 0.0
H1991 H 0.30125 0.46062 0.47872 0.0
C1992 C 0.31008 0.53451 0.51301 0.0
C1993 C 0.32414 0.54353 0.50847 0.0
C1994 C 0.30857 0.51788 0.50868 0.0
C1995 C 0.32113 0.51004 0.49985 0.0
C1996 C 0.33454 0.51933 0.49435 0.0
C1997 C 0.336 0.53586 0.49853 0.0
C1998 C 0.33694 0.46659 0.49976 0.0
C1999 C 0.325 0.45819 0.49054 0.0
C2000 C 0.33522 0.48324 0.50322 0.0
C2001 C 0.32146 0.49197 0.49771 0.0
C2002 C 0.30892 0.48349 0.48944 0.0
C2003 C 0.3107 0.46671 0.48582 0.0
H2004 H 0.80117 0.46237 0.96674 0.0
H2005 H 0.8235 0.45436 0.01409 0.0
H2006 H 0.79705 0.49139 0.97365 0.0
H2007 H 0.81892 0.48317 0.02116 0.0
H2008 H 0.80131 0.53511 0.03147 0.0
H2009 H 0.79551 0.50649 0.02421 0.0
H2010 H 0.82208 0.51262 0.97881 0.0
H2011 H 0.82829 0.54103 0.98622 0.0
C2012 C 0.80459 0.46666 0.97885 0.0
C2013 C 0.81267 0.45615 0.98989 0.0
C2014 C 0.80233 0.48326 0.98274 0.0
C2015 C 0.80768 0.48947 0.99791 0.0
C2016 C 0.81455 0.47865 0.00944 0.0
C2017 C 0.8172 0.46219 0.00539 0.0
C2018 C 0.80552 0.53048 0.01973 0.0
C2019 C 0.81532 0.54027 0.00943 0.0
C2020 C 0.80225 0.5141 0.01563 0.0
C2021 C 0.80835 0.5074 0.00097 0.0
C2022 C 0.81711 0.51754 0.99012 0.0
C2023 C 0.82071 0.53377 0.99439 0.0
H2024 H 0.29084 0.5551 0.23354 0.0
H2025 H 0.28777 0.60583 0.24892 0.0
H2026 H 0.26179 0.55134 0.24079 0.0
H2027 H 0.25912 0.60201 0.25589 0.0
H2028 H 0.20607 0.59772 0.24316 0.0
H2029 H 0.23488 0.59618 0.23574 0.0
H2030 H 0.24104 0.5541 0.26728 0.0
H2031 H 0.21187 0.55563 0.27493 0.0
C2032 C 0.28411 0.56536 0.23865 0.0
C2033 C 0.29165 0.58084 0.24041 0.0
C2034 C 0.26751 0.56318 0.24279 0.0
C2035 C 0.25819 0.57648 0.24859 0.0
C2036 C 0.26595 0.59164 0.25113 0.0
C2037 C 0.28243 0.59378 0.24716 0.0
C2038 C 0.21343 0.58796 0.24839 0.0
C2039 C 0.2067 0.57698 0.25989 0.0
C2040 C 0.22995 0.58711 0.24413 0.0
C2041 C 0.24022 0.57524 0.2512 0.0
C2042 C 0.23335 0.56341 0.26171 0.0
C2043 C 0.21668 0.56428 0.26605 0.0
H2044 H 0.1985 0.95867 0.52129 0.0
H2045 H 0.15983 0.95009 0.486 0.0
H2046 H 0.20007 0.98741 0.5124 0.0
H2047 H 0.16144 0.9786 0.47732 0.0
H2048 H 0.14804 0.03128 0.49128 0.0
H2049 H 0.15273 0.00259 0.49729 0.0
H2050 H 0.20405 0.0081 0.48558 0.0
H2051 H 0.19941 0.03727 0.47921 0.0
C2052 C 0.19071 0.96274 0.51132 0.0
C2053 C 0.17881 0.95215 0.50458 0.0
C2054 C 0.19162 0.97919 0.50626 0.0
C2055 C 0.18065 0.98523 0.49442 0.0
C2056 C 0.16985 0.97428 0.48667 0.0
C2057 C 0.16896 0.95794 0.49165 0.0
C2058 C 0.1604 0.02657 0.49001 0.0
C2059 C 0.17331 0.03667 0.48457 0.0
C2060 C 0.16304 0.01004 0.4934 0.0
C2061 C 0.17867 0.00309 0.49161 0.0
C2062 C 0.19185 0.01319 0.48693 0.0
C2063 C 0.18917 0.02985 0.48331 0.0
H2064 H 0.7006 0.54412 0.4787 0.0
H2065 H 0.65391 0.54582 0.50388 0.0
H2066 H 0.7034 0.51503 0.48625 0.0
H2067 H 0.6567 0.51704 0.51107 0.0
H2068 H 0.65386 0.46386 0.49475 0.0
H2069 H 0.65672 0.49284 0.48859 0.0
H2070 H 0.70306 0.49409 0.51407 0.0
H2071 H 0.70021 0.46476 0.52062 0.0
C2072 C 0.69115 0.53846 0.48615 0.0
C2073 C 0.6769 0.54727 0.49044 0.0
C2074 C 0.69276 0.52182 0.49042 0.0
C2075 C 0.68011 0.51379 0.49896 0.0
C2076 C 0.6665 0.5229 0.50425 0.0
C2077 C 0.66494 0.53942 0.50012 0.0
C2078 C 0.66481 0.47013 0.49894 0.0
C2079 C 0.67668 0.46193 0.50842 0.0
C2080 C 0.6664 0.48678 0.49541 0.0
C2081 C 0.67997 0.49571 0.50109 0.0
C2082 C 0.69245 0.48744 0.50962 0.0
C2083 C 0.6908 0.47067 0.51333 0.0
H2084 H 0.71007 0.60246 0.75231 0.0
H2085 H 0.71322 0.55453 0.77487 0.0
H2086 H 0.73855 0.60043 0.74389 0.0
H2087 H 0.74206 0.55259 0.76633 0.0
H2088 H 0.79072 0.55448 0.73276 0.0
H2089 H 0.76171 0.55238 0.74068 0.0
H2090 H 0.76399 0.60101 0.76152 0.0
H2091 H 0.7926 0.60319 0.75377 0.0
C2092 C 0.71678 0.5914 0.75536 0.0
C2093 C 0.70938 0.57878 0.76453 0.0
C2094 C 0.73315 0.59027 0.75057 0.0
C2095 C 0.74262 0.57651 0.75477 0.0
C2096 C 0.73504 0.56337 0.76299 0.0
C2097 C 0.71854 0.5645 0.76787 0.0
C2098 C 0.78508 0.56461 0.73924 0.0
C2099 C 0.79399 0.5791 0.7424 0.0
C2100 C 0.76848 0.56339 0.74376 0.0
C2101 C 0.76053 0.57667 0.75141 0.0
C2102 C 0.76969 0.59073 0.7553 0.0
C2103 C 0.78616 0.59193 0.75089 0.0
H2104 H 0.49158 0.33586 0.54319 0.0
H2105 H 0.53235 0.30272 0.53624 0.0
H2106 H 0.48244 0.33042 0.51505 0.0
H2107 H 0.52346 0.2978 0.50787 0.0
H2108 H 0.51164 0.32827 0.45534 0.0
H2109 H 0.5202 0.32549 0.48404 0.0
H2110 H 0.47496 0.30045 0.49524 0.0
H2111 H 0.46659 0.30264 0.46637 0.0
C2112 C 0.49839 0.32719 0.53575 0.0
C2113 C 0.51265 0.31969 0.54191 0.0
C2114 C 0.49315 0.32407 0.51971 0.0
C2115 C 0.50228 0.31371 0.5094 0.0
C2116 C 0.5162 0.30576 0.51567 0.0
C2117 C 0.52122 0.30853 0.53189 0.0
C2118 C 0.50373 0.32176 0.46383 0.0
C2119 C 0.48848 0.31563 0.45862 0.0
C2120 C 0.50864 0.32016 0.4802 0.0
C2121 C 0.4982 0.31276 0.49174 0.0
C2122 C 0.48321 0.30611 0.48649 0.0
C2123 C 0.47849 0.30731 0.46999 0.0
H2124 H 0.53105 0.19829 0.96153 0.0
H2125 H 0.48548 0.1719 0.95566 0.0
H2126 H 0.52373 0.20448 0.99006 0.0
H2127 H 0.47801 0.1785 0.98397 0.0
H2128 H 0.51251 0.1769 0.0424 0.0
H2129 H 0.52004 0.1812 0.01367 0.0
H2130 H 0.47316 0.20412 0.00476 0.0
H2131 H 0.46579 0.20028 0.03369 0.0
C2132 C 0.51925 0.19429 0.96615 0.0
C2133 C 0.50885 0.18455 0.95641 0.0
C2134 C 0.51512 0.19778 0.98247 0.0
C2135 C 0.50032 0.19198 0.98915 0.0
C2136 C 0.48942 0.18326 0.97905 0.0
C2137 C 0.49372 0.17942 0.96289 0.0
C2138 C 0.50407 0.18339 0.03444 0.0
C2139 C 0.48859 0.18826 0.04025 0.0
C2140 C 0.50838 0.18587 0.01802 0.0
C2141 C 0.49714 0.19292 0.00703 0.0
C2142 C 0.48203 0.19868 0.01303 0.0
C2143 C 0.47788 0.19657 0.02958 0.0
H2144 H 0.49537 0.64869 0.46121 0.0
H2145 H 0.51899 0.69619 0.46168 0.0
H2146 H 0.48495 0.65352 0.48864 0.0
H2147 H 0.50827 0.70112 0.48939 0.0
H2148 H 0.50485 0.68832 0.54674 0.0
H2149 H 0.51301 0.68957 0.51769 0.0
H2150 H 0.46556 0.67045 0.50374 0.0
H2151 H 0.45773 0.66889 0.53262 0.0
C2152 C 0.49819 0.66028 0.46709 0.0
C2153 C 0.50808 0.67202 0.45921 0.0
C2154 C 0.4921 0.6631 0.48282 0.0
C2155 C 0.49572 0.67774 0.49121 0.0
C2156 C 0.50533 0.68969 0.48327 0.0
C2157 C 0.51136 0.6869 0.46736 0.0
C2158 C 0.49611 0.68481 0.53735 0.0
C2159 C 0.48071 0.6785 0.54175 0.0
C2160 C 0.50073 0.68553 0.52077 0.0
C2161 C 0.49 0.67989 0.50843 0.0
C2162 C 0.47421 0.6746 0.51294 0.0
C2163 C 0.46967 0.67382 0.52943 0.0
H2164 H 0.48213 0.80167 0.96039 0.0
H2165 H 0.50504 0.84956 0.96188 0.0
H2166 H 0.4877 0.7983 0.98985 0.0
H2167 H 0.5102 0.84618 0.99102 0.0
H2168 H 0.49141 0.84597 0.04337 0.0
H2169 H 0.48601 0.84363 0.01415 0.0
H2170 H 0.51514 0.79952 0.01192 0.0
H2171 H 0.52092 0.80188 0.04143 0.0
C2172 C 0.4886 0.81132 0.96684 0.0
C2173 C 0.49293 0.82599 0.95873 0.0
C2174 C 0.49175 0.80937 0.98369 0.0
C2175 C 0.4991 0.82211 0.99267 0.0
C2176 C 0.50429 0.83628 0.98438 0.0
C2177 C 0.50135 0.83816 0.96764 0.0
C2178 C 0.49651 0.83558 0.03683 0.0
C2179 C 0.50686 0.82427 0.04478 0.0
C2180 C 0.49341 0.83428 0.02006 0.0
C2181 C 0.50039 0.82156 0.0108 0.0
C2182 C 0.50967 0.80947 0.01884 0.0
C2183 C 0.51293 0.81084 0.03572 0.0
H2184 H 0.45693 0.01069 0.82678 0.0
H2185 H 0.46393 0.96559 0.79986 0.0
H2186 H 0.48553 0.0182 0.82165 0.0
H2187 H 0.49278 0.97291 0.79521 0.0
H2188 H 0.54367 0.98371 0.82585 0.0
H2189 H 0.51513 0.97634 0.82019 0.0
H2190 H 0.50759 0.02322 0.79678 0.0
H2191 H 0.53634 0.03044 0.80196 0.0
C2192 C 0.4645 0.00259 0.81943 0.0
C2193 C 0.45824 0.98757 0.81371 0.0
C2194 C 0.48082 0.00691 0.81646 0.0
C2195 C 0.49131 0.99611 0.80806 0.0
C2196 C 0.48489 0.98144 0.80166 0.0
C2197 C 0.4684 0.97731 0.80426 0.0
C2198 C 0.53606 0.99222 0.81902 0.0
C2199 C 0.5422 0.00765 0.81437 0.0
C2200 C 0.51977 0.98798 0.81574 0.0
C2201 C 0.50921 0.99924 0.80809 0.0
C2202 C 0.51554 0.01433 0.80265 0.0
C2203 C 0.53198 0.0184 0.80556 0.0
H2204 H 0.54757 0.49343 0.35078 0.0
H2205 H 0.54332 0.51724 0.30355 0.0
H2206 H 0.52022 0.48247 0.34786 0.0
H2207 H 0.51572 0.50569 0.30038 0.0
H2208 H 0.45953 0.50045 0.31505 0.0
H2209 H 0.48827 0.50916 0.31219 0.0
H2210 H 0.50403 0.4632 0.33354 0.0
H2211 H 0.47547 0.45509 0.33707 0.0
C2212 C 0.5409 0.49613 0.3396 0.0
C2213 C 0.5477 0.50631 0.32744 0.0
C2214 C 0.52517 0.48969 0.33785 0.0
C2215 C 0.51571 0.49311 0.32384 0.0
C2216 C 0.52262 0.50292 0.31139 0.0
C2217 C 0.53849 0.50941 0.31315 0.0
C2218 C 0.46924 0.4922 0.31884 0.0
C2219 C 0.46545 0.47723 0.32643 0.0
C2220 C 0.48567 0.49711 0.31716 0.0
C2221 C 0.49849 0.487 0.32291 0.0
C2222 C 0.49451 0.4715 0.32939 0.0
C2223 C 0.47818 0.46677 0.33132 0.0
H2224 H 0.53961 0.01132 0.16638 0.0
H2225 H 0.53318 0.9697 0.19855 0.0
H2226 H 0.51135 0.0199 0.17186 0.0
H2227 H 0.50466 0.97803 0.20355 0.0
H2228 H 0.45209 0.98792 0.17468 0.0
H2229 H 0.48075 0.97995 0.17886 0.0
H2230 H 0.49127 0.02794 0.19858 0.0
H2231 H 0.46242 0.03576 0.19495 0.0
C2232 C 0.53224 0.00418 0.17484 0.0
C2233 C 0.53857 0.98986 0.18204 0.0
C2234 C 0.51612 0.00912 0.17802 0.0
C2235 C 0.50591 0.99961 0.18814 0.0
C2236 C 0.51236 0.98559 0.19578 0.0
C2237 C 0.52866 0.98088 0.19295 0.0
C2238 C 0.4604 0.99655 0.18044 0.0
C2239 C 0.45505 0.01243 0.18453 0.0
C2240 C 0.47677 0.992 0.18284 0.0
C2241 C 0.48815 0.00337 0.18899 0.0
C2242 C 0.48266 0.01896 0.19387 0.0
C2243 C 0.46617 0.02338 0.19188 0.0
H2244 H 0.53834 0.47804 0.69866 0.0
H2245 H 0.53911 0.50709 0.65423 0.0
H2246 H 0.50936 0.48551 0.70281 0.0
H2247 H 0.51047 0.51421 0.65838 0.0
H2248 H 0.45737 0.49578 0.65592 0.0
H2249 H 0.48612 0.48853 0.65892 0.0
H2250 H 0.48914 0.51734 0.7032 0.0
H2251 H 0.46007 0.52495 0.70021 0.0
C2252 C 0.5325 0.48627 0.69001 0.0
C2253 C 0.54099 0.49173 0.67596 0.0
C2254 C 0.51596 0.49052 0.69241 0.0
C2255 C 0.50777 0.50026 0.6808 0.0
C2256 C 0.51654 0.50657 0.66741 0.0
C2257 C 0.53295 0.50243 0.66505 0.0
C2258 C 0.46398 0.50043 0.66649 0.0
C2259 C 0.45643 0.5112 0.67767 0.0
C2260 C 0.48044 0.49621 0.66819 0.0
C2261 C 0.48978 0.50251 0.68118 0.0
C2262 C 0.4821 0.51232 0.6931 0.0
C2263 C 0.4655 0.51666 0.69136 0.0
H2264 H 0.71831 0.94633 0.71699 0.0
H2265 H 0.70944 0.91844 0.76116 0.0
H2266 H 0.74699 0.95037 0.72537 0.0
H2267 H 0.73786 0.92305 0.76977 0.0
H2268 H 0.78848 0.94617 0.78341 0.0
H2269 H 0.75986 0.9505 0.77492 0.0
H2270 H 0.76884 0.92291 0.73064 0.0
H2271 H 0.79717 0.91802 0.73938 0.0
C2272 C 0.72235 0.94154 0.72872 0.0
C2273 C 0.7117 0.93205 0.73843 0.0
C2274 C 0.73872 0.94382 0.73346 0.0
C2275 C 0.74452 0.93709 0.74823 0.0
C2276 C 0.7336 0.9285 0.75841 0.0
C2277 C 0.71739 0.92581 0.75346 0.0
C2278 C 0.78443 0.94143 0.77167 0.0
C2279 C 0.79498 0.93177 0.76203 0.0
C2280 C 0.76809 0.94385 0.76687 0.0
C2281 C 0.76225 0.93707 0.75213 0.0
C2282 C 0.77312 0.92838 0.74198 0.0
C2283 C 0.78928 0.92556 0.74699 0.0
H2284 H 0.78965 0.44862 0.27562 0.0
H2285 H 0.7948 0.40558 0.24498 0.0
H2286 H 0.7605 0.45036 0.26793 0.0
H2287 H 0.766 0.40732 0.23762 0.0
H2288 H 0.713 0.39898 0.25185 0.0
H2289 H 0.74153 0.40296 0.25924 0.0
H2290 H 0.74015 0.45215 0.23978 0.0
H2291 H 0.71125 0.44822 0.23204 0.0
C2292 C 0.78471 0.43978 0.267 0.0
C2293 C 0.7945 0.42678 0.26115 0.0
C2294 C 0.76805 0.44079 0.26264 0.0
C2295 C 0.76102 0.42879 0.25245 0.0
C2296 C 0.77108 0.41656 0.24573 0.0
C2297 C 0.7876 0.41559 0.24997 0.0
C2298 C 0.71858 0.41076 0.24926 0.0
C2299 C 0.7098 0.42318 0.24108 0.0
C2300 C 0.73498 0.413 0.2535 0.0
C2301 C 0.74306 0.42775 0.24984 0.0
C2302 C 0.73415 0.44064 0.24267 0.0
C2303 C 0.71764 0.43836 0.23826 0.0
H2304 H 0.01455 0.26544 0.08759 0.0
H2305 H 0.04424 0.28121 0.12839 0.0
H2306 H 0.00215 0.24414 0.10482 0.0
H2307 H 0.03159 0.26021 0.14579 0.0
H2308 H 0.98295 0.20625 0.14101 0.0
H2309 H 0.00607 0.21834 0.12581 0.0
H2310 H 0.99958 0.26369 0.1524 0.0
H2311 H 0.97621 0.25186 0.16698 0.0
C2312 C 0.01907 0.26371 0.09998 0.0
C2313 C 0.03052 0.27469 0.10663 0.0
C2314 C 0.01194 0.2516 0.10987 0.0
C2315 C 0.01588 0.25061 0.12665 0.0
C2316 C 0.02841 0.26068 0.13288 0.0
C2317 C 0.03573 0.27258 0.12291 0.0
C2318 C 0.98693 0.21858 0.144 0.0
C2319 C 0.97798 0.22813 0.15523 0.0
C2320 C 1.00004 0.2255 0.13525 0.0
C2321 C 0.00463 0.2419 0.138 0.0
C2322 C 0.99646 0.25095 0.15021 0.0
C2323 C 0.98311 0.24421 0.15856 0.0
H2324 H 0.99169 0.28158 0.33456 0.0
H2325 H 0.96573 0.27724 0.38049 0.0
H2326 H 0.01635 0.26993 0.34757 0.0
H2327 H 0.98992 0.26581 0.39341 0.0
H2328 H 0.03135 0.24232 0.41575 0.0
H2329 H 0.01842 0.26625 0.40271 0.0
H2330 H 0.01954 0.24115 0.35598 0.0
H2331 H 0.03236 0.21762 0.36897 0.0
C2332 C 0.99146 0.27864 0.34753 0.0
C2333 C 0.97684 0.28 0.3565 0.0
C2334 C 0.0055 0.27196 0.35498 0.0
C2335 C 0.00509 0.26682 0.37153 0.0
C2336 C 0.99083 0.26975 0.38075 0.0
C2337 C 0.97686 0.27614 0.37328 0.0
C2338 C 0.02945 0.24232 0.40259 0.0
C2339 C 0.03264 0.22819 0.39333 0.0
C2340 C 0.02199 0.25593 0.39512 0.0
C2341 C 0.01772 0.25552 0.37833 0.0
C2342 C 0.02272 0.24201 0.36886 0.0
C2343 C 0.02997 0.22845 0.37632 0.0
H2344 H 0.99849 0.23134 0.58504 0.0
H2345 H 0.95462 0.23298 0.61457 0.0
H2346 H 0.00989 0.25431 0.60053 0.0
H2347 H 0.96632 0.25572 0.63064 0.0
H2348 H 0.0271 0.29733 0.62751 0.0
H2349 H 0.00574 0.28512 0.61023 0.0
H2350 H 0.99319 0.2518 0.64944 0.0
H2351 H 0.01483 0.26377 0.66649 0.0
C2352 C 0.99107 0.23706 0.59448 0.0
C2353 C 0.97567 0.23058 0.59855 0.0
C2354 C 0.99756 0.25021 0.60334 0.0
C2355 C 0.98896 0.25679 0.61678 0.0
C2356 C 0.97312 0.25092 0.62026 0.0
C2357 C 0.96641 0.23802 0.61104 0.0
C2358 C 0.01917 0.288 0.6327 0.0
C2359 C 0.02236 0.28161 0.64836 0.0
C2360 C 0.00706 0.28094 0.62278 0.0
C2361 C 0.99786 0.26751 0.62849 0.0
C2362 C 0.99995 0.26228 0.64481 0.0
C2363 C 0.01227 0.26914 0.6546 0.0
H2364 H 0.95107 0.27279 0.88316 0.0
H2365 H 0.98952 0.26462 0.91852 0.0
H2366 H 0.96226 0.2508 0.86589 0.0
H2367 H 1.00038 0.2423 0.90164 0.0
H2368 H 0.01676 0.20192 0.86857 0.0
H2369 H 0.99483 0.21385 0.88548 0.0
H2370 H 0.99224 0.25528 0.85257 0.0
H2371 H 0.0145 0.24365 0.83615 0.0
C2372 C 0.96132 0.26562 0.88767 0.0
C2373 C 0.96936 0.27015 0.90221 0.0
C2374 C 0.96778 0.25316 0.87775 0.0
C2375 C 0.98216 0.24488 0.88245 0.0
C2376 C 0.98915 0.24832 0.89784 0.0
C2377 C 0.98294 0.26104 0.90753 0.0
C2378 C 0.01093 0.21319 0.86459 0.0
C2379 C 0.01707 0.22183 0.85101 0.0
C2380 C 0.9985 0.22004 0.87429 0.0
C2381 C 0.99183 0.23543 0.87028 0.0
C2382 C 0.99698 0.24328 0.8558 0.0
C2383 C 0.00969 0.23665 0.84639 0.0
H2384 H 0.04843 0.72665 0.88079 0.0
H2385 H 0.00953 0.73306 0.91604 0.0
H2386 H 0.03774 0.74979 0.86475 0.0
H2387 H 0.99911 0.75641 0.90042 0.0
H2388 H 0.98151 0.79737 0.87085 0.0
H2389 H 0.00392 0.78514 0.88678 0.0
H2390 H 0.00911 0.74728 0.85008 0.0
H2391 H 0.98649 0.75927 0.83452 0.0
C2392 C 0.03815 0.73361 0.88555 0.0
C2393 C 0.02986 0.7283 0.89969 0.0
C2394 C 0.03197 0.74674 0.87634 0.0
C2395 C 0.01761 0.75488 0.88133 0.0
C2396 C 0.01034 0.75054 0.89638 0.0
C2397 C 0.01628 0.7372 0.90535 0.0
C2398 C 0.98808 0.78696 0.8658 0.0
C2399 C 0.98252 0.77933 0.8514 0.0
C2400 C 0.00078 0.7799 0.87497 0.0
C2401 C 0.00821 0.76525 0.86969 0.0
C2402 C 0.00378 0.75869 0.85435 0.0
C2403 C 0.99087 0.76555 0.84539 0.0
H2404 H 0.52205 0.25105 0.16432 0.0
H2405 H 0.52037 0.29561 0.13584 0.0
H2406 H 0.49862 0.2403 0.14906 0.0
H2407 H 0.49716 0.28457 0.12 0.0
H2408 H 0.45435 0.22468 0.12298 0.0
H2409 H 0.46761 0.24532 0.14038 0.0
H2410 H 0.50007 0.25794 0.10048 0.0
H2411 H 0.48704 0.23702 0.08329 0.0
C2412 C 0.51625 0.25875 0.15516 0.0
C2413 C 0.52282 0.27417 0.15132 0.0
C2414 C 0.50284 0.25263 0.14643 0.0
C2415 C 0.49608 0.26162 0.13336 0.0
C2416 C 0.50209 0.27746 0.13009 0.0
C2417 C 0.51526 0.2838 0.13919 0.0
C2418 C 0.46374 0.23249 0.11771 0.0
C2419 C 0.46956 0.22952 0.10177 0.0
C2420 C 0.4714 0.24418 0.12768 0.0
C2421 C 0.48487 0.25318 0.12177 0.0
C2422 C 0.48957 0.25134 0.10527 0.0
C2423 C 0.4821 0.23942 0.0954 0.0
H2424 H 0.95267 0.77254 0.38119 0.0
H2425 H 0.99206 0.76812 0.41616 0.0
H2426 H 0.96315 0.74854 0.36629 0.0
H2427 H 0.00233 0.74401 0.40169 0.0
H2428 H 0.02056 0.70235 0.37458 0.0
H2429 H 0.99813 0.71502 0.39007 0.0
H2430 H 0.9908 0.7497 0.35068 0.0
H2431 H 0.01334 0.73713 0.33542 0.0
C2432 C 0.96303 0.76586 0.38616 0.0
C2433 C 0.97151 0.77194 0.39987 0.0
C2434 C 0.96909 0.75224 0.3776 0.0
C2435 C 0.98356 0.74443 0.38281 0.0
C2436 C 0.99103 0.74961 0.39749 0.0
C2437 C 0.98517 0.76339 0.40581 0.0
C2438 C 0.01351 0.7121 0.36891 0.0
C2439 C 0.01843 0.71869 0.35378 0.0
C2440 C 0.00079 0.71942 0.37781 0.0
C2441 C 0.99281 0.73341 0.37164 0.0
C2442 C 0.99659 0.73882 0.35567 0.0
C2443 C 0.00945 0.73162 0.34689 0.0
H2444 H 0.52007 0.26469 0.57875 0.0
H2445 H 0.5371 0.28093 0.6261 0.0
H2446 H 0.50426 0.24277 0.59201 0.0
H2447 H 0.52137 0.25918 0.63941 0.0
H2448 H 0.48942 0.21792 0.65945 0.0
H2449 H 0.51288 0.22915 0.64397 0.0
H2450 H 0.47934 0.25 0.60863 0.0
H2451 H 0.4563 0.2392 0.62399 0.0
C2452 C 0.52106 0.26301 0.5919 0.0
C2453 C 0.5298 0.27431 0.60145 0.0
C2454 C 0.51194 0.2506 0.59952 0.0
C2455 C 0.51143 0.24941 0.61677 0.0
C2456 C 0.52162 0.25967 0.62612 0.0
C2457 C 0.53062 0.27212 0.61852 0.0
C2458 C 0.48719 0.22475 0.64826 0.0
C2459 C 0.47108 0.22794 0.64305 0.0
C2460 C 0.50056 0.23111 0.63941 0.0
C2461 C 0.49795 0.24031 0.62499 0.0
C2462 C 0.48182 0.24273 0.61948 0.0
C2463 C 0.46858 0.23674 0.62845 0.0
H2464 H 0.08424 0.00437 0.26843 0.0
H2465 H 0.11553 0.04691 0.27134 0.0
H2466 H 0.10053 0.99389 0.24552 0.0
H2467 H 0.13235 0.03611 0.24878 0.0
H2468 H 0.16594 0.98532 0.24292 0.0
H2469 H 0.14914 0.00766 0.25382 0.0
H2470 H 0.11356 0.99958 0.21546 0.0
H2471 H 0.13075 0.9776 0.20423 0.0
C2472 C 0.09416 0.01182 0.26362 0.0
C2473 C 0.09854 0.02651 0.27139 0.0
C2474 C 0.1035 0.00584 0.25054 0.0
C2475 C 0.11769 0.01422 0.24541 0.0
C2476 C 0.12139 0.02952 0.25243 0.0
C2477 C 0.11173 0.03573 0.26523 0.0
C2478 C 0.15507 0.98906 0.23624 0.0
C2479 C 0.14972 0.98001 0.22263 0.0
C2480 C 0.1454 0.00178 0.24249 0.0
C2481 C 0.13002 0.00526 0.2355 0.0
C2482 C 0.12541 0.99719 0.22098 0.0
C2483 C 0.13529 0.98473 0.2145 0.0
H2484 H 0.23855 0.3336 0.51756 0.0
H2485 H 0.20627 0.37353 0.53021 0.0
H2486 H 0.25107 0.35046 0.49609 0.0
H2487 H 0.21906 0.39062 0.50901 0.0
H2488 H 0.27103 0.38485 0.45782 0.0
H2489 H 0.24766 0.36963 0.46936 0.0
H2490 H 0.25025 0.39923 0.51322 0.0
H2491 H 0.27386 0.41387 0.50197 0.0
C2492 C 0.23357 0.34569 0.51512 0.0
C2493 C 0.22131 0.35223 0.52526 0.0
C2494 C 0.24075 0.35537 0.50288 0.0
C2495 C 0.23606 0.37187 0.50095 0.0
C2496 C 0.22283 0.37793 0.51021 0.0
C2497 C 0.21544 0.36813 0.52223 0.0
C2498 C 0.26611 0.3885 0.46963 0.0
C2499 C 0.27405 0.40058 0.47901 0.0
C2500 C 0.25285 0.37974 0.47625 0.0
C2501 C 0.24714 0.3833 0.49214 0.0
C2502 C 0.25424 0.39639 0.50085 0.0
C2503 C 0.26774 0.40477 0.49445 0.0
H2504 H 0.83731 0.52594 0.75506 0.0
H2505 H 0.86184 0.52002 0.70853 0.0
H2506 H 0.85187 0.502 0.76583 0.0
H2507 H 0.87708 0.49644 0.7196 0.0
H2508 H 0.87685 0.45407 0.77814 0.0
H2509 H 0.85929 0.46783 0.75788 0.0
H2510 H 0.89772 0.50303 0.7486 0.0
H2511 H 0.91497 0.48966 0.76926 0.0
C2512 C 0.84535 0.51909 0.74697 0.0
C2513 C 0.84837 0.52461 0.73097 0.0
C2514 C 0.85366 0.50543 0.7531 0.0
C2515 C 0.86551 0.49743 0.74348 0.0
C2516 C 0.86784 0.50234 0.72713 0.0
C2517 C 0.8591 0.51572 0.72081 0.0
C2518 C 0.88178 0.46426 0.77116 0.0
C2519 C 0.89728 0.47072 0.77497 0.0
C2520 C 0.87174 0.47214 0.75967 0.0
C2521 C 0.87726 0.48636 0.75167 0.0
C2522 C 0.89335 0.49189 0.75441 0.0
C2523 C 0.90321 0.48426 0.76617 0.0
H2524 H 0.75483 0.16557 0.02383 0.0
H2525 H 0.79776 0.13526 0.01783 0.0
H2526 H 0.7418 0.1519 0.00063 0.0
H2527 H 0.78451 0.12109 0.9947 0.0
H2528 H 0.72101 0.1285 0.95739 0.0
H2529 H 0.74276 0.14483 0.97014 0.0
H2530 H 0.7589 0.10211 0.997 0.0
H2531 H 0.73705 0.08587 0.98425 0.0
C2532 C 0.7617 0.15639 0.01708 0.0
C2533 C 0.77732 0.15158 0.02239 0.0
C2534 C 0.75426 0.14854 0.0038 0.0
C2535 C 0.76214 0.13539 0.99585 0.0
C2536 C 0.7782 0.1312 0.00058 0.0
C2537 C 0.78582 0.13938 0.01368 0.0
C2538 C 0.72973 0.12247 0.96543 0.0
C2539 C 0.7276 0.10595 0.96972 0.0
C2540 C 0.74208 0.13182 0.97281 0.0
C2541 C 0.75246 0.12477 0.98463 0.0
C2542 C 0.75123 0.10783 0.98779 0.0
C2543 C 0.73876 0.09851 0.98049 0.0
H2544 H 0.16457 0.02459 0.75042 0.0
H2545 H 0.13468 0.02117 0.79396 0.0
H2546 H 0.14952 0.00165 0.73822 0.0
H2547 H 0.11904 0.99863 0.78143 0.0
H2548 H 0.08479 0.99301 0.7304 0.0
H2549 H 0.10139 0.00517 0.75231 0.0
H2550 H 0.13925 0.96922 0.74358 0.0
H2551 H 0.1223 0.95665 0.72208 0.0
C2552 C 0.1552 0.01845 0.7576 0.0
C2553 C 0.15087 0.0244 0.77315 0.0
C2554 C 0.14659 0.00537 0.75065 0.0
C2555 C 0.13317 0.99841 0.75894 0.0
C2556 C 0.12945 0.00371 0.77491 0.0
C2557 C 0.13843 0.0165 0.78208 0.0
C2558 C 0.09625 0.9872 0.73382 0.0
C2559 C 0.10221 0.97378 0.72486 0.0
C2560 C 0.10575 0.99414 0.7463 0.0
C2561 C 0.12155 0.98807 0.7496 0.0
C2562 C 0.12704 0.97397 0.74135 0.0
C2563 C 0.11733 0.96676 0.72916 0.0
H2564 H 0.21723 0.37328 0.03994 0.0
H2565 H 0.23546 0.4157 0.01414 0.0
H2566 H 0.23802 0.35615 0.02663 0.0
H2567 H 0.25643 0.39864 0.00089 0.0
H2568 H 0.29402 0.36304 0.98033 0.0
H2569 H 0.28126 0.37751 0.00356 0.0
H2570 H 0.23628 0.35078 0.9952 0.0
H2571 H 0.24882 0.33689 0.97183 0.0
C2572 C 0.22624 0.37904 0.03202 0.0
C2573 C 0.22499 0.39577 0.02817 0.0
C2574 C 0.23804 0.36925 0.02435 0.0
C2575 C 0.24878 0.37606 0.0127 0.0
C2576 C 0.24845 0.39312 0.00999 0.0
C2577 C 0.2365 0.40289 0.01756 0.0
C2578 C 0.28162 0.35988 0.9839 0.0
C2579 C 0.27237 0.34882 0.97444 0.0
C2580 C 0.2743 0.36822 0.99707 0.0
C2581 C 0.2578 0.36524 0.00117 0.0
C2582 C 0.24907 0.35319 0.99246 0.0
C2583 C 0.25621 0.34523 0.97909 0.0
H2584 H 0.91587 0.51352 0.23546 0.0
H2585 H 0.876 0.54611 0.22352 0.0
H2586 H 0.89957 0.50162 0.25766 0.0
H2587 H 0.85943 0.53393 0.24548 0.0
H2588 H 0.86629 0.48136 0.29613 0.0
H2589 H 0.88102 0.50506 0.28468 0.0
H2590 H 0.85058 0.50283 0.24138 0.0
H2591 H 0.83643 0.47889 0.25254 0.0
C2592 C 0.90395 0.51874 0.23822 0.0
C2593 C 0.89722 0.53084 0.22803 0.0
C2594 C 0.89459 0.51192 0.25089 0.0
C2595 C 0.87821 0.51682 0.25321 0.0
C2596 C 0.87204 0.53001 0.24397 0.0
C2597 C 0.88154 0.53705 0.23152 0.0
C2598 C 0.86234 0.48643 0.28449 0.0
C2599 C 0.8502 0.47849 0.2752 0.0
C2600 C 0.8708 0.4999 0.27793 0.0
C2601 C 0.86689 0.50579 0.2622 0.0
C2602 C 0.85369 0.49871 0.25364 0.0
C2603 C 0.84559 0.48501 0.25999 0.0
H2604 H 0.76899 0.08776 0.50488 0.0
H2605 H 0.7751 0.12298 0.54386 0.0
H2606 H 0.74721 0.10469 0.49297 0.0
H2607 H 0.75374 0.14029 0.53162 0.0
H2608 H 0.74891 0.16949 0.47824 0.0
H2609 H 0.76019 0.153 0.50064 0.0
H2610 H 0.71777 0.12137 0.49881 0.0
H2611 H 0.70613 0.13841 0.47682 0.0
C2612 C 0.76507 0.09872 0.51131 0.0
C2613 C 0.77342 0.10398 0.5254 0.0
C2614 C 0.75267 0.10844 0.5045 0.0
C2615 C 0.74885 0.12378 0.51141 0.0
C2616 C 0.75639 0.12845 0.52618 0.0
C2617 C 0.76849 0.11851 0.53322 0.0
C2618 C 0.74164 0.15954 0.48324 0.0
C2619 C 0.72659 0.15533 0.47608 0.0
C2620 C 0.74808 0.15008 0.496 0.0
C2621 C 0.7398 0.13595 0.50143 0.0
C2622 C 0.72427 0.1323 0.49493 0.0
C2623 C 0.71759 0.14209 0.48247 0.0
H2624 H 0.24625 0.16869 0.97575 0.0
H2625 H 0.20344 0.1377 0.97798 0.0
H2626 H 0.25892 0.15281 0.99789 0.0
H2627 H 0.21644 0.12129 0.99964 0.0
H2628 H 0.26897 0.08832 0.00182 0.0
H2629 H 0.24711 0.10552 0.99044 0.0
H2630 H 0.25289 0.13953 0.0306 0.0
H2631 H 0.27431 0.12184 0.0424 0.0
C2632 C 0.23928 0.15896 0.98154 0.0
C2633 C 0.22381 0.15454 0.97544 0.0
C2634 C 0.24651 0.14985 0.99414 0.0
C2635 C 0.2386 0.13589 1.00043 0.0
C2636 C 0.22266 0.13213 0.9951 0.0
C2637 C 0.21521 0.14156 0.98282 0.0
C2638 C 0.26498 0.09904 0.0086 0.0
C2639 C 0.27304 0.10369 0.02306 0.0
C2640 C 0.25252 0.10887 0.00212 0.0
C2641 C 0.24833 0.12376 0.00974 0.0
C2642 C 0.25581 0.12799 0.02467 0.0
C2643 C 0.26795 0.11788 0.03142 0.0
H2644 H 0.75603 0.83605 0.53163 0.0
H2645 H 0.70938 0.85811 0.5199 0.0
H2646 H 0.76943 0.85343 0.51127 0.0
H2647 H 0.72298 0.87587 0.49955 0.0
H2648 H 0.77166 0.89086 0.45888 0.0
H2649 H 0.75089 0.87249 0.47104 0.0
H2650 H 0.7645 0.88934 0.51933 0.0
H2651 H 0.78517 0.90736 0.50738 0.0
C2652 C 0.74855 0.8441 0.52414 0.0
C2653 C 0.73172 0.84576 0.52727 0.0
C2654 C 0.75621 0.85407 0.51256 0.0
C2655 C 0.7472 0.866 0.50402 0.0
C2656 C 0.73009 0.86663 0.50593 0.0
C2657 C 0.72234 0.85643 0.51747 0.0
C2658 C 0.76968 0.8911 0.47203 0.0
C2659 C 0.78002 0.90043 0.48225 0.0
C2660 C 0.7579 0.88056 0.47894 0.0
C2661 C 0.75632 0.87948 0.49607 0.0
C2662 C 0.76559 0.88997 0.50608 0.0
C2663 C 0.77737 0.90029 0.49925 0.0
H2664 H 0.33156 0.0175 0.74228 0.0
H2665 H 0.36752 0.02394 0.70404 0.0
H2666 H 0.34735 0.99454 0.75336 0.0
H2667 H 0.38367 0.00122 0.71537 0.0
H2668 H 0.41363 0.99288 0.76665 0.0
H2669 H 0.39751 0.00485 0.74439 0.0
H2670 H 0.36201 0.96581 0.74911 0.0
H2671 H 0.37856 0.95354 0.77112 0.0
C2672 C 0.34242 0.01341 0.73578 0.0
C2673 C 0.34824 0.02222 0.7222 0.0
C2674 C 0.3515 1.00031 0.74212 0.0
C2675 C 0.36678 0.99615 0.73525 0.0
C2676 C 0.37191 0.00414 0.72084 0.0
C2677 C 0.36262 0.01702 0.71429 0.0
C2678 C 0.40283 0.98643 0.76232 0.0
C2679 C 0.3974 0.97222 0.77034 0.0
C2680 C 0.39359 0.99326 0.74961 0.0
C2681 C 0.37849 0.98625 0.74504 0.0
C2682 C 0.37363 0.97138 0.75234 0.0
C2683 C 0.38313 0.96433 0.76482 0.0
H2684 H 0.24145 0.5854 0.97065 0.0
H2685 H 0.21502 0.6312 0.96945 0.0
H2686 H 0.26454 0.5992 0.98429 0.0
H2687 H 0.23789 0.64501 0.98282 0.0
H2688 H 0.28 0.66725 0.00938 0.0
H2689 H 0.26765 0.65376 0.98526 0.0
H2690 H 0.2621 0.60911 0.01334 0.0
H2691 H 0.274 0.62255 0.0371 0.0
C2692 C 0.24092 0.59853 0.97265 0.0
C2693 C 0.22655 0.60729 0.96915 0.0
C2694 C 0.25405 0.60643 0.98049 0.0
C2695 C 0.25296 0.62317 0.98474 0.0
C2696 C 0.23921 0.63218 0.97959 0.0
C2697 C 0.22606 0.62426 0.97203 0.0
C2698 C 0.27649 0.65445 0.01013 0.0
C2699 C 0.27768 0.64595 0.02505 0.0
C2700 C 0.26946 0.64673 0.9964 0.0
C2701 C 0.26394 0.63035 0.9974 0.0
C2702 C 0.26642 0.62162 0.01203 0.0
C2703 C 0.27306 0.62938 0.02572 0.0
H2704 H 0.71732 0.90657 0.99654 0.0
H2705 H 0.73018 0.8863 0.04376 0.0
H2706 H 0.73756 0.88897 0.98336 0.0
H2707 H 0.75057 0.86833 0.03033 0.0
H2708 H 0.79256 0.8562 0.98201 0.0
H2709 H 0.77873 0.8726 0.00335 0.0
H2710 H 0.73201 0.85338 0.98758 0.0
H2711 H 0.74565 0.83739 0.96627 0.0
C2712 C 0.72488 0.8987 0.00415 0.0
C2713 C 0.72218 0.89771 0.02111 0.0
C2714 C 0.73641 0.88863 0.99661 0.0
C2715 C 0.7454 0.87724 0.00585 0.0
C2716 C 0.74376 0.8771 0.02302 0.0
C2717 C 0.7322 0.88739 0.03066 0.0
C2718 C 0.77943 0.85494 0.98367 0.0
C2719 C 0.77009 0.84562 0.97254 0.0
C2720 C 0.77155 0.86434 0.9958 0.0
C2721 C 0.75436 0.86427 0.99692 0.0
C2722 C 0.7453 0.8536 0.98689 0.0
C2723 C 0.75308 0.84444 0.97475 0.0
H2724 H 0.33375 0.48657 0.76166 0.0
H2725 H 0.37246 0.47757 0.79653 0.0
H2726 H 0.34992 0.50869 0.74937 0.0
H2727 H 0.38889 0.49939 0.78399 0.0
H2728 H 0.41393 0.50465 0.72949 0.0
H2729 H 0.39903 0.49396 0.7532 0.0
H2730 H 0.36765 0.53663 0.7528 0.0
H2731 H 0.38312 0.54764 0.72935 0.0
C2732 C 0.34533 0.48997 0.76724 0.0
C2733 C 0.35181 0.48064 0.78014 0.0
C2734 C 0.35461 0.50258 0.76021 0.0
C2735 C 0.37067 0.50567 0.76572 0.0
C2736 C 0.37652 0.4973 0.7796 0.0
C2737 C 0.36709 0.48492 0.78683 0.0
C2738 C 0.40439 0.51209 0.73502 0.0
C2739 C 0.39975 0.527 0.72784 0.0
C2740 C 0.39586 0.50601 0.74857 0.0
C2741 C 0.3822 0.51451 0.75481 0.0
C2742 C 0.37821 0.52995 0.74827 0.0
C2743 C 0.38709 0.53626 0.73496 0.0
H2744 H 0.61509 0.95702 0.22989 0.0
H2745 H 0.58345 0.9994 0.229 0.0
H2746 H 0.63147 0.96975 0.2518 0.0
H2747 H 0.59932 0.01183 0.25121 0.0
H2748 H 0.62793 0.02935 0.29418 0.0
H2749 H 0.61068 0.00792 0.28194 0.0
H2750 H 0.64861 0.99788 0.24635 0.0
H2751 H 0.66558 0.01965 0.25832 0.0
C2752 C 0.61118 0.96866 0.23499 0.0
C2753 C 0.59796 0.97721 0.228 0.0
C2754 C 0.62059 0.97597 0.24739 0.0
C2755 C 0.61661 0.99172 0.25318 0.0
C2756 C 0.60251 0.99958 0.24712 0.0
C2757 C 0.59341 0.99249 0.23446 0.0
C2758 C 0.63281 0.02203 0.2842 0.0
C2759 C 0.6481 0.02588 0.27727 0.0
C2760 C 0.62294 0.00988 0.27717 0.0
C2761 C 0.62835 0.00125 0.26326 0.0
C2762 C 0.64426 0.00418 0.25722 0.0
C2763 C 0.65397 0.01659 0.26405 0.0
H2764 H 0.04497 0.7721 0.61306 0.0
H2765 H 0.99889 0.77395 0.58713 0.0
H2766 H 0.0343 0.7498 0.63038 0.0
H2767 H 0.98856 0.75119 0.60381 0.0
H2768 H 0.97801 0.70505 0.63339 0.0
H2769 H 0.99826 0.71783 0.6151 0.0
H2770 H 0.00382 0.7578 0.64936 0.0
H2771 H 0.98304 0.74541 0.66721 0.0
C2772 C 0.03291 0.76712 0.6105 0.0
C2773 C 0.02275 0.77453 0.59872 0.0
C2774 C 0.02682 0.75446 0.62043 0.0
C2775 C 0.0107 0.74878 0.61828 0.0
C2776 C 0.00112 0.75523 0.60549 0.0
C2777 C 0.007 0.76819 0.59596 0.0
C2778 C 0.9842 0.71613 0.63736 0.0
C2779 C 0.97924 0.72419 0.65176 0.0
C2780 C 0.99568 0.72345 0.62687 0.0
C2781 C 0.00261 0.73868 0.63094 0.0
C2782 C 0.99882 0.7459 0.64613 0.0
C2783 C 0.98701 0.73883 0.65636 0.0
H2784 H 0.02008 0.79226 0.14462 0.0
H2785 H 0.03138 0.74519 0.16603 0.0
H2786 H 0.99702 0.77982 0.12958 0.0
H2787 H 0.00825 0.73294 0.15156 0.0
H2788 H 0.96281 0.71453 0.13027 0.0
H2789 H 0.97657 0.73422 0.14824 0.0
H2790 H 0.99912 0.75689 0.106 0.0
H2791 H 0.98534 0.737 0.08802 0.0
C2792 C 0.01722 0.77942 0.14658 0.0
C2793 C 0.02738 0.76964 0.1565 0.0
C2794 C 0.00415 0.77231 0.13791 0.0
C2795 C 0.00084 0.75544 0.13944 0.0
C2796 C 0.01037 0.746 0.15029 0.0
C2797 C 0.02362 0.75299 0.15856 0.0
C2798 C 0.9701 0.72422 0.1248 0.0
C2799 C 0.9729 0.72446 0.10782 0.0
C2800 C 0.97805 0.7354 0.13507 0.0
C2801 C 0.98897 0.747 0.12852 0.0
C2802 C 0.99061 0.74819 0.11135 0.0
C2803 C 0.98272 0.73688 0.10106 0.0
H2804 H 0.45573 0.72844 0.62103 0.0
H2805 H 0.49786 0.72858 0.58901 0.0
H2806 H 0.46865 0.74968 0.63812 0.0
H2807 H 0.51041 0.7503 0.60558 0.0
H2808 H 0.52516 0.79463 0.63607 0.0
H2809 H 0.50351 0.78225 0.61916 0.0
H2810 H 0.4999 0.74202 0.65338 0.0
H2811 H 0.52202 0.75405 0.66985 0.0
C2812 C 0.46735 0.73365 0.61719 0.0
C2813 C 0.47577 0.72713 0.60364 0.0
C2814 C 0.47475 0.74568 0.627 0.0
C2815 C 0.49044 0.75163 0.62307 0.0
C2816 C 0.4982 0.74606 0.60871 0.0
C2817 C 0.49104 0.7337 0.59922 0.0
C2818 C 0.51917 0.78355 0.64034 0.0
C2819 C 0.52497 0.77538 0.65436 0.0
C2820 C 0.5069 0.77645 0.63063 0.0
C2821 C 0.50004 0.76128 0.63507 0.0
C2822 C 0.50484 0.75386 0.64987 0.0
C2823 C 0.51742 0.76074 0.65932 0.0
H2824 H 0.48097 0.74938 0.16569 0.0
H2825 H 0.48056 0.70596 0.13547 0.0
H2826 H 0.50384 0.76037 0.14966 0.0
H2827 H 0.50304 0.71727 0.11888 0.0
H2828 H 0.54587 0.77684 0.12022 0.0
H2829 H 0.53467 0.75498 0.13758 0.0
H2830 H 0.49727 0.74552 0.10133 0.0
H2831 H 0.50812 0.76776 0.08433 0.0
C2832 C 0.48632 0.74189 0.15608 0.0
C2833 C 0.47927 0.72678 0.15192 0.0
C2834 C 0.49936 0.74816 0.14688 0.0
C2835 C 0.50518 0.73963 0.13305 0.0
C2836 C 0.49886 0.72397 0.12958 0.0
C2837 C 0.48611 0.71749 0.13911 0.0
C2838 C 0.53583 0.76945 0.11559 0.0
C2839 C 0.52795 0.77373 0.10088 0.0
C2840 C 0.52936 0.75706 0.12557 0.0
C2841 C 0.51513 0.74861 0.12078 0.0
C2842 C 0.50839 0.75169 0.10519 0.0
C2843 C 0.51462 0.76435 0.09542 0.0
H2844 H 0.08604 0.50953 0.76546 0.0
H2845 H 0.12387 0.54565 0.77318 0.0
H2846 H 0.10259 0.49666 0.74399 0.0
H2847 H 0.14075 0.53255 0.75193 0.0
H2848 H 0.16842 0.47996 0.74521 0.0
H2849 H 0.15305 0.50327 0.75613 0.0
H2850 H 0.11851 0.49917 0.71618 0.0
H2851 H 0.13428 0.47604 0.70502 0.0
C2852 C 0.09759 0.51513 0.76199 0.0
C2853 C 0.10362 0.52868 0.7707 0.0
C2854 C 0.10709 0.50778 0.74973 0.0
C2855 C 0.12298 0.5136 0.74631 0.0
C2856 C 0.12853 0.52787 0.75427 0.0
C2857 C 0.11885 0.53542 0.76632 0.0
C2858 C 0.15804 0.48463 0.73833 0.0
C2859 C 0.15263 0.47645 0.72419 0.0
C2860 C 0.14921 0.49794 0.74456 0.0
C2861 C 0.13454 0.503 0.73702 0.0
C2862 C 0.1298 0.49555 0.72219 0.0
C2863 C 0.13887 0.48244 0.71574 0.0
H2864 H 0.24043 0.87618 0.04338 0.0
H2865 H 0.2171 0.84024 0.01219 0.0
H2866 H 0.2504 0.89074 0.0195 0.0
H2867 H 0.2275 0.85493 0.98782 0.0
H2868 H 0.27893 0.87186 0.96143 0.0
H2869 H 0.25726 0.85907 0.9777 0.0
H2870 H 0.24197 0.90689 0.99466 0.0
H2871 H 0.26381 0.9196 0.97839 0.0
C2872 C 0.23733 0.87144 0.03134 0.0
C2873 C 0.22818 0.85694 0.02964 0.0
C2874 C 0.24285 0.87995 0.01762 0.0
C2875 C 0.23958 0.87411 0.00175 0.0
C2876 C 0.23009 0.85977 0.99993 0.0
C2877 C 0.22421 0.85136 0.01382 0.0
C2878 C 0.27031 0.87966 0.9679 0.0
C2879 C 0.27287 0.89668 0.96862 0.0
C2880 C 0.25792 0.87234 0.97725 0.0
C2881 C 0.2481 0.88196 0.98766 0.0
C2882 C 0.24947 0.89918 0.98684 0.0
C2883 C 0.26183 0.90649 0.97742 0.0
H2884 H 0.91751 0.98973 0.26533 0.0
H2885 H 0.87873 0.95544 0.27614 0.0
H2886 H 0.90051 0.00222 0.24391 0.0
H2887 H 0.8615 0.9682 0.25509 0.0
H2888 H 0.86517 0.0204 0.20474 0.0
H2889 H 0.88121 0.99757 0.21625 0.0
H2890 H 0.8524 0.99995 0.26065 0.0
H2891 H 0.83697 0.0231 0.24943 0.0
C2892 C 0.9057 0.98432 0.26248 0.0
C2893 C 0.89949 0.97148 0.27209 0.0
C2894 C 0.89594 0.99149 0.2503 0.0
C2895 C 0.8797 0.98616 0.24792 0.0
C2896 C 0.87402 0.97243 0.25662 0.0
C2897 C 0.8839 0.96507 0.26856 0.0
C2898 C 0.86187 0.01553 0.21667 0.0
C2899 C 0.84976 0.02327 0.22619 0.0
C2900 C 0.8711 0.0026 0.22327 0.0
C2901 C 0.86796 0.997 0.23927 0.0
C2902 C 0.85489 0.00388 0.24819 0.0
C2903 C 0.84604 0.01709 0.24179 0.0
H2904 H 0.7789 0.66871 0.51269 0.0
H2905 H 0.78279 0.62119 0.53563 0.0
H2906 H 0.76588 0.65591 0.48867 0.0
H2907 H 0.76989 0.60844 0.51201 0.0
H2908 H 0.74156 0.58738 0.47159 0.0
H2909 H 0.76607 0.601 0.48291 0.0
H2910 H 0.7378 0.64531 0.49018 0.0
H2911 H 0.71377 0.6318 0.47913 0.0
C2912 C 0.77758 0.65549 0.51226 0.0
C2913 C 0.78156 0.6459 0.52595 0.0
C2914 C 0.7701 0.64815 0.4986 0.0
C2915 C 0.76662 0.63117 0.49854 0.0
C2916 C 0.77244 0.62148 0.51153 0.0
C2917 C 0.77971 0.6288 0.52515 0.0
C2918 C 0.74085 0.60015 0.47523 0.0
C2919 C 0.72582 0.60849 0.47489 0.0
C2920 C 0.75481 0.60795 0.48167 0.0
C2921 C 0.75387 0.62424 0.48751 0.0
C2922 C 0.73909 0.63288 0.48565 0.0
C2923 C 0.72523 0.62505 0.47954 0.0
H2924 H 0.08409 0.48884 0.23595 0.0
H2925 H 0.1245 0.45775 0.22194 0.0
H2926 H 0.10101 0.50124 0.25743 0.0
H2927 H 0.14163 0.47039 0.24317 0.0
H2928 H 0.16352 0.52573 0.25007 0.0
H2929 H 0.14926 0.50181 0.23903 0.0
H2930 H 0.12094 0.49801 0.28365 0.0
H2931 H 0.1358 0.52172 0.29497 0.0
C2932 C 0.09631 0.48406 0.2381 0.0
C2933 C 0.10298 0.47223 0.22755 0.0
C2934 C 0.10602 0.49116 0.25035 0.0
C2935 C 0.12265 0.48681 0.25188 0.0
C2936 C 0.12884 0.4739 0.24227 0.0
C2937 C 0.11902 0.4666 0.23023 0.0
C2938 C 0.1548 0.51929 0.25778 0.0
C2939 C 0.15082 0.52537 0.27337 0.0
C2940 C 0.14665 0.50561 0.2515 0.0
C2941 C 0.13401 0.49807 0.26051 0.0
C2942 C 0.13071 0.50355 0.27654 0.0
C2943 C 0.13925 0.517 0.28302 0.0
H2944 H 0.23513 0.91616 0.51274 0.0
H2945 H 0.22293 0.87595 0.54486 0.0
H2946 H 0.25703 0.89968 0.50042 0.0
H2947 H 0.24455 0.8593 0.53234 0.0
H2948 H 0.2509 0.83674 0.47706 0.0
H2949 H 0.23981 0.8512 0.50087 0.0
H2950 H 0.284 0.88025 0.5039 0.0
H2951 H 0.29538 0.86519 0.48036 0.0
C2952 C 0.23779 0.90415 0.51779 0.0
C2953 C 0.22761 0.89735 0.52987 0.0
C2954 C 0.25026 0.89468 0.51072 0.0
C2955 C 0.25238 0.87819 0.51539 0.0
C2956 C 0.2432 0.87198 0.52858 0.0
C2957 C 0.23093 0.88154 0.53581 0.0
C2958 C 0.25853 0.84564 0.48334 0.0
C2959 C 0.27402 0.84974 0.47713 0.0
C2960 C 0.25222 0.85393 0.49694 0.0
C2961 C 0.26109 0.86682 0.50421 0.0
C2962 C 0.27701 0.87027 0.49858 0.0
C2963 C 0.28353 0.86161 0.48523 0.0
H2964 H 0.85095 0.96963 0.74582 0.0
H2965 H 0.86376 0.98478 0.79496 0.0
H2966 H 0.86549 0.9933 0.73466 0.0
H2967 H 0.87885 0.00847 0.78357 0.0
H2968 H 0.87939 0.04682 0.72401 0.0
H2969 H 0.86404 0.03178 0.74505 0.0
H2970 H 0.9059 1.0005 0.75317 0.0
H2971 H 0.92111 0.01531 0.73185 0.0
C2972 C 0.85661 0.97823 0.75425 0.0
C2973 C 0.85621 0.97542 0.77124 0.0
C2974 C 0.8649 0.99174 0.74786 0.0
C2975 C 0.87321 0.0026 0.7583 0.0
C2976 C 0.8724 1.00025 0.77535 0.0
C2977 C 0.86374 0.9868 0.78182 0.0
C2978 C 0.88563 0.0374 0.73102 0.0
C2979 C 0.90149 0.03237 0.72659 0.0
C2980 C 0.87683 0.02877 0.74299 0.0
C2981 C 0.88389 0.01514 0.75076 0.0
C2982 C 0.90036 0.01121 0.74756 0.0
C2983 C 0.90908 0.01971 0.73544 0.0
H2984 H 0.77984 0.62243 0.04566 0.0
H2985 H 0.76547 0.58313 0.01331 0.0
H2986 H 0.75852 0.64003 0.03382 0.0
H2987 H 0.74383 0.6005 0.00179 0.0
H2988 H 0.70497 0.63623 0.98467 0.0
H2989 H 0.71728 0.62067 0.0074 0.0
H2990 H 0.76216 0.6482 0.0017 0.0
H2991 H 0.75013 0.66313 0.97865 0.0
C2992 C 0.77146 0.61728 0.0367 0.0
C2993 C 0.77404 0.60142 0.03052 0.0
C2994 C 0.75937 0.62736 0.02987 0.0
C2995 C 0.74957 0.6216 0.01692 0.0
C2996 C 0.75107 0.60515 0.01193 0.0
C2997 C 0.76339 0.59519 0.01853 0.0
C2998 C 0.71722 0.63937 0.98878 0.0
C2999 C 0.72663 0.65092 0.98009 0.0
C3000 C 0.72426 0.63043 0.00167 0.0
C3001 C 0.74061 0.63331 0.0063 0.0
C3002 C 0.74946 0.64591 0.99852 0.0
C3003 C 0.74261 0.65446 0.98535 0.0
H3004 H 0.25655 0.65637 0.46656 0.0
H3005 H 0.20712 0.64548 0.4822 0.0
H3006 H 0.26733 0.63921 0.48859 0.0
H3007 H 0.21808 0.62794 0.5043 0.0
H3008 H 0.27078 0.61598 0.54472 0.0
H3009 H 0.25076 0.63365 0.5307 0.0
H3010 H 0.25313 0.60232 0.48813 0.0
H3011 H 0.27331 0.58497 0.50193 0.0
C3012 C 0.24801 0.65074 0.47506 0.0
C3013 C 0.23103 0.65223 0.47271 0.0
C3014 C 0.25417 0.6409 0.48761 0.0
C3015 C 0.24348 0.63226 0.49796 0.0
C3016 C 0.22649 0.63462 0.49647 0.0
C3017 C 0.22027 0.64469 0.48393 0.0
C3018 C 0.26623 0.61235 0.53277 0.0
C3019 C 0.27335 0.59904 0.52442 0.0
C3020 C 0.25488 0.6225 0.52474 0.0
C3021 C 0.25047 0.61924 0.50841 0.0
C3022 C 0.25624 0.60492 0.5008 0.0
C3023 C 0.26769 0.59495 0.50871 0.0
H3024 H 0.76707 0.41193 0.99316 0.0
H3025 H 0.77221 0.37582 0.95486 0.0
H3026 H 0.7444 0.3963 0.005 0.0
H3027 H 0.7497 0.3598 0.96694 0.0
H3028 H 0.73962 0.32982 0.01789 0.0
H3029 H 0.75198 0.34523 0.99531 0.0
H3030 H 0.71565 0.38329 0.00147 0.0
H3031 H 0.70313 0.36759 0.02388 0.0
C3032 C 0.76283 0.40098 0.9869 0.0
C3033 C 0.77113 0.39516 0.97301 0.0
C3034 C 0.74987 0.39201 0.99366 0.0
C3035 C 0.74528 0.3768 0.98689 0.0
C3036 C 0.75294 0.3715 0.97235 0.0
C3037 C 0.7657 0.3807 0.96538 0.0
C3038 C 0.73376 0.34102 0.01376 0.0
C3039 C 0.7203 0.34743 0.02235 0.0
C3040 C 0.74084 0.34989 0.00088 0.0
C3041 C 0.73483 0.36552 0.99669 0.0
C3042 C 0.72052 0.37128 0.00443 0.0
C3043 C 0.71326 0.36224 0.01713 0.0
H3044 H 0.34211 0.53557 0.25965 0.0
H3045 H 0.35929 0.52068 0.21181 0.0
H3046 H 0.35889 0.51434 0.27236 0.0
H3047 H 0.37643 0.49934 0.22471 0.0
H3048 H 0.39168 0.45752 0.27057 0.0
H3049 H 0.37384 0.472 0.25087 0.0
H3050 H 0.39354 0.51829 0.26734 0.0
H3051 H 0.41104 0.50404 0.28692 0.0
C3052 C 0.34901 0.52731 0.25183 0.0
C3053 C 0.34949 0.52976 0.23481 0.0
C3054 C 0.35865 0.51524 0.25909 0.0
C3055 C 0.36908 0.50546 0.24949 0.0
C3056 C 0.36843 0.50675 0.23231 0.0
C3057 C 0.35858 0.51886 0.22497 0.0
C3058 C 0.39265 0.47073 0.26942 0.0
C3059 C 0.40263 0.47973 0.28027 0.0
C3060 C 0.38241 0.47897 0.25826 0.0
C3061 C 0.38222 0.49621 0.25786 0.0
C3062 C 0.3934 0.50499 0.26757 0.0
C3063 C 0.40345 0.49684 0.27871 0.0
H3064 H 0.22361 0.08178 0.49954 0.0
H3065 H 0.22776 0.11069 0.45541 0.0
H3066 H 0.24689 0.09643 0.51142 0.0
H3067 H 0.25077 0.12593 0.46759 0.0
H3068 H 0.29094 0.12233 0.52894 0.0
H3069 H 0.27846 0.10515 0.50761 0.0
H3070 H 0.24608 0.14499 0.49464 0.0
H3071 H 0.25826 0.16193 0.51629 0.0
C3072 C 0.22996 0.09085 0.49217 0.0
C3073 C 0.22409 0.09504 0.47656 0.0
C3074 C 0.24327 0.09924 0.49894 0.0
C3075 C 0.2506 0.11231 0.4904 0.0
C3076 C 0.24538 0.11583 0.47434 0.0
C3077 C 0.23232 0.10706 0.46736 0.0
C3078 C 0.2817 0.12762 0.52097 0.0
C3079 C 0.27564 0.14344 0.524 0.0
C3080 C 0.27452 0.11779 0.50886 0.0
C3081 C 0.26135 0.12377 0.4995 0.0
C3082 C 0.25638 0.14018 0.50152 0.0
C3083 C 0.26334 0.14987 0.51386 0.0
H3084 H 0.75522 0.33992 0.48147 0.0
H3085 H 0.79595 0.3734 0.47739 0.0
H3086 H 0.74393 0.35632 0.50395 0.0
H3087 H 0.78434 0.39026 0.4995 0.0
H3088 H 0.73218 0.4215 0.50495 0.0
H3089 H 0.7548 0.40516 0.49391 0.0
H3090 H 0.74941 0.37074 0.53379 0.0
H3091 H 0.72716 0.38752 0.54518 0.0
C3092 C 0.76212 0.35037 0.48595 0.0
C3093 C 0.77653 0.35531 0.47799 0.0
C3094 C 0.75568 0.35977 0.49877 0.0
C3095 C 0.7633 0.37454 0.50343 0.0
C3096 C 0.77835 0.37885 0.49622 0.0
C3097 C 0.78502 0.36918 0.48368 0.0
C3098 C 0.73652 0.41099 0.51185 0.0
C3099 C 0.72821 0.40586 0.52601 0.0
C3100 C 0.74941 0.4016 0.50553 0.0
C3101 C 0.75379 0.38669 0.51301 0.0
C3102 C 0.74632 0.38225 0.5279 0.0
C3103 C 0.73371 0.3919 0.53446 0.0
H3104 H 0.41792 0.0252 0.23698 0.0
H3105 H 0.37107 0.04274 0.21991 0.0
H3106 H 0.40422 0.01033 0.25919 0.0
H3107 H 0.35729 0.02777 0.24191 0.0
H3108 H 0.33694 0.99405 0.28259 0.0
H3109 H 0.35213 0.01815 0.27213 0.0
H3110 H 0.38776 0.98574 0.24999 0.0
H3111 H 0.37277 0.96222 0.25991 0.0
C3112 C 0.4048 0.02664 0.23859 0.0
C3113 C 0.39551 0.03511 0.22689 0.0
C3114 C 0.39692 0.01804 0.25119 0.0
C3115 C 0.37965 0.01765 0.25207 0.0
C3116 C 0.37058 0.02789 0.24161 0.0
C3117 C 0.37847 0.03648 0.22902 0.0
C3118 C 0.34808 0.99223 0.27557 0.0
C3119 C 0.35352 0.97629 0.27181 0.0
C3120 C 0.35679 0.00595 0.26969 0.0
C3121 C 0.37129 0.00382 0.26049 0.0
C3122 C 0.37688 0.98785 0.25735 0.0
C3123 C 0.36809 0.97433 0.26282 0.0
H3124 H 0.59085 0.50508 0.72154 0.0
H3125 H 0.61305 0.45754 0.7286 0.0
H3126 H 0.60815 0.51643 0.74321 0.0
H3127 H 0.63081 0.46914 0.75016 0.0
H3128 H 0.64082 0.51882 0.79493 0.0
H3129 H 0.62361 0.49794 0.78149 0.0
H3130 H 0.6467 0.50892 0.73515 0.0
H3131 H 0.66344 0.52997 0.74838 0.0
C3132 C 0.59896 0.49693 0.72822 0.0
C3133 C 0.60062 0.48047 0.72351 0.0
C3134 C 0.60885 0.50341 0.74056 0.0
C3135 C 0.62074 0.49361 0.74823 0.0
C3136 C 0.62156 0.47682 0.7445 0.0
C3137 C 0.61138 0.47021 0.73226 0.0
C3138 C 0.64277 0.51614 0.78205 0.0
C3139 C 0.65345 0.52588 0.77263 0.0
C3140 C 0.63289 0.50428 0.77439 0.0
C3141 C 0.63394 0.50192 0.75736 0.0
C3142 C 0.64584 0.51049 0.74834 0.0
C3143 C 0.65542 0.52247 0.75589 0.0
H3144 H 0.47986 0.25468 0.83384 0.0
H3145 H 0.482 0.29603 0.86675 0.0
H3146 H 0.50265 0.24178 0.84844 0.0
H3147 H 0.50455 0.28288 0.88183 0.0
H3148 H 0.54502 0.2217 0.87508 0.0
H3149 H 0.53316 0.24404 0.85878 0.0
H3150 H 0.50013 0.25538 0.89863 0.0
H3151 H 0.51176 0.23283 0.91467 0.0
C3152 C 0.48572 0.26129 0.84379 0.0
C3153 C 0.47945 0.27639 0.84907 0.0
C3154 C 0.49874 0.25393 0.85216 0.0
C3155 C 0.50536 0.26135 0.86627 0.0
C3156 C 0.49973 0.27698 0.87093 0.0
C3157 C 0.48695 0.28453 0.86227 0.0
C3158 C 0.5358 0.22953 0.8806 0.0
C3159 C 0.52942 0.22581 0.89616 0.0
C3160 C 0.52894 0.2422 0.87125 0.0
C3161 C 0.51573 0.25141 0.87744 0.0
C3162 C 0.51046 0.24864 0.89364 0.0
C3163 C 0.51711 0.23578 0.90285 0.0
H3164 H 0.51473 0.23997 0.33734 0.0
H3165 H 0.52171 0.20105 0.37245 0.0
H3166 H 0.4916 0.25035 0.35334 0.0
H3167 H 0.49878 0.21168 0.38884 0.0
H3168 H 0.48905 0.26239 0.41966 0.0
H3169 H 0.50119 0.24012 0.40367 0.0
H3170 H 0.46308 0.24548 0.36729 0.0
H3171 H 0.45071 0.26752 0.38363 0.0
C3172 C 0.51075 0.23319 0.34808 0.0
C3173 C 0.51974 0.21961 0.35357 0.0
C3174 C 0.49754 0.23912 0.35727 0.0
C3175 C 0.49342 0.23183 0.37238 0.0
C3176 C 0.50166 0.21747 0.37722 0.0
C3177 C 0.51466 0.21132 0.3678 0.0
C3178 C 0.48275 0.25811 0.40876 0.0
C3179 C 0.46884 0.2664 0.40298 0.0
C3180 C 0.48971 0.24541 0.39955 0.0
C3181 C 0.48311 0.24113 0.38418 0.0
C3182 C 0.46837 0.24851 0.3791 0.0
C3183 C 0.46122 0.26099 0.38852 0.0
H3184 H 0.4723 0.75055 0.33355 0.0
H3185 H 0.47842 0.79381 0.3634 0.0
H3186 H 0.49241 0.73606 0.35036 0.0
H3187 H 0.49839 0.7791 0.38057 0.0
H3188 H 0.49054 0.71346 0.40242 0.0
H3189 H 0.47979 0.73524 0.38504 0.0
H3190 H 0.52877 0.75377 0.37738 0.0
H3191 H 0.53973 0.73177 0.39507 0.0
C3192 C 0.47865 0.75721 0.34316 0.0
C3193 C 0.47397 0.77325 0.34717 0.0
C3194 C 0.49007 0.74893 0.35281 0.0
C3195 C 0.49676 0.7565 0.36676 0.0
C3196 C 0.49348 0.77313 0.36975 0.0
C3197 C 0.48215 0.78154 0.3599 0.0
C3198 C 0.499 0.72245 0.39746 0.0
C3199 C 0.51595 0.72089 0.39996 0.0
C3200 C 0.49286 0.73485 0.38749 0.0
C3201 C 0.50353 0.74591 0.37976 0.0
C3202 C 0.52038 0.7453 0.38326 0.0
C3203 C 0.52658 0.73283 0.39341 0.0
H3204 H 0.52437 0.75006 0.83803 0.0
H3205 H 0.52134 0.70609 0.8673 0.0
H3206 H 0.50184 0.76214 0.85381 0.0
H3207 H 0.49925 0.7185 0.88367 0.0
H3208 H 0.45741 0.77788 0.88196 0.0
H3209 H 0.46927 0.7561 0.86488 0.0
H3210 H 0.50674 0.74804 0.90138 0.0
H3211 H 0.49526 0.77025 0.91809 0.0
C3212 C 0.51837 0.74275 0.84739 0.0
C3213 C 0.5243 0.7271 0.85133 0.0
C3214 C 0.50554 0.74964 0.85643 0.0
C3215 C 0.49884 0.74119 0.86989 0.0
C3216 C 0.50412 0.72513 0.87323 0.0
C3217 C 0.51664 0.71803 0.86382 0.0
C3218 C 0.46766 0.77084 0.88668 0.0
C3219 C 0.47532 0.77546 0.9014 0.0
C3220 C 0.47448 0.7585 0.87688 0.0
C3221 C 0.48884 0.75041 0.88189 0.0
C3222 C 0.49551 0.75393 0.8974 0.0
C3223 C 0.48893 0.76656 0.90699 0.0
H3224 H 0.66725 0.98009 0.74736 0.0
H3225 H 0.63611 0.98073 0.70461 0.0
H3226 H 0.65162 0.00276 0.7592 0.0
H3227 H 0.61996 0.00313 0.71674 0.0
H3228 H 0.58539 0.00964 0.76619 0.0
H3229 H 0.60234 0.99832 0.74414 0.0
H3230 H 0.6405 0.03322 0.7556 0.0
H3231 H 0.62325 0.04482 0.77738 0.0
C3232 C 0.65746 0.98559 0.74023 0.0
C3233 C 0.65296 0.97889 0.72504 0.0
C3234 C 0.64851 0.99855 0.74698 0.0
C3235 C 0.63458 0.00469 0.73887 0.0
C3236 C 0.63071 0.99868 0.72316 0.0
C3237 C 0.63999 0.98598 0.7162 0.0
C3238 C 0.59701 0.01545 0.76334 0.0
C3239 C 0.60297 0.02822 0.77321 0.0
C3240 C 0.60674 0.00898 0.75077 0.0
C3241 C 0.62275 0.01488 0.74822 0.0
C3242 C 0.62817 0.02852 0.75727 0.0
C3243 C 0.61828 0.03522 0.76963 0.0
H3244 H 0.63477 0.47433 0.20682 0.0
H3245 H 0.66784 0.47655 0.24803 0.0
H3246 H 0.61823 0.49645 0.21889 0.0
H3247 H 0.65179 0.49906 0.25976 0.0
H3248 H 0.62184 0.542 0.27575 0.0
H3249 H 0.63852 0.52968 0.25391 0.0
H3250 H 0.60289 0.49084 0.24878 0.0
H3251 H 0.5866 0.50284 0.27102 0.0
C3252 C 0.63898 0.48019 0.21799 0.0
C3253 C 0.65265 0.47401 0.22644 0.0
C3254 C 0.62948 0.49272 0.22492 0.0
C3255 C 0.6338 0.49945 0.24019 0.0
C3256 C 0.64835 0.49424 0.24785 0.0
C3257 C 0.65756 0.48142 0.24116 0.0
C3258 C 0.61723 0.53127 0.26937 0.0
C3259 C 0.60288 0.52344 0.27478 0.0
C3260 C 0.6268 0.5242 0.25699 0.0
C3261 C 0.62194 0.50938 0.24968 0.0
C3262 C 0.60677 0.50241 0.25406 0.0
C3263 C 0.59742 0.50927 0.26672 0.0
H3264 H 0.08506 0.32818 0.07142 0.0
H3265 H 0.06427 0.37682 0.06696 0.0
H3266 H 0.11117 0.3386 0.06067 0.0
H3267 H 0.09009 0.38705 0.05658 0.0
H3268 H 0.13306 0.39903 0.02469 0.0
H3269 H 0.10752 0.38545 0.03249 0.0
H3270 H 0.13359 0.35726 0.06905 0.0
H3271 H 0.15916 0.3706 0.06102 0.0
C3272 C 0.08602 0.34103 0.06818 0.0
C3273 C 0.0725 0.3516 0.07005 0.0
C3274 C 0.10097 0.34701 0.06205 0.0
C3275 C 0.10265 0.36363 0.05761 0.0
C3276 C 0.08914 0.37412 0.05953 0.0
C3277 C 0.07432 0.36822 0.06565 0.0
C3278 C 0.13336 0.38981 0.03426 0.0
C3279 C 0.14807 0.386 0.04233 0.0
C3280 C 0.11872 0.38207 0.03879 0.0
C3281 C 0.11849 0.37038 0.05152 0.0
C3282 C 0.13335 0.3661 0.05913 0.0
C3283 C 0.14798 0.37384 0.05459 0.0
H3284 H 0.88325 0.32011 0.30546 0.0
H3285 H 0.92816 0.34066 0.32478 0.0
H3286 H 0.87556 0.34665 0.2947 0.0
H3287 H 0.92041 0.36763 0.31365 0.0
H3288 H 0.8839 0.4139 0.31232 0.0
H3289 H 0.89842 0.38863 0.31966 0.0
H3290 H 0.88311 0.36667 0.2739 0.0
H3291 H 0.86829 0.39163 0.26684 0.0
C3292 C 0.8916 0.3303 0.30727 0.0
C3293 C 0.90629 0.32828 0.31606 0.0
C3294 C 0.88725 0.34553 0.30093 0.0
C3295 C 0.89742 0.35925 0.30321 0.0
C3296 C 0.91232 0.35726 0.31173 0.0
C3297 C 0.91679 0.34184 0.318 0.0
C3298 C 0.88398 0.40378 0.30369 0.0
C3299 C 0.87478 0.40459 0.28913 0.0
C3300 C 0.89234 0.38934 0.30786 0.0
C3301 C 0.89168 0.37557 0.29747 0.0
C3302 C 0.88356 0.37695 0.28231 0.0
C3303 C 0.87511 0.39126 0.27824 0.0
H3304 H 0.83714 0.12836 0.56809 0.0
H3305 H 0.86023 0.12291 0.52068 0.0
H3306 H 0.86147 0.14272 0.5783 0.0
H3307 H 0.88437 0.13778 0.53081 0.0
H3308 H 0.91854 0.17785 0.55448 0.0
H3309 H 0.89131 0.16871 0.54519 0.0
H3310 H 0.8928 0.12888 0.58005 0.0
H3311 H 0.92014 0.13761 0.58891 0.0
C3312 C 0.84724 0.13061 0.55974 0.0
C3313 C 0.84684 0.12456 0.54359 0.0
C3314 C 0.86113 0.13877 0.5656 0.0
C3315 C 0.87465 0.14139 0.55528 0.0
C3316 C 0.87397 0.13603 0.53891 0.0
C3317 C 0.86024 0.1275 0.53316 0.0
C3318 C 0.91286 0.16735 0.56034 0.0
C3319 C 0.92135 0.15839 0.57236 0.0
C3320 C 0.8974 0.1621 0.55498 0.0
C3321 C 0.89008 0.14814 0.56195 0.0
C3322 C 0.8982 0.13974 0.57459 0.0
C3323 C 0.9138 0.1447 0.57961 0.0
H3324 H 0.11855 0.08498 0.81452 0.0
H3325 H 0.13269 0.11254 0.77148 0.0
H3326 H 0.10278 0.10853 0.82442 0.0
H3327 H 0.11652 0.13595 0.78126 0.0
H3328 H 0.07443 0.16974 0.80051 0.0
H3329 H 0.08455 0.14328 0.78999 0.0
H3330 H 0.11561 0.13835 0.83261 0.0
H3331 H 0.10596 0.16494 0.84276 0.0
C3332 C 0.11797 0.09592 0.80699 0.0
C3333 C 0.12686 0.09697 0.79224 0.0
C3334 C 0.10898 0.10937 0.81269 0.0
C3335 C 0.10843 0.12396 0.80355 0.0
C3336 C 0.11664 0.12474 0.78841 0.0
C3337 C 0.12592 0.11141 0.78288 0.0
C3338 C 0.08314 0.16277 0.80774 0.0
C3339 C 0.08942 0.16921 0.82242 0.0
C3340 C 0.08898 0.14776 0.8017 0.0
C3341 C 0.1008 0.13886 0.81054 0.0
C3342 C 0.10639 0.14494 0.82566 0.0
C3343 C 0.10091 0.16011 0.83144 0.0
H3344 H 0.08554 0.67347 0.92852 0.0
H3345 H 0.06534 0.62457 0.9331 0.0
H3346 H 0.11208 0.66319 0.93823 0.0
H3347 H 0.0916 0.61449 0.94249 0.0
H3348 H 0.13523 0.60341 0.97384 0.0
H3349 H 0.10946 0.61675 0.96655 0.0
H3350 H 0.13435 0.64437 0.92874 0.0
H3351 H 0.16021 0.63121 0.93622 0.0
C3352 C 0.08673 0.66059 0.93156 0.0
C3353 C 0.07325 0.6499 0.93006 0.0
C3354 C 0.10192 0.6547 0.93708 0.0
C3355 C 0.10386 0.63807 0.94129 0.0
C3356 C 0.09042 0.62743 0.93968 0.0
C3357 C 0.07536 0.63325 0.93414 0.0
C3358 C 0.13523 0.61245 0.96409 0.0
C3359 C 0.14968 0.61615 0.9555 0.0
C3360 C 0.12047 0.62004 0.95987 0.0
C3361 C 0.11986 0.63149 0.94696 0.0
C3362 C 0.13446 0.63569 0.93881 0.0
C3363 C 0.14923 0.62807 0.94303 0.0
H3364 H 0.61609 0.32864 0.16136 0.0
H3365 H 0.57673 0.32961 0.19682 0.0
H3366 H 0.62523 0.35569 0.17071 0.0
H3367 H 0.5863 0.35654 0.2066 0.0
H3368 H 0.62578 0.41123 0.1839 0.0
H3369 H 0.611 0.38716 0.17366 0.0
H3370 H 0.61818 0.36288 0.22015 0.0
H3371 H 0.63346 0.38677 0.2303 0.0
C3372 C 0.60928 0.33479 0.17099 0.0
C3373 C 0.59571 0.32715 0.17837 0.0
C3374 C 0.61448 0.35022 0.1763 0.0
C3375 C 0.60645 0.35807 0.18935 0.0
C3376 C 0.59262 0.35066 0.19649 0.0
C3377 C 0.58712 0.33537 0.19085 0.0
C3378 C 0.62394 0.40088 0.19204 0.0
C3379 C 0.63074 0.40082 0.2079 0.0
C3380 C 0.61553 0.38715 0.18616 0.0
C3381 C 0.61342 0.37332 0.19619 0.0
C3382 C 0.61953 0.37353 0.2123 0.0
C3383 C 0.6283 0.38712 0.21806 0.0
H3384 H 0.87058 0.89575 0.47713 0.0
H3385 H 0.84103 0.86833 0.44268 0.0
H3386 H 0.89518 0.8825 0.46658 0.0
H3387 H 0.86584 0.85504 0.43206 0.0
H3388 H 0.9165 0.82663 0.42809 0.0
H3389 H 0.89051 0.83625 0.4399 0.0
H3390 H 0.90857 0.88604 0.43889 0.0
H3391 H 0.93423 0.87668 0.42724 0.0
C3392 C 0.86931 0.88673 0.46744 0.0
C3393 C 0.85391 0.88323 0.46059 0.0
C3394 C 0.88341 0.87919 0.46137 0.0
C3395 C 0.88242 0.86794 0.44834 0.0
C3396 C 0.86692 0.86365 0.44212 0.0
C3397 C 0.85276 0.87128 0.44818 0.0
C3398 C 0.91487 0.83963 0.43032 0.0
C3399 C 0.92755 0.85084 0.42683 0.0
C3400 C 0.9 0.84511 0.43705 0.0
C3401 C 0.89767 0.86184 0.44055 0.0
C3402 C 0.91016 0.87303 0.43666 0.0
C3403 C 0.92487 0.86762 0.42986 0.0
H3404 H 0.36014 0.1131 0.72874 0.0
H3405 H 0.38534 0.08358 0.69263 0.0
H3406 H 0.3771 0.13651 0.72152 0.0
H3407 H 0.40282 0.10694 0.68573 0.0
H3408 H 0.40866 0.1591 0.66184 0.0
H3409 H 0.39915 0.13234 0.67144 0.0
H3410 H 0.40343 0.149 0.72167 0.0
H3411 H 0.41231 0.17593 0.71183 0.0
C3412 C 0.36953 0.11153 0.71946 0.0
C3413 C 0.37128 0.09657 0.71113 0.0
C3414 C 0.3794 0.12494 0.7154 0.0
C3415 C 0.39137 0.12365 0.703 0.0
C3416 C 0.39359 0.10843 0.69518 0.0
C3417 C 0.38362 0.09503 0.69918 0.0
C3418 C 0.4081 0.15675 0.67492 0.0
C3419 C 0.41131 0.16935 0.68615 0.0
C3420 C 0.40265 0.14145 0.68046 0.0
C3421 C 0.4003 0.13856 0.69735 0.0
C3422 C 0.40479 0.1509 0.70858 0.0
C3423 C 0.41008 0.16622 0.70301 0.0
H3424 H 0.072 0.16162 0.37478 0.0
H3425 H 0.02512 0.13905 0.38502 0.0
H3426 H 0.08099 0.13669 0.36079 0.0
H3427 H 0.03409 0.11414 0.37061 0.0
H3428 H 0.05457 0.07876 0.32944 0.0
H3429 H 0.04511 0.10564 0.33946 0.0
H3430 H 0.08493 0.10658 0.37436 0.0
H3431 H 0.09407 0.07968 0.36474 0.0
C3432 C 0.06353 0.15142 0.37382 0.0
C3433 C 0.04788 0.15221 0.38103 0.0
C3434 C 0.06869 0.13719 0.36583 0.0
C3435 C 0.05819 0.12362 0.36462 0.0
C3436 C 0.04232 0.12457 0.37128 0.0
C3437 C 0.03725 0.13873 0.37958 0.0
C3438 C 0.06139 0.08489 0.33907 0.0
C3439 C 0.07499 0.07725 0.34637 0.0
C3440 C 0.05593 0.10013 0.34485 0.0
C3441 C 0.06431 0.10805 0.35766 0.0
C3442 C 0.07833 0.10071 0.36443 0.0
C3443 C 0.08352 0.08535 0.35895 0.0
H3444 H 0.16419 0.32029 0.57739 0.0
H3445 H 0.18412 0.31169 0.62585 0.0
H3446 H 0.13744 0.31023 0.58686 0.0
H3447 H 0.15769 0.30197 0.63513 0.0
H3448 H 0.11349 0.27153 0.64475 0.0
H3449 H 0.13927 0.27866 0.63134 0.0
H3450 H 0.11526 0.31872 0.60626 0.0
H3451 H 0.08938 0.3114 0.61947 0.0
C3452 C 0.16291 0.31627 0.59 0.0
C3453 C 0.17636 0.31679 0.60081 0.0
C3454 C 0.14759 0.31055 0.59542 0.0
C3455 C 0.14551 0.30513 0.6117 0.0
C3456 C 0.15895 0.30571 0.62243 0.0
C3457 C 0.17412 0.31145 0.61709 0.0
C3458 C 0.11366 0.28171 0.63621 0.0
C3459 C 0.09947 0.29101 0.63331 0.0
C3460 C 0.12844 0.28585 0.62857 0.0
C3461 C 0.12935 0.29939 0.6179 0.0
C3462 C 0.11495 0.30817 0.61434 0.0
C3463 C 0.10014 0.30402 0.62199 0.0
H3464 H 0.91448 0.40732 0.8395 0.0
H3465 H 0.96238 0.42815 0.84777 0.0
H3466 H 0.92401 0.38099 0.85026 0.0
H3467 H 0.97238 0.4017 0.85755 0.0
H3468 H 0.97603 0.36263 0.89768 0.0
H3469 H 0.96932 0.38688 0.88175 0.0
H3470 H 0.94021 0.35718 0.84874 0.0
H3471 H 0.94631 0.33303 0.86531 0.0
C3472 C 0.92722 0.40601 0.84308 0.0
C3473 C 0.93773 0.41961 0.84291 0.0
C3474 C 0.93274 0.39095 0.84923 0.0
C3475 C 0.94895 0.38922 0.85505 0.0
C3476 C 0.95971 0.40265 0.85365 0.0
C3477 C 0.95408 0.41775 0.84787 0.0
C3478 C 0.96832 0.36126 0.88694 0.0
C3479 C 0.96156 0.34598 0.88285 0.0
C3480 C 0.96456 0.37517 0.87767 0.0
C3481 C 0.95415 0.37408 0.8639 0.0
C3482 C 0.948 0.35858 0.8594 0.0
C3483 C 0.95159 0.34471 0.86884 0.0
H3484 H 0.83738 0.15674 0.11173 0.0
H3485 H 0.83369 0.19741 0.07801 0.0
H3486 H 0.86394 0.16699 0.12129 0.0
H3487 H 0.86014 0.20803 0.08802 0.0
H3488 H 0.91752 0.1847 0.12427 0.0
H3489 H 0.89415 0.17427 0.10857 0.0
H3490 H 0.86688 0.21821 0.11989 0.0
H3491 H 0.8901 0.22851 0.13603 0.0
C3492 C 0.84245 0.1677 0.10616 0.0
C3493 C 0.83363 0.17627 0.0941 0.0
C3494 C 0.85761 0.17355 0.11161 0.0
C3495 C 0.86399 0.18829 0.10539 0.0
C3496 C 0.85542 0.19662 0.09295 0.0
C3497 C 0.84042 0.19051 0.08717 0.0
C3498 C 0.90665 0.19228 0.12317 0.0
C3499 C 0.90559 0.20742 0.13137 0.0
C3500 C 0.8933 0.18628 0.11422 0.0
C3501 C 0.87881 0.1955 0.11299 0.0
C3502 C 0.87801 0.21098 0.12053 0.0
C3503 C 0.89124 0.21682 0.1298 0.0
H3504 H 0.06522 0.8373 0.62523 0.0
H3505 H 0.01932 0.86238 0.6166 0.0
H3506 H 0.07593 0.86171 0.6391 0.0
H3507 H 0.02995 0.88661 0.63102 0.0
H3508 H 0.05502 0.91998 0.67234 0.0
H3509 H 0.04458 0.89306 0.66348 0.0
H3510 H 0.07856 0.89326 0.62287 0.0
H3511 H 0.08856 0.92033 0.6313 0.0
C3512 C 0.05727 0.84786 0.6267 0.0
C3513 C 0.04142 0.84798 0.61988 0.0
C3514 C 0.06343 0.86178 0.63459 0.0
C3515 C 0.05368 0.87587 0.63616 0.0
C3516 C 0.03758 0.87576 0.63007 0.0
C3517 C 0.03155 0.86197 0.62181 0.0
C3518 C 0.06041 0.91411 0.6617 0.0
C3519 C 0.07255 0.92215 0.65246 0.0
C3520 C 0.0544 0.89882 0.65662 0.0
C3521 C 0.06083 0.89122 0.64255 0.0
C3522 C 0.07351 0.89891 0.6338 0.0
C3523 C 0.07918 0.91434 0.6386 0.0
H3524 H 0.33689 0.34802 0.88706 0.0
H3525 H 0.33289 0.30858 0.9222 0.0
H3526 H 0.364 0.33806 0.87888 0.0
H3527 H 0.35991 0.29828 0.91362 0.0
H3528 H 0.41772 0.32095 0.87729 0.0
H3529 H 0.39388 0.33186 0.89195 0.0
H3530 H 0.36769 0.28672 0.883 0.0
H3531 H 0.39137 0.27593 0.86791 0.0
C3532 C 0.34201 0.33744 0.89328 0.0
C3533 C 0.3329 0.32909 0.90529 0.0
C3534 C 0.35749 0.33175 0.88861 0.0
C3535 C 0.36395 0.31739 0.89559 0.0
C3536 C 0.35514 0.30939 0.90808 0.0
C3537 C 0.3398 0.31534 0.91306 0.0
C3538 C 0.40699 0.31324 0.87871 0.0
C3539 C 0.40637 0.29758 0.87147 0.0
C3540 C 0.39337 0.31951 0.88705 0.0
C3541 C 0.37905 0.31008 0.88865 0.0
C3542 C 0.37869 0.29414 0.88208 0.0
C3543 C 0.39217 0.28801 0.87341 0.0
H3544 H 0.97374 0.63307 0.10192 0.0
H3545 H 0.93814 0.65961 0.1309 0.0
H3546 H 0.96529 0.60751 0.11502 0.0
H3547 H 0.92954 0.63398 0.14386 0.0
H3548 H 0.92876 0.58491 0.17299 0.0
H3549 H 0.9387 0.61121 0.16232 0.0
H3550 H 0.9403 0.59074 0.11345 0.0
H3551 H 0.93063 0.56469 0.12392 0.0
C3552 C 0.96419 0.63345 0.11116 0.0
C3553 C 0.95652 0.6483 0.11529 0.0
C3554 C 0.95929 0.61882 0.11861 0.0
C3555 C 0.94665 0.61873 0.13037 0.0
C3556 C 0.93938 0.63368 0.13493 0.0
C3557 C 0.94426 0.64833 0.12744 0.0
C3558 C 0.93122 0.58605 0.15998 0.0
C3559 C 0.92899 0.57261 0.14937 0.0
C3560 C 0.93688 0.60111 0.15388 0.0
C3561 C 0.94048 0.60296 0.13708 0.0
C3562 C 0.93799 0.58961 0.1265 0.0
C3563 C 0.93232 0.57467 0.13254 0.0
H3564 H 0.66843 0.16233 0.38569 0.0
H3565 H 0.67124 0.20069 0.42213 0.0
H3566 H 0.6411 0.17185 0.37772 0.0
H3567 H 0.64397 0.2106 0.4137 0.0
H3568 H 0.58606 0.18506 0.38111 0.0
H3569 H 0.6113 0.17616 0.39455 0.0
H3570 H 0.63458 0.22183 0.3814 0.0
H3571 H 0.60938 0.2307 0.36745 0.0
C3572 C 0.66308 0.17268 0.3921 0.0
C3573 C 0.67184 0.18077 0.40454 0.0
C3574 C 0.6475 0.1781 0.38756 0.0
C3575 C 0.64057 0.19195 0.39509 0.0
C3576 C 0.64915 0.19989 0.40775 0.0
C3577 C 0.66462 0.19418 0.41262 0.0
C3578 C 0.59644 0.19335 0.38129 0.0
C3579 C 0.59578 0.20857 0.37316 0.0
C3580 C 0.61086 0.18822 0.38898 0.0
C3581 C 0.62476 0.19835 0.38901 0.0
C3582 C 0.62391 0.21391 0.38164 0.0
C3583 C 0.60955 0.21893 0.37363 0.0
H3584 H 0.34653 0.04062 0.06702 0.0
H3585 H 0.33769 0.08899 0.08651 0.0
H3586 H 0.35558 0.03124 0.09393 0.0
H3587 H 0.34781 0.0801 0.11332 0.0
H3588 H 0.36133 0.05875 0.16226 0.0
H3589 H 0.34567 0.06464 0.13744 0.0
H3590 H 0.37912 0.03433 0.10945 0.0
H3591 H 0.39403 0.02779 0.13433 0.0
C3592 C 0.3464 0.04917 0.07721 0.0
C3593 C 0.34146 0.06546 0.07486 0.0
C3594 C 0.35176 0.04389 0.09258 0.0
C3595 C 0.3528 0.05497 0.1058 0.0
C3596 C 0.34706 0.07114 0.10353 0.0
C3597 C 0.3413 0.0763 0.0882 0.0
C3598 C 0.36514 0.05318 0.1508 0.0
C3599 C 0.37895 0.04288 0.1502 0.0
C3600 C 0.35624 0.05665 0.13654 0.0
C3601 C 0.36111 0.05006 0.12134 0.0
C3602 C 0.37473 0.03941 0.12091 0.0
C3603 C 0.38343 0.03575 0.13519 0.0
H3604 H 0.8732 0.93122 0.33514 0.0
H3605 H 0.88371 0.97682 0.36007 0.0
H3606 H 0.858 0.92159 0.35917 0.0
H3607 H 0.86817 0.96726 0.38397 0.0
H3608 H 0.82964 0.94758 0.42028 0.0
H3609 H 0.83778 0.95688 0.39273 0.0
H3610 H 0.87091 0.91573 0.38871 0.0
H3611 H 0.86318 0.9068 0.4163 0.0
C3612 C 0.87197 0.93932 0.34561 0.0
C3613 C 0.87972 0.95473 0.34581 0.0
C3614 C 0.86328 0.9338 0.35932 0.0
C3615 C 0.8619 0.94372 0.37333 0.0
C3616 C 0.86892 0.95947 0.37322 0.0
C3617 C 0.87788 0.96488 0.35962 0.0
C3618 C 0.8383 0.94033 0.41326 0.0
C3619 C 0.84579 0.92649 0.42026 0.0
C3620 C 0.84302 0.94569 0.39762 0.0
C3621 C 0.85496 0.937 0.38869 0.0
C3622 C 0.86158 0.92255 0.39531 0.0
C3623 C 0.85719 0.91745 0.41105 0.0
H3624 H 0.31852 0.07565 0.66595 0.0
H3625 H 0.31563 0.12541 0.68424 0.0
H3626 H 0.30689 0.08482 0.63974 0.0
H3627 H 0.30431 0.13439 0.65832 0.0
H3628 H 0.27061 0.14436 0.61635 0.0
H3629 H 0.27913 0.1317 0.64212 0.0
H3630 H 0.31493 0.10256 0.61604 0.0
H3631 H 0.30625 0.11505 0.59024 0.0
C3632 C 0.31543 0.08849 0.66442 0.0
C3633 C 0.31803 0.09975 0.67725 0.0
C3634 C 0.30881 0.09374 0.64942 0.0
C3635 C 0.30452 0.1103 0.64703 0.0
C3636 C 0.30715 0.12149 0.65985 0.0
C3637 C 0.31382 0.11632 0.67471 0.0
C3638 C 0.28014 0.13509 0.61609 0.0
C3639 C 0.28787 0.13083 0.6013 0.0
C3640 C 0.28507 0.12789 0.63085 0.0
C3641 C 0.29784 0.11626 0.63114 0.0
C3642 C 0.305 0.1114 0.61623 0.0
C3643 C 0.30008 0.11863 0.60146 0.0
H3644 H 0.13697 0.55431 0.83473 0.0
H3645 H 0.09947 0.53107 0.86405 0.0
H3646 H 0.15295 0.5598 0.85944 0.0
H3647 H 0.11478 0.53735 0.88878 0.0
H3648 H 0.16534 0.58531 0.90883 0.0
H3649 H 0.15373 0.57672 0.88255 0.0
H3650 H 0.13727 0.5314 0.90487 0.0
H3651 H 0.1479 0.54066 0.93121 0.0
C3652 C 0.13214 0.55041 0.84649 0.0
C3653 C 0.11698 0.54226 0.84748 0.0
C3654 C 0.14124 0.55365 0.86068 0.0
C3655 C 0.13524 0.54904 0.87622 0.0
C3656 C 0.12008 0.54076 0.87708 0.0
C3657 C 0.11116 0.53727 0.86288 0.0
C3658 C 0.15951 0.57339 0.90792 0.0
C3659 C 0.1574 0.56365 0.92194 0.0
C3660 C 0.15285 0.56841 0.89288 0.0
C3661 C 0.14424 0.55345 0.89156 0.0
C3662 C 0.1433 0.54323 0.90546 0.0
C3663 C 0.14957 0.5484 0.92052 0.0
H3664 H 0.17614 0.87506 0.1858 0.0
H3665 H 0.17833 0.92473 0.16713 0.0
H3666 H 0.18676 0.86481 0.16007 0.0
H3667 H 0.18915 0.91419 0.14103 0.0
H3668 H 0.1891 0.88188 0.09196 0.0
H3669 H 0.17972 0.89557 0.11705 0.0
H3670 H 0.21371 0.86653 0.14548 0.0
H3671 H 0.223 0.85285 0.12058 0.0
C3672 C 0.17888 0.88386 0.17623 0.0
C3673 C 0.17646 0.90079 0.17865 0.0
C3674 C 0.18509 0.87793 0.16147 0.0
C3675 C 0.18899 0.88871 0.14864 0.0
C3676 C 0.18625 0.90562 0.15077 0.0
C3677 C 0.18011 0.91164 0.1657 0.0
C3678 C 0.19467 0.87856 0.10357 0.0
C3679 C 0.20664 0.86616 0.10435 0.0
C3680 C 0.18937 0.88646 0.11788 0.0
C3681 C 0.19588 0.88199 0.1332 0.0
C3682 C 0.20831 0.87005 0.13385 0.0
C3683 C 0.21365 0.86224 0.11959 0.0
H3684 H 0.60617 0.97715 0.1368 0.0
H3685 H 0.63095 0.94084 0.16641 0.0
H3686 H 0.62255 0.96899 0.11312 0.0
H3687 H 0.64749 0.93278 0.14274 0.0
H3688 H 0.66078 0.95937 0.07535 0.0
H3689 H 0.65044 0.96887 0.10191 0.0
H3690 H 0.64223 0.91854 0.11653 0.0
H3691 H 0.65288 0.90918 0.09001 0.0
C3692 C 0.61526 0.96758 0.1383 0.0
C3693 C 0.61724 0.95962 0.15344 0.0
C3694 C 0.62474 0.96296 0.12476 0.0
C3695 C 0.63636 0.95025 0.12606 0.0
C3696 C 0.63857 0.94253 0.14132 0.0
C3697 C 0.62914 0.94721 0.15488 0.0
C3698 C 0.6573 0.95039 0.08453 0.0
C3699 C 0.65784 0.93359 0.0809 0.0
C3700 C 0.65119 0.9558 0.09961 0.0
C3701 C 0.64533 0.94447 0.11125 0.0
C3702 C 0.64679 0.92758 0.10791 0.0
C3703 C 0.65294 0.92218 0.0928 0.0
H3704 H 0.26993 0.36339 0.88608 0.0
H3705 H 0.31076 0.38447 0.91249 0.0
H3706 H 0.27849 0.37777 0.86131 0.0
H3707 H 0.31953 0.39871 0.88748 0.0
H3708 H 0.32417 0.42819 0.83822 0.0
H3709 H 0.31245 0.41955 0.86465 0.0
H3710 H 0.30321 0.37137 0.84462 0.0
H3711 H 0.31465 0.37979 0.81858 0.0
C3712 C 0.28058 0.37133 0.88665 0.0
C3713 C 0.28981 0.37264 0.90112 0.0
C3714 C 0.2855 0.37952 0.87247 0.0
C3715 C 0.29983 0.38911 0.87242 0.0
C3716 C 0.30841 0.39143 0.8872 0.0
C3717 C 0.30342 0.38325 0.90148 0.0
C3718 C 0.31956 0.41579 0.83949 0.0
C3719 C 0.32035 0.4047 0.82627 0.0
C3720 C 0.31291 0.41086 0.85461 0.0
C3721 C 0.30674 0.39486 0.8566 0.0
C3722 C 0.30756 0.38387 0.84337 0.0
C3723 C 0.31429 0.3887 0.82845 0.0
H3724 H 0.69014 0.12169 0.41551 0.0
H3725 H 0.72912 0.14271 0.38635 0.0
H3726 H 0.68135 0.10534 0.39195 0.0
H3727 H 0.72034 0.12633 0.36283 0.0
H3728 H 0.70647 0.08729 0.32581 0.0
H3729 H 0.71697 0.09705 0.35233 0.0
H3730 H 0.66848 0.11435 0.365 0.0
H3731 H 0.65818 0.10479 0.33845 0.0
C3732 C 0.69699 0.12262 0.40416 0.0
C3733 C 0.71025 0.13356 0.40272 0.0
C3734 C 0.69192 0.1133 0.39067 0.0
C3735 C 0.70014 0.1146 0.37557 0.0
C3736 C 0.71388 0.12495 0.37438 0.0
C3737 C 0.71884 0.1344 0.3878 0.0
C3738 C 0.69805 0.09278 0.33452 0.0
C3739 C 0.68155 0.09521 0.33034 0.0
C3740 C 0.70404 0.09846 0.34958 0.0
C3741 C 0.69353 0.10647 0.3607 0.0
C3742 C 0.67681 0.10806 0.35677 0.0
C3743 C 0.67091 0.10263 0.34162 0.0
H3744 H 0.13979 0.88 0.52241 0.0
H3745 H 0.16308 0.87265 0.56947 0.0
H3746 H 0.11535 0.86555 0.53234 0.0
H3747 H 0.13853 0.85857 0.57943 0.0
H3748 H 0.08132 0.86468 0.59243 0.0
H3749 H 0.10875 0.87245 0.58311 0.0
H3750 H 0.10632 0.83574 0.54499 0.0
H3751 H 0.07891 0.82759 0.55464 0.0
C3752 C 0.13977 0.87508 0.53476 0.0
C3753 C 0.15327 0.87748 0.54519 0.0
C3754 C 0.12586 0.86676 0.54039 0.0
C3755 C 0.12514 0.86099 0.55662 0.0
C3756 C 0.13884 0.86291 0.56687 0.0
C3757 C 0.15286 0.87094 0.56114 0.0
C3758 C 0.08679 0.85806 0.58226 0.0
C3759 C 0.07808 0.84558 0.5742 0.0
C3760 C 0.10247 0.86245 0.57699 0.0
C3761 C 0.10955 0.85468 0.56334 0.0
C3762 C 0.10105 0.84187 0.55554 0.0
C3763 C 0.08548 0.83718 0.56109 0.0
H3764 H 0.87846 0.81922 0.82541 0.0
H3765 H 0.92865 0.83608 0.82148 0.0
H3766 H 0.86884 0.845 0.81428 0.0
H3767 H 0.91876 0.86222 0.8102 0.0
H3768 H 0.88809 0.91234 0.80876 0.0
H3769 H 0.90116 0.88722 0.81889 0.0
H3770 H 0.8706 0.8584 0.7866 0.0
H3771 H 0.85758 0.88334 0.77651 0.0
C3772 C 0.8875 0.82841 0.82219 0.0
C3773 C 0.9044 0.82543 0.82422 0.0
C3774 C 0.88194 0.8432 0.81571 0.0
C3775 C 0.89305 0.85551 0.81111 0.0
C3776 C 0.90993 0.85289 0.8136 0.0
C3777 C 0.91557 0.83793 0.82004 0.0
C3778 C 0.88436 0.90064 0.80366 0.0
C3779 C 0.87169 0.89979 0.79196 0.0
C3780 C 0.89187 0.8863 0.80943 0.0
C3781 C 0.88675 0.87088 0.80367 0.0
C3782 C 0.87462 0.87012 0.79144 0.0
C3783 C 0.8672 0.88441 0.78562 0.0
H3784 H 0.86714 0.60105 0.02583 0.0
H3785 H 0.83719 0.6358 0.0523 0.0
H3786 H 0.89148 0.61693 0.03244 0.0
H3787 H 0.8614 0.65233 0.05819 0.0
H3788 H 0.91059 0.66342 0.08466 0.0
H3789 H 0.88452 0.65217 0.07506 0.0
H3790 H 0.907 0.64036 0.02838 0.0
H3791 H 0.93317 0.65064 0.03856 0.0
C3792 C 0.86573 0.61229 0.03278 0.0
C3793 C 0.8503 0.6171 0.03867 0.0
C3794 C 0.87969 0.62153 0.03649 0.0
C3795 C 0.87852 0.63601 0.04591 0.0
C3796 C 0.8629 0.64113 0.0512 0.0
C3797 C 0.84898 0.63172 0.04773 0.0
C3798 C 0.90975 0.65876 0.07223 0.0
C3799 C 0.92377 0.65782 0.06233 0.0
C3800 C 0.89482 0.6523 0.06667 0.0
C3801 C 0.89363 0.64504 0.05098 0.0
C3802 C 0.9075 0.64534 0.04069 0.0
C3803 C 0.92245 0.65143 0.0464 0.0
H3804 H 0.11951 0.68184 0.31539 0.0
H3805 H 0.07166 0.6613 0.32566 0.0
H3806 H 0.12812 0.65606 0.30344 0.0
H3807 H 0.08047 0.63516 0.31344 0.0
H3808 H 0.11574 0.58776 0.3106 0.0
H3809 H 0.10171 0.61264 0.32 0.0
H3810 H 0.12161 0.63932 0.27875 0.0
H3811 H 0.13572 0.61465 0.2695 0.0
C3812 C 0.11076 0.67183 0.31507 0.0
C3813 C 0.09486 0.67367 0.32152 0.0
C3814 C 0.11569 0.65707 0.30806 0.0
C3815 C 0.10492 0.64365 0.30734 0.0
C3816 C 0.08901 0.64534 0.31383 0.0
C3817 C 0.08397 0.66029 0.32075 0.0
C3818 C 0.1168 0.59886 0.30336 0.0
C3819 C 0.12701 0.59935 0.28945 0.0
C3820 C 0.10874 0.61307 0.30872 0.0
C3821 C 0.11078 0.62795 0.30023 0.0
C3822 C 0.12006 0.62808 0.28569 0.0
C3823 C 0.12809 0.61394 0.28037 0.0
H3824 H 0.16079 0.12998 0.44019 0.0
H3825 H 0.13649 0.1108 0.4832 0.0
H3826 H 0.13605 0.14541 0.4331 0.0
H3827 H 0.11204 0.1266 0.4765 0.0
H3828 H 0.0664 0.13164 0.44447 0.0
H3829 H 0.09228 0.12207 0.45517 0.0
H3830 H 0.11566 0.16705 0.43958 0.0
H3831 H 0.08939 0.17668 0.42836 0.0
C3832 C 0.15031 0.12941 0.44835 0.0
C3833 C 0.15044 0.11901 0.46211 0.0
C3834 C 0.13617 0.13831 0.44433 0.0
C3835 C 0.12198 0.13703 0.45409 0.0
C3836 C 0.12263 0.12756 0.46851 0.0
C3837 C 0.13665 0.11855 0.4724 0.0
C3838 C 0.07697 0.13963 0.44336 0.0
C3839 C 0.0758 0.15491 0.43544 0.0
C3840 C 0.09185 0.13418 0.44969 0.0
C3841 C 0.10605 0.14383 0.44836 0.0
C3842 C 0.10492 0.15931 0.44074 0.0
C3843 C 0.08988 0.16485 0.43441 0.0
H3844 H 0.64176 0.88837 0.72852 0.0
H3845 H 0.62136 0.91596 0.6881 0.0
H3846 H 0.62616 0.86418 0.71977 0.0
H3847 H 0.60605 0.89175 0.67928 0.0
H3848 H 0.6083 0.83719 0.65799 0.0
H3849 H 0.61779 0.86386 0.66805 0.0
H3850 H 0.59531 0.85414 0.71506 0.0
H3851 H 0.58538 0.82756 0.70473 0.0
C3852 C 0.63378 0.88933 0.71793 0.0
C3853 C 0.63282 0.90403 0.70897 0.0
C3854 C 0.62481 0.87553 0.71298 0.0
C3855 C 0.61493 0.87615 0.69886 0.0
C3856 C 0.61361 0.89097 0.69019 0.0
C3857 C 0.62235 0.90482 0.69528 0.0
C3858 C 0.60503 0.841 0.67031 0.0
C3859 C 0.59601 0.83053 0.68057 0.0
C3860 C 0.61044 0.8562 0.67607 0.0
C3861 C 0.60729 0.861 0.69233 0.0
C3862 C 0.59788 0.85069 0.70247 0.0
C3863 C 0.59209 0.83561 0.69655 0.0
H3864 H 0.93232 0.37338 0.93546 0.0
H3865 H 0.91316 0.32396 0.93226 0.0
H3866 H 0.90609 0.38301 0.94544 0.0
H3867 H 0.88663 0.3338 0.94252 0.0
H3868 H 0.83774 0.36508 0.94165 0.0
H3869 H 0.86354 0.3521 0.93361 0.0
H3870 H 0.88916 0.38059 0.97024 0.0
H3871 H 0.86345 0.39372 0.97812 0.0
C3872 C 0.92253 0.3645 0.93692 0.0
C3873 C 0.92494 0.34782 0.93308 0.0
C3874 C 0.90749 0.37005 0.94279 0.0
C3875 C 0.89435 0.35914 0.945 0.0
C3876 C 0.89656 0.3425 0.94094 0.0
C3877 C 0.91175 0.33687 0.93509 0.0
C3878 C 0.84885 0.36841 0.94812 0.0
C3879 C 0.84861 0.38056 0.96039 0.0
C3880 C 0.86361 0.36091 0.94357 0.0
C3881 C 0.8784 0.36545 0.95116 0.0
C3882 C 0.87799 0.37704 0.96396 0.0
C3883 C 0.86326 0.38451 0.96853 0.0
H3884 H 0.3882 0.66836 0.15705 0.0
H3885 H 0.42367 0.67376 0.19604 0.0
H3886 H 0.37963 0.64194 0.16847 0.0
H3887 H 0.41467 0.64746 0.20779 0.0
H3888 H 0.37905 0.5887 0.18767 0.0
H3889 H 0.3938 0.61212 0.17601 0.0
H3890 H 0.38312 0.64052 0.21941 0.0
H3891 H 0.36789 0.61725 0.23093 0.0
C3892 C 0.39431 0.66374 0.16793 0.0
C3893 C 0.40658 0.67302 0.17569 0.0
C3894 C 0.38945 0.64865 0.17441 0.0
C3895 C 0.3965 0.64278 0.18898 0.0
C3896 C 0.40911 0.6518 0.19651 0.0
C3897 C 0.41429 0.66673 0.18977 0.0
C3898 C 0.38013 0.59983 0.19487 0.0
C3899 C 0.37235 0.60121 0.21021 0.0
C3900 C 0.38852 0.6132 0.18817 0.0
C3901 C 0.38961 0.62801 0.19689 0.0
C3902 C 0.38256 0.62913 0.21257 0.0
C3903 C 0.37383 0.61588 0.21911 0.0
H3904 H 0.03954 0.56883 0.8466 0.0
H3905 H 0.08615 0.5915 0.8361 0.0
H3906 H 0.02892 0.59489 0.8567 0.0
H3907 H 0.07604 0.61748 0.8472 0.0
H3908 H 0.05217 0.66484 0.86207 0.0
H3909 H 0.05906 0.64056 0.84603 0.0
H3910 H 0.03167 0.61054 0.88023 0.0
H3911 H 0.0241 0.63493 0.8956 0.0
C3912 C 0.04743 0.57953 0.84632 0.0
C3913 C 0.0636 0.57828 0.84057 0.0
C3914 C 0.04145 0.59443 0.8523 0.0
C3915 C 0.05167 0.60832 0.85313 0.0
C3916 C 0.0677 0.60717 0.84663 0.0
C3917 C 0.07355 0.59229 0.84028 0.0
C3918 C 0.04742 0.65305 0.86598 0.0
C3919 C 0.03766 0.65177 0.88014 0.0
C3920 C 0.05149 0.63909 0.85686 0.0
C3921 C 0.04607 0.62346 0.86182 0.0
C3922 C 0.03589 0.62233 0.87577 0.0
C3923 C 0.03161 0.63633 0.88472 0.0
H3924 H 0.18054 0.78919 0.09523 0.0
H3925 H 0.16074 0.83814 0.09234 0.0
H3926 H 0.15417 0.77896 0.10515 0.0
H3927 H 0.13444 0.82818 0.10292 0.0
H3928 H 0.08656 0.80446 0.11834 0.0
H3929 H 0.1099 0.81158 0.10082 0.0
H3930 H 0.14155 0.78189 0.13131 0.0
H3931 H 0.1183 0.77448 0.14838 0.0
C3932 C 0.17032 0.79764 0.0963 0.0
C3933 C 0.17248 0.81436 0.09292 0.0
C3934 C 0.1553 0.79187 0.10217 0.0
C3935 C 0.14226 0.80279 0.10515 0.0
C3936 C 0.14415 0.81939 0.10066 0.0
C3937 C 0.15917 0.82512 0.09458 0.0
C3938 C 0.09849 0.7993 0.12112 0.0
C3939 C 0.10062 0.78896 0.13477 0.0
C3940 C 0.11186 0.80344 0.11114 0.0
C3941 C 0.12762 0.79729 0.1146 0.0
C3942 C 0.12957 0.78661 0.12803 0.0
C3943 C 0.11624 0.78246 0.13795 0.0
H3944 H 0.94013 0.83732 0.36556 0.0
H3945 H 0.98341 0.86115 0.38478 0.0
H3946 H 0.93221 0.86283 0.35187 0.0
H3947 H 0.97563 0.88648 0.37094 0.0
H3948 H 0.94155 0.93131 0.37016 0.0
H3949 H 0.95271 0.90496 0.37798 0.0
H3950 H 0.9391 0.88489 0.33084 0.0
H3951 H 0.92765 0.91164 0.32287 0.0
C3952 C 0.94815 0.84788 0.36654 0.0
C3953 C 0.96225 0.84734 0.37646 0.0
C3954 C 0.94364 0.86246 0.35863 0.0
C3955 C 0.95317 0.8767 0.36054 0.0
C3956 C 0.96789 0.87577 0.3695 0.0
C3957 C 0.97236 0.86125 0.37739 0.0
C3958 C 0.94093 0.92136 0.36135 0.0
C3959 C 0.93361 0.9236 0.34588 0.0
C3960 C 0.94751 0.90626 0.36581 0.0
C3961 C 0.94693 0.89288 0.35498 0.0
C3962 C 0.93971 0.89502 0.33943 0.0
C3963 C 0.93322 0.91031 0.33486 0.0
H3964 H 0.83067 0.69974 0.58279 0.0
H3965 H 0.83699 0.65735 0.61393 0.0
H3966 H 0.8573 0.71054 0.59223 0.0
H3967 H 0.86364 0.6678 0.62288 0.0
H3968 H 0.89017 0.72815 0.6399 0.0
H3969 H 0.86604 0.7189 0.62444 0.0
H3970 H 0.8927 0.67609 0.60833 0.0
H3971 H 0.91689 0.68543 0.62336 0.0
C3972 C 0.83796 0.69259 0.59132 0.0
C3973 C 0.83191 0.67777 0.59769 0.0
C3974 C 0.85305 0.69878 0.59675 0.0
C3975 C 0.86241 0.68995 0.60823 0.0
C3976 C 0.85667 0.67475 0.61394 0.0
C3977 C 0.84146 0.66882 0.60887 0.0
C3978 C 0.89095 0.71695 0.63278 0.0
C3979 C 0.90535 0.70748 0.63286 0.0
C3980 C 0.87722 0.71173 0.62389 0.0
C3981 C 0.87762 0.69683 0.61523 0.0
C3982 C 0.89217 0.68765 0.61489 0.0
C3983 C 0.90597 0.69301 0.62349 0.0
H3984 H 0.01933 0.36563 0.10974 0.0
H3985 H 0.05958 0.34166 0.13454 0.0
H3986 H 0.02667 0.3915 0.12293 0.0
H3987 H 0.06713 0.36758 0.14744 0.0
H3988 H 0.07019 0.41628 0.17571 0.0
H3989 H 0.05933 0.38971 0.16673 0.0
H3990 H 0.04978 0.40994 0.11867 0.0
H3991 H 0.06026 0.43624 0.12752 0.0
C3992 C 0.02963 0.36585 0.11814 0.0
C3993 C 0.03899 0.35168 0.12096 0.0
C3994 C 0.03389 0.38067 0.12563 0.0
C3995 C 0.04762 0.38162 0.13606 0.0
C3996 C 0.05644 0.36723 0.13956 0.0
C3997 C 0.05216 0.35241 0.13208 0.0
C3998 C 0.0657 0.41504 0.16326 0.0
C3999 C 0.06614 0.42843 0.15236 0.0
C4000 C 0.05952 0.39983 0.15812 0.0
C4001 C 0.05355 0.39778 0.14204 0.0
C4002 C 0.05395 0.41118 0.13123 0.0
C4003 C 0.06015 0.42627 0.13631 0.0
H4004 H 0.32933 0.80862 0.42268 0.0
H4005 H 0.33353 0.84662 0.38597 0.0
H4006 H 0.35608 0.79757 0.4142 0.0
H4007 H 0.36038 0.83589 0.37789 0.0
H4008 H 0.41397 0.81857 0.37726 0.0
H4009 H 0.39032 0.82991 0.39189 0.0
H4010 H 0.36353 0.78502 0.38345 0.0
H4011 H 0.38702 0.7738 0.36837 0.0
C4012 C 0.33618 0.81484 0.41313 0.0
C4013 C 0.32942 0.82841 0.40492 0.0
C4014 C 0.35138 0.80849 0.40825 0.0
C4015 C 0.36019 0.81592 0.39543 0.0
C4016 C 0.35384 0.83004 0.38788 0.0
C4017 C 0.3385 0.83612 0.39246 0.0
C4018 C 0.40317 0.81099 0.37884 0.0
C4019 C 0.40228 0.7953 0.3717 0.0
C4020 C 0.38966 0.8175 0.38714 0.0
C4021 C 0.37522 0.80829 0.3888 0.0
C4022 C 0.37463 0.79227 0.38246 0.0
C4023 C 0.38801 0.78589 0.37381 0.0
H4024 H 0.98012 0.13924 0.60401 0.0
H4025 H 0.94301 0.16551 0.63128 0.0
H4026 H 0.97241 0.11392 0.61794 0.0
H4027 H 0.93507 0.14004 0.64502 0.0
H4028 H 0.93215 0.09078 0.67367 0.0
H4029 H 0.94317 0.11711 0.66394 0.0
H4030 H 0.94798 0.09694 0.61516 0.0
H4031 H 0.93735 0.07099 0.62467 0.0
C4032 C 0.97043 0.13964 0.61311 0.0
C4033 C 0.96205 0.15432 0.61641 0.0
C4034 C 0.96597 0.12513 0.62105 0.0
C4035 C 0.95296 0.12493 0.63242 0.0
C4036 C 0.94518 0.1398 0.6364 0.0
C4037 C 0.94969 0.15437 0.62846 0.0
C4038 C 0.93565 0.09199 0.6609 0.0
C4039 C 0.93386 0.07871 0.65001 0.0
C4040 C 0.94191 0.10707 0.65533 0.0
C4041 C 0.94664 0.10905 0.63882 0.0
C4042 C 0.94482 0.09576 0.62802 0.0
C4043 C 0.93854 0.08085 0.63351 0.0
H4044 H 0.58289 0.68257 0.88207 0.0
H4045 H 0.61151 0.72608 0.87216 0.0
H4046 H 0.60585 0.67097 0.89753 0.0
H4047 H 0.63432 0.7146 0.88802 0.0
H4048 H 0.66798 0.69204 0.92736 0.0
H4049 H 0.64141 0.70333 0.91871 0.0
H4050 H 0.63534 0.66302 0.88488 0.0
H4051 H 0.66201 0.65203 0.89314 0.0
C4052 C 0.59392 0.68983 0.88355 0.0
C4053 C 0.59546 0.70522 0.8759 0.0
C4054 C 0.60704 0.68317 0.89236 0.0
C4055 C 0.62176 0.69194 0.89398 0.0
C4056 C 0.623 0.70769 0.88708 0.0
C4057 C 0.61001 0.71421 0.87797 0.0
C4058 C 0.66072 0.68539 0.91842 0.0
C4059 C 0.66695 0.67119 0.91089 0.0
C4060 C 0.64563 0.6919 0.91341 0.0
C4061 C 0.63642 0.68403 0.90114 0.0
C4062 C 0.64217 0.66923 0.89446 0.0
C4063 C 0.6574 0.66297 0.89915 0.0
H4064 H 0.37008 0.55953 0.56946 0.0
H4065 H 0.32318 0.57489 0.58896 0.0
H4066 H 0.37773 0.54874 0.59597 0.0
H4067 H 0.331 0.56376 0.61595 0.0
H4068 H 0.36672 0.56267 0.66327 0.0
H4069 H 0.35259 0.5705 0.63792 0.0
H4070 H 0.37006 0.52621 0.61463 0.0
H4071 H 0.3844 0.5186 0.63971 0.0
C4072 C 0.36132 0.56055 0.57941 0.0
C4073 C 0.34602 0.56817 0.57708 0.0
C4074 C 0.36568 0.55418 0.59462 0.0
C4075 C 0.35491 0.55524 0.60801 0.0
C4076 C 0.33952 0.56277 0.6058 0.0
C4077 C 0.33504 0.56906 0.59038 0.0
C4078 C 0.36721 0.55445 0.65283 0.0
C4079 C 0.37687 0.54016 0.65334 0.0
C4080 C 0.35907 0.5589 0.63836 0.0
C4081 C 0.36043 0.54908 0.62423 0.0
C4082 C 0.36904 0.53417 0.62523 0.0
C4083 C 0.37723 0.52979 0.6396 0.0
H4084 H 0.83698 0.41016 0.91192 0.0
H4085 H 0.85283 0.45521 0.93467 0.0
H4086 H 0.84913 0.419 0.8859 0.0
H4087 H 0.86404 0.46464 0.90863 0.0
H4088 H 0.86535 0.44282 0.83837 0.0
H4089 H 0.84954 0.43634 0.86294 0.0
H4090 H 0.887 0.45926 0.89278 0.0
H4091 H 0.90222 0.46644 0.86817 0.0
C4092 C 0.84262 0.42218 0.91115 0.0
C4093 C 0.84408 0.432 0.92519 0.0
C4094 C 0.84958 0.4273 0.89627 0.0
C4095 C 0.85787 0.44247 0.89515 0.0
C4096 C 0.85827 0.45268 0.90908 0.0
C4097 C 0.85167 0.4474 0.92396 0.0
C4098 C 0.87008 0.4466 0.8502 0.0
C4099 C 0.88501 0.45516 0.85136 0.0
C4100 C 0.86107 0.44278 0.86432 0.0
C4101 C 0.86691 0.44725 0.87995 0.0
C4102 C 0.88185 0.45592 0.881 0.0
C4103 C 0.8907 0.45995 0.86687 0.0
H4104 H 0.27749 0.6353 0.11257 0.0
H4105 H 0.32234 0.62371 0.0868 0.0
H4106 H 0.28726 0.61991 0.13645 0.0
H4107 H 0.33223 0.60865 0.11084 0.0
H4108 H 0.30628 0.58104 0.17244 0.0
H4109 H 0.29686 0.58941 0.14502 0.0
H4110 H 0.339 0.62118 0.14029 0.0
H4111 H 0.3481 0.61319 0.16774 0.0
C4112 C 0.28932 0.62928 0.11195 0.0
C4113 C 0.29917 0.63069 0.09788 0.0
C4114 C 0.29485 0.6204 0.12554 0.0
C4115 C 0.31045 0.61306 0.12539 0.0
C4116 C 0.32013 0.61415 0.11119 0.0
C4117 C 0.31446 0.62274 0.09747 0.0
C4118 C 0.31371 0.58945 0.1653 0.0
C4119 C 0.32787 0.59651 0.17208 0.0
C4120 C 0.30829 0.5943 0.14973 0.0
C4121 C 0.31721 0.60594 0.14064 0.0
C4122 C 0.33198 0.6121 0.14702 0.0
C4123 C 0.33716 0.60756 0.16269 0.0
H4124 H 0.17162 0.05501 0.41866 0.0
H4125 H 0.13263 0.09084 0.41671 0.0
H4126 H 0.16351 0.04479 0.39145 0.0
H4127 H 0.12492 0.08099 0.3894 0.0
H4128 H 0.11871 0.02031 0.35908 0.0
H4129 H 0.13293 0.03097 0.38339 0.0
H4130 H 0.1398 0.07748 0.35906 0.0
H4131 H 0.12609 0.06677 0.33461 0.0
C4132 C 0.16163 0.06098 0.41221 0.0
C4133 C 0.15272 0.07369 0.41971 0.0
C4134 C 0.15696 0.05508 0.39676 0.0
C4135 C 0.14363 0.06214 0.38845 0.0
C4136 C 0.13531 0.07544 0.39557 0.0
C4137 C 0.13969 0.08104 0.41116 0.0
C4138 C 0.12362 0.03266 0.35881 0.0
C4139 C 0.12135 0.04269 0.34498 0.0
C4140 C 0.13177 0.03872 0.37265 0.0
C4141 C 0.13743 0.055 0.37299 0.0
C4142 C 0.13559 0.06487 0.35901 0.0
C4143 C 0.1278 0.0587 0.34504 0.0
H4144 H 0.19285 0.38231 0.59145 0.0
H4145 H 0.22894 0.35345 0.61741 0.0
H4146 H 0.18475 0.39538 0.61717 0.0
H4147 H 0.22097 0.36666 0.64308 0.0
H4148 H 0.18491 0.37333 0.68552 0.0
H4149 H 0.19575 0.36407 0.65951 0.0
H4150 H 0.19335 0.41351 0.64061 0.0
H4151 H 0.18225 0.42301 0.66696 0.0
C4152 C 0.19924 0.37896 0.60261 0.0
C4153 C 0.21139 0.36669 0.60246 0.0
C4154 C 0.19465 0.38652 0.61732 0.0
C4155 C 0.20208 0.38192 0.63217 0.0
C4156 C 0.21483 0.37027 0.63186 0.0
C4157 C 0.21945 0.36275 0.61715 0.0
C4158 C 0.18667 0.38235 0.67592 0.0
C4159 C 0.1827 0.39898 0.67843 0.0
C4160 C 0.19305 0.377 0.661 0.0
C4161 C 0.19563 0.38808 0.64808 0.0
C4162 C 0.1915 0.4047 0.65039 0.0
C4163 C 0.18516 0.41012 0.66547 0.0
H4164 H 0.62515 0.43052 0.56863 0.0
H4165 H 0.67587 0.43334 0.58409 0.0
H4166 H 0.6165 0.44173 0.59474 0.0
H4167 H 0.66691 0.4446 0.61062 0.0
H4168 H 0.63454 0.4449 0.66116 0.0
H4169 H 0.64797 0.43499 0.6361 0.0
H4170 H 0.6209 0.47052 0.60765 0.0
H4171 H 0.6076 0.48047 0.6325 0.0
C4172 C 0.63451 0.43346 0.57759 0.0
C4173 C 0.65127 0.43117 0.57412 0.0
C4174 C 0.6295 0.43997 0.59255 0.0
C4175 C 0.64105 0.44427 0.60454 0.0
C4176 C 0.65779 0.44144 0.60149 0.0
C4177 C 0.66288 0.43503 0.58632 0.0
C4178 C 0.63174 0.45081 0.64959 0.0
C4179 C 0.61985 0.4633 0.64874 0.0
C4180 C 0.63945 0.44516 0.63529 0.0
C4181 C 0.63528 0.45187 0.61998 0.0
C4182 C 0.62415 0.46501 0.61931 0.0
C4183 C 0.61657 0.47071 0.63354 0.0
H4184 H 0.27124 0.87105 0.3897 0.0
H4185 H 0.31409 0.88467 0.41777 0.0
H4186 H 0.28086 0.88798 0.36686 0.0
H4187 H 0.3238 0.90138 0.39481 0.0
H4188 H 0.29919 0.9265 0.331 0.0
H4189 H 0.28886 0.91816 0.35813 0.0
H4190 H 0.33318 0.8903 0.36629 0.0
H4191 H 0.34321 0.89828 0.3392 0.0
C4192 C 0.28254 0.8779 0.39109 0.0
C4193 C 0.29196 0.87647 0.40545 0.0
C4194 C 0.28799 0.88768 0.37808 0.0
C4195 C 0.30306 0.89598 0.37911 0.0
C4196 C 0.31213 0.8951 0.39374 0.0
C4197 C 0.30656 0.88556 0.40686 0.0
C4198 C 0.30688 0.91904 0.33888 0.0
C4199 C 0.32197 0.91303 0.33317 0.0
C4200 C 0.30095 0.91418 0.35428 0.0
C4201 C 0.31023 0.90358 0.36424 0.0
C4202 C 0.32586 0.89861 0.35894 0.0
C4203 C 0.33158 0.90314 0.34346 0.0
H4204 H 0.69718 0.57683 0.83331 0.0
H4205 H 0.65602 0.60945 0.84019 0.0
H4206 H 0.70766 0.58442 0.86058 0.0
H4207 H 0.66617 0.61662 0.8675 0.0
H4208 H 0.68426 0.61813 0.9202 0.0
H4209 H 0.67391 0.60282 0.89652 0.0
H4210 H 0.7177 0.61509 0.86938 0.0
H4211 H 0.72791 0.63077 0.89289 0.0
C4212 C 0.69013 0.58518 0.84088 0.0
C4213 C 0.67585 0.5926 0.83475 0.0
C4214 C 0.69615 0.58957 0.85638 0.0
C4215 C 0.68768 0.60107 0.86606 0.0
C4216 C 0.67282 0.60761 0.86032 0.0
C4217 C 0.66706 0.60356 0.84472 0.0
C4218 C 0.69185 0.61724 0.90932 0.0
C4219 C 0.70686 0.62567 0.90832 0.0
C4220 C 0.6859 0.60852 0.8958 0.0
C4221 C 0.69505 0.60777 0.88122 0.0
C4222 C 0.71052 0.61534 0.88057 0.0
C4223 C 0.71631 0.62436 0.89397 0.0
H4224 H 0.6663 0.37333 0.56207 0.0
H4225 H 0.63995 0.38701 0.51813 0.0
H4226 H 0.6425 0.35776 0.57152 0.0
H4227 H 0.61623 0.37103 0.52752 0.0
H4228 H 0.58144 0.32964 0.54781 0.0
H4229 H 0.60807 0.33919 0.53713 0.0
H4230 H 0.61296 0.37165 0.57872 0.0
H4231 H 0.58626 0.36257 0.58901 0.0
C4232 C 0.65558 0.3727 0.55425 0.0
C4233 C 0.65492 0.38148 0.5394 0.0
C4234 C 0.64199 0.3638 0.55968 0.0
C4235 C 0.62763 0.36323 0.55022 0.0
C4236 C 0.62726 0.37119 0.53494 0.0
C4237 C 0.64077 0.38037 0.52962 0.0
C4238 C 0.58842 0.33857 0.55475 0.0
C4239 C 0.58195 0.3454 0.56919 0.0
C4240 C 0.60352 0.34407 0.54863 0.0
C4241 C 0.61248 0.35609 0.55716 0.0
C4242 C 0.60632 0.36228 0.57201 0.0
C4243 C 0.59109 0.35713 0.57786 0.0
H4244 H 0.39188 0.33738 0.8445 0.0
H4245 H 0.42399 0.33232 0.80267 0.0
H4246 H 0.38306 0.36428 0.83457 0.0
H4247 H 0.41476 0.35919 0.7924 0.0
H4248 H 0.36835 0.39182 0.77328 0.0
H4249 H 0.38391 0.3679 0.78282 0.0
H4250 H 0.39599 0.39354 0.82755 0.0
H4251 H 0.38079 0.41753 0.81797 0.0
C4252 C 0.39725 0.34222 0.83332 0.0
C4253 C 0.40863 0.33292 0.82435 0.0
C4254 C 0.39224 0.35757 0.82766 0.0
C4255 C 0.39822 0.36372 0.81272 0.0
C4256 C 0.40999 0.35465 0.80396 0.0
C4257 C 0.41534 0.33941 0.80986 0.0
C4258 C 0.3746 0.39244 0.785 0.0
C4259 C 0.37329 0.40649 0.79492 0.0
C4260 C 0.38355 0.37882 0.7904 0.0
C4261 C 0.39111 0.37895 0.8059 0.0
C4262 C 0.39027 0.39318 0.81555 0.0
C4263 C 0.38157 0.40688 0.81005 0.0
H4264 H 0.40915 0.16514 0.08338 0.0
H4265 H 0.43339 0.14741 0.03981 0.0
H4266 H 0.3833 0.15322 0.07385 0.0
H4267 H 0.40755 0.13643 0.02966 0.0
H4268 H 0.3664 0.09901 0.02732 0.0
H4269 H 0.39098 0.11405 0.03487 0.0
H4270 H 0.36102 0.15259 0.05579 0.0
H4271 H 0.33644 0.13694 0.049 0.0
C4272 C 0.40877 0.15913 0.07152 0.0
C4273 C 0.42317 0.15707 0.06234 0.0
C4274 C 0.39397 0.1523 0.066 0.0
C4275 C 0.3933 0.14356 0.05105 0.0
C4276 C 0.40762 0.14256 0.04145 0.0
C4277 C 0.42241 0.14902 0.04715 0.0
C4278 C 0.36507 0.11073 0.03344 0.0
C4279 C 0.34951 0.11676 0.03761 0.0
C4280 C 0.3792 0.11949 0.03768 0.0
C4281 C 0.37811 0.13466 0.04593 0.0
C4282 C 0.36243 0.14086 0.0497 0.0
C4283 C 0.34831 0.13195 0.0457 0.0
H4284 H 0.62341 0.18396 0.32028 0.0
H4285 H 0.57459 0.16356 0.32471 0.0
H4286 H 0.63346 0.15796 0.31014 0.0
H4287 H 0.58491 0.13719 0.31434 0.0
H4288 H 0.61901 0.08928 0.31398 0.0
H4289 H 0.60514 0.11442 0.32298 0.0
H4290 H 0.62971 0.14155 0.28465 0.0
H4291 H 0.64358 0.11663 0.27577 0.0
C4292 C 0.61475 0.17395 0.31909 0.0
C4293 C 0.59811 0.17596 0.32325 0.0
C4294 C 0.62055 0.15903 0.31315 0.0
C4295 C 0.60994 0.14561 0.31123 0.0
C4296 C 0.59335 0.14737 0.31568 0.0
C4297 C 0.58745 0.16246 0.32156 0.0
C4298 C 0.62125 0.10058 0.30735 0.0
C4299 C 0.63253 0.10104 0.29429 0.0
C4300 C 0.61326 0.11493 0.31246 0.0
C4301 C 0.6165 0.12996 0.30463 0.0
C4302 C 0.62718 0.13019 0.29109 0.0
C4303 C 0.63509 0.11591 0.28597 0.0
H4304 H 0.57785 0.67289 0.44663 0.0
H4305 H 0.58394 0.63942 0.40602 0.0
H4306 H 0.60562 0.66611 0.4563 0.0
H4307 H 0.6117 0.63302 0.41534 0.0
H4308 H 0.63889 0.62099 0.47691 0.0
H4309 H 0.61501 0.63617 0.46689 0.0
H4310 H 0.64065 0.64688 0.42179 0.0
H4311 H 0.66469 0.632 0.43191 0.0
C4312 C 0.58535 0.66452 0.43952 0.0
C4313 C 0.57888 0.65659 0.42567 0.0
C4314 C 0.60112 0.6606 0.44506 0.0
C4315 C 0.6107 0.64907 0.43653 0.0
C4316 C 0.6046 0.64206 0.42203 0.0
C4317 C 0.58874 0.64565 0.41675 0.0
C4318 C 0.63953 0.62689 0.46501 0.0
C4319 C 0.65355 0.62527 0.45514 0.0
C4320 C 0.62595 0.63566 0.45935 0.0
C4321 C 0.62609 0.64268 0.44361 0.0
C4322 C 0.64033 0.6416 0.43399 0.0
C4323 C 0.65404 0.6331 0.43979 0.0
H4324 H 0.14182 0.38584 0.73292 0.0
H4325 H 0.11954 0.41135 0.69214 0.0
H4326 H 0.12767 0.36073 0.72494 0.0
H4327 H 0.10557 0.38609 0.68397 0.0
H4328 H 0.07542 0.3379 0.68025 0.0
H4329 H 0.08501 0.36426 0.69124 0.0
H4330 H 0.13232 0.34267 0.7014 0.0
H4331 H 0.12291 0.31665 0.69075 0.0
C4332 C 0.13375 0.38613 0.72237 0.0
C4333 C 0.13196 0.4005 0.71304 0.0
C4334 C 0.12569 0.37174 0.71775 0.0
C4335 C 0.1157 0.37137 0.70367 0.0
C4336 C 0.11313 0.386 0.69491 0.0
C4337 C 0.1212 0.40043 0.69955 0.0
C4338 C 0.08783 0.3388 0.6849 0.0
C4339 C 0.09835 0.32511 0.68461 0.0
C4340 C 0.09333 0.35389 0.69115 0.0
C4341 C 0.10937 0.35548 0.69736 0.0
C4342 C 0.1198 0.34179 0.69704 0.0
C4343 C 0.11439 0.32685 0.69076 0.0
H4344 H 0.3401 0.86702 0.93775 0.0
H4345 H 0.36424 0.89315 0.97708 0.0
H4346 H 0.36618 0.85426 0.93021 0.0
H4347 H 0.39021 0.88027 0.96964 0.0
H4348 H 0.43397 0.87671 0.93459 0.0
H4349 H 0.40745 0.88497 0.94502 0.0
H4350 H 0.38945 0.83546 0.93922 0.0
H4351 H 0.41633 0.827 0.92852 0.0
C4352 C 0.35091 0.86981 0.94497 0.0
C4353 C 0.3502 0.88127 0.95785 0.0
C4354 C 0.36581 0.86242 0.9407 0.0
C4355 C 0.38024 0.86643 0.94921 0.0
C4356 C 0.37931 0.87716 0.9627 0.0
C4357 C 0.36444 0.8845 0.96698 0.0
C4358 C 0.42445 0.86748 0.93551 0.0
C4359 C 0.42733 0.85115 0.93068 0.0
C4360 C 0.40925 0.87223 0.94167 0.0
C4361 C 0.39644 0.86083 0.94313 0.0
C4362 C 0.39916 0.84449 0.93823 0.0
C4363 C 0.41452 0.83966 0.93215 0.0
H4364 H 0.89086 0.16506 0.15741 0.0
H4365 H 0.92412 0.16962 0.19838 0.0
H4366 H 0.88237 0.138 0.16723 0.0
H4367 H 0.91521 0.14262 0.20853 0.0
H4368 H 0.87998 0.0846 0.18433 0.0
H4369 H 0.89532 0.10832 0.17415 0.0
H4370 H 0.8842 0.13468 0.21872 0.0
H4371 H 0.86847 0.1111 0.22879 0.0
C4372 C 0.89658 0.16007 0.16834 0.0
C4373 C 0.90815 0.16931 0.17715 0.0
C4374 C 0.89176 0.14462 0.17393 0.0
C4375 C 0.89813 0.13832 0.18864 0.0
C4376 C 0.91016 0.14727 0.19714 0.0
C4377 C 0.91531 0.1626 0.1913 0.0
C4378 C 0.88107 0.09533 0.1921 0.0
C4379 C 0.87302 0.09605 0.20734 0.0
C4380 C 0.88981 0.10888 0.18625 0.0
C4381 C 0.89096 0.12323 0.1957 0.0
C4382 C 0.88363 0.12366 0.2113 0.0
C4383 C 0.87458 0.11023 0.21701 0.0
H4384 H 0.55857 0.15888 0.86644 0.0
H4385 H 0.51982 0.13404 0.89275 0.0
H4386 H 0.56642 0.13305 0.85351 0.0
H4387 H 0.52747 0.10825 0.87958 0.0
H4388 H 0.56175 0.06425 0.874 0.0
H4389 H 0.55113 0.0904 0.8831 0.0
H4390 H 0.55862 0.11055 0.83464 0.0
H4391 H 0.56962 0.08412 0.82539 0.0
C4392 C 0.55153 0.14795 0.86924 0.0
C4393 C 0.5387 0.14843 0.88077 0.0
C4394 C 0.55599 0.13317 0.86175 0.0
C4395 C 0.54769 0.11857 0.86566 0.0
C4396 C 0.53429 0.11925 0.87654 0.0
C4397 C 0.52985 0.13403 0.88403 0.0
C4398 C 0.56115 0.07417 0.86517 0.0
C4399 C 0.56659 0.07201 0.84891 0.0
C4400 C 0.55488 0.08918 0.8704 0.0
C4401 C 0.55384 0.10252 0.85957 0.0
C4402 C 0.5593 0.10049 0.8433 0.0
C4403 C 0.56557 0.08535 0.838 0.0
H4404 H 0.61439 0.26955 0.14565 0.0
H4405 H 0.58792 0.30666 0.1186 0.0
H4406 H 0.63967 0.27751 0.13178 0.0
H4407 H 0.61333 0.31483 0.1049 0.0
H4408 H 0.66253 0.31775 0.07603 0.0
H4409 H 0.63626 0.3067 0.08586 0.0
H4410 H 0.65651 0.30217 0.13462 0.0
H4411 H 0.68241 0.31287 0.12501 0.0
C4412 C 0.61393 0.27929 0.13661 0.0
C4413 C 0.59921 0.28759 0.13336 0.0
C4414 C 0.62843 0.2839 0.12871 0.0
C4415 C 0.62854 0.29696 0.11741 0.0
C4416 C 0.61364 0.30468 0.11348 0.0
C4417 C 0.5991 0.30004 0.12139 0.0
C4418 C 0.66135 0.31433 0.08882 0.0
C4419 C 0.67465 0.3162 0.09968 0.0
C4420 C 0.64631 0.30805 0.09445 0.0
C4421 C 0.64438 0.30338 0.11098 0.0
C4422 C 0.65767 0.3053 0.12175 0.0
C4423 C 0.67254 0.31161 0.11621 0.0
H4424 H 0.43328 0.32833 0.37011 0.0
H4425 H 0.47572 0.35566 0.38634 0.0
H4426 H 0.42449 0.35173 0.35361 0.0
H4427 H 0.46696 0.37903 0.36959 0.0
H4428 H 0.45088 0.41528 0.33024 0.0
H4429 H 0.46057 0.3881 0.33905 0.0
H4430 H 0.41475 0.38016 0.36447 0.0
H4431 H 0.40535 0.40736 0.35603 0.0
C4432 C 0.4409 0.33923 0.36992 0.0
C4433 C 0.45513 0.34024 0.37963 0.0
C4434 C 0.43585 0.35259 0.36047 0.0
C4435 C 0.44506 0.36714 0.36032 0.0
C4436 C 0.45975 0.36787 0.36935 0.0
C4437 C 0.46469 0.35456 0.37901 0.0
C4438 C 0.44271 0.40741 0.33718 0.0
C4439 C 0.42734 0.41319 0.34235 0.0
C4440 C 0.4483 0.392 0.34236 0.0
C4441 C 0.43842 0.38211 0.35247 0.0
C4442 C 0.42255 0.38747 0.35656 0.0
C4443 C 0.41714 0.40297 0.35171 0.0
H4444 H 0.33581 0.15958 0.58863 0.0
H4445 H 0.31393 0.20513 0.60432 0.0
H4446 H 0.36216 0.16824 0.60021 0.0
H4447 H 0.34027 0.21434 0.61492 0.0
H4448 H 0.38025 0.21589 0.65289 0.0
H4449 H 0.35572 0.20822 0.63804 0.0
H4450 H 0.3855 0.18563 0.60031 0.0
H4451 H 0.4102 0.19265 0.61585 0.0
C4452 C 0.33683 0.17165 0.59412 0.0
C4453 C 0.32296 0.18168 0.59576 0.0
C4454 C 0.3519 0.17665 0.60074 0.0
C4455 C 0.35331 0.19188 0.60883 0.0
C4456 C 0.33956 0.20232 0.60931 0.0
C4457 C 0.3245 0.19716 0.60308 0.0
C4458 C 0.3816 0.2093 0.64143 0.0
C4459 C 0.39714 0.20487 0.63554 0.0
C4460 C 0.3675 0.20502 0.63277 0.0
C4461 C 0.36856 0.19647 0.6178 0.0
C4462 C 0.38418 0.19209 0.61185 0.0
C4463 C 0.39833 0.19618 0.62069 0.0
H4464 H 0.51809 0.86178 0.11974 0.0
H4465 H 0.56382 0.83713 0.13035 0.0
H4466 H 0.52779 0.886 0.13481 0.0
H4467 H 0.57355 0.86143 0.14493 0.0
H4468 H 0.55035 0.9211 0.17533 0.0
H4469 H 0.54003 0.89407 0.16656 0.0
H4470 H 0.57798 0.89164 0.12969 0.0
H4471 H 0.58788 0.91873 0.13801 0.0
C4472 C 0.53006 0.86144 0.12551 0.0
C4473 C 0.54022 0.84762 0.12383 0.0
C4474 C 0.53555 0.87523 0.13417 0.0
C4475 C 0.55138 0.87547 0.14098 0.0
C4476 C 0.56129 0.86145 0.13981 0.0
C4477 C 0.55569 0.84758 0.13147 0.0
C4478 C 0.55662 0.91459 0.16558 0.0
C4479 C 0.56988 0.92187 0.15732 0.0
C4480 C 0.55068 0.89926 0.16052 0.0
C4481 C 0.55826 0.89089 0.1475 0.0
C4482 C 0.57202 0.89785 0.13983 0.0
C4483 C 0.57766 0.9133 0.14456 0.0
H4484 H 0.82949 0.3092 0.42223 0.0
H4485 H 0.83203 0.34825 0.3865 0.0
H4486 H 0.85645 0.29917 0.41305 0.0
H4487 H 0.85902 0.33855 0.37771 0.0
H4488 H 0.91324 0.32357 0.37638 0.0
H4489 H 0.88896 0.33375 0.39081 0.0
H4490 H 0.86463 0.28742 0.38266 0.0
H4491 H 0.88879 0.2773 0.36787 0.0
C4492 C 0.836 0.31582 0.41271 0.0
C4493 C 0.82876 0.32941 0.40499 0.0
C4494 C 0.8513 0.31006 0.40743 0.0
C4495 C 0.85971 0.31812 0.39471 0.0
C4496 C 0.8528 0.33221 0.38761 0.0
C4497 C 0.83738 0.3377 0.39258 0.0
C4498 C 0.9028 0.31548 0.37786 0.0
C4499 C 0.90282 0.29968 0.37095 0.0
C4500 C 0.88895 0.32131 0.38609 0.0
C4501 C 0.87503 0.31132 0.38785 0.0
C4502 C 0.87531 0.29527 0.38159 0.0
C4503 C 0.88905 0.28954 0.37306 0.0
H4504 H 0.47744 0.63855 0.61753 0.0
H4505 H 0.43277 0.66444 0.62955 0.0
H4506 H 0.46686 0.61402 0.63147 0.0
H4507 H 0.42207 0.63976 0.64294 0.0
H4508 H 0.4075 0.58175 0.6337 0.0
H4509 H 0.41787 0.60877 0.62555 0.0
H4510 H 0.4536 0.60693 0.66456 0.0
H4511 H 0.44285 0.58007 0.67315 0.0
C4512 C 0.46551 0.63905 0.62337 0.0
C4513 C 0.45595 0.65337 0.62255 0.0
C4514 C 0.4595 0.62509 0.63135 0.0
C4515 C 0.44372 0.62515 0.63825 0.0
C4516 C 0.43432 0.63955 0.63777 0.0
C4517 C 0.44047 0.65362 0.63016 0.0
C4518 C 0.41737 0.58726 0.6407 0.0
C4519 C 0.42439 0.5789 0.65404 0.0
C4520 C 0.42325 0.60267 0.63608 0.0
C4521 C 0.4365 0.60977 0.64445 0.0
C4522 C 0.44334 0.60162 0.65799 0.0
C4523 C 0.43716 0.58636 0.66291 0.0
H4524 H 0.0806 0.18211 0.87858 0.0
H4525 H 0.10658 0.22599 0.86404 0.0
H4526 H 0.10487 0.17262 0.89339 0.0
H4527 H 0.13079 0.21658 0.87923 0.0
H4528 H 0.16673 0.19795 0.91954 0.0
H4529 H 0.13982 0.20806 0.91033 0.0
H4530 H 0.13391 0.16479 0.88034 0.0
H4531 H 0.16086 0.15497 0.88914 0.0
C4532 C 0.09138 0.18989 0.87882 0.0
C4533 C 0.09174 0.20478 0.87012 0.0
C4534 C 0.10525 0.18443 0.88728 0.0
C4535 C 0.11962 0.19391 0.88748 0.0
C4536 C 0.11977 0.20914 0.8794 0.0
C4537 C 0.10598 0.21447 0.87065 0.0
C4538 C 0.15946 0.19047 0.9113 0.0
C4539 C 0.16575 0.1757 0.90504 0.0
C4540 C 0.14419 0.1963 0.90594 0.0
C4541 C 0.13488 0.18719 0.89463 0.0
C4542 C 0.14081 0.17197 0.88915 0.0
C4543 C 0.15619 0.16637 0.89416 0.0
H4544 H 0.887 0.02592 0.63697 0.0
H4545 H 0.87355 0.07072 0.66195 0.0
H4546 H 0.87183 0.03508 0.61261 0.0
H4547 H 0.85879 0.07992 0.63757 0.0
H4548 H 0.86349 0.0963 0.58131 0.0
H4549 H 0.87274 0.08633 0.60805 0.0
H4550 H 0.84021 0.04474 0.60393 0.0
H4551 H 0.83051 0.05505 0.57721 0.0
C4552 C 0.88064 0.03758 0.63732 0.0
C4553 C 0.88151 0.04763 0.65131 0.0
C4554 C 0.87191 0.04276 0.62346 0.0
C4555 C 0.86419 0.05817 0.62331 0.0
C4556 C 0.86465 0.06798 0.63744 0.0
C4557 C 0.87309 0.06269 0.65137 0.0
C4558 C 0.85809 0.0852 0.58628 0.0
C4559 C 0.84629 0.07643 0.57733 0.0
C4560 C 0.86335 0.07953 0.60154 0.0
C4561 C 0.85719 0.06478 0.60794 0.0
C4562 C 0.84511 0.05614 0.59917 0.0
C4563 C 0.83951 0.06207 0.58403 0.0
H4564 H 0.32514 0.92926 0.91138 0.0
H4565 H 0.37404 0.93555 0.93105 0.0
H4566 H 0.33474 0.93967 0.88479 0.0
H4567 H 0.38344 0.94561 0.90479 0.0
H4568 H 0.39337 0.97769 0.86181 0.0
H4569 H 0.38001 0.96983 0.88739 0.0
H4570 H 0.35383 0.93135 0.86202 0.0
H4571 H 0.36704 0.9394 0.8363 0.0
C4572 C 0.33787 0.93284 0.91008 0.0
C4573 C 0.34876 0.93161 0.92343 0.0
C4574 C 0.34337 0.93875 0.89485 0.0
C4575 C 0.3598 0.94366 0.89276 0.0
C4576 C 0.37062 0.9423 0.90608 0.0
C4577 C 0.36521 0.93637 0.92116 0.0
C4578 C 0.3846 0.9677 0.86163 0.0
C4579 C 0.38139 0.95906 0.84708 0.0
C4580 C 0.377 0.96314 0.8763 0.0
C4581 C 0.36603 0.94982 0.87676 0.0
C4582 C 0.36216 0.94171 0.86204 0.0
C4583 C 0.36978 0.94628 0.84733 0.0
H4584 H 0.80532 0.07863 0.17031 0.0
H4585 H 0.84621 0.11204 0.16616 0.0
H4586 H 0.79522 0.08775 0.14335 0.0
H4587 H 0.83646 0.12073 0.13913 0.0
H4588 H 0.81999 0.12175 0.08519 0.0
H4589 H 0.82981 0.1069 0.10935 0.0
H4590 H 0.7853 0.11931 0.1352 0.0
H4591 H 0.77558 0.1346 0.11116 0.0
C4592 C 0.81236 0.08755 0.16341 0.0
C4593 C 0.8265 0.09467 0.1702 0.0
C4594 C 0.80655 0.09282 0.14811 0.0
C4595 C 0.8151 0.10491 0.13926 0.0
C4596 C 0.82974 0.11131 0.14569 0.0
C4597 C 0.83528 0.10638 0.16112 0.0
C4598 C 0.81216 0.12108 0.09592 0.0
C4599 C 0.79703 0.12934 0.09634 0.0
C4600 C 0.81781 0.11261 0.10971 0.0
C4601 C 0.80825 0.11194 0.12402 0.0
C4602 C 0.79278 0.11953 0.1242 0.0
C4603 C 0.78728 0.12832 0.11052 0.0
H4604 H 0.62254 0.52175 0.36193 0.0
H4605 H 0.63084 0.5669 0.3354 0.0
H4606 H 0.63755 0.53287 0.38547 0.0
H4607 H 0.6455 0.5781 0.35908 0.0
H4608 H 0.67512 0.5565 0.42097 0.0
H4609 H 0.66736 0.54536 0.39399 0.0
H4610 H 0.63175 0.58416 0.38832 0.0
H4611 H 0.63913 0.59496 0.4153 0.0
C4612 C 0.62784 0.53391 0.36103 0.0
C4613 C 0.62551 0.54348 0.34689 0.0
C4614 C 0.63649 0.54022 0.37444 0.0
C4615 C 0.64265 0.55631 0.374 0.0
C4616 C 0.64088 0.56564 0.35964 0.0
C4617 C 0.63253 0.55921 0.34612 0.0
C4618 C 0.66589 0.56279 0.41375 0.0
C4619 C 0.65765 0.57651 0.42013 0.0
C4620 C 0.66142 0.5564 0.39843 0.0
C4621 C 0.649 0.56396 0.38916 0.0
C4622 C 0.64146 0.57822 0.39519 0.0
C4623 C 0.64562 0.58434 0.41061 0.0
H4624 H 0.6991 0.92357 0.66965 0.0
H4625 H 0.65997 0.8879 0.66837 0.0
H4626 H 0.70899 0.91359 0.6429 0.0
H4627 H 0.66946 0.87837 0.64149 0.0
H4628 H 0.6855 0.87561 0.58703 0.0
H4629 H 0.67528 0.8915 0.61043 0.0
H4630 H 0.71995 0.88129 0.63692 0.0
H4631 H 0.73 0.86493 0.61374 0.0
C4632 C 0.69237 0.91396 0.6634 0.0
C4633 C 0.67882 0.90645 0.67096 0.0
C4634 C 0.69804 0.90822 0.64822 0.0
C4635 C 0.68994 0.89527 0.64024 0.0
C4636 C 0.67582 0.88846 0.64738 0.0
C4637 C 0.67043 0.89387 0.66271 0.0
C4638 C 0.69326 0.87702 0.59773 0.0
C4639 C 0.70854 0.86907 0.59863 0.0
C4640 C 0.6874 0.88607 0.61108 0.0
C4641 C 0.69691 0.88766 0.62534 0.0
C4642 C 0.71251 0.88037 0.62594 0.0
C4643 C 0.7182 0.87098 0.61276 0.0
H4644 H 0.10701 0.97963 0.63393 0.0
H4645 H 0.13313 0.94152 0.65993 0.0
H4646 H 0.12069 0.97167 0.60854 0.0
H4647 H 0.14663 0.93337 0.63441 0.0
H4648 H 0.1749 0.92937 0.58538 0.0
H4649 H 0.16573 0.94124 0.61151 0.0
H4650 H 0.11698 0.94714 0.59159 0.0
H4651 H 0.12598 0.93564 0.56577 0.0
C4652 C 0.11582 0.96968 0.63426 0.0
C4653 C 0.11884 0.96106 0.64886 0.0
C4654 C 0.12361 0.96508 0.61971 0.0
C4655 C 0.13456 0.95175 0.61944 0.0
C4656 C 0.13832 0.94375 0.63424 0.0
C4657 C 0.13053 0.94837 0.64884 0.0
C4658 C 0.16227 0.93333 0.58658 0.0
C4659 C 0.15119 0.93151 0.57346 0.0
C4660 C 0.15702 0.94006 0.60154 0.0
C4661 C 0.14067 0.94525 0.60355 0.0
C4662 C 0.12972 0.94356 0.59036 0.0
C4663 C 0.13489 0.93679 0.57556 0.0
H4664 H 0.81944 0.37972 0.41442 0.0
H4665 H 0.77254 0.37448 0.39031 0.0
H4666 H 0.83074 0.39246 0.38968 0.0
H4667 H 0.78379 0.38773 0.36572 0.0
H4668 H 0.8436 0.38458 0.33209 0.0
H4669 H 0.83328 0.37718 0.35933 0.0
H4670 H 0.79906 0.41755 0.35743 0.0
H4671 H 0.80974 0.42531 0.33031 0.0
C4672 C 0.81143 0.38172 0.404 0.0
C4673 C 0.7951 0.37617 0.40425 0.0
C4674 C 0.81793 0.38892 0.38987 0.0
C4675 C 0.80808 0.39108 0.37591 0.0
C4676 C 0.79153 0.38631 0.37643 0.0
C4677 C 0.78514 0.37873 0.39043 0.0
C4678 C 0.83407 0.39203 0.33763 0.0
C4679 C 0.82745 0.4055 0.32915 0.0
C4680 C 0.82823 0.38784 0.35318 0.0
C4681 C 0.8154 0.39681 0.36036 0.0
C4682 C 0.80898 0.41049 0.35208 0.0
C4683 C 0.81513 0.41495 0.33667 0.0
H4684 H 0.15354 0.11308 0.83498 0.0
H4685 H 0.1923 0.07713 0.83166 0.0
H4686 H 0.16323 0.12111 0.86222 0.0
H4687 H 0.20233 0.08555 0.85884 0.0
H4688 H 0.17947 0.12377 0.91569 0.0
H4689 H 0.1688 0.10824 0.89229 0.0
H4690 H 0.21432 0.11595 0.86634 0.0
H4691 H 0.22487 0.13187 0.88955 0.0
C4692 C 0.16394 0.1067 0.84026 0.0
C4693 C 0.17221 0.09452 0.8313 0.0
C4694 C 0.16943 0.11123 0.85583 0.0
C4695 C 0.18351 0.10394 0.86254 0.0
C4696 C 0.19142 0.0913 0.85388 0.0
C4697 C 0.18566 0.08645 0.83843 0.0
C4698 C 0.18733 0.12183 0.90514 0.0
C4699 C 0.20298 0.12903 0.90437 0.0
C4700 C 0.1812 0.11299 0.89178 0.0
C4701 C 0.19078 0.11089 0.87762 0.0
C4702 C 0.20679 0.11726 0.87723 0.0
C4703 C 0.21278 0.12641 0.89044 0.0
H4704 H 0.58245 0.82836 0.06945 0.0
H4705 H 0.56555 0.87841 0.07494 0.0
H4706 H 0.60838 0.83861 0.05807 0.0
H4707 H 0.59116 0.88839 0.06378 0.0
H4708 H 0.63039 0.90155 0.02777 0.0
H4709 H 0.60511 0.88833 0.03679 0.0
H4710 H 0.63313 0.85515 0.06717 0.0
H4711 H 0.6585 0.86829 0.05801 0.0
C4712 C 0.58424 0.84148 0.0683 0.0
C4713 C 0.57183 0.85252 0.07303 0.0
C4714 C 0.59908 0.84733 0.0618 0.0
C4715 C 0.60167 0.86429 0.05982 0.0
C4716 C 0.58938 0.87525 0.0648 0.0
C4717 C 0.5747 0.86947 0.07134 0.0
C4718 C 0.63118 0.89133 0.03622 0.0
C4719 C 0.6464 0.88608 0.04232 0.0
C4720 C 0.61671 0.88379 0.04144 0.0
C4721 C 0.61715 0.87083 0.05283 0.0
C4722 C 0.63242 0.86506 0.05833 0.0
C4723 C 0.64692 0.87265 0.05314 0.0
H4724 H 0.3645 0.89004 0.27499 0.0
H4725 H 0.37565 0.917 0.31926 0.0
H4726 H 0.38036 0.86668 0.28527 0.0
H4727 H 0.39113 0.89344 0.32969 0.0
H4728 H 0.42046 0.83236 0.30528 0.0
H4729 H 0.41157 0.85946 0.29544 0.0
H4730 H 0.3784 0.86346 0.33657 0.0
H4731 H 0.38689 0.83629 0.34609 0.0
C4732 C 0.37052 0.89102 0.28681 0.0
C4733 C 0.36888 0.90526 0.29635 0.0
C4734 C 0.37966 0.87774 0.29261 0.0
C4735 C 0.38699 0.87838 0.3082 0.0
C4736 C 0.38565 0.89276 0.31759 0.0
C4737 C 0.37683 0.90619 0.31162 0.0
C4738 C 0.41159 0.83926 0.31239 0.0
C4739 C 0.40428 0.83234 0.32636 0.0
C4740 C 0.40647 0.85465 0.30674 0.0
C4741 C 0.39433 0.86343 0.31527 0.0
C4742 C 0.38787 0.85695 0.32987 0.0
C4743 C 0.39267 0.84144 0.33527 0.0
H4744 H 0.33363 0.62817 0.56856 0.0
H4745 H 0.36154 0.61752 0.52474 0.0
H4746 H 0.3567 0.64397 0.57943 0.0
H4747 H 0.38449 0.63369 0.53553 0.0
H4748 H 0.41805 0.67409 0.55668 0.0
H4749 H 0.39149 0.66469 0.54589 0.0
H4750 H 0.38633 0.632 0.58727 0.0
H4751 H 0.41298 0.64101 0.59772 0.0
C4752 C 0.34456 0.62948 0.56111 0.0
C4753 C 0.34585 0.62155 0.54583 0.0
C4754 C 0.35773 0.63851 0.56735 0.0
C4755 C 0.37227 0.64006 0.55827 0.0
C4756 C 0.3733 0.6328 0.54266 0.0
C4757 C 0.36024 0.62349 0.53655 0.0
C4758 C 0.41097 0.66526 0.56366 0.0
C4759 C 0.41741 0.65828 0.57802 0.0
C4760 C 0.39591 0.6598 0.55744 0.0
C4761 C 0.38696 0.64763 0.56576 0.0
C4762 C 0.39295 0.64149 0.5807 0.0
C4763 C 0.40815 0.64662 0.58668 0.0
H4764 H 0.61136 0.664 0.84878 0.0
H4765 H 0.57763 0.66936 0.80828 0.0
H4766 H 0.61957 0.63706 0.83844 0.0
H4767 H 0.58623 0.64247 0.79764 0.0
H4768 H 0.62289 0.58433 0.8199 0.0
H4769 H 0.60715 0.60744 0.83095 0.0
H4770 H 0.61684 0.63512 0.78684 0.0
H4771 H 0.63294 0.61221 0.77595 0.0
C4772 C 0.60548 0.65922 0.83784 0.0
C4773 C 0.59391 0.66868 0.82928 0.0
C4774 C 0.61012 0.64382 0.83197 0.0
C4775 C 0.60354 0.63778 0.81724 0.0
C4776 C 0.59143 0.64692 0.80904 0.0
C4777 C 0.58648 0.66219 0.81515 0.0
C4778 C 0.62137 0.59523 0.81243 0.0
C4779 C 0.62914 0.59655 0.79709 0.0
C4780 C 0.61241 0.60841 0.81877 0.0
C4781 C 0.61076 0.62296 0.80969 0.0
C4782 C 0.61778 0.62394 0.79397 0.0
C4783 C 0.62705 0.6109 0.7878 0.0
H4784 H 0.56537 0.1244 0.93569 0.0
H4785 H 0.58552 0.17283 0.92749 0.0
H4786 H 0.59178 0.11493 0.94532 0.0
H4787 H 0.61221 0.1632 0.93747 0.0
H4788 H 0.66035 0.13116 0.93659 0.0
H4789 H 0.63436 0.14396 0.92893 0.0
H4790 H 0.61018 0.11844 0.96863 0.0
H4791 H 0.63607 0.10544 0.9761 0.0
C4792 C 0.57541 0.13311 0.936 0.0
C4793 C 0.57325 0.14943 0.9308 0.0
C4794 C 0.59057 0.12766 0.94169 0.0
C4795 C 0.60406 0.13834 0.94234 0.0
C4796 C 0.60203 0.15467 0.93707 0.0
C4797 C 0.58674 0.16019 0.93141 0.0
C4798 C 0.64951 0.12843 0.94379 0.0
C4799 C 0.65019 0.11715 0.95684 0.0
C4800 C 0.63465 0.13584 0.93945 0.0
C4801 C 0.62019 0.1321 0.94807 0.0
C4802 C 0.62106 0.12136 0.96157 0.0
C4803 C 0.6359 0.11396 0.96589 0.0
H4804 H 0.13055 0.89162 0.23189 0.0
H4805 H 0.11916 0.91707 0.18678 0.0
H4806 H 0.11565 0.86745 0.22189 0.0
H4807 H 0.10468 0.89283 0.17674 0.0
H4808 H 0.11219 0.8362 0.16079 0.0
H4809 H 0.11937 0.8636 0.1707 0.0
H4810 H 0.08495 0.85828 0.21062 0.0
H4811 H 0.07733 0.83093 0.20032 0.0
C4812 C 0.12462 0.89215 0.22 0.0
C4813 C 0.12609 0.90617 0.21009 0.0
C4814 C 0.11605 0.87839 0.21433 0.0
C4815 C 0.10907 0.87837 0.19857 0.0
C4816 C 0.10996 0.89261 0.18895 0.0
C4817 C 0.11824 0.90644 0.19472 0.0
C4818 C 0.10582 0.84111 0.17139 0.0
C4819 C 0.09416 0.83159 0.17976 0.0
C4820 C 0.10992 0.85673 0.17705 0.0
C4821 C 0.10272 0.86295 0.19143 0.0
C4822 C 0.09062 0.85369 0.1995 0.0
C4823 C 0.08619 0.83818 0.19356 0.0
H4824 H 0.36405 0.38733 0.48243 0.0
H4825 H 0.33619 0.36492 0.44328 0.0
H4826 H 0.38859 0.37301 0.47317 0.0
H4827 H 0.36094 0.35063 0.4339 0.0
H4828 H 0.41018 0.3202 0.42992 0.0
H4829 H 0.38398 0.32976 0.44147 0.0
H4830 H 0.4044 0.3783 0.4473 0.0
H4831 H 0.43018 0.36902 0.43598 0.0
C4832 C 0.36311 0.37914 0.472 0.0
C4833 C 0.34825 0.37742 0.46346 0.0
C4834 C 0.37717 0.37098 0.46667 0.0
C4835 C 0.37671 0.3609 0.45267 0.0
C4836 C 0.36162 0.35828 0.44475 0.0
C4837 C 0.34749 0.3665 0.4501 0.0
C4838 C 0.40903 0.33289 0.43369 0.0
C4839 C 0.42235 0.34379 0.43205 0.0
C4840 C 0.39405 0.33835 0.44025 0.0
C4841 C 0.39226 0.35471 0.4455 0.0
C4842 C 0.40551 0.36554 0.44369 0.0
C4843 C 0.42029 0.3602 0.43704 0.0
H4844 H 0.87943 0.5853 0.68749 0.0
H4845 H 0.87229 0.61106 0.73327 0.0
H4846 H 0.89424 0.609 0.67646 0.0
H4847 H 0.88758 0.63457 0.72235 0.0
H4848 H 0.8886 0.66667 0.66201 0.0
H4849 H 0.88037 0.63959 0.67207 0.0
H4850 H 0.91835 0.64165 0.70891 0.0
H4851 H 0.92698 0.66863 0.69846 0.0
C4852 C 0.88145 0.59583 0.69535 0.0
C4853 C 0.87475 0.59639 0.71124 0.0
C4854 C 0.88986 0.60937 0.68902 0.0
C4855 C 0.89207 0.62349 0.69861 0.0
C4856 C 0.88617 0.62371 0.71481 0.0
C4857 C 0.87741 0.61032 0.72101 0.0
C4858 C 0.89541 0.66115 0.67201 0.0
C4859 C 0.9084 0.66965 0.67949 0.0
C4860 C 0.89075 0.64569 0.67771 0.0
C4861 C 0.89874 0.63864 0.69124 0.0
C4862 C 0.91206 0.64689 0.69843 0.0
C4863 C 0.91702 0.66222 0.69242 0.0
H4864 H 0.56394 0.66186 0.37329 0.0
H4865 H 0.52117 0.63295 0.38534 0.0
H4866 H 0.57565 0.63841 0.35861 0.0
H4867 H 0.53274 0.60964 0.37022 0.0
H4868 H 0.59555 0.58268 0.36397 0.0
H4869 H 0.584 0.60906 0.37247 0.0
H4870 H 0.54365 0.6023 0.33884 0.0
H4871 H 0.55552 0.57602 0.32991 0.0
C4872 C 0.55687 0.65063 0.37246 0.0
C4873 C 0.54165 0.64917 0.38044 0.0
C4874 C 0.56359 0.63725 0.3641 0.0
C4875 C 0.55502 0.62234 0.36325 0.0
C4876 C 0.53947 0.62111 0.37057 0.0
C4877 C 0.53291 0.63437 0.37926 0.0
C4878 C 0.58441 0.58703 0.35814 0.0
C4879 C 0.57639 0.57741 0.34631 0.0
C4880 C 0.57785 0.60209 0.36296 0.0
C4881 C 0.56295 0.6076 0.35631 0.0
C4882 C 0.55517 0.59825 0.3441 0.0
C4883 C 0.56198 0.58333 0.33895 0.0
H4884 H 0.66492 0.84479 0.61056 0.0
H4885 H 0.66993 0.80215 0.57955 0.0
H4886 H 0.63778 0.83542 0.61921 0.0
H4887 H 0.64281 0.79248 0.58857 0.0
H4888 H 0.61211 0.77356 0.6358 0.0
H4889 H 0.63507 0.78334 0.61907 0.0
H4890 H 0.60833 0.82775 0.60821 0.0
H4891 H 0.58523 0.81787 0.62466 0.0
C4892 C 0.65997 0.83362 0.60529 0.0
C4893 C 0.66939 0.82418 0.5944 0.0
C4894 C 0.64447 0.82828 0.6102 0.0
C4895 C 0.63828 0.81321 0.6046 0.0
C4896 C 0.64736 0.80414 0.59305 0.0
C4897 C 0.66276 0.80971 0.58781 0.0
C4898 C 0.61102 0.78526 0.62957 0.0
C4899 C 0.59694 0.79498 0.63155 0.0
C4900 C 0.62409 0.79079 0.61992 0.0
C4901 C 0.6234 0.80626 0.61234 0.0
C4902 C 0.60911 0.81576 0.6139 0.0
C4903 C 0.59592 0.81009 0.62329 0.0
H4904 H 0.44767 0.92018 0.82515 0.0
H4905 H 0.41072 0.91906 0.86309 0.0
H4906 H 0.45866 0.89386 0.83517 0.0
H4907 H 0.42126 0.8926 0.87265 0.0
H4908 H 0.4366 0.83771 0.87264 0.0
H4909 H 0.42629 0.86151 0.85761 0.0
H4910 H 0.47105 0.88771 0.86814 0.0
H4911 H 0.48131 0.864 0.88367 0.0
C4912 C 0.44167 0.91407 0.83532 0.0
C4913 C 0.42836 0.9215 0.84336 0.0
C4914 C 0.44799 0.89915 0.84109 0.0
C4915 C 0.44075 0.89133 0.85463 0.0
C4916 C 0.42697 0.89842 0.86214 0.0
C4917 C 0.42096 0.91349 0.85668 0.0
C4918 C 0.44438 0.84843 0.87154 0.0
C4919 C 0.45974 0.84905 0.87938 0.0
C4920 C 0.43846 0.86201 0.86296 0.0
C4921 C 0.44794 0.87631 0.86172 0.0
C4922 C 0.46363 0.8767 0.86883 0.0
C4923 C 0.46944 0.86321 0.87774 0.0
H4924 H 0.33975 0.65826 0.10812 0.0
H4925 H 0.3333 0.70008 0.07628 0.0
H4926 H 0.36683 0.66836 0.11605 0.0
H4927 H 0.3604 0.71051 0.08459 0.0
H4928 H 0.39224 0.73033 0.13104 0.0
H4929 H 0.36905 0.72034 0.11479 0.0
H4930 H 0.39582 0.676 0.10372 0.0
H4931 H 0.41914 0.68608 0.1197 0.0
C4932 C 0.34434 0.66945 0.10257 0.0
C4933 C 0.33457 0.67842 0.09161 0.0
C4934 C 0.35982 0.67519 0.10705 0.0
C4935 C 0.36565 0.6902 0.10093 0.0
C4936 C 0.35614 0.69888 0.08944 0.0
C4937 C 0.34075 0.6929 0.08463 0.0
C4938 C 0.3933 0.71862 0.12482 0.0
C4939 C 0.40743 0.70894 0.12669 0.0
C4940 C 0.38009 0.71297 0.11545 0.0
C4941 C 0.3807 0.69742 0.10803 0.0
C4942 C 0.3951 0.68804 0.10932 0.0
C4943 C 0.40842 0.69382 0.11844 0.0
H4944 H 0.57222 0.33899 0.62443 0.0
H4945 H 0.52603 0.3628 0.61398 0.0
H4946 H 0.58152 0.36347 0.63909 0.0
H4947 H 0.53526 0.38716 0.62907 0.0
H4948 H 0.55503 0.42255 0.66959 0.0
H4949 H 0.54595 0.39528 0.66027 0.0
H4950 H 0.58617 0.39373 0.62583 0.0
H4951 H 0.59487 0.42105 0.63471 0.0
C4952 C 0.56394 0.34933 0.62555 0.0
C4953 C 0.54841 0.34904 0.61805 0.0
C4954 C 0.56928 0.3633 0.63391 0.0
C4955 C 0.55905 0.37708 0.63525 0.0
C4956 C 0.54327 0.37658 0.62834 0.0
C4957 C 0.53805 0.36272 0.61965 0.0
C4958 C 0.56209 0.41616 0.6603 0.0
C4959 C 0.57562 0.42377 0.65285 0.0
C4960 C 0.55685 0.40069 0.65492 0.0
C4961 C 0.56538 0.39251 0.64235 0.0
C4962 C 0.57947 0.39977 0.6356 0.0
C4963 C 0.58442 0.41535 0.64066 0.0
H4964 H 0.83103 0.7995 0.92104 0.0
H4965 H 0.84021 0.84292 0.89214 0.0
H4966 H 0.85819 0.78873 0.91336 0.0
H4967 H 0.86737 0.83247 0.88491 0.0
H4968 H 0.91952 0.81389 0.88422 0.0
H4969 H 0.89529 0.82328 0.89911 0.0
H4970 H 0.86854 0.78066 0.88262 0.0
H4971 H 0.89275 0.77131 0.86739 0.0
C4972 C 0.8391 0.80694 0.91352 0.0
C4973 C 0.83369 0.82203 0.9072 0.0
C4974 C 0.8545 0.80074 0.90904 0.0
C4975 C 0.86479 0.8098 0.89856 0.0
C4976 C 0.85972 0.82533 0.89312 0.0
C4977 C 0.84422 0.8313 0.89723 0.0
C4978 C 0.90858 0.80634 0.88398 0.0
C4979 C 0.90796 0.79193 0.8745 0.0
C4980 C 0.89475 0.81174 0.89252 0.0
C4981 C 0.88012 0.80268 0.89198 0.0
C4982 C 0.87976 0.78776 0.88334 0.0
C4983 C 0.89355 0.78247 0.87456 0.0
H4984 H 0.43533 0.06846 0.12468 0.0
H4985 H 0.42796 0.08961 0.17284 0.0
H4986 H 0.44541 0.09449 0.11467 0.0
H4987 H 0.43842 0.11591 0.16267 0.0
H4988 H 0.4374 0.16335 0.12957 0.0
H4989 H 0.42989 0.13774 0.14319 0.0
H4990 H 0.46891 0.11271 0.11745 0.0
H4991 H 0.4762 0.13822 0.1036 0.0
C4992 C 0.43593 0.07863 0.13322 0.0
C4993 C 0.43079 0.07687 0.14962 0.0
C4994 C 0.44188 0.09357 0.12746 0.0
C4995 C 0.44288 0.10723 0.1379 0.0
C4996 C 0.43775 0.10559 0.15432 0.0
C4997 C 0.43181 0.09052 0.16015 0.0
C4998 C 0.4445 0.15241 0.12697 0.0
C4999 C 0.45727 0.15272 0.11537 0.0
C5000 C 0.44025 0.13777 0.13485 0.0
C5001 C 0.44869 0.12317 0.13127 0.0
C5002 C 0.46198 0.1237 0.12025 0.0
C5003 C 0.46621 0.13832 0.11236 0.0
H5004 H 0.16455 0.65633 0.38911 0.0
H5005 H 0.16892 0.69652 0.42336 0.0
H5006 H 0.13664 0.66494 0.38244 0.0
H5007 H 0.14095 0.70545 0.41633 0.0
H5008 H 0.1062 0.72592 0.37257 0.0
H5009 H 0.13064 0.71655 0.38728 0.0
H5010 H 0.10761 0.66962 0.39578 0.0
H5011 H 0.08304 0.67904 0.38134 0.0
C5012 C 0.15937 0.66684 0.39543 0.0
C5013 C 0.1688 0.67581 0.4067 0.0
C5014 C 0.14341 0.67172 0.39167 0.0
C5015 C 0.13671 0.68587 0.39885 0.0
C5016 C 0.1459 0.69449 0.41065 0.0
C5017 C 0.16179 0.68936 0.41472 0.0
C5018 C 0.10624 0.71373 0.37789 0.0
C5019 C 0.09279 0.70318 0.37574 0.0
C5020 C 0.12016 0.70842 0.38638 0.0
C5021 C 0.12096 0.69238 0.39263 0.0
C5022 C 0.10726 0.68205 0.39106 0.0
C5023 C 0.09322 0.68746 0.38283 0.0
H5024 H 0.89281 0.51843 0.13657 0.0
H5025 H 0.86569 0.55689 0.16099 0.0
H5026 H 0.87984 0.52582 0.11061 0.0
H5027 H 0.85294 0.56446 0.135 0.0
H5028 H 0.82562 0.56738 0.0857 0.0
H5029 H 0.83455 0.55633 0.11221 0.0
H5030 H 0.88345 0.5497 0.09288 0.0
H5031 H 0.87468 0.56039 0.06662 0.0
C5032 C 0.88393 0.52832 0.13643 0.0
C5033 C 0.88042 0.53721 0.15076 0.0
C5034 C 0.87656 0.53261 0.12156 0.0
C5035 C 0.86554 0.54588 0.12072 0.0
C5036 C 0.86131 0.55413 0.13525 0.0
C5037 C 0.86869 0.54984 0.15013 0.0
C5038 C 0.83826 0.56351 0.08712 0.0
C5039 C 0.8494 0.56479 0.07399 0.0
C5040 C 0.84336 0.55721 0.1023 0.0
C5041 C 0.85966 0.55198 0.10458 0.0
C5042 C 0.87073 0.55327 0.09144 0.0
C5043 C 0.86569 0.55958 0.07638 0.0
H5044 H 0.33071 0.44404 0.42396 0.0
H5045 H 0.36484 0.40365 0.42092 0.0
H5046 H 0.34077 0.45444 0.39744 0.0
H5047 H 0.3744 0.41368 0.39423 0.0
H5048 H 0.39036 0.47398 0.36806 0.0
H5049 H 0.37453 0.46378 0.39158 0.0
H5050 H 0.35974 0.42149 0.36337 0.0
H5051 H 0.37507 0.43188 0.33969 0.0
C5052 C 0.33997 0.43715 0.41736 0.0
C5053 C 0.34702 0.42307 0.42436 0.0
C5054 C 0.34576 0.44313 0.40232 0.0
C5055 C 0.35831 0.43481 0.39394 0.0
C5056 C 0.36464 0.42021 0.40049 0.0
C5057 C 0.35919 0.4145 0.41569 0.0
C5058 C 0.38347 0.46267 0.36682 0.0
C5059 C 0.38387 0.45374 0.35209 0.0
C5060 C 0.37438 0.45691 0.38019 0.0
C5061 C 0.36591 0.44194 0.37913 0.0
C5062 C 0.3661 0.43313 0.36435 0.0
C5063 C 0.37484 0.43909 0.35086 0.0
H5064 H 0.84771 0.6151 0.67087 0.0
H5065 H 0.80988 0.57804 0.6731 0.0
H5066 H 0.83867 0.62273 0.64331 0.0
H5067 H 0.80057 0.586 0.64556 0.0
H5068 H 0.77752 0.62986 0.61264 0.0
H5069 H 0.78777 0.61523 0.6368 0.0
H5070 H 0.83501 0.60973 0.61347 0.0
H5071 H 0.82469 0.62403 0.58915 0.0
C5072 C 0.83761 0.60845 0.66533 0.0
C5073 C 0.82941 0.59606 0.67407 0.0
C5074 C 0.83251 0.61275 0.64957 0.0
C5075 C 0.81893 0.60495 0.64242 0.0
C5076 C 0.81107 0.59216 0.65089 0.0
C5077 C 0.81643 0.58758 0.66655 0.0
C5078 C 0.78998 0.62522 0.61256 0.0
C5079 C 0.80033 0.62806 0.59909 0.0
C5080 C 0.79579 0.61679 0.62631 0.0
C5081 C 0.81214 0.61138 0.6269 0.0
C5082 C 0.82234 0.61378 0.61323 0.0
C5083 C 0.81643 0.6219 0.59935 0.0
H5084 H 0.64791 0.04053 0.93458 0.0
H5085 H 0.6641 0.08453 0.91009 0.0
H5086 H 0.63793 0.02955 0.90866 0.0
H5087 H 0.65305 0.07424 0.8842 0.0
H5088 H 0.6378 0.04981 0.83737 0.0
H5089 H 0.65328 0.05654 0.86204 0.0
H5090 H 0.6159 0.033 0.89157 0.0
H5091 H 0.6012 0.02537 0.86685 0.0
C5092 C 0.64938 0.04779 0.92353 0.0
C5093 C 0.65673 0.06333 0.92423 0.0
C5094 C 0.64348 0.04161 0.90868 0.0
C5095 C 0.64431 0.05108 0.89425 0.0
C5096 C 0.65232 0.06644 0.89492 0.0
C5097 C 0.65863 0.07241 0.90975 0.0
C5098 C 0.63308 0.04587 0.84916 0.0
C5099 C 0.61826 0.03713 0.8502 0.0
C5100 C 0.64187 0.04986 0.86335 0.0
C5101 C 0.63587 0.04549 0.87895 0.0
C5102 C 0.62119 0.03637 0.87986 0.0
C5103 C 0.61261 0.03207 0.86565 0.0
H5104 H 0.6988 0.41831 0.17226 0.0
H5105 H 0.65843 0.3842 0.1687 0.0
H5106 H 0.70872 0.40928 0.14517 0.0
H5107 H 0.668 0.3756 0.14158 0.0
H5108 H 0.68269 0.37563 0.08736 0.0
H5109 H 0.67353 0.39006 0.11198 0.0
H5110 H 0.71903 0.37794 0.13615 0.0
H5111 H 0.72815 0.36309 0.11159 0.0
C5112 C 0.69187 0.4092 0.16549 0.0
C5113 C 0.6779 0.4019 0.17246 0.0
C5114 C 0.69758 0.40399 0.15013 0.0
C5115 C 0.68909 0.39178 0.1414 0.0
C5116 C 0.67468 0.3851 0.14806 0.0
C5117 C 0.66924 0.38998 0.16354 0.0
C5118 C 0.69087 0.37625 0.09782 0.0
C5119 C 0.70611 0.36816 0.09761 0.0
C5120 C 0.6856 0.38449 0.11188 0.0
C5121 C 0.69561 0.38509 0.12586 0.0
C5122 C 0.71119 0.37774 0.12542 0.0
C5123 C 0.71635 0.3692 0.11143 0.0
H5124 H 0.13699 0.44984 0.16325 0.0
H5125 H 0.10127 0.47613 0.13431 0.0
H5126 H 0.1525 0.4435 0.13845 0.0
H5127 H 0.11602 0.46898 0.10946 0.0
H5128 H 0.14831 0.46248 0.0666 0.0
H5129 H 0.13857 0.47275 0.09293 0.0
H5130 H 0.15175 0.42651 0.11555 0.0
H5131 H 0.16255 0.41688 0.08929 0.0
C5132 C 0.13247 0.45427 0.15155 0.0
C5133 C 0.1179 0.46343 0.15069 0.0
C5134 C 0.14128 0.45052 0.13731 0.0
C5135 C 0.13555 0.4556 0.12182 0.0
C5136 C 0.1211 0.46509 0.1211 0.0
C5137 C 0.11249 0.4691 0.13538 0.0
C5138 C 0.14944 0.45473 0.07735 0.0
C5139 C 0.15614 0.43894 0.07604 0.0
C5140 C 0.14368 0.46049 0.09241 0.0
C5141 C 0.14399 0.45038 0.10642 0.0
C5142 C 0.15142 0.43478 0.10516 0.0
C5143 C 0.15759 0.42919 0.09012 0.0
H5144 H 0.81873 0.87681 0.91461 0.0
H5145 H 0.77546 0.86556 0.88617 0.0
H5146 H 0.82932 0.89344 0.89188 0.0
H5147 H 0.78587 0.88251 0.86366 0.0
H5148 H 0.80531 0.92317 0.83029 0.0
H5149 H 0.79515 0.91364 0.85708 0.0
H5150 H 0.83762 0.88237 0.86198 0.0
H5151 H 0.84743 0.89148 0.83508 0.0
C5152 C 0.81133 0.87821 0.90366 0.0
C5153 C 0.7963 0.86988 0.90209 0.0
C5154 C 0.81739 0.88768 0.89069 0.0
C5155 C 0.80835 0.8893 0.87611 0.0
C5156 C 0.79297 0.88162 0.87486 0.0
C5157 C 0.78708 0.87185 0.88768 0.0
C5158 C 0.81267 0.91466 0.83738 0.0
C5159 C 0.82715 0.90808 0.8308 0.0
C5160 C 0.80683 0.90914 0.85258 0.0
C5161 C 0.81563 0.89729 0.86152 0.0
C5162 C 0.8307 0.89163 0.85539 0.0
C5163 C 0.8363 0.89681 0.84005 0.0
H5164 H 0.18321 0.62574 0.4128 0.0
H5165 H 0.22803 0.63431 0.38583 0.0
H5166 H 0.17172 0.6113 0.38906 0.0
H5167 H 0.21668 0.61939 0.3623 0.0
H5168 H 0.15597 0.61752 0.33153 0.0
H5169 H 0.16644 0.62574 0.35846 0.0
H5170 H 0.20356 0.5881 0.35557 0.0
H5171 H 0.19272 0.57946 0.32877 0.0
C5172 C 0.19076 0.62413 0.40197 0.0
C5173 C 0.20652 0.63109 0.4011 0.0
C5174 C 0.18416 0.61594 0.38842 0.0
C5175 C 0.19339 0.6142 0.37399 0.0
C5176 C 0.20944 0.62044 0.3734 0.0
C5177 C 0.21588 0.629 0.3868 0.0
C5178 C 0.16612 0.61078 0.33683 0.0
C5179 C 0.17357 0.59789 0.32815 0.0
C5180 C 0.17206 0.61543 0.35221 0.0
C5181 C 0.18578 0.60753 0.35897 0.0
C5182 C 0.19294 0.59431 0.35055 0.0
C5183 C 0.18671 0.58935 0.33532 0.0
loop_
_geom_bond_atom_site_label_1
_geom_bond_atom_site_label_2
_geom_bond_distance
_geom_bond_site_symmetry_2
_ccdc_geom_bond_type
Co0 O1 2.216 . S
Co0 O2 2.091 . S
Co0 O4 2.004 . S
Co0 O10 2.021 . S
Co0 O12 2.137 . S
Co0 O13 2.244 . S
O1 Co0 2.216 . S
O1 C8 1.247 . S
O2 Co0 2.091 . S
O2 C8 1.261 . S
C3 O12 1.247 . S
C3 O13 1.272 . S
O4 Co0 2.004 . S
O4 C9 1.259 . S
Co5 O6 2.061 . S
Co5 O11 2.052 . S
Co5 O13 2.135 . S
O6 Co5 2.061 . S
O6 C9 1.235 . S
C7 O10 1.238 . S
C7 O11 1.241 . S
C8 O1 1.247 . S
C8 O2 1.261 . S
C9 O4 1.259 . S
C9 O6 1.235 . S
O10 Co0 2.021 . S
O10 C7 1.238 . S
O11 Co5 2.052 . S
O11 C7 1.241 . S
O12 Co0 2.137 . S
O12 C3 1.247 . S
O13 Co0 2.244 . S
O13 C3 1.272 . S
O13 Co5 2.135 . S
Co14 O15 2.216 . S
Co14 O16 2.091 . S
Co14 O18 2.004 . S
Co14 O24 2.021 . S
Co14 O26 2.137 . S
Co14 O27 2.244 . S
O15 Co14 2.216 . S
O15 C22 1.247 . S
O16 Co14 2.091 . S
O16 C22 1.261 . S
C17 O26 1.247 . S
C17 O27 1.272 . S
O18 Co14 2.004 . S
O18 C23 1.259 . S
Co19 O20 2.061 . S
Co19 O25 2.052 . S
Co19 O27 2.135 . S
O20 Co19 2.061 . S
O20 C23 1.235 . S
C21 O24 1.238 . S
C21 O25 1.241 . S
C22 O15 1.247 . S
C22 O16 1.261 . S
C23 O18 1.259 . S
C23 O20 1.235 . S
O24 Co14 2.021 . S
O24 C21 1.238 . S
O25 Co19 2.052 . S
O25 C21 1.241 . S
O26 Co14 2.137 . S
O26 C17 1.247 . S
O27 Co14 2.244 . S
O27 C17 1.272 . S
O27 Co19 2.135 . S
Co28 O29 2.216 . S
Co28 O30 2.091 . S
Co28 O32 2.004 . S
Co28 O38 2.021 . S
Co28 O40 2.137 . S
Co28 O41 2.244 . S
O29 Co28 2.216 . S
O29 C36 1.247 . S
O30 Co28 2.091 . S
O30 C36 1.261 . S
C31 O40 1.247 . S
C31 O41 1.272 . S
O32 Co28 2.004 . S
O32 C37 1.259 . S
Co33 O34 2.061 . S
Co33 O39 2.052 . S
Co33 O41 2.135 . S
O34 Co33 2.061 . S
O34 C37 1.235 . S
C35 O38 1.238 . S
C35 O39 1.241 . S
C36 O29 1.247 . S
C36 O30 1.261 . S
C37 O32 1.259 . S
C37 O34 1.235 . S
O38 Co28 2.021 . S
O38 C35 1.238 . S
O39 Co33 2.052 . S
O39 C35 1.241 . S
O40 Co28 2.137 . S
O40 C31 1.247 . S
O41 Co28 2.244 . S
O41 C31 1.272 . S
O41 Co33 2.135 . S
Co42 O43 2.216 . S
Co42 O44 2.091 . S
Co42 O46 2.004 . S
Co42 O52 2.021 . S
Co42 O54 2.137 . S
Co42 O55 2.244 . S
O43 Co42 2.216 . S
O43 C50 1.247 . S
O44 Co42 2.091 . S
O44 C50 1.261 . S
C45 O54 1.247 . S
C45 O55 1.272 . S
O46 Co42 2.004 . S
O46 C51 1.259 . S
Co47 O48 2.061 . S
Co47 O53 2.052 . S
Co47 O55 2.135 . S
O48 Co47 2.061 . S
O48 C51 1.235 . S
C49 O52 1.238 . S
C49 O53 1.241 . S
C50 O43 1.247 . S
C50 O44 1.261 . S
C51 O46 1.259 . S
C51 O48 1.235 . S
O52 Co42 2.021 . S
O52 C49 1.238 . S
O53 Co47 2.052 . S
O53 C49 1.241 . S
O54 Co42 2.137 . S
O54 C45 1.247 . S
O55 Co42 2.244 . S
O55 C45 1.272 . S
O55 Co47 2.135 . S
Co56 O57 2.216 . S
Co56 O58 2.091 . S
Co56 O60 2.004 . S
Co56 O66 2.021 . S
Co56 O68 2.137 . S
Co56 O69 2.244 . S
O57 Co56 2.216 . S
O57 C64 1.247 . S
O58 Co56 2.091 . S
O58 C64 1.261 . S
C59 O68 1.247 . S
C59 O69 1.272 . S
O60 Co56 2.004 . S
O60 C65 1.259 . S
Co61 O62 2.061 . S
Co61 O67 2.052 . S
Co61 O69 2.135 . S
O62 Co61 2.061 . S
O62 C65 1.235 . S
C63 O66 1.238 . S
C63 O67 1.241 . S
C64 O57 1.247 . S
C64 O58 1.261 . S
C65 O60 1.259 . S
C65 O62 1.235 . S
O66 Co56 2.021 . S
O66 C63 1.238 . S
O67 Co61 2.052 . S
O67 C63 1.241 . S
O68 Co56 2.137 . S
O68 C59 1.247 . S
O69 Co56 2.244 . S
O69 C59 1.272 . S
O69 Co61 2.135 . S
Co70 O71 2.216 . S
Co70 O72 2.091 . S
Co70 O74 2.004 . S
Co70 O80 2.021 . S
Co70 O82 2.137 . S
Co70 O83 2.244 . S
O71 Co70 2.216 . S
O71 C78 1.247 . S
O72 Co70 2.091 . S
O72 C78 1.261 . S
C73 O82 1.247 . S
C73 O83 1.272 . S
O74 Co70 2.004 . S
O74 C79 1.259 . S
Co75 O76 2.061 . S
Co75 O81 2.052 . S
Co75 O83 2.135 . S
O76 Co75 2.061 . S
O76 C79 1.235 . S
C77 O80 1.238 . S
C77 O81 1.241 . S
C78 O71 1.247 . S
C78 O72 1.261 . S
C79 O74 1.259 . S
C79 O76 1.235 . S
O80 Co70 2.021 . S
O80 C77 1.238 . S
O81 Co75 2.052 . S
O81 C77 1.241 . S
O82 Co70 2.137 . S
O82 C73 1.247 . S
O83 Co70 2.244 . S
O83 C73 1.272 . S
O83 Co75 2.135 . S
Co84 O85 2.216 . S
Co84 O86 2.091 . S
Co84 O88 2.004 . S
Co84 O94 2.021 . S
Co84 O96 2.137 . S
Co84 O97 2.244 . S
O85 Co84 2.216 . S
O85 C92 1.247 . S
O86 Co84 2.091 . S
O86 C92 1.261 . S
C87 O96 1.247 . S
C87 O97 1.272 . S
O88 Co84 2.004 . S
O88 C93 1.259 . S
Co89 O90 2.061 . S
Co89 O95 2.052 . S
Co89 O97 2.135 . S
O90 Co89 2.061 . S
O90 C93 1.235 . S
C91 O94 1.238 . S
C91 O95 1.241 . S
C92 O85 1.247 . S
C92 O86 1.261 . S
C93 O88 1.259 . S
C93 O90 1.235 . S
O94 Co84 2.021 . S
O94 C91 1.238 . S
O95 Co89 2.052 . S
O95 C91 1.241 . S
O96 Co84 2.137 . S
O96 C87 1.247 . S
O97 Co84 2.244 . S
O97 C87 1.272 . S
O97 Co89 2.135 . S
Co98 O99 2.216 . S
Co98 O100 2.091 . S
Co98 O102 2.004 . S
Co98 O108 2.021 . S
Co98 O110 2.137 . S
Co98 O111 2.244 . S
O99 Co98 2.216 . S
O99 C106 1.247 . S
O100 Co98 2.091 . S
O100 C106 1.261 . S
C101 O110 1.247 . S
C101 O111 1.272 . S
O102 Co98 2.004 . S
O102 C107 1.259 . S
Co103 O104 2.061 . S
Co103 O109 2.052 . S
Co103 O111 2.135 . S
O104 Co103 2.061 . S
O104 C107 1.235 . S
C105 O108 1.238 . S
C105 O109 1.241 . S
C106 O99 1.247 . S
C106 O100 1.261 . S
C107 O102 1.259 . S
C107 O104 1.235 . S
O108 Co98 2.021 . S
O108 C105 1.238 . S
O109 Co103 2.052 . S
O109 C105 1.241 . S
O110 Co98 2.137 . S
O110 C101 1.247 . S
O111 Co98 2.244 . S
O111 C101 1.272 . S
O111 Co103 2.135 . S
Co112 O113 2.216 . S
Co112 O114 2.091 . S
Co112 O116 2.004 . S
Co112 O122 2.021 . S
Co112 O124 2.137 . S
Co112 O125 2.244 . S
O113 Co112 2.216 . S
O113 C120 1.247 . S
O114 Co112 2.091 . S
O114 C120 1.261 . S
C115 O124 1.247 . S
C115 O125 1.272 . S
O116 Co112 2.004 . S
O116 C121 1.259 . S
Co117 O118 2.061 . S
Co117 O123 2.052 . S
Co117 O125 2.135 . S
O118 Co117 2.061 . S
O118 C121 1.235 . S
C119 O122 1.238 . S
C119 O123 1.241 . S
C120 O113 1.247 . S
C120 O114 1.261 . S
C121 O116 1.259 . S
C121 O118 1.235 . S
O122 Co112 2.021 . S
O122 C119 1.238 . S
O123 Co117 2.052 . S
O123 C119 1.241 . S
O124 Co112 2.137 . S
O124 C115 1.247 . S
O125 Co112 2.244 . S
O125 C115 1.272 . S
O125 Co117 2.135 . S
Co126 O127 2.216 . S
Co126 O128 2.091 . S
Co126 O130 2.004 . S
Co126 O136 2.021 . S
Co126 O138 2.137 . S
Co126 O139 2.244 . S
O127 Co126 2.216 . S
O127 C134 1.247 . S
O128 Co126 2.091 . S
O128 C134 1.261 . S
C129 O138 1.247 . S
C129 O139 1.272 . S
O130 Co126 2.004 . S
O130 C135 1.259 . S
Co131 O132 2.061 . S
Co131 O137 2.052 . S
Co131 O139 2.135 . S
O132 Co131 2.061 . S
O132 C135 1.235 . S
C133 O136 1.238 . S
C133 O137 1.241 . S
C134 O127 1.247 . S
C134 O128 1.261 . S
C135 O130 1.259 . S
C135 O132 1.235 . S
O136 Co126 2.021 . S
O136 C133 1.238 . S
O137 Co131 2.052 . S
O137 C133 1.241 . S
O138 Co126 2.137 . S
O138 C129 1.247 . S
O139 Co126 2.244 . S
O139 C129 1.272 . S
O139 Co131 2.135 . S
Co140 O141 2.216 . S
Co140 O142 2.091 . S
Co140 O144 2.004 . S
Co140 O150 2.021 . S
Co140 O152 2.137 . S
Co140 O153 2.244 . S
O141 Co140 2.216 . S
O141 C148 1.247 . S
O142 Co140 2.091 . S
O142 C148 1.261 . S
C143 O152 1.247 . S
C143 O153 1.272 . S
O144 Co140 2.004 . S
O144 C149 1.259 . S
Co145 O146 2.061 . S
Co145 O151 2.052 . S
Co145 O153 2.135 . S
O146 Co145 2.061 . S
O146 C149 1.235 . S
C147 O150 1.238 . S
C147 O151 1.241 . S
C148 O141 1.247 . S
C148 O142 1.261 . S
C149 O144 1.259 . S
C149 O146 1.235 . S
O150 Co140 2.021 . S
O150 C147 1.238 . S
O151 Co145 2.052 . S
O151 C147 1.241 . S
O152 Co140 2.137 . S
O152 C143 1.247 . S
O153 Co140 2.244 . S
O153 C143 1.272 . S
O153 Co145 2.135 . S
Co154 O155 2.216 . S
Co154 O156 2.091 . S
Co154 O158 2.004 . S
Co154 O164 2.021 . S
Co154 O166 2.137 . S
Co154 O167 2.244 . S
O155 Co154 2.216 . S
O155 C162 1.247 . S
O156 Co154 2.091 . S
O156 C162 1.261 . S
C157 O166 1.247 . S
C157 O167 1.272 . S
O158 Co154 2.004 . S
O158 C163 1.259 . S
Co159 O160 2.061 . S
Co159 O165 2.052 . S
Co159 O167 2.135 . S
O160 Co159 2.061 . S
O160 C163 1.235 . S
C161 O164 1.238 . S
C161 O165 1.241 . S
C162 O155 1.247 . S
C162 O156 1.261 . S
C163 O158 1.259 . S
C163 O160 1.235 . S
O164 Co154 2.021 . S
O164 C161 1.238 . S
O165 Co159 2.052 . S
O165 C161 1.241 . S
O166 Co154 2.137 . S
O166 C157 1.247 . S
O167 Co154 2.244 . S
O167 C157 1.272 . S
O167 Co159 2.135 . S
Co168 O169 2.216 . S
Co168 O170 2.091 . S
Co168 O172 2.004 . S
Co168 O178 2.021 . S
Co168 O180 2.137 . S
Co168 O181 2.244 . S
O169 Co168 2.216 . S
O169 C176 1.247 . S
O170 Co168 2.091 . S
O170 C176 1.261 . S
C171 O180 1.247 . S
C171 O181 1.272 . S
O172 Co168 2.004 . S
O172 C177 1.259 . S
Co173 O174 2.061 . S
Co173 O179 2.052 . S
Co173 O181 2.135 . S
O174 Co173 2.061 . S
O174 C177 1.235 . S
C175 O178 1.238 . S
C175 O179 1.241 . S
C176 O169 1.247 . S
C176 O170 1.261 . S
C177 O172 1.259 . S
C177 O174 1.235 . S
O178 Co168 2.021 . S
O178 C175 1.238 . S
O179 Co173 2.052 . S
O179 C175 1.241 . S
O180 Co168 2.137 . S
O180 C171 1.247 . S
O181 Co168 2.244 . S
O181 C171 1.272 . S
O181 Co173 2.135 . S
Co182 O183 2.216 . S
Co182 O184 2.091 . S
Co182 O186 2.004 . S
Co182 O192 2.021 . S
Co182 O194 2.137 . S
Co182 O195 2.244 . S
O183 Co182 2.216 . S
O183 C190 1.247 . S
O184 Co182 2.091 . S
O184 C190 1.261 . S
C185 O194 1.247 . S
C185 O195 1.272 . S
O186 Co182 2.004 . S
O186 C191 1.259 . S
Co187 O188 2.061 . S
Co187 O193 2.052 . S
Co187 O195 2.135 . S
O188 Co187 2.061 . S
O188 C191 1.235 . S
C189 O192 1.238 . S
C189 O193 1.241 . S
C190 O183 1.247 . S
C190 O184 1.261 . S
C191 O186 1.259 . S
C191 O188 1.235 . S
O192 Co182 2.021 . S
O192 C189 1.238 . S
O193 Co187 2.052 . S
O193 C189 1.241 . S
O194 Co182 2.137 . S
O194 C185 1.247 . S
O195 Co182 2.244 . S
O195 C185 1.272 . S
O195 Co187 2.135 . S
Co196 O197 2.216 . S
Co196 O198 2.091 . S
Co196 O200 2.004 . S
Co196 O206 2.021 . S
Co196 O208 2.137 . S
Co196 O209 2.244 . S
O197 Co196 2.216 . S
O197 C204 1.247 . S
O198 Co196 2.091 . S
O198 C204 1.261 . S
C199 O208 1.247 . S
C199 O209 1.272 . S
O200 Co196 2.004 . S
O200 C205 1.259 . S
Co201 O202 2.061 . S
Co201 O207 2.052 . S
Co201 O209 2.135 . S
O202 Co201 2.061 . S
O202 C205 1.235 . S
C203 O206 1.238 . S
C203 O207 1.241 . S
C204 O197 1.247 . S
C204 O198 1.261 . S
C205 O200 1.259 . S
C205 O202 1.235 . S
O206 Co196 2.021 . S
O206 C203 1.238 . S
O207 Co201 2.052 . S
O207 C203 1.241 . S
O208 Co196 2.137 . S
O208 C199 1.247 . S
O209 Co196 2.244 . S
O209 C199 1.272 . S
O209 Co201 2.135 . S
Co210 O211 2.216 . S
Co210 O212 2.091 . S
Co210 O214 2.004 . S
Co210 O220 2.021 . S
Co210 O222 2.137 . S
Co210 O223 2.244 . S
O211 Co210 2.216 . S
O211 C218 1.247 . S
O212 Co210 2.091 . S
O212 C218 1.261 . S
C213 O222 1.247 . S
C213 O223 1.272 . S
O214 Co210 2.004 . S
O214 C219 1.259 . S
Co215 O216 2.061 . S
Co215 O221 2.052 . S
Co215 O223 2.135 . S
O216 Co215 2.061 . S
O216 C219 1.235 . S
C217 O220 1.238 . S
C217 O221 1.241 . S
C218 O211 1.247 . S
C218 O212 1.261 . S
C219 O214 1.259 . S
C219 O216 1.235 . S
O220 Co210 2.021 . S
O220 C217 1.238 . S
O221 Co215 2.052 . S
O221 C217 1.241 . S
O222 Co210 2.137 . S
O222 C213 1.247 . S
O223 Co210 2.244 . S
O223 C213 1.272 . S
O223 Co215 2.135 . S
Co224 O225 2.216 . S
Co224 O226 2.091 . S
Co224 O228 2.004 . S
Co224 O234 2.021 . S
Co224 O236 2.137 . S
Co224 O237 2.244 . S
O225 Co224 2.216 . S
O225 C232 1.247 . S
O226 Co224 2.091 . S
O226 C232 1.261 . S
C227 O236 1.247 . S
C227 O237 1.272 . S
O228 Co224 2.004 . S
O228 C233 1.259 . S
Co229 O230 2.061 . S
Co229 O235 2.052 . S
Co229 O237 2.135 . S
O230 Co229 2.061 . S
O230 C233 1.235 . S
C231 O234 1.238 . S
C231 O235 1.241 . S
C232 O225 1.247 . S
C232 O226 1.261 . S
C233 O228 1.259 . S
C233 O230 1.235 . S
O234 Co224 2.021 . S
O234 C231 1.238 . S
O235 Co229 2.052 . S
O235 C231 1.241 . S
O236 Co224 2.137 . S
O236 C227 1.247 . S
O237 Co224 2.244 . S
O237 C227 1.272 . S
O237 Co229 2.135 . S
Co238 O239 2.216 . S
Co238 O240 2.091 . S
Co238 O242 2.004 . S
Co238 O248 2.021 . S
Co238 O250 2.137 . S
Co238 O251 2.244 . S
O239 Co238 2.216 . S
O239 C246 1.247 . S
O240 Co238 2.091 . S
O240 C246 1.261 . S
C241 O250 1.247 . S
C241 O251 1.272 . S
O242 Co238 2.004 . S
O242 C247 1.259 . S
Co243 O244 2.061 . S
Co243 O249 2.052 . S
Co243 O251 2.135 . S
O244 Co243 2.061 . S
O244 C247 1.235 . S
C245 O248 1.238 . S
C245 O249 1.241 . S
C246 O239 1.247 . S
C246 O240 1.261 . S
C247 O242 1.259 . S
C247 O244 1.235 . S
O248 Co238 2.021 . S
O248 C245 1.238 . S
O249 Co243 2.052 . S
O249 C245 1.241 . S
O250 Co238 2.137 . S
O250 C241 1.247 . S
O251 Co238 2.244 . S
O251 C241 1.272 . S
O251 Co243 2.135 . S
Co252 O253 2.216 . S
Co252 O254 2.091 . S
Co252 O256 2.004 . S
Co252 O262 2.021 . S
Co252 O264 2.137 . S
Co252 O265 2.244 . S
O253 Co252 2.216 . S
O253 C260 1.247 . S
O254 Co252 2.091 . S
O254 C260 1.261 . S
C255 O264 1.247 . S
C255 O265 1.272 . S
O256 Co252 2.004 . S
O256 C261 1.259 . S
Co257 O258 2.061 . S
Co257 O263 2.052 . S
Co257 O265 2.135 . S
O258 Co257 2.061 . S
O258 C261 1.235 . S
C259 O262 1.238 . S
C259 O263 1.241 . S
C260 O253 1.247 . S
C260 O254 1.261 . S
C261 O256 1.259 . S
C261 O258 1.235 . S
O262 Co252 2.021 . S
O262 C259 1.238 . S
O263 Co257 2.052 . S
O263 C259 1.241 . S
O264 Co252 2.137 . S
O264 C255 1.247 . S
O265 Co252 2.244 . S
O265 C255 1.272 . S
O265 Co257 2.135 . S
Co266 O267 2.216 . S
Co266 O268 2.091 . S
Co266 O270 2.004 . S
Co266 O276 2.021 . S
Co266 O278 2.137 . S
Co266 O279 2.244 . S
O267 Co266 2.216 . S
O267 C274 1.247 . S
O268 Co266 2.091 . S
O268 C274 1.261 . S
C269 O278 1.247 . S
C269 O279 1.272 . S
O270 Co266 2.004 . S
O270 C275 1.259 . S
Co271 O272 2.061 . S
Co271 O277 2.052 . S
Co271 O279 2.135 . S
O272 Co271 2.061 . S
O272 C275 1.235 . S
C273 O276 1.238 . S
C273 O277 1.241 . S
C274 O267 1.247 . S
C274 O268 1.261 . S
C275 O270 1.259 . S
C275 O272 1.235 . S
O276 Co266 2.021 . S
O276 C273 1.238 . S
O277 Co271 2.052 . S
O277 C273 1.241 . S
O278 Co266 2.137 . S
O278 C269 1.247 . S
O279 Co266 2.244 . S
O279 C269 1.272 . S
O279 Co271 2.135 . S
Co280 O281 2.216 . S
Co280 O282 2.091 . S
Co280 O284 2.004 . S
Co280 O290 2.021 . S
Co280 O292 2.137 . S
Co280 O293 2.244 . S
O281 Co280 2.216 . S
O281 C288 1.247 . S
O282 Co280 2.091 . S
O282 C288 1.261 . S
C283 O292 1.247 . S
C283 O293 1.272 . S
O284 Co280 2.004 . S
O284 C289 1.259 . S
Co285 O286 2.061 . S
Co285 O291 2.052 . S
Co285 O293 2.135 . S
O286 Co285 2.061 . S
O286 C289 1.235 . S
C287 O290 1.238 . S
C287 O291 1.241 . S
C288 O281 1.247 . S
C288 O282 1.261 . S
C289 O284 1.259 . S
C289 O286 1.235 . S
O290 Co280 2.021 . S
O290 C287 1.238 . S
O291 Co285 2.052 . S
O291 C287 1.241 . S
O292 Co280 2.137 . S
O292 C283 1.247 . S
O293 Co280 2.244 . S
O293 C283 1.272 . S
O293 Co285 2.135 . S
Co294 O295 2.216 . S
Co294 O296 2.091 . S
Co294 O298 2.004 . S
Co294 O304 2.021 . S
Co294 O306 2.137 . S
Co294 O307 2.244 . S
O295 Co294 2.216 . S
O295 C302 1.247 . S
O296 Co294 2.091 . S
O296 C302 1.261 . S
C297 O306 1.247 . S
C297 O307 1.272 . S
O298 Co294 2.004 . S
O298 C303 1.259 . S
Co299 O300 2.061 . S
Co299 O305 2.052 . S
Co299 O307 2.135 . S
O300 Co299 2.061 . S
O300 C303 1.235 . S
C301 O304 1.238 . S
C301 O305 1.241 . S
C302 O295 1.247 . S
C302 O296 1.261 . S
C303 O298 1.259 . S
C303 O300 1.235 . S
O304 Co294 2.021 . S
O304 C301 1.238 . S
O305 Co299 2.052 . S
O305 C301 1.241 . S
O306 Co294 2.137 . S
O306 C297 1.247 . S
O307 Co294 2.244 . S
O307 C297 1.272 . S
O307 Co299 2.135 . S
Co308 O309 2.216 . S
Co308 O310 2.091 . S
Co308 O312 2.004 . S
Co308 O318 2.021 . S
Co308 O320 2.137 . S
Co308 O321 2.244 . S
O309 Co308 2.216 . S
O309 C316 1.247 . S
O310 Co308 2.091 . S
O310 C316 1.261 . S
C311 O320 1.247 . S
C311 O321 1.272 . S
O312 Co308 2.004 . S
O312 C317 1.259 . S
Co313 O314 2.061 . S
Co313 O319 2.052 . S
Co313 O321 2.135 . S
O314 Co313 2.061 . S
O314 C317 1.235 . S
C315 O318 1.238 . S
C315 O319 1.241 . S
C316 O309 1.247 . S
C316 O310 1.261 . S
C317 O312 1.259 . S
C317 O314 1.235 . S
O318 Co308 2.021 . S
O318 C315 1.238 . S
O319 Co313 2.052 . S
O319 C315 1.241 . S
O320 Co308 2.137 . S
O320 C311 1.247 . S
O321 Co308 2.244 . S
O321 C311 1.272 . S
O321 Co313 2.135 . S
Co322 O323 2.216 . S
Co322 O324 2.091 . S
Co322 O326 2.004 . S
Co322 O332 2.021 . S
Co322 O334 2.137 . S
Co322 O335 2.244 . S
O323 Co322 2.216 . S
O323 C330 1.247 . S
O324 Co322 2.091 . S
O324 C330 1.261 . S
C325 O334 1.247 . S
C325 O335 1.272 . S
O326 Co322 2.004 . S
O326 C331 1.259 . S
Co327 O328 2.061 . S
Co327 O333 2.052 . S
Co327 O335 2.135 . S
O328 Co327 2.061 . S
O328 C331 1.235 . S
C329 O332 1.238 . S
C329 O333 1.241 . S
C330 O323 1.247 . S
C330 O324 1.261 . S
C331 O326 1.259 . S
C331 O328 1.235 . S
O332 Co322 2.021 . S
O332 C329 1.238 . S
O333 Co327 2.052 . S
O333 C329 1.241 . S
O334 Co322 2.137 . S
O334 C325 1.247 . S
O335 Co322 2.244 . S
O335 C325 1.272 . S
O335 Co327 2.135 . S
Co336 O337 2.216 . S
Co336 O338 2.091 . S
Co336 O340 2.004 . S
Co336 O346 2.021 . S
Co336 O348 2.137 . S
Co336 O349 2.244 . S
O337 Co336 2.216 . S
O337 C344 1.247 . S
O338 Co336 2.091 . S
O338 C344 1.261 . S
C339 O348 1.247 . S
C339 O349 1.272 . S
O340 Co336 2.004 . S
O340 C345 1.259 . S
Co341 O342 2.061 . S
Co341 O347 2.052 . S
Co341 O349 2.135 . S
O342 Co341 2.061 . S
O342 C345 1.235 . S
C343 O346 1.238 . S
C343 O347 1.241 . S
C344 O337 1.247 . S
C344 O338 1.261 . S
C345 O340 1.259 . S
C345 O342 1.235 . S
O346 Co336 2.021 . S
O346 C343 1.238 . S
O347 Co341 2.052 . S
O347 C343 1.241 . S
O348 Co336 2.137 . S
O348 C339 1.247 . S
O349 Co336 2.244 . S
O349 C339 1.272 . S
O349 Co341 2.135 . S
Co350 O351 2.216 . S
Co350 O352 2.091 . S
Co350 O354 2.004 . S
Co350 O360 2.021 . S
Co350 O362 2.137 . S
Co350 O363 2.244 . S
O351 Co350 2.216 . S
O351 C358 1.247 . S
O352 Co350 2.091 . S
O352 C358 1.261 . S
C353 O362 1.247 . S
C353 O363 1.272 . S
O354 Co350 2.004 . S
O354 C359 1.259 . S
Co355 O356 2.061 . S
Co355 O361 2.052 . S
Co355 O363 2.135 . S
O356 Co355 2.061 . S
O356 C359 1.235 . S
C357 O360 1.238 . S
C357 O361 1.241 . S
C358 O351 1.247 . S
C358 O352 1.261 . S
C359 O354 1.259 . S
C359 O356 1.235 . S
O360 Co350 2.021 . S
O360 C357 1.238 . S
O361 Co355 2.052 . S
O361 C357 1.241 . S
O362 Co350 2.137 . S
O362 C353 1.247 . S
O363 Co350 2.244 . S
O363 C353 1.272 . S
O363 Co355 2.135 . S
Co364 O365 2.216 . S
Co364 O366 2.091 . S
Co364 O368 2.004 . S
Co364 O374 2.021 . S
Co364 O376 2.137 . S
Co364 O377 2.244 . S
O365 Co364 2.216 . S
O365 C372 1.247 . S
O366 Co364 2.091 . S
O366 C372 1.261 . S
C367 O376 1.247 . S
C367 O377 1.272 . S
O368 Co364 2.004 . S
O368 C373 1.259 . S
Co369 O370 2.061 . S
Co369 O375 2.052 . S
Co369 O377 2.135 . S
O370 Co369 2.061 . S
O370 C373 1.235 . S
C371 O374 1.238 . S
C371 O375 1.241 . S
C372 O365 1.247 . S
C372 O366 1.261 . S
C373 O368 1.259 . S
C373 O370 1.235 . S
O374 Co364 2.021 . S
O374 C371 1.238 . S
O375 Co369 2.052 . S
O375 C371 1.241 . S
O376 Co364 2.137 . S
O376 C367 1.247 . S
O377 Co364 2.244 . S
O377 C367 1.272 . S
O377 Co369 2.135 . S
Co378 O379 2.216 . S
Co378 O380 2.091 . S
Co378 O382 2.004 . S
Co378 O388 2.021 . S
Co378 O390 2.137 . S
Co378 O391 2.244 . S
O379 Co378 2.216 . S
O379 C386 1.247 . S
O380 Co378 2.091 . S
O380 C386 1.261 . S
C381 O390 1.247 . S
C381 O391 1.272 . S
O382 Co378 2.004 . S
O382 C387 1.259 . S
Co383 O384 2.061 . S
Co383 O389 2.052 . S
Co383 O391 2.135 . S
O384 Co383 2.061 . S
O384 C387 1.235 . S
C385 O388 1.238 . S
C385 O389 1.241 . S
C386 O379 1.247 . S
C386 O380 1.261 . S
C387 O382 1.259 . S
C387 O384 1.235 . S
O388 Co378 2.021 . S
O388 C385 1.238 . S
O389 Co383 2.052 . S
O389 C385 1.241 . S
O390 Co378 2.137 . S
O390 C381 1.247 . S
O391 Co378 2.244 . S
O391 C381 1.272 . S
O391 Co383 2.135 . S
Co392 O393 2.216 . S
Co392 O394 2.091 . S
Co392 O396 2.004 . S
Co392 O402 2.021 . S
Co392 O404 2.137 . S
Co392 O405 2.244 . S
O393 Co392 2.216 . S
O393 C400 1.247 . S
O394 Co392 2.091 . S
O394 C400 1.261 . S
C395 O404 1.247 . S
C395 O405 1.272 . S
O396 Co392 2.004 . S
O396 C401 1.259 . S
Co397 O398 2.061 . S
Co397 O403 2.052 . S
Co397 O405 2.135 . S
O398 Co397 2.061 . S
O398 C401 1.235 . S
C399 O402 1.238 . S
C399 O403 1.241 . S
C400 O393 1.247 . S
C400 O394 1.261 . S
C401 O396 1.259 . S
C401 O398 1.235 . S
O402 Co392 2.021 . S
O402 C399 1.238 . S
O403 Co397 2.052 . S
O403 C399 1.241 . S
O404 Co392 2.137 . S
O404 C395 1.247 . S
O405 Co392 2.244 . S
O405 C395 1.272 . S
O405 Co397 2.135 . S
Co406 O407 2.216 . S
Co406 O408 2.091 . S
Co406 O410 2.004 . S
Co406 O416 2.021 . S
Co406 O418 2.137 . S
Co406 O419 2.244 . S
O407 Co406 2.216 . S
O407 C414 1.247 . S
O408 Co406 2.091 . S
O408 C414 1.261 . S
C409 O418 1.247 . S
C409 O419 1.272 . S
O410 Co406 2.004 . S
O410 C415 1.259 . S
Co411 O412 2.061 . S
Co411 O417 2.052 . S
Co411 O419 2.135 . S
O412 Co411 2.061 . S
O412 C415 1.235 . S
C413 O416 1.238 . S
C413 O417 1.241 . S
C414 O407 1.247 . S
C414 O408 1.261 . S
C415 O410 1.259 . S
C415 O412 1.235 . S
O416 Co406 2.021 . S
O416 C413 1.238 . S
O417 Co411 2.052 . S
O417 C413 1.241 . S
O418 Co406 2.137 . S
O418 C409 1.247 . S
O419 Co406 2.244 . S
O419 C409 1.272 . S
O419 Co411 2.135 . S
Co420 O421 2.216 . S
Co420 O422 2.091 . S
Co420 O424 2.004 . S
Co420 O430 2.021 . S
Co420 O432 2.137 . S
Co420 O433 2.244 . S
O421 Co420 2.216 . S
O421 C428 1.247 . S
O422 Co420 2.091 . S
O422 C428 1.261 . S
C423 O432 1.247 . S
C423 O433 1.272 . S
O424 Co420 2.004 . S
O424 C429 1.259 . S
Co425 O426 2.061 . S
Co425 O431 2.052 . S
Co425 O433 2.135 . S
O426 Co425 2.061 . S
O426 C429 1.235 . S
C427 O430 1.238 . S
C427 O431 1.241 . S
C428 O421 1.247 . S
C428 O422 1.261 . S
C429 O424 1.259 . S
C429 O426 1.235 . S
O430 Co420 2.021 . S
O430 C427 1.238 . S
O431 Co425 2.052 . S
O431 C427 1.241 . S
O432 Co420 2.137 . S
O432 C423 1.247 . S
O433 Co420 2.244 . S
O433 C423 1.272 . S
O433 Co425 2.135 . S
Co434 O435 2.216 . S
Co434 O436 2.091 . S
Co434 O438 2.004 . S
Co434 O444 2.021 . S
Co434 O446 2.137 . S
Co434 O447 2.244 . S
O435 Co434 2.216 . S
O435 C442 1.247 . S
O436 Co434 2.091 . S
O436 C442 1.261 . S
C437 O446 1.247 . S
C437 O447 1.272 . S
O438 Co434 2.004 . S
O438 C443 1.259 . S
Co439 O440 2.061 . S
Co439 O445 2.052 . S
Co439 O447 2.135 . S
O440 Co439 2.061 . S
O440 C443 1.235 . S
C441 O444 1.238 . S
C441 O445 1.241 . S
C442 O435 1.247 . S
C442 O436 1.261 . S
C443 O438 1.259 . S
C443 O440 1.235 . S
O444 Co434 2.021 . S
O444 C441 1.238 . S
O445 Co439 2.052 . S
O445 C441 1.241 . S
O446 Co434 2.137 . S
O446 C437 1.247 . S
O447 Co434 2.244 . S
O447 C437 1.272 . S
O447 Co439 2.135 . S
Co448 O449 2.216 . S
Co448 O450 2.091 . S
Co448 O452 2.004 . S
Co448 O458 2.021 . S
Co448 O460 2.137 . S
Co448 O461 2.244 . S
O449 Co448 2.216 . S
O449 C456 1.247 . S
O450 Co448 2.091 . S
O450 C456 1.261 . S
C451 O460 1.247 . S
C451 O461 1.272 . S
O452 Co448 2.004 . S
O452 C457 1.259 . S
Co453 O454 2.061 . S
Co453 O459 2.052 . S
Co453 O461 2.135 . S
O454 Co453 2.061 . S
O454 C457 1.235 . S
C455 O458 1.238 . S
C455 O459 1.241 . S
C456 O449 1.247 . S
C456 O450 1.261 . S
C457 O452 1.259 . S
C457 O454 1.235 . S
O458 Co448 2.021 . S
O458 C455 1.238 . S
O459 Co453 2.052 . S
O459 C455 1.241 . S
O460 Co448 2.137 . S
O460 C451 1.247 . S
O461 Co448 2.244 . S
O461 C451 1.272 . S
O461 Co453 2.135 . S
Co462 O463 2.216 . S
Co462 O464 2.091 . S
Co462 O466 2.004 . S
Co462 O472 2.021 . S
Co462 O474 2.137 . S
Co462 O475 2.244 . S
O463 Co462 2.216 . S
O463 C470 1.247 . S
O464 Co462 2.091 . S
O464 C470 1.261 . S
C465 O474 1.247 . S
C465 O475 1.272 . S
O466 Co462 2.004 . S
O466 C471 1.259 . S
Co467 O468 2.061 . S
Co467 O473 2.052 . S
Co467 O475 2.135 . S
O468 Co467 2.061 . S
O468 C471 1.235 . S
C469 O472 1.238 . S
C469 O473 1.241 . S
C470 O463 1.247 . S
C470 O464 1.261 . S
C471 O466 1.259 . S
C471 O468 1.235 . S
O472 Co462 2.021 . S
O472 C469 1.238 . S
O473 Co467 2.052 . S
O473 C469 1.241 . S
O474 Co462 2.137 . S
O474 C465 1.247 . S
O475 Co462 2.244 . S
O475 C465 1.272 . S
O475 Co467 2.135 . S
Co476 O477 2.216 . S
Co476 O478 2.091 . S
Co476 O480 2.004 . S
Co476 O486 2.021 . S
Co476 O488 2.137 . S
Co476 O489 2.244 . S
O477 Co476 2.216 . S
O477 C484 1.247 . S
O478 Co476 2.091 . S
O478 C484 1.261 . S
C479 O488 1.247 . S
C479 O489 1.272 . S
O480 Co476 2.004 . S
O480 C485 1.259 . S
Co481 O482 2.061 . S
Co481 O487 2.052 . S
Co481 O489 2.135 . S
O482 Co481 2.061 . S
O482 C485 1.235 . S
C483 O486 1.238 . S
C483 O487 1.241 . S
C484 O477 1.247 . S
C484 O478 1.261 . S
C485 O480 1.259 . S
C485 O482 1.235 . S
O486 Co476 2.021 . S
O486 C483 1.238 . S
O487 Co481 2.052 . S
O487 C483 1.241 . S
O488 Co476 2.137 . S
O488 C479 1.247 . S
O489 Co476 2.244 . S
O489 C479 1.272 . S
O489 Co481 2.135 . S
Co490 O491 2.216 . S
Co490 O492 2.091 . S
Co490 O494 2.004 . S
Co490 O500 2.021 . S
Co490 O502 2.137 . S
Co490 O503 2.244 . S
O491 Co490 2.216 . S
O491 C498 1.247 . S
O492 Co490 2.091 . S
O492 C498 1.261 . S
C493 O502 1.247 . S
C493 O503 1.272 . S
O494 Co490 2.004 . S
O494 C499 1.259 . S
Co495 O496 2.061 . S
Co495 O501 2.052 . S
Co495 O503 2.135 . S
O496 Co495 2.061 . S
O496 C499 1.235 . S
C497 O500 1.238 . S
C497 O501 1.241 . S
C498 O491 1.247 . S
C498 O492 1.261 . S
C499 O494 1.259 . S
C499 O496 1.235 . S
O500 Co490 2.021 . S
O500 C497 1.238 . S
O501 Co495 2.052 . S
O501 C497 1.241 . S
O502 Co490 2.137 . S
O502 C493 1.247 . S
O503 Co490 2.244 . S
O503 C493 1.272 . S
O503 Co495 2.135 . S
Co504 O505 2.216 . S
Co504 O506 2.091 . S
Co504 O508 2.004 . S
Co504 O514 2.021 . S
Co504 O516 2.137 . S
Co504 O517 2.244 . S
O505 Co504 2.216 . S
O505 C512 1.247 . S
O506 Co504 2.091 . S
O506 C512 1.261 . S
C507 O516 1.247 . S
C507 O517 1.272 . S
O508 Co504 2.004 . S
O508 C513 1.259 . S
Co509 O510 2.061 . S
Co509 O515 2.052 . S
Co509 O517 2.135 . S
O510 Co509 2.061 . S
O510 C513 1.235 . S
C511 O514 1.238 . S
C511 O515 1.241 . S
C512 O505 1.247 . S
C512 O506 1.261 . S
C513 O508 1.259 . S
C513 O510 1.235 . S
O514 Co504 2.021 . S
O514 C511 1.238 . S
O515 Co509 2.052 . S
O515 C511 1.241 . S
O516 Co504 2.137 . S
O516 C507 1.247 . S
O517 Co504 2.244 . S
O517 C507 1.272 . S
O517 Co509 2.135 . S
Co518 O519 2.216 . S
Co518 O520 2.091 . S
Co518 O522 2.004 . S
Co518 O528 2.021 . S
Co518 O530 2.137 . S
Co518 O531 2.244 . S
O519 Co518 2.216 . S
O519 C526 1.247 . S
O520 Co518 2.091 . S
O520 C526 1.261 . S
C521 O530 1.247 . S
C521 O531 1.272 . S
O522 Co518 2.004 . S
O522 C527 1.259 . S
Co523 O524 2.061 . S
Co523 O529 2.052 . S
Co523 O531 2.135 . S
O524 Co523 2.061 . S
O524 C527 1.235 . S
C525 O528 1.238 . S
C525 O529 1.241 . S
C526 O519 1.247 . S
C526 O520 1.261 . S
C527 O522 1.259 . S
C527 O524 1.235 . S
O528 Co518 2.021 . S
O528 C525 1.238 . S
O529 Co523 2.052 . S
O529 C525 1.241 . S
O530 Co518 2.137 . S
O530 C521 1.247 . S
O531 Co518 2.244 . S
O531 C521 1.272 . S
O531 Co523 2.135 . S
Co532 O533 2.216 . S
Co532 O534 2.091 . S
Co532 O536 2.004 . S
Co532 O542 2.021 . S
Co532 O544 2.137 . S
Co532 O545 2.244 . S
O533 Co532 2.216 . S
O533 C540 1.247 . S
O534 Co532 2.091 . S
O534 C540 1.261 . S
C535 O544 1.247 . S
C535 O545 1.272 . S
O536 Co532 2.004 . S
O536 C541 1.259 . S
Co537 O538 2.061 . S
Co537 O543 2.052 . S
Co537 O545 2.135 . S
O538 Co537 2.061 . S
O538 C541 1.235 . S
C539 O542 1.238 . S
C539 O543 1.241 . S
C540 O533 1.247 . S
C540 O534 1.261 . S
C541 O536 1.259 . S
C541 O538 1.235 . S
O542 Co532 2.021 . S
O542 C539 1.238 . S
O543 Co537 2.052 . S
O543 C539 1.241 . S
O544 Co532 2.137 . S
O544 C535 1.247 . S
O545 Co532 2.244 . S
O545 C535 1.272 . S
O545 Co537 2.135 . S
Co546 O547 2.216 . S
Co546 O548 2.091 . S
Co546 O550 2.004 . S
Co546 O556 2.021 . S
Co546 O558 2.137 . S
Co546 O559 2.244 . S
O547 Co546 2.216 . S
O547 C554 1.247 . S
O548 Co546 2.091 . S
O548 C554 1.261 . S
C549 O558 1.247 . S
C549 O559 1.272 . S
O550 Co546 2.004 . S
O550 C555 1.259 . S
Co551 O552 2.061 . S
Co551 O557 2.052 . S
Co551 O559 2.135 . S
O552 Co551 2.061 . S
O552 C555 1.235 . S
C553 O556 1.238 . S
C553 O557 1.241 . S
C554 O547 1.247 . S
C554 O548 1.261 . S
C555 O550 1.259 . S
C555 O552 1.235 . S
O556 Co546 2.021 . S
O556 C553 1.238 . S
O557 Co551 2.052 . S
O557 C553 1.241 . S
O558 Co546 2.137 . S
O558 C549 1.247 . S
O559 Co546 2.244 . S
O559 C549 1.272 . S
O559 Co551 2.135 . S
Co560 O561 2.216 . S
Co560 O562 2.091 . S
Co560 O564 2.004 . S
Co560 O570 2.021 . S
Co560 O572 2.137 . S
Co560 O573 2.244 . S
O561 Co560 2.216 . S
O561 C568 1.247 . S
O562 Co560 2.091 . S
O562 C568 1.261 . S
C563 O572 1.247 . S
C563 O573 1.272 . S
O564 Co560 2.004 . S
O564 C569 1.259 . S
Co565 O566 2.061 . S
Co565 O571 2.052 . S
Co565 O573 2.135 . S
O566 Co565 2.061 . S
O566 C569 1.235 . S
C567 O570 1.238 . S
C567 O571 1.241 . S
C568 O561 1.247 . S
C568 O562 1.261 . S
C569 O564 1.259 . S
C569 O566 1.235 . S
O570 Co560 2.021 . S
O570 C567 1.238 . S
O571 Co565 2.052 . S
O571 C567 1.241 . S
O572 Co560 2.137 . S
O572 C563 1.247 . S
O573 Co560 2.244 . S
O573 C563 1.272 . S
O573 Co565 2.135 . S
Co574 O575 2.216 . S
Co574 O576 2.091 . S
Co574 O578 2.004 . S
Co574 O584 2.021 . S
Co574 O586 2.137 . S
Co574 O587 2.244 . S
O575 Co574 2.216 . S
O575 C582 1.247 . S
O576 Co574 2.091 . S
O576 C582 1.261 . S
C577 O586 1.247 . S
C577 O587 1.272 . S
O578 Co574 2.004 . S
O578 C583 1.259 . S
Co579 O580 2.061 . S
Co579 O585 2.052 . S
Co579 O587 2.135 . S
O580 Co579 2.061 . S
O580 C583 1.235 . S
C581 O584 1.238 . S
C581 O585 1.241 . S
C582 O575 1.247 . S
C582 O576 1.261 . S
C583 O578 1.259 . S
C583 O580 1.235 . S
O584 Co574 2.021 . S
O584 C581 1.238 . S
O585 Co579 2.052 . S
O585 C581 1.241 . S
O586 Co574 2.137 . S
O586 C577 1.247 . S
O587 Co574 2.244 . S
O587 C577 1.272 . S
O587 Co579 2.135 . S
Co588 O589 2.216 . S
Co588 O590 2.091 . S
Co588 O592 2.004 . S
Co588 O598 2.021 . S
Co588 O600 2.137 . S
Co588 O601 2.244 . S
O589 Co588 2.216 . S
O589 C596 1.247 . S
O590 Co588 2.091 . S
O590 C596 1.261 . S
C591 O600 1.247 . S
C591 O601 1.272 . S
O592 Co588 2.004 . S
O592 C597 1.259 . S
Co593 O594 2.061 . S
Co593 O599 2.052 . S
Co593 O601 2.135 . S
O594 Co593 2.061 . S
O594 C597 1.235 . S
C595 O598 1.238 . S
C595 O599 1.241 . S
C596 O589 1.247 . S
C596 O590 1.261 . S
C597 O592 1.259 . S
C597 O594 1.235 . S
O598 Co588 2.021 . S
O598 C595 1.238 . S
O599 Co593 2.052 . S
O599 C595 1.241 . S
O600 Co588 2.137 . S
O600 C591 1.247 . S
O601 Co588 2.244 . S
O601 C591 1.272 . S
O601 Co593 2.135 . S
Co602 O603 2.216 . S
Co602 O604 2.091 . S
Co602 O606 2.004 . S
Co602 O612 2.021 . S
Co602 O614 2.137 . S
Co602 O615 2.244 . S
O603 Co602 2.216 . S
O603 C610 1.247 . S
O604 Co602 2.091 . S
O604 C610 1.261 . S
C605 O614 1.247 . S
C605 O615 1.272 . S
O606 Co602 2.004 . S
O606 C611 1.259 . S
Co607 O608 2.061 . S
Co607 O613 2.052 . S
Co607 O615 2.135 . S
O608 Co607 2.061 . S
O608 C611 1.235 . S
C609 O612 1.238 . S
C609 O613 1.241 . S
C610 O603 1.247 . S
C610 O604 1.261 . S
C611 O606 1.259 . S
C611 O608 1.235 . S
O612 Co602 2.021 . S
O612 C609 1.238 . S
O613 Co607 2.052 . S
O613 C609 1.241 . S
O614 Co602 2.137 . S
O614 C605 1.247 . S
O615 Co602 2.244 . S
O615 C605 1.272 . S
O615 Co607 2.135 . S
Co616 O617 2.216 . S
Co616 O618 2.091 . S
Co616 O620 2.004 . S
Co616 O626 2.021 . S
Co616 O628 2.137 . S
Co616 O629 2.244 . S
O617 Co616 2.216 . S
O617 C624 1.247 . S
O618 Co616 2.091 . S
O618 C624 1.261 . S
C619 O628 1.247 . S
C619 O629 1.272 . S
O620 Co616 2.004 . S
O620 C625 1.259 . S
Co621 O622 2.061 . S
Co621 O627 2.052 . S
Co621 O629 2.135 . S
O622 Co621 2.061 . S
O622 C625 1.235 . S
C623 O626 1.238 . S
C623 O627 1.241 . S
C624 O617 1.247 . S
C624 O618 1.261 . S
C625 O620 1.259 . S
C625 O622 1.235 . S
O626 Co616 2.021 . S
O626 C623 1.238 . S
O627 Co621 2.052 . S
O627 C623 1.241 . S
O628 Co616 2.137 . S
O628 C619 1.247 . S
O629 Co616 2.244 . S
O629 C619 1.272 . S
O629 Co621 2.135 . S
Co630 O631 2.216 . S
Co630 O632 2.091 . S
Co630 O634 2.004 . S
Co630 O640 2.021 . S
Co630 O642 2.137 . S
Co630 O643 2.244 . S
O631 Co630 2.216 . S
O631 C638 1.247 . S
O632 Co630 2.091 . S
O632 C638 1.261 . S
C633 O642 1.247 . S
C633 O643 1.272 . S
O634 Co630 2.004 . S
O634 C639 1.259 . S
Co635 O636 2.061 . S
Co635 O641 2.052 . S
Co635 O643 2.135 . S
O636 Co635 2.061 . S
O636 C639 1.235 . S
C637 O640 1.238 . S
C637 O641 1.241 . S
C638 O631 1.247 . S
C638 O632 1.261 . S
C639 O634 1.259 . S
C639 O636 1.235 . S
O640 Co630 2.021 . S
O640 C637 1.238 . S
O641 Co635 2.052 . S
O641 C637 1.241 . S
O642 Co630 2.137 . S
O642 C633 1.247 . S
O643 Co630 2.244 . S
O643 C633 1.272 . S
O643 Co635 2.135 . S
Co644 O645 2.216 . S
Co644 O646 2.091 . S
Co644 O648 2.004 . S
Co644 O654 2.021 . S
Co644 O656 2.137 . S
Co644 O657 2.244 . S
O645 Co644 2.216 . S
O645 C652 1.247 . S
O646 Co644 2.091 . S
O646 C652 1.261 . S
C647 O656 1.247 . S
C647 O657 1.272 . S
O648 Co644 2.004 . S
O648 C653 1.259 . S
Co649 O650 2.061 . S
Co649 O655 2.052 . S
Co649 O657 2.135 . S
O650 Co649 2.061 . S
O650 C653 1.235 . S
C651 O654 1.238 . S
C651 O655 1.241 . S
C652 O645 1.247 . S
C652 O646 1.261 . S
C653 O648 1.259 . S
C653 O650 1.235 . S
O654 Co644 2.021 . S
O654 C651 1.238 . S
O655 Co649 2.052 . S
O655 C651 1.241 . S
O656 Co644 2.137 . S
O656 C647 1.247 . S
O657 Co644 2.244 . S
O657 C647 1.272 . S
O657 Co649 2.135 . S
Co658 O659 2.216 . S
Co658 O660 2.091 . S
Co658 O662 2.004 . S
Co658 O668 2.021 . S
Co658 O670 2.137 . S
Co658 O671 2.244 . S
O659 Co658 2.216 . S
O659 C666 1.247 . S
O660 Co658 2.091 . S
O660 C666 1.261 . S
C661 O670 1.247 . S
C661 O671 1.272 . S
O662 Co658 2.004 . S
O662 C667 1.259 . S
Co663 O664 2.061 . S
Co663 O669 2.052 . S
Co663 O671 2.135 . S
O664 Co663 2.061 . S
O664 C667 1.235 . S
C665 O668 1.238 . S
C665 O669 1.241 . S
C666 O659 1.247 . S
C666 O660 1.261 . S
C667 O662 1.259 . S
C667 O664 1.235 . S
O668 Co658 2.021 . S
O668 C665 1.238 . S
O669 Co663 2.052 . S
O669 C665 1.241 . S
O670 Co658 2.137 . S
O670 C661 1.247 . S
O671 Co658 2.244 . S
O671 C661 1.272 . S
O671 Co663 2.135 . S
Co672 O673 2.216 . S
Co672 O674 2.091 . S
Co672 O676 2.004 . S
Co672 O682 2.021 . S
Co672 O684 2.137 . S
Co672 O685 2.244 . S
O673 Co672 2.216 . S
O673 C680 1.247 . S
O674 Co672 2.091 . S
O674 C680 1.261 . S
C675 O684 1.247 . S
C675 O685 1.272 . S
O676 Co672 2.004 . S
O676 C681 1.259 . S
Co677 O678 2.061 . S
Co677 O683 2.052 . S
Co677 O685 2.135 . S
O678 Co677 2.061 . S
O678 C681 1.235 . S
C679 O682 1.238 . S
C679 O683 1.241 . S
C680 O673 1.247 . S
C680 O674 1.261 . S
C681 O676 1.259 . S
C681 O678 1.235 . S
O682 Co672 2.021 . S
O682 C679 1.238 . S
O683 Co677 2.052 . S
O683 C679 1.241 . S
O684 Co672 2.137 . S
O684 C675 1.247 . S
O685 Co672 2.244 . S
O685 C675 1.272 . S
O685 Co677 2.135 . S
Co686 O687 2.216 . S
Co686 O688 2.091 . S
Co686 O690 2.004 . S
Co686 O696 2.021 . S
Co686 O698 2.137 . S
Co686 O699 2.244 . S
O687 Co686 2.216 . S
O687 C694 1.247 . S
O688 Co686 2.091 . S
O688 C694 1.261 . S
C689 O698 1.247 . S
C689 O699 1.272 . S
O690 Co686 2.004 . S
O690 C695 1.259 . S
Co691 O692 2.061 . S
Co691 O697 2.052 . S
Co691 O699 2.135 . S
O692 Co691 2.061 . S
O692 C695 1.235 . S
C693 O696 1.238 . S
C693 O697 1.241 . S
C694 O687 1.247 . S
C694 O688 1.261 . S
C695 O690 1.259 . S
C695 O692 1.235 . S
O696 Co686 2.021 . S
O696 C693 1.238 . S
O697 Co691 2.052 . S
O697 C693 1.241 . S
O698 Co686 2.137 . S
O698 C689 1.247 . S
O699 Co686 2.244 . S
O699 C689 1.272 . S
O699 Co691 2.135 . S
Co700 O701 2.216 . S
Co700 O702 2.091 . S
Co700 O704 2.004 . S
Co700 O710 2.021 . S
Co700 O712 2.137 . S
Co700 O713 2.244 . S
O701 Co700 2.216 . S
O701 C708 1.247 . S
O702 Co700 2.091 . S
O702 C708 1.261 . S
C703 O712 1.247 . S
C703 O713 1.272 . S
O704 Co700 2.004 . S
O704 C709 1.259 . S
Co705 O706 2.061 . S
Co705 O711 2.052 . S
Co705 O713 2.135 . S
O706 Co705 2.061 . S
O706 C709 1.235 . S
C707 O710 1.238 . S
C707 O711 1.241 . S
C708 O701 1.247 . S
C708 O702 1.261 . S
C709 O704 1.259 . S
C709 O706 1.235 . S
O710 Co700 2.021 . S
O710 C707 1.238 . S
O711 Co705 2.052 . S
O711 C707 1.241 . S
O712 Co700 2.137 . S
O712 C703 1.247 . S
O713 Co700 2.244 . S
O713 C703 1.272 . S
O713 Co705 2.135 . S
Co714 O715 2.216 . S
Co714 O716 2.091 . S
Co714 O718 2.004 . S
Co714 O724 2.021 . S
Co714 O726 2.137 . S
Co714 O727 2.244 . S
O715 Co714 2.216 . S
O715 C722 1.247 . S
O716 Co714 2.091 . S
O716 C722 1.261 . S
C717 O726 1.247 . S
C717 O727 1.272 . S
O718 Co714 2.004 . S
O718 C723 1.259 . S
Co719 O720 2.061 . S
Co719 O725 2.052 . S
Co719 O727 2.135 . S
O720 Co719 2.061 . S
O720 C723 1.235 . S
C721 O724 1.238 . S
C721 O725 1.241 . S
C722 O715 1.247 . S
C722 O716 1.261 . S
C723 O718 1.259 . S
C723 O720 1.235 . S
O724 Co714 2.021 . S
O724 C721 1.238 . S
O725 Co719 2.052 . S
O725 C721 1.241 . S
O726 Co714 2.137 . S
O726 C717 1.247 . S
O727 Co714 2.244 . S
O727 C717 1.272 . S
O727 Co719 2.135 . S
Co728 O729 2.216 . S
Co728 O730 2.091 . S
Co728 O732 2.004 . S
Co728 O738 2.021 . S
Co728 O740 2.137 . S
Co728 O741 2.244 . S
O729 Co728 2.216 . S
O729 C736 1.247 . S
O730 Co728 2.091 . S
O730 C736 1.261 . S
C731 O740 1.247 . S
C731 O741 1.272 . S
O732 Co728 2.004 . S
O732 C737 1.259 . S
Co733 O734 2.061 . S
Co733 O739 2.052 . S
Co733 O741 2.135 . S
O734 Co733 2.061 . S
O734 C737 1.235 . S
C735 O738 1.238 . S
C735 O739 1.241 . S
C736 O729 1.247 . S
C736 O730 1.261 . S
C737 O732 1.259 . S
C737 O734 1.235 . S
O738 Co728 2.021 . S
O738 C735 1.238 . S
O739 Co733 2.052 . S
O739 C735 1.241 . S
O740 Co728 2.137 . S
O740 C731 1.247 . S
O741 Co728 2.244 . S
O741 C731 1.272 . S
O741 Co733 2.135 . S
Co742 O743 2.216 . S
Co742 O744 2.091 . S
Co742 O746 2.004 . S
Co742 O752 2.021 . S
Co742 O754 2.137 . S
Co742 O755 2.244 . S
O743 Co742 2.216 . S
O743 C750 1.247 . S
O744 Co742 2.091 . S
O744 C750 1.261 . S
C745 O754 1.247 . S
C745 O755 1.272 . S
O746 Co742 2.004 . S
O746 C751 1.259 . S
Co747 O748 2.061 . S
Co747 O753 2.052 . S
Co747 O755 2.135 . S
O748 Co747 2.061 . S
O748 C751 1.235 . S
C749 O752 1.238 . S
C749 O753 1.241 . S
C750 O743 1.247 . S
C750 O744 1.261 . S
C751 O746 1.259 . S
C751 O748 1.235 . S
O752 Co742 2.021 . S
O752 C749 1.238 . S
O753 Co747 2.052 . S
O753 C749 1.241 . S
O754 Co742 2.137 . S
O754 C745 1.247 . S
O755 Co742 2.244 . S
O755 C745 1.272 . S
O755 Co747 2.135 . S
Co756 O757 2.216 . S
Co756 O758 2.091 . S
Co756 O760 2.004 . S
Co756 O766 2.021 . S
Co756 O768 2.137 . S
Co756 O769 2.244 . S
O757 Co756 2.216 . S
O757 C764 1.247 . S
O758 Co756 2.091 . S
O758 C764 1.261 . S
C759 O768 1.247 . S
C759 O769 1.272 . S
O760 Co756 2.004 . S
O760 C765 1.259 . S
Co761 O762 2.061 . S
Co761 O767 2.052 . S
Co761 O769 2.135 . S
O762 Co761 2.061 . S
O762 C765 1.235 . S
C763 O766 1.238 . S
C763 O767 1.241 . S
C764 O757 1.247 . S
C764 O758 1.261 . S
C765 O760 1.259 . S
C765 O762 1.235 . S
O766 Co756 2.021 . S
O766 C763 1.238 . S
O767 Co761 2.052 . S
O767 C763 1.241 . S
O768 Co756 2.137 . S
O768 C759 1.247 . S
O769 Co756 2.244 . S
O769 C759 1.272 . S
O769 Co761 2.135 . S
Co770 O771 2.216 . S
Co770 O772 2.091 . S
Co770 O774 2.004 . S
Co770 O780 2.021 . S
Co770 O782 2.137 . S
Co770 O783 2.244 . S
O771 Co770 2.216 . S
O771 C778 1.247 . S
O772 Co770 2.091 . S
O772 C778 1.261 . S
C773 O782 1.247 . S
C773 O783 1.272 . S
O774 Co770 2.004 . S
O774 C779 1.259 . S
Co775 O776 2.061 . S
Co775 O781 2.052 . S
Co775 O783 2.135 . S
O776 Co775 2.061 . S
O776 C779 1.235 . S
C777 O780 1.238 . S
C777 O781 1.241 . S
C778 O771 1.247 . S
C778 O772 1.261 . S
C779 O774 1.259 . S
C779 O776 1.235 . S
O780 Co770 2.021 . S
O780 C777 1.238 . S
O781 Co775 2.052 . S
O781 C777 1.241 . S
O782 Co770 2.137 . S
O782 C773 1.247 . S
O783 Co770 2.244 . S
O783 C773 1.272 . S
O783 Co775 2.135 . S
Co784 O785 2.216 . S
Co784 O786 2.091 . S
Co784 O788 2.004 . S
Co784 O794 2.021 . S
Co784 O796 2.137 . S
Co784 O797 2.244 . S
O785 Co784 2.216 . S
O785 C792 1.247 . S
O786 Co784 2.091 . S
O786 C792 1.261 . S
C787 O796 1.247 . S
C787 O797 1.272 . S
O788 Co784 2.004 . S
O788 C793 1.259 . S
Co789 O790 2.061 . S
Co789 O795 2.052 . S
Co789 O797 2.135 . S
O790 Co789 2.061 . S
O790 C793 1.235 . S
C791 O794 1.238 . S
C791 O795 1.241 . S
C792 O785 1.247 . S
C792 O786 1.261 . S
C793 O788 1.259 . S
C793 O790 1.235 . S
O794 Co784 2.021 . S
O794 C791 1.238 . S
O795 Co789 2.052 . S
O795 C791 1.241 . S
O796 Co784 2.137 . S
O796 C787 1.247 . S
O797 Co784 2.244 . S
O797 C787 1.272 . S
O797 Co789 2.135 . S
Co798 O799 2.216 . S
Co798 O800 2.091 . S
Co798 O802 2.004 . S
Co798 O808 2.021 . S
Co798 O810 2.137 . S
Co798 O811 2.244 . S
O799 Co798 2.216 . S
O799 C806 1.247 . S
O800 Co798 2.091 . S
O800 C806 1.261 . S
C801 O810 1.247 . S
C801 O811 1.272 . S
O802 Co798 2.004 . S
O802 C807 1.259 . S
Co803 O804 2.061 . S
Co803 O809 2.052 . S
Co803 O811 2.135 . S
O804 Co803 2.061 . S
O804 C807 1.235 . S
C805 O808 1.238 . S
C805 O809 1.241 . S
C806 O799 1.247 . S
C806 O800 1.261 . S
C807 O802 1.259 . S
C807 O804 1.235 . S
O808 Co798 2.021 . S
O808 C805 1.238 . S
O809 Co803 2.052 . S
O809 C805 1.241 . S
O810 Co798 2.137 . S
O810 C801 1.247 . S
O811 Co798 2.244 . S
O811 C801 1.272 . S
O811 Co803 2.135 . S
Co812 O813 2.216 . S
Co812 O814 2.091 . S
Co812 O816 2.004 . S
Co812 O822 2.021 . S
Co812 O824 2.137 . S
Co812 O825 2.244 . S
O813 Co812 2.216 . S
O813 C820 1.247 . S
O814 Co812 2.091 . S
O814 C820 1.261 . S
C815 O824 1.247 . S
C815 O825 1.272 . S
O816 Co812 2.004 . S
O816 C821 1.259 . S
Co817 O818 2.061 . S
Co817 O823 2.052 . S
Co817 O825 2.135 . S
O818 Co817 2.061 . S
O818 C821 1.235 . S
C819 O822 1.238 . S
C819 O823 1.241 . S
C820 O813 1.247 . S
C820 O814 1.261 . S
C821 O816 1.259 . S
C821 O818 1.235 . S
O822 Co812 2.021 . S
O822 C819 1.238 . S
O823 Co817 2.052 . S
O823 C819 1.241 . S
O824 Co812 2.137 . S
O824 C815 1.247 . S
O825 Co812 2.244 . S
O825 C815 1.272 . S
O825 Co817 2.135 . S
Co826 O827 2.216 . S
Co826 O828 2.091 . S
Co826 O830 2.004 . S
Co826 O836 2.021 . S
Co826 O838 2.137 . S
Co826 O839 2.244 . S
O827 Co826 2.216 . S
O827 C834 1.247 . S
O828 Co826 2.091 . S
O828 C834 1.261 . S
C829 O838 1.247 . S
C829 O839 1.272 . S
O830 Co826 2.004 . S
O830 C835 1.259 . S
Co831 O832 2.061 . S
Co831 O837 2.052 . S
Co831 O839 2.135 . S
O832 Co831 2.061 . S
O832 C835 1.235 . S
C833 O836 1.238 . S
C833 O837 1.241 . S
C834 O827 1.247 . S
C834 O828 1.261 . S
C835 O830 1.259 . S
C835 O832 1.235 . S
O836 Co826 2.021 . S
O836 C833 1.238 . S
O837 Co831 2.052 . S
O837 C833 1.241 . S
O838 Co826 2.137 . S
O838 C829 1.247 . S
O839 Co826 2.244 . S
O839 C829 1.272 . S
O839 Co831 2.135 . S
Co840 O841 2.216 . S
Co840 O842 2.091 . S
Co840 O844 2.004 . S
Co840 O850 2.021 . S
Co840 O852 2.137 . S
Co840 O853 2.244 . S
O841 Co840 2.216 . S
O841 C848 1.247 . S
O842 Co840 2.091 . S
O842 C848 1.261 . S
C843 O852 1.247 . S
C843 O853 1.272 . S
O844 Co840 2.004 . S
O844 C849 1.259 . S
Co845 O846 2.061 . S
Co845 O851 2.052 . S
Co845 O853 2.135 . S
O846 Co845 2.061 . S
O846 C849 1.235 . S
C847 O850 1.238 . S
C847 O851 1.241 . S
C848 O841 1.247 . S
C848 O842 1.261 . S
C849 O844 1.259 . S
C849 O846 1.235 . S
O850 Co840 2.021 . S
O850 C847 1.238 . S
O851 Co845 2.052 . S
O851 C847 1.241 . S
O852 Co840 2.137 . S
O852 C843 1.247 . S
O853 Co840 2.244 . S
O853 C843 1.272 . S
O853 Co845 2.135 . S
Co854 O855 2.216 . S
Co854 O856 2.091 . S
Co854 O858 2.004 . S
Co854 O864 2.021 . S
Co854 O866 2.137 . S
Co854 O867 2.244 . S
O855 Co854 2.216 . S
O855 C862 1.247 . S
O856 Co854 2.091 . S
O856 C862 1.261 . S
C857 O866 1.247 . S
C857 O867 1.272 . S
O858 Co854 2.004 . S
O858 C863 1.259 . S
Co859 O860 2.061 . S
Co859 O865 2.052 . S
Co859 O867 2.135 . S
O860 Co859 2.061 . S
O860 C863 1.235 . S
C861 O864 1.238 . S
C861 O865 1.241 . S
C862 O855 1.247 . S
C862 O856 1.261 . S
C863 O858 1.259 . S
C863 O860 1.235 . S
O864 Co854 2.021 . S
O864 C861 1.238 . S
O865 Co859 2.052 . S
O865 C861 1.241 . S
O866 Co854 2.137 . S
O866 C857 1.247 . S
O867 Co854 2.244 . S
O867 C857 1.272 . S
O867 Co859 2.135 . S
Co868 O869 2.216 . S
Co868 O870 2.091 . S
Co868 O872 2.004 . S
Co868 O878 2.021 . S
Co868 O880 2.137 . S
Co868 O881 2.244 . S
O869 Co868 2.216 . S
O869 C876 1.247 . S
O870 Co868 2.091 . S
O870 C876 1.261 . S
C871 O880 1.247 . S
C871 O881 1.272 . S
O872 Co868 2.004 . S
O872 C877 1.259 . S
Co873 O874 2.061 . S
Co873 O879 2.052 . S
Co873 O881 2.135 . S
O874 Co873 2.061 . S
O874 C877 1.235 . S
C875 O878 1.238 . S
C875 O879 1.241 . S
C876 O869 1.247 . S
C876 O870 1.261 . S
C877 O872 1.259 . S
C877 O874 1.235 . S
O878 Co868 2.021 . S
O878 C875 1.238 . S
O879 Co873 2.052 . S
O879 C875 1.241 . S
O880 Co868 2.137 . S
O880 C871 1.247 . S
O881 Co868 2.244 . S
O881 C871 1.272 . S
O881 Co873 2.135 . S
Co882 O883 2.216 . S
Co882 O884 2.091 . S
Co882 O886 2.004 . S
Co882 O892 2.021 . S
Co882 O894 2.137 . S
Co882 O895 2.244 . S
O883 Co882 2.216 . S
O883 C890 1.247 . S
O884 Co882 2.091 . S
O884 C890 1.261 . S
C885 O894 1.247 . S
C885 O895 1.272 . S
O886 Co882 2.004 . S
O886 C891 1.259 . S
Co887 O888 2.061 . S
Co887 O893 2.052 . S
Co887 O895 2.135 . S
O888 Co887 2.061 . S
O888 C891 1.235 . S
C889 O892 1.238 . S
C889 O893 1.241 . S
C890 O883 1.247 . S
C890 O884 1.261 . S
C891 O886 1.259 . S
C891 O888 1.235 . S
O892 Co882 2.021 . S
O892 C889 1.238 . S
O893 Co887 2.052 . S
O893 C889 1.241 . S
O894 Co882 2.137 . S
O894 C885 1.247 . S
O895 Co882 2.244 . S
O895 C885 1.272 . S
O895 Co887 2.135 . S
Co896 O897 2.216 . S
Co896 O898 2.091 . S
Co896 O900 2.004 . S
Co896 O906 2.021 . S
Co896 O908 2.137 . S
Co896 O909 2.244 . S
O897 Co896 2.216 . S
O897 C904 1.247 . S
O898 Co896 2.091 . S
O898 C904 1.261 . S
C899 O908 1.247 . S
C899 O909 1.272 . S
O900 Co896 2.004 . S
O900 C905 1.259 . S
Co901 O902 2.061 . S
Co901 O907 2.052 . S
Co901 O909 2.135 . S
O902 Co901 2.061 . S
O902 C905 1.235 . S
C903 O906 1.238 . S
C903 O907 1.241 . S
C904 O897 1.247 . S
C904 O898 1.261 . S
C905 O900 1.259 . S
C905 O902 1.235 . S
O906 Co896 2.021 . S
O906 C903 1.238 . S
O907 Co901 2.052 . S
O907 C903 1.241 . S
O908 Co896 2.137 . S
O908 C899 1.247 . S
O909 Co896 2.244 . S
O909 C899 1.272 . S
O909 Co901 2.135 . S
Co910 O911 2.216 . S
Co910 O912 2.091 . S
Co910 O914 2.004 . S
Co910 O920 2.021 . S
Co910 O922 2.137 . S
Co910 O923 2.244 . S
O911 Co910 2.216 . S
O911 C918 1.247 . S
O912 Co910 2.091 . S
O912 C918 1.261 . S
C913 O922 1.247 . S
C913 O923 1.272 . S
O914 Co910 2.004 . S
O914 C919 1.259 . S
Co915 O916 2.061 . S
Co915 O921 2.052 . S
Co915 O923 2.135 . S
O916 Co915 2.061 . S
O916 C919 1.235 . S
C917 O920 1.238 . S
C917 O921 1.241 . S
C918 O911 1.247 . S
C918 O912 1.261 . S
C919 O914 1.259 . S
C919 O916 1.235 . S
O920 Co910 2.021 . S
O920 C917 1.238 . S
O921 Co915 2.052 . S
O921 C917 1.241 . S
O922 Co910 2.137 . S
O922 C913 1.247 . S
O923 Co910 2.244 . S
O923 C913 1.272 . S
O923 Co915 2.135 . S
Co924 O925 2.216 . S
Co924 O926 2.091 . S
Co924 O928 2.004 . S
Co924 O934 2.021 . S
Co924 O936 2.137 . S
Co924 O937 2.244 . S
O925 Co924 2.216 . S
O925 C932 1.247 . S
O926 Co924 2.091 . S
O926 C932 1.261 . S
C927 O936 1.247 . S
C927 O937 1.272 . S
O928 Co924 2.004 . S
O928 C933 1.259 . S
Co929 O930 2.061 . S
Co929 O935 2.052 . S
Co929 O937 2.135 . S
O930 Co929 2.061 . S
O930 C933 1.235 . S
C931 O934 1.238 . S
C931 O935 1.241 . S
C932 O925 1.247 . S
C932 O926 1.261 . S
C933 O928 1.259 . S
C933 O930 1.235 . S
O934 Co924 2.021 . S
O934 C931 1.238 . S
O935 Co929 2.052 . S
O935 C931 1.241 . S
O936 Co924 2.137 . S
O936 C927 1.247 . S
O937 Co924 2.244 . S
O937 C927 1.272 . S
O937 Co929 2.135 . S
Co938 O939 2.216 . S
Co938 O940 2.091 . S
Co938 O942 2.004 . S
Co938 O948 2.021 . S
Co938 O950 2.137 . S
Co938 O951 2.244 . S
O939 Co938 2.216 . S
O939 C946 1.247 . S
O940 Co938 2.091 . S
O940 C946 1.261 . S
C941 O950 1.247 . S
C941 O951 1.272 . S
O942 Co938 2.004 . S
O942 C947 1.259 . S
Co943 O944 2.061 . S
Co943 O949 2.052 . S
Co943 O951 2.135 . S
O944 Co943 2.061 . S
O944 C947 1.235 . S
C945 O948 1.238 . S
C945 O949 1.241 . S
C946 O939 1.247 . S
C946 O940 1.261 . S
C947 O942 1.259 . S
C947 O944 1.235 . S
O948 Co938 2.021 . S
O948 C945 1.238 . S
O949 Co943 2.052 . S
O949 C945 1.241 . S
O950 Co938 2.137 . S
O950 C941 1.247 . S
O951 Co938 2.244 . S
O951 C941 1.272 . S
O951 Co943 2.135 . S
Co952 O953 2.216 . S
Co952 O954 2.091 . S
Co952 O956 2.004 . S
Co952 O962 2.021 . S
Co952 O964 2.137 . S
Co952 O965 2.244 . S
O953 Co952 2.216 . S
O953 C960 1.247 . S
O954 Co952 2.091 . S
O954 C960 1.261 . S
C955 O964 1.247 . S
C955 O965 1.272 . S
O956 Co952 2.004 . S
O956 C961 1.259 . S
Co957 O958 2.061 . S
Co957 O963 2.052 . S
Co957 O965 2.135 . S
O958 Co957 2.061 . S
O958 C961 1.235 . S
C959 O962 1.238 . S
C959 O963 1.241 . S
C960 O953 1.247 . S
C960 O954 1.261 . S
C961 O956 1.259 . S
C961 O958 1.235 . S
O962 Co952 2.021 . S
O962 C959 1.238 . S
O963 Co957 2.052 . S
O963 C959 1.241 . S
O964 Co952 2.137 . S
O964 C955 1.247 . S
O965 Co952 2.244 . S
O965 C955 1.272 . S
O965 Co957 2.135 . S
Co966 O967 2.216 . S
Co966 O968 2.091 . S
Co966 O970 2.004 . S
Co966 O976 2.021 . S
Co966 O978 2.137 . S
Co966 O979 2.244 . S
O967 Co966 2.216 . S
O967 C974 1.247 . S
O968 Co966 2.091 . S
O968 C974 1.261 . S
C969 O978 1.247 . S
C969 O979 1.272 . S
O970 Co966 2.004 . S
O970 C975 1.259 . S
Co971 O972 2.061 . S
Co971 O977 2.052 . S
Co971 O979 2.135 . S
O972 Co971 2.061 . S
O972 C975 1.235 . S
C973 O976 1.238 . S
C973 O977 1.241 . S
C974 O967 1.247 . S
C974 O968 1.261 . S
C975 O970 1.259 . S
C975 O972 1.235 . S
O976 Co966 2.021 . S
O976 C973 1.238 . S
O977 Co971 2.052 . S
O977 C973 1.241 . S
O978 Co966 2.137 . S
O978 C969 1.247 . S
O979 Co966 2.244 . S
O979 C969 1.272 . S
O979 Co971 2.135 . S
Co980 O981 2.216 . S
Co980 O982 2.091 . S
Co980 O984 2.004 . S
Co980 O990 2.021 . S
Co980 O992 2.137 . S
Co980 O993 2.244 . S
O981 Co980 2.216 . S
O981 C988 1.247 . S
O982 Co980 2.091 . S
O982 C988 1.261 . S
C983 O992 1.247 . S
C983 O993 1.272 . S
O984 Co980 2.004 . S
O984 C989 1.259 . S
Co985 O986 2.061 . S
Co985 O991 2.052 . S
Co985 O993 2.135 . S
O986 Co985 2.061 . S
O986 C989 1.235 . S
C987 O990 1.238 . S
C987 O991 1.241 . S
C988 O981 1.247 . S
C988 O982 1.261 . S
C989 O984 1.259 . S
C989 O986 1.235 . S
O990 Co980 2.021 . S
O990 C987 1.238 . S
O991 Co985 2.052 . S
O991 C987 1.241 . S
O992 Co980 2.137 . S
O992 C983 1.247 . S
O993 Co980 2.244 . S
O993 C983 1.272 . S
O993 Co985 2.135 . S
Co994 O995 2.216 . S
Co994 O996 2.091 . S
Co994 O998 2.004 . S
Co994 O1004 2.021 . S
Co994 O1006 2.137 . S
Co994 O1007 2.244 . S
O995 Co994 2.216 . S
O995 C1002 1.247 . S
O996 Co994 2.091 . S
O996 C1002 1.261 . S
C997 O1006 1.247 . S
C997 O1007 1.272 . S
O998 Co994 2.004 . S
O998 C1003 1.259 . S
Co999 O1000 2.061 . S
Co999 O1005 2.052 . S
Co999 O1007 2.135 . S
O1000 Co999 2.061 . S
O1000 C1003 1.235 . S
C1001 O1004 1.238 . S
C1001 O1005 1.241 . S
C1002 O995 1.247 . S
C1002 O996 1.261 . S
C1003 O998 1.259 . S
C1003 O1000 1.235 . S
O1004 Co994 2.021 . S
O1004 C1001 1.238 . S
O1005 Co999 2.052 . S
O1005 C1001 1.241 . S
O1006 Co994 2.137 . S
O1006 C997 1.247 . S
O1007 Co994 2.244 . S
O1007 C997 1.272 . S
O1007 Co999 2.135 . S
Co1008 O1009 2.216 . S
Co1008 O1010 2.091 . S
Co1008 O1012 2.004 . S
Co1008 O1018 2.021 . S
Co1008 O1020 2.137 . S
Co1008 O1021 2.244 . S
O1009 Co1008 2.216 . S
O1009 C1016 1.247 . S
O1010 Co1008 2.091 . S
O1010 C1016 1.261 . S
C1011 O1020 1.247 . S
C1011 O1021 1.272 . S
O1012 Co1008 2.004 . S
O1012 C1017 1.259 . S
Co1013 O1014 2.061 . S
Co1013 O1019 2.052 . S
Co1013 O1021 2.135 . S
O1014 Co1013 2.061 . S
O1014 C1017 1.235 . S
C1015 O1018 1.238 . S
C1015 O1019 1.241 . S
C1016 O1009 1.247 . S
C1016 O1010 1.261 . S
C1017 O1012 1.259 . S
C1017 O1014 1.235 . S
O1018 Co1008 2.021 . S
O1018 C1015 1.238 . S
O1019 Co1013 2.052 . S
O1019 C1015 1.241 . S
O1020 Co1008 2.137 . S
O1020 C1011 1.247 . S
O1021 Co1008 2.244 . S
O1021 C1011 1.272 . S
O1021 Co1013 2.135 . S
Co1022 O1023 2.216 . S
Co1022 O1024 2.091 . S
Co1022 O1026 2.004 . S
Co1022 O1032 2.021 . S
Co1022 O1034 2.137 . S
Co1022 O1035 2.244 . S
O1023 Co1022 2.216 . S
O1023 C1030 1.247 . S
O1024 Co1022 2.091 . S
O1024 C1030 1.261 . S
C1025 O1034 1.247 . S
C1025 O1035 1.272 . S
O1026 Co1022 2.004 . S
O1026 C1031 1.259 . S
Co1027 O1028 2.061 . S
Co1027 O1033 2.052 . S
Co1027 O1035 2.135 . S
O1028 Co1027 2.061 . S
O1028 C1031 1.235 . S
C1029 O1032 1.238 . S
C1029 O1033 1.241 . S
C1030 O1023 1.247 . S
C1030 O1024 1.261 . S
C1031 O1026 1.259 . S
C1031 O1028 1.235 . S
O1032 Co1022 2.021 . S
O1032 C1029 1.238 . S
O1033 Co1027 2.052 . S
O1033 C1029 1.241 . S
O1034 Co1022 2.137 . S
O1034 C1025 1.247 . S
O1035 Co1022 2.244 . S
O1035 C1025 1.272 . S
O1035 Co1027 2.135 . S
Co1036 O1037 2.216 . S
Co1036 O1038 2.091 . S
Co1036 O1040 2.004 . S
Co1036 O1046 2.021 . S
Co1036 O1048 2.137 . S
Co1036 O1049 2.244 . S
O1037 Co1036 2.216 . S
O1037 C1044 1.247 . S
O1038 Co1036 2.091 . S
O1038 C1044 1.261 . S
C1039 O1048 1.247 . S
C1039 O1049 1.272 . S
O1040 Co1036 2.004 . S
O1040 C1045 1.259 . S
Co1041 O1042 2.061 . S
Co1041 O1047 2.052 . S
Co1041 O1049 2.135 . S
O1042 Co1041 2.061 . S
O1042 C1045 1.235 . S
C1043 O1046 1.238 . S
C1043 O1047 1.241 . S
C1044 O1037 1.247 . S
C1044 O1038 1.261 . S
C1045 O1040 1.259 . S
C1045 O1042 1.235 . S
O1046 Co1036 2.021 . S
O1046 C1043 1.238 . S
O1047 Co1041 2.052 . S
O1047 C1043 1.241 . S
O1048 Co1036 2.137 . S
O1048 C1039 1.247 . S
O1049 Co1036 2.244 . S
O1049 C1039 1.272 . S
O1049 Co1041 2.135 . S
Co1050 O1051 2.216 . S
Co1050 O1052 2.091 . S
Co1050 O1054 2.004 . S
Co1050 O1060 2.021 . S
Co1050 O1062 2.137 . S
Co1050 O1063 2.244 . S
O1051 Co1050 2.216 . S
O1051 C1058 1.247 . S
O1052 Co1050 2.091 . S
O1052 C1058 1.261 . S
C1053 O1062 1.247 . S
C1053 O1063 1.272 . S
O1054 Co1050 2.004 . S
O1054 C1059 1.259 . S
Co1055 O1056 2.061 . S
Co1055 O1061 2.052 . S
Co1055 O1063 2.135 . S
O1056 Co1055 2.061 . S
O1056 C1059 1.235 . S
C1057 O1060 1.238 . S
C1057 O1061 1.241 . S
C1058 O1051 1.247 . S
C1058 O1052 1.261 . S
C1059 O1054 1.259 . S
C1059 O1056 1.235 . S
O1060 Co1050 2.021 . S
O1060 C1057 1.238 . S
O1061 Co1055 2.052 . S
O1061 C1057 1.241 . S
O1062 Co1050 2.137 . S
O1062 C1053 1.247 . S
O1063 Co1050 2.244 . S
O1063 C1053 1.272 . S
O1063 Co1055 2.135 . S
Co1064 O1065 2.216 . S
Co1064 O1066 2.091 . S
Co1064 O1068 2.004 . S
Co1064 O1074 2.021 . S
Co1064 O1076 2.137 . S
Co1064 O1077 2.244 . S
O1065 Co1064 2.216 . S
O1065 C1072 1.247 . S
O1066 Co1064 2.091 . S
O1066 C1072 1.261 . S
C1067 O1076 1.247 . S
C1067 O1077 1.272 . S
O1068 Co1064 2.004 . S
O1068 C1073 1.259 . S
Co1069 O1070 2.061 . S
Co1069 O1075 2.052 . S
Co1069 O1077 2.135 . S
O1070 Co1069 2.061 . S
O1070 C1073 1.235 . S
C1071 O1074 1.238 . S
C1071 O1075 1.241 . S
C1072 O1065 1.247 . S
C1072 O1066 1.261 . S
C1073 O1068 1.259 . S
C1073 O1070 1.235 . S
O1074 Co1064 2.021 . S
O1074 C1071 1.238 . S
O1075 Co1069 2.052 . S
O1075 C1071 1.241 . S
O1076 Co1064 2.137 . S
O1076 C1067 1.247 . S
O1077 Co1064 2.244 . S
O1077 C1067 1.272 . S
O1077 Co1069 2.135 . S
Co1078 O1079 2.216 . S
Co1078 O1080 2.091 . S
Co1078 O1082 2.004 . S
Co1078 O1088 2.021 . S
Co1078 O1090 2.137 . S
Co1078 O1091 2.244 . S
O1079 Co1078 2.216 . S
O1079 C1086 1.247 . S
O1080 Co1078 2.091 . S
O1080 C1086 1.261 . S
C1081 O1090 1.247 . S
C1081 O1091 1.272 . S
O1082 Co1078 2.004 . S
O1082 C1087 1.259 . S
Co1083 O1084 2.061 . S
Co1083 O1089 2.052 . S
Co1083 O1091 2.135 . S
O1084 Co1083 2.061 . S
O1084 C1087 1.235 . S
C1085 O1088 1.238 . S
C1085 O1089 1.241 . S
C1086 O1079 1.247 . S
C1086 O1080 1.261 . S
C1087 O1082 1.259 . S
C1087 O1084 1.235 . S
O1088 Co1078 2.021 . S
O1088 C1085 1.238 . S
O1089 Co1083 2.052 . S
O1089 C1085 1.241 . S
O1090 Co1078 2.137 . S
O1090 C1081 1.247 . S
O1091 Co1078 2.244 . S
O1091 C1081 1.272 . S
O1091 Co1083 2.135 . S
Co1092 O1093 2.216 . S
Co1092 O1094 2.091 . S
Co1092 O1096 2.004 . S
Co1092 O1102 2.021 . S
Co1092 O1104 2.137 . S
Co1092 O1105 2.244 . S
O1093 Co1092 2.216 . S
O1093 C1100 1.247 . S
O1094 Co1092 2.091 . S
O1094 C1100 1.261 . S
C1095 O1104 1.247 . S
C1095 O1105 1.272 . S
O1096 Co1092 2.004 . S
O1096 C1101 1.259 . S
Co1097 O1098 2.061 . S
Co1097 O1103 2.052 . S
Co1097 O1105 2.135 . S
O1098 Co1097 2.061 . S
O1098 C1101 1.235 . S
C1099 O1102 1.238 . S
C1099 O1103 1.241 . S
C1100 O1093 1.247 . S
C1100 O1094 1.261 . S
C1101 O1096 1.259 . S
C1101 O1098 1.235 . S
O1102 Co1092 2.021 . S
O1102 C1099 1.238 . S
O1103 Co1097 2.052 . S
O1103 C1099 1.241 . S
O1104 Co1092 2.137 . S
O1104 C1095 1.247 . S
O1105 Co1092 2.244 . S
O1105 C1095 1.272 . S
O1105 Co1097 2.135 . S
Co1106 O1107 2.216 . S
Co1106 O1108 2.091 . S
Co1106 O1110 2.004 . S
Co1106 O1116 2.021 . S
Co1106 O1118 2.137 . S
Co1106 O1119 2.244 . S
O1107 Co1106 2.216 . S
O1107 C1114 1.247 . S
O1108 Co1106 2.091 . S
O1108 C1114 1.261 . S
C1109 O1118 1.247 . S
C1109 O1119 1.272 . S
O1110 Co1106 2.004 . S
O1110 C1115 1.259 . S
Co1111 O1112 2.061 . S
Co1111 O1117 2.052 . S
Co1111 O1119 2.135 . S
O1112 Co1111 2.061 . S
O1112 C1115 1.235 . S
C1113 O1116 1.238 . S
C1113 O1117 1.241 . S
C1114 O1107 1.247 . S
C1114 O1108 1.261 . S
C1115 O1110 1.259 . S
C1115 O1112 1.235 . S
O1116 Co1106 2.021 . S
O1116 C1113 1.238 . S
O1117 Co1111 2.052 . S
O1117 C1113 1.241 . S
O1118 Co1106 2.137 . S
O1118 C1109 1.247 . S
O1119 Co1106 2.244 . S
O1119 C1109 1.272 . S
O1119 Co1111 2.135 . S
Co1120 O1121 2.216 . S
Co1120 O1122 2.091 . S
Co1120 O1124 2.004 . S
Co1120 O1130 2.021 . S
Co1120 O1132 2.137 . S
Co1120 O1133 2.244 . S
O1121 Co1120 2.216 . S
O1121 C1128 1.247 . S
O1122 Co1120 2.091 . S
O1122 C1128 1.261 . S
C1123 O1132 1.247 . S
C1123 O1133 1.272 . S
O1124 Co1120 2.004 . S
O1124 C1129 1.259 . S
Co1125 O1126 2.061 . S
Co1125 O1131 2.052 . S
Co1125 O1133 2.135 . S
O1126 Co1125 2.061 . S
O1126 C1129 1.235 . S
C1127 O1130 1.238 . S
C1127 O1131 1.241 . S
C1128 O1121 1.247 . S
C1128 O1122 1.261 . S
C1129 O1124 1.259 . S
C1129 O1126 1.235 . S
O1130 Co1120 2.021 . S
O1130 C1127 1.238 . S
O1131 Co1125 2.052 . S
O1131 C1127 1.241 . S
O1132 Co1120 2.137 . S
O1132 C1123 1.247 . S
O1133 Co1120 2.244 . S
O1133 C1123 1.272 . S
O1133 Co1125 2.135 . S
Co1134 O1135 2.216 . S
Co1134 O1136 2.091 . S
Co1134 O1138 2.004 . S
Co1134 O1144 2.021 . S
Co1134 O1146 2.137 . S
Co1134 O1147 2.244 . S
O1135 Co1134 2.216 . S
O1135 C1142 1.247 . S
O1136 Co1134 2.091 . S
O1136 C1142 1.261 . S
C1137 O1146 1.247 . S
C1137 O1147 1.272 . S
O1138 Co1134 2.004 . S
O1138 C1143 1.259 . S
Co1139 O1140 2.061 . S
Co1139 O1145 2.052 . S
Co1139 O1147 2.135 . S
O1140 Co1139 2.061 . S
O1140 C1143 1.235 . S
C1141 O1144 1.238 . S
C1141 O1145 1.241 . S
C1142 O1135 1.247 . S
C1142 O1136 1.261 . S
C1143 O1138 1.259 . S
C1143 O1140 1.235 . S
O1144 Co1134 2.021 . S
O1144 C1141 1.238 . S
O1145 Co1139 2.052 . S
O1145 C1141 1.241 . S
O1146 Co1134 2.137 . S
O1146 C1137 1.247 . S
O1147 Co1134 2.244 . S
O1147 C1137 1.272 . S
O1147 Co1139 2.135 . S
Co1148 O1149 2.216 . S
Co1148 O1150 2.091 . S
Co1148 O1152 2.004 . S
Co1148 O1158 2.021 . S
Co1148 O1160 2.137 . S
Co1148 O1161 2.244 . S
O1149 Co1148 2.216 . S
O1149 C1156 1.247 . S
O1150 Co1148 2.091 . S
O1150 C1156 1.261 . S
C1151 O1160 1.247 . S
C1151 O1161 1.272 . S
O1152 Co1148 2.004 . S
O1152 C1157 1.259 . S
Co1153 O1154 2.061 . S
Co1153 O1159 2.052 . S
Co1153 O1161 2.135 . S
O1154 Co1153 2.061 . S
O1154 C1157 1.235 . S
C1155 O1158 1.238 . S
C1155 O1159 1.241 . S
C1156 O1149 1.247 . S
C1156 O1150 1.261 . S
C1157 O1152 1.259 . S
C1157 O1154 1.235 . S
O1158 Co1148 2.021 . S
O1158 C1155 1.238 . S
O1159 Co1153 2.052 . S
O1159 C1155 1.241 . S
O1160 Co1148 2.137 . S
O1160 C1151 1.247 . S
O1161 Co1148 2.244 . S
O1161 C1151 1.272 . S
O1161 Co1153 2.135 . S
Co1162 O1163 2.216 . S
Co1162 O1164 2.091 . S
Co1162 O1166 2.004 . S
Co1162 O1172 2.021 . S
Co1162 O1174 2.137 . S
Co1162 O1175 2.244 . S
O1163 Co1162 2.216 . S
O1163 C1170 1.247 . S
O1164 Co1162 2.091 . S
O1164 C1170 1.261 . S
C1165 O1174 1.247 . S
C1165 O1175 1.272 . S
O1166 Co1162 2.004 . S
O1166 C1171 1.259 . S
Co1167 O1168 2.061 . S
Co1167 O1173 2.052 . S
Co1167 O1175 2.135 . S
O1168 Co1167 2.061 . S
O1168 C1171 1.235 . S
C1169 O1172 1.238 . S
C1169 O1173 1.241 . S
C1170 O1163 1.247 . S
C1170 O1164 1.261 . S
C1171 O1166 1.259 . S
C1171 O1168 1.235 . S
O1172 Co1162 2.021 . S
O1172 C1169 1.238 . S
O1173 Co1167 2.052 . S
O1173 C1169 1.241 . S
O1174 Co1162 2.137 . S
O1174 C1165 1.247 . S
O1175 Co1162 2.244 . S
O1175 C1165 1.272 . S
O1175 Co1167 2.135 . S
Co1176 O1177 2.216 . S
Co1176 O1178 2.091 . S
Co1176 O1180 2.004 . S
Co1176 O1186 2.021 . S
Co1176 O1188 2.137 . S
Co1176 O1189 2.244 . S
O1177 Co1176 2.216 . S
O1177 C1184 1.247 . S
O1178 Co1176 2.091 . S
O1178 C1184 1.261 . S
C1179 O1188 1.247 . S
C1179 O1189 1.272 . S
O1180 Co1176 2.004 . S
O1180 C1185 1.259 . S
Co1181 O1182 2.061 . S
Co1181 O1187 2.052 . S
Co1181 O1189 2.135 . S
O1182 Co1181 2.061 . S
O1182 C1185 1.235 . S
C1183 O1186 1.238 . S
C1183 O1187 1.241 . S
C1184 O1177 1.247 . S
C1184 O1178 1.261 . S
C1185 O1180 1.259 . S
C1185 O1182 1.235 . S
O1186 Co1176 2.021 . S
O1186 C1183 1.238 . S
O1187 Co1181 2.052 . S
O1187 C1183 1.241 . S
O1188 Co1176 2.137 . S
O1188 C1179 1.247 . S
O1189 Co1176 2.244 . S
O1189 C1179 1.272 . S
O1189 Co1181 2.135 . S
Co1190 O1191 2.216 . S
Co1190 O1192 2.091 . S
Co1190 O1194 2.004 . S
Co1190 O1200 2.021 . S
Co1190 O1202 2.137 . S
Co1190 O1203 2.244 . S
O1191 Co1190 2.216 . S
O1191 C1198 1.247 . S
O1192 Co1190 2.091 . S
O1192 C1198 1.261 . S
C1193 O1202 1.247 . S
C1193 O1203 1.272 . S
O1194 Co1190 2.004 . S
O1194 C1199 1.259 . S
Co1195 O1196 2.061 . S
Co1195 O1201 2.052 . S
Co1195 O1203 2.135 . S
O1196 Co1195 2.061 . S
O1196 C1199 1.235 . S
C1197 O1200 1.238 . S
C1197 O1201 1.241 . S
C1198 O1191 1.247 . S
C1198 O1192 1.261 . S
C1199 O1194 1.259 . S
C1199 O1196 1.235 . S
O1200 Co1190 2.021 . S
O1200 C1197 1.238 . S
O1201 Co1195 2.052 . S
O1201 C1197 1.241 . S
O1202 Co1190 2.137 . S
O1202 C1193 1.247 . S
O1203 Co1190 2.244 . S
O1203 C1193 1.272 . S
O1203 Co1195 2.135 . S
Co1204 O1205 2.216 . S
Co1204 O1206 2.091 . S
Co1204 O1208 2.004 . S
Co1204 O1214 2.021 . S
Co1204 O1216 2.137 . S
Co1204 O1217 2.244 . S
O1205 Co1204 2.216 . S
O1205 C1212 1.247 . S
O1206 Co1204 2.091 . S
O1206 C1212 1.261 . S
C1207 O1216 1.247 . S
C1207 O1217 1.272 . S
O1208 Co1204 2.004 . S
O1208 C1213 1.259 . S
Co1209 O1210 2.061 . S
Co1209 O1215 2.052 . S
Co1209 O1217 2.135 . S
O1210 Co1209 2.061 . S
O1210 C1213 1.235 . S
C1211 O1214 1.238 . S
C1211 O1215 1.241 . S
C1212 O1205 1.247 . S
C1212 O1206 1.261 . S
C1213 O1208 1.259 . S
C1213 O1210 1.235 . S
O1214 Co1204 2.021 . S
O1214 C1211 1.238 . S
O1215 Co1209 2.052 . S
O1215 C1211 1.241 . S
O1216 Co1204 2.137 . S
O1216 C1207 1.247 . S
O1217 Co1204 2.244 . S
O1217 C1207 1.272 . S
O1217 Co1209 2.135 . S
Co1218 O1219 2.216 . S
Co1218 O1220 2.091 . S
Co1218 O1222 2.004 . S
Co1218 O1228 2.021 . S
Co1218 O1230 2.137 . S
Co1218 O1231 2.244 . S
O1219 Co1218 2.216 . S
O1219 C1226 1.247 . S
O1220 Co1218 2.091 . S
O1220 C1226 1.261 . S
C1221 O1230 1.247 . S
C1221 O1231 1.272 . S
O1222 Co1218 2.004 . S
O1222 C1227 1.259 . S
Co1223 O1224 2.061 . S
Co1223 O1229 2.052 . S
Co1223 O1231 2.135 . S
O1224 Co1223 2.061 . S
O1224 C1227 1.235 . S
C1225 O1228 1.238 . S
C1225 O1229 1.241 . S
C1226 O1219 1.247 . S
C1226 O1220 1.261 . S
C1227 O1222 1.259 . S
C1227 O1224 1.235 . S
O1228 Co1218 2.021 . S
O1228 C1225 1.238 . S
O1229 Co1223 2.052 . S
O1229 C1225 1.241 . S
O1230 Co1218 2.137 . S
O1230 C1221 1.247 . S
O1231 Co1218 2.244 . S
O1231 C1221 1.272 . S
O1231 Co1223 2.135 . S
Co1232 O1233 2.216 . S
Co1232 O1234 2.091 . S
Co1232 O1236 2.004 . S
Co1232 O1242 2.021 . S
Co1232 O1244 2.137 . S
Co1232 O1245 2.244 . S
O1233 Co1232 2.216 . S
O1233 C1240 1.247 . S
O1234 Co1232 2.091 . S
O1234 C1240 1.261 . S
C1235 O1244 1.247 . S
C1235 O1245 1.272 . S
O1236 Co1232 2.004 . S
O1236 C1241 1.259 . S
Co1237 O1238 2.061 . S
Co1237 O1243 2.052 . S
Co1237 O1245 2.135 . S
O1238 Co1237 2.061 . S
O1238 C1241 1.235 . S
C1239 O1242 1.238 . S
C1239 O1243 1.241 . S
C1240 O1233 1.247 . S
C1240 O1234 1.261 . S
C1241 O1236 1.259 . S
C1241 O1238 1.235 . S
O1242 Co1232 2.021 . S
O1242 C1239 1.238 . S
O1243 Co1237 2.052 . S
O1243 C1239 1.241 . S
O1244 Co1232 2.137 . S
O1244 C1235 1.247 . S
O1245 Co1232 2.244 . S
O1245 C1235 1.272 . S
O1245 Co1237 2.135 . S
Co1246 O1247 2.216 . S
Co1246 O1248 2.091 . S
Co1246 O1250 2.004 . S
Co1246 O1256 2.021 . S
Co1246 O1258 2.137 . S
Co1246 O1259 2.244 . S
O1247 Co1246 2.216 . S
O1247 C1254 1.247 . S
O1248 Co1246 2.091 . S
O1248 C1254 1.261 . S
C1249 O1258 1.247 . S
C1249 O1259 1.272 . S
O1250 Co1246 2.004 . S
O1250 C1255 1.259 . S
Co1251 O1252 2.061 . S
Co1251 O1257 2.052 . S
Co1251 O1259 2.135 . S
O1252 Co1251 2.061 . S
O1252 C1255 1.235 . S
C1253 O1256 1.238 . S
C1253 O1257 1.241 . S
C1254 O1247 1.247 . S
C1254 O1248 1.261 . S
C1255 O1250 1.259 . S
C1255 O1252 1.235 . S
O1256 Co1246 2.021 . S
O1256 C1253 1.238 . S
O1257 Co1251 2.052 . S
O1257 C1253 1.241 . S
O1258 Co1246 2.137 . S
O1258 C1249 1.247 . S
O1259 Co1246 2.244 . S
O1259 C1249 1.272 . S
O1259 Co1251 2.135 . S
Co1260 O1261 2.216 . S
Co1260 O1262 2.091 . S
Co1260 O1264 2.004 . S
Co1260 O1270 2.021 . S
Co1260 O1272 2.137 . S
Co1260 O1273 2.244 . S
O1261 Co1260 2.216 . S
O1261 C1268 1.247 . S
O1262 Co1260 2.091 . S
O1262 C1268 1.261 . S
C1263 O1272 1.247 . S
C1263 O1273 1.272 . S
O1264 Co1260 2.004 . S
O1264 C1269 1.259 . S
Co1265 O1266 2.061 . S
Co1265 O1271 2.052 . S
Co1265 O1273 2.135 . S
O1266 Co1265 2.061 . S
O1266 C1269 1.235 . S
C1267 O1270 1.238 . S
C1267 O1271 1.241 . S
C1268 O1261 1.247 . S
C1268 O1262 1.261 . S
C1269 O1264 1.259 . S
C1269 O1266 1.235 . S
O1270 Co1260 2.021 . S
O1270 C1267 1.238 . S
O1271 Co1265 2.052 . S
O1271 C1267 1.241 . S
O1272 Co1260 2.137 . S
O1272 C1263 1.247 . S
O1273 Co1260 2.244 . S
O1273 C1263 1.272 . S
O1273 Co1265 2.135 . S
Co1274 O1275 2.216 . S
Co1274 O1276 2.091 . S
Co1274 O1278 2.004 . S
Co1274 O1284 2.021 . S
Co1274 O1286 2.137 . S
Co1274 O1287 2.244 . S
O1275 Co1274 2.216 . S
O1275 C1282 1.247 . S
O1276 Co1274 2.091 . S
O1276 C1282 1.261 . S
C1277 O1286 1.247 . S
C1277 O1287 1.272 . S
O1278 Co1274 2.004 . S
O1278 C1283 1.259 . S
Co1279 O1280 2.061 . S
Co1279 O1285 2.052 . S
Co1279 O1287 2.135 . S
O1280 Co1279 2.061 . S
O1280 C1283 1.235 . S
C1281 O1284 1.238 . S
C1281 O1285 1.241 . S
C1282 O1275 1.247 . S
C1282 O1276 1.261 . S
C1283 O1278 1.259 . S
C1283 O1280 1.235 . S
O1284 Co1274 2.021 . S
O1284 C1281 1.238 . S
O1285 Co1279 2.052 . S
O1285 C1281 1.241 . S
O1286 Co1274 2.137 . S
O1286 C1277 1.247 . S
O1287 Co1274 2.244 . S
O1287 C1277 1.272 . S
O1287 Co1279 2.135 . S
Co1288 O1289 2.216 . S
Co1288 O1290 2.091 . S
Co1288 O1292 2.004 . S
Co1288 O1298 2.021 . S
Co1288 O1300 2.137 . S
Co1288 O1301 2.244 . S
O1289 Co1288 2.216 . S
O1289 C1296 1.247 . S
O1290 Co1288 2.091 . S
O1290 C1296 1.261 . S
C1291 O1300 1.247 . S
C1291 O1301 1.272 . S
O1292 Co1288 2.004 . S
O1292 C1297 1.259 . S
Co1293 O1294 2.061 . S
Co1293 O1299 2.052 . S
Co1293 O1301 2.135 . S
O1294 Co1293 2.061 . S
O1294 C1297 1.235 . S
C1295 O1298 1.238 . S
C1295 O1299 1.241 . S
C1296 O1289 1.247 . S
C1296 O1290 1.261 . S
C1297 O1292 1.259 . S
C1297 O1294 1.235 . S
O1298 Co1288 2.021 . S
O1298 C1295 1.238 . S
O1299 Co1293 2.052 . S
O1299 C1295 1.241 . S
O1300 Co1288 2.137 . S
O1300 C1291 1.247 . S
O1301 Co1288 2.244 . S
O1301 C1291 1.272 . S
O1301 Co1293 2.135 . S
Co1302 O1303 2.216 . S
Co1302 O1304 2.091 . S
Co1302 O1306 2.004 . S
Co1302 O1312 2.021 . S
Co1302 O1314 2.137 . S
Co1302 O1315 2.244 . S
O1303 Co1302 2.216 . S
O1303 C1310 1.247 . S
O1304 Co1302 2.091 . S
O1304 C1310 1.261 . S
C1305 O1314 1.247 . S
C1305 O1315 1.272 . S
O1306 Co1302 2.004 . S
O1306 C1311 1.259 . S
Co1307 O1308 2.061 . S
Co1307 O1313 2.052 . S
Co1307 O1315 2.135 . S
O1308 Co1307 2.061 . S
O1308 C1311 1.235 . S
C1309 O1312 1.238 . S
C1309 O1313 1.241 . S
C1310 O1303 1.247 . S
C1310 O1304 1.261 . S
C1311 O1306 1.259 . S
C1311 O1308 1.235 . S
O1312 Co1302 2.021 . S
O1312 C1309 1.238 . S
O1313 Co1307 2.052 . S
O1313 C1309 1.241 . S
O1314 Co1302 2.137 . S
O1314 C1305 1.247 . S
O1315 Co1302 2.244 . S
O1315 C1305 1.272 . S
O1315 Co1307 2.135 . S
Co1316 O1317 2.216 . S
Co1316 O1318 2.091 . S
Co1316 O1320 2.004 . S
Co1316 O1326 2.021 . S
Co1316 O1328 2.137 . S
Co1316 O1329 2.244 . S
O1317 Co1316 2.216 . S
O1317 C1324 1.247 . S
O1318 Co1316 2.091 . S
O1318 C1324 1.261 . S
C1319 O1328 1.247 . S
C1319 O1329 1.272 . S
O1320 Co1316 2.004 . S
O1320 C1325 1.259 . S
Co1321 O1322 2.061 . S
Co1321 O1327 2.052 . S
Co1321 O1329 2.135 . S
O1322 Co1321 2.061 . S
O1322 C1325 1.235 . S
C1323 O1326 1.238 . S
C1323 O1327 1.241 . S
C1324 O1317 1.247 . S
C1324 O1318 1.261 . S
C1325 O1320 1.259 . S
C1325 O1322 1.235 . S
O1326 Co1316 2.021 . S
O1326 C1323 1.238 . S
O1327 Co1321 2.052 . S
O1327 C1323 1.241 . S
O1328 Co1316 2.137 . S
O1328 C1319 1.247 . S
O1329 Co1316 2.244 . S
O1329 C1319 1.272 . S
O1329 Co1321 2.135 . S
Co1330 O1331 2.216 . S
Co1330 O1332 2.091 . S
Co1330 O1334 2.004 . S
Co1330 O1340 2.021 . S
Co1330 O1342 2.137 . S
Co1330 O1343 2.244 . S
O1331 Co1330 2.216 . S
O1331 C1338 1.247 . S
O1332 Co1330 2.091 . S
O1332 C1338 1.261 . S
C1333 O1342 1.247 . S
C1333 O1343 1.272 . S
O1334 Co1330 2.004 . S
O1334 C1339 1.259 . S
Co1335 O1336 2.061 . S
Co1335 O1341 2.052 . S
Co1335 O1343 2.135 . S
O1336 Co1335 2.061 . S
O1336 C1339 1.235 . S
C1337 O1340 1.238 . S
C1337 O1341 1.241 . S
C1338 O1331 1.247 . S
C1338 O1332 1.261 . S
C1339 O1334 1.259 . S
C1339 O1336 1.235 . S
O1340 Co1330 2.021 . S
O1340 C1337 1.238 . S
O1341 Co1335 2.052 . S
O1341 C1337 1.241 . S
O1342 Co1330 2.137 . S
O1342 C1333 1.247 . S
O1343 Co1330 2.244 . S
O1343 C1333 1.272 . S
O1343 Co1335 2.135 . S
H1344 C1352 0.950 . S
H1345 C1357 0.948 . S
H1346 C1354 0.950 1_556 S
H1347 C1356 0.950 . S
H1348 C1358 0.950 . S
H1349 C1360 0.950 1_554 S
H1350 C1362 0.950 . S
H1351 C1363 0.948 . S
C1352 H1344 0.950 . S
C1352 C1353 1.386 . S
C1352 C1354 1.391 . S
C1353 C1352 1.386 . S
C1353 C1357 1.393 . S
C1354 H1346 0.950 1_554 S
C1354 C1352 1.391 . S
C1354 C1355 1.400 . S
C1355 C1354 1.400 . S
C1355 C1356 1.398 1_455 S
C1355 C1361 1.491 1_454 S
C1356 H1347 0.950 . S
C1356 C1355 1.398 1_655 S
C1356 C1357 1.391 1_655 S
C1357 H1345 0.948 . S
C1357 C1353 1.393 . S
C1357 C1356 1.391 1_455 S
C1358 H1348 0.950 . S
C1358 C1359 1.386 . S
C1358 C1360 1.391 . S
C1359 C1358 1.386 . S
C1359 C1363 1.393 . S
C1360 H1349 0.950 1_556 S
C1360 C1358 1.391 . S
C1360 C1361 1.400 . S
C1361 C1355 1.491 1_656 S
C1361 C1360 1.400 . S
C1361 C1362 1.398 1_655 S
C1362 H1350 0.950 . S
C1362 C1361 1.398 1_455 S
C1362 C1363 1.391 1_455 S
C1363 H1351 0.948 . S
C1363 C1359 1.393 . S
C1363 C1362 1.391 1_655 S
H1364 C1372 0.950 . S
H1365 C1377 0.950 . S
H1366 C1374 0.950 . S
H1367 C1376 0.950 . S
H1368 C1378 0.950 . S
H1369 C1380 0.950 . S
H1370 C1382 0.950 . S
H1371 C1383 0.950 . S
C1372 H1364 0.950 . S
C1372 C1373 1.386 . S
C1372 C1374 1.391 . S
C1373 C1372 1.386 . S
C1373 C1377 1.393 . S
C1374 H1366 0.950 . S
C1374 C1372 1.391 . S
C1374 C1375 1.400 . S
C1375 C1374 1.400 . S
C1375 C1376 1.398 . S
C1375 C1381 1.491 . S
C1376 H1367 0.950 . S
C1376 C1375 1.398 . S
C1376 C1377 1.391 . S
C1377 H1365 0.950 . S
C1377 C1373 1.393 . S
C1377 C1376 1.391 . S
C1378 H1368 0.950 . S
C1378 C1379 1.386 . S
C1378 C1380 1.391 . S
C1379 C1378 1.386 . S
C1379 C1383 1.393 . S
C1380 H1369 0.950 . S
C1380 C1378 1.391 . S
C1380 C1381 1.400 . S
C1381 C1375 1.491 . S
C1381 C1380 1.400 . S
C1381 C1382 1.398 . S
C1382 H1370 0.950 . S
C1382 C1381 1.398 . S
C1382 C1383 1.391 . S
C1383 H1371 0.950 . S
C1383 C1379 1.393 . S
C1383 C1382 1.391 . S
H1384 C1392 0.950 . S
H1385 C1397 0.950 . S
H1386 C1394 0.950 1_455 S
H1387 C1396 0.950 . S
H1388 C1398 0.950 . S
H1389 C1400 0.950 1_655 S
H1390 C1402 0.950 . S
H1391 C1403 0.950 . S
C1392 H1384 0.950 . S
C1392 C1393 1.386 . S
C1392 C1394 1.391 . S
C1393 C1392 1.386 . S
C1393 C1397 1.393 . S
C1394 H1386 0.950 1_655 S
C1394 C1392 1.391 . S
C1394 C1395 1.400 . S
C1395 C1394 1.400 . S
C1395 C1396 1.398 . S
C1395 C1401 1.491 1_655 S
C1396 H1387 0.950 . S
C1396 C1395 1.398 . S
C1396 C1397 1.391 . S
C1397 H1385 0.950 . S
C1397 C1393 1.393 . S
C1397 C1396 1.391 . S
C1398 H1388 0.950 . S
C1398 C1399 1.386 . S
C1398 C1400 1.391 . S
C1399 C1398 1.386 . S
C1399 C1403 1.393 . S
C1400 H1389 0.950 1_455 S
C1400 C1398 1.391 . S
C1400 C1401 1.400 . S
C1401 C1395 1.491 1_455 S
C1401 C1400 1.400 . S
C1401 C1402 1.398 . S
C1402 H1390 0.950 . S
C1402 C1401 1.398 . S
C1402 C1403 1.391 . S
C1403 H1391 0.950 . S
C1403 C1399 1.393 . S
C1403 C1402 1.391 . S
H1404 C1412 0.950 . S
H1405 C1417 0.950 . S
H1406 C1414 0.950 . S
H1407 C1416 0.950 . S
H1408 C1418 0.950 . S
H1409 C1420 0.950 . S
H1410 C1422 0.950 . S
H1411 C1423 0.950 . S
C1412 H1404 0.950 . S
C1412 C1413 1.386 . S
C1412 C1414 1.391 . S
C1413 C1412 1.386 . S
C1413 C1417 1.393 . S
C1414 H1406 0.950 . S
C1414 C1412 1.391 . S
C1414 C1415 1.400 . S
C1415 C1414 1.400 . S
C1415 C1416 1.398 . S
C1415 C1421 1.491 . S
C1416 H1407 0.950 . S
C1416 C1415 1.398 . S
C1416 C1417 1.391 . S
C1417 H1405 0.950 . S
C1417 C1413 1.393 . S
C1417 C1416 1.391 . S
C1418 H1408 0.950 . S
C1418 C1419 1.386 . S
C1418 C1420 1.391 . S
C1419 C1418 1.386 . S
C1419 C1423 1.393 . S
C1420 H1409 0.950 . S
C1420 C1418 1.391 . S
C1420 C1421 1.400 . S
C1421 C1415 1.491 . S
C1421 C1420 1.400 . S
C1421 C1422 1.398 . S
C1422 H1410 0.950 . S
C1422 C1421 1.398 . S
C1422 C1423 1.391 . S
C1423 H1411 0.950 . S
C1423 C1419 1.393 . S
C1423 C1422 1.391 . S
H1424 C1432 0.950 . S
H1425 C1437 0.948 . S
H1426 C1434 0.950 1_556 S
H1427 C1436 0.950 . S
H1428 C1438 0.950 . S
H1429 C1440 0.950 1_554 S
H1430 C1442 0.950 . S
H1431 C1443 0.948 . S
C1432 H1424 0.950 . S
C1432 C1433 1.386 . S
C1432 C1434 1.391 . S
C1433 C1432 1.386 . S
C1433 C1437 1.393 . S
C1434 H1426 0.950 1_554 S
C1434 C1432 1.391 . S
C1434 C1435 1.400 . S
C1435 C1434 1.400 . S
C1435 C1436 1.398 1_655 S
C1435 C1441 1.491 1_654 S
C1436 H1427 0.950 . S
C1436 C1435 1.398 1_455 S
C1436 C1437 1.391 1_455 S
C1437 H1425 0.948 . S
C1437 C1433 1.393 . S
C1437 C1436 1.391 1_655 S
C1438 H1428 0.950 . S
C1438 C1439 1.386 . S
C1438 C1440 1.391 . S
C1439 C1438 1.386 . S
C1439 C1443 1.393 . S
C1440 H1429 0.950 1_556 S
C1440 C1438 1.391 . S
C1440 C1441 1.400 . S
C1441 C1435 1.491 1_456 S
C1441 C1440 1.400 . S
C1441 C1442 1.398 1_455 S
C1442 H1430 0.950 . S
C1442 C1441 1.398 1_655 S
C1442 C1443 1.391 1_655 S
C1443 H1431 0.948 . S
C1443 C1439 1.393 . S
C1443 C1442 1.391 1_455 S
H1444 C1452 0.950 . S
H1445 C1457 0.950 . S
H1446 C1454 0.950 . S
H1447 C1456 0.950 . S
H1448 C1458 0.950 . S
H1449 C1460 0.950 . S
H1450 C1462 0.950 . S
H1451 C1463 0.950 . S
C1452 H1444 0.950 . S
C1452 C1453 1.386 . S
C1452 C1454 1.391 . S
C1453 C1452 1.386 . S
C1453 C1457 1.393 . S
C1454 H1446 0.950 . S
C1454 C1452 1.391 . S
C1454 C1455 1.400 . S
C1455 C1454 1.400 . S
C1455 C1456 1.398 . S
C1455 C1461 1.491 . S
C1456 H1447 0.950 . S
C1456 C1455 1.398 . S
C1456 C1457 1.391 . S
C1457 H1445 0.950 . S
C1457 C1453 1.393 . S
C1457 C1456 1.391 . S
C1458 H1448 0.950 . S
C1458 C1459 1.386 . S
C1458 C1460 1.391 . S
C1459 C1458 1.386 . S
C1459 C1463 1.393 . S
C1460 H1449 0.950 . S
C1460 C1458 1.391 . S
C1460 C1461 1.400 . S
C1461 C1455 1.491 . S
C1461 C1460 1.400 . S
C1461 C1462 1.398 . S
C1462 H1450 0.950 . S
C1462 C1461 1.398 . S
C1462 C1463 1.391 . S
C1463 H1451 0.950 . S
C1463 C1459 1.393 . S
C1463 C1462 1.391 . S
H1464 C1472 0.961 . S
H1465 C1477 0.950 . S
H1466 C1474 0.950 . S
H1467 C1476 0.950 . S
H1468 C1478 0.961 . S
H1469 C1480 0.950 . S
H1470 C1482 0.950 . S
H1471 C1483 0.950 . S
C1472 H1464 0.961 . S
C1472 C1473 1.386 . S
C1472 C1474 1.391 1_455 S
C1473 C1472 1.386 . S
C1473 C1477 1.393 . S
C1474 H1466 0.950 . S
C1474 C1472 1.391 1_655 S
C1474 C1475 1.400 1_655 S
C1475 C1474 1.400 1_455 S
C1475 C1476 1.398 . S
C1475 C1481 1.491 1_455 S
C1476 H1467 0.950 . S
C1476 C1475 1.398 . S
C1476 C1477 1.391 . S
C1477 H1465 0.950 . S
C1477 C1473 1.393 . S
C1477 C1476 1.391 . S
C1478 H1468 0.961 . S
C1478 C1479 1.386 . S
C1478 C1480 1.391 1_655 S
C1479 C1478 1.386 . S
C1479 C1483 1.393 . S
C1480 H1469 0.950 . S
C1480 C1478 1.391 1_455 S
C1480 C1481 1.400 1_455 S
C1481 C1475 1.491 1_655 S
C1481 C1480 1.400 1_655 S
C1481 C1482 1.398 . S
C1482 H1470 0.950 . S
C1482 C1481 1.398 . S
C1482 C1483 1.391 . S
C1483 H1471 0.950 . S
C1483 C1479 1.393 . S
C1483 C1482 1.391 . S
H1484 C1492 0.950 . S
H1485 C1497 0.950 . S
H1486 C1494 0.950 . S
H1487 C1496 0.950 . S
H1488 C1498 0.950 . S
H1489 C1500 0.950 . S
H1490 C1502 0.950 . S
H1491 C1503 0.950 . S
C1492 H1484 0.950 . S
C1492 C1493 1.386 . S
C1492 C1494 1.391 . S
C1493 C1492 1.386 . S
C1493 C1497 1.393 . S
C1494 H1486 0.950 . S
C1494 C1492 1.391 . S
C1494 C1495 1.400 . S
C1495 C1494 1.400 . S
C1495 C1496 1.398 . S
C1495 C1501 1.491 . S
C1496 H1487 0.950 . S
C1496 C1495 1.398 . S
C1496 C1497 1.391 . S
C1497 H1485 0.950 . S
C1497 C1493 1.393 . S
C1497 C1496 1.391 . S
C1498 H1488 0.950 . S
C1498 C1499 1.386 . S
C1498 C1500 1.391 . S
C1499 C1498 1.386 . S
C1499 C1503 1.393 . S
C1500 H1489 0.950 . S
C1500 C1498 1.391 . S
C1500 C1501 1.400 . S
C1501 C1495 1.491 . S
C1501 C1500 1.400 . S
C1501 C1502 1.398 . S
C1502 H1490 0.950 . S
C1502 C1501 1.398 . S
C1502 C1503 1.391 . S
C1503 H1491 0.950 . S
C1503 C1499 1.393 . S
C1503 C1502 1.391 . S
H1504 C1512 0.950 . S
H1505 C1517 0.949 . S
H1506 C1514 0.950 1_455 S
H1507 C1516 0.950 . S
H1508 C1518 0.950 . S
H1509 C1520 0.950 1_655 S
H1510 C1522 0.950 . S
H1511 C1523 0.949 . S
C1512 H1504 0.950 . S
C1512 C1513 1.386 . S
C1512 C1514 1.391 . S
C1513 C1512 1.386 . S
C1513 C1517 1.393 . S
C1514 H1506 0.950 1_655 S
C1514 C1512 1.391 . S
C1514 C1515 1.400 . S
C1515 C1514 1.400 . S
C1515 C1516 1.398 1_565 S
C1515 C1521 1.491 1_665 S
C1516 H1507 0.950 . S
C1516 C1515 1.398 1_545 S
C1516 C1517 1.391 1_545 S
C1517 H1505 0.949 . S
C1517 C1513 1.393 . S
C1517 C1516 1.391 1_565 S
C1518 H1508 0.950 . S
C1518 C1519 1.386 . S
C1518 C1520 1.391 . S
C1519 C1518 1.386 . S
C1519 C1523 1.393 . S
C1520 H1509 0.950 1_455 S
C1520 C1518 1.391 . S
C1520 C1521 1.400 . S
C1521 C1515 1.491 1_445 S
C1521 C1520 1.400 . S
C1521 C1522 1.398 1_545 S
C1522 H1510 0.950 . S
C1522 C1521 1.398 1_565 S
C1522 C1523 1.391 1_565 S
C1523 H1511 0.949 . S
C1523 C1519 1.393 . S
C1523 C1522 1.391 1_545 S
H1524 C1532 0.950 . S
H1525 C1537 0.950 . S
H1526 C1534 0.950 . S
H1527 C1536 0.950 . S
H1528 C1538 0.950 . S
H1529 C1540 0.950 . S
H1530 C1542 0.950 . S
H1531 C1543 0.950 . S
C1532 H1524 0.950 . S
C1532 C1533 1.386 . S
C1532 C1534 1.391 . S
C1533 C1532 1.386 . S
C1533 C1537 1.393 . S
C1534 H1526 0.950 . S
C1534 C1532 1.391 . S
C1534 C1535 1.400 . S
C1535 C1534 1.400 . S
C1535 C1536 1.398 . S
C1535 C1541 1.491 . S
C1536 H1527 0.950 . S
C1536 C1535 1.398 . S
C1536 C1537 1.391 . S
C1537 H1525 0.950 . S
C1537 C1533 1.393 . S
C1537 C1536 1.391 . S
C1538 H1528 0.950 . S
C1538 C1539 1.386 . S
C1538 C1540 1.391 . S
C1539 C1538 1.386 . S
C1539 C1543 1.393 . S
C1540 H1529 0.950 . S
C1540 C1538 1.391 . S
C1540 C1541 1.400 . S
C1541 C1535 1.491 . S
C1541 C1540 1.400 . S
C1541 C1542 1.398 . S
C1542 H1530 0.950 . S
C1542 C1541 1.398 . S
C1542 C1543 1.391 . S
C1543 H1531 0.950 . S
C1543 C1539 1.393 . S
C1543 C1542 1.391 . S
H1544 C1552 0.950 . S
H1545 C1557 0.950 . S
H1546 C1554 0.950 . S
H1547 C1556 0.950 1_455 S
H1548 C1558 0.950 . S
H1549 C1560 0.950 . S
H1550 C1562 0.950 1_655 S
H1551 C1563 0.950 . S
C1552 H1544 0.950 . S
C1552 C1553 1.386 . S
C1552 C1554 1.391 . S
C1553 C1552 1.386 . S
C1553 C1557 1.393 . S
C1554 H1546 0.950 . S
C1554 C1552 1.391 . S
C1554 C1555 1.400 . S
C1555 C1554 1.400 . S
C1555 C1556 1.398 . S
C1555 C1561 1.491 1_655 S
C1556 H1547 0.950 1_655 S
C1556 C1555 1.398 . S
C1556 C1557 1.391 . S
C1557 H1545 0.950 . S
C1557 C1553 1.393 . S
C1557 C1556 1.391 . S
C1558 H1548 0.950 . S
C1558 C1559 1.386 . S
C1558 C1560 1.391 . S
C1559 C1558 1.386 . S
C1559 C1563 1.393 . S
C1560 H1549 0.950 . S
C1560 C1558 1.391 . S
C1560 C1561 1.400 . S
C1561 C1555 1.491 1_455 S
C1561 C1560 1.400 . S
C1561 C1562 1.398 . S
C1562 H1550 0.950 1_455 S
C1562 C1561 1.398 . S
C1562 C1563 1.391 . S
C1563 H1551 0.950 . S
C1563 C1559 1.393 . S
C1563 C1562 1.391 . S
H1564 C1572 0.950 . S
H1565 C1577 0.950 . S
H1566 C1574 0.950 . S
H1567 C1576 0.950 . S
H1568 C1578 0.950 . S
H1569 C1580 0.950 . S
H1570 C1582 0.950 . S
H1571 C1583 0.950 . S
C1572 H1564 0.950 . S
C1572 C1573 1.386 . S
C1572 C1574 1.391 . S
C1573 C1572 1.386 . S
C1573 C1577 1.393 . S
C1574 H1566 0.950 . S
C1574 C1572 1.391 . S
C1574 C1575 1.400 . S
C1575 C1574 1.400 . S
C1575 C1576 1.398 . S
C1575 C1581 1.491 . S
C1576 H1567 0.950 . S
C1576 C1575 1.398 . S
C1576 C1577 1.391 . S
C1577 H1565 0.950 . S
C1577 C1573 1.393 . S
C1577 C1576 1.391 . S
C1578 H1568 0.950 . S
C1578 C1579 1.386 . S
C1578 C1580 1.391 . S
C1579 C1578 1.386 . S
C1579 C1583 1.393 . S
C1580 H1569 0.950 . S
C1580 C1578 1.391 . S
C1580 C1581 1.400 . S
C1581 C1575 1.491 . S
C1581 C1580 1.400 . S
C1581 C1582 1.398 . S
C1582 H1570 0.950 . S
C1582 C1581 1.398 . S
C1582 C1583 1.391 . S
C1583 H1571 0.950 . S
C1583 C1579 1.393 . S
C1583 C1582 1.391 . S
H1584 C1592 0.950 . S
H1585 C1597 0.950 . S
H1586 C1594 0.950 1_545 S
H1587 C1596 0.950 . S
H1588 C1598 0.950 . S
H1589 C1600 0.950 1_565 S
H1590 C1602 0.950 . S
H1591 C1603 0.950 . S
C1592 H1584 0.950 . S
C1592 C1593 1.386 . S
C1592 C1594 1.391 . S
C1593 C1592 1.386 . S
C1593 C1597 1.393 . S
C1594 H1586 0.950 1_565 S
C1594 C1592 1.391 . S
C1594 C1595 1.400 . S
C1595 C1594 1.400 . S
C1595 C1596 1.398 . S
C1595 C1601 1.491 1_465 S
C1596 H1587 0.950 . S
C1596 C1595 1.398 . S
C1596 C1597 1.391 . S
C1597 H1585 0.950 . S
C1597 C1593 1.393 . S
C1597 C1596 1.391 . S
C1598 H1588 0.950 . S
C1598 C1599 1.386 . S
C1598 C1600 1.391 . S
C1599 C1598 1.386 . S
C1599 C1603 1.393 . S
C1600 H1589 0.950 1_545 S
C1600 C1598 1.391 . S
C1600 C1601 1.400 . S
C1601 C1595 1.491 1_645 S
C1601 C1600 1.400 . S
C1601 C1602 1.398 . S
C1602 H1590 0.950 . S
C1602 C1601 1.398 . S
C1602 C1603 1.391 . S
C1603 H1591 0.950 . S
C1603 C1599 1.393 . S
C1603 C1602 1.391 . S
H1604 C1612 0.950 . S
H1605 C1617 0.950 . S
H1606 C1614 0.950 . S
H1607 C1616 0.950 . S
H1608 C1618 0.950 . S
H1609 C1620 0.950 . S
H1610 C1622 0.950 . S
H1611 C1623 0.950 . S
C1612 H1604 0.950 . S
C1612 C1613 1.386 . S
C1612 C1614 1.391 . S
C1613 C1612 1.386 . S
C1613 C1617 1.393 . S
C1614 H1606 0.950 . S
C1614 C1612 1.391 . S
C1614 C1615 1.400 . S
C1615 C1614 1.400 . S
C1615 C1616 1.398 . S
C1615 C1621 1.491 . S
C1616 H1607 0.950 . S
C1616 C1615 1.398 . S
C1616 C1617 1.391 . S
C1617 H1605 0.950 . S
C1617 C1613 1.393 . S
C1617 C1616 1.391 . S
C1618 H1608 0.950 . S
C1618 C1619 1.386 . S
C1618 C1620 1.391 . S
C1619 C1618 1.386 . S
C1619 C1623 1.393 . S
C1620 H1609 0.950 . S
C1620 C1618 1.391 . S
C1620 C1621 1.400 . S
C1621 C1615 1.491 . S
C1621 C1620 1.400 . S
C1621 C1622 1.398 . S
C1622 H1610 0.950 . S
C1622 C1621 1.398 . S
C1622 C1623 1.391 . S
C1623 H1611 0.950 . S
C1623 C1619 1.393 . S
C1623 C1622 1.391 . S
H1624 C1632 0.950 . S
H1625 C1637 0.950 . S
H1626 C1634 0.950 . S
H1627 C1636 0.978 . S
H1628 C1638 0.950 . S
H1629 C1640 0.950 . S
H1630 C1642 0.978 . S
H1631 C1643 0.950 . S
C1632 H1624 0.950 . S
C1632 C1633 1.386 . S
C1632 C1634 1.391 . S
C1633 C1632 1.386 . S
C1633 C1637 1.393 . S
C1634 H1626 0.950 . S
C1634 C1632 1.391 . S
C1634 C1635 1.400 . S
C1635 C1634 1.400 . S
C1635 C1636 1.398 . S
C1635 C1641 1.491 1_455 S
C1636 H1627 0.978 . S
C1636 C1635 1.398 . S
C1636 C1637 1.391 . S
C1637 H1625 0.950 . S
C1637 C1633 1.393 . S
C1637 C1636 1.391 . S
C1638 H1628 0.950 . S
C1638 C1639 1.386 . S
C1638 C1640 1.391 . S
C1639 C1638 1.386 . S
C1639 C1643 1.393 . S
C1640 H1629 0.950 . S
C1640 C1638 1.391 . S
C1640 C1641 1.400 . S
C1641 C1635 1.491 1_655 S
C1641 C1640 1.400 . S
C1641 C1642 1.398 . S
C1642 H1630 0.978 . S
C1642 C1641 1.398 . S
C1642 C1643 1.391 . S
C1643 H1631 0.950 . S
C1643 C1639 1.393 . S
C1643 C1642 1.391 . S
H1644 C1652 0.950 . S
H1645 C1657 0.950 . S
H1646 C1654 0.950 . S
H1647 C1656 0.950 . S
H1648 C1658 0.950 . S
H1649 C1660 0.950 . S
H1650 C1662 0.950 . S
H1651 C1663 0.950 . S
C1652 H1644 0.950 . S
C1652 C1653 1.386 . S
C1652 C1654 1.391 . S
C1653 C1652 1.386 . S
C1653 C1657 1.393 . S
C1654 H1646 0.950 . S
C1654 C1652 1.391 . S
C1654 C1655 1.400 . S
C1655 C1654 1.400 . S
C1655 C1656 1.398 . S
C1655 C1661 1.491 . S
C1656 H1647 0.950 . S
C1656 C1655 1.398 . S
C1656 C1657 1.391 . S
C1657 H1645 0.950 . S
C1657 C1653 1.393 . S
C1657 C1656 1.391 . S
C1658 H1648 0.950 . S
C1658 C1659 1.386 . S
C1658 C1660 1.391 . S
C1659 C1658 1.386 . S
C1659 C1663 1.393 . S
C1660 H1649 0.950 . S
C1660 C1658 1.391 . S
C1660 C1661 1.400 . S
C1661 C1655 1.491 . S
C1661 C1660 1.400 . S
C1661 C1662 1.398 . S
C1662 H1650 0.950 . S
C1662 C1661 1.398 . S
C1662 C1663 1.391 . S
C1663 H1651 0.950 . S
C1663 C1659 1.393 . S
C1663 C1662 1.391 . S
H1664 C1672 0.950 . S
H1665 C1677 0.950 . S
H1666 C1674 0.946 . S
H1667 C1676 0.950 . S
H1668 C1678 0.950 . S
H1669 C1680 0.946 . S
H1670 C1682 0.950 . S
H1671 C1683 0.950 . S
C1672 H1664 0.950 . S
C1672 C1673 1.386 . S
C1672 C1674 1.394 1_556 S
C1673 C1672 1.386 . S
C1673 C1677 1.393 . S
C1674 H1666 0.946 . S
C1674 C1672 1.394 1_554 S
C1674 C1675 1.402 1_554 S
C1675 C1674 1.402 1_556 S
C1675 C1676 1.398 . S
C1675 C1681 1.491 1_566 S
C1676 H1667 0.950 . S
C1676 C1675 1.398 . S
C1676 C1677 1.391 . S
C1677 H1665 0.950 . S
C1677 C1673 1.393 . S
C1677 C1676 1.391 . S
C1678 H1668 0.950 . S
C1678 C1679 1.386 . S
C1678 C1680 1.394 1_554 S
C1679 C1678 1.386 . S
C1679 C1683 1.393 . S
C1680 H1669 0.946 . S
C1680 C1678 1.394 1_556 S
C1680 C1681 1.402 1_556 S
C1681 C1675 1.491 1_544 S
C1681 C1680 1.402 1_554 S
C1681 C1682 1.398 . S
C1682 H1670 0.950 . S
C1682 C1681 1.398 . S
C1682 C1683 1.391 . S
C1683 H1671 0.950 . S
C1683 C1679 1.393 . S
C1683 C1682 1.391 . S
H1684 C1692 0.950 . S
H1685 C1697 0.950 . S
H1686 C1694 0.950 . S
H1687 C1696 0.950 . S
H1688 C1698 0.950 . S
H1689 C1700 0.950 . S
H1690 C1702 0.950 . S
H1691 C1703 0.950 . S
C1692 H1684 0.950 . S
C1692 C1693 1.386 . S
C1692 C1694 1.391 . S
C1693 C1692 1.386 . S
C1693 C1697 1.393 . S
C1694 H1686 0.950 . S
C1694 C1692 1.391 . S
C1694 C1695 1.400 . S
C1695 C1694 1.400 . S
C1695 C1696 1.398 . S
C1695 C1701 1.491 1_545 S
C1696 H1687 0.950 . S
C1696 C1695 1.398 . S
C1696 C1697 1.391 . S
C1697 H1685 0.950 . S
C1697 C1693 1.393 . S
C1697 C1696 1.391 . S
C1698 H1688 0.950 . S
C1698 C1699 1.386 . S
C1698 C1700 1.391 . S
C1699 C1698 1.386 . S
C1699 C1703 1.393 . S
C1700 H1689 0.950 . S
C1700 C1698 1.391 . S
C1700 C1701 1.400 . S
C1701 C1695 1.491 1_565 S
C1701 C1700 1.400 . S
C1701 C1702 1.398 . S
C1702 H1690 0.950 . S
C1702 C1701 1.398 . S
C1702 C1703 1.391 . S
C1703 H1691 0.950 . S
C1703 C1699 1.393 . S
C1703 C1702 1.391 . S
H1704 C1712 0.950 . S
H1705 C1717 0.950 . S
H1706 C1714 0.950 . S
H1707 C1716 0.950 . S
H1708 C1718 0.950 . S
H1709 C1720 0.950 . S
H1710 C1722 0.950 . S
H1711 C1723 0.950 . S
C1712 H1704 0.950 . S
C1712 C1713 1.386 . S
C1712 C1714 1.391 . S
C1713 C1712 1.386 . S
C1713 C1717 1.393 . S
C1714 H1706 0.950 . S
C1714 C1712 1.391 . S
C1714 C1715 1.400 . S
C1715 C1714 1.400 . S
C1715 C1716 1.398 . S
C1715 C1721 1.491 . S
C1716 H1707 0.950 . S
C1716 C1715 1.398 . S
C1716 C1717 1.391 . S
C1717 H1705 0.950 . S
C1717 C1713 1.393 . S
C1717 C1716 1.391 . S
C1718 H1708 0.950 . S
C1718 C1719 1.386 . S
C1718 C1720 1.391 . S
C1719 C1718 1.386 . S
C1719 C1723 1.393 . S
C1720 H1709 0.950 . S
C1720 C1718 1.391 . S
C1720 C1721 1.400 . S
C1721 C1715 1.491 . S
C1721 C1720 1.400 . S
C1721 C1722 1.398 . S
C1722 H1710 0.950 . S
C1722 C1721 1.398 . S
C1722 C1723 1.391 . S
C1723 H1711 0.950 . S
C1723 C1719 1.393 . S
C1723 C1722 1.391 . S
H1724 C1732 0.950 . S
H1725 C1737 0.950 . S
H1726 C1734 0.950 . S
H1727 C1736 0.974 . S
H1728 C1738 0.950 . S
H1729 C1740 0.950 . S
H1730 C1742 0.974 . S
H1731 C1743 0.950 . S
C1732 H1724 0.950 . S
C1732 C1733 1.386 . S
C1732 C1734 1.391 . S
C1733 C1732 1.386 . S
C1733 C1737 1.393 . S
C1734 H1726 0.950 . S
C1734 C1732 1.391 . S
C1734 C1735 1.400 . S
C1735 C1734 1.400 . S
C1735 C1736 1.398 . S
C1735 C1741 1.491 1_554 S
C1736 H1727 0.974 . S
C1736 C1735 1.398 . S
C1736 C1737 1.391 . S
C1737 H1725 0.950 . S
C1737 C1733 1.393 . S
C1737 C1736 1.391 . S
C1738 H1728 0.950 . S
C1738 C1739 1.386 . S
C1738 C1740 1.391 . S
C1739 C1738 1.386 . S
C1739 C1743 1.393 . S
C1740 H1729 0.950 . S
C1740 C1738 1.391 . S
C1740 C1741 1.400 . S
C1741 C1735 1.491 1_556 S
C1741 C1740 1.400 . S
C1741 C1742 1.398 . S
C1742 H1730 0.974 . S
C1742 C1741 1.398 . S
C1742 C1743 1.391 . S
C1743 H1731 0.950 . S
C1743 C1739 1.393 . S
C1743 C1742 1.391 . S
H1744 C1752 0.950 . S
H1745 C1757 0.950 . S
H1746 C1754 0.950 . S
H1747 C1756 0.950 . S
H1748 C1758 0.950 . S
H1749 C1760 0.950 . S
H1750 C1762 0.950 . S
H1751 C1763 0.950 . S
C1752 H1744 0.950 . S
C1752 C1753 1.386 . S
C1752 C1754 1.391 . S
C1753 C1752 1.386 . S
C1753 C1757 1.393 . S
C1754 H1746 0.950 . S
C1754 C1752 1.391 . S
C1754 C1755 1.400 . S
C1755 C1754 1.400 . S
C1755 C1756 1.398 . S
C1755 C1761 1.491 . S
C1756 H1747 0.950 . S
C1756 C1755 1.398 . S
C1756 C1757 1.391 . S
C1757 H1745 0.950 . S
C1757 C1753 1.393 . S
C1757 C1756 1.391 . S
C1758 H1748 0.950 . S
C1758 C1759 1.386 . S
C1758 C1760 1.391 . S
C1759 C1758 1.386 . S
C1759 C1763 1.393 . S
C1760 H1749 0.950 . S
C1760 C1758 1.391 . S
C1760 C1761 1.400 . S
C1761 C1755 1.491 . S
C1761 C1760 1.400 . S
C1761 C1762 1.398 . S
C1762 H1750 0.950 . S
C1762 C1761 1.398 . S
C1762 C1763 1.391 . S
C1763 H1751 0.950 . S
C1763 C1759 1.393 . S
C1763 C1762 1.391 . S
H1764 C1772 0.950 . S
H1765 C1777 0.950 . S
H1766 C1774 0.950 . S
H1767 C1776 0.950 1_545 S
H1768 C1778 0.950 . S
H1769 C1780 0.950 . S
H1770 C1782 0.950 1_565 S
H1771 C1783 0.950 . S
C1772 H1764 0.950 . S
C1772 C1773 1.386 . S
C1772 C1774 1.391 1_554 S
C1773 C1772 1.386 . S
C1773 C1777 1.393 . S
C1774 H1766 0.950 . S
C1774 C1772 1.391 1_556 S
C1774 C1775 1.400 1_556 S
C1775 C1774 1.400 1_554 S
C1775 C1776 1.398 . S
C1775 C1781 1.491 1_564 S
C1776 H1767 0.950 1_565 S
C1776 C1775 1.398 . S
C1776 C1777 1.391 . S
C1777 H1765 0.950 . S
C1777 C1773 1.393 . S
C1777 C1776 1.391 . S
C1778 H1768 0.950 . S
C1778 C1779 1.386 . S
C1778 C1780 1.391 1_556 S
C1779 C1778 1.386 . S
C1779 C1783 1.393 . S
C1780 H1769 0.950 . S
C1780 C1778 1.391 1_554 S
C1780 C1781 1.400 1_554 S
C1781 C1775 1.491 1_546 S
C1781 C1780 1.400 1_556 S
C1781 C1782 1.398 . S
C1782 H1770 0.950 1_545 S
C1782 C1781 1.398 . S
C1782 C1783 1.391 . S
C1783 H1771 0.950 . S
C1783 C1779 1.393 . S
C1783 C1782 1.391 . S
H1784 C1792 0.950 . S
H1785 C1797 0.950 . S
H1786 C1794 0.950 . S
H1787 C1796 0.950 . S
H1788 C1798 0.950 . S
H1789 C1800 0.950 . S
H1790 C1802 0.950 . S
H1791 C1803 0.950 . S
C1792 H1784 0.950 . S
C1792 C1793 1.386 . S
C1792 C1794 1.391 . S
C1793 C1792 1.386 . S
C1793 C1797 1.393 . S
C1794 H1786 0.950 . S
C1794 C1792 1.391 . S
C1794 C1795 1.400 . S
C1795 C1794 1.400 . S
C1795 C1796 1.398 . S
C1795 C1801 1.491 . S
C1796 H1787 0.950 . S
C1796 C1795 1.398 . S
C1796 C1797 1.391 . S
C1797 H1785 0.950 . S
C1797 C1793 1.393 . S
C1797 C1796 1.391 . S
C1798 H1788 0.950 . S
C1798 C1799 1.386 . S
C1798 C1800 1.391 . S
C1799 C1798 1.386 . S
C1799 C1803 1.393 . S
C1800 H1789 0.950 . S
C1800 C1798 1.391 . S
C1800 C1801 1.400 . S
C1801 C1795 1.491 . S
C1801 C1800 1.400 . S
C1801 C1802 1.398 . S
C1802 H1790 0.950 . S
C1802 C1801 1.398 . S
C1802 C1803 1.391 . S
C1803 H1791 0.950 . S
C1803 C1799 1.393 . S
C1803 C1802 1.391 . S
H1804 C1812 0.950 . S
H1805 C1817 0.950 . S
H1806 C1814 0.950 . S
H1807 C1816 0.950 . S
H1808 C1818 0.950 . S
H1809 C1820 0.950 . S
H1810 C1822 0.950 . S
H1811 C1823 0.950 . S
C1812 H1804 0.950 . S
C1812 C1813 1.386 . S
C1812 C1814 1.391 . S
C1813 C1812 1.386 . S
C1813 C1817 1.393 . S
C1814 H1806 0.950 . S
C1814 C1812 1.391 . S
C1814 C1815 1.400 . S
C1815 C1814 1.400 . S
C1815 C1816 1.398 . S
C1815 C1821 1.491 . S
C1816 H1807 0.950 . S
C1816 C1815 1.398 . S
C1816 C1817 1.391 . S
C1817 H1805 0.950 . S
C1817 C1813 1.393 . S
C1817 C1816 1.391 . S
C1818 H1808 0.950 . S
C1818 C1819 1.386 . S
C1818 C1820 1.391 . S
C1819 C1818 1.386 . S
C1819 C1823 1.393 . S
C1820 H1809 0.950 . S
C1820 C1818 1.391 . S
C1820 C1821 1.400 . S
C1821 C1815 1.491 . S
C1821 C1820 1.400 . S
C1821 C1822 1.398 . S
C1822 H1810 0.950 . S
C1822 C1821 1.398 . S
C1822 C1823 1.391 . S
C1823 H1811 0.950 . S
C1823 C1819 1.393 . S
C1823 C1822 1.391 . S
H1824 C1832 0.950 . S
H1825 C1837 0.950 . S
H1826 C1834 0.950 . S
H1827 C1836 0.950 . S
H1828 C1838 0.950 . S
H1829 C1840 0.950 . S
H1830 C1842 0.950 . S
H1831 C1843 0.950 . S
C1832 H1824 0.950 . S
C1832 C1833 1.386 . S
C1832 C1834 1.391 . S
C1833 C1832 1.386 . S
C1833 C1837 1.393 . S
C1834 H1826 0.950 . S
C1834 C1832 1.391 . S
C1834 C1835 1.400 . S
C1835 C1834 1.400 . S
C1835 C1836 1.398 . S
C1835 C1841 1.491 . S
C1836 H1827 0.950 . S
C1836 C1835 1.398 . S
C1836 C1837 1.391 . S
C1837 H1825 0.950 . S
C1837 C1833 1.393 . S
C1837 C1836 1.391 . S
C1838 H1828 0.950 . S
C1838 C1839 1.386 . S
C1838 C1840 1.391 . S
C1839 C1838 1.386 . S
C1839 C1843 1.393 . S
C1840 H1829 0.950 . S
C1840 C1838 1.391 . S
C1840 C1841 1.400 . S
C1841 C1835 1.491 . S
C1841 C1840 1.400 . S
C1841 C1842 1.398 . S
C1842 H1830 0.950 . S
C1842 C1841 1.398 . S
C1842 C1843 1.391 . S
C1843 H1831 0.950 . S
C1843 C1839 1.393 . S
C1843 C1842 1.391 . S
H1844 C1852 0.950 . S
H1845 C1857 0.950 . S
H1846 C1854 0.950 . S
H1847 C1856 0.950 . S
H1848 C1858 0.950 . S
H1849 C1860 0.950 . S
H1850 C1862 0.950 . S
H1851 C1863 0.950 . S
C1852 H1844 0.950 . S
C1852 C1853 1.386 . S
C1852 C1854 1.391 . S
C1853 C1852 1.386 . S
C1853 C1857 1.393 . S
C1854 H1846 0.950 . S
C1854 C1852 1.391 . S
C1854 C1855 1.400 . S
C1855 C1854 1.400 . S
C1855 C1856 1.398 . S
C1855 C1861 1.491 . S
C1856 H1847 0.950 . S
C1856 C1855 1.398 . S
C1856 C1857 1.391 . S
C1857 H1845 0.950 . S
C1857 C1853 1.393 . S
C1857 C1856 1.391 . S
C1858 H1848 0.950 . S
C1858 C1859 1.386 . S
C1858 C1860 1.391 . S
C1859 C1858 1.386 . S
C1859 C1863 1.393 . S
C1860 H1849 0.950 . S
C1860 C1858 1.391 . S
C1860 C1861 1.400 . S
C1861 C1855 1.491 . S
C1861 C1860 1.400 . S
C1861 C1862 1.398 . S
C1862 H1850 0.950 . S
C1862 C1861 1.398 . S
C1862 C1863 1.391 . S
C1863 H1851 0.950 . S
C1863 C1859 1.393 . S
C1863 C1862 1.391 . S
H1864 C1872 0.950 . S
H1865 C1877 0.950 . S
H1866 C1874 0.950 . S
H1867 C1876 0.950 . S
H1868 C1878 0.950 . S
H1869 C1880 0.950 . S
H1870 C1882 0.950 . S
H1871 C1883 0.950 . S
C1872 H1864 0.950 . S
C1872 C1873 1.386 . S
C1872 C1874 1.391 . S
C1873 C1872 1.386 . S
C1873 C1877 1.393 . S
C1874 H1866 0.950 . S
C1874 C1872 1.391 . S
C1874 C1875 1.400 . S
C1875 C1874 1.400 . S
C1875 C1876 1.398 . S
C1875 C1881 1.491 . S
C1876 H1867 0.950 . S
C1876 C1875 1.398 . S
C1876 C1877 1.391 . S
C1877 H1865 0.950 . S
C1877 C1873 1.393 . S
C1877 C1876 1.391 . S
C1878 H1868 0.950 . S
C1878 C1879 1.386 . S
C1878 C1880 1.391 . S
C1879 C1878 1.386 . S
C1879 C1883 1.393 . S
C1880 H1869 0.950 . S
C1880 C1878 1.391 . S
C1880 C1881 1.400 . S
C1881 C1875 1.491 . S
C1881 C1880 1.400 . S
C1881 C1882 1.398 . S
C1882 H1870 0.950 . S
C1882 C1881 1.398 . S
C1882 C1883 1.391 . S
C1883 H1871 0.950 . S
C1883 C1879 1.393 . S
C1883 C1882 1.391 . S
H1884 C1892 0.950 . S
H1885 C1897 0.950 . S
H1886 C1894 0.950 . S
H1887 C1896 0.950 . S
H1888 C1898 0.950 . S
H1889 C1900 0.950 . S
H1890 C1902 0.950 . S
H1891 C1903 0.950 . S
C1892 H1884 0.950 . S
C1892 C1893 1.386 . S
C1892 C1894 1.391 . S
C1893 C1892 1.386 . S
C1893 C1897 1.393 . S
C1894 H1886 0.950 . S
C1894 C1892 1.391 . S
C1894 C1895 1.400 . S
C1895 C1894 1.400 . S
C1895 C1896 1.398 . S
C1895 C1901 1.491 . S
C1896 H1887 0.950 . S
C1896 C1895 1.398 . S
C1896 C1897 1.391 . S
C1897 H1885 0.950 . S
C1897 C1893 1.393 . S
C1897 C1896 1.391 . S
C1898 H1888 0.950 . S
C1898 C1899 1.386 . S
C1898 C1900 1.391 . S
C1899 C1898 1.386 . S
C1899 C1903 1.393 . S
C1900 H1889 0.950 . S
C1900 C1898 1.391 . S
C1900 C1901 1.400 . S
C1901 C1895 1.491 . S
C1901 C1900 1.400 . S
C1901 C1902 1.398 . S
C1902 H1890 0.950 . S
C1902 C1901 1.398 . S
C1902 C1903 1.391 . S
C1903 H1891 0.950 . S
C1903 C1899 1.393 . S
C1903 C1902 1.391 . S
H1904 C1912 0.950 . S
H1905 C1917 0.950 . S
H1906 C1914 0.950 . S
H1907 C1916 0.950 . S
H1908 C1918 0.950 . S
H1909 C1920 0.950 . S
H1910 C1922 0.950 . S
H1911 C1923 0.950 . S
C1912 H1904 0.950 . S
C1912 C1913 1.386 . S
C1912 C1914 1.391 . S
C1913 C1912 1.386 . S
C1913 C1917 1.393 . S
C1914 H1906 0.950 . S
C1914 C1912 1.391 . S
C1914 C1915 1.400 . S
C1915 C1914 1.400 . S
C1915 C1916 1.398 . S
C1915 C1921 1.491 . S
C1916 H1907 0.950 . S
C1916 C1915 1.398 . S
C1916 C1917 1.391 . S
C1917 H1905 0.950 . S
C1917 C1913 1.393 . S
C1917 C1916 1.391 . S
C1918 H1908 0.950 . S
C1918 C1919 1.386 . S
C1918 C1920 1.391 . S
C1919 C1918 1.386 . S
C1919 C1923 1.393 . S
C1920 H1909 0.950 . S
C1920 C1918 1.391 . S
C1920 C1921 1.400 . S
C1921 C1915 1.491 . S
C1921 C1920 1.400 . S
C1921 C1922 1.398 . S
C1922 H1910 0.950 . S
C1922 C1921 1.398 . S
C1922 C1923 1.391 . S
C1923 H1911 0.950 . S
C1923 C1919 1.393 . S
C1923 C1922 1.391 . S
H1924 C1932 0.950 . S
H1925 C1937 0.950 . S
H1926 C1934 0.950 . S
H1927 C1936 0.950 . S
H1928 C1938 0.950 . S
H1929 C1940 0.950 . S
H1930 C1942 0.950 . S
H1931 C1943 0.950 . S
C1932 H1924 0.950 . S
C1932 C1933 1.386 . S
C1932 C1934 1.391 . S
C1933 C1932 1.386 . S
C1933 C1937 1.393 . S
C1934 H1926 0.950 . S
C1934 C1932 1.391 . S
C1934 C1935 1.400 . S
C1935 C1934 1.400 . S
C1935 C1936 1.398 . S
C1935 C1941 1.491 . S
C1936 H1927 0.950 . S
C1936 C1935 1.398 . S
C1936 C1937 1.391 . S
C1937 H1925 0.950 . S
C1937 C1933 1.393 . S
C1937 C1936 1.391 . S
C1938 H1928 0.950 . S
C1938 C1939 1.386 . S
C1938 C1940 1.391 . S
C1939 C1938 1.386 . S
C1939 C1943 1.393 . S
C1940 H1929 0.950 . S
C1940 C1938 1.391 . S
C1940 C1941 1.400 . S
C1941 C1935 1.491 . S
C1941 C1940 1.400 . S
C1941 C1942 1.398 . S
C1942 H1930 0.950 . S
C1942 C1941 1.398 . S
C1942 C1943 1.391 . S
C1943 H1931 0.950 . S
C1943 C1939 1.393 . S
C1943 C1942 1.391 . S
H1944 C1952 0.950 . S
H1945 C1957 0.950 . S
H1946 C1954 0.950 . S
H1947 C1956 0.950 . S
H1948 C1958 0.950 . S
H1949 C1960 0.950 . S
H1950 C1962 0.950 . S
H1951 C1963 0.950 . S
C1952 H1944 0.950 . S
C1952 C1953 1.386 . S
C1952 C1954 1.391 . S
C1953 C1952 1.386 . S
C1953 C1957 1.393 . S
C1954 H1946 0.950 . S
C1954 C1952 1.391 . S
C1954 C1955 1.400 . S
C1955 C1954 1.400 . S
C1955 C1956 1.398 . S
C1955 C1961 1.491 . S
C1956 H1947 0.950 . S
C1956 C1955 1.398 . S
C1956 C1957 1.391 . S
C1957 H1945 0.950 . S
C1957 C1953 1.393 . S
C1957 C1956 1.391 . S
C1958 H1948 0.950 . S
C1958 C1959 1.386 . S
C1958 C1960 1.391 . S
C1959 C1958 1.386 . S
C1959 C1963 1.393 . S
C1960 H1949 0.950 . S
C1960 C1958 1.391 . S
C1960 C1961 1.400 . S
C1961 C1955 1.491 . S
C1961 C1960 1.400 . S
C1961 C1962 1.398 . S
C1962 H1950 0.950 . S
C1962 C1961 1.398 . S
C1962 C1963 1.391 . S
C1963 H1951 0.950 . S
C1963 C1959 1.393 . S
C1963 C1962 1.391 . S
H1964 C1972 0.950 . S
H1965 C1977 0.950 . S
H1966 C1974 0.950 . S
H1967 C1976 0.950 . S
H1968 C1978 0.950 . S
H1969 C1980 0.950 . S
H1970 C1982 0.950 . S
H1971 C1983 0.950 . S
C1972 H1964 0.950 . S
C1972 C1973 1.386 . S
C1972 C1974 1.391 . S
C1973 C1972 1.386 . S
C1973 C1977 1.393 . S
C1974 H1966 0.950 . S
C1974 C1972 1.391 . S
C1974 C1975 1.400 . S
C1975 C1974 1.400 . S
C1975 C1976 1.398 . S
C1975 C1981 1.491 . S
C1976 H1967 0.950 . S
C1976 C1975 1.398 . S
C1976 C1977 1.391 . S
C1977 H1965 0.950 . S
C1977 C1973 1.393 . S
C1977 C1976 1.391 . S
C1978 H1968 0.950 . S
C1978 C1979 1.386 . S
C1978 C1980 1.391 . S
C1979 C1978 1.386 . S
C1979 C1983 1.393 . S
C1980 H1969 0.950 . S
C1980 C1978 1.391 . S
C1980 C1981 1.400 . S
C1981 C1975 1.491 . S
C1981 C1980 1.400 . S
C1981 C1982 1.398 . S
C1982 H1970 0.950 . S
C1982 C1981 1.398 . S
C1982 C1983 1.391 . S
C1983 H1971 0.950 . S
C1983 C1979 1.393 . S
C1983 C1982 1.391 . S
H1984 C1992 0.950 . S
H1985 C1997 0.950 . S
H1986 C1994 0.950 . S
H1987 C1996 0.950 . S
H1988 C1998 0.950 . S
H1989 C2000 0.950 . S
H1990 C2002 0.950 . S
H1991 C2003 0.950 . S
C1992 H1984 0.950 . S
C1992 C1993 1.386 . S
C1992 C1994 1.391 . S
C1993 C1992 1.386 . S
C1993 C1997 1.393 . S
C1994 H1986 0.950 . S
C1994 C1992 1.391 . S
C1994 C1995 1.400 . S
C1995 C1994 1.400 . S
C1995 C1996 1.398 . S
C1995 C2001 1.491 . S
C1996 H1987 0.950 . S
C1996 C1995 1.398 . S
C1996 C1997 1.391 . S
C1997 H1985 0.950 . S
C1997 C1993 1.393 . S
C1997 C1996 1.391 . S
C1998 H1988 0.950 . S
C1998 C1999 1.386 . S
C1998 C2000 1.391 . S
C1999 C1998 1.386 . S
C1999 C2003 1.393 . S
C2000 H1989 0.950 . S
C2000 C1998 1.391 . S
C2000 C2001 1.400 . S
C2001 C1995 1.491 . S
C2001 C2000 1.400 . S
C2001 C2002 1.398 . S
C2002 H1990 0.950 . S
C2002 C2001 1.398 . S
C2002 C2003 1.391 . S
C2003 H1991 0.950 . S
C2003 C1999 1.393 . S
C2003 C2002 1.391 . S
H2004 C2012 0.950 . S
H2005 C2017 0.950 . S
H2006 C2014 0.950 . S
H2007 C2016 0.950 . S
H2008 C2018 0.950 . S
H2009 C2020 0.950 . S
H2010 C2022 0.950 . S
H2011 C2023 0.950 . S
C2012 H2004 0.950 . S
C2012 C2013 1.386 . S
C2012 C2014 1.391 . S
C2013 C2012 1.386 . S
C2013 C2017 1.393 . S
C2014 H2006 0.950 . S
C2014 C2012 1.391 . S
C2014 C2015 1.400 . S
C2015 C2014 1.400 . S
C2015 C2016 1.398 . S
C2015 C2021 1.491 1_556 S
C2016 H2007 0.950 . S
C2016 C2015 1.398 . S
C2016 C2017 1.391 . S
C2017 H2005 0.950 . S
C2017 C2013 1.393 . S
C2017 C2016 1.391 . S
C2018 H2008 0.950 . S
C2018 C2019 1.386 . S
C2018 C2020 1.391 . S
C2019 C2018 1.386 . S
C2019 C2023 1.393 . S
C2020 H2009 0.950 . S
C2020 C2018 1.391 . S
C2020 C2021 1.400 . S
C2021 C2015 1.491 1_554 S
C2021 C2020 1.400 . S
C2021 C2022 1.398 . S
C2022 H2010 0.950 . S
C2022 C2021 1.398 . S
C2022 C2023 1.391 . S
C2023 H2011 0.950 . S
C2023 C2019 1.393 . S
C2023 C2022 1.391 . S
H2024 C2032 0.950 . S
H2025 C2037 0.950 . S
H2026 C2034 0.950 . S
H2027 C2036 0.950 . S
H2028 C2038 0.950 . S
H2029 C2040 0.950 . S
H2030 C2042 0.950 . S
H2031 C2043 0.950 . S
C2032 H2024 0.950 . S
C2032 C2033 1.386 . S
C2032 C2034 1.391 . S
C2033 C2032 1.386 . S
C2033 C2037 1.393 . S
C2034 H2026 0.950 . S
C2034 C2032 1.391 . S
C2034 C2035 1.400 . S
C2035 C2034 1.400 . S
C2035 C2036 1.398 . S
C2035 C2041 1.491 . S
C2036 H2027 0.950 . S
C2036 C2035 1.398 . S
C2036 C2037 1.391 . S
C2037 H2025 0.950 . S
C2037 C2033 1.393 . S
C2037 C2036 1.391 . S
C2038 H2028 0.950 . S
C2038 C2039 1.386 . S
C2038 C2040 1.391 . S
C2039 C2038 1.386 . S
C2039 C2043 1.393 . S
C2040 H2029 0.950 . S
C2040 C2038 1.391 . S
C2040 C2041 1.400 . S
C2041 C2035 1.491 . S
C2041 C2040 1.400 . S
C2041 C2042 1.398 . S
C2042 H2030 0.950 . S
C2042 C2041 1.398 . S
C2042 C2043 1.391 . S
C2043 H2031 0.950 . S
C2043 C2039 1.393 . S
C2043 C2042 1.391 . S
H2044 C2052 0.950 . S
H2045 C2057 0.950 . S
H2046 C2054 0.950 . S
H2047 C2056 0.950 . S
H2048 C2058 0.950 . S
H2049 C2060 0.950 . S
H2050 C2062 0.950 . S
H2051 C2063 0.950 . S
C2052 H2044 0.950 . S
C2052 C2053 1.386 . S
C2052 C2054 1.391 . S
C2053 C2052 1.386 . S
C2053 C2057 1.393 . S
C2054 H2046 0.950 . S
C2054 C2052 1.391 . S
C2054 C2055 1.400 . S
C2055 C2054 1.400 . S
C2055 C2056 1.398 . S
C2055 C2061 1.491 1_565 S
C2056 H2047 0.950 . S
C2056 C2055 1.398 . S
C2056 C2057 1.391 . S
C2057 H2045 0.950 . S
C2057 C2053 1.393 . S
C2057 C2056 1.391 . S
C2058 H2048 0.950 . S
C2058 C2059 1.386 . S
C2058 C2060 1.391 . S
C2059 C2058 1.386 . S
C2059 C2063 1.393 . S
C2060 H2049 0.950 . S
C2060 C2058 1.391 . S
C2060 C2061 1.400 . S
C2061 C2055 1.491 1_545 S
C2061 C2060 1.400 . S
C2061 C2062 1.398 . S
C2062 H2050 0.950 . S
C2062 C2061 1.398 . S
C2062 C2063 1.391 . S
C2063 H2051 0.950 . S
C2063 C2059 1.393 . S
C2063 C2062 1.391 . S
H2064 C2072 0.950 . S
H2065 C2077 0.950 . S
H2066 C2074 0.950 . S
H2067 C2076 0.950 . S
H2068 C2078 0.950 . S
H2069 C2080 0.950 . S
H2070 C2082 0.950 . S
H2071 C2083 0.950 . S
C2072 H2064 0.950 . S
C2072 C2073 1.386 . S
C2072 C2074 1.391 . S
C2073 C2072 1.386 . S
C2073 C2077 1.393 . S
C2074 H2066 0.950 . S
C2074 C2072 1.391 . S
C2074 C2075 1.400 . S
C2075 C2074 1.400 . S
C2075 C2076 1.398 . S
C2075 C2081 1.491 . S
C2076 H2067 0.950 . S
C2076 C2075 1.398 . S
C2076 C2077 1.391 . S
C2077 H2065 0.950 . S
C2077 C2073 1.393 . S
C2077 C2076 1.391 . S
C2078 H2068 0.950 . S
C2078 C2079 1.386 . S
C2078 C2080 1.391 . S
C2079 C2078 1.386 . S
C2079 C2083 1.393 . S
C2080 H2069 0.950 . S
C2080 C2078 1.391 . S
C2080 C2081 1.400 . S
C2081 C2075 1.491 . S
C2081 C2080 1.400 . S
C2081 C2082 1.398 . S
C2082 H2070 0.950 . S
C2082 C2081 1.398 . S
C2082 C2083 1.391 . S
C2083 H2071 0.950 . S
C2083 C2079 1.393 . S
C2083 C2082 1.391 . S
H2084 C2092 0.950 . S
H2085 C2097 0.950 . S
H2086 C2094 0.950 . S
H2087 C2096 0.950 . S
H2088 C2098 0.950 . S
H2089 C2100 0.950 . S
H2090 C2102 0.950 . S
H2091 C2103 0.950 . S
C2092 H2084 0.950 . S
C2092 C2093 1.386 . S
C2092 C2094 1.391 . S
C2093 C2092 1.386 . S
C2093 C2097 1.393 . S
C2094 H2086 0.950 . S
C2094 C2092 1.391 . S
C2094 C2095 1.400 . S
C2095 C2094 1.400 . S
C2095 C2096 1.398 . S
C2095 C2101 1.491 . S
C2096 H2087 0.950 . S
C2096 C2095 1.398 . S
C2096 C2097 1.391 . S
C2097 H2085 0.950 . S
C2097 C2093 1.393 . S
C2097 C2096 1.391 . S
C2098 H2088 0.950 . S
C2098 C2099 1.386 . S
C2098 C2100 1.391 . S
C2099 C2098 1.386 . S
C2099 C2103 1.393 . S
C2100 H2089 0.950 . S
C2100 C2098 1.391 . S
C2100 C2101 1.400 . S
C2101 C2095 1.491 . S
C2101 C2100 1.400 . S
C2101 C2102 1.398 . S
C2102 H2090 0.950 . S
C2102 C2101 1.398 . S
C2102 C2103 1.391 . S
C2103 H2091 0.950 . S
C2103 C2099 1.393 . S
C2103 C2102 1.391 . S
H2104 C2112 0.950 . S
H2105 C2117 0.950 . S
H2106 C2114 0.950 . S
H2107 C2116 0.950 . S
H2108 C2118 0.950 . S
H2109 C2120 0.950 . S
H2110 C2122 0.950 . S
H2111 C2123 0.950 . S
C2112 H2104 0.950 . S
C2112 C2113 1.386 . S
C2112 C2114 1.391 . S
C2113 C2112 1.386 . S
C2113 C2117 1.393 . S
C2114 H2106 0.950 . S
C2114 C2112 1.391 . S
C2114 C2115 1.400 . S
C2115 C2114 1.400 . S
C2115 C2116 1.398 . S
C2115 C2121 1.491 . S
C2116 H2107 0.950 . S
C2116 C2115 1.398 . S
C2116 C2117 1.391 . S
C2117 H2105 0.950 . S
C2117 C2113 1.393 . S
C2117 C2116 1.391 . S
C2118 H2108 0.950 . S
C2118 C2119 1.386 . S
C2118 C2120 1.391 . S
C2119 C2118 1.386 . S
C2119 C2123 1.393 . S
C2120 H2109 0.950 . S
C2120 C2118 1.391 . S
C2120 C2121 1.400 . S
C2121 C2115 1.491 . S
C2121 C2120 1.400 . S
C2121 C2122 1.398 . S
C2122 H2110 0.950 . S
C2122 C2121 1.398 . S
C2122 C2123 1.391 . S
C2123 H2111 0.950 . S
C2123 C2119 1.393 . S
C2123 C2122 1.391 . S
H2124 C2132 0.950 . S
H2125 C2137 0.950 . S
H2126 C2134 0.950 . S
H2127 C2136 0.950 1_554 S
H2128 C2138 0.950 . S
H2129 C2140 0.950 . S
H2130 C2142 0.950 1_556 S
H2131 C2143 0.950 . S
C2132 H2124 0.950 . S
C2132 C2133 1.386 . S
C2132 C2134 1.391 . S
C2133 C2132 1.386 . S
C2133 C2137 1.393 . S
C2134 H2126 0.950 . S
C2134 C2132 1.391 . S
C2134 C2135 1.400 . S
C2135 C2134 1.400 . S
C2135 C2136 1.398 . S
C2135 C2141 1.491 1_556 S
C2136 H2127 0.950 1_556 S
C2136 C2135 1.398 . S
C2136 C2137 1.391 . S
C2137 H2125 0.950 . S
C2137 C2133 1.393 . S
C2137 C2136 1.391 . S
C2138 H2128 0.950 . S
C2138 C2139 1.386 . S
C2138 C2140 1.391 . S
C2139 C2138 1.386 . S
C2139 C2143 1.393 . S
C2140 H2129 0.950 . S
C2140 C2138 1.391 . S
C2140 C2141 1.400 . S
C2141 C2135 1.491 1_554 S
C2141 C2140 1.400 . S
C2141 C2142 1.398 . S
C2142 H2130 0.950 1_554 S
C2142 C2141 1.398 . S
C2142 C2143 1.391 . S
C2143 H2131 0.950 . S
C2143 C2139 1.393 . S
C2143 C2142 1.391 . S
H2144 C2152 0.950 . S
H2145 C2157 0.950 . S
H2146 C2154 0.950 . S
H2147 C2156 0.950 . S
H2148 C2158 0.950 . S
H2149 C2160 0.950 . S
H2150 C2162 0.950 . S
H2151 C2163 0.950 . S
C2152 H2144 0.950 . S
C2152 C2153 1.386 . S
C2152 C2154 1.391 . S
C2153 C2152 1.386 . S
C2153 C2157 1.393 . S
C2154 H2146 0.950 . S
C2154 C2152 1.391 . S
C2154 C2155 1.400 . S
C2155 C2154 1.400 . S
C2155 C2156 1.398 . S
C2155 C2161 1.491 . S
C2156 H2147 0.950 . S
C2156 C2155 1.398 . S
C2156 C2157 1.391 . S
C2157 H2145 0.950 . S
C2157 C2153 1.393 . S
C2157 C2156 1.391 . S
C2158 H2148 0.950 . S
C2158 C2159 1.386 . S
C2158 C2160 1.391 . S
C2159 C2158 1.386 . S
C2159 C2163 1.393 . S
C2160 H2149 0.950 . S
C2160 C2158 1.391 . S
C2160 C2161 1.400 . S
C2161 C2155 1.491 . S
C2161 C2160 1.400 . S
C2161 C2162 1.398 . S
C2162 H2150 0.950 . S
C2162 C2161 1.398 . S
C2162 C2163 1.391 . S
C2163 H2151 0.950 . S
C2163 C2159 1.393 . S
C2163 C2162 1.391 . S
H2164 C2172 0.950 . S
H2165 C2177 0.950 . S
H2166 C2174 0.950 . S
H2167 C2176 0.930 1_554 S
H2168 C2178 0.950 . S
H2169 C2180 0.950 . S
H2170 C2182 0.930 1_556 S
H2171 C2183 0.950 . S
C2172 H2164 0.950 . S
C2172 C2173 1.386 . S
C2172 C2174 1.391 . S
C2173 C2172 1.386 . S
C2173 C2177 1.393 . S
C2174 H2166 0.950 . S
C2174 C2172 1.391 . S
C2174 C2175 1.400 . S
C2175 C2174 1.400 . S
C2175 C2176 1.398 . S
C2175 C2181 1.491 1_556 S
C2176 H2167 0.930 1_556 S
C2176 C2175 1.398 . S
C2176 C2177 1.391 . S
C2177 H2165 0.950 . S
C2177 C2173 1.393 . S
C2177 C2176 1.391 . S
C2178 H2168 0.950 . S
C2178 C2179 1.386 . S
C2178 C2180 1.391 . S
C2179 C2178 1.386 . S
C2179 C2183 1.393 . S
C2180 H2169 0.950 . S
C2180 C2178 1.391 . S
C2180 C2181 1.400 . S
C2181 C2175 1.491 1_554 S
C2181 C2180 1.400 . S
C2181 C2182 1.398 . S
C2182 H2170 0.930 1_554 S
C2182 C2181 1.398 . S
C2182 C2183 1.391 . S
C2183 H2171 0.950 . S
C2183 C2179 1.393 . S
C2183 C2182 1.391 . S
H2184 C2192 0.950 . S
H2185 C2197 0.950 . S
H2186 C2194 1.004 . S
H2187 C2196 0.950 . S
H2188 C2198 0.950 . S
H2189 C2200 1.004 . S
H2190 C2202 0.950 . S
H2191 C2203 0.950 . S
C2192 H2184 0.950 . S
C2192 C2193 1.386 . S
C2192 C2194 1.360 1_565 S
C2193 C2192 1.386 . S
C2193 C2197 1.393 . S
C2194 H2186 1.004 . S
C2194 C2192 1.360 1_545 S
C2194 C2195 1.381 1_545 S
C2195 C2194 1.381 1_565 S
C2195 C2196 1.398 . S
C2195 C2201 1.491 1_565 S
C2196 H2187 0.950 . S
C2196 C2195 1.398 . S
C2196 C2197 1.391 . S
C2197 H2185 0.950 . S
C2197 C2193 1.393 . S
C2197 C2196 1.391 . S
C2198 H2188 0.950 . S
C2198 C2199 1.386 . S
C2198 C2200 1.360 1_545 S
C2199 C2198 1.386 . S
C2199 C2203 1.393 . S
C2200 H2189 1.004 . S
C2200 C2198 1.360 1_565 S
C2200 C2201 1.381 1_565 S
C2201 C2195 1.491 1_545 S
C2201 C2200 1.381 1_545 S
C2201 C2202 1.398 . S
C2202 H2190 0.950 . S
C2202 C2201 1.398 . S
C2202 C2203 1.391 . S
C2203 H2191 0.950 . S
C2203 C2199 1.393 . S
C2203 C2202 1.391 . S
H2204 C2212 0.950 . S
H2205 C2217 0.950 . S
H2206 C2214 0.950 . S
H2207 C2216 0.950 . S
H2208 C2218 0.950 . S
H2209 C2220 0.950 . S
H2210 C2222 0.950 . S
H2211 C2223 0.950 . S
C2212 H2204 0.950 . S
C2212 C2213 1.386 . S
C2212 C2214 1.391 . S
C2213 C2212 1.386 . S
C2213 C2217 1.393 . S
C2214 H2206 0.950 . S
C2214 C2212 1.391 . S
C2214 C2215 1.400 . S
C2215 C2214 1.400 . S
C2215 C2216 1.398 . S
C2215 C2221 1.491 . S
C2216 H2207 0.950 . S
C2216 C2215 1.398 . S
C2216 C2217 1.391 . S
C2217 H2205 0.950 . S
C2217 C2213 1.393 . S
C2217 C2216 1.391 . S
C2218 H2208 0.950 . S
C2218 C2219 1.386 . S
C2218 C2220 1.391 . S
C2219 C2218 1.386 . S
C2219 C2223 1.393 . S
C2220 H2209 0.950 . S
C2220 C2218 1.391 . S
C2220 C2221 1.400 . S
C2221 C2215 1.491 . S
C2221 C2220 1.400 . S
C2221 C2222 1.398 . S
C2222 H2210 0.950 . S
C2222 C2221 1.398 . S
C2222 C2223 1.391 . S
C2223 H2211 0.950 . S
C2223 C2219 1.393 . S
C2223 C2222 1.391 . S
H2224 C2232 0.950 . S
H2225 C2237 0.950 . S
H2226 C2234 0.950 1_545 S
H2227 C2236 0.950 . S
H2228 C2238 0.950 . S
H2229 C2240 0.950 1_565 S
H2230 C2242 0.950 . S
H2231 C2243 0.950 . S
C2232 H2224 0.950 . S
C2232 C2233 1.386 . S
C2232 C2234 1.391 . S
C2233 C2232 1.386 . S
C2233 C2237 1.393 . S
C2234 H2226 0.950 1_565 S
C2234 C2232 1.391 . S
C2234 C2235 1.400 . S
C2235 C2234 1.400 . S
C2235 C2236 1.398 . S
C2235 C2241 1.491 1_565 S
C2236 H2227 0.950 . S
C2236 C2235 1.398 . S
C2236 C2237 1.391 . S
C2237 H2225 0.950 . S
C2237 C2233 1.393 . S
C2237 C2236 1.391 . S
C2238 H2228 0.950 . S
C2238 C2239 1.386 . S
C2238 C2240 1.391 . S
C2239 C2238 1.386 . S
C2239 C2243 1.393 . S
C2240 H2229 0.950 1_545 S
C2240 C2238 1.391 . S
C2240 C2241 1.400 . S
C2241 C2235 1.491 1_545 S
C2241 C2240 1.400 . S
C2241 C2242 1.398 . S
C2242 H2230 0.950 . S
C2242 C2241 1.398 . S
C2242 C2243 1.391 . S
C2243 H2231 0.950 . S
C2243 C2239 1.393 . S
C2243 C2242 1.391 . S
H2244 C2252 0.950 . S
H2245 C2257 0.950 . S
H2246 C2254 0.950 . S
H2247 C2256 0.950 . S
H2248 C2258 0.950 . S
H2249 C2260 0.950 . S
H2250 C2262 0.950 . S
H2251 C2263 0.950 . S
C2252 H2244 0.950 . S
C2252 C2253 1.386 . S
C2252 C2254 1.391 . S
C2253 C2252 1.386 . S
C2253 C2257 1.393 . S
C2254 H2246 0.950 . S
C2254 C2252 1.391 . S
C2254 C2255 1.400 . S
C2255 C2254 1.400 . S
C2255 C2256 1.398 . S
C2255 C2261 1.491 . S
C2256 H2247 0.950 . S
C2256 C2255 1.398 . S
C2256 C2257 1.391 . S
C2257 H2245 0.950 . S
C2257 C2253 1.393 . S
C2257 C2256 1.391 . S
C2258 H2248 0.950 . S
C2258 C2259 1.386 . S
C2258 C2260 1.391 . S
C2259 C2258 1.386 . S
C2259 C2263 1.393 . S
C2260 H2249 0.950 . S
C2260 C2258 1.391 . S
C2260 C2261 1.400 . S
C2261 C2255 1.491 . S
C2261 C2260 1.400 . S
C2261 C2262 1.398 . S
C2262 H2250 0.950 . S
C2262 C2261 1.398 . S
C2262 C2263 1.391 . S
C2263 H2251 0.950 . S
C2263 C2259 1.393 . S
C2263 C2262 1.391 . S
H2264 C2272 0.950 . S
H2265 C2277 0.950 . S
H2266 C2274 0.950 . S
H2267 C2276 0.950 . S
H2268 C2278 0.950 . S
H2269 C2280 0.950 . S
H2270 C2282 0.950 . S
H2271 C2283 0.950 . S
C2272 H2264 0.950 . S
C2272 C2273 1.386 . S
C2272 C2274 1.391 . S
C2273 C2272 1.386 . S
C2273 C2277 1.393 . S
C2274 H2266 0.950 . S
C2274 C2272 1.391 . S
C2274 C2275 1.400 . S
C2275 C2274 1.400 . S
C2275 C2276 1.398 . S
C2275 C2281 1.491 . S
C2276 H2267 0.950 . S
C2276 C2275 1.398 . S
C2276 C2277 1.391 . S
C2277 H2265 0.950 . S
C2277 C2273 1.393 . S
C2277 C2276 1.391 . S
C2278 H2268 0.950 . S
C2278 C2279 1.386 . S
C2278 C2280 1.391 . S
C2279 C2278 1.386 . S
C2279 C2283 1.393 . S
C2280 H2269 0.950 . S
C2280 C2278 1.391 . S
C2280 C2281 1.400 . S
C2281 C2275 1.491 . S
C2281 C2280 1.400 . S
C2281 C2282 1.398 . S
C2282 H2270 0.950 . S
C2282 C2281 1.398 . S
C2282 C2283 1.391 . S
C2283 H2271 0.950 . S
C2283 C2279 1.393 . S
C2283 C2282 1.391 . S
H2284 C2292 0.950 . S
H2285 C2297 0.950 . S
H2286 C2294 0.950 . S
H2287 C2296 0.950 . S
H2288 C2298 0.950 . S
H2289 C2300 0.950 . S
H2290 C2302 0.950 . S
H2291 C2303 0.950 . S
C2292 H2284 0.950 . S
C2292 C2293 1.386 . S
C2292 C2294 1.391 . S
C2293 C2292 1.386 . S
C2293 C2297 1.393 . S
C2294 H2286 0.950 . S
C2294 C2292 1.391 . S
C2294 C2295 1.400 . S
C2295 C2294 1.400 . S
C2295 C2296 1.398 . S
C2295 C2301 1.491 . S
C2296 H2287 0.950 . S
C2296 C2295 1.398 . S
C2296 C2297 1.391 . S
C2297 H2285 0.950 . S
C2297 C2293 1.393 . S
C2297 C2296 1.391 . S
C2298 H2288 0.950 . S
C2298 C2299 1.386 . S
C2298 C2300 1.391 . S
C2299 C2298 1.386 . S
C2299 C2303 1.393 . S
C2300 H2289 0.950 . S
C2300 C2298 1.391 . S
C2300 C2301 1.400 . S
C2301 C2295 1.491 . S
C2301 C2300 1.400 . S
C2301 C2302 1.398 . S
C2302 H2290 0.950 . S
C2302 C2301 1.398 . S
C2302 C2303 1.391 . S
C2303 H2291 0.950 . S
C2303 C2299 1.393 . S
C2303 C2302 1.391 . S
H2304 C2312 0.950 . S
H2305 C2317 0.950 . S
H2306 C2314 0.950 . S
H2307 C2316 0.950 . S
H2308 C2318 0.950 . S
H2309 C2320 0.950 1_455 S
H2310 C2322 0.950 . S
H2311 C2323 0.950 . S
C2312 H2304 0.950 . S
C2312 C2313 1.386 . S
C2312 C2314 1.391 1_455 S
C2313 C2312 1.386 . S
C2313 C2317 1.393 . S
C2314 H2306 0.950 . S
C2314 C2312 1.391 1_655 S
C2314 C2315 1.400 1_655 S
C2315 C2314 1.400 1_455 S
C2315 C2316 1.398 . S
C2315 C2321 1.491 1_455 S
C2316 H2307 0.950 . S
C2316 C2315 1.398 . S
C2316 C2317 1.391 . S
C2317 H2305 0.950 . S
C2317 C2313 1.393 . S
C2317 C2316 1.391 . S
C2318 H2308 0.950 . S
C2318 C2319 1.386 . S
C2318 C2320 1.391 . S
C2319 C2318 1.386 . S
C2319 C2323 1.393 . S
C2320 H2309 0.950 1_655 S
C2320 C2318 1.391 . S
C2320 C2321 1.400 . S
C2321 C2315 1.491 1_655 S
C2321 C2320 1.400 . S
C2321 C2322 1.398 . S
C2322 H2310 0.950 . S
C2322 C2321 1.398 . S
C2322 C2323 1.391 . S
C2323 H2311 0.950 . S
C2323 C2319 1.393 . S
C2323 C2322 1.391 . S
H2324 C2332 0.950 . S
H2325 C2337 0.950 . S
H2326 C2334 0.950 . S
H2327 C2336 0.950 . S
H2328 C2338 0.950 . S
H2329 C2340 0.950 1_655 S
H2330 C2342 0.950 . S
H2331 C2343 0.950 . S
C2332 H2324 0.950 . S
C2332 C2333 1.386 . S
C2332 C2334 1.391 . S
C2333 C2332 1.386 . S
C2333 C2337 1.393 . S
C2334 H2326 0.950 . S
C2334 C2332 1.391 . S
C2334 C2335 1.400 . S
C2335 C2334 1.400 . S
C2335 C2336 1.398 . S
C2335 C2341 1.491 1_655 S
C2336 H2327 0.950 . S
C2336 C2335 1.398 . S
C2336 C2337 1.391 . S
C2337 H2325 0.950 . S
C2337 C2333 1.393 . S
C2337 C2336 1.391 . S
C2338 H2328 0.950 . S
C2338 C2339 1.386 . S
C2338 C2340 1.391 . S
C2339 C2338 1.386 . S
C2339 C2343 1.393 . S
C2340 H2329 0.950 1_455 S
C2340 C2338 1.391 . S
C2340 C2341 1.400 . S
C2341 C2335 1.491 1_455 S
C2341 C2340 1.400 . S
C2341 C2342 1.398 . S
C2342 H2330 0.950 . S
C2342 C2341 1.398 . S
C2342 C2343 1.391 . S
C2343 H2331 0.950 . S
C2343 C2339 1.393 . S
C2343 C2342 1.391 . S
H2344 C2352 0.950 . S
H2345 C2357 0.950 . S
H2346 C2354 0.998 . S
H2347 C2356 0.950 . S
H2348 C2358 0.950 . S
H2349 C2360 0.950 1_655 S
H2350 C2362 0.950 . S
H2351 C2363 0.950 . S
C2352 H2344 0.950 . S
C2352 C2353 1.386 . S
C2352 C2354 1.357 1_655 S
C2353 C2352 1.386 . S
C2353 C2357 1.393 . S
C2354 H2346 0.998 . S
C2354 C2352 1.357 1_455 S
C2354 C2355 1.390 1_455 S
C2355 C2354 1.390 1_655 S
C2355 C2356 1.398 . S
C2355 C2361 1.491 1_655 S
C2356 H2347 0.950 . S
C2356 C2355 1.398 . S
C2356 C2357 1.391 . S
C2357 H2345 0.950 . S
C2357 C2353 1.393 . S
C2357 C2356 1.391 . S
C2358 H2348 0.950 . S
C2358 C2359 1.386 . S
C2358 C2360 1.391 . S
C2359 C2358 1.386 . S
C2359 C2363 1.393 . S
C2360 H2349 0.950 1_455 S
C2360 C2358 1.391 . S
C2360 C2361 1.400 . S
C2361 C2355 1.491 1_455 S
C2361 C2360 1.400 . S
C2361 C2362 1.398 . S
C2362 H2350 0.950 . S
C2362 C2361 1.398 . S
C2362 C2363 1.391 . S
C2363 H2351 0.950 . S
C2363 C2359 1.393 . S
C2363 C2362 1.391 . S
H2364 C2372 0.950 . S
H2365 C2377 0.950 . S
H2366 C2374 0.950 1_455 S
H2367 C2376 0.950 . S
H2368 C2378 0.950 . S
H2369 C2380 0.950 . S
H2370 C2382 0.950 . S
H2371 C2383 0.950 . S
C2372 H2364 0.950 . S
C2372 C2373 1.386 . S
C2372 C2374 1.391 . S
C2373 C2372 1.386 . S
C2373 C2377 1.393 . S
C2374 H2366 0.950 1_655 S
C2374 C2372 1.391 . S
C2374 C2375 1.400 . S
C2375 C2374 1.400 . S
C2375 C2376 1.398 . S
C2375 C2381 1.491 1_655 S
C2376 H2367 0.950 . S
C2376 C2375 1.398 . S
C2376 C2377 1.391 . S
C2377 H2365 0.950 . S
C2377 C2373 1.393 . S
C2377 C2376 1.391 . S
C2378 H2368 0.950 . S
C2378 C2379 1.386 . S
C2378 C2380 1.391 . S
C2379 C2378 1.386 . S
C2379 C2383 1.393 . S
C2380 H2369 0.950 . S
C2380 C2378 1.391 . S
C2380 C2381 1.400 . S
C2381 C2375 1.491 1_455 S
C2381 C2380 1.400 . S
C2381 C2382 1.398 . S
C2382 H2370 0.950 . S
C2382 C2381 1.398 . S
C2382 C2383 1.391 . S
C2383 H2371 0.950 . S
C2383 C2379 1.393 . S
C2383 C2382 1.391 . S
H2384 C2392 0.950 . S
H2385 C2397 0.950 . S
H2386 C2394 0.950 . S
H2387 C2396 0.950 1_655 S
H2388 C2398 0.950 . S
H2389 C2400 0.950 . S
H2390 C2402 0.950 . S
H2391 C2403 0.950 . S
C2392 H2384 0.950 . S
C2392 C2393 1.386 . S
C2392 C2394 1.391 . S
C2393 C2392 1.386 . S
C2393 C2397 1.393 . S
C2394 H2386 0.950 . S
C2394 C2392 1.391 . S
C2394 C2395 1.400 . S
C2395 C2394 1.400 . S
C2395 C2396 1.398 . S
C2395 C2401 1.491 1_455 S
C2396 H2387 0.950 1_455 S
C2396 C2395 1.398 . S
C2396 C2397 1.391 . S
C2397 H2385 0.950 . S
C2397 C2393 1.393 . S
C2397 C2396 1.391 . S
C2398 H2388 0.950 . S
C2398 C2399 1.386 . S
C2398 C2400 1.391 . S
C2399 C2398 1.386 . S
C2399 C2403 1.393 . S
C2400 H2389 0.950 . S
C2400 C2398 1.391 . S
C2400 C2401 1.400 . S
C2401 C2395 1.491 1_655 S
C2401 C2400 1.400 . S
C2401 C2402 1.398 . S
C2402 H2390 0.950 . S
C2402 C2401 1.398 . S
C2402 C2403 1.391 . S
C2403 H2391 0.950 . S
C2403 C2399 1.393 . S
C2403 C2402 1.391 . S
H2404 C2412 0.950 . S
H2405 C2417 0.950 . S
H2406 C2414 0.950 . S
H2407 C2416 0.950 . S
H2408 C2418 0.950 . S
H2409 C2420 0.950 . S
H2410 C2422 0.950 . S
H2411 C2423 0.950 . S
C2412 H2404 0.950 . S
C2412 C2413 1.386 . S
C2412 C2414 1.391 . S
C2413 C2412 1.386 . S
C2413 C2417 1.393 . S
C2414 H2406 0.950 . S
C2414 C2412 1.391 . S
C2414 C2415 1.400 . S
C2415 C2414 1.400 . S
C2415 C2416 1.398 . S
C2415 C2421 1.491 . S
C2416 H2407 0.950 . S
C2416 C2415 1.398 . S
C2416 C2417 1.391 . S
C2417 H2405 0.950 . S
C2417 C2413 1.393 . S
C2417 C2416 1.391 . S
C2418 H2408 0.950 . S
C2418 C2419 1.386 . S
C2418 C2420 1.391 . S
C2419 C2418 1.386 . S
C2419 C2423 1.393 . S
C2420 H2409 0.950 . S
C2420 C2418 1.391 . S
C2420 C2421 1.400 . S
C2421 C2415 1.491 . S
C2421 C2420 1.400 . S
C2421 C2422 1.398 . S
C2422 H2410 0.950 . S
C2422 C2421 1.398 . S
C2422 C2423 1.391 . S
C2423 H2411 0.950 . S
C2423 C2419 1.393 . S
C2423 C2422 1.391 . S
H2424 C2432 0.950 . S
H2425 C2437 0.950 . S
H2426 C2434 0.950 . S
H2427 C2436 0.950 . S
H2428 C2438 0.950 . S
H2429 C2440 0.950 . S
H2430 C2442 0.950 1_655 S
H2431 C2443 0.950 . S
C2432 H2424 0.950 . S
C2432 C2433 1.386 . S
C2432 C2434 1.391 . S
C2433 C2432 1.386 . S
C2433 C2437 1.393 . S
C2434 H2426 0.950 . S
C2434 C2432 1.391 . S
C2434 C2435 1.400 . S
C2435 C2434 1.400 . S
C2435 C2436 1.398 1_655 S
C2435 C2441 1.491 1_655 S
C2436 H2427 0.950 . S
C2436 C2435 1.398 1_455 S
C2436 C2437 1.391 1_455 S
C2437 H2425 0.950 . S
C2437 C2433 1.393 . S
C2437 C2436 1.391 1_655 S
C2438 H2428 0.950 . S
C2438 C2439 1.386 . S
C2438 C2440 1.391 . S
C2439 C2438 1.386 . S
C2439 C2443 1.393 . S
C2440 H2429 0.950 . S
C2440 C2438 1.391 . S
C2440 C2441 1.400 . S
C2441 C2435 1.491 1_455 S
C2441 C2440 1.400 . S
C2441 C2442 1.398 . S
C2442 H2430 0.950 1_455 S
C2442 C2441 1.398 . S
C2442 C2443 1.391 . S
C2443 H2431 0.950 . S
C2443 C2439 1.393 . S
C2443 C2442 1.391 . S
H2444 C2452 0.950 . S
H2445 C2457 0.950 . S
H2446 C2454 0.950 . S
H2447 C2456 0.950 . S
H2448 C2458 0.950 . S
H2449 C2460 0.950 . S
H2450 C2462 0.950 . S
H2451 C2463 0.950 . S
C2452 H2444 0.950 . S
C2452 C2453 1.386 . S
C2452 C2454 1.391 . S
C2453 C2452 1.386 . S
C2453 C2457 1.393 . S
C2454 H2446 0.950 . S
C2454 C2452 1.391 . S
C2454 C2455 1.400 . S
C2455 C2454 1.400 . S
C2455 C2456 1.398 . S
C2455 C2461 1.491 . S
C2456 H2447 0.950 . S
C2456 C2455 1.398 . S
C2456 C2457 1.391 . S
C2457 H2445 0.950 . S
C2457 C2453 1.393 . S
C2457 C2456 1.391 . S
C2458 H2448 0.950 . S
C2458 C2459 1.386 . S
C2458 C2460 1.391 . S
C2459 C2458 1.386 . S
C2459 C2463 1.393 . S
C2460 H2449 0.950 . S
C2460 C2458 1.391 . S
C2460 C2461 1.400 . S
C2461 C2455 1.491 . S
C2461 C2460 1.400 . S
C2461 C2462 1.398 . S
C2462 H2450 0.950 . S
C2462 C2461 1.398 . S
C2462 C2463 1.391 . S
C2463 H2451 0.950 . S
C2463 C2459 1.393 . S
C2463 C2462 1.391 . S
H2464 C2472 0.950 . S
H2465 C2477 0.950 . S
H2466 C2474 0.950 1_565 S
H2467 C2476 0.950 . S
H2468 C2478 0.950 . S
H2469 C2480 0.950 . S
H2470 C2482 0.950 . S
H2471 C2483 0.950 . S
C2472 H2464 0.950 . S
C2472 C2473 1.386 . S
C2472 C2474 1.391 . S
C2473 C2472 1.386 . S
C2473 C2477 1.393 . S
C2474 H2466 0.950 1_545 S
C2474 C2472 1.391 . S
C2474 C2475 1.400 . S
C2475 C2474 1.400 . S
C2475 C2476 1.398 . S
C2475 C2481 1.491 1_545 S
C2476 H2467 0.950 . S
C2476 C2475 1.398 . S
C2476 C2477 1.391 . S
C2477 H2465 0.950 . S
C2477 C2473 1.393 . S
C2477 C2476 1.391 . S
C2478 H2468 0.950 . S
C2478 C2479 1.386 . S
C2478 C2480 1.391 . S
C2479 C2478 1.386 . S
C2479 C2483 1.393 . S
C2480 H2469 0.950 . S
C2480 C2478 1.391 . S
C2480 C2481 1.400 . S
C2481 C2475 1.491 1_565 S
C2481 C2480 1.400 . S
C2481 C2482 1.398 . S
C2482 H2470 0.950 . S
C2482 C2481 1.398 . S
C2482 C2483 1.391 . S
C2483 H2471 0.950 . S
C2483 C2479 1.393 . S
C2483 C2482 1.391 . S
H2484 C2492 0.950 . S
H2485 C2497 0.950 . S
H2486 C2494 0.950 . S
H2487 C2496 0.950 . S
H2488 C2498 0.950 . S
H2489 C2500 0.950 . S
H2490 C2502 0.950 . S
H2491 C2503 0.950 . S
C2492 H2484 0.950 . S
C2492 C2493 1.386 . S
C2492 C2494 1.391 . S
C2493 C2492 1.386 . S
C2493 C2497 1.393 . S
C2494 H2486 0.950 . S
C2494 C2492 1.391 . S
C2494 C2495 1.400 . S
C2495 C2494 1.400 . S
C2495 C2496 1.398 . S
C2495 C2501 1.491 . S
C2496 H2487 0.950 . S
C2496 C2495 1.398 . S
C2496 C2497 1.391 . S
C2497 H2485 0.950 . S
C2497 C2493 1.393 . S
C2497 C2496 1.391 . S
C2498 H2488 0.950 . S
C2498 C2499 1.386 . S
C2498 C2500 1.391 . S
C2499 C2498 1.386 . S
C2499 C2503 1.393 . S
C2500 H2489 0.950 . S
C2500 C2498 1.391 . S
C2500 C2501 1.400 . S
C2501 C2495 1.491 . S
C2501 C2500 1.400 . S
C2501 C2502 1.398 . S
C2502 H2490 0.950 . S
C2502 C2501 1.398 . S
C2502 C2503 1.391 . S
C2503 H2491 0.950 . S
C2503 C2499 1.393 . S
C2503 C2502 1.391 . S
H2504 C2512 0.950 . S
H2505 C2517 0.950 . S
H2506 C2514 0.950 . S
H2507 C2516 0.950 . S
H2508 C2518 0.950 . S
H2509 C2520 0.950 . S
H2510 C2522 0.950 . S
H2511 C2523 0.950 . S
C2512 H2504 0.950 . S
C2512 C2513 1.386 . S
C2512 C2514 1.391 . S
C2513 C2512 1.386 . S
C2513 C2517 1.393 . S
C2514 H2506 0.950 . S
C2514 C2512 1.391 . S
C2514 C2515 1.400 . S
C2515 C2514 1.400 . S
C2515 C2516 1.398 . S
C2515 C2521 1.491 . S
C2516 H2507 0.950 . S
C2516 C2515 1.398 . S
C2516 C2517 1.391 . S
C2517 H2505 0.950 . S
C2517 C2513 1.393 . S
C2517 C2516 1.391 . S
C2518 H2508 0.950 . S
C2518 C2519 1.386 . S
C2518 C2520 1.391 . S
C2519 C2518 1.386 . S
C2519 C2523 1.393 . S
C2520 H2509 0.950 . S
C2520 C2518 1.391 . S
C2520 C2521 1.400 . S
C2521 C2515 1.491 . S
C2521 C2520 1.400 . S
C2521 C2522 1.398 . S
C2522 H2510 0.950 . S
C2522 C2521 1.398 . S
C2522 C2523 1.391 . S
C2523 H2511 0.950 . S
C2523 C2519 1.393 . S
C2523 C2522 1.391 . S
H2524 C2532 0.950 . S
H2525 C2537 0.950 . S
H2526 C2534 0.950 . S
H2527 C2536 0.950 1_556 S
H2528 C2538 0.950 . S
H2529 C2540 0.950 . S
H2530 C2542 0.950 . S
H2531 C2543 0.950 . S
C2532 H2524 0.950 . S
C2532 C2533 1.386 . S
C2532 C2534 1.391 . S
C2533 C2532 1.386 . S
C2533 C2537 1.393 . S
C2534 H2526 0.950 . S
C2534 C2532 1.391 . S
C2534 C2535 1.400 . S
C2535 C2534 1.400 . S
C2535 C2536 1.398 . S
C2535 C2541 1.491 1_554 S
C2536 H2527 0.950 1_554 S
C2536 C2535 1.398 . S
C2536 C2537 1.391 . S
C2537 H2525 0.950 . S
C2537 C2533 1.393 . S
C2537 C2536 1.391 . S
C2538 H2528 0.950 . S
C2538 C2539 1.386 . S
C2538 C2540 1.391 . S
C2539 C2538 1.386 . S
C2539 C2543 1.393 . S
C2540 H2529 0.950 . S
C2540 C2538 1.391 . S
C2540 C2541 1.400 . S
C2541 C2535 1.491 1_556 S
C2541 C2540 1.400 . S
C2541 C2542 1.398 1_556 S
C2542 H2530 0.950 . S
C2542 C2541 1.398 1_554 S
C2542 C2543 1.391 1_554 S
C2543 H2531 0.950 . S
C2543 C2539 1.393 . S
C2543 C2542 1.391 1_556 S
H2544 C2552 0.950 . S
H2545 C2557 0.950 . S
H2546 C2554 0.950 1_565 S
H2547 C2556 0.950 . S
H2548 C2558 0.950 . S
H2549 C2560 0.950 . S
H2550 C2562 0.950 . S
H2551 C2563 0.950 . S
C2552 H2544 0.950 . S
C2552 C2553 1.386 . S
C2552 C2554 1.391 . S
C2553 C2552 1.386 . S
C2553 C2557 1.393 . S
C2554 H2546 0.950 1_545 S
C2554 C2552 1.391 . S
C2554 C2555 1.400 . S
C2555 C2554 1.400 . S
C2555 C2556 1.398 . S
C2555 C2561 1.491 1_545 S
C2556 H2547 0.950 . S
C2556 C2555 1.398 . S
C2556 C2557 1.391 . S
C2557 H2545 0.950 . S
C2557 C2553 1.393 . S
C2557 C2556 1.391 . S
C2558 H2548 0.950 . S
C2558 C2559 1.386 . S
C2558 C2560 1.391 1_565 S
C2559 C2558 1.386 . S
C2559 C2563 1.393 . S
C2560 H2549 0.950 . S
C2560 C2558 1.391 1_545 S
C2560 C2561 1.400 1_545 S
C2561 C2555 1.491 1_565 S
C2561 C2560 1.400 1_565 S
C2561 C2562 1.398 . S
C2562 H2550 0.950 . S
C2562 C2561 1.398 . S
C2562 C2563 1.391 . S
C2563 H2551 0.950 . S
C2563 C2559 1.393 . S
C2563 C2562 1.391 . S
H2564 C2572 0.950 . S
H2565 C2577 0.950 . S
H2566 C2574 0.950 . S
H2567 C2576 0.950 . S
H2568 C2578 0.950 . S
H2569 C2580 0.950 . S
H2570 C2582 0.950 . S
H2571 C2583 0.950 . S
C2572 H2564 0.950 . S
C2572 C2573 1.386 . S
C2572 C2574 1.391 . S
C2573 C2572 1.386 . S
C2573 C2577 1.393 . S
C2574 H2566 0.950 . S
C2574 C2572 1.391 . S
C2574 C2575 1.400 . S
C2575 C2574 1.400 . S
C2575 C2576 1.398 . S
C2575 C2581 1.491 1_554 S
C2576 H2567 0.950 . S
C2576 C2575 1.398 . S
C2576 C2577 1.391 . S
C2577 H2565 0.950 . S
C2577 C2573 1.393 . S
C2577 C2576 1.391 . S
C2578 H2568 0.950 . S
C2578 C2579 1.386 . S
C2578 C2580 1.391 . S
C2579 C2578 1.386 . S
C2579 C2583 1.393 . S
C2580 H2569 0.950 . S
C2580 C2578 1.391 . S
C2580 C2581 1.400 . S
C2581 C2575 1.491 1_556 S
C2581 C2580 1.400 . S
C2581 C2582 1.398 . S
C2582 H2570 0.950 . S
C2582 C2581 1.398 . S
C2582 C2583 1.391 . S
C2583 H2571 0.950 . S
C2583 C2579 1.393 . S
C2583 C2582 1.391 . S
H2584 C2592 0.950 . S
H2585 C2597 0.950 . S
H2586 C2594 0.950 . S
H2587 C2596 0.950 . S
H2588 C2598 0.950 . S
H2589 C2600 0.950 . S
H2590 C2602 0.950 . S
H2591 C2603 0.950 . S
C2592 H2584 0.950 . S
C2592 C2593 1.386 . S
C2592 C2594 1.391 . S
C2593 C2592 1.386 . S
C2593 C2597 1.393 . S
C2594 H2586 0.950 . S
C2594 C2592 1.391 . S
C2594 C2595 1.400 . S
C2595 C2594 1.400 . S
C2595 C2596 1.398 . S
C2595 C2601 1.491 . S
C2596 H2587 0.950 . S
C2596 C2595 1.398 . S
C2596 C2597 1.391 . S
C2597 H2585 0.950 . S
C2597 C2593 1.393 . S
C2597 C2596 1.391 . S
C2598 H2588 0.950 . S
C2598 C2599 1.386 . S
C2598 C2600 1.391 . S
C2599 C2598 1.386 . S
C2599 C2603 1.393 . S
C2600 H2589 0.950 . S
C2600 C2598 1.391 . S
C2600 C2601 1.400 . S
C2601 C2595 1.491 . S
C2601 C2600 1.400 . S
C2601 C2602 1.398 . S
C2602 H2590 0.950 . S
C2602 C2601 1.398 . S
C2602 C2603 1.391 . S
C2603 H2591 0.950 . S
C2603 C2599 1.393 . S
C2603 C2602 1.391 . S
H2604 C2612 0.950 . S
H2605 C2617 0.950 . S
H2606 C2614 0.950 . S
H2607 C2616 0.950 . S
H2608 C2618 0.950 . S
H2609 C2620 0.950 . S
H2610 C2622 0.950 . S
H2611 C2623 0.950 . S
C2612 H2604 0.950 . S
C2612 C2613 1.386 . S
C2612 C2614 1.391 . S
C2613 C2612 1.386 . S
C2613 C2617 1.393 . S
C2614 H2606 0.950 . S
C2614 C2612 1.391 . S
C2614 C2615 1.400 . S
C2615 C2614 1.400 . S
C2615 C2616 1.398 . S
C2615 C2621 1.491 . S
C2616 H2607 0.950 . S
C2616 C2615 1.398 . S
C2616 C2617 1.391 . S
C2617 H2605 0.950 . S
C2617 C2613 1.393 . S
C2617 C2616 1.391 . S
C2618 H2608 0.950 . S
C2618 C2619 1.386 . S
C2618 C2620 1.391 . S
C2619 C2618 1.386 . S
C2619 C2623 1.393 . S
C2620 H2609 0.950 . S
C2620 C2618 1.391 . S
C2620 C2621 1.400 . S
C2621 C2615 1.491 . S
C2621 C2620 1.400 . S
C2621 C2622 1.398 . S
C2622 H2610 0.950 . S
C2622 C2621 1.398 . S
C2622 C2623 1.391 . S
C2623 H2611 0.950 . S
C2623 C2619 1.393 . S
C2623 C2622 1.391 . S
H2624 C2632 0.950 . S
H2625 C2637 0.950 . S
H2626 C2634 0.950 1_554 S
H2627 C2636 0.950 . S
H2628 C2638 0.950 . S
H2629 C2640 0.950 . S
H2630 C2642 0.950 . S
H2631 C2643 0.950 . S
C2632 H2624 0.950 . S
C2632 C2633 1.386 . S
C2632 C2634 1.391 . S
C2633 C2632 1.386 . S
C2633 C2637 1.393 . S
C2634 H2626 0.950 1_556 S
C2634 C2632 1.391 . S
C2634 C2635 1.400 . S
C2635 C2634 1.400 . S
C2635 C2636 1.398 . S
C2635 C2641 1.491 1_556 S
C2636 H2627 0.950 . S
C2636 C2635 1.398 . S
C2636 C2637 1.391 . S
C2637 H2625 0.950 . S
C2637 C2633 1.393 . S
C2637 C2636 1.391 . S
C2638 H2628 0.950 . S
C2638 C2639 1.386 . S
C2638 C2640 1.391 1_554 S
C2639 C2638 1.386 . S
C2639 C2643 1.393 . S
C2640 H2629 0.950 . S
C2640 C2638 1.391 1_556 S
C2640 C2641 1.400 1_556 S
C2641 C2635 1.491 1_554 S
C2641 C2640 1.400 1_554 S
C2641 C2642 1.398 . S
C2642 H2630 0.950 . S
C2642 C2641 1.398 . S
C2642 C2643 1.391 . S
C2643 H2631 0.950 . S
C2643 C2639 1.393 . S
C2643 C2642 1.391 . S
H2644 C2652 0.950 . S
H2645 C2657 0.950 . S
H2646 C2654 0.950 . S
H2647 C2656 0.950 . S
H2648 C2658 0.950 . S
H2649 C2660 0.950 . S
H2650 C2662 0.950 . S
H2651 C2663 0.950 . S
C2652 H2644 0.950 . S
C2652 C2653 1.386 . S
C2652 C2654 1.391 . S
C2653 C2652 1.386 . S
C2653 C2657 1.393 . S
C2654 H2646 0.950 . S
C2654 C2652 1.391 . S
C2654 C2655 1.400 . S
C2655 C2654 1.400 . S
C2655 C2656 1.398 . S
C2655 C2661 1.491 . S
C2656 H2647 0.950 . S
C2656 C2655 1.398 . S
C2656 C2657 1.391 . S
C2657 H2645 0.950 . S
C2657 C2653 1.393 . S
C2657 C2656 1.391 . S
C2658 H2648 0.950 . S
C2658 C2659 1.386 . S
C2658 C2660 1.391 . S
C2659 C2658 1.386 . S
C2659 C2663 1.393 . S
C2660 H2649 0.950 . S
C2660 C2658 1.391 . S
C2660 C2661 1.400 . S
C2661 C2655 1.491 . S
C2661 C2660 1.400 . S
C2661 C2662 1.398 . S
C2662 H2650 0.950 . S
C2662 C2661 1.398 . S
C2662 C2663 1.391 . S
C2663 H2651 0.950 . S
C2663 C2659 1.393 . S
C2663 C2662 1.391 . S
H2664 C2672 0.950 . S
H2665 C2677 0.950 . S
H2666 C2674 0.911 1_565 S
H2667 C2676 0.950 . S
H2668 C2678 0.950 . S
H2669 C2680 0.950 1_545 S
H2670 C2682 0.950 . S
H2671 C2683 0.950 . S
C2672 H2664 0.950 . S
C2672 C2673 1.386 . S
C2672 C2674 1.391 . S
C2673 C2672 1.386 . S
C2673 C2677 1.393 . S
C2674 H2666 0.911 1_545 S
C2674 C2672 1.391 . S
C2674 C2675 1.400 . S
C2675 C2674 1.400 . S
C2675 C2676 1.398 . S
C2675 C2681 1.491 1_545 S
C2676 H2667 0.950 . S
C2676 C2675 1.398 . S
C2676 C2677 1.391 . S
C2677 H2665 0.950 . S
C2677 C2673 1.393 . S
C2677 C2676 1.391 . S
C2678 H2668 0.950 . S
C2678 C2679 1.386 . S
C2678 C2680 1.391 . S
C2679 C2678 1.386 . S
C2679 C2683 1.393 . S
C2680 H2669 0.950 1_565 S
C2680 C2678 1.391 . S
C2680 C2681 1.400 . S
C2681 C2675 1.491 1_565 S
C2681 C2680 1.400 . S
C2681 C2682 1.398 . S
C2682 H2670 0.950 . S
C2682 C2681 1.398 . S
C2682 C2683 1.391 . S
C2683 H2671 0.950 . S
C2683 C2679 1.393 . S
C2683 C2682 1.391 . S
H2684 C2692 0.950 . S
H2685 C2697 0.950 . S
H2686 C2694 0.950 1_554 S
H2687 C2696 0.950 . S
H2688 C2698 0.950 . S
H2689 C2700 0.964 . S
H2690 C2702 0.950 . S
H2691 C2703 0.950 . S
C2692 H2684 0.950 . S
C2692 C2693 1.386 . S
C2692 C2694 1.391 . S
C2693 C2692 1.386 . S
C2693 C2697 1.393 . S
C2694 H2686 0.950 1_556 S
C2694 C2692 1.391 . S
C2694 C2695 1.400 . S
C2695 C2694 1.400 . S
C2695 C2696 1.398 . S
C2695 C2701 1.491 1_556 S
C2696 H2687 0.950 . S
C2696 C2695 1.398 . S
C2696 C2697 1.391 . S
C2697 H2685 0.950 . S
C2697 C2693 1.393 . S
C2697 C2696 1.391 . S
C2698 H2688 0.950 . S
C2698 C2699 1.386 . S
C2698 C2700 1.391 . S
C2699 C2698 1.386 . S
C2699 C2703 1.393 . S
C2700 H2689 0.964 . S
C2700 C2698 1.391 . S
C2700 C2701 1.400 . S
C2701 C2695 1.491 1_554 S
C2701 C2700 1.400 . S
C2701 C2702 1.398 . S
C2702 H2690 0.950 . S
C2702 C2701 1.398 . S
C2702 C2703 1.391 . S
C2703 H2691 0.950 . S
C2703 C2699 1.393 . S
C2703 C2702 1.391 . S
H2704 C2712 0.950 . S
H2705 C2717 0.950 . S
H2706 C2714 0.987 . S
H2707 C2716 0.950 . S
H2708 C2718 0.950 . S
H2709 C2720 0.950 1_554 S
H2710 C2722 0.950 . S
H2711 C2723 0.950 . S
C2712 H2704 0.950 . S
C2712 C2713 1.386 . S
C2712 C2714 1.364 1_554 S
C2713 C2712 1.386 . S
C2713 C2717 1.393 . S
C2714 H2706 0.987 . S
C2714 C2712 1.364 1_556 S
C2714 C2715 1.392 1_556 S
C2715 C2714 1.392 1_554 S
C2715 C2716 1.398 . S
C2715 C2721 1.491 1_554 S
C2716 H2707 0.950 . S
C2716 C2715 1.398 . S
C2716 C2717 1.391 . S
C2717 H2705 0.950 . S
C2717 C2713 1.393 . S
C2717 C2716 1.391 . S
C2718 H2708 0.950 . S
C2718 C2719 1.386 . S
C2718 C2720 1.391 . S
C2719 C2718 1.386 . S
C2719 C2723 1.393 . S
C2720 H2709 0.950 1_556 S
C2720 C2718 1.391 . S
C2720 C2721 1.400 . S
C2721 C2715 1.491 1_556 S
C2721 C2720 1.400 . S
C2721 C2722 1.398 . S
C2722 H2710 0.950 . S
C2722 C2721 1.398 . S
C2722 C2723 1.391 . S
C2723 H2711 0.950 . S
C2723 C2719 1.393 . S
C2723 C2722 1.391 . S
H2724 C2732 0.950 . S
H2725 C2737 0.950 . S
H2726 C2734 0.950 . S
H2727 C2736 0.950 . S
H2728 C2738 0.950 . S
H2729 C2740 0.950 . S
H2730 C2742 0.950 . S
H2731 C2743 0.950 . S
C2732 H2724 0.950 . S
C2732 C2733 1.386 . S
C2732 C2734 1.391 . S
C2733 C2732 1.386 . S
C2733 C2737 1.393 . S
C2734 H2726 0.950 . S
C2734 C2732 1.391 . S
C2734 C2735 1.400 . S
C2735 C2734 1.400 . S
C2735 C2736 1.398 . S
C2735 C2741 1.491 . S
C2736 H2727 0.950 . S
C2736 C2735 1.398 . S
C2736 C2737 1.391 . S
C2737 H2725 0.950 . S
C2737 C2733 1.393 . S
C2737 C2736 1.391 . S
C2738 H2728 0.950 . S
C2738 C2739 1.386 . S
C2738 C2740 1.391 . S
C2739 C2738 1.386 . S
C2739 C2743 1.393 . S
C2740 H2729 0.950 . S
C2740 C2738 1.391 . S
C2740 C2741 1.400 . S
C2741 C2735 1.491 . S
C2741 C2740 1.400 . S
C2741 C2742 1.398 . S
C2742 H2730 0.950 . S
C2742 C2741 1.398 . S
C2742 C2743 1.391 . S
C2743 H2731 0.950 . S
C2743 C2739 1.393 . S
C2743 C2742 1.391 . S
H2744 C2752 0.950 . S
H2745 C2757 0.950 . S
H2746 C2754 0.950 . S
H2747 C2756 0.950 . S
H2748 C2758 0.950 . S
H2749 C2760 0.950 . S
H2750 C2762 0.950 1_565 S
H2751 C2763 0.950 . S
C2752 H2744 0.950 . S
C2752 C2753 1.386 . S
C2752 C2754 1.391 . S
C2753 C2752 1.386 . S
C2753 C2757 1.393 . S
C2754 H2746 0.950 . S
C2754 C2752 1.391 . S
C2754 C2755 1.400 . S
C2755 C2754 1.400 . S
C2755 C2756 1.398 1_565 S
C2755 C2761 1.491 1_565 S
C2756 H2747 0.950 . S
C2756 C2755 1.398 1_545 S
C2756 C2757 1.391 1_545 S
C2757 H2745 0.950 . S
C2757 C2753 1.393 . S
C2757 C2756 1.391 1_565 S
C2758 H2748 0.950 . S
C2758 C2759 1.386 . S
C2758 C2760 1.391 . S
C2759 C2758 1.386 . S
C2759 C2763 1.393 . S
C2760 H2749 0.950 . S
C2760 C2758 1.391 . S
C2760 C2761 1.400 . S
C2761 C2755 1.491 1_545 S
C2761 C2760 1.400 . S
C2761 C2762 1.398 . S
C2762 H2750 0.950 1_545 S
C2762 C2761 1.398 . S
C2762 C2763 1.391 . S
C2763 H2751 0.950 . S
C2763 C2759 1.393 . S
C2763 C2762 1.391 . S
H2764 C2772 0.950 . S
H2765 C2777 0.950 . S
H2766 C2774 0.950 . S
H2767 C2776 0.950 . S
H2768 C2778 0.950 . S
H2769 C2780 0.950 . S
H2770 C2782 0.950 1_455 S
H2771 C2783 0.950 . S
C2772 H2764 0.950 . S
C2772 C2773 1.386 . S
C2772 C2774 1.391 . S
C2773 C2772 1.386 . S
C2773 C2777 1.393 . S
C2774 H2766 0.950 . S
C2774 C2772 1.391 . S
C2774 C2775 1.400 . S
C2775 C2774 1.400 . S
C2775 C2776 1.398 1_455 S
C2775 C2781 1.491 1_455 S
C2776 H2767 0.950 . S
C2776 C2775 1.398 1_655 S
C2776 C2777 1.391 1_655 S
C2777 H2765 0.950 . S
C2777 C2773 1.393 . S
C2777 C2776 1.391 1_455 S
C2778 H2768 0.950 . S
C2778 C2779 1.386 . S
C2778 C2780 1.391 . S
C2779 C2778 1.386 . S
C2779 C2783 1.393 . S
C2780 H2769 0.950 . S
C2780 C2778 1.391 . S
C2780 C2781 1.400 . S
C2781 C2775 1.491 1_655 S
C2781 C2780 1.400 . S
C2781 C2782 1.398 . S
C2782 H2770 0.950 1_655 S
C2782 C2781 1.398 . S
C2782 C2783 1.391 . S
C2783 H2771 0.950 . S
C2783 C2779 1.393 . S
C2783 C2782 1.391 . S
H2784 C2792 0.950 . S
H2785 C2797 0.950 . S
H2786 C2794 0.950 1_655 S
H2787 C2796 0.950 . S
H2788 C2798 0.950 . S
H2789 C2800 0.950 1_455 S
H2790 C2802 0.950 . S
H2791 C2803 0.950 . S
C2792 H2784 0.950 . S
C2792 C2793 1.386 . S
C2792 C2794 1.391 . S
C2793 C2792 1.386 . S
C2793 C2797 1.393 . S
C2794 H2786 0.950 1_455 S
C2794 C2792 1.391 . S
C2794 C2795 1.400 . S
C2795 C2794 1.400 . S
C2795 C2796 1.398 . S
C2795 C2801 1.491 1_455 S
C2796 H2787 0.950 . S
C2796 C2795 1.398 . S
C2796 C2797 1.391 . S
C2797 H2785 0.950 . S
C2797 C2793 1.393 . S
C2797 C2796 1.391 . S
C2798 H2788 0.950 . S
C2798 C2799 1.386 . S
C2798 C2800 1.391 . S
C2799 C2798 1.386 . S
C2799 C2803 1.393 . S
C2800 H2789 0.950 1_655 S
C2800 C2798 1.391 . S
C2800 C2801 1.400 . S
C2801 C2795 1.491 1_655 S
C2801 C2800 1.400 . S
C2801 C2802 1.398 . S
C2802 H2790 0.950 . S
C2802 C2801 1.398 . S
C2802 C2803 1.391 . S
C2803 H2791 0.950 . S
C2803 C2799 1.393 . S
C2803 C2802 1.391 . S
H2804 C2812 0.950 . S
H2805 C2817 0.950 . S
H2806 C2814 0.950 . S
H2807 C2816 0.950 . S
H2808 C2818 0.950 . S
H2809 C2820 0.950 . S
H2810 C2822 0.950 . S
H2811 C2823 0.950 . S
C2812 H2804 0.950 . S
C2812 C2813 1.386 . S
C2812 C2814 1.391 . S
C2813 C2812 1.386 . S
C2813 C2817 1.393 . S
C2814 H2806 0.950 . S
C2814 C2812 1.391 . S
C2814 C2815 1.400 . S
C2815 C2814 1.400 . S
C2815 C2816 1.398 . S
C2815 C2821 1.491 . S
C2816 H2807 0.950 . S
C2816 C2815 1.398 . S
C2816 C2817 1.391 . S
C2817 H2805 0.950 . S
C2817 C2813 1.393 . S
C2817 C2816 1.391 . S
C2818 H2808 0.950 . S
C2818 C2819 1.386 . S
C2818 C2820 1.391 . S
C2819 C2818 1.386 . S
C2819 C2823 1.393 . S
C2820 H2809 0.950 . S
C2820 C2818 1.391 . S
C2820 C2821 1.400 . S
C2821 C2815 1.491 . S
C2821 C2820 1.400 . S
C2821 C2822 1.398 . S
C2822 H2810 0.950 . S
C2822 C2821 1.398 . S
C2822 C2823 1.391 . S
C2823 H2811 0.950 . S
C2823 C2819 1.393 . S
C2823 C2822 1.391 . S
H2824 C2832 0.950 . S
H2825 C2837 0.950 . S
H2826 C2834 0.950 . S
H2827 C2836 0.950 . S
H2828 C2838 0.950 . S
H2829 C2840 0.950 . S
H2830 C2842 0.950 . S
H2831 C2843 0.950 . S
C2832 H2824 0.950 . S
C2832 C2833 1.386 . S
C2832 C2834 1.391 . S
C2833 C2832 1.386 . S
C2833 C2837 1.393 . S
C2834 H2826 0.950 . S
C2834 C2832 1.391 . S
C2834 C2835 1.400 . S
C2835 C2834 1.400 . S
C2835 C2836 1.398 . S
C2835 C2841 1.491 . S
C2836 H2827 0.950 . S
C2836 C2835 1.398 . S
C2836 C2837 1.391 . S
C2837 H2825 0.950 . S
C2837 C2833 1.393 . S
C2837 C2836 1.391 . S
C2838 H2828 0.950 . S
C2838 C2839 1.386 . S
C2838 C2840 1.391 . S
C2839 C2838 1.386 . S
C2839 C2843 1.393 . S
C2840 H2829 0.950 . S
C2840 C2838 1.391 . S
C2840 C2841 1.400 . S
C2841 C2835 1.491 . S
C2841 C2840 1.400 . S
C2841 C2842 1.398 . S
C2842 H2830 0.950 . S
C2842 C2841 1.398 . S
C2842 C2843 1.391 . S
C2843 H2831 0.950 . S
C2843 C2839 1.393 . S
C2843 C2842 1.391 . S
H2844 C2852 0.950 . S
H2845 C2857 0.950 . S
H2846 C2854 0.950 . S
H2847 C2856 0.950 . S
H2848 C2858 0.950 . S
H2849 C2860 0.950 . S
H2850 C2862 0.950 . S
H2851 C2863 0.950 . S
C2852 H2844 0.950 . S
C2852 C2853 1.386 . S
C2852 C2854 1.391 . S
C2853 C2852 1.386 . S
C2853 C2857 1.393 . S
C2854 H2846 0.950 . S
C2854 C2852 1.391 . S
C2854 C2855 1.400 . S
C2855 C2854 1.400 . S
C2855 C2856 1.398 . S
C2855 C2861 1.491 . S
C2856 H2847 0.950 . S
C2856 C2855 1.398 . S
C2856 C2857 1.391 . S
C2857 H2845 0.950 . S
C2857 C2853 1.393 . S
C2857 C2856 1.391 . S
C2858 H2848 0.950 . S
C2858 C2859 1.386 . S
C2858 C2860 1.391 . S
C2859 C2858 1.386 . S
C2859 C2863 1.393 . S
C2860 H2849 0.950 . S
C2860 C2858 1.391 . S
C2860 C2861 1.400 . S
C2861 C2855 1.491 . S
C2861 C2860 1.400 . S
C2861 C2862 1.398 . S
C2862 H2850 0.950 . S
C2862 C2861 1.398 . S
C2862 C2863 1.391 . S
C2863 H2851 0.950 . S
C2863 C2859 1.393 . S
C2863 C2862 1.391 . S
H2864 C2872 0.950 . S
H2865 C2877 0.950 . S
H2866 C2874 0.950 . S
H2867 C2876 0.921 1_556 S
H2868 C2878 0.950 . S
H2869 C2880 0.950 . S
H2870 C2882 0.950 1_554 S
H2871 C2883 0.950 . S
C2872 H2864 0.950 . S
C2872 C2873 1.386 . S
C2872 C2874 1.391 . S
C2873 C2872 1.386 . S
C2873 C2877 1.393 . S
C2874 H2866 0.950 . S
C2874 C2872 1.391 . S
C2874 C2875 1.400 . S
C2875 C2874 1.400 . S
C2875 C2876 1.398 . S
C2875 C2881 1.491 1_554 S
C2876 H2867 0.921 1_554 S
C2876 C2875 1.398 . S
C2876 C2877 1.391 . S
C2877 H2865 0.950 . S
C2877 C2873 1.393 . S
C2877 C2876 1.391 . S
C2878 H2868 0.950 . S
C2878 C2879 1.386 . S
C2878 C2880 1.391 . S
C2879 C2878 1.386 . S
C2879 C2883 1.393 . S
C2880 H2869 0.950 . S
C2880 C2878 1.391 . S
C2880 C2881 1.400 . S
C2881 C2875 1.491 1_556 S
C2881 C2880 1.400 . S
C2881 C2882 1.398 . S
C2882 H2870 0.950 1_556 S
C2882 C2881 1.398 . S
C2882 C2883 1.391 . S
C2883 H2871 0.950 . S
C2883 C2879 1.393 . S
C2883 C2882 1.391 . S
H2884 C2892 0.950 . S
H2885 C2897 0.950 . S
H2886 C2894 0.950 . S
H2887 C2896 0.950 . S
H2888 C2898 0.950 . S
H2889 C2900 0.950 1_565 S
H2890 C2902 0.950 . S
H2891 C2903 0.950 . S
C2892 H2884 0.950 . S
C2892 C2893 1.386 . S
C2892 C2894 1.391 1_565 S
C2893 C2892 1.386 . S
C2893 C2897 1.393 . S
C2894 H2886 0.950 . S
C2894 C2892 1.391 1_545 S
C2894 C2895 1.400 1_545 S
C2895 C2894 1.400 1_565 S
C2895 C2896 1.398 . S
C2895 C2901 1.491 1_565 S
C2896 H2887 0.950 . S
C2896 C2895 1.398 . S
C2896 C2897 1.391 . S
C2897 H2885 0.950 . S
C2897 C2893 1.393 . S
C2897 C2896 1.391 . S
C2898 H2888 0.950 . S
C2898 C2899 1.386 . S
C2898 C2900 1.391 . S
C2899 C2898 1.386 . S
C2899 C2903 1.393 . S
C2900 H2889 0.950 1_545 S
C2900 C2898 1.391 . S
C2900 C2901 1.400 . S
C2901 C2895 1.491 1_545 S
C2901 C2900 1.400 . S
C2901 C2902 1.398 . S
C2902 H2890 0.950 . S
C2902 C2901 1.398 . S
C2902 C2903 1.391 . S
C2903 H2891 0.950 . S
C2903 C2899 1.393 . S
C2903 C2902 1.391 . S
H2904 C2912 0.950 . S
H2905 C2917 0.950 . S
H2906 C2914 0.950 . S
H2907 C2916 0.950 . S
H2908 C2918 0.950 . S
H2909 C2920 0.950 . S
H2910 C2922 0.950 . S
H2911 C2923 0.950 . S
C2912 H2904 0.950 . S
C2912 C2913 1.386 . S
C2912 C2914 1.391 . S
C2913 C2912 1.386 . S
C2913 C2917 1.393 . S
C2914 H2906 0.950 . S
C2914 C2912 1.391 . S
C2914 C2915 1.400 . S
C2915 C2914 1.400 . S
C2915 C2916 1.398 . S
C2915 C2921 1.491 . S
C2916 H2907 0.950 . S
C2916 C2915 1.398 . S
C2916 C2917 1.391 . S
C2917 H2905 0.950 . S
C2917 C2913 1.393 . S
C2917 C2916 1.391 . S
C2918 H2908 0.950 . S
C2918 C2919 1.386 . S
C2918 C2920 1.391 . S
C2919 C2918 1.386 . S
C2919 C2923 1.393 . S
C2920 H2909 0.950 . S
C2920 C2918 1.391 . S
C2920 C2921 1.400 . S
C2921 C2915 1.491 . S
C2921 C2920 1.400 . S
C2921 C2922 1.398 . S
C2922 H2910 0.950 . S
C2922 C2921 1.398 . S
C2922 C2923 1.391 . S
C2923 H2911 0.950 . S
C2923 C2919 1.393 . S
C2923 C2922 1.391 . S
H2924 C2932 0.950 . S
H2925 C2937 0.950 . S
H2926 C2934 0.950 . S
H2927 C2936 0.950 . S
H2928 C2938 0.950 . S
H2929 C2940 0.950 . S
H2930 C2942 0.950 . S
H2931 C2943 0.950 . S
C2932 H2924 0.950 . S
C2932 C2933 1.386 . S
C2932 C2934 1.391 . S
C2933 C2932 1.386 . S
C2933 C2937 1.393 . S
C2934 H2926 0.950 . S
C2934 C2932 1.391 . S
C2934 C2935 1.400 . S
C2935 C2934 1.400 . S
C2935 C2936 1.398 . S
C2935 C2941 1.491 . S
C2936 H2927 0.950 . S
C2936 C2935 1.398 . S
C2936 C2937 1.391 . S
C2937 H2925 0.950 . S
C2937 C2933 1.393 . S
C2937 C2936 1.391 . S
C2938 H2928 0.950 . S
C2938 C2939 1.386 . S
C2938 C2940 1.391 . S
C2939 C2938 1.386 . S
C2939 C2943 1.393 . S
C2940 H2929 0.950 . S
C2940 C2938 1.391 . S
C2940 C2941 1.400 . S
C2941 C2935 1.491 . S
C2941 C2940 1.400 . S
C2941 C2942 1.398 . S
C2942 H2930 0.950 . S
C2942 C2941 1.398 . S
C2942 C2943 1.391 . S
C2943 H2931 0.950 . S
C2943 C2939 1.393 . S
C2943 C2942 1.391 . S
H2944 C2952 0.950 . S
H2945 C2957 0.950 . S
H2946 C2954 0.950 . S
H2947 C2956 0.950 . S
H2948 C2958 0.950 . S
H2949 C2960 0.950 . S
H2950 C2962 0.950 . S
H2951 C2963 0.950 . S
C2952 H2944 0.950 . S
C2952 C2953 1.386 . S
C2952 C2954 1.391 . S
C2953 C2952 1.386 . S
C2953 C2957 1.393 . S
C2954 H2946 0.950 . S
C2954 C2952 1.391 . S
C2954 C2955 1.400 . S
C2955 C2954 1.400 . S
C2955 C2956 1.398 . S
C2955 C2961 1.491 . S
C2956 H2947 0.950 . S
C2956 C2955 1.398 . S
C2956 C2957 1.391 . S
C2957 H2945 0.950 . S
C2957 C2953 1.393 . S
C2957 C2956 1.391 . S
C2958 H2948 0.950 . S
C2958 C2959 1.386 . S
C2958 C2960 1.391 . S
C2959 C2958 1.386 . S
C2959 C2963 1.393 . S
C2960 H2949 0.950 . S
C2960 C2958 1.391 . S
C2960 C2961 1.400 . S
C2961 C2955 1.491 . S
C2961 C2960 1.400 . S
C2961 C2962 1.398 . S
C2962 H2950 0.950 . S
C2962 C2961 1.398 . S
C2962 C2963 1.391 . S
C2963 H2951 0.950 . S
C2963 C2959 1.393 . S
C2963 C2962 1.391 . S
H2964 C2972 0.950 . S
H2965 C2977 0.950 . S
H2966 C2974 0.950 . S
H2967 C2976 0.950 1_545 S
H2968 C2978 0.950 . S
H2969 C2980 0.950 . S
H2970 C2982 0.950 . S
H2971 C2983 0.950 . S
C2972 H2964 0.950 . S
C2972 C2973 1.386 . S
C2972 C2974 1.391 . S
C2973 C2972 1.386 . S
C2973 C2977 1.393 . S
C2974 H2966 0.950 . S
C2974 C2972 1.391 . S
C2974 C2975 1.400 . S
C2975 C2974 1.400 . S
C2975 C2976 1.398 . S
C2975 C2981 1.491 1_565 S
C2976 H2967 0.950 1_565 S
C2976 C2975 1.398 . S
C2976 C2977 1.391 . S
C2977 H2965 0.950 . S
C2977 C2973 1.393 . S
C2977 C2976 1.391 . S
C2978 H2968 0.950 . S
C2978 C2979 1.386 . S
C2978 C2980 1.391 . S
C2979 C2978 1.386 . S
C2979 C2983 1.393 . S
C2980 H2969 0.950 . S
C2980 C2978 1.391 . S
C2980 C2981 1.400 . S
C2981 C2975 1.491 1_545 S
C2981 C2980 1.400 . S
C2981 C2982 1.398 1_545 S
C2982 H2970 0.950 . S
C2982 C2981 1.398 1_565 S
C2982 C2983 1.391 1_565 S
C2983 H2971 0.950 . S
C2983 C2979 1.393 . S
C2983 C2982 1.391 1_545 S
H2984 C2992 0.950 . S
H2985 C2997 0.950 . S
H2986 C2994 0.950 . S
H2987 C2996 0.950 . S
H2988 C2998 0.950 . S
H2989 C3000 0.950 . S
H2990 C3002 0.950 1_554 S
H2991 C3003 0.950 . S
C2992 H2984 0.950 . S
C2992 C2993 1.386 . S
C2992 C2994 1.391 . S
C2993 C2992 1.386 . S
C2993 C2997 1.393 . S
C2994 H2986 0.950 . S
C2994 C2992 1.391 . S
C2994 C2995 1.400 . S
C2995 C2994 1.400 . S
C2995 C2996 1.398 1_554 S
C2995 C3001 1.491 1_554 S
C2996 H2987 0.950 . S
C2996 C2995 1.398 1_556 S
C2996 C2997 1.391 1_556 S
C2997 H2985 0.950 . S
C2997 C2993 1.393 . S
C2997 C2996 1.391 1_554 S
C2998 H2988 0.950 . S
C2998 C2999 1.386 . S
C2998 C3000 1.391 . S
C2999 C2998 1.386 . S
C2999 C3003 1.393 . S
C3000 H2989 0.950 . S
C3000 C2998 1.391 . S
C3000 C3001 1.400 . S
C3001 C2995 1.491 1_556 S
C3001 C3000 1.400 . S
C3001 C3002 1.398 . S
C3002 H2990 0.950 1_556 S
C3002 C3001 1.398 . S
C3002 C3003 1.391 . S
C3003 H2991 0.950 . S
C3003 C2999 1.393 . S
C3003 C3002 1.391 . S
H3004 C3012 0.950 . S
H3005 C3017 0.950 . S
H3006 C3014 0.950 . S
H3007 C3016 0.950 . S
H3008 C3018 0.950 . S
H3009 C3020 0.950 . S
H3010 C3022 0.950 . S
H3011 C3023 0.950 . S
C3012 H3004 0.950 . S
C3012 C3013 1.386 . S
C3012 C3014 1.391 . S
C3013 C3012 1.386 . S
C3013 C3017 1.393 . S
C3014 H3006 0.950 . S
C3014 C3012 1.391 . S
C3014 C3015 1.400 . S
C3015 C3014 1.400 . S
C3015 C3016 1.398 . S
C3015 C3021 1.491 . S
C3016 H3007 0.950 . S
C3016 C3015 1.398 . S
C3016 C3017 1.391 . S
C3017 H3005 0.950 . S
C3017 C3013 1.393 . S
C3017 C3016 1.391 . S
C3018 H3008 0.950 . S
C3018 C3019 1.386 . S
C3018 C3020 1.391 . S
C3019 C3018 1.386 . S
C3019 C3023 1.393 . S
C3020 H3009 0.950 . S
C3020 C3018 1.391 . S
C3020 C3021 1.400 . S
C3021 C3015 1.491 . S
C3021 C3020 1.400 . S
C3021 C3022 1.398 . S
C3022 H3010 0.950 . S
C3022 C3021 1.398 . S
C3022 C3023 1.391 . S
C3023 H3011 0.950 . S
C3023 C3019 1.393 . S
C3023 C3022 1.391 . S
H3024 C3032 0.950 . S
H3025 C3037 0.950 . S
H3026 C3034 0.950 . S
H3027 C3036 0.977 . S
H3028 C3038 0.950 . S
H3029 C3040 0.950 . S
H3030 C3042 0.950 1_556 S
H3031 C3043 0.950 . S
C3032 H3024 0.950 . S
C3032 C3033 1.386 . S
C3032 C3034 1.391 . S
C3033 C3032 1.386 . S
C3033 C3037 1.393 . S
C3034 H3026 0.950 . S
C3034 C3032 1.391 . S
C3034 C3035 1.400 . S
C3035 C3034 1.400 . S
C3035 C3036 1.392 1_556 S
C3035 C3041 1.491 1_556 S
C3036 H3027 0.977 . S
C3036 C3035 1.392 1_554 S
C3036 C3037 1.371 1_554 S
C3037 H3025 0.950 . S
C3037 C3033 1.393 . S
C3037 C3036 1.371 1_556 S
C3038 H3028 0.950 . S
C3038 C3039 1.386 . S
C3038 C3040 1.391 . S
C3039 C3038 1.386 . S
C3039 C3043 1.393 . S
C3040 H3029 0.950 . S
C3040 C3038 1.391 . S
C3040 C3041 1.400 . S
C3041 C3035 1.491 1_554 S
C3041 C3040 1.400 . S
C3041 C3042 1.398 . S
C3042 H3030 0.950 1_554 S
C3042 C3041 1.398 . S
C3042 C3043 1.391 . S
C3043 H3031 0.950 . S
C3043 C3039 1.393 . S
C3043 C3042 1.391 . S
H3044 C3052 0.950 . S
H3045 C3057 0.950 . S
H3046 C3054 0.950 . S
H3047 C3056 0.950 . S
H3048 C3058 0.950 . S
H3049 C3060 0.950 . S
H3050 C3062 0.950 . S
H3051 C3063 0.950 . S
C3052 H3044 0.950 . S
C3052 C3053 1.386 . S
C3052 C3054 1.391 . S
C3053 C3052 1.386 . S
C3053 C3057 1.393 . S
C3054 H3046 0.950 . S
C3054 C3052 1.391 . S
C3054 C3055 1.400 . S
C3055 C3054 1.400 . S
C3055 C3056 1.398 . S
C3055 C3061 1.491 . S
C3056 H3047 0.950 . S
C3056 C3055 1.398 . S
C3056 C3057 1.391 . S
C3057 H3045 0.950 . S
C3057 C3053 1.393 . S
C3057 C3056 1.391 . S
C3058 H3048 0.950 . S
C3058 C3059 1.386 . S
C3058 C3060 1.391 . S
C3059 C3058 1.386 . S
C3059 C3063 1.393 . S
C3060 H3049 0.950 . S
C3060 C3058 1.391 . S
C3060 C3061 1.400 . S
C3061 C3055 1.491 . S
C3061 C3060 1.400 . S
C3061 C3062 1.398 . S
C3062 H3050 0.950 . S
C3062 C3061 1.398 . S
C3062 C3063 1.391 . S
C3063 H3051 0.950 . S
C3063 C3059 1.393 . S
C3063 C3062 1.391 . S
H3064 C3072 0.950 . S
H3065 C3077 0.950 . S
H3066 C3074 0.950 . S
H3067 C3076 0.950 . S
H3068 C3078 0.950 . S
H3069 C3080 0.950 . S
H3070 C3082 0.950 . S
H3071 C3083 0.950 . S
C3072 H3064 0.950 . S
C3072 C3073 1.386 . S
C3072 C3074 1.391 . S
C3073 C3072 1.386 . S
C3073 C3077 1.393 . S
C3074 H3066 0.950 . S
C3074 C3072 1.391 . S
C3074 C3075 1.400 . S
C3075 C3074 1.400 . S
C3075 C3076 1.398 . S
C3075 C3081 1.491 . S
C3076 H3067 0.950 . S
C3076 C3075 1.398 . S
C3076 C3077 1.391 . S
C3077 H3065 0.950 . S
C3077 C3073 1.393 . S
C3077 C3076 1.391 . S
C3078 H3068 0.950 . S
C3078 C3079 1.386 . S
C3078 C3080 1.391 . S
C3079 C3078 1.386 . S
C3079 C3083 1.393 . S
C3080 H3069 0.950 . S
C3080 C3078 1.391 . S
C3080 C3081 1.400 . S
C3081 C3075 1.491 . S
C3081 C3080 1.400 . S
C3081 C3082 1.398 . S
C3082 H3070 0.950 . S
C3082 C3081 1.398 . S
C3082 C3083 1.391 . S
C3083 H3071 0.950 . S
C3083 C3079 1.393 . S
C3083 C3082 1.391 . S
H3084 C3092 0.950 . S
H3085 C3097 0.950 . S
H3086 C3094 0.950 . S
H3087 C3096 0.950 . S
H3088 C3098 0.950 . S
H3089 C3100 0.950 . S
H3090 C3102 0.950 . S
H3091 C3103 0.950 . S
C3092 H3084 0.950 . S
C3092 C3093 1.386 . S
C3092 C3094 1.391 . S
C3093 C3092 1.386 . S
C3093 C3097 1.393 . S
C3094 H3086 0.950 . S
C3094 C3092 1.391 . S
C3094 C3095 1.400 . S
C3095 C3094 1.400 . S
C3095 C3096 1.398 . S
C3095 C3101 1.491 . S
C3096 H3087 0.950 . S
C3096 C3095 1.398 . S
C3096 C3097 1.391 . S
C3097 H3085 0.950 . S
C3097 C3093 1.393 . S
C3097 C3096 1.391 . S
C3098 H3088 0.950 . S
C3098 C3099 1.386 . S
C3098 C3100 1.391 . S
C3099 C3098 1.386 . S
C3099 C3103 1.393 . S
C3100 H3089 0.950 . S
C3100 C3098 1.391 . S
C3100 C3101 1.400 . S
C3101 C3095 1.491 . S
C3101 C3100 1.400 . S
C3101 C3102 1.398 . S
C3102 H3090 0.950 . S
C3102 C3101 1.398 . S
C3102 C3103 1.391 . S
C3103 H3091 0.950 . S
C3103 C3099 1.393 . S
C3103 C3102 1.391 . S
H3104 C3112 0.950 . S
H3105 C3117 0.950 . S
H3106 C3114 0.950 1_565 S
H3107 C3116 0.950 . S
H3108 C3118 0.950 . S
H3109 C3120 0.950 1_545 S
H3110 C3122 0.950 . S
H3111 C3123 0.950 . S
C3112 H3104 0.950 . S
C3112 C3113 1.386 . S
C3112 C3114 1.391 . S
C3113 C3112 1.386 . S
C3113 C3117 1.393 . S
C3114 H3106 0.950 1_545 S
C3114 C3112 1.391 . S
C3114 C3115 1.400 . S
C3115 C3114 1.400 . S
C3115 C3116 1.398 . S
C3115 C3121 1.491 1_545 S
C3116 H3107 0.950 . S
C3116 C3115 1.398 . S
C3116 C3117 1.391 . S
C3117 H3105 0.950 . S
C3117 C3113 1.393 . S
C3117 C3116 1.391 . S
C3118 H3108 0.950 . S
C3118 C3119 1.386 . S
C3118 C3120 1.391 . S
C3119 C3118 1.386 . S
C3119 C3123 1.393 . S
C3120 H3109 0.950 1_565 S
C3120 C3118 1.391 . S
C3120 C3121 1.400 . S
C3121 C3115 1.491 1_565 S
C3121 C3120 1.400 . S
C3121 C3122 1.398 . S
C3122 H3110 0.950 . S
C3122 C3121 1.398 . S
C3122 C3123 1.391 . S
C3123 H3111 0.950 . S
C3123 C3119 1.393 . S
C3123 C3122 1.391 . S
H3124 C3132 0.950 . S
H3125 C3137 0.950 . S
H3126 C3134 0.950 . S
H3127 C3136 0.950 . S
H3128 C3138 0.950 . S
H3129 C3140 0.950 . S
H3130 C3142 0.950 . S
H3131 C3143 0.950 . S
C3132 H3124 0.950 . S
C3132 C3133 1.386 . S
C3132 C3134 1.391 . S
C3133 C3132 1.386 . S
C3133 C3137 1.393 . S
C3134 H3126 0.950 . S
C3134 C3132 1.391 . S
C3134 C3135 1.400 . S
C3135 C3134 1.400 . S
C3135 C3136 1.398 . S
C3135 C3141 1.491 . S
C3136 H3127 0.950 . S
C3136 C3135 1.398 . S
C3136 C3137 1.391 . S
C3137 H3125 0.950 . S
C3137 C3133 1.393 . S
C3137 C3136 1.391 . S
C3138 H3128 0.950 . S
C3138 C3139 1.386 . S
C3138 C3140 1.391 . S
C3139 C3138 1.386 . S
C3139 C3143 1.393 . S
C3140 H3129 0.950 . S
C3140 C3138 1.391 . S
C3140 C3141 1.400 . S
C3141 C3135 1.491 . S
C3141 C3140 1.400 . S
C3141 C3142 1.398 . S
C3142 H3130 0.950 . S
C3142 C3141 1.398 . S
C3142 C3143 1.391 . S
C3143 H3131 0.950 . S
C3143 C3139 1.393 . S
C3143 C3142 1.391 . S
H3144 C3152 0.950 . S
H3145 C3157 0.950 . S
H3146 C3154 0.950 . S
H3147 C3156 0.950 . S
H3148 C3158 0.950 . S
H3149 C3160 0.950 . S
H3150 C3162 0.950 . S
H3151 C3163 0.950 . S
C3152 H3144 0.950 . S
C3152 C3153 1.386 . S
C3152 C3154 1.391 . S
C3153 C3152 1.386 . S
C3153 C3157 1.393 . S
C3154 H3146 0.950 . S
C3154 C3152 1.391 . S
C3154 C3155 1.400 . S
C3155 C3154 1.400 . S
C3155 C3156 1.398 . S
C3155 C3161 1.491 . S
C3156 H3147 0.950 . S
C3156 C3155 1.398 . S
C3156 C3157 1.391 . S
C3157 H3145 0.950 . S
C3157 C3153 1.393 . S
C3157 C3156 1.391 . S
C3158 H3148 0.950 . S
C3158 C3159 1.386 . S
C3158 C3160 1.391 . S
C3159 C3158 1.386 . S
C3159 C3163 1.393 . S
C3160 H3149 0.950 . S
C3160 C3158 1.391 . S
C3160 C3161 1.400 . S
C3161 C3155 1.491 . S
C3161 C3160 1.400 . S
C3161 C3162 1.398 . S
C3162 H3150 0.950 . S
C3162 C3161 1.398 . S
C3162 C3163 1.391 . S
C3163 H3151 0.950 . S
C3163 C3159 1.393 . S
C3163 C3162 1.391 . S
H3164 C3172 0.950 . S
H3165 C3177 0.950 . S
H3166 C3174 0.950 . S
H3167 C3176 0.950 . S
H3168 C3178 0.950 . S
H3169 C3180 0.950 . S
H3170 C3182 0.950 . S
H3171 C3183 0.950 . S
C3172 H3164 0.950 . S
C3172 C3173 1.386 . S
C3172 C3174 1.391 . S
C3173 C3172 1.386 . S
C3173 C3177 1.393 . S
C3174 H3166 0.950 . S
C3174 C3172 1.391 . S
C3174 C3175 1.400 . S
C3175 C3174 1.400 . S
C3175 C3176 1.398 . S
C3175 C3181 1.491 . S
C3176 H3167 0.950 . S
C3176 C3175 1.398 . S
C3176 C3177 1.391 . S
C3177 H3165 0.950 . S
C3177 C3173 1.393 . S
C3177 C3176 1.391 . S
C3178 H3168 0.950 . S
C3178 C3179 1.386 . S
C3178 C3180 1.391 . S
C3179 C3178 1.386 . S
C3179 C3183 1.393 . S
C3180 H3169 0.950 . S
C3180 C3178 1.391 . S
C3180 C3181 1.400 . S
C3181 C3175 1.491 . S
C3181 C3180 1.400 . S
C3181 C3182 1.398 . S
C3182 H3170 0.950 . S
C3182 C3181 1.398 . S
C3182 C3183 1.391 . S
C3183 H3171 0.950 . S
C3183 C3179 1.393 . S
C3183 C3182 1.391 . S
H3184 C3192 0.950 . S
H3185 C3197 0.950 . S
H3186 C3194 0.950 . S
H3187 C3196 0.950 . S
H3188 C3198 0.950 . S
H3189 C3200 0.950 . S
H3190 C3202 0.950 . S
H3191 C3203 0.950 . S
C3192 H3184 0.950 . S
C3192 C3193 1.386 . S
C3192 C3194 1.391 . S
C3193 C3192 1.386 . S
C3193 C3197 1.393 . S
C3194 H3186 0.950 . S
C3194 C3192 1.391 . S
C3194 C3195 1.400 . S
C3195 C3194 1.400 . S
C3195 C3196 1.398 . S
C3195 C3201 1.491 . S
C3196 H3187 0.950 . S
C3196 C3195 1.398 . S
C3196 C3197 1.391 . S
C3197 H3185 0.950 . S
C3197 C3193 1.393 . S
C3197 C3196 1.391 . S
C3198 H3188 0.950 . S
C3198 C3199 1.386 . S
C3198 C3200 1.391 . S
C3199 C3198 1.386 . S
C3199 C3203 1.393 . S
C3200 H3189 0.950 . S
C3200 C3198 1.391 . S
C3200 C3201 1.400 . S
C3201 C3195 1.491 . S
C3201 C3200 1.400 . S
C3201 C3202 1.398 . S
C3202 H3190 0.950 . S
C3202 C3201 1.398 . S
C3202 C3203 1.391 . S
C3203 H3191 0.950 . S
C3203 C3199 1.393 . S
C3203 C3202 1.391 . S
H3204 C3212 0.950 . S
H3205 C3217 0.950 . S
H3206 C3214 0.950 . S
H3207 C3216 0.950 . S
H3208 C3218 0.950 . S
H3209 C3220 0.950 . S
H3210 C3222 0.950 . S
H3211 C3223 0.950 . S
C3212 H3204 0.950 . S
C3212 C3213 1.386 . S
C3212 C3214 1.391 . S
C3213 C3212 1.386 . S
C3213 C3217 1.393 . S
C3214 H3206 0.950 . S
C3214 C3212 1.391 . S
C3214 C3215 1.400 . S
C3215 C3214 1.400 . S
C3215 C3216 1.398 . S
C3215 C3221 1.491 . S
C3216 H3207 0.950 . S
C3216 C3215 1.398 . S
C3216 C3217 1.391 . S
C3217 H3205 0.950 . S
C3217 C3213 1.393 . S
C3217 C3216 1.391 . S
C3218 H3208 0.950 . S
C3218 C3219 1.386 . S
C3218 C3220 1.391 . S
C3219 C3218 1.386 . S
C3219 C3223 1.393 . S
C3220 H3209 0.950 . S
C3220 C3218 1.391 . S
C3220 C3221 1.400 . S
C3221 C3215 1.491 . S
C3221 C3220 1.400 . S
C3221 C3222 1.398 . S
C3222 H3210 0.950 . S
C3222 C3221 1.398 . S
C3222 C3223 1.391 . S
C3223 H3211 0.950 . S
C3223 C3219 1.393 . S
C3223 C3222 1.391 . S
H3224 C3232 0.950 . S
H3225 C3237 0.950 . S
H3226 C3234 0.950 1_545 S
H3227 C3236 0.950 . S
H3228 C3238 0.950 . S
H3229 C3240 0.950 . S
H3230 C3242 0.950 . S
H3231 C3243 0.950 . S
C3232 H3224 0.950 . S
C3232 C3233 1.386 . S
C3232 C3234 1.391 . S
C3233 C3232 1.386 . S
C3233 C3237 1.393 . S
C3234 H3226 0.950 1_565 S
C3234 C3232 1.391 . S
C3234 C3235 1.400 . S
C3235 C3234 1.400 . S
C3235 C3236 1.398 . S
C3235 C3241 1.491 1_565 S
C3236 H3227 0.950 . S
C3236 C3235 1.398 . S
C3236 C3237 1.391 . S
C3237 H3225 0.950 . S
C3237 C3233 1.393 . S
C3237 C3236 1.391 . S
C3238 H3228 0.950 . S
C3238 C3239 1.386 . S
C3238 C3240 1.391 1_545 S
C3239 C3238 1.386 . S
C3239 C3243 1.393 . S
C3240 H3229 0.950 . S
C3240 C3238 1.391 1_565 S
C3240 C3241 1.400 1_565 S
C3241 C3235 1.491 1_545 S
C3241 C3240 1.400 1_545 S
C3241 C3242 1.398 . S
C3242 H3230 0.950 . S
C3242 C3241 1.398 . S
C3242 C3243 1.391 . S
C3243 H3231 0.950 . S
C3243 C3239 1.393 . S
C3243 C3242 1.391 . S
H3244 C3252 0.950 . S
H3245 C3257 0.950 . S
H3246 C3254 0.950 . S
H3247 C3256 0.950 . S
H3248 C3258 0.950 . S
H3249 C3260 0.950 . S
H3250 C3262 0.950 . S
H3251 C3263 0.950 . S
C3252 H3244 0.950 . S
C3252 C3253 1.386 . S
C3252 C3254 1.391 . S
C3253 C3252 1.386 . S
C3253 C3257 1.393 . S
C3254 H3246 0.950 . S
C3254 C3252 1.391 . S
C3254 C3255 1.400 . S
C3255 C3254 1.400 . S
C3255 C3256 1.398 . S
C3255 C3261 1.491 . S
C3256 H3247 0.950 . S
C3256 C3255 1.398 . S
C3256 C3257 1.391 . S
C3257 H3245 0.950 . S
C3257 C3253 1.393 . S
C3257 C3256 1.391 . S
C3258 H3248 0.950 . S
C3258 C3259 1.386 . S
C3258 C3260 1.391 . S
C3259 C3258 1.386 . S
C3259 C3263 1.393 . S
C3260 H3249 0.950 . S
C3260 C3258 1.391 . S
C3260 C3261 1.400 . S
C3261 C3255 1.491 . S
C3261 C3260 1.400 . S
C3261 C3262 1.398 . S
C3262 H3250 0.950 . S
C3262 C3261 1.398 . S
C3262 C3263 1.391 . S
C3263 H3251 0.950 . S
C3263 C3259 1.393 . S
C3263 C3262 1.391 . S
H3264 C3272 0.950 . S
H3265 C3277 0.950 . S
H3266 C3274 0.950 . S
H3267 C3276 0.950 . S
H3268 C3278 0.950 . S
H3269 C3280 0.950 . S
H3270 C3282 0.950 . S
H3271 C3283 0.950 . S
C3272 H3264 0.950 . S
C3272 C3273 1.386 . S
C3272 C3274 1.391 . S
C3273 C3272 1.386 . S
C3273 C3277 1.393 . S
C3274 H3266 0.950 . S
C3274 C3272 1.391 . S
C3274 C3275 1.400 . S
C3275 C3274 1.400 . S
C3275 C3276 1.398 . S
C3275 C3281 1.491 . S
C3276 H3267 0.950 . S
C3276 C3275 1.398 . S
C3276 C3277 1.391 . S
C3277 H3265 0.950 . S
C3277 C3273 1.393 . S
C3277 C3276 1.391 . S
C3278 H3268 0.950 . S
C3278 C3279 1.386 . S
C3278 C3280 1.391 . S
C3279 C3278 1.386 . S
C3279 C3283 1.393 . S
C3280 H3269 0.950 . S
C3280 C3278 1.391 . S
C3280 C3281 1.400 . S
C3281 C3275 1.491 . S
C3281 C3280 1.400 . S
C3281 C3282 1.398 . S
C3282 H3270 0.950 . S
C3282 C3281 1.398 . S
C3282 C3283 1.391 . S
C3283 H3271 0.950 . S
C3283 C3279 1.393 . S
C3283 C3282 1.391 . S
H3284 C3292 0.950 . S
H3285 C3297 0.950 . S
H3286 C3294 0.950 . S
H3287 C3296 0.950 . S
H3288 C3298 0.950 . S
H3289 C3300 0.950 . S
H3290 C3302 0.950 . S
H3291 C3303 0.950 . S
C3292 H3284 0.950 . S
C3292 C3293 1.386 . S
C3292 C3294 1.391 . S
C3293 C3292 1.386 . S
C3293 C3297 1.393 . S
C3294 H3286 0.950 . S
C3294 C3292 1.391 . S
C3294 C3295 1.400 . S
C3295 C3294 1.400 . S
C3295 C3296 1.398 . S
C3295 C3301 1.491 . S
C3296 H3287 0.950 . S
C3296 C3295 1.398 . S
C3296 C3297 1.391 . S
C3297 H3285 0.950 . S
C3297 C3293 1.393 . S
C3297 C3296 1.391 . S
C3298 H3288 0.950 . S
C3298 C3299 1.386 . S
C3298 C3300 1.391 . S
C3299 C3298 1.386 . S
C3299 C3303 1.393 . S
C3300 H3289 0.950 . S
C3300 C3298 1.391 . S
C3300 C3301 1.400 . S
C3301 C3295 1.491 . S
C3301 C3300 1.400 . S
C3301 C3302 1.398 . S
C3302 H3290 0.950 . S
C3302 C3301 1.398 . S
C3302 C3303 1.391 . S
C3303 H3291 0.950 . S
C3303 C3299 1.393 . S
C3303 C3302 1.391 . S
H3304 C3312 0.950 . S
H3305 C3317 0.950 . S
H3306 C3314 0.950 . S
H3307 C3316 0.950 . S
H3308 C3318 0.950 . S
H3309 C3320 0.950 . S
H3310 C3322 0.950 . S
H3311 C3323 0.950 . S
C3312 H3304 0.950 . S
C3312 C3313 1.386 . S
C3312 C3314 1.391 . S
C3313 C3312 1.386 . S
C3313 C3317 1.393 . S
C3314 H3306 0.950 . S
C3314 C3312 1.391 . S
C3314 C3315 1.400 . S
C3315 C3314 1.400 . S
C3315 C3316 1.398 . S
C3315 C3321 1.491 . S
C3316 H3307 0.950 . S
C3316 C3315 1.398 . S
C3316 C3317 1.391 . S
C3317 H3305 0.950 . S
C3317 C3313 1.393 . S
C3317 C3316 1.391 . S
C3318 H3308 0.950 . S
C3318 C3319 1.386 . S
C3318 C3320 1.391 . S
C3319 C3318 1.386 . S
C3319 C3323 1.393 . S
C3320 H3309 0.950 . S
C3320 C3318 1.391 . S
C3320 C3321 1.400 . S
C3321 C3315 1.491 . S
C3321 C3320 1.400 . S
C3321 C3322 1.398 . S
C3322 H3310 0.950 . S
C3322 C3321 1.398 . S
C3322 C3323 1.391 . S
C3323 H3311 0.950 . S
C3323 C3319 1.393 . S
C3323 C3322 1.391 . S
H3324 C3332 0.950 . S
H3325 C3337 0.950 . S
H3326 C3334 0.950 . S
H3327 C3336 0.950 . S
H3328 C3338 0.950 . S
H3329 C3340 0.950 . S
H3330 C3342 0.950 . S
H3331 C3343 0.950 . S
C3332 H3324 0.950 . S
C3332 C3333 1.386 . S
C3332 C3334 1.391 . S
C3333 C3332 1.386 . S
C3333 C3337 1.393 . S
C3334 H3326 0.950 . S
C3334 C3332 1.391 . S
C3334 C3335 1.400 . S
C3335 C3334 1.400 . S
C3335 C3336 1.398 . S
C3335 C3341 1.491 . S
C3336 H3327 0.950 . S
C3336 C3335 1.398 . S
C3336 C3337 1.391 . S
C3337 H3325 0.950 . S
C3337 C3333 1.393 . S
C3337 C3336 1.391 . S
C3338 H3328 0.950 . S
C3338 C3339 1.386 . S
C3338 C3340 1.391 . S
C3339 C3338 1.386 . S
C3339 C3343 1.393 . S
C3340 H3329 0.950 . S
C3340 C3338 1.391 . S
C3340 C3341 1.400 . S
C3341 C3335 1.491 . S
C3341 C3340 1.400 . S
C3341 C3342 1.398 . S
C3342 H3330 0.950 . S
C3342 C3341 1.398 . S
C3342 C3343 1.391 . S
C3343 H3331 0.950 . S
C3343 C3339 1.393 . S
C3343 C3342 1.391 . S
H3344 C3352 0.950 . S
H3345 C3357 0.950 . S
H3346 C3354 0.950 . S
H3347 C3356 0.950 . S
H3348 C3358 0.950 . S
H3349 C3360 0.950 . S
H3350 C3362 0.950 . S
H3351 C3363 0.950 . S
C3352 H3344 0.950 . S
C3352 C3353 1.386 . S
C3352 C3354 1.391 . S
C3353 C3352 1.386 . S
C3353 C3357 1.393 . S
C3354 H3346 0.950 . S
C3354 C3352 1.391 . S
C3354 C3355 1.400 . S
C3355 C3354 1.400 . S
C3355 C3356 1.398 . S
C3355 C3361 1.491 . S
C3356 H3347 0.950 . S
C3356 C3355 1.398 . S
C3356 C3357 1.391 . S
C3357 H3345 0.950 . S
C3357 C3353 1.393 . S
C3357 C3356 1.391 . S
C3358 H3348 0.950 . S
C3358 C3359 1.386 . S
C3358 C3360 1.391 . S
C3359 C3358 1.386 . S
C3359 C3363 1.393 . S
C3360 H3349 0.950 . S
C3360 C3358 1.391 . S
C3360 C3361 1.400 . S
C3361 C3355 1.491 . S
C3361 C3360 1.400 . S
C3361 C3362 1.398 . S
C3362 H3350 0.950 . S
C3362 C3361 1.398 . S
C3362 C3363 1.391 . S
C3363 H3351 0.950 . S
C3363 C3359 1.393 . S
C3363 C3362 1.391 . S
H3364 C3372 0.950 . S
H3365 C3377 0.950 . S
H3366 C3374 0.950 . S
H3367 C3376 0.950 . S
H3368 C3378 0.950 . S
H3369 C3380 0.950 . S
H3370 C3382 0.950 . S
H3371 C3383 0.950 . S
C3372 H3364 0.950 . S
C3372 C3373 1.386 . S
C3372 C3374 1.391 . S
C3373 C3372 1.386 . S
C3373 C3377 1.393 . S
C3374 H3366 0.950 . S
C3374 C3372 1.391 . S
C3374 C3375 1.400 . S
C3375 C3374 1.400 . S
C3375 C3376 1.398 . S
C3375 C3381 1.491 . S
C3376 H3367 0.950 . S
C3376 C3375 1.398 . S
C3376 C3377 1.391 . S
C3377 H3365 0.950 . S
C3377 C3373 1.393 . S
C3377 C3376 1.391 . S
C3378 H3368 0.950 . S
C3378 C3379 1.386 . S
C3378 C3380 1.391 . S
C3379 C3378 1.386 . S
C3379 C3383 1.393 . S
C3380 H3369 0.950 . S
C3380 C3378 1.391 . S
C3380 C3381 1.400 . S
C3381 C3375 1.491 . S
C3381 C3380 1.400 . S
C3381 C3382 1.398 . S
C3382 H3370 0.950 . S
C3382 C3381 1.398 . S
C3382 C3383 1.391 . S
C3383 H3371 0.950 . S
C3383 C3379 1.393 . S
C3383 C3382 1.391 . S
H3384 C3392 0.950 . S
H3385 C3397 0.950 . S
H3386 C3394 0.950 . S
H3387 C3396 0.950 . S
H3388 C3398 0.950 . S
H3389 C3400 0.950 . S
H3390 C3402 0.950 . S
H3391 C3403 0.950 . S
C3392 H3384 0.950 . S
C3392 C3393 1.386 . S
C3392 C3394 1.391 . S
C3393 C3392 1.386 . S
C3393 C3397 1.393 . S
C3394 H3386 0.950 . S
C3394 C3392 1.391 . S
C3394 C3395 1.400 . S
C3395 C3394 1.400 . S
C3395 C3396 1.398 . S
C3395 C3401 1.491 . S
C3396 H3387 0.950 . S
C3396 C3395 1.398 . S
C3396 C3397 1.391 . S
C3397 H3385 0.950 . S
C3397 C3393 1.393 . S
C3397 C3396 1.391 . S
C3398 H3388 0.950 . S
C3398 C3399 1.386 . S
C3398 C3400 1.391 . S
C3399 C3398 1.386 . S
C3399 C3403 1.393 . S
C3400 H3389 0.950 . S
C3400 C3398 1.391 . S
C3400 C3401 1.400 . S
C3401 C3395 1.491 . S
C3401 C3400 1.400 . S
C3401 C3402 1.398 . S
C3402 H3390 0.950 . S
C3402 C3401 1.398 . S
C3402 C3403 1.391 . S
C3403 H3391 0.950 . S
C3403 C3399 1.393 . S
C3403 C3402 1.391 . S
H3404 C3412 0.950 . S
H3405 C3417 0.950 . S
H3406 C3414 0.950 . S
H3407 C3416 0.950 . S
H3408 C3418 0.950 . S
H3409 C3420 0.950 . S
H3410 C3422 0.950 . S
H3411 C3423 0.950 . S
C3412 H3404 0.950 . S
C3412 C3413 1.386 . S
C3412 C3414 1.391 . S
C3413 C3412 1.386 . S
C3413 C3417 1.393 . S
C3414 H3406 0.950 . S
C3414 C3412 1.391 . S
C3414 C3415 1.400 . S
C3415 C3414 1.400 . S
C3415 C3416 1.398 . S
C3415 C3421 1.491 . S
C3416 H3407 0.950 . S
C3416 C3415 1.398 . S
C3416 C3417 1.391 . S
C3417 H3405 0.950 . S
C3417 C3413 1.393 . S
C3417 C3416 1.391 . S
C3418 H3408 0.950 . S
C3418 C3419 1.386 . S
C3418 C3420 1.391 . S
C3419 C3418 1.386 . S
C3419 C3423 1.393 . S
C3420 H3409 0.950 . S
C3420 C3418 1.391 . S
C3420 C3421 1.400 . S
C3421 C3415 1.491 . S
C3421 C3420 1.400 . S
C3421 C3422 1.398 . S
C3422 H3410 0.950 . S
C3422 C3421 1.398 . S
C3422 C3423 1.391 . S
C3423 H3411 0.950 . S
C3423 C3419 1.393 . S
C3423 C3422 1.391 . S
H3424 C3432 0.950 . S
H3425 C3437 0.950 . S
H3426 C3434 0.950 . S
H3427 C3436 0.950 . S
H3428 C3438 0.950 . S
H3429 C3440 0.950 . S
H3430 C3442 0.950 . S
H3431 C3443 0.950 . S
C3432 H3424 0.950 . S
C3432 C3433 1.386 . S
C3432 C3434 1.391 . S
C3433 C3432 1.386 . S
C3433 C3437 1.393 . S
C3434 H3426 0.950 . S
C3434 C3432 1.391 . S
C3434 C3435 1.400 . S
C3435 C3434 1.400 . S
C3435 C3436 1.398 . S
C3435 C3441 1.491 . S
C3436 H3427 0.950 . S
C3436 C3435 1.398 . S
C3436 C3437 1.391 . S
C3437 H3425 0.950 . S
C3437 C3433 1.393 . S
C3437 C3436 1.391 . S
C3438 H3428 0.950 . S
C3438 C3439 1.386 . S
C3438 C3440 1.391 . S
C3439 C3438 1.386 . S
C3439 C3443 1.393 . S
C3440 H3429 0.950 . S
C3440 C3438 1.391 . S
C3440 C3441 1.400 . S
C3441 C3435 1.491 . S
C3441 C3440 1.400 . S
C3441 C3442 1.398 . S
C3442 H3430 0.950 . S
C3442 C3441 1.398 . S
C3442 C3443 1.391 . S
C3443 H3431 0.950 . S
C3443 C3439 1.393 . S
C3443 C3442 1.391 . S
H3444 C3452 0.950 . S
H3445 C3457 0.950 . S
H3446 C3454 0.950 . S
H3447 C3456 0.950 . S
H3448 C3458 0.950 . S
H3449 C3460 0.950 . S
H3450 C3462 0.950 . S
H3451 C3463 0.950 . S
C3452 H3444 0.950 . S
C3452 C3453 1.386 . S
C3452 C3454 1.391 . S
C3453 C3452 1.386 . S
C3453 C3457 1.393 . S
C3454 H3446 0.950 . S
C3454 C3452 1.391 . S
C3454 C3455 1.400 . S
C3455 C3454 1.400 . S
C3455 C3456 1.398 . S
C3455 C3461 1.491 . S
C3456 H3447 0.950 . S
C3456 C3455 1.398 . S
C3456 C3457 1.391 . S
C3457 H3445 0.950 . S
C3457 C3453 1.393 . S
C3457 C3456 1.391 . S
C3458 H3448 0.950 . S
C3458 C3459 1.386 . S
C3458 C3460 1.391 . S
C3459 C3458 1.386 . S
C3459 C3463 1.393 . S
C3460 H3449 0.950 . S
C3460 C3458 1.391 . S
C3460 C3461 1.400 . S
C3461 C3455 1.491 . S
C3461 C3460 1.400 . S
C3461 C3462 1.398 . S
C3462 H3450 0.950 . S
C3462 C3461 1.398 . S
C3462 C3463 1.391 . S
C3463 H3451 0.950 . S
C3463 C3459 1.393 . S
C3463 C3462 1.391 . S
H3464 C3472 0.950 . S
H3465 C3477 0.950 . S
H3466 C3474 0.950 . S
H3467 C3476 0.950 . S
H3468 C3478 0.950 . S
H3469 C3480 0.950 . S
H3470 C3482 0.950 . S
H3471 C3483 0.950 . S
C3472 H3464 0.950 . S
C3472 C3473 1.386 . S
C3472 C3474 1.391 . S
C3473 C3472 1.386 . S
C3473 C3477 1.393 . S
C3474 H3466 0.950 . S
C3474 C3472 1.391 . S
C3474 C3475 1.400 . S
C3475 C3474 1.400 . S
C3475 C3476 1.398 . S
C3475 C3481 1.491 . S
C3476 H3467 0.950 . S
C3476 C3475 1.398 . S
C3476 C3477 1.391 . S
C3477 H3465 0.950 . S
C3477 C3473 1.393 . S
C3477 C3476 1.391 . S
C3478 H3468 0.950 . S
C3478 C3479 1.386 . S
C3478 C3480 1.391 . S
C3479 C3478 1.386 . S
C3479 C3483 1.393 . S
C3480 H3469 0.950 . S
C3480 C3478 1.391 . S
C3480 C3481 1.400 . S
C3481 C3475 1.491 . S
C3481 C3480 1.400 . S
C3481 C3482 1.398 . S
C3482 H3470 0.950 . S
C3482 C3481 1.398 . S
C3482 C3483 1.391 . S
C3483 H3471 0.950 . S
C3483 C3479 1.393 . S
C3483 C3482 1.391 . S
H3484 C3492 0.950 . S
H3485 C3497 0.950 . S
H3486 C3494 0.950 . S
H3487 C3496 0.950 . S
H3488 C3498 0.950 . S
H3489 C3500 0.950 . S
H3490 C3502 0.950 . S
H3491 C3503 0.950 . S
C3492 H3484 0.950 . S
C3492 C3493 1.386 . S
C3492 C3494 1.391 . S
C3493 C3492 1.386 . S
C3493 C3497 1.393 . S
C3494 H3486 0.950 . S
C3494 C3492 1.391 . S
C3494 C3495 1.400 . S
C3495 C3494 1.400 . S
C3495 C3496 1.398 . S
C3495 C3501 1.491 . S
C3496 H3487 0.950 . S
C3496 C3495 1.398 . S
C3496 C3497 1.391 . S
C3497 H3485 0.950 . S
C3497 C3493 1.393 . S
C3497 C3496 1.391 . S
C3498 H3488 0.950 . S
C3498 C3499 1.386 . S
C3498 C3500 1.391 . S
C3499 C3498 1.386 . S
C3499 C3503 1.393 . S
C3500 H3489 0.950 . S
C3500 C3498 1.391 . S
C3500 C3501 1.400 . S
C3501 C3495 1.491 . S
C3501 C3500 1.400 . S
C3501 C3502 1.398 . S
C3502 H3490 0.950 . S
C3502 C3501 1.398 . S
C3502 C3503 1.391 . S
C3503 H3491 0.950 . S
C3503 C3499 1.393 . S
C3503 C3502 1.391 . S
H3504 C3512 0.950 . S
H3505 C3517 0.950 . S
H3506 C3514 0.950 . S
H3507 C3516 0.950 . S
H3508 C3518 0.950 . S
H3509 C3520 0.950 . S
H3510 C3522 0.950 . S
H3511 C3523 0.950 . S
C3512 H3504 0.950 . S
C3512 C3513 1.386 . S
C3512 C3514 1.391 . S
C3513 C3512 1.386 . S
C3513 C3517 1.393 . S
C3514 H3506 0.950 . S
C3514 C3512 1.391 . S
C3514 C3515 1.400 . S
C3515 C3514 1.400 . S
C3515 C3516 1.398 . S
C3515 C3521 1.491 . S
C3516 H3507 0.950 . S
C3516 C3515 1.398 . S
C3516 C3517 1.391 . S
C3517 H3505 0.950 . S
C3517 C3513 1.393 . S
C3517 C3516 1.391 . S
C3518 H3508 0.950 . S
C3518 C3519 1.386 . S
C3518 C3520 1.391 . S
C3519 C3518 1.386 . S
C3519 C3523 1.393 . S
C3520 H3509 0.950 . S
C3520 C3518 1.391 . S
C3520 C3521 1.400 . S
C3521 C3515 1.491 . S
C3521 C3520 1.400 . S
C3521 C3522 1.398 . S
C3522 H3510 0.950 . S
C3522 C3521 1.398 . S
C3522 C3523 1.391 . S
C3523 H3511 0.950 . S
C3523 C3519 1.393 . S
C3523 C3522 1.391 . S
H3524 C3532 0.950 . S
H3525 C3537 0.950 . S
H3526 C3534 0.950 . S
H3527 C3536 0.950 . S
H3528 C3538 0.950 . S
H3529 C3540 0.950 . S
H3530 C3542 0.950 . S
H3531 C3543 0.950 . S
C3532 H3524 0.950 . S
C3532 C3533 1.386 . S
C3532 C3534 1.391 . S
C3533 C3532 1.386 . S
C3533 C3537 1.393 . S
C3534 H3526 0.950 . S
C3534 C3532 1.391 . S
C3534 C3535 1.400 . S
C3535 C3534 1.400 . S
C3535 C3536 1.398 . S
C3535 C3541 1.491 . S
C3536 H3527 0.950 . S
C3536 C3535 1.398 . S
C3536 C3537 1.391 . S
C3537 H3525 0.950 . S
C3537 C3533 1.393 . S
C3537 C3536 1.391 . S
C3538 H3528 0.950 . S
C3538 C3539 1.386 . S
C3538 C3540 1.391 . S
C3539 C3538 1.386 . S
C3539 C3543 1.393 . S
C3540 H3529 0.950 . S
C3540 C3538 1.391 . S
C3540 C3541 1.400 . S
C3541 C3535 1.491 . S
C3541 C3540 1.400 . S
C3541 C3542 1.398 . S
C3542 H3530 0.950 . S
C3542 C3541 1.398 . S
C3542 C3543 1.391 . S
C3543 H3531 0.950 . S
C3543 C3539 1.393 . S
C3543 C3542 1.391 . S
H3544 C3552 0.950 . S
H3545 C3557 0.950 . S
H3546 C3554 0.950 . S
H3547 C3556 0.950 . S
H3548 C3558 0.950 . S
H3549 C3560 0.950 . S
H3550 C3562 0.950 . S
H3551 C3563 0.950 . S
C3552 H3544 0.950 . S
C3552 C3553 1.386 . S
C3552 C3554 1.391 . S
C3553 C3552 1.386 . S
C3553 C3557 1.393 . S
C3554 H3546 0.950 . S
C3554 C3552 1.391 . S
C3554 C3555 1.400 . S
C3555 C3554 1.400 . S
C3555 C3556 1.398 . S
C3555 C3561 1.491 . S
C3556 H3547 0.950 . S
C3556 C3555 1.398 . S
C3556 C3557 1.391 . S
C3557 H3545 0.950 . S
C3557 C3553 1.393 . S
C3557 C3556 1.391 . S
C3558 H3548 0.950 . S
C3558 C3559 1.386 . S
C3558 C3560 1.391 . S
C3559 C3558 1.386 . S
C3559 C3563 1.393 . S
C3560 H3549 0.950 . S
C3560 C3558 1.391 . S
C3560 C3561 1.400 . S
C3561 C3555 1.491 . S
C3561 C3560 1.400 . S
C3561 C3562 1.398 . S
C3562 H3550 0.950 . S
C3562 C3561 1.398 . S
C3562 C3563 1.391 . S
C3563 H3551 0.950 . S
C3563 C3559 1.393 . S
C3563 C3562 1.391 . S
H3564 C3572 0.950 . S
H3565 C3577 0.950 . S
H3566 C3574 0.950 . S
H3567 C3576 0.950 . S
H3568 C3578 0.950 . S
H3569 C3580 0.950 . S
H3570 C3582 0.950 . S
H3571 C3583 0.950 . S
C3572 H3564 0.950 . S
C3572 C3573 1.386 . S
C3572 C3574 1.391 . S
C3573 C3572 1.386 . S
C3573 C3577 1.393 . S
C3574 H3566 0.950 . S
C3574 C3572 1.391 . S
C3574 C3575 1.400 . S
C3575 C3574 1.400 . S
C3575 C3576 1.398 . S
C3575 C3581 1.491 . S
C3576 H3567 0.950 . S
C3576 C3575 1.398 . S
C3576 C3577 1.391 . S
C3577 H3565 0.950 . S
C3577 C3573 1.393 . S
C3577 C3576 1.391 . S
C3578 H3568 0.950 . S
C3578 C3579 1.386 . S
C3578 C3580 1.391 . S
C3579 C3578 1.386 . S
C3579 C3583 1.393 . S
C3580 H3569 0.950 . S
C3580 C3578 1.391 . S
C3580 C3581 1.400 . S
C3581 C3575 1.491 . S
C3581 C3580 1.400 . S
C3581 C3582 1.398 . S
C3582 H3570 0.950 . S
C3582 C3581 1.398 . S
C3582 C3583 1.391 . S
C3583 H3571 0.950 . S
C3583 C3579 1.393 . S
C3583 C3582 1.391 . S
H3584 C3592 0.950 . S
H3585 C3597 0.950 . S
H3586 C3594 0.950 . S
H3587 C3596 0.950 . S
H3588 C3598 0.950 . S
H3589 C3600 0.950 . S
H3590 C3602 0.950 . S
H3591 C3603 0.950 . S
C3592 H3584 0.950 . S
C3592 C3593 1.386 . S
C3592 C3594 1.391 . S
C3593 C3592 1.386 . S
C3593 C3597 1.393 . S
C3594 H3586 0.950 . S
C3594 C3592 1.391 . S
C3594 C3595 1.400 . S
C3595 C3594 1.400 . S
C3595 C3596 1.398 . S
C3595 C3601 1.491 . S
C3596 H3587 0.950 . S
C3596 C3595 1.398 . S
C3596 C3597 1.391 . S
C3597 H3585 0.950 . S
C3597 C3593 1.393 . S
C3597 C3596 1.391 . S
C3598 H3588 0.950 . S
C3598 C3599 1.386 . S
C3598 C3600 1.391 . S
C3599 C3598 1.386 . S
C3599 C3603 1.393 . S
C3600 H3589 0.950 . S
C3600 C3598 1.391 . S
C3600 C3601 1.400 . S
C3601 C3595 1.491 . S
C3601 C3600 1.400 . S
C3601 C3602 1.398 . S
C3602 H3590 0.950 . S
C3602 C3601 1.398 . S
C3602 C3603 1.391 . S
C3603 H3591 0.950 . S
C3603 C3599 1.393 . S
C3603 C3602 1.391 . S
H3604 C3612 0.950 . S
H3605 C3617 0.950 . S
H3606 C3614 0.950 . S
H3607 C3616 0.950 . S
H3608 C3618 0.950 . S
H3609 C3620 0.950 . S
H3610 C3622 0.950 . S
H3611 C3623 0.950 . S
C3612 H3604 0.950 . S
C3612 C3613 1.386 . S
C3612 C3614 1.391 . S
C3613 C3612 1.386 . S
C3613 C3617 1.393 . S
C3614 H3606 0.950 . S
C3614 C3612 1.391 . S
C3614 C3615 1.400 . S
C3615 C3614 1.400 . S
C3615 C3616 1.398 . S
C3615 C3621 1.491 . S
C3616 H3607 0.950 . S
C3616 C3615 1.398 . S
C3616 C3617 1.391 . S
C3617 H3605 0.950 . S
C3617 C3613 1.393 . S
C3617 C3616 1.391 . S
C3618 H3608 0.950 . S
C3618 C3619 1.386 . S
C3618 C3620 1.391 . S
C3619 C3618 1.386 . S
C3619 C3623 1.393 . S
C3620 H3609 0.950 . S
C3620 C3618 1.391 . S
C3620 C3621 1.400 . S
C3621 C3615 1.491 . S
C3621 C3620 1.400 . S
C3621 C3622 1.398 . S
C3622 H3610 0.950 . S
C3622 C3621 1.398 . S
C3622 C3623 1.391 . S
C3623 H3611 0.950 . S
C3623 C3619 1.393 . S
C3623 C3622 1.391 . S
H3624 C3632 0.950 . S
H3625 C3637 0.950 . S
H3626 C3634 0.950 . S
H3627 C3636 0.950 . S
H3628 C3638 0.950 . S
H3629 C3640 0.950 . S
H3630 C3642 0.950 . S
H3631 C3643 0.950 . S
C3632 H3624 0.950 . S
C3632 C3633 1.386 . S
C3632 C3634 1.391 . S
C3633 C3632 1.386 . S
C3633 C3637 1.393 . S
C3634 H3626 0.950 . S
C3634 C3632 1.391 . S
C3634 C3635 1.400 . S
C3635 C3634 1.400 . S
C3635 C3636 1.398 . S
C3635 C3641 1.491 . S
C3636 H3627 0.950 . S
C3636 C3635 1.398 . S
C3636 C3637 1.391 . S
C3637 H3625 0.950 . S
C3637 C3633 1.393 . S
C3637 C3636 1.391 . S
C3638 H3628 0.950 . S
C3638 C3639 1.386 . S
C3638 C3640 1.391 . S
C3639 C3638 1.386 . S
C3639 C3643 1.393 . S
C3640 H3629 0.950 . S
C3640 C3638 1.391 . S
C3640 C3641 1.400 . S
C3641 C3635 1.491 . S
C3641 C3640 1.400 . S
C3641 C3642 1.398 . S
C3642 H3630 0.950 . S
C3642 C3641 1.398 . S
C3642 C3643 1.391 . S
C3643 H3631 0.950 . S
C3643 C3639 1.393 . S
C3643 C3642 1.391 . S
H3644 C3652 0.950 . S
H3645 C3657 0.950 . S
H3646 C3654 0.950 . S
H3647 C3656 0.950 . S
H3648 C3658 0.950 . S
H3649 C3660 0.950 . S
H3650 C3662 0.950 . S
H3651 C3663 0.950 . S
C3652 H3644 0.950 . S
C3652 C3653 1.386 . S
C3652 C3654 1.391 . S
C3653 C3652 1.386 . S
C3653 C3657 1.393 . S
C3654 H3646 0.950 . S
C3654 C3652 1.391 . S
C3654 C3655 1.400 . S
C3655 C3654 1.400 . S
C3655 C3656 1.398 . S
C3655 C3661 1.491 . S
C3656 H3647 0.950 . S
C3656 C3655 1.398 . S
C3656 C3657 1.391 . S
C3657 H3645 0.950 . S
C3657 C3653 1.393 . S
C3657 C3656 1.391 . S
C3658 H3648 0.950 . S
C3658 C3659 1.386 . S
C3658 C3660 1.391 . S
C3659 C3658 1.386 . S
C3659 C3663 1.393 . S
C3660 H3649 0.950 . S
C3660 C3658 1.391 . S
C3660 C3661 1.400 . S
C3661 C3655 1.491 . S
C3661 C3660 1.400 . S
C3661 C3662 1.398 . S
C3662 H3650 0.950 . S
C3662 C3661 1.398 . S
C3662 C3663 1.391 . S
C3663 H3651 0.950 . S
C3663 C3659 1.393 . S
C3663 C3662 1.391 . S
H3664 C3672 0.950 . S
H3665 C3677 0.950 . S
H3666 C3674 0.950 . S
H3667 C3676 0.950 . S
H3668 C3678 0.950 . S
H3669 C3680 0.950 . S
H3670 C3682 0.950 . S
H3671 C3683 0.950 . S
C3672 H3664 0.950 . S
C3672 C3673 1.386 . S
C3672 C3674 1.391 . S
C3673 C3672 1.386 . S
C3673 C3677 1.393 . S
C3674 H3666 0.950 . S
C3674 C3672 1.391 . S
C3674 C3675 1.400 . S
C3675 C3674 1.400 . S
C3675 C3676 1.398 . S
C3675 C3681 1.491 . S
C3676 H3667 0.950 . S
C3676 C3675 1.398 . S
C3676 C3677 1.391 . S
C3677 H3665 0.950 . S
C3677 C3673 1.393 . S
C3677 C3676 1.391 . S
C3678 H3668 0.950 . S
C3678 C3679 1.386 . S
C3678 C3680 1.391 . S
C3679 C3678 1.386 . S
C3679 C3683 1.393 . S
C3680 H3669 0.950 . S
C3680 C3678 1.391 . S
C3680 C3681 1.400 . S
C3681 C3675 1.491 . S
C3681 C3680 1.400 . S
C3681 C3682 1.398 . S
C3682 H3670 0.950 . S
C3682 C3681 1.398 . S
C3682 C3683 1.391 . S
C3683 H3671 0.950 . S
C3683 C3679 1.393 . S
C3683 C3682 1.391 . S
H3684 C3692 0.950 . S
H3685 C3697 0.950 . S
H3686 C3694 0.950 . S
H3687 C3696 0.950 . S
H3688 C3698 0.950 . S
H3689 C3700 0.950 . S
H3690 C3702 0.950 . S
H3691 C3703 0.950 . S
C3692 H3684 0.950 . S
C3692 C3693 1.386 . S
C3692 C3694 1.391 . S
C3693 C3692 1.386 . S
C3693 C3697 1.393 . S
C3694 H3686 0.950 . S
C3694 C3692 1.391 . S
C3694 C3695 1.400 . S
C3695 C3694 1.400 . S
C3695 C3696 1.398 . S
C3695 C3701 1.491 . S
C3696 H3687 0.950 . S
C3696 C3695 1.398 . S
C3696 C3697 1.391 . S
C3697 H3685 0.950 . S
C3697 C3693 1.393 . S
C3697 C3696 1.391 . S
C3698 H3688 0.950 . S
C3698 C3699 1.386 . S
C3698 C3700 1.391 . S
C3699 C3698 1.386 . S
C3699 C3703 1.393 . S
C3700 H3689 0.950 . S
C3700 C3698 1.391 . S
C3700 C3701 1.400 . S
C3701 C3695 1.491 . S
C3701 C3700 1.400 . S
C3701 C3702 1.398 . S
C3702 H3690 0.950 . S
C3702 C3701 1.398 . S
C3702 C3703 1.391 . S
C3703 H3691 0.950 . S
C3703 C3699 1.393 . S
C3703 C3702 1.391 . S
H3704 C3712 0.950 . S
H3705 C3717 0.950 . S
H3706 C3714 0.950 . S
H3707 C3716 0.950 . S
H3708 C3718 0.950 . S
H3709 C3720 0.950 . S
H3710 C3722 0.950 . S
H3711 C3723 0.950 . S
C3712 H3704 0.950 . S
C3712 C3713 1.386 . S
C3712 C3714 1.391 . S
C3713 C3712 1.386 . S
C3713 C3717 1.393 . S
C3714 H3706 0.950 . S
C3714 C3712 1.391 . S
C3714 C3715 1.400 . S
C3715 C3714 1.400 . S
C3715 C3716 1.398 . S
C3715 C3721 1.491 . S
C3716 H3707 0.950 . S
C3716 C3715 1.398 . S
C3716 C3717 1.391 . S
C3717 H3705 0.950 . S
C3717 C3713 1.393 . S
C3717 C3716 1.391 . S
C3718 H3708 0.950 . S
C3718 C3719 1.386 . S
C3718 C3720 1.391 . S
C3719 C3718 1.386 . S
C3719 C3723 1.393 . S
C3720 H3709 0.950 . S
C3720 C3718 1.391 . S
C3720 C3721 1.400 . S
C3721 C3715 1.491 . S
C3721 C3720 1.400 . S
C3721 C3722 1.398 . S
C3722 H3710 0.950 . S
C3722 C3721 1.398 . S
C3722 C3723 1.391 . S
C3723 H3711 0.950 . S
C3723 C3719 1.393 . S
C3723 C3722 1.391 . S
H3724 C3732 0.950 . S
H3725 C3737 0.950 . S
H3726 C3734 0.950 . S
H3727 C3736 0.950 . S
H3728 C3738 0.950 . S
H3729 C3740 0.950 . S
H3730 C3742 0.950 . S
H3731 C3743 0.950 . S
C3732 H3724 0.950 . S
C3732 C3733 1.386 . S
C3732 C3734 1.391 . S
C3733 C3732 1.386 . S
C3733 C3737 1.393 . S
C3734 H3726 0.950 . S
C3734 C3732 1.391 . S
C3734 C3735 1.400 . S
C3735 C3734 1.400 . S
C3735 C3736 1.398 . S
C3735 C3741 1.491 . S
C3736 H3727 0.950 . S
C3736 C3735 1.398 . S
C3736 C3737 1.391 . S
C3737 H3725 0.950 . S
C3737 C3733 1.393 . S
C3737 C3736 1.391 . S
C3738 H3728 0.950 . S
C3738 C3739 1.386 . S
C3738 C3740 1.391 . S
C3739 C3738 1.386 . S
C3739 C3743 1.393 . S
C3740 H3729 0.950 . S
C3740 C3738 1.391 . S
C3740 C3741 1.400 . S
C3741 C3735 1.491 . S
C3741 C3740 1.400 . S
C3741 C3742 1.398 . S
C3742 H3730 0.950 . S
C3742 C3741 1.398 . S
C3742 C3743 1.391 . S
C3743 H3731 0.950 . S
C3743 C3739 1.393 . S
C3743 C3742 1.391 . S
H3744 C3752 0.950 . S
H3745 C3757 0.950 . S
H3746 C3754 0.950 . S
H3747 C3756 0.950 . S
H3748 C3758 0.950 . S
H3749 C3760 0.950 . S
H3750 C3762 0.950 . S
H3751 C3763 0.950 . S
C3752 H3744 0.950 . S
C3752 C3753 1.386 . S
C3752 C3754 1.391 . S
C3753 C3752 1.386 . S
C3753 C3757 1.393 . S
C3754 H3746 0.950 . S
C3754 C3752 1.391 . S
C3754 C3755 1.400 . S
C3755 C3754 1.400 . S
C3755 C3756 1.398 . S
C3755 C3761 1.491 . S
C3756 H3747 0.950 . S
C3756 C3755 1.398 . S
C3756 C3757 1.391 . S
C3757 H3745 0.950 . S
C3757 C3753 1.393 . S
C3757 C3756 1.391 . S
C3758 H3748 0.950 . S
C3758 C3759 1.386 . S
C3758 C3760 1.391 . S
C3759 C3758 1.386 . S
C3759 C3763 1.393 . S
C3760 H3749 0.950 . S
C3760 C3758 1.391 . S
C3760 C3761 1.400 . S
C3761 C3755 1.491 . S
C3761 C3760 1.400 . S
C3761 C3762 1.398 . S
C3762 H3750 0.950 . S
C3762 C3761 1.398 . S
C3762 C3763 1.391 . S
C3763 H3751 0.950 . S
C3763 C3759 1.393 . S
C3763 C3762 1.391 . S
H3764 C3772 0.950 . S
H3765 C3777 0.950 . S
H3766 C3774 0.950 . S
H3767 C3776 0.950 . S
H3768 C3778 0.950 . S
H3769 C3780 0.950 . S
H3770 C3782 0.950 . S
H3771 C3783 0.950 . S
C3772 H3764 0.950 . S
C3772 C3773 1.386 . S
C3772 C3774 1.391 . S
C3773 C3772 1.386 . S
C3773 C3777 1.393 . S
C3774 H3766 0.950 . S
C3774 C3772 1.391 . S
C3774 C3775 1.400 . S
C3775 C3774 1.400 . S
C3775 C3776 1.398 . S
C3775 C3781 1.491 . S
C3776 H3767 0.950 . S
C3776 C3775 1.398 . S
C3776 C3777 1.391 . S
C3777 H3765 0.950 . S
C3777 C3773 1.393 . S
C3777 C3776 1.391 . S
C3778 H3768 0.950 . S
C3778 C3779 1.386 . S
C3778 C3780 1.391 . S
C3779 C3778 1.386 . S
C3779 C3783 1.393 . S
C3780 H3769 0.950 . S
C3780 C3778 1.391 . S
C3780 C3781 1.400 . S
C3781 C3775 1.491 . S
C3781 C3780 1.400 . S
C3781 C3782 1.398 . S
C3782 H3770 0.950 . S
C3782 C3781 1.398 . S
C3782 C3783 1.391 . S
C3783 H3771 0.950 . S
C3783 C3779 1.393 . S
C3783 C3782 1.391 . S
H3784 C3792 0.950 . S
H3785 C3797 0.950 . S
H3786 C3794 0.950 . S
H3787 C3796 0.950 . S
H3788 C3798 0.950 . S
H3789 C3800 0.950 . S
H3790 C3802 0.950 . S
H3791 C3803 0.950 . S
C3792 H3784 0.950 . S
C3792 C3793 1.386 . S
C3792 C3794 1.391 . S
C3793 C3792 1.386 . S
C3793 C3797 1.393 . S
C3794 H3786 0.950 . S
C3794 C3792 1.391 . S
C3794 C3795 1.400 . S
C3795 C3794 1.400 . S
C3795 C3796 1.398 . S
C3795 C3801 1.491 . S
C3796 H3787 0.950 . S
C3796 C3795 1.398 . S
C3796 C3797 1.391 . S
C3797 H3785 0.950 . S
C3797 C3793 1.393 . S
C3797 C3796 1.391 . S
C3798 H3788 0.950 . S
C3798 C3799 1.386 . S
C3798 C3800 1.391 . S
C3799 C3798 1.386 . S
C3799 C3803 1.393 . S
C3800 H3789 0.950 . S
C3800 C3798 1.391 . S
C3800 C3801 1.400 . S
C3801 C3795 1.491 . S
C3801 C3800 1.400 . S
C3801 C3802 1.398 . S
C3802 H3790 0.950 . S
C3802 C3801 1.398 . S
C3802 C3803 1.391 . S
C3803 H3791 0.950 . S
C3803 C3799 1.393 . S
C3803 C3802 1.391 . S
H3804 C3812 0.950 . S
H3805 C3817 0.950 . S
H3806 C3814 0.950 . S
H3807 C3816 0.950 . S
H3808 C3818 0.950 . S
H3809 C3820 0.950 . S
H3810 C3822 0.950 . S
H3811 C3823 0.950 . S
C3812 H3804 0.950 . S
C3812 C3813 1.386 . S
C3812 C3814 1.391 . S
C3813 C3812 1.386 . S
C3813 C3817 1.393 . S
C3814 H3806 0.950 . S
C3814 C3812 1.391 . S
C3814 C3815 1.400 . S
C3815 C3814 1.400 . S
C3815 C3816 1.398 . S
C3815 C3821 1.491 . S
C3816 H3807 0.950 . S
C3816 C3815 1.398 . S
C3816 C3817 1.391 . S
C3817 H3805 0.950 . S
C3817 C3813 1.393 . S
C3817 C3816 1.391 . S
C3818 H3808 0.950 . S
C3818 C3819 1.386 . S
C3818 C3820 1.391 . S
C3819 C3818 1.386 . S
C3819 C3823 1.393 . S
C3820 H3809 0.950 . S
C3820 C3818 1.391 . S
C3820 C3821 1.400 . S
C3821 C3815 1.491 . S
C3821 C3820 1.400 . S
C3821 C3822 1.398 . S
C3822 H3810 0.950 . S
C3822 C3821 1.398 . S
C3822 C3823 1.391 . S
C3823 H3811 0.950 . S
C3823 C3819 1.393 . S
C3823 C3822 1.391 . S
H3824 C3832 0.950 . S
H3825 C3837 0.950 . S
H3826 C3834 0.950 . S
H3827 C3836 0.950 . S
H3828 C3838 0.950 . S
H3829 C3840 0.950 . S
H3830 C3842 0.950 . S
H3831 C3843 0.950 . S
C3832 H3824 0.950 . S
C3832 C3833 1.386 . S
C3832 C3834 1.391 . S
C3833 C3832 1.386 . S
C3833 C3837 1.393 . S
C3834 H3826 0.950 . S
C3834 C3832 1.391 . S
C3834 C3835 1.400 . S
C3835 C3834 1.400 . S
C3835 C3836 1.398 . S
C3835 C3841 1.491 . S
C3836 H3827 0.950 . S
C3836 C3835 1.398 . S
C3836 C3837 1.391 . S
C3837 H3825 0.950 . S
C3837 C3833 1.393 . S
C3837 C3836 1.391 . S
C3838 H3828 0.950 . S
C3838 C3839 1.386 . S
C3838 C3840 1.391 . S
C3839 C3838 1.386 . S
C3839 C3843 1.393 . S
C3840 H3829 0.950 . S
C3840 C3838 1.391 . S
C3840 C3841 1.400 . S
C3841 C3835 1.491 . S
C3841 C3840 1.400 . S
C3841 C3842 1.398 . S
C3842 H3830 0.950 . S
C3842 C3841 1.398 . S
C3842 C3843 1.391 . S
C3843 H3831 0.950 . S
C3843 C3839 1.393 . S
C3843 C3842 1.391 . S
H3844 C3852 0.950 . S
H3845 C3857 0.950 . S
H3846 C3854 0.950 . S
H3847 C3856 0.950 . S
H3848 C3858 0.950 . S
H3849 C3860 0.950 . S
H3850 C3862 0.950 . S
H3851 C3863 0.950 . S
C3852 H3844 0.950 . S
C3852 C3853 1.386 . S
C3852 C3854 1.391 . S
C3853 C3852 1.386 . S
C3853 C3857 1.393 . S
C3854 H3846 0.950 . S
C3854 C3852 1.391 . S
C3854 C3855 1.400 . S
C3855 C3854 1.400 . S
C3855 C3856 1.398 . S
C3855 C3861 1.491 . S
C3856 H3847 0.950 . S
C3856 C3855 1.398 . S
C3856 C3857 1.391 . S
C3857 H3845 0.950 . S
C3857 C3853 1.393 . S
C3857 C3856 1.391 . S
C3858 H3848 0.950 . S
C3858 C3859 1.386 . S
C3858 C3860 1.391 . S
C3859 C3858 1.386 . S
C3859 C3863 1.393 . S
C3860 H3849 0.950 . S
C3860 C3858 1.391 . S
C3860 C3861 1.400 . S
C3861 C3855 1.491 . S
C3861 C3860 1.400 . S
C3861 C3862 1.398 . S
C3862 H3850 0.950 . S
C3862 C3861 1.398 . S
C3862 C3863 1.391 . S
C3863 H3851 0.950 . S
C3863 C3859 1.393 . S
C3863 C3862 1.391 . S
H3864 C3872 0.950 . S
H3865 C3877 0.950 . S
H3866 C3874 0.950 . S
H3867 C3876 0.950 . S
H3868 C3878 0.950 . S
H3869 C3880 0.950 . S
H3870 C3882 0.950 . S
H3871 C3883 0.950 . S
C3872 H3864 0.950 . S
C3872 C3873 1.386 . S
C3872 C3874 1.391 . S
C3873 C3872 1.386 . S
C3873 C3877 1.393 . S
C3874 H3866 0.950 . S
C3874 C3872 1.391 . S
C3874 C3875 1.400 . S
C3875 C3874 1.400 . S
C3875 C3876 1.398 . S
C3875 C3881 1.491 . S
C3876 H3867 0.950 . S
C3876 C3875 1.398 . S
C3876 C3877 1.391 . S
C3877 H3865 0.950 . S
C3877 C3873 1.393 . S
C3877 C3876 1.391 . S
C3878 H3868 0.950 . S
C3878 C3879 1.386 . S
C3878 C3880 1.391 . S
C3879 C3878 1.386 . S
C3879 C3883 1.393 . S
C3880 H3869 0.950 . S
C3880 C3878 1.391 . S
C3880 C3881 1.400 . S
C3881 C3875 1.491 . S
C3881 C3880 1.400 . S
C3881 C3882 1.398 . S
C3882 H3870 0.950 . S
C3882 C3881 1.398 . S
C3882 C3883 1.391 . S
C3883 H3871 0.950 . S
C3883 C3879 1.393 . S
C3883 C3882 1.391 . S
H3884 C3892 0.950 . S
H3885 C3897 0.950 . S
H3886 C3894 0.950 . S
H3887 C3896 0.950 . S
H3888 C3898 0.950 . S
H3889 C3900 0.950 . S
H3890 C3902 0.950 . S
H3891 C3903 0.950 . S
C3892 H3884 0.950 . S
C3892 C3893 1.386 . S
C3892 C3894 1.391 . S
C3893 C3892 1.386 . S
C3893 C3897 1.393 . S
C3894 H3886 0.950 . S
C3894 C3892 1.391 . S
C3894 C3895 1.400 . S
C3895 C3894 1.400 . S
C3895 C3896 1.398 . S
C3895 C3901 1.491 . S
C3896 H3887 0.950 . S
C3896 C3895 1.398 . S
C3896 C3897 1.391 . S
C3897 H3885 0.950 . S
C3897 C3893 1.393 . S
C3897 C3896 1.391 . S
C3898 H3888 0.950 . S
C3898 C3899 1.386 . S
C3898 C3900 1.391 . S
C3899 C3898 1.386 . S
C3899 C3903 1.393 . S
C3900 H3889 0.950 . S
C3900 C3898 1.391 . S
C3900 C3901 1.400 . S
C3901 C3895 1.491 . S
C3901 C3900 1.400 . S
C3901 C3902 1.398 . S
C3902 H3890 0.950 . S
C3902 C3901 1.398 . S
C3902 C3903 1.391 . S
C3903 H3891 0.950 . S
C3903 C3899 1.393 . S
C3903 C3902 1.391 . S
H3904 C3912 0.950 . S
H3905 C3917 0.950 . S
H3906 C3914 0.950 . S
H3907 C3916 0.950 . S
H3908 C3918 0.950 . S
H3909 C3920 0.950 . S
H3910 C3922 0.950 . S
H3911 C3923 0.950 . S
C3912 H3904 0.950 . S
C3912 C3913 1.386 . S
C3912 C3914 1.391 . S
C3913 C3912 1.386 . S
C3913 C3917 1.393 . S
C3914 H3906 0.950 . S
C3914 C3912 1.391 . S
C3914 C3915 1.400 . S
C3915 C3914 1.400 . S
C3915 C3916 1.398 . S
C3915 C3921 1.491 . S
C3916 H3907 0.950 . S
C3916 C3915 1.398 . S
C3916 C3917 1.391 . S
C3917 H3905 0.950 . S
C3917 C3913 1.393 . S
C3917 C3916 1.391 . S
C3918 H3908 0.950 . S
C3918 C3919 1.386 . S
C3918 C3920 1.391 . S
C3919 C3918 1.386 . S
C3919 C3923 1.393 . S
C3920 H3909 0.950 . S
C3920 C3918 1.391 . S
C3920 C3921 1.400 . S
C3921 C3915 1.491 . S
C3921 C3920 1.400 . S
C3921 C3922 1.398 . S
C3922 H3910 0.950 . S
C3922 C3921 1.398 . S
C3922 C3923 1.391 . S
C3923 H3911 0.950 . S
C3923 C3919 1.393 . S
C3923 C3922 1.391 . S
H3924 C3932 0.950 . S
H3925 C3937 0.950 . S
H3926 C3934 0.950 . S
H3927 C3936 0.950 . S
H3928 C3938 0.950 . S
H3929 C3940 0.950 . S
H3930 C3942 0.950 . S
H3931 C3943 0.950 . S
C3932 H3924 0.950 . S
C3932 C3933 1.386 . S
C3932 C3934 1.391 . S
C3933 C3932 1.386 . S
C3933 C3937 1.393 . S
C3934 H3926 0.950 . S
C3934 C3932 1.391 . S
C3934 C3935 1.400 . S
C3935 C3934 1.400 . S
C3935 C3936 1.398 . S
C3935 C3941 1.491 . S
C3936 H3927 0.950 . S
C3936 C3935 1.398 . S
C3936 C3937 1.391 . S
C3937 H3925 0.950 . S
C3937 C3933 1.393 . S
C3937 C3936 1.391 . S
C3938 H3928 0.950 . S
C3938 C3939 1.386 . S
C3938 C3940 1.391 . S
C3939 C3938 1.386 . S
C3939 C3943 1.393 . S
C3940 H3929 0.950 . S
C3940 C3938 1.391 . S
C3940 C3941 1.400 . S
C3941 C3935 1.491 . S
C3941 C3940 1.400 . S
C3941 C3942 1.398 . S
C3942 H3930 0.950 . S
C3942 C3941 1.398 . S
C3942 C3943 1.391 . S
C3943 H3931 0.950 . S
C3943 C3939 1.393 . S
C3943 C3942 1.391 . S
H3944 C3952 0.950 . S
H3945 C3957 0.950 . S
H3946 C3954 0.950 . S
H3947 C3956 0.950 . S
H3948 C3958 0.950 . S
H3949 C3960 0.950 . S
H3950 C3962 0.950 . S
H3951 C3963 0.950 . S
C3952 H3944 0.950 . S
C3952 C3953 1.386 . S
C3952 C3954 1.391 . S
C3953 C3952 1.386 . S
C3953 C3957 1.393 . S
C3954 H3946 0.950 . S
C3954 C3952 1.391 . S
C3954 C3955 1.400 . S
C3955 C3954 1.400 . S
C3955 C3956 1.398 . S
C3955 C3961 1.491 . S
C3956 H3947 0.950 . S
C3956 C3955 1.398 . S
C3956 C3957 1.391 . S
C3957 H3945 0.950 . S
C3957 C3953 1.393 . S
C3957 C3956 1.391 . S
C3958 H3948 0.950 . S
C3958 C3959 1.386 . S
C3958 C3960 1.391 . S
C3959 C3958 1.386 . S
C3959 C3963 1.393 . S
C3960 H3949 0.950 . S
C3960 C3958 1.391 . S
C3960 C3961 1.400 . S
C3961 C3955 1.491 . S
C3961 C3960 1.400 . S
C3961 C3962 1.398 . S
C3962 H3950 0.950 . S
C3962 C3961 1.398 . S
C3962 C3963 1.391 . S
C3963 H3951 0.950 . S
C3963 C3959 1.393 . S
C3963 C3962 1.391 . S
H3964 C3972 0.950 . S
H3965 C3977 0.950 . S
H3966 C3974 0.950 . S
H3967 C3976 0.950 . S
H3968 C3978 0.950 . S
H3969 C3980 0.950 . S
H3970 C3982 0.950 . S
H3971 C3983 0.950 . S
C3972 H3964 0.950 . S
C3972 C3973 1.386 . S
C3972 C3974 1.391 . S
C3973 C3972 1.386 . S
C3973 C3977 1.393 . S
C3974 H3966 0.950 . S
C3974 C3972 1.391 . S
C3974 C3975 1.400 . S
C3975 C3974 1.400 . S
C3975 C3976 1.398 . S
C3975 C3981 1.491 . S
C3976 H3967 0.950 . S
C3976 C3975 1.398 . S
C3976 C3977 1.391 . S
C3977 H3965 0.950 . S
C3977 C3973 1.393 . S
C3977 C3976 1.391 . S
C3978 H3968 0.950 . S
C3978 C3979 1.386 . S
C3978 C3980 1.391 . S
C3979 C3978 1.386 . S
C3979 C3983 1.393 . S
C3980 H3969 0.950 . S
C3980 C3978 1.391 . S
C3980 C3981 1.400 . S
C3981 C3975 1.491 . S
C3981 C3980 1.400 . S
C3981 C3982 1.398 . S
C3982 H3970 0.950 . S
C3982 C3981 1.398 . S
C3982 C3983 1.391 . S
C3983 H3971 0.950 . S
C3983 C3979 1.393 . S
C3983 C3982 1.391 . S
H3984 C3992 0.950 . S
H3985 C3997 0.950 . S
H3986 C3994 0.950 . S
H3987 C3996 0.950 . S
H3988 C3998 0.950 . S
H3989 C4000 0.950 . S
H3990 C4002 0.950 . S
H3991 C4003 0.950 . S
C3992 H3984 0.950 . S
C3992 C3993 1.386 . S
C3992 C3994 1.391 . S
C3993 C3992 1.386 . S
C3993 C3997 1.393 . S
C3994 H3986 0.950 . S
C3994 C3992 1.391 . S
C3994 C3995 1.400 . S
C3995 C3994 1.400 . S
C3995 C3996 1.398 . S
C3995 C4001 1.491 . S
C3996 H3987 0.950 . S
C3996 C3995 1.398 . S
C3996 C3997 1.391 . S
C3997 H3985 0.950 . S
C3997 C3993 1.393 . S
C3997 C3996 1.391 . S
C3998 H3988 0.950 . S
C3998 C3999 1.386 . S
C3998 C4000 1.391 . S
C3999 C3998 1.386 . S
C3999 C4003 1.393 . S
C4000 H3989 0.950 . S
C4000 C3998 1.391 . S
C4000 C4001 1.400 . S
C4001 C3995 1.491 . S
C4001 C4000 1.400 . S
C4001 C4002 1.398 . S
C4002 H3990 0.950 . S
C4002 C4001 1.398 . S
C4002 C4003 1.391 . S
C4003 H3991 0.950 . S
C4003 C3999 1.393 . S
C4003 C4002 1.391 . S
H4004 C4012 0.950 . S
H4005 C4017 0.950 . S
H4006 C4014 0.950 . S
H4007 C4016 0.950 . S
H4008 C4018 0.950 . S
H4009 C4020 0.950 . S
H4010 C4022 0.950 . S
H4011 C4023 0.950 . S
C4012 H4004 0.950 . S
C4012 C4013 1.386 . S
C4012 C4014 1.391 . S
C4013 C4012 1.386 . S
C4013 C4017 1.393 . S
C4014 H4006 0.950 . S
C4014 C4012 1.391 . S
C4014 C4015 1.400 . S
C4015 C4014 1.400 . S
C4015 C4016 1.398 . S
C4015 C4021 1.491 . S
C4016 H4007 0.950 . S
C4016 C4015 1.398 . S
C4016 C4017 1.391 . S
C4017 H4005 0.950 . S
C4017 C4013 1.393 . S
C4017 C4016 1.391 . S
C4018 H4008 0.950 . S
C4018 C4019 1.386 . S
C4018 C4020 1.391 . S
C4019 C4018 1.386 . S
C4019 C4023 1.393 . S
C4020 H4009 0.950 . S
C4020 C4018 1.391 . S
C4020 C4021 1.400 . S
C4021 C4015 1.491 . S
C4021 C4020 1.400 . S
C4021 C4022 1.398 . S
C4022 H4010 0.950 . S
C4022 C4021 1.398 . S
C4022 C4023 1.391 . S
C4023 H4011 0.950 . S
C4023 C4019 1.393 . S
C4023 C4022 1.391 . S
H4024 C4032 0.950 . S
H4025 C4037 0.950 . S
H4026 C4034 0.950 . S
H4027 C4036 0.950 . S
H4028 C4038 0.950 . S
H4029 C4040 0.950 . S
H4030 C4042 0.950 . S
H4031 C4043 0.950 . S
C4032 H4024 0.950 . S
C4032 C4033 1.386 . S
C4032 C4034 1.391 . S
C4033 C4032 1.386 . S
C4033 C4037 1.393 . S
C4034 H4026 0.950 . S
C4034 C4032 1.391 . S
C4034 C4035 1.400 . S
C4035 C4034 1.400 . S
C4035 C4036 1.398 . S
C4035 C4041 1.491 . S
C4036 H4027 0.950 . S
C4036 C4035 1.398 . S
C4036 C4037 1.391 . S
C4037 H4025 0.950 . S
C4037 C4033 1.393 . S
C4037 C4036 1.391 . S
C4038 H4028 0.950 . S
C4038 C4039 1.386 . S
C4038 C4040 1.391 . S
C4039 C4038 1.386 . S
C4039 C4043 1.393 . S
C4040 H4029 0.950 . S
C4040 C4038 1.391 . S
C4040 C4041 1.400 . S
C4041 C4035 1.491 . S
C4041 C4040 1.400 . S
C4041 C4042 1.398 . S
C4042 H4030 0.950 . S
C4042 C4041 1.398 . S
C4042 C4043 1.391 . S
C4043 H4031 0.950 . S
C4043 C4039 1.393 . S
C4043 C4042 1.391 . S
H4044 C4052 0.950 . S
H4045 C4057 0.950 . S
H4046 C4054 0.950 . S
H4047 C4056 0.950 . S
H4048 C4058 0.950 . S
H4049 C4060 0.950 . S
H4050 C4062 0.950 . S
H4051 C4063 0.950 . S
C4052 H4044 0.950 . S
C4052 C4053 1.386 . S
C4052 C4054 1.391 . S
C4053 C4052 1.386 . S
C4053 C4057 1.393 . S
C4054 H4046 0.950 . S
C4054 C4052 1.391 . S
C4054 C4055 1.400 . S
C4055 C4054 1.400 . S
C4055 C4056 1.398 . S
C4055 C4061 1.491 . S
C4056 H4047 0.950 . S
C4056 C4055 1.398 . S
C4056 C4057 1.391 . S
C4057 H4045 0.950 . S
C4057 C4053 1.393 . S
C4057 C4056 1.391 . S
C4058 H4048 0.950 . S
C4058 C4059 1.386 . S
C4058 C4060 1.391 . S
C4059 C4058 1.386 . S
C4059 C4063 1.393 . S
C4060 H4049 0.950 . S
C4060 C4058 1.391 . S
C4060 C4061 1.400 . S
C4061 C4055 1.491 . S
C4061 C4060 1.400 . S
C4061 C4062 1.398 . S
C4062 H4050 0.950 . S
C4062 C4061 1.398 . S
C4062 C4063 1.391 . S
C4063 H4051 0.950 . S
C4063 C4059 1.393 . S
C4063 C4062 1.391 . S
H4064 C4072 0.950 . S
H4065 C4077 0.950 . S
H4066 C4074 0.950 . S
H4067 C4076 0.950 . S
H4068 C4078 0.950 . S
H4069 C4080 0.950 . S
H4070 C4082 0.950 . S
H4071 C4083 0.950 . S
C4072 H4064 0.950 . S
C4072 C4073 1.386 . S
C4072 C4074 1.391 . S
C4073 C4072 1.386 . S
C4073 C4077 1.393 . S
C4074 H4066 0.950 . S
C4074 C4072 1.391 . S
C4074 C4075 1.400 . S
C4075 C4074 1.400 . S
C4075 C4076 1.398 . S
C4075 C4081 1.491 . S
C4076 H4067 0.950 . S
C4076 C4075 1.398 . S
C4076 C4077 1.391 . S
C4077 H4065 0.950 . S
C4077 C4073 1.393 . S
C4077 C4076 1.391 . S
C4078 H4068 0.950 . S
C4078 C4079 1.386 . S
C4078 C4080 1.391 . S
C4079 C4078 1.386 . S
C4079 C4083 1.393 . S
C4080 H4069 0.950 . S
C4080 C4078 1.391 . S
C4080 C4081 1.400 . S
C4081 C4075 1.491 . S
C4081 C4080 1.400 . S
C4081 C4082 1.398 . S
C4082 H4070 0.950 . S
C4082 C4081 1.398 . S
C4082 C4083 1.391 . S
C4083 H4071 0.950 . S
C4083 C4079 1.393 . S
C4083 C4082 1.391 . S
H4084 C4092 0.950 . S
H4085 C4097 0.950 . S
H4086 C4094 0.950 . S
H4087 C4096 0.950 . S
H4088 C4098 0.950 . S
H4089 C4100 0.950 . S
H4090 C4102 0.950 . S
H4091 C4103 0.950 . S
C4092 H4084 0.950 . S
C4092 C4093 1.386 . S
C4092 C4094 1.391 . S
C4093 C4092 1.386 . S
C4093 C4097 1.393 . S
C4094 H4086 0.950 . S
C4094 C4092 1.391 . S
C4094 C4095 1.400 . S
C4095 C4094 1.400 . S
C4095 C4096 1.398 . S
C4095 C4101 1.491 . S
C4096 H4087 0.950 . S
C4096 C4095 1.398 . S
C4096 C4097 1.391 . S
C4097 H4085 0.950 . S
C4097 C4093 1.393 . S
C4097 C4096 1.391 . S
C4098 H4088 0.950 . S
C4098 C4099 1.386 . S
C4098 C4100 1.391 . S
C4099 C4098 1.386 . S
C4099 C4103 1.393 . S
C4100 H4089 0.950 . S
C4100 C4098 1.391 . S
C4100 C4101 1.400 . S
C4101 C4095 1.491 . S
C4101 C4100 1.400 . S
C4101 C4102 1.398 . S
C4102 H4090 0.950 . S
C4102 C4101 1.398 . S
C4102 C4103 1.391 . S
C4103 H4091 0.950 . S
C4103 C4099 1.393 . S
C4103 C4102 1.391 . S
H4104 C4112 0.950 . S
H4105 C4117 0.950 . S
H4106 C4114 0.950 . S
H4107 C4116 0.950 . S
H4108 C4118 0.950 . S
H4109 C4120 0.950 . S
H4110 C4122 0.950 . S
H4111 C4123 0.950 . S
C4112 H4104 0.950 . S
C4112 C4113 1.386 . S
C4112 C4114 1.391 . S
C4113 C4112 1.386 . S
C4113 C4117 1.393 . S
C4114 H4106 0.950 . S
C4114 C4112 1.391 . S
C4114 C4115 1.400 . S
C4115 C4114 1.400 . S
C4115 C4116 1.398 . S
C4115 C4121 1.491 . S
C4116 H4107 0.950 . S
C4116 C4115 1.398 . S
C4116 C4117 1.391 . S
C4117 H4105 0.950 . S
C4117 C4113 1.393 . S
C4117 C4116 1.391 . S
C4118 H4108 0.950 . S
C4118 C4119 1.386 . S
C4118 C4120 1.391 . S
C4119 C4118 1.386 . S
C4119 C4123 1.393 . S
C4120 H4109 0.950 . S
C4120 C4118 1.391 . S
C4120 C4121 1.400 . S
C4121 C4115 1.491 . S
C4121 C4120 1.400 . S
C4121 C4122 1.398 . S
C4122 H4110 0.950 . S
C4122 C4121 1.398 . S
C4122 C4123 1.391 . S
C4123 H4111 0.950 . S
C4123 C4119 1.393 . S
C4123 C4122 1.391 . S
H4124 C4132 0.950 . S
H4125 C4137 0.950 . S
H4126 C4134 0.950 . S
H4127 C4136 0.950 . S
H4128 C4138 0.950 . S
H4129 C4140 0.950 . S
H4130 C4142 0.950 . S
H4131 C4143 0.950 . S
C4132 H4124 0.950 . S
C4132 C4133 1.386 . S
C4132 C4134 1.391 . S
C4133 C4132 1.386 . S
C4133 C4137 1.393 . S
C4134 H4126 0.950 . S
C4134 C4132 1.391 . S
C4134 C4135 1.400 . S
C4135 C4134 1.400 . S
C4135 C4136 1.398 . S
C4135 C4141 1.491 . S
C4136 H4127 0.950 . S
C4136 C4135 1.398 . S
C4136 C4137 1.391 . S
C4137 H4125 0.950 . S
C4137 C4133 1.393 . S
C4137 C4136 1.391 . S
C4138 H4128 0.950 . S
C4138 C4139 1.386 . S
C4138 C4140 1.391 . S
C4139 C4138 1.386 . S
C4139 C4143 1.393 . S
C4140 H4129 0.950 . S
C4140 C4138 1.391 . S
C4140 C4141 1.400 . S
C4141 C4135 1.491 . S
C4141 C4140 1.400 . S
C4141 C4142 1.398 . S
C4142 H4130 0.950 . S
C4142 C4141 1.398 . S
C4142 C4143 1.391 . S
C4143 H4131 0.950 . S
C4143 C4139 1.393 . S
C4143 C4142 1.391 . S
H4144 C4152 0.950 . S
H4145 C4157 0.950 . S
H4146 C4154 0.950 . S
H4147 C4156 0.950 . S
H4148 C4158 0.950 . S
H4149 C4160 0.950 . S
H4150 C4162 0.950 . S
H4151 C4163 0.950 . S
C4152 H4144 0.950 . S
C4152 C4153 1.386 . S
C4152 C4154 1.391 . S
C4153 C4152 1.386 . S
C4153 C4157 1.393 . S
C4154 H4146 0.950 . S
C4154 C4152 1.391 . S
C4154 C4155 1.400 . S
C4155 C4154 1.400 . S
C4155 C4156 1.398 . S
C4155 C4161 1.491 . S
C4156 H4147 0.950 . S
C4156 C4155 1.398 . S
C4156 C4157 1.391 . S
C4157 H4145 0.950 . S
C4157 C4153 1.393 . S
C4157 C4156 1.391 . S
C4158 H4148 0.950 . S
C4158 C4159 1.386 . S
C4158 C4160 1.391 . S
C4159 C4158 1.386 . S
C4159 C4163 1.393 . S
C4160 H4149 0.950 . S
C4160 C4158 1.391 . S
C4160 C4161 1.400 . S
C4161 C4155 1.491 . S
C4161 C4160 1.400 . S
C4161 C4162 1.398 . S
C4162 H4150 0.950 . S
C4162 C4161 1.398 . S
C4162 C4163 1.391 . S
C4163 H4151 0.950 . S
C4163 C4159 1.393 . S
C4163 C4162 1.391 . S
H4164 C4172 0.950 . S
H4165 C4177 0.950 . S
H4166 C4174 0.950 . S
H4167 C4176 0.950 . S
H4168 C4178 0.950 . S
H4169 C4180 0.950 . S
H4170 C4182 0.950 . S
H4171 C4183 0.950 . S
C4172 H4164 0.950 . S
C4172 C4173 1.386 . S
C4172 C4174 1.391 . S
C4173 C4172 1.386 . S
C4173 C4177 1.393 . S
C4174 H4166 0.950 . S
C4174 C4172 1.391 . S
C4174 C4175 1.400 . S
C4175 C4174 1.400 . S
C4175 C4176 1.398 . S
C4175 C4181 1.491 . S
C4176 H4167 0.950 . S
C4176 C4175 1.398 . S
C4176 C4177 1.391 . S
C4177 H4165 0.950 . S
C4177 C4173 1.393 . S
C4177 C4176 1.391 . S
C4178 H4168 0.950 . S
C4178 C4179 1.386 . S
C4178 C4180 1.391 . S
C4179 C4178 1.386 . S
C4179 C4183 1.393 . S
C4180 H4169 0.950 . S
C4180 C4178 1.391 . S
C4180 C4181 1.400 . S
C4181 C4175 1.491 . S
C4181 C4180 1.400 . S
C4181 C4182 1.398 . S
C4182 H4170 0.950 . S
C4182 C4181 1.398 . S
C4182 C4183 1.391 . S
C4183 H4171 0.950 . S
C4183 C4179 1.393 . S
C4183 C4182 1.391 . S
H4184 C4192 0.950 . S
H4185 C4197 0.950 . S
H4186 C4194 0.950 . S
H4187 C4196 0.950 . S
H4188 C4198 0.950 . S
H4189 C4200 0.950 . S
H4190 C4202 0.950 . S
H4191 C4203 0.950 . S
C4192 H4184 0.950 . S
C4192 C4193 1.386 . S
C4192 C4194 1.391 . S
C4193 C4192 1.386 . S
C4193 C4197 1.393 . S
C4194 H4186 0.950 . S
C4194 C4192 1.391 . S
C4194 C4195 1.400 . S
C4195 C4194 1.400 . S
C4195 C4196 1.398 . S
C4195 C4201 1.491 . S
C4196 H4187 0.950 . S
C4196 C4195 1.398 . S
C4196 C4197 1.391 . S
C4197 H4185 0.950 . S
C4197 C4193 1.393 . S
C4197 C4196 1.391 . S
C4198 H4188 0.950 . S
C4198 C4199 1.386 . S
C4198 C4200 1.391 . S
C4199 C4198 1.386 . S
C4199 C4203 1.393 . S
C4200 H4189 0.950 . S
C4200 C4198 1.391 . S
C4200 C4201 1.400 . S
C4201 C4195 1.491 . S
C4201 C4200 1.400 . S
C4201 C4202 1.398 . S
C4202 H4190 0.950 . S
C4202 C4201 1.398 . S
C4202 C4203 1.391 . S
C4203 H4191 0.950 . S
C4203 C4199 1.393 . S
C4203 C4202 1.391 . S
H4204 C4212 0.950 . S
H4205 C4217 0.950 . S
H4206 C4214 0.950 . S
H4207 C4216 0.950 . S
H4208 C4218 0.950 . S
H4209 C4220 0.950 . S
H4210 C4222 0.950 . S
H4211 C4223 0.950 . S
C4212 H4204 0.950 . S
C4212 C4213 1.386 . S
C4212 C4214 1.391 . S
C4213 C4212 1.386 . S
C4213 C4217 1.393 . S
C4214 H4206 0.950 . S
C4214 C4212 1.391 . S
C4214 C4215 1.400 . S
C4215 C4214 1.400 . S
C4215 C4216 1.398 . S
C4215 C4221 1.491 . S
C4216 H4207 0.950 . S
C4216 C4215 1.398 . S
C4216 C4217 1.391 . S
C4217 H4205 0.950 . S
C4217 C4213 1.393 . S
C4217 C4216 1.391 . S
C4218 H4208 0.950 . S
C4218 C4219 1.386 . S
C4218 C4220 1.391 . S
C4219 C4218 1.386 . S
C4219 C4223 1.393 . S
C4220 H4209 0.950 . S
C4220 C4218 1.391 . S
C4220 C4221 1.400 . S
C4221 C4215 1.491 . S
C4221 C4220 1.400 . S
C4221 C4222 1.398 . S
C4222 H4210 0.950 . S
C4222 C4221 1.398 . S
C4222 C4223 1.391 . S
C4223 H4211 0.950 . S
C4223 C4219 1.393 . S
C4223 C4222 1.391 . S
H4224 C4232 0.950 . S
H4225 C4237 0.950 . S
H4226 C4234 0.950 . S
H4227 C4236 0.950 . S
H4228 C4238 0.950 . S
H4229 C4240 0.950 . S
H4230 C4242 0.950 . S
H4231 C4243 0.950 . S
C4232 H4224 0.950 . S
C4232 C4233 1.386 . S
C4232 C4234 1.391 . S
C4233 C4232 1.386 . S
C4233 C4237 1.393 . S
C4234 H4226 0.950 . S
C4234 C4232 1.391 . S
C4234 C4235 1.400 . S
C4235 C4234 1.400 . S
C4235 C4236 1.398 . S
C4235 C4241 1.491 . S
C4236 H4227 0.950 . S
C4236 C4235 1.398 . S
C4236 C4237 1.391 . S
C4237 H4225 0.950 . S
C4237 C4233 1.393 . S
C4237 C4236 1.391 . S
C4238 H4228 0.950 . S
C4238 C4239 1.386 . S
C4238 C4240 1.391 . S
C4239 C4238 1.386 . S
C4239 C4243 1.393 . S
C4240 H4229 0.950 . S
C4240 C4238 1.391 . S
C4240 C4241 1.400 . S
C4241 C4235 1.491 . S
C4241 C4240 1.400 . S
C4241 C4242 1.398 . S
C4242 H4230 0.950 . S
C4242 C4241 1.398 . S
C4242 C4243 1.391 . S
C4243 H4231 0.950 . S
C4243 C4239 1.393 . S
C4243 C4242 1.391 . S
H4244 C4252 0.950 . S
H4245 C4257 0.950 . S
H4246 C4254 0.950 . S
H4247 C4256 0.950 . S
H4248 C4258 0.950 . S
H4249 C4260 0.950 . S
H4250 C4262 0.950 . S
H4251 C4263 0.950 . S
C4252 H4244 0.950 . S
C4252 C4253 1.386 . S
C4252 C4254 1.391 . S
C4253 C4252 1.386 . S
C4253 C4257 1.393 . S
C4254 H4246 0.950 . S
C4254 C4252 1.391 . S
C4254 C4255 1.400 . S
C4255 C4254 1.400 . S
C4255 C4256 1.398 . S
C4255 C4261 1.491 . S
C4256 H4247 0.950 . S
C4256 C4255 1.398 . S
C4256 C4257 1.391 . S
C4257 H4245 0.950 . S
C4257 C4253 1.393 . S
C4257 C4256 1.391 . S
C4258 H4248 0.950 . S
C4258 C4259 1.386 . S
C4258 C4260 1.391 . S
C4259 C4258 1.386 . S
C4259 C4263 1.393 . S
C4260 H4249 0.950 . S
C4260 C4258 1.391 . S
C4260 C4261 1.400 . S
C4261 C4255 1.491 . S
C4261 C4260 1.400 . S
C4261 C4262 1.398 . S
C4262 H4250 0.950 . S
C4262 C4261 1.398 . S
C4262 C4263 1.391 . S
C4263 H4251 0.950 . S
C4263 C4259 1.393 . S
C4263 C4262 1.391 . S
H4264 C4272 0.950 . S
H4265 C4277 0.950 . S
H4266 C4274 0.950 . S
H4267 C4276 0.950 . S
H4268 C4278 0.950 . S
H4269 C4280 0.950 . S
H4270 C4282 0.950 . S
H4271 C4283 0.950 . S
C4272 H4264 0.950 . S
C4272 C4273 1.386 . S
C4272 C4274 1.391 . S
C4273 C4272 1.386 . S
C4273 C4277 1.393 . S
C4274 H4266 0.950 . S
C4274 C4272 1.391 . S
C4274 C4275 1.400 . S
C4275 C4274 1.400 . S
C4275 C4276 1.398 . S
C4275 C4281 1.491 . S
C4276 H4267 0.950 . S
C4276 C4275 1.398 . S
C4276 C4277 1.391 . S
C4277 H4265 0.950 . S
C4277 C4273 1.393 . S
C4277 C4276 1.391 . S
C4278 H4268 0.950 . S
C4278 C4279 1.386 . S
C4278 C4280 1.391 . S
C4279 C4278 1.386 . S
C4279 C4283 1.393 . S
C4280 H4269 0.950 . S
C4280 C4278 1.391 . S
C4280 C4281 1.400 . S
C4281 C4275 1.491 . S
C4281 C4280 1.400 . S
C4281 C4282 1.398 . S
C4282 H4270 0.950 . S
C4282 C4281 1.398 . S
C4282 C4283 1.391 . S
C4283 H4271 0.950 . S
C4283 C4279 1.393 . S
C4283 C4282 1.391 . S
H4284 C4292 0.950 . S
H4285 C4297 0.950 . S
H4286 C4294 0.950 . S
H4287 C4296 0.950 . S
H4288 C4298 0.950 . S
H4289 C4300 0.950 . S
H4290 C4302 0.950 . S
H4291 C4303 0.950 . S
C4292 H4284 0.950 . S
C4292 C4293 1.386 . S
C4292 C4294 1.391 . S
C4293 C4292 1.386 . S
C4293 C4297 1.393 . S
C4294 H4286 0.950 . S
C4294 C4292 1.391 . S
C4294 C4295 1.400 . S
C4295 C4294 1.400 . S
C4295 C4296 1.398 . S
C4295 C4301 1.491 . S
C4296 H4287 0.950 . S
C4296 C4295 1.398 . S
C4296 C4297 1.391 . S
C4297 H4285 0.950 . S
C4297 C4293 1.393 . S
C4297 C4296 1.391 . S
C4298 H4288 0.950 . S
C4298 C4299 1.386 . S
C4298 C4300 1.391 . S
C4299 C4298 1.386 . S
C4299 C4303 1.393 . S
C4300 H4289 0.950 . S
C4300 C4298 1.391 . S
C4300 C4301 1.400 . S
C4301 C4295 1.491 . S
C4301 C4300 1.400 . S
C4301 C4302 1.398 . S
C4302 H4290 0.950 . S
C4302 C4301 1.398 . S
C4302 C4303 1.391 . S
C4303 H4291 0.950 . S
C4303 C4299 1.393 . S
C4303 C4302 1.391 . S
H4304 C4312 0.950 . S
H4305 C4317 0.950 . S
H4306 C4314 0.950 . S
H4307 C4316 0.950 . S
H4308 C4318 0.950 . S
H4309 C4320 0.950 . S
H4310 C4322 0.950 . S
H4311 C4323 0.950 . S
C4312 H4304 0.950 . S
C4312 C4313 1.386 . S
C4312 C4314 1.391 . S
C4313 C4312 1.386 . S
C4313 C4317 1.393 . S
C4314 H4306 0.950 . S
C4314 C4312 1.391 . S
C4314 C4315 1.400 . S
C4315 C4314 1.400 . S
C4315 C4316 1.398 . S
C4315 C4321 1.491 . S
C4316 H4307 0.950 . S
C4316 C4315 1.398 . S
C4316 C4317 1.391 . S
C4317 H4305 0.950 . S
C4317 C4313 1.393 . S
C4317 C4316 1.391 . S
C4318 H4308 0.950 . S
C4318 C4319 1.386 . S
C4318 C4320 1.391 . S
C4319 C4318 1.386 . S
C4319 C4323 1.393 . S
C4320 H4309 0.950 . S
C4320 C4318 1.391 . S
C4320 C4321 1.400 . S
C4321 C4315 1.491 . S
C4321 C4320 1.400 . S
C4321 C4322 1.398 . S
C4322 H4310 0.950 . S
C4322 C4321 1.398 . S
C4322 C4323 1.391 . S
C4323 H4311 0.950 . S
C4323 C4319 1.393 . S
C4323 C4322 1.391 . S
H4324 C4332 0.950 . S
H4325 C4337 0.950 . S
H4326 C4334 0.950 . S
H4327 C4336 0.950 . S
H4328 C4338 0.950 . S
H4329 C4340 0.950 . S
H4330 C4342 0.950 . S
H4331 C4343 0.950 . S
C4332 H4324 0.950 . S
C4332 C4333 1.386 . S
C4332 C4334 1.391 . S
C4333 C4332 1.386 . S
C4333 C4337 1.393 . S
C4334 H4326 0.950 . S
C4334 C4332 1.391 . S
C4334 C4335 1.400 . S
C4335 C4334 1.400 . S
C4335 C4336 1.398 . S
C4335 C4341 1.491 . S
C4336 H4327 0.950 . S
C4336 C4335 1.398 . S
C4336 C4337 1.391 . S
C4337 H4325 0.950 . S
C4337 C4333 1.393 . S
C4337 C4336 1.391 . S
C4338 H4328 0.950 . S
C4338 C4339 1.386 . S
C4338 C4340 1.391 . S
C4339 C4338 1.386 . S
C4339 C4343 1.393 . S
C4340 H4329 0.950 . S
C4340 C4338 1.391 . S
C4340 C4341 1.400 . S
C4341 C4335 1.491 . S
C4341 C4340 1.400 . S
C4341 C4342 1.398 . S
C4342 H4330 0.950 . S
C4342 C4341 1.398 . S
C4342 C4343 1.391 . S
C4343 H4331 0.950 . S
C4343 C4339 1.393 . S
C4343 C4342 1.391 . S
H4344 C4352 0.950 . S
H4345 C4357 0.950 . S
H4346 C4354 0.950 . S
H4347 C4356 0.950 . S
H4348 C4358 0.950 . S
H4349 C4360 0.950 . S
H4350 C4362 0.950 . S
H4351 C4363 0.950 . S
C4352 H4344 0.950 . S
C4352 C4353 1.386 . S
C4352 C4354 1.391 . S
C4353 C4352 1.386 . S
C4353 C4357 1.393 . S
C4354 H4346 0.950 . S
C4354 C4352 1.391 . S
C4354 C4355 1.400 . S
C4355 C4354 1.400 . S
C4355 C4356 1.398 . S
C4355 C4361 1.491 . S
C4356 H4347 0.950 . S
C4356 C4355 1.398 . S
C4356 C4357 1.391 . S
C4357 H4345 0.950 . S
C4357 C4353 1.393 . S
C4357 C4356 1.391 . S
C4358 H4348 0.950 . S
C4358 C4359 1.386 . S
C4358 C4360 1.391 . S
C4359 C4358 1.386 . S
C4359 C4363 1.393 . S
C4360 H4349 0.950 . S
C4360 C4358 1.391 . S
C4360 C4361 1.400 . S
C4361 C4355 1.491 . S
C4361 C4360 1.400 . S
C4361 C4362 1.398 . S
C4362 H4350 0.950 . S
C4362 C4361 1.398 . S
C4362 C4363 1.391 . S
C4363 H4351 0.950 . S
C4363 C4359 1.393 . S
C4363 C4362 1.391 . S
H4364 C4372 0.950 . S
H4365 C4377 0.950 . S
H4366 C4374 0.950 . S
H4367 C4376 0.950 . S
H4368 C4378 0.950 . S
H4369 C4380 0.950 . S
H4370 C4382 0.950 . S
H4371 C4383 0.950 . S
C4372 H4364 0.950 . S
C4372 C4373 1.386 . S
C4372 C4374 1.391 . S
C4373 C4372 1.386 . S
C4373 C4377 1.393 . S
C4374 H4366 0.950 . S
C4374 C4372 1.391 . S
C4374 C4375 1.400 . S
C4375 C4374 1.400 . S
C4375 C4376 1.398 . S
C4375 C4381 1.491 . S
C4376 H4367 0.950 . S
C4376 C4375 1.398 . S
C4376 C4377 1.391 . S
C4377 H4365 0.950 . S
C4377 C4373 1.393 . S
C4377 C4376 1.391 . S
C4378 H4368 0.950 . S
C4378 C4379 1.386 . S
C4378 C4380 1.391 . S
C4379 C4378 1.386 . S
C4379 C4383 1.393 . S
C4380 H4369 0.950 . S
C4380 C4378 1.391 . S
C4380 C4381 1.400 . S
C4381 C4375 1.491 . S
C4381 C4380 1.400 . S
C4381 C4382 1.398 . S
C4382 H4370 0.950 . S
C4382 C4381 1.398 . S
C4382 C4383 1.391 . S
C4383 H4371 0.950 . S
C4383 C4379 1.393 . S
C4383 C4382 1.391 . S
H4384 C4392 0.950 . S
H4385 C4397 0.950 . S
H4386 C4394 0.950 . S
H4387 C4396 0.950 . S
H4388 C4398 0.950 . S
H4389 C4400 0.950 . S
H4390 C4402 0.950 . S
H4391 C4403 0.950 . S
C4392 H4384 0.950 . S
C4392 C4393 1.386 . S
C4392 C4394 1.391 . S
C4393 C4392 1.386 . S
C4393 C4397 1.393 . S
C4394 H4386 0.950 . S
C4394 C4392 1.391 . S
C4394 C4395 1.400 . S
C4395 C4394 1.400 . S
C4395 C4396 1.398 . S
C4395 C4401 1.491 . S
C4396 H4387 0.950 . S
C4396 C4395 1.398 . S
C4396 C4397 1.391 . S
C4397 H4385 0.950 . S
C4397 C4393 1.393 . S
C4397 C4396 1.391 . S
C4398 H4388 0.950 . S
C4398 C4399 1.386 . S
C4398 C4400 1.391 . S
C4399 C4398 1.386 . S
C4399 C4403 1.393 . S
C4400 H4389 0.950 . S
C4400 C4398 1.391 . S
C4400 C4401 1.400 . S
C4401 C4395 1.491 . S
C4401 C4400 1.400 . S
C4401 C4402 1.398 . S
C4402 H4390 0.950 . S
C4402 C4401 1.398 . S
C4402 C4403 1.391 . S
C4403 H4391 0.950 . S
C4403 C4399 1.393 . S
C4403 C4402 1.391 . S
H4404 C4412 0.950 . S
H4405 C4417 0.950 . S
H4406 C4414 0.950 . S
H4407 C4416 0.950 . S
H4408 C4418 0.950 . S
H4409 C4420 0.950 . S
H4410 C4422 0.950 . S
H4411 C4423 0.950 . S
C4412 H4404 0.950 . S
C4412 C4413 1.386 . S
C4412 C4414 1.391 . S
C4413 C4412 1.386 . S
C4413 C4417 1.393 . S
C4414 H4406 0.950 . S
C4414 C4412 1.391 . S
C4414 C4415 1.400 . S
C4415 C4414 1.400 . S
C4415 C4416 1.398 . S
C4415 C4421 1.491 . S
C4416 H4407 0.950 . S
C4416 C4415 1.398 . S
C4416 C4417 1.391 . S
C4417 H4405 0.950 . S
C4417 C4413 1.393 . S
C4417 C4416 1.391 . S
C4418 H4408 0.950 . S
C4418 C4419 1.386 . S
C4418 C4420 1.391 . S
C4419 C4418 1.386 . S
C4419 C4423 1.393 . S
C4420 H4409 0.950 . S
C4420 C4418 1.391 . S
C4420 C4421 1.400 . S
C4421 C4415 1.491 . S
C4421 C4420 1.400 . S
C4421 C4422 1.398 . S
C4422 H4410 0.950 . S
C4422 C4421 1.398 . S
C4422 C4423 1.391 . S
C4423 H4411 0.950 . S
C4423 C4419 1.393 . S
C4423 C4422 1.391 . S
H4424 C4432 0.950 . S
H4425 C4437 0.950 . S
H4426 C4434 0.950 . S
H4427 C4436 0.950 . S
H4428 C4438 0.950 . S
H4429 C4440 0.950 . S
H4430 C4442 0.950 . S
H4431 C4443 0.950 . S
C4432 H4424 0.950 . S
C4432 C4433 1.386 . S
C4432 C4434 1.391 . S
C4433 C4432 1.386 . S
C4433 C4437 1.393 . S
C4434 H4426 0.950 . S
C4434 C4432 1.391 . S
C4434 C4435 1.400 . S
C4435 C4434 1.400 . S
C4435 C4436 1.398 . S
C4435 C4441 1.491 . S
C4436 H4427 0.950 . S
C4436 C4435 1.398 . S
C4436 C4437 1.391 . S
C4437 H4425 0.950 . S
C4437 C4433 1.393 . S
C4437 C4436 1.391 . S
C4438 H4428 0.950 . S
C4438 C4439 1.386 . S
C4438 C4440 1.391 . S
C4439 C4438 1.386 . S
C4439 C4443 1.393 . S
C4440 H4429 0.950 . S
C4440 C4438 1.391 . S
C4440 C4441 1.400 . S
C4441 C4435 1.491 . S
C4441 C4440 1.400 . S
C4441 C4442 1.398 . S
C4442 H4430 0.950 . S
C4442 C4441 1.398 . S
C4442 C4443 1.391 . S
C4443 H4431 0.950 . S
C4443 C4439 1.393 . S
C4443 C4442 1.391 . S
H4444 C4452 0.950 . S
H4445 C4457 0.950 . S
H4446 C4454 0.950 . S
H4447 C4456 0.950 . S
H4448 C4458 0.950 . S
H4449 C4460 0.950 . S
H4450 C4462 0.950 . S
H4451 C4463 0.950 . S
C4452 H4444 0.950 . S
C4452 C4453 1.386 . S
C4452 C4454 1.391 . S
C4453 C4452 1.386 . S
C4453 C4457 1.393 . S
C4454 H4446 0.950 . S
C4454 C4452 1.391 . S
C4454 C4455 1.400 . S
C4455 C4454 1.400 . S
C4455 C4456 1.398 . S
C4455 C4461 1.491 . S
C4456 H4447 0.950 . S
C4456 C4455 1.398 . S
C4456 C4457 1.391 . S
C4457 H4445 0.950 . S
C4457 C4453 1.393 . S
C4457 C4456 1.391 . S
C4458 H4448 0.950 . S
C4458 C4459 1.386 . S
C4458 C4460 1.391 . S
C4459 C4458 1.386 . S
C4459 C4463 1.393 . S
C4460 H4449 0.950 . S
C4460 C4458 1.391 . S
C4460 C4461 1.400 . S
C4461 C4455 1.491 . S
C4461 C4460 1.400 . S
C4461 C4462 1.398 . S
C4462 H4450 0.950 . S
C4462 C4461 1.398 . S
C4462 C4463 1.391 . S
C4463 H4451 0.950 . S
C4463 C4459 1.393 . S
C4463 C4462 1.391 . S
H4464 C4472 0.950 . S
H4465 C4477 0.950 . S
H4466 C4474 0.950 . S
H4467 C4476 0.950 . S
H4468 C4478 0.950 . S
H4469 C4480 0.950 . S
H4470 C4482 0.950 . S
H4471 C4483 0.950 . S
C4472 H4464 0.950 . S
C4472 C4473 1.386 . S
C4472 C4474 1.391 . S
C4473 C4472 1.386 . S
C4473 C4477 1.393 . S
C4474 H4466 0.950 . S
C4474 C4472 1.391 . S
C4474 C4475 1.400 . S
C4475 C4474 1.400 . S
C4475 C4476 1.398 . S
C4475 C4481 1.491 . S
C4476 H4467 0.950 . S
C4476 C4475 1.398 . S
C4476 C4477 1.391 . S
C4477 H4465 0.950 . S
C4477 C4473 1.393 . S
C4477 C4476 1.391 . S
C4478 H4468 0.950 . S
C4478 C4479 1.386 . S
C4478 C4480 1.391 . S
C4479 C4478 1.386 . S
C4479 C4483 1.393 . S
C4480 H4469 0.950 . S
C4480 C4478 1.391 . S
C4480 C4481 1.400 . S
C4481 C4475 1.491 . S
C4481 C4480 1.400 . S
C4481 C4482 1.398 . S
C4482 H4470 0.950 . S
C4482 C4481 1.398 . S
C4482 C4483 1.391 . S
C4483 H4471 0.950 . S
C4483 C4479 1.393 . S
C4483 C4482 1.391 . S
H4484 C4492 0.950 . S
H4485 C4497 0.950 . S
H4486 C4494 0.950 . S
H4487 C4496 0.950 . S
H4488 C4498 0.950 . S
H4489 C4500 0.950 . S
H4490 C4502 0.950 . S
H4491 C4503 0.950 . S
C4492 H4484 0.950 . S
C4492 C4493 1.386 . S
C4492 C4494 1.391 . S
C4493 C4492 1.386 . S
C4493 C4497 1.393 . S
C4494 H4486 0.950 . S
C4494 C4492 1.391 . S
C4494 C4495 1.400 . S
C4495 C4494 1.400 . S
C4495 C4496 1.398 . S
C4495 C4501 1.491 . S
C4496 H4487 0.950 . S
C4496 C4495 1.398 . S
C4496 C4497 1.391 . S
C4497 H4485 0.950 . S
C4497 C4493 1.393 . S
C4497 C4496 1.391 . S
C4498 H4488 0.950 . S
C4498 C4499 1.386 . S
C4498 C4500 1.391 . S
C4499 C4498 1.386 . S
C4499 C4503 1.393 . S
C4500 H4489 0.950 . S
C4500 C4498 1.391 . S
C4500 C4501 1.400 . S
C4501 C4495 1.491 . S
C4501 C4500 1.400 . S
C4501 C4502 1.398 . S
C4502 H4490 0.950 . S
C4502 C4501 1.398 . S
C4502 C4503 1.391 . S
C4503 H4491 0.950 . S
C4503 C4499 1.393 . S
C4503 C4502 1.391 . S
H4504 C4512 0.950 . S
H4505 C4517 0.950 . S
H4506 C4514 0.950 . S
H4507 C4516 0.950 . S
H4508 C4518 0.950 . S
H4509 C4520 0.950 . S
H4510 C4522 0.950 . S
H4511 C4523 0.950 . S
C4512 H4504 0.950 . S
C4512 C4513 1.386 . S
C4512 C4514 1.391 . S
C4513 C4512 1.386 . S
C4513 C4517 1.393 . S
C4514 H4506 0.950 . S
C4514 C4512 1.391 . S
C4514 C4515 1.400 . S
C4515 C4514 1.400 . S
C4515 C4516 1.398 . S
C4515 C4521 1.491 . S
C4516 H4507 0.950 . S
C4516 C4515 1.398 . S
C4516 C4517 1.391 . S
C4517 H4505 0.950 . S
C4517 C4513 1.393 . S
C4517 C4516 1.391 . S
C4518 H4508 0.950 . S
C4518 C4519 1.386 . S
C4518 C4520 1.391 . S
C4519 C4518 1.386 . S
C4519 C4523 1.393 . S
C4520 H4509 0.950 . S
C4520 C4518 1.391 . S
C4520 C4521 1.400 . S
C4521 C4515 1.491 . S
C4521 C4520 1.400 . S
C4521 C4522 1.398 . S
C4522 H4510 0.950 . S
C4522 C4521 1.398 . S
C4522 C4523 1.391 . S
C4523 H4511 0.950 . S
C4523 C4519 1.393 . S
C4523 C4522 1.391 . S
H4524 C4532 0.950 . S
H4525 C4537 0.950 . S
H4526 C4534 0.950 . S
H4527 C4536 0.950 . S
H4528 C4538 0.950 . S
H4529 C4540 0.950 . S
H4530 C4542 0.950 . S
H4531 C4543 0.950 . S
C4532 H4524 0.950 . S
C4532 C4533 1.386 . S
C4532 C4534 1.391 . S
C4533 C4532 1.386 . S
C4533 C4537 1.393 . S
C4534 H4526 0.950 . S
C4534 C4532 1.391 . S
C4534 C4535 1.400 . S
C4535 C4534 1.400 . S
C4535 C4536 1.398 . S
C4535 C4541 1.491 . S
C4536 H4527 0.950 . S
C4536 C4535 1.398 . S
C4536 C4537 1.391 . S
C4537 H4525 0.950 . S
C4537 C4533 1.393 . S
C4537 C4536 1.391 . S
C4538 H4528 0.950 . S
C4538 C4539 1.386 . S
C4538 C4540 1.391 . S
C4539 C4538 1.386 . S
C4539 C4543 1.393 . S
C4540 H4529 0.950 . S
C4540 C4538 1.391 . S
C4540 C4541 1.400 . S
C4541 C4535 1.491 . S
C4541 C4540 1.400 . S
C4541 C4542 1.398 . S
C4542 H4530 0.950 . S
C4542 C4541 1.398 . S
C4542 C4543 1.391 . S
C4543 H4531 0.950 . S
C4543 C4539 1.393 . S
C4543 C4542 1.391 . S
H4544 C4552 0.950 . S
H4545 C4557 0.950 . S
H4546 C4554 0.950 . S
H4547 C4556 0.950 . S
H4548 C4558 0.950 . S
H4549 C4560 0.950 . S
H4550 C4562 0.950 . S
H4551 C4563 0.950 . S
C4552 H4544 0.950 . S
C4552 C4553 1.386 . S
C4552 C4554 1.391 . S
C4553 C4552 1.386 . S
C4553 C4557 1.393 . S
C4554 H4546 0.950 . S
C4554 C4552 1.391 . S
C4554 C4555 1.400 . S
C4555 C4554 1.400 . S
C4555 C4556 1.398 . S
C4555 C4561 1.491 . S
C4556 H4547 0.950 . S
C4556 C4555 1.398 . S
C4556 C4557 1.391 . S
C4557 H4545 0.950 . S
C4557 C4553 1.393 . S
C4557 C4556 1.391 . S
C4558 H4548 0.950 . S
C4558 C4559 1.386 . S
C4558 C4560 1.391 . S
C4559 C4558 1.386 . S
C4559 C4563 1.393 . S
C4560 H4549 0.950 . S
C4560 C4558 1.391 . S
C4560 C4561 1.400 . S
C4561 C4555 1.491 . S
C4561 C4560 1.400 . S
C4561 C4562 1.398 . S
C4562 H4550 0.950 . S
C4562 C4561 1.398 . S
C4562 C4563 1.391 . S
C4563 H4551 0.950 . S
C4563 C4559 1.393 . S
C4563 C4562 1.391 . S
H4564 C4572 0.950 . S
H4565 C4577 0.950 . S
H4566 C4574 0.950 . S
H4567 C4576 0.950 . S
H4568 C4578 0.950 . S
H4569 C4580 0.950 . S
H4570 C4582 0.950 . S
H4571 C4583 0.950 . S
C4572 H4564 0.950 . S
C4572 C4573 1.386 . S
C4572 C4574 1.391 . S
C4573 C4572 1.386 . S
C4573 C4577 1.393 . S
C4574 H4566 0.950 . S
C4574 C4572 1.391 . S
C4574 C4575 1.400 . S
C4575 C4574 1.400 . S
C4575 C4576 1.398 . S
C4575 C4581 1.491 . S
C4576 H4567 0.950 . S
C4576 C4575 1.398 . S
C4576 C4577 1.391 . S
C4577 H4565 0.950 . S
C4577 C4573 1.393 . S
C4577 C4576 1.391 . S
C4578 H4568 0.950 . S
C4578 C4579 1.386 . S
C4578 C4580 1.391 . S
C4579 C4578 1.386 . S
C4579 C4583 1.393 . S
C4580 H4569 0.950 . S
C4580 C4578 1.391 . S
C4580 C4581 1.400 . S
C4581 C4575 1.491 . S
C4581 C4580 1.400 . S
C4581 C4582 1.398 . S
C4582 H4570 0.950 . S
C4582 C4581 1.398 . S
C4582 C4583 1.391 . S
C4583 H4571 0.950 . S
C4583 C4579 1.393 . S
C4583 C4582 1.391 . S
H4584 C4592 0.950 . S
H4585 C4597 0.950 . S
H4586 C4594 0.950 . S
H4587 C4596 0.950 . S
H4588 C4598 0.950 . S
H4589 C4600 0.950 . S
H4590 C4602 0.950 . S
H4591 C4603 0.950 . S
C4592 H4584 0.950 . S
C4592 C4593 1.386 . S
C4592 C4594 1.391 . S
C4593 C4592 1.386 . S
C4593 C4597 1.393 . S
C4594 H4586 0.950 . S
C4594 C4592 1.391 . S
C4594 C4595 1.400 . S
C4595 C4594 1.400 . S
C4595 C4596 1.398 . S
C4595 C4601 1.491 . S
C4596 H4587 0.950 . S
C4596 C4595 1.398 . S
C4596 C4597 1.391 . S
C4597 H4585 0.950 . S
C4597 C4593 1.393 . S
C4597 C4596 1.391 . S
C4598 H4588 0.950 . S
C4598 C4599 1.386 . S
C4598 C4600 1.391 . S
C4599 C4598 1.386 . S
C4599 C4603 1.393 . S
C4600 H4589 0.950 . S
C4600 C4598 1.391 . S
C4600 C4601 1.400 . S
C4601 C4595 1.491 . S
C4601 C4600 1.400 . S
C4601 C4602 1.398 . S
C4602 H4590 0.950 . S
C4602 C4601 1.398 . S
C4602 C4603 1.391 . S
C4603 H4591 0.950 . S
C4603 C4599 1.393 . S
C4603 C4602 1.391 . S
H4604 C4612 0.950 . S
H4605 C4617 0.950 . S
H4606 C4614 0.950 . S
H4607 C4616 0.950 . S
H4608 C4618 0.950 . S
H4609 C4620 0.950 . S
H4610 C4622 0.950 . S
H4611 C4623 0.950 . S
C4612 H4604 0.950 . S
C4612 C4613 1.386 . S
C4612 C4614 1.391 . S
C4613 C4612 1.386 . S
C4613 C4617 1.393 . S
C4614 H4606 0.950 . S
C4614 C4612 1.391 . S
C4614 C4615 1.400 . S
C4615 C4614 1.400 . S
C4615 C4616 1.398 . S
C4615 C4621 1.491 . S
C4616 H4607 0.950 . S
C4616 C4615 1.398 . S
C4616 C4617 1.391 . S
C4617 H4605 0.950 . S
C4617 C4613 1.393 . S
C4617 C4616 1.391 . S
C4618 H4608 0.950 . S
C4618 C4619 1.386 . S
C4618 C4620 1.391 . S
C4619 C4618 1.386 . S
C4619 C4623 1.393 . S
C4620 H4609 0.950 . S
C4620 C4618 1.391 . S
C4620 C4621 1.400 . S
C4621 C4615 1.491 . S
C4621 C4620 1.400 . S
C4621 C4622 1.398 . S
C4622 H4610 0.950 . S
C4622 C4621 1.398 . S
C4622 C4623 1.391 . S
C4623 H4611 0.950 . S
C4623 C4619 1.393 . S
C4623 C4622 1.391 . S
H4624 C4632 0.950 . S
H4625 C4637 0.950 . S
H4626 C4634 0.950 . S
H4627 C4636 0.950 . S
H4628 C4638 0.950 . S
H4629 C4640 0.950 . S
H4630 C4642 0.950 . S
H4631 C4643 0.950 . S
C4632 H4624 0.950 . S
C4632 C4633 1.386 . S
C4632 C4634 1.391 . S
C4633 C4632 1.386 . S
C4633 C4637 1.393 . S
C4634 H4626 0.950 . S
C4634 C4632 1.391 . S
C4634 C4635 1.400 . S
C4635 C4634 1.400 . S
C4635 C4636 1.398 . S
C4635 C4641 1.491 . S
C4636 H4627 0.950 . S
C4636 C4635 1.398 . S
C4636 C4637 1.391 . S
C4637 H4625 0.950 . S
C4637 C4633 1.393 . S
C4637 C4636 1.391 . S
C4638 H4628 0.950 . S
C4638 C4639 1.386 . S
C4638 C4640 1.391 . S
C4639 C4638 1.386 . S
C4639 C4643 1.393 . S
C4640 H4629 0.950 . S
C4640 C4638 1.391 . S
C4640 C4641 1.400 . S
C4641 C4635 1.491 . S
C4641 C4640 1.400 . S
C4641 C4642 1.398 . S
C4642 H4630 0.950 . S
C4642 C4641 1.398 . S
C4642 C4643 1.391 . S
C4643 H4631 0.950 . S
C4643 C4639 1.393 . S
C4643 C4642 1.391 . S
H4644 C4652 0.950 . S
H4645 C4657 0.950 . S
H4646 C4654 0.950 . S
H4647 C4656 0.950 . S
H4648 C4658 0.950 . S
H4649 C4660 0.950 . S
H4650 C4662 0.950 . S
H4651 C4663 0.950 . S
C4652 H4644 0.950 . S
C4652 C4653 1.386 . S
C4652 C4654 1.391 . S
C4653 C4652 1.386 . S
C4653 C4657 1.393 . S
C4654 H4646 0.950 . S
C4654 C4652 1.391 . S
C4654 C4655 1.400 . S
C4655 C4654 1.400 . S
C4655 C4656 1.398 . S
C4655 C4661 1.491 . S
C4656 H4647 0.950 . S
C4656 C4655 1.398 . S
C4656 C4657 1.391 . S
C4657 H4645 0.950 . S
C4657 C4653 1.393 . S
C4657 C4656 1.391 . S
C4658 H4648 0.950 . S
C4658 C4659 1.386 . S
C4658 C4660 1.391 . S
C4659 C4658 1.386 . S
C4659 C4663 1.393 . S
C4660 H4649 0.950 . S
C4660 C4658 1.391 . S
C4660 C4661 1.400 . S
C4661 C4655 1.491 . S
C4661 C4660 1.400 . S
C4661 C4662 1.398 . S
C4662 H4650 0.950 . S
C4662 C4661 1.398 . S
C4662 C4663 1.391 . S
C4663 H4651 0.950 . S
C4663 C4659 1.393 . S
C4663 C4662 1.391 . S
H4664 C4672 0.950 . S
H4665 C4677 0.950 . S
H4666 C4674 0.950 . S
H4667 C4676 0.950 . S
H4668 C4678 0.950 . S
H4669 C4680 0.950 . S
H4670 C4682 0.950 . S
H4671 C4683 0.950 . S
C4672 H4664 0.950 . S
C4672 C4673 1.386 . S
C4672 C4674 1.391 . S
C4673 C4672 1.386 . S
C4673 C4677 1.393 . S
C4674 H4666 0.950 . S
C4674 C4672 1.391 . S
C4674 C4675 1.400 . S
C4675 C4674 1.400 . S
C4675 C4676 1.398 . S
C4675 C4681 1.491 . S
C4676 H4667 0.950 . S
C4676 C4675 1.398 . S
C4676 C4677 1.391 . S
C4677 H4665 0.950 . S
C4677 C4673 1.393 . S
C4677 C4676 1.391 . S
C4678 H4668 0.950 . S
C4678 C4679 1.386 . S
C4678 C4680 1.391 . S
C4679 C4678 1.386 . S
C4679 C4683 1.393 . S
C4680 H4669 0.950 . S
C4680 C4678 1.391 . S
C4680 C4681 1.400 . S
C4681 C4675 1.491 . S
C4681 C4680 1.400 . S
C4681 C4682 1.398 . S
C4682 H4670 0.950 . S
C4682 C4681 1.398 . S
C4682 C4683 1.391 . S
C4683 H4671 0.950 . S
C4683 C4679 1.393 . S
C4683 C4682 1.391 . S
H4684 C4692 0.950 . S
H4685 C4697 0.950 . S
H4686 C4694 0.950 . S
H4687 C4696 0.950 . S
H4688 C4698 0.950 . S
H4689 C4700 0.950 . S
H4690 C4702 0.950 . S
H4691 C4703 0.950 . S
C4692 H4684 0.950 . S
C4692 C4693 1.386 . S
C4692 C4694 1.391 . S
C4693 C4692 1.386 . S
C4693 C4697 1.393 . S
C4694 H4686 0.950 . S
C4694 C4692 1.391 . S
C4694 C4695 1.400 . S
C4695 C4694 1.400 . S
C4695 C4696 1.398 . S
C4695 C4701 1.491 . S
C4696 H4687 0.950 . S
C4696 C4695 1.398 . S
C4696 C4697 1.391 . S
C4697 H4685 0.950 . S
C4697 C4693 1.393 . S
C4697 C4696 1.391 . S
C4698 H4688 0.950 . S
C4698 C4699 1.386 . S
C4698 C4700 1.391 . S
C4699 C4698 1.386 . S
C4699 C4703 1.393 . S
C4700 H4689 0.950 . S
C4700 C4698 1.391 . S
C4700 C4701 1.400 . S
C4701 C4695 1.491 . S
C4701 C4700 1.400 . S
C4701 C4702 1.398 . S
C4702 H4690 0.950 . S
C4702 C4701 1.398 . S
C4702 C4703 1.391 . S
C4703 H4691 0.950 . S
C4703 C4699 1.393 . S
C4703 C4702 1.391 . S
H4704 C4712 0.950 . S
H4705 C4717 0.950 . S
H4706 C4714 0.950 . S
H4707 C4716 0.950 . S
H4708 C4718 0.950 . S
H4709 C4720 0.950 . S
H4710 C4722 0.950 . S
H4711 C4723 0.950 . S
C4712 H4704 0.950 . S
C4712 C4713 1.386 . S
C4712 C4714 1.391 . S
C4713 C4712 1.386 . S
C4713 C4717 1.393 . S
C4714 H4706 0.950 . S
C4714 C4712 1.391 . S
C4714 C4715 1.400 . S
C4715 C4714 1.400 . S
C4715 C4716 1.398 . S
C4715 C4721 1.491 . S
C4716 H4707 0.950 . S
C4716 C4715 1.398 . S
C4716 C4717 1.391 . S
C4717 H4705 0.950 . S
C4717 C4713 1.393 . S
C4717 C4716 1.391 . S
C4718 H4708 0.950 . S
C4718 C4719 1.386 . S
C4718 C4720 1.391 . S
C4719 C4718 1.386 . S
C4719 C4723 1.393 . S
C4720 H4709 0.950 . S
C4720 C4718 1.391 . S
C4720 C4721 1.400 . S
C4721 C4715 1.491 . S
C4721 C4720 1.400 . S
C4721 C4722 1.398 . S
C4722 H4710 0.950 . S
C4722 C4721 1.398 . S
C4722 C4723 1.391 . S
C4723 H4711 0.950 . S
C4723 C4719 1.393 . S
C4723 C4722 1.391 . S
H4724 C4732 0.950 . S
H4725 C4737 0.950 . S
H4726 C4734 0.950 . S
H4727 C4736 0.950 . S
H4728 C4738 0.950 . S
H4729 C4740 0.950 . S
H4730 C4742 0.950 . S
H4731 C4743 0.950 . S
C4732 H4724 0.950 . S
C4732 C4733 1.386 . S
C4732 C4734 1.391 . S
C4733 C4732 1.386 . S
C4733 C4737 1.393 . S
C4734 H4726 0.950 . S
C4734 C4732 1.391 . S
C4734 C4735 1.400 . S
C4735 C4734 1.400 . S
C4735 C4736 1.398 . S
C4735 C4741 1.491 . S
C4736 H4727 0.950 . S
C4736 C4735 1.398 . S
C4736 C4737 1.391 . S
C4737 H4725 0.950 . S
C4737 C4733 1.393 . S
C4737 C4736 1.391 . S
C4738 H4728 0.950 . S
C4738 C4739 1.386 . S
C4738 C4740 1.391 . S
C4739 C4738 1.386 . S
C4739 C4743 1.393 . S
C4740 H4729 0.950 . S
C4740 C4738 1.391 . S
C4740 C4741 1.400 . S
C4741 C4735 1.491 . S
C4741 C4740 1.400 . S
C4741 C4742 1.398 . S
C4742 H4730 0.950 . S
C4742 C4741 1.398 . S
C4742 C4743 1.391 . S
C4743 H4731 0.950 . S
C4743 C4739 1.393 . S
C4743 C4742 1.391 . S
H4744 C4752 0.950 . S
H4745 C4757 0.950 . S
H4746 C4754 0.950 . S
H4747 C4756 0.950 . S
H4748 C4758 0.950 . S
H4749 C4760 0.950 . S
H4750 C4762 0.950 . S
H4751 C4763 0.950 . S
C4752 H4744 0.950 . S
C4752 C4753 1.386 . S
C4752 C4754 1.391 . S
C4753 C4752 1.386 . S
C4753 C4757 1.393 . S
C4754 H4746 0.950 . S
C4754 C4752 1.391 . S
C4754 C4755 1.400 . S
C4755 C4754 1.400 . S
C4755 C4756 1.398 . S
C4755 C4761 1.491 . S
C4756 H4747 0.950 . S
C4756 C4755 1.398 . S
C4756 C4757 1.391 . S
C4757 H4745 0.950 . S
C4757 C4753 1.393 . S
C4757 C4756 1.391 . S
C4758 H4748 0.950 . S
C4758 C4759 1.386 . S
C4758 C4760 1.391 . S
C4759 C4758 1.386 . S
C4759 C4763 1.393 . S
C4760 H4749 0.950 . S
C4760 C4758 1.391 . S
C4760 C4761 1.400 . S
C4761 C4755 1.491 . S
C4761 C4760 1.400 . S
C4761 C4762 1.398 . S
C4762 H4750 0.950 . S
C4762 C4761 1.398 . S
C4762 C4763 1.391 . S
C4763 H4751 0.950 . S
C4763 C4759 1.393 . S
C4763 C4762 1.391 . S
H4764 C4772 0.950 . S
H4765 C4777 0.950 . S
H4766 C4774 0.950 . S
H4767 C4776 0.950 . S
H4768 C4778 0.950 . S
H4769 C4780 0.950 . S
H4770 C4782 0.950 . S
H4771 C4783 0.950 . S
C4772 H4764 0.950 . S
C4772 C4773 1.386 . S
C4772 C4774 1.391 . S
C4773 C4772 1.386 . S
C4773 C4777 1.393 . S
C4774 H4766 0.950 . S
C4774 C4772 1.391 . S
C4774 C4775 1.400 . S
C4775 C4774 1.400 . S
C4775 C4776 1.398 . S
C4775 C4781 1.491 . S
C4776 H4767 0.950 . S
C4776 C4775 1.398 . S
C4776 C4777 1.391 . S
C4777 H4765 0.950 . S
C4777 C4773 1.393 . S
C4777 C4776 1.391 . S
C4778 H4768 0.950 . S
C4778 C4779 1.386 . S
C4778 C4780 1.391 . S
C4779 C4778 1.386 . S
C4779 C4783 1.393 . S
C4780 H4769 0.950 . S
C4780 C4778 1.391 . S
C4780 C4781 1.400 . S
C4781 C4775 1.491 . S
C4781 C4780 1.400 . S
C4781 C4782 1.398 . S
C4782 H4770 0.950 . S
C4782 C4781 1.398 . S
C4782 C4783 1.391 . S
C4783 H4771 0.950 . S
C4783 C4779 1.393 . S
C4783 C4782 1.391 . S
H4784 C4792 0.950 . S
H4785 C4797 0.950 . S
H4786 C4794 0.950 . S
H4787 C4796 0.950 . S
H4788 C4798 0.950 . S
H4789 C4800 0.950 . S
H4790 C4802 0.950 . S
H4791 C4803 0.950 . S
C4792 H4784 0.950 . S
C4792 C4793 1.386 . S
C4792 C4794 1.391 . S
C4793 C4792 1.386 . S
C4793 C4797 1.393 . S
C4794 H4786 0.950 . S
C4794 C4792 1.391 . S
C4794 C4795 1.400 . S
C4795 C4794 1.400 . S
C4795 C4796 1.398 . S
C4795 C4801 1.491 . S
C4796 H4787 0.950 . S
C4796 C4795 1.398 . S
C4796 C4797 1.391 . S
C4797 H4785 0.950 . S
C4797 C4793 1.393 . S
C4797 C4796 1.391 . S
C4798 H4788 0.950 . S
C4798 C4799 1.386 . S
C4798 C4800 1.391 . S
C4799 C4798 1.386 . S
C4799 C4803 1.393 . S
C4800 H4789 0.950 . S
C4800 C4798 1.391 . S
C4800 C4801 1.400 . S
C4801 C4795 1.491 . S
C4801 C4800 1.400 . S
C4801 C4802 1.398 . S
C4802 H4790 0.950 . S
C4802 C4801 1.398 . S
C4802 C4803 1.391 . S
C4803 H4791 0.950 . S
C4803 C4799 1.393 . S
C4803 C4802 1.391 . S
H4804 C4812 0.950 . S
H4805 C4817 0.950 . S
H4806 C4814 0.950 . S
H4807 C4816 0.950 . S
H4808 C4818 0.950 . S
H4809 C4820 0.950 . S
H4810 C4822 0.950 . S
H4811 C4823 0.950 . S
C4812 H4804 0.950 . S
C4812 C4813 1.386 . S
C4812 C4814 1.391 . S
C4813 C4812 1.386 . S
C4813 C4817 1.393 . S
C4814 H4806 0.950 . S
C4814 C4812 1.391 . S
C4814 C4815 1.400 . S
C4815 C4814 1.400 . S
C4815 C4816 1.398 . S
C4815 C4821 1.491 . S
C4816 H4807 0.950 . S
C4816 C4815 1.398 . S
C4816 C4817 1.391 . S
C4817 H4805 0.950 . S
C4817 C4813 1.393 . S
C4817 C4816 1.391 . S
C4818 H4808 0.950 . S
C4818 C4819 1.386 . S
C4818 C4820 1.391 . S
C4819 C4818 1.386 . S
C4819 C4823 1.393 . S
C4820 H4809 0.950 . S
C4820 C4818 1.391 . S
C4820 C4821 1.400 . S
C4821 C4815 1.491 . S
C4821 C4820 1.400 . S
C4821 C4822 1.398 . S
C4822 H4810 0.950 . S
C4822 C4821 1.398 . S
C4822 C4823 1.391 . S
C4823 H4811 0.950 . S
C4823 C4819 1.393 . S
C4823 C4822 1.391 . S
H4824 C4832 0.950 . S
H4825 C4837 0.950 . S
H4826 C4834 0.950 . S
H4827 C4836 0.950 . S
H4828 C4838 0.950 . S
H4829 C4840 0.950 . S
H4830 C4842 0.950 . S
H4831 C4843 0.950 . S
C4832 H4824 0.950 . S
C4832 C4833 1.386 . S
C4832 C4834 1.391 . S
C4833 C4832 1.386 . S
C4833 C4837 1.393 . S
C4834 H4826 0.950 . S
C4834 C4832 1.391 . S
C4834 C4835 1.400 . S
C4835 C4834 1.400 . S
C4835 C4836 1.398 . S
C4835 C4841 1.491 . S
C4836 H4827 0.950 . S
C4836 C4835 1.398 . S
C4836 C4837 1.391 . S
C4837 H4825 0.950 . S
C4837 C4833 1.393 . S
C4837 C4836 1.391 . S
C4838 H4828 0.950 . S
C4838 C4839 1.386 . S
C4838 C4840 1.391 . S
C4839 C4838 1.386 . S
C4839 C4843 1.393 . S
C4840 H4829 0.950 . S
C4840 C4838 1.391 . S
C4840 C4841 1.400 . S
C4841 C4835 1.491 . S
C4841 C4840 1.400 . S
C4841 C4842 1.398 . S
C4842 H4830 0.950 . S
C4842 C4841 1.398 . S
C4842 C4843 1.391 . S
C4843 H4831 0.950 . S
C4843 C4839 1.393 . S
C4843 C4842 1.391 . S
H4844 C4852 0.950 . S
H4845 C4857 0.950 . S
H4846 C4854 0.950 . S
H4847 C4856 0.950 . S
H4848 C4858 0.950 . S
H4849 C4860 0.950 . S
H4850 C4862 0.950 . S
H4851 C4863 0.950 . S
C4852 H4844 0.950 . S
C4852 C4853 1.386 . S
C4852 C4854 1.391 . S
C4853 C4852 1.386 . S
C4853 C4857 1.393 . S
C4854 H4846 0.950 . S
C4854 C4852 1.391 . S
C4854 C4855 1.400 . S
C4855 C4854 1.400 . S
C4855 C4856 1.398 . S
C4855 C4861 1.491 . S
C4856 H4847 0.950 . S
C4856 C4855 1.398 . S
C4856 C4857 1.391 . S
C4857 H4845 0.950 . S
C4857 C4853 1.393 . S
C4857 C4856 1.391 . S
C4858 H4848 0.950 . S
C4858 C4859 1.386 . S
C4858 C4860 1.391 . S
C4859 C4858 1.386 . S
C4859 C4863 1.393 . S
C4860 H4849 0.950 . S
C4860 C4858 1.391 . S
C4860 C4861 1.400 . S
C4861 C4855 1.491 . S
C4861 C4860 1.400 . S
C4861 C4862 1.398 . S
C4862 H4850 0.950 . S
C4862 C4861 1.398 . S
C4862 C4863 1.391 . S
C4863 H4851 0.950 . S
C4863 C4859 1.393 . S
C4863 C4862 1.391 . S
H4864 C4872 0.950 . S
H4865 C4877 0.950 . S
H4866 C4874 0.950 . S
H4867 C4876 0.950 . S
H4868 C4878 0.950 . S
H4869 C4880 0.950 . S
H4870 C4882 0.950 . S
H4871 C4883 0.950 . S
C4872 H4864 0.950 . S
C4872 C4873 1.386 . S
C4872 C4874 1.391 . S
C4873 C4872 1.386 . S
C4873 C4877 1.393 . S
C4874 H4866 0.950 . S
C4874 C4872 1.391 . S
C4874 C4875 1.400 . S
C4875 C4874 1.400 . S
C4875 C4876 1.398 . S
C4875 C4881 1.491 . S
C4876 H4867 0.950 . S
C4876 C4875 1.398 . S
C4876 C4877 1.391 . S
C4877 H4865 0.950 . S
C4877 C4873 1.393 . S
C4877 C4876 1.391 . S
C4878 H4868 0.950 . S
C4878 C4879 1.386 . S
C4878 C4880 1.391 . S
C4879 C4878 1.386 . S
C4879 C4883 1.393 . S
C4880 H4869 0.950 . S
C4880 C4878 1.391 . S
C4880 C4881 1.400 . S
C4881 C4875 1.491 . S
C4881 C4880 1.400 . S
C4881 C4882 1.398 . S
C4882 H4870 0.950 . S
C4882 C4881 1.398 . S
C4882 C4883 1.391 . S
C4883 H4871 0.950 . S
C4883 C4879 1.393 . S
C4883 C4882 1.391 . S
H4884 C4892 0.950 . S
H4885 C4897 0.950 . S
H4886 C4894 0.950 . S
H4887 C4896 0.950 . S
H4888 C4898 0.950 . S
H4889 C4900 0.950 . S
H4890 C4902 0.950 . S
H4891 C4903 0.950 . S
C4892 H4884 0.950 . S
C4892 C4893 1.386 . S
C4892 C4894 1.391 . S
C4893 C4892 1.386 . S
C4893 C4897 1.393 . S
C4894 H4886 0.950 . S
C4894 C4892 1.391 . S
C4894 C4895 1.400 . S
C4895 C4894 1.400 . S
C4895 C4896 1.398 . S
C4895 C4901 1.491 . S
C4896 H4887 0.950 . S
C4896 C4895 1.398 . S
C4896 C4897 1.391 . S
C4897 H4885 0.950 . S
C4897 C4893 1.393 . S
C4897 C4896 1.391 . S
C4898 H4888 0.950 . S
C4898 C4899 1.386 . S
C4898 C4900 1.391 . S
C4899 C4898 1.386 . S
C4899 C4903 1.393 . S
C4900 H4889 0.950 . S
C4900 C4898 1.391 . S
C4900 C4901 1.400 . S
C4901 C4895 1.491 . S
C4901 C4900 1.400 . S
C4901 C4902 1.398 . S
C4902 H4890 0.950 . S
C4902 C4901 1.398 . S
C4902 C4903 1.391 . S
C4903 H4891 0.950 . S
C4903 C4899 1.393 . S
C4903 C4902 1.391 . S
H4904 C4912 0.950 . S
H4905 C4917 0.950 . S
H4906 C4914 0.950 . S
H4907 C4916 0.950 . S
H4908 C4918 0.950 . S
H4909 C4920 0.950 . S
H4910 C4922 0.950 . S
H4911 C4923 0.950 . S
C4912 H4904 0.950 . S
C4912 C4913 1.386 . S
C4912 C4914 1.391 . S
C4913 C4912 1.386 . S
C4913 C4917 1.393 . S
C4914 H4906 0.950 . S
C4914 C4912 1.391 . S
C4914 C4915 1.400 . S
C4915 C4914 1.400 . S
C4915 C4916 1.398 . S
C4915 C4921 1.491 . S
C4916 H4907 0.950 . S
C4916 C4915 1.398 . S
C4916 C4917 1.391 . S
C4917 H4905 0.950 . S
C4917 C4913 1.393 . S
C4917 C4916 1.391 . S
C4918 H4908 0.950 . S
C4918 C4919 1.386 . S
C4918 C4920 1.391 . S
C4919 C4918 1.386 . S
C4919 C4923 1.393 . S
C4920 H4909 0.950 . S
C4920 C4918 1.391 . S
C4920 C4921 1.400 . S
C4921 C4915 1.491 . S
C4921 C4920 1.400 . S
C4921 C4922 1.398 . S
C4922 H4910 0.950 . S
C4922 C4921 1.398 . S
C4922 C4923 1.391 . S
C4923 H4911 0.950 . S
C4923 C4919 1.393 . S
C4923 C4922 1.391 . S
H4924 C4932 0.950 . S
H4925 C4937 0.950 . S
H4926 C4934 0.950 . S
H4927 C4936 0.950 . S
H4928 C4938 0.950 . S
H4929 C4940 0.950 . S
H4930 C4942 0.950 . S
H4931 C4943 0.950 . S
C4932 H4924 0.950 . S
C4932 C4933 1.386 . S
C4932 C4934 1.391 . S
C4933 C4932 1.386 . S
C4933 C4937 1.393 . S
C4934 H4926 0.950 . S
C4934 C4932 1.391 . S
C4934 C4935 1.400 . S
C4935 C4934 1.400 . S
C4935 C4936 1.398 . S
C4935 C4941 1.491 . S
C4936 H4927 0.950 . S
C4936 C4935 1.398 . S
C4936 C4937 1.391 . S
C4937 H4925 0.950 . S
C4937 C4933 1.393 . S
C4937 C4936 1.391 . S
C4938 H4928 0.950 . S
C4938 C4939 1.386 . S
C4938 C4940 1.391 . S
C4939 C4938 1.386 . S
C4939 C4943 1.393 . S
C4940 H4929 0.950 . S
C4940 C4938 1.391 . S
C4940 C4941 1.400 . S
C4941 C4935 1.491 . S
C4941 C4940 1.400 . S
C4941 C4942 1.398 . S
C4942 H4930 0.950 . S
C4942 C4941 1.398 . S
C4942 C4943 1.391 . S
C4943 H4931 0.950 . S
C4943 C4939 1.393 . S
C4943 C4942 1.391 . S
H4944 C4952 0.950 . S
H4945 C4957 0.950 . S
H4946 C4954 0.950 . S
H4947 C4956 0.950 . S
H4948 C4958 0.950 . S
H4949 C4960 0.950 . S
H4950 C4962 0.950 . S
H4951 C4963 0.950 . S
C4952 H4944 0.950 . S
C4952 C4953 1.386 . S
C4952 C4954 1.391 . S
C4953 C4952 1.386 . S
C4953 C4957 1.393 . S
C4954 H4946 0.950 . S
C4954 C4952 1.391 . S
C4954 C4955 1.400 . S
C4955 C4954 1.400 . S
C4955 C4956 1.398 . S
C4955 C4961 1.491 . S
C4956 H4947 0.950 . S
C4956 C4955 1.398 . S
C4956 C4957 1.391 . S
C4957 H4945 0.950 . S
C4957 C4953 1.393 . S
C4957 C4956 1.391 . S
C4958 H4948 0.950 . S
C4958 C4959 1.386 . S
C4958 C4960 1.391 . S
C4959 C4958 1.386 . S
C4959 C4963 1.393 . S
C4960 H4949 0.950 . S
C4960 C4958 1.391 . S
C4960 C4961 1.400 . S
C4961 C4955 1.491 . S
C4961 C4960 1.400 . S
C4961 C4962 1.398 . S
C4962 H4950 0.950 . S
C4962 C4961 1.398 . S
C4962 C4963 1.391 . S
C4963 H4951 0.950 . S
C4963 C4959 1.393 . S
C4963 C4962 1.391 . S
H4964 C4972 0.950 . S
H4965 C4977 0.950 . S
H4966 C4974 0.950 . S
H4967 C4976 0.950 . S
H4968 C4978 0.950 . S
H4969 C4980 0.950 . S
H4970 C4982 0.950 . S
H4971 C4983 0.950 . S
C4972 H4964 0.950 . S
C4972 C4973 1.386 . S
C4972 C4974 1.391 . S
C4973 C4972 1.386 . S
C4973 C4977 1.393 . S
C4974 H4966 0.950 . S
C4974 C4972 1.391 . S
C4974 C4975 1.400 . S
C4975 C4974 1.400 . S
C4975 C4976 1.398 . S
C4975 C4981 1.491 . S
C4976 H4967 0.950 . S
C4976 C4975 1.398 . S
C4976 C4977 1.391 . S
C4977 H4965 0.950 . S
C4977 C4973 1.393 . S
C4977 C4976 1.391 . S
C4978 H4968 0.950 . S
C4978 C4979 1.386 . S
C4978 C4980 1.391 . S
C4979 C4978 1.386 . S
C4979 C4983 1.393 . S
C4980 H4969 0.950 . S
C4980 C4978 1.391 . S
C4980 C4981 1.400 . S
C4981 C4975 1.491 . S
C4981 C4980 1.400 . S
C4981 C4982 1.398 . S
C4982 H4970 0.950 . S
C4982 C4981 1.398 . S
C4982 C4983 1.391 . S
C4983 H4971 0.950 . S
C4983 C4979 1.393 . S
C4983 C4982 1.391 . S
H4984 C4992 0.950 . S
H4985 C4997 0.950 . S
H4986 C4994 0.950 . S
H4987 C4996 0.950 . S
H4988 C4998 0.950 . S
H4989 C5000 0.950 . S
H4990 C5002 0.950 . S
H4991 C5003 0.950 . S
C4992 H4984 0.950 . S
C4992 C4993 1.386 . S
C4992 C4994 1.391 . S
C4993 C4992 1.386 . S
C4993 C4997 1.393 . S
C4994 H4986 0.950 . S
C4994 C4992 1.391 . S
C4994 C4995 1.400 . S
C4995 C4994 1.400 . S
C4995 C4996 1.398 . S
C4995 C5001 1.491 . S
C4996 H4987 0.950 . S
C4996 C4995 1.398 . S
C4996 C4997 1.391 . S
C4997 H4985 0.950 . S
C4997 C4993 1.393 . S
C4997 C4996 1.391 . S
C4998 H4988 0.950 . S
C4998 C4999 1.386 . S
C4998 C5000 1.391 . S
C4999 C4998 1.386 . S
C4999 C5003 1.393 . S
C5000 H4989 0.950 . S
C5000 C4998 1.391 . S
C5000 C5001 1.400 . S
C5001 C4995 1.491 . S
C5001 C5000 1.400 . S
C5001 C5002 1.398 . S
C5002 H4990 0.950 . S
C5002 C5001 1.398 . S
C5002 C5003 1.391 . S
C5003 H4991 0.950 . S
C5003 C4999 1.393 . S
C5003 C5002 1.391 . S
H5004 C5012 0.950 . S
H5005 C5017 0.950 . S
H5006 C5014 0.950 . S
H5007 C5016 0.950 . S
H5008 C5018 0.950 . S
H5009 C5020 0.950 . S
H5010 C5022 0.950 . S
H5011 C5023 0.950 . S
C5012 H5004 0.950 . S
C5012 C5013 1.386 . S
C5012 C5014 1.391 . S
C5013 C5012 1.386 . S
C5013 C5017 1.393 . S
C5014 H5006 0.950 . S
C5014 C5012 1.391 . S
C5014 C5015 1.400 . S
C5015 C5014 1.400 . S
C5015 C5016 1.398 . S
C5015 C5021 1.491 . S
C5016 H5007 0.950 . S
C5016 C5015 1.398 . S
C5016 C5017 1.391 . S
C5017 H5005 0.950 . S
C5017 C5013 1.393 . S
C5017 C5016 1.391 . S
C5018 H5008 0.950 . S
C5018 C5019 1.386 . S
C5018 C5020 1.391 . S
C5019 C5018 1.386 . S
C5019 C5023 1.393 . S
C5020 H5009 0.950 . S
C5020 C5018 1.391 . S
C5020 C5021 1.400 . S
C5021 C5015 1.491 . S
C5021 C5020 1.400 . S
C5021 C5022 1.398 . S
C5022 H5010 0.950 . S
C5022 C5021 1.398 . S
C5022 C5023 1.391 . S
C5023 H5011 0.950 . S
C5023 C5019 1.393 . S
C5023 C5022 1.391 . S
H5024 C5032 0.950 . S
H5025 C5037 0.950 . S
H5026 C5034 0.950 . S
H5027 C5036 0.950 . S
H5028 C5038 0.950 . S
H5029 C5040 0.950 . S
H5030 C5042 0.950 . S
H5031 C5043 0.950 . S
C5032 H5024 0.950 . S
C5032 C5033 1.386 . S
C5032 C5034 1.391 . S
C5033 C5032 1.386 . S
C5033 C5037 1.393 . S
C5034 H5026 0.950 . S
C5034 C5032 1.391 . S
C5034 C5035 1.400 . S
C5035 C5034 1.400 . S
C5035 C5036 1.398 . S
C5035 C5041 1.491 . S
C5036 H5027 0.950 . S
C5036 C5035 1.398 . S
C5036 C5037 1.391 . S
C5037 H5025 0.950 . S
C5037 C5033 1.393 . S
C5037 C5036 1.391 . S
C5038 H5028 0.950 . S
C5038 C5039 1.386 . S
C5038 C5040 1.391 . S
C5039 C5038 1.386 . S
C5039 C5043 1.393 . S
C5040 H5029 0.950 . S
C5040 C5038 1.391 . S
C5040 C5041 1.400 . S
C5041 C5035 1.491 . S
C5041 C5040 1.400 . S
C5041 C5042 1.398 . S
C5042 H5030 0.950 . S
C5042 C5041 1.398 . S
C5042 C5043 1.391 . S
C5043 H5031 0.950 . S
C5043 C5039 1.393 . S
C5043 C5042 1.391 . S
H5044 C5052 0.950 . S
H5045 C5057 0.950 . S
H5046 C5054 0.950 . S
H5047 C5056 0.950 . S
H5048 C5058 0.950 . S
H5049 C5060 0.950 . S
H5050 C5062 0.950 . S
H5051 C5063 0.950 . S
C5052 H5044 0.950 . S
C5052 C5053 1.386 . S
C5052 C5054 1.391 . S
C5053 C5052 1.386 . S
C5053 C5057 1.393 . S
C5054 H5046 0.950 . S
C5054 C5052 1.391 . S
C5054 C5055 1.400 . S
C5055 C5054 1.400 . S
C5055 C5056 1.398 . S
C5055 C5061 1.491 . S
C5056 H5047 0.950 . S
C5056 C5055 1.398 . S
C5056 C5057 1.391 . S
C5057 H5045 0.950 . S
C5057 C5053 1.393 . S
C5057 C5056 1.391 . S
C5058 H5048 0.950 . S
C5058 C5059 1.386 . S
C5058 C5060 1.391 . S
C5059 C5058 1.386 . S
C5059 C5063 1.393 . S
C5060 H5049 0.950 . S
C5060 C5058 1.391 . S
C5060 C5061 1.400 . S
C5061 C5055 1.491 . S
C5061 C5060 1.400 . S
C5061 C5062 1.398 . S
C5062 H5050 0.950 . S
C5062 C5061 1.398 . S
C5062 C5063 1.391 . S
C5063 H5051 0.950 . S
C5063 C5059 1.393 . S
C5063 C5062 1.391 . S
H5064 C5072 0.950 . S
H5065 C5077 0.950 . S
H5066 C5074 0.950 . S
H5067 C5076 0.950 . S
H5068 C5078 0.950 . S
H5069 C5080 0.950 . S
H5070 C5082 0.950 . S
H5071 C5083 0.950 . S
C5072 H5064 0.950 . S
C5072 C5073 1.386 . S
C5072 C5074 1.391 . S
C5073 C5072 1.386 . S
C5073 C5077 1.393 . S
C5074 H5066 0.950 . S
C5074 C5072 1.391 . S
C5074 C5075 1.400 . S
C5075 C5074 1.400 . S
C5075 C5076 1.398 . S
C5075 C5081 1.491 . S
C5076 H5067 0.950 . S
C5076 C5075 1.398 . S
C5076 C5077 1.391 . S
C5077 H5065 0.950 . S
C5077 C5073 1.393 . S
C5077 C5076 1.391 . S
C5078 H5068 0.950 . S
C5078 C5079 1.386 . S
C5078 C5080 1.391 . S
C5079 C5078 1.386 . S
C5079 C5083 1.393 . S
C5080 H5069 0.950 . S
C5080 C5078 1.391 . S
C5080 C5081 1.400 . S
C5081 C5075 1.491 . S
C5081 C5080 1.400 . S
C5081 C5082 1.398 . S
C5082 H5070 0.950 . S
C5082 C5081 1.398 . S
C5082 C5083 1.391 . S
C5083 H5071 0.950 . S
C5083 C5079 1.393 . S
C5083 C5082 1.391 . S
H5084 C5092 0.950 . S
H5085 C5097 0.950 . S
H5086 C5094 0.950 . S
H5087 C5096 0.950 . S
H5088 C5098 0.950 . S
H5089 C5100 0.950 . S
H5090 C5102 0.950 . S
H5091 C5103 0.950 . S
C5092 H5084 0.950 . S
C5092 C5093 1.386 . S
C5092 C5094 1.391 . S
C5093 C5092 1.386 . S
C5093 C5097 1.393 . S
C5094 H5086 0.950 . S
C5094 C5092 1.391 . S
C5094 C5095 1.400 . S
C5095 C5094 1.400 . S
C5095 C5096 1.398 . S
C5095 C5101 1.491 . S
C5096 H5087 0.950 . S
C5096 C5095 1.398 . S
C5096 C5097 1.391 . S
C5097 H5085 0.950 . S
C5097 C5093 1.393 . S
C5097 C5096 1.391 . S
C5098 H5088 0.950 . S
C5098 C5099 1.386 . S
C5098 C5100 1.391 . S
C5099 C5098 1.386 . S
C5099 C5103 1.393 . S
C5100 H5089 0.950 . S
C5100 C5098 1.391 . S
C5100 C5101 1.400 . S
C5101 C5095 1.491 . S
C5101 C5100 1.400 . S
C5101 C5102 1.398 . S
C5102 H5090 0.950 . S
C5102 C5101 1.398 . S
C5102 C5103 1.391 . S
C5103 H5091 0.950 . S
C5103 C5099 1.393 . S
C5103 C5102 1.391 . S
H5104 C5112 0.950 . S
H5105 C5117 0.950 . S
H5106 C5114 0.950 . S
H5107 C5116 0.950 . S
H5108 C5118 0.950 . S
H5109 C5120 0.950 . S
H5110 C5122 0.950 . S
H5111 C5123 0.950 . S
C5112 H5104 0.950 . S
C5112 C5113 1.386 . S
C5112 C5114 1.391 . S
C5113 C5112 1.386 . S
C5113 C5117 1.393 . S
C5114 H5106 0.950 . S
C5114 C5112 1.391 . S
C5114 C5115 1.400 . S
C5115 C5114 1.400 . S
C5115 C5116 1.398 . S
C5115 C5121 1.491 . S
C5116 H5107 0.950 . S
C5116 C5115 1.398 . S
C5116 C5117 1.391 . S
C5117 H5105 0.950 . S
C5117 C5113 1.393 . S
C5117 C5116 1.391 . S
C5118 H5108 0.950 . S
C5118 C5119 1.386 . S
C5118 C5120 1.391 . S
C5119 C5118 1.386 . S
C5119 C5123 1.393 . S
C5120 H5109 0.950 . S
C5120 C5118 1.391 . S
C5120 C5121 1.400 . S
C5121 C5115 1.491 . S
C5121 C5120 1.400 . S
C5121 C5122 1.398 . S
C5122 H5110 0.950 . S
C5122 C5121 1.398 . S
C5122 C5123 1.391 . S
C5123 H5111 0.950 . S
C5123 C5119 1.393 . S
C5123 C5122 1.391 . S
H5124 C5132 0.950 . S
H5125 C5137 0.950 . S
H5126 C5134 0.950 . S
H5127 C5136 0.950 . S
H5128 C5138 0.950 . S
H5129 C5140 0.950 . S
H5130 C5142 0.950 . S
H5131 C5143 0.950 . S
C5132 H5124 0.950 . S
C5132 C5133 1.386 . S
C5132 C5134 1.391 . S
C5133 C5132 1.386 . S
C5133 C5137 1.393 . S
C5134 H5126 0.950 . S
C5134 C5132 1.391 . S
C5134 C5135 1.400 . S
C5135 C5134 1.400 . S
C5135 C5136 1.398 . S
C5135 C5141 1.491 . S
C5136 H5127 0.950 . S
C5136 C5135 1.398 . S
C5136 C5137 1.391 . S
C5137 H5125 0.950 . S
C5137 C5133 1.393 . S
C5137 C5136 1.391 . S
C5138 H5128 0.950 . S
C5138 C5139 1.386 . S
C5138 C5140 1.391 . S
C5139 C5138 1.386 . S
C5139 C5143 1.393 . S
C5140 H5129 0.950 . S
C5140 C5138 1.391 . S
C5140 C5141 1.400 . S
C5141 C5135 1.491 . S
C5141 C5140 1.400 . S
C5141 C5142 1.398 . S
C5142 H5130 0.950 . S
C5142 C5141 1.398 . S
C5142 C5143 1.391 . S
C5143 H5131 0.950 . S
C5143 C5139 1.393 . S
C5143 C5142 1.391 . S
H5144 C5152 0.950 . S
H5145 C5157 0.950 . S
H5146 C5154 0.950 . S
H5147 C5156 0.950 . S
H5148 C5158 0.950 . S
H5149 C5160 0.950 . S
H5150 C5162 0.950 . S
H5151 C5163 0.950 . S
C5152 H5144 0.950 . S
C5152 C5153 1.386 . S
C5152 C5154 1.391 . S
C5153 C5152 1.386 . S
C5153 C5157 1.393 . S
C5154 H5146 0.950 . S
C5154 C5152 1.391 . S
C5154 C5155 1.400 . S
C5155 C5154 1.400 . S
C5155 C5156 1.398 . S
C5155 C5161 1.491 . S
C5156 H5147 0.950 . S
C5156 C5155 1.398 . S
C5156 C5157 1.391 . S
C5157 H5145 0.950 . S
C5157 C5153 1.393 . S
C5157 C5156 1.391 . S
C5158 H5148 0.950 . S
C5158 C5159 1.386 . S
C5158 C5160 1.391 . S
C5159 C5158 1.386 . S
C5159 C5163 1.393 . S
C5160 H5149 0.950 . S
C5160 C5158 1.391 . S
C5160 C5161 1.400 . S
C5161 C5155 1.491 . S
C5161 C5160 1.400 . S
C5161 C5162 1.398 . S
C5162 H5150 0.950 . S
C5162 C5161 1.398 . S
C5162 C5163 1.391 . S
C5163 H5151 0.950 . S
C5163 C5159 1.393 . S
C5163 C5162 1.391 . S
H5164 C5172 0.950 . S
H5165 C5177 0.950 . S
H5166 C5174 0.950 . S
H5167 C5176 0.950 . S
H5168 C5178 0.950 . S
H5169 C5180 0.950 . S
H5170 C5182 0.950 . S
H5171 C5183 0.950 . S
C5172 H5164 0.950 . S
C5172 C5173 1.386 . S
C5172 C5174 1.391 . S
C5173 C5172 1.386 . S
C5173 C5177 1.393 . S
C5174 H5166 0.950 . S
C5174 C5172 1.391 . S
C5174 C5175 1.400 . S
C5175 C5174 1.400 . S
C5175 C5176 1.398 . S
C5175 C5181 1.491 . S
C5176 H5167 0.950 . S
C5176 C5175 1.398 . S
C5176 C5177 1.391 . S
C5177 H5165 0.950 . S
C5177 C5173 1.393 . S
C5177 C5176 1.391 . S
C5178 H5168 0.950 . S
C5178 C5179 1.386 . S
C5178 C5180 1.391 . S
C5179 C5178 1.386 . S
C5179 C5183 1.393 . S
C5180 H5169 0.950 . S
C5180 C5178 1.391 . S
C5180 C5181 1.400 . S
C5181 C5175 1.491 . S
C5181 C5180 1.400 . S
C5181 C5182 1.398 . S
C5182 H5170 0.950 . S
C5182 C5181 1.398 . S
C5182 C5183 1.391 . S
C5183 H5171 0.950 . S
C5183 C5179 1.393 . S
C5183 C5182 1.391 . S
C1353 C7 1.362 . S
C1359 C427 1.341 . S
C1373 C777 1.362 . S
C1379 C21 1.341 . S
C1393 C35 1.344 . S
C1399 C399 1.353 . S
C1413 C49 1.341 . S
C1419 C749 1.358 . S
C1433 C371 1.362 . S
C1439 C63 1.342 . S
C1453 C77 1.361 . S
C1459 C721 1.340 . S
C1473 C343 1.341 . S
C1479 C91 1.362 . S
C1493 C105 1.354 . S
C1499 C693 1.355 . S
C1513 C483 1.362 . S
C1519 C119 1.342 . S
C1533 C133 1.341 . S
C1539 C833 1.362 . S
C1553 C147 1.341 . S
C1559 C455 1.358 . S
C1573 C161 1.342 . S
C1579 C805 1.356 . S
C1593 C175 1.345 . S
C1599 C539 1.352 . S
C1613 C889 1.351 . S
C1619 C189 1.346 . S
C1633 C511 1.342 . S
C1639 C203 1.356 . S
C1653 C217 1.357 . S
C1659 C861 1.352 . S
C1673 C917 1.345 . S
C1679 C231 1.362 . S
C1693 C903 1.352 . S
C1699 C245 1.357 . S
C1713 C259 1.360 . S
C1719 C1001 1.348 . S
C1733 C1309 1.353 . S
C1739 C273 1.344 . S
C1753 C651 1.356 . S
C1759 C287 1.354 . S
C1773 C301 1.341 . S
C1779 C1281 1.358 . S
C1793 C315 1.360 . S
C1799 C623 1.349 . S
C1813 C329 1.362 . S
C1819 C931 1.345 . S
C1833 C357 1.354 . S
C1839 C1113 1.343 . S
C1853 C385 1.362 . S
C1859 C1085 1.341 . S
C1873 C413 1.354 . S
C1879 C1057 1.355 . S
C1893 C441 1.360 . S
C1899 C1029 1.348 . S
C1913 C1169 1.355 . S
C1919 C469 1.355 . S
C1933 C497 1.347 . S
C1939 C1141 1.361 . S
C1953 C1225 1.354 . S
C1959 C525 1.355 . S
C1973 C553 1.352 . S
C1979 C1197 1.345 . S
C1993 C567 1.347 . S
C1999 C1253 1.361 . S
C2013 C581 1.352 . S
C2019 C1239 1.345 . S
C2033 C595 1.346 . S
C2039 C1337 1.361 . S
C2053 C973 1.360 . S
C2059 C609 1.348 . S
C2073 C945 1.344 . S
C2079 C637 1.362 . S
C2093 C665 1.341 . S
C2099 C1267 1.358 . S
C2113 C679 1.348 . S
C2119 C1099 1.348 . S
C2133 C1071 1.341 . S
C2139 C707 1.362 . S
C2153 C735 1.347 . S
C2159 C1043 1.350 . S
C2173 C763 1.343 . S
C2179 C1015 1.362 . S
C2193 C1155 1.341 . S
C2199 C791 1.358 . S
C2213 C1127 1.347 . S
C2219 C819 1.350 . S
C2233 C847 1.345 . S
C2239 C1211 1.352 . S
C2253 C1183 1.360 . S
C2259 C875 1.348 . S
C2273 C959 1.356 . S
C2279 C1323 1.342 . S
C2293 C987 1.359 . S
C2299 C1295 1.350 . S
C2313 C8 1.368 . S
C2319 C778 1.360 . S
C2333 C22 1.368 . S
C2339 C400 1.357 . S
C2353 C36 1.364 . S
C2359 C750 1.366 . S
C2373 C428 1.361 . S
C2379 C50 1.368 . S
C2393 C64 1.358 . S
C2399 C358 1.369 . S
C2413 C78 1.361 . S
C2419 C708 1.368 . S
C2433 C92 1.357 . S
C2439 C386 1.365 . S
C2453 C680 1.367 . S
C2459 C106 1.357 . S
C2473 C120 1.367 . S
C2479 C288 1.357 . S
C2493 C134 1.368 . S
C2499 C1254 1.360 . S
C2513 C1268 1.368 . S
C2519 C148 1.359 . S
C2533 C162 1.362 . S
C2539 C1282 1.368 . S
C2553 C1002 1.364 . S
C2559 C176 1.357 . S
C2573 C1310 1.359 . S
C2579 C190 1.369 . S
C2593 C204 1.366 . S
C2599 C988 1.364 . S
C2613 C904 1.365 . S
C2619 C218 1.357 . S
C2633 C890 1.364 . S
C2639 C232 1.357 . S
C2653 C1142 1.365 . S
C2659 C246 1.365 . S
C2673 C260 1.367 . S
C2679 C1156 1.357 . S
C2693 C274 1.368 . S
C2699 C1170 1.357 . S
C2713 C302 1.364 . S
C2719 C1198 1.366 . S
C2733 C316 1.364 . S
C2739 C876 1.357 . S
C2753 C848 1.357 . S
C2759 C330 1.363 . S
C2773 C344 1.357 . S
C2779 C1114 1.364 . S
C2793 C1086 1.358 . S
C2799 C372 1.363 . S
C2813 C1044 1.359 . S
C2819 C414 1.368 . S
C2833 C442 1.368 . S
C2839 C1016 1.361 . S
C2853 C456 1.365 . S
C2859 C624 1.357 . S
C2873 C470 1.358 . S
C2879 C918 1.369 . S
C2893 C484 1.368 . S
C2899 C932 1.360 . S
C2913 C498 1.368 . S
C2919 C946 1.357 . S
C2933 C512 1.362 . S
C2939 C1338 1.358 . S
C2953 C974 1.361 . S
C2959 C526 1.359 . S
C2973 C1324 1.363 . S
C2979 C540 1.366 . S
C2993 C1240 1.357 . S
C2999 C554 1.367 . S
C3013 C1226 1.366 . S
C3019 C568 1.364 . S
C3033 C582 1.361 . S
C3039 C806 1.360 . S
C3053 C596 1.364 . S
C3059 C820 1.366 . S
C3073 C610 1.362 . S
C3079 C834 1.367 . S
C3093 C862 1.365 . S
C3099 C638 1.357 . S
C3113 C1212 1.368 . S
C3119 C652 1.357 . S
C3133 C1184 1.368 . S
C3139 C666 1.360 . S
C3153 C694 1.369 . S
C3159 C1072 1.359 . S
C3173 C722 1.365 . S
C3179 C1100 1.357 . S
C3193 C1030 1.360 . S
C3199 C736 1.361 . S
C3213 C1058 1.362 . S
C3219 C764 1.367 . S
C3233 C960 1.366 . S
C3239 C792 1.357 . S
C3253 C1296 1.359 . S
C3259 C1128 1.361 . S
C3273 C9 1.073 . S
C3279 C1305 1.161 . S
C3293 C23 1.052 . S
C3299 C983 1.166 . S
C3313 C899 1.169 . S
C3319 C37 1.103 . S
C3333 C997 1.164 . S
C3339 C51 1.095 . S
C3353 C65 1.102 . S
C3359 C269 1.175 . S
C3373 C79 1.086 . S
C3379 C1291 1.179 . S
C3393 C241 1.177 . S
C3399 C93 1.071 . S
C3413 C255 1.174 . S
C3419 C107 1.059 . S
C3433 C395 1.170 . S
C3439 C121 1.104 . S
C3453 C135 1.103 . S
C3459 C745 1.174 . S
C3473 C149 1.102 . S
C3479 C423 1.168 . S
C3493 C163 1.085 . S
C3499 C773 1.179 . S
C3513 C339 1.172 . S
C3519 C177 1.104 . S
C3533 C191 1.093 . S
C3539 C689 1.178 . S
C3553 C367 1.177 . S
C3559 C205 1.069 . S
C3573 C219 1.088 . S
C3579 C717 1.178 . S
C3593 C233 1.052 . S
C3599 C1207 1.169 . S
C3613 C479 1.173 . S
C3619 C247 1.104 . S
C3633 C261 1.065 . S
C3639 C829 1.161 . S
C3653 C451 1.161 . S
C3659 C275 1.072 . S
C3673 C289 1.072 . S
C3679 C465 1.178 . S
C3693 C843 1.178 . S
C3699 C303 1.094 . S
C3713 C185 1.163 . S
C3719 C317 1.058 . S
C3733 C213 1.169 . S
C3739 C331 1.103 . S
C3753 C969 1.172 . S
C3759 C345 1.056 . S
C3773 C359 1.089 . S
C3779 C1319 1.178 . S
C3793 C1235 1.169 . S
C3799 C373 1.052 . S
C3813 C387 1.052 . S
C3819 C1333 1.167 . S
C3833 C605 1.175 . S
C3839 C401 1.102 . S
C3853 C955 1.173 . S
C3859 C415 1.058 . S
C3873 C429 1.056 . S
C3879 C577 1.163 . S
C3893 C443 1.093 . S
C3899 C591 1.178 . S
C3913 C457 1.053 . S
C3919 C59 1.170 . S
C3933 C471 1.063 . S
C3939 C1081 1.176 . S
C3953 C87 1.176 . S
C3959 C485 1.099 . S
C3973 C499 1.063 . S
C3979 C1109 1.161 . S
C3993 C3 1.165 . S
C3999 C513 1.053 . S
C4013 C527 1.055 . S
C4019 C1025 1.172 . S
C4033 C31 1.164 . S
C4039 C541 1.055 . S
C4053 C1053 1.171 . S
C4059 C555 1.104 . S
C4073 C569 1.053 . S
C4079 C871 1.165 . S
C4093 C583 1.089 . S
C4099 C143 1.178 . S
C4113 C1165 1.178 . S
C4119 C597 1.080 . S
C4133 C611 1.071 . S
C4139 C115 1.161 . S
C4153 C129 1.161 . S
C4159 C625 1.080 . S
C4173 C639 1.098 . S
C4179 C1179 1.177 . S
C4193 C521 1.178 . S
C4199 C653 1.077 . S
C4213 C667 1.054 . S
C4219 C549 1.171 . S
C4233 C633 1.164 . S
C4239 C681 1.095 . S
C4253 C695 1.096 . S
C4259 C311 1.165 . S
C4273 C709 1.103 . S
C4279 C227 1.168 . S
C4293 C723 1.084 . S
C4299 C325 1.179 . S
C4313 C737 1.079 . S
C4319 C941 1.161 . S
C4333 C619 1.162 . S
C4339 C751 1.059 . S
C4353 C913 1.162 . S
C4359 C765 1.085 . S
C4373 C779 1.092 . S
C4379 C927 1.178 . S
C4393 C1067 1.177 . S
C4399 C793 1.099 . S
C4413 C73 1.162 . S
C4419 C807 1.059 . S
C4433 C1095 1.164 . S
C4439 C821 1.096 . S
C4453 C835 1.086 . S
C4459 C101 1.162 . S
C4473 C1011 1.178 . S
C4479 C849 1.076 . S
C4493 C863 1.060 . S
C4499 C17 1.174 . S
C4513 C1039 1.168 . S
C4519 C877 1.052 . S
C4533 C45 1.167 . S
C4539 C891 1.101 . S
C4553 C535 1.167 . S
C4559 C905 1.052 . S
C4573 C919 1.083 . S
C4579 C1151 1.161 . S
C4593 C933 1.053 . S
C4599 C157 1.170 . S
C4613 C1123 1.178 . S
C4619 C947 1.093 . S
C4633 C961 1.052 . S
C4639 C1137 1.169 . S
C4653 C171 1.176 . S
C4659 C975 1.065 . S
C4673 C857 1.161 . S
C4679 C989 1.077 . S
C4693 C1003 1.092 . S
C4699 C885 1.178 . S
C4713 C1017 1.072 . S
C4719 C297 1.161 . S
C4733 C647 1.177 . S
C4739 C1031 1.071 . S
C4753 C563 1.171 . S
C4759 C1045 1.104 . S
C4773 C1059 1.090 . S
C4779 C661 1.178 . S
C4793 C1073 1.057 . S
C4799 C1277 1.163 . S
C4813 C283 1.168 . S
C4819 C1087 1.052 . S
C4833 C1249 1.163 . S
C4839 C1101 1.056 . S
C4853 C1263 1.161 . S
C4859 C1115 1.073 . S
C4873 C731 1.161 . S
C4879 C1129 1.074 . S
C4893 C1143 1.104 . S
C4899 C409 1.170 . S
C4913 C1157 1.053 . S
C4919 C759 1.170 . S
C4933 C1171 1.104 . S
C4939 C437 1.171 . S
C4953 C675 1.171 . S
C4959 C1185 1.104 . S
C4973 C1199 1.052 . S
C4979 C353 1.169 . S
C4993 C1213 1.075 . S
C4999 C703 1.178 . S
C5013 C1227 1.104 . S
C5019 C381 1.170 . S
C5033 C199 1.177 . S
C5039 C1241 1.068 . S
C5053 C1255 1.076 . S
C5059 C815 1.161 . S
C5073 C1269 1.091 . S
C5079 C493 1.163 . S
C5093 C1283 1.067 . S
C5099 C787 1.177 . S
C5113 C1297 1.060 . S
C5119 C801 1.175 . S
C5133 C507 1.169 . S
C5139 C1311 1.103 . S
C5153 C1193 1.172 . S
C5159 C1325 1.104 . S
C5173 C1221 1.161 . S
C5179 C1339 1.078 . S
