# Generated by pormake.
# Topology zfd, (5)-cn, num edge types: 1
# Building blocks:
#     Node 0, Type 0, BuildingBlock: XOMCOT_clean_sbu_1, # of connection points: 5
#     Node 1, Type 0, BuildingBlock: XOMCOT_clean_sbu_1, # of connection points: 5
#     Node 2, Type 0, BuildingBlock: XOMCOT_clean_sbu_1, # of connection points: 5
#     Node 3, Type 0, BuildingBlock: XOMCOT_clean_sbu_1, # of connection points: 5
#     Node 4, Type 0, BuildingBlock: XOMCOT_clean_sbu_1, # of connection points: 5
#     Node 5, Type 0, BuildingBlock: XOMCOT_clean_sbu_1, # of connection points: 5
#     Node 6, Type 0, BuildingBlock: XOMCOT_clean_sbu_1, # of connection points: 5
#     Node 7, Type 0, BuildingBlock: XOMCOT_clean_sbu_1, # of connection points: 5
#     Node 8, Type 0, BuildingBlock: XOMCOT_clean_sbu_1, # of connection points: 5
#     Node 9, Type 0, BuildingBlock: XOMCOT_clean_sbu_1, # of connection points: 5
#     Node 10, Type 0, BuildingBlock: XOMCOT_clean_sbu_1, # of connection points: 5
#     Node 11, Type 0, BuildingBlock: XOMCOT_clean_sbu_1, # of connection points: 5
#     Node 12, Type 0, BuildingBlock: XOMCOT_clean_sbu_1, # of connection points: 5
#     Node 13, Type 0, BuildingBlock: XOMCOT_clean_sbu_1, # of connection points: 5
#     Node 14, Type 0, BuildingBlock: XOMCOT_clean_sbu_1, # of connection points: 5
#     Node 15, Type 0, BuildingBlock: XOMCOT_clean_sbu_1, # of connection points: 5
#     Edge 16, Type (0, 0), BuildingBlock: ZUJKAS_clean_linker_0, # of connection points: 2
#     Edge 17, Type (0, 0), BuildingBlock: ZUJKAS_clean_linker_0, # of connection points: 2
#     Edge 18, Type (0, 0), BuildingBlock: ZUJKAS_clean_linker_0, # of connection points: 2
#     Edge 19, Type (0, 0), BuildingBlock: ZUJKAS_clean_linker_0, # of connection points: 2
#     Edge 20, Type (0, 0), BuildingBlock: ZUJKAS_clean_linker_0, # of connection points: 2
#     Edge 21, Type (0, 0), BuildingBlock: ZUJKAS_clean_linker_0, # of connection points: 2
#     Edge 22, Type (0, 0), BuildingBlock: ZUJKAS_clean_linker_0, # of connection points: 2
#     Edge 23, Type (0, 0), BuildingBlock: ZUJKAS_clean_linker_0, # of connection points: 2
#     Edge 24, Type (0, 0), BuildingBlock: ZUJKAS_clean_linker_0, # of connection points: 2
#     Edge 25, Type (0, 0), BuildingBlock: ZUJKAS_clean_linker_0, # of connection points: 2
#     Edge 26, Type (0, 0), BuildingBlock: ZUJKAS_clean_linker_0, # of connection points: 2
#     Edge 27, Type (0, 0), BuildingBlock: ZUJKAS_clean_linker_0, # of connection points: 2
#     Edge 28, Type (0, 0), BuildingBlock: ZUJKAS_clean_linker_0, # of connection points: 2
#     Edge 29, Type (0, 0), BuildingBlock: ZUJKAS_clean_linker_0, # of connection points: 2
#     Edge 30, Type (0, 0), BuildingBlock: ZUJKAS_clean_linker_0, # of connection points: 2
#     Edge 31, Type (0, 0), BuildingBlock: ZUJKAS_clean_linker_0, # of connection points: 2
#     Edge 32, Type (0, 0), BuildingBlock: ZUJKAS_clean_linker_0, # of connection points: 2
#     Edge 33, Type (0, 0), BuildingBlock: ZUJKAS_clean_linker_0, # of connection points: 2
#     Edge 34, Type (0, 0), BuildingBlock: ZUJKAS_clean_linker_0, # of connection points: 2
#     Edge 35, Type (0, 0), BuildingBlock: ZUJKAS_clean_linker_0, # of connection points: 2
#     Edge 36, Type (0, 0), BuildingBlock: ZUJKAS_clean_linker_0, # of connection points: 2
#     Edge 37, Type (0, 0), BuildingBlock: ZUJKAS_clean_linker_0, # of connection points: 2
#     Edge 38, Type (0, 0), BuildingBlock: ZUJKAS_clean_linker_0, # of connection points: 2
#     Edge 39, Type (0, 0), BuildingBlock: ZUJKAS_clean_linker_0, # of connection points: 2
#     Edge 40, Type (0, 0), BuildingBlock: ZUJKAS_clean_linker_0, # of connection points: 2
#     Edge 41, Type (0, 0), BuildingBlock: ZUJKAS_clean_linker_0, # of connection points: 2
#     Edge 42, Type (0, 0), BuildingBlock: ZUJKAS_clean_linker_0, # of connection points: 2
#     Edge 43, Type (0, 0), BuildingBlock: ZUJKAS_clean_linker_0, # of connection points: 2
#     Edge 44, Type (0, 0), BuildingBlock: ZUJKAS_clean_linker_0, # of connection points: 2
#     Edge 45, Type (0, 0), BuildingBlock: ZUJKAS_clean_linker_0, # of connection points: 2
#     Edge 46, Type (0, 0), BuildingBlock: ZUJKAS_clean_linker_0, # of connection points: 2
#     Edge 47, Type (0, 0), BuildingBlock: ZUJKAS_clean_linker_0, # of connection points: 2
#     Edge 48, Type (0, 0), BuildingBlock: ZUJKAS_clean_linker_0, # of connection points: 2
#     Edge 49, Type (0, 0), BuildingBlock: ZUJKAS_clean_linker_0, # of connection points: 2
#     Edge 50, Type (0, 0), BuildingBlock: ZUJKAS_clean_linker_0, # of connection points: 2
#     Edge 51, Type (0, 0), BuildingBlock: ZUJKAS_clean_linker_0, # of connection points: 2
#     Edge 52, Type (0, 0), BuildingBlock: ZUJKAS_clean_linker_0, # of connection points: 2
#     Edge 53, Type (0, 0), BuildingBlock: ZUJKAS_clean_linker_0, # of connection points: 2
#     Edge 54, Type (0, 0), BuildingBlock: ZUJKAS_clean_linker_0, # of connection points: 2
#     Edge 55, Type (0, 0), BuildingBlock: ZUJKAS_clean_linker_0, # of connection points: 2
# Relax obj value: 0.204
# Max RMSD: 0.192
# Mean RMSD: 0.192
data_MOF--net-zfd--node1-XOMCOT_clean_sbu_1--edge1-ZUJKAS_clean_linker_0
_symmetry_space_group_name_H-M    P1
_symmetry_Int_Tables_number       1
_symmetry_cell_setting            triclinic
loop_
_symmetry_equiv_pos_as_xyz
'x, y, z'
_cell_length_a     85.173151
_cell_length_b     85.219779
_cell_length_c     25.342264
_cell_angle_alpha  90.109876
_cell_angle_beta   90.091473
_cell_angle_gamma 90.058419
loop_
_atom_site_label
_atom_site_type_symbol
_atom_site_fract_x
_atom_site_fract_y
_atom_site_fract_z
_atom_type_partial_charge
C0 C 0.11182 0.24295 0.10574 0.0
C1 C 0.12232 0.23943 0.14482 0.0
N2 N 0.12821 0.22507 0.13484 0.0
N3 N 0.1111 0.23089 0.07139 0.0
C4 C 0.12112 0.22007 0.09017 0.0
H5 H 0.10528 0.25376 0.10186 0.0
Co6 Co 0.09883 0.23234 1.01255 0.0
C7 C 0.11413 0.21316 0.92838 0.0
O8 O 0.11201 0.22576 0.89939 0.0
N9 N 0.08528 0.23453 0.95505 0.0
C10 C 0.06724 0.22912 0.89412 0.0
C11 C 0.07928 0.22311 0.92387 0.0
C12 C 0.07605 0.24708 0.94556 0.0
N13 N 0.06519 0.24423 0.90808 0.0
O14 O 0.08263 0.21952 0.04816 0.0
H15 H 0.08265 0.21089 0.92503 0.0
H16 H 0.07601 0.25754 0.96956 0.0
O17 O 0.10941 0.21337 0.97696 0.0
C18 C 0.07383 0.22856 0.07596 0.0
O19 O 0.07626 0.24374 0.0722 0.0
N20 N 0.11443 0.24627 0.98371 0.0
C21 C 0.13845 0.26882 0.97671 0.0
C22 C 0.142 0.25283 0.97935 0.0
C23 C 0.1299 0.24179 0.98298 0.0
C24 C 0.11086 0.26187 0.98013 0.0
C25 C 0.12264 0.27328 0.97533 0.0
H26 H 0.13319 0.22976 0.99018 0.0
H27 H 0.09908 0.26587 0.9864 0.0
H28 H 0.12352 0.20903 0.07065 0.0
H29 H 0.12531 0.24683 0.17809 0.0
H30 H 0.06009 0.22264 0.86626 0.0
H31 H 0.15409 0.24892 0.98153 0.0
H32 H 0.11943 0.28558 0.97512 0.0
C33 C 0.78936 0.11354 0.13144 0.0
C34 C 0.79066 0.12731 0.15893 0.0
N35 N 0.80134 0.13632 0.13434 0.0
N36 N 0.79917 0.11387 0.08978 0.0
C37 C 0.80656 0.12784 0.09295 0.0
H38 H 0.78093 0.10435 0.13915 0.0
Co39 Co 0.7968 0.09946 0.03653 0.0
C40 C 0.81536 0.11013 0.94339 0.0
O41 O 0.80275 0.10604 0.91672 0.0
N42 N 0.79382 0.08413 0.98482 0.0
C43 C 0.79908 0.06321 0.93554 0.0
C44 C 0.80546 0.0752 0.96469 0.0
C45 C 0.78046 0.07714 0.96807 0.0
N46 N 0.78335 0.06441 0.93808 0.0
O47 O 0.80986 0.08439 0.07657 0.0
H48 H 0.81782 0.07689 0.97276 0.0
H49 H 0.76884 0.08044 0.98066 0.0
O50 O 0.81532 0.10845 0.99419 0.0
C51 C 0.8006 0.0756 0.10356 0.0
O52 O 0.78543 0.07733 0.09609 0.0
N53 N 0.7824 0.11376 1.00444 0.0
C54 C 0.75931 0.13705 0.99389 0.0
C55 C 0.775 0.14021 0.9815 0.0
C56 C 0.78636 0.12851 0.98736 0.0
C57 C 0.7671 0.11057 1.01644 0.0
C58 C 0.75532 0.12187 1.01014 0.0
H59 H 0.79844 0.13199 0.98296 0.0
H60 H 0.76416 0.09972 0.03605 0.0
H61 H 0.81459 0.13224 0.06341 0.0
H62 H 0.78391 0.13067 0.1933 0.0
H63 H 0.80553 0.054 0.91565 0.0
H64 H 0.7786 0.15192 0.9701 0.0
H65 H 0.74342 0.11913 1.02205 0.0
C66 C 0.91318 0.78343 0.10724 0.0
C67 C 0.9006 0.78747 0.13798 0.0
N68 N 0.89434 0.80073 0.11827 0.0
N69 N 0.91483 0.79411 0.06854 0.0
C70 C 0.90325 0.80457 0.07627 0.0
H71 H 0.92034 0.77305 0.11156 0.0
Co72 Co 0.92903 0.79162 1.01533 0.0
C73 C 0.91797 0.81077 0.92332 0.0
O74 O 0.92217 0.79862 0.89465 0.0
N75 N 0.94415 0.78859 0.96319 0.0
C76 C 0.96532 0.79372 0.91503 0.0
C77 C 0.95332 0.80017 0.94386 0.0
C78 C 0.95091 0.7752 0.94589 0.0
N79 N 0.96376 0.77802 0.91662 0.0
O80 O 0.94426 0.80469 0.05485 0.0
H81 H 0.95186 0.81251 0.95261 0.0
H82 H 0.94741 0.76357 0.9576 0.0
O83 O 0.91998 0.81018 0.97388 0.0
C84 C 0.95237 0.7957 0.08505 0.0
O85 O 0.94978 0.78052 0.08173 0.0
N86 N 0.91454 0.77737 0.98362 0.0
C87 C 0.89102 0.75435 0.97388 0.0
C88 C 0.88791 0.7701 0.96188 0.0
C89 C 0.8997 0.78144 0.96779 0.0
C90 C 0.91771 0.76206 0.99516 0.0
C91 C 0.90629 0.75035 0.98943 0.0
H92 H 0.89626 0.79356 0.96449 0.0
H93 H 0.92862 0.75905 1.01432 0.0
H94 H 0.90128 0.81466 0.05132 0.0
H95 H 0.89614 0.78089 0.17124 0.0
H96 H 0.97482 0.80003 0.89622 0.0
H97 H 0.8762 0.77381 0.95077 0.0
H98 H 0.90909 0.73848 1.00134 0.0
C99 C 0.23603 0.91339 0.13529 0.0
C100 C 0.23363 0.90068 0.16715 0.0
N101 N 0.22505 0.8901 0.14013 0.0
N102 N 0.22889 0.91093 0.08853 0.0
C103 C 0.22224 0.89662 0.09252 0.0
H104 H 0.24329 0.92341 0.14469 0.0
Co105 Co 0.23229 0.92417 0.03279 0.0
C106 C 0.21439 0.91212 0.93913 0.0
O107 O 0.22712 0.91574 0.91256 0.0
N108 N 0.23626 0.93833 0.97834 0.0
C109 C 0.23239 0.9585 0.92455 0.0
C110 C 0.22522 0.94745 0.95556 0.0
C111 C 0.25007 0.94418 0.96095 0.0
N112 N 0.24802 0.95646 0.92834 0.0
O113 O 0.21891 0.94014 0.06755 0.0
H114 H 0.21275 0.94654 0.96296 0.0
H115 H 0.26144 0.9404 0.97465 0.0
O116 O 0.21423 0.91451 0.98962 0.0
C117 C 0.22811 0.94957 0.09248 0.0
O118 O 0.24328 0.94789 0.08489 0.0
N119 N 0.24703 0.90932 1.00662 0.0
C120 C 0.27104 0.88675 1.0029 0.0
C121 C 0.25591 0.88327 0.98419 0.0
C122 C 0.24399 0.89458 0.98742 0.0
C123 C 0.26174 0.91284 0.02447 0.0
C124 C 0.27391 0.9019 1.02223 0.0
H125 H 0.23219 0.89087 0.97854 0.0
H126 H 0.26379 0.92389 0.04433 0.0
H127 H 0.21596 0.8909 0.0607 0.0
H128 H 0.23851 0.89903 0.20622 0.0
H129 H 0.22658 0.96767 0.90242 0.0
H130 H 0.25299 0.87156 0.97069 0.0
H131 H 0.28534 0.90512 0.03765 0.0
C132 C 0.10657 0.79048 0.41593 0.0
C133 C 0.11785 0.79117 0.3777 0.0
N134 N 0.13058 0.79822 0.39843 0.0
N135 N 0.11206 0.79717 0.46051 0.0
C136 C 0.12671 0.80201 0.44855 0.0
H137 H 0.09541 0.78454 0.4124 0.0
Co138 Co 0.10129 0.79408 0.52223 0.0
C139 C 0.11622 0.81247 0.6097 0.0
O140 O 0.11423 0.79954 0.63711 0.0
N141 N 0.08943 0.7903 0.58294 0.0
C142 C 0.07272 0.79427 0.64878 0.0
C143 C 0.08116 0.80131 0.6093 0.0
C144 C 0.0855 0.77661 0.6063 0.0
N145 N 0.07545 0.77872 0.6467 0.0
O146 O 0.08409 0.80727 0.49395 0.0
H147 H 0.08102 0.81366 0.59958 0.0
H148 H 0.08949 0.76523 0.59345 0.0
O149 O 0.1122 0.81254 0.56031 0.0
C150 C 0.07254 0.79883 0.47756 0.0
O151 O 0.07299 0.78369 0.48733 0.0
N152 N 0.1173 0.77964 0.54284 0.0
C153 C 0.14031 0.75601 0.54456 0.0
C154 C 0.14406 0.77155 0.5579 0.0
C155 C 0.13249 0.78321 0.55608 0.0
C156 C 0.11357 0.76461 0.52894 0.0
C157 C 0.12474 0.75259 0.53061 0.0
H158 H 0.13622 0.79516 0.56185 0.0
H159 H 0.10199 0.76206 0.51363 0.0
H160 H 0.13474 0.80718 0.47677 0.0
H161 H 0.11692 0.78643 0.33816 0.0
H162 H 0.06461 0.80005 0.67527 0.0
H163 H 0.15599 0.77481 0.568 0.0
H164 H 0.12139 0.74089 0.51818 0.0
C165 C 0.24181 0.10549 0.44395 0.0
C166 C 0.23777 0.11663 0.4075 0.0
N167 N 0.22572 0.12497 0.42724 0.0
N168 N 0.23229 0.1068 0.48608 0.0
C169 C 0.22254 0.11874 0.47488 0.0
H170 H 0.25134 0.09717 0.44073 0.0
Co171 Co 0.23513 0.09477 0.54444 0.0
C172 C 0.21664 0.10894 0.63276 0.0
O173 O 0.22937 0.10641 0.66088 0.0
N174 N 0.23852 0.08158 0.60215 0.0
C175 C 0.23363 0.06255 0.65973 0.0
C176 C 0.22705 0.07375 0.62785 0.0
C177 C 0.25196 0.07466 0.61837 0.0
N178 N 0.2493 0.0631 0.65335 0.0
O179 O 0.22193 0.07834 0.51178 0.0
H180 H 0.21461 0.07543 0.62136 0.0
H181 H 0.26335 0.07686 0.60154 0.0
O182 O 0.21666 0.10505 0.58337 0.0
C183 C 0.23061 0.06802 0.48917 0.0
O184 O 0.24589 0.06937 0.4948 0.0
N185 N 0.24943 0.1104 0.56955 0.0
C186 C 0.27234 0.13412 0.57325 0.0
C187 C 0.25646 0.13766 0.58082 0.0
C188 C 0.24519 0.1257 0.57844 0.0
C189 C 0.26488 0.10692 0.56113 0.0
C190 C 0.27655 0.11847 0.56444 0.0
H191 H 0.23302 0.12915 0.57906 0.0
H192 H 0.26811 0.09549 0.5465 0.0
H193 H 0.21344 0.12288 0.50116 0.0
H194 H 0.2435 0.11871 0.37007 0.0
H195 H 0.22733 0.05416 0.68373 0.0
H196 H 0.2527 0.14971 0.58593 0.0
H197 H 0.28862 0.11538 0.55588 0.0
C198 C 0.91788 0.2314 0.41801 0.0
C199 C 0.90536 0.23088 0.38418 0.0
N200 N 0.89392 0.22248 0.4073 0.0
N201 N 0.91437 0.22334 0.46215 0.0
C202 C 0.89973 0.21776 0.45422 0.0
H203 H 0.92845 0.23822 0.41244 0.0
Co204 Co 0.92659 0.22608 0.52092 0.0
C205 C 0.91388 0.20686 0.60973 0.0
O206 O 0.91668 0.21943 0.63836 0.0
N207 N 0.93984 0.22948 0.57856 0.0
C208 C 0.95871 0.22508 0.6372 0.0
C209 C 0.94885 0.21829 0.60096 0.0
C210 C 0.94464 0.24303 0.60124 0.0
N211 N 0.95609 0.24066 0.63705 0.0
O212 O 0.94326 0.21336 0.48698 0.0
H213 H 0.94854 0.20598 0.59048 0.0
H214 H 0.94061 0.25452 0.58977 0.0
O215 O 0.91675 0.20727 0.55952 0.0
C216 C 0.95405 0.22232 0.46817 0.0
O217 O 0.95302 0.23744 0.47802 0.0
N218 N 0.91094 0.2401 0.54721 0.0
C219 C 0.88732 0.26313 0.55419 0.0
C220 C 0.88426 0.24745 0.56754 0.0
C221 C 0.89608 0.23612 0.56307 0.0
C222 C 0.91408 0.2553 0.53412 0.0
C223 C 0.90263 0.267 0.53831 0.0
H224 H 0.8927 0.22405 0.56828 0.0
H225 H 0.92533 0.25824 0.517 0.0
H226 H 0.89299 0.21153 0.48367 0.0
H227 H 0.90447 0.23675 0.34646 0.0
H228 H 0.96738 0.21905 0.66092 0.0
H229 H 0.87253 0.24368 0.57801 0.0
H230 H 0.90567 0.27889 0.52732 0.0
C231 C 0.78558 0.92201 0.43987 0.0
C232 C 0.78904 0.91353 0.39562 0.0
N233 N 0.80182 0.90476 0.4059 0.0
N234 N 0.79608 0.91861 0.47789 0.0
C235 C 0.8059 0.90805 0.45631 0.0
H236 H 0.77581 0.92997 0.44465 0.0
Co237 Co 0.79369 0.92786 0.54193 0.0
C238 C 0.81254 0.9108 0.62279 0.0
O239 O 0.79958 0.91168 0.6507 0.0
N240 N 0.7905 0.93839 0.60593 0.0
C241 C 0.79508 0.95336 0.67623 0.0
C242 C 0.80181 0.94566 0.63433 0.0
C243 C 0.77698 0.94225 0.6305 0.0
N244 N 0.77944 0.95121 0.67352 0.0
O245 O 0.80666 0.94546 0.51652 0.0
H246 H 0.81416 0.94568 0.62437 0.0
H247 H 0.76545 0.93911 0.61675 0.0
O248 O 0.81251 0.91635 0.57519 0.0
C249 C 0.79811 0.95673 0.49913 0.0
O250 O 0.78291 0.95592 0.50746 0.0
N251 N 0.77965 0.91122 0.55969 0.0
C252 C 0.75681 0.88735 0.55754 0.0
C253 C 0.7728 0.88374 0.56268 0.0
C254 C 0.78403 0.89577 0.56258 0.0
C255 C 0.76417 0.91481 0.55262 0.0
C256 C 0.75256 0.90318 0.55297 0.0
H257 H 0.79622 0.89244 0.5611 0.0
H258 H 0.76085 0.92667 0.5426 0.0
H259 H 0.81572 0.90289 0.4771 0.0
H260 H 0.78237 0.9135 0.35925 0.0
H261 H 0.80113 0.96066 0.70476 0.0
H262 H 0.77669 0.87166 0.56479 0.0
H263 H 0.74046 0.9065 0.54622 0.0
C264 C 0.61056 0.7359 0.61582 0.0
C265 C 0.62374 0.73407 0.64625 0.0
N266 N 0.63348 0.72423 0.6208 0.0
N267 N 0.61205 0.72728 0.57149 0.0
C268 C 0.62607 0.72008 0.57585 0.0
H269 H 0.60093 0.7438 0.62381 0.0
Co270 Co 0.59874 0.73034 0.51582 0.0
C271 C 0.61148 0.71316 0.42233 0.0
O272 O 0.60786 0.726 0.39633 0.0
N273 N 0.58444 0.73391 0.46108 0.0
C274 C 0.56458 0.72907 0.40649 0.0
C275 C 0.57601 0.72245 0.43739 0.0
C276 C 0.57776 0.7474 0.44439 0.0
N277 N 0.56566 0.74476 0.41129 0.0
O278 O 0.58322 0.71637 0.54956 0.0
H279 H 0.57762 0.71003 0.44412 0.0
H280 H 0.58079 0.75891 0.45891 0.0
O281 O 0.60883 0.71268 0.47257 0.0
C282 C 0.57281 0.72482 0.57278 0.0
O283 O 0.57392 0.74013 0.568 0.0
N284 N 0.61328 0.74551 0.48998 0.0
C285 C 0.63566 0.76985 0.48709 0.0
C286 C 0.63957 0.75452 0.47142 0.0
C287 C 0.62833 0.74251 0.47385 0.0
C288 C 0.60932 0.76035 0.50514 0.0
C289 C 0.62012 0.77269 0.5028 0.0
H290 H 0.63231 0.73069 0.46717 0.0
H291 H 0.59807 0.76244 0.52341 0.0
H292 H 0.63126 0.71292 0.54518 0.0
H293 H 0.6262 0.73986 0.68343 0.0
H294 H 0.55582 0.72281 0.38369 0.0
H295 H 0.65151 0.75151 0.46091 0.0
H296 H 0.61643 0.78424 0.51559 0.0
C297 C 0.29146 0.60678 0.62675 0.0
C298 C 0.29245 0.61931 0.66045 0.0
N299 N 0.30135 0.63036 0.63729 0.0
N300 N 0.29969 0.60993 0.58268 0.0
C301 C 0.30581 0.62435 0.59037 0.0
H302 H 0.28437 0.5964 0.63257 0.0
Co303 Co 0.29715 0.59737 0.52477 0.0
C304 C 0.31528 0.61073 0.43458 0.0
O305 O 0.30265 0.60731 0.40697 0.0
N306 N 0.29398 0.58373 0.46787 0.0
C307 C 0.29877 0.56399 0.41284 0.0
C308 C 0.30543 0.57503 0.44537 0.0
C309 C 0.28047 0.57771 0.44846 0.0
N310 N 0.28309 0.5657 0.4151 0.0
O311 O 0.3108 0.58147 0.55833 0.0
H312 H 0.3178 0.5761 0.45439 0.0
H313 H 0.2689 0.58101 0.46153 0.0
O314 O 0.31528 0.60787 0.48475 0.0
C315 C 0.30241 0.57044 0.57839 0.0
O316 O 0.28718 0.57086 0.57018 0.0
N317 N 0.28227 0.61222 0.49907 0.0
C318 C 0.258 0.63458 0.49406 0.0
C319 C 0.27344 0.63849 0.47974 0.0
C320 C 0.28542 0.62727 0.48336 0.0
C321 C 0.26733 0.60828 0.51317 0.0
C322 C 0.25503 0.61909 0.50989 0.0
H323 H 0.29729 0.63126 0.47767 0.0
H324 H 0.26509 0.59696 0.53081 0.0
H325 H 0.31242 0.63074 0.56096 0.0
H326 H 0.28674 0.62041 0.69841 0.0
H327 H 0.3049 0.55491 0.3912 0.0
H328 H 0.27651 0.65042 0.46927 0.0
H329 H 0.24338 0.61543 0.52177 0.0
C330 C 0.42009 0.28653 0.62703 0.0
C331 C 0.40819 0.28841 0.66281 0.0
N332 N 0.39786 0.29871 0.6426 0.0
N333 N 0.41723 0.29559 0.58461 0.0
C334 C 0.4037 0.3031 0.59542 0.0
H335 H 0.42978 0.2784 0.63028 0.0
Co336 Co 0.42869 0.29303 0.52435 0.0
C337 C 0.41384 0.31135 0.43742 0.0
O338 O 0.41602 0.29848 0.40978 0.0
N339 N 0.44117 0.28996 0.46432 0.0
C340 C 0.45759 0.29545 0.39883 0.0
C341 C 0.44945 0.30152 0.4408 0.0
C342 C 0.44481 0.27688 0.43662 0.0
N343 N 0.45463 0.27995 0.39629 0.0
O344 O 0.44529 0.30635 0.55559 0.0
H345 H 0.44955 0.31364 0.45349 0.0
H346 H 0.44049 0.26529 0.44532 0.0
O347 O 0.41788 0.31145 0.48674 0.0
C348 C 0.45635 0.29785 0.57483 0.0
O349 O 0.45579 0.28267 0.56581 0.0
N350 N 0.41304 0.27852 0.50109 0.0
C351 C 0.38995 0.25499 0.50003 0.0
C352 C 0.38597 0.27069 0.49089 0.0
C353 C 0.39764 0.28228 0.49187 0.0
C354 C 0.41697 0.26326 0.51097 0.0
C355 C 0.40573 0.25127 0.50909 0.0
H356 H 0.3939 0.29433 0.48946 0.0
H357 H 0.42874 0.26048 0.52395 0.0
H358 H 0.39768 0.31071 0.56792 0.0
H359 H 0.40699 0.28235 0.7001 0.0
H360 H 0.46545 0.30185 0.37315 0.0
H361 H 0.37383 0.27407 0.48526 0.0
H362 H 0.40917 0.23935 0.51824 0.0
C363 C 0.72584 0.40722 0.6231 0.0
C364 C 0.71302 0.40249 0.65214 0.0
N365 N 0.69994 0.40639 0.62512 0.0
N366 N 0.72072 0.41394 0.57821 0.0
C367 C 0.70497 0.41336 0.58076 0.0
H368 H 0.73806 0.40591 0.63391 0.0
Co369 Co 0.73192 0.42341 0.52538 0.0
C370 C 0.70862 0.42193 0.43463 0.0
O371 O 0.71043 0.43696 0.42498 0.0
N372 N 0.74321 0.433 0.47158 0.0
C373 C 0.7567 0.43679 0.39772 0.0
C374 C 0.74746 0.42643 0.4252 0.0
C375 C 0.74991 0.44734 0.47133 0.0
N376 N 0.75819 0.44991 0.42691 0.0
O377 O 0.72084 0.44323 0.54191 0.0
H378 H 0.74412 0.41478 0.41233 0.0
H379 H 0.74889 0.45574 0.50316 0.0
O380 O 0.71617 0.41574 0.47305 0.0
C381 C 0.7281 0.44864 0.58265 0.0
O382 O 0.74077 0.44108 0.5979 0.0
N383 N 0.74392 0.40505 0.51655 0.0
C384 C 0.76484 0.37976 0.51468 0.0
C385 C 0.74884 0.37755 0.50283 0.0
C386 C 0.73851 0.39042 0.50388 0.0
C387 C 0.7593 0.40727 0.52945 0.0
C388 C 0.76996 0.39489 0.52807 0.0
H389 H 0.7262 0.38856 0.49574 0.0
H390 H 0.7633 0.4188 0.54129 0.0
H391 H 0.69729 0.41827 0.55101 0.0
H392 H 0.71331 0.3964 0.68956 0.0
H393 H 0.76156 0.43502 0.35871 0.0
H394 H 0.74438 0.36602 0.49279 0.0
H395 H 0.78209 0.39709 0.53876 0.0
C396 C 0.61289 0.28925 0.92339 0.0
C397 C 0.61551 0.29707 0.87684 0.0
N398 N 0.61527 0.31256 0.88725 0.0
N399 N 0.61105 0.29985 0.96244 0.0
C400 C 0.61269 0.31395 0.9394 0.0
H401 H 0.61111 0.27675 0.9278 0.0
Co402 Co 0.60145 0.29571 0.02526 0.0
C403 C 0.62016 0.31285 0.10636 0.0
O404 O 0.61996 0.29924 0.13067 0.0
N405 N 0.5904 0.29137 0.08758 0.0
C406 C 0.57495 0.29525 0.15719 0.0
C407 C 0.5861 0.30182 0.12514 0.0
C408 C 0.58099 0.27884 0.09629 0.0
N409 N 0.57172 0.28081 0.13877 0.0
O410 O 0.58358 0.30848 1.001 0.0
H411 H 0.58969 0.31397 0.12673 0.0
H412 H 0.57955 0.26925 0.06876 0.0
O413 O 0.61278 0.31408 0.06183 0.0
C414 C 0.57409 0.29956 0.9753 0.0
O415 O 0.57712 0.28444 0.9744 0.0
N416 N 0.61844 0.28178 0.04272 0.0
C417 C 0.64292 0.2597 0.04555 0.0
C418 C 0.64604 0.27559 0.03611 0.0
C419 C 0.63369 0.28641 0.03478 0.0
C420 C 0.61531 0.26628 0.05156 0.0
C421 C 0.62735 0.25515 0.05441 0.0
H422 H 0.63632 0.29843 0.02454 0.0
H423 H 0.60345 0.26209 0.05289 0.0
H424 H 0.61043 0.32497 0.95931 0.0
H425 H 0.61673 0.29186 0.83807 0.0
H426 H 0.56893 0.30105 0.18936 0.0
H427 H 0.6579 0.27955 0.02833 0.0
H428 H 0.62439 0.24291 0.06013 0.0
C429 C 0.73746 0.60872 0.90872 0.0
C430 C 0.73631 0.62078 0.87325 0.0
N431 N 0.7264 0.63152 0.8933 0.0
N432 N 0.72834 0.61188 0.95078 0.0
C433 C 0.72155 0.62578 0.9401 0.0
H434 H 0.74511 0.59864 0.90547 0.0
Co435 Co 0.72994 0.60007 1.01063 0.0
C436 C 0.71167 0.61525 0.09688 0.0
O437 O 0.72432 0.61256 0.12516 0.0
N438 N 0.73197 0.58725 0.0703 0.0
C439 C 0.72521 0.57106 0.1351 0.0
C440 C 0.71986 0.57945 0.09259 0.0
C441 C 0.74464 0.58304 0.09918 0.0
N442 N 0.74079 0.57336 0.13909 0.0
O443 O 0.71626 0.58417 0.97739 0.0
H444 H 0.70785 0.5799 0.07879 0.0
H445 H 0.75648 0.58688 0.09164 0.0
O446 O 0.7117 0.61147 0.04732 0.0
C447 C 0.72454 0.5728 0.95915 0.0
O448 O 0.73963 0.57272 0.97006 0.0
N449 N 0.74495 0.61491 0.03576 0.0
C450 C 0.76971 0.63684 0.03757 0.0
C451 C 0.75418 0.64145 0.04796 0.0
C452 C 0.74199 0.63041 0.04609 0.0
C453 C 0.75997 0.61026 0.02568 0.0
C454 C 0.7725 0.62087 0.02764 0.0
H455 H 0.73013 0.63475 0.04856 0.0
H456 H 0.76215 0.59839 1.01248 0.0
H457 H 0.71406 0.63205 0.96738 0.0
H458 H 0.74252 0.62174 0.83617 0.0
H459 H 0.71827 0.56348 0.16015 0.0
H460 H 0.75125 0.65369 0.05383 0.0
H461 H 0.7842 0.61662 1.0192 0.0
C462 C 0.41372 0.73414 0.92175 0.0
C463 C 0.40015 0.73251 0.89329 0.0
N464 N 0.39072 0.72256 0.91945 0.0
N465 N 0.41284 0.72523 0.96556 0.0
C466 C 0.39871 0.71812 0.96288 0.0
H467 H 0.42319 0.74213 0.91282 0.0
Co468 Co 0.42692 0.7281 1.01947 0.0
C469 C 0.4159 0.70967 0.11297 0.0
O470 O 0.42015 0.72205 0.14054 0.0
N471 N 0.44189 0.73159 0.07201 0.0
C472 C 0.46264 0.72721 0.12302 0.0
C473 C 0.45111 0.72033 0.093 0.0
C474 C 0.44819 0.74523 0.08924 0.0
N475 N 0.46082 0.74288 0.12027 0.0
O476 O 0.4422 0.71467 0.982 0.0
H477 H 0.44989 0.7079 0.08521 0.0
H478 H 0.44439 0.75669 0.07667 0.0
O479 O 0.41764 0.70994 0.06226 0.0
C480 C 0.4513 0.72366 0.95523 0.0
O481 O 0.44962 0.73889 0.96131 0.0
N482 N 0.41256 0.7428 0.04895 0.0
C483 C 0.38975 0.76655 0.05703 0.0
C484 C 0.38662 0.75122 0.07437 0.0
C485 C 0.39801 0.73948 0.06903 0.0
C486 C 0.41581 0.75769 0.03246 0.0
C487 C 0.40474 0.76973 0.03682 0.0
H488 H 0.39443 0.72761 0.07698 0.0
H489 H 0.42661 0.75998 1.01149 0.0
H490 H 0.3939 0.7108 0.99375 0.0
H491 H 0.39724 0.7385 0.85693 0.0
H492 H 0.47189 0.72115 0.14403 0.0
H493 H 0.37518 0.7481 0.0897 0.0
H494 H 0.4076 0.78117 1.02098 0.0
C495 C 0.29145 0.41527 0.92484 0.0
C496 C 0.2937 0.40272 0.89182 0.0
N497 N 0.304 0.39296 0.91505 0.0
N498 N 0.30026 0.41336 0.96855 0.0
C499 C 0.30801 0.39976 0.96122 0.0
H500 H 0.28314 0.42469 0.91903 0.0
Co501 Co 0.29688 0.42553 0.02686 0.0
C502 C 0.31473 0.41194 0.11747 0.0
O503 O 0.30174 0.41447 0.14407 0.0
N504 N 0.29297 0.43867 0.08462 0.0
C505 C 0.29722 0.45648 0.1472 0.0
C506 C 0.30413 0.44715 0.10969 0.0
C507 C 0.27932 0.44339 0.1067 0.0
N508 N 0.28161 0.45409 0.14512 0.0
O509 O 0.31018 0.44205 0.99554 0.0
H510 H 0.31652 0.44678 0.10047 0.0
H511 H 0.26786 0.43944 0.09456 0.0
O512 O 0.31507 0.41543 0.06777 0.0
C513 C 0.3014 0.4525 0.97404 0.0
O514 O 0.28614 0.45109 0.98018 0.0
N515 N 0.28236 0.40999 0.05026 0.0
C516 C 0.25898 0.38675 0.05175 0.0
C517 C 0.27459 0.38307 0.064 0.0
C518 C 0.28612 0.3948 0.06273 0.0
C519 C 0.26722 0.41359 0.03731 0.0
C520 C 0.25529 0.40231 0.03931 0.0
H521 H 0.29815 0.39121 0.06758 0.0
H522 H 0.26453 0.42505 1.02148 0.0
H523 H 0.31544 0.39433 0.99066 0.0
H524 H 0.28785 0.40065 0.8545 0.0
H525 H 0.30316 0.46487 0.1724 0.0
H526 H 0.27797 0.37108 0.07234 0.0
H527 H 0.24348 0.4055 0.02759 0.0
H528 H 0.16015 0.27086 0.05504 0.0
H529 H 0.18015 0.29108 0.06844 0.0
H530 H 0.16573 0.31359 0.92382 0.0
H531 H 0.14504 0.29379 0.9122 0.0
H532 H 0.20472 0.29904 1.01951 0.0
H533 H 0.16573 0.35085 1.01585 0.0
H534 H 0.15815 0.33111 1.01674 0.0
H535 H 0.16442 0.3399 0.95561 0.0
C536 C 0.16126 0.28015 0.02616 0.0
C537 C 0.15106 0.28078 0.9826 0.0
C538 C 0.17269 0.29173 0.03383 0.0
C539 C 0.17436 0.30415 0.99777 0.0
C540 C 0.16442 0.30452 0.95331 0.0
H541 H 0.26029 0.36066 0.98986 0.0
H542 H 0.23993 0.34078 0.97636 0.0
C543 C 0.1527 0.29311 0.94629 0.0
C544 C 0.18673 0.31638 1.00653 0.0
H545 H 0.1932 0.35598 1.01132 0.0
C546 C 0.20213 0.3115 1.01804 0.0
C547 C 0.18344 0.33269 1.00573 0.0
C548 C 0.16701 0.33895 0.9984 0.0
C549 C 0.21424 0.32232 0.02838 0.0
C550 C 0.21114 0.33863 0.02469 0.0
C551 C 0.19572 0.34353 1.0136 0.0
C552 C 0.22361 0.3508 0.03263 0.0
C553 C 0.23007 0.31604 0.04486 0.0
C554 C 0.22111 0.36356 0.067 0.0
C555 C 0.23259 0.3752 0.0735 0.0
C556 C 0.24694 0.37421 0.04645 0.0
C557 C 0.24947 0.36151 1.01211 0.0
C558 C 0.23785 0.35007 1.00465 0.0
H559 H 0.22899 0.30429 0.06344 0.0
H560 H 0.2376 0.31472 1.00946 0.0
H561 H 0.23601 0.32403 0.07322 0.0
H562 H 0.21024 0.36451 0.08891 0.0
H563 H 0.23032 0.38494 0.09993 0.0
H564 H 0.66377 0.25562 0.9652 0.0
H565 H 0.68321 0.23472 0.95475 0.0
H566 H 0.67041 0.21615 0.10708 0.0
H567 H 0.65037 0.2366 0.11619 0.0
H568 H 0.70835 0.22694 1.00276 0.0
H569 H 0.66743 0.17699 0.02434 0.0
H570 H 0.66064 0.19694 1.01907 0.0
H571 H 0.66721 0.18932 0.08166 0.0
C572 C 0.66515 0.24708 0.99648 0.0
C573 C 0.65552 0.24769 0.04142 0.0
C574 C 0.67625 0.2351 0.99046 0.0
C575 C 0.67811 0.22353 0.02951 0.0
C576 C 0.66888 0.22452 0.07542 0.0
H577 H 0.76162 0.16444 0.04848 0.0
H578 H 0.74204 0.18525 0.05661 0.0
C579 C 0.65753 0.23631 0.08092 0.0
C580 C 0.68987 0.21068 1.02231 0.0
H581 H 0.69474 0.17089 0.02816 0.0
C582 C 0.7053 0.21468 1.00798 0.0
C583 C 0.68595 0.19459 0.02792 0.0
C584 C 0.66937 0.18919 0.0385 0.0
C585 C 0.71689 0.20317 0.99987 0.0
C586 C 0.71321 0.18715 1.00856 0.0
C587 C 0.69772 0.18313 1.02211 0.0
C588 C 0.72517 0.17438 1.00383 0.0
C589 C 0.73282 0.20838 0.98059 0.0
C590 C 0.72206 0.16088 0.97341 0.0
C591 C 0.73311 0.14873 0.96997 0.0
C592 C 0.7476 0.14995 0.99622 0.0
C593 C 0.75069 0.16338 0.02681 0.0
C594 C 0.73952 0.17534 0.03119 0.0
H595 H 0.73205 0.21963 0.95862 0.0
H596 H 0.74066 0.21035 1.01498 0.0
H597 H 0.73825 0.19946 0.9544 0.0
H598 H 0.71107 0.15974 0.95217 0.0
H599 H 0.73041 0.13845 0.94645 0.0
H600 H 0.77411 0.66418 0.09435 0.0
H601 H 0.7942 0.68433 0.0812 0.0
H602 H 0.81503 0.65645 0.95773 0.0
H603 H 0.79457 0.63676 0.96829 0.0
H604 H 0.82553 0.68394 0.09066 0.0
H605 H 0.81057 0.69758 0.88306 0.0
H606 H 0.79811 0.68566 0.92424 0.0
H607 H 0.81501 0.67722 0.89246 0.0
C608 C 0.78284 0.66239 0.06393 0.0
C609 C 0.78257 0.64876 0.03234 0.0
C610 C 0.79441 0.67391 0.0567 0.0
C611 C 0.80599 0.67212 1.01768 0.0
C612 C 0.80603 0.65835 0.98717 0.0
H613 H 0.8913 0.72373 0.93956 0.0
H614 H 0.87057 0.7039 0.94986 0.0
C615 C 0.79441 0.64691 0.99402 0.0
C616 C 0.81814 0.68452 1.00937 0.0
H617 H 0.8347 0.70816 0.91546 0.0
C618 C 0.82744 0.68928 0.0524 0.0
C619 C 0.82064 0.69162 0.95947 0.0
C620 C 0.81045 0.68789 0.91232 0.0
C621 C 0.83932 0.70065 0.04665 0.0
C622 C 0.842 0.70744 0.99664 0.0
C623 C 0.83269 0.7028 0.95366 0.0
C624 C 0.8543 0.71958 0.9886 0.0
C625 C 0.8491 0.70524 0.09388 0.0
C626 C 0.8519 0.735 1.00622 0.0
C627 C 0.86365 0.74636 1.00008 0.0
C628 C 0.87809 0.74251 0.97637 0.0
C629 C 0.88036 0.72706 0.95813 0.0
C630 C 0.86853 0.71574 0.96388 0.0
H631 H 0.84682 0.69759 0.12849 0.0
H632 H 0.86178 0.70466 0.08394 0.0
H633 H 0.8464 0.71754 0.10506 0.0
H634 H 0.84099 0.7382 0.02531 0.0
H635 H 0.86158 0.75805 1.01537 0.0
H636 H 0.39232 0.79829 0.07577 0.0
H637 H 0.37194 0.81836 0.06656 0.0
H638 H 0.33826 0.78269 0.02448 0.0
H639 H 0.35855 0.7626 0.03243 0.0
H640 H 0.35364 0.82519 0.97427 0.0
H641 H 0.31636 0.80765 0.14398 0.0
H642 H 0.33647 0.80128 0.13697 0.0
H643 H 0.32121 0.79212 0.09878 0.0
C644 C 0.38058 0.79468 0.06454 0.0
C645 C 0.37712 0.77874 0.05522 0.0
C646 C 0.36893 0.80618 0.05944 0.0
C647 C 0.35353 0.80203 0.04536 0.0
C648 C 0.34998 0.78616 0.03636 0.0
H649 H 0.27879 0.86397 0.93028 0.0
H650 H 0.29872 0.84331 0.93898 0.0
C651 C 0.36162 0.77465 0.04122 0.0
C652 C 0.34129 0.81433 0.03862 0.0
H653 H 0.30621 0.8273 0.08743 0.0
C654 C 0.34327 0.82566 0.99899 0.0
C655 C 0.32781 0.81499 0.07111 0.0
C656 C 0.32532 0.80346 0.11543 0.0
C657 C 0.33206 0.83754 0.9907 0.0
C658 C 0.31847 0.83805 1.02268 0.0
C659 C 0.31656 0.82681 0.06262 0.0
C660 C 0.30639 0.85054 1.01676 0.0
C661 C 0.33498 0.84964 0.94848 0.0
C662 C 0.30392 0.86132 0.05781 0.0
C663 C 0.29258 0.87309 0.05295 0.0
C664 C 0.28333 0.87432 1.00701 0.0
C665 C 0.2857 0.86337 0.96612 0.0
C666 C 0.29715 0.85163 0.9709 0.0
H667 H 0.34732 0.84945 0.9344 0.0
H668 H 0.32718 0.84723 0.91429 0.0
H669 H 0.33224 0.8616 0.96335 0.0
H670 H 0.31082 0.86064 0.09369 0.0
H671 H 0.29087 0.88109 0.08569 0.0
H672 H 0.13887 0.72542 0.57806 0.0
H673 H 0.15904 0.70507 0.56977 0.0
H674 H 0.18972 0.73819 0.49306 0.0
H675 H 0.16975 0.75859 0.50199 0.0
H676 H 0.17228 0.6923 0.48378 0.0
H677 H 0.21886 0.72085 0.60302 0.0
H678 H 0.19887 0.72783 0.60245 0.0
H679 H 0.21209 0.73296 0.54986 0.0
C680 C 0.14995 0.72838 0.55968 0.0
C681 C 0.15274 0.7437 0.54125 0.0
C682 C 0.16148 0.71674 0.55498 0.0
C683 C 0.17606 0.72012 0.53165 0.0
C684 C 0.17879 0.73536 0.51266 0.0
H685 H 0.25298 0.65968 0.4275 0.0
H686 H 0.23311 0.68036 0.43558 0.0
C687 C 0.16733 0.74703 0.51775 0.0
C688 C 0.18818 0.70759 0.52566 0.0
H689 H 0.22647 0.69842 0.55296 0.0
C690 C 0.1841 0.69365 0.49914 0.0
C691 C 0.20364 0.70924 0.54584 0.0
C692 C 0.2086 0.72346 0.57734 0.0
C693 C 0.19506 0.6815 0.49171 0.0
C694 C 0.21051 0.68331 0.51106 0.0
C695 C 0.21463 0.69716 0.53768 0.0
C696 C 0.22239 0.67068 0.50556 0.0
C697 C 0.19016 0.66675 0.46315 0.0
C698 C 0.22294 0.65843 0.5423 0.0
C699 C 0.23434 0.64667 0.53817 0.0
C700 C 0.24545 0.64685 0.49696 0.0
C701 C 0.24476 0.65917 0.45998 0.0
C702 C 0.23336 0.67098 0.46435 0.0
H703 H 0.17796 0.66747 0.44775 0.0
H704 H 0.19826 0.66446 0.42974 0.0
H705 H 0.19097 0.65661 0.49045 0.0
H706 H 0.21463 0.65806 0.5746 0.0
H707 H 0.23465 0.63764 0.56814 0.0
H708 H 0.38648 0.22773 0.44404 0.0
H709 H 0.36603 0.20764 0.45457 0.0
H710 H 0.34607 0.23422 0.58313 0.0
H711 H 0.36585 0.25468 0.57019 0.0
H712 H 0.35911 0.1885 0.52735 0.0
H713 H 0.30708 0.22644 0.50485 0.0
H714 H 0.32663 0.23345 0.49158 0.0
H715 H 0.31914 0.23323 0.55815 0.0
C716 C 0.37755 0.22932 0.47397 0.0
C717 C 0.37755 0.24284 0.5057 0.0
C718 C 0.3659 0.21783 0.48018 0.0
C719 C 0.35415 0.21949 0.51888 0.0
C720 C 0.3545 0.23285 0.55158 0.0
H721 H 0.29939 0.13849 0.62996 0.0
H722 H 0.31912 0.15921 0.61851 0.0
C723 C 0.3659 0.24451 0.54448 0.0
C724 C 0.34193 0.20703 0.52619 0.0
H725 H 0.30251 0.20113 0.54227 0.0
C726 C 0.34672 0.19128 0.5301 0.0
C727 C 0.32566 0.21047 0.52893 0.0
C728 C 0.31932 0.2268 0.52005 0.0
C729 C 0.33584 0.17901 0.53717 0.0
C730 C 0.31967 0.18257 0.5431 0.0
C731 C 0.31487 0.1983 0.53862 0.0
C732 C 0.30744 0.1702 0.5521 0.0
C733 C 0.34186 0.16236 0.53638 0.0
C734 C 0.29379 0.16984 0.52073 0.0
C735 C 0.28226 0.15837 0.52866 0.0
C736 C 0.28418 0.14683 0.56765 0.0
C737 C 0.2977 0.1472 0.5994 0.0
C738 C 0.30907 0.15894 0.59236 0.0
H739 H 0.35306 0.16144 0.51417 0.0
H740 H 0.3442 0.15849 0.57742 0.0
H741 H 0.33322 0.15422 0.51818 0.0
H742 H 0.29213 0.17833 0.48947 0.0
H743 H 0.27199 0.15827 0.50337 0.0
H744 H 0.76149 0.35055 0.55909 0.0
H745 H 0.78162 0.33008 0.56781 0.0
H746 H 0.814 0.35856 0.4789 0.0
H747 H 0.79411 0.37907 0.47105 0.0
H748 H 0.79844 0.31244 0.49848 0.0
H749 H 0.83916 0.35068 0.61072 0.0
H750 H 0.81908 0.35615 0.59767 0.0
H751 H 0.83394 0.35892 0.54808 0.0
C752 C 0.77285 0.35235 0.54096 0.0
C753 C 0.77626 0.36651 0.51493 0.0
C754 C 0.78438 0.34068 0.54615 0.0
C755 C 0.79951 0.34294 0.52531 0.0
C756 C 0.80262 0.35673 0.4969 0.0
H757 H 0.88299 0.2871 0.48298 0.0
H758 H 0.8615 0.30601 0.47891 0.0
C759 C 0.7912 0.36842 0.49215 0.0
C760 C 0.81212 0.33102 0.5335 0.0
H761 H 0.8498 0.32659 0.57826 0.0
C762 C 0.8096 0.31551 0.51639 0.0
C763 C 0.82669 0.33494 0.55733 0.0
C764 C 0.82984 0.35103 0.58001 0.0
C765 C 0.82142 0.30404 0.52086 0.0
C766 C 0.8361 0.30815 0.54295 0.0
C767 C 0.83855 0.32352 0.56095 0.0
C768 C 0.84922 0.29672 0.54652 0.0
C769 C 0.81834 0.28764 0.50094 0.0
C770 C 0.84955 0.28534 0.58644 0.0
C771 C 0.862 0.27462 0.58956 0.0
C772 C 0.87437 0.27502 0.55265 0.0
C773 C 0.87394 0.28655 0.51286 0.0
C774 C 0.86156 0.29732 0.51005 0.0
H775 H 0.80667 0.28655 0.48157 0.0
H776 H 0.82758 0.28418 0.47233 0.0
H777 H 0.81887 0.27928 0.53443 0.0
H778 H 0.84019 0.28478 0.61524 0.0
H779 H 0.86196 0.26608 0.62112 0.0
H780 H 0.72759 0.88592 0.60277 0.0
H781 H 0.70746 0.86564 0.59083 0.0
H782 H 0.73832 0.84038 0.48609 0.0
H783 H 0.75854 0.8604 0.49872 0.0
H784 H 0.69209 0.85652 0.50451 0.0
H785 H 0.72509 0.80548 0.58158 0.0
H786 H 0.73186 0.82538 0.59023 0.0
H787 H 0.7352 0.81519 0.52894 0.0
C788 C 0.73012 0.87597 0.57751 0.0
C789 C 0.74476 0.87471 0.5522 0.0
C790 C 0.7186 0.86438 0.57071 0.0
C791 C 0.72142 0.85127 0.5383 0.0
C792 C 0.73598 0.85007 0.5126 0.0
H793 H 0.66146 0.77498 0.42343 0.0
H794 H 0.68218 0.79469 0.43466 0.0
C795 C 0.74755 0.86157 0.5198 0.0
C796 C 0.70891 0.83922 0.52979 0.0
H797 H 0.70121 0.79982 0.53614 0.0
C798 C 0.69409 0.84414 0.51175 0.0
C799 C 0.71144 0.82301 0.53918 0.0
C800 C 0.7267 0.81695 0.56155 0.0
C801 C 0.68188 0.83335 0.50231 0.0
C802 C 0.6845 0.81719 0.51113 0.0
C803 C 0.69928 0.81222 0.52896 0.0
C804 C 0.67184 0.80535 0.50381 0.0
C805 C 0.66627 0.83925 0.48246 0.0
C806 C 0.65923 0.80473 0.53918 0.0
C807 C 0.64747 0.79336 0.53339 0.0
C808 C 0.64798 0.78236 0.49175 0.0
C809 C 0.66067 0.78311 0.4562 0.0
C810 C 0.67252 0.79442 0.46237 0.0
H811 H 0.66693 0.85162 0.46888 0.0
H812 H 0.66198 0.83181 0.44941 0.0
H813 H 0.65751 0.83856 0.51475 0.0
H814 H 0.6586 0.81291 0.5719 0.0
H815 H 0.6382 0.79299 0.56252 0.0
H816 H 0.9554 0.19675 0.39909 0.0
H817 H 0.97592 0.19147 0.33242 0.0
H818 H 1.00222 0.23134 0.38894 0.0
H819 H 0.98223 0.23641 0.45498 0.0
H820 H 0.98615 0.21041 0.25009 0.0
H821 H 0.03659 0.19923 0.38114 0.0
H822 H 0.01663 0.19901 0.40496 0.0
H823 H 0.02715 0.21728 0.39855 0.0
C824 C 0.96578 0.20409 0.39814 0.0
C825 C 0.96716 0.21693 0.43299 0.0
C826 C 0.97747 0.20117 0.35961 0.0
C827 C 0.99089 0.21085 0.35569 0.0
C828 C 0.99232 0.2234 0.39141 0.0
H829 H 0.06044 0.24567 0.15412 0.0
H830 H 0.0406 0.23815 0.21791 0.0
C831 C 0.98073 0.22634 0.42929 0.0
C832 C 1.00307 0.20875 0.31302 0.0
H833 H 0.04293 0.20865 0.29335 0.0
C834 C 0.99853 0.20959 0.2596 0.0
C835 C 0.01935 0.20765 0.3247 0.0
C836 C 0.0252 0.20557 0.38046 0.0
C837 C 1.00976 0.21041 0.21847 0.0
C838 C 0.026 0.21037 0.23064 0.0
C839 C 0.03052 0.20871 0.28368 0.0
C840 C 0.0383 0.2143 0.19024 0.0
C841 C 1.00426 0.21224 0.16228 0.0
C842 C 0.04393 0.20333 0.15297 0.0
C843 C 0.05563 0.2076 0.11588 0.0
C844 C 0.06177 0.22297 0.11505 0.0
C845 C 0.05604 0.23375 0.15275 0.0
C846 C 0.04462 0.22948 0.1897 0.0
H847 H 0.99126 0.21186 0.15886 0.0
H848 H 1.00853 0.22359 0.14629 0.0
H849 H 1.00932 0.20275 0.13753 0.0
H850 H 0.03932 0.19149 0.15262 0.0
H851 H 0.0597 0.19897 0.08763 0.0
H852 H 0.82461 0.9578 0.43475 0.0
H853 H 0.83121 0.97821 0.36926 0.0
H854 H 0.79094 1.00505 0.41848 0.0
H855 H 0.78453 0.9851 0.48344 0.0
H856 H 0.81359 0.98872 0.28363 0.0
H857 H 0.82403 0.03881 0.41719 0.0
H858 H 0.82351 0.01882 0.44062 0.0
H859 H 0.80555 0.02964 0.4311 0.0
C860 C 0.81744 0.96826 0.43251 0.0
C861 C 0.80412 0.96981 0.46502 0.0
C862 C 0.82113 0.97989 0.39463 0.0
C863 C 0.81173 0.99342 0.38899 0.0
C864 C 0.79867 0.99503 0.42236 0.0
H865 H 0.78413 0.0673 0.19001 0.0
H866 H 0.79001 0.04757 0.25622 0.0
C867 C 0.79496 0.98348 0.45964 0.0
C868 C 0.81474 1.00556 0.34689 0.0
H869 H 0.81649 0.04536 0.3278 0.0
C870 C 0.81461 1.00107 0.29336 0.0
C871 C 0.81615 0.02178 0.35896 0.0
C872 C 0.81749 0.02753 0.41512 0.0
C873 C 0.81477 1.01231 0.2522 0.0
C874 C 0.81518 0.02854 0.26452 0.0
C875 C 0.81613 0.03297 0.31793 0.0
C876 C 0.8125 0.04106 0.22361 0.0
C877 C 0.81354 1.0068 0.19579 0.0
C878 C 0.82334 0.04443 0.18298 0.0
C879 C 0.82004 0.05606 0.14459 0.0
C880 C 0.80575 0.06438 0.1458 0.0
C881 C 0.79521 0.06111 0.18723 0.0
C882 C 0.79856 0.04978 0.22549 0.0
H883 H 0.81185 0.99391 0.19282 0.0
H884 H 0.80359 0.01274 0.17575 0.0
H885 H 0.82444 1.00998 0.17435 0.0
H886 H 0.83429 0.03803 0.18079 0.0
H887 H 0.82841 0.05819 0.11327 0.0
H888 H 0.07228 0.82366 0.40597 0.0
H889 H 0.05179 0.82936 0.33954 0.0
H890 H 0.02339 0.79193 0.40228 0.0
H891 H 0.0434 0.78646 0.46819 0.0
H892 H 0.04025 0.8102 0.26032 0.0
H893 H 0.9909 0.82575 0.39054 0.0
H894 H 1.01089 0.82504 0.41412 0.0
H895 H 0.99929 0.80736 0.40988 0.0
C896 C 0.06145 0.817 0.40652 0.0
C897 C 0.05948 0.80471 0.44308 0.0
C898 C 0.04978 0.82014 0.3681 0.0
C899 C 0.03579 0.81124 0.3659 0.0
C900 C 0.03376 0.79929 0.40337 0.0
H901 H 0.96083 0.78065 0.1745 0.0
H902 H 0.98094 0.78744 0.2388 0.0
C903 C 0.04534 0.79611 0.44121 0.0
C904 C 0.02362 0.81351 0.32318 0.0
H905 H 0.98381 0.81587 0.30395 0.0
C906 C 0.02796 0.81183 0.26983 0.0
C907 C 1.00747 0.8157 0.33491 0.0
C908 C 1.00189 0.81873 0.39046 0.0
C909 C 0.01662 0.81124 0.22889 0.0
C910 C 1.00043 0.81243 0.24118 0.0
C911 C 0.99616 0.8149 0.29413 0.0
C912 C 0.98773 0.80913 0.20121 0.0
C913 C 0.02193 0.80842 0.17297 0.0
C914 C 0.98442 0.8192 0.15838 0.0
C915 C 0.97258 0.81538 0.12112 0.0
C916 C 0.96397 0.80132 0.12566 0.0
C917 C 0.96722 0.79153 0.16915 0.0
C918 C 0.97877 0.79541 0.20631 0.0
H919 H 0.03479 0.80646 0.17028 0.0
H920 H 0.01576 0.79805 0.15621 0.0
H921 H 0.01884 0.81872 0.14833 0.0
H922 H 0.99103 0.82996 0.15365 0.0
H923 H 0.97048 0.82318 0.08816 0.0
H924 H 0.20295 0.06621 0.43002 0.0
H925 H 0.19597 0.04586 0.36427 0.0
H926 H 0.23833 0.02068 0.40243 0.0
H927 H 0.24515 0.04054 0.46745 0.0
H928 H 0.21273 0.03634 0.27376 0.0
H929 H 0.20638 0.98564 0.40694 0.0
H930 H 0.20637 1.0056 0.43096 0.0
H931 H 0.22462 0.99561 0.41828 0.0
C932 C 0.21054 0.05613 0.42519 0.0
C933 C 0.22456 0.05502 0.45457 0.0
C934 C 0.20662 0.04454 0.38721 0.0
C935 C 0.2165 0.03149 0.37849 0.0
C936 C 0.23027 0.03033 0.40873 0.0
H937 H 0.24582 0.96097 0.17234 0.0
H938 H 0.23949 0.98054 0.23853 0.0
C939 C 0.23421 0.04183 0.44601 0.0
C940 C 0.21318 0.01935 0.33648 0.0
H941 H 0.21298 0.97956 0.31619 0.0
C942 C 0.21235 0.02394 0.28317 0.0
C943 C 0.21262 1.00308 0.34816 0.0
C944 C 0.21238 0.9972 0.40425 0.0
C945 C 0.21211 0.01276 0.24169 0.0
C946 C 0.21264 0.99652 0.25348 0.0
C947 C 0.21258 0.99196 0.30677 0.0
C948 C 0.2157 0.98427 0.21193 0.0
C949 C 0.2123 0.01835 0.18531 0.0
C950 C 0.20434 0.97948 0.1745 0.0
C951 C 0.20791 0.96792 0.13599 0.0
C952 C 0.22299 0.96114 0.13385 0.0
C953 C 0.23412 0.96595 0.17193 0.0
C954 C 0.23052 0.97719 0.21027 0.0
H955 H 0.21241 0.03136 0.18244 0.0
H956 H 0.22281 0.01365 0.16481 0.0
H957 H 0.20179 0.01382 0.16432 0.0
H958 H 0.19274 0.98465 0.17508 0.0
H959 H 0.19905 0.96457 0.10745 0.0
H960 H 0.06775 0.74911 0.61572 0.0
H961 H 0.05067 0.73081 0.66336 0.0
H962 H 0.04814 0.76351 0.7933 0.0
H963 H 0.06554 0.78143 0.74695 0.0
H964 H 0.04757 0.73131 0.82518 0.0
H965 H 1.00449 0.74379 0.66429 0.0
H966 H 0.02292 0.73442 0.64995 0.0
H967 H 0.0225 0.75487 0.66733 0.0
C968 C 0.06393 0.75214 0.65513 0.0
C969 C 0.06768 0.76685 0.67731 0.0
C970 C 0.05412 0.74171 0.68214 0.0
C971 C 0.04795 0.74591 0.73144 0.0
C972 C 0.05278 0.76001 0.75526 0.0
H973 H 0.99516 0.78041 0.92004 0.0
H974 H 0.01408 0.76253 0.88078 0.0
C975 C 0.06254 0.77036 0.72849 0.0
C976 C 0.03454 0.73753 0.75531 0.0
H977 H 0.99488 0.74187 0.75014 0.0
C978 C 0.03597 0.73285 0.80818 0.0
C979 C 0.0194 0.739 0.73274 0.0
C980 C 0.01709 0.74325 0.67546 0.0
C981 C 0.02282 0.73258 0.84129 0.0
C982 C 1.00813 0.73724 0.82075 0.0
C983 C 1.00627 0.73871 0.76602 0.0
C984 C 0.99669 0.74565 0.85419 0.0
C985 C 0.02506 0.72925 0.89917 0.0
C986 C 0.98058 0.7422 0.8521 0.0
C987 C 0.9697 0.75257 0.87447 0.0
C988 C 0.97483 0.76665 0.89782 0.0
C989 C 0.99094 0.76974 0.90151 0.0
C990 C 1.00176 0.75935 0.88004 0.0
H991 H 0.03392 0.71985 0.90487 0.0
H992 H 0.02954 0.73997 0.91913 0.0
H993 H 0.01387 0.72568 0.91817 0.0
H994 H 0.97642 0.73187 0.83136 0.0
H995 H 0.95728 0.75 0.87132 0.0
H996 H 0.27698 0.94811 0.89412 0.0
H997 H 0.29636 0.96539 0.85159 0.0
H998 H 0.26503 1.00467 0.87347 0.0
H999 H 0.24611 0.9877 0.91619 0.0
H1000 H 0.29124 0.9798 0.76105 0.0
H1001 H 0.30581 0.02644 0.89973 0.0
H1002 H 0.29943 1.00731 0.92214 0.0
H1003 H 0.28534 0.02269 0.90914 0.0
C1004 C 0.27451 0.96053 0.89084 0.0
C1005 C 0.25999 0.96658 0.90761 0.0
C1006 C 0.28559 0.97037 0.86689 0.0
C1007 C 0.28237 0.98641 0.86049 0.0
C1008 C 0.26811 0.99247 0.87946 0.0
H1009 H 0.24448 0.03232 0.67025 0.0
H1010 H 0.2627 0.01379 0.70888 0.0
C1011 C 0.25708 0.98269 0.90283 0.0
C1012 C 0.2919 0.99646 0.82532 0.0
H1013 H 0.29445 0.03596 0.81092 0.0
C1014 C 0.29282 0.992 0.77209 0.0
C1015 C 0.29501 1.01223 0.83917 0.0
C1016 C 0.29654 0.01733 0.8959 0.0
C1017 C 0.29291 1.00343 0.73243 0.0
C1018 C 0.29163 0.01939 0.74706 0.0
C1019 C 0.29462 0.02368 0.7996 0.0
C1020 C 0.28206 0.03028 0.71498 0.0
C1021 C 0.29215 0.9983 0.67556 0.0
C1022 C 0.28667 0.04589 0.70643 0.0
C1023 C 0.27603 0.05665 0.6849 0.0
C1024 C 0.26058 0.05199 0.67275 0.0
C1025 C 0.2562 0.0363 0.68007 0.0
C1026 C 0.26678 0.0256 0.70104 0.0
H1027 H 0.30031 0.98834 0.66869 0.0
H1028 H 0.28012 0.99407 0.66634 0.0
H1029 H 0.29517 1.00803 0.64832 0.0
H1030 H 0.29828 0.04983 0.71794 0.0
H1031 H 0.27965 0.06873 0.67962 0.0
H1032 H 0.98649 0.23896 0.66528 0.0
H1033 H 1.0012 0.2578 0.71742 0.0
H1034 H 0.9609 0.28844 0.72283 0.0
H1035 H 0.94579 0.26912 0.67113 0.0
H1036 H 1.00788 0.29132 0.70201 0.0
H1037 H 0.97185 0.27916 0.88025 0.0
H1038 H 0.96967 0.26605 0.82482 0.0
H1039 H 0.96327 0.28606 0.81941 0.0
C1040 C 0.9807 0.24965 0.67758 0.0
C1041 C 0.96492 0.25242 0.66498 0.0
C1042 C 0.98918 0.26055 0.70668 0.0
C1043 C 0.98215 0.27454 0.72382 0.0
C1044 C 0.96653 0.27771 0.70989 0.0
H1045 H 0.06572 0.2761 0.90679 0.0
H1046 H 0.04468 0.29356 0.87595 0.0
C1047 C 0.95796 0.2667 0.68041 0.0
C1048 C 0.99116 0.2844 0.76106 0.0
H1049 H 0.99953 0.27936 0.89097 0.0
C1050 C 1.00591 0.28964 0.74392 0.0
C1051 C 0.98836 0.28282 0.81571 0.0
C1052 C 0.97241 0.27832 0.83654 0.0
C1053 C 0.01882 0.28948 0.7783 0.0
C1054 C 0.01656 0.28429 0.83066 0.0
C1055 C 1.00123 0.28288 0.85025 0.0
C1056 C 0.02877 0.27464 0.85623 0.0
C1057 C 0.03503 0.29219 0.75625 0.0
C1058 C 0.02665 0.2583 0.85611 0.0
C1059 C 0.03849 0.24839 0.87368 0.0
C1060 C 0.05279 0.25458 0.89167 0.0
C1061 C 0.05479 0.27101 0.89323 0.0
C1062 C 0.04284 0.28099 0.87557 0.0
H1063 H 0.03464 0.29734 0.71603 0.0
H1064 H 0.04172 0.30022 0.78247 0.0
H1065 H 0.04146 0.28088 0.75427 0.0
H1066 H 0.01592 0.25314 0.84087 0.0
H1067 H 0.03642 0.23587 0.87297 0.0
H1068 H 0.78745 0.03322 0.92891 0.0
H1069 H 0.76926 0.01438 0.89075 0.0
H1070 H 0.73505 0.05105 0.86752 0.0
H1071 H 0.75359 0.07024 0.90512 0.0
H1072 H 0.73641 1.00571 0.91423 0.0
H1073 H 0.74464 0.03366 0.71734 0.0
H1074 H 0.75777 0.03901 0.77027 0.0
H1075 H 0.7375 0.04469 0.7731 0.0
C1076 C 0.77609 0.03731 0.91569 0.0
C1077 C 0.77206 0.05323 0.9189 0.0
C1078 C 0.76558 0.0265 0.8947 0.0
C1079 C 0.75082 0.03134 0.87638 0.0
C1080 C 0.7464 0.04711 0.88149 0.0
H1081 H 0.75069 0.96139 0.64255 0.0
H1082 H 0.73307 0.97832 0.69317 0.0
C1083 C 0.75698 0.05802 0.90285 0.0
C1084 C 0.74147 0.01987 0.84597 0.0
H1085 H 0.74329 1.0062 0.72019 0.0
C1086 C 0.73712 1.00593 0.8715 0.0
C1087 C 0.74183 0.02031 0.79026 0.0
C1088 C 0.74562 0.0352 0.76077 0.0
C1089 C 0.73611 0.9918 0.84333 0.0
C1090 C 0.73979 0.99179 0.78901 0.0
C1091 C 0.74092 1.00615 0.76223 0.0
C1092 C 0.74733 0.97805 0.76388 0.0
C1093 C 0.73292 0.97683 0.87292 0.0
C1094 C 0.761 0.97194 0.78722 0.0
C1095 C 0.77109 0.96239 0.75837 0.0
C1096 C 0.76777 0.95878 0.70556 0.0
C1097 C 0.75352 0.9639 0.68334 0.0
C1098 C 0.74341 0.97355 0.71223 0.0
H1099 H 0.7237 0.97877 0.9032 0.0
H1100 H 0.72911 0.96724 0.84602 0.0
H1101 H 0.74373 0.97311 0.89393 0.0
H1102 H 0.76458 0.97557 0.82641 0.0
H1103 H 0.7819 0.95843 0.77655 0.0
H1104 H 0.57149 0.69782 0.63495 0.0
H1105 H 0.55068 0.69082 0.69876 0.0
H1106 H 0.52409 0.73135 0.65059 0.0
H1107 H 0.54443 0.73818 0.58757 0.0
H1108 H 0.53954 0.70867 0.78503 0.0
H1109 H 0.49053 0.69778 0.64731 0.0
H1110 H 0.51072 0.69823 0.62576 0.0
H1111 H 0.49984 0.71621 0.63371 0.0
C1112 C 0.561 0.70496 0.63712 0.0
C1113 C 0.55963 0.71851 0.60566 0.0
C1114 C 0.54915 0.70105 0.67399 0.0
C1115 C 0.53558 0.71043 0.67937 0.0
C1116 C 0.53416 0.72368 0.64688 0.0
H1117 H 0.46106 0.73966 0.86953 0.0
H1118 H 0.48128 0.733 0.80587 0.0
C1119 C 0.54592 0.72762 0.61076 0.0
C1120 C 0.52319 0.70726 0.72039 0.0
H1121 H 0.48324 0.70571 0.73584 0.0
C1122 C 0.52726 0.70759 0.77426 0.0
C1123 C 0.50708 0.7058 0.70687 0.0
C1124 C 0.5018 0.70432 0.65024 0.0
C1125 C 0.51569 0.70765 0.81435 0.0
C1126 C 0.49956 0.70727 0.80052 0.0
C1127 C 0.49555 0.70604 0.74682 0.0
C1128 C 0.48675 0.71045 0.83993 0.0
C1129 C 0.52072 0.70914 0.87119 0.0
C1130 C 0.48267 0.69985 0.88048 0.0
C1131 C 0.47076 0.70361 0.91739 0.0
C1132 C 0.46289 0.71812 0.91473 0.0
C1133 C 0.46689 0.72843 0.87341 0.0
C1134 C 0.4785 0.72463 0.83662 0.0
H1135 H 0.53364 0.71043 0.87537 0.0
H1136 H 0.51493 0.71945 0.88966 0.0
H1137 H 0.51696 0.69855 0.89326 0.0
H1138 H 0.48873 0.68873 0.88373 0.0
H1139 H 0.46805 0.69541 0.94867 0.0
H1140 H 0.32926 0.455 0.91664 0.0
H1141 H 0.33594 0.4754 0.85118 0.0
H1142 H 0.29271 0.49944 0.8865 0.0
H1143 H 0.28624 0.47959 0.9515 0.0
H1144 H 0.32046 0.48348 0.76093 0.0
H1145 H 0.32233 0.53595 0.88801 0.0
H1146 H 0.32268 0.51634 0.91478 0.0
H1147 H 0.30431 0.52549 0.89757 0.0
C1148 C 0.32142 0.46487 0.91135 0.0
C1149 C 0.30725 0.46563 0.93984 0.0
C1150 C 0.32517 0.4765 0.87355 0.0
C1151 C 0.31497 0.48925 0.86404 0.0
C1152 C 0.30105 0.49009 0.89352 0.0
H1153 H 0.29 0.5415 0.59165 0.0
H1154 H 0.29618 0.522 0.65837 0.0
C1155 C 0.2973 0.47856 0.93073 0.0
C1156 C 0.31799 0.50114 0.82116 0.0
H1157 H 0.31655 0.54064 0.79561 0.0
C1158 C 0.31989 0.49597 0.76881 0.0
C1159 C 0.31757 0.51757 0.8307 0.0
C1160 C 0.31679 0.52416 0.88591 0.0
C1161 C 0.32034 0.5066 0.72603 0.0
C1162 C 0.31855 0.52295 0.73525 0.0
C1163 C 0.3177 0.52818 0.78786 0.0
C1164 C 0.31602 0.53455 0.69112 0.0
C1165 C 0.32257 0.50011 0.67116 0.0
C1166 C 0.325 0.54844 0.68657 0.0
C1167 C 0.32143 0.55981 0.64772 0.0
C1168 C 0.30864 0.55765 0.61317 0.0
C1169 C 0.3 0.54359 0.61718 0.0
C1170 C 0.3036 0.53229 0.65541 0.0
H1171 H 0.32942 0.48902 0.67201 0.0
H1172 H 0.31092 0.49741 0.6537 0.0
H1173 H 0.3287 0.50862 0.64521 0.0
H1174 H 0.33457 0.55064 0.71376 0.0
H1175 H 0.32817 0.57059 0.64647 0.0
H1176 H 0.54705 0.28407 0.95468 0.0
H1177 H 0.52721 0.28985 0.88823 0.0
H1178 H 0.55065 0.33337 0.85206 0.0
H1179 H 0.57093 0.3274 0.9188 0.0
H1180 H 0.50591 0.3127 0.87131 0.0
H1181 H 0.54933 0.31265 0.70781 0.0
H1182 H 0.55432 0.30629 0.77356 0.0
H1183 H 0.55269 0.32686 0.75907 0.0
C1184 C 0.54791 0.29504 0.93329 0.0
C1185 C 0.56064 0.30527 0.94238 0.0
C1186 C 0.53649 0.29833 0.89503 0.0
C1187 C 0.53742 0.31192 0.86391 0.0
C1188 C 0.54972 0.32263 0.87456 0.0
H1189 H 0.4568 0.32451 0.63898 0.0
H1190 H 0.47636 0.33103 0.70762 0.0
C1191 C 0.56121 0.31935 0.9134 0.0
C1192 C 0.52582 0.31415 0.81943 0.0
H1193 H 0.52278 0.3152 0.68446 0.0
C1194 C 0.50963 0.31349 0.83049 0.0
C1195 C 0.53052 0.31499 0.76579 0.0
C1196 C 0.54763 0.31512 0.75049 0.0
C1197 C 0.49817 0.31314 0.79001 0.0
C1198 C 0.50288 0.31372 0.73635 0.0
C1199 C 0.51905 0.31489 0.72533 0.0
C1200 C 0.4915 0.31117 0.69137 0.0
C1201 C 0.48115 0.31126 0.80514 0.0
C1202 C 0.49368 0.29833 0.65735 0.0
C1203 C 0.48264 0.29472 0.61807 0.0
C1204 C 0.46902 0.30387 0.61088 0.0
C1205 C 0.46715 0.31724 0.64304 0.0
C1206 C 0.47826 0.32084 0.68286 0.0
H1207 H 0.47975 0.30788 0.84719 0.0
H1208 H 0.47495 0.32256 0.79901 0.0
H1209 H 0.47536 0.30223 0.78015 0.0
H1210 H 0.50371 0.29067 0.66241 0.0
H1211 H 0.48459 0.28436 0.59413 0.0
H1212 H 0.70191 0.57471 0.88008 0.0
H1213 H 0.6964 0.55485 0.8112 0.0
H1214 H 0.7289 0.52314 0.88587 0.0
H1215 H 0.73437 0.54269 0.95376 0.0
H1216 H 0.71864 0.54095 0.73963 0.0
H1217 H 0.69079 0.49495 0.86088 0.0
H1218 H 0.69248 0.51504 0.88299 0.0
H1219 H 0.70884 0.5018 0.88934 0.0
C1220 C 0.7075 0.56333 0.88255 0.0
C1221 C 0.71843 0.56025 0.92302 0.0
C1222 C 0.70448 0.55202 0.84278 0.0
C1223 C 0.71211 0.53732 0.84325 0.0
C1224 C 0.72262 0.53418 0.88467 0.0
H1225 H 0.73851 0.45612 0.68036 0.0
H1226 H 0.73182 0.47809 0.73643 0.0
C1227 C 0.72575 0.54544 0.92369 0.0
C1228 C 0.71 0.52541 0.79975 0.0
H1229 H 0.70267 0.4863 0.77965 0.0
C1230 C 0.71478 0.52909 0.74805 0.0
C1231 C 0.70495 0.50986 0.81022 0.0
C1232 C 0.69882 0.5052 0.86375 0.0
C1233 C 0.71569 0.51749 0.70801 0.0
C1234 C 0.71153 0.50174 0.71951 0.0
C1235 C 0.70591 0.4983 0.7704 0.0
C1236 C 0.71505 0.48831 0.68259 0.0
C1237 C 0.72202 0.52193 0.65458 0.0
C1238 C 0.70777 0.48638 0.63279 0.0
C1239 C 0.7116 0.47347 0.59975 0.0
C1240 C 0.72286 0.46234 0.61578 0.0
C1241 C 0.72988 0.46438 0.66584 0.0
C1242 C 0.72603 0.47703 0.69849 0.0
H1243 H 0.72641 0.53421 0.65363 0.0
H1244 H 0.73174 0.51393 0.64321 0.0
H1245 H 0.71259 0.5207 0.62461 0.0
H1246 H 0.69909 0.49477 0.61959 0.0
H1247 H 0.70591 0.47232 0.5617 0.0
H1248 H 0.5434 0.29019 0.17331 0.0
H1249 H 0.52201 0.2736 0.20399 0.0
H1250 H 0.54941 0.23223 0.17065 0.0
H1251 H 0.57114 0.24902 0.13939 0.0
H1252 H 0.50751 0.24247 0.14212 0.0
H1253 H 0.53468 0.23611 0.34028 0.0
H1254 H 0.54027 0.25331 0.30355 0.0
H1255 H 0.54575 0.23424 0.27972 0.0
C1256 C 0.54492 0.27759 0.17255 0.0
C1257 C 0.55898 0.27087 0.15478 0.0
C1258 C 0.53265 0.26812 0.18946 0.0
C1259 C 0.53419 0.25175 0.18927 0.0
C1260 C 0.54804 0.24486 0.1706 0.0
H1261 H 0.46234 0.2496 0.41562 0.0
H1262 H 0.47824 0.2326 0.35877 0.0
C1263 C 0.56038 0.25441 0.153 0.0
C1264 C 0.52143 0.24255 0.21316 0.0
H1265 H 0.50688 0.24035 0.33748 0.0
C1266 C 0.50737 0.24114 0.18468 0.0
C1267 C 0.52135 0.24032 0.26828 0.0
C1268 C 0.53634 0.24093 0.29995 0.0
C1269 C 0.49295 0.24035 0.21109 0.0
C1270 C 0.49277 0.24154 0.26676 0.0
C1271 C 0.50693 0.23987 0.29471 0.0
C1272 C 0.47961 0.24929 0.29466 0.0
C1273 C 0.47802 0.24 0.17911 0.0
C1274 C 0.47475 0.26414 0.27708 0.0
C1275 C 0.46577 0.27382 0.30938 0.0
C1276 C 0.46154 0.26893 0.36018 0.0
C1277 C 0.4654 0.25364 0.37651 0.0
C1278 C 0.47445 0.24391 0.34405 0.0
H1279 H 0.47929 0.23178 0.14529 0.0
H1280 H 0.46778 0.23636 0.20326 0.0
H1281 H 0.47577 0.25183 0.16251 0.0
H1282 H 0.47891 0.26885 0.23998 0.0
H1283 H 0.46275 0.28544 0.29555 0.0
H1284 H 0.73456 0.56617 0.24024 0.0
H1285 H 0.75019 0.54935 0.29755 0.0
H1286 H 0.78624 0.54668 0.17846 0.0
H1287 H 0.77045 0.56345 0.12057 0.0
H1288 H 0.77348 0.51841 0.20416 0.0
H1289 H 0.78988 0.54914 0.38744 0.0
H1290 H 0.76986 0.5532 0.37035 0.0
H1291 H 0.78538 0.55944 0.32691 0.0
C1292 C 0.74597 0.56228 0.22684 0.0
C1293 C 0.75121 0.56589 0.17583 0.0
C1294 C 0.75503 0.5529 0.25992 0.0
C1295 C 0.76949 0.54695 0.24255 0.0
C1296 C 0.77523 0.55136 0.19286 0.0
H1297 H 0.78515 0.45316 0.37197 0.0
H1298 H 0.79505 0.47747 0.3322 0.0
C1299 C 0.76619 0.56089 0.15984 0.0
C1300 C 0.77649 0.53361 0.27126 0.0
H1301 H 0.78336 0.52113 0.39682 0.0
C1302 C 0.77624 0.51898 0.24594 0.0
C1303 C 0.78013 0.53447 0.32556 0.0
C1304 C 0.78149 0.54997 0.35394 0.0
C1305 C 0.77748 0.50502 0.27469 0.0
C1306 C 0.77957 0.50583 0.33013 0.0
C1307 C 0.78162 0.52052 0.35444 0.0
C1308 C 0.77648 0.49203 0.36385 0.0
C1309 C 0.77483 0.48966 0.24608 0.0
C1310 C 0.76351 0.49241 0.39798 0.0
C1311 C 0.7581 0.47867 0.42149 0.0
C1312 C 0.76545 0.46431 0.41071 0.0
C1313 C 0.77914 0.4641 0.37987 0.0
C1314 C 0.78477 0.47794 0.35721 0.0
H1315 H 0.77101 0.4914 0.20455 0.0
H1316 H 0.78592 0.48286 0.24546 0.0
H1317 H 0.76576 0.48255 0.26648 0.0
H1318 H 0.75693 0.50315 0.40372 0.0
H1319 H 0.74752 0.47911 0.44507 0.0
H1320 H 0.57224 0.77447 0.38016 0.0
H1321 H 0.554 0.79287 0.33731 0.0
H1322 H 0.51679 0.75873 0.35282 0.0
H1323 H 0.53466 0.74082 0.39619 0.0
H1324 H 0.54085 0.78785 0.24551 0.0
H1325 H 0.49194 0.79737 0.37939 0.0
H1326 H 0.51113 0.79182 0.40367 0.0
H1327 H 0.49674 0.77706 0.3863 0.0
C1328 C 0.56004 0.77117 0.37549 0.0
C1329 C 0.55487 0.75616 0.39067 0.0
C1330 C 0.54964 0.78168 0.3513 0.0
C1331 C 0.53391 0.77738 0.34293 0.0
C1332 C 0.5287 0.76262 0.36034 0.0
H1333 H 0.49201 0.74017 0.13477 0.0
H1334 H 0.5092 0.75864 0.17894 0.0
C1335 C 0.53902 0.75218 0.38407 0.0
C1336 C 0.52351 0.78643 0.3074 0.0
H1337 H 0.48408 0.78664 0.28778 0.0
C1338 C 0.52846 0.78842 0.25504 0.0
C1339 C 0.50741 0.78826 0.31944 0.0
C1340 C 0.50161 0.78871 0.37555 0.0
C1341 C 0.51747 0.78844 0.21383 0.0
C1342 C 0.50146 0.78592 0.22584 0.0
C1343 C 0.49644 0.78773 0.27823 0.0
C1344 C 0.49138 0.77653 0.19006 0.0
C1345 C 0.52326 0.78913 0.15773 0.0
C1346 C 0.47547 0.7802 0.18218 0.0
C1347 C 0.46546 0.76934 0.15765 0.0
C1348 C 0.47119 0.75462 0.14147 0.0
C1349 C 0.4872 0.75129 0.14761 0.0
C1350 C 0.49714 0.76206 0.1718 0.0
H1351 H 0.53254 0.79824 0.154 0.0
H1352 H 0.52865 0.77772 0.1469 0.0
H1353 H 0.51362 0.79179 0.1296 0.0
H1354 H 0.4707 0.79114 0.19682 0.0
H1355 H 0.45314 0.77217 0.15346 0.0
H1356 H 0.25533 0.57326 0.37 0.0
H1357 H 0.23673 0.5549 0.32773 0.0
H1358 H 0.26646 0.51616 0.37275 0.0
H1359 H 0.28485 0.53431 0.41393 0.0
H1360 H 0.24653 0.53617 0.24417 0.0
H1361 H 0.22275 0.49787 0.398 0.0
H1362 H 0.22893 0.51784 0.41125 0.0
H1363 H 0.24292 0.50195 0.41289 0.0
C1364 C 0.25761 0.56077 0.37148 0.0
C1365 C 0.27155 0.55511 0.39425 0.0
C1366 C 0.24698 0.55034 0.34784 0.0
C1367 C 0.25001 0.53416 0.34826 0.0
C1368 C 0.26362 0.52855 0.37328 0.0
H1369 H 0.2843 0.46496 0.24427 0.0
H1370 H 0.26658 0.48305 0.28861 0.0
C1371 C 0.27429 0.53892 0.39589 0.0
C1372 C 0.24115 0.52313 0.31446 0.0
H1373 H 0.23393 0.48393 0.31858 0.0
C1374 C 0.2429 0.5249 0.25982 0.0
C1375 C 0.2359 0.50863 0.33474 0.0
C1376 C 0.23234 0.50656 0.39251 0.0
C1377 C 0.24291 0.51173 0.22655 0.0
C1378 C 0.2409 0.49668 0.24907 0.0
C1379 C 0.23588 0.49545 0.30164 0.0
C1380 C 0.2492 0.48309 0.22605 0.0
C1381 C 0.24749 0.51382 0.16949 0.0
C1382 C 0.24506 0.47668 0.17695 0.0
C1383 C 0.25537 0.46644 0.15117 0.0
C1384 C 0.26989 0.46253 0.17433 0.0
C1385 C 0.27336 0.46804 0.22514 0.0
C1386 C 0.26313 0.47821 0.25073 0.0
H1387 H 0.2482 0.52638 0.15809 0.0
H1388 H 0.2591 0.50831 0.16226 0.0
H1389 H 0.23875 0.50796 0.14358 0.0
H1390 H 0.23431 0.48021 0.15747 0.0
H1391 H 0.25239 0.46233 0.11197 0.0
H1392 H 0.21266 0.15006 0.47558 0.0
H1393 H 0.19815 0.17139 0.43283 0.0
H1394 H 0.20688 0.15031 0.28072 0.0
H1395 H 0.22136 0.12909 0.32303 0.0
H1396 H 0.21059 0.18331 0.28321 0.0
H1397 H 0.15416 0.16297 0.37108 0.0
H1398 H 0.16975 0.1676 0.4164 0.0
H1399 H 0.17171 0.15116 0.3725 0.0
C1400 C 0.21144 0.15002 0.43306 0.0
C1401 C 0.21793 0.13789 0.4025 0.0
C1402 C 0.20326 0.16219 0.4088 0.0
C1403 C 0.20138 0.16224 0.35388 0.0
C1404 C 0.2083 0.15044 0.32323 0.0
H1405 H 0.13187 0.1937 0.14326 0.0
H1406 H 0.15089 0.18 0.19874 0.0
C1407 C 0.21654 0.13835 0.34736 0.0
C1408 C 0.1913 0.17385 0.3279 0.0
H1409 H 0.1529 0.18358 0.31012 0.0
C1410 C 0.19799 0.18358 0.28945 0.0
C1411 C 0.17491 0.17394 0.3362 0.0
C1412 C 0.16712 0.16331 0.37598 0.0
C1413 C 0.18857 0.19305 0.2574 0.0
C1414 C 0.17215 0.19283 0.26489 0.0
C1415 C 0.16553 0.18359 0.30476 0.0
C1416 C 0.16145 0.20124 0.22952 0.0
C1417 C 0.19611 0.20261 0.21424 0.0
C1418 C 0.16129 0.21765 0.22852 0.0
C1419 C 0.15057 0.22548 0.19655 0.0
C1420 C 0.13977 0.21699 0.16558 0.0
C1421 C 0.14014 0.20053 0.16624 0.0
C1422 C 0.15089 0.19271 0.19812 0.0
H1423 H 0.20856 0.19927 0.20773 0.0
H1424 H 0.18959 0.20118 0.17656 0.0
H1425 H 0.19577 0.21522 0.22522 0.0
H1426 H 0.16928 0.22437 0.25303 0.0
H1427 H 0.15072 0.23817 0.1962 0.0
H1428 H 0.78164 0.15872 0.16979 0.0
H1429 H 0.78919 0.18412 0.20738 0.0
H1430 H 0.83761 0.17454 0.16869 0.0
H1431 H 0.82997 0.14945 0.12998 0.0
H1432 H 0.80594 0.18589 0.29137 0.0
H1433 H 0.83691 0.22039 0.14223 0.0
H1434 H 0.82413 0.2043 0.12414 0.0
H1435 H 0.84461 0.20089 0.13887 0.0
C1436 C 0.79384 0.16228 0.16837 0.0
C1437 C 0.80533 0.15214 0.14797 0.0
C1438 C 0.7981 0.1768 0.18938 0.0
C1439 C 0.81393 0.18133 0.19044 0.0
C1440 C 0.82526 0.17157 0.16695 0.0
H1441 H 0.87623 0.19646 0.414 0.0
H1442 H 0.85155 0.19161 0.36764 0.0
C1443 C 0.82096 0.15715 0.14532 0.0
C1444 C 0.81915 0.19442 0.22452 0.0
H1445 H 0.84917 0.22057 0.23227 0.0
C1446 C 0.815 0.19392 0.27814 0.0
C1447 C 0.83049 0.20536 0.20742 0.0
C1448 C 0.8341 0.20786 0.14981 0.0
C1449 C 0.82353 0.2024 0.31584 0.0
C1450 C 0.83674 0.21113 0.2994 0.0
C1451 C 0.83935 0.21346 0.24524 0.0
C1452 C 0.84955 0.21522 0.3363 0.0
C1453 C 0.81894 0.20107 0.3731 0.0
C1454 C 0.85664 0.23006 0.33427 0.0
C1455 C 0.87094 0.23264 0.35968 0.0
C1456 C 0.87829 0.22046 0.38765 0.0
C1457 C 0.87069 0.20599 0.39281 0.0
C1458 C 0.85651 0.20331 0.36678 0.0
H1459 H 0.80596 0.2006 0.37705 0.0
H1460 H 0.82368 0.18997 0.38951 0.0
H1461 H 0.82348 0.21107 0.39682 0.0
H1462 H 0.85152 0.23937 0.31089 0.0
H1463 H 0.87651 0.24402 0.35612 0.0
H1464 H 0.81849 0.87884 0.43182 0.0
H1465 H 0.83035 0.86008 0.37057 0.0
H1466 H 0.81252 0.88662 0.23873 0.0
H1467 H 0.80128 0.90577 0.29932 0.0
H1468 H 0.81536 0.84181 0.28975 0.0
H1469 H 0.85987 0.88356 0.21078 0.0
H1470 H 0.84903 0.88741 0.27052 0.0
H1471 H 0.83978 0.88988 0.20736 0.0
C1472 C 0.8173 0.8808 0.38983 0.0
C1473 C 0.80902 0.89381 0.3704 0.0
C1474 C 0.82389 0.87 0.35499 0.0
C1475 C 0.82232 0.8721 0.3004 0.0
C1476 C 0.81394 0.88494 0.28083 0.0
H1477 H 0.87457 0.81949 0.06312 0.0
H1478 H 0.85347 0.83565 0.09963 0.0
C1479 C 0.80743 0.89578 0.31555 0.0
C1480 C 0.82987 0.86105 0.26398 0.0
H1481 H 0.86006 0.85796 0.17679 0.0
C1482 C 0.82504 0.84532 0.26459 0.0
C1483 C 0.84234 0.86582 0.23098 0.0
C1484 C 0.84818 0.88255 0.22992 0.0
C1485 C 0.8328 0.83402 0.2342 0.0
C1486 C 0.84575 0.83867 0.20324 0.0
C1487 C 0.85004 0.85453 0.20052 0.0
C1488 C 0.85645 0.82718 0.17942 0.0
C1489 C 0.82735 0.81719 0.2364 0.0
C1490 C 0.86496 0.81711 0.21239 0.0
C1491 C 0.87711 0.80809 0.19195 0.0
C1492 C 0.88099 0.80907 0.13823 0.0
C1493 C 0.87203 0.81873 0.10486 0.0
C1494 C 0.85988 0.8278 0.12543 0.0
H1495 H 0.81471 0.81642 0.24685 0.0
H1496 H 0.82926 0.81114 0.19811 0.0
H1497 H 0.83411 0.8109 0.26725 0.0
H1498 H 0.86275 0.81684 0.25447 0.0
H1499 H 0.88391 0.80093 0.21875 0.0
H1500 H 0.21958 0.88166 0.24054 0.0
H1501 H 0.21147 0.8561 0.27219 0.0
H1502 H 0.2124 0.83798 0.11306 0.0
H1503 H 0.22066 0.86385 0.08084 0.0
H1504 H 0.18515 0.83274 0.15957 0.0
H1505 H 0.23084 0.81403 0.29839 0.0
H1506 H 0.22639 0.83417 0.31175 0.0
H1507 H 0.23448 0.82872 0.24848 0.0
C1508 C 0.21846 0.87217 0.21235 0.0
C1509 C 0.22072 0.87476 0.15826 0.0
C1510 C 0.21398 0.85748 0.23057 0.0
C1511 C 0.21181 0.84499 0.19519 0.0
C1512 C 0.21431 0.84741 0.14107 0.0
H1513 H 0.1435 0.77899 0.32548 0.0
H1514 H 0.16673 0.78448 0.27188 0.0
C1515 C 0.21878 0.86221 0.1227 0.0
C1516 C 0.20428 0.83053 0.21473 0.0
H1517 H 0.20321 0.80868 0.32709 0.0
C1518 C 0.18933 0.82691 0.19491 0.0
C1519 C 0.20986 0.82278 0.26031 0.0
C1520 C 0.22637 0.82504 0.28044 0.0
C1521 C 0.17897 0.81752 0.22375 0.0
C1522 C 0.18386 0.81157 0.27315 0.0
C1523 C 0.19945 0.81352 0.28958 0.0
C1524 C 0.1722 0.80623 0.31188 0.0
C1525 C 0.16235 0.81548 0.20404 0.0
C1526 C 0.16811 0.81634 0.35343 0.0
C1527 C 0.15482 0.81331 0.38383 0.0
C1528 C 0.14545 0.80018 0.37277 0.0
C1529 C 0.15029 0.78946 0.33373 0.0
C1530 C 0.1636 0.79246 0.30348 0.0
H1531 H 0.16024 0.8217 0.16619 0.0
H1532 H 0.15987 0.80282 0.19787 0.0
H1533 H 0.1539 0.81996 0.2338 0.0
H1534 H 0.17464 0.82708 0.36021 0.0
H1535 H 0.15137 0.8217 0.41375 0.0
H1536 H 0.9191 0.81774 0.81888 0.0
H1537 H 0.90326 0.83616 0.76858 0.0
H1538 H 0.88084 0.85162 0.91183 0.0
H1539 H 0.89698 0.83306 0.96309 0.0
H1540 H 0.87208 0.83661 0.75546 0.0
H1541 H 0.89034 0.89342 0.84286 0.0
H1542 H 0.90102 0.87546 0.8544 0.0
H1543 H 0.88325 0.87946 0.89016 0.0
C1544 C 0.91097 0.82517 0.84018 0.0
C1545 C 0.90945 0.82384 0.89545 0.0
C1546 C 0.90182 0.83575 0.81102 0.0
C1547 C 0.89078 0.84549 0.83582 0.0
C1548 C 0.88943 0.84452 0.89135 0.0
H1549 H 0.81823 0.90901 0.72758 0.0
H1550 H 0.83775 0.8937 0.77463 0.0
C1551 C 0.89869 0.83387 0.92085 0.0
C1552 C 0.88035 0.85595 0.80268 0.0
H1553 H 0.86886 0.89407 0.78315 0.0
C1554 C 0.87147 0.84919 0.76146 0.0
C1555 C 0.87945 0.87243 0.80981 0.0
C1556 C 0.88912 0.88069 0.85134 0.0
C1557 C 0.86155 0.85824 0.7286 0.0
C1558 C 0.86058 0.87473 0.73588 0.0
C1559 C 0.86956 0.88151 0.77686 0.0
C1560 C 0.84936 0.88493 0.7048 0.0
C1561 C 0.85173 0.84991 0.6876 0.0
C1562 C 0.84939 0.88571 0.64898 0.0
C1563 C 0.83801 0.89465 0.62132 0.0
C1564 C 0.82635 0.90299 0.64892 0.0
C1565 C 0.82686 0.90266 0.7046 0.0
C1566 C 0.83814 0.89387 0.7319 0.0
H1567 H 0.85097 0.8371 0.69527 0.0
H1568 H 0.83965 0.85477 0.68632 0.0
H1569 H 0.85715 0.85156 0.64821 0.0
H1570 H 0.85809 0.87927 0.62669 0.0
H1571 H 0.83801 0.89456 0.57859 0.0
H1572 H 0.13676 0.83583 0.57327 0.0
H1573 H 0.15203 0.85442 0.62843 0.0
H1574 H 0.12815 0.83766 0.76704 0.0
H1575 H 0.11311 0.81939 0.71308 0.0
H1576 H 0.14311 0.87894 0.7057 0.0
H1577 H 0.17477 0.83003 0.80263 0.0
H1578 H 0.16392 0.82748 0.74194 0.0
H1579 H 0.15377 0.82817 0.80405 0.0
C1580 C 0.13456 0.83638 0.6153 0.0
C1581 C 0.12372 0.82598 0.63853 0.0
C1582 C 0.14338 0.84693 0.64701 0.0
C1583 C 0.14159 0.84725 0.70247 0.0
C1584 C 0.13014 0.83749 0.72484 0.0
H1585 H 0.19066 0.89182 0.97388 0.0
H1586 H 0.17202 0.87684 0.9183 0.0
C1587 C 0.12143 0.82705 0.69358 0.0
C1588 C 0.15177 0.85729 0.73788 0.0
H1589 H 0.17794 0.85525 0.84088 0.0
C1590 C 0.15081 0.87374 0.73492 0.0
C1591 C 0.16173 0.85065 0.77689 0.0
C1592 C 0.16377 0.83312 0.78148 0.0
C1593 C 0.15925 0.8836 0.77003 0.0
C1594 C 0.16932 0.87695 0.80887 0.0
C1595 C 0.17022 0.8605 0.8118 0.0
C1596 C 0.17978 0.8868 0.84416 0.0
C1597 C 0.15691 0.9011 0.76592 0.0
C1598 C 0.19043 0.89746 0.8218 0.0
C1599 C 0.20094 0.90601 0.85336 0.0
C1600 C 0.20139 0.9042 0.90872 0.0
C1601 C 0.19056 0.89373 0.93165 0.0
C1602 C 0.17997 0.88506 0.89968 0.0
H1603 H 0.14529 0.90397 0.74851 0.0
H1604 H 0.15784 0.90688 0.8051 0.0
H1605 H 0.16605 0.90609 0.73967 0.0
H1606 H 0.191 0.89887 0.7794 0.0
H1607 H 0.20907 0.91386 0.83384 0.0
H1608 H 0.21035 0.10901 0.73751 0.0
H1609 H 0.19145 0.12463 0.78655 0.0
H1610 H 0.17398 0.14405 0.64096 0.0
H1611 H 0.19301 0.12805 0.59098 0.0
H1612 H 0.18971 0.15567 0.79486 0.0
H1613 H 0.1331 0.13409 0.71458 0.0
H1614 H 0.15141 0.12403 0.70295 0.0
H1615 H 0.14643 0.14117 0.66523 0.0
C1616 C 0.20237 0.11642 0.71548 0.0
C1617 C 0.20328 0.11716 0.65994 0.0
C1618 C 0.19152 0.12545 0.74389 0.0
C1619 C 0.18108 0.13561 0.71806 0.0
C1620 C 0.18162 0.13614 0.66228 0.0
H1621 H 0.11543 0.20684 0.82367 0.0
H1622 H 0.13115 0.18755 0.77695 0.0
C1623 C 0.19254 0.12696 0.63352 0.0
C1624 C 0.17041 0.14605 0.75037 0.0
H1625 H 0.13195 0.15621 0.77151 0.0
C1626 C 0.17707 0.15568 0.7898 0.0
C1627 C 0.15385 0.1462 0.74443 0.0
C1628 C 0.14571 0.13573 0.70489 0.0
C1629 C 0.16783 0.16558 0.82214 0.0
C1630 C 0.15127 0.16577 0.81614 0.0
C1631 C 0.14459 0.15609 0.77683 0.0
C1632 C 0.14082 0.17681 0.84698 0.0
C1633 C 0.17602 0.17617 0.86124 0.0
C1634 C 0.14043 0.17718 0.90282 0.0
C1635 C 0.13127 0.1884 0.93026 0.0
C1636 C 0.12228 0.19953 0.90244 0.0
C1637 C 0.12225 0.19862 0.8468 0.0
C1638 C 0.13127 0.18748 0.8197 0.0
H1639 H 0.18873 0.1774 0.85237 0.0
H1640 H 0.17064 0.18803 0.86155 0.0
H1641 H 0.1749 0.17112 0.90137 0.0
H1642 H 0.14737 0.1689 0.92527 0.0
H1643 H 0.13165 0.18871 0.97296 0.0
H1644 H 0.83968 0.12997 0.9776 0.0
H1645 H 0.85808 0.14491 0.92119 0.0
H1646 H 0.83814 0.12322 0.78287 0.0
H1647 H 0.82016 0.10835 0.83786 0.0
H1648 H 0.88076 0.1335 0.83437 0.0
H1649 H 0.83313 0.17186 0.75897 0.0
H1650 H 0.83143 0.16103 0.81992 0.0
H1651 H 0.82906 0.15115 0.75775 0.0
C1652 C 0.83942 0.1282 0.93528 0.0
C1653 C 0.82827 0.11796 0.91261 0.0
C1654 C 0.8499 0.13682 0.90293 0.0
C1655 C 0.84936 0.13545 0.84737 0.0
C1656 C 0.83869 0.12477 0.82527 0.0
H1657 H 0.89102 0.18563 0.57504 0.0
H1658 H 0.87601 0.16709 0.63047 0.0
C1659 C 0.82838 0.1162 0.85718 0.0
C1660 C 0.8595 0.14525 0.81156 0.0
H1661 H 0.85765 0.17356 0.71561 0.0
C1662 C 0.87572 0.14236 0.80879 0.0
C1663 C 0.85299 0.15663 0.77712 0.0
C1664 C 0.83572 0.1605 0.77859 0.0
C1665 C 0.88548 0.15034 0.77241 0.0
C1666 C 0.879 0.16189 0.73831 0.0
C1667 C 0.86274 0.16471 0.74109 0.0
C1668 C 0.88898 0.17192 0.70236 0.0
C1669 C 0.90261 0.14592 0.77 0.0
C1670 C 0.9014 0.18079 0.72344 0.0
C1671 C 0.90997 0.1912 0.69187 0.0
C1672 C 0.90643 0.19329 0.63795 0.0
C1673 C 0.8943 0.18412 0.61601 0.0
C1674 C 0.8856 0.17363 0.64799 0.0
H1675 H 0.90452 0.13368 0.78355 0.0
H1676 H 0.90733 0.14709 0.72938 0.0
H1677 H 0.9094 0.15378 0.79653 0.0
H1678 H 0.90413 0.18016 0.76512 0.0
H1679 H 0.91911 0.19813 0.71046 0.0
H1680 H 0.74563 0.6502 0.83655 0.0
H1681 H 0.73831 0.67434 0.79041 0.0
H1682 H 0.69119 0.67016 0.85147 0.0
H1683 H 0.69861 0.64635 0.89847 0.0
H1684 H 0.71843 0.67604 0.71372 0.0
H1685 H 0.69735 0.71613 0.8673 0.0
H1686 H 0.70914 0.69915 0.88301 0.0
H1687 H 0.68804 0.69757 0.87775 0.0
C1688 C 0.73378 0.65462 0.84057 0.0
C1689 C 0.72259 0.64642 0.87056 0.0
C1690 C 0.72966 0.66844 0.81462 0.0
C1691 C 0.71429 0.67421 0.81821 0.0
C1692 C 0.70327 0.66625 0.84955 0.0
H1693 H 0.64685 0.69585 0.61184 0.0
H1694 H 0.6716 0.6876 0.65154 0.0
C1695 C 0.70744 0.65257 0.876 0.0
C1696 C 0.70895 0.68706 0.78355 0.0
H1697 H 0.68238 0.71676 0.78294 0.0
C1698 C 0.71095 0.6853 0.72887 0.0
C1699 C 0.69972 0.69955 0.80299 0.0
C1700 C 0.69864 0.70329 0.86107 0.0
C1701 C 0.70229 0.69439 0.69327 0.0
C1702 C 0.69105 0.70504 0.71312 0.0
C1703 C 0.69066 0.70825 0.7675 0.0
C1704 C 0.67789 0.71078 0.68036 0.0
C1705 C 0.70471 0.69187 0.63493 0.0
C1706 C 0.6731 0.7265 0.68349 0.0
C1707 C 0.65871 0.73106 0.66214 0.0
C1708 C 0.64901 0.72 0.63694 0.0
C1709 C 0.65423 0.70454 0.63082 0.0
C1710 C 0.66847 0.69991 0.65299 0.0
H1711 H 0.7173 0.6896 0.62637 0.0
H1712 H 0.69802 0.68135 0.62203 0.0
H1713 H 0.7008 0.70214 0.61147 0.0
H1714 H 0.68013 0.73507 0.70455 0.0
H1715 H 0.65496 0.74313 0.66646 0.0
H1716 H 0.28122 0.6489 0.69046 0.0
H1717 H 0.28774 0.67319 0.73737 0.0
H1718 H 0.33527 0.67015 0.67909 0.0
H1719 H 0.32856 0.6462 0.631 0.0
H1720 H 0.30696 0.67401 0.8155 0.0
H1721 H 0.32905 0.71621 0.67041 0.0
H1722 H 0.31762 0.6993 0.65086 0.0
H1723 H 0.33867 0.6979 0.65839 0.0
C1724 C 0.29295 0.65368 0.68691 0.0
C1725 C 0.3045 0.6457 0.65785 0.0
C1726 C 0.29663 0.66756 0.71335 0.0
C1727 C 0.31193 0.6736 0.71133 0.0
C1728 C 0.32325 0.66602 0.68 0.0
H1729 H 0.37772 0.69393 0.92577 0.0
H1730 H 0.35321 0.68565 0.88413 0.0
C1731 C 0.31949 0.65226 0.65291 0.0
C1732 C 0.31692 0.68604 0.74841 0.0
H1733 H 0.34307 0.71608 0.75657 0.0
C1734 C 0.31444 0.68356 0.80257 0.0
C1735 C 0.3262 0.69886 0.73193 0.0
C1736 C 0.32784 0.70329 0.67461 0.0
C1737 C 0.32263 0.69231 0.84048 0.0
C1738 C 0.33386 0.7034 0.82354 0.0
C1739 C 0.33477 0.70725 0.76973 0.0
C1740 C 0.34654 0.70902 0.85868 0.0
C1741 C 0.31974 0.68898 0.89808 0.0
C1742 C 0.35093 0.72488 0.85861 0.0
C1743 C 0.36514 0.72949 0.88119 0.0
C1744 C 0.37507 0.71832 0.90451 0.0
C1745 C 0.37014 0.70269 0.90825 0.0
C1746 C 0.35606 0.69803 0.8849 0.0
H1747 H 0.30715 0.68625 0.90495 0.0
H1748 H 0.3266 0.67851 0.91004 0.0
H1749 H 0.32317 0.69905 0.92349 0.0
H1750 H 0.3438 0.73354 0.83855 0.0
H1751 H 0.36868 0.74167 0.87871 0.0
H1752 H 0.28561 0.37177 0.86551 0.0
H1753 H 0.29412 0.34702 0.82556 0.0
H1754 H 0.34131 0.35567 0.88123 0.0
H1755 H 0.33264 0.38005 0.92256 0.0
H1756 H 0.31313 0.3451 0.74793 0.0
H1757 H 0.33896 0.30989 0.90653 0.0
H1758 H 0.32626 0.32635 0.92036 0.0
H1759 H 0.34711 0.32919 0.91153 0.0
C1760 C 0.29774 0.36818 0.8698 0.0
C1761 C 0.30858 0.37779 0.89642 0.0
C1762 C 0.30254 0.35402 0.84742 0.0
C1763 C 0.31829 0.34935 0.85106 0.0
C1764 C 0.32898 0.35872 0.87939 0.0
H1765 H 0.38405 0.32699 0.63684 0.0
H1766 H 0.36026 0.33523 0.68259 0.0
C1767 C 0.32411 0.37273 0.90248 0.0
C1768 C 0.32424 0.33624 0.81856 0.0
H1769 H 0.35284 0.30845 0.8202 0.0
C1770 C 0.32143 0.33672 0.76396 0.0
C1771 C 0.33462 0.32488 0.83924 0.0
C1772 C 0.33671 0.32246 0.89777 0.0
C1773 C 0.33024 0.32751 0.72915 0.0
C1774 C 0.34242 0.31806 0.74955 0.0
C1775 C 0.34381 0.31608 0.80436 0.0
C1776 C 0.35531 0.31231 0.71583 0.0
C1777 C 0.32692 0.32865 0.67079 0.0
C1778 C 0.36059 0.29678 0.71991 0.0
C1779 C 0.37439 0.2922 0.69472 0.0
C1780 C 0.38307 0.30307 0.66502 0.0
C1781 C 0.37745 0.31841 0.65916 0.0
C1782 C 0.36378 0.32304 0.68487 0.0
H1783 H 0.31416 0.33028 0.66355 0.0
H1784 H 0.33306 0.33906 0.65449 0.0
H1785 H 0.33092 0.31802 0.64926 0.0
H1786 H 0.35428 0.28835 0.74385 0.0
H1787 H 0.37839 0.28022 0.69901 0.0
H1788 H 0.67607 0.40051 0.55737 0.0
H1789 H 0.64982 0.3912 0.58022 0.0
H1790 H 0.66155 0.39465 0.74554 0.0
H1791 H 0.68768 0.40423 0.72293 0.0
H1792 H 0.64828 0.3635 0.63198 0.0
H1793 H 0.61544 0.40752 0.74582 0.0
H1794 H 0.63094 0.41277 0.70035 0.0
H1795 H 0.63551 0.40714 0.76718 0.0
C1796 C 0.67287 0.3998 0.5986 0.0
C1797 C 0.68395 0.40291 0.63853 0.0
C1798 C 0.65785 0.39454 0.61151 0.0
C1799 C 0.65366 0.3925 0.66448 0.0
C1800 C 0.6644 0.39654 0.70439 0.0
H1801 H 0.63004 0.34005 0.89929 0.0
H1802 H 0.6326 0.36077 0.83348 0.0
C1803 C 0.67943 0.40171 0.69151 0.0
C1804 C 0.6399 0.3829 0.67855 0.0
H1805 H 0.61303 0.38006 0.77715 0.0
C1806 C 0.64006 0.36717 0.66225 0.0
C1807 C 0.62907 0.38783 0.71718 0.0
C1808 C 0.62762 0.40481 0.73315 0.0
C1809 C 0.63153 0.35576 0.68962 0.0
C1810 C 0.6223 0.36044 0.73331 0.0
C1811 C 0.62032 0.37649 0.7442 0.0
C1812 C 0.61812 0.34909 0.77488 0.0
C1813 C 0.63406 0.33871 0.67557 0.0
C1814 C 0.60883 0.33585 0.76424 0.0
C1815 C 0.60778 0.32381 0.80137 0.0
C1816 C 0.61566 0.32511 0.84993 0.0
C1817 C 0.62399 0.33883 0.86188 0.0
C1818 C 0.62531 0.35068 0.82451 0.0
H1819 H 0.64288 0.33716 0.64372 0.0
H1820 H 0.63809 0.33205 0.71068 0.0
H1821 H 0.62284 0.3335 0.66179 0.0
H1822 H 0.60288 0.33459 0.72668 0.0
H1823 H 0.60092 0.31345 0.79216 0.0
H1824 H 0.32039 0.41359 0.22238 0.0
H1825 H 0.33879 0.3986 0.27558 0.0
H1826 H 0.35722 0.37695 0.13492 0.0
H1827 H 0.33864 0.39226 0.08067 0.0
H1828 H 0.34 0.36733 0.28734 0.0
H1829 H 0.39754 0.38802 0.21269 0.0
H1830 H 0.37941 0.39809 0.19812 0.0
H1831 H 0.38458 0.38057 0.16258 0.0
C1832 C 0.32848 0.40582 0.20229 0.0
C1833 C 0.32795 0.40422 0.14689 0.0
C1834 C 0.33904 0.39717 0.2331 0.0
C1835 C 0.34956 0.38656 0.20987 0.0
C1836 C 0.34947 0.38521 0.15421 0.0
H1837 H 0.41415 0.31697 0.33243 0.0
H1838 H 0.399 0.33576 0.28162 0.0
C1839 C 0.33883 0.394 0.12301 0.0
C1840 C 0.35983 0.3765 0.2448 0.0
H1841 H 0.39799 0.36677 0.27292 0.0
C1842 C 0.35269 0.36729 0.28422 0.0
C1843 C 0.37644 0.37635 0.24136 0.0
C1844 C 0.38501 0.38638 0.20178 0.0
C1845 C 0.36153 0.35779 0.319 0.0
C1846 C 0.37816 0.35761 0.31558 0.0
C1847 C 0.3853 0.36688 0.27628 0.0
C1848 C 0.38823 0.34693 0.34907 0.0
C1849 C 0.35287 0.34757 0.35785 0.0
C1850 C 0.38781 0.347 0.40492 0.0
C1851 C 0.39662 0.33605 0.43475 0.0
C1852 C 0.40606 0.32479 0.40932 0.0
C1853 C 0.40694 0.3253 0.35373 0.0
C1854 C 0.39825 0.33615 0.32428 0.0
H1855 H 0.3403 0.34615 0.347 0.0
H1856 H 0.3583 0.33576 0.36041 0.0
H1857 H 0.35339 0.35308 0.39752 0.0
H1858 H 0.38051 0.35539 0.42552 0.0
H1859 H 0.3956 0.33603 0.47733 0.0
H1860 H 0.70075 0.3906 0.44431 0.0
H1861 H 0.68507 0.3744 0.38393 0.0
H1862 H 0.6777 0.41446 0.28347 0.0
H1863 H 0.69351 0.43066 0.34318 0.0
H1864 H 0.65423 0.37682 0.35204 0.0
H1865 H 0.69274 0.38229 0.17666 0.0
H1866 H 0.69903 0.38809 0.24189 0.0
H1867 H 0.68638 0.40066 0.20402 0.0
C1868 C 0.69587 0.39599 0.40928 0.0
C1869 C 0.69858 0.41201 0.39877 0.0
C1870 C 0.68684 0.38668 0.37465 0.0
C1871 C 0.68035 0.39302 0.32819 0.0
C1872 C 0.68282 0.40907 0.31809 0.0
H1873 H 0.6223 0.34485 0.08005 0.0
H1874 H 0.63594 0.36569 0.13075 0.0
C1875 C 0.69181 0.4184 0.35275 0.0
C1876 C 0.67073 0.38293 0.29128 0.0
H1877 H 0.66876 0.3687 0.16447 0.0
C1878 C 0.65744 0.37512 0.31103 0.0
C1879 C 0.67468 0.3807 0.23732 0.0
C1880 C 0.68905 0.38825 0.21364 0.0
C1881 C 0.64818 0.36517 0.27898 0.0
C1882 C 0.65237 0.36257 0.22547 0.0
C1883 C 0.66541 0.37069 0.2052 0.0
C1884 C 0.64434 0.35022 0.19235 0.0
C1885 C 0.63393 0.35746 0.30295 0.0
C1886 C 0.64479 0.33455 0.20886 0.0
C1887 C 0.63712 0.32277 0.18022 0.0
C1888 C 0.62869 0.3261 0.13351 0.0
C1889 C 0.62855 0.34178 0.11579 0.0
C1890 C 0.63637 0.35371 0.14485 0.0
H1891 H 0.62948 0.36423 0.33732 0.0
H1892 H 0.62432 0.35624 0.27356 0.0
H1893 H 0.63715 0.34558 0.31706 0.0
H1894 H 0.65111 0.33136 0.24438 0.0
H1895 H 0.63781 0.31092 0.19535 0.0
H1896 H 0.68893 0.63626 0.05947 0.0
H1897 H 0.67024 0.65158 0.11373 0.0
H1898 H 0.68582 0.62706 0.25272 0.0
H1899 H 0.70421 0.61198 0.19969 0.0
H1900 H 0.64517 0.64268 0.18839 0.0
H1901 H 0.69391 0.67341 0.29061 0.0
H1902 H 0.6967 0.66272 0.22977 0.0
H1903 H 0.69549 0.6524 0.29145 0.0
C1904 C 0.68812 0.63395 0.10139 0.0
C1905 C 0.69822 0.62293 0.12507 0.0
C1906 C 0.67751 0.64279 0.13255 0.0
C1907 C 0.67684 0.64081 0.18788 0.0
C1908 C 0.6863 0.62919 0.21063 0.0
H1909 H 0.63105 0.68897 0.4575 0.0
H1910 H 0.64614 0.67042 0.40227 0.0
C1911 C 0.6968 0.62047 0.17991 0.0
C1912 C 0.66673 0.65096 0.22279 0.0
H1913 H 0.6685 0.67668 0.32709 0.0
C1914 C 0.65029 0.6502 0.21839 0.0
C1915 C 0.67328 0.66069 0.26275 0.0
C1916 C 0.69081 0.66251 0.26882 0.0
C1917 C 0.64033 0.65861 0.25302 0.0
C1918 C 0.64689 0.66843 0.29284 0.0
C1919 C 0.66334 0.66914 0.29721 0.0
C1920 C 0.63698 0.67885 0.3277 0.0
C1921 C 0.62282 0.65655 0.24733 0.0
C1922 C 0.62677 0.68983 0.30489 0.0
C1923 C 0.61818 0.7003 0.33623 0.0
C1924 C 0.61952 0.70035 0.39176 0.0
C1925 C 0.62954 0.68919 0.41507 0.0
C1926 C 0.63826 0.67864 0.38335 0.0
H1927 H 0.61987 0.64508 0.22887 0.0
H1928 H 0.61681 0.65732 0.2861 0.0
H1929 H 0.61814 0.66592 0.22137 0.0
H1930 H 0.62574 0.69066 0.2624 0.0
H1931 H 0.61066 0.70869 0.31645 0.0
H1932 H 0.33897 0.63074 0.47229 0.0
H1933 H 0.35754 0.64633 0.41853 0.0
H1934 H 0.33933 0.62477 0.27724 0.0
H1935 H 0.32109 0.6094 0.32971 0.0
H1936 H 0.38133 0.63743 0.3391 0.0
H1937 H 0.3332 0.67201 0.24903 0.0
H1938 H 0.33052 0.66055 0.30819 0.0
H1939 H 0.33053 0.65114 0.24463 0.0
C1940 C 0.33912 0.62917 0.42988 0.0
C1941 C 0.32836 0.61885 0.40559 0.0
C1942 C 0.34969 0.63815 0.39903 0.0
C1943 C 0.34964 0.63706 0.34336 0.0
C1944 C 0.33943 0.62621 0.31972 0.0
H1945 H 0.39467 0.68701 0.07667 0.0
H1946 H 0.37932 0.66843 0.13081 0.0
C1947 C 0.32899 0.61733 0.35015 0.0
C1948 C 0.35988 0.64727 0.30913 0.0
H1949 H 0.35835 0.67461 0.2099 0.0
C1950 C 0.3763 0.64565 0.31122 0.0
C1951 C 0.35343 0.65791 0.27187 0.0
C1952 C 0.33597 0.66065 0.26841 0.0
C1953 C 0.38631 0.65408 0.27683 0.0
C1954 C 0.37986 0.6648 0.23971 0.0
C1955 C 0.36343 0.66639 0.23769 0.0
C1956 C 0.38992 0.67519 0.20526 0.0
C1957 C 0.40373 0.65105 0.27979 0.0
C1958 C 0.40106 0.68524 0.22834 0.0
C1959 C 0.40982 0.69572 0.19758 0.0
C1960 C 0.40774 0.69671 0.14241 0.0
C1961 C 0.39679 0.68647 0.11877 0.0
C1962 C 0.38791 0.67591 0.14991 0.0
H1963 H 0.40625 0.63918 0.29575 0.0
H1964 H 0.40934 0.65212 0.24044 0.0
H1965 H 0.40921 0.65976 0.30677 0.0
H1966 H 0.40269 0.68537 0.27072 0.0
H1967 H 0.41805 0.7034 0.21759 0.0
loop_
_geom_bond_atom_site_label_1
_geom_bond_atom_site_label_2
_geom_bond_distance
_geom_bond_site_symmetry_2
_ccdc_geom_bond_type
C0 C1 1.351 . S
C0 N3 1.368 . S
C0 H5 0.931 . S
C1 C0 1.351 . S
C1 N2 1.373 . S
C1 H29 0.930 . S
N2 C1 1.373 . S
N2 C4 1.340 . S
N3 C0 1.368 . S
N3 C4 1.321 . S
N3 Co6 2.135 . S
C4 N2 1.340 . S
C4 N3 1.321 . S
C4 H28 0.930 . S
H5 C0 0.931 . S
Co6 N3 2.135 . S
Co6 N9 2.121 1_554 S
Co6 O14 2.055 . S
Co6 O17 2.039 1_554 S
Co6 N20 2.140 . S
C7 O8 1.227 . S
C7 O17 1.265 . S
O8 C7 1.227 . S
N9 Co6 2.121 1_556 S
N9 C11 1.375 . S
N9 C12 1.313 . S
C10 C11 1.338 . S
C10 N13 1.377 . S
C10 H30 0.930 . S
C11 N9 1.375 . S
C11 C10 1.338 . S
C11 H15 0.931 . S
C12 N9 1.313 . S
C12 N13 1.344 . S
C12 H16 0.930 . S
N13 C10 1.377 . S
N13 C12 1.344 . S
O14 Co6 2.055 . S
O14 C18 1.253 . S
H15 C11 0.931 . S
H16 C12 0.930 . S
O17 Co6 2.039 1_556 S
O17 C7 1.265 . S
C18 O14 1.253 . S
C18 O19 1.227 . S
O19 C18 1.227 . S
N20 Co6 2.140 . S
N20 C23 1.346 . S
N20 C24 1.345 1_554 S
C21 C22 1.387 1_556 S
C21 C25 1.391 . S
C22 C21 1.387 1_554 S
C22 C23 1.369 . S
C22 H31 0.929 . S
C23 N20 1.346 . S
C23 C22 1.369 . S
C23 H26 0.928 . S
C24 N20 1.345 1_556 S
C24 C25 1.371 . S
C24 H27 0.931 . S
C25 C21 1.391 . S
C25 C24 1.371 . S
C25 H32 0.930 . S
H26 C23 0.928 . S
H27 C24 0.931 . S
H28 C4 0.930 . S
H29 C1 0.930 . S
H30 C10 0.930 . S
H31 C22 0.929 . S
H32 C25 0.930 . S
C33 C34 1.351 . S
C33 N36 1.368 . S
C33 H38 0.931 . S
C34 C33 1.351 . S
C34 N35 1.373 . S
C34 H62 0.930 . S
N35 C34 1.373 . S
N35 C37 1.340 . S
N36 C33 1.368 . S
N36 C37 1.321 . S
N36 Co39 2.135 . S
C37 N35 1.340 . S
C37 N36 1.321 . S
C37 H61 0.930 . S
H38 C33 0.931 . S
Co39 N36 2.135 . S
Co39 N42 2.121 1_554 S
Co39 O47 2.055 . S
Co39 O50 2.039 1_554 S
Co39 N53 2.140 . S
C40 O41 1.227 . S
C40 O50 1.265 . S
O41 C40 1.227 . S
N42 Co39 2.121 1_556 S
N42 C44 1.375 . S
N42 C45 1.313 . S
C43 C44 1.338 . S
C43 N46 1.377 . S
C43 H63 0.930 . S
C44 N42 1.375 . S
C44 C43 1.338 . S
C44 H48 0.931 . S
C45 N42 1.313 . S
C45 N46 1.344 . S
C45 H49 0.930 . S
N46 C43 1.377 . S
N46 C45 1.344 . S
O47 Co39 2.055 . S
O47 C51 1.253 . S
H48 C44 0.931 . S
H49 C45 0.930 . S
O50 Co39 2.039 1_556 S
O50 C40 1.265 . S
C51 O47 1.253 . S
C51 O52 1.227 . S
O52 C51 1.227 . S
N53 Co39 2.140 . S
N53 C56 1.346 . S
N53 C57 1.345 1_554 S
C54 C55 1.387 1_556 S
C54 C58 1.391 . S
C55 C54 1.387 1_554 S
C55 C56 1.369 . S
C55 H64 0.929 . S
C56 N53 1.346 . S
C56 C55 1.369 . S
C56 H59 0.928 . S
C57 N53 1.345 1_556 S
C57 C58 1.371 . S
C57 H60 0.931 . S
C58 C54 1.391 . S
C58 C57 1.371 . S
C58 H65 0.930 . S
H59 C56 0.928 . S
H60 C57 0.931 . S
H61 C37 0.930 . S
H62 C34 0.930 . S
H63 C43 0.930 . S
H64 C55 0.929 . S
H65 C58 0.930 . S
C66 C67 1.351 . S
C66 N69 1.368 . S
C66 H71 0.931 . S
C67 C66 1.351 . S
C67 N68 1.373 . S
C67 H95 0.930 . S
N68 C67 1.373 . S
N68 C70 1.340 . S
N69 C66 1.368 . S
N69 C70 1.321 . S
N69 Co72 2.135 . S
C70 N68 1.340 . S
C70 N69 1.321 . S
C70 H94 0.930 . S
H71 C66 0.931 . S
Co72 N69 2.135 . S
Co72 N75 2.121 1_554 S
Co72 O80 2.055 . S
Co72 O83 2.039 1_554 S
Co72 N86 2.140 . S
C73 O74 1.227 . S
C73 O83 1.265 . S
O74 C73 1.227 . S
N75 Co72 2.121 1_556 S
N75 C77 1.375 . S
N75 C78 1.313 . S
C76 C77 1.338 . S
C76 N79 1.377 . S
C76 H96 0.930 . S
C77 N75 1.375 . S
C77 C76 1.338 . S
C77 H81 0.931 . S
C78 N75 1.313 . S
C78 N79 1.344 . S
C78 H82 0.930 . S
N79 C76 1.377 . S
N79 C78 1.344 . S
O80 Co72 2.055 . S
O80 C84 1.253 . S
H81 C77 0.931 . S
H82 C78 0.930 . S
O83 Co72 2.039 1_556 S
O83 C73 1.265 . S
C84 O80 1.253 . S
C84 O85 1.227 . S
O85 C84 1.227 . S
N86 Co72 2.140 . S
N86 C89 1.346 . S
N86 C90 1.345 1_554 S
C87 C88 1.387 1_556 S
C87 C91 1.391 . S
C88 C87 1.387 1_554 S
C88 C89 1.369 . S
C88 H97 0.929 . S
C89 N86 1.346 . S
C89 C88 1.369 . S
C89 H92 0.928 . S
C90 N86 1.345 1_556 S
C90 C91 1.371 . S
C90 H93 0.931 . S
C91 C87 1.391 . S
C91 C90 1.371 . S
C91 H98 0.930 . S
H92 C89 0.928 . S
H93 C90 0.931 . S
H94 C70 0.930 . S
H95 C67 0.930 . S
H96 C76 0.930 . S
H97 C88 0.929 . S
H98 C91 0.930 . S
C99 C100 1.351 . S
C99 N102 1.368 . S
C99 H104 0.931 . S
C100 C99 1.351 . S
C100 N101 1.373 . S
C100 H128 0.930 . S
N101 C100 1.373 . S
N101 C103 1.340 . S
N102 C99 1.368 . S
N102 C103 1.321 . S
N102 Co105 2.135 . S
C103 N101 1.340 . S
C103 N102 1.321 . S
C103 H127 0.930 . S
H104 C99 0.931 . S
Co105 N102 2.135 . S
Co105 N108 2.121 1_554 S
Co105 O113 2.055 . S
Co105 O116 2.039 1_554 S
Co105 N119 2.140 . S
C106 O107 1.227 . S
C106 O116 1.265 . S
O107 C106 1.227 . S
N108 Co105 2.121 1_556 S
N108 C110 1.375 . S
N108 C111 1.313 . S
C109 C110 1.338 . S
C109 N112 1.377 . S
C109 H129 0.930 . S
C110 N108 1.375 . S
C110 C109 1.338 . S
C110 H114 0.931 . S
C111 N108 1.313 . S
C111 N112 1.344 . S
C111 H115 0.930 . S
N112 C109 1.377 . S
N112 C111 1.344 . S
O113 Co105 2.055 . S
O113 C117 1.253 . S
H114 C110 0.931 . S
H115 C111 0.930 . S
O116 Co105 2.039 1_556 S
O116 C106 1.265 . S
C117 O113 1.253 . S
C117 O118 1.227 . S
O118 C117 1.227 . S
N119 Co105 2.140 . S
N119 C122 1.346 . S
N119 C123 1.345 1_554 S
C120 C121 1.387 1_556 S
C120 C124 1.391 . S
C121 C120 1.387 1_554 S
C121 C122 1.369 . S
C121 H130 0.929 . S
C122 N119 1.346 . S
C122 C121 1.369 . S
C122 H125 0.928 . S
C123 N119 1.345 1_556 S
C123 C124 1.371 . S
C123 H126 0.931 . S
C124 C120 1.391 . S
C124 C123 1.371 . S
C124 H131 0.930 . S
H125 C122 0.928 . S
H126 C123 0.931 . S
H127 C103 0.930 . S
H128 C100 0.930 . S
H129 C109 0.930 . S
H130 C121 0.929 . S
H131 C124 0.930 . S
C132 C133 1.351 . S
C132 N135 1.368 . S
C132 H137 0.931 . S
C133 C132 1.351 . S
C133 N134 1.373 . S
C133 H161 0.930 . S
N134 C133 1.373 . S
N134 C136 1.340 . S
N135 C132 1.368 . S
N135 C136 1.321 . S
N135 Co138 2.135 . S
C136 N134 1.340 . S
C136 N135 1.321 . S
C136 H160 0.930 . S
H137 C132 0.931 . S
Co138 N135 2.135 . S
Co138 N141 2.121 . S
Co138 O146 2.055 . S
Co138 O149 2.039 . S
Co138 N152 2.140 . S
C139 O140 1.227 . S
C139 O149 1.265 . S
O140 C139 1.227 . S
N141 Co138 2.121 . S
N141 C143 1.375 . S
N141 C144 1.313 . S
C142 C143 1.338 . S
C142 N145 1.377 . S
C142 H162 0.930 . S
C143 N141 1.375 . S
C143 C142 1.338 . S
C143 H147 0.931 . S
C144 N141 1.313 . S
C144 N145 1.344 . S
C144 H148 0.930 . S
N145 C142 1.377 . S
N145 C144 1.344 . S
O146 Co138 2.055 . S
O146 C150 1.253 . S
H147 C143 0.931 . S
H148 C144 0.930 . S
O149 Co138 2.039 . S
O149 C139 1.265 . S
C150 O146 1.253 . S
C150 O151 1.227 . S
O151 C150 1.227 . S
N152 Co138 2.140 . S
N152 C155 1.346 . S
N152 C156 1.345 . S
C153 C154 1.387 . S
C153 C157 1.391 . S
C154 C153 1.387 . S
C154 C155 1.369 . S
C154 H163 0.929 . S
C155 N152 1.346 . S
C155 C154 1.369 . S
C155 H158 0.928 . S
C156 N152 1.345 . S
C156 C157 1.371 . S
C156 H159 0.931 . S
C157 C153 1.391 . S
C157 C156 1.371 . S
C157 H164 0.930 . S
H158 C155 0.928 . S
H159 C156 0.931 . S
H160 C136 0.930 . S
H161 C133 0.930 . S
H162 C142 0.930 . S
H163 C154 0.929 . S
H164 C157 0.930 . S
C165 C166 1.351 . S
C165 N168 1.368 . S
C165 H170 0.931 . S
C166 C165 1.351 . S
C166 N167 1.373 . S
C166 H194 0.930 . S
N167 C166 1.373 . S
N167 C169 1.340 . S
N168 C165 1.368 . S
N168 C169 1.321 . S
N168 Co171 2.135 . S
C169 N167 1.340 . S
C169 N168 1.321 . S
C169 H193 0.930 . S
H170 C165 0.931 . S
Co171 N168 2.135 . S
Co171 N174 2.121 . S
Co171 O179 2.055 . S
Co171 O182 2.039 . S
Co171 N185 2.140 . S
C172 O173 1.227 . S
C172 O182 1.265 . S
O173 C172 1.227 . S
N174 Co171 2.121 . S
N174 C176 1.375 . S
N174 C177 1.313 . S
C175 C176 1.338 . S
C175 N178 1.377 . S
C175 H195 0.930 . S
C176 N174 1.375 . S
C176 C175 1.338 . S
C176 H180 0.931 . S
C177 N174 1.313 . S
C177 N178 1.344 . S
C177 H181 0.930 . S
N178 C175 1.377 . S
N178 C177 1.344 . S
O179 Co171 2.055 . S
O179 C183 1.253 . S
H180 C176 0.931 . S
H181 C177 0.930 . S
O182 Co171 2.039 . S
O182 C172 1.265 . S
C183 O179 1.253 . S
C183 O184 1.227 . S
O184 C183 1.227 . S
N185 Co171 2.140 . S
N185 C188 1.346 . S
N185 C189 1.345 . S
C186 C187 1.387 . S
C186 C190 1.391 . S
C187 C186 1.387 . S
C187 C188 1.369 . S
C187 H196 0.929 . S
C188 N185 1.346 . S
C188 C187 1.369 . S
C188 H191 0.928 . S
C189 N185 1.345 . S
C189 C190 1.371 . S
C189 H192 0.931 . S
C190 C186 1.391 . S
C190 C189 1.371 . S
C190 H197 0.930 . S
H191 C188 0.928 . S
H192 C189 0.931 . S
H193 C169 0.930 . S
H194 C166 0.930 . S
H195 C175 0.930 . S
H196 C187 0.929 . S
H197 C190 0.930 . S
C198 C199 1.351 . S
C198 N201 1.368 . S
C198 H203 0.931 . S
C199 C198 1.351 . S
C199 N200 1.373 . S
C199 H227 0.930 . S
N200 C199 1.373 . S
N200 C202 1.340 . S
N201 C198 1.368 . S
N201 C202 1.321 . S
N201 Co204 2.135 . S
C202 N200 1.340 . S
C202 N201 1.321 . S
C202 H226 0.930 . S
H203 C198 0.931 . S
Co204 N201 2.135 . S
Co204 N207 2.121 . S
Co204 O212 2.055 . S
Co204 O215 2.039 . S
Co204 N218 2.140 . S
C205 O206 1.227 . S
C205 O215 1.265 . S
O206 C205 1.227 . S
N207 Co204 2.121 . S
N207 C209 1.375 . S
N207 C210 1.313 . S
C208 C209 1.338 . S
C208 N211 1.377 . S
C208 H228 0.930 . S
C209 N207 1.375 . S
C209 C208 1.338 . S
C209 H213 0.931 . S
C210 N207 1.313 . S
C210 N211 1.344 . S
C210 H214 0.930 . S
N211 C208 1.377 . S
N211 C210 1.344 . S
O212 Co204 2.055 . S
O212 C216 1.253 . S
H213 C209 0.931 . S
H214 C210 0.930 . S
O215 Co204 2.039 . S
O215 C205 1.265 . S
C216 O212 1.253 . S
C216 O217 1.227 . S
O217 C216 1.227 . S
N218 Co204 2.140 . S
N218 C221 1.346 . S
N218 C222 1.345 . S
C219 C220 1.387 . S
C219 C223 1.391 . S
C220 C219 1.387 . S
C220 C221 1.369 . S
C220 H229 0.929 . S
C221 N218 1.346 . S
C221 C220 1.369 . S
C221 H224 0.928 . S
C222 N218 1.345 . S
C222 C223 1.371 . S
C222 H225 0.931 . S
C223 C219 1.391 . S
C223 C222 1.371 . S
C223 H230 0.930 . S
H224 C221 0.928 . S
H225 C222 0.931 . S
H226 C202 0.930 . S
H227 C199 0.930 . S
H228 C208 0.930 . S
H229 C220 0.929 . S
H230 C223 0.930 . S
C231 C232 1.351 . S
C231 N234 1.368 . S
C231 H236 0.931 . S
C232 C231 1.351 . S
C232 N233 1.373 . S
C232 H260 0.930 . S
N233 C232 1.373 . S
N233 C235 1.340 . S
N234 C231 1.368 . S
N234 C235 1.321 . S
N234 Co237 2.135 . S
C235 N233 1.340 . S
C235 N234 1.321 . S
C235 H259 0.930 . S
H236 C231 0.931 . S
Co237 N234 2.135 . S
Co237 N240 2.121 . S
Co237 O245 2.055 . S
Co237 O248 2.039 . S
Co237 N251 2.140 . S
C238 O239 1.227 . S
C238 O248 1.265 . S
O239 C238 1.227 . S
N240 Co237 2.121 . S
N240 C242 1.375 . S
N240 C243 1.313 . S
C241 C242 1.338 . S
C241 N244 1.377 . S
C241 H261 0.930 . S
C242 N240 1.375 . S
C242 C241 1.338 . S
C242 H246 0.931 . S
C243 N240 1.313 . S
C243 N244 1.344 . S
C243 H247 0.930 . S
N244 C241 1.377 . S
N244 C243 1.344 . S
O245 Co237 2.055 . S
O245 C249 1.253 . S
H246 C242 0.931 . S
H247 C243 0.930 . S
O248 Co237 2.039 . S
O248 C238 1.265 . S
C249 O245 1.253 . S
C249 O250 1.227 . S
O250 C249 1.227 . S
N251 Co237 2.140 . S
N251 C254 1.346 . S
N251 C255 1.345 . S
C252 C253 1.387 . S
C252 C256 1.391 . S
C253 C252 1.387 . S
C253 C254 1.369 . S
C253 H262 0.929 . S
C254 N251 1.346 . S
C254 C253 1.369 . S
C254 H257 0.928 . S
C255 N251 1.345 . S
C255 C256 1.371 . S
C255 H258 0.931 . S
C256 C252 1.391 . S
C256 C255 1.371 . S
C256 H263 0.930 . S
H257 C254 0.928 . S
H258 C255 0.931 . S
H259 C235 0.930 . S
H260 C232 0.930 . S
H261 C241 0.930 . S
H262 C253 0.929 . S
H263 C256 0.930 . S
C264 C265 1.351 . S
C264 N267 1.368 . S
C264 H269 0.931 . S
C265 C264 1.351 . S
C265 N266 1.373 . S
C265 H293 0.930 . S
N266 C265 1.373 . S
N266 C268 1.340 . S
N267 C264 1.368 . S
N267 C268 1.321 . S
N267 Co270 2.135 . S
C268 N266 1.340 . S
C268 N267 1.321 . S
C268 H292 0.930 . S
H269 C264 0.931 . S
Co270 N267 2.135 . S
Co270 N273 2.121 . S
Co270 O278 2.055 . S
Co270 O281 2.039 . S
Co270 N284 2.140 . S
C271 O272 1.227 . S
C271 O281 1.265 . S
O272 C271 1.227 . S
N273 Co270 2.121 . S
N273 C275 1.375 . S
N273 C276 1.313 . S
C274 C275 1.338 . S
C274 N277 1.377 . S
C274 H294 0.930 . S
C275 N273 1.375 . S
C275 C274 1.338 . S
C275 H279 0.931 . S
C276 N273 1.313 . S
C276 N277 1.344 . S
C276 H280 0.930 . S
N277 C274 1.377 . S
N277 C276 1.344 . S
O278 Co270 2.055 . S
O278 C282 1.253 . S
H279 C275 0.931 . S
H280 C276 0.930 . S
O281 Co270 2.039 . S
O281 C271 1.265 . S
C282 O278 1.253 . S
C282 O283 1.227 . S
O283 C282 1.227 . S
N284 Co270 2.140 . S
N284 C287 1.346 . S
N284 C288 1.345 . S
C285 C286 1.387 . S
C285 C289 1.391 . S
C286 C285 1.387 . S
C286 C287 1.369 . S
C286 H295 0.929 . S
C287 N284 1.346 . S
C287 C286 1.369 . S
C287 H290 0.928 . S
C288 N284 1.345 . S
C288 C289 1.371 . S
C288 H291 0.931 . S
C289 C285 1.391 . S
C289 C288 1.371 . S
C289 H296 0.930 . S
H290 C287 0.928 . S
H291 C288 0.931 . S
H292 C268 0.930 . S
H293 C265 0.930 . S
H294 C274 0.930 . S
H295 C286 0.929 . S
H296 C289 0.930 . S
C297 C298 1.351 . S
C297 N300 1.368 . S
C297 H302 0.931 . S
C298 C297 1.351 . S
C298 N299 1.373 . S
C298 H326 0.930 . S
N299 C298 1.373 . S
N299 C301 1.340 . S
N300 C297 1.368 . S
N300 C301 1.321 . S
N300 Co303 2.135 . S
C301 N299 1.340 . S
C301 N300 1.321 . S
C301 H325 0.930 . S
H302 C297 0.931 . S
Co303 N300 2.135 . S
Co303 N306 2.121 . S
Co303 O311 2.055 . S
Co303 O314 2.039 . S
Co303 N317 2.140 . S
C304 O305 1.227 . S
C304 O314 1.265 . S
O305 C304 1.227 . S
N306 Co303 2.121 . S
N306 C308 1.375 . S
N306 C309 1.313 . S
C307 C308 1.338 . S
C307 N310 1.377 . S
C307 H327 0.930 . S
C308 N306 1.375 . S
C308 C307 1.338 . S
C308 H312 0.931 . S
C309 N306 1.313 . S
C309 N310 1.344 . S
C309 H313 0.930 . S
N310 C307 1.377 . S
N310 C309 1.344 . S
O311 Co303 2.055 . S
O311 C315 1.253 . S
H312 C308 0.931 . S
H313 C309 0.930 . S
O314 Co303 2.039 . S
O314 C304 1.265 . S
C315 O311 1.253 . S
C315 O316 1.227 . S
O316 C315 1.227 . S
N317 Co303 2.140 . S
N317 C320 1.346 . S
N317 C321 1.345 . S
C318 C319 1.387 . S
C318 C322 1.391 . S
C319 C318 1.387 . S
C319 C320 1.369 . S
C319 H328 0.929 . S
C320 N317 1.346 . S
C320 C319 1.369 . S
C320 H323 0.928 . S
C321 N317 1.345 . S
C321 C322 1.371 . S
C321 H324 0.931 . S
C322 C318 1.391 . S
C322 C321 1.371 . S
C322 H329 0.930 . S
H323 C320 0.928 . S
H324 C321 0.931 . S
H325 C301 0.930 . S
H326 C298 0.930 . S
H327 C307 0.930 . S
H328 C319 0.929 . S
H329 C322 0.930 . S
C330 C331 1.351 . S
C330 N333 1.368 . S
C330 H335 0.931 . S
C331 C330 1.351 . S
C331 N332 1.373 . S
C331 H359 0.930 . S
N332 C331 1.373 . S
N332 C334 1.340 . S
N333 C330 1.368 . S
N333 C334 1.321 . S
N333 Co336 2.135 . S
C334 N332 1.340 . S
C334 N333 1.321 . S
C334 H358 0.930 . S
H335 C330 0.931 . S
Co336 N333 2.135 . S
Co336 N339 2.121 . S
Co336 O344 2.055 . S
Co336 O347 2.039 . S
Co336 N350 2.140 . S
C337 O338 1.227 . S
C337 O347 1.265 . S
O338 C337 1.227 . S
N339 Co336 2.121 . S
N339 C341 1.375 . S
N339 C342 1.313 . S
C340 C341 1.338 . S
C340 N343 1.377 . S
C340 H360 0.930 . S
C341 N339 1.375 . S
C341 C340 1.338 . S
C341 H345 0.931 . S
C342 N339 1.313 . S
C342 N343 1.344 . S
C342 H346 0.930 . S
N343 C340 1.377 . S
N343 C342 1.344 . S
O344 Co336 2.055 . S
O344 C348 1.253 . S
H345 C341 0.931 . S
H346 C342 0.930 . S
O347 Co336 2.039 . S
O347 C337 1.265 . S
C348 O344 1.253 . S
C348 O349 1.227 . S
O349 C348 1.227 . S
N350 Co336 2.140 . S
N350 C353 1.346 . S
N350 C354 1.345 . S
C351 C352 1.387 . S
C351 C355 1.391 . S
C352 C351 1.387 . S
C352 C353 1.369 . S
C352 H361 0.929 . S
C353 N350 1.346 . S
C353 C352 1.369 . S
C353 H356 0.928 . S
C354 N350 1.345 . S
C354 C355 1.371 . S
C354 H357 0.931 . S
C355 C351 1.391 . S
C355 C354 1.371 . S
C355 H362 0.930 . S
H356 C353 0.928 . S
H357 C354 0.931 . S
H358 C334 0.930 . S
H359 C331 0.930 . S
H360 C340 0.930 . S
H361 C352 0.929 . S
H362 C355 0.930 . S
C363 C364 1.351 . S
C363 N366 1.368 . S
C363 H368 0.931 . S
C364 C363 1.351 . S
C364 N365 1.373 . S
C364 H392 0.930 . S
N365 C364 1.373 . S
N365 C367 1.340 . S
N366 C363 1.368 . S
N366 C367 1.321 . S
N366 Co369 2.135 . S
C367 N365 1.340 . S
C367 N366 1.321 . S
C367 H391 0.930 . S
H368 C363 0.931 . S
Co369 N366 2.135 . S
Co369 N372 2.121 . S
Co369 O377 2.055 . S
Co369 O380 2.039 . S
Co369 N383 2.140 . S
C370 O371 1.227 . S
C370 O380 1.265 . S
O371 C370 1.227 . S
N372 Co369 2.121 . S
N372 C374 1.375 . S
N372 C375 1.313 . S
C373 C374 1.338 . S
C373 N376 1.377 . S
C373 H393 0.930 . S
C374 N372 1.375 . S
C374 C373 1.338 . S
C374 H378 0.931 . S
C375 N372 1.313 . S
C375 N376 1.344 . S
C375 H379 0.930 . S
N376 C373 1.377 . S
N376 C375 1.344 . S
O377 Co369 2.055 . S
O377 C381 1.253 . S
H378 C374 0.931 . S
H379 C375 0.930 . S
O380 Co369 2.039 . S
O380 C370 1.265 . S
C381 O377 1.253 . S
C381 O382 1.227 . S
O382 C381 1.227 . S
N383 Co369 2.140 . S
N383 C386 1.346 . S
N383 C387 1.345 . S
C384 C385 1.387 . S
C384 C388 1.391 . S
C385 C384 1.387 . S
C385 C386 1.369 . S
C385 H394 0.929 . S
C386 N383 1.346 . S
C386 C385 1.369 . S
C386 H389 0.928 . S
C387 N383 1.345 . S
C387 C388 1.371 . S
C387 H390 0.931 . S
C388 C384 1.391 . S
C388 C387 1.371 . S
C388 H395 0.930 . S
H389 C386 0.928 . S
H390 C387 0.931 . S
H391 C367 0.930 . S
H392 C364 0.930 . S
H393 C373 0.930 . S
H394 C385 0.929 . S
H395 C388 0.930 . S
C396 C397 1.351 . S
C396 N399 1.368 . S
C396 H401 0.931 . S
C397 C396 1.351 . S
C397 N398 1.373 . S
C397 H425 0.930 . S
N398 C397 1.373 . S
N398 C400 1.340 . S
N399 C396 1.368 . S
N399 C400 1.321 . S
N399 Co402 2.135 . S
C400 N398 1.340 . S
C400 N399 1.321 . S
C400 H424 0.930 . S
H401 C396 0.931 . S
Co402 N399 2.135 . S
Co402 N405 2.121 1_556 S
Co402 O410 2.055 . S
Co402 O413 2.039 1_556 S
Co402 N416 2.140 . S
C403 O404 1.227 . S
C403 O413 1.265 . S
O404 C403 1.227 . S
N405 Co402 2.121 1_554 S
N405 C407 1.375 . S
N405 C408 1.313 . S
C406 C407 1.338 . S
C406 N409 1.377 . S
C406 H426 0.930 . S
C407 N405 1.375 . S
C407 C406 1.338 . S
C407 H411 0.931 . S
C408 N405 1.313 . S
C408 N409 1.344 . S
C408 H412 0.930 . S
N409 C406 1.377 . S
N409 C408 1.344 . S
O410 Co402 2.055 . S
O410 C414 1.253 . S
H411 C407 0.931 . S
H412 C408 0.930 . S
O413 Co402 2.039 1_554 S
O413 C403 1.265 . S
C414 O410 1.253 . S
C414 O415 1.227 . S
O415 C414 1.227 . S
N416 Co402 2.140 . S
N416 C419 1.346 . S
N416 C420 1.345 1_556 S
C417 C418 1.385 1_554 S
C417 C421 1.393 . S
C418 C417 1.385 1_556 S
C418 C419 1.369 . S
C418 H427 0.929 . S
C419 N416 1.346 . S
C419 C418 1.369 . S
C419 H422 0.928 . S
C420 N416 1.345 1_554 S
C420 C421 1.371 . S
C420 H423 0.931 . S
C421 C417 1.393 . S
C421 C420 1.371 . S
C421 H428 0.930 . S
H422 C419 0.928 . S
H423 C420 0.931 . S
H424 C400 0.930 . S
H425 C397 0.930 . S
H426 C406 0.930 . S
H427 C418 0.929 . S
H428 C421 0.930 . S
C429 C430 1.351 . S
C429 N432 1.368 . S
C429 H434 0.931 . S
C430 C429 1.351 . S
C430 N431 1.373 . S
C430 H458 0.930 . S
N431 C430 1.373 . S
N431 C433 1.340 . S
N432 C429 1.368 . S
N432 C433 1.321 . S
N432 Co435 2.135 . S
C433 N431 1.340 . S
C433 N432 1.321 . S
C433 H457 0.930 . S
H434 C429 0.931 . S
Co435 N432 2.135 . S
Co435 N438 2.121 1_556 S
Co435 O443 2.055 . S
Co435 O446 2.039 1_556 S
Co435 N449 2.140 . S
C436 O437 1.227 . S
C436 O446 1.265 . S
O437 C436 1.227 . S
N438 Co435 2.121 1_554 S
N438 C440 1.375 . S
N438 C441 1.313 . S
C439 C440 1.338 . S
C439 N442 1.377 . S
C439 H459 0.930 . S
C440 N438 1.375 . S
C440 C439 1.338 . S
C440 H444 0.931 . S
C441 N438 1.313 . S
C441 N442 1.344 . S
C441 H445 0.930 . S
N442 C439 1.377 . S
N442 C441 1.344 . S
O443 Co435 2.055 . S
O443 C447 1.253 . S
H444 C440 0.931 . S
H445 C441 0.930 . S
O446 Co435 2.039 1_554 S
O446 C436 1.265 . S
C447 O443 1.253 . S
C447 O448 1.227 . S
O448 C447 1.227 . S
N449 Co435 2.140 . S
N449 C452 1.346 . S
N449 C453 1.345 1_556 S
C450 C451 1.385 1_554 S
C450 C454 1.393 . S
C451 C450 1.385 1_556 S
C451 C452 1.369 . S
C451 H460 0.929 . S
C452 N449 1.346 . S
C452 C451 1.369 . S
C452 H455 0.928 . S
C453 N449 1.345 1_554 S
C453 C454 1.371 . S
C453 H456 0.931 . S
C454 C450 1.393 . S
C454 C453 1.371 . S
C454 H461 0.930 . S
H455 C452 0.928 . S
H456 C453 0.931 . S
H457 C433 0.930 . S
H458 C430 0.930 . S
H459 C439 0.930 . S
H460 C451 0.929 . S
H461 C454 0.930 . S
C462 C463 1.351 . S
C462 N465 1.368 . S
C462 H467 0.931 . S
C463 C462 1.351 . S
C463 N464 1.373 . S
C463 H491 0.930 . S
N464 C463 1.373 . S
N464 C466 1.340 . S
N465 C462 1.368 . S
N465 C466 1.321 . S
N465 Co468 2.135 . S
C466 N464 1.340 . S
C466 N465 1.321 . S
C466 H490 0.930 . S
H467 C462 0.931 . S
Co468 N465 2.135 . S
Co468 N471 2.121 1_556 S
Co468 O476 2.055 . S
Co468 O479 2.039 1_556 S
Co468 N482 2.140 . S
C469 O470 1.227 . S
C469 O479 1.265 . S
O470 C469 1.227 . S
N471 Co468 2.121 1_554 S
N471 C473 1.375 . S
N471 C474 1.313 . S
C472 C473 1.338 . S
C472 N475 1.377 . S
C472 H492 0.930 . S
C473 N471 1.375 . S
C473 C472 1.338 . S
C473 H477 0.931 . S
C474 N471 1.313 . S
C474 N475 1.344 . S
C474 H478 0.930 . S
N475 C472 1.377 . S
N475 C474 1.344 . S
O476 Co468 2.055 . S
O476 C480 1.253 . S
H477 C473 0.931 . S
H478 C474 0.930 . S
O479 Co468 2.039 1_554 S
O479 C469 1.265 . S
C480 O476 1.253 . S
C480 O481 1.227 . S
O481 C480 1.227 . S
N482 Co468 2.140 . S
N482 C485 1.346 . S
N482 C486 1.345 1_556 S
C483 C484 1.385 1_554 S
C483 C487 1.393 . S
C484 C483 1.385 1_556 S
C484 C485 1.369 . S
C484 H493 0.929 . S
C485 N482 1.346 . S
C485 C484 1.369 . S
C485 H488 0.928 . S
C486 N482 1.345 1_554 S
C486 C487 1.371 . S
C486 H489 0.931 . S
C487 C483 1.393 . S
C487 C486 1.371 . S
C487 H494 0.930 . S
H488 C485 0.928 . S
H489 C486 0.931 . S
H490 C466 0.930 . S
H491 C463 0.930 . S
H492 C472 0.930 . S
H493 C484 0.929 . S
H494 C487 0.930 . S
C495 C496 1.351 . S
C495 N498 1.368 . S
C495 H500 0.931 . S
C496 C495 1.351 . S
C496 N497 1.373 . S
C496 H524 0.930 . S
N497 C496 1.373 . S
N497 C499 1.340 . S
N498 C495 1.368 . S
N498 C499 1.321 . S
N498 Co501 2.135 . S
C499 N497 1.340 . S
C499 N498 1.321 . S
C499 H523 0.930 . S
H500 C495 0.931 . S
Co501 N498 2.135 . S
Co501 N504 2.121 1_556 S
Co501 O509 2.055 . S
Co501 O512 2.039 1_556 S
Co501 N515 2.140 . S
C502 O503 1.227 . S
C502 O512 1.265 . S
O503 C502 1.227 . S
N504 Co501 2.121 1_554 S
N504 C506 1.375 . S
N504 C507 1.313 . S
C505 C506 1.338 . S
C505 N508 1.377 . S
C505 H525 0.930 . S
C506 N504 1.375 . S
C506 C505 1.338 . S
C506 H510 0.931 . S
C507 N504 1.313 . S
C507 N508 1.344 . S
C507 H511 0.930 . S
N508 C505 1.377 . S
N508 C507 1.344 . S
O509 Co501 2.055 . S
O509 C513 1.253 . S
H510 C506 0.931 . S
H511 C507 0.930 . S
O512 Co501 2.039 1_554 S
O512 C502 1.265 . S
C513 O509 1.253 . S
C513 O514 1.227 . S
O514 C513 1.227 . S
N515 Co501 2.140 . S
N515 C518 1.346 . S
N515 C519 1.345 1_556 S
C516 C517 1.385 1_554 S
C516 C520 1.393 . S
C517 C516 1.385 1_556 S
C517 C518 1.369 . S
C517 H526 0.929 . S
C518 N515 1.346 . S
C518 C517 1.369 . S
C518 H521 0.928 . S
C519 N515 1.345 1_554 S
C519 C520 1.371 . S
C519 H522 0.931 . S
C520 C516 1.393 . S
C520 C519 1.371 . S
C520 H527 0.930 . S
H521 C518 0.928 . S
H522 C519 0.931 . S
H523 C499 0.930 . S
H524 C496 0.930 . S
H525 C505 0.930 . S
H526 C517 0.929 . S
H527 C520 0.930 . S
H528 C536 0.929 . S
H529 C538 0.930 . S
H530 C540 0.930 . S
H531 C543 0.929 . S
H532 C546 0.930 . S
H533 C548 0.960 . S
H534 C548 0.960 . S
H535 C548 0.960 . S
C536 H528 0.929 . S
C536 C537 1.377 . S
C536 C538 1.384 . S
C537 C536 1.377 . S
C537 C543 1.390 1_554 S
C538 H529 0.930 . S
C538 C536 1.384 . S
C538 C539 1.372 . S
C539 C538 1.372 . S
C539 C540 1.400 1_554 S
C539 C544 1.490 . S
C540 H530 0.930 . S
C540 C539 1.400 1_556 S
C540 C543 1.386 . S
H541 C557 0.930 . S
H542 C558 0.931 . S
C543 H531 0.929 . S
C543 C537 1.390 1_556 S
C543 C540 1.386 . S
C544 C539 1.490 . S
C544 C546 1.395 . S
C544 C547 1.403 1_554 S
H545 C551 0.930 . S
C546 H532 0.930 . S
C546 C544 1.395 . S
C546 C549 1.403 . S
C547 C544 1.403 1_556 S
C547 C548 1.524 . S
C547 C551 1.400 . S
C548 H533 0.960 . S
C548 H534 0.960 . S
C548 H535 0.960 . S
C548 C547 1.524 . S
C549 C546 1.403 . S
C549 C550 1.392 . S
C549 C553 1.495 . S
C550 C549 1.392 . S
C550 C551 1.385 1_554 S
C550 C552 1.478 . S
C551 H545 0.930 . S
C551 C547 1.400 . S
C551 C550 1.385 1_556 S
C552 C550 1.478 . S
C552 C554 1.381 . S
C552 C558 1.383 1_554 S
C553 C549 1.495 . S
C553 H559 0.959 . S
C553 H560 0.961 . S
C553 H561 0.960 . S
C554 C552 1.381 . S
C554 C555 1.394 . S
C554 H562 0.930 . S
C555 C554 1.394 . S
C555 C556 1.383 . S
C555 H563 0.929 . S
C556 C555 1.383 . S
C556 C557 1.377 1_554 S
C557 H541 0.930 . S
C557 C556 1.377 1_556 S
C557 C558 1.379 . S
C558 H542 0.931 . S
C558 C552 1.383 1_556 S
C558 C557 1.379 . S
H559 C553 0.959 . S
H560 C553 0.961 . S
H561 C553 0.960 . S
H562 C554 0.930 . S
H563 C555 0.929 . S
H564 C572 0.929 . S
H565 C574 0.930 . S
H566 C576 0.930 . S
H567 C579 0.929 . S
H568 C582 0.930 . S
H569 C584 0.960 . S
H570 C584 0.960 1_556 S
H571 C584 0.960 . S
C572 H564 0.929 . S
C572 C573 1.377 1_556 S
C572 C574 1.384 . S
C573 C572 1.377 1_554 S
C573 C579 1.391 . S
C574 H565 0.930 . S
C574 C572 1.384 . S
C574 C575 1.372 . S
C575 C574 1.372 . S
C575 C576 1.400 1_556 S
C575 C580 1.490 . S
C576 H566 0.930 . S
C576 C575 1.400 1_554 S
C576 C579 1.386 . S
H577 C593 0.930 . S
H578 C594 0.931 . S
C579 H567 0.929 . S
C579 C573 1.391 . S
C579 C576 1.386 . S
C580 C575 1.490 . S
C580 C582 1.395 . S
C580 C583 1.403 1_556 S
H581 C587 0.930 . S
C582 H568 0.930 . S
C582 C580 1.395 . S
C582 C585 1.403 . S
C583 C580 1.403 1_554 S
C583 C584 1.524 . S
C583 C587 1.400 . S
C584 H569 0.960 . S
C584 H570 0.960 1_554 S
C584 H571 0.960 . S
C584 C583 1.524 . S
C585 C582 1.403 . S
C585 C586 1.392 . S
C585 C589 1.495 . S
C586 C585 1.392 . S
C586 C587 1.385 1_556 S
C586 C588 1.478 . S
C587 H581 0.930 . S
C587 C583 1.400 . S
C587 C586 1.385 1_554 S
C588 C586 1.478 . S
C588 C590 1.381 . S
C588 C594 1.383 1_556 S
C589 C585 1.495 . S
C589 H595 0.959 . S
C589 H596 0.961 1_556 S
C589 H597 0.960 . S
C590 C588 1.381 . S
C590 C591 1.394 . S
C590 H598 0.930 . S
C591 C590 1.394 . S
C591 C592 1.393 . S
C591 H599 0.929 . S
C592 C591 1.393 . S
C592 C593 1.368 1_556 S
C593 H577 0.930 . S
C593 C592 1.368 1_554 S
C593 C594 1.379 . S
C594 H578 0.931 . S
C594 C588 1.383 1_554 S
C594 C593 1.379 . S
H595 C589 0.959 . S
H596 C589 0.961 1_554 S
H597 C589 0.960 . S
H598 C590 0.930 . S
H599 C591 0.929 . S
H600 C608 0.929 . S
H601 C610 0.930 . S
H602 C612 0.930 . S
H603 C615 0.929 . S
H604 C618 0.930 . S
H605 C620 0.960 . S
H606 C620 0.960 . S
H607 C620 0.960 . S
C608 H600 0.929 . S
C608 C609 1.387 . S
C608 C610 1.384 . S
C609 C608 1.387 . S
C609 C615 1.381 1_554 S
C610 H601 0.930 . S
C610 C608 1.384 . S
C610 C611 1.372 . S
C611 C610 1.372 . S
C611 C612 1.400 1_554 S
C611 C616 1.490 . S
C612 H602 0.930 . S
C612 C611 1.400 1_556 S
C612 C615 1.386 . S
H613 C629 0.930 . S
H614 C630 0.931 . S
C615 H603 0.929 . S
C615 C609 1.381 1_556 S
C615 C612 1.386 . S
C616 C611 1.490 . S
C616 C618 1.395 . S
C616 C619 1.403 1_554 S
H617 C623 0.930 . S
C618 H604 0.930 . S
C618 C616 1.395 . S
C618 C621 1.403 . S
C619 C616 1.403 1_556 S
C619 C620 1.524 . S
C619 C623 1.400 . S
C620 H605 0.960 . S
C620 H606 0.960 . S
C620 H607 0.960 . S
C620 C619 1.524 . S
C621 C618 1.403 . S
C621 C622 1.392 . S
C621 C625 1.495 . S
C622 C621 1.392 . S
C622 C623 1.385 1_554 S
C622 C624 1.478 . S
C623 H617 0.930 . S
C623 C619 1.400 . S
C623 C622 1.385 1_556 S
C624 C622 1.478 . S
C624 C626 1.381 . S
C624 C630 1.383 1_554 S
C625 C621 1.495 . S
C625 H631 0.959 . S
C625 H632 0.961 . S
C625 H633 0.960 . S
C626 C624 1.381 . S
C626 C627 1.394 . S
C626 H634 0.930 . S
C627 C626 1.394 . S
C627 C628 1.383 . S
C627 H635 0.929 . S
C628 C627 1.383 . S
C628 C629 1.377 1_554 S
C629 H613 0.930 . S
C629 C628 1.377 1_556 S
C629 C630 1.379 . S
C630 H614 0.931 . S
C630 C624 1.383 1_556 S
C630 C629 1.379 . S
H631 C625 0.959 . S
H632 C625 0.961 . S
H633 C625 0.960 . S
H634 C626 0.930 . S
H635 C627 0.929 . S
H636 C644 0.929 . S
H637 C646 0.930 . S
H638 C648 0.930 . S
H639 C651 0.929 . S
H640 C654 0.930 . S
H641 C656 0.960 . S
H642 C656 0.960 . S
H643 C656 0.960 1_556 S
C644 H636 0.929 . S
C644 C645 1.377 . S
C644 C646 1.384 . S
C645 C644 1.377 . S
C645 C651 1.390 1_554 S
C646 H637 0.930 . S
C646 C644 1.384 . S
C646 C647 1.372 . S
C647 C646 1.372 . S
C647 C648 1.400 1_554 S
C647 C652 1.490 . S
C648 H638 0.930 . S
C648 C647 1.400 1_556 S
C648 C651 1.386 . S
H649 C665 0.930 . S
H650 C666 0.931 . S
C651 H639 0.929 . S
C651 C645 1.390 1_556 S
C651 C648 1.386 . S
C652 C647 1.490 . S
C652 C654 1.395 1_554 S
C652 C655 1.403 . S
H653 C659 0.930 . S
C654 H640 0.930 . S
C654 C652 1.395 1_556 S
C654 C657 1.403 . S
C655 C652 1.403 . S
C655 C656 1.524 . S
C655 C659 1.400 . S
C656 H641 0.960 . S
C656 H642 0.960 . S
C656 H643 0.960 1_554 S
C656 C655 1.524 . S
C657 C654 1.403 . S
C657 C658 1.392 1_556 S
C657 C661 1.495 . S
C658 C657 1.392 1_554 S
C658 C659 1.385 . S
C658 C660 1.478 1_554 S
C659 H653 0.930 . S
C659 C655 1.400 . S
C659 C658 1.385 . S
C660 C658 1.478 1_556 S
C660 C662 1.381 1_556 S
C660 C666 1.383 . S
C661 C657 1.495 . S
C661 H667 0.959 . S
C661 H668 0.961 . S
C661 H669 0.960 1_556 S
C662 C660 1.381 1_554 S
C662 C663 1.394 . S
C662 H670 0.930 . S
C663 C662 1.394 . S
C663 C664 1.383 1_554 S
C663 H671 0.929 . S
C664 C663 1.383 1_556 S
C664 C665 1.377 . S
C665 H649 0.930 . S
C665 C664 1.377 . S
C665 C666 1.379 . S
C666 H650 0.931 . S
C666 C660 1.383 . S
C666 C665 1.379 . S
H667 C661 0.959 . S
H668 C661 0.961 . S
H669 C661 0.960 1_554 S
H670 C662 0.930 . S
H671 C663 0.929 . S
H672 C680 0.929 . S
H673 C682 0.930 . S
H674 C684 0.930 . S
H675 C687 0.929 . S
H676 C690 0.930 . S
H677 C692 0.960 . S
H678 C692 0.960 . S
H679 C692 0.960 . S
C680 H672 0.929 . S
C680 C681 1.377 . S
C680 C682 1.384 . S
C681 C680 1.377 . S
C681 C687 1.390 . S
C682 H673 0.930 . S
C682 C680 1.384 . S
C682 C683 1.372 . S
C683 C682 1.372 . S
C683 C684 1.400 . S
C683 C688 1.490 . S
C684 H674 0.930 . S
C684 C683 1.400 . S
C684 C687 1.386 . S
H685 C701 0.930 . S
H686 C702 0.931 . S
C687 H675 0.929 . S
C687 C681 1.390 . S
C687 C684 1.386 . S
C688 C683 1.490 . S
C688 C690 1.395 . S
C688 C691 1.403 . S
H689 C695 0.930 . S
C690 H676 0.930 . S
C690 C688 1.395 . S
C690 C693 1.403 . S
C691 C688 1.403 . S
C691 C692 1.524 . S
C691 C695 1.400 . S
C692 H677 0.960 . S
C692 H678 0.960 . S
C692 H679 0.960 . S
C692 C691 1.524 . S
C693 C690 1.403 . S
C693 C694 1.392 . S
C693 C697 1.495 . S
C694 C693 1.392 . S
C694 C695 1.385 . S
C694 C696 1.478 . S
C695 H689 0.930 . S
C695 C691 1.400 . S
C695 C694 1.385 . S
C696 C694 1.478 . S
C696 C698 1.381 . S
C696 C702 1.383 . S
C697 C693 1.495 . S
C697 H703 0.959 . S
C697 H704 0.961 . S
C697 H705 0.960 . S
C698 C696 1.381 . S
C698 C699 1.394 . S
C698 H706 0.930 . S
C699 C698 1.394 . S
C699 C700 1.383 . S
C699 H707 0.929 . S
C700 C699 1.383 . S
C700 C701 1.377 . S
C701 H685 0.930 . S
C701 C700 1.377 . S
C701 C702 1.379 . S
C702 H686 0.931 . S
C702 C696 1.383 . S
C702 C701 1.379 . S
H703 C697 0.959 . S
H704 C697 0.961 . S
H705 C697 0.960 . S
H706 C698 0.930 . S
H707 C699 0.929 . S
H708 C716 0.929 . S
H709 C718 0.930 . S
H710 C720 0.930 . S
H711 C723 0.929 . S
H712 C726 0.930 . S
H713 C728 0.960 . S
H714 C728 0.960 . S
H715 C728 0.960 . S
C716 H708 0.929 . S
C716 C717 1.377 . S
C716 C718 1.384 . S
C717 C716 1.377 . S
C717 C723 1.390 . S
C718 H709 0.930 . S
C718 C716 1.384 . S
C718 C719 1.372 . S
C719 C718 1.372 . S
C719 C720 1.400 . S
C719 C724 1.490 . S
C720 H710 0.930 . S
C720 C719 1.400 . S
C720 C723 1.386 . S
H721 C737 0.930 . S
H722 C738 0.931 . S
C723 H711 0.929 . S
C723 C717 1.390 . S
C723 C720 1.386 . S
C724 C719 1.490 . S
C724 C726 1.395 . S
C724 C727 1.403 . S
H725 C731 0.930 . S
C726 H712 0.930 . S
C726 C724 1.395 . S
C726 C729 1.403 . S
C727 C724 1.403 . S
C727 C728 1.524 . S
C727 C731 1.400 . S
C728 H713 0.960 . S
C728 H714 0.960 . S
C728 H715 0.960 . S
C728 C727 1.524 . S
C729 C726 1.403 . S
C729 C730 1.392 . S
C729 C733 1.495 . S
C730 C729 1.392 . S
C730 C731 1.385 . S
C730 C732 1.478 . S
C731 H725 0.930 . S
C731 C727 1.400 . S
C731 C730 1.385 . S
C732 C730 1.478 . S
C732 C734 1.381 . S
C732 C738 1.383 . S
C733 C729 1.495 . S
C733 H739 0.959 . S
C733 H740 0.961 . S
C733 H741 0.960 . S
C734 C732 1.381 . S
C734 C735 1.394 . S
C734 H742 0.930 . S
C735 C734 1.394 . S
C735 C736 1.383 . S
C735 H743 0.929 . S
C736 C735 1.383 . S
C736 C737 1.377 . S
C737 H721 0.930 . S
C737 C736 1.377 . S
C737 C738 1.379 . S
C738 H722 0.931 . S
C738 C732 1.383 . S
C738 C737 1.379 . S
H739 C733 0.959 . S
H740 C733 0.961 . S
H741 C733 0.960 . S
H742 C734 0.930 . S
H743 C735 0.929 . S
H744 C752 0.929 . S
H745 C754 0.930 . S
H746 C756 0.930 . S
H747 C759 0.929 . S
H748 C762 0.930 . S
H749 C764 0.960 . S
H750 C764 0.960 . S
H751 C764 0.960 . S
C752 H744 0.929 . S
C752 C753 1.377 . S
C752 C754 1.384 . S
C753 C752 1.377 . S
C753 C759 1.390 . S
C754 H745 0.930 . S
C754 C752 1.384 . S
C754 C755 1.372 . S
C755 C754 1.372 . S
C755 C756 1.400 . S
C755 C760 1.490 . S
C756 H746 0.930 . S
C756 C755 1.400 . S
C756 C759 1.386 . S
H757 C773 0.930 . S
H758 C774 0.931 . S
C759 H747 0.929 . S
C759 C753 1.390 . S
C759 C756 1.386 . S
C760 C755 1.490 . S
C760 C762 1.395 . S
C760 C763 1.403 . S
H761 C767 0.930 . S
C762 H748 0.930 . S
C762 C760 1.395 . S
C762 C765 1.403 . S
C763 C760 1.403 . S
C763 C764 1.524 . S
C763 C767 1.400 . S
C764 H749 0.960 . S
C764 H750 0.960 . S
C764 H751 0.960 . S
C764 C763 1.524 . S
C765 C762 1.403 . S
C765 C766 1.392 . S
C765 C769 1.495 . S
C766 C765 1.392 . S
C766 C767 1.385 . S
C766 C768 1.478 . S
C767 H761 0.930 . S
C767 C763 1.400 . S
C767 C766 1.385 . S
C768 C766 1.478 . S
C768 C770 1.381 . S
C768 C774 1.383 . S
C769 C765 1.495 . S
C769 H775 0.959 . S
C769 H776 0.961 . S
C769 H777 0.960 . S
C770 C768 1.381 . S
C770 C771 1.394 . S
C770 H778 0.930 . S
C771 C770 1.394 . S
C771 C772 1.383 . S
C771 H779 0.929 . S
C772 C771 1.383 . S
C772 C773 1.377 . S
C773 H757 0.930 . S
C773 C772 1.377 . S
C773 C774 1.379 . S
C774 H758 0.931 . S
C774 C768 1.383 . S
C774 C773 1.379 . S
H775 C769 0.959 . S
H776 C769 0.961 . S
H777 C769 0.960 . S
H778 C770 0.930 . S
H779 C771 0.929 . S
H780 C788 0.929 . S
H781 C790 0.930 . S
H782 C792 0.930 . S
H783 C795 0.929 . S
H784 C798 0.930 . S
H785 C800 0.960 . S
H786 C800 0.960 . S
H787 C800 0.960 . S
C788 H780 0.929 . S
C788 C789 1.377 . S
C788 C790 1.384 . S
C789 C788 1.377 . S
C789 C795 1.390 . S
C790 H781 0.930 . S
C790 C788 1.384 . S
C790 C791 1.372 . S
C791 C790 1.372 . S
C791 C792 1.400 . S
C791 C796 1.490 . S
C792 H782 0.930 . S
C792 C791 1.400 . S
C792 C795 1.386 . S
H793 C809 0.930 . S
H794 C810 0.931 . S
C795 H783 0.929 . S
C795 C789 1.390 . S
C795 C792 1.386 . S
C796 C791 1.490 . S
C796 C798 1.395 . S
C796 C799 1.403 . S
H797 C803 0.930 . S
C798 H784 0.930 . S
C798 C796 1.395 . S
C798 C801 1.403 . S
C799 C796 1.403 . S
C799 C800 1.524 . S
C799 C803 1.400 . S
C800 H785 0.960 . S
C800 H786 0.960 . S
C800 H787 0.960 . S
C800 C799 1.524 . S
C801 C798 1.403 . S
C801 C802 1.392 . S
C801 C805 1.495 . S
C802 C801 1.392 . S
C802 C803 1.385 . S
C802 C804 1.478 . S
C803 H797 0.930 . S
C803 C799 1.400 . S
C803 C802 1.385 . S
C804 C802 1.478 . S
C804 C806 1.381 . S
C804 C810 1.383 . S
C805 C801 1.495 . S
C805 H811 0.959 . S
C805 H812 0.961 . S
C805 H813 0.960 . S
C806 C804 1.381 . S
C806 C807 1.394 . S
C806 H814 0.930 . S
C807 C806 1.394 . S
C807 C808 1.383 . S
C807 H815 0.929 . S
C808 C807 1.383 . S
C808 C809 1.377 . S
C809 H793 0.930 . S
C809 C808 1.377 . S
C809 C810 1.379 . S
C810 H794 0.931 . S
C810 C804 1.383 . S
C810 C809 1.379 . S
H811 C805 0.959 . S
H812 C805 0.961 . S
H813 C805 0.960 . S
H814 C806 0.930 . S
H815 C807 0.929 . S
H816 C824 0.929 . S
H817 C826 0.930 . S
H818 C828 0.930 . S
H819 C831 0.929 . S
H820 C834 0.930 . S
H821 C836 0.960 . S
H822 C836 0.960 . S
H823 C836 0.960 . S
C824 H816 0.929 . S
C824 C825 1.377 . S
C824 C826 1.384 . S
C825 C824 1.377 . S
C825 C831 1.390 . S
C826 H817 0.930 . S
C826 C824 1.384 . S
C826 C827 1.372 . S
C827 C826 1.372 . S
C827 C828 1.400 . S
C827 C832 1.490 . S
C828 H818 0.930 . S
C828 C827 1.400 . S
C828 C831 1.386 . S
H829 C845 0.930 . S
H830 C846 0.931 . S
C831 H819 0.929 . S
C831 C825 1.390 . S
C831 C828 1.386 . S
C832 C827 1.490 . S
C832 C834 1.395 . S
C832 C835 1.403 1_655 S
H833 C839 0.930 . S
C834 H820 0.930 . S
C834 C832 1.395 . S
C834 C837 1.403 . S
C835 C832 1.403 1_455 S
C835 C836 1.524 . S
C835 C839 1.400 . S
C836 H821 0.960 . S
C836 H822 0.960 . S
C836 H823 0.960 . S
C836 C835 1.524 . S
C837 C834 1.403 . S
C837 C838 1.392 1_655 S
C837 C841 1.495 . S
C838 C837 1.392 1_455 S
C838 C839 1.385 . S
C838 C840 1.478 . S
C839 H833 0.930 . S
C839 C835 1.400 . S
C839 C838 1.385 . S
C840 C838 1.478 . S
C840 C842 1.381 . S
C840 C846 1.383 . S
C841 C837 1.495 . S
C841 H847 0.959 . S
C841 H848 0.961 . S
C841 H849 0.960 . S
C842 C840 1.381 . S
C842 C843 1.394 . S
C842 H850 0.930 . S
C843 C842 1.394 . S
C843 C844 1.383 . S
C843 H851 0.929 . S
C844 C843 1.383 . S
C844 C845 1.377 . S
C845 H829 0.930 . S
C845 C844 1.377 . S
C845 C846 1.379 . S
C846 H830 0.931 . S
C846 C840 1.383 . S
C846 C845 1.379 . S
H847 C841 0.959 . S
H848 C841 0.961 . S
H849 C841 0.960 . S
H850 C842 0.930 . S
H851 C843 0.929 . S
H852 C860 0.929 . S
H853 C862 0.930 . S
H854 C864 0.930 . S
H855 C867 0.929 . S
H856 C870 0.930 . S
H857 C872 0.960 . S
H858 C872 0.960 . S
H859 C872 0.960 . S
C860 H852 0.929 . S
C860 C861 1.377 . S
C860 C862 1.384 . S
C861 C860 1.377 . S
C861 C867 1.390 . S
C862 H853 0.930 . S
C862 C860 1.384 . S
C862 C863 1.372 . S
C863 C862 1.372 . S
C863 C864 1.400 . S
C863 C868 1.490 . S
C864 H854 0.930 . S
C864 C863 1.400 . S
C864 C867 1.386 . S
H865 C881 0.930 . S
H866 C882 0.931 . S
C867 H855 0.929 . S
C867 C861 1.390 . S
C867 C864 1.386 . S
C868 C863 1.490 . S
C868 C870 1.395 . S
C868 C871 1.403 1_565 S
H869 C875 0.930 . S
C870 H856 0.930 . S
C870 C868 1.395 . S
C870 C873 1.403 . S
C871 C868 1.403 1_545 S
C871 C872 1.524 . S
C871 C875 1.400 . S
C872 H857 0.960 . S
C872 H858 0.960 . S
C872 H859 0.960 . S
C872 C871 1.524 . S
C873 C870 1.403 . S
C873 C874 1.392 1_565 S
C873 C877 1.495 . S
C874 C873 1.392 1_545 S
C874 C875 1.385 . S
C874 C876 1.478 . S
C875 H869 0.930 . S
C875 C871 1.400 . S
C875 C874 1.385 . S
C876 C874 1.478 . S
C876 C878 1.381 . S
C876 C882 1.383 . S
C877 C873 1.495 . S
C877 H883 0.959 . S
C877 H884 0.961 . S
C877 H885 0.960 . S
C878 C876 1.381 . S
C878 C879 1.394 . S
C878 H886 0.930 . S
C879 C878 1.394 . S
C879 C880 1.383 . S
C879 H887 0.929 . S
C880 C879 1.383 . S
C880 C881 1.377 . S
C881 H865 0.930 . S
C881 C880 1.377 . S
C881 C882 1.379 . S
C882 H866 0.931 . S
C882 C876 1.383 . S
C882 C881 1.379 . S
H883 C877 0.959 . S
H884 C877 0.961 . S
H885 C877 0.960 . S
H886 C878 0.930 . S
H887 C879 0.929 . S
H888 C896 0.929 . S
H889 C898 0.930 . S
H890 C900 0.930 . S
H891 C903 0.929 . S
H892 C906 0.930 . S
H893 C908 0.960 . S
H894 C908 0.960 . S
H895 C908 0.960 . S
C896 H888 0.929 . S
C896 C897 1.377 . S
C896 C898 1.384 . S
C897 C896 1.377 . S
C897 C903 1.390 . S
C898 H889 0.930 . S
C898 C896 1.384 . S
C898 C899 1.372 . S
C899 C898 1.372 . S
C899 C900 1.400 . S
C899 C904 1.490 . S
C900 H890 0.930 . S
C900 C899 1.400 . S
C900 C903 1.386 . S
H901 C917 0.930 . S
H902 C918 0.931 . S
C903 H891 0.929 . S
C903 C897 1.390 . S
C903 C900 1.386 . S
C904 C899 1.490 . S
C904 C906 1.395 . S
C904 C907 1.403 1_455 S
H905 C911 0.930 . S
C906 H892 0.930 . S
C906 C904 1.395 . S
C906 C909 1.403 . S
C907 C904 1.403 1_655 S
C907 C908 1.524 . S
C907 C911 1.400 . S
C908 H893 0.960 . S
C908 H894 0.960 . S
C908 H895 0.960 . S
C908 C907 1.524 . S
C909 C906 1.403 . S
C909 C910 1.392 1_455 S
C909 C913 1.495 . S
C910 C909 1.392 1_655 S
C910 C911 1.385 . S
C910 C912 1.478 . S
C911 H905 0.930 . S
C911 C907 1.400 . S
C911 C910 1.385 . S
C912 C910 1.478 . S
C912 C914 1.381 . S
C912 C918 1.383 . S
C913 C909 1.495 . S
C913 H919 0.959 . S
C913 H920 0.961 . S
C913 H921 0.960 . S
C914 C912 1.381 . S
C914 C915 1.394 . S
C914 H922 0.930 . S
C915 C914 1.394 . S
C915 C916 1.383 . S
C915 H923 0.929 . S
C916 C915 1.383 . S
C916 C917 1.377 . S
C917 H901 0.930 . S
C917 C916 1.377 . S
C917 C918 1.379 . S
C918 H902 0.931 . S
C918 C912 1.383 . S
C918 C917 1.379 . S
H919 C913 0.959 . S
H920 C913 0.961 . S
H921 C913 0.960 . S
H922 C914 0.930 . S
H923 C915 0.929 . S
H924 C932 0.929 . S
H925 C934 0.930 . S
H926 C936 0.930 . S
H927 C939 0.929 . S
H928 C942 0.930 . S
H929 C944 0.960 . S
H930 C944 0.960 . S
H931 C944 0.960 . S
C932 H924 0.929 . S
C932 C933 1.377 . S
C932 C934 1.384 . S
C933 C932 1.377 . S
C933 C939 1.390 . S
C934 H925 0.930 . S
C934 C932 1.384 . S
C934 C935 1.372 . S
C935 C934 1.372 . S
C935 C936 1.400 . S
C935 C940 1.490 . S
C936 H926 0.930 . S
C936 C935 1.400 . S
C936 C939 1.386 . S
H937 C953 0.930 . S
H938 C954 0.931 . S
C939 H927 0.929 . S
C939 C933 1.390 . S
C939 C936 1.386 . S
C940 C935 1.490 . S
C940 C942 1.395 . S
C940 C943 1.403 1_545 S
H941 C947 0.930 . S
C942 H928 0.930 . S
C942 C940 1.395 . S
C942 C945 1.403 . S
C943 C940 1.403 1_565 S
C943 C944 1.524 . S
C943 C947 1.400 . S
C944 H929 0.960 . S
C944 H930 0.960 . S
C944 H931 0.960 . S
C944 C943 1.524 . S
C945 C942 1.403 . S
C945 C946 1.392 1_545 S
C945 C949 1.495 . S
C946 C945 1.392 1_565 S
C946 C947 1.385 . S
C946 C948 1.478 . S
C947 H941 0.930 . S
C947 C943 1.400 . S
C947 C946 1.385 . S
C948 C946 1.478 . S
C948 C950 1.381 . S
C948 C954 1.383 . S
C949 C945 1.495 . S
C949 H955 0.959 . S
C949 H956 0.961 . S
C949 H957 0.960 . S
C950 C948 1.381 . S
C950 C951 1.394 . S
C950 H958 0.930 . S
C951 C950 1.394 . S
C951 C952 1.383 . S
C951 H959 0.929 . S
C952 C951 1.383 . S
C952 C953 1.377 . S
C953 H937 0.930 . S
C953 C952 1.377 . S
C953 C954 1.379 . S
C954 H938 0.931 . S
C954 C948 1.383 . S
C954 C953 1.379 . S
H955 C949 0.959 . S
H956 C949 0.961 . S
H957 C949 0.960 . S
H958 C950 0.930 . S
H959 C951 0.929 . S
H960 C968 0.929 . S
H961 C970 0.930 . S
H962 C972 0.930 . S
H963 C975 0.929 . S
H964 C978 0.930 . S
H965 C980 0.960 . S
H966 C980 0.960 . S
H967 C980 0.960 1_455 S
C968 H960 0.929 . S
C968 C969 1.377 . S
C968 C970 1.384 . S
C969 C968 1.377 . S
C969 C975 1.390 . S
C970 H961 0.930 . S
C970 C968 1.384 . S
C970 C971 1.372 . S
C971 C970 1.372 . S
C971 C972 1.400 . S
C971 C976 1.490 . S
C972 H962 0.930 . S
C972 C971 1.400 . S
C972 C975 1.386 . S
H973 C989 0.930 . S
H974 C990 0.931 . S
C975 H963 0.929 . S
C975 C969 1.390 . S
C975 C972 1.386 . S
C976 C971 1.490 . S
C976 C978 1.395 . S
C976 C979 1.380 1_455 S
H977 C983 0.930 . S
C978 H964 0.930 . S
C978 C976 1.395 . S
C978 C981 1.403 . S
C979 C976 1.380 1_655 S
C979 C980 1.527 . S
C979 C983 1.421 . S
C980 H965 0.960 . S
C980 H966 0.960 . S
C980 H967 0.960 1_655 S
C980 C979 1.527 . S
C981 C978 1.403 . S
C981 C982 1.392 1_455 S
C981 C985 1.495 . S
C982 C981 1.392 1_655 S
C982 C983 1.385 . S
C982 C984 1.478 . S
C983 H977 0.930 . S
C983 C979 1.421 . S
C983 C982 1.385 . S
C984 C982 1.478 . S
C984 C986 1.381 . S
C984 C990 1.383 . S
C985 C981 1.495 . S
C985 H991 0.959 . S
C985 H992 0.961 . S
C985 H993 0.960 1_455 S
C986 C984 1.381 . S
C986 C987 1.394 . S
C986 H994 0.930 . S
C987 C986 1.394 . S
C987 C988 1.383 . S
C987 H995 0.929 . S
C988 C987 1.383 . S
C988 C989 1.377 . S
C989 H973 0.930 . S
C989 C988 1.377 . S
C989 C990 1.379 . S
C990 H974 0.931 . S
C990 C984 1.383 . S
C990 C989 1.379 . S
H991 C985 0.959 . S
H992 C985 0.961 . S
H993 C985 0.960 1_655 S
H994 C986 0.930 . S
H995 C987 0.929 . S
H996 C1004 0.929 . S
H997 C1006 0.930 . S
H998 C1008 0.930 . S
H999 C1011 0.929 . S
H1000 C1014 0.930 . S
H1001 C1016 0.960 . S
H1002 C1016 0.960 . S
H1003 C1016 0.979 . S
C1004 H996 0.929 . S
C1004 C1005 1.377 . S
C1004 C1006 1.384 . S
C1005 C1004 1.377 . S
C1005 C1011 1.390 . S
C1006 H997 0.930 . S
C1006 C1004 1.384 . S
C1006 C1007 1.372 . S
C1007 C1006 1.372 . S
C1007 C1008 1.400 . S
C1007 C1012 1.490 . S
C1008 H998 0.930 . S
C1008 C1007 1.400 . S
C1008 C1011 1.386 . S
H1009 C1025 0.930 . S
H1010 C1026 0.931 . S
C1011 H999 0.929 . S
C1011 C1005 1.390 . S
C1011 C1008 1.386 . S
C1012 C1007 1.490 . S
C1012 C1014 1.395 . S
C1012 C1015 1.403 1_565 S
H1013 C1019 0.930 . S
C1014 H1000 0.930 . S
C1014 C1012 1.395 . S
C1014 C1017 1.403 . S
C1015 C1012 1.403 1_545 S
C1015 C1016 1.524 . S
C1015 C1019 1.400 . S
C1016 H1001 0.960 . S
C1016 H1002 0.960 . S
C1016 H1003 0.979 . S
C1016 C1015 1.524 . S
C1017 C1014 1.403 . S
C1017 C1018 1.392 1_565 S
C1017 C1021 1.495 . S
C1018 C1017 1.392 1_545 S
C1018 C1019 1.385 . S
C1018 C1020 1.478 . S
C1019 H1013 0.930 . S
C1019 C1015 1.400 . S
C1019 C1018 1.385 . S
C1020 C1018 1.478 . S
C1020 C1022 1.381 . S
C1020 C1026 1.383 . S
C1021 C1017 1.495 . S
C1021 H1027 0.959 . S
C1021 H1028 0.961 . S
C1021 H1029 0.960 . S
C1022 C1020 1.381 . S
C1022 C1023 1.394 . S
C1022 H1030 0.930 . S
C1023 C1022 1.394 . S
C1023 C1024 1.383 . S
C1023 H1031 0.929 . S
C1024 C1023 1.383 . S
C1024 C1025 1.377 . S
C1025 H1009 0.930 . S
C1025 C1024 1.377 . S
C1025 C1026 1.379 . S
C1026 H1010 0.931 . S
C1026 C1020 1.383 . S
C1026 C1025 1.379 . S
H1027 C1021 0.959 . S
H1028 C1021 0.961 . S
H1029 C1021 0.960 . S
H1030 C1022 0.930 . S
H1031 C1023 0.929 . S
H1032 C1040 0.929 . S
H1033 C1042 0.930 . S
H1034 C1044 0.930 . S
H1035 C1047 0.929 . S
H1036 C1050 0.930 . S
H1037 C1052 0.960 . S
H1038 C1052 0.960 . S
H1039 C1052 0.960 . S
C1040 H1032 0.929 . S
C1040 C1041 1.377 . S
C1040 C1042 1.384 . S
C1041 C1040 1.377 . S
C1041 C1047 1.390 . S
C1042 H1033 0.930 . S
C1042 C1040 1.384 . S
C1042 C1043 1.372 . S
C1043 C1042 1.372 . S
C1043 C1044 1.400 . S
C1043 C1048 1.490 . S
C1044 H1034 0.930 . S
C1044 C1043 1.400 . S
C1044 C1047 1.386 . S
H1045 C1061 0.930 . S
H1046 C1062 0.931 . S
C1047 H1035 0.929 . S
C1047 C1041 1.390 . S
C1047 C1044 1.386 . S
C1048 C1043 1.490 . S
C1048 C1050 1.395 1_655 S
C1048 C1051 1.403 . S
H1049 C1055 0.929 1_655 S
C1050 H1036 0.930 . S
C1050 C1048 1.395 1_455 S
C1050 C1053 1.403 . S
C1051 C1048 1.403 . S
C1051 C1052 1.524 . S
C1051 C1055 1.386 1_655 S
C1052 H1037 0.960 . S
C1052 H1038 0.960 . S
C1052 H1039 0.960 . S
C1052 C1051 1.524 . S
C1053 C1050 1.403 . S
C1053 C1054 1.392 . S
C1053 C1057 1.495 . S
C1054 C1053 1.392 . S
C1054 C1055 1.400 . S
C1054 C1056 1.478 . S
C1055 H1049 0.929 1_455 S
C1055 C1051 1.386 1_455 S
C1055 C1054 1.400 . S
C1056 C1054 1.478 . S
C1056 C1058 1.381 . S
C1056 C1062 1.383 . S
C1057 C1053 1.495 . S
C1057 H1063 0.959 . S
C1057 H1064 0.961 . S
C1057 H1065 0.960 . S
C1058 C1056 1.381 . S
C1058 C1059 1.394 . S
C1058 H1066 0.930 . S
C1059 C1058 1.394 . S
C1059 C1060 1.383 . S
C1059 H1067 0.929 . S
C1060 C1059 1.383 . S
C1060 C1061 1.377 . S
C1061 H1045 0.930 . S
C1061 C1060 1.377 . S
C1061 C1062 1.379 . S
C1062 H1046 0.931 . S
C1062 C1056 1.383 . S
C1062 C1061 1.379 . S
H1063 C1057 0.959 . S
H1064 C1057 0.961 . S
H1065 C1057 0.960 . S
H1066 C1058 0.930 . S
H1067 C1059 0.929 . S
H1068 C1076 0.929 . S
H1069 C1078 0.930 . S
H1070 C1080 0.930 . S
H1071 C1083 0.929 . S
H1072 C1086 0.930 . S
H1073 C1088 0.960 . S
H1074 C1088 0.960 . S
H1075 C1088 0.960 . S
C1076 H1068 0.929 . S
C1076 C1077 1.377 . S
C1076 C1078 1.384 . S
C1077 C1076 1.377 . S
C1077 C1083 1.390 . S
C1078 H1069 0.930 . S
C1078 C1076 1.384 . S
C1078 C1079 1.372 . S
C1079 C1078 1.372 . S
C1079 C1080 1.400 . S
C1079 C1084 1.490 . S
C1080 H1070 0.930 . S
C1080 C1079 1.400 . S
C1080 C1083 1.386 . S
H1081 C1097 0.930 . S
H1082 C1098 0.931 . S
C1083 H1071 0.929 . S
C1083 C1077 1.390 . S
C1083 C1080 1.386 . S
C1084 C1079 1.490 . S
C1084 C1086 1.395 . S
C1084 C1087 1.403 . S
H1085 C1091 0.930 . S
C1086 H1072 0.930 . S
C1086 C1084 1.395 . S
C1086 C1089 1.403 1_545 S
C1087 C1084 1.403 . S
C1087 C1088 1.524 . S
C1087 C1091 1.400 1_545 S
C1088 H1073 0.960 . S
C1088 H1074 0.960 . S
C1088 H1075 0.960 . S
C1088 C1087 1.524 . S
C1089 C1086 1.403 1_565 S
C1089 C1090 1.392 . S
C1089 C1093 1.495 . S
C1090 C1089 1.392 . S
C1090 C1091 1.385 . S
C1090 C1092 1.478 . S
C1091 H1085 0.930 . S
C1091 C1087 1.400 1_565 S
C1091 C1090 1.385 . S
C1092 C1090 1.478 . S
C1092 C1094 1.381 . S
C1092 C1098 1.383 . S
C1093 C1089 1.495 . S
C1093 H1099 0.959 . S
C1093 H1100 0.961 . S
C1093 H1101 0.960 . S
C1094 C1092 1.381 . S
C1094 C1095 1.394 . S
C1094 H1102 0.930 . S
C1095 C1094 1.394 . S
C1095 C1096 1.383 . S
C1095 H1103 0.929 . S
C1096 C1095 1.383 . S
C1096 C1097 1.377 . S
C1097 H1081 0.930 . S
C1097 C1096 1.377 . S
C1097 C1098 1.379 . S
C1098 H1082 0.931 . S
C1098 C1092 1.383 . S
C1098 C1097 1.379 . S
H1099 C1093 0.959 . S
H1100 C1093 0.961 . S
H1101 C1093 0.960 . S
H1102 C1094 0.930 . S
H1103 C1095 0.929 . S
H1104 C1112 0.929 . S
H1105 C1114 0.930 . S
H1106 C1116 0.930 . S
H1107 C1119 0.929 . S
H1108 C1122 0.930 . S
H1109 C1124 0.960 . S
H1110 C1124 0.960 . S
H1111 C1124 0.960 . S
C1112 H1104 0.929 . S
C1112 C1113 1.377 . S
C1112 C1114 1.384 . S
C1113 C1112 1.377 . S
C1113 C1119 1.390 . S
C1114 H1105 0.930 . S
C1114 C1112 1.384 . S
C1114 C1115 1.372 . S
C1115 C1114 1.372 . S
C1115 C1116 1.400 . S
C1115 C1120 1.490 . S
C1116 H1106 0.930 . S
C1116 C1115 1.400 . S
C1116 C1119 1.386 . S
H1117 C1133 0.930 . S
H1118 C1134 0.931 . S
C1119 H1107 0.929 . S
C1119 C1113 1.390 . S
C1119 C1116 1.386 . S
C1120 C1115 1.490 . S
C1120 C1122 1.395 . S
C1120 C1123 1.403 . S
H1121 C1127 0.930 . S
C1122 H1108 0.930 . S
C1122 C1120 1.395 . S
C1122 C1125 1.403 . S
C1123 C1120 1.403 . S
C1123 C1124 1.524 . S
C1123 C1127 1.400 . S
C1124 H1109 0.960 . S
C1124 H1110 0.960 . S
C1124 H1111 0.960 . S
C1124 C1123 1.524 . S
C1125 C1122 1.403 . S
C1125 C1126 1.392 . S
C1125 C1129 1.495 . S
C1126 C1125 1.392 . S
C1126 C1127 1.385 . S
C1126 C1128 1.478 . S
C1127 H1121 0.930 . S
C1127 C1123 1.400 . S
C1127 C1126 1.385 . S
C1128 C1126 1.478 . S
C1128 C1130 1.381 . S
C1128 C1134 1.383 . S
C1129 C1125 1.495 . S
C1129 H1135 0.959 . S
C1129 H1136 0.961 . S
C1129 H1137 0.960 . S
C1130 C1128 1.381 . S
C1130 C1131 1.394 . S
C1130 H1138 0.930 . S
C1131 C1130 1.394 . S
C1131 C1132 1.383 . S
C1131 H1139 0.929 . S
C1132 C1131 1.383 . S
C1132 C1133 1.377 . S
C1133 H1117 0.930 . S
C1133 C1132 1.377 . S
C1133 C1134 1.379 . S
C1134 H1118 0.931 . S
C1134 C1128 1.383 . S
C1134 C1133 1.379 . S
H1135 C1129 0.959 . S
H1136 C1129 0.961 . S
H1137 C1129 0.960 . S
H1138 C1130 0.930 . S
H1139 C1131 0.929 . S
H1140 C1148 0.929 . S
H1141 C1150 0.930 . S
H1142 C1152 0.930 . S
H1143 C1155 0.929 . S
H1144 C1158 0.930 . S
H1145 C1160 0.960 . S
H1146 C1160 0.960 . S
H1147 C1160 0.960 . S
C1148 H1140 0.929 . S
C1148 C1149 1.377 . S
C1148 C1150 1.384 . S
C1149 C1148 1.377 . S
C1149 C1155 1.390 . S
C1150 H1141 0.930 . S
C1150 C1148 1.384 . S
C1150 C1151 1.372 . S
C1151 C1150 1.372 . S
C1151 C1152 1.400 . S
C1151 C1156 1.490 . S
C1152 H1142 0.930 . S
C1152 C1151 1.400 . S
C1152 C1155 1.386 . S
H1153 C1169 0.930 . S
H1154 C1170 0.931 . S
C1155 H1143 0.929 . S
C1155 C1149 1.390 . S
C1155 C1152 1.386 . S
C1156 C1151 1.490 . S
C1156 C1158 1.395 . S
C1156 C1159 1.403 . S
H1157 C1163 0.930 . S
C1158 H1144 0.930 . S
C1158 C1156 1.395 . S
C1158 C1161 1.403 . S
C1159 C1156 1.403 . S
C1159 C1160 1.524 . S
C1159 C1163 1.400 . S
C1160 H1145 0.960 . S
C1160 H1146 0.960 . S
C1160 H1147 0.960 . S
C1160 C1159 1.524 . S
C1161 C1158 1.403 . S
C1161 C1162 1.392 . S
C1161 C1165 1.495 . S
C1162 C1161 1.392 . S
C1162 C1163 1.385 . S
C1162 C1164 1.478 . S
C1163 H1157 0.930 . S
C1163 C1159 1.400 . S
C1163 C1162 1.385 . S
C1164 C1162 1.478 . S
C1164 C1166 1.381 . S
C1164 C1170 1.383 . S
C1165 C1161 1.495 . S
C1165 H1171 0.959 . S
C1165 H1172 0.961 . S
C1165 H1173 0.960 . S
C1166 C1164 1.381 . S
C1166 C1167 1.394 . S
C1166 H1174 0.930 . S
C1167 C1166 1.394 . S
C1167 C1168 1.383 . S
C1167 H1175 0.929 . S
C1168 C1167 1.383 . S
C1168 C1169 1.377 . S
C1169 H1153 0.930 . S
C1169 C1168 1.377 . S
C1169 C1170 1.379 . S
C1170 H1154 0.931 . S
C1170 C1164 1.383 . S
C1170 C1169 1.379 . S
H1171 C1165 0.959 . S
H1172 C1165 0.961 . S
H1173 C1165 0.960 . S
H1174 C1166 0.930 . S
H1175 C1167 0.929 . S
H1176 C1184 0.929 . S
H1177 C1186 0.930 . S
H1178 C1188 0.930 . S
H1179 C1191 0.929 . S
H1180 C1194 0.930 . S
H1181 C1196 0.960 . S
H1182 C1196 0.960 . S
H1183 C1196 0.960 . S
C1184 H1176 0.929 . S
C1184 C1185 1.377 . S
C1184 C1186 1.384 . S
C1185 C1184 1.377 . S
C1185 C1191 1.390 . S
C1186 H1177 0.930 . S
C1186 C1184 1.384 . S
C1186 C1187 1.372 . S
C1187 C1186 1.372 . S
C1187 C1188 1.400 . S
C1187 C1192 1.490 . S
C1188 H1178 0.930 . S
C1188 C1187 1.400 . S
C1188 C1191 1.386 . S
H1189 C1205 0.930 . S
H1190 C1206 0.931 . S
C1191 H1179 0.929 . S
C1191 C1185 1.390 . S
C1191 C1188 1.386 . S
C1192 C1187 1.490 . S
C1192 C1194 1.395 . S
C1192 C1195 1.403 . S
H1193 C1199 0.930 . S
C1194 H1180 0.930 . S
C1194 C1192 1.395 . S
C1194 C1197 1.403 . S
C1195 C1192 1.403 . S
C1195 C1196 1.524 . S
C1195 C1199 1.400 . S
C1196 H1181 0.960 . S
C1196 H1182 0.960 . S
C1196 H1183 0.960 . S
C1196 C1195 1.524 . S
C1197 C1194 1.403 . S
C1197 C1198 1.392 . S
C1197 C1201 1.495 . S
C1198 C1197 1.392 . S
C1198 C1199 1.385 . S
C1198 C1200 1.478 . S
C1199 H1193 0.930 . S
C1199 C1195 1.400 . S
C1199 C1198 1.385 . S
C1200 C1198 1.478 . S
C1200 C1202 1.381 . S
C1200 C1206 1.383 . S
C1201 C1197 1.495 . S
C1201 H1207 0.959 . S
C1201 H1208 0.961 . S
C1201 H1209 0.960 . S
C1202 C1200 1.381 . S
C1202 C1203 1.394 . S
C1202 H1210 0.930 . S
C1203 C1202 1.394 . S
C1203 C1204 1.383 . S
C1203 H1211 0.929 . S
C1204 C1203 1.383 . S
C1204 C1205 1.377 . S
C1205 H1189 0.930 . S
C1205 C1204 1.377 . S
C1205 C1206 1.379 . S
C1206 H1190 0.931 . S
C1206 C1200 1.383 . S
C1206 C1205 1.379 . S
H1207 C1201 0.959 . S
H1208 C1201 0.961 . S
H1209 C1201 0.960 . S
H1210 C1202 0.930 . S
H1211 C1203 0.929 . S
H1212 C1220 0.929 . S
H1213 C1222 0.930 . S
H1214 C1224 0.930 . S
H1215 C1227 0.929 . S
H1216 C1230 0.930 . S
H1217 C1232 0.960 . S
H1218 C1232 0.960 . S
H1219 C1232 0.960 . S
C1220 H1212 0.929 . S
C1220 C1221 1.377 . S
C1220 C1222 1.384 . S
C1221 C1220 1.377 . S
C1221 C1227 1.390 . S
C1222 H1213 0.930 . S
C1222 C1220 1.384 . S
C1222 C1223 1.372 . S
C1223 C1222 1.372 . S
C1223 C1224 1.400 . S
C1223 C1228 1.490 . S
C1224 H1214 0.930 . S
C1224 C1223 1.400 . S
C1224 C1227 1.386 . S
H1225 C1241 0.930 . S
H1226 C1242 0.931 . S
C1227 H1215 0.929 . S
C1227 C1221 1.390 . S
C1227 C1224 1.386 . S
C1228 C1223 1.490 . S
C1228 C1230 1.395 . S
C1228 C1231 1.403 . S
H1229 C1235 0.930 . S
C1230 H1216 0.930 . S
C1230 C1228 1.395 . S
C1230 C1233 1.403 . S
C1231 C1228 1.403 . S
C1231 C1232 1.524 . S
C1231 C1235 1.400 . S
C1232 H1217 0.960 . S
C1232 H1218 0.960 . S
C1232 H1219 0.960 . S
C1232 C1231 1.524 . S
C1233 C1230 1.403 . S
C1233 C1234 1.392 . S
C1233 C1237 1.495 . S
C1234 C1233 1.392 . S
C1234 C1235 1.385 . S
C1234 C1236 1.478 . S
C1235 H1229 0.930 . S
C1235 C1231 1.400 . S
C1235 C1234 1.385 . S
C1236 C1234 1.478 . S
C1236 C1238 1.381 . S
C1236 C1242 1.383 . S
C1237 C1233 1.495 . S
C1237 H1243 0.959 . S
C1237 H1244 0.961 . S
C1237 H1245 0.960 . S
C1238 C1236 1.381 . S
C1238 C1239 1.394 . S
C1238 H1246 0.930 . S
C1239 C1238 1.394 . S
C1239 C1240 1.383 . S
C1239 H1247 0.929 . S
C1240 C1239 1.383 . S
C1240 C1241 1.377 . S
C1241 H1225 0.930 . S
C1241 C1240 1.377 . S
C1241 C1242 1.379 . S
C1242 H1226 0.931 . S
C1242 C1236 1.383 . S
C1242 C1241 1.379 . S
H1243 C1237 0.959 . S
H1244 C1237 0.961 . S
H1245 C1237 0.960 . S
H1246 C1238 0.930 . S
H1247 C1239 0.929 . S
H1248 C1256 0.929 . S
H1249 C1258 0.930 . S
H1250 C1260 0.930 . S
H1251 C1263 0.929 . S
H1252 C1266 0.930 . S
H1253 C1268 0.960 . S
H1254 C1268 0.960 . S
H1255 C1268 0.960 . S
C1256 H1248 0.929 . S
C1256 C1257 1.377 . S
C1256 C1258 1.384 . S
C1257 C1256 1.377 . S
C1257 C1263 1.390 . S
C1258 H1249 0.930 . S
C1258 C1256 1.384 . S
C1258 C1259 1.372 . S
C1259 C1258 1.372 . S
C1259 C1260 1.400 . S
C1259 C1264 1.490 . S
C1260 H1250 0.930 . S
C1260 C1259 1.400 . S
C1260 C1263 1.386 . S
H1261 C1277 0.930 . S
H1262 C1278 0.931 . S
C1263 H1251 0.929 . S
C1263 C1257 1.390 . S
C1263 C1260 1.386 . S
C1264 C1259 1.490 . S
C1264 C1266 1.395 . S
C1264 C1267 1.403 . S
H1265 C1271 0.930 . S
C1266 H1252 0.930 . S
C1266 C1264 1.395 . S
C1266 C1269 1.403 . S
C1267 C1264 1.403 . S
C1267 C1268 1.524 . S
C1267 C1271 1.400 . S
C1268 H1253 0.960 . S
C1268 H1254 0.960 . S
C1268 H1255 0.960 . S
C1268 C1267 1.524 . S
C1269 C1266 1.403 . S
C1269 C1270 1.392 . S
C1269 C1273 1.495 . S
C1270 C1269 1.392 . S
C1270 C1271 1.385 . S
C1270 C1272 1.478 . S
C1271 H1265 0.930 . S
C1271 C1267 1.400 . S
C1271 C1270 1.385 . S
C1272 C1270 1.478 . S
C1272 C1274 1.381 . S
C1272 C1278 1.383 . S
C1273 C1269 1.495 . S
C1273 H1279 0.959 . S
C1273 H1280 0.961 . S
C1273 H1281 0.960 . S
C1274 C1272 1.381 . S
C1274 C1275 1.394 . S
C1274 H1282 0.930 . S
C1275 C1274 1.394 . S
C1275 C1276 1.383 . S
C1275 H1283 0.929 . S
C1276 C1275 1.383 . S
C1276 C1277 1.377 . S
C1277 H1261 0.930 . S
C1277 C1276 1.377 . S
C1277 C1278 1.379 . S
C1278 H1262 0.931 . S
C1278 C1272 1.383 . S
C1278 C1277 1.379 . S
H1279 C1273 0.959 . S
H1280 C1273 0.961 . S
H1281 C1273 0.960 . S
H1282 C1274 0.930 . S
H1283 C1275 0.929 . S
H1284 C1292 0.929 . S
H1285 C1294 0.930 . S
H1286 C1296 0.930 . S
H1287 C1299 0.929 . S
H1288 C1302 0.930 . S
H1289 C1304 0.960 . S
H1290 C1304 0.960 . S
H1291 C1304 0.960 . S
C1292 H1284 0.929 . S
C1292 C1293 1.377 . S
C1292 C1294 1.384 . S
C1293 C1292 1.377 . S
C1293 C1299 1.390 . S
C1294 H1285 0.930 . S
C1294 C1292 1.384 . S
C1294 C1295 1.372 . S
C1295 C1294 1.372 . S
C1295 C1296 1.400 . S
C1295 C1300 1.490 . S
C1296 H1286 0.930 . S
C1296 C1295 1.400 . S
C1296 C1299 1.386 . S
H1297 C1313 0.930 . S
H1298 C1314 0.931 . S
C1299 H1287 0.929 . S
C1299 C1293 1.390 . S
C1299 C1296 1.386 . S
C1300 C1295 1.490 . S
C1300 C1302 1.395 . S
C1300 C1303 1.403 . S
H1301 C1307 0.930 . S
C1302 H1288 0.930 . S
C1302 C1300 1.395 . S
C1302 C1305 1.403 . S
C1303 C1300 1.403 . S
C1303 C1304 1.524 . S
C1303 C1307 1.400 . S
C1304 H1289 0.960 . S
C1304 H1290 0.960 . S
C1304 H1291 0.960 . S
C1304 C1303 1.524 . S
C1305 C1302 1.403 . S
C1305 C1306 1.392 . S
C1305 C1309 1.495 . S
C1306 C1305 1.392 . S
C1306 C1307 1.385 . S
C1306 C1308 1.478 . S
C1307 H1301 0.930 . S
C1307 C1303 1.400 . S
C1307 C1306 1.385 . S
C1308 C1306 1.478 . S
C1308 C1310 1.381 . S
C1308 C1314 1.383 . S
C1309 C1305 1.495 . S
C1309 H1315 0.959 . S
C1309 H1316 0.961 . S
C1309 H1317 0.960 . S
C1310 C1308 1.381 . S
C1310 C1311 1.394 . S
C1310 H1318 0.930 . S
C1311 C1310 1.394 . S
C1311 C1312 1.383 . S
C1311 H1319 0.929 . S
C1312 C1311 1.383 . S
C1312 C1313 1.377 . S
C1313 H1297 0.930 . S
C1313 C1312 1.377 . S
C1313 C1314 1.379 . S
C1314 H1298 0.931 . S
C1314 C1308 1.383 . S
C1314 C1313 1.379 . S
H1315 C1309 0.959 . S
H1316 C1309 0.961 . S
H1317 C1309 0.960 . S
H1318 C1310 0.930 . S
H1319 C1311 0.929 . S
H1320 C1328 0.929 . S
H1321 C1330 0.930 . S
H1322 C1332 0.930 . S
H1323 C1335 0.929 . S
H1324 C1338 0.930 . S
H1325 C1340 0.960 . S
H1326 C1340 0.960 . S
H1327 C1340 0.960 . S
C1328 H1320 0.929 . S
C1328 C1329 1.377 . S
C1328 C1330 1.384 . S
C1329 C1328 1.377 . S
C1329 C1335 1.390 . S
C1330 H1321 0.930 . S
C1330 C1328 1.384 . S
C1330 C1331 1.372 . S
C1331 C1330 1.372 . S
C1331 C1332 1.400 . S
C1331 C1336 1.490 . S
C1332 H1322 0.930 . S
C1332 C1331 1.400 . S
C1332 C1335 1.386 . S
H1333 C1349 0.930 . S
H1334 C1350 0.931 . S
C1335 H1323 0.929 . S
C1335 C1329 1.390 . S
C1335 C1332 1.386 . S
C1336 C1331 1.490 . S
C1336 C1338 1.395 . S
C1336 C1339 1.403 . S
H1337 C1343 0.930 . S
C1338 H1324 0.930 . S
C1338 C1336 1.395 . S
C1338 C1341 1.403 . S
C1339 C1336 1.403 . S
C1339 C1340 1.524 . S
C1339 C1343 1.400 . S
C1340 H1325 0.960 . S
C1340 H1326 0.960 . S
C1340 H1327 0.960 . S
C1340 C1339 1.524 . S
C1341 C1338 1.403 . S
C1341 C1342 1.392 . S
C1341 C1345 1.495 . S
C1342 C1341 1.392 . S
C1342 C1343 1.385 . S
C1342 C1344 1.478 . S
C1343 H1337 0.930 . S
C1343 C1339 1.400 . S
C1343 C1342 1.385 . S
C1344 C1342 1.478 . S
C1344 C1346 1.381 . S
C1344 C1350 1.383 . S
C1345 C1341 1.495 . S
C1345 H1351 0.959 . S
C1345 H1352 0.961 . S
C1345 H1353 0.960 . S
C1346 C1344 1.381 . S
C1346 C1347 1.394 . S
C1346 H1354 0.930 . S
C1347 C1346 1.394 . S
C1347 C1348 1.383 . S
C1347 H1355 0.929 . S
C1348 C1347 1.383 . S
C1348 C1349 1.377 . S
C1349 H1333 0.930 . S
C1349 C1348 1.377 . S
C1349 C1350 1.379 . S
C1350 H1334 0.931 . S
C1350 C1344 1.383 . S
C1350 C1349 1.379 . S
H1351 C1345 0.959 . S
H1352 C1345 0.961 . S
H1353 C1345 0.960 . S
H1354 C1346 0.930 . S
H1355 C1347 0.929 . S
H1356 C1364 0.929 . S
H1357 C1366 0.930 . S
H1358 C1368 0.930 . S
H1359 C1371 0.929 . S
H1360 C1374 0.930 . S
H1361 C1376 0.960 . S
H1362 C1376 0.960 . S
H1363 C1376 0.960 . S
C1364 H1356 0.929 . S
C1364 C1365 1.377 . S
C1364 C1366 1.384 . S
C1365 C1364 1.377 . S
C1365 C1371 1.390 . S
C1366 H1357 0.930 . S
C1366 C1364 1.384 . S
C1366 C1367 1.372 . S
C1367 C1366 1.372 . S
C1367 C1368 1.400 . S
C1367 C1372 1.490 . S
C1368 H1358 0.930 . S
C1368 C1367 1.400 . S
C1368 C1371 1.386 . S
H1369 C1385 0.930 . S
H1370 C1386 0.931 . S
C1371 H1359 0.929 . S
C1371 C1365 1.390 . S
C1371 C1368 1.386 . S
C1372 C1367 1.490 . S
C1372 C1374 1.395 . S
C1372 C1375 1.403 . S
H1373 C1379 0.930 . S
C1374 H1360 0.930 . S
C1374 C1372 1.395 . S
C1374 C1377 1.403 . S
C1375 C1372 1.403 . S
C1375 C1376 1.524 . S
C1375 C1379 1.400 . S
C1376 H1361 0.960 . S
C1376 H1362 0.960 . S
C1376 H1363 0.960 . S
C1376 C1375 1.524 . S
C1377 C1374 1.403 . S
C1377 C1378 1.392 . S
C1377 C1381 1.495 . S
C1378 C1377 1.392 . S
C1378 C1379 1.385 . S
C1378 C1380 1.478 . S
C1379 H1373 0.930 . S
C1379 C1375 1.400 . S
C1379 C1378 1.385 . S
C1380 C1378 1.478 . S
C1380 C1382 1.381 . S
C1380 C1386 1.383 . S
C1381 C1377 1.495 . S
C1381 H1387 0.959 . S
C1381 H1388 0.961 . S
C1381 H1389 0.960 . S
C1382 C1380 1.381 . S
C1382 C1383 1.394 . S
C1382 H1390 0.930 . S
C1383 C1382 1.394 . S
C1383 C1384 1.383 . S
C1383 H1391 0.929 . S
C1384 C1383 1.383 . S
C1384 C1385 1.377 . S
C1385 H1369 0.930 . S
C1385 C1384 1.377 . S
C1385 C1386 1.379 . S
C1386 H1370 0.931 . S
C1386 C1380 1.383 . S
C1386 C1385 1.379 . S
H1387 C1381 0.959 . S
H1388 C1381 0.961 . S
H1389 C1381 0.960 . S
H1390 C1382 0.930 . S
H1391 C1383 0.929 . S
H1392 C1400 0.929 . S
H1393 C1402 0.930 . S
H1394 C1404 0.930 . S
H1395 C1407 0.929 . S
H1396 C1410 0.930 . S
H1397 C1412 0.960 . S
H1398 C1412 0.960 . S
H1399 C1412 0.960 . S
C1400 H1392 0.929 . S
C1400 C1401 1.377 . S
C1400 C1402 1.384 . S
C1401 C1400 1.377 . S
C1401 C1407 1.390 . S
C1402 H1393 0.930 . S
C1402 C1400 1.384 . S
C1402 C1403 1.372 . S
C1403 C1402 1.372 . S
C1403 C1404 1.400 . S
C1403 C1408 1.490 . S
C1404 H1394 0.930 . S
C1404 C1403 1.400 . S
C1404 C1407 1.386 . S
H1405 C1421 0.930 . S
H1406 C1422 0.931 . S
C1407 H1395 0.929 . S
C1407 C1401 1.390 . S
C1407 C1404 1.386 . S
C1408 C1403 1.490 . S
C1408 C1410 1.395 . S
C1408 C1411 1.403 . S
H1409 C1415 0.930 . S
C1410 H1396 0.930 . S
C1410 C1408 1.395 . S
C1410 C1413 1.403 . S
C1411 C1408 1.403 . S
C1411 C1412 1.524 . S
C1411 C1415 1.400 . S
C1412 H1397 0.960 . S
C1412 H1398 0.960 . S
C1412 H1399 0.960 . S
C1412 C1411 1.524 . S
C1413 C1410 1.403 . S
C1413 C1414 1.392 . S
C1413 C1417 1.495 . S
C1414 C1413 1.392 . S
C1414 C1415 1.385 . S
C1414 C1416 1.478 . S
C1415 H1409 0.930 . S
C1415 C1411 1.400 . S
C1415 C1414 1.385 . S
C1416 C1414 1.478 . S
C1416 C1418 1.381 . S
C1416 C1422 1.383 . S
C1417 C1413 1.495 . S
C1417 H1423 0.959 . S
C1417 H1424 0.961 . S
C1417 H1425 0.960 . S
C1418 C1416 1.381 . S
C1418 C1419 1.394 . S
C1418 H1426 0.930 . S
C1419 C1418 1.394 . S
C1419 C1420 1.383 . S
C1419 H1427 0.929 . S
C1420 C1419 1.383 . S
C1420 C1421 1.377 . S
C1421 H1405 0.930 . S
C1421 C1420 1.377 . S
C1421 C1422 1.379 . S
C1422 H1406 0.931 . S
C1422 C1416 1.383 . S
C1422 C1421 1.379 . S
H1423 C1417 0.959 . S
H1424 C1417 0.961 . S
H1425 C1417 0.960 . S
H1426 C1418 0.930 . S
H1427 C1419 0.929 . S
H1428 C1436 0.929 . S
H1429 C1438 0.930 . S
H1430 C1440 0.930 . S
H1431 C1443 0.929 . S
H1432 C1446 0.930 . S
H1433 C1448 0.960 . S
H1434 C1448 0.960 . S
H1435 C1448 0.960 . S
C1436 H1428 0.929 . S
C1436 C1437 1.377 . S
C1436 C1438 1.384 . S
C1437 C1436 1.377 . S
C1437 C1443 1.390 . S
C1438 H1429 0.930 . S
C1438 C1436 1.384 . S
C1438 C1439 1.372 . S
C1439 C1438 1.372 . S
C1439 C1440 1.400 . S
C1439 C1444 1.490 . S
C1440 H1430 0.930 . S
C1440 C1439 1.400 . S
C1440 C1443 1.386 . S
H1441 C1457 0.930 . S
H1442 C1458 0.931 . S
C1443 H1431 0.929 . S
C1443 C1437 1.390 . S
C1443 C1440 1.386 . S
C1444 C1439 1.490 . S
C1444 C1446 1.395 . S
C1444 C1447 1.403 . S
H1445 C1451 0.930 . S
C1446 H1432 0.930 . S
C1446 C1444 1.395 . S
C1446 C1449 1.403 . S
C1447 C1444 1.403 . S
C1447 C1448 1.524 . S
C1447 C1451 1.400 . S
C1448 H1433 0.960 . S
C1448 H1434 0.960 . S
C1448 H1435 0.960 . S
C1448 C1447 1.524 . S
C1449 C1446 1.403 . S
C1449 C1450 1.392 . S
C1449 C1453 1.495 . S
C1450 C1449 1.392 . S
C1450 C1451 1.385 . S
C1450 C1452 1.478 . S
C1451 H1445 0.930 . S
C1451 C1447 1.400 . S
C1451 C1450 1.385 . S
C1452 C1450 1.478 . S
C1452 C1454 1.381 . S
C1452 C1458 1.383 . S
C1453 C1449 1.495 . S
C1453 H1459 0.959 . S
C1453 H1460 0.961 . S
C1453 H1461 0.960 . S
C1454 C1452 1.381 . S
C1454 C1455 1.394 . S
C1454 H1462 0.930 . S
C1455 C1454 1.394 . S
C1455 C1456 1.383 . S
C1455 H1463 0.929 . S
C1456 C1455 1.383 . S
C1456 C1457 1.377 . S
C1457 H1441 0.930 . S
C1457 C1456 1.377 . S
C1457 C1458 1.379 . S
C1458 H1442 0.931 . S
C1458 C1452 1.383 . S
C1458 C1457 1.379 . S
H1459 C1453 0.959 . S
H1460 C1453 0.961 . S
H1461 C1453 0.960 . S
H1462 C1454 0.930 . S
H1463 C1455 0.929 . S
H1464 C1472 0.929 . S
H1465 C1474 0.930 . S
H1466 C1476 0.930 . S
H1467 C1479 0.929 . S
H1468 C1482 0.930 . S
H1469 C1484 0.960 . S
H1470 C1484 0.960 . S
H1471 C1484 0.960 . S
C1472 H1464 0.929 . S
C1472 C1473 1.377 . S
C1472 C1474 1.384 . S
C1473 C1472 1.377 . S
C1473 C1479 1.390 . S
C1474 H1465 0.930 . S
C1474 C1472 1.384 . S
C1474 C1475 1.372 . S
C1475 C1474 1.372 . S
C1475 C1476 1.400 . S
C1475 C1480 1.490 . S
C1476 H1466 0.930 . S
C1476 C1475 1.400 . S
C1476 C1479 1.386 . S
H1477 C1493 0.930 . S
H1478 C1494 0.931 . S
C1479 H1467 0.929 . S
C1479 C1473 1.390 . S
C1479 C1476 1.386 . S
C1480 C1475 1.490 . S
C1480 C1482 1.395 . S
C1480 C1483 1.403 . S
H1481 C1487 0.930 . S
C1482 H1468 0.930 . S
C1482 C1480 1.395 . S
C1482 C1485 1.403 . S
C1483 C1480 1.403 . S
C1483 C1484 1.524 . S
C1483 C1487 1.400 . S
C1484 H1469 0.960 . S
C1484 H1470 0.960 . S
C1484 H1471 0.960 . S
C1484 C1483 1.524 . S
C1485 C1482 1.403 . S
C1485 C1486 1.392 . S
C1485 C1489 1.495 . S
C1486 C1485 1.392 . S
C1486 C1487 1.385 . S
C1486 C1488 1.478 . S
C1487 H1481 0.930 . S
C1487 C1483 1.400 . S
C1487 C1486 1.385 . S
C1488 C1486 1.478 . S
C1488 C1490 1.381 . S
C1488 C1494 1.383 . S
C1489 C1485 1.495 . S
C1489 H1495 0.959 . S
C1489 H1496 0.961 . S
C1489 H1497 0.960 . S
C1490 C1488 1.381 . S
C1490 C1491 1.394 . S
C1490 H1498 0.930 . S
C1491 C1490 1.394 . S
C1491 C1492 1.383 . S
C1491 H1499 0.929 . S
C1492 C1491 1.383 . S
C1492 C1493 1.377 . S
C1493 H1477 0.930 . S
C1493 C1492 1.377 . S
C1493 C1494 1.379 . S
C1494 H1478 0.931 . S
C1494 C1488 1.383 . S
C1494 C1493 1.379 . S
H1495 C1489 0.959 . S
H1496 C1489 0.961 . S
H1497 C1489 0.960 . S
H1498 C1490 0.930 . S
H1499 C1491 0.929 . S
H1500 C1508 0.929 . S
H1501 C1510 0.930 . S
H1502 C1512 0.930 . S
H1503 C1515 0.929 . S
H1504 C1518 0.930 . S
H1505 C1520 0.960 . S
H1506 C1520 0.960 . S
H1507 C1520 0.960 . S
C1508 H1500 0.929 . S
C1508 C1509 1.377 . S
C1508 C1510 1.384 . S
C1509 C1508 1.377 . S
C1509 C1515 1.390 . S
C1510 H1501 0.930 . S
C1510 C1508 1.384 . S
C1510 C1511 1.372 . S
C1511 C1510 1.372 . S
C1511 C1512 1.400 . S
C1511 C1516 1.490 . S
C1512 H1502 0.930 . S
C1512 C1511 1.400 . S
C1512 C1515 1.386 . S
H1513 C1529 0.930 . S
H1514 C1530 0.931 . S
C1515 H1503 0.929 . S
C1515 C1509 1.390 . S
C1515 C1512 1.386 . S
C1516 C1511 1.490 . S
C1516 C1518 1.395 . S
C1516 C1519 1.403 . S
H1517 C1523 0.930 . S
C1518 H1504 0.930 . S
C1518 C1516 1.395 . S
C1518 C1521 1.403 . S
C1519 C1516 1.403 . S
C1519 C1520 1.524 . S
C1519 C1523 1.400 . S
C1520 H1505 0.960 . S
C1520 H1506 0.960 . S
C1520 H1507 0.960 . S
C1520 C1519 1.524 . S
C1521 C1518 1.403 . S
C1521 C1522 1.392 . S
C1521 C1525 1.495 . S
C1522 C1521 1.392 . S
C1522 C1523 1.385 . S
C1522 C1524 1.478 . S
C1523 H1517 0.930 . S
C1523 C1519 1.400 . S
C1523 C1522 1.385 . S
C1524 C1522 1.478 . S
C1524 C1526 1.381 . S
C1524 C1530 1.383 . S
C1525 C1521 1.495 . S
C1525 H1531 0.959 . S
C1525 H1532 0.961 . S
C1525 H1533 0.960 . S
C1526 C1524 1.381 . S
C1526 C1527 1.394 . S
C1526 H1534 0.930 . S
C1527 C1526 1.394 . S
C1527 C1528 1.383 . S
C1527 H1535 0.929 . S
C1528 C1527 1.383 . S
C1528 C1529 1.377 . S
C1529 H1513 0.930 . S
C1529 C1528 1.377 . S
C1529 C1530 1.379 . S
C1530 H1514 0.931 . S
C1530 C1524 1.383 . S
C1530 C1529 1.379 . S
H1531 C1525 0.959 . S
H1532 C1525 0.961 . S
H1533 C1525 0.960 . S
H1534 C1526 0.930 . S
H1535 C1527 0.929 . S
H1536 C1544 0.929 . S
H1537 C1546 0.930 . S
H1538 C1548 0.930 . S
H1539 C1551 0.929 . S
H1540 C1554 0.930 . S
H1541 C1556 0.960 . S
H1542 C1556 0.960 . S
H1543 C1556 0.960 . S
C1544 H1536 0.929 . S
C1544 C1545 1.377 . S
C1544 C1546 1.384 . S
C1545 C1544 1.377 . S
C1545 C1551 1.390 . S
C1546 H1537 0.930 . S
C1546 C1544 1.384 . S
C1546 C1547 1.372 . S
C1547 C1546 1.372 . S
C1547 C1548 1.400 . S
C1547 C1552 1.490 . S
C1548 H1538 0.930 . S
C1548 C1547 1.400 . S
C1548 C1551 1.386 . S
H1549 C1565 0.930 . S
H1550 C1566 0.931 . S
C1551 H1539 0.929 . S
C1551 C1545 1.390 . S
C1551 C1548 1.386 . S
C1552 C1547 1.490 . S
C1552 C1554 1.395 . S
C1552 C1555 1.403 . S
H1553 C1559 0.930 . S
C1554 H1540 0.930 . S
C1554 C1552 1.395 . S
C1554 C1557 1.403 . S
C1555 C1552 1.403 . S
C1555 C1556 1.524 . S
C1555 C1559 1.400 . S
C1556 H1541 0.960 . S
C1556 H1542 0.960 . S
C1556 H1543 0.960 . S
C1556 C1555 1.524 . S
C1557 C1554 1.403 . S
C1557 C1558 1.392 . S
C1557 C1561 1.495 . S
C1558 C1557 1.392 . S
C1558 C1559 1.385 . S
C1558 C1560 1.478 . S
C1559 H1553 0.930 . S
C1559 C1555 1.400 . S
C1559 C1558 1.385 . S
C1560 C1558 1.478 . S
C1560 C1562 1.381 . S
C1560 C1566 1.383 . S
C1561 C1557 1.495 . S
C1561 H1567 0.959 . S
C1561 H1568 0.961 . S
C1561 H1569 0.960 . S
C1562 C1560 1.381 . S
C1562 C1563 1.394 . S
C1562 H1570 0.930 . S
C1563 C1562 1.394 . S
C1563 C1564 1.383 . S
C1563 H1571 0.929 . S
C1564 C1563 1.383 . S
C1564 C1565 1.377 . S
C1565 H1549 0.930 . S
C1565 C1564 1.377 . S
C1565 C1566 1.379 . S
C1566 H1550 0.931 . S
C1566 C1560 1.383 . S
C1566 C1565 1.379 . S
H1567 C1561 0.959 . S
H1568 C1561 0.961 . S
H1569 C1561 0.960 . S
H1570 C1562 0.930 . S
H1571 C1563 0.929 . S
H1572 C1580 0.929 . S
H1573 C1582 0.930 . S
H1574 C1584 0.930 . S
H1575 C1587 0.929 . S
H1576 C1590 0.930 . S
H1577 C1592 0.960 . S
H1578 C1592 0.960 . S
H1579 C1592 0.960 . S
C1580 H1572 0.929 . S
C1580 C1581 1.377 . S
C1580 C1582 1.384 . S
C1581 C1580 1.377 . S
C1581 C1587 1.390 . S
C1582 H1573 0.930 . S
C1582 C1580 1.384 . S
C1582 C1583 1.372 . S
C1583 C1582 1.372 . S
C1583 C1584 1.400 . S
C1583 C1588 1.490 . S
C1584 H1574 0.930 . S
C1584 C1583 1.400 . S
C1584 C1587 1.386 . S
H1585 C1601 0.930 . S
H1586 C1602 0.931 . S
C1587 H1575 0.929 . S
C1587 C1581 1.390 . S
C1587 C1584 1.386 . S
C1588 C1583 1.490 . S
C1588 C1590 1.395 . S
C1588 C1591 1.403 . S
H1589 C1595 0.930 . S
C1590 H1576 0.930 . S
C1590 C1588 1.395 . S
C1590 C1593 1.403 . S
C1591 C1588 1.403 . S
C1591 C1592 1.524 . S
C1591 C1595 1.400 . S
C1592 H1577 0.960 . S
C1592 H1578 0.960 . S
C1592 H1579 0.960 . S
C1592 C1591 1.524 . S
C1593 C1590 1.403 . S
C1593 C1594 1.392 . S
C1593 C1597 1.495 . S
C1594 C1593 1.392 . S
C1594 C1595 1.385 . S
C1594 C1596 1.478 . S
C1595 H1589 0.930 . S
C1595 C1591 1.400 . S
C1595 C1594 1.385 . S
C1596 C1594 1.478 . S
C1596 C1598 1.381 . S
C1596 C1602 1.383 . S
C1597 C1593 1.495 . S
C1597 H1603 0.959 . S
C1597 H1604 0.961 . S
C1597 H1605 0.960 . S
C1598 C1596 1.381 . S
C1598 C1599 1.394 . S
C1598 H1606 0.930 . S
C1599 C1598 1.394 . S
C1599 C1600 1.383 . S
C1599 H1607 0.929 . S
C1600 C1599 1.383 . S
C1600 C1601 1.377 . S
C1601 H1585 0.930 . S
C1601 C1600 1.377 . S
C1601 C1602 1.379 . S
C1602 H1586 0.931 . S
C1602 C1596 1.383 . S
C1602 C1601 1.379 . S
H1603 C1597 0.959 . S
H1604 C1597 0.961 . S
H1605 C1597 0.960 . S
H1606 C1598 0.930 . S
H1607 C1599 0.929 . S
H1608 C1616 0.929 . S
H1609 C1618 0.930 . S
H1610 C1620 0.930 . S
H1611 C1623 0.929 . S
H1612 C1626 0.930 . S
H1613 C1628 0.960 . S
H1614 C1628 0.960 . S
H1615 C1628 0.960 . S
C1616 H1608 0.929 . S
C1616 C1617 1.377 . S
C1616 C1618 1.384 . S
C1617 C1616 1.377 . S
C1617 C1623 1.390 . S
C1618 H1609 0.930 . S
C1618 C1616 1.384 . S
C1618 C1619 1.372 . S
C1619 C1618 1.372 . S
C1619 C1620 1.400 . S
C1619 C1624 1.490 . S
C1620 H1610 0.930 . S
C1620 C1619 1.400 . S
C1620 C1623 1.386 . S
H1621 C1637 0.930 . S
H1622 C1638 0.931 . S
C1623 H1611 0.929 . S
C1623 C1617 1.390 . S
C1623 C1620 1.386 . S
C1624 C1619 1.490 . S
C1624 C1626 1.395 . S
C1624 C1627 1.403 . S
H1625 C1631 0.930 . S
C1626 H1612 0.930 . S
C1626 C1624 1.395 . S
C1626 C1629 1.403 . S
C1627 C1624 1.403 . S
C1627 C1628 1.524 . S
C1627 C1631 1.400 . S
C1628 H1613 0.960 . S
C1628 H1614 0.960 . S
C1628 H1615 0.960 . S
C1628 C1627 1.524 . S
C1629 C1626 1.403 . S
C1629 C1630 1.392 . S
C1629 C1633 1.495 . S
C1630 C1629 1.392 . S
C1630 C1631 1.385 . S
C1630 C1632 1.478 . S
C1631 H1625 0.930 . S
C1631 C1627 1.400 . S
C1631 C1630 1.385 . S
C1632 C1630 1.478 . S
C1632 C1634 1.381 . S
C1632 C1638 1.383 . S
C1633 C1629 1.495 . S
C1633 H1639 0.959 . S
C1633 H1640 0.961 . S
C1633 H1641 0.960 . S
C1634 C1632 1.381 . S
C1634 C1635 1.394 . S
C1634 H1642 0.930 . S
C1635 C1634 1.394 . S
C1635 C1636 1.383 . S
C1635 H1643 0.929 . S
C1636 C1635 1.383 . S
C1636 C1637 1.377 . S
C1637 H1621 0.930 . S
C1637 C1636 1.377 . S
C1637 C1638 1.379 . S
C1638 H1622 0.931 . S
C1638 C1632 1.383 . S
C1638 C1637 1.379 . S
H1639 C1633 0.959 . S
H1640 C1633 0.961 . S
H1641 C1633 0.960 . S
H1642 C1634 0.930 . S
H1643 C1635 0.929 . S
H1644 C1652 0.929 . S
H1645 C1654 0.930 . S
H1646 C1656 0.930 . S
H1647 C1659 0.929 . S
H1648 C1662 0.930 . S
H1649 C1664 0.960 . S
H1650 C1664 0.960 . S
H1651 C1664 0.960 . S
C1652 H1644 0.929 . S
C1652 C1653 1.377 . S
C1652 C1654 1.384 . S
C1653 C1652 1.377 . S
C1653 C1659 1.390 . S
C1654 H1645 0.930 . S
C1654 C1652 1.384 . S
C1654 C1655 1.372 . S
C1655 C1654 1.372 . S
C1655 C1656 1.400 . S
C1655 C1660 1.490 . S
C1656 H1646 0.930 . S
C1656 C1655 1.400 . S
C1656 C1659 1.386 . S
H1657 C1673 0.930 . S
H1658 C1674 0.931 . S
C1659 H1647 0.929 . S
C1659 C1653 1.390 . S
C1659 C1656 1.386 . S
C1660 C1655 1.490 . S
C1660 C1662 1.395 . S
C1660 C1663 1.403 . S
H1661 C1667 0.930 . S
C1662 H1648 0.930 . S
C1662 C1660 1.395 . S
C1662 C1665 1.403 . S
C1663 C1660 1.403 . S
C1663 C1664 1.524 . S
C1663 C1667 1.400 . S
C1664 H1649 0.960 . S
C1664 H1650 0.960 . S
C1664 H1651 0.960 . S
C1664 C1663 1.524 . S
C1665 C1662 1.403 . S
C1665 C1666 1.392 . S
C1665 C1669 1.495 . S
C1666 C1665 1.392 . S
C1666 C1667 1.385 . S
C1666 C1668 1.478 . S
C1667 H1661 0.930 . S
C1667 C1663 1.400 . S
C1667 C1666 1.385 . S
C1668 C1666 1.478 . S
C1668 C1670 1.381 . S
C1668 C1674 1.383 . S
C1669 C1665 1.495 . S
C1669 H1675 0.959 . S
C1669 H1676 0.961 . S
C1669 H1677 0.960 . S
C1670 C1668 1.381 . S
C1670 C1671 1.394 . S
C1670 H1678 0.930 . S
C1671 C1670 1.394 . S
C1671 C1672 1.383 . S
C1671 H1679 0.929 . S
C1672 C1671 1.383 . S
C1672 C1673 1.377 . S
C1673 H1657 0.930 . S
C1673 C1672 1.377 . S
C1673 C1674 1.379 . S
C1674 H1658 0.931 . S
C1674 C1668 1.383 . S
C1674 C1673 1.379 . S
H1675 C1669 0.959 . S
H1676 C1669 0.961 . S
H1677 C1669 0.960 . S
H1678 C1670 0.930 . S
H1679 C1671 0.929 . S
H1680 C1688 0.929 . S
H1681 C1690 0.930 . S
H1682 C1692 0.930 . S
H1683 C1695 0.929 . S
H1684 C1698 0.930 . S
H1685 C1700 0.960 . S
H1686 C1700 0.960 . S
H1687 C1700 0.960 . S
C1688 H1680 0.929 . S
C1688 C1689 1.377 . S
C1688 C1690 1.384 . S
C1689 C1688 1.377 . S
C1689 C1695 1.390 . S
C1690 H1681 0.930 . S
C1690 C1688 1.384 . S
C1690 C1691 1.372 . S
C1691 C1690 1.372 . S
C1691 C1692 1.400 . S
C1691 C1696 1.490 . S
C1692 H1682 0.930 . S
C1692 C1691 1.400 . S
C1692 C1695 1.386 . S
H1693 C1709 0.930 . S
H1694 C1710 0.931 . S
C1695 H1683 0.929 . S
C1695 C1689 1.390 . S
C1695 C1692 1.386 . S
C1696 C1691 1.490 . S
C1696 C1698 1.395 . S
C1696 C1699 1.403 . S
H1697 C1703 0.930 . S
C1698 H1684 0.930 . S
C1698 C1696 1.395 . S
C1698 C1701 1.403 . S
C1699 C1696 1.403 . S
C1699 C1700 1.524 . S
C1699 C1703 1.400 . S
C1700 H1685 0.960 . S
C1700 H1686 0.960 . S
C1700 H1687 0.960 . S
C1700 C1699 1.524 . S
C1701 C1698 1.403 . S
C1701 C1702 1.392 . S
C1701 C1705 1.495 . S
C1702 C1701 1.392 . S
C1702 C1703 1.385 . S
C1702 C1704 1.478 . S
C1703 H1697 0.930 . S
C1703 C1699 1.400 . S
C1703 C1702 1.385 . S
C1704 C1702 1.478 . S
C1704 C1706 1.381 . S
C1704 C1710 1.383 . S
C1705 C1701 1.495 . S
C1705 H1711 0.959 . S
C1705 H1712 0.961 . S
C1705 H1713 0.960 . S
C1706 C1704 1.381 . S
C1706 C1707 1.394 . S
C1706 H1714 0.930 . S
C1707 C1706 1.394 . S
C1707 C1708 1.383 . S
C1707 H1715 0.929 . S
C1708 C1707 1.383 . S
C1708 C1709 1.377 . S
C1709 H1693 0.930 . S
C1709 C1708 1.377 . S
C1709 C1710 1.379 . S
C1710 H1694 0.931 . S
C1710 C1704 1.383 . S
C1710 C1709 1.379 . S
H1711 C1705 0.959 . S
H1712 C1705 0.961 . S
H1713 C1705 0.960 . S
H1714 C1706 0.930 . S
H1715 C1707 0.929 . S
H1716 C1724 0.929 . S
H1717 C1726 0.930 . S
H1718 C1728 0.930 . S
H1719 C1731 0.929 . S
H1720 C1734 0.930 . S
H1721 C1736 0.960 . S
H1722 C1736 0.960 . S
H1723 C1736 0.960 . S
C1724 H1716 0.929 . S
C1724 C1725 1.377 . S
C1724 C1726 1.384 . S
C1725 C1724 1.377 . S
C1725 C1731 1.390 . S
C1726 H1717 0.930 . S
C1726 C1724 1.384 . S
C1726 C1727 1.372 . S
C1727 C1726 1.372 . S
C1727 C1728 1.400 . S
C1727 C1732 1.490 . S
C1728 H1718 0.930 . S
C1728 C1727 1.400 . S
C1728 C1731 1.386 . S
H1729 C1745 0.930 . S
H1730 C1746 0.931 . S
C1731 H1719 0.929 . S
C1731 C1725 1.390 . S
C1731 C1728 1.386 . S
C1732 C1727 1.490 . S
C1732 C1734 1.395 . S
C1732 C1735 1.403 . S
H1733 C1739 0.930 . S
C1734 H1720 0.930 . S
C1734 C1732 1.395 . S
C1734 C1737 1.403 . S
C1735 C1732 1.403 . S
C1735 C1736 1.524 . S
C1735 C1739 1.400 . S
C1736 H1721 0.960 . S
C1736 H1722 0.960 . S
C1736 H1723 0.960 . S
C1736 C1735 1.524 . S
C1737 C1734 1.403 . S
C1737 C1738 1.392 . S
C1737 C1741 1.495 . S
C1738 C1737 1.392 . S
C1738 C1739 1.385 . S
C1738 C1740 1.478 . S
C1739 H1733 0.930 . S
C1739 C1735 1.400 . S
C1739 C1738 1.385 . S
C1740 C1738 1.478 . S
C1740 C1742 1.381 . S
C1740 C1746 1.383 . S
C1741 C1737 1.495 . S
C1741 H1747 0.959 . S
C1741 H1748 0.961 . S
C1741 H1749 0.960 . S
C1742 C1740 1.381 . S
C1742 C1743 1.394 . S
C1742 H1750 0.930 . S
C1743 C1742 1.394 . S
C1743 C1744 1.383 . S
C1743 H1751 0.929 . S
C1744 C1743 1.383 . S
C1744 C1745 1.377 . S
C1745 H1729 0.930 . S
C1745 C1744 1.377 . S
C1745 C1746 1.379 . S
C1746 H1730 0.931 . S
C1746 C1740 1.383 . S
C1746 C1745 1.379 . S
H1747 C1741 0.959 . S
H1748 C1741 0.961 . S
H1749 C1741 0.960 . S
H1750 C1742 0.930 . S
H1751 C1743 0.929 . S
H1752 C1760 0.929 . S
H1753 C1762 0.930 . S
H1754 C1764 0.930 . S
H1755 C1767 0.929 . S
H1756 C1770 0.930 . S
H1757 C1772 0.960 . S
H1758 C1772 0.960 . S
H1759 C1772 0.960 . S
C1760 H1752 0.929 . S
C1760 C1761 1.377 . S
C1760 C1762 1.384 . S
C1761 C1760 1.377 . S
C1761 C1767 1.390 . S
C1762 H1753 0.930 . S
C1762 C1760 1.384 . S
C1762 C1763 1.372 . S
C1763 C1762 1.372 . S
C1763 C1764 1.400 . S
C1763 C1768 1.490 . S
C1764 H1754 0.930 . S
C1764 C1763 1.400 . S
C1764 C1767 1.386 . S
H1765 C1781 0.930 . S
H1766 C1782 0.931 . S
C1767 H1755 0.929 . S
C1767 C1761 1.390 . S
C1767 C1764 1.386 . S
C1768 C1763 1.490 . S
C1768 C1770 1.395 . S
C1768 C1771 1.403 . S
H1769 C1775 0.930 . S
C1770 H1756 0.930 . S
C1770 C1768 1.395 . S
C1770 C1773 1.403 . S
C1771 C1768 1.403 . S
C1771 C1772 1.524 . S
C1771 C1775 1.400 . S
C1772 H1757 0.960 . S
C1772 H1758 0.960 . S
C1772 H1759 0.960 . S
C1772 C1771 1.524 . S
C1773 C1770 1.403 . S
C1773 C1774 1.392 . S
C1773 C1777 1.495 . S
C1774 C1773 1.392 . S
C1774 C1775 1.385 . S
C1774 C1776 1.478 . S
C1775 H1769 0.930 . S
C1775 C1771 1.400 . S
C1775 C1774 1.385 . S
C1776 C1774 1.478 . S
C1776 C1778 1.381 . S
C1776 C1782 1.383 . S
C1777 C1773 1.495 . S
C1777 H1783 0.959 . S
C1777 H1784 0.961 . S
C1777 H1785 0.960 . S
C1778 C1776 1.381 . S
C1778 C1779 1.394 . S
C1778 H1786 0.930 . S
C1779 C1778 1.394 . S
C1779 C1780 1.383 . S
C1779 H1787 0.929 . S
C1780 C1779 1.383 . S
C1780 C1781 1.377 . S
C1781 H1765 0.930 . S
C1781 C1780 1.377 . S
C1781 C1782 1.379 . S
C1782 H1766 0.931 . S
C1782 C1776 1.383 . S
C1782 C1781 1.379 . S
H1783 C1777 0.959 . S
H1784 C1777 0.961 . S
H1785 C1777 0.960 . S
H1786 C1778 0.930 . S
H1787 C1779 0.929 . S
H1788 C1796 0.929 . S
H1789 C1798 0.930 . S
H1790 C1800 0.930 . S
H1791 C1803 0.929 . S
H1792 C1806 0.930 . S
H1793 C1808 0.960 . S
H1794 C1808 0.960 . S
H1795 C1808 0.960 . S
C1796 H1788 0.929 . S
C1796 C1797 1.377 . S
C1796 C1798 1.384 . S
C1797 C1796 1.377 . S
C1797 C1803 1.390 . S
C1798 H1789 0.930 . S
C1798 C1796 1.384 . S
C1798 C1799 1.372 . S
C1799 C1798 1.372 . S
C1799 C1800 1.400 . S
C1799 C1804 1.490 . S
C1800 H1790 0.930 . S
C1800 C1799 1.400 . S
C1800 C1803 1.386 . S
H1801 C1817 0.930 . S
H1802 C1818 0.931 . S
C1803 H1791 0.929 . S
C1803 C1797 1.390 . S
C1803 C1800 1.386 . S
C1804 C1799 1.490 . S
C1804 C1806 1.395 . S
C1804 C1807 1.403 . S
H1805 C1811 0.930 . S
C1806 H1792 0.930 . S
C1806 C1804 1.395 . S
C1806 C1809 1.403 . S
C1807 C1804 1.403 . S
C1807 C1808 1.524 . S
C1807 C1811 1.400 . S
C1808 H1793 0.960 . S
C1808 H1794 0.960 . S
C1808 H1795 0.960 . S
C1808 C1807 1.524 . S
C1809 C1806 1.403 . S
C1809 C1810 1.392 . S
C1809 C1813 1.495 . S
C1810 C1809 1.392 . S
C1810 C1811 1.385 . S
C1810 C1812 1.478 . S
C1811 H1805 0.930 . S
C1811 C1807 1.400 . S
C1811 C1810 1.385 . S
C1812 C1810 1.478 . S
C1812 C1814 1.381 . S
C1812 C1818 1.383 . S
C1813 C1809 1.495 . S
C1813 H1819 0.959 . S
C1813 H1820 0.961 . S
C1813 H1821 0.960 . S
C1814 C1812 1.381 . S
C1814 C1815 1.394 . S
C1814 H1822 0.930 . S
C1815 C1814 1.394 . S
C1815 C1816 1.383 . S
C1815 H1823 0.929 . S
C1816 C1815 1.383 . S
C1816 C1817 1.377 . S
C1817 H1801 0.930 . S
C1817 C1816 1.377 . S
C1817 C1818 1.379 . S
C1818 H1802 0.931 . S
C1818 C1812 1.383 . S
C1818 C1817 1.379 . S
H1819 C1813 0.959 . S
H1820 C1813 0.961 . S
H1821 C1813 0.960 . S
H1822 C1814 0.930 . S
H1823 C1815 0.929 . S
H1824 C1832 0.929 . S
H1825 C1834 0.930 . S
H1826 C1836 0.930 . S
H1827 C1839 0.929 . S
H1828 C1842 0.930 . S
H1829 C1844 0.960 . S
H1830 C1844 0.960 . S
H1831 C1844 0.960 . S
C1832 H1824 0.929 . S
C1832 C1833 1.377 . S
C1832 C1834 1.384 . S
C1833 C1832 1.377 . S
C1833 C1839 1.390 . S
C1834 H1825 0.930 . S
C1834 C1832 1.384 . S
C1834 C1835 1.372 . S
C1835 C1834 1.372 . S
C1835 C1836 1.400 . S
C1835 C1840 1.490 . S
C1836 H1826 0.930 . S
C1836 C1835 1.400 . S
C1836 C1839 1.386 . S
H1837 C1853 0.930 . S
H1838 C1854 0.931 . S
C1839 H1827 0.929 . S
C1839 C1833 1.390 . S
C1839 C1836 1.386 . S
C1840 C1835 1.490 . S
C1840 C1842 1.395 . S
C1840 C1843 1.403 . S
H1841 C1847 0.930 . S
C1842 H1828 0.930 . S
C1842 C1840 1.395 . S
C1842 C1845 1.403 . S
C1843 C1840 1.403 . S
C1843 C1844 1.524 . S
C1843 C1847 1.400 . S
C1844 H1829 0.960 . S
C1844 H1830 0.960 . S
C1844 H1831 0.960 . S
C1844 C1843 1.524 . S
C1845 C1842 1.403 . S
C1845 C1846 1.392 . S
C1845 C1849 1.495 . S
C1846 C1845 1.392 . S
C1846 C1847 1.385 . S
C1846 C1848 1.478 . S
C1847 H1841 0.930 . S
C1847 C1843 1.400 . S
C1847 C1846 1.385 . S
C1848 C1846 1.478 . S
C1848 C1850 1.381 . S
C1848 C1854 1.383 . S
C1849 C1845 1.495 . S
C1849 H1855 0.959 . S
C1849 H1856 0.961 . S
C1849 H1857 0.960 . S
C1850 C1848 1.381 . S
C1850 C1851 1.394 . S
C1850 H1858 0.930 . S
C1851 C1850 1.394 . S
C1851 C1852 1.383 . S
C1851 H1859 0.929 . S
C1852 C1851 1.383 . S
C1852 C1853 1.377 . S
C1853 H1837 0.930 . S
C1853 C1852 1.377 . S
C1853 C1854 1.379 . S
C1854 H1838 0.931 . S
C1854 C1848 1.383 . S
C1854 C1853 1.379 . S
H1855 C1849 0.959 . S
H1856 C1849 0.961 . S
H1857 C1849 0.960 . S
H1858 C1850 0.930 . S
H1859 C1851 0.929 . S
H1860 C1868 0.929 . S
H1861 C1870 0.930 . S
H1862 C1872 0.930 . S
H1863 C1875 0.929 . S
H1864 C1878 0.930 . S
H1865 C1880 0.960 . S
H1866 C1880 0.960 . S
H1867 C1880 0.960 . S
C1868 H1860 0.929 . S
C1868 C1869 1.377 . S
C1868 C1870 1.384 . S
C1869 C1868 1.377 . S
C1869 C1875 1.390 . S
C1870 H1861 0.930 . S
C1870 C1868 1.384 . S
C1870 C1871 1.372 . S
C1871 C1870 1.372 . S
C1871 C1872 1.400 . S
C1871 C1876 1.490 . S
C1872 H1862 0.930 . S
C1872 C1871 1.400 . S
C1872 C1875 1.386 . S
H1873 C1889 0.930 . S
H1874 C1890 0.931 . S
C1875 H1863 0.929 . S
C1875 C1869 1.390 . S
C1875 C1872 1.386 . S
C1876 C1871 1.490 . S
C1876 C1878 1.395 . S
C1876 C1879 1.403 . S
H1877 C1883 0.930 . S
C1878 H1864 0.930 . S
C1878 C1876 1.395 . S
C1878 C1881 1.403 . S
C1879 C1876 1.403 . S
C1879 C1880 1.524 . S
C1879 C1883 1.400 . S
C1880 H1865 0.960 . S
C1880 H1866 0.960 . S
C1880 H1867 0.960 . S
C1880 C1879 1.524 . S
C1881 C1878 1.403 . S
C1881 C1882 1.392 . S
C1881 C1885 1.495 . S
C1882 C1881 1.392 . S
C1882 C1883 1.385 . S
C1882 C1884 1.478 . S
C1883 H1877 0.930 . S
C1883 C1879 1.400 . S
C1883 C1882 1.385 . S
C1884 C1882 1.478 . S
C1884 C1886 1.381 . S
C1884 C1890 1.383 . S
C1885 C1881 1.495 . S
C1885 H1891 0.959 . S
C1885 H1892 0.961 . S
C1885 H1893 0.960 . S
C1886 C1884 1.381 . S
C1886 C1887 1.394 . S
C1886 H1894 0.930 . S
C1887 C1886 1.394 . S
C1887 C1888 1.383 . S
C1887 H1895 0.929 . S
C1888 C1887 1.383 . S
C1888 C1889 1.377 . S
C1889 H1873 0.930 . S
C1889 C1888 1.377 . S
C1889 C1890 1.379 . S
C1890 H1874 0.931 . S
C1890 C1884 1.383 . S
C1890 C1889 1.379 . S
H1891 C1885 0.959 . S
H1892 C1885 0.961 . S
H1893 C1885 0.960 . S
H1894 C1886 0.930 . S
H1895 C1887 0.929 . S
H1896 C1904 0.929 . S
H1897 C1906 0.930 . S
H1898 C1908 0.930 . S
H1899 C1911 0.929 . S
H1900 C1914 0.930 . S
H1901 C1916 0.960 . S
H1902 C1916 0.960 . S
H1903 C1916 0.960 . S
C1904 H1896 0.929 . S
C1904 C1905 1.377 . S
C1904 C1906 1.384 . S
C1905 C1904 1.377 . S
C1905 C1911 1.390 . S
C1906 H1897 0.930 . S
C1906 C1904 1.384 . S
C1906 C1907 1.372 . S
C1907 C1906 1.372 . S
C1907 C1908 1.400 . S
C1907 C1912 1.490 . S
C1908 H1898 0.930 . S
C1908 C1907 1.400 . S
C1908 C1911 1.386 . S
H1909 C1925 0.930 . S
H1910 C1926 0.931 . S
C1911 H1899 0.929 . S
C1911 C1905 1.390 . S
C1911 C1908 1.386 . S
C1912 C1907 1.490 . S
C1912 C1914 1.395 . S
C1912 C1915 1.403 . S
H1913 C1919 0.930 . S
C1914 H1900 0.930 . S
C1914 C1912 1.395 . S
C1914 C1917 1.403 . S
C1915 C1912 1.403 . S
C1915 C1916 1.524 . S
C1915 C1919 1.400 . S
C1916 H1901 0.960 . S
C1916 H1902 0.960 . S
C1916 H1903 0.960 . S
C1916 C1915 1.524 . S
C1917 C1914 1.403 . S
C1917 C1918 1.392 . S
C1917 C1921 1.495 . S
C1918 C1917 1.392 . S
C1918 C1919 1.385 . S
C1918 C1920 1.478 . S
C1919 H1913 0.930 . S
C1919 C1915 1.400 . S
C1919 C1918 1.385 . S
C1920 C1918 1.478 . S
C1920 C1922 1.381 . S
C1920 C1926 1.383 . S
C1921 C1917 1.495 . S
C1921 H1927 0.959 . S
C1921 H1928 0.961 . S
C1921 H1929 0.960 . S
C1922 C1920 1.381 . S
C1922 C1923 1.394 . S
C1922 H1930 0.930 . S
C1923 C1922 1.394 . S
C1923 C1924 1.383 . S
C1923 H1931 0.929 . S
C1924 C1923 1.383 . S
C1924 C1925 1.377 . S
C1925 H1909 0.930 . S
C1925 C1924 1.377 . S
C1925 C1926 1.379 . S
C1926 H1910 0.931 . S
C1926 C1920 1.383 . S
C1926 C1925 1.379 . S
H1927 C1921 0.959 . S
H1928 C1921 0.961 . S
H1929 C1921 0.960 . S
H1930 C1922 0.930 . S
H1931 C1923 0.929 . S
H1932 C1940 0.929 . S
H1933 C1942 0.930 . S
H1934 C1944 0.930 . S
H1935 C1947 0.929 . S
H1936 C1950 0.930 . S
H1937 C1952 0.960 . S
H1938 C1952 0.960 . S
H1939 C1952 0.960 . S
C1940 H1932 0.929 . S
C1940 C1941 1.377 . S
C1940 C1942 1.384 . S
C1941 C1940 1.377 . S
C1941 C1947 1.390 . S
C1942 H1933 0.930 . S
C1942 C1940 1.384 . S
C1942 C1943 1.372 . S
C1943 C1942 1.372 . S
C1943 C1944 1.400 . S
C1943 C1948 1.490 . S
C1944 H1934 0.930 . S
C1944 C1943 1.400 . S
C1944 C1947 1.386 . S
H1945 C1961 0.930 . S
H1946 C1962 0.931 . S
C1947 H1935 0.929 . S
C1947 C1941 1.390 . S
C1947 C1944 1.386 . S
C1948 C1943 1.490 . S
C1948 C1950 1.395 . S
C1948 C1951 1.403 . S
H1949 C1955 0.930 . S
C1950 H1936 0.930 . S
C1950 C1948 1.395 . S
C1950 C1953 1.403 . S
C1951 C1948 1.403 . S
C1951 C1952 1.524 . S
C1951 C1955 1.400 . S
C1952 H1937 0.960 . S
C1952 H1938 0.960 . S
C1952 H1939 0.960 . S
C1952 C1951 1.524 . S
C1953 C1950 1.403 . S
C1953 C1954 1.392 . S
C1953 C1957 1.495 . S
C1954 C1953 1.392 . S
C1954 C1955 1.385 . S
C1954 C1956 1.478 . S
C1955 H1949 0.930 . S
C1955 C1951 1.400 . S
C1955 C1954 1.385 . S
C1956 C1954 1.478 . S
C1956 C1958 1.381 . S
C1956 C1962 1.383 . S
C1957 C1953 1.495 . S
C1957 H1963 0.959 . S
C1957 H1964 0.961 . S
C1957 H1965 0.960 . S
C1958 C1956 1.381 . S
C1958 C1959 1.394 . S
C1958 H1966 0.930 . S
C1959 C1958 1.394 . S
C1959 C1960 1.383 . S
C1959 H1967 0.929 . S
C1960 C1959 1.383 . S
C1960 C1961 1.377 . S
C1961 H1945 0.930 . S
C1961 C1960 1.377 . S
C1961 C1962 1.379 . S
C1962 H1946 0.931 . S
C1962 C1956 1.383 . S
C1962 C1961 1.379 . S
H1963 C1957 0.959 . S
H1964 C1957 0.961 . S
H1965 C1957 0.960 . S
H1966 C1958 0.930 . S
H1967 C1959 0.929 . S
C537 C21 1.117 1_554 S
C556 C516 1.099 . S
C573 C417 1.115 . S
C592 C54 1.095 . S
C609 C450 1.110 . S
C628 C87 1.116 1_554 S
C645 C483 1.113 . S
C664 C120 1.128 . S
C681 C153 1.113 . S
C700 C318 1.128 . S
C717 C351 1.111 . S
C736 C186 1.128 . S
C753 C384 1.114 . S
C772 C219 1.096 . S
C789 C252 1.112 . S
C808 C285 1.128 . S
C825 C216 1.887 . S
C844 C18 1.884 . S
C861 C249 1.887 . S
C880 C51 1.887 . S
C897 C150 1.887 . S
C916 C84 1.886 . S
C933 C183 1.887 . S
C952 C117 1.886 . S
C969 N145 0.797 . S
C988 N79 0.835 . S
C1005 N112 0.798 . S
C1024 N178 0.823 . S
C1041 N211 0.778 . S
C1060 N13 0.756 . S
C1077 N46 0.785 . S
C1096 N244 0.808 . S
C1113 C282 1.887 . S
C1132 C480 1.883 . S
C1149 C513 1.887 . S
C1168 C315 1.888 . S
C1185 C414 1.884 . S
C1204 C348 1.876 . S
C1221 C447 1.887 . S
C1240 C381 1.888 . S
C1257 N409 0.779 . S
C1276 N343 0.776 . S
C1293 N442 0.779 . S
C1312 N376 0.739 . S
C1329 N277 0.798 . S
C1348 N475 0.825 . S
C1365 N310 0.789 . S
C1384 N508 0.758 . S
C1401 N167 0.824 . S
C1420 N2 0.858 . S
C1437 N35 0.826 . S
C1456 N200 0.843 . S
C1473 N233 0.817 . S
C1492 N68 0.839 . S
C1509 N101 0.810 . S
C1528 N134 0.774 . S
C1545 C73 2.179 . S
C1564 C238 2.163 . S
C1581 C139 2.177 . S
C1600 C106 2.185 . S
C1617 C172 2.179 . S
C1636 C7 2.163 . S
C1653 C40 2.179 . S
C1672 C205 2.179 . S
C1689 N431 0.826 . S
C1708 N266 0.844 . S
C1725 N299 0.826 . S
C1744 N464 0.855 . S
C1761 N497 0.826 . S
C1780 N332 0.844 . S
C1797 N365 0.819 . S
C1816 N398 0.847 . S
C1833 C502 2.180 . S
C1852 C337 2.161 . S
C1869 C370 2.176 . S
C1888 C403 2.187 . S
C1905 C436 2.176 . S
C1924 C271 2.182 . S
C1941 C304 2.176 . S
C1960 C469 2.187 . S
