# Generated by pormake.
# Topology rkf, (6)-cn, num edge types: 1
# Building blocks:
#     Node 0, Type 0, BuildingBlock: PAMTOO_clean_sbu_0, # of connection points: 6
#     Node 1, Type 0, BuildingBlock: PAMTOO_clean_sbu_0, # of connection points: 6
#     Node 2, Type 0, BuildingBlock: PAMTOO_clean_sbu_0, # of connection points: 6
#     Node 3, Type 0, BuildingBlock: PAMTOO_clean_sbu_0, # of connection points: 6
#     Node 4, Type 0, BuildingBlock: PAMTOO_clean_sbu_0, # of connection points: 6
#     Node 5, Type 0, BuildingBlock: PAMTOO_clean_sbu_0, # of connection points: 6
#     Edge 6, Type (0, 0), BuildingBlock: CIFDUS_clean_linker_0, # of connection points: 2
#     Edge 7, Type (0, 0), BuildingBlock: CIFDUS_clean_linker_0, # of connection points: 2
#     Edge 8, Type (0, 0), BuildingBlock: CIFDUS_clean_linker_0, # of connection points: 2
#     Edge 9, Type (0, 0), BuildingBlock: CIFDUS_clean_linker_0, # of connection points: 2
#     Edge 10, Type (0, 0), BuildingBlock: CIFDUS_clean_linker_0, # of connection points: 2
#     Edge 11, Type (0, 0), BuildingBlock: CIFDUS_clean_linker_0, # of connection points: 2
#     Edge 12, Type (0, 0), BuildingBlock: CIFDUS_clean_linker_0, # of connection points: 2
#     Edge 13, Type (0, 0), BuildingBlock: CIFDUS_clean_linker_0, # of connection points: 2
#     Edge 14, Type (0, 0), BuildingBlock: CIFDUS_clean_linker_0, # of connection points: 2
#     Edge 15, Type (0, 0), BuildingBlock: CIFDUS_clean_linker_0, # of connection points: 2
#     Edge 16, Type (0, 0), BuildingBlock: CIFDUS_clean_linker_0, # of connection points: 2
#     Edge 17, Type (0, 0), BuildingBlock: CIFDUS_clean_linker_0, # of connection points: 2
#     Edge 18, Type (0, 0), BuildingBlock: CIFDUS_clean_linker_0, # of connection points: 2
#     Edge 19, Type (0, 0), BuildingBlock: CIFDUS_clean_linker_0, # of connection points: 2
#     Edge 20, Type (0, 0), BuildingBlock: CIFDUS_clean_linker_0, # of connection points: 2
#     Edge 21, Type (0, 0), BuildingBlock: CIFDUS_clean_linker_0, # of connection points: 2
#     Edge 22, Type (0, 0), BuildingBlock: CIFDUS_clean_linker_0, # of connection points: 2
#     Edge 23, Type (0, 0), BuildingBlock: CIFDUS_clean_linker_0, # of connection points: 2
# Relax obj value: 0.935
# Max RMSD: 0.276
# Mean RMSD: 0.268
data_MOF--net-rkf--node1-PAMTOO_clean_sbu_0--edge1-CIFDUS_clean_linker_0
_symmetry_space_group_name_H-M    P1
_symmetry_Int_Tables_number       1
_symmetry_cell_setting            triclinic
loop_
_symmetry_equiv_pos_as_xyz
'x, y, z'
_cell_length_a     23.357047
_cell_length_b     23.250014
_cell_length_c     37.041986
_cell_angle_alpha  88.536283
_cell_angle_beta   91.479224
_cell_angle_gamma 119.05278
loop_
_atom_site_label
_atom_site_type_symbol
_atom_site_fract_x
_atom_site_fract_y
_atom_site_fract_z
_atom_type_partial_charge
Dy0 Dy 0.18381 0.92821 0.22423 0.0
Dy1 Dy 0.1738 0.05736 0.20042 0.0
C2 C 0.05156 0.92832 0.23283 0.0
O3 O 0.12429 0.90315 1.1718 0.0
O4 O 0.16776 0.00762 1.1485 0.0
O5 O 0.15504 0.82597 0.21792 0.0
O6 O 0.2395 0.88714 0.25131 0.0
O7 O 0.27984 0.08823 0.20814 0.0
O8 O 0.26652 -0.00859 1.18839 0.0
O9 O 0.15783 0.04612 0.25896 0.0
O10 O 0.21854 -0.00356 0.27339 0.0
O11 O 0.17551 0.14576 0.21839 0.0
O12 O 0.16199 0.12211 1.16167 0.0
C13 C 0.13413 0.94365 1.14418 0.0
O14 O 0.09111 0.91063 0.24913 0.0
O15 O 0.07178 -0.02635 0.20691 0.0
C16 C 0.17568 0.7759 0.26896 0.0
C17 C 0.13375 0.68857 0.32867 0.0
C18 C 0.0888 0.69996 0.30786 0.0
C19 C 0.10955 0.74326 0.27849 0.0
C20 C 0.22007 0.76146 0.28794 0.0
C21 C 0.1993 0.71813 0.31767 0.0
C22 C 0.19914 0.82753 0.24076 0.0
C23 C 0.30459 0.05376 1.19483 0.0
C24 C 0.19305 0.03385 0.28252 0.0
C25 C 0.22763 0.23374 1.17781 0.0
C26 C 0.32618 0.36243 1.16044 0.0
C27 C 0.27678 0.35198 1.18493 0.0
C28 C 0.22765 0.28813 1.19332 0.0
C29 C 0.27972 0.24361 1.15589 0.0
C30 C 0.32821 0.30716 1.14712 0.0
C31 C 0.1746 0.16697 1.18573 0.0
H32 H 0.03825 0.6796 0.31581 0.0
H33 H 0.07418 0.75348 0.26437 0.0
H34 H 0.27129 0.78587 0.28073 0.0
H35 H 0.23506 0.71037 0.3331 0.0
H36 H 0.27421 0.39313 1.19625 0.0
H37 H 0.18879 0.28127 0.21122 0.0
H38 H 0.28182 0.20224 1.14447 0.0
H39 H 0.36459 0.31251 1.12785 0.0
Dy40 Dy 0.19488 0.25668 0.52775 0.0
Dy41 Dy 0.32894 0.25886 0.55746 0.0
C42 C 0.19473 0.13332 0.56013 0.0
O43 O 0.18783 0.25737 0.58755 0.0
O44 O 0.29508 0.29471 0.60506 0.0
O45 O 0.08911 0.21008 0.53077 0.0
O46 O 0.14423 0.29638 0.4951 0.0
O47 O 0.35209 0.34562 0.52175 0.0
O48 O 0.2681 0.35999 0.53933 0.0
O49 O 0.30858 0.20916 0.50333 0.0
O50 O 0.24022 0.24482 0.4776 0.0
O51 O 0.42933 0.31805 0.57485 0.0
O52 O 0.38881 0.21293 0.56856 0.0
C53 C 0.23457 0.2817 0.61221 0.0
O54 O 0.18633 0.15765 0.52964 0.0
O55 O 0.24355 0.17074 0.58146 0.0
C56 C 0.0263 0.25288 0.49709 0.0
C57 C 0.91056 0.2577 0.47952 0.0
C58 C 0.90772 0.20428 0.49961 0.0
C59 C -0.03475 0.20207 0.50848 0.0
C60 C 0.02904 0.30608 0.47708 0.0
C61 C -0.02809 0.30846 0.46838 0.0
C62 C 0.08754 0.25374 0.50844 0.0
C63 C 0.32769 0.38452 0.5277 0.0
C64 C 0.27644 0.21567 0.47504 0.0
C65 C 0.46553 0.26359 0.61643 0.0
C66 C 0.48615 0.25563 0.69089 0.0
C67 C 0.51322 0.31725 0.67331 0.0
C68 C 0.50297 0.32123 0.63626 0.0
C69 C 0.44781 0.20236 0.63299 0.0
C70 C 0.4579 0.1984 0.66998 0.0
C71 C 0.4382 0.26723 0.58058 0.0
H72 H 0.86114 0.16418 0.50826 0.0
H73 H 0.96196 0.16075 0.52424 0.0
H74 H 0.07544 0.34622 0.46821 0.0
H75 H -0.02421 0.34934 0.4519 0.0
H76 H 0.53616 0.3621 0.68876 0.0
H77 H 0.51938 0.36929 0.62385 0.0
H78 H 0.42091 0.15709 0.61817 0.0
H79 H 0.43678 0.15004 0.68263 0.0
Dy80 Dy 0.10263 0.35163 0.87839 0.0
Dy81 Dy -0.02708 0.34505 0.84252 0.0
C82 C -0.02474 0.21207 0.85929 0.0
O83 O 0.117 0.3577 0.81812 0.0
O84 O 0.01113 0.31063 0.79757 0.0
O85 O 0.16651 0.32961 0.91252 0.0
O86 O 0.20691 0.40988 0.87319 0.0
O87 O 0.05878 0.44498 0.83804 0.0
O88 O 0.09409 0.43995 0.89346 0.0
O89 O 0.94855 0.32101 0.90212 0.0
O90 O 0.03855 0.31759 0.92705 0.0
O91 O 0.91297 0.3425 0.79703 0.0
O92 O 0.89587 0.37028 0.8494 0.0
C93 C 0.07314 0.32872 0.79235 0.0
O94 O 0.03945 0.24472 0.86459 0.0
O95 O 0.93894 0.24028 0.85392 0.0
C96 C 0.26434 0.42549 0.92811 0.0
C97 C 0.33831 0.5009 0.98731 0.0
C98 C 0.34097 0.44403 0.97741 0.0
C99 C 0.3043 0.40677 0.94808 0.0
C100 C 0.26546 0.48489 0.93593 0.0
C101 C 0.30266 0.52261 0.96509 0.0
C102 C 0.21915 0.3811 0.90064 0.0
C103 C 0.08539 0.47473 0.86797 0.0
C104 C -0.02108 0.30947 0.92979 0.0
C105 C 0.80502 0.31329 0.81013 0.0
C106 C 0.68007 0.23179 0.78063 0.0
C107 C 0.70365 0.2999 0.78337 0.0
C108 C 0.76605 0.34047 0.79781 0.0
C109 C 0.7789 0.24481 0.81126 0.0
C110 C 0.71684 0.20428 0.79655 0.0
C111 C 0.87525 0.35639 0.81607 0.0
H112 H 0.36684 0.42481 0.99403 0.0
H113 H 0.30441 0.36139 0.94221 0.0
H114 H 0.23531 0.50065 0.92056 0.0
H115 H 0.30001 0.56637 0.97167 0.0
H116 H 0.67594 0.32233 0.77189 0.0
H117 H 0.78553 0.39334 0.79703 0.0
H118 H 0.80849 0.22312 0.82083 0.0
H119 H 0.70058 0.15217 0.79468 0.0
Dy120 Dy 0.76575 0.04944 1.17988 0.0
Dy121 Dy 0.81415 0.19485 0.21555 0.0
C122 C 0.89497 0.12148 0.22281 0.0
O123 O 0.7609 0.03143 0.24093 0.0
O124 O 0.7604 0.1241 0.26151 0.0
O125 O 0.69886 0.94559 1.17501 0.0
O126 O 0.78902 -0.00868 1.14462 0.0
O127 O 0.70796 0.15751 0.20246 0.0
O128 O 0.67759 0.06049 1.17307 0.0
O129 O 0.86389 0.20972 1.16164 0.0
O130 O 0.78717 0.11886 1.13204 0.0
O131 O 0.81175 0.28616 0.20862 0.0
O132 O 0.87226 0.2762 0.25082 0.0
C133 C 0.75436 0.06492 0.26744 0.0
O134 O 0.87259 0.10656 1.18987 0.0
O135 O 0.87923 0.15905 0.24091 0.0
C136 C 0.7446 0.87746 1.1596 0.0
C137 C 0.74212 0.75477 1.16007 0.0
C138 C 0.78496 0.80671 1.13737 0.0
C139 C 0.78586 0.86708 1.13702 0.0
C140 C 0.70515 0.82741 1.18421 0.0
C141 C 0.70398 0.76661 1.18444 0.0
C142 C 0.73704 0.93649 1.15351 0.0
C143 C 0.66482 0.1056 1.1848 0.0
C144 C 0.83817 0.17844 1.13121 0.0
C145 C 0.8183 0.33519 0.26446 0.0
C146 C 0.77289 0.35527 0.32979 0.0
C147 C 0.7288 0.3089 0.30515 0.0
C148 C 0.75163 0.29815 0.2729 0.0
C149 C 0.85974 0.38843 0.286 0.0
C150 C 0.83715 0.39881 0.31837 0.0
C151 C 0.84694 0.31158 0.23766 0.0
H152 H 0.81423 0.79937 1.11769 0.0
H153 H 0.81637 0.90447 1.11759 0.0
H154 H 0.6727 0.83388 0.20199 0.0
H155 H 0.67074 0.72779 0.20235 0.0
H156 H 0.67872 0.27558 0.31277 0.0
H157 H 0.71853 0.25712 0.25633 0.0
H158 H 0.91117 0.41792 0.27965 0.0
H159 H 0.87273 0.43542 0.33637 0.0
Dy160 Dy 0.6797 0.89405 0.54624 0.0
Dy161 Dy 0.77008 0.82521 0.53519 0.0
C162 C 0.82962 -0.03113 0.55941 0.0
O163 O 0.69699 0.90551 0.48632 0.0
O164 O 0.78213 0.88241 0.4821 0.0
O165 O 0.662 -0.02837 0.56344 0.0
O166 O 0.58363 0.88509 0.53829 0.0
O167 O 0.67831 0.76611 0.50507 0.0
O168 O 0.6177 0.78417 0.54527 0.0
O169 O 0.72764 0.79346 0.59119 0.0
O170 O 0.70699 0.87758 0.60335 0.0
O171 O 0.78058 0.73842 0.54097 0.0
O172 O 0.86442 0.83273 0.52647 0.0
C173 C 0.74383 0.90472 0.46756 0.0
O174 O 0.78407 -0.02573 0.54077 0.0
O175 O 0.81956 0.91123 0.57017 0.0
C176 C 0.55583 0.93572 0.58364 0.0
C177 C 0.49992 0.96176 0.64277 0.0
C178 C 0.487 -0.02344 0.60741 0.0
C179 C 0.51558 0.96431 0.578 0.0
C180 C 0.56074 0.91205 0.61808 0.0
C181 C 0.53287 0.92489 0.6475 0.0
C182 C 0.59971 0.93952 0.55511 0.0
C183 C 0.62238 0.74766 0.52033 0.0
C184 C 0.71988 0.83063 0.61476 0.0
C185 C 0.86896 0.73536 0.51185 0.0
C186 C 0.92749 0.66918 0.47891 0.0
C187 C 0.8658 0.63332 0.4948 0.0
C188 C 0.83697 0.66613 0.51136 0.0
C189 C 0.93045 0.77105 0.49582 0.0
C190 C 0.95918 0.73839 0.47939 0.0
C191 C 0.8427 0.76998 0.53297 0.0
H192 H 0.46062 0.00371 0.60285 0.0
H193 H 0.51049 -0.01818 0.55136 0.0
H194 H 0.59101 0.88898 0.6227 0.0
H195 H 0.54387 0.91258 0.67424 0.0
H196 H 0.84022 0.58003 0.49471 0.0
H197 H 0.79014 0.63723 0.52426 0.0
H198 H 0.95691 0.82434 0.49634 0.0
H199 H 0.006 0.76761 0.46651 0.0
Dy200 Dy 0.95266 0.86303 0.87942 0.0
Dy201 Dy 0.82892 0.71938 0.89404 0.0
C202 C 0.8221 0.84591 0.9038 0.0
O203 O -0.02219 0.82896 0.93112 0.0
O204 O 0.87446 0.75678 0.94989 0.0
O205 O -0.01667 0.96439 0.86392 0.0
O206 O 0.05146 0.93754 0.89002 0.0
O207 O 0.91872 0.70848 0.89228 0.0
O208 O -0.01713 0.79527 0.85483 0.0
O209 O 0.82677 0.73025 0.83311 0.0
O210 O 0.89397 0.84225 0.82711 0.0
O211 O 0.77971 0.61316 0.89011 0.0
O212 O 0.73316 0.6614 0.91663 0.0
C213 C 0.9374 0.79595 0.95717 0.0
O214 O 0.87952 0.86137 0.91717 0.0
O215 O 0.79453 0.79332 0.88417 0.0
C216 C 0.09694 0.03479 0.85553 0.0
C217 C 0.21564 0.12979 0.82613 0.0
C218 C 0.1821 0.14858 0.8499 0.0
C219 C 0.12305 0.10111 0.86465 0.0
C220 C 0.1283 0.01645 0.83023 0.0
C221 C 0.18727 0.06369 0.81559 0.0
C222 C 0.04272 -0.01503 0.87639 0.0
C223 C -0.03162 0.73839 0.87033 0.0
C224 C 0.85 0.78528 0.81361 0.0
C225 C 0.72117 0.5647 0.94408 0.0
C226 C 0.72157 0.53182 1.01787 0.0
C227 C 0.76876 0.53263 0.99453 0.0
C228 C 0.76939 0.55036 0.9581 0.0
C229 C 0.66785 0.55216 0.96559 0.0
C230 C 0.66812 0.53635 1.00211 0.0
C231 C 0.73255 0.60582 0.91122 0.0
H232 H 0.2027 0.1993 0.85809 0.0
H233 H 0.09917 0.11572 0.88432 0.0
H234 H 0.10854 0.96537 0.82293 0.0
H235 H 0.21127 0.04834 0.79642 0.0
H236 H 0.80884 0.52585 1.00491 0.0
H237 H 0.8106 0.55821 0.94189 0.0
H238 H 0.62954 0.56192 0.95519 0.0
H239 H 0.62985 0.53552 1.01827 0.0
H240 H 0.84909 -0.00573 0.20828 0.0
H241 H -0.02531 0.14487 0.28278 0.0
H242 H 0.01561 0.07219 0.3072 0.0
H243 H 0.03913 -0.01737 0.29259 0.0
H244 H 0.92765 0.84683 0.20887 0.0
H245 H 0.85307 0.89212 0.20522 0.0
C246 C 0.88527 0.01126 0.22998 0.0
C247 C 0.91222 0.07607 0.24229 0.0
C248 C 0.9099 -0.02941 0.24259 0.0
C249 C 0.95569 0.09602 0.27193 0.0
C250 C -0.0212 0.05443 0.28585 0.0
C251 C -0.00351 0.96126 0.27483 0.0
C252 C -0.0096 0.91445 0.24961 0.0
C253 C 0.9598 -0.00622 0.2694 0.0
C254 C 0.93386 0.88417 0.2279 0.0
C255 C 0.89248 0.9115 0.22502 0.0
H256 H 0.91933 0.96217 0.52214 0.0
H257 H 0.89147 0.07928 0.60063 0.0
H258 H 0.00825 0.13003 0.61813 0.0
H259 H 0.11671 0.13717 0.611 0.0
H260 H 0.13727 0.0092 0.53666 0.0
H261 H 0.02079 0.95751 0.52164 0.0
C262 C 0.93939 -0.00011 0.54258 0.0
C263 C 0.89821 0.01868 0.55944 0.0
C264 C 0.00304 0.02202 0.55528 0.0
C265 C 0.92343 0.06628 0.58641 0.0
C266 C -0.01075 0.09324 0.59724 0.0
C267 C 0.09488 0.096 0.59274 0.0
C268 C 0.13524 0.07835 0.57379 0.0
C269 C 0.02893 0.07001 0.58244 0.0
C270 C 0.10671 0.02354 0.5513 0.0
C271 C 0.04086 -0.00399 0.5416 0.0
H272 H 0.83687 0.90731 0.8402 0.0
H273 H 0.79194 0.91302 0.95144 0.0
H274 H 0.83358 0.03189 0.94621 0.0
H275 H 0.90313 0.13574 0.91354 0.0
H276 H -0.03305 0.13043 0.80624 0.0
H277 H 0.90096 0.00992 0.80644 0.0
C278 C 0.83406 0.93435 0.86278 0.0
C279 C 0.81159 0.90199 0.89606 0.0
C280 C 0.86513 0.0031 0.8607 0.0
C281 C 0.80817 0.93714 0.92538 0.0
C282 C 0.83363 0.00521 0.92264 0.0
C283 C 0.9026 0.1077 0.89041 0.0
C284 C 0.94067 0.14047 0.86034 0.0
C285 C 0.86597 0.03896 0.89118 0.0
C286 C 0.93915 0.10507 0.82999 0.0
C287 C 0.90082 0.03666 0.82996 0.0
H288 H 0.2881 0.45338 1.14333 0.0
H289 H 0.45358 0.41974 1.13616 0.0
H290 H 0.48843 0.48761 1.08135 0.0
H291 H 0.44674 0.51814 1.02647 0.0
H292 H 0.27369 0.53935 1.03314 0.0
H293 H 0.27024 0.5198 1.09763 0.0
C294 C 0.33374 0.46336 1.1311 0.0
C295 C 0.36553 0.42763 1.14232 0.0
C296 C 0.35172 0.4999 1.09879 0.0
C297 C 0.42597 0.44365 1.12675 0.0
C298 C 0.44588 0.48238 1.09529 0.0
C299 C 0.40981 0.52098 1.04233 0.0
C300 C 0.35822 0.52588 1.02464 0.0
C301 C 0.40511 0.50474 1.07926 0.0
C302 C 0.31299 0.53349 1.04563 0.0
C303 C 0.31029 0.52128 1.08273 0.0
H304 H 0.8853 0.36045 0.4764 0.0
H305 H 0.80088 0.15469 0.45105 0.0
H306 H 0.72535 0.1645 0.40821 0.0
H307 H 0.71323 0.23772 0.36494 0.0
H308 H 0.80792 0.44633 0.3841 0.0
H309 H 0.8476 0.42916 0.4429 0.0
C310 C 0.84886 0.31736 0.46228 0.0
C311 C 0.8504 0.25765 0.46574 0.0
C312 C 0.80831 0.32428 0.43598 0.0
C313 C 0.80152 0.20151 0.44847 0.0
C314 C 0.75864 0.20724 0.42363 0.0
C315 C 0.73961 0.27936 0.38258 0.0
C316 C 0.76123 0.34381 0.36925 0.0
C317 C 0.76574 0.26944 0.41504 0.0
C318 C 0.79333 0.39652 0.39317 0.0
C319 C 0.81662 0.38674 0.42662 0.0
H320 H 0.58298 0.10397 0.78837 0.0
H321 H 0.65769 0.27029 0.71432 0.0
H322 H 0.59116 0.19973 0.6658 0.0
H323 H 0.5329 0.09004 0.64191 0.0
H324 H 0.46579 0.92088 0.71335 0.0
H325 H 0.50628 -0.00661 0.76548 0.0
C326 C 0.58339 0.12486 0.7618 0.0
C327 C 0.626 0.19218 0.755 0.0
C328 C 0.54665 0.08342 0.73342 0.0
C329 C 0.6253 0.21885 0.72056 0.0
C330 C 0.5877 0.17833 0.69254 0.0
C331 C 0.52434 0.06849 0.66888 0.0
C332 C 0.49782 0.0001 0.67365 0.0
C333 C 0.55083 0.11029 0.69831 0.0
C334 C 0.4873 -0.02649 0.70894 0.0
C335 C 0.51099 0.01498 0.7387 0.0
H336 H 0.83049 0.714 1.1453 0.0
H337 H 0.6234 0.64217 1.15752 0.0
H338 H 0.59878 0.54562 1.12249 0.0
H339 H 0.6352 0.50179 1.0741 0.0
H340 H 0.84248 0.59034 1.05304 0.0
H341 H 0.86712 0.65383 1.10719 0.0
C342 C 0.78 0.67622 1.14115 0.0
C343 C 0.72901 0.68676 1.15277 0.0
C344 C 0.76594 0.62321 1.11867 0.0
C345 C 0.66387 0.63614 1.14849 0.0
C346 C 0.6496 0.58103 1.12796 0.0
C347 C 0.68594 0.53484 1.08122 0.0
C348 C 0.73615 0.54423 1.05747 0.0
C349 C 0.70013 0.57727 1.11042 0.0
C350 C 0.8017 0.58281 1.06941 0.0
C351 C 0.81629 0.62074 1.10033 0.0
H352 H 0.05457 0.69729 0.48054 0.0
H353 H 0.86677 0.56668 0.43218 0.0
H354 H 0.9206 0.54044 0.3848 0.0
H355 H 0.01881 0.58172 0.34824 0.0
H356 H 0.20429 0.72901 0.39181 0.0
H357 H 0.15497 0.71865 0.45017 0.0
C358 C 0.02545 0.66173 0.46012 0.0
C359 C 0.95716 0.6361 0.45892 0.0
C360 C 0.05676 0.65019 0.43173 0.0
C361 C 0.91958 0.58807 0.43333 0.0
C362 C 0.95036 0.57337 0.40603 0.0
C363 C 0.04879 0.60988 0.37093 0.0
C364 C 0.11413 0.65843 0.36519 0.0
C365 C 0.01878 0.60826 0.40346 0.0
C366 C 0.15343 0.69226 0.39509 0.0
C367 C 0.12492 0.68723 0.42847 0.0
H368 H 0.32352 0.1161 0.82294 0.0
H369 H 0.25159 0.25195 0.79751 0.0
H370 H 0.34819 0.31875 0.761 0.0
H371 H 0.43357 0.31989 0.72422 0.0
H372 H 0.49402 0.17344 0.74272 0.0
H373 H 0.42332 0.13066 0.79476 0.0
C374 C 0.32973 0.16103 0.80985 0.0
C375 C 0.27994 0.17816 0.81178 0.0
C376 C 0.38328 0.19702 0.78752 0.0
C377 C 0.28905 0.23742 0.7959 0.0
C378 C 0.34394 0.2753 0.77486 0.0
C379 C 0.43382 0.28073 0.74067 0.0
C380 C 0.46872 0.24939 0.72941 0.0
C381 C 0.38894 0.25312 0.76867 0.0
C382 C 0.46805 0.19848 0.7509 0.0
C383 C 0.42654 0.17325 0.7803 0.0
H384 H 0.36532 0.00368 1.15606 0.0
H385 H 0.40353 0.16576 0.22489 0.0
H386 H 0.52073 0.19993 0.22577 0.0
H387 H 0.61011 0.1762 0.21183 0.0
H388 H 0.56814 0.01156 1.14371 0.0
H389 H 0.45463 -0.01389 1.13784 0.0
C390 C 0.39932 0.04695 1.17097 0.0
C391 C 0.37585 0.08159 1.19077 0.0
C392 C 0.4659 0.06544 1.17183 0.0
C393 C 0.42053 0.13817 0.20947 0.0
C394 C 0.48742 0.15743 0.21018 0.0
C395 C 0.57631 0.13522 1.19539 0.0
C396 C 0.59765 0.09532 1.17874 0.0
C397 C 0.51039 0.12027 1.19224 0.0
C398 C 0.55316 0.04267 1.15731 0.0
C399 C 0.48806 0.028 1.15382 0.0
H400 H 0.43924 0.44855 0.49034 0.0
H401 H 0.31029 0.48039 0.55832 0.0
H402 H 0.38856 0.59814 0.55979 0.0
H403 H 0.49843 0.68975 0.54642 0.0
H404 H 0.62588 0.65563 0.47808 0.0
H405 H 0.54308 0.54113 0.47198 0.0
C406 C 0.428 0.48138 0.50518 0.0
C407 C 0.36983 0.45604 0.52458 0.0
C408 C 0.47308 0.5485 0.50607 0.0
C409 C 0.35512 0.49901 0.54324 0.0
C410 C 0.39991 0.5662 0.54424 0.0
C411 C 0.50768 0.65738 0.52989 0.0
C412 C 0.56852 0.68095 0.51325 0.0
C413 C 0.45981 0.59118 0.52649 0.0
C414 C 0.57964 0.63871 0.4915 0.0
C415 C 0.53238 0.57307 0.48798 0.0
H416 H 0.08841 0.56552 0.81952 0.0
H417 H 0.07717 0.52047 0.93371 0.0
H418 H 0.04687 0.60525 0.9449 0.0
H419 H 0.00711 0.67933 0.92105 0.0
H420 H 0.01932 0.72611 0.80722 0.0
H421 H 0.06649 0.6539 0.79693 0.0
C422 C 0.08079 0.57537 0.84694 0.0
C423 C 0.08391 0.53607 0.87569 0.0
C424 C 0.06275 0.62376 0.8531 0.0
C425 C 0.07486 0.54984 0.91112 0.0
C426 C 0.05699 0.59796 0.91749 0.0
C427 C 0.02132 0.67457 0.89409 0.0
C428 C 0.00895 0.70683 0.86478 0.0
C429 C 0.0482 0.63318 0.88853 0.0
C430 C 0.02839 0.70149 0.83009 0.0
C431 C 0.0549 0.65995 0.82424 0.0
H432 H 0.28071 0.05007 0.34028 0.0
H433 H 0.12552 0.09132 0.3066 0.0
H434 H 0.1388 0.15068 0.36097 0.0
H435 H 0.19432 0.19467 0.41773 0.0
H436 H 0.34937 0.15693 0.45513 0.0
H437 H 0.33702 0.09453 0.40023 0.0
C438 C 0.24942 0.07138 0.34509 0.0
C439 C 0.20153 0.06477 0.31885 0.0
C440 C 0.25791 0.10765 0.37713 0.0
C441 C 0.16223 0.09395 0.32586 0.0
C442 C 0.17004 0.12891 0.35714 0.0
C443 C 0.22606 0.17345 0.41397 0.0
C444 C 0.2732 0.18149 0.44063 0.0
C445 C 0.21797 0.13678 0.38277 0.0
C446 C 0.31289 0.15229 0.43506 0.0
C447 C 0.3056 0.11617 0.40363 0.0
H448 H 0.11312 0.2531 0.63493 0.0
H449 H 0.31393 0.33813 0.67239 0.0
H450 H 0.28217 0.36079 0.73081 0.0
H451 H 0.19697 0.35636 0.77153 0.0
H452 H -0.00313 0.27112 0.73261 0.0
H453 H 0.02907 0.24837 0.67489 0.0
C454 C 0.15039 0.27649 0.65575 0.0
C455 C 0.21627 0.29401 0.64877 0.0
C456 C 0.13178 0.28921 0.68932 0.0
C457 C 0.26304 0.32399 0.67661 0.0
C458 C 0.2448 0.33689 0.71016 0.0
C459 C 0.16031 0.33301 0.75042 0.0
C460 C 0.09427 0.31598 0.75677 0.0
C461 C 0.17928 0.31986 0.71686 0.0
C462 C 0.04788 0.28525 0.72886 0.0
C463 C 0.06631 0.27205 0.69568 0.0
H464 H 0.02888 0.32551 0.99941 0.0
H465 H 0.84706 0.23094 0.939 0.0
H466 H 0.78759 0.18045 0.99465 0.0
H467 H 0.7867 0.16148 1.06134 0.0
H468 H -0.03215 0.26401 1.12182 0.0
H469 H 0.02706 0.31233 1.06608 0.0
C470 C -0.02382 0.29413 0.99839 0.0
C471 C 0.94284 0.28239 0.96468 0.0
C472 C 0.94173 0.26621 1.03088 0.0
C473 C 0.87432 0.24167 0.96431 0.0
C474 C 0.84013 0.21234 0.99627 0.0
C475 C 0.8391 0.19444 1.06233 0.0
C476 C 0.87243 0.20852 1.09616 0.0
C477 C 0.87318 0.22396 1.02985 0.0
C478 C 0.94043 0.25212 1.09654 0.0
C479 C -0.02539 0.27984 1.06449 0.0
H480 H 0.79585 -0.01844 0.29901 0.0
H481 H 0.69451 0.08884 0.32335 0.0
H482 H 0.68173 0.04876 0.38593 0.0
H483 H 0.69987 -0.01581 0.43465 0.0
H484 H 0.80769 0.8827 0.4121 0.0
H485 H 0.81795 0.91997 0.34883 0.0
C486 C 0.77048 -0.00417 0.31789 0.0
C487 C 0.74525 0.03776 0.30577 0.0
C488 C 0.76497 -0.026 0.35464 0.0
C489 C 0.71405 0.05656 0.33132 0.0
C490 C 0.70688 0.03369 0.36737 0.0
C491 C 0.72561 -0.03009 0.41601 0.0
C492 C 0.7525 0.92979 0.42871 0.0
C493 C 0.73222 -0.00749 0.37948 0.0
C494 C 0.78637 0.91321 0.40367 0.0
C495 C 0.79208 0.93449 0.36722 0.0
H496 H 0.73484 0.73316 0.65175 0.0
H497 H 0.7496 0.92338 0.66657 0.0
H498 H 0.79337 0.92776 0.72759 0.0
H499 H 0.83128 0.87966 0.77691 0.0
H500 H 0.8082 0.68569 0.76461 0.0
H501 H 0.76499 0.68117 0.7031 0.0
C502 C 0.74681 0.77528 0.66842 0.0
C503 C 0.73839 0.82785 0.65398 0.0
C504 C 0.77153 0.77727 0.70418 0.0
C505 C 0.7546 0.8818 0.67649 0.0
C506 C 0.78029 0.88464 0.71157 0.0
C507 C 0.8169 0.83633 0.76084 0.0
C508 C 0.82396 0.78331 0.77566 0.0
C509 C 0.78973 0.83307 0.72567 0.0
C510 C 0.8038 0.72737 0.75421 0.0
C511 C 0.77889 0.72473 0.71888 0.0
H512 H 0.05787 0.89089 0.97877 0.0
H513 H 0.8781 0.73429 1.02172 0.0
H514 H 0.92378 0.76383 1.08332 0.0
H515 H 0.0155 0.83592 1.12535 0.0
H516 H 0.19028 -0.00386 1.08012 0.0
H517 H 0.14619 0.96238 1.01929 0.0
C518 C 0.02842 0.86223 1.0014 0.0
C519 C 0.96443 0.80978 0.99516 0.0
C520 C 0.05458 0.8799 1.0366 0.0
C521 C 0.92745 0.77454 1.02534 0.0
C522 C 0.95372 0.79134 1.06067 0.0
C523 C 0.04413 0.8628 1.10211 0.0
C524 C 0.10674 0.91827 1.10745 0.0
C525 C 0.01737 0.84407 1.06672 0.0
C526 C 0.14236 0.95333 1.07697 0.0
C527 C 0.11708 0.93403 1.04208 0.0
loop_
_geom_bond_atom_site_label_1
_geom_bond_atom_site_label_2
_geom_bond_distance
_geom_bond_site_symmetry_2
_ccdc_geom_bond_type
Dy0 O3 2.293 1_554 S
Dy0 O5 2.395 . S
Dy0 O6 2.379 . S
Dy0 O8 2.339 . S
Dy0 O10 2.298 1_565 S
Dy0 O14 2.275 . S
Dy0 C22 2.738 . S
Dy1 O4 2.298 1_544 S
Dy1 O7 2.275 . S
Dy1 O9 2.307 . S
Dy1 O11 2.395 1_554 S
Dy1 O12 2.379 1_554 S
Dy1 O15 2.339 . S
Dy1 C31 2.738 1_554 S
C2 O14 1.254 1_545 S
C2 O15 1.257 . S
O3 Dy0 2.293 1_556 S
O3 C13 1.278 . S
O4 Dy1 2.298 1_566 S
O4 C13 1.236 . S
O5 Dy0 2.395 . S
O5 C22 1.255 . S
O6 Dy0 2.379 . S
O6 C22 1.249 . S
O7 Dy1 2.275 . S
O7 C23 1.254 1_545 S
O8 Dy0 2.339 . S
O8 C23 1.257 . S
O9 Dy1 2.307 . S
O9 C24 1.266 . S
O10 Dy0 2.298 1_545 S
O10 C24 1.236 . S
O11 Dy1 2.395 1_556 S
O11 C31 1.255 . S
O12 Dy1 2.379 1_556 S
O12 C31 1.249 . S
C13 O3 1.278 . S
C13 O4 1.236 . S
O14 Dy0 2.275 . S
O14 C2 1.254 1_565 S
O15 Dy1 2.339 . S
O15 C2 1.257 . S
C16 C19 1.344 . S
C16 C20 1.328 . S
C16 C22 1.516 . S
C17 C18 1.304 . S
C17 C21 1.323 . S
C18 C17 1.304 . S
C18 C19 1.371 . S
C18 H32 0.930 . S
C19 C16 1.344 . S
C19 C18 1.371 . S
C19 H33 0.931 . S
C20 C16 1.328 . S
C20 C21 1.433 . S
C20 H34 0.931 . S
C21 C17 1.323 . S
C21 C20 1.433 . S
C21 H35 0.933 . S
C22 Dy0 2.738 . S
C22 O5 1.255 . S
C22 O6 1.249 . S
C22 C16 1.516 . S
C23 O7 1.254 1_565 S
C23 O8 1.257 . S
C24 O9 1.266 . S
C24 O10 1.236 . S
C25 C28 1.344 . S
C25 C29 1.328 . S
C25 C31 1.516 . S
C26 C27 1.304 . S
C26 C30 1.323 . S
C27 C26 1.304 . S
C27 C28 1.371 . S
C27 H36 0.930 . S
C28 C25 1.344 . S
C28 C27 1.371 . S
C28 H37 0.931 . S
C29 C25 1.328 . S
C29 C30 1.433 . S
C29 H38 0.931 . S
C30 C26 1.323 . S
C30 C29 1.433 . S
C30 H39 0.933 . S
C31 Dy1 2.738 1_556 S
C31 O11 1.255 . S
C31 O12 1.249 . S
C31 C25 1.516 . S
H32 C18 0.930 . S
H33 C19 0.931 . S
H34 C20 0.931 . S
H35 C21 0.933 . S
H36 C27 0.930 . S
H37 C28 0.931 . S
H38 C29 0.931 . S
H39 C30 0.933 . S
Dy40 O43 2.307 . S
Dy40 O45 2.395 . S
Dy40 O46 2.379 . S
Dy40 O48 2.339 . S
Dy40 O50 2.298 . S
Dy40 O54 2.275 . S
Dy40 C62 2.738 . S
Dy41 O44 2.298 . S
Dy41 O47 2.275 . S
Dy41 O49 2.307 . S
Dy41 O51 2.395 . S
Dy41 O52 2.379 . S
Dy41 O55 2.339 . S
Dy41 C71 2.738 . S
C42 O54 1.254 . S
C42 O55 1.257 . S
O43 Dy40 2.307 . S
O43 C53 1.266 . S
O44 Dy41 2.298 . S
O44 C53 1.236 . S
O45 Dy40 2.395 . S
O45 C62 1.255 . S
O46 Dy40 2.379 . S
O46 C62 1.249 . S
O47 Dy41 2.275 . S
O47 C63 1.254 . S
O48 Dy40 2.339 . S
O48 C63 1.257 . S
O49 Dy41 2.307 . S
O49 C64 1.266 . S
O50 Dy40 2.298 . S
O50 C64 1.236 . S
O51 Dy41 2.395 . S
O51 C71 1.255 . S
O52 Dy41 2.379 . S
O52 C71 1.249 . S
C53 O43 1.266 . S
C53 O44 1.236 . S
O54 Dy40 2.275 . S
O54 C42 1.254 . S
O55 Dy41 2.339 . S
O55 C42 1.257 . S
C56 C59 1.344 . S
C56 C60 1.328 . S
C56 C62 1.516 . S
C57 C58 1.304 . S
C57 C61 1.323 . S
C58 C57 1.304 . S
C58 C59 1.371 . S
C58 H72 0.930 . S
C59 C56 1.344 . S
C59 C58 1.371 . S
C59 H73 0.931 . S
C60 C56 1.328 . S
C60 C61 1.433 . S
C60 H74 0.931 . S
C61 C57 1.323 . S
C61 C60 1.433 . S
C61 H75 0.933 . S
C62 Dy40 2.738 . S
C62 O45 1.255 . S
C62 O46 1.249 . S
C62 C56 1.516 . S
C63 O47 1.254 . S
C63 O48 1.257 . S
C64 O49 1.266 . S
C64 O50 1.236 . S
C65 C68 1.344 . S
C65 C69 1.328 . S
C65 C71 1.516 . S
C66 C67 1.304 . S
C66 C70 1.323 . S
C67 C66 1.304 . S
C67 C68 1.371 . S
C67 H76 0.930 . S
C68 C65 1.344 . S
C68 C67 1.371 . S
C68 H77 0.931 . S
C69 C65 1.328 . S
C69 C70 1.433 . S
C69 H78 0.931 . S
C70 C66 1.323 . S
C70 C69 1.433 . S
C70 H79 0.933 . S
C71 Dy41 2.738 . S
C71 O51 1.255 . S
C71 O52 1.249 . S
C71 C65 1.516 . S
H72 C58 0.930 . S
H73 C59 0.931 . S
H74 C60 0.931 . S
H75 C61 0.933 . S
H76 C67 0.930 . S
H77 C68 0.931 . S
H78 C69 0.931 . S
H79 C70 0.933 . S
Dy80 O83 2.307 . S
Dy80 O85 2.395 . S
Dy80 O86 2.379 . S
Dy80 O88 2.339 . S
Dy80 O90 2.298 . S
Dy80 O94 2.275 . S
Dy80 C102 2.738 . S
Dy81 O84 2.298 . S
Dy81 O87 2.275 . S
Dy81 O89 2.308 . S
Dy81 O91 2.395 1_455 S
Dy81 O92 2.379 1_455 S
Dy81 O95 2.339 . S
Dy81 C111 2.738 1_455 S
C82 O94 1.254 . S
C82 O95 1.257 . S
O83 Dy80 2.307 . S
O83 C93 1.266 . S
O84 Dy81 2.298 . S
O84 C93 1.236 . S
O85 Dy80 2.395 . S
O85 C102 1.255 . S
O86 Dy80 2.379 . S
O86 C102 1.249 . S
O87 Dy81 2.275 . S
O87 C103 1.254 . S
O88 Dy80 2.339 . S
O88 C103 1.257 . S
O89 Dy81 2.308 . S
O89 C104 1.270 . S
O90 Dy80 2.298 . S
O90 C104 1.236 . S
O91 Dy81 2.395 1_655 S
O91 C111 1.255 . S
O92 Dy81 2.379 1_655 S
O92 C111 1.249 . S
C93 O83 1.266 . S
C93 O84 1.236 . S
O94 Dy80 2.275 . S
O94 C82 1.254 . S
O95 Dy81 2.339 . S
O95 C82 1.257 . S
C96 C99 1.344 . S
C96 C100 1.328 . S
C96 C102 1.516 . S
C97 C98 1.304 . S
C97 C101 1.323 . S
C98 C97 1.304 . S
C98 C99 1.371 . S
C98 H112 0.930 . S
C99 C96 1.344 . S
C99 C98 1.371 . S
C99 H113 0.931 . S
C100 C96 1.328 . S
C100 C101 1.433 . S
C100 H114 0.931 . S
C101 C97 1.323 . S
C101 C100 1.433 . S
C101 H115 0.933 . S
C102 Dy80 2.738 . S
C102 O85 1.255 . S
C102 O86 1.249 . S
C102 C96 1.516 . S
C103 O87 1.254 . S
C103 O88 1.257 . S
C104 O89 1.270 . S
C104 O90 1.236 . S
C105 C108 1.344 . S
C105 C109 1.328 . S
C105 C111 1.516 . S
C106 C107 1.304 . S
C106 C110 1.323 . S
C107 C106 1.304 . S
C107 C108 1.371 . S
C107 H116 0.930 . S
C108 C105 1.344 . S
C108 C107 1.371 . S
C108 H117 0.931 . S
C109 C105 1.328 . S
C109 C110 1.433 . S
C109 H118 0.931 . S
C110 C106 1.323 . S
C110 C109 1.433 . S
C110 H119 0.933 . S
C111 Dy81 2.738 1_655 S
C111 O91 1.255 . S
C111 O92 1.249 . S
C111 C105 1.516 . S
H112 C98 0.930 . S
H113 C99 0.931 . S
H114 C100 0.931 . S
H115 C101 0.933 . S
H116 C107 0.930 . S
H117 C108 0.931 . S
H118 C109 0.931 . S
H119 C110 0.933 . S
Dy120 O123 2.316 1_545 S
Dy120 O125 2.388 1_544 S
Dy120 O126 2.371 1_544 S
Dy120 O128 2.340 . S
Dy120 O130 2.292 1_554 S
Dy120 O134 2.278 . S
Dy120 C142 2.729 1_544 S
Dy121 O124 2.298 . S
Dy121 O127 2.275 . S
Dy121 O129 2.307 1_554 S
Dy121 O131 2.395 . S
Dy121 O132 2.379 . S
Dy121 O135 2.339 . S
Dy121 C151 2.738 . S
C122 O134 1.254 . S
C122 O135 1.257 . S
O123 Dy120 2.316 1_565 S
O123 C133 1.266 1_565 S
O124 Dy121 2.298 . S
O124 C133 1.236 . S
O125 Dy120 2.388 1_566 S
O125 C142 1.255 . S
O126 Dy120 2.371 1_566 S
O126 C142 1.249 . S
O127 Dy121 2.275 . S
O127 C143 1.254 . S
O128 Dy120 2.340 . S
O128 C143 1.257 . S
O129 Dy121 2.307 1_556 S
O129 C144 1.266 . S
O130 Dy120 2.292 1_556 S
O130 C144 1.236 . S
O131 Dy121 2.395 . S
O131 C151 1.255 . S
O132 Dy121 2.379 . S
O132 C151 1.249 . S
C133 O123 1.266 1_545 S
C133 O124 1.236 . S
O134 Dy120 2.278 . S
O134 C122 1.254 . S
O135 Dy121 2.339 . S
O135 C122 1.257 . S
C136 C139 1.344 . S
C136 C140 1.328 . S
C136 C142 1.516 . S
C137 C138 1.304 . S
C137 C141 1.323 . S
C138 C137 1.304 . S
C138 C139 1.371 . S
C138 H152 0.930 . S
C139 C136 1.344 . S
C139 C138 1.371 . S
C139 H153 0.931 . S
C140 C136 1.328 . S
C140 C141 1.433 . S
C140 H154 0.931 . S
C141 C137 1.323 . S
C141 C140 1.433 . S
C141 H155 0.933 . S
C142 Dy120 2.729 1_566 S
C142 O125 1.255 . S
C142 O126 1.249 . S
C142 C136 1.516 . S
C143 O127 1.254 . S
C143 O128 1.257 . S
C144 O129 1.266 . S
C144 O130 1.236 . S
C145 C148 1.344 . S
C145 C149 1.328 . S
C145 C151 1.516 . S
C146 C147 1.304 . S
C146 C150 1.323 . S
C147 C146 1.304 . S
C147 C148 1.371 . S
C147 H156 0.930 . S
C148 C145 1.344 . S
C148 C147 1.371 . S
C148 H157 0.931 . S
C149 C145 1.328 . S
C149 C150 1.433 . S
C149 H158 0.931 . S
C150 C146 1.323 . S
C150 C149 1.433 . S
C150 H159 0.933 . S
C151 Dy121 2.738 . S
C151 O131 1.255 . S
C151 O132 1.249 . S
C151 C145 1.516 . S
H152 C138 0.930 . S
H153 C139 0.931 . S
H154 C140 0.931 . S
H155 C141 0.933 . S
H156 C147 0.930 . S
H157 C148 0.931 . S
H158 C149 0.931 . S
H159 C150 0.933 . S
Dy160 O163 2.307 . S
Dy160 O165 2.395 . S
Dy160 O166 2.379 . S
Dy160 O168 2.339 . S
Dy160 O170 2.298 . S
Dy160 O174 2.275 . S
Dy160 C182 2.738 . S
Dy161 O164 2.298 . S
Dy161 O167 2.275 . S
Dy161 O169 2.307 . S
Dy161 O171 2.395 . S
Dy161 O172 2.379 . S
Dy161 O175 2.339 . S
Dy161 C191 2.738 . S
C162 O174 1.254 . S
C162 O175 1.257 . S
O163 Dy160 2.307 . S
O163 C173 1.266 . S
O164 Dy161 2.298 . S
O164 C173 1.236 . S
O165 Dy160 2.395 . S
O165 C182 1.255 . S
O166 Dy160 2.379 . S
O166 C182 1.249 . S
O167 Dy161 2.275 . S
O167 C183 1.254 . S
O168 Dy160 2.339 . S
O168 C183 1.257 . S
O169 Dy161 2.307 . S
O169 C184 1.266 . S
O170 Dy160 2.298 . S
O170 C184 1.236 . S
O171 Dy161 2.395 . S
O171 C191 1.255 . S
O172 Dy161 2.379 . S
O172 C191 1.249 . S
C173 O163 1.266 . S
C173 O164 1.236 . S
O174 Dy160 2.275 . S
O174 C162 1.254 . S
O175 Dy161 2.339 . S
O175 C162 1.257 . S
C176 C179 1.344 1_565 S
C176 C180 1.328 . S
C176 C182 1.516 . S
C177 C178 1.304 . S
C177 C181 1.323 1_545 S
C178 C177 1.304 . S
C178 C179 1.371 . S
C178 H192 0.930 . S
C179 C176 1.344 1_545 S
C179 C178 1.371 . S
C179 H193 0.931 . S
C180 C176 1.328 . S
C180 C181 1.433 . S
C180 H194 0.931 . S
C181 C177 1.323 1_565 S
C181 C180 1.433 . S
C181 H195 0.933 . S
C182 Dy160 2.738 . S
C182 O165 1.255 . S
C182 O166 1.249 . S
C182 C176 1.516 . S
C183 O167 1.254 . S
C183 O168 1.257 . S
C184 O169 1.266 . S
C184 O170 1.236 . S
C185 C188 1.344 . S
C185 C189 1.328 . S
C185 C191 1.516 . S
C186 C187 1.304 . S
C186 C190 1.323 . S
C187 C186 1.304 . S
C187 C188 1.371 . S
C187 H196 0.930 . S
C188 C185 1.344 . S
C188 C187 1.371 . S
C188 H197 0.931 . S
C189 C185 1.328 . S
C189 C190 1.433 . S
C189 H198 0.931 . S
C190 C186 1.323 . S
C190 C189 1.433 . S
C190 H199 0.933 . S
C191 Dy161 2.738 . S
C191 O171 1.255 . S
C191 O172 1.249 . S
C191 C185 1.516 . S
H192 C178 0.930 . S
H193 C179 0.931 . S
H194 C180 0.931 . S
H195 C181 0.933 . S
H196 C187 0.930 . S
H197 C188 0.931 . S
H198 C189 0.931 . S
H199 C190 0.933 . S
Dy200 O203 2.307 . S
Dy200 O205 2.395 . S
Dy200 O206 2.379 . S
Dy200 O208 2.339 . S
Dy200 O210 2.298 . S
Dy200 O214 2.275 . S
Dy200 C222 2.738 . S
Dy201 O204 2.298 1_655 S
Dy201 O207 2.275 . S
Dy201 O209 2.307 . S
Dy201 O211 2.395 . S
Dy201 O212 2.379 . S
Dy201 O215 2.339 . S
Dy201 C231 2.738 . S
C202 O214 1.254 . S
C202 O215 1.257 1_455 S
O203 Dy200 2.307 . S
O203 C213 1.266 . S
O204 Dy201 2.298 1_455 S
O204 C213 1.236 . S
O205 Dy200 2.395 . S
O205 C222 1.255 . S
O206 Dy200 2.379 . S
O206 C222 1.249 . S
O207 Dy201 2.275 . S
O207 C223 1.254 1_655 S
O208 Dy200 2.339 . S
O208 C223 1.257 . S
O209 Dy201 2.307 . S
O209 C224 1.266 . S
O210 Dy200 2.298 . S
O210 C224 1.236 1_455 S
O211 Dy201 2.395 . S
O211 C231 1.255 . S
O212 Dy201 2.379 . S
O212 C231 1.249 . S
C213 O203 1.266 . S
C213 O204 1.236 . S
O214 Dy200 2.275 . S
O214 C202 1.254 . S
O215 Dy201 2.339 . S
O215 C202 1.257 1_655 S
C216 C219 1.344 . S
C216 C220 1.328 . S
C216 C222 1.516 . S
C217 C218 1.304 . S
C217 C221 1.323 . S
C218 C217 1.304 . S
C218 C219 1.371 . S
C218 H232 0.930 1_565 S
C219 C216 1.344 . S
C219 C218 1.371 . S
C219 H233 0.931 . S
C220 C216 1.328 . S
C220 C221 1.433 . S
C220 H234 0.931 . S
C221 C217 1.323 . S
C221 C220 1.433 . S
C221 H235 0.933 . S
C222 Dy200 2.738 . S
C222 O205 1.255 . S
C222 O206 1.249 . S
C222 C216 1.516 . S
C223 O207 1.254 1_455 S
C223 O208 1.257 . S
C224 O209 1.266 . S
C224 O210 1.236 1_655 S
C225 C228 1.344 . S
C225 C229 1.328 . S
C225 C231 1.516 . S
C226 C227 1.304 . S
C226 C230 1.323 . S
C227 C226 1.304 . S
C227 C228 1.371 . S
C227 H236 0.930 . S
C228 C225 1.344 . S
C228 C227 1.371 . S
C228 H237 0.931 . S
C229 C225 1.328 . S
C229 C230 1.433 . S
C229 H238 0.931 . S
C230 C226 1.323 . S
C230 C229 1.433 . S
C230 H239 0.933 . S
C231 Dy201 2.738 . S
C231 O211 1.255 . S
C231 O212 1.249 . S
C231 C225 1.516 . S
H232 C218 0.930 1_545 S
H233 C219 0.931 . S
H234 C220 0.931 . S
H235 C221 0.933 . S
H236 C227 0.930 . S
H237 C228 0.931 . S
H238 C229 0.931 . S
H239 C230 0.933 . S
H240 C246 0.930 1_556 S
H241 C249 0.930 . S
H242 C250 0.930 . S
H243 C251 0.930 . S
H244 C254 0.935 . S
H245 C255 0.930 . S
C246 H240 0.930 1_554 S
C246 C247 1.355 . S
C246 C248 1.415 . S
C247 C246 1.355 . S
C247 C249 1.419 . S
C248 C246 1.415 . S
C248 C253 1.425 . S
C248 C255 1.409 1_654 S
C249 H241 0.930 . S
C249 C247 1.419 . S
C249 C250 1.362 . S
C250 H242 0.930 . S
C250 C249 1.362 . S
C250 C253 1.409 . S
C251 H243 0.930 . S
C251 C252 1.355 . S
C251 C253 1.415 1_455 S
C252 C251 1.355 . S
C252 C254 1.411 1_554 S
C253 C248 1.425 . S
C253 C250 1.409 . S
C253 C251 1.415 1_655 S
C254 H244 0.935 . S
C254 C252 1.411 1_556 S
C254 C255 1.365 . S
C255 H245 0.930 . S
C255 C248 1.409 1_456 S
C255 C254 1.365 . S
H256 C262 0.930 . S
H257 C265 0.930 . S
H258 C266 0.930 . S
H259 C267 0.930 . S
H260 C270 0.930 . S
H261 C271 0.930 1_655 S
C262 H256 0.930 . S
C262 C263 1.355 . S
C262 C264 1.415 . S
C263 C262 1.355 . S
C263 C265 1.419 1_545 S
C264 C262 1.415 . S
C264 C269 1.425 1_655 S
C264 C271 1.409 1_655 S
C265 H257 0.930 . S
C265 C263 1.419 1_565 S
C265 C266 1.362 1_565 S
C266 H258 0.930 . S
C266 C265 1.362 1_545 S
C266 C269 1.409 1_655 S
C267 H259 0.930 . S
C267 C268 1.355 . S
C267 C269 1.415 . S
C268 C267 1.355 . S
C268 C270 1.419 . S
C269 C264 1.425 1_455 S
C269 C266 1.409 1_455 S
C269 C267 1.415 . S
C270 H260 0.930 . S
C270 C268 1.419 . S
C270 C271 1.362 . S
C271 H261 0.930 1_455 S
C271 C264 1.409 1_455 S
C271 C270 1.362 . S
H272 C278 0.930 . S
H273 C281 0.930 . S
H274 C282 0.930 . S
H275 C283 0.930 . S
H276 C286 0.930 . S
H277 C287 0.930 . S
C278 H272 0.930 . S
C278 C279 1.355 1_545 S
C278 C280 1.415 . S
C279 C278 1.355 1_565 S
C279 C281 1.419 1_455 S
C280 C278 1.415 . S
C280 C285 1.425 . S
C280 C287 1.409 . S
C281 H273 0.930 . S
C281 C279 1.419 1_655 S
C281 C282 1.362 1_565 S
C282 H274 0.930 . S
C282 C281 1.362 1_545 S
C282 C285 1.409 1_655 S
C283 H275 0.930 . S
C283 C284 1.355 . S
C283 C285 1.415 . S
C284 C283 1.355 . S
C284 C286 1.419 . S
C285 C280 1.425 . S
C285 C282 1.409 1_455 S
C285 C283 1.415 . S
C286 H276 0.930 . S
C286 C284 1.419 . S
C286 C287 1.362 . S
C287 H277 0.930 . S
C287 C280 1.409 . S
C287 C286 1.362 . S
H288 C294 0.930 . S
H289 C297 0.930 . S
H290 C298 0.930 . S
H291 C299 0.930 . S
H292 C302 0.930 . S
H293 C303 0.930 . S
C294 H288 0.930 . S
C294 C295 1.355 . S
C294 C296 1.415 . S
C295 C294 1.355 . S
C295 C297 1.419 . S
C296 C294 1.415 . S
C296 C301 1.425 . S
C296 C303 1.409 . S
C297 H289 0.930 . S
C297 C295 1.419 . S
C297 C298 1.362 . S
C298 H290 0.930 . S
C298 C297 1.362 . S
C298 C301 1.409 . S
C299 H291 0.930 . S
C299 C300 1.355 . S
C299 C301 1.415 . S
C300 C299 1.355 . S
C300 C302 1.419 . S
C301 C296 1.425 . S
C301 C298 1.409 . S
C301 C299 1.415 . S
C302 H292 0.930 . S
C302 C300 1.419 . S
C302 C303 1.362 . S
C303 H293 0.930 . S
C303 C296 1.409 . S
C303 C302 1.362 . S
H304 C310 0.930 . S
H305 C313 0.930 . S
H306 C314 0.930 . S
H307 C315 0.930 . S
H308 C318 0.930 . S
H309 C319 0.930 . S
C310 H304 0.930 . S
C310 C311 1.355 . S
C310 C312 1.415 . S
C311 C310 1.355 . S
C311 C313 1.419 . S
C312 C310 1.415 . S
C312 C317 1.425 1_455 S
C312 C319 1.409 1_455 S
C313 H305 0.930 . S
C313 C311 1.419 . S
C313 C314 1.362 . S
C314 H306 0.930 . S
C314 C313 1.362 . S
C314 C317 1.409 1_455 S
C315 H307 0.930 . S
C315 C316 1.355 . S
C315 C317 1.415 . S
C316 C315 1.355 . S
C316 C318 1.419 . S
C317 C312 1.425 1_655 S
C317 C314 1.409 1_655 S
C317 C315 1.415 . S
C318 H308 0.930 . S
C318 C316 1.419 . S
C318 C319 1.362 . S
C319 H309 0.930 . S
C319 C312 1.409 1_655 S
C319 C318 1.362 . S
H320 C326 0.930 . S
H321 C329 0.930 . S
H322 C330 0.930 . S
H323 C331 0.930 . S
H324 C334 0.930 . S
H325 C335 0.930 . S
C326 H320 0.930 . S
C326 C327 1.355 . S
C326 C328 1.415 . S
C327 C326 1.355 . S
C327 C329 1.419 . S
C328 C326 1.415 . S
C328 C333 1.425 . S
C328 C335 1.409 . S
C329 H321 0.930 . S
C329 C327 1.419 . S
C329 C330 1.362 . S
C330 H322 0.930 . S
C330 C329 1.362 . S
C330 C333 1.409 . S
C331 H323 0.930 . S
C331 C332 1.355 . S
C331 C333 1.415 . S
C332 C331 1.355 . S
C332 C334 1.419 . S
C333 C328 1.425 . S
C333 C330 1.409 . S
C333 C331 1.415 . S
C334 H324 0.930 . S
C334 C332 1.419 . S
C334 C335 1.362 . S
C335 H325 0.930 . S
C335 C328 1.409 . S
C335 C334 1.362 . S
H336 C342 0.930 . S
H337 C345 0.930 . S
H338 C346 0.930 . S
H339 C347 0.930 . S
H340 C350 0.930 . S
H341 C351 0.930 . S
C342 H336 0.930 . S
C342 C343 1.355 . S
C342 C344 1.415 . S
C343 C342 1.355 . S
C343 C345 1.419 . S
C344 C342 1.415 . S
C344 C349 1.425 . S
C344 C351 1.409 . S
C345 H337 0.930 . S
C345 C343 1.419 . S
C345 C346 1.362 . S
C346 H338 0.930 . S
C346 C345 1.362 . S
C346 C349 1.409 . S
C347 H339 0.930 . S
C347 C348 1.355 . S
C347 C349 1.415 . S
C348 C347 1.355 . S
C348 C350 1.419 . S
C349 C344 1.425 . S
C349 C346 1.409 . S
C349 C347 1.415 . S
C350 H340 0.930 . S
C350 C348 1.419 . S
C350 C351 1.362 . S
C351 H341 0.930 . S
C351 C344 1.409 . S
C351 C350 1.362 . S
H352 C358 0.930 . S
H353 C361 0.930 . S
H354 C362 0.930 . S
H355 C363 0.930 1_455 S
H356 C366 0.930 . S
H357 C367 0.930 . S
C358 H352 0.930 . S
C358 C359 1.355 . S
C358 C360 1.415 . S
C359 C358 1.355 . S
C359 C361 1.419 . S
C360 C358 1.415 . S
C360 C365 1.425 . S
C360 C367 1.409 . S
C361 H353 0.930 . S
C361 C359 1.419 . S
C361 C362 1.362 . S
C362 H354 0.930 . S
C362 C361 1.362 . S
C362 C365 1.409 . S
C363 H355 0.930 1_655 S
C363 C364 1.355 1_655 S
C363 C365 1.415 . S
C364 C363 1.355 1_455 S
C364 C366 1.419 . S
C365 C360 1.425 . S
C365 C362 1.409 . S
C365 C363 1.415 . S
C366 H356 0.930 . S
C366 C364 1.419 . S
C366 C367 1.362 1_455 S
C367 H357 0.930 . S
C367 C360 1.409 . S
C367 C366 1.362 1_655 S
H368 C374 0.930 1_565 S
H369 C377 0.930 . S
H370 C378 0.930 . S
H371 C379 0.930 . S
H372 C382 0.930 . S
H373 C383 0.930 . S
C374 H368 0.930 1_545 S
C374 C375 1.355 1_545 S
C374 C376 1.415 . S
C375 C374 1.355 1_565 S
C375 C377 1.419 1_565 S
C376 C374 1.415 . S
C376 C381 1.425 . S
C376 C383 1.409 . S
C377 H369 0.930 . S
C377 C375 1.419 1_545 S
C377 C378 1.362 . S
C378 H370 0.930 . S
C378 C377 1.362 . S
C378 C381 1.409 . S
C379 H371 0.930 . S
C379 C380 1.355 . S
C379 C381 1.415 . S
C380 C379 1.355 . S
C380 C382 1.419 . S
C381 C376 1.425 . S
C381 C378 1.409 . S
C381 C379 1.415 . S
C382 H372 0.930 . S
C382 C380 1.419 . S
C382 C383 1.362 . S
C383 H373 0.930 . S
C383 C376 1.409 . S
C383 C382 1.362 . S
H384 C390 0.930 . S
H385 C393 0.930 . S
H386 C394 0.930 . S
H387 C395 0.930 . S
H388 C398 0.930 . S
H389 C399 0.930 . S
C390 H384 0.930 . S
C390 C391 1.355 . S
C390 C392 1.415 1_565 S
C391 C390 1.355 . S
C391 C393 1.419 1_565 S
C392 C390 1.415 1_545 S
C392 C397 1.425 . S
C392 C399 1.409 1_545 S
C393 H385 0.930 . S
C393 C391 1.419 1_545 S
C393 C394 1.362 . S
C394 H386 0.930 . S
C394 C393 1.362 . S
C394 C397 1.409 . S
C395 H387 0.930 . S
C395 C396 1.355 . S
C395 C397 1.415 . S
C396 C395 1.355 . S
C396 C398 1.419 . S
C397 C392 1.425 . S
C397 C394 1.409 . S
C397 C395 1.415 . S
C398 H388 0.930 . S
C398 C396 1.419 . S
C398 C399 1.362 1_545 S
C399 H389 0.930 . S
C399 C392 1.409 1_565 S
C399 C398 1.362 1_565 S
H400 C406 0.930 . S
H401 C409 0.930 . S
H402 C410 0.930 . S
H403 C411 0.930 . S
H404 C414 0.930 . S
H405 C415 0.930 . S
C406 H400 0.930 . S
C406 C407 1.355 . S
C406 C408 1.415 . S
C407 C406 1.355 . S
C407 C409 1.419 . S
C408 C406 1.415 . S
C408 C413 1.425 . S
C408 C415 1.409 . S
C409 H401 0.930 . S
C409 C407 1.419 . S
C409 C410 1.362 . S
C410 H402 0.930 . S
C410 C409 1.362 . S
C410 C413 1.409 . S
C411 H403 0.930 . S
C411 C412 1.355 . S
C411 C413 1.415 . S
C412 C411 1.355 . S
C412 C414 1.419 . S
C413 C408 1.425 . S
C413 C410 1.409 . S
C413 C411 1.415 . S
C414 H404 0.930 . S
C414 C412 1.419 . S
C414 C415 1.362 . S
C415 H405 0.930 . S
C415 C408 1.409 . S
C415 C414 1.362 . S
H416 C422 0.930 . S
H417 C425 0.930 . S
H418 C426 0.930 . S
H419 C427 0.930 . S
H420 C430 0.930 . S
H421 C431 0.930 . S
C422 H416 0.930 . S
C422 C423 1.355 . S
C422 C424 1.415 . S
C423 C422 1.355 . S
C423 C425 1.419 . S
C424 C422 1.415 . S
C424 C429 1.425 . S
C424 C431 1.409 1_455 S
C425 H417 0.930 . S
C425 C423 1.419 . S
C425 C426 1.362 . S
C426 H418 0.930 . S
C426 C425 1.362 . S
C426 C429 1.409 . S
C427 H419 0.930 . S
C427 C428 1.355 1_455 S
C427 C429 1.415 . S
C428 C427 1.355 1_655 S
C428 C430 1.419 . S
C429 C424 1.425 . S
C429 C426 1.409 . S
C429 C427 1.415 . S
C430 H420 0.930 . S
C430 C428 1.419 . S
C430 C431 1.362 . S
C431 H421 0.930 . S
C431 C424 1.409 1_655 S
C431 C430 1.362 . S
H432 C438 0.930 . S
H433 C441 0.930 . S
H434 C442 0.930 . S
H435 C443 0.930 . S
H436 C446 0.930 . S
H437 C447 0.930 . S
C438 H432 0.930 . S
C438 C439 1.355 . S
C438 C440 1.415 . S
C439 C438 1.355 . S
C439 C441 1.419 . S
C440 C438 1.415 . S
C440 C445 1.425 . S
C440 C447 1.409 . S
C441 H433 0.930 . S
C441 C439 1.419 . S
C441 C442 1.362 . S
C442 H434 0.930 . S
C442 C441 1.362 . S
C442 C445 1.409 . S
C443 H435 0.930 . S
C443 C444 1.355 . S
C443 C445 1.415 . S
C444 C443 1.355 . S
C444 C446 1.419 . S
C445 C440 1.425 . S
C445 C442 1.409 . S
C445 C443 1.415 . S
C446 H436 0.930 . S
C446 C444 1.419 . S
C446 C447 1.362 . S
C447 H437 0.930 . S
C447 C440 1.409 . S
C447 C446 1.362 . S
H448 C454 0.930 . S
H449 C457 0.930 . S
H450 C458 0.930 . S
H451 C459 0.930 . S
H452 C462 0.930 . S
H453 C463 0.930 . S
C454 H448 0.930 . S
C454 C455 1.355 . S
C454 C456 1.415 . S
C455 C454 1.355 . S
C455 C457 1.419 . S
C456 C454 1.415 . S
C456 C461 1.425 . S
C456 C463 1.409 . S
C457 H449 0.930 . S
C457 C455 1.419 . S
C457 C458 1.362 . S
C458 H450 0.930 . S
C458 C457 1.362 . S
C458 C461 1.409 . S
C459 H451 0.930 . S
C459 C460 1.355 . S
C459 C461 1.415 . S
C460 C459 1.355 . S
C460 C462 1.419 . S
C461 C456 1.425 . S
C461 C458 1.409 . S
C461 C459 1.415 . S
C462 H452 0.930 . S
C462 C460 1.419 . S
C462 C463 1.362 . S
C463 H453 0.930 . S
C463 C456 1.409 . S
C463 C462 1.362 . S
H464 C470 0.930 . S
H465 C473 0.930 . S
H466 C474 0.930 . S
H467 C475 0.930 . S
H468 C478 0.930 . S
H469 C479 0.930 . S
C470 H464 0.930 . S
C470 C471 1.355 . S
C470 C472 1.415 . S
C471 C470 1.355 . S
C471 C473 1.419 . S
C472 C470 1.415 . S
C472 C477 1.425 . S
C472 C479 1.409 . S
C473 H465 0.930 . S
C473 C471 1.419 . S
C473 C474 1.362 . S
C474 H466 0.930 . S
C474 C473 1.362 . S
C474 C477 1.409 . S
C475 H467 0.930 . S
C475 C476 1.355 . S
C475 C477 1.415 . S
C476 C475 1.355 . S
C476 C478 1.419 . S
C477 C472 1.425 . S
C477 C474 1.409 . S
C477 C475 1.415 . S
C478 H468 0.930 . S
C478 C476 1.419 . S
C478 C479 1.362 . S
C479 H469 0.930 . S
C479 C472 1.409 . S
C479 C478 1.362 . S
H480 C486 0.930 . S
H481 C489 0.930 . S
H482 C490 0.930 . S
H483 C491 0.930 . S
H484 C494 0.930 . S
H485 C495 0.930 . S
C486 H480 0.930 . S
C486 C487 1.355 . S
C486 C488 1.415 . S
C487 C486 1.355 . S
C487 C489 1.419 . S
C488 C486 1.415 . S
C488 C493 1.425 . S
C488 C495 1.409 . S
C489 H481 0.930 . S
C489 C487 1.419 . S
C489 C490 1.362 . S
C490 H482 0.930 . S
C490 C489 1.362 . S
C490 C493 1.409 . S
C491 H483 0.930 . S
C491 C492 1.355 . S
C491 C493 1.415 . S
C492 C491 1.355 . S
C492 C494 1.419 . S
C493 C488 1.425 . S
C493 C490 1.409 . S
C493 C491 1.415 . S
C494 H484 0.930 . S
C494 C492 1.419 . S
C494 C495 1.362 . S
C495 H485 0.930 . S
C495 C488 1.409 . S
C495 C494 1.362 . S
H496 C502 0.930 . S
H497 C505 0.930 . S
H498 C506 0.930 . S
H499 C507 0.930 . S
H500 C510 0.930 . S
H501 C511 0.930 . S
C502 H496 0.930 . S
C502 C503 1.355 . S
C502 C504 1.415 . S
C503 C502 1.355 . S
C503 C505 1.419 . S
C504 C502 1.415 . S
C504 C509 1.425 . S
C504 C511 1.409 . S
C505 H497 0.930 . S
C505 C503 1.419 . S
C505 C506 1.362 . S
C506 H498 0.930 . S
C506 C505 1.362 . S
C506 C509 1.409 . S
C507 H499 0.930 . S
C507 C508 1.355 . S
C507 C509 1.415 . S
C508 C507 1.355 . S
C508 C510 1.419 . S
C509 C504 1.425 . S
C509 C506 1.409 . S
C509 C507 1.415 . S
C510 H500 0.930 . S
C510 C508 1.419 . S
C510 C511 1.362 . S
C511 H501 0.930 . S
C511 C504 1.409 . S
C511 C510 1.362 . S
H512 C518 0.930 . S
H513 C521 0.930 . S
H514 C522 0.930 . S
H515 C523 0.930 . S
H516 C526 0.930 1_545 S
H517 C527 0.930 1_545 S
C518 H512 0.930 . S
C518 C519 1.355 . S
C518 C520 1.415 . S
C519 C518 1.355 . S
C519 C521 1.419 . S
C520 C518 1.415 . S
C520 C525 1.425 . S
C520 C527 1.409 . S
C521 H513 0.930 . S
C521 C519 1.419 . S
C521 C522 1.362 . S
C522 H514 0.930 . S
C522 C521 1.362 . S
C522 C525 1.409 . S
C523 H515 0.930 . S
C523 C524 1.355 . S
C523 C525 1.415 . S
C524 C523 1.355 . S
C524 C526 1.419 . S
C525 C520 1.425 . S
C525 C522 1.409 . S
C525 C523 1.415 . S
C526 H516 0.930 1_565 S
C526 C524 1.419 . S
C526 C527 1.362 . S
C527 H517 0.930 1_565 S
C527 C520 1.409 . S
C527 C526 1.362 . S
C247 C122 0.806 . S
C252 C2 0.753 . S
C263 C162 0.750 1_545 S
C268 C42 0.822 . S
C279 C202 0.805 . S
C284 C82 0.849 . S
C295 C26 0.985 . S
C300 C97 0.975 . S
C311 C57 0.785 . S
C316 C146 0.895 . S
C327 C106 0.880 . S
C332 C177 0.901 . S
C343 C137 0.921 . S
C348 C226 0.918 . S
C359 C186 0.974 . S
C364 C17 0.974 . S
C375 C217 0.719 . S
C380 C66 0.794 . S
C391 C23 0.573 . S
C396 C143 0.556 . S
C407 C63 0.595 . S
C412 C183 0.628 . S
C423 C103 0.614 . S
C428 C223 0.727 1_655 S
C439 C24 4.199 . S
C444 C64 4.197 . S
C455 C53 4.010 . S
C460 C93 3.969 . S
C471 C104 4.197 1_655 S
C476 C144 4.196 . S
C487 C133 4.015 1_565 S
C492 C173 3.969 . S
C503 C184 4.197 . S
C508 C224 4.196 . S
C519 C213 4.012 . S
C524 C13 3.969 . S
