# Generated by pormake.
# Topology acs-a, (4)-cn, num edge types: 1
# Building blocks:
#     Node 0, Type 0, BuildingBlock: TATPOV_clean_sbu_0, # of connection points: 4
#     Node 1, Type 0, BuildingBlock: TATPOV_clean_sbu_0, # of connection points: 4
#     Node 2, Type 0, BuildingBlock: TATPOV_clean_sbu_0, # of connection points: 4
#     Node 3, Type 0, BuildingBlock: TATPOV_clean_sbu_0, # of connection points: 4
#     Node 4, Type 0, BuildingBlock: TATPOV_clean_sbu_0, # of connection points: 4
#     Node 5, Type 0, BuildingBlock: TATPOV_clean_sbu_0, # of connection points: 4
#     Node 6, Type 0, BuildingBlock: TATPOV_clean_sbu_0, # of connection points: 4
#     Node 7, Type 0, BuildingBlock: TATPOV_clean_sbu_0, # of connection points: 4
#     Node 8, Type 0, BuildingBlock: TATPOV_clean_sbu_0, # of connection points: 4
#     Node 9, Type 0, BuildingBlock: TATPOV_clean_sbu_0, # of connection points: 4
#     Node 10, Type 0, BuildingBlock: TATPOV_clean_sbu_0, # of connection points: 4
#     Node 11, Type 0, BuildingBlock: TATPOV_clean_sbu_0, # of connection points: 4
#     Edge 12, Type (0, 0), BuildingBlock: OJICUG_clean_linker_0, # of connection points: 2
#     Edge 13, Type (0, 0), BuildingBlock: OJICUG_clean_linker_0, # of connection points: 2
#     Edge 14, Type (0, 0), BuildingBlock: OJICUG_clean_linker_0, # of connection points: 2
#     Edge 15, Type (0, 0), BuildingBlock: OJICUG_clean_linker_0, # of connection points: 2
#     Edge 16, Type (0, 0), BuildingBlock: OJICUG_clean_linker_0, # of connection points: 2
#     Edge 17, Type (0, 0), BuildingBlock: OJICUG_clean_linker_0, # of connection points: 2
#     Edge 18, Type (0, 0), BuildingBlock: OJICUG_clean_linker_0, # of connection points: 2
#     Edge 19, Type (0, 0), BuildingBlock: OJICUG_clean_linker_0, # of connection points: 2
#     Edge 20, Type (0, 0), BuildingBlock: OJICUG_clean_linker_0, # of connection points: 2
#     Edge 21, Type (0, 0), BuildingBlock: OJICUG_clean_linker_0, # of connection points: 2
#     Edge 22, Type (0, 0), BuildingBlock: OJICUG_clean_linker_0, # of connection points: 2
#     Edge 23, Type (0, 0), BuildingBlock: OJICUG_clean_linker_0, # of connection points: 2
#     Edge 24, Type (0, 0), BuildingBlock: OJICUG_clean_linker_0, # of connection points: 2
#     Edge 25, Type (0, 0), BuildingBlock: OJICUG_clean_linker_0, # of connection points: 2
#     Edge 26, Type (0, 0), BuildingBlock: OJICUG_clean_linker_0, # of connection points: 2
#     Edge 27, Type (0, 0), BuildingBlock: OJICUG_clean_linker_0, # of connection points: 2
#     Edge 28, Type (0, 0), BuildingBlock: OJICUG_clean_linker_0, # of connection points: 2
#     Edge 29, Type (0, 0), BuildingBlock: OJICUG_clean_linker_0, # of connection points: 2
#     Edge 30, Type (0, 0), BuildingBlock: OJICUG_clean_linker_0, # of connection points: 2
#     Edge 31, Type (0, 0), BuildingBlock: OJICUG_clean_linker_0, # of connection points: 2
#     Edge 32, Type (0, 0), BuildingBlock: OJICUG_clean_linker_0, # of connection points: 2
#     Edge 33, Type (0, 0), BuildingBlock: OJICUG_clean_linker_0, # of connection points: 2
#     Edge 34, Type (0, 0), BuildingBlock: OJICUG_clean_linker_0, # of connection points: 2
#     Edge 35, Type (0, 0), BuildingBlock: OJICUG_clean_linker_0, # of connection points: 2
# Relax obj value: 0.361
# Max RMSD: 0.184
# Mean RMSD: 0.179
data_MOF--net-acs-a--node1-TATPOV_clean_sbu_0--edge1-OJICUG_clean_linker_0
_symmetry_space_group_name_H-M    P1
_symmetry_Int_Tables_number       1
_symmetry_cell_setting            triclinic
loop_
_symmetry_equiv_pos_as_xyz
'x, y, z'
_cell_length_a     33.657808
_cell_length_b     33.638465
_cell_length_c     33.442244
_cell_angle_alpha  90.095144
_cell_angle_beta   89.945417
_cell_angle_gamma 114.99671
loop_
_atom_site_label
_atom_site_type_symbol
_atom_site_fract_x
_atom_site_fract_y
_atom_site_fract_z
_atom_type_partial_charge
Zn0 Zn 0.62914 0.1954 0.03196 0.0
Zn1 Zn 0.58264 0.11709 0.03745 0.0
O2 O 0.64694 0.13314 0.01699 0.0
O3 O 0.67053 0.19707 0.98835 0.0
O4 O 0.54538 0.05528 0.01907 0.0
O5 O 0.64381 0.18378 0.09011 0.0
O6 O 0.5921 0.11658 0.09693 0.0
C7 C 0.67754 0.16451 -0.00141 0.0
C8 C 0.54712 0.18876 0.02175 0.0
O9 O 0.54155 0.14934 0.02812 0.0
O10 O 0.58548 0.2189 0.02071 0.0
C11 C 0.53511 0.05056 0.98223 0.0
O12 O 0.55113 0.08511 0.95882 0.0
C13 C 0.62407 0.14969 0.11145 0.0
Zn14 Zn 0.50377 0.67524 0.65662 0.0
Zn15 Zn 0.46817 0.61917 0.60055 0.0
O16 O 0.50602 0.68097 0.57896 0.0
O17 O 0.54628 0.72669 0.62476 0.0
O18 O 0.46525 0.58047 0.55366 0.0
O19 O 0.52071 0.63699 0.69305 0.0
O20 O 0.48056 0.58869 0.64897 0.0
C21 C 0.53383 0.7193 0.58873 0.0
C22 C 0.407 0.64654 0.63738 0.0
O23 O 0.40997 0.62073 0.61081 0.0
O24 O 0.44027 0.66983 0.65845 0.0
C25 C 0.46421 0.54236 0.55685 0.0
O26 O 0.45874 0.52397 0.59226 0.0
C27 C 0.50075 0.59736 0.68224 0.0
Zn28 Zn 0.79026 0.2633 0.16961 0.0
Zn29 Zn 0.83844 0.33332 0.13731 0.0
O30 O 0.78587 0.34734 0.13289 0.0
O31 O 0.74204 0.28415 0.15963 0.0
O32 O 0.88976 0.38417 0.11338 0.0
O33 O 0.81551 0.2728 0.2241 0.0
O34 O 0.85428 0.33765 0.19835 0.0
C35 C 0.74784 0.32078 0.14441 0.0
C36 C 0.81031 0.23921 0.09879 0.0
O37 O 0.8263 0.28108 0.09754 0.0
O38 O 0.79661 0.22024 0.13186 0.0
C39 C 0.89006 0.39827 0.07809 0.0
O40 O 0.85508 0.37941 0.05553 0.0
C41 C 0.84266 0.31226 0.22868 0.0
Zn42 Zn 0.37857 0.81326 0.53406 0.0
Zn43 Zn 0.42383 0.89156 0.53949 0.0
O44 O 0.35973 0.87426 0.51789 0.0
O45 O 0.33754 0.81013 0.48967 0.0
O46 O 0.46072 0.95293 0.52022 0.0
O47 O 0.36273 0.82535 0.59181 0.0
O48 O 0.41327 0.89316 0.59857 0.0
C49 C 0.3298 0.84247 0.49926 0.0
C50 C 0.46102 0.82069 0.52663 0.0
O51 O 0.46583 0.85993 0.53274 0.0
O52 O 0.42291 0.79025 0.52427 0.0
C53 C 0.47177 0.95643 0.48358 0.0
O54 O 0.4567 0.92101 0.46113 0.0
C55 C 0.38154 0.85981 0.61299 0.0
Zn56 Zn 0.49947 0.33142 0.14771 0.0
Zn57 Zn 0.53715 0.38898 0.09551 0.0
O58 O 0.49976 0.32833 0.07071 0.0
O59 O 0.45693 0.28155 0.11448 0.0
O60 O 0.53994 0.43266 0.05319 0.0
O61 O 0.48246 0.36671 0.18761 0.0
O62 O 0.52721 0.41663 0.14726 0.0
C63 C 0.47117 0.28983 0.07902 0.0
C64 C 0.59658 0.35895 0.12929 0.0
O65 O 0.59504 0.38637 0.10378 0.0
O66 O 0.56256 0.33544 0.14938 0.0
C67 C 0.50911 0.44489 0.05662 0.0
O68 O 0.48045 0.42828 0.08559 0.0
C69 C 0.50569 0.40669 0.17981 0.0
Zn70 Zn 0.21359 0.7438 0.66965 0.0
Zn71 Zn 0.16559 0.67363 0.63668 0.0
O72 O 0.21801 0.65904 0.63409 0.0
O73 O 0.26125 0.72159 0.66245 0.0
O74 O 0.11428 0.62257 0.61271 0.0
O75 O 0.18633 0.73538 0.72326 0.0
O76 O 0.14857 0.67029 0.69734 0.0
C77 C 0.25556 0.6849 0.64729 0.0
C78 C 0.19546 0.76738 0.59748 0.0
O79 O 0.17877 0.72548 0.59639 0.0
O80 O 0.20919 0.78652 0.6305 0.0
C81 C 0.11287 0.60917 0.57694 0.0
O82 O 0.14689 0.6289 0.55345 0.0
C83 C 0.15918 0.6959 0.7276 0.0
Zn84 Zn 0.80638 0.37939 0.46561 0.0
Zn85 Zn 0.88468 0.42622 0.4607 0.0
O86 O 0.86867 0.36222 0.48192 0.0
O87 O 0.80432 0.33857 0.5098 0.0
O88 O 0.94624 0.46383 0.47935 0.0
O89 O 0.81885 0.36411 0.40788 0.0
O90 O 0.88595 0.41606 0.40137 0.0
C91 C 0.83717 0.3317 0.50027 0.0
C92 C 0.81252 0.46149 0.47475 0.0
O93 O 0.85208 0.46721 0.46898 0.0
O94 O 0.78253 0.42303 0.4758 0.0
C95 C 0.95062 0.47489 0.51603 0.0
O96 O 0.91583 0.45957 0.53921 0.0
C97 C 0.85318 0.38378 0.38679 0.0
Zn98 Zn 0.26347 0.79038 0.82949 0.0
Zn99 Zn 0.33449 0.83718 0.86181 0.0
O100 O 0.34808 0.78408 0.86275 0.0
O101 O 0.2848 0.7419 0.83506 0.0
O102 O 0.38642 0.88767 0.88568 0.0
O103 O 0.27147 0.81848 0.77634 0.0
O104 O 0.33706 0.85521 0.80152 0.0
C105 C 0.32155 0.74684 0.84939 0.0
C106 C 0.24164 0.80811 0.90268 0.0
O107 O 0.2835 0.8242 0.9031 0.0
O108 O 0.22186 0.79507 0.86983 0.0
C109 C 0.39946 0.88904 0.92154 0.0
O110 O 0.37876 0.85544 0.94522 0.0
C111 C 0.31099 0.84535 0.77166 0.0
Zn112 Zn 0.67215 0.50683 0.34465 0.0
Zn113 Zn 0.61347 0.4694 0.39625 0.0
O114 O 0.67337 0.50739 0.42198 0.0
O115 O 0.72096 0.54983 0.37854 0.0
O116 O 0.56862 0.46609 0.43765 0.0
O117 O 0.63747 0.52325 0.30378 0.0
O118 O 0.58684 0.47901 0.34388 0.0
C119 C 0.71196 0.53602 0.41407 0.0
C120 C 0.64476 0.40999 0.3639 0.0
O121 O 0.61675 0.41167 0.38871 0.0
O122 O 0.6686 0.44387 0.3438 0.0
C123 C 0.5555 0.49622 0.43368 0.0
O124 O 0.572 0.52485 0.40469 0.0
C125 C 0.59737 0.50018 0.31119 0.0
Zn126 Zn 0.19418 0.62345 0.96236 0.0
Zn127 Zn 0.11559 0.57919 0.95798 0.0
O128 O 0.13421 0.64311 0.98079 0.0
O129 O 0.19873 0.66397 0.00773 0.0
O130 O 0.05434 0.54283 0.97784 0.0
O131 O 0.18145 0.64054 0.90541 0.0
O132 O 0.11324 0.59077 0.89921 0.0
C133 C 0.16659 0.67244 -0.00069 0.0
C134 C 0.18541 0.54031 0.96811 0.0
O135 O 0.14627 0.53618 0.96304 0.0
O136 O 0.21632 0.57817 0.97038 0.0
C137 C 0.05109 0.53148 0.01436 0.0
O138 O 0.08672 0.5459 0.03643 0.0
C139 C 0.14657 0.62244 0.8847 0.0
Zn140 Zn 0.7418 0.21626 0.32935 0.0
Zn141 Zn 0.67139 0.1684 0.36128 0.0
O142 O 0.65721 0.221 0.36437 0.0
O143 O 0.72065 0.26453 0.33787 0.0
O144 O 0.62021 0.1174 0.38519 0.0
O145 O 0.73316 0.19006 0.27521 0.0
O146 O 0.668 0.1516 0.30052 0.0
C147 C 0.68381 0.25888 0.35253 0.0
C148 C 0.76488 0.19741 0.40105 0.0
O149 O 0.72301 0.18125 0.40179 0.0
O150 O 0.78433 0.21074 0.36811 0.0
C151 C 0.60628 0.11707 0.42059 0.0
O152 O 0.62559 0.15185 0.44336 0.0
C153 C 0.69381 0.16277 0.27044 0.0
Zn154 Zn 0.32741 0.49696 0.83433 0.0
Zn155 Zn 0.38428 0.5312 0.88999 0.0
O156 O 0.32263 0.49354 0.91203 0.0
O157 O 0.27612 0.45434 0.86629 0.0
O158 O 0.42336 0.53336 0.93623 0.0
O159 O 0.36485 0.48007 0.79675 0.0
O160 O 0.41393 0.51919 0.84069 0.0
C161 C 0.28405 0.46622 0.90244 0.0
C162 C 0.35731 0.59357 0.85507 0.0
O163 O 0.38324 0.58985 0.881 0.0
O164 O 0.33346 0.56074 0.83375 0.0
C165 C 0.46102 0.53342 0.93253 0.0
O166 O 0.47871 0.5379 0.89686 0.0
C167 C 0.40464 0.49952 0.80714 0.0
C168 C 0.6314 0.12651 0.22181 0.0
C169 C 0.67636 0.15183 0.22915 0.0
H170 H 0.57928 0.10557 0.17841 0.0
C171 C 0.70381 0.17284 0.19674 0.0
H172 H 0.60932 0.11 0.24611 0.0
C173 C 0.68647 0.17143 0.1587 0.0
C174 C 0.64139 0.14805 0.15169 0.0
H175 H 0.73856 0.19238 0.20106 0.0
H176 H 0.70836 0.1893 0.13473 0.0
C177 C 0.61412 0.12423 0.1832 0.0
C178 C 0.50491 0.57224 0.75173 0.0
C179 C 0.48929 0.56198 0.7124 0.0
H180 H 0.49053 0.55861 0.81367 0.0
C181 C 0.45354 0.52134 0.70512 0.0
H182 H 0.53305 0.60267 0.75833 0.0
C183 C 0.42859 0.49628 0.73697 0.0
C184 C 0.43953 0.51125 0.77642 0.0
H185 H 0.44125 0.51167 0.67508 0.0
H186 H 0.39801 0.46831 0.73042 0.0
C187 C 0.48033 0.5468 0.78357 0.0
C188 C 0.87782 0.37539 0.2769 0.0
C189 C 0.85297 0.33026 0.26986 0.0
H190 H 0.89777 0.42806 0.31982 0.0
C191 C 0.8318 0.30309 0.30237 0.0
H192 H 0.89444 0.39728 0.25251 0.0
C193 C 0.83259 0.32083 0.34017 0.0
C194 C 0.85548 0.36606 0.34684 0.0
H195 H 0.81263 0.26821 0.29828 0.0
H196 H 0.81462 0.29912 0.36421 0.0
C197 C 0.87947 0.3931 0.31528 0.0
C198 C 0.30117 0.83538 0.69794 0.0
C199 C 0.32833 0.85683 0.73042 0.0
H200 H 0.29719 0.81883 0.63593 0.0
C201 C 0.37313 0.88298 0.72317 0.0
H202 H 0.26655 0.81509 0.7022 0.0
C203 C 0.39063 0.88563 0.68461 0.0
C204 C 0.36375 0.86134 0.65305 0.0
H205 H 0.39498 0.89984 0.74753 0.0
H206 H 0.4254 0.90489 0.67991 0.0
C207 C 0.31877 0.83715 0.65993 0.0
C208 C 0.52376 0.45183 0.28374 0.0
C209 C 0.56461 0.48794 0.27856 0.0
H210 H 0.47203 0.39725 0.25573 0.0
C211 C 0.57751 0.50432 0.23981 0.0
H212 H 0.51219 0.43897 0.31329 0.0
C213 C 0.55395 0.48066 0.20673 0.0
C214 C 0.51761 0.44 0.21201 0.0
H215 H 0.60823 0.53267 0.23481 0.0
H216 H 0.56734 0.4917 0.17722 0.0
C217 C 0.50056 0.42781 0.25067 0.0
C218 C 0.12175 0.63308 0.77543 0.0
C219 C 0.14821 0.67792 0.76868 0.0
H220 H 0.10003 0.58005 0.81788 0.0
C221 C 0.17045 0.70441 0.80129 0.0
H222 H 0.10429 0.61173 0.75096 0.0
C223 C 0.16911 0.68608 0.83885 0.0
C224 C 0.14459 0.64104 0.84518 0.0
H225 H 0.191 0.73904 0.79741 0.0
H226 H 0.18802 0.70714 0.86292 0.0
C227 C 0.11954 0.61486 0.81358 0.0
C228 C 0.49071 0.00394 0.92588 0.0
C229 C 0.50275 0.00798 0.96643 0.0
H230 H 0.44896 0.96343 0.87997 0.0
C231 C 0.48199 0.97172 0.9918 0.0
H232 H 0.50609 0.03114 0.90545 0.0
C233 C 0.44904 0.93271 0.97712 0.0
C234 C 0.43618 0.92917 0.93679 0.0
H235 H 0.49053 0.97372 0.02319 0.0
H236 H 0.43312 0.90564 0.99758 0.0
C237 C 0.45785 0.96505 0.91125 0.0
C238 C 0.48693 0.545 0.48554 0.0
C239 C 0.47931 0.52409 0.5229 0.0
H240 H 0.51669 0.55228 0.42804 0.0
C241 C 0.49194 0.48964 0.52881 0.0
H242 H 0.4772 0.57133 0.47983 0.0
C243 C 0.51489 0.47876 0.49902 0.0
C244 C 0.52547 0.50215 0.46287 0.0
H245 H 0.48638 0.47274 0.55724 0.0
H246 H 0.52618 0.45363 0.5051 0.0
C247 C 0.50978 0.53417 0.45588 0.0
C248 C 0.00636 0.48635 0.07118 0.0
C249 C 0.00883 0.4997 0.03111 0.0
H250 H 0.96712 0.44413 0.11739 0.0
C251 C 0.97121 0.48081 0.00699 0.0
H252 H 0.03465 0.50028 0.09065 0.0
C253 C 0.93232 0.44843 0.02238 0.0
C254 C 0.93027 0.43429 0.06219 0.0
H255 H 0.97201 0.4904 0.97599 0.0
H256 H 0.90412 0.43398 0.00287 0.0
C257 C 0.96758 0.45405 0.08653 0.0
C258 C 0.55611 0.07479 0.47629 0.0
C259 C 0.56995 0.07702 0.43634 0.0
H260 H 0.51405 0.03504 0.52262 0.0
C261 C 0.54958 0.04 0.4117 0.0
H262 H 0.57103 0.10276 0.49605 0.0
C263 C 0.51696 1.00132 0.42687 0.0
C264 C 0.5039 0.99865 0.46707 0.0
H265 H 0.55925 0.0406 0.38072 0.0
H266 H 0.50255 0.97325 0.40715 0.0
C267 C 0.52341 0.03599 0.49151 0.0
C268 C 0.45911 0.51178 0.00405 0.0
C269 C 0.47958 0.51877 0.96648 0.0
H270 H 0.45269 0.48325 0.06198 0.0
C271 C 0.51406 0.50617 0.96051 0.0
H272 H 0.43278 0.5215 0.00982 0.0
C273 C 0.52547 0.48398 0.99056 0.0
C274 C 0.50256 0.47409 0.02699 0.0
H275 H 0.53064 0.51126 0.93193 0.0
H276 H 0.55065 0.47273 0.9845 0.0
C277 C 0.47044 0.48966 0.03394 0.0
C278 C 0.02988 0.52683 0.50675 0.0
C279 C 0.99321 0.5071 0.53189 0.0
H280 H 0.09649 0.5745 0.50121 0.0
C281 C 0.99694 0.51991 0.57224 0.0
H282 H 0.02811 0.51768 0.47552 0.0
C283 C 0.03601 0.55243 0.58692 0.0
C284 C 0.07237 0.57298 0.56163 0.0
H285 H 0.96942 0.50534 0.59249 0.0
H286 H 0.03742 0.56188 0.61806 0.0
C287 C 0.06906 0.55944 0.52148 0.0
C288 C 0.47989 0.18615 0.05502 0.0
C289 C 0.51037 0.20174 0.02367 0.0
H290 H 0.44099 0.20213 0.09713 0.0
C291 C 0.5135 0.23881 0.00228 0.0
H292 H 0.47661 0.15742 0.07185 0.0
C293 C 0.49252 0.26413 0.0163 0.0
C294 C 0.46938 0.25347 0.05271 0.0
H295 H 0.53627 0.2511 0.97754 0.0
H296 H 0.49993 0.29532 0.00191 0.0
C297 C 0.45937 0.21191 0.06949 0.0
C298 C 0.32859 0.6286 0.61937 0.0
C299 C 0.3664 0.65303 0.64189 0.0
H300 H 0.26344 0.61933 0.60348 0.0
C301 C 0.36643 0.68644 0.66722 0.0
H302 H 0.32756 0.60268 0.59957 0.0
C303 C 0.33026 0.69627 0.66902 0.0
C304 C 0.29282 0.67265 0.6459 0.0
H305 H 0.3949 0.70597 0.68505 0.0
H306 H 0.33185 0.72273 0.68843 0.0
C307 C 0.29195 0.63818 0.62154 0.0
C308 C 0.76653 0.16803 0.06442 0.0
C309 C 0.79352 0.21329 0.06152 0.0
H310 H 0.70777 0.11507 0.04423 0.0
C311 C 0.79185 0.23498 0.02608 0.0
H312 H 0.7679 0.14974 0.09061 0.0
C313 C 0.75727 0.2148 -0.00091 0.0
C314 C 0.72379 0.17307 0.0077 0.0
H315 H 0.81309 0.26945 0.02203 0.0
H316 H 0.75314 0.23461 0.97534 0.0
C317 C 0.73188 0.14795 0.03752 0.0
C318 C 0.49662 0.77174 0.50934 0.0
C319 C 0.4979 0.80819 0.53072 0.0
H320 H 0.51061 0.7155 0.5101 0.0
C321 C 0.52591 0.82315 0.56389 0.0
H322 H 0.47574 0.75993 0.48329 0.0
C323 C 0.54549 0.79722 0.57979 0.0
C324 C 0.53706 0.75618 0.56255 0.0
H325 H 0.52769 0.85137 0.58079 0.0
H326 H 0.56169 0.80636 0.60852 0.0
C327 C 0.51673 0.74628 0.52479 0.0
C328 C 0.67604 0.37784 0.11485 0.0
C329 C 0.63655 0.35147 0.13422 0.0
H330 H 0.74263 0.38904 0.103 0.0
C331 C 0.63457 0.31584 0.15738 0.0
H332 H 0.67854 0.40548 0.09674 0.0
C333 C 0.67076 0.30621 0.16055 0.0
C334 C 0.71014 0.33219 0.14099 0.0
H335 H 0.60471 0.29467 0.17264 0.0
H336 H 0.66771 0.27819 0.17838 0.0
C337 C 0.71266 0.36842 0.11839 0.0
C338 C 0.21529 0.7711 0.52514 0.0
C339 C 0.21264 0.793 0.56019 0.0
H340 H 0.25523 0.7715 0.47529 0.0
C341 C 0.23906 0.83839 0.56298 0.0
H342 H 0.19452 0.73649 0.52118 0.0
C343 C 0.27412 0.85859 0.53653 0.0
C344 C 0.28322 0.83342 0.50732 0.0
H345 H 0.2369 0.85681 0.58885 0.0
H346 H 0.29776 0.89169 0.54324 0.0
C347 C 0.25031 0.79138 0.49861 0.0
C348 C 0.81543 0.52835 0.4406 0.0
C349 C 0.79933 0.49806 0.47202 0.0
H350 H 0.80006 0.56671 0.39757 0.0
C351 C 0.76173 0.49484 0.49262 0.0
H352 H 0.84457 0.53172 0.42439 0.0
C353 C 0.73649 0.51546 0.4777 0.0
C354 C 0.74782 0.53832 0.4412 0.0
H355 H 0.74903 0.47223 0.5174 0.0
H356 H 0.70497 0.50793 0.49147 0.0
C357 C 0.78978 0.54851 0.42525 0.0
C358 C 0.23882 0.78706 0.97459 0.0
C359 C 0.21655 0.79066 0.9402 0.0
H360 H 0.2386 0.74601 0.02336 0.0
C361 C 0.17103 0.76482 0.93794 0.0
H362 H 0.27357 0.80736 0.97816 0.0
C363 C 0.15085 0.72939 0.964 0.0
C364 C 0.17618 0.71934 0.99227 0.0
H365 H 0.15236 0.76772 0.91263 0.0
H366 H 0.11751 0.70623 0.95755 0.0
C367 C 0.21857 0.75167 0.00072 0.0
C368 C 0.6355 0.29418 0.37674 0.0
C369 C 0.67222 0.29655 0.35497 0.0
H370 H 0.59783 0.32836 0.39685 0.0
C371 C 0.69847 0.33574 0.33527 0.0
H372 H 0.61465 0.26436 0.39222 0.0
C373 C 0.68864 0.37189 0.33751 0.0
C374 C 0.6525 0.37005 0.35985 0.0
H375 H 0.72688 0.33868 0.31805 0.0
H376 H 0.71002 0.40161 0.3222 0.0
C377 C 0.62585 0.33075 0.37935 0.0
C378 C 0.23349 0.50333 0.98369 0.0
C379 C 0.19708 0.50297 0.96301 0.0
H380 H 0.28903 0.4883 0.9815 0.0
C381 C 0.18141 0.47549 0.92953 0.0
H382 H 0.24585 0.5238 0.00995 0.0
C383 C 0.20663 0.45556 0.91269 0.0
C384 C 0.24768 0.46312 0.9293 0.0
H385 H 0.15321 0.47443 0.91316 0.0
H386 H 0.19698 0.43982 0.8838 0.0
C387 C 0.25823 0.48287 0.9673 0.0
C388 C 0.83537 0.24206 0.43599 0.0
C389 C 0.79016 0.21482 0.43851 0.0
H390 H 0.8877 0.30134 0.45612 0.0
C391 C 0.76785 0.21678 0.47351 0.0
H392 H 0.85413 0.24049 0.41017 0.0
C393 C 0.78739 0.25179 0.50025 0.0
C394 C 0.8291 0.2854 0.49183 0.0
H395 H 0.73339 0.19539 0.47728 0.0
H396 H 0.76713 0.25607 0.52354 0.0
C397 C 0.85482 0.27713 0.46264 0.0
C398 C 0.37669 0.67205 0.87429 0.0
C399 C 0.3514 0.6346 0.85162 0.0
H400 H 0.38727 0.73735 0.8913 0.0
C401 C 0.31778 0.63537 0.82718 0.0
H402 H 0.4028 0.67245 0.89342 0.0
C403 C 0.3086 0.67199 0.8264 0.0
C404 C 0.3331 0.70908 0.84967 0.0
H405 H 0.2976 0.60719 0.80927 0.0
H406 H 0.28196 0.67102 0.80765 0.0
C407 C 0.36776 0.70913 0.87314 0.0
loop_
_geom_bond_atom_site_label_1
_geom_bond_atom_site_label_2
_geom_bond_distance
_geom_bond_site_symmetry_2
_ccdc_geom_bond_type
Zn0 O3 2.031 . S
Zn0 O5 2.049 . S
Zn0 O10 2.067 . S
Zn1 O2 1.962 . S
Zn1 O4 1.986 . S
Zn1 O6 1.996 . S
Zn1 O9 1.943 . S
O2 Zn1 1.962 . S
O2 C7 1.254 . S
O3 Zn0 2.031 . S
O3 C7 1.269 . S
O4 Zn1 1.986 . S
O4 C11 1.262 . S
O5 Zn0 2.049 . S
O5 C13 1.260 . S
O6 Zn1 1.996 . S
O6 C13 1.257 . S
C7 O2 1.254 . S
C7 O3 1.269 . S
C8 O9 1.249 . S
C8 O10 1.270 . S
O9 Zn1 1.943 . S
O9 C8 1.249 . S
O10 Zn0 2.067 . S
O10 C8 1.270 . S
C11 O4 1.262 . S
C11 O12 1.232 . S
O12 C11 1.232 . S
C13 O5 1.260 . S
C13 O6 1.257 . S
Zn14 O17 2.031 . S
Zn14 O19 2.049 . S
Zn14 O24 2.067 . S
Zn15 O16 1.962 . S
Zn15 O18 1.986 . S
Zn15 O20 1.996 . S
Zn15 O23 1.943 . S
O16 Zn15 1.962 . S
O16 C21 1.254 . S
O17 Zn14 2.031 . S
O17 C21 1.269 . S
O18 Zn15 1.986 . S
O18 C25 1.262 . S
O19 Zn14 2.049 . S
O19 C27 1.260 . S
O20 Zn15 1.996 . S
O20 C27 1.257 . S
C21 O16 1.254 . S
C21 O17 1.269 . S
C22 O23 1.249 . S
C22 O24 1.270 . S
O23 Zn15 1.943 . S
O23 C22 1.249 . S
O24 Zn14 2.067 . S
O24 C22 1.270 . S
C25 O18 1.262 . S
C25 O26 1.232 . S
O26 C25 1.232 . S
C27 O19 1.260 . S
C27 O20 1.257 . S
Zn28 O31 2.031 . S
Zn28 O33 2.049 . S
Zn28 O38 2.067 . S
Zn29 O30 1.962 . S
Zn29 O32 1.986 . S
Zn29 O34 1.996 . S
Zn29 O37 1.943 . S
O30 Zn29 1.962 . S
O30 C35 1.254 . S
O31 Zn28 2.031 . S
O31 C35 1.269 . S
O32 Zn29 1.986 . S
O32 C39 1.262 . S
O33 Zn28 2.049 . S
O33 C41 1.260 . S
O34 Zn29 1.996 . S
O34 C41 1.257 . S
C35 O30 1.254 . S
C35 O31 1.269 . S
C36 O37 1.249 . S
C36 O38 1.270 . S
O37 Zn29 1.943 . S
O37 C36 1.249 . S
O38 Zn28 2.067 . S
O38 C36 1.270 . S
C39 O32 1.262 . S
C39 O40 1.232 . S
O40 C39 1.232 . S
C41 O33 1.260 . S
C41 O34 1.257 . S
Zn42 O45 2.031 . S
Zn42 O47 2.049 . S
Zn42 O52 2.067 . S
Zn43 O44 1.962 . S
Zn43 O46 1.986 . S
Zn43 O48 1.996 . S
Zn43 O51 1.943 . S
O44 Zn43 1.962 . S
O44 C49 1.254 . S
O45 Zn42 2.031 . S
O45 C49 1.269 . S
O46 Zn43 1.986 . S
O46 C53 1.262 . S
O47 Zn42 2.049 . S
O47 C55 1.260 . S
O48 Zn43 1.996 . S
O48 C55 1.257 . S
C49 O44 1.254 . S
C49 O45 1.269 . S
C50 O51 1.249 . S
C50 O52 1.270 . S
O51 Zn43 1.943 . S
O51 C50 1.249 . S
O52 Zn42 2.067 . S
O52 C50 1.270 . S
C53 O46 1.262 . S
C53 O54 1.232 . S
O54 C53 1.232 . S
C55 O47 1.260 . S
C55 O48 1.257 . S
Zn56 O59 2.031 . S
Zn56 O61 2.049 . S
Zn56 O66 2.067 . S
Zn57 O58 1.962 . S
Zn57 O60 1.986 . S
Zn57 O62 1.996 . S
Zn57 O65 1.943 . S
O58 Zn57 1.962 . S
O58 C63 1.254 . S
O59 Zn56 2.031 . S
O59 C63 1.269 . S
O60 Zn57 1.986 . S
O60 C67 1.262 . S
O61 Zn56 2.049 . S
O61 C69 1.260 . S
O62 Zn57 1.996 . S
O62 C69 1.257 . S
C63 O58 1.254 . S
C63 O59 1.269 . S
C64 O65 1.249 . S
C64 O66 1.270 . S
O65 Zn57 1.943 . S
O65 C64 1.249 . S
O66 Zn56 2.067 . S
O66 C64 1.270 . S
C67 O60 1.262 . S
C67 O68 1.232 . S
O68 C67 1.232 . S
C69 O61 1.260 . S
C69 O62 1.257 . S
Zn70 O73 2.031 . S
Zn70 O75 2.049 . S
Zn70 O80 2.067 . S
Zn71 O72 1.962 . S
Zn71 O74 1.986 . S
Zn71 O76 1.996 . S
Zn71 O79 1.943 . S
O72 Zn71 1.962 . S
O72 C77 1.254 . S
O73 Zn70 2.031 . S
O73 C77 1.269 . S
O74 Zn71 1.986 . S
O74 C81 1.262 . S
O75 Zn70 2.049 . S
O75 C83 1.260 . S
O76 Zn71 1.996 . S
O76 C83 1.257 . S
C77 O72 1.254 . S
C77 O73 1.269 . S
C78 O79 1.249 . S
C78 O80 1.270 . S
O79 Zn71 1.943 . S
O79 C78 1.249 . S
O80 Zn70 2.067 . S
O80 C78 1.270 . S
C81 O74 1.262 . S
C81 O82 1.232 . S
O82 C81 1.232 . S
C83 O75 1.260 . S
C83 O76 1.257 . S
Zn84 O87 2.031 . S
Zn84 O89 2.049 . S
Zn84 O94 2.067 . S
Zn85 O86 1.962 . S
Zn85 O88 1.986 . S
Zn85 O90 1.996 . S
Zn85 O93 1.943 . S
O86 Zn85 1.962 . S
O86 C91 1.254 . S
O87 Zn84 2.031 . S
O87 C91 1.269 . S
O88 Zn85 1.986 . S
O88 C95 1.262 . S
O89 Zn84 2.049 . S
O89 C97 1.260 . S
O90 Zn85 1.996 . S
O90 C97 1.257 . S
C91 O86 1.254 . S
C91 O87 1.269 . S
C92 O93 1.249 . S
C92 O94 1.270 . S
O93 Zn85 1.943 . S
O93 C92 1.249 . S
O94 Zn84 2.067 . S
O94 C92 1.270 . S
C95 O88 1.262 . S
C95 O96 1.232 . S
O96 C95 1.232 . S
C97 O89 1.260 . S
C97 O90 1.257 . S
Zn98 O101 2.031 . S
Zn98 O103 2.049 . S
Zn98 O108 2.067 . S
Zn99 O100 1.962 . S
Zn99 O102 1.986 . S
Zn99 O104 1.996 . S
Zn99 O107 1.943 . S
O100 Zn99 1.962 . S
O100 C105 1.254 . S
O101 Zn98 2.031 . S
O101 C105 1.269 . S
O102 Zn99 1.986 . S
O102 C109 1.262 . S
O103 Zn98 2.049 . S
O103 C111 1.260 . S
O104 Zn99 1.996 . S
O104 C111 1.257 . S
C105 O100 1.254 . S
C105 O101 1.269 . S
C106 O107 1.249 . S
C106 O108 1.270 . S
O107 Zn99 1.943 . S
O107 C106 1.249 . S
O108 Zn98 2.067 . S
O108 C106 1.270 . S
C109 O102 1.262 . S
C109 O110 1.232 . S
O110 C109 1.232 . S
C111 O103 1.260 . S
C111 O104 1.257 . S
Zn112 O115 2.031 . S
Zn112 O117 2.049 . S
Zn112 O122 2.067 . S
Zn113 O114 1.962 . S
Zn113 O116 1.986 . S
Zn113 O118 1.996 . S
Zn113 O121 1.943 . S
O114 Zn113 1.962 . S
O114 C119 1.254 . S
O115 Zn112 2.031 . S
O115 C119 1.269 . S
O116 Zn113 1.986 . S
O116 C123 1.262 . S
O117 Zn112 2.049 . S
O117 C125 1.260 . S
O118 Zn113 1.996 . S
O118 C125 1.257 . S
C119 O114 1.254 . S
C119 O115 1.269 . S
C120 O121 1.249 . S
C120 O122 1.270 . S
O121 Zn113 1.943 . S
O121 C120 1.249 . S
O122 Zn112 2.067 . S
O122 C120 1.270 . S
C123 O116 1.262 . S
C123 O124 1.232 . S
O124 C123 1.232 . S
C125 O117 1.260 . S
C125 O118 1.257 . S
Zn126 O129 2.031 . S
Zn126 O131 2.049 . S
Zn126 O136 2.067 . S
Zn127 O128 1.962 . S
Zn127 O130 1.986 . S
Zn127 O132 1.996 . S
Zn127 O135 1.943 . S
O128 Zn127 1.962 . S
O128 C133 1.254 . S
O129 Zn126 2.031 . S
O129 C133 1.269 . S
O130 Zn127 1.986 . S
O130 C137 1.262 . S
O131 Zn126 2.049 . S
O131 C139 1.260 . S
O132 Zn127 1.996 . S
O132 C139 1.257 . S
C133 O128 1.254 . S
C133 O129 1.269 . S
C134 O135 1.249 . S
C134 O136 1.270 . S
O135 Zn127 1.943 . S
O135 C134 1.249 . S
O136 Zn126 2.067 . S
O136 C134 1.270 . S
C137 O130 1.262 . S
C137 O138 1.232 . S
O138 C137 1.232 . S
C139 O131 1.260 . S
C139 O132 1.257 . S
Zn140 O143 2.031 . S
Zn140 O145 2.049 . S
Zn140 O150 2.067 . S
Zn141 O142 1.962 . S
Zn141 O144 1.986 . S
Zn141 O146 1.996 . S
Zn141 O149 1.943 . S
O142 Zn141 1.962 . S
O142 C147 1.254 . S
O143 Zn140 2.031 . S
O143 C147 1.269 . S
O144 Zn141 1.986 . S
O144 C151 1.262 . S
O145 Zn140 2.049 . S
O145 C153 1.260 . S
O146 Zn141 1.996 . S
O146 C153 1.257 . S
C147 O142 1.254 . S
C147 O143 1.269 . S
C148 O149 1.249 . S
C148 O150 1.270 . S
O149 Zn141 1.943 . S
O149 C148 1.249 . S
O150 Zn140 2.067 . S
O150 C148 1.270 . S
C151 O144 1.262 . S
C151 O152 1.232 . S
O152 C151 1.232 . S
C153 O145 1.260 . S
C153 O146 1.257 . S
Zn154 O157 2.031 . S
Zn154 O159 2.049 . S
Zn154 O164 2.067 . S
Zn155 O156 1.962 . S
Zn155 O158 1.986 . S
Zn155 O160 1.996 . S
Zn155 O163 1.943 . S
O156 Zn155 1.962 . S
O156 C161 1.254 . S
O157 Zn154 2.031 . S
O157 C161 1.269 . S
O158 Zn155 1.986 . S
O158 C165 1.262 . S
O159 Zn154 2.049 . S
O159 C167 1.260 . S
O160 Zn155 1.996 . S
O160 C167 1.257 . S
C161 O156 1.254 . S
C161 O157 1.269 . S
C162 O163 1.249 . S
C162 O164 1.270 . S
O163 Zn155 1.943 . S
O163 C162 1.249 . S
O164 Zn154 2.067 . S
O164 C162 1.270 . S
C165 O158 1.262 . S
C165 O166 1.232 . S
O166 C165 1.232 . S
C167 O159 1.260 . S
C167 O160 1.257 . S
C168 C169 1.387 . S
C168 H172 0.950 . S
C168 C177 1.390 . S
C169 C168 1.387 . S
C169 C171 1.387 . S
H170 C177 0.950 . S
C171 C169 1.387 . S
C171 C173 1.390 . S
C171 H175 0.950 . S
H172 C168 0.950 . S
C173 C171 1.390 . S
C173 C174 1.387 . S
C173 H176 0.950 . S
C174 C173 1.387 . S
C174 C177 1.387 . S
H175 C171 0.950 . S
H176 C173 0.950 . S
C177 C168 1.390 . S
C177 H170 0.950 . S
C177 C174 1.387 . S
C178 C179 1.387 . S
C178 H182 0.950 . S
C178 C187 1.390 . S
C179 C178 1.387 . S
C179 C181 1.387 . S
H180 C187 0.950 . S
C181 C179 1.387 . S
C181 C183 1.390 . S
C181 H185 0.950 . S
H182 C178 0.950 . S
C183 C181 1.390 . S
C183 C184 1.387 . S
C183 H186 0.950 . S
C184 C183 1.387 . S
C184 C187 1.387 . S
H185 C181 0.950 . S
H186 C183 0.950 . S
C187 C178 1.390 . S
C187 H180 0.950 . S
C187 C184 1.387 . S
C188 C189 1.387 . S
C188 H192 0.950 . S
C188 C197 1.390 . S
C189 C188 1.387 . S
C189 C191 1.387 . S
H190 C197 0.950 . S
C191 C189 1.387 . S
C191 C193 1.390 . S
C191 H195 0.950 . S
H192 C188 0.950 . S
C193 C191 1.390 . S
C193 C194 1.387 . S
C193 H196 0.950 . S
C194 C193 1.387 . S
C194 C197 1.387 . S
H195 C191 0.950 . S
H196 C193 0.950 . S
C197 C188 1.390 . S
C197 H190 0.950 . S
C197 C194 1.387 . S
C198 C199 1.387 . S
C198 H202 0.950 . S
C198 C207 1.390 . S
C199 C198 1.387 . S
C199 C201 1.387 . S
H200 C207 0.950 . S
C201 C199 1.387 . S
C201 C203 1.390 . S
C201 H205 0.950 . S
H202 C198 0.950 . S
C203 C201 1.390 . S
C203 C204 1.387 . S
C203 H206 0.950 . S
C204 C203 1.387 . S
C204 C207 1.387 . S
H205 C201 0.950 . S
H206 C203 0.950 . S
C207 C198 1.390 . S
C207 H200 0.950 . S
C207 C204 1.387 . S
C208 C209 1.387 . S
C208 H212 0.950 . S
C208 C217 1.390 . S
C209 C208 1.387 . S
C209 C211 1.387 . S
H210 C217 0.950 . S
C211 C209 1.387 . S
C211 C213 1.390 . S
C211 H215 0.950 . S
H212 C208 0.950 . S
C213 C211 1.390 . S
C213 C214 1.387 . S
C213 H216 0.950 . S
C214 C213 1.387 . S
C214 C217 1.387 . S
H215 C211 0.950 . S
H216 C213 0.950 . S
C217 C208 1.390 . S
C217 H210 0.950 . S
C217 C214 1.387 . S
C218 C219 1.387 . S
C218 H222 0.950 . S
C218 C227 1.390 . S
C219 C218 1.387 . S
C219 C221 1.387 . S
H220 C227 0.950 . S
C221 C219 1.387 . S
C221 C223 1.390 . S
C221 H225 0.950 . S
H222 C218 0.950 . S
C223 C221 1.390 . S
C223 C224 1.387 . S
C223 H226 0.950 . S
C224 C223 1.387 . S
C224 C227 1.387 . S
H225 C221 0.950 . S
H226 C223 0.950 . S
C227 C218 1.390 . S
C227 H220 0.950 . S
C227 C224 1.387 . S
C228 C229 1.387 1_556 S
C228 H232 0.950 . S
C228 C237 1.390 1_545 S
C229 C228 1.387 1_554 S
C229 C231 1.387 . S
H230 C237 0.950 . S
C231 C229 1.387 . S
C231 C233 1.390 1_545 S
C231 H235 0.950 . S
H232 C228 0.950 . S
C233 C231 1.390 1_565 S
C233 C234 1.387 1_554 S
C233 H236 0.950 . S
C234 C233 1.387 1_556 S
C234 C237 1.387 . S
H235 C231 0.950 . S
H236 C233 0.950 . S
C237 C228 1.390 1_565 S
C237 H230 0.950 . S
C237 C234 1.387 . S
C238 C239 1.387 . S
C238 H242 0.950 . S
C238 C247 1.390 . S
C239 C238 1.387 . S
C239 C241 1.387 . S
H240 C247 0.950 . S
C241 C239 1.387 . S
C241 C243 1.390 . S
C241 H245 0.950 . S
H242 C238 0.950 . S
C243 C241 1.390 . S
C243 C244 1.387 . S
C243 H246 0.950 . S
C244 C243 1.387 . S
C244 C247 1.387 . S
H245 C241 0.950 . S
H246 C243 0.950 . S
C247 C238 1.390 . S
C247 H240 0.950 . S
C247 C244 1.387 . S
C248 C249 1.387 1_554 S
C248 H252 0.950 . S
C248 C257 1.390 1_455 S
C249 C248 1.387 1_556 S
C249 C251 1.387 . S
H250 C257 0.950 . S
C251 C249 1.387 . S
C251 C253 1.390 1_455 S
C251 H255 0.950 . S
H252 C248 0.950 . S
C253 C251 1.390 1_655 S
C253 C254 1.387 1_556 S
C253 H256 0.950 . S
C254 C253 1.387 1_554 S
C254 C257 1.387 . S
H255 C251 0.950 . S
H256 C253 0.950 . S
C257 C248 1.390 1_655 S
C257 H250 0.950 . S
C257 C254 1.387 . S
C258 C259 1.387 . S
C258 H262 0.950 . S
C258 C267 1.390 . S
C259 C258 1.387 . S
C259 C261 1.387 1_545 S
H260 C267 0.950 . S
C261 C259 1.387 1_565 S
C261 C263 1.390 . S
C261 H265 0.950 . S
H262 C258 0.950 . S
C263 C261 1.390 . S
C263 C264 1.387 . S
C263 H266 0.950 . S
C264 C263 1.387 . S
C264 C267 1.387 1_565 S
H265 C261 0.950 . S
H266 C263 0.950 . S
C267 C258 1.390 . S
C267 H260 0.950 . S
C267 C264 1.387 1_545 S
C268 C269 1.387 . S
C268 H272 0.950 . S
C268 C277 1.390 . S
C269 C268 1.387 . S
C269 C271 1.387 1_556 S
H270 C277 0.950 . S
C271 C269 1.387 1_554 S
C271 C273 1.390 . S
C271 H275 0.950 . S
H272 C268 0.950 . S
C273 C271 1.390 . S
C273 C274 1.387 . S
C273 H276 0.950 . S
C274 C273 1.387 . S
C274 C277 1.387 1_554 S
H275 C271 0.950 . S
H276 C273 0.950 . S
C277 C268 1.390 . S
C277 H270 0.950 . S
C277 C274 1.387 1_556 S
C278 C279 1.377 1_455 S
C278 H282 0.951 1_455 S
C278 C287 1.400 . S
C279 C278 1.377 1_655 S
C279 C281 1.387 . S
H280 C287 0.950 . S
C281 C279 1.387 . S
C281 C283 1.390 1_655 S
C281 H285 0.950 . S
H282 C278 0.951 1_655 S
C283 C281 1.390 1_455 S
C283 C284 1.387 . S
C283 H286 0.950 . S
C284 C283 1.387 . S
C284 C287 1.387 . S
H285 C281 0.950 . S
H286 C283 0.950 . S
C287 C278 1.400 . S
C287 H280 0.950 . S
C287 C284 1.387 . S
C288 C289 1.387 . S
C288 H292 0.950 . S
C288 C297 1.390 . S
C289 C288 1.387 . S
C289 C291 1.387 . S
H290 C297 0.950 . S
C291 C289 1.387 . S
C291 C293 1.390 . S
C291 H295 0.950 . S
H292 C288 0.950 . S
C293 C291 1.390 . S
C293 C294 1.387 . S
C293 H296 0.950 . S
C294 C293 1.387 . S
C294 C297 1.387 . S
H295 C291 0.950 . S
H296 C293 0.950 . S
C297 C288 1.390 . S
C297 H290 0.950 . S
C297 C294 1.387 . S
C298 C299 1.387 . S
C298 H302 0.950 . S
C298 C307 1.390 . S
C299 C298 1.387 . S
C299 C301 1.387 . S
H300 C307 0.950 . S
C301 C299 1.387 . S
C301 C303 1.390 . S
C301 H305 0.950 . S
H302 C298 0.950 . S
C303 C301 1.390 . S
C303 C304 1.387 . S
C303 H306 0.950 . S
C304 C303 1.387 . S
C304 C307 1.387 . S
H305 C301 0.950 . S
H306 C303 0.950 . S
C307 C298 1.390 . S
C307 H300 0.950 . S
C307 C304 1.387 . S
C308 C309 1.387 . S
C308 H312 0.950 . S
C308 C317 1.390 . S
C309 C308 1.387 . S
C309 C311 1.387 . S
H310 C317 0.950 . S
C311 C309 1.387 . S
C311 C313 1.390 . S
C311 H315 0.950 . S
H312 C308 0.950 . S
C313 C311 1.390 . S
C313 C314 1.387 . S
C313 H316 0.950 1_554 S
C314 C313 1.387 . S
C314 C317 1.387 . S
H315 C311 0.950 . S
H316 C313 0.950 1_556 S
C317 C308 1.390 . S
C317 H310 0.950 . S
C317 C314 1.387 . S
C318 C319 1.387 . S
C318 H322 0.950 . S
C318 C327 1.390 . S
C319 C318 1.387 . S
C319 C321 1.387 . S
H320 C327 0.950 . S
C321 C319 1.387 . S
C321 C323 1.390 . S
C321 H325 0.950 . S
H322 C318 0.950 . S
C323 C321 1.390 . S
C323 C324 1.387 . S
C323 H326 0.950 . S
C324 C323 1.387 . S
C324 C327 1.387 . S
H325 C321 0.950 . S
H326 C323 0.950 . S
C327 C318 1.390 . S
C327 H320 0.950 . S
C327 C324 1.387 . S
C328 C329 1.387 . S
C328 H332 0.950 . S
C328 C337 1.390 . S
C329 C328 1.387 . S
C329 C331 1.387 . S
H330 C337 0.950 . S
C331 C329 1.387 . S
C331 C333 1.390 . S
C331 H335 0.950 . S
H332 C328 0.950 . S
C333 C331 1.390 . S
C333 C334 1.387 . S
C333 H336 0.950 . S
C334 C333 1.387 . S
C334 C337 1.387 . S
H335 C331 0.950 . S
H336 C333 0.950 . S
C337 C328 1.390 . S
C337 H330 0.950 . S
C337 C334 1.387 . S
C338 C339 1.387 . S
C338 H342 0.950 . S
C338 C347 1.390 . S
C339 C338 1.387 . S
C339 C341 1.387 . S
H340 C347 0.950 . S
C341 C339 1.387 . S
C341 C343 1.390 . S
C341 H345 0.950 . S
H342 C338 0.950 . S
C343 C341 1.390 . S
C343 C344 1.387 . S
C343 H346 0.950 . S
C344 C343 1.387 . S
C344 C347 1.387 . S
H345 C341 0.950 . S
H346 C343 0.950 . S
C347 C338 1.390 . S
C347 H340 0.950 . S
C347 C344 1.387 . S
C348 C349 1.387 . S
C348 H352 0.950 . S
C348 C357 1.390 . S
C349 C348 1.387 . S
C349 C351 1.387 . S
H350 C357 0.950 . S
C351 C349 1.387 . S
C351 C353 1.390 . S
C351 H355 0.950 . S
H352 C348 0.950 . S
C353 C351 1.390 . S
C353 C354 1.387 . S
C353 H356 0.950 . S
C354 C353 1.387 . S
C354 C357 1.387 . S
H355 C351 0.950 . S
H356 C353 0.950 . S
C357 C348 1.390 . S
C357 H350 0.950 . S
C357 C354 1.387 . S
C358 C359 1.387 . S
C358 H362 0.950 . S
C358 C367 1.390 . S
C359 C358 1.387 . S
C359 C361 1.387 . S
H360 C367 0.950 1_554 S
C361 C359 1.387 . S
C361 C363 1.390 . S
C361 H365 0.950 . S
H362 C358 0.950 . S
C363 C361 1.390 . S
C363 C364 1.387 . S
C363 H366 0.950 . S
C364 C363 1.387 . S
C364 C367 1.387 . S
H365 C361 0.950 . S
H366 C363 0.950 . S
C367 C358 1.390 . S
C367 H360 0.950 1_556 S
C367 C364 1.387 . S
C368 C369 1.387 . S
C368 H372 0.950 . S
C368 C377 1.390 . S
C369 C368 1.387 . S
C369 C371 1.387 . S
H370 C377 0.950 . S
C371 C369 1.387 . S
C371 C373 1.390 . S
C371 H375 0.950 . S
H372 C368 0.950 . S
C373 C371 1.390 . S
C373 C374 1.387 . S
C373 H376 0.950 . S
C374 C373 1.387 . S
C374 C377 1.387 . S
H375 C371 0.950 . S
H376 C373 0.950 . S
C377 C368 1.390 . S
C377 H370 0.950 . S
C377 C374 1.387 . S
C378 C379 1.387 . S
C378 H382 0.950 . S
C378 C387 1.390 . S
C379 C378 1.387 . S
C379 C381 1.387 . S
H380 C387 0.950 . S
C381 C379 1.387 . S
C381 C383 1.390 . S
C381 H385 0.950 . S
H382 C378 0.950 . S
C383 C381 1.390 . S
C383 C384 1.387 . S
C383 H386 0.950 . S
C384 C383 1.387 . S
C384 C387 1.387 . S
H385 C381 0.950 . S
H386 C383 0.950 . S
C387 C378 1.390 . S
C387 H380 0.950 . S
C387 C384 1.387 . S
C388 C389 1.387 . S
C388 H392 0.950 . S
C388 C397 1.390 . S
C389 C388 1.387 . S
C389 C391 1.387 . S
H390 C397 0.950 . S
C391 C389 1.387 . S
C391 C393 1.390 . S
C391 H395 0.950 . S
H392 C388 0.950 . S
C393 C391 1.390 . S
C393 C394 1.387 . S
C393 H396 0.950 . S
C394 C393 1.387 . S
C394 C397 1.387 . S
H395 C391 0.950 . S
H396 C393 0.950 . S
C397 C388 1.390 . S
C397 H390 0.950 . S
C397 C394 1.387 . S
C398 C399 1.387 . S
C398 H402 0.950 . S
C398 C407 1.390 . S
C399 C398 1.387 . S
C399 C401 1.387 . S
H400 C407 0.950 . S
C401 C399 1.387 . S
C401 C403 1.390 . S
C401 H405 0.950 . S
H402 C398 0.950 . S
C403 C401 1.390 . S
C403 C404 1.387 . S
C403 H406 0.950 . S
C404 C403 1.387 . S
C404 C407 1.387 . S
H405 C401 0.950 . S
H406 C403 0.950 . S
C407 C398 1.390 . S
C407 H400 0.950 . S
C407 C404 1.387 . S
C169 C153 1.352 . S
C174 C13 1.355 . S
C179 C27 1.272 . S
C184 C167 1.267 . S
C189 C41 1.352 . S
C194 C97 1.357 . S
C199 C111 1.350 . S
C204 C55 1.356 . S
C209 C125 1.267 . S
C214 C69 1.272 . S
C219 C83 1.351 . S
C224 C139 1.355 . S
C229 C11 1.140 . S
C234 C109 1.118 . S
C239 C25 1.014 . S
C244 C123 1.014 . S
C249 C137 1.140 . S
C254 C39 1.118 . S
C259 C151 1.121 . S
C264 C53 1.141 . S
C269 C165 1.013 . S
C274 C67 1.014 . S
C279 C95 1.142 . S
C284 C81 1.121 . S
C289 C8 1.148 . S
C294 C63 1.097 . S
C299 C22 1.085 . S
C304 C77 1.092 . S
C309 C36 1.122 . S
C314 C7 1.095 . S
C319 C50 1.147 . S
C324 C21 1.102 . S
C329 C64 1.081 . S
C334 C35 1.096 . S
C339 C78 1.119 . S
C344 C49 1.099 . S
C349 C92 1.150 . S
C354 C119 1.097 . S
C359 C106 1.120 . S
C364 C133 1.099 . S
C369 C147 1.092 . S
C374 C120 1.085 . S
C379 C134 1.146 . S
C384 C161 1.102 . S
C389 C148 1.122 . S
C394 C91 1.095 . S
C399 C162 1.085 . S
C404 C105 1.093 . S
