# Generated by pormake.
# Topology wgl, (5)-cn, num edge types: 1
# Building blocks:
#     Node 0, Type 0, BuildingBlock: BEQFEK_clean_sbu_0, # of connection points: 5
#     Node 1, Type 0, BuildingBlock: BEQFEK_clean_sbu_0, # of connection points: 5
#     Node 2, Type 0, BuildingBlock: BEQFEK_clean_sbu_0, # of connection points: 5
#     Node 3, Type 0, BuildingBlock: BEQFEK_clean_sbu_0, # of connection points: 5
#     Node 4, Type 0, BuildingBlock: BEQFEK_clean_sbu_0, # of connection points: 5
#     Node 5, Type 0, BuildingBlock: BEQFEK_clean_sbu_0, # of connection points: 5
#     Node 6, Type 0, BuildingBlock: BEQFEK_clean_sbu_0, # of connection points: 5
#     Node 7, Type 0, BuildingBlock: BEQFEK_clean_sbu_0, # of connection points: 5
#     Node 8, Type 0, BuildingBlock: BEQFEK_clean_sbu_0, # of connection points: 5
#     Node 9, Type 0, BuildingBlock: BEQFEK_clean_sbu_0, # of connection points: 5
#     Node 10, Type 0, BuildingBlock: BEQFEK_clean_sbu_0, # of connection points: 5
#     Node 11, Type 0, BuildingBlock: BEQFEK_clean_sbu_0, # of connection points: 5
#     Node 12, Type 0, BuildingBlock: BEQFEK_clean_sbu_0, # of connection points: 5
#     Node 13, Type 0, BuildingBlock: BEQFEK_clean_sbu_0, # of connection points: 5
#     Node 14, Type 0, BuildingBlock: BEQFEK_clean_sbu_0, # of connection points: 5
#     Node 15, Type 0, BuildingBlock: BEQFEK_clean_sbu_0, # of connection points: 5
#     Node 16, Type 0, BuildingBlock: BEQFEK_clean_sbu_0, # of connection points: 5
#     Node 17, Type 0, BuildingBlock: BEQFEK_clean_sbu_0, # of connection points: 5
#     Node 18, Type 0, BuildingBlock: BEQFEK_clean_sbu_0, # of connection points: 5
#     Node 19, Type 0, BuildingBlock: BEQFEK_clean_sbu_0, # of connection points: 5
#     Node 20, Type 0, BuildingBlock: BEQFEK_clean_sbu_0, # of connection points: 5
#     Node 21, Type 0, BuildingBlock: BEQFEK_clean_sbu_0, # of connection points: 5
#     Node 22, Type 0, BuildingBlock: BEQFEK_clean_sbu_0, # of connection points: 5
#     Node 23, Type 0, BuildingBlock: BEQFEK_clean_sbu_0, # of connection points: 5
#     Node 24, Type 0, BuildingBlock: BEQFEK_clean_sbu_0, # of connection points: 5
#     Node 25, Type 0, BuildingBlock: BEQFEK_clean_sbu_0, # of connection points: 5
#     Node 26, Type 0, BuildingBlock: BEQFEK_clean_sbu_0, # of connection points: 5
#     Node 27, Type 0, BuildingBlock: BEQFEK_clean_sbu_0, # of connection points: 5
#     Node 28, Type 0, BuildingBlock: BEQFEK_clean_sbu_0, # of connection points: 5
#     Node 29, Type 0, BuildingBlock: BEQFEK_clean_sbu_0, # of connection points: 5
#     Node 30, Type 0, BuildingBlock: BEQFEK_clean_sbu_0, # of connection points: 5
#     Node 31, Type 0, BuildingBlock: BEQFEK_clean_sbu_0, # of connection points: 5
#     Edge 32, Type (0, 0), BuildingBlock: CIFDUS_clean_linker_0, # of connection points: 2
#     Edge 33, Type (0, 0), BuildingBlock: CIFDUS_clean_linker_0, # of connection points: 2
#     Edge 34, Type (0, 0), BuildingBlock: CIFDUS_clean_linker_0, # of connection points: 2
#     Edge 35, Type (0, 0), BuildingBlock: CIFDUS_clean_linker_0, # of connection points: 2
#     Edge 36, Type (0, 0), BuildingBlock: CIFDUS_clean_linker_0, # of connection points: 2
#     Edge 37, Type (0, 0), BuildingBlock: CIFDUS_clean_linker_0, # of connection points: 2
#     Edge 38, Type (0, 0), BuildingBlock: CIFDUS_clean_linker_0, # of connection points: 2
#     Edge 39, Type (0, 0), BuildingBlock: CIFDUS_clean_linker_0, # of connection points: 2
#     Edge 40, Type (0, 0), BuildingBlock: CIFDUS_clean_linker_0, # of connection points: 2
#     Edge 41, Type (0, 0), BuildingBlock: CIFDUS_clean_linker_0, # of connection points: 2
#     Edge 42, Type (0, 0), BuildingBlock: CIFDUS_clean_linker_0, # of connection points: 2
#     Edge 43, Type (0, 0), BuildingBlock: CIFDUS_clean_linker_0, # of connection points: 2
#     Edge 44, Type (0, 0), BuildingBlock: CIFDUS_clean_linker_0, # of connection points: 2
#     Edge 45, Type (0, 0), BuildingBlock: CIFDUS_clean_linker_0, # of connection points: 2
#     Edge 46, Type (0, 0), BuildingBlock: CIFDUS_clean_linker_0, # of connection points: 2
#     Edge 47, Type (0, 0), BuildingBlock: CIFDUS_clean_linker_0, # of connection points: 2
#     Edge 48, Type (0, 0), BuildingBlock: CIFDUS_clean_linker_0, # of connection points: 2
#     Edge 49, Type (0, 0), BuildingBlock: CIFDUS_clean_linker_0, # of connection points: 2
#     Edge 50, Type (0, 0), BuildingBlock: CIFDUS_clean_linker_0, # of connection points: 2
#     Edge 51, Type (0, 0), BuildingBlock: CIFDUS_clean_linker_0, # of connection points: 2
#     Edge 52, Type (0, 0), BuildingBlock: CIFDUS_clean_linker_0, # of connection points: 2
#     Edge 53, Type (0, 0), BuildingBlock: CIFDUS_clean_linker_0, # of connection points: 2
#     Edge 54, Type (0, 0), BuildingBlock: CIFDUS_clean_linker_0, # of connection points: 2
#     Edge 55, Type (0, 0), BuildingBlock: CIFDUS_clean_linker_0, # of connection points: 2
#     Edge 56, Type (0, 0), BuildingBlock: CIFDUS_clean_linker_0, # of connection points: 2
#     Edge 57, Type (0, 0), BuildingBlock: CIFDUS_clean_linker_0, # of connection points: 2
#     Edge 58, Type (0, 0), BuildingBlock: CIFDUS_clean_linker_0, # of connection points: 2
#     Edge 59, Type (0, 0), BuildingBlock: CIFDUS_clean_linker_0, # of connection points: 2
#     Edge 60, Type (0, 0), BuildingBlock: CIFDUS_clean_linker_0, # of connection points: 2
#     Edge 61, Type (0, 0), BuildingBlock: CIFDUS_clean_linker_0, # of connection points: 2
#     Edge 62, Type (0, 0), BuildingBlock: CIFDUS_clean_linker_0, # of connection points: 2
#     Edge 63, Type (0, 0), BuildingBlock: CIFDUS_clean_linker_0, # of connection points: 2
#     Edge 64, Type (0, 0), BuildingBlock: CIFDUS_clean_linker_0, # of connection points: 2
#     Edge 65, Type (0, 0), BuildingBlock: CIFDUS_clean_linker_0, # of connection points: 2
#     Edge 66, Type (0, 0), BuildingBlock: CIFDUS_clean_linker_0, # of connection points: 2
#     Edge 67, Type (0, 0), BuildingBlock: CIFDUS_clean_linker_0, # of connection points: 2
#     Edge 68, Type (0, 0), BuildingBlock: CIFDUS_clean_linker_0, # of connection points: 2
#     Edge 69, Type (0, 0), BuildingBlock: CIFDUS_clean_linker_0, # of connection points: 2
#     Edge 70, Type (0, 0), BuildingBlock: CIFDUS_clean_linker_0, # of connection points: 2
#     Edge 71, Type (0, 0), BuildingBlock: CIFDUS_clean_linker_0, # of connection points: 2
#     Edge 72, Type (0, 0), BuildingBlock: CIFDUS_clean_linker_0, # of connection points: 2
#     Edge 73, Type (0, 0), BuildingBlock: CIFDUS_clean_linker_0, # of connection points: 2
#     Edge 74, Type (0, 0), BuildingBlock: CIFDUS_clean_linker_0, # of connection points: 2
#     Edge 75, Type (0, 0), BuildingBlock: CIFDUS_clean_linker_0, # of connection points: 2
#     Edge 76, Type (0, 0), BuildingBlock: CIFDUS_clean_linker_0, # of connection points: 2
#     Edge 77, Type (0, 0), BuildingBlock: CIFDUS_clean_linker_0, # of connection points: 2
#     Edge 78, Type (0, 0), BuildingBlock: CIFDUS_clean_linker_0, # of connection points: 2
#     Edge 79, Type (0, 0), BuildingBlock: CIFDUS_clean_linker_0, # of connection points: 2
#     Edge 80, Type (0, 0), BuildingBlock: CIFDUS_clean_linker_0, # of connection points: 2
#     Edge 81, Type (0, 0), BuildingBlock: CIFDUS_clean_linker_0, # of connection points: 2
#     Edge 82, Type (0, 0), BuildingBlock: CIFDUS_clean_linker_0, # of connection points: 2
#     Edge 83, Type (0, 0), BuildingBlock: CIFDUS_clean_linker_0, # of connection points: 2
#     Edge 84, Type (0, 0), BuildingBlock: CIFDUS_clean_linker_0, # of connection points: 2
#     Edge 85, Type (0, 0), BuildingBlock: CIFDUS_clean_linker_0, # of connection points: 2
#     Edge 86, Type (0, 0), BuildingBlock: CIFDUS_clean_linker_0, # of connection points: 2
#     Edge 87, Type (0, 0), BuildingBlock: CIFDUS_clean_linker_0, # of connection points: 2
#     Edge 88, Type (0, 0), BuildingBlock: CIFDUS_clean_linker_0, # of connection points: 2
#     Edge 89, Type (0, 0), BuildingBlock: CIFDUS_clean_linker_0, # of connection points: 2
#     Edge 90, Type (0, 0), BuildingBlock: CIFDUS_clean_linker_0, # of connection points: 2
#     Edge 91, Type (0, 0), BuildingBlock: CIFDUS_clean_linker_0, # of connection points: 2
#     Edge 92, Type (0, 0), BuildingBlock: CIFDUS_clean_linker_0, # of connection points: 2
#     Edge 93, Type (0, 0), BuildingBlock: CIFDUS_clean_linker_0, # of connection points: 2
#     Edge 94, Type (0, 0), BuildingBlock: CIFDUS_clean_linker_0, # of connection points: 2
#     Edge 95, Type (0, 0), BuildingBlock: CIFDUS_clean_linker_0, # of connection points: 2
#     Edge 96, Type (0, 0), BuildingBlock: CIFDUS_clean_linker_0, # of connection points: 2
#     Edge 97, Type (0, 0), BuildingBlock: CIFDUS_clean_linker_0, # of connection points: 2
#     Edge 98, Type (0, 0), BuildingBlock: CIFDUS_clean_linker_0, # of connection points: 2
#     Edge 99, Type (0, 0), BuildingBlock: CIFDUS_clean_linker_0, # of connection points: 2
#     Edge 100, Type (0, 0), BuildingBlock: CIFDUS_clean_linker_0, # of connection points: 2
#     Edge 101, Type (0, 0), BuildingBlock: CIFDUS_clean_linker_0, # of connection points: 2
#     Edge 102, Type (0, 0), BuildingBlock: CIFDUS_clean_linker_0, # of connection points: 2
#     Edge 103, Type (0, 0), BuildingBlock: CIFDUS_clean_linker_0, # of connection points: 2
#     Edge 104, Type (0, 0), BuildingBlock: CIFDUS_clean_linker_0, # of connection points: 2
#     Edge 105, Type (0, 0), BuildingBlock: CIFDUS_clean_linker_0, # of connection points: 2
#     Edge 106, Type (0, 0), BuildingBlock: CIFDUS_clean_linker_0, # of connection points: 2
#     Edge 107, Type (0, 0), BuildingBlock: CIFDUS_clean_linker_0, # of connection points: 2
#     Edge 108, Type (0, 0), BuildingBlock: CIFDUS_clean_linker_0, # of connection points: 2
#     Edge 109, Type (0, 0), BuildingBlock: CIFDUS_clean_linker_0, # of connection points: 2
#     Edge 110, Type (0, 0), BuildingBlock: CIFDUS_clean_linker_0, # of connection points: 2
#     Edge 111, Type (0, 0), BuildingBlock: CIFDUS_clean_linker_0, # of connection points: 2
# Relax obj value: 0.075
# Max RMSD: 0.102
# Mean RMSD: 0.102
data_MOF--net-wgl--node1-BEQFEK_clean_sbu_0--edge1-CIFDUS_clean_linker_0
_symmetry_space_group_name_H-M    P1
_symmetry_Int_Tables_number       1
_symmetry_cell_setting            triclinic
loop_
_symmetry_equiv_pos_as_xyz
'x, y, z'
_cell_length_a     51.069455
_cell_length_b     50.980756
_cell_length_c     51.876433
_cell_angle_alpha  89.979951
_cell_angle_beta   90.089778
_cell_angle_gamma 89.998724
loop_
_atom_site_label
_atom_site_type_symbol
_atom_site_fract_x
_atom_site_fract_y
_atom_site_fract_z
_atom_type_partial_charge
Co0 Co 0.31745 0.27263 0.12649 0.0
Co1 Co 0.27715 0.31741 0.13568 0.0
C2 C 0.27458 0.28694 0.08746 0.0
O3 O 0.2949 0.27378 0.09402 0.0
O4 O 0.26492 0.30452 0.10207 0.0
C5 C 0.33431 0.21787 0.12437 0.0
O6 O 0.30933 0.21201 0.12238 0.0
C7 C 0.23673 0.35859 0.13867 0.0
C8 C 0.24989 0.37867 0.17427 0.0
C9 C 0.23199 0.38013 0.15431 0.0
N10 N 0.25657 0.34495 0.14912 0.0
N11 N 0.26418 0.35693 0.17044 0.0
C12 C 0.22536 0.3529 0.11267 0.0
H13 H 0.21708 0.33277 0.11262 0.0
H14 H 0.20996 0.36721 0.10723 0.0
H15 H 0.24121 0.35343 0.09806 0.0
C16 C 0.29628 0.2565 0.17857 0.0
N17 N 0.29647 0.27166 0.15717 0.0
N18 N 0.27822 0.28969 0.15954 0.0
C19 C 0.26504 0.28588 0.18165 0.0
C20 C 0.27634 0.26511 0.19479 0.0
C21 C 0.31634 0.23599 0.18457 0.0
H22 H 0.33542 0.24129 0.17584 0.0
H23 H 0.3098 0.21694 0.17647 0.0
H24 H 0.31884 0.23364 0.2057 0.0
O25 O 0.3412 0.30337 0.12823 0.0
O26 O 0.31166 0.33456 0.13319 0.0
H27 H 0.24668 0.31804 0.20103 0.0
H28 H 0.22789 0.28828 0.20121 0.0
C29 C 0.24099 0.30076 0.18934 0.0
H30 H 0.23017 0.3075 0.17202 0.0
H31 H 0.28 0.35089 0.18173 0.0
O32 O 0.34117 0.24178 0.12569 0.0
C33 C 0.33536 0.32744 0.131 0.0
Co34 Co 0.98518 0.07512 0.37529 0.0
Co35 Co 0.93786 0.03738 0.3806 0.0
C36 C 0.96982 0.03815 0.33222 0.0
O37 O 0.98458 0.05627 0.34108 0.0
O38 O 0.95112 0.02878 0.34556 0.0
C39 C 0.03993 0.09148 0.37443 0.0
O40 O 0.04566 0.06683 0.36966 0.0
C41 C 0.90528 0.99019 0.37996 0.0
C42 C 0.87561 1.00012 0.4094 0.0
C43 C 0.8832 0.9807 0.39231 0.0
N44 N 0.91048 0.01416 0.38936 0.0
N45 N 0.89268 0.02002 0.40689 0.0
C46 C 0.92236 0.97618 0.36101 0.0
H47 H 0.94319 0.98136 0.36442 0.0
H48 H 0.91992 0.95461 0.36251 0.0
H49 H 0.91705 0.98252 0.34121 0.0
C50 C 0.99909 0.04948 0.42595 0.0
N51 N 0.9843 0.05187 0.40442 0.0
N52 N 0.96479 0.03508 0.40576 0.0
C53 C 0.96702 0.0209 0.42762 0.0
C54 C 0.98864 0.02971 0.44141 0.0
C55 C 0.02104 0.06761 0.43288 0.0
H56 H 0.0167 0.08772 0.42595 0.0
H57 H 0.03928 0.06069 0.42351 0.0
H58 H 0.02425 0.06819 0.45403 0.0
O59 O 0.95528 0.09955 0.37699 0.0
O60 O 0.92138 0.07289 0.38123 0.0
H61 H 0.93082 0.00659 0.44272 0.0
H62 H 0.9585 0.98562 0.44931 0.0
C63 C 0.94932 0.99865 0.43474 0.0
H64 H 0.94473 0.98683 0.41741 0.0
H65 H 0.89228 0.03758 0.41721 0.0
O66 O 0.01616 0.09821 0.37709 0.0
C67 C 0.9308 0.09594 0.37958 0.0
Co68 Co 0.17729 0.73003 0.63116 0.0
Co69 Co 0.21737 0.68449 0.64098 0.0
C70 C 0.21404 0.71043 0.58948 0.0
O71 O 0.1965 0.72667 0.59691 0.0
O72 O 0.22339 0.69314 0.6046 0.0
C73 C 0.15964 0.78463 0.62537 0.0
O74 O 0.18392 0.78986 0.61879 0.0
C75 C 0.26594 0.65371 0.64504 0.0
C76 C 0.25481 0.62498 0.67505 0.0
C77 C 0.2753 0.63265 0.65932 0.0
N78 N 0.24113 0.65834 0.65226 0.0
N79 N 0.23455 0.64101 0.67005 0.0
C80 C 0.28054 0.67032 0.62614 0.0
H81 H 0.27302 0.69075 0.62661 0.0
H82 H 0.30186 0.67021 0.63037 0.0
H83 H 0.27735 0.66246 0.60644 0.0
C84 C 0.20217 0.74872 0.68047 0.0
N85 N 0.20118 0.73272 0.65972 0.0
N86 N 0.21899 0.71427 0.66255 0.0
C87 C 0.23234 0.71835 0.68461 0.0
C88 C 0.22206 0.7402 0.69684 0.0
C89 C 0.18326 0.77057 0.6854 0.0
H90 H 0.16299 0.76381 0.68146 0.0
H91 H 0.18771 0.78702 0.67214 0.0
H92 H 0.18468 0.77799 0.70543 0.0
O93 O 0.15384 0.69884 0.6366 0.0
O94 O 0.18316 0.66783 0.64429 0.0
H95 H 0.24144 0.68133 0.70167 0.0
H96 H 0.26218 0.70736 0.71265 0.0
C97 C 0.25179 0.69941 0.69563 0.0
H98 H 0.26648 0.69432 0.68077 0.0
H99 H 0.21626 0.64029 0.67896 0.0
O100 O 0.15331 0.7611 0.63069 0.0
C101 C 0.15952 0.67513 0.64212 0.0
Co102 Co 0.51617 0.93508 0.87893 0.0
Co103 Co 0.55847 0.97865 0.8845 0.0
C104 C 0.53078 0.97228 0.83494 0.0
O105 O 0.5181 0.95268 0.84396 0.0
O106 O 0.54689 0.98515 0.84879 0.0
C107 C 0.46283 0.91602 0.87777 0.0
O108 O 0.45649 0.94077 0.87444 0.0
C109 C 0.59541 0.02351 0.88496 0.0
C110 C 0.61387 0.01667 0.92303 0.0
C111 C 0.61452 0.0329 0.90167 0.0
N112 N 0.58382 0.00285 0.89629 0.0
N113 N 0.59497 0.9989 0.91896 0.0
C114 C 0.59022 0.03179 0.85775 0.0
H115 H 0.5881 0.01423 0.84531 0.0
H116 H 0.57151 0.04284 0.85702 0.0
H117 H 0.60619 0.04424 0.85003 0.0
C118 C 0.49802 0.96067 0.92823 0.0
N119 N 0.5131 0.9595 0.90685 0.0
N120 N 0.52977 0.97916 0.90739 0.0
C121 C 0.52493 0.99418 0.92819 0.0
C122 C 0.50514 0.9827 0.94247 0.0
C123 C 0.47949 0.93955 0.93648 0.0
H124 H 0.48613 0.92023 0.92918 0.0
H125 H 0.45978 0.94379 0.92851 0.0
H126 H 0.47792 0.93874 0.95781 0.0
O127 O 0.54769 0.91368 0.88392 0.0
O128 O 0.57765 0.94483 0.88689 0.0
H129 H 0.5552 0.01651 0.94656 0.0
H130 H 0.52443 0.03318 0.9441 0.0
C131 C 0.53806 0.01982 0.93385 0.0
H132 H 0.5446 0.02933 0.91574 0.0
H133 H 0.59002 0.9836 0.9314 0.0
O134 O 0.48681 0.90975 0.87959 0.0
C135 C 0.57138 0.92071 0.88676 0.0
Co136 Co 0.31634 0.73297 0.40734 0.0
Co137 Co 0.28494 0.68045 0.40317 0.0
C138 C 0.2793 0.7151 0.44949 0.0
O139 O 0.29543 0.73184 0.44031 0.0
O140 O 0.27362 0.69422 0.43715 0.0
C141 C 0.3251 0.78965 0.4099 0.0
O142 O 0.30136 0.79136 0.41949 0.0
C143 C 0.24606 0.63646 0.40137 0.0
C144 C 0.2676 0.60993 0.37514 0.0
C145 C 0.24503 0.61192 0.38969 0.0
N146 N 0.26834 0.64836 0.3939 0.0
N147 N 0.28094 0.63238 0.37815 0.0
C148 C 0.22711 0.64765 0.42038 0.0
H149 H 0.23666 0.66258 0.43265 0.0
H150 H 0.21084 0.65722 0.40974 0.0
H151 H 0.21876 0.63192 0.43267 0.0
C152 C 0.29166 0.74053 0.35563 0.0
N153 N 0.29439 0.72734 0.37801 0.0
N154 N 0.28027 0.70577 0.37689 0.0
C155 C 0.26763 0.70486 0.35407 0.0
C156 C 0.27459 0.72674 0.33973 0.0
C157 C 0.30602 0.76527 0.34924 0.0
H158 H 0.32733 0.76234 0.35234 0.0
H159 H 0.2994 0.78105 0.36241 0.0
H160 H 0.30241 0.77165 0.32911 0.0
O161 O 0.3452 0.70656 0.40726 0.0
O162 O 0.322 0.67011 0.40429 0.0
H163 H 0.26492 0.66559 0.34008 0.0
H164 H 0.23987 0.68694 0.32775 0.0
C165 C 0.25164 0.68203 0.34504 0.0
H166 H 0.23837 0.67552 0.36067 0.0
H167 H 0.29897 0.63668 0.36972 0.0
O168 O 0.33427 0.76728 0.404 0.0
C169 C 0.34396 0.68169 0.4055 0.0
Co170 Co 0.51615 0.0662 0.64885 0.0
Co171 Co 0.56675 0.03224 0.64445 0.0
C172 C 0.53513 0.03272 0.69303 0.0
O173 O 0.51925 0.04939 0.68346 0.0
O174 O 0.55433 0.02374 0.68006 0.0
C175 C 0.46078 0.07693 0.65483 0.0
O176 O 0.45928 0.05351 0.66531 0.0
C177 C 0.60514 0.98819 0.64171 0.0
C178 C 0.6348 0.00666 0.61657 0.0
C179 C 0.62923 0.98385 0.62995 0.0
N180 N 0.59695 0.01245 0.63532 0.0
N181 N 0.61478 0.02326 0.62026 0.0
C182 C 0.59069 0.97017 0.65947 0.0
H183 H 0.57628 0.98108 0.6712 0.0
H184 H 0.57992 0.95541 0.64785 0.0
H185 H 0.60458 0.9597 0.67233 0.0
C186 C 0.50427 0.03834 0.5997 0.0
N187 N 0.51883 0.04176 0.62116 0.0
N188 N 0.53997 0.02712 0.61951 0.0
C189 C 0.53941 0.01369 0.5971 0.0
C190 C 0.51682 0.02045 0.58369 0.0
C191 C 0.47949 0.05298 0.59416 0.0
H192 H 0.48332 0.07439 0.595 0.0
H193 H 0.46485 0.04817 0.60917 0.0
H194 H 0.47116 0.04778 0.57508 0.0
O195 O 0.54334 0.09343 0.64523 0.0
O196 O 0.57921 0.06922 0.64274 0.0
H197 H 0.5789 0.01048 0.58401 0.0
H198 H 0.55701 0.9876 0.56885 0.0
C199 C 0.56175 0.99757 0.58724 0.0
H200 H 0.56714 0.98261 0.60182 0.0
H201 H 0.61333 0.04211 0.61256 0.0
O202 O 0.4827 0.08529 0.64678 0.0
C203 C 0.56804 0.09152 0.64292 0.0
Co204 Co 0.18228 0.2708 0.90312 0.0
Co205 Co 0.2203 0.3178 0.89424 0.0
C206 C 0.22474 0.28674 0.94199 0.0
O207 O 0.20483 0.27293 0.93555 0.0
O208 O 0.23362 0.30472 0.92738 0.0
C209 C 0.17139 0.21543 0.90944 0.0
O210 O 0.19612 0.21405 0.91633 0.0
C211 C 0.25891 0.36097 0.89215 0.0
C212 C 0.24453 0.38175 0.85741 0.0
C213 C 0.26287 0.38311 0.87701 0.0
N214 N 0.23922 0.3471 0.88166 0.0
N215 N 0.2308 0.3596 0.86093 0.0
C216 C 0.27089 0.35477 0.91779 0.0
H217 H 0.25514 0.35156 0.93215 0.0
H218 H 0.2822 0.33625 0.91624 0.0
H219 H 0.28387 0.37069 0.92474 0.0
C220 C 0.20442 0.25593 0.85134 0.0
N221 N 0.2034 0.27136 0.87249 0.0
N222 N 0.22046 0.2905 0.86976 0.0
C223 C 0.23362 0.28728 0.8475 0.0
C224 C 0.22371 0.26545 0.83487 0.0
C225 C 0.18715 0.23263 0.84698 0.0
H226 H 0.16667 0.23753 0.85222 0.0
H227 H 0.19381 0.21638 0.85959 0.0
H228 H 0.18793 0.22575 0.82672 0.0
O229 O 0.15637 0.30024 0.90198 0.0
O230 O 0.1849 0.33253 0.89788 0.0
H231 H 0.24428 0.32182 0.82669 0.0
H232 H 0.26797 0.29613 0.8245 0.0
C233 C 0.25401 0.30589 0.83765 0.0
H234 H 0.26518 0.31444 0.85392 0.0
H235 H 0.21492 0.3535 0.84976 0.0
O236 O 0.16169 0.23763 0.90359 0.0
C237 C 0.16145 0.32461 0.90009 0.0
Co238 Co 0.98043 0.92971 0.1512 0.0
Co239 Co 0.93703 0.97173 0.14506 0.0
C240 C 0.96634 0.96899 0.19397 0.0
O241 O 0.97879 0.94895 0.18555 0.0
O242 O 0.94963 0.98102 0.18001 0.0
C243 C 0.03389 0.91102 0.15622 0.0
O244 O 0.03953 0.93513 0.16323 0.0
C245 C 0.89517 0.01149 0.14474 0.0
C246 C 0.87721 0.00223 0.10692 0.0
C247 C 0.87422 0.0175 0.12872 0.0
N248 N 0.90993 0.9935 0.1327 0.0
N249 N 0.89918 0.9882 0.11011 0.0
C250 C 0.89913 0.01948 0.17222 0.0
H251 H 0.89985 0.00169 0.18454 0.0
H252 H 0.9183 0.02955 0.1741 0.0
H253 H 0.88331 0.03259 0.17915 0.0
C254 C 0.99829 0.95508 0.10158 0.0
N255 N 0.98258 0.95335 0.12248 0.0
N256 N 0.96487 0.97202 0.12112 0.0
C257 C 0.96928 0.98676 0.10001 0.0
C258 C 0.99022 0.97627 0.08656 0.0
C259 C 0.01922 0.93565 0.09512 0.0
H260 H 0.01302 0.91566 0.10094 0.0
H261 H 0.03728 0.94073 0.10594 0.0
H262 H 0.02372 0.93584 0.0742 0.0
O263 O 0.94949 0.90677 0.14733 0.0
O264 O 0.91901 0.93734 0.14527 0.0
H265 H 0.93827 0.00688 0.08046 0.0
H266 H 0.96794 0.02544 0.08331 0.0
C267 C 0.95486 0.01148 0.09351 0.0
H268 H 0.94728 0.02093 0.11123 0.0
H269 H 0.90612 0.9739 0.09746 0.0
O270 O 0.0104 0.90517 0.15071 0.0
C271 C 0.92558 0.91333 0.14552 0.0
Co272 Co 0.67905 0.73982 0.90174 0.0
Co273 Co 0.71295 0.68947 0.89575 0.0
C274 C 0.71626 0.72343 0.9434 0.0
O275 O 0.69981 0.74001 0.93455 0.0
O276 O 0.72251 0.70306 0.93053 0.0
C277 C 0.6628 0.79505 0.90565 0.0
O278 O 0.68601 0.80051 0.9152 0.0
C279 C 0.75937 0.65485 0.89141 0.0
C280 C 0.74134 0.62065 0.8721 0.0
C281 C 0.76472 0.6299 0.88209 0.0
N282 N 0.73394 0.66006 0.88698 0.0
N283 N 0.72339 0.63961 0.87527 0.0
C284 C 0.77767 0.67285 0.90538 0.0
H285 H 0.76685 0.68874 0.91522 0.0
H286 H 0.79125 0.68194 0.8913 0.0
H287 H 0.78952 0.66166 0.91958 0.0
C288 C 0.70395 0.75161 0.85088 0.0
N289 N 0.70121 0.73689 0.87233 0.0
N290 N 0.71583 0.71575 0.8701 0.0
C291 C 0.7284 0.71638 0.84729 0.0
C292 C 0.72134 0.73914 0.83434 0.0
C293 C 0.68978 0.77687 0.84625 0.0
H294 H 0.66836 0.77345 0.84737 0.0
H295 H 0.69516 0.79103 0.86157 0.0
H296 H 0.69476 0.78554 0.82728 0.0
O297 O 0.65269 0.71101 0.90153 0.0
O298 O 0.67696 0.67557 0.89591 0.0
H299 H 0.73267 0.67593 0.83725 0.0
H300 H 0.75096 0.69774 0.81684 0.0
C301 C 0.74444 0.69419 0.8369 0.0
H302 H 0.76187 0.6913 0.84934 0.0
H303 H 0.70378 0.63843 0.86973 0.0
O304 O 0.65735 0.77166 0.8992 0.0
C305 C 0.6547 0.68634 0.89843 0.0
Co306 Co 0.02034 0.9352 0.65144 0.0
Co307 Co 0.06638 0.97455 0.64538 0.0
C308 C 0.03736 0.97244 0.69475 0.0
O309 O 0.02348 0.9535 0.68609 0.0
O310 O 0.05461 0.98353 0.68077 0.0
C311 C 0.9654 0.92425 0.65572 0.0
O312 O 0.96385 0.94924 0.66171 0.0
C313 C 0.10414 0.01873 0.64336 0.0
C314 C 0.12633 0.00739 0.60848 0.0
C315 C 0.12467 0.02636 0.62748 0.0
N316 N 0.09396 0.99644 0.6338 0.0
N317 N 0.10734 0.98981 0.61302 0.0
C318 C 0.09567 0.03086 0.66827 0.0
H319 H 0.09332 0.01538 0.68309 0.0
H320 H 0.07635 0.04043 0.66547 0.0
H321 H 0.11 0.04549 0.6754 0.0
C322 C 0.00416 0.9616 0.60184 0.0
N323 N 0.01962 0.95924 0.62293 0.0
N324 N 0.03836 0.97687 0.62156 0.0
C325 C 0.03491 0.99159 0.60022 0.0
C326 C 0.0134 0.9822 0.5867 0.0
C327 C 0.98273 0.94284 0.59498 0.0
H328 H 0.98763 0.92285 0.60188 0.0
H329 H 0.96432 0.94926 0.60439 0.0
H330 H 0.97945 0.94228 0.57383 0.0
O331 O 0.0498 0.91012 0.64701 0.0
O332 O 0.08221 0.93878 0.64426 0.0
H333 H 0.06868 0.00831 0.58231 0.0
H334 H 0.04006 0.02882 0.58105 0.0
C335 C 0.05127 0.0149 0.59328 0.0
H336 H 0.05783 0.02521 0.61095 0.0
H337 H 0.10357 0.97308 0.60203 0.0
O338 O 0.9877 0.91426 0.65114 0.0
C339 C 0.07407 0.91517 0.64451 0.0
Co340 Co 0.81396 0.26428 0.40001 0.0
Co341 Co 0.78331 0.31726 0.39702 0.0
C342 C 0.77944 0.28247 0.44379 0.0
O343 O 0.79449 0.26516 0.4339 0.0
O344 O 0.774 0.30355 0.43169 0.0
C345 C 0.82352 0.2077 0.40351 0.0
O346 O 0.80041 0.20615 0.41451 0.0
C347 C 0.74018 0.3565 0.39512 0.0
C348 C 0.76018 0.38821 0.37372 0.0
C349 C 0.73663 0.38158 0.38517 0.0
N350 N 0.76471 0.3487 0.38952 0.0
N351 N 0.77646 0.36777 0.37672 0.0
C352 C 0.7211 0.34069 0.41053 0.0
H353 H 0.73128 0.32548 0.42199 0.0
H354 H 0.70729 0.33073 0.39723 0.0
H355 H 0.70963 0.35361 0.42352 0.0
C356 C 0.78468 0.25567 0.35043 0.0
N357 N 0.79042 0.26981 0.37172 0.0
N358 N 0.77714 0.29194 0.37095 0.0
C359 C 0.76244 0.2925 0.34934 0.0
C360 C 0.76664 0.26955 0.33562 0.0
C361 C 0.79617 0.22936 0.34459 0.0
H362 H 0.81786 0.23063 0.34518 0.0
H363 H 0.78994 0.21524 0.35964 0.0
H364 H 0.78978 0.2219 0.32551 0.0
O365 O 0.84286 0.29108 0.39893 0.0
O366 O 0.82031 0.328 0.39617 0.0
H367 H 0.75904 0.33325 0.34015 0.0
H368 H 0.73761 0.31262 0.32158 0.0
C369 C 0.74644 0.31558 0.34089 0.0
H370 H 0.73063 0.31908 0.35508 0.0
H371 H 0.79568 0.36684 0.37001 0.0
O372 O 0.83201 0.22992 0.39617 0.0
C373 C 0.84207 0.31599 0.39691 0.0
Co374 Co 0.47846 0.0734 0.15401 0.0
Co375 Co 0.43369 0.03236 0.14817 0.0
C376 C 0.46337 0.03494 0.19692 0.0
O377 O 0.47652 0.05445 0.18842 0.0
O378 O 0.44616 0.0236 0.18311 0.0
C379 C 0.5327 0.08466 0.15851 0.0
O380 O 0.53347 0.05964 0.16458 0.0
C381 C 0.40086 0.98497 0.14517 0.0
C382 C 0.37445 0.99593 0.11307 0.0
C383 C 0.38024 0.9759 0.13017 0.0
N384 N 0.40701 0.00923 0.13711 0.0
N385 N 0.39111 0.01569 0.11803 0.0
C386 C 0.41581 0.97037 0.16544 0.0
H387 H 0.43683 0.97579 0.16464 0.0
H388 H 0.41373 0.94885 0.16294 0.0
H389 H 0.40821 0.97595 0.18471 0.0
C390 C 0.49414 0.04844 0.10377 0.0
N391 N 0.47935 0.04974 0.12533 0.0
N392 N 0.46138 0.03133 0.12422 0.0
C393 C 0.46476 0.01706 0.10264 0.0
C394 C 0.48528 0.02768 0.08861 0.0
C395 C 0.51434 0.06839 0.09656 0.0
H396 H 0.5088 0.08794 0.10415 0.0
H397 H 0.53342 0.06266 0.10514 0.0
H398 H 0.51667 0.06963 0.07533 0.0
O399 O 0.44803 0.09723 0.15005 0.0
O400 O 0.41662 0.06737 0.14751 0.0
H401 H 0.43057 0.99895 0.08678 0.0
H402 H 0.46017 0.98026 0.08242 0.0
C403 C 0.44927 0.99306 0.09598 0.0
H404 H 0.44497 0.98171 0.11367 0.0
H405 H 0.39184 0.03354 0.1082 0.0
O406 O 0.5107 0.09515 0.15357 0.0
C407 C 0.42393 0.09123 0.1478 0.0
Co408 Co 0.67938 0.26331 0.62449 0.0
Co409 Co 0.71068 0.31429 0.63626 0.0
C410 C 0.7143 0.28769 0.58447 0.0
O411 O 0.69949 0.26866 0.59112 0.0
O412 O 0.71949 0.30627 0.60004 0.0
C413 C 0.66954 0.20763 0.61543 0.0
O414 O 0.69339 0.20678 0.606 0.0
C415 C 0.75587 0.34912 0.64394 0.0
C416 C 0.73725 0.38187 0.66501 0.0
C417 C 0.76085 0.37344 0.65485 0.0
N418 N 0.73047 0.34344 0.64766 0.0
N419 N 0.71953 0.36298 0.66044 0.0
C420 C 0.77441 0.33222 0.62905 0.0
H421 H 0.76386 0.31638 0.61879 0.0
H422 H 0.78853 0.32299 0.64255 0.0
H423 H 0.78564 0.3443 0.61511 0.0
C424 C 0.70523 0.24756 0.67441 0.0
N425 N 0.702 0.26398 0.65417 0.0
N426 N 0.7155 0.28549 0.65857 0.0
C427 C 0.72768 0.28356 0.68156 0.0
C428 C 0.72173 0.2594 0.69239 0.0
C429 C 0.69195 0.22153 0.67689 0.0
H430 H 0.67046 0.22413 0.67496 0.0
H431 H 0.69862 0.20856 0.66107 0.0
H432 H 0.6965 0.21187 0.69552 0.0
O433 O 0.651 0.29066 0.62843 0.0
O434 O 0.67439 0.32587 0.63803 0.0
H435 H 0.72827 0.3233 0.69476 0.0
H436 H 0.74687 0.30145 0.71474 0.0
C437 C 0.74134 0.30596 0.69457 0.0
H438 H 0.75926 0.311 0.68361 0.0
H439 H 0.69982 0.36362 0.66567 0.0
O440 O 0.66052 0.2293 0.62362 0.0
C441 C 0.6524 0.3149 0.63443 0.0
Co442 Co 0.48351 0.92427 0.37465 0.0
Co443 Co 0.43501 0.96072 0.382 0.0
C444 C 0.46649 0.96202 0.3331 0.0
O445 O 0.4817 0.94388 0.34113 0.0
O446 O 0.44784 0.9707 0.34699 0.0
C447 C 0.53838 0.90763 0.37046 0.0
O448 O 0.54391 0.9315 0.36262 0.0
C449 C 0.40123 0.00776 0.38839 0.0
C450 C 0.36835 0.98991 0.40983 0.0
C451 C 0.37709 0.01333 0.39945 0.0
N452 N 0.40645 0.98219 0.39228 0.0
N453 N 0.38676 0.97175 0.40521 0.0
C454 C 0.41845 0.026 0.37347 0.0
H455 H 0.43296 0.01501 0.36192 0.0
H456 H 0.42925 0.03879 0.38713 0.0
H457 H 0.40647 0.0387 0.36067 0.0
C458 C 0.4977 0.94864 0.42538 0.0
N459 N 0.48256 0.94692 0.40408 0.0
N460 N 0.46215 0.96242 0.40692 0.0
C461 C 0.46373 0.97461 0.42993 0.0
C462 C 0.48631 0.96632 0.44245 0.0
C463 C 0.52215 0.93303 0.42959 0.0
H464 H 0.51783 0.91185 0.42717 0.0
H465 H 0.5368 0.93872 0.41489 0.0
H466 H 0.53075 0.93651 0.44892 0.0
O467 O 0.45429 0.89896 0.37663 0.0
O468 O 0.41993 0.92483 0.38163 0.0
H469 H 0.42395 0.97971 0.44162 0.0
H470 H 0.4468 0.99795 0.46085 0.0
C471 C 0.44234 0.99121 0.44103 0.0
H472 H 0.43919 0.00855 0.42851 0.0
H473 H 0.38578 0.95209 0.41073 0.0
O474 O 0.51491 0.90169 0.37595 0.0
C475 C 0.42979 0.90204 0.37962 0.0
Co476 Co 0.81411 0.73459 0.12744 0.0
Co477 Co 0.77332 0.69013 0.13626 0.0
C478 C 0.77756 0.71599 0.08508 0.0
O479 O 0.79515 0.73193 0.093 0.0
O480 O 0.76775 0.69869 0.09986 0.0
C481 C 0.83251 0.78882 0.12484 0.0
O482 O 0.8078 0.79533 0.12179 0.0
C483 C 0.72803 0.6546 0.13646 0.0
C484 C 0.73637 0.63191 0.17192 0.0
C485 C 0.71917 0.63388 0.15138 0.0
N486 N 0.74944 0.66454 0.1479 0.0
N487 N 0.75419 0.65105 0.16914 0.0
C488 C 0.7187 0.66276 0.11029 0.0
H489 H 0.7164 0.6844 0.10976 0.0
H490 H 0.69996 0.65324 0.10498 0.0
H491 H 0.73373 0.65737 0.0958 0.0
C492 C 0.78971 0.75285 0.17727 0.0
N493 N 0.79048 0.73751 0.156 0.0
N494 N 0.7717 0.71994 0.15768 0.0
C495 C 0.75765 0.72428 0.17917 0.0
C496 C 0.76888 0.74483 0.19268 0.0
C497 C 0.81053 0.77219 0.18443 0.0
H498 H 0.82974 0.76583 0.17671 0.0
H499 H 0.80553 0.79157 0.17603 0.0
H500 H 0.812 0.77442 0.20566 0.0
O501 O 0.83695 0.70333 0.13263 0.0
O502 O 0.80733 0.6726 0.14002 0.0
H503 H 0.7395 0.69163 0.19794 0.0
H504 H 0.72065 0.72134 0.19892 0.0
C505 C 0.7337 0.70918 0.18669 0.0
H506 H 0.72279 0.70286 0.16928 0.0
H507 H 0.77019 0.65436 0.18126 0.0
O508 O 0.83862 0.76477 0.12702 0.0
C509 C 0.83106 0.67968 0.13798 0.0
Co510 Co 0.01669 0.07458 0.8778 0.0
Co511 Co 0.06648 0.0401 0.88378 0.0
C512 C 0.03643 0.03923 0.83451 0.0
O513 O 0.02052 0.05638 0.84334 0.0
O514 O 0.05525 0.03044 0.84818 0.0
C515 C 0.96093 0.0835 0.87466 0.0
O516 O 0.95966 0.05854 0.86846 0.0
C517 C 0.10322 0.99577 0.88777 0.0
C518 C 0.12901 0.00995 0.91914 0.0
C519 C 0.12435 0.98873 0.90315 0.0
N520 N 0.09562 0.01998 0.89466 0.0
N521 N 0.11125 0.02843 0.9132 0.0
C522 C 0.08879 0.97904 0.86877 0.0
H523 H 0.0677 0.98428 0.86857 0.0
H524 H 0.09102 0.95792 0.87346 0.0
H525 H 0.0968 0.98264 0.84922 0.0
C526 C 0.00354 0.04724 0.92759 0.0
N527 N 0.01858 0.05094 0.90647 0.0
N528 N 0.03893 0.03521 0.90785 0.0
C529 C 0.03697 0.02027 0.92924 0.0
C530 C 0.0147 0.02761 0.94278 0.0
C531 C 0.98057 0.06407 0.93446 0.0
H532 H 0.98375 0.08441 0.92761 0.0
H533 H 0.96277 0.05612 0.925 0.0
H534 H 0.97732 0.06438 0.9556 0.0
O535 O 0.04399 0.10167 0.8813 0.0
O536 O 0.07949 0.07709 0.88515 0.0
H537 H 0.07338 0.00671 0.9447 0.0
H538 H 0.04638 0.9845 0.94981 0.0
C539 C 0.05535 0.99844 0.93598 0.0
H540 H 0.06064 0.98746 0.91836 0.0
H541 H 0.10934 0.0466 0.92227 0.0
O542 O 0.98313 0.09386 0.87882 0.0
C543 C 0.06862 0.09955 0.88421 0.0
Co544 Co 0.82601 0.76768 0.62966 0.0
Co545 Co 0.79188 0.81816 0.63372 0.0
C546 C 0.78932 0.78437 0.58679 0.0
O547 O 0.80693 0.76912 0.59585 0.0
O548 O 0.78095 0.80407 0.59951 0.0
C549 C 0.8402 0.71173 0.62774 0.0
O550 O 0.81642 0.70671 0.61939 0.0
C551 C 0.75137 0.85992 0.63326 0.0
C552 C 0.76875 0.88681 0.66211 0.0
C553 C 0.74795 0.88407 0.64522 0.0
N554 N 0.77323 0.84893 0.64289 0.0
N555 N 0.7834 0.86506 0.66014 0.0
C556 C 0.73609 0.8486 0.61129 0.0
H557 H 0.72872 0.82891 0.61681 0.0
H558 H 0.71951 0.86133 0.6055 0.0
H559 H 0.74927 0.84596 0.59451 0.0
C560 C 0.79954 0.75692 0.68 0.0
N561 N 0.80291 0.77123 0.65837 0.0
N562 N 0.7881 0.7923 0.65972 0.0
C563 C 0.77448 0.79187 0.68197 0.0
C564 C 0.78141 0.76951 0.69569 0.0
C565 C 0.81375 0.73188 0.6856 0.0
H566 H 0.83516 0.73511 0.68385 0.0
H567 H 0.80793 0.71697 0.67115 0.0
H568 H 0.80914 0.72411 0.70502 0.0
O569 O 0.85296 0.79533 0.63086 0.0
O570 O 0.82851 0.83098 0.63289 0.0
H571 H 0.76985 0.83059 0.69686 0.0
H572 H 0.74521 0.80821 0.70779 0.0
C573 C 0.75735 0.81384 0.69103 0.0
H574 H 0.74435 0.8203 0.67511 0.0
H575 H 0.80078 0.86147 0.67014 0.0
O576 O 0.8468 0.73519 0.63267 0.0
C577 C 0.85086 0.8201 0.63218 0.0
Co578 Co 0.48388 0.57344 0.87777 0.0
Co579 Co 0.43176 0.54272 0.8863 0.0
C580 C 0.46111 0.54003 0.83583 0.0
O581 O 0.48003 0.55424 0.84388 0.0
O582 O 0.44157 0.53485 0.85018 0.0
C583 C 0.53963 0.58378 0.8706 0.0
O584 O 0.54064 0.5606 0.85959 0.0
C585 C 0.39598 0.49758 0.89101 0.0
C586 C 0.36243 0.51626 0.91067 0.0
C587 C 0.37101 0.4927 0.90043 0.0
N588 N 0.40181 0.52286 0.89562 0.0
N589 N 0.38175 0.53383 0.90754 0.0
C590 C 0.41345 0.47908 0.87671 0.0
H591 H 0.42945 0.48977 0.86688 0.0
H592 H 0.42241 0.46513 0.89056 0.0
H593 H 0.40193 0.46763 0.86246 0.0
C594 C 0.4968 0.54622 0.92743 0.0
N595 N 0.48133 0.55011 0.90665 0.0
N596 N 0.45941 0.53696 0.90988 0.0
C597 C 0.46015 0.52439 0.93274 0.0
C598 C 0.4839 0.52976 0.94467 0.0
C599 C 0.52298 0.55888 0.93109 0.0
H600 H 0.53599 0.55311 0.91499 0.0
H601 H 0.53234 0.55289 0.94948 0.0
H602 H 0.52073 0.58052 0.93062 0.0
O603 O 0.45683 0.60193 0.88099 0.0
O604 O 0.42063 0.57932 0.88854 0.0
H605 H 0.41992 0.52413 0.94413 0.0
H606 H 0.44069 0.50485 0.96473 0.0
C607 C 0.43706 0.51081 0.9445 0.0
H608 H 0.43226 0.49314 0.93297 0.0
H609 H 0.38108 0.55346 0.91318 0.0
O610 O 0.51789 0.59221 0.87909 0.0
C611 C 0.43237 0.60109 0.88587 0.0
Co612 Co 0.68187 0.23306 0.12541 0.0
Co613 Co 0.71082 0.18042 0.13484 0.0
C614 C 0.71479 0.20906 0.0839 0.0
O615 O 0.70111 0.22852 0.09159 0.0
O616 O 0.71918 0.18952 0.0986 0.0
C617 C 0.67166 0.28865 0.1171 0.0
O618 O 0.6946 0.28952 0.1057 0.0
C619 C 0.7555 0.14477 0.14113 0.0
C620 C 0.73679 0.11168 0.16163 0.0
C621 C 0.76044 0.12034 0.15179 0.0
N622 N 0.73009 0.15041 0.14483 0.0
N623 N 0.71906 0.13063 0.15719 0.0
C624 C 0.77414 0.16184 0.1265 0.0
H625 H 0.76366 0.17785 0.11642 0.0
H626 H 0.78833 0.17081 0.14008 0.0
H627 H 0.78534 0.14989 0.11243 0.0
C628 C 0.71103 0.24702 0.174 0.0
N629 N 0.70517 0.23066 0.15431 0.0
N630 N 0.71765 0.20837 0.15786 0.0
C631 C 0.73184 0.20983 0.17975 0.0
C632 C 0.72833 0.23439 0.19059 0.0
C633 C 0.69997 0.274 0.17701 0.0
H634 H 0.67828 0.27306 0.17629 0.0
H635 H 0.70665 0.28639 0.16073 0.0
H636 H 0.70627 0.2832 0.19538 0.0
O637 O 0.6528 0.20679 0.12889 0.0
O638 O 0.67405 0.16997 0.13727 0.0
H639 H 0.73364 0.16967 0.19184 0.0
H640 H 0.7526 0.19158 0.21162 0.0
C641 C 0.74633 0.18728 0.19159 0.0
H642 H 0.76395 0.18297 0.17991 0.0
H643 H 0.69935 0.12996 0.16242 0.0
O644 O 0.6635 0.26709 0.12628 0.0
C645 C 0.65274 0.18239 0.1342 0.0
Co646 Co 0.0145 0.42867 0.37649 0.0
Co647 Co 0.06616 0.46092 0.38523 0.0
C648 C 0.03679 0.4637 0.33508 0.0
O649 O 0.01821 0.44881 0.34278 0.0
O650 O 0.05621 0.46911 0.34952 0.0
C651 C 0.9584 0.41833 0.37131 0.0
O652 O 0.95691 0.44262 0.36296 0.0
C653 C 0.10401 0.50503 0.38983 0.0
C654 C 0.13409 0.48615 0.41427 0.0
C655 C 0.12812 0.5093 0.4016 0.0
N656 N 0.09616 0.48049 0.39552 0.0
N657 N 0.11422 0.46943 0.4102 0.0
C658 C 0.08922 0.52342 0.37267 0.0
H659 H 0.07455 0.5128 0.36096 0.0
H660 H 0.0787 0.53794 0.38475 0.0
H661 H 0.10289 0.53418 0.35984 0.0
C662 C 0.00211 0.4545 0.42706 0.0
N663 N 0.01701 0.4516 0.40576 0.0
N664 N 0.0382 0.46608 0.4084 0.0
C665 C 0.03718 0.47904 0.431 0.0
C666 C 0.01433 0.47212 0.44364 0.0
C667 C 0.97759 0.43932 0.43219 0.0
H668 H 0.96216 0.44589 0.4186 0.0
H669 H 0.97044 0.44233 0.45216 0.0
H670 H 0.98117 0.41814 0.4288 0.0
O671 O 0.04205 0.40074 0.37929 0.0
O672 O 0.07761 0.42433 0.38693 0.0
H673 H 0.07636 0.48174 0.44524 0.0
H674 H 0.05414 0.50434 0.46034 0.0
C675 C 0.05934 0.49479 0.44186 0.0
H676 H 0.0651 0.51012 0.42783 0.0
H677 H 0.11308 0.4503 0.41726 0.0
O678 O 0.98061 0.40906 0.37758 0.0
C679 C 0.06649 0.40225 0.3841 0.0
Co680 Co 0.81815 0.23765 0.90242 0.0
Co681 Co 0.78696 0.18565 0.89698 0.0
C682 C 0.78108 0.21976 0.94407 0.0
O683 O 0.79694 0.23704 0.93536 0.0
O684 O 0.77585 0.19911 0.93118 0.0
C685 C 0.83349 0.29393 0.90421 0.0
O686 O 0.8101 0.3 0.91287 0.0
C687 C 0.74466 0.1467 0.89561 0.0
C688 C 0.76426 0.11457 0.87438 0.0
C689 C 0.74132 0.12124 0.88686 0.0
N690 N 0.76861 0.1547 0.8885 0.0
N691 N 0.78011 0.13554 0.87562 0.0
C692 C 0.72696 0.16215 0.91282 0.0
H693 H 0.72911 0.18342 0.90874 0.0
H694 H 0.70623 0.1562 0.91046 0.0
H695 H 0.73276 0.15869 0.93317 0.0
C696 C 0.79323 0.24689 0.85068 0.0
N697 N 0.79637 0.233 0.87263 0.0
N698 N 0.78295 0.21106 0.87071 0.0
C699 C 0.77081 0.21025 0.84764 0.0
C700 C 0.77692 0.23293 0.83406 0.0
C701 C 0.80606 0.27276 0.84565 0.0
H702 H 0.82765 0.27034 0.84626 0.0
H703 H 0.80049 0.28671 0.86107 0.0
H704 H 0.80014 0.28115 0.8268 0.0
O705 O 0.84613 0.21023 0.9028 0.0
O706 O 0.82328 0.17381 0.89818 0.0
H707 H 0.7701 0.16978 0.83708 0.0
H708 H 0.74847 0.18969 0.81808 0.0
C709 C 0.75648 0.18669 0.8377 0.0
H710 H 0.74025 0.18177 0.85104 0.0
H711 H 0.79909 0.13653 0.86829 0.0
O712 O 0.839 0.27019 0.89923 0.0
C713 C 0.84509 0.18543 0.90041 0.0
Co714 Co 0.01373 0.57515 0.15718 0.0
Co715 Co 0.06381 0.54085 0.15141 0.0
C716 C 0.03032 0.53768 0.19903 0.0
O717 O 0.01368 0.55417 0.19025 0.0
O718 O 0.05064 0.53162 0.18611 0.0
C719 C 0.95824 0.5906 0.1588 0.0
O720 O 0.95263 0.56645 0.1657 0.0
C721 C 0.10033 0.4955 0.14838 0.0
C722 C 0.12997 0.5121 0.12195 0.0
C723 C 0.12357 0.48983 0.13579 0.0
N724 N 0.0931 0.52002 0.1419 0.0
N725 N 0.1109 0.52973 0.12608 0.0
C726 C 0.08582 0.47819 0.1668 0.0
H727 H 0.07343 0.48985 0.17991 0.0
H728 H 0.07297 0.46471 0.15574 0.0
H729 H 0.09971 0.46617 0.17828 0.0
C730 C 0.00173 0.54906 0.10647 0.0
N731 N 0.01655 0.55268 0.12776 0.0
N732 N 0.03707 0.53714 0.12645 0.0
C733 C 0.03556 0.52253 0.10488 0.0
C734 C 0.01332 0.52979 0.09122 0.0
C735 C 0.97824 0.5653 0.0999 0.0
H736 H 0.98139 0.58588 0.10606 0.0
H737 H 0.96097 0.55744 0.11031 0.0
H738 H 0.97413 0.56497 0.0789 0.0
O739 O 0.04235 0.60156 0.15653 0.0
O740 O 0.07755 0.57709 0.15062 0.0
H741 H 0.07281 0.50952 0.09108 0.0
H742 H 0.04613 0.48751 0.08353 0.0
C743 C 0.05427 0.50094 0.09831 0.0
H744 H 0.05854 0.48929 0.11581 0.0
H745 H 0.11006 0.54852 0.11814 0.0
O746 O 0.9819 0.59699 0.15475 0.0
C747 C 0.06689 0.59946 0.15296 0.0
Co748 Co 0.68296 0.76567 0.40521 0.0
Co749 Co 0.72376 0.81087 0.40104 0.0
C750 C 0.71923 0.78077 0.44956 0.0
O751 O 0.70033 0.76719 0.44042 0.0
O752 O 0.73067 0.79821 0.43615 0.0
C753 C 0.67015 0.71107 0.40703 0.0
O754 O 0.69499 0.70882 0.41328 0.0
C755 C 0.77015 0.84496 0.40263 0.0
C756 C 0.76122 0.87183 0.37029 0.0
C757 C 0.77955 0.86656 0.38928 0.0
N758 N 0.74727 0.83785 0.39192 0.0
N759 N 0.74204 0.85398 0.37265 0.0
C760 C 0.78307 0.83043 0.42424 0.0
H761 H 0.77949 0.80907 0.42214 0.0
H762 H 0.80447 0.8342 0.42464 0.0
H763 H 0.7744 0.83686 0.44279 0.0
C764 C 0.70951 0.75079 0.35558 0.0
N765 N 0.7077 0.76514 0.37741 0.0
N766 N 0.72591 0.78338 0.37695 0.0
C767 C 0.74048 0.78062 0.35552 0.0
C768 C 0.73035 0.76021 0.34097 0.0
C769 C 0.6897 0.73083 0.34734 0.0
H770 H 0.66998 0.7364 0.35438 0.0
H771 H 0.69501 0.71153 0.35573 0.0
H772 H 0.6891 0.72887 0.32605 0.0
O773 O 0.65946 0.79621 0.40064 0.0
O774 O 0.68904 0.82789 0.39865 0.0
H775 H 0.75733 0.81554 0.33984 0.0
H776 H 0.77712 0.78664 0.33563 0.0
C777 C 0.76387 0.79707 0.34912 0.0
H778 H 0.77486 0.8019 0.36693 0.0
H779 H 0.72528 0.85282 0.36117 0.0
O780 O 0.6607 0.7338 0.40323 0.0
C781 C 0.66532 0.82035 0.39825 0.0
Co782 Co 0.48732 0.4377 0.6535 0.0
Co783 Co 0.44251 0.47844 0.64475 0.0
C784 C 0.47184 0.47763 0.69447 0.0
O785 O 0.48649 0.45889 0.68665 0.0
O786 O 0.45381 0.48701 0.68017 0.0
C787 C 0.54086 0.42205 0.65997 0.0
O788 O 0.54373 0.44655 0.66732 0.0
C789 C 0.40916 0.52562 0.64092 0.0
C790 C 0.38455 0.51478 0.60745 0.0
C791 C 0.38892 0.5345 0.62527 0.0
N792 N 0.41641 0.50178 0.63255 0.0
N793 N 0.40158 0.49541 0.61262 0.0
C794 C 0.42238 0.53985 0.66253 0.0
H795 H 0.44365 0.53538 0.66252 0.0
H796 H 0.41943 0.56136 0.66089 0.0
H797 H 0.41414 0.53298 0.68113 0.0
C798 C 0.50484 0.46091 0.60308 0.0
N799 N 0.48908 0.46013 0.62398 0.0
N800 N 0.47099 0.47833 0.62153 0.0
C801 C 0.4751 0.49175 0.59954 0.0
C802 C 0.49635 0.48092 0.58685 0.0
C803 C 0.52595 0.44134 0.59761 0.0
H804 H 0.51965 0.42153 0.60388 0.0
H805 H 0.54376 0.44679 0.60865 0.0
H806 H 0.5309 0.44086 0.5768 0.0
O807 O 0.45592 0.41454 0.65073 0.0
O808 O 0.42491 0.44416 0.64432 0.0
H809 H 0.44144 0.50809 0.58097 0.0
H810 H 0.47071 0.52736 0.57737 0.0
C811 C 0.45938 0.51496 0.59095 0.0
H812 H 0.45375 0.52702 0.60781 0.0
H813 H 0.40317 0.47779 0.60251 0.0
O814 O 0.51822 0.414 0.65364 0.0
C815 C 0.43201 0.42041 0.64674 0.0
Co816 Co 0.18483 0.23437 0.40427 0.0
Co817 Co 0.22555 0.18919 0.39894 0.0
C818 C 0.2227 0.21847 0.44755 0.0
O819 O 0.20334 0.23165 0.43872 0.0
O820 O 0.23446 0.20133 0.43396 0.0
C821 C 0.17192 0.28893 0.40874 0.0
O822 O 0.1967 0.29116 0.41523 0.0
C823 C 0.26581 0.14736 0.39823 0.0
C824 C 0.25485 0.12818 0.36147 0.0
C825 C 0.27145 0.12613 0.38244 0.0
N826 N 0.24671 0.16136 0.38689 0.0
N827 N 0.24044 0.14989 0.36489 0.0
C828 C 0.27573 0.15253 0.42489 0.0
H829 H 0.28355 0.17281 0.42591 0.0
H830 H 0.29115 0.13836 0.43064 0.0
H831 H 0.25917 0.15125 0.43867 0.0
C832 C 0.21121 0.25069 0.35505 0.0
N833 N 0.20896 0.23533 0.37615 0.0
N834 N 0.2272 0.21716 0.37531 0.0
C835 C 0.2423 0.22097 0.3544 0.0
C836 C 0.23242 0.242 0.34052 0.0
C837 C 0.19192 0.27148 0.34767 0.0
H838 H 0.17205 0.26607 0.35441 0.0
H839 H 0.19765 0.29023 0.35694 0.0
H840 H 0.19149 0.27444 0.32648 0.0
O841 O 0.16079 0.2044 0.39996 0.0
O842 O 0.19041 0.17283 0.39837 0.0
H843 H 0.26134 0.1885 0.33621 0.0
H844 H 0.28073 0.21784 0.33755 0.0
C845 C 0.26652 0.2056 0.34838 0.0
H846 H 0.27585 0.19853 0.3664 0.0
H847 H 0.22547 0.15633 0.35272 0.0
O848 O 0.16276 0.26635 0.40368 0.0
C849 C 0.16666 0.18024 0.3982 0.0
Co850 Co 0.5179 0.43093 0.15293 0.0
Co851 Co 0.5692 0.462 0.14182 0.0
C852 C 0.5413 0.46628 0.19305 0.0
O853 O 0.52226 0.45156 0.18615 0.0
O854 O 0.56028 0.4711 0.17785 0.0
C855 C 0.46169 0.416 0.15783 0.0
O856 O 0.45601 0.43994 0.16533 0.0
C857 C 0.60799 0.50466 0.13621 0.0
C858 C 0.63777 0.48427 0.11263 0.0
C859 C 0.63255 0.50761 0.12519 0.0
N860 N 0.59915 0.48055 0.1304 0.0
N861 N 0.61691 0.46865 0.11604 0.0
C862 C 0.59402 0.5236 0.15341 0.0
H863 H 0.57708 0.51424 0.16297 0.0
H864 H 0.58662 0.54022 0.14169 0.0
H865 H 0.60772 0.53157 0.16808 0.0
C866 C 0.5032 0.45654 0.10252 0.0
N867 N 0.51926 0.45321 0.12299 0.0
N868 N 0.54082 0.46674 0.119 0.0
C869 C 0.5392 0.47917 0.09614 0.0
C870 C 0.51528 0.47316 0.08484 0.0
C871 C 0.47713 0.44347 0.09966 0.0
H872 H 0.46404 0.45032 0.11527 0.0
H873 H 0.46773 0.4481 0.08093 0.0
H874 H 0.4795 0.42192 0.1016 0.0
O875 O 0.5453 0.40286 0.15025 0.0
O876 O 0.58068 0.4257 0.14062 0.0
H877 H 0.57832 0.47985 0.08168 0.0
H878 H 0.55665 0.50156 0.06477 0.0
C879 C 0.56161 0.49351 0.08398 0.0
H880 H 0.56786 0.50975 0.0968 0.0
H881 H 0.61511 0.44951 0.10915 0.0
O882 O 0.48522 0.41 0.15262 0.0
C883 C 0.56951 0.4039 0.14453 0.0
Co884 Co 0.31741 0.77157 0.90589 0.0
Co885 Co 0.27853 0.81833 0.89982 0.0
C886 C 0.27804 0.78668 0.94774 0.0
O887 O 0.29642 0.7721 0.93907 0.0
O888 O 0.26893 0.80569 0.9345 0.0
C889 C 0.33014 0.71707 0.91148 0.0
O890 O 0.30589 0.71547 0.91976 0.0
C891 C 0.23347 0.85462 0.89512 0.0
C892 C 0.24827 0.88038 0.86402 0.0
C893 C 0.22688 0.87588 0.87971 0.0
N894 N 0.25763 0.84672 0.88847 0.0
N895 N 0.26641 0.86236 0.8701 0.0
C896 C 0.21676 0.84098 0.9146 0.0
H897 H 0.22103 0.81963 0.91458 0.0
H898 H 0.19566 0.84431 0.91063 0.0
H899 H 0.22146 0.84875 0.93405 0.0
C900 C 0.29374 0.75786 0.85474 0.0
N901 N 0.29481 0.77227 0.87654 0.0
N902 N 0.27725 0.79109 0.87506 0.0
C903 C 0.26385 0.78872 0.85277 0.0
C904 C 0.27402 0.76778 0.83898 0.0
C905 C 0.31194 0.73568 0.84879 0.0
H906 H 0.33243 0.74173 0.85272 0.0
H907 H 0.30726 0.71891 0.86159 0.0
H908 H 0.31005 0.72905 0.82851 0.0
O909 O 0.34236 0.80169 0.90416 0.0
O910 O 0.31358 0.83389 0.90072 0.0
H911 H 0.25364 0.82566 0.83614 0.0
H912 H 0.2315 0.79983 0.82778 0.0
C913 C 0.24367 0.8079 0.84356 0.0
H914 H 0.23065 0.81345 0.8597 0.0
H915 H 0.28472 0.86042 0.86139 0.0
O916 O 0.3391 0.73928 0.90477 0.0
C917 C 0.3371 0.82601 0.90205 0.0
Co918 Co 0.98017 0.56404 0.65453 0.0
Co919 Co 0.93489 0.52436 0.64565 0.0
C920 C 0.96607 0.52196 0.6939 0.0
O921 O 0.9795 0.54203 0.68717 0.0
O922 O 0.94824 0.51252 0.6794 0.0
C923 C 0.03379 0.58347 0.66075 0.0
O924 O 0.03996 0.55983 0.66882 0.0
C925 C 0.89299 0.48469 0.64456 0.0
C926 C 0.87212 0.4975 0.60926 0.0
C927 C 0.87092 0.48001 0.62959 0.0
N928 N 0.90668 0.50401 0.63329 0.0
N929 N 0.89416 0.51149 0.61223 0.0
C930 C 0.89906 0.47412 0.67082 0.0
H931 H 0.90087 0.49066 0.6846 0.0
H932 H 0.91824 0.4639 0.67029 0.0
H933 H 0.88376 0.46047 0.67783 0.0
C934 C 0.99624 0.54229 0.60299 0.0
N935 N 0.98084 0.54262 0.62413 0.0
N936 N 0.96236 0.52487 0.62131 0.0
C937 C 0.96601 0.51194 0.59895 0.0
C938 C 0.98736 0.5228 0.58632 0.0
C939 C 0.01874 0.56058 0.59877 0.0
H940 H 0.03424 0.55622 0.61312 0.0
H941 H 0.02721 0.55847 0.57921 0.0
H942 H 0.01222 0.5811 0.60182 0.0
O943 O 0.94967 0.5879 0.65319 0.0
O944 O 0.91803 0.55895 0.6481 0.0
H945 H 0.9323 0.50024 0.57735 0.0
H946 H 0.9584 0.47699 0.57627 0.0
C947 C 0.94808 0.49101 0.58892 0.0
H948 H 0.93941 0.47981 0.60508 0.0
H949 H 0.9 0.52713 0.60059 0.0
O950 O 0.01032 0.5884 0.65432 0.0
C951 C 0.92556 0.58251 0.65049 0.0
Co952 Co 0.18226 0.76837 0.13074 0.0
Co953 Co 0.22037 0.81458 0.14313 0.0
C954 C 0.2194 0.79017 0.09071 0.0
O955 O 0.20218 0.77324 0.09725 0.0
O956 O 0.22786 0.80725 0.10657 0.0
C957 C 0.1684 0.71432 0.12059 0.0
O958 O 0.19222 0.71266 0.11121 0.0
C959 C 0.26738 0.84715 0.14895 0.0
C960 C 0.25482 0.87413 0.17995 0.0
C961 C 0.27564 0.86812 0.16395 0.0
N962 N 0.24285 0.84101 0.15595 0.0
N963 N 0.23542 0.85725 0.17439 0.0
C964 C 0.28269 0.83224 0.12925 0.0
H965 H 0.27679 0.81128 0.12943 0.0
H966 H 0.30405 0.83392 0.13292 0.0
H967 H 0.27829 0.84029 0.10985 0.0
C968 C 0.20637 0.74829 0.17971 0.0
N969 N 0.20532 0.76534 0.15979 0.0
N970 N 0.2222 0.78433 0.16406 0.0
C971 C 0.23487 0.77978 0.18643 0.0
C972 C 0.22517 0.75684 0.19723 0.0
C973 C 0.18875 0.72501 0.18256 0.0
H974 H 0.16809 0.73105 0.17963 0.0
H975 H 0.1938 0.71037 0.16759 0.0
H976 H 0.19091 0.71551 0.20168 0.0
O977 O 0.15744 0.79847 0.13622 0.0
O978 O 0.18558 0.83009 0.14561 0.0
H979 H 0.24156 0.81633 0.20537 0.0
H980 H 0.26308 0.79082 0.21605 0.0
C981 C 0.25299 0.79905 0.19898 0.0
H982 H 0.26795 0.80554 0.18492 0.0
H983 H 0.21707 0.85676 0.18321 0.0
O984 O 0.1603 0.73626 0.12904 0.0
C985 C 0.16224 0.82219 0.14244 0.0
Co986 Co 0.98152 0.43488 0.88098 0.0
Co987 Co 0.93778 0.47692 0.88894 0.0
C988 C 0.96844 0.47713 0.84081 0.0
O989 O 0.98103 0.45662 0.84796 0.0
O990 O 0.95116 0.48776 0.85509 0.0
C991 C 0.03554 0.41597 0.87955 0.0
O992 O 0.04204 0.44077 0.877 0.0
C993 C 0.8969 0.51794 0.89056 0.0
C994 C 0.87834 0.5076 0.92776 0.0
C995 C 0.87611 0.52408 0.90669 0.0
N996 N 0.91087 0.49877 0.90185 0.0
N997 N 0.89974 0.49282 0.92408 0.0
C998 C 0.90147 0.52721 0.86357 0.0
H999 H 0.90251 0.51003 0.85048 0.0
H1000 H 0.92066 0.53738 0.86265 0.0
H1001 H 0.8858 0.54063 0.85685 0.0
C1002 C 0.99847 0.45771 0.9323 0.0
N1003 N 0.98303 0.45686 0.91109 0.0
N1004 N 0.96545 0.47566 0.91289 0.0
C1005 C 0.96985 0.48971 0.9344 0.0
C1006 C 0.99048 0.47854 0.94773 0.0
C1007 C 0.01893 0.43779 0.93883 0.0
H1008 H 0.0133 0.4183 0.93114 0.0
H1009 H 0.03779 0.44378 0.93005 0.0
H1010 H 0.02177 0.43641 0.96001 0.0
O1011 O 0.94997 0.41228 0.88272 0.0
O1012 O 0.91966 0.44285 0.88698 0.0
H1013 H 0.93905 0.50995 0.95404 0.0
H1014 H 0.96911 0.52796 0.95206 0.0
C1015 C 0.95587 0.51455 0.94134 0.0
H1016 H 0.94872 0.52465 0.92376 0.0
H1017 H 0.90608 0.47773 0.93617 0.0
O1018 O 0.01147 0.40982 0.88095 0.0
C1019 C 0.92609 0.41889 0.8851 0.0
Co1020 Co 0.32645 0.23754 0.62954 0.0
Co1021 Co 0.29091 0.1879 0.63308 0.0
C1022 C 0.29012 0.22137 0.58606 0.0
O1023 O 0.3078 0.23643 0.59532 0.0
O1024 O 0.28113 0.20197 0.59879 0.0
C1025 C 0.34229 0.29318 0.62792 0.0
O1026 O 0.31872 0.29884 0.61938 0.0
C1027 C 0.249 0.14794 0.63214 0.0
C1028 C 0.26614 0.11885 0.65902 0.0
C1029 C 0.2451 0.12329 0.64281 0.0
N1030 N 0.27146 0.15759 0.64175 0.0
N1031 N 0.28143 0.14023 0.65794 0.0
C1032 C 0.23353 0.16094 0.61123 0.0
H1033 H 0.23148 0.18217 0.61555 0.0
H1034 H 0.21393 0.1519 0.60888 0.0
H1035 H 0.24436 0.15914 0.59279 0.0
C1036 C 0.29998 0.24811 0.68003 0.0
N1037 N 0.30293 0.23429 0.65805 0.0
N1038 N 0.28732 0.21376 0.65886 0.0
C1039 C 0.27348 0.21421 0.68094 0.0
C1040 C 0.28114 0.23588 0.69522 0.0
C1041 C 0.31565 0.27195 0.68671 0.0
H1042 H 0.33683 0.26756 0.68465 0.0
H1043 H 0.3107 0.28788 0.673 0.0
H1044 H 0.31157 0.2789 0.70656 0.0
O1045 O 0.35262 0.20918 0.63076 0.0
O1046 O 0.32706 0.1743 0.6327 0.0
H1047 H 0.26725 0.17529 0.69482 0.0
H1048 H 0.24349 0.19848 0.70625 0.0
C1049 C 0.25546 0.1927 0.6894 0.0
H1050 H 0.24228 0.18721 0.67328 0.0
H1051 H 0.29917 0.14266 0.66767 0.0
O1052 O 0.34816 0.26953 0.63292 0.0
C1053 C 0.34971 0.18449 0.63205 0.0
Co1054 Co 0.51454 0.5707 0.37479 0.0
Co1055 Co 0.56623 0.53846 0.38023 0.0
C1056 C 0.53347 0.53333 0.33282 0.0
O1057 O 0.51654 0.54952 0.34167 0.0
O1058 O 0.55392 0.52736 0.3457 0.0
C1059 C 0.45806 0.5791 0.37422 0.0
O1060 O 0.45634 0.55411 0.36824 0.0
C1061 C 0.61051 0.50047 0.38206 0.0
C1062 C 0.63285 0.51776 0.41449 0.0
C1063 C 0.63322 0.49765 0.39661 0.0
N1064 N 0.59729 0.5213 0.3912 0.0
N1065 N 0.61074 0.53142 0.41057 0.0
C1066 C 0.60246 0.48525 0.35871 0.0
H1067 H 0.59635 0.49896 0.34325 0.0
H1068 H 0.58534 0.47282 0.36361 0.0
H1069 H 0.61857 0.47269 0.35144 0.0
C1070 C 0.50457 0.54441 0.42578 0.0
N1071 N 0.51885 0.54846 0.40424 0.0
N1072 N 0.53984 0.53354 0.40525 0.0
C1073 C 0.53914 0.51885 0.42683 0.0
C1074 C 0.51695 0.52543 0.44081 0.0
C1075 C 0.48098 0.5602 0.43297 0.0
H1076 H 0.48305 0.58061 0.42589 0.0
H1077 H 0.46337 0.55132 0.42396 0.0
H1078 H 0.47816 0.56058 0.45417 0.0
O1079 O 0.54126 0.59917 0.37562 0.0
O1080 O 0.5772 0.57545 0.37976 0.0
H1081 H 0.57568 0.507 0.44327 0.0
H1082 H 0.55004 0.48292 0.44618 0.0
C1083 C 0.5587 0.49798 0.4333 0.0
H1084 H 0.56567 0.48831 0.41545 0.0
H1085 H 0.60496 0.54801 0.42088 0.0
O1086 O 0.48052 0.58938 0.37713 0.0
C1087 C 0.56598 0.5976 0.37815 0.0
H1088 H 0.26902 0.29542 0.23694 0.0
H1089 H 0.26907 0.2149 0.21162 0.0
H1090 H 0.25554 0.20063 0.25473 0.0
H1091 H 0.24191 0.21143 0.29893 0.0
H1092 H 0.24146 0.292 0.3241 0.0
H1093 H 0.25595 0.30617 0.28127 0.0
C1094 C 0.26584 0.27477 0.24083 0.0
C1095 C 0.26977 0.2562 0.22116 0.0
C1096 C 0.2577 0.26686 0.26544 0.0
C1097 C 0.26628 0.22947 0.22655 0.0
C1098 C 0.25838 0.22137 0.2511 0.0
C1099 C 0.24533 0.23205 0.29511 0.0
C1100 C 0.24082 0.25069 0.3146 0.0
C1101 C 0.25382 0.23993 0.27059 0.0
C1102 C 0.24467 0.27739 0.30928 0.0
C1103 C 0.25308 0.28543 0.2849 0.0
H1104 H 0.04301 0.99005 0.54398 0.0
H1105 H 0.96343 0.99322 0.57128 0.0
H1106 H 0.94872 0.00851 0.52884 0.0
H1107 H 0.95878 0.02191 0.48421 0.0
H1108 H 0.03834 0.01798 0.45685 0.0
H1109 H 0.05299 0.00291 0.49931 0.0
C1110 C 0.02248 0.99431 0.54067 0.0
C1111 C 0.00433 0.9907 0.56076 0.0
C1112 C 0.01426 0.00319 0.5163 0.0
C1113 C 0.97772 0.99574 0.55607 0.0
C1114 C 0.96935 0.0046 0.53187 0.0
C1115 C 0.97929 0.0175 0.4875 0.0
C1116 C 0.99747 0.02097 0.46739 0.0
C1117 C 0.98747 0.00848 0.51186 0.0
C1118 C 0.02403 0.01567 0.47207 0.0
C1119 C 0.03237 0.00691 0.49629 0.0
H1120 H 0.22807 0.75276 0.81752 0.0
H1121 H 0.3083 0.7708 0.79919 0.0
H1122 H 0.29889 0.76577 0.75312 0.0
H1123 H 0.26753 0.75671 0.71804 0.0
H1124 H 0.18738 0.7384 0.73641 0.0
H1125 H 0.1966 0.74417 0.78241 0.0
C1126 C 0.24343 0.75546 0.80334 0.0
C1127 C 0.26883 0.76193 0.81154 0.0
C1128 C 0.23769 0.75314 0.77696 0.0
C1129 C 0.28869 0.76541 0.7932 0.0
C1130 C 0.28325 0.76284 0.76691 0.0
C1131 C 0.2521 0.75435 0.7322 0.0
C1132 C 0.22679 0.74748 0.72403 0.0
C1133 C 0.25777 0.75693 0.75857 0.0
C1134 C 0.20689 0.74418 0.74236 0.0
C1135 C 0.21224 0.74713 0.76862 0.0
H1136 H 0.45383 0.01799 0.04751 0.0
H1137 H 0.53495 0.0208 0.07047 0.0
H1138 H 0.5482 0.00697 0.02718 0.0
H1139 H 0.53651 0.99294 0.98328 0.0
H1140 H 0.4554 0.98902 0.96059 0.0
H1141 H 0.44211 0.00337 1.00378 0.0
C1142 C 0.4744 0.01528 0.04311 0.0
C1143 C 0.49342 0.02021 0.06218 0.0
C1144 C 0.48175 0.00685 0.0184 0.0
C1145 C 0.52001 0.01728 0.05605 0.0
C1146 C 0.52754 0.0092 0.03139 0.0
C1147 C 0.51594 0.99551 0.98775 0.0
C1148 C 0.4969 0.99026 0.9688 0.0
C1149 C 0.50857 0.00383 1.01248 0.0
C1150 C 0.47031 0.99292 0.97495 0.0
C1151 C 0.46277 1.00125 0.99954 0.0
H1152 H 0.2711 0.74271 0.21919 0.0
H1153 H 0.18893 0.75214 0.23527 0.0
H1154 H 0.19677 0.74293 0.28098 0.0
H1155 H 0.22762 0.73492 0.31685 0.0
H1156 H 0.31006 0.72781 0.30098 0.0
H1157 H 0.3018 0.73405 0.25485 0.0
C1158 C 0.25496 0.74247 0.23276 0.0
C1159 C 0.2295 0.74789 0.22402 0.0
C1160 C 0.25979 0.73812 0.25906 0.0
C1161 C 0.20864 0.74761 0.24161 0.0
C1162 C 0.21316 0.74266 0.26774 0.0
C1163 C 0.24366 0.73473 0.30317 0.0
C1164 C 0.26938 0.73115 0.31207 0.0
C1165 C 0.23872 0.73835 0.27675 0.0
C1166 C 0.29015 0.73087 0.2944 0.0
C1167 C 0.28541 0.73426 0.26809 0.0
H1168 H 0.49507 0.01383 0.46396 0.0
H1169 H 0.49335 0.93125 0.48141 0.0
H1170 H 0.50251 0.9406 0.52687 0.0
H1171 H 0.50976 0.97257 0.56195 0.0
H1172 H 0.51113 0.05515 0.5444 0.0
H1173 H 0.50276 0.04572 0.49886 0.0
C1174 C 0.49686 0.99796 0.47779 0.0
C1175 C 0.49379 0.97193 0.46948 0.0
C1176 C 0.50165 0.00354 0.50389 0.0
C1177 C 0.49605 0.95142 0.48741 0.0
C1178 C 0.50105 0.95678 0.51339 0.0
C1179 C 0.5082 0.98841 0.54806 0.0
C1180 C 0.5108 0.01449 0.55639 0.0
C1181 C 0.50368 0.98278 0.52189 0.0
C1182 C 0.5088 0.03494 0.53837 0.0
C1183 C 0.50421 0.02955 0.51236 0.0
H1184 H 0.23338 0.24698 0.71501 0.0
H1185 H 0.31421 0.23583 0.73613 0.0
H1186 H 0.30323 0.24182 0.78171 0.0
H1187 H 0.27052 0.25034 0.8155 0.0
H1188 H 0.19001 0.26356 0.79434 0.0
H1189 H 0.20058 0.2556 0.74894 0.0
C1190 C 0.2485 0.24598 0.72969 0.0
C1191 C 0.27454 0.24121 0.72244 0.0
C1192 C 0.24198 0.24931 0.75579 0.0
C1193 C 0.29409 0.23984 0.74142 0.0
C1194 C 0.28778 0.24304 0.76742 0.0
C1195 C 0.25536 0.25143 0.80087 0.0
C1196 C 0.22957 0.25748 0.80808 0.0
C1197 C 0.26179 0.24776 0.77482 0.0
C1198 C 0.20994 0.25859 0.78915 0.0
C1199 C 0.21604 0.25434 0.76322 0.0
H1200 H 0.04459 0.01901 0.98553 0.0
H1201 H 0.96521 0.01418 0.95748 0.0
H1202 H 0.95076 0.99762 0.9994 0.0
H1203 H 0.96082 0.98405 0.04385 0.0
H1204 H 0.04032 0.98716 0.07155 0.0
H1205 H 0.05492 0.00385 0.02957 0.0
C1206 C 0.02418 0.014 0.98849 0.0
C1207 C 0.00598 0.01778 0.96838 0.0
C1208 C 0.01616 0.00392 1.01246 0.0
C1209 C 0.97953 0.01173 0.97271 0.0
C1210 C 0.97131 0.00208 0.99661 0.0
C1211 C 0.98133 0.98849 0.04067 0.0
C1212 C 0.9995 0.98461 0.06073 0.0
C1213 C 0.98946 0.99808 0.01659 0.0
C1214 C 0.02606 0.9899 0.05631 0.0
C1215 C 0.03434 0.99959 0.03239 0.0
H1216 H 0.76978 0.74638 0.81473 0.0
H1217 H 0.68805 0.74703 0.79416 0.0
H1218 H 0.69936 0.75585 0.74908 0.0
H1219 H 0.73276 0.76236 0.71536 0.0
H1220 H 0.81444 0.76288 0.73622 0.0
H1221 H 0.80311 0.75393 0.78122 0.0
C1222 C 0.75453 0.74862 0.8003 0.0
C1223 C 0.72818 0.74626 0.80757 0.0
C1224 C 0.76123 0.75349 0.7745 0.0
C1225 C 0.70847 0.74911 0.7889 0.0
C1226 C 0.71494 0.75395 0.76317 0.0
C1227 C 0.74799 0.7606 0.72986 0.0
C1228 C 0.77436 0.76312 0.72263 0.0
C1229 C 0.74126 0.75602 0.75572 0.0
C1230 C 0.79402 0.76066 0.7414 0.0
C1231 C 0.78754 0.75575 0.76711 0.0
H1232 H 0.79293 0.26015 0.29121 0.0
H1233 H 0.7153 0.26447 0.32319 0.0
H1234 H 0.69621 0.25584 0.28064 0.0
H1235 H 0.70177 0.24639 0.23424 0.0
H1236 H 0.77944 0.24123 0.2025 0.0
H1237 H 0.79848 0.2511 0.2448 0.0
C1238 C 0.77186 0.25892 0.28878 0.0
C1239 C 0.75547 0.26268 0.31016 0.0
C1240 C 0.7611 0.25414 0.26426 0.0
C1241 C 0.7282 0.26148 0.30689 0.0
C1242 C 0.71732 0.25667 0.28261 0.0
C1243 C 0.72282 0.2479 0.23664 0.0
C1244 C 0.73927 0.2435 0.21542 0.0
C1245 C 0.73357 0.25303 0.26111 0.0
C1246 C 0.76652 0.24488 0.21866 0.0
C1247 C 0.77737 0.25033 0.24281 0.0
H1248 H 0.76958 0.25504 0.71435 0.0
H1249 H 0.6873 0.2463 0.73032 0.0
H1250 H 0.69704 0.2376 0.77579 0.0
H1251 H 0.72901 0.23447 0.81142 0.0
H1252 H 0.81128 0.24336 0.7954 0.0
H1253 H 0.80161 0.25083 0.74973 0.0
C1254 C 0.75388 0.25093 0.72783 0.0
C1255 C 0.72782 0.25102 0.71909 0.0
C1256 C 0.75962 0.24656 0.75398 0.0
C1257 C 0.70754 0.24586 0.7366 0.0
C1258 C 0.71309 0.24119 0.76261 0.0
C1259 C 0.74475 0.238 0.79784 0.0
C1260 C 0.77078 0.23858 0.80667 0.0
C1261 C 0.73903 0.24183 0.77158 0.0
C1262 C 0.79107 0.24324 0.78903 0.0
C1263 C 0.78556 0.24727 0.76293 0.0
H1264 H 0.73783 0.79303 0.30048 0.0
H1265 H 0.73917 0.71129 0.32176 0.0
H1266 H 0.75198 0.69944 0.27777 0.0
H1267 H 0.7632 0.71249 0.23359 0.0
H1268 H 0.76168 0.79412 0.21203 0.0
H1269 H 0.74956 0.80614 0.25625 0.0
C1270 C 0.74125 0.77265 0.29553 0.0
C1271 C 0.73777 0.75301 0.3143 0.0
C1272 C 0.74877 0.7661 0.27033 0.0
C1273 C 0.74163 0.72666 0.30755 0.0
C1274 C 0.74907 0.71994 0.28249 0.0
C1275 C 0.75992 0.73289 0.23852 0.0
C1276 C 0.76292 0.75242 0.2196 0.0
C1277 C 0.75268 0.7395 0.26376 0.0
C1278 C 0.75944 0.77882 0.22636 0.0
C1279 C 0.7524 0.78563 0.25154 0.0
H1280 H 0.48675 0.48161 0.96654 0.0
H1281 H 0.49644 0.56384 0.98307 0.0
H1282 H 0.50586 0.55371 0.02829 0.0
H1283 H 0.51098 0.52132 0.06325 0.0
H1284 H 0.50213 0.43902 0.04662 0.0
H1285 H 0.49194 0.44918 1.00155 0.0
C1286 C 0.49105 0.49721 0.98012 0.0
C1287 C 0.49121 0.52337 0.97158 0.0
C1288 C 0.49613 0.49122 1.0061 0.0
C1289 C 0.49667 0.54353 0.98921 0.0
C1290 C 0.50181 0.53776 1.01507 0.0
C1291 C 0.50669 0.5057 0.0497 0.0
C1292 C 0.50705 0.47952 0.05816 0.0
C1293 C 0.5015 0.51168 0.02375 0.0
C1294 C 0.50152 0.45935 0.04055 0.0
C1295 C 0.49597 0.46514 1.01477 0.0
H1296 H 0.00213 0.47687 0.56437 0.0
H1297 H 0.98848 0.55844 0.54736 0.0
H1298 H 0.99529 0.55002 0.50136 0.0
H1299 H 0.00327 0.51885 0.46573 0.0
H1300 H 0.01378 0.43682 0.48266 0.0
H1301 H 0.00887 0.44562 0.52885 0.0
C1302 C 1.0005 0.49272 0.55051 0.0
C1303 C 0.99473 0.51818 0.55911 0.0
C1304 C 0.00327 0.48748 0.52409 0.0
C1305 C 0.99323 0.53873 0.54114 0.0
C1306 C 0.99678 0.53386 0.51485 0.0
C1307 C 0.00415 0.50297 0.47963 0.0
C1308 C 0.00851 0.47723 0.47105 0.0
C1309 C 0.0014 0.50824 0.50607 0.0
C1310 C 0.00998 0.45671 0.489 0.0
C1311 C 0.00745 0.46178 0.51534 0.0
H1312 H 0.04347 0.52211 0.04881 0.0
H1313 H 0.96419 0.51512 0.07646 0.0
H1314 H 0.95032 0.49795 0.03455 0.0
H1315 H 0.96089 0.4847 0.99023 0.0
H1316 H 0.0404 0.48964 0.96306 0.0
H1317 H 0.05446 0.50674 1.00511 0.0
C1318 C 0.02322 0.51651 0.04574 0.0
C1319 C 0.00484 0.51986 0.06567 0.0
C1320 C 0.01561 0.50596 0.02189 0.0
C1321 C 0.97859 0.51303 0.0613 0.0
C1322 C 0.97073 0.503 0.03745 0.0
C1323 C 0.9813 0.48952 0.9936 0.0
C1324 C 0.99963 0.48619 0.9737 0.0
C1325 C 0.98908 0.49937 0.01765 0.0
C1326 C 0.02606 0.492 0.97825 0.0
C1327 C 0.034 0.50193 1.00216 0.0
H1328 H 0.548 0.51909 0.48298 0.0
H1329 H 0.46853 0.50964 0.45636 0.0
H1330 H 0.4554 0.49415 0.49907 0.0
H1331 H 0.46645 0.48384 0.54404 0.0
H1332 H 0.5459 0.49242 0.57073 0.0
H1333 H 0.55949 0.50677 0.52759 0.0
C1334 C 0.5279 0.51327 0.48645 0.0
C1335 C 0.50921 0.51555 0.46659 0.0
C1336 C 0.52061 0.50405 0.51094 0.0
C1337 C 0.48315 0.50839 0.47146 0.0
C1338 C 0.47569 0.49937 0.49579 0.0
C1339 C 0.48673 0.48888 0.54035 0.0
C1340 C 0.50517 0.48737 0.56044 0.0
C1341 C 0.49422 0.49727 0.51569 0.0
C1342 C 0.53146 0.49343 0.55545 0.0
C1343 C 0.53914 0.50176 0.53088 0.0
H1344 H 0.32622 0.16533 0.13021 0.0
H1345 H 0.38742 0.22363 0.12643 0.0
H1346 H 0.42039 0.18988 0.13392 0.0
H1347 H 0.432 0.14383 0.14176 0.0
H1348 H 0.37078 0.08552 0.14554 0.0
H1349 H 0.33784 0.11925 0.138 0.0
C1350 C 0.34677 0.17065 0.13087 0.0
C1351 C 0.35426 0.197 0.12769 0.0
C1352 C 0.36571 0.15115 0.13537 0.0
C1353 C 0.38102 0.20351 0.12878 0.0
C1354 C 0.39995 0.18422 0.13312 0.0
C1355 C 0.41146 0.13848 0.14107 0.0
C1356 C 0.40398 0.11212 0.14429 0.0
C1357 C 0.39252 0.15798 0.13655 0.0
C1358 C 0.3772 0.10562 0.14317 0.0
C1359 C 0.35829 0.12491 0.1388 0.0
H1360 H 0.09245 0.08306 0.37877 0.0
H1361 H 0.0341 0.14434 0.37964 0.0
H1362 H 0.06793 0.17704 0.38765 0.0
H1363 H 0.11406 0.1884 0.39433 0.0
H1364 H 0.17249 0.12715 0.39371 0.0
H1365 H 0.13865 0.09441 0.38587 0.0
C1366 C 0.08715 0.10357 0.3806 0.0
C1367 C 0.06079 0.11119 0.37852 0.0
C1368 C 0.1067 0.12234 0.3854 0.0
C1369 C 0.05425 0.13788 0.38114 0.0
C1370 C 0.07358 0.15664 0.38575 0.0
C1371 C 0.11941 0.16789 0.39259 0.0
C1372 C 0.14581 0.16034 0.39463 0.0
C1373 C 0.09987 0.1491 0.38797 0.0
C1374 C 0.15233 0.13361 0.39227 0.0
C1375 C 0.13299 0.11482 0.38772 0.0
H1376 H 0.0648 0.86224 0.6445 0.0
H1377 H 0.12672 0.91929 0.63611 0.0
H1378 H 0.15828 0.88424 0.62887 0.0
H1379 H 0.16858 0.83737 0.62483 0.0
H1380 H 0.10699 0.78015 0.63387 0.0
H1381 H 0.07521 0.81522 0.64078 0.0
C1382 C 0.0852 0.86704 0.64115 0.0
C1383 C 0.09324 0.89348 0.6409 0.0
C1384 C 0.1034 0.84671 0.63698 0.0
C1385 C 0.11984 0.8992 0.63649 0.0
C1386 C 0.13798 0.87913 0.63228 0.0
C1387 C 0.14819 0.83254 0.62818 0.0
C1388 C 0.14025 0.8061 0.62871 0.0
C1389 C 0.13 0.85282 0.63241 0.0
C1390 C 0.11372 0.80029 0.63331 0.0
C1391 C 0.09549 0.82036 0.63731 0.0
H1392 H 0.41085 0.9238 0.88559 0.0
H1393 H 0.46911 0.86281 0.87953 0.0
H1394 H 0.43572 0.82951 0.88756 0.0
H1395 H 0.3897 0.81762 0.89584 0.0
H1396 H 0.33188 0.87914 0.90214 0.0
H1397 H 0.36538 0.91212 0.89472 0.0
C1398 C 0.41624 0.90322 0.88588 0.0
C1399 C 0.4424 0.89584 0.8818 0.0
C1400 C 0.39702 0.88418 0.89074 0.0
C1401 C 0.44908 0.86906 0.88254 0.0
C1402 C 0.43001 0.84998 0.88719 0.0
C1403 C 0.38448 0.83824 0.89581 0.0
C1404 C 0.35826 0.84577 0.89952 0.0
C1405 C 0.40389 0.8573 0.89134 0.0
C1406 C 0.35186 0.87265 0.8993 0.0
C1407 C 0.37101 0.89162 0.89498 0.0
H1408 H 0.37908 0.90036 0.39598 0.0
H1409 H 0.4423 0.85101 0.36948 0.0
H1410 H 0.41531 0.81215 0.37617 0.0
H1411 H 0.37442 0.79204 0.39059 0.0
H1412 H 0.31134 0.84095 0.41804 0.0
H1413 H 0.33771 0.88012 0.40994 0.0
C1414 C 0.38691 0.88113 0.39147 0.0
C1415 C 0.41272 0.87866 0.38223 0.0
C1416 C 0.37139 0.85876 0.39568 0.0
C1417 C 0.42255 0.85353 0.37666 0.0
C1418 C 0.40714 0.83126 0.38051 0.0
C1419 C 0.36637 0.81124 0.39482 0.0
C1420 C 0.34093 0.8135 0.40501 0.0
C1421 C 0.38165 0.83363 0.39022 0.0
C1422 C 0.33087 0.8386 0.41028 0.0
C1423 C 0.34594 0.86102 0.40562 0.0
H1424 H 0.35107 0.13321 0.64628 0.0
H1425 H 0.40066 0.19738 0.6224 0.0
H1426 H 0.43925 0.16951 0.62706 0.0
H1427 H 0.45889 0.12739 0.63857 0.0
H1428 H 0.40968 0.06346 0.66369 0.0
H1429 H 0.37085 0.09092 0.6579 0.0
C1430 C 0.3703 0.14107 0.64192 0.0
C1431 C 0.37297 0.16733 0.63394 0.0
C1432 C 0.39243 0.12506 0.64498 0.0
C1433 C 0.39806 0.17726 0.62862 0.0
C1434 C 0.42013 0.16135 0.63128 0.0
C1435 C 0.43968 0.11939 0.64276 0.0
C1436 C 0.43719 0.0934 0.65156 0.0
C1437 C 0.41754 0.1353 0.63958 0.0
C1438 C 0.41215 0.08343 0.65697 0.0
C1439 C 0.38994 0.09909 0.65362 0.0
H1440 H 0.1204 0.21165 0.89451 0.0
H1441 H 0.18681 0.16466 0.91738 0.0
H1442 H 0.16116 0.12472 0.91107 0.0
H1443 H 0.11986 0.10307 0.89898 0.0
H1444 H 0.05341 0.15034 0.87666 0.0
H1445 H 0.07916 0.19013 0.88275 0.0
C1446 C 0.12928 0.1927 0.8982 0.0
C1447 C 0.15552 0.19123 0.90645 0.0
C1448 C 0.11444 0.16979 0.89453 0.0
C1449 C 0.16666 0.16644 0.91108 0.0
C1450 C 0.15201 0.14355 0.90742 0.0
C1451 C 0.11103 0.12206 0.89533 0.0
C1452 C 0.08471 0.12362 0.88729 0.0
C1453 C 0.1259 0.14498 0.89909 0.0
C1454 C 0.07358 0.14847 0.88286 0.0
C1455 C 0.0883 0.17129 0.88636 0.0
H1456 H 0.10934 0.81458 0.13695 0.0
H1457 H 0.16694 0.87332 0.15682 0.0
H1458 H 0.13257 0.90553 0.16323 0.0
H1459 H 0.08627 0.91755 0.16289 0.0
H1460 H 0.02826 0.85943 0.14285 0.0
H1461 H 0.06258 0.82668 0.13694 0.0
C1462 C 0.11436 0.83441 0.14269 0.0
C1463 C 0.14076 0.84138 0.14631 0.0
C1464 C 0.09441 0.85308 0.14637 0.0
C1465 C 0.14685 0.86725 0.1538 0.0
C1466 C 0.12718 0.8858 0.15752 0.0
C1467 C 0.0811 0.89771 0.15732 0.0
C1468 C 0.05473 0.89103 0.15335 0.0
C1469 C 0.10091 0.87897 0.15382 0.0
C1470 C 0.04842 0.86518 0.14605 0.0
C1471 C 0.06805 0.8464 0.14263 0.0
H1472 H 0.66935 0.84815 0.90881 0.0
H1473 H 0.61156 0.78838 0.8931 0.0
H1474 H 0.57849 0.82187 0.88569 0.0
H1475 H 0.56575 0.86789 0.88368 0.0
H1476 H 0.62314 0.9282 0.89867 0.0
H1477 H 0.65653 0.89474 0.90621 0.0
C1478 C 0.64951 0.84249 0.90385 0.0
C1479 C 0.64298 0.81579 0.90159 0.0
C1480 C 0.63049 0.86192 0.89939 0.0
C1481 C 0.61719 0.80877 0.89495 0.0
C1482 C 0.59821 0.82791 0.8907 0.0
C1483 C 0.58555 0.87379 0.88858 0.0
C1484 C 0.59186 0.90053 0.89063 0.0
C1485 C 0.60463 0.85451 0.89285 0.0
C1486 C 0.6177 0.90775 0.8969 0.0
C1487 C 0.63682 0.88862 0.90128 0.0
H1488 H 0.96222 0.87287 0.64204 0.0
H1489 H 0.91454 0.93985 0.66173 0.0
H1490 H 0.87494 0.9138 0.65525 0.0
H1491 H 0.85387 0.87196 0.64437 0.0
H1492 H 0.90169 0.80485 0.6253 0.0
H1493 H 0.94121 0.83114 0.63101 0.0
C1494 C 0.94318 0.8818 0.64498 0.0
C1495 C 0.94139 0.90828 0.65244 0.0
C1496 C 0.9205 0.86673 0.64121 0.0
C1497 C 0.91653 0.9195 0.65608 0.0
C1498 C 0.89385 0.90463 0.65231 0.0
C1499 C 0.87292 0.86309 0.64127 0.0
C1500 C 0.87476 0.83645 0.63435 0.0
C1501 C 0.8956 0.87823 0.64488 0.0
C1502 C 0.89965 0.82529 0.63064 0.0
C1503 C 0.92229 0.8403 0.63394 0.0
H1504 H 0.87964 0.09731 0.39507 0.0
H1505 H 0.94264 0.1468 0.36831 0.0
H1506 H 0.91485 0.18535 0.37276 0.0
H1507 H 0.87324 0.20531 0.38517 0.0
H1508 H 0.8103 0.15649 0.41307 0.0
H1509 H 0.8375 0.11746 0.4072 0.0
C1510 C 0.88724 0.1165 0.39005 0.0
C1511 C 0.91325 0.11907 0.38137 0.0
C1512 C 0.87121 0.13877 0.39295 0.0
C1513 C 0.92278 0.14417 0.37512 0.0
C1514 C 0.90689 0.16629 0.37765 0.0
C1515 C 0.86538 0.18615 0.38992 0.0
C1516 C 0.83974 0.18389 0.39959 0.0
C1517 C 0.88117 0.16385 0.38671 0.0
C1518 C 0.82998 0.15885 0.40566 0.0
C1519 C 0.84553 0.1365 0.40229 0.0
H1520 H 0.53822 0.13587 0.14393 0.0
H1521 H 0.58256 0.06752 0.16673 0.0
H1522 H 0.62328 0.09171 0.161 0.0
H1523 H 0.64636 0.13184 0.1493 0.0
H1524 H 0.60265 0.20062 0.12667 0.0
H1525 H 0.56161 0.17659 0.13255 0.0
C1526 C 0.55678 0.12629 0.14774 0.0
C1527 C 0.55727 0.09988 0.15577 0.0
C1528 C 0.58024 0.14033 0.14436 0.0
C1529 C 0.58153 0.08779 0.16056 0.0
C1530 C 0.60488 0.1016 0.15725 0.0
C1531 C 0.62791 0.14167 0.14557 0.0
C1532 C 0.62767 0.16803 0.13746 0.0
C1533 C 0.60446 0.12782 0.14909 0.0
C1534 C 0.60347 0.18036 0.13289 0.0
C1535 C 0.57998 0.16662 0.13627 0.0
H1536 H 0.61928 0.20361 0.63198 0.0
H1537 H 0.68476 0.15698 0.60623 0.0
H1538 H 0.65939 0.11692 0.61311 0.0
H1539 H 0.61863 0.09516 0.62657 0.0
H1540 H 0.553 0.14217 0.6514 0.0
H1541 H 0.57854 0.18204 0.64485 0.0
C1542 C 0.62804 0.18471 0.6278 0.0
C1543 C 0.65392 0.18334 0.6186 0.0
C1544 C 0.61335 0.16179 0.63175 0.0
C1545 C 0.66487 0.15864 0.61325 0.0
C1546 C 0.6504 0.13571 0.61726 0.0
C1547 C 0.60994 0.11411 0.63068 0.0
C1548 C 0.58393 0.11561 0.63957 0.0
C1549 C 0.62464 0.13705 0.62657 0.0
C1550 C 0.57294 0.14039 0.64454 0.0
C1551 C 0.58753 0.16323 0.64078 0.0
H1552 H 0.61268 0.81204 0.39528 0.0
H1553 H 0.67115 0.87303 0.39027 0.0
H1554 H 0.63728 0.90521 0.38047 0.0
H1555 H 0.591 0.91616 0.3731 0.0
H1556 H 0.5326 0.85522 0.37875 0.0
H1557 H 0.56651 0.82301 0.38832 0.0
C1558 C 0.61804 0.83237 0.39215 0.0
C1559 C 0.64446 0.84001 0.39355 0.0
C1560 C 0.59847 0.85085 0.38646 0.0
C1561 C 0.65098 0.86651 0.3894 0.0
C1562 C 0.63162 0.88498 0.3837 0.0
C1563 C 0.58572 0.89581 0.37625 0.0
C1564 C 0.55932 0.88814 0.37511 0.0
C1565 C 0.60531 0.87736 0.38206 0.0
C1566 C 0.55279 0.8617 0.37952 0.0
C1567 C 0.57216 0.84323 0.38503 0.0
H1568 H 0.93211 0.8604 0.14112 0.0
H1569 H 0.87262 0.9206 0.14269 0.0
H1570 H 0.83875 0.88763 0.13589 0.0
H1571 H 0.82586 0.84169 0.12927 0.0
H1572 H 0.88535 0.78155 0.12782 0.0
H1573 H 0.91923 0.81452 0.13464 0.0
C1574 C 0.91174 0.86633 0.14009 0.0
C1575 C 0.90502 0.89299 0.14246 0.0
C1576 C 0.89228 0.84728 0.13604 0.0
C1577 C 0.87846 0.90025 0.14097 0.0
C1578 C 0.85901 0.8814 0.13702 0.0
C1579 C 0.84624 0.8358 0.13031 0.0
C1580 C 0.85299 0.80917 0.12795 0.0
C1581 C 0.86569 0.85487 0.13442 0.0
C1582 C 0.87953 0.8019 0.12954 0.0
C1583 C 0.89897 0.82075 0.13349 0.0
H1584 H 0.95734 0.13479 0.88879 0.0
H1585 H 0.91024 0.0671 0.86983 0.0
H1586 H 0.87044 0.09247 0.8773 0.0
H1587 H 0.8491 0.13375 0.8886 0.0
H1588 H 0.89588 0.20188 0.90682 0.0
H1589 H 0.93583 0.17623 0.90046 0.0
C1590 C 0.93838 0.12556 0.88624 0.0
C1591 C 0.9368 0.09906 0.87865 0.0
C1592 C 0.91555 0.14027 0.89056 0.0
C1593 C 0.91205 0.08745 0.87554 0.0
C1594 C 0.88927 0.10193 0.87987 0.0
C1595 C 0.868 0.14305 0.89138 0.0
C1596 C 0.86943 0.16975 0.89824 0.0
C1597 C 0.89081 0.12833 0.88736 0.0
C1598 C 0.89416 0.18138 0.90158 0.0
C1599 C 0.91701 0.16674 0.89788 0.0
H1600 H 0.93431 0.63522 0.65122 0.0
H1601 H 0.8727 0.57767 0.64365 0.0
H1602 H 0.84091 0.61241 0.63576 0.0
H1603 H 0.83068 0.65914 0.62968 0.0
H1604 H 0.89235 0.71652 0.63756 0.0
H1605 H 0.92389 0.68185 0.6465 0.0
C1606 C 0.9139 0.63025 0.64805 0.0
C1607 C 0.90601 0.60384 0.64799 0.0
C1608 C 0.89568 0.65031 0.64334 0.0
C1609 C 0.87942 0.59783 0.64382 0.0
C1610 C 0.86118 0.61768 0.6392 0.0
C1611 C 0.85103 0.66403 0.63327 0.0
C1612 C 0.85912 0.69037 0.63279 0.0
C1613 C 0.86913 0.64398 0.63862 0.0
C1614 C 0.88554 0.6964 0.63777 0.0
C1615 C 0.90364 0.67659 0.64292 0.0
H1616 H 0.65124 0.63608 0.88118 0.0
H1617 H 0.60426 0.70004 0.91008 0.0
H1618 H 0.56466 0.67382 0.90421 0.0
H1619 H 0.54332 0.63317 0.8901 0.0
H1620 H 0.59018 0.56969 0.86005 0.0
H1621 H 0.6299 0.59542 0.8671 0.0
C1622 C 0.63237 0.64427 0.8864 0.0
C1623 C 0.63078 0.67001 0.89614 0.0
C1624 C 0.60964 0.62924 0.88261 0.0
C1625 C 0.6061 0.68032 0.90254 0.0
C1626 C 0.58342 0.66534 0.89916 0.0
C1627 C 0.56221 0.62491 0.88507 0.0
C1628 C 0.56372 0.59951 0.87451 0.0
C1629 C 0.58495 0.63986 0.88904 0.0
C1630 C 0.58839 0.5892 0.86811 0.0
C1631 C 0.61114 0.60389 0.87219 0.0
H1632 H 0.61881 0.39991 0.12572 0.0
H1633 H 0.55533 0.35324 0.15602 0.0
H1634 H 0.58148 0.31346 0.15014 0.0
H1635 H 0.62228 0.29214 0.13633 0.0
H1636 H 0.68518 0.33909 0.10529 0.0
H1637 H 0.65912 0.37873 0.11152 0.0
C1638 C 0.61061 0.38109 0.13115 0.0
C1639 C 0.58512 0.37961 0.14142 0.0
C1640 C 0.62561 0.35838 0.12752 0.0
C1641 C 0.57487 0.35497 0.14812 0.0
C1642 C 0.58981 0.33222 0.14475 0.0
C1643 C 0.63032 0.31103 0.1309 0.0
C1644 C 0.65569 0.31263 0.12036 0.0
C1645 C 0.61519 0.33373 0.13444 0.0
C1646 C 0.66573 0.33727 0.11337 0.0
C1647 C 0.65085 0.35995 0.11698 0.0
H1648 H 0.9548 0.36684 0.38575 0.0
H1649 H 0.90767 0.43405 0.36527 0.0
H1650 H 0.8679 0.40853 0.37212 0.0
H1651 H 0.84642 0.36737 0.38369 0.0
H1652 H 0.89298 0.29949 0.40316 0.0
H1653 H 0.93303 0.32513 0.39702 0.0
C1654 C 0.93583 0.37592 0.38275 0.0
C1655 C 0.93431 0.4024 0.37496 0.0
C1656 C 0.91292 0.36105 0.38662 0.0
C1657 C 0.90952 0.41375 0.37116 0.0
C1658 C 0.88672 0.39917 0.37513 0.0
C1659 C 0.86529 0.35811 0.38675 0.0
C1660 C 0.86659 0.33148 0.39401 0.0
C1661 C 0.88818 0.37284 0.38287 0.0
C1662 C 0.89132 0.31991 0.39761 0.0
C1663 C 0.91425 0.33457 0.39407 0.0
H1664 H 0.93178 0.36574 0.88277 0.0
H1665 H 0.87375 0.42645 0.89306 0.0
H1666 H 0.84005 0.39336 0.89994 0.0
H1667 H 0.82708 0.3471 0.9042 0.0
H1668 H 0.88514 0.28654 0.89343 0.0
H1669 H 0.9186 0.31962 0.88568 0.0
C1670 C 0.91175 0.37176 0.88636 0.0
C1671 C 0.90543 0.39858 0.88744 0.0
C1672 C 0.89238 0.35263 0.8904 0.0
C1673 C 0.87928 0.40596 0.89209 0.0
C1674 C 0.85994 0.38704 0.89612 0.0
C1675 C 0.84705 0.34115 0.9002 0.0
C1676 C 0.85354 0.31437 0.89955 0.0
C1677 C 0.86629 0.36031 0.89556 0.0
C1678 C 0.87952 0.30702 0.89409 0.0
C1679 C 0.89874 0.32592 0.88964 0.0
H1680 H 0.88397 0.6869 0.1361 0.0
H1681 H 0.82497 0.62786 0.14991 0.0
H1682 H 0.85889 0.59526 0.15785 0.0
H1683 H 0.90538 0.58331 0.16094 0.0
H1684 H 0.9643 0.64234 0.14692 0.0
H1685 H 0.93037 0.67495 0.1391 0.0
C1686 C 0.8785 0.66691 0.1408 0.0
C1687 C 0.85192 0.65994 0.14236 0.0
C1688 C 0.89812 0.64816 0.14539 0.0
C1689 C 0.84526 0.63387 0.14853 0.0
C1690 C 0.86466 0.61515 0.15312 0.0
C1691 C 0.9108 0.60331 0.15625 0.0
C1692 C 0.93736 0.61029 0.15458 0.0
C1693 C 0.89116 0.62206 0.15164 0.0
C1694 C 0.94401 0.63634 0.14836 0.0
C1695 C 0.92461 0.65507 0.14385 0.0
H1696 H 0.61883 0.70895 0.39233 0.0
H1697 H 0.68504 0.65989 0.41142 0.0
H1698 H 0.6589 0.62077 0.40314 0.0
H1699 H 0.61743 0.60044 0.39098 0.0
H1700 H 0.55066 0.64897 0.37255 0.0
H1701 H 0.57699 0.68837 0.37992 0.0
C1702 C 0.62754 0.6897 0.39474 0.0
C1703 C 0.65388 0.68742 0.40258 0.0
C1704 C 0.61237 0.6672 0.38995 0.0
C1705 C 0.66483 0.6623 0.40551 0.0
C1706 C 0.64991 0.63987 0.40072 0.0
C1707 C 0.60858 0.6196 0.38836 0.0
C1708 C 0.58206 0.62167 0.38112 0.0
C1709 C 0.62369 0.6421 0.39294 0.0
C1710 C 0.57101 0.64675 0.37806 0.0
C1711 C 0.58605 0.6693 0.38233 0.0
H1712 H 0.64981 0.36489 0.6518 0.0
H1713 H 0.60096 0.30126 0.6252 0.0
H1714 H 0.56199 0.32868 0.63116 0.0
H1715 H 0.54202 0.37105 0.64354 0.0
H1716 H 0.59178 0.43396 0.67032 0.0
H1717 H 0.63022 0.4063 0.66469 0.0
C1718 C 0.63069 0.35687 0.64722 0.0
C1719 C 0.62841 0.331 0.63793 0.0
C1720 C 0.60851 0.37263 0.65078 0.0
C1721 C 0.60335 0.32108 0.63233 0.0
C1722 C 0.58106 0.33676 0.63574 0.0
C1723 C 0.56127 0.37867 0.64825 0.0
C1724 C 0.56395 0.40462 0.65735 0.0
C1725 C 0.58343 0.36261 0.64493 0.0
C1726 C 0.58906 0.41414 0.66331 0.0
C1727 C 0.6111 0.39833 0.66006 0.0
H1728 H 0.11747 0.39936 0.39854 0.0
H1729 H 0.05159 0.35091 0.37705 0.0
H1730 H 0.07835 0.31155 0.38305 0.0
H1731 H 0.12053 0.29101 0.39437 0.0
H1732 H 0.18593 0.34 0.41613 0.0
H1733 H 0.1591 0.37908 0.41008 0.0
C1734 C 0.10886 0.38023 0.39507 0.0
C1735 C 0.0825 0.37817 0.38726 0.0
C1736 C 0.12426 0.35776 0.39869 0.0
C1737 C 0.07179 0.35313 0.38303 0.0
C1738 C 0.08709 0.3306 0.38648 0.0
C1739 C 0.12891 0.31023 0.39787 0.0
C1740 C 0.15525 0.31252 0.40573 0.0
C1741 C 0.11335 0.3327 0.39433 0.0
C1742 C 0.16575 0.3376 0.41012 0.0
C1743 C 0.15043 0.36 0.40663 0.0
H1744 H 0.40914 0.42441 0.15312 0.0
H1745 H 0.46769 0.36338 0.15127 0.0
H1746 H 0.43413 0.33085 0.14158 0.0
H1747 H 0.38811 0.31947 0.13404 0.0
H1748 H 0.32947 0.3805 0.13552 0.0
H1749 H 0.3631 0.41314 0.1446 0.0
C1750 C 0.41452 0.40398 0.15076 0.0
C1751 C 0.44087 0.39637 0.15308 0.0
C1752 C 0.39513 0.38531 0.14487 0.0
C1753 C 0.44754 0.36982 0.14963 0.0
C1754 C 0.42837 0.35116 0.14403 0.0
C1755 C 0.38268 0.33993 0.1361 0.0
C1756 C 0.35625 0.34742 0.13409 0.0
C1757 C 0.4021 0.35867 0.14156 0.0
C1758 C 0.34965 0.37408 0.13695 0.0
C1759 C 0.36886 0.39282 0.14225 0.0
H1760 H 0.38095 0.71368 0.89543 0.0
H1761 H 0.31555 0.66648 0.92059 0.0
H1762 H 0.3414 0.62677 0.9146 0.0
H1763 H 0.38213 0.60541 0.90209 0.0
H1764 H 0.44812 0.65198 0.87742 0.0
H1765 H 0.42236 0.69203 0.88336 0.0
C1766 C 0.37236 0.69472 0.89966 0.0
C1767 C 0.3463 0.69312 0.90846 0.0
C1768 C 0.38738 0.67186 0.89621 0.0
C1769 C 0.33553 0.66836 0.91385 0.0
C1770 C 0.35029 0.6456 0.91039 0.0
C1771 C 0.39098 0.62427 0.89792 0.0
C1772 C 0.41706 0.62561 0.8892 0.0
C1773 C 0.37617 0.64712 0.90152 0.0
C1774 C 0.42811 0.65032 0.88411 0.0
C1775 C 0.41338 0.67324 0.88751 0.0
H1776 H 0.1063 0.68153 0.63884 0.0
H1777 H 0.166 0.62393 0.65571 0.0
H1778 H 0.13264 0.59098 0.66358 0.0
H1779 H 0.08657 0.578 0.66539 0.0
H1780 H 0.02656 0.63498 0.64805 0.0
H1781 H 0.0599 0.66845 0.64081 0.0
C1782 C 0.11201 0.66178 0.64422 0.0
C1783 C 0.13869 0.65536 0.6466 0.0
C1784 C 0.09264 0.64269 0.64873 0.0
C1785 C 0.14566 0.62958 0.65364 0.0
C1786 C 0.12657 0.61061 0.65821 0.0
C1787 C 0.08075 0.59776 0.66016 0.0
C1788 C 0.05411 0.60391 0.65732 0.0
C1789 C 0.10002 0.61691 0.6558 0.0
C1790 C 0.04696 0.62964 0.65037 0.0
C1791 C 0.06602 0.64884 0.64619 0.0
H1792 H 0.11611 0.60277 0.13327 0.0
H1793 H 0.05373 0.65012 0.16465 0.0
H1794 H 0.07945 0.68977 0.15701 0.0
H1795 H 0.11942 0.71102 0.14107 0.0
H1796 H 0.18135 0.66369 0.1088 0.0
H1797 H 0.15587 0.62404 0.11698 0.0
C1798 C 0.10818 0.62173 0.13865 0.0
C1799 C 0.08304 0.62341 0.14966 0.0
C1800 C 0.12289 0.64449 0.13383 0.0
C1801 C 0.07301 0.64821 0.15619 0.0
C1802 C 0.08769 0.67092 0.15178 0.0
C1803 C 0.12733 0.69206 0.1357 0.0
C1804 C 0.15229 0.6904 0.12428 0.0
C1805 C 0.11259 0.6693 0.14047 0.0
C1806 C 0.16219 0.66561 0.11753 0.0
C1807 C 0.14767 0.64289 0.12228 0.0
H1808 H 0.08762 0.42316 0.88781 0.0
H1809 H 0.02911 0.36266 0.87971 0.0
H1810 H 0.06243 0.32896 0.88654 0.0
H1811 H 0.1086 0.31656 0.89413 0.0
H1812 H 0.1666 0.37766 0.90246 0.0
H1813 H 0.13311 0.41098 0.89649 0.0
C1814 C 0.08214 0.40261 0.88742 0.0
C1815 C 0.05592 0.39551 0.88306 0.0
C1816 C 0.10134 0.38332 0.89159 0.0
C1817 C 0.04917 0.36874 0.88293 0.0
C1818 C 0.06822 0.34941 0.88689 0.0
C1819 C 0.11385 0.33715 0.89489 0.0
C1820 C 0.14017 0.34445 0.89869 0.0
C1821 C 0.09442 0.35645 0.89123 0.0
C1822 C 0.14657 0.37132 0.89948 0.0
C1823 C 0.12742 0.3905 0.89601 0.0
H1824 H 0.43887 0.36734 0.65001 0.0
H1825 H 0.37996 0.42655 0.63631 0.0
H1826 H 0.34718 0.39266 0.62921 0.0
H1827 H 0.33513 0.34615 0.62611 0.0
H1828 H 0.39386 0.28693 0.64021 0.0
H1829 H 0.4266 0.32083 0.64784 0.0
C1830 C 0.41886 0.37286 0.64558 0.0
C1831 C 0.41203 0.39951 0.64368 0.0
C1832 C 0.39997 0.35323 0.64145 0.0
C1833 C 0.3859 0.40622 0.63793 0.0
C1834 C 0.36706 0.38683 0.63379 0.0
C1835 C 0.35509 0.34066 0.63081 0.0
C1836 C 0.36198 0.31402 0.63246 0.0
C1837 C 0.37388 0.36027 0.63534 0.0
C1838 C 0.38794 0.30728 0.63877 0.0
C1839 C 0.40674 0.32666 0.64315 0.0
H1840 H 0.34724 0.62986 0.39392 0.0
H1841 H 0.39512 0.69785 0.40964 0.0
H1842 H 0.43461 0.67202 0.40139 0.0
H1843 H 0.45538 0.63046 0.3886 0.0
H1844 H 0.40708 0.56297 0.37205 0.0
H1845 H 0.36784 0.58848 0.38161 0.0
C1846 C 0.36629 0.63909 0.39578 0.0
C1847 C 0.36814 0.66582 0.40248 0.0
C1848 C 0.38883 0.62427 0.39062 0.0
C1849 C 0.39307 0.67734 0.40458 0.0
C1850 C 0.41566 0.66259 0.39977 0.0
C1851 C 0.43628 0.62131 0.38703 0.0
C1852 C 0.43422 0.59481 0.37949 0.0
C1853 C 0.41375 0.63611 0.39254 0.0
C1854 C 0.40929 0.58331 0.37768 0.0
C1855 C 0.38682 0.59788 0.38321 0.0
H1856 H 0.29762 0.28227 0.04042 0.0
H1857 H 0.22257 0.28231 0.07821 0.0
H1858 H 0.20034 0.27898 0.03651 0.0
H1859 H 0.20211 0.27962 0.98894 0.0
H1860 H 0.27697 0.2854 0.9512 0.0
H1861 H 0.29939 0.28272 0.99284 0.0
C1862 C 0.27644 0.2811 0.03944 0.0
C1863 C 0.26173 0.28225 0.06228 0.0
C1864 C 0.26375 0.28041 1.01529 0.0
C1865 C 0.23427 0.28134 0.06082 0.0
C1866 C 0.22156 0.2795 0.03699 0.0
C1867 C 0.22333 0.27984 0.98991 0.0
C1868 C 0.2379 0.28244 0.96709 0.0
C1869 C 0.23605 0.2795 1.01404 0.0
C1870 C 0.26537 0.28332 0.96856 0.0
C1871 C 0.27819 0.28184 0.99235 0.0
H1872 H 0.97295 0.01873 0.21187 0.0
H1873 H 0.96732 0.93831 0.2368 0.0
H1874 H 0.96811 0.95239 0.28196 0.0
H1875 H 0.96798 0.98798 0.31441 0.0
H1876 H 0.97843 0.06796 0.2896 0.0
H1877 H 0.97845 0.0538 0.24446 0.0
C1878 C 0.9722 0.00433 0.22725 0.0
C1879 C 0.9699 0.97754 0.22107 0.0
C1880 C 0.97348 0.01254 0.25318 0.0
C1881 C 0.9692 0.95901 0.24111 0.0
C1882 C 0.96953 0.96708 0.26692 0.0
C1883 C 0.97057 0.00222 0.29908 0.0
C1884 C 0.97303 0.029 0.30527 0.0
C1885 C 0.97132 0.99382 0.2732 0.0
C1886 C 0.97662 0.04724 0.2853 0.0
C1887 C 0.97649 0.03916 0.25949 0.0
H1888 H 0.23571 0.74914 0.55942 0.0
H1889 H 0.21129 0.66821 0.55889 0.0
H1890 H 0.22815 0.66284 0.51522 0.0
H1891 H 0.25179 0.68015 0.4782 0.0
H1892 H 0.27924 0.76019 0.47872 0.0
H1893 H 0.25951 0.76687 0.52124 0.0
C1894 C 0.2338 0.73052 0.54947 0.0
C1895 C 0.22208 0.70914 0.56216 0.0
C1896 C 0.24438 0.72731 0.52451 0.0
C1897 C 0.22015 0.68494 0.54938 0.0
C1898 C 0.22986 0.68183 0.52447 0.0
C1899 C 0.25338 0.69915 0.48746 0.0
C1900 C 0.26703 0.7196 0.47516 0.0
C1901 C 0.24235 0.70273 0.512 0.0
C1902 C 0.26896 0.74401 0.48771 0.0
C1903 C 0.25761 0.74788 0.51204 0.0
H1904 H 0.53005 0.021 0.81399 0.0
H1905 H 0.52672 0.93902 0.79403 0.0
H1906 H 0.5283 0.95022 0.74811 0.0
H1907 H 0.53273 0.98358 0.71354 0.0
H1908 H 0.53128 0.06555 0.73369 0.0
H1909 H 0.52947 0.05427 0.77953 0.0
C1910 C 0.52937 0.00564 0.79954 0.0
C1911 C 0.5284 0.97924 0.80732 0.0
C1912 C 0.52962 0.01227 0.77321 0.0
C1913 C 0.52731 0.9595 0.78846 0.0
C1914 C 0.52838 0.96589 0.76222 0.0
C1915 C 0.53186 0.99887 0.72805 0.0
C1916 C 0.5324 0.02533 0.72042 0.0
C1917 C 0.52989 0.99221 0.75436 0.0
C1918 C 0.5309 0.04506 0.73923 0.0
C1919 C 0.52992 0.03862 0.7654 0.0
H1920 H 0.75766 0.7554 0.05475 0.0
H1921 H 0.77979 0.67382 0.05436 0.0
H1922 H 0.76419 0.66927 1.0101 0.0
H1923 H 0.74232 0.6876 0.97238 0.0
H1924 H 0.71664 0.76822 0.97297 0.0
H1925 H 0.73536 0.77404 0.0161 0.0
C1926 C 0.75933 0.73682 0.04473 0.0
C1927 C 0.77006 0.71501 0.05759 0.0
C1928 C 0.74942 0.73409 0.01942 0.0
C1929 C 0.77169 0.69086 0.04471 0.0
C1930 C 0.76271 0.68822 0.01945 0.0
C1931 C 0.7409 0.70653 0.98181 0.0
C1932 C 0.72806 0.72741 0.96936 0.0
C1933 C 0.75121 0.70957 1.00675 0.0
C1934 C 0.72631 0.75173 0.9821 0.0
C1935 C 0.73707 0.7551 1.00677 0.0
H1936 H 0.03521 0.98929 0.81576 0.0
H1937 H 0.03295 0.0703 0.79222 0.0
H1938 H 0.03328 0.05705 0.74681 0.0
H1939 H 0.03594 0.02225 0.71366 0.0
H1940 H 0.03293 0.94121 0.73705 0.0
H1941 H 0.03271 0.95444 0.78247 0.0
C1942 C 0.03455 0.00396 0.80062 0.0
C1943 C 0.03423 0.03074 0.80725 0.0
C1944 C 0.03383 0.99614 0.77452 0.0
C1945 C 0.03312 0.04959 0.78754 0.0
C1946 C 0.03341 0.04201 0.76159 0.0
C1947 C 0.03499 0.00754 0.72875 0.0
C1948 C 0.03463 0.98078 0.72204 0.0
C1949 C 0.03401 0.01535 0.75482 0.0
C1950 C 0.03313 0.96192 0.74174 0.0
C1951 C 0.03313 0.96948 0.76771 0.0
H1952 H 0.7322 0.24845 0.55237 0.0
H1953 H 0.72006 0.33207 0.55685 0.0
H1954 H 0.73839 0.33765 0.51391 0.0
H1955 H 0.75865 0.31934 0.47539 0.0
H1956 H 0.77413 0.23631 0.4709 0.0
H1957 H 0.75401 0.22997 0.51336 0.0
C1958 C 0.73344 0.2678 0.54379 0.0
C1959 C 0.72465 0.2898 0.55779 0.0
C1960 C 0.74481 0.27104 0.51913 0.0
C1961 C 0.72673 0.31483 0.54657 0.0
C1962 C 0.73722 0.31806 0.52197 0.0
C1963 C 0.75763 0.2998 0.48361 0.0
C1964 C 0.76785 0.27834 0.46984 0.0
C1965 C 0.74648 0.29638 0.50814 0.0
C1966 C 0.76652 0.25323 0.48105 0.0
C1967 C 0.75492 0.24958 0.50533 0.0
H1968 H 0.46565 0.01279 0.3168 0.0
H1969 H 0.47326 0.93328 0.28965 0.0
H1970 H 0.47327 0.94873 0.24495 0.0
H1971 H 0.4687 0.9848 0.21347 0.0
H1972 H 0.46593 0.06467 0.24043 0.0
H1973 H 0.46667 0.04933 0.28526 0.0
C1974 C 0.46757 0.99895 0.30104 0.0
C1975 C 0.46924 0.97193 0.30642 0.0
C1976 C 0.46838 0.00807 0.27539 0.0
C1977 C 0.47202 0.95416 0.28593 0.0
C1978 C 0.47192 0.96298 0.26039 0.0
C1979 C 0.46858 0.9988 0.22922 0.0
C1980 C 0.46708 0.02579 0.22376 0.0
C1981 C 0.46977 0.98985 0.25487 0.0
C1982 C 0.46718 0.04381 0.24423 0.0
C1983 C 0.46747 0.03503 0.26983 0.0
H1984 H 0.73886 0.78392 0.56968 0.0
H1985 H 0.81878 0.77585 0.54432 0.0
H1986 H 0.80415 0.77319 0.49945 0.0
H1987 H 0.76874 0.77579 0.46722 0.0
H1988 H 0.68848 0.77919 0.49241 0.0
H1989 H 0.70292 0.78067 0.53754 0.0
C1990 C 0.75296 0.78132 0.55427 0.0
C1991 C 0.77985 0.78032 0.56015 0.0
C1992 C 0.74432 0.77893 0.52856 0.0
C1993 C 0.79799 0.77663 0.54018 0.0
C1994 C 0.78964 0.77519 0.51454 0.0
C1995 C 0.75445 0.77642 0.48267 0.0
C1996 C 0.72763 0.77748 0.47664 0.0
C1997 C 0.7629 0.77665 0.50848 0.0
C1998 C 0.70923 0.77817 0.49669 0.0
C1999 C 0.7175 0.77922 0.52245 0.0
H2000 H 0.50072 0.51832 0.80695 0.0
H2001 H 0.41926 0.54047 0.80426 0.0
H2002 H 0.41578 0.52418 0.76021 0.0
H2003 H 0.4352 0.50273 0.72285 0.0
H2004 H 0.51548 0.47666 0.72569 0.0
H2005 H 0.5201 0.49513 0.76916 0.0
C2006 C 0.48233 0.51969 0.79656 0.0
C2007 C 0.4603 0.53073 0.80877 0.0
C2008 C 0.4802 0.50941 0.77133 0.0
C2009 C 0.43646 0.53203 0.79529 0.0
C2010 C 0.43444 0.52272 0.77009 0.0
C2011 C 0.45379 0.50114 0.73289 0.0
C2012 C 0.475 0.48845 0.72092 0.0
C2013 C 0.45608 0.51121 0.75799 0.0
C2014 C 0.49881 0.48629 0.73445 0.0
C2015 C 0.50147 0.49692 0.75929 0.0
H2016 H 0.73314 0.24947 0.05354 0.0
H2017 H 0.71997 0.16587 0.0543 0.0
H2018 H 0.73828 0.16211 1.01115 0.0
H2019 H 0.75906 0.18192 0.97365 0.0
H2020 H 0.77564 0.26487 0.97288 0.0
H2021 H 0.7552 0.2695 1.01542 0.0
C2022 C 0.73414 0.23052 0.04411 0.0
C2023 C 0.72509 0.20799 0.05713 0.0
C2024 C 0.74548 0.22832 0.01933 0.0
C2025 C 0.72685 0.1835 0.0448 0.0
C2026 C 0.73732 0.18131 0.02008 0.0
C2027 C 0.75814 0.2011 0.98266 0.0
C2028 C 0.76881 0.22303 0.96993 0.0
C2029 C 0.74687 0.2035 1.00724 0.0
C2030 C 0.76766 0.24762 0.9822 0.0
C2031 C 0.75591 0.25029 1.00653 0.0
H2032 H 0.998 0.48871 0.30745 0.0
H2033 H 0.07803 0.46208 0.30321 0.0
H2034 H 0.0828 0.48201 0.26079 0.0
H2035 H 0.06532 0.50848 0.22586 0.0
H2036 H 0.98617 0.53779 0.22968 0.0
H2037 H 0.98007 0.51571 0.27127 0.0
C2038 C 0.01628 0.48702 0.29697 0.0
C2039 C 0.03759 0.47377 0.30832 0.0
C2040 C 0.01919 0.49933 0.27269 0.0
C2041 C 0.06136 0.47212 0.29482 0.0
C2042 C 0.06414 0.48358 0.2706 0.0
C2043 C 0.04663 0.51004 0.23564 0.0
C2044 C 0.02625 0.52483 0.22452 0.0
C2045 C 0.04335 0.49753 0.25952 0.0
C2046 C 0.00228 0.52667 0.23777 0.0
C2047 C 0.99874 0.51394 0.26154 0.0
H2048 H 0.24032 0.21858 0.56789 0.0
H2049 H 0.32003 0.23199 0.54411 0.0
H2050 H 0.30629 0.23255 0.49885 0.0
H2051 H 0.2718 0.22646 0.46588 0.0
H2052 H 0.19153 0.21776 0.48981 0.0
H2053 H 0.2051 0.21829 0.53515 0.0
C2054 C 0.25457 0.22196 0.55276 0.0
C2055 C 0.28114 0.22506 0.5592 0.0
C2056 C 0.24641 0.22298 0.52685 0.0
C2057 C 0.29945 0.22967 0.53954 0.0
C2058 C 0.29162 0.22984 0.51368 0.0
C2059 C 0.25733 0.225 0.4811 0.0
C2060 C 0.23077 0.22187 0.47468 0.0
C2061 C 0.26522 0.22611 0.50709 0.0
C2062 C 0.21208 0.22025 0.49442 0.0
C2063 C 0.21985 0.22044 0.52029 0.0
H2064 H 0.57081 0.51219 0.30216 0.0
H2065 H 0.48783 0.52748 0.30502 0.0
H2066 H 0.48229 0.50676 0.26267 0.0
H2067 H 0.50149 0.4845 0.22422 0.0
H2068 H 0.58508 0.47256 0.22141 0.0
H2069 H 0.58982 0.49143 0.26426 0.0
C2070 C 0.55144 0.51092 0.29364 0.0
C2071 C 0.52976 0.52127 0.3069 0.0
C2072 C 0.5485 0.49945 0.26918 0.0
C2073 C 0.5049 0.51975 0.29526 0.0
C2074 C 0.50171 0.50782 0.27105 0.0
C2075 C 0.52065 0.48591 0.23314 0.0
C2076 C 0.54289 0.47701 0.21964 0.0
C2077 C 0.5234 0.49758 0.25775 0.0
C2078 C 0.56766 0.47931 0.2313 0.0
C2079 C 0.57042 0.4901 0.25584 0.0
H2080 H 0.25457 0.82223 0.97877 0.0
H2081 H 0.27795 0.74101 0.97594 0.0
H2082 H 0.26027 0.7341 0.01937 0.0
H2083 H 0.23875 0.75172 0.05887 0.0
H2084 H 0.21957 0.83401 0.06206 0.0
H2085 H 0.23474 0.83989 0.01786 0.0
C2086 C 0.25571 0.80295 0.98757 0.0
C2087 C 0.26744 0.78214 0.97404 0.0
C2088 C 0.24617 0.79933 1.0127 0.0
C2089 C 0.26906 0.75739 0.98594 0.0
C2090 C 0.2589 0.75342 1.01076 0.0
C2091 C 0.23778 0.77082 0.0497 0.0
C2092 C 0.2279 0.79239 0.06356 0.0
C2093 C 0.24746 0.77429 0.02442 0.0
C2094 C 0.2271 0.81716 0.05172 0.0
C2095 C 0.23577 0.82054 0.02646 0.0
H2096 H 0.97585 0.54583 0.73986 0.0
H2097 H 0.96522 0.46992 0.70485 0.0
H2098 H 0.96839 0.44882 0.7471 0.0
H2099 H 0.97062 0.45222 0.79454 0.0
H2100 H 0.97554 0.52856 0.82977 0.0
H2101 H 0.97842 0.5492 0.78725 0.0
C2102 C 0.97465 0.52465 0.74152 0.0
C2103 C 0.97051 0.50942 0.7193 0.0
C2104 C 0.97535 0.51274 0.76604 0.0
C2105 C 0.96845 0.48203 0.72172 0.0
C2106 C 0.97023 0.46996 0.74587 0.0
C2107 C 0.97281 0.47331 0.79281 0.0
C2108 C 0.97319 0.48886 0.81516 0.0
C2109 C 0.9732 0.48513 0.76824 0.0
C2110 C 0.97537 0.51623 0.81276 0.0
C2111 C 0.97693 0.52803 0.78847 0.0
H2112 H 0.17973 0.38 0.14522 0.0
H2113 H 0.24676 0.43078 0.15302 0.0
H2114 H 0.21901 0.46932 0.14699 0.0
H2115 H 0.17568 0.48852 0.1409 0.0
H2116 H 0.108 0.43841 0.13453 0.0
H2117 H 0.13588 0.39953 0.13867 0.0
C2118 C 0.18812 0.39955 0.14528 0.0
C2119 C 0.21508 0.40279 0.14928 0.0
C2120 C 0.17196 0.4216 0.14232 0.0
C2121 C 0.22595 0.42804 0.14989 0.0
C2122 C 0.21015 0.45 0.14646 0.0
C2123 C 0.16709 0.46905 0.14031 0.0
C2124 C 0.13993 0.46619 0.13782 0.0
C2125 C 0.18314 0.447 0.14288 0.0
C2126 C 0.12888 0.44099 0.13709 0.0
C2127 C 0.14481 0.41881 0.13924 0.0
H2128 H 0.86069 0.94984 0.42804 0.0
H2129 H 0.8726 0.9575 0.34609 0.0
H2130 H 0.84383 0.92013 0.33826 0.0
H2131 H 0.81152 0.88866 0.35447 0.0
H2132 H 0.79789 0.88239 0.43626 0.0
H2133 H 0.83138 0.91552 0.44452 0.0
C2134 C 0.85723 0.943 0.40852 0.0
C2135 C 0.86882 0.95615 0.3877 0.0
C2136 C 0.84033 0.92184 0.40417 0.0
C2137 C 0.86432 0.94729 0.36246 0.0
C2138 C 0.84766 0.92611 0.35796 0.0
C2139 C 0.81627 0.89428 0.37411 0.0
C2140 C 0.80252 0.88304 0.39473 0.0
C2141 C 0.83507 0.9137 0.37863 0.0
C2142 C 0.80867 0.89036 0.42011 0.0
C2143 C 0.82757 0.90954 0.42482 0.0
H2144 H 0.30319 0.6215 0.61615 0.0
H2145 H 0.30323 0.61189 0.69874 0.0
H2146 H 0.34122 0.58292 0.69587 0.0
H2147 H 0.37049 0.55616 0.6694 0.0
H2148 H 0.36936 0.56447 0.58669 0.0
H2149 H 0.33587 0.59855 0.59005 0.0
C2150 C 0.31207 0.61384 0.63357 0.0
C2151 C 0.30064 0.61896 0.65763 0.0
C2152 C 0.33352 0.59679 0.63171 0.0
C2153 C 0.31178 0.60813 0.68 0.0
C2154 C 0.33344 0.59157 0.67837 0.0
C2155 C 0.36363 0.5661 0.6522 0.0
C2156 C 0.37252 0.5581 0.62787 0.0
C2157 C 0.34398 0.58517 0.65426 0.0
C2158 C 0.36275 0.57044 0.60564 0.0
C2159 C 0.34359 0.58984 0.60754 0.0
H2160 H 0.66531 0.0288 0.91329 0.0
H2161 H 0.6086 0.08189 0.88053 0.0
H2162 H 0.64303 0.11472 0.8736 0.0
H2163 H 0.68968 0.12769 0.87638 0.0
H2164 H 0.74575 0.07367 0.90875 0.0
H2165 H 0.71107 0.04165 0.9165 0.0
C2166 C 0.66048 0.04762 0.90472 0.0
C2167 C 0.63469 0.05294 0.89711 0.0
C2168 C 0.68021 0.06614 0.90086 0.0
C2169 C 0.62855 0.07728 0.886 0.0
C2170 C 0.64815 0.09605 0.88223 0.0
C2171 C 0.69406 0.10904 0.88549 0.0
C2172 C 0.71993 0.10298 0.8924 0.0
C2173 C 0.67408 0.09063 0.88953 0.0
C2174 C 0.72581 0.07859 0.90346 0.0
C2175 C 0.70606 0.06036 0.90787 0.0
H2176 H 0.18048 0.50763 0.39949 0.0
H2177 H 0.11581 0.56202 0.40026 0.0
H2178 H 0.14629 0.59884 0.39676 0.0
H2179 H 0.19162 0.61539 0.39295 0.0
H2180 H 0.25578 0.56029 0.39311 0.0
H2181 H 0.22516 0.52389 0.39686 0.0
C2182 C 0.17302 0.52755 0.39899 0.0
C2183 C 0.14592 0.53204 0.39961 0.0
C2184 C 0.19059 0.54849 0.39725 0.0
C2185 C 0.13654 0.55795 0.39895 0.0
C2186 C 0.15399 0.57904 0.39726 0.0
C2187 C 0.19886 0.59547 0.39431 0.0
C2188 C 0.22591 0.59053 0.39312 0.0
C2189 C 0.18109 0.57453 0.39633 0.0
C2190 C 0.23502 0.56455 0.39402 0.0
C2191 C 0.21755 0.54373 0.39619 0.0
H2192 H 0.68159 0.98634 0.63046 0.0
H2193 H 0.61782 0.93097 0.63387 0.0
H2194 H 0.64903 0.89485 0.6383 0.0
H2195 H 0.69485 0.87922 0.64208 0.0
H2196 H 0.75792 0.93533 0.63791 0.0
H2197 H 0.72656 0.97099 0.6326 0.0
C2198 C 0.67446 0.96635 0.63205 0.0
C2199 C 0.64742 0.96143 0.63242 0.0
C2200 C 0.69243 0.94581 0.63427 0.0
C2201 C 0.63851 0.93543 0.63445 0.0
C2202 C 0.65637 0.91472 0.63666 0.0
C2203 C 0.7016 0.89922 0.63949 0.0
C2204 C 0.72855 0.90473 0.64001 0.0
C2205 C 0.6834 0.91971 0.63671 0.0
C2206 C 0.7372 0.93072 0.63746 0.0
C2207 C 0.71933 0.95108 0.63444 0.0
H2208 H 0.31974 0.49141 0.88969 0.0
H2209 H 0.38563 0.44097 0.90545 0.0
H2210 H 0.35786 0.40228 0.8998 0.0
H2211 H 0.31461 0.38292 0.88974 0.0
H2212 H 0.24921 0.43407 0.8741 0.0
H2213 H 0.277 0.47245 0.8804 0.0
C2214 C 0.32801 0.47194 0.89201 0.0
C2215 C 0.35473 0.469 0.89754 0.0
C2216 C 0.31198 0.44996 0.88882 0.0
C2217 C 0.36525 0.44371 0.90045 0.0
C2218 C 0.34932 0.4216 0.89747 0.0
C2219 C 0.30648 0.40251 0.88811 0.0
C2220 C 0.27993 0.40581 0.88184 0.0
C2221 C 0.32265 0.4245 0.89155 0.0
C2222 C 0.26964 0.43117 0.87901 0.0
C2223 C 0.28547 0.45308 0.88263 0.0
H2224 H 0.87206 0.06788 0.14522 0.0
H2225 H 0.82419 0.00155 0.12429 0.0
H2226 H 0.78455 0.02743 0.13089 0.0
H2227 H 0.7637 0.06925 0.1407 0.0
H2228 H 0.81097 0.13634 0.16055 0.0
H2229 H 0.85077 0.10997 0.15626 0.0
C2230 C 0.85288 0.05916 0.14249 0.0
C2231 C 0.85079 0.03298 0.13451 0.0
C2232 C 0.83022 0.07432 0.14584 0.0
C2233 C 0.82604 0.02177 0.13046 0.0
C2234 C 0.80345 0.0365 0.13423 0.0
C2235 C 0.78274 0.07802 0.14425 0.0
C2236 C 0.78456 0.10469 0.15042 0.0
C2237 C 0.80534 0.06284 0.14162 0.0
C2238 C 0.80922 0.11596 0.15499 0.0
C2239 C 0.83192 0.10085 0.15278 0.0
H2240 H 0.87542 0.5752 0.89163 0.0
H2241 H 0.82562 0.50971 0.91068 0.0
H2242 H 0.78677 0.53676 0.90415 0.0
H2243 H 0.76706 0.57897 0.89411 0.0
H2244 H 0.81599 0.64529 0.87579 0.0
H2245 H 0.85519 0.61811 0.88107 0.0
C2246 C 0.856 0.56694 0.89402 0.0
C2247 C 0.85317 0.54059 0.90137 0.0
C2248 C 0.83373 0.58275 0.89064 0.0
C2249 C 0.82809 0.53002 0.90499 0.0
C2250 C 0.80593 0.54542 0.90126 0.0
C2251 C 0.78632 0.58746 0.89116 0.0
C2252 C 0.78872 0.6141 0.88494 0.0
C2253 C 0.80855 0.5718 0.89426 0.0
C2254 C 0.81371 0.62494 0.88125 0.0
C2255 C 0.83609 0.60935 0.88403 0.0
H2256 H 0.17649 0.02405 0.62055 0.0
H2257 H 0.11435 0.07752 0.64043 0.0
H2258 H 0.14623 0.11311 0.64568 0.0
H2259 H 0.19229 0.1284 0.64585 0.0
H2260 H 0.25386 0.07399 0.62669 0.0
H2261 H 0.22168 0.0393 0.61955 0.0
C2262 C 0.16994 0.04354 0.62594 0.0
C2263 C 0.14331 0.04815 0.63062 0.0
C2264 C 0.18826 0.06368 0.62886 0.0
C2265 C 0.13493 0.07343 0.63747 0.0
C2266 C 0.15309 0.09378 0.64023 0.0
C2267 C 0.19845 0.10904 0.63968 0.0
C2268 C 0.22518 0.10362 0.63645 0.0
C2269 C 0.17985 0.08907 0.63614 0.0
C2270 C 0.23326 0.07842 0.62912 0.0
C2271 C 0.21493 0.05865 0.6251 0.0
H2272 H 0.63019 0.44477 0.38948 0.0
H2273 H 0.68476 0.50876 0.39812 0.0
H2274 H 0.72148 0.47829 0.39552 0.0
H2275 H 0.73804 0.43372 0.39129 0.0
H2276 H 0.68416 0.36923 0.38224 0.0
H2277 H 0.64714 0.39956 0.38463 0.0
C2278 C 0.65016 0.45197 0.39034 0.0
C2279 C 0.6549 0.47891 0.39356 0.0
C2280 C 0.6712 0.43428 0.38909 0.0
C2281 C 0.68075 0.48806 0.3955 0.0
C2282 C 0.70171 0.47069 0.39403 0.0
C2283 C 0.71818 0.42628 0.38981 0.0
C2284 C 0.71383 0.39925 0.38709 0.0
C2285 C 0.69715 0.44379 0.39093 0.0
C2286 C 0.68803 0.38986 0.38517 0.0
C2287 C 0.66686 0.40725 0.38622 0.0
H2288 H 0.36494 0.95134 0.17398 0.0
H2289 H 0.36103 0.94645 0.09108 0.0
H2290 H 0.33041 0.90974 0.0942 0.0
H2291 H 0.30086 0.88312 0.12046 0.0
H2292 H 0.30338 0.88925 0.20332 0.0
H2293 H 0.33887 0.92129 0.20035 0.0
C2294 C 0.3581 0.94165 0.15664 0.0
C2295 C 0.36535 0.95131 0.13235 0.0
C2296 C 0.34011 0.92101 0.1586 0.0
C2297 C 0.35563 0.93922 0.10999 0.0
C2298 C 0.33814 0.91831 0.11176 0.0
C2299 C 0.30981 0.89073 0.13787 0.0
C2300 C 0.29982 0.88369 0.16207 0.0
C2301 C 0.32969 0.90955 0.13596 0.0
C2302 C 0.3109 0.89445 0.18448 0.0
C2303 C 0.3311 0.91277 0.18279 0.0
H2304 H 0.76246 0.42486 0.64492 0.0
H2305 H 0.81224 0.35838 0.66049 0.0
H2306 H 0.85113 0.38579 0.65458 0.0
H2307 H 0.87078 0.42867 0.64358 0.0
H2308 H 0.82028 0.49456 0.62773 0.0
H2309 H 0.78172 0.46738 0.63525 0.0
C2310 C 0.78184 0.41642 0.64722 0.0
C2311 C 0.78458 0.38964 0.65267 0.0
C2312 C 0.8039 0.43219 0.64375 0.0
C2313 C 0.80971 0.37884 0.65555 0.0
C2314 C 0.83191 0.39454 0.6524 0.0
C2315 C 0.85129 0.43703 0.64218 0.0
C2316 C 0.84818 0.46348 0.63542 0.0
C2317 C 0.82922 0.42121 0.64626 0.0
C2318 C 0.82297 0.47415 0.63296 0.0
C2319 C 0.80098 0.45869 0.63729 0.0
H2320 H 0.32342 0.12501 0.39379 0.0
H2321 H 0.25568 0.07589 0.38229 0.0
H2322 H 0.28253 0.03663 0.38743 0.0
H2323 H 0.32522 0.0164 0.39316 0.0
H2324 H 0.39375 0.06461 0.40381 0.0
H2325 H 0.36678 0.1042 0.4008 0.0
C2326 C 0.31465 0.10565 0.39282 0.0
C2327 C 0.28775 0.1031 0.3879 0.0
C2328 C 0.33034 0.08314 0.39524 0.0
C2329 C 0.27643 0.0781 0.38612 0.0
C2330 C 0.29173 0.05573 0.38901 0.0
C2331 C 0.33426 0.03557 0.39497 0.0
C2332 C 0.36145 0.03762 0.39821 0.0
C2333 C 0.31871 0.05804 0.39324 0.0
C2334 C 0.37294 0.06255 0.40052 0.0
C2335 C 0.35749 0.08517 0.39907 0.0
H2336 H 0.72702 0.58224 0.14953 0.0
H2337 H 0.66771 0.64134 0.13881 0.0
H2338 H 0.63524 0.60724 0.12894 0.0
H2339 H 0.62409 0.56041 0.12398 0.0
H2340 H 0.68407 0.50184 0.13502 0.0
H2341 H 0.71624 0.53602 0.14376 0.0
C2342 C 0.70695 0.58757 0.14503 0.0
C2343 C 0.69957 0.61401 0.14471 0.0
C2344 C 0.68868 0.56802 0.13941 0.0
C2345 C 0.6737 0.62096 0.13877 0.0
C2346 C 0.65521 0.60152 0.13328 0.0
C2347 C 0.6441 0.55519 0.12865 0.0
C2348 C 0.65166 0.52873 0.12937 0.0
C2349 C 0.66249 0.57496 0.13368 0.0
C2350 C 0.67786 0.52216 0.13443 0.0
C2351 C 0.69622 0.54163 0.13953 0.0
H2352 H 0.14028 0.96057 0.86177 0.0
H2353 H 0.1434 0.9629 0.94479 0.0
H2354 H 0.17313 0.92532 0.94515 0.0
H2355 H 0.20177 0.89507 0.92156 0.0
H2356 H 0.20032 0.89446 0.83848 0.0
H2357 H 0.16589 0.92777 0.83835 0.0
C2358 C 0.14685 0.95234 0.87993 0.0
C2359 C 0.13956 0.96422 0.90321 0.0
C2360 C 0.1643 0.93115 0.87994 0.0
C2361 C 0.14888 0.95399 0.92663 0.0
C2362 C 0.16582 0.93253 0.92685 0.0
C2363 C 0.1933 0.90168 0.9035 0.0
C2364 C 0.20325 0.89231 0.88008 0.0
C2365 C 0.17415 0.92136 0.90359 0.0
C2366 C 0.19279 0.90151 0.85673 0.0
C2367 C 0.17323 0.92056 0.85664 0.0
loop_
_geom_bond_atom_site_label_1
_geom_bond_atom_site_label_2
_geom_bond_distance
_geom_bond_site_symmetry_2
_ccdc_geom_bond_type
Co0 O3 1.970 . S
Co0 N17 1.989 . S
Co0 O25 1.967 . S
Co0 O32 1.920 . S
Co1 O4 1.966 . S
Co1 N10 2.022 . S
Co1 N18 1.993 . S
Co1 O26 1.941 . S
C2 O3 1.258 . S
C2 O4 1.263 . S
O3 Co0 1.970 . S
O3 C2 1.258 . S
O4 Co1 1.966 . S
O4 C2 1.263 . S
C5 O6 1.235 . S
C5 O32 1.289 . S
O6 C5 1.235 . S
C7 C9 1.400 . S
C7 N10 1.351 . S
C7 C12 1.501 . S
C8 C9 1.387 . S
C8 N11 1.341 . S
C9 C7 1.400 . S
C9 C8 1.387 . S
N10 Co1 2.022 . S
N10 C7 1.351 . S
N10 N11 1.365 . S
N11 C8 1.341 . S
N11 N10 1.365 . S
N11 H31 0.862 . S
C12 C7 1.501 . S
C12 H13 0.961 . S
C12 H14 0.961 . S
C12 H15 0.960 . S
H13 C12 0.961 . S
H14 C12 0.961 . S
H15 C12 0.960 . S
C16 N17 1.342 . S
C16 C20 1.401 . S
C16 C21 1.499 . S
N17 Co0 1.989 . S
N17 C16 1.342 . S
N17 N18 1.388 . S
N18 Co1 1.993 . S
N18 N17 1.388 . S
N18 C19 1.346 . S
C19 N18 1.346 . S
C19 C20 1.396 . S
C19 C29 1.510 . S
C20 C16 1.401 . S
C20 C19 1.396 . S
C21 C16 1.499 . S
C21 H22 0.959 . S
C21 H23 0.960 . S
C21 H24 0.961 . S
H22 C21 0.959 . S
H23 C21 0.960 . S
H24 C21 0.961 . S
O25 Co0 1.967 . S
O25 C33 1.258 . S
O26 Co1 1.941 . S
O26 C33 1.266 . S
H27 C29 0.959 . S
H28 C29 0.961 . S
C29 C19 1.510 . S
C29 H27 0.959 . S
C29 H28 0.961 . S
C29 H30 0.960 . S
H30 C29 0.960 . S
H31 N11 0.862 . S
O32 Co0 1.920 . S
O32 C5 1.289 . S
C33 O25 1.258 . S
C33 O26 1.266 . S
Co34 O37 1.970 . S
Co34 N51 1.989 . S
Co34 O59 1.967 . S
Co34 O66 1.920 1_655 S
Co35 O38 1.966 . S
Co35 N44 2.022 . S
Co35 N52 1.993 . S
Co35 O60 1.941 . S
C36 O37 1.258 . S
C36 O38 1.263 . S
O37 Co34 1.970 . S
O37 C36 1.258 . S
O38 Co35 1.966 . S
O38 C36 1.263 . S
C39 O40 1.235 . S
C39 O66 1.289 . S
O40 C39 1.235 . S
C41 C43 1.400 . S
C41 N44 1.351 1_565 S
C41 C46 1.501 . S
C42 C43 1.387 . S
C42 N45 1.341 1_565 S
C43 C41 1.400 . S
C43 C42 1.387 . S
N44 Co35 2.022 . S
N44 C41 1.351 1_545 S
N44 N45 1.365 . S
N45 C42 1.341 1_545 S
N45 N44 1.365 . S
N45 H65 0.862 . S
C46 C41 1.501 . S
C46 H47 0.961 . S
C46 H48 0.961 . S
C46 H49 0.960 . S
H47 C46 0.961 . S
H48 C46 0.961 . S
H49 C46 0.960 . S
C50 N51 1.342 . S
C50 C54 1.401 . S
C50 C55 1.499 1_655 S
N51 Co34 1.989 . S
N51 C50 1.342 . S
N51 N52 1.388 . S
N52 Co35 1.993 . S
N52 N51 1.388 . S
N52 C53 1.346 . S
C53 N52 1.346 . S
C53 C54 1.396 . S
C53 C63 1.510 1_545 S
C54 C50 1.401 . S
C54 C53 1.396 . S
C55 C50 1.499 1_455 S
C55 H56 0.959 . S
C55 H57 0.960 . S
C55 H58 0.961 . S
H56 C55 0.959 . S
H57 C55 0.960 . S
H58 C55 0.961 . S
O59 Co34 1.967 . S
O59 C67 1.258 . S
O60 Co35 1.941 . S
O60 C67 1.266 . S
H61 C63 0.959 . S
H62 C63 0.961 . S
C63 C53 1.510 1_565 S
C63 H61 0.959 . S
C63 H62 0.961 . S
C63 H64 0.960 . S
H64 C63 0.960 . S
H65 N45 0.862 . S
O66 Co34 1.920 1_455 S
O66 C39 1.289 . S
C67 O59 1.258 . S
C67 O60 1.266 . S
Co68 O71 1.970 . S
Co68 N85 1.989 . S
Co68 O93 1.967 . S
Co68 O100 1.920 . S
Co69 O72 1.966 . S
Co69 N78 2.022 . S
Co69 N86 1.993 . S
Co69 O94 1.941 . S
C70 O71 1.258 . S
C70 O72 1.263 . S
O71 Co68 1.970 . S
O71 C70 1.258 . S
O72 Co69 1.966 . S
O72 C70 1.263 . S
C73 O74 1.235 . S
C73 O100 1.289 . S
O74 C73 1.235 . S
C75 C77 1.400 . S
C75 N78 1.351 . S
C75 C80 1.501 . S
C76 C77 1.387 . S
C76 N79 1.341 . S
C77 C75 1.400 . S
C77 C76 1.387 . S
N78 Co69 2.022 . S
N78 C75 1.351 . S
N78 N79 1.365 . S
N79 C76 1.341 . S
N79 N78 1.365 . S
N79 H99 0.862 . S
C80 C75 1.501 . S
C80 H81 0.961 . S
C80 H82 0.961 . S
C80 H83 0.960 . S
H81 C80 0.961 . S
H82 C80 0.961 . S
H83 C80 0.960 . S
C84 N85 1.342 . S
C84 C88 1.401 . S
C84 C89 1.499 . S
N85 Co68 1.989 . S
N85 C84 1.342 . S
N85 N86 1.388 . S
N86 Co69 1.993 . S
N86 N85 1.388 . S
N86 C87 1.346 . S
C87 N86 1.346 . S
C87 C88 1.396 . S
C87 C97 1.510 . S
C88 C84 1.401 . S
C88 C87 1.396 . S
C89 C84 1.499 . S
C89 H90 0.959 . S
C89 H91 0.960 . S
C89 H92 0.961 . S
H90 C89 0.959 . S
H91 C89 0.960 . S
H92 C89 0.961 . S
O93 Co68 1.967 . S
O93 C101 1.258 . S
O94 Co69 1.941 . S
O94 C101 1.266 . S
H95 C97 0.959 . S
H96 C97 0.961 . S
C97 C87 1.510 . S
C97 H95 0.959 . S
C97 H96 0.961 . S
C97 H98 0.960 . S
H98 C97 0.960 . S
H99 N79 0.862 . S
O100 Co68 1.920 . S
O100 C73 1.289 . S
C101 O93 1.258 . S
C101 O94 1.266 . S
Co102 O105 1.970 . S
Co102 N119 1.989 . S
Co102 O127 1.967 . S
Co102 O134 1.920 . S
Co103 O106 1.966 . S
Co103 N112 2.022 . S
Co103 N120 1.993 . S
Co103 O128 1.941 . S
C104 O105 1.258 . S
C104 O106 1.263 . S
O105 Co102 1.970 . S
O105 C104 1.258 . S
O106 Co103 1.966 . S
O106 C104 1.263 . S
C107 O108 1.235 . S
C107 O134 1.289 . S
O108 C107 1.235 . S
C109 C111 1.400 . S
C109 N112 1.351 1_545 S
C109 C114 1.501 . S
C110 C111 1.387 . S
C110 N113 1.341 1_545 S
C111 C109 1.400 . S
C111 C110 1.387 . S
N112 Co103 2.022 . S
N112 C109 1.351 1_565 S
N112 N113 1.365 . S
N113 C110 1.341 1_565 S
N113 N112 1.365 . S
N113 H133 0.862 . S
C114 C109 1.501 . S
C114 H115 0.961 . S
C114 H116 0.961 . S
C114 H117 0.960 . S
H115 C114 0.961 . S
H116 C114 0.961 . S
H117 C114 0.960 . S
C118 N119 1.342 . S
C118 C122 1.401 . S
C118 C123 1.499 . S
N119 Co102 1.989 . S
N119 C118 1.342 . S
N119 N120 1.388 . S
N120 Co103 1.993 . S
N120 N119 1.388 . S
N120 C121 1.346 . S
C121 N120 1.346 . S
C121 C122 1.396 . S
C121 C131 1.510 1_565 S
C122 C118 1.401 . S
C122 C121 1.396 . S
C123 C118 1.499 . S
C123 H124 0.959 . S
C123 H125 0.960 . S
C123 H126 0.961 . S
H124 C123 0.959 . S
H125 C123 0.960 . S
H126 C123 0.961 . S
O127 Co102 1.967 . S
O127 C135 1.258 . S
O128 Co103 1.941 . S
O128 C135 1.266 . S
H129 C131 0.959 . S
H130 C131 0.961 . S
C131 C121 1.510 1_545 S
C131 H129 0.959 . S
C131 H130 0.961 . S
C131 H132 0.960 . S
H132 C131 0.960 . S
H133 N113 0.862 . S
O134 Co102 1.920 . S
O134 C107 1.289 . S
C135 O127 1.258 . S
C135 O128 1.266 . S
Co136 O139 1.970 . S
Co136 N153 1.989 . S
Co136 O161 1.967 . S
Co136 O168 1.920 . S
Co137 O140 1.966 . S
Co137 N146 2.022 . S
Co137 N154 1.993 . S
Co137 O162 1.941 . S
C138 O139 1.258 . S
C138 O140 1.263 . S
O139 Co136 1.970 . S
O139 C138 1.258 . S
O140 Co137 1.966 . S
O140 C138 1.263 . S
C141 O142 1.235 . S
C141 O168 1.289 . S
O142 C141 1.235 . S
C143 C145 1.400 . S
C143 N146 1.351 . S
C143 C148 1.501 . S
C144 C145 1.387 . S
C144 N147 1.341 . S
C145 C143 1.400 . S
C145 C144 1.387 . S
N146 Co137 2.022 . S
N146 C143 1.351 . S
N146 N147 1.365 . S
N147 C144 1.341 . S
N147 N146 1.365 . S
N147 H167 0.862 . S
C148 C143 1.501 . S
C148 H149 0.961 . S
C148 H150 0.961 . S
C148 H151 0.960 . S
H149 C148 0.961 . S
H150 C148 0.961 . S
H151 C148 0.960 . S
C152 N153 1.342 . S
C152 C156 1.401 . S
C152 C157 1.499 . S
N153 Co136 1.989 . S
N153 C152 1.342 . S
N153 N154 1.388 . S
N154 Co137 1.993 . S
N154 N153 1.388 . S
N154 C155 1.346 . S
C155 N154 1.346 . S
C155 C156 1.396 . S
C155 C165 1.510 . S
C156 C152 1.401 . S
C156 C155 1.396 . S
C157 C152 1.499 . S
C157 H158 0.959 . S
C157 H159 0.960 . S
C157 H160 0.961 . S
H158 C157 0.959 . S
H159 C157 0.960 . S
H160 C157 0.961 . S
O161 Co136 1.967 . S
O161 C169 1.258 . S
O162 Co137 1.941 . S
O162 C169 1.266 . S
H163 C165 0.959 . S
H164 C165 0.961 . S
C165 C155 1.510 . S
C165 H163 0.959 . S
C165 H164 0.961 . S
C165 H166 0.960 . S
H166 C165 0.960 . S
H167 N147 0.862 . S
O168 Co136 1.920 . S
O168 C141 1.289 . S
C169 O161 1.258 . S
C169 O162 1.266 . S
Co170 O173 1.970 . S
Co170 N187 1.989 . S
Co170 O195 1.967 . S
Co170 O202 1.920 . S
Co171 O174 1.966 . S
Co171 N180 2.022 . S
Co171 N188 1.993 . S
Co171 O196 1.941 . S
C172 O173 1.258 . S
C172 O174 1.263 . S
O173 Co170 1.970 . S
O173 C172 1.258 . S
O174 Co171 1.966 . S
O174 C172 1.263 . S
C175 O176 1.235 . S
C175 O202 1.289 . S
O176 C175 1.235 . S
C177 C179 1.400 . S
C177 N180 1.351 1_565 S
C177 C182 1.501 . S
C178 C179 1.387 . S
C178 N181 1.341 1_565 S
C179 C177 1.400 . S
C179 C178 1.387 . S
N180 Co171 2.022 . S
N180 C177 1.351 1_545 S
N180 N181 1.365 . S
N181 C178 1.341 1_545 S
N181 N180 1.365 . S
N181 H201 0.862 . S
C182 C177 1.501 . S
C182 H183 0.961 . S
C182 H184 0.961 . S
C182 H185 0.960 . S
H183 C182 0.961 . S
H184 C182 0.961 . S
H185 C182 0.960 . S
C186 N187 1.342 . S
C186 C190 1.401 . S
C186 C191 1.499 . S
N187 Co170 1.989 . S
N187 C186 1.342 . S
N187 N188 1.388 . S
N188 Co171 1.993 . S
N188 N187 1.388 . S
N188 C189 1.346 . S
C189 N188 1.346 . S
C189 C190 1.396 . S
C189 C199 1.510 1_545 S
C190 C186 1.401 . S
C190 C189 1.396 . S
C191 C186 1.499 . S
C191 H192 0.959 . S
C191 H193 0.960 . S
C191 H194 0.961 . S
H192 C191 0.959 . S
H193 C191 0.960 . S
H194 C191 0.961 . S
O195 Co170 1.967 . S
O195 C203 1.258 . S
O196 Co171 1.941 . S
O196 C203 1.266 . S
H197 C199 0.959 . S
H198 C199 0.961 . S
C199 C189 1.510 1_565 S
C199 H197 0.959 . S
C199 H198 0.961 . S
C199 H200 0.960 . S
H200 C199 0.960 . S
H201 N181 0.862 . S
O202 Co170 1.920 . S
O202 C175 1.289 . S
C203 O195 1.258 . S
C203 O196 1.266 . S
Co204 O207 1.970 . S
Co204 N221 1.989 . S
Co204 O229 1.967 . S
Co204 O236 1.920 . S
Co205 O208 1.966 . S
Co205 N214 2.022 . S
Co205 N222 1.993 . S
Co205 O230 1.941 . S
C206 O207 1.258 . S
C206 O208 1.263 . S
O207 Co204 1.970 . S
O207 C206 1.258 . S
O208 Co205 1.966 . S
O208 C206 1.263 . S
C209 O210 1.235 . S
C209 O236 1.289 . S
O210 C209 1.235 . S
C211 C213 1.400 . S
C211 N214 1.351 . S
C211 C216 1.501 . S
C212 C213 1.387 . S
C212 N215 1.341 . S
C213 C211 1.400 . S
C213 C212 1.387 . S
N214 Co205 2.022 . S
N214 C211 1.351 . S
N214 N215 1.365 . S
N215 C212 1.341 . S
N215 N214 1.365 . S
N215 H235 0.862 . S
C216 C211 1.501 . S
C216 H217 0.961 . S
C216 H218 0.961 . S
C216 H219 0.960 . S
H217 C216 0.961 . S
H218 C216 0.961 . S
H219 C216 0.960 . S
C220 N221 1.342 . S
C220 C224 1.401 . S
C220 C225 1.499 . S
N221 Co204 1.989 . S
N221 C220 1.342 . S
N221 N222 1.388 . S
N222 Co205 1.993 . S
N222 N221 1.388 . S
N222 C223 1.346 . S
C223 N222 1.346 . S
C223 C224 1.396 . S
C223 C233 1.510 . S
C224 C220 1.401 . S
C224 C223 1.396 . S
C225 C220 1.499 . S
C225 H226 0.959 . S
C225 H227 0.960 . S
C225 H228 0.961 . S
H226 C225 0.959 . S
H227 C225 0.960 . S
H228 C225 0.961 . S
O229 Co204 1.967 . S
O229 C237 1.258 . S
O230 Co205 1.941 . S
O230 C237 1.266 . S
H231 C233 0.959 . S
H232 C233 0.961 . S
C233 C223 1.510 . S
C233 H231 0.959 . S
C233 H232 0.961 . S
C233 H234 0.960 . S
H234 C233 0.960 . S
H235 N215 0.862 . S
O236 Co204 1.920 . S
O236 C209 1.289 . S
C237 O229 1.258 . S
C237 O230 1.266 . S
Co238 O241 1.970 . S
Co238 N255 1.989 . S
Co238 O263 1.967 . S
Co238 O270 1.920 1_655 S
Co239 O242 1.966 . S
Co239 N248 2.022 . S
Co239 N256 1.993 . S
Co239 O264 1.941 . S
C240 O241 1.258 . S
C240 O242 1.263 . S
O241 Co238 1.970 . S
O241 C240 1.258 . S
O242 Co239 1.966 . S
O242 C240 1.263 . S
C243 O244 1.235 . S
C243 O270 1.289 . S
O244 C243 1.235 . S
C245 C247 1.400 . S
C245 N248 1.351 1_545 S
C245 C250 1.501 . S
C246 C247 1.387 . S
C246 N249 1.341 1_545 S
C247 C245 1.400 . S
C247 C246 1.387 . S
N248 Co239 2.022 . S
N248 C245 1.351 1_565 S
N248 N249 1.365 . S
N249 C246 1.341 1_565 S
N249 N248 1.365 . S
N249 H269 0.862 . S
C250 C245 1.501 . S
C250 H251 0.961 . S
C250 H252 0.961 . S
C250 H253 0.960 . S
H251 C250 0.961 . S
H252 C250 0.961 . S
H253 C250 0.960 . S
C254 N255 1.342 . S
C254 C258 1.401 . S
C254 C259 1.499 1_655 S
N255 Co238 1.989 . S
N255 C254 1.342 . S
N255 N256 1.388 . S
N256 Co239 1.993 . S
N256 N255 1.388 . S
N256 C257 1.346 . S
C257 N256 1.346 . S
C257 C258 1.396 . S
C257 C267 1.510 1_565 S
C258 C254 1.401 . S
C258 C257 1.396 . S
C259 C254 1.499 1_455 S
C259 H260 0.959 . S
C259 H261 0.960 . S
C259 H262 0.961 . S
H260 C259 0.959 . S
H261 C259 0.960 . S
H262 C259 0.961 . S
O263 Co238 1.967 . S
O263 C271 1.258 . S
O264 Co239 1.941 . S
O264 C271 1.266 . S
H265 C267 0.959 . S
H266 C267 0.961 . S
C267 C257 1.510 1_545 S
C267 H265 0.959 . S
C267 H266 0.961 . S
C267 H268 0.960 . S
H268 C267 0.960 . S
H269 N249 0.862 . S
O270 Co238 1.920 1_455 S
O270 C243 1.289 . S
C271 O263 1.258 . S
C271 O264 1.266 . S
Co272 O275 1.970 . S
Co272 N289 1.989 . S
Co272 O297 1.967 . S
Co272 O304 1.920 . S
Co273 O276 1.966 . S
Co273 N282 2.022 . S
Co273 N290 1.993 . S
Co273 O298 1.941 . S
C274 O275 1.258 . S
C274 O276 1.263 . S
O275 Co272 1.970 . S
O275 C274 1.258 . S
O276 Co273 1.966 . S
O276 C274 1.263 . S
C277 O278 1.235 . S
C277 O304 1.289 . S
O278 C277 1.235 . S
C279 C281 1.400 . S
C279 N282 1.351 . S
C279 C284 1.501 . S
C280 C281 1.387 . S
C280 N283 1.341 . S
C281 C279 1.400 . S
C281 C280 1.387 . S
N282 Co273 2.022 . S
N282 C279 1.351 . S
N282 N283 1.365 . S
N283 C280 1.341 . S
N283 N282 1.365 . S
N283 H303 0.862 . S
C284 C279 1.501 . S
C284 H285 0.961 . S
C284 H286 0.961 . S
C284 H287 0.960 . S
H285 C284 0.961 . S
H286 C284 0.961 . S
H287 C284 0.960 . S
C288 N289 1.342 . S
C288 C292 1.401 . S
C288 C293 1.499 . S
N289 Co272 1.989 . S
N289 C288 1.342 . S
N289 N290 1.388 . S
N290 Co273 1.993 . S
N290 N289 1.388 . S
N290 C291 1.346 . S
C291 N290 1.346 . S
C291 C292 1.396 . S
C291 C301 1.510 . S
C292 C288 1.401 . S
C292 C291 1.396 . S
C293 C288 1.499 . S
C293 H294 0.959 . S
C293 H295 0.960 . S
C293 H296 0.961 . S
H294 C293 0.959 . S
H295 C293 0.960 . S
H296 C293 0.961 . S
O297 Co272 1.967 . S
O297 C305 1.258 . S
O298 Co273 1.941 . S
O298 C305 1.266 . S
H299 C301 0.959 . S
H300 C301 0.961 . S
C301 C291 1.510 . S
C301 H299 0.959 . S
C301 H300 0.961 . S
C301 H302 0.960 . S
H302 C301 0.960 . S
H303 N283 0.862 . S
O304 Co272 1.920 . S
O304 C277 1.289 . S
C305 O297 1.258 . S
C305 O298 1.266 . S
Co306 O309 1.970 . S
Co306 N323 1.989 . S
Co306 O331 1.967 . S
Co306 O338 1.920 1_455 S
Co307 O310 1.966 . S
Co307 N316 2.022 . S
Co307 N324 1.993 . S
Co307 O332 1.941 . S
C308 O309 1.258 . S
C308 O310 1.263 . S
O309 Co306 1.970 . S
O309 C308 1.258 . S
O310 Co307 1.966 . S
O310 C308 1.263 . S
C311 O312 1.235 . S
C311 O338 1.289 . S
O312 C311 1.235 . S
C313 C315 1.400 . S
C313 N316 1.351 1_545 S
C313 C318 1.501 . S
C314 C315 1.387 . S
C314 N317 1.341 1_545 S
C315 C313 1.400 . S
C315 C314 1.387 . S
N316 Co307 2.022 . S
N316 C313 1.351 1_565 S
N316 N317 1.365 . S
N317 C314 1.341 1_565 S
N317 N316 1.365 . S
N317 H337 0.862 . S
C318 C313 1.501 . S
C318 H319 0.961 . S
C318 H320 0.961 . S
C318 H321 0.960 . S
H319 C318 0.961 . S
H320 C318 0.961 . S
H321 C318 0.960 . S
C322 N323 1.342 . S
C322 C326 1.401 . S
C322 C327 1.499 1_455 S
N323 Co306 1.989 . S
N323 C322 1.342 . S
N323 N324 1.388 . S
N324 Co307 1.993 . S
N324 N323 1.388 . S
N324 C325 1.346 . S
C325 N324 1.346 . S
C325 C326 1.396 . S
C325 C335 1.510 1_565 S
C326 C322 1.401 . S
C326 C325 1.396 . S
C327 C322 1.499 1_655 S
C327 H328 0.959 . S
C327 H329 0.960 . S
C327 H330 0.961 . S
H328 C327 0.959 . S
H329 C327 0.960 . S
H330 C327 0.961 . S
O331 Co306 1.967 . S
O331 C339 1.258 . S
O332 Co307 1.941 . S
O332 C339 1.266 . S
H333 C335 0.959 . S
H334 C335 0.961 . S
C335 C325 1.510 1_545 S
C335 H333 0.959 . S
C335 H334 0.961 . S
C335 H336 0.960 . S
H336 C335 0.960 . S
H337 N317 0.862 . S
O338 Co306 1.920 1_655 S
O338 C311 1.289 . S
C339 O331 1.258 . S
C339 O332 1.266 . S
Co340 O343 1.970 . S
Co340 N357 1.989 . S
Co340 O365 1.967 . S
Co340 O372 1.920 . S
Co341 O344 1.966 . S
Co341 N350 2.022 . S
Co341 N358 1.993 . S
Co341 O366 1.941 . S
C342 O343 1.258 . S
C342 O344 1.263 . S
O343 Co340 1.970 . S
O343 C342 1.258 . S
O344 Co341 1.966 . S
O344 C342 1.263 . S
C345 O346 1.235 . S
C345 O372 1.289 . S
O346 C345 1.235 . S
C347 C349 1.400 . S
C347 N350 1.351 . S
C347 C352 1.501 . S
C348 C349 1.387 . S
C348 N351 1.341 . S
C349 C347 1.400 . S
C349 C348 1.387 . S
N350 Co341 2.022 . S
N350 C347 1.351 . S
N350 N351 1.365 . S
N351 C348 1.341 . S
N351 N350 1.365 . S
N351 H371 0.862 . S
C352 C347 1.501 . S
C352 H353 0.961 . S
C352 H354 0.961 . S
C352 H355 0.960 . S
H353 C352 0.961 . S
H354 C352 0.961 . S
H355 C352 0.960 . S
C356 N357 1.342 . S
C356 C360 1.401 . S
C356 C361 1.499 . S
N357 Co340 1.989 . S
N357 C356 1.342 . S
N357 N358 1.388 . S
N358 Co341 1.993 . S
N358 N357 1.388 . S
N358 C359 1.346 . S
C359 N358 1.346 . S
C359 C360 1.396 . S
C359 C369 1.510 . S
C360 C356 1.401 . S
C360 C359 1.396 . S
C361 C356 1.499 . S
C361 H362 0.959 . S
C361 H363 0.960 . S
C361 H364 0.961 . S
H362 C361 0.959 . S
H363 C361 0.960 . S
H364 C361 0.961 . S
O365 Co340 1.967 . S
O365 C373 1.258 . S
O366 Co341 1.941 . S
O366 C373 1.266 . S
H367 C369 0.959 . S
H368 C369 0.961 . S
C369 C359 1.510 . S
C369 H367 0.959 . S
C369 H368 0.961 . S
C369 H370 0.960 . S
H370 C369 0.960 . S
H371 N351 0.862 . S
O372 Co340 1.920 . S
O372 C345 1.289 . S
C373 O365 1.258 . S
C373 O366 1.266 . S
Co374 O377 1.970 . S
Co374 N391 1.989 . S
Co374 O399 1.967 . S
Co374 O406 1.920 . S
Co375 O378 1.966 . S
Co375 N384 2.022 . S
Co375 N392 1.993 . S
Co375 O400 1.941 . S
C376 O377 1.258 . S
C376 O378 1.263 . S
O377 Co374 1.970 . S
O377 C376 1.258 . S
O378 Co375 1.966 . S
O378 C376 1.263 . S
C379 O380 1.235 . S
C379 O406 1.289 . S
O380 C379 1.235 . S
C381 C383 1.400 . S
C381 N384 1.351 1_565 S
C381 C386 1.501 . S
C382 C383 1.387 . S
C382 N385 1.341 1_565 S
C383 C381 1.400 . S
C383 C382 1.387 . S
N384 Co375 2.022 . S
N384 C381 1.351 1_545 S
N384 N385 1.365 . S
N385 C382 1.341 1_545 S
N385 N384 1.365 . S
N385 H405 0.862 . S
C386 C381 1.501 . S
C386 H387 0.961 . S
C386 H388 0.961 . S
C386 H389 0.960 . S
H387 C386 0.961 . S
H388 C386 0.961 . S
H389 C386 0.960 . S
C390 N391 1.342 . S
C390 C394 1.401 . S
C390 C395 1.499 . S
N391 Co374 1.989 . S
N391 C390 1.342 . S
N391 N392 1.388 . S
N392 Co375 1.993 . S
N392 N391 1.388 . S
N392 C393 1.346 . S
C393 N392 1.346 . S
C393 C394 1.396 . S
C393 C403 1.510 1_545 S
C394 C390 1.401 . S
C394 C393 1.396 . S
C395 C390 1.499 . S
C395 H396 0.959 . S
C395 H397 0.960 . S
C395 H398 0.961 . S
H396 C395 0.959 . S
H397 C395 0.960 . S
H398 C395 0.961 . S
O399 Co374 1.967 . S
O399 C407 1.258 . S
O400 Co375 1.941 . S
O400 C407 1.266 . S
H401 C403 0.959 . S
H402 C403 0.961 . S
C403 C393 1.510 1_565 S
C403 H401 0.959 . S
C403 H402 0.961 . S
C403 H404 0.960 . S
H404 C403 0.960 . S
H405 N385 0.862 . S
O406 Co374 1.920 . S
O406 C379 1.289 . S
C407 O399 1.258 . S
C407 O400 1.266 . S
Co408 O411 1.970 . S
Co408 N425 1.989 . S
Co408 O433 1.967 . S
Co408 O440 1.920 . S
Co409 O412 1.966 . S
Co409 N418 2.022 . S
Co409 N426 1.993 . S
Co409 O434 1.941 . S
C410 O411 1.258 . S
C410 O412 1.263 . S
O411 Co408 1.970 . S
O411 C410 1.258 . S
O412 Co409 1.966 . S
O412 C410 1.263 . S
C413 O414 1.235 . S
C413 O440 1.289 . S
O414 C413 1.235 . S
C415 C417 1.400 . S
C415 N418 1.351 . S
C415 C420 1.501 . S
C416 C417 1.387 . S
C416 N419 1.341 . S
C417 C415 1.400 . S
C417 C416 1.387 . S
N418 Co409 2.022 . S
N418 C415 1.351 . S
N418 N419 1.365 . S
N419 C416 1.341 . S
N419 N418 1.365 . S
N419 H439 0.862 . S
C420 C415 1.501 . S
C420 H421 0.961 . S
C420 H422 0.961 . S
C420 H423 0.960 . S
H421 C420 0.961 . S
H422 C420 0.961 . S
H423 C420 0.960 . S
C424 N425 1.342 . S
C424 C428 1.401 . S
C424 C429 1.499 . S
N425 Co408 1.989 . S
N425 C424 1.342 . S
N425 N426 1.388 . S
N426 Co409 1.993 . S
N426 N425 1.388 . S
N426 C427 1.346 . S
C427 N426 1.346 . S
C427 C428 1.396 . S
C427 C437 1.510 . S
C428 C424 1.401 . S
C428 C427 1.396 . S
C429 C424 1.499 . S
C429 H430 0.959 . S
C429 H431 0.960 . S
C429 H432 0.961 . S
H430 C429 0.959 . S
H431 C429 0.960 . S
H432 C429 0.961 . S
O433 Co408 1.967 . S
O433 C441 1.258 . S
O434 Co409 1.941 . S
O434 C441 1.266 . S
H435 C437 0.959 . S
H436 C437 0.961 . S
C437 C427 1.510 . S
C437 H435 0.959 . S
C437 H436 0.961 . S
C437 H438 0.960 . S
H438 C437 0.960 . S
H439 N419 0.862 . S
O440 Co408 1.920 . S
O440 C413 1.289 . S
C441 O433 1.258 . S
C441 O434 1.266 . S
Co442 O445 1.970 . S
Co442 N459 1.989 . S
Co442 O467 1.967 . S
Co442 O474 1.920 . S
Co443 O446 1.966 . S
Co443 N452 2.022 . S
Co443 N460 1.993 . S
Co443 O468 1.941 . S
C444 O445 1.258 . S
C444 O446 1.263 . S
O445 Co442 1.970 . S
O445 C444 1.258 . S
O446 Co443 1.966 . S
O446 C444 1.263 . S
C447 O448 1.235 . S
C447 O474 1.289 . S
O448 C447 1.235 . S
C449 C451 1.400 . S
C449 N452 1.351 1_545 S
C449 C454 1.501 . S
C450 C451 1.387 . S
C450 N453 1.341 1_545 S
C451 C449 1.400 . S
C451 C450 1.387 . S
N452 Co443 2.022 . S
N452 C449 1.351 1_565 S
N452 N453 1.365 . S
N453 C450 1.341 1_565 S
N453 N452 1.365 . S
N453 H473 0.862 . S
C454 C449 1.501 . S
C454 H455 0.961 . S
C454 H456 0.961 . S
C454 H457 0.960 . S
H455 C454 0.961 . S
H456 C454 0.961 . S
H457 C454 0.960 . S
C458 N459 1.342 . S
C458 C462 1.401 . S
C458 C463 1.499 . S
N459 Co442 1.989 . S
N459 C458 1.342 . S
N459 N460 1.388 . S
N460 Co443 1.993 . S
N460 N459 1.388 . S
N460 C461 1.346 . S
C461 N460 1.346 . S
C461 C462 1.396 . S
C461 C471 1.510 1_565 S
C462 C458 1.401 . S
C462 C461 1.396 . S
C463 C458 1.499 . S
C463 H464 0.959 . S
C463 H465 0.960 . S
C463 H466 0.961 . S
H464 C463 0.959 . S
H465 C463 0.960 . S
H466 C463 0.961 . S
O467 Co442 1.967 . S
O467 C475 1.258 . S
O468 Co443 1.941 . S
O468 C475 1.266 . S
H469 C471 0.959 . S
H470 C471 0.961 . S
C471 C461 1.510 1_545 S
C471 H469 0.959 . S
C471 H470 0.961 . S
C471 H472 0.960 . S
H472 C471 0.960 . S
H473 N453 0.862 . S
O474 Co442 1.920 . S
O474 C447 1.289 . S
C475 O467 1.258 . S
C475 O468 1.266 . S
Co476 O479 1.970 . S
Co476 N493 1.989 . S
Co476 O501 1.967 . S
Co476 O508 1.920 . S
Co477 O480 1.966 . S
Co477 N486 2.022 . S
Co477 N494 1.993 . S
Co477 O502 1.941 . S
C478 O479 1.258 . S
C478 O480 1.263 . S
O479 Co476 1.970 . S
O479 C478 1.258 . S
O480 Co477 1.966 . S
O480 C478 1.263 . S
C481 O482 1.235 . S
C481 O508 1.289 . S
O482 C481 1.235 . S
C483 C485 1.400 . S
C483 N486 1.351 . S
C483 C488 1.501 . S
C484 C485 1.387 . S
C484 N487 1.341 . S
C485 C483 1.400 . S
C485 C484 1.387 . S
N486 Co477 2.022 . S
N486 C483 1.351 . S
N486 N487 1.365 . S
N487 C484 1.341 . S
N487 N486 1.365 . S
N487 H507 0.862 . S
C488 C483 1.501 . S
C488 H489 0.961 . S
C488 H490 0.961 . S
C488 H491 0.960 . S
H489 C488 0.961 . S
H490 C488 0.961 . S
H491 C488 0.960 . S
C492 N493 1.342 . S
C492 C496 1.401 . S
C492 C497 1.499 . S
N493 Co476 1.989 . S
N493 C492 1.342 . S
N493 N494 1.388 . S
N494 Co477 1.993 . S
N494 N493 1.388 . S
N494 C495 1.346 . S
C495 N494 1.346 . S
C495 C496 1.396 . S
C495 C505 1.510 . S
C496 C492 1.401 . S
C496 C495 1.396 . S
C497 C492 1.499 . S
C497 H498 0.959 . S
C497 H499 0.960 . S
C497 H500 0.961 . S
H498 C497 0.959 . S
H499 C497 0.960 . S
H500 C497 0.961 . S
O501 Co476 1.967 . S
O501 C509 1.258 . S
O502 Co477 1.941 . S
O502 C509 1.266 . S
H503 C505 0.959 . S
H504 C505 0.961 . S
C505 C495 1.510 . S
C505 H503 0.959 . S
C505 H504 0.961 . S
C505 H506 0.960 . S
H506 C505 0.960 . S
H507 N487 0.862 . S
O508 Co476 1.920 . S
O508 C481 1.289 . S
C509 O501 1.258 . S
C509 O502 1.266 . S
Co510 O513 1.970 . S
Co510 N527 1.989 . S
Co510 O535 1.967 . S
Co510 O542 1.920 1_455 S
Co511 O514 1.966 . S
Co511 N520 2.022 . S
Co511 N528 1.993 . S
Co511 O536 1.941 . S
C512 O513 1.258 . S
C512 O514 1.263 . S
O513 Co510 1.970 . S
O513 C512 1.258 . S
O514 Co511 1.966 . S
O514 C512 1.263 . S
C515 O516 1.235 . S
C515 O542 1.289 . S
O516 C515 1.235 . S
C517 C519 1.400 . S
C517 N520 1.351 1_565 S
C517 C522 1.501 . S
C518 C519 1.387 . S
C518 N521 1.341 1_565 S
C519 C517 1.400 . S
C519 C518 1.387 . S
N520 Co511 2.022 . S
N520 C517 1.351 1_545 S
N520 N521 1.365 . S
N521 C518 1.341 1_545 S
N521 N520 1.365 . S
N521 H541 0.862 . S
C522 C517 1.501 . S
C522 H523 0.961 . S
C522 H524 0.961 . S
C522 H525 0.960 . S
H523 C522 0.961 . S
H524 C522 0.961 . S
H525 C522 0.960 . S
C526 N527 1.342 . S
C526 C530 1.401 . S
C526 C531 1.499 1_455 S
N527 Co510 1.989 . S
N527 C526 1.342 . S
N527 N528 1.388 . S
N528 Co511 1.993 . S
N528 N527 1.388 . S
N528 C529 1.346 . S
C529 N528 1.346 . S
C529 C530 1.396 . S
C529 C539 1.510 1_545 S
C530 C526 1.401 . S
C530 C529 1.396 . S
C531 C526 1.499 1_655 S
C531 H532 0.959 . S
C531 H533 0.960 . S
C531 H534 0.961 . S
H532 C531 0.959 . S
H533 C531 0.960 . S
H534 C531 0.961 . S
O535 Co510 1.967 . S
O535 C543 1.258 . S
O536 Co511 1.941 . S
O536 C543 1.266 . S
H537 C539 0.959 . S
H538 C539 0.961 . S
C539 C529 1.510 1_565 S
C539 H537 0.959 . S
C539 H538 0.961 . S
C539 H540 0.960 . S
H540 C539 0.960 . S
H541 N521 0.862 . S
O542 Co510 1.920 1_655 S
O542 C515 1.289 . S
C543 O535 1.258 . S
C543 O536 1.266 . S
Co544 O547 1.970 . S
Co544 N561 1.989 . S
Co544 O569 1.967 . S
Co544 O576 1.920 . S
Co545 O548 1.966 . S
Co545 N554 2.022 . S
Co545 N562 1.993 . S
Co545 O570 1.941 . S
C546 O547 1.258 . S
C546 O548 1.263 . S
O547 Co544 1.970 . S
O547 C546 1.258 . S
O548 Co545 1.966 . S
O548 C546 1.263 . S
C549 O550 1.235 . S
C549 O576 1.289 . S
O550 C549 1.235 . S
C551 C553 1.400 . S
C551 N554 1.351 . S
C551 C556 1.501 . S
C552 C553 1.387 . S
C552 N555 1.341 . S
C553 C551 1.400 . S
C553 C552 1.387 . S
N554 Co545 2.022 . S
N554 C551 1.351 . S
N554 N555 1.365 . S
N555 C552 1.341 . S
N555 N554 1.365 . S
N555 H575 0.862 . S
C556 C551 1.501 . S
C556 H557 0.961 . S
C556 H558 0.961 . S
C556 H559 0.960 . S
H557 C556 0.961 . S
H558 C556 0.961 . S
H559 C556 0.960 . S
C560 N561 1.342 . S
C560 C564 1.401 . S
C560 C565 1.499 . S
N561 Co544 1.989 . S
N561 C560 1.342 . S
N561 N562 1.388 . S
N562 Co545 1.993 . S
N562 N561 1.388 . S
N562 C563 1.346 . S
C563 N562 1.346 . S
C563 C564 1.396 . S
C563 C573 1.510 . S
C564 C560 1.401 . S
C564 C563 1.396 . S
C565 C560 1.499 . S
C565 H566 0.959 . S
C565 H567 0.960 . S
C565 H568 0.961 . S
H566 C565 0.959 . S
H567 C565 0.960 . S
H568 C565 0.961 . S
O569 Co544 1.967 . S
O569 C577 1.258 . S
O570 Co545 1.941 . S
O570 C577 1.266 . S
H571 C573 0.959 . S
H572 C573 0.961 . S
C573 C563 1.510 . S
C573 H571 0.959 . S
C573 H572 0.961 . S
C573 H574 0.960 . S
H574 C573 0.960 . S
H575 N555 0.862 . S
O576 Co544 1.920 . S
O576 C549 1.289 . S
C577 O569 1.258 . S
C577 O570 1.266 . S
Co578 O581 1.970 . S
Co578 N595 1.989 . S
Co578 O603 1.967 . S
Co578 O610 1.920 . S
Co579 O582 1.966 . S
Co579 N588 2.022 . S
Co579 N596 1.993 . S
Co579 O604 1.941 . S
C580 O581 1.258 . S
C580 O582 1.263 . S
O581 Co578 1.970 . S
O581 C580 1.258 . S
O582 Co579 1.966 . S
O582 C580 1.263 . S
C583 O584 1.235 . S
C583 O610 1.289 . S
O584 C583 1.235 . S
C585 C587 1.400 . S
C585 N588 1.351 . S
C585 C590 1.501 . S
C586 C587 1.387 . S
C586 N589 1.341 . S
C587 C585 1.400 . S
C587 C586 1.387 . S
N588 Co579 2.022 . S
N588 C585 1.351 . S
N588 N589 1.365 . S
N589 C586 1.341 . S
N589 N588 1.365 . S
N589 H609 0.862 . S
C590 C585 1.501 . S
C590 H591 0.961 . S
C590 H592 0.961 . S
C590 H593 0.960 . S
H591 C590 0.961 . S
H592 C590 0.961 . S
H593 C590 0.960 . S
C594 N595 1.342 . S
C594 C598 1.401 . S
C594 C599 1.499 . S
N595 Co578 1.989 . S
N595 C594 1.342 . S
N595 N596 1.388 . S
N596 Co579 1.993 . S
N596 N595 1.388 . S
N596 C597 1.346 . S
C597 N596 1.346 . S
C597 C598 1.396 . S
C597 C607 1.510 . S
C598 C594 1.401 . S
C598 C597 1.396 . S
C599 C594 1.499 . S
C599 H600 0.959 . S
C599 H601 0.960 . S
C599 H602 0.961 . S
H600 C599 0.959 . S
H601 C599 0.960 . S
H602 C599 0.961 . S
O603 Co578 1.967 . S
O603 C611 1.258 . S
O604 Co579 1.941 . S
O604 C611 1.266 . S
H605 C607 0.959 . S
H606 C607 0.961 . S
C607 C597 1.510 . S
C607 H605 0.959 . S
C607 H606 0.961 . S
C607 H608 0.960 . S
H608 C607 0.960 . S
H609 N589 0.862 . S
O610 Co578 1.920 . S
O610 C583 1.289 . S
C611 O603 1.258 . S
C611 O604 1.266 . S
Co612 O615 1.970 . S
Co612 N629 1.989 . S
Co612 O637 1.967 . S
Co612 O644 1.920 . S
Co613 O616 1.966 . S
Co613 N622 2.022 . S
Co613 N630 1.993 . S
Co613 O638 1.941 . S
C614 O615 1.258 . S
C614 O616 1.263 . S
O615 Co612 1.970 . S
O615 C614 1.258 . S
O616 Co613 1.966 . S
O616 C614 1.263 . S
C617 O618 1.235 . S
C617 O644 1.289 . S
O618 C617 1.235 . S
C619 C621 1.400 . S
C619 N622 1.351 . S
C619 C624 1.501 . S
C620 C621 1.387 . S
C620 N623 1.341 . S
C621 C619 1.400 . S
C621 C620 1.387 . S
N622 Co613 2.022 . S
N622 C619 1.351 . S
N622 N623 1.365 . S
N623 C620 1.341 . S
N623 N622 1.365 . S
N623 H643 0.862 . S
C624 C619 1.501 . S
C624 H625 0.961 . S
C624 H626 0.961 . S
C624 H627 0.960 . S
H625 C624 0.961 . S
H626 C624 0.961 . S
H627 C624 0.960 . S
C628 N629 1.342 . S
C628 C632 1.401 . S
C628 C633 1.499 . S
N629 Co612 1.989 . S
N629 C628 1.342 . S
N629 N630 1.388 . S
N630 Co613 1.993 . S
N630 N629 1.388 . S
N630 C631 1.346 . S
C631 N630 1.346 . S
C631 C632 1.396 . S
C631 C641 1.510 . S
C632 C628 1.401 . S
C632 C631 1.396 . S
C633 C628 1.499 . S
C633 H634 0.959 . S
C633 H635 0.960 . S
C633 H636 0.961 . S
H634 C633 0.959 . S
H635 C633 0.960 . S
H636 C633 0.961 . S
O637 Co612 1.967 . S
O637 C645 1.258 . S
O638 Co613 1.941 . S
O638 C645 1.266 . S
H639 C641 0.959 . S
H640 C641 0.961 . S
C641 C631 1.510 . S
C641 H639 0.959 . S
C641 H640 0.961 . S
C641 H642 0.960 . S
H642 C641 0.960 . S
H643 N623 0.862 . S
O644 Co612 1.920 . S
O644 C617 1.289 . S
C645 O637 1.258 . S
C645 O638 1.266 . S
Co646 O649 1.970 . S
Co646 N663 1.989 . S
Co646 O671 1.967 . S
Co646 O678 1.920 1_455 S
Co647 O650 1.966 . S
Co647 N656 2.022 . S
Co647 N664 1.993 . S
Co647 O672 1.941 . S
C648 O649 1.258 . S
C648 O650 1.263 . S
O649 Co646 1.970 . S
O649 C648 1.258 . S
O650 Co647 1.966 . S
O650 C648 1.263 . S
C651 O652 1.235 . S
C651 O678 1.289 . S
O652 C651 1.235 . S
C653 C655 1.400 . S
C653 N656 1.351 . S
C653 C658 1.501 . S
C654 C655 1.387 . S
C654 N657 1.341 . S
C655 C653 1.400 . S
C655 C654 1.387 . S
N656 Co647 2.022 . S
N656 C653 1.351 . S
N656 N657 1.365 . S
N657 C654 1.341 . S
N657 N656 1.365 . S
N657 H677 0.862 . S
C658 C653 1.501 . S
C658 H659 0.961 . S
C658 H660 0.961 . S
C658 H661 0.960 . S
H659 C658 0.961 . S
H660 C658 0.961 . S
H661 C658 0.960 . S
C662 N663 1.342 . S
C662 C666 1.401 . S
C662 C667 1.499 1_455 S
N663 Co646 1.989 . S
N663 C662 1.342 . S
N663 N664 1.388 . S
N664 Co647 1.993 . S
N664 N663 1.388 . S
N664 C665 1.346 . S
C665 N664 1.346 . S
C665 C666 1.396 . S
C665 C675 1.510 . S
C666 C662 1.401 . S
C666 C665 1.396 . S
C667 C662 1.499 1_655 S
C667 H668 0.959 . S
C667 H669 0.960 . S
C667 H670 0.961 . S
H668 C667 0.959 . S
H669 C667 0.960 . S
H670 C667 0.961 . S
O671 Co646 1.967 . S
O671 C679 1.258 . S
O672 Co647 1.941 . S
O672 C679 1.266 . S
H673 C675 0.959 . S
H674 C675 0.961 . S
C675 C665 1.510 . S
C675 H673 0.959 . S
C675 H674 0.961 . S
C675 H676 0.960 . S
H676 C675 0.960 . S
H677 N657 0.862 . S
O678 Co646 1.920 1_655 S
O678 C651 1.289 . S
C679 O671 1.258 . S
C679 O672 1.266 . S
Co680 O683 1.970 . S
Co680 N697 1.989 . S
Co680 O705 1.967 . S
Co680 O712 1.920 . S
Co681 O684 1.966 . S
Co681 N690 2.022 . S
Co681 N698 1.993 . S
Co681 O706 1.941 . S
C682 O683 1.258 . S
C682 O684 1.263 . S
O683 Co680 1.970 . S
O683 C682 1.258 . S
O684 Co681 1.966 . S
O684 C682 1.263 . S
C685 O686 1.235 . S
C685 O712 1.289 . S
O686 C685 1.235 . S
C687 C689 1.400 . S
C687 N690 1.351 . S
C687 C692 1.501 . S
C688 C689 1.387 . S
C688 N691 1.341 . S
C689 C687 1.400 . S
C689 C688 1.387 . S
N690 Co681 2.022 . S
N690 C687 1.351 . S
N690 N691 1.365 . S
N691 C688 1.341 . S
N691 N690 1.365 . S
N691 H711 0.862 . S
C692 C687 1.501 . S
C692 H693 0.961 . S
C692 H694 0.961 . S
C692 H695 0.960 . S
H693 C692 0.961 . S
H694 C692 0.961 . S
H695 C692 0.960 . S
C696 N697 1.342 . S
C696 C700 1.401 . S
C696 C701 1.499 . S
N697 Co680 1.989 . S
N697 C696 1.342 . S
N697 N698 1.388 . S
N698 Co681 1.993 . S
N698 N697 1.388 . S
N698 C699 1.346 . S
C699 N698 1.346 . S
C699 C700 1.396 . S
C699 C709 1.510 . S
C700 C696 1.401 . S
C700 C699 1.396 . S
C701 C696 1.499 . S
C701 H702 0.959 . S
C701 H703 0.960 . S
C701 H704 0.961 . S
H702 C701 0.959 . S
H703 C701 0.960 . S
H704 C701 0.961 . S
O705 Co680 1.967 . S
O705 C713 1.258 . S
O706 Co681 1.941 . S
O706 C713 1.266 . S
H707 C709 0.959 . S
H708 C709 0.961 . S
C709 C699 1.510 . S
C709 H707 0.959 . S
C709 H708 0.961 . S
C709 H710 0.960 . S
H710 C709 0.960 . S
H711 N691 0.862 . S
O712 Co680 1.920 . S
O712 C685 1.289 . S
C713 O705 1.258 . S
C713 O706 1.266 . S
Co714 O717 1.970 . S
Co714 N731 1.989 . S
Co714 O739 1.967 . S
Co714 O746 1.920 1_455 S
Co715 O718 1.966 . S
Co715 N724 2.022 . S
Co715 N732 1.993 . S
Co715 O740 1.941 . S
C716 O717 1.258 . S
C716 O718 1.263 . S
O717 Co714 1.970 . S
O717 C716 1.258 . S
O718 Co715 1.966 . S
O718 C716 1.263 . S
C719 O720 1.235 . S
C719 O746 1.289 . S
O720 C719 1.235 . S
C721 C723 1.400 . S
C721 N724 1.351 . S
C721 C726 1.501 . S
C722 C723 1.387 . S
C722 N725 1.341 . S
C723 C721 1.400 . S
C723 C722 1.387 . S
N724 Co715 2.022 . S
N724 C721 1.351 . S
N724 N725 1.365 . S
N725 C722 1.341 . S
N725 N724 1.365 . S
N725 H745 0.862 . S
C726 C721 1.501 . S
C726 H727 0.961 . S
C726 H728 0.961 . S
C726 H729 0.960 . S
H727 C726 0.961 . S
H728 C726 0.961 . S
H729 C726 0.960 . S
C730 N731 1.342 . S
C730 C734 1.401 . S
C730 C735 1.499 1_455 S
N731 Co714 1.989 . S
N731 C730 1.342 . S
N731 N732 1.388 . S
N732 Co715 1.993 . S
N732 N731 1.388 . S
N732 C733 1.346 . S
C733 N732 1.346 . S
C733 C734 1.396 . S
C733 C743 1.510 . S
C734 C730 1.401 . S
C734 C733 1.396 . S
C735 C730 1.499 1_655 S
C735 H736 0.959 . S
C735 H737 0.960 . S
C735 H738 0.961 . S
H736 C735 0.959 . S
H737 C735 0.960 . S
H738 C735 0.961 . S
O739 Co714 1.967 . S
O739 C747 1.258 . S
O740 Co715 1.941 . S
O740 C747 1.266 . S
H741 C743 0.959 . S
H742 C743 0.961 . S
C743 C733 1.510 . S
C743 H741 0.959 . S
C743 H742 0.961 . S
C743 H744 0.960 . S
H744 C743 0.960 . S
H745 N725 0.862 . S
O746 Co714 1.920 1_655 S
O746 C719 1.289 . S
C747 O739 1.258 . S
C747 O740 1.266 . S
Co748 O751 1.970 . S
Co748 N765 1.989 . S
Co748 O773 1.967 . S
Co748 O780 1.920 . S
Co749 O752 1.966 . S
Co749 N758 2.022 . S
Co749 N766 1.993 . S
Co749 O774 1.941 . S
C750 O751 1.258 . S
C750 O752 1.263 . S
O751 Co748 1.970 . S
O751 C750 1.258 . S
O752 Co749 1.966 . S
O752 C750 1.263 . S
C753 O754 1.235 . S
C753 O780 1.289 . S
O754 C753 1.235 . S
C755 C757 1.400 . S
C755 N758 1.351 . S
C755 C760 1.501 . S
C756 C757 1.387 . S
C756 N759 1.341 . S
C757 C755 1.400 . S
C757 C756 1.387 . S
N758 Co749 2.022 . S
N758 C755 1.351 . S
N758 N759 1.365 . S
N759 C756 1.341 . S
N759 N758 1.365 . S
N759 H779 0.862 . S
C760 C755 1.501 . S
C760 H761 0.961 . S
C760 H762 0.961 . S
C760 H763 0.960 . S
H761 C760 0.961 . S
H762 C760 0.961 . S
H763 C760 0.960 . S
C764 N765 1.342 . S
C764 C768 1.401 . S
C764 C769 1.499 . S
N765 Co748 1.989 . S
N765 C764 1.342 . S
N765 N766 1.388 . S
N766 Co749 1.993 . S
N766 N765 1.388 . S
N766 C767 1.346 . S
C767 N766 1.346 . S
C767 C768 1.396 . S
C767 C777 1.510 . S
C768 C764 1.401 . S
C768 C767 1.396 . S
C769 C764 1.499 . S
C769 H770 0.959 . S
C769 H771 0.960 . S
C769 H772 0.961 . S
H770 C769 0.959 . S
H771 C769 0.960 . S
H772 C769 0.961 . S
O773 Co748 1.967 . S
O773 C781 1.258 . S
O774 Co749 1.941 . S
O774 C781 1.266 . S
H775 C777 0.959 . S
H776 C777 0.961 . S
C777 C767 1.510 . S
C777 H775 0.959 . S
C777 H776 0.961 . S
C777 H778 0.960 . S
H778 C777 0.960 . S
H779 N759 0.862 . S
O780 Co748 1.920 . S
O780 C753 1.289 . S
C781 O773 1.258 . S
C781 O774 1.266 . S
Co782 O785 1.970 . S
Co782 N799 1.989 . S
Co782 O807 1.967 . S
Co782 O814 1.920 . S
Co783 O786 1.966 . S
Co783 N792 2.022 . S
Co783 N800 1.993 . S
Co783 O808 1.941 . S
C784 O785 1.258 . S
C784 O786 1.263 . S
O785 Co782 1.970 . S
O785 C784 1.258 . S
O786 Co783 1.966 . S
O786 C784 1.263 . S
C787 O788 1.235 . S
C787 O814 1.289 . S
O788 C787 1.235 . S
C789 C791 1.400 . S
C789 N792 1.351 . S
C789 C794 1.501 . S
C790 C791 1.387 . S
C790 N793 1.341 . S
C791 C789 1.400 . S
C791 C790 1.387 . S
N792 Co783 2.022 . S
N792 C789 1.351 . S
N792 N793 1.365 . S
N793 C790 1.341 . S
N793 N792 1.365 . S
N793 H813 0.862 . S
C794 C789 1.501 . S
C794 H795 0.961 . S
C794 H796 0.961 . S
C794 H797 0.960 . S
H795 C794 0.961 . S
H796 C794 0.961 . S
H797 C794 0.960 . S
C798 N799 1.342 . S
C798 C802 1.401 . S
C798 C803 1.499 . S
N799 Co782 1.989 . S
N799 C798 1.342 . S
N799 N800 1.388 . S
N800 Co783 1.993 . S
N800 N799 1.388 . S
N800 C801 1.346 . S
C801 N800 1.346 . S
C801 C802 1.396 . S
C801 C811 1.510 . S
C802 C798 1.401 . S
C802 C801 1.396 . S
C803 C798 1.499 . S
C803 H804 0.959 . S
C803 H805 0.960 . S
C803 H806 0.961 . S
H804 C803 0.959 . S
H805 C803 0.960 . S
H806 C803 0.961 . S
O807 Co782 1.967 . S
O807 C815 1.258 . S
O808 Co783 1.941 . S
O808 C815 1.266 . S
H809 C811 0.959 . S
H810 C811 0.961 . S
C811 C801 1.510 . S
C811 H809 0.959 . S
C811 H810 0.961 . S
C811 H812 0.960 . S
H812 C811 0.960 . S
H813 N793 0.862 . S
O814 Co782 1.920 . S
O814 C787 1.289 . S
C815 O807 1.258 . S
C815 O808 1.266 . S
Co816 O819 1.970 . S
Co816 N833 1.989 . S
Co816 O841 1.967 . S
Co816 O848 1.920 . S
Co817 O820 1.966 . S
Co817 N826 2.022 . S
Co817 N834 1.993 . S
Co817 O842 1.941 . S
C818 O819 1.258 . S
C818 O820 1.263 . S
O819 Co816 1.970 . S
O819 C818 1.258 . S
O820 Co817 1.966 . S
O820 C818 1.263 . S
C821 O822 1.235 . S
C821 O848 1.289 . S
O822 C821 1.235 . S
C823 C825 1.400 . S
C823 N826 1.351 . S
C823 C828 1.501 . S
C824 C825 1.387 . S
C824 N827 1.341 . S
C825 C823 1.400 . S
C825 C824 1.387 . S
N826 Co817 2.022 . S
N826 C823 1.351 . S
N826 N827 1.365 . S
N827 C824 1.341 . S
N827 N826 1.365 . S
N827 H847 0.862 . S
C828 C823 1.501 . S
C828 H829 0.961 . S
C828 H830 0.961 . S
C828 H831 0.960 . S
H829 C828 0.961 . S
H830 C828 0.961 . S
H831 C828 0.960 . S
C832 N833 1.342 . S
C832 C836 1.401 . S
C832 C837 1.499 . S
N833 Co816 1.989 . S
N833 C832 1.342 . S
N833 N834 1.388 . S
N834 Co817 1.993 . S
N834 N833 1.388 . S
N834 C835 1.346 . S
C835 N834 1.346 . S
C835 C836 1.396 . S
C835 C845 1.510 . S
C836 C832 1.401 . S
C836 C835 1.396 . S
C837 C832 1.499 . S
C837 H838 0.959 . S
C837 H839 0.960 . S
C837 H840 0.961 . S
H838 C837 0.959 . S
H839 C837 0.960 . S
H840 C837 0.961 . S
O841 Co816 1.967 . S
O841 C849 1.258 . S
O842 Co817 1.941 . S
O842 C849 1.266 . S
H843 C845 0.959 . S
H844 C845 0.961 . S
C845 C835 1.510 . S
C845 H843 0.959 . S
C845 H844 0.961 . S
C845 H846 0.960 . S
H846 C845 0.960 . S
H847 N827 0.862 . S
O848 Co816 1.920 . S
O848 C821 1.289 . S
C849 O841 1.258 . S
C849 O842 1.266 . S
Co850 O853 1.970 . S
Co850 N867 1.989 . S
Co850 O875 1.967 . S
Co850 O882 1.920 . S
Co851 O854 1.966 . S
Co851 N860 2.022 . S
Co851 N868 1.993 . S
Co851 O876 1.941 . S
C852 O853 1.258 . S
C852 O854 1.263 . S
O853 Co850 1.970 . S
O853 C852 1.258 . S
O854 Co851 1.966 . S
O854 C852 1.263 . S
C855 O856 1.235 . S
C855 O882 1.289 . S
O856 C855 1.235 . S
C857 C859 1.400 . S
C857 N860 1.351 . S
C857 C862 1.501 . S
C858 C859 1.387 . S
C858 N861 1.341 . S
C859 C857 1.400 . S
C859 C858 1.387 . S
N860 Co851 2.022 . S
N860 C857 1.351 . S
N860 N861 1.365 . S
N861 C858 1.341 . S
N861 N860 1.365 . S
N861 H881 0.862 . S
C862 C857 1.501 . S
C862 H863 0.961 . S
C862 H864 0.961 . S
C862 H865 0.960 . S
H863 C862 0.961 . S
H864 C862 0.961 . S
H865 C862 0.960 . S
C866 N867 1.342 . S
C866 C870 1.401 . S
C866 C871 1.499 . S
N867 Co850 1.989 . S
N867 C866 1.342 . S
N867 N868 1.388 . S
N868 Co851 1.993 . S
N868 N867 1.388 . S
N868 C869 1.346 . S
C869 N868 1.346 . S
C869 C870 1.396 . S
C869 C879 1.510 . S
C870 C866 1.401 . S
C870 C869 1.396 . S
C871 C866 1.499 . S
C871 H872 0.959 . S
C871 H873 0.960 . S
C871 H874 0.961 . S
H872 C871 0.959 . S
H873 C871 0.960 . S
H874 C871 0.961 . S
O875 Co850 1.967 . S
O875 C883 1.258 . S
O876 Co851 1.941 . S
O876 C883 1.266 . S
H877 C879 0.959 . S
H878 C879 0.961 . S
C879 C869 1.510 . S
C879 H877 0.959 . S
C879 H878 0.961 . S
C879 H880 0.960 . S
H880 C879 0.960 . S
H881 N861 0.862 . S
O882 Co850 1.920 . S
O882 C855 1.289 . S
C883 O875 1.258 . S
C883 O876 1.266 . S
Co884 O887 1.970 . S
Co884 N901 1.989 . S
Co884 O909 1.967 . S
Co884 O916 1.920 . S
Co885 O888 1.966 . S
Co885 N894 2.022 . S
Co885 N902 1.993 . S
Co885 O910 1.941 . S
C886 O887 1.258 . S
C886 O888 1.263 . S
O887 Co884 1.970 . S
O887 C886 1.258 . S
O888 Co885 1.966 . S
O888 C886 1.263 . S
C889 O890 1.235 . S
C889 O916 1.289 . S
O890 C889 1.235 . S
C891 C893 1.400 . S
C891 N894 1.351 . S
C891 C896 1.501 . S
C892 C893 1.387 . S
C892 N895 1.341 . S
C893 C891 1.400 . S
C893 C892 1.387 . S
N894 Co885 2.022 . S
N894 C891 1.351 . S
N894 N895 1.365 . S
N895 C892 1.341 . S
N895 N894 1.365 . S
N895 H915 0.862 . S
C896 C891 1.501 . S
C896 H897 0.961 . S
C896 H898 0.961 . S
C896 H899 0.960 . S
H897 C896 0.961 . S
H898 C896 0.961 . S
H899 C896 0.960 . S
C900 N901 1.342 . S
C900 C904 1.401 . S
C900 C905 1.499 . S
N901 Co884 1.989 . S
N901 C900 1.342 . S
N901 N902 1.388 . S
N902 Co885 1.993 . S
N902 N901 1.388 . S
N902 C903 1.346 . S
C903 N902 1.346 . S
C903 C904 1.396 . S
C903 C913 1.510 . S
C904 C900 1.401 . S
C904 C903 1.396 . S
C905 C900 1.499 . S
C905 H906 0.959 . S
C905 H907 0.960 . S
C905 H908 0.961 . S
H906 C905 0.959 . S
H907 C905 0.960 . S
H908 C905 0.961 . S
O909 Co884 1.967 . S
O909 C917 1.258 . S
O910 Co885 1.941 . S
O910 C917 1.266 . S
H911 C913 0.959 . S
H912 C913 0.961 . S
C913 C903 1.510 . S
C913 H911 0.959 . S
C913 H912 0.961 . S
C913 H914 0.960 . S
H914 C913 0.960 . S
H915 N895 0.862 . S
O916 Co884 1.920 . S
O916 C889 1.289 . S
C917 O909 1.258 . S
C917 O910 1.266 . S
Co918 O921 1.970 . S
Co918 N935 1.989 . S
Co918 O943 1.967 . S
Co918 O950 1.920 1_655 S
Co919 O922 1.966 . S
Co919 N928 2.022 . S
Co919 N936 1.993 . S
Co919 O944 1.941 . S
C920 O921 1.258 . S
C920 O922 1.263 . S
O921 Co918 1.970 . S
O921 C920 1.258 . S
O922 Co919 1.966 . S
O922 C920 1.263 . S
C923 O924 1.235 . S
C923 O950 1.289 . S
O924 C923 1.235 . S
C925 C927 1.400 . S
C925 N928 1.351 . S
C925 C930 1.501 . S
C926 C927 1.387 . S
C926 N929 1.341 . S
C927 C925 1.400 . S
C927 C926 1.387 . S
N928 Co919 2.022 . S
N928 C925 1.351 . S
N928 N929 1.365 . S
N929 C926 1.341 . S
N929 N928 1.365 . S
N929 H949 0.862 . S
C930 C925 1.501 . S
C930 H931 0.961 . S
C930 H932 0.961 . S
C930 H933 0.960 . S
H931 C930 0.961 . S
H932 C930 0.961 . S
H933 C930 0.960 . S
C934 N935 1.342 . S
C934 C938 1.401 . S
C934 C939 1.499 1_655 S
N935 Co918 1.989 . S
N935 C934 1.342 . S
N935 N936 1.388 . S
N936 Co919 1.993 . S
N936 N935 1.388 . S
N936 C937 1.346 . S
C937 N936 1.346 . S
C937 C938 1.396 . S
C937 C947 1.510 . S
C938 C934 1.401 . S
C938 C937 1.396 . S
C939 C934 1.499 1_455 S
C939 H940 0.959 . S
C939 H941 0.960 . S
C939 H942 0.961 . S
H940 C939 0.959 . S
H941 C939 0.960 . S
H942 C939 0.961 . S
O943 Co918 1.967 . S
O943 C951 1.258 . S
O944 Co919 1.941 . S
O944 C951 1.266 . S
H945 C947 0.959 . S
H946 C947 0.961 . S
C947 C937 1.510 . S
C947 H945 0.959 . S
C947 H946 0.961 . S
C947 H948 0.960 . S
H948 C947 0.960 . S
H949 N929 0.862 . S
O950 Co918 1.920 1_455 S
O950 C923 1.289 . S
C951 O943 1.258 . S
C951 O944 1.266 . S
Co952 O955 1.970 . S
Co952 N969 1.989 . S
Co952 O977 1.967 . S
Co952 O984 1.920 . S
Co953 O956 1.966 . S
Co953 N962 2.022 . S
Co953 N970 1.993 . S
Co953 O978 1.941 . S
C954 O955 1.258 . S
C954 O956 1.263 . S
O955 Co952 1.970 . S
O955 C954 1.258 . S
O956 Co953 1.966 . S
O956 C954 1.263 . S
C957 O958 1.235 . S
C957 O984 1.289 . S
O958 C957 1.235 . S
C959 C961 1.400 . S
C959 N962 1.351 . S
C959 C964 1.501 . S
C960 C961 1.387 . S
C960 N963 1.341 . S
C961 C959 1.400 . S
C961 C960 1.387 . S
N962 Co953 2.022 . S
N962 C959 1.351 . S
N962 N963 1.365 . S
N963 C960 1.341 . S
N963 N962 1.365 . S
N963 H983 0.862 . S
C964 C959 1.501 . S
C964 H965 0.961 . S
C964 H966 0.961 . S
C964 H967 0.960 . S
H965 C964 0.961 . S
H966 C964 0.961 . S
H967 C964 0.960 . S
C968 N969 1.342 . S
C968 C972 1.401 . S
C968 C973 1.499 . S
N969 Co952 1.989 . S
N969 C968 1.342 . S
N969 N970 1.388 . S
N970 Co953 1.993 . S
N970 N969 1.388 . S
N970 C971 1.346 . S
C971 N970 1.346 . S
C971 C972 1.396 . S
C971 C981 1.510 . S
C972 C968 1.401 . S
C972 C971 1.396 . S
C973 C968 1.499 . S
C973 H974 0.959 . S
C973 H975 0.960 . S
C973 H976 0.961 . S
H974 C973 0.959 . S
H975 C973 0.960 . S
H976 C973 0.961 . S
O977 Co952 1.967 . S
O977 C985 1.258 . S
O978 Co953 1.941 . S
O978 C985 1.266 . S
H979 C981 0.959 . S
H980 C981 0.961 . S
C981 C971 1.510 . S
C981 H979 0.959 . S
C981 H980 0.961 . S
C981 H982 0.960 . S
H982 C981 0.960 . S
H983 N963 0.862 . S
O984 Co952 1.920 . S
O984 C957 1.289 . S
C985 O977 1.258 . S
C985 O978 1.266 . S
Co986 O989 1.970 . S
Co986 N1003 1.989 . S
Co986 O1011 1.967 . S
Co986 O1018 1.920 1_655 S
Co987 O990 1.966 . S
Co987 N996 2.022 . S
Co987 N1004 1.993 . S
Co987 O1012 1.941 . S
C988 O989 1.258 . S
C988 O990 1.263 . S
O989 Co986 1.970 . S
O989 C988 1.258 . S
O990 Co987 1.966 . S
O990 C988 1.263 . S
C991 O992 1.235 . S
C991 O1018 1.289 . S
O992 C991 1.235 . S
C993 C995 1.400 . S
C993 N996 1.351 . S
C993 C998 1.501 . S
C994 C995 1.387 . S
C994 N997 1.341 . S
C995 C993 1.400 . S
C995 C994 1.387 . S
N996 Co987 2.022 . S
N996 C993 1.351 . S
N996 N997 1.365 . S
N997 C994 1.341 . S
N997 N996 1.365 . S
N997 H1017 0.862 . S
C998 C993 1.501 . S
C998 H999 0.961 . S
C998 H1000 0.961 . S
C998 H1001 0.960 . S
H999 C998 0.961 . S
H1000 C998 0.961 . S
H1001 C998 0.960 . S
C1002 N1003 1.342 . S
C1002 C1006 1.401 . S
C1002 C1007 1.499 1_655 S
N1003 Co986 1.989 . S
N1003 C1002 1.342 . S
N1003 N1004 1.388 . S
N1004 Co987 1.993 . S
N1004 N1003 1.388 . S
N1004 C1005 1.346 . S
C1005 N1004 1.346 . S
C1005 C1006 1.396 . S
C1005 C1015 1.510 . S
C1006 C1002 1.401 . S
C1006 C1005 1.396 . S
C1007 C1002 1.499 1_455 S
C1007 H1008 0.959 . S
C1007 H1009 0.960 . S
C1007 H1010 0.961 . S
H1008 C1007 0.959 . S
H1009 C1007 0.960 . S
H1010 C1007 0.961 . S
O1011 Co986 1.967 . S
O1011 C1019 1.258 . S
O1012 Co987 1.941 . S
O1012 C1019 1.266 . S
H1013 C1015 0.959 . S
H1014 C1015 0.961 . S
C1015 C1005 1.510 . S
C1015 H1013 0.959 . S
C1015 H1014 0.961 . S
C1015 H1016 0.960 . S
H1016 C1015 0.960 . S
H1017 N997 0.862 . S
O1018 Co986 1.920 1_455 S
O1018 C991 1.289 . S
C1019 O1011 1.258 . S
C1019 O1012 1.266 . S
Co1020 O1023 1.970 . S
Co1020 N1037 1.989 . S
Co1020 O1045 1.967 . S
Co1020 O1052 1.920 . S
Co1021 O1024 1.966 . S
Co1021 N1030 2.022 . S
Co1021 N1038 1.993 . S
Co1021 O1046 1.941 . S
C1022 O1023 1.258 . S
C1022 O1024 1.263 . S
O1023 Co1020 1.970 . S
O1023 C1022 1.258 . S
O1024 Co1021 1.966 . S
O1024 C1022 1.263 . S
C1025 O1026 1.235 . S
C1025 O1052 1.289 . S
O1026 C1025 1.235 . S
C1027 C1029 1.400 . S
C1027 N1030 1.351 . S
C1027 C1032 1.501 . S
C1028 C1029 1.387 . S
C1028 N1031 1.341 . S
C1029 C1027 1.400 . S
C1029 C1028 1.387 . S
N1030 Co1021 2.022 . S
N1030 C1027 1.351 . S
N1030 N1031 1.365 . S
N1031 C1028 1.341 . S
N1031 N1030 1.365 . S
N1031 H1051 0.862 . S
C1032 C1027 1.501 . S
C1032 H1033 0.961 . S
C1032 H1034 0.961 . S
C1032 H1035 0.960 . S
H1033 C1032 0.961 . S
H1034 C1032 0.961 . S
H1035 C1032 0.960 . S
C1036 N1037 1.342 . S
C1036 C1040 1.401 . S
C1036 C1041 1.499 . S
N1037 Co1020 1.989 . S
N1037 C1036 1.342 . S
N1037 N1038 1.388 . S
N1038 Co1021 1.993 . S
N1038 N1037 1.388 . S
N1038 C1039 1.346 . S
C1039 N1038 1.346 . S
C1039 C1040 1.396 . S
C1039 C1049 1.510 . S
C1040 C1036 1.401 . S
C1040 C1039 1.396 . S
C1041 C1036 1.499 . S
C1041 H1042 0.959 . S
C1041 H1043 0.960 . S
C1041 H1044 0.961 . S
H1042 C1041 0.959 . S
H1043 C1041 0.960 . S
H1044 C1041 0.961 . S
O1045 Co1020 1.967 . S
O1045 C1053 1.258 . S
O1046 Co1021 1.941 . S
O1046 C1053 1.266 . S
H1047 C1049 0.959 . S
H1048 C1049 0.961 . S
C1049 C1039 1.510 . S
C1049 H1047 0.959 . S
C1049 H1048 0.961 . S
C1049 H1050 0.960 . S
H1050 C1049 0.960 . S
H1051 N1031 0.862 . S
O1052 Co1020 1.920 . S
O1052 C1025 1.289 . S
C1053 O1045 1.258 . S
C1053 O1046 1.266 . S
Co1054 O1057 1.970 . S
Co1054 N1071 1.989 . S
Co1054 O1079 1.967 . S
Co1054 O1086 1.920 . S
Co1055 O1058 1.966 . S
Co1055 N1064 2.022 . S
Co1055 N1072 1.993 . S
Co1055 O1080 1.941 . S
C1056 O1057 1.258 . S
C1056 O1058 1.263 . S
O1057 Co1054 1.970 . S
O1057 C1056 1.258 . S
O1058 Co1055 1.966 . S
O1058 C1056 1.263 . S
C1059 O1060 1.235 . S
C1059 O1086 1.289 . S
O1060 C1059 1.235 . S
C1061 C1063 1.400 . S
C1061 N1064 1.351 . S
C1061 C1066 1.501 . S
C1062 C1063 1.387 . S
C1062 N1065 1.341 . S
C1063 C1061 1.400 . S
C1063 C1062 1.387 . S
N1064 Co1055 2.022 . S
N1064 C1061 1.351 . S
N1064 N1065 1.365 . S
N1065 C1062 1.341 . S
N1065 N1064 1.365 . S
N1065 H1085 0.862 . S
C1066 C1061 1.501 . S
C1066 H1067 0.961 . S
C1066 H1068 0.961 . S
C1066 H1069 0.960 . S
H1067 C1066 0.961 . S
H1068 C1066 0.961 . S
H1069 C1066 0.960 . S
C1070 N1071 1.342 . S
C1070 C1074 1.401 . S
C1070 C1075 1.499 . S
N1071 Co1054 1.989 . S
N1071 C1070 1.342 . S
N1071 N1072 1.388 . S
N1072 Co1055 1.993 . S
N1072 N1071 1.388 . S
N1072 C1073 1.346 . S
C1073 N1072 1.346 . S
C1073 C1074 1.396 . S
C1073 C1083 1.510 . S
C1074 C1070 1.401 . S
C1074 C1073 1.396 . S
C1075 C1070 1.499 . S
C1075 H1076 0.959 . S
C1075 H1077 0.960 . S
C1075 H1078 0.961 . S
H1076 C1075 0.959 . S
H1077 C1075 0.960 . S
H1078 C1075 0.961 . S
O1079 Co1054 1.967 . S
O1079 C1087 1.258 . S
O1080 Co1055 1.941 . S
O1080 C1087 1.266 . S
H1081 C1083 0.959 . S
H1082 C1083 0.961 . S
C1083 C1073 1.510 . S
C1083 H1081 0.959 . S
C1083 H1082 0.961 . S
C1083 H1084 0.960 . S
H1084 C1083 0.960 . S
H1085 N1065 0.862 . S
O1086 Co1054 1.920 . S
O1086 C1059 1.289 . S
C1087 O1079 1.258 . S
C1087 O1080 1.266 . S
H1088 C1094 0.930 . S
H1089 C1097 0.930 . S
H1090 C1098 0.930 . S
H1091 C1099 0.930 . S
H1092 C1102 0.930 . S
H1093 C1103 0.930 . S
C1094 H1088 0.930 . S
C1094 C1095 1.355 . S
C1094 C1096 1.415 . S
C1095 C1094 1.355 . S
C1095 C1097 1.419 . S
C1096 C1094 1.415 . S
C1096 C1101 1.425 . S
C1096 C1103 1.409 . S
C1097 H1089 0.930 . S
C1097 C1095 1.419 . S
C1097 C1098 1.362 . S
C1098 H1090 0.930 . S
C1098 C1097 1.362 . S
C1098 C1101 1.409 . S
C1099 H1091 0.930 . S
C1099 C1100 1.355 . S
C1099 C1101 1.415 . S
C1100 C1099 1.355 . S
C1100 C1102 1.419 . S
C1101 C1096 1.425 . S
C1101 C1098 1.409 . S
C1101 C1099 1.415 . S
C1102 H1092 0.930 . S
C1102 C1100 1.419 . S
C1102 C1103 1.362 . S
C1103 H1093 0.930 . S
C1103 C1096 1.409 . S
C1103 C1102 1.362 . S
H1104 C1110 0.930 . S
H1105 C1113 0.930 . S
H1106 C1114 0.930 . S
H1107 C1115 0.930 . S
H1108 C1118 0.930 . S
H1109 C1119 0.930 . S
C1110 H1104 0.930 . S
C1110 C1111 1.355 1_545 S
C1110 C1112 1.415 . S
C1111 C1110 1.355 1_565 S
C1111 C1113 1.419 1_455 S
C1112 C1110 1.415 . S
C1112 C1117 1.425 1_445 S
C1112 C1119 1.409 . S
C1113 H1105 0.930 . S
C1113 C1111 1.419 1_655 S
C1113 C1114 1.362 . S
C1114 H1106 0.930 . S
C1114 C1113 1.362 . S
C1114 C1117 1.409 . S
C1115 H1107 0.930 . S
C1115 C1116 1.355 1_565 S
C1115 C1117 1.415 . S
C1116 C1115 1.355 1_545 S
C1116 C1118 1.419 1_655 S
C1117 C1112 1.425 1_665 S
C1117 C1114 1.409 . S
C1117 C1115 1.415 . S
C1118 H1108 0.930 . S
C1118 C1116 1.419 1_455 S
C1118 C1119 1.362 . S
C1119 H1109 0.930 . S
C1119 C1112 1.409 . S
C1119 C1118 1.362 . S
H1120 C1126 0.930 . S
H1121 C1129 0.930 . S
H1122 C1130 0.930 . S
H1123 C1131 0.930 . S
H1124 C1134 0.930 . S
H1125 C1135 0.930 . S
C1126 H1120 0.930 . S
C1126 C1127 1.355 . S
C1126 C1128 1.415 . S
C1127 C1126 1.355 . S
C1127 C1129 1.419 . S
C1128 C1126 1.415 . S
C1128 C1133 1.425 . S
C1128 C1135 1.409 . S
C1129 H1121 0.930 . S
C1129 C1127 1.419 . S
C1129 C1130 1.362 . S
C1130 H1122 0.930 . S
C1130 C1129 1.362 . S
C1130 C1133 1.409 . S
C1131 H1123 0.930 . S
C1131 C1132 1.355 . S
C1131 C1133 1.415 . S
C1132 C1131 1.355 . S
C1132 C1134 1.419 . S
C1133 C1128 1.425 . S
C1133 C1130 1.409 . S
C1133 C1131 1.415 . S
C1134 H1124 0.930 . S
C1134 C1132 1.419 . S
C1134 C1135 1.362 . S
C1135 H1125 0.930 . S
C1135 C1128 1.409 . S
C1135 C1134 1.362 . S
H1136 C1142 0.930 . S
H1137 C1145 0.930 . S
H1138 C1146 0.930 . S
H1139 C1147 0.930 . S
H1140 C1150 0.930 . S
H1141 C1151 0.930 . S
C1142 H1136 0.930 . S
C1142 C1143 1.355 . S
C1142 C1144 1.435 . S
C1143 C1142 1.355 . S
C1143 C1145 1.419 1_545 S
C1144 C1142 1.435 . S
C1144 C1149 1.424 1_544 S
C1144 C1151 1.390 1_554 S
C1145 H1137 0.930 . S
C1145 C1143 1.419 1_565 S
C1145 C1146 1.362 . S
C1146 H1138 0.930 . S
C1146 C1145 1.362 . S
C1146 C1149 1.390 1_554 S
C1147 H1139 0.930 . S
C1147 C1148 1.355 . S
C1147 C1149 1.435 . S
C1148 C1147 1.355 . S
C1148 C1150 1.419 1_565 S
C1149 C1144 1.424 1_566 S
C1149 C1146 1.390 1_556 S
C1149 C1147 1.435 . S
C1150 H1140 0.930 . S
C1150 C1148 1.419 1_545 S
C1150 C1151 1.362 . S
C1151 H1141 0.930 . S
C1151 C1144 1.390 1_556 S
C1151 C1150 1.362 . S
H1152 C1158 0.930 . S
H1153 C1161 0.930 . S
H1154 C1162 0.930 . S
H1155 C1163 0.930 . S
H1156 C1166 0.930 . S
H1157 C1167 0.930 . S
C1158 H1152 0.930 . S
C1158 C1159 1.355 . S
C1158 C1160 1.415 . S
C1159 C1158 1.355 . S
C1159 C1161 1.419 . S
C1160 C1158 1.415 . S
C1160 C1165 1.425 . S
C1160 C1167 1.409 . S
C1161 H1153 0.930 . S
C1161 C1159 1.419 . S
C1161 C1162 1.362 . S
C1162 H1154 0.930 . S
C1162 C1161 1.362 . S
C1162 C1165 1.409 . S
C1163 H1155 0.930 . S
C1163 C1164 1.355 . S
C1163 C1165 1.415 . S
C1164 C1163 1.355 . S
C1164 C1166 1.419 . S
C1165 C1160 1.425 . S
C1165 C1162 1.409 . S
C1165 C1163 1.415 . S
C1166 H1156 0.930 . S
C1166 C1164 1.419 . S
C1166 C1167 1.362 . S
C1167 H1157 0.930 . S
C1167 C1160 1.409 . S
C1167 C1166 1.362 . S
H1168 C1174 0.930 . S
H1169 C1177 0.930 . S
H1170 C1178 0.930 . S
H1171 C1179 0.930 . S
H1172 C1182 0.930 . S
H1173 C1183 0.930 . S
C1174 H1168 0.930 . S
C1174 C1175 1.355 1_545 S
C1174 C1176 1.415 . S
C1175 C1174 1.355 1_565 S
C1175 C1177 1.419 . S
C1176 C1174 1.415 . S
C1176 C1181 1.425 1_545 S
C1176 C1183 1.409 . S
C1177 H1169 0.930 . S
C1177 C1175 1.419 . S
C1177 C1178 1.362 . S
C1178 H1170 0.930 . S
C1178 C1177 1.362 . S
C1178 C1181 1.409 . S
C1179 H1171 0.930 . S
C1179 C1180 1.355 1_565 S
C1179 C1181 1.415 . S
C1180 C1179 1.355 1_545 S
C1180 C1182 1.419 . S
C1181 C1176 1.425 1_565 S
C1181 C1178 1.409 . S
C1181 C1179 1.415 . S
C1182 H1172 0.930 . S
C1182 C1180 1.419 . S
C1182 C1183 1.362 . S
C1183 H1173 0.930 . S
C1183 C1176 1.409 . S
C1183 C1182 1.362 . S
H1184 C1190 0.930 . S
H1185 C1193 0.930 . S
H1186 C1194 0.930 . S
H1187 C1195 0.930 . S
H1188 C1198 0.930 . S
H1189 C1199 0.930 . S
C1190 H1184 0.930 . S
C1190 C1191 1.355 . S
C1190 C1192 1.415 . S
C1191 C1190 1.355 . S
C1191 C1193 1.419 . S
C1192 C1190 1.415 . S
C1192 C1197 1.425 . S
C1192 C1199 1.409 . S
C1193 H1185 0.930 . S
C1193 C1191 1.419 . S
C1193 C1194 1.362 . S
C1194 H1186 0.930 . S
C1194 C1193 1.362 . S
C1194 C1197 1.409 . S
C1195 H1187 0.930 . S
C1195 C1196 1.355 . S
C1195 C1197 1.415 . S
C1196 C1195 1.355 . S
C1196 C1198 1.419 . S
C1197 C1192 1.425 . S
C1197 C1194 1.409 . S
C1197 C1195 1.415 . S
C1198 H1188 0.930 . S
C1198 C1196 1.419 . S
C1198 C1199 1.362 . S
C1199 H1189 0.930 . S
C1199 C1192 1.409 . S
C1199 C1198 1.362 . S
H1200 C1206 0.930 . S
H1201 C1209 0.930 . S
H1202 C1210 0.930 . S
H1203 C1211 0.930 . S
H1204 C1214 0.930 . S
H1205 C1215 0.930 . S
C1206 H1200 0.930 . S
C1206 C1207 1.355 . S
C1206 C1208 1.442 . S
C1207 C1206 1.355 . S
C1207 C1209 1.419 1_445 S
C1208 C1206 1.442 . S
C1208 C1213 1.423 1_446 S
C1208 C1215 1.383 1_556 S
C1209 H1201 0.930 . S
C1209 C1207 1.419 1_665 S
C1209 C1210 1.362 . S
C1210 H1202 0.930 . S
C1210 C1209 1.362 . S
C1210 C1213 1.383 1_556 S
C1211 H1203 0.930 . S
C1211 C1212 1.355 . S
C1211 C1213 1.442 . S
C1212 C1211 1.355 . S
C1212 C1214 1.419 1_665 S
C1213 C1208 1.423 1_664 S
C1213 C1210 1.383 1_554 S
C1213 C1211 1.442 . S
C1214 H1204 0.930 . S
C1214 C1212 1.419 1_445 S
C1214 C1215 1.362 . S
C1215 H1205 0.930 . S
C1215 C1208 1.383 1_554 S
C1215 C1214 1.362 . S
H1216 C1222 0.930 . S
H1217 C1225 0.930 . S
H1218 C1226 0.930 . S
H1219 C1227 0.930 . S
H1220 C1230 0.930 . S
H1221 C1231 0.930 . S
C1222 H1216 0.930 . S
C1222 C1223 1.355 . S
C1222 C1224 1.415 . S
C1223 C1222 1.355 . S
C1223 C1225 1.419 . S
C1224 C1222 1.415 . S
C1224 C1229 1.425 . S
C1224 C1231 1.409 . S
C1225 H1217 0.930 . S
C1225 C1223 1.419 . S
C1225 C1226 1.362 . S
C1226 H1218 0.930 . S
C1226 C1225 1.362 . S
C1226 C1229 1.409 . S
C1227 H1219 0.930 . S
C1227 C1228 1.355 . S
C1227 C1229 1.415 . S
C1228 C1227 1.355 . S
C1228 C1230 1.419 . S
C1229 C1224 1.425 . S
C1229 C1226 1.409 . S
C1229 C1227 1.415 . S
C1230 H1220 0.930 . S
C1230 C1228 1.419 . S
C1230 C1231 1.362 . S
C1231 H1221 0.930 . S
C1231 C1224 1.409 . S
C1231 C1230 1.362 . S
H1232 C1238 0.930 . S
H1233 C1241 0.930 . S
H1234 C1242 0.930 . S
H1235 C1243 0.930 . S
H1236 C1246 0.930 . S
H1237 C1247 0.930 . S
C1238 H1232 0.930 . S
C1238 C1239 1.355 . S
C1238 C1240 1.415 . S
C1239 C1238 1.355 . S
C1239 C1241 1.419 . S
C1240 C1238 1.415 . S
C1240 C1245 1.425 . S
C1240 C1247 1.409 . S
C1241 H1233 0.930 . S
C1241 C1239 1.419 . S
C1241 C1242 1.362 . S
C1242 H1234 0.930 . S
C1242 C1241 1.362 . S
C1242 C1245 1.409 . S
C1243 H1235 0.930 . S
C1243 C1244 1.355 . S
C1243 C1245 1.415 . S
C1244 C1243 1.355 . S
C1244 C1246 1.419 . S
C1245 C1240 1.425 . S
C1245 C1242 1.409 . S
C1245 C1243 1.415 . S
C1246 H1236 0.930 . S
C1246 C1244 1.419 . S
C1246 C1247 1.362 . S
C1247 H1237 0.930 . S
C1247 C1240 1.409 . S
C1247 C1246 1.362 . S
H1248 C1254 0.930 . S
H1249 C1257 0.930 . S
H1250 C1258 0.930 . S
H1251 C1259 0.930 . S
H1252 C1262 0.930 . S
H1253 C1263 0.930 . S
C1254 H1248 0.930 . S
C1254 C1255 1.355 . S
C1254 C1256 1.415 . S
C1255 C1254 1.355 . S
C1255 C1257 1.419 . S
C1256 C1254 1.415 . S
C1256 C1261 1.425 . S
C1256 C1263 1.409 . S
C1257 H1249 0.930 . S
C1257 C1255 1.419 . S
C1257 C1258 1.362 . S
C1258 H1250 0.930 . S
C1258 C1257 1.362 . S
C1258 C1261 1.409 . S
C1259 H1251 0.930 . S
C1259 C1260 1.355 . S
C1259 C1261 1.415 . S
C1260 C1259 1.355 . S
C1260 C1262 1.419 . S
C1261 C1256 1.425 . S
C1261 C1258 1.409 . S
C1261 C1259 1.415 . S
C1262 H1252 0.930 . S
C1262 C1260 1.419 . S
C1262 C1263 1.362 . S
C1263 H1253 0.930 . S
C1263 C1256 1.409 . S
C1263 C1262 1.362 . S
H1264 C1270 0.930 . S
H1265 C1273 0.930 . S
H1266 C1274 0.930 . S
H1267 C1275 0.930 . S
H1268 C1278 0.930 . S
H1269 C1279 0.930 . S
C1270 H1264 0.930 . S
C1270 C1271 1.355 . S
C1270 C1272 1.415 . S
C1271 C1270 1.355 . S
C1271 C1273 1.419 . S
C1272 C1270 1.415 . S
C1272 C1277 1.425 . S
C1272 C1279 1.409 . S
C1273 H1265 0.930 . S
C1273 C1271 1.419 . S
C1273 C1274 1.362 . S
C1274 H1266 0.930 . S
C1274 C1273 1.362 . S
C1274 C1277 1.409 . S
C1275 H1267 0.930 . S
C1275 C1276 1.355 . S
C1275 C1277 1.415 . S
C1276 C1275 1.355 . S
C1276 C1278 1.419 . S
C1277 C1272 1.425 . S
C1277 C1274 1.409 . S
C1277 C1275 1.415 . S
C1278 H1268 0.930 . S
C1278 C1276 1.419 . S
C1278 C1279 1.362 . S
C1279 H1269 0.930 . S
C1279 C1272 1.409 . S
C1279 C1278 1.362 . S
H1280 C1286 0.930 . S
H1281 C1289 0.930 . S
H1282 C1290 0.930 . S
H1283 C1291 0.930 . S
H1284 C1294 0.930 . S
H1285 C1295 0.930 . S
C1286 H1280 0.930 . S
C1286 C1287 1.355 . S
C1286 C1288 1.415 . S
C1287 C1286 1.355 . S
C1287 C1289 1.419 . S
C1288 C1286 1.415 . S
C1288 C1293 1.425 1_556 S
C1288 C1295 1.409 1_556 S
C1289 H1281 0.930 . S
C1289 C1287 1.419 . S
C1289 C1290 1.362 . S
C1290 H1282 0.930 . S
C1290 C1289 1.362 . S
C1290 C1293 1.409 1_556 S
C1291 H1283 0.930 . S
C1291 C1292 1.355 . S
C1291 C1293 1.415 . S
C1292 C1291 1.355 . S
C1292 C1294 1.419 . S
C1293 C1288 1.425 1_554 S
C1293 C1290 1.409 1_554 S
C1293 C1291 1.415 . S
C1294 H1284 0.930 . S
C1294 C1292 1.419 . S
C1294 C1295 1.362 . S
C1295 H1285 0.930 . S
C1295 C1288 1.409 1_554 S
C1295 C1294 1.362 . S
H1296 C1302 0.930 . S
H1297 C1305 0.930 . S
H1298 C1306 0.930 . S
H1299 C1307 0.930 . S
H1300 C1310 0.930 . S
H1301 C1311 0.930 . S
C1302 H1296 0.930 . S
C1302 C1303 1.355 . S
C1302 C1304 1.415 . S
C1303 C1302 1.355 . S
C1303 C1305 1.419 1_655 S
C1304 C1302 1.415 . S
C1304 C1309 1.425 1_655 S
C1304 C1311 1.409 . S
C1305 H1297 0.930 . S
C1305 C1303 1.419 1_455 S
C1305 C1306 1.362 . S
C1306 H1298 0.930 . S
C1306 C1305 1.362 . S
C1306 C1309 1.409 . S
C1307 H1299 0.930 . S
C1307 C1308 1.355 . S
C1307 C1309 1.415 . S
C1308 C1307 1.355 . S
C1308 C1310 1.419 1_455 S
C1309 C1304 1.425 1_455 S
C1309 C1306 1.409 . S
C1309 C1307 1.415 . S
C1310 H1300 0.930 . S
C1310 C1308 1.419 1_655 S
C1310 C1311 1.362 . S
C1311 H1301 0.930 . S
C1311 C1304 1.409 . S
C1311 C1310 1.362 . S
H1312 C1318 0.930 . S
H1313 C1321 0.930 . S
H1314 C1322 0.930 . S
H1315 C1323 0.930 . S
H1316 C1326 0.930 . S
H1317 C1327 0.930 . S
C1318 H1312 0.930 . S
C1318 C1319 1.355 . S
C1318 C1320 1.439 . S
C1319 C1318 1.355 . S
C1319 C1321 1.419 1_455 S
C1320 C1318 1.439 . S
C1320 C1325 1.424 1_454 S
C1320 C1327 1.386 1_554 S
C1321 H1313 0.930 . S
C1321 C1319 1.419 1_655 S
C1321 C1322 1.362 . S
C1322 H1314 0.930 . S
C1322 C1321 1.362 . S
C1322 C1325 1.386 1_554 S
C1323 H1315 0.930 . S
C1323 C1324 1.355 . S
C1323 C1325 1.439 . S
C1324 C1323 1.355 . S
C1324 C1326 1.419 1_655 S
C1325 C1320 1.424 1_656 S
C1325 C1322 1.386 1_556 S
C1325 C1323 1.439 . S
C1326 H1316 0.930 . S
C1326 C1324 1.419 1_455 S
C1326 C1327 1.362 . S
C1327 H1317 0.930 . S
C1327 C1320 1.386 1_556 S
C1327 C1326 1.362 . S
H1328 C1334 0.930 . S
H1329 C1337 0.930 . S
H1330 C1338 0.930 . S
H1331 C1339 0.930 . S
H1332 C1342 0.930 . S
H1333 C1343 0.930 . S
C1334 H1328 0.930 . S
C1334 C1335 1.355 . S
C1334 C1336 1.415 . S
C1335 C1334 1.355 . S
C1335 C1337 1.419 . S
C1336 C1334 1.415 . S
C1336 C1341 1.425 . S
C1336 C1343 1.409 . S
C1337 H1329 0.930 . S
C1337 C1335 1.419 . S
C1337 C1338 1.362 . S
C1338 H1330 0.930 . S
C1338 C1337 1.362 . S
C1338 C1341 1.409 . S
C1339 H1331 0.930 . S
C1339 C1340 1.355 . S
C1339 C1341 1.415 . S
C1340 C1339 1.355 . S
C1340 C1342 1.419 . S
C1341 C1336 1.425 . S
C1341 C1338 1.409 . S
C1341 C1339 1.415 . S
C1342 H1332 0.930 . S
C1342 C1340 1.419 . S
C1342 C1343 1.362 . S
C1343 H1333 0.930 . S
C1343 C1336 1.409 . S
C1343 C1342 1.362 . S
H1344 C1350 0.930 . S
H1345 C1353 0.930 . S
H1346 C1354 0.930 . S
H1347 C1355 0.930 . S
H1348 C1358 0.930 . S
H1349 C1359 0.930 . S
C1350 H1344 0.930 . S
C1350 C1351 1.355 . S
C1350 C1352 1.415 . S
C1351 C1350 1.355 . S
C1351 C1353 1.419 . S
C1352 C1350 1.415 . S
C1352 C1357 1.425 . S
C1352 C1359 1.409 . S
C1353 H1345 0.930 . S
C1353 C1351 1.419 . S
C1353 C1354 1.362 . S
C1354 H1346 0.930 . S
C1354 C1353 1.362 . S
C1354 C1357 1.409 . S
C1355 H1347 0.930 . S
C1355 C1356 1.355 . S
C1355 C1357 1.415 . S
C1356 C1355 1.355 . S
C1356 C1358 1.419 . S
C1357 C1352 1.425 . S
C1357 C1354 1.409 . S
C1357 C1355 1.415 . S
C1358 H1348 0.930 . S
C1358 C1356 1.419 . S
C1358 C1359 1.362 . S
C1359 H1349 0.930 . S
C1359 C1352 1.409 . S
C1359 C1358 1.362 . S
H1360 C1366 0.930 . S
H1361 C1369 0.930 . S
H1362 C1370 0.930 . S
H1363 C1371 0.930 . S
H1364 C1374 0.930 . S
H1365 C1375 0.930 . S
C1366 H1360 0.930 . S
C1366 C1367 1.355 . S
C1366 C1368 1.415 . S
C1367 C1366 1.355 . S
C1367 C1369 1.419 . S
C1368 C1366 1.415 . S
C1368 C1373 1.425 . S
C1368 C1375 1.409 . S
C1369 H1361 0.930 . S
C1369 C1367 1.419 . S
C1369 C1370 1.362 . S
C1370 H1362 0.930 . S
C1370 C1369 1.362 . S
C1370 C1373 1.409 . S
C1371 H1363 0.930 . S
C1371 C1372 1.355 . S
C1371 C1373 1.415 . S
C1372 C1371 1.355 . S
C1372 C1374 1.419 . S
C1373 C1368 1.425 . S
C1373 C1370 1.409 . S
C1373 C1371 1.415 . S
C1374 H1364 0.930 . S
C1374 C1372 1.419 . S
C1374 C1375 1.362 . S
C1375 H1365 0.930 . S
C1375 C1368 1.409 . S
C1375 C1374 1.362 . S
H1376 C1382 0.930 . S
H1377 C1385 0.930 . S
H1378 C1386 0.930 . S
H1379 C1387 0.930 . S
H1380 C1390 0.930 . S
H1381 C1391 0.930 . S
C1382 H1376 0.930 . S
C1382 C1383 1.355 . S
C1382 C1384 1.415 . S
C1383 C1382 1.355 . S
C1383 C1385 1.419 . S
C1384 C1382 1.415 . S
C1384 C1389 1.425 . S
C1384 C1391 1.409 . S
C1385 H1377 0.930 . S
C1385 C1383 1.419 . S
C1385 C1386 1.362 . S
C1386 H1378 0.930 . S
C1386 C1385 1.362 . S
C1386 C1389 1.409 . S
C1387 H1379 0.930 . S
C1387 C1388 1.355 . S
C1387 C1389 1.415 . S
C1388 C1387 1.355 . S
C1388 C1390 1.419 . S
C1389 C1384 1.425 . S
C1389 C1386 1.409 . S
C1389 C1387 1.415 . S
C1390 H1380 0.930 . S
C1390 C1388 1.419 . S
C1390 C1391 1.362 . S
C1391 H1381 0.930 . S
C1391 C1384 1.409 . S
C1391 C1390 1.362 . S
H1392 C1398 0.930 . S
H1393 C1401 0.930 . S
H1394 C1402 0.930 . S
H1395 C1403 0.930 . S
H1396 C1406 0.930 . S
H1397 C1407 0.930 . S
C1398 H1392 0.930 . S
C1398 C1399 1.355 . S
C1398 C1400 1.415 . S
C1399 C1398 1.355 . S
C1399 C1401 1.419 . S
C1400 C1398 1.415 . S
C1400 C1405 1.425 . S
C1400 C1407 1.409 . S
C1401 H1393 0.930 . S
C1401 C1399 1.419 . S
C1401 C1402 1.362 . S
C1402 H1394 0.930 . S
C1402 C1401 1.362 . S
C1402 C1405 1.409 . S
C1403 H1395 0.930 . S
C1403 C1404 1.355 . S
C1403 C1405 1.415 . S
C1404 C1403 1.355 . S
C1404 C1406 1.419 . S
C1405 C1400 1.425 . S
C1405 C1402 1.409 . S
C1405 C1403 1.415 . S
C1406 H1396 0.930 . S
C1406 C1404 1.419 . S
C1406 C1407 1.362 . S
C1407 H1397 0.930 . S
C1407 C1400 1.409 . S
C1407 C1406 1.362 . S
H1408 C1414 0.930 . S
H1409 C1417 0.930 . S
H1410 C1418 0.930 . S
H1411 C1419 0.930 . S
H1412 C1422 0.930 . S
H1413 C1423 0.930 . S
C1414 H1408 0.930 . S
C1414 C1415 1.355 . S
C1414 C1416 1.415 . S
C1415 C1414 1.355 . S
C1415 C1417 1.419 . S
C1416 C1414 1.415 . S
C1416 C1421 1.425 . S
C1416 C1423 1.409 . S
C1417 H1409 0.930 . S
C1417 C1415 1.419 . S
C1417 C1418 1.362 . S
C1418 H1410 0.930 . S
C1418 C1417 1.362 . S
C1418 C1421 1.409 . S
C1419 H1411 0.930 . S
C1419 C1420 1.355 . S
C1419 C1421 1.415 . S
C1420 C1419 1.355 . S
C1420 C1422 1.419 . S
C1421 C1416 1.425 . S
C1421 C1418 1.409 . S
C1421 C1419 1.415 . S
C1422 H1412 0.930 . S
C1422 C1420 1.419 . S
C1422 C1423 1.362 . S
C1423 H1413 0.930 . S
C1423 C1416 1.409 . S
C1423 C1422 1.362 . S
H1424 C1430 0.930 . S
H1425 C1433 0.930 . S
H1426 C1434 0.930 . S
H1427 C1435 0.930 . S
H1428 C1438 0.930 . S
H1429 C1439 0.930 . S
C1430 H1424 0.930 . S
C1430 C1431 1.355 . S
C1430 C1432 1.415 . S
C1431 C1430 1.355 . S
C1431 C1433 1.419 . S
C1432 C1430 1.415 . S
C1432 C1437 1.425 . S
C1432 C1439 1.409 . S
C1433 H1425 0.930 . S
C1433 C1431 1.419 . S
C1433 C1434 1.362 . S
C1434 H1426 0.930 . S
C1434 C1433 1.362 . S
C1434 C1437 1.409 . S
C1435 H1427 0.930 . S
C1435 C1436 1.355 . S
C1435 C1437 1.415 . S
C1436 C1435 1.355 . S
C1436 C1438 1.419 . S
C1437 C1432 1.425 . S
C1437 C1434 1.409 . S
C1437 C1435 1.415 . S
C1438 H1428 0.930 . S
C1438 C1436 1.419 . S
C1438 C1439 1.362 . S
C1439 H1429 0.930 . S
C1439 C1432 1.409 . S
C1439 C1438 1.362 . S
H1440 C1446 0.930 . S
H1441 C1449 0.930 . S
H1442 C1450 0.930 . S
H1443 C1451 0.930 . S
H1444 C1454 0.930 . S
H1445 C1455 0.930 . S
C1446 H1440 0.930 . S
C1446 C1447 1.355 . S
C1446 C1448 1.415 . S
C1447 C1446 1.355 . S
C1447 C1449 1.419 . S
C1448 C1446 1.415 . S
C1448 C1453 1.425 . S
C1448 C1455 1.409 . S
C1449 H1441 0.930 . S
C1449 C1447 1.419 . S
C1449 C1450 1.362 . S
C1450 H1442 0.930 . S
C1450 C1449 1.362 . S
C1450 C1453 1.409 . S
C1451 H1443 0.930 . S
C1451 C1452 1.355 . S
C1451 C1453 1.415 . S
C1452 C1451 1.355 . S
C1452 C1454 1.419 . S
C1453 C1448 1.425 . S
C1453 C1450 1.409 . S
C1453 C1451 1.415 . S
C1454 H1444 0.930 . S
C1454 C1452 1.419 . S
C1454 C1455 1.362 . S
C1455 H1445 0.930 . S
C1455 C1448 1.409 . S
C1455 C1454 1.362 . S
H1456 C1462 0.930 . S
H1457 C1465 0.930 . S
H1458 C1466 0.930 . S
H1459 C1467 0.930 . S
H1460 C1470 0.930 . S
H1461 C1471 0.930 . S
C1462 H1456 0.930 . S
C1462 C1463 1.355 . S
C1462 C1464 1.415 . S
C1463 C1462 1.355 . S
C1463 C1465 1.419 . S
C1464 C1462 1.415 . S
C1464 C1469 1.425 . S
C1464 C1471 1.409 . S
C1465 H1457 0.930 . S
C1465 C1463 1.419 . S
C1465 C1466 1.362 . S
C1466 H1458 0.930 . S
C1466 C1465 1.362 . S
C1466 C1469 1.409 . S
C1467 H1459 0.930 . S
C1467 C1468 1.355 . S
C1467 C1469 1.415 . S
C1468 C1467 1.355 . S
C1468 C1470 1.419 . S
C1469 C1464 1.425 . S
C1469 C1466 1.409 . S
C1469 C1467 1.415 . S
C1470 H1460 0.930 . S
C1470 C1468 1.419 . S
C1470 C1471 1.362 . S
C1471 H1461 0.930 . S
C1471 C1464 1.409 . S
C1471 C1470 1.362 . S
H1472 C1478 0.930 . S
H1473 C1481 0.930 . S
H1474 C1482 0.930 . S
H1475 C1483 0.930 . S
H1476 C1486 0.930 . S
H1477 C1487 0.930 . S
C1478 H1472 0.930 . S
C1478 C1479 1.355 . S
C1478 C1480 1.415 . S
C1479 C1478 1.355 . S
C1479 C1481 1.419 . S
C1480 C1478 1.415 . S
C1480 C1485 1.425 . S
C1480 C1487 1.409 . S
C1481 H1473 0.930 . S
C1481 C1479 1.419 . S
C1481 C1482 1.362 . S
C1482 H1474 0.930 . S
C1482 C1481 1.362 . S
C1482 C1485 1.409 . S
C1483 H1475 0.930 . S
C1483 C1484 1.355 . S
C1483 C1485 1.415 . S
C1484 C1483 1.355 . S
C1484 C1486 1.419 . S
C1485 C1480 1.425 . S
C1485 C1482 1.409 . S
C1485 C1483 1.415 . S
C1486 H1476 0.930 . S
C1486 C1484 1.419 . S
C1486 C1487 1.362 . S
C1487 H1477 0.930 . S
C1487 C1480 1.409 . S
C1487 C1486 1.362 . S
H1488 C1494 0.930 . S
H1489 C1497 0.930 . S
H1490 C1498 0.930 . S
H1491 C1499 0.930 . S
H1492 C1502 0.930 . S
H1493 C1503 0.930 . S
C1494 H1488 0.930 . S
C1494 C1495 1.355 . S
C1494 C1496 1.415 . S
C1495 C1494 1.355 . S
C1495 C1497 1.419 . S
C1496 C1494 1.415 . S
C1496 C1501 1.425 . S
C1496 C1503 1.409 . S
C1497 H1489 0.930 . S
C1497 C1495 1.419 . S
C1497 C1498 1.362 . S
C1498 H1490 0.930 . S
C1498 C1497 1.362 . S
C1498 C1501 1.409 . S
C1499 H1491 0.930 . S
C1499 C1500 1.355 . S
C1499 C1501 1.415 . S
C1500 C1499 1.355 . S
C1500 C1502 1.419 . S
C1501 C1496 1.425 . S
C1501 C1498 1.409 . S
C1501 C1499 1.415 . S
C1502 H1492 0.930 . S
C1502 C1500 1.419 . S
C1502 C1503 1.362 . S
C1503 H1493 0.930 . S
C1503 C1496 1.409 . S
C1503 C1502 1.362 . S
H1504 C1510 0.930 . S
H1505 C1513 0.930 . S
H1506 C1514 0.930 . S
H1507 C1515 0.930 . S
H1508 C1518 0.930 . S
H1509 C1519 0.930 . S
C1510 H1504 0.930 . S
C1510 C1511 1.355 . S
C1510 C1512 1.415 . S
C1511 C1510 1.355 . S
C1511 C1513 1.419 . S
C1512 C1510 1.415 . S
C1512 C1517 1.425 . S
C1512 C1519 1.409 . S
C1513 H1505 0.930 . S
C1513 C1511 1.419 . S
C1513 C1514 1.362 . S
C1514 H1506 0.930 . S
C1514 C1513 1.362 . S
C1514 C1517 1.409 . S
C1515 H1507 0.930 . S
C1515 C1516 1.355 . S
C1515 C1517 1.415 . S
C1516 C1515 1.355 . S
C1516 C1518 1.419 . S
C1517 C1512 1.425 . S
C1517 C1514 1.409 . S
C1517 C1515 1.415 . S
C1518 H1508 0.930 . S
C1518 C1516 1.419 . S
C1518 C1519 1.362 . S
C1519 H1509 0.930 . S
C1519 C1512 1.409 . S
C1519 C1518 1.362 . S
H1520 C1526 0.930 . S
H1521 C1529 0.930 . S
H1522 C1530 0.930 . S
H1523 C1531 0.930 . S
H1524 C1534 0.930 . S
H1525 C1535 0.930 . S
C1526 H1520 0.930 . S
C1526 C1527 1.355 . S
C1526 C1528 1.415 . S
C1527 C1526 1.355 . S
C1527 C1529 1.419 . S
C1528 C1526 1.415 . S
C1528 C1533 1.425 . S
C1528 C1535 1.409 . S
C1529 H1521 0.930 . S
C1529 C1527 1.419 . S
C1529 C1530 1.362 . S
C1530 H1522 0.930 . S
C1530 C1529 1.362 . S
C1530 C1533 1.409 . S
C1531 H1523 0.930 . S
C1531 C1532 1.355 . S
C1531 C1533 1.415 . S
C1532 C1531 1.355 . S
C1532 C1534 1.419 . S
C1533 C1528 1.425 . S
C1533 C1530 1.409 . S
C1533 C1531 1.415 . S
C1534 H1524 0.930 . S
C1534 C1532 1.419 . S
C1534 C1535 1.362 . S
C1535 H1525 0.930 . S
C1535 C1528 1.409 . S
C1535 C1534 1.362 . S
H1536 C1542 0.930 . S
H1537 C1545 0.930 . S
H1538 C1546 0.930 . S
H1539 C1547 0.930 . S
H1540 C1550 0.930 . S
H1541 C1551 0.930 . S
C1542 H1536 0.930 . S
C1542 C1543 1.355 . S
C1542 C1544 1.415 . S
C1543 C1542 1.355 . S
C1543 C1545 1.419 . S
C1544 C1542 1.415 . S
C1544 C1549 1.425 . S
C1544 C1551 1.409 . S
C1545 H1537 0.930 . S
C1545 C1543 1.419 . S
C1545 C1546 1.362 . S
C1546 H1538 0.930 . S
C1546 C1545 1.362 . S
C1546 C1549 1.409 . S
C1547 H1539 0.930 . S
C1547 C1548 1.355 . S
C1547 C1549 1.415 . S
C1548 C1547 1.355 . S
C1548 C1550 1.419 . S
C1549 C1544 1.425 . S
C1549 C1546 1.409 . S
C1549 C1547 1.415 . S
C1550 H1540 0.930 . S
C1550 C1548 1.419 . S
C1550 C1551 1.362 . S
C1551 H1541 0.930 . S
C1551 C1544 1.409 . S
C1551 C1550 1.362 . S
H1552 C1558 0.930 . S
H1553 C1561 0.930 . S
H1554 C1562 0.930 . S
H1555 C1563 0.930 . S
H1556 C1566 0.930 . S
H1557 C1567 0.930 . S
C1558 H1552 0.930 . S
C1558 C1559 1.355 . S
C1558 C1560 1.415 . S
C1559 C1558 1.355 . S
C1559 C1561 1.419 . S
C1560 C1558 1.415 . S
C1560 C1565 1.425 . S
C1560 C1567 1.409 . S
C1561 H1553 0.930 . S
C1561 C1559 1.419 . S
C1561 C1562 1.362 . S
C1562 H1554 0.930 . S
C1562 C1561 1.362 . S
C1562 C1565 1.409 . S
C1563 H1555 0.930 . S
C1563 C1564 1.355 . S
C1563 C1565 1.415 . S
C1564 C1563 1.355 . S
C1564 C1566 1.419 . S
C1565 C1560 1.425 . S
C1565 C1562 1.409 . S
C1565 C1563 1.415 . S
C1566 H1556 0.930 . S
C1566 C1564 1.419 . S
C1566 C1567 1.362 . S
C1567 H1557 0.930 . S
C1567 C1560 1.409 . S
C1567 C1566 1.362 . S
H1568 C1574 0.930 . S
H1569 C1577 0.930 . S
H1570 C1578 0.930 . S
H1571 C1579 0.930 . S
H1572 C1582 0.930 . S
H1573 C1583 0.930 . S
C1574 H1568 0.930 . S
C1574 C1575 1.355 . S
C1574 C1576 1.415 . S
C1575 C1574 1.355 . S
C1575 C1577 1.419 . S
C1576 C1574 1.415 . S
C1576 C1581 1.425 . S
C1576 C1583 1.409 . S
C1577 H1569 0.930 . S
C1577 C1575 1.419 . S
C1577 C1578 1.362 . S
C1578 H1570 0.930 . S
C1578 C1577 1.362 . S
C1578 C1581 1.409 . S
C1579 H1571 0.930 . S
C1579 C1580 1.355 . S
C1579 C1581 1.415 . S
C1580 C1579 1.355 . S
C1580 C1582 1.419 . S
C1581 C1576 1.425 . S
C1581 C1578 1.409 . S
C1581 C1579 1.415 . S
C1582 H1572 0.930 . S
C1582 C1580 1.419 . S
C1582 C1583 1.362 . S
C1583 H1573 0.930 . S
C1583 C1576 1.409 . S
C1583 C1582 1.362 . S
H1584 C1590 0.930 . S
H1585 C1593 0.930 . S
H1586 C1594 0.930 . S
H1587 C1595 0.930 . S
H1588 C1598 0.930 . S
H1589 C1599 0.930 . S
C1590 H1584 0.930 . S
C1590 C1591 1.355 . S
C1590 C1592 1.415 . S
C1591 C1590 1.355 . S
C1591 C1593 1.419 . S
C1592 C1590 1.415 . S
C1592 C1597 1.425 . S
C1592 C1599 1.409 . S
C1593 H1585 0.930 . S
C1593 C1591 1.419 . S
C1593 C1594 1.362 . S
C1594 H1586 0.930 . S
C1594 C1593 1.362 . S
C1594 C1597 1.409 . S
C1595 H1587 0.930 . S
C1595 C1596 1.355 . S
C1595 C1597 1.415 . S
C1596 C1595 1.355 . S
C1596 C1598 1.419 . S
C1597 C1592 1.425 . S
C1597 C1594 1.409 . S
C1597 C1595 1.415 . S
C1598 H1588 0.930 . S
C1598 C1596 1.419 . S
C1598 C1599 1.362 . S
C1599 H1589 0.930 . S
C1599 C1592 1.409 . S
C1599 C1598 1.362 . S
H1600 C1606 0.930 . S
H1601 C1609 0.930 . S
H1602 C1610 0.930 . S
H1603 C1611 0.930 . S
H1604 C1614 0.930 . S
H1605 C1615 0.930 . S
C1606 H1600 0.930 . S
C1606 C1607 1.355 . S
C1606 C1608 1.415 . S
C1607 C1606 1.355 . S
C1607 C1609 1.419 . S
C1608 C1606 1.415 . S
C1608 C1613 1.425 . S
C1608 C1615 1.409 . S
C1609 H1601 0.930 . S
C1609 C1607 1.419 . S
C1609 C1610 1.362 . S
C1610 H1602 0.930 . S
C1610 C1609 1.362 . S
C1610 C1613 1.409 . S
C1611 H1603 0.930 . S
C1611 C1612 1.355 . S
C1611 C1613 1.415 . S
C1612 C1611 1.355 . S
C1612 C1614 1.419 . S
C1613 C1608 1.425 . S
C1613 C1610 1.409 . S
C1613 C1611 1.415 . S
C1614 H1604 0.930 . S
C1614 C1612 1.419 . S
C1614 C1615 1.362 . S
C1615 H1605 0.930 . S
C1615 C1608 1.409 . S
C1615 C1614 1.362 . S
H1616 C1622 0.930 . S
H1617 C1625 0.930 . S
H1618 C1626 0.930 . S
H1619 C1627 0.930 . S
H1620 C1630 0.930 . S
H1621 C1631 0.930 . S
C1622 H1616 0.930 . S
C1622 C1623 1.355 . S
C1622 C1624 1.415 . S
C1623 C1622 1.355 . S
C1623 C1625 1.419 . S
C1624 C1622 1.415 . S
C1624 C1629 1.425 . S
C1624 C1631 1.409 . S
C1625 H1617 0.930 . S
C1625 C1623 1.419 . S
C1625 C1626 1.362 . S
C1626 H1618 0.930 . S
C1626 C1625 1.362 . S
C1626 C1629 1.409 . S
C1627 H1619 0.930 . S
C1627 C1628 1.355 . S
C1627 C1629 1.415 . S
C1628 C1627 1.355 . S
C1628 C1630 1.419 . S
C1629 C1624 1.425 . S
C1629 C1626 1.409 . S
C1629 C1627 1.415 . S
C1630 H1620 0.930 . S
C1630 C1628 1.419 . S
C1630 C1631 1.362 . S
C1631 H1621 0.930 . S
C1631 C1624 1.409 . S
C1631 C1630 1.362 . S
H1632 C1638 0.930 . S
H1633 C1641 0.930 . S
H1634 C1642 0.930 . S
H1635 C1643 0.930 . S
H1636 C1646 0.930 . S
H1637 C1647 0.930 . S
C1638 H1632 0.930 . S
C1638 C1639 1.355 . S
C1638 C1640 1.415 . S
C1639 C1638 1.355 . S
C1639 C1641 1.419 . S
C1640 C1638 1.415 . S
C1640 C1645 1.425 . S
C1640 C1647 1.409 . S
C1641 H1633 0.930 . S
C1641 C1639 1.419 . S
C1641 C1642 1.362 . S
C1642 H1634 0.930 . S
C1642 C1641 1.362 . S
C1642 C1645 1.409 . S
C1643 H1635 0.930 . S
C1643 C1644 1.355 . S
C1643 C1645 1.415 . S
C1644 C1643 1.355 . S
C1644 C1646 1.419 . S
C1645 C1640 1.425 . S
C1645 C1642 1.409 . S
C1645 C1643 1.415 . S
C1646 H1636 0.930 . S
C1646 C1644 1.419 . S
C1646 C1647 1.362 . S
C1647 H1637 0.930 . S
C1647 C1640 1.409 . S
C1647 C1646 1.362 . S
H1648 C1654 0.930 . S
H1649 C1657 0.930 . S
H1650 C1658 0.930 . S
H1651 C1659 0.930 . S
H1652 C1662 0.930 . S
H1653 C1663 0.930 . S
C1654 H1648 0.930 . S
C1654 C1655 1.355 . S
C1654 C1656 1.415 . S
C1655 C1654 1.355 . S
C1655 C1657 1.419 . S
C1656 C1654 1.415 . S
C1656 C1661 1.425 . S
C1656 C1663 1.409 . S
C1657 H1649 0.930 . S
C1657 C1655 1.419 . S
C1657 C1658 1.362 . S
C1658 H1650 0.930 . S
C1658 C1657 1.362 . S
C1658 C1661 1.409 . S
C1659 H1651 0.930 . S
C1659 C1660 1.355 . S
C1659 C1661 1.415 . S
C1660 C1659 1.355 . S
C1660 C1662 1.419 . S
C1661 C1656 1.425 . S
C1661 C1658 1.409 . S
C1661 C1659 1.415 . S
C1662 H1652 0.930 . S
C1662 C1660 1.419 . S
C1662 C1663 1.362 . S
C1663 H1653 0.930 . S
C1663 C1656 1.409 . S
C1663 C1662 1.362 . S
H1664 C1670 0.930 . S
H1665 C1673 0.930 . S
H1666 C1674 0.930 . S
H1667 C1675 0.930 . S
H1668 C1678 0.930 . S
H1669 C1679 0.930 . S
C1670 H1664 0.930 . S
C1670 C1671 1.355 . S
C1670 C1672 1.415 . S
C1671 C1670 1.355 . S
C1671 C1673 1.419 . S
C1672 C1670 1.415 . S
C1672 C1677 1.425 . S
C1672 C1679 1.409 . S
C1673 H1665 0.930 . S
C1673 C1671 1.419 . S
C1673 C1674 1.362 . S
C1674 H1666 0.930 . S
C1674 C1673 1.362 . S
C1674 C1677 1.409 . S
C1675 H1667 0.930 . S
C1675 C1676 1.355 . S
C1675 C1677 1.415 . S
C1676 C1675 1.355 . S
C1676 C1678 1.419 . S
C1677 C1672 1.425 . S
C1677 C1674 1.409 . S
C1677 C1675 1.415 . S
C1678 H1668 0.930 . S
C1678 C1676 1.419 . S
C1678 C1679 1.362 . S
C1679 H1669 0.930 . S
C1679 C1672 1.409 . S
C1679 C1678 1.362 . S
H1680 C1686 0.930 . S
H1681 C1689 0.930 . S
H1682 C1690 0.930 . S
H1683 C1691 0.930 . S
H1684 C1694 0.930 . S
H1685 C1695 0.930 . S
C1686 H1680 0.930 . S
C1686 C1687 1.355 . S
C1686 C1688 1.415 . S
C1687 C1686 1.355 . S
C1687 C1689 1.419 . S
C1688 C1686 1.415 . S
C1688 C1693 1.425 . S
C1688 C1695 1.409 . S
C1689 H1681 0.930 . S
C1689 C1687 1.419 . S
C1689 C1690 1.362 . S
C1690 H1682 0.930 . S
C1690 C1689 1.362 . S
C1690 C1693 1.409 . S
C1691 H1683 0.930 . S
C1691 C1692 1.355 . S
C1691 C1693 1.415 . S
C1692 C1691 1.355 . S
C1692 C1694 1.419 . S
C1693 C1688 1.425 . S
C1693 C1690 1.409 . S
C1693 C1691 1.415 . S
C1694 H1684 0.930 . S
C1694 C1692 1.419 . S
C1694 C1695 1.362 . S
C1695 H1685 0.930 . S
C1695 C1688 1.409 . S
C1695 C1694 1.362 . S
H1696 C1702 0.930 . S
H1697 C1705 0.930 . S
H1698 C1706 0.930 . S
H1699 C1707 0.930 . S
H1700 C1710 0.930 . S
H1701 C1711 0.930 . S
C1702 H1696 0.930 . S
C1702 C1703 1.355 . S
C1702 C1704 1.415 . S
C1703 C1702 1.355 . S
C1703 C1705 1.419 . S
C1704 C1702 1.415 . S
C1704 C1709 1.425 . S
C1704 C1711 1.409 . S
C1705 H1697 0.930 . S
C1705 C1703 1.419 . S
C1705 C1706 1.362 . S
C1706 H1698 0.930 . S
C1706 C1705 1.362 . S
C1706 C1709 1.409 . S
C1707 H1699 0.930 . S
C1707 C1708 1.355 . S
C1707 C1709 1.415 . S
C1708 C1707 1.355 . S
C1708 C1710 1.419 . S
C1709 C1704 1.425 . S
C1709 C1706 1.409 . S
C1709 C1707 1.415 . S
C1710 H1700 0.930 . S
C1710 C1708 1.419 . S
C1710 C1711 1.362 . S
C1711 H1701 0.930 . S
C1711 C1704 1.409 . S
C1711 C1710 1.362 . S
H1712 C1718 0.930 . S
H1713 C1721 0.930 . S
H1714 C1722 0.930 . S
H1715 C1723 0.930 . S
H1716 C1726 0.930 . S
H1717 C1727 0.930 . S
C1718 H1712 0.930 . S
C1718 C1719 1.355 . S
C1718 C1720 1.415 . S
C1719 C1718 1.355 . S
C1719 C1721 1.419 . S
C1720 C1718 1.415 . S
C1720 C1725 1.425 . S
C1720 C1727 1.409 . S
C1721 H1713 0.930 . S
C1721 C1719 1.419 . S
C1721 C1722 1.362 . S
C1722 H1714 0.930 . S
C1722 C1721 1.362 . S
C1722 C1725 1.409 . S
C1723 H1715 0.930 . S
C1723 C1724 1.355 . S
C1723 C1725 1.415 . S
C1724 C1723 1.355 . S
C1724 C1726 1.419 . S
C1725 C1720 1.425 . S
C1725 C1722 1.409 . S
C1725 C1723 1.415 . S
C1726 H1716 0.930 . S
C1726 C1724 1.419 . S
C1726 C1727 1.362 . S
C1727 H1717 0.930 . S
C1727 C1720 1.409 . S
C1727 C1726 1.362 . S
H1728 C1734 0.930 . S
H1729 C1737 0.930 . S
H1730 C1738 0.930 . S
H1731 C1739 0.930 . S
H1732 C1742 0.930 . S
H1733 C1743 0.930 . S
C1734 H1728 0.930 . S
C1734 C1735 1.355 . S
C1734 C1736 1.415 . S
C1735 C1734 1.355 . S
C1735 C1737 1.419 . S
C1736 C1734 1.415 . S
C1736 C1741 1.425 . S
C1736 C1743 1.409 . S
C1737 H1729 0.930 . S
C1737 C1735 1.419 . S
C1737 C1738 1.362 . S
C1738 H1730 0.930 . S
C1738 C1737 1.362 . S
C1738 C1741 1.409 . S
C1739 H1731 0.930 . S
C1739 C1740 1.355 . S
C1739 C1741 1.415 . S
C1740 C1739 1.355 . S
C1740 C1742 1.419 . S
C1741 C1736 1.425 . S
C1741 C1738 1.409 . S
C1741 C1739 1.415 . S
C1742 H1732 0.930 . S
C1742 C1740 1.419 . S
C1742 C1743 1.362 . S
C1743 H1733 0.930 . S
C1743 C1736 1.409 . S
C1743 C1742 1.362 . S
H1744 C1750 0.930 . S
H1745 C1753 0.930 . S
H1746 C1754 0.930 . S
H1747 C1755 0.930 . S
H1748 C1758 0.930 . S
H1749 C1759 0.930 . S
C1750 H1744 0.930 . S
C1750 C1751 1.355 . S
C1750 C1752 1.415 . S
C1751 C1750 1.355 . S
C1751 C1753 1.419 . S
C1752 C1750 1.415 . S
C1752 C1757 1.425 . S
C1752 C1759 1.409 . S
C1753 H1745 0.930 . S
C1753 C1751 1.419 . S
C1753 C1754 1.362 . S
C1754 H1746 0.930 . S
C1754 C1753 1.362 . S
C1754 C1757 1.409 . S
C1755 H1747 0.930 . S
C1755 C1756 1.355 . S
C1755 C1757 1.415 . S
C1756 C1755 1.355 . S
C1756 C1758 1.419 . S
C1757 C1752 1.425 . S
C1757 C1754 1.409 . S
C1757 C1755 1.415 . S
C1758 H1748 0.930 . S
C1758 C1756 1.419 . S
C1758 C1759 1.362 . S
C1759 H1749 0.930 . S
C1759 C1752 1.409 . S
C1759 C1758 1.362 . S
H1760 C1766 0.930 . S
H1761 C1769 0.930 . S
H1762 C1770 0.930 . S
H1763 C1771 0.930 . S
H1764 C1774 0.930 . S
H1765 C1775 0.930 . S
C1766 H1760 0.930 . S
C1766 C1767 1.355 . S
C1766 C1768 1.415 . S
C1767 C1766 1.355 . S
C1767 C1769 1.419 . S
C1768 C1766 1.415 . S
C1768 C1773 1.425 . S
C1768 C1775 1.409 . S
C1769 H1761 0.930 . S
C1769 C1767 1.419 . S
C1769 C1770 1.362 . S
C1770 H1762 0.930 . S
C1770 C1769 1.362 . S
C1770 C1773 1.409 . S
C1771 H1763 0.930 . S
C1771 C1772 1.355 . S
C1771 C1773 1.415 . S
C1772 C1771 1.355 . S
C1772 C1774 1.419 . S
C1773 C1768 1.425 . S
C1773 C1770 1.409 . S
C1773 C1771 1.415 . S
C1774 H1764 0.930 . S
C1774 C1772 1.419 . S
C1774 C1775 1.362 . S
C1775 H1765 0.930 . S
C1775 C1768 1.409 . S
C1775 C1774 1.362 . S
H1776 C1782 0.930 . S
H1777 C1785 0.930 . S
H1778 C1786 0.930 . S
H1779 C1787 0.930 . S
H1780 C1790 0.930 . S
H1781 C1791 0.930 . S
C1782 H1776 0.930 . S
C1782 C1783 1.355 . S
C1782 C1784 1.415 . S
C1783 C1782 1.355 . S
C1783 C1785 1.419 . S
C1784 C1782 1.415 . S
C1784 C1789 1.425 . S
C1784 C1791 1.409 . S
C1785 H1777 0.930 . S
C1785 C1783 1.419 . S
C1785 C1786 1.362 . S
C1786 H1778 0.930 . S
C1786 C1785 1.362 . S
C1786 C1789 1.409 . S
C1787 H1779 0.930 . S
C1787 C1788 1.355 . S
C1787 C1789 1.415 . S
C1788 C1787 1.355 . S
C1788 C1790 1.419 . S
C1789 C1784 1.425 . S
C1789 C1786 1.409 . S
C1789 C1787 1.415 . S
C1790 H1780 0.930 . S
C1790 C1788 1.419 . S
C1790 C1791 1.362 . S
C1791 H1781 0.930 . S
C1791 C1784 1.409 . S
C1791 C1790 1.362 . S
H1792 C1798 0.930 . S
H1793 C1801 0.930 . S
H1794 C1802 0.930 . S
H1795 C1803 0.930 . S
H1796 C1806 0.930 . S
H1797 C1807 0.930 . S
C1798 H1792 0.930 . S
C1798 C1799 1.355 . S
C1798 C1800 1.415 . S
C1799 C1798 1.355 . S
C1799 C1801 1.419 . S
C1800 C1798 1.415 . S
C1800 C1805 1.425 . S
C1800 C1807 1.409 . S
C1801 H1793 0.930 . S
C1801 C1799 1.419 . S
C1801 C1802 1.362 . S
C1802 H1794 0.930 . S
C1802 C1801 1.362 . S
C1802 C1805 1.409 . S
C1803 H1795 0.930 . S
C1803 C1804 1.355 . S
C1803 C1805 1.415 . S
C1804 C1803 1.355 . S
C1804 C1806 1.419 . S
C1805 C1800 1.425 . S
C1805 C1802 1.409 . S
C1805 C1803 1.415 . S
C1806 H1796 0.930 . S
C1806 C1804 1.419 . S
C1806 C1807 1.362 . S
C1807 H1797 0.930 . S
C1807 C1800 1.409 . S
C1807 C1806 1.362 . S
H1808 C1814 0.930 . S
H1809 C1817 0.930 . S
H1810 C1818 0.930 . S
H1811 C1819 0.930 . S
H1812 C1822 0.930 . S
H1813 C1823 0.930 . S
C1814 H1808 0.930 . S
C1814 C1815 1.355 . S
C1814 C1816 1.415 . S
C1815 C1814 1.355 . S
C1815 C1817 1.419 . S
C1816 C1814 1.415 . S
C1816 C1821 1.425 . S
C1816 C1823 1.409 . S
C1817 H1809 0.930 . S
C1817 C1815 1.419 . S
C1817 C1818 1.362 . S
C1818 H1810 0.930 . S
C1818 C1817 1.362 . S
C1818 C1821 1.409 . S
C1819 H1811 0.930 . S
C1819 C1820 1.355 . S
C1819 C1821 1.415 . S
C1820 C1819 1.355 . S
C1820 C1822 1.419 . S
C1821 C1816 1.425 . S
C1821 C1818 1.409 . S
C1821 C1819 1.415 . S
C1822 H1812 0.930 . S
C1822 C1820 1.419 . S
C1822 C1823 1.362 . S
C1823 H1813 0.930 . S
C1823 C1816 1.409 . S
C1823 C1822 1.362 . S
H1824 C1830 0.930 . S
H1825 C1833 0.930 . S
H1826 C1834 0.930 . S
H1827 C1835 0.930 . S
H1828 C1838 0.930 . S
H1829 C1839 0.930 . S
C1830 H1824 0.930 . S
C1830 C1831 1.355 . S
C1830 C1832 1.415 . S
C1831 C1830 1.355 . S
C1831 C1833 1.419 . S
C1832 C1830 1.415 . S
C1832 C1837 1.425 . S
C1832 C1839 1.409 . S
C1833 H1825 0.930 . S
C1833 C1831 1.419 . S
C1833 C1834 1.362 . S
C1834 H1826 0.930 . S
C1834 C1833 1.362 . S
C1834 C1837 1.409 . S
C1835 H1827 0.930 . S
C1835 C1836 1.355 . S
C1835 C1837 1.415 . S
C1836 C1835 1.355 . S
C1836 C1838 1.419 . S
C1837 C1832 1.425 . S
C1837 C1834 1.409 . S
C1837 C1835 1.415 . S
C1838 H1828 0.930 . S
C1838 C1836 1.419 . S
C1838 C1839 1.362 . S
C1839 H1829 0.930 . S
C1839 C1832 1.409 . S
C1839 C1838 1.362 . S
H1840 C1846 0.930 . S
H1841 C1849 0.930 . S
H1842 C1850 0.930 . S
H1843 C1851 0.930 . S
H1844 C1854 0.930 . S
H1845 C1855 0.930 . S
C1846 H1840 0.930 . S
C1846 C1847 1.355 . S
C1846 C1848 1.415 . S
C1847 C1846 1.355 . S
C1847 C1849 1.419 . S
C1848 C1846 1.415 . S
C1848 C1853 1.425 . S
C1848 C1855 1.409 . S
C1849 H1841 0.930 . S
C1849 C1847 1.419 . S
C1849 C1850 1.362 . S
C1850 H1842 0.930 . S
C1850 C1849 1.362 . S
C1850 C1853 1.409 . S
C1851 H1843 0.930 . S
C1851 C1852 1.355 . S
C1851 C1853 1.415 . S
C1852 C1851 1.355 . S
C1852 C1854 1.419 . S
C1853 C1848 1.425 . S
C1853 C1850 1.409 . S
C1853 C1851 1.415 . S
C1854 H1844 0.930 . S
C1854 C1852 1.419 . S
C1854 C1855 1.362 . S
C1855 H1845 0.930 . S
C1855 C1848 1.409 . S
C1855 C1854 1.362 . S
H1856 C1862 0.930 . S
H1857 C1865 0.930 . S
H1858 C1866 0.930 . S
H1859 C1867 0.930 . S
H1860 C1870 0.930 . S
H1861 C1871 0.930 . S
C1862 H1856 0.930 . S
C1862 C1863 1.355 . S
C1862 C1864 1.410 1_554 S
C1863 C1862 1.355 . S
C1863 C1865 1.419 . S
C1864 C1862 1.410 1_556 S
C1864 C1869 1.425 1_556 S
C1864 C1871 1.414 . S
C1865 H1857 0.930 . S
C1865 C1863 1.419 . S
C1865 C1866 1.362 . S
C1866 H1858 0.930 . S
C1866 C1865 1.362 . S
C1866 C1869 1.414 . S
C1867 H1859 0.930 . S
C1867 C1868 1.355 . S
C1867 C1869 1.410 1_556 S
C1868 C1867 1.355 . S
C1868 C1870 1.419 . S
C1869 C1864 1.425 1_554 S
C1869 C1866 1.414 . S
C1869 C1867 1.410 1_554 S
C1870 H1860 0.930 . S
C1870 C1868 1.419 . S
C1870 C1871 1.362 . S
C1871 H1861 0.930 . S
C1871 C1864 1.414 . S
C1871 C1870 1.362 . S
H1872 C1878 0.930 . S
H1873 C1881 0.930 . S
H1874 C1882 0.930 . S
H1875 C1883 0.930 . S
H1876 C1886 0.930 . S
H1877 C1887 0.930 . S
C1878 H1872 0.930 . S
C1878 C1879 1.355 1_545 S
C1878 C1880 1.415 . S
C1879 C1878 1.355 1_565 S
C1879 C1881 1.419 . S
C1880 C1878 1.415 . S
C1880 C1885 1.425 1_545 S
C1880 C1887 1.409 . S
C1881 H1873 0.930 . S
C1881 C1879 1.419 . S
C1881 C1882 1.362 . S
C1882 H1874 0.930 . S
C1882 C1881 1.362 . S
C1882 C1885 1.409 . S
C1883 H1875 0.930 . S
C1883 C1884 1.355 1_565 S
C1883 C1885 1.415 . S
C1884 C1883 1.355 1_545 S
C1884 C1886 1.419 . S
C1885 C1880 1.425 1_565 S
C1885 C1882 1.409 . S
C1885 C1883 1.415 . S
C1886 H1876 0.930 . S
C1886 C1884 1.419 . S
C1886 C1887 1.362 . S
C1887 H1877 0.930 . S
C1887 C1880 1.409 . S
C1887 C1886 1.362 . S
H1888 C1894 0.930 . S
H1889 C1897 0.930 . S
H1890 C1898 0.930 . S
H1891 C1899 0.930 . S
H1892 C1902 0.930 . S
H1893 C1903 0.930 . S
C1894 H1888 0.930 . S
C1894 C1895 1.355 . S
C1894 C1896 1.415 . S
C1895 C1894 1.355 . S
C1895 C1897 1.419 . S
C1896 C1894 1.415 . S
C1896 C1901 1.425 . S
C1896 C1903 1.409 . S
C1897 H1889 0.930 . S
C1897 C1895 1.419 . S
C1897 C1898 1.362 . S
C1898 H1890 0.930 . S
C1898 C1897 1.362 . S
C1898 C1901 1.409 . S
C1899 H1891 0.930 . S
C1899 C1900 1.355 . S
C1899 C1901 1.415 . S
C1900 C1899 1.355 . S
C1900 C1902 1.419 . S
C1901 C1896 1.425 . S
C1901 C1898 1.409 . S
C1901 C1899 1.415 . S
C1902 H1892 0.930 . S
C1902 C1900 1.419 . S
C1902 C1903 1.362 . S
C1903 H1893 0.930 . S
C1903 C1896 1.409 . S
C1903 C1902 1.362 . S
H1904 C1910 0.909 1_545 S
H1905 C1913 0.930 . S
H1906 C1914 0.930 . S
H1907 C1915 0.909 1_565 S
H1908 C1918 0.930 . S
H1909 C1919 0.930 . S
C1910 H1904 0.909 1_565 S
C1910 C1911 1.388 . S
C1910 C1912 1.403 1_565 S
C1911 C1910 1.388 . S
C1911 C1913 1.419 . S
C1912 C1910 1.403 1_545 S
C1912 C1917 1.425 1_545 S
C1912 C1919 1.409 . S
C1913 H1905 0.930 . S
C1913 C1911 1.419 . S
C1913 C1914 1.362 . S
C1914 H1906 0.930 . S
C1914 C1913 1.362 . S
C1914 C1917 1.409 . S
C1915 H1907 0.909 1_545 S
C1915 C1916 1.388 . S
C1915 C1917 1.403 1_545 S
C1916 C1915 1.388 . S
C1916 C1918 1.419 . S
C1917 C1912 1.425 1_565 S
C1917 C1914 1.409 . S
C1917 C1915 1.403 1_565 S
C1918 H1908 0.930 . S
C1918 C1916 1.419 . S
C1918 C1919 1.362 . S
C1919 H1909 0.930 . S
C1919 C1912 1.409 . S
C1919 C1918 1.362 . S
H1920 C1926 0.930 . S
H1921 C1929 0.930 . S
H1922 C1930 0.930 . S
H1923 C1931 0.930 . S
H1924 C1934 0.930 . S
H1925 C1935 0.930 . S
C1926 H1920 0.930 . S
C1926 C1927 1.355 . S
C1926 C1928 1.415 . S
C1927 C1926 1.355 . S
C1927 C1929 1.419 . S
C1928 C1926 1.415 . S
C1928 C1933 1.425 1_554 S
C1928 C1935 1.409 1_554 S
C1929 H1921 0.930 . S
C1929 C1927 1.419 . S
C1929 C1930 1.362 . S
C1930 H1922 0.930 . S
C1930 C1929 1.362 . S
C1930 C1933 1.409 1_554 S
C1931 H1923 0.930 . S
C1931 C1932 1.355 . S
C1931 C1933 1.415 . S
C1932 C1931 1.355 . S
C1932 C1934 1.419 . S
C1933 C1928 1.425 1_556 S
C1933 C1930 1.409 1_556 S
C1933 C1931 1.415 . S
C1934 H1924 0.930 . S
C1934 C1932 1.419 . S
C1934 C1935 1.362 . S
C1935 H1925 0.930 . S
C1935 C1928 1.409 1_556 S
C1935 C1934 1.362 . S
H1936 C1942 0.930 . S
H1937 C1945 0.930 . S
H1938 C1946 0.930 . S
H1939 C1947 0.930 . S
H1940 C1950 0.930 . S
H1941 C1951 0.930 . S
C1942 H1936 0.930 . S
C1942 C1943 1.355 1_565 S
C1942 C1944 1.415 . S
C1943 C1942 1.355 1_545 S
C1943 C1945 1.419 . S
C1944 C1942 1.415 . S
C1944 C1949 1.425 1_565 S
C1944 C1951 1.409 . S
C1945 H1937 0.930 . S
C1945 C1943 1.419 . S
C1945 C1946 1.362 . S
C1946 H1938 0.930 . S
C1946 C1945 1.362 . S
C1946 C1949 1.409 . S
C1947 H1939 0.930 . S
C1947 C1948 1.355 1_545 S
C1947 C1949 1.415 . S
C1948 C1947 1.355 1_565 S
C1948 C1950 1.419 . S
C1949 C1944 1.425 1_545 S
C1949 C1946 1.409 . S
C1949 C1947 1.415 . S
C1950 H1940 0.930 . S
C1950 C1948 1.419 . S
C1950 C1951 1.362 . S
C1951 H1941 0.930 . S
C1951 C1944 1.409 . S
C1951 C1950 1.362 . S
H1952 C1958 0.930 . S
H1953 C1961 0.930 . S
H1954 C1962 0.930 . S
H1955 C1963 0.930 . S
H1956 C1966 0.930 . S
H1957 C1967 0.930 . S
C1958 H1952 0.930 . S
C1958 C1959 1.355 . S
C1958 C1960 1.415 . S
C1959 C1958 1.355 . S
C1959 C1961 1.419 . S
C1960 C1958 1.415 . S
C1960 C1965 1.425 . S
C1960 C1967 1.409 . S
C1961 H1953 0.930 . S
C1961 C1959 1.419 . S
C1961 C1962 1.362 . S
C1962 H1954 0.930 . S
C1962 C1961 1.362 . S
C1962 C1965 1.409 . S
C1963 H1955 0.930 . S
C1963 C1964 1.355 . S
C1963 C1965 1.415 . S
C1964 C1963 1.355 . S
C1964 C1966 1.419 . S
C1965 C1960 1.425 . S
C1965 C1962 1.409 . S
C1965 C1963 1.415 . S
C1966 H1956 0.930 . S
C1966 C1964 1.419 . S
C1966 C1967 1.362 . S
C1967 H1957 0.930 . S
C1967 C1960 1.409 . S
C1967 C1966 1.362 . S
H1968 C1974 0.930 . S
H1969 C1977 0.930 . S
H1970 C1978 0.930 . S
H1971 C1979 0.930 . S
H1972 C1982 0.930 . S
H1973 C1983 0.930 . S
C1974 H1968 0.930 . S
C1974 C1975 1.355 1_545 S
C1974 C1976 1.415 . S
C1975 C1974 1.355 1_565 S
C1975 C1977 1.419 . S
C1976 C1974 1.415 . S
C1976 C1981 1.425 1_545 S
C1976 C1983 1.409 . S
C1977 H1969 0.930 . S
C1977 C1975 1.419 . S
C1977 C1978 1.362 . S
C1978 H1970 0.930 . S
C1978 C1977 1.362 . S
C1978 C1981 1.409 . S
C1979 H1971 0.930 . S
C1979 C1980 1.355 1_565 S
C1979 C1981 1.415 . S
C1980 C1979 1.355 1_545 S
C1980 C1982 1.419 . S
C1981 C1976 1.425 1_565 S
C1981 C1978 1.409 . S
C1981 C1979 1.415 . S
C1982 H1972 0.930 . S
C1982 C1980 1.419 . S
C1982 C1983 1.362 . S
C1983 H1973 0.930 . S
C1983 C1976 1.409 . S
C1983 C1982 1.362 . S
H1984 C1990 0.930 . S
H1985 C1993 0.930 . S
H1986 C1994 0.930 . S
H1987 C1995 0.930 . S
H1988 C1998 0.930 . S
H1989 C1999 0.930 . S
C1990 H1984 0.930 . S
C1990 C1991 1.355 . S
C1990 C1992 1.415 . S
C1991 C1990 1.355 . S
C1991 C1993 1.419 . S
C1992 C1990 1.415 . S
C1992 C1997 1.425 . S
C1992 C1999 1.409 . S
C1993 H1985 0.930 . S
C1993 C1991 1.419 . S
C1993 C1994 1.362 . S
C1994 H1986 0.930 . S
C1994 C1993 1.362 . S
C1994 C1997 1.409 . S
C1995 H1987 0.930 . S
C1995 C1996 1.355 . S
C1995 C1997 1.415 . S
C1996 C1995 1.355 . S
C1996 C1998 1.419 . S
C1997 C1992 1.425 . S
C1997 C1994 1.409 . S
C1997 C1995 1.415 . S
C1998 H1988 0.930 . S
C1998 C1996 1.419 . S
C1998 C1999 1.362 . S
C1999 H1989 0.930 . S
C1999 C1992 1.409 . S
C1999 C1998 1.362 . S
H2000 C2006 0.930 . S
H2001 C2009 0.930 . S
H2002 C2010 0.930 . S
H2003 C2011 0.930 . S
H2004 C2014 0.930 . S
H2005 C2015 0.930 . S
C2006 H2000 0.930 . S
C2006 C2007 1.355 . S
C2006 C2008 1.415 . S
C2007 C2006 1.355 . S
C2007 C2009 1.419 . S
C2008 C2006 1.415 . S
C2008 C2013 1.425 . S
C2008 C2015 1.409 . S
C2009 H2001 0.930 . S
C2009 C2007 1.419 . S
C2009 C2010 1.362 . S
C2010 H2002 0.930 . S
C2010 C2009 1.362 . S
C2010 C2013 1.409 . S
C2011 H2003 0.930 . S
C2011 C2012 1.355 . S
C2011 C2013 1.415 . S
C2012 C2011 1.355 . S
C2012 C2014 1.419 . S
C2013 C2008 1.425 . S
C2013 C2010 1.409 . S
C2013 C2011 1.415 . S
C2014 H2004 0.930 . S
C2014 C2012 1.419 . S
C2014 C2015 1.362 . S
C2015 H2005 0.930 . S
C2015 C2008 1.409 . S
C2015 C2014 1.362 . S
H2016 C2022 0.930 . S
H2017 C2025 0.930 . S
H2018 C2026 0.905 1_556 S
H2019 C2027 0.930 . S
H2020 C2030 0.930 . S
H2021 C2031 0.905 1_554 S
C2022 H2016 0.930 . S
C2022 C2023 1.355 . S
C2022 C2024 1.415 . S
C2023 C2022 1.355 . S
C2023 C2025 1.419 . S
C2024 C2022 1.415 . S
C2024 C2029 1.425 1_554 S
C2024 C2031 1.395 1_554 S
C2025 H2017 0.930 . S
C2025 C2023 1.419 . S
C2025 C2026 1.402 . S
C2026 H2018 0.905 1_554 S
C2026 C2025 1.402 . S
C2026 C2029 1.395 1_554 S
C2027 H2019 0.930 . S
C2027 C2028 1.355 . S
C2027 C2029 1.415 . S
C2028 C2027 1.355 . S
C2028 C2030 1.419 . S
C2029 C2024 1.425 1_556 S
C2029 C2026 1.395 1_556 S
C2029 C2027 1.415 . S
C2030 H2020 0.930 . S
C2030 C2028 1.419 . S
C2030 C2031 1.402 . S
C2031 H2021 0.905 1_556 S
C2031 C2024 1.395 1_556 S
C2031 C2030 1.402 . S
H2032 C2038 0.930 . S
H2033 C2041 0.930 . S
H2034 C2042 0.930 . S
H2035 C2043 0.930 . S
H2036 C2046 0.930 1_655 S
H2037 C2047 0.930 1_655 S
C2038 H2032 0.930 . S
C2038 C2039 1.355 . S
C2038 C2040 1.415 . S
C2039 C2038 1.355 . S
C2039 C2041 1.419 . S
C2040 C2038 1.415 . S
C2040 C2045 1.425 . S
C2040 C2047 1.409 . S
C2041 H2033 0.930 . S
C2041 C2039 1.419 . S
C2041 C2042 1.362 . S
C2042 H2034 0.930 . S
C2042 C2041 1.362 . S
C2042 C2045 1.409 . S
C2043 H2035 0.930 . S
C2043 C2044 1.355 . S
C2043 C2045 1.415 . S
C2044 C2043 1.355 . S
C2044 C2046 1.419 . S
C2045 C2040 1.425 . S
C2045 C2042 1.409 . S
C2045 C2043 1.415 . S
C2046 H2036 0.930 1_455 S
C2046 C2044 1.419 . S
C2046 C2047 1.362 . S
C2047 H2037 0.930 1_455 S
C2047 C2040 1.409 . S
C2047 C2046 1.362 . S
H2048 C2054 0.930 . S
H2049 C2057 0.930 . S
H2050 C2058 0.930 . S
H2051 C2059 0.930 . S
H2052 C2062 0.930 . S
H2053 C2063 0.930 . S
C2054 H2048 0.930 . S
C2054 C2055 1.355 . S
C2054 C2056 1.415 . S
C2055 C2054 1.355 . S
C2055 C2057 1.419 . S
C2056 C2054 1.415 . S
C2056 C2061 1.425 . S
C2056 C2063 1.409 . S
C2057 H2049 0.930 . S
C2057 C2055 1.419 . S
C2057 C2058 1.362 . S
C2058 H2050 0.930 . S
C2058 C2057 1.362 . S
C2058 C2061 1.409 . S
C2059 H2051 0.930 . S
C2059 C2060 1.355 . S
C2059 C2061 1.415 . S
C2060 C2059 1.355 . S
C2060 C2062 1.419 . S
C2061 C2056 1.425 . S
C2061 C2058 1.409 . S
C2061 C2059 1.415 . S
C2062 H2052 0.930 . S
C2062 C2060 1.419 . S
C2062 C2063 1.362 . S
C2063 H2053 0.930 . S
C2063 C2056 1.409 . S
C2063 C2062 1.362 . S
H2064 C2070 0.930 . S
H2065 C2073 0.930 . S
H2066 C2074 0.930 . S
H2067 C2075 0.930 . S
H2068 C2078 0.930 . S
H2069 C2079 0.930 . S
C2070 H2064 0.930 . S
C2070 C2071 1.355 . S
C2070 C2072 1.415 . S
C2071 C2070 1.355 . S
C2071 C2073 1.419 . S
C2072 C2070 1.415 . S
C2072 C2077 1.425 . S
C2072 C2079 1.409 . S
C2073 H2065 0.930 . S
C2073 C2071 1.419 . S
C2073 C2074 1.362 . S
C2074 H2066 0.930 . S
C2074 C2073 1.362 . S
C2074 C2077 1.409 . S
C2075 H2067 0.930 . S
C2075 C2076 1.355 . S
C2075 C2077 1.415 . S
C2076 C2075 1.355 . S
C2076 C2078 1.419 . S
C2077 C2072 1.425 . S
C2077 C2074 1.409 . S
C2077 C2075 1.415 . S
C2078 H2068 0.930 . S
C2078 C2076 1.419 . S
C2078 C2079 1.362 . S
C2079 H2069 0.930 . S
C2079 C2072 1.409 . S
C2079 C2078 1.362 . S
H2080 C2086 0.930 . S
H2081 C2089 0.930 . S
H2082 C2090 0.930 1_554 S
H2083 C2091 0.930 . S
H2084 C2094 0.930 . S
H2085 C2095 0.930 1_556 S
C2086 H2080 0.930 . S
C2086 C2087 1.355 . S
C2086 C2088 1.415 . S
C2087 C2086 1.355 . S
C2087 C2089 1.419 . S
C2088 C2086 1.415 . S
C2088 C2093 1.425 1_556 S
C2088 C2095 1.409 1_556 S
C2089 H2081 0.930 . S
C2089 C2087 1.419 . S
C2089 C2090 1.362 . S
C2090 H2082 0.930 1_556 S
C2090 C2089 1.362 . S
C2090 C2093 1.409 1_556 S
C2091 H2083 0.930 . S
C2091 C2092 1.355 . S
C2091 C2093 1.415 . S
C2092 C2091 1.355 . S
C2092 C2094 1.419 . S
C2093 C2088 1.425 1_554 S
C2093 C2090 1.409 1_554 S
C2093 C2091 1.415 . S
C2094 H2084 0.930 . S
C2094 C2092 1.419 . S
C2094 C2095 1.362 . S
C2095 H2085 0.930 1_554 S
C2095 C2088 1.409 1_554 S
C2095 C2094 1.362 . S
H2096 C2102 0.930 . S
H2097 C2105 0.930 . S
H2098 C2106 0.930 . S
H2099 C2107 0.930 . S
H2100 C2110 0.930 . S
H2101 C2111 0.930 . S
C2102 H2096 0.930 . S
C2102 C2103 1.355 . S
C2102 C2104 1.415 . S
C2103 C2102 1.355 . S
C2103 C2105 1.419 . S
C2104 C2102 1.415 . S
C2104 C2109 1.425 . S
C2104 C2111 1.409 . S
C2105 H2097 0.930 . S
C2105 C2103 1.419 . S
C2105 C2106 1.362 . S
C2106 H2098 0.930 . S
C2106 C2105 1.362 . S
C2106 C2109 1.409 . S
C2107 H2099 0.930 . S
C2107 C2108 1.355 . S
C2107 C2109 1.415 . S
C2108 C2107 1.355 . S
C2108 C2110 1.419 . S
C2109 C2104 1.425 . S
C2109 C2106 1.409 . S
C2109 C2107 1.415 . S
C2110 H2100 0.930 . S
C2110 C2108 1.419 . S
C2110 C2111 1.362 . S
C2111 H2101 0.930 . S
C2111 C2104 1.409 . S
C2111 C2110 1.362 . S
H2112 C2118 0.930 . S
H2113 C2121 0.930 . S
H2114 C2122 0.930 . S
H2115 C2123 0.930 . S
H2116 C2126 0.930 . S
H2117 C2127 0.930 . S
C2118 H2112 0.930 . S
C2118 C2119 1.355 . S
C2118 C2120 1.415 . S
C2119 C2118 1.355 . S
C2119 C2121 1.419 . S
C2120 C2118 1.415 . S
C2120 C2125 1.425 . S
C2120 C2127 1.409 . S
C2121 H2113 0.930 . S
C2121 C2119 1.419 . S
C2121 C2122 1.362 . S
C2122 H2114 0.930 . S
C2122 C2121 1.362 . S
C2122 C2125 1.409 . S
C2123 H2115 0.930 . S
C2123 C2124 1.355 . S
C2123 C2125 1.415 . S
C2124 C2123 1.355 . S
C2124 C2126 1.419 . S
C2125 C2120 1.425 . S
C2125 C2122 1.409 . S
C2125 C2123 1.415 . S
C2126 H2116 0.930 . S
C2126 C2124 1.419 . S
C2126 C2127 1.362 . S
C2127 H2117 0.930 . S
C2127 C2120 1.409 . S
C2127 C2126 1.362 . S
H2128 C2134 0.930 . S
H2129 C2137 0.930 . S
H2130 C2138 0.930 . S
H2131 C2139 0.930 . S
H2132 C2142 0.930 . S
H2133 C2143 0.930 . S
C2134 H2128 0.930 . S
C2134 C2135 1.355 . S
C2134 C2136 1.415 . S
C2135 C2134 1.355 . S
C2135 C2137 1.419 . S
C2136 C2134 1.415 . S
C2136 C2141 1.425 . S
C2136 C2143 1.409 . S
C2137 H2129 0.930 . S
C2137 C2135 1.419 . S
C2137 C2138 1.362 . S
C2138 H2130 0.930 . S
C2138 C2137 1.362 . S
C2138 C2141 1.409 . S
C2139 H2131 0.930 . S
C2139 C2140 1.355 . S
C2139 C2141 1.415 . S
C2140 C2139 1.355 . S
C2140 C2142 1.419 . S
C2141 C2136 1.425 . S
C2141 C2138 1.409 . S
C2141 C2139 1.415 . S
C2142 H2132 0.930 . S
C2142 C2140 1.419 . S
C2142 C2143 1.362 . S
C2143 H2133 0.930 . S
C2143 C2136 1.409 . S
C2143 C2142 1.362 . S
H2144 C2150 0.930 . S
H2145 C2153 0.930 . S
H2146 C2154 0.930 . S
H2147 C2155 0.930 . S
H2148 C2158 0.930 . S
H2149 C2159 0.930 . S
C2150 H2144 0.930 . S
C2150 C2151 1.355 . S
C2150 C2152 1.415 . S
C2151 C2150 1.355 . S
C2151 C2153 1.419 . S
C2152 C2150 1.415 . S
C2152 C2157 1.425 . S
C2152 C2159 1.409 . S
C2153 H2145 0.930 . S
C2153 C2151 1.419 . S
C2153 C2154 1.362 . S
C2154 H2146 0.930 . S
C2154 C2153 1.362 . S
C2154 C2157 1.409 . S
C2155 H2147 0.930 . S
C2155 C2156 1.355 . S
C2155 C2157 1.415 . S
C2156 C2155 1.355 . S
C2156 C2158 1.419 . S
C2157 C2152 1.425 . S
C2157 C2154 1.409 . S
C2157 C2155 1.415 . S
C2158 H2148 0.930 . S
C2158 C2156 1.419 . S
C2158 C2159 1.362 . S
C2159 H2149 0.930 . S
C2159 C2152 1.409 . S
C2159 C2158 1.362 . S
H2160 C2166 0.930 . S
H2161 C2169 0.930 . S
H2162 C2170 0.930 . S
H2163 C2171 0.930 . S
H2164 C2174 0.930 . S
H2165 C2175 0.930 . S
C2166 H2160 0.930 . S
C2166 C2167 1.355 . S
C2166 C2168 1.415 . S
C2167 C2166 1.355 . S
C2167 C2169 1.419 . S
C2168 C2166 1.415 . S
C2168 C2173 1.425 . S
C2168 C2175 1.409 . S
C2169 H2161 0.930 . S
C2169 C2167 1.419 . S
C2169 C2170 1.362 . S
C2170 H2162 0.930 . S
C2170 C2169 1.362 . S
C2170 C2173 1.409 . S
C2171 H2163 0.930 . S
C2171 C2172 1.355 . S
C2171 C2173 1.415 . S
C2172 C2171 1.355 . S
C2172 C2174 1.419 . S
C2173 C2168 1.425 . S
C2173 C2170 1.409 . S
C2173 C2171 1.415 . S
C2174 H2164 0.930 . S
C2174 C2172 1.419 . S
C2174 C2175 1.362 . S
C2175 H2165 0.930 . S
C2175 C2168 1.409 . S
C2175 C2174 1.362 . S
H2176 C2182 0.930 . S
H2177 C2185 0.930 . S
H2178 C2186 0.930 . S
H2179 C2187 0.930 . S
H2180 C2190 0.930 . S
H2181 C2191 0.930 . S
C2182 H2176 0.930 . S
C2182 C2183 1.355 . S
C2182 C2184 1.415 . S
C2183 C2182 1.355 . S
C2183 C2185 1.419 . S
C2184 C2182 1.415 . S
C2184 C2189 1.425 . S
C2184 C2191 1.409 . S
C2185 H2177 0.930 . S
C2185 C2183 1.419 . S
C2185 C2186 1.362 . S
C2186 H2178 0.930 . S
C2186 C2185 1.362 . S
C2186 C2189 1.409 . S
C2187 H2179 0.930 . S
C2187 C2188 1.355 . S
C2187 C2189 1.415 . S
C2188 C2187 1.355 . S
C2188 C2190 1.419 . S
C2189 C2184 1.425 . S
C2189 C2186 1.409 . S
C2189 C2187 1.415 . S
C2190 H2180 0.930 . S
C2190 C2188 1.419 . S
C2190 C2191 1.362 . S
C2191 H2181 0.930 . S
C2191 C2184 1.409 . S
C2191 C2190 1.362 . S
H2192 C2198 0.930 . S
H2193 C2201 0.930 . S
H2194 C2202 0.930 . S
H2195 C2203 0.930 . S
H2196 C2206 0.930 . S
H2197 C2207 0.930 . S
C2198 H2192 0.930 . S
C2198 C2199 1.355 . S
C2198 C2200 1.415 . S
C2199 C2198 1.355 . S
C2199 C2201 1.419 . S
C2200 C2198 1.415 . S
C2200 C2205 1.425 . S
C2200 C2207 1.409 . S
C2201 H2193 0.930 . S
C2201 C2199 1.419 . S
C2201 C2202 1.362 . S
C2202 H2194 0.930 . S
C2202 C2201 1.362 . S
C2202 C2205 1.409 . S
C2203 H2195 0.930 . S
C2203 C2204 1.355 . S
C2203 C2205 1.415 . S
C2204 C2203 1.355 . S
C2204 C2206 1.419 . S
C2205 C2200 1.425 . S
C2205 C2202 1.409 . S
C2205 C2203 1.415 . S
C2206 H2196 0.930 . S
C2206 C2204 1.419 . S
C2206 C2207 1.362 . S
C2207 H2197 0.930 . S
C2207 C2200 1.409 . S
C2207 C2206 1.362 . S
H2208 C2214 0.930 . S
H2209 C2217 0.930 . S
H2210 C2218 0.930 . S
H2211 C2219 0.930 . S
H2212 C2222 0.930 . S
H2213 C2223 0.930 . S
C2214 H2208 0.930 . S
C2214 C2215 1.355 . S
C2214 C2216 1.415 . S
C2215 C2214 1.355 . S
C2215 C2217 1.419 . S
C2216 C2214 1.415 . S
C2216 C2221 1.425 . S
C2216 C2223 1.409 . S
C2217 H2209 0.930 . S
C2217 C2215 1.419 . S
C2217 C2218 1.362 . S
C2218 H2210 0.930 . S
C2218 C2217 1.362 . S
C2218 C2221 1.409 . S
C2219 H2211 0.930 . S
C2219 C2220 1.355 . S
C2219 C2221 1.415 . S
C2220 C2219 1.355 . S
C2220 C2222 1.419 . S
C2221 C2216 1.425 . S
C2221 C2218 1.409 . S
C2221 C2219 1.415 . S
C2222 H2212 0.930 . S
C2222 C2220 1.419 . S
C2222 C2223 1.362 . S
C2223 H2213 0.930 . S
C2223 C2216 1.409 . S
C2223 C2222 1.362 . S
H2224 C2230 0.930 . S
H2225 C2233 0.930 . S
H2226 C2234 0.930 . S
H2227 C2235 0.930 . S
H2228 C2238 0.930 . S
H2229 C2239 0.930 . S
C2230 H2224 0.930 . S
C2230 C2231 1.355 . S
C2230 C2232 1.415 . S
C2231 C2230 1.355 . S
C2231 C2233 1.419 . S
C2232 C2230 1.415 . S
C2232 C2237 1.425 . S
C2232 C2239 1.409 . S
C2233 H2225 0.930 . S
C2233 C2231 1.419 . S
C2233 C2234 1.362 . S
C2234 H2226 0.930 . S
C2234 C2233 1.362 . S
C2234 C2237 1.409 . S
C2235 H2227 0.930 . S
C2235 C2236 1.355 . S
C2235 C2237 1.415 . S
C2236 C2235 1.355 . S
C2236 C2238 1.419 . S
C2237 C2232 1.425 . S
C2237 C2234 1.409 . S
C2237 C2235 1.415 . S
C2238 H2228 0.930 . S
C2238 C2236 1.419 . S
C2238 C2239 1.362 . S
C2239 H2229 0.930 . S
C2239 C2232 1.409 . S
C2239 C2238 1.362 . S
H2240 C2246 0.930 . S
H2241 C2249 0.930 . S
H2242 C2250 0.930 . S
H2243 C2251 0.930 . S
H2244 C2254 0.930 . S
H2245 C2255 0.930 . S
C2246 H2240 0.930 . S
C2246 C2247 1.355 . S
C2246 C2248 1.415 . S
C2247 C2246 1.355 . S
C2247 C2249 1.419 . S
C2248 C2246 1.415 . S
C2248 C2253 1.425 . S
C2248 C2255 1.409 . S
C2249 H2241 0.930 . S
C2249 C2247 1.419 . S
C2249 C2250 1.362 . S
C2250 H2242 0.930 . S
C2250 C2249 1.362 . S
C2250 C2253 1.409 . S
C2251 H2243 0.930 . S
C2251 C2252 1.355 . S
C2251 C2253 1.415 . S
C2252 C2251 1.355 . S
C2252 C2254 1.419 . S
C2253 C2248 1.425 . S
C2253 C2250 1.409 . S
C2253 C2251 1.415 . S
C2254 H2244 0.930 . S
C2254 C2252 1.419 . S
C2254 C2255 1.362 . S
C2255 H2245 0.930 . S
C2255 C2248 1.409 . S
C2255 C2254 1.362 . S
H2256 C2262 0.930 . S
H2257 C2265 0.930 . S
H2258 C2266 0.930 . S
H2259 C2267 0.930 . S
H2260 C2270 0.930 . S
H2261 C2271 0.930 . S
C2262 H2256 0.930 . S
C2262 C2263 1.355 . S
C2262 C2264 1.415 . S
C2263 C2262 1.355 . S
C2263 C2265 1.419 . S
C2264 C2262 1.415 . S
C2264 C2269 1.425 . S
C2264 C2271 1.409 . S
C2265 H2257 0.930 . S
C2265 C2263 1.419 . S
C2265 C2266 1.362 . S
C2266 H2258 0.930 . S
C2266 C2265 1.362 . S
C2266 C2269 1.409 . S
C2267 H2259 0.930 . S
C2267 C2268 1.355 . S
C2267 C2269 1.415 . S
C2268 C2267 1.355 . S
C2268 C2270 1.419 . S
C2269 C2264 1.425 . S
C2269 C2266 1.409 . S
C2269 C2267 1.415 . S
C2270 H2260 0.930 . S
C2270 C2268 1.419 . S
C2270 C2271 1.362 . S
C2271 H2261 0.930 . S
C2271 C2264 1.409 . S
C2271 C2270 1.362 . S
H2272 C2278 0.930 . S
H2273 C2281 0.930 . S
H2274 C2282 0.930 . S
H2275 C2283 0.930 . S
H2276 C2286 0.930 . S
H2277 C2287 0.930 . S
C2278 H2272 0.930 . S
C2278 C2279 1.355 . S
C2278 C2280 1.415 . S
C2279 C2278 1.355 . S
C2279 C2281 1.419 . S
C2280 C2278 1.415 . S
C2280 C2285 1.425 . S
C2280 C2287 1.409 . S
C2281 H2273 0.930 . S
C2281 C2279 1.419 . S
C2281 C2282 1.362 . S
C2282 H2274 0.930 . S
C2282 C2281 1.362 . S
C2282 C2285 1.409 . S
C2283 H2275 0.930 . S
C2283 C2284 1.355 . S
C2283 C2285 1.415 . S
C2284 C2283 1.355 . S
C2284 C2286 1.419 . S
C2285 C2280 1.425 . S
C2285 C2282 1.409 . S
C2285 C2283 1.415 . S
C2286 H2276 0.930 . S
C2286 C2284 1.419 . S
C2286 C2287 1.362 . S
C2287 H2277 0.930 . S
C2287 C2280 1.409 . S
C2287 C2286 1.362 . S
H2288 C2294 0.930 . S
H2289 C2297 0.930 . S
H2290 C2298 0.930 . S
H2291 C2299 0.930 . S
H2292 C2302 0.930 . S
H2293 C2303 0.930 . S
C2294 H2288 0.930 . S
C2294 C2295 1.355 . S
C2294 C2296 1.415 . S
C2295 C2294 1.355 . S
C2295 C2297 1.419 . S
C2296 C2294 1.415 . S
C2296 C2301 1.425 . S
C2296 C2303 1.409 . S
C2297 H2289 0.930 . S
C2297 C2295 1.419 . S
C2297 C2298 1.362 . S
C2298 H2290 0.930 . S
C2298 C2297 1.362 . S
C2298 C2301 1.409 . S
C2299 H2291 0.930 . S
C2299 C2300 1.355 . S
C2299 C2301 1.415 . S
C2300 C2299 1.355 . S
C2300 C2302 1.419 . S
C2301 C2296 1.425 . S
C2301 C2298 1.409 . S
C2301 C2299 1.415 . S
C2302 H2292 0.930 . S
C2302 C2300 1.419 . S
C2302 C2303 1.362 . S
C2303 H2293 0.930 . S
C2303 C2296 1.409 . S
C2303 C2302 1.362 . S
H2304 C2310 0.930 . S
H2305 C2313 0.930 . S
H2306 C2314 0.930 . S
H2307 C2315 0.930 . S
H2308 C2318 0.930 . S
H2309 C2319 0.930 . S
C2310 H2304 0.930 . S
C2310 C2311 1.355 . S
C2310 C2312 1.415 . S
C2311 C2310 1.355 . S
C2311 C2313 1.419 . S
C2312 C2310 1.415 . S
C2312 C2317 1.425 . S
C2312 C2319 1.409 . S
C2313 H2305 0.930 . S
C2313 C2311 1.419 . S
C2313 C2314 1.362 . S
C2314 H2306 0.930 . S
C2314 C2313 1.362 . S
C2314 C2317 1.409 . S
C2315 H2307 0.930 . S
C2315 C2316 1.355 . S
C2315 C2317 1.415 . S
C2316 C2315 1.355 . S
C2316 C2318 1.419 . S
C2317 C2312 1.425 . S
C2317 C2314 1.409 . S
C2317 C2315 1.415 . S
C2318 H2308 0.930 . S
C2318 C2316 1.419 . S
C2318 C2319 1.362 . S
C2319 H2309 0.930 . S
C2319 C2312 1.409 . S
C2319 C2318 1.362 . S
H2320 C2326 0.930 . S
H2321 C2329 0.930 . S
H2322 C2330 0.930 . S
H2323 C2331 0.930 . S
H2324 C2334 0.930 . S
H2325 C2335 0.930 . S
C2326 H2320 0.930 . S
C2326 C2327 1.355 . S
C2326 C2328 1.415 . S
C2327 C2326 1.355 . S
C2327 C2329 1.419 . S
C2328 C2326 1.415 . S
C2328 C2333 1.425 . S
C2328 C2335 1.409 . S
C2329 H2321 0.930 . S
C2329 C2327 1.419 . S
C2329 C2330 1.362 . S
C2330 H2322 0.930 . S
C2330 C2329 1.362 . S
C2330 C2333 1.409 . S
C2331 H2323 0.930 . S
C2331 C2332 1.355 . S
C2331 C2333 1.415 . S
C2332 C2331 1.355 . S
C2332 C2334 1.419 . S
C2333 C2328 1.425 . S
C2333 C2330 1.409 . S
C2333 C2331 1.415 . S
C2334 H2324 0.930 . S
C2334 C2332 1.419 . S
C2334 C2335 1.362 . S
C2335 H2325 0.930 . S
C2335 C2328 1.409 . S
C2335 C2334 1.362 . S
H2336 C2342 0.930 . S
H2337 C2345 0.930 . S
H2338 C2346 0.930 . S
H2339 C2347 0.930 . S
H2340 C2350 0.930 . S
H2341 C2351 0.930 . S
C2342 H2336 0.930 . S
C2342 C2343 1.355 . S
C2342 C2344 1.415 . S
C2343 C2342 1.355 . S
C2343 C2345 1.419 . S
C2344 C2342 1.415 . S
C2344 C2349 1.425 . S
C2344 C2351 1.409 . S
C2345 H2337 0.930 . S
C2345 C2343 1.419 . S
C2345 C2346 1.362 . S
C2346 H2338 0.930 . S
C2346 C2345 1.362 . S
C2346 C2349 1.409 . S
C2347 H2339 0.930 . S
C2347 C2348 1.355 . S
C2347 C2349 1.415 . S
C2348 C2347 1.355 . S
C2348 C2350 1.419 . S
C2349 C2344 1.425 . S
C2349 C2346 1.409 . S
C2349 C2347 1.415 . S
C2350 H2340 0.930 . S
C2350 C2348 1.419 . S
C2350 C2351 1.362 . S
C2351 H2341 0.930 . S
C2351 C2344 1.409 . S
C2351 C2350 1.362 . S
H2352 C2358 0.930 . S
H2353 C2361 0.930 . S
H2354 C2362 0.930 . S
H2355 C2363 0.930 . S
H2356 C2366 0.930 . S
H2357 C2367 0.930 . S
C2358 H2352 0.930 . S
C2358 C2359 1.355 . S
C2358 C2360 1.415 . S
C2359 C2358 1.355 . S
C2359 C2361 1.419 . S
C2360 C2358 1.415 . S
C2360 C2365 1.425 . S
C2360 C2367 1.409 . S
C2361 H2353 0.930 . S
C2361 C2359 1.419 . S
C2361 C2362 1.362 . S
C2362 H2354 0.930 . S
C2362 C2361 1.362 . S
C2362 C2365 1.409 . S
C2363 H2355 0.930 . S
C2363 C2364 1.355 . S
C2363 C2365 1.415 . S
C2364 C2363 1.355 . S
C2364 C2366 1.419 . S
C2365 C2360 1.425 . S
C2365 C2362 1.409 . S
C2365 C2363 1.415 . S
C2366 H2356 0.930 . S
C2366 C2364 1.419 . S
C2366 C2367 1.362 . S
C2367 H2357 0.930 . S
C2367 C2360 1.409 . S
C2367 C2366 1.362 . S
C1095 C20 1.214 . S
C1100 C836 1.214 . S
C1111 C326 1.211 . S
C1116 C54 1.211 . S
C1127 C904 1.207 . S
C1132 C88 1.207 . S
C1143 C394 1.214 . S
C1148 C122 1.214 . S
C1159 C972 1.205 . S
C1164 C156 1.205 . S
C1175 C462 1.205 . S
C1180 C190 1.205 . S
C1191 C1040 1.205 . S
C1196 C224 1.205 . S
C1207 C530 1.214 . S
C1212 C258 1.214 . S
C1223 C292 1.206 . S
C1228 C564 1.206 . S
C1239 C360 1.214 . S
C1244 C632 1.214 . S
C1255 C428 1.205 . S
C1260 C700 1.205 . S
C1271 C768 1.214 . S
C1276 C496 1.214 . S
C1287 C598 1.206 . S
C1292 C870 1.206 . S
C1303 C938 1.209 . S
C1308 C666 1.209 . S
C1319 C734 1.213 . S
C1324 C1006 1.213 . S
C1335 C1074 1.212 . S
C1340 C802 1.212 . S
C1351 C5 1.712 . S
C1356 C407 1.691 . S
C1367 C39 1.710 . S
C1372 C849 1.690 . S
C1383 C339 1.708 . S
C1388 C73 1.715 . S
C1399 C107 1.710 . S
C1404 C917 1.690 . S
C1415 C475 1.707 . S
C1420 C141 1.695 . S
C1431 C1053 1.710 . S
C1436 C175 1.695 . S
C1447 C209 1.701 . S
C1452 C543 1.715 . S
C1463 C985 1.691 . S
C1468 C243 1.701 . S
C1479 C277 1.716 . S
C1484 C135 1.697 . S
C1495 C311 1.696 . S
C1500 C577 1.710 . S
C1511 C67 1.715 . S
C1516 C345 1.705 . S
C1527 C379 1.695 . S
C1532 C645 1.708 . S
C1543 C413 1.697 . S
C1548 C203 1.695 . S
C1559 C781 1.690 . S
C1564 C447 1.709 . S
C1575 C271 1.690 . S
C1580 C481 1.708 . S
C1591 C515 1.694 . S
C1596 C713 1.702 . S
C1607 C951 1.693 . S
C1612 C549 1.714 . S
C1623 C305 1.708 . S
C1628 C583 1.695 . S
C1639 C883 1.705 . S
C1644 C617 1.694 . S
C1655 C651 1.699 . S
C1660 C373 1.714 . S
C1671 C1019 1.692 . S
C1676 C685 1.713 . S
C1687 C509 1.690 . S
C1692 C719 1.711 . S
C1703 C753 1.710 . S
C1708 C1087 1.714 . S
C1719 C441 1.711 . S
C1724 C787 1.696 . S
C1735 C679 1.701 . S
C1740 C821 1.694 . S
C1751 C855 1.715 . S
C1756 C33 1.696 . S
C1767 C889 1.695 . S
C1772 C611 1.699 . S
C1783 C101 1.692 . S
C1788 C923 1.713 . S
C1799 C747 1.713 . S
C1804 C957 1.711 . S
C1815 C991 1.708 . S
C1820 C237 1.690 . S
C1831 C815 1.691 . S
C1836 C1025 1.711 . S
C1847 C169 1.712 . S
C1852 C1059 1.697 . S
C1863 C2 1.887 . S
C1868 C206 1.887 . S
C1879 C240 1.904 . S
C1884 C36 1.901 . S
C1895 C70 1.892 . S
C1900 C138 1.896 . S
C1911 C104 1.903 . S
C1916 C172 1.905 . S
C1927 C478 1.888 . S
C1932 C274 1.891 . S
C1943 C512 1.900 . S
C1948 C308 1.903 . S
C1959 C410 1.900 . S
C1964 C342 1.903 . S
C1975 C444 1.903 . S
C1980 C376 1.905 . S
C1991 C546 1.904 . S
C1996 C750 1.905 . S
C2007 C580 1.903 . S
C2012 C784 1.905 . S
C2023 C614 1.904 . S
C2028 C682 1.905 . S
C2039 C648 1.902 . S
C2044 C716 1.904 . S
C2055 C1022 1.901 . S
C2060 C818 1.904 . S
C2071 C1056 1.901 . S
C2076 C852 1.897 . S
C2087 C886 1.905 . S
C2092 C954 1.903 . S
C2103 C920 1.892 . S
C2108 C988 1.889 . S
C2119 C9 1.132 . S
C2124 C723 1.207 . S
C2135 C43 1.204 . S
C2140 C757 1.136 . S
C2151 C77 1.122 . S
C2156 C791 1.194 . S
C2167 C111 1.209 . S
C2172 C689 1.120 . S
C2183 C655 1.195 . S
C2188 C145 1.122 . S
C2199 C179 1.209 . S
C2204 C553 1.120 . S
C2215 C587 1.201 . S
C2220 C213 1.119 . S
C2231 C247 1.126 . S
C2236 C621 1.209 . S
C2247 C995 1.122 . S
C2252 C281 1.195 . S
C2263 C315 1.209 . S
C2268 C1029 1.127 . S
C2279 C1063 1.119 . S
C2284 C349 1.200 . S
C2295 C383 1.187 . S
C2300 C961 1.126 . S
C2311 C417 1.206 . S
C2316 C927 1.118 . S
C2327 C825 1.119 . S
C2332 C451 1.209 . S
C2343 C485 1.209 . S
C2348 C859 1.123 . S
C2359 C519 1.201 . S
C2364 C893 1.119 . S
