# Generated by pormake.
# Topology wlt, (5)-cn, num edge types: 1
# Building blocks:
#     Node 0, Type 0, BuildingBlock: XOMCOT_clean_sbu_1, # of connection points: 5
#     Node 1, Type 0, BuildingBlock: XOMCOT_clean_sbu_1, # of connection points: 5
#     Node 2, Type 0, BuildingBlock: XOMCOT_clean_sbu_1, # of connection points: 5
#     Node 3, Type 0, BuildingBlock: XOMCOT_clean_sbu_1, # of connection points: 5
#     Node 4, Type 0, BuildingBlock: XOMCOT_clean_sbu_1, # of connection points: 5
#     Node 5, Type 0, BuildingBlock: XOMCOT_clean_sbu_1, # of connection points: 5
#     Node 6, Type 0, BuildingBlock: XOMCOT_clean_sbu_1, # of connection points: 5
#     Node 7, Type 0, BuildingBlock: XOMCOT_clean_sbu_1, # of connection points: 5
#     Node 8, Type 0, BuildingBlock: XOMCOT_clean_sbu_1, # of connection points: 5
#     Node 9, Type 0, BuildingBlock: XOMCOT_clean_sbu_1, # of connection points: 5
#     Node 10, Type 0, BuildingBlock: XOMCOT_clean_sbu_1, # of connection points: 5
#     Node 11, Type 0, BuildingBlock: XOMCOT_clean_sbu_1, # of connection points: 5
#     Node 12, Type 0, BuildingBlock: XOMCOT_clean_sbu_1, # of connection points: 5
#     Node 13, Type 0, BuildingBlock: XOMCOT_clean_sbu_1, # of connection points: 5
#     Node 14, Type 0, BuildingBlock: XOMCOT_clean_sbu_1, # of connection points: 5
#     Node 15, Type 0, BuildingBlock: XOMCOT_clean_sbu_1, # of connection points: 5
#     Node 16, Type 0, BuildingBlock: XOMCOT_clean_sbu_1, # of connection points: 5
#     Node 17, Type 0, BuildingBlock: XOMCOT_clean_sbu_1, # of connection points: 5
#     Node 18, Type 0, BuildingBlock: XOMCOT_clean_sbu_1, # of connection points: 5
#     Node 19, Type 0, BuildingBlock: XOMCOT_clean_sbu_1, # of connection points: 5
#     Node 20, Type 0, BuildingBlock: XOMCOT_clean_sbu_1, # of connection points: 5
#     Node 21, Type 0, BuildingBlock: XOMCOT_clean_sbu_1, # of connection points: 5
#     Node 22, Type 0, BuildingBlock: XOMCOT_clean_sbu_1, # of connection points: 5
#     Node 23, Type 0, BuildingBlock: XOMCOT_clean_sbu_1, # of connection points: 5
#     Node 24, Type 0, BuildingBlock: XOMCOT_clean_sbu_1, # of connection points: 5
#     Node 25, Type 0, BuildingBlock: XOMCOT_clean_sbu_1, # of connection points: 5
#     Node 26, Type 0, BuildingBlock: XOMCOT_clean_sbu_1, # of connection points: 5
#     Node 27, Type 0, BuildingBlock: XOMCOT_clean_sbu_1, # of connection points: 5
#     Node 28, Type 0, BuildingBlock: XOMCOT_clean_sbu_1, # of connection points: 5
#     Node 29, Type 0, BuildingBlock: XOMCOT_clean_sbu_1, # of connection points: 5
#     Node 30, Type 0, BuildingBlock: XOMCOT_clean_sbu_1, # of connection points: 5
#     Node 31, Type 0, BuildingBlock: XOMCOT_clean_sbu_1, # of connection points: 5
#     Node 32, Type 0, BuildingBlock: XOMCOT_clean_sbu_1, # of connection points: 5
#     Node 33, Type 0, BuildingBlock: XOMCOT_clean_sbu_1, # of connection points: 5
#     Node 34, Type 0, BuildingBlock: XOMCOT_clean_sbu_1, # of connection points: 5
#     Node 35, Type 0, BuildingBlock: XOMCOT_clean_sbu_1, # of connection points: 5
#     Edge 36, Type (0, 0), BuildingBlock: UVAHIK_clean_linker_0, # of connection points: 2
#     Edge 37, Type (0, 0), BuildingBlock: UVAHIK_clean_linker_0, # of connection points: 2
#     Edge 38, Type (0, 0), BuildingBlock: UVAHIK_clean_linker_0, # of connection points: 2
#     Edge 39, Type (0, 0), BuildingBlock: UVAHIK_clean_linker_0, # of connection points: 2
#     Edge 40, Type (0, 0), BuildingBlock: UVAHIK_clean_linker_0, # of connection points: 2
#     Edge 41, Type (0, 0), BuildingBlock: UVAHIK_clean_linker_0, # of connection points: 2
#     Edge 42, Type (0, 0), BuildingBlock: UVAHIK_clean_linker_0, # of connection points: 2
#     Edge 43, Type (0, 0), BuildingBlock: UVAHIK_clean_linker_0, # of connection points: 2
#     Edge 44, Type (0, 0), BuildingBlock: UVAHIK_clean_linker_0, # of connection points: 2
#     Edge 45, Type (0, 0), BuildingBlock: UVAHIK_clean_linker_0, # of connection points: 2
#     Edge 46, Type (0, 0), BuildingBlock: UVAHIK_clean_linker_0, # of connection points: 2
#     Edge 47, Type (0, 0), BuildingBlock: UVAHIK_clean_linker_0, # of connection points: 2
#     Edge 48, Type (0, 0), BuildingBlock: UVAHIK_clean_linker_0, # of connection points: 2
#     Edge 49, Type (0, 0), BuildingBlock: UVAHIK_clean_linker_0, # of connection points: 2
#     Edge 50, Type (0, 0), BuildingBlock: UVAHIK_clean_linker_0, # of connection points: 2
#     Edge 51, Type (0, 0), BuildingBlock: UVAHIK_clean_linker_0, # of connection points: 2
#     Edge 52, Type (0, 0), BuildingBlock: UVAHIK_clean_linker_0, # of connection points: 2
#     Edge 53, Type (0, 0), BuildingBlock: UVAHIK_clean_linker_0, # of connection points: 2
#     Edge 54, Type (0, 0), BuildingBlock: UVAHIK_clean_linker_0, # of connection points: 2
#     Edge 55, Type (0, 0), BuildingBlock: UVAHIK_clean_linker_0, # of connection points: 2
#     Edge 56, Type (0, 0), BuildingBlock: UVAHIK_clean_linker_0, # of connection points: 2
#     Edge 57, Type (0, 0), BuildingBlock: UVAHIK_clean_linker_0, # of connection points: 2
#     Edge 58, Type (0, 0), BuildingBlock: UVAHIK_clean_linker_0, # of connection points: 2
#     Edge 59, Type (0, 0), BuildingBlock: UVAHIK_clean_linker_0, # of connection points: 2
#     Edge 60, Type (0, 0), BuildingBlock: UVAHIK_clean_linker_0, # of connection points: 2
#     Edge 61, Type (0, 0), BuildingBlock: UVAHIK_clean_linker_0, # of connection points: 2
#     Edge 62, Type (0, 0), BuildingBlock: UVAHIK_clean_linker_0, # of connection points: 2
#     Edge 63, Type (0, 0), BuildingBlock: UVAHIK_clean_linker_0, # of connection points: 2
#     Edge 64, Type (0, 0), BuildingBlock: UVAHIK_clean_linker_0, # of connection points: 2
#     Edge 65, Type (0, 0), BuildingBlock: UVAHIK_clean_linker_0, # of connection points: 2
#     Edge 66, Type (0, 0), BuildingBlock: UVAHIK_clean_linker_0, # of connection points: 2
#     Edge 67, Type (0, 0), BuildingBlock: UVAHIK_clean_linker_0, # of connection points: 2
#     Edge 68, Type (0, 0), BuildingBlock: UVAHIK_clean_linker_0, # of connection points: 2
#     Edge 69, Type (0, 0), BuildingBlock: UVAHIK_clean_linker_0, # of connection points: 2
#     Edge 70, Type (0, 0), BuildingBlock: UVAHIK_clean_linker_0, # of connection points: 2
#     Edge 71, Type (0, 0), BuildingBlock: UVAHIK_clean_linker_0, # of connection points: 2
#     Edge 72, Type (0, 0), BuildingBlock: UVAHIK_clean_linker_0, # of connection points: 2
#     Edge 73, Type (0, 0), BuildingBlock: UVAHIK_clean_linker_0, # of connection points: 2
#     Edge 74, Type (0, 0), BuildingBlock: UVAHIK_clean_linker_0, # of connection points: 2
#     Edge 75, Type (0, 0), BuildingBlock: UVAHIK_clean_linker_0, # of connection points: 2
#     Edge 76, Type (0, 0), BuildingBlock: UVAHIK_clean_linker_0, # of connection points: 2
#     Edge 77, Type (0, 0), BuildingBlock: UVAHIK_clean_linker_0, # of connection points: 2
#     Edge 78, Type (0, 0), BuildingBlock: UVAHIK_clean_linker_0, # of connection points: 2
#     Edge 79, Type (0, 0), BuildingBlock: UVAHIK_clean_linker_0, # of connection points: 2
#     Edge 80, Type (0, 0), BuildingBlock: UVAHIK_clean_linker_0, # of connection points: 2
#     Edge 81, Type (0, 0), BuildingBlock: UVAHIK_clean_linker_0, # of connection points: 2
#     Edge 82, Type (0, 0), BuildingBlock: UVAHIK_clean_linker_0, # of connection points: 2
#     Edge 83, Type (0, 0), BuildingBlock: UVAHIK_clean_linker_0, # of connection points: 2
#     Edge 84, Type (0, 0), BuildingBlock: UVAHIK_clean_linker_0, # of connection points: 2
#     Edge 85, Type (0, 0), BuildingBlock: UVAHIK_clean_linker_0, # of connection points: 2
#     Edge 86, Type (0, 0), BuildingBlock: UVAHIK_clean_linker_0, # of connection points: 2
#     Edge 87, Type (0, 0), BuildingBlock: UVAHIK_clean_linker_0, # of connection points: 2
#     Edge 88, Type (0, 0), BuildingBlock: UVAHIK_clean_linker_0, # of connection points: 2
#     Edge 89, Type (0, 0), BuildingBlock: UVAHIK_clean_linker_0, # of connection points: 2
#     Edge 90, Type (0, 0), BuildingBlock: UVAHIK_clean_linker_0, # of connection points: 2
#     Edge 91, Type (0, 0), BuildingBlock: UVAHIK_clean_linker_0, # of connection points: 2
#     Edge 92, Type (0, 0), BuildingBlock: UVAHIK_clean_linker_0, # of connection points: 2
#     Edge 93, Type (0, 0), BuildingBlock: UVAHIK_clean_linker_0, # of connection points: 2
#     Edge 94, Type (0, 0), BuildingBlock: UVAHIK_clean_linker_0, # of connection points: 2
#     Edge 95, Type (0, 0), BuildingBlock: UVAHIK_clean_linker_0, # of connection points: 2
#     Edge 96, Type (0, 0), BuildingBlock: UVAHIK_clean_linker_0, # of connection points: 2
#     Edge 97, Type (0, 0), BuildingBlock: UVAHIK_clean_linker_0, # of connection points: 2
#     Edge 98, Type (0, 0), BuildingBlock: UVAHIK_clean_linker_0, # of connection points: 2
#     Edge 99, Type (0, 0), BuildingBlock: UVAHIK_clean_linker_0, # of connection points: 2
#     Edge 100, Type (0, 0), BuildingBlock: UVAHIK_clean_linker_0, # of connection points: 2
#     Edge 101, Type (0, 0), BuildingBlock: UVAHIK_clean_linker_0, # of connection points: 2
#     Edge 102, Type (0, 0), BuildingBlock: UVAHIK_clean_linker_0, # of connection points: 2
#     Edge 103, Type (0, 0), BuildingBlock: UVAHIK_clean_linker_0, # of connection points: 2
#     Edge 104, Type (0, 0), BuildingBlock: UVAHIK_clean_linker_0, # of connection points: 2
#     Edge 105, Type (0, 0), BuildingBlock: UVAHIK_clean_linker_0, # of connection points: 2
#     Edge 106, Type (0, 0), BuildingBlock: UVAHIK_clean_linker_0, # of connection points: 2
#     Edge 107, Type (0, 0), BuildingBlock: UVAHIK_clean_linker_0, # of connection points: 2
#     Edge 108, Type (0, 0), BuildingBlock: UVAHIK_clean_linker_0, # of connection points: 2
#     Edge 109, Type (0, 0), BuildingBlock: UVAHIK_clean_linker_0, # of connection points: 2
#     Edge 110, Type (0, 0), BuildingBlock: UVAHIK_clean_linker_0, # of connection points: 2
#     Edge 111, Type (0, 0), BuildingBlock: UVAHIK_clean_linker_0, # of connection points: 2
#     Edge 112, Type (0, 0), BuildingBlock: UVAHIK_clean_linker_0, # of connection points: 2
#     Edge 113, Type (0, 0), BuildingBlock: UVAHIK_clean_linker_0, # of connection points: 2
#     Edge 114, Type (0, 0), BuildingBlock: UVAHIK_clean_linker_0, # of connection points: 2
#     Edge 115, Type (0, 0), BuildingBlock: UVAHIK_clean_linker_0, # of connection points: 2
#     Edge 116, Type (0, 0), BuildingBlock: UVAHIK_clean_linker_0, # of connection points: 2
#     Edge 117, Type (0, 0), BuildingBlock: UVAHIK_clean_linker_0, # of connection points: 2
#     Edge 118, Type (0, 0), BuildingBlock: UVAHIK_clean_linker_0, # of connection points: 2
#     Edge 119, Type (0, 0), BuildingBlock: UVAHIK_clean_linker_0, # of connection points: 2
#     Edge 120, Type (0, 0), BuildingBlock: UVAHIK_clean_linker_0, # of connection points: 2
#     Edge 121, Type (0, 0), BuildingBlock: UVAHIK_clean_linker_0, # of connection points: 2
#     Edge 122, Type (0, 0), BuildingBlock: UVAHIK_clean_linker_0, # of connection points: 2
#     Edge 123, Type (0, 0), BuildingBlock: UVAHIK_clean_linker_0, # of connection points: 2
#     Edge 124, Type (0, 0), BuildingBlock: UVAHIK_clean_linker_0, # of connection points: 2
#     Edge 125, Type (0, 0), BuildingBlock: UVAHIK_clean_linker_0, # of connection points: 2
# Relax obj value: 0.179
# Max RMSD: 0.189
# Mean RMSD: 0.189
data_MOF--net-wlt--node1-XOMCOT_clean_sbu_1--edge1-UVAHIK_clean_linker_0
_symmetry_space_group_name_H-M    P1
_symmetry_Int_Tables_number       1
_symmetry_cell_setting            triclinic
loop_
_symmetry_equiv_pos_as_xyz
'x, y, z'
_cell_length_a     82.657685
_cell_length_b     82.703291
_cell_length_c     62.360721
_cell_angle_alpha  89.991531
_cell_angle_beta   89.933686
_cell_angle_gamma 120.01209
loop_
_atom_site_label
_atom_site_type_symbol
_atom_site_fract_x
_atom_site_fract_y
_atom_site_fract_z
_atom_type_partial_charge
C0 C 0.2106 0.18526 0.05697 0.0
C1 C 0.19711 0.18997 0.05366 0.0
N2 N 0.2054 0.20758 0.04616 0.0
N3 N 0.22743 0.19976 0.05158 0.0
C4 C 0.22383 0.21323 0.04485 0.0
H5 H 0.20838 0.17228 0.06379 0.0
Co6 Co 0.24908 0.19895 0.05757 0.0
C7 C 0.28038 0.23783 0.06108 0.0
O8 O 0.28731 0.23189 0.07603 0.0
N9 N 0.27065 0.19708 0.06356 0.0
C10 C 0.29834 0.19901 0.05894 0.0
C11 C 0.28486 0.20176 0.04959 0.0
C12 C 0.27584 0.19121 0.0812 0.0
N13 N 0.29265 0.1924 0.07889 0.0
O14 O 0.25075 0.19284 0.02825 0.0
H15 H 0.28569 0.2074 0.03372 0.0
H16 H 0.26796 0.18675 0.09588 0.0
O17 O 0.26497 0.22626 0.05184 0.0
C18 C 0.24072 0.17533 0.02505 0.0
O19 O 0.23012 0.16469 0.04072 0.0
N20 N 0.24599 0.20324 0.08639 0.0
C21 C 0.23766 0.20561 0.12907 0.0
C22 C 0.24411 0.22112 0.11551 0.0
C23 C 0.24773 0.21951 0.09407 0.0
C24 C 0.23805 0.1876 0.09886 0.0
C25 C 0.23415 0.18853 0.12044 0.0
H26 H 0.25125 0.23121 0.08369 0.0
H27 H 0.23504 0.17436 0.09202 0.0
H28 H 0.23451 0.22712 0.04011 0.0
H29 H 0.18232 0.18119 0.05682 0.0
H30 H 0.31136 0.20177 0.05162 0.0
H31 H 0.24593 0.23428 0.12129 0.0
H32 H 0.22869 0.17609 0.13027 0.0
C33 C 0.83486 0.03384 0.0449 0.0
C34 C 0.83321 0.01693 0.03995 0.0
N35 N 0.81522 1.00352 0.04251 0.0
N36 N 0.818 0.03131 0.05041 0.0
C37 C 0.80621 0.01266 0.0487 0.0
H38 H 0.84769 0.04715 0.04499 0.0
Co39 Co 0.81524 0.05096 0.06047 0.0
C40 C 0.77494 0.03879 0.06081 0.0
O41 O 0.77802 0.04872 0.07832 0.0
N42 N 0.81336 0.0717 0.07045 0.0
C43 C 0.80902 0.09621 0.06973 0.0
C44 C 0.80753 0.08135 0.05828 0.0
C45 C 0.81863 0.0813 0.08916 0.0
N46 N 0.81602 0.09618 0.08919 0.0
O47 O 0.82338 0.06316 0.03299 0.0
H48 H 0.80255 0.07782 0.04197 0.0
H49 H 0.82435 0.07762 0.10258 0.0
O50 O 0.78841 0.03782 0.05174 0.0
C51 C 0.84002 0.07685 0.03501 0.0
O52 O 0.84809 0.08 0.05389 0.0
N53 N 0.80959 0.03973 0.08761 0.0
C54 C 0.80687 0.02636 0.12916 0.0
C55 C 0.79156 0.01793 0.11523 0.0
C56 C 0.79333 0.02456 0.09431 0.0
C57 C 0.82503 0.04694 0.10033 0.0
C58 C 0.82393 0.04072 0.12133 0.0
H59 H 0.78167 0.01718 0.08365 0.0
H60 H 0.83819 0.05806 0.09427 0.0
H61 H 0.79152 1.00586 0.05269 0.0
H62 H 0.84452 0.01473 0.035 0.0
H63 H 0.80563 0.10649 0.06392 0.0
H64 H 0.77837 1.00621 0.1204 0.0
H65 H 0.83619 0.04745 0.13146 0.0
C66 C 0.98951 0.80661 0.05115 0.0
C67 C 1.00703 0.82154 0.0476 0.0
N68 N 0.01916 0.81519 0.04641 0.0
N69 N 0.99048 0.79085 0.05218 0.0
C70 C 1.00876 0.79647 0.04908 0.0
H71 H 0.97693 0.8073 0.05371 0.0
Co72 Co 0.96998 0.76843 0.06061 0.0
C73 C 0.98125 0.73976 0.06249 0.0
O74 O 0.97047 0.73313 0.07946 0.0
N75 N 0.94836 0.74586 0.069 0.0
C76 C 0.9236 0.71723 0.06657 0.0
C77 C 0.93934 0.73063 0.0563 0.0
C78 C 0.93748 0.74141 0.08674 0.0
N79 N 0.92244 0.72407 0.08573 0.0
O80 O 0.95926 0.7653 0.03245 0.0
H81 H 0.94391 0.72937 0.04045 0.0
H82 H 0.94033 0.75058 0.10022 0.0
O83 O 0.98299 0.75434 0.05293 0.0
C84 C 0.94643 0.76953 0.03427 0.0
O85 O 0.94419 0.77557 0.05293 0.0
N86 N 0.97972 0.7731 0.08845 0.0
C87 C 0.99145 0.78287 0.13061 0.0
C88 C 1.00057 0.7765 0.117 0.0
C89 C 0.99482 0.77216 0.09574 0.0
C90 C 0.97191 0.78091 0.10091 0.0
C91 C 0.97728 0.78556 0.12219 0.0
H92 H 1.00282 0.76846 0.08527 0.0
H93 H 0.96107 0.78314 0.09433 0.0
H94 H 0.0145 0.78726 0.04991 0.0
H95 H 1.01064 0.83602 0.04635 0.0
H96 H 0.91356 0.7037 0.0602 0.0
H97 H 0.01222 0.77513 0.12267 0.0
H98 H 0.97011 0.7908 0.13205 0.0
C99 C 0.18944 0.20966 0.42674 0.0
C100 C 0.19179 0.19461 0.43046 0.0
N101 N 0.21002 0.20096 0.43437 0.0
N102 N 0.20606 0.22549 0.42827 0.0
C103 C 0.21841 0.2198 0.43309 0.0
H104 H 0.17649 0.2091 0.42253 0.0
Co105 Co 0.20835 0.24838 0.42133 0.0
C106 C 0.24836 0.27658 0.4201 0.0
O107 O 0.24447 0.28395 0.40365 0.0
N108 N 0.2097 0.27148 0.41447 0.0
C109 C 0.21309 0.29971 0.41962 0.0
C110 C 0.21567 0.28593 0.42837 0.0
C111 C 0.20351 0.27695 0.39735 0.0
N112 N 0.20547 0.29403 0.40009 0.0
O113 O 0.20081 0.25039 0.44987 0.0
H114 H 0.22131 0.2863 0.44412 0.0
H115 H 0.19691 0.26845 0.38345 0.0
O116 O 0.23532 0.26184 0.42917 0.0
C117 C 0.18378 0.24634 0.44866 0.0
O118 O 0.17535 0.24141 0.42997 0.0
N119 N 0.21356 0.24479 0.39316 0.0
C120 C 0.21562 0.23503 0.35102 0.0
C121 C 0.23077 0.24052 0.36494 0.0
C122 C 0.22928 0.24487 0.38617 0.0
C123 C 0.19826 0.23808 0.38028 0.0
C124 C 0.19906 0.23348 0.35899 0.0
H125 H 0.24055 0.24764 0.39694 0.0
H126 H 0.18529 0.23632 0.38665 0.0
H127 H 0.23329 0.22914 0.43474 0.0
H128 H 0.18092 0.18008 0.43018 0.0
H129 H 0.21639 0.31282 0.4271 0.0
H130 H 0.24347 0.24097 0.35963 0.0
H131 H 0.1869 0.22891 0.34887 0.0
C132 C 0.80667 0.98244 0.4362 0.0
C133 C 0.82148 0.99992 0.44009 0.0
N134 N 0.81543 0.01231 0.43897 0.0
N135 N 0.79121 0.9836 0.43278 0.0
C136 C 0.79692 1.002 0.43469 0.0
H137 H 0.80726 0.9697 0.43535 0.0
Co138 Co 0.76891 0.96279 0.4245 0.0
C139 C 0.74037 0.97401 0.41993 0.0
O140 O 0.734 0.96259 0.40349 0.0
N141 N 0.74649 0.94084 0.41651 0.0
C142 C 0.71782 0.91621 0.41962 0.0
C143 C 0.73109 0.93245 0.42909 0.0
C144 C 0.74223 0.9291 0.39962 0.0
N145 N 0.72485 0.91411 0.40105 0.0
O146 O 0.76517 0.95321 0.45324 0.0
H147 H 0.72959 0.93785 0.4443 0.0
H148 H 0.75175 0.93098 0.38679 0.0
O149 O 0.7547 0.976 0.43028 0.0
C150 C 0.76985 0.94067 0.4537 0.0
O151 O 0.77626 0.93714 0.4361 0.0
N152 N 0.77404 0.97162 0.39617 0.0
C153 C 0.78381 0.9824 0.35366 0.0
C154 C 0.77796 0.99214 0.36698 0.0
C155 C 0.77358 0.98683 0.38834 0.0
C156 C 0.78147 0.96324 0.38403 0.0
C157 C 0.78608 0.96811 0.36256 0.0
H158 H 0.77021 0.99527 0.39847 0.0
H159 H 0.78351 0.95242 0.39103 0.0
H160 H 0.78792 0.00782 0.43213 0.0
H161 H 0.83567 1.00323 0.44334 0.0
H162 H 0.70403 0.90676 0.4259 0.0
H163 H 0.77702 1.00395 0.36102 0.0
H164 H 0.791 0.96052 0.35297 0.0
C165 C 0.03917 0.83063 0.43443 0.0
C166 C 0.02247 0.82918 0.43994 0.0
N167 N 1.00971 0.81096 0.44267 0.0
N168 N 0.0372 0.81349 0.43363 0.0
C169 C 0.01906 0.80168 0.43868 0.0
H170 H 0.05189 0.84339 0.43048 0.0
Co171 Co 0.05699 0.81075 0.4244 0.0
C172 C 0.0442 0.77062 0.42117 0.0
O173 O 0.05436 0.77468 0.40366 0.0
N174 N 0.07806 0.80911 0.41526 0.0
C175 C 0.10226 0.80425 0.41688 0.0
C176 C 0.08647 0.80176 0.4272 0.0
C177 C 0.08938 0.8164 0.39797 0.0
N178 N 0.10409 0.81353 0.39849 0.0
O179 O 0.06789 0.81736 0.45246 0.0
H180 H 0.08154 0.79517 0.44267 0.0
H181 H 0.08721 0.82392 0.38528 0.0
O182 O 0.04334 0.78359 0.43156 0.0
C183 C 0.08096 0.83438 0.45208 0.0
O184 O 0.08449 0.8438 0.43407 0.0
N185 N 0.04678 0.80626 0.39674 0.0
C186 C 0.03369 0.80416 0.35518 0.0
C187 C 0.02417 0.78924 0.36946 0.0
C188 C 0.03065 0.79077 0.39039 0.0
C189 C 0.055 0.82155 0.38376 0.0
C190 C 0.04898 0.82071 0.36272 0.0
H191 H 0.02238 0.77961 0.40141 0.0
H192 H 0.06649 0.83447 0.38978 0.0
H193 H 0.01279 0.78665 0.43902 0.0
H194 H 0.01983 0.84071 0.44095 0.0
H195 H 0.11194 0.8001 0.42281 0.0
H196 H 1.01167 0.77659 0.36457 0.0
H197 H 0.05643 0.83276 0.35238 0.0
C198 C 0.81312 0.82792 0.92042 0.0
C199 C 0.82708 0.82378 0.92315 0.0
N200 N 0.81961 0.80659 0.93177 0.0
N201 N 0.7968 0.8135 0.9273 0.0
C202 C 0.80118 0.80065 0.93431 0.0
H203 H 0.81466 0.8405 0.91319 0.0
Co204 Co 0.77466 0.81384 0.92316 0.0
C205 C 0.74385 0.77483 0.92072 0.0
O206 O 0.73655 0.78057 0.90594 0.0
N207 N 0.75262 0.81526 0.91919 0.0
C208 C 0.725 0.81281 0.92631 0.0
C209 C 0.73869 0.80946 0.93381 0.0
C210 C 0.74714 0.8225 0.90315 0.0
N211 N 0.73038 0.82104 0.907 0.0
O212 O 0.77448 0.82036 0.95267 0.0
H213 H 0.73838 0.80294 0.94896 0.0
H214 H 0.75496 0.82854 0.88869 0.0
O215 O 0.7594 0.78658 0.92956 0.0
C216 C 0.78451 0.83795 0.95529 0.0
O217 O 0.79424 0.8483 0.93898 0.0
N218 N 0.77622 0.80913 0.89396 0.0
C219 C 0.78298 0.80632 0.85075 0.0
C220 C 0.77762 0.79115 0.86461 0.0
C221 C 0.77482 0.79301 0.88627 0.0
C222 C 0.78295 0.82447 0.88106 0.0
C223 C 0.78602 0.82329 0.85927 0.0
H224 H 0.77232 0.78167 0.89681 0.0
H225 H 0.78608 0.83777 0.88782 0.0
H226 H 0.79103 0.787 0.94034 0.0
H227 H 0.84164 0.83274 0.91901 0.0
H228 H 0.7122 0.80959 0.93454 0.0
H229 H 0.77622 0.77814 0.85891 0.0
H230 H 0.79071 0.83552 0.84922 0.0
C231 C 0.1912 0.98052 0.93655 0.0
C232 C 0.19316 0.9977 0.94058 0.0
N233 N 0.21136 0.01073 0.93866 0.0
N234 N 0.20805 0.98251 0.93225 0.0
C235 C 0.22017 1.0011 0.93376 0.0
H236 H 0.17819 0.96739 0.93632 0.0
Co237 Co 0.2103 0.96216 0.92393 0.0
C238 C 0.2503 0.97418 0.92061 0.0
O239 O 0.24587 0.96319 0.90381 0.0
N240 N 0.21159 0.94064 0.91588 0.0
C241 C 0.21615 0.91636 0.91894 0.0
C242 C 0.21868 0.9324 0.92853 0.0
C243 C 0.20445 0.92899 0.89888 0.0
N244 N 0.20716 0.91421 0.90028 0.0
O245 O 0.20372 0.95213 0.95252 0.0
H246 H 0.22515 0.93766 0.94396 0.0
H247 H 0.1972 0.93102 0.88575 0.0
O248 O 0.23758 0.97581 0.93062 0.0
C249 C 0.18691 0.93859 0.95196 0.0
O250 O 0.17783 0.93454 0.93367 0.0
N251 N 0.21453 0.97133 0.89572 0.0
C252 C 0.21586 0.98209 0.85317 0.0
C253 C 0.23135 0.99188 0.8666 0.0
C254 C 0.23024 0.98658 0.888 0.0
C255 C 0.19883 0.96287 0.88343 0.0
C256 C 0.19924 0.96775 0.86196 0.0
H257 H 0.24196 0.99504 0.89822 0.0
H258 H 0.18595 0.95194 0.8903 0.0
H259 H 0.23498 1.0075 0.93059 0.0
H260 H 0.18194 1.00034 0.94454 0.0
H261 H 0.22014 0.90674 0.92553 0.0
H262 H 0.24414 1.00368 0.86067 0.0
H263 H 0.18682 0.9601 0.85226 0.0
C264 C 0.0388 0.20956 0.92845 0.0
C265 C 0.0219 0.19442 0.93392 0.0
N266 N 1.0097 0.20039 0.93769 0.0
N267 N 0.03736 0.22507 0.92873 0.0
C268 C 0.01948 0.2191 0.93468 0.0
H269 H 0.05119 0.20921 0.92366 0.0
Co270 Co 0.05657 0.24764 0.9184 0.0
C271 C 0.04278 0.27398 0.91564 0.0
O272 O 0.05139 0.27891 0.89705 0.0
N273 N 0.07695 0.27062 0.90818 0.0
C274 C 0.10026 0.30017 0.90915 0.0
C275 C 0.08532 0.28636 0.92014 0.0
C276 C 0.08744 0.27527 0.89007 0.0
N277 N 0.1016 0.29316 0.8902 0.0
O278 O 0.06902 0.25235 0.94563 0.0
H279 H 0.0809 0.28769 0.93606 0.0
H280 H 0.085 0.2659 0.87694 0.0
O281 O 0.04302 0.261 0.92674 0.0
C282 C 0.08236 0.24895 0.94309 0.0
O283 O 0.08431 0.24292 0.9243 0.0
N284 N 0.04496 0.24136 0.89148 0.0
C285 C 0.02921 0.22845 0.85107 0.0
C286 C 0.01962 0.23251 0.86686 0.0
C287 C 0.02766 0.23882 0.88697 0.0
C288 C 0.05341 0.23546 0.8773 0.0
C289 C 0.04629 0.22977 0.85674 0.0
H290 H 0.01965 0.24111 0.89899 0.0
H291 H 0.06591 0.23527 0.88199 0.0
H292 H 0.01343 0.22805 0.93556 0.0
H293 H 0.01873 0.18005 0.93462 0.0
H294 H 0.10968 0.31412 0.91496 0.0
H295 H 1.00586 0.23057 0.86397 0.0
H296 H 0.05431 0.22663 0.84552 0.0
C297 C 0.83236 0.80736 0.55326 0.0
C298 C 0.82863 0.82154 0.5499 0.0
N299 N 0.81021 0.814 0.54603 0.0
N300 N 0.81648 0.79082 0.55134 0.0
C301 C 0.80315 0.79527 0.54688 0.0
H302 H 0.8458 0.80906 0.55748 0.0
Co303 Co 0.816 0.76852 0.5572 0.0
C304 C 0.77651 0.73815 0.55757 0.0
O305 O 0.78097 0.7302 0.57289 0.0
N306 N 0.81657 0.74627 0.56296 0.0
C307 C 0.8144 0.71858 0.55771 0.0
C308 C 0.81181 0.73228 0.5487 0.0
C309 C 0.82232 0.74076 0.58041 0.0
N310 N 0.82098 0.72392 0.57772 0.0
O311 O 0.82357 0.76769 0.52831 0.0
H312 H 0.80648 0.73191 0.53276 0.0
H313 H 0.82772 0.74892 0.59479 0.0
O314 O 0.78905 0.75376 0.54955 0.0
C315 C 0.84132 0.77533 0.52816 0.0
O316 O 0.85047 0.78203 0.54618 0.0
N317 N 0.81055 0.77091 0.58577 0.0
C318 C 0.80773 0.77888 0.6285 0.0
C319 C 0.79227 0.77227 0.61483 0.0
C320 C 0.79409 0.76881 0.59335 0.0
C321 C 0.82603 0.77869 0.59844 0.0
C322 C 0.82489 0.78243 0.62 0.0
H323 H 0.78241 0.76517 0.5829 0.0
H324 H 0.83937 0.78182 0.59174 0.0
H325 H 0.78851 0.78507 0.54508 0.0
H326 H 0.83879 0.8363 0.55036 0.0
H327 H 0.81134 0.70555 0.5502 0.0
H328 H 0.77901 0.77029 0.62055 0.0
H329 H 0.83727 0.78789 0.62991 0.0
C330 C 0.21563 0.03222 0.54953 0.0
C331 C 0.20103 0.01475 0.54499 0.0
N332 N 0.20761 1.00278 0.54405 0.0
N333 N 0.23145 0.03143 0.55137 0.0
C334 C 0.22618 0.01331 0.54784 0.0
H335 H 0.21473 0.0447 0.55184 0.0
Co336 Co 0.25373 0.0521 0.55975 0.0
C337 C 0.2828 0.04132 0.5612 0.0
O338 O 0.28944 0.05215 0.57811 0.0
N339 N 0.27619 0.0739 0.56797 0.0
C340 C 0.30455 0.09899 0.56493 0.0
C341 C 0.29128 0.08298 0.55504 0.0
C342 C 0.28061 0.08497 0.58551 0.0
N343 N 0.29781 0.10022 0.58412 0.0
O344 O 0.25647 0.06278 0.53158 0.0
H345 H 0.29255 0.07825 0.53929 0.0
H346 H 0.27129 0.08244 0.59878 0.0
O347 O 0.26814 0.03946 0.55176 0.0
C348 C 0.25224 0.07563 0.5331 0.0
O349 O 0.24681 0.07854 0.55181 0.0
N350 N 0.2494 0.04222 0.58762 0.0
C351 C 0.23961 0.02937 0.62954 0.0
C352 C 0.24589 0.02058 0.61532 0.0
C353 C 0.25025 0.02691 0.59424 0.0
C354 C 0.2418 0.04986 0.60071 0.0
C355 C 0.23716 0.04393 0.6219 0.0
H356 H 0.25378 0.01907 0.58332 0.0
H357 H 0.2395 0.0608 0.59466 0.0
H358 H 0.23559 0.00781 0.54881 0.0
H359 H 0.18665 0.01116 0.5426 0.0
H360 H 0.31812 0.10889 0.55847 0.0
H361 H 0.24703 0.00864 0.62031 0.0
H362 H 0.23196 0.05085 0.63222 0.0
C363 C 0.98626 0.18286 0.54895 0.0
C364 C 1.00374 0.18525 0.5458 0.0
N365 N 0.01569 0.2035 0.54216 0.0
N366 N 0.98706 0.19948 0.5473 0.0
C367 C 1.0052 0.21185 0.54296 0.0
H368 H 0.97385 0.1699 0.55314 0.0
Co369 Co 0.96657 0.20195 0.55434 0.0
C370 C 0.97961 0.24189 0.55986 0.0
O371 O 0.96811 0.237 0.57625 0.0
N372 N 0.94493 0.20354 0.56118 0.0
C373 C 0.92161 0.20961 0.5574 0.0
C374 C 0.93748 0.21122 0.54817 0.0
C375 C 0.933 0.19708 0.57805 0.0
N376 N 0.91891 0.20078 0.57629 0.0
O377 O 0.95808 0.19683 0.52525 0.0
H378 H 0.94335 0.2178 0.53293 0.0
H379 H 0.93413 0.18943 0.59134 0.0
O380 O 0.98094 0.22937 0.54907 0.0
C381 C 0.94634 0.17943 0.52387 0.0
O382 O 0.94275 0.16894 0.541 0.0
N383 N 0.97443 0.20502 0.58298 0.0
C384 C 0.9843 0.20534 0.62583 0.0
C385 C 0.9958 0.22007 0.61196 0.0
C386 C 0.9907 0.21958 0.59058 0.0
C387 C 0.96453 0.18957 0.59536 0.0
C388 C 0.96865 0.18971 0.61703 0.0
H389 H 1.00017 0.23072 0.58014 0.0
H390 H 0.95302 0.17716 0.58843 0.0
H391 H 1.01081 0.22676 0.54158 0.0
H392 H 1.00745 0.17442 0.54649 0.0
H393 H 0.91295 0.2148 0.55087 0.0
H394 H 1.00879 0.23185 0.61738 0.0
H395 H 0.95938 0.17772 0.62665 0.0
C396 C 0.88053 0.51507 0.39035 0.0
C397 C 0.86551 0.51738 0.38627 0.0
N398 N 0.87182 0.53569 0.38317 0.0
N399 N 0.89632 0.53181 0.38981 0.0
C400 C 0.89061 0.54418 0.38521 0.0
H401 H 0.87993 0.50206 0.39433 0.0
Co402 Co 0.919 0.53434 0.39825 0.0
C403 C 0.94703 0.57438 0.39926 0.0
O404 O 0.95349 0.57065 0.41666 0.0
N405 N 0.94187 0.53594 0.40659 0.0
C406 C 0.97074 0.5405 0.40363 0.0
C407 C 0.95702 0.54247 0.39367 0.0
C408 C 0.94668 0.52967 0.42416 0.0
N409 N 0.96419 0.53241 0.42282 0.0
O410 O 0.92196 0.52605 0.37043 0.0
H411 H 0.95798 0.54819 0.37781 0.0
H412 H 0.93763 0.52306 0.43769 0.0
O413 O 0.93274 0.56125 0.38962 0.0
C414 C 0.9178 0.50907 0.37299 0.0
O415 O 0.91188 0.50138 0.39195 0.0
N416 N 0.91448 0.54017 0.42584 0.0
C417 C 0.90359 0.54333 0.46715 0.0
C418 C 0.9093 0.55801 0.45246 0.0
C419 C 0.91422 0.55597 0.43169 0.0
C420 C 0.90753 0.52526 0.4394 0.0
C421 C 0.90238 0.52663 0.4603 0.0
H422 H 0.91718 0.56689 0.42031 0.0
H423 H 0.90597 0.51216 0.43389 0.0
H424 H 0.89985 0.55914 0.38451 0.0
H425 H 0.851 0.50644 0.38596 0.0
H426 H 0.98426 0.54424 0.39697 0.0
H427 H 0.90949 0.57079 0.45682 0.0
H428 H 0.89763 0.51479 0.471 0.0
C429 C 0.50584 0.37153 0.38857 0.0
C430 C 0.5052 0.35529 0.3826 0.0
N431 N 0.48727 0.34233 0.37856 0.0
N432 N 0.48846 0.36901 0.38835 0.0
C433 C 0.47734 0.35105 0.38224 0.0
H434 H 0.51817 0.38431 0.39337 0.0
Co435 Co 0.48448 0.38801 0.39741 0.0
C436 C 0.44411 0.37413 0.39815 0.0
O437 O 0.44719 0.38365 0.41601 0.0
N438 N 0.48147 0.40833 0.40643 0.0
C439 C 0.47552 0.43177 0.4045 0.0
C440 C 0.47464 0.41684 0.39382 0.0
C441 C 0.48674 0.4187 0.42458 0.0
N442 N 0.48317 0.43294 0.42388 0.0
O443 O 0.49252 0.3998 0.36984 0.0
H444 H 0.46945 0.4125 0.3777 0.0
H445 H 0.49318 0.4161 0.43812 0.0
O446 O 0.45771 0.3739 0.3884 0.0
C447 C 0.50902 0.41367 0.37194 0.0
O448 O 0.51691 0.41711 0.39095 0.0
N449 N 0.47878 0.377 0.42467 0.0
C450 C 0.47522 0.36268 0.46585 0.0
C451 C 0.46106 0.35328 0.45069 0.0
C452 C 0.46336 0.36039 0.42996 0.0
C453 C 0.49339 0.38524 0.43858 0.0
C454 C 0.49179 0.37859 0.45945 0.0
H455 H 0.45288 0.35222 0.41822 0.0
H456 H 0.50634 0.39726 0.43346 0.0
H457 H 0.46232 0.34447 0.38079 0.0
H458 H 0.51703 0.35308 0.38204 0.0
H459 H 0.47131 0.44131 0.39822 0.0
H460 H 0.44847 0.34038 0.45473 0.0
H461 H 0.50327 0.386 0.47053 0.0
C462 C 0.65117 0.14181 0.39082 0.0
C463 C 0.66768 0.15725 0.38508 0.0
N464 N 0.68035 0.15192 0.3809 0.0
N465 N 0.65322 0.12668 0.3903 0.0
C466 C 0.67118 0.13321 0.38426 0.0
H467 H 0.63855 0.14167 0.39572 0.0
Co468 Co 0.6339 0.10369 0.39917 0.0
C469 C 0.64737 0.07681 0.39882 0.0
O470 O 0.63779 0.06991 0.41658 0.0
N471 N 0.61339 0.08041 0.40802 0.0
C472 C 0.58959 0.05121 0.40579 0.0
C473 C 0.60472 0.0652 0.39525 0.0
C474 C 0.60291 0.07531 0.42612 0.0
N475 N 0.58844 0.05761 0.42523 0.0
O476 O 0.62205 0.10032 0.37172 0.0
H477 H 0.60907 0.0644 0.3791 0.0
H478 H 0.60556 0.08431 0.43973 0.0
O479 O 0.6477 0.0909 0.38968 0.0
C480 C 0.60859 0.10353 0.37435 0.0
O481 O 0.606 0.10851 0.39349 0.0
N482 N 0.64486 0.10859 0.42638 0.0
C483 C 0.65883 0.11894 0.46772 0.0
C484 C 0.6681 0.11384 0.45271 0.0
C485 C 0.66116 0.10921 0.43188 0.0
C486 C 0.63676 0.11519 0.44019 0.0
C487 C 0.64324 0.12007 0.46112 0.0
H488 H 0.66923 0.10661 0.42026 0.0
H489 H 0.62496 0.11644 0.43494 0.0
H490 H 0.67744 0.1245 0.38268 0.0
H491 H 0.67026 0.17142 0.38483 0.0
H492 H 0.57988 0.03758 0.39935 0.0
H493 H 0.68076 0.11374 0.45692 0.0
H494 H 0.63591 0.12434 0.47208 0.0
C495 C 0.85102 0.54329 0.77129 0.0
C496 C 0.85393 0.5287 0.77576 0.0
N497 N 0.87245 0.53501 0.77503 0.0
N498 N 0.86758 0.55884 0.76786 0.0
C499 C 0.88044 0.55342 0.77032 0.0
H500 H 0.83761 0.54255 0.77022 0.0
Co501 Co 0.86919 0.58111 0.75939 0.0
C502 C 0.90917 0.61004 0.75737 0.0
O503 O 0.90503 0.61712 0.74085 0.0
N504 N 0.86992 0.60359 0.75106 0.0
C505 C 0.87341 0.63205 0.75368 0.0
C506 C 0.87579 0.61869 0.76391 0.0
C507 C 0.86377 0.60814 0.73318 0.0
N508 N 0.86586 0.6254 0.73431 0.0
O509 O 0.86196 0.58419 0.78775 0.0
H510 H 0.88155 0.61993 0.77979 0.0
H511 H 0.85736 0.59894 0.71975 0.0
O512 O 0.89632 0.5953 0.76666 0.0
C513 C 0.84491 0.58012 0.7868 0.0
O514 O 0.83615 0.57478 0.76834 0.0
N515 N 0.87405 0.57646 0.73144 0.0
C516 C 0.87593 0.56703 0.68909 0.0
C517 C 0.89155 0.5736 0.7025 0.0
C518 C 0.89019 0.5778 0.72383 0.0
C519 C 0.85833 0.56847 0.71916 0.0
C520 C 0.859 0.56397 0.69778 0.0
H521 H 0.90204 0.5817 0.73408 0.0
H522 H 0.84525 0.56604 0.72595 0.0
H523 H 0.89527 0.56259 0.76799 0.0
H524 H 0.84317 0.51452 0.77929 0.0
H525 H 0.87711 0.64567 0.75997 0.0
H526 H 0.90463 0.57525 0.69663 0.0
H527 H 0.84651 0.55857 0.68806 0.0
C528 C 0.47494 0.31509 0.76674 0.0
C529 C 0.48999 0.33257 0.7701 0.0
N530 N 0.48368 0.34466 0.77244 0.0
N531 N 0.45915 0.31605 0.76698 0.0
C532 C 0.46488 0.33427 0.77061 0.0
H533 H 0.47549 0.30251 0.76363 0.0
Co534 Co 0.43625 0.29562 0.75986 0.0
C535 C 0.40809 0.30772 0.7597 0.0
O536 O 0.40013 0.29638 0.74344 0.0
N537 N 0.41316 0.2741 0.75278 0.0
C538 C 0.38459 0.24949 0.75678 0.0
C539 C 0.39838 0.26546 0.76624 0.0
C540 C 0.40802 0.26283 0.73538 0.0
N541 N 0.39069 0.24786 0.73732 0.0
O542 O 0.43406 0.28566 0.78826 0.0
H543 H 0.39771 0.27046 0.78206 0.0
H544 H 0.41694 0.26498 0.7218 0.0
O545 O 0.42298 0.30926 0.76811 0.0
C546 C 0.43793 0.27258 0.78666 0.0
O547 O 0.44288 0.26934 0.76782 0.0
N548 N 0.43995 0.30467 0.73174 0.0
C549 C 0.44891 0.31565 0.68921 0.0
C550 C 0.4428 0.32501 0.70281 0.0
C551 C 0.43888 0.31963 0.72424 0.0
C552 C 0.44733 0.29649 0.71917 0.0
C553 C 0.45158 0.3015 0.69773 0.0
H554 H 0.43554 0.32791 0.73469 0.0
H555 H 0.44965 0.28575 0.72584 0.0
H556 H 0.45561 0.33996 0.77093 0.0
H557 H 0.5045 0.33615 0.77061 0.0
H558 H 0.37113 0.23986 0.7637 0.0
H559 H 0.44145 0.33664 0.69702 0.0
H560 H 0.45662 0.29417 0.68785 0.0
C561 C 0.7086 0.1647 0.77551 0.0
C562 C 0.6911 0.16194 0.77965 0.0
N563 N 0.6786 0.14368 0.77698 0.0
N564 N 0.70731 0.14829 0.77037 0.0
C565 C 0.68883 0.13564 0.77153 0.0
H566 H 0.72143 0.178 0.77562 0.0
Co567 Co 0.72799 0.147 0.76107 0.0
C568 C 0.71726 0.10719 0.75779 0.0
O569 O 0.72839 0.11174 0.74109 0.0
N570 N 0.74977 0.14672 0.75195 0.0
C571 C 0.77486 0.14333 0.75342 0.0
C572 C 0.75915 0.14057 0.76412 0.0
C573 C 0.76038 0.15348 0.73405 0.0
N574 N 0.77561 0.15145 0.73446 0.0
O575 O 0.73846 0.15338 0.78937 0.0
H576 H 0.75476 0.13433 0.77983 0.0
H577 H 0.75746 0.16027 0.72112 0.0
O578 O 0.71527 0.11976 0.76758 0.0
C579 C 0.75109 0.17057 0.78954 0.0
O580 O 0.75451 0.18038 0.77185 0.0
N581 N 0.71822 0.1427 0.73318 0.0
C582 C 0.70657 0.14104 0.69102 0.0
C583 C 0.69777 0.12532 0.70432 0.0
C584 C 0.7035 0.12655 0.72553 0.0
C585 C 0.72564 0.15854 0.72109 0.0
C586 C 0.72031 0.15799 0.69978 0.0
H587 H 0.69576 0.11453 0.73563 0.0
H588 H 0.73623 0.17161 0.72793 0.0
H589 H 0.68291 0.12104 0.76756 0.0
H590 H 0.68787 0.17266 0.7841 0.0
H591 H 0.78483 0.13947 0.75912 0.0
H592 H 0.6864 0.11222 0.69844 0.0
H593 H 0.72719 0.17057 0.69016 0.0
C594 C 0.48152 0.16552 0.24773 0.0
C595 C 0.49537 0.16129 0.2511 0.0
N596 N 0.48795 0.14486 0.26156 0.0
N597 N 0.46535 0.15188 0.25599 0.0
C598 C 0.46969 0.13946 0.26449 0.0
H599 H 0.48308 0.17768 0.23939 0.0
Co600 Co 0.44315 0.15225 0.25261 0.0
C601 C 0.41209 0.11315 0.25402 0.0
O602 O 0.40325 0.11782 0.24006 0.0
N603 N 0.42102 0.15364 0.2493 0.0
C604 C 0.39403 0.15232 0.25717 0.0
C605 C 0.40813 0.14966 0.26486 0.0
C606 C 0.41449 0.15903 0.23246 0.0
N607 N 0.3981 0.15825 0.23676 0.0
O608 O 0.44443 0.16012 0.28174 0.0
H609 H 0.40872 0.14477 0.28076 0.0
H610 H 0.42119 0.16309 0.21705 0.0
O611 O 0.42828 0.1255 0.2608 0.0
C612 C 0.45472 0.1778 0.28273 0.0
O613 O 0.46312 0.18699 0.26519 0.0
N614 N 0.44338 0.14626 0.22368 0.0
C615 C 0.44921 0.14233 0.1805 0.0
C616 C 0.44329 0.12725 0.19463 0.0
C617 C 0.44092 0.12963 0.21628 0.0
C618 C 0.45035 0.16137 0.2104 0.0
C619 C 0.45299 0.15965 0.18864 0.0
H620 H 0.43804 0.11831 0.22702 0.0
H621 H 0.45389 0.17489 0.21685 0.0
H622 H 0.45964 0.12655 0.27214 0.0
H623 H 0.50984 0.16976 0.24632 0.0
H624 H 0.38181 0.15015 0.26598 0.0
H625 H 0.44123 0.11391 0.18917 0.0
H626 H 0.45799 0.17177 0.17834 0.0
C627 C 0.86079 0.32039 0.25071 0.0
C628 C 0.86556 0.33865 0.25355 0.0
N629 N 0.88192 0.34742 0.26415 0.0
N630 N 0.87403 0.31746 0.2594 0.0
C631 C 0.88674 0.33421 0.26769 0.0
H632 H 0.84851 0.30988 0.24246 0.0
Co633 Co 0.87269 0.29436 0.25666 0.0
C634 C 0.91132 0.30112 0.25657 0.0
O635 O 0.90571 0.28745 0.24263 0.0
N636 N 0.87032 0.27038 0.25406 0.0
C637 C 0.87105 0.24457 0.26277 0.0
C638 C 0.87479 0.26191 0.26965 0.0
C639 C 0.86352 0.25761 0.23806 0.0
N640 N 0.86393 0.24191 0.24287 0.0
O641 O 0.86527 0.28865 0.28608 0.0
H642 H 0.88068 0.26806 0.28503 0.0
H643 H 0.8586 0.25965 0.22291 0.0
O644 O 0.89961 0.30562 0.26401 0.0
C645 C 0.84766 0.28192 0.28739 0.0
O646 O 0.83847 0.28141 0.27 0.0
N647 N 0.87817 0.2997 0.22743 0.0
C648 C 0.88122 0.30861 0.184 0.0
C649 C 0.89667 0.31787 0.1976 0.0
C650 C 0.89474 0.31357 0.21939 0.0
C651 C 0.86276 0.29146 0.21465 0.0
C652 C 0.86402 0.29537 0.19279 0.0
H653 H 0.90635 0.32212 0.22973 0.0
H654 H 0.8493 0.28188 0.2216 0.0
H655 H 0.89944 0.33679 0.27565 0.0
H656 H 0.8575 0.34498 0.24835 0.0
H657 H 0.87326 0.23466 0.27179 0.0
H658 H 0.90995 0.32892 0.19162 0.0
H659 H 0.85163 0.28819 0.18293 0.0
C660 C 0.70599 0.54302 0.26294 0.0
C661 C 0.68857 0.52802 0.26683 0.0
N662 N 0.67699 0.5345 0.27191 0.0
N663 N 0.70549 0.55892 0.26551 0.0
C664 C 0.68765 0.55333 0.2712 0.0
H665 H 0.71819 0.54241 0.25785 0.0
Co666 Co 0.72591 0.58189 0.25858 0.0
C667 C 0.71334 0.60927 0.25578 0.0
O668 O 0.72433 0.61584 0.23894 0.0
N669 N 0.74756 0.60521 0.2519 0.0
C670 C 0.77129 0.6342 0.25671 0.0
C671 C 0.75509 0.62001 0.26538 0.0
C672 C 0.7598 0.61075 0.23533 0.0
N673 N 0.77425 0.6283 0.23779 0.0
O674 O 0.73539 0.58407 0.28716 0.0
H675 H 0.74921 0.62041 0.28074 0.0
H676 H 0.75845 0.60227 0.22165 0.0
O677 O 0.71204 0.59517 0.26601 0.0
C678 C 0.74843 0.5801 0.28595 0.0
O679 O 0.752 0.57522 0.26726 0.0
N680 N 0.71706 0.5781 0.23026 0.0
C681 C 0.70505 0.56942 0.18782 0.0
C682 C 0.69422 0.57222 0.20314 0.0
C683 C 0.70038 0.57637 0.22427 0.0
C684 C 0.72649 0.57312 0.21633 0.0
C685 C 0.72128 0.56958 0.19485 0.0
H686 H 0.69135 0.57761 0.23582 0.0
H687 H 0.73822 0.57194 0.22194 0.0
H688 H 0.68234 0.56278 0.27376 0.0
H689 H 0.68467 0.51345 0.26579 0.0
H690 H 0.78042 0.6476 0.26404 0.0
H691 H 0.68089 0.5709 0.19909 0.0
H692 H 0.73004 0.56712 0.18402 0.0
C693 C 0.50291 0.13941 0.88438 0.0
C694 C 0.49977 0.15405 0.8816 0.0
N695 N 0.48138 0.1471 0.8782 0.0
N696 N 0.48663 0.1232 0.88269 0.0
C697 C 0.47368 0.1283 0.87877 0.0
H698 H 0.51615 0.14055 0.88838 0.0
Co699 Co 0.48546 0.10076 0.88944 0.0
C700 C 0.44577 0.07114 0.8908 0.0
O701 O 0.45015 0.06359 0.90663 0.0
N702 N 0.48543 0.07833 0.89619 0.0
C703 C 0.48251 0.05019 0.89218 0.0
C704 C 0.48015 0.06382 0.88256 0.0
C705 C 0.49124 0.07318 0.91389 0.0
N706 N 0.48944 0.05609 0.91196 0.0
O707 O 0.49246 0.09877 0.86069 0.0
H708 H 0.47466 0.06307 0.86663 0.0
H709 H 0.49704 0.08176 0.9279 0.0
O710 O 0.45841 0.08635 0.88212 0.0
C711 C 0.51007 0.10547 0.85976 0.0
O712 O 0.52005 0.11253 0.87719 0.0
N713 N 0.48034 0.10414 0.91783 0.0
C714 C 0.47734 0.11267 0.96025 0.0
C715 C 0.46214 0.10653 0.94628 0.0
C716 C 0.46407 0.1028 0.92497 0.0
C717 C 0.4957 0.1117 0.93071 0.0
C718 C 0.49444 0.11568 0.95216 0.0
H719 H 0.45262 0.09948 0.91428 0.0
H720 H 0.50898 0.11436 0.92429 0.0
H721 H 0.45885 0.11855 0.87753 0.0
H722 H 0.51019 0.16873 0.8824 0.0
H723 H 0.47909 0.03685 0.88525 0.0
H724 H 0.449 0.10505 0.95164 0.0
H725 H 0.50666 0.12085 0.96231 0.0
C726 C 0.88383 0.36842 0.88473 0.0
C727 C 0.86946 0.35072 0.88065 0.0
N728 N 0.8765 0.33914 0.87953 0.0
N729 N 0.89997 0.36819 0.88605 0.0
C730 C 0.89511 0.35014 0.88272 0.0
H731 H 0.88252 0.38066 0.88713 0.0
Co732 Co 0.92209 0.38937 0.89385 0.0
C733 C 0.95202 0.37968 0.89478 0.0
O734 O 0.95918 0.39114 0.9111 0.0
N735 N 0.94427 0.41166 0.90151 0.0
C736 C 0.97225 0.43723 0.89807 0.0
C737 C 0.95897 0.42123 0.88817 0.0
C738 C 0.94895 0.42242 0.91936 0.0
N739 N 0.96593 0.43794 0.91774 0.0
O740 O 0.92435 0.39926 0.86547 0.0
H741 H 0.96004 0.41677 0.87219 0.0
H742 H 0.94006 0.41938 0.93317 0.0
O743 O 0.93692 0.37726 0.88595 0.0
C744 C 0.91862 0.41098 0.86551 0.0
O745 O 0.91246 0.41421 0.88351 0.0
N746 N 0.91835 0.37995 0.9219 0.0
C747 C 0.90937 0.36714 0.96392 0.0
C748 C 0.91587 0.35867 0.94953 0.0
C749 C 0.91986 0.36499 0.92844 0.0
C750 C 0.91053 0.38725 0.93516 0.0
C751 C 0.9063 0.38135 0.95642 0.0
H752 H 0.92353 0.35731 0.91745 0.0
H753 H 0.90778 0.39793 0.92921 0.0
H754 H 0.90485 0.34504 0.88344 0.0
H755 H 0.85492 0.34671 0.87875 0.0
H756 H 0.9856 0.44742 0.89137 0.0
H757 H 0.91743 0.34695 0.95437 0.0
H758 H 0.90088 0.38798 0.96688 0.0
C759 C 0.64624 0.5174 0.88851 0.0
C760 C 0.66322 0.51876 0.88457 0.0
N761 N 0.67585 0.53682 0.88076 0.0
N762 N 0.64806 0.53448 0.88722 0.0
C763 C 0.66624 0.54606 0.88225 0.0
H764 H 0.63345 0.50483 0.89279 0.0
Co765 Co 0.6286 0.53844 0.89475 0.0
C766 C 0.6431 0.5789 0.89554 0.0
O767 O 0.63291 0.57588 0.91285 0.0
N768 N 0.60794 0.54159 0.90214 0.0
C769 C 0.58471 0.54772 0.89811 0.0
C770 C 0.60036 0.54891 0.88881 0.0
C771 C 0.59634 0.53579 0.91933 0.0
N772 N 0.58223 0.53947 0.91736 0.0
O773 O 0.61805 0.53058 0.86664 0.0
H774 H 0.6058 0.55463 0.87311 0.0
H775 H 0.59749 0.52826 0.93275 0.0
O776 O 0.64324 0.56519 0.886 0.0
C777 C 0.6042 0.51402 0.8684 0.0
O778 O 0.60016 0.50609 0.88742 0.0
N779 N 0.63839 0.54397 0.92261 0.0
C780 C 0.65169 0.54694 0.96442 0.0
C781 C 0.66218 0.56056 0.94894 0.0
C782 C 0.65537 0.55875 0.92812 0.0
C783 C 0.62906 0.5297 0.93672 0.0
C784 C 0.63494 0.53121 0.9579 0.0
H785 H 0.66419 0.56892 0.91639 0.0
H786 H 0.6169 0.51697 0.93144 0.0
H787 H 0.67254 0.56105 0.8808 0.0
H788 H 0.6661 0.50735 0.88475 0.0
H789 H 0.57584 0.55252 0.89121 0.0
H790 H 0.67578 0.57235 0.95258 0.0
H791 H 0.62632 0.52006 0.9689 0.0
C792 C 0.54922 0.8502 0.71718 0.0
C793 C 0.53379 0.85099 0.71079 0.0
N794 N 0.53872 0.86903 0.70771 0.0
N795 N 0.56398 0.8676 0.7182 0.0
C796 C 0.55722 0.87887 0.71233 0.0
H797 H 0.54954 0.83773 0.72165 0.0
Co798 Co 0.58662 0.87153 0.72889 0.0
C799 C 0.61262 0.91182 0.73124 0.0
O800 O 0.6177 0.90843 0.74989 0.0
N801 N 0.60959 0.87458 0.73951 0.0
C802 C 0.63921 0.88109 0.7389 0.0
C803 C 0.62547 0.88213 0.72774 0.0
C804 C 0.61407 0.86871 0.75768 0.0
N805 N 0.63203 0.87262 0.75777 0.0
O806 O 0.59186 0.86393 0.70184 0.0
H807 H 0.62691 0.88787 0.7118 0.0
H808 H 0.60445 0.86151 0.77059 0.0
O809 O 0.59964 0.89841 0.72036 0.0
C810 C 0.58896 0.84738 0.70445 0.0
O811 O 0.58299 0.83935 0.72325 0.0
N812 N 0.57987 0.8767 0.75561 0.0
C813 C 0.56632 0.87917 0.79559 0.0
C814 C 0.57151 0.89343 0.78045 0.0
C815 C 0.57778 0.8917 0.76031 0.0
C816 C 0.5733 0.86202 0.76945 0.0
C817 C 0.56685 0.86309 0.78975 0.0
H818 H 0.58046 0.90224 0.74848 0.0
H819 H 0.57307 0.84934 0.76465 0.0
H820 H 0.56557 0.89394 0.71195 0.0
H821 H 0.51981 0.83912 0.70948 0.0
H822 H 0.65323 0.88569 0.7332 0.0
H823 H 0.57038 0.90566 0.78398 0.0
H824 H 0.56255 0.85154 0.8008 0.0
C825 C 0.16494 0.69918 0.71088 0.0
C826 C 0.16348 0.68258 0.70482 0.0
N827 N 0.14525 0.6694 0.70449 0.0
N828 N 0.14775 0.69667 0.7143 0.0
C829 C 0.13595 0.67833 0.71031 0.0
H830 H 0.1778 0.7122 0.7133 0.0
Co831 Co 0.14472 0.71602 0.72469 0.0
C832 C 0.10459 0.7028 0.72844 0.0
O833 O 0.10872 0.71213 0.74655 0.0
N834 N 0.14265 0.7366 0.73487 0.0
C835 C 0.13708 0.76033 0.73396 0.0
C836 C 0.13511 0.74498 0.7232 0.0
C837 C 0.14947 0.74749 0.75253 0.0
N838 N 0.14615 0.76192 0.75243 0.0
O839 O 0.15161 0.72799 0.69708 0.0
H840 H 0.12877 0.74033 0.70759 0.0
H841 H 0.15698 0.74521 0.76517 0.0
O842 O 0.11753 0.70239 0.71738 0.0
C843 C 0.16841 0.74144 0.69858 0.0
O844 O 0.17719 0.74417 0.71694 0.0
N845 N 0.14015 0.70493 0.75191 0.0
C846 C 0.13826 0.69046 0.79271 0.0
C847 C 0.12342 0.68122 0.7783 0.0
C848 C 0.12484 0.68843 0.75776 0.0
C849 C 0.15534 0.71307 0.76502 0.0
C850 C 0.15459 0.70633 0.7857 0.0
H851 H 0.11372 0.68043 0.74662 0.0
H852 H 0.16812 0.725 0.75938 0.0
H853 H 0.12093 0.67161 0.71193 0.0
H854 H 0.17504 0.68026 0.70172 0.0
H855 H 0.13272 0.76991 0.72825 0.0
H856 H 0.11094 0.66836 0.78273 0.0
H857 H 0.16655 0.71366 0.79615 0.0
C858 C 0.32908 0.47725 0.74021 0.0
C859 C 0.34634 0.49214 0.73589 0.0
N860 N 0.35557 0.48634 0.7231 0.0
N861 N 0.32723 0.46191 0.73037 0.0
C862 C 0.3437 0.46784 0.72004 0.0
H863 H 0.31834 0.47766 0.74969 0.0
Co864 Co 0.30466 0.4394 0.73214 0.0
C865 C 0.31325 0.40888 0.73351 0.0
O866 O 0.2992 0.40049 0.74696 0.0
N867 N 0.28111 0.41705 0.73358 0.0
C868 C 0.25649 0.38992 0.72374 0.0
C869 C 0.27399 0.404 0.71791 0.0
C870 C 0.26734 0.41069 0.74849 0.0
N871 N 0.25234 0.39422 0.743 0.0
O872 O 0.29987 0.44104 0.70239 0.0
H873 H 0.28118 0.40456 0.70319 0.0
H874 H 0.26808 0.41765 0.76331 0.0
O875 O 0.31745 0.42493 0.7258 0.0
C876 C 0.2929 0.45165 0.70033 0.0
O877 O 0.29194 0.46054 0.71731 0.0
N878 N 0.30887 0.43914 0.76173 0.0
C879 C 0.31468 0.44312 0.80584 0.0
C880 C 0.32563 0.43856 0.79281 0.0
C881 C 0.32287 0.43716 0.77069 0.0
C882 C 0.29916 0.44502 0.77402 0.0
C883 C 0.30151 0.44669 0.79617 0.0
H884 H 0.33252 0.43523 0.76091 0.0
H885 H 0.28957 0.44858 0.76647 0.0
H886 H 0.3467 0.45897 0.71002 0.0
H887 H 0.35169 0.50625 0.74169 0.0
H888 H 0.24746 0.37761 0.71443 0.0
H889 H 0.33667 0.43672 0.79958 0.0
H890 H 0.2931 0.45075 0.80559 0.0
C891 C 0.52453 0.87462 0.09277 0.0
C892 C 0.52879 0.86085 0.09641 0.0
N893 N 0.54698 0.86891 0.10174 0.0
N894 N 0.53986 0.89143 0.09589 0.0
C895 C 0.55339 0.88754 0.10145 0.0
H896 H 0.51114 0.8725 0.08757 0.0
Co897 Co 0.53945 0.91332 0.09015 0.0
C898 C 0.57865 0.94422 0.08627 0.0
O899 O 0.57283 0.95176 0.07192 0.0
N900 N 0.53796 0.93513 0.08448 0.0
C901 C 0.53985 0.96276 0.08928 0.0
C902 C 0.54286 0.94937 0.09844 0.0
C903 C 0.53174 0.94021 0.06708 0.0
N904 N 0.53292 0.957 0.06947 0.0
O905 O 0.53377 0.91496 0.11965 0.0
H906 H 0.54872 0.95021 0.11417 0.0
H907 H 0.52631 0.93189 0.05283 0.0
O908 O 0.5669 0.9287 0.0952 0.0
C909 C 0.51601 0.90624 0.12127 0.0
O910 O 0.50599 0.89802 0.10417 0.0
N911 N 0.54291 0.91009 0.06118 0.0
C912 C 0.5427 0.90172 0.018 0.0
C913 C 0.55922 0.90897 0.02995 0.0
C914 C 0.55893 0.91259 0.05173 0.0
C915 C 0.52647 0.90153 0.05021 0.0
C916 C 0.52607 0.89754 0.02847 0.0
H917 H 0.57147 0.91688 0.06086 0.0
H918 H 0.51362 0.89825 0.05836 0.0
H919 H 0.56773 0.89809 0.10453 0.0
H920 H 0.51914 0.84599 0.09522 0.0
H921 H 0.54299 0.97593 0.09647 0.0
H922 H 0.57216 0.91147 0.02262 0.0
H923 H 0.51294 0.8916 0.01989 0.0
C924 C 0.15011 0.65901 0.08817 0.0
C925 C 0.16353 0.67725 0.09149 0.0
N926 N 0.15518 0.68657 0.09891 0.0
N927 N 0.13326 0.6566 0.09359 0.0
C928 C 0.13676 0.67365 0.10017 0.0
H929 H 0.15246 0.64823 0.08172 0.0
Co930 Co 0.11144 0.63384 0.08935 0.0
C931 C 0.07993 0.64136 0.08766 0.0
O932 O 0.07187 0.6278 0.0736 0.0
N933 N 0.08966 0.61021 0.0852 0.0
C934 C 0.06241 0.58447 0.09188 0.0
C935 C 0.07613 0.60118 0.10007 0.0
C936 C 0.08385 0.59841 0.06822 0.0
N937 N 0.06726 0.5828 0.07176 0.0
O938 O 0.11138 0.6273 0.1189 0.0
H939 H 0.07595 0.60665 0.11577 0.0
H940 H 0.09148 0.60098 0.05344 0.0
O941 O 0.09589 0.64547 0.09553 0.0
C942 C 0.12139 0.61962 0.12069 0.0
O943 O 0.13025 0.61867 0.10368 0.0
N944 N 0.11307 0.63981 0.06021 0.0
C945 C 0.11962 0.64744 0.01664 0.0
C946 C 0.11273 0.65673 0.02918 0.0
C947 C 0.11001 0.65308 0.05112 0.0
C948 C 0.12119 0.63183 0.04855 0.0
C949 C 0.12424 0.63514 0.02663 0.0
H950 H 0.10606 0.6614 0.06064 0.0
H951 H 0.12495 0.6225 0.05635 0.0
H952 H 0.12601 0.67665 0.10518 0.0
H953 H 0.17835 0.68313 0.08869 0.0
H954 H 0.04961 0.57461 0.09992 0.0
H955 H 0.10991 0.66706 0.0222 0.0
H956 H 0.12992 0.62793 0.01758 0.0
C957 C 0.36405 0.48923 0.10755 0.0
C958 C 0.34643 0.48552 0.113 0.0
N959 N 0.33564 0.467 0.11625 0.0
N960 N 0.36449 0.47318 0.10736 0.0
C961 C 0.34698 0.45981 0.11287 0.0
H962 H 0.3757 0.50274 0.10331 0.0
Co963 Co 0.3854 0.47251 0.09771 0.0
C964 C 0.37596 0.43307 0.09594 0.0
O965 O 0.38618 0.43742 0.07846 0.0
N966 N 0.40741 0.47283 0.08813 0.0
C967 C 0.43333 0.4709 0.08965 0.0
C968 C 0.41725 0.46718 0.10022 0.0
C969 C 0.41812 0.48029 0.07041 0.0
N970 N 0.43388 0.47918 0.07088 0.0
O971 O 0.39703 0.48092 0.12532 0.0
H972 H 0.41304 0.46087 0.11592 0.0
H973 H 0.41502 0.48718 0.05775 0.0
O974 O 0.37402 0.44565 0.10582 0.0
C975 C 0.40901 0.49824 0.12324 0.0
O976 O 0.41024 0.50629 0.10466 0.0
N977 N 0.37451 0.46642 0.07041 0.0
C978 C 0.3597 0.46245 0.02943 0.0
C979 C 0.35184 0.44755 0.04397 0.0
C980 C 0.35914 0.44997 0.06461 0.0
C981 C 0.38124 0.48146 0.05708 0.0
C982 C 0.37434 0.47972 0.03633 0.0
H983 H 0.35197 0.43875 0.0759 0.0
H984 H 0.39212 0.49494 0.06264 0.0
H985 H 0.34238 0.44507 0.11346 0.0
H986 H 0.34186 0.49568 0.11429 0.0
H987 H 0.44381 0.46777 0.09543 0.0
H988 H 0.33987 0.43426 0.03959 0.0
H989 H 0.38055 0.49173 0.02577 0.0
C990 C 0.14665 0.49888 0.59843 0.0
C991 C 0.16243 0.49828 0.60358 0.0
N992 N 0.15754 0.48047 0.60818 0.0
N993 N 0.13173 0.48159 0.59966 0.0
C994 C 0.13874 0.47054 0.60557 0.0
H995 H 0.1461 0.51113 0.5935 0.0
Co996 Co 0.10844 0.47781 0.59207 0.0
C997 C 0.08239 0.43752 0.58847 0.0
O998 O 0.07579 0.44157 0.57141 0.0
N999 N 0.08484 0.475 0.58463 0.0
C1000 C 0.05538 0.46861 0.58835 0.0
C1001 C 0.0696 0.46696 0.59749 0.0
C1002 C 0.07951 0.48176 0.56797 0.0
N1003 N 0.06167 0.47798 0.56977 0.0
O1004 O 0.10488 0.48407 0.62072 0.0
H1005 H 0.06896 0.46049 0.61278 0.0
H1006 H 0.08845 0.48951 0.55478 0.0
O1007 O 0.09617 0.45057 0.59885 0.0
C1008 C 0.10791 0.50077 0.61975 0.0
O1009 O 0.11299 0.50961 0.60129 0.0
N1010 N 0.11346 0.47398 0.56379 0.0
C1011 C 0.12252 0.47303 0.52104 0.0
C1012 C 0.11872 0.45813 0.5348 0.0
C1013 C 0.11477 0.45913 0.55635 0.0
C1014 C 0.11921 0.48937 0.55123 0.0
C1015 C 0.12337 0.48907 0.52964 0.0
H1016 H 0.113 0.44805 0.56693 0.0
H1017 H 0.1202 0.50188 0.55797 0.0
H1018 H 0.13028 0.45559 0.60771 0.0
H1019 H 0.17651 0.51007 0.60327 0.0
H1020 H 0.04168 0.46378 0.59521 0.0
H1021 H 0.11895 0.4459 0.529 0.0
H1022 H 0.12673 0.5011 0.51972 0.0
C1023 C 0.52897 0.65865 0.58495 0.0
C1024 C 0.53408 0.67704 0.58752 0.0
N1025 N 0.55097 0.68588 0.59694 0.0
N1026 N 0.54253 0.65575 0.59266 0.0
C1027 C 0.55579 0.67263 0.60009 0.0
H1028 H 0.51625 0.64806 0.57748 0.0
Co1029 Co 0.5411 0.63266 0.58964 0.0
C1030 C 0.57976 0.63957 0.58675 0.0
O1031 O 0.57352 0.62562 0.57312 0.0
N1032 N 0.5387 0.60872 0.58683 0.0
C1033 C 0.54015 0.58318 0.59487 0.0
C1034 C 0.54425 0.60063 0.60174 0.0
C1035 C 0.53086 0.59561 0.57129 0.0
N1036 N 0.53169 0.58007 0.5757 0.0
O1037 O 0.53527 0.62731 0.61947 0.0
H1038 H 0.55119 0.60715 0.61659 0.0
H1039 H 0.5249 0.59729 0.55673 0.0
O1040 O 0.56839 0.64415 0.59503 0.0
C1041 C 0.51783 0.62076 0.62243 0.0
O1042 O 0.50764 0.62071 0.60626 0.0
N1043 N 0.54498 0.63748 0.56011 0.0
C1044 C 0.54588 0.64451 0.51635 0.0
C1045 C 0.56202 0.65426 0.52884 0.0
C1046 C 0.56115 0.65092 0.55083 0.0
C1047 C 0.5289 0.62899 0.54845 0.0
C1048 C 0.52907 0.63197 0.52645 0.0
H1049 H 0.57332 0.65975 0.56029 0.0
H1050 H 0.5158 0.61977 0.55638 0.0
H1051 H 0.56888 0.67528 0.60705 0.0
H1052 H 0.52592 0.68342 0.58288 0.0
H1053 H 0.54309 0.57353 0.60338 0.0
H1054 H 0.57504 0.66483 0.5218 0.0
H1055 H 0.51619 0.62449 0.51746 0.0
C1056 C 0.36399 0.8719 0.5885 0.0
C1057 C 0.34596 0.858 0.59211 0.0
N1058 N 0.33628 0.86571 0.60031 0.0
N1059 N 0.36589 0.8884 0.59449 0.0
C1060 C 0.34878 0.88422 0.60172 0.0
H1061 H 0.37497 0.87015 0.58146 0.0
Co1062 Co 0.38814 0.91075 0.59022 0.0
C1063 C 0.37885 0.94068 0.58761 0.0
O1064 O 0.39143 0.94793 0.57231 0.0
N1065 N 0.41136 0.93321 0.58629 0.0
C1066 C 0.43597 0.96106 0.59396 0.0
C1067 C 0.41898 0.94698 0.60112 0.0
C1068 C 0.42434 0.93924 0.57045 0.0
N1069 N 0.43931 0.95612 0.57464 0.0
O1070 O 0.39504 0.91068 0.61957 0.0
H1071 H 0.41248 0.94688 0.61622 0.0
H1072 H 0.42302 0.93175 0.55588 0.0
O1073 O 0.37572 0.9255 0.59686 0.0
C1074 C 0.40364 0.9015 0.62028 0.0
O1075 O 0.40517 0.89377 0.60256 0.0
N1076 N 0.38176 0.90921 0.56117 0.0
C1077 C 0.37259 0.90266 0.51772 0.0
C1078 C 0.36153 0.90616 0.53201 0.0
C1079 C 0.36625 0.90923 0.55366 0.0
C1080 C 0.3913 0.90372 0.54809 0.0
C1081 C 0.38758 0.90124 0.52621 0.0
H1082 H 0.35693 0.91084 0.56442 0.0
H1083 H 0.40199 0.9013 0.55475 0.0
H1084 H 0.34542 0.89459 0.60727 0.0
H1085 H 0.34049 0.84331 0.58895 0.0
H1086 H 0.44522 0.97381 0.60245 0.0
H1087 H 0.34903 0.90608 0.52675 0.0
H1088 H 0.39648 0.89827 0.51622 0.0
C1089 C 0.16491 0.46551 0.20463 0.0
C1090 C 0.1646 0.48094 0.19703 0.0
N1091 N 0.14805 0.47939 0.20224 0.0
N1092 N 0.14857 0.45406 0.21452 0.0
C1093 C 0.13853 0.46286 0.21261 0.0
H1094 H 0.17669 0.4633 0.20366 0.0
Co1095 Co 0.14274 0.4327 0.23067 0.0
C1096 C 0.10685 0.40485 0.21189 0.0
O1097 O 0.11435 0.39471 0.20641 0.0
N1098 N 0.13678 0.41138 0.24753 0.0
C1099 C 0.12162 0.38796 0.27064 0.0
C1100 C 0.12029 0.4006 0.25763 0.0
C1101 C 0.14794 0.40494 0.25488 0.0
N1102 N 0.13903 0.39072 0.26892 0.0
O1103 O 0.15037 0.42289 0.2072 0.0
H1104 H 0.10815 0.40223 0.2564 0.0
H1105 H 0.16259 0.4111 0.2511 0.0
O1106 O 0.11708 0.42083 0.22043 0.0
C1107 C 0.16733 0.42695 0.20941 0.0
O1108 O 0.17691 0.43716 0.22586 0.0
N1109 N 0.1372 0.44298 0.25407 0.0
C1110 C 0.13334 0.45599 0.29369 0.0
C1111 C 0.11799 0.44694 0.27986 0.0
C1112 C 0.1202 0.44052 0.26 0.0
C1113 C 0.15245 0.45265 0.26675 0.0
C1114 C 0.15087 0.45932 0.28667 0.0
H1115 H 0.10809 0.43299 0.24996 0.0
H1116 H 0.16576 0.45439 0.26172 0.0
H1117 H 0.12488 0.45771 0.21972 0.0
H1118 H 0.17592 0.49261 0.18872 0.0
H1119 H 0.11075 0.37779 0.28098 0.0
H1120 H 0.10427 0.44429 0.28464 0.0
H1121 H 0.16303 0.46605 0.29695 0.0
C1122 C 0.54872 0.69975 0.21396 0.0
C1123 C 0.53362 0.68292 0.2084 0.0
N1124 N 0.53927 0.67025 0.20653 0.0
N1125 N 0.56395 0.6979 0.21556 0.0
C1126 C 0.55779 0.67972 0.21097 0.0
H1127 H 0.54852 0.71248 0.21728 0.0
Co1128 Co 0.58659 0.71766 0.22475 0.0
C1129 C 0.61394 0.70482 0.22686 0.0
O1130 O 0.62017 0.71475 0.24448 0.0
N1131 N 0.60948 0.73861 0.23374 0.0
C1132 C 0.63853 0.76269 0.23129 0.0
C1133 C 0.62496 0.74694 0.22129 0.0
C1134 C 0.614 0.7499 0.2511 0.0
N1135 N 0.63161 0.76455 0.25006 0.0
O1136 O 0.59058 0.72902 0.1969 0.0
H1137 H 0.62625 0.74193 0.20572 0.0
H1138 H 0.60447 0.74804 0.26392 0.0
O1139 O 0.60005 0.70412 0.21677 0.0
C1140 C 0.5869 0.74224 0.19827 0.0
O1141 O 0.58107 0.74514 0.21671 0.0
N1142 N 0.58122 0.70712 0.25229 0.0
C1143 C 0.57029 0.69321 0.29364 0.0
C1144 C 0.57552 0.6839 0.27886 0.0
C1145 C 0.58047 0.69081 0.25808 0.0
C1146 C 0.57455 0.71533 0.26586 0.0
C1147 C 0.56939 0.70887 0.2868 0.0
H1148 H 0.58319 0.68268 0.24669 0.0
H1149 H 0.57326 0.72703 0.26035 0.0
H1150 H 0.56662 0.67352 0.21117 0.0
H1151 H 0.51942 0.6801 0.20666 0.0
H1152 H 0.6524 0.77204 0.22514 0.0
H1153 H 0.57541 0.67116 0.2832 0.0
H1154 H 0.56495 0.7162 0.29755 0.0
C1155 C 0.31914 0.85591 0.21355 0.0
C1156 C 0.33559 0.85682 0.20787 0.0
N1157 N 0.34855 0.87485 0.20432 0.0
N1158 N 0.3215 0.87321 0.21367 0.0
C1159 C 0.33956 0.88454 0.20791 0.0
H1160 H 0.3064 0.84345 0.21821 0.0
Co1161 Co 0.30245 0.87699 0.22345 0.0
C1162 C 0.31718 0.91714 0.22789 0.0
O1163 O 0.30789 0.91297 0.24606 0.0
N1164 N 0.28207 0.87985 0.23304 0.0
C1165 C 0.259 0.88643 0.23139 0.0
C1166 C 0.27469 0.88837 0.22136 0.0
C1167 C 0.27023 0.87249 0.24991 0.0
N1168 N 0.25618 0.87635 0.24935 0.0
O1169 O 0.29097 0.87056 0.19566 0.0
H1170 H 0.28017 0.89526 0.20615 0.0
H1171 H 0.27145 0.8641 0.26227 0.0
O1172 O 0.31693 0.90414 0.21634 0.0
C1173 C 0.27738 0.85384 0.19702 0.0
O1174 O 0.27436 0.84495 0.21536 0.0
N1175 N 0.31312 0.88119 0.25089 0.0
C1176 C 0.32726 0.88308 0.29205 0.0
C1177 C 0.33775 0.89674 0.27658 0.0
C1178 C 0.3305 0.89546 0.25609 0.0
C1179 C 0.3039 0.86668 0.26472 0.0
C1180 C 0.3102 0.86767 0.28564 0.0
H1181 H 0.33916 0.90576 0.24436 0.0
H1182 H 0.2915 0.85417 0.25946 0.0
H1183 H 0.34608 0.89958 0.20696 0.0
H1184 H 0.33793 0.84508 0.20743 0.0
H1185 H 0.25 0.89144 0.22546 0.0
H1186 H 0.35158 0.90823 0.28003 0.0
H1187 H 0.30158 0.85645 0.29654 0.0
C1188 C 0.2024 0.21514 0.31832 0.0
C1189 C 0.21706 0.23086 0.32832 0.0
C1190 C 0.20367 0.21157 0.2967 0.0
C1191 C 0.216 0.20242 0.25435 0.0
H1192 H 0.23433 0.24395 0.21451 0.0
C1193 C 0.2477 0.223 0.16359 0.0
C1194 C 0.23448 0.2074 0.15203 0.0
C1195 C 0.24465 0.22515 0.18508 0.0
C1196 C 0.22934 0.23225 0.22548 0.0
H1197 H 0.2445 0.25513 0.32371 0.0
H1198 H 0.24679 0.2488 0.28598 0.0
H1199 H 0.23078 0.24902 0.25228 0.0
H1200 H 0.20777 0.18175 0.15382 0.0
H1201 H 0.20237 0.18557 0.19157 0.0
H1202 H 0.21481 0.18571 0.22753 0.0
C1203 C 0.23429 0.23933 0.29481 0.0
C1204 C 0.2273 0.23515 0.24706 0.0
C1205 C 0.23306 0.24285 0.31641 0.0
C1206 C 0.21826 0.19382 0.16245 0.0
C1207 C 0.21517 0.19601 0.184 0.0
C1208 C 0.2181 0.19952 0.23272 0.0
C1209 C 0.21956 0.22373 0.28473 0.0
C1210 C 0.22083 0.22033 0.26173 0.0
C1211 C 0.22829 0.21179 0.19545 0.0
C1212 C 0.22502 0.21448 0.21814 0.0
H1213 H 0.18999 0.20558 0.32723 0.0
H1214 H 0.1921 0.19948 0.28926 0.0
H1215 H 0.21109 0.19079 0.2654 0.0
H1216 H 0.26048 0.2335 0.15603 0.0
H1217 H 0.25519 0.23725 0.19363 0.0
C1218 C 0.78922 0.01794 0.16369 0.0
C1219 C 0.80488 0.02066 0.15193 0.0
C1220 C 0.78777 0.01374 0.18549 0.0
C1221 C 0.80451 0.99503 0.22778 0.0
H1222 H 0.78913 0.02228 0.26536 0.0
C1223 C 0.80291 0.98815 0.32026 0.0
C1224 C 0.7873 0.98708 0.33061 0.0
C1225 C 0.80601 0.99257 0.29846 0.0
C1226 C 0.79327 0.01443 0.25506 0.0
H1227 H 0.83104 0.02055 0.15355 0.0
H1228 H 0.82851 0.01325 0.19185 0.0
H1229 H 0.79248 0.02894 0.22707 0.0
H1230 H 0.76245 0.98928 0.32624 0.0
H1231 H 0.76776 0.99685 0.28827 0.0
H1232 H 0.80504 0.98034 0.2558 0.0
C1233 C 0.81738 0.01437 0.18412 0.0
C1234 C 0.79519 0.01825 0.23315 0.0
C1235 C 0.81889 0.01868 0.16229 0.0
C1236 C 0.77479 0.99036 0.31877 0.0
C1237 C 0.77784 0.99471 0.29703 0.0
C1238 C 0.8025 0.99114 0.24974 0.0
C1239 C 0.80192 0.01211 0.19596 0.0
C1240 C 0.80062 0.00845 0.21928 0.0
C1241 C 0.79352 0.99594 0.28665 0.0
C1242 C 0.79665 1.00067 0.26355 0.0
H1243 H 0.7783 0.01955 0.15616 0.0
H1244 H 0.77558 0.01184 0.19419 0.0
H1245 H 0.80861 0.9872 0.21739 0.0
H1246 H 0.81287 0.98585 0.32907 0.0
H1247 H 0.81831 0.99361 0.29093 0.0
C1248 C 0.0271 0.81694 0.32195 0.0
C1249 C 0.02785 0.80233 0.33251 0.0
C1250 C 0.02223 0.81532 0.30031 0.0
C1251 C 0.99972 0.78048 0.25707 0.0
H1252 H 0.0285 0.82275 0.21945 0.0
C1253 C 0.99851 0.77313 0.16558 0.0
C1254 C 0.99636 0.78628 0.15357 0.0
C1255 C 1.00199 0.77565 0.18754 0.0
C1256 C 0.02024 0.81091 0.22983 0.0
H1257 H 0.02426 0.77466 0.32876 0.0
H1258 H 0.01598 0.77188 0.29099 0.0
H1259 H 0.03471 0.826 0.25794 0.0
H1260 H 0.99667 0.81264 0.15488 0.0
H1261 H 1.00281 0.81707 0.19341 0.0
H1262 H 0.98553 0.7653 0.22888 0.0
C1263 C 0.01873 0.78443 0.29948 0.0
C1264 C 0.02374 0.81277 0.25184 0.0
C1265 C 0.0235 0.78602 0.3211 0.0
C1266 C 0.99813 0.80222 0.16383 0.0
C1267 C 1.00176 0.80481 0.18579 0.0
C1268 C 0.99631 0.7786 0.23508 0.0
C1269 C 0.01811 0.79908 0.28882 0.0
C1270 C 0.01364 0.7975 0.26566 0.0
C1271 C 1.0035 0.79143 0.19786 0.0
C1272 C 1.00667 0.79374 0.22124 0.0
H1273 H 0.03017 0.82958 0.33046 0.0
H1274 H 0.02162 0.82673 0.29259 0.0
H1275 H 0.99147 0.76857 0.26735 0.0
H1276 H 0.99705 0.76064 0.1581 0.0
H1277 H 1.0035 0.76523 0.19645 0.0
C1278 C 0.79043 0.76926 0.66328 0.0
C1279 C 0.80597 0.7823 0.65142 0.0
C1280 C 0.78871 0.77234 0.68492 0.0
C1281 C 0.80413 0.80936 0.72523 0.0
H1282 H 0.78778 0.76832 0.76547 0.0
C1283 C 0.80161 0.81849 0.8169 0.0
C1284 C 0.78594 0.80446 0.82771 0.0
C1285 C 0.80466 0.81628 0.79534 0.0
C1286 C 0.79218 0.77987 0.75439 0.0
H1287 H 0.83179 0.80889 0.65279 0.0
H1288 H 0.82887 0.8142 0.69078 0.0
H1289 H 0.79213 0.76348 0.72785 0.0
H1290 H 0.76087 0.77744 0.82436 0.0
H1291 H 0.7661 0.77362 0.78672 0.0
H1292 H 0.80401 0.8257 0.75178 0.0
C1293 C 0.81799 0.80165 0.68326 0.0
C1294 C 0.79469 0.7771 0.73288 0.0
C1295 C 0.81975 0.79852 0.66161 0.0
C1296 C 0.77322 0.78834 0.8165 0.0
C1297 C 0.77624 0.78614 0.79498 0.0
C1298 C 0.80158 0.81213 0.74677 0.0
C1299 C 0.80248 0.78856 0.69512 0.0
C1300 C 0.80053 0.79177 0.71806 0.0
C1301 C 0.79207 0.80001 0.78423 0.0
C1302 C 0.79542 0.79735 0.76152 0.0
H1303 H 0.77967 0.75656 0.65588 0.0
H1304 H 0.7765 0.76212 0.69363 0.0
H1305 H 0.80847 0.82086 0.7141 0.0
H1306 H 0.81176 0.83096 0.82523 0.0
H1307 H 0.81708 0.82711 0.78751 0.0
C1308 C 0.23286 0.98955 0.81824 0.0
C1309 C 0.21717 0.98665 0.83008 0.0
C1310 C 0.23402 0.99334 0.79634 0.0
C1311 C 0.21664 0.0116 0.75442 0.0
H1312 H 0.23367 0.98617 0.7162 0.0
C1313 C 0.21965 0.02143 0.66252 0.0
C1314 C 0.23563 0.02334 0.6522 0.0
C1315 C 0.21617 0.01602 0.68401 0.0
C1316 C 0.22905 0.99351 0.72668 0.0
H1317 H 0.19052 0.98572 0.82843 0.0
H1318 H 0.19255 0.99235 0.78997 0.0
H1319 H 0.22997 0.97867 0.75432 0.0
H1320 H 0.26063 0.02135 0.65629 0.0
H1321 H 0.25469 0.0121 0.69381 0.0
H1322 H 0.21607 0.02672 0.72686 0.0
C1323 C 0.20393 0.99169 0.7977 0.0
C1324 C 0.22692 0.98919 0.74849 0.0
C1325 C 0.20271 0.98776 0.81963 0.0
C1326 C 0.24804 0.01971 0.66374 0.0
C1327 C 0.24462 0.01438 0.68522 0.0
C1328 C 0.21887 0.016 0.7326 0.0
C1329 C 0.21955 0.99439 0.78585 0.0
C1330 C 0.22088 0.99834 0.76259 0.0
C1331 C 0.22866 0.01248 0.6956 0.0
C1332 C 0.22529 1.00713 0.71854 0.0
H1333 H 0.24413 0.9886 0.82585 0.0
H1334 H 0.24632 0.99557 0.78762 0.0
H1335 H 0.21212 0.01898 0.765 0.0
H1336 H 0.20973 0.02392 0.65391 0.0
H1337 H 0.20363 0.01444 0.69149 0.0
C1338 C 0.99786 0.22379 0.65963 0.0
C1339 C 0.98849 0.20639 0.6492 0.0
C1340 C 1.00135 0.22489 0.68158 0.0
C1341 C 1.00003 0.19626 0.72883 0.0
H1342 H 1.00424 0.23905 0.75914 0.0
C1343 C 0.02623 0.21206 0.81593 0.0
C1344 C 0.02162 0.2231 0.82891 0.0
C1345 C 0.02066 0.20868 0.79453 0.0
C1346 C 1.00267 0.22672 0.7512 0.0
H1347 H 0.97583 0.17643 0.65419 0.0
H1348 H 0.98014 0.17828 0.69252 0.0
H1349 H 0.99682 0.23545 0.72159 0.0
H1350 H 1.00649 0.23836 0.82934 0.0
H1351 H 0.99515 0.23074 0.79314 0.0
H1352 H 1.00424 0.18669 0.75889 0.0
C1353 C 0.98556 0.1912 0.68363 0.0
C1354 C 0.99889 0.22491 0.7293 0.0
C1355 C 0.98268 0.19012 0.6615 0.0
C1356 C 1.01028 0.22966 0.82015 0.0
C1357 C 1.00409 0.22564 0.79901 0.0
C1358 C 1.00311 0.19771 0.75092 0.0
C1359 C 0.99492 0.20861 0.69402 0.0
C1360 C 0.99792 0.20988 0.71766 0.0
C1361 C 1.00968 0.2156 0.78565 0.0
C1362 C 1.00486 0.21316 0.76239 0.0
H1363 H 1.00232 0.2367 0.65102 0.0
H1364 H 1.00911 0.23862 0.68869 0.0
H1365 H 0.99963 0.18457 0.72056 0.0
H1366 H 0.03439 0.20616 0.82207 0.0
H1367 H 0.0255 0.20105 0.7849 0.0
C1368 C 0.86347 0.54762 0.65588 0.0
C1369 C 0.87742 0.56372 0.66609 0.0
C1370 C 0.86478 0.54486 0.63401 0.0
C1371 C 0.87834 0.53828 0.59101 0.0
H1372 H 0.89297 0.57989 0.55201 0.0
C1373 C 0.91026 0.5619 0.50082 0.0
C1374 C 0.8988 0.54541 0.48942 0.0
C1375 C 0.90613 0.56378 0.52202 0.0
C1376 C 0.88901 0.56819 0.56273 0.0
H1377 H 0.90354 0.58961 0.66151 0.0
H1378 H 0.9059 0.58472 0.62335 0.0
H1379 H 0.88871 0.58372 0.58999 0.0
H1380 H 0.8738 0.51816 0.49103 0.0
H1381 H 0.8665 0.52149 0.52815 0.0
H1382 H 0.87904 0.52285 0.56385 0.0
C1383 C 0.89393 0.5743 0.63222 0.0
C1384 C 0.88656 0.57037 0.58443 0.0
C1385 C 0.89269 0.57699 0.65407 0.0
C1386 C 0.88301 0.53091 0.49956 0.0
C1387 C 0.87884 0.53282 0.52077 0.0
C1388 C 0.88088 0.53611 0.56929 0.0
C1389 C 0.87997 0.55825 0.62198 0.0
C1390 C 0.88143 0.55552 0.5988 0.0
C1391 C 0.89042 0.54925 0.53225 0.0
C1392 C 0.88648 0.55112 0.55499 0.0
H1393 H 0.85161 0.53712 0.66484 0.0
H1394 H 0.8538 0.5324 0.62645 0.0
H1395 H 0.87454 0.52665 0.60181 0.0
H1396 H 0.92267 0.57319 0.49348 0.0
H1397 H 0.91551 0.57647 0.53055 0.0
C1398 C 0.45578 0.35097 0.49896 0.0
C1399 C 0.47261 0.35606 0.48826 0.0
C1400 C 0.45352 0.34559 0.52043 0.0
C1401 C 0.44861 0.32586 0.56262 0.0
H1402 H 0.48979 0.35412 0.6017 0.0
C1403 C 0.4685 0.32251 0.65619 0.0
C1404 C 0.4524 0.32054 0.66625 0.0
C1405 C 0.47139 0.32644 0.6343 0.0
C1406 C 0.47826 0.346 0.59091 0.0
H1407 H 0.50006 0.35896 0.49133 0.0
H1408 H 0.49603 0.34927 0.52886 0.0
H1409 H 0.49397 0.36127 0.56345 0.0
H1410 H 0.42672 0.3211 0.66149 0.0
H1411 H 0.4318 0.32804 0.62319 0.0
H1412 H 0.43279 0.3109 0.59023 0.0
C1413 C 0.48473 0.34983 0.52077 0.0
C1414 C 0.48065 0.35003 0.56903 0.0
C1415 C 0.48703 0.35533 0.49931 0.0
C1416 C 0.43931 0.3227 0.65412 0.0
C1417 C 0.44212 0.32647 0.63222 0.0
C1418 C 0.44619 0.32193 0.58451 0.0
C1419 C 0.468 0.34506 0.53161 0.0
C1420 C 0.46579 0.3401 0.55467 0.0
C1421 C 0.45814 0.32829 0.62211 0.0
C1422 C 0.46094 0.33206 0.59886 0.0
H1423 H 0.44454 0.35166 0.49089 0.0
H1424 H 0.44059 0.34232 0.52841 0.0
H1425 H 0.43701 0.31773 0.55193 0.0
H1426 H 0.47887 0.32104 0.66525 0.0
H1427 H 0.48382 0.32771 0.62684 0.0
C1428 C 0.69918 0.15338 0.65796 0.0
C1429 C 0.70162 0.13957 0.66806 0.0
C1430 C 0.69455 0.15183 0.63623 0.0
C1431 C 0.67462 0.11713 0.59264 0.0
H1432 H 0.69848 0.16047 0.55539 0.0
C1433 C 0.66969 0.11067 0.50109 0.0
C1434 C 0.66517 0.12275 0.49024 0.0
C1435 C 0.67447 0.11343 0.52274 0.0
C1436 C 0.69161 0.1483 0.56567 0.0
H1437 H 0.70165 0.11361 0.66334 0.0
H1438 H 0.69377 0.11098 0.62546 0.0
H1439 H 0.70589 0.16391 0.59363 0.0
H1440 H 0.66273 0.14757 0.49323 0.0
H1441 H 0.67105 0.15238 0.53123 0.0
H1442 H 0.66053 0.10149 0.56467 0.0
C1443 C 0.69497 0.12277 0.63436 0.0
C1444 C 0.69579 0.15026 0.58753 0.0
C1445 C 0.6995 0.12429 0.65605 0.0
C1446 C 0.66598 0.13794 0.50129 0.0
C1447 C 0.67088 0.14078 0.52294 0.0
C1448 C 0.67052 0.11516 0.57081 0.0
C1449 C 0.69237 0.13647 0.62423 0.0
C1450 C 0.68744 0.13466 0.6012 0.0
C1451 C 0.67491 0.12839 0.53392 0.0
C1452 C 0.67908 0.13069 0.5571 0.0
H1453 H 0.70057 0.16523 0.66693 0.0
H1454 H 0.69242 0.1625 0.62891 0.0
H1455 H 0.66767 0.10492 0.60283 0.0
H1456 H 0.66904 0.09877 0.49299 0.0
H1457 H 0.67773 0.1038 0.53079 0.0
C1458 C 0.43926 0.1241 0.1464 0.0
C1459 C 0.45223 0.14011 0.15759 0.0
C1460 C 0.44242 0.12159 0.12503 0.0
C1461 C 0.45866 0.11431 0.08528 0.0
H1462 H 0.47709 0.1552 0.04453 0.0
C1463 C 0.4891 0.13212 -0.00649 0.0
C1464 C 0.47529 0.11609 0.98307 0.0
C1465 C 0.48688 0.13535 0.01499 0.0
C1466 C 0.47215 0.14373 0.05581 0.0
H1467 H 0.47866 0.16604 0.15527 0.0
H1468 H 0.48419 0.16162 0.11785 0.0
H1469 H 0.47176 0.16045 0.08176 0.0
H1470 H 0.44854 0.09072 0.9869 0.0
H1471 H 0.44457 0.09648 0.02432 0.0
H1472 H 0.45892 0.09756 0.05933 0.0
C1473 C 0.47147 0.15116 0.12554 0.0
C1474 C 0.4691 0.14672 0.07708 0.0
C1475 C 0.4683 0.15369 0.14693 0.0
C1476 C 0.45932 0.10329 -0.00549 0.0
C1477 C 0.45714 0.10648 0.01597 0.0
C1478 C 0.46169 0.11132 0.06403 0.0
C1479 C 0.45863 0.13501 0.11444 0.0
C1480 C 0.46221 0.132 0.09198 0.0
C1481 C 0.47088 0.12255 0.0264 0.0
C1482 C 0.46835 0.12596 0.04907 0.0
H1483 H 0.42662 0.11355 0.15416 0.0
H1484 H 0.43211 0.10916 0.11675 0.0
H1485 H 0.45368 0.1028 0.09651 0.0
H1486 H 0.50147 0.14228 0.985 0.0
H1487 H 0.49774 0.14779 0.02272 0.0
C1488 C 0.89848 0.31602 0.14916 0.0
C1489 C 0.88288 0.31343 0.16097 0.0
C1490 C 0.90032 0.32103 0.12757 0.0
C1491 C 0.89513 0.32118 0.07952 0.0
H1492 H 0.88553 0.36064 0.06213 0.0
C1493 C 0.88948 0.35839 -0.00299 0.0
C1494 C 0.90562 0.36091 0.98651 0.0
C1495 C 0.88588 0.35211 0.01821 0.0
C1496 C 0.88802 0.34944 0.0667 0.0
H1497 H 0.85703 0.31415 0.15952 0.0
H1498 H 0.86013 0.32268 0.12166 0.0
H1499 H 0.88054 0.3502 0.09939 0.0
H1500 H 0.93091 0.35936 0.99007 0.0
H1501 H 0.92468 0.34847 0.02705 0.0
H1502 H 0.90272 0.32048 0.0469 0.0
C1503 C 0.87096 0.32093 0.12916 0.0
C1504 C 0.88517 0.34347 0.08801 0.0
C1505 C 0.8691 0.31585 0.15074 0.0
C1506 C 0.91819 0.35723 -0.00235 0.0
C1507 C 0.91461 0.35098 0.0188 0.0
C1508 C 0.89796 0.32713 0.05824 0.0
C1509 C 0.88662 0.32361 0.11739 0.0
C1510 C 0.88886 0.3294 0.09465 0.0
C1511 C 0.89838 0.34825 0.02926 0.0
C1512 C 0.8946 0.34144 0.05166 0.0
H1513 H 0.90924 0.31412 0.15661 0.0
H1514 H 0.91263 0.32321 0.11895 0.0
H1515 H 0.89779 0.31009 0.08413 0.0
H1516 H 0.87944 0.36091 0.98872 0.0
H1517 H 0.87316 0.34995 0.02582 0.0
C1518 C 0.65337 0.53329 -2e-05 0.0
C1519 C 0.65828 0.54903 0.98704 0.0
C1520 C 0.65873 0.53533 0.02145 0.0
C1521 C 0.67771 0.57108 0.06513 0.0
H1522 H 0.6829 0.5324 0.09382 0.0
C1523 C 0.68914 0.57406 0.156 0.0
C1524 C 0.69937 0.56628 0.16483 0.0
C1525 C 0.68397 0.57139 0.13447 0.0
C1526 C 0.6819 0.54357 0.08608 0.0
H1527 H 0.67322 0.57941 0.9869 0.0
H1528 H 0.68414 0.58289 0.0233 0.0
H1529 H 0.6761 0.52964 0.05595 0.0
H1530 H 0.71187 0.54919 0.15746 0.0
H1531 H 0.70462 0.54624 0.11974 0.0
H1532 H 0.68517 0.58584 0.0947 0.0
C1533 C 0.67525 0.56889 0.01729 0.0
C1534 C 0.67754 0.54176 0.06428 0.0
C1535 C 0.66931 0.56686 -0.00394 0.0
C1536 C 0.70439 0.55584 0.15136 0.0
C1537 C 0.6998 0.55374 0.12962 0.0
C1538 C 0.68274 0.57321 0.0867 0.0
C1539 C 0.66976 0.55317 0.03046 0.0
C1540 C 0.67515 0.55539 0.05353 0.0
C1541 C 0.68949 0.56146 0.12084 0.0
C1542 C 0.68466 0.55937 0.09761 0.0
H1543 H 0.64534 0.51928 -0.00633 0.0
H1544 H 0.6539 0.52281 0.03098 0.0
H1545 H 0.67566 0.58175 0.05774 0.0
H1546 H 0.68524 0.58251 0.16555 0.0
H1547 H 0.6756 0.57717 0.12863 0.0
C1548 C 0.52893 0.88206 0.98525 0.0
C1549 C 0.54284 0.89862 -0.00529 0.0
C1550 C 0.52903 0.87935 0.96317 0.0
C1551 C 0.54124 0.87356 0.91896 0.0
H1552 H 0.5514 0.9141 0.87992 0.0
C1553 C 0.57088 0.89808 0.82853 0.0
C1554 C 0.5606 0.88117 0.81743 0.0
C1555 C 0.56627 0.89977 0.84957 0.0
C1556 C 0.54864 0.90269 0.89064 0.0
H1557 H 0.56757 0.92542 0.98864 0.0
H1558 H 0.56783 0.92064 0.95007 0.0
H1559 H 0.54813 0.91782 0.91821 0.0
H1560 H 0.537 0.85299 0.81928 0.0
H1561 H 0.52883 0.85598 0.85614 0.0
H1562 H 0.54233 0.85863 0.89154 0.0
C1563 C 0.55681 0.90981 0.95969 0.0
C1564 C 0.54675 0.90481 0.91251 0.0
C1565 C 0.55679 0.91245 0.98175 0.0
C1566 C 0.54532 0.8661 0.8276 0.0
C1567 C 0.54066 0.86781 0.84866 0.0
C1568 C 0.54322 0.87146 0.89708 0.0
C1569 C 0.54294 0.89325 0.95021 0.0
C1570 C 0.54335 0.89039 0.92689 0.0
C1571 C 0.55122 0.88461 0.85993 0.0
C1572 C 0.54726 0.88613 0.88276 0.0
H1573 H 0.51809 0.87113 -0.00506 0.0
H1574 H 0.51816 0.86648 0.9562 0.0
H1575 H 0.53879 0.86229 0.92976 0.0
H1576 H 0.58289 0.90983 0.82117 0.0
H1577 H 0.57489 0.91279 0.85795 0.0
C1578 C 0.10803 0.651 0.981 0.0
C1579 C 0.12209 0.65067 -0.00673 0.0
C1580 C 0.11015 0.65373 0.95889 0.0
C1581 C 0.14558 0.67386 0.91682 0.0
H1582 H 0.10387 0.64395 0.87903 0.0
C1583 C 0.15152 0.6832 0.82502 0.0
C1584 C 0.13656 0.68367 0.81498 0.0
C1585 C 0.15004 0.67751 0.84636 0.0
C1586 C 0.1156 0.65248 0.8894 0.0
H1587 H 0.14947 0.65316 0.99217 0.0
H1588 H 0.15316 0.65789 0.9534 0.0
H1589 H 0.10078 0.63736 0.91741 0.0
H1590 H 0.10836 0.67862 0.81933 0.0
H1591 H 0.10582 0.66883 0.85655 0.0
H1592 H 0.16025 0.68928 0.88893 0.0
C1593 C 0.14052 0.65604 0.96093 0.0
C1594 C 0.11383 0.6487 0.91133 0.0
C1595 C 0.13835 0.6532 0.98304 0.0
C1596 C 0.12002 0.67812 0.82656 0.0
C1597 C 0.11855 0.67248 0.84787 0.0
C1598 C 0.14732 0.67769 0.89489 0.0
C1599 C 0.12641 0.65628 0.94865 0.0
C1600 C 0.12871 0.65952 0.92527 0.0
C1601 C 0.13358 0.67224 0.85804 0.0
C1602 C 0.13226 0.66721 0.881 0.0
H1603 H 0.09529 0.64892 0.98847 0.0
H1604 H 0.09915 0.65408 0.94983 0.0
H1605 H 0.1572 0.68253 0.92726 0.0
H1606 H 0.16434 0.68717 0.81636 0.0
H1607 H 0.16176 0.67722 0.85371 0.0
C1608 C 0.35004 0.47376 -0.00269 0.0
C1609 C 0.35266 0.45998 0.0072 0.0
C1610 C 0.34413 0.4717 0.97603 0.0
C1611 C 0.32213 0.43677 0.93282 0.0
H1612 H 0.34768 0.47987 0.89546 0.0
C1613 C 0.31964 0.43138 0.84073 0.0
C1614 C 0.31749 0.44481 0.82931 0.0
C1615 C 0.32252 0.43306 0.86284 0.0
C1616 C 0.34025 0.46778 0.90576 0.0
H1617 H 0.35113 0.43326 0.00269 0.0
H1618 H 0.34098 0.42972 0.96548 0.0
H1619 H 0.35506 0.48308 0.93359 0.0
H1620 H 0.31675 0.47059 0.83197 0.0
H1621 H 0.32165 0.47346 0.87069 0.0
H1622 H 0.30761 0.42141 0.90483 0.0
C1623 C 0.34315 0.44195 0.97426 0.0
C1624 C 0.34445 0.46962 0.92758 0.0
C1625 C 0.34899 0.44398 -0.00446 0.0
C1626 C 0.31819 0.45993 0.84041 0.0
C1627 C 0.32116 0.46166 0.86251 0.0
C1628 C 0.31799 0.43493 0.91097 0.0
C1629 C 0.3408 0.45585 0.96423 0.0
C1630 C 0.33555 0.4541 0.94131 0.0
C1631 C 0.3234 0.44827 0.87392 0.0
C1632 C 0.32712 0.45038 0.89722 0.0
H1633 H 0.35249 0.4861 0.00605 0.0
H1634 H 0.34216 0.48251 0.96883 0.0
H1635 H 0.31484 0.42463 0.94306 0.0
H1636 H 0.31901 0.41951 0.83258 0.0
H1637 H 0.3244 0.42264 0.87122 0.0
C1638 C 0.11593 0.44635 0.32833 0.0
C1639 C 0.13082 0.46001 0.31617 0.0
C1640 C 0.11494 0.44874 0.35031 0.0
C1641 C 0.13208 0.48295 0.39411 0.0
H1642 H 0.12344 0.4403 0.42863 0.0
C1643 C 0.13894 0.48689 0.48629 0.0
C1644 C 0.12499 0.47164 0.49776 0.0
C1645 C 0.14032 0.48589 0.46407 0.0
C1646 C 0.12567 0.45227 0.41923 0.0
H1647 H 0.15576 0.48733 0.3172 0.0
H1648 H 0.15403 0.49151 0.3558 0.0
H1649 H 0.12353 0.43823 0.3897 0.0
H1650 H 0.10158 0.44344 0.49504 0.0
H1651 H 0.10388 0.44171 0.4563 0.0
H1652 H 0.13402 0.49693 0.42368 0.0
C1653 C 0.14316 0.47896 0.34827 0.0
C1654 C 0.12571 0.45107 0.39695 0.0
C1655 C 0.14421 0.47653 0.32625 0.0
C1656 C 0.11266 0.45529 0.48665 0.0
C1657 C 0.11398 0.45432 0.46446 0.0
C1658 C 0.13194 0.48412 0.41645 0.0
C1659 C 0.12879 0.46485 0.36057 0.0
C1660 C 0.12879 0.46634 0.38418 0.0
C1661 C 0.12773 0.46965 0.4529 0.0
C1662 C 0.12862 0.46874 0.42923 0.0
H1663 H 0.10552 0.43338 0.32108 0.0
H1664 H 0.10357 0.43776 0.3594 0.0
H1665 H 0.13441 0.49489 0.3846 0.0
H1666 H 0.14877 0.49959 0.4945 0.0
H1667 H 0.15125 0.49782 0.45564 0.0
C1668 C 0.53265 0.65025 0.48302 0.0
C1669 C 0.54654 0.64788 0.49302 0.0
C1670 C 0.53353 0.65378 0.46104 0.0
C1671 C 0.55418 0.64914 0.41089 0.0
H1672 H 0.54758 0.68991 0.39104 0.0
C1673 C 0.57718 0.6812 0.32707 0.0
C1674 C 0.5658 0.68653 0.31602 0.0
C1675 C 0.5733 0.67524 0.34831 0.0
C1676 C 0.54915 0.67829 0.39627 0.0
H1677 H 0.57203 0.64698 0.48793 0.0
H1678 H 0.57365 0.65328 0.44953 0.0
H1679 H 0.54342 0.68157 0.42896 0.0
H1680 H 0.54123 0.68948 0.31833 0.0
H1681 H 0.53435 0.67894 0.35553 0.0
H1682 H 0.56003 0.6459 0.37827 0.0
C1683 C 0.56204 0.65231 0.45865 0.0
C1684 C 0.5468 0.67354 0.41798 0.0
C1685 C 0.56122 0.6489 0.48063 0.0
C1686 C 0.55037 0.68567 0.32657 0.0
C1687 C 0.54644 0.67965 0.34784 0.0
C1688 C 0.55645 0.65383 0.38919 0.0
C1689 C 0.54825 0.65486 0.44868 0.0
C1690 C 0.54954 0.65909 0.42551 0.0
C1691 C 0.55791 0.67443 0.35894 0.0
C1692 C 0.55422 0.66862 0.3817 0.0
H1693 H 0.52127 0.64969 0.49225 0.0
H1694 H 0.52267 0.65559 0.4537 0.0
H1695 H 0.55609 0.63774 0.41625 0.0
H1696 H 0.58934 0.682 0.31943 0.0
H1697 H 0.58261 0.67166 0.35656 0.0
C1698 C 0.34552 0.90273 0.3236 0.0
C1699 C 0.334 0.88497 0.3146 0.0
C1700 C 0.35117 0.90461 0.34494 0.0
C1701 C 0.35077 0.87689 0.3929 0.0
H1702 H 0.35942 0.92172 0.42235 0.0
C1703 C 0.37314 0.88919 0.48158 0.0
C1704 C 0.36834 0.90021 0.49431 0.0
C1705 C 0.36982 0.88758 0.45954 0.0
C1706 C 0.35668 0.90889 0.41462 0.0
H1707 H 0.3201 0.85517 0.32136 0.0
H1708 H 0.32811 0.85852 0.35879 0.0
H1709 H 0.35141 0.91802 0.38494 0.0
H1710 H 0.35595 0.91803 0.49335 0.0
H1711 H 0.34836 0.91356 0.4558 0.0
H1712 H 0.35417 0.86695 0.42309 0.0
C1713 C 0.33353 0.87108 0.34921 0.0
C1714 C 0.35254 0.90697 0.39279 0.0
C1715 C 0.32848 0.86916 0.32763 0.0
C1716 C 0.35961 0.90913 0.48438 0.0
C1717 C 0.35565 0.90693 0.46251 0.0
C1718 C 0.35419 0.8785 0.41492 0.0
C1719 C 0.34487 0.88885 0.35825 0.0
C1720 C 0.3496 0.89097 0.38154 0.0
C1721 C 0.36095 0.89636 0.44966 0.0
C1722 C 0.35726 0.89456 0.42613 0.0
H1723 H 0.34994 0.91535 0.31441 0.0
H1724 H 0.36037 0.91854 0.35094 0.0
H1725 H 0.34902 0.86451 0.3849 0.0
H1726 H 0.37944 0.88166 0.48848 0.0
H1727 H 0.37446 0.87956 0.45033 0.0
C1728 C 0.27722 0.26652 0.05925 0.0
C1729 C 0.28854 0.25828 0.05929 0.0
C1730 C 0.28495 0.28558 0.06411 0.0
C1731 C 0.32539 0.32221 0.09404 0.0
H1732 H 0.31261 0.35696 0.06821 0.0
C1733 C 0.37227 0.40161 0.09894 0.0
C1734 C 0.36423 0.413 0.10075 0.0
C1735 C 0.36106 0.38227 0.09727 0.0
C1736 C 0.31605 0.34731 0.07585 0.0
H1737 H 0.31691 0.26372 0.06238 0.0
H1738 H 0.33045 0.29684 0.06984 0.0
H1739 H 0.29711 0.32448 0.05586 0.0
H1740 H 0.33812 0.41307 0.10312 0.0
H1741 H 0.31834 0.379 0.09995 0.0
H1742 H 0.34465 0.34503 0.11358 0.0
C1743 C 0.31555 0.28863 0.06696 0.0
C1744 C 0.30724 0.32873 0.06871 0.0
C1745 C 0.30785 0.26969 0.06236 0.0
C1746 C 0.34469 0.40458 0.10208 0.0
C1747 C 0.33338 0.38513 0.09997 0.0
C1748 C 0.3342 0.34071 0.10108 0.0
C1749 C 0.30411 0.29665 0.06893 0.0
C1750 C 0.31218 0.31608 0.07734 0.0
C1751 C 0.34149 0.37383 0.09696 0.0
C1752 C 0.32998 0.3536 0.09176 0.0
H1753 H 0.26225 0.25801 0.05715 0.0
H1754 H 0.27575 0.29132 0.06538 0.0
H1755 H 0.32914 0.31273 0.10156 0.0
H1756 H 0.38729 0.40779 0.09757 0.0
H1757 H 0.36778 0.37403 0.09481 0.0
C1758 C 0.61089 0.97113 0.08413 0.0
C1759 C 0.59909 0.95196 0.08782 0.0
C1760 C 0.62988 0.97838 0.0801 0.0
C1761 C 0.66956 0.96966 0.0825 0.0
H1762 H 0.68785 1.00566 0.03595 0.0
C1763 C 0.74717 1.00708 0.05467 0.0
C1764 C 0.75524 0.0266 0.05471 0.0
C1765 C 0.72765 0.99556 0.05556 0.0
C1766 C 0.68298 0.9956 0.04894 0.0
H1767 H 0.59817 0.92547 0.09144 0.0
H1768 H 0.63163 0.93821 0.08442 0.0
H1769 H 0.65503 0.99041 0.04605 0.0
H1770 H 0.74948 0.04937 0.05452 0.0
H1771 H 0.71566 0.02949 0.0552 0.0
H1772 H 0.69778 0.97526 0.08557 0.0
C1773 C 0.6261 0.94763 0.08471 0.0
C1774 C 0.66417 0.98693 0.05484 0.0
C1775 C 0.60696 0.94034 0.08889 0.0
C1776 C 0.74356 0.03436 0.0541 0.0
C1777 C 0.72418 0.02293 0.05458 0.0
C1778 C 0.68847 0.97837 0.07655 0.0
C1779 C 0.63761 0.96663 0.07944 0.0
C1780 C 0.65731 0.97427 0.07211 0.0
C1781 C 0.71597 1.00343 0.0561 0.0
C1782 C 0.69549 0.99183 0.06007 0.0
H1783 H 0.60524 0.98045 0.08334 0.0
H1784 H 0.63842 0.99317 0.07678 0.0
H1785 H 0.66473 0.95995 0.09583 0.0
H1786 H 0.75591 1.00077 0.05558 0.0
H1787 H 0.72173 0.98057 0.05658 0.0
C1788 C 0.98553 0.71245 0.0589 0.0
C1789 C 0.99343 0.73189 0.05784 0.0
C1790 C 0.99679 0.70447 0.06154 0.0
C1791 C 0.04498 0.71225 0.06113 0.0
H1792 H 0.02429 0.67345 0.10458 0.0
C1793 C 0.08329 0.67324 0.09099 0.0
C1794 C 0.07191 0.6537 0.09043 0.0
C1795 C 0.07535 0.68473 0.08885 0.0
C1796 C 0.03027 0.68423 0.0924 0.0
H1797 H 0.01941 0.75827 0.05733 0.0
H1798 H 0.03932 0.74427 0.06201 0.0
H1799 H 1.00757 0.68954 0.09463 0.0
H1800 H 0.04339 0.6309 0.08827 0.0
H1801 H 0.02957 0.65073 0.08512 0.0
H1802 H 0.06763 0.7066 0.05884 0.0
C1803 C 0.02435 0.73518 0.06062 0.0
C1804 C 0.02064 0.6934 0.08659 0.0
C1805 C 0.01299 0.74321 0.05776 0.0
C1806 C 0.05248 0.64591 0.0889 0.0
C1807 C 0.04457 0.6573 0.0871 0.0
C1808 C 0.05468 0.70301 0.06699 0.0
C1809 C 0.01627 0.71576 0.06355 0.0
C1810 C 0.02758 0.70718 0.07049 0.0
C1811 C 0.05589 0.67685 0.08651 0.0
C1812 C 0.04718 0.68857 0.08234 0.0
H1813 H 0.97048 0.70343 0.05906 0.0
H1814 H 0.99013 0.68943 0.0631 0.0
H1815 H 0.05074 0.72285 0.04875 0.0
H1816 H 0.09834 0.67963 0.09181 0.0
H1817 H 0.08443 0.69975 0.08859 0.0
C1818 C 0.41652 0.34222 0.39279 0.0
C1819 C 0.42439 0.36172 0.39239 0.0
C1820 C 0.39715 0.3306 0.3956 0.0
C1821 C 0.3593 0.33392 0.42196 0.0
H1822 H 0.32495 0.28723 0.3942 0.0
C1823 C 0.2803 0.30333 0.42421 0.0
C1824 C 0.26829 0.28394 0.42488 0.0
C1825 C 0.2996 0.31087 0.42308 0.0
C1826 C 0.33447 0.30006 0.4024 0.0
H1827 H 0.4183 0.38429 0.39259 0.0
H1828 H 0.38468 0.36416 0.39659 0.0
H1829 H 0.35799 0.304 0.38353 0.0
H1830 H 0.26699 0.25714 0.42561 0.0
H1831 H 0.30105 0.2704 0.42359 0.0
H1832 H 0.336 0.33029 0.44061 0.0
C1833 C 0.39332 0.35777 0.39535 0.0
C1834 C 0.35334 0.3097 0.39618 0.0
C1835 C 0.41253 0.36928 0.39271 0.0
C1836 C 0.27599 0.27217 0.42549 0.0
C1837 C 0.29543 0.27974 0.42402 0.0
C1838 C 0.34058 0.32432 0.42819 0.0
C1839 C 0.38552 0.3384 0.39802 0.0
C1840 C 0.36582 0.32703 0.40547 0.0
C1841 C 0.30741 0.29919 0.42229 0.0
C1842 C 0.3278 0.30755 0.41809 0.0
H1843 H 0.42543 0.33609 0.39294 0.0
H1844 H 0.39152 0.31571 0.39749 0.0
H1845 H 0.36868 0.34696 0.4299 0.0
H1846 H 0.27468 0.31268 0.42342 0.0
H1847 H 0.30832 0.32587 0.42153 0.0
C1848 C 0.74453 1.00605 0.42493 0.0
C1849 C 0.73276 0.98665 0.42289 0.0
C1850 C 0.73749 0.01818 0.42134 0.0
C1851 C 0.69927 0.01827 0.39084 0.0
H1852 H 0.71005 0.06244 0.42339 0.0
C1853 C 0.6519 0.05017 0.39071 0.0
C1854 C 0.65965 0.06957 0.3922 0.0
C1855 C 0.66332 0.04223 0.39092 0.0
C1856 C 0.70722 0.05035 0.41387 0.0
H1857 H 0.70429 0.96466 0.41738 0.0
H1858 H 0.69195 0.98557 0.41193 0.0
H1859 H 0.72495 0.04427 0.43337 0.0
H1860 H 0.68544 0.09603 0.39433 0.0
H1861 H 0.70564 0.08206 0.39486 0.0
H1862 H 0.68121 0.02394 0.37171 0.0
C1863 C 0.70666 0.99157 0.41556 0.0
C1864 C 0.71569 0.03991 0.41967 0.0
C1865 C 0.71367 0.97957 0.41898 0.0
C1866 C 0.67916 0.08103 0.39273 0.0
C1867 C 0.69067 0.07303 0.39335 0.0
C1868 C 0.69085 0.02864 0.38509 0.0
C1869 C 0.71861 0.01102 0.4157 0.0
C1870 C 0.71134 0.02341 0.4086 0.0
C1871 C 0.6828 0.05349 0.39305 0.0
C1872 C 0.69429 0.04451 0.39688 0.0
H1873 H 0.75935 0.01189 0.42766 0.0
H1874 H 0.74703 0.03311 0.42168 0.0
H1875 H 0.69604 1.00595 0.38154 0.0
H1876 H 0.63686 0.04106 0.39072 0.0
H1877 H 0.65676 0.02714 0.39089 0.0
C1878 C 0.94317 0.60233 0.39414 0.0
C1879 C 0.95468 0.59431 0.39419 0.0
C1880 C 0.95099 0.62168 0.39712 0.0
C1881 C 0.99232 0.65972 0.42361 0.0
H1882 H 0.9791 0.69351 0.39603 0.0
C1883 C 0.03981 0.73897 0.42496 0.0
C1884 C 0.03207 0.75066 0.42615 0.0
C1885 C 0.02834 0.71964 0.42394 0.0
C1886 C 0.98268 0.68415 0.40417 0.0
H1887 H 0.98327 0.60018 0.39537 0.0
H1888 H 0.9969 0.63377 0.39958 0.0
H1889 H 0.9631 0.66047 0.38561 0.0
H1890 H 1.00628 0.75137 0.42776 0.0
H1891 H 0.98597 0.71722 0.42586 0.0
H1892 H 0.01206 0.68325 0.44186 0.0
C1893 C 0.98188 0.62525 0.39797 0.0
C1894 C 0.97358 0.66526 0.3981 0.0
C1895 C 0.97411 0.60605 0.39521 0.0
C1896 C 0.01257 0.7426 0.42729 0.0
C1897 C 1.00099 0.72312 0.42588 0.0
C1898 C 1.00134 0.67848 0.42964 0.0
C1899 C 0.97038 0.63319 0.40013 0.0
C1900 C 0.97871 0.65295 0.40735 0.0
C1901 C 1.00879 0.71147 0.4237 0.0
C1902 C 0.997 0.69105 0.41963 0.0
H1903 H 0.92812 0.59354 0.39372 0.0
H1904 H 0.94176 0.62738 0.39859 0.0
H1905 H 0.9962 0.65052 0.43157 0.0
H1906 H 0.05481 0.74489 0.4237 0.0
H1907 H 0.03485 0.71115 0.42204 0.0
C1908 C 0.67546 0.6058 0.88982 0.0
C1909 C 0.65603 0.59853 0.88982 0.0
C1910 C 0.68766 0.6252 0.89084 0.0
C1911 C 0.68981 0.67091 0.88437 0.0
H1912 H 0.72546 0.6878 0.93118 0.0
C1913 C 0.71637 0.74297 0.91993 0.0
C1914 C 0.73568 0.75441 0.92298 0.0
C1915 C 0.70861 0.7239 0.91611 0.0
C1916 C 0.71575 0.68333 0.91788 0.0
H1917 H 0.63413 0.60559 0.88977 0.0
H1918 H 0.65521 0.63919 0.89072 0.0
H1919 H 0.709 0.65474 0.92085 0.0
H1920 H 0.76192 0.75466 0.92583 0.0
H1921 H 0.74824 0.721 0.91917 0.0
H1922 H 0.69611 0.69922 0.88162 0.0
C1923 C 0.66117 0.63014 0.89001 0.0
C1924 C 0.70639 0.66442 0.91189 0.0
C1925 C 0.64906 0.61089 0.88938 0.0
C1926 C 0.74695 0.74612 0.92375 0.0
C1927 C 0.73913 0.72689 0.91978 0.0
C1928 C 0.69911 0.68969 0.89033 0.0
C1929 C 0.68059 0.63755 0.89149 0.0
C1930 C 0.69292 0.65792 0.89545 0.0
C1931 C 0.71998 0.71576 0.91502 0.0
C1932 C 0.71176 0.69606 0.90758 0.0
H1933 H 0.68115 0.59653 0.89061 0.0
H1934 H 0.70256 0.6305 0.89185 0.0
H1935 H 0.67978 0.66644 0.8714 0.0
H1936 H 0.70734 0.74896 0.91937 0.0
H1937 H 0.69373 0.71565 0.91317 0.0
C1938 C 0.41368 0.04428 0.8879 0.0
C1939 C 0.42567 0.06366 0.88676 0.0
C1940 C 0.3944 0.03676 0.88954 0.0
C1941 C 0.36004 0.04787 0.91103 0.0
H1942 H 0.32513 1.00084 0.88429 0.0
C1943 C 0.27839 1.00614 0.92404 0.0
C1944 C 0.27041 0.98663 0.9245 0.0
C1945 C 0.29764 0.01763 0.9202 0.0
C1946 C 0.3347 0.01392 0.89203 0.0
H1947 H 0.42692 0.09043 0.88564 0.0
H1948 H 0.39294 0.07722 0.88863 0.0
H1949 H 0.35761 0.01728 0.87276 0.0
H1950 H 0.27628 0.96392 0.92332 0.0
H1951 H 0.3097 0.98381 0.91752 0.0
H1952 H 0.33698 0.04417 0.9306 0.0
C1953 C 0.39855 0.06787 0.88818 0.0
C1954 C 0.3533 0.02339 0.88532 0.0
C1955 C 0.41795 0.07541 0.88616 0.0
C1956 C 0.28212 0.97894 0.92308 0.0
C1957 C 0.30121 0.99032 0.91943 0.0
C1958 C 0.3413 0.03834 0.91776 0.0
C1959 C 0.38662 0.04846 0.89038 0.0
C1960 C 0.36633 0.0402 0.89512 0.0
C1961 C 0.30905 0.00969 0.91682 0.0
C1962 C 0.32857 0.02097 0.90875 0.0
H1963 H 0.4193 0.03494 0.88862 0.0
H1964 H 0.3857 0.02179 0.89142 0.0
H1965 H 0.36977 0.06075 0.919 0.0
H1966 H 0.26959 0.01238 0.92475 0.0
H1967 H 0.3033 0.03253 0.91839 0.0
C1968 C 0.94792 0.34787 0.88816 0.0
C1969 C 0.95967 0.36725 0.89041 0.0
C1970 C 0.95529 0.33585 0.88972 0.0
C1971 C 0.99976 0.33496 0.88835 0.0
H1972 H 0.97589 0.29436 0.92933 0.0
C1973 C 0.04033 0.30204 0.92185 0.0
C1974 C 0.03148 0.2825 0.92153 0.0
C1975 C 0.02999 0.31105 0.9195 0.0
C1976 C 0.98262 0.30553 0.9177 0.0
H1977 H 0.98829 0.38932 0.89474 0.0
H1978 H 1.00116 0.36861 0.89682 0.0
H1979 H 0.96051 0.31201 0.91902 0.0
H1980 H 1.00481 0.25694 0.91974 0.0
H1981 H 0.98652 0.27273 0.91561 0.0
H1982 H 0.02192 0.32879 0.8871 0.0
C1983 C 0.98631 0.36255 0.89399 0.0
C1984 C 0.97377 0.31557 0.9117 0.0
C1985 C 0.97895 0.37445 0.89277 0.0
C1986 C 0.0119 0.27204 0.9205 0.0
C1987 C 1.00147 0.2811 0.91794 0.0
C1988 C 1.00856 0.32499 0.89432 0.0
C1989 C 0.97454 0.34307 0.89315 0.0
C1990 C 0.98246 0.33067 0.8973 0.0
C1991 C 1.01055 0.30071 0.91636 0.0
C1992 C 1.00035 0.31045 0.90946 0.0
H1993 H 0.93297 0.34192 0.88664 0.0
H1994 H 0.94589 0.32091 0.88883 0.0
H1995 H 1.00668 0.34628 0.87693 0.0
H1996 H 0.05545 0.31037 0.92234 0.0
H1997 H 0.03737 0.32616 0.91895 0.0
C1998 C 0.74847 0.74208 0.55306 0.0
C1999 C 0.7564 0.73051 0.55339 0.0
C2000 C 0.72901 0.73429 0.55461 0.0
C2001 C 0.68409 0.6898 0.5495 0.0
H2002 H 0.66646 0.70873 0.59544 0.0
C2003 C 0.6117 0.64403 0.58486 0.0
C2004 C 0.60026 0.65188 0.58811 0.0
C2005 C 0.63076 0.65536 0.58085 0.0
C2006 C 0.67113 0.70343 0.58238 0.0
H2007 H 0.75034 0.70185 0.55436 0.0
H2008 H 0.71661 0.68828 0.55635 0.0
H2009 H 0.69952 0.72579 0.58504 0.0
H2010 H 0.60002 0.67786 0.59097 0.0
H2011 H 0.63359 0.69785 0.58389 0.0
H2012 H 0.65597 0.66734 0.54695 0.0
C2013 C 0.72523 0.70331 0.55504 0.0
C2014 C 0.69004 0.71323 0.57636 0.0
C2015 C 0.74456 0.71107 0.55387 0.0
C2016 C 0.60854 0.67143 0.58873 0.0
C2017 C 0.62773 0.68286 0.58454 0.0
C2018 C 0.66529 0.68007 0.55545 0.0
C2019 C 0.71722 0.7148 0.55608 0.0
C2020 C 0.6968 0.70623 0.56022 0.0
C2021 C 0.63889 0.67487 0.57973 0.0
C2022 C 0.65864 0.68644 0.57238 0.0
H2023 H 0.75729 0.75712 0.55305 0.0
H2024 H 0.72322 0.74349 0.55525 0.0
H2025 H 0.68879 0.68421 0.53677 0.0
H2026 H 0.60574 0.62901 0.58445 0.0
H2027 H 0.63902 0.64874 0.5779 0.0
C2028 C 0.34715 0.93762 0.59158 0.0
C2029 C 0.36671 0.94884 0.59088 0.0
C2030 C 0.3358 0.94573 0.58944 0.0
C2031 C 0.33676 0.991 0.59266 0.0
H2032 H 0.29879 0.97117 0.54833 0.0
C2033 C 0.30996 0.03667 0.55829 0.0
C2034 C 0.29056 0.029 0.55676 0.0
C2035 C 0.31768 0.0252 0.5612 0.0
C2036 C 0.3092 0.97676 0.56091 0.0
H2037 H 0.38972 0.97722 0.58846 0.0
H2038 H 0.37015 0.99135 0.58543 0.0
H2039 H 0.31449 0.95386 0.55891 0.0
H2040 H 0.26402 1.00321 0.55556 0.0
H2041 H 0.27755 0.98296 0.56074 0.0
H2042 H 0.33181 0.01393 0.59461 0.0
C2043 C 0.36344 0.97636 0.58751 0.0
C2044 C 0.31813 0.96681 0.56704 0.0
C2045 C 0.37468 0.96828 0.58927 0.0
C2046 C 0.27906 0.00948 0.55641 0.0
C2047 C 0.28681 0.9979 0.55955 0.0
C2048 C 0.32789 1.00087 0.58658 0.0
C2049 C 0.34387 0.9652 0.58698 0.0
C2050 C 0.33235 0.97408 0.58263 0.0
C2051 C 0.30615 1.00574 0.563 0.0
C2052 C 0.31436 0.99417 0.57022 0.0
H2053 H 0.34065 0.92256 0.59244 0.0
H2054 H 0.32076 0.93678 0.58922 0.0
H2055 H 0.34739 0.99682 0.60499 0.0
H2056 H 0.31913 0.05168 0.55864 0.0
H2057 H 0.33267 0.03169 0.56312 0.0
C2058 C 0.98536 0.27423 0.55949 0.0
C2059 C 0.99239 0.26206 0.55657 0.0
C2060 C 0.99741 0.29342 0.56126 0.0
C2061 C 0.04437 0.32751 0.57936 0.0
H2062 H 0.031 0.36261 0.55578 0.0
C2063 C 0.08608 0.40932 0.59078 0.0
C2064 C 0.07485 0.41754 0.59299 0.0
C2065 C 0.07782 0.38999 0.58726 0.0
C2066 C 0.03487 0.35299 0.56264 0.0
H2067 H 0.01755 0.2604 0.5527 0.0
H2068 H 0.03889 0.29431 0.55586 0.0
H2069 H 0.01391 0.33011 0.54463 0.0
H2070 H 0.04644 0.41209 0.59501 0.0
H2071 H 0.03206 0.37852 0.58978 0.0
H2072 H 0.06524 0.3506 0.59762 0.0
C2073 C 0.02396 0.28888 0.55667 0.0
C2074 C 0.02512 0.33436 0.55615 0.0
C2075 C 1.01178 0.26954 0.55456 0.0
C2076 C 0.05538 0.40603 0.59353 0.0
C2077 C 0.04717 0.38686 0.59019 0.0
C2078 C 0.05422 0.34629 0.58585 0.0
C2079 C 0.01688 0.30098 0.56044 0.0
C2080 C 0.02937 0.32126 0.56484 0.0
C2081 C 0.05824 0.37873 0.58589 0.0
C2082 C 0.04917 0.3591 0.57802 0.0
H2083 H 0.97048 0.26878 0.56134 0.0
H2084 H 0.99145 0.30224 0.5644 0.0
H2085 H 0.04791 0.31773 0.58645 0.0
H2086 H 0.10114 0.41798 0.58988 0.0
H2087 H 0.08671 0.38412 0.58408 0.0
C2088 C 0.07344 0.69938 0.72449 0.0
C2089 C 0.08458 0.69103 0.72357 0.0
C2090 C 0.05423 0.68857 0.72787 0.0
C2091 C 0.01312 0.64098 0.73029 0.0
H2092 H 0.99761 0.66366 0.77422 0.0
C2093 C 0.93675 0.60548 0.76253 0.0
C2094 C 0.92921 0.61739 0.76161 0.0
C2095 C 0.95611 0.6128 0.76038 0.0
C2096 C 1.00168 0.65711 0.76194 0.0
H2097 H 0.08433 0.66474 0.72403 0.0
H2098 H 0.05046 0.64563 0.72993 0.0
H2099 H 0.03001 0.67936 0.76247 0.0
H2100 H 0.93587 0.64615 0.75901 0.0
H2101 H 0.96941 0.65893 0.75597 0.0
H2102 H 0.98451 0.61885 0.7296 0.0
C2103 C 0.05661 0.66057 0.72786 0.0
C2104 C 0.02024 0.66617 0.75509 0.0
C2105 C 0.07596 0.67147 0.72429 0.0
C2106 C 0.94136 0.63671 0.76003 0.0
C2107 C 0.9606 0.64401 0.75823 0.0
C2108 C 0.99442 0.63188 0.73716 0.0
C2109 C 0.04573 0.66916 0.73077 0.0
C2110 C 0.02612 0.6585 0.73877 0.0
C2111 C 0.96819 0.63214 0.75768 0.0
C2112 C 0.98841 0.6401 0.75271 0.0
H2113 H 0.07981 0.71445 0.72419 0.0
H2114 H 0.04617 0.69558 0.72944 0.0
H2115 H 0.01722 0.63467 0.71778 0.0
H2116 H 0.92766 0.5905 0.76337 0.0
H2117 H 0.96157 0.60331 0.76018 0.0
C2118 C 0.31814 0.38171 0.73363 0.0
C2119 C 0.32587 0.40109 0.73159 0.0
C2120 C 0.32949 0.37403 0.73759 0.0
C2121 C 0.37725 0.38149 0.73743 0.0
H2122 H 0.35694 0.34426 0.78265 0.0
C2123 C 0.41354 0.34015 0.76526 0.0
C2124 C 0.40131 0.32074 0.76479 0.0
C2125 C 0.40647 0.35245 0.76421 0.0
C2126 C 0.36284 0.35464 0.77003 0.0
H2127 H 0.35173 0.42761 0.73064 0.0
H2128 H 0.37182 0.41405 0.73749 0.0
H2129 H 0.34076 0.36088 0.77249 0.0
H2130 H 0.37228 0.29898 0.76405 0.0
H2131 H 0.35996 0.3202 0.76294 0.0
H2132 H 0.39912 0.37475 0.73468 0.0
C2133 C 0.35688 0.40484 0.73602 0.0
C2134 C 0.35353 0.36412 0.76413 0.0
C2135 C 0.34541 0.41259 0.73195 0.0
C2136 C 0.38199 0.31388 0.7647 0.0
C2137 C 0.37495 0.32607 0.76403 0.0
C2138 C 0.38661 0.37192 0.74335 0.0
C2139 C 0.34891 0.38553 0.73978 0.0
C2140 C 0.36026 0.37722 0.74731 0.0
C2141 C 0.38707 0.34549 0.76309 0.0
C2142 C 0.37919 0.35799 0.75931 0.0
H2143 H 0.30312 0.3725 0.73328 0.0
H2144 H 0.32294 0.35906 0.73976 0.0
H2145 H 0.38282 0.39155 0.72448 0.0
H2146 H 0.42852 0.34579 0.76493 0.0
H2147 H 0.41615 0.36734 0.76364 0.0
C2148 C 0.61012 0.94045 0.72705 0.0
C2149 C 0.62077 0.93157 0.72528 0.0
C2150 C 0.61898 0.95986 0.7301 0.0
C2151 C 0.66256 0.99615 0.75443 0.0
H2152 H 0.64962 0.0318 0.73162 0.0
C2153 C 0.71193 0.07502 0.75888 0.0
C2154 C 0.70475 0.08706 0.76171 0.0
C2155 C 0.7 0.05581 0.75707 0.0
C2156 C 0.65315 0.02192 0.73843 0.0
H2157 H 0.64879 0.93591 0.72354 0.0
H2158 H 0.66424 0.96968 0.72782 0.0
H2159 H 0.63215 0.9991 0.71999 0.0
H2160 H 0.67945 0.08845 0.76568 0.0
H2161 H 0.65835 0.05456 0.76248 0.0
H2162 H 0.6836 0.01878 0.77267 0.0
C2163 C 0.64912 0.96178 0.72744 0.0
C2164 C 0.64323 1.00323 0.73165 0.0
C2165 C 0.6403 0.94249 0.72458 0.0
C2166 C 0.68535 0.07943 0.76383 0.0
C2167 C 0.6733 0.06009 0.76169 0.0
C2168 C 0.67239 0.0147 0.76119 0.0
C2169 C 0.6386 0.97056 0.73145 0.0
C2170 C 0.64817 0.99025 0.73918 0.0
C2171 C 0.68052 0.04813 0.75777 0.0
C2172 C 0.66813 0.02793 0.75292 0.0
H2173 H 0.59503 0.93226 0.7281 0.0
H2174 H 0.61049 0.96621 0.73308 0.0
H2175 H 0.66634 0.9864 0.7611 0.0
H2176 H 0.72683 0.08058 0.75697 0.0
H2177 H 0.70607 0.04709 0.75385 0.0
C2178 C 0.38537 0.08084 0.25679 0.0
C2179 C 0.40476 0.09298 0.2575 0.0
C2180 C 0.37799 0.0616 0.25514 0.0
C2181 C 0.38919 0.0273 0.2335 0.0
H2182 H 0.34281 0.99236 0.26161 0.0
C2183 C 0.34864 0.94549 0.22297 0.0
C2184 C 0.32908 0.93711 0.22301 0.0
C2185 C 0.35984 0.96486 0.22609 0.0
C2186 C 0.35569 1.00194 0.25347 0.0
H2187 H 0.43168 0.09447 0.25787 0.0
H2188 H 0.4187 0.06055 0.25489 0.0
H2189 H 0.35903 0.025 0.27234 0.0
H2190 H 0.30591 0.94226 0.22461 0.0
H2191 H 0.32528 0.9759 0.22916 0.0
H2192 H 0.38554 1.00405 0.21439 0.0
C2193 C 0.40924 0.06604 0.25562 0.0
C2194 C 0.36504 0.02064 0.25972 0.0
C2195 C 0.41666 0.0854 0.25762 0.0
C2196 C 0.32097 0.94846 0.22434 0.0
C2197 C 0.33207 0.96767 0.22729 0.0
C2198 C 0.37979 0.00846 0.22723 0.0
C2199 C 0.38982 0.05397 0.2539 0.0
C2200 C 0.38163 0.03367 0.24945 0.0
C2201 C 0.35155 0.97598 0.22933 0.0
C2202 C 0.36264 0.9957 0.23675 0.0
H2203 H 0.37589 0.08631 0.25653 0.0
H2204 H 0.36299 0.05278 0.25366 0.0
H2205 H 0.40189 0.03702 0.22517 0.0
H2206 H 0.35517 0.93695 0.22241 0.0
H2207 H 0.37482 0.97087 0.22752 0.0
C2208 C 0.93995 0.33275 0.26148 0.0
C2209 C 0.93173 0.3133 0.25934 0.0
C2210 C 0.95935 0.34435 0.25906 0.0
C2211 C 1.00414 0.34355 0.25617 0.0
H2212 H 0.02006 0.38583 0.21791 0.0
C2213 C 0.07508 0.37631 0.21351 0.0
C2214 C 0.08623 0.39587 0.21411 0.0
C2215 C 0.05629 0.36752 0.21962 0.0
C2216 C 0.01586 0.37418 0.22878 0.0
H2217 H 0.93743 0.29069 0.25441 0.0
H2218 H 0.97091 0.31065 0.25038 0.0
H2219 H 0.9876 0.36859 0.23018 0.0
H2220 H 0.08592 0.42156 0.22008 0.0
H2221 H 0.05302 0.40614 0.23066 0.0
H2222 H 0.03221 0.3488 0.25434 0.0
C2223 C 0.96262 0.31713 0.25393 0.0
C2224 C 0.99728 0.36436 0.23593 0.0
C2225 C 0.94335 0.30563 0.25618 0.0
C2226 C 0.07779 0.40645 0.21965 0.0
C2227 C 0.05892 0.39763 0.22566 0.0
C2228 C 0.02261 0.35327 0.24893 0.0
C2229 C 0.97086 0.33667 0.25471 0.0
C2230 C 0.99109 0.34867 0.24939 0.0
C2231 C 0.04811 0.37804 0.22634 0.0
C2232 C 0.02863 0.36847 0.23482 0.0
H2233 H 0.93132 0.33907 0.2637 0.0
H2234 H 0.96526 0.35934 0.26 0.0
H2235 H 1.0 0.3318 0.26687 0.0
H2236 H 0.08105 0.36769 0.2093 0.0
H2237 H 0.04824 0.3524 0.21952 0.0
C2238 C 0.60994 0.67304 0.2212 0.0
C2239 C 0.62153 0.69254 0.22161 0.0
C2240 C 0.61772 0.66139 0.22293 0.0
C2241 C 0.66258 0.66126 0.21962 0.0
H2242 H 0.64251 0.62469 0.26553 0.0
C2243 C 0.70811 0.63604 0.25777 0.0
C2244 C 0.70068 0.6167 0.25959 0.0
C2245 C 0.69648 0.64343 0.25396 0.0
C2246 C 0.64814 0.63469 0.25252 0.0
H2247 H 0.65014 0.71516 0.22296 0.0
H2248 H 0.66373 0.69506 0.22517 0.0
H2249 H 0.62546 0.64033 0.25375 0.0
H2250 H 0.67514 0.58992 0.26038 0.0
H2251 H 0.65456 0.60292 0.25374 0.0
H2252 H 0.68542 0.65608 0.21862 0.0
C2253 C 0.64871 0.68861 0.22359 0.0
C2254 C 0.63834 0.64357 0.24568 0.0
C2255 C 0.64095 0.70016 0.22224 0.0
C2256 C 0.68118 0.60493 0.25936 0.0
C2257 C 0.66944 0.61236 0.25537 0.0
C2258 C 0.67233 0.65247 0.22645 0.0
C2259 C 0.6372 0.6691 0.22472 0.0
C2260 C 0.64574 0.65734 0.22953 0.0
C2261 C 0.67711 0.63163 0.25159 0.0
C2262 C 0.66554 0.63949 0.2434 0.0
H2263 H 0.59488 0.66684 0.22115 0.0
H2264 H 0.60851 0.64641 0.22362 0.0
H2265 H 0.66849 0.67153 0.2069 0.0
H2266 H 0.7231 0.6454 0.25783 0.0
H2267 H 0.70278 0.65838 0.25174 0.0
C2268 C 0.29335 0.17582 0.11166 0.0
C2269 C 0.30284 0.18856 0.09497 0.0
C2270 C 0.30325 0.17257 0.12763 0.0
C2271 C 0.34991 0.19379 0.15292 0.0
H2272 H 0.33277 0.14351 0.17345 0.0
C2273 C 0.39571 0.17516 0.20532 0.0
C2274 C 0.38709 0.16234 0.22216 0.0
C2275 C 0.38505 0.17862 0.19065 0.0
C2276 C 0.33761 0.15767 0.1681 0.0
H2277 H 0.33025 0.20787 0.0821 0.0
H2278 H 0.34748 0.20193 0.10964 0.0
H2279 H 0.31493 0.14881 0.14599 0.0
H2280 H 0.36045 0.14321 0.23682 0.0
H2281 H 0.34181 0.14944 0.21134 0.0
H2282 H 0.37265 0.20263 0.17491 0.0
C2283 C 0.33237 0.19461 0.11053 0.0
C2284 C 0.32739 0.1607 0.15234 0.0
C2285 C 0.32247 0.19783 0.09456 0.0
C2286 C 0.36754 0.15326 0.22415 0.0
C2287 C 0.35684 0.15668 0.2094 0.0
C2288 C 0.36012 0.19075 0.16865 0.0
C2289 C 0.32289 0.18201 0.12732 0.0
C2290 C 0.33349 0.17879 0.14445 0.0
C2291 C 0.36548 0.16934 0.19242 0.0
C2292 C 0.35417 0.17264 0.17633 0.0
H2293 H 0.27825 0.16826 0.11236 0.0
H2294 H 0.29552 0.16287 0.14041 0.0
H2295 H 0.35481 0.20794 0.1475 0.0
H2296 H 0.41075 0.18258 0.20348 0.0
H2297 H 0.39214 0.18833 0.17765 0.0
C2298 C 0.86698 0.21502 0.23085 0.0
C2299 C 0.85831 0.22589 0.22921 0.0
C2300 C 0.86201 0.19994 0.21701 0.0
C2301 C 0.82445 0.16742 0.18065 0.0
H2302 H 0.86376 0.16184 0.1539 0.0
C2303 C 0.81084 0.11977 0.10745 0.0
C2304 C 0.82024 0.10957 0.10619 0.0
C2305 C 0.81516 0.13305 0.12356 0.0
C2306 C 0.85258 0.16302 0.16146 0.0
H2307 H 0.83722 0.22907 0.21215 0.0
H2308 H 0.82871 0.20295 0.18789 0.0
H2309 H 0.87179 0.18652 0.18022 0.0
H2310 H 0.84162 0.10543 0.12105 0.0
H2311 H 0.84888 0.12831 0.14942 0.0
H2312 H 0.80524 0.144 0.16185 0.0
C2313 C 0.83931 0.20603 0.19992 0.0
C2314 C 0.8572 0.17718 0.17654 0.0
C2315 C 0.84434 0.22114 0.21367 0.0
C2316 C 0.83396 0.11287 0.12162 0.0
C2317 C 0.83829 0.12616 0.13776 0.0
C2318 C 0.81983 0.15324 0.16563 0.0
C2319 C 0.84816 0.19532 0.20132 0.0
C2320 C 0.8432 0.17966 0.18615 0.0
C2321 C 0.82898 0.13647 0.13888 0.0
C2322 C 0.83385 0.15097 0.15567 0.0
H2323 H 0.87788 0.2184 0.24253 0.0
H2324 H 0.86898 0.19187 0.21862 0.0
H2325 H 0.81332 0.16877 0.18802 0.0
H2326 H 0.80005 0.11747 0.09604 0.0
H2327 H 0.80787 0.14087 0.12377 0.0
C2328 C 0.90353 0.72529 0.11581 0.0
C2329 C 0.90799 0.71487 0.10164 0.0
C2330 C 0.88945 0.71633 0.13116 0.0
C2331 C 0.86294 0.67184 0.16054 0.0
H2332 H 0.82722 0.68851 0.17004 0.0
C2333 C 0.79553 0.62877 0.20957 0.0
C2334 C 0.78977 0.63839 0.22335 0.0
C2335 C 0.81037 0.63849 0.19535 0.0
C2336 C 0.83723 0.68384 0.16779 0.0
H2337 H 0.9013 0.68687 0.0927 0.0
H2338 H 0.87658 0.67122 0.11926 0.0
H2339 H 0.85234 0.70476 0.14402 0.0
H2340 H 0.79518 0.66585 0.23295 0.0
H2341 H 0.82135 0.68288 0.20837 0.0
H2342 H 0.84784 0.6509 0.18425 0.0
C2343 C 0.88407 0.68634 0.11861 0.0
C2344 C 0.85161 0.69315 0.15287 0.0
C2345 C 0.89809 0.69529 0.10322 0.0
C2346 C 0.79934 0.65801 0.22268 0.0
C2347 C 0.8142 0.66776 0.20842 0.0
C2348 C 0.84859 0.66256 0.17547 0.0
C2349 C 0.87958 0.69675 0.13274 0.0
C2350 C 0.86457 0.68718 0.14898 0.0
C2351 C 0.81986 0.6581 0.19456 0.0
C2352 C 0.83549 0.66837 0.17918 0.0
H2353 H 0.91072 0.74037 0.11487 0.0
H2354 H 0.88642 0.72475 0.14193 0.0
H2355 H 0.87289 0.6671 0.15818 0.0
H2356 H 0.78868 0.61368 0.20985 0.0
H2357 H 0.81424 0.63061 0.18474 0.0
C2358 C 0.15944 0.37689 0.27191 0.0
C2359 C 0.14679 0.38149 0.2812 0.0
C2360 C 0.16616 0.36706 0.28372 0.0
C2361 C 0.15545 0.33785 0.33318 0.0
H2362 H 0.20593 0.34697 0.32581 0.0
C2363 C 0.19144 0.31386 0.3941 0.0
C2364 C 0.19939 0.30361 0.38583 0.0
C2365 C 0.18517 0.32289 0.38034 0.0
C2366 C 0.19175 0.34422 0.32788 0.0
H2367 H 0.13201 0.38036 0.31033 0.0
H2368 H 0.14417 0.36399 0.33117 0.0
H2369 H 0.19501 0.3641 0.30382 0.0
H2370 H 0.20737 0.29505 0.35677 0.0
H2371 H 0.19675 0.3113 0.33255 0.0
H2372 H 0.15253 0.31852 0.35783 0.0
C2373 C 0.14836 0.36713 0.31454 0.0
C2374 C 0.18544 0.35395 0.31524 0.0
C2375 C 0.14144 0.37663 0.30265 0.0
C2376 C 0.20118 0.30277 0.3635 0.0
C2377 C 0.19523 0.31214 0.34971 0.0
C2378 C 0.16187 0.3284 0.34602 0.0
C2379 C 0.16058 0.3619 0.30519 0.0
C2380 C 0.16723 0.35104 0.31788 0.0
C2381 C 0.18702 0.32213 0.35803 0.0
C2382 C 0.18011 0.33159 0.34361 0.0
H2383 H 0.16369 0.38044 0.25534 0.0
H2384 H 0.17539 0.36316 0.27586 0.0
H2385 H 0.14118 0.33475 0.33531 0.0
H2386 H 0.18975 0.31458 0.41123 0.0
H2387 H 0.17897 0.33058 0.38715 0.0
C2388 C 0.72068 0.90155 0.36417 0.0
C2389 C 0.71576 0.89891 0.38601 0.0
C2390 C 0.71165 0.88688 0.34957 0.0
C2391 C 0.6683 0.84158 0.34224 0.0
H2392 H 0.69672 0.83416 0.29771 0.0
C2393 C 0.63587 0.77659 0.2872 0.0
C2394 C 0.64086 0.77949 0.26539 0.0
C2395 C 0.64499 0.79105 0.30206 0.0
C2396 C 0.68855 0.83616 0.30991 0.0
H2397 H 0.69776 0.87857 0.40963 0.0
H2398 H 0.68204 0.85302 0.3842 0.0
H2399 H 0.71276 0.85959 0.32329 0.0
H2400 H 0.65911 0.80004 0.24209 0.0
H2401 H 0.67497 0.82519 0.26793 0.0
H2402 H 0.64409 0.81816 0.32883 0.0
C2403 C 0.69266 0.86653 0.3783 0.0
C2404 C 0.69774 0.85074 0.32457 0.0
C2405 C 0.70168 0.8812 0.3929 0.0
C2406 C 0.65513 0.79721 0.2588 0.0
C2407 C 0.66424 0.81165 0.27363 0.0
C2408 C 0.6591 0.82699 0.32757 0.0
C2409 C 0.69749 0.86921 0.35645 0.0
C2410 C 0.68773 0.85364 0.3409 0.0
C2411 C 0.65932 0.80874 0.29545 0.0
C2412 C 0.66911 0.82413 0.31121 0.0
H2413 H 0.73125 0.91507 0.35826 0.0
H2414 H 0.71553 0.88949 0.3328 0.0
H2415 H 0.66013 0.84359 0.35442 0.0
H2416 H 0.62513 0.76306 0.29287 0.0
H2417 H 0.64103 0.78826 0.31879 0.0
C2418 C 0.23138 0.88023 0.26672 0.0
C2419 C 0.24079 0.87013 0.26422 0.0
C2420 C 0.2164 0.87414 0.28101 0.0
C2421 C 0.18124 0.83213 0.31015 0.0
H2422 H 0.17655 0.86805 0.34568 0.0
C2423 C 0.12883 0.81002 0.38047 0.0
C2424 C 0.11906 0.81975 0.38307 0.0
C2425 C 0.14345 0.81612 0.36567 0.0
C2426 C 0.17755 0.85786 0.3357 0.0
H2427 H 0.24152 0.84546 0.27466 0.0
H2428 H 0.21576 0.83512 0.29988 0.0
H2429 H 0.20251 0.87882 0.32049 0.0
H2430 H 0.11722 0.84371 0.37225 0.0
H2431 H 0.14252 0.85418 0.34623 0.0
H2432 H 0.15633 0.81116 0.32547 0.0
C2433 C 0.21984 0.84768 0.29063 0.0
C2434 C 0.19242 0.86404 0.32125 0.0
C2435 C 0.23482 0.85376 0.27635 0.0
C2436 C 0.12427 0.83574 0.37049 0.0
C2437 C 0.13893 0.84188 0.35575 0.0
C2438 C 0.16639 0.82595 0.32463 0.0
C2439 C 0.21043 0.85777 0.29313 0.0
C2440 C 0.19448 0.85124 0.30833 0.0
C2441 C 0.1487 0.83215 0.35317 0.0
C2442 C 0.16439 0.83874 0.33761 0.0
H2443 H 0.2357 0.89297 0.25778 0.0
H2444 H 0.20934 0.88215 0.28238 0.0
H2445 H 0.18222 0.82193 0.30019 0.0
H2446 H 0.12507 0.79757 0.38975 0.0
H2447 H 0.15081 0.8084 0.36423 0.0
C2448 C 0.70058 0.81726 0.89332 0.0
C2449 C 0.72021 0.82672 0.89304 0.0
C2450 C 0.69073 0.82238 0.87927 0.0
C2451 C 0.69623 0.84733 0.82808 0.0
H2452 H 0.65153 0.84755 0.8466 0.0
C2453 C 0.66105 0.87828 0.77576 0.0
C2454 C 0.64147 0.86799 0.77403 0.0
C2455 C 0.67036 0.87337 0.7908 0.0
C2456 C 0.66389 0.84739 0.84115 0.0
H2457 H 0.74489 0.84942 0.87826 0.0
H2458 H 0.72779 0.85847 0.85393 0.0
H2459 H 0.66841 0.83886 0.87193 0.0
H2460 H 0.61635 0.84449 0.78707 0.0
H2461 H 0.63261 0.83603 0.81346 0.0
H2462 H 0.69178 0.85594 0.79736 0.0
C2463 C 0.71995 0.84679 0.86465 0.0
C2464 C 0.67356 0.84239 0.85565 0.0
C2465 C 0.72978 0.84161 0.87862 0.0
C2466 C 0.6314 0.85288 0.78809 0.0
C2467 C 0.64073 0.848 0.80321 0.0
C2468 C 0.68662 0.85238 0.81364 0.0
C2469 C 0.7003 0.83715 0.86467 0.0
C2470 C 0.68988 0.84235 0.8493 0.0
C2471 C 0.66033 0.85808 0.80458 0.0
C2472 C 0.67038 0.85253 0.82001 0.0
H2473 H 0.69279 0.80558 0.90404 0.0
H2474 H 0.67561 0.81449 0.87954 0.0
H2475 H 0.70851 0.84709 0.8225 0.0
H2476 H 0.66925 0.89021 0.76553 0.0
H2477 H 0.68545 0.88165 0.79172 0.0
C2478 C 0.18538 0.89359 0.87231 0.0
C2479 C 0.20109 0.89892 0.88539 0.0
C2480 C 0.17938 0.8786 0.85811 0.0
C2481 C 0.18263 0.8363 0.84769 0.0
H2482 H 0.16572 0.83985 0.79083 0.0
C2483 C 0.16762 0.78178 0.78112 0.0
C2484 C 0.15187 0.77658 0.76814 0.0
C2485 C 0.17349 0.79645 0.79578 0.0
C2486 C 0.1702 0.83855 0.80674 0.0
H2487 H 0.22301 0.89285 0.89345 0.0
H2488 H 0.21261 0.86676 0.86864 0.0
H2489 H 0.17634 0.86605 0.81552 0.0
H2490 H 0.1296 0.78238 0.76097 0.0
H2491 H 0.13983 0.80794 0.78646 0.0
H2492 H 0.17654 0.80879 0.83883 0.0
C2493 C 0.20472 0.87397 0.86964 0.0
C2494 C 0.17629 0.85357 0.82089 0.0
C2495 C 0.2107 0.88894 0.88386 0.0
C2496 C 0.14198 0.78623 0.77041 0.0
C2497 C 0.14785 0.80089 0.78503 0.0
C2498 C 0.17656 0.82127 0.83351 0.0
C2499 C 0.18897 0.8686 0.85662 0.0
C2500 C 0.18256 0.85262 0.84154 0.0
C2501 C 0.16374 0.80627 0.79778 0.0
C2502 C 0.17024 0.82222 0.81288 0.0
H2503 H 0.17746 0.90075 0.87333 0.0
H2504 H 0.16702 0.87465 0.84856 0.0
H2505 H 0.18711 0.835 0.86359 0.0
H2506 H 0.17573 0.77485 0.77961 0.0
H2507 H 0.18592 0.80039 0.80519 0.0
C2508 C 0.12485 0.32221 0.87204 0.0
C2509 C 0.11559 0.30265 0.87383 0.0
C2510 C 0.13863 0.33147 0.85647 0.0
C2511 C 0.17156 0.32558 0.82172 0.0
H2512 H 0.17562 0.36877 0.79228 0.0
C2513 C 0.22567 0.36382 0.75428 0.0
C2514 C 0.23565 0.38341 0.75557 0.0
C2515 C 0.21007 0.35334 0.76736 0.0
C2516 C 0.17474 0.3568 0.80046 0.0
H2517 H 0.11371 0.27752 0.86051 0.0
H2518 H 0.13742 0.29363 0.83306 0.0
H2519 H 0.15017 0.3516 0.81764 0.0
H2520 H 0.23664 0.40737 0.77102 0.0
H2521 H 0.20962 0.38915 0.79395 0.0
H2522 H 0.19621 0.33086 0.8046 0.0
C2523 C 0.13415 0.30183 0.84389 0.0
C2524 C 0.16017 0.34697 0.81503 0.0
C2525 C 0.12037 0.29257 0.85949 0.0
C2526 C 0.22943 0.3923 0.76984 0.0
C2527 C 0.2138 0.38186 0.78281 0.0
C2528 C 0.1861 0.33538 0.8071 0.0
C2529 C 0.1435 0.32141 0.84223 0.0
C2530 C 0.15851 0.33135 0.826 0.0
C2531 C 0.20404 0.36225 0.78188 0.0
C2532 C 0.18796 0.35121 0.79647 0.0
H2533 H 0.1214 0.33042 0.88263 0.0
H2534 H 0.1457 0.34657 0.85582 0.0
H2535 H 0.17086 0.31377 0.8301 0.0
H2536 H 0.23018 0.35656 0.74355 0.0
H2537 H 0.20274 0.33826 0.76612 0.0
C2538 C 0.8561 0.64819 0.72426 0.0
C2539 C 0.86085 0.63469 0.71829 0.0
C2540 C 0.85141 0.65733 0.70875 0.0
C2541 C 0.85703 0.66957 0.65134 0.0
H2542 H 0.8158 0.6784 0.66155 0.0
C2543 C 0.83021 0.70043 0.58646 0.0
C2544 C 0.82537 0.7137 0.59318 0.0
C2545 C 0.83432 0.69044 0.60146 0.0
C2546 C 0.82748 0.67623 0.65854 0.0
H2547 H 0.86452 0.62036 0.69124 0.0
H2548 H 0.8561 0.63616 0.66416 0.0
H2549 H 0.82327 0.66154 0.68815 0.0
H2550 H 0.82086 0.72662 0.62109 0.0
H2551 H 0.82844 0.70956 0.64716 0.0
H2552 H 0.86133 0.68438 0.6218 0.0
C2553 C 0.85613 0.63974 0.68087 0.0
C2554 C 0.83175 0.66655 0.67379 0.0
C2555 C 0.86075 0.63053 0.69641 0.0
C2556 C 0.82476 0.71671 0.61529 0.0
C2557 C 0.82887 0.70673 0.63028 0.0
C2558 C 0.85278 0.67929 0.6361 0.0
C2559 C 0.85141 0.65325 0.68687 0.0
C2560 C 0.84662 0.66317 0.67041 0.0
C2561 C 0.83368 0.69345 0.62356 0.0
C2562 C 0.83801 0.68281 0.63956 0.0
H2563 H 0.85584 0.65159 0.74097 0.0
H2564 H 0.84803 0.6678 0.7139 0.0
H2565 H 0.86873 0.66741 0.64838 0.0
H2566 H 0.83099 0.69787 0.56958 0.0
H2567 H 0.8378 0.68018 0.59573 0.0
C2568 C 0.38514 0.23617 0.70001 0.0
C2569 C 0.38104 0.23299 0.72202 0.0
C2570 C 0.37595 0.22173 0.68519 0.0
C2571 C 0.33353 0.17564 0.67802 0.0
H2572 H 0.36195 0.1705 0.63167 0.0
C2573 C 0.30241 0.11159 0.62157 0.0
C2574 C 0.30687 0.11501 0.59966 0.0
C2575 C 0.31132 0.12591 0.63663 0.0
C2576 C 0.35377 0.17186 0.64438 0.0
H2577 H 0.36413 0.21203 0.74566 0.0
H2578 H 0.34809 0.18684 0.71981 0.0
H2579 H 0.37771 0.19563 0.65765 0.0
H2580 H 0.32393 0.1363 0.5764 0.0
H2581 H 0.33944 0.16122 0.6026 0.0
H2582 H 0.30959 0.15186 0.66473 0.0
C2583 C 0.35824 0.20059 0.714 0.0
C2584 C 0.36281 0.18627 0.65927 0.0
C2585 C 0.36744 0.21504 0.72882 0.0
C2586 C 0.32039 0.13309 0.59316 0.0
C2587 C 0.32928 0.14739 0.6082 0.0
C2588 C 0.32449 0.16122 0.66312 0.0
C2589 C 0.36242 0.20375 0.69201 0.0
C2590 C 0.35279 0.18836 0.67624 0.0
C2591 C 0.32489 0.14397 0.63012 0.0
C2592 C 0.3345 0.15919 0.6461 0.0
H2593 H 0.39529 0.24989 0.69417 0.0
H2594 H 0.37927 0.22471 0.66833 0.0
H2595 H 0.32536 0.17701 0.69074 0.0
H2596 H 0.29227 0.09777 0.62716 0.0
H2597 H 0.3078 0.12274 0.65342 0.0
C2598 C 0.90727 0.19485 0.6136 0.0
C2599 C 0.90422 0.1963 0.59169 0.0
C2600 C 0.89301 0.19013 0.62855 0.0
C2601 C 0.84804 0.18865 0.63698 0.0
H2602 H 0.84221 0.1542 0.68255 0.0
C2603 C 0.78568 0.15808 0.69649 0.0
C2604 C 0.78979 0.1569 0.71813 0.0
C2605 C 0.79935 0.16298 0.68064 0.0
C2606 C 0.84377 0.16398 0.67006 0.0
H2607 H 0.88378 0.19403 0.56835 0.0
H2608 H 0.85878 0.18569 0.59449 0.0
H2609 H 0.86646 0.16251 0.65561 0.0
H2610 H 0.81169 0.16046 0.74005 0.0
H2611 H 0.83544 0.16893 0.71247 0.0
H2612 H 0.82528 0.19007 0.65151 0.0
C2613 C 0.87231 0.18842 0.60011 0.0
C2614 C 0.85768 0.16876 0.65461 0.0
C2615 C 0.88662 0.19318 0.58512 0.0
C2616 C 0.80793 0.1609 0.72353 0.0
C2617 C 0.82156 0.16576 0.70771 0.0
C2618 C 0.83408 0.18384 0.65245 0.0
C2619 C 0.87531 0.18671 0.62198 0.0
C2620 C 0.86009 0.18126 0.63798 0.0
C2621 C 0.81742 0.16676 0.68606 0.0
C2622 C 0.83189 0.17156 0.66926 0.0
H2623 H 0.92077 0.19758 0.61928 0.0
H2624 H 0.89594 0.18934 0.64532 0.0
H2625 H 0.84966 0.19847 0.62452 0.0
H2626 H 0.7718 0.15485 0.69171 0.0
H2627 H 0.79565 0.16342 0.66408 0.0
C2628 C 0.96365 0.51192 0.45209 0.0
C2629 C 0.97373 0.52717 0.43825 0.0
C2630 C 0.97299 0.50658 0.46663 0.0
C2631 C 0.01901 0.5107 0.47637 0.0
H2632 H 0.99998 0.49516 0.53408 0.0
C2633 C 0.06134 0.49912 0.54188 0.0
C2634 C 0.05166 0.48342 0.55523 0.0
C2635 C 0.05166 0.50435 0.52776 0.0
C2636 C 1.00536 0.49928 0.51795 0.0
H2637 H 1.00149 0.54907 0.42927 0.0
H2638 H 0.01777 0.53985 0.45467 0.0
H2639 H 0.98341 0.50463 0.5093 0.0
H2640 H 0.02417 0.46084 0.56399 0.0
H2641 H 1.00726 0.47001 0.53939 0.0
H2642 H 0.04098 0.50542 0.48503 0.0
C2643 C 1.00266 0.53177 0.454 0.0
C2644 C 0.99586 0.5047 0.50374 0.0
C2645 C 0.99333 0.53707 0.43945 0.0
C2646 C 0.03205 0.47314 0.55417 0.0
C2647 C 0.02235 0.47839 0.54006 0.0
C2648 C 0.02851 0.50532 0.49058 0.0
C2649 C 0.99261 0.51639 0.46768 0.0
C2650 C 1.0026 0.51052 0.4828 0.0
C2651 C 0.03206 0.49404 0.52666 0.0
C2652 C 0.02182 0.49959 0.51154 0.0
H2653 H 0.94856 0.50382 0.45137 0.0
H2654 H 0.96483 0.49451 0.47673 0.0
H2655 H 0.0244 0.51478 0.46024 0.0
H2656 H 0.0764 0.50759 0.54254 0.0
H2657 H 0.05953 0.51666 0.51791 0.0
C2658 C 0.53463 0.55346 0.56244 0.0
C2659 C 0.5255 0.56395 0.56211 0.0
C2660 C 0.52931 0.53851 0.54831 0.0
C2661 C 0.50539 0.52047 0.49652 0.0
H2662 H 0.50412 0.47484 0.51395 0.0
C2663 C 0.47693 0.45617 0.44123 0.0
C2664 C 0.48723 0.44686 0.44014 0.0
C2665 C 0.48107 0.46991 0.4567 0.0
C2666 C 0.50457 0.48757 0.5088 0.0
H2667 H 0.50307 0.56639 0.54739 0.0
H2668 H 0.49373 0.54029 0.52288 0.0
H2669 H 0.51212 0.49966 0.54014 0.0
H2670 H 0.51008 0.44488 0.4545 0.0
H2671 H 0.51723 0.46878 0.48151 0.0
H2672 H 0.49789 0.50844 0.4652 0.0
C2673 C 0.50529 0.54388 0.53368 0.0
C2674 C 0.50916 0.50179 0.5238 0.0
C2675 C 0.51063 0.55884 0.54775 0.0
C2676 C 0.50166 0.45152 0.45506 0.0
C2677 C 0.50578 0.46525 0.47055 0.0
C2678 C 0.50077 0.50626 0.48156 0.0
C2679 C 0.51471 0.53368 0.5336 0.0
C2680 C 0.50963 0.51841 0.51782 0.0
C2681 C 0.4956 0.47467 0.47147 0.0
C2682 C 0.50032 0.48965 0.48752 0.0
H2683 H 0.54626 0.55717 0.57315 0.0
H2684 H 0.53701 0.53108 0.54851 0.0
H2685 H 0.50597 0.53323 0.49126 0.0
H2686 H 0.46553 0.45272 0.43026 0.0
H2687 H 0.47277 0.47671 0.4572 0.0
C2688 C 0.56967 0.05764 0.45622 0.0
C2689 C 0.57429 0.04781 0.44134 0.0
C2690 C 0.55573 0.04809 0.47157 0.0
C2691 C 0.52923 1.00243 0.499 0.0
H2692 H 0.49369 0.01893 0.51076 0.0
C2693 C 0.46103 0.9576 0.54637 0.0
C2694 C 0.45534 0.96671 0.56101 0.0
C2695 C 0.47618 0.96784 0.53268 0.0
C2696 C 0.50365 0.01429 0.50787 0.0
H2697 H 0.56802 0.02018 0.43125 0.0
H2698 H 0.54349 1.00353 0.45771 0.0
H2699 H 0.51889 0.03613 0.48514 0.0
H2700 H 0.46122 0.99379 0.57275 0.0
H2701 H 0.48784 0.01169 0.54903 0.0
H2702 H 0.51387 0.98048 0.5216 0.0
C2703 C 0.55078 0.01865 0.45765 0.0
C2704 C 0.5181 0.02415 0.49318 0.0
C2705 C 0.5647 0.02819 0.44229 0.0
C2706 C 0.46532 0.98633 0.5618 0.0
C2707 C 0.48045 0.99659 0.54804 0.0
C2708 C 0.51477 0.99256 0.51367 0.0
C2709 C 0.54608 0.02848 0.47243 0.0
C2710 C 0.53101 0.01828 0.48849 0.0
C2711 C 0.486 0.98746 0.53325 0.0
C2712 C 0.50175 0.99831 0.51819 0.0
H2713 H 0.57659 0.07273 0.45583 0.0
H2714 H 0.55259 0.0561 0.48285 0.0
H2715 H 0.53912 0.99771 0.49602 0.0
H2716 H 0.45383 0.94251 0.54553 0.0
H2717 H 0.47998 0.96037 0.52135 0.0
C2718 C 0.52338 0.98015 0.06017 0.0
C2719 C 0.52837 0.96692 0.05377 0.0
C2720 C 0.51912 0.98986 0.04491 0.0
C2721 C 0.52602 1.00355 0.98768 0.0
H2722 H 0.48453 0.01211 -0.00281 0.0
C2723 C 0.49868 0.0328 0.92167 0.0
C2724 C 0.49386 0.04621 0.92785 0.0
C2725 C 0.50292 0.02321 0.93708 0.0
C2726 C 0.49629 0.01002 -0.0056 0.0
H2727 H 0.53304 0.95379 0.02616 0.0
H2728 H 0.52525 0.97038 -0.00033 0.0
H2729 H 0.49186 0.99528 0.02402 0.0
H2730 H 0.48946 0.05977 0.95519 0.0
H2731 H 0.49716 0.0433 0.98201 0.0
H2732 H 0.53043 0.01826 0.95805 0.0
C2733 C 0.52478 0.97338 0.01649 0.0
C2734 C 0.5005 1.00037 0.00978 0.0
C2735 C 0.52901 0.96367 0.03173 0.0
C2736 C 0.49334 0.04973 0.94983 0.0
C2737 C 0.49754 0.04011 0.96523 0.0
C2738 C 0.52181 0.01318 0.97229 0.0
C2739 C 0.51981 0.98662 0.02288 0.0
C2740 C 0.5154 0.997 0.0066 0.0
C2741 C 0.50239 0.02674 0.95905 0.0
C2742 C 0.50688 0.01652 0.97545 0.0
H2743 H 0.5226 0.9829 0.07699 0.0
H2744 H 0.51553 1.0001 0.05039 0.0
H2745 H 0.53778 1.00147 0.98487 0.0
H2746 H 0.49937 0.02985 0.90489 0.0
H2747 H 0.50641 0.01286 0.93177 0.0
C2748 C 0.98834 0.47068 0.92748 0.0
C2749 C 0.97532 0.45232 0.93366 0.0
C2750 C 0.99761 0.48458 0.94287 0.0
C2751 C 1.01126 0.49151 -0.00014 0.0
H2752 H 0.01895 0.54119 0.99015 0.0
C2753 C 0.0437 0.54987 0.06399 0.0
C2754 C 0.05661 0.56793 0.05674 0.0
C2755 C 0.03327 0.53554 0.04939 0.0
C2756 C 0.01709 0.52744 -0.00699 0.0
H2757 H 0.96196 0.43419 0.96095 0.0
H2758 H 0.97797 0.45853 0.98783 0.0
H2759 H 1.00163 0.51664 0.96395 0.0
H2760 H 0.06841 0.58505 0.02832 0.0
H2761 H 0.05061 0.56005 0.00296 0.0
H2762 H 0.02687 0.50236 0.02885 0.0
C2763 C 0.98108 0.46213 0.97104 0.0
C2764 C 1.00715 0.51337 0.978 0.0
C2765 C 0.97175 0.44822 0.95563 0.0
C2766 C 0.05882 0.57129 0.03452 0.0
C2767 C 0.0484 0.55698 0.01995 0.0
C2768 C 0.02124 0.50561 0.01488 0.0
C2769 C 0.99413 0.48047 0.96484 0.0
C2770 C 1.00421 0.49527 0.98117 0.0
C2771 C 0.03547 0.53894 0.02718 0.0
C2772 C 0.02438 0.52378 0.01156 0.0
H2773 H 0.99128 0.47437 0.91071 0.0
H2774 H 1.00772 0.49853 0.93755 0.0
H2775 H 1.00945 0.47778 0.00266 0.0
H2776 H 0.04175 0.54676 0.08097 0.0
H2777 H 0.02331 0.52185 0.05552 0.0
C2778 C 0.46697 0.49127 0.06098 0.0
C2779 C 0.4486 0.48611 0.05505 0.0
C2780 C 0.48123 0.4979 0.04568 0.0
C2781 C 0.48953 0.49795 0.98749 0.0
H2782 H 0.53881 0.53873 0.00189 0.0
C2783 C 0.54961 0.53114 0.92539 0.0
C2784 C 0.56726 0.53475 0.93244 0.0
C2785 C 0.53497 0.52601 0.93999 0.0
C2786 C 0.52517 0.52723 -0.00232 0.0
H2787 H 0.43086 0.48377 0.02825 0.0
H2788 H 0.45583 0.49566 0.0016 0.0
H2789 H 0.51353 0.52828 0.02796 0.0
H2790 H 0.58347 0.53626 0.96046 0.0
H2791 H 0.55792 0.52705 0.98584 0.0
H2792 H 0.50123 0.49685 0.95724 0.0
C2793 C 0.45915 0.49442 0.01809 0.0
C2794 C 0.51067 0.52123 0.01263 0.0
C2795 C 0.44487 0.48779 0.03342 0.0
C2796 C 0.56999 0.53335 0.95445 0.0
C2797 C 0.5554 0.52829 0.96904 0.0
C2798 C 0.50403 0.50398 0.97253 0.0
C2799 C 0.47751 0.49955 0.02405 0.0
C2800 C 0.49272 0.50641 0.00779 0.0
C2801 C 0.53768 0.52446 0.96198 0.0
C2802 C 0.52206 0.51858 0.97752 0.0
H2803 H 0.47042 0.49037 0.0775 0.0
H2804 H 0.49516 0.50152 0.05079 0.0
H2805 H 0.47594 0.48634 0.98335 0.0
H2806 H 0.54699 0.53194 0.90853 0.0
H2807 H 0.52154 0.52332 0.93406 0.0
C2808 C 0.20789 0.03867 0.93691 0.0
C2809 C 0.21917 0.03068 0.94062 0.0
C2810 C 0.2147 0.05765 0.94037 0.0
C2811 C 0.25033 0.09736 0.97158 0.0
H2812 H 0.22978 0.12366 0.94057 0.0
C2813 C 0.26044 0.16786 0.00141 0.0
C2814 C 0.243 0.16609 0.00606 0.0
C2815 C 0.2616 0.15481 0.98809 0.0
C2816 C 0.23582 0.11659 0.94922 0.0
H2817 H 0.24688 0.03673 0.94999 0.0
H2818 H 0.259 0.07016 0.95568 0.0
H2819 H 0.2249 0.09386 0.92702 0.0
H2820 H 0.21336 0.15026 -0.00045 0.0
H2821 H 0.21542 0.12805 0.97553 0.0
H2822 H 0.26092 0.12003 -0.00601 0.0
C2823 C 0.24469 0.06155 0.95044 0.0
C2824 C 0.23291 0.09943 0.94158 0.0
C2825 C 0.2378 0.04242 0.94701 0.0
C2826 C 0.22699 0.15207 -0.00412 0.0
C2827 C 0.22819 0.13935 0.98219 0.0
C2828 C 0.25346 0.11467 0.97905 0.0
C2829 C 0.2331 0.06936 0.94746 0.0
C2830 C 0.23942 0.08919 0.95316 0.0
C2831 C 0.24537 0.14009 0.97889 0.0
C2832 C 0.24563 0.1241 0.96838 0.0
H2833 H 0.1936 0.03021 0.93155 0.0
H2834 H 0.2052 0.06295 0.93818 0.0
H2835 H 0.25546 0.0899 0.98105 0.0
H2836 H 0.27292 0.17831 0.00945 0.0
H2837 H 0.275 0.15568 0.9858 0.0
C2838 C 0.85379 0.08269 -0.0019 0.0
C2839 C 0.85064 0.08952 0.01729 0.0
C2840 C 0.86805 0.09483 0.9841 0.0
C2841 C 0.9019 0.14504 0.97254 0.0
H2842 H 0.93633 0.12718 0.96091 0.0
C2843 C 0.98061 0.19493 0.9556 0.0
C2844 C 0.99002 0.18875 0.9421 0.0
C2845 C 0.96181 0.18298 0.96101 0.0
C2846 C 0.92679 0.13237 0.96356 0.0
H2847 H 0.8587 0.11431 0.03626 0.0
H2848 H 0.88311 0.13547 0.0118 0.0
H2849 H 0.90556 0.10583 0.97532 0.0
H2850 H 0.98678 0.16569 0.92251 0.0
H2851 H 0.95408 0.14506 0.93146 0.0
H2852 H 0.92331 0.1717 0.96116 0.0
C2853 C 0.87479 0.12089 0.00739 0.0
C2854 C 0.90907 0.12005 0.97181 0.0
C2855 C 0.86083 0.10877 0.02145 0.0
C2856 C 0.98004 0.17069 0.93338 0.0
C2857 C 0.96126 0.15885 0.93856 0.0
C2858 C 0.91961 0.15736 0.96412 0.0
C2859 C 0.87912 0.11397 0.98901 0.0
C2860 C 0.89655 0.12632 0.97686 0.0
C2861 C 0.95196 0.16465 0.95281 0.0
C2862 C 0.93246 0.15128 0.95994 0.0
H2863 H 0.84627 0.06785 -0.00525 0.0
H2864 H 0.87097 0.08912 0.96996 0.0
H2865 H 0.89251 0.15026 0.9761 0.0
H2866 H 0.98798 0.20876 0.96259 0.0
H2867 H 0.95523 0.18791 0.97222 0.0
C2868 C 0.93765 0.77199 -0.00372 0.0
C2869 C 0.93249 0.7658 0.01745 0.0
C2870 C 0.92446 0.77198 0.98207 0.0
C2871 C 0.87335 0.75532 0.97562 0.0
H2872 H 0.89103 0.80354 0.94879 0.0
C2873 C 0.8252 0.78535 0.95464 0.0
C2874 C 0.8297 0.797 0.9366 0.0
C2875 C 0.83672 0.77819 0.96077 0.0
C2876 C 0.88585 0.78984 0.9558 0.0
H2877 H 0.90944 0.75342 0.03995 0.0
H2878 H 0.88661 0.75325 0.01545 0.0
H2879 H 0.91334 0.79626 0.96503 0.0
H2880 H 0.84883 0.80891 0.90981 0.0
H2881 H 0.86874 0.79638 0.92031 0.0
H2882 H 0.84574 0.74924 0.96709 0.0
C2883 C 0.90063 0.75812 0.00956 0.0
C2884 C 0.8987 0.78563 0.96506 0.0
C2885 C 0.91377 0.75833 0.02369 0.0
C2886 C 0.84526 0.80037 0.9241 0.0
C2887 C 0.85669 0.79319 0.93013 0.0
C2888 C 0.86047 0.75954 0.96639 0.0
C2889 C 0.90591 0.76555 0.98881 0.0
C2890 C 0.89259 0.76851 0.97559 0.0
C2891 C 0.8529 0.78246 0.94887 0.0
C2892 C 0.86653 0.77703 0.95678 0.0
H2893 H 0.95205 0.77792 0.99118 0.0
H2894 H 0.92892 0.77764 0.96611 0.0
H2895 H 0.86818 0.74188 0.98334 0.0
H2896 H 0.81333 0.78257 0.96458 0.0
H2897 H 0.83344 0.77006 0.97538 0.0
C2898 C 0.164 0.2585 0.46254 0.0
C2899 C 0.17375 0.24897 0.46657 0.0
C2900 C 0.15061 0.25743 0.47697 0.0
C2901 C 0.11674 0.22352 0.51385 0.0
H2902 H 0.10306 0.26161 0.52234 0.0
C2903 C 0.04547 0.20458 0.54984 0.0
C2904 C 0.03562 0.21205 0.5394 0.0
C2905 C 0.06445 0.21162 0.5458 0.0
C2906 C 0.10664 0.2508 0.52005 0.0
H2907 H 0.17811 0.23177 0.48928 0.0
H2908 H 0.15443 0.22973 0.51478 0.0
H2909 H 0.13382 0.27025 0.50782 0.0
H2910 H 0.03808 0.23329 0.51724 0.0
H2911 H 0.07124 0.24542 0.50968 0.0
H2912 H 0.08939 0.20392 0.52504 0.0
C2913 C 0.15721 0.23808 0.50042 0.0
C2914 C 0.12431 0.25577 0.51185 0.0
C2915 C 0.17086 0.23938 0.486 0.0
C2916 C 0.04535 0.2273 0.52552 0.0
C2917 C 0.06437 0.23427 0.52129 0.0
C2918 C 0.09909 0.21854 0.52196 0.0
C2919 C 0.14647 0.24656 0.49565 0.0
C2920 C 0.12938 0.2421 0.50814 0.0
C2921 C 0.07406 0.22622 0.53105 0.0
C2922 C 0.09363 0.23204 0.5247 0.0
H2923 H 0.166 0.26594 0.44756 0.0
H2924 H 0.14254 0.26397 0.47263 0.0
H2925 H 0.12002 0.21257 0.51084 0.0
H2926 H 0.03844 0.19312 0.56104 0.0
H2927 H 0.07152 0.20538 0.55402 0.0
C2928 C 0.75127 0.90952 0.46998 0.0
C2929 C 0.76582 0.92805 0.47197 0.0
C2930 C 0.75088 0.8955 0.48285 0.0
C2931 C 0.77302 0.88559 0.52909 0.0
H2932 H 0.76924 0.84602 0.49234 0.0
C2933 C 0.8081 0.84265 0.54972 0.0
C2934 C 0.80051 0.82421 0.54226 0.0
C2935 C 0.79988 0.85332 0.54448 0.0
C2936 C 0.76992 0.85664 0.50306 0.0
H2937 H 0.79085 0.94677 0.48946 0.0
H2938 H 0.79016 0.92231 0.51226 0.0
H2939 H 0.76139 0.86858 0.47824 0.0
H2940 H 0.77761 0.80223 0.52438 0.0
H2941 H 0.76293 0.82074 0.51561 0.0
H2942 H 0.78192 0.87383 0.55381 0.0
C2943 C 0.77885 0.91858 0.50102 0.0
C2944 C 0.76542 0.86964 0.49493 0.0
C2945 C 0.77923 0.93263 0.48808 0.0
C2946 C 0.78387 0.81639 0.53033 0.0
C2947 C 0.77556 0.82708 0.52514 0.0
C2948 C 0.77737 0.87246 0.53731 0.0
C2949 C 0.76517 0.89974 0.49781 0.0
C2950 C 0.76734 0.88454 0.50767 0.0
C2951 C 0.78369 0.84584 0.53178 0.0
C2952 C 0.77638 0.8581 0.52421 0.0
H2953 H 0.741 0.90566 0.45733 0.0
H2954 H 0.74003 0.88117 0.48017 0.0
H2955 H 0.77445 0.89679 0.53938 0.0
H2956 H 0.82063 0.84905 0.55937 0.0
H2957 H 0.80672 0.86772 0.54974 0.0
C2958 C 0.11195 0.84772 0.46907 0.0
C2959 C 0.09333 0.84357 0.47038 0.0
C2960 C 0.12562 0.86158 0.48206 0.0
C2961 C 0.1338 0.8945 0.52722 0.0
H2962 H 0.17593 0.92886 0.49223 0.0
C2963 C 0.17758 0.97304 0.54553 0.0
C2964 C 0.19671 0.9829 0.54034 0.0
C2965 C 0.16656 0.95413 0.54054 0.0
C2966 C 0.16452 0.91931 0.50245 0.0
H2967 H 0.07407 0.84989 0.48666 0.0
H2968 H 0.09789 0.87418 0.50946 0.0
H2969 H 0.15356 0.8984 0.47807 0.0
H2970 H 0.21938 0.9803 0.52658 0.0
H2971 H 0.20014 0.94711 0.51802 0.0
H2972 H 0.14454 0.91579 0.55135 0.0
C2973 C 0.10199 0.86652 0.49879 0.0
C2974 C 0.15164 0.90176 0.49432 0.0
C2975 C 0.08829 0.85256 0.48583 0.0
C2976 C 0.20471 0.97314 0.53079 0.0
C2977 C 0.19363 0.95415 0.52573 0.0
C2978 C 0.14673 0.91208 0.53538 0.0
C2979 C 0.12096 0.87178 0.49635 0.0
C2980 C 0.13588 0.88928 0.5064 0.0
C2981 C 0.17434 0.94448 0.53024 0.0
C2982 C 0.16202 0.92488 0.52289 0.0
H2983 H 0.11614 0.84115 0.45694 0.0
H2984 H 0.14001 0.86503 0.48002 0.0
H2985 H 0.12197 0.88515 0.53706 0.0
H2986 H 0.17101 0.97998 0.55328 0.0
H2987 H 0.15175 0.94726 0.54407 0.0
C2988 C 0.78897 0.97153 0.03488 0.0
C2989 C 0.80781 0.98365 0.04018 0.0
C2990 C 0.78235 0.95246 0.03131 0.0
C2991 C 0.79553 0.91543 0.03838 0.0
H2992 H 0.765 0.89357 0.98786 0.0
C2993 C 0.79938 0.86183 0.98366 0.0
C2994 C 0.78298 0.84754 0.9744 0.0
C2995 C 0.7987 0.87483 -0.00263 0.0
C2996 C 0.77319 0.89929 0.00229 0.0
H2997 H 0.83412 0.98485 0.04707 0.0
H2998 H 0.82293 0.95221 0.04022 0.0
H2999 H 0.77064 0.92378 0.0008 0.0
H3000 H 0.75294 0.83517 0.97262 0.0
H3001 H 0.75175 0.85826 -0.00364 0.0
H3002 H 0.79908 0.89146 0.03888 0.0
C3003 C 0.81308 0.95718 0.039 0.0
C3004 C 0.77643 0.91664 0.00975 0.0
C3005 C 0.81964 0.9761 0.04258 0.0
C3006 C 0.76573 0.84583 0.97998 0.0
C3007 C 0.76507 0.85914 -0.00667 0.0
C3008 C 0.79248 0.89822 0.03076 0.0
C3009 C 0.79441 0.94508 0.03308 0.0
C3010 C 0.7882 0.92525 0.02746 0.0
C3011 C 0.78164 0.8741 0.00163 0.0
C3012 C 0.78175 0.89024 0.01226 0.0
H3013 H 0.77947 0.97686 0.03291 0.0
H3014 H 0.76783 0.94355 0.02697 0.0
H3015 H 0.80423 0.92135 0.05241 0.0
H3016 H 0.81286 0.86361 0.97924 0.0
H3017 H 0.81171 0.88629 0.00331 0.0
C3018 C 0.04919 0.82049 0.03149 0.0
C3019 C 0.03912 0.82653 0.04403 0.0
C3020 C 0.06822 0.83254 0.02726 0.0
C3021 C 0.10237 0.88321 0.02516 0.0
H3022 H 0.13781 0.86647 0.01423 0.0
C3023 C 0.1742 0.93369 0.98928 0.0
C3024 C 0.17746 0.92647 0.97047 0.0
C3025 C 0.16057 0.92166 0.00393 0.0
C3026 C 0.12811 0.87138 0.01736 0.0
H3027 H 0.04132 0.84925 0.06344 0.0
H3028 H 0.07444 0.87004 0.0566 0.0
H3029 H 0.10703 0.84462 0.02895 0.0
H3030 H 0.17038 0.90125 0.95286 0.0
H3031 H 0.14699 0.88032 0.97839 0.0
H3032 H 0.12314 0.90977 0.01302 0.0
C3033 C 0.06764 0.85632 0.04931 0.0
C3034 C 0.11042 0.85883 0.02567 0.0
C3035 C 0.04865 0.8444 0.05329 0.0
C3036 C 0.16815 0.90708 0.96739 0.0
C3037 C 0.15477 0.89509 0.98207 0.0
C3038 C 0.12004 0.89575 0.01698 0.0
C3039 C 0.07759 0.85079 0.03574 0.0
C3040 C 0.09715 0.86447 0.02919 0.0
C3041 C 0.15019 0.90228 1e-05 0.0
C3042 C 0.13297 0.88988 0.01246 0.0
H3043 H 0.04215 0.8068 0.02414 0.0
H3044 H 0.07534 0.82781 0.01658 0.0
H3045 H 0.09249 0.88806 0.02729 0.0
H3046 H 0.18105 0.94864 0.99179 0.0
H3047 H 0.15745 0.9276 0.01772 0.0
C3048 C 0.20111 0.22986 0.02373 0.0
C3049 C 0.19605 0.21793 0.04156 0.0
C3050 C 0.19016 0.23768 0.01765 0.0
C3051 C 0.14145 0.22762 0.0226 0.0
H3052 H 0.16056 0.27527 -0.00618 0.0
C3053 C 0.09137 0.24727 0.98121 0.0
C3054 C 0.09639 0.2525 0.95976 0.0
C3055 C 0.1044 0.24714 -0.00446 0.0
C3056 C 0.155 0.26195 0.00193 0.0
H3057 H 0.17663 0.20618 0.06809 0.0
H3058 H 0.1578 0.22001 0.05783 0.0
H3059 H 0.18231 0.26722 0.01059 0.0
H3060 H 0.11914 0.2631 0.93684 0.0
H3061 H 0.14173 0.26306 0.9616 0.0
H3062 H 0.11423 0.22204 0.01332 0.0
C3063 C 0.16978 0.22288 0.04806 0.0
C3064 C 0.16748 0.2573 0.01144 0.0
C3065 C 0.1806 0.21497 0.05397 0.0
C3066 C 0.1149 0.25891 0.9533 0.0
C3067 C 0.1279 0.25902 0.96757 0.0
C3068 C 0.129 0.23227 0.01313 0.0
C3069 C 0.17404 0.23384 0.02943 0.0
C3070 C 0.16088 0.23987 0.02144 0.0
C3071 C 0.12268 0.25251 0.98866 0.0
C3072 C 0.13564 0.24927 0.00216 0.0
H3073 H 0.21292 0.23231 0.01388 0.0
H3074 H 0.1938 0.24595 0.00313 0.0
H3075 H 0.13582 0.21395 0.02987 0.0
H3076 H 0.07714 0.24219 0.98651 0.0
H3077 H 0.1 0.24219 0.01176 0.0
C3078 C 0.84956 0.75959 0.49948 0.0
C3079 C 0.85207 0.77605 0.50904 0.0
C3080 C 0.86336 0.76016 0.48582 0.0
C3081 C 0.90716 0.7929 0.45646 0.0
H3082 H 0.92491 0.75976 0.4752 0.0
C3083 C 0.98414 0.81514 0.45691 0.0
C3084 C 0.99012 0.80355 0.44751 0.0
C3085 C 0.96522 0.80887 0.45996 0.0
C3086 C 0.91993 0.76885 0.46946 0.0
H3087 H 0.87013 0.80596 0.51115 0.0
H3088 H 0.89382 0.80713 0.48708 0.0
H3089 H 0.89415 0.75399 0.48681 0.0
H3090 H 0.98058 0.77576 0.43488 0.0
H3091 H 0.94724 0.76455 0.44103 0.0
H3092 H 0.93342 0.80846 0.44032 0.0
C3093 C 0.88135 0.79377 0.48982 0.0
C3094 C 0.90228 0.76553 0.47603 0.0
C3095 C 0.86778 0.79314 0.50363 0.0
C3096 C 0.97655 0.78509 0.44217 0.0
C3097 C 0.95746 0.77869 0.44556 0.0
C3098 C 0.92477 0.79628 0.45007 0.0
C3099 C 0.87969 0.77723 0.48137 0.0
C3100 C 0.89605 0.77799 0.47032 0.0
C3101 C 0.95166 0.79071 0.45406 0.0
C3102 C 0.93163 0.78473 0.4572 0.0
H3103 H 0.83771 0.7462 0.50384 0.0
H3104 H 0.86165 0.7472 0.47949 0.0
H3105 H 0.90263 0.80255 0.45144 0.0
H3106 H 0.99407 0.82921 0.4619 0.0
H3107 H 0.96118 0.81828 0.46708 0.0
C3108 C 0.2638 0.1077 0.51991 0.0
C3109 C 0.25474 0.08851 0.51545 0.0
C3110 C 0.26256 0.12008 0.50572 0.0
C3111 C 0.22912 0.12014 0.46805 0.0
H3112 H 0.26726 0.17193 0.45971 0.0
C3113 C 0.21098 0.17192 0.4287 0.0
C3114 C 0.21841 0.18958 0.43835 0.0
C3115 C 0.21777 0.15999 0.43396 0.0
C3116 C 0.25642 0.15754 0.46199 0.0
H3117 H 0.23806 0.06718 0.49228 0.0
H3118 H 0.23573 0.08891 0.46722 0.0
H3119 H 0.27568 0.15 0.47522 0.0
H3120 H 0.23929 0.20887 0.46046 0.0
H3121 H 0.25098 0.18789 0.47014 0.0
H3122 H 0.20969 0.12769 0.45581 0.0
C3123 C 0.24387 0.09438 0.48172 0.0
C3124 C 0.26127 0.14494 0.47076 0.0
C3125 C 0.24535 0.08198 0.49589 0.0
C3126 C 0.23335 0.19537 0.45273 0.0
C3127 C 0.24006 0.18333 0.4582 0.0
C3128 C 0.22425 0.13272 0.4594 0.0
C3129 C 0.25197 0.11349 0.48686 0.0
C3130 C 0.2476 0.12617 0.47431 0.0
C3131 C 0.23208 0.16531 0.44919 0.0
C3132 C 0.23776 0.15168 0.45661 0.0
H3133 H 0.27103 0.11302 0.53501 0.0
H3134 H 0.26881 0.13461 0.51034 0.0
H3135 H 0.21816 0.10588 0.47092 0.0
H3136 H 0.19974 0.16724 0.41717 0.0
H3137 H 0.2116 0.14646 0.42626 0.0
C3138 C 0.9174 0.16987 0.5033 0.0
C3139 C 0.93483 0.17091 0.50479 0.0
C3140 C 0.90337 0.1564 0.49023 0.0
C3141 C 0.89288 0.11997 0.44885 0.0
H3142 H 0.84855 0.09015 0.48321 0.0
C3143 C 0.84607 0.04125 0.43634 0.0
C3144 C 0.82686 0.03234 0.44102 0.0
C3145 C 0.8576 0.06034 0.43984 0.0
C3146 C 0.86057 0.09846 0.47309 0.0
H3147 H 0.95171 0.1595 0.49328 0.0
H3148 H 0.92747 0.13628 0.47001 0.0
H3149 H 0.8722 0.12079 0.49583 0.0
H3150 H 0.80459 0.03683 0.45219 0.0
H3151 H 0.82475 0.07042 0.45808 0.0
H3152 H 0.88149 0.0974 0.42638 0.0
C3153 C 0.92459 0.14592 0.47865 0.0
C3154 C 0.87418 0.11608 0.48036 0.0
C3155 C 0.93853 0.15927 0.49187 0.0
C3156 C 0.81932 0.04324 0.44845 0.0
C3157 C 0.83092 0.06246 0.45198 0.0
C3158 C 0.8792 0.1024 0.44149 0.0
C3159 C 0.90658 0.14375 0.47846 0.0
C3160 C 0.89077 0.12679 0.46866 0.0
C3161 C 0.85028 0.0712 0.44803 0.0
C3162 C 0.86317 0.09112 0.45389 0.0
H3163 H 0.91412 0.17841 0.51359 0.0
H3164 H 0.88969 0.15516 0.49031 0.0
H3165 H 0.9054 0.12799 0.43934 0.0
H3166 H 0.85232 0.03341 0.43016 0.0
H3167 H 0.87243 0.06643 0.43685 0.0
C3168 C 0.92681 0.48566 0.36337 0.0
C3169 C 0.9212 0.49828 0.35654 0.0
C3170 C 0.9273 0.47295 0.34913 0.0
C3171 C 0.90352 0.44687 0.30117 0.0
H3172 H 0.93797 0.42811 0.3068 0.0
C3173 C 0.88997 0.38003 0.25766 0.0
C3174 C 0.89162 0.36683 0.27029 0.0
C3175 C 0.89716 0.39837 0.26472 0.0
C3176 C 0.92821 0.43315 0.30507 0.0
H3177 H 0.91265 0.50827 0.32918 0.0
H3178 H 0.91334 0.48572 0.30392 0.0
H3179 H 0.94491 0.45726 0.32442 0.0
H3180 H 0.90299 0.36282 0.29973 0.0
H3181 H 0.91551 0.39495 0.31229 0.0
H3182 H 0.8865 0.42251 0.28247 0.0
C3183 C 0.91733 0.48571 0.32045 0.0
C3184 C 0.93221 0.44989 0.31509 0.0
C3185 C 0.91706 0.49869 0.3348 0.0
C3186 C 0.90157 0.37269 0.28964 0.0
C3187 C 0.90875 0.39111 0.29678 0.0
C3188 C 0.89954 0.43016 0.29112 0.0
C3189 C 0.92204 0.4724 0.32763 0.0
C3190 C 0.91966 0.45669 0.31376 0.0
C3191 C 0.90618 0.40403 0.28464 0.0
C3192 C 0.9116 0.42285 0.29338 0.0
H3193 H 0.93022 0.48514 0.38005 0.0
H3194 H 0.93078 0.46284 0.35535 0.0
H3195 H 0.8934 0.45151 0.30005 0.0
H3196 H 0.88276 0.37605 0.24242 0.0
H3197 H 0.89533 0.40805 0.25472 0.0
C3198 C 0.64842 0.52938 0.29074 0.0
C3199 C 0.65723 0.52337 0.27612 0.0
C3200 C 0.62955 0.51779 0.29602 0.0
C3201 C 0.59334 0.46774 0.29637 0.0
H3202 H 0.56084 0.4869 0.31276 0.0
C3203 C 0.52143 0.41939 0.33431 0.0
C3204 C 0.51959 0.42629 0.35416 0.0
C3205 C 0.53519 0.43133 0.31971 0.0
C3206 C 0.56972 0.48132 0.30809 0.0
H3207 H 0.65287 0.50106 0.25445 0.0
H3208 H 0.62002 0.48102 0.26331 0.0
H3209 H 0.5914 0.50796 0.29702 0.0
H3210 H 0.5294 0.45107 0.37373 0.0
H3211 H 0.55299 0.47185 0.34832 0.0
H3212 H 0.57191 0.44124 0.30798 0.0
C3213 C 0.62773 0.49441 0.27127 0.0
C3214 C 0.58728 0.49341 0.29921 0.0
C3215 C 0.64659 0.5059 0.26617 0.0
C3216 C 0.53058 0.44545 0.35848 0.0
C3217 C 0.54404 0.45737 0.34386 0.0
C3218 C 0.57577 0.45565 0.30514 0.0
C3219 C 0.61904 0.5 0.28661 0.0
C3220 C 0.59952 0.48687 0.29376 0.0
C3221 C 0.54703 0.45035 0.32468 0.0
C3222 C 0.56395 0.4624 0.31164 0.0
H3223 H 0.6563 0.54274 0.29871 0.0
H3224 H 0.62342 0.52251 0.30809 0.0
H3225 H 0.60243 0.46219 0.29266 0.0
H3226 H 0.51321 0.40462 0.33076 0.0
H3227 H 0.5371 0.42556 0.30498 0.0
C3228 C 0.51362 0.13813 0.25639 0.0
C3229 C 0.49791 0.13549 0.26807 0.0
C3230 C 0.52459 0.13081 0.26374 0.0
C3231 C 0.5261 0.09741 0.30244 0.0
H3232 H 0.57944 0.13238 0.3019 0.0
C3233 C 0.57668 0.0952 0.36308 0.0
C3234 C 0.59521 0.10102 0.35725 0.0
C3235 C 0.56427 0.09562 0.34832 0.0
C3236 C 0.56465 0.12224 0.30175 0.0
H3237 H 0.48094 0.12237 0.29616 0.0
H3238 H 0.50019 0.10962 0.30919 0.0
H3239 H 0.55838 0.14042 0.28374 0.0
H3240 H 0.61512 0.11095 0.33112 0.0
H3241 H 0.5933 0.11188 0.30498 0.0
H3242 H 0.53239 0.07953 0.32113 0.0
C3243 C 0.50394 0.11725 0.29419 0.0
C3244 C 0.55252 0.12688 0.29138 0.0
C3245 C 0.4929 0.12457 0.28677 0.0
C3246 C 0.60087 0.10633 0.33595 0.0
C3247 C 0.58843 0.10699 0.32111 0.0
C3248 C 0.53823 0.09277 0.31279 0.0
C3249 C 0.52016 0.12065 0.28299 0.0
C3250 C 0.53306 0.11472 0.29204 0.0
C3251 C 0.57011 0.10205 0.32732 0.0
C3252 C 0.55762 0.10535 0.31307 0.0
H3253 H 0.5176 0.14608 0.24163 0.0
H3254 H 0.53673 0.13334 0.25446 0.0
H3255 H 0.51123 0.08758 0.3029 0.0
H3256 H 0.57192 0.09094 0.3794 0.0
H3257 H 0.5504 0.09192 0.35378 0.0
C3258 C 0.82558 0.59249 0.80149 0.0
C3259 C 0.83492 0.58248 0.80494 0.0
C3260 C 0.81179 0.59084 0.81569 0.0
C3261 C 0.77636 0.55517 0.84985 0.0
H3262 H 0.76333 0.59332 0.86148 0.0
C3263 C 0.70497 0.53591 0.88631 0.0
C3264 C 0.6956 0.54447 0.87716 0.0
C3265 C 0.72382 0.54251 0.88189 0.0
C3266 C 0.76671 0.58248 0.85828 0.0
H3267 H 0.83806 0.5637 0.82639 0.0
H3268 H 0.81375 0.56071 0.8515 0.0
H3269 H 0.79426 0.60225 0.84732 0.0
H3270 H 0.69884 0.56704 0.85668 0.0
H3271 H 0.73173 0.5784 0.84849 0.0
H3272 H 0.74866 0.53531 0.85981 0.0
C3273 C 0.81716 0.5699 0.8378 0.0
C3274 C 0.78449 0.58762 0.85029 0.0
C3275 C 0.8312 0.57176 0.82362 0.0
C3276 C 0.7057 0.5602 0.86402 0.0
C3277 C 0.72458 0.56674 0.85942 0.0
C3278 C 0.75859 0.55003 0.85774 0.0
C3279 C 0.80682 0.57888 0.83352 0.0
C3280 C 0.78937 0.57398 0.84553 0.0
C3281 C 0.73381 0.55778 0.86804 0.0
C3282 C 0.75338 0.56357 0.86164 0.0
H3283 H 0.82813 0.6007 0.78702 0.0
H3284 H 0.80404 0.59781 0.81174 0.0
H3285 H 0.7795 0.54426 0.846 0.0
H3286 H 0.6977 0.52405 0.89693 0.0
H3287 H 0.73053 0.53552 0.88922 0.0
C3288 C 0.45729 0.15244 0.86148 0.0
C3289 C 0.47224 0.15794 0.87578 0.0
C3290 C 0.4501 0.16431 0.85728 0.0
C3291 C 0.46521 0.21459 0.85898 0.0
H3292 H 0.41376 0.19745 0.84344 0.0
C3293 C 0.44456 0.26592 0.82383 0.0
C3294 C 0.43518 0.25958 0.80424 0.0
C3295 C 0.44578 0.25331 0.8379 0.0
C3296 C 0.42817 0.20247 0.84785 0.0
H3297 H 0.4903 0.17936 0.89827 0.0
H3298 H 0.47762 0.19981 0.89134 0.0
H3299 H 0.42234 0.17523 0.85768 0.0
H3300 H 0.41851 0.23523 0.7846 0.0
H3301 H 0.42037 0.21332 0.80901 0.0
H3302 H 0.47121 0.24165 0.8485 0.0
C3303 C 0.47182 0.1867 0.88275 0.0
C3304 C 0.43311 0.18971 0.8559 0.0
C3305 C 0.47908 0.17497 0.88676 0.0
C3306 C 0.42579 0.2404 0.7997 0.0
C3307 C 0.4268 0.22783 0.81376 0.0
C3308 C 0.46028 0.22732 0.85099 0.0
C3309 C 0.45762 0.18181 0.86749 0.0
C3310 C 0.45178 0.19553 0.86111 0.0
C3311 C 0.43745 0.2342 0.83261 0.0
C3312 C 0.4418 0.22135 0.8448 0.0
H3313 H 0.4518 0.13941 0.85279 0.0
H3314 H 0.43925 0.16012 0.84531 0.0
H3315 H 0.47979 0.21959 0.86249 0.0
H3316 H 0.45206 0.2807 0.82753 0.0
H3317 H 0.45395 0.25862 0.85241 0.0
C3318 C 0.84694 0.30902 0.88194 0.0
C3319 C 0.86596 0.31918 0.87629 0.0
C3320 C 0.8362 0.29 0.87734 0.0
C3321 C 0.83453 0.25505 0.83968 0.0
H3322 H 0.79222 0.22104 0.87471 0.0
C3323 C 0.7818 0.18325 0.80704 0.0
C3324 C 0.7633 0.17951 0.80801 0.0
C3325 C 0.79551 0.19703 0.82006 0.0
C3326 C 0.80401 0.23035 0.86478 0.0
H3327 H 0.88877 0.31701 0.86222 0.0
H3328 H 0.87004 0.28362 0.85442 0.0
H3329 H 0.81477 0.25183 0.88866 0.0
H3330 H 0.74427 0.18646 0.82375 0.0
H3331 H 0.76815 0.21053 0.8467 0.0
H3332 H 0.82353 0.23389 0.81557 0.0
C3333 C 0.86339 0.29051 0.86213 0.0
C3334 C 0.81691 0.24801 0.87274 0.0
C3335 C 0.87417 0.30962 0.86675 0.0
C3336 C 0.75839 0.18879 0.8232 0.0
C3337 C 0.77211 0.20263 0.83624 0.0
C3338 C 0.82169 0.23739 0.83178 0.0
C3339 C 0.84417 0.28053 0.86704 0.0
C3340 C 0.83206 0.26079 0.86004 0.0
C3341 C 0.79099 0.20751 0.83409 0.0
C3342 C 0.80601 0.22499 0.84401 0.0
H3343 H 0.84021 0.31579 0.88971 0.0
H3344 H 0.82144 0.28291 0.88117 0.0
H3345 H 0.84583 0.26455 0.82931 0.0
H3346 H 0.78591 0.17647 0.79508 0.0
H3347 H 0.80985 0.20024 0.81823 0.0
C3348 C 0.47276 0.20479 0.30661 0.0
C3349 C 0.45579 0.18863 0.30194 0.0
C3350 C 0.47342 0.21786 0.3212 0.0
C3351 C 0.44461 0.23682 0.33928 0.0
H3352 H 0.48812 0.26755 0.37428 0.0
C3353 C 0.46217 0.30893 0.37698 0.0
C3354 C 0.48062 0.32312 0.37261 0.0
C3355 C 0.45642 0.29019 0.3724 0.0
C3356 C 0.47581 0.25903 0.36469 0.0
H3357 H 0.42626 0.17297 0.30941 0.0
H3358 H 0.42733 0.19612 0.33501 0.0
H3359 H 0.48288 0.2376 0.36089 0.0
H3360 H 0.50703 0.32864 0.35878 0.0
H3361 H 0.49718 0.29629 0.35134 0.0
H3362 H 0.43804 0.25877 0.34241 0.0
C3363 C 0.44016 0.19854 0.32746 0.0
C3364 C 0.47279 0.24188 0.35705 0.0
C3365 C 0.43957 0.18522 0.31303 0.0
C3366 C 0.49292 0.31815 0.36301 0.0
C3367 C 0.48727 0.29955 0.3587 0.0
C3368 C 0.4476 0.25402 0.34703 0.0
C3369 C 0.45704 0.21524 0.33124 0.0
C3370 C 0.45761 0.23095 0.3435 0.0
C3371 C 0.46908 0.28532 0.3636 0.0
C3372 C 0.46368 0.26563 0.35903 0.0
H3373 H 0.4854 0.2078 0.29809 0.0
H3374 H 0.48661 0.23064 0.32349 0.0
H3375 H 0.43284 0.22877 0.32877 0.0
H3376 H 0.45233 0.31222 0.38442 0.0
H3377 H 0.44226 0.27948 0.37621 0.0
C3378 C 0.82115 0.27395 0.31179 0.0
C3379 C 0.83676 0.27228 0.30665 0.0
C3380 C 0.80766 0.26151 0.32605 0.0
C3381 C 0.78649 0.21289 0.34219 0.0
H3382 H 0.75671 0.22638 0.37801 0.0
C3383 C 0.71348 0.15925 0.37903 0.0
C3384 C 0.69971 0.16419 0.37514 0.0
C3385 C 0.73238 0.1719 0.37457 0.0
C3386 C 0.76494 0.22237 0.36816 0.0
H3387 H 0.85104 0.25684 0.31299 0.0
H3388 H 0.8272 0.2348 0.33806 0.0
H3389 H 0.78719 0.25063 0.36521 0.0
H3390 H 0.69514 0.186 0.36233 0.0
H3391 H 0.72774 0.20789 0.35513 0.0
H3392 H 0.76377 0.18465 0.34456 0.0
C3393 C 0.82551 0.24586 0.33111 0.0
C3394 C 0.7824 0.23626 0.36085 0.0
C3395 C 0.83925 0.2586 0.31701 0.0
C3396 C 0.70528 0.18183 0.36618 0.0
C3397 C 0.72404 0.19444 0.36201 0.0
C3398 C 0.76899 0.19894 0.34962 0.0
C3399 C 0.80929 0.24688 0.33529 0.0
C3400 C 0.79305 0.2318 0.34704 0.0
C3401 C 0.73784 0.18976 0.36639 0.0
C3402 C 0.75773 0.20368 0.36194 0.0
H3403 H 0.81884 0.28426 0.3038 0.0
H3404 H 0.79528 0.26261 0.32864 0.0
H3405 H 0.79428 0.20899 0.33146 0.0
H3406 H 0.70977 0.14585 0.38597 0.0
H3407 H 0.74275 0.1679 0.37799 0.0
C3408 C 0.86644 0.55966 0.36615 0.0
C3409 C 0.86043 0.54414 0.37972 0.0
C3410 C 0.85447 0.56657 0.36124 0.0
C3411 C 0.80388 0.55068 0.3596 0.0
H3412 H 0.82129 0.60261 0.34628 0.0
C3413 C 0.75381 0.57248 0.32321 0.0
C3414 C 0.76084 0.58237 0.30399 0.0
C3415 C 0.76589 0.57081 0.33767 0.0
C3416 C 0.8162 0.58806 0.35007 0.0
H3417 H 0.83779 0.52462 0.40009 0.0
H3418 H 0.81713 0.53682 0.39197 0.0
H3419 H 0.84299 0.59373 0.36145 0.0
H3420 H 0.78586 0.59939 0.28542 0.0
H3421 H 0.80689 0.59681 0.31061 0.0
H3422 H 0.77727 0.54493 0.34769 0.0
C3423 C 0.83078 0.54331 0.38446 0.0
C3424 C 0.82866 0.58295 0.35863 0.0
C3425 C 0.84263 0.53631 0.38915 0.0
C3426 C 0.78017 0.59176 0.30023 0.0
C3427 C 0.79222 0.59032 0.31472 0.0
C3428 C 0.79143 0.5558 0.35115 0.0
C3429 C 0.83631 0.55822 0.37001 0.0
C3430 C 0.82277 0.56412 0.36304 0.0
C3431 C 0.78516 0.57919 0.33318 0.0
C3432 C 0.79753 0.57448 0.34578 0.0
H3433 H 0.88006 0.56591 0.35863 0.0
H3434 H 0.85918 0.57795 0.34989 0.0
H3435 H 0.79884 0.536 0.36244 0.0
H3436 H 0.7389 0.56495 0.32627 0.0
H3437 H 0.76007 0.56225 0.35186 0.0
C3438 C 0.64993 0.14588 0.77494 0.0
C3439 C 0.65854 0.13514 0.77852 0.0
C3440 C 0.63076 0.13825 0.77789 0.0
C3441 C 0.59144 0.10125 0.80806 0.0
H3442 H 0.56354 0.1195 0.77612 0.0
C3443 C 0.51965 0.08684 0.83756 0.0
C3444 C 0.51944 0.10352 0.84078 0.0
C3445 C 0.53327 0.0866 0.82439 0.0
C3446 C 0.57109 0.11415 0.78508 0.0
H3447 H 0.65347 0.10761 0.78715 0.0
H3448 H 0.61973 0.09409 0.79209 0.0
H3449 H 0.59425 0.1263 0.76337 0.0
H3450 H 0.53247 0.13272 0.83228 0.0
H3451 H 0.55588 0.13227 0.80876 0.0
H3452 H 0.56847 0.08955 0.83007 0.0
C3453 C 0.62798 0.10858 0.78727 0.0
C3454 C 0.58873 0.11812 0.77786 0.0
C3455 C 0.64729 0.11626 0.78429 0.0
C3456 C 0.53211 0.11961 0.82954 0.0
C3457 C 0.54554 0.11932 0.81616 0.0
C3458 C 0.57372 0.09714 0.81516 0.0
C3459 C 0.61952 0.11958 0.7844 0.0
C3460 C 0.59945 0.11234 0.78972 0.0
C3461 C 0.54679 0.10303 0.81419 0.0
C3462 C 0.56364 0.10411 0.80417 0.0
H3463 H 0.65806 0.16034 0.77005 0.0
H3464 H 0.62488 0.14727 0.7758 0.0
H3465 H 0.5993 0.0967 0.81773 0.0
H3466 H 0.51028 0.0744 0.84654 0.0
H3467 H 0.53385 0.07384 0.82312 0.0
C3468 C 0.87151 0.50466 0.77454 0.0
C3469 C 0.88143 0.52403 0.7782 0.0
C3470 C 0.87954 0.49367 0.77902 0.0
C3471 C 0.91547 0.49314 0.81327 0.0
H3472 H 0.90255 0.44808 0.78121 0.0
C3473 C 0.93544 0.44069 0.84549 0.0
C3474 C 0.92026 0.42243 0.84678 0.0
C3475 C 0.93453 0.45389 0.8323 0.0
C3476 C 0.90633 0.46064 0.79029 0.0
H3477 H 0.90795 0.54712 0.78869 0.0
H3478 H 0.92215 0.52793 0.79626 0.0
H3479 H 0.894 0.47037 0.76719 0.0
H3480 H 0.89257 0.4033 0.83497 0.0
H3481 H 0.89093 0.42621 0.81168 0.0
H3482 H 0.92731 0.4832 0.83665 0.0
C3483 C 0.90799 0.52122 0.79019 0.0
C3484 C 0.90139 0.4734 0.78231 0.0
C3485 C 0.89992 0.53225 0.78569 0.0
C3486 C 0.90463 0.41719 0.83373 0.0
C3487 C 0.9037 0.43037 0.82048 0.0
C3488 C 0.92048 0.48044 0.82119 0.0
C3489 C 0.89778 0.50173 0.78722 0.0
C3490 C 0.90543 0.48956 0.794 0.0
C3491 C 0.91832 0.44908 0.82032 0.0
C3492 C 0.91555 0.4638 0.81008 0.0
H3493 H 0.8574 0.49786 0.76838 0.0
H3494 H 0.87114 0.47872 0.77674 0.0
H3495 H 0.91861 0.50527 0.82287 0.0
H3496 H 0.94746 0.44509 0.85583 0.0
H3497 H 0.9461 0.46812 0.83236 0.0
C3498 C 0.48869 0.37424 0.78837 0.0
C3499 C 0.49499 0.36454 0.77553 0.0
C3500 C 0.5005 0.3932 0.79295 0.0
C3501 C 0.55098 0.42824 0.79529 0.0
H3502 H 0.53277 0.46243 0.80667 0.0
C3503 C 0.5996 0.50075 0.83133 0.0
C3504 C 0.59213 0.50348 0.85028 0.0
C3505 C 0.58793 0.48677 0.81682 0.0
C3506 C 0.53809 0.45308 0.80341 0.0
H3507 H 0.51804 0.36741 0.75614 0.0
H3508 H 0.53845 0.40045 0.76368 0.0
H3509 H 0.51164 0.43165 0.79162 0.0
H3510 H 0.56672 0.49503 0.86826 0.0
H3511 H 0.5464 0.47109 0.84294 0.0
H3512 H 0.57726 0.44944 0.80758 0.0
C3513 C 0.52467 0.39336 0.77087 0.0
C3514 C 0.52595 0.43539 0.79492 0.0
C3515 C 0.51296 0.37441 0.7665 0.0
C3516 C 0.57276 0.49319 0.85367 0.0
C3517 C 0.56112 0.47951 0.83911 0.0
C3518 C 0.56312 0.44594 0.80363 0.0
C3519 C 0.5188 0.40293 0.78458 0.0
C3520 C 0.53211 0.42254 0.79126 0.0
C3521 C 0.56864 0.47559 0.82096 0.0
C3522 C 0.5567 0.45839 0.80834 0.0
H3523 H 0.47494 0.36696 0.7956 0.0
H3524 H 0.49553 0.40001 0.80377 0.0
H3525 H 0.55622 0.4187 0.79301 0.0
H3526 H 0.61454 0.50839 0.82853 0.0
H3527 H 0.5941 0.48414 0.80288 0.0
C3528 C 0.59875 0.82466 0.69428 0.0
C3529 C 0.59284 0.83712 0.68778 0.0
C3530 C 0.59938 0.81219 0.67978 0.0
C3531 C 0.57493 0.7862 0.63217 0.0
H3532 H 0.60929 0.76725 0.63667 0.0
C3533 C 0.55938 0.71846 0.58963 0.0
C3534 C 0.56122 0.70543 0.60236 0.0
C3535 C 0.56713 0.73701 0.59615 0.0
C3536 C 0.59957 0.77236 0.63525 0.0
H3537 H 0.58397 0.84716 0.66074 0.0
H3538 H 0.5849 0.82505 0.63505 0.0
H3539 H 0.61673 0.79657 0.65425 0.0
H3540 H 0.5735 0.70187 0.63131 0.0
H3541 H 0.58691 0.73433 0.64299 0.0
H3542 H 0.5574 0.76171 0.61394 0.0
C3543 C 0.58904 0.82497 0.6515 0.0
C3544 C 0.60385 0.78919 0.64524 0.0
C3545 C 0.58863 0.8377 0.6661 0.0
C3546 C 0.57192 0.71162 0.62117 0.0
C3547 C 0.57962 0.73023 0.6278 0.0
C3548 C 0.57065 0.7694 0.62218 0.0
C3549 C 0.59393 0.81173 0.65837 0.0
C3550 C 0.59132 0.79603 0.64435 0.0
C3551 C 0.57686 0.74301 0.61564 0.0
C3552 C 0.58267 0.76201 0.62406 0.0
H3553 H 0.6022 0.82401 0.71091 0.0
H3554 H 0.60301 0.80212 0.68574 0.0
H3555 H 0.56482 0.79087 0.63142 0.0
H3556 H 0.55158 0.71418 0.57479 0.0
H3557 H 0.56512 0.74656 0.58614 0.0
C3558 C 0.30447 0.83832 0.59707 0.0
C3559 C 0.3167 0.85591 0.60604 0.0
C3560 C 0.2859 0.82799 0.60381 0.0
C3561 C 0.25637 0.82305 0.65051 0.0
H3562 H 0.21641 0.78815 0.61347 0.0
C3563 C 0.18486 0.77405 0.68613 0.0
C3564 C 0.17795 0.75514 0.68142 0.0
C3565 C 0.19889 0.78794 0.67354 0.0
C3566 C 0.22742 0.79784 0.62399 0.0
H3567 H 0.31851 0.87677 0.62848 0.0
H3568 H 0.28594 0.85897 0.63988 0.0
H3569 H 0.24682 0.81023 0.59804 0.0
H3570 H 0.17934 0.73573 0.65933 0.0
H3571 H 0.20407 0.76007 0.63715 0.0
H3572 H 0.2372 0.81053 0.67647 0.0
C3573 C 0.2909 0.85296 0.62793 0.0
C3574 C 0.24488 0.81047 0.61519 0.0
C3575 C 0.30956 0.86329 0.62124 0.0
C3576 C 0.18422 0.75027 0.66295 0.0
C3577 C 0.19844 0.76422 0.65037 0.0
C3578 C 0.23894 0.81056 0.65925 0.0
C3579 C 0.27892 0.835 0.61962 0.0
C3580 C 0.2597 0.82301 0.62841 0.0
C3581 C 0.20653 0.78317 0.65617 0.0
C3582 C 0.22432 0.7976 0.64617 0.0
H3583 H 0.30925 0.83231 0.58496 0.0
H3584 H 0.27724 0.81418 0.59715 0.0
H3585 H 0.26747 0.83218 0.6613 0.0
H3586 H 0.18029 0.77807 0.70044 0.0
H3587 H 0.20455 0.80239 0.67819 0.0
C3588 C 0.16583 0.45535 0.61026 0.0
C3589 C 0.1703 0.47396 0.61383 0.0
C3590 C 0.17899 0.44973 0.6145 0.0
C3591 C 0.22981 0.46921 0.61929 0.0
H3592 H 0.21883 0.42808 0.65763 0.0
C3593 C 0.28392 0.4687 0.67492 0.0
C3594 C 0.28294 0.45189 0.68087 0.0
C3595 C 0.27094 0.46875 0.6607 0.0
C3596 C 0.22207 0.43931 0.64643 0.0
H3597 H 0.1918 0.50081 0.62596 0.0
H3598 H 0.21456 0.49119 0.63274 0.0
H3599 H 0.19343 0.43269 0.64486 0.0
H3600 H 0.26822 0.42198 0.67594 0.0
H3601 H 0.24525 0.42198 0.65095 0.0
H3602 H 0.25846 0.47634 0.62144 0.0
C3603 C 0.20108 0.48103 0.62627 0.0
C3604 C 0.2075 0.44197 0.6392 0.0
C3605 C 0.18797 0.48656 0.62232 0.0
C3606 C 0.26945 0.43517 0.67129 0.0
C3607 C 0.25618 0.43516 0.65723 0.0
C3608 C 0.2443 0.46651 0.6264 0.0
C3609 C 0.19689 0.46267 0.62214 0.0
C3610 C 0.21137 0.45742 0.62629 0.0
C3611 C 0.25645 0.45192 0.65233 0.0
C3612 C 0.24073 0.45202 0.6408 0.0
H3613 H 0.15239 0.44527 0.6037 0.0
H3614 H 0.17536 0.43543 0.61132 0.0
H3615 H 0.23315 0.48104 0.60901 0.0
H3616 H 0.29406 0.48174 0.68231 0.0
H3617 H 0.27148 0.48189 0.65754 0.0
C3618 C 0.49077 0.88971 0.14761 0.0
C3619 C 0.50605 0.90656 0.14066 0.0
C3620 C 0.4773 0.88968 0.16111 0.0
C3621 C 0.4558 0.91821 0.17099 0.0
H3622 H 0.42484 0.87712 0.20911 0.0
C3623 C 0.38182 0.90052 0.20377 0.0
C3624 C 0.36811 0.88185 0.19955 0.0
C3625 C 0.40086 0.90664 0.20049 0.0
C3626 C 0.43344 0.88879 0.19865 0.0
H3627 H 0.51983 0.93665 0.14306 0.0
H3628 H 0.49619 0.93672 0.16694 0.0
H3629 H 0.4557 0.88268 0.19887 0.0
H3630 H 0.36391 0.85541 0.18733 0.0
H3631 H 0.39675 0.86588 0.18238 0.0
H3632 H 0.4331 0.92387 0.17038 0.0
C3633 C 0.49468 0.92348 0.16198 0.0
C3634 C 0.4511 0.89197 0.19275 0.0
C3635 C 0.50835 0.92347 0.1486 0.0
C3636 C 0.37393 0.8697 0.19143 0.0
C3637 C 0.39282 0.8757 0.18851 0.0
C3638 C 0.43814 0.91513 0.1771 0.0
C3639 C 0.47864 0.90657 0.16774 0.0
C3640 C 0.46216 0.90618 0.17808 0.0
C3641 C 0.40651 0.89412 0.19326 0.0
C3642 C 0.4265 0.8999 0.19025 0.0
H3643 H 0.48855 0.87652 0.14136 0.0
H3644 H 0.46509 0.87639 0.16489 0.0
H3645 H 0.46386 0.92921 0.15955 0.0
H3646 H 0.37797 0.91031 0.2101 0.0
H3647 H 0.41116 0.92097 0.20413 0.0
C3648 C 0.10424 0.59441 0.14771 0.0
C3649 C 0.12116 0.60912 0.13986 0.0
C3650 C 0.10425 0.58062 0.16084 0.0
C3651 C 0.13488 0.56824 0.19224 0.0
H3652 H 0.10488 0.51913 0.1671 0.0
C3653 C 0.15631 0.51235 0.19745 0.0
C3654 C 0.14263 0.49338 0.19933 0.0
C3655 C 0.15125 0.52598 0.19456 0.0
C3656 C 0.11308 0.53262 0.17468 0.0
H3657 H 0.15124 0.6218 0.14063 0.0
H3658 H 0.15135 0.5983 0.164 0.0
H3659 H 0.09994 0.54463 0.15608 0.0
H3660 H 0.11279 0.47398 0.1998 0.0
H3661 H 0.10392 0.49789 0.1949 0.0
H3662 H 0.14845 0.55643 0.21031 0.0
C3663 C 0.13807 0.59721 0.16013 0.0
C3664 C 0.11021 0.54726 0.16838 0.0
C3665 C 0.13804 0.61073 0.14676 0.0
C3666 C 0.12369 0.48845 0.1985 0.0
C3667 C 0.11861 0.50214 0.19554 0.0
C3668 C 0.1377 0.55361 0.19859 0.0
C3669 C 0.12118 0.58155 0.16655 0.0
C3670 C 0.12152 0.56538 0.17656 0.0
C3671 C 0.13236 0.52109 0.19351 0.0
C3672 C 0.12729 0.53578 0.18933 0.0
H3673 H 0.09104 0.59268 0.14225 0.0
H3674 H 0.09101 0.56877 0.16564 0.0
H3675 H 0.14365 0.58197 0.19905 0.0
H3676 H 0.17101 0.51677 0.19835 0.0
H3677 H 0.16225 0.54036 0.19271 0.0
C3678 C 0.41825 0.51172 0.16023 0.0
C3679 C 0.42321 0.50906 0.13956 0.0
C3680 C 0.43158 0.52594 0.17337 0.0
C3681 C 0.45698 0.56675 0.18574 0.0
H3682 H 0.51019 0.58465 0.18306 0.0
C3683 C 0.51076 0.64453 0.1903 0.0
C3684 C 0.5274 0.65062 0.20188 0.0
C3685 C 0.49848 0.62555 0.1869 0.0
C3686 C 0.49538 0.57976 0.18429 0.0
H3687 H 0.446 0.5179 0.11698 0.0
H3688 H 0.46913 0.54235 0.13969 0.0
H3689 H 0.488 0.55286 0.17159 0.0
H3690 H 0.54429 0.64137 0.21864 0.0
H3691 H 0.52281 0.60802 0.21242 0.0
H3692 H 0.46434 0.59374 0.19799 0.0
C3693 C 0.45517 0.53367 0.14602 0.0
C3694 C 0.48265 0.56157 0.17757 0.0
C3695 C 0.44188 0.51969 0.13292 0.0
C3696 C 0.53168 0.63718 0.20952 0.0
C3697 C 0.51933 0.61807 0.20604 0.0
C3698 C 0.46969 0.5849 0.19243 0.0
C3699 C 0.45006 0.53752 0.16606 0.0
C3700 C 0.4633 0.55507 0.1775 0.0
C3701 C 0.50245 0.61204 0.19493 0.0
C3702 C 0.48906 0.59186 0.19105 0.0
H3703 H 0.40387 0.50379 0.16557 0.0
H3704 H 0.42723 0.52843 0.18882 0.0
H3705 H 0.44224 0.56233 0.1858 0.0
H3706 H 0.5072 0.65445 0.18372 0.0
H3707 H 0.4859 0.62148 0.17771 0.0
C3708 C 0.12136 0.63601 0.70991 0.0
C3709 C 0.1379 0.64981 0.70013 0.0
C3710 C 0.11528 0.61699 0.70685 0.0
C3711 C 0.1331 0.58564 0.68994 0.0
H3712 H 0.08155 0.55041 0.67584 0.0
C3713 C 0.09389 0.51896 0.63332 0.0
C3714 C 0.10421 0.51007 0.63763 0.0
C3715 C 0.09441 0.53233 0.64733 0.0
C3716 C 0.09599 0.56003 0.67993 0.0
H3717 H 0.16042 0.65437 0.67862 0.0
H3718 H 0.1499 0.62154 0.67324 0.0
H3719 H 0.09027 0.58209 0.68687 0.0
H3720 H 0.1221 0.50707 0.6606 0.0
H3721 H 0.12299 0.53055 0.68549 0.0
H3722 H 0.13913 0.56414 0.68172 0.0
C3723 C 0.14187 0.62528 0.68377 0.0
C3724 C 0.10095 0.57816 0.6864 0.0
C3725 C 0.14788 0.64416 0.68679 0.0
C3726 C 0.11388 0.51363 0.65709 0.0
C3727 C 0.11454 0.52722 0.67115 0.0
C3728 C 0.12816 0.56758 0.68345 0.0
C3729 C 0.12567 0.61144 0.694 0.0
C3730 C 0.1197 0.59139 0.69066 0.0
C3731 C 0.10546 0.53731 0.66593 0.0
C3732 C 0.10967 0.55475 0.67757 0.0
H3733 H 0.11342 0.6399 0.7204 0.0
H3734 H 0.10272 0.60667 0.71492 0.0
H3735 H 0.14761 0.59537 0.69358 0.0
H3736 H 0.0864 0.51646 0.61831 0.0
H3737 H 0.08739 0.53985 0.64257 0.0
C3738 C 0.38671 0.49194 0.71122 0.0
C3739 C 0.37392 0.49826 0.71423 0.0
C3740 C 0.40519 0.50446 0.70486 0.0
C3741 C 0.43944 0.55524 0.70509 0.0
H3742 H 0.46406 0.545 0.6585 0.0
C3743 C 0.49303 0.61143 0.64974 0.0
C3744 C 0.50798 0.60984 0.64159 0.0
C3745 C 0.47999 0.59783 0.6635 0.0
C3746 C 0.45757 0.54794 0.67188 0.0
H3747 H 0.3701 0.52226 0.71138 0.0
H3748 H 0.4019 0.54383 0.70038 0.0
H3749 H 0.43404 0.52005 0.67204 0.0
H3750 H 0.52154 0.59321 0.642 0.0
H3751 H 0.49847 0.56912 0.66598 0.0
H3752 H 0.46244 0.58328 0.70431 0.0
C3753 C 0.39801 0.52945 0.70356 0.0
C3754 C 0.44035 0.53365 0.67959 0.0
C3755 C 0.37972 0.51705 0.7098 0.0
C3756 C 0.51032 0.59494 0.64842 0.0
C3757 C 0.497 0.58105 0.66189 0.0
C3758 C 0.45655 0.56946 0.69738 0.0
C3759 C 0.41112 0.52348 0.70148 0.0
C3760 C 0.43077 0.53737 0.69572 0.0
C3761 C 0.4814 0.5821 0.66905 0.0
C3762 C 0.46549 0.56616 0.68018 0.0
H3763 H 0.38261 0.47754 0.71453 0.0
H3764 H 0.41496 0.49942 0.70323 0.0
H3765 H 0.43264 0.55843 0.71792 0.0
H3766 H 0.49078 0.62263 0.64442 0.0
H3767 H 0.46806 0.59898 0.66853 0.0
C3768 C 0.41253 0.88369 0.6445 0.0
C3769 C 0.41371 0.90074 0.63935 0.0
C3770 C 0.42557 0.88309 0.65814 0.0
C3771 C 0.47473 0.9118 0.67239 0.0
H3772 H 0.46335 0.86854 0.70723 0.0
C3773 C 0.53034 0.89413 0.70735 0.0
C3774 C 0.52614 0.87582 0.70227 0.0
C3775 C 0.51727 0.89994 0.70342 0.0
C3776 C 0.46676 0.88079 0.69768 0.0
H3777 H 0.42895 0.93054 0.64499 0.0
H3778 H 0.45201 0.92959 0.66909 0.0
H3779 H 0.43817 0.87389 0.69596 0.0
H3780 H 0.50521 0.84979 0.6878 0.0
H3781 H 0.48255 0.85969 0.68166 0.0
H3782 H 0.50335 0.91829 0.67368 0.0
C3783 C 0.44087 0.91663 0.66262 0.0
C3784 C 0.45235 0.88386 0.6912 0.0
C3785 C 0.42755 0.91717 0.64911 0.0
C3786 C 0.50883 0.86376 0.69258 0.0
C3787 C 0.49578 0.86945 0.68898 0.0
C3788 C 0.48923 0.9088 0.67905 0.0
C3789 C 0.44034 0.89962 0.66675 0.0
C3790 C 0.45602 0.89894 0.67771 0.0
C3791 C 0.4997 0.88747 0.69462 0.0
C3792 C 0.48524 0.89283 0.69102 0.0
H3793 H 0.40215 0.87088 0.63689 0.0
H3794 H 0.42481 0.86977 0.66064 0.0
H3795 H 0.47806 0.92349 0.66189 0.0
H3796 H 0.54346 0.90382 0.71487 0.0
H3797 H 0.52068 0.91397 0.70779 0.0
C3798 C 0.18318 0.43133 0.17425 0.0
C3799 C 0.1771 0.42165 0.19371 0.0
C3800 C 0.19743 0.43091 0.1625 0.0
C3801 C 0.23785 0.42449 0.17329 0.0
H3802 H 0.24641 0.4335 0.11224 0.0
C3803 C 0.3081 0.44125 0.13442 0.0
C3804 C 0.31597 0.45722 0.12132 0.0
C3805 C 0.28935 0.4329 0.14085 0.0
C3806 C 0.2442 0.43095 0.12932 0.0
H3807 H 0.18004 0.40303 0.21563 0.0
H3808 H 0.20411 0.40136 0.19466 0.0
H3809 H 0.2159 0.42514 0.12731 0.0
H3810 H 0.31004 0.4762 0.10358 0.0
H3811 H 0.27754 0.46179 0.11482 0.0
H3812 H 0.26622 0.43067 0.17537 0.0
C3813 C 0.1984 0.40974 0.18861 0.0
C3814 C 0.22672 0.4262 0.13797 0.0
C3815 C 0.1844 0.41042 0.20047 0.0
C3816 C 0.30448 0.46411 0.11398 0.0
C3817 C 0.28576 0.45569 0.12021 0.0
C3818 C 0.25523 0.42909 0.16462 0.0
C3819 C 0.20579 0.42072 0.17004 0.0
C3820 C 0.22342 0.42331 0.16017 0.0
C3821 C 0.27804 0.44021 0.13406 0.0
C3822 C 0.25877 0.43281 0.14262 0.0
H3823 H 0.17804 0.44044 0.16905 0.0
H3824 H 0.2028 0.43968 0.14842 0.0
H3825 H 0.23609 0.42277 0.1905 0.0
H3826 H 0.31661 0.43565 0.14032 0.0
H3827 H 0.28377 0.42089 0.15141 0.0
C3828 C 0.60408 0.77476 0.18545 0.0
C3829 C 0.59122 0.75597 0.18111 0.0
C3830 C 0.60454 0.78892 0.17283 0.0
C3831 C 0.58602 0.7994 0.12356 0.0
H3832 H 0.58389 0.8361 0.16036 0.0
C3833 C 0.55077 0.84123 0.09807 0.0
C3834 C 0.557 0.85918 0.10648 0.0
C3835 C 0.55897 0.83078 0.10433 0.0
C3836 C 0.58488 0.8263 0.1497 0.0
H3837 H 0.56939 0.73702 0.15971 0.0
H3838 H 0.57004 0.76182 0.13749 0.0
H3839 H 0.5914 0.8137 0.17564 0.0
H3840 H 0.57758 0.88063 0.12716 0.0
H3841 H 0.59227 0.86251 0.13784 0.0
H3842 H 0.57905 0.81182 0.09767 0.0
C3843 C 0.58004 0.76566 0.15041 0.0
C3844 C 0.58918 0.81337 0.1585 0.0
C3845 C 0.57969 0.75144 0.16304 0.0
C3846 C 0.5724 0.86684 0.12043 0.0
C3847 C 0.58069 0.85636 0.1267 0.0
C3848 C 0.58182 0.81244 0.11471 0.0
C3849 C 0.5919 0.78458 0.15579 0.0
C3850 C 0.58946 0.79953 0.14564 0.0
C3851 C 0.57378 0.83801 0.1191 0.0
C3852 C 0.58077 0.8258 0.12776 0.0
H3853 H 0.61298 0.77854 0.19948 0.0
H3854 H 0.61409 0.80331 0.17716 0.0
H3855 H 0.58633 0.78906 0.11319 0.0
H3856 H 0.53924 0.83503 0.08689 0.0
H3857 H 0.55312 0.81669 0.09824 0.0
C3858 C 0.24485 0.83776 0.18428 0.0
C3859 C 0.26379 0.84454 0.17973 0.0
C3860 C 0.23099 0.82391 0.17154 0.0
C3861 C 0.22129 0.79564 0.12188 0.0
H3862 H 0.18676 0.75543 0.15899 0.0
C3863 C 0.18191 0.7187 0.09519 0.0
C3864 C 0.16439 0.70621 0.10421 0.0
C3865 C 0.19184 0.73731 0.10174 0.0
C3866 C 0.19593 0.76658 0.14825 0.0
H3867 H 0.28328 0.84315 0.15773 0.0
H3868 H 0.25899 0.81873 0.13528 0.0
H3869 H 0.20823 0.78565 0.17427 0.0
H3870 H 0.14314 0.70396 0.12636 0.0
H3871 H 0.16025 0.73664 0.13743 0.0
H3872 H 0.20914 0.77633 0.09587 0.0
C3873 C 0.2548 0.82432 0.1485 0.0
C3874 C 0.20832 0.78398 0.15705 0.0
C3875 C 0.26873 0.83836 0.16124 0.0
C3876 C 0.1566 0.71313 0.11913 0.0
C3877 C 0.16652 0.73185 0.12562 0.0
C3878 C 0.20875 0.77821 0.11301 0.0
C3879 C 0.23581 0.81633 0.15416 0.0
C3880 C 0.22137 0.79864 0.14406 0.0
C3881 C 0.18448 0.74409 0.11738 0.0
C3882 C 0.19617 0.76332 0.12616 0.0
H3883 H 0.24077 0.84227 0.1986 0.0
H3884 H 0.2165 0.81833 0.17608 0.0
H3885 H 0.23106 0.80669 0.11142 0.0
H3886 H 0.1882 0.71406 0.08327 0.0
H3887 H 0.20564 0.74617 0.09512 0.0
loop_
_geom_bond_atom_site_label_1
_geom_bond_atom_site_label_2
_geom_bond_distance
_geom_bond_site_symmetry_2
_ccdc_geom_bond_type
C0 C1 1.351 . S
C0 N3 1.368 . S
C0 H5 0.931 . S
C1 C0 1.351 . S
C1 N2 1.373 . S
C1 H29 0.930 . S
N2 C1 1.373 . S
N2 C4 1.340 . S
N3 C0 1.368 . S
N3 C4 1.321 . S
N3 Co6 2.135 . S
C4 N2 1.340 . S
C4 N3 1.321 . S
C4 H28 0.930 . S
H5 C0 0.931 . S
Co6 N3 2.135 . S
Co6 N9 2.121 . S
Co6 O14 2.055 . S
Co6 O17 2.039 . S
Co6 N20 2.140 . S
C7 O8 1.227 . S
C7 O17 1.265 . S
O8 C7 1.227 . S
N9 Co6 2.121 . S
N9 C11 1.375 . S
N9 C12 1.313 . S
C10 C11 1.338 . S
C10 N13 1.377 . S
C10 H30 0.930 . S
C11 N9 1.375 . S
C11 C10 1.338 . S
C11 H15 0.931 . S
C12 N9 1.313 . S
C12 N13 1.344 . S
C12 H16 0.930 . S
N13 C10 1.377 . S
N13 C12 1.344 . S
O14 Co6 2.055 . S
O14 C18 1.253 . S
H15 C11 0.931 . S
H16 C12 0.930 . S
O17 Co6 2.039 . S
O17 C7 1.265 . S
C18 O14 1.253 . S
C18 O19 1.227 . S
O19 C18 1.227 . S
N20 Co6 2.140 . S
N20 C23 1.346 . S
N20 C24 1.345 . S
C21 C22 1.387 . S
C21 C25 1.391 . S
C22 C21 1.387 . S
C22 C23 1.369 . S
C22 H31 0.929 . S
C23 N20 1.346 . S
C23 C22 1.369 . S
C23 H26 0.928 . S
C24 N20 1.345 . S
C24 C25 1.371 . S
C24 H27 0.931 . S
C25 C21 1.391 . S
C25 C24 1.371 . S
C25 H32 0.930 . S
H26 C23 0.928 . S
H27 C24 0.931 . S
H28 C4 0.930 . S
H29 C1 0.930 . S
H30 C10 0.930 . S
H31 C22 0.929 . S
H32 C25 0.930 . S
C33 C34 1.351 1_545 S
C33 N36 1.368 . S
C33 H38 0.931 . S
C34 C33 1.351 1_565 S
C34 N35 1.373 . S
C34 H62 0.930 . S
N35 C34 1.373 . S
N35 C37 1.340 . S
N36 C33 1.368 . S
N36 C37 1.321 1_545 S
N36 Co39 2.135 . S
C37 N35 1.340 . S
C37 N36 1.321 1_565 S
C37 H61 0.930 . S
H38 C33 0.931 . S
Co39 N36 2.135 . S
Co39 N42 2.121 . S
Co39 O47 2.055 . S
Co39 O50 2.039 . S
Co39 N53 2.140 . S
C40 O41 1.227 . S
C40 O50 1.265 . S
O41 C40 1.227 . S
N42 Co39 2.121 . S
N42 C44 1.375 . S
N42 C45 1.313 . S
C43 C44 1.338 . S
C43 N46 1.377 . S
C43 H63 0.930 . S
C44 N42 1.375 . S
C44 C43 1.338 . S
C44 H48 0.931 . S
C45 N42 1.313 . S
C45 N46 1.344 . S
C45 H49 0.930 . S
N46 C43 1.377 . S
N46 C45 1.344 . S
O47 Co39 2.055 . S
O47 C51 1.253 . S
H48 C44 0.931 . S
H49 C45 0.930 . S
O50 Co39 2.039 . S
O50 C40 1.265 . S
C51 O47 1.253 . S
C51 O52 1.227 . S
O52 C51 1.227 . S
N53 Co39 2.140 . S
N53 C56 1.346 . S
N53 C57 1.345 . S
C54 C55 1.387 . S
C54 C58 1.391 . S
C55 C54 1.387 . S
C55 C56 1.369 . S
C55 H64 0.929 1_545 S
C56 N53 1.346 . S
C56 C55 1.369 . S
C56 H59 0.928 . S
C57 N53 1.345 . S
C57 C58 1.371 . S
C57 H60 0.931 . S
C58 C54 1.391 . S
C58 C57 1.371 . S
C58 H65 0.930 . S
H59 C56 0.928 . S
H60 C57 0.931 . S
H61 C37 0.930 . S
H62 C34 0.930 . S
H63 C43 0.930 . S
H64 C55 0.929 1_565 S
H65 C58 0.930 . S
C66 C67 1.351 1_655 S
C66 N69 1.368 . S
C66 H71 0.931 . S
C67 C66 1.351 1_455 S
C67 N68 1.373 . S
C67 H95 0.930 . S
N68 C67 1.373 . S
N68 C70 1.340 . S
N69 C66 1.368 . S
N69 C70 1.321 1_655 S
N69 Co72 2.135 . S
C70 N68 1.340 . S
C70 N69 1.321 1_455 S
C70 H94 0.930 . S
H71 C66 0.931 . S
Co72 N69 2.135 . S
Co72 N75 2.121 . S
Co72 O80 2.055 . S
Co72 O83 2.039 . S
Co72 N86 2.140 . S
C73 O74 1.227 . S
C73 O83 1.265 . S
O74 C73 1.227 . S
N75 Co72 2.121 . S
N75 C77 1.375 . S
N75 C78 1.313 . S
C76 C77 1.338 . S
C76 N79 1.377 . S
C76 H96 0.930 . S
C77 N75 1.375 . S
C77 C76 1.338 . S
C77 H81 0.931 . S
C78 N75 1.313 . S
C78 N79 1.344 . S
C78 H82 0.930 . S
N79 C76 1.377 . S
N79 C78 1.344 . S
O80 Co72 2.055 . S
O80 C84 1.253 . S
H81 C77 0.931 . S
H82 C78 0.930 . S
O83 Co72 2.039 . S
O83 C73 1.265 . S
C84 O80 1.253 . S
C84 O85 1.227 . S
O85 C84 1.227 . S
N86 Co72 2.140 . S
N86 C89 1.346 . S
N86 C90 1.345 . S
C87 C88 1.387 . S
C87 C91 1.391 . S
C88 C87 1.387 . S
C88 C89 1.369 . S
C88 H97 0.929 1_655 S
C89 N86 1.346 . S
C89 C88 1.369 . S
C89 H92 0.928 . S
C90 N86 1.345 . S
C90 C91 1.371 . S
C90 H93 0.931 . S
C91 C87 1.391 . S
C91 C90 1.371 . S
C91 H98 0.930 . S
H92 C89 0.928 . S
H93 C90 0.931 . S
H94 C70 0.930 . S
H95 C67 0.930 . S
H96 C76 0.930 . S
H97 C88 0.929 1_455 S
H98 C91 0.930 . S
C99 C100 1.351 . S
C99 N102 1.368 . S
C99 H104 0.931 . S
C100 C99 1.351 . S
C100 N101 1.373 . S
C100 H128 0.930 . S
N101 C100 1.373 . S
N101 C103 1.340 . S
N102 C99 1.368 . S
N102 C103 1.321 . S
N102 Co105 2.135 . S
C103 N101 1.340 . S
C103 N102 1.321 . S
C103 H127 0.930 . S
H104 C99 0.931 . S
Co105 N102 2.135 . S
Co105 N108 2.121 . S
Co105 O113 2.055 . S
Co105 O116 2.039 . S
Co105 N119 2.140 . S
C106 O107 1.227 . S
C106 O116 1.265 . S
O107 C106 1.227 . S
N108 Co105 2.121 . S
N108 C110 1.375 . S
N108 C111 1.313 . S
C109 C110 1.338 . S
C109 N112 1.377 . S
C109 H129 0.930 . S
C110 N108 1.375 . S
C110 C109 1.338 . S
C110 H114 0.931 . S
C111 N108 1.313 . S
C111 N112 1.344 . S
C111 H115 0.930 . S
N112 C109 1.377 . S
N112 C111 1.344 . S
O113 Co105 2.055 . S
O113 C117 1.253 . S
H114 C110 0.931 . S
H115 C111 0.930 . S
O116 Co105 2.039 . S
O116 C106 1.265 . S
C117 O113 1.253 . S
C117 O118 1.227 . S
O118 C117 1.227 . S
N119 Co105 2.140 . S
N119 C122 1.346 . S
N119 C123 1.345 . S
C120 C121 1.387 . S
C120 C124 1.391 . S
C121 C120 1.387 . S
C121 C122 1.369 . S
C121 H130 0.929 . S
C122 N119 1.346 . S
C122 C121 1.369 . S
C122 H125 0.928 . S
C123 N119 1.345 . S
C123 C124 1.371 . S
C123 H126 0.931 . S
C124 C120 1.391 . S
C124 C123 1.371 . S
C124 H131 0.930 . S
H125 C122 0.928 . S
H126 C123 0.931 . S
H127 C103 0.930 . S
H128 C100 0.930 . S
H129 C109 0.930 . S
H130 C121 0.929 . S
H131 C124 0.930 . S
C132 C133 1.351 1_565 S
C132 N135 1.368 . S
C132 H137 0.931 . S
C133 C132 1.351 1_545 S
C133 N134 1.373 . S
C133 H161 0.930 . S
N134 C133 1.373 . S
N134 C136 1.340 . S
N135 C132 1.368 . S
N135 C136 1.321 1_565 S
N135 Co138 2.135 . S
C136 N134 1.340 . S
C136 N135 1.321 1_545 S
C136 H160 0.930 . S
H137 C132 0.931 . S
Co138 N135 2.135 . S
Co138 N141 2.121 . S
Co138 O146 2.055 . S
Co138 O149 2.039 . S
Co138 N152 2.140 . S
C139 O140 1.227 . S
C139 O149 1.265 . S
O140 C139 1.227 . S
N141 Co138 2.121 . S
N141 C143 1.375 . S
N141 C144 1.313 . S
C142 C143 1.338 . S
C142 N145 1.377 . S
C142 H162 0.930 . S
C143 N141 1.375 . S
C143 C142 1.338 . S
C143 H147 0.931 . S
C144 N141 1.313 . S
C144 N145 1.344 . S
C144 H148 0.930 . S
N145 C142 1.377 . S
N145 C144 1.344 . S
O146 Co138 2.055 . S
O146 C150 1.253 . S
H147 C143 0.931 . S
H148 C144 0.930 . S
O149 Co138 2.039 . S
O149 C139 1.265 . S
C150 O146 1.253 . S
C150 O151 1.227 . S
O151 C150 1.227 . S
N152 Co138 2.140 . S
N152 C155 1.346 . S
N152 C156 1.345 . S
C153 C154 1.387 . S
C153 C157 1.391 . S
C154 C153 1.387 . S
C154 C155 1.369 . S
C154 H163 0.929 1_565 S
C155 N152 1.346 . S
C155 C154 1.369 . S
C155 H158 0.928 . S
C156 N152 1.345 . S
C156 C157 1.371 . S
C156 H159 0.931 . S
C157 C153 1.391 . S
C157 C156 1.371 . S
C157 H164 0.930 . S
H158 C155 0.928 . S
H159 C156 0.931 . S
H160 C136 0.930 . S
H161 C133 0.930 . S
H162 C142 0.930 . S
H163 C154 0.929 1_545 S
H164 C157 0.930 . S
C165 C166 1.351 1_455 S
C165 N168 1.368 . S
C165 H170 0.931 . S
C166 C165 1.351 1_655 S
C166 N167 1.373 . S
C166 H194 0.930 . S
N167 C166 1.373 . S
N167 C169 1.340 . S
N168 C165 1.368 . S
N168 C169 1.321 1_455 S
N168 Co171 2.135 . S
C169 N167 1.340 . S
C169 N168 1.321 1_655 S
C169 H193 0.930 . S
H170 C165 0.931 . S
Co171 N168 2.135 . S
Co171 N174 2.121 . S
Co171 O179 2.055 . S
Co171 O182 2.039 . S
Co171 N185 2.140 . S
C172 O173 1.227 . S
C172 O182 1.265 . S
O173 C172 1.227 . S
N174 Co171 2.121 . S
N174 C176 1.375 . S
N174 C177 1.313 . S
C175 C176 1.338 . S
C175 N178 1.377 . S
C175 H195 0.930 . S
C176 N174 1.375 . S
C176 C175 1.338 . S
C176 H180 0.931 . S
C177 N174 1.313 . S
C177 N178 1.344 . S
C177 H181 0.930 . S
N178 C175 1.377 . S
N178 C177 1.344 . S
O179 Co171 2.055 . S
O179 C183 1.253 . S
H180 C176 0.931 . S
H181 C177 0.930 . S
O182 Co171 2.039 . S
O182 C172 1.265 . S
C183 O179 1.253 . S
C183 O184 1.227 . S
O184 C183 1.227 . S
N185 Co171 2.140 . S
N185 C188 1.346 . S
N185 C189 1.345 . S
C186 C187 1.387 . S
C186 C190 1.391 . S
C187 C186 1.387 . S
C187 C188 1.369 . S
C187 H196 0.929 1_455 S
C188 N185 1.346 . S
C188 C187 1.369 . S
C188 H191 0.928 . S
C189 N185 1.345 . S
C189 C190 1.371 . S
C189 H192 0.931 . S
C190 C186 1.391 . S
C190 C189 1.371 . S
C190 H197 0.930 . S
H191 C188 0.928 . S
H192 C189 0.931 . S
H193 C169 0.930 . S
H194 C166 0.930 . S
H195 C175 0.930 . S
H196 C187 0.929 1_655 S
H197 C190 0.930 . S
C198 C199 1.351 . S
C198 N201 1.368 . S
C198 H203 0.931 . S
C199 C198 1.351 . S
C199 N200 1.373 . S
C199 H227 0.930 . S
N200 C199 1.373 . S
N200 C202 1.340 . S
N201 C198 1.368 . S
N201 C202 1.321 . S
N201 Co204 2.135 . S
C202 N200 1.340 . S
C202 N201 1.321 . S
C202 H226 0.930 . S
H203 C198 0.931 . S
Co204 N201 2.135 . S
Co204 N207 2.121 . S
Co204 O212 2.055 . S
Co204 O215 2.039 . S
Co204 N218 2.140 . S
C205 O206 1.227 . S
C205 O215 1.265 . S
O206 C205 1.227 . S
N207 Co204 2.121 . S
N207 C209 1.375 . S
N207 C210 1.313 . S
C208 C209 1.338 . S
C208 N211 1.377 . S
C208 H228 0.930 . S
C209 N207 1.375 . S
C209 C208 1.338 . S
C209 H213 0.931 . S
C210 N207 1.313 . S
C210 N211 1.344 . S
C210 H214 0.930 . S
N211 C208 1.377 . S
N211 C210 1.344 . S
O212 Co204 2.055 . S
O212 C216 1.253 . S
H213 C209 0.931 . S
H214 C210 0.930 . S
O215 Co204 2.039 . S
O215 C205 1.265 . S
C216 O212 1.253 . S
C216 O217 1.227 . S
O217 C216 1.227 . S
N218 Co204 2.140 . S
N218 C221 1.346 . S
N218 C222 1.345 . S
C219 C220 1.387 . S
C219 C223 1.391 . S
C220 C219 1.387 . S
C220 C221 1.369 . S
C220 H229 0.929 . S
C221 N218 1.346 . S
C221 C220 1.369 . S
C221 H224 0.928 . S
C222 N218 1.345 . S
C222 C223 1.371 . S
C222 H225 0.931 . S
C223 C219 1.391 . S
C223 C222 1.371 . S
C223 H230 0.930 . S
H224 C221 0.928 . S
H225 C222 0.931 . S
H226 C202 0.930 . S
H227 C199 0.930 . S
H228 C208 0.930 . S
H229 C220 0.929 . S
H230 C223 0.930 . S
C231 C232 1.351 1_565 S
C231 N234 1.368 . S
C231 H236 0.931 . S
C232 C231 1.351 1_545 S
C232 N233 1.373 . S
C232 H260 0.930 . S
N233 C232 1.373 . S
N233 C235 1.340 . S
N234 C231 1.368 . S
N234 C235 1.321 1_565 S
N234 Co237 2.135 . S
C235 N233 1.340 . S
C235 N234 1.321 1_545 S
C235 H259 0.930 . S
H236 C231 0.931 . S
Co237 N234 2.135 . S
Co237 N240 2.121 . S
Co237 O245 2.055 . S
Co237 O248 2.039 . S
Co237 N251 2.140 . S
C238 O239 1.227 . S
C238 O248 1.265 . S
O239 C238 1.227 . S
N240 Co237 2.121 . S
N240 C242 1.375 . S
N240 C243 1.313 . S
C241 C242 1.338 . S
C241 N244 1.377 . S
C241 H261 0.930 . S
C242 N240 1.375 . S
C242 C241 1.338 . S
C242 H246 0.931 . S
C243 N240 1.313 . S
C243 N244 1.344 . S
C243 H247 0.930 . S
N244 C241 1.377 . S
N244 C243 1.344 . S
O245 Co237 2.055 . S
O245 C249 1.253 . S
H246 C242 0.931 . S
H247 C243 0.930 . S
O248 Co237 2.039 . S
O248 C238 1.265 . S
C249 O245 1.253 . S
C249 O250 1.227 . S
O250 C249 1.227 . S
N251 Co237 2.140 . S
N251 C254 1.346 . S
N251 C255 1.345 . S
C252 C253 1.387 . S
C252 C256 1.391 . S
C253 C252 1.387 . S
C253 C254 1.369 . S
C253 H262 0.929 1_565 S
C254 N251 1.346 . S
C254 C253 1.369 . S
C254 H257 0.928 . S
C255 N251 1.345 . S
C255 C256 1.371 . S
C255 H258 0.931 . S
C256 C252 1.391 . S
C256 C255 1.371 . S
C256 H263 0.930 . S
H257 C254 0.928 . S
H258 C255 0.931 . S
H259 C235 0.930 . S
H260 C232 0.930 . S
H261 C241 0.930 . S
H262 C253 0.929 1_545 S
H263 C256 0.930 . S
C264 C265 1.351 1_455 S
C264 N267 1.368 . S
C264 H269 0.931 . S
C265 C264 1.351 1_655 S
C265 N266 1.373 . S
C265 H293 0.930 . S
N266 C265 1.373 . S
N266 C268 1.340 . S
N267 C264 1.368 . S
N267 C268 1.321 1_455 S
N267 Co270 2.135 . S
C268 N266 1.340 . S
C268 N267 1.321 1_655 S
C268 H292 0.930 . S
H269 C264 0.931 . S
Co270 N267 2.135 . S
Co270 N273 2.121 . S
Co270 O278 2.055 . S
Co270 O281 2.039 . S
Co270 N284 2.140 . S
C271 O272 1.227 . S
C271 O281 1.265 . S
O272 C271 1.227 . S
N273 Co270 2.121 . S
N273 C275 1.375 . S
N273 C276 1.313 . S
C274 C275 1.338 . S
C274 N277 1.377 . S
C274 H294 0.930 . S
C275 N273 1.375 . S
C275 C274 1.338 . S
C275 H279 0.931 . S
C276 N273 1.313 . S
C276 N277 1.344 . S
C276 H280 0.930 . S
N277 C274 1.377 . S
N277 C276 1.344 . S
O278 Co270 2.055 . S
O278 C282 1.253 . S
H279 C275 0.931 . S
H280 C276 0.930 . S
O281 Co270 2.039 . S
O281 C271 1.265 . S
C282 O278 1.253 . S
C282 O283 1.227 . S
O283 C282 1.227 . S
N284 Co270 2.140 . S
N284 C287 1.346 . S
N284 C288 1.345 . S
C285 C286 1.387 . S
C285 C289 1.391 . S
C286 C285 1.387 . S
C286 C287 1.369 . S
C286 H295 0.929 1_455 S
C287 N284 1.346 . S
C287 C286 1.369 . S
C287 H290 0.928 . S
C288 N284 1.345 . S
C288 C289 1.371 . S
C288 H291 0.931 . S
C289 C285 1.391 . S
C289 C288 1.371 . S
C289 H296 0.930 . S
H290 C287 0.928 . S
H291 C288 0.931 . S
H292 C268 0.930 . S
H293 C265 0.930 . S
H294 C274 0.930 . S
H295 C286 0.929 1_655 S
H296 C289 0.930 . S
C297 C298 1.351 . S
C297 N300 1.368 . S
C297 H302 0.931 . S
C298 C297 1.351 . S
C298 N299 1.373 . S
C298 H326 0.930 . S
N299 C298 1.373 . S
N299 C301 1.340 . S
N300 C297 1.368 . S
N300 C301 1.321 . S
N300 Co303 2.135 . S
C301 N299 1.340 . S
C301 N300 1.321 . S
C301 H325 0.930 . S
H302 C297 0.931 . S
Co303 N300 2.135 . S
Co303 N306 2.121 . S
Co303 O311 2.055 . S
Co303 O314 2.039 . S
Co303 N317 2.140 . S
C304 O305 1.227 . S
C304 O314 1.265 . S
O305 C304 1.227 . S
N306 Co303 2.121 . S
N306 C308 1.375 . S
N306 C309 1.313 . S
C307 C308 1.338 . S
C307 N310 1.377 . S
C307 H327 0.930 . S
C308 N306 1.375 . S
C308 C307 1.338 . S
C308 H312 0.931 . S
C309 N306 1.313 . S
C309 N310 1.344 . S
C309 H313 0.930 . S
N310 C307 1.377 . S
N310 C309 1.344 . S
O311 Co303 2.055 . S
O311 C315 1.253 . S
H312 C308 0.931 . S
H313 C309 0.930 . S
O314 Co303 2.039 . S
O314 C304 1.265 . S
C315 O311 1.253 . S
C315 O316 1.227 . S
O316 C315 1.227 . S
N317 Co303 2.140 . S
N317 C320 1.346 . S
N317 C321 1.345 . S
C318 C319 1.387 . S
C318 C322 1.391 . S
C319 C318 1.387 . S
C319 C320 1.369 . S
C319 H328 0.929 . S
C320 N317 1.346 . S
C320 C319 1.369 . S
C320 H323 0.928 . S
C321 N317 1.345 . S
C321 C322 1.371 . S
C321 H324 0.931 . S
C322 C318 1.391 . S
C322 C321 1.371 . S
C322 H329 0.930 . S
H323 C320 0.928 . S
H324 C321 0.931 . S
H325 C301 0.930 . S
H326 C298 0.930 . S
H327 C307 0.930 . S
H328 C319 0.929 . S
H329 C322 0.930 . S
C330 C331 1.351 1_545 S
C330 N333 1.368 . S
C330 H335 0.931 . S
C331 C330 1.351 1_565 S
C331 N332 1.373 . S
C331 H359 0.930 . S
N332 C331 1.373 . S
N332 C334 1.340 . S
N333 C330 1.368 . S
N333 C334 1.321 1_545 S
N333 Co336 2.135 . S
C334 N332 1.340 . S
C334 N333 1.321 1_565 S
C334 H358 0.930 . S
H335 C330 0.931 . S
Co336 N333 2.135 . S
Co336 N339 2.121 . S
Co336 O344 2.055 . S
Co336 O347 2.039 . S
Co336 N350 2.140 . S
C337 O338 1.227 . S
C337 O347 1.265 . S
O338 C337 1.227 . S
N339 Co336 2.121 . S
N339 C341 1.375 . S
N339 C342 1.313 . S
C340 C341 1.338 . S
C340 N343 1.377 . S
C340 H360 0.930 . S
C341 N339 1.375 . S
C341 C340 1.338 . S
C341 H345 0.931 . S
C342 N339 1.313 . S
C342 N343 1.344 . S
C342 H346 0.930 . S
N343 C340 1.377 . S
N343 C342 1.344 . S
O344 Co336 2.055 . S
O344 C348 1.253 . S
H345 C341 0.931 . S
H346 C342 0.930 . S
O347 Co336 2.039 . S
O347 C337 1.265 . S
C348 O344 1.253 . S
C348 O349 1.227 . S
O349 C348 1.227 . S
N350 Co336 2.140 . S
N350 C353 1.346 . S
N350 C354 1.345 . S
C351 C352 1.387 . S
C351 C355 1.391 . S
C352 C351 1.387 . S
C352 C353 1.369 . S
C352 H361 0.929 1_545 S
C353 N350 1.346 . S
C353 C352 1.369 . S
C353 H356 0.928 . S
C354 N350 1.345 . S
C354 C355 1.371 . S
C354 H357 0.931 . S
C355 C351 1.391 . S
C355 C354 1.371 . S
C355 H362 0.930 . S
H356 C353 0.928 . S
H357 C354 0.931 . S
H358 C334 0.930 . S
H359 C331 0.930 . S
H360 C340 0.930 . S
H361 C352 0.929 1_565 S
H362 C355 0.930 . S
C363 C364 1.351 1_655 S
C363 N366 1.368 . S
C363 H368 0.931 . S
C364 C363 1.351 1_455 S
C364 N365 1.373 . S
C364 H392 0.930 . S
N365 C364 1.373 . S
N365 C367 1.340 . S
N366 C363 1.368 . S
N366 C367 1.321 1_655 S
N366 Co369 2.135 . S
C367 N365 1.340 . S
C367 N366 1.321 1_455 S
C367 H391 0.930 . S
H368 C363 0.931 . S
Co369 N366 2.135 . S
Co369 N372 2.121 . S
Co369 O377 2.055 . S
Co369 O380 2.039 . S
Co369 N383 2.140 . S
C370 O371 1.227 . S
C370 O380 1.265 . S
O371 C370 1.227 . S
N372 Co369 2.121 . S
N372 C374 1.375 . S
N372 C375 1.313 . S
C373 C374 1.338 . S
C373 N376 1.377 . S
C373 H393 0.930 . S
C374 N372 1.375 . S
C374 C373 1.338 . S
C374 H378 0.931 . S
C375 N372 1.313 . S
C375 N376 1.344 . S
C375 H379 0.930 . S
N376 C373 1.377 . S
N376 C375 1.344 . S
O377 Co369 2.055 . S
O377 C381 1.253 . S
H378 C374 0.931 . S
H379 C375 0.930 . S
O380 Co369 2.039 . S
O380 C370 1.265 . S
C381 O377 1.253 . S
C381 O382 1.227 . S
O382 C381 1.227 . S
N383 Co369 2.140 . S
N383 C386 1.346 . S
N383 C387 1.345 . S
C384 C385 1.387 . S
C384 C388 1.391 . S
C385 C384 1.387 . S
C385 C386 1.369 . S
C385 H394 0.929 1_655 S
C386 N383 1.346 . S
C386 C385 1.369 . S
C386 H389 0.928 . S
C387 N383 1.345 . S
C387 C388 1.371 . S
C387 H390 0.931 . S
C388 C384 1.391 . S
C388 C387 1.371 . S
C388 H395 0.930 . S
H389 C386 0.928 . S
H390 C387 0.931 . S
H391 C367 0.930 . S
H392 C364 0.930 . S
H393 C373 0.930 . S
H394 C385 0.929 1_455 S
H395 C388 0.930 . S
C396 C397 1.351 . S
C396 N399 1.368 . S
C396 H401 0.931 . S
C397 C396 1.351 . S
C397 N398 1.373 . S
C397 H425 0.930 . S
N398 C397 1.373 . S
N398 C400 1.340 . S
N399 C396 1.368 . S
N399 C400 1.321 . S
N399 Co402 2.135 . S
C400 N398 1.340 . S
C400 N399 1.321 . S
C400 H424 0.930 . S
H401 C396 0.931 . S
Co402 N399 2.135 . S
Co402 N405 2.121 . S
Co402 O410 2.055 . S
Co402 O413 2.039 . S
Co402 N416 2.140 . S
C403 O404 1.227 . S
C403 O413 1.265 . S
O404 C403 1.227 . S
N405 Co402 2.121 . S
N405 C407 1.375 . S
N405 C408 1.313 . S
C406 C407 1.338 . S
C406 N409 1.377 . S
C406 H426 0.930 . S
C407 N405 1.375 . S
C407 C406 1.338 . S
C407 H411 0.931 . S
C408 N405 1.313 . S
C408 N409 1.344 . S
C408 H412 0.930 . S
N409 C406 1.377 . S
N409 C408 1.344 . S
O410 Co402 2.055 . S
O410 C414 1.253 . S
H411 C407 0.931 . S
H412 C408 0.930 . S
O413 Co402 2.039 . S
O413 C403 1.265 . S
C414 O410 1.253 . S
C414 O415 1.227 . S
O415 C414 1.227 . S
N416 Co402 2.140 . S
N416 C419 1.346 . S
N416 C420 1.345 . S
C417 C418 1.387 . S
C417 C421 1.391 . S
C418 C417 1.387 . S
C418 C419 1.369 . S
C418 H427 0.929 . S
C419 N416 1.346 . S
C419 C418 1.369 . S
C419 H422 0.928 . S
C420 N416 1.345 . S
C420 C421 1.371 . S
C420 H423 0.931 . S
C421 C417 1.391 . S
C421 C420 1.371 . S
C421 H428 0.930 . S
H422 C419 0.928 . S
H423 C420 0.931 . S
H424 C400 0.930 . S
H425 C397 0.930 . S
H426 C406 0.930 . S
H427 C418 0.929 . S
H428 C421 0.930 . S
C429 C430 1.351 . S
C429 N432 1.368 . S
C429 H434 0.931 . S
C430 C429 1.351 . S
C430 N431 1.373 . S
C430 H458 0.930 . S
N431 C430 1.373 . S
N431 C433 1.340 . S
N432 C429 1.368 . S
N432 C433 1.321 . S
N432 Co435 2.135 . S
C433 N431 1.340 . S
C433 N432 1.321 . S
C433 H457 0.930 . S
H434 C429 0.931 . S
Co435 N432 2.135 . S
Co435 N438 2.121 . S
Co435 O443 2.055 . S
Co435 O446 2.039 . S
Co435 N449 2.140 . S
C436 O437 1.227 . S
C436 O446 1.265 . S
O437 C436 1.227 . S
N438 Co435 2.121 . S
N438 C440 1.375 . S
N438 C441 1.313 . S
C439 C440 1.338 . S
C439 N442 1.377 . S
C439 H459 0.930 . S
C440 N438 1.375 . S
C440 C439 1.338 . S
C440 H444 0.931 . S
C441 N438 1.313 . S
C441 N442 1.344 . S
C441 H445 0.930 . S
N442 C439 1.377 . S
N442 C441 1.344 . S
O443 Co435 2.055 . S
O443 C447 1.253 . S
H444 C440 0.931 . S
H445 C441 0.930 . S
O446 Co435 2.039 . S
O446 C436 1.265 . S
C447 O443 1.253 . S
C447 O448 1.227 . S
O448 C447 1.227 . S
N449 Co435 2.140 . S
N449 C452 1.346 . S
N449 C453 1.345 . S
C450 C451 1.387 . S
C450 C454 1.391 . S
C451 C450 1.387 . S
C451 C452 1.369 . S
C451 H460 0.929 . S
C452 N449 1.346 . S
C452 C451 1.369 . S
C452 H455 0.928 . S
C453 N449 1.345 . S
C453 C454 1.371 . S
C453 H456 0.931 . S
C454 C450 1.391 . S
C454 C453 1.371 . S
C454 H461 0.930 . S
H455 C452 0.928 . S
H456 C453 0.931 . S
H457 C433 0.930 . S
H458 C430 0.930 . S
H459 C439 0.930 . S
H460 C451 0.929 . S
H461 C454 0.930 . S
C462 C463 1.351 . S
C462 N465 1.368 . S
C462 H467 0.931 . S
C463 C462 1.351 . S
C463 N464 1.373 . S
C463 H491 0.930 . S
N464 C463 1.373 . S
N464 C466 1.340 . S
N465 C462 1.368 . S
N465 C466 1.321 . S
N465 Co468 2.135 . S
C466 N464 1.340 . S
C466 N465 1.321 . S
C466 H490 0.930 . S
H467 C462 0.931 . S
Co468 N465 2.135 . S
Co468 N471 2.121 . S
Co468 O476 2.055 . S
Co468 O479 2.039 . S
Co468 N482 2.140 . S
C469 O470 1.227 . S
C469 O479 1.265 . S
O470 C469 1.227 . S
N471 Co468 2.121 . S
N471 C473 1.375 . S
N471 C474 1.313 . S
C472 C473 1.338 . S
C472 N475 1.377 . S
C472 H492 0.930 . S
C473 N471 1.375 . S
C473 C472 1.338 . S
C473 H477 0.931 . S
C474 N471 1.313 . S
C474 N475 1.344 . S
C474 H478 0.930 . S
N475 C472 1.377 . S
N475 C474 1.344 . S
O476 Co468 2.055 . S
O476 C480 1.253 . S
H477 C473 0.931 . S
H478 C474 0.930 . S
O479 Co468 2.039 . S
O479 C469 1.265 . S
C480 O476 1.253 . S
C480 O481 1.227 . S
O481 C480 1.227 . S
N482 Co468 2.140 . S
N482 C485 1.346 . S
N482 C486 1.345 . S
C483 C484 1.387 . S
C483 C487 1.391 . S
C484 C483 1.387 . S
C484 C485 1.369 . S
C484 H493 0.929 . S
C485 N482 1.346 . S
C485 C484 1.369 . S
C485 H488 0.928 . S
C486 N482 1.345 . S
C486 C487 1.371 . S
C486 H489 0.931 . S
C487 C483 1.391 . S
C487 C486 1.371 . S
C487 H494 0.930 . S
H488 C485 0.928 . S
H489 C486 0.931 . S
H490 C466 0.930 . S
H491 C463 0.930 . S
H492 C472 0.930 . S
H493 C484 0.929 . S
H494 C487 0.930 . S
C495 C496 1.351 . S
C495 N498 1.368 . S
C495 H500 0.931 . S
C496 C495 1.351 . S
C496 N497 1.373 . S
C496 H524 0.930 . S
N497 C496 1.373 . S
N497 C499 1.340 . S
N498 C495 1.368 . S
N498 C499 1.321 . S
N498 Co501 2.135 . S
C499 N497 1.340 . S
C499 N498 1.321 . S
C499 H523 0.930 . S
H500 C495 0.931 . S
Co501 N498 2.135 . S
Co501 N504 2.121 . S
Co501 O509 2.055 . S
Co501 O512 2.039 . S
Co501 N515 2.140 . S
C502 O503 1.227 . S
C502 O512 1.265 . S
O503 C502 1.227 . S
N504 Co501 2.121 . S
N504 C506 1.375 . S
N504 C507 1.313 . S
C505 C506 1.338 . S
C505 N508 1.377 . S
C505 H525 0.930 . S
C506 N504 1.375 . S
C506 C505 1.338 . S
C506 H510 0.931 . S
C507 N504 1.313 . S
C507 N508 1.344 . S
C507 H511 0.930 . S
N508 C505 1.377 . S
N508 C507 1.344 . S
O509 Co501 2.055 . S
O509 C513 1.253 . S
H510 C506 0.931 . S
H511 C507 0.930 . S
O512 Co501 2.039 . S
O512 C502 1.265 . S
C513 O509 1.253 . S
C513 O514 1.227 . S
O514 C513 1.227 . S
N515 Co501 2.140 . S
N515 C518 1.346 . S
N515 C519 1.345 . S
C516 C517 1.387 . S
C516 C520 1.391 . S
C517 C516 1.387 . S
C517 C518 1.369 . S
C517 H526 0.929 . S
C518 N515 1.346 . S
C518 C517 1.369 . S
C518 H521 0.928 . S
C519 N515 1.345 . S
C519 C520 1.371 . S
C519 H522 0.931 . S
C520 C516 1.391 . S
C520 C519 1.371 . S
C520 H527 0.930 . S
H521 C518 0.928 . S
H522 C519 0.931 . S
H523 C499 0.930 . S
H524 C496 0.930 . S
H525 C505 0.930 . S
H526 C517 0.929 . S
H527 C520 0.930 . S
C528 C529 1.351 . S
C528 N531 1.368 . S
C528 H533 0.931 . S
C529 C528 1.351 . S
C529 N530 1.373 . S
C529 H557 0.930 . S
N530 C529 1.373 . S
N530 C532 1.340 . S
N531 C528 1.368 . S
N531 C532 1.321 . S
N531 Co534 2.135 . S
C532 N530 1.340 . S
C532 N531 1.321 . S
C532 H556 0.930 . S
H533 C528 0.931 . S
Co534 N531 2.135 . S
Co534 N537 2.121 . S
Co534 O542 2.055 . S
Co534 O545 2.039 . S
Co534 N548 2.140 . S
C535 O536 1.227 . S
C535 O545 1.265 . S
O536 C535 1.227 . S
N537 Co534 2.121 . S
N537 C539 1.375 . S
N537 C540 1.313 . S
C538 C539 1.338 . S
C538 N541 1.377 . S
C538 H558 0.930 . S
C539 N537 1.375 . S
C539 C538 1.338 . S
C539 H543 0.931 . S
C540 N537 1.313 . S
C540 N541 1.344 . S
C540 H544 0.930 . S
N541 C538 1.377 . S
N541 C540 1.344 . S
O542 Co534 2.055 . S
O542 C546 1.253 . S
H543 C539 0.931 . S
H544 C540 0.930 . S
O545 Co534 2.039 . S
O545 C535 1.265 . S
C546 O542 1.253 . S
C546 O547 1.227 . S
O547 C546 1.227 . S
N548 Co534 2.140 . S
N548 C551 1.346 . S
N548 C552 1.345 . S
C549 C550 1.387 . S
C549 C553 1.391 . S
C550 C549 1.387 . S
C550 C551 1.369 . S
C550 H559 0.929 . S
C551 N548 1.346 . S
C551 C550 1.369 . S
C551 H554 0.928 . S
C552 N548 1.345 . S
C552 C553 1.371 . S
C552 H555 0.931 . S
C553 C549 1.391 . S
C553 C552 1.371 . S
C553 H560 0.930 . S
H554 C551 0.928 . S
H555 C552 0.931 . S
H556 C532 0.930 . S
H557 C529 0.930 . S
H558 C538 0.930 . S
H559 C550 0.929 . S
H560 C553 0.930 . S
C561 C562 1.351 . S
C561 N564 1.368 . S
C561 H566 0.931 . S
C562 C561 1.351 . S
C562 N563 1.373 . S
C562 H590 0.930 . S
N563 C562 1.373 . S
N563 C565 1.340 . S
N564 C561 1.368 . S
N564 C565 1.321 . S
N564 Co567 2.135 . S
C565 N563 1.340 . S
C565 N564 1.321 . S
C565 H589 0.930 . S
H566 C561 0.931 . S
Co567 N564 2.135 . S
Co567 N570 2.121 . S
Co567 O575 2.055 . S
Co567 O578 2.039 . S
Co567 N581 2.140 . S
C568 O569 1.227 . S
C568 O578 1.265 . S
O569 C568 1.227 . S
N570 Co567 2.121 . S
N570 C572 1.375 . S
N570 C573 1.313 . S
C571 C572 1.338 . S
C571 N574 1.377 . S
C571 H591 0.930 . S
C572 N570 1.375 . S
C572 C571 1.338 . S
C572 H576 0.931 . S
C573 N570 1.313 . S
C573 N574 1.344 . S
C573 H577 0.930 . S
N574 C571 1.377 . S
N574 C573 1.344 . S
O575 Co567 2.055 . S
O575 C579 1.253 . S
H576 C572 0.931 . S
H577 C573 0.930 . S
O578 Co567 2.039 . S
O578 C568 1.265 . S
C579 O575 1.253 . S
C579 O580 1.227 . S
O580 C579 1.227 . S
N581 Co567 2.140 . S
N581 C584 1.346 . S
N581 C585 1.345 . S
C582 C583 1.387 . S
C582 C586 1.391 . S
C583 C582 1.387 . S
C583 C584 1.369 . S
C583 H592 0.929 . S
C584 N581 1.346 . S
C584 C583 1.369 . S
C584 H587 0.928 . S
C585 N581 1.345 . S
C585 C586 1.371 . S
C585 H588 0.931 . S
C586 C582 1.391 . S
C586 C585 1.371 . S
C586 H593 0.930 . S
H587 C584 0.928 . S
H588 C585 0.931 . S
H589 C565 0.930 . S
H590 C562 0.930 . S
H591 C571 0.930 . S
H592 C583 0.929 . S
H593 C586 0.930 . S
C594 C595 1.351 . S
C594 N597 1.368 . S
C594 H599 0.931 . S
C595 C594 1.351 . S
C595 N596 1.373 . S
C595 H623 0.930 . S
N596 C595 1.373 . S
N596 C598 1.340 . S
N597 C594 1.368 . S
N597 C598 1.321 . S
N597 Co600 2.135 . S
C598 N596 1.340 . S
C598 N597 1.321 . S
C598 H622 0.930 . S
H599 C594 0.931 . S
Co600 N597 2.135 . S
Co600 N603 2.121 . S
Co600 O608 2.055 . S
Co600 O611 2.039 . S
Co600 N614 2.140 . S
C601 O602 1.227 . S
C601 O611 1.265 . S
O602 C601 1.227 . S
N603 Co600 2.121 . S
N603 C605 1.375 . S
N603 C606 1.313 . S
C604 C605 1.338 . S
C604 N607 1.377 . S
C604 H624 0.930 . S
C605 N603 1.375 . S
C605 C604 1.338 . S
C605 H609 0.931 . S
C606 N603 1.313 . S
C606 N607 1.344 . S
C606 H610 0.930 . S
N607 C604 1.377 . S
N607 C606 1.344 . S
O608 Co600 2.055 . S
O608 C612 1.253 . S
H609 C605 0.931 . S
H610 C606 0.930 . S
O611 Co600 2.039 . S
O611 C601 1.265 . S
C612 O608 1.253 . S
C612 O613 1.227 . S
O613 C612 1.227 . S
N614 Co600 2.140 . S
N614 C617 1.346 . S
N614 C618 1.345 . S
C615 C616 1.387 . S
C615 C619 1.391 . S
C616 C615 1.387 . S
C616 C617 1.369 . S
C616 H625 0.929 . S
C617 N614 1.346 . S
C617 C616 1.369 . S
C617 H620 0.928 . S
C618 N614 1.345 . S
C618 C619 1.371 . S
C618 H621 0.931 . S
C619 C615 1.391 . S
C619 C618 1.371 . S
C619 H626 0.930 . S
H620 C617 0.928 . S
H621 C618 0.931 . S
H622 C598 0.930 . S
H623 C595 0.930 . S
H624 C604 0.930 . S
H625 C616 0.929 . S
H626 C619 0.930 . S
C627 C628 1.351 . S
C627 N630 1.368 . S
C627 H632 0.931 . S
C628 C627 1.351 . S
C628 N629 1.373 . S
C628 H656 0.930 . S
N629 C628 1.373 . S
N629 C631 1.340 . S
N630 C627 1.368 . S
N630 C631 1.321 . S
N630 Co633 2.135 . S
C631 N629 1.340 . S
C631 N630 1.321 . S
C631 H655 0.930 . S
H632 C627 0.931 . S
Co633 N630 2.135 . S
Co633 N636 2.121 . S
Co633 O641 2.055 . S
Co633 O644 2.039 . S
Co633 N647 2.140 . S
C634 O635 1.227 . S
C634 O644 1.265 . S
O635 C634 1.227 . S
N636 Co633 2.121 . S
N636 C638 1.375 . S
N636 C639 1.313 . S
C637 C638 1.338 . S
C637 N640 1.377 . S
C637 H657 0.930 . S
C638 N636 1.375 . S
C638 C637 1.338 . S
C638 H642 0.931 . S
C639 N636 1.313 . S
C639 N640 1.344 . S
C639 H643 0.930 . S
N640 C637 1.377 . S
N640 C639 1.344 . S
O641 Co633 2.055 . S
O641 C645 1.253 . S
H642 C638 0.931 . S
H643 C639 0.930 . S
O644 Co633 2.039 . S
O644 C634 1.265 . S
C645 O641 1.253 . S
C645 O646 1.227 . S
O646 C645 1.227 . S
N647 Co633 2.140 . S
N647 C650 1.346 . S
N647 C651 1.345 . S
C648 C649 1.387 . S
C648 C652 1.391 . S
C649 C648 1.387 . S
C649 C650 1.369 . S
C649 H658 0.929 . S
C650 N647 1.346 . S
C650 C649 1.369 . S
C650 H653 0.928 . S
C651 N647 1.345 . S
C651 C652 1.371 . S
C651 H654 0.931 . S
C652 C648 1.391 . S
C652 C651 1.371 . S
C652 H659 0.930 . S
H653 C650 0.928 . S
H654 C651 0.931 . S
H655 C631 0.930 . S
H656 C628 0.930 . S
H657 C637 0.930 . S
H658 C649 0.929 . S
H659 C652 0.930 . S
C660 C661 1.351 . S
C660 N663 1.368 . S
C660 H665 0.931 . S
C661 C660 1.351 . S
C661 N662 1.373 . S
C661 H689 0.930 . S
N662 C661 1.373 . S
N662 C664 1.340 . S
N663 C660 1.368 . S
N663 C664 1.321 . S
N663 Co666 2.135 . S
C664 N662 1.340 . S
C664 N663 1.321 . S
C664 H688 0.930 . S
H665 C660 0.931 . S
Co666 N663 2.135 . S
Co666 N669 2.121 . S
Co666 O674 2.055 . S
Co666 O677 2.039 . S
Co666 N680 2.140 . S
C667 O668 1.227 . S
C667 O677 1.265 . S
O668 C667 1.227 . S
N669 Co666 2.121 . S
N669 C671 1.375 . S
N669 C672 1.313 . S
C670 C671 1.338 . S
C670 N673 1.377 . S
C670 H690 0.930 . S
C671 N669 1.375 . S
C671 C670 1.338 . S
C671 H675 0.931 . S
C672 N669 1.313 . S
C672 N673 1.344 . S
C672 H676 0.930 . S
N673 C670 1.377 . S
N673 C672 1.344 . S
O674 Co666 2.055 . S
O674 C678 1.253 . S
H675 C671 0.931 . S
H676 C672 0.930 . S
O677 Co666 2.039 . S
O677 C667 1.265 . S
C678 O674 1.253 . S
C678 O679 1.227 . S
O679 C678 1.227 . S
N680 Co666 2.140 . S
N680 C683 1.346 . S
N680 C684 1.345 . S
C681 C682 1.387 . S
C681 C685 1.391 . S
C682 C681 1.387 . S
C682 C683 1.369 . S
C682 H691 0.929 . S
C683 N680 1.346 . S
C683 C682 1.369 . S
C683 H686 0.928 . S
C684 N680 1.345 . S
C684 C685 1.371 . S
C684 H687 0.931 . S
C685 C681 1.391 . S
C685 C684 1.371 . S
C685 H692 0.930 . S
H686 C683 0.928 . S
H687 C684 0.931 . S
H688 C664 0.930 . S
H689 C661 0.930 . S
H690 C670 0.930 . S
H691 C682 0.929 . S
H692 C685 0.930 . S
C693 C694 1.351 . S
C693 N696 1.368 . S
C693 H698 0.931 . S
C694 C693 1.351 . S
C694 N695 1.373 . S
C694 H722 0.930 . S
N695 C694 1.373 . S
N695 C697 1.340 . S
N696 C693 1.368 . S
N696 C697 1.321 . S
N696 Co699 2.135 . S
C697 N695 1.340 . S
C697 N696 1.321 . S
C697 H721 0.930 . S
H698 C693 0.931 . S
Co699 N696 2.135 . S
Co699 N702 2.121 . S
Co699 O707 2.055 . S
Co699 O710 2.039 . S
Co699 N713 2.140 . S
C700 O701 1.227 . S
C700 O710 1.265 . S
O701 C700 1.227 . S
N702 Co699 2.121 . S
N702 C704 1.375 . S
N702 C705 1.313 . S
C703 C704 1.338 . S
C703 N706 1.377 . S
C703 H723 0.930 . S
C704 N702 1.375 . S
C704 C703 1.338 . S
C704 H708 0.931 . S
C705 N702 1.313 . S
C705 N706 1.344 . S
C705 H709 0.930 . S
N706 C703 1.377 . S
N706 C705 1.344 . S
O707 Co699 2.055 . S
O707 C711 1.253 . S
H708 C704 0.931 . S
H709 C705 0.930 . S
O710 Co699 2.039 . S
O710 C700 1.265 . S
C711 O707 1.253 . S
C711 O712 1.227 . S
O712 C711 1.227 . S
N713 Co699 2.140 . S
N713 C716 1.346 . S
N713 C717 1.345 . S
C714 C715 1.387 . S
C714 C718 1.391 . S
C715 C714 1.387 . S
C715 C716 1.369 . S
C715 H724 0.929 . S
C716 N713 1.346 . S
C716 C715 1.369 . S
C716 H719 0.928 . S
C717 N713 1.345 . S
C717 C718 1.371 . S
C717 H720 0.931 . S
C718 C714 1.391 . S
C718 C717 1.371 . S
C718 H725 0.930 . S
H719 C716 0.928 . S
H720 C717 0.931 . S
H721 C697 0.930 . S
H722 C694 0.930 . S
H723 C703 0.930 . S
H724 C715 0.929 . S
H725 C718 0.930 . S
C726 C727 1.351 . S
C726 N729 1.368 . S
C726 H731 0.931 . S
C727 C726 1.351 . S
C727 N728 1.373 . S
C727 H755 0.930 . S
N728 C727 1.373 . S
N728 C730 1.340 . S
N729 C726 1.368 . S
N729 C730 1.321 . S
N729 Co732 2.135 . S
C730 N728 1.340 . S
C730 N729 1.321 . S
C730 H754 0.930 . S
H731 C726 0.931 . S
Co732 N729 2.135 . S
Co732 N735 2.121 . S
Co732 O740 2.055 . S
Co732 O743 2.039 . S
Co732 N746 2.140 . S
C733 O734 1.227 . S
C733 O743 1.265 . S
O734 C733 1.227 . S
N735 Co732 2.121 . S
N735 C737 1.375 . S
N735 C738 1.313 . S
C736 C737 1.338 . S
C736 N739 1.377 . S
C736 H756 0.930 . S
C737 N735 1.375 . S
C737 C736 1.338 . S
C737 H741 0.931 . S
C738 N735 1.313 . S
C738 N739 1.344 . S
C738 H742 0.930 . S
N739 C736 1.377 . S
N739 C738 1.344 . S
O740 Co732 2.055 . S
O740 C744 1.253 . S
H741 C737 0.931 . S
H742 C738 0.930 . S
O743 Co732 2.039 . S
O743 C733 1.265 . S
C744 O740 1.253 . S
C744 O745 1.227 . S
O745 C744 1.227 . S
N746 Co732 2.140 . S
N746 C749 1.346 . S
N746 C750 1.345 . S
C747 C748 1.387 . S
C747 C751 1.391 . S
C748 C747 1.387 . S
C748 C749 1.369 . S
C748 H757 0.929 . S
C749 N746 1.346 . S
C749 C748 1.369 . S
C749 H752 0.928 . S
C750 N746 1.345 . S
C750 C751 1.371 . S
C750 H753 0.931 . S
C751 C747 1.391 . S
C751 C750 1.371 . S
C751 H758 0.930 . S
H752 C749 0.928 . S
H753 C750 0.931 . S
H754 C730 0.930 . S
H755 C727 0.930 . S
H756 C736 0.930 . S
H757 C748 0.929 . S
H758 C751 0.930 . S
C759 C760 1.351 . S
C759 N762 1.368 . S
C759 H764 0.931 . S
C760 C759 1.351 . S
C760 N761 1.373 . S
C760 H788 0.930 . S
N761 C760 1.373 . S
N761 C763 1.340 . S
N762 C759 1.368 . S
N762 C763 1.321 . S
N762 Co765 2.135 . S
C763 N761 1.340 . S
C763 N762 1.321 . S
C763 H787 0.930 . S
H764 C759 0.931 . S
Co765 N762 2.135 . S
Co765 N768 2.121 . S
Co765 O773 2.055 . S
Co765 O776 2.039 . S
Co765 N779 2.140 . S
C766 O767 1.227 . S
C766 O776 1.265 . S
O767 C766 1.227 . S
N768 Co765 2.121 . S
N768 C770 1.375 . S
N768 C771 1.313 . S
C769 C770 1.338 . S
C769 N772 1.377 . S
C769 H789 0.930 . S
C770 N768 1.375 . S
C770 C769 1.338 . S
C770 H774 0.931 . S
C771 N768 1.313 . S
C771 N772 1.344 . S
C771 H775 0.930 . S
N772 C769 1.377 . S
N772 C771 1.344 . S
O773 Co765 2.055 . S
O773 C777 1.253 . S
H774 C770 0.931 . S
H775 C771 0.930 . S
O776 Co765 2.039 . S
O776 C766 1.265 . S
C777 O773 1.253 . S
C777 O778 1.227 . S
O778 C777 1.227 . S
N779 Co765 2.140 . S
N779 C782 1.346 . S
N779 C783 1.345 . S
C780 C781 1.387 . S
C780 C784 1.391 . S
C781 C780 1.387 . S
C781 C782 1.369 . S
C781 H790 0.929 . S
C782 N779 1.346 . S
C782 C781 1.369 . S
C782 H785 0.928 . S
C783 N779 1.345 . S
C783 C784 1.371 . S
C783 H786 0.931 . S
C784 C780 1.391 . S
C784 C783 1.371 . S
C784 H791 0.930 . S
H785 C782 0.928 . S
H786 C783 0.931 . S
H787 C763 0.930 . S
H788 C760 0.930 . S
H789 C769 0.930 . S
H790 C781 0.929 . S
H791 C784 0.930 . S
C792 C793 1.351 . S
C792 N795 1.368 . S
C792 H797 0.931 . S
C793 C792 1.351 . S
C793 N794 1.373 . S
C793 H821 0.930 . S
N794 C793 1.373 . S
N794 C796 1.340 . S
N795 C792 1.368 . S
N795 C796 1.321 . S
N795 Co798 2.135 . S
C796 N794 1.340 . S
C796 N795 1.321 . S
C796 H820 0.930 . S
H797 C792 0.931 . S
Co798 N795 2.135 . S
Co798 N801 2.121 . S
Co798 O806 2.055 . S
Co798 O809 2.039 . S
Co798 N812 2.140 . S
C799 O800 1.227 . S
C799 O809 1.265 . S
O800 C799 1.227 . S
N801 Co798 2.121 . S
N801 C803 1.375 . S
N801 C804 1.313 . S
C802 C803 1.338 . S
C802 N805 1.377 . S
C802 H822 0.930 . S
C803 N801 1.375 . S
C803 C802 1.338 . S
C803 H807 0.931 . S
C804 N801 1.313 . S
C804 N805 1.344 . S
C804 H808 0.930 . S
N805 C802 1.377 . S
N805 C804 1.344 . S
O806 Co798 2.055 . S
O806 C810 1.253 . S
H807 C803 0.931 . S
H808 C804 0.930 . S
O809 Co798 2.039 . S
O809 C799 1.265 . S
C810 O806 1.253 . S
C810 O811 1.227 . S
O811 C810 1.227 . S
N812 Co798 2.140 . S
N812 C815 1.346 . S
N812 C816 1.345 . S
C813 C814 1.387 . S
C813 C817 1.391 . S
C814 C813 1.387 . S
C814 C815 1.369 . S
C814 H823 0.929 . S
C815 N812 1.346 . S
C815 C814 1.369 . S
C815 H818 0.928 . S
C816 N812 1.345 . S
C816 C817 1.371 . S
C816 H819 0.931 . S
C817 C813 1.391 . S
C817 C816 1.371 . S
C817 H824 0.930 . S
H818 C815 0.928 . S
H819 C816 0.931 . S
H820 C796 0.930 . S
H821 C793 0.930 . S
H822 C802 0.930 . S
H823 C814 0.929 . S
H824 C817 0.930 . S
C825 C826 1.351 . S
C825 N828 1.368 . S
C825 H830 0.931 . S
C826 C825 1.351 . S
C826 N827 1.373 . S
C826 H854 0.930 . S
N827 C826 1.373 . S
N827 C829 1.340 . S
N828 C825 1.368 . S
N828 C829 1.321 . S
N828 Co831 2.135 . S
C829 N827 1.340 . S
C829 N828 1.321 . S
C829 H853 0.930 . S
H830 C825 0.931 . S
Co831 N828 2.135 . S
Co831 N834 2.121 . S
Co831 O839 2.055 . S
Co831 O842 2.039 . S
Co831 N845 2.140 . S
C832 O833 1.227 . S
C832 O842 1.265 . S
O833 C832 1.227 . S
N834 Co831 2.121 . S
N834 C836 1.375 . S
N834 C837 1.313 . S
C835 C836 1.338 . S
C835 N838 1.377 . S
C835 H855 0.930 . S
C836 N834 1.375 . S
C836 C835 1.338 . S
C836 H840 0.931 . S
C837 N834 1.313 . S
C837 N838 1.344 . S
C837 H841 0.930 . S
N838 C835 1.377 . S
N838 C837 1.344 . S
O839 Co831 2.055 . S
O839 C843 1.253 . S
H840 C836 0.931 . S
H841 C837 0.930 . S
O842 Co831 2.039 . S
O842 C832 1.265 . S
C843 O839 1.253 . S
C843 O844 1.227 . S
O844 C843 1.227 . S
N845 Co831 2.140 . S
N845 C848 1.346 . S
N845 C849 1.345 . S
C846 C847 1.387 . S
C846 C850 1.391 . S
C847 C846 1.387 . S
C847 C848 1.369 . S
C847 H856 0.929 . S
C848 N845 1.346 . S
C848 C847 1.369 . S
C848 H851 0.928 . S
C849 N845 1.345 . S
C849 C850 1.371 . S
C849 H852 0.931 . S
C850 C846 1.391 . S
C850 C849 1.371 . S
C850 H857 0.930 . S
H851 C848 0.928 . S
H852 C849 0.931 . S
H853 C829 0.930 . S
H854 C826 0.930 . S
H855 C835 0.930 . S
H856 C847 0.929 . S
H857 C850 0.930 . S
C858 C859 1.351 . S
C858 N861 1.368 . S
C858 H863 0.931 . S
C859 C858 1.351 . S
C859 N860 1.373 . S
C859 H887 0.930 . S
N860 C859 1.373 . S
N860 C862 1.340 . S
N861 C858 1.368 . S
N861 C862 1.321 . S
N861 Co864 2.135 . S
C862 N860 1.340 . S
C862 N861 1.321 . S
C862 H886 0.930 . S
H863 C858 0.931 . S
Co864 N861 2.135 . S
Co864 N867 2.121 . S
Co864 O872 2.055 . S
Co864 O875 2.039 . S
Co864 N878 2.140 . S
C865 O866 1.227 . S
C865 O875 1.265 . S
O866 C865 1.227 . S
N867 Co864 2.121 . S
N867 C869 1.375 . S
N867 C870 1.313 . S
C868 C869 1.338 . S
C868 N871 1.377 . S
C868 H888 0.930 . S
C869 N867 1.375 . S
C869 C868 1.338 . S
C869 H873 0.931 . S
C870 N867 1.313 . S
C870 N871 1.344 . S
C870 H874 0.930 . S
N871 C868 1.377 . S
N871 C870 1.344 . S
O872 Co864 2.055 . S
O872 C876 1.253 . S
H873 C869 0.931 . S
H874 C870 0.930 . S
O875 Co864 2.039 . S
O875 C865 1.265 . S
C876 O872 1.253 . S
C876 O877 1.227 . S
O877 C876 1.227 . S
N878 Co864 2.140 . S
N878 C881 1.346 . S
N878 C882 1.345 . S
C879 C880 1.387 . S
C879 C883 1.391 . S
C880 C879 1.387 . S
C880 C881 1.369 . S
C880 H889 0.929 . S
C881 N878 1.346 . S
C881 C880 1.369 . S
C881 H884 0.928 . S
C882 N878 1.345 . S
C882 C883 1.371 . S
C882 H885 0.931 . S
C883 C879 1.391 . S
C883 C882 1.371 . S
C883 H890 0.930 . S
H884 C881 0.928 . S
H885 C882 0.931 . S
H886 C862 0.930 . S
H887 C859 0.930 . S
H888 C868 0.930 . S
H889 C880 0.929 . S
H890 C883 0.930 . S
C891 C892 1.351 . S
C891 N894 1.368 . S
C891 H896 0.931 . S
C892 C891 1.351 . S
C892 N893 1.373 . S
C892 H920 0.930 . S
N893 C892 1.373 . S
N893 C895 1.340 . S
N894 C891 1.368 . S
N894 C895 1.321 . S
N894 Co897 2.135 . S
C895 N893 1.340 . S
C895 N894 1.321 . S
C895 H919 0.930 . S
H896 C891 0.931 . S
Co897 N894 2.135 . S
Co897 N900 2.121 . S
Co897 O905 2.055 . S
Co897 O908 2.039 . S
Co897 N911 2.140 . S
C898 O899 1.227 . S
C898 O908 1.265 . S
O899 C898 1.227 . S
N900 Co897 2.121 . S
N900 C902 1.375 . S
N900 C903 1.313 . S
C901 C902 1.338 . S
C901 N904 1.377 . S
C901 H921 0.930 . S
C902 N900 1.375 . S
C902 C901 1.338 . S
C902 H906 0.931 . S
C903 N900 1.313 . S
C903 N904 1.344 . S
C903 H907 0.930 . S
N904 C901 1.377 . S
N904 C903 1.344 . S
O905 Co897 2.055 . S
O905 C909 1.253 . S
H906 C902 0.931 . S
H907 C903 0.930 . S
O908 Co897 2.039 . S
O908 C898 1.265 . S
C909 O905 1.253 . S
C909 O910 1.227 . S
O910 C909 1.227 . S
N911 Co897 2.140 . S
N911 C914 1.346 . S
N911 C915 1.345 . S
C912 C913 1.387 . S
C912 C916 1.391 . S
C913 C912 1.387 . S
C913 C914 1.369 . S
C913 H922 0.929 . S
C914 N911 1.346 . S
C914 C913 1.369 . S
C914 H917 0.928 . S
C915 N911 1.345 . S
C915 C916 1.371 . S
C915 H918 0.931 . S
C916 C912 1.391 . S
C916 C915 1.371 . S
C916 H923 0.930 . S
H917 C914 0.928 . S
H918 C915 0.931 . S
H919 C895 0.930 . S
H920 C892 0.930 . S
H921 C901 0.930 . S
H922 C913 0.929 . S
H923 C916 0.930 . S
C924 C925 1.351 . S
C924 N927 1.368 . S
C924 H929 0.931 . S
C925 C924 1.351 . S
C925 N926 1.373 . S
C925 H953 0.930 . S
N926 C925 1.373 . S
N926 C928 1.340 . S
N927 C924 1.368 . S
N927 C928 1.321 . S
N927 Co930 2.135 . S
C928 N926 1.340 . S
C928 N927 1.321 . S
C928 H952 0.930 . S
H929 C924 0.931 . S
Co930 N927 2.135 . S
Co930 N933 2.121 . S
Co930 O938 2.055 . S
Co930 O941 2.039 . S
Co930 N944 2.140 . S
C931 O932 1.227 . S
C931 O941 1.265 . S
O932 C931 1.227 . S
N933 Co930 2.121 . S
N933 C935 1.375 . S
N933 C936 1.313 . S
C934 C935 1.338 . S
C934 N937 1.377 . S
C934 H954 0.930 . S
C935 N933 1.375 . S
C935 C934 1.338 . S
C935 H939 0.931 . S
C936 N933 1.313 . S
C936 N937 1.344 . S
C936 H940 0.930 . S
N937 C934 1.377 . S
N937 C936 1.344 . S
O938 Co930 2.055 . S
O938 C942 1.253 . S
H939 C935 0.931 . S
H940 C936 0.930 . S
O941 Co930 2.039 . S
O941 C931 1.265 . S
C942 O938 1.253 . S
C942 O943 1.227 . S
O943 C942 1.227 . S
N944 Co930 2.140 . S
N944 C947 1.346 . S
N944 C948 1.345 . S
C945 C946 1.387 . S
C945 C949 1.391 . S
C946 C945 1.387 . S
C946 C947 1.369 . S
C946 H955 0.929 . S
C947 N944 1.346 . S
C947 C946 1.369 . S
C947 H950 0.928 . S
C948 N944 1.345 . S
C948 C949 1.371 . S
C948 H951 0.931 . S
C949 C945 1.391 . S
C949 C948 1.371 . S
C949 H956 0.930 . S
H950 C947 0.928 . S
H951 C948 0.931 . S
H952 C928 0.930 . S
H953 C925 0.930 . S
H954 C934 0.930 . S
H955 C946 0.929 . S
H956 C949 0.930 . S
C957 C958 1.351 . S
C957 N960 1.368 . S
C957 H962 0.931 . S
C958 C957 1.351 . S
C958 N959 1.373 . S
C958 H986 0.930 . S
N959 C958 1.373 . S
N959 C961 1.340 . S
N960 C957 1.368 . S
N960 C961 1.321 . S
N960 Co963 2.135 . S
C961 N959 1.340 . S
C961 N960 1.321 . S
C961 H985 0.930 . S
H962 C957 0.931 . S
Co963 N960 2.135 . S
Co963 N966 2.121 . S
Co963 O971 2.055 . S
Co963 O974 2.039 . S
Co963 N977 2.140 . S
C964 O965 1.227 . S
C964 O974 1.265 . S
O965 C964 1.227 . S
N966 Co963 2.121 . S
N966 C968 1.375 . S
N966 C969 1.313 . S
C967 C968 1.338 . S
C967 N970 1.377 . S
C967 H987 0.930 . S
C968 N966 1.375 . S
C968 C967 1.338 . S
C968 H972 0.931 . S
C969 N966 1.313 . S
C969 N970 1.344 . S
C969 H973 0.930 . S
N970 C967 1.377 . S
N970 C969 1.344 . S
O971 Co963 2.055 . S
O971 C975 1.253 . S
H972 C968 0.931 . S
H973 C969 0.930 . S
O974 Co963 2.039 . S
O974 C964 1.265 . S
C975 O971 1.253 . S
C975 O976 1.227 . S
O976 C975 1.227 . S
N977 Co963 2.140 . S
N977 C980 1.346 . S
N977 C981 1.345 . S
C978 C979 1.387 . S
C978 C982 1.391 . S
C979 C978 1.387 . S
C979 C980 1.369 . S
C979 H988 0.929 . S
C980 N977 1.346 . S
C980 C979 1.369 . S
C980 H983 0.928 . S
C981 N977 1.345 . S
C981 C982 1.371 . S
C981 H984 0.931 . S
C982 C978 1.391 . S
C982 C981 1.371 . S
C982 H989 0.930 . S
H983 C980 0.928 . S
H984 C981 0.931 . S
H985 C961 0.930 . S
H986 C958 0.930 . S
H987 C967 0.930 . S
H988 C979 0.929 . S
H989 C982 0.930 . S
C990 C991 1.351 . S
C990 N993 1.368 . S
C990 H995 0.931 . S
C991 C990 1.351 . S
C991 N992 1.373 . S
C991 H1019 0.930 . S
N992 C991 1.373 . S
N992 C994 1.340 . S
N993 C990 1.368 . S
N993 C994 1.321 . S
N993 Co996 2.135 . S
C994 N992 1.340 . S
C994 N993 1.321 . S
C994 H1018 0.930 . S
H995 C990 0.931 . S
Co996 N993 2.135 . S
Co996 N999 2.121 . S
Co996 O1004 2.055 . S
Co996 O1007 2.039 . S
Co996 N1010 2.140 . S
C997 O998 1.227 . S
C997 O1007 1.265 . S
O998 C997 1.227 . S
N999 Co996 2.121 . S
N999 C1001 1.375 . S
N999 C1002 1.313 . S
C1000 C1001 1.338 . S
C1000 N1003 1.377 . S
C1000 H1020 0.930 . S
C1001 N999 1.375 . S
C1001 C1000 1.338 . S
C1001 H1005 0.931 . S
C1002 N999 1.313 . S
C1002 N1003 1.344 . S
C1002 H1006 0.930 . S
N1003 C1000 1.377 . S
N1003 C1002 1.344 . S
O1004 Co996 2.055 . S
O1004 C1008 1.253 . S
H1005 C1001 0.931 . S
H1006 C1002 0.930 . S
O1007 Co996 2.039 . S
O1007 C997 1.265 . S
C1008 O1004 1.253 . S
C1008 O1009 1.227 . S
O1009 C1008 1.227 . S
N1010 Co996 2.140 . S
N1010 C1013 1.346 . S
N1010 C1014 1.345 . S
C1011 C1012 1.387 . S
C1011 C1015 1.391 . S
C1012 C1011 1.387 . S
C1012 C1013 1.369 . S
C1012 H1021 0.929 . S
C1013 N1010 1.346 . S
C1013 C1012 1.369 . S
C1013 H1016 0.928 . S
C1014 N1010 1.345 . S
C1014 C1015 1.371 . S
C1014 H1017 0.931 . S
C1015 C1011 1.391 . S
C1015 C1014 1.371 . S
C1015 H1022 0.930 . S
H1016 C1013 0.928 . S
H1017 C1014 0.931 . S
H1018 C994 0.930 . S
H1019 C991 0.930 . S
H1020 C1000 0.930 . S
H1021 C1012 0.929 . S
H1022 C1015 0.930 . S
C1023 C1024 1.351 . S
C1023 N1026 1.368 . S
C1023 H1028 0.931 . S
C1024 C1023 1.351 . S
C1024 N1025 1.373 . S
C1024 H1052 0.930 . S
N1025 C1024 1.373 . S
N1025 C1027 1.340 . S
N1026 C1023 1.368 . S
N1026 C1027 1.321 . S
N1026 Co1029 2.135 . S
C1027 N1025 1.340 . S
C1027 N1026 1.321 . S
C1027 H1051 0.930 . S
H1028 C1023 0.931 . S
Co1029 N1026 2.135 . S
Co1029 N1032 2.121 . S
Co1029 O1037 2.055 . S
Co1029 O1040 2.039 . S
Co1029 N1043 2.140 . S
C1030 O1031 1.227 . S
C1030 O1040 1.265 . S
O1031 C1030 1.227 . S
N1032 Co1029 2.121 . S
N1032 C1034 1.375 . S
N1032 C1035 1.313 . S
C1033 C1034 1.338 . S
C1033 N1036 1.377 . S
C1033 H1053 0.930 . S
C1034 N1032 1.375 . S
C1034 C1033 1.338 . S
C1034 H1038 0.931 . S
C1035 N1032 1.313 . S
C1035 N1036 1.344 . S
C1035 H1039 0.930 . S
N1036 C1033 1.377 . S
N1036 C1035 1.344 . S
O1037 Co1029 2.055 . S
O1037 C1041 1.253 . S
H1038 C1034 0.931 . S
H1039 C1035 0.930 . S
O1040 Co1029 2.039 . S
O1040 C1030 1.265 . S
C1041 O1037 1.253 . S
C1041 O1042 1.227 . S
O1042 C1041 1.227 . S
N1043 Co1029 2.140 . S
N1043 C1046 1.346 . S
N1043 C1047 1.345 . S
C1044 C1045 1.387 . S
C1044 C1048 1.391 . S
C1045 C1044 1.387 . S
C1045 C1046 1.369 . S
C1045 H1054 0.929 . S
C1046 N1043 1.346 . S
C1046 C1045 1.369 . S
C1046 H1049 0.928 . S
C1047 N1043 1.345 . S
C1047 C1048 1.371 . S
C1047 H1050 0.931 . S
C1048 C1044 1.391 . S
C1048 C1047 1.371 . S
C1048 H1055 0.930 . S
H1049 C1046 0.928 . S
H1050 C1047 0.931 . S
H1051 C1027 0.930 . S
H1052 C1024 0.930 . S
H1053 C1033 0.930 . S
H1054 C1045 0.929 . S
H1055 C1048 0.930 . S
C1056 C1057 1.351 . S
C1056 N1059 1.368 . S
C1056 H1061 0.931 . S
C1057 C1056 1.351 . S
C1057 N1058 1.373 . S
C1057 H1085 0.930 . S
N1058 C1057 1.373 . S
N1058 C1060 1.340 . S
N1059 C1056 1.368 . S
N1059 C1060 1.321 . S
N1059 Co1062 2.135 . S
C1060 N1058 1.340 . S
C1060 N1059 1.321 . S
C1060 H1084 0.930 . S
H1061 C1056 0.931 . S
Co1062 N1059 2.135 . S
Co1062 N1065 2.121 . S
Co1062 O1070 2.055 . S
Co1062 O1073 2.039 . S
Co1062 N1076 2.140 . S
C1063 O1064 1.227 . S
C1063 O1073 1.265 . S
O1064 C1063 1.227 . S
N1065 Co1062 2.121 . S
N1065 C1067 1.375 . S
N1065 C1068 1.313 . S
C1066 C1067 1.338 . S
C1066 N1069 1.377 . S
C1066 H1086 0.930 . S
C1067 N1065 1.375 . S
C1067 C1066 1.338 . S
C1067 H1071 0.931 . S
C1068 N1065 1.313 . S
C1068 N1069 1.344 . S
C1068 H1072 0.930 . S
N1069 C1066 1.377 . S
N1069 C1068 1.344 . S
O1070 Co1062 2.055 . S
O1070 C1074 1.253 . S
H1071 C1067 0.931 . S
H1072 C1068 0.930 . S
O1073 Co1062 2.039 . S
O1073 C1063 1.265 . S
C1074 O1070 1.253 . S
C1074 O1075 1.227 . S
O1075 C1074 1.227 . S
N1076 Co1062 2.140 . S
N1076 C1079 1.346 . S
N1076 C1080 1.345 . S
C1077 C1078 1.387 . S
C1077 C1081 1.391 . S
C1078 C1077 1.387 . S
C1078 C1079 1.369 . S
C1078 H1087 0.929 . S
C1079 N1076 1.346 . S
C1079 C1078 1.369 . S
C1079 H1082 0.928 . S
C1080 N1076 1.345 . S
C1080 C1081 1.371 . S
C1080 H1083 0.931 . S
C1081 C1077 1.391 . S
C1081 C1080 1.371 . S
C1081 H1088 0.930 . S
H1082 C1079 0.928 . S
H1083 C1080 0.931 . S
H1084 C1060 0.930 . S
H1085 C1057 0.930 . S
H1086 C1066 0.930 . S
H1087 C1078 0.929 . S
H1088 C1081 0.930 . S
C1089 C1090 1.351 . S
C1089 N1092 1.368 . S
C1089 H1094 0.931 . S
C1090 C1089 1.351 . S
C1090 N1091 1.373 . S
C1090 H1118 0.930 . S
N1091 C1090 1.373 . S
N1091 C1093 1.340 . S
N1092 C1089 1.368 . S
N1092 C1093 1.321 . S
N1092 Co1095 2.135 . S
C1093 N1091 1.340 . S
C1093 N1092 1.321 . S
C1093 H1117 0.930 . S
H1094 C1089 0.931 . S
Co1095 N1092 2.135 . S
Co1095 N1098 2.121 . S
Co1095 O1103 2.055 . S
Co1095 O1106 2.039 . S
Co1095 N1109 2.140 . S
C1096 O1097 1.227 . S
C1096 O1106 1.265 . S
O1097 C1096 1.227 . S
N1098 Co1095 2.121 . S
N1098 C1100 1.375 . S
N1098 C1101 1.313 . S
C1099 C1100 1.338 . S
C1099 N1102 1.377 . S
C1099 H1119 0.930 . S
C1100 N1098 1.375 . S
C1100 C1099 1.338 . S
C1100 H1104 0.931 . S
C1101 N1098 1.313 . S
C1101 N1102 1.344 . S
C1101 H1105 0.930 . S
N1102 C1099 1.377 . S
N1102 C1101 1.344 . S
O1103 Co1095 2.055 . S
O1103 C1107 1.253 . S
H1104 C1100 0.931 . S
H1105 C1101 0.930 . S
O1106 Co1095 2.039 . S
O1106 C1096 1.265 . S
C1107 O1103 1.253 . S
C1107 O1108 1.227 . S
O1108 C1107 1.227 . S
N1109 Co1095 2.140 . S
N1109 C1112 1.346 . S
N1109 C1113 1.345 . S
C1110 C1111 1.387 . S
C1110 C1114 1.391 . S
C1111 C1110 1.387 . S
C1111 C1112 1.369 . S
C1111 H1120 0.929 . S
C1112 N1109 1.346 . S
C1112 C1111 1.369 . S
C1112 H1115 0.928 . S
C1113 N1109 1.345 . S
C1113 C1114 1.371 . S
C1113 H1116 0.931 . S
C1114 C1110 1.391 . S
C1114 C1113 1.371 . S
C1114 H1121 0.930 . S
H1115 C1112 0.928 . S
H1116 C1113 0.931 . S
H1117 C1093 0.930 . S
H1118 C1090 0.930 . S
H1119 C1099 0.930 . S
H1120 C1111 0.929 . S
H1121 C1114 0.930 . S
C1122 C1123 1.351 . S
C1122 N1125 1.368 . S
C1122 H1127 0.931 . S
C1123 C1122 1.351 . S
C1123 N1124 1.373 . S
C1123 H1151 0.930 . S
N1124 C1123 1.373 . S
N1124 C1126 1.340 . S
N1125 C1122 1.368 . S
N1125 C1126 1.321 . S
N1125 Co1128 2.135 . S
C1126 N1124 1.340 . S
C1126 N1125 1.321 . S
C1126 H1150 0.930 . S
H1127 C1122 0.931 . S
Co1128 N1125 2.135 . S
Co1128 N1131 2.121 . S
Co1128 O1136 2.055 . S
Co1128 O1139 2.039 . S
Co1128 N1142 2.140 . S
C1129 O1130 1.227 . S
C1129 O1139 1.265 . S
O1130 C1129 1.227 . S
N1131 Co1128 2.121 . S
N1131 C1133 1.375 . S
N1131 C1134 1.313 . S
C1132 C1133 1.338 . S
C1132 N1135 1.377 . S
C1132 H1152 0.930 . S
C1133 N1131 1.375 . S
C1133 C1132 1.338 . S
C1133 H1137 0.931 . S
C1134 N1131 1.313 . S
C1134 N1135 1.344 . S
C1134 H1138 0.930 . S
N1135 C1132 1.377 . S
N1135 C1134 1.344 . S
O1136 Co1128 2.055 . S
O1136 C1140 1.253 . S
H1137 C1133 0.931 . S
H1138 C1134 0.930 . S
O1139 Co1128 2.039 . S
O1139 C1129 1.265 . S
C1140 O1136 1.253 . S
C1140 O1141 1.227 . S
O1141 C1140 1.227 . S
N1142 Co1128 2.140 . S
N1142 C1145 1.346 . S
N1142 C1146 1.345 . S
C1143 C1144 1.387 . S
C1143 C1147 1.391 . S
C1144 C1143 1.387 . S
C1144 C1145 1.369 . S
C1144 H1153 0.929 . S
C1145 N1142 1.346 . S
C1145 C1144 1.369 . S
C1145 H1148 0.928 . S
C1146 N1142 1.345 . S
C1146 C1147 1.371 . S
C1146 H1149 0.931 . S
C1147 C1143 1.391 . S
C1147 C1146 1.371 . S
C1147 H1154 0.930 . S
H1148 C1145 0.928 . S
H1149 C1146 0.931 . S
H1150 C1126 0.930 . S
H1151 C1123 0.930 . S
H1152 C1132 0.930 . S
H1153 C1144 0.929 . S
H1154 C1147 0.930 . S
C1155 C1156 1.351 . S
C1155 N1158 1.368 . S
C1155 H1160 0.931 . S
C1156 C1155 1.351 . S
C1156 N1157 1.373 . S
C1156 H1184 0.930 . S
N1157 C1156 1.373 . S
N1157 C1159 1.340 . S
N1158 C1155 1.368 . S
N1158 C1159 1.321 . S
N1158 Co1161 2.135 . S
C1159 N1157 1.340 . S
C1159 N1158 1.321 . S
C1159 H1183 0.930 . S
H1160 C1155 0.931 . S
Co1161 N1158 2.135 . S
Co1161 N1164 2.121 . S
Co1161 O1169 2.055 . S
Co1161 O1172 2.039 . S
Co1161 N1175 2.140 . S
C1162 O1163 1.227 . S
C1162 O1172 1.265 . S
O1163 C1162 1.227 . S
N1164 Co1161 2.121 . S
N1164 C1166 1.375 . S
N1164 C1167 1.313 . S
C1165 C1166 1.338 . S
C1165 N1168 1.377 . S
C1165 H1185 0.930 . S
C1166 N1164 1.375 . S
C1166 C1165 1.338 . S
C1166 H1170 0.931 . S
C1167 N1164 1.313 . S
C1167 N1168 1.344 . S
C1167 H1171 0.930 . S
N1168 C1165 1.377 . S
N1168 C1167 1.344 . S
O1169 Co1161 2.055 . S
O1169 C1173 1.253 . S
H1170 C1166 0.931 . S
H1171 C1167 0.930 . S
O1172 Co1161 2.039 . S
O1172 C1162 1.265 . S
C1173 O1169 1.253 . S
C1173 O1174 1.227 . S
O1174 C1173 1.227 . S
N1175 Co1161 2.140 . S
N1175 C1178 1.346 . S
N1175 C1179 1.345 . S
C1176 C1177 1.387 . S
C1176 C1180 1.391 . S
C1177 C1176 1.387 . S
C1177 C1178 1.369 . S
C1177 H1186 0.929 . S
C1178 N1175 1.346 . S
C1178 C1177 1.369 . S
C1178 H1181 0.928 . S
C1179 N1175 1.345 . S
C1179 C1180 1.371 . S
C1179 H1182 0.931 . S
C1180 C1176 1.391 . S
C1180 C1179 1.371 . S
C1180 H1187 0.930 . S
H1181 C1178 0.928 . S
H1182 C1179 0.931 . S
H1183 C1159 0.930 . S
H1184 C1156 0.930 . S
H1185 C1165 0.930 . S
H1186 C1177 0.929 . S
H1187 C1180 0.930 . S
C1188 C1189 1.349 . S
C1188 C1190 1.327 . S
C1188 H1213 0.950 . S
C1189 C1188 1.349 . S
C1189 C1205 1.349 . S
C1190 C1188 1.327 . S
C1190 C1209 1.429 . S
C1190 H1214 0.950 . S
C1191 C1208 1.574 . S
C1191 C1210 1.368 . S
C1191 H1215 0.949 . S
H1192 C1196 0.949 . S
C1193 C1194 1.349 . S
C1193 C1195 1.327 . S
C1193 H1216 0.950 . S
C1194 C1193 1.349 . S
C1194 C1206 1.349 . S
C1195 C1193 1.327 . S
C1195 C1211 1.429 . S
C1195 H1217 0.950 . S
C1196 H1192 0.949 . S
C1196 C1204 1.574 . S
C1196 C1212 1.368 . S
H1197 C1205 0.950 . S
H1198 C1203 0.950 . S
H1199 C1204 0.949 . S
H1200 C1206 0.950 . S
H1201 C1207 0.950 . S
H1202 C1208 0.949 . S
C1203 H1198 0.950 . S
C1203 C1205 1.327 . S
C1203 C1209 1.429 . S
C1204 C1196 1.574 . S
C1204 H1199 0.949 . S
C1204 C1210 1.368 . S
C1205 C1189 1.349 . S
C1205 H1197 0.950 . S
C1205 C1203 1.327 . S
C1206 C1194 1.349 . S
C1206 H1200 0.950 . S
C1206 C1207 1.327 . S
C1207 H1201 0.950 . S
C1207 C1206 1.327 . S
C1207 C1211 1.429 . S
C1208 C1191 1.574 . S
C1208 H1202 0.949 . S
C1208 C1212 1.368 . S
C1209 C1190 1.429 . S
C1209 C1203 1.429 . S
C1209 C1210 1.523 . S
C1210 C1191 1.368 . S
C1210 C1204 1.368 . S
C1210 C1209 1.523 . S
C1211 C1195 1.429 . S
C1211 C1207 1.429 . S
C1211 C1212 1.523 . S
C1212 C1196 1.368 . S
C1212 C1208 1.368 . S
C1212 C1211 1.523 . S
H1213 C1188 0.950 . S
H1214 C1190 0.950 . S
H1215 C1191 0.949 . S
H1216 C1193 0.950 . S
H1217 C1195 0.950 . S
C1218 C1219 1.349 . S
C1218 C1220 1.327 . S
C1218 H1243 0.950 . S
C1219 C1218 1.349 . S
C1219 C1235 1.349 . S
C1220 C1218 1.327 . S
C1220 C1239 1.429 . S
C1220 H1244 0.950 . S
C1221 C1238 1.574 . S
C1221 C1240 1.368 1_565 S
C1221 H1245 0.949 . S
H1222 C1226 0.949 . S
C1223 C1224 1.349 . S
C1223 C1225 1.327 . S
C1223 H1246 0.950 . S
C1224 C1223 1.349 . S
C1224 C1236 1.349 . S
C1225 C1223 1.327 . S
C1225 C1241 1.429 . S
C1225 H1247 0.950 . S
C1226 H1222 0.949 . S
C1226 C1234 1.574 . S
C1226 C1242 1.368 1_545 S
H1227 C1235 0.950 1_565 S
H1228 C1233 0.950 . S
H1229 C1234 0.949 . S
H1230 C1236 0.950 1_545 S
H1231 C1237 0.950 . S
H1232 C1238 0.949 . S
C1233 H1228 0.950 . S
C1233 C1235 1.327 1_565 S
C1233 C1239 1.429 1_565 S
C1234 C1226 1.574 . S
C1234 H1229 0.949 . S
C1234 C1240 1.368 . S
C1235 C1219 1.349 . S
C1235 H1227 0.950 1_545 S
C1235 C1233 1.327 1_545 S
C1236 C1224 1.349 . S
C1236 H1230 0.950 1_565 S
C1236 C1237 1.327 1_565 S
C1237 H1231 0.950 . S
C1237 C1236 1.327 1_545 S
C1237 C1241 1.429 1_545 S
C1238 C1221 1.574 . S
C1238 H1232 0.949 . S
C1238 C1242 1.368 . S
C1239 C1220 1.429 . S
C1239 C1233 1.429 1_545 S
C1239 C1240 1.523 . S
C1240 C1221 1.368 1_545 S
C1240 C1234 1.368 . S
C1240 C1239 1.523 . S
C1241 C1225 1.429 . S
C1241 C1237 1.429 1_565 S
C1241 C1242 1.523 . S
C1242 C1226 1.368 1_565 S
C1242 C1238 1.368 . S
C1242 C1241 1.523 . S
H1243 C1218 0.950 . S
H1244 C1220 0.950 . S
H1245 C1221 0.949 . S
H1246 C1223 0.950 . S
H1247 C1225 0.950 . S
C1248 C1249 1.349 . S
C1248 C1250 1.327 . S
C1248 H1273 0.950 . S
C1249 C1248 1.349 . S
C1249 C1265 1.329 1_455 S
C1250 C1248 1.327 . S
C1250 C1269 1.429 . S
C1250 H1274 0.950 . S
C1251 C1268 1.574 . S
C1251 C1270 1.368 1_655 S
C1251 H1275 0.949 . S
H1252 C1256 0.949 . S
C1253 C1254 1.349 . S
C1253 C1255 1.327 . S
C1253 H1276 0.950 . S
C1254 C1253 1.349 . S
C1254 C1266 1.329 1_655 S
C1255 C1253 1.327 . S
C1255 C1271 1.429 . S
C1255 H1277 0.950 . S
C1256 H1252 0.949 . S
C1256 C1264 1.574 . S
C1256 C1272 1.368 1_455 S
H1257 C1265 0.964 . S
H1258 C1263 0.950 . S
H1259 C1264 0.949 . S
H1260 C1266 0.964 . S
H1261 C1267 0.950 . S
H1262 C1268 0.949 . S
C1263 H1258 0.950 . S
C1263 C1265 1.335 . S
C1263 C1269 1.429 1_655 S
C1264 C1256 1.574 . S
C1264 H1259 0.949 . S
C1264 C1270 1.368 . S
C1265 C1249 1.329 1_655 S
C1265 H1257 0.964 . S
C1265 C1263 1.335 . S
C1266 C1254 1.329 1_455 S
C1266 H1260 0.964 . S
C1266 C1267 1.335 . S
C1267 H1261 0.950 . S
C1267 C1266 1.335 . S
C1267 C1271 1.429 1_455 S
C1268 C1251 1.574 . S
C1268 H1262 0.949 . S
C1268 C1272 1.368 . S
C1269 C1250 1.429 . S
C1269 C1263 1.429 1_455 S
C1269 C1270 1.523 . S
C1270 C1251 1.368 1_455 S
C1270 C1264 1.368 . S
C1270 C1269 1.523 . S
C1271 C1255 1.429 . S
C1271 C1267 1.429 1_655 S
C1271 C1272 1.523 . S
C1272 C1256 1.368 1_655 S
C1272 C1268 1.368 . S
C1272 C1271 1.523 . S
H1273 C1248 0.950 . S
H1274 C1250 0.950 . S
H1275 C1251 0.949 . S
H1276 C1253 0.950 . S
H1277 C1255 0.950 . S
C1278 C1279 1.349 . S
C1278 C1280 1.327 . S
C1278 H1303 0.950 . S
C1279 C1278 1.349 . S
C1279 C1295 1.349 . S
C1280 C1278 1.327 . S
C1280 C1299 1.429 . S
C1280 H1304 0.950 . S
C1281 C1298 1.574 . S
C1281 C1300 1.368 . S
C1281 H1305 0.949 . S
H1282 C1286 0.949 . S
C1283 C1284 1.349 . S
C1283 C1285 1.327 . S
C1283 H1306 0.950 . S
C1284 C1283 1.349 . S
C1284 C1296 1.349 . S
C1285 C1283 1.327 . S
C1285 C1301 1.429 . S
C1285 H1307 0.950 . S
C1286 H1282 0.949 . S
C1286 C1294 1.574 . S
C1286 C1302 1.368 . S
H1287 C1295 0.950 . S
H1288 C1293 0.950 . S
H1289 C1294 0.949 . S
H1290 C1296 0.950 . S
H1291 C1297 0.950 . S
H1292 C1298 0.949 . S
C1293 H1288 0.950 . S
C1293 C1295 1.327 . S
C1293 C1299 1.429 . S
C1294 C1286 1.574 . S
C1294 H1289 0.949 . S
C1294 C1300 1.368 . S
C1295 C1279 1.349 . S
C1295 H1287 0.950 . S
C1295 C1293 1.327 . S
C1296 C1284 1.349 . S
C1296 H1290 0.950 . S
C1296 C1297 1.327 . S
C1297 H1291 0.950 . S
C1297 C1296 1.327 . S
C1297 C1301 1.429 . S
C1298 C1281 1.574 . S
C1298 H1292 0.949 . S
C1298 C1302 1.368 . S
C1299 C1280 1.429 . S
C1299 C1293 1.429 . S
C1299 C1300 1.523 . S
C1300 C1281 1.368 . S
C1300 C1294 1.368 . S
C1300 C1299 1.523 . S
C1301 C1285 1.429 . S
C1301 C1297 1.429 . S
C1301 C1302 1.523 . S
C1302 C1286 1.368 . S
C1302 C1298 1.368 . S
C1302 C1301 1.523 . S
H1303 C1278 0.950 . S
H1304 C1280 0.950 . S
H1305 C1281 0.949 . S
H1306 C1283 0.950 . S
H1307 C1285 0.950 . S
C1308 C1309 1.349 . S
C1308 C1310 1.327 . S
C1308 H1333 0.950 . S
C1309 C1308 1.349 . S
C1309 C1325 1.404 . S
C1310 C1308 1.327 . S
C1310 C1329 1.429 . S
C1310 H1334 0.950 . S
C1311 C1328 1.574 . S
C1311 C1330 1.368 1_545 S
C1311 H1335 0.949 . S
H1312 C1316 0.949 . S
C1313 C1314 1.349 . S
C1313 C1315 1.327 . S
C1313 H1336 0.950 . S
C1314 C1313 1.349 . S
C1314 C1326 1.404 . S
C1315 C1313 1.327 . S
C1315 C1331 1.429 . S
C1315 H1337 0.950 . S
C1316 H1312 0.949 . S
C1316 C1324 1.574 . S
C1316 C1332 1.368 1_565 S
H1317 C1325 0.906 1_545 S
H1318 C1323 0.950 . S
H1319 C1324 0.949 . S
H1320 C1326 0.906 1_565 S
H1321 C1327 0.950 . S
H1322 C1328 0.949 . S
C1323 H1318 0.950 . S
C1323 C1325 1.317 1_545 S
C1323 C1329 1.429 1_545 S
C1324 C1316 1.574 . S
C1324 H1319 0.949 . S
C1324 C1330 1.368 . S
C1325 C1309 1.404 . S
C1325 H1317 0.906 1_565 S
C1325 C1323 1.317 1_565 S
C1326 C1314 1.404 . S
C1326 H1320 0.906 1_545 S
C1326 C1327 1.317 1_545 S
C1327 H1321 0.950 . S
C1327 C1326 1.317 1_565 S
C1327 C1331 1.429 1_565 S
C1328 C1311 1.574 . S
C1328 H1322 0.949 . S
C1328 C1332 1.368 . S
C1329 C1310 1.429 . S
C1329 C1323 1.429 1_565 S
C1329 C1330 1.523 . S
C1330 C1311 1.368 1_565 S
C1330 C1324 1.368 . S
C1330 C1329 1.523 . S
C1331 C1315 1.429 . S
C1331 C1327 1.429 1_545 S
C1331 C1332 1.523 . S
C1332 C1316 1.368 1_545 S
C1332 C1328 1.368 . S
C1332 C1331 1.523 . S
H1333 C1308 0.950 . S
H1334 C1310 0.950 . S
H1335 C1311 0.949 . S
H1336 C1313 0.950 . S
H1337 C1315 0.950 . S
C1338 C1339 1.349 . S
C1338 C1340 1.327 . S
C1338 H1363 0.950 . S
C1339 C1338 1.349 . S
C1339 C1355 1.349 . S
C1340 C1338 1.327 . S
C1340 C1359 1.429 . S
C1340 H1364 0.950 . S
C1341 C1358 1.574 1_655 S
C1341 C1360 1.368 . S
C1341 H1365 0.949 . S
H1342 C1346 0.949 . S
C1343 C1344 1.349 . S
C1343 C1345 1.327 . S
C1343 H1366 0.950 . S
C1344 C1343 1.349 . S
C1344 C1356 1.349 . S
C1345 C1343 1.327 . S
C1345 C1361 1.429 . S
C1345 H1367 0.950 . S
C1346 H1342 0.949 . S
C1346 C1354 1.574 1_455 S
C1346 C1362 1.368 . S
H1347 C1355 0.950 . S
H1348 C1353 0.950 . S
H1349 C1354 0.949 . S
H1350 C1356 0.950 . S
H1351 C1357 0.950 . S
H1352 C1358 0.949 . S
C1353 H1348 0.950 . S
C1353 C1355 1.327 . S
C1353 C1359 1.429 . S
C1354 C1346 1.574 1_655 S
C1354 H1349 0.949 . S
C1354 C1360 1.368 . S
C1355 C1339 1.349 . S
C1355 H1347 0.950 . S
C1355 C1353 1.327 . S
C1356 C1344 1.349 . S
C1356 H1350 0.950 . S
C1356 C1357 1.327 . S
C1357 H1351 0.950 . S
C1357 C1356 1.327 . S
C1357 C1361 1.429 . S
C1358 C1341 1.574 1_455 S
C1358 H1352 0.949 . S
C1358 C1362 1.368 . S
C1359 C1340 1.429 . S
C1359 C1353 1.429 . S
C1359 C1360 1.523 . S
C1360 C1341 1.368 . S
C1360 C1354 1.368 . S
C1360 C1359 1.523 . S
C1361 C1345 1.429 . S
C1361 C1357 1.429 . S
C1361 C1362 1.523 . S
C1362 C1346 1.368 . S
C1362 C1358 1.368 . S
C1362 C1361 1.523 . S
H1363 C1338 0.950 . S
H1364 C1340 0.950 . S
H1365 C1341 0.949 . S
H1366 C1343 0.950 . S
H1367 C1345 0.950 . S
C1368 C1369 1.349 . S
C1368 C1370 1.327 . S
C1368 H1393 0.950 . S
C1369 C1368 1.349 . S
C1369 C1385 1.349 . S
C1370 C1368 1.327 . S
C1370 C1389 1.429 . S
C1370 H1394 0.950 . S
C1371 C1388 1.574 . S
C1371 C1390 1.368 . S
C1371 H1395 0.949 . S
H1372 C1376 0.949 . S
C1373 C1374 1.349 . S
C1373 C1375 1.327 . S
C1373 H1396 0.950 . S
C1374 C1373 1.349 . S
C1374 C1386 1.349 . S
C1375 C1373 1.327 . S
C1375 C1391 1.429 . S
C1375 H1397 0.950 . S
C1376 H1372 0.949 . S
C1376 C1384 1.574 . S
C1376 C1392 1.368 . S
H1377 C1385 0.950 . S
H1378 C1383 0.950 . S
H1379 C1384 0.949 . S
H1380 C1386 0.950 . S
H1381 C1387 0.950 . S
H1382 C1388 0.949 . S
C1383 H1378 0.950 . S
C1383 C1385 1.327 . S
C1383 C1389 1.429 . S
C1384 C1376 1.574 . S
C1384 H1379 0.949 . S
C1384 C1390 1.368 . S
C1385 C1369 1.349 . S
C1385 H1377 0.950 . S
C1385 C1383 1.327 . S
C1386 C1374 1.349 . S
C1386 H1380 0.950 . S
C1386 C1387 1.327 . S
C1387 H1381 0.950 . S
C1387 C1386 1.327 . S
C1387 C1391 1.429 . S
C1388 C1371 1.574 . S
C1388 H1382 0.949 . S
C1388 C1392 1.368 . S
C1389 C1370 1.429 . S
C1389 C1383 1.429 . S
C1389 C1390 1.523 . S
C1390 C1371 1.368 . S
C1390 C1384 1.368 . S
C1390 C1389 1.523 . S
C1391 C1375 1.429 . S
C1391 C1387 1.429 . S
C1391 C1392 1.523 . S
C1392 C1376 1.368 . S
C1392 C1388 1.368 . S
C1392 C1391 1.523 . S
H1393 C1368 0.950 . S
H1394 C1370 0.950 . S
H1395 C1371 0.949 . S
H1396 C1373 0.950 . S
H1397 C1375 0.950 . S
C1398 C1399 1.349 . S
C1398 C1400 1.327 . S
C1398 H1423 0.950 . S
C1399 C1398 1.349 . S
C1399 C1415 1.349 . S
C1400 C1398 1.327 . S
C1400 C1419 1.429 . S
C1400 H1424 0.950 . S
C1401 C1418 1.574 . S
C1401 C1420 1.368 . S
C1401 H1425 0.949 . S
H1402 C1406 0.949 . S
C1403 C1404 1.349 . S
C1403 C1405 1.327 . S
C1403 H1426 0.950 . S
C1404 C1403 1.349 . S
C1404 C1416 1.349 . S
C1405 C1403 1.327 . S
C1405 C1421 1.429 . S
C1405 H1427 0.950 . S
C1406 H1402 0.949 . S
C1406 C1414 1.574 . S
C1406 C1422 1.368 . S
H1407 C1415 0.950 . S
H1408 C1413 0.950 . S
H1409 C1414 0.949 . S
H1410 C1416 0.950 . S
H1411 C1417 0.950 . S
H1412 C1418 0.949 . S
C1413 H1408 0.950 . S
C1413 C1415 1.327 . S
C1413 C1419 1.429 . S
C1414 C1406 1.574 . S
C1414 H1409 0.949 . S
C1414 C1420 1.368 . S
C1415 C1399 1.349 . S
C1415 H1407 0.950 . S
C1415 C1413 1.327 . S
C1416 C1404 1.349 . S
C1416 H1410 0.950 . S
C1416 C1417 1.327 . S
C1417 H1411 0.950 . S
C1417 C1416 1.327 . S
C1417 C1421 1.429 . S
C1418 C1401 1.574 . S
C1418 H1412 0.949 . S
C1418 C1422 1.368 . S
C1419 C1400 1.429 . S
C1419 C1413 1.429 . S
C1419 C1420 1.523 . S
C1420 C1401 1.368 . S
C1420 C1414 1.368 . S
C1420 C1419 1.523 . S
C1421 C1405 1.429 . S
C1421 C1417 1.429 . S
C1421 C1422 1.523 . S
C1422 C1406 1.368 . S
C1422 C1418 1.368 . S
C1422 C1421 1.523 . S
H1423 C1398 0.950 . S
H1424 C1400 0.950 . S
H1425 C1401 0.949 . S
H1426 C1403 0.950 . S
H1427 C1405 0.950 . S
C1428 C1429 1.349 . S
C1428 C1430 1.327 . S
C1428 H1453 0.950 . S
C1429 C1428 1.349 . S
C1429 C1445 1.349 . S
C1430 C1428 1.327 . S
C1430 C1449 1.429 . S
C1430 H1454 0.950 . S
C1431 C1448 1.574 . S
C1431 C1450 1.368 . S
C1431 H1455 0.949 . S
H1432 C1436 0.949 . S
C1433 C1434 1.349 . S
C1433 C1435 1.327 . S
C1433 H1456 0.950 . S
C1434 C1433 1.349 . S
C1434 C1446 1.349 . S
C1435 C1433 1.327 . S
C1435 C1451 1.429 . S
C1435 H1457 0.950 . S
C1436 H1432 0.949 . S
C1436 C1444 1.574 . S
C1436 C1452 1.368 . S
H1437 C1445 0.950 . S
H1438 C1443 0.950 . S
H1439 C1444 0.949 . S
H1440 C1446 0.950 . S
H1441 C1447 0.950 . S
H1442 C1448 0.949 . S
C1443 H1438 0.950 . S
C1443 C1445 1.327 . S
C1443 C1449 1.429 . S
C1444 C1436 1.574 . S
C1444 H1439 0.949 . S
C1444 C1450 1.368 . S
C1445 C1429 1.349 . S
C1445 H1437 0.950 . S
C1445 C1443 1.327 . S
C1446 C1434 1.349 . S
C1446 H1440 0.950 . S
C1446 C1447 1.327 . S
C1447 H1441 0.950 . S
C1447 C1446 1.327 . S
C1447 C1451 1.429 . S
C1448 C1431 1.574 . S
C1448 H1442 0.949 . S
C1448 C1452 1.368 . S
C1449 C1430 1.429 . S
C1449 C1443 1.429 . S
C1449 C1450 1.523 . S
C1450 C1431 1.368 . S
C1450 C1444 1.368 . S
C1450 C1449 1.523 . S
C1451 C1435 1.429 . S
C1451 C1447 1.429 . S
C1451 C1452 1.523 . S
C1452 C1436 1.368 . S
C1452 C1448 1.368 . S
C1452 C1451 1.523 . S
H1453 C1428 0.950 . S
H1454 C1430 0.950 . S
H1455 C1431 0.949 . S
H1456 C1433 0.950 . S
H1457 C1435 0.950 . S
C1458 C1459 1.349 . S
C1458 C1460 1.327 . S
C1458 H1483 0.950 . S
C1459 C1458 1.349 . S
C1459 C1475 1.349 . S
C1460 C1458 1.327 . S
C1460 C1479 1.429 . S
C1460 H1484 0.950 . S
C1461 C1478 1.574 . S
C1461 C1480 1.368 . S
C1461 H1485 0.949 . S
H1462 C1466 0.949 . S
C1463 C1464 1.349 1_554 S
C1463 C1465 1.327 . S
C1463 H1486 0.950 1_554 S
C1464 C1463 1.349 1_556 S
C1464 C1476 1.349 1_556 S
C1465 C1463 1.327 . S
C1465 C1481 1.429 . S
C1465 H1487 0.950 . S
C1466 H1462 0.949 . S
C1466 C1474 1.574 . S
C1466 C1482 1.368 . S
H1467 C1475 0.950 . S
H1468 C1473 0.950 . S
H1469 C1474 0.949 . S
H1470 C1476 0.950 1_556 S
H1471 C1477 0.950 . S
H1472 C1478 0.949 . S
C1473 H1468 0.950 . S
C1473 C1475 1.327 . S
C1473 C1479 1.429 . S
C1474 C1466 1.574 . S
C1474 H1469 0.949 . S
C1474 C1480 1.368 . S
C1475 C1459 1.349 . S
C1475 H1467 0.950 . S
C1475 C1473 1.327 . S
C1476 C1464 1.349 1_554 S
C1476 H1470 0.950 1_554 S
C1476 C1477 1.327 . S
C1477 H1471 0.950 . S
C1477 C1476 1.327 . S
C1477 C1481 1.429 . S
C1478 C1461 1.574 . S
C1478 H1472 0.949 . S
C1478 C1482 1.368 . S
C1479 C1460 1.429 . S
C1479 C1473 1.429 . S
C1479 C1480 1.523 . S
C1480 C1461 1.368 . S
C1480 C1474 1.368 . S
C1480 C1479 1.523 . S
C1481 C1465 1.429 . S
C1481 C1477 1.429 . S
C1481 C1482 1.523 . S
C1482 C1466 1.368 . S
C1482 C1478 1.368 . S
C1482 C1481 1.523 . S
H1483 C1458 0.950 . S
H1484 C1460 0.950 . S
H1485 C1461 0.949 . S
H1486 C1463 0.950 1_556 S
H1487 C1465 0.950 . S
C1488 C1489 1.349 . S
C1488 C1490 1.327 . S
C1488 H1513 0.950 . S
C1489 C1488 1.349 . S
C1489 C1505 1.349 . S
C1490 C1488 1.327 . S
C1490 C1509 1.429 . S
C1490 H1514 0.950 . S
C1491 C1508 1.574 . S
C1491 C1510 1.368 . S
C1491 H1515 0.949 . S
H1492 C1496 0.949 . S
C1493 C1494 1.349 1_554 S
C1493 C1495 1.327 . S
C1493 H1516 0.950 1_554 S
C1494 C1493 1.349 1_556 S
C1494 C1506 1.349 1_556 S
C1495 C1493 1.327 . S
C1495 C1511 1.429 . S
C1495 H1517 0.950 . S
C1496 H1492 0.949 . S
C1496 C1504 1.574 . S
C1496 C1512 1.368 . S
H1497 C1505 0.950 . S
H1498 C1503 0.950 . S
H1499 C1504 0.949 . S
H1500 C1506 0.950 1_556 S
H1501 C1507 0.950 . S
H1502 C1508 0.949 . S
C1503 H1498 0.950 . S
C1503 C1505 1.327 . S
C1503 C1509 1.429 . S
C1504 C1496 1.574 . S
C1504 H1499 0.949 . S
C1504 C1510 1.368 . S
C1505 C1489 1.349 . S
C1505 H1497 0.950 . S
C1505 C1503 1.327 . S
C1506 C1494 1.349 1_554 S
C1506 H1500 0.950 1_554 S
C1506 C1507 1.327 . S
C1507 H1501 0.950 . S
C1507 C1506 1.327 . S
C1507 C1511 1.429 . S
C1508 C1491 1.574 . S
C1508 H1502 0.949 . S
C1508 C1512 1.368 . S
C1509 C1490 1.429 . S
C1509 C1503 1.429 . S
C1509 C1510 1.523 . S
C1510 C1491 1.368 . S
C1510 C1504 1.368 . S
C1510 C1509 1.523 . S
C1511 C1495 1.429 . S
C1511 C1507 1.429 . S
C1511 C1512 1.523 . S
C1512 C1496 1.368 . S
C1512 C1508 1.368 . S
C1512 C1511 1.523 . S
H1513 C1488 0.950 . S
H1514 C1490 0.950 . S
H1515 C1491 0.949 . S
H1516 C1493 0.950 1_556 S
H1517 C1495 0.950 . S
C1518 C1519 1.349 1_554 S
C1518 C1520 1.327 . S
C1518 H1543 0.950 1_554 S
C1519 C1518 1.349 1_556 S
C1519 C1535 1.349 1_556 S
C1520 C1518 1.327 . S
C1520 C1539 1.429 . S
C1520 H1544 0.950 . S
C1521 C1538 1.574 . S
C1521 C1540 1.368 . S
C1521 H1545 0.949 . S
H1522 C1526 0.949 . S
C1523 C1524 1.349 . S
C1523 C1525 1.327 . S
C1523 H1546 0.950 . S
C1524 C1523 1.349 . S
C1524 C1536 1.349 . S
C1525 C1523 1.327 . S
C1525 C1541 1.429 . S
C1525 H1547 0.950 . S
C1526 H1522 0.949 . S
C1526 C1534 1.574 . S
C1526 C1542 1.368 . S
H1527 C1535 0.950 1_556 S
H1528 C1533 0.950 . S
H1529 C1534 0.949 . S
H1530 C1536 0.950 . S
H1531 C1537 0.950 . S
H1532 C1538 0.949 . S
C1533 H1528 0.950 . S
C1533 C1535 1.327 . S
C1533 C1539 1.429 . S
C1534 C1526 1.574 . S
C1534 H1529 0.949 . S
C1534 C1540 1.368 . S
C1535 C1519 1.349 1_554 S
C1535 H1527 0.950 1_554 S
C1535 C1533 1.327 . S
C1536 C1524 1.349 . S
C1536 H1530 0.950 . S
C1536 C1537 1.327 . S
C1537 H1531 0.950 . S
C1537 C1536 1.327 . S
C1537 C1541 1.429 . S
C1538 C1521 1.574 . S
C1538 H1532 0.949 . S
C1538 C1542 1.368 . S
C1539 C1520 1.429 . S
C1539 C1533 1.429 . S
C1539 C1540 1.523 . S
C1540 C1521 1.368 . S
C1540 C1534 1.368 . S
C1540 C1539 1.523 . S
C1541 C1525 1.429 . S
C1541 C1537 1.429 . S
C1541 C1542 1.523 . S
C1542 C1526 1.368 . S
C1542 C1538 1.368 . S
C1542 C1541 1.523 . S
H1543 C1518 0.950 1_556 S
H1544 C1520 0.950 . S
H1545 C1521 0.949 . S
H1546 C1523 0.950 . S
H1547 C1525 0.950 . S
C1548 C1549 1.349 1_556 S
C1548 C1550 1.327 . S
C1548 H1573 0.950 1_556 S
C1549 C1548 1.349 1_554 S
C1549 C1565 1.349 1_554 S
C1550 C1548 1.327 . S
C1550 C1569 1.429 . S
C1550 H1574 0.950 . S
C1551 C1568 1.574 . S
C1551 C1570 1.368 . S
C1551 H1575 0.949 . S
H1552 C1556 0.949 . S
C1553 C1554 1.349 . S
C1553 C1555 1.327 . S
C1553 H1576 0.950 . S
C1554 C1553 1.349 . S
C1554 C1566 1.349 . S
C1555 C1553 1.327 . S
C1555 C1571 1.429 . S
C1555 H1577 0.950 . S
C1556 H1552 0.949 . S
C1556 C1564 1.574 . S
C1556 C1572 1.368 . S
H1557 C1565 0.950 1_554 S
H1558 C1563 0.950 . S
H1559 C1564 0.949 . S
H1560 C1566 0.950 . S
H1561 C1567 0.950 . S
H1562 C1568 0.949 . S
C1563 H1558 0.950 . S
C1563 C1565 1.327 . S
C1563 C1569 1.429 . S
C1564 C1556 1.574 . S
C1564 H1559 0.949 . S
C1564 C1570 1.368 . S
C1565 C1549 1.349 1_556 S
C1565 H1557 0.950 1_556 S
C1565 C1563 1.327 . S
C1566 C1554 1.349 . S
C1566 H1560 0.950 . S
C1566 C1567 1.327 . S
C1567 H1561 0.950 . S
C1567 C1566 1.327 . S
C1567 C1571 1.429 . S
C1568 C1551 1.574 . S
C1568 H1562 0.949 . S
C1568 C1572 1.368 . S
C1569 C1550 1.429 . S
C1569 C1563 1.429 . S
C1569 C1570 1.523 . S
C1570 C1551 1.368 . S
C1570 C1564 1.368 . S
C1570 C1569 1.523 . S
C1571 C1555 1.429 . S
C1571 C1567 1.429 . S
C1571 C1572 1.523 . S
C1572 C1556 1.368 . S
C1572 C1568 1.368 . S
C1572 C1571 1.523 . S
H1573 C1548 0.950 1_554 S
H1574 C1550 0.950 . S
H1575 C1551 0.949 . S
H1576 C1553 0.950 . S
H1577 C1555 0.950 . S
C1578 C1579 1.349 1_556 S
C1578 C1580 1.327 . S
C1578 H1603 0.950 . S
C1579 C1578 1.349 1_554 S
C1579 C1595 1.349 1_554 S
C1580 C1578 1.327 . S
C1580 C1599 1.429 . S
C1580 H1604 0.950 . S
C1581 C1598 1.574 . S
C1581 C1600 1.368 . S
C1581 H1605 0.949 . S
H1582 C1586 0.949 . S
C1583 C1584 1.349 . S
C1583 C1585 1.327 . S
C1583 H1606 0.950 . S
C1584 C1583 1.349 . S
C1584 C1596 1.349 . S
C1585 C1583 1.327 . S
C1585 C1601 1.429 . S
C1585 H1607 0.950 . S
C1586 H1582 0.949 . S
C1586 C1594 1.574 . S
C1586 C1602 1.368 . S
H1587 C1595 0.950 1_554 S
H1588 C1593 0.950 . S
H1589 C1594 0.949 . S
H1590 C1596 0.950 . S
H1591 C1597 0.950 . S
H1592 C1598 0.949 . S
C1593 H1588 0.950 . S
C1593 C1595 1.327 . S
C1593 C1599 1.429 . S
C1594 C1586 1.574 . S
C1594 H1589 0.949 . S
C1594 C1600 1.368 . S
C1595 C1579 1.349 1_556 S
C1595 H1587 0.950 1_556 S
C1595 C1593 1.327 . S
C1596 C1584 1.349 . S
C1596 H1590 0.950 . S
C1596 C1597 1.327 . S
C1597 H1591 0.950 . S
C1597 C1596 1.327 . S
C1597 C1601 1.429 . S
C1598 C1581 1.574 . S
C1598 H1592 0.949 . S
C1598 C1602 1.368 . S
C1599 C1580 1.429 . S
C1599 C1593 1.429 . S
C1599 C1600 1.523 . S
C1600 C1581 1.368 . S
C1600 C1594 1.368 . S
C1600 C1599 1.523 . S
C1601 C1585 1.429 . S
C1601 C1597 1.429 . S
C1601 C1602 1.523 . S
C1602 C1586 1.368 . S
C1602 C1598 1.368 . S
C1602 C1601 1.523 . S
H1603 C1578 0.950 . S
H1604 C1580 0.950 . S
H1605 C1581 0.949 . S
H1606 C1583 0.950 . S
H1607 C1585 0.950 . S
C1608 C1609 1.349 1_556 S
C1608 C1610 1.327 . S
C1608 H1633 0.950 . S
C1609 C1608 1.349 1_554 S
C1609 C1625 1.331 1_554 S
C1610 C1608 1.327 . S
C1610 C1629 1.429 . S
C1610 H1634 0.950 . S
C1611 C1628 1.574 . S
C1611 C1630 1.368 . S
C1611 H1635 0.949 . S
H1612 C1616 0.949 . S
C1613 C1614 1.349 . S
C1613 C1615 1.327 . S
C1613 H1636 0.950 . S
C1614 C1613 1.349 . S
C1614 C1626 1.349 . S
C1615 C1613 1.327 . S
C1615 C1631 1.429 . S
C1615 H1637 0.950 . S
C1616 H1612 0.949 . S
C1616 C1624 1.574 . S
C1616 C1632 1.368 . S
H1617 C1625 0.915 1_554 S
H1618 C1623 0.950 . S
H1619 C1624 0.949 . S
H1620 C1626 0.950 . S
H1621 C1627 0.950 . S
H1622 C1628 0.949 . S
C1623 H1618 0.950 . S
C1623 C1625 1.381 . S
C1623 C1629 1.429 . S
C1624 C1616 1.574 . S
C1624 H1619 0.949 . S
C1624 C1630 1.368 . S
C1625 C1609 1.331 1_556 S
C1625 H1617 0.915 1_556 S
C1625 C1623 1.381 . S
C1626 C1614 1.349 . S
C1626 H1620 0.950 . S
C1626 C1627 1.327 . S
C1627 H1621 0.950 . S
C1627 C1626 1.327 . S
C1627 C1631 1.429 . S
C1628 C1611 1.574 . S
C1628 H1622 0.949 . S
C1628 C1632 1.368 . S
C1629 C1610 1.429 . S
C1629 C1623 1.429 . S
C1629 C1630 1.523 . S
C1630 C1611 1.368 . S
C1630 C1624 1.368 . S
C1630 C1629 1.523 . S
C1631 C1615 1.429 . S
C1631 C1627 1.429 . S
C1631 C1632 1.523 . S
C1632 C1616 1.368 . S
C1632 C1628 1.368 . S
C1632 C1631 1.523 . S
H1633 C1608 0.950 . S
H1634 C1610 0.950 . S
H1635 C1611 0.949 . S
H1636 C1613 0.950 . S
H1637 C1615 0.950 . S
C1638 C1639 1.349 . S
C1638 C1640 1.327 . S
C1638 H1663 0.950 . S
C1639 C1638 1.349 . S
C1639 C1655 1.349 . S
C1640 C1638 1.327 . S
C1640 C1659 1.429 . S
C1640 H1664 0.950 . S
C1641 C1658 1.574 . S
C1641 C1660 1.368 . S
C1641 H1665 0.949 . S
H1642 C1646 0.949 . S
C1643 C1644 1.349 . S
C1643 C1645 1.327 . S
C1643 H1666 0.950 . S
C1644 C1643 1.349 . S
C1644 C1656 1.349 . S
C1645 C1643 1.327 . S
C1645 C1661 1.429 . S
C1645 H1667 0.950 . S
C1646 H1642 0.949 . S
C1646 C1654 1.574 . S
C1646 C1662 1.368 . S
H1647 C1655 0.950 . S
H1648 C1653 0.950 . S
H1649 C1654 0.949 . S
H1650 C1656 0.950 . S
H1651 C1657 0.950 . S
H1652 C1658 0.949 . S
C1653 H1648 0.950 . S
C1653 C1655 1.327 . S
C1653 C1659 1.429 . S
C1654 C1646 1.574 . S
C1654 H1649 0.949 . S
C1654 C1660 1.368 . S
C1655 C1639 1.349 . S
C1655 H1647 0.950 . S
C1655 C1653 1.327 . S
C1656 C1644 1.349 . S
C1656 H1650 0.950 . S
C1656 C1657 1.327 . S
C1657 H1651 0.950 . S
C1657 C1656 1.327 . S
C1657 C1661 1.429 . S
C1658 C1641 1.574 . S
C1658 H1652 0.949 . S
C1658 C1662 1.368 . S
C1659 C1640 1.429 . S
C1659 C1653 1.429 . S
C1659 C1660 1.523 . S
C1660 C1641 1.368 . S
C1660 C1654 1.368 . S
C1660 C1659 1.523 . S
C1661 C1645 1.429 . S
C1661 C1657 1.429 . S
C1661 C1662 1.523 . S
C1662 C1646 1.368 . S
C1662 C1658 1.368 . S
C1662 C1661 1.523 . S
H1663 C1638 0.950 . S
H1664 C1640 0.950 . S
H1665 C1641 0.949 . S
H1666 C1643 0.950 . S
H1667 C1645 0.950 . S
C1668 C1669 1.349 . S
C1668 C1670 1.327 . S
C1668 H1693 0.950 . S
C1669 C1668 1.349 . S
C1669 C1685 1.349 . S
C1670 C1668 1.327 . S
C1670 C1689 1.429 . S
C1670 H1694 0.950 . S
C1671 C1688 1.574 . S
C1671 C1690 1.368 . S
C1671 H1695 0.949 . S
H1672 C1676 0.949 . S
C1673 C1674 1.349 . S
C1673 C1675 1.327 . S
C1673 H1696 0.950 . S
C1674 C1673 1.349 . S
C1674 C1686 1.349 . S
C1675 C1673 1.327 . S
C1675 C1691 1.429 . S
C1675 H1697 0.950 . S
C1676 H1672 0.949 . S
C1676 C1684 1.574 . S
C1676 C1692 1.368 . S
H1677 C1685 0.950 . S
H1678 C1683 0.950 . S
H1679 C1684 0.949 . S
H1680 C1686 0.950 . S
H1681 C1687 0.950 . S
H1682 C1688 0.949 . S
C1683 H1678 0.950 . S
C1683 C1685 1.327 . S
C1683 C1689 1.429 . S
C1684 C1676 1.574 . S
C1684 H1679 0.949 . S
C1684 C1690 1.368 . S
C1685 C1669 1.349 . S
C1685 H1677 0.950 . S
C1685 C1683 1.327 . S
C1686 C1674 1.349 . S
C1686 H1680 0.950 . S
C1686 C1687 1.327 . S
C1687 H1681 0.950 . S
C1687 C1686 1.327 . S
C1687 C1691 1.429 . S
C1688 C1671 1.574 . S
C1688 H1682 0.949 . S
C1688 C1692 1.368 . S
C1689 C1670 1.429 . S
C1689 C1683 1.429 . S
C1689 C1690 1.523 . S
C1690 C1671 1.368 . S
C1690 C1684 1.368 . S
C1690 C1689 1.523 . S
C1691 C1675 1.429 . S
C1691 C1687 1.429 . S
C1691 C1692 1.523 . S
C1692 C1676 1.368 . S
C1692 C1688 1.368 . S
C1692 C1691 1.523 . S
H1693 C1668 0.950 . S
H1694 C1670 0.950 . S
H1695 C1671 0.949 . S
H1696 C1673 0.950 . S
H1697 C1675 0.950 . S
C1698 C1699 1.349 . S
C1698 C1700 1.327 . S
C1698 H1723 0.950 . S
C1699 C1698 1.349 . S
C1699 C1715 1.349 . S
C1700 C1698 1.327 . S
C1700 C1719 1.429 . S
C1700 H1724 0.950 . S
C1701 C1718 1.574 . S
C1701 C1720 1.368 . S
C1701 H1725 0.949 . S
H1702 C1706 0.949 . S
C1703 C1704 1.349 . S
C1703 C1705 1.327 . S
C1703 H1726 0.950 . S
C1704 C1703 1.349 . S
C1704 C1716 1.349 . S
C1705 C1703 1.327 . S
C1705 C1721 1.429 . S
C1705 H1727 0.950 . S
C1706 H1702 0.949 . S
C1706 C1714 1.574 . S
C1706 C1722 1.368 . S
H1707 C1715 0.950 . S
H1708 C1713 0.950 . S
H1709 C1714 0.949 . S
H1710 C1716 0.950 . S
H1711 C1717 0.950 . S
H1712 C1718 0.949 . S
C1713 H1708 0.950 . S
C1713 C1715 1.327 . S
C1713 C1719 1.429 . S
C1714 C1706 1.574 . S
C1714 H1709 0.949 . S
C1714 C1720 1.368 . S
C1715 C1699 1.349 . S
C1715 H1707 0.950 . S
C1715 C1713 1.327 . S
C1716 C1704 1.349 . S
C1716 H1710 0.950 . S
C1716 C1717 1.327 . S
C1717 H1711 0.950 . S
C1717 C1716 1.327 . S
C1717 C1721 1.429 . S
C1718 C1701 1.574 . S
C1718 H1712 0.949 . S
C1718 C1722 1.368 . S
C1719 C1700 1.429 . S
C1719 C1713 1.429 . S
C1719 C1720 1.523 . S
C1720 C1701 1.368 . S
C1720 C1714 1.368 . S
C1720 C1719 1.523 . S
C1721 C1705 1.429 . S
C1721 C1717 1.429 . S
C1721 C1722 1.523 . S
C1722 C1706 1.368 . S
C1722 C1718 1.368 . S
C1722 C1721 1.523 . S
H1723 C1698 0.950 . S
H1724 C1700 0.950 . S
H1725 C1701 0.949 . S
H1726 C1703 0.950 . S
H1727 C1705 0.950 . S
C1728 C1729 1.349 . S
C1728 C1730 1.327 . S
C1728 H1753 0.950 . S
C1729 C1728 1.349 . S
C1729 C1745 1.349 . S
C1730 C1728 1.327 . S
C1730 C1749 1.429 . S
C1730 H1754 0.950 . S
C1731 C1748 1.574 . S
C1731 C1750 1.368 . S
C1731 H1755 0.949 . S
H1732 C1736 0.949 . S
C1733 C1734 1.349 . S
C1733 C1735 1.327 . S
C1733 H1756 0.950 . S
C1734 C1733 1.349 . S
C1734 C1746 1.349 . S
C1735 C1733 1.327 . S
C1735 C1751 1.429 . S
C1735 H1757 0.950 . S
C1736 H1732 0.949 . S
C1736 C1744 1.574 . S
C1736 C1752 1.368 . S
H1737 C1745 0.950 . S
H1738 C1743 0.950 . S
H1739 C1744 0.949 . S
H1740 C1746 0.950 . S
H1741 C1747 0.950 . S
H1742 C1748 0.949 . S
C1743 H1738 0.950 . S
C1743 C1745 1.327 . S
C1743 C1749 1.429 . S
C1744 C1736 1.574 . S
C1744 H1739 0.949 . S
C1744 C1750 1.368 . S
C1745 C1729 1.349 . S
C1745 H1737 0.950 . S
C1745 C1743 1.327 . S
C1746 C1734 1.349 . S
C1746 H1740 0.950 . S
C1746 C1747 1.327 . S
C1747 H1741 0.950 . S
C1747 C1746 1.327 . S
C1747 C1751 1.429 . S
C1748 C1731 1.574 . S
C1748 H1742 0.949 . S
C1748 C1752 1.368 . S
C1749 C1730 1.429 . S
C1749 C1743 1.429 . S
C1749 C1750 1.523 . S
C1750 C1731 1.368 . S
C1750 C1744 1.368 . S
C1750 C1749 1.523 . S
C1751 C1735 1.429 . S
C1751 C1747 1.429 . S
C1751 C1752 1.523 . S
C1752 C1736 1.368 . S
C1752 C1748 1.368 . S
C1752 C1751 1.523 . S
H1753 C1728 0.950 . S
H1754 C1730 0.950 . S
H1755 C1731 0.949 . S
H1756 C1733 0.950 . S
H1757 C1735 0.950 . S
C1758 C1759 1.349 . S
C1758 C1760 1.327 . S
C1758 H1783 0.950 . S
C1759 C1758 1.349 . S
C1759 C1775 1.349 . S
C1760 C1758 1.327 . S
C1760 C1779 1.429 . S
C1760 H1784 0.950 . S
C1761 C1778 1.574 . S
C1761 C1780 1.368 . S
C1761 H1785 0.949 . S
H1762 C1766 0.949 . S
C1763 C1764 1.349 1_565 S
C1763 C1765 1.327 . S
C1763 H1786 0.950 . S
C1764 C1763 1.349 1_545 S
C1764 C1776 1.349 . S
C1765 C1763 1.327 . S
C1765 C1781 1.429 . S
C1765 H1787 0.950 . S
C1766 H1762 0.949 . S
C1766 C1774 1.574 . S
C1766 C1782 1.368 . S
H1767 C1775 0.950 . S
H1768 C1773 0.950 . S
H1769 C1774 0.949 . S
H1770 C1776 0.950 . S
H1771 C1777 0.950 . S
H1772 C1778 0.949 . S
C1773 H1768 0.950 . S
C1773 C1775 1.327 . S
C1773 C1779 1.429 . S
C1774 C1766 1.574 . S
C1774 H1769 0.949 . S
C1774 C1780 1.368 . S
C1775 C1759 1.349 . S
C1775 H1767 0.950 . S
C1775 C1773 1.327 . S
C1776 C1764 1.349 . S
C1776 H1770 0.950 . S
C1776 C1777 1.327 . S
C1777 H1771 0.950 . S
C1777 C1776 1.327 . S
C1777 C1781 1.429 1_545 S
C1778 C1761 1.574 . S
C1778 H1772 0.949 . S
C1778 C1782 1.368 . S
C1779 C1760 1.429 . S
C1779 C1773 1.429 . S
C1779 C1780 1.523 . S
C1780 C1761 1.368 . S
C1780 C1774 1.368 . S
C1780 C1779 1.523 . S
C1781 C1765 1.429 . S
C1781 C1777 1.429 1_565 S
C1781 C1782 1.523 . S
C1782 C1766 1.368 . S
C1782 C1778 1.368 . S
C1782 C1781 1.523 . S
H1783 C1758 0.950 . S
H1784 C1760 0.950 . S
H1785 C1761 0.949 . S
H1786 C1763 0.950 . S
H1787 C1765 0.950 . S
C1788 C1789 1.349 . S
C1788 C1790 1.327 . S
C1788 H1813 0.950 . S
C1789 C1788 1.349 . S
C1789 C1805 1.349 1_655 S
C1790 C1788 1.327 . S
C1790 C1809 1.429 1_655 S
C1790 H1814 0.950 . S
C1791 C1808 1.574 . S
C1791 C1810 1.368 . S
C1791 H1815 0.949 . S
H1792 C1796 0.949 . S
C1793 C1794 1.349 . S
C1793 C1795 1.327 . S
C1793 H1816 0.950 . S
C1794 C1793 1.349 . S
C1794 C1806 1.349 . S
C1795 C1793 1.327 . S
C1795 C1811 1.429 . S
C1795 H1817 0.950 . S
C1796 H1792 0.949 . S
C1796 C1804 1.574 . S
C1796 C1812 1.368 . S
H1797 C1805 0.950 . S
H1798 C1803 0.950 . S
H1799 C1804 0.949 . S
H1800 C1806 0.950 . S
H1801 C1807 0.950 . S
H1802 C1808 0.949 . S
C1803 H1798 0.950 . S
C1803 C1805 1.327 . S
C1803 C1809 1.429 . S
C1804 C1796 1.574 . S
C1804 H1799 0.949 . S
C1804 C1810 1.368 . S
C1805 C1789 1.349 1_455 S
C1805 H1797 0.950 . S
C1805 C1803 1.327 . S
C1806 C1794 1.349 . S
C1806 H1800 0.950 . S
C1806 C1807 1.327 . S
C1807 H1801 0.950 . S
C1807 C1806 1.327 . S
C1807 C1811 1.429 . S
C1808 C1791 1.574 . S
C1808 H1802 0.949 . S
C1808 C1812 1.368 . S
C1809 C1790 1.429 1_455 S
C1809 C1803 1.429 . S
C1809 C1810 1.523 . S
C1810 C1791 1.368 . S
C1810 C1804 1.368 . S
C1810 C1809 1.523 . S
C1811 C1795 1.429 . S
C1811 C1807 1.429 . S
C1811 C1812 1.523 . S
C1812 C1796 1.368 . S
C1812 C1808 1.368 . S
C1812 C1811 1.523 . S
H1813 C1788 0.950 . S
H1814 C1790 0.950 . S
H1815 C1791 0.949 . S
H1816 C1793 0.950 . S
H1817 C1795 0.950 . S
C1818 C1819 1.349 . S
C1818 C1820 1.327 . S
C1818 H1843 0.950 . S
C1819 C1818 1.349 . S
C1819 C1835 1.349 . S
C1820 C1818 1.327 . S
C1820 C1839 1.429 . S
C1820 H1844 0.950 . S
C1821 C1838 1.574 . S
C1821 C1840 1.368 . S
C1821 H1845 0.949 . S
H1822 C1826 0.949 . S
C1823 C1824 1.349 . S
C1823 C1825 1.327 . S
C1823 H1846 0.950 . S
C1824 C1823 1.349 . S
C1824 C1836 1.349 . S
C1825 C1823 1.327 . S
C1825 C1841 1.429 . S
C1825 H1847 0.950 . S
C1826 H1822 0.949 . S
C1826 C1834 1.574 . S
C1826 C1842 1.368 . S
H1827 C1835 0.950 . S
H1828 C1833 0.950 . S
H1829 C1834 0.949 . S
H1830 C1836 0.950 . S
H1831 C1837 0.950 . S
H1832 C1838 0.949 . S
C1833 H1828 0.950 . S
C1833 C1835 1.327 . S
C1833 C1839 1.429 . S
C1834 C1826 1.574 . S
C1834 H1829 0.949 . S
C1834 C1840 1.368 . S
C1835 C1819 1.349 . S
C1835 H1827 0.950 . S
C1835 C1833 1.327 . S
C1836 C1824 1.349 . S
C1836 H1830 0.950 . S
C1836 C1837 1.327 . S
C1837 H1831 0.950 . S
C1837 C1836 1.327 . S
C1837 C1841 1.429 . S
C1838 C1821 1.574 . S
C1838 H1832 0.949 . S
C1838 C1842 1.368 . S
C1839 C1820 1.429 . S
C1839 C1833 1.429 . S
C1839 C1840 1.523 . S
C1840 C1821 1.368 . S
C1840 C1834 1.368 . S
C1840 C1839 1.523 . S
C1841 C1825 1.429 . S
C1841 C1837 1.429 . S
C1841 C1842 1.523 . S
C1842 C1826 1.368 . S
C1842 C1838 1.368 . S
C1842 C1841 1.523 . S
H1843 C1818 0.950 . S
H1844 C1820 0.950 . S
H1845 C1821 0.949 . S
H1846 C1823 0.950 . S
H1847 C1825 0.950 . S
C1848 C1849 1.349 1_545 S
C1848 C1850 1.327 . S
C1848 H1873 0.950 . S
C1849 C1848 1.349 1_565 S
C1849 C1865 1.349 . S
C1850 C1848 1.327 . S
C1850 C1869 1.429 . S
C1850 H1874 0.950 . S
C1851 C1868 1.574 . S
C1851 C1870 1.368 . S
C1851 H1875 0.949 . S
H1852 C1856 0.949 . S
C1853 C1854 1.349 . S
C1853 C1855 1.327 . S
C1853 H1876 0.950 . S
C1854 C1853 1.349 . S
C1854 C1866 1.349 . S
C1855 C1853 1.327 . S
C1855 C1871 1.429 . S
C1855 H1877 0.950 . S
C1856 H1852 0.949 . S
C1856 C1864 1.574 . S
C1856 C1872 1.368 . S
H1857 C1865 0.950 . S
H1858 C1863 0.950 . S
H1859 C1864 0.949 . S
H1860 C1866 0.950 . S
H1861 C1867 0.950 . S
H1862 C1868 0.949 . S
C1863 H1858 0.950 . S
C1863 C1865 1.327 . S
C1863 C1869 1.429 1_565 S
C1864 C1856 1.574 . S
C1864 H1859 0.949 . S
C1864 C1870 1.368 . S
C1865 C1849 1.349 . S
C1865 H1857 0.950 . S
C1865 C1863 1.327 . S
C1866 C1854 1.349 . S
C1866 H1860 0.950 . S
C1866 C1867 1.327 . S
C1867 H1861 0.950 . S
C1867 C1866 1.327 . S
C1867 C1871 1.429 . S
C1868 C1851 1.574 . S
C1868 H1862 0.949 . S
C1868 C1872 1.368 . S
C1869 C1850 1.429 . S
C1869 C1863 1.429 1_545 S
C1869 C1870 1.523 . S
C1870 C1851 1.368 . S
C1870 C1864 1.368 . S
C1870 C1869 1.523 . S
C1871 C1855 1.429 . S
C1871 C1867 1.429 . S
C1871 C1872 1.523 . S
C1872 C1856 1.368 . S
C1872 C1868 1.368 . S
C1872 C1871 1.523 . S
H1873 C1848 0.950 . S
H1874 C1850 0.950 . S
H1875 C1851 0.949 . S
H1876 C1853 0.950 . S
H1877 C1855 0.950 . S
C1878 C1879 1.349 . S
C1878 C1880 1.327 . S
C1878 H1903 0.950 . S
C1879 C1878 1.349 . S
C1879 C1895 1.349 . S
C1880 C1878 1.327 . S
C1880 C1899 1.429 . S
C1880 H1904 0.950 . S
C1881 C1898 1.574 . S
C1881 C1900 1.368 . S
C1881 H1905 0.949 . S
H1882 C1886 0.949 . S
C1883 C1884 1.349 . S
C1883 C1885 1.327 . S
C1883 H1906 0.950 . S
C1884 C1883 1.349 . S
C1884 C1896 1.349 1_455 S
C1885 C1883 1.327 . S
C1885 C1901 1.429 1_455 S
C1885 H1907 0.950 . S
C1886 H1882 0.949 . S
C1886 C1894 1.574 . S
C1886 C1902 1.368 . S
H1887 C1895 0.950 . S
H1888 C1893 0.950 . S
H1889 C1894 0.949 . S
H1890 C1896 0.950 . S
H1891 C1897 0.950 . S
H1892 C1898 0.949 . S
C1893 H1888 0.950 . S
C1893 C1895 1.327 . S
C1893 C1899 1.429 . S
C1894 C1886 1.574 . S
C1894 H1889 0.949 . S
C1894 C1900 1.368 . S
C1895 C1879 1.349 . S
C1895 H1887 0.950 . S
C1895 C1893 1.327 . S
C1896 C1884 1.349 1_655 S
C1896 H1890 0.950 . S
C1896 C1897 1.327 . S
C1897 H1891 0.950 . S
C1897 C1896 1.327 . S
C1897 C1901 1.429 . S
C1898 C1881 1.574 . S
C1898 H1892 0.949 . S
C1898 C1902 1.368 . S
C1899 C1880 1.429 . S
C1899 C1893 1.429 . S
C1899 C1900 1.523 . S
C1900 C1881 1.368 . S
C1900 C1894 1.368 . S
C1900 C1899 1.523 . S
C1901 C1885 1.429 1_655 S
C1901 C1897 1.429 . S
C1901 C1902 1.523 . S
C1902 C1886 1.368 . S
C1902 C1898 1.368 . S
C1902 C1901 1.523 . S
H1903 C1878 0.950 . S
H1904 C1880 0.950 . S
H1905 C1881 0.949 . S
H1906 C1883 0.950 . S
H1907 C1885 0.950 . S
C1908 C1909 1.349 . S
C1908 C1910 1.327 . S
C1908 H1933 0.950 . S
C1909 C1908 1.349 . S
C1909 C1925 1.349 . S
C1910 C1908 1.327 . S
C1910 C1929 1.429 . S
C1910 H1934 0.950 . S
C1911 C1928 1.574 . S
C1911 C1930 1.368 . S
C1911 H1935 0.949 . S
H1912 C1916 0.949 . S
C1913 C1914 1.349 . S
C1913 C1915 1.327 . S
C1913 H1936 0.950 . S
C1914 C1913 1.349 . S
C1914 C1926 1.349 . S
C1915 C1913 1.327 . S
C1915 C1931 1.429 . S
C1915 H1937 0.950 . S
C1916 H1912 0.949 . S
C1916 C1924 1.574 . S
C1916 C1932 1.368 . S
H1917 C1925 0.950 . S
H1918 C1923 0.950 . S
H1919 C1924 0.949 . S
H1920 C1926 0.950 . S
H1921 C1927 0.950 . S
H1922 C1928 0.949 . S
C1923 H1918 0.950 . S
C1923 C1925 1.327 . S
C1923 C1929 1.429 . S
C1924 C1916 1.574 . S
C1924 H1919 0.949 . S
C1924 C1930 1.368 . S
C1925 C1909 1.349 . S
C1925 H1917 0.950 . S
C1925 C1923 1.327 . S
C1926 C1914 1.349 . S
C1926 H1920 0.950 . S
C1926 C1927 1.327 . S
C1927 H1921 0.950 . S
C1927 C1926 1.327 . S
C1927 C1931 1.429 . S
C1928 C1911 1.574 . S
C1928 H1922 0.949 . S
C1928 C1932 1.368 . S
C1929 C1910 1.429 . S
C1929 C1923 1.429 . S
C1929 C1930 1.523 . S
C1930 C1911 1.368 . S
C1930 C1924 1.368 . S
C1930 C1929 1.523 . S
C1931 C1915 1.429 . S
C1931 C1927 1.429 . S
C1931 C1932 1.523 . S
C1932 C1916 1.368 . S
C1932 C1928 1.368 . S
C1932 C1931 1.523 . S
H1933 C1908 0.950 . S
H1934 C1910 0.950 . S
H1935 C1911 0.949 . S
H1936 C1913 0.950 . S
H1937 C1915 0.950 . S
C1938 C1939 1.349 . S
C1938 C1940 1.327 . S
C1938 H1963 0.950 . S
C1939 C1938 1.349 . S
C1939 C1955 1.349 . S
C1940 C1938 1.327 . S
C1940 C1959 1.429 . S
C1940 H1964 0.950 . S
C1941 C1958 1.574 . S
C1941 C1960 1.368 . S
C1941 H1965 0.949 . S
H1942 C1946 0.949 . S
C1943 C1944 1.349 1_545 S
C1943 C1945 1.327 . S
C1943 H1966 0.950 . S
C1944 C1943 1.349 1_565 S
C1944 C1956 1.349 . S
C1945 C1943 1.327 . S
C1945 C1961 1.429 . S
C1945 H1967 0.950 . S
C1946 H1942 0.949 . S
C1946 C1954 1.574 . S
C1946 C1962 1.368 . S
H1947 C1955 0.950 . S
H1948 C1953 0.950 . S
H1949 C1954 0.949 . S
H1950 C1956 0.950 . S
H1951 C1957 0.950 . S
H1952 C1958 0.949 . S
C1953 H1948 0.950 . S
C1953 C1955 1.327 . S
C1953 C1959 1.429 . S
C1954 C1946 1.574 . S
C1954 H1949 0.949 . S
C1954 C1960 1.368 . S
C1955 C1939 1.349 . S
C1955 H1947 0.950 . S
C1955 C1953 1.327 . S
C1956 C1944 1.349 . S
C1956 H1950 0.950 . S
C1956 C1957 1.327 . S
C1957 H1951 0.950 . S
C1957 C1956 1.327 . S
C1957 C1961 1.429 1_565 S
C1958 C1941 1.574 . S
C1958 H1952 0.949 . S
C1958 C1962 1.368 . S
C1959 C1940 1.429 . S
C1959 C1953 1.429 . S
C1959 C1960 1.523 . S
C1960 C1941 1.368 . S
C1960 C1954 1.368 . S
C1960 C1959 1.523 . S
C1961 C1945 1.429 . S
C1961 C1957 1.429 1_545 S
C1961 C1962 1.523 . S
C1962 C1946 1.368 . S
C1962 C1958 1.368 . S
C1962 C1961 1.523 . S
H1963 C1938 0.950 . S
H1964 C1940 0.950 . S
H1965 C1941 0.949 . S
H1966 C1943 0.950 . S
H1967 C1945 0.950 . S
C1968 C1969 1.349 . S
C1968 C1970 1.327 . S
C1968 H1993 0.950 . S
C1969 C1968 1.349 . S
C1969 C1985 1.349 . S
C1970 C1968 1.327 . S
C1970 C1989 1.429 . S
C1970 H1994 0.950 . S
C1971 C1988 1.574 . S
C1971 C1990 1.368 . S
C1971 H1995 0.949 . S
H1972 C1976 0.949 . S
C1973 C1974 1.349 . S
C1973 C1975 1.327 . S
C1973 H1996 0.950 . S
C1974 C1973 1.349 . S
C1974 C1986 1.349 1_455 S
C1975 C1973 1.327 . S
C1975 C1991 1.429 1_455 S
C1975 H1997 0.950 . S
C1976 H1972 0.949 . S
C1976 C1984 1.574 . S
C1976 C1992 1.368 . S
H1977 C1985 0.950 . S
H1978 C1983 0.950 . S
H1979 C1984 0.949 . S
H1980 C1986 0.950 . S
H1981 C1987 0.950 . S
H1982 C1988 0.949 . S
C1983 H1978 0.950 . S
C1983 C1985 1.327 . S
C1983 C1989 1.429 . S
C1984 C1976 1.574 . S
C1984 H1979 0.949 . S
C1984 C1990 1.368 . S
C1985 C1969 1.349 . S
C1985 H1977 0.950 . S
C1985 C1983 1.327 . S
C1986 C1974 1.349 1_655 S
C1986 H1980 0.950 . S
C1986 C1987 1.327 . S
C1987 H1981 0.950 . S
C1987 C1986 1.327 . S
C1987 C1991 1.429 . S
C1988 C1971 1.574 . S
C1988 H1982 0.949 . S
C1988 C1992 1.368 . S
C1989 C1970 1.429 . S
C1989 C1983 1.429 . S
C1989 C1990 1.523 . S
C1990 C1971 1.368 . S
C1990 C1984 1.368 . S
C1990 C1989 1.523 . S
C1991 C1975 1.429 1_655 S
C1991 C1987 1.429 . S
C1991 C1992 1.523 . S
C1992 C1976 1.368 . S
C1992 C1988 1.368 . S
C1992 C1991 1.523 . S
H1993 C1968 0.950 . S
H1994 C1970 0.950 . S
H1995 C1971 0.949 . S
H1996 C1973 0.950 . S
H1997 C1975 0.950 . S
C1998 C1999 1.349 . S
C1998 C2000 1.327 . S
C1998 H2023 0.950 . S
C1999 C1998 1.349 . S
C1999 C2015 1.349 . S
C2000 C1998 1.327 . S
C2000 C2019 1.429 . S
C2000 H2024 0.950 . S
C2001 C2018 1.574 . S
C2001 C2020 1.368 . S
C2001 H2025 0.949 . S
H2002 C2006 0.949 . S
C2003 C2004 1.349 . S
C2003 C2005 1.327 . S
C2003 H2026 0.950 . S
C2004 C2003 1.349 . S
C2004 C2016 1.349 . S
C2005 C2003 1.327 . S
C2005 C2021 1.429 . S
C2005 H2027 0.950 . S
C2006 H2002 0.949 . S
C2006 C2014 1.574 . S
C2006 C2022 1.368 . S
H2007 C2015 0.950 . S
H2008 C2013 0.950 . S
H2009 C2014 0.949 . S
H2010 C2016 0.950 . S
H2011 C2017 0.950 . S
H2012 C2018 0.949 . S
C2013 H2008 0.950 . S
C2013 C2015 1.327 . S
C2013 C2019 1.429 . S
C2014 C2006 1.574 . S
C2014 H2009 0.949 . S
C2014 C2020 1.368 . S
C2015 C1999 1.349 . S
C2015 H2007 0.950 . S
C2015 C2013 1.327 . S
C2016 C2004 1.349 . S
C2016 H2010 0.950 . S
C2016 C2017 1.327 . S
C2017 H2011 0.950 . S
C2017 C2016 1.327 . S
C2017 C2021 1.429 . S
C2018 C2001 1.574 . S
C2018 H2012 0.949 . S
C2018 C2022 1.368 . S
C2019 C2000 1.429 . S
C2019 C2013 1.429 . S
C2019 C2020 1.523 . S
C2020 C2001 1.368 . S
C2020 C2014 1.368 . S
C2020 C2019 1.523 . S
C2021 C2005 1.429 . S
C2021 C2017 1.429 . S
C2021 C2022 1.523 . S
C2022 C2006 1.368 . S
C2022 C2018 1.368 . S
C2022 C2021 1.523 . S
H2023 C1998 0.950 . S
H2024 C2000 0.950 . S
H2025 C2001 0.949 . S
H2026 C2003 0.950 . S
H2027 C2005 0.950 . S
C2028 C2029 1.349 . S
C2028 C2030 1.327 . S
C2028 H2053 0.950 . S
C2029 C2028 1.349 . S
C2029 C2045 1.349 . S
C2030 C2028 1.327 . S
C2030 C2049 1.429 . S
C2030 H2054 0.950 . S
C2031 C2048 1.574 . S
C2031 C2050 1.368 . S
C2031 H2055 0.949 . S
H2032 C2036 0.949 . S
C2033 C2034 1.349 . S
C2033 C2035 1.327 . S
C2033 H2056 0.950 . S
C2034 C2033 1.349 . S
C2034 C2046 1.349 1_545 S
C2035 C2033 1.327 . S
C2035 C2051 1.429 1_545 S
C2035 H2057 0.950 . S
C2036 H2032 0.949 . S
C2036 C2044 1.574 . S
C2036 C2052 1.368 . S
H2037 C2045 0.950 . S
H2038 C2043 0.950 . S
H2039 C2044 0.949 . S
H2040 C2046 0.950 . S
H2041 C2047 0.950 . S
H2042 C2048 0.949 . S
C2043 H2038 0.950 . S
C2043 C2045 1.327 . S
C2043 C2049 1.429 . S
C2044 C2036 1.574 . S
C2044 H2039 0.949 . S
C2044 C2050 1.368 . S
C2045 C2029 1.349 . S
C2045 H2037 0.950 . S
C2045 C2043 1.327 . S
C2046 C2034 1.349 1_565 S
C2046 H2040 0.950 . S
C2046 C2047 1.327 . S
C2047 H2041 0.950 . S
C2047 C2046 1.327 . S
C2047 C2051 1.429 . S
C2048 C2031 1.574 . S
C2048 H2042 0.949 . S
C2048 C2052 1.368 . S
C2049 C2030 1.429 . S
C2049 C2043 1.429 . S
C2049 C2050 1.523 . S
C2050 C2031 1.368 . S
C2050 C2044 1.368 . S
C2050 C2049 1.523 . S
C2051 C2035 1.429 1_565 S
C2051 C2047 1.429 . S
C2051 C2052 1.523 . S
C2052 C2036 1.368 . S
C2052 C2048 1.368 . S
C2052 C2051 1.523 . S
H2053 C2028 0.950 . S
H2054 C2030 0.950 . S
H2055 C2031 0.949 . S
H2056 C2033 0.950 . S
H2057 C2035 0.950 . S
C2058 C2059 1.349 . S
C2058 C2060 1.327 . S
C2058 H2083 0.950 . S
C2059 C2058 1.349 . S
C2059 C2075 1.349 1_655 S
C2060 C2058 1.327 . S
C2060 C2079 1.429 1_655 S
C2060 H2084 0.950 . S
C2061 C2078 1.574 . S
C2061 C2080 1.368 . S
C2061 H2085 0.949 . S
H2062 C2066 0.949 . S
C2063 C2064 1.349 . S
C2063 C2065 1.327 . S
C2063 H2086 0.950 . S
C2064 C2063 1.349 . S
C2064 C2076 1.349 . S
C2065 C2063 1.327 . S
C2065 C2081 1.429 . S
C2065 H2087 0.950 . S
C2066 H2062 0.949 . S
C2066 C2074 1.574 . S
C2066 C2082 1.368 . S
H2067 C2075 0.950 . S
H2068 C2073 0.950 . S
H2069 C2074 0.949 . S
H2070 C2076 0.950 . S
H2071 C2077 0.950 . S
H2072 C2078 0.949 . S
C2073 H2068 0.950 . S
C2073 C2075 1.327 . S
C2073 C2079 1.429 . S
C2074 C2066 1.574 . S
C2074 H2069 0.949 . S
C2074 C2080 1.368 . S
C2075 C2059 1.349 1_455 S
C2075 H2067 0.950 . S
C2075 C2073 1.327 . S
C2076 C2064 1.349 . S
C2076 H2070 0.950 . S
C2076 C2077 1.327 . S
C2077 H2071 0.950 . S
C2077 C2076 1.327 . S
C2077 C2081 1.429 . S
C2078 C2061 1.574 . S
C2078 H2072 0.949 . S
C2078 C2082 1.368 . S
C2079 C2060 1.429 1_455 S
C2079 C2073 1.429 . S
C2079 C2080 1.523 . S
C2080 C2061 1.368 . S
C2080 C2074 1.368 . S
C2080 C2079 1.523 . S
C2081 C2065 1.429 . S
C2081 C2077 1.429 . S
C2081 C2082 1.523 . S
C2082 C2066 1.368 . S
C2082 C2078 1.368 . S
C2082 C2081 1.523 . S
H2083 C2058 0.950 . S
H2084 C2060 0.950 . S
H2085 C2061 0.949 . S
H2086 C2063 0.950 . S
H2087 C2065 0.950 . S
C2088 C2089 1.349 . S
C2088 C2090 1.327 . S
C2088 H2113 0.950 . S
C2089 C2088 1.349 . S
C2089 C2105 1.349 . S
C2090 C2088 1.327 . S
C2090 C2109 1.429 . S
C2090 H2114 0.950 . S
C2091 C2108 1.574 1_455 S
C2091 C2110 1.368 . S
C2091 H2115 0.949 . S
H2092 C2096 0.949 . S
C2093 C2094 1.349 . S
C2093 C2095 1.327 . S
C2093 H2116 0.950 . S
C2094 C2093 1.349 . S
C2094 C2106 1.349 . S
C2095 C2093 1.327 . S
C2095 C2111 1.429 . S
C2095 H2117 0.950 . S
C2096 H2092 0.949 . S
C2096 C2104 1.574 1_655 S
C2096 C2112 1.368 . S
H2097 C2105 0.950 . S
H2098 C2103 0.950 . S
H2099 C2104 0.949 . S
H2100 C2106 0.950 . S
H2101 C2107 0.950 . S
H2102 C2108 0.949 . S
C2103 H2098 0.950 . S
C2103 C2105 1.327 . S
C2103 C2109 1.429 . S
C2104 C2096 1.574 1_455 S
C2104 H2099 0.949 . S
C2104 C2110 1.368 . S
C2105 C2089 1.349 . S
C2105 H2097 0.950 . S
C2105 C2103 1.327 . S
C2106 C2094 1.349 . S
C2106 H2100 0.950 . S
C2106 C2107 1.327 . S
C2107 H2101 0.950 . S
C2107 C2106 1.327 . S
C2107 C2111 1.429 . S
C2108 C2091 1.574 1_655 S
C2108 H2102 0.949 . S
C2108 C2112 1.368 . S
C2109 C2090 1.429 . S
C2109 C2103 1.429 . S
C2109 C2110 1.523 . S
C2110 C2091 1.368 . S
C2110 C2104 1.368 . S
C2110 C2109 1.523 . S
C2111 C2095 1.429 . S
C2111 C2107 1.429 . S
C2111 C2112 1.523 . S
C2112 C2096 1.368 . S
C2112 C2108 1.368 . S
C2112 C2111 1.523 . S
H2113 C2088 0.950 . S
H2114 C2090 0.950 . S
H2115 C2091 0.949 . S
H2116 C2093 0.950 . S
H2117 C2095 0.950 . S
C2118 C2119 1.349 . S
C2118 C2120 1.327 . S
C2118 H2143 0.950 . S
C2119 C2118 1.349 . S
C2119 C2135 1.349 . S
C2120 C2118 1.327 . S
C2120 C2139 1.429 . S
C2120 H2144 0.950 . S
C2121 C2138 1.574 . S
C2121 C2140 1.368 . S
C2121 H2145 0.949 . S
H2122 C2126 0.949 . S
C2123 C2124 1.349 . S
C2123 C2125 1.327 . S
C2123 H2146 0.950 . S
C2124 C2123 1.349 . S
C2124 C2136 1.349 . S
C2125 C2123 1.327 . S
C2125 C2141 1.429 . S
C2125 H2147 0.950 . S
C2126 H2122 0.949 . S
C2126 C2134 1.574 . S
C2126 C2142 1.368 . S
H2127 C2135 0.950 . S
H2128 C2133 0.950 . S
H2129 C2134 0.949 . S
H2130 C2136 0.950 . S
H2131 C2137 0.950 . S
H2132 C2138 0.949 . S
C2133 H2128 0.950 . S
C2133 C2135 1.327 . S
C2133 C2139 1.429 . S
C2134 C2126 1.574 . S
C2134 H2129 0.949 . S
C2134 C2140 1.368 . S
C2135 C2119 1.349 . S
C2135 H2127 0.950 . S
C2135 C2133 1.327 . S
C2136 C2124 1.349 . S
C2136 H2130 0.950 . S
C2136 C2137 1.327 . S
C2137 H2131 0.950 . S
C2137 C2136 1.327 . S
C2137 C2141 1.429 . S
C2138 C2121 1.574 . S
C2138 H2132 0.949 . S
C2138 C2142 1.368 . S
C2139 C2120 1.429 . S
C2139 C2133 1.429 . S
C2139 C2140 1.523 . S
C2140 C2121 1.368 . S
C2140 C2134 1.368 . S
C2140 C2139 1.523 . S
C2141 C2125 1.429 . S
C2141 C2137 1.429 . S
C2141 C2142 1.523 . S
C2142 C2126 1.368 . S
C2142 C2138 1.368 . S
C2142 C2141 1.523 . S
H2143 C2118 0.950 . S
H2144 C2120 0.950 . S
H2145 C2121 0.949 . S
H2146 C2123 0.950 . S
H2147 C2125 0.950 . S
C2148 C2149 1.349 . S
C2148 C2150 1.327 . S
C2148 H2173 0.950 . S
C2149 C2148 1.349 . S
C2149 C2165 1.349 . S
C2150 C2148 1.327 . S
C2150 C2169 1.429 . S
C2150 H2174 0.950 . S
C2151 C2168 1.574 1_565 S
C2151 C2170 1.368 . S
C2151 H2175 0.949 . S
H2152 C2156 0.949 . S
C2153 C2154 1.349 . S
C2153 C2155 1.327 . S
C2153 H2176 0.950 . S
C2154 C2153 1.349 . S
C2154 C2166 1.349 . S
C2155 C2153 1.327 . S
C2155 C2171 1.429 . S
C2155 H2177 0.950 . S
C2156 H2152 0.949 . S
C2156 C2164 1.574 1_545 S
C2156 C2172 1.368 . S
H2157 C2165 0.950 . S
H2158 C2163 0.950 . S
H2159 C2164 0.949 . S
H2160 C2166 0.950 . S
H2161 C2167 0.950 . S
H2162 C2168 0.949 . S
C2163 H2158 0.950 . S
C2163 C2165 1.327 . S
C2163 C2169 1.429 . S
C2164 C2156 1.574 1_565 S
C2164 H2159 0.949 . S
C2164 C2170 1.368 . S
C2165 C2149 1.349 . S
C2165 H2157 0.950 . S
C2165 C2163 1.327 . S
C2166 C2154 1.349 . S
C2166 H2160 0.950 . S
C2166 C2167 1.327 . S
C2167 H2161 0.950 . S
C2167 C2166 1.327 . S
C2167 C2171 1.429 . S
C2168 C2151 1.574 1_545 S
C2168 H2162 0.949 . S
C2168 C2172 1.368 . S
C2169 C2150 1.429 . S
C2169 C2163 1.429 . S
C2169 C2170 1.523 . S
C2170 C2151 1.368 . S
C2170 C2164 1.368 . S
C2170 C2169 1.523 . S
C2171 C2155 1.429 . S
C2171 C2167 1.429 . S
C2171 C2172 1.523 . S
C2172 C2156 1.368 . S
C2172 C2168 1.368 . S
C2172 C2171 1.523 . S
H2173 C2148 0.950 . S
H2174 C2150 0.950 . S
H2175 C2151 0.949 . S
H2176 C2153 0.950 . S
H2177 C2155 0.950 . S
C2178 C2179 1.349 . S
C2178 C2180 1.327 . S
C2178 H2203 0.950 . S
C2179 C2178 1.349 . S
C2179 C2195 1.349 . S
C2180 C2178 1.327 . S
C2180 C2199 1.429 . S
C2180 H2204 0.950 . S
C2181 C2198 1.574 1_545 S
C2181 C2200 1.368 . S
C2181 H2205 0.949 . S
H2182 C2186 0.949 . S
C2183 C2184 1.349 . S
C2183 C2185 1.327 . S
C2183 H2206 0.950 . S
C2184 C2183 1.349 . S
C2184 C2196 1.349 . S
C2185 C2183 1.327 . S
C2185 C2201 1.429 . S
C2185 H2207 0.950 . S
C2186 H2182 0.949 . S
C2186 C2194 1.574 1_565 S
C2186 C2202 1.368 . S
H2187 C2195 0.950 . S
H2188 C2193 0.950 . S
H2189 C2194 0.949 . S
H2190 C2196 0.950 . S
H2191 C2197 0.950 . S
H2192 C2198 0.949 . S
C2193 H2188 0.950 . S
C2193 C2195 1.327 . S
C2193 C2199 1.429 . S
C2194 C2186 1.574 1_545 S
C2194 H2189 0.949 . S
C2194 C2200 1.368 . S
C2195 C2179 1.349 . S
C2195 H2187 0.950 . S
C2195 C2193 1.327 . S
C2196 C2184 1.349 . S
C2196 H2190 0.950 . S
C2196 C2197 1.327 . S
C2197 H2191 0.950 . S
C2197 C2196 1.327 . S
C2197 C2201 1.429 . S
C2198 C2181 1.574 1_565 S
C2198 H2192 0.949 . S
C2198 C2202 1.368 . S
C2199 C2180 1.429 . S
C2199 C2193 1.429 . S
C2199 C2200 1.523 . S
C2200 C2181 1.368 . S
C2200 C2194 1.368 . S
C2200 C2199 1.523 . S
C2201 C2185 1.429 . S
C2201 C2197 1.429 . S
C2201 C2202 1.523 . S
C2202 C2186 1.368 . S
C2202 C2198 1.368 . S
C2202 C2201 1.523 . S
H2203 C2178 0.950 . S
H2204 C2180 0.950 . S
H2205 C2181 0.949 . S
H2206 C2183 0.950 . S
H2207 C2185 0.950 . S
C2208 C2209 1.349 . S
C2208 C2210 1.327 . S
C2208 H2233 0.950 . S
C2209 C2208 1.349 . S
C2209 C2225 1.349 . S
C2210 C2208 1.327 . S
C2210 C2229 1.429 . S
C2210 H2234 0.950 . S
C2211 C2228 1.574 1_655 S
C2211 C2230 1.368 . S
C2211 H2235 0.949 . S
H2212 C2216 0.949 . S
C2213 C2214 1.349 . S
C2213 C2215 1.327 . S
C2213 H2236 0.950 . S
C2214 C2213 1.349 . S
C2214 C2226 1.349 . S
C2215 C2213 1.327 . S
C2215 C2231 1.429 . S
C2215 H2237 0.950 . S
C2216 H2212 0.949 . S
C2216 C2224 1.574 1_455 S
C2216 C2232 1.368 . S
H2217 C2225 0.950 . S
H2218 C2223 0.950 . S
H2219 C2224 0.949 . S
H2220 C2226 0.950 . S
H2221 C2227 0.950 . S
H2222 C2228 0.949 . S
C2223 H2218 0.950 . S
C2223 C2225 1.327 . S
C2223 C2229 1.429 . S
C2224 C2216 1.574 1_655 S
C2224 H2219 0.949 . S
C2224 C2230 1.368 . S
C2225 C2209 1.349 . S
C2225 H2217 0.950 . S
C2225 C2223 1.327 . S
C2226 C2214 1.349 . S
C2226 H2220 0.950 . S
C2226 C2227 1.327 . S
C2227 H2221 0.950 . S
C2227 C2226 1.327 . S
C2227 C2231 1.429 . S
C2228 C2211 1.574 1_455 S
C2228 H2222 0.949 . S
C2228 C2232 1.368 . S
C2229 C2210 1.429 . S
C2229 C2223 1.429 . S
C2229 C2230 1.523 . S
C2230 C2211 1.368 . S
C2230 C2224 1.368 . S
C2230 C2229 1.523 . S
C2231 C2215 1.429 . S
C2231 C2227 1.429 . S
C2231 C2232 1.523 . S
C2232 C2216 1.368 . S
C2232 C2228 1.368 . S
C2232 C2231 1.523 . S
H2233 C2208 0.950 . S
H2234 C2210 0.950 . S
H2235 C2211 0.949 . S
H2236 C2213 0.950 . S
H2237 C2215 0.950 . S
C2238 C2239 1.349 . S
C2238 C2240 1.327 . S
C2238 H2263 0.950 . S
C2239 C2238 1.349 . S
C2239 C2255 1.349 . S
C2240 C2238 1.327 . S
C2240 C2259 1.429 . S
C2240 H2264 0.950 . S
C2241 C2258 1.574 . S
C2241 C2260 1.368 . S
C2241 H2265 0.949 . S
H2242 C2246 0.949 . S
C2243 C2244 1.349 . S
C2243 C2245 1.327 . S
C2243 H2266 0.950 . S
C2244 C2243 1.349 . S
C2244 C2256 1.349 . S
C2245 C2243 1.327 . S
C2245 C2261 1.429 . S
C2245 H2267 0.950 . S
C2246 H2242 0.949 . S
C2246 C2254 1.574 . S
C2246 C2262 1.368 . S
H2247 C2255 0.950 . S
H2248 C2253 0.950 . S
H2249 C2254 0.949 . S
H2250 C2256 0.950 . S
H2251 C2257 0.950 . S
H2252 C2258 0.949 . S
C2253 H2248 0.950 . S
C2253 C2255 1.327 . S
C2253 C2259 1.429 . S
C2254 C2246 1.574 . S
C2254 H2249 0.949 . S
C2254 C2260 1.368 . S
C2255 C2239 1.349 . S
C2255 H2247 0.950 . S
C2255 C2253 1.327 . S
C2256 C2244 1.349 . S
C2256 H2250 0.950 . S
C2256 C2257 1.327 . S
C2257 H2251 0.950 . S
C2257 C2256 1.327 . S
C2257 C2261 1.429 . S
C2258 C2241 1.574 . S
C2258 H2252 0.949 . S
C2258 C2262 1.368 . S
C2259 C2240 1.429 . S
C2259 C2253 1.429 . S
C2259 C2260 1.523 . S
C2260 C2241 1.368 . S
C2260 C2254 1.368 . S
C2260 C2259 1.523 . S
C2261 C2245 1.429 . S
C2261 C2257 1.429 . S
C2261 C2262 1.523 . S
C2262 C2246 1.368 . S
C2262 C2258 1.368 . S
C2262 C2261 1.523 . S
H2263 C2238 0.950 . S
H2264 C2240 0.950 . S
H2265 C2241 0.949 . S
H2266 C2243 0.950 . S
H2267 C2245 0.950 . S
C2268 C2269 1.349 . S
C2268 C2270 1.327 . S
C2268 H2293 0.950 . S
C2269 C2268 1.349 . S
C2269 C2285 1.349 . S
C2270 C2268 1.327 . S
C2270 C2289 1.429 . S
C2270 H2294 0.950 . S
C2271 C2288 1.574 . S
C2271 C2290 1.368 . S
C2271 H2295 0.949 . S
H2272 C2276 0.949 . S
C2273 C2274 1.349 . S
C2273 C2275 1.327 . S
C2273 H2296 0.950 . S
C2274 C2273 1.349 . S
C2274 C2286 1.349 . S
C2275 C2273 1.327 . S
C2275 C2291 1.429 . S
C2275 H2297 0.950 . S
C2276 H2272 0.949 . S
C2276 C2284 1.574 . S
C2276 C2292 1.368 . S
H2277 C2285 0.950 . S
H2278 C2283 0.950 . S
H2279 C2284 0.949 . S
H2280 C2286 0.950 . S
H2281 C2287 0.950 . S
H2282 C2288 0.949 . S
C2283 H2278 0.950 . S
C2283 C2285 1.327 . S
C2283 C2289 1.429 . S
C2284 C2276 1.574 . S
C2284 H2279 0.949 . S
C2284 C2290 1.368 . S
C2285 C2269 1.349 . S
C2285 H2277 0.950 . S
C2285 C2283 1.327 . S
C2286 C2274 1.349 . S
C2286 H2280 0.950 . S
C2286 C2287 1.327 . S
C2287 H2281 0.950 . S
C2287 C2286 1.327 . S
C2287 C2291 1.429 . S
C2288 C2271 1.574 . S
C2288 H2282 0.949 . S
C2288 C2292 1.368 . S
C2289 C2270 1.429 . S
C2289 C2283 1.429 . S
C2289 C2290 1.523 . S
C2290 C2271 1.368 . S
C2290 C2284 1.368 . S
C2290 C2289 1.523 . S
C2291 C2275 1.429 . S
C2291 C2287 1.429 . S
C2291 C2292 1.523 . S
C2292 C2276 1.368 . S
C2292 C2288 1.368 . S
C2292 C2291 1.523 . S
H2293 C2268 0.950 . S
H2294 C2270 0.950 . S
H2295 C2271 0.949 . S
H2296 C2273 0.950 . S
H2297 C2275 0.950 . S
C2298 C2299 1.349 . S
C2298 C2300 1.327 . S
C2298 H2323 0.950 . S
C2299 C2298 1.349 . S
C2299 C2315 1.349 . S
C2300 C2298 1.327 . S
C2300 C2319 1.429 . S
C2300 H2324 0.950 . S
C2301 C2318 1.574 . S
C2301 C2320 1.368 . S
C2301 H2325 0.949 . S
H2302 C2306 0.949 . S
C2303 C2304 1.349 . S
C2303 C2305 1.327 . S
C2303 H2326 0.950 . S
C2304 C2303 1.349 . S
C2304 C2316 1.349 . S
C2305 C2303 1.327 . S
C2305 C2321 1.429 . S
C2305 H2327 0.950 . S
C2306 H2302 0.949 . S
C2306 C2314 1.574 . S
C2306 C2322 1.368 . S
H2307 C2315 0.950 . S
H2308 C2313 0.950 . S
H2309 C2314 0.949 . S
H2310 C2316 0.950 . S
H2311 C2317 0.950 . S
H2312 C2318 0.949 . S
C2313 H2308 0.950 . S
C2313 C2315 1.327 . S
C2313 C2319 1.429 . S
C2314 C2306 1.574 . S
C2314 H2309 0.949 . S
C2314 C2320 1.368 . S
C2315 C2299 1.349 . S
C2315 H2307 0.950 . S
C2315 C2313 1.327 . S
C2316 C2304 1.349 . S
C2316 H2310 0.950 . S
C2316 C2317 1.327 . S
C2317 H2311 0.950 . S
C2317 C2316 1.327 . S
C2317 C2321 1.429 . S
C2318 C2301 1.574 . S
C2318 H2312 0.949 . S
C2318 C2322 1.368 . S
C2319 C2300 1.429 . S
C2319 C2313 1.429 . S
C2319 C2320 1.523 . S
C2320 C2301 1.368 . S
C2320 C2314 1.368 . S
C2320 C2319 1.523 . S
C2321 C2305 1.429 . S
C2321 C2317 1.429 . S
C2321 C2322 1.523 . S
C2322 C2306 1.368 . S
C2322 C2318 1.368 . S
C2322 C2321 1.523 . S
H2323 C2298 0.950 . S
H2324 C2300 0.950 . S
H2325 C2301 0.949 . S
H2326 C2303 0.950 . S
H2327 C2305 0.950 . S
C2328 C2329 1.349 . S
C2328 C2330 1.327 . S
C2328 H2353 0.950 . S
C2329 C2328 1.349 . S
C2329 C2345 1.349 . S
C2330 C2328 1.327 . S
C2330 C2349 1.429 . S
C2330 H2354 0.950 . S
C2331 C2348 1.574 . S
C2331 C2350 1.368 . S
C2331 H2355 0.949 . S
H2332 C2336 0.949 . S
C2333 C2334 1.349 . S
C2333 C2335 1.327 . S
C2333 H2356 0.950 . S
C2334 C2333 1.349 . S
C2334 C2346 1.349 . S
C2335 C2333 1.327 . S
C2335 C2351 1.429 . S
C2335 H2357 0.950 . S
C2336 H2332 0.949 . S
C2336 C2344 1.574 . S
C2336 C2352 1.368 . S
H2337 C2345 0.950 . S
H2338 C2343 0.950 . S
H2339 C2344 0.949 . S
H2340 C2346 0.950 . S
H2341 C2347 0.950 . S
H2342 C2348 0.949 . S
C2343 H2338 0.950 . S
C2343 C2345 1.327 . S
C2343 C2349 1.429 . S
C2344 C2336 1.574 . S
C2344 H2339 0.949 . S
C2344 C2350 1.368 . S
C2345 C2329 1.349 . S
C2345 H2337 0.950 . S
C2345 C2343 1.327 . S
C2346 C2334 1.349 . S
C2346 H2340 0.950 . S
C2346 C2347 1.327 . S
C2347 H2341 0.950 . S
C2347 C2346 1.327 . S
C2347 C2351 1.429 . S
C2348 C2331 1.574 . S
C2348 H2342 0.949 . S
C2348 C2352 1.368 . S
C2349 C2330 1.429 . S
C2349 C2343 1.429 . S
C2349 C2350 1.523 . S
C2350 C2331 1.368 . S
C2350 C2344 1.368 . S
C2350 C2349 1.523 . S
C2351 C2335 1.429 . S
C2351 C2347 1.429 . S
C2351 C2352 1.523 . S
C2352 C2336 1.368 . S
C2352 C2348 1.368 . S
C2352 C2351 1.523 . S
H2353 C2328 0.950 . S
H2354 C2330 0.950 . S
H2355 C2331 0.949 . S
H2356 C2333 0.950 . S
H2357 C2335 0.950 . S
C2358 C2359 1.349 . S
C2358 C2360 1.327 . S
C2358 H2383 0.950 . S
C2359 C2358 1.349 . S
C2359 C2375 1.349 . S
C2360 C2358 1.327 . S
C2360 C2379 1.429 . S
C2360 H2384 0.950 . S
C2361 C2378 1.574 . S
C2361 C2380 1.368 . S
C2361 H2385 0.949 . S
H2362 C2366 0.949 . S
C2363 C2364 1.349 . S
C2363 C2365 1.327 . S
C2363 H2386 0.950 . S
C2364 C2363 1.349 . S
C2364 C2376 1.349 . S
C2365 C2363 1.327 . S
C2365 C2381 1.429 . S
C2365 H2387 0.950 . S
C2366 H2362 0.949 . S
C2366 C2374 1.574 . S
C2366 C2382 1.368 . S
H2367 C2375 0.950 . S
H2368 C2373 0.950 . S
H2369 C2374 0.949 . S
H2370 C2376 0.950 . S
H2371 C2377 0.950 . S
H2372 C2378 0.949 . S
C2373 H2368 0.950 . S
C2373 C2375 1.327 . S
C2373 C2379 1.429 . S
C2374 C2366 1.574 . S
C2374 H2369 0.949 . S
C2374 C2380 1.368 . S
C2375 C2359 1.349 . S
C2375 H2367 0.950 . S
C2375 C2373 1.327 . S
C2376 C2364 1.349 . S
C2376 H2370 0.950 . S
C2376 C2377 1.327 . S
C2377 H2371 0.950 . S
C2377 C2376 1.327 . S
C2377 C2381 1.429 . S
C2378 C2361 1.574 . S
C2378 H2372 0.949 . S
C2378 C2382 1.368 . S
C2379 C2360 1.429 . S
C2379 C2373 1.429 . S
C2379 C2380 1.523 . S
C2380 C2361 1.368 . S
C2380 C2374 1.368 . S
C2380 C2379 1.523 . S
C2381 C2365 1.429 . S
C2381 C2377 1.429 . S
C2381 C2382 1.523 . S
C2382 C2366 1.368 . S
C2382 C2378 1.368 . S
C2382 C2381 1.523 . S
H2383 C2358 0.950 . S
H2384 C2360 0.950 . S
H2385 C2361 0.949 . S
H2386 C2363 0.950 . S
H2387 C2365 0.950 . S
C2388 C2389 1.349 . S
C2388 C2390 1.327 . S
C2388 H2413 0.950 . S
C2389 C2388 1.349 . S
C2389 C2405 1.349 . S
C2390 C2388 1.327 . S
C2390 C2409 1.429 . S
C2390 H2414 0.950 . S
C2391 C2408 1.574 . S
C2391 C2410 1.368 . S
C2391 H2415 0.949 . S
H2392 C2396 0.949 . S
C2393 C2394 1.349 . S
C2393 C2395 1.327 . S
C2393 H2416 0.950 . S
C2394 C2393 1.349 . S
C2394 C2406 1.349 . S
C2395 C2393 1.327 . S
C2395 C2411 1.429 . S
C2395 H2417 0.950 . S
C2396 H2392 0.949 . S
C2396 C2404 1.574 . S
C2396 C2412 1.368 . S
H2397 C2405 0.950 . S
H2398 C2403 0.950 . S
H2399 C2404 0.949 . S
H2400 C2406 0.950 . S
H2401 C2407 0.950 . S
H2402 C2408 0.949 . S
C2403 H2398 0.950 . S
C2403 C2405 1.327 . S
C2403 C2409 1.429 . S
C2404 C2396 1.574 . S
C2404 H2399 0.949 . S
C2404 C2410 1.368 . S
C2405 C2389 1.349 . S
C2405 H2397 0.950 . S
C2405 C2403 1.327 . S
C2406 C2394 1.349 . S
C2406 H2400 0.950 . S
C2406 C2407 1.327 . S
C2407 H2401 0.950 . S
C2407 C2406 1.327 . S
C2407 C2411 1.429 . S
C2408 C2391 1.574 . S
C2408 H2402 0.949 . S
C2408 C2412 1.368 . S
C2409 C2390 1.429 . S
C2409 C2403 1.429 . S
C2409 C2410 1.523 . S
C2410 C2391 1.368 . S
C2410 C2404 1.368 . S
C2410 C2409 1.523 . S
C2411 C2395 1.429 . S
C2411 C2407 1.429 . S
C2411 C2412 1.523 . S
C2412 C2396 1.368 . S
C2412 C2408 1.368 . S
C2412 C2411 1.523 . S
H2413 C2388 0.950 . S
H2414 C2390 0.950 . S
H2415 C2391 0.949 . S
H2416 C2393 0.950 . S
H2417 C2395 0.950 . S
C2418 C2419 1.349 . S
C2418 C2420 1.327 . S
C2418 H2443 0.950 . S
C2419 C2418 1.349 . S
C2419 C2435 1.349 . S
C2420 C2418 1.327 . S
C2420 C2439 1.429 . S
C2420 H2444 0.950 . S
C2421 C2438 1.574 . S
C2421 C2440 1.368 . S
C2421 H2445 0.949 . S
H2422 C2426 0.949 . S
C2423 C2424 1.349 . S
C2423 C2425 1.327 . S
C2423 H2446 0.950 . S
C2424 C2423 1.349 . S
C2424 C2436 1.349 . S
C2425 C2423 1.327 . S
C2425 C2441 1.429 . S
C2425 H2447 0.950 . S
C2426 H2422 0.949 . S
C2426 C2434 1.574 . S
C2426 C2442 1.368 . S
H2427 C2435 0.950 . S
H2428 C2433 0.950 . S
H2429 C2434 0.949 . S
H2430 C2436 0.950 . S
H2431 C2437 0.950 . S
H2432 C2438 0.949 . S
C2433 H2428 0.950 . S
C2433 C2435 1.327 . S
C2433 C2439 1.429 . S
C2434 C2426 1.574 . S
C2434 H2429 0.949 . S
C2434 C2440 1.368 . S
C2435 C2419 1.349 . S
C2435 H2427 0.950 . S
C2435 C2433 1.327 . S
C2436 C2424 1.349 . S
C2436 H2430 0.950 . S
C2436 C2437 1.327 . S
C2437 H2431 0.950 . S
C2437 C2436 1.327 . S
C2437 C2441 1.429 . S
C2438 C2421 1.574 . S
C2438 H2432 0.949 . S
C2438 C2442 1.368 . S
C2439 C2420 1.429 . S
C2439 C2433 1.429 . S
C2439 C2440 1.523 . S
C2440 C2421 1.368 . S
C2440 C2434 1.368 . S
C2440 C2439 1.523 . S
C2441 C2425 1.429 . S
C2441 C2437 1.429 . S
C2441 C2442 1.523 . S
C2442 C2426 1.368 . S
C2442 C2438 1.368 . S
C2442 C2441 1.523 . S
H2443 C2418 0.950 . S
H2444 C2420 0.950 . S
H2445 C2421 0.949 . S
H2446 C2423 0.950 . S
H2447 C2425 0.950 . S
C2448 C2449 1.349 . S
C2448 C2450 1.327 . S
C2448 H2473 0.950 . S
C2449 C2448 1.349 . S
C2449 C2465 1.349 . S
C2450 C2448 1.327 . S
C2450 C2469 1.429 . S
C2450 H2474 0.950 . S
C2451 C2468 1.574 . S
C2451 C2470 1.368 . S
C2451 H2475 0.949 . S
H2452 C2456 0.949 . S
C2453 C2454 1.349 . S
C2453 C2455 1.327 . S
C2453 H2476 0.950 . S
C2454 C2453 1.349 . S
C2454 C2466 1.349 . S
C2455 C2453 1.327 . S
C2455 C2471 1.429 . S
C2455 H2477 0.950 . S
C2456 H2452 0.949 . S
C2456 C2464 1.574 . S
C2456 C2472 1.368 . S
H2457 C2465 0.950 . S
H2458 C2463 0.950 . S
H2459 C2464 0.949 . S
H2460 C2466 0.950 . S
H2461 C2467 0.950 . S
H2462 C2468 0.949 . S
C2463 H2458 0.950 . S
C2463 C2465 1.327 . S
C2463 C2469 1.429 . S
C2464 C2456 1.574 . S
C2464 H2459 0.949 . S
C2464 C2470 1.368 . S
C2465 C2449 1.349 . S
C2465 H2457 0.950 . S
C2465 C2463 1.327 . S
C2466 C2454 1.349 . S
C2466 H2460 0.950 . S
C2466 C2467 1.327 . S
C2467 H2461 0.950 . S
C2467 C2466 1.327 . S
C2467 C2471 1.429 . S
C2468 C2451 1.574 . S
C2468 H2462 0.949 . S
C2468 C2472 1.368 . S
C2469 C2450 1.429 . S
C2469 C2463 1.429 . S
C2469 C2470 1.523 . S
C2470 C2451 1.368 . S
C2470 C2464 1.368 . S
C2470 C2469 1.523 . S
C2471 C2455 1.429 . S
C2471 C2467 1.429 . S
C2471 C2472 1.523 . S
C2472 C2456 1.368 . S
C2472 C2468 1.368 . S
C2472 C2471 1.523 . S
H2473 C2448 0.950 . S
H2474 C2450 0.950 . S
H2475 C2451 0.949 . S
H2476 C2453 0.950 . S
H2477 C2455 0.950 . S
C2478 C2479 1.349 . S
C2478 C2480 1.327 . S
C2478 H2503 0.950 . S
C2479 C2478 1.349 . S
C2479 C2495 1.349 . S
C2480 C2478 1.327 . S
C2480 C2499 1.429 . S
C2480 H2504 0.950 . S
C2481 C2498 1.574 . S
C2481 C2500 1.368 . S
C2481 H2505 0.949 . S
H2482 C2486 0.949 . S
C2483 C2484 1.349 . S
C2483 C2485 1.327 . S
C2483 H2506 0.950 . S
C2484 C2483 1.349 . S
C2484 C2496 1.349 . S
C2485 C2483 1.327 . S
C2485 C2501 1.429 . S
C2485 H2507 0.950 . S
C2486 H2482 0.949 . S
C2486 C2494 1.574 . S
C2486 C2502 1.368 . S
H2487 C2495 0.950 . S
H2488 C2493 0.950 . S
H2489 C2494 0.949 . S
H2490 C2496 0.950 . S
H2491 C2497 0.950 . S
H2492 C2498 0.949 . S
C2493 H2488 0.950 . S
C2493 C2495 1.327 . S
C2493 C2499 1.429 . S
C2494 C2486 1.574 . S
C2494 H2489 0.949 . S
C2494 C2500 1.368 . S
C2495 C2479 1.349 . S
C2495 H2487 0.950 . S
C2495 C2493 1.327 . S
C2496 C2484 1.349 . S
C2496 H2490 0.950 . S
C2496 C2497 1.327 . S
C2497 H2491 0.950 . S
C2497 C2496 1.327 . S
C2497 C2501 1.429 . S
C2498 C2481 1.574 . S
C2498 H2492 0.949 . S
C2498 C2502 1.368 . S
C2499 C2480 1.429 . S
C2499 C2493 1.429 . S
C2499 C2500 1.523 . S
C2500 C2481 1.368 . S
C2500 C2494 1.368 . S
C2500 C2499 1.523 . S
C2501 C2485 1.429 . S
C2501 C2497 1.429 . S
C2501 C2502 1.523 . S
C2502 C2486 1.368 . S
C2502 C2498 1.368 . S
C2502 C2501 1.523 . S
H2503 C2478 0.950 . S
H2504 C2480 0.950 . S
H2505 C2481 0.949 . S
H2506 C2483 0.950 . S
H2507 C2485 0.950 . S
C2508 C2509 1.349 . S
C2508 C2510 1.327 . S
C2508 H2533 0.950 . S
C2509 C2508 1.349 . S
C2509 C2525 1.349 . S
C2510 C2508 1.327 . S
C2510 C2529 1.429 . S
C2510 H2534 0.950 . S
C2511 C2528 1.574 . S
C2511 C2530 1.368 . S
C2511 H2535 0.949 . S
H2512 C2516 0.949 . S
C2513 C2514 1.349 . S
C2513 C2515 1.327 . S
C2513 H2536 0.950 . S
C2514 C2513 1.349 . S
C2514 C2526 1.349 . S
C2515 C2513 1.327 . S
C2515 C2531 1.429 . S
C2515 H2537 0.950 . S
C2516 H2512 0.949 . S
C2516 C2524 1.574 . S
C2516 C2532 1.368 . S
H2517 C2525 0.950 . S
H2518 C2523 0.950 . S
H2519 C2524 0.949 . S
H2520 C2526 0.950 . S
H2521 C2527 0.950 . S
H2522 C2528 0.949 . S
C2523 H2518 0.950 . S
C2523 C2525 1.327 . S
C2523 C2529 1.429 . S
C2524 C2516 1.574 . S
C2524 H2519 0.949 . S
C2524 C2530 1.368 . S
C2525 C2509 1.349 . S
C2525 H2517 0.950 . S
C2525 C2523 1.327 . S
C2526 C2514 1.349 . S
C2526 H2520 0.950 . S
C2526 C2527 1.327 . S
C2527 H2521 0.950 . S
C2527 C2526 1.327 . S
C2527 C2531 1.429 . S
C2528 C2511 1.574 . S
C2528 H2522 0.949 . S
C2528 C2532 1.368 . S
C2529 C2510 1.429 . S
C2529 C2523 1.429 . S
C2529 C2530 1.523 . S
C2530 C2511 1.368 . S
C2530 C2524 1.368 . S
C2530 C2529 1.523 . S
C2531 C2515 1.429 . S
C2531 C2527 1.429 . S
C2531 C2532 1.523 . S
C2532 C2516 1.368 . S
C2532 C2528 1.368 . S
C2532 C2531 1.523 . S
H2533 C2508 0.950 . S
H2534 C2510 0.950 . S
H2535 C2511 0.949 . S
H2536 C2513 0.950 . S
H2537 C2515 0.950 . S
C2538 C2539 1.349 . S
C2538 C2540 1.327 . S
C2538 H2563 0.950 . S
C2539 C2538 1.349 . S
C2539 C2555 1.349 . S
C2540 C2538 1.327 . S
C2540 C2559 1.429 . S
C2540 H2564 0.950 . S
C2541 C2558 1.574 . S
C2541 C2560 1.368 . S
C2541 H2565 0.949 . S
H2542 C2546 0.949 . S
C2543 C2544 1.349 . S
C2543 C2545 1.327 . S
C2543 H2566 0.950 . S
C2544 C2543 1.349 . S
C2544 C2556 1.349 . S
C2545 C2543 1.327 . S
C2545 C2561 1.429 . S
C2545 H2567 0.950 . S
C2546 H2542 0.949 . S
C2546 C2554 1.574 . S
C2546 C2562 1.368 . S
H2547 C2555 0.950 . S
H2548 C2553 0.950 . S
H2549 C2554 0.949 . S
H2550 C2556 0.950 . S
H2551 C2557 0.950 . S
H2552 C2558 0.949 . S
C2553 H2548 0.950 . S
C2553 C2555 1.327 . S
C2553 C2559 1.429 . S
C2554 C2546 1.574 . S
C2554 H2549 0.949 . S
C2554 C2560 1.368 . S
C2555 C2539 1.349 . S
C2555 H2547 0.950 . S
C2555 C2553 1.327 . S
C2556 C2544 1.349 . S
C2556 H2550 0.950 . S
C2556 C2557 1.327 . S
C2557 H2551 0.950 . S
C2557 C2556 1.327 . S
C2557 C2561 1.429 . S
C2558 C2541 1.574 . S
C2558 H2552 0.949 . S
C2558 C2562 1.368 . S
C2559 C2540 1.429 . S
C2559 C2553 1.429 . S
C2559 C2560 1.523 . S
C2560 C2541 1.368 . S
C2560 C2554 1.368 . S
C2560 C2559 1.523 . S
C2561 C2545 1.429 . S
C2561 C2557 1.429 . S
C2561 C2562 1.523 . S
C2562 C2546 1.368 . S
C2562 C2558 1.368 . S
C2562 C2561 1.523 . S
H2563 C2538 0.950 . S
H2564 C2540 0.950 . S
H2565 C2541 0.949 . S
H2566 C2543 0.950 . S
H2567 C2545 0.950 . S
C2568 C2569 1.349 . S
C2568 C2570 1.327 . S
C2568 H2593 0.950 . S
C2569 C2568 1.349 . S
C2569 C2585 1.349 . S
C2570 C2568 1.327 . S
C2570 C2589 1.429 . S
C2570 H2594 0.950 . S
C2571 C2588 1.574 . S
C2571 C2590 1.368 . S
C2571 H2595 0.949 . S
H2572 C2576 0.949 . S
C2573 C2574 1.349 . S
C2573 C2575 1.327 . S
C2573 H2596 0.950 . S
C2574 C2573 1.349 . S
C2574 C2586 1.349 . S
C2575 C2573 1.327 . S
C2575 C2591 1.429 . S
C2575 H2597 0.950 . S
C2576 H2572 0.949 . S
C2576 C2584 1.574 . S
C2576 C2592 1.368 . S
H2577 C2585 0.950 . S
H2578 C2583 0.950 . S
H2579 C2584 0.949 . S
H2580 C2586 0.950 . S
H2581 C2587 0.950 . S
H2582 C2588 0.949 . S
C2583 H2578 0.950 . S
C2583 C2585 1.327 . S
C2583 C2589 1.429 . S
C2584 C2576 1.574 . S
C2584 H2579 0.949 . S
C2584 C2590 1.368 . S
C2585 C2569 1.349 . S
C2585 H2577 0.950 . S
C2585 C2583 1.327 . S
C2586 C2574 1.349 . S
C2586 H2580 0.950 . S
C2586 C2587 1.327 . S
C2587 H2581 0.950 . S
C2587 C2586 1.327 . S
C2587 C2591 1.429 . S
C2588 C2571 1.574 . S
C2588 H2582 0.949 . S
C2588 C2592 1.368 . S
C2589 C2570 1.429 . S
C2589 C2583 1.429 . S
C2589 C2590 1.523 . S
C2590 C2571 1.368 . S
C2590 C2584 1.368 . S
C2590 C2589 1.523 . S
C2591 C2575 1.429 . S
C2591 C2587 1.429 . S
C2591 C2592 1.523 . S
C2592 C2576 1.368 . S
C2592 C2588 1.368 . S
C2592 C2591 1.523 . S
H2593 C2568 0.950 . S
H2594 C2570 0.950 . S
H2595 C2571 0.949 . S
H2596 C2573 0.950 . S
H2597 C2575 0.950 . S
C2598 C2599 1.349 . S
C2598 C2600 1.327 . S
C2598 H2623 0.950 . S
C2599 C2598 1.349 . S
C2599 C2615 1.349 . S
C2600 C2598 1.327 . S
C2600 C2619 1.429 . S
C2600 H2624 0.950 . S
C2601 C2618 1.574 . S
C2601 C2620 1.368 . S
C2601 H2625 0.949 . S
H2602 C2606 0.949 . S
C2603 C2604 1.349 . S
C2603 C2605 1.327 . S
C2603 H2626 0.950 . S
C2604 C2603 1.349 . S
C2604 C2616 1.349 . S
C2605 C2603 1.327 . S
C2605 C2621 1.429 . S
C2605 H2627 0.950 . S
C2606 H2602 0.949 . S
C2606 C2614 1.574 . S
C2606 C2622 1.368 . S
H2607 C2615 0.950 . S
H2608 C2613 0.950 . S
H2609 C2614 0.949 . S
H2610 C2616 0.950 . S
H2611 C2617 0.950 . S
H2612 C2618 0.949 . S
C2613 H2608 0.950 . S
C2613 C2615 1.327 . S
C2613 C2619 1.429 . S
C2614 C2606 1.574 . S
C2614 H2609 0.949 . S
C2614 C2620 1.368 . S
C2615 C2599 1.349 . S
C2615 H2607 0.950 . S
C2615 C2613 1.327 . S
C2616 C2604 1.349 . S
C2616 H2610 0.950 . S
C2616 C2617 1.327 . S
C2617 H2611 0.950 . S
C2617 C2616 1.327 . S
C2617 C2621 1.429 . S
C2618 C2601 1.574 . S
C2618 H2612 0.949 . S
C2618 C2622 1.368 . S
C2619 C2600 1.429 . S
C2619 C2613 1.429 . S
C2619 C2620 1.523 . S
C2620 C2601 1.368 . S
C2620 C2614 1.368 . S
C2620 C2619 1.523 . S
C2621 C2605 1.429 . S
C2621 C2617 1.429 . S
C2621 C2622 1.523 . S
C2622 C2606 1.368 . S
C2622 C2618 1.368 . S
C2622 C2621 1.523 . S
H2623 C2598 0.950 . S
H2624 C2600 0.950 . S
H2625 C2601 0.949 . S
H2626 C2603 0.950 . S
H2627 C2605 0.950 . S
C2628 C2629 1.349 . S
C2628 C2630 1.327 . S
C2628 H2653 0.950 . S
C2629 C2628 1.349 . S
C2629 C2645 1.349 . S
C2630 C2628 1.327 . S
C2630 C2649 1.429 . S
C2630 H2654 0.950 . S
C2631 C2648 1.574 1_655 S
C2631 C2650 1.368 . S
C2631 H2655 0.949 . S
H2632 C2636 0.949 . S
C2633 C2634 1.349 . S
C2633 C2635 1.327 . S
C2633 H2656 0.950 . S
C2634 C2633 1.349 . S
C2634 C2646 1.349 . S
C2635 C2633 1.327 . S
C2635 C2651 1.429 . S
C2635 H2657 0.950 . S
C2636 H2632 0.949 . S
C2636 C2644 1.574 1_455 S
C2636 C2652 1.368 . S
H2637 C2645 0.950 . S
H2638 C2643 0.950 . S
H2639 C2644 0.949 . S
H2640 C2646 0.950 . S
H2641 C2647 0.950 . S
H2642 C2648 0.949 . S
C2643 H2638 0.950 . S
C2643 C2645 1.327 . S
C2643 C2649 1.429 . S
C2644 C2636 1.574 1_655 S
C2644 H2639 0.949 . S
C2644 C2650 1.368 . S
C2645 C2629 1.349 . S
C2645 H2637 0.950 . S
C2645 C2643 1.327 . S
C2646 C2634 1.349 . S
C2646 H2640 0.950 . S
C2646 C2647 1.327 . S
C2647 H2641 0.950 . S
C2647 C2646 1.327 . S
C2647 C2651 1.429 . S
C2648 C2631 1.574 1_455 S
C2648 H2642 0.949 . S
C2648 C2652 1.368 . S
C2649 C2630 1.429 . S
C2649 C2643 1.429 . S
C2649 C2650 1.523 . S
C2650 C2631 1.368 . S
C2650 C2644 1.368 . S
C2650 C2649 1.523 . S
C2651 C2635 1.429 . S
C2651 C2647 1.429 . S
C2651 C2652 1.523 . S
C2652 C2636 1.368 . S
C2652 C2648 1.368 . S
C2652 C2651 1.523 . S
H2653 C2628 0.950 . S
H2654 C2630 0.950 . S
H2655 C2631 0.949 . S
H2656 C2633 0.950 . S
H2657 C2635 0.950 . S
C2658 C2659 1.349 . S
C2658 C2660 1.327 . S
C2658 H2683 0.950 . S
C2659 C2658 1.349 . S
C2659 C2675 1.349 . S
C2660 C2658 1.327 . S
C2660 C2679 1.429 . S
C2660 H2684 0.950 . S
C2661 C2678 1.574 . S
C2661 C2680 1.368 . S
C2661 H2685 0.949 . S
H2662 C2666 0.949 . S
C2663 C2664 1.349 . S
C2663 C2665 1.327 . S
C2663 H2686 0.950 . S
C2664 C2663 1.349 . S
C2664 C2676 1.349 . S
C2665 C2663 1.327 . S
C2665 C2681 1.429 . S
C2665 H2687 0.950 . S
C2666 H2662 0.949 . S
C2666 C2674 1.574 . S
C2666 C2682 1.368 . S
H2667 C2675 0.950 . S
H2668 C2673 0.950 . S
H2669 C2674 0.949 . S
H2670 C2676 0.950 . S
H2671 C2677 0.950 . S
H2672 C2678 0.949 . S
C2673 H2668 0.950 . S
C2673 C2675 1.327 . S
C2673 C2679 1.429 . S
C2674 C2666 1.574 . S
C2674 H2669 0.949 . S
C2674 C2680 1.368 . S
C2675 C2659 1.349 . S
C2675 H2667 0.950 . S
C2675 C2673 1.327 . S
C2676 C2664 1.349 . S
C2676 H2670 0.950 . S
C2676 C2677 1.327 . S
C2677 H2671 0.950 . S
C2677 C2676 1.327 . S
C2677 C2681 1.429 . S
C2678 C2661 1.574 . S
C2678 H2672 0.949 . S
C2678 C2682 1.368 . S
C2679 C2660 1.429 . S
C2679 C2673 1.429 . S
C2679 C2680 1.523 . S
C2680 C2661 1.368 . S
C2680 C2674 1.368 . S
C2680 C2679 1.523 . S
C2681 C2665 1.429 . S
C2681 C2677 1.429 . S
C2681 C2682 1.523 . S
C2682 C2666 1.368 . S
C2682 C2678 1.368 . S
C2682 C2681 1.523 . S
H2683 C2658 0.950 . S
H2684 C2660 0.950 . S
H2685 C2661 0.949 . S
H2686 C2663 0.950 . S
H2687 C2665 0.950 . S
C2688 C2689 1.349 . S
C2688 C2690 1.327 . S
C2688 H2713 0.950 . S
C2689 C2688 1.349 . S
C2689 C2705 1.349 . S
C2690 C2688 1.327 . S
C2690 C2709 1.429 . S
C2690 H2714 0.950 . S
C2691 C2708 1.574 . S
C2691 C2710 1.368 1_565 S
C2691 H2715 0.949 . S
H2692 C2696 0.949 . S
C2693 C2694 1.349 . S
C2693 C2695 1.327 . S
C2693 H2716 0.950 . S
C2694 C2693 1.349 . S
C2694 C2706 1.349 . S
C2695 C2693 1.327 . S
C2695 C2711 1.429 . S
C2695 H2717 0.950 . S
C2696 H2692 0.949 . S
C2696 C2704 1.574 . S
C2696 C2712 1.368 1_545 S
H2697 C2705 0.950 . S
H2698 C2703 0.950 . S
H2699 C2704 0.949 . S
H2700 C2706 0.950 . S
H2701 C2707 0.950 . S
H2702 C2708 0.949 . S
C2703 H2698 0.950 . S
C2703 C2705 1.327 . S
C2703 C2709 1.429 . S
C2704 C2696 1.574 . S
C2704 H2699 0.949 . S
C2704 C2710 1.368 . S
C2705 C2689 1.349 . S
C2705 H2697 0.950 . S
C2705 C2703 1.327 . S
C2706 C2694 1.349 . S
C2706 H2700 0.950 . S
C2706 C2707 1.327 . S
C2707 H2701 0.950 . S
C2707 C2706 1.327 . S
C2707 C2711 1.429 . S
C2708 C2691 1.574 . S
C2708 H2702 0.949 . S
C2708 C2712 1.368 . S
C2709 C2690 1.429 . S
C2709 C2703 1.429 . S
C2709 C2710 1.523 . S
C2710 C2691 1.368 1_545 S
C2710 C2704 1.368 . S
C2710 C2709 1.523 . S
C2711 C2695 1.429 . S
C2711 C2707 1.429 . S
C2711 C2712 1.523 . S
C2712 C2696 1.368 1_565 S
C2712 C2708 1.368 . S
C2712 C2711 1.523 . S
H2713 C2688 0.950 . S
H2714 C2690 0.950 . S
H2715 C2691 0.949 . S
H2716 C2693 0.950 . S
H2717 C2695 0.950 . S
C2718 C2719 1.349 . S
C2718 C2720 1.327 . S
C2718 H2743 0.950 . S
C2719 C2718 1.349 . S
C2719 C2735 1.349 . S
C2720 C2718 1.327 . S
C2720 C2739 1.429 . S
C2720 H2744 0.950 . S
C2721 C2738 1.574 1_565 S
C2721 C2740 1.368 1_556 S
C2721 H2745 0.949 . S
H2722 C2726 0.949 . S
C2723 C2724 1.349 . S
C2723 C2725 1.327 . S
C2723 H2746 0.950 . S
C2724 C2723 1.349 . S
C2724 C2736 1.349 . S
C2725 C2723 1.327 . S
C2725 C2741 1.429 . S
C2725 H2747 0.950 . S
C2726 H2722 0.949 . S
C2726 C2734 1.574 1_545 S
C2726 C2742 1.368 1_554 S
H2727 C2735 0.950 . S
H2728 C2733 0.955 . S
H2729 C2734 0.949 . S
H2730 C2736 0.950 . S
H2731 C2737 0.955 . S
H2732 C2738 0.949 . S
C2733 H2728 0.955 . S
C2733 C2735 1.327 . S
C2733 C2739 1.429 . S
C2734 C2726 1.574 1_565 S
C2734 H2729 0.949 . S
C2734 C2740 1.368 . S
C2735 C2719 1.349 . S
C2735 H2727 0.950 . S
C2735 C2733 1.327 . S
C2736 C2724 1.349 . S
C2736 H2730 0.950 . S
C2736 C2737 1.327 . S
C2737 H2731 0.955 . S
C2737 C2736 1.327 . S
C2737 C2741 1.429 . S
C2738 C2721 1.574 1_545 S
C2738 H2732 0.949 . S
C2738 C2742 1.368 . S
C2739 C2720 1.429 . S
C2739 C2733 1.429 . S
C2739 C2740 1.523 . S
C2740 C2721 1.368 1_554 S
C2740 C2734 1.368 . S
C2740 C2739 1.523 . S
C2741 C2725 1.429 . S
C2741 C2737 1.429 . S
C2741 C2742 1.523 . S
C2742 C2726 1.368 1_556 S
C2742 C2738 1.368 . S
C2742 C2741 1.523 . S
H2743 C2718 0.950 . S
H2744 C2720 0.950 . S
H2745 C2721 0.949 . S
H2746 C2723 0.950 . S
H2747 C2725 0.950 . S
C2748 C2749 1.349 . S
C2748 C2750 1.327 . S
C2748 H2773 0.950 . S
C2749 C2748 1.349 . S
C2749 C2765 1.349 . S
C2750 C2748 1.327 . S
C2750 C2769 1.429 . S
C2750 H2774 0.950 . S
C2751 C2768 1.574 1_655 S
C2751 C2770 1.368 1_554 S
C2751 H2775 0.949 . S
H2752 C2756 0.949 . S
C2753 C2754 1.349 . S
C2753 C2755 1.327 . S
C2753 H2776 0.950 . S
C2754 C2753 1.349 . S
C2754 C2766 1.349 . S
C2755 C2753 1.327 . S
C2755 C2771 1.429 . S
C2755 H2777 0.950 . S
C2756 H2752 0.949 . S
C2756 C2764 1.574 1_455 S
C2756 C2772 1.368 1_556 S
H2757 C2765 0.950 . S
H2758 C2763 0.950 . S
H2759 C2764 0.949 . S
H2760 C2766 0.950 . S
H2761 C2767 0.950 . S
H2762 C2768 0.949 . S
C2763 H2758 0.950 . S
C2763 C2765 1.327 . S
C2763 C2769 1.429 . S
C2764 C2756 1.574 1_655 S
C2764 H2759 0.949 . S
C2764 C2770 1.368 . S
C2765 C2749 1.349 . S
C2765 H2757 0.950 . S
C2765 C2763 1.327 . S
C2766 C2754 1.349 . S
C2766 H2760 0.950 . S
C2766 C2767 1.327 . S
C2767 H2761 0.950 . S
C2767 C2766 1.327 . S
C2767 C2771 1.429 . S
C2768 C2751 1.574 1_455 S
C2768 H2762 0.949 . S
C2768 C2772 1.368 . S
C2769 C2750 1.429 . S
C2769 C2763 1.429 . S
C2769 C2770 1.523 . S
C2770 C2751 1.368 1_556 S
C2770 C2764 1.368 . S
C2770 C2769 1.523 . S
C2771 C2755 1.429 . S
C2771 C2767 1.429 . S
C2771 C2772 1.523 . S
C2772 C2756 1.368 1_554 S
C2772 C2768 1.368 . S
C2772 C2771 1.523 . S
H2773 C2748 0.950 . S
H2774 C2750 0.950 . S
H2775 C2751 0.949 . S
H2776 C2753 0.950 . S
H2777 C2755 0.950 . S
C2778 C2779 1.349 . S
C2778 C2780 1.327 . S
C2778 H2803 0.950 . S
C2779 C2778 1.349 . S
C2779 C2795 1.349 . S
C2780 C2778 1.327 . S
C2780 C2799 1.429 . S
C2780 H2804 0.950 . S
C2781 C2798 1.574 . S
C2781 C2800 1.368 1_556 S
C2781 H2805 0.949 . S
H2782 C2786 0.949 . S
C2783 C2784 1.349 . S
C2783 C2785 1.327 . S
C2783 H2806 0.950 . S
C2784 C2783 1.349 . S
C2784 C2796 1.349 . S
C2785 C2783 1.327 . S
C2785 C2801 1.429 . S
C2785 H2807 0.950 . S
C2786 H2782 0.949 . S
C2786 C2794 1.574 . S
C2786 C2802 1.368 1_554 S
H2787 C2795 0.950 . S
H2788 C2793 0.950 1_556 S
H2789 C2794 0.949 . S
H2790 C2796 0.950 . S
H2791 C2797 0.950 1_554 S
H2792 C2798 0.949 . S
C2793 H2788 0.950 1_554 S
C2793 C2795 1.327 . S
C2793 C2799 1.429 . S
C2794 C2786 1.574 . S
C2794 H2789 0.949 . S
C2794 C2800 1.368 . S
C2795 C2779 1.349 . S
C2795 H2787 0.950 . S
C2795 C2793 1.327 . S
C2796 C2784 1.349 . S
C2796 H2790 0.950 . S
C2796 C2797 1.327 . S
C2797 H2791 0.950 1_556 S
C2797 C2796 1.327 . S
C2797 C2801 1.429 . S
C2798 C2781 1.574 . S
C2798 H2792 0.949 . S
C2798 C2802 1.368 . S
C2799 C2780 1.429 . S
C2799 C2793 1.429 . S
C2799 C2800 1.523 . S
C2800 C2781 1.368 1_554 S
C2800 C2794 1.368 . S
C2800 C2799 1.523 . S
C2801 C2785 1.429 . S
C2801 C2797 1.429 . S
C2801 C2802 1.523 . S
C2802 C2786 1.368 1_556 S
C2802 C2798 1.368 . S
C2802 C2801 1.523 . S
H2803 C2778 0.950 . S
H2804 C2780 0.950 . S
H2805 C2781 0.949 . S
H2806 C2783 0.950 . S
H2807 C2785 0.950 . S
C2808 C2809 1.349 . S
C2808 C2810 1.327 . S
C2808 H2833 0.950 . S
C2809 C2808 1.349 . S
C2809 C2825 1.349 . S
C2810 C2808 1.327 . S
C2810 C2829 1.429 . S
C2810 H2834 0.950 . S
C2811 C2828 1.574 . S
C2811 C2830 1.368 1_554 S
C2811 H2835 0.949 . S
H2812 C2816 0.949 . S
C2813 C2814 1.349 . S
C2813 C2815 1.327 . S
C2813 H2836 0.950 . S
C2814 C2813 1.349 . S
C2814 C2826 1.349 . S
C2815 C2813 1.327 . S
C2815 C2831 1.429 . S
C2815 H2837 0.950 . S
C2816 H2812 0.949 . S
C2816 C2824 1.574 . S
C2816 C2832 1.368 1_556 S
H2817 C2825 0.950 . S
H2818 C2823 0.950 . S
H2819 C2824 0.949 . S
H2820 C2826 0.950 . S
H2821 C2827 0.950 . S
H2822 C2828 0.949 . S
C2823 H2818 0.950 . S
C2823 C2825 1.327 . S
C2823 C2829 1.429 . S
C2824 C2816 1.574 . S
C2824 H2819 0.949 . S
C2824 C2830 1.368 . S
C2825 C2809 1.349 . S
C2825 H2817 0.950 . S
C2825 C2823 1.327 . S
C2826 C2814 1.349 . S
C2826 H2820 0.950 . S
C2826 C2827 1.327 . S
C2827 H2821 0.950 . S
C2827 C2826 1.327 . S
C2827 C2831 1.429 . S
C2828 C2811 1.574 . S
C2828 H2822 0.949 . S
C2828 C2832 1.368 . S
C2829 C2810 1.429 . S
C2829 C2823 1.429 . S
C2829 C2830 1.523 . S
C2830 C2811 1.368 1_556 S
C2830 C2824 1.368 . S
C2830 C2829 1.523 . S
C2831 C2815 1.429 . S
C2831 C2827 1.429 . S
C2831 C2832 1.523 . S
C2832 C2816 1.368 1_554 S
C2832 C2828 1.368 . S
C2832 C2831 1.523 . S
H2833 C2808 0.950 . S
H2834 C2810 0.950 . S
H2835 C2811 0.949 . S
H2836 C2813 0.950 . S
H2837 C2815 0.950 . S
C2838 C2839 1.349 . S
C2838 C2840 1.327 . S
C2838 H2863 0.950 . S
C2839 C2838 1.349 . S
C2839 C2855 1.349 . S
C2840 C2838 1.327 . S
C2840 C2859 1.429 . S
C2840 H2864 0.950 . S
C2841 C2858 1.574 . S
C2841 C2860 1.368 . S
C2841 H2865 0.949 . S
H2842 C2846 0.949 . S
C2843 C2844 1.349 . S
C2843 C2845 1.327 . S
C2843 H2866 0.950 . S
C2844 C2843 1.349 . S
C2844 C2856 1.349 . S
C2845 C2843 1.327 . S
C2845 C2861 1.429 . S
C2845 H2867 0.950 . S
C2846 H2842 0.949 . S
C2846 C2854 1.600 . S
C2846 C2862 1.368 . S
H2847 C2855 0.950 . S
H2848 C2853 0.950 . S
H2849 C2854 0.956 . S
H2850 C2856 0.950 . S
H2851 C2857 0.950 . S
H2852 C2858 0.949 . S
C2853 H2848 0.950 . S
C2853 C2855 1.327 . S
C2853 C2859 1.429 . S
C2854 C2846 1.600 . S
C2854 H2849 0.956 . S
C2854 C2860 1.336 1_556 S
C2855 C2839 1.349 . S
C2855 H2847 0.950 . S
C2855 C2853 1.327 . S
C2856 C2844 1.349 . S
C2856 H2850 0.950 . S
C2856 C2857 1.327 . S
C2857 H2851 0.950 . S
C2857 C2856 1.327 . S
C2857 C2861 1.429 . S
C2858 C2841 1.574 . S
C2858 H2852 0.949 . S
C2858 C2862 1.368 1_554 S
C2859 C2840 1.429 . S
C2859 C2853 1.429 . S
C2859 C2860 1.523 . S
C2860 C2841 1.368 . S
C2860 C2854 1.336 1_554 S
C2860 C2859 1.523 . S
C2861 C2845 1.429 . S
C2861 C2857 1.429 . S
C2861 C2862 1.523 . S
C2862 C2846 1.368 . S
C2862 C2858 1.368 1_556 S
C2862 C2861 1.523 . S
H2863 C2838 0.950 . S
H2864 C2840 0.950 . S
H2865 C2841 0.949 . S
H2866 C2843 0.950 . S
H2867 C2845 0.950 . S
C2868 C2869 1.349 . S
C2868 C2870 1.327 . S
C2868 H2893 0.950 . S
C2869 C2868 1.349 . S
C2869 C2885 1.349 . S
C2870 C2868 1.327 . S
C2870 C2889 1.429 . S
C2870 H2894 0.950 . S
C2871 C2888 1.574 . S
C2871 C2890 1.368 . S
C2871 H2895 0.949 . S
H2872 C2876 0.949 . S
C2873 C2874 1.349 . S
C2873 C2875 1.327 . S
C2873 H2896 0.950 . S
C2874 C2873 1.349 . S
C2874 C2886 1.349 . S
C2875 C2873 1.327 . S
C2875 C2891 1.429 . S
C2875 H2897 0.950 . S
C2876 H2872 0.949 . S
C2876 C2884 1.574 . S
C2876 C2892 1.368 . S
H2877 C2885 0.950 . S
H2878 C2883 0.950 . S
H2879 C2884 0.949 . S
H2880 C2886 0.950 . S
H2881 C2887 0.950 . S
H2882 C2888 0.949 . S
C2883 H2878 0.950 . S
C2883 C2885 1.327 . S
C2883 C2889 1.429 . S
C2884 C2876 1.574 . S
C2884 H2879 0.949 . S
C2884 C2890 1.368 1_556 S
C2885 C2869 1.349 . S
C2885 H2877 0.950 . S
C2885 C2883 1.327 . S
C2886 C2874 1.349 . S
C2886 H2880 0.950 . S
C2886 C2887 1.327 . S
C2887 H2881 0.950 . S
C2887 C2886 1.327 . S
C2887 C2891 1.429 . S
C2888 C2871 1.574 . S
C2888 H2882 0.949 . S
C2888 C2892 1.368 1_554 S
C2889 C2870 1.429 . S
C2889 C2883 1.429 . S
C2889 C2890 1.523 . S
C2890 C2871 1.368 . S
C2890 C2884 1.368 1_554 S
C2890 C2889 1.523 . S
C2891 C2875 1.429 . S
C2891 C2887 1.429 . S
C2891 C2892 1.523 . S
C2892 C2876 1.368 . S
C2892 C2888 1.368 1_556 S
C2892 C2891 1.523 . S
H2893 C2868 0.950 . S
H2894 C2870 0.950 . S
H2895 C2871 0.949 . S
H2896 C2873 0.950 . S
H2897 C2875 0.950 . S
C2898 C2899 1.349 . S
C2898 C2900 1.327 . S
C2898 H2923 0.950 . S
C2899 C2898 1.349 . S
C2899 C2915 1.349 . S
C2900 C2898 1.327 . S
C2900 C2919 1.429 . S
C2900 H2924 0.950 . S
C2901 C2918 1.574 . S
C2901 C2920 1.368 . S
C2901 H2925 0.949 . S
H2902 C2906 0.949 . S
C2903 C2904 1.349 . S
C2903 C2905 1.327 . S
C2903 H2926 0.950 . S
C2904 C2903 1.349 . S
C2904 C2916 1.349 . S
C2905 C2903 1.327 . S
C2905 C2921 1.429 . S
C2905 H2927 0.950 . S
C2906 H2902 0.949 . S
C2906 C2914 1.574 . S
C2906 C2922 1.368 . S
H2907 C2915 0.950 . S
H2908 C2913 0.950 . S
H2909 C2914 0.949 . S
H2910 C2916 0.950 . S
H2911 C2917 0.950 . S
H2912 C2918 0.949 . S
C2913 H2908 0.950 . S
C2913 C2915 1.327 . S
C2913 C2919 1.429 . S
C2914 C2906 1.574 . S
C2914 H2909 0.949 . S
C2914 C2920 1.368 . S
C2915 C2899 1.349 . S
C2915 H2907 0.950 . S
C2915 C2913 1.327 . S
C2916 C2904 1.349 . S
C2916 H2910 0.950 . S
C2916 C2917 1.327 . S
C2917 H2911 0.950 . S
C2917 C2916 1.327 . S
C2917 C2921 1.429 . S
C2918 C2901 1.574 . S
C2918 H2912 0.949 . S
C2918 C2922 1.368 . S
C2919 C2900 1.429 . S
C2919 C2913 1.429 . S
C2919 C2920 1.523 . S
C2920 C2901 1.368 . S
C2920 C2914 1.368 . S
C2920 C2919 1.523 . S
C2921 C2905 1.429 . S
C2921 C2917 1.429 . S
C2921 C2922 1.523 . S
C2922 C2906 1.368 . S
C2922 C2918 1.368 . S
C2922 C2921 1.523 . S
H2923 C2898 0.950 . S
H2924 C2900 0.950 . S
H2925 C2901 0.949 . S
H2926 C2903 0.950 . S
H2927 C2905 0.950 . S
C2928 C2929 1.349 . S
C2928 C2930 1.327 . S
C2928 H2953 0.950 . S
C2929 C2928 1.349 . S
C2929 C2945 1.349 . S
C2930 C2928 1.327 . S
C2930 C2949 1.429 . S
C2930 H2954 0.950 . S
C2931 C2948 1.574 . S
C2931 C2950 1.368 . S
C2931 H2955 0.949 . S
H2932 C2936 0.949 . S
C2933 C2934 1.349 . S
C2933 C2935 1.327 . S
C2933 H2956 0.950 . S
C2934 C2933 1.349 . S
C2934 C2946 1.349 . S
C2935 C2933 1.327 . S
C2935 C2951 1.429 . S
C2935 H2957 0.950 . S
C2936 H2932 0.949 . S
C2936 C2944 1.574 . S
C2936 C2952 1.368 . S
H2937 C2945 0.950 . S
H2938 C2943 0.950 . S
H2939 C2944 0.949 . S
H2940 C2946 0.950 . S
H2941 C2947 0.950 . S
H2942 C2948 0.949 . S
C2943 H2938 0.950 . S
C2943 C2945 1.327 . S
C2943 C2949 1.429 . S
C2944 C2936 1.574 . S
C2944 H2939 0.949 . S
C2944 C2950 1.368 . S
C2945 C2929 1.349 . S
C2945 H2937 0.950 . S
C2945 C2943 1.327 . S
C2946 C2934 1.349 . S
C2946 H2940 0.950 . S
C2946 C2947 1.327 . S
C2947 H2941 0.950 . S
C2947 C2946 1.327 . S
C2947 C2951 1.429 . S
C2948 C2931 1.574 . S
C2948 H2942 0.949 . S
C2948 C2952 1.368 . S
C2949 C2930 1.429 . S
C2949 C2943 1.429 . S
C2949 C2950 1.523 . S
C2950 C2931 1.368 . S
C2950 C2944 1.368 . S
C2950 C2949 1.523 . S
C2951 C2935 1.429 . S
C2951 C2947 1.429 . S
C2951 C2952 1.523 . S
C2952 C2936 1.368 . S
C2952 C2948 1.368 . S
C2952 C2951 1.523 . S
H2953 C2928 0.950 . S
H2954 C2930 0.950 . S
H2955 C2931 0.949 . S
H2956 C2933 0.950 . S
H2957 C2935 0.950 . S
C2958 C2959 1.349 . S
C2958 C2960 1.327 . S
C2958 H2983 0.950 . S
C2959 C2958 1.349 . S
C2959 C2975 1.349 . S
C2960 C2958 1.327 . S
C2960 C2979 1.429 . S
C2960 H2984 0.950 . S
C2961 C2978 1.574 . S
C2961 C2980 1.368 . S
C2961 H2985 0.949 . S
H2962 C2966 0.949 . S
C2963 C2964 1.349 . S
C2963 C2965 1.327 . S
C2963 H2986 0.950 . S
C2964 C2963 1.349 . S
C2964 C2976 1.349 . S
C2965 C2963 1.327 . S
C2965 C2981 1.429 . S
C2965 H2987 0.950 . S
C2966 H2962 0.949 . S
C2966 C2974 1.574 . S
C2966 C2982 1.368 . S
H2967 C2975 0.950 . S
H2968 C2973 0.950 . S
H2969 C2974 0.949 . S
H2970 C2976 0.950 . S
H2971 C2977 0.950 . S
H2972 C2978 0.949 . S
C2973 H2968 0.950 . S
C2973 C2975 1.327 . S
C2973 C2979 1.429 . S
C2974 C2966 1.574 . S
C2974 H2969 0.949 . S
C2974 C2980 1.368 . S
C2975 C2959 1.349 . S
C2975 H2967 0.950 . S
C2975 C2973 1.327 . S
C2976 C2964 1.349 . S
C2976 H2970 0.950 . S
C2976 C2977 1.327 . S
C2977 H2971 0.950 . S
C2977 C2976 1.327 . S
C2977 C2981 1.429 . S
C2978 C2961 1.574 . S
C2978 H2972 0.949 . S
C2978 C2982 1.368 . S
C2979 C2960 1.429 . S
C2979 C2973 1.429 . S
C2979 C2980 1.523 . S
C2980 C2961 1.368 . S
C2980 C2974 1.368 . S
C2980 C2979 1.523 . S
C2981 C2965 1.429 . S
C2981 C2977 1.429 . S
C2981 C2982 1.523 . S
C2982 C2966 1.368 . S
C2982 C2978 1.368 . S
C2982 C2981 1.523 . S
H2983 C2958 0.950 . S
H2984 C2960 0.950 . S
H2985 C2961 0.949 . S
H2986 C2963 0.950 . S
H2987 C2965 0.950 . S
C2988 C2989 1.349 . S
C2988 C2990 1.327 . S
C2988 H3013 0.950 . S
C2989 C2988 1.349 . S
C2989 C3005 1.349 . S
C2990 C2988 1.327 . S
C2990 C3009 1.429 . S
C2990 H3014 0.996 . S
C2991 C3008 1.574 . S
C2991 C3010 1.368 . S
C2991 H3015 0.949 . S
H2992 C2996 0.949 . S
C2993 C2994 1.349 . S
C2993 C2995 1.327 . S
C2993 H3016 0.950 . S
C2994 C2993 1.349 . S
C2994 C3006 1.349 . S
C2995 C2993 1.327 . S
C2995 C3011 1.429 . S
C2995 H3017 0.950 . S
C2996 H2992 0.949 . S
C2996 C3004 1.574 . S
C2996 C3012 1.368 . S
H2997 C3005 0.950 . S
H2998 C3003 0.950 . S
H2999 C3004 0.949 . S
H3000 C3006 0.950 . S
H3001 C3007 0.950 . S
H3002 C3008 0.949 . S
C3003 H2998 0.950 . S
C3003 C3005 1.327 . S
C3003 C3009 1.429 . S
C3004 C2996 1.574 . S
C3004 H2999 0.949 . S
C3004 C3010 1.368 1_556 S
C3005 C2989 1.349 . S
C3005 H2997 0.950 . S
C3005 C3003 1.327 . S
C3006 C2994 1.349 . S
C3006 H3000 0.950 . S
C3006 C3007 1.327 . S
C3007 H3001 0.950 . S
C3007 C3006 1.327 . S
C3007 C3011 1.429 . S
C3008 C2991 1.574 . S
C3008 H3002 0.949 . S
C3008 C3012 1.368 1_554 S
C3009 C2990 1.429 . S
C3009 C3003 1.429 . S
C3009 C3010 1.523 . S
C3010 C2991 1.368 . S
C3010 C3004 1.368 1_554 S
C3010 C3009 1.523 . S
C3011 C2995 1.429 . S
C3011 C3007 1.429 . S
C3011 C3012 1.523 . S
C3012 C2996 1.368 . S
C3012 C3008 1.368 1_556 S
C3012 C3011 1.523 . S
H3013 C2988 0.950 . S
H3014 C2990 0.996 . S
H3015 C2991 0.949 . S
H3016 C2993 0.950 . S
H3017 C2995 0.950 . S
C3018 C3019 1.349 . S
C3018 C3020 1.327 . S
C3018 H3043 0.950 . S
C3019 C3018 1.349 . S
C3019 C3035 1.349 . S
C3020 C3018 1.327 . S
C3020 C3039 1.429 . S
C3020 H3044 0.950 . S
C3021 C3038 1.563 1_554 S
C3021 C3040 1.368 . S
C3021 H3045 0.949 . S
H3022 C3026 0.949 . S
C3023 C3024 1.349 . S
C3023 C3025 1.327 . S
C3023 H3046 0.950 . S
C3024 C3023 1.349 . S
C3024 C3036 1.349 . S
C3025 C3023 1.327 . S
C3025 C3041 1.429 . S
C3025 H3047 0.950 . S
C3026 H3022 0.949 . S
C3026 C3034 1.574 . S
C3026 C3042 1.368 . S
H3027 C3035 0.950 . S
H3028 C3033 0.950 . S
H3029 C3034 0.949 . S
H3030 C3036 0.950 . S
H3031 C3037 0.950 . S
H3032 C3038 0.948 1_554 S
C3033 H3028 0.950 . S
C3033 C3035 1.327 . S
C3033 C3039 1.429 . S
C3034 C3026 1.574 . S
C3034 H3029 0.949 . S
C3034 C3040 1.368 1_556 S
C3035 C3019 1.349 . S
C3035 H3027 0.950 . S
C3035 C3033 1.327 . S
C3036 C3024 1.349 . S
C3036 H3030 0.950 . S
C3036 C3037 1.327 . S
C3037 H3031 0.950 . S
C3037 C3036 1.327 . S
C3037 C3041 1.429 . S
C3038 C3021 1.563 1_556 S
C3038 H3032 0.948 1_556 S
C3038 C3042 1.380 . S
C3039 C3020 1.429 . S
C3039 C3033 1.429 . S
C3039 C3040 1.523 . S
C3040 C3021 1.368 . S
C3040 C3034 1.368 1_554 S
C3040 C3039 1.523 . S
C3041 C3025 1.429 . S
C3041 C3037 1.429 . S
C3041 C3042 1.523 . S
C3042 C3026 1.368 . S
C3042 C3038 1.380 . S
C3042 C3041 1.523 . S
H3043 C3018 0.950 . S
H3044 C3020 0.950 . S
H3045 C3021 0.949 . S
H3046 C3023 0.950 . S
H3047 C3025 0.950 . S
C3048 C3049 1.349 . S
C3048 C3050 1.327 . S
C3048 H3073 0.950 . S
C3049 C3048 1.349 . S
C3049 C3065 1.349 . S
C3050 C3048 1.327 . S
C3050 C3069 1.429 . S
C3050 H3074 0.950 . S
C3051 C3068 1.574 1_554 S
C3051 C3070 1.368 . S
C3051 H3075 0.949 . S
H3052 C3056 0.949 . S
C3053 C3054 1.349 . S
C3053 C3055 1.327 . S
C3053 H3076 0.950 . S
C3054 C3053 1.349 . S
C3054 C3066 1.349 . S
C3055 C3053 1.327 . S
C3055 C3071 1.429 . S
C3055 H3077 0.950 . S
C3056 H3052 0.949 . S
C3056 C3064 1.574 . S
C3056 C3072 1.368 . S
H3057 C3065 0.950 . S
H3058 C3063 0.950 . S
H3059 C3064 0.949 . S
H3060 C3066 0.950 . S
H3061 C3067 0.950 . S
H3062 C3068 0.949 . S
C3063 H3058 0.950 . S
C3063 C3065 1.327 . S
C3063 C3069 1.429 . S
C3064 C3056 1.574 . S
C3064 H3059 0.949 . S
C3064 C3070 1.368 1_556 S
C3065 C3049 1.349 . S
C3065 H3057 0.950 . S
C3065 C3063 1.327 . S
C3066 C3054 1.349 . S
C3066 H3060 0.950 . S
C3066 C3067 1.327 . S
C3067 H3061 0.950 . S
C3067 C3066 1.327 . S
C3067 C3071 1.429 . S
C3068 C3051 1.574 1_556 S
C3068 H3062 0.949 . S
C3068 C3072 1.368 . S
C3069 C3050 1.429 . S
C3069 C3063 1.429 . S
C3069 C3070 1.523 . S
C3070 C3051 1.368 . S
C3070 C3064 1.368 1_554 S
C3070 C3069 1.523 . S
C3071 C3055 1.429 . S
C3071 C3067 1.429 . S
C3071 C3072 1.523 . S
C3072 C3056 1.368 . S
C3072 C3068 1.368 . S
C3072 C3071 1.523 . S
H3073 C3048 0.950 . S
H3074 C3050 0.950 . S
H3075 C3051 0.949 . S
H3076 C3053 0.950 . S
H3077 C3055 0.950 . S
C3078 C3079 1.349 . S
C3078 C3080 1.327 . S
C3078 H3103 0.950 . S
C3079 C3078 1.349 . S
C3079 C3095 1.349 . S
C3080 C3078 1.327 . S
C3080 C3099 1.429 . S
C3080 H3104 0.950 . S
C3081 C3098 1.574 . S
C3081 C3100 1.368 . S
C3081 H3105 0.949 . S
H3082 C3086 0.949 . S
C3083 C3084 1.349 . S
C3083 C3085 1.327 . S
C3083 H3106 0.950 . S
C3084 C3083 1.349 . S
C3084 C3096 1.349 . S
C3085 C3083 1.327 . S
C3085 C3101 1.429 . S
C3085 H3107 0.950 . S
C3086 H3082 0.949 . S
C3086 C3094 1.574 . S
C3086 C3102 1.368 . S
H3087 C3095 0.950 . S
H3088 C3093 0.950 . S
H3089 C3094 0.949 . S
H3090 C3096 0.950 . S
H3091 C3097 0.950 . S
H3092 C3098 0.949 . S
C3093 H3088 0.950 . S
C3093 C3095 1.327 . S
C3093 C3099 1.429 . S
C3094 C3086 1.574 . S
C3094 H3089 0.949 . S
C3094 C3100 1.368 . S
C3095 C3079 1.349 . S
C3095 H3087 0.950 . S
C3095 C3093 1.327 . S
C3096 C3084 1.349 . S
C3096 H3090 0.950 . S
C3096 C3097 1.327 . S
C3097 H3091 0.950 . S
C3097 C3096 1.327 . S
C3097 C3101 1.429 . S
C3098 C3081 1.574 . S
C3098 H3092 0.949 . S
C3098 C3102 1.368 . S
C3099 C3080 1.429 . S
C3099 C3093 1.429 . S
C3099 C3100 1.523 . S
C3100 C3081 1.368 . S
C3100 C3094 1.368 . S
C3100 C3099 1.523 . S
C3101 C3085 1.429 . S
C3101 C3097 1.429 . S
C3101 C3102 1.523 . S
C3102 C3086 1.368 . S
C3102 C3098 1.368 . S
C3102 C3101 1.523 . S
H3103 C3078 0.950 . S
H3104 C3080 0.950 . S
H3105 C3081 0.949 . S
H3106 C3083 0.950 . S
H3107 C3085 0.950 . S
C3108 C3109 1.349 . S
C3108 C3110 1.327 . S
C3108 H3133 0.950 . S
C3109 C3108 1.349 . S
C3109 C3125 1.349 . S
C3110 C3108 1.327 . S
C3110 C3129 1.429 . S
C3110 H3134 0.950 . S
C3111 C3128 1.574 . S
C3111 C3130 1.368 . S
C3111 H3135 0.949 . S
H3112 C3116 0.949 . S
C3113 C3114 1.349 . S
C3113 C3115 1.327 . S
C3113 H3136 0.950 . S
C3114 C3113 1.349 . S
C3114 C3126 1.349 . S
C3115 C3113 1.327 . S
C3115 C3131 1.429 . S
C3115 H3137 0.950 . S
C3116 H3112 0.949 . S
C3116 C3124 1.574 . S
C3116 C3132 1.368 . S
H3117 C3125 0.950 . S
H3118 C3123 0.950 . S
H3119 C3124 0.949 . S
H3120 C3126 0.950 . S
H3121 C3127 0.950 . S
H3122 C3128 0.949 . S
C3123 H3118 0.950 . S
C3123 C3125 1.327 . S
C3123 C3129 1.429 . S
C3124 C3116 1.574 . S
C3124 H3119 0.949 . S
C3124 C3130 1.368 . S
C3125 C3109 1.349 . S
C3125 H3117 0.950 . S
C3125 C3123 1.327 . S
C3126 C3114 1.349 . S
C3126 H3120 0.950 . S
C3126 C3127 1.327 . S
C3127 H3121 0.950 . S
C3127 C3126 1.327 . S
C3127 C3131 1.429 . S
C3128 C3111 1.574 . S
C3128 H3122 0.949 . S
C3128 C3132 1.368 . S
C3129 C3110 1.429 . S
C3129 C3123 1.429 . S
C3129 C3130 1.523 . S
C3130 C3111 1.368 . S
C3130 C3124 1.368 . S
C3130 C3129 1.523 . S
C3131 C3115 1.429 . S
C3131 C3127 1.429 . S
C3131 C3132 1.523 . S
C3132 C3116 1.368 . S
C3132 C3128 1.368 . S
C3132 C3131 1.523 . S
H3133 C3108 0.950 . S
H3134 C3110 0.950 . S
H3135 C3111 0.949 . S
H3136 C3113 0.950 . S
H3137 C3115 0.950 . S
C3138 C3139 1.349 . S
C3138 C3140 1.327 . S
C3138 H3163 0.950 . S
C3139 C3138 1.349 . S
C3139 C3155 1.349 . S
C3140 C3138 1.327 . S
C3140 C3159 1.429 . S
C3140 H3164 0.950 . S
C3141 C3158 1.574 . S
C3141 C3160 1.368 . S
C3141 H3165 0.949 . S
H3142 C3146 0.949 . S
C3143 C3144 1.349 . S
C3143 C3145 1.327 . S
C3143 H3166 0.950 . S
C3144 C3143 1.349 . S
C3144 C3156 1.349 . S
C3145 C3143 1.327 . S
C3145 C3161 1.429 . S
C3145 H3167 0.950 . S
C3146 H3142 0.949 . S
C3146 C3154 1.574 . S
C3146 C3162 1.368 . S
H3147 C3155 0.950 . S
H3148 C3153 0.950 . S
H3149 C3154 0.949 . S
H3150 C3156 0.950 . S
H3151 C3157 0.950 . S
H3152 C3158 0.949 . S
C3153 H3148 0.950 . S
C3153 C3155 1.327 . S
C3153 C3159 1.429 . S
C3154 C3146 1.574 . S
C3154 H3149 0.949 . S
C3154 C3160 1.368 . S
C3155 C3139 1.349 . S
C3155 H3147 0.950 . S
C3155 C3153 1.327 . S
C3156 C3144 1.349 . S
C3156 H3150 0.950 . S
C3156 C3157 1.327 . S
C3157 H3151 0.950 . S
C3157 C3156 1.327 . S
C3157 C3161 1.429 . S
C3158 C3141 1.574 . S
C3158 H3152 0.949 . S
C3158 C3162 1.368 . S
C3159 C3140 1.429 . S
C3159 C3153 1.429 . S
C3159 C3160 1.523 . S
C3160 C3141 1.368 . S
C3160 C3154 1.368 . S
C3160 C3159 1.523 . S
C3161 C3145 1.429 . S
C3161 C3157 1.429 . S
C3161 C3162 1.523 . S
C3162 C3146 1.368 . S
C3162 C3158 1.368 . S
C3162 C3161 1.523 . S
H3163 C3138 0.950 . S
H3164 C3140 0.950 . S
H3165 C3141 0.949 . S
H3166 C3143 0.950 . S
H3167 C3145 0.950 . S
C3168 C3169 1.349 . S
C3168 C3170 1.327 . S
C3168 H3193 0.950 . S
C3169 C3168 1.349 . S
C3169 C3185 1.349 . S
C3170 C3168 1.327 . S
C3170 C3189 1.429 . S
C3170 H3194 0.950 . S
C3171 C3188 1.574 . S
C3171 C3190 1.368 . S
C3171 H3195 0.949 . S
H3172 C3176 0.949 . S
C3173 C3174 1.349 . S
C3173 C3175 1.327 . S
C3173 H3196 0.950 . S
C3174 C3173 1.349 . S
C3174 C3186 1.349 . S
C3175 C3173 1.327 . S
C3175 C3191 1.429 . S
C3175 H3197 0.950 . S
C3176 H3172 0.949 . S
C3176 C3184 1.574 . S
C3176 C3192 1.368 . S
H3177 C3185 0.950 . S
H3178 C3183 0.950 . S
H3179 C3184 0.949 . S
H3180 C3186 0.950 . S
H3181 C3187 0.950 . S
H3182 C3188 0.949 . S
C3183 H3178 0.950 . S
C3183 C3185 1.327 . S
C3183 C3189 1.429 . S
C3184 C3176 1.574 . S
C3184 H3179 0.949 . S
C3184 C3190 1.368 . S
C3185 C3169 1.349 . S
C3185 H3177 0.950 . S
C3185 C3183 1.327 . S
C3186 C3174 1.349 . S
C3186 H3180 0.950 . S
C3186 C3187 1.327 . S
C3187 H3181 0.950 . S
C3187 C3186 1.327 . S
C3187 C3191 1.429 . S
C3188 C3171 1.574 . S
C3188 H3182 0.949 . S
C3188 C3192 1.368 . S
C3189 C3170 1.429 . S
C3189 C3183 1.429 . S
C3189 C3190 1.523 . S
C3190 C3171 1.368 . S
C3190 C3184 1.368 . S
C3190 C3189 1.523 . S
C3191 C3175 1.429 . S
C3191 C3187 1.429 . S
C3191 C3192 1.523 . S
C3192 C3176 1.368 . S
C3192 C3188 1.368 . S
C3192 C3191 1.523 . S
H3193 C3168 0.950 . S
H3194 C3170 0.950 . S
H3195 C3171 0.949 . S
H3196 C3173 0.950 . S
H3197 C3175 0.950 . S
C3198 C3199 1.349 . S
C3198 C3200 1.327 . S
C3198 H3223 0.950 . S
C3199 C3198 1.349 . S
C3199 C3215 1.349 . S
C3200 C3198 1.327 . S
C3200 C3219 1.429 . S
C3200 H3224 0.950 . S
C3201 C3218 1.574 . S
C3201 C3220 1.368 . S
C3201 H3225 0.949 . S
H3202 C3206 0.949 . S
C3203 C3204 1.349 . S
C3203 C3205 1.327 . S
C3203 H3226 0.950 . S
C3204 C3203 1.349 . S
C3204 C3216 1.349 . S
C3205 C3203 1.327 . S
C3205 C3221 1.429 . S
C3205 H3227 0.950 . S
C3206 H3202 0.949 . S
C3206 C3214 1.574 . S
C3206 C3222 1.368 . S
H3207 C3215 0.950 . S
H3208 C3213 0.950 . S
H3209 C3214 0.949 . S
H3210 C3216 0.950 . S
H3211 C3217 0.950 . S
H3212 C3218 0.949 . S
C3213 H3208 0.950 . S
C3213 C3215 1.327 . S
C3213 C3219 1.429 . S
C3214 C3206 1.574 . S
C3214 H3209 0.949 . S
C3214 C3220 1.368 . S
C3215 C3199 1.349 . S
C3215 H3207 0.950 . S
C3215 C3213 1.327 . S
C3216 C3204 1.349 . S
C3216 H3210 0.950 . S
C3216 C3217 1.327 . S
C3217 H3211 0.950 . S
C3217 C3216 1.327 . S
C3217 C3221 1.429 . S
C3218 C3201 1.574 . S
C3218 H3212 0.949 . S
C3218 C3222 1.368 . S
C3219 C3200 1.429 . S
C3219 C3213 1.429 . S
C3219 C3220 1.523 . S
C3220 C3201 1.368 . S
C3220 C3214 1.368 . S
C3220 C3219 1.523 . S
C3221 C3205 1.429 . S
C3221 C3217 1.429 . S
C3221 C3222 1.523 . S
C3222 C3206 1.368 . S
C3222 C3218 1.368 . S
C3222 C3221 1.523 . S
H3223 C3198 0.950 . S
H3224 C3200 0.950 . S
H3225 C3201 0.949 . S
H3226 C3203 0.950 . S
H3227 C3205 0.950 . S
C3228 C3229 1.349 . S
C3228 C3230 1.327 . S
C3228 H3253 0.950 . S
C3229 C3228 1.349 . S
C3229 C3245 1.349 . S
C3230 C3228 1.327 . S
C3230 C3249 1.429 . S
C3230 H3254 0.950 . S
C3231 C3248 1.574 . S
C3231 C3250 1.368 . S
C3231 H3255 0.949 . S
H3232 C3236 0.949 . S
C3233 C3234 1.349 . S
C3233 C3235 1.327 . S
C3233 H3256 0.950 . S
C3234 C3233 1.349 . S
C3234 C3246 1.349 . S
C3235 C3233 1.327 . S
C3235 C3251 1.429 . S
C3235 H3257 0.950 . S
C3236 H3232 0.949 . S
C3236 C3244 1.574 . S
C3236 C3252 1.368 . S
H3237 C3245 0.950 . S
H3238 C3243 0.950 . S
H3239 C3244 0.949 . S
H3240 C3246 0.950 . S
H3241 C3247 0.950 . S
H3242 C3248 0.949 . S
C3243 H3238 0.950 . S
C3243 C3245 1.327 . S
C3243 C3249 1.429 . S
C3244 C3236 1.574 . S
C3244 H3239 0.949 . S
C3244 C3250 1.368 . S
C3245 C3229 1.349 . S
C3245 H3237 0.950 . S
C3245 C3243 1.327 . S
C3246 C3234 1.349 . S
C3246 H3240 0.950 . S
C3246 C3247 1.327 . S
C3247 H3241 0.950 . S
C3247 C3246 1.327 . S
C3247 C3251 1.429 . S
C3248 C3231 1.574 . S
C3248 H3242 0.949 . S
C3248 C3252 1.368 . S
C3249 C3230 1.429 . S
C3249 C3243 1.429 . S
C3249 C3250 1.523 . S
C3250 C3231 1.368 . S
C3250 C3244 1.368 . S
C3250 C3249 1.523 . S
C3251 C3235 1.429 . S
C3251 C3247 1.429 . S
C3251 C3252 1.523 . S
C3252 C3236 1.368 . S
C3252 C3248 1.368 . S
C3252 C3251 1.523 . S
H3253 C3228 0.950 . S
H3254 C3230 0.950 . S
H3255 C3231 0.949 . S
H3256 C3233 0.950 . S
H3257 C3235 0.950 . S
C3258 C3259 1.349 . S
C3258 C3260 1.327 . S
C3258 H3283 0.950 . S
C3259 C3258 1.349 . S
C3259 C3275 1.349 . S
C3260 C3258 1.327 . S
C3260 C3279 1.429 . S
C3260 H3284 0.950 . S
C3261 C3278 1.574 . S
C3261 C3280 1.368 . S
C3261 H3285 0.949 . S
H3262 C3266 0.949 . S
C3263 C3264 1.349 . S
C3263 C3265 1.327 . S
C3263 H3286 0.950 . S
C3264 C3263 1.349 . S
C3264 C3276 1.349 . S
C3265 C3263 1.327 . S
C3265 C3281 1.429 . S
C3265 H3287 0.950 . S
C3266 H3262 0.949 . S
C3266 C3274 1.574 . S
C3266 C3282 1.368 . S
H3267 C3275 0.950 . S
H3268 C3273 0.950 . S
H3269 C3274 0.949 . S
H3270 C3276 0.950 . S
H3271 C3277 0.950 . S
H3272 C3278 0.949 . S
C3273 H3268 0.950 . S
C3273 C3275 1.327 . S
C3273 C3279 1.429 . S
C3274 C3266 1.574 . S
C3274 H3269 0.949 . S
C3274 C3280 1.368 . S
C3275 C3259 1.349 . S
C3275 H3267 0.950 . S
C3275 C3273 1.327 . S
C3276 C3264 1.349 . S
C3276 H3270 0.950 . S
C3276 C3277 1.327 . S
C3277 H3271 0.950 . S
C3277 C3276 1.327 . S
C3277 C3281 1.429 . S
C3278 C3261 1.574 . S
C3278 H3272 0.949 . S
C3278 C3282 1.368 . S
C3279 C3260 1.429 . S
C3279 C3273 1.429 . S
C3279 C3280 1.523 . S
C3280 C3261 1.368 . S
C3280 C3274 1.368 . S
C3280 C3279 1.523 . S
C3281 C3265 1.429 . S
C3281 C3277 1.429 . S
C3281 C3282 1.523 . S
C3282 C3266 1.368 . S
C3282 C3278 1.368 . S
C3282 C3281 1.523 . S
H3283 C3258 0.950 . S
H3284 C3260 0.950 . S
H3285 C3261 0.949 . S
H3286 C3263 0.950 . S
H3287 C3265 0.950 . S
C3288 C3289 1.349 . S
C3288 C3290 1.327 . S
C3288 H3313 0.950 . S
C3289 C3288 1.349 . S
C3289 C3305 1.349 . S
C3290 C3288 1.327 . S
C3290 C3309 1.429 . S
C3290 H3314 0.950 . S
C3291 C3308 1.574 . S
C3291 C3310 1.368 . S
C3291 H3315 0.949 . S
H3292 C3296 0.949 . S
C3293 C3294 1.349 . S
C3293 C3295 1.327 . S
C3293 H3316 0.950 . S
C3294 C3293 1.349 . S
C3294 C3306 1.349 . S
C3295 C3293 1.327 . S
C3295 C3311 1.429 . S
C3295 H3317 0.950 . S
C3296 H3292 0.949 . S
C3296 C3304 1.574 . S
C3296 C3312 1.368 . S
H3297 C3305 0.950 . S
H3298 C3303 0.950 . S
H3299 C3304 0.949 . S
H3300 C3306 0.950 . S
H3301 C3307 0.950 . S
H3302 C3308 0.949 . S
C3303 H3298 0.950 . S
C3303 C3305 1.327 . S
C3303 C3309 1.429 . S
C3304 C3296 1.574 . S
C3304 H3299 0.949 . S
C3304 C3310 1.368 . S
C3305 C3289 1.349 . S
C3305 H3297 0.950 . S
C3305 C3303 1.327 . S
C3306 C3294 1.349 . S
C3306 H3300 0.950 . S
C3306 C3307 1.327 . S
C3307 H3301 0.950 . S
C3307 C3306 1.327 . S
C3307 C3311 1.429 . S
C3308 C3291 1.574 . S
C3308 H3302 0.949 . S
C3308 C3312 1.368 . S
C3309 C3290 1.429 . S
C3309 C3303 1.429 . S
C3309 C3310 1.523 . S
C3310 C3291 1.368 . S
C3310 C3304 1.368 . S
C3310 C3309 1.523 . S
C3311 C3295 1.429 . S
C3311 C3307 1.429 . S
C3311 C3312 1.523 . S
C3312 C3296 1.368 . S
C3312 C3308 1.368 . S
C3312 C3311 1.523 . S
H3313 C3288 0.950 . S
H3314 C3290 0.950 . S
H3315 C3291 0.949 . S
H3316 C3293 0.950 . S
H3317 C3295 0.950 . S
C3318 C3319 1.349 . S
C3318 C3320 1.327 . S
C3318 H3343 0.950 . S
C3319 C3318 1.349 . S
C3319 C3335 1.349 . S
C3320 C3318 1.327 . S
C3320 C3339 1.429 . S
C3320 H3344 0.950 . S
C3321 C3338 1.574 . S
C3321 C3340 1.368 . S
C3321 H3345 0.949 . S
H3322 C3326 0.949 . S
C3323 C3324 1.349 . S
C3323 C3325 1.327 . S
C3323 H3346 0.950 . S
C3324 C3323 1.349 . S
C3324 C3336 1.349 . S
C3325 C3323 1.327 . S
C3325 C3341 1.429 . S
C3325 H3347 0.950 . S
C3326 H3322 0.949 . S
C3326 C3334 1.574 . S
C3326 C3342 1.368 . S
H3327 C3335 0.950 . S
H3328 C3333 0.950 . S
H3329 C3334 0.949 . S
H3330 C3336 0.950 . S
H3331 C3337 0.950 . S
H3332 C3338 0.949 . S
C3333 H3328 0.950 . S
C3333 C3335 1.327 . S
C3333 C3339 1.429 . S
C3334 C3326 1.574 . S
C3334 H3329 0.949 . S
C3334 C3340 1.368 . S
C3335 C3319 1.349 . S
C3335 H3327 0.950 . S
C3335 C3333 1.327 . S
C3336 C3324 1.349 . S
C3336 H3330 0.950 . S
C3336 C3337 1.327 . S
C3337 H3331 0.950 . S
C3337 C3336 1.327 . S
C3337 C3341 1.429 . S
C3338 C3321 1.574 . S
C3338 H3332 0.949 . S
C3338 C3342 1.368 . S
C3339 C3320 1.429 . S
C3339 C3333 1.429 . S
C3339 C3340 1.523 . S
C3340 C3321 1.368 . S
C3340 C3334 1.368 . S
C3340 C3339 1.523 . S
C3341 C3325 1.429 . S
C3341 C3337 1.429 . S
C3341 C3342 1.523 . S
C3342 C3326 1.368 . S
C3342 C3338 1.368 . S
C3342 C3341 1.523 . S
H3343 C3318 0.950 . S
H3344 C3320 0.950 . S
H3345 C3321 0.949 . S
H3346 C3323 0.950 . S
H3347 C3325 0.950 . S
C3348 C3349 1.349 . S
C3348 C3350 1.327 . S
C3348 H3373 0.950 . S
C3349 C3348 1.349 . S
C3349 C3365 1.349 . S
C3350 C3348 1.327 . S
C3350 C3369 1.429 . S
C3350 H3374 0.950 . S
C3351 C3368 1.574 . S
C3351 C3370 1.368 . S
C3351 H3375 0.949 . S
H3352 C3356 0.949 . S
C3353 C3354 1.349 . S
C3353 C3355 1.327 . S
C3353 H3376 0.950 . S
C3354 C3353 1.349 . S
C3354 C3366 1.349 . S
C3355 C3353 1.327 . S
C3355 C3371 1.429 . S
C3355 H3377 0.950 . S
C3356 H3352 0.949 . S
C3356 C3364 1.574 . S
C3356 C3372 1.368 . S
H3357 C3365 0.950 . S
H3358 C3363 0.950 . S
H3359 C3364 0.949 . S
H3360 C3366 0.950 . S
H3361 C3367 0.950 . S
H3362 C3368 0.949 . S
C3363 H3358 0.950 . S
C3363 C3365 1.327 . S
C3363 C3369 1.429 . S
C3364 C3356 1.574 . S
C3364 H3359 0.949 . S
C3364 C3370 1.368 . S
C3365 C3349 1.349 . S
C3365 H3357 0.950 . S
C3365 C3363 1.327 . S
C3366 C3354 1.349 . S
C3366 H3360 0.950 . S
C3366 C3367 1.327 . S
C3367 H3361 0.950 . S
C3367 C3366 1.327 . S
C3367 C3371 1.429 . S
C3368 C3351 1.574 . S
C3368 H3362 0.949 . S
C3368 C3372 1.368 . S
C3369 C3350 1.429 . S
C3369 C3363 1.429 . S
C3369 C3370 1.523 . S
C3370 C3351 1.368 . S
C3370 C3364 1.368 . S
C3370 C3369 1.523 . S
C3371 C3355 1.429 . S
C3371 C3367 1.429 . S
C3371 C3372 1.523 . S
C3372 C3356 1.368 . S
C3372 C3368 1.368 . S
C3372 C3371 1.523 . S
H3373 C3348 0.950 . S
H3374 C3350 0.950 . S
H3375 C3351 0.949 . S
H3376 C3353 0.950 . S
H3377 C3355 0.950 . S
C3378 C3379 1.349 . S
C3378 C3380 1.327 . S
C3378 H3403 0.950 . S
C3379 C3378 1.349 . S
C3379 C3395 1.349 . S
C3380 C3378 1.327 . S
C3380 C3399 1.429 . S
C3380 H3404 0.950 . S
C3381 C3398 1.574 . S
C3381 C3400 1.368 . S
C3381 H3405 0.949 . S
H3382 C3386 0.949 . S
C3383 C3384 1.349 . S
C3383 C3385 1.327 . S
C3383 H3406 0.950 . S
C3384 C3383 1.349 . S
C3384 C3396 1.349 . S
C3385 C3383 1.327 . S
C3385 C3401 1.429 . S
C3385 H3407 0.950 . S
C3386 H3382 0.949 . S
C3386 C3394 1.574 . S
C3386 C3402 1.368 . S
H3387 C3395 0.950 . S
H3388 C3393 0.950 . S
H3389 C3394 0.949 . S
H3390 C3396 0.950 . S
H3391 C3397 0.950 . S
H3392 C3398 0.949 . S
C3393 H3388 0.950 . S
C3393 C3395 1.327 . S
C3393 C3399 1.429 . S
C3394 C3386 1.574 . S
C3394 H3389 0.949 . S
C3394 C3400 1.368 . S
C3395 C3379 1.349 . S
C3395 H3387 0.950 . S
C3395 C3393 1.327 . S
C3396 C3384 1.349 . S
C3396 H3390 0.950 . S
C3396 C3397 1.327 . S
C3397 H3391 0.950 . S
C3397 C3396 1.327 . S
C3397 C3401 1.429 . S
C3398 C3381 1.574 . S
C3398 H3392 0.949 . S
C3398 C3402 1.368 . S
C3399 C3380 1.429 . S
C3399 C3393 1.429 . S
C3399 C3400 1.523 . S
C3400 C3381 1.368 . S
C3400 C3394 1.368 . S
C3400 C3399 1.523 . S
C3401 C3385 1.429 . S
C3401 C3397 1.429 . S
C3401 C3402 1.523 . S
C3402 C3386 1.368 . S
C3402 C3398 1.368 . S
C3402 C3401 1.523 . S
H3403 C3378 0.950 . S
H3404 C3380 0.950 . S
H3405 C3381 0.949 . S
H3406 C3383 0.950 . S
H3407 C3385 0.950 . S
C3408 C3409 1.349 . S
C3408 C3410 1.327 . S
C3408 H3433 0.950 . S
C3409 C3408 1.349 . S
C3409 C3425 1.349 . S
C3410 C3408 1.327 . S
C3410 C3429 1.429 . S
C3410 H3434 0.950 . S
C3411 C3428 1.574 . S
C3411 C3430 1.368 . S
C3411 H3435 0.949 . S
H3412 C3416 0.949 . S
C3413 C3414 1.349 . S
C3413 C3415 1.327 . S
C3413 H3436 0.950 . S
C3414 C3413 1.349 . S
C3414 C3426 1.349 . S
C3415 C3413 1.327 . S
C3415 C3431 1.429 . S
C3415 H3437 0.950 . S
C3416 H3412 0.949 . S
C3416 C3424 1.574 . S
C3416 C3432 1.368 . S
H3417 C3425 0.950 . S
H3418 C3423 0.950 . S
H3419 C3424 0.949 . S
H3420 C3426 0.950 . S
H3421 C3427 0.950 . S
H3422 C3428 0.949 . S
C3423 H3418 0.950 . S
C3423 C3425 1.327 . S
C3423 C3429 1.429 . S
C3424 C3416 1.574 . S
C3424 H3419 0.949 . S
C3424 C3430 1.368 . S
C3425 C3409 1.349 . S
C3425 H3417 0.950 . S
C3425 C3423 1.327 . S
C3426 C3414 1.349 . S
C3426 H3420 0.950 . S
C3426 C3427 1.327 . S
C3427 H3421 0.950 . S
C3427 C3426 1.327 . S
C3427 C3431 1.429 . S
C3428 C3411 1.574 . S
C3428 H3422 0.949 . S
C3428 C3432 1.368 . S
C3429 C3410 1.429 . S
C3429 C3423 1.429 . S
C3429 C3430 1.523 . S
C3430 C3411 1.368 . S
C3430 C3424 1.368 . S
C3430 C3429 1.523 . S
C3431 C3415 1.429 . S
C3431 C3427 1.429 . S
C3431 C3432 1.523 . S
C3432 C3416 1.368 . S
C3432 C3428 1.368 . S
C3432 C3431 1.523 . S
H3433 C3408 0.950 . S
H3434 C3410 0.950 . S
H3435 C3411 0.949 . S
H3436 C3413 0.950 . S
H3437 C3415 0.950 . S
C3438 C3439 1.349 . S
C3438 C3440 1.327 . S
C3438 H3463 0.950 . S
C3439 C3438 1.349 . S
C3439 C3455 1.349 . S
C3440 C3438 1.327 . S
C3440 C3459 1.429 . S
C3440 H3464 0.950 . S
C3441 C3458 1.574 . S
C3441 C3460 1.368 . S
C3441 H3465 0.949 . S
H3442 C3446 0.949 . S
C3443 C3444 1.349 . S
C3443 C3445 1.327 . S
C3443 H3466 0.950 . S
C3444 C3443 1.349 . S
C3444 C3456 1.349 . S
C3445 C3443 1.327 . S
C3445 C3461 1.429 . S
C3445 H3467 0.950 . S
C3446 H3442 0.949 . S
C3446 C3454 1.574 . S
C3446 C3462 1.368 . S
H3447 C3455 0.950 . S
H3448 C3453 0.950 . S
H3449 C3454 0.949 . S
H3450 C3456 0.950 . S
H3451 C3457 0.950 . S
H3452 C3458 0.949 . S
C3453 H3448 0.950 . S
C3453 C3455 1.327 . S
C3453 C3459 1.429 . S
C3454 C3446 1.574 . S
C3454 H3449 0.949 . S
C3454 C3460 1.368 . S
C3455 C3439 1.349 . S
C3455 H3447 0.950 . S
C3455 C3453 1.327 . S
C3456 C3444 1.349 . S
C3456 H3450 0.950 . S
C3456 C3457 1.327 . S
C3457 H3451 0.950 . S
C3457 C3456 1.327 . S
C3457 C3461 1.429 . S
C3458 C3441 1.574 . S
C3458 H3452 0.949 . S
C3458 C3462 1.368 . S
C3459 C3440 1.429 . S
C3459 C3453 1.429 . S
C3459 C3460 1.523 . S
C3460 C3441 1.368 . S
C3460 C3454 1.368 . S
C3460 C3459 1.523 . S
C3461 C3445 1.429 . S
C3461 C3457 1.429 . S
C3461 C3462 1.523 . S
C3462 C3446 1.368 . S
C3462 C3458 1.368 . S
C3462 C3461 1.523 . S
H3463 C3438 0.950 . S
H3464 C3440 0.950 . S
H3465 C3441 0.949 . S
H3466 C3443 0.950 . S
H3467 C3445 0.950 . S
C3468 C3469 1.349 . S
C3468 C3470 1.327 . S
C3468 H3493 0.950 . S
C3469 C3468 1.349 . S
C3469 C3485 1.349 . S
C3470 C3468 1.327 . S
C3470 C3489 1.429 . S
C3470 H3494 0.950 . S
C3471 C3488 1.574 . S
C3471 C3490 1.368 . S
C3471 H3495 0.949 . S
H3472 C3476 0.949 . S
C3473 C3474 1.349 . S
C3473 C3475 1.327 . S
C3473 H3496 0.950 . S
C3474 C3473 1.349 . S
C3474 C3486 1.349 . S
C3475 C3473 1.327 . S
C3475 C3491 1.429 . S
C3475 H3497 0.950 . S
C3476 H3472 0.949 . S
C3476 C3484 1.574 . S
C3476 C3492 1.368 . S
H3477 C3485 0.950 . S
H3478 C3483 0.950 . S
H3479 C3484 0.949 . S
H3480 C3486 0.950 . S
H3481 C3487 0.950 . S
H3482 C3488 0.949 . S
C3483 H3478 0.950 . S
C3483 C3485 1.327 . S
C3483 C3489 1.429 . S
C3484 C3476 1.574 . S
C3484 H3479 0.949 . S
C3484 C3490 1.368 . S
C3485 C3469 1.349 . S
C3485 H3477 0.950 . S
C3485 C3483 1.327 . S
C3486 C3474 1.349 . S
C3486 H3480 0.950 . S
C3486 C3487 1.327 . S
C3487 H3481 0.950 . S
C3487 C3486 1.327 . S
C3487 C3491 1.429 . S
C3488 C3471 1.574 . S
C3488 H3482 0.949 . S
C3488 C3492 1.368 . S
C3489 C3470 1.429 . S
C3489 C3483 1.429 . S
C3489 C3490 1.523 . S
C3490 C3471 1.368 . S
C3490 C3484 1.368 . S
C3490 C3489 1.523 . S
C3491 C3475 1.429 . S
C3491 C3487 1.429 . S
C3491 C3492 1.523 . S
C3492 C3476 1.368 . S
C3492 C3488 1.368 . S
C3492 C3491 1.523 . S
H3493 C3468 0.950 . S
H3494 C3470 0.950 . S
H3495 C3471 0.949 . S
H3496 C3473 0.950 . S
H3497 C3475 0.950 . S
C3498 C3499 1.349 . S
C3498 C3500 1.327 . S
C3498 H3523 0.950 . S
C3499 C3498 1.349 . S
C3499 C3515 1.349 . S
C3500 C3498 1.327 . S
C3500 C3519 1.429 . S
C3500 H3524 0.950 . S
C3501 C3518 1.574 . S
C3501 C3520 1.368 . S
C3501 H3525 0.949 . S
H3502 C3506 0.949 . S
C3503 C3504 1.349 . S
C3503 C3505 1.327 . S
C3503 H3526 0.950 . S
C3504 C3503 1.349 . S
C3504 C3516 1.349 . S
C3505 C3503 1.327 . S
C3505 C3521 1.429 . S
C3505 H3527 0.950 . S
C3506 H3502 0.949 . S
C3506 C3514 1.574 . S
C3506 C3522 1.368 . S
H3507 C3515 0.950 . S
H3508 C3513 0.950 . S
H3509 C3514 0.949 . S
H3510 C3516 0.950 . S
H3511 C3517 0.950 . S
H3512 C3518 0.949 . S
C3513 H3508 0.950 . S
C3513 C3515 1.327 . S
C3513 C3519 1.429 . S
C3514 C3506 1.574 . S
C3514 H3509 0.949 . S
C3514 C3520 1.368 . S
C3515 C3499 1.349 . S
C3515 H3507 0.950 . S
C3515 C3513 1.327 . S
C3516 C3504 1.349 . S
C3516 H3510 0.950 . S
C3516 C3517 1.327 . S
C3517 H3511 0.950 . S
C3517 C3516 1.327 . S
C3517 C3521 1.429 . S
C3518 C3501 1.574 . S
C3518 H3512 0.949 . S
C3518 C3522 1.368 . S
C3519 C3500 1.429 . S
C3519 C3513 1.429 . S
C3519 C3520 1.523 . S
C3520 C3501 1.368 . S
C3520 C3514 1.368 . S
C3520 C3519 1.523 . S
C3521 C3505 1.429 . S
C3521 C3517 1.429 . S
C3521 C3522 1.523 . S
C3522 C3506 1.368 . S
C3522 C3518 1.368 . S
C3522 C3521 1.523 . S
H3523 C3498 0.950 . S
H3524 C3500 0.950 . S
H3525 C3501 0.949 . S
H3526 C3503 0.950 . S
H3527 C3505 0.950 . S
C3528 C3529 1.349 . S
C3528 C3530 1.327 . S
C3528 H3553 0.950 . S
C3529 C3528 1.349 . S
C3529 C3545 1.349 . S
C3530 C3528 1.327 . S
C3530 C3549 1.429 . S
C3530 H3554 0.950 . S
C3531 C3548 1.574 . S
C3531 C3550 1.368 . S
C3531 H3555 0.949 . S
H3532 C3536 0.949 . S
C3533 C3534 1.349 . S
C3533 C3535 1.327 . S
C3533 H3556 0.950 . S
C3534 C3533 1.349 . S
C3534 C3546 1.349 . S
C3535 C3533 1.327 . S
C3535 C3551 1.429 . S
C3535 H3557 0.950 . S
C3536 H3532 0.949 . S
C3536 C3544 1.574 . S
C3536 C3552 1.368 . S
H3537 C3545 0.950 . S
H3538 C3543 0.950 . S
H3539 C3544 0.949 . S
H3540 C3546 0.950 . S
H3541 C3547 0.950 . S
H3542 C3548 0.949 . S
C3543 H3538 0.950 . S
C3543 C3545 1.327 . S
C3543 C3549 1.429 . S
C3544 C3536 1.574 . S
C3544 H3539 0.949 . S
C3544 C3550 1.368 . S
C3545 C3529 1.349 . S
C3545 H3537 0.950 . S
C3545 C3543 1.327 . S
C3546 C3534 1.349 . S
C3546 H3540 0.950 . S
C3546 C3547 1.327 . S
C3547 H3541 0.950 . S
C3547 C3546 1.327 . S
C3547 C3551 1.429 . S
C3548 C3531 1.574 . S
C3548 H3542 0.949 . S
C3548 C3552 1.368 . S
C3549 C3530 1.429 . S
C3549 C3543 1.429 . S
C3549 C3550 1.523 . S
C3550 C3531 1.368 . S
C3550 C3544 1.368 . S
C3550 C3549 1.523 . S
C3551 C3535 1.429 . S
C3551 C3547 1.429 . S
C3551 C3552 1.523 . S
C3552 C3536 1.368 . S
C3552 C3548 1.368 . S
C3552 C3551 1.523 . S
H3553 C3528 0.950 . S
H3554 C3530 0.950 . S
H3555 C3531 0.949 . S
H3556 C3533 0.950 . S
H3557 C3535 0.950 . S
C3558 C3559 1.349 . S
C3558 C3560 1.327 . S
C3558 H3583 0.950 . S
C3559 C3558 1.349 . S
C3559 C3575 1.349 . S
C3560 C3558 1.327 . S
C3560 C3579 1.429 . S
C3560 H3584 0.950 . S
C3561 C3578 1.574 . S
C3561 C3580 1.368 . S
C3561 H3585 0.949 . S
H3562 C3566 0.949 . S
C3563 C3564 1.349 . S
C3563 C3565 1.327 . S
C3563 H3586 0.950 . S
C3564 C3563 1.349 . S
C3564 C3576 1.349 . S
C3565 C3563 1.327 . S
C3565 C3581 1.429 . S
C3565 H3587 0.950 . S
C3566 H3562 0.949 . S
C3566 C3574 1.574 . S
C3566 C3582 1.368 . S
H3567 C3575 0.950 . S
H3568 C3573 0.950 . S
H3569 C3574 0.949 . S
H3570 C3576 0.950 . S
H3571 C3577 0.950 . S
H3572 C3578 0.949 . S
C3573 H3568 0.950 . S
C3573 C3575 1.327 . S
C3573 C3579 1.429 . S
C3574 C3566 1.574 . S
C3574 H3569 0.949 . S
C3574 C3580 1.368 . S
C3575 C3559 1.349 . S
C3575 H3567 0.950 . S
C3575 C3573 1.327 . S
C3576 C3564 1.349 . S
C3576 H3570 0.950 . S
C3576 C3577 1.327 . S
C3577 H3571 0.950 . S
C3577 C3576 1.327 . S
C3577 C3581 1.429 . S
C3578 C3561 1.574 . S
C3578 H3572 0.949 . S
C3578 C3582 1.368 . S
C3579 C3560 1.429 . S
C3579 C3573 1.429 . S
C3579 C3580 1.523 . S
C3580 C3561 1.368 . S
C3580 C3574 1.368 . S
C3580 C3579 1.523 . S
C3581 C3565 1.429 . S
C3581 C3577 1.429 . S
C3581 C3582 1.523 . S
C3582 C3566 1.368 . S
C3582 C3578 1.368 . S
C3582 C3581 1.523 . S
H3583 C3558 0.950 . S
H3584 C3560 0.950 . S
H3585 C3561 0.949 . S
H3586 C3563 0.950 . S
H3587 C3565 0.950 . S
C3588 C3589 1.349 . S
C3588 C3590 1.327 . S
C3588 H3613 0.950 . S
C3589 C3588 1.349 . S
C3589 C3605 1.349 . S
C3590 C3588 1.327 . S
C3590 C3609 1.429 . S
C3590 H3614 0.950 . S
C3591 C3608 1.574 . S
C3591 C3610 1.368 . S
C3591 H3615 0.949 . S
H3592 C3596 0.949 . S
C3593 C3594 1.349 . S
C3593 C3595 1.327 . S
C3593 H3616 0.950 . S
C3594 C3593 1.349 . S
C3594 C3606 1.349 . S
C3595 C3593 1.327 . S
C3595 C3611 1.429 . S
C3595 H3617 0.950 . S
C3596 H3592 0.949 . S
C3596 C3604 1.574 . S
C3596 C3612 1.368 . S
H3597 C3605 0.950 . S
H3598 C3603 0.950 . S
H3599 C3604 0.949 . S
H3600 C3606 0.950 . S
H3601 C3607 0.950 . S
H3602 C3608 0.949 . S
C3603 H3598 0.950 . S
C3603 C3605 1.327 . S
C3603 C3609 1.429 . S
C3604 C3596 1.574 . S
C3604 H3599 0.949 . S
C3604 C3610 1.368 . S
C3605 C3589 1.349 . S
C3605 H3597 0.950 . S
C3605 C3603 1.327 . S
C3606 C3594 1.349 . S
C3606 H3600 0.950 . S
C3606 C3607 1.327 . S
C3607 H3601 0.950 . S
C3607 C3606 1.327 . S
C3607 C3611 1.429 . S
C3608 C3591 1.574 . S
C3608 H3602 0.949 . S
C3608 C3612 1.368 . S
C3609 C3590 1.429 . S
C3609 C3603 1.429 . S
C3609 C3610 1.523 . S
C3610 C3591 1.368 . S
C3610 C3604 1.368 . S
C3610 C3609 1.523 . S
C3611 C3595 1.429 . S
C3611 C3607 1.429 . S
C3611 C3612 1.523 . S
C3612 C3596 1.368 . S
C3612 C3608 1.368 . S
C3612 C3611 1.523 . S
H3613 C3588 0.950 . S
H3614 C3590 0.950 . S
H3615 C3591 0.949 . S
H3616 C3593 0.950 . S
H3617 C3595 0.950 . S
C3618 C3619 1.349 . S
C3618 C3620 1.327 . S
C3618 H3643 0.950 . S
C3619 C3618 1.349 . S
C3619 C3635 1.349 . S
C3620 C3618 1.327 . S
C3620 C3639 1.429 . S
C3620 H3644 0.950 . S
C3621 C3638 1.574 . S
C3621 C3640 1.368 . S
C3621 H3645 0.949 . S
H3622 C3626 0.949 . S
C3623 C3624 1.349 . S
C3623 C3625 1.327 . S
C3623 H3646 0.950 . S
C3624 C3623 1.349 . S
C3624 C3636 1.349 . S
C3625 C3623 1.327 . S
C3625 C3641 1.429 . S
C3625 H3647 0.950 . S
C3626 H3622 0.949 . S
C3626 C3634 1.574 . S
C3626 C3642 1.368 . S
H3627 C3635 0.950 . S
H3628 C3633 0.950 . S
H3629 C3634 0.949 . S
H3630 C3636 0.950 . S
H3631 C3637 0.950 . S
H3632 C3638 0.949 . S
C3633 H3628 0.950 . S
C3633 C3635 1.327 . S
C3633 C3639 1.429 . S
C3634 C3626 1.574 . S
C3634 H3629 0.949 . S
C3634 C3640 1.368 . S
C3635 C3619 1.349 . S
C3635 H3627 0.950 . S
C3635 C3633 1.327 . S
C3636 C3624 1.349 . S
C3636 H3630 0.950 . S
C3636 C3637 1.327 . S
C3637 H3631 0.950 . S
C3637 C3636 1.327 . S
C3637 C3641 1.429 . S
C3638 C3621 1.574 . S
C3638 H3632 0.949 . S
C3638 C3642 1.368 . S
C3639 C3620 1.429 . S
C3639 C3633 1.429 . S
C3639 C3640 1.523 . S
C3640 C3621 1.368 . S
C3640 C3634 1.368 . S
C3640 C3639 1.523 . S
C3641 C3625 1.429 . S
C3641 C3637 1.429 . S
C3641 C3642 1.523 . S
C3642 C3626 1.368 . S
C3642 C3638 1.368 . S
C3642 C3641 1.523 . S
H3643 C3618 0.950 . S
H3644 C3620 0.950 . S
H3645 C3621 0.949 . S
H3646 C3623 0.950 . S
H3647 C3625 0.950 . S
C3648 C3649 1.349 . S
C3648 C3650 1.327 . S
C3648 H3673 0.950 . S
C3649 C3648 1.349 . S
C3649 C3665 1.349 . S
C3650 C3648 1.327 . S
C3650 C3669 1.429 . S
C3650 H3674 0.950 . S
C3651 C3668 1.574 . S
C3651 C3670 1.368 . S
C3651 H3675 0.949 . S
H3652 C3656 0.949 . S
C3653 C3654 1.349 . S
C3653 C3655 1.327 . S
C3653 H3676 0.950 . S
C3654 C3653 1.349 . S
C3654 C3666 1.349 . S
C3655 C3653 1.327 . S
C3655 C3671 1.429 . S
C3655 H3677 0.950 . S
C3656 H3652 0.949 . S
C3656 C3664 1.574 . S
C3656 C3672 1.368 . S
H3657 C3665 0.950 . S
H3658 C3663 0.950 . S
H3659 C3664 0.949 . S
H3660 C3666 0.950 . S
H3661 C3667 0.950 . S
H3662 C3668 0.949 . S
C3663 H3658 0.950 . S
C3663 C3665 1.327 . S
C3663 C3669 1.429 . S
C3664 C3656 1.574 . S
C3664 H3659 0.949 . S
C3664 C3670 1.368 . S
C3665 C3649 1.349 . S
C3665 H3657 0.950 . S
C3665 C3663 1.327 . S
C3666 C3654 1.349 . S
C3666 H3660 0.950 . S
C3666 C3667 1.327 . S
C3667 H3661 0.950 . S
C3667 C3666 1.327 . S
C3667 C3671 1.429 . S
C3668 C3651 1.574 . S
C3668 H3662 0.949 . S
C3668 C3672 1.368 . S
C3669 C3650 1.429 . S
C3669 C3663 1.429 . S
C3669 C3670 1.523 . S
C3670 C3651 1.368 . S
C3670 C3664 1.368 . S
C3670 C3669 1.523 . S
C3671 C3655 1.429 . S
C3671 C3667 1.429 . S
C3671 C3672 1.523 . S
C3672 C3656 1.368 . S
C3672 C3668 1.368 . S
C3672 C3671 1.523 . S
H3673 C3648 0.950 . S
H3674 C3650 0.950 . S
H3675 C3651 0.949 . S
H3676 C3653 0.950 . S
H3677 C3655 0.950 . S
C3678 C3679 1.349 . S
C3678 C3680 1.327 . S
C3678 H3703 0.950 . S
C3679 C3678 1.349 . S
C3679 C3695 1.349 . S
C3680 C3678 1.327 . S
C3680 C3699 1.429 . S
C3680 H3704 0.950 . S
C3681 C3698 1.574 . S
C3681 C3700 1.368 . S
C3681 H3705 0.949 . S
H3682 C3686 0.949 . S
C3683 C3684 1.349 . S
C3683 C3685 1.327 . S
C3683 H3706 0.950 . S
C3684 C3683 1.349 . S
C3684 C3696 1.349 . S
C3685 C3683 1.327 . S
C3685 C3701 1.429 . S
C3685 H3707 0.950 . S
C3686 H3682 0.949 . S
C3686 C3694 1.574 . S
C3686 C3702 1.368 . S
H3687 C3695 0.950 . S
H3688 C3693 0.950 . S
H3689 C3694 0.949 . S
H3690 C3696 0.950 . S
H3691 C3697 0.950 . S
H3692 C3698 0.949 . S
C3693 H3688 0.950 . S
C3693 C3695 1.327 . S
C3693 C3699 1.429 . S
C3694 C3686 1.574 . S
C3694 H3689 0.949 . S
C3694 C3700 1.368 . S
C3695 C3679 1.349 . S
C3695 H3687 0.950 . S
C3695 C3693 1.327 . S
C3696 C3684 1.349 . S
C3696 H3690 0.950 . S
C3696 C3697 1.327 . S
C3697 H3691 0.950 . S
C3697 C3696 1.327 . S
C3697 C3701 1.429 . S
C3698 C3681 1.574 . S
C3698 H3692 0.949 . S
C3698 C3702 1.368 . S
C3699 C3680 1.429 . S
C3699 C3693 1.429 . S
C3699 C3700 1.523 . S
C3700 C3681 1.368 . S
C3700 C3694 1.368 . S
C3700 C3699 1.523 . S
C3701 C3685 1.429 . S
C3701 C3697 1.429 . S
C3701 C3702 1.523 . S
C3702 C3686 1.368 . S
C3702 C3698 1.368 . S
C3702 C3701 1.523 . S
H3703 C3678 0.950 . S
H3704 C3680 0.950 . S
H3705 C3681 0.949 . S
H3706 C3683 0.950 . S
H3707 C3685 0.950 . S
C3708 C3709 1.349 . S
C3708 C3710 1.327 . S
C3708 H3733 0.950 . S
C3709 C3708 1.349 . S
C3709 C3725 1.349 . S
C3710 C3708 1.327 . S
C3710 C3729 1.429 . S
C3710 H3734 0.950 . S
C3711 C3728 1.574 . S
C3711 C3730 1.368 . S
C3711 H3735 0.949 . S
H3712 C3716 0.949 . S
C3713 C3714 1.349 . S
C3713 C3715 1.327 . S
C3713 H3736 0.950 . S
C3714 C3713 1.349 . S
C3714 C3726 1.349 . S
C3715 C3713 1.327 . S
C3715 C3731 1.429 . S
C3715 H3737 0.950 . S
C3716 H3712 0.949 . S
C3716 C3724 1.574 . S
C3716 C3732 1.368 . S
H3717 C3725 0.950 . S
H3718 C3723 0.950 . S
H3719 C3724 0.949 . S
H3720 C3726 0.950 . S
H3721 C3727 0.950 . S
H3722 C3728 0.949 . S
C3723 H3718 0.950 . S
C3723 C3725 1.327 . S
C3723 C3729 1.429 . S
C3724 C3716 1.574 . S
C3724 H3719 0.949 . S
C3724 C3730 1.368 . S
C3725 C3709 1.349 . S
C3725 H3717 0.950 . S
C3725 C3723 1.327 . S
C3726 C3714 1.349 . S
C3726 H3720 0.950 . S
C3726 C3727 1.327 . S
C3727 H3721 0.950 . S
C3727 C3726 1.327 . S
C3727 C3731 1.429 . S
C3728 C3711 1.574 . S
C3728 H3722 0.949 . S
C3728 C3732 1.368 . S
C3729 C3710 1.429 . S
C3729 C3723 1.429 . S
C3729 C3730 1.523 . S
C3730 C3711 1.368 . S
C3730 C3724 1.368 . S
C3730 C3729 1.523 . S
C3731 C3715 1.429 . S
C3731 C3727 1.429 . S
C3731 C3732 1.523 . S
C3732 C3716 1.368 . S
C3732 C3728 1.368 . S
C3732 C3731 1.523 . S
H3733 C3708 0.950 . S
H3734 C3710 0.950 . S
H3735 C3711 0.949 . S
H3736 C3713 0.950 . S
H3737 C3715 0.950 . S
C3738 C3739 1.349 . S
C3738 C3740 1.327 . S
C3738 H3763 0.950 . S
C3739 C3738 1.349 . S
C3739 C3755 1.349 . S
C3740 C3738 1.327 . S
C3740 C3759 1.429 . S
C3740 H3764 0.950 . S
C3741 C3758 1.574 . S
C3741 C3760 1.368 . S
C3741 H3765 0.949 . S
H3742 C3746 0.949 . S
C3743 C3744 1.349 . S
C3743 C3745 1.327 . S
C3743 H3766 0.950 . S
C3744 C3743 1.349 . S
C3744 C3756 1.349 . S
C3745 C3743 1.327 . S
C3745 C3761 1.429 . S
C3745 H3767 0.950 . S
C3746 H3742 0.949 . S
C3746 C3754 1.574 . S
C3746 C3762 1.368 . S
H3747 C3755 0.950 . S
H3748 C3753 0.950 . S
H3749 C3754 0.949 . S
H3750 C3756 0.950 . S
H3751 C3757 0.950 . S
H3752 C3758 0.949 . S
C3753 H3748 0.950 . S
C3753 C3755 1.327 . S
C3753 C3759 1.429 . S
C3754 C3746 1.574 . S
C3754 H3749 0.949 . S
C3754 C3760 1.368 . S
C3755 C3739 1.349 . S
C3755 H3747 0.950 . S
C3755 C3753 1.327 . S
C3756 C3744 1.349 . S
C3756 H3750 0.950 . S
C3756 C3757 1.327 . S
C3757 H3751 0.950 . S
C3757 C3756 1.327 . S
C3757 C3761 1.429 . S
C3758 C3741 1.574 . S
C3758 H3752 0.949 . S
C3758 C3762 1.368 . S
C3759 C3740 1.429 . S
C3759 C3753 1.429 . S
C3759 C3760 1.523 . S
C3760 C3741 1.368 . S
C3760 C3754 1.368 . S
C3760 C3759 1.523 . S
C3761 C3745 1.429 . S
C3761 C3757 1.429 . S
C3761 C3762 1.523 . S
C3762 C3746 1.368 . S
C3762 C3758 1.368 . S
C3762 C3761 1.523 . S
H3763 C3738 0.950 . S
H3764 C3740 0.950 . S
H3765 C3741 0.949 . S
H3766 C3743 0.950 . S
H3767 C3745 0.950 . S
C3768 C3769 1.349 . S
C3768 C3770 1.327 . S
C3768 H3793 0.950 . S
C3769 C3768 1.349 . S
C3769 C3785 1.349 . S
C3770 C3768 1.327 . S
C3770 C3789 1.429 . S
C3770 H3794 0.950 . S
C3771 C3788 1.574 . S
C3771 C3790 1.368 . S
C3771 H3795 0.949 . S
H3772 C3776 0.949 . S
C3773 C3774 1.349 . S
C3773 C3775 1.327 . S
C3773 H3796 0.950 . S
C3774 C3773 1.349 . S
C3774 C3786 1.349 . S
C3775 C3773 1.327 . S
C3775 C3791 1.429 . S
C3775 H3797 0.950 . S
C3776 H3772 0.949 . S
C3776 C3784 1.574 . S
C3776 C3792 1.368 . S
H3777 C3785 0.950 . S
H3778 C3783 0.950 . S
H3779 C3784 0.949 . S
H3780 C3786 0.950 . S
H3781 C3787 0.950 . S
H3782 C3788 0.949 . S
C3783 H3778 0.950 . S
C3783 C3785 1.327 . S
C3783 C3789 1.429 . S
C3784 C3776 1.574 . S
C3784 H3779 0.949 . S
C3784 C3790 1.368 . S
C3785 C3769 1.349 . S
C3785 H3777 0.950 . S
C3785 C3783 1.327 . S
C3786 C3774 1.349 . S
C3786 H3780 0.950 . S
C3786 C3787 1.327 . S
C3787 H3781 0.950 . S
C3787 C3786 1.327 . S
C3787 C3791 1.429 . S
C3788 C3771 1.574 . S
C3788 H3782 0.949 . S
C3788 C3792 1.368 . S
C3789 C3770 1.429 . S
C3789 C3783 1.429 . S
C3789 C3790 1.523 . S
C3790 C3771 1.368 . S
C3790 C3784 1.368 . S
C3790 C3789 1.523 . S
C3791 C3775 1.429 . S
C3791 C3787 1.429 . S
C3791 C3792 1.523 . S
C3792 C3776 1.368 . S
C3792 C3788 1.368 . S
C3792 C3791 1.523 . S
H3793 C3768 0.950 . S
H3794 C3770 0.950 . S
H3795 C3771 0.949 . S
H3796 C3773 0.950 . S
H3797 C3775 0.950 . S
C3798 C3799 1.349 . S
C3798 C3800 1.327 . S
C3798 H3823 0.950 . S
C3799 C3798 1.349 . S
C3799 C3815 1.349 . S
C3800 C3798 1.327 . S
C3800 C3819 1.429 . S
C3800 H3824 0.950 . S
C3801 C3818 1.574 . S
C3801 C3820 1.368 . S
C3801 H3825 0.949 . S
H3802 C3806 0.949 . S
C3803 C3804 1.349 . S
C3803 C3805 1.327 . S
C3803 H3826 0.950 . S
C3804 C3803 1.349 . S
C3804 C3816 1.349 . S
C3805 C3803 1.327 . S
C3805 C3821 1.429 . S
C3805 H3827 0.950 . S
C3806 H3802 0.949 . S
C3806 C3814 1.574 . S
C3806 C3822 1.368 . S
H3807 C3815 0.950 . S
H3808 C3813 0.950 . S
H3809 C3814 0.949 . S
H3810 C3816 0.950 . S
H3811 C3817 0.950 . S
H3812 C3818 0.949 . S
C3813 H3808 0.950 . S
C3813 C3815 1.327 . S
C3813 C3819 1.429 . S
C3814 C3806 1.574 . S
C3814 H3809 0.949 . S
C3814 C3820 1.368 . S
C3815 C3799 1.349 . S
C3815 H3807 0.950 . S
C3815 C3813 1.327 . S
C3816 C3804 1.349 . S
C3816 H3810 0.950 . S
C3816 C3817 1.327 . S
C3817 H3811 0.950 . S
C3817 C3816 1.327 . S
C3817 C3821 1.429 . S
C3818 C3801 1.574 . S
C3818 H3812 0.949 . S
C3818 C3822 1.368 . S
C3819 C3800 1.429 . S
C3819 C3813 1.429 . S
C3819 C3820 1.523 . S
C3820 C3801 1.368 . S
C3820 C3814 1.368 . S
C3820 C3819 1.523 . S
C3821 C3805 1.429 . S
C3821 C3817 1.429 . S
C3821 C3822 1.523 . S
C3822 C3806 1.368 . S
C3822 C3818 1.368 . S
C3822 C3821 1.523 . S
H3823 C3798 0.950 . S
H3824 C3800 0.950 . S
H3825 C3801 0.949 . S
H3826 C3803 0.950 . S
H3827 C3805 0.950 . S
C3828 C3829 1.349 . S
C3828 C3830 1.327 . S
C3828 H3853 0.950 . S
C3829 C3828 1.349 . S
C3829 C3845 1.349 . S
C3830 C3828 1.327 . S
C3830 C3849 1.429 . S
C3830 H3854 0.950 . S
C3831 C3848 1.574 . S
C3831 C3850 1.368 . S
C3831 H3855 0.949 . S
H3832 C3836 0.949 . S
C3833 C3834 1.349 . S
C3833 C3835 1.327 . S
C3833 H3856 0.950 . S
C3834 C3833 1.349 . S
C3834 C3846 1.349 . S
C3835 C3833 1.327 . S
C3835 C3851 1.429 . S
C3835 H3857 0.950 . S
C3836 H3832 0.949 . S
C3836 C3844 1.574 . S
C3836 C3852 1.368 . S
H3837 C3845 0.950 . S
H3838 C3843 0.950 . S
H3839 C3844 0.949 . S
H3840 C3846 0.950 . S
H3841 C3847 0.950 . S
H3842 C3848 0.949 . S
C3843 H3838 0.950 . S
C3843 C3845 1.327 . S
C3843 C3849 1.429 . S
C3844 C3836 1.574 . S
C3844 H3839 0.949 . S
C3844 C3850 1.368 . S
C3845 C3829 1.349 . S
C3845 H3837 0.950 . S
C3845 C3843 1.327 . S
C3846 C3834 1.349 . S
C3846 H3840 0.950 . S
C3846 C3847 1.327 . S
C3847 H3841 0.950 . S
C3847 C3846 1.327 . S
C3847 C3851 1.429 . S
C3848 C3831 1.574 . S
C3848 H3842 0.949 . S
C3848 C3852 1.368 . S
C3849 C3830 1.429 . S
C3849 C3843 1.429 . S
C3849 C3850 1.523 . S
C3850 C3831 1.368 . S
C3850 C3844 1.368 . S
C3850 C3849 1.523 . S
C3851 C3835 1.429 . S
C3851 C3847 1.429 . S
C3851 C3852 1.523 . S
C3852 C3836 1.368 . S
C3852 C3848 1.368 . S
C3852 C3851 1.523 . S
H3853 C3828 0.950 . S
H3854 C3830 0.950 . S
H3855 C3831 0.949 . S
H3856 C3833 0.950 . S
H3857 C3835 0.950 . S
C3858 C3859 1.349 . S
C3858 C3860 1.327 . S
C3858 H3883 0.950 . S
C3859 C3858 1.349 . S
C3859 C3875 1.349 . S
C3860 C3858 1.327 . S
C3860 C3879 1.429 . S
C3860 H3884 0.950 . S
C3861 C3878 1.574 . S
C3861 C3880 1.368 . S
C3861 H3885 0.949 . S
H3862 C3866 0.949 . S
C3863 C3864 1.349 . S
C3863 C3865 1.327 . S
C3863 H3886 0.950 . S
C3864 C3863 1.349 . S
C3864 C3876 1.349 . S
C3865 C3863 1.327 . S
C3865 C3881 1.429 . S
C3865 H3887 0.950 . S
C3866 H3862 0.949 . S
C3866 C3874 1.574 . S
C3866 C3882 1.368 . S
H3867 C3875 0.950 . S
H3868 C3873 0.950 . S
H3869 C3874 0.949 . S
H3870 C3876 0.950 . S
H3871 C3877 0.950 . S
H3872 C3878 0.949 . S
C3873 H3868 0.950 . S
C3873 C3875 1.327 . S
C3873 C3879 1.429 . S
C3874 C3866 1.574 . S
C3874 H3869 0.949 . S
C3874 C3880 1.368 . S
C3875 C3859 1.349 . S
C3875 H3867 0.950 . S
C3875 C3873 1.327 . S
C3876 C3864 1.349 . S
C3876 H3870 0.950 . S
C3876 C3877 1.327 . S
C3877 H3871 0.950 . S
C3877 C3876 1.327 . S
C3877 C3881 1.429 . S
C3878 C3861 1.574 . S
C3878 H3872 0.949 . S
C3878 C3882 1.368 . S
C3879 C3860 1.429 . S
C3879 C3873 1.429 . S
C3879 C3880 1.523 . S
C3880 C3861 1.368 . S
C3880 C3874 1.368 . S
C3880 C3879 1.523 . S
C3881 C3865 1.429 . S
C3881 C3877 1.429 . S
C3881 C3882 1.523 . S
C3882 C3866 1.368 . S
C3882 C3878 1.368 . S
C3882 C3881 1.523 . S
H3883 C3858 0.950 . S
H3884 C3860 0.950 . S
H3885 C3861 0.949 . S
H3886 C3863 0.950 . S
H3887 C3865 0.950 . S
C1189 C120 0.253 . S
C1194 C21 0.253 . S
C1219 C54 0.253 . S
C1224 C153 0.253 . S
C1249 C186 0.253 . S
C1254 C87 0.253 . S
C1279 C318 0.253 . S
C1284 C219 0.253 . S
C1309 C252 0.253 . S
C1314 C351 0.253 . S
C1339 C384 0.253 . S
C1344 C285 0.253 . S
C1369 C516 0.253 . S
C1374 C417 0.253 . S
C1399 C450 0.253 . S
C1404 C549 0.253 . S
C1429 C582 0.253 . S
C1434 C483 0.253 . S
C1459 C615 0.253 . S
C1464 C714 0.253 . S
C1489 C648 0.253 . S
C1494 C747 0.253 . S
C1519 C780 0.253 . S
C1524 C681 0.253 . S
C1549 C912 0.253 . S
C1554 C813 0.253 . S
C1579 C945 0.253 . S
C1584 C846 0.253 . S
C1609 C978 0.253 . S
C1614 C879 0.253 . S
C1639 C1110 0.253 . S
C1644 C1011 0.253 . S
C1669 C1044 0.253 . S
C1674 C1143 0.253 . S
C1699 C1176 0.253 . S
C1704 C1077 0.253 . S
C1729 C7 1.632 . S
C1734 C964 1.632 . S
C1759 C898 1.632 . S
C1764 C40 1.632 . S
C1789 C73 1.632 . S
C1794 C931 1.632 . S
C1819 C436 1.632 . S
C1824 C106 1.632 . S
C1849 C139 1.632 . S
C1854 C469 1.632 . S
C1879 C403 1.632 . S
C1884 C172 1.632 . S
C1909 C766 1.632 . S
C1914 C205 1.632 . S
C1939 C700 1.632 . S
C1944 C238 1.632 . S
C1969 C733 1.632 . S
C1974 C271 1.632 . S
C1999 C304 1.632 . S
C2004 C1030 1.632 . S
C2029 C1063 1.632 . S
C2034 C337 1.632 . S
C2059 C370 1.632 . S
C2064 C997 1.632 . S
C2089 C832 1.632 . S
C2094 C502 1.632 . S
C2119 C865 1.632 . S
C2124 C535 1.632 . S
C2149 C799 1.632 . S
C2154 C568 1.632 . S
C2179 C601 1.632 . S
C2184 C1162 1.632 . S
C2209 C634 1.632 . S
C2214 C1096 1.632 . S
C2239 C1129 1.632 . S
C2244 C667 1.632 . S
C2269 N13 1.191 . S
C2274 N607 1.191 . S
C2299 N640 1.191 . S
C2304 N46 1.191 . S
C2329 N79 1.191 . S
C2334 N673 1.191 . S
C2359 N1102 1.191 . S
C2364 N112 1.191 . S
C2389 N145 1.191 . S
C2394 N1135 1.191 . S
C2419 N1168 1.191 . S
C2424 N178 1.191 . S
C2449 N211 1.191 . S
C2454 N805 1.191 . S
C2479 N244 1.191 . S
C2484 N838 1.191 . S
C2509 N277 1.191 . S
C2514 N871 1.191 . S
C2539 N508 1.191 . S
C2544 N310 1.191 . S
C2569 N541 1.191 . S
C2574 N343 1.191 . S
C2599 N376 1.191 . S
C2604 N574 1.191 . S
C2629 N409 1.191 . S
C2634 N1003 1.191 . S
C2659 N1036 1.191 . S
C2664 N442 1.191 . S
C2689 N475 1.191 . S
C2694 N1069 1.191 . S
C2719 N904 1.191 . S
C2724 N706 1.191 . S
C2749 N739 1.191 . S
C2754 N937 1.191 . S
C2779 N970 1.191 . S
C2784 N772 1.191 . S
C2809 N233 1.564 . S
C2814 C18 1.631 . S
C2839 C51 1.631 . S
C2844 N266 1.564 . S
C2869 C84 1.631 . S
C2874 N200 1.564 . S
C2899 C117 1.631 . S
C2904 N365 1.564 . S
C2929 C150 1.631 . S
C2934 N299 1.564 . S
C2959 C183 1.631 . S
C2964 N332 1.564 . S
C2989 N35 1.564 . S
C2994 C216 1.631 . S
C3019 N68 1.564 . S
C3024 C249 1.631 . S
C3049 N2 1.564 . S
C3054 C282 1.631 . S
C3079 C315 1.631 . S
C3084 N167 1.564 . S
C3109 C348 1.631 . S
C3114 N101 1.564 . S
C3139 C381 1.631 . S
C3144 N134 1.564 . S
C3169 C414 1.631 . S
C3174 N629 1.564 . S
C3199 N662 1.564 . S
C3204 C447 1.631 . S
C3229 N596 1.564 . S
C3234 C480 1.631 . S
C3259 C513 1.631 . S
C3264 N761 1.564 . S
C3289 N695 1.564 . S
C3294 C546 1.631 . S
C3319 N728 1.564 . S
C3324 C579 1.631 . S
C3349 C612 1.631 . S
C3354 N431 1.564 . S
C3379 C645 1.631 . S
C3384 N464 1.564 . S
C3409 N398 1.564 . S
C3414 C678 1.631 . S
C3439 N563 1.564 . S
C3444 C711 1.631 . S
C3469 N497 1.564 . S
C3474 C744 1.631 . S
C3499 N530 1.564 . S
C3504 C777 1.631 . S
C3529 C810 1.631 . S
C3534 N1025 1.564 . S
C3559 N1058 1.564 . S
C3564 C843 1.631 . S
C3589 N992 1.564 . S
C3594 C876 1.631 . S
C3619 C909 1.631 . S
C3624 N1157 1.564 . S
C3649 C942 1.631 . S
C3654 N1091 1.564 . S
C3679 C975 1.631 . S
C3684 N1124 1.564 . S
C3709 N827 1.564 . S
C3714 C1008 1.631 . S
C3739 N860 1.564 . S
C3744 C1041 1.631 . S
C3769 C1074 1.631 . S
C3774 N794 1.564 . S
C3799 C1107 1.631 . S
C3804 N959 1.564 . S
C3829 C1140 1.631 . S
C3834 N893 1.564 . S
C3859 C1173 1.631 . S
C3864 N926 1.564 . S
