# Generated by pormake.
# Topology gsi, (4)-cn, num edge types: 1
# Building blocks:
#     Node 0, Type 0, BuildingBlock: CEKHIL_clean_sbu_0, # of connection points: 4
#     Node 1, Type 0, BuildingBlock: CEKHIL_clean_sbu_0, # of connection points: 4
#     Node 2, Type 0, BuildingBlock: CEKHIL_clean_sbu_0, # of connection points: 4
#     Node 3, Type 0, BuildingBlock: CEKHIL_clean_sbu_0, # of connection points: 4
#     Node 4, Type 0, BuildingBlock: CEKHIL_clean_sbu_0, # of connection points: 4
#     Node 5, Type 0, BuildingBlock: CEKHIL_clean_sbu_0, # of connection points: 4
#     Node 6, Type 0, BuildingBlock: CEKHIL_clean_sbu_0, # of connection points: 4
#     Node 7, Type 0, BuildingBlock: CEKHIL_clean_sbu_0, # of connection points: 4
#     Node 8, Type 0, BuildingBlock: CEKHIL_clean_sbu_0, # of connection points: 4
#     Node 9, Type 0, BuildingBlock: CEKHIL_clean_sbu_0, # of connection points: 4
#     Node 10, Type 0, BuildingBlock: CEKHIL_clean_sbu_0, # of connection points: 4
#     Node 11, Type 0, BuildingBlock: CEKHIL_clean_sbu_0, # of connection points: 4
#     Node 12, Type 0, BuildingBlock: CEKHIL_clean_sbu_0, # of connection points: 4
#     Node 13, Type 0, BuildingBlock: CEKHIL_clean_sbu_0, # of connection points: 4
#     Node 14, Type 0, BuildingBlock: CEKHIL_clean_sbu_0, # of connection points: 4
#     Node 15, Type 0, BuildingBlock: CEKHIL_clean_sbu_0, # of connection points: 4
#     Edge 16, Type (0, 0), BuildingBlock: OJICUG_clean_linker_0, # of connection points: 2
#     Edge 17, Type (0, 0), BuildingBlock: OJICUG_clean_linker_0, # of connection points: 2
#     Edge 18, Type (0, 0), BuildingBlock: OJICUG_clean_linker_0, # of connection points: 2
#     Edge 19, Type (0, 0), BuildingBlock: OJICUG_clean_linker_0, # of connection points: 2
#     Edge 20, Type (0, 0), BuildingBlock: OJICUG_clean_linker_0, # of connection points: 2
#     Edge 21, Type (0, 0), BuildingBlock: OJICUG_clean_linker_0, # of connection points: 2
#     Edge 22, Type (0, 0), BuildingBlock: OJICUG_clean_linker_0, # of connection points: 2
#     Edge 23, Type (0, 0), BuildingBlock: OJICUG_clean_linker_0, # of connection points: 2
#     Edge 24, Type (0, 0), BuildingBlock: OJICUG_clean_linker_0, # of connection points: 2
#     Edge 25, Type (0, 0), BuildingBlock: OJICUG_clean_linker_0, # of connection points: 2
#     Edge 26, Type (0, 0), BuildingBlock: OJICUG_clean_linker_0, # of connection points: 2
#     Edge 27, Type (0, 0), BuildingBlock: OJICUG_clean_linker_0, # of connection points: 2
#     Edge 28, Type (0, 0), BuildingBlock: OJICUG_clean_linker_0, # of connection points: 2
#     Edge 29, Type (0, 0), BuildingBlock: OJICUG_clean_linker_0, # of connection points: 2
#     Edge 30, Type (0, 0), BuildingBlock: OJICUG_clean_linker_0, # of connection points: 2
#     Edge 31, Type (0, 0), BuildingBlock: OJICUG_clean_linker_0, # of connection points: 2
#     Edge 32, Type (0, 0), BuildingBlock: OJICUG_clean_linker_0, # of connection points: 2
#     Edge 33, Type (0, 0), BuildingBlock: OJICUG_clean_linker_0, # of connection points: 2
#     Edge 34, Type (0, 0), BuildingBlock: OJICUG_clean_linker_0, # of connection points: 2
#     Edge 35, Type (0, 0), BuildingBlock: OJICUG_clean_linker_0, # of connection points: 2
#     Edge 36, Type (0, 0), BuildingBlock: OJICUG_clean_linker_0, # of connection points: 2
#     Edge 37, Type (0, 0), BuildingBlock: OJICUG_clean_linker_0, # of connection points: 2
#     Edge 38, Type (0, 0), BuildingBlock: OJICUG_clean_linker_0, # of connection points: 2
#     Edge 39, Type (0, 0), BuildingBlock: OJICUG_clean_linker_0, # of connection points: 2
#     Edge 40, Type (0, 0), BuildingBlock: OJICUG_clean_linker_0, # of connection points: 2
#     Edge 41, Type (0, 0), BuildingBlock: OJICUG_clean_linker_0, # of connection points: 2
#     Edge 42, Type (0, 0), BuildingBlock: OJICUG_clean_linker_0, # of connection points: 2
#     Edge 43, Type (0, 0), BuildingBlock: OJICUG_clean_linker_0, # of connection points: 2
#     Edge 44, Type (0, 0), BuildingBlock: OJICUG_clean_linker_0, # of connection points: 2
#     Edge 45, Type (0, 0), BuildingBlock: OJICUG_clean_linker_0, # of connection points: 2
#     Edge 46, Type (0, 0), BuildingBlock: OJICUG_clean_linker_0, # of connection points: 2
#     Edge 47, Type (0, 0), BuildingBlock: OJICUG_clean_linker_0, # of connection points: 2
# Relax obj value: 0.144
# Max RMSD: 0.208
# Mean RMSD: 0.126
data_MOF--net-gsi--node1-CEKHIL_clean_sbu_0--edge1-OJICUG_clean_linker_0
_symmetry_space_group_name_H-M    P1
_symmetry_Int_Tables_number       1
_symmetry_cell_setting            triclinic
loop_
_symmetry_equiv_pos_as_xyz
'x, y, z'
_cell_length_a     28.033733
_cell_length_b     31.548395
_cell_length_c     29.612729
_cell_angle_alpha  91.249757
_cell_angle_beta   93.283167
_cell_angle_gamma 97.374362
loop_
_atom_site_label
_atom_site_type_symbol
_atom_site_fract_x
_atom_site_fract_y
_atom_site_fract_z
_atom_type_partial_charge
Co0 Co 0.16969 0.15126 0.12118 0.0
O1 O 0.20802 0.10955 0.14692 0.0
O2 O 0.13314 0.11491 0.16278 0.0
C3 C 0.19242 0.1406 0.04908 0.0
O4 O 0.11616 0.18834 0.10274 0.0
Co5 Co 0.21109 0.23168 0.0738 0.0
O6 O 0.14525 0.24874 0.06974 0.0
C7 C 0.23144 0.224 0.17144 0.0
C8 C 0.17106 0.0956 0.16946 0.0
C9 C 0.11038 0.22478 0.08541 0.0
O10 O 0.19628 0.19333 0.17173 0.0
O11 O 0.24661 0.24012 0.13482 0.0
O12 O 0.15672 0.11592 0.0649 0.0
O13 O 0.21285 0.17038 0.0769 0.0
Co14 Co 0.86936 0.36316 0.13353 0.0
O15 O 0.83416 0.40524 0.16072 0.0
O16 O 0.91037 0.3991 0.17841 0.0
C17 C 0.83953 0.37224 0.06166 0.0
O18 O 0.92034 0.32533 0.11344 0.0
Co19 Co 0.82106 0.28149 0.08183 0.0
O20 O 0.88654 0.26534 0.07584 0.0
C21 C 0.806 0.29685 0.1778 0.0
C22 C 0.87319 0.4185 0.18553 0.0
C23 C 0.92357 0.28915 0.09296 0.0
O24 O 0.84605 0.32214 0.18094 0.0
O25 O 0.78714 0.28079 0.13985 0.0
O26 O 0.87624 0.39819 0.07914 0.0
O27 O 0.82216 0.3431 0.08803 0.0
Co28 Co 0.18135 0.89152 0.32939 0.0
O29 O 0.21784 0.94237 0.30698 0.0
O30 O 0.13873 0.92729 0.29879 0.0
C31 C 0.22275 0.89444 0.39845 0.0
O32 O 0.13028 0.84197 0.3461 0.0
Co33 Co 0.22993 0.81179 0.36003 0.0
O34 O 0.16438 0.78651 0.37453 0.0
C35 C 0.21951 0.8346 0.26348 0.0
C36 C 0.1772 0.95294 0.29054 0.0
C37 C 0.1274 0.80402 0.36239 0.0
O38 O 0.18837 0.85993 0.27109 0.0
O39 O 0.24398 0.81798 0.29473 0.0
O40 O 0.18763 0.91733 0.39171 0.0
O41 O 0.23237 0.87282 0.3638 0.0
Co42 Co 0.88508 0.63391 0.33758 0.0
O43 O 0.94192 0.65822 0.30732 0.0
O44 O 0.92938 0.67003 0.37915 0.0
C45 C 0.88107 0.56614 0.30735 0.0
O46 O 0.83296 0.61815 0.38276 0.0
Co47 Co 0.78786 0.59401 0.28959 0.0
O48 O 0.76156 0.58917 0.3504 0.0
C49 C 0.8242 0.68539 0.28239 0.0
C50 C 0.95645 0.67828 0.34555 0.0
C51 C 0.78795 0.60359 0.38518 0.0
O52 O 0.85252 0.68371 0.31785 0.0
O53 O 0.80007 0.65211 0.2629 0.0
O54 O 0.91029 0.57808 0.34252 0.0
O55 O 0.85728 0.59524 0.29154 0.0
Co56 Co 0.36941 0.86308 0.63351 0.0
O57 O 0.33418 0.90514 0.66069 0.0
O58 O 0.41037 0.89898 0.67846 0.0
C59 C 0.33969 0.87223 0.56162 0.0
O60 O 0.4204 0.82525 0.61344 0.0
Co61 Co 0.32113 0.78146 0.5817 0.0
O62 O 0.38661 0.76531 0.57575 0.0
C63 C 0.30598 0.79673 0.67767 0.0
C64 C 0.37319 0.91839 0.68555 0.0
C65 C 0.42363 0.7891 0.59292 0.0
O66 O 0.34602 0.82202 0.68086 0.0
O67 O 0.28716 0.78069 0.6397 0.0
O68 O 0.37638 0.89816 0.57916 0.0
O69 O 0.32226 0.84306 0.58794 0.0
Co70 Co 0.87347 0.86968 0.90075 0.0
O71 O 0.89468 0.81692 0.92371 0.0
O72 O 0.93973 0.86503 0.88667 0.0
C73 C 0.83682 0.88745 0.96517 0.0
O74 O 0.86817 0.92763 0.87056 0.0
Co75 Co 0.76729 0.88835 0.8906 0.0
O76 O 0.79329 0.94574 0.87005 0.0
C77 C 0.80195 0.82275 0.83216 0.0
C78 C 0.93589 0.82863 0.90657 0.0
C79 C 0.83734 0.95375 0.86091 0.0
O80 O 0.84637 0.83764 0.84292 0.0
O81 O 0.76641 0.83549 0.8515 0.0
O82 O 0.88321 0.8971 0.96255 0.0
O83 O 0.81536 0.86708 0.93022 0.0
Co84 Co 0.15422 0.68155 0.89631 0.0
O85 O 0.13496 0.73374 0.92269 0.0
O86 O 0.08732 0.68737 0.87858 0.0
C87 C 0.19334 0.6602 0.96047 0.0
O88 O 0.15813 0.62458 0.86208 0.0
Co89 Co 0.26169 0.66405 0.89305 0.0
O90 O 0.23355 0.60699 0.86788 0.0
C91 C 0.22383 0.72946 0.83653 0.0
C92 C 0.09262 0.72291 0.90238 0.0
C93 C 0.18928 0.59893 0.85429 0.0
O94 O 0.17963 0.71435 0.84268 0.0
O95 O 0.26003 0.71784 0.85903 0.0
O96 O 0.14657 0.65189 0.95482 0.0
O97 O 0.21324 0.68248 0.92942 0.0
Co98 Co 0.85664 0.14579 0.68423 0.0
O99 O 0.79989 0.11413 0.6532 0.0
O100 O 0.8609 0.14818 0.61914 0.0
C101 C 0.86615 0.09551 0.73836 0.0
O102 O 0.92048 0.18389 0.70468 0.0
Co103 Co 0.84969 0.1758 0.78342 0.0
O104 O 0.91519 0.20654 0.77663 0.0
C105 C 0.79499 0.21142 0.70931 0.0
C106 C 0.81739 0.12756 0.61571 0.0
C107 C 0.93747 0.20692 0.7402 0.0
O108 O 0.82335 0.19822 0.68146 0.0
O109 O 0.79548 0.20128 0.75094 0.0
O110 O 0.88406 0.09226 0.69897 0.0
O111 O 0.84149 0.12696 0.74215 0.0
Co112 Co 0.18746 0.39262 0.69134 0.0
O113 O 0.24293 0.42199 0.66248 0.0
O114 O 0.18486 0.378 0.62695 0.0
C115 C 0.17258 0.45035 0.73451 0.0
O116 O 0.12502 0.35475 0.70816 0.0
Co117 Co 0.18834 0.38393 0.79645 0.0
O118 O 0.12485 0.34894 0.78379 0.0
C119 C 0.25144 0.33927 0.74188 0.0
C120 C 0.2261 0.40188 0.62503 0.0
C121 C 0.10594 0.33908 0.74411 0.0
O122 O 0.22553 0.34441 0.7056 0.0
O123 O 0.24693 0.35855 0.77955 0.0
O124 O 0.15582 0.44599 0.69241 0.0
O125 O 0.19861 0.42178 0.74704 0.0
Co126 Co 0.65424 0.18171 0.39641 0.0
O127 O 0.63495 0.23387 0.42281 0.0
O128 O 0.58734 0.18754 0.37864 0.0
C129 C 0.69331 0.1603 0.46057 0.0
O130 O 0.65817 0.12476 0.36215 0.0
Co131 Co 0.76171 0.16423 0.39318 0.0
O132 O 0.7336 0.1072 0.36794 0.0
C133 C 0.72388 0.22968 0.33671 0.0
C134 C 0.59263 0.22306 0.40247 0.0
C135 C 0.68933 0.09912 0.35433 0.0
O136 O 0.67968 0.21455 0.34282 0.0
O137 O 0.76007 0.21806 0.35924 0.0
O138 O 0.64655 0.152 0.45489 0.0
O139 O 0.71323 0.18261 0.42955 0.0
Co140 Co 0.66969 0.65114 0.62114 0.0
O141 O 0.70799 0.6094 0.64688 0.0
O142 O 0.6331 0.61476 0.6627 0.0
C143 C 0.69247 0.64052 0.54905 0.0
O144 O 0.61619 0.68823 0.6027 0.0
Co145 Co 0.71115 0.73158 0.57384 0.0
O146 O 0.64531 0.74866 0.56977 0.0
C147 C 0.73143 0.72383 0.67148 0.0
C148 C 0.67101 0.59544 0.66938 0.0
C149 C 0.61043 0.72469 0.5854 0.0
O150 O 0.69625 0.69317 0.67174 0.0
O151 O 0.74664 0.73996 0.63488 0.0
O152 O 0.65676 0.61584 0.56483 0.0
O153 O 0.71289 0.67028 0.5769 0.0
Co154 Co 0.68119 0.39143 0.82946 0.0
O155 O 0.71768 0.44228 0.80703 0.0
O156 O 0.63858 0.42715 0.79874 0.0
C157 C 0.7225 0.39447 0.89856 0.0
O158 O 0.63012 0.34188 0.84615 0.0
Co159 Co 0.72977 0.31177 0.86033 0.0
O160 O 0.66421 0.28648 0.87475 0.0
C161 C 0.71947 0.33444 0.76371 0.0
C162 C 0.67705 0.45281 0.79052 0.0
C163 C 0.62723 0.30395 0.86251 0.0
O164 O 0.68832 0.35979 0.77122 0.0
O165 O 0.74386 0.31783 0.79503 0.0
O166 O 0.68736 0.41731 0.89174 0.0
O167 O 0.73218 0.3728 0.86397 0.0
Co168 Co 0.38499 0.13376 0.83763 0.0
O169 O 0.44183 0.15806 0.80738 0.0
O170 O 0.42928 0.16988 0.87921 0.0
C171 C 0.38098 0.06598 0.80742 0.0
O172 O 0.33286 0.11802 0.88281 0.0
Co173 Co 0.28777 0.09386 0.78965 0.0
O174 O 0.26144 0.08907 0.85045 0.0
C175 C 0.32414 0.18523 0.78241 0.0
C176 C 0.45635 0.17813 0.8456 0.0
C177 C 0.28785 0.10349 0.88523 0.0
O178 O 0.35244 0.18355 0.81788 0.0
O179 O 0.30001 0.15195 0.76293 0.0
O180 O 0.41019 0.07792 0.84259 0.0
O181 O 0.35719 0.09508 0.7916 0.0
Co182 Co 0.3735 0.36987 0.4007 0.0
O183 O 0.39469 0.3171 0.42364 0.0
O184 O 0.43977 0.36522 0.38665 0.0
C185 C 0.33683 0.38759 0.46512 0.0
O186 O 0.36823 0.42785 0.37054 0.0
Co187 Co 0.26733 0.38856 0.39053 0.0
O188 O 0.29335 0.44596 0.37004 0.0
C189 C 0.302 0.32298 0.33208 0.0
C190 C 0.43591 0.3288 0.40654 0.0
C191 C 0.3374 0.45397 0.36091 0.0
O192 O 0.34642 0.33786 0.34285 0.0
O193 O 0.26646 0.33571 0.35142 0.0
O194 O 0.38322 0.39725 0.46252 0.0
O195 O 0.31538 0.36726 0.43014 0.0
Co196 Co 0.35663 0.64599 0.18421 0.0
O197 O 0.29994 0.61426 0.15317 0.0
O198 O 0.36092 0.64836 0.11912 0.0
C199 C 0.36619 0.59575 0.23838 0.0
O200 O 0.42042 0.68415 0.20469 0.0
Co201 Co 0.34954 0.67603 0.28336 0.0
O202 O 0.41501 0.70685 0.2766 0.0
C203 C 0.29484 0.71153 0.2092 0.0
C204 C 0.31744 0.62769 0.11569 0.0
C205 C 0.43734 0.70724 0.24019 0.0
O206 O 0.32326 0.69837 0.18139 0.0
O207 O 0.29529 0.7014 0.25083 0.0
O208 O 0.38413 0.59251 0.199 0.0
O209 O 0.34147 0.62716 0.24213 0.0
Co210 Co 0.68746 0.8928 0.19137 0.0
O211 O 0.74297 0.92211 0.1625 0.0
O212 O 0.68485 0.87815 0.12699 0.0
C213 C 0.67264 0.95056 0.23452 0.0
O214 O 0.62498 0.85498 0.20818 0.0
Co215 Co 0.68828 0.88413 0.29648 0.0
O216 O 0.62473 0.84922 0.28381 0.0
C217 C 0.75136 0.83941 0.24194 0.0
C218 C 0.72611 0.90199 0.12506 0.0
C219 C 0.60585 0.83936 0.24412 0.0
O220 O 0.72548 0.84455 0.20565 0.0
O221 O 0.74684 0.85869 0.27961 0.0
O222 O 0.65589 0.9462 0.19242 0.0
O223 O 0.69863 0.92196 0.24706 0.0
C224 C 0.22886 0.23941 0.25456 0.0
C225 C 0.25357 0.24393 0.21474 0.0
H226 H 0.22531 0.26084 0.32314 0.0
C227 C 0.29818 0.27044 0.21586 0.0
H228 H 0.19467 0.2191 0.25499 0.0
C229 C 0.31617 0.29396 0.2552 0.0
C230 C 0.28948 0.29187 0.29386 0.0
H231 H 0.31848 0.27417 0.18584 0.0
H232 H 0.34932 0.31568 0.25443 0.0
C233 C 0.24645 0.26337 0.29358 0.0
C234 C 0.80093 0.29953 0.26199 0.0
C235 C 0.78046 0.28538 0.2191 0.0
H236 H 0.79742 0.29396 0.33356 0.0
C237 C 0.73537 0.25951 0.21601 0.0
H238 H 0.83497 0.32021 0.26564 0.0
C239 C 0.71336 0.24511 0.25503 0.0
C240 C 0.73625 0.25613 0.29771 0.0
H241 H 0.71798 0.24877 0.18342 0.0
H242 H 0.6807 0.22255 0.25163 0.0
C243 C 0.77906 0.28497 0.30089 0.0
C244 C 0.2905 0.78642 0.19 0.0
C245 C 0.26638 0.74532 0.19571 0.0
H246 H 0.28993 0.8529 0.2048 0.0
C247 C 0.2169 0.74007 0.20221 0.0
H248 H 0.32866 0.791 0.18438 0.0
C249 C 0.19417 0.77584 0.21155 0.0
C250 C 0.22226 0.81585 0.21843 0.0
H251 H 0.19755 0.70846 0.20595 0.0
H252 H 0.15819 0.77062 0.22371 0.0
C253 C 0.26801 0.822 0.20087 0.0
C254 C 0.83243 0.76484 0.29087 0.0
C255 C 0.81538 0.72737 0.26546 0.0
H256 H 0.82615 0.83086 0.30226 0.0
C257 C 0.78583 0.72996 0.22582 0.0
H258 H 0.85619 0.7641 0.32093 0.0
C259 C 0.76893 0.76831 0.2149 0.0
C260 C 0.78116 0.80441 0.24367 0.0
H261 H 0.77314 0.7018 0.20479 0.0
H262 H 0.74298 0.76854 0.18638 0.0
C263 C 0.81538 0.80311 0.28005 0.0
C264 C 0.23536 0.75929 0.71582 0.0
C265 C 0.28042 0.78521 0.71895 0.0
H266 H 0.18071 0.72226 0.75141 0.0
C267 C 0.30083 0.79939 0.76185 0.0
H268 H 0.21802 0.74853 0.68323 0.0
C269 C 0.27895 0.7848 0.80073 0.0
C270 C 0.23617 0.75592 0.79753 0.0
H271 H 0.33485 0.82011 0.76553 0.0
H272 H 0.29727 0.79381 0.83342 0.0
C273 C 0.21334 0.74486 0.75483 0.0
C274 C 0.72879 0.73922 0.7546 0.0
C275 C 0.75354 0.74373 0.7148 0.0
H276 H 0.72519 0.76067 0.82316 0.0
C277 C 0.79819 0.77019 0.71596 0.0
H278 H 0.69457 0.71895 0.755 0.0
C279 C 0.81616 0.79371 0.75531 0.0
C280 C 0.78942 0.79164 0.79395 0.0
H281 H 0.81852 0.77391 0.68596 0.0
H282 H 0.84934 0.8154 0.75457 0.0
C283 C 0.74637 0.76318 0.79363 0.0
C284 C 0.76813 0.32188 0.70125 0.0
C285 C 0.72233 0.31567 0.71868 0.0
H286 H 0.82885 0.29099 0.68477 0.0
C287 C 0.69428 0.27565 0.71169 0.0
H288 H 0.78998 0.35281 0.70528 0.0
C289 C 0.71706 0.23993 0.70228 0.0
C290 C 0.76656 0.24523 0.69587 0.0
H291 H 0.65827 0.27041 0.72378 0.0
H292 H 0.69771 0.20829 0.70592 0.0
C293 C 0.79067 0.28635 0.69031 0.0
C294 C 0.26894 0.26815 0.71487 0.0
C295 C 0.28123 0.30426 0.7436 0.0
H296 H 0.27307 0.20162 0.7048 0.0
C297 C 0.31546 0.30297 0.77997 0.0
H298 H 0.24298 0.26838 0.68635 0.0
C299 C 0.33248 0.26469 0.79081 0.0
C300 C 0.31536 0.22721 0.76544 0.0
H301 H 0.32627 0.33073 0.80214 0.0
H302 H 0.35624 0.26395 0.82086 0.0
C303 C 0.2858 0.22979 0.72581 0.0
C304 C 0.1314 1.00514 0.24812 0.0
C305 C 0.17543 0.99066 0.26123 0.0
H306 H 0.09544 0.04976 0.20935 0.0
C307 C 0.21793 1.01149 0.24441 0.0
H308 H 0.09797 0.98982 0.26035 0.0
C309 C 0.21641 0.04537 0.21467 0.0
C310 C 0.17242 0.05978 0.20139 0.0
H311 H 0.25247 1.00112 0.25356 0.0
H312 H 0.24983 0.06031 0.2021 0.0
C313 C 0.12996 0.0395 0.21884 0.0
C314 C 0.91584 0.46629 0.24953 0.0
C315 C 0.87474 0.45382 0.22017 0.0
H316 H 0.95 0.51112 0.30127 0.0
C317 C 0.83465 0.47591 0.22374 0.0
H318 H 0.94726 0.44973 0.24795 0.0
C319 C 0.83627 0.51071 0.2541 0.0
C320 C 0.87781 0.52434 0.28227 0.0
H321 H 0.80224 0.46711 0.20212 0.0
H322 H 0.80518 0.52781 0.25454 0.0
C323 C 0.91728 0.50113 0.28046 0.0
C324 C 0.28711 0.13873 0.96219 0.0
C325 C 0.26435 0.10945 0.92873 0.0
H326 H 0.28208 0.1721 0.02501 0.0
C327 C 0.2171 0.09003 0.93535 0.0
H328 H 0.32309 0.15484 0.95829 0.0
C329 C 0.1934 0.09985 0.97423 0.0
C330 C 0.21596 0.13 1.00696 0.0
H331 H 0.19818 0.06755 0.91023 0.0
H332 H 0.15724 0.08427 0.97836 0.0
C333 C 0.26319 0.14908 1.00039 0.0
C334 C 0.7854 0.3439 0.9954 0.0
C335 C 0.81222 0.37924 0.01859 0.0
H336 H 0.73571 0.32131 0.93998 0.0
C337 C 0.80706 0.42052 1.00347 0.0
H338 H 0.78806 0.31175 1.00652 0.0
C339 C 0.77542 0.42609 0.96591 0.0
C340 C 0.74917 0.39043 0.94259 0.0
H341 H 0.82652 0.44842 0.02125 0.0
H342 H 0.77259 0.45805 0.95432 0.0
C343 C 0.75488 0.34939 0.95761 0.0
C344 C 0.28607 0.84385 0.49505 0.0
C345 C 0.31249 0.87924 0.51849 0.0
H346 H 0.23669 0.82122 0.43942 0.0
C347 C 0.30696 0.92053 0.50361 0.0
H348 H 0.28901 0.81169 0.506 0.0
C349 C 0.27534 0.92606 0.46603 0.0
C350 C 0.24949 0.89037 0.44245 0.0
H351 H 0.32611 0.94844 0.5216 0.0
H352 H 0.2722 0.95803 0.45464 0.0
C353 C 0.25558 0.84932 0.45723 0.0
C354 C 0.76326 0.64908 0.50037 0.0
C355 C 0.71602 0.62997 0.50693 0.0
H356 H 0.82316 0.65491 0.45828 0.0
C357 C 0.69349 0.59983 0.47417 0.0
H358 H 0.78212 0.67209 0.52501 0.0
C359 C 0.71721 0.59006 0.43529 0.0
C360 C 0.76445 0.60951 0.42868 0.0
H361 H 0.65734 0.58423 0.47829 0.0
H362 H 0.6983 0.56759 0.41015 0.0
C363 C 0.78718 0.63878 0.46216 0.0
C364 C 1.0148 0.3012 0.09069 0.0
C365 C 0.97159 0.27308 0.09051 0.0
H366 H 0.09182 0.30816 0.08808 0.0
C367 C 0.97449 0.22872 0.08811 0.0
H368 H 1.01413 0.33544 0.09245 0.0
C369 C 1.01917 0.21296 0.08662 0.0
C370 C 0.06232 0.24105 0.08614 0.0
H371 H 0.9421 0.20597 0.0882 0.0
H372 H 0.01984 0.17871 0.08545 0.0
C373 C 0.05938 0.28543 0.08791 0.0
C374 C 0.02689 0.7182 0.39172 0.0
C375 C 0.99954 0.71139 0.35026 0.0
H376 H 0.08909 0.75268 0.42804 0.0
C377 C 1.01233 0.73799 0.31421 0.0
H378 H 1.01775 0.69844 0.42022 0.0
C379 C 0.05184 0.77039 0.31939 0.0
C380 C 0.08025 0.77614 0.36034 0.0
H381 H 0.99158 0.73395 0.28206 0.0
H382 H 0.06153 0.78964 0.29065 0.0
C383 C 0.06738 0.74956 0.39639 0.0
C384 C 0.55945 0.78536 0.58795 0.0
C385 C 0.56238 0.74098 0.58613 0.0
H386 H 0.51421 0.83537 0.59253 0.0
C387 C 0.51921 0.71289 0.58654 0.0
H388 H 0.5919 0.80808 0.58817 0.0
C389 C 0.47454 0.72866 0.58803 0.0
C390 C 0.47165 0.77302 0.59048 0.0
H391 H 0.51988 0.67864 0.58533 0.0
H392 H 0.44214 0.70591 0.58807 0.0
C393 C 0.51487 0.80113 0.59072 0.0
C394 C 0.83402 0.06266 0.80889 0.0
C395 C 0.86496 0.06157 0.77314 0.0
H396 H 0.80122 0.02997 0.86424 0.0
C397 C 0.89093 0.02637 0.76961 0.0
H398 H 0.81341 0.08913 0.81296 0.0
C399 C 0.88461 0.99251 0.80004 0.0
C400 C 0.85145 0.99267 0.83413 0.0
H401 H 0.91504 0.02438 0.74257 0.0
H402 H 0.9037 0.96515 0.79531 0.0
C403 C 0.82699 0.02863 0.83851 0.0
C404 C 0.15119 0.5595 0.78313 0.0
C405 C 0.17499 0.55911 0.82639 0.0
H406 H 0.13177 0.52544 0.71927 0.0
C407 C 0.19227 0.52145 0.84016 0.0
H408 H 0.13807 0.58842 0.77142 0.0
C409 C 0.18818 0.48571 0.81095 0.0
C410 C 0.16758 0.48662 0.76646 0.0
H411 H 0.2108 0.52017 0.87315 0.0
H412 H 0.20357 0.45791 0.82281 0.0
C413 C 0.14777 0.52357 0.75321 0.0
C414 C 0.73241 0.88453 0.04247 0.0
C415 C 0.75426 0.90279 0.08342 0.0
H416 H 0.74075 0.86619 0.9738 0.0
C417 C 0.80379 0.91877 0.0846 0.0
H418 H 0.69451 0.87193 0.04004 0.0
C419 C 0.83093 0.9151 0.04621 0.0
C420 C 0.80904 0.8957 1.00563 0.0
H421 H 0.82199 0.93288 0.11562 0.0
H422 H 0.86912 0.92654 0.04865 0.0
C423 C 0.7592 0.88125 1.00429 0.0
C424 C 0.27456 0.65359 0.99721 0.0
C425 C 0.22396 0.64533 0.99836 0.0
H426 H 0.34343 0.65374 0.03241 0.0
C427 C 0.20465 0.62595 0.03672 0.0
H428 H 0.29109 0.66831 0.96829 0.0
C429 C 0.23527 0.61733 0.0739 0.0
C430 C 0.28579 0.62794 0.07345 0.0
H431 H 0.16599 0.61909 0.03878 0.0
H432 H 0.21918 0.60436 0.10387 0.0
C433 C 0.30492 0.64505 0.03408 0.0
C434 C 0.77452 0.15358 0.49727 0.0
C435 C 0.72392 0.14537 0.49843 0.0
H436 H 0.84339 0.15363 0.53245 0.0
C437 C 0.70459 0.12598 0.53678 0.0
H438 H 0.79106 0.16831 0.46837 0.0
C439 C 0.73521 0.11731 0.57395 0.0
C440 C 0.78573 0.12786 0.57349 0.0
H441 H 0.66593 0.11916 0.53885 0.0
H442 H 0.71911 0.10433 0.60391 0.0
C443 C 0.80487 0.14499 0.53412 0.0
C444 C 0.23241 0.3845 0.54243 0.0
C445 C 0.25425 0.40274 0.58339 0.0
H446 H 0.24076 0.36624 0.47374 0.0
C447 C 0.30377 0.41876 0.58458 0.0
H448 H 0.19452 0.37188 0.53999 0.0
C449 C 0.3309 0.41515 0.54619 0.0
C450 C 0.30904 0.39578 0.50559 0.0
H451 H 0.32195 0.43286 0.61562 0.0
H452 H 0.36909 0.42662 0.54863 0.0
C453 C 0.2592 0.38129 0.50424 0.0
C454 C 0.06227 0.79476 0.90937 0.0
C455 C 0.05258 0.7499 0.90542 0.0
H456 H 0.03325 0.85465 0.9117 0.0
C457 C 1.00407 0.73113 0.90328 0.0
H458 H 0.09912 0.81031 0.91089 0.0
C459 C 0.96633 0.75651 0.90532 0.0
C460 C 0.97599 0.80143 0.9079 0.0
H461 H 0.99527 0.6967 0.90031 0.0
H462 H 0.92947 0.74099 0.90351 0.0
C463 C 0.02448 0.82019 0.90975 0.0
C464 C 0.04204 0.28598 0.69953 0.0
C465 C 0.06213 0.3057 0.74082 0.0
H466 H 0.98759 0.23895 0.66646 0.0
C467 C 0.04201 0.29073 0.78095 0.0
H468 H 0.05671 0.29608 0.66789 0.0
C469 C 1.00344 0.25785 0.78019 0.0
C470 C 0.98272 0.23829 0.73925 0.0
H471 H 0.05613 0.30436 0.81364 0.0
H472 H 0.98944 0.24812 0.81224 0.0
C473 C 1.00278 0.25271 0.69876 0.0
C474 C 0.50408 0.2313 0.40328 0.0
C475 C 0.55259 0.25006 0.40547 0.0
H476 H 0.42948 0.24117 0.40343 0.0
C477 C 0.56229 0.29492 0.40944 0.0
H478 H 0.49528 0.19687 0.40028 0.0
C479 C 0.5245 0.32035 0.40979 0.0
C480 C 0.47601 0.3016 0.40789 0.0
H481 H 0.59914 0.31046 0.41101 0.0
H482 H 0.53328 0.35482 0.41176 0.0
C483 C 0.46635 0.25669 0.40528 0.0
C484 C 0.71632 0.54521 0.71464 0.0
C485 C 0.67233 0.55961 0.70131 0.0
H486 H 0.75235 0.50099 0.75358 0.0
C487 C 0.62985 0.53933 0.71872 0.0
H488 H 0.74976 0.56016 0.7021 0.0
C489 C 0.63127 0.50497 0.74801 0.0
C490 C 0.6753 0.49051 0.76118 0.0
H491 H 0.59535 0.54958 0.7092 0.0
H492 H 0.59784 0.48965 0.76022 0.0
C493 C 0.71782 0.51135 0.74439 0.0
C494 C 0.33621 1.01055 0.75414 0.0
C495 C 0.37773 0.02419 0.78232 0.0
H496 H 0.30222 0.96697 0.70212 0.0
C497 C 0.41721 1.00097 0.78054 0.0
H498 H 0.30511 0.02766 0.75456 0.0
C499 C 0.41579 0.96615 0.74959 0.0
C500 C 0.37471 0.95368 0.72021 0.0
H501 H 0.44991 1.01096 0.80137 0.0
H502 H 0.44721 0.94959 0.74802 0.0
C503 C 0.33461 0.97577 0.72377 0.0
C504 C 0.51224 0.23784 0.81426 0.0
C505 C 0.49943 0.21125 0.85032 0.0
H506 H 0.56143 0.28949 0.79071 0.0
C507 C 0.52674 0.21811 0.8918 0.0
H508 H 0.49151 0.23376 0.78209 0.0
C509 C 0.5672 0.24949 0.89649 0.0
C510 C 0.58009 0.27605 0.86043 0.0
H511 H 0.51758 0.19837 0.92031 0.0
H512 H 0.58887 0.25265 0.92815 0.0
C513 C 0.55172 0.27026 0.81946 0.0
C514 C 0.33407 0.5629 0.30892 0.0
C515 C 0.36502 0.56182 0.27317 0.0
H516 H 0.30128 0.53019 0.36425 0.0
C517 C 0.391 0.52663 0.26964 0.0
H518 H 0.31345 0.58935 0.31298 0.0
C519 C 0.38469 0.49276 0.30006 0.0
C520 C 0.35153 0.4929 0.33414 0.0
H521 H 0.41512 0.52464 0.24261 0.0
H522 H 0.4038 0.46541 0.29533 0.0
C523 C 0.32706 0.52886 0.33853 0.0
C524 C 0.65126 0.05971 0.28316 0.0
C525 C 0.67506 0.05931 0.32642 0.0
H526 H 0.63184 0.02566 0.2193 0.0
C527 C 0.69236 0.02166 0.34018 0.0
H528 H 0.63813 0.08863 0.27146 0.0
C529 C 0.68828 0.98593 0.31095 0.0
C530 C 0.66766 0.98684 0.26646 0.0
H531 H 0.7109 0.02037 0.37316 0.0
H532 H 0.70367 0.95812 0.32281 0.0
C533 C 0.64784 0.02379 0.25323 0.0
C534 C 0.54205 0.78617 0.19956 0.0
C535 C 0.562 0.80602 0.24083 0.0
H536 H 0.48771 0.73903 0.1665 0.0
C537 C 0.5417 0.79122 0.28094 0.0
H538 H 0.55685 0.79613 0.16793 0.0
C539 C 0.50313 0.75835 0.28019 0.0
C540 C 0.48256 0.73863 0.23927 0.0
H541 H 0.55571 0.80497 0.31362 0.0
H542 H 0.48901 0.74875 0.31223 0.0
C543 C 0.50278 0.75291 0.19879 0.0
loop_
_geom_bond_atom_site_label_1
_geom_bond_atom_site_label_2
_geom_bond_distance
_geom_bond_site_symmetry_2
_ccdc_geom_bond_type
Co0 O1 2.216 . S
Co0 O2 2.091 . S
Co0 O4 2.004 . S
Co0 O10 2.021 . S
Co0 O12 2.137 . S
Co0 O13 2.244 . S
O1 Co0 2.216 . S
O1 C8 1.247 . S
O2 Co0 2.091 . S
O2 C8 1.261 . S
C3 O12 1.247 . S
C3 O13 1.272 . S
O4 Co0 2.004 . S
O4 C9 1.259 . S
Co5 O6 2.061 . S
Co5 O11 2.052 . S
Co5 O13 2.135 . S
O6 Co5 2.061 . S
O6 C9 1.235 . S
C7 O10 1.238 . S
C7 O11 1.241 . S
C8 O1 1.247 . S
C8 O2 1.261 . S
C9 O4 1.259 . S
C9 O6 1.235 . S
O10 Co0 2.021 . S
O10 C7 1.238 . S
O11 Co5 2.052 . S
O11 C7 1.241 . S
O12 Co0 2.137 . S
O12 C3 1.247 . S
O13 Co0 2.244 . S
O13 C3 1.272 . S
O13 Co5 2.135 . S
Co14 O15 2.216 . S
Co14 O16 2.091 . S
Co14 O18 2.004 . S
Co14 O24 2.021 . S
Co14 O26 2.137 . S
Co14 O27 2.244 . S
O15 Co14 2.216 . S
O15 C22 1.247 . S
O16 Co14 2.091 . S
O16 C22 1.261 . S
C17 O26 1.247 . S
C17 O27 1.272 . S
O18 Co14 2.004 . S
O18 C23 1.259 . S
Co19 O20 2.061 . S
Co19 O25 2.052 . S
Co19 O27 2.135 . S
O20 Co19 2.061 . S
O20 C23 1.235 . S
C21 O24 1.238 . S
C21 O25 1.241 . S
C22 O15 1.247 . S
C22 O16 1.261 . S
C23 O18 1.259 . S
C23 O20 1.235 . S
O24 Co14 2.021 . S
O24 C21 1.238 . S
O25 Co19 2.052 . S
O25 C21 1.241 . S
O26 Co14 2.137 . S
O26 C17 1.247 . S
O27 Co14 2.244 . S
O27 C17 1.272 . S
O27 Co19 2.135 . S
Co28 O29 2.216 . S
Co28 O30 2.091 . S
Co28 O32 2.004 . S
Co28 O38 2.021 . S
Co28 O40 2.137 . S
Co28 O41 2.244 . S
O29 Co28 2.216 . S
O29 C36 1.247 . S
O30 Co28 2.091 . S
O30 C36 1.261 . S
C31 O40 1.247 . S
C31 O41 1.272 . S
O32 Co28 2.004 . S
O32 C37 1.259 . S
Co33 O34 2.061 . S
Co33 O39 2.052 . S
Co33 O41 2.135 . S
O34 Co33 2.061 . S
O34 C37 1.235 . S
C35 O38 1.238 . S
C35 O39 1.241 . S
C36 O29 1.247 . S
C36 O30 1.261 . S
C37 O32 1.259 . S
C37 O34 1.235 . S
O38 Co28 2.021 . S
O38 C35 1.238 . S
O39 Co33 2.052 . S
O39 C35 1.241 . S
O40 Co28 2.137 . S
O40 C31 1.247 . S
O41 Co28 2.244 . S
O41 C31 1.272 . S
O41 Co33 2.135 . S
Co42 O43 2.216 . S
Co42 O44 2.091 . S
Co42 O46 2.004 . S
Co42 O52 2.021 . S
Co42 O54 2.137 . S
Co42 O55 2.244 . S
O43 Co42 2.216 . S
O43 C50 1.247 . S
O44 Co42 2.091 . S
O44 C50 1.261 . S
C45 O54 1.247 . S
C45 O55 1.272 . S
O46 Co42 2.004 . S
O46 C51 1.259 . S
Co47 O48 2.061 . S
Co47 O53 2.052 . S
Co47 O55 2.135 . S
O48 Co47 2.061 . S
O48 C51 1.235 . S
C49 O52 1.238 . S
C49 O53 1.241 . S
C50 O43 1.247 . S
C50 O44 1.261 . S
C51 O46 1.259 . S
C51 O48 1.235 . S
O52 Co42 2.021 . S
O52 C49 1.238 . S
O53 Co47 2.052 . S
O53 C49 1.241 . S
O54 Co42 2.137 . S
O54 C45 1.247 . S
O55 Co42 2.244 . S
O55 C45 1.272 . S
O55 Co47 2.135 . S
Co56 O57 2.216 . S
Co56 O58 2.091 . S
Co56 O60 2.004 . S
Co56 O66 2.021 . S
Co56 O68 2.137 . S
Co56 O69 2.244 . S
O57 Co56 2.216 . S
O57 C64 1.247 . S
O58 Co56 2.091 . S
O58 C64 1.261 . S
C59 O68 1.247 . S
C59 O69 1.272 . S
O60 Co56 2.004 . S
O60 C65 1.259 . S
Co61 O62 2.061 . S
Co61 O67 2.052 . S
Co61 O69 2.135 . S
O62 Co61 2.061 . S
O62 C65 1.235 . S
C63 O66 1.238 . S
C63 O67 1.241 . S
C64 O57 1.247 . S
C64 O58 1.261 . S
C65 O60 1.259 . S
C65 O62 1.235 . S
O66 Co56 2.021 . S
O66 C63 1.238 . S
O67 Co61 2.052 . S
O67 C63 1.241 . S
O68 Co56 2.137 . S
O68 C59 1.247 . S
O69 Co56 2.244 . S
O69 C59 1.272 . S
O69 Co61 2.135 . S
Co70 O71 2.216 . S
Co70 O72 2.091 . S
Co70 O74 2.004 . S
Co70 O80 2.021 . S
Co70 O82 2.137 . S
Co70 O83 2.244 . S
O71 Co70 2.216 . S
O71 C78 1.247 . S
O72 Co70 2.091 . S
O72 C78 1.261 . S
C73 O82 1.247 . S
C73 O83 1.272 . S
O74 Co70 2.004 . S
O74 C79 1.259 . S
Co75 O76 2.061 . S
Co75 O81 2.052 . S
Co75 O83 2.135 . S
O76 Co75 2.061 . S
O76 C79 1.235 . S
C77 O80 1.238 . S
C77 O81 1.241 . S
C78 O71 1.247 . S
C78 O72 1.261 . S
C79 O74 1.259 . S
C79 O76 1.235 . S
O80 Co70 2.021 . S
O80 C77 1.238 . S
O81 Co75 2.052 . S
O81 C77 1.241 . S
O82 Co70 2.137 . S
O82 C73 1.247 . S
O83 Co70 2.244 . S
O83 C73 1.272 . S
O83 Co75 2.135 . S
Co84 O85 2.216 . S
Co84 O86 2.091 . S
Co84 O88 2.004 . S
Co84 O94 2.021 . S
Co84 O96 2.137 . S
Co84 O97 2.244 . S
O85 Co84 2.216 . S
O85 C92 1.247 . S
O86 Co84 2.091 . S
O86 C92 1.261 . S
C87 O96 1.247 . S
C87 O97 1.272 . S
O88 Co84 2.004 . S
O88 C93 1.259 . S
Co89 O90 2.061 . S
Co89 O95 2.052 . S
Co89 O97 2.135 . S
O90 Co89 2.061 . S
O90 C93 1.235 . S
C91 O94 1.238 . S
C91 O95 1.241 . S
C92 O85 1.247 . S
C92 O86 1.261 . S
C93 O88 1.259 . S
C93 O90 1.235 . S
O94 Co84 2.021 . S
O94 C91 1.238 . S
O95 Co89 2.052 . S
O95 C91 1.241 . S
O96 Co84 2.137 . S
O96 C87 1.247 . S
O97 Co84 2.244 . S
O97 C87 1.272 . S
O97 Co89 2.135 . S
Co98 O99 2.216 . S
Co98 O100 2.091 . S
Co98 O102 2.004 . S
Co98 O108 2.021 . S
Co98 O110 2.137 . S
Co98 O111 2.244 . S
O99 Co98 2.216 . S
O99 C106 1.247 . S
O100 Co98 2.091 . S
O100 C106 1.261 . S
C101 O110 1.247 . S
C101 O111 1.272 . S
O102 Co98 2.004 . S
O102 C107 1.259 . S
Co103 O104 2.061 . S
Co103 O109 2.052 . S
Co103 O111 2.135 . S
O104 Co103 2.061 . S
O104 C107 1.235 . S
C105 O108 1.238 . S
C105 O109 1.241 . S
C106 O99 1.247 . S
C106 O100 1.261 . S
C107 O102 1.259 . S
C107 O104 1.235 . S
O108 Co98 2.021 . S
O108 C105 1.238 . S
O109 Co103 2.052 . S
O109 C105 1.241 . S
O110 Co98 2.137 . S
O110 C101 1.247 . S
O111 Co98 2.244 . S
O111 C101 1.272 . S
O111 Co103 2.135 . S
Co112 O113 2.216 . S
Co112 O114 2.091 . S
Co112 O116 2.004 . S
Co112 O122 2.021 . S
Co112 O124 2.137 . S
Co112 O125 2.244 . S
O113 Co112 2.216 . S
O113 C120 1.247 . S
O114 Co112 2.091 . S
O114 C120 1.261 . S
C115 O124 1.247 . S
C115 O125 1.272 . S
O116 Co112 2.004 . S
O116 C121 1.259 . S
Co117 O118 2.061 . S
Co117 O123 2.052 . S
Co117 O125 2.135 . S
O118 Co117 2.061 . S
O118 C121 1.235 . S
C119 O122 1.238 . S
C119 O123 1.241 . S
C120 O113 1.247 . S
C120 O114 1.261 . S
C121 O116 1.259 . S
C121 O118 1.235 . S
O122 Co112 2.021 . S
O122 C119 1.238 . S
O123 Co117 2.052 . S
O123 C119 1.241 . S
O124 Co112 2.137 . S
O124 C115 1.247 . S
O125 Co112 2.244 . S
O125 C115 1.272 . S
O125 Co117 2.135 . S
Co126 O127 2.216 . S
Co126 O128 2.091 . S
Co126 O130 2.004 . S
Co126 O136 2.021 . S
Co126 O138 2.137 . S
Co126 O139 2.244 . S
O127 Co126 2.216 . S
O127 C134 1.247 . S
O128 Co126 2.091 . S
O128 C134 1.261 . S
C129 O138 1.247 . S
C129 O139 1.272 . S
O130 Co126 2.004 . S
O130 C135 1.259 . S
Co131 O132 2.061 . S
Co131 O137 2.052 . S
Co131 O139 2.135 . S
O132 Co131 2.061 . S
O132 C135 1.235 . S
C133 O136 1.238 . S
C133 O137 1.241 . S
C134 O127 1.247 . S
C134 O128 1.261 . S
C135 O130 1.259 . S
C135 O132 1.235 . S
O136 Co126 2.021 . S
O136 C133 1.238 . S
O137 Co131 2.052 . S
O137 C133 1.241 . S
O138 Co126 2.137 . S
O138 C129 1.247 . S
O139 Co126 2.244 . S
O139 C129 1.272 . S
O139 Co131 2.135 . S
Co140 O141 2.216 . S
Co140 O142 2.091 . S
Co140 O144 2.004 . S
Co140 O150 2.021 . S
Co140 O152 2.137 . S
Co140 O153 2.244 . S
O141 Co140 2.216 . S
O141 C148 1.247 . S
O142 Co140 2.091 . S
O142 C148 1.261 . S
C143 O152 1.247 . S
C143 O153 1.272 . S
O144 Co140 2.004 . S
O144 C149 1.259 . S
Co145 O146 2.061 . S
Co145 O151 2.052 . S
Co145 O153 2.135 . S
O146 Co145 2.061 . S
O146 C149 1.235 . S
C147 O150 1.238 . S
C147 O151 1.241 . S
C148 O141 1.247 . S
C148 O142 1.261 . S
C149 O144 1.259 . S
C149 O146 1.235 . S
O150 Co140 2.021 . S
O150 C147 1.238 . S
O151 Co145 2.052 . S
O151 C147 1.241 . S
O152 Co140 2.137 . S
O152 C143 1.247 . S
O153 Co140 2.244 . S
O153 C143 1.272 . S
O153 Co145 2.135 . S
Co154 O155 2.216 . S
Co154 O156 2.091 . S
Co154 O158 2.004 . S
Co154 O164 2.021 . S
Co154 O166 2.137 . S
Co154 O167 2.244 . S
O155 Co154 2.216 . S
O155 C162 1.247 . S
O156 Co154 2.091 . S
O156 C162 1.261 . S
C157 O166 1.247 . S
C157 O167 1.272 . S
O158 Co154 2.004 . S
O158 C163 1.259 . S
Co159 O160 2.061 . S
Co159 O165 2.052 . S
Co159 O167 2.135 . S
O160 Co159 2.061 . S
O160 C163 1.235 . S
C161 O164 1.238 . S
C161 O165 1.241 . S
C162 O155 1.247 . S
C162 O156 1.261 . S
C163 O158 1.259 . S
C163 O160 1.235 . S
O164 Co154 2.021 . S
O164 C161 1.238 . S
O165 Co159 2.052 . S
O165 C161 1.241 . S
O166 Co154 2.137 . S
O166 C157 1.247 . S
O167 Co154 2.244 . S
O167 C157 1.272 . S
O167 Co159 2.135 . S
Co168 O169 2.216 . S
Co168 O170 2.091 . S
Co168 O172 2.004 . S
Co168 O178 2.021 . S
Co168 O180 2.137 . S
Co168 O181 2.244 . S
O169 Co168 2.216 . S
O169 C176 1.247 . S
O170 Co168 2.091 . S
O170 C176 1.261 . S
C171 O180 1.247 . S
C171 O181 1.272 . S
O172 Co168 2.004 . S
O172 C177 1.259 . S
Co173 O174 2.061 . S
Co173 O179 2.052 . S
Co173 O181 2.135 . S
O174 Co173 2.061 . S
O174 C177 1.235 . S
C175 O178 1.238 . S
C175 O179 1.241 . S
C176 O169 1.247 . S
C176 O170 1.261 . S
C177 O172 1.259 . S
C177 O174 1.235 . S
O178 Co168 2.021 . S
O178 C175 1.238 . S
O179 Co173 2.052 . S
O179 C175 1.241 . S
O180 Co168 2.137 . S
O180 C171 1.247 . S
O181 Co168 2.244 . S
O181 C171 1.272 . S
O181 Co173 2.135 . S
Co182 O183 2.216 . S
Co182 O184 2.091 . S
Co182 O186 2.004 . S
Co182 O192 2.021 . S
Co182 O194 2.137 . S
Co182 O195 2.244 . S
O183 Co182 2.216 . S
O183 C190 1.247 . S
O184 Co182 2.091 . S
O184 C190 1.261 . S
C185 O194 1.247 . S
C185 O195 1.272 . S
O186 Co182 2.004 . S
O186 C191 1.259 . S
Co187 O188 2.061 . S
Co187 O193 2.052 . S
Co187 O195 2.135 . S
O188 Co187 2.061 . S
O188 C191 1.235 . S
C189 O192 1.238 . S
C189 O193 1.241 . S
C190 O183 1.247 . S
C190 O184 1.261 . S
C191 O186 1.259 . S
C191 O188 1.235 . S
O192 Co182 2.021 . S
O192 C189 1.238 . S
O193 Co187 2.052 . S
O193 C189 1.241 . S
O194 Co182 2.137 . S
O194 C185 1.247 . S
O195 Co182 2.244 . S
O195 C185 1.272 . S
O195 Co187 2.135 . S
Co196 O197 2.216 . S
Co196 O198 2.091 . S
Co196 O200 2.004 . S
Co196 O206 2.021 . S
Co196 O208 2.137 . S
Co196 O209 2.244 . S
O197 Co196 2.216 . S
O197 C204 1.247 . S
O198 Co196 2.091 . S
O198 C204 1.261 . S
C199 O208 1.247 . S
C199 O209 1.272 . S
O200 Co196 2.004 . S
O200 C205 1.259 . S
Co201 O202 2.061 . S
Co201 O207 2.052 . S
Co201 O209 2.135 . S
O202 Co201 2.061 . S
O202 C205 1.235 . S
C203 O206 1.238 . S
C203 O207 1.241 . S
C204 O197 1.247 . S
C204 O198 1.261 . S
C205 O200 1.259 . S
C205 O202 1.235 . S
O206 Co196 2.021 . S
O206 C203 1.238 . S
O207 Co201 2.052 . S
O207 C203 1.241 . S
O208 Co196 2.137 . S
O208 C199 1.247 . S
O209 Co196 2.244 . S
O209 C199 1.272 . S
O209 Co201 2.135 . S
Co210 O211 2.216 . S
Co210 O212 2.091 . S
Co210 O214 2.004 . S
Co210 O220 2.021 . S
Co210 O222 2.137 . S
Co210 O223 2.244 . S
O211 Co210 2.216 . S
O211 C218 1.247 . S
O212 Co210 2.091 . S
O212 C218 1.261 . S
C213 O222 1.247 . S
C213 O223 1.272 . S
O214 Co210 2.004 . S
O214 C219 1.259 . S
Co215 O216 2.061 . S
Co215 O221 2.052 . S
Co215 O223 2.135 . S
O216 Co215 2.061 . S
O216 C219 1.235 . S
C217 O220 1.238 . S
C217 O221 1.241 . S
C218 O211 1.247 . S
C218 O212 1.261 . S
C219 O214 1.259 . S
C219 O216 1.235 . S
O220 Co210 2.021 . S
O220 C217 1.238 . S
O221 Co215 2.052 . S
O221 C217 1.241 . S
O222 Co210 2.137 . S
O222 C213 1.247 . S
O223 Co210 2.244 . S
O223 C213 1.272 . S
O223 Co215 2.135 . S
C224 C225 1.387 . S
C224 H228 0.950 . S
C224 C233 1.390 . S
C225 C224 1.387 . S
C225 C227 1.387 . S
H226 C233 0.950 . S
C227 C225 1.387 . S
C227 C229 1.390 . S
C227 H231 0.950 . S
H228 C224 0.950 . S
C229 C227 1.390 . S
C229 C230 1.387 . S
C229 H232 0.950 . S
C230 C229 1.387 . S
C230 C233 1.387 . S
H231 C227 0.950 . S
H232 C229 0.950 . S
C233 C224 1.390 . S
C233 H226 0.950 . S
C233 C230 1.387 . S
C234 C235 1.387 . S
C234 H238 0.950 . S
C234 C243 1.390 . S
C235 C234 1.387 . S
C235 C237 1.387 . S
H236 C243 0.950 . S
C237 C235 1.387 . S
C237 C239 1.390 . S
C237 H241 0.950 . S
H238 C234 0.950 . S
C239 C237 1.390 . S
C239 C240 1.387 . S
C239 H242 0.950 . S
C240 C239 1.387 . S
C240 C243 1.387 . S
H241 C237 0.950 . S
H242 C239 0.950 . S
C243 C234 1.390 . S
C243 H236 0.950 . S
C243 C240 1.387 . S
C244 C245 1.387 . S
C244 H248 0.950 . S
C244 C253 1.390 . S
C245 C244 1.387 . S
C245 C247 1.387 . S
H246 C253 0.950 . S
C247 C245 1.387 . S
C247 C249 1.390 . S
C247 H251 0.950 . S
H248 C244 0.950 . S
C249 C247 1.390 . S
C249 C250 1.387 . S
C249 H252 0.950 . S
C250 C249 1.387 . S
C250 C253 1.387 . S
H251 C247 0.950 . S
H252 C249 0.950 . S
C253 C244 1.390 . S
C253 H246 0.950 . S
C253 C250 1.387 . S
C254 C255 1.387 . S
C254 H258 0.950 . S
C254 C263 1.390 . S
C255 C254 1.387 . S
C255 C257 1.387 . S
H256 C263 0.950 . S
C257 C255 1.387 . S
C257 C259 1.390 . S
C257 H261 0.950 . S
H258 C254 0.950 . S
C259 C257 1.390 . S
C259 C260 1.387 . S
C259 H262 0.950 . S
C260 C259 1.387 . S
C260 C263 1.387 . S
H261 C257 0.950 . S
H262 C259 0.950 . S
C263 C254 1.390 . S
C263 H256 0.950 . S
C263 C260 1.387 . S
C264 C265 1.387 . S
C264 H268 0.950 . S
C264 C273 1.390 . S
C265 C264 1.387 . S
C265 C267 1.387 . S
H266 C273 0.950 . S
C267 C265 1.387 . S
C267 C269 1.390 . S
C267 H271 0.950 . S
H268 C264 0.950 . S
C269 C267 1.390 . S
C269 C270 1.387 . S
C269 H272 0.950 . S
C270 C269 1.387 . S
C270 C273 1.387 . S
H271 C267 0.950 . S
H272 C269 0.950 . S
C273 C264 1.390 . S
C273 H266 0.950 . S
C273 C270 1.387 . S
C274 C275 1.387 . S
C274 H278 0.950 . S
C274 C283 1.390 . S
C275 C274 1.387 . S
C275 C277 1.387 . S
H276 C283 0.950 . S
C277 C275 1.387 . S
C277 C279 1.390 . S
C277 H281 0.950 . S
H278 C274 0.950 . S
C279 C277 1.390 . S
C279 C280 1.387 . S
C279 H282 0.950 . S
C280 C279 1.387 . S
C280 C283 1.387 . S
H281 C277 0.950 . S
H282 C279 0.950 . S
C283 C274 1.390 . S
C283 H276 0.950 . S
C283 C280 1.387 . S
C284 C285 1.387 . S
C284 H288 0.950 . S
C284 C293 1.390 . S
C285 C284 1.387 . S
C285 C287 1.387 . S
H286 C293 0.950 . S
C287 C285 1.387 . S
C287 C289 1.390 . S
C287 H291 0.950 . S
H288 C284 0.950 . S
C289 C287 1.390 . S
C289 C290 1.387 . S
C289 H292 0.950 . S
C290 C289 1.387 . S
C290 C293 1.387 . S
H291 C287 0.950 . S
H292 C289 0.950 . S
C293 C284 1.390 . S
C293 H286 0.950 . S
C293 C290 1.387 . S
C294 C295 1.387 . S
C294 H298 0.950 . S
C294 C303 1.390 . S
C295 C294 1.387 . S
C295 C297 1.387 . S
H296 C303 0.950 . S
C297 C295 1.387 . S
C297 C299 1.390 . S
C297 H301 0.950 . S
H298 C294 0.950 . S
C299 C297 1.390 . S
C299 C300 1.387 . S
C299 H302 0.950 . S
C300 C299 1.387 . S
C300 C303 1.387 . S
H301 C297 0.950 . S
H302 C299 0.950 . S
C303 C294 1.390 . S
C303 H296 0.950 . S
C303 C300 1.387 . S
C304 C305 1.387 . S
C304 H308 0.950 . S
C304 C313 1.390 . S
C305 C304 1.387 . S
C305 C307 1.387 1_565 S
H306 C313 0.950 . S
C307 C305 1.387 1_545 S
C307 C309 1.390 . S
C307 H311 0.950 . S
H308 C304 0.950 . S
C309 C307 1.390 . S
C309 C310 1.387 . S
C309 H312 0.950 . S
C310 C309 1.387 . S
C310 C313 1.387 1_545 S
H311 C307 0.950 . S
H312 C309 0.950 . S
C313 C304 1.390 . S
C313 H306 0.950 . S
C313 C310 1.387 1_565 S
C314 C315 1.387 . S
C314 H318 0.950 . S
C314 C323 1.390 . S
C315 C314 1.387 . S
C315 C317 1.387 . S
H316 C323 0.950 . S
C317 C315 1.387 . S
C317 C319 1.390 . S
C317 H321 0.950 . S
H318 C314 0.950 . S
C319 C317 1.390 . S
C319 C320 1.387 . S
C319 H322 0.950 . S
C320 C319 1.387 . S
C320 C323 1.387 . S
H321 C317 0.950 . S
H322 C319 0.950 . S
C323 C314 1.390 . S
C323 H316 0.950 . S
C323 C320 1.387 . S
C324 C325 1.387 . S
C324 H328 0.950 . S
C324 C333 1.390 . S
C325 C324 1.387 . S
C325 C327 1.387 . S
H326 C333 0.950 1_554 S
C327 C325 1.387 . S
C327 C329 1.390 . S
C327 H331 0.950 . S
H328 C324 0.950 . S
C329 C327 1.390 . S
C329 C330 1.387 1_556 S
C329 H332 0.950 1_556 S
C330 C329 1.387 1_554 S
C330 C333 1.387 1_554 S
H331 C327 0.950 . S
H332 C329 0.950 1_554 S
C333 C324 1.390 . S
C333 H326 0.950 1_556 S
C333 C330 1.387 1_556 S
C334 C335 1.387 1_556 S
C334 H338 0.950 . S
C334 C343 1.390 . S
C335 C334 1.387 1_554 S
C335 C337 1.387 . S
H336 C343 0.950 . S
C337 C335 1.387 . S
C337 C339 1.390 1_554 S
C337 H341 0.950 . S
H338 C334 0.950 . S
C339 C337 1.390 1_556 S
C339 C340 1.387 . S
C339 H342 0.950 . S
C340 C339 1.387 . S
C340 C343 1.387 . S
H341 C337 0.950 . S
H342 C339 0.950 . S
C343 C334 1.390 . S
C343 H336 0.950 . S
C343 C340 1.387 . S
C344 C345 1.387 . S
C344 H348 0.950 . S
C344 C353 1.390 . S
C345 C344 1.387 . S
C345 C347 1.387 . S
H346 C353 0.950 . S
C347 C345 1.387 . S
C347 C349 1.390 . S
C347 H351 0.950 . S
H348 C344 0.950 . S
C349 C347 1.390 . S
C349 C350 1.387 . S
C349 H352 0.950 . S
C350 C349 1.387 . S
C350 C353 1.387 . S
H351 C347 0.950 . S
H352 C349 0.950 . S
C353 C344 1.390 . S
C353 H346 0.950 . S
C353 C350 1.387 . S
C354 C355 1.387 . S
C354 H358 0.950 . S
C354 C363 1.390 . S
C355 C354 1.387 . S
C355 C357 1.387 . S
H356 C363 0.950 . S
C357 C355 1.387 . S
C357 C359 1.390 . S
C357 H361 0.950 . S
H358 C354 0.950 . S
C359 C357 1.390 . S
C359 C360 1.387 . S
C359 H362 0.950 . S
C360 C359 1.387 . S
C360 C363 1.387 . S
H361 C357 0.950 . S
H362 C359 0.950 . S
C363 C354 1.390 . S
C363 H356 0.950 . S
C363 C360 1.387 . S
C364 C365 1.387 . S
C364 H368 0.950 . S
C364 C373 1.390 1_655 S
C365 C364 1.387 . S
C365 C367 1.387 . S
H366 C373 0.950 . S
C367 C365 1.387 . S
C367 C369 1.390 1_655 S
C367 H371 0.950 . S
H368 C364 0.950 . S
C369 C367 1.390 1_455 S
C369 C370 1.387 . S
C369 H372 0.950 . S
C370 C369 1.387 . S
C370 C373 1.387 . S
H371 C367 0.950 . S
H372 C369 0.950 . S
C373 C364 1.390 1_455 S
C373 H366 0.950 . S
C373 C370 1.387 . S
C374 C375 1.387 . S
C374 H378 0.950 . S
C374 C383 1.390 1_655 S
C375 C374 1.387 . S
C375 C377 1.387 . S
H376 C383 0.950 . S
C377 C375 1.387 . S
C377 C379 1.390 1_655 S
C377 H381 0.950 . S
H378 C374 0.950 . S
C379 C377 1.390 1_455 S
C379 C380 1.387 . S
C379 H382 0.950 . S
C380 C379 1.387 . S
C380 C383 1.387 . S
H381 C377 0.950 . S
H382 C379 0.950 . S
C383 C374 1.390 1_455 S
C383 H376 0.950 . S
C383 C380 1.387 . S
C384 C385 1.387 . S
C384 H388 0.950 . S
C384 C393 1.390 . S
C385 C384 1.387 . S
C385 C387 1.387 . S
H386 C393 0.950 . S
C387 C385 1.387 . S
C387 C389 1.390 . S
C387 H391 0.950 . S
H388 C384 0.950 . S
C389 C387 1.390 . S
C389 C390 1.387 . S
C389 H392 0.950 . S
C390 C389 1.387 . S
C390 C393 1.387 . S
H391 C387 0.950 . S
H392 C389 0.950 . S
C393 C384 1.390 . S
C393 H386 0.950 . S
C393 C390 1.387 . S
C394 C395 1.387 . S
C394 H398 0.950 . S
C394 C403 1.390 1_545 S
C395 C394 1.387 . S
C395 C397 1.387 . S
H396 C403 0.950 . S
C397 C395 1.387 . S
C397 C399 1.390 1_545 S
C397 H401 0.950 . S
H398 C394 0.950 . S
C399 C397 1.390 1_565 S
C399 C400 1.387 . S
C399 H402 0.950 . S
C400 C399 1.387 . S
C400 C403 1.387 . S
H401 C397 0.950 . S
H402 C399 0.950 . S
C403 C394 1.390 1_565 S
C403 H396 0.950 . S
C403 C400 1.387 . S
C404 C405 1.387 . S
C404 H408 0.950 . S
C404 C413 1.390 . S
C405 C404 1.387 . S
C405 C407 1.387 . S
H406 C413 0.950 . S
C407 C405 1.387 . S
C407 C409 1.390 . S
C407 H411 0.950 . S
H408 C404 0.950 . S
C409 C407 1.390 . S
C409 C410 1.387 . S
C409 H412 0.950 . S
C410 C409 1.387 . S
C410 C413 1.387 . S
H411 C407 0.950 . S
H412 C409 0.950 . S
C413 C404 1.390 . S
C413 H406 0.950 . S
C413 C410 1.387 . S
C414 C415 1.387 . S
C414 H418 0.950 . S
C414 C423 1.390 . S
C415 C414 1.387 . S
C415 C417 1.387 . S
H416 C423 0.950 1_556 S
C417 C415 1.387 . S
C417 C419 1.390 . S
C417 H421 0.950 . S
H418 C414 0.950 . S
C419 C417 1.390 . S
C419 C420 1.387 1_554 S
C419 H422 0.950 1_554 S
C420 C419 1.387 1_556 S
C420 C423 1.387 1_556 S
H421 C417 0.950 . S
H422 C419 0.950 1_556 S
C423 C414 1.390 . S
C423 H416 0.950 1_554 S
C423 C420 1.387 1_554 S
C424 C425 1.387 1_554 S
C424 H428 0.950 1_554 S
C424 C433 1.390 . S
C425 C424 1.387 1_556 S
C425 C427 1.387 . S
H426 C433 0.950 . S
C427 C425 1.387 . S
C427 C429 1.390 1_556 S
C427 H431 0.950 . S
H428 C424 0.950 1_556 S
C429 C427 1.390 1_554 S
C429 C430 1.387 . S
C429 H432 0.950 . S
C430 C429 1.387 . S
C430 C433 1.387 . S
H431 C427 0.950 . S
H432 C429 0.950 . S
C433 C424 1.390 . S
C433 H426 0.950 . S
C433 C430 1.387 . S
C434 C435 1.387 . S
C434 H438 0.950 . S
C434 C443 1.390 . S
C435 C434 1.387 . S
C435 C437 1.387 . S
H436 C443 0.950 . S
C437 C435 1.387 . S
C437 C439 1.390 . S
C437 H441 0.950 . S
H438 C434 0.950 . S
C439 C437 1.390 . S
C439 C440 1.387 . S
C439 H442 0.950 . S
C440 C439 1.387 . S
C440 C443 1.387 . S
H441 C437 0.950 . S
H442 C439 0.950 . S
C443 C434 1.390 . S
C443 H436 0.950 . S
C443 C440 1.387 . S
C444 C445 1.387 . S
C444 H448 0.950 . S
C444 C453 1.390 . S
C445 C444 1.387 . S
C445 C447 1.387 . S
H446 C453 0.950 . S
C447 C445 1.387 . S
C447 C449 1.390 . S
C447 H451 0.950 . S
H448 C444 0.950 . S
C449 C447 1.390 . S
C449 C450 1.387 . S
C449 H452 0.950 . S
C450 C449 1.387 . S
C450 C453 1.387 . S
H451 C447 0.950 . S
H452 C449 0.950 . S
C453 C444 1.390 . S
C453 H446 0.950 . S
C453 C450 1.387 . S
C454 C455 1.387 . S
C454 H458 0.950 . S
C454 C463 1.390 1_455 S
C455 C454 1.387 . S
C455 C457 1.387 . S
H456 C463 0.950 . S
C457 C455 1.387 . S
C457 C459 1.390 1_455 S
C457 H461 0.950 . S
H458 C454 0.950 . S
C459 C457 1.390 1_655 S
C459 C460 1.387 . S
C459 H462 0.950 . S
C460 C459 1.387 . S
C460 C463 1.387 . S
H461 C457 0.950 . S
H462 C459 0.950 . S
C463 C454 1.390 1_655 S
C463 H456 0.950 . S
C463 C460 1.387 . S
C464 C465 1.387 . S
C464 H468 0.950 . S
C464 C473 1.390 1_455 S
C465 C464 1.387 . S
C465 C467 1.387 . S
H466 C473 0.950 . S
C467 C465 1.387 . S
C467 C469 1.390 1_455 S
C467 H471 0.950 . S
H468 C464 0.950 . S
C469 C467 1.390 1_655 S
C469 C470 1.387 . S
C469 H472 0.950 . S
C470 C469 1.387 . S
C470 C473 1.387 . S
H471 C467 0.950 . S
H472 C469 0.950 . S
C473 C464 1.390 1_655 S
C473 H466 0.950 . S
C473 C470 1.387 . S
C474 C475 1.387 . S
C474 H478 0.950 . S
C474 C483 1.390 . S
C475 C474 1.387 . S
C475 C477 1.387 . S
H476 C483 0.950 . S
C477 C475 1.387 . S
C477 C479 1.390 . S
C477 H481 0.950 . S
H478 C474 0.950 . S
C479 C477 1.390 . S
C479 C480 1.387 . S
C479 H482 0.950 . S
C480 C479 1.387 . S
C480 C483 1.387 . S
H481 C477 0.950 . S
H482 C479 0.950 . S
C483 C474 1.390 . S
C483 H476 0.950 . S
C483 C480 1.387 . S
C484 C485 1.387 . S
C484 H488 0.950 . S
C484 C493 1.390 . S
C485 C484 1.387 . S
C485 C487 1.387 . S
H486 C493 0.950 . S
C487 C485 1.387 . S
C487 C489 1.390 . S
C487 H491 0.950 . S
H488 C484 0.950 . S
C489 C487 1.390 . S
C489 C490 1.387 . S
C489 H492 0.950 . S
C490 C489 1.387 . S
C490 C493 1.387 . S
H491 C487 0.950 . S
H492 C489 0.950 . S
C493 C484 1.390 . S
C493 H486 0.950 . S
C493 C490 1.387 . S
C494 C495 1.387 . S
C494 H498 0.950 . S
C494 C503 1.390 1_545 S
C495 C494 1.387 . S
C495 C497 1.387 . S
H496 C503 0.950 . S
C497 C495 1.387 . S
C497 C499 1.390 1_545 S
C497 H501 0.950 . S
H498 C494 0.950 . S
C499 C497 1.390 1_565 S
C499 C500 1.387 . S
C499 H502 0.950 . S
C500 C499 1.387 . S
C500 C503 1.387 . S
H501 C497 0.950 . S
H502 C499 0.950 . S
C503 C494 1.390 1_565 S
C503 H496 0.950 . S
C503 C500 1.387 . S
C504 C505 1.387 . S
C504 H508 0.950 . S
C504 C513 1.390 . S
C505 C504 1.387 . S
C505 C507 1.387 . S
H506 C513 0.950 . S
C507 C505 1.387 . S
C507 C509 1.390 . S
C507 H511 0.950 . S
H508 C504 0.950 . S
C509 C507 1.390 . S
C509 C510 1.387 . S
C509 H512 0.950 . S
C510 C509 1.387 . S
C510 C513 1.387 . S
H511 C507 0.950 . S
H512 C509 0.950 . S
C513 C504 1.390 . S
C513 H506 0.950 . S
C513 C510 1.387 . S
C514 C515 1.387 . S
C514 H518 0.950 . S
C514 C523 1.390 . S
C515 C514 1.387 . S
C515 C517 1.387 . S
H516 C523 0.950 . S
C517 C515 1.387 . S
C517 C519 1.390 . S
C517 H521 0.950 . S
H518 C514 0.950 . S
C519 C517 1.390 . S
C519 C520 1.387 . S
C519 H522 0.950 . S
C520 C519 1.387 . S
C520 C523 1.387 . S
H521 C517 0.950 . S
H522 C519 0.950 . S
C523 C514 1.390 . S
C523 H516 0.950 . S
C523 C520 1.387 . S
C524 C525 1.387 . S
C524 H528 0.950 . S
C524 C533 1.390 1_545 S
C525 C524 1.387 . S
C525 C527 1.387 . S
H526 C533 0.950 . S
C527 C525 1.387 . S
C527 C529 1.390 1_545 S
C527 H531 0.950 . S
H528 C524 0.950 . S
C529 C527 1.390 1_565 S
C529 C530 1.387 . S
C529 H532 0.950 . S
C530 C529 1.387 . S
C530 C533 1.387 . S
H531 C527 0.950 . S
H532 C529 0.950 . S
C533 C524 1.390 1_565 S
C533 H526 0.950 . S
C533 C530 1.387 . S
C534 C535 1.387 . S
C534 H538 0.950 . S
C534 C543 1.390 . S
C535 C534 1.387 . S
C535 C537 1.387 . S
H536 C543 0.950 . S
C537 C535 1.387 . S
C537 C539 1.390 . S
C537 H541 0.950 . S
H538 C534 0.950 . S
C539 C537 1.390 . S
C539 C540 1.387 . S
C539 H542 0.950 . S
C540 C539 1.387 . S
C540 C543 1.387 . S
H541 C537 0.950 . S
H542 C539 0.950 . S
C543 C534 1.390 . S
C543 H536 0.950 . S
C543 C540 1.387 . S
C225 C7 1.371 . S
C230 C189 1.398 . S
C235 C21 1.445 . S
C240 C133 1.450 . S
C245 C203 0.794 . S
C250 C35 0.779 . S
C255 C49 0.969 . S
C260 C217 0.952 . S
C265 C63 1.444 . S
C270 C91 1.447 . S
C275 C147 1.369 . S
C280 C77 1.396 . S
C285 C161 0.780 . S
C290 C105 0.794 . S
C295 C119 0.948 . S
C300 C175 0.970 . S
C305 C36 1.554 . S
C310 C8 1.585 . S
C315 C22 1.613 . S
C320 C45 1.605 . S
C325 C177 1.532 . S
C330 C3 1.541 . S
C335 C17 1.615 . S
C340 C157 1.605 . S
C345 C59 1.615 . S
C350 C31 1.604 . S
C355 C143 1.541 . S
C360 C51 1.532 . S
C365 C23 1.846 . S
C370 C9 1.841 . S
C375 C50 1.537 . S
C380 C37 1.541 . S
C385 C149 1.842 . S
C390 C65 1.847 . S
C395 C101 1.784 . S
C400 C79 1.768 . S
C405 C93 1.520 . S
C410 C115 1.548 . S
C415 C218 1.780 . S
C420 C73 1.784 . S
C425 C87 1.460 . S
C430 C204 1.450 . S
C435 C129 1.460 . S
C440 C106 1.450 . S
C445 C120 1.780 . S
C450 C185 1.784 . S
C455 C92 1.556 . S
C460 C78 1.550 . S
C465 C121 1.640 . S
C470 C107 1.641 . S
C475 C134 1.558 . S
C480 C190 1.551 . S
C485 C148 1.585 . S
C490 C162 1.554 . S
C495 C171 1.607 . S
C500 C64 1.614 . S
C505 C176 1.539 . S
C510 C163 1.543 . S
C515 C199 1.784 . S
C520 C191 1.768 . S
C525 C135 1.520 . S
C530 C213 1.548 . S
C535 C219 1.640 . S
C540 C205 1.641 . S
