# Generated by pormake.
# Topology qtz-e, (6)-cn, num edge types: 1
# Building blocks:
#     Node 0, Type 0, BuildingBlock: MIFKUJ_clean_sbu_0, # of connection points: 6
#     Node 1, Type 0, BuildingBlock: MIFKUJ_clean_sbu_0, # of connection points: 6
#     Node 2, Type 0, BuildingBlock: MIFKUJ_clean_sbu_0, # of connection points: 6
#     Node 3, Type 0, BuildingBlock: MIFKUJ_clean_sbu_0, # of connection points: 6
#     Node 4, Type 0, BuildingBlock: MIFKUJ_clean_sbu_0, # of connection points: 6
#     Node 5, Type 0, BuildingBlock: MIFKUJ_clean_sbu_0, # of connection points: 6
#     Edge 6, Type (0, 0), BuildingBlock: UVAHIK_clean_linker_0, # of connection points: 2
#     Edge 7, Type (0, 0), BuildingBlock: UVAHIK_clean_linker_0, # of connection points: 2
#     Edge 8, Type (0, 0), BuildingBlock: UVAHIK_clean_linker_0, # of connection points: 2
#     Edge 9, Type (0, 0), BuildingBlock: UVAHIK_clean_linker_0, # of connection points: 2
#     Edge 10, Type (0, 0), BuildingBlock: UVAHIK_clean_linker_0, # of connection points: 2
#     Edge 11, Type (0, 0), BuildingBlock: UVAHIK_clean_linker_0, # of connection points: 2
#     Edge 12, Type (0, 0), BuildingBlock: UVAHIK_clean_linker_0, # of connection points: 2
#     Edge 13, Type (0, 0), BuildingBlock: UVAHIK_clean_linker_0, # of connection points: 2
#     Edge 14, Type (0, 0), BuildingBlock: UVAHIK_clean_linker_0, # of connection points: 2
#     Edge 15, Type (0, 0), BuildingBlock: UVAHIK_clean_linker_0, # of connection points: 2
#     Edge 16, Type (0, 0), BuildingBlock: UVAHIK_clean_linker_0, # of connection points: 2
#     Edge 17, Type (0, 0), BuildingBlock: UVAHIK_clean_linker_0, # of connection points: 2
#     Edge 18, Type (0, 0), BuildingBlock: UVAHIK_clean_linker_0, # of connection points: 2
#     Edge 19, Type (0, 0), BuildingBlock: UVAHIK_clean_linker_0, # of connection points: 2
#     Edge 20, Type (0, 0), BuildingBlock: UVAHIK_clean_linker_0, # of connection points: 2
#     Edge 21, Type (0, 0), BuildingBlock: UVAHIK_clean_linker_0, # of connection points: 2
#     Edge 22, Type (0, 0), BuildingBlock: UVAHIK_clean_linker_0, # of connection points: 2
#     Edge 23, Type (0, 0), BuildingBlock: UVAHIK_clean_linker_0, # of connection points: 2
# Relax obj value: 0.224
# Max RMSD: 0.224
# Mean RMSD: 0.224
data_MOF--net-qtz-e--node1-MIFKUJ_clean_sbu_0--edge1-UVAHIK_clean_linker_0
_symmetry_space_group_name_H-M    P1
_symmetry_Int_Tables_number       1
_symmetry_cell_setting            triclinic
loop_
_symmetry_equiv_pos_as_xyz
'x, y, z'
_cell_length_a     31.504249
_cell_length_b     31.431196
_cell_length_c     52.505418
_cell_angle_alpha  90.397644
_cell_angle_beta   89.99763
_cell_angle_gamma 120.35541
loop_
_atom_site_label
_atom_site_type_symbol
_atom_site_fract_x
_atom_site_fract_y
_atom_site_fract_z
_atom_type_partial_charge
Zn0 Zn 0.15902 0.33955 0.98004 0.0
Zn1 Zn 0.16098 0.37596 0.0494 0.0
C2 C 0.18752 0.41178 0.93923 0.0
O3 O 0.14666 0.37802 0.92825 0.0
C4 C 0.10993 0.27643 0.06822 0.0
O5 O 0.1537 0.28122 0.06624 0.0
O6 O 0.13029 0.28664 0.9531 0.0
O7 O 0.21127 0.33547 1.00017 0.0
O8 O 0.21793 0.36811 0.03891 0.0
C9 C 0.13101 0.24664 0.95391 0.0
O10 O 0.14792 0.23641 0.97443 0.0
O11 O 0.19818 0.40393 0.9614 0.0
C12 C 0.14805 0.42778 0.08998 0.0
O13 O 0.10433 0.40637 0.0792 0.0
O14 O 0.18091 0.42032 0.08052 0.0
O15 O 0.14217 0.40893 0.02309 0.0
O16 O 0.10697 0.34065 1.00092 0.0
O17 O 0.10359 0.31095 0.06025 0.0
C18 C 0.23337 0.35092 0.0215 0.0
C19 C 0.11592 0.38434 1.0043 0.0
Zn20 Zn 0.83042 0.1972 0.32803 0.0
Zn21 Zn 0.82977 0.20836 0.40787 0.0
C22 C 0.78904 0.24089 0.29446 0.0
O23 O 0.7473 0.20032 0.29915 0.0
C24 C 0.89704 0.19993 0.43965 0.0
O25 O 0.90789 0.24529 0.44489 0.0
O26 O 0.85992 0.16451 0.3077 0.0
O27 O 0.86671 0.22768 0.36021 0.0
O28 O 0.8759 0.27442 0.39272 0.0
C29 C 0.90611 0.18741 0.30434 0.0
O30 O 0.93341 0.22892 0.31685 0.0
O31 O 0.82831 0.24742 0.30494 0.0
C32 C 0.76968 0.18333 0.45257 0.0
O33 O 0.77396 0.14392 0.45109 0.0
O34 O 0.79123 0.21708 0.43611 0.0
O35 O 0.78049 0.16741 0.38005 0.0
O36 O 0.76262 0.1471 0.33955 0.0
O37 O 0.86551 0.17614 0.42231 0.0
C38 C 0.87832 0.26995 0.36885 0.0
C39 C 0.74941 0.14167 0.36282 0.0
Zn40 Zn 0.62637 0.84959 0.65602 0.0
Zn41 Zn 0.60909 0.83579 0.73507 0.0
C42 C 0.53559 0.80677 0.62667 0.0
O43 O 0.52797 0.766 0.63752 0.0
C44 C 0.69585 0.9002 0.76517 0.0
O45 O 0.66751 0.91535 0.77518 0.0
O46 O 0.6918 0.88268 0.63832 0.0
O47 O 0.62844 0.88003 0.68926 0.0
O48 O 0.58855 0.88253 0.72209 0.0
C49 C 0.72655 0.92623 0.64306 0.0
O50 O 0.7211 0.95194 0.66127 0.0
O51 O 0.57467 0.84717 0.63198 0.0
C52 C 0.55983 0.75779 0.77153 0.0
O53 O 0.5874 0.74238 0.76081 0.0
O54 O 0.56354 0.7979 0.76403 0.0
O55 O 0.59956 0.78566 0.70719 0.0
O56 O 0.60853 0.78113 0.66529 0.0
O57 O 0.67908 0.86868 0.74717 0.0
C58 C 0.59557 0.88754 0.69834 0.0
C59 C 0.5967 0.7611 0.68715 0.0
Zn60 Zn 0.82436 0.63628 0.97171 0.0
Zn61 Zn 0.82943 0.60097 0.04218 0.0
C62 C 0.80347 0.56041 0.93159 0.0
O63 O 0.84827 0.58939 0.92313 0.0
C64 C 0.86378 0.69361 0.06652 0.0
O65 O 0.81613 0.67629 0.06733 0.0
O66 O 0.85135 0.69209 0.94677 0.0
O67 O 0.76889 0.63334 0.9921 0.0
O68 O 0.76903 0.60164 0.03009 0.0
C69 C 0.85678 0.73417 0.95173 0.0
O70 O 0.84549 0.74288 0.97451 0.0
O71 O 0.78916 0.5727 0.9515 0.0
C72 C 0.84591 0.56029 0.08674 0.0
O73 O 0.89142 0.59276 0.0806 0.0
O74 O 0.81105 0.55611 0.07272 0.0
O75 O 0.85717 0.57511 0.01618 0.0
O76 O 0.87765 0.64055 0.99364 0.0
O77 O 0.87958 0.66872 0.05493 0.0
C78 C 0.74877 0.61495 0.01341 0.0
C79 C 0.87682 0.60021 0.99641 0.0
Zn80 Zn 0.15616 0.80579 0.31954 0.0
Zn81 Zn 0.17168 0.77555 0.37672 0.0
C82 C 0.20407 0.77366 0.28399 0.0
O83 O 0.22338 0.81949 0.27639 0.0
C84 C 0.12336 0.8164 0.40427 0.0
O85 O 0.0933 0.76921 0.40831 0.0
O86 O 0.14253 0.83681 0.28976 0.0
O87 O 0.0905 0.76191 0.33636 0.0
O88 O 0.10853 0.71954 0.36363 0.0
C89 C 0.11236 0.85237 0.28983 0.0
O90 O 0.08993 0.8514 0.31111 0.0
O91 O 0.17595 0.75971 0.3033 0.0
C92 C 0.23224 0.79712 0.41895 0.0
O93 O 0.24337 0.84039 0.40993 0.0
O94 O 0.19858 0.75856 0.40784 0.0
O95 O 0.2265 0.80152 0.35177 0.0
O96 O 0.2129 0.8596 0.3396 0.0
O97 O 0.1591 0.82913 0.38907 0.0
C98 C 0.0778 0.72345 0.34953 0.0
C99 C 0.24241 0.84684 0.34817 0.0
Zn100 Zn 0.33477 0.14413 0.65841 0.0
Zn101 Zn 0.38925 0.16856 0.71139 0.0
C102 C 0.42036 0.18976 0.62663 0.0
O103 O 0.40016 0.21571 0.61981 0.0
C104 C 0.30635 0.1253 0.74383 0.0
O105 O 0.3274 0.09981 0.74999 0.0
O106 O 0.29198 0.12676 0.62727 0.0
O107 O 0.3081 0.08239 0.67901 0.0
O108 O 0.37853 0.10385 0.69825 0.0
C109 C 0.24641 0.09479 0.62668 0.0
O110 O 0.22389 0.07374 0.64797 0.0
O111 O 0.40007 0.15777 0.64403 0.0
C112 C 0.43815 0.22656 0.75498 0.0
O113 O 0.40465 0.23896 0.751 0.0
O114 O 0.43921 0.19463 0.74033 0.0
O115 O 0.41551 0.22428 0.68666 0.0
O116 O 0.34178 0.20613 0.67416 0.0
O117 O 0.32534 0.15713 0.72628 0.0
C118 C 0.33795 0.07088 0.68857 0.0
C119 C 0.386 0.2381 0.67948 0.0
C120 C 0.23298 0.75108 0.24443 0.0
C121 C 0.20922 0.73727 0.26814 0.0
C122 C 0.23241 0.71573 0.22789 0.0
C123 C 0.15787 0.58249 0.21384 0.0
H124 H 0.26221 0.61158 0.16566 0.0
C125 C 0.12224 0.47017 0.12158 0.0
C126 C 0.15853 0.4606 0.11242 0.0
C127 C 0.13171 0.50157 0.14243 0.0
C128 C 0.23294 0.60252 0.17917 0.0
H129 H 0.16876 0.67579 0.29368 0.0
H130 H 0.16871 0.61428 0.26508 0.0
H131 H 0.27561 0.67045 0.19964 0.0
H132 H 0.23328 0.47632 0.1182 0.0
H133 H 0.24968 0.53087 0.15492 0.0
H134 H 0.11534 0.51447 0.19359 0.0
C135 C 0.18675 0.6523 0.25897 0.0
C136 C 0.24042 0.63657 0.1985 0.0
C137 C 0.18707 0.68765 0.27547 0.0
C138 C 0.20455 0.48302 0.12474 0.0
C139 C 0.21402 0.51446 0.14571 0.0
C140 C 0.15049 0.54843 0.19462 0.0
C141 C 0.20833 0.66568 0.23469 0.0
C142 C 0.20263 0.62742 0.2158 0.0
C143 C 0.17767 0.52414 0.15481 0.0
C144 C 0.18751 0.55842 0.17669 0.0
H145 H 0.2504 0.78896 0.23815 0.0
H146 H 0.24897 0.72747 0.20929 0.0
H147 H 0.12769 0.57423 0.22659 0.0
H148 H 0.08646 0.45377 0.1125 0.0
H149 H 0.10314 0.50886 0.14853 0.0
C150 C 0.47811 0.1594 0.61562 0.0
C151 C 0.46283 0.19401 0.61228 0.0
C152 C 0.51482 0.16049 0.60017 0.0
C153 C 0.61619 0.23909 0.55626 0.0
H154 H 0.58927 0.11411 0.52717 0.0
C155 C 0.72837 0.22598 0.47229 0.0
C156 C 0.73819 0.18705 0.47238 0.0
C157 C 0.69708 0.22822 0.49048 0.0
C158 C 0.59782 0.14927 0.53539 0.0
H159 H 0.4756 0.25811 0.5908 0.0
H160 H 0.53964 0.26002 0.56393 0.0
H161 H 0.53199 0.1161 0.55759 0.0
H162 H 0.72358 0.12046 0.49196 0.0
H163 H 0.66984 0.12482 0.52387 0.0
H164 H 0.68203 0.27228 0.534 0.0
C165 C 0.52331 0.2321 0.5785 0.0
C166 C 0.56491 0.15039 0.55285 0.0
C167 C 0.4864 0.23083 0.59383 0.0
C168 C 0.7166 0.15083 0.49126 0.0
C169 C 0.6855 0.15316 0.50948 0.0
C170 C 0.64927 0.23796 0.53886 0.0
C171 C 0.53732 0.1964 0.58116 0.0
C172 C 0.57358 0.19531 0.56342 0.0
C173 C 0.675 0.19166 0.50923 0.0
C174 C 0.6404 0.19303 0.52813 0.0
H175 H 0.46077 0.13058 0.62968 0.0
H176 H 0.52527 0.13288 0.60293 0.0
H177 H 0.62416 0.27424 0.56426 0.0
H178 H 0.74425 0.25438 0.45794 0.0
H179 H 0.68935 0.25806 0.48949 0.0
C180 C 0.2139 0.46305 0.89967 0.0
C181 C 0.22372 0.45569 0.92487 0.0
C182 C 0.25027 0.50116 0.88511 0.0
C183 C 0.38504 0.57654 0.88055 0.0
H184 H 0.35678 0.64968 0.83088 0.0
C185 C 0.49319 0.74339 0.80259 0.0
C186 C 0.52336 0.7276 0.79121 0.0
C187 C 0.45761 0.71387 0.82048 0.0
C188 C 0.36546 0.62998 0.84484 0.0
H189 H 0.27873 0.48429 0.95494 0.0
H190 H 0.34192 0.55088 0.92961 0.0
H191 H 0.2922 0.59356 0.85976 0.0
H192 H 0.53987 0.66846 0.78987 0.0
H193 H 0.47775 0.617 0.82083 0.0
H194 H 0.45824 0.61291 0.86571 0.0
C195 C 0.30638 0.52668 0.92096 0.0
C196 C 0.32828 0.59743 0.86122 0.0
C197 C 0.27 0.48867 0.93553 0.0
C198 C 0.51747 0.6819 0.79834 0.0
C199 C 0.48197 0.65246 0.81622 0.0
C200 C 0.42214 0.60897 0.86416 0.0
C201 C 0.29731 0.53276 0.8954 0.0
C202 C 0.33749 0.56993 0.87911 0.0
C203 C 0.45143 0.66794 0.82744 0.0
C204 C 0.41268 0.63567 0.84589 0.0
H205 H 0.17863 0.43841 0.89088 0.0
H206 H 0.24212 0.50455 0.86544 0.0
H207 H 0.39333 0.55561 0.89391 0.0
H208 H 0.49682 0.77844 0.79758 0.0
H209 H 0.4351 0.72717 0.82897 0.0
C210 C 0.83581 0.31965 0.27008 0.0
C211 C 0.79086 0.27724 0.27599 0.0
C212 C 0.83803 0.35235 0.2515 0.0
C213 C 0.77194 0.35611 0.1944 0.0
H214 H 0.85962 0.49734 0.20062 0.0
C215 C 0.78787 0.49215 0.11575 0.0
C216 C 0.83595 0.52926 0.10962 0.0
C217 C 0.77913 0.46263 0.13722 0.0
C218 C 0.83517 0.45794 0.19853 0.0
H219 H 0.7127 0.23679 0.26751 0.0
H220 H 0.71659 0.29388 0.23512 0.0
H221 H 0.85003 0.44423 0.23646 0.0
H222 H 0.91245 0.56464 0.12141 0.0
H223 H 0.89727 0.51319 0.15857 0.0
H224 H 0.75762 0.36976 0.15635 0.0
C225 C 0.75024 0.30155 0.24466 0.0
C226 C 0.82969 0.42751 0.21907 0.0
C227 C 0.74798 0.26895 0.26333 0.0
C228 C 0.87494 0.53645 0.12555 0.0
C229 C 0.8662 0.50715 0.147 0.0
C230 C 0.77739 0.38657 0.17386 0.0
C231 C 0.79539 0.34331 0.23827 0.0
C232 C 0.79852 0.37613 0.21714 0.0
C233 C 0.81825 0.46979 0.15309 0.0
C234 C 0.80962 0.43778 0.17555 0.0
H235 H 0.86957 0.32711 0.27941 0.0
H236 H 0.87352 0.38387 0.24692 0.0
H237 H 0.74814 0.31665 0.19211 0.0
H238 H 0.75699 0.48571 0.10391 0.0
H239 H 0.7417 0.43443 0.14149 0.0
C240 C 0.46015 0.75956 0.59966 0.0
C241 C 0.49999 0.80509 0.60769 0.0
C242 C 0.42855 0.75738 0.58035 0.0
C243 C 0.42651 0.82851 0.52549 0.0
H244 H 0.28571 0.7372 0.52613 0.0
C245 C 0.29847 0.83891 0.45155 0.0
C246 C 0.26011 0.79481 0.44111 0.0
C247 C 0.32603 0.83816 0.4721 0.0
C248 C 0.32505 0.76244 0.52555 0.0
H249 H 0.53626 0.88428 0.60271 0.0
H250 H 0.48075 0.88053 0.56921 0.0
H251 H 0.336 0.74104 0.56254 0.0
H252 H 0.22056 0.71518 0.44425 0.0
H253 H 0.26928 0.71384 0.48038 0.0
H254 H 0.41583 0.84989 0.48858 0.0
C255 C 0.47466 0.84639 0.57743 0.0
C256 C 0.35384 0.76476 0.54643 0.0
C257 C 0.50636 0.84857 0.59671 0.0
C258 C 0.2498 0.74977 0.45189 0.0
C259 C 0.27754 0.74904 0.47263 0.0
C260 C 0.39782 0.82616 0.50468 0.0
C261 C 0.43596 0.8007 0.56868 0.0
C262 C 0.40489 0.79813 0.54671 0.0
C263 C 0.31621 0.79331 0.48283 0.0
C264 C 0.34668 0.79346 0.50452 0.0
H265 H 0.45405 0.72535 0.60779 0.0
H266 H 0.39933 0.72159 0.57398 0.0
H267 H 0.46584 0.85375 0.52479 0.0
H268 H 0.30751 0.87436 0.44381 0.0
H269 H 0.35491 0.87297 0.47973 0.0
C270 C 0.78265 0.49798 0.89651 0.0
C271 C 0.76733 0.51742 0.91627 0.0
C272 C 0.74801 0.46021 0.88072 0.0
C273 C 0.61282 0.36882 0.8744 0.0
H274 H 0.6442 0.37508 0.80261 0.0
C275 C 0.46664 0.27746 0.79483 0.0
C276 C 0.47531 0.25184 0.77538 0.0
C277 C 0.50259 0.30435 0.81324 0.0
C278 C 0.63514 0.37247 0.82266 0.0
H279 H 0.7035 0.51188 0.93519 0.0
H280 H 0.64359 0.4479 0.90731 0.0
H281 H 0.70644 0.43232 0.83247 0.0
H282 H 0.52837 0.23388 0.76018 0.0
H283 H 0.59182 0.28188 0.79222 0.0
H284 H 0.54061 0.31043 0.86414 0.0
C285 C 0.68212 0.46041 0.90428 0.0
C286 C 0.6709 0.40518 0.83987 0.0
C287 C 0.71665 0.49751 0.92027 0.0
C288 C 0.52054 0.25308 0.77498 0.0
C289 C 0.55692 0.28074 0.7932 0.0
C290 C 0.57689 0.33667 0.85711 0.0
C291 C 0.69721 0.44151 0.88407 0.0
C292 C 0.66015 0.40422 0.86598 0.0
C293 C 0.54837 0.30688 0.81243 0.0
C294 C 0.58753 0.33844 0.83103 0.0
H295 H 0.82143 0.51228 0.89308 0.0
H296 H 0.76118 0.44599 0.86576 0.0
H297 H 0.60326 0.366 0.89436 0.0
H298 H 0.43216 0.2772 0.79571 0.0
H299 H 0.4951 0.32445 0.82769 0.0
C300 C 0.30854 0.37471 0.04757 0.0
C301 C 0.28366 0.3592 0.02407 0.0
C302 C 0.35977 0.39795 0.04852 0.0
C303 C 0.45722 0.48317 0.00939 0.0
H304 H 0.54708 0.46862 0.05389 0.0
C305 C 0.66631 0.59259 0.99621 0.0
C306 C 0.69693 0.60079 0.01732 0.0
C307 C 0.61534 0.56683 0.99899 0.0
C308 C 0.52236 0.47385 0.04172 0.0
H309 H 0.29233 0.34971 0.98374 0.0
H310 H 0.38171 0.39087 0.98549 0.0
H311 H 0.45931 0.40745 0.05493 0.0
H312 H 0.69863 0.59386 0.05833 0.0
H313 H 0.60958 0.55065 0.06335 0.0
H314 H 0.51924 0.55009 0.99666 0.0
C315 C 0.36153 0.38554 1.00303 0.0
C316 C 0.47232 0.43844 0.04213 0.0
C317 C 0.31035 0.36176 1.0021 0.0
C318 C 0.67584 0.5873 0.04164 0.0
C319 C 0.62483 0.5621 0.04448 0.0
C320 C 0.50696 0.51895 0.00928 0.0
C321 C 0.38659 0.40616 0.02597 0.0
C322 C 0.43962 0.44247 0.02564 0.0
C323 C 0.59398 0.54944 0.02301 0.0
C324 C 0.54032 0.51439 0.02514 0.0
H325 H 0.28886 0.37254 0.06489 0.0
H326 H 0.37849 0.4133 0.06646 0.0
H327 H 0.43228 0.48761 0.99697 0.0
H328 H 0.68141 0.6025 0.9772 0.0
H329 H 0.59286 0.55768 0.98199 0.0
C330 C 0.00454 0.67104 0.32206 0.0
C331 C 0.02845 0.68004 0.34579 0.0
C332 C 0.9637 0.62476 0.31654 0.0
C333 C 0.87584 0.50356 0.3449 0.0
H334 H 0.91892 0.44945 0.29089 0.0
C335 C 0.83089 0.30728 0.35281 0.0
C336 C 0.87452 0.30558 0.35271 0.0
C337 C 0.82929 0.34631 0.3413 0.0
C338 C 0.90569 0.46389 0.30574 0.0
H339 H 0.02562 0.65016 0.38319 0.0
H340 H 0.95424 0.57004 0.37383 0.0
H341 H 0.9515 0.53813 0.29331 0.0
H342 H 0.94939 0.34026 0.33925 0.0
H343 H 0.94775 0.40991 0.32001 0.0
H344 H 0.83425 0.43044 0.35902 0.0
C345 C 0.96687 0.59823 0.35936 0.0
C346 C 0.92392 0.51466 0.30698 0.0
C347 C 0.00809 0.64398 0.3647 0.0
C348 C 0.91549 0.34123 0.33949 0.0
C349 C 0.91419 0.38072 0.32826 0.0
C350 C 0.85775 0.45293 0.34372 0.0
C351 C 0.94568 0.58737 0.33487 0.0
C352 C 0.91202 0.53517 0.32773 0.0
C353 C 0.87173 0.38485 0.33007 0.0
C354 C 0.8755 0.43313 0.32527 0.0
H355 H 0.01955 0.69832 0.30712 0.0
H356 H 0.94799 0.61732 0.29755 0.0
H357 H 0.86542 0.51844 0.36082 0.0
H358 H 0.79872 0.27948 0.36276 0.0
H359 H 0.79585 0.34796 0.34263 0.0
C360 C 0.31074 -0.00338 0.66091 0.0
C361 C 0.3301 0.02116 0.68424 0.0
C362 C 0.31479 0.95566 0.65417 0.0
C363 C 0.3522 0.86875 0.67844 0.0
H364 H 0.44536 0.91627 0.6227 0.0
C365 C 0.51005 0.83539 0.68319 0.0
C366 C 0.55437 0.88062 0.68248 0.0
C367 C 0.4676 0.83059 0.6721 0.0
C368 C 0.41882 0.90177 0.63802 0.0
H369 H 0.36383 0.01964 0.71984 0.0
H370 H 0.36974 0.94769 0.70853 0.0
H371 H 0.38757 0.94577 0.62751 0.0
H372 H 0.59087 0.95512 0.66832 0.0
H373 H 0.51642 0.94796 0.64987 0.0
H374 H 0.38672 0.82925 0.69078 0.0
C375 C 0.35182 0.95992 0.69528 0.0
C376 C 0.38526 0.91819 0.6406 0.0
C377 C 0.34886 0.00138 0.70173 0.0
C378 C 0.55684 0.92 0.66901 0.0
C379 C 0.51419 0.9155 0.65822 0.0
C380 C 0.38578 0.85249 0.67593 0.0
C381 C 0.33706 0.93813 0.67097 0.0
C382 C 0.35459 0.90494 0.66207 0.0
C383 C 0.46855 0.87143 0.66075 0.0
C384 C 0.42217 0.87214 0.65693 0.0
H385 H 0.29623 0.01142 0.64706 0.0
H386 H 0.3033 0.93959 0.63533 0.0
H387 H 0.32826 0.85734 0.69489 0.0
H388 H 0.50784 0.80439 0.6933 0.0
H389 H 0.4334 0.7959 0.67391 0.0
C390 C 0.59671 0.68541 0.67343 0.0
C391 C 0.57737 0.70791 0.68892 0.0
C392 C 0.57522 0.63429 0.67306 0.0
C393 C 0.48396 0.51961 0.70634 0.0
H394 H 0.48416 0.46018 0.64134 0.0
C395 C 0.37203 0.30937 0.68315 0.0
C396 C 0.40356 0.29105 0.67785 0.0
C397 C 0.3905 0.36023 0.68393 0.0
C398 C 0.48373 0.47647 0.65953 0.0
H399 H 0.52113 0.6955 0.71643 0.0
H400 H 0.4818 0.6059 0.71495 0.0
H401 H 0.52261 0.54944 0.64486 0.0
H402 H 0.47815 0.31073 0.6681 0.0
H403 H 0.50991 0.39958 0.66856 0.0
H404 H 0.44342 0.44575 0.72055 0.0
C405 C 0.51454 0.62746 0.70369 0.0
C406 C 0.50625 0.52757 0.66171 0.0
C407 C 0.53692 0.67877 0.70453 0.0
C408 C 0.45322 0.32407 0.67236 0.0
C409 C 0.47133 0.37468 0.67254 0.0
C410 C 0.46047 0.46836 0.70397 0.0
C411 C 0.53295 0.60452 0.6876 0.0
C412 C 0.50743 0.54991 0.68526 0.0
C413 C 0.44031 0.39307 0.67874 0.0
C414 C 0.46084 0.44663 0.68064 0.0
H415 H 0.62828 0.70739 0.66143 0.0
H416 H 0.59149 0.61818 0.6611 0.0
H417 H 0.48461 0.53536 0.72484 0.0
H418 H 0.33365 0.28451 0.68757 0.0
H419 H 0.3661 0.37396 0.6887 0.0
C420 C 0.05586 0.3844 0.97365 0.0
C421 C 0.10272 0.40893 0.98476 0.0
C422 C 0.03965 0.41051 0.95908 0.0
C423 C 0.06654 0.53913 0.95646 0.0
H424 H 0.94233 0.47424 0.92002 0.0
C425 C 0.94108 0.61769 0.96369 0.0
C426 C 0.90004 0.58341 0.97765 0.0
C427 C 0.96919 0.60233 0.95005 0.0
C428 C 0.97763 0.49333 0.92965 0.0
H429 H 0.17209 0.47777 0.98665 0.0
H430 H 0.14547 0.5226 0.95962 0.0
H431 H -0.00721 0.43563 0.92146 0.0
H432 H 0.85254 0.5059 0.98588 0.0
H433 H 0.90109 0.47901 0.96195 0.0
H434 H 0.0506 0.59591 0.96531 0.0
C435 C 0.1197 0.48414 0.96341 0.0
C436 C 0.00633 0.47099 0.9308 0.0
C437 C 0.13516 0.45849 0.97881 0.0
C438 C 0.88451 0.5331 0.97559 0.0
C439 C 0.91197 0.51767 0.96159 0.0
C440 C 0.03847 0.56186 0.95479 0.0
C441 C 0.07063 0.46144 0.95477 0.0
C442 C 0.04933 0.49182 0.94589 0.0
C443 C 0.95595 0.5524 0.94981 0.0
C444 C -0.0078 0.53757 0.94291 0.0
H445 H 0.03038 0.34602 0.97789 0.0
H446 H 0.00157 0.39129 0.95304 0.0
H447 H 0.09915 0.55685 0.96831 0.0
H448 H 0.95355 0.6567 0.96484 0.0
H449 H 0.00296 0.62977 0.94113 0.0
C450 C 0.32358 0.8677 0.36655 0.0
C451 C 0.29159 0.88345 0.35789 0.0
C452 C 0.37031 0.90165 0.37558 0.0
C453 C 0.4645 0.02813 0.36477 0.0
H454 H 0.53624 -0.00351 0.41396 0.0
C455 C 0.6795 0.1117 0.39378 0.0
C456 C 0.69679 0.11097 0.36914 0.0
C457 C 0.62894 0.08819 0.39855 0.0
C458 C 0.5165 0.00625 0.40053 0.0
H459 H 0.28256 0.94689 0.35306 0.0
H460 H 0.36493 0.00665 0.36865 0.0
H461 H 0.44606 0.94886 0.41324 0.0
H462 H 0.67475 0.08247 0.33065 0.0
H463 H 0.58703 0.04181 0.339 0.0
H464 H 0.53479 0.08383 0.3513 0.0
C465 C 0.3537 0.9679 0.36828 0.0
C466 C 0.46508 0.97895 0.39999 0.0
C467 C 0.30674 0.93379 0.35922 0.0
C468 C 0.66273 0.08425 0.34976 0.0
C469 C 0.61253 0.06122 0.35447 0.0
C470 C 0.51565 0.05515 0.36528 0.0
C471 C 0.38629 0.95222 0.3761 0.0
C472 C 0.43876 0.98821 0.38129 0.0
C473 C 0.59526 0.06413 0.37867 0.0
C474 C 0.542 0.04289 0.38234 0.0
H475 H 0.3129 0.82909 0.36594 0.0
H476 H 0.39473 0.88837 0.38099 0.0
H477 H 0.44548 0.03615 0.35008 0.0
H478 H 0.70487 0.13193 0.40911 0.0
H479 H 0.61624 0.09047 0.41741 0.0
C480 C 0.24478 0.15114 0.75402 0.0
C481 C 0.2661 0.12236 0.75966 0.0
C482 C 0.21209 0.15378 0.77109 0.0
C483 C 0.14188 0.10041 0.83145 0.0
H484 H 0.17544 0.23554 0.84406 0.0
C485 C 0.13188 0.17849 0.92926 0.0
C486 C 0.12198 0.21734 0.93025 0.0
C487 C 0.13286 0.15745 0.90588 0.0
C488 C 0.16463 0.19738 0.84052 0.0
H489 H 0.2673 0.07125 0.7868 0.0
H490 H 0.21173 0.07691 0.81676 0.0
H491 H 0.2079 0.21609 0.80679 0.0
H492 H 0.10058 0.26122 0.90774 0.0
H493 H 0.10229 0.22445 0.86705 0.0
H494 H 0.10093 0.08262 0.86626 0.0
C495 C 0.2194 0.0969 0.79906 0.0
C496 C 0.18324 0.18614 0.81903 0.0
C497 C 0.25172 0.09396 0.78192 0.0
C498 C 0.10903 0.23182 0.90763 0.0
C499 C 0.11012 0.21087 0.88428 0.0
C500 C 0.12354 0.11178 0.85311 0.0
C501 C 0.20034 0.12802 0.79425 0.0
C502 C 0.17332 0.13778 0.81459 0.0
C503 C 0.12398 0.17489 0.88306 0.0
C504 C 0.13585 0.16065 0.85821 0.0
H505 H 0.25468 0.17305 0.73688 0.0
H506 H 0.19732 0.17733 0.76653 0.0
H507 H 0.1327 0.06259 0.82836 0.0
H508 H 0.14168 0.16624 0.94634 0.0
H509 H 0.14388 0.12992 0.90556 0.0
C510 C 0.9753 0.20676 0.27465 0.0
C511 C 0.92668 0.17439 0.2823 0.0
C512 C -0.00892 0.20204 0.25053 0.0
C513 C 0.97252 0.13034 0.19313 0.0
H514 H 0.00139 0.25096 0.15879 0.0
C515 C 0.02828 0.23739 0.08983 0.0
C516 C 0.07303 0.23892 0.08545 0.0
C517 C 2e-05 0.21319 0.11111 0.0
C518 C -0.0073 0.2167 0.16793 0.0
H519 H 0.85843 0.10807 0.27192 0.0
H520 H 0.88652 0.09991 0.22968 0.0
H521 H 0.97857 0.24057 0.20346 0.0
H522 H 0.11959 0.21041 0.09782 0.0
H523 H 0.07045 0.16877 0.13516 0.0
H524 H 0.98864 0.10747 0.15746 0.0
C525 C 0.91199 0.12904 0.24235 0.0
C526 C 0.98033 0.2111 0.19358 0.0
C527 C 0.89597 0.13395 0.26647 0.0
C528 C 0.08565 0.21053 0.10088 0.0
C529 C 0.05735 0.18637 0.12223 0.0
C530 C 0.98588 0.13634 0.16734 0.0
C531 C 0.95878 0.16456 0.2338 0.0
C532 C 0.97077 0.16829 0.20647 0.0
C533 C 0.01601 0.19017 0.12835 0.0
C534 C -0.00375 0.17977 0.15458 0.0
H535 H 9e-05 0.23794 0.28646 0.0
H536 H 0.0275 0.22964 0.24429 0.0
H537 H 0.96489 0.09688 0.20279 0.0
H538 H 0.01701 0.25809 0.07802 0.0
H539 H 0.9677 0.21583 0.11518 0.0
C540 C 0.80086 0.00112 0.62598 0.0
C541 C 0.76906 0.94977 0.62558 0.0
C542 C 0.8349 0.02419 0.60641 0.0
C543 C 0.8399 0.00391 0.53889 0.0
H544 H 0.9626 0.12863 0.54254 0.0
C545 C 0.90075 0.12508 0.45201 0.0
C546 C 0.91126 0.17322 0.4576 0.0
C547 C 0.90276 0.09552 0.47119 0.0
C548 C 0.92846 0.09371 0.54115 0.0
H549 H 0.75177 0.88185 0.60595 0.0
H550 H 0.81128 0.92211 0.57196 0.0
H551 H 0.92926 0.07929 0.58099 0.0
H552 H 0.93743 0.22996 0.48692 0.0
H553 H 0.93891 0.17821 0.52041 0.0
H554 H 0.8365 0.01936 0.49983 0.0
C555 C 0.8092 0.94462 0.58707 0.0
C556 C 0.90948 0.06545 0.56317 0.0
C557 C 0.77509 0.9216 0.60655 0.0
C558 C 0.92863 0.19283 0.48203 0.0
C559 C 0.92985 0.16307 0.50129 0.0
C560 C 0.85853 0.03223 0.51703 0.0
C561 C 0.83785 -0.00371 0.58615 0.0
C562 C 0.86402 0.02114 0.56242 0.0
C563 C 0.91438 0.11322 0.49642 0.0
C564 C 0.90199 0.07849 0.51805 0.0
H565 H 0.79742 0.02385 0.64049 0.0
H566 H 0.85622 0.06409 0.60621 0.0
H567 H 0.80448 0.97029 0.53765 0.0
H568 H 0.88817 0.10926 0.4332 0.0
H569 H 0.89212 0.05778 0.46656 0.0
C570 C 0.75278 0.93131 0.80273 0.0
C571 C 0.74175 0.91036 0.77818 0.0
C572 C 0.78842 0.9292 0.81764 0.0
C573 C 0.83196 0.84289 0.82471 0.0
H574 H 0.90247 0.92625 0.88254 0.0
C575 C 0.88468 0.7622 0.90719 0.0
C576 C 0.86938 0.77022 0.93099 0.0
C577 C 0.88907 0.79162 0.88639 0.0
C578 C 0.88313 0.90265 0.86641 0.0
H579 H 0.76403 0.87696 0.74871 0.0
H580 H 0.8266 0.87395 0.7746 0.0
H581 H 0.87536 0.95915 0.84811 0.0
H582 H 0.85047 0.81781 0.95212 0.0
H583 H 0.85671 0.86817 0.91576 0.0
H584 H 0.8368 0.78557 0.84342 0.0
C585 C 0.80674 0.89064 0.78263 0.0
C586 C 0.86771 0.92153 0.84669 0.0
C587 C 0.77094 0.89249 0.76778 0.0
C588 C 0.86205 0.81048 0.934 0.0
C589 C 0.86604 0.83967 0.91314 0.0
C590 C 0.84722 0.82408 0.84436 0.0
C591 C 0.81387 0.90637 0.8082 0.0
C592 C 0.84031 0.89122 0.82608 0.0
C593 C 0.87781 0.82941 0.88887 0.0
C594 C 0.87134 0.85308 0.86592 0.0
H595 H 0.73132 0.94584 0.81121 0.0
H596 H 0.79289 0.94168 0.83725 0.0
H597 H 0.8103 0.81814 0.80938 0.0
H598 H 0.89143 0.73195 0.90434 0.0
H599 H 0.89925 0.78338 0.86809 0.0
C600 C 0.05793 0.87288 0.26417 0.0
C601 C 0.09708 0.86359 0.26531 0.0
C602 C 0.03825 0.87499 0.24065 0.0
C603 C 0.05631 0.8751 0.1701 0.0
H604 H 0.91468 0.78929 0.16968 0.0
C605 C 0.94611 0.74786 0.08681 0.0
C606 C 0.89704 0.73568 0.08311 0.0
C607 C 0.97443 0.7805 0.10627 0.0
C608 C 0.95408 0.81435 0.16938 0.0
H609 H 0.14886 0.85327 0.24263 0.0
H610 H 0.11407 0.85581 0.20191 0.0
H611 H 0.958 0.81705 0.20996 0.0
H612 H 0.84083 0.75191 0.09524 0.0
H613 H 0.89038 0.80898 0.12909 0.0
H614 H 0.05223 0.86962 0.12934 0.0
C615 C 0.09868 0.86202 0.21901 0.0
C616 C 0.97903 0.8304 0.19257 0.0
C617 C 0.11842 0.86009 0.24246 0.0
C618 C 0.8783 0.75999 0.09782 0.0
C619 C 0.90661 0.7926 0.11727 0.0
C620 C 0.0313 0.85877 0.14685 0.0
C621 C 0.05726 0.86774 0.21782 0.0
C622 C 0.03061 0.85956 0.19326 0.0
C623 C 0.95426 0.80163 0.12237 0.0
C624 C 0.98007 0.82691 0.1463 0.0
H625 H 0.04099 0.87626 0.28143 0.0
H626 H 0.00689 0.88035 0.24038 0.0
H627 H 0.09598 0.8983 0.16994 0.0
H628 H 0.96174 0.72996 0.07573 0.0
H629 H 0.01092 0.78643 0.10979 0.0
C630 C 0.24799 0.09414 0.57904 0.0
C631 C 0.22145 0.07615 0.6018 0.0
C632 C 0.22714 0.07165 0.55573 0.0
C633 C 0.1351 0.95026 0.531 0.0
H634 H 0.16854 0.01747 0.46607 0.0
C635 C 0.08269 0.83893 0.43832 0.0
C636 C 0.12199 0.85334 0.42132 0.0
C637 C 0.08565 0.87052 0.45796 0.0
C638 C 0.15883 -0.00178 0.48406 0.0
H639 H 0.15085 0.02276 0.61766 0.0
H640 H 0.11412 0.98398 0.57685 0.0
H641 H 0.18981 0.06553 0.50563 0.0
H642 H 0.19364 0.91366 0.41038 0.0
H643 H 0.19906 0.9685 0.44483 0.0
H644 H 0.10569 0.88317 0.50966 0.0
C645 C 0.15151 0.01482 0.57714 0.0
C646 C 0.17102 0.0257 0.50671 0.0
C647 C 0.17246 0.03722 0.60052 0.0
C648 C 0.16271 0.90141 0.42318 0.0
C649 C 0.16575 0.93296 0.44291 0.0
C650 C 0.12283 0.92287 0.50842 0.0
C651 C 0.17915 0.03078 0.55457 0.0
C652 C 0.16026 0.00205 0.53047 0.0
C653 C 0.12804 0.91712 0.46109 0.0
C654 C 0.13544 0.9465 0.48469 0.0
H655 H 0.28579 0.12421 0.57931 0.0
H656 H 0.24972 0.08468 0.53881 0.0
H657 H 0.12706 0.93077 0.54889 0.0
H658 H 0.05056 0.80233 0.43723 0.0
H659 H 0.05554 0.85763 0.47135 0.0
loop_
_geom_bond_atom_site_label_1
_geom_bond_atom_site_label_2
_geom_bond_distance
_geom_bond_site_symmetry_2
_ccdc_geom_bond_type
Zn0 O6 1.969 . S
Zn0 O7 1.965 1_556 S
Zn0 O11 2.024 . S
Zn0 O16 1.969 . S
Zn1 O8 1.969 . S
Zn1 O14 1.969 . S
Zn1 O15 1.965 . S
Zn1 O17 2.024 . S
C2 O3 1.229 . S
C2 O11 1.058 . S
O3 C2 1.229 . S
C4 O5 1.229 . S
C4 O17 1.058 . S
O5 C4 1.229 . S
O6 Zn0 1.969 . S
O6 C9 1.267 . S
O7 Zn0 1.965 1_554 S
O7 C18 1.260 . S
O8 Zn1 1.969 . S
O8 C18 1.258 . S
C9 O6 1.267 . S
C9 O10 1.228 . S
O10 C9 1.228 . S
O11 Zn0 2.024 . S
O11 C2 1.058 . S
C12 O13 1.228 . S
C12 O14 1.267 . S
O13 C12 1.228 . S
O14 Zn1 1.969 . S
O14 C12 1.267 . S
O15 Zn1 1.965 . S
O15 C19 1.260 . S
O16 Zn0 1.969 . S
O16 C19 1.258 1_556 S
O17 Zn1 2.024 . S
O17 C4 1.058 . S
C18 O7 1.260 . S
C18 O8 1.258 . S
C19 O15 1.260 . S
C19 O16 1.258 1_554 S
Zn20 O26 1.969 . S
Zn20 O27 1.965 . S
Zn20 O31 2.024 . S
Zn20 O36 1.969 . S
Zn21 O28 1.969 . S
Zn21 O34 1.969 . S
Zn21 O35 1.965 . S
Zn21 O37 2.024 . S
C22 O23 1.229 . S
C22 O31 1.058 . S
O23 C22 1.229 . S
C24 O25 1.229 . S
C24 O37 1.058 . S
O25 C24 1.229 . S
O26 Zn20 1.969 . S
O26 C29 1.267 . S
O27 Zn20 1.965 . S
O27 C38 1.260 . S
O28 Zn21 1.969 . S
O28 C38 1.258 . S
C29 O26 1.267 . S
C29 O30 1.228 . S
O30 C29 1.228 . S
O31 Zn20 2.024 . S
O31 C22 1.058 . S
C32 O33 1.228 . S
C32 O34 1.267 . S
O33 C32 1.228 . S
O34 Zn21 1.969 . S
O34 C32 1.267 . S
O35 Zn21 1.965 . S
O35 C39 1.260 . S
O36 Zn20 1.969 . S
O36 C39 1.258 . S
O37 Zn21 2.024 . S
O37 C24 1.058 . S
C38 O27 1.260 . S
C38 O28 1.258 . S
C39 O35 1.260 . S
C39 O36 1.258 . S
Zn40 O46 1.969 . S
Zn40 O47 1.965 . S
Zn40 O51 2.024 . S
Zn40 O56 1.969 . S
Zn41 O48 1.969 . S
Zn41 O54 1.969 . S
Zn41 O55 1.965 . S
Zn41 O57 2.024 . S
C42 O43 1.229 . S
C42 O51 1.058 . S
O43 C42 1.229 . S
C44 O45 1.229 . S
C44 O57 1.058 . S
O45 C44 1.229 . S
O46 Zn40 1.969 . S
O46 C49 1.267 . S
O47 Zn40 1.965 . S
O47 C58 1.260 . S
O48 Zn41 1.969 . S
O48 C58 1.258 . S
C49 O46 1.267 . S
C49 O50 1.228 . S
O50 C49 1.228 . S
O51 Zn40 2.024 . S
O51 C42 1.058 . S
C52 O53 1.228 . S
C52 O54 1.267 . S
O53 C52 1.228 . S
O54 Zn41 1.969 . S
O54 C52 1.267 . S
O55 Zn41 1.965 . S
O55 C59 1.260 . S
O56 Zn40 1.969 . S
O56 C59 1.258 . S
O57 Zn41 2.024 . S
O57 C44 1.058 . S
C58 O47 1.260 . S
C58 O48 1.258 . S
C59 O55 1.260 . S
C59 O56 1.258 . S
Zn60 O66 1.969 . S
Zn60 O67 1.965 1_556 S
Zn60 O71 2.024 . S
Zn60 O76 1.969 . S
Zn61 O68 1.969 . S
Zn61 O74 1.969 . S
Zn61 O75 1.965 . S
Zn61 O77 2.024 . S
C62 O63 1.229 . S
C62 O71 1.058 . S
O63 C62 1.229 . S
C64 O65 1.229 . S
C64 O77 1.058 . S
O65 C64 1.229 . S
O66 Zn60 1.969 . S
O66 C69 1.267 . S
O67 Zn60 1.965 1_554 S
O67 C78 1.260 . S
O68 Zn61 1.969 . S
O68 C78 1.258 . S
C69 O66 1.267 . S
C69 O70 1.228 . S
O70 C69 1.228 . S
O71 Zn60 2.024 . S
O71 C62 1.058 . S
C72 O73 1.228 . S
C72 O74 1.267 . S
O73 C72 1.228 . S
O74 Zn61 1.969 . S
O74 C72 1.267 . S
O75 Zn61 1.965 . S
O75 C79 1.260 . S
O76 Zn60 1.969 . S
O76 C79 1.258 1_556 S
O77 Zn61 2.024 . S
O77 C64 1.058 . S
C78 O67 1.260 . S
C78 O68 1.258 . S
C79 O75 1.260 . S
C79 O76 1.258 1_554 S
Zn80 O86 1.969 . S
Zn80 O87 1.965 . S
Zn80 O91 2.024 . S
Zn80 O96 1.969 . S
Zn81 O88 1.969 . S
Zn81 O94 1.969 . S
Zn81 O95 1.965 . S
Zn81 O97 2.024 . S
C82 O83 1.229 . S
C82 O91 1.058 . S
O83 C82 1.229 . S
C84 O85 1.229 . S
C84 O97 1.058 . S
O85 C84 1.229 . S
O86 Zn80 1.969 . S
O86 C89 1.267 . S
O87 Zn80 1.965 . S
O87 C98 1.260 . S
O88 Zn81 1.969 . S
O88 C98 1.258 . S
C89 O86 1.267 . S
C89 O90 1.228 . S
O90 C89 1.228 . S
O91 Zn80 2.024 . S
O91 C82 1.058 . S
C92 O93 1.228 . S
C92 O94 1.267 . S
O93 C92 1.228 . S
O94 Zn81 1.969 . S
O94 C92 1.267 . S
O95 Zn81 1.965 . S
O95 C99 1.260 . S
O96 Zn80 1.969 . S
O96 C99 1.258 . S
O97 Zn81 2.024 . S
O97 C84 1.058 . S
C98 O87 1.260 . S
C98 O88 1.258 . S
C99 O95 1.260 . S
C99 O96 1.258 . S
Zn100 O106 1.969 . S
Zn100 O107 1.965 . S
Zn100 O111 2.024 . S
Zn100 O116 1.969 . S
Zn101 O108 1.969 . S
Zn101 O114 1.969 . S
Zn101 O115 1.965 . S
Zn101 O117 2.024 . S
C102 O103 1.229 . S
C102 O111 1.058 . S
O103 C102 1.229 . S
C104 O105 1.229 . S
C104 O117 1.058 . S
O105 C104 1.229 . S
O106 Zn100 1.969 . S
O106 C109 1.267 . S
O107 Zn100 1.965 . S
O107 C118 1.260 . S
O108 Zn101 1.969 . S
O108 C118 1.258 . S
C109 O106 1.267 . S
C109 O110 1.228 . S
O110 C109 1.228 . S
O111 Zn100 2.024 . S
O111 C102 1.058 . S
C112 O113 1.228 . S
C112 O114 1.267 . S
O113 C112 1.228 . S
O114 Zn101 1.969 . S
O114 C112 1.267 . S
O115 Zn101 1.965 . S
O115 C119 1.260 . S
O116 Zn100 1.969 . S
O116 C119 1.258 . S
O117 Zn101 2.024 . S
O117 C104 1.058 . S
C118 O107 1.260 . S
C118 O108 1.258 . S
C119 O115 1.260 . S
C119 O116 1.258 . S
C120 C121 1.349 . S
C120 C122 1.327 . S
C120 H145 0.950 . S
C121 C120 1.349 . S
C121 C137 1.349 . S
C122 C120 1.327 . S
C122 C141 1.429 . S
C122 H146 0.950 . S
C123 C140 1.574 . S
C123 C142 1.368 . S
C123 H147 0.949 . S
H124 C128 0.949 . S
C125 C126 1.349 . S
C125 C127 1.327 . S
C125 H148 0.950 . S
C126 C125 1.349 . S
C126 C138 1.349 . S
C127 C125 1.327 . S
C127 C143 1.429 . S
C127 H149 0.950 . S
C128 H124 0.949 . S
C128 C136 1.574 . S
C128 C144 1.368 . S
H129 C137 0.950 . S
H130 C135 0.950 . S
H131 C136 0.949 . S
H132 C138 0.950 . S
H133 C139 0.950 . S
H134 C140 0.949 . S
C135 H130 0.950 . S
C135 C137 1.327 . S
C135 C141 1.429 . S
C136 C128 1.574 . S
C136 H131 0.949 . S
C136 C142 1.368 . S
C137 C121 1.349 . S
C137 H129 0.950 . S
C137 C135 1.327 . S
C138 C126 1.349 . S
C138 H132 0.950 . S
C138 C139 1.327 . S
C139 H133 0.950 . S
C139 C138 1.327 . S
C139 C143 1.429 . S
C140 C123 1.574 . S
C140 H134 0.949 . S
C140 C144 1.368 . S
C141 C122 1.429 . S
C141 C135 1.429 . S
C141 C142 1.523 . S
C142 C123 1.368 . S
C142 C136 1.368 . S
C142 C141 1.523 . S
C143 C127 1.429 . S
C143 C139 1.429 . S
C143 C144 1.523 . S
C144 C128 1.368 . S
C144 C140 1.368 . S
C144 C143 1.523 . S
H145 C120 0.950 . S
H146 C122 0.950 . S
H147 C123 0.949 . S
H148 C125 0.950 . S
H149 C127 0.950 . S
C150 C151 1.349 . S
C150 C152 1.327 . S
C150 H175 0.950 . S
C151 C150 1.349 . S
C151 C167 1.349 . S
C152 C150 1.327 . S
C152 C171 1.429 . S
C152 H176 0.950 . S
C153 C170 1.574 . S
C153 C172 1.368 . S
C153 H177 0.949 . S
H154 C158 0.949 . S
C155 C156 1.349 . S
C155 C157 1.327 . S
C155 H178 0.950 . S
C156 C155 1.349 . S
C156 C168 1.349 . S
C157 C155 1.327 . S
C157 C173 1.429 . S
C157 H179 0.950 . S
C158 H154 0.949 . S
C158 C166 1.574 . S
C158 C174 1.368 . S
H159 C167 0.950 . S
H160 C165 0.950 . S
H161 C166 0.949 . S
H162 C168 0.950 . S
H163 C169 0.950 . S
H164 C170 0.949 . S
C165 H160 0.950 . S
C165 C167 1.327 . S
C165 C171 1.429 . S
C166 C158 1.574 . S
C166 H161 0.949 . S
C166 C172 1.368 . S
C167 C151 1.349 . S
C167 H159 0.950 . S
C167 C165 1.327 . S
C168 C156 1.349 . S
C168 H162 0.950 . S
C168 C169 1.327 . S
C169 H163 0.950 . S
C169 C168 1.327 . S
C169 C173 1.429 . S
C170 C153 1.574 . S
C170 H164 0.949 . S
C170 C174 1.368 . S
C171 C152 1.429 . S
C171 C165 1.429 . S
C171 C172 1.523 . S
C172 C153 1.368 . S
C172 C166 1.368 . S
C172 C171 1.523 . S
C173 C157 1.429 . S
C173 C169 1.429 . S
C173 C174 1.523 . S
C174 C158 1.368 . S
C174 C170 1.368 . S
C174 C173 1.523 . S
H175 C150 0.950 . S
H176 C152 0.950 . S
H177 C153 0.949 . S
H178 C155 0.950 . S
H179 C157 0.950 . S
C180 C181 1.349 . S
C180 C182 1.327 . S
C180 H205 0.950 . S
C181 C180 1.349 . S
C181 C197 1.349 . S
C182 C180 1.327 . S
C182 C201 1.429 . S
C182 H206 0.950 . S
C183 C200 1.574 . S
C183 C202 1.368 . S
C183 H207 0.949 . S
H184 C188 0.949 . S
C185 C186 1.349 . S
C185 C187 1.327 . S
C185 H208 0.950 . S
C186 C185 1.349 . S
C186 C198 1.349 . S
C187 C185 1.327 . S
C187 C203 1.429 . S
C187 H209 0.950 . S
C188 H184 0.949 . S
C188 C196 1.574 . S
C188 C204 1.368 . S
H189 C197 0.950 . S
H190 C195 0.950 . S
H191 C196 0.949 . S
H192 C198 0.950 . S
H193 C199 0.950 . S
H194 C200 0.949 . S
C195 H190 0.950 . S
C195 C197 1.327 . S
C195 C201 1.429 . S
C196 C188 1.574 . S
C196 H191 0.949 . S
C196 C202 1.368 . S
C197 C181 1.349 . S
C197 H189 0.950 . S
C197 C195 1.327 . S
C198 C186 1.349 . S
C198 H192 0.950 . S
C198 C199 1.327 . S
C199 H193 0.950 . S
C199 C198 1.327 . S
C199 C203 1.429 . S
C200 C183 1.574 . S
C200 H194 0.949 . S
C200 C204 1.368 . S
C201 C182 1.429 . S
C201 C195 1.429 . S
C201 C202 1.523 . S
C202 C183 1.368 . S
C202 C196 1.368 . S
C202 C201 1.523 . S
C203 C187 1.429 . S
C203 C199 1.429 . S
C203 C204 1.523 . S
C204 C188 1.368 . S
C204 C200 1.368 . S
C204 C203 1.523 . S
H205 C180 0.950 . S
H206 C182 0.950 . S
H207 C183 0.949 . S
H208 C185 0.950 . S
H209 C187 0.950 . S
C210 C211 1.349 . S
C210 C212 1.327 . S
C210 H235 0.950 . S
C211 C210 1.349 . S
C211 C227 1.349 . S
C212 C210 1.327 . S
C212 C231 1.429 . S
C212 H236 0.950 . S
C213 C230 1.574 . S
C213 C232 1.368 . S
C213 H237 0.949 . S
H214 C218 0.949 . S
C215 C216 1.349 . S
C215 C217 1.327 . S
C215 H238 0.950 . S
C216 C215 1.349 . S
C216 C228 1.349 . S
C217 C215 1.327 . S
C217 C233 1.429 . S
C217 H239 0.950 . S
C218 H214 0.949 . S
C218 C226 1.574 . S
C218 C234 1.368 . S
H219 C227 0.950 . S
H220 C225 0.950 . S
H221 C226 0.949 . S
H222 C228 0.950 . S
H223 C229 0.950 . S
H224 C230 0.949 . S
C225 H220 0.950 . S
C225 C227 1.327 . S
C225 C231 1.429 . S
C226 C218 1.574 . S
C226 H221 0.949 . S
C226 C232 1.368 . S
C227 C211 1.349 . S
C227 H219 0.950 . S
C227 C225 1.327 . S
C228 C216 1.349 . S
C228 H222 0.950 . S
C228 C229 1.327 . S
C229 H223 0.950 . S
C229 C228 1.327 . S
C229 C233 1.429 . S
C230 C213 1.574 . S
C230 H224 0.949 . S
C230 C234 1.368 . S
C231 C212 1.429 . S
C231 C225 1.429 . S
C231 C232 1.523 . S
C232 C213 1.368 . S
C232 C226 1.368 . S
C232 C231 1.523 . S
C233 C217 1.429 . S
C233 C229 1.429 . S
C233 C234 1.523 . S
C234 C218 1.368 . S
C234 C230 1.368 . S
C234 C233 1.523 . S
H235 C210 0.950 . S
H236 C212 0.950 . S
H237 C213 0.949 . S
H238 C215 0.950 . S
H239 C217 0.950 . S
C240 C241 1.349 . S
C240 C242 1.327 . S
C240 H265 0.950 . S
C241 C240 1.349 . S
C241 C257 1.349 . S
C242 C240 1.327 . S
C242 C261 1.429 . S
C242 H266 0.950 . S
C243 C260 1.574 . S
C243 C262 1.368 . S
C243 H267 0.949 . S
H244 C248 0.949 . S
C245 C246 1.349 . S
C245 C247 1.327 . S
C245 H268 0.950 . S
C246 C245 1.349 . S
C246 C258 1.349 . S
C247 C245 1.327 . S
C247 C263 1.429 . S
C247 H269 0.950 . S
C248 H244 0.949 . S
C248 C256 1.574 . S
C248 C264 1.368 . S
H249 C257 0.950 . S
H250 C255 0.950 . S
H251 C256 0.949 . S
H252 C258 0.950 . S
H253 C259 0.950 . S
H254 C260 0.949 . S
C255 H250 0.950 . S
C255 C257 1.327 . S
C255 C261 1.429 . S
C256 C248 1.574 . S
C256 H251 0.949 . S
C256 C262 1.368 . S
C257 C241 1.349 . S
C257 H249 0.950 . S
C257 C255 1.327 . S
C258 C246 1.349 . S
C258 H252 0.950 . S
C258 C259 1.327 . S
C259 H253 0.950 . S
C259 C258 1.327 . S
C259 C263 1.429 . S
C260 C243 1.574 . S
C260 H254 0.949 . S
C260 C264 1.368 . S
C261 C242 1.429 . S
C261 C255 1.429 . S
C261 C262 1.523 . S
C262 C243 1.368 . S
C262 C256 1.368 . S
C262 C261 1.523 . S
C263 C247 1.429 . S
C263 C259 1.429 . S
C263 C264 1.523 . S
C264 C248 1.368 . S
C264 C260 1.368 . S
C264 C263 1.523 . S
H265 C240 0.950 . S
H266 C242 0.950 . S
H267 C243 0.949 . S
H268 C245 0.950 . S
H269 C247 0.950 . S
C270 C271 1.349 . S
C270 C272 1.327 . S
C270 H295 0.950 . S
C271 C270 1.349 . S
C271 C287 1.349 . S
C272 C270 1.327 . S
C272 C291 1.429 . S
C272 H296 0.950 . S
C273 C290 1.574 . S
C273 C292 1.368 . S
C273 H297 0.949 . S
H274 C278 0.949 . S
C275 C276 1.349 . S
C275 C277 1.327 . S
C275 H298 0.950 . S
C276 C275 1.349 . S
C276 C288 1.349 . S
C277 C275 1.327 . S
C277 C293 1.429 . S
C277 H299 0.950 . S
C278 H274 0.949 . S
C278 C286 1.574 . S
C278 C294 1.368 . S
H279 C287 0.950 . S
H280 C285 0.950 . S
H281 C286 0.949 . S
H282 C288 0.950 . S
H283 C289 0.950 . S
H284 C290 0.949 . S
C285 H280 0.950 . S
C285 C287 1.327 . S
C285 C291 1.429 . S
C286 C278 1.574 . S
C286 H281 0.949 . S
C286 C292 1.368 . S
C287 C271 1.349 . S
C287 H279 0.950 . S
C287 C285 1.327 . S
C288 C276 1.349 . S
C288 H282 0.950 . S
C288 C289 1.327 . S
C289 H283 0.950 . S
C289 C288 1.327 . S
C289 C293 1.429 . S
C290 C273 1.574 . S
C290 H284 0.949 . S
C290 C294 1.368 . S
C291 C272 1.429 . S
C291 C285 1.429 . S
C291 C292 1.523 . S
C292 C273 1.368 . S
C292 C286 1.368 . S
C292 C291 1.523 . S
C293 C277 1.429 . S
C293 C289 1.429 . S
C293 C294 1.523 . S
C294 C278 1.368 . S
C294 C290 1.368 . S
C294 C293 1.523 . S
H295 C270 0.950 . S
H296 C272 0.950 . S
H297 C273 0.949 . S
H298 C275 0.950 . S
H299 C277 0.950 . S
C300 C301 1.349 . S
C300 C302 1.327 . S
C300 H325 0.950 . S
C301 C300 1.349 . S
C301 C317 1.349 . S
C302 C300 1.327 . S
C302 C321 1.429 . S
C302 H326 0.950 . S
C303 C320 1.574 . S
C303 C322 1.368 . S
C303 H327 0.949 1_554 S
H304 C308 0.949 . S
C305 C306 1.349 . S
C305 C307 1.327 . S
C305 H328 0.950 1_554 S
C306 C305 1.349 . S
C306 C318 1.349 . S
C307 C305 1.327 . S
C307 C323 1.429 . S
C307 H329 0.950 1_554 S
C308 H304 0.949 . S
C308 C316 1.574 . S
C308 C324 1.368 . S
H309 C317 0.950 1_556 S
H310 C315 0.950 1_556 S
H311 C316 0.949 . S
H312 C318 0.950 . S
H313 C319 0.950 . S
H314 C320 0.949 1_556 S
C315 H310 0.950 1_554 S
C315 C317 1.327 . S
C315 C321 1.429 . S
C316 C308 1.574 . S
C316 H311 0.949 . S
C316 C322 1.368 . S
C317 C301 1.349 . S
C317 H309 0.950 1_554 S
C317 C315 1.327 . S
C318 C306 1.349 . S
C318 H312 0.950 . S
C318 C319 1.327 . S
C319 H313 0.950 . S
C319 C318 1.327 . S
C319 C323 1.429 . S
C320 C303 1.574 . S
C320 H314 0.949 1_554 S
C320 C324 1.368 . S
C321 C302 1.429 . S
C321 C315 1.429 . S
C321 C322 1.523 . S
C322 C303 1.368 . S
C322 C316 1.368 . S
C322 C321 1.523 . S
C323 C307 1.429 . S
C323 C319 1.429 . S
C323 C324 1.523 . S
C324 C308 1.368 . S
C324 C320 1.368 . S
C324 C323 1.523 . S
H325 C300 0.950 . S
H326 C302 0.950 . S
H327 C303 0.949 1_556 S
H328 C305 0.950 1_556 S
H329 C307 0.950 1_556 S
C330 C331 1.349 . S
C330 C332 1.327 . S
C330 H355 0.950 . S
C331 C330 1.349 . S
C331 C347 1.349 . S
C332 C330 1.327 . S
C332 C351 1.429 . S
C332 H356 0.950 . S
C333 C350 1.574 . S
C333 C352 1.368 1_655 S
C333 H357 0.949 . S
H334 C338 0.949 . S
C335 C336 1.349 . S
C335 C337 1.327 . S
C335 H358 0.950 . S
C336 C335 1.349 . S
C336 C348 1.349 . S
C337 C335 1.327 . S
C337 C353 1.429 . S
C337 H359 0.950 . S
C338 H334 0.949 . S
C338 C346 1.574 . S
C338 C354 1.368 1_455 S
H339 C347 0.950 . S
H340 C345 0.950 . S
H341 C346 0.949 . S
H342 C348 0.950 . S
H343 C349 0.950 . S
H344 C350 0.949 . S
C345 H340 0.950 . S
C345 C347 1.327 . S
C345 C351 1.429 . S
C346 C338 1.574 . S
C346 H341 0.949 . S
C346 C352 1.368 . S
C347 C331 1.349 . S
C347 H339 0.950 . S
C347 C345 1.327 . S
C348 C336 1.349 . S
C348 H342 0.950 . S
C348 C349 1.327 . S
C349 H343 0.950 . S
C349 C348 1.327 . S
C349 C353 1.429 . S
C350 C333 1.574 . S
C350 H344 0.949 . S
C350 C354 1.368 . S
C351 C332 1.429 . S
C351 C345 1.429 . S
C351 C352 1.523 . S
C352 C333 1.368 1_455 S
C352 C346 1.368 . S
C352 C351 1.523 . S
C353 C337 1.429 . S
C353 C349 1.429 . S
C353 C354 1.523 . S
C354 C338 1.368 1_655 S
C354 C350 1.368 . S
C354 C353 1.523 . S
H355 C330 0.950 . S
H356 C332 0.950 . S
H357 C333 0.949 . S
H358 C335 0.950 . S
H359 C337 0.950 . S
C360 C361 1.349 . S
C360 C362 1.327 . S
C360 H385 0.950 . S
C361 C360 1.349 . S
C361 C377 1.349 . S
C362 C360 1.327 . S
C362 C381 1.429 . S
C362 H386 0.950 . S
C363 C380 1.574 . S
C363 C382 1.368 1_565 S
C363 H387 0.949 . S
H364 C368 0.949 . S
C365 C366 1.349 . S
C365 C367 1.327 . S
C365 H388 0.950 . S
C366 C365 1.349 . S
C366 C378 1.349 . S
C367 C365 1.327 . S
C367 C383 1.429 . S
C367 H389 0.950 . S
C368 H364 0.949 . S
C368 C376 1.574 . S
C368 C384 1.368 1_545 S
H369 C377 0.950 . S
H370 C375 0.950 . S
H371 C376 0.949 . S
H372 C378 0.950 . S
H373 C379 0.950 . S
H374 C380 0.949 . S
C375 H370 0.950 . S
C375 C377 1.327 . S
C375 C381 1.429 . S
C376 C368 1.574 . S
C376 H371 0.949 . S
C376 C382 1.368 . S
C377 C361 1.349 . S
C377 H369 0.950 . S
C377 C375 1.327 . S
C378 C366 1.349 . S
C378 H372 0.950 . S
C378 C379 1.327 . S
C379 H373 0.950 . S
C379 C378 1.327 . S
C379 C383 1.429 . S
C380 C363 1.574 . S
C380 H374 0.949 . S
C380 C384 1.368 . S
C381 C362 1.429 . S
C381 C375 1.429 . S
C381 C382 1.523 . S
C382 C363 1.368 1_545 S
C382 C376 1.368 . S
C382 C381 1.523 . S
C383 C367 1.429 . S
C383 C379 1.429 . S
C383 C384 1.523 . S
C384 C368 1.368 1_565 S
C384 C380 1.368 . S
C384 C383 1.523 . S
H385 C360 0.950 . S
H386 C362 0.950 . S
H387 C363 0.949 . S
H388 C365 0.950 . S
H389 C367 0.950 . S
C390 C391 1.349 . S
C390 C392 1.327 . S
C390 H415 0.950 . S
C391 C390 1.349 . S
C391 C407 1.349 . S
C392 C390 1.327 . S
C392 C411 1.429 . S
C392 H416 0.950 . S
C393 C410 1.574 . S
C393 C412 1.368 . S
C393 H417 0.949 . S
H394 C398 0.949 . S
C395 C396 1.349 . S
C395 C397 1.327 . S
C395 H418 0.950 . S
C396 C395 1.349 . S
C396 C408 1.349 . S
C397 C395 1.327 . S
C397 C413 1.429 . S
C397 H419 0.950 . S
C398 H394 0.949 . S
C398 C406 1.574 . S
C398 C414 1.368 . S
H399 C407 0.950 . S
H400 C405 0.950 . S
H401 C406 0.949 . S
H402 C408 0.950 . S
H403 C409 0.950 . S
H404 C410 0.949 . S
C405 H400 0.950 . S
C405 C407 1.327 . S
C405 C411 1.429 . S
C406 C398 1.574 . S
C406 H401 0.949 . S
C406 C412 1.368 . S
C407 C391 1.349 . S
C407 H399 0.950 . S
C407 C405 1.327 . S
C408 C396 1.349 . S
C408 H402 0.950 . S
C408 C409 1.327 . S
C409 H403 0.950 . S
C409 C408 1.327 . S
C409 C413 1.429 . S
C410 C393 1.574 . S
C410 H404 0.949 . S
C410 C414 1.368 . S
C411 C392 1.429 . S
C411 C405 1.429 . S
C411 C412 1.523 . S
C412 C393 1.368 . S
C412 C406 1.368 . S
C412 C411 1.523 . S
C413 C397 1.429 . S
C413 C409 1.429 . S
C413 C414 1.523 . S
C414 C398 1.368 . S
C414 C410 1.368 . S
C414 C413 1.523 . S
H415 C390 0.950 . S
H416 C392 0.950 . S
H417 C393 0.949 . S
H418 C395 0.950 . S
H419 C397 0.950 . S
C420 C421 1.349 1_556 S
C420 C422 1.327 . S
C420 H445 0.950 . S
C421 C420 1.349 1_554 S
C421 C437 1.349 . S
C422 C420 1.327 . S
C422 C441 1.429 1_556 S
C422 H446 0.950 . S
C423 C440 1.574 . S
C423 C442 1.368 . S
C423 H447 0.949 . S
H424 C428 0.949 . S
C425 C426 1.349 . S
C425 C427 1.327 . S
C425 H448 0.950 . S
C426 C425 1.349 . S
C426 C438 1.349 1_554 S
C427 C425 1.327 . S
C427 C443 1.429 . S
C427 H449 0.950 . S
C428 H424 0.949 . S
C428 C436 1.574 . S
C428 C444 1.368 1_556 S
H429 C437 0.950 . S
H430 C435 0.950 . S
H431 C436 0.949 . S
H432 C438 0.950 . S
H433 C439 0.950 . S
H434 C440 0.949 . S
C435 H430 0.950 . S
C435 C437 1.327 . S
C435 C441 1.429 . S
C436 C428 1.574 . S
C436 H431 0.949 . S
C436 C442 1.368 1_656 S
C437 C421 1.349 . S
C437 H429 0.950 . S
C437 C435 1.327 . S
C438 C426 1.349 1_556 S
C438 H432 0.950 . S
C438 C439 1.327 . S
C439 H433 0.950 . S
C439 C438 1.327 . S
C439 C443 1.429 1_556 S
C440 C423 1.574 . S
C440 H434 0.949 . S
C440 C444 1.368 1_455 S
C441 C422 1.429 1_554 S
C441 C435 1.429 . S
C441 C442 1.523 . S
C442 C423 1.368 . S
C442 C436 1.368 1_454 S
C442 C441 1.523 . S
C443 C427 1.429 . S
C443 C439 1.429 1_554 S
C443 C444 1.523 . S
C444 C428 1.368 1_554 S
C444 C440 1.368 1_655 S
C444 C443 1.523 . S
H445 C420 0.950 . S
H446 C422 0.950 . S
H447 C423 0.949 . S
H448 C425 0.950 . S
H449 C427 0.950 . S
C450 C451 1.349 . S
C450 C452 1.327 . S
C450 H475 0.950 . S
C451 C450 1.349 . S
C451 C467 1.349 . S
C452 C450 1.327 . S
C452 C471 1.429 . S
C452 H476 0.950 . S
C453 C470 1.574 . S
C453 C472 1.368 1_545 S
C453 H477 0.949 . S
H454 C458 0.949 . S
C455 C456 1.349 . S
C455 C457 1.327 . S
C455 H478 0.950 . S
C456 C455 1.349 . S
C456 C468 1.349 . S
C457 C455 1.327 . S
C457 C473 1.429 . S
C457 H479 0.950 . S
C458 H454 0.949 . S
C458 C466 1.574 . S
C458 C474 1.368 1_565 S
H459 C467 0.950 . S
H460 C465 0.950 . S
H461 C466 0.949 . S
H462 C468 0.950 . S
H463 C469 0.950 . S
H464 C470 0.949 . S
C465 H460 0.950 . S
C465 C467 1.327 . S
C465 C471 1.429 . S
C466 C458 1.574 . S
C466 H461 0.949 . S
C466 C472 1.368 . S
C467 C451 1.349 . S
C467 H459 0.950 . S
C467 C465 1.327 . S
C468 C456 1.349 . S
C468 H462 0.950 . S
C468 C469 1.327 . S
C469 H463 0.950 . S
C469 C468 1.327 . S
C469 C473 1.429 . S
C470 C453 1.574 . S
C470 H464 0.949 . S
C470 C474 1.368 . S
C471 C452 1.429 . S
C471 C465 1.429 . S
C471 C472 1.523 . S
C472 C453 1.368 1_565 S
C472 C466 1.368 . S
C472 C471 1.523 . S
C473 C457 1.429 . S
C473 C469 1.429 . S
C473 C474 1.523 . S
C474 C458 1.368 1_545 S
C474 C470 1.368 . S
C474 C473 1.523 . S
H475 C450 0.950 . S
H476 C452 0.950 . S
H477 C453 0.949 . S
H478 C455 0.950 . S
H479 C457 0.950 . S
C480 C481 1.349 . S
C480 C482 1.327 . S
C480 H505 0.950 . S
C481 C480 1.349 . S
C481 C497 1.349 . S
C482 C480 1.327 . S
C482 C501 1.429 . S
C482 H506 0.950 . S
C483 C500 1.574 . S
C483 C502 1.368 . S
C483 H507 0.949 . S
H484 C488 0.949 . S
C485 C486 1.349 . S
C485 C487 1.327 . S
C485 H508 0.950 . S
C486 C485 1.349 . S
C486 C498 1.349 . S
C487 C485 1.327 . S
C487 C503 1.429 . S
C487 H509 0.950 . S
C488 H484 0.949 . S
C488 C496 1.574 . S
C488 C504 1.368 . S
H489 C497 0.950 . S
H490 C495 0.950 . S
H491 C496 0.949 . S
H492 C498 0.950 . S
H493 C499 0.950 . S
H494 C500 0.949 . S
C495 H490 0.950 . S
C495 C497 1.327 . S
C495 C501 1.429 . S
C496 C488 1.574 . S
C496 H491 0.949 . S
C496 C502 1.368 . S
C497 C481 1.349 . S
C497 H489 0.950 . S
C497 C495 1.327 . S
C498 C486 1.349 . S
C498 H492 0.950 . S
C498 C499 1.327 . S
C499 H493 0.950 . S
C499 C498 1.327 . S
C499 C503 1.429 . S
C500 C483 1.574 . S
C500 H494 0.949 . S
C500 C504 1.368 . S
C501 C482 1.429 . S
C501 C495 1.429 . S
C501 C502 1.523 . S
C502 C483 1.368 . S
C502 C496 1.368 . S
C502 C501 1.523 . S
C503 C487 1.429 . S
C503 C499 1.429 . S
C503 C504 1.523 . S
C504 C488 1.368 . S
C504 C500 1.368 . S
C504 C503 1.523 . S
H505 C480 0.950 . S
H506 C482 0.950 . S
H507 C483 0.949 . S
H508 C485 0.950 . S
H509 C487 0.950 . S
C510 C511 1.349 . S
C510 C512 1.327 . S
C510 H535 0.950 . S
C511 C510 1.349 . S
C511 C527 1.349 . S
C512 C510 1.327 . S
C512 C531 1.429 . S
C512 H536 0.950 1_655 S
C513 C530 1.574 . S
C513 C532 1.368 . S
C513 H537 0.949 . S
H514 C518 0.949 . S
C515 C516 1.349 . S
C515 C517 1.327 . S
C515 H538 0.950 . S
C516 C515 1.349 . S
C516 C528 1.349 . S
C517 C515 1.327 . S
C517 C533 1.429 . S
C517 H539 0.950 . S
C518 H514 0.949 . S
C518 C526 1.574 . S
C518 C534 1.368 . S
H519 C527 0.950 . S
H520 C525 0.950 . S
H521 C526 0.949 . S
H522 C528 0.950 . S
H523 C529 0.950 . S
H524 C530 0.949 . S
C525 H520 0.950 . S
C525 C527 1.327 . S
C525 C531 1.429 . S
C526 C518 1.574 . S
C526 H521 0.949 . S
C526 C532 1.368 1_455 S
C527 C511 1.349 . S
C527 H519 0.950 . S
C527 C525 1.327 . S
C528 C516 1.349 . S
C528 H522 0.950 . S
C528 C529 1.327 . S
C529 H523 0.950 . S
C529 C528 1.327 . S
C529 C533 1.429 . S
C530 C513 1.574 . S
C530 H524 0.949 . S
C530 C534 1.368 1_655 S
C531 C512 1.429 . S
C531 C525 1.429 . S
C531 C532 1.523 . S
C532 C513 1.368 . S
C532 C526 1.368 1_655 S
C532 C531 1.523 . S
C533 C517 1.429 . S
C533 C529 1.429 . S
C533 C534 1.523 . S
C534 C518 1.368 . S
C534 C530 1.368 1_455 S
C534 C533 1.523 . S
H535 C510 0.950 . S
H536 C512 0.950 1_455 S
H537 C513 0.949 . S
H538 C515 0.950 . S
H539 C517 0.950 . S
C540 C541 1.349 . S
C540 C542 1.327 . S
C540 H565 0.950 . S
C541 C540 1.349 . S
C541 C557 1.349 . S
C542 C540 1.327 . S
C542 C561 1.429 . S
C542 H566 0.950 1_565 S
C543 C560 1.565 1_565 S
C543 C562 1.368 . S
C543 H567 0.949 . S
H544 C548 0.949 . S
C545 C546 1.349 . S
C545 C547 1.327 . S
C545 H568 0.950 . S
C546 C545 1.349 . S
C546 C558 1.349 . S
C547 C545 1.327 . S
C547 C563 1.429 . S
C547 H569 0.950 . S
C548 H544 0.949 . S
C548 C556 1.574 . S
C548 C564 1.368 . S
H549 C557 0.950 . S
H550 C555 0.950 . S
H551 C556 0.949 . S
H552 C558 0.950 . S
H553 C559 0.950 . S
H554 C560 0.948 1_565 S
C555 H550 0.950 . S
C555 C557 1.327 . S
C555 C561 1.429 . S
C556 C548 1.574 . S
C556 H551 0.949 . S
C556 C562 1.368 1_545 S
C557 C541 1.349 . S
C557 H549 0.950 . S
C557 C555 1.327 . S
C558 C546 1.349 . S
C558 H552 0.950 . S
C558 C559 1.327 . S
C559 H553 0.950 . S
C559 C558 1.327 . S
C559 C563 1.429 . S
C560 C543 1.565 1_545 S
C560 H554 0.948 1_545 S
C560 C564 1.378 . S
C561 C542 1.429 . S
C561 C555 1.429 . S
C561 C562 1.523 . S
C562 C543 1.368 . S
C562 C556 1.368 1_565 S
C562 C561 1.523 . S
C563 C547 1.429 . S
C563 C559 1.429 . S
C563 C564 1.523 . S
C564 C548 1.368 . S
C564 C560 1.378 . S
C564 C563 1.523 . S
H565 C540 0.950 . S
H566 C542 0.950 1_545 S
H567 C543 0.949 . S
H568 C545 0.950 . S
H569 C547 0.950 . S
C570 C571 1.349 . S
C570 C572 1.327 . S
C570 H595 0.950 . S
C571 C570 1.349 . S
C571 C587 1.349 . S
C572 C570 1.327 . S
C572 C591 1.429 . S
C572 H596 0.950 . S
C573 C590 1.574 . S
C573 C592 1.368 . S
C573 H597 0.949 . S
H574 C578 0.949 . S
C575 C576 1.349 . S
C575 C577 1.327 . S
C575 H598 0.950 . S
C576 C575 1.349 . S
C576 C588 1.349 . S
C577 C575 1.327 . S
C577 C593 1.429 . S
C577 H599 0.950 . S
C578 H574 0.949 . S
C578 C586 1.574 . S
C578 C594 1.368 . S
H579 C587 0.950 . S
H580 C585 0.950 . S
H581 C586 0.949 . S
H582 C588 0.950 . S
H583 C589 0.950 . S
H584 C590 0.949 . S
C585 H580 0.950 . S
C585 C587 1.327 . S
C585 C591 1.429 . S
C586 C578 1.574 . S
C586 H581 0.949 . S
C586 C592 1.368 . S
C587 C571 1.349 . S
C587 H579 0.950 . S
C587 C585 1.327 . S
C588 C576 1.349 . S
C588 H582 0.950 . S
C588 C589 1.327 . S
C589 H583 0.950 . S
C589 C588 1.327 . S
C589 C593 1.429 . S
C590 C573 1.574 . S
C590 H584 0.949 . S
C590 C594 1.368 . S
C591 C572 1.429 . S
C591 C585 1.429 . S
C591 C592 1.523 . S
C592 C573 1.368 . S
C592 C586 1.368 . S
C592 C591 1.523 . S
C593 C577 1.429 . S
C593 C589 1.429 . S
C593 C594 1.523 . S
C594 C578 1.368 . S
C594 C590 1.368 . S
C594 C593 1.523 . S
H595 C570 0.950 . S
H596 C572 0.950 . S
H597 C573 0.949 . S
H598 C575 0.950 . S
H599 C577 0.950 . S
C600 C601 1.349 . S
C600 C602 1.327 . S
C600 H625 0.950 . S
C601 C600 1.349 . S
C601 C617 1.349 . S
C602 C600 1.327 . S
C602 C621 1.429 . S
C602 H626 0.950 1_455 S
C603 C620 1.574 1_455 S
C603 C622 1.368 . S
C603 H627 0.949 . S
H604 C608 0.949 . S
C605 C606 1.349 . S
C605 C607 1.327 . S
C605 H628 0.950 . S
C606 C605 1.349 . S
C606 C618 1.349 . S
C607 C605 1.327 . S
C607 C623 1.429 . S
C607 H629 0.950 . S
C608 H604 0.949 . S
C608 C616 1.574 . S
C608 C624 1.368 . S
H609 C617 0.950 . S
H610 C615 0.950 . S
H611 C616 0.949 . S
H612 C618 0.950 . S
H613 C619 0.950 . S
H614 C620 0.949 1_455 S
C615 H610 0.950 . S
C615 C617 1.327 . S
C615 C621 1.429 . S
C616 C608 1.574 . S
C616 H611 0.949 . S
C616 C622 1.368 1_655 S
C617 C601 1.349 . S
C617 H609 0.950 . S
C617 C615 1.327 . S
C618 C606 1.349 . S
C618 H612 0.950 . S
C618 C619 1.327 . S
C619 H613 0.950 . S
C619 C618 1.327 . S
C619 C623 1.429 . S
C620 C603 1.574 1_655 S
C620 H614 0.949 1_655 S
C620 C624 1.368 . S
C621 C602 1.429 . S
C621 C615 1.429 . S
C621 C622 1.523 . S
C622 C603 1.368 . S
C622 C616 1.368 1_455 S
C622 C621 1.523 . S
C623 C607 1.429 . S
C623 C619 1.429 . S
C623 C624 1.523 . S
C624 C608 1.368 . S
C624 C620 1.368 . S
C624 C623 1.523 . S
H625 C600 0.950 . S
H626 C602 0.950 1_655 S
H627 C603 0.949 . S
H628 C605 0.950 . S
H629 C607 0.950 . S
C630 C631 1.349 . S
C630 C632 1.327 . S
C630 H655 0.950 . S
C631 C630 1.349 . S
C631 C647 1.349 . S
C632 C630 1.327 . S
C632 C651 1.429 . S
C632 H656 0.950 . S
C633 C650 1.574 . S
C633 C652 1.368 1_565 S
C633 H657 0.949 . S
H634 C638 0.949 . S
C635 C636 1.349 . S
C635 C637 1.327 . S
C635 H658 0.950 . S
C636 C635 1.349 . S
C636 C648 1.349 . S
C637 C635 1.327 . S
C637 C653 1.429 . S
C637 H659 0.950 . S
C638 H634 0.949 . S
C638 C646 1.574 . S
C638 C654 1.368 1_545 S
H639 C647 0.950 . S
H640 C645 0.950 1_565 S
H641 C646 0.949 . S
H642 C648 0.950 . S
H643 C649 0.950 . S
H644 C650 0.949 . S
C645 H640 0.950 1_545 S
C645 C647 1.327 . S
C645 C651 1.429 . S
C646 C638 1.574 . S
C646 H641 0.949 . S
C646 C652 1.368 . S
C647 C631 1.349 . S
C647 H639 0.950 . S
C647 C645 1.327 . S
C648 C636 1.349 . S
C648 H642 0.950 . S
C648 C649 1.327 . S
C649 H643 0.950 . S
C649 C648 1.327 . S
C649 C653 1.429 . S
C650 C633 1.574 . S
C650 H644 0.949 . S
C650 C654 1.368 . S
C651 C632 1.429 . S
C651 C645 1.429 . S
C651 C652 1.523 . S
C652 C633 1.368 1_545 S
C652 C646 1.368 . S
C652 C651 1.523 . S
C653 C637 1.429 . S
C653 C649 1.429 . S
C653 C654 1.523 . S
C654 C638 1.368 1_565 S
C654 C650 1.368 . S
C654 C653 1.523 . S
H655 C630 0.950 . S
H656 C632 0.950 . S
H657 C633 0.949 . S
H658 C635 0.950 . S
H659 C637 0.950 . S
C121 C82 0.960 . S
C126 C12 0.990 . S
C151 C102 0.960 . S
C156 C32 0.990 . S
C181 C2 0.960 . S
C186 C52 0.990 . S
C211 C22 0.960 . S
C216 C72 0.990 . S
C241 C42 0.960 . S
C246 C92 0.990 . S
C271 C62 0.960 . S
C276 C112 0.990 . S
C301 C18 0.712 . S
C306 C78 0.712 . S
C331 C98 0.711 . S
C336 C38 0.711 . S
C361 C118 0.710 . S
C366 C58 0.710 . S
C391 C59 0.835 . S
C396 C119 0.835 . S
C421 C19 0.836 . S
C426 C79 0.836 . S
C451 C99 0.836 . S
C456 C39 0.836 . S
C481 C104 0.891 . S
C486 C9 0.923 . S
C511 C29 0.923 . S
C516 C4 0.891 . S
C541 C49 0.923 . S
C546 C24 0.892 . S
C571 C44 0.892 . S
C576 C69 0.924 . S
C601 C89 0.923 . S
C606 C64 0.892 . S
C631 C109 0.923 . S
C636 C84 0.891 . S
