# Generated by pormake.
# Topology msp, (4)-cn, num edge types: 1
# Building blocks:
#     Node 0, Type 0, BuildingBlock: ICAMEG_clean_sbu_1, # of connection points: 4
#     Node 1, Type 0, BuildingBlock: ICAMEG_clean_sbu_1, # of connection points: 4
#     Node 2, Type 0, BuildingBlock: ICAMEG_clean_sbu_1, # of connection points: 4
#     Node 3, Type 0, BuildingBlock: ICAMEG_clean_sbu_1, # of connection points: 4
#     Node 4, Type 0, BuildingBlock: ICAMEG_clean_sbu_1, # of connection points: 4
#     Node 5, Type 0, BuildingBlock: ICAMEG_clean_sbu_1, # of connection points: 4
#     Node 6, Type 0, BuildingBlock: ICAMEG_clean_sbu_1, # of connection points: 4
#     Node 7, Type 0, BuildingBlock: ICAMEG_clean_sbu_1, # of connection points: 4
#     Edge 8, Type (0, 0), BuildingBlock: EZIPEK_clean_linker_0, # of connection points: 2
#     Edge 9, Type (0, 0), BuildingBlock: EZIPEK_clean_linker_0, # of connection points: 2
#     Edge 10, Type (0, 0), BuildingBlock: EZIPEK_clean_linker_0, # of connection points: 2
#     Edge 11, Type (0, 0), BuildingBlock: EZIPEK_clean_linker_0, # of connection points: 2
#     Edge 12, Type (0, 0), BuildingBlock: EZIPEK_clean_linker_0, # of connection points: 2
#     Edge 13, Type (0, 0), BuildingBlock: EZIPEK_clean_linker_0, # of connection points: 2
#     Edge 14, Type (0, 0), BuildingBlock: EZIPEK_clean_linker_0, # of connection points: 2
#     Edge 15, Type (0, 0), BuildingBlock: EZIPEK_clean_linker_0, # of connection points: 2
#     Edge 16, Type (0, 0), BuildingBlock: EZIPEK_clean_linker_0, # of connection points: 2
#     Edge 17, Type (0, 0), BuildingBlock: EZIPEK_clean_linker_0, # of connection points: 2
#     Edge 18, Type (0, 0), BuildingBlock: EZIPEK_clean_linker_0, # of connection points: 2
#     Edge 19, Type (0, 0), BuildingBlock: EZIPEK_clean_linker_0, # of connection points: 2
#     Edge 20, Type (0, 0), BuildingBlock: EZIPEK_clean_linker_0, # of connection points: 2
#     Edge 21, Type (0, 0), BuildingBlock: EZIPEK_clean_linker_0, # of connection points: 2
#     Edge 22, Type (0, 0), BuildingBlock: EZIPEK_clean_linker_0, # of connection points: 2
#     Edge 23, Type (0, 0), BuildingBlock: EZIPEK_clean_linker_0, # of connection points: 2
# Relax obj value: 0.047
# Max RMSD: 0.153
# Mean RMSD: 0.153
data_MOF--net-msp--node1-ICAMEG_clean_sbu_1--edge1-EZIPEK_clean_linker_0
_symmetry_space_group_name_H-M    P1
_symmetry_Int_Tables_number       1
_symmetry_cell_setting            triclinic
loop_
_symmetry_equiv_pos_as_xyz
'x, y, z'
_cell_length_a     20.06297
_cell_length_b     13.784776
_cell_length_c     33.111613
_cell_angle_alpha  89.723342
_cell_angle_beta   104.48752
_cell_angle_gamma 90.505337
loop_
_atom_site_label
_atom_site_type_symbol
_atom_site_fract_x
_atom_site_fract_y
_atom_site_fract_z
_atom_type_partial_charge
Co0 Co 0.13373 0.37794 0.38055 0.0
Co1 Co 0.99834 0.22269 0.38398 0.0
O2 O 0.05551 0.29382 0.3527 0.0
C3 C 0.19511 0.25525 0.32341 0.0
O4 O 0.17408 0.17659 0.33923 0.0
C5 C 0.89971 0.29111 0.3034 0.0
O6 O 0.94899 0.34254 0.29404 0.0
O7 O 0.9785 0.34687 0.4096 0.0
O8 O 0.08058 0.42416 0.42171 0.0
H9 H 0.94008 0.11388 0.51626 0.0
H10 H 0.07613 0.39614 0.2901 0.0
O11 O 0.18618 0.33835 0.33808 0.0
H12 H 0.06513 0.72266 0.34776 0.0
H13 H 0.32714 0.61657 0.38601 0.0
H14 H 0.20263 0.42282 0.46925 0.0
H15 H 0.11607 0.58752 0.39318 0.0
H16 H 0.23126 0.50812 0.35191 0.0
O17 O 0.91137 0.24071 0.33698 0.0
H18 H 0.00314 0.20525 0.47445 0.0
H19 H 0.87527 0.08787 0.36303 0.0
H20 H 0.29847 0.52974 0.50493 0.0
H21 H 0.03168 0.52859 0.24338 0.0
H22 H 0.36058 0.62883 0.46322 0.0
H23 H 0.02247 0.69555 0.27174 0.0
O24 O 0.17496 0.27086 0.41828 0.0
H25 H 0.03879 0.01034 0.26924 0.0
H26 H 0.0375 0.02499 0.41724 0.0
H27 H 0.07264 0.87439 0.38905 0.0
H28 H 0.07422 0.86792 0.31398 0.0
H29 H 0.00397 0.16088 0.29945 0.0
H30 H 0.80874 0.99688 0.40487 0.0
H31 H 0.8416 0.0086 0.48159 0.0
O32 O 0.08114 0.20261 0.43174 0.0
C33 C 0.01942 0.41459 0.42704 0.0
C34 C 0.92503 0.10793 0.48268 0.0
C35 C 0.85152 0.04273 0.4199 0.0
N36 N 0.94318 0.15314 0.41594 0.0
C37 C 0.96111 0.15941 0.45853 0.0
C38 C 0.88901 0.09522 0.39654 0.0
C39 C 0.86991 0.04912 0.4632 0.0
C40 C 0.07327 0.46758 0.30284 0.0
N41 N 0.09543 0.48348 0.34451 0.0
C42 C 0.0473 0.5433 0.27608 0.0
C43 C 0.04321 0.6359 0.29203 0.0
C44 C 0.06714 0.65163 0.33464 0.0
C45 C 0.09445 0.57434 0.36043 0.0
C46 C 0.30027 0.57416 0.40456 0.0
C47 C 0.22989 0.46478 0.45091 0.0
C48 C 0.24662 0.5118 0.38534 0.0
N49 N 0.2115 0.45903 0.40837 0.0
C50 C 0.28384 0.52563 0.47129 0.0
C51 C 0.31884 0.58117 0.44786 0.0
C52 C 0.14581 0.21807 0.44042 0.0
C53 C 0.03775 0.01325 0.30166 0.0
C54 C 0.03724 0.02207 0.38481 0.0
C55 C 0.05713 0.93649 0.36887 0.0
C56 C 0.05777 0.9326 0.32696 0.0
N57 N 0.01852 0.10157 0.35992 0.0
C58 C 0.01805 0.09764 0.31878 0.0
Co59 Co 0.41671 0.34344 0.64352 0.0
Co60 Co 0.50777 0.15798 0.61411 0.0
O61 O 0.48326 0.23651 0.65746 0.0
C62 C 0.36611 0.23264 0.70661 0.0
O63 O 0.3911 0.15438 0.69362 0.0
C64 C 0.6397 0.224 0.67071 0.0
O65 O 0.61654 0.31243 0.66324 0.0
O66 O 0.52889 0.27857 0.58549 0.0
O67 O 0.44156 0.37425 0.58955 0.0
H68 H 0.51363 0.07892 0.46738 0.0
H69 H 0.52213 0.34522 0.72299 0.0
O70 O 0.38368 0.31593 0.69529 0.0
H71 H 0.55787 0.64928 0.6525 0.0
H72 H 0.28206 0.62089 0.67981 0.0
H73 H 0.31218 0.40637 0.56697 0.0
H74 H 0.45934 0.54168 0.62269 0.0
H75 H 0.37318 0.4979 0.69323 0.0
O76 O 0.60583 0.1533 0.65039 0.0
H77 H 0.47971 0.17246 0.52217 0.0
H78 H 0.59758 0.98672 0.61526 0.0
H79 H 0.21934 0.52813 0.55226 0.0
H80 H 0.62608 0.44643 0.75274 0.0
H81 H 0.20437 0.63645 0.60915 0.0
H82 H 0.64309 0.60048 0.71724 0.0
O83 O 0.34906 0.24975 0.61481 0.0
H84 H 0.54924 0.89664 0.7244 0.0
H85 H 0.42718 0.98407 0.58187 0.0
H86 H 0.41304 0.82 0.60762 0.0
H87 H 0.47656 0.77437 0.67946 0.0
H88 H 0.55409 0.06464 0.69952 0.0
H89 H 0.62573 0.88443 0.56123 0.0
H90 H 0.58018 0.92803 0.48692 0.0
O91 O 0.40704 0.15859 0.57927 0.0
C92 C 0.48956 0.35034 0.57276 0.0
C93 C 0.53226 0.05844 0.49983 0.0
C94 C 0.59525 0.94914 0.55253 0.0
N95 N 0.53561 0.08414 0.57173 0.0
C96 C 0.51324 0.11108 0.53091 0.0
C97 C 0.5785 0.00672 0.58288 0.0
C98 C 0.57138 0.97513 0.51081 0.0
C99 C 0.53159 0.41031 0.7073 0.0
N100 N 0.48626 0.43605 0.67113 0.0
C101 C 0.58945 0.46813 0.72429 0.0
C102 C 0.59889 0.55478 0.70453 0.0
C103 C 0.55096 0.58232 0.66823 0.0
C104 C 0.49492 0.52137 0.65169 0.0
C105 C 0.28846 0.57456 0.65478 0.0
C106 C 0.30609 0.45387 0.59165 0.0
C107 C 0.34004 0.50475 0.66217 0.0
N108 N 0.34833 0.44536 0.63084 0.0
C109 C 0.25345 0.52252 0.58317 0.0
C110 C 0.24482 0.58316 0.61503 0.0
C111 C 0.35043 0.18645 0.58743 0.0
C112 C 0.51931 0.91734 0.69395 0.0
C113 C 0.44899 0.96828 0.61434 0.0
C114 C 0.44312 0.8737 0.62832 0.0
C115 C 0.47916 0.84796 0.66838 0.0
N116 N 0.48772 0.03692 0.63973 0.0
C117 C 0.5219 0.01249 0.67947 0.0
Co118 Co 0.90611 0.63599 0.63363 0.0
Co119 Co 0.00707 0.8182 0.60761 0.0
O120 O 0.96941 0.74835 0.64863 0.0
C121 C 0.84388 0.75792 0.69102 0.0
O122 O 0.87377 0.83539 0.68014 0.0
C123 C 0.13417 0.77057 0.6722 0.0
O124 O 0.11758 0.6789 0.66554 0.0
O125 O 0.04007 0.69505 0.58843 0.0
O126 O 0.95495 0.59113 0.59039 0.0
H127 H 0.02877 0.88899 0.46308 0.0
H128 H 0.00783 0.67277 0.71477 0.0
O129 O 0.85434 0.67513 0.67653 0.0
H130 H 0.04141 0.33241 0.68099 0.0
H131 H 0.75294 0.36815 0.66355 0.0
H132 H 0.83218 0.54235 0.55378 0.0
H133 H 0.94336 0.42392 0.64009 0.0
H134 H 0.83886 0.49904 0.68178 0.0
O135 O 0.09727 0.83628 0.65067 0.0
H136 H 0.99051 0.79652 0.51667 0.0
H137 H 0.10124 0.98753 0.61068 0.0
H138 H 0.74698 0.40996 0.53422 0.0
H139 H 0.11248 0.58654 0.75325 0.0
H140 H 0.70689 0.32135 0.58935 0.0
H141 H 0.12921 0.41523 0.7364 0.0
O142 O 0.84241 0.71662 0.5907 0.0
H143 H 0.01281 0.09827 0.70479 0.0
H144 H 0.91833 0.97621 0.56248 0.0
H145 H 0.89555 0.14395 0.5791 0.0
H146 H 0.94684 0.20813 0.64978 0.0
H147 H 0.0291 0.92757 0.68809 0.0
H148 H 0.13969 0.08235 0.55804 0.0
H149 H 0.10233 0.03443 0.48347 0.0
O150 O 0.91835 0.8021 0.56483 0.0
C151 C 0.00872 0.61487 0.57805 0.0
C152 C 0.04522 0.91089 0.49541 0.0
C153 C 0.10796 0.01909 0.54869 0.0
N154 N 0.04389 0.88622 0.56686 0.0
C155 C 0.02367 0.85883 0.52598 0.0
C156 C 0.08618 0.96462 0.57849 0.0
C157 C 0.08708 0.99206 0.50694 0.0
C158 C 0.01618 0.59946 0.70635 0.0
N159 N 0.97028 0.55581 0.67403 0.0
C160 C 0.07513 0.55062 0.72848 0.0
C161 C 0.08436 0.45409 0.7193 0.0
C162 C 0.03494 0.40761 0.68835 0.0
C163 C 0.97847 0.46001 0.66569 0.0
C164 C 0.77028 0.40537 0.63922 0.0
C165 C 0.81564 0.50371 0.57795 0.0
C166 C 0.81861 0.48047 0.64932 0.0
N167 N 0.84113 0.52835 0.61886 0.0
C168 C 0.7672 0.42883 0.56668 0.0
C169 C 0.74461 0.37924 0.59761 0.0
C170 C 0.85783 0.77098 0.56298 0.0
C171 C 0.99073 0.07103 0.67373 0.0
C172 C 0.93674 0.00064 0.59426 0.0
C173 C 0.92492 0.09682 0.60318 0.0
C174 C 0.95373 0.13276 0.64289 0.0
N175 N 0.97511 0.94103 0.62428 0.0
C176 C -0.00021 0.97431 0.66404 0.0
Co177 Co 0.59686 0.59684 0.36076 0.0
Co178 Co 0.48573 0.76676 0.38366 0.0
O179 O 0.52163 0.6899 0.34399 0.0
C180 C 0.64735 0.73795 0.3082 0.0
O181 O 0.614 0.80312 0.3239 0.0
C182 C 0.36303 0.70987 0.31194 0.0
O183 O 0.40362 0.65631 0.29591 0.0
O184 O 0.4757 0.64615 0.41599 0.0
O185 O 0.5611 0.54907 0.40872 0.0
H186 H 0.45118 0.83779 0.52562 0.0
H187 H 0.52495 0.59001 0.27113 0.0
O188 O 0.6394 0.64752 0.31534 0.0
H189 H 0.49739 0.26528 0.32743 0.0
H190 H 0.74373 0.31964 0.3376 0.0
H191 H 0.69138 0.5407 0.44186 0.0
H192 H 0.55197 0.39579 0.37368 0.0
H193 H 0.66344 0.45547 0.31572 0.0
O194 O 0.38647 0.75042 0.34764 0.0
H195 H 0.5012 0.75369 0.47504 0.0
H196 H 0.38792 0.9332 0.37765 0.0
H197 H 0.77504 0.4092 0.4648 0.0
H198 H 0.47549 0.45791 0.22283 0.0
H199 H 0.79821 0.29397 0.41232 0.0
H200 H 0.46275 0.2931 0.25089 0.0
O201 O 0.65194 0.69205 0.39654 0.0
H202 H 0.44843 0.97223 0.25469 0.0
H203 H 0.53898 0.96663 0.40718 0.0
H204 H 0.54088 0.12008 0.36914 0.0
H205 H 0.49183 0.12402 0.29209 0.0
H206 H 0.45748 0.8196 0.29304 0.0
H207 H 0.34521 0.02797 0.42802 0.0
H208 H 0.37957 0.9827 0.50276 0.0
O209 O 0.58366 0.79222 0.42018 0.0
C210 C 0.51382 0.5719 0.4263 0.0
C211 C 0.4369 0.85871 0.49305 0.0
C212 C 0.37743 0.96558 0.43834 0.0
N213 N 0.44836 0.83881 0.42313 0.0
C214 C 0.46479 0.81104 0.46412 0.0
C215 C 0.40275 0.91234 0.40993 0.0
C216 C 0.39522 0.93876 0.48016 0.0
C217 C 0.5201 0.51837 0.28325 0.0
N218 N 0.5426 0.50034 0.32487 0.0
C219 C 0.49219 0.44382 0.25589 0.0
C220 C 0.48542 0.35125 0.27166 0.0
C221 C 0.50459 0.33526 0.31446 0.0
C222 C 0.53356 0.41088 0.34076 0.0
C223 C 0.73393 0.36952 0.36049 0.0
C224 C 0.70384 0.49384 0.41875 0.0
C225 C 0.68856 0.44655 0.34831 0.0
N226 N 0.67193 0.5052 0.37741 0.0
C227 C 0.75089 0.41905 0.43198 0.0
C228 C 0.76463 0.35521 0.40261 0.0
C229 C 0.64369 0.76379 0.41814 0.0
C230 C 0.47012 0.97165 0.28805 0.0
C231 C 0.52161 0.96695 0.37361 0.0
C232 C 0.52152 0.0545 0.35226 0.0
C233 C 0.49408 0.05688 0.30924 0.0
N234 N 0.49567 0.88415 0.35272 0.0
C235 C 0.47401 0.88506 0.3102 0.0
Co236 Co 0.61362 0.87894 0.87524 0.0
Co237 Co 0.48192 0.71653 0.8765 0.0
O238 O 0.53566 0.7972 0.847 0.0
C239 C 0.65593 0.79093 0.8008 0.0
O240 O 0.6012 0.73465 0.79216 0.0
C241 C 0.37309 0.81634 0.81117 0.0
O242 O 0.40233 0.90016 0.82379 0.0
O243 O 0.46093 0.83286 0.9072 0.0
O244 O 0.56292 0.91332 0.91927 0.0
H245 H 0.40763 0.57422 -0.00088 0.0
H246 H 0.53489 0.90928 0.78818 0.0
O247 O 0.66695 0.8487 0.83191 0.0
H248 H 0.53408 0.22448 0.85694 0.0
H249 H 0.80529 0.12073 0.88055 0.0
H250 H 0.69814 0.89722 0.96239 0.0
H251 H 0.59723 0.08646 0.89518 0.0
H252 H 0.70346 0.02351 0.84632 0.0
O253 O 0.3977 0.73819 0.82928 0.0
H254 H 0.48563 0.66214 0.96515 0.0
H255 H 0.36373 0.57938 0.84613 0.0
H256 H 0.79902 0.99819 0.998 0.0
H257 H 0.46986 0.0457 0.7487 0.0
H258 H 0.8505 0.1133 0.9571 0.0
H259 H 0.46972 0.20432 0.78312 0.0
O260 O 0.65674 0.76569 0.90919 0.0
H261 H 0.47418 0.5088 0.75334 0.0
H262 H 0.54889 0.52814 0.90577 0.0
H263 H 0.5763 0.3827 0.87145 0.0
H264 H 0.53737 0.36906 0.79465 0.0
H265 H 0.46194 0.65902 0.78792 0.0
H266 H 0.28662 0.48593 0.87913 0.0
H267 H 0.30757 0.48547 0.95609 0.0
O268 O 0.56441 0.69473 0.92385 0.0
C269 C 0.50332 0.8978 0.92632 0.0
C270 C 0.3977 0.57501 0.96548 0.0
C271 C 0.32957 0.52612 0.89813 0.0
N272 N 0.42643 0.63383 0.90356 0.0
C273 C 0.441 0.62658 0.94591 0.0
C274 C 0.37317 0.58044 0.87968 0.0
C275 C 0.34142 0.52516 0.94132 0.0
C276 C 0.53594 0.97891 0.8028 0.0
N277 N 0.57085 0.99019 0.84338 0.0
C278 C 0.49888 0.05563 0.78052 0.0
C279 C 0.49819 0.14455 0.8 0.0
C280 C 0.53489 0.15618 0.84127 0.0
C281 C 0.57093 0.0777 0.86266 0.0
C282 C 0.78056 0.07457 0.89887 0.0
C283 C 0.71982 0.94914 0.94472 0.0
C284 C 0.72331 0.01829 0.87975 0.0
N285 N 0.69245 0.95826 0.90286 0.0
C286 C 0.77675 0.00535 0.96492 0.0
C287 C 0.80637 0.0696 0.94186 0.0
C288 C 0.62897 0.71081 0.93158 0.0
C289 C 0.49486 0.51326 0.78652 0.0
C290 C 0.53596 0.52636 0.87215 0.0
C291 C 0.5503 0.44239 0.85289 0.0
C292 C 0.52885 0.43541 0.80974 0.0
N293 N 0.50469 0.60336 0.84894 0.0
C294 C 0.48568 0.59823 0.80656 0.0
Co295 Co 0.86136 0.87246 0.12389 0.0
Co296 Co 0.97835 0.69706 0.11991 0.0
O297 O 0.93818 0.79185 0.15108 0.0
C298 C 0.84303 0.82863 0.21092 0.0
O299 O 0.90754 0.80459 0.22531 0.0
C300 C 0.08769 0.7519 0.1993 0.0
O301 O 0.04269 0.80455 0.21188 0.0
O302 O 0.00207 0.80942 0.08743 0.0
O303 O 0.89816 0.88181 0.0722 0.0
H304 H 0.04583 0.57462 0.99288 0.0
H305 H 0.93275 0.96468 0.20841 0.0
O306 O 0.82033 0.86049 0.17375 0.0
H307 H 0.94086 0.21034 0.10163 0.0
H308 H 0.69962 0.14717 0.12011 0.0
H309 H 0.75616 0.87077 0.04115 0.0
H310 H 0.89298 0.0498 0.08112 0.0
H311 H 0.79149 0.0357 0.15249 0.0
O312 O 0.07084 0.70951 0.16362 0.0
H313 H 0.98825 0.68427 0.03173 0.0
H314 H 0.06717 0.52233 0.14224 0.0
H315 H 0.65656 0.97712 0.00906 0.0
H316 H 0.96959 0.13022 0.22942 0.0
H317 H 0.63618 0.12352 0.04643 0.0
H318 H 0.97763 0.25324 0.17665 0.0
O319 O 0.81109 0.75188 0.10277 0.0
H320 H 0.88942 0.55005 0.23572 0.0
H321 H 0.93317 0.49044 0.09863 0.0
H322 H 0.87215 0.36722 0.12924 0.0
H323 H 0.84831 0.39672 0.19801 0.0
H324 H 0.95586 0.66692 0.20489 0.0
H325 H 0.11899 0.40568 0.10405 0.0
H326 H 0.103 0.42604 0.02834 0.0
O327 O 0.88813 0.67702 0.07587 0.0
C328 C 0.95804 0.86868 0.06583 0.0
C329 C 0.05029 0.56251 0.02577 0.0
C330 C 0.09171 0.46788 0.08813 0.0
N331 N 0.02334 0.60943 0.0894 0.0
C332 C 0.01812 0.62479 0.04797 0.0
C333 C 0.0626 0.53491 0.10976 0.0
C334 C 0.08389 0.48066 0.04566 0.0
C335 C 0.93383 0.01662 0.18461 0.0
N336 N 0.91123 0.9937 0.14335 0.0
C337 C 0.95571 0.11087 0.19695 0.0
C338 C 0.95961 0.18059 0.1672 0.0
C339 C 0.93942 0.1564 0.12527 0.0
C340 C 0.91412 0.06324 0.11391 0.0
C341 C 0.7112 0.08682 0.10245 0.0
C342 C 0.74326 0.93079 0.05855 0.0
C343 C 0.76368 0.02334 0.12053 0.0
N344 N 0.78174 0.94968 0.09789 0.0
C345 C 0.68814 0.99114 0.03999 0.0
C346 C 0.67471 0.07216 0.06145 0.0
C347 C 0.82621 0.68758 0.079 0.0
C348 C 0.899 0.5361 0.20556 0.0
C349 C 0.92532 0.50377 0.12903 0.0
C350 C 0.88995 0.43338 0.14615 0.0
C351 C 0.87624 0.45018 0.1846 0.0
N352 N 0.94802 0.5884 0.1497 0.0
C353 C 0.93579 0.60358 0.18774 0.0
Co354 Co 0.40762 0.15446 0.13356 0.0
Co355 Co 0.52224 0.31706 0.10813 0.0
O356 O 0.47854 0.25541 0.14805 0.0
C357 C 0.30454 0.23559 0.17537 0.0
O358 O 0.26552 0.25316 0.13795 0.0
C359 C 0.62538 0.32176 0.1911 0.0
O360 O 0.57423 0.33793 0.20808 0.0
O361 O 0.54263 0.18806 0.08738 0.0
O362 O 0.44672 0.10358 0.08745 0.0
H363 H 0.53812 0.5088 0.98049 0.0
H364 H 0.50698 0.17853 0.21624 0.0
O365 O 0.36579 0.20305 0.17985 0.0
H366 H 0.53029 0.83929 0.17659 0.0
H367 H 0.25207 0.89438 0.16781 0.0
H368 H 0.31249 0.08251 0.05493 0.0
H369 H 0.44043 0.94307 0.13361 0.0
H370 H 0.34505 0.01703 0.18377 0.0
O371 O 0.61407 0.31398 0.15154 0.0
H372 H 0.48428 0.46191 0.0377 0.0
H373 H 0.65942 0.29269 0.09218 0.0
H374 H 0.2174 0.96318 0.03774 0.0
H375 H 0.60121 0.0801 0.25801 0.0
H376 H 0.1871 0.86744 0.09435 0.0
H377 H 0.61305 0.90938 0.23833 0.0
O378 O 0.35012 0.24397 0.09161 0.0
H379 H 0.36647 0.55978 0.14933 0.0
H380 H 0.59313 0.51318 0.11996 0.0
H381 H 0.55162 0.67905 0.12677 0.0
H382 H 0.43887 0.70304 0.14267 0.0
H383 H 0.40539 0.39687 0.13739 0.0
H384 H 0.71454 0.34067 0.03699 0.0
H385 H 0.65128 0.44486 0.97909 0.0
O386 O 0.43042 0.31765 0.06437 0.0
C387 C 0.49979 0.12008 0.07349 0.0
C388 C 0.56497 0.4635 0.00561 0.0
C389 C 0.66434 0.36866 0.0371 0.0
N390 N 0.56845 0.37455 0.06846 0.0
C391 C 0.53509 0.43662 0.03794 0.0
C392 C 0.63293 0.34251 0.06867 0.0
C393 C 0.62926 0.42791 0.0049 0.0
C394 C 0.51181 0.1046 0.20729 0.0
N395 N 0.46787 0.0673 0.1724 0.0
C396 C 0.56541 0.04902 0.23108 0.0
C397 C 0.57201 0.95299 0.22009 0.0
C398 C 0.52539 0.91377 0.18556 0.0
C399 C 0.47387 0.97266 0.16168 0.0
C400 C 0.26513 0.93515 0.14281 0.0
C401 C 0.29976 0.0413 0.07974 0.0
C402 C 0.31795 0.0045 0.15162 0.0
N403 N 0.33516 0.05605 0.12021 0.0
C404 C 0.24586 0.97366 0.06981 0.0
C405 C 0.22873 0.92006 0.10161 0.0
C406 C 0.36775 0.29343 0.06307 0.0
C407 C 0.41593 0.55036 0.14235 0.0
C408 C 0.54292 0.52273 0.12575 0.0
C409 C 0.52004 0.61689 0.12987 0.0
C410 C 0.45652 0.63057 0.13867 0.0
N411 N 0.50089 0.44458 0.1267 0.0
C412 C 0.43874 0.45771 0.13584 0.0
Co413 Co 0.10368 0.10569 0.86715 0.0
Co414 Co 0.9885 0.28068 0.87843 0.0
O415 O 0.02894 0.19467 0.84353 0.0
C416 C 0.15002 0.2075 0.79737 0.0
O417 O 0.1052 0.27677 0.79622 0.0
C418 C 0.8702 0.18599 0.81741 0.0
O419 O 0.90198 0.10273 0.82571 0.0
O420 O 0.97072 0.1677 0.91296 0.0
O421 O 0.06197 0.07328 0.91473 0.0
H422 H 0.94844 0.42166 0.00972 0.0
H423 H 0.02751 0.079 0.77958 0.0
O424 O 0.1513 0.13428 0.82121 0.0
H425 H 0.99625 0.77258 0.8499 0.0
H426 H 0.30001 0.88824 0.86417 0.0
H427 H 0.18297 0.06817 0.95367 0.0
H428 H 0.0695 0.90357 0.88828 0.0
H429 H 0.18914 0.96669 0.83352 0.0
O430 O 0.89573 0.26193 0.83748 0.0
H431 H 0.99139 0.29912 0.9686 0.0
H432 H 0.88731 0.44057 0.85661 0.0
H433 H 0.28884 0.97851 0.98552 0.0
H434 H 0.9537 0.9496 0.73975 0.0
H435 H 0.34789 0.89062 0.93981 0.0
H436 H 0.93886 0.79454 0.77492 0.0
O437 O 0.15592 0.21308 0.89807 0.0
H438 H 0.95181 0.47856 0.74887 0.0
H439 H 0.04751 0.47468 0.89955 0.0
H440 H 0.05824 0.62383 0.86143 0.0
H441 H 0.00455 0.63018 0.78598 0.0
H442 H 0.95735 0.32694 0.78755 0.0
H443 H 0.85591 0.57451 0.89667 0.0
H444 H 0.89226 0.57024 0.97377 0.0
O445 O 0.08234 0.30703 0.92006 0.0
C446 C 0.00955 0.09621 0.92763 0.0
C447 C 0.93749 0.42829 0.97615 0.0
C448 C 0.88458 0.51346 0.91271 0.0
N449 N 0.94485 0.36526 0.91039 0.0
C450 C 0.96006 0.35778 0.95275 0.0
C451 C 0.90252 0.43724 0.89028 0.0
C452 C 0.9043 0.51022 0.95601 0.0
C453 C 0.02124 0.01142 0.79475 0.0
N454 N 0.05237 -0.00104 0.83597 0.0
C455 C 0.97967 0.9384 0.77215 0.0
C456 C 0.97092 0.85164 0.79198 0.0
C457 C 0.00353 0.83901 0.83401 0.0
C458 C 0.04468 0.91367 0.8556 0.0
C459 C 0.27256 0.9233 0.88393 0.0
C460 C 0.20638 0.02456 0.93401 0.0
C461 C 0.21057 0.96955 0.86687 0.0
N462 N 0.1793 0.02161 0.89179 0.0
C463 C 0.2667 0.97518 0.95223 0.0
C464 C 0.30015 0.92565 0.92672 0.0
C465 C 0.14406 0.28374 0.91954 0.0
C466 C 0.97746 0.47763 0.78164 0.0
C467 C 0.03419 0.47276 0.86626 0.0
C468 C 0.03662 0.55895 0.84481 0.0
C469 C 0.00642 0.56195 0.80236 0.0
N470 N 0.00572 0.39067 0.84595 0.0
C471 C 0.97981 0.39149 0.80383 0.0
C472 C 0.97518 0.42825 0.49286 0.0
C473 C 0.00255 0.47308 0.46179 0.0
C474 C 0.05144 0.6021 0.51152 0.0
C475 C 0.02457 0.55676 0.54285 0.0
N476 N 0.99082 0.4043 0.56673 0.0
N477 N 0.0325 0.62633 0.43738 0.0
C478 C 0.99463 0.46336 0.53437 0.0
C479 C 0.03156 0.56669 0.47003 0.0
N480 N 0.92579 0.35826 0.48248 0.0
N481 N 0.10026 0.67338 0.52136 0.0
H482 H 0.00748 0.60574 0.40705 0.0
H483 H 0.04789 0.69892 0.44103 0.0
H484 H 0.12323 0.69378 0.55188 0.0
H485 H 0.1245 0.70241 0.49954 0.0
H486 H 0.90045 0.32922 0.50376 0.0
H487 H 0.9032 0.34042 0.45167 0.0
H488 H 0.97395 0.33236 0.56291 0.0
H489 H 0.01602 0.42363 0.59708 0.0
C490 C 0.55562 0.53174 0.50299 0.0
C491 C 0.50814 0.5143 0.46372 0.0
C492 C 0.44896 0.39064 0.49606 0.0
C493 C 0.49712 0.40595 0.53518 0.0
N494 N 0.59478 0.49188 0.57709 0.0
N495 N 0.42018 0.4136 0.42095 0.0
C496 C 0.55053 0.47631 0.53886 0.0
C497 C 0.45777 0.43998 0.45977 0.0
N498 N 0.60614 0.60055 0.50557 0.0
N499 N 0.39329 0.33099 0.49375 0.0
H500 H 0.42421 0.44932 0.3938 0.0
H501 H 0.38902 0.35192 0.41536 0.0
H502 H 0.38533 0.29207 0.51917 0.0
H503 H 0.35223 0.32514 0.46746 0.0
H504 H 0.645 0.6156 0.53209 0.0
H505 H 0.61037 0.64333 0.48032 0.0
H506 H 0.63333 0.54446 0.58354 0.0
H507 H 0.59259 0.45196 0.60353 0.0
C508 C 0.50008 0.96286 0.03658 0.0
C509 C 0.50526 0.06462 0.03561 0.0
C510 C 0.49118 0.05726 0.95929 0.0
C511 C 0.48703 0.95554 0.96103 0.0
N512 N 0.45152 0.82193 0.99805 0.0
N513 N 0.50858 0.21046 0.99507 0.0
C514 C 0.48086 0.91103 -0.00129 0.0
C515 C 0.5027 0.1123 0.99671 0.0
N516 N 0.51711 0.91513 0.07387 0.0
N517 N 0.47417 0.10106 0.92107 0.0
H518 H 0.50289 0.25391 0.01919 0.0
H519 H 0.5187 0.24825 0.96993 0.0
H520 H 0.45706 0.06073 0.89376 0.0
H521 H 0.4689 0.17557 0.91639 0.0
H522 H 0.5176 0.83976 0.07655 0.0
H523 H 0.5399 0.95146 0.10146 0.0
H524 H 0.4419 0.78815 0.02428 0.0
H525 H 0.42589 0.79153 0.96998 0.0
C526 C 0.93837 0.90056 0.98857 0.0
C527 C 0.97489 0.92254 0.03026 0.0
C528 C 0.03247 0.06016 0.00464 0.0
C529 C 0.99605 0.03784 0.96298 0.0
N530 N 0.9231 0.92921 0.91426 0.0
N531 N 0.06147 0.01603 0.07832 0.0
C532 C 0.95165 0.9556 0.9547 0.0
C533 C 0.02362 0.0001 0.03833 0.0
N534 N 0.88992 0.82792 0.98145 0.0
N535 N 0.07481 0.13999 0.01187 0.0
H536 H 0.05447 0.97641 0.10386 0.0
H537 H 0.10229 0.06496 0.0865 0.0
H538 H 0.08487 0.18273 0.98799 0.0
H539 H 0.09799 0.16732 0.04128 0.0
H540 H 0.85554 0.81506 0.95274 0.0
H541 H 0.88131 0.78255 0.00492 0.0
H542 H 0.89673 0.86431 0.9055 0.0
H543 H 0.92884 0.97047 0.88886 0.0
C544 C 0.73133 0.22359 0.22349 0.0
C545 C 0.69685 0.31412 0.2185 0.0
C546 C 0.79348 0.38713 0.27112 0.0
C547 C 0.82851 0.29707 0.27558 0.0
N548 N 0.83527 0.13259 0.25287 0.0
N549 N 0.69054 0.47886 0.2404 0.0
C550 C 0.79838 0.21594 0.2511 0.0
C551 C 0.727 0.39504 0.24297 0.0
N552 N 0.69815 0.14339 0.20368 0.0
N553 N 0.82443 0.46568 0.29359 0.0
H554 H 0.64427 0.49027 0.21825 0.0
H555 H 0.70388 0.53498 0.26172 0.0
H556 H 0.86983 0.46098 0.31716 0.0
H557 H 0.80714 0.53662 0.28821 0.0
H558 H 0.71589 0.07281 0.20988 0.0
H559 H 0.64984 0.14623 0.18271 0.0
H560 H 0.8212 0.07561 0.2319 0.0
H561 H 0.88274 0.12253 0.27392 0.0
C562 C 0.76334 0.1778 0.70365 0.0
C563 C 0.69795 0.2059 0.70811 0.0
C564 C 0.74556 0.22546 0.78388 0.0
C565 C 0.81084 0.19513 0.77984 0.0
N566 N 0.88571 0.16617 0.73485 0.0
N567 N 0.623 0.2242 0.75382 0.0
C568 C 0.82054 0.17612 0.73948 0.0
C569 C 0.68813 0.22154 0.74859 0.0
N570 N 0.77036 0.15017 0.66534 0.0
N571 N 0.73843 0.26125 0.82099 0.0
H572 H 0.58006 0.21101 0.72937 0.0
H573 H 0.61214 0.22746 0.78286 0.0
H574 H 0.77902 0.26643 0.84756 0.0
H575 H 0.69393 0.29515 0.82437 0.0
H576 H 0.81409 0.11666 0.66065 0.0
H577 H 0.73007 0.15349 0.63845 0.0
H578 H 0.89711 0.16807 0.70608 0.0
H579 H 0.92922 0.16844 0.75972 0.0
C580 C 0.25659 0.82788 0.70013 0.0
C581 C 0.19311 0.79733 0.70736 0.0
C582 C 0.24714 0.77695 0.78164 0.0
C583 C 0.3108 0.81146 0.77538 0.0
N584 N 0.37325 0.88358 0.72912 0.0
N585 N 0.12353 0.7837 0.75652 0.0
C586 C 0.31437 0.84224 0.73481 0.0
C587 C 0.18701 0.78378 0.74858 0.0
N588 N 0.26251 0.83906 0.66013 0.0
N589 N 0.24343 0.73627 0.81871 0.0
H590 H 0.07917 0.7979 0.73319 0.0
H591 H 0.11615 0.7824 0.78659 0.0
H592 H 0.2854 0.73091 0.84442 0.0
H593 H 0.19933 0.70105 0.82275 0.0
H594 H 0.30929 0.85035 0.65253 0.0
H595 H 0.22077 0.8316 0.6342 0.0
H596 H 0.37485 0.9229 0.70245 0.0
H597 H 0.41934 0.88284 0.75202 0.0
C598 C 0.25071 0.63973 0.27043 0.0
C599 C 0.28981 0.7232 0.28667 0.0
C600 C 0.19621 0.82599 0.24548 0.0
C601 C 0.15861 0.74167 0.22805 0.0
N602 N 0.15381 0.56757 0.22137 0.0
N603 N 0.2957 0.89748 0.29362 0.0
C604 C 0.18722 0.64862 0.23969 0.0
C605 C 0.26106 0.81686 0.27558 0.0
N606 N 0.27145 0.5512 0.28723 0.0
N607 N 0.17244 0.91525 0.23063 0.0
H608 H 0.34542 0.89515 0.31209 0.0
H609 H 0.27463 0.9664 0.29238 0.0
H610 H 0.12825 0.92503 0.20662 0.0
H611 H 0.19896 0.97986 0.23923 0.0
H612 H 0.24037 0.48957 0.28135 0.0
H613 H 0.31588 0.54136 0.31112 0.0
H614 H 0.17692 0.49999 0.22204 0.0
H615 H 0.10283 0.56859 0.20467 0.0
C616 C 0.21478 0.18712 0.21399 0.0
C617 C 0.27387 0.24291 0.21211 0.0
C618 C 0.28309 0.30137 0.2831 0.0
C619 C 0.22272 0.24938 0.2851 0.0
N620 N 0.1213 0.16391 0.2476 0.0
N621 N 0.33953 0.38603 0.23672 0.0
C622 C 0.18581 0.19776 0.24912 0.0
C623 C 0.30137 0.30928 0.2444 0.0
N624 N 0.18523 0.12654 0.18172 0.0
N625 N 0.32404 0.34204 0.31818 0.0
H626 H 0.35042 0.39705 0.2078 0.0
H627 H 0.35457 0.44273 0.25778 0.0
H628 H 0.31374 0.33529 0.34739 0.0
H629 H 0.37076 0.37591 0.31847 0.0
H630 H 0.1428 0.08216 0.1807 0.0
H631 H 0.20448 0.11703 0.15565 0.0
H632 H 0.0912 0.1255 0.22276 0.0
H633 H 0.09512 0.18281 0.26975 0.0
C634 C 0.3091 0.29208 0.76233 0.0
C635 C 0.31109 0.22446 0.7303 0.0
C636 C 0.20892 0.1421 0.74393 0.0
C637 C 0.20314 0.2158 0.77273 0.0
N638 N 0.24248 0.37115 0.80396 0.0
N639 N 0.2501 0.09828 0.68401 0.0
C640 C 0.2512 0.2942 0.77997 0.0
C641 C 0.25781 0.15257 0.71942 0.0
N642 N 0.36456 0.35084 0.77804 0.0
N643 N 0.16709 0.06203 0.73929 0.0
H644 H 0.28096 0.10515 0.6632 0.0
H645 H 0.20759 0.05358 0.67227 0.0
H646 H 0.12669 0.05427 0.75353 0.0
H647 H 0.17515 0.00038 0.72316 0.0
H648 H 0.36954 0.39343 0.80457 0.0
H649 H 0.40915 0.34882 0.76756 0.0
H650 H 0.26991 0.436 0.8049 0.0
H651 H 0.20454 0.37411 0.82034 0.0
C652 C 0.74689 0.70005 0.77577 0.0
C653 C 0.70689 0.78484 0.77464 0.0
C654 C 0.75071 0.84673 0.71622 0.0
C655 C 0.79646 0.76677 0.71996 0.0
N656 N 0.84722 0.62796 0.76074 0.0
N657 N 0.68401 0.94926 0.75026 0.0
C658 C 0.79672 0.69597 0.75164 0.0
C659 C 0.71341 0.86165 0.74713 0.0
N660 N 0.73778 0.62312 0.80014 0.0
N661 N 0.73857 0.90488 0.68162 0.0
H662 H 0.65545 0.96323 0.77183 0.0
H663 H 0.69302 0.01031 0.73376 0.0
H664 H 0.75929 0.89206 0.65628 0.0
H665 H 0.70102 0.95844 0.67566 0.0
H666 H 0.7584 0.55477 0.79801 0.0
H667 H 0.70575 0.62544 0.82053 0.0
H668 H 0.85415 0.581 0.78615 0.0
H669 H 0.88713 0.62602 0.74597 0.0
C670 C 0.74176 0.73738 0.22254 0.0
C671 C 0.79363 0.80828 0.23642 0.0
C672 C 0.74759 0.84087 0.29703 0.0
C673 C 0.69528 0.76935 0.28265 0.0
N674 N 0.62808 0.68269 0.22367 0.0
N675 N 0.85394 0.91674 0.29023 0.0
C676 C 0.68838 0.72687 0.24318 0.0
C677 C 0.79846 0.85783 0.27441 0.0
N678 N 0.74594 0.67528 0.19128 0.0
N679 N 0.74696 0.89702 0.33074 0.0
H680 H 0.89067 0.93419 0.27395 0.0
H681 H 0.86647 0.94281 0.32066 0.0
H682 H 0.716 0.88386 0.3511 0.0
H683 H 0.77348 0.96273 0.33624 0.0
H684 H 0.7139 0.61484 0.18323 0.0
H685 H 0.7862 0.67772 0.17658 0.0
H686 H 0.61929 0.65634 0.19357 0.0
H687 H 0.58489 0.68214 0.23576 0.0
C688 C 0.27198 0.08971 0.52909 0.0
C689 C 0.2819 0.16466 0.5586 0.0
C690 C 0.18167 0.2473 0.51736 0.0
C691 C 0.18661 0.19062 0.48244 0.0
N692 N 0.22356 0.04187 0.45716 0.0
N693 N 0.21209 0.26186 0.59225 0.0
C694 C 0.2282 0.10656 0.48877 0.0
C695 C 0.22656 0.22868 0.55655 0.0
N696 N 0.29221 -0.00111 0.54261 0.0
N697 N 0.1343 0.31885 0.51331 0.0
H698 H 0.23801 0.23742 0.62172 0.0
H699 H 0.1686 0.30211 0.5927 0.0
H700 H 0.09378 0.32397 0.48726 0.0
H701 H 0.13603 0.37283 0.53548 0.0
H702 H 0.27863 0.93713 0.52427 0.0
H703 H 0.31334 0.98565 0.57426 0.0
H704 H 0.25239 0.97871 0.4604 0.0
H705 H 0.19052 0.05196 0.42765 0.0
C706 C 0.81447 0.72871 0.48802 0.0
C707 C 0.80737 0.78466 0.52262 0.0
C708 C 0.71336 0.87362 0.47604 0.0
C709 C 0.70946 0.79928 0.44671 0.0
N710 N 0.78712 0.7179 0.41319 0.0
N711 N 0.76122 0.9276 0.54733 0.0
C712 C 0.77007 0.74616 0.44878 0.0
C713 C 0.76042 0.86338 0.516 0.0
N714 N 0.86198 0.65697 0.49247 0.0
N715 N 0.68274 0.95951 0.46274 0.0
H716 H 0.79498 0.92114 0.57681 0.0
H717 H 0.72719 0.98526 0.54436 0.0
H718 H 0.65545 0.96873 0.43175 0.0
H719 H 0.69081 0.02244 0.48067 0.0
H720 H 0.86278 0.6066 0.4692 0.0
H721 H 0.89729 0.64365 0.52037 0.0
H722 H 0.83409 0.68632 0.41308 0.0
H723 H 0.75812 0.73784 0.38369 0.0
C724 C 0.70074 0.67526 0.04784 0.0
C725 C 0.76654 0.64308 0.04788 0.0
C726 C 0.7257 0.60853 0.97346 0.0
C727 C 0.67184 0.67526 0.97194 0.0
N728 N 0.60632 0.76829 0.01034 0.0
N729 N 0.81353 0.51025 0.01925 0.0
C730 C 0.65737 0.70503 0.00991 0.0
C731 C 0.77272 0.58957 0.01285 0.0
N732 N 0.68022 0.67652 0.08398 0.0
N733 N 0.72999 0.56187 0.93798 0.0
H734 H 0.84167 0.49214 0.04904 0.0
H735 H 0.80997 0.45561 0.99724 0.0
H736 H 0.69494 0.5735 0.90928 0.0
H737 H 0.76633 0.50938 0.93723 0.0
H738 H 0.63042 0.69424 0.08521 0.0
H739 H 0.71121 0.64669 0.1111 0.0
H740 H 0.60072 0.8009 0.03758 0.0
H741 H 0.57468 0.7947 0.98326 0.0
C742 C 0.31718 0.2594 0.98726 0.0
C743 C 0.31403 0.31091 0.02361 0.0
C744 C 0.20817 0.38856 0.98289 0.0
C745 C 0.20779 0.32382 0.94972 0.0
N746 N 0.28781 0.26336 0.91246 0.0
N747 N 0.26102 0.43655 0.05478 0.0
C748 C 0.27124 0.28163 0.9492 0.0
C749 C 0.26097 0.38005 0.02106 0.0
N750 N 0.35828 0.18121 0.98941 0.0
N751 N 0.16811 0.46853 0.97471 0.0
H752 H 0.29939 0.43212 0.08251 0.0
H753 H 0.22264 0.48598 0.05571 0.0
H754 H 0.13915 0.48229 0.94475 0.0
H755 H 0.17343 0.52763 0.99474 0.0
H756 H 0.35763 0.13748 0.96369 0.0
H757 H 0.38446 0.15303 0.01779 0.0
H758 H 0.33595 0.23728 0.91124 0.0
H759 H 0.25664 0.28643 0.88396 0.0
loop_
_geom_bond_atom_site_label_1
_geom_bond_atom_site_label_2
_geom_bond_distance
_geom_bond_site_symmetry_2
_ccdc_geom_bond_type
Co0 O2 2.143 . S
Co0 O8 2.074 . S
Co0 O11 2.093 . S
Co0 O24 2.097 . S
Co0 N41 2.151 . S
Co0 N49 2.214 . S
Co1 O2 2.158 1_655 S
Co1 O7 2.059 . S
Co1 O17 2.059 . S
Co1 O32 2.035 1_655 S
Co1 N36 2.146 . S
Co1 N57 2.256 1_655 S
O2 Co0 2.143 . S
O2 Co1 2.158 1_455 S
C3 O4 1.278 . S
C3 O11 1.224 . S
O4 C3 1.278 . S
C5 O6 1.245 . S
C5 O17 1.232 . S
O6 C5 1.245 . S
O7 Co1 2.059 . S
O7 C33 1.269 1_655 S
O8 Co0 2.074 . S
O8 C33 1.257 . S
H9 C34 0.930 . S
H10 C40 0.930 . S
O11 Co0 2.093 . S
O11 C3 1.224 . S
H12 C44 0.929 . S
H13 C46 0.930 . S
H14 C47 0.930 . S
H15 C45 0.929 . S
H16 C48 0.928 . S
O17 Co1 2.059 . S
O17 C5 1.232 . S
H18 C37 0.929 1_455 S
H19 C38 0.929 . S
H20 C50 0.931 . S
H21 C42 0.929 . S
H22 C51 0.930 . S
H23 C43 0.931 . S
O24 Co0 2.097 . S
O24 C52 1.214 . S
H25 C53 0.929 . S
H26 C54 0.929 . S
H27 C55 0.930 . S
H28 C56 0.929 . S
H29 C58 0.930 1_655 S
H30 C35 0.930 . S
H31 C39 0.930 . S
O32 Co1 2.035 1_455 S
O32 C52 1.234 . S
C33 O7 1.269 1_455 S
C33 O8 1.257 . S
C34 H9 0.930 . S
C34 C37 1.388 . S
C34 C39 1.418 1_545 S
C35 H30 0.930 . S
C35 C38 1.404 1_565 S
C35 C39 1.353 . S
N36 Co1 2.146 . S
N36 C37 1.397 . S
N36 C38 1.334 . S
C37 H18 0.929 1_655 S
C37 C34 1.388 . S
C37 N36 1.397 . S
C38 H19 0.929 . S
C38 C35 1.404 1_545 S
C38 N36 1.334 . S
C39 H31 0.930 . S
C39 C34 1.418 1_565 S
C39 C35 1.353 . S
C40 H10 0.930 . S
C40 N41 1.330 . S
C40 C42 1.446 . S
N41 Co0 2.151 . S
N41 C40 1.330 . S
N41 C45 1.418 . S
C42 H21 0.929 . S
C42 C40 1.446 . S
C42 C43 1.332 . S
C43 H23 0.931 . S
C43 C42 1.332 . S
C43 C44 1.267 . S
C44 H12 0.929 . S
C44 C43 1.267 . S
C44 C45 1.251 . S
C45 H15 0.929 . S
C45 N41 1.418 . S
C45 C44 1.251 . S
C46 H13 0.930 . S
C46 C48 1.406 . S
C46 C51 1.261 . S
C47 H14 0.930 . S
C47 N49 1.325 . S
C47 C50 1.357 . S
C48 H16 0.928 . S
C48 C46 1.406 . S
C48 N49 1.261 . S
N49 Co0 2.214 . S
N49 C47 1.325 . S
N49 C48 1.261 . S
C50 H20 0.931 . S
C50 C47 1.357 . S
C50 C51 1.312 . S
C51 H22 0.930 . S
C51 C46 1.261 . S
C51 C50 1.312 . S
C52 O24 1.214 . S
C52 O32 1.234 . S
C53 H25 0.929 . S
C53 C56 1.391 . S
C53 C58 1.391 1_565 S
C54 H26 0.929 . S
C54 C55 1.390 . S
C54 N57 1.391 1_565 S
C55 H27 0.930 . S
C55 C54 1.390 . S
C55 C56 1.392 . S
C56 H28 0.929 . S
C56 C53 1.391 . S
C56 C55 1.392 . S
N57 Co1 2.256 1_455 S
N57 C54 1.391 1_545 S
N57 C58 1.388 . S
C58 H29 0.930 1_455 S
C58 C53 1.391 1_545 S
C58 N57 1.388 . S
Co59 O61 2.143 . S
Co59 O67 2.074 . S
Co59 O70 2.093 . S
Co59 O83 2.097 . S
Co59 N100 2.151 . S
Co59 N108 2.214 . S
Co60 O61 2.160 . S
Co60 O66 2.058 . S
Co60 O76 2.057 . S
Co60 O91 2.037 . S
Co60 N95 2.145 . S
Co60 N116 2.257 . S
O61 Co59 2.143 . S
O61 Co60 2.160 . S
C62 O63 1.278 . S
C62 O70 1.224 . S
O63 C62 1.278 . S
C64 O65 1.245 . S
C64 O76 1.232 . S
O65 C64 1.245 . S
O66 Co60 2.058 . S
O66 C92 1.269 . S
O67 Co59 2.074 . S
O67 C92 1.257 . S
H68 C93 0.930 . S
H69 C99 0.930 . S
O70 Co59 2.093 . S
O70 C62 1.224 . S
H71 C103 0.929 . S
H72 C105 0.930 . S
H73 C106 0.930 . S
H74 C104 0.929 . S
H75 C107 0.928 . S
O76 Co60 2.057 . S
O76 C64 1.232 . S
H77 C96 0.929 . S
H78 C97 0.929 . S
H79 C109 0.931 . S
H80 C101 0.929 . S
H81 C110 0.930 . S
H82 C102 0.931 . S
O83 Co59 2.097 . S
O83 C111 1.214 . S
H84 C112 0.929 . S
H85 C113 0.929 . S
H86 C114 0.930 . S
H87 C115 0.929 . S
H88 C117 0.930 . S
H89 C94 0.930 . S
H90 C98 0.930 . S
O91 Co60 2.037 . S
O91 C111 1.234 . S
C92 O66 1.269 . S
C92 O67 1.257 . S
C93 H68 0.930 . S
C93 C96 1.388 . S
C93 C98 1.418 1_545 S
C94 H89 0.930 . S
C94 C97 1.404 1_565 S
C94 C98 1.353 . S
N95 Co60 2.145 . S
N95 C96 1.397 . S
N95 C97 1.334 . S
C96 H77 0.929 . S
C96 C93 1.388 . S
C96 N95 1.397 . S
C97 H78 0.929 . S
C97 C94 1.404 1_545 S
C97 N95 1.334 . S
C98 H90 0.930 . S
C98 C93 1.418 1_565 S
C98 C94 1.353 . S
C99 H69 0.930 . S
C99 N100 1.330 . S
C99 C101 1.446 . S
N100 Co59 2.151 . S
N100 C99 1.330 . S
N100 C104 1.418 . S
C101 H80 0.929 . S
C101 C99 1.446 . S
C101 C102 1.332 . S
C102 H82 0.931 . S
C102 C101 1.332 . S
C102 C103 1.267 . S
C103 H71 0.929 . S
C103 C102 1.267 . S
C103 C104 1.251 . S
C104 H74 0.929 . S
C104 N100 1.418 . S
C104 C103 1.251 . S
C105 H72 0.930 . S
C105 C107 1.406 . S
C105 C110 1.261 . S
C106 H73 0.930 . S
C106 N108 1.325 . S
C106 C109 1.357 . S
C107 H75 0.928 . S
C107 C105 1.406 . S
C107 N108 1.261 . S
N108 Co59 2.214 . S
N108 C106 1.325 . S
N108 C107 1.261 . S
C109 H79 0.931 . S
C109 C106 1.357 . S
C109 C110 1.312 . S
C110 H81 0.930 . S
C110 C105 1.261 . S
C110 C109 1.312 . S
C111 O83 1.214 . S
C111 O91 1.234 . S
C112 H84 0.929 . S
C112 C115 1.391 . S
C112 C117 1.391 1_565 S
C113 H85 0.929 . S
C113 C114 1.390 . S
C113 N116 1.391 1_565 S
C114 H86 0.930 . S
C114 C113 1.390 . S
C114 C115 1.392 . S
C115 H87 0.929 . S
C115 C112 1.391 . S
C115 C114 1.392 . S
N116 Co60 2.257 . S
N116 C113 1.391 1_545 S
N116 C117 1.388 . S
C117 H88 0.930 . S
C117 C112 1.391 1_545 S
C117 N116 1.388 . S
Co118 O120 2.143 . S
Co118 O126 2.074 . S
Co118 O129 2.093 . S
Co118 O142 2.097 . S
Co118 N159 2.151 . S
Co118 N167 2.214 . S
Co119 O120 2.158 1_455 S
Co119 O125 2.059 . S
Co119 O135 2.059 . S
Co119 O150 2.035 1_455 S
Co119 N154 2.146 . S
Co119 N175 2.256 1_455 S
O120 Co118 2.143 . S
O120 Co119 2.158 1_655 S
C121 O122 1.278 . S
C121 O129 1.224 . S
O122 C121 1.278 . S
C123 O124 1.245 . S
C123 O135 1.232 . S
O124 C123 1.245 . S
O125 Co119 2.059 . S
O125 C151 1.269 1_455 S
O126 Co118 2.074 . S
O126 C151 1.257 . S
H127 C152 0.930 . S
H128 C158 0.930 . S
O129 Co118 2.093 . S
O129 C121 1.224 . S
H130 C162 0.929 . S
H131 C164 0.930 . S
H132 C165 0.930 . S
H133 C163 0.929 . S
H134 C166 0.928 . S
O135 Co119 2.059 . S
O135 C123 1.232 . S
H136 C155 0.929 1_655 S
H137 C156 0.929 . S
H138 C168 0.931 . S
H139 C160 0.929 . S
H140 C169 0.930 . S
H141 C161 0.931 . S
O142 Co118 2.097 . S
O142 C170 1.214 . S
H143 C171 0.929 . S
H144 C172 0.929 . S
H145 C173 0.930 . S
H146 C174 0.929 . S
H147 C176 0.930 1_455 S
H148 C153 0.930 . S
H149 C157 0.930 . S
O150 Co119 2.035 1_655 S
O150 C170 1.234 . S
C151 O125 1.269 1_655 S
C151 O126 1.257 . S
C152 H127 0.930 . S
C152 C155 1.388 . S
C152 C157 1.418 1_565 S
C153 H148 0.930 . S
C153 C156 1.404 1_545 S
C153 C157 1.353 . S
N154 Co119 2.146 . S
N154 C155 1.397 . S
N154 C156 1.334 . S
C155 H136 0.929 1_455 S
C155 C152 1.388 . S
C155 N154 1.397 . S
C156 H137 0.929 . S
C156 C153 1.404 1_565 S
C156 N154 1.334 . S
C157 H149 0.930 . S
C157 C152 1.418 1_545 S
C157 C153 1.353 . S
C158 H128 0.930 . S
C158 N159 1.330 . S
C158 C160 1.446 . S
N159 Co118 2.151 . S
N159 C158 1.330 . S
N159 C163 1.418 . S
C160 H139 0.929 . S
C160 C158 1.446 . S
C160 C161 1.332 . S
C161 H141 0.931 . S
C161 C160 1.332 . S
C161 C162 1.267 . S
C162 H130 0.929 . S
C162 C161 1.267 . S
C162 C163 1.251 . S
C163 H133 0.929 . S
C163 N159 1.418 . S
C163 C162 1.251 . S
C164 H131 0.930 . S
C164 C166 1.406 . S
C164 C169 1.261 . S
C165 H132 0.930 . S
C165 N167 1.325 . S
C165 C168 1.357 . S
C166 H134 0.928 . S
C166 C164 1.406 . S
C166 N167 1.261 . S
N167 Co118 2.214 . S
N167 C165 1.325 . S
N167 C166 1.261 . S
C168 H138 0.931 . S
C168 C165 1.357 . S
C168 C169 1.312 . S
C169 H140 0.930 . S
C169 C164 1.261 . S
C169 C168 1.312 . S
C170 O142 1.214 . S
C170 O150 1.234 . S
C171 H143 0.929 . S
C171 C174 1.391 . S
C171 C176 1.391 1_545 S
C172 H144 0.929 . S
C172 C173 1.390 . S
C172 N175 1.391 1_545 S
C173 H145 0.930 . S
C173 C172 1.390 . S
C173 C174 1.392 . S
C174 H146 0.929 . S
C174 C171 1.391 . S
C174 C173 1.392 . S
N175 Co119 2.256 1_655 S
N175 C172 1.391 1_565 S
N175 C176 1.388 . S
C176 H147 0.930 1_655 S
C176 C171 1.391 1_565 S
C176 N175 1.388 . S
Co177 O179 2.143 . S
Co177 O185 2.074 . S
Co177 O188 2.093 . S
Co177 O201 2.097 . S
Co177 N218 2.151 . S
Co177 N226 2.214 . S
Co178 O179 2.160 . S
Co178 O184 2.058 . S
Co178 O194 2.057 . S
Co178 O209 2.037 . S
Co178 N213 2.145 . S
Co178 N234 2.257 . S
O179 Co177 2.143 . S
O179 Co178 2.160 . S
C180 O181 1.278 . S
C180 O188 1.224 . S
O181 C180 1.278 . S
C182 O183 1.245 . S
C182 O194 1.232 . S
O183 C182 1.245 . S
O184 Co178 2.058 . S
O184 C210 1.269 . S
O185 Co177 2.074 . S
O185 C210 1.257 . S
H186 C211 0.930 . S
H187 C217 0.930 . S
O188 Co177 2.093 . S
O188 C180 1.224 . S
H189 C221 0.929 . S
H190 C223 0.930 . S
H191 C224 0.930 . S
H192 C222 0.929 . S
H193 C225 0.928 . S
O194 Co178 2.057 . S
O194 C182 1.232 . S
H195 C214 0.929 . S
H196 C215 0.929 . S
H197 C227 0.931 . S
H198 C219 0.929 . S
H199 C228 0.930 . S
H200 C220 0.931 . S
O201 Co177 2.097 . S
O201 C229 1.214 . S
H202 C230 0.929 . S
H203 C231 0.929 . S
H204 C232 0.930 . S
H205 C233 0.929 . S
H206 C235 0.930 . S
H207 C212 0.930 . S
H208 C216 0.930 . S
O209 Co178 2.037 . S
O209 C229 1.234 . S
C210 O184 1.269 . S
C210 O185 1.257 . S
C211 H186 0.930 . S
C211 C214 1.388 . S
C211 C216 1.418 1_565 S
C212 H207 0.930 . S
C212 C215 1.404 1_545 S
C212 C216 1.353 . S
N213 Co178 2.145 . S
N213 C214 1.397 . S
N213 C215 1.334 . S
C214 H195 0.929 . S
C214 C211 1.388 . S
C214 N213 1.397 . S
C215 H196 0.929 . S
C215 C212 1.404 1_565 S
C215 N213 1.334 . S
C216 H208 0.930 . S
C216 C211 1.418 1_545 S
C216 C212 1.353 . S
C217 H187 0.930 . S
C217 N218 1.330 . S
C217 C219 1.446 . S
N218 Co177 2.151 . S
N218 C217 1.330 . S
N218 C222 1.418 . S
C219 H198 0.929 . S
C219 C217 1.446 . S
C219 C220 1.332 . S
C220 H200 0.931 . S
C220 C219 1.332 . S
C220 C221 1.267 . S
C221 H189 0.929 . S
C221 C220 1.267 . S
C221 C222 1.251 . S
C222 H192 0.929 . S
C222 N218 1.418 . S
C222 C221 1.251 . S
C223 H190 0.930 . S
C223 C225 1.406 . S
C223 C228 1.261 . S
C224 H191 0.930 . S
C224 N226 1.325 . S
C224 C227 1.357 . S
C225 H193 0.928 . S
C225 C223 1.406 . S
C225 N226 1.261 . S
N226 Co177 2.214 . S
N226 C224 1.325 . S
N226 C225 1.261 . S
C227 H197 0.931 . S
C227 C224 1.357 . S
C227 C228 1.312 . S
C228 H199 0.930 . S
C228 C223 1.261 . S
C228 C227 1.312 . S
C229 O201 1.214 . S
C229 O209 1.234 . S
C230 H202 0.929 . S
C230 C233 1.391 . S
C230 C235 1.391 1_545 S
C231 H203 0.929 . S
C231 C232 1.390 . S
C231 N234 1.391 1_545 S
C232 H204 0.930 . S
C232 C231 1.390 . S
C232 C233 1.392 . S
C233 H205 0.929 . S
C233 C230 1.391 . S
C233 C232 1.392 . S
N234 Co178 2.257 . S
N234 C231 1.391 1_565 S
N234 C235 1.388 . S
C235 H206 0.930 . S
C235 C230 1.391 1_565 S
C235 N234 1.388 . S
Co236 O238 2.143 . S
Co236 O244 2.074 . S
Co236 O247 2.093 . S
Co236 O260 2.097 . S
Co236 N277 2.151 . S
Co236 N285 2.214 . S
Co237 O238 2.160 . S
Co237 O243 2.058 . S
Co237 O253 2.057 . S
Co237 O268 2.037 . S
Co237 N272 2.145 . S
Co237 N293 2.257 . S
O238 Co236 2.143 . S
O238 Co237 2.160 . S
C239 O240 1.278 . S
C239 O247 1.224 . S
O240 C239 1.278 . S
C241 O242 1.245 . S
C241 O253 1.232 . S
O242 C241 1.245 . S
O243 Co237 2.058 . S
O243 C269 1.269 . S
O244 Co236 2.074 . S
O244 C269 1.257 . S
H245 C270 0.930 . S
H246 C276 0.930 . S
O247 Co236 2.093 . S
O247 C239 1.224 . S
H248 C280 0.929 . S
H249 C282 0.930 . S
H250 C283 0.930 . S
H251 C281 0.929 . S
H252 C284 0.928 . S
O253 Co237 2.057 . S
O253 C241 1.232 . S
H254 C273 0.929 . S
H255 C274 0.929 . S
H256 C286 0.931 1_554 S
H257 C278 0.929 . S
H258 C287 0.930 . S
H259 C279 0.931 . S
O260 Co236 2.097 . S
O260 C288 1.214 . S
H261 C289 0.929 . S
H262 C290 0.929 . S
H263 C291 0.930 . S
H264 C292 0.929 . S
H265 C294 0.930 . S
H266 C271 0.930 . S
H267 C275 0.930 1_554 S
O268 Co237 2.037 . S
O268 C288 1.234 . S
C269 O243 1.269 . S
C269 O244 1.257 . S
C270 H245 0.930 . S
C270 C273 1.388 1_554 S
C270 C275 1.418 1_554 S
C271 H266 0.930 . S
C271 C274 1.404 . S
C271 C275 1.353 . S
N272 Co237 2.145 . S
N272 C273 1.397 . S
N272 C274 1.334 . S
C273 H254 0.929 . S
C273 C270 1.388 1_556 S
C273 N272 1.397 . S
C274 H255 0.929 . S
C274 C271 1.404 . S
C274 N272 1.334 . S
C275 H267 0.930 1_556 S
C275 C270 1.418 1_556 S
C275 C271 1.353 . S
C276 H246 0.930 . S
C276 N277 1.330 . S
C276 C278 1.446 1_565 S
N277 Co236 2.151 . S
N277 C276 1.330 . S
N277 C281 1.418 1_565 S
C278 H257 0.929 . S
C278 C276 1.446 1_545 S
C278 C279 1.332 . S
C279 H259 0.931 . S
C279 C278 1.332 . S
C279 C280 1.267 . S
C280 H248 0.929 . S
C280 C279 1.267 . S
C280 C281 1.251 . S
C281 H251 0.929 . S
C281 N277 1.418 1_545 S
C281 C280 1.251 . S
C282 H249 0.930 . S
C282 C284 1.406 . S
C282 C287 1.261 . S
C283 H250 0.930 . S
C283 N285 1.325 . S
C283 C286 1.357 1_565 S
C284 H252 0.928 . S
C284 C282 1.406 . S
C284 N285 1.261 1_545 S
N285 Co236 2.214 . S
N285 C283 1.325 . S
N285 C284 1.261 1_565 S
C286 H256 0.931 1_556 S
C286 C283 1.357 1_545 S
C286 C287 1.312 . S
C287 H258 0.930 . S
C287 C282 1.261 . S
C287 C286 1.312 . S
C288 O260 1.214 . S
C288 O268 1.234 . S
C289 H261 0.929 . S
C289 C292 1.391 . S
C289 C294 1.391 . S
C290 H262 0.929 . S
C290 C291 1.390 . S
C290 N293 1.391 . S
C291 H263 0.930 . S
C291 C290 1.390 . S
C291 C292 1.392 . S
C292 H264 0.929 . S
C292 C289 1.391 . S
C292 C291 1.392 . S
N293 Co237 2.257 . S
N293 C290 1.391 . S
N293 C294 1.388 . S
C294 H265 0.930 . S
C294 C289 1.391 . S
C294 N293 1.388 . S
Co295 O297 2.143 . S
Co295 O303 2.074 . S
Co295 O306 2.093 . S
Co295 O319 2.097 . S
Co295 N336 2.151 . S
Co295 N344 2.214 . S
Co296 O297 2.158 1_455 S
Co296 O302 2.059 . S
Co296 O312 2.059 . S
Co296 O327 2.035 1_455 S
Co296 N331 2.146 . S
Co296 N352 2.256 1_455 S
O297 Co295 2.143 . S
O297 Co296 2.158 1_655 S
C298 O299 1.278 . S
C298 O306 1.224 . S
O299 C298 1.278 . S
C300 O301 1.245 . S
C300 O312 1.232 . S
O301 C300 1.245 . S
O302 Co296 2.059 . S
O302 C328 1.269 1_455 S
O303 Co295 2.074 . S
O303 C328 1.257 . S
H304 C329 0.930 . S
H305 C335 0.930 . S
O306 Co295 2.093 . S
O306 C298 1.224 . S
H307 C339 0.929 . S
H308 C341 0.930 . S
H309 C342 0.930 . S
H310 C340 0.929 . S
H311 C343 0.928 . S
O312 Co296 2.059 . S
O312 C300 1.232 . S
H313 C332 0.929 1_655 S
H314 C333 0.929 . S
H315 C345 0.931 1_556 S
H316 C337 0.929 . S
H317 C346 0.930 . S
H318 C338 0.931 . S
O319 Co295 2.097 . S
O319 C347 1.214 . S
H320 C348 0.929 . S
H321 C349 0.929 . S
H322 C350 0.930 . S
H323 C351 0.929 . S
H324 C353 0.930 1_455 S
H325 C330 0.930 . S
H326 C334 0.930 1_556 S
O327 Co296 2.035 1_655 S
O327 C347 1.234 . S
C328 O302 1.269 1_655 S
C328 O303 1.257 . S
C329 H304 0.930 . S
C329 C332 1.388 1_556 S
C329 C334 1.418 1_556 S
C330 H325 0.930 . S
C330 C333 1.404 . S
C330 C334 1.353 . S
N331 Co296 2.146 . S
N331 C332 1.397 . S
N331 C333 1.334 . S
C332 H313 0.929 1_455 S
C332 C329 1.388 1_554 S
C332 N331 1.397 . S
C333 H314 0.929 . S
C333 C330 1.404 . S
C333 N331 1.334 . S
C334 H326 0.930 1_554 S
C334 C329 1.418 1_554 S
C334 C330 1.353 . S
C335 H305 0.930 . S
C335 N336 1.330 . S
C335 C337 1.446 1_565 S
N336 Co295 2.151 . S
N336 C335 1.330 . S
N336 C340 1.418 1_565 S
C337 H316 0.929 . S
C337 C335 1.446 1_545 S
C337 C338 1.332 . S
C338 H318 0.931 . S
C338 C337 1.332 . S
C338 C339 1.267 . S
C339 H307 0.929 . S
C339 C338 1.267 . S
C339 C340 1.251 . S
C340 H310 0.929 . S
C340 N336 1.418 1_545 S
C340 C339 1.251 . S
C341 H308 0.930 . S
C341 C343 1.406 . S
C341 C346 1.261 . S
C342 H309 0.930 . S
C342 N344 1.325 . S
C342 C345 1.357 1_565 S
C343 H311 0.928 . S
C343 C341 1.406 . S
C343 N344 1.261 1_545 S
N344 Co295 2.214 . S
N344 C342 1.325 . S
N344 C343 1.261 1_565 S
C345 H315 0.931 1_554 S
C345 C342 1.357 1_545 S
C345 C346 1.312 . S
C346 H317 0.930 . S
C346 C341 1.261 . S
C346 C345 1.312 . S
C347 O319 1.214 . S
C347 O327 1.234 . S
C348 H320 0.929 . S
C348 C351 1.391 . S
C348 C353 1.391 . S
C349 H321 0.929 . S
C349 C350 1.390 . S
C349 N352 1.391 . S
C350 H322 0.930 . S
C350 C349 1.390 . S
C350 C351 1.392 . S
C351 H323 0.929 . S
C351 C348 1.391 . S
C351 C350 1.392 . S
N352 Co296 2.256 1_655 S
N352 C349 1.391 . S
N352 C353 1.388 . S
C353 H324 0.930 1_655 S
C353 C348 1.391 . S
C353 N352 1.388 . S
Co354 O356 2.143 . S
Co354 O362 2.074 . S
Co354 O365 2.093 . S
Co354 O378 2.097 . S
Co354 N395 2.151 . S
Co354 N403 2.214 . S
Co355 O356 2.160 . S
Co355 O361 2.058 . S
Co355 O371 2.057 . S
Co355 O386 2.037 . S
Co355 N390 2.145 . S
Co355 N411 2.257 . S
O356 Co354 2.143 . S
O356 Co355 2.160 . S
C357 O358 1.278 . S
C357 O365 1.224 . S
O358 C357 1.278 . S
C359 O360 1.245 . S
C359 O371 1.232 . S
O360 C359 1.245 . S
O361 Co355 2.058 . S
O361 C387 1.269 . S
O362 Co354 2.074 . S
O362 C387 1.257 . S
H363 C388 0.930 . S
H364 C394 0.930 . S
O365 Co354 2.093 . S
O365 C357 1.224 . S
H366 C398 0.929 . S
H367 C400 0.930 . S
H368 C401 0.930 . S
H369 C399 0.929 . S
H370 C402 0.928 . S
O371 Co355 2.057 . S
O371 C359 1.232 . S
H372 C391 0.929 . S
H373 C392 0.929 . S
H374 C404 0.931 1_556 S
H375 C396 0.929 . S
H376 C405 0.930 . S
H377 C397 0.931 . S
O378 Co354 2.097 . S
O378 C406 1.214 . S
H379 C407 0.929 . S
H380 C408 0.929 . S
H381 C409 0.930 . S
H382 C410 0.929 . S
H383 C412 0.930 . S
H384 C389 0.930 . S
H385 C393 0.930 1_556 S
O386 Co355 2.037 . S
O386 C406 1.234 . S
C387 O361 1.269 . S
C387 O362 1.257 . S
C388 H363 0.930 . S
C388 C391 1.388 1_556 S
C388 C393 1.418 1_556 S
C389 H384 0.930 . S
C389 C392 1.404 . S
C389 C393 1.353 . S
N390 Co355 2.145 . S
N390 C391 1.397 . S
N390 C392 1.334 . S
C391 H372 0.929 . S
C391 C388 1.388 1_554 S
C391 N390 1.397 . S
C392 H373 0.929 . S
C392 C389 1.404 . S
C392 N390 1.334 . S
C393 H385 0.930 1_554 S
C393 C388 1.418 1_554 S
C393 C389 1.353 . S
C394 H364 0.930 . S
C394 N395 1.330 . S
C394 C396 1.446 1_545 S
N395 Co354 2.151 . S
N395 C394 1.330 . S
N395 C399 1.418 1_545 S
C396 H375 0.929 . S
C396 C394 1.446 1_565 S
C396 C397 1.332 . S
C397 H377 0.931 . S
C397 C396 1.332 . S
C397 C398 1.267 . S
C398 H366 0.929 . S
C398 C397 1.267 . S
C398 C399 1.251 . S
C399 H369 0.929 . S
C399 N395 1.418 1_565 S
C399 C398 1.251 . S
C400 H367 0.930 . S
C400 C402 1.406 . S
C400 C405 1.261 . S
C401 H368 0.930 . S
C401 N403 1.325 . S
C401 C404 1.357 1_545 S
C402 H370 0.928 . S
C402 C400 1.406 . S
C402 N403 1.261 1_565 S
N403 Co354 2.214 . S
N403 C401 1.325 . S
N403 C402 1.261 1_545 S
C404 H374 0.931 1_554 S
C404 C401 1.357 1_565 S
C404 C405 1.312 . S
C405 H376 0.930 . S
C405 C400 1.261 . S
C405 C404 1.312 . S
C406 O378 1.214 . S
C406 O386 1.234 . S
C407 H379 0.929 . S
C407 C410 1.391 . S
C407 C412 1.391 . S
C408 H380 0.929 . S
C408 C409 1.390 . S
C408 N411 1.391 . S
C409 H381 0.930 . S
C409 C408 1.390 . S
C409 C410 1.392 . S
C410 H382 0.929 . S
C410 C407 1.391 . S
C410 C409 1.392 . S
N411 Co355 2.257 . S
N411 C408 1.391 . S
N411 C412 1.388 . S
C412 H383 0.930 . S
C412 C407 1.391 . S
C412 N411 1.388 . S
Co413 O415 2.143 . S
Co413 O421 2.074 . S
Co413 O424 2.093 . S
Co413 O437 2.097 . S
Co413 N454 2.151 . S
Co413 N462 2.214 . S
Co414 O415 2.158 1_655 S
Co414 O420 2.059 . S
Co414 O430 2.059 . S
Co414 O445 2.035 1_655 S
Co414 N449 2.146 . S
Co414 N470 2.256 1_655 S
O415 Co413 2.143 . S
O415 Co414 2.158 1_455 S
C416 O417 1.278 . S
C416 O424 1.224 . S
O417 C416 1.278 . S
C418 O419 1.245 . S
C418 O430 1.232 . S
O419 C418 1.245 . S
O420 Co414 2.059 . S
O420 C446 1.269 1_655 S
O421 Co413 2.074 . S
O421 C446 1.257 . S
H422 C447 0.930 . S
H423 C453 0.930 . S
O424 Co413 2.093 . S
O424 C416 1.224 . S
H425 C457 0.929 . S
H426 C459 0.930 . S
H427 C460 0.930 . S
H428 C458 0.929 . S
H429 C461 0.928 . S
O430 Co414 2.059 . S
O430 C418 1.232 . S
H431 C450 0.929 1_455 S
H432 C451 0.929 . S
H433 C463 0.931 1_554 S
H434 C455 0.929 . S
H435 C464 0.930 . S
H436 C456 0.931 . S
O437 Co413 2.097 . S
O437 C465 1.214 . S
H438 C466 0.929 . S
H439 C467 0.929 . S
H440 C468 0.930 . S
H441 C469 0.929 . S
H442 C471 0.930 1_655 S
H443 C448 0.930 . S
H444 C452 0.930 1_554 S
O445 Co414 2.035 1_455 S
O445 C465 1.234 . S
C446 O420 1.269 1_455 S
C446 O421 1.257 . S
C447 H422 0.930 . S
C447 C450 1.388 1_554 S
C447 C452 1.418 1_554 S
C448 H443 0.930 . S
C448 C451 1.404 . S
C448 C452 1.353 . S
N449 Co414 2.146 . S
N449 C450 1.397 . S
N449 C451 1.334 . S
C450 H431 0.929 1_655 S
C450 C447 1.388 1_556 S
C450 N449 1.397 . S
C451 H432 0.929 . S
C451 C448 1.404 . S
C451 N449 1.334 . S
C452 H444 0.930 1_556 S
C452 C447 1.418 1_556 S
C452 C448 1.353 . S
C453 H423 0.930 . S
C453 N454 1.330 . S
C453 C455 1.446 1_545 S
N454 Co413 2.151 . S
N454 C453 1.330 . S
N454 C458 1.418 1_545 S
C455 H434 0.929 . S
C455 C453 1.446 1_565 S
C455 C456 1.332 . S
C456 H436 0.931 . S
C456 C455 1.332 . S
C456 C457 1.267 . S
C457 H425 0.929 . S
C457 C456 1.267 . S
C457 C458 1.251 . S
C458 H428 0.929 . S
C458 N454 1.418 1_565 S
C458 C457 1.251 . S
C459 H426 0.930 . S
C459 C461 1.406 . S
C459 C464 1.261 . S
C460 H427 0.930 . S
C460 N462 1.325 . S
C460 C463 1.357 1_545 S
C461 H429 0.928 . S
C461 C459 1.406 . S
C461 N462 1.261 1_565 S
N462 Co413 2.214 . S
N462 C460 1.325 . S
N462 C461 1.261 1_545 S
C463 H433 0.931 1_556 S
C463 C460 1.357 1_565 S
C463 C464 1.312 . S
C464 H435 0.930 . S
C464 C459 1.261 . S
C464 C463 1.312 . S
C465 O437 1.214 . S
C465 O445 1.234 . S
C466 H438 0.929 . S
C466 C469 1.391 . S
C466 C471 1.391 . S
C467 H439 0.929 . S
C467 C468 1.390 . S
C467 N470 1.391 . S
C468 H440 0.930 . S
C468 C467 1.390 . S
C468 C469 1.392 . S
C469 H441 0.929 . S
C469 C466 1.391 . S
C469 C468 1.392 . S
N470 Co414 2.256 1_455 S
N470 C467 1.391 . S
N470 C471 1.388 . S
C471 H442 0.930 1_455 S
C471 C466 1.391 . S
C471 N470 1.388 . S
C472 C473 1.363 1_655 S
C472 C478 1.379 . S
C472 N480 1.356 . S
C473 C472 1.363 1_455 S
C473 C479 1.363 . S
C474 C475 1.363 1_455 S
C474 C479 1.379 . S
C474 N481 1.356 . S
C475 C474 1.363 1_655 S
C475 C478 1.363 . S
N476 C478 1.356 . S
N476 H488 0.984 . S
N476 H489 0.985 . S
N477 C479 1.356 . S
N477 H482 0.984 . S
N477 H483 0.985 . S
C478 C472 1.379 . S
C478 C475 1.363 . S
C478 N476 1.356 . S
C479 C473 1.363 . S
C479 C474 1.379 . S
C479 N477 1.356 . S
N480 C472 1.356 . S
N480 H486 0.984 . S
N480 H487 0.984 . S
N481 C474 1.356 . S
N481 H484 0.984 . S
N481 H485 0.985 . S
H482 N477 0.984 . S
H483 N477 0.985 . S
H484 N481 0.984 . S
H485 N481 0.985 . S
H486 N480 0.984 . S
H487 N480 0.984 . S
H488 N476 0.984 . S
H489 N476 0.985 . S
C490 C491 1.363 . S
C490 C496 1.379 . S
C490 N498 1.356 . S
C491 C490 1.363 . S
C491 C497 1.363 . S
C492 C493 1.363 . S
C492 C497 1.379 . S
C492 N499 1.356 . S
C493 C492 1.363 . S
C493 C496 1.363 . S
N494 C496 1.356 . S
N494 H506 0.984 . S
N494 H507 0.985 . S
N495 C497 1.356 . S
N495 H500 0.984 . S
N495 H501 0.985 . S
C496 C490 1.379 . S
C496 C493 1.363 . S
C496 N494 1.356 . S
C497 C491 1.363 . S
C497 C492 1.379 . S
C497 N495 1.356 . S
N498 C490 1.356 . S
N498 H504 0.984 . S
N498 H505 0.984 . S
N499 C492 1.356 . S
N499 H502 0.984 . S
N499 H503 0.985 . S
H500 N495 0.984 . S
H501 N495 0.985 . S
H502 N499 0.984 . S
H503 N499 0.985 . S
H504 N498 0.984 . S
H505 N498 0.984 . S
H506 N494 0.984 . S
H507 N494 0.985 . S
C508 C509 1.363 1_565 S
C508 C514 1.379 . S
C508 N516 1.356 . S
C509 C508 1.363 1_545 S
C509 C515 1.363 1_554 S
C510 C511 1.363 1_545 S
C510 C515 1.379 . S
C510 N517 1.356 . S
C511 C510 1.363 1_565 S
C511 C514 1.363 1_556 S
N512 C514 1.356 1_556 S
N512 H524 0.984 1_556 S
N512 H525 0.985 . S
N513 C515 1.356 1_554 S
N513 H518 0.984 . S
N513 H519 0.985 1_554 S
C514 C508 1.379 . S
C514 C511 1.363 1_554 S
C514 N512 1.356 1_554 S
C515 C509 1.363 1_556 S
C515 C510 1.379 . S
C515 N513 1.356 1_556 S
N516 C508 1.356 . S
N516 H522 0.984 . S
N516 H523 0.984 . S
N517 C510 1.356 . S
N517 H520 0.984 . S
N517 H521 0.985 . S
H518 N513 0.984 . S
H519 N513 0.985 1_556 S
H520 N517 0.984 . S
H521 N517 0.985 . S
H522 N516 0.984 . S
H523 N516 0.984 . S
H524 N512 0.984 1_554 S
H525 N512 0.985 . S
C526 C527 1.363 1_455 S
C526 C532 1.379 1_554 S
C526 N534 1.356 . S
C527 C526 1.363 1_655 S
C527 C533 1.363 1_565 S
C528 C529 1.363 1_655 S
C528 C533 1.379 1_556 S
C528 N535 1.356 . S
C529 C528 1.363 1_455 S
C529 C532 1.363 1_545 S
N530 C532 1.356 . S
N530 H542 0.984 . S
N530 H543 0.985 . S
N531 C533 1.356 . S
N531 H536 0.984 . S
N531 H537 0.985 . S
C532 C526 1.379 1_556 S
C532 C529 1.363 1_565 S
C532 N530 1.356 . S
C533 C527 1.363 1_545 S
C533 C528 1.379 1_554 S
C533 N531 1.356 . S
N534 C526 1.356 . S
N534 H540 0.997 . S
N534 H541 0.984 . S
N535 C528 1.356 . S
N535 H538 0.984 . S
N535 H539 0.997 . S
H536 N531 0.984 . S
H537 N531 0.985 . S
H538 N535 0.984 . S
H539 N535 0.997 . S
H540 N534 0.997 . S
H541 N534 0.984 . S
H542 N530 0.984 . S
H543 N530 0.985 . S
C544 C545 1.363 . S
C544 C550 1.379 . S
C544 N552 1.356 . S
C545 C544 1.363 . S
C545 C551 1.363 . S
C546 C547 1.363 . S
C546 C551 1.379 . S
C546 N553 1.356 . S
C547 C546 1.363 . S
C547 C550 1.363 . S
N548 C550 1.356 . S
N548 H560 0.984 . S
N548 H561 0.985 . S
N549 C551 1.356 . S
N549 H554 0.984 . S
N549 H555 0.985 . S
C550 C544 1.379 . S
C550 C547 1.363 . S
C550 N548 1.356 . S
C551 C545 1.363 . S
C551 C546 1.379 . S
C551 N549 1.356 . S
N552 C544 1.356 . S
N552 H558 0.984 . S
N552 H559 0.984 . S
N553 C546 1.356 . S
N553 H556 0.984 . S
N553 H557 0.985 . S
H554 N549 0.984 . S
H555 N549 0.985 . S
H556 N553 0.984 . S
H557 N553 0.985 . S
H558 N552 0.984 . S
H559 N552 0.984 . S
H560 N548 0.984 . S
H561 N548 0.985 . S
C562 C563 1.363 . S
C562 C568 1.379 . S
C562 N570 1.356 . S
C563 C562 1.363 . S
C563 C569 1.363 . S
C564 C565 1.363 . S
C564 C569 1.379 . S
C564 N571 1.356 . S
C565 C564 1.363 . S
C565 C568 1.363 . S
N566 C568 1.356 . S
N566 H578 0.984 . S
N566 H579 0.985 . S
N567 C569 1.356 . S
N567 H572 0.984 . S
N567 H573 0.985 . S
C568 C562 1.379 . S
C568 C565 1.363 . S
C568 N566 1.356 . S
C569 C563 1.363 . S
C569 C564 1.379 . S
C569 N567 1.356 . S
N570 C562 1.356 . S
N570 H576 0.984 . S
N570 H577 0.984 . S
N571 C564 1.356 . S
N571 H574 0.984 . S
N571 H575 0.985 . S
H572 N567 0.984 . S
H573 N567 0.985 . S
H574 N571 0.984 . S
H575 N571 0.985 . S
H576 N570 0.984 . S
H577 N570 0.984 . S
H578 N566 0.984 . S
H579 N566 0.985 . S
C580 C581 1.363 . S
C580 C586 1.379 . S
C580 N588 1.356 . S
C581 C580 1.363 . S
C581 C587 1.363 . S
C582 C583 1.363 . S
C582 C587 1.379 . S
C582 N589 1.356 . S
C583 C582 1.363 . S
C583 C586 1.363 . S
N584 C586 1.356 . S
N584 H596 0.984 . S
N584 H597 0.985 . S
N585 C587 1.356 . S
N585 H590 0.984 . S
N585 H591 0.985 . S
C586 C580 1.379 . S
C586 C583 1.363 . S
C586 N584 1.356 . S
C587 C581 1.363 . S
C587 C582 1.379 . S
C587 N585 1.356 . S
N588 C580 1.356 . S
N588 H594 0.984 . S
N588 H595 0.984 . S
N589 C582 1.356 . S
N589 H592 0.984 . S
N589 H593 0.985 . S
H590 N585 0.984 . S
H591 N585 0.985 . S
H592 N589 0.984 . S
H593 N589 0.985 . S
H594 N588 0.984 . S
H595 N588 0.984 . S
H596 N584 0.984 . S
H597 N584 0.985 . S
C598 C599 1.363 . S
C598 C604 1.379 . S
C598 N606 1.356 . S
C599 C598 1.363 . S
C599 C605 1.363 . S
C600 C601 1.363 . S
C600 C605 1.379 . S
C600 N607 1.356 . S
C601 C600 1.363 . S
C601 C604 1.363 . S
N602 C604 1.356 . S
N602 H614 0.984 . S
N602 H615 0.985 . S
N603 C605 1.356 . S
N603 H608 0.984 . S
N603 H609 0.985 . S
C604 C598 1.379 . S
C604 C601 1.363 . S
C604 N602 1.356 . S
C605 C599 1.363 . S
C605 C600 1.379 . S
C605 N603 1.356 . S
N606 C598 1.356 . S
N606 H612 0.984 . S
N606 H613 0.984 . S
N607 C600 1.356 . S
N607 H610 0.984 . S
N607 H611 0.985 . S
H608 N603 0.984 . S
H609 N603 0.985 . S
H610 N607 0.984 . S
H611 N607 0.985 . S
H612 N606 0.984 . S
H613 N606 0.984 . S
H614 N602 0.984 . S
H615 N602 0.985 . S
C616 C617 1.363 . S
C616 C622 1.379 . S
C616 N624 1.356 . S
C617 C616 1.363 . S
C617 C623 1.363 . S
C618 C619 1.363 . S
C618 C623 1.379 . S
C618 N625 1.356 . S
C619 C618 1.363 . S
C619 C622 1.363 . S
N620 C622 1.356 . S
N620 H632 0.984 . S
N620 H633 0.985 . S
N621 C623 1.356 . S
N621 H626 0.984 . S
N621 H627 0.985 . S
C622 C616 1.379 . S
C622 C619 1.363 . S
C622 N620 1.356 . S
C623 C617 1.363 . S
C623 C618 1.379 . S
C623 N621 1.356 . S
N624 C616 1.356 . S
N624 H630 0.984 . S
N624 H631 0.984 . S
N625 C618 1.356 . S
N625 H628 0.984 . S
N625 H629 0.985 . S
H626 N621 0.984 . S
H627 N621 0.985 . S
H628 N625 0.984 . S
H629 N625 0.985 . S
H630 N624 0.984 . S
H631 N624 0.984 . S
H632 N620 0.984 . S
H633 N620 0.985 . S
C634 C635 1.363 . S
C634 C640 1.379 . S
C634 N642 1.356 . S
C635 C634 1.363 . S
C635 C641 1.363 . S
C636 C637 1.363 . S
C636 C641 1.379 . S
C636 N643 1.356 . S
C637 C636 1.363 . S
C637 C640 1.363 . S
N638 C640 1.356 . S
N638 H650 0.984 . S
N638 H651 0.985 . S
N639 C641 1.356 . S
N639 H644 0.984 . S
N639 H645 0.985 . S
C640 C634 1.379 . S
C640 C637 1.363 . S
C640 N638 1.356 . S
C641 C635 1.363 . S
C641 C636 1.379 . S
C641 N639 1.356 . S
N642 C634 1.356 . S
N642 H648 0.984 . S
N642 H649 0.984 . S
N643 C636 1.356 . S
N643 H646 0.984 . S
N643 H647 0.985 . S
H644 N639 0.984 . S
H645 N639 0.985 . S
H646 N643 0.984 . S
H647 N643 0.985 . S
H648 N642 0.984 . S
H649 N642 0.984 . S
H650 N638 0.984 . S
H651 N638 0.985 . S
C652 C653 1.363 . S
C652 C658 1.379 . S
C652 N660 1.356 . S
C653 C652 1.363 . S
C653 C659 1.363 . S
C654 C655 1.363 . S
C654 C659 1.379 . S
C654 N661 1.356 . S
C655 C654 1.363 . S
C655 C658 1.363 . S
N656 C658 1.356 . S
N656 H668 0.984 . S
N656 H669 0.985 . S
N657 C659 1.356 . S
N657 H662 0.984 . S
N657 H663 0.985 . S
C658 C652 1.379 . S
C658 C655 1.363 . S
C658 N656 1.356 . S
C659 C653 1.363 . S
C659 C654 1.379 . S
C659 N657 1.356 . S
N660 C652 1.356 . S
N660 H666 0.984 . S
N660 H667 0.984 . S
N661 C654 1.356 . S
N661 H664 0.984 . S
N661 H665 0.985 . S
H662 N657 0.984 . S
H663 N657 0.985 . S
H664 N661 0.984 . S
H665 N661 0.985 . S
H666 N660 0.984 . S
H667 N660 0.984 . S
H668 N656 0.984 . S
H669 N656 0.985 . S
C670 C671 1.363 . S
C670 C676 1.379 . S
C670 N678 1.356 . S
C671 C670 1.363 . S
C671 C677 1.363 . S
C672 C673 1.363 . S
C672 C677 1.379 . S
C672 N679 1.356 . S
C673 C672 1.363 . S
C673 C676 1.363 . S
N674 C676 1.356 . S
N674 H686 0.984 . S
N674 H687 0.985 . S
N675 C677 1.356 . S
N675 H680 0.984 . S
N675 H681 0.985 . S
C676 C670 1.379 . S
C676 C673 1.363 . S
C676 N674 1.356 . S
C677 C671 1.363 . S
C677 C672 1.379 . S
C677 N675 1.356 . S
N678 C670 1.356 . S
N678 H684 0.984 . S
N678 H685 0.984 . S
N679 C672 1.356 . S
N679 H682 0.984 . S
N679 H683 0.985 . S
H680 N675 0.984 . S
H681 N675 0.985 . S
H682 N679 0.984 . S
H683 N679 0.985 . S
H684 N678 0.984 . S
H685 N678 0.984 . S
H686 N674 0.984 . S
H687 N674 0.985 . S
C688 C689 1.363 . S
C688 C694 1.379 . S
C688 N696 1.356 . S
C689 C688 1.363 . S
C689 C695 1.363 . S
C690 C691 1.363 . S
C690 C695 1.379 . S
C690 N697 1.356 . S
C691 C690 1.363 . S
C691 C694 1.363 . S
N692 C694 1.356 . S
N692 H704 0.984 1_545 S
N692 H705 0.985 . S
N693 C695 1.356 . S
N693 H698 0.984 . S
N693 H699 0.985 . S
C694 C688 1.379 . S
C694 C691 1.363 . S
C694 N692 1.356 . S
C695 C689 1.363 . S
C695 C690 1.379 . S
C695 N693 1.356 . S
N696 C688 1.356 . S
N696 H702 0.984 1_545 S
N696 H703 0.984 . S
N697 C690 1.356 . S
N697 H700 0.984 . S
N697 H701 0.985 . S
H698 N693 0.984 . S
H699 N693 0.985 . S
H700 N697 0.984 . S
H701 N697 0.985 . S
H702 N696 0.984 1_565 S
H703 N696 0.984 . S
H704 N692 0.984 1_565 S
H705 N692 0.985 . S
C706 C707 1.363 . S
C706 C712 1.379 . S
C706 N714 1.356 . S
C707 C706 1.363 . S
C707 C713 1.363 . S
C708 C709 1.363 . S
C708 C713 1.379 . S
C708 N715 1.356 . S
C709 C708 1.363 . S
C709 C712 1.363 . S
N710 C712 1.356 . S
N710 H722 0.984 . S
N710 H723 0.985 . S
N711 C713 1.356 . S
N711 H716 0.984 . S
N711 H717 0.985 1_565 S
C712 C706 1.379 . S
C712 C709 1.363 . S
C712 N710 1.356 . S
C713 C707 1.363 . S
C713 C708 1.379 . S
C713 N711 1.356 . S
N714 C706 1.356 . S
N714 H720 0.984 . S
N714 H721 0.984 . S
N715 C708 1.356 . S
N715 H718 0.984 . S
N715 H719 0.985 1_565 S
H716 N711 0.984 . S
H717 N711 0.985 1_545 S
H718 N715 0.984 . S
H719 N715 0.985 1_545 S
H720 N714 0.984 . S
H721 N714 0.984 . S
H722 N710 0.984 . S
H723 N710 0.985 . S
C724 C725 1.363 . S
C724 C730 1.379 1_554 S
C724 N732 1.356 . S
C725 C724 1.363 . S
C725 C731 1.363 . S
C726 C727 1.363 . S
C726 C731 1.379 1_556 S
C726 N733 1.356 . S
C727 C726 1.363 . S
C727 C730 1.363 . S
N728 C730 1.356 . S
N728 H740 0.984 1_556 S
N728 H741 0.985 . S
N729 C731 1.356 . S
N729 H734 0.984 . S
N729 H735 0.985 1_554 S
C730 C724 1.379 1_556 S
C730 C727 1.363 . S
C730 N728 1.356 . S
C731 C725 1.363 . S
C731 C726 1.379 1_554 S
C731 N729 1.356 . S
N732 C724 1.356 . S
N732 H738 0.984 . S
N732 H739 0.984 . S
N733 C726 1.356 . S
N733 H736 0.984 . S
N733 H737 0.985 . S
H734 N729 0.984 . S
H735 N729 0.985 1_556 S
H736 N733 0.984 . S
H737 N733 0.985 . S
H738 N732 0.984 . S
H739 N732 0.984 . S
H740 N728 0.984 1_554 S
H741 N728 0.985 . S
C742 C743 1.363 . S
C742 C748 1.379 1_554 S
C742 N750 1.356 . S
C743 C742 1.363 . S
C743 C749 1.363 . S
C744 C745 1.363 . S
C744 C749 1.379 1_556 S
C744 N751 1.356 . S
C745 C744 1.363 . S
C745 C748 1.363 . S
N746 C748 1.356 . S
N746 H758 0.984 . S
N746 H759 0.985 . S
N747 C749 1.356 . S
N747 H752 0.984 . S
N747 H753 0.985 . S
C748 C742 1.379 1_556 S
C748 C745 1.363 . S
C748 N746 1.356 . S
C749 C743 1.363 . S
C749 C744 1.379 1_554 S
C749 N747 1.356 . S
N750 C742 1.356 . S
N750 H756 0.984 1_554 S
N750 H757 0.984 . S
N751 C744 1.356 . S
N751 H754 0.984 . S
N751 H755 0.985 1_556 S
H752 N747 0.984 . S
H753 N747 0.985 . S
H754 N751 0.984 . S
H755 N751 0.985 1_554 S
H756 N750 0.984 1_556 S
H757 N750 0.984 . S
H758 N746 0.984 . S
H759 N746 0.985 . S
C473 C33 1.529 . S
C475 C151 1.529 . S
C491 C210 1.529 . S
C493 C92 1.529 . S
C509 C387 1.529 . S
C511 C269 1.529 . S
C527 C328 1.529 . S
C529 C446 1.529 . S
C545 C359 1.718 . S
C547 C5 1.718 . S
C563 C64 1.718 . S
C565 C418 1.718 . S
C581 C123 1.718 . S
C583 C241 1.718 . S
C599 C182 1.718 . S
C601 C300 1.718 . S
C617 C357 1.508 . S
C619 C3 1.508 . S
C635 C62 1.508 . S
C637 C416 1.508 . S
C653 C239 1.508 . S
C655 C121 1.508 . S
C671 C298 1.508 . S
C673 C180 1.508 . S
C689 C111 1.013 . S
C691 C52 1.013 . S
C707 C170 1.013 . S
C709 C229 1.013 . S
C725 C347 1.013 . S
C727 C288 1.013 . S
C743 C406 1.013 . S
C745 C465 1.013 . S
