# Generated by pormake.
# Topology vby, (6)-cn, num edge types: 1
# Building blocks:
#     Node 0, Type 0, BuildingBlock: GEDQOX_clean_sbu_0, # of connection points: 6
#     Node 1, Type 0, BuildingBlock: GEDQOX_clean_sbu_0, # of connection points: 6
#     Node 2, Type 0, BuildingBlock: GEDQOX_clean_sbu_0, # of connection points: 6
#     Node 3, Type 0, BuildingBlock: GEDQOX_clean_sbu_0, # of connection points: 6
#     Node 4, Type 0, BuildingBlock: GEDQOX_clean_sbu_0, # of connection points: 6
#     Node 5, Type 0, BuildingBlock: GEDQOX_clean_sbu_0, # of connection points: 6
#     Node 6, Type 0, BuildingBlock: GEDQOX_clean_sbu_0, # of connection points: 6
#     Node 7, Type 0, BuildingBlock: GEDQOX_clean_sbu_0, # of connection points: 6
#     Edge 8, Type (0, 0), BuildingBlock: OJICUG_clean_linker_0, # of connection points: 2
#     Edge 9, Type (0, 0), BuildingBlock: OJICUG_clean_linker_0, # of connection points: 2
#     Edge 10, Type (0, 0), BuildingBlock: OJICUG_clean_linker_0, # of connection points: 2
#     Edge 11, Type (0, 0), BuildingBlock: OJICUG_clean_linker_0, # of connection points: 2
#     Edge 12, Type (0, 0), BuildingBlock: OJICUG_clean_linker_0, # of connection points: 2
#     Edge 13, Type (0, 0), BuildingBlock: OJICUG_clean_linker_0, # of connection points: 2
#     Edge 14, Type (0, 0), BuildingBlock: OJICUG_clean_linker_0, # of connection points: 2
#     Edge 15, Type (0, 0), BuildingBlock: OJICUG_clean_linker_0, # of connection points: 2
#     Edge 16, Type (0, 0), BuildingBlock: OJICUG_clean_linker_0, # of connection points: 2
#     Edge 17, Type (0, 0), BuildingBlock: OJICUG_clean_linker_0, # of connection points: 2
#     Edge 18, Type (0, 0), BuildingBlock: OJICUG_clean_linker_0, # of connection points: 2
#     Edge 19, Type (0, 0), BuildingBlock: OJICUG_clean_linker_0, # of connection points: 2
#     Edge 20, Type (0, 0), BuildingBlock: OJICUG_clean_linker_0, # of connection points: 2
#     Edge 21, Type (0, 0), BuildingBlock: OJICUG_clean_linker_0, # of connection points: 2
#     Edge 22, Type (0, 0), BuildingBlock: OJICUG_clean_linker_0, # of connection points: 2
#     Edge 23, Type (0, 0), BuildingBlock: OJICUG_clean_linker_0, # of connection points: 2
#     Edge 24, Type (0, 0), BuildingBlock: OJICUG_clean_linker_0, # of connection points: 2
#     Edge 25, Type (0, 0), BuildingBlock: OJICUG_clean_linker_0, # of connection points: 2
#     Edge 26, Type (0, 0), BuildingBlock: OJICUG_clean_linker_0, # of connection points: 2
#     Edge 27, Type (0, 0), BuildingBlock: OJICUG_clean_linker_0, # of connection points: 2
#     Edge 28, Type (0, 0), BuildingBlock: OJICUG_clean_linker_0, # of connection points: 2
#     Edge 29, Type (0, 0), BuildingBlock: OJICUG_clean_linker_0, # of connection points: 2
#     Edge 30, Type (0, 0), BuildingBlock: OJICUG_clean_linker_0, # of connection points: 2
#     Edge 31, Type (0, 0), BuildingBlock: OJICUG_clean_linker_0, # of connection points: 2
# Relax obj value: 0.135
# Max RMSD: 0.229
# Mean RMSD: 0.225
data_MOF--net-vby--node1-GEDQOX_clean_sbu_0--edge1-OJICUG_clean_linker_0
_symmetry_space_group_name_H-M    P1
_symmetry_Int_Tables_number       1
_symmetry_cell_setting            triclinic
loop_
_symmetry_equiv_pos_as_xyz
'x, y, z'
_cell_length_a     21.102855
_cell_length_b     38.37741
_cell_length_c     19.892532
_cell_angle_alpha  93.605037
_cell_angle_beta   92.598029
_cell_angle_gamma 90.431174
loop_
_atom_site_label
_atom_site_type_symbol
_atom_site_fract_x
_atom_site_fract_y
_atom_site_fract_z
_atom_type_partial_charge
Nd0 Nd 0.18233 0.38395 0.09167 0.0
Nd1 Nd 0.06629 0.34249 0.08889 0.0
C2 C 0.29655 0.41234 0.08348 0.0
C3 C 0.3628 0.401 0.07997 0.0
C4 C 0.38086 0.36765 0.09814 0.0
C5 C 0.44442 0.35762 0.09671 0.0
C6 C 0.49111 0.38088 0.07723 0.0
C7 C 0.47238 0.41408 0.05792 0.0
C8 C 0.40881 0.42401 0.05929 0.0
C9 C 0.127 0.37957 0.21547 0.0
C10 C 0.19876 0.30053 0.08255 0.0
C11 C 0.95367 0.31621 0.11442 0.0
C12 C 0.88646 0.32515 0.10455 0.0
C13 C 0.86876 0.35757 0.08124 0.0
C14 C 0.80465 0.36618 0.07394 0.0
C15 C 0.75706 0.3425 0.08978 0.0
C16 C 0.77524 0.30975 0.11194 0.0
C17 C 0.83941 0.3012 0.11926 0.0
C18 C 0.10021 0.34896 0.95942 0.0
C19 C 0.06274 0.42963 0.07462 0.0
O20 O 0.25901 0.40382 1.03087 0.0
O21 O 0.26957 0.40836 0.14035 0.0
O22 O 0.14758 0.40831 0.19288 0.0
O23 O 0.13652 0.35446 0.17321 0.0
O24 O 0.22242 0.33048 0.06786 0.0
O25 O 0.13938 0.2978 0.10069 0.0
O26 O 0.98739 0.33665 0.15741 0.0
O27 O 0.98372 0.30765 0.06004 0.0
O28 O 0.08354 0.31989 0.98374 0.0
O29 O 0.10534 0.37339 1.00589 0.0
O30 O 1.03046 0.40097 0.08748 0.0
O31 O 0.12332 0.42881 0.06463 0.0
H32 H 0.34591 0.34964 0.11439 0.0
H33 H 0.45716 0.332 0.11254 0.0
H34 H 0.50688 0.43242 0.04163 0.0
H35 H 0.39564 0.44981 0.04474 0.0
H36 H 0.90452 0.37627 0.06908 0.0
H37 H 0.79235 0.39137 0.05571 0.0
H38 H 0.73998 0.29103 0.12517 0.0
H39 H 0.85232 0.276 0.13715 0.0
Nd40 Nd 0.90073 0.61696 0.98309 0.0
Nd41 Nd 1.01668 0.65411 1.01476 0.0
C42 C 0.78516 0.59333 0.94462 0.0
C43 C 0.71901 0.60342 0.95624 0.0
C44 C 0.70519 0.63392 0.99526 0.0
C45 C 0.64208 0.64339 1.00524 0.0
C46 C 0.59145 0.6223 0.97691 0.0
C47 C 0.60594 0.59153 0.93843 0.0
C48 C 0.669 0.58229 0.9281 0.0
C49 C 0.93559 0.62572 0.12115 0.0
C50 C 0.88787 0.69895 1.00971 0.0
C51 C 0.13108 0.67662 0.06097 0.0
C52 C 0.19787 0.66985 0.0457 0.0
C53 C 0.21476 0.63945 1.00806 0.0
C54 C 0.27851 0.63272 0.99578 0.0
C55 C 0.32676 0.65629 1.02081 0.0
C56 C 0.30934 0.68696 0.05786 0.0
C57 C 0.24553 0.69365 0.07009 0.0
C58 C 0.99824 0.64527 0.87629 0.0
C59 C 1.00947 0.56732 0.99916 0.0
O60 O 0.81806 0.61417 0.90972 0.0
O61 O 0.8179 0.58241 0.99631 0.0
O62 O 0.91506 0.59649 0.09167 0.0
O63 O 0.93535 0.6484 0.07869 0.0
O64 O 0.87047 0.67295 0.96696 0.0
O65 O 0.94274 0.69677 0.04433 0.0
O66 O 0.10028 0.65112 0.08576 0.0
O67 O 0.09678 0.69232 1.01599 0.0
O68 O 1.01101 0.67465 0.90975 0.0
O69 O 0.98795 0.62176 0.91701 0.0
O70 O 1.03517 0.59502 1.03377 0.0
O71 O 0.96245 0.57169 0.95571 0.0
H72 H 0.74326 0.65039 1.01796 0.0
H73 H 0.63308 0.66744 1.03453 0.0
H74 H 0.56856 0.57423 0.9169 0.0
H75 H 0.6787 0.55849 0.89825 0.0
H76 H 0.17867 0.62072 0.98875 0.0
H77 H 0.29007 0.60868 0.96776 0.0
H78 H 0.34498 0.70594 0.07707 0.0
H79 H 0.23344 0.71736 0.09898 0.0
Nd80 Nd 0.0591 0.657 0.51711 0.0
Nd81 Nd 0.17013 0.61694 0.49363 0.0
C82 C 0.94878 0.68123 0.55841 0.0
C83 C 0.88019 0.67249 0.54836 0.0
C84 C 0.85413 0.64305 0.57616 0.0
C85 C 0.78915 0.63558 0.56797 0.0
C86 C 0.74844 0.65732 0.5319 0.0
C87 C 0.77458 0.68672 0.504 0.0
C88 C 0.83963 0.69426 0.51236 0.0
C89 C 0.07417 0.6473 0.38024 0.0
C90 C 0.05459 0.57051 0.49405 0.0
C91 C 0.28285 0.59098 0.46572 0.0
C92 C 0.35026 0.60203 0.4764 0.0
C93 C 0.37323 0.63262 0.45007 0.0
C94 C 0.43715 0.64243 0.46008 0.0
C95 C 0.47973 0.62185 0.49652 0.0
C96 C 0.45656 0.5913 0.52297 0.0
C97 C 0.39261 0.58151 0.5129 0.0
C98 C 0.13645 0.6255 0.62861 0.0
C99 C 0.19137 0.6986 0.51118 0.0
O100 O 0.98405 0.65967 0.59141 0.0
O101 O 0.97748 0.69322 0.50768 0.0
O102 O 0.06371 0.67708 0.41193 0.0
O103 O 0.08267 0.62394 0.42204 0.0
O104 O 1.03279 0.59797 0.52956 0.0
O105 O 0.10234 0.57471 0.45589 0.0
O106 O 0.24767 0.60798 0.42332 0.0
O107 O 0.25275 0.58369 0.51913 0.0
O108 O 0.15174 0.59588 0.59908 0.0
O109 O 0.14048 0.64891 0.58746 0.0
O110 O 0.20414 0.67114 0.47233 0.0
O111 O 0.1386 0.69875 0.5449 0.0
H112 H 0.88382 0.62569 0.60437 0.0
H113 H 0.77096 0.61245 0.58931 0.0
H114 H 0.74461 0.7042 0.47647 0.0
H115 H 0.85821 0.71724 0.49083 0.0
H116 H 0.34194 0.64899 0.42151 0.0
H117 H 0.4531 0.66632 0.43969 0.0
H118 H 0.4881 0.57457 0.55049 0.0
H119 H 0.37628 0.5577 0.53338 0.0
Nd120 Nd 0.9088 0.38061 0.5681 0.0
Nd121 Nd 1.02853 0.34426 0.55241 0.0
C122 C 0.79077 0.4025 0.57966 0.0
C123 C 0.72784 0.38905 0.59583 0.0
C124 C 0.70827 0.35487 0.57441 0.0
C125 C 0.64493 0.34445 0.57842 0.0
C126 C 0.59977 0.36797 0.6041 0.0
C127 C 0.62063 0.40142 0.62953 0.0
C128 C 0.68393 0.41187 0.6251 0.0
C129 C 0.95493 0.37686 0.43732 0.0
C130 C 0.89705 0.29896 0.56564 0.0
C131 C 0.13363 0.31045 0.52349 0.0
C132 C 0.20127 0.31695 0.54185 0.0
C133 C 0.22033 0.34763 0.57965 0.0
C134 C 0.28468 0.35495 0.594 0.0
C135 C 0.33139 0.33175 0.57073 0.0
C136 C 0.31193 0.30061 0.5341 0.0
C137 C 0.24736 0.29333 0.51965 0.0
C138 C 1.01796 0.36976 0.68365 0.0
C139 C 1.0235 0.42975 0.56853 0.0
O140 O 0.83436 0.40756 0.62841 0.0
O141 O 0.81332 0.38915 0.52381 0.0
O142 O 0.93315 0.40485 0.46744 0.0
O143 O 0.95184 0.3524 0.47626 0.0
O144 O 0.87609 0.32776 0.59414 0.0
O145 O 0.95327 0.29853 0.53826 0.0
O146 O 0.10712 0.33304 0.48459 0.0
O147 O 0.09789 0.30255 0.57262 0.0
O148 O 0.06728 0.37327 0.64866 0.0
O149 O 0.97326 0.35446 0.64756 0.0
O150 O 0.04897 0.40285 0.53421 0.0
O151 O 0.97363 0.42501 0.6038 0.0
H152 H 0.7412 0.33675 0.55138 0.0
H153 H 0.63088 0.31859 0.55798 0.0
H154 H 0.58764 0.41997 0.65114 0.0
H155 H 0.69797 0.43832 0.64199 0.0
H156 H 0.18544 0.36622 0.59718 0.0
H157 H 0.2979 0.37893 0.62304 0.0
H158 H 0.34667 0.28243 0.51475 0.0
H159 H 0.23349 0.26964 0.49004 0.0
Nd160 Nd 0.68198 0.88353 0.09026 0.0
Nd161 Nd 0.56593 0.8426 0.08742 0.0
C162 C 0.79692 0.91109 0.08314 0.0
C163 C 0.86256 0.89918 0.07633 0.0
C164 C 0.88127 0.86617 0.09591 0.0
C165 C 0.94462 0.85597 0.0924 0.0
C166 C 0.9904 0.87867 0.06926 0.0
C167 C 0.97084 0.91136 0.04795 0.0
C168 C 0.90753 0.9215 0.05154 0.0
C169 C 0.62667 0.87924 0.21415 0.0
C170 C 0.69776 0.80042 0.0798 0.0
C171 C 0.45328 0.81644 0.11303 0.0
C172 C 0.38606 0.82466 0.10067 0.0
C173 C 0.36824 0.85593 0.07265 0.0
C174 C 0.30407 0.86406 0.06345 0.0
C175 C 0.2566 0.84103 0.08211 0.0
C176 C 0.27493 0.80931 0.10877 0.0
C177 C 0.33915 0.80124 0.11799 0.0
C178 C 0.59932 0.84903 0.95777 0.0
C179 C 0.56326 0.92987 0.07363 0.0
O180 O 0.75803 0.90509 1.03062 0.0
O181 O 0.77092 0.90528 0.13979 0.0
O182 O 0.64719 0.90795 0.19143 0.0
O183 O 0.63608 0.85412 0.17189 0.0
O184 O 0.72076 0.83013 0.0631 0.0
O185 O 0.63912 0.79804 0.10025 0.0
O186 O 0.48573 0.83816 0.15476 0.0
O187 O 0.4846 0.80665 0.06017 0.0
O188 O 0.58236 0.82002 0.98209 0.0
O189 O 0.60498 0.87341 1.00428 0.0
O190 O 0.53051 0.90117 0.08529 0.0
O191 O 0.62405 0.92903 0.06484 0.0
H192 H 0.84713 0.84861 0.11517 0.0
H193 H 0.958 0.83075 0.10977 0.0
H194 H 1.00456 0.92924 1.02875 0.0
H195 H 0.89383 0.947 1.03577 0.0
H196 H 0.40394 0.87418 0.05844 0.0
H197 H 0.29163 0.88843 0.0418 0.0
H198 H 0.23974 0.79114 0.12425 0.0
H199 H 0.35218 0.77691 0.13953 0.0
Nd200 Nd 0.40137 0.11733 0.98158 0.0
Nd201 Nd 0.51753 0.15447 1.01341 0.0
C202 C 0.28578 0.09419 0.94214 0.0
C203 C 0.21963 0.10448 0.95318 0.0
C204 C 0.16985 0.08629 0.91717 0.0
C205 C 0.10674 0.09534 0.92757 0.0
C206 C 0.09199 0.12289 0.97426 0.0
C207 C 0.14232 0.14137 1.00977 0.0
C208 C 0.20552 0.13216 0.99948 0.0
C209 C 0.43646 0.12577 0.11961 0.0
C210 C 0.38835 0.19919 1.0097 0.0
C211 C 0.63189 0.17706 0.05974 0.0
C212 C 0.69861 0.17066 0.04386 0.0
C213 C 0.74722 0.19105 0.07727 0.0
C214 C 0.81095 0.18418 0.06489 0.0
C215 C 0.82735 0.15669 1.0188 0.0
C216 C 0.7781 0.13676 0.98451 0.0
C217 C 0.71444 0.14367 0.99694 0.0
C218 C 0.49898 0.14571 0.87492 0.0
C219 C 0.51009 0.06762 0.9977 0.0
O220 O 0.31919 0.1149 0.9075 0.0
O221 O 0.31803 0.0831 0.99404 0.0
O222 O 0.41551 0.09664 0.09006 0.0
O223 O 0.43628 0.14851 0.0773 0.0
O224 O 0.37091 0.17339 0.96656 0.0
O225 O 0.44349 0.19697 0.04382 0.0
O226 O 0.60165 0.15111 0.08367 0.0
O227 O 0.59715 0.19297 1.01543 0.0
O228 O 0.51189 0.17507 0.90841 0.0
O229 O 0.48865 0.12222 0.91563 0.0
O230 O 0.53596 0.09534 1.03216 0.0
O231 O 0.46293 0.07197 0.95441 0.0
H232 H 0.17979 0.06495 0.88099 0.0
H233 H 0.06945 0.08089 0.89852 0.0
H234 H 0.13288 0.16251 0.0465 0.0
H235 H 0.24338 0.14644 1.028 0.0
H236 H 0.73594 0.21201 0.11371 0.0
H237 H 0.84735 0.19989 0.09271 0.0
H238 H 0.78869 0.11582 0.94781 0.0
H239 H 0.67754 0.12775 0.97035 0.0
Nd240 Nd 0.55997 0.15698 0.51531 0.0
Nd241 Nd 0.67104 0.11688 0.49234 0.0
C242 C 0.44953 0.18128 0.55606 0.0
C243 C 0.38103 0.17234 0.54604 0.0
C244 C 0.35553 0.1423 0.57217 0.0
C245 C 0.29059 0.13469 0.56406 0.0
C246 C 0.24939 0.15689 0.52968 0.0
C247 C 0.27501 0.18686 0.50334 0.0
C248 C 0.34001 0.19454 0.51164 0.0
C249 C 0.57544 0.14714 0.37854 0.0
C250 C 0.55532 0.0705 0.49261 0.0
C251 C 0.78368 0.09072 0.46473 0.0
C252 C 0.85112 0.10168 0.47524 0.0
C253 C 0.87379 0.1327 0.45032 0.0
C254 C 0.93776 0.14244 0.46016 0.0
C255 C 0.98068 0.12135 0.49502 0.0
C256 C 0.95778 0.09038 0.52009 0.0
C257 C 0.89378 0.08066 0.5102 0.0
C258 C 0.63701 0.12559 0.62718 0.0
C259 C 0.69232 0.19858 0.50983 0.0
O260 O 0.4849 0.15998 0.58958 0.0
O261 O 0.47817 0.19302 0.50508 0.0
O262 O 0.56507 0.17697 0.4101 0.0
O263 O 0.58376 0.12381 0.42045 0.0
O264 O 0.53345 0.09801 0.52791 0.0
O265 O 0.60326 0.07462 0.45467 0.0
O266 O 0.74858 0.10764 0.42214 0.0
O267 O 0.75359 0.08366 0.51827 0.0
O268 O 0.65231 0.09593 0.5978 0.0
O269 O 0.64116 0.14894 0.58596 0.0
O270 O 0.70535 0.17107 0.4712 0.0
O271 O 0.63937 0.19876 0.54322 0.0
H272 H 0.38562 0.12457 0.59902 0.0
H273 H 0.2728 0.11112 0.58414 0.0
H274 H 0.24467 0.20469 0.47711 0.0
H275 H 0.35822 0.21795 0.49134 0.0
H276 H 0.84222 0.14945 0.423 0.0
H277 H 0.95348 0.16666 0.44089 0.0
H278 H 0.98958 0.07327 0.54637 0.0
H279 H 0.87765 0.05653 0.52959 0.0
Nd280 Nd 0.40786 0.8807 0.56636 0.0
Nd281 Nd 0.52755 0.84429 0.55112 0.0
C282 C 0.28973 0.90253 0.57727 0.0
C283 C 0.22681 0.88918 0.59372 0.0
C284 C 0.20731 0.8549 0.57309 0.0
C285 C 0.14397 0.84451 0.57724 0.0
C286 C 0.09874 0.86817 0.60226 0.0
C287 C 0.11953 0.90176 0.62691 0.0
C288 C 0.18283 0.91218 0.62236 0.0
C289 C 0.45423 0.87675 0.4357 0.0
C290 C 0.39615 0.7991 0.56525 0.0
C291 C 0.63261 0.81038 0.52248 0.0
C292 C 0.70025 0.81695 0.54072 0.0
C293 C 0.71935 0.84789 0.57761 0.0
C294 C 0.7837 0.85526 0.59183 0.0
C295 C 0.83038 0.83184 0.56935 0.0
C296 C 0.81089 0.80043 0.53368 0.0
C297 C 0.74632 0.79311 0.51936 0.0
C298 C 0.51694 0.87004 0.68218 0.0
C299 C 0.52262 0.92981 0.56682 0.0
O300 O 0.33327 0.90796 0.62598 0.0
O301 O 0.31236 0.88882 0.52175 0.0
O302 O 0.43246 0.90478 0.46566 0.0
O303 O 0.45102 0.85234 0.47474 0.0
O304 O 0.37527 0.828 0.59339 0.0
O305 O 0.45229 0.79855 0.53769 0.0
O306 O 0.60605 0.83283 0.48331 0.0
O307 O 0.59693 0.80265 0.57176 0.0
O308 O 0.56629 0.87347 0.64717 0.0
O309 O 0.47223 0.85471 0.64614 0.0
O310 O 0.54815 0.90285 0.53273 0.0
O311 O 0.47258 0.92517 0.6019 0.0
H312 H 0.2403 0.83664 0.55054 0.0
H313 H 0.12997 0.81853 0.5574 0.0
H314 H 0.08646 0.92044 0.64799 0.0
H315 H 0.1968 0.93871 0.63862 0.0
H316 H 0.68447 0.86665 0.59452 0.0
H317 H 0.79693 0.87944 0.62016 0.0
H318 H 0.8456 0.78205 0.51498 0.0
H319 H 0.73241 0.76919 0.4905 0.0
C320 C 0.57793 0.33715 0.05758 0.0
C321 C 0.55927 0.37102 0.07895 0.0
H322 H 0.65484 0.30172 0.04307 0.0
C323 C 0.60624 0.39542 0.10313 0.0
H324 H 0.54307 0.31784 0.03789 0.0
C325 C 0.67019 0.3862 0.10613 0.0
C326 C 0.68893 0.35233 0.08501 0.0
H327 H 0.59352 0.42153 0.1212 0.0
H328 H 0.70485 0.40548 0.12644 0.0
C329 C 0.64201 0.32791 0.06056 0.0
C330 C 0.44217 0.65571 0.06034 0.0
C331 C 0.39488 0.64862 1.009 0.0
H332 H 0.54039 0.65251 0.09124 0.0
C333 C 0.41311 0.63359 0.94658 0.0
H334 H 0.42988 0.66684 0.10936 0.0
C335 C 0.47665 0.62551 0.93602 0.0
C336 C 0.5239 0.63206 0.98767 0.0
H337 H 0.37829 0.62834 0.90545 0.0
H338 H 0.48875 0.61435 0.88697 0.0
C339 C 0.50574 0.64749 0.04988 0.0
C340 C 0.64579 0.65361 0.46164 0.0
C341 C 0.67913 0.6492 0.52334 0.0
H342 H 0.55741 0.64806 0.40449 0.0
C343 C 0.64588 0.63646 0.57658 0.0
H344 H 0.66995 0.66291 0.41925 0.0
C345 C 0.5813 0.62789 0.56808 0.0
C346 C 0.54815 0.63188 0.50614 0.0
H347 H 0.66964 0.63335 0.62521 0.0
H348 H 0.55719 0.6184 0.61034 0.0
C349 C 0.58116 0.64507 0.45316 0.0
C350 C 0.5094 0.32449 0.60819 0.0
C351 C 0.53073 0.3587 0.59938 0.0
H352 H 0.42994 0.28915 0.60664 0.0
C353 C 0.48561 0.38387 0.58231 0.0
H354 H 0.54256 0.30447 0.62199 0.0
C355 C 0.42124 0.37513 0.57393 0.0
C356 C 0.39997 0.34091 0.582 0.0
H357 H 0.50011 0.41024 0.57334 0.0
H358 H 0.38825 0.39506 0.55924 0.0
C359 C 0.44481 0.31568 0.5994 0.0
C360 C 0.07734 0.83471 0.0519 0.0
C361 C 0.05865 0.86901 0.07004 0.0
H362 H 0.15438 0.79907 0.0403 0.0
C363 C 0.10571 0.89403 0.09079 0.0
H364 H 0.04241 0.81489 1.03489 0.0
C365 C 0.16971 0.885 0.09383 0.0
C366 C 0.18846 0.85068 0.07626 0.0
H367 H 0.09303 0.92051 0.10642 0.0
H368 H 0.20441 0.90478 0.11168 0.0
C369 C 0.14151 0.82564 0.05498 0.0
C370 C 1.00514 0.16678 0.99534 0.0
C371 C 1.0244 0.13182 0.98629 0.0
H372 H 0.92826 0.20211 1.01136 0.0
C373 C 0.97835 0.10526 0.98855 0.0
H374 H 1.03907 0.18794 0.99315 0.0
C375 C 0.91486 0.11336 0.99906 0.0
C376 C 0.89536 0.14828 1.00758 0.0
H377 H 0.9915 0.07804 0.98316 0.0
H378 H 0.88117 0.09211 1.00158 0.0
C379 C 0.94148 0.1749 1.00579 0.0
C380 C 0.14741 0.13505 0.57407 0.0
C381 C 0.18012 0.14867 0.52131 0.0
H382 H 0.05914 0.11631 0.60766 0.0
C383 C 0.14625 0.15392 0.46028 0.0
H384 H 0.1716 0.13127 0.62221 0.0
C385 C 0.08162 0.14537 0.45198 0.0
C386 C 0.04914 0.13133 0.50447 0.0
H387 H 0.16999 0.16391 0.41825 0.0
H388 H 0.05744 0.14903 0.40379 0.0
C389 C 0.08283 0.12647 0.56575 0.0
C390 C 0.94378 0.81593 0.59864 0.0
C391 C 0.89897 0.84103 0.58043 0.0
H392 H 0.04151 0.80487 0.62175 0.0
C393 C 0.92027 0.87514 0.57139 0.0
H394 H 0.92889 0.78949 0.60661 0.0
C395 C 0.98463 0.88391 0.57968 0.0
C396 C 1.02971 0.85888 0.59758 0.0
H397 H 0.88731 0.89495 0.55605 0.0
H398 H 0.99915 0.91018 0.56999 0.0
C399 C 1.00836 0.82478 0.60731 0.0
C400 C 0.99108 0.50261 0.98423 0.0
C401 C 1.02041 0.53156 1.02074 0.0
H402 H 0.97892 0.44684 0.975 0.0
C403 C 0.05389 0.52626 0.08169 0.0
H404 H 0.96404 0.50585 0.93749 0.0
C405 C 0.06047 0.4926 0.10388 0.0
C406 C 1.03358 0.46361 0.06587 0.0
H407 H 0.07566 0.54799 0.11189 0.0
H408 H 0.09009 0.48892 0.14879 0.0
C409 C 0.99777 0.4689 1.00654 0.0
C410 C 0.06488 0.47273 0.49255 0.0
C411 C 1.03677 0.46593 0.55277 0.0
H412 H 0.08863 0.51098 0.42451 0.0
C413 C 1.01106 0.49379 0.59197 0.0
H414 H 0.0842 0.45181 0.46086 0.0
C415 C 1.01306 0.52778 0.57102 0.0
C416 C 0.04073 0.53449 0.51043 0.0
H417 H 0.98859 0.48925 0.63858 0.0
H418 H 0.99458 0.54883 0.6031 0.0
C419 C 0.06625 0.50658 0.47124 0.0
C420 C 0.56174 0.99296 0.10226 0.0
C421 C 0.53443 0.96394 0.06464 0.0
H422 H 0.57717 0.04832 0.10989 0.0
C423 C 0.49816 0.96921 1.0056 0.0
H424 H 0.59166 0.9893 0.14697 0.0
C425 C 0.49141 0.0029 0.98318 0.0
C426 C 0.52113 0.03186 1.0193 0.0
H427 H 0.47893 0.94713 0.97437 0.0
H428 H 0.46398 0.00612 0.93668 0.0
C429 C 0.55509 0.02659 0.07997 0.0
C430 C 0.56665 0.00655 0.46988 0.0
C431 C 0.54109 0.03451 0.50889 0.0
H432 H 0.58418 0.95173 0.45959 0.0
C433 C 0.51292 0.02787 0.56923 0.0
H434 H 0.58939 0.0109 0.42333 0.0
C435 C 0.51048 0.99387 0.59013 0.0
C436 C 0.53622 0.96596 0.55112 0.0
H437 H 0.49439 0.04895 0.60117 0.0
H438 H 0.48764 0.98938 0.63655 0.0
C439 C 0.56482 0.97269 0.49113 0.0
C440 C 0.22872 0.24445 1.02251 0.0
C441 C 0.24158 0.27043 0.07401 0.0
H442 H 0.2654 0.20263 0.96011 0.0
C443 C 0.30303 0.27277 0.10483 0.0
H444 H 0.18249 0.24276 0.99641 0.0
C445 C 0.35114 0.25015 0.0837 0.0
C446 C 0.33908 0.22485 1.0305 0.0
H447 H 0.31437 0.29296 0.14412 0.0
H448 H 0.39784 0.25275 0.10852 0.0
C449 C 0.27692 0.22202 1.00083 0.0
C450 C 0.80076 0.77191 0.10472 0.0
C451 C 0.74038 0.77028 0.07139 0.0
H452 H 0.89501 0.75121 0.11134 0.0
C453 C 0.72918 0.7454 1.01758 0.0
H454 H 0.81101 0.79151 0.14542 0.0
C455 C 0.7778 0.72311 0.99658 0.0
C456 C 0.83871 0.72491 1.02931 0.0
H457 H 0.68399 0.74448 0.98935 0.0
H458 H 0.76757 0.70458 0.95407 0.0
C459 C 0.84925 0.74932 0.08435 0.0
C460 C 0.24405 0.74811 0.5821 0.0
C461 C 0.24302 0.72501 0.52473 0.0
H462 H 0.29489 0.78835 0.64155 0.0
C463 C 0.29613 0.72435 0.48381 0.0
H464 H 0.20477 0.7489 0.61536 0.0
C465 C 0.3486 0.7465 0.49936 0.0
C466 C 0.34903 0.77006 0.55602 0.0
H467 H 0.29703 0.70681 0.43909 0.0
H468 H 0.38737 0.74621 0.46547 0.0
C469 C 0.29643 0.77025 0.59762 0.0
C470 C 0.84948 0.24666 0.49874 0.0
C471 C 0.84991 0.26995 0.55582 0.0
H472 H 0.79787 0.20725 0.43774 0.0
C473 C 0.79728 0.26994 0.59735 0.0
H474 H 0.88826 0.24656 0.46488 0.0
C475 C 0.74491 0.24786 0.58141 0.0
C476 C 0.7439 0.22501 0.52368 0.0
H477 H 0.79573 0.28783 0.64159 0.0
H478 H 0.70563 0.24846 0.61467 0.0
C479 C 0.797 0.22456 0.48276 0.0
C480 C 0.05654 0.40937 0.29981 0.0
C481 C 0.08308 0.3784 0.2723 0.0
H482 H 0.99429 0.43304 0.37146 0.0
C483 C 0.06546 0.3466 0.29824 0.0
H484 H 0.06844 0.4343 0.28075 0.0
C485 C 1.02312 0.34593 0.35096 0.0
C486 C 0.99686 0.37698 0.3786 0.0
H487 H 0.08468 0.32225 0.278 0.0
H488 H 1.01124 0.32108 0.37039 0.0
C489 C 1.01364 0.40863 0.3517 0.0
C490 C 0.99584 0.66325 0.20986 0.0
C491 C 0.97241 0.62999 0.18699 0.0
H492 H 0.04737 0.69442 0.28724 0.0
C493 C 0.98721 0.60152 0.22598 0.0
H494 H 0.98605 0.68572 0.18087 0.0
C495 C 1.02326 0.60652 0.28735 0.0
C496 C 0.04511 0.6401 0.31089 0.0
H497 H 0.97069 0.57548 0.20928 0.0
H498 H 1.0323 0.58431 0.31728 0.0
C499 C 1.03157 0.66821 0.27073 0.0
C500 C 0.04562 0.60508 0.78492 0.0
C501 C 1.02732 0.63863 0.80925 0.0
H502 H 0.09485 0.57451 0.70936 0.0
C503 C 0.04463 0.6673 0.77283 0.0
H504 H 1.03385 0.58241 0.8119 0.0
C505 C 0.08042 0.66286 0.71524 0.0
C506 C 0.09985 0.62955 0.69146 0.0
H507 H 1.03177 0.69354 0.78987 0.0
H508 H 0.09309 0.68574 0.68929 0.0
C509 C 0.08138 0.6006 0.72664 0.0
C510 C 1.01118 0.33736 0.78841 0.0
C511 C 1.02889 0.36746 0.75733 0.0
H512 H 1.02155 0.30738 0.87509 0.0
C513 C 0.06932 0.39206 0.79369 0.0
H514 H 0.98147 0.31756 0.76118 0.0
C515 C 0.09239 0.38643 0.85946 0.0
C516 C 0.07704 0.35552 0.88947 0.0
H517 H 0.08467 0.41524 0.77029 0.0
H518 H 0.12342 0.40579 0.88612 0.0
C519 C 1.03542 0.3313 0.85335 0.0
C520 C 0.55641 0.90913 0.29856 0.0
C521 C 0.5827 0.87811 0.27094 0.0
H522 H 0.49427 0.93289 0.37021 0.0
C523 C 0.56472 0.84633 0.29667 0.0
H524 H 0.56859 0.93406 0.27965 0.0
C525 C 0.5223 0.84571 0.34934 0.0
C526 C 0.49629 0.87681 0.37709 0.0
H527 H 0.58371 0.82194 0.27632 0.0
H528 H 0.51015 0.82087 0.36864 0.0
C529 C 0.51342 0.90845 0.35036 0.0
C530 C 0.48788 0.10144 0.2245 0.0
C531 C 0.47343 0.12992 0.18539 0.0
H532 H 0.53278 0.0842 0.31589 0.0
C533 C 0.49733 0.16311 0.20809 0.0
H534 H 0.47099 0.07545 0.20794 0.0
C535 C 0.53317 0.16802 0.2689 0.0
C536 C 0.54634 0.13992 0.3092 0.0
H537 H 0.48783 0.18559 0.17904 0.0
H538 H 0.54932 0.19418 0.28526 0.0
C539 C 0.52403 0.10639 0.28584 0.0
C540 C 0.54547 0.16763 0.77139 0.0
C541 C 0.52801 0.13901 0.80787 0.0
H542 H 0.59397 0.18594 0.68776 0.0
C543 C 0.54611 0.10542 0.78358 0.0
H544 H 0.53276 0.1939 0.7884 0.0
C545 C 0.58183 0.10084 0.72529 0.0
C546 C 0.60043 0.12974 0.69003 0.0
H547 H 0.53423 0.08279 0.81061 0.0
H548 H 0.59515 0.07472 0.70806 0.0
C549 C 0.58119 0.16309 0.71376 0.0
C550 C 0.50977 0.83777 0.78703 0.0
C551 C 0.52788 0.86776 0.75585 0.0
H552 H 0.51985 0.8078 0.87373 0.0
C553 C 0.56869 0.89222 0.79211 0.0
H554 H 0.47975 0.81808 0.75989 0.0
C555 C 0.59178 0.88652 0.85783 0.0
C556 C 0.57606 0.8557 0.88791 0.0
H557 H 0.58433 0.91531 0.76863 0.0
H558 H 0.62313 0.90576 0.88439 0.0
C559 C 0.53402 0.83165 0.85193 0.0
loop_
_geom_bond_atom_site_label_1
_geom_bond_atom_site_label_2
_geom_bond_distance
_geom_bond_site_symmetry_2
_ccdc_geom_bond_type
Nd0 C2 2.836 . S
Nd0 O20 2.500 1_554 S
Nd0 O21 2.492 . S
Nd0 O22 2.487 . S
Nd0 O23 2.682 . S
Nd0 O24 2.410 . S
Nd0 O29 2.414 1_554 S
Nd0 O31 2.424 . S
Nd1 C11 2.836 . S
Nd1 O23 2.414 1_656 S
Nd1 O25 2.424 1_655 S
Nd1 O26 2.500 1_556 S
Nd1 O27 2.492 . S
Nd1 O28 2.486 1_655 S
Nd1 O29 2.682 1_655 S
Nd1 O30 2.410 . S
C2 Nd0 2.836 . S
C2 C3 1.498 . S
C2 O20 1.258 1_554 S
C2 O21 1.239 . S
C3 C2 1.498 . S
C3 C4 1.366 1_554 S
C3 C8 1.407 . S
C4 C3 1.366 1_556 S
C4 C5 1.392 . S
C4 H32 0.930 . S
C5 C4 1.392 . S
C5 C6 1.395 1_556 S
C5 H33 0.929 . S
C6 C5 1.395 1_554 S
C6 C7 1.356 . S
C7 C6 1.356 . S
C7 C8 1.384 . S
C7 H34 0.930 . S
C8 C3 1.407 . S
C8 C7 1.384 . S
C8 H35 0.929 . S
C9 O22 1.241 . S
C9 O23 1.273 . S
C10 O24 1.251 1_556 S
C10 O25 1.268 . S
C11 Nd1 2.836 . S
C11 C12 1.498 . S
C11 O26 1.258 1_556 S
C11 O27 1.239 . S
C12 C11 1.498 . S
C12 C13 1.366 1_556 S
C12 C17 1.407 . S
C13 C12 1.366 1_554 S
C13 C14 1.392 . S
C13 H36 0.930 . S
C14 C13 1.392 . S
C14 C15 1.398 . S
C14 H37 0.929 . S
C15 C14 1.398 . S
C15 C16 1.352 1_554 S
C16 C15 1.352 1_556 S
C16 C17 1.384 . S
C16 H38 0.930 . S
C17 C12 1.407 . S
C17 C16 1.384 . S
C17 H39 0.929 . S
C18 O28 1.244 . S
C18 O29 1.273 . S
C19 O30 1.251 1_554 S
C19 O31 1.268 1_655 S
O20 Nd0 2.500 1_556 S
O20 C2 1.258 1_556 S
O21 Nd0 2.492 . S
O21 C2 1.239 . S
O22 Nd0 2.487 . S
O22 C9 1.241 . S
O23 Nd0 2.682 . S
O23 Nd1 2.414 1_454 S
O23 C9 1.273 . S
O24 Nd0 2.410 . S
O24 C10 1.251 1_554 S
O25 Nd1 2.424 1_455 S
O25 C10 1.268 . S
O26 Nd1 2.500 1_554 S
O26 C11 1.258 1_554 S
O27 Nd1 2.492 . S
O27 C11 1.239 . S
O28 Nd1 2.486 1_455 S
O28 C18 1.244 . S
O29 Nd0 2.414 1_556 S
O29 Nd1 2.682 1_455 S
O29 C18 1.273 . S
O30 Nd1 2.410 . S
O30 C19 1.251 1_556 S
O31 Nd0 2.424 . S
O31 C19 1.268 1_455 S
H32 C4 0.930 . S
H33 C5 0.929 . S
H34 C7 0.930 . S
H35 C8 0.929 . S
H36 C13 0.930 . S
H37 C14 0.929 . S
H38 C16 0.930 . S
H39 C17 0.929 . S
Nd40 C42 2.836 1_554 S
Nd40 O60 2.500 1_554 S
Nd40 O61 2.492 . S
Nd40 O62 2.487 . S
Nd40 O63 2.682 . S
Nd40 O64 2.410 . S
Nd40 O69 2.414 1_554 S
Nd40 O71 2.424 . S
Nd41 C51 2.836 1_556 S
Nd41 O63 2.414 1_456 S
Nd41 O65 2.424 1_455 S
Nd41 O66 2.500 1_556 S
Nd41 O67 2.492 . S
Nd41 O68 2.487 1_455 S
Nd41 O69 2.682 1_455 S
Nd41 O70 2.410 . S
C42 Nd40 2.836 1_556 S
C42 C43 1.498 . S
C42 O60 1.258 . S
C42 O61 1.239 1_556 S
C43 C42 1.498 . S
C43 C44 1.366 . S
C43 C48 1.407 1_556 S
C44 C43 1.366 . S
C44 C45 1.392 . S
C44 H72 0.930 . S
C45 C44 1.392 . S
C45 C46 1.398 . S
C45 H73 0.929 . S
C46 C45 1.398 . S
C46 C47 1.352 1_556 S
C47 C46 1.352 1_554 S
C47 C48 1.384 . S
C47 H74 0.930 . S
C48 C43 1.407 1_554 S
C48 C47 1.384 . S
C48 H75 0.929 . S
C49 O62 1.241 . S
C49 O63 1.273 . S
C50 O64 1.251 . S
C50 O65 1.267 1_554 S
C51 Nd41 2.836 1_554 S
C51 C52 1.498 . S
C51 O66 1.258 . S
C51 O67 1.239 1_554 S
C52 C51 1.498 . S
C52 C53 1.366 . S
C52 C57 1.407 1_554 S
C53 C52 1.366 . S
C53 C54 1.392 . S
C53 H76 0.930 . S
C54 C53 1.392 . S
C54 C55 1.398 . S
C54 H77 0.929 . S
C55 C54 1.398 . S
C55 C56 1.352 1_554 S
C56 C55 1.352 1_556 S
C56 C57 1.384 . S
C56 H78 0.930 . S
C57 C52 1.407 1_556 S
C57 C56 1.384 . S
C57 H79 0.929 . S
C58 O68 1.241 . S
C58 O69 1.273 . S
C59 O70 1.243 1_554 S
C59 O71 1.272 1_455 S
O60 Nd40 2.500 1_556 S
O60 C42 1.258 . S
O61 Nd40 2.492 . S
O61 C42 1.239 1_554 S
O62 Nd40 2.487 . S
O62 C49 1.241 . S
O63 Nd40 2.682 . S
O63 Nd41 2.414 1_654 S
O63 C49 1.273 . S
O64 Nd40 2.410 . S
O64 C50 1.251 . S
O65 Nd41 2.424 1_655 S
O65 C50 1.267 1_556 S
O66 Nd41 2.500 1_554 S
O66 C51 1.258 . S
O67 Nd41 2.492 . S
O67 C51 1.239 1_556 S
O68 Nd41 2.487 1_655 S
O68 C58 1.241 . S
O69 Nd40 2.414 1_556 S
O69 Nd41 2.682 1_655 S
O69 C58 1.273 . S
O70 Nd41 2.410 . S
O70 C59 1.243 1_556 S
O71 Nd40 2.424 . S
O71 C59 1.272 1_655 S
H72 C44 0.930 . S
H73 C45 0.929 . S
H74 C47 0.930 . S
H75 C48 0.929 . S
H76 C53 0.930 . S
H77 C54 0.929 . S
H78 C56 0.930 . S
H79 C57 0.929 . S
Nd80 C82 2.836 . S
Nd80 O100 2.500 . S
Nd80 O101 2.492 . S
Nd80 O102 2.487 . S
Nd80 O103 2.682 1_655 S
Nd80 O104 2.410 . S
Nd80 O109 2.414 1_655 S
Nd80 O111 2.424 1_655 S
Nd81 C91 2.836 . S
Nd81 O103 2.414 . S
Nd81 O105 2.424 . S
Nd81 O106 2.500 . S
Nd81 O107 2.492 . S
Nd81 O108 2.487 . S
Nd81 O109 2.682 . S
Nd81 O110 2.410 . S
C82 Nd80 2.836 . S
C82 C83 1.498 . S
C82 O100 1.258 . S
C82 O101 1.239 . S
C83 C82 1.498 . S
C83 C84 1.366 . S
C83 C88 1.407 . S
C84 C83 1.366 . S
C84 C85 1.392 . S
C84 H112 0.930 . S
C85 C84 1.392 . S
C85 C86 1.398 . S
C85 H113 0.929 . S
C86 C85 1.398 . S
C86 C87 1.352 . S
C87 C86 1.352 . S
C87 C88 1.384 . S
C87 H114 0.930 . S
C88 C83 1.407 . S
C88 C87 1.384 . S
C88 H115 0.929 . S
C89 O102 1.241 1_455 S
C89 O103 1.273 . S
C90 O104 1.251 . S
C90 O105 1.268 1_655 S
C91 Nd81 2.836 . S
C91 C92 1.498 . S
C91 O106 1.258 . S
C91 O107 1.239 . S
C92 C91 1.498 . S
C92 C93 1.366 . S
C92 C97 1.407 . S
C93 C92 1.366 . S
C93 C94 1.392 . S
C93 H116 0.930 . S
C94 C93 1.392 . S
C94 C95 1.398 . S
C94 H117 0.929 . S
C95 C94 1.398 . S
C95 C96 1.352 . S
C96 C95 1.352 . S
C96 C97 1.384 . S
C96 H118 0.930 . S
C97 C92 1.407 . S
C97 C96 1.384 . S
C97 H119 0.929 . S
C98 O108 1.241 . S
C98 O109 1.273 . S
C99 O110 1.251 . S
C99 O111 1.268 . S
O100 Nd80 2.500 . S
O100 C82 1.258 . S
O101 Nd80 2.492 . S
O101 C82 1.239 . S
O102 Nd80 2.487 . S
O102 C89 1.241 1_655 S
O103 Nd80 2.682 1_455 S
O103 Nd81 2.414 . S
O103 C89 1.273 . S
O104 Nd80 2.410 . S
O104 C90 1.251 . S
O105 Nd81 2.424 . S
O105 C90 1.268 1_455 S
O106 Nd81 2.500 . S
O106 C91 1.258 . S
O107 Nd81 2.492 . S
O107 C91 1.239 . S
O108 Nd81 2.487 . S
O108 C98 1.241 . S
O109 Nd80 2.414 1_455 S
O109 Nd81 2.682 . S
O109 C98 1.273 . S
O110 Nd81 2.410 . S
O110 C99 1.251 . S
O111 Nd80 2.424 1_455 S
O111 C99 1.268 . S
H112 C84 0.930 . S
H113 C85 0.929 . S
H114 C87 0.930 . S
H115 C88 0.929 . S
H116 C93 0.930 . S
H117 C94 0.929 . S
H118 C96 0.930 . S
H119 C97 0.929 . S
Nd120 C122 2.836 . S
Nd120 O140 2.500 . S
Nd120 O141 2.492 . S
Nd120 O142 2.487 . S
Nd120 O143 2.682 . S
Nd120 O144 2.410 . S
Nd120 O149 2.414 . S
Nd120 O151 2.424 . S
Nd121 C131 2.836 . S
Nd121 O143 2.414 1_455 S
Nd121 O145 2.424 1_455 S
Nd121 O146 2.500 . S
Nd121 O147 2.492 . S
Nd121 O148 2.487 . S
Nd121 O149 2.682 1_455 S
Nd121 O150 2.410 . S
C122 Nd120 2.836 . S
C122 C123 1.498 . S
C122 O140 1.258 . S
C122 O141 1.239 . S
C123 C122 1.498 . S
C123 C124 1.366 . S
C123 C128 1.407 . S
C124 C123 1.366 . S
C124 C125 1.392 . S
C124 H152 0.930 . S
C125 C124 1.392 . S
C125 C126 1.398 . S
C125 H153 0.929 . S
C126 C125 1.398 . S
C126 C127 1.352 . S
C127 C126 1.352 . S
C127 C128 1.384 . S
C127 H154 0.930 . S
C128 C123 1.407 . S
C128 C127 1.384 . S
C128 H155 0.929 . S
C129 O142 1.241 . S
C129 O143 1.273 . S
C130 O144 1.251 . S
C130 O145 1.268 . S
C131 Nd121 2.836 . S
C131 C132 1.498 . S
C131 O146 1.258 . S
C131 O147 1.239 . S
C132 C131 1.498 . S
C132 C133 1.366 . S
C132 C137 1.407 . S
C133 C132 1.366 . S
C133 C134 1.392 . S
C133 H156 0.930 . S
C134 C133 1.392 . S
C134 C135 1.398 . S
C134 H157 0.929 . S
C135 C134 1.398 . S
C135 C136 1.352 . S
C136 C135 1.352 . S
C136 C137 1.384 . S
C136 H158 0.930 . S
C137 C132 1.407 . S
C137 C136 1.384 . S
C137 H159 0.929 . S
C138 O148 1.241 1_655 S
C138 O149 1.273 . S
C139 O150 1.251 . S
C139 O151 1.268 1_455 S
O140 Nd120 2.500 . S
O140 C122 1.258 . S
O141 Nd120 2.492 . S
O141 C122 1.239 . S
O142 Nd120 2.487 . S
O142 C129 1.241 . S
O143 Nd120 2.682 . S
O143 Nd121 2.414 1_655 S
O143 C129 1.273 . S
O144 Nd120 2.410 . S
O144 C130 1.251 . S
O145 Nd121 2.424 1_655 S
O145 C130 1.268 . S
O146 Nd121 2.500 . S
O146 C131 1.258 . S
O147 Nd121 2.492 . S
O147 C131 1.239 . S
O148 Nd121 2.487 . S
O148 C138 1.241 1_455 S
O149 Nd120 2.414 . S
O149 Nd121 2.682 1_655 S
O149 C138 1.273 . S
O150 Nd121 2.410 . S
O150 C139 1.251 . S
O151 Nd120 2.424 . S
O151 C139 1.268 1_655 S
H152 C124 0.930 . S
H153 C125 0.929 . S
H154 C127 0.930 . S
H155 C128 0.929 . S
H156 C133 0.930 . S
H157 C134 0.929 . S
H158 C136 0.930 . S
H159 C137 0.929 . S
Nd160 C162 2.836 . S
Nd160 O180 2.500 1_554 S
Nd160 O181 2.492 . S
Nd160 O182 2.487 . S
Nd160 O183 2.682 . S
Nd160 O184 2.410 . S
Nd160 O189 2.414 1_554 S
Nd160 O191 2.424 . S
Nd161 C171 2.836 . S
Nd161 O183 2.414 1_556 S
Nd161 O185 2.424 . S
Nd161 O186 2.500 1_556 S
Nd161 O187 2.492 . S
Nd161 O188 2.487 . S
Nd161 O189 2.682 . S
Nd161 O190 2.410 . S
C162 Nd160 2.836 . S
C162 C163 1.498 . S
C162 O180 1.258 1_554 S
C162 O181 1.239 . S
C163 C162 1.498 . S
C163 C164 1.366 1_554 S
C163 C168 1.407 . S
C164 C163 1.366 1_556 S
C164 C165 1.392 . S
C164 H192 0.930 . S
C165 C164 1.392 . S
C165 C166 1.395 1_556 S
C165 H193 0.929 . S
C166 C165 1.395 1_554 S
C166 C167 1.356 . S
C167 C166 1.356 . S
C167 C168 1.384 . S
C167 H194 0.930 . S
C168 C163 1.407 . S
C168 C167 1.384 . S
C168 H195 0.929 . S
C169 O182 1.241 . S
C169 O183 1.273 . S
C170 O184 1.251 1_556 S
C170 O185 1.268 . S
C171 Nd161 2.836 . S
C171 C172 1.498 . S
C171 O186 1.258 1_556 S
C171 O187 1.239 . S
C172 C171 1.498 . S
C172 C173 1.366 1_556 S
C172 C177 1.407 . S
C173 C172 1.366 1_554 S
C173 C174 1.392 . S
C173 H196 0.930 . S
C174 C173 1.392 . S
C174 C175 1.398 . S
C174 H197 0.929 . S
C175 C174 1.398 . S
C175 C176 1.352 1_554 S
C176 C175 1.352 1_556 S
C176 C177 1.384 . S
C176 H198 0.930 . S
C177 C172 1.407 . S
C177 C176 1.384 . S
C177 H199 0.929 . S
C178 O188 1.241 . S
C178 O189 1.273 . S
C179 O190 1.251 1_554 S
C179 O191 1.268 . S
O180 Nd160 2.500 1_556 S
O180 C162 1.258 1_556 S
O181 Nd160 2.492 . S
O181 C162 1.239 . S
O182 Nd160 2.487 . S
O182 C169 1.241 . S
O183 Nd160 2.682 . S
O183 Nd161 2.414 1_554 S
O183 C169 1.273 . S
O184 Nd160 2.410 . S
O184 C170 1.251 1_554 S
O185 Nd161 2.424 . S
O185 C170 1.268 . S
O186 Nd161 2.500 1_554 S
O186 C171 1.258 1_554 S
O187 Nd161 2.492 . S
O187 C171 1.239 . S
O188 Nd161 2.487 . S
O188 C178 1.241 . S
O189 Nd160 2.414 1_556 S
O189 Nd161 2.682 . S
O189 C178 1.273 . S
O190 Nd161 2.410 . S
O190 C179 1.251 1_556 S
O191 Nd160 2.424 . S
O191 C179 1.268 . S
H192 C164 0.930 . S
H193 C165 0.929 . S
H194 C167 0.930 . S
H195 C168 0.929 . S
H196 C173 0.930 . S
H197 C174 0.929 . S
H198 C176 0.930 . S
H199 C177 0.929 . S
Nd200 C202 2.836 1_554 S
Nd200 O220 2.500 1_554 S
Nd200 O221 2.492 . S
Nd200 O222 2.487 . S
Nd200 O223 2.682 . S
Nd200 O224 2.410 . S
Nd200 O229 2.414 1_554 S
Nd200 O231 2.424 . S
Nd201 C211 2.836 1_556 S
Nd201 O223 2.414 1_556 S
Nd201 O225 2.424 . S
Nd201 O226 2.500 1_556 S
Nd201 O227 2.492 . S
Nd201 O228 2.487 . S
Nd201 O229 2.682 . S
Nd201 O230 2.410 . S
C202 Nd200 2.836 1_556 S
C202 C203 1.498 . S
C202 O220 1.258 . S
C202 O221 1.239 1_556 S
C203 C202 1.498 . S
C203 C204 1.366 . S
C203 C208 1.407 1_556 S
C204 C203 1.366 . S
C204 C205 1.392 . S
C204 H232 0.930 . S
C205 C204 1.392 . S
C205 C206 1.398 . S
C205 H233 0.929 . S
C206 C205 1.398 . S
C206 C207 1.352 1_556 S
C207 C206 1.352 1_554 S
C207 C208 1.384 . S
C207 H234 0.930 . S
C208 C203 1.407 1_554 S
C208 C207 1.384 . S
C208 H235 0.929 . S
C209 O222 1.241 . S
C209 O223 1.273 . S
C210 O224 1.251 . S
C210 O225 1.267 1_554 S
C211 Nd201 2.836 1_554 S
C211 C212 1.498 . S
C211 O226 1.258 . S
C211 O227 1.239 1_554 S
C212 C211 1.498 . S
C212 C213 1.366 . S
C212 C217 1.407 1_554 S
C213 C212 1.366 . S
C213 C214 1.392 . S
C213 H236 0.930 . S
C214 C213 1.392 . S
C214 C215 1.398 . S
C214 H237 0.929 . S
C215 C214 1.398 . S
C215 C216 1.352 1_554 S
C216 C215 1.352 1_556 S
C216 C217 1.384 . S
C216 H238 0.930 . S
C217 C212 1.407 1_556 S
C217 C216 1.384 . S
C217 H239 0.929 . S
C218 O228 1.241 . S
C218 O229 1.273 . S
C219 O230 1.243 1_554 S
C219 O231 1.272 . S
O220 Nd200 2.500 1_556 S
O220 C202 1.258 . S
O221 Nd200 2.492 . S
O221 C202 1.239 1_554 S
O222 Nd200 2.487 . S
O222 C209 1.241 . S
O223 Nd200 2.682 . S
O223 Nd201 2.414 1_554 S
O223 C209 1.273 . S
O224 Nd200 2.410 . S
O224 C210 1.251 . S
O225 Nd201 2.424 . S
O225 C210 1.267 1_556 S
O226 Nd201 2.500 1_554 S
O226 C211 1.258 . S
O227 Nd201 2.492 . S
O227 C211 1.239 1_556 S
O228 Nd201 2.487 . S
O228 C218 1.241 . S
O229 Nd200 2.414 1_556 S
O229 Nd201 2.682 . S
O229 C218 1.273 . S
O230 Nd201 2.410 . S
O230 C219 1.243 1_556 S
O231 Nd200 2.424 . S
O231 C219 1.272 . S
H232 C204 0.930 . S
H233 C205 0.929 . S
H234 C207 0.930 . S
H235 C208 0.929 . S
H236 C213 0.930 . S
H237 C214 0.929 . S
H238 C216 0.930 . S
H239 C217 0.929 . S
Nd240 C242 2.836 . S
Nd240 O260 2.500 . S
Nd240 O261 2.492 . S
Nd240 O262 2.487 . S
Nd240 O263 2.682 . S
Nd240 O264 2.410 . S
Nd240 O269 2.414 . S
Nd240 O271 2.424 . S
Nd241 C251 2.836 . S
Nd241 O263 2.414 . S
Nd241 O265 2.424 . S
Nd241 O266 2.500 . S
Nd241 O267 2.492 . S
Nd241 O268 2.487 . S
Nd241 O269 2.682 . S
Nd241 O270 2.410 . S
C242 Nd240 2.836 . S
C242 C243 1.498 . S
C242 O260 1.258 . S
C242 O261 1.239 . S
C243 C242 1.498 . S
C243 C244 1.366 . S
C243 C248 1.407 . S
C244 C243 1.366 . S
C244 C245 1.392 . S
C244 H272 0.930 . S
C245 C244 1.392 . S
C245 C246 1.398 . S
C245 H273 0.929 . S
C246 C245 1.398 . S
C246 C247 1.352 . S
C247 C246 1.352 . S
C247 C248 1.384 . S
C247 H274 0.930 . S
C248 C243 1.407 . S
C248 C247 1.384 . S
C248 H275 0.929 . S
C249 O262 1.241 . S
C249 O263 1.273 . S
C250 O264 1.251 . S
C250 O265 1.268 . S
C251 Nd241 2.836 . S
C251 C252 1.498 . S
C251 O266 1.258 . S
C251 O267 1.239 . S
C252 C251 1.498 . S
C252 C253 1.366 . S
C252 C257 1.407 . S
C253 C252 1.366 . S
C253 C254 1.392 . S
C253 H276 0.930 . S
C254 C253 1.392 . S
C254 C255 1.398 . S
C254 H277 0.929 . S
C255 C254 1.398 . S
C255 C256 1.352 . S
C256 C255 1.352 . S
C256 C257 1.384 . S
C256 H278 0.930 . S
C257 C252 1.407 . S
C257 C256 1.384 . S
C257 H279 0.929 . S
C258 O268 1.241 . S
C258 O269 1.273 . S
C259 O270 1.251 . S
C259 O271 1.268 . S
O260 Nd240 2.500 . S
O260 C242 1.258 . S
O261 Nd240 2.492 . S
O261 C242 1.239 . S
O262 Nd240 2.487 . S
O262 C249 1.241 . S
O263 Nd240 2.682 . S
O263 Nd241 2.414 . S
O263 C249 1.273 . S
O264 Nd240 2.410 . S
O264 C250 1.251 . S
O265 Nd241 2.424 . S
O265 C250 1.268 . S
O266 Nd241 2.500 . S
O266 C251 1.258 . S
O267 Nd241 2.492 . S
O267 C251 1.239 . S
O268 Nd241 2.487 . S
O268 C258 1.241 . S
O269 Nd240 2.414 . S
O269 Nd241 2.682 . S
O269 C258 1.273 . S
O270 Nd241 2.410 . S
O270 C259 1.251 . S
O271 Nd240 2.424 . S
O271 C259 1.268 . S
H272 C244 0.930 . S
H273 C245 0.929 . S
H274 C247 0.930 . S
H275 C248 0.929 . S
H276 C253 0.930 . S
H277 C254 0.929 . S
H278 C256 0.930 . S
H279 C257 0.929 . S
Nd280 C282 2.836 . S
Nd280 O300 2.500 . S
Nd280 O301 2.492 . S
Nd280 O302 2.487 . S
Nd280 O303 2.682 . S
Nd280 O304 2.410 . S
Nd280 O309 2.414 . S
Nd280 O311 2.424 . S
Nd281 C291 2.836 . S
Nd281 O303 2.414 . S
Nd281 O305 2.424 . S
Nd281 O306 2.500 . S
Nd281 O307 2.492 . S
Nd281 O308 2.487 . S
Nd281 O309 2.682 . S
Nd281 O310 2.410 . S
C282 Nd280 2.836 . S
C282 C283 1.498 . S
C282 O300 1.258 . S
C282 O301 1.239 . S
C283 C282 1.498 . S
C283 C284 1.366 . S
C283 C288 1.407 . S
C284 C283 1.366 . S
C284 C285 1.392 . S
C284 H312 0.930 . S
C285 C284 1.392 . S
C285 C286 1.398 . S
C285 H313 0.929 . S
C286 C285 1.398 . S
C286 C287 1.352 . S
C287 C286 1.352 . S
C287 C288 1.384 . S
C287 H314 0.930 . S
C288 C283 1.407 . S
C288 C287 1.384 . S
C288 H315 0.929 . S
C289 O302 1.241 . S
C289 O303 1.273 . S
C290 O304 1.251 . S
C290 O305 1.268 . S
C291 Nd281 2.836 . S
C291 C292 1.498 . S
C291 O306 1.258 . S
C291 O307 1.239 . S
C292 C291 1.498 . S
C292 C293 1.366 . S
C292 C297 1.407 . S
C293 C292 1.366 . S
C293 C294 1.392 . S
C293 H316 0.930 . S
C294 C293 1.392 . S
C294 C295 1.398 . S
C294 H317 0.929 . S
C295 C294 1.398 . S
C295 C296 1.352 . S
C296 C295 1.352 . S
C296 C297 1.384 . S
C296 H318 0.930 . S
C297 C292 1.407 . S
C297 C296 1.384 . S
C297 H319 0.929 . S
C298 O308 1.241 . S
C298 O309 1.273 . S
C299 O310 1.251 . S
C299 O311 1.268 . S
O300 Nd280 2.500 . S
O300 C282 1.258 . S
O301 Nd280 2.492 . S
O301 C282 1.239 . S
O302 Nd280 2.487 . S
O302 C289 1.241 . S
O303 Nd280 2.682 . S
O303 Nd281 2.414 . S
O303 C289 1.273 . S
O304 Nd280 2.410 . S
O304 C290 1.251 . S
O305 Nd281 2.424 . S
O305 C290 1.268 . S
O306 Nd281 2.500 . S
O306 C291 1.258 . S
O307 Nd281 2.492 . S
O307 C291 1.239 . S
O308 Nd281 2.487 . S
O308 C298 1.241 . S
O309 Nd280 2.414 . S
O309 Nd281 2.682 . S
O309 C298 1.273 . S
O310 Nd281 2.410 . S
O310 C299 1.251 . S
O311 Nd280 2.424 . S
O311 C299 1.268 . S
H312 C284 0.930 . S
H313 C285 0.929 . S
H314 C287 0.930 . S
H315 C288 0.929 . S
H316 C293 0.930 . S
H317 C294 0.929 . S
H318 C296 0.930 . S
H319 C297 0.929 . S
C320 C321 1.393 . S
C320 H324 0.950 . S
C320 C329 1.390 . S
C321 C320 1.393 . S
C321 C323 1.382 1_556 S
H322 C329 0.950 . S
C323 C321 1.382 1_554 S
C323 C325 1.390 . S
C323 H327 0.950 . S
H324 C320 0.950 . S
C325 C323 1.390 . S
C325 C326 1.387 . S
C325 H328 0.950 . S
C326 C325 1.387 . S
C326 C329 1.387 1_554 S
H327 C323 0.950 . S
H328 C325 0.950 . S
C329 C320 1.390 . S
C329 H322 0.950 . S
C329 C326 1.387 1_556 S
C330 C331 1.387 1_556 S
C330 H334 0.950 . S
C330 C339 1.390 . S
C331 C330 1.387 1_554 S
C331 C333 1.387 . S
H332 C339 0.950 . S
C333 C331 1.387 . S
C333 C335 1.390 . S
C333 H337 0.950 . S
H334 C330 0.950 . S
C335 C333 1.390 . S
C335 C336 1.387 1_554 S
C335 H338 0.950 . S
C336 C335 1.387 1_556 S
C336 C339 1.387 . S
H337 C333 0.950 . S
H338 C335 0.950 . S
C339 C330 1.390 . S
C339 H332 0.950 . S
C339 C336 1.387 . S
C340 C341 1.387 . S
C340 H344 0.950 . S
C340 C349 1.390 . S
C341 C340 1.387 . S
C341 C343 1.387 . S
H342 C349 0.950 . S
C343 C341 1.387 . S
C343 C345 1.390 . S
C343 H347 0.950 . S
H344 C340 0.950 . S
C345 C343 1.390 . S
C345 C346 1.387 . S
C345 H348 0.950 . S
C346 C345 1.387 . S
C346 C349 1.387 . S
H347 C343 0.950 . S
H348 C345 0.950 . S
C349 C340 1.390 . S
C349 H342 0.950 . S
C349 C346 1.387 . S
C350 C351 1.387 . S
C350 H354 0.950 . S
C350 C359 1.390 . S
C351 C350 1.387 . S
C351 C353 1.387 . S
H352 C359 0.950 . S
C353 C351 1.387 . S
C353 C355 1.390 . S
C353 H357 0.950 . S
H354 C350 0.950 . S
C355 C353 1.390 . S
C355 C356 1.387 . S
C355 H358 0.950 . S
C356 C355 1.387 . S
C356 C359 1.387 . S
H357 C353 0.950 . S
H358 C355 0.950 . S
C359 C350 1.390 . S
C359 H352 0.950 . S
C359 C356 1.387 . S
C360 C361 1.393 . S
C360 H364 0.950 . S
C360 C369 1.390 . S
C361 C360 1.393 . S
C361 C363 1.382 1_556 S
H362 C369 0.950 . S
C363 C361 1.382 1_554 S
C363 C365 1.390 . S
C363 H367 0.950 . S
H364 C360 0.950 . S
C365 C363 1.390 . S
C365 C366 1.387 . S
C365 H368 0.950 . S
C366 C365 1.387 . S
C366 C369 1.387 1_554 S
H367 C363 0.950 . S
H368 C365 0.950 . S
C369 C360 1.390 . S
C369 H362 0.950 . S
C369 C366 1.387 1_556 S
C370 C371 1.387 1_554 S
C370 H374 0.950 . S
C370 C379 1.390 . S
C371 C370 1.387 1_556 S
C371 C373 1.387 . S
H372 C379 0.950 . S
C373 C371 1.387 . S
C373 C375 1.390 . S
C373 H377 0.950 . S
H374 C370 0.950 . S
C375 C373 1.390 . S
C375 C376 1.387 1_556 S
C375 H378 0.950 . S
C376 C375 1.387 1_554 S
C376 C379 1.387 . S
H377 C373 0.950 . S
H378 C375 0.950 . S
C379 C370 1.390 . S
C379 H372 0.950 . S
C379 C376 1.387 . S
C380 C381 1.387 . S
C380 H384 0.950 . S
C380 C389 1.390 . S
C381 C380 1.387 . S
C381 C383 1.387 . S
H382 C389 0.950 . S
C383 C381 1.387 . S
C383 C385 1.390 . S
C383 H387 0.950 . S
H384 C380 0.950 . S
C385 C383 1.390 . S
C385 C386 1.387 . S
C385 H388 0.950 . S
C386 C385 1.387 . S
C386 C389 1.387 . S
H387 C383 0.950 . S
H388 C385 0.950 . S
C389 C380 1.390 . S
C389 H382 0.950 . S
C389 C386 1.387 . S
C390 C391 1.387 . S
C390 H394 0.950 . S
C390 C399 1.390 . S
C391 C390 1.387 . S
C391 C393 1.387 . S
H392 C399 0.950 . S
C393 C391 1.387 . S
C393 C395 1.390 . S
C393 H397 0.950 . S
H394 C390 0.950 . S
C395 C393 1.390 . S
C395 C396 1.387 . S
C395 H398 0.950 . S
C396 C395 1.387 . S
C396 C399 1.387 . S
H397 C393 0.950 . S
H398 C395 0.950 . S
C399 C390 1.390 . S
C399 H392 0.950 . S
C399 C396 1.387 . S
C400 C401 1.387 1_655 S
C400 H404 0.950 . S
C400 C409 1.390 . S
C401 C400 1.387 1_455 S
C401 C403 1.387 . S
H402 C409 0.950 . S
C403 C401 1.387 . S
C403 C405 1.390 . S
C403 H407 0.950 1_554 S
H404 C400 0.950 . S
C405 C403 1.390 . S
C405 C406 1.387 1_455 S
C405 H408 0.950 1_554 S
C406 C405 1.387 1_655 S
C406 C409 1.387 . S
H407 C403 0.950 1_556 S
H408 C405 0.950 1_556 S
C409 C400 1.390 . S
C409 H402 0.950 . S
C409 C406 1.387 . S
C410 C411 1.387 . S
C410 H414 0.950 . S
C410 C419 1.390 . S
C411 C410 1.387 . S
C411 C413 1.387 1_455 S
H412 C419 0.950 . S
C413 C411 1.387 1_655 S
C413 C415 1.390 . S
C413 H417 0.950 . S
H414 C410 0.950 . S
C415 C413 1.390 . S
C415 C416 1.387 . S
C415 H418 0.950 . S
C416 C415 1.387 . S
C416 C419 1.387 1_655 S
H417 C413 0.950 . S
H418 C415 0.950 . S
C419 C410 1.390 . S
C419 H412 0.950 . S
C419 C416 1.387 1_455 S
C420 C421 1.387 . S
C420 H424 0.950 . S
C420 C429 1.390 1_565 S
C421 C420 1.387 . S
C421 C423 1.387 1_554 S
H422 C429 0.950 . S
C423 C421 1.387 1_556 S
C423 C425 1.390 1_565 S
C423 H427 0.950 . S
H424 C420 0.950 . S
C425 C423 1.390 1_545 S
C425 C426 1.387 1_556 S
C425 H428 0.950 . S
C426 C425 1.387 1_554 S
C426 C429 1.387 . S
H427 C423 0.950 . S
H428 C425 0.950 . S
C429 C420 1.390 1_545 S
C429 H422 0.950 . S
C429 C426 1.387 . S
C430 C431 1.387 . S
C430 H434 0.950 . S
C430 C439 1.390 1_545 S
C431 C430 1.387 . S
C431 C433 1.387 . S
H432 C439 0.950 . S
C433 C431 1.387 . S
C433 C435 1.390 1_545 S
C433 H437 0.950 . S
H434 C430 0.950 . S
C435 C433 1.390 1_565 S
C435 C436 1.387 . S
C435 H438 0.950 . S
C436 C435 1.387 . S
C436 C439 1.387 . S
H437 C433 0.950 . S
H438 C435 0.950 . S
C439 C430 1.390 1_565 S
C439 H432 0.950 . S
C439 C436 1.387 . S
C440 C441 1.387 . S
C440 H444 0.950 . S
C440 C449 1.390 . S
C441 C440 1.387 . S
C441 C443 1.387 1_556 S
H442 C449 0.950 . S
C443 C441 1.387 1_554 S
C443 C445 1.390 . S
C443 H447 0.950 . S
H444 C440 0.950 . S
C445 C443 1.390 . S
C445 C446 1.387 1_554 S
C445 H448 0.950 . S
C446 C445 1.387 1_556 S
C446 C449 1.387 . S
H447 C443 0.950 . S
H448 C445 0.950 . S
C449 C440 1.390 . S
C449 H442 0.950 . S
C449 C446 1.387 . S
C450 C451 1.387 1_554 S
C450 H454 0.950 . S
C450 C459 1.390 . S
C451 C450 1.387 1_556 S
C451 C453 1.387 . S
H452 C459 0.950 . S
C453 C451 1.387 . S
C453 C455 1.390 . S
C453 H457 0.950 . S
H454 C450 0.950 . S
C455 C453 1.390 . S
C455 C456 1.387 . S
C455 H458 0.950 . S
C456 C455 1.387 . S
C456 C459 1.387 1_556 S
H457 C453 0.950 . S
H458 C455 0.950 . S
C459 C450 1.390 . S
C459 H452 0.950 . S
C459 C456 1.387 1_554 S
C460 C461 1.387 . S
C460 H464 0.950 . S
C460 C469 1.390 . S
C461 C460 1.387 . S
C461 C463 1.387 . S
H462 C469 0.950 . S
C463 C461 1.387 . S
C463 C465 1.390 . S
C463 H467 0.950 . S
H464 C460 0.950 . S
C465 C463 1.390 . S
C465 C466 1.387 . S
C465 H468 0.950 . S
C466 C465 1.387 . S
C466 C469 1.387 . S
H467 C463 0.950 . S
H468 C465 0.950 . S
C469 C460 1.390 . S
C469 H462 0.950 . S
C469 C466 1.387 . S
C470 C471 1.387 . S
C470 H474 0.950 . S
C470 C479 1.390 . S
C471 C470 1.387 . S
C471 C473 1.387 . S
H472 C479 0.950 . S
C473 C471 1.387 . S
C473 C475 1.390 . S
C473 H477 0.950 . S
H474 C470 0.950 . S
C475 C473 1.390 . S
C475 C476 1.387 . S
C475 H478 0.950 . S
C476 C475 1.387 . S
C476 C479 1.387 . S
H477 C473 0.950 . S
H478 C475 0.950 . S
C479 C470 1.390 . S
C479 H472 0.950 . S
C479 C476 1.387 . S
C480 C481 1.387 . S
C480 H484 0.950 . S
C480 C489 1.390 1_455 S
C481 C480 1.387 . S
C481 C483 1.387 . S
H482 C489 0.950 . S
C483 C481 1.387 . S
C483 C485 1.390 1_455 S
C483 H487 0.950 . S
H484 C480 0.950 . S
C485 C483 1.390 1_655 S
C485 C486 1.387 . S
C485 H488 0.950 . S
C486 C485 1.387 . S
C486 C489 1.387 . S
H487 C483 0.950 . S
H488 C485 0.950 . S
C489 C480 1.390 1_655 S
C489 H482 0.950 . S
C489 C486 1.387 . S
C490 C491 1.387 1_455 S
C490 H494 0.950 . S
C490 C499 1.390 . S
C491 C490 1.387 1_655 S
C491 C493 1.387 . S
H492 C499 0.950 . S
C493 C491 1.387 . S
C493 C495 1.390 . S
C493 H497 0.950 . S
H494 C490 0.950 . S
C495 C493 1.390 . S
C495 C496 1.387 1_655 S
C495 H498 0.950 . S
C496 C495 1.387 1_455 S
C496 C499 1.387 . S
H497 C493 0.950 . S
H498 C495 0.950 . S
C499 C490 1.390 . S
C499 H492 0.950 . S
C499 C496 1.387 . S
C500 C501 1.387 . S
C500 H504 0.950 . S
C500 C509 1.390 1_655 S
C501 C500 1.387 . S
C501 C503 1.387 . S
H502 C509 0.950 . S
C503 C501 1.387 . S
C503 C505 1.390 1_655 S
C503 H507 0.950 . S
H504 C500 0.950 . S
C505 C503 1.390 1_455 S
C505 C506 1.387 . S
C505 H508 0.950 . S
C506 C505 1.387 . S
C506 C509 1.387 . S
H507 C503 0.950 . S
H508 C505 0.950 . S
C509 C500 1.390 1_455 S
C509 H502 0.950 . S
C509 C506 1.387 . S
C510 C511 1.387 . S
C510 H514 0.950 . S
C510 C519 1.390 1_655 S
C511 C510 1.387 . S
C511 C513 1.387 . S
H512 C519 0.950 . S
C513 C511 1.387 . S
C513 C515 1.390 1_655 S
C513 H517 0.950 . S
H514 C510 0.950 . S
C515 C513 1.390 1_455 S
C515 C516 1.387 . S
C515 H518 0.950 . S
C516 C515 1.387 . S
C516 C519 1.387 . S
H517 C513 0.950 . S
H518 C515 0.950 . S
C519 C510 1.390 1_455 S
C519 H512 0.950 . S
C519 C516 1.387 . S
C520 C521 1.387 . S
C520 H524 0.950 . S
C520 C529 1.390 . S
C521 C520 1.387 . S
C521 C523 1.387 . S
H522 C529 0.950 . S
C523 C521 1.387 . S
C523 C525 1.390 . S
C523 H527 0.950 . S
H524 C520 0.950 . S
C525 C523 1.390 . S
C525 C526 1.387 . S
C525 H528 0.950 . S
C526 C525 1.387 . S
C526 C529 1.387 . S
H527 C523 0.950 . S
H528 C525 0.950 . S
C529 C520 1.390 . S
C529 H522 0.950 . S
C529 C526 1.387 . S
C530 C531 1.387 . S
C530 H534 0.950 . S
C530 C539 1.390 . S
C531 C530 1.387 . S
C531 C533 1.387 . S
H532 C539 0.950 . S
C533 C531 1.387 . S
C533 C535 1.390 . S
C533 H537 0.950 . S
H534 C530 0.950 . S
C535 C533 1.390 . S
C535 C536 1.387 . S
C535 H538 0.950 . S
C536 C535 1.387 . S
C536 C539 1.387 . S
H537 C533 0.950 . S
H538 C535 0.950 . S
C539 C530 1.390 . S
C539 H532 0.950 . S
C539 C536 1.387 . S
C540 C541 1.387 . S
C540 H544 0.950 . S
C540 C549 1.390 . S
C541 C540 1.387 . S
C541 C543 1.387 . S
H542 C549 0.950 . S
C543 C541 1.387 . S
C543 C545 1.390 . S
C543 H547 0.950 . S
H544 C540 0.950 . S
C545 C543 1.390 . S
C545 C546 1.387 . S
C545 H548 0.950 . S
C546 C545 1.387 . S
C546 C549 1.387 . S
H547 C543 0.950 . S
H548 C545 0.950 . S
C549 C540 1.390 . S
C549 H542 0.950 . S
C549 C546 1.387 . S
C550 C551 1.387 . S
C550 H554 0.950 . S
C550 C559 1.390 . S
C551 C550 1.387 . S
C551 C553 1.387 . S
H552 C559 0.950 . S
C553 C551 1.387 . S
C553 C555 1.390 . S
C553 H557 0.950 . S
H554 C550 0.950 . S
C555 C553 1.390 . S
C555 C556 1.387 . S
C555 H558 0.950 . S
C556 C555 1.387 . S
C556 C559 1.387 . S
H557 C553 0.950 . S
H558 C555 0.950 . S
C559 C550 1.390 . S
C559 H552 0.950 . S
C559 C556 1.387 . S
C321 C6 1.395 1_556 S
C326 C15 1.396 . S
C331 C55 1.480 . S
C336 C46 1.480 . S
C341 C86 1.405 . S
C346 C95 1.405 . S
C351 C126 1.408 . S
C356 C135 1.408 . S
C361 C166 1.395 1_456 S
C366 C175 1.396 . S
C371 C206 1.479 1_655 S
C376 C215 1.479 . S
C381 C246 1.408 . S
C386 C255 1.408 1_455 S
C391 C295 1.408 . S
C396 C286 1.408 1_655 S
C401 C59 1.896 . S
C406 C19 1.873 . S
C411 C139 1.880 . S
C416 C90 1.880 . S
C421 C179 1.875 . S
C426 C219 1.897 . S
C431 C250 1.880 . S
C436 C299 1.880 . S
C441 C10 1.902 . S
C446 C210 1.909 1_556 S
C451 C170 1.900 . S
C456 C50 1.907 1_556 S
C461 C99 1.905 . S
C466 C290 1.905 . S
C471 C130 1.903 . S
C476 C259 1.903 . S
C481 C9 1.852 . S
C486 C129 1.842 . S
C491 C49 1.766 . S
C496 C89 1.535 . S
C501 C58 1.664 . S
C506 C98 1.954 . S
C511 C138 1.607 . S
C516 C18 1.610 . S
C521 C169 1.852 . S
C526 C289 1.842 . S
C531 C209 1.766 . S
C536 C249 1.540 . S
C541 C218 1.669 . S
C546 C258 1.955 . S
C551 C298 1.607 . S
C556 C178 1.610 . S
