# Generated by pormake.
# Topology lcv, (4)-cn, num edge types: 1
# Building blocks:
#     Node 0, Type 0, BuildingBlock: ESEHIV_clean_sbu_0, # of connection points: 4
#     Node 1, Type 0, BuildingBlock: ESEHIV_clean_sbu_0, # of connection points: 4
#     Node 2, Type 0, BuildingBlock: ESEHIV_clean_sbu_0, # of connection points: 4
#     Node 3, Type 0, BuildingBlock: ESEHIV_clean_sbu_0, # of connection points: 4
#     Node 4, Type 0, BuildingBlock: ESEHIV_clean_sbu_0, # of connection points: 4
#     Node 5, Type 0, BuildingBlock: ESEHIV_clean_sbu_0, # of connection points: 4
#     Node 6, Type 0, BuildingBlock: ESEHIV_clean_sbu_0, # of connection points: 4
#     Node 7, Type 0, BuildingBlock: ESEHIV_clean_sbu_0, # of connection points: 4
#     Node 8, Type 0, BuildingBlock: ESEHIV_clean_sbu_0, # of connection points: 4
#     Node 9, Type 0, BuildingBlock: ESEHIV_clean_sbu_0, # of connection points: 4
#     Node 10, Type 0, BuildingBlock: ESEHIV_clean_sbu_0, # of connection points: 4
#     Node 11, Type 0, BuildingBlock: ESEHIV_clean_sbu_0, # of connection points: 4
#     Edge 12, Type (0, 0), BuildingBlock: XUDNAN_clean_linker_2, # of connection points: 2
#     Edge 13, Type (0, 0), BuildingBlock: XUDNAN_clean_linker_2, # of connection points: 2
#     Edge 14, Type (0, 0), BuildingBlock: XUDNAN_clean_linker_2, # of connection points: 2
#     Edge 15, Type (0, 0), BuildingBlock: XUDNAN_clean_linker_2, # of connection points: 2
#     Edge 16, Type (0, 0), BuildingBlock: XUDNAN_clean_linker_2, # of connection points: 2
#     Edge 17, Type (0, 0), BuildingBlock: XUDNAN_clean_linker_2, # of connection points: 2
#     Edge 18, Type (0, 0), BuildingBlock: XUDNAN_clean_linker_2, # of connection points: 2
#     Edge 19, Type (0, 0), BuildingBlock: XUDNAN_clean_linker_2, # of connection points: 2
#     Edge 20, Type (0, 0), BuildingBlock: XUDNAN_clean_linker_2, # of connection points: 2
#     Edge 21, Type (0, 0), BuildingBlock: XUDNAN_clean_linker_2, # of connection points: 2
#     Edge 22, Type (0, 0), BuildingBlock: XUDNAN_clean_linker_2, # of connection points: 2
#     Edge 23, Type (0, 0), BuildingBlock: XUDNAN_clean_linker_2, # of connection points: 2
#     Edge 24, Type (0, 0), BuildingBlock: XUDNAN_clean_linker_2, # of connection points: 2
#     Edge 25, Type (0, 0), BuildingBlock: XUDNAN_clean_linker_2, # of connection points: 2
#     Edge 26, Type (0, 0), BuildingBlock: XUDNAN_clean_linker_2, # of connection points: 2
#     Edge 27, Type (0, 0), BuildingBlock: XUDNAN_clean_linker_2, # of connection points: 2
#     Edge 28, Type (0, 0), BuildingBlock: XUDNAN_clean_linker_2, # of connection points: 2
#     Edge 29, Type (0, 0), BuildingBlock: XUDNAN_clean_linker_2, # of connection points: 2
#     Edge 30, Type (0, 0), BuildingBlock: XUDNAN_clean_linker_2, # of connection points: 2
#     Edge 31, Type (0, 0), BuildingBlock: XUDNAN_clean_linker_2, # of connection points: 2
#     Edge 32, Type (0, 0), BuildingBlock: XUDNAN_clean_linker_2, # of connection points: 2
#     Edge 33, Type (0, 0), BuildingBlock: XUDNAN_clean_linker_2, # of connection points: 2
#     Edge 34, Type (0, 0), BuildingBlock: XUDNAN_clean_linker_2, # of connection points: 2
#     Edge 35, Type (0, 0), BuildingBlock: XUDNAN_clean_linker_2, # of connection points: 2
# Relax obj value: 0.158
# Max RMSD: 0.305
# Mean RMSD: 0.278
data_MOF--net-lcv--node1-ESEHIV_clean_sbu_0--edge1-XUDNAN_clean_linker_2
_symmetry_space_group_name_H-M    P1
_symmetry_Int_Tables_number       1
_symmetry_cell_setting            triclinic
loop_
_symmetry_equiv_pos_as_xyz
'x, y, z'
_cell_length_a     50.075815
_cell_length_b     48.821869
_cell_length_c     49.548501
_cell_angle_alpha  95.412662
_cell_angle_beta   89.871996
_cell_angle_gamma 101.25262
loop_
_atom_site_label
_atom_site_type_symbol
_atom_site_fract_x
_atom_site_fract_y
_atom_site_fract_z
_atom_type_partial_charge
Cu0 Cu 0.04068 0.23414 0.19865 0.0
N1 N 0.05248 0.20484 0.21325 0.0
N2 N 0.08252 0.18097 0.22759 0.0
C3 C 0.07871 0.20238 0.21376 0.0
C4 C 0.05762 0.1695 0.23628 0.0
C5 C 0.03903 0.18433 0.22732 0.0
O6 O 0.06379 0.24421 0.16844 0.0
C7 C 0.04624 0.29039 0.22172 0.0
O8 O 0.04396 0.29641 0.19665 0.0
H9 H 0.09486 0.21689 0.2051 0.0
H10 H 0.01747 0.18092 0.23141 0.0
N11 N 0.00466 0.22466 0.18653 0.0
N12 N 0.96599 0.23122 0.16821 0.0
C13 C 0.98971 0.24347 0.18085 0.0
C14 C 0.98991 0.19944 0.17732 0.0
C15 C 0.96596 0.20343 0.16591 0.0
C16 C 0.06765 0.22476 0.15082 0.0
O17 O 0.05473 0.19893 0.15299 0.0
H18 H 0.99698 0.26587 0.18414 0.0
H19 H 0.99672 0.17975 0.17756 0.0
O20 O 0.04523 0.26511 0.22653 0.0
H21 H 0.05322 0.15196 0.24849 0.0
H22 H 0.95031 0.18731 0.15581 0.0
Cu23 Cu 0.1781 0.80673 0.47638 0.0
N24 N 0.17263 0.82434 0.44547 0.0
N25 N 0.17753 0.85618 0.4154 0.0
C26 C 0.18316 0.85101 0.44083 0.0
C27 C 0.16249 0.83206 0.40371 0.0
C28 C 0.15926 0.81253 0.42242 0.0
O29 O 0.21461 0.821 0.4916 0.0
C30 C 0.1777 0.75284 0.44639 0.0
O31 O 0.19182 0.76624 0.42761 0.0
H32 H 0.19579 0.86591 0.45538 0.0
H33 H 0.14847 0.791 0.41921 0.0
N34 N 0.15197 0.81289 0.50192 0.0
N35 N 0.11843 0.80267 0.53139 0.0
C36 C 0.1388 0.7936 0.51753 0.0
C37 C 0.13962 0.83501 0.50603 0.0
C38 C 0.11887 0.82876 0.52423 0.0
C39 C 0.23489 0.82858 0.47661 0.0
O40 O 0.23156 0.8257 0.45014 0.0
H41 H 0.14318 0.77275 0.51758 0.0
H42 H 0.14468 0.8539 0.49576 0.0
O43 O 0.17164 0.76643 0.46794 0.0
H44 H 0.15463 0.82876 0.38308 0.0
H45 H 0.10491 0.84216 0.53123 0.0
Cu46 Cu 0.70514 0.89304 0.71655 0.0
N47 N 0.73509 0.90084 0.74019 0.0
N48 N 0.7609 0.89263 0.77405 0.0
C49 C 0.73619 0.88643 0.76178 0.0
C50 C 0.7761 0.9118 0.75945 0.0
C51 C 0.76002 0.9169 0.7385 0.0
O52 O 0.70626 0.85635 0.69819 0.0
C53 C 0.67447 0.91594 0.75537 0.0
O54 O 0.69836 0.93243 0.76021 0.0
H55 H 0.71952 0.87033 0.76728 0.0
H56 H 0.76638 0.93031 0.72254 0.0
N57 N 0.70601 0.91822 0.69042 0.0
N58 N 0.69095 0.93345 0.65331 0.0
C59 C 0.69338 0.91093 0.66617 0.0
C60 C 0.71192 0.94645 0.69313 0.0
C61 C 0.70256 0.95594 0.67018 0.0
C62 C 0.72591 0.85651 0.68179 0.0
O63 O 0.74173 0.88064 0.67804 0.0
H64 H 0.6839 0.88955 0.65925 0.0
H65 H 0.7205 0.95916 0.71127 0.0
O66 O 0.67247 0.89534 0.73718 0.0
H67 H 0.79743 0.92083 0.76313 0.0
H68 H 0.70291 0.9776 0.66684 0.0
Cu69 Cu 0.5931 0.38499 0.97413 0.0
N70 N 0.58622 0.41567 0.95749 0.0
N71 N 0.5949 0.4568 0.93954 0.0
C72 C 0.60559 0.43649 0.94968 0.0
C73 C 0.56763 0.44831 0.94105 0.0
C74 C 0.56234 0.42288 0.95209 0.0
O75 O 0.62611 0.39898 0.99544 0.0
C76 C 0.59012 0.32919 0.95028 0.0
O77 O 0.5827 0.32232 0.97458 0.0
H78 H 0.62717 0.4371 0.95224 0.0
H79 H 0.54254 0.41076 0.95627 0.0
N80 N 0.56545 0.37242 0.99799 0.0
N81 N 0.52626 0.35088 0.01456 0.0
C82 C 0.53902 0.36108 0.9925 0.0
C83 C 0.56935 0.36945 0.02434 0.0
C84 C 0.54524 0.35609 0.03459 0.0
C85 C 0.6422 0.38495 0.00487 0.0
O86 O 0.63797 0.35762 0.99912 0.0
H87 H 0.52973 0.35905 0.97252 0.0
H88 H 0.58867 0.37566 0.03508 0.0
O89 O 0.59649 0.35502 0.94626 0.0
H90 H 0.55257 0.45964 0.9347 0.0
H91 H 0.54198 0.35026 0.05506 0.0
Cu92 Cu 0.2835 0.06238 0.29241 0.0
N93 N 0.26929 0.09423 0.30265 0.0
N94 N 0.24304 0.12575 0.29866 0.0
C95 C 0.2587 0.10935 0.28565 0.0
C96 C 0.24443 0.12132 0.32507 0.0
C97 C 0.26071 0.10187 0.32745 0.0
O98 O 0.28209 0.05695 0.25314 0.0
C99 C 0.25922 0.00621 0.30532 0.0
O100 O 0.27103 0.99617 0.28393 0.0
H101 H 0.26017 0.10634 0.26386 0.0
H102 H 0.26408 0.09218 0.34557 0.0
N103 N 0.31929 0.06793 0.30472 0.0
N104 N 0.35642 0.06078 0.3255 0.0
C105 C 0.33076 0.0495 0.31687 0.0
C106 C 0.3383 0.09164 0.30552 0.0
C107 C 0.36127 0.08732 0.31845 0.0
C108 C 0.25943 0.05356 0.24052 0.0
O109 O 0.23685 0.04825 0.25431 0.0
H110 H 0.32006 0.02868 0.3204 0.0
H111 H 0.33534 0.11091 0.29792 0.0
O112 O 0.26187 0.03257 0.3107 0.0
H113 H 0.23304 0.13001 0.34118 0.0
H114 H 0.37991 0.10261 0.32271 0.0
Cu115 Cu 0.47059 0.96498 0.53308 0.0
N116 N 0.47157 0.98894 0.50586 0.0
N117 N 0.46275 0.00633 0.46747 0.0
C118 C 0.45865 0.98356 0.4816 0.0
C119 C 0.47938 0.02659 0.48335 0.0
C120 C 0.4848 0.01577 0.50697 0.0
O121 O 0.43543 0.93931 0.53357 0.0
C122 C 0.46555 0.00326 0.57998 0.0
O123 O 0.44167 0.00508 0.5702 0.0
H124 H 0.44552 0.96369 0.47509 0.0
H125 H 0.49711 0.0268 0.52402 0.0
N126 N 0.49851 0.94514 0.52698 0.0
N127 N 0.53849 0.9325 0.53298 0.0
C128 C 0.51988 0.94676 0.54384 0.0
C129 C 0.50356 0.92929 0.5046 0.0
C130 C 0.5282 0.92134 0.50827 0.0
C131 C 0.41336 0.94617 0.52652 0.0
O132 O 0.41378 0.97166 0.51991 0.0
H133 H 0.52175 0.95852 0.56359 0.0
H134 H 0.49067 0.92461 0.48661 0.0
O135 O 0.47952 0.98719 0.56741 0.0
H136 H 0.48685 0.04785 0.4785 0.0
H137 H 0.53809 0.90908 0.49351 0.0
Cu138 Cu 0.52105 0.10288 0.81658 0.0
N139 N 0.53952 0.0768 0.82875 0.0
N140 N 0.55832 0.03896 0.82873 0.0
C141 C 0.54343 0.05309 0.81453 0.0
C142 C 0.56391 0.05442 0.85284 0.0
C143 C 0.55216 0.07773 0.85282 0.0
O144 O 0.52294 0.09969 0.77735 0.0
C145 C 0.54814 0.16059 0.82089 0.0
O146 O 0.55015 0.15712 0.7944 0.0
H147 H 0.53625 0.04685 0.79386 0.0
H148 H 0.55304 0.09438 0.86903 0.0
N149 N 0.48508 0.09367 0.82707 0.0
N150 N 0.44509 0.09772 0.84511 0.0
C151 C 0.47023 0.11129 0.8392 0.0
C152 C 0.46889 0.0681 0.82513 0.0
C153 C 0.44414 0.07051 0.83635 0.0
C154 C 0.50302 0.10047 0.76172 0.0
O155 O 0.48045 0.10638 0.77215 0.0
H156 H 0.47805 0.13346 0.84431 0.0
H157 H 0.47484 0.04905 0.81647 0.0
O158 O 0.53678 0.14003 0.83353 0.0
H159 H 0.57579 0.04937 0.86923 0.0
H160 H 0.42686 0.05358 0.838 0.0
Cu161 Cu 0.29763 0.19809 0.04254 0.0
N162 N 0.30115 0.17161 0.01404 0.0
N163 N 0.31647 0.15201 0.97617 0.0
C164 C 0.3182 0.17556 0.99319 0.0
C165 C 0.2975 0.13251 0.98676 0.0
C166 C 0.28798 0.14474 0.01012 0.0
O167 O 0.32959 0.22801 0.04414 0.0
C168 C 0.3013 0.16062 0.08307 0.0
O169 O 0.3216 0.15354 0.06906 0.0
H170 H 0.33215 0.19514 0.99102 0.0
H171 H 0.2728 0.13473 0.02349 0.0
N172 N 0.26809 0.21409 0.03513 0.0
N173 N 0.22845 0.22811 0.04015 0.0
C174 C 0.2447 0.21159 0.04883 0.0
C175 C 0.26664 0.23267 0.01706 0.0
C176 C 0.24216 0.24146 0.02016 0.0
C177 C 0.35405 0.22472 0.04618 0.0
O178 O 0.35891 0.19991 0.05008 0.0
H179 H 0.24027 0.19894 0.0657 0.0
H180 H 0.28264 0.23993 0.00322 0.0
O181 O 0.28989 0.17988 0.07569 0.0
H182 H 0.291 0.11097 0.97828 0.0
H183 H 0.23519 0.25677 0.00893 0.0
Cu184 Cu 0.86466 0.44913 0.11239 0.0
N185 N 0.87715 0.47866 0.09155 0.0
N186 N 0.87682 0.50953 0.06118 0.0
C187 C 0.86456 0.48473 0.06958 0.0
C188 C 0.89817 0.51925 0.07836 0.0
C189 C 0.89837 0.50007 0.09704 0.0
O190 O 0.82512 0.44019 0.11011 0.0
C191 C 0.87699 0.48127 0.16329 0.0
O192 O 0.86211 0.49775 0.15396 0.0
H193 H 0.84582 0.47203 0.06097 0.0
H194 H 0.91231 0.5021 0.11408 0.0
N195 N 0.87674 0.41743 0.09771 0.0
N196 N 0.88826 0.37538 0.09458 0.0
C197 C 0.88209 0.39658 0.1114 0.0
C198 C 0.87958 0.40929 0.07135 0.0
C199 C 0.88673 0.3833 0.06933 0.0
C200 C 0.81052 0.45878 0.10999 0.0
O201 O 0.82208 0.48537 0.11459 0.0
H202 H 0.88062 0.39662 0.1332 0.0
H203 H 0.87621 0.42121 0.05478 0.0
O204 O 0.87959 0.45893 0.149 0.0
H205 H 0.9122 0.53909 0.07786 0.0
H206 H 0.89053 0.37123 0.05076 0.0
Cu207 Cu 0.02404 0.52402 0.37211 0.0
N208 N 0.04559 0.49739 0.36435 0.0
N209 N 0.0591 0.45807 0.34889 0.0
C210 C 0.03891 0.47273 0.34904 0.0
C211 C 0.0791 0.47388 0.36494 0.0
C212 C 0.07069 0.49821 0.37444 0.0
O213 O 0.00277 0.52909 0.34087 0.0
C214 C 0.06576 0.57351 0.3754 0.0
O215 O 0.07019 0.5666 0.34974 0.0
H216 H 0.01949 0.46549 0.33859 0.0
H217 H 0.08194 0.51522 0.38795 0.0
N218 N 0.99954 0.51158 0.39853 0.0
N219 N 0.97147 0.51258 0.43346 0.0
C220 C 0.98941 0.52789 0.41769 0.0
C221 C 0.98773 0.48503 0.4022 0.0
C222 C 0.97033 0.48557 0.42377 0.0
C223 C 0.00756 0.52182 0.31627 0.0
O224 O 0.02979 0.51225 0.3102 0.0
H225 H 0.99468 0.55057 0.41956 0.0
H226 H 0.9914 0.46664 0.38995 0.0
O227 O 0.04671 0.55854 0.38754 0.0
H228 H 0.09846 0.46836 0.36924 0.0
H229 H 0.95797 0.46748 0.43177 0.0
Cu230 Cu 0.90216 0.69225 0.62521 0.0
N231 N 0.89547 0.65523 0.61017 0.0
N232 N 0.89604 0.61613 0.58313 0.0
C233 C 0.9057 0.64407 0.58752 0.0
C234 C 0.87916 0.60966 0.60387 0.0
C235 C 0.87887 0.63381 0.62048 0.0
O236 O 0.93813 0.71129 0.61538 0.0
C237 C 0.89201 0.71038 0.68014 0.0
O238 O 0.89041 0.73449 0.67117 0.0
H239 H 0.91969 0.65627 0.57447 0.0
H240 H 0.86747 0.63569 0.6389 0.0
N241 N 0.87567 0.70975 0.61202 0.0
N242 N 0.83865 0.72873 0.60997 0.0
C243 C 0.85212 0.713 0.62387 0.0
C244 C 0.87691 0.72325 0.5895 0.0
C245 C 0.85415 0.73505 0.58819 0.0
C246 C 0.95924 0.70189 0.62093 0.0
O247 O 0.95647 0.67947 0.63421 0.0
H248 H 0.84573 0.70518 0.64305 0.0
H249 H 0.89361 0.72506 0.57548 0.0
O250 O 0.8985 0.69097 0.66404 0.0
H251 H 0.86815 0.58889 0.60713 0.0
H252 H 0.84975 0.74786 0.57274 0.0
Cu253 Cu 0.76736 0.66749 0.89529 0.0
N254 N 0.76231 0.70446 0.90051 0.0
N255 N 0.7655 0.74963 0.89388 0.0
C256 C 0.77609 0.72636 0.88838 0.0
C257 C 0.74452 0.74212 0.91058 0.0
C258 C 0.74266 0.71425 0.91467 0.0
O259 O 0.78594 0.66237 0.86138 0.0
C260 C 0.73048 0.61555 0.88818 0.0
O261 O 0.75162 0.60669 0.87738 0.0
H262 H 0.7925 0.72473 0.87445 0.0
H263 H 0.72741 0.70171 0.92627 0.0
N264 N 0.78994 0.66097 0.92275 0.0
N265 N 0.81126 0.63769 0.94978 0.0
C266 C 0.79062 0.63602 0.93182 0.0
C267 C 0.81067 0.67923 0.9355 0.0
C268 C 0.82384 0.66495 0.95227 0.0
C269 C 0.77995 0.67213 0.83976 0.0
O270 O 0.75873 0.68423 0.83926 0.0
H271 H 0.77646 0.61696 0.92506 0.0
H272 H 0.81634 0.70116 0.93212 0.0
O273 O 0.73268 0.64145 0.8962 0.0
H274 H 0.73094 0.75551 0.91859 0.0
H275 H 0.84191 0.67378 0.96446 0.0
H276 H 0.09685 0.15906 0.27266 0.0
H277 H 0.12679 0.18694 0.19564 0.0
H278 H 0.1722 0.17813 0.2067 0.0
H279 H 0.15723 0.18878 0.31182 0.0
H280 H 0.15475 0.15985 0.33236 0.0
H281 H 0.12437 0.168 0.31837 0.0
H282 H 0.11086 0.11722 0.29532 0.0
H283 H 0.14097 0.10882 0.30958 0.0
H284 H 0.13474 0.10312 0.27348 0.0
H285 H 0.21424 0.16625 0.22603 0.0
H286 H 0.24954 0.14991 0.25153 0.0
H287 H 0.19222 0.12979 0.31586 0.0
C288 C 0.11286 0.16297 0.258 0.0
C289 C 0.10833 0.17381 0.23335 0.0
C290 C 0.12993 0.179 0.21481 0.0
C291 C 0.15577 0.17402 0.22089 0.0
C292 C 0.15969 0.16388 0.24561 0.0
C293 C 0.13883 0.15823 0.2638 0.0
C294 C 0.14845 0.14727 0.28889 0.0
C295 C 0.14605 0.16717 0.31436 0.0
C296 C 0.13283 0.11733 0.29198 0.0
C297 C 0.17795 0.14757 0.2819 0.0
C298 C 0.18403 0.15727 0.25687 0.0
C299 C 0.20976 0.1587 0.24571 0.0
C300 C 0.22966 0.1494 0.26031 0.0
C301 C 0.22372 0.1388 0.28575 0.0
C302 C 0.19761 0.13836 0.29679 0.0
H303 H 0.37366 0.94139 0.48807 0.0
H304 H 0.39551 0.9035 0.5584 0.0
H305 H 0.35171 0.8692 0.55391 0.0
H306 H 0.30216 0.93364 0.49937 0.0
H307 H 0.29282 0.92491 0.46404 0.0
H308 H 0.32531 0.94682 0.47355 0.0
H309 H 0.34975 0.91259 0.44436 0.0
H310 H 0.31733 0.8906 0.43472 0.0
H311 H 0.34326 0.876 0.45016 0.0
H312 H 0.30378 0.84093 0.54287 0.0
H313 H 0.25861 0.81759 0.52317 0.0
H314 H 0.27101 0.87128 0.45756 0.0
C315 C 0.36913 0.92595 0.50261 0.0
C316 C 0.38767 0.92522 0.52381 0.0
C317 C 0.38143 0.90438 0.54209 0.0
C318 C 0.35661 0.88492 0.53972 0.0
C319 C 0.33865 0.88627 0.51859 0.0
C320 C 0.34489 0.90598 0.50008 0.0
C321 C 0.32285 0.90224 0.47843 0.0
C322 C 0.31003 0.92846 0.4789 0.0
C323 C 0.33397 0.89491 0.45026 0.0
C324 C 0.303 0.87759 0.4878 0.0
C325 C 0.31223 0.86888 0.51121 0.0
C326 C 0.29657 0.84734 0.52434 0.0
C327 C 0.27096 0.83427 0.5131 0.0
C328 C 0.26161 0.84241 0.48871 0.0
C329 C 0.27792 0.86429 0.47597 0.0
H330 H 0.6061 0.02553 0.84262 0.0
H331 H 0.5337 0.99675 0.79208 0.0
H332 H 0.55312 0.95672 0.77209 0.0
H333 H 0.65188 0.01306 0.79378 0.0
H334 H 0.67536 0.00208 0.81603 0.0
H335 H 0.65387 0.02544 0.82931 0.0
H336 H 0.63499 0.99089 0.86461 0.0
H337 H 0.65648 0.96733 0.85135 0.0
H338 H 0.62024 0.95495 0.85327 0.0
H339 H 0.58282 0.92291 0.75408 0.0
H340 H 0.62103 0.90057 0.73791 0.0
H341 H 0.67361 0.95198 0.80039 0.0
C342 C 0.59394 0.01031 0.82801 0.0
C343 C 0.56832 0.01413 0.81905 0.0
C344 C 0.55343 0.99426 0.79916 0.0
C345 C 0.56419 0.97133 0.78788 0.0
C346 C 0.58982 0.9685 0.7968 0.0
C347 C 0.60446 0.98749 0.81647 0.0
C348 C 0.63268 0.98168 0.82047 0.0
C349 C 0.65473 0.00706 0.81452 0.0
C350 C 0.6363 0.9732 0.84913 0.0
C351 C 0.63205 0.95714 0.79929 0.0
C352 C 0.607 0.94938 0.78619 0.0
C353 C 0.60237 0.92849 0.7645 0.0
C354 C 0.62414 0.91584 0.7555 0.0
C355 C 0.65022 0.9245 0.76795 0.0
C356 C 0.65384 0.94478 0.79059 0.0
H357 H 0.50905 0.30449 0.04057 0.0
H358 H 0.48142 0.36309 0.99199 0.0
H359 H 0.43367 0.33808 0.99623 0.0
H360 H 0.4619 0.24339 0.01153 0.0
H361 H 0.45734 0.22732 0.04295 0.0
H362 H 0.48894 0.25045 0.03669 0.0
H363 H 0.48368 0.28109 0.08129 0.0
H364 H 0.45197 0.25814 0.08761 0.0
H365 H 0.45316 0.29516 0.08652 0.0
H366 H 0.38901 0.30758 0.00742 0.0
H367 H 0.35102 0.27095 0.02013 0.0
H368 H 0.40832 0.23044 0.05914 0.0
C369 C 0.49287 0.31208 0.03099 0.0
C370 C 0.4987 0.33583 0.01618 0.0
C371 C 0.4772 0.3449 0.00337 0.0
C372 C 0.45012 0.33093 0.00581 0.0
C373 C 0.44503 0.30769 0.02079 0.0
C374 C 0.46586 0.29807 0.0328 0.0
C375 C 0.4551 0.27188 0.04671 0.0
C376 C 0.46649 0.24678 0.03368 0.0
C377 C 0.46135 0.27688 0.07735 0.0
C378 C 0.42489 0.26835 0.04086 0.0
C379 C 0.41948 0.28942 0.02617 0.0
C380 C 0.39302 0.2909 0.01878 0.0
C381 C 0.37157 0.27007 0.02624 0.0
C382 C 0.37671 0.24781 0.04061 0.0
C383 C 0.40376 0.24712 0.04809 0.0
H384 H 0.24427 0.94835 0.29933 0.0
H385 H 0.24138 0.02163 0.35545 0.0
H386 H 0.21923 0.9911 0.38909 0.0
H387 H 0.17834 0.9081 0.31721 0.0
H388 H 0.18959 0.87507 0.31398 0.0
H389 H 0.20486 0.90266 0.29381 0.0
H390 H 0.25259 0.90027 0.31241 0.0
H391 H 0.23746 0.87272 0.33266 0.0
H392 H 0.25872 0.90418 0.34855 0.0
H393 H 0.20014 0.95297 0.41788 0.0
H394 H 0.18233 0.90912 0.43882 0.0
H395 H 0.19532 0.86047 0.36389 0.0
C396 C 0.23881 0.95796 0.31862 0.0
C397 C 0.24463 0.98742 0.32469 0.0
C398 C 0.23711 0.99915 0.35021 0.0
C399 C 0.22454 0.98198 0.36953 0.0
C400 C 0.2193 0.95308 0.36303 0.0
C401 C 0.22592 0.94109 0.33813 0.0
C402 C 0.21801 0.90936 0.33646 0.0
C403 C 0.19641 0.89815 0.31404 0.0
C404 C 0.2432 0.89585 0.33228 0.0
C405 C 0.20622 0.90548 0.36438 0.0
C406 C 0.20734 0.931 0.37942 0.0
C407 C 0.19886 0.93285 0.40623 0.0
C408 C 0.1889 0.90793 0.41799 0.0
C409 C 0.18723 0.88157 0.40287 0.0
C410 C 0.19589 0.88041 0.37568 0.0
H411 H 0.56689 0.96766 0.57381 0.0
H412 H 0.56865 0.89247 0.52003 0.0
H413 H 0.61152 0.88794 0.54194 0.0
H414 H 0.64046 0.99431 0.57835 0.0
H415 H 0.63952 0.00646 0.61378 0.0
H416 H 0.61053 0.00556 0.59198 0.0
H417 H 0.57953 0.97475 0.62398 0.0
H418 H 0.60832 0.97571 0.64593 0.0
H419 H 0.58837 0.94246 0.63237 0.0
H420 H 0.65184 0.88912 0.5723 0.0
H421 H 0.68577 0.89523 0.60966 0.0
H422 H 0.65728 0.96909 0.64401 0.0
C423 C 0.57617 0.95022 0.56648 0.0
C424 C 0.56419 0.93042 0.54505 0.0
C425 C 0.57746 0.90815 0.53609 0.0
C426 C 0.60185 0.90537 0.54846 0.0
C427 C 0.61285 0.92509 0.5697 0.0
C428 C 0.60044 0.9471 0.57864 0.0
C429 C 0.61541 0.96439 0.60299 0.0
C430 C 0.62718 0.99446 0.59637 0.0
C431 C 0.5968 0.9643 0.62777 0.0
C432 C 0.63781 0.94822 0.60685 0.0
C433 C 0.63615 0.92581 0.58723 0.0
C434 C 0.65354 0.90679 0.58756 0.0
C435 C 0.67268 0.91037 0.60883 0.0
C436 C 0.67427 0.93274 0.62953 0.0
C437 C 0.65698 0.95223 0.62811 0.0
H438 H 0.57054 0.27274 0.95079 0.0
H439 H 0.60596 0.33561 0.89776 0.0
H440 H 0.60073 0.29902 0.85905 0.0
H441 H 0.6003 0.21559 0.91896 0.0
H442 H 0.57022 0.18947 0.92347 0.0
H443 H 0.57831 0.22035 0.94716 0.0
H444 H 0.53075 0.23156 0.93839 0.0
H445 H 0.52256 0.2008 0.91461 0.0
H446 H 0.52032 0.23469 0.9042 0.0
H447 H 0.5896 0.25564 0.82566 0.0
H448 H 0.57377 0.20912 0.80047 0.0
H449 H 0.54539 0.17506 0.87557 0.0
C450 C 0.57755 0.27882 0.93113 0.0
C451 C 0.58879 0.30708 0.92736 0.0
C452 C 0.59738 0.31411 0.90119 0.0
C453 C 0.59449 0.29346 0.87907 0.0
C454 C 0.58299 0.26588 0.88344 0.0
C455 C 0.57473 0.25854 0.90886 0.0
C456 C 0.56206 0.22765 0.90803 0.0
C457 C 0.57873 0.21237 0.92544 0.0
C458 C 0.53215 0.22344 0.91682 0.0
C459 C 0.56425 0.21876 0.87813 0.0
C460 C 0.57647 0.24105 0.86428 0.0
C461 C 0.58015 0.238 0.83634 0.0
C462 C 0.57106 0.21149 0.82219 0.0
C463 C 0.55838 0.18837 0.836 0.0
C464 C 0.5551 0.19221 0.86438 0.0
H465 H 0.19074 0.18948 0.06225 0.0
H466 H 0.20909 0.2765 0.04496 0.0
H467 H 0.16745 0.28468 0.06874 0.0
H468 H 0.11642 0.17969 0.05517 0.0
H469 H 0.11051 0.15746 0.08249 0.0
H470 H 0.14052 0.15816 0.06224 0.0
H471 H 0.17084 0.17083 0.10573 0.0
H472 H 0.14097 0.17023 0.12608 0.0
H473 H 0.16754 0.20116 0.12828 0.0
H474 H 0.12668 0.28438 0.09898 0.0
H475 H 0.08834 0.27479 0.13062 0.0
H476 H 0.09599 0.1875 0.12617 0.0
C477 C 0.18583 0.21017 0.06326 0.0
C478 C 0.20308 0.23236 0.0518 0.0
C479 C 0.19594 0.25914 0.05334 0.0
C480 C 0.17243 0.264 0.0669 0.0
C481 C 0.15612 0.24174 0.07843 0.0
C482 C 0.16237 0.21527 0.07644 0.0
C483 C 0.1421 0.19513 0.09135 0.0
C484 C 0.12646 0.1712 0.07163 0.0
C485 C 0.15621 0.18368 0.11421 0.0
C486 C 0.12379 0.21453 0.10256 0.0
C487 C 0.13219 0.24136 0.09497 0.0
C488 C 0.1196 0.26334 0.10463 0.0
C489 C 0.09793 0.25774 0.12261 0.0
C490 C 0.08901 0.23035 0.13045 0.0
C491 C 0.10195 0.2085 0.12 0.0
H492 H 0.3017 0.06468 0.20511 0.0
H493 H 0.2163 0.06821 0.21569 0.0
H494 H 0.21751 0.09478 0.17569 0.0
H495 H 0.32308 0.13232 0.18694 0.0
H496 H 0.34696 0.12393 0.1617 0.0
H497 H 0.33901 0.10254 0.1894 0.0
H498 H 0.32465 0.05824 0.15563 0.0
H499 H 0.33303 0.07941 0.12776 0.0
H500 H 0.29951 0.058 0.12957 0.0
H501 H 0.22943 0.12619 0.1385 0.0
H502 H 0.24969 0.15502 0.10255 0.0
H503 H 0.32677 0.12937 0.1143 0.0
C504 C 0.28306 0.07036 0.19856 0.0
C505 C 0.25887 0.06422 0.21352 0.0
C506 C 0.235 0.07234 0.20445 0.0
C507 C 0.23551 0.08763 0.18182 0.0
C508 C 0.25992 0.09422 0.16815 0.0
C509 C 0.28312 0.08533 0.17577 0.0
C510 C 0.30692 0.09599 0.15807 0.0
C511 C 0.33037 0.11481 0.17505 0.0
C512 C 0.31659 0.07145 0.14178 0.0
C513 C 0.29365 0.11283 0.13975 0.0
C514 C 0.26657 0.11164 0.14603 0.0
C515 C 0.25048 0.12687 0.13307 0.0
C516 C 0.26224 0.14337 0.11283 0.0
C517 C 0.28976 0.14432 0.10553 0.0
C518 C 0.3056 0.1288 0.11923 0.0
H519 H 0.45368 0.05466 0.44914 0.0
H520 H 0.44122 0.96456 0.42871 0.0
H521 H 0.41488 0.96914 0.38795 0.0
H522 H 0.38915 0.06293 0.43043 0.0
H523 H 0.40031 0.09608 0.41668 0.0
H524 H 0.42012 0.08602 0.44295 0.0
H525 H 0.46258 0.09248 0.41244 0.0
H526 H 0.44291 0.10271 0.38607 0.0
H527 H 0.46057 0.07407 0.37899 0.0
H528 H 0.38648 0.98313 0.35168 0.0
H529 H 0.35941 0.00577 0.32201 0.0
H530 H 0.39183 0.08665 0.36556 0.0
C531 C 0.44609 0.03591 0.43583 0.0
C532 C 0.44958 0.00922 0.4423 0.0
C533 C 0.43859 0.98521 0.42447 0.0
C534 C 0.42375 0.98762 0.40113 0.0
C535 C 0.42031 0.0142 0.3957 0.0
C536 C 0.43137 0.03795 0.41242 0.0
C537 C 0.4236 0.06391 0.40284 0.0
C538 C 0.40732 0.07805 0.42451 0.0
C539 C 0.44893 0.08451 0.39459 0.0
C540 C 0.40593 0.05099 0.37843 0.0
C541 C 0.40435 0.02231 0.37456 0.0
C542 C 0.38786 0.00562 0.35429 0.0
C543 C 0.37246 0.0186 0.33765 0.0
C544 C 0.37372 0.04795 0.34138 0.0
C545 C 0.39095 0.06429 0.36184 0.0
H546 H 0.46124 0.09039 0.72402 0.0
H547 H 0.54678 0.08746 0.7338 0.0
H548 H 0.54701 0.06526 0.68704 0.0
H549 H 0.44203 0.0247 0.68839 0.0
H550 H 0.41803 0.03441 0.66581 0.0
H551 H 0.42512 0.05326 0.69881 0.0
H552 H 0.43847 0.10007 0.67695 0.0
H553 H 0.43115 0.0814 0.64382 0.0
H554 H 0.46412 0.10338 0.65123 0.0
H555 H 0.53695 0.03888 0.64158 0.0
H556 H 0.51785 0.01203 0.59912 0.0
H557 H 0.43881 0.03229 0.61813 0.0
C558 C 0.4802 0.08571 0.71612 0.0
C559 C 0.50402 0.09076 0.73258 0.0
C560 C 0.52829 0.08389 0.72159 0.0
C561 C 0.52864 0.07128 0.69503 0.0
C562 C 0.50462 0.06584 0.67964 0.0
C563 C 0.48091 0.07309 0.68962 0.0
C564 C 0.45751 0.06338 0.6694 0.0
C565 C 0.43431 0.04271 0.68132 0.0
C566 C 0.44721 0.08856 0.65978 0.0
C567 C 0.47162 0.04887 0.64682 0.0
C568 C 0.49883 0.05071 0.65313 0.0
C569 C 0.51578 0.03764 0.63622 0.0
C570 C 0.50467 0.0223 0.6122 0.0
C571 C 0.47683 0.02013 0.60523 0.0
C572 C 0.4602 0.03382 0.62274 0.0
H573 H 0.40762 0.07198 0.87889 0.0
H574 H 0.43632 0.1507 0.8445 0.0
H575 H 0.40339 0.17237 0.87206 0.0
H576 H 0.33527 0.07781 0.88388 0.0
H577 H 0.33136 0.06238 0.91565 0.0
H578 H 0.35529 0.05239 0.89123 0.0
H579 H 0.39395 0.06603 0.92758 0.0
H580 H 0.3702 0.07613 0.95204 0.0
H581 H 0.40048 0.1009 0.94492 0.0
H582 H 0.37 0.18632 0.90575 0.0
H583 H 0.33866 0.19173 0.94353 0.0
H584 H 0.33201 0.10392 0.95606 0.0
C585 C 0.4065 0.09356 0.87665 0.0
C586 C 0.42445 0.10966 0.85951 0.0
C587 C 0.42288 0.13808 0.85768 0.0
C588 C 0.40412 0.15049 0.87309 0.0
C589 C 0.38704 0.13415 0.89014 0.0
C590 C 0.38798 0.10628 0.89195 0.0
C591 C 0.36872 0.09389 0.91318 0.0
C592 C 0.34633 0.07022 0.9002 0.0
C593 C 0.38427 0.08365 0.93576 0.0
C594 C 0.35723 0.11932 0.92344 0.0
C595 C 0.36786 0.14225 0.90971 0.0
C596 C 0.36134 0.16846 0.9165 0.0
C597 C 0.34369 0.17137 0.9381 0.0
C598 C 0.33288 0.14825 0.95274 0.0
C599 C 0.33952 0.12184 0.94497 0.0
H600 H 0.78363 0.40758 0.08642 0.0
H601 H 0.77312 0.4927 0.11018 0.0
H602 H 0.72777 0.48192 0.08801 0.0
H603 H 0.75474 0.40195 0.02177 0.0
H604 H 0.73806 0.36568 0.02134 0.0
H605 H 0.76834 0.37871 0.04178 0.0
H606 H 0.74276 0.36183 0.08452 0.0
H607 H 0.71243 0.34841 0.06415 0.0
H608 H 0.71138 0.37303 0.09345 0.0
H609 H 0.68613 0.4638 0.05954 0.0
H610 H 0.64919 0.43862 0.02861 0.0
H611 H 0.686 0.36479 0.02323 0.0
C612 C 0.77151 0.42375 0.08758 0.0
C613 C 0.7819 0.45099 0.10017 0.0
C614 C 0.76559 0.47169 0.10075 0.0
C615 C 0.73979 0.46576 0.0882 0.0
C616 C 0.73052 0.439 0.07527 0.0
C617 C 0.7457 0.41821 0.07508 0.0
C618 C 0.73161 0.3917 0.05836 0.0
C619 C 0.74924 0.38408 0.0344 0.0
C620 C 0.7241 0.3673 0.07619 0.0
C621 C 0.70643 0.40108 0.04871 0.0
C622 C 0.70623 0.42841 0.05882 0.0
C623 C 0.68586 0.44226 0.05178 0.0
C624 C 0.66503 0.42779 0.03404 0.0
C625 C 0.66462 0.39967 0.02352 0.0
C626 C 0.6856 0.38616 0.03111 0.0
H627 H 0.03843 0.4398 0.29855 0.0
H628 H 0.08057 0.41611 0.36631 0.0
H629 H 0.0812 0.36994 0.3412 0.0
H630 H 0.99654 0.37184 0.27871 0.0
H631 H 0.99962 0.37543 0.24291 0.0
H632 H 0.00164 0.40614 0.26659 0.0
H633 H 0.0485 0.42749 0.24757 0.0
H634 H 0.04668 0.39687 0.22383 0.0
H635 H 0.07554 0.40786 0.2467 0.0
H636 H 0.07627 0.32632 0.30928 0.0
H637 H 0.06904 0.28895 0.27132 0.0
H638 H 0.03234 0.3421 0.2232 0.0
C639 C 0.04753 0.42473 0.30812 0.0
C640 C 0.05931 0.43126 0.33437 0.0
C641 C 0.07157 0.41138 0.34615 0.0
C642 C 0.07189 0.38515 0.33212 0.0
C643 C 0.06015 0.37937 0.30623 0.0
C644 C 0.0484 0.39866 0.29422 0.0
C645 C 0.03818 0.38762 0.26575 0.0
C646 C 0.00715 0.38511 0.26337 0.0
C647 C 0.05313 0.40606 0.24473 0.0
C648 C 0.04596 0.35906 0.26367 0.0
C649 C 0.05833 0.35463 0.28735 0.0
C650 C 0.06675 0.32957 0.29057 0.0
C651 C 0.06251 0.30848 0.26895 0.0
C652 C 0.05032 0.31276 0.24433 0.0
C653 C 0.042 0.33841 0.2417 0.0
H654 H 0.97205 0.74727 0.5909 0.0
H655 H 0.00799 0.68638 0.62926 0.0
H656 H 0.053 0.70702 0.6121 0.0
H657 H 0.01114 0.74696 0.53095 0.0
H658 H 0.01458 0.78399 0.52797 0.0
H659 H 0.98537 0.76537 0.54437 0.0
H660 H 0.99623 0.8004 0.58736 0.0
H661 H 0.0255 0.81914 0.57109 0.0
H662 H 0.02942 0.80597 0.60333 0.0
H663 H 0.09375 0.73276 0.58906 0.0
H664 H 0.12741 0.76217 0.56208 0.0
H665 H 0.06525 0.80648 0.53879 0.0
C666 C 0.98942 0.73842 0.59591 0.0
C667 C 0.98644 0.7152 0.61151 0.0
C668 C 0.0097 0.70417 0.61742 0.0
C669 C 0.0354 0.71577 0.60778 0.0
C670 C 0.03758 0.73848 0.59231 0.0
C671 C 0.01525 0.74977 0.58647 0.0
C672 C 0.02305 0.77371 0.56878 0.0
C673 C 0.00762 0.7671 0.5414 0.0
C674 C 0.01827 0.80145 0.58353 0.0
C675 C 0.05318 0.77392 0.56536 0.0
C676 C 0.06114 0.75345 0.57915 0.0
C677 C 0.08777 0.74895 0.5783 0.0
C678 C 0.10672 0.76566 0.56281 0.0
C679 C 0.09904 0.78668 0.54836 0.0
C680 C 0.0719 0.79093 0.54994 0.0
H681 H 0.10277 0.61613 0.35549 0.0
H682 H 0.06869 0.58568 0.43026 0.0
H683 H 0.09761 0.62585 0.45651 0.0
H684 H 0.17222 0.64456 0.38202 0.0
H685 H 0.1764 0.67479 0.36302 0.0
H686 H 0.15477 0.64232 0.34986 0.0
H687 H 0.11446 0.66797 0.34594 0.0
H688 H 0.136 0.70049 0.35889 0.0
H689 H 0.10448 0.68793 0.37543 0.0
H690 H 0.12775 0.67012 0.47466 0.0
H691 H 0.15533 0.71774 0.48354 0.0
H692 H 0.17011 0.72051 0.39736 0.0
C693 C 0.10164 0.61777 0.37739 0.0
C694 C 0.08352 0.59769 0.3908 0.0
C695 C 0.08237 0.60079 0.41949 0.0
C696 C 0.09886 0.62345 0.43463 0.0
C697 C 0.11642 0.64289 0.42083 0.0
C698 C 0.11787 0.64045 0.39288 0.0
C699 C 0.13716 0.66541 0.38312 0.0
C700 C 0.16159 0.65621 0.36865 0.0
C701 C 0.12212 0.6814 0.36477 0.0
C702 C 0.14579 0.6825 0.40994 0.0
C703 C 0.13383 0.66886 0.43141 0.0
C704 C 0.13746 0.68093 0.45806 0.0
C705 C 0.15317 0.708 0.46289 0.0
C706 C 0.165 0.7228 0.44117 0.0
C707 C 0.16173 0.70956 0.41441 0.0
H708 H 0.72445 0.55853 0.88767 0.0
H709 H 0.68026 0.62651 0.90212 0.0
H710 H 0.6396 0.59265 0.91443 0.0
H711 H 0.66738 0.5046 0.86016 0.0
H712 H 0.67838 0.47734 0.87679 0.0
H713 H 0.70309 0.5066 0.86697 0.0
H714 H 0.72148 0.51716 0.91648 0.0
H715 H 0.69678 0.48804 0.92647 0.0
H716 H 0.69836 0.52263 0.9435 0.0
H717 H 0.60431 0.55137 0.92707 0.0
H718 H 0.57797 0.50656 0.9404 0.0
H719 H 0.64574 0.466 0.91841 0.0
C720 C 0.70608 0.56627 0.89295 0.0
C721 C 0.70546 0.59516 0.89368 0.0
C722 C 0.68118 0.60446 0.90129 0.0
C723 C 0.65797 0.58538 0.90828 0.0
C724 C 0.65941 0.55708 0.90769 0.0
C725 C 0.68288 0.54759 0.90025 0.0
C726 C 0.67971 0.51644 0.90278 0.0
C727 C 0.68229 0.5003 0.87502 0.0
C728 C 0.7003 0.51075 0.92354 0.0
C729 C 0.65087 0.5099 0.91304 0.0
C730 C 0.6394 0.53354 0.9155 0.0
C731 C 0.61306 0.5327 0.92505 0.0
C732 C 0.59818 0.50709 0.93246 0.0
C733 C 0.60972 0.48268 0.9305 0.0
C734 C 0.63638 0.48426 0.92043 0.0
H735 H 0.7294 0.86979 0.81375 0.0
H736 H 0.8114 0.88185 0.78261 0.0
H737 H 0.82355 0.85057 0.81507 0.0
H738 H 0.74701 0.86269 0.8855 0.0
H739 H 0.71706 0.83596 0.88861 0.0
H740 H 0.71649 0.86308 0.86643 0.0
H741 H 0.70124 0.82515 0.82634 0.0
H742 H 0.70188 0.798 0.84828 0.0
H743 H 0.7216 0.79901 0.81778 0.0
H744 H 0.82449 0.81251 0.84615 0.0
H745 H 0.8146 0.77222 0.87372 0.0
H746 H 0.73152 0.78457 0.88328 0.0
C747 C 0.75007 0.8663 0.8141 0.0
C748 C 0.76945 0.87826 0.79563 0.0
C749 C 0.79632 0.87325 0.7968 0.0
C750 C 0.80336 0.85541 0.81512 0.0
C751 C 0.78337 0.84307 0.83232 0.0
C752 C 0.75734 0.84858 0.83213 0.0
C753 C 0.73883 0.83081 0.85069 0.0
C754 C 0.7293 0.84924 0.87421 0.0
C755 C 0.71447 0.81214 0.83481 0.0
C756 C 0.7582 0.81361 0.86062 0.0
C757 C 0.7839 0.8212 0.85011 0.0
C758 C 0.80457 0.80673 0.85483 0.0
C759 C 0.7987 0.78373 0.87036 0.0
C760 C 0.77231 0.77524 0.88082 0.0
C761 C 0.75206 0.79085 0.87622 0.0
H762 H 0.9553 0.28199 0.18603 0.0
H763 H 0.93578 0.21405 0.12195 0.0
H764 H 0.91013 0.24265 0.09735 0.0
H765 H 0.89096 0.30832 0.18239 0.0
H766 H 0.90836 0.34433 0.18881 0.0
H767 H 0.92166 0.31695 0.20294 0.0
H768 H 0.968 0.3335 0.18039 0.0
H769 H 0.95481 0.3607 0.16598 0.0
H770 H 0.96906 0.33567 0.14427 0.0
H771 H 0.89166 0.28098 0.07722 0.0
H772 H 0.8794 0.32478 0.06457 0.0
H773 H 0.91217 0.36764 0.14158 0.0
C774 C 0.94524 0.27294 0.16704 0.0
C775 C 0.94755 0.2458 0.1559 0.0
C776 C 0.93399 0.23463 0.13105 0.0
C777 C 0.91951 0.25079 0.11687 0.0
C778 C 0.91858 0.27792 0.12798 0.0
C779 C 0.93081 0.28875 0.15269 0.0
C780 C 0.92847 0.31906 0.15945 0.0
C781 C 0.91133 0.32234 0.1849 0.0
C782 C 0.95676 0.33835 0.1627 0.0
C783 C 0.91368 0.32389 0.13429 0.0
C784 C 0.90797 0.2999 0.11645 0.0
C785 C 0.89572 0.29978 0.0912 0.0
C786 C 0.88906 0.32481 0.08408 0.0
C787 C 0.89472 0.34962 0.10212 0.0
C788 C 0.90708 0.34893 0.12758 0.0
H789 H 0.82583 0.77761 0.59758 0.0
H790 H 0.79893 0.70634 0.64373 0.0
H791 H 0.7622 0.72886 0.66326 0.0
H792 H 0.81817 0.82822 0.64795 0.0
H793 H 0.80683 0.85136 0.62616 0.0
H794 H 0.82808 0.82773 0.61293 0.0
H795 H 0.792 0.80675 0.57528 0.0
H796 H 0.77058 0.83043 0.58841 0.0
H797 H 0.75743 0.79316 0.58451 0.0
H798 H 0.73138 0.76193 0.68139 0.0
H799 H 0.71133 0.80301 0.69758 0.0
H800 H 0.75883 0.8516 0.63891 0.0
C801 C 0.81171 0.7662 0.61103 0.0
C802 C 0.81523 0.74007 0.61892 0.0
C803 C 0.79675 0.72642 0.63742 0.0
C804 C 0.77566 0.73895 0.64846 0.0
C805 C 0.77317 0.76504 0.64063 0.0
C806 C 0.79069 0.7784 0.62222 0.0
C807 C 0.78564 0.80745 0.61906 0.0
C808 C 0.81118 0.83 0.62701 0.0
C809 C 0.77582 0.80956 0.59009 0.0
C810 C 0.76313 0.80878 0.63921 0.0
C811 C 0.75579 0.78402 0.65118 0.0
C812 C 0.73666 0.78125 0.67181 0.0
C813 C 0.72531 0.80462 0.68084 0.0
C814 C 0.73349 0.83041 0.66945 0.0
C815 C 0.75206 0.83211 0.64792 0.0
H816 H 0.78479 0.70724 0.79923 0.0
H817 H 0.81866 0.64029 0.82912 0.0
H818 H 0.85267 0.64446 0.79277 0.0
H819 H 0.79333 0.68896 0.72795 0.0
H820 H 0.80246 0.72491 0.72023 0.0
H821 H 0.78048 0.71605 0.74821 0.0
H822 H 0.81347 0.75204 0.78046 0.0
H823 H 0.83573 0.76075 0.75262 0.0
H824 H 0.84876 0.74927 0.78259 0.0
H825 H 0.88214 0.65506 0.75257 0.0
H826 H 0.90482 0.67113 0.71091 0.0
H827 H 0.85348 0.73297 0.70883 0.0
C828 C 0.79915 0.69322 0.79793 0.0
C829 C 0.79896 0.67325 0.81685 0.0
C830 C 0.8184 0.65566 0.81477 0.0
C831 C 0.83783 0.65793 0.79426 0.0
C832 C 0.83773 0.67812 0.77619 0.0
C833 C 0.81892 0.69547 0.77781 0.0
C834 C 0.82346 0.71566 0.75607 0.0
C835 C 0.79845 0.71111 0.73698 0.0
C836 C 0.83079 0.74624 0.7687 0.0
C837 C 0.84756 0.70671 0.74176 0.0
C838 C 0.85545 0.68499 0.75367 0.0
C839 C 0.87634 0.67224 0.74322 0.0
C840 C 0.88914 0.68153 0.71962 0.0
C841 C 0.88118 0.70354 0.70694 0.0
C842 C 0.86045 0.71657 0.71848 0.0
H843 H 0.84152 0.64091 0.99609 0.0
H844 H 0.7993 0.5822 0.93145 0.0
H845 H 0.81252 0.54315 0.95257 0.0
H846 H 0.89847 0.60608 0.00226 0.0
H847 H 0.90108 0.6134 0.03861 0.0
H848 H 0.88827 0.63699 0.01843 0.0
H849 H 0.8442 0.63173 0.04661 0.0
H850 H 0.85691 0.60821 0.06692 0.0
H851 H 0.82433 0.5972 0.04978 0.0
H852 H 0.82953 0.51021 0.98104 0.0
H853 H 0.84926 0.48581 0.01521 0.0
H854 H 0.88138 0.56587 0.06052 0.0
C855 C 0.83525 0.61992 0.98618 0.0
C856 C 0.81919 0.6148 0.96212 0.0
C857 C 0.81116 0.58682 0.9501 0.0
C858 C 0.81877 0.56443 0.96183 0.0
C859 C 0.83457 0.57027 0.9855 0.0
C860 C 0.84277 0.59731 0.99754 0.0
C861 C 0.85944 0.59781 0.02311 0.0
C862 C 0.88854 0.61456 0.02043 0.0
C863 C 0.84537 0.60942 0.04808 0.0
C864 C 0.8592 0.5668 0.0236 0.0
C865 C 0.84474 0.55129 0.00172 0.0
C866 C 0.84101 0.52214 0.99821 0.0
C867 C 0.85219 0.50846 0.01773 0.0
C868 C 0.86695 0.52393 0.04041 0.0
C869 C 0.87065 0.55351 0.04316 0.0
H870 H 0.92146 0.46221 0.18073 0.0
H871 H 0.86854 0.52093 0.20337 0.0
H872 H 0.89648 0.53806 0.24479 0.0
H873 H 0.93502 0.44556 0.24864 0.0
H874 H 0.9701 0.44397 0.24188 0.0
H875 H 0.94509 0.43543 0.21478 0.0
H876 H 0.97409 0.47277 0.18729 0.0
H877 H 0.99904 0.48161 0.21443 0.0
H878 H 0.98352 0.50852 0.20219 0.0
H879 H 0.93004 0.54869 0.28378 0.0
H880 H 0.9673 0.55246 0.31741 0.0
H881 H 0.99973 0.48865 0.26809 0.0
C882 C 0.91554 0.47842 0.19457 0.0
C883 C 0.8927 0.49012 0.18894 0.0
C884 C 0.88591 0.51163 0.20733 0.0
C885 C 0.90166 0.5215 0.23089 0.0
C886 C 0.92427 0.50982 0.23565 0.0
C887 C 0.93124 0.48877 0.21801 0.0
C888 C 0.95704 0.48042 0.22744 0.0
C889 C 0.95147 0.44951 0.23355 0.0
C890 C 0.97976 0.48619 0.20659 0.0
C891 C 0.96346 0.50006 0.25313 0.0
C892 C 0.9442 0.5167 0.25759 0.0
C893 C 0.94534 0.53589 0.28043 0.0
C894 C 0.96657 0.53791 0.29939 0.0
C895 C 0.98654 0.52109 0.29519 0.0
C896 C 0.98504 0.50214 0.2716 0.0
H897 H 0.98635 0.56145 0.4657 0.0
H898 H 0.92214 0.48765 0.45128 0.0
H899 H 0.89579 0.50618 0.48846 0.0
H900 H 0.98159 0.56907 0.53836 0.0
H901 H 0.98811 0.60687 0.54074 0.0
H902 H 0.00205 0.5875 0.51327 0.0
H903 H 0.97902 0.61247 0.47862 0.0
H904 H 0.96495 0.63185 0.50598 0.0
H905 H 0.94279 0.61102 0.47995 0.0
H906 H 0.87604 0.53329 0.52646 0.0
H907 H 0.86468 0.56646 0.56328 0.0
H908 H 0.94203 0.62241 0.55298 0.0
C909 C 0.96668 0.54924 0.47021 0.0
C910 C 0.95631 0.52308 0.45552 0.0
C911 C 0.93066 0.50756 0.46242 0.0
C912 C 0.91547 0.518 0.4834 0.0
C913 C 0.92625 0.54394 0.49731 0.0
C914 C 0.9513 0.55931 0.49107 0.0
C915 C 0.95831 0.58659 0.50916 0.0
C916 C 0.98404 0.58755 0.52641 0.0
C917 C 0.96144 0.61198 0.49242 0.0
C918 C 0.93317 0.58423 0.52645 0.0
C919 C 0.91494 0.55949 0.5193 0.0
C920 C 0.89022 0.55267 0.53235 0.0
C921 C 0.88402 0.57161 0.55336 0.0
C922 C 0.90248 0.59706 0.56118 0.0
C923 C 0.92733 0.60335 0.54738 0.0
loop_
_geom_bond_atom_site_label_1
_geom_bond_atom_site_label_2
_geom_bond_distance
_geom_bond_site_symmetry_2
_ccdc_geom_bond_type
Cu0 N1 1.999 . S
Cu0 O6 1.974 . S
Cu0 N11 1.985 . S
Cu0 O20 1.959 . S
N1 Cu0 1.999 . S
N1 C3 1.263 . S
N1 C5 1.389 . S
N2 C3 1.358 . S
N2 C4 1.400 . S
C3 N1 1.263 . S
C3 N2 1.358 . S
C3 H9 0.930 . S
C4 N2 1.400 . S
C4 C5 1.351 . S
C4 H21 0.930 . S
C5 N1 1.389 . S
C5 C4 1.351 . S
C5 H10 0.930 . S
O6 Cu0 1.974 . S
O6 C16 1.282 . S
C7 O8 1.261 . S
C7 O20 1.251 . S
O8 C7 1.261 . S
H9 C3 0.930 . S
H10 C5 0.930 . S
N11 Cu0 1.985 . S
N11 C13 1.335 1_455 S
N11 C14 1.390 . S
N12 C13 1.345 . S
N12 C15 1.336 1_655 S
C13 N11 1.335 1_655 S
C13 N12 1.345 . S
C13 H18 0.930 . S
C14 N11 1.390 . S
C14 C15 1.346 . S
C14 H19 0.930 . S
C15 N12 1.336 1_455 S
C15 C14 1.346 . S
C15 H22 0.929 . S
C16 O6 1.282 . S
C16 O17 1.216 . S
O17 C16 1.216 . S
H18 C13 0.930 . S
H19 C14 0.930 . S
O20 Cu0 1.959 . S
O20 C7 1.251 . S
H21 C4 0.930 . S
H22 C15 0.929 . S
Cu23 N24 1.999 . S
Cu23 O29 1.974 . S
Cu23 N34 1.985 . S
Cu23 O43 1.959 . S
N24 Cu23 1.999 . S
N24 C26 1.263 . S
N24 C28 1.389 . S
N25 C26 1.358 . S
N25 C27 1.400 . S
C26 N24 1.263 . S
C26 N25 1.358 . S
C26 H32 0.930 . S
C27 N25 1.400 . S
C27 C28 1.351 . S
C27 H44 0.930 . S
C28 N24 1.389 . S
C28 C27 1.351 . S
C28 H33 0.930 . S
O29 Cu23 1.974 . S
O29 C39 1.282 . S
C30 O31 1.261 . S
C30 O43 1.251 . S
O31 C30 1.261 . S
H32 C26 0.930 . S
H33 C28 0.930 . S
N34 Cu23 1.985 . S
N34 C36 1.335 . S
N34 C37 1.390 . S
N35 C36 1.345 . S
N35 C38 1.336 . S
C36 N34 1.335 . S
C36 N35 1.345 . S
C36 H41 0.930 . S
C37 N34 1.390 . S
C37 C38 1.346 . S
C37 H42 0.930 . S
C38 N35 1.336 . S
C38 C37 1.346 . S
C38 H45 0.929 . S
C39 O29 1.282 . S
C39 O40 1.216 . S
O40 C39 1.216 . S
H41 C36 0.930 . S
H42 C37 0.930 . S
O43 Cu23 1.959 . S
O43 C30 1.251 . S
H44 C27 0.930 . S
H45 C38 0.929 . S
Cu46 N47 1.999 . S
Cu46 O52 1.974 . S
Cu46 N57 1.985 . S
Cu46 O66 1.959 . S
N47 Cu46 1.999 . S
N47 C49 1.263 . S
N47 C51 1.389 . S
N48 C49 1.358 . S
N48 C50 1.400 . S
C49 N47 1.263 . S
C49 N48 1.358 . S
C49 H55 0.930 . S
C50 N48 1.400 . S
C50 C51 1.351 . S
C50 H67 0.930 . S
C51 N47 1.389 . S
C51 C50 1.351 . S
C51 H56 0.930 . S
O52 Cu46 1.974 . S
O52 C62 1.282 . S
C53 O54 1.261 . S
C53 O66 1.251 . S
O54 C53 1.261 . S
H55 C49 0.930 . S
H56 C51 0.930 . S
N57 Cu46 1.985 . S
N57 C59 1.335 . S
N57 C60 1.390 . S
N58 C59 1.345 . S
N58 C61 1.336 . S
C59 N57 1.335 . S
C59 N58 1.345 . S
C59 H64 0.930 . S
C60 N57 1.390 . S
C60 C61 1.346 . S
C60 H65 0.930 . S
C61 N58 1.336 . S
C61 C60 1.346 . S
C61 H68 0.929 . S
C62 O52 1.282 . S
C62 O63 1.216 . S
O63 C62 1.216 . S
H64 C59 0.930 . S
H65 C60 0.930 . S
O66 Cu46 1.959 . S
O66 C53 1.251 . S
H67 C50 0.930 . S
H68 C61 0.929 . S
Cu69 N70 1.999 . S
Cu69 O75 2.000 . S
Cu69 N80 1.985 . S
Cu69 O89 1.959 . S
N70 Cu69 1.999 . S
N70 C72 1.263 . S
N70 C74 1.389 . S
N71 C72 1.358 . S
N71 C73 1.400 . S
C72 N70 1.263 . S
C72 N71 1.358 . S
C72 H78 0.930 . S
C73 N71 1.400 . S
C73 C74 1.351 . S
C73 H90 0.930 . S
C74 N70 1.389 . S
C74 C73 1.351 . S
C74 H79 0.930 . S
O75 Cu69 2.000 . S
O75 C85 1.268 1_556 S
C76 O77 1.261 . S
C76 O89 1.251 . S
O77 C76 1.261 . S
H78 C72 0.930 . S
H79 C74 0.930 . S
N80 Cu69 1.985 . S
N80 C82 1.335 . S
N80 C83 1.390 1_556 S
N81 C82 1.345 . S
N81 C84 1.336 1_556 S
C82 N80 1.335 . S
C82 N81 1.345 . S
C82 H87 0.930 . S
C83 N80 1.390 1_554 S
C83 C84 1.346 . S
C83 H88 0.930 . S
C84 N81 1.336 1_554 S
C84 C83 1.346 . S
C84 H91 0.929 . S
C85 O75 1.268 1_554 S
C85 O86 1.216 . S
O86 C85 1.216 . S
H87 C82 0.930 . S
H88 C83 0.930 . S
O89 Cu69 1.959 . S
O89 C76 1.251 . S
H90 C73 0.930 . S
H91 C84 0.929 . S
Cu92 N93 1.999 . S
Cu92 O98 1.974 . S
Cu92 N103 1.985 . S
Cu92 O112 1.959 1_545 S
N93 Cu92 1.999 . S
N93 C95 1.263 . S
N93 C97 1.389 . S
N94 C95 1.358 . S
N94 C96 1.400 . S
C95 N93 1.263 . S
C95 N94 1.358 . S
C95 H101 0.930 . S
C96 N94 1.400 . S
C96 C97 1.351 . S
C96 H113 0.930 . S
C97 N93 1.389 . S
C97 C96 1.351 . S
C97 H102 0.930 . S
O98 Cu92 1.974 . S
O98 C108 1.282 . S
C99 O100 1.261 . S
C99 O112 1.251 . S
O100 C99 1.261 . S
H101 C95 0.930 . S
H102 C97 0.930 . S
N103 Cu92 1.985 . S
N103 C105 1.335 1_545 S
N103 C106 1.390 . S
N104 C105 1.345 . S
N104 C107 1.336 . S
C105 N103 1.335 1_565 S
C105 N104 1.345 . S
C105 H110 0.930 . S
C106 N103 1.390 . S
C106 C107 1.346 1_545 S
C106 H111 0.930 . S
C107 N104 1.336 . S
C107 C106 1.346 1_565 S
C107 H114 0.929 . S
C108 O98 1.282 . S
C108 O109 1.216 . S
O109 C108 1.216 . S
H110 C105 0.930 . S
H111 C106 0.930 . S
O112 Cu92 1.959 1_565 S
O112 C99 1.251 . S
H113 C96 0.930 . S
H114 C107 0.929 . S
Cu115 N116 1.999 . S
Cu115 O121 1.974 . S
Cu115 N126 1.985 . S
Cu115 O135 1.959 . S
N116 Cu115 1.999 . S
N116 C118 1.263 . S
N116 C120 1.389 1_565 S
N117 C118 1.358 . S
N117 C119 1.400 1_565 S
C118 N116 1.263 . S
C118 N117 1.358 . S
C118 H124 0.930 . S
C119 N117 1.400 1_545 S
C119 C120 1.351 . S
C119 H136 0.930 . S
C120 N116 1.389 1_545 S
C120 C119 1.351 . S
C120 H125 0.930 . S
O121 Cu115 1.974 . S
O121 C131 1.282 . S
C122 O123 1.261 1_545 S
C122 O135 1.251 1_545 S
O123 C122 1.261 1_565 S
H124 C118 0.930 . S
H125 C120 0.930 . S
N126 Cu115 1.985 . S
N126 C128 1.335 . S
N126 C129 1.390 . S
N127 C128 1.345 . S
N127 C130 1.336 . S
C128 N126 1.335 . S
C128 N127 1.345 . S
C128 H133 0.930 . S
C129 N126 1.390 . S
C129 C130 1.346 . S
C129 H134 0.930 . S
C130 N127 1.336 . S
C130 C129 1.346 . S
C130 H137 0.929 . S
C131 O121 1.282 . S
C131 O132 1.216 . S
O132 C131 1.216 . S
H133 C128 0.930 . S
H134 C129 0.930 . S
O135 Cu115 1.959 . S
O135 C122 1.251 1_565 S
H136 C119 0.930 . S
H137 C130 0.929 . S
Cu138 N139 1.999 . S
Cu138 O144 1.974 . S
Cu138 N149 1.985 . S
Cu138 O158 1.959 . S
N139 Cu138 1.999 . S
N139 C141 1.263 . S
N139 C143 1.389 . S
N140 C141 1.358 . S
N140 C142 1.400 . S
C141 N139 1.263 . S
C141 N140 1.358 . S
C141 H147 0.930 . S
C142 N140 1.400 . S
C142 C143 1.351 . S
C142 H159 0.930 . S
C143 N139 1.389 . S
C143 C142 1.351 . S
C143 H148 0.930 . S
O144 Cu138 1.974 . S
O144 C154 1.282 . S
C145 O146 1.261 . S
C145 O158 1.251 . S
O146 C145 1.261 . S
H147 C141 0.930 . S
H148 C143 0.930 . S
N149 Cu138 1.985 . S
N149 C151 1.335 . S
N149 C152 1.390 . S
N150 C151 1.345 . S
N150 C153 1.336 . S
C151 N149 1.335 . S
C151 N150 1.345 . S
C151 H156 0.930 . S
C152 N149 1.390 . S
C152 C153 1.346 . S
C152 H157 0.930 . S
C153 N150 1.336 . S
C153 C152 1.346 . S
C153 H160 0.929 . S
C154 O144 1.282 . S
C154 O155 1.216 . S
O155 C154 1.216 . S
H156 C151 0.930 . S
H157 C152 0.930 . S
O158 Cu138 1.959 . S
O158 C145 1.251 . S
H159 C142 0.930 . S
H160 C153 0.929 . S
Cu161 N162 1.999 1_554 S
Cu161 O167 1.974 1_554 S
Cu161 N172 1.985 . S
Cu161 O181 1.959 . S
N162 Cu161 1.999 1_556 S
N162 C164 1.263 . S
N162 C166 1.389 . S
N163 C164 1.358 . S
N163 C165 1.400 . S
C164 N162 1.263 . S
C164 N163 1.358 . S
C164 H170 0.930 . S
C165 N163 1.400 . S
C165 C166 1.351 . S
C165 H182 0.930 . S
C166 N162 1.389 . S
C166 C165 1.351 . S
C166 H171 0.930 . S
O167 Cu161 1.974 1_556 S
O167 C177 1.282 1_556 S
C168 O169 1.261 . S
C168 O181 1.251 . S
O169 C168 1.261 . S
H170 C164 0.930 . S
H171 C166 0.930 . S
N172 Cu161 1.985 . S
N172 C174 1.335 . S
N172 C175 1.390 . S
N173 C174 1.345 . S
N173 C176 1.336 . S
C174 N172 1.335 . S
C174 N173 1.345 . S
C174 H179 0.930 . S
C175 N172 1.390 . S
C175 C176 1.346 . S
C175 H180 0.930 . S
C176 N173 1.336 . S
C176 C175 1.346 . S
C176 H183 0.929 . S
C177 O167 1.282 1_554 S
C177 O178 1.216 . S
O178 C177 1.216 . S
H179 C174 0.930 . S
H180 C175 0.930 . S
O181 Cu161 1.959 . S
O181 C168 1.251 . S
H182 C165 0.930 . S
H183 C176 0.929 . S
Cu184 N185 1.999 . S
Cu184 O190 1.974 . S
Cu184 N195 1.985 . S
Cu184 O204 1.959 . S
N185 Cu184 1.999 . S
N185 C187 1.263 . S
N185 C189 1.389 . S
N186 C187 1.358 . S
N186 C188 1.400 . S
C187 N185 1.263 . S
C187 N186 1.358 . S
C187 H193 0.930 . S
C188 N186 1.400 . S
C188 C189 1.351 . S
C188 H205 0.930 . S
C189 N185 1.389 . S
C189 C188 1.351 . S
C189 H194 0.930 . S
O190 Cu184 1.974 . S
O190 C200 1.282 . S
C191 O192 1.261 . S
C191 O204 1.251 . S
O192 C191 1.261 . S
H193 C187 0.930 . S
H194 C189 0.930 . S
N195 Cu184 1.985 . S
N195 C197 1.335 . S
N195 C198 1.390 . S
N196 C197 1.345 . S
N196 C199 1.336 . S
C197 N195 1.335 . S
C197 N196 1.345 . S
C197 H202 0.930 . S
C198 N195 1.390 . S
C198 C199 1.346 . S
C198 H203 0.930 . S
C199 N196 1.336 . S
C199 C198 1.346 . S
C199 H206 0.929 . S
C200 O190 1.282 . S
C200 O201 1.216 . S
O201 C200 1.216 . S
H202 C197 0.930 . S
H203 C198 0.930 . S
O204 Cu184 1.959 . S
O204 C191 1.251 . S
H205 C188 0.930 . S
H206 C199 0.929 . S
Cu207 N208 1.999 1_655 S
Cu207 O213 1.974 . S
Cu207 N218 1.985 . S
Cu207 O227 1.959 1_655 S
N208 Cu207 1.999 1_455 S
N208 C210 1.263 . S
N208 C212 1.389 . S
N209 C210 1.358 . S
N209 C211 1.400 . S
C210 N208 1.263 . S
C210 N209 1.358 . S
C210 H216 0.930 1_455 S
C211 N209 1.400 . S
C211 C212 1.351 . S
C211 H228 0.930 . S
C212 N208 1.389 . S
C212 C211 1.351 . S
C212 H217 0.930 . S
O213 Cu207 1.974 . S
O213 C223 1.282 . S
C214 O215 1.261 . S
C214 O227 1.251 . S
O215 C214 1.261 . S
H216 C210 0.930 1_655 S
H217 C212 0.930 . S
N218 Cu207 1.985 . S
N218 C220 1.335 . S
N218 C221 1.390 . S
N219 C220 1.345 . S
N219 C222 1.336 . S
C220 N218 1.335 . S
C220 N219 1.345 . S
C220 H225 0.930 . S
C221 N218 1.390 . S
C221 C222 1.346 . S
C221 H226 0.930 . S
C222 N219 1.336 . S
C222 C221 1.346 . S
C222 H229 0.929 . S
C223 O213 1.282 . S
C223 O224 1.216 . S
O224 C223 1.216 . S
H225 C220 0.930 . S
H226 C221 0.930 . S
O227 Cu207 1.959 1_455 S
O227 C214 1.251 . S
H228 C211 0.930 . S
H229 C222 0.929 . S
Cu230 N231 1.999 . S
Cu230 O236 1.974 . S
Cu230 N241 1.985 . S
Cu230 O250 1.959 . S
N231 Cu230 1.999 . S
N231 C233 1.263 . S
N231 C235 1.389 . S
N232 C233 1.358 . S
N232 C234 1.400 . S
C233 N231 1.263 . S
C233 N232 1.358 . S
C233 H239 0.930 . S
C234 N232 1.400 . S
C234 C235 1.351 . S
C234 H251 0.930 . S
C235 N231 1.389 . S
C235 C234 1.351 . S
C235 H240 0.930 . S
O236 Cu230 1.974 . S
O236 C246 1.282 . S
C237 O238 1.261 . S
C237 O250 1.251 . S
O238 C237 1.261 . S
H239 C233 0.930 . S
H240 C235 0.930 . S
N241 Cu230 1.985 . S
N241 C243 1.335 . S
N241 C244 1.390 . S
N242 C243 1.345 . S
N242 C245 1.336 . S
C243 N241 1.335 . S
C243 N242 1.345 . S
C243 H248 0.930 . S
C244 N241 1.390 . S
C244 C245 1.346 . S
C244 H249 0.930 . S
C245 N242 1.336 . S
C245 C244 1.346 . S
C245 H252 0.929 . S
C246 O236 1.282 . S
C246 O247 1.216 1_655 S
O247 C246 1.216 1_455 S
H248 C243 0.930 . S
H249 C244 0.930 . S
O250 Cu230 1.959 . S
O250 C237 1.251 . S
H251 C234 0.930 . S
H252 C245 0.929 . S
Cu253 N254 1.999 . S
Cu253 O259 1.974 . S
Cu253 N264 1.985 . S
Cu253 O273 1.959 . S
N254 Cu253 1.999 . S
N254 C256 1.263 . S
N254 C258 1.389 . S
N255 C256 1.358 . S
N255 C257 1.400 . S
C256 N254 1.263 . S
C256 N255 1.358 . S
C256 H262 0.930 . S
C257 N255 1.400 . S
C257 C258 1.351 . S
C257 H274 0.930 . S
C258 N254 1.389 . S
C258 C257 1.351 . S
C258 H263 0.930 . S
O259 Cu253 1.974 . S
O259 C269 1.282 . S
C260 O261 1.261 . S
C260 O273 1.251 . S
O261 C260 1.261 . S
H262 C256 0.930 . S
H263 C258 0.930 . S
N264 Cu253 1.985 . S
N264 C266 1.335 . S
N264 C267 1.390 . S
N265 C266 1.345 . S
N265 C268 1.336 . S
C266 N264 1.335 . S
C266 N265 1.345 . S
C266 H271 0.930 . S
C267 N264 1.390 . S
C267 C268 1.346 . S
C267 H272 0.930 . S
C268 N265 1.336 . S
C268 C267 1.346 . S
C268 H275 0.929 . S
C269 O259 1.282 . S
C269 O270 1.216 . S
O270 C269 1.216 . S
H271 C266 0.930 . S
H272 C267 0.930 . S
O273 Cu253 1.959 . S
O273 C260 1.251 . S
H274 C257 0.930 . S
H275 C268 0.929 . S
H276 C288 0.930 . S
H277 C290 0.930 . S
H278 C291 0.930 . S
H279 C295 0.959 . S
H280 C295 0.959 . S
H281 C295 0.961 . S
H282 C296 0.960 . S
H283 C296 0.961 . S
H284 C296 0.959 . S
H285 C299 0.929 . S
H286 C300 0.931 . S
H287 C302 0.930 . S
C288 H276 0.930 . S
C288 C289 1.399 . S
C288 C293 1.399 . S
C289 C288 1.399 . S
C289 C290 1.376 . S
C290 H277 0.930 . S
C290 C289 1.376 . S
C290 C291 1.388 . S
C291 H278 0.930 . S
C291 C290 1.388 . S
C291 C292 1.390 . S
C292 C291 1.390 . S
C292 C293 1.394 . S
C292 C298 1.465 . S
C293 C288 1.399 . S
C293 C292 1.394 . S
C293 C294 1.516 . S
C294 C293 1.516 . S
C294 C295 1.502 . S
C294 C296 1.561 . S
C294 C297 1.526 . S
C295 H279 0.959 . S
C295 H280 0.959 . S
C295 H281 0.961 . S
C295 C294 1.502 . S
C296 H282 0.960 . S
C296 H283 0.961 . S
C296 H284 0.959 . S
C296 C294 1.561 . S
C297 C294 1.526 . S
C297 C298 1.396 . S
C297 C302 1.390 . S
C298 C292 1.465 . S
C298 C297 1.396 . S
C298 C299 1.399 . S
C299 H285 0.929 . S
C299 C298 1.399 . S
C299 C300 1.385 . S
C300 H286 0.931 . S
C300 C299 1.385 . S
C300 C301 1.389 . S
C301 C300 1.389 . S
C301 C302 1.387 . S
C302 H287 0.930 . S
C302 C297 1.390 . S
C302 C301 1.387 . S
H303 C315 0.930 . S
H304 C317 0.930 . S
H305 C318 0.930 . S
H306 C322 0.959 . S
H307 C322 0.959 . S
H308 C322 0.961 . S
H309 C323 0.960 . S
H310 C323 0.961 . S
H311 C323 0.959 . S
H312 C326 0.929 . S
H313 C327 0.931 . S
H314 C329 0.930 . S
C315 H303 0.930 . S
C315 C316 1.399 . S
C315 C320 1.399 . S
C316 C315 1.399 . S
C316 C317 1.376 . S
C317 H304 0.930 . S
C317 C316 1.376 . S
C317 C318 1.388 . S
C318 H305 0.930 . S
C318 C317 1.388 . S
C318 C319 1.390 . S
C319 C318 1.390 . S
C319 C320 1.394 . S
C319 C325 1.465 . S
C320 C315 1.399 . S
C320 C319 1.394 . S
C320 C321 1.516 . S
C321 C320 1.516 . S
C321 C322 1.502 . S
C321 C323 1.561 . S
C321 C324 1.526 . S
C322 H306 0.959 . S
C322 H307 0.959 . S
C322 H308 0.961 . S
C322 C321 1.502 . S
C323 H309 0.960 . S
C323 H310 0.961 . S
C323 H311 0.959 . S
C323 C321 1.561 . S
C324 C321 1.526 . S
C324 C325 1.396 . S
C324 C329 1.390 . S
C325 C319 1.465 . S
C325 C324 1.396 . S
C325 C326 1.399 . S
C326 H312 0.929 . S
C326 C325 1.399 . S
C326 C327 1.385 . S
C327 H313 0.931 . S
C327 C326 1.385 . S
C327 C328 1.389 . S
C328 C327 1.389 . S
C328 C329 1.387 . S
C329 H314 0.930 . S
C329 C324 1.390 . S
C329 C328 1.387 . S
H330 C342 0.930 . S
H331 C344 0.930 . S
H332 C345 0.930 . S
H333 C349 0.959 . S
H334 C349 0.959 . S
H335 C349 0.961 . S
H336 C350 0.960 . S
H337 C350 0.961 . S
H338 C350 0.959 . S
H339 C353 0.929 . S
H340 C354 0.931 . S
H341 C356 0.930 . S
C342 H330 0.930 . S
C342 C343 1.399 . S
C342 C347 1.399 . S
C343 C342 1.399 . S
C343 C344 1.376 . S
C344 H331 0.930 . S
C344 C343 1.376 . S
C344 C345 1.388 . S
C345 H332 0.930 . S
C345 C344 1.388 . S
C345 C346 1.390 . S
C346 C345 1.390 . S
C346 C347 1.394 . S
C346 C352 1.465 . S
C347 C342 1.399 . S
C347 C346 1.394 . S
C347 C348 1.516 . S
C348 C347 1.516 . S
C348 C349 1.502 . S
C348 C350 1.561 . S
C348 C351 1.526 . S
C349 H333 0.959 . S
C349 H334 0.959 . S
C349 H335 0.961 . S
C349 C348 1.502 . S
C350 H336 0.960 . S
C350 H337 0.961 . S
C350 H338 0.959 . S
C350 C348 1.561 . S
C351 C348 1.526 . S
C351 C352 1.396 . S
C351 C356 1.390 . S
C352 C346 1.465 . S
C352 C351 1.396 . S
C352 C353 1.399 1_545 S
C353 H339 0.929 . S
C353 C352 1.399 1_565 S
C353 C354 1.385 . S
C354 H340 0.931 . S
C354 C353 1.385 . S
C354 C355 1.389 . S
C355 C354 1.389 . S
C355 C356 1.387 1_565 S
C356 H341 0.930 . S
C356 C351 1.390 . S
C356 C355 1.387 1_545 S
H357 C369 0.930 . S
H358 C371 0.930 . S
H359 C372 0.930 . S
H360 C376 0.959 . S
H361 C376 0.959 . S
H362 C376 0.961 . S
H363 C377 0.960 . S
H364 C377 0.961 . S
H365 C377 0.959 . S
H366 C380 0.929 . S
H367 C381 0.931 . S
H368 C383 0.930 . S
C369 H357 0.930 . S
C369 C370 1.399 1_554 S
C369 C374 1.399 . S
C370 C369 1.399 1_556 S
C370 C371 1.376 . S
C371 H358 0.930 . S
C371 C370 1.376 . S
C371 C372 1.388 . S
C372 H359 0.930 . S
C372 C371 1.388 . S
C372 C373 1.390 . S
C373 C372 1.390 . S
C373 C374 1.394 1_556 S
C373 C379 1.465 . S
C374 C369 1.399 . S
C374 C373 1.394 1_554 S
C374 C375 1.516 . S
C375 C374 1.516 . S
C375 C376 1.502 . S
C375 C377 1.561 . S
C375 C378 1.526 . S
C376 H360 0.959 . S
C376 H361 0.959 . S
C376 H362 0.961 . S
C376 C375 1.502 . S
C377 H363 0.960 . S
C377 H364 0.961 . S
C377 H365 0.959 . S
C377 C375 1.561 . S
C378 C375 1.526 . S
C378 C379 1.396 1_554 S
C378 C383 1.390 . S
C379 C373 1.465 . S
C379 C378 1.396 1_556 S
C379 C380 1.399 . S
C380 H366 0.929 . S
C380 C379 1.399 . S
C380 C381 1.385 . S
C381 H367 0.931 . S
C381 C380 1.385 . S
C381 C382 1.389 . S
C382 C381 1.389 . S
C382 C383 1.387 1_556 S
C383 H368 0.930 . S
C383 C378 1.390 . S
C383 C382 1.387 1_554 S
H384 C396 0.930 . S
H385 C398 0.930 . S
H386 C399 0.930 . S
H387 C403 0.959 . S
H388 C403 0.959 . S
H389 C403 0.961 . S
H390 C404 0.960 . S
H391 C404 0.961 . S
H392 C404 0.959 . S
H393 C407 0.929 . S
H394 C408 0.931 . S
H395 C410 0.930 . S
C396 H384 0.930 . S
C396 C397 1.399 . S
C396 C401 1.399 . S
C397 C396 1.399 . S
C397 C398 1.376 . S
C398 H385 0.930 . S
C398 C397 1.376 . S
C398 C399 1.388 . S
C399 H386 0.930 . S
C399 C398 1.388 . S
C399 C400 1.390 . S
C400 C399 1.390 . S
C400 C401 1.394 . S
C400 C406 1.465 . S
C401 C396 1.399 . S
C401 C400 1.394 . S
C401 C402 1.516 . S
C402 C401 1.516 . S
C402 C403 1.502 . S
C402 C404 1.561 . S
C402 C405 1.526 . S
C403 H387 0.959 . S
C403 H388 0.959 . S
C403 H389 0.961 . S
C403 C402 1.502 . S
C404 H390 0.960 . S
C404 H391 0.961 . S
C404 H392 0.959 . S
C404 C402 1.561 . S
C405 C402 1.526 . S
C405 C406 1.396 . S
C405 C410 1.390 . S
C406 C400 1.465 . S
C406 C405 1.396 . S
C406 C407 1.399 . S
C407 H393 0.929 . S
C407 C406 1.399 . S
C407 C408 1.385 . S
C408 H394 0.931 . S
C408 C407 1.385 . S
C408 C409 1.389 . S
C409 C408 1.389 . S
C409 C410 1.387 . S
C410 H395 0.930 . S
C410 C405 1.390 . S
C410 C409 1.387 . S
H411 C423 0.930 . S
H412 C425 0.930 . S
H413 C426 0.930 . S
H414 C430 0.959 . S
H415 C430 0.959 1_545 S
H416 C430 0.961 1_545 S
H417 C431 0.960 . S
H418 C431 0.961 . S
H419 C431 0.959 . S
H420 C434 0.929 . S
H421 C435 0.931 . S
H422 C437 0.930 . S
C423 H411 0.930 . S
C423 C424 1.399 . S
C423 C428 1.399 . S
C424 C423 1.399 . S
C424 C425 1.376 . S
C425 H412 0.930 . S
C425 C424 1.376 . S
C425 C426 1.388 . S
C426 H413 0.930 . S
C426 C425 1.388 . S
C426 C427 1.390 . S
C427 C426 1.390 . S
C427 C428 1.394 . S
C427 C433 1.465 . S
C428 C423 1.399 . S
C428 C427 1.394 . S
C428 C429 1.516 . S
C429 C428 1.516 . S
C429 C430 1.502 . S
C429 C431 1.561 . S
C429 C432 1.526 . S
C430 H414 0.959 . S
C430 H415 0.959 1_565 S
C430 H416 0.961 1_565 S
C430 C429 1.502 . S
C431 H417 0.960 . S
C431 H418 0.961 . S
C431 H419 0.959 . S
C431 C429 1.561 . S
C432 C429 1.526 . S
C432 C433 1.396 . S
C432 C437 1.390 . S
C433 C427 1.465 . S
C433 C432 1.396 . S
C433 C434 1.399 . S
C434 H420 0.929 . S
C434 C433 1.399 . S
C434 C435 1.385 . S
C435 H421 0.931 . S
C435 C434 1.385 . S
C435 C436 1.389 . S
C436 C435 1.389 . S
C436 C437 1.387 . S
C437 H422 0.930 . S
C437 C432 1.390 . S
C437 C436 1.387 . S
H438 C450 0.930 . S
H439 C452 0.930 . S
H440 C453 0.930 . S
H441 C457 0.959 . S
H442 C457 0.959 . S
H443 C457 0.961 . S
H444 C458 0.960 . S
H445 C458 0.961 . S
H446 C458 0.959 . S
H447 C461 0.929 . S
H448 C462 0.931 . S
H449 C464 0.930 . S
C450 H438 0.930 . S
C450 C451 1.399 . S
C450 C455 1.399 . S
C451 C450 1.399 . S
C451 C452 1.376 . S
C452 H439 0.930 . S
C452 C451 1.376 . S
C452 C453 1.388 . S
C453 H440 0.930 . S
C453 C452 1.388 . S
C453 C454 1.390 . S
C454 C453 1.390 . S
C454 C455 1.394 . S
C454 C460 1.465 . S
C455 C450 1.399 . S
C455 C454 1.394 . S
C455 C456 1.516 . S
C456 C455 1.516 . S
C456 C457 1.502 . S
C456 C458 1.561 . S
C456 C459 1.526 . S
C457 H441 0.959 . S
C457 H442 0.959 . S
C457 H443 0.961 . S
C457 C456 1.502 . S
C458 H444 0.960 . S
C458 H445 0.961 . S
C458 H446 0.959 . S
C458 C456 1.561 . S
C459 C456 1.526 . S
C459 C460 1.396 . S
C459 C464 1.390 . S
C460 C454 1.465 . S
C460 C459 1.396 . S
C460 C461 1.399 . S
C461 H447 0.929 . S
C461 C460 1.399 . S
C461 C462 1.385 . S
C462 H448 0.931 . S
C462 C461 1.385 . S
C462 C463 1.389 . S
C463 C462 1.389 . S
C463 C464 1.387 . S
C464 H449 0.930 . S
C464 C459 1.390 . S
C464 C463 1.387 . S
H465 C477 0.930 . S
H466 C479 0.930 . S
H467 C480 0.930 . S
H468 C484 0.959 . S
H469 C484 0.959 . S
H470 C484 0.961 . S
H471 C485 0.960 . S
H472 C485 0.961 . S
H473 C485 0.959 . S
H474 C488 0.929 . S
H475 C489 0.931 . S
H476 C491 0.930 . S
C477 H465 0.930 . S
C477 C478 1.399 . S
C477 C482 1.399 . S
C478 C477 1.399 . S
C478 C479 1.376 . S
C479 H466 0.930 . S
C479 C478 1.376 . S
C479 C480 1.388 . S
C480 H467 0.930 . S
C480 C479 1.388 . S
C480 C481 1.390 . S
C481 C480 1.390 . S
C481 C482 1.394 . S
C481 C487 1.465 . S
C482 C477 1.399 . S
C482 C481 1.394 . S
C482 C483 1.516 . S
C483 C482 1.516 . S
C483 C484 1.502 . S
C483 C485 1.561 . S
C483 C486 1.526 . S
C484 H468 0.959 . S
C484 H469 0.959 . S
C484 H470 0.961 . S
C484 C483 1.502 . S
C485 H471 0.960 . S
C485 H472 0.961 . S
C485 H473 0.959 . S
C485 C483 1.561 . S
C486 C483 1.526 . S
C486 C487 1.396 . S
C486 C491 1.390 . S
C487 C481 1.465 . S
C487 C486 1.396 . S
C487 C488 1.399 . S
C488 H474 0.929 . S
C488 C487 1.399 . S
C488 C489 1.385 . S
C489 H475 0.931 . S
C489 C488 1.385 . S
C489 C490 1.389 . S
C490 C489 1.389 . S
C490 C491 1.387 . S
C491 H476 0.930 . S
C491 C486 1.390 . S
C491 C490 1.387 . S
H492 C504 0.930 . S
H493 C506 0.930 . S
H494 C507 0.930 . S
H495 C511 0.959 . S
H496 C511 0.959 . S
H497 C511 0.961 . S
H498 C512 0.960 . S
H499 C512 0.961 . S
H500 C512 0.959 . S
H501 C515 0.929 . S
H502 C516 0.931 . S
H503 C518 0.930 . S
C504 H492 0.930 . S
C504 C505 1.399 . S
C504 C509 1.399 . S
C505 C504 1.399 . S
C505 C506 1.376 . S
C506 H493 0.930 . S
C506 C505 1.376 . S
C506 C507 1.388 . S
C507 H494 0.930 . S
C507 C506 1.388 . S
C507 C508 1.390 . S
C508 C507 1.390 . S
C508 C509 1.394 . S
C508 C514 1.465 . S
C509 C504 1.399 . S
C509 C508 1.394 . S
C509 C510 1.516 . S
C510 C509 1.516 . S
C510 C511 1.502 . S
C510 C512 1.561 . S
C510 C513 1.526 . S
C511 H495 0.959 . S
C511 H496 0.959 . S
C511 H497 0.961 . S
C511 C510 1.502 . S
C512 H498 0.960 . S
C512 H499 0.961 . S
C512 H500 0.959 . S
C512 C510 1.561 . S
C513 C510 1.526 . S
C513 C514 1.396 . S
C513 C518 1.390 . S
C514 C508 1.465 . S
C514 C513 1.396 . S
C514 C515 1.399 . S
C515 H501 0.929 . S
C515 C514 1.399 . S
C515 C516 1.385 . S
C516 H502 0.931 . S
C516 C515 1.385 . S
C516 C517 1.389 . S
C517 C516 1.389 . S
C517 C518 1.387 . S
C518 H503 0.930 . S
C518 C513 1.390 . S
C518 C517 1.387 . S
H519 C531 0.930 . S
H520 C533 0.930 . S
H521 C534 0.930 . S
H522 C538 0.959 . S
H523 C538 0.959 . S
H524 C538 0.961 . S
H525 C539 0.960 . S
H526 C539 0.961 . S
H527 C539 0.959 . S
H528 C542 0.929 . S
H529 C543 0.931 . S
H530 C545 0.930 . S
C531 H519 0.930 . S
C531 C532 1.399 1_545 S
C531 C536 1.399 . S
C532 C531 1.399 1_565 S
C532 C533 1.376 . S
C533 H520 0.930 . S
C533 C532 1.376 . S
C533 C534 1.388 . S
C534 H521 0.930 . S
C534 C533 1.388 . S
C534 C535 1.390 . S
C535 C534 1.390 . S
C535 C536 1.394 1_565 S
C535 C541 1.465 . S
C536 C531 1.399 . S
C536 C535 1.394 1_545 S
C536 C537 1.516 . S
C537 C536 1.516 . S
C537 C538 1.502 . S
C537 C539 1.561 . S
C537 C540 1.526 . S
C538 H522 0.959 . S
C538 H523 0.959 . S
C538 H524 0.961 . S
C538 C537 1.502 . S
C539 H525 0.960 . S
C539 H526 0.961 . S
C539 H527 0.959 . S
C539 C537 1.561 . S
C540 C537 1.526 . S
C540 C541 1.396 1_545 S
C540 C545 1.390 . S
C541 C535 1.465 . S
C541 C540 1.396 1_565 S
C541 C542 1.399 . S
C542 H528 0.929 . S
C542 C541 1.399 . S
C542 C543 1.385 . S
C543 H529 0.931 . S
C543 C542 1.385 . S
C543 C544 1.389 . S
C544 C543 1.389 . S
C544 C545 1.387 1_565 S
C545 H530 0.930 . S
C545 C540 1.390 . S
C545 C544 1.387 1_545 S
H546 C558 0.930 . S
H547 C560 0.930 . S
H548 C561 0.930 . S
H549 C565 0.959 . S
H550 C565 0.959 . S
H551 C565 0.961 . S
H552 C566 0.960 . S
H553 C566 0.961 . S
H554 C566 0.959 . S
H555 C569 0.929 . S
H556 C570 0.931 1_565 S
H557 C572 0.930 . S
C558 H546 0.930 . S
C558 C559 1.399 . S
C558 C563 1.399 . S
C559 C558 1.399 . S
C559 C560 1.376 . S
C560 H547 0.930 . S
C560 C559 1.376 . S
C560 C561 1.388 . S
C561 H548 0.930 . S
C561 C560 1.388 . S
C561 C562 1.390 . S
C562 C561 1.390 . S
C562 C563 1.394 . S
C562 C568 1.465 . S
C563 C558 1.399 . S
C563 C562 1.394 . S
C563 C564 1.516 . S
C564 C563 1.516 . S
C564 C565 1.502 . S
C564 C566 1.561 . S
C564 C567 1.526 . S
C565 H549 0.959 . S
C565 H550 0.959 . S
C565 H551 0.961 . S
C565 C564 1.502 . S
C566 H552 0.960 . S
C566 H553 0.961 . S
C566 H554 0.959 . S
C566 C564 1.561 . S
C567 C564 1.526 . S
C567 C568 1.396 . S
C567 C572 1.390 . S
C568 C562 1.465 . S
C568 C567 1.396 . S
C568 C569 1.399 . S
C569 H555 0.929 . S
C569 C568 1.399 . S
C569 C570 1.385 . S
C570 H556 0.931 1_545 S
C570 C569 1.385 . S
C570 C571 1.389 . S
C571 C570 1.389 . S
C571 C572 1.387 . S
C572 H557 0.930 . S
C572 C567 1.390 . S
C572 C571 1.387 . S
H573 C585 0.930 . S
H574 C587 0.930 . S
H575 C588 0.930 . S
H576 C592 0.959 . S
H577 C592 0.959 . S
H578 C592 0.961 . S
H579 C593 0.960 . S
H580 C593 0.961 . S
H581 C593 0.959 . S
H582 C596 0.929 . S
H583 C597 0.931 . S
H584 C599 0.930 . S
C585 H573 0.930 . S
C585 C586 1.399 . S
C585 C590 1.399 . S
C586 C585 1.399 . S
C586 C587 1.376 . S
C587 H574 0.930 . S
C587 C586 1.376 . S
C587 C588 1.388 . S
C588 H575 0.930 . S
C588 C587 1.388 . S
C588 C589 1.390 . S
C589 C588 1.390 . S
C589 C590 1.394 . S
C589 C595 1.465 . S
C590 C585 1.399 . S
C590 C589 1.394 . S
C590 C591 1.516 . S
C591 C590 1.516 . S
C591 C592 1.502 . S
C591 C593 1.561 . S
C591 C594 1.526 . S
C592 H576 0.959 . S
C592 H577 0.959 . S
C592 H578 0.961 . S
C592 C591 1.502 . S
C593 H579 0.960 . S
C593 H580 0.961 . S
C593 H581 0.959 . S
C593 C591 1.561 . S
C594 C591 1.526 . S
C594 C595 1.396 . S
C594 C599 1.390 . S
C595 C589 1.465 . S
C595 C594 1.396 . S
C595 C596 1.399 . S
C596 H582 0.929 . S
C596 C595 1.399 . S
C596 C597 1.385 . S
C597 H583 0.931 . S
C597 C596 1.385 . S
C597 C598 1.389 . S
C598 C597 1.389 . S
C598 C599 1.387 . S
C599 H584 0.930 . S
C599 C594 1.390 . S
C599 C598 1.387 . S
H600 C612 0.930 . S
H601 C614 0.930 . S
H602 C615 0.930 . S
H603 C619 0.959 . S
H604 C619 0.959 . S
H605 C619 0.961 . S
H606 C620 0.960 . S
H607 C620 0.961 . S
H608 C620 0.959 . S
H609 C623 0.929 . S
H610 C624 0.931 . S
H611 C626 0.930 . S
C612 H600 0.930 . S
C612 C613 1.399 . S
C612 C617 1.399 . S
C613 C612 1.399 . S
C613 C614 1.376 . S
C614 H601 0.930 . S
C614 C613 1.376 . S
C614 C615 1.388 . S
C615 H602 0.930 . S
C615 C614 1.388 . S
C615 C616 1.390 . S
C616 C615 1.390 . S
C616 C617 1.394 . S
C616 C622 1.465 . S
C617 C612 1.399 . S
C617 C616 1.394 . S
C617 C618 1.516 . S
C618 C617 1.516 . S
C618 C619 1.502 . S
C618 C620 1.561 . S
C618 C621 1.526 . S
C619 H603 0.959 . S
C619 H604 0.959 . S
C619 H605 0.961 . S
C619 C618 1.502 . S
C620 H606 0.960 . S
C620 H607 0.961 . S
C620 H608 0.959 . S
C620 C618 1.561 . S
C621 C618 1.526 . S
C621 C622 1.396 . S
C621 C626 1.390 . S
C622 C616 1.465 . S
C622 C621 1.396 . S
C622 C623 1.399 . S
C623 H609 0.929 . S
C623 C622 1.399 . S
C623 C624 1.385 . S
C624 H610 0.931 . S
C624 C623 1.385 . S
C624 C625 1.389 . S
C625 C624 1.389 . S
C625 C626 1.387 . S
C626 H611 0.930 . S
C626 C621 1.390 . S
C626 C625 1.387 . S
H627 C639 0.930 . S
H628 C641 0.930 . S
H629 C642 0.930 . S
H630 C646 0.959 . S
H631 C646 0.959 . S
H632 C646 0.961 . S
H633 C647 0.960 . S
H634 C647 0.961 . S
H635 C647 0.959 . S
H636 C650 0.929 . S
H637 C651 0.931 . S
H638 C653 0.930 . S
C639 H627 0.930 . S
C639 C640 1.399 . S
C639 C644 1.399 . S
C640 C639 1.399 . S
C640 C641 1.376 . S
C641 H628 0.930 . S
C641 C640 1.376 . S
C641 C642 1.388 . S
C642 H629 0.930 . S
C642 C641 1.388 . S
C642 C643 1.390 . S
C643 C642 1.390 . S
C643 C644 1.394 . S
C643 C649 1.465 . S
C644 C639 1.399 . S
C644 C643 1.394 . S
C644 C645 1.516 . S
C645 C644 1.516 . S
C645 C646 1.502 1_455 S
C645 C647 1.561 . S
C645 C648 1.526 . S
C646 H630 0.959 . S
C646 H631 0.959 . S
C646 H632 0.961 . S
C646 C645 1.502 1_655 S
C647 H633 0.960 . S
C647 H634 0.961 . S
C647 H635 0.959 . S
C647 C645 1.561 . S
C648 C645 1.526 . S
C648 C649 1.396 . S
C648 C653 1.390 . S
C649 C643 1.465 . S
C649 C648 1.396 . S
C649 C650 1.399 . S
C650 H636 0.929 . S
C650 C649 1.399 . S
C650 C651 1.385 . S
C651 H637 0.931 . S
C651 C650 1.385 . S
C651 C652 1.389 . S
C652 C651 1.389 . S
C652 C653 1.387 . S
C653 H638 0.930 . S
C653 C648 1.390 . S
C653 C652 1.387 . S
H654 C666 0.930 . S
H655 C668 0.930 . S
H656 C669 0.930 . S
H657 C673 0.959 . S
H658 C673 0.959 . S
H659 C673 0.961 . S
H660 C674 0.960 . S
H661 C674 0.961 . S
H662 C674 0.959 . S
H663 C677 0.929 . S
H664 C678 0.931 . S
H665 C680 0.930 . S
C666 H654 0.930 . S
C666 C667 1.399 . S
C666 C671 1.399 . S
C667 C666 1.399 . S
C667 C668 1.376 . S
C668 H655 0.930 . S
C668 C667 1.376 . S
C668 C669 1.388 . S
C669 H656 0.930 . S
C669 C668 1.388 . S
C669 C670 1.390 . S
C670 C669 1.390 . S
C670 C671 1.394 . S
C670 C676 1.465 . S
C671 C666 1.399 . S
C671 C670 1.394 . S
C671 C672 1.516 . S
C672 C671 1.516 . S
C672 C673 1.502 . S
C672 C674 1.561 . S
C672 C675 1.526 . S
C673 H657 0.959 . S
C673 H658 0.959 . S
C673 H659 0.961 . S
C673 C672 1.502 . S
C674 H660 0.960 . S
C674 H661 0.961 . S
C674 H662 0.959 . S
C674 C672 1.561 . S
C675 C672 1.526 . S
C675 C676 1.396 . S
C675 C680 1.390 . S
C676 C670 1.465 . S
C676 C675 1.396 . S
C676 C677 1.399 . S
C677 H663 0.929 . S
C677 C676 1.399 . S
C677 C678 1.385 . S
C678 H664 0.931 . S
C678 C677 1.385 . S
C678 C679 1.389 . S
C679 C678 1.389 . S
C679 C680 1.387 . S
C680 H665 0.930 . S
C680 C675 1.390 . S
C680 C679 1.387 . S
H681 C693 0.930 . S
H682 C695 0.930 . S
H683 C696 0.930 . S
H684 C700 0.959 . S
H685 C700 0.959 . S
H686 C700 0.961 . S
H687 C701 0.960 . S
H688 C701 0.961 . S
H689 C701 0.959 . S
H690 C704 0.929 . S
H691 C705 0.931 . S
H692 C707 0.930 . S
C693 H681 0.930 . S
C693 C694 1.399 . S
C693 C698 1.399 . S
C694 C693 1.399 . S
C694 C695 1.376 . S
C695 H682 0.930 . S
C695 C694 1.376 . S
C695 C696 1.388 . S
C696 H683 0.930 . S
C696 C695 1.388 . S
C696 C697 1.390 . S
C697 C696 1.390 . S
C697 C698 1.394 . S
C697 C703 1.465 . S
C698 C693 1.399 . S
C698 C697 1.394 . S
C698 C699 1.516 . S
C699 C698 1.516 . S
C699 C700 1.502 . S
C699 C701 1.561 . S
C699 C702 1.526 . S
C700 H684 0.959 . S
C700 H685 0.959 . S
C700 H686 0.961 . S
C700 C699 1.502 . S
C701 H687 0.960 . S
C701 H688 0.961 . S
C701 H689 0.959 . S
C701 C699 1.561 . S
C702 C699 1.526 . S
C702 C703 1.396 . S
C702 C707 1.390 . S
C703 C697 1.465 . S
C703 C702 1.396 . S
C703 C704 1.399 . S
C704 H690 0.929 . S
C704 C703 1.399 . S
C704 C705 1.385 . S
C705 H691 0.931 . S
C705 C704 1.385 . S
C705 C706 1.389 . S
C706 C705 1.389 . S
C706 C707 1.387 . S
C707 H692 0.930 . S
C707 C702 1.390 . S
C707 C706 1.387 . S
H708 C720 0.930 . S
H709 C722 0.930 . S
H710 C723 0.930 . S
H711 C727 0.959 . S
H712 C727 0.959 . S
H713 C727 0.961 . S
H714 C728 0.960 1_554 S
H715 C728 0.961 1_554 S
H716 C728 0.959 . S
H717 C731 0.929 . S
H718 C732 0.931 . S
H719 C734 0.930 . S
C720 H708 0.930 . S
C720 C721 1.399 . S
C720 C725 1.399 . S
C721 C720 1.399 . S
C721 C722 1.376 . S
C722 H709 0.930 . S
C722 C721 1.376 . S
C722 C723 1.388 . S
C723 H710 0.930 . S
C723 C722 1.388 . S
C723 C724 1.390 . S
C724 C723 1.390 . S
C724 C725 1.394 . S
C724 C730 1.465 . S
C725 C720 1.399 . S
C725 C724 1.394 . S
C725 C726 1.516 . S
C726 C725 1.516 . S
C726 C727 1.502 . S
C726 C728 1.561 . S
C726 C729 1.526 . S
C727 H711 0.959 . S
C727 H712 0.959 . S
C727 H713 0.961 . S
C727 C726 1.502 . S
C728 H714 0.960 1_556 S
C728 H715 0.961 1_556 S
C728 H716 0.959 . S
C728 C726 1.561 . S
C729 C726 1.526 . S
C729 C730 1.396 . S
C729 C734 1.390 . S
C730 C724 1.465 . S
C730 C729 1.396 . S
C730 C731 1.399 . S
C731 H717 0.929 . S
C731 C730 1.399 . S
C731 C732 1.385 . S
C732 H718 0.931 . S
C732 C731 1.385 . S
C732 C733 1.389 . S
C733 C732 1.389 . S
C733 C734 1.387 . S
C734 H719 0.930 . S
C734 C729 1.390 . S
C734 C733 1.387 . S
H735 C747 0.930 . S
H736 C749 0.930 . S
H737 C750 0.930 . S
H738 C754 0.959 . S
H739 C754 0.959 . S
H740 C754 0.961 . S
H741 C755 0.960 . S
H742 C755 0.961 . S
H743 C755 0.959 . S
H744 C758 0.929 . S
H745 C759 0.931 . S
H746 C761 0.930 . S
C747 H735 0.930 . S
C747 C748 1.399 . S
C747 C752 1.399 . S
C748 C747 1.399 . S
C748 C749 1.376 . S
C749 H736 0.930 . S
C749 C748 1.376 . S
C749 C750 1.388 . S
C750 H737 0.930 . S
C750 C749 1.388 . S
C750 C751 1.390 . S
C751 C750 1.390 . S
C751 C752 1.394 . S
C751 C757 1.465 . S
C752 C747 1.399 . S
C752 C751 1.394 . S
C752 C753 1.516 . S
C753 C752 1.516 . S
C753 C754 1.502 . S
C753 C755 1.561 . S
C753 C756 1.526 . S
C754 H738 0.959 . S
C754 H739 0.959 . S
C754 H740 0.961 . S
C754 C753 1.502 . S
C755 H741 0.960 . S
C755 H742 0.961 . S
C755 H743 0.959 . S
C755 C753 1.561 . S
C756 C753 1.526 . S
C756 C757 1.396 . S
C756 C761 1.390 . S
C757 C751 1.465 . S
C757 C756 1.396 . S
C757 C758 1.399 . S
C758 H744 0.929 . S
C758 C757 1.399 . S
C758 C759 1.385 . S
C759 H745 0.931 . S
C759 C758 1.385 . S
C759 C760 1.389 . S
C760 C759 1.389 . S
C760 C761 1.387 . S
C761 H746 0.930 . S
C761 C756 1.390 . S
C761 C760 1.387 . S
H762 C774 0.930 . S
H763 C776 0.930 . S
H764 C777 0.930 . S
H765 C781 0.959 . S
H766 C781 0.959 . S
H767 C781 0.961 . S
H768 C782 0.960 . S
H769 C782 0.961 . S
H770 C782 0.959 . S
H771 C785 0.929 . S
H772 C786 0.931 . S
H773 C788 0.930 . S
C774 H762 0.930 . S
C774 C775 1.399 . S
C774 C779 1.399 . S
C775 C774 1.399 . S
C775 C776 1.376 . S
C776 H763 0.930 . S
C776 C775 1.376 . S
C776 C777 1.388 . S
C777 H764 0.930 . S
C777 C776 1.388 . S
C777 C778 1.390 . S
C778 C777 1.390 . S
C778 C779 1.394 . S
C778 C784 1.465 . S
C779 C774 1.399 . S
C779 C778 1.394 . S
C779 C780 1.516 . S
C780 C779 1.516 . S
C780 C781 1.502 . S
C780 C782 1.561 . S
C780 C783 1.526 . S
C781 H765 0.959 . S
C781 H766 0.959 . S
C781 H767 0.961 . S
C781 C780 1.502 . S
C782 H768 0.960 . S
C782 H769 0.961 . S
C782 H770 0.959 . S
C782 C780 1.561 . S
C783 C780 1.526 . S
C783 C784 1.396 . S
C783 C788 1.390 . S
C784 C778 1.465 . S
C784 C783 1.396 . S
C784 C785 1.399 . S
C785 H771 0.929 . S
C785 C784 1.399 . S
C785 C786 1.385 . S
C786 H772 0.931 . S
C786 C785 1.385 . S
C786 C787 1.389 . S
C787 C786 1.389 . S
C787 C788 1.387 . S
C788 H773 0.930 . S
C788 C783 1.390 . S
C788 C787 1.387 . S
H789 C801 0.930 . S
H790 C803 0.930 . S
H791 C804 0.930 . S
H792 C808 0.959 . S
H793 C808 0.959 . S
H794 C808 0.961 . S
H795 C809 0.960 . S
H796 C809 0.961 . S
H797 C809 0.959 . S
H798 C812 0.929 . S
H799 C813 0.931 . S
H800 C815 0.930 . S
C801 H789 0.930 . S
C801 C802 1.399 . S
C801 C806 1.399 . S
C802 C801 1.399 . S
C802 C803 1.376 . S
C803 H790 0.930 . S
C803 C802 1.376 . S
C803 C804 1.388 . S
C804 H791 0.930 . S
C804 C803 1.388 . S
C804 C805 1.390 . S
C805 C804 1.390 . S
C805 C806 1.394 . S
C805 C811 1.465 . S
C806 C801 1.399 . S
C806 C805 1.394 . S
C806 C807 1.516 . S
C807 C806 1.516 . S
C807 C808 1.502 . S
C807 C809 1.561 . S
C807 C810 1.526 . S
C808 H792 0.959 . S
C808 H793 0.959 . S
C808 H794 0.961 . S
C808 C807 1.502 . S
C809 H795 0.960 . S
C809 H796 0.961 . S
C809 H797 0.959 . S
C809 C807 1.561 . S
C810 C807 1.526 . S
C810 C811 1.396 . S
C810 C815 1.390 . S
C811 C805 1.465 . S
C811 C810 1.396 . S
C811 C812 1.399 . S
C812 H798 0.929 . S
C812 C811 1.399 . S
C812 C813 1.385 . S
C813 H799 0.931 . S
C813 C812 1.385 . S
C813 C814 1.389 . S
C814 C813 1.389 . S
C814 C815 1.387 . S
C815 H800 0.930 . S
C815 C810 1.390 . S
C815 C814 1.387 . S
H816 C828 0.930 . S
H817 C830 0.930 . S
H818 C831 0.930 . S
H819 C835 0.959 . S
H820 C835 0.959 . S
H821 C835 0.961 . S
H822 C836 0.960 . S
H823 C836 0.961 . S
H824 C836 0.959 . S
H825 C839 0.929 . S
H826 C840 0.931 . S
H827 C842 0.930 . S
C828 H816 0.930 . S
C828 C829 1.399 . S
C828 C833 1.399 . S
C829 C828 1.399 . S
C829 C830 1.376 . S
C830 H817 0.930 . S
C830 C829 1.376 . S
C830 C831 1.388 . S
C831 H818 0.930 . S
C831 C830 1.388 . S
C831 C832 1.390 . S
C832 C831 1.390 . S
C832 C833 1.394 . S
C832 C838 1.465 . S
C833 C828 1.399 . S
C833 C832 1.394 . S
C833 C834 1.516 . S
C834 C833 1.516 . S
C834 C835 1.502 . S
C834 C836 1.561 . S
C834 C837 1.526 . S
C835 H819 0.959 . S
C835 H820 0.959 . S
C835 H821 0.961 . S
C835 C834 1.502 . S
C836 H822 0.960 . S
C836 H823 0.961 . S
C836 H824 0.959 . S
C836 C834 1.561 . S
C837 C834 1.526 . S
C837 C838 1.396 . S
C837 C842 1.390 . S
C838 C832 1.465 . S
C838 C837 1.396 . S
C838 C839 1.399 . S
C839 H825 0.929 . S
C839 C838 1.399 . S
C839 C840 1.385 . S
C840 H826 0.931 . S
C840 C839 1.385 . S
C840 C841 1.389 . S
C841 C840 1.389 . S
C841 C842 1.387 . S
C842 H827 0.930 . S
C842 C837 1.390 . S
C842 C841 1.387 . S
H843 C855 0.930 . S
H844 C857 0.930 . S
H845 C858 0.930 . S
H846 C862 0.959 . S
H847 C862 0.959 . S
H848 C862 0.961 . S
H849 C863 0.960 . S
H850 C863 0.961 . S
H851 C863 0.959 . S
H852 C866 0.929 . S
H853 C867 0.931 . S
H854 C869 0.930 . S
C855 H843 0.930 . S
C855 C856 1.399 1_554 S
C855 C860 1.399 . S
C856 C855 1.399 1_556 S
C856 C857 1.376 . S
C857 H844 0.930 . S
C857 C856 1.376 . S
C857 C858 1.388 1_556 S
C858 H845 0.930 . S
C858 C857 1.388 1_554 S
C858 C859 1.390 . S
C859 C858 1.390 . S
C859 C860 1.394 . S
C859 C865 1.465 . S
C860 C855 1.399 . S
C860 C859 1.394 . S
C860 C861 1.516 . S
C861 C860 1.516 . S
C861 C862 1.502 . S
C861 C863 1.561 . S
C861 C864 1.526 . S
C862 H846 0.959 . S
C862 H847 0.959 . S
C862 H848 0.961 . S
C862 C861 1.502 . S
C863 H849 0.960 . S
C863 H850 0.961 . S
C863 H851 0.959 . S
C863 C861 1.561 . S
C864 C861 1.526 . S
C864 C865 1.396 . S
C864 C869 1.390 . S
C865 C859 1.465 . S
C865 C864 1.396 . S
C865 C866 1.399 . S
C866 H852 0.929 . S
C866 C865 1.399 . S
C866 C867 1.385 . S
C867 H853 0.931 . S
C867 C866 1.385 . S
C867 C868 1.389 . S
C868 C867 1.389 . S
C868 C869 1.387 . S
C869 H854 0.930 . S
C869 C864 1.390 . S
C869 C868 1.387 . S
H870 C882 0.930 . S
H871 C884 0.930 . S
H872 C885 0.930 . S
H873 C889 0.959 . S
H874 C889 0.959 . S
H875 C889 0.961 . S
H876 C890 0.960 . S
H877 C890 0.961 . S
H878 C890 0.959 . S
H879 C893 0.929 . S
H880 C894 0.931 . S
H881 C896 0.930 . S
C882 H870 0.930 . S
C882 C883 1.399 . S
C882 C887 1.399 . S
C883 C882 1.399 . S
C883 C884 1.376 . S
C884 H871 0.930 . S
C884 C883 1.376 . S
C884 C885 1.388 . S
C885 H872 0.930 . S
C885 C884 1.388 . S
C885 C886 1.390 . S
C886 C885 1.390 . S
C886 C887 1.394 . S
C886 C892 1.465 . S
C887 C882 1.399 . S
C887 C886 1.394 . S
C887 C888 1.516 . S
C888 C887 1.516 . S
C888 C889 1.502 . S
C888 C890 1.561 . S
C888 C891 1.526 . S
C889 H873 0.959 . S
C889 H874 0.959 . S
C889 H875 0.961 . S
C889 C888 1.502 . S
C890 H876 0.960 . S
C890 H877 0.961 . S
C890 H878 0.959 . S
C890 C888 1.561 . S
C891 C888 1.526 . S
C891 C892 1.396 . S
C891 C896 1.390 . S
C892 C886 1.465 . S
C892 C891 1.396 . S
C892 C893 1.399 . S
C893 H879 0.929 . S
C893 C892 1.399 . S
C893 C894 1.385 . S
C894 H880 0.931 . S
C894 C893 1.385 . S
C894 C895 1.389 . S
C895 C894 1.389 . S
C895 C896 1.387 . S
C896 H881 0.930 . S
C896 C891 1.390 . S
C896 C895 1.387 . S
H897 C909 0.930 1_455 S
H898 C911 0.930 . S
H899 C912 0.930 . S
H900 C916 0.959 . S
H901 C916 0.959 . S
H902 C916 0.961 . S
H903 C917 0.960 . S
H904 C917 0.961 . S
H905 C917 0.959 . S
H906 C920 0.929 . S
H907 C921 0.931 . S
H908 C923 0.930 1_455 S
C909 H897 0.930 1_655 S
C909 C910 1.399 . S
C909 C914 1.399 . S
C910 C909 1.399 . S
C910 C911 1.376 . S
C911 H898 0.930 . S
C911 C910 1.376 . S
C911 C912 1.388 . S
C912 H899 0.930 . S
C912 C911 1.388 . S
C912 C913 1.390 . S
C913 C912 1.390 . S
C913 C914 1.394 . S
C913 C919 1.465 . S
C914 C909 1.399 . S
C914 C913 1.394 . S
C914 C915 1.516 1_655 S
C915 C914 1.516 1_455 S
C915 C916 1.502 . S
C915 C917 1.561 . S
C915 C918 1.526 1_455 S
C916 H900 0.959 . S
C916 H901 0.959 . S
C916 H902 0.961 . S
C916 C915 1.502 . S
C917 H903 0.960 . S
C917 H904 0.961 . S
C917 H905 0.959 . S
C917 C915 1.561 . S
C918 C915 1.526 1_655 S
C918 C919 1.396 . S
C918 C923 1.390 . S
C919 C913 1.465 . S
C919 C918 1.396 . S
C919 C920 1.399 . S
C920 H906 0.929 . S
C920 C919 1.399 . S
C920 C921 1.385 . S
C921 H907 0.931 . S
C921 C920 1.385 . S
C921 C922 1.389 . S
C922 C921 1.389 . S
C922 C923 1.387 . S
C923 H908 0.930 1_655 S
C923 C918 1.390 . S
C923 C922 1.387 . S
C289 N2 1.306 . S
C301 N94 1.291 . S
C316 C131 1.586 . S
C328 C39 1.719 . S
C343 N140 1.257 . S
C355 C53 1.513 . S
C370 N81 1.585 . S
C382 C177 1.492 1_556 S
C397 C99 1.584 . S
C409 N25 1.343 . S
C424 N127 1.489 . S
C436 N58 1.394 . S
C451 C76 1.679 . S
C463 C145 1.703 . S
C478 N173 1.526 . S
C490 C16 1.329 . S
C505 C108 1.561 . S
C517 C168 1.585 . S
C532 N117 1.343 . S
C544 N104 1.442 . S
C559 C154 1.686 . S
C571 C122 1.623 . S
C586 N150 1.426 . S
C598 N163 1.448 . S
C613 C200 1.593 . S
C625 C85 1.563 . S
C640 N209 1.503 . S
C652 C7 1.522 . S
C667 C246 1.540 1_455 S
C679 N35 1.594 . S
C694 C214 1.645 . S
C706 C30 1.744 . S
C721 C260 1.544 . S
C733 N71 1.538 . S
C748 N48 1.218 . S
C760 N255 1.422 . S
C775 N12 1.351 . S
C787 N196 1.258 . S
C802 N242 1.415 . S
C814 C62 1.506 . S
C829 C269 1.520 . S
C841 C237 1.671 . S
C856 N265 1.417 . S
C868 N186 1.305 . S
C883 C191 1.709 . S
C895 C223 1.488 . S
C910 N219 1.521 . S
C922 N232 1.275 . S
