# Generated by pormake.
# Topology sxc, (6)-cn, num edge types: 1
# Building blocks:
#     Node 0, Type 0, BuildingBlock: HISSIN_clean_sbu_0, # of connection points: 6
#     Node 1, Type 0, BuildingBlock: HISSIN_clean_sbu_0, # of connection points: 6
#     Node 2, Type 0, BuildingBlock: HISSIN_clean_sbu_0, # of connection points: 6
#     Edge 3, Type (0, 0), BuildingBlock: MIFKUJ_clean_linker_0, # of connection points: 2
#     Edge 4, Type (0, 0), BuildingBlock: MIFKUJ_clean_linker_0, # of connection points: 2
#     Edge 5, Type (0, 0), BuildingBlock: MIFKUJ_clean_linker_0, # of connection points: 2
#     Edge 6, Type (0, 0), BuildingBlock: MIFKUJ_clean_linker_0, # of connection points: 2
#     Edge 7, Type (0, 0), BuildingBlock: MIFKUJ_clean_linker_0, # of connection points: 2
#     Edge 8, Type (0, 0), BuildingBlock: MIFKUJ_clean_linker_0, # of connection points: 2
#     Edge 9, Type (0, 0), BuildingBlock: MIFKUJ_clean_linker_0, # of connection points: 2
#     Edge 10, Type (0, 0), BuildingBlock: MIFKUJ_clean_linker_0, # of connection points: 2
#     Edge 11, Type (0, 0), BuildingBlock: MIFKUJ_clean_linker_0, # of connection points: 2
# Relax obj value: 0.210
# Max RMSD: 0.135
# Mean RMSD: 0.083
data_MOF--net-sxc--node1-HISSIN_clean_sbu_0--edge1-MIFKUJ_clean_linker_0
_symmetry_space_group_name_H-M    P1
_symmetry_Int_Tables_number       1
_symmetry_cell_setting            triclinic
loop_
_symmetry_equiv_pos_as_xyz
'x, y, z'
_cell_length_a     22.763975
_cell_length_b     20.603538
_cell_length_c     60.254982
_cell_angle_alpha  94.00203
_cell_angle_beta   95.600063
_cell_angle_gamma 99.28646
loop_
_atom_site_label
_atom_site_type_symbol
_atom_site_fract_x
_atom_site_fract_y
_atom_site_fract_z
_atom_type_partial_charge
Eu0 Eu 0.21818 0.06186 0.0059 0.0
Eu1 Eu 1.0732 0.03847 0.00177 0.0
C2 C 0.14101 0.04428 0.95714 0.0
C3 C 0.37912 0.13999 0.00279 0.0
C4 C 0.39502 0.13901 0.98079 0.0
C5 C 0.43937 0.24903 0.01107 0.0
C6 C 0.43169 0.1933 0.97388 0.0
C7 C 0.40321 0.19473 0.01802 0.0
C8 C 0.45281 0.24939 -0.01117 0.0
C9 C 0.33489 0.0865 0.00961 0.0
O10 O 0.0945 0.93371 0.00484 0.0
O11 O 0.19474 0.94945 0.00044 0.0
C12 C 0.14426 0.90971 0.00242 0.0
O13 O 0.19208 0.03582 0.03999 0.0
O14 O 0.9872 0.05209 -0.01477 0.0
O15 O 0.99029 0.99922 0.0151 0.0
O16 O 0.105 0.07656 0.03775 0.0
C17 C 0.14928 0.05772 0.04982 0.0
O18 O 0.19813 0.16798 0.00815 0.0
O19 O 0.09591 0.14985 -0.00031 0.0
O20 O 0.09426 1.01703 0.96638 0.0
O21 O 0.30324 0.1033 0.02534 0.0
O22 O 0.30238 0.04666 -0.00639 0.0
O23 O 0.19032 0.0734 0.96944 0.0
C24 C 0.90984 0.96281 -0.01258 0.0
C25 C 0.85649 0.94711 -0.00294 0.0
C26 C 0.87688 0.87081 0.95918 0.0
C27 C 0.81391 0.89289 -0.01192 0.0
C28 C 0.91968 0.92484 0.9683 0.0
C29 C 0.82393 0.8536 0.9692 0.0
C30 C 0.95649 1.01575 -0.0016 0.0
C31 C 0.14741 0.1907 0.0039 0.0
H32 H 0.37776 0.09722 0.96871 0.0
H33 H 0.45618 0.29128 0.02302 0.0
H34 H 0.44162 0.19244 0.95665 0.0
H35 H 0.39268 0.1965 0.03518 0.0
H36 H 0.84858 0.97557 0.01196 0.0
H37 H 0.88574 0.84183 0.94457 0.0
H38 H 0.77432 0.88021 -0.00345 0.0
H39 H 0.96098 0.93605 0.96072 0.0
Eu40 Eu 1.03553 0.05817 0.32948 0.0
Eu41 Eu 0.17893 0.08658 0.34055 0.0
C42 C 0.0958 0.07483 0.3813 0.0
C43 C 0.88963 0.04758 0.29395 0.0
C44 C 0.90445 0.10955 0.28564 0.0
C45 C 0.82 1.01126 0.26067 0.0
C46 C 0.87614 0.12267 0.26516 0.0
C47 C 0.84765 0.9985 0.28122 0.0
C48 C 0.8336 0.07359 0.25249 0.0
C49 C 0.92249 1.03053 0.31436 0.0
O50 O 0.15825 0.97543 0.34391 0.0
O51 O 1.06079 0.95461 0.32812 0.0
C52 C 0.10946 0.93317 0.33617 0.0
O53 O 1.07282 0.0902 0.2978 0.0
O54 O 0.26583 0.06033 0.35161 0.0
O55 O 0.26165 0.15479 0.33872 0.0
O56 O 0.16011 0.05188 0.30371 0.0
C57 C 0.11927 0.07069 0.28998 0.0
O58 O 1.05292 0.17078 0.33595 0.0
O59 O 0.15499 0.18955 0.33629 0.0
O60 O 0.14722 0.10081 0.37468 0.0
O61 O 0.96078 0.99164 0.31059 0.0
O62 O 0.94408 0.0782 0.32989 0.0
O63 O 1.04922 0.04845 0.3669 0.0
C64 C 0.33307 0.09755 0.32602 0.0
C65 C 0.31043 0.04846 0.30854 0.0
C66 C 0.41635 0.13528 0.30537 0.0
C67 C 0.33989 0.04362 0.28942 0.0
C68 C 0.38653 0.14043 0.32445 0.0
C69 C 0.39264 0.08759 0.28751 0.0
C70 C 0.29537 0.11135 0.34354 0.0
C71 C 0.10385 0.21205 0.33634 0.0
H72 H 0.93803 0.14764 0.2949 0.0
H73 H 0.78646 0.97292 0.25151 0.0
H74 H 0.88718 0.17117 0.25927 0.0
H75 H 0.83654 0.95001 0.28714 0.0
H76 H 0.26875 1.01529 0.30932 0.0
H77 H 0.45686 0.17003 0.30426 0.0
H78 H 0.3212 1.00581 0.27607 0.0
H79 H 0.40389 0.17948 0.33754 0.0
Eu80 Eu 0.0821 0.97122 0.66662 0.0
Eu81 Eu 0.10185 0.12027 0.67193 0.0
C82 C 0.10007 0.04321 0.71491 0.0
C83 C 0.99606 0.79957 0.66491 0.0
C84 C 0.9541 0.81677 0.67891 0.0
C85 C 0.92437 0.70359 0.64894 0.0
C86 C 0.89809 0.7774 0.6781 0.0
C87 C 0.98093 0.74274 0.64994 0.0
C88 C 0.8827 0.72065 0.66309 0.0
C89 C 1.05396 0.84297 0.66501 0.0
O90 O 0.20585 0.0993 0.67196 0.0
O91 O 0.18965 0.98799 0.66495 0.0
C92 C 0.23052 0.04403 0.66839 0.0
O93 O 1.0788 0.99298 0.6302 0.0
O94 O 0.1443 0.20667 0.69402 0.0
O95 O 0.09182 0.21897 0.66304 0.0
O96 O 0.10199 0.10531 0.63452 0.0
C97 C 0.08993 0.04992 0.62165 0.0
O98 O 0.97886 0.99144 0.66929 0.0
O99 O 0.99285 0.10232 0.66805 0.0
O100 O 1.07393 0.08659 0.70488 0.0
O101 O 1.06095 0.87483 0.64729 0.0
O102 O 1.07303 0.88059 0.6834 0.0
O103 O 0.12225 1.00091 0.70251 0.0
C104 C 0.17953 0.29574 0.67445 0.0
C105 C 0.21232 0.27955 0.65693 0.0
C106 C 0.25247 0.39491 0.68522 0.0
C107 C 0.2653 0.32044 0.65373 0.0
C108 C 0.19922 0.3541 0.68833 0.0
C109 C 0.28654 0.37771 0.66816 0.0
C110 C 0.12936 0.24803 0.67993 0.0
C111 C 0.95297 0.04641 0.66857 0.0
H112 H 0.96419 0.86111 0.69032 0.0
H113 H 0.91328 0.65991 0.63725 0.0
H114 H 0.86628 0.79207 0.6889 0.0
H115 H 1.01255 0.72916 0.63887 0.0
H116 H 0.19821 0.23397 0.64628 0.0
H117 H 0.26777 0.43907 0.69646 0.0
H118 H 0.29111 0.30553 0.64067 0.0
H119 H 0.17461 0.36681 0.70206 0.0
H120 H 1.05141 0.25806 0.0025 0.0
H121 H 1.05097 0.37651 0.00248 0.0
H122 H 0.2433 0.41239 0.00443 0.0
H123 H 0.244 0.29358 0.00536 0.0
H124 H 0.21844 0.50708 0.02886 0.0
H125 H 0.13429 0.42113 0.95484 0.0
H126 H 1.06498 0.34935 0.92581 0.0
H127 H 0.91585 0.42359 0.95058 0.0
H128 H 0.98422 0.49523 0.97995 0.0
H129 H 0.23928 0.84157 -0.00013 0.0
H130 H 0.23992 0.72297 -0.0001 0.0
H131 H 1.05004 0.68844 0.00465 0.0
H132 H 1.04903 0.80741 0.00437 0.0
H133 H 1.07414 0.59385 0.97659 0.0
H134 H 0.16181 0.68136 0.0506 0.0
H135 H 0.23363 0.75444 0.0785 0.0
H136 H 0.37966 0.67815 0.05202 0.0
H137 H 0.30874 0.60519 0.02376 0.0
C138 C 0.09387 0.29084 0.00289 0.0
C139 C 0.14775 0.26481 0.00383 0.0
C140 C 0.09353 0.35944 0.00268 0.0
C141 C 0.14698 0.40537 0.00292 0.0
C142 C 0.20099 0.37944 0.00414 0.0
C143 C 0.2014 0.31074 0.00461 0.0
C144 C 0.14657 0.47967 0.00221 0.0
C145 C 0.18728 0.52555 0.01711 0.0
C146 C 0.10556 0.506 -0.01265 0.0
C147 C 1.06433 0.46303 0.96973 0.0
C148 C 0.08668 0.4218 0.95419 0.0
C149 C 1.04756 0.3812 0.93767 0.0
C150 C 0.98603 0.38178 0.9364 0.0
C151 C 0.9635 0.42311 0.95161 0.0
C152 C 1.00242 0.46376 0.96819 0.0
C153 C 0.19739 0.8091 0.00094 0.0
C154 C 0.1441 0.83555 0.00221 0.0
C155 C 0.19791 0.74051 0.0011 0.0
C156 C 0.14522 0.69505 0.00265 0.0
C157 C 0.09171 0.72123 0.00353 0.0
C158 C 0.09118 0.78999 0.00343 0.0
C159 C 0.14589 0.62091 0.00322 0.0
C160 C 0.10526 0.57517 -0.0117 0.0
C161 C 0.18734 0.59477 0.01789 0.0
C162 C 0.23 0.63828 0.03493 0.0
C163 C 0.20926 0.68049 0.05063 0.0
C164 C 0.24982 0.72184 0.06652 0.0
C165 C 0.31119 0.72106 0.06699 0.0
C166 C 0.33213 0.67877 0.05161 0.0
C167 C 0.29177 0.63737 0.03567 0.0
H168 H 0.34251 0.75312 0.07931 0.0
H169 H 0.95582 0.35031 0.92359 0.0
H170 H 0.34312 0.07445 0.24361 0.0
H171 H 0.39593 0.06581 0.20996 0.0
H172 H 0.56313 0.08261 0.25204 0.0
H173 H 0.51134 0.09083 0.28536 0.0
H174 H 0.51588 0.16445 0.20023 0.0
H175 H 0.60137 0.93586 0.23556 0.0
H176 H 0.55765 0.83321 0.25069 0.0
H177 H 0.38712 0.84023 0.21444 0.0
H178 H 0.43002 0.94244 0.19873 0.0
H179 H 0.77758 0.17925 0.2484 0.0
H180 H 0.69005 0.18268 0.22291 0.0
H181 H 0.71867 1.00653 0.18509 0.0
H182 H 0.80548 1.00145 0.21175 0.0
H183 H 0.62491 0.97499 0.19974 0.0
H184 H 0.66289 0.14447 0.15669 0.0
H185 H 0.70676 0.24795 0.14209 0.0
H186 H 0.63413 0.36002 0.19221 0.0
H187 H 0.59075 0.25766 0.20745 0.0
C188 C 0.39117 0.07613 0.24556 0.0
C189 C 0.42336 0.08333 0.26707 0.0
C190 C 0.42106 0.07164 0.22639 0.0
C191 C 0.48311 0.07344 0.22866 0.0
C192 C 0.51506 0.08112 0.25006 0.0
C193 C 0.48556 0.08606 0.26907 0.0
C194 C 0.51703 0.06576 0.20931 0.0
C195 C 0.53968 0.12298 0.19954 0.0
C196 C 0.54448 1.00945 0.20685 0.0
C197 C 0.51911 0.94666 0.21576 0.0
C198 C 0.55476 0.91511 0.23052 0.0
C199 C 0.53005 0.85708 0.23929 0.0
C200 C 0.46969 0.83012 0.2335 0.0
C201 C 0.4339 0.86112 0.2189 0.0
C202 C 0.45839 0.91912 0.21005 0.0
C203 C 0.76703 0.14303 0.23405 0.0
C204 C 0.79707 0.08893 0.23245 0.0
C205 C 0.71682 0.14531 0.2191 0.0
C206 C 0.69614 0.09383 0.20212 0.0
C207 C 0.73265 0.04614 0.19826 0.0
C208 C 0.78222 0.04305 0.21355 0.0
C209 C 0.63059 0.07861 0.19469 0.0
C210 C 0.60088 1.01623 0.19905 0.0
C211 C 0.5967 0.13001 0.19191 0.0
C212 C 0.62283 0.19277 0.18309 0.0
C213 C 0.65634 0.19111 0.16468 0.0
C214 C 0.6812 0.2497 0.15629 0.0
C215 C 0.67305 0.3105 0.16616 0.0
C216 C 0.6401 0.31284 0.18449 0.0
C217 C 0.6151 0.25442 0.19296 0.0
H218 H 0.69237 0.3558 0.15964 0.0
H219 H 0.45063 0.78527 0.24035 0.0
H220 H 0.80311 0.67829 0.62614 0.0
H221 H 0.70038 0.61831 0.6252 0.0
H222 H 0.72494 0.61378 0.69696 0.0
H223 H 0.82732 0.67351 0.69798 0.0
H224 H 0.67132 0.49406 0.67494 0.0
H225 H 0.65278 0.72192 0.67613 0.0
H226 H 0.66488 0.83387 0.66352 0.0
H227 H 0.56054 0.75931 0.60107 0.0
H228 H 0.54918 0.64631 0.61309 0.0
H229 H 0.37452 0.42261 0.70214 0.0
H230 H 0.47623 0.47882 0.69927 0.0
H231 H 0.43613 0.47345 0.62762 0.0
H232 H 0.33374 0.41793 0.63041 0.0
H233 H 0.49741 0.59508 0.64728 0.0
H234 H 0.51452 0.36486 0.64829 0.0
H235 H 0.50214 0.25571 0.66319 0.0
H236 H 0.60788 0.33951 0.72444 0.0
H237 H 0.62046 0.44941 0.70998 0.0
C238 C 0.78661 0.6637 0.64163 0.0
C239 C 0.8227 0.6804 0.66214 0.0
C240 C 0.72805 0.63004 0.6411 0.0
C241 C 0.70525 0.61234 0.66104 0.0
C242 C 0.74188 0.62728 0.68143 0.0
C243 C 0.80007 0.66146 0.682 0.0
C244 C 0.64296 0.57862 0.66082 0.0
C245 C 0.63322 0.51626 0.66903 0.0
C246 C 0.59362 0.60755 0.65279 0.0
C247 C 0.60109 0.67536 0.64536 0.0
C248 C 0.63324 0.72913 0.65956 0.0
C249 C 0.63989 0.79286 0.65253 0.0
C250 C 0.61386 0.8037 0.63143 0.0
C251 C 0.58104 0.75078 0.61735 0.0
C252 C 0.57456 0.68684 0.62425 0.0
C253 C 0.3871 0.43434 0.68582 0.0
C254 C 0.34636 0.4161 0.66649 0.0
C255 C 0.4453 0.46573 0.68418 0.0
C256 C 0.46366 0.47927 0.6632 0.0
C257 C 0.42267 0.4629 0.64393 0.0
C258 C 0.36447 0.43114 0.64554 0.0
C259 C 0.5258 0.51063 0.66146 0.0
C260 C 0.53553 0.57258 0.65292 0.0
C261 C 0.5752 0.48173 0.66946 0.0
C262 C 0.56772 0.41556 0.67815 0.0
C263 C 0.53462 0.36016 0.66502 0.0
C264 C 0.52761 0.29811 0.67339 0.0
C265 C 0.55366 0.29078 0.69485 0.0
C266 C 0.58735 0.34535 0.70789 0.0
C267 C 0.59454 0.4075 0.69959 0.0
H268 H 0.54806 0.24282 0.70137 0.0
H269 H 0.61871 0.85315 0.62607 0.0
H270 H 0.8771 0.14925 0.66395 0.0
H271 H 0.76952 0.15004 0.66312 0.0
H272 H 0.73955 0.94378 0.6727 0.0
H273 H 0.84776 0.94278 0.67261 0.0
H274 H 0.63323 0.9435 0.65978 0.0
H275 H 0.71305 0.14036 0.71008 0.0
H276 H 0.77002 0.25192 0.72189 0.0
H277 H 0.68807 0.3265 0.66392 0.0
H278 H 0.63111 0.21529 0.6517 0.0
H279 H 0.30437 0.93886 0.66839 0.0
H280 H 0.41147 0.93713 0.66918 0.0
H281 H 0.44532 0.14745 0.66821 0.0
H282 H 0.33743 0.14907 0.6686 0.0
H283 H 0.55019 0.14575 0.67646 0.0
H284 H 0.47683 0.94906 0.62455 0.0
H285 H 0.42069 0.83765 0.61186 0.0
H286 H 0.49044 0.76343 0.67204 0.0
H287 H 0.54671 0.87448 0.68509 0.0
C288 C 0.84903 0.10292 0.66605 0.0
C289 C 0.87857 0.04606 0.66847 0.0
C290 C 0.78368 0.10346 0.66589 0.0
C291 C 0.73773 0.04738 0.66852 0.0
C292 C 0.76745 0.99025 0.6707 0.0
C293 C 0.8329 0.9896 0.6707 0.0
C294 C 0.66288 0.04732 0.6686 0.0
C295 C 0.61715 0.98903 0.66382 0.0
C296 C 0.63249 0.10365 0.67313 0.0
C297 C 0.6687 0.16944 0.67982 0.0
C298 C 0.70774 0.18047 0.69976 0.0
C299 C 0.73991 0.24363 0.70653 0.0
C300 C 0.73293 0.29617 0.69359 0.0
C301 C 0.69382 0.28566 0.67383 0.0
C302 C 0.66165 0.2226 0.66696 0.0
C303 C 0.33325 0.98596 0.66821 0.0
C304 C 0.30479 0.04406 0.6683 0.0
C305 C 0.39851 0.985 0.66832 0.0
C306 C 0.44551 0.04196 0.66797 0.0
C307 C 0.41674 0.10021 0.66823 0.0
C308 C 0.35141 0.10128 0.66845 0.0
C309 C 0.52041 0.04185 0.6678 0.0
C310 C 0.56622 0.10015 0.67255 0.0
C311 C 0.55088 0.98562 0.66311 0.0
C312 C 0.51491 0.9201 0.65595 0.0
C313 C 0.47959 0.90905 0.63515 0.0
C314 C 0.4479 0.84599 0.62788 0.0
C315 C 0.45164 0.79362 0.64122 0.0
C316 C 0.48712 0.80417 0.66184 0.0
C317 C 0.51887 0.86712 0.66918 0.0
H318 H 0.42738 0.74477 0.63551 0.0
H319 H 0.75762 0.34507 0.69893 0.0
H320 H 0.70146 0.83353 0.96594 0.0
H321 H 0.63438 0.72713 0.96162 0.0
H322 H 0.78276 0.62767 0.95018 0.0
H323 H 0.85078 0.73346 0.95534 0.0
H324 H 0.65803 0.57175 0.92408 0.0
H325 H 0.7673 0.63417 -0.00181 0.0
H326 H 0.80426 0.71375 0.031 0.0
H327 H 0.62353 0.73319 0.04108 0.0
H328 H 0.58559 0.65459 0.00803 0.0
H329 H 0.54886 0.25931 0.96453 0.0
H330 H 0.60804 0.36091 0.95418 0.0
H331 H 0.49044 0.47563 -0.01484 0.0
H332 H 0.43214 0.37473 -0.0042 0.0
H333 H 0.60201 0.52323 -0.00047 0.0
H334 H 0.49049 0.4547 0.9278 0.0
H335 H 0.45123 0.3787 0.89431 0.0
H336 H 0.63051 0.37171 0.87897 0.0
H337 H 0.67091 0.44699 0.91257 0.0
C338 C 0.71974 0.78916 0.96216 0.0
C339 C 0.78163 0.79183 0.96146 0.0
C340 C 0.68125 0.72861 0.95943 0.0
C341 C 0.70397 0.66997 0.95573 0.0
C342 C 0.76459 0.6727 0.95287 0.0
C343 C 0.80334 0.73326 0.95584 0.0
C344 C 0.66699 0.60653 0.95894 0.0
C345 C 0.64606 0.56045 0.94054 0.0
C346 C 0.65106 0.59288 0.98041 0.0
C347 C 0.67369 0.63917 0.00051 0.0
C348 C 0.7355 0.6559 0.00728 0.0
C349 C 0.75662 0.70074 0.02593 0.0
C350 C 0.71628 0.72866 0.03808 0.0
C351 C 0.65473 0.71162 0.03163 0.0
C352 C 0.6334 0.66693 0.01295 0.0
C353 C 0.53545 0.30628 0.96886 0.0
C354 C 0.48654 0.30952 0.98118 0.0
C355 C 0.56902 0.36413 0.96288 0.0
C356 C 0.55346 0.42576 0.96885 0.0
C357 C 0.5034 0.42862 0.98051 0.0
C358 C 0.47032 0.37108 -0.01335 0.0
C359 C 0.59166 0.48783 0.96458 0.0
C360 C 0.61345 0.53392 0.98295 0.0
C361 C 0.60788 0.50124 0.94304 0.0
C362 C 0.58374 0.45594 0.92284 0.0
C363 C 0.52157 0.4365 0.9174 0.0
C364 C 0.49911 0.39364 0.89838 0.0
C365 C 0.53835 0.37025 0.88456 0.0
C366 C 0.60016 0.3898 0.88971 0.0
C367 C 0.62287 0.4326 0.90873 0.0
H368 H 0.52087 0.33709 0.86983 0.0
H369 H 0.73271 0.76337 0.05252 0.0
H370 H 0.20054 0.31493 0.34197 0.0
H371 H 0.20123 0.43395 0.34201 0.0
H372 H 1.00857 0.39904 0.33094 0.0
H373 H 1.00762 0.27961 0.33086 0.0
H374 H 1.05115 0.49376 0.30536 0.0
H375 H 0.08959 0.46198 0.38322 0.0
H376 H 0.14234 0.42453 0.41641 0.0
H377 H 0.30576 0.54723 0.40479 0.0
H378 H 0.25413 0.58476 0.37134 0.0
H379 H 1.01362 0.83012 0.32653 0.0
H380 H 1.01214 0.71131 0.3269 0.0
H381 H 0.20274 0.74648 0.34597 0.0
H382 H 0.20394 0.86586 0.34639 0.0
H383 H 0.1612 0.65072 0.36737 0.0
H384 H 0.12617 0.68192 0.28966 0.0
H385 H 1.07627 0.71917 0.25583 0.0
H386 H 0.9108 0.59773 0.26593 0.0
H387 H 0.95954 0.56039 0.3 0.0
C388 C 0.15807 0.33216 0.3396 0.0
C389 C 0.10399 0.28624 0.33653 0.0
C390 C 0.15851 0.40105 0.33972 0.0
C391 C 0.10492 0.4273 0.33674 0.0
C392 C 1.05087 0.38144 0.33336 0.0
C393 C 1.05036 0.31249 0.33341 0.0
C394 C 0.10529 0.50183 0.33705 0.0
C395 C 1.07462 0.52773 0.31913 0.0
C396 C 0.13705 0.548 0.35454 0.0
C397 C 0.16813 0.52566 0.37465 0.0
C398 C 0.13688 0.48059 0.38765 0.0
C399 C 0.16656 0.45942 0.40652 0.0
C400 C 0.2274 0.48335 0.41267 0.0
C401 C 0.25865 0.52865 0.39999 0.0
C402 C 0.2292 0.54993 0.38108 0.0
C403 C 1.05547 0.81296 0.33078 0.0
C404 C 0.10897 0.85901 0.33633 0.0
C405 C 1.05468 0.74407 0.33082 0.0
C406 C 0.10754 0.71774 0.336 0.0
C407 C 0.16094 0.76385 0.34181 0.0
C408 C 0.16166 0.83288 0.34198 0.0
C409 C 0.10708 0.64301 0.33562 0.0
C410 C 0.13774 0.61696 0.35354 0.0
C411 C 1.07578 0.59674 0.31801 0.0
C412 C 1.04637 0.61889 0.29751 0.0
C413 C 1.07904 0.6635 0.28475 0.0
C414 C 1.05098 0.68459 0.26552 0.0
C415 C 0.99036 0.66097 0.25877 0.0
C416 C 0.95772 0.61606 0.2712 0.0
C417 C 0.98555 0.59488 0.29046 0.0
H418 H 0.96871 0.67737 0.24388 0.0
H419 H 0.25029 0.4669 0.42729 0.0
H420 H 1.0485 0.11722 0.25736 0.0
H421 H 1.05779 0.11525 0.21731 0.0
H422 H 0.21216 1.01906 0.22672 0.0
H423 H 0.20416 1.02279 0.267 0.0
H424 H 0.23217 0.10541 0.19785 0.0
H425 H 1.06846 0.93395 0.20419 0.0
H426 H 0.97232 0.88438 0.21646 0.0
H427 H 0.88236 1.01841 0.18 0.0
H428 H 0.97818 0.06939 0.16774 0.0
H429 H 0.22705 1.01103 0.08032 0.0
H430 H 0.22598 1.01251 0.12096 0.0
H431 H 1.07321 0.11236 0.11658 0.0
H432 H 1.07315 0.10956 0.07599 0.0
H433 H 1.05483 1.01917 0.14316 0.0
H434 H 0.22389 0.18863 0.13634 0.0
H435 H 0.32249 0.23571 0.12548 0.0
H436 H 0.40531 0.09989 0.16369 0.0
H437 H 0.30702 0.051 0.17439 0.0
C438 C 0.08452 0.09561 0.25096 0.0
C439 C 0.12535 0.06977 0.26551 0.0
C440 C 0.08959 0.09416 0.22793 0.0
C441 C 0.13496 0.06574 0.21868 0.0
C442 C 0.1765 0.041 0.23325 0.0
C443 C 0.17179 0.04298 0.25636 0.0
C444 C 0.13885 0.06186 0.1939 0.0
C445 C 0.19356 0.08563 0.1859 0.0
C446 C 0.08849 0.03687 0.17812 0.0
C447 C 1.0306 1.00581 0.18519 0.0
C448 C 1.02824 0.95309 0.19889 0.0
C449 C 0.9738 0.92474 0.20584 0.0
C450 C 0.9213 0.94831 0.19906 0.0
C451 C 0.92308 1.00023 0.18526 0.0
C452 C 0.97744 1.02881 0.17828 0.0
C453 C 0.19333 0.0336 0.088 0.0
C454 C 0.15019 0.06023 0.07474 0.0
C455 C 0.19298 0.03473 0.11135 0.0
C456 C 0.14994 0.06328 0.12212 0.0
C457 C 0.10698 0.08999 0.10886 0.0
C458 C 0.10706 0.0885 0.08554 0.0
C459 C 0.14803 0.06369 0.147 0.0
C460 C 0.09357 0.03894 0.15505 0.0
C461 C 0.19893 0.08702 0.16278 0.0
C462 C 0.25785 0.11553 0.15591 0.0
C463 C 0.26296 0.16821 0.14219 0.0
C464 C 0.31885 0.1953 0.1361 0.0
C465 C 0.37009 0.17062 0.14381 0.0
C466 C 0.36557 0.11878 0.15765 0.0
C467 C 0.30976 0.09133 0.1637 0.0
H468 H 0.41332 0.19181 0.13912 0.0
H469 H 0.87922 0.92618 0.20444 0.0
H470 H 0.15945 0.16024 0.4153 0.0
H471 H 0.15517 0.15687 0.45554 0.0
H472 H 1.0201 0.98171 0.44337 0.0
H473 H 1.02181 0.98749 0.40295 0.0
H474 H 0.99269 0.04808 0.47622 0.0
H475 H 0.17843 0.98355 0.4618 0.0
H476 H 0.27684 0.99238 0.44733 0.0
H477 H 0.33963 0.17225 0.48926 0.0
H478 H 0.24131 0.16494 0.50377 0.0
H479 H 1.04156 0.95179 0.58851 0.0
H480 H 1.03977 0.95601 0.54786 0.0
H481 H 0.13517 0.15601 0.55783 0.0
H482 H 0.13639 0.15261 0.59842 0.0
H483 H 0.1823 0.07382 0.52659 0.0
H484 H 0.99129 0.13155 0.5411 0.0
H485 H 0.89305 0.11376 0.55575 0.0
H486 H 0.84126 0.93272 0.51356 0.0
H487 H 0.93959 0.94897 0.49889 0.0
C488 C 0.12863 0.12111 0.42118 0.0
C489 C 0.09124 0.07391 0.40583 0.0
C490 C 0.12654 0.11883 0.44431 0.0
C491 C 0.08853 0.06787 0.45285 0.0
C492 C 1.05013 1.02148 0.43746 0.0
C493 C 1.05116 1.02474 0.41427 0.0
C494 C 0.08901 0.06295 0.4777 0.0
C495 C 1.03431 0.05277 0.48708 0.0
C496 C 0.14302 0.06963 0.49229 0.0
C497 C 0.20232 0.074 0.48371 0.0
C498 C 0.21311 1.0252 0.46783 0.0
C499 C 0.26888 1.02991 0.45964 0.0
C500 C 0.3144 0.08293 0.46733 0.0
C501 C 0.3043 0.13126 0.4833 0.0
C502 C 0.24858 0.12682 0.49153 0.0
C503 C 1.06216 0.99674 0.58209 0.0
C504 C 0.08902 0.0519 0.59685 0.0
C505 C 1.06091 0.99914 0.55879 0.0
C506 C 0.0871 0.05645 0.54968 0.0
C507 C 0.11461 0.11124 0.56438 0.0
C508 C 0.11507 0.10925 0.58764 0.0
C509 C 0.08626 0.0593 0.52488 0.0
C510 C 0.14088 0.069 0.51559 0.0
C511 C 1.03225 0.05072 0.51036 0.0
C512 C 0.97303 0.04115 0.51907 0.0
C513 C 0.95915 0.08767 0.53509 0.0
C514 C 0.90341 0.07792 0.54337 0.0
C515 C 0.861 1.02205 0.53564 0.0
C516 C 0.87419 0.97592 0.51956 0.0
C517 C 0.92989 0.9854 0.51124 0.0
H518 H 0.81787 1.01459 0.54207 0.0
H519 H 0.35755 0.0865 0.46096 0.0
H520 H 1.03115 0.09552 0.74393 0.0
H521 H 1.03803 0.094 0.7846 0.0
H522 H 0.18814 0.99039 0.78313 0.0
H523 H 0.17883 0.98842 0.74224 0.0
H524 H 0.1285 0.94185 0.81232 0.0
H525 H 0.19844 0.16614 0.80071 0.0
H526 H 0.19658 0.27388 0.78545 0.0
H527 H 1.03895 0.29476 0.81718 0.0
H528 H 1.03939 0.18668 0.83238 0.0
H529 H 0.23353 0.05902 0.93077 0.0
H530 H 0.22696 0.05709 0.88976 0.0
H531 H 1.03449 1.02757 0.88606 0.0
H532 H 1.04043 1.02726 0.92693 0.0
H533 H 0.1196 0.14444 0.86057 0.0
H534 H 1.0529 0.90833 0.86964 0.0
H535 H 1.06757 0.80503 0.8861 0.0
H536 H 0.23748 0.81489 0.86005 0.0
H537 H 0.22415 0.91893 0.84375 0.0
C538 C 1.06565 0.0724 0.75227 0.0
C539 C 0.10463 0.0424 0.73978 0.0
C540 C 1.06993 0.07199 0.77566 0.0
C541 C 0.11463 0.04351 0.78735 0.0
C542 C 0.15325 1.01292 0.77478 0.0
C543 C 0.14804 1.01197 0.75131 0.0
C544 C 0.12064 0.04493 0.81252 0.0
C545 C 0.12707 0.9866 0.82271 0.0
C546 C 0.11899 0.10292 0.82655 0.0
C547 C 0.11863 0.16801 0.8175 0.0
C548 C 0.16315 0.19351 0.8043 0.0
C549 C 0.16237 0.25466 0.79568 0.0
C550 C 0.11758 0.29106 0.8003 0.0
C551 C 1.07356 0.26646 0.81359 0.0
C552 C 1.07408 0.20528 0.82223 0.0
C553 C 0.18976 0.0519 0.92125 0.0
C554 C 0.1375 0.04306 0.93222 0.0
C555 C 0.18611 0.05078 0.89779 0.0
C556 C 0.13024 0.04205 0.88482 0.0
C557 C 1.07807 0.03415 0.89571 0.0
C558 C 0.08159 0.0338 0.91909 0.0
C559 C 0.12626 0.04153 0.85992 0.0
C560 C 0.12074 0.10005 0.84994 0.0
C561 C 0.13016 0.98437 0.84612 0.0
C562 C 0.1379 0.92176 0.85577 0.0
C563 C 0.09368 0.88886 0.86766 0.0
C564 C 0.10167 0.83009 0.8769 0.0
C565 C 0.15353 0.80353 0.8742 0.0
C566 C 0.1974 0.83559 0.86218 0.0
C567 C 0.18964 0.89443 0.85293 0.0
H568 H 0.15963 0.75802 0.88136 0.0
H569 H 0.11706 0.33839 0.7936 0.0
loop_
_geom_bond_atom_site_label_1
_geom_bond_atom_site_label_2
_geom_bond_distance
_geom_bond_site_symmetry_2
_ccdc_geom_bond_type
Eu0 C9 2.828 . S
Eu0 O11 2.392 1_545 S
Eu0 O13 2.418 . S
Eu0 O18 2.373 . S
Eu0 O21 2.488 . S
Eu0 O22 2.471 1_554 S
Eu0 O23 2.349 1_554 S
Eu1 O10 2.373 1_655 S
Eu1 O14 2.488 . S
Eu1 O15 2.471 1_556 S
Eu1 O16 2.349 1_666 S
Eu1 O19 2.392 1_665 S
Eu1 O20 2.418 . S
Eu1 C30 2.835 . S
C2 O20 1.244 1_445 S
C2 O23 1.265 . S
C3 C4 1.379 1_554 S
C3 C7 1.373 . S
C3 C9 1.505 . S
C4 C3 1.379 1_556 S
C4 C6 1.369 . S
C4 H32 0.930 . S
C5 C7 1.383 . S
C5 C8 1.382 . S
C5 H33 0.930 . S
C6 C4 1.369 . S
C6 C8 1.392 1_556 S
C6 H34 0.930 . S
C7 C3 1.373 . S
C7 C5 1.383 . S
C7 H35 0.931 . S
C8 C5 1.382 . S
C8 C6 1.392 1_554 S
C9 Eu0 2.828 . S
C9 C3 1.505 . S
C9 O21 1.249 . S
C9 O22 1.244 1_554 S
O10 Eu1 2.373 1_455 S
O10 C12 1.258 1_556 S
O11 Eu0 2.392 1_565 S
O11 C12 1.242 . S
C12 O10 1.258 1_554 S
C12 O11 1.242 . S
O13 Eu0 2.418 . S
O13 C17 1.244 . S
O14 Eu1 2.488 . S
O14 C30 1.285 . S
O15 Eu1 2.471 1_554 S
O15 C30 1.216 1_554 S
O16 Eu1 2.349 1_444 S
O16 C17 1.265 . S
C17 O13 1.244 . S
C17 O16 1.265 . S
O18 Eu0 2.373 . S
O18 C31 1.258 . S
O19 Eu1 2.392 1_445 S
O19 C31 1.242 1_556 S
O20 Eu1 2.418 . S
O20 C2 1.244 1_665 S
O21 Eu0 2.488 . S
O21 C9 1.249 . S
O22 Eu0 2.471 1_556 S
O22 C9 1.244 1_556 S
O23 Eu0 2.349 1_556 S
O23 C2 1.265 . S
C24 C25 1.415 . S
C24 C28 1.345 1_554 S
C24 C30 1.493 1_554 S
C25 C24 1.415 . S
C25 C27 1.369 . S
C25 H36 0.930 . S
C26 C28 1.383 . S
C26 C29 1.382 1_556 S
C26 H37 0.930 . S
C27 C25 1.369 . S
C27 C29 1.392 . S
C27 H38 0.930 . S
C28 C24 1.345 1_556 S
C28 C26 1.383 . S
C28 H39 0.931 . S
C29 C26 1.382 1_554 S
C29 C27 1.392 . S
C30 Eu1 2.835 . S
C30 O14 1.285 . S
C30 O15 1.216 1_556 S
C30 C24 1.493 1_556 S
C31 O18 1.258 . S
C31 O19 1.242 1_554 S
H32 C4 0.930 . S
H33 C5 0.930 . S
H34 C6 0.930 . S
H35 C7 0.931 . S
H36 C25 0.930 . S
H37 C26 0.930 . S
H38 C27 0.930 . S
H39 C28 0.931 . S
Eu40 C49 2.828 1_565 S
Eu40 O51 2.392 . S
Eu40 O53 2.418 1_565 S
Eu40 O58 2.373 1_565 S
Eu40 O61 2.488 1_565 S
Eu40 O62 2.471 1_565 S
Eu40 O63 2.349 1_565 S
Eu41 O50 2.373 1_545 S
Eu41 O54 2.488 . S
Eu41 O55 2.471 . S
Eu41 O56 2.349 . S
Eu41 O59 2.392 . S
Eu41 O60 2.418 . S
Eu41 C70 2.828 . S
C42 O60 1.244 . S
C42 O63 1.265 1_455 S
C43 C44 1.379 . S
C43 C47 1.373 . S
C43 C49 1.505 . S
C44 C43 1.379 . S
C44 C46 1.369 . S
C44 H72 0.930 . S
C45 C47 1.383 . S
C45 C48 1.382 . S
C45 H73 0.930 . S
C46 C44 1.369 . S
C46 C48 1.392 . S
C46 H74 0.930 . S
C47 C43 1.373 . S
C47 C45 1.383 . S
C47 H75 0.931 . S
C48 C45 1.382 . S
C48 C46 1.392 . S
C49 Eu40 2.828 1_545 S
C49 C43 1.505 . S
C49 O61 1.249 . S
C49 O62 1.244 . S
O50 Eu41 2.373 1_565 S
O50 C52 1.258 . S
O51 Eu40 2.392 . S
O51 C52 1.242 1_655 S
C52 O50 1.258 . S
C52 O51 1.242 1_455 S
O53 Eu40 2.418 1_545 S
O53 C57 1.244 1_655 S
O54 Eu41 2.488 . S
O54 C70 1.249 . S
O55 Eu41 2.471 . S
O55 C70 1.244 . S
O56 Eu41 2.349 . S
O56 C57 1.265 . S
C57 O53 1.244 1_455 S
C57 O56 1.265 . S
O58 Eu40 2.373 1_545 S
O58 C71 1.258 . S
O59 Eu41 2.392 . S
O59 C71 1.242 1_455 S
O60 Eu41 2.418 . S
O60 C42 1.244 . S
O61 Eu40 2.488 1_545 S
O61 C49 1.249 . S
O62 Eu40 2.471 1_545 S
O62 C49 1.244 . S
O63 Eu40 2.349 1_545 S
O63 C42 1.265 1_655 S
C64 C65 1.379 1_545 S
C64 C68 1.373 . S
C64 C70 1.505 . S
C65 C64 1.379 1_565 S
C65 C67 1.369 . S
C65 H76 0.930 . S
C66 C68 1.383 . S
C66 C69 1.382 1_545 S
C66 H77 0.930 . S
C67 C65 1.369 . S
C67 C69 1.392 . S
C67 H78 0.930 . S
C68 C64 1.373 . S
C68 C66 1.383 . S
C68 H79 0.931 . S
C69 C66 1.382 1_565 S
C69 C67 1.392 . S
C70 Eu41 2.828 . S
C70 O54 1.249 . S
C70 O55 1.244 . S
C70 C64 1.505 . S
C71 O58 1.258 . S
C71 O59 1.242 1_655 S
H72 C44 0.930 . S
H73 C45 0.930 . S
H74 C46 0.930 . S
H75 C47 0.931 . S
H76 C65 0.930 . S
H77 C66 0.930 . S
H78 C67 0.930 . S
H79 C68 0.931 . S
Eu80 C89 2.828 . S
Eu80 O91 2.392 1_655 S
Eu80 O93 2.418 . S
Eu80 O98 2.373 . S
Eu80 O101 2.488 . S
Eu80 O102 2.471 . S
Eu80 O103 2.349 1_665 S
Eu81 O90 2.373 . S
Eu81 O94 2.488 . S
Eu81 O95 2.471 . S
Eu81 O96 2.349 . S
Eu81 O99 2.392 1_455 S
Eu81 O100 2.418 . S
Eu81 C110 2.828 . S
C82 O100 1.244 . S
C82 O103 1.265 . S
C83 C84 1.379 . S
C83 C87 1.373 . S
C83 C89 1.505 . S
C84 C83 1.379 . S
C84 C86 1.369 . S
C84 H112 0.930 . S
C85 C87 1.383 . S
C85 C88 1.382 . S
C85 H113 0.930 . S
C86 C84 1.369 . S
C86 C88 1.392 . S
C86 H114 0.930 . S
C87 C83 1.373 . S
C87 C85 1.383 . S
C87 H115 0.931 . S
C88 C85 1.382 . S
C88 C86 1.392 . S
C89 Eu80 2.828 . S
C89 C83 1.505 . S
C89 O101 1.249 . S
C89 O102 1.244 . S
O90 Eu81 2.373 . S
O90 C92 1.258 . S
O91 Eu80 2.392 1_455 S
O91 C92 1.242 1_565 S
C92 O90 1.258 . S
C92 O91 1.242 1_545 S
O93 Eu80 2.418 . S
O93 C97 1.244 1_665 S
O94 Eu81 2.488 . S
O94 C110 1.249 . S
O95 Eu81 2.471 . S
O95 C110 1.244 . S
O96 Eu81 2.349 . S
O96 C97 1.265 . S
C97 O93 1.244 1_445 S
C97 O96 1.265 . S
O98 Eu80 2.373 . S
O98 C111 1.258 1_565 S
O99 Eu81 2.392 1_655 S
O99 C111 1.242 . S
O100 Eu81 2.418 . S
O100 C82 1.244 . S
O101 Eu80 2.488 . S
O101 C89 1.249 . S
O102 Eu80 2.471 . S
O102 C89 1.244 . S
O103 Eu80 2.349 1_445 S
O103 C82 1.265 . S
C104 C105 1.379 . S
C104 C108 1.373 . S
C104 C110 1.505 . S
C105 C104 1.379 . S
C105 C107 1.369 . S
C105 H116 0.930 . S
C106 C108 1.383 . S
C106 C109 1.382 . S
C106 H117 0.930 . S
C107 C105 1.369 . S
C107 C109 1.392 . S
C107 H118 0.930 . S
C108 C104 1.373 . S
C108 C106 1.383 . S
C108 H119 0.931 . S
C109 C106 1.382 . S
C109 C107 1.392 . S
C110 Eu81 2.828 . S
C110 O94 1.249 . S
C110 O95 1.244 . S
C110 C104 1.505 . S
C111 O98 1.258 1_545 S
C111 O99 1.242 . S
H112 C84 0.930 . S
H113 C85 0.930 . S
H114 C86 0.930 . S
H115 C87 0.931 . S
H116 C105 0.930 . S
H117 C106 0.930 . S
H118 C107 0.930 . S
H119 C108 0.931 . S
H120 C138 0.951 1_655 S
H121 C140 0.951 1_655 S
H122 C142 0.950 . S
H123 C143 0.964 . S
H124 C145 0.950 . S
H125 C148 0.950 1_455 S
H126 C149 0.950 . S
H127 C151 0.950 . S
H128 C152 0.950 . S
H129 C153 0.951 . S
H130 C155 0.951 . S
H131 C157 0.950 1_655 S
H132 C158 0.950 1_655 S
H133 C160 0.950 1_655 S
H134 C163 0.950 . S
H135 C164 0.950 . S
H136 C166 0.950 . S
H137 C167 0.950 . S
C138 H120 0.951 1_455 S
C138 C139 1.366 . S
C138 C140 1.388 . S
C139 C138 1.366 . S
C139 C143 1.369 1_554 S
C140 H121 0.951 1_455 S
C140 C138 1.388 . S
C140 C141 1.366 . S
C141 C140 1.366 . S
C141 C142 1.414 1_554 S
C141 C144 1.499 . S
C142 H122 0.950 . S
C142 C141 1.414 1_556 S
C142 C143 1.378 . S
C143 H123 0.964 . S
C143 C139 1.369 1_556 S
C143 C142 1.378 . S
C144 C141 1.499 . S
C144 C145 1.373 . S
C144 C146 1.389 1_554 S
C145 H124 0.950 . S
C145 C144 1.373 . S
C145 C161 1.377 . S
C146 C144 1.389 1_556 S
C146 C147 1.524 1_455 S
C146 C160 1.377 . S
C147 C146 1.524 1_655 S
C147 C148 1.397 . S
C147 C152 1.363 . S
C148 H125 0.950 1_655 S
C148 C147 1.397 . S
C148 C149 1.334 . S
C149 H126 0.950 . S
C149 C148 1.334 . S
C149 C150 1.287 . S
C150 C149 1.287 . S
C150 C151 1.524 . S
C150 H169 0.913 . S
C151 H127 0.950 . S
C151 C150 1.524 . S
C151 C152 1.415 . S
C152 H128 0.950 . S
C152 C147 1.363 . S
C152 C151 1.415 . S
C153 H129 0.951 . S
C153 C154 1.366 1_556 S
C153 C155 1.388 . S
C154 C153 1.366 1_554 S
C154 C158 1.385 . S
C155 H130 0.951 . S
C155 C153 1.388 . S
C155 C156 1.366 1_556 S
C156 C155 1.366 1_554 S
C156 C157 1.414 . S
C156 C159 1.499 . S
C157 H131 0.950 1_455 S
C157 C156 1.414 . S
C157 C158 1.374 . S
C158 H132 0.950 1_455 S
C158 C154 1.385 . S
C158 C157 1.374 . S
C159 C156 1.499 . S
C159 C160 1.373 1_554 S
C159 C161 1.389 . S
C160 H133 0.950 1_455 S
C160 C146 1.377 . S
C160 C159 1.373 1_556 S
C161 C145 1.377 . S
C161 C159 1.389 . S
C161 C162 1.524 . S
C162 C161 1.524 . S
C162 C163 1.397 . S
C162 C167 1.363 . S
C163 H134 0.950 . S
C163 C162 1.397 . S
C163 C164 1.334 . S
C164 H135 0.950 . S
C164 C163 1.334 . S
C164 C165 1.287 . S
C165 C164 1.287 . S
C165 C166 1.524 . S
C165 H168 0.999 . S
C166 H136 0.950 . S
C166 C165 1.524 . S
C166 C167 1.415 . S
C167 H137 0.950 . S
C167 C162 1.363 . S
C167 C166 1.415 . S
H168 C165 0.999 . S
H169 C150 0.913 . S
H170 C188 0.951 . S
H171 C190 0.951 . S
H172 C192 0.950 . S
H173 C193 0.950 1_545 S
H174 C195 0.950 . S
H175 C198 0.950 . S
H176 C199 0.950 . S
H177 C201 0.950 . S
H178 C202 0.950 . S
H179 C203 0.951 . S
H180 C205 0.951 . S
H181 C207 0.950 . S
H182 C208 0.950 . S
H183 C210 0.950 . S
H184 C213 0.950 . S
H185 C214 0.950 . S
H186 C216 0.950 . S
H187 C217 0.950 . S
C188 H170 0.951 . S
C188 C189 1.366 . S
C188 C190 1.388 . S
C189 C188 1.366 . S
C189 C193 1.385 . S
C190 H171 0.951 . S
C190 C188 1.388 . S
C190 C191 1.366 . S
C191 C190 1.366 . S
C191 C192 1.414 1_565 S
C191 C194 1.499 1_565 S
C192 H172 0.950 . S
C192 C191 1.414 1_545 S
C192 C193 1.374 1_545 S
C193 H173 0.950 1_565 S
C193 C189 1.385 . S
C193 C192 1.374 1_565 S
C194 C191 1.499 1_545 S
C194 C195 1.373 . S
C194 C196 1.389 1_545 S
C195 H174 0.950 . S
C195 C194 1.373 . S
C195 C211 1.377 . S
C196 C194 1.389 1_565 S
C196 C197 1.524 . S
C196 C210 1.377 . S
C197 C196 1.524 . S
C197 C198 1.397 . S
C197 C202 1.363 . S
C198 H175 0.950 . S
C198 C197 1.397 . S
C198 C199 1.334 . S
C199 H176 0.950 . S
C199 C198 1.334 . S
C199 C200 1.287 . S
C200 C199 1.287 . S
C200 C201 1.524 . S
C200 H219 0.913 . S
C201 H177 0.950 . S
C201 C200 1.524 . S
C201 C202 1.415 . S
C202 H178 0.950 . S
C202 C197 1.363 . S
C202 C201 1.415 . S
C203 H179 0.951 . S
C203 C204 1.366 . S
C203 C205 1.388 . S
C204 C203 1.366 . S
C204 C208 1.385 . S
C205 H180 0.951 . S
C205 C203 1.388 . S
C205 C206 1.366 . S
C206 C205 1.366 . S
C206 C207 1.414 . S
C206 C209 1.499 . S
C207 H181 0.950 . S
C207 C206 1.414 . S
C207 C208 1.374 . S
C208 H182 0.950 . S
C208 C204 1.385 . S
C208 C207 1.374 . S
C209 C206 1.499 . S
C209 C210 1.373 1_545 S
C209 C211 1.389 . S
C210 H183 0.950 . S
C210 C196 1.377 . S
C210 C209 1.373 1_565 S
C211 C195 1.377 . S
C211 C209 1.389 . S
C211 C212 1.524 . S
C212 C211 1.524 . S
C212 C213 1.397 . S
C212 C217 1.363 . S
C213 H184 0.950 . S
C213 C212 1.397 . S
C213 C214 1.334 . S
C214 H185 0.950 . S
C214 C213 1.334 . S
C214 C215 1.287 . S
C215 C214 1.287 . S
C215 C216 1.524 . S
C215 H218 0.999 . S
C216 H186 0.950 . S
C216 C215 1.524 . S
C216 C217 1.415 . S
C217 H187 0.950 . S
C217 C212 1.363 . S
C217 C216 1.415 . S
H218 C215 0.999 . S
H219 C200 0.913 . S
H220 C238 0.951 . S
H221 C240 0.951 . S
H222 C242 0.950 . S
H223 C243 0.950 . S
H224 C245 0.950 . S
H225 C248 0.950 . S
H226 C249 0.950 . S
H227 C251 0.950 . S
H228 C252 0.950 . S
H229 C253 0.951 . S
H230 C255 0.951 . S
H231 C257 0.950 . S
H232 C258 0.950 . S
H233 C260 0.950 . S
H234 C263 0.950 . S
H235 C264 0.950 . S
H236 C266 0.950 . S
H237 C267 0.950 . S
C238 H220 0.951 . S
C238 C239 1.366 . S
C238 C240 1.388 . S
C239 C238 1.366 . S
C239 C243 1.385 . S
C240 H221 0.951 . S
C240 C238 1.388 . S
C240 C241 1.366 . S
C241 C240 1.366 . S
C241 C242 1.414 . S
C241 C244 1.499 . S
C242 H222 0.950 . S
C242 C241 1.414 . S
C242 C243 1.374 . S
C243 H223 0.950 . S
C243 C239 1.385 . S
C243 C242 1.374 . S
C244 C241 1.499 . S
C244 C245 1.373 . S
C244 C246 1.389 . S
C245 H224 0.950 . S
C245 C244 1.373 . S
C245 C261 1.377 . S
C246 C244 1.389 . S
C246 C247 1.524 . S
C246 C260 1.377 . S
C247 C246 1.524 . S
C247 C248 1.397 . S
C247 C252 1.363 . S
C248 H225 0.950 . S
C248 C247 1.397 . S
C248 C249 1.334 . S
C249 H226 0.950 . S
C249 C248 1.334 . S
C249 C250 1.287 . S
C250 C249 1.287 . S
C250 C251 1.524 . S
C250 H269 0.913 . S
C251 H227 0.950 . S
C251 C250 1.524 . S
C251 C252 1.415 . S
C252 H228 0.950 . S
C252 C247 1.363 . S
C252 C251 1.415 . S
C253 H229 0.951 . S
C253 C254 1.366 . S
C253 C255 1.388 . S
C254 C253 1.366 . S
C254 C258 1.385 . S
C255 H230 0.951 . S
C255 C253 1.388 . S
C255 C256 1.366 . S
C256 C255 1.366 . S
C256 C257 1.414 . S
C256 C259 1.499 . S
C257 H231 0.950 . S
C257 C256 1.414 . S
C257 C258 1.374 . S
C258 H232 0.950 . S
C258 C254 1.385 . S
C258 C257 1.374 . S
C259 C256 1.499 . S
C259 C260 1.373 . S
C259 C261 1.389 . S
C260 H233 0.950 . S
C260 C246 1.377 . S
C260 C259 1.373 . S
C261 C245 1.377 . S
C261 C259 1.389 . S
C261 C262 1.524 . S
C262 C261 1.524 . S
C262 C263 1.397 . S
C262 C267 1.363 . S
C263 H234 0.950 . S
C263 C262 1.397 . S
C263 C264 1.334 . S
C264 H235 0.950 . S
C264 C263 1.334 . S
C264 C265 1.287 . S
C265 C264 1.287 . S
C265 C266 1.524 . S
C265 H268 0.999 . S
C266 H236 0.950 . S
C266 C265 1.524 . S
C266 C267 1.415 . S
C267 H237 0.950 . S
C267 C262 1.363 . S
C267 C266 1.415 . S
H268 C265 0.999 . S
H269 C250 0.913 . S
H270 C288 0.951 . S
H271 C290 0.951 . S
H272 C292 0.950 1_565 S
H273 C293 0.950 1_565 S
H274 C295 0.950 . S
H275 C298 0.950 . S
H276 C299 0.950 . S
H277 C301 0.950 . S
H278 C302 0.950 . S
H279 C303 0.951 . S
H280 C305 0.951 . S
H281 C307 0.950 . S
H282 C308 0.950 . S
H283 C310 0.950 . S
H284 C313 0.950 . S
H285 C314 0.950 . S
H286 C316 0.950 . S
H287 C317 0.950 . S
C288 H270 0.951 . S
C288 C289 1.366 . S
C288 C290 1.388 . S
C289 C288 1.366 . S
C289 C293 1.385 . S
C290 H271 0.951 . S
C290 C288 1.388 . S
C290 C291 1.366 . S
C291 C290 1.366 . S
C291 C292 1.414 . S
C291 C294 1.499 . S
C292 H272 0.950 1_545 S
C292 C291 1.414 . S
C292 C293 1.374 . S
C293 H273 0.950 1_545 S
C293 C289 1.385 . S
C293 C292 1.374 . S
C294 C291 1.499 . S
C294 C295 1.373 1_545 S
C294 C296 1.389 . S
C295 H274 0.950 . S
C295 C294 1.373 1_565 S
C295 C311 1.377 . S
C296 C294 1.389 . S
C296 C297 1.524 . S
C296 C310 1.377 . S
C297 C296 1.524 . S
C297 C298 1.397 . S
C297 C302 1.363 . S
C298 H275 0.950 . S
C298 C297 1.397 . S
C298 C299 1.334 . S
C299 H276 0.950 . S
C299 C298 1.334 . S
C299 C300 1.287 . S
C300 C299 1.287 . S
C300 C301 1.524 . S
C300 H319 0.913 . S
C301 H277 0.950 . S
C301 C300 1.524 . S
C301 C302 1.415 . S
C302 H278 0.950 . S
C302 C297 1.363 . S
C302 C301 1.415 . S
C303 H279 0.951 . S
C303 C304 1.366 1_565 S
C303 C305 1.388 . S
C304 C303 1.366 1_545 S
C304 C308 1.385 . S
C305 H280 0.951 . S
C305 C303 1.388 . S
C305 C306 1.366 1_565 S
C306 C305 1.366 1_545 S
C306 C307 1.414 . S
C306 C309 1.499 . S
C307 H281 0.950 . S
C307 C306 1.414 . S
C307 C308 1.374 . S
C308 H282 0.950 . S
C308 C304 1.385 . S
C308 C307 1.374 . S
C309 C306 1.499 . S
C309 C310 1.373 . S
C309 C311 1.389 1_545 S
C310 H283 0.950 . S
C310 C296 1.377 . S
C310 C309 1.373 . S
C311 C295 1.377 . S
C311 C309 1.389 1_565 S
C311 C312 1.524 . S
C312 C311 1.524 . S
C312 C313 1.397 . S
C312 C317 1.363 . S
C313 H284 0.950 . S
C313 C312 1.397 . S
C313 C314 1.334 . S
C314 H285 0.950 . S
C314 C313 1.334 . S
C314 C315 1.287 . S
C315 C314 1.287 . S
C315 C316 1.524 . S
C315 H318 0.999 . S
C316 H286 0.950 . S
C316 C315 1.524 . S
C316 C317 1.415 . S
C317 H287 0.950 . S
C317 C312 1.363 . S
C317 C316 1.415 . S
H318 C315 0.999 . S
H319 C300 0.913 . S
H320 C338 0.951 . S
H321 C340 0.951 . S
H322 C342 0.950 . S
H323 C343 0.950 . S
H324 C345 0.950 . S
H325 C348 0.950 . S
H326 C349 0.950 . S
H327 C351 0.950 . S
H328 C352 0.950 . S
H329 C353 0.951 . S
H330 C355 0.951 . S
H331 C357 0.950 . S
H332 C358 0.950 . S
H333 C360 0.950 . S
H334 C363 0.950 . S
H335 C364 0.950 . S
H336 C366 0.950 . S
H337 C367 0.950 . S
C338 H320 0.951 . S
C338 C339 1.366 . S
C338 C340 1.388 . S
C339 C338 1.366 . S
C339 C343 1.385 1_554 S
C340 H321 0.951 . S
C340 C338 1.388 . S
C340 C341 1.366 . S
C341 C340 1.366 . S
C341 C342 1.414 1_554 S
C341 C344 1.499 . S
C342 H322 0.950 . S
C342 C341 1.414 1_556 S
C342 C343 1.374 . S
C343 H323 0.950 . S
C343 C339 1.385 1_556 S
C343 C342 1.374 . S
C344 C341 1.499 . S
C344 C345 1.373 1_554 S
C344 C346 1.389 . S
C345 H324 0.950 . S
C345 C344 1.373 1_556 S
C345 C361 1.377 . S
C346 C344 1.389 . S
C346 C347 1.524 . S
C346 C360 1.377 . S
C347 C346 1.524 . S
C347 C348 1.397 . S
C347 C352 1.363 . S
C348 H325 0.950 . S
C348 C347 1.397 . S
C348 C349 1.334 . S
C349 H326 0.950 . S
C349 C348 1.334 . S
C349 C350 1.287 . S
C350 C349 1.287 . S
C350 C351 1.524 . S
C350 H369 0.913 . S
C351 H327 0.950 . S
C351 C350 1.524 . S
C351 C352 1.415 . S
C352 H328 0.950 . S
C352 C347 1.363 . S
C352 C351 1.415 . S
C353 H329 0.951 . S
C353 C354 1.366 1_556 S
C353 C355 1.388 . S
C354 C353 1.366 1_554 S
C354 C358 1.385 . S
C355 H330 0.951 . S
C355 C353 1.388 . S
C355 C356 1.366 1_556 S
C356 C355 1.366 1_554 S
C356 C357 1.414 . S
C356 C359 1.499 . S
C357 H331 0.950 . S
C357 C356 1.414 . S
C357 C358 1.374 . S
C358 H332 0.950 . S
C358 C354 1.385 . S
C358 C357 1.374 . S
C359 C356 1.499 . S
C359 C360 1.373 . S
C359 C361 1.389 1_554 S
C360 H333 0.950 . S
C360 C346 1.377 . S
C360 C359 1.373 . S
C361 C345 1.377 . S
C361 C359 1.389 1_556 S
C361 C362 1.524 . S
C362 C361 1.524 . S
C362 C363 1.397 . S
C362 C367 1.363 . S
C363 H334 0.950 . S
C363 C362 1.397 . S
C363 C364 1.334 . S
C364 H335 0.950 . S
C364 C363 1.334 . S
C364 C365 1.287 . S
C365 C364 1.287 . S
C365 C366 1.524 . S
C365 H368 0.999 . S
C366 H336 0.950 . S
C366 C365 1.524 . S
C366 C367 1.415 . S
C367 H337 0.950 . S
C367 C362 1.363 . S
C367 C366 1.415 . S
H368 C365 0.999 . S
H369 C350 0.913 . S
H370 C388 0.951 . S
H371 C390 0.951 . S
H372 C392 0.950 . S
H373 C393 0.950 . S
H374 C395 0.950 . S
H375 C398 0.950 . S
H376 C399 0.950 . S
H377 C401 0.950 . S
H378 C402 0.950 . S
H379 C403 0.951 . S
H380 C405 0.951 . S
H381 C407 0.950 . S
H382 C408 0.950 . S
H383 C410 0.950 . S
H384 C413 0.950 . S
H385 C414 0.950 . S
H386 C416 0.950 . S
H387 C417 0.950 . S
C388 H370 0.951 . S
C388 C389 1.366 1_455 S
C388 C390 1.388 . S
C389 C388 1.366 1_655 S
C389 C393 1.385 . S
C390 H371 0.951 . S
C390 C388 1.388 . S
C390 C391 1.366 . S
C391 C390 1.366 . S
C391 C392 1.414 1_455 S
C391 C394 1.499 . S
C392 H372 0.950 . S
C392 C391 1.414 1_655 S
C392 C393 1.374 . S
C393 H373 0.950 . S
C393 C389 1.385 . S
C393 C392 1.374 . S
C394 C391 1.499 . S
C394 C395 1.373 . S
C394 C396 1.389 . S
C395 H374 0.950 . S
C395 C394 1.373 . S
C395 C411 1.377 . S
C396 C394 1.389 . S
C396 C397 1.524 . S
C396 C410 1.377 . S
C397 C396 1.524 . S
C397 C398 1.397 1_455 S
C397 C402 1.363 . S
C398 H375 0.950 . S
C398 C397 1.397 1_655 S
C398 C399 1.334 . S
C399 H376 0.950 . S
C399 C398 1.334 . S
C399 C400 1.287 . S
C400 C399 1.287 . S
C400 C401 1.524 1_655 S
C400 H419 0.913 . S
C401 H377 0.950 . S
C401 C400 1.524 1_455 S
C401 C402 1.415 . S
C402 H378 0.950 . S
C402 C397 1.363 . S
C402 C401 1.415 . S
C403 H379 0.951 . S
C403 C404 1.366 1_655 S
C403 C405 1.388 . S
C404 C403 1.366 1_455 S
C404 C408 1.385 . S
C405 H380 0.951 . S
C405 C403 1.388 . S
C405 C406 1.366 1_655 S
C406 C405 1.366 1_455 S
C406 C407 1.414 . S
C406 C409 1.499 . S
C407 H381 0.950 . S
C407 C406 1.414 . S
C407 C408 1.374 . S
C408 H382 0.950 . S
C408 C404 1.385 . S
C408 C407 1.374 . S
C409 C406 1.499 . S
C409 C410 1.373 . S
C409 C411 1.389 . S
C410 H383 0.950 . S
C410 C396 1.377 . S
C410 C409 1.373 . S
C411 C395 1.377 . S
C411 C409 1.389 . S
C411 C412 1.524 . S
C412 C411 1.524 . S
C412 C413 1.397 . S
C412 C417 1.363 1_455 S
C413 H384 0.950 . S
C413 C412 1.397 . S
C413 C414 1.334 . S
C414 H385 0.950 . S
C414 C413 1.334 . S
C414 C415 1.287 . S
C415 C414 1.287 . S
C415 C416 1.524 1_455 S
C415 H418 0.999 . S
C416 H386 0.950 . S
C416 C415 1.524 1_655 S
C416 C417 1.415 . S
C417 H387 0.950 . S
C417 C412 1.363 1_655 S
C417 C416 1.415 . S
H418 C415 0.999 . S
H419 C400 0.913 . S
H420 C438 0.951 . S
H421 C440 0.951 . S
H422 C442 0.950 1_565 S
H423 C443 0.950 1_565 S
H424 C445 0.950 . S
H425 C448 0.950 . S
H426 C449 0.950 . S
H427 C451 0.950 . S
H428 C452 0.950 1_545 S
H429 C453 0.951 . S
H430 C455 0.951 . S
H431 C457 0.950 1_655 S
H432 C458 0.950 1_655 S
H433 C460 0.950 1_565 S
H434 C463 0.950 . S
H435 C464 0.950 . S
H436 C466 0.950 . S
H437 C467 0.950 . S
C438 H420 0.951 . S
C438 C439 1.366 1_655 S
C438 C440 1.388 . S
C439 C438 1.366 1_455 S
C439 C443 1.385 . S
C440 H421 0.951 . S
C440 C438 1.388 . S
C440 C441 1.366 1_655 S
C441 C440 1.366 1_455 S
C441 C442 1.414 . S
C441 C444 1.499 . S
C442 H422 0.950 1_545 S
C442 C441 1.414 . S
C442 C443 1.374 . S
C443 H423 0.950 1_545 S
C443 C439 1.385 . S
C443 C442 1.374 . S
C444 C441 1.499 . S
C444 C445 1.373 . S
C444 C446 1.389 1_455 S
C445 H424 0.950 . S
C445 C444 1.373 . S
C445 C461 1.377 . S
C446 C444 1.389 1_655 S
C446 C447 1.524 1_545 S
C446 C460 1.377 . S
C447 C446 1.524 1_565 S
C447 C448 1.397 . S
C447 C452 1.363 . S
C448 H425 0.950 . S
C448 C447 1.397 . S
C448 C449 1.334 . S
C449 H426 0.950 . S
C449 C448 1.334 . S
C449 C450 1.287 . S
C450 C449 1.287 . S
C450 C451 1.524 . S
C450 H469 0.913 . S
C451 H427 0.950 . S
C451 C450 1.524 . S
C451 C452 1.415 . S
C452 H428 0.950 1_565 S
C452 C447 1.363 . S
C452 C451 1.415 . S
C453 H429 0.951 . S
C453 C454 1.366 1_565 S
C453 C455 1.388 . S
C454 C453 1.366 1_545 S
C454 C458 1.385 . S
C455 H430 0.951 . S
C455 C453 1.388 . S
C455 C456 1.366 1_565 S
C456 C455 1.366 1_545 S
C456 C457 1.414 . S
C456 C459 1.499 . S
C457 H431 0.950 1_455 S
C457 C456 1.414 . S
C457 C458 1.374 . S
C458 H432 0.950 1_455 S
C458 C454 1.385 . S
C458 C457 1.374 . S
C459 C456 1.499 . S
C459 C460 1.373 1_455 S
C459 C461 1.389 . S
C460 H433 0.950 1_545 S
C460 C446 1.377 . S
C460 C459 1.373 1_655 S
C461 C445 1.377 . S
C461 C459 1.389 . S
C461 C462 1.524 . S
C462 C461 1.524 . S
C462 C463 1.397 . S
C462 C467 1.363 . S
C463 H434 0.950 . S
C463 C462 1.397 . S
C463 C464 1.334 . S
C464 H435 0.950 . S
C464 C463 1.334 . S
C464 C465 1.287 . S
C465 C464 1.287 . S
C465 C466 1.524 . S
C465 H468 0.999 . S
C466 H436 0.950 . S
C466 C465 1.524 . S
C466 C467 1.415 . S
C467 H437 0.950 . S
C467 C462 1.363 . S
C467 C466 1.415 . S
H468 C465 0.999 . S
H469 C450 0.913 . S
H470 C488 0.951 . S
H471 C490 0.951 . S
H472 C492 0.950 1_565 S
H473 C493 0.950 1_565 S
H474 C495 0.950 . S
H475 C498 0.950 . S
H476 C499 0.950 . S
H477 C501 0.950 . S
H478 C502 0.950 1_545 S
H479 C503 0.951 1_565 S
H480 C505 0.951 1_565 S
H481 C507 0.950 . S
H482 C508 0.950 . S
H483 C510 0.950 1_565 S
H484 C513 0.950 1_455 S
H485 C514 0.950 . S
H486 C516 0.950 . S
H487 C517 0.950 . S
C488 H470 0.951 . S
C488 C489 1.366 . S
C488 C490 1.388 . S
C489 C488 1.366 . S
C489 C493 1.385 1_455 S
C490 H471 0.951 . S
C490 C488 1.388 . S
C490 C491 1.366 . S
C491 C490 1.366 . S
C491 C492 1.414 1_455 S
C491 C494 1.499 . S
C492 H472 0.950 1_545 S
C492 C491 1.414 1_655 S
C492 C493 1.374 . S
C493 H473 0.950 1_545 S
C493 C489 1.385 1_655 S
C493 C492 1.374 . S
C494 C491 1.499 . S
C494 C495 1.373 1_455 S
C494 C496 1.389 . S
C495 H474 0.950 . S
C495 C494 1.373 1_655 S
C495 C511 1.377 . S
C496 C494 1.389 . S
C496 C497 1.524 1_545 S
C496 C510 1.377 . S
C497 C496 1.524 1_565 S
C497 C498 1.397 . S
C497 C502 1.363 . S
C498 H475 0.950 . S
C498 C497 1.397 . S
C498 C499 1.334 . S
C499 H476 0.950 . S
C499 C498 1.334 . S
C499 C500 1.287 . S
C500 C499 1.287 . S
C500 C501 1.524 . S
C500 H519 0.913 . S
C501 H477 0.950 . S
C501 C500 1.524 . S
C501 C502 1.415 . S
C502 H478 0.950 1_565 S
C502 C497 1.363 . S
C502 C501 1.415 . S
C503 H479 0.951 1_545 S
C503 C504 1.366 1_655 S
C503 C505 1.388 . S
C504 C503 1.366 1_455 S
C504 C508 1.385 . S
C505 H480 0.951 1_545 S
C505 C503 1.388 . S
C505 C506 1.366 1_655 S
C506 C505 1.366 1_455 S
C506 C507 1.414 . S
C506 C509 1.499 . S
C507 H481 0.950 . S
C507 C506 1.414 . S
C507 C508 1.374 . S
C508 H482 0.950 . S
C508 C504 1.385 . S
C508 C507 1.374 . S
C509 C506 1.499 . S
C509 C510 1.373 . S
C509 C511 1.389 1_455 S
C510 H483 0.950 1_545 S
C510 C496 1.377 . S
C510 C509 1.373 . S
C511 C495 1.377 . S
C511 C509 1.389 1_655 S
C511 C512 1.524 . S
C512 C511 1.524 . S
C512 C513 1.397 . S
C512 C517 1.363 . S
C513 H484 0.950 1_655 S
C513 C512 1.397 . S
C513 C514 1.334 . S
C514 H485 0.950 . S
C514 C513 1.334 . S
C514 C515 1.287 . S
C515 C514 1.287 . S
C515 C516 1.524 . S
C515 H518 0.999 . S
C516 H486 0.950 . S
C516 C515 1.524 . S
C516 C517 1.415 . S
C517 H487 0.950 . S
C517 C512 1.363 . S
C517 C516 1.415 . S
H518 C515 0.999 . S
H519 C500 0.913 . S
H520 C538 0.951 . S
H521 C540 0.951 1_565 S
H522 C542 0.950 . S
H523 C543 0.950 . S
H524 C545 0.950 . S
H525 C548 0.950 . S
H526 C549 0.950 1_455 S
H527 C551 0.950 . S
H528 C552 0.950 . S
H529 C553 0.951 . S
H530 C555 0.951 . S
H531 C557 0.950 1_655 S
H532 C558 0.950 1_655 S
H533 C560 0.950 1_655 S
H534 C563 0.950 . S
H535 C564 0.950 . S
H536 C566 0.950 . S
H537 C567 0.950 . S
C538 H520 0.951 . S
C538 C539 1.366 1_655 S
C538 C540 1.388 . S
C539 C538 1.366 1_455 S
C539 C543 1.385 . S
C540 H521 0.951 1_545 S
C540 C538 1.388 . S
C540 C541 1.366 1_655 S
C541 C540 1.366 1_455 S
C541 C542 1.414 . S
C541 C544 1.499 . S
C542 H522 0.950 . S
C542 C541 1.414 . S
C542 C543 1.374 . S
C543 H523 0.950 . S
C543 C539 1.385 . S
C543 C542 1.374 . S
C544 C541 1.499 . S
C544 C545 1.373 1_545 S
C544 C546 1.389 . S
C545 H524 0.950 . S
C545 C544 1.373 1_565 S
C545 C561 1.377 . S
C546 C544 1.389 . S
C546 C547 1.524 1_455 S
C546 C560 1.377 . S
C547 C546 1.524 1_655 S
C547 C548 1.397 1_655 S
C547 C552 1.363 . S
C548 H525 0.950 . S
C548 C547 1.397 1_455 S
C548 C549 1.334 1_455 S
C549 H526 0.950 1_655 S
C549 C548 1.334 1_655 S
C549 C550 1.287 . S
C550 C549 1.287 . S
C550 C551 1.524 . S
C550 H569 0.913 . S
C551 H527 0.950 . S
C551 C550 1.524 . S
C551 C552 1.415 . S
C552 H528 0.950 . S
C552 C547 1.363 . S
C552 C551 1.415 . S
C553 H529 0.951 . S
C553 C554 1.366 . S
C553 C555 1.388 . S
C554 C553 1.366 . S
C554 C558 1.385 1_545 S
C555 H530 0.951 . S
C555 C553 1.388 . S
C555 C556 1.366 . S
C556 C555 1.366 . S
C556 C557 1.414 1_545 S
C556 C559 1.499 . S
C557 H531 0.950 1_455 S
C557 C556 1.414 1_565 S
C557 C558 1.374 . S
C558 H532 0.950 1_455 S
C558 C554 1.385 1_565 S
C558 C557 1.374 . S
C559 C556 1.499 . S
C559 C560 1.373 . S
C559 C561 1.389 1_545 S
C560 H533 0.950 1_455 S
C560 C546 1.377 . S
C560 C559 1.373 . S
C561 C545 1.377 . S
C561 C559 1.389 1_565 S
C561 C562 1.524 . S
C562 C561 1.524 . S
C562 C563 1.397 . S
C562 C567 1.363 . S
C563 H534 0.950 . S
C563 C562 1.397 . S
C563 C564 1.334 . S
C564 H535 0.950 . S
C564 C563 1.334 . S
C564 C565 1.287 . S
C565 C564 1.287 . S
C565 C566 1.524 . S
C565 H568 0.999 . S
C566 H536 0.950 . S
C566 C565 1.524 . S
C566 C567 1.415 . S
C567 H537 0.950 . S
C567 C562 1.363 . S
C567 C566 1.415 . S
H568 C565 0.999 . S
H569 C550 0.913 . S
C139 C31 2.955 . S
C154 C12 2.955 . S
C189 C69 0.978 . S
C204 C48 0.978 . S
C239 C88 0.603 . S
C254 C109 0.603 . S
C289 C111 4.805 . S
C304 C92 4.805 . S
C339 C29 0.570 . S
C354 C8 0.570 . S
C389 C71 2.997 . S
C404 C52 2.997 . S
C439 C57 1.481 . S
C454 C17 1.484 . S
C489 C42 1.465 . S
C504 C97 1.467 . S
C539 C82 1.478 . S
C554 C2 1.466 . S
