# Generated by pormake.
# Topology ukf, (4)-cn, num edge types: 1
# Building blocks:
#     Node 0, Type 0, BuildingBlock: UXUYUI_clean_sbu_0, # of connection points: 4
#     Node 1, Type 0, BuildingBlock: UXUYUI_clean_sbu_0, # of connection points: 4
#     Node 2, Type 0, BuildingBlock: UXUYUI_clean_sbu_0, # of connection points: 4
#     Node 3, Type 0, BuildingBlock: UXUYUI_clean_sbu_0, # of connection points: 4
#     Node 4, Type 0, BuildingBlock: UXUYUI_clean_sbu_0, # of connection points: 4
#     Node 5, Type 0, BuildingBlock: UXUYUI_clean_sbu_0, # of connection points: 4
#     Node 6, Type 0, BuildingBlock: UXUYUI_clean_sbu_0, # of connection points: 4
#     Node 7, Type 0, BuildingBlock: UXUYUI_clean_sbu_0, # of connection points: 4
#     Node 8, Type 0, BuildingBlock: UXUYUI_clean_sbu_0, # of connection points: 4
#     Node 9, Type 0, BuildingBlock: UXUYUI_clean_sbu_0, # of connection points: 4
#     Node 10, Type 0, BuildingBlock: UXUYUI_clean_sbu_0, # of connection points: 4
#     Node 11, Type 0, BuildingBlock: UXUYUI_clean_sbu_0, # of connection points: 4
#     Edge 12, Type (0, 0), BuildingBlock: MIFKUJ_clean_linker_0, # of connection points: 2
#     Edge 13, Type (0, 0), BuildingBlock: MIFKUJ_clean_linker_0, # of connection points: 2
#     Edge 14, Type (0, 0), BuildingBlock: MIFKUJ_clean_linker_0, # of connection points: 2
#     Edge 15, Type (0, 0), BuildingBlock: MIFKUJ_clean_linker_0, # of connection points: 2
#     Edge 16, Type (0, 0), BuildingBlock: MIFKUJ_clean_linker_0, # of connection points: 2
#     Edge 17, Type (0, 0), BuildingBlock: MIFKUJ_clean_linker_0, # of connection points: 2
#     Edge 18, Type (0, 0), BuildingBlock: MIFKUJ_clean_linker_0, # of connection points: 2
#     Edge 19, Type (0, 0), BuildingBlock: MIFKUJ_clean_linker_0, # of connection points: 2
#     Edge 20, Type (0, 0), BuildingBlock: MIFKUJ_clean_linker_0, # of connection points: 2
#     Edge 21, Type (0, 0), BuildingBlock: MIFKUJ_clean_linker_0, # of connection points: 2
#     Edge 22, Type (0, 0), BuildingBlock: MIFKUJ_clean_linker_0, # of connection points: 2
#     Edge 23, Type (0, 0), BuildingBlock: MIFKUJ_clean_linker_0, # of connection points: 2
#     Edge 24, Type (0, 0), BuildingBlock: MIFKUJ_clean_linker_0, # of connection points: 2
#     Edge 25, Type (0, 0), BuildingBlock: MIFKUJ_clean_linker_0, # of connection points: 2
#     Edge 26, Type (0, 0), BuildingBlock: MIFKUJ_clean_linker_0, # of connection points: 2
#     Edge 27, Type (0, 0), BuildingBlock: MIFKUJ_clean_linker_0, # of connection points: 2
#     Edge 28, Type (0, 0), BuildingBlock: MIFKUJ_clean_linker_0, # of connection points: 2
#     Edge 29, Type (0, 0), BuildingBlock: MIFKUJ_clean_linker_0, # of connection points: 2
#     Edge 30, Type (0, 0), BuildingBlock: MIFKUJ_clean_linker_0, # of connection points: 2
#     Edge 31, Type (0, 0), BuildingBlock: MIFKUJ_clean_linker_0, # of connection points: 2
#     Edge 32, Type (0, 0), BuildingBlock: MIFKUJ_clean_linker_0, # of connection points: 2
#     Edge 33, Type (0, 0), BuildingBlock: MIFKUJ_clean_linker_0, # of connection points: 2
#     Edge 34, Type (0, 0), BuildingBlock: MIFKUJ_clean_linker_0, # of connection points: 2
#     Edge 35, Type (0, 0), BuildingBlock: MIFKUJ_clean_linker_0, # of connection points: 2
# Relax obj value: 0.271
# Max RMSD: 0.213
# Mean RMSD: 0.213
data_MOF--net-ukf--node1-UXUYUI_clean_sbu_0--edge1-MIFKUJ_clean_linker_0
_symmetry_space_group_name_H-M    P1
_symmetry_Int_Tables_number       1
_symmetry_cell_setting            triclinic
loop_
_symmetry_equiv_pos_as_xyz
'x, y, z'
_cell_length_a     55.663279
_cell_length_b     55.693257
_cell_length_c     110.84035
_cell_angle_alpha  89.99859
_cell_angle_beta   90.006838
_cell_angle_gamma 119.97514
loop_
_atom_site_label
_atom_site_type_symbol
_atom_site_fract_x
_atom_site_fract_y
_atom_site_fract_z
_atom_type_partial_charge
Li0 Li 0.39653 0.22956 0.05951 0.0
Li1 Li 0.36955 0.20855 0.04148 0.0
Li2 Li 0.422 0.23398 0.04111 0.0
Li3 Li 0.39653 0.25948 0.04269 0.0
C4 C 0.39651 0.18217 0.05829 0.0
N5 N 0.39786 0.14855 0.07629 0.0
C6 C 0.3722 0.1582 0.06172 0.0
C7 C 0.42158 0.1888 0.06388 0.0
C8 C 0.37329 0.14152 0.07087 0.0
C9 C 0.42182 0.17162 0.073 0.0
C10 C 0.33942 0.2306 0.05227 0.0
C11 C 0.30618 0.23829 0.04152 0.0
N12 N 0.2874 0.22514 0.05047 0.0
C13 C 0.3199 0.21745 0.06143 0.0
C14 C 0.33262 0.24135 0.04229 0.0
C15 C 0.29366 0.21478 0.06033 0.0
C16 C 0.41818 0.24267 0.08334 0.0
N17 N 0.39591 0.22524 0.07652 0.0
C18 C 0.37162 0.19938 0.09399 0.0
C19 C 0.37275 0.20411 0.08159 0.0
C20 C 0.3945 0.21673 0.10125 0.0
C21 C 0.41795 0.23873 0.09578 0.0
H22 H 0.4361 0.25964 0.07912 0.0
H23 H 0.35529 0.19067 0.07595 0.0
C24 C 0.33634 0.169 0.02401 0.0
N25 N 0.33699 0.17723 0.03561 0.0
C26 C 0.31334 0.14497 0.01972 0.0
C27 C 0.29243 0.13787 0.03948 0.0
C28 C 0.31565 0.16232 0.04333 0.0
C29 C 0.29122 0.12895 0.02755 0.0
H30 H 0.35401 0.18066 0.01819 0.0
H31 H 0.3171 0.16886 0.05261 0.0
C32 C 0.45587 0.28191 0.0533 0.0
N33 N 0.51233 0.31868 0.05415 0.0
C34 C 0.46702 0.3079 0.04778 0.0
C35 C 0.47347 0.27476 0.05933 0.0
C36 C 0.4956 0.32617 0.0483 0.0
C37 C 0.50194 0.29358 0.05963 0.0
C38 C 0.3926 0.24179 0.0178 0.0
C39 C 0.41556 0.25458 0.01013 0.0
C40 C 0.36648 0.23562 0.01353 0.0
C41 C 0.41208 0.26129 0.99836 0.0
C42 C 0.36385 0.24263 0.00169 0.0
N43 N 0.38652 0.25524 0.99442 0.0
C44 C 0.45583 0.21175 0.03412 0.0
C45 C 0.47443 0.25939 0.02958 0.0
C46 C 0.47929 0.21227 0.02932 0.0
N47 N 0.45396 0.23518 0.03426 0.0
C48 C 0.49843 0.26097 0.02491 0.0
C49 C 0.50104 0.23721 0.02477 0.0
H50 H 0.4391 0.19267 0.03774 0.0
H51 H 0.4721 0.27749 0.02942 0.0
C52 C 0.40108 0.30933 0.0493 0.0
N53 N 0.39936 0.29426 0.03936 0.0
C54 C 0.40909 0.33729 0.0482 0.0
C55 C 0.41147 0.33318 0.02658 0.0
C56 C 0.40358 0.30535 0.0281 0.0
C57 C 0.41534 0.34977 0.03674 0.0
H58 H 0.39797 0.30002 0.05814 0.0
H59 H 0.40231 0.29324 0.02032 0.0
O60 O 0.39575 0.19913 0.04955 0.0
O61 O 0.36516 0.23326 0.0532 0.0
O62 O 0.42791 0.26369 0.05285 0.0
O63 O 0.3957 0.2351 0.02936 0.0
H64 H 0.35265 0.15265 0.05744 0.0
H65 H 0.44062 0.20704 0.06122 0.0
H66 H 0.3546 0.12302 0.07368 0.0
H67 H 0.44105 0.17662 0.07747 0.0
H68 H 0.30063 0.24643 0.03381 0.0
H69 H 0.3249 0.20925 0.06928 0.0
H70 H 0.34761 0.25208 0.03524 0.0
H71 H 0.2783 0.20448 0.06731 0.0
H72 H 0.35323 0.18202 0.0978 0.0
H73 H 0.43584 0.2529 0.10107 0.0
H74 H 0.31338 0.13833 0.01053 0.0
H75 H 0.27584 0.12583 0.04579 0.0
H76 H 0.45389 0.31387 0.04302 0.0
H77 H 0.46528 0.25485 0.06369 0.0
H78 H 0.50449 0.34627 0.04402 0.0
H79 H 0.51578 0.28823 0.06422 0.0
H80 H 0.43588 0.25938 0.01323 0.0
H81 H 0.34837 0.22532 0.01923 0.0
H82 H 0.4297 0.2713 0.99235 0.0
H83 H 0.34377 0.23799 0.99828 0.0
H84 H 0.48063 0.19352 0.02933 0.0
H85 H 0.51459 0.28045 0.02127 0.0
H86 H 0.41212 0.34935 0.0563 0.0
H87 H 0.41569 0.3419 0.01757 0.0
Li88 Li 0.13745 0.39757 0.37729 0.0
Li89 Li 0.18959 0.42111 0.37569 0.0
Li90 Li 0.1612 0.37195 0.37387 0.0
Li91 Li 0.16611 0.39157 0.39339 0.0
C92 C 0.15632 0.38777 0.3525 0.0
N93 N 0.14705 0.35911 0.33108 0.0
C94 C 0.17859 0.39293 0.34501 0.0
C95 C 0.12932 0.36823 0.34907 0.0
C96 C 0.17348 0.37816 0.33423 0.0
C97 C 0.12507 0.35392 0.33821 0.0
C98 C 0.17029 0.44999 0.39282 0.0
C99 C 0.18811 0.48524 0.40828 0.0
N100 N 0.17746 0.49911 0.40227 0.0
C101 C 0.15946 0.46459 0.38683 0.0
C102 C 0.18467 0.46037 0.40367 0.0
C103 C 0.16333 0.48938 0.39174 0.0
C104 C 0.08767 0.39801 0.38242 0.0
N105 N 0.1076 0.40351 0.37404 0.0
C106 C 0.09106 0.42702 0.36154 0.0
C107 C 0.10912 0.41696 0.36359 0.0
C108 C 0.0711 0.42282 0.37026 0.0
C109 C 0.06884 0.40737 0.38064 0.0
H110 H 0.08729 0.38759 0.39071 0.0
H111 H 0.12546 0.42134 0.35719 0.0
C112 C 0.24213 0.45022 0.36488 0.0
N113 N 0.22146 0.45334 0.36976 0.0
C114 C 0.26551 0.47297 0.35996 0.0
C115 C 0.2459 0.50172 0.3652 0.0
C116 C 0.22289 0.47841 0.36998 0.0
C117 C 0.26757 0.49917 0.36003 0.0
H118 H 0.24026 0.42993 0.36467 0.0
H119 H 0.20608 0.48034 0.37372 0.0
C120 C 0.11892 0.33674 0.38978 0.0
N121 N 0.09496 0.28256 0.39766 0.0
C122 C 0.13554 0.32644 0.39417 0.0
C123 C 0.09015 0.31952 0.38936 0.0
C124 C 0.12302 0.29899 0.39814 0.0
C125 C 0.07842 0.29217 0.39339 0.0
C126 C 0.22072 0.40399 0.38914 0.0
C127 C 0.23597 0.39029 0.38961 0.0
C128 C 0.23093 0.42965 0.39483 0.0
C129 C 0.26111 0.40241 0.39587 0.0
C130 C 0.25616 0.44111 0.401 0.0
N131 N 0.2706 0.42735 0.4014 0.0
C132 C 0.18478 0.34594 0.36152 0.0
C133 C 0.13609 0.31694 0.36354 0.0
C134 C 0.18672 0.32524 0.35532 0.0
N135 N 0.15979 0.34147 0.36549 0.0
C136 C 0.13717 0.29538 0.35757 0.0
C137 C 0.16276 0.29956 0.35337 0.0
H138 H 0.20322 0.36571 0.36316 0.0
H139 H 0.11641 0.31407 0.36662 0.0
C140 C 0.15464 0.39591 0.41782 0.0
N141 N 0.16858 0.38772 0.41037 0.0
C142 C 0.15748 0.39529 0.43033 0.0
C143 C 0.18817 0.37686 0.42724 0.0
C144 C 0.18465 0.37774 0.41482 0.0
C145 C 0.17479 0.38606 0.43516 0.0
H146 H 0.1418 0.40353 0.41403 0.0
H147 H 0.19496 0.37064 0.40875 0.0
O148 O 0.16096 0.40126 0.36328 0.0
O149 O 0.16624 0.42535 0.38826 0.0
O150 O 0.1307 0.36324 0.38549 0.0
O151 O 0.19602 0.39221 0.38307 0.0
H152 H 0.19962 0.40791 0.34758 0.0
H153 H 0.1119 0.36391 0.35482 0.0
H154 H 0.19052 0.38176 0.32838 0.0
H155 H 0.10432 0.33859 0.33547 0.0
H156 H 0.19921 0.49349 0.41665 0.0
H157 H 0.14855 0.45715 0.37839 0.0
H158 H 0.19306 0.44937 0.40852 0.0
H159 H 0.15515 0.50091 0.38715 0.0
H160 H 0.0933 0.43884 0.35343 0.0
H161 H 0.05378 0.404 0.38759 0.0
H162 H 0.28149 0.46992 0.3559 0.0
H163 H 0.24672 0.52155 0.36559 0.0
H164 H 0.15787 0.33935 0.39431 0.0
H165 H 0.07706 0.32717 0.38587 0.0
H166 H 0.13561 0.29068 0.40152 0.0
H167 H 0.05618 0.27857 0.39309 0.0
H168 H 0.22836 0.37041 0.38523 0.0
H169 H 0.21966 0.44071 0.3944 0.0
H170 H 0.27308 0.39198 0.39635 0.0
H171 H 0.26429 0.46097 0.40544 0.0
H172 H 0.20684 0.32906 0.3523 0.0
H173 H 0.11829 0.27579 0.35616 0.0
H174 H 0.14686 0.40266 0.43612 0.0
H175 H 0.20123 0.36903 0.4306 0.0
Li176 Li 0.76694 0.18952 0.7105 0.0
Li177 Li 0.73668 0.14072 0.71102 0.0
Li178 Li 0.76844 0.16503 0.72818 0.0
Li179 Li 0.78624 0.16 0.70821 0.0
C180 C 0.71366 0.17083 0.7206 0.0
N181 N 0.66658 0.17475 0.71717 0.0
C182 C 0.70615 0.1745 0.709 0.0
C183 C 0.69727 0.16921 0.73045 0.0
C184 C 0.68225 0.17641 0.70746 0.0
C185 C 0.67353 0.17124 0.72854 0.0
C186 C 0.75491 0.1467 0.68737 0.0
C187 C 0.74751 0.1041 0.67838 0.0
N188 N 0.74465 0.11326 0.66739 0.0
C189 C 0.75193 0.15572 0.67599 0.0
C190 C 0.7527 0.12069 0.68859 0.0
C191 C 0.74673 0.1385 0.66601 0.0
C192 C 0.78153 0.23257 0.69392 0.0
N193 N 0.77025 0.22343 0.70501 0.0
C194 C 0.76128 0.26092 0.70711 0.0
C195 C 0.76065 0.23729 0.71172 0.0
C196 C 0.77224 0.27059 0.69554 0.0
C197 C 0.78291 0.2563 0.68902 0.0
H198 H 0.78921 0.2212 0.68885 0.0
H199 H 0.75196 0.22965 0.72056 0.0
C200 C 0.68778 0.09025 0.71525 0.0
N201 N 0.70071 0.11145 0.70728 0.0
C202 C 0.66011 0.06998 0.71346 0.0
C203 C 0.65984 0.09363 0.6952 0.0
C204 C 0.68757 0.11319 0.69727 0.0
C205 C 0.64555 0.0719 0.70347 0.0
H206 H 0.69874 0.08955 0.72318 0.0
H207 H 0.69823 0.13044 0.69114 0.0
C208 C 0.81532 0.2211 0.71985 0.0
N209 N 0.84391 0.27824 0.72147 0.0
C210 C 0.83592 0.23693 0.71143 0.0
C211 C 0.80934 0.23431 0.72913 0.0
C212 C 0.85011 0.2658 0.7124 0.0
C213 C 0.82402 0.26322 0.72979 0.0
C214 C 0.76749 0.11138 0.72394 0.0
C215 C 0.78946 0.11943 0.73203 0.0
C216 C 0.75216 0.08372 0.72026 0.0
C217 C 0.79578 0.09962 0.73629 0.0
C218 C 0.75915 0.06455 0.72472 0.0
N219 N 0.78063 0.07282 0.73258 0.0
C220 C 0.75056 0.1543 0.75241 0.0
C221 C 0.79929 0.18021 0.74967 0.0
C222 C 0.75378 0.15645 0.76493 0.0
N223 N 0.77316 0.16629 0.74511 0.0
C224 C 0.80349 0.18274 0.76211 0.0
C225 C 0.78055 0.17105 0.76994 0.0
H226 H 0.73002 0.14347 0.74848 0.0
H227 H 0.81688 0.18952 0.74362 0.0
C228 C 0.8272 0.1757 0.6911 0.0
N229 N 0.8146 0.15682 0.70005 0.0
C230 C 0.85006 0.17756 0.6851 0.0
C231 C 0.84588 0.13962 0.69725 0.0
C232 C 0.82302 0.13847 0.70301 0.0
C233 C 0.86003 0.15973 0.68832 0.0
H234 H 0.81988 0.18986 0.68887 0.0
H235 H 0.8125 0.12328 0.70997 0.0
O236 O 0.73695 0.16887 0.72238 0.0
O237 O 0.75986 0.1634 0.6972 0.0
O238 O 0.80059 0.19286 0.71886 0.0
O239 O 0.76068 0.13031 0.71974 0.0
H240 H 0.71867 0.17596 0.70128 0.0
H241 H 0.70285 0.16645 0.73949 0.0
H242 H 0.67619 0.17923 0.69853 0.0
H243 H 0.66065 0.17003 0.73608 0.0
H244 H 0.74576 0.08393 0.67919 0.0
H245 H 0.75355 0.1758 0.67491 0.0
H246 H 0.75498 0.11337 0.69729 0.0
H247 H 0.74433 0.1452 0.65715 0.0
H248 H 0.75255 0.27098 0.71244 0.0
H249 H 0.79216 0.26328 0.6802 0.0
H250 H 0.65008 0.0534 0.71998 0.0
H251 H 0.64945 0.09633 0.68751 0.0
H252 H 0.84079 0.22706 0.70419 0.0
H253 H 0.79321 0.22237 0.73563 0.0
H254 H 0.86602 0.27833 0.70591 0.0
H255 H 0.8195 0.27373 0.73688 0.0
H256 H 0.80181 0.14079 0.73481 0.0
H257 H 0.73505 0.07713 0.71401 0.0
H258 H 0.81281 0.10557 0.74252 0.0
H259 H 0.74749 0.04308 0.72193 0.0
H260 H 0.7355 0.14739 0.77061 0.0
H261 H 0.8245 0.19376 0.76556 0.0
H262 H 0.86049 0.19359 0.67836 0.0
H263 H 0.85268 0.12524 0.69988 0.0
Li264 Li 0.62678 0.78601 0.04068 0.0
Li265 Li 0.60452 0.76984 0.06077 0.0
Li266 Li 0.60211 0.73699 0.04504 0.0
Li267 Li 0.57735 0.7619 0.04257 0.0
C268 C 0.6584 0.76441 0.05014 0.0
N269 N 0.7045 0.76125 0.04334 0.0
C270 C 0.67863 0.76858 0.05865 0.0
C271 C 0.66159 0.75862 0.03816 0.0
C272 C 0.7018 0.7669 0.05504 0.0
C273 C 0.68505 0.75711 0.03491 0.0
C274 C 0.59099 0.81251 0.04795 0.0
C275 C 0.55485 0.82274 0.05285 0.0
N276 N 0.56202 0.83971 0.04307 0.0
C277 C 0.59811 0.83014 0.03798 0.0
C278 C 0.5693 0.80887 0.05549 0.0
C279 C 0.58318 0.84369 0.03566 0.0
C280 C 0.65585 0.81756 0.02064 0.0
N281 N 0.65736 0.81511 0.03276 0.0
C282 C 0.7008 0.85729 0.0336 0.0
C283 C 0.67938 0.83406 0.03928 0.0
C284 C 0.69935 0.86093 0.02113 0.0
C285 C 0.6768 0.84035 0.01459 0.0
H286 H 0.63792 0.80224 0.01574 0.0
H287 H 0.67981 0.83155 0.04894 0.0
C288 C 0.60691 0.75726 0.08504 0.0
N289 N 0.60708 0.77659 0.07751 0.0
C290 C 0.60772 0.76105 0.09752 0.0
C291 C 0.60888 0.80456 0.09418 0.0
C292 C 0.60826 0.80002 0.08177 0.0
C293 C 0.60852 0.78487 0.10221 0.0
H294 H 0.60582 0.73877 0.08134 0.0
H295 H 0.60855 0.81509 0.07554 0.0
C296 C 0.58344 0.73685 0.02168 0.0
N297 N 0.5509 0.69792 0.0046 0.0
C298 C 0.55711 0.71519 0.02475 0.0
C299 C 0.5932 0.73872 0.0099 0.0
C300 C 0.54097 0.69572 0.016 0.0
C301 C 0.57645 0.71883 0.0014 0.0
C302 C 0.54844 0.71824 0.06113 0.0
C303 C 0.53258 0.69042 0.05772 0.0
C304 C 0.53965 0.7282 0.07076 0.0
C305 C 0.50805 0.6731 0.06392 0.0
C306 C 0.51499 0.71021 0.07672 0.0
N307 N 0.49983 0.68326 0.07321 0.0
C308 C 0.59276 0.68729 0.05413 0.0
C309 C 0.59901 0.68992 0.03291 0.0
C310 C 0.58329 0.65895 0.05397 0.0
N311 N 0.59912 0.70179 0.04365 0.0
C312 C 0.58944 0.66151 0.03231 0.0
C313 C 0.58024 0.64549 0.04289 0.0
H314 H 0.59326 0.69742 0.06253 0.0
H315 H 0.6047 0.70204 0.02473 0.0
C316 C 0.54707 0.77181 0.02501 0.0
N317 N 0.54458 0.76026 0.03608 0.0
C318 C 0.52447 0.77207 0.0197 0.0
C319 C 0.49698 0.74823 0.0372 0.0
C320 C 0.52016 0.74859 0.04219 0.0
C321 C 0.49896 0.76017 0.02581 0.0
H322 H 0.5668 0.78114 0.02037 0.0
H323 H 0.51857 0.73972 0.05098 0.0
O324 O 0.63572 0.76616 0.05356 0.0
O325 O 0.60477 0.7984 0.05015 0.0
O326 O 0.59982 0.75608 0.0301 0.0
O327 O 0.57281 0.73541 0.05531 0.0
H328 H 0.67645 0.77311 0.06796 0.0
H329 H 0.64621 0.75537 0.03142 0.0
H330 H 0.71763 0.7701 0.06154 0.0
H331 H 0.68779 0.75266 0.02567 0.0
H332 H 0.53785 0.81993 0.05855 0.0
H333 H 0.61479 0.83309 0.03204 0.0
H334 H 0.56339 0.7951 0.06319 0.0
H335 H 0.58834 0.85727 0.02794 0.0
H336 H 0.71761 0.87281 0.039 0.0
H337 H 0.67502 0.84218 0.00495 0.0
H338 H 0.60717 0.74529 0.10342 0.0
H339 H 0.60985 0.82335 0.09745 0.0
H340 H 0.54918 0.71344 0.03378 0.0
H341 H 0.6136 0.75523 0.00737 0.0
H342 H 0.52056 0.67886 0.01827 0.0
H343 H 0.58378 0.71999 0.99226 0.0
H344 H 0.53911 0.68221 0.05037 0.0
H345 H 0.55156 0.74965 0.07351 0.0
H346 H 0.49558 0.65155 0.06135 0.0
H347 H 0.50788 0.71767 0.08414 0.0
H348 H 0.57703 0.64746 0.06236 0.0
H349 H 0.5875 0.65199 0.02358 0.0
H350 H 0.52713 0.78192 0.011 0.0
H351 H 0.47767 0.73851 0.04218 0.0
Li352 Li 0.83429 0.62406 0.37529 0.0
Li353 Li 0.83193 0.60188 0.39385 0.0
Li354 Li 0.85804 0.59862 0.37603 0.0
Li355 Li 0.8065 0.5752 0.37599 0.0
C356 C 0.88304 0.65884 0.38636 0.0
N357 N 0.9177 0.71559 0.38702 0.0
C358 C 0.87502 0.67552 0.39258 0.0
C359 C 0.9088 0.67094 0.38059 0.0
C360 C 0.8928 0.7042 0.39277 0.0
C361 C 0.92601 0.6997 0.38101 0.0
C362 C 0.77734 0.58765 0.39222 0.0
C363 C 0.74893 0.54945 0.4055 0.0
N364 N 0.73039 0.55852 0.40629 0.0
C365 C 0.75802 0.59662 0.39322 0.0
C366 C 0.77277 0.56389 0.39847 0.0
C367 C 0.73442 0.5816 0.40035 0.0
C368 C 0.80962 0.65477 0.36881 0.0
N369 N 0.83463 0.65606 0.36862 0.0
C370 C 0.85547 0.70068 0.35919 0.0
C371 C 0.85734 0.67828 0.36378 0.0
C372 C 0.82996 0.7001 0.35958 0.0
C373 C 0.80681 0.67662 0.36438 0.0
H374 H 0.7917 0.63655 0.3723 0.0
H375 H 0.87689 0.67867 0.3634 0.0
C376 C 0.83834 0.58976 0.41819 0.0
N377 N 0.83094 0.60455 0.41087 0.0
C378 C 0.83585 0.59076 0.4307 0.0
C379 C 0.8188 0.62268 0.42785 0.0
C380 C 0.82154 0.62098 0.41542 0.0
C381 C 0.82571 0.60721 0.43567 0.0
H382 H 0.84577 0.5769 0.41431 0.0
H383 H 0.81576 0.63247 0.40937 0.0
C384 C 0.84177 0.61404 0.35305 0.0
N385 N 0.85924 0.64892 0.33325 0.0
C386 C 0.82237 0.61535 0.34547 0.0
C387 C 0.87007 0.63054 0.35055 0.0
C388 C 0.83162 0.63312 0.33552 0.0
C389 C 0.87847 0.64798 0.34049 0.0
C390 C 0.83334 0.54539 0.38455 0.0
C391 C 0.82817 0.53413 0.37293 0.0
C392 C 0.84226 0.53399 0.39352 0.0
C393 C 0.83183 0.51156 0.3705 0.0
C394 C 0.8457 0.51142 0.39073 0.0
N395 N 0.84046 0.50077 0.37937 0.0
C396 C 0.90742 0.5975 0.38002 0.0
C397 C 0.88572 0.57955 0.36113 0.0
C398 C 0.92551 0.58731 0.37813 0.0
N399 N 0.88766 0.59285 0.37168 0.0
C400 C 0.90308 0.56869 0.35896 0.0
C401 C 0.92272 0.57186 0.36769 0.0
H402 H 0.908 0.60763 0.38843 0.0
H403 H 0.86944 0.57573 0.35478 0.0
C404 C 0.75863 0.54673 0.36165 0.0
N405 N 0.77299 0.54331 0.37076 0.0
C406 C 0.7348 0.52399 0.35701 0.0
C407 C 0.7404 0.49472 0.3715 0.0
C408 C 0.76395 0.51807 0.37594 0.0
C409 C 0.72572 0.4975 0.36182 0.0
H410 H 0.7658 0.56711 0.35794 0.0
H411 H 0.77512 0.51594 0.38344 0.0
O412 O 0.86604 0.63074 0.38609 0.0
O413 O 0.80068 0.60242 0.38532 0.0
O414 O 0.83321 0.59717 0.36298 0.0
O415 O 0.83089 0.5682 0.387 0.0
H416 H 0.85516 0.66644 0.39709 0.0
H417 H 0.91534 0.65824 0.3758 0.0
H418 H 0.88679 0.71741 0.39747 0.0
H419 H 0.94595 0.70938 0.37654 0.0
H420 H 0.74519 0.53105 0.41036 0.0
H421 H 0.76121 0.61508 0.38859 0.0
H422 H 0.78746 0.55664 0.398 0.0
H423 H 0.71933 0.58834 0.40118 0.0
H424 H 0.87381 0.71834 0.35552 0.0
H425 H 0.78656 0.67494 0.36453 0.0
H426 H 0.84116 0.57827 0.43637 0.0
H427 H 0.81132 0.63596 0.43127 0.0
H428 H 0.80044 0.60305 0.34729 0.0
H429 H 0.88544 0.63032 0.35643 0.0
H430 H 0.81682 0.63441 0.32961 0.0
H431 H 0.90031 0.66093 0.3385 0.0
H432 H 0.82174 0.54295 0.36579 0.0
H433 H 0.84668 0.54254 0.40253 0.0
H434 H 0.82799 0.50273 0.36153 0.0
H435 H 0.85262 0.50243 0.39759 0.0
H436 H 0.94025 0.58988 0.3851 0.0
H437 H 0.90041 0.55691 0.3508 0.0
H438 H 0.72402 0.52701 0.34955 0.0
H439 H 0.73372 0.47471 0.37561 0.0
Li440 Li 0.20916 0.83907 0.70852 0.0
Li441 Li 0.22841 0.83424 0.72757 0.0
Li442 Li 0.25988 0.86184 0.71034 0.0
Li443 Li 0.23304 0.81125 0.71001 0.0
C444 C 0.23037 0.89155 0.72071 0.0
N445 N 0.22379 0.93745 0.72252 0.0
C446 C 0.21498 0.89371 0.73019 0.0
C447 C 0.24286 0.91302 0.71229 0.0
C448 C 0.21177 0.91699 0.73091 0.0
C449 C 0.23917 0.93597 0.71332 0.0
C450 C 0.1775 0.78895 0.72574 0.0
C451 C 0.15886 0.75524 0.74178 0.0
N452 N 0.13598 0.75809 0.74214 0.0
C453 C 0.15372 0.79139 0.7262 0.0
C454 C 0.18002 0.77057 0.73351 0.0
C455 C 0.13298 0.77565 0.73458 0.0
C456 C 0.16868 0.82254 0.69115 0.0
N457 N 0.1791 0.83979 0.70079 0.0
C458 C 0.14442 0.85288 0.69879 0.0
C459 C 0.16757 0.85493 0.70468 0.0
C460 C 0.13307 0.83501 0.68885 0.0
C461 C 0.14564 0.81987 0.685 0.0
H462 H 0.17803 0.81044 0.68838 0.0
H463 H 0.17585 0.86812 0.71247 0.0
C464 C 0.2443 0.83248 0.75158 0.0
N465 N 0.22399 0.83216 0.74465 0.0
C466 C 0.24129 0.82986 0.76409 0.0
C467 C 0.19666 0.82696 0.76213 0.0
C468 C 0.20067 0.82993 0.74967 0.0
C469 C 0.21707 0.82675 0.76949 0.0
H470 H 0.26277 0.83459 0.74738 0.0
H471 H 0.18503 0.8302 0.744 0.0
C472 C 0.24082 0.84913 0.68602 0.0
N473 N 0.24993 0.87249 0.66329 0.0
C474 C 0.24962 0.83863 0.67662 0.0
C475 C 0.23632 0.87127 0.68382 0.0
C476 C 0.25423 0.8508 0.66521 0.0
C477 C 0.24111 0.88285 0.67228 0.0
C478 C 0.27758 0.82217 0.72273 0.0
C479 C 0.30355 0.83305 0.71722 0.0
C480 C 0.26691 0.79754 0.72931 0.0
C481 C 0.31821 0.81883 0.71822 0.0
C482 C 0.28217 0.7839 0.73008 0.0
N483 N 0.30729 0.79473 0.72456 0.0
C484 C 0.30745 0.91451 0.71335 0.0
C485 C 0.30799 0.88892 0.69636 0.0
C486 C 0.33509 0.93461 0.71134 0.0
N487 N 0.29474 0.89204 0.70601 0.0
C488 C 0.33561 0.90841 0.69404 0.0
C489 C 0.34976 0.93123 0.70179 0.0
H490 H 0.2965 0.91617 0.72108 0.0
H491 H 0.29774 0.87036 0.69094 0.0
C492 C 0.21319 0.75388 0.70639 0.0
N493 N 0.23415 0.77994 0.704 0.0
C494 C 0.21408 0.73097 0.70181 0.0
C495 C 0.25812 0.76222 0.69247 0.0
C496 C 0.2563 0.78449 0.69717 0.0
C497 C 0.23676 0.73502 0.69474 0.0
H498 H 0.19573 0.75089 0.71177 0.0
H499 H 0.27252 0.8055 0.69533 0.0
O500 O 0.23395 0.869 0.71996 0.0
O501 O 0.19809 0.80432 0.71764 0.0
O502 O 0.23617 0.83735 0.69724 0.0
O503 O 0.2627 0.83556 0.72168 0.0
H504 H 0.20546 0.8775 0.73688 0.0
H505 H 0.25553 0.91218 0.7051 0.0
H506 H 0.19973 0.9188 0.73815 0.0
H507 H 0.24864 0.95268 0.70683 0.0
H508 H 0.16063 0.74109 0.74791 0.0
H509 H 0.15135 0.80541 0.72023 0.0
H510 H 0.19819 0.7683 0.73323 0.0
H511 H 0.11453 0.77744 0.73509 0.0
H512 H 0.13537 0.86493 0.70204 0.0
H513 H 0.13724 0.80538 0.67756 0.0
H514 H 0.25746 0.82969 0.76946 0.0
H515 H 0.17788 0.82503 0.76596 0.0
H516 H 0.25296 0.82133 0.67814 0.0
H517 H 0.22884 0.87919 0.69088 0.0
H518 H 0.26119 0.84298 0.65787 0.0
H519 H 0.2377 0.9 0.67046 0.0
H520 H 0.31228 0.85221 0.7122 0.0
H521 H 0.24697 0.78896 0.73371 0.0
H522 H 0.33827 0.82696 0.71396 0.0
H523 H 0.27405 0.7647 0.73507 0.0
H524 H 0.34518 0.952 0.71748 0.0
H525 H 0.34622 0.9046 0.68675 0.0
H526 H 0.19727 0.71033 0.70385 0.0
H527 H 0.27576 0.76627 0.68692 0.0
Li528 Li 0.76539 0.60181 0.6051 0.0
Li529 Li 0.7841 0.62731 0.62457 0.0
Li530 Li 0.76133 0.5771 0.6239 0.0
Li531 Li 0.73428 0.59952 0.62177 0.0
C532 C 0.81044 0.591 0.61555 0.0
N533 N 0.8384 0.56179 0.61686 0.0
C534 C 0.82979 0.59674 0.62472 0.0
C535 C 0.80538 0.57057 0.607 0.0
C536 C 0.8437 0.5817 0.62524 0.0
C537 C 0.81971 0.55599 0.60783 0.0
C538 C 0.75833 0.65514 0.61517 0.0
C539 C 0.75125 0.6826 0.63005 0.0
N540 N 0.75368 0.70074 0.62127 0.0
C541 C 0.76075 0.67403 0.6063 0.0
C542 C 0.75355 0.65942 0.62715 0.0
C543 C 0.75834 0.69697 0.60956 0.0
C544 C 0.749 0.59129 0.58066 0.0
N545 N 0.771 0.60318 0.5883 0.0
C546 C 0.80276 0.6176 0.5718 0.0
C547 C 0.7975 0.6163 0.58416 0.0
C548 C 0.7805 0.60514 0.56364 0.0
C549 C 0.75329 0.59189 0.56823 0.0
H550 H 0.72814 0.58114 0.58425 0.0
H551 H 0.81455 0.62576 0.59049 0.0
C552 C 0.82227 0.65916 0.64257 0.0
N553 N 0.81418 0.65954 0.63104 0.0
C554 C 0.84679 0.68138 0.64698 0.0
C555 C 0.85368 0.70418 0.62767 0.0
C556 C 0.82897 0.68155 0.62364 0.0
C557 C 0.86317 0.70397 0.63939 0.0
H558 H 0.8103 0.64105 0.64813 0.0
H559 H 0.8221 0.68102 0.61447 0.0
C560 C 0.71186 0.54321 0.60943 0.0
N561 N 0.66936 0.49013 0.60454 0.0
C562 C 0.68886 0.53038 0.61708 0.0
C563 C 0.7131 0.52911 0.59922 0.0
C564 C 0.66762 0.50354 0.61446 0.0
C565 C 0.69147 0.50226 0.59693 0.0
C566 C 0.74226 0.59038 0.64643 0.0
C567 C 0.72272 0.56221 0.64747 0.0
C568 C 0.74691 0.60811 0.65618 0.0
C569 C 0.70792 0.55226 0.65823 0.0
C570 C 0.73169 0.59736 0.66679 0.0
N571 N 0.71266 0.5699 0.66758 0.0
C572 C 0.77546 0.54992 0.64149 0.0
C573 C 0.75191 0.52153 0.62471 0.0
C574 C 0.77717 0.52823 0.64695 0.0
N575 N 0.76279 0.54616 0.63061 0.0
C576 C 0.75279 0.49917 0.6299 0.0
C577 C 0.76551 0.50228 0.64121 0.0
H578 H 0.78436 0.56988 0.6459 0.0
H579 H 0.74262 0.51914 0.61595 0.0
C580 C 0.68345 0.58867 0.61363 0.0
N581 N 0.69846 0.59497 0.62397 0.0
C582 C 0.65499 0.5786 0.61407 0.0
C583 C 0.65828 0.58362 0.63577 0.0
C584 C 0.68679 0.59382 0.63489 0.0
C585 C 0.64185 0.5748 0.62529 0.0
H586 H 0.69337 0.58987 0.60508 0.0
H587 H 0.69916 0.59935 0.64298 0.0
O588 O 0.79592 0.6048 0.61514 0.0
O589 O 0.76086 0.63272 0.6121 0.0
O590 O 0.73271 0.56971 0.61166 0.0
O591 O 0.757 0.60072 0.63599 0.0
H592 H 0.83378 0.61242 0.63144 0.0
H593 H 0.79026 0.56576 0.59991 0.0
H594 H 0.85863 0.58578 0.63232 0.0
H595 H 0.8159 0.53998 0.60133 0.0
H596 H 0.74756 0.68617 0.63928 0.0
H597 H 0.76451 0.67101 0.59698 0.0
H598 H 0.75167 0.64507 0.63415 0.0
H599 H 0.76019 0.71178 0.60278 0.0
H600 H 0.82405 0.62847 0.56869 0.0
H601 H 0.73549 0.58172 0.5623 0.0
H602 H 0.8536 0.68018 0.656 0.0
H603 H 0.86565 0.72126 0.62157 0.0
H604 H 0.68719 0.54105 0.62489 0.0
H605 H 0.73077 0.53869 0.59321 0.0
H606 H 0.64971 0.49339 0.62031 0.0
H607 H 0.69225 0.49105 0.58911 0.0
H608 H 0.71908 0.54814 0.6401 0.0
H609 H 0.76198 0.62998 0.65553 0.0
H610 H 0.69271 0.53051 0.65915 0.0
H611 H 0.73498 0.61086 0.67439 0.0
H612 H 0.78775 0.53191 0.65553 0.0
H613 H 0.74326 0.47958 0.62515 0.0
H614 H 0.64323 0.57268 0.60574 0.0
H615 H 0.64903 0.58106 0.64461 0.0
Li616 Li 0.18732 0.76643 0.9575 0.0
Li617 Li 0.1364 0.73958 0.95497 0.0
Li618 Li 0.16619 0.77297 0.93948 0.0
Li619 Li 0.16023 0.78844 0.95856 0.0
C620 C 0.16355 0.71331 0.94623 0.0
N621 N 0.15751 0.66132 0.94928 0.0
C622 C 0.16268 0.70301 0.95783 0.0
C623 C 0.16135 0.69716 0.93619 0.0
C624 C 0.15961 0.67669 0.95918 0.0
C625 C 0.15834 0.67094 0.93792 0.0
C626 C 0.14732 0.7647 0.97948 0.0
C627 C 0.10929 0.76543 0.98956 0.0
N628 N 0.12612 0.77851 0.99913 0.0
C629 C 0.1642 0.77803 0.98942 0.0
C630 C 0.11961 0.75828 0.97954 0.0
C631 C 0.15311 0.78488 0.99926 0.0
C632 C 0.23213 0.78265 0.97328 0.0
N633 N 0.2193 0.76629 0.96359 0.0
C634 C 0.25226 0.75071 0.96317 0.0
C635 C 0.22924 0.75094 0.95833 0.0
C636 C 0.26558 0.76687 0.97339 0.0
C637 C 0.25537 0.78324 0.97837 0.0
H638 H 0.22437 0.79539 0.97701 0.0
H639 H 0.21935 0.7388 0.95037 0.0
C640 C 0.09184 0.69006 0.94696 0.0
N641 N 0.10537 0.70403 0.95707 0.0
C642 C 0.07304 0.66169 0.94751 0.0
C643 C 0.08139 0.6631 0.969 0.0
C644 C 0.10018 0.6914 0.96802 0.0
C645 C 0.06828 0.64777 0.95859 0.0
H646 H 0.09695 0.70066 0.93836 0.0
H647 H 0.11196 0.70287 0.97582 0.0
C648 C 0.22062 0.81274 0.9441 0.0
N649 N 0.27143 0.83493 0.93268 0.0
C650 C 0.24004 0.8409 0.94532 0.0
C651 C 0.22706 0.79585 0.93708 0.0
C652 C 0.26561 0.85173 0.93947 0.0
C653 C 0.25284 0.80747 0.93138 0.0
C654 C 0.11925 0.78161 0.9416 0.0
C655 C 0.13602 0.80886 0.93764 0.0
C656 C 0.09041 0.76932 0.94095 0.0
C657 C 0.12359 0.82336 0.93301 0.0
C658 C 0.07878 0.78452 0.93629 0.0
N659 N 0.09547 0.811 0.93244 0.0
C660 C 0.15885 0.75722 0.91508 0.0
C661 C 0.18457 0.80579 0.91818 0.0
C662 C 0.16218 0.76087 0.90261 0.0
N663 N 0.17017 0.77951 0.92256 0.0
C664 C 0.18827 0.81042 0.90577 0.0
C665 C 0.17716 0.78778 0.89779 0.0
H666 H 0.14743 0.73657 0.91883 0.0
H667 H 0.19338 0.82321 0.92432 0.0
C668 C 0.18326 0.83664 0.97184 0.0
N669 N 0.15891 0.8178 0.96668 0.0
C670 C 0.18521 0.85928 0.97804 0.0
C671 C 0.13695 0.84286 0.97345 0.0
C672 C 0.13581 0.8202 0.9675 0.0
C673 C 0.16193 0.86269 0.97879 0.0
H674 H 0.20118 0.834 0.97111 0.0
H675 H 0.11651 0.80458 0.96356 0.0
O676 O 0.16538 0.73857 0.94468 0.0
O677 O 0.15794 0.75861 0.96956 0.0
O678 O 0.1956 0.80199 0.94988 0.0
O679 O 0.13078 0.76724 0.94655 0.0
H680 H 0.1642 0.71512 0.96571 0.0
H681 H 0.16187 0.70474 0.92715 0.0
H682 H 0.15882 0.66844 0.9681 0.0
H683 H 0.15658 0.6582 0.93023 0.0
H684 H 0.08795 0.76075 0.9897 0.0
H685 H 0.18566 0.78316 0.98954 0.0
H686 H 0.10635 0.7483 0.97185 0.0
H687 H 0.16598 0.79531 0.007 0.0
H688 H 0.25926 0.73766 0.95903 0.0
H689 H 0.26536 0.7966 0.98604 0.0
H690 H 0.06325 0.65053 0.9393 0.0
H691 H 0.07862 0.65301 0.97765 0.0
H692 H 0.23539 0.85424 0.95074 0.0
H693 H 0.21237 0.77404 0.93599 0.0
H694 H 0.28083 0.8735 0.94033 0.0
H695 H 0.25808 0.79464 0.92591 0.0
H696 H 0.15833 0.81888 0.9384 0.0
H697 H 0.07718 0.74831 0.94411 0.0
H698 H 0.13629 0.84451 0.92996 0.0
H699 H 0.05648 0.7753 0.93576 0.0
H700 H 0.15353 0.74277 0.89683 0.0
H701 H 0.19958 0.83153 0.90248 0.0
H702 H 0.20489 0.87433 0.98196 0.0
H703 H 0.11856 0.8448 0.97395 0.0
Li704 Li 0.39441 0.13418 0.28821 0.0
Li705 Li 0.41861 0.18401 0.28904 0.0
Li706 Li 0.36901 0.1587 0.29018 0.0
Li707 Li 0.39304 0.16163 0.27079 0.0
C708 C 0.41124 0.1569 0.31114 0.0
N709 N 0.44334 0.15465 0.32965 0.0
C710 C 0.43752 0.16059 0.30873 0.0
C711 C 0.40132 0.15213 0.32299 0.0
C712 C 0.45343 0.15937 0.3182 0.0
C713 C 0.41785 0.15104 0.33222 0.0
C714 C 0.44946 0.1669 0.27254 0.0
C715 C 0.48463 0.1911 0.25743 0.0
N716 N 0.49923 0.17943 0.26184 0.0
C717 C 0.46477 0.15504 0.27689 0.0
C718 C 0.4594 0.18498 0.26269 0.0
C719 C 0.4899 0.16169 0.27137 0.0
C720 C 0.40323 0.09153 0.2818 0.0
N721 N 0.3969 0.10213 0.29153 0.0
C722 C 0.40298 0.07176 0.30478 0.0
C723 C 0.39558 0.092 0.30283 0.0
C724 C 0.4113 0.06167 0.29496 0.0
C725 C 0.4105 0.07114 0.28331 0.0
H726 H 0.4041 0.10005 0.27294 0.0
H727 H 0.38994 0.10038 0.31039 0.0
C728 C 0.44657 0.22707 0.30565 0.0
N729 N 0.45057 0.2163 0.29534 0.0
C730 C 0.46861 0.25025 0.31105 0.0
C731 C 0.49866 0.25075 0.2952 0.0
C732 C 0.47596 0.22774 0.29003 0.0
C733 C 0.49511 0.26224 0.30585 0.0
H734 H 0.42618 0.21753 0.30971 0.0
H735 H 0.47878 0.21914 0.28183 0.0
C736 C 0.33858 0.10407 0.28224 0.0
N737 N 0.2921 0.05581 0.28958 0.0
C738 C 0.31928 0.08646 0.27373 0.0
C739 C 0.33426 0.09716 0.29448 0.0
C740 C 0.2959 0.06214 0.27763 0.0
C741 C 0.31063 0.07266 0.29801 0.0
C742 C 0.40527 0.21957 0.28062 0.0
C743 C 0.39859 0.23253 0.28975 0.0
C744 C 0.42616 0.23558 0.27235 0.0
C745 C 0.41328 0.26143 0.29056 0.0
C746 C 0.44038 0.26442 0.27347 0.0
N747 N 0.43372 0.27664 0.28248 0.0
C748 C 0.33568 0.16231 0.30846 0.0
C749 C 0.31728 0.15528 0.28864 0.0
C750 C 0.3133 0.16426 0.31297 0.0
N751 N 0.33732 0.15819 0.29648 0.0
C752 C 0.29461 0.15721 0.29275 0.0
C753 C 0.29264 0.16217 0.30503 0.0
H754 H 0.35215 0.16489 0.31443 0.0
H755 H 0.31931 0.1521 0.27915 0.0
C756 C 0.39983 0.14945 0.24668 0.0
N757 N 0.39122 0.16352 0.25384 0.0
C758 C 0.39941 0.15173 0.23414 0.0
C759 C 0.3804 0.18214 0.23664 0.0
C760 C 0.38147 0.17951 0.24912 0.0
C761 C 0.38964 0.1683 0.229 0.0
H762 H 0.40732 0.13675 0.25073 0.0
H763 H 0.37475 0.19041 0.25507 0.0
O764 O 0.39514 0.15788 0.30203 0.0
O765 O 0.42449 0.16016 0.27768 0.0
O766 O 0.36147 0.128 0.27854 0.0
O767 O 0.39172 0.19131 0.2799 0.0
H768 H 0.4456 0.16443 0.29966 0.0
H769 H 0.381 0.14913 0.32503 0.0
H770 H 0.47379 0.16219 0.31644 0.0
H771 H 0.4104 0.14729 0.34143 0.0
H772 H 0.4926 0.20513 0.24983 0.0
H773 H 0.45734 0.14081 0.28443 0.0
H774 H 0.44789 0.19437 0.25921 0.0
H775 H 0.50196 0.15268 0.27465 0.0
H776 H 0.40306 0.06472 0.31388 0.0
H777 H 0.41707 0.06413 0.27552 0.0
H778 H 0.46509 0.25838 0.31932 0.0
H779 H 0.51873 0.25961 0.29085 0.0
H780 H 0.32233 0.09156 0.26422 0.0
H781 H 0.34891 0.11053 0.30121 0.0
H782 H 0.28078 0.04831 0.27114 0.0
H783 H 0.30702 0.06706 0.30745 0.0
H784 H 0.38247 0.22036 0.29623 0.0
H785 H 0.4315 0.22582 0.26522 0.0
H786 H 0.40851 0.27177 0.29764 0.0
H787 H 0.45675 0.27709 0.26719 0.0
H788 H 0.31278 0.1685 0.32247 0.0
H789 H 0.27902 0.15529 0.28635 0.0
H790 H 0.40647 0.14056 0.22853 0.0
H791 H 0.37298 0.19532 0.23302 0.0
Li792 Li 0.23455 0.42251 0.62342 0.0
Li793 Li 0.25838 0.39643 0.62225 0.0
Li794 Li 0.22931 0.39631 0.60526 0.0
Li795 Li 0.20869 0.37273 0.62464 0.0
C796 C 0.28014 0.45086 0.6056 0.0
N797 N 0.31419 0.49878 0.59291 0.0
C798 C 0.30855 0.46593 0.6081 0.0
C799 C 0.26907 0.46018 0.59664 0.0
C800 C 0.32541 0.49009 0.60159 0.0
C801 C 0.28662 0.48445 0.59033 0.0
C802 C 0.25453 0.41488 0.64512 0.0
C803 C 0.2668 0.4238 0.66617 0.0
N804 N 0.29021 0.44769 0.66313 0.0
C805 C 0.2787 0.43957 0.64221 0.0
C806 C 0.2485 0.40695 0.6572 0.0
C807 C 0.29647 0.45585 0.65143 0.0
C808 C 0.21916 0.45148 0.63934 0.0
N809 N 0.2367 0.45539 0.63005 0.0
C810 C 0.25636 0.50452 0.63145 0.0
C811 C 0.25525 0.4813 0.6261 0.0
C812 C 0.23806 0.50099 0.64088 0.0
C813 C 0.21923 0.47408 0.64482 0.0
H814 H 0.20512 0.43071 0.64253 0.0
H815 H 0.26938 0.48417 0.6189 0.0
C816 C 0.30956 0.40389 0.61593 0.0
N817 N 0.29218 0.39728 0.6255 0.0
C818 C 0.33696 0.41044 0.61765 0.0
C819 C 0.32755 0.40149 0.63898 0.0
C820 C 0.30017 0.39478 0.63681 0.0
C821 C 0.34647 0.41025 0.62937 0.0
H822 H 0.30253 0.40565 0.60705 0.0
H823 H 0.28577 0.38893 0.64425 0.0
C824 C 0.18366 0.40872 0.61684 0.0
N825 N 0.15276 0.43404 0.62149 0.0
C826 C 0.16226 0.39739 0.62534 0.0
C827 C 0.18911 0.43274 0.6106 0.0
C828 C 0.14691 0.41053 0.62758 0.0
C829 C 0.17334 0.4453 0.61312 0.0
C830 C 0.23105 0.34082 0.61627 0.0
C831 C 0.22918 0.32169 0.60763 0.0
C832 C 0.2334 0.33601 0.62848 0.0
C833 C 0.22967 0.29797 0.61136 0.0
C834 C 0.23382 0.31205 0.63184 0.0
N835 N 0.23196 0.29369 0.62328 0.0
C836 C 0.24241 0.39023 0.58126 0.0
C837 C 0.20421 0.39758 0.5835 0.0
C838 C 0.23931 0.3889 0.56872 0.0
N839 N 0.22494 0.39451 0.58832 0.0
C840 C 0.2005 0.39663 0.57103 0.0
C841 C 0.2181 0.39213 0.56344 0.0
H842 H 0.25866 0.38777 0.58539 0.0
H843 H 0.19062 0.40092 0.58935 0.0
C844 C 0.17154 0.34132 0.64314 0.0
N845 N 0.17767 0.34146 0.63127 0.0
C846 C 0.14753 0.31913 0.64794 0.0
C847 C 0.13709 0.29741 0.62827 0.0
C848 C 0.16128 0.32005 0.62385 0.0
C849 C 0.12973 0.29695 0.64043 0.0
H850 H 0.18489 0.35883 0.64877 0.0
H851 H 0.16678 0.32085 0.61444 0.0
O852 O 0.26342 0.42701 0.61182 0.0
O853 O 0.23666 0.39852 0.63627 0.0
O854 O 0.19924 0.39641 0.61468 0.0
O855 O 0.23051 0.36407 0.61273 0.0
H856 H 0.31748 0.45912 0.61503 0.0
H857 H 0.24717 0.44892 0.59462 0.0
H858 H 0.34742 0.50195 0.60344 0.0
H859 H 0.27832 0.49191 0.58339 0.0
H860 H 0.2624 0.41788 0.67556 0.0
H861 H 0.28378 0.44611 0.63294 0.0
H862 H 0.2299 0.38791 0.65962 0.0
H863 H 0.31525 0.47496 0.6493 0.0
H864 H 0.27115 0.525 0.62817 0.0
H865 H 0.20506 0.47058 0.65218 0.0
H866 H 0.35099 0.41737 0.61002 0.0
H867 H 0.33412 0.40086 0.64812 0.0
H868 H 0.15766 0.37877 0.63022 0.0
H869 H 0.20559 0.44183 0.604 0.0
H870 H 0.1304 0.40207 0.63418 0.0
H871 H 0.17751 0.46404 0.60844 0.0
H872 H 0.22735 0.32515 0.59815 0.0
H873 H 0.23484 0.35054 0.6353 0.0
H874 H 0.22823 0.28297 0.60477 0.0
H875 H 0.23561 0.30805 0.64125 0.0
H876 H 0.25314 0.38503 0.56325 0.0
H877 H 0.18419 0.39973 0.5674 0.0
H878 H 0.14245 0.31987 0.65731 0.0
H879 H 0.12411 0.28062 0.6222 0.0
Li880 Li 0.86784 0.2635 0.95574 0.0
Li881 Li 0.81638 0.23833 0.95734 0.0
Li882 Li 0.84243 0.21371 0.95825 0.0
Li883 Li 0.83716 0.23186 0.93936 0.0
C884 C 0.84218 0.23083 0.98054 0.0
N885 N 0.83729 0.205 0.00242 0.0
C886 C 0.81668 0.21752 0.98653 0.0
C887 C 0.86526 0.23122 0.98574 0.0
C888 C 0.81462 0.20454 0.99757 0.0
C889 C 0.86234 0.21796 0.99679 0.0
C890 C 0.82986 0.28428 0.94452 0.0
C891 C 0.79417 0.29392 0.93803 0.0
N892 N 0.80804 0.31922 0.94341 0.0
C893 C 0.84382 0.31042 0.94996 0.0
C894 C 0.8049 0.276 0.93846 0.0
C895 C 0.83243 0.32777 0.9493 0.0
C896 C 0.91329 0.31431 0.94949 0.0
N897 N 0.89942 0.29787 0.95901 0.0
C898 C 0.92538 0.33463 0.97288 0.0
C899 C 0.90541 0.30713 0.97056 0.0
C900 C 0.93893 0.35268 0.96319 0.0
C901 C 0.93326 0.34198 0.95138 0.0
H902 H 0.9076 0.30635 0.94041 0.0
H903 H 0.89372 0.29354 0.97792 0.0
C904 C 0.75999 0.21814 0.96274 0.0
N905 N 0.78583 0.24057 0.96363 0.0
C906 C 0.73722 0.21902 0.96748 0.0
C907 C 0.7681 0.26613 0.97393 0.0
C908 C 0.79032 0.26414 0.96925 0.0
C909 C 0.74103 0.24332 0.97311 0.0
H910 H 0.75711 0.19939 0.95853 0.0
H911 H 0.81119 0.28141 0.97012 0.0
C912 C 0.89468 0.23253 0.94682 0.0
N913 N 0.94123 0.22693 0.9479 0.0
C914 C 0.89905 0.21703 0.93808 0.0
C915 C 0.91409 0.24537 0.95605 0.0
C916 C 0.92268 0.21438 0.9388 0.0
C917 C 0.93746 0.24224 0.95646 0.0
C918 C 0.79067 0.18372 0.94147 0.0
C919 C 0.79223 0.15966 0.93978 0.0
C920 C 0.77204 0.18793 0.9346 0.0
C921 C 0.77524 0.14029 0.93115 0.0
C922 C 0.75546 0.16811 0.92604 0.0
N923 N 0.7574 0.1449 0.92451 0.0
C924 C 0.81566 0.1646 0.97061 0.0
C925 C 0.86146 0.17562 0.96571 0.0
C926 C 0.81011 0.13936 0.97554 0.0
N927 N 0.84083 0.18199 0.96568 0.0
C928 C 0.85673 0.15038 0.97046 0.0
C929 C 0.83056 0.13163 0.97524 0.0
H930 H 0.79959 0.17012 0.97045 0.0
H931 H 0.88135 0.18958 0.9618 0.0
C932 C 0.83098 0.24475 0.91529 0.0
N933 N 0.83344 0.22622 0.9224 0.0
C934 C 0.82722 0.24039 0.90286 0.0
C935 C 0.82891 0.19811 0.90531 0.0
C936 C 0.83303 0.20351 0.91766 0.0
C937 C 0.82584 0.21665 0.89777 0.0
H938 H 0.83182 0.26287 0.91926 0.0
H939 H 0.83564 0.18943 0.92349 0.0
O940 O 0.84449 0.2432 0.96961 0.0
O941 O 0.84059 0.26692 0.94512 0.0
O942 O 0.87182 0.23556 0.94614 0.0
O943 O 0.80738 0.20311 0.94976 0.0
H944 H 0.79859 0.21697 0.98264 0.0
H945 H 0.88516 0.24146 0.98125 0.0
H946 H 0.79497 0.19404 0.00227 0.0
H947 H 0.87998 0.21795 0.00087 0.0
H948 H 0.7748 0.28771 0.93342 0.0
H949 H 0.86309 0.31719 0.95472 0.0
H950 H 0.79386 0.25589 0.93419 0.0
H951 H 0.84296 0.348 0.9535 0.0
H952 H 0.92935 0.34194 0.98211 0.0
H953 H 0.94277 0.3552 0.94362 0.0
H954 H 0.71694 0.20063 0.96691 0.0
H955 H 0.77216 0.2854 0.97807 0.0
H956 H 0.88433 0.20712 0.93082 0.0
H957 H 0.91111 0.25747 0.96288 0.0
H958 H 0.92629 0.20237 0.93212 0.0
H959 H 0.9526 0.25197 0.96358 0.0
H960 H 0.80666 0.15612 0.94494 0.0
H961 H 0.77052 0.20639 0.93581 0.0
H962 H 0.77635 0.12166 0.9297 0.0
H963 H 0.74107 0.17119 0.92061 0.0
H964 H 0.78981 0.12584 0.97936 0.0
H965 H 0.87304 0.14519 0.96998 0.0
H966 H 0.82488 0.25512 0.89733 0.0
H967 H 0.82835 0.17978 0.90168 0.0
Li968 Li 0.57992 0.81367 0.29094 0.0
Li969 Li 0.60165 0.86291 0.28859 0.0
Li970 Li 0.60532 0.83543 0.27203 0.0
Li971 Li 0.63066 0.84249 0.29183 0.0
C972 C 0.5501 0.83899 0.27889 0.0
N973 N 0.50893 0.85286 0.28002 0.0
C974 C 0.53666 0.837 0.28981 0.0
C975 C 0.54246 0.84782 0.26852 0.0
C976 C 0.51594 0.84417 0.2902 0.0
C977 C 0.52161 0.85478 0.26928 0.0
C978 C 0.6038 0.85042 0.31433 0.0
C979 C 0.62983 0.87772 0.33147 0.0
N980 N 0.60588 0.86762 0.33789 0.0
C981 C 0.57947 0.84008 0.32114 0.0
C982 C 0.62922 0.8692 0.31957 0.0
C983 C 0.58095 0.84912 0.33302 0.0
C984 C 0.55174 0.77175 0.30824 0.0
N985 N 0.54904 0.78162 0.29742 0.0
C986 C 0.50175 0.74571 0.29591 0.0
C987 C 0.52479 0.76909 0.29119 0.0
C988 C 0.50373 0.73518 0.30715 0.0
C989 C 0.52921 0.74845 0.31332 0.0
H990 H 0.57138 0.78215 0.31295 0.0
H991 H 0.5234 0.77724 0.28252 0.0
C992 C 0.59475 0.90631 0.28074 0.0
N993 N 0.59604 0.89364 0.291 0.0
C994 C 0.58431 0.92445 0.28107 0.0
C995 C 0.57904 0.91804 0.30268 0.0
C996 C 0.58927 0.89977 0.30191 0.0
C997 C 0.5755 0.92979 0.2921 0.0
H998 H 0.60009 0.90086 0.27218 0.0
H999 H 0.59023 0.8894 0.30993 0.0
C1000 C 0.59453 0.77945 0.28236 0.0
N1001 N 0.5644 0.72224 0.28315 0.0
C1002 C 0.60094 0.76503 0.29089 0.0
C1003 C 0.57285 0.76478 0.27421 0.0
C1004 C 0.58545 0.7361 0.29115 0.0
C1005 C 0.55786 0.73586 0.27476 0.0
C1006 C 0.65798 0.89609 0.28004 0.0
C1007 C 0.67621 0.90671 0.27028 0.0
C1008 C 0.66336 0.91188 0.29053 0.0
C1009 C 0.6998 0.93293 0.27123 0.0
C1010 C 0.68715 0.93803 0.29113 0.0
N1011 N 0.70474 0.94791 0.28155 0.0
C1012 C 0.60363 0.84941 0.24781 0.0
C1013 C 0.61282 0.81257 0.25068 0.0
C1014 C 0.60463 0.84708 0.2353 0.0
N1015 N 0.60744 0.83209 0.25517 0.0
C1016 C 0.61388 0.80942 0.23824 0.0
C1017 C 0.60965 0.82674 0.23036 0.0
H1018 H 0.59986 0.86505 0.25169 0.0
H1019 H 0.61614 0.79933 0.25676 0.0
C1020 C 0.65737 0.82835 0.30891 0.0
N1021 N 0.66253 0.84524 0.29926 0.0
C1022 C 0.6789 0.8267 0.31449 0.0
C1023 C 0.711 0.86083 0.30042 0.0
C1024 C 0.68869 0.86155 0.295 0.0
C1025 C 0.70621 0.84285 0.3102 0.0
H1026 H 0.63628 0.81554 0.31205 0.0
H1027 H 0.69222 0.87464 0.28724 0.0
O1028 O 0.57125 0.83319 0.27845 0.0
O1029 O 0.60274 0.84164 0.30272 0.0
O1030 O 0.60877 0.80779 0.28222 0.0
O1031 O 0.63486 0.87044 0.27923 0.0
H1032 H 0.54247 0.8304 0.29792 0.0
H1033 H 0.55268 0.84952 0.26001 0.0
H1034 H 0.50553 0.84294 0.29861 0.0
H1035 H 0.51559 0.8618 0.26135 0.0
H1036 H 0.64935 0.89231 0.33562 0.0
H1037 H 0.55964 0.82533 0.31729 0.0
H1038 H 0.64833 0.87702 0.31455 0.0
H1039 H 0.56228 0.84141 0.33836 0.0
H1040 H 0.48267 0.73586 0.29075 0.0
H1041 H 0.5316 0.74121 0.32206 0.0
H1042 H 0.58209 0.9333 0.27273 0.0
H1043 H 0.57227 0.92147 0.31134 0.0
H1044 H 0.61758 0.77604 0.29728 0.0
H1045 H 0.56735 0.77565 0.26766 0.0
H1046 H 0.59012 0.72467 0.29773 0.0
H1047 H 0.54092 0.72425 0.26856 0.0
H1048 H 0.67222 0.89473 0.26208 0.0
H1049 H 0.6492 0.90417 0.29807 0.0
H1050 H 0.71417 0.94138 0.26376 0.0
H1051 H 0.69159 0.95049 0.29919 0.0
H1052 H 0.60176 0.86121 0.22959 0.0
H1053 H 0.61751 0.79327 0.23485 0.0
H1054 H 0.67393 0.81207 0.3218 0.0
H1055 H 0.73168 0.8739 0.29688 0.0
H1056 H 0.183 0.88271 0.00105 0.0
H1057 H 0.19323 0.92728 0.0097 0.0
H1058 H 0.15748 0.94365 0.97843 0.0
H1059 H 0.14702 0.89888 0.96977 0.0
H1060 H 0.21258 0.98461 0.9836 0.0
H1061 H 0.12569 0.93544 0.00407 0.0
H1062 H 0.08981 0.89789 0.01647 0.0
H1063 H 0.14655 0.92207 0.04625 0.0
H1064 H 0.18292 0.95952 0.03398 0.0
H1065 H 0.25948 0.11767 0.00729 0.0
H1066 H 0.22595 0.07185 0.99937 0.0
H1067 H 0.23936 0.03348 0.03053 0.0
H1068 H 0.2719 0.0792 0.03866 0.0
H1069 H 0.18772 0.00403 0.02398 0.0
H1070 H 0.27591 0.0444 0.00352 0.0
H1071 H 0.31511 0.08006 0.99172 0.0
H1072 H 0.25983 0.07014 0.96267 0.0
H1073 H 0.22022 0.03467 0.97438 0.0
C1074 C 0.17688 0.89562 0.99615 0.0
C1075 C 0.16436 0.88753 0.98475 0.0
C1076 C 0.18254 0.92093 0.00111 0.0
C1077 C 0.17596 0.93863 0.99471 0.0
C1078 C 0.16252 0.93014 0.98352 0.0
C1079 C 0.1565 0.90461 0.97862 0.0
C1080 C 0.1862 0.96717 0.99912 0.0
C1081 C 0.20662 0.989 0.99228 0.0
C1082 C 0.179 0.9726 0.01061 0.0
C1083 C 0.15709 0.95023 0.01807 0.0
C1084 C 0.13059 0.93264 0.01323 0.0
C1085 C 0.11015 0.91139 0.02025 0.0
C1086 C 0.11591 0.90758 0.03214 0.0
C1087 C 0.14211 0.92505 0.03704 0.0
C1088 C 0.16264 0.94633 0.03007 0.0
C1089 C 0.25479 0.0994 0.01252 0.0
C1090 C 0.26833 0.10183 0.02352 0.0
C1091 C 0.23574 0.07328 0.00799 0.0
C1092 C 0.23059 0.04919 0.01423 0.0
C1093 C 0.24297 0.05173 0.02555 0.0
C1094 C 0.2616 0.07784 0.03018 0.0
C1095 C 0.21451 0.02146 0.00855 0.0
C1096 C 0.19315 -0.00023 0.01516 0.0
C1097 C 0.2213 0.01594 0.99694 0.0
C1098 C 0.24508 0.03717 0.98988 0.0
C1099 C 0.2721 0.04998 0.99465 0.0
C1100 C 0.29439 0.07013 0.98798 0.0
C1101 C 0.28995 0.07743 0.97647 0.0
C1102 C 0.26322 0.06452 0.9716 0.0
C1103 C 0.24084 0.0444 0.97825 0.0
H1104 H 0.30723 0.09302 0.97132 0.0
H1105 H 0.10006 0.8911 0.03755 0.0
H1106 H 0.14563 0.24754 0.36181 0.0
H1107 H 0.15679 0.21352 0.35331 0.0
H1108 H 0.19659 0.26761 0.32299 0.0
H1109 H 0.18585 0.30174 0.33154 0.0
H1110 H 0.16476 0.20864 0.31716 0.0
H1111 H 0.2354 0.27387 0.34497 0.0
H1112 H 0.251 0.29686 0.36474 0.0
H1113 H 0.22182 0.21784 0.38181 0.0
H1114 H 0.20562 0.19436 0.36214 0.0
H1115 H 0.27415 0.19407 0.29447 0.0
H1116 H 0.24121 0.20659 0.30255 0.0
H1117 H 0.22808 0.1548 0.33365 0.0
H1118 H 0.26153 0.14247 0.32563 0.0
H1119 H 0.23778 0.20314 0.34064 0.0
H1120 H 0.17593 0.13842 0.31224 0.0
H1121 H 0.15982 0.1149 0.29262 0.0
H1122 H 0.17042 0.18999 0.27683 0.0
H1123 H 0.187 0.21411 0.29631 0.0
C1124 C 0.15613 0.25176 0.35319 0.0
C1125 C 0.16508 0.2772 0.34733 0.0
C1126 C 0.16251 0.23241 0.34837 0.0
C1127 C 0.17758 0.23819 0.33756 0.0
C1128 C 0.18484 0.26277 0.33131 0.0
C1129 C 0.17886 0.28227 0.33621 0.0
C1130 C 0.18886 0.22053 0.33349 0.0
C1131 C 0.1807 0.20731 0.32225 0.0
C1132 C 0.20903 0.21823 0.34034 0.0
C1133 C 0.21897 0.23235 0.35213 0.0
C1134 C 0.23208 0.26139 0.35296 0.0
C1135 C 0.24107 0.27451 0.36414 0.0
C1136 C 0.23732 0.25881 0.37453 0.0
C1137 C 0.22464 0.22997 0.37376 0.0
C1138 C 0.21555 0.21674 0.3626 0.0
C1139 C 0.26378 0.18482 0.30289 0.0
C1140 C 0.2704 0.16726 0.30941 0.0
C1141 C 0.24485 0.19194 0.3075 0.0
C1142 C 0.23182 0.18135 0.31865 0.0
C1143 C 0.23782 0.16317 0.32502 0.0
C1144 C 0.25696 0.15621 0.32045 0.0
C1145 C 0.21421 0.19154 0.32409 0.0
C1146 C 0.22129 0.20359 0.33561 0.0
C1147 C 0.19288 0.19251 0.31751 0.0
C1148 C 0.18287 0.17812 0.30575 0.0
C1149 C 0.17502 0.14998 0.30457 0.0
C1150 C 0.16577 0.13653 0.29347 0.0
C1151 C 0.16414 0.15095 0.28348 0.0
C1152 C 0.1717 0.17885 0.28458 0.0
C1153 C 0.18098 0.19241 0.29566 0.0
H1154 H 0.15697 0.1405 0.2749 0.0
H1155 H 0.24431 0.26901 0.38318 0.0
H1156 H 0.90261 0.15851 0.70002 0.0
H1157 H 0.94854 0.17206 0.69202 0.0
H1158 H 0.92333 0.18482 0.65692 0.0
H1159 H 0.87702 0.17048 0.66477 0.0
H1160 H 0.95848 0.16336 0.65537 0.0
H1161 H 0.95439 0.23787 0.67584 0.0
H1162 H 0.94491 0.25993 0.69306 0.0
H1163 H 0.00346 0.25017 0.71472 0.0
H1164 H 0.01296 0.22765 0.69765 0.0
H1165 H 0.07946 0.27298 0.6291 0.0
H1166 H 0.03434 0.24001 0.6375 0.0
H1167 H 0.07346 0.23777 0.67075 0.0
H1168 H 0.11889 0.27073 0.66235 0.0
H1169 H 0.0327 0.24873 0.67469 0.0
H1170 H 0.04205 0.18065 0.65251 0.0
H1171 H 0.05154 0.15993 0.63479 0.0
H1172 H 0.98376 0.15879 0.61579 0.0
H1173 H 0.97409 0.17988 0.63333 0.0
C1174 C 0.90655 0.16341 0.69052 0.0
C1175 C 0.88629 0.16374 0.68305 0.0
C1176 C 0.93288 0.17132 0.68598 0.0
C1177 C 0.93943 0.17985 0.67393 0.0
C1178 C 0.9187 0.1784 0.66626 0.0
C1179 C 0.89236 0.17047 0.67078 0.0
C1180 C 0.96846 0.19307 0.66965 0.0
C1181 C 0.97476 0.18206 0.65954 0.0
C1182 C 0.98973 0.21714 0.67528 0.0
C1183 C 0.98412 0.23076 0.68553 0.0
C1184 C 0.96506 0.24021 0.68431 0.0
C1185 C 0.95971 0.25283 0.69403 0.0
C1186 C 0.97351 0.25637 0.70499 0.0
C1187 C 0.99274 0.24736 0.70623 0.0
C1188 C 0.99811 0.23466 0.69654 0.0
C1189 C 0.07859 0.26493 0.63808 0.0
C1190 C 0.10277 0.27455 0.64507 0.0
C1191 C 0.05274 0.24605 0.64287 0.0
C1192 C 0.05054 0.23625 0.65472 0.0
C1193 C 0.07471 0.24506 0.66158 0.0
C1194 C 0.10061 0.26399 0.6568 0.0
C1195 C 0.02286 0.21923 0.66029 0.0
C1196 C 0.01669 0.22966 0.67063 0.0
C1197 C 0.00177 0.19478 0.65481 0.0
C1198 C 0.00747 0.18203 0.64423 0.0
C1199 C 0.02929 0.17618 0.64452 0.0
C1200 C 0.03468 0.16433 0.63451 0.0
C1201 C 0.01829 0.15809 0.62416 0.0
C1202 C 0.99644 0.16364 0.62381 0.0
C1203 C 0.99097 0.17551 0.6338 0.0
H1204 H 0.0225 0.14892 0.61642 0.0
H1205 H 0.96935 0.26615 0.71251 0.0
H1206 H 0.7559 0.89086 0.02438 0.0
H1207 H 0.78851 0.93607 0.01555 0.0
H1208 H 0.72132 0.93526 0.99579 0.0
H1209 H 0.68886 0.89057 0.00455 0.0
H1210 H 0.76726 0.95409 0.98197 0.0
H1211 H 0.74426 0.9691 0.02303 0.0
H1212 H 0.74332 0.96352 0.04514 0.0
H1213 H 0.8319 -0.0002 0.04558 0.0
H1214 H 0.83329 0.00527 0.02344 0.0
H1215 H 0.7826 0.08295 0.97151 0.0
H1216 H 0.77071 0.03696 0.97845 0.0
H1217 H 0.8518 0.06996 0.99449 0.0
H1218 H 0.86351 0.11672 0.98801 0.0
H1219 H 0.81237 0.03493 0.00954 0.0
H1220 H 0.83546 0.03042 0.96882 0.0
H1221 H 0.83587 0.0369 0.9468 0.0
H1222 H 0.74791 0.98127 0.94543 0.0
H1223 H 0.74687 0.97476 0.96746 0.0
C1224 C 0.74817 0.90032 0.01811 0.0
C1225 C 0.7198 0.88712 0.01516 0.0
C1226 C 0.76681 0.92606 0.01306 0.0
C1227 C 0.75729 0.93904 0.00506 0.0
C1228 C 0.72916 0.9255 0.00186 0.0
C1229 C 0.71062 0.89988 0.00686 0.0
C1230 C 0.77581 0.96743 0.00047 0.0
C1231 C 0.77725 0.97181 0.98797 0.0
C1232 C 0.78973 0.99042 0.00831 0.0
C1233 C 0.78884 0.98726 0.0216 0.0
C1234 C 0.7635 0.9757 0.02784 0.0
C1235 C 0.76289 0.97259 0.04037 0.0
C1236 C 0.78753 0.98122 0.04676 0.0
C1237 C 0.81283 0.99306 0.04063 0.0
C1238 C 0.81355 0.99617 0.02809 0.0
C1239 C 0.79789 0.08059 0.97662 0.0
C1240 C 0.82394 0.10358 0.97929 0.0
C1241 C 0.7912 0.05415 0.98041 0.0
C1242 C 0.81057 0.04992 0.98677 0.0
C1243 C 0.83666 0.07275 0.98948 0.0
C1244 C 0.84335 0.09939 0.98572 0.0
C1245 C 0.80257 0.02168 0.99104 0.0
C1246 C 0.8032 0.01729 0.00347 0.0
C1247 C 0.79057 0.99865 0.98313 0.0
C1248 C 0.79111 0.00214 0.96982 0.0
C1249 C 0.81618 0.01965 0.96383 0.0
C1250 C 0.81652 0.02333 0.95135 0.0
C1251 C 0.79193 0.00951 0.94472 0.0
C1252 C 0.76695 0.99194 0.95057 0.0
C1253 C 0.76649 0.98819 0.96306 0.0
H1254 H 0.79223 0.01242 0.93506 0.0
H1255 H 0.78701 0.97879 0.05646 0.0
H1256 H 0.7504 0.8444 0.29838 0.0
H1257 H 0.78343 0.83187 0.3064 0.0
H1258 H 0.74532 0.8185 0.3415 0.0
H1259 H 0.71366 0.83312 0.33381 0.0
H1260 H 0.79813 0.83711 0.34427 0.0
H1261 H 0.72546 0.76514 0.31977 0.0
H1262 H 0.69845 0.74604 0.30107 0.0
H1263 H 0.77259 0.76302 0.28211 0.0
H1264 H 0.80007 0.78252 0.30068 0.0
H1265 H 0.8014 0.72306 0.36963 0.0
H1266 H 0.79186 0.75748 0.36076 0.0
H1267 H 0.84266 0.76479 0.33002 0.0
H1268 H 0.85157 0.72951 0.33871 0.0
H1269 H 0.793 0.75604 0.32323 0.0
H1270 H 0.86317 0.8188 0.35016 0.0
H1271 H 0.88735 0.83494 0.36965 0.0
H1272 H 0.81536 0.83249 0.38503 0.0
H1273 H 0.79059 0.81596 0.36568 0.0
C1274 C 0.74955 0.8397 0.3079 0.0
C1275 C 0.72889 0.83925 0.31539 0.0
C1276 C 0.76831 0.8322 0.31244 0.0
C1277 C 0.76634 0.82343 0.32446 0.0
C1278 C 0.74709 0.82489 0.33215 0.0
C1279 C 0.72869 0.83288 0.32769 0.0
C1280 C 0.78226 0.81025 0.3288 0.0
C1281 C 0.79703 0.81938 0.33969 0.0
C1282 C 0.78137 0.78747 0.32268 0.0
C1283 C 0.76484 0.77557 0.31155 0.0
C1284 C 0.736 0.76494 0.31159 0.0
C1285 C 0.72062 0.75403 0.30102 0.0
C1286 C 0.73381 0.7534 0.2904 0.0
C1287 C 0.76241 0.76358 0.29033 0.0
C1288 C 0.7779 0.77456 0.30087 0.0
C1289 C 0.81069 0.73211 0.36101 0.0
C1290 C 0.82703 0.7234 0.35481 0.0
C1291 C 0.80552 0.75207 0.35602 0.0
C1292 C 0.8168 0.76396 0.34478 0.0
C1293 C 0.83389 0.75599 0.33874 0.0
C1294 C 0.83908 0.73596 0.34374 0.0
C1295 C 0.80828 0.78244 0.33888 0.0
C1296 C 0.7948 0.77423 0.32769 0.0
C1297 C 0.81002 0.80575 0.34483 0.0
C1298 C 0.82498 0.81602 0.35646 0.0
C1299 C 0.85243 0.82156 0.35771 0.0
C1300 C 0.86625 0.8308 0.36873 0.0
C1301 C 0.85289 0.83471 0.37857 0.0
C1302 C 0.8257 0.82946 0.3774 0.0
C1303 C 0.81177 0.82021 0.36639 0.0
H1304 H 0.86362 0.84185 0.3871 0.0
H1305 H 0.72187 0.74495 0.28222 0.0
H1306 H 0.8789 0.73031 0.66127 0.0
H1307 H 0.92633 0.76083 0.66844 0.0
H1308 H 0.95817 0.7565 0.63352 0.0
H1309 H 0.911 0.72575 0.62637 0.0
H1310 H 0.98094 0.74201 0.65194 0.0
H1311 H 0.96408 0.81609 0.64256 0.0
H1312 H 0.93878 0.84191 0.64298 0.0
H1313 H 0.94876 0.85059 0.68143 0.0
H1314 H 0.97378 0.82445 0.68127 0.0
H1315 H 0.12129 0.83004 0.66473 0.0
H1316 H 0.07638 0.81553 0.65531 0.0
H1317 H 0.04169 0.81572 0.69007 0.0
H1318 H 0.08645 0.82984 0.69961 0.0
H1319 H 0.02115 0.83473 0.67111 0.0
H1320 H 0.03393 0.7577 0.6808 0.0
H1321 H 0.05877 0.73141 0.68083 0.0
H1322 H 0.05513 0.72729 0.64214 0.0
H1323 H 0.03065 0.754 0.64187 0.0
C1324 C 0.89602 0.7362 0.65509 0.0
C1325 C 0.89125 0.72558 0.64328 0.0
C1326 C 0.92305 0.75378 0.65916 0.0
C1327 C 0.94571 0.76095 0.65149 0.0
C1328 C 0.94093 0.75126 0.63956 0.0
C1329 C 0.91396 0.73385 0.63547 0.0
C1330 C 0.97437 0.77603 0.65624 0.0
C1331 C 0.98991 0.76252 0.65591 0.0
C1332 C 0.98567 0.80239 0.66176 0.0
C1333 C 0.97057 0.81806 0.66191 0.0
C1334 C 0.96065 0.82327 0.65112 0.0
C1335 C 0.94641 0.83802 0.65131 0.0
C1336 C 0.9421 0.84782 0.66223 0.0
C1337 C 0.95208 0.84295 0.67298 0.0
C1338 C 0.96632 0.82819 0.67284 0.0
C1339 C 0.10418 0.82726 0.67036 0.0
C1340 C 0.10729 0.83067 0.68294 0.0
C1341 C 0.07861 0.81915 0.66496 0.0
C1342 C 0.05571 0.81424 0.67204 0.0
C1343 C 0.05918 0.81947 0.68447 0.0
C1344 C 0.08477 0.82755 0.6899 0.0
C1345 C 0.02764 0.80075 0.66667 0.0
C1346 C 0.0122 0.81438 0.66698 0.0
C1347 C 0.01622 0.77436 0.66118 0.0
C1348 C 0.03076 0.75813 0.66131 0.0
C1349 C 0.03864 0.7514 0.67229 0.0
C1350 C 0.05263 0.7364 0.67235 0.0
C1351 C 0.0586 0.72776 0.66149 0.0
C1352 C 0.05054 0.73405 0.65054 0.0
C1353 C 0.03661 0.74911 0.65043 0.0
H1354 H 0.06942 0.71613 0.66156 0.0
H1355 H 0.93108 0.85925 0.66236 0.0
H1356 H 0.7397 0.27059 0.99357 0.0
H1357 H 0.7002 0.27211 0.00212 0.0
H1358 H 0.64789 0.21899 0.9736 0.0
H1359 H 0.68774 0.21916 0.96443 0.0
H1360 H 0.63454 0.25616 0.97777 0.0
H1361 H 0.64954 0.19488 0.00305 0.0
H1362 H 0.6764 0.18097 0.01609 0.0
H1363 H 0.69136 0.24598 0.04104 0.0
H1364 H 0.66488 0.26051 0.02806 0.0
H1365 H 0.50406 0.20345 0.00779 0.0
H1366 H 0.54608 0.20663 0.99905 0.0
H1367 H 0.5967 0.27682 0.02185 0.0
H1368 H 0.55474 0.27402 0.03047 0.0
H1369 H 0.61125 0.23266 0.02097 0.0
H1370 H 0.59371 0.29199 0.99527 0.0
H1371 H 0.56491 0.30325 0.98216 0.0
H1372 H 0.55236 0.23791 0.95787 0.0
H1373 H 0.58075 0.22597 0.97094 0.0
C1374 C 0.71996 0.25963 0.98895 0.0
C1375 C 0.717 0.2446 0.97831 0.0
C1376 C 0.69723 0.26018 0.99398 0.0
C1377 C 0.67088 0.24515 0.98867 0.0
C1378 C 0.66795 0.23059 0.97792 0.0
C1379 C 0.69076 0.23042 0.97277 0.0
C1380 C 0.64631 0.24439 0.99432 0.0
C1381 C 0.62933 0.25069 0.98718 0.0
C1382 C 0.63967 0.23774 0.00667 0.0
C1383 C 0.65546 0.22895 0.01452 0.0
C1384 C 0.65872 0.20632 0.01128 0.0
C1385 C 0.67385 0.19831 0.01866 0.0
C1386 C 0.68564 0.21263 0.02937 0.0
C1387 C 0.68225 0.23494 0.03274 0.0
C1388 C 0.66716 0.24305 0.02537 0.0
C1389 C 0.52417 0.21944 0.01096 0.0
C1390 C 0.52628 0.23852 0.01977 0.0
C1391 C 0.54807 0.22131 0.00595 0.0
C1392 C 0.57437 0.24202 0.0098 0.0
C1393 C 0.57653 0.26074 0.01878 0.0
C1394 C 0.55264 0.25919 0.02364 0.0
C1395 C 0.59963 0.24419 0.00438 0.0
C1396 C 0.61664 0.23816 0.01157 0.0
C1397 C 0.60607 0.25067 0.99206 0.0
C1398 C 0.58911 0.2579 0.98415 0.0
C1399 C 0.58459 0.27985 0.98719 0.0
C1400 C 0.56839 0.28639 0.97975 0.0
C1401 C 0.55675 0.27126 0.9692 0.0
C1402 C 0.56136 0.24959 0.96605 0.0
C1403 C 0.57752 0.24294 0.97347 0.0
H1404 H 0.54422 0.27636 0.96345 0.0
H1405 H 0.69736 0.2064 0.03508 0.0
H1406 H 0.32221 0.51309 0.36118 0.0
H1407 H 0.36202 0.55304 0.35202 0.0
H1408 H 0.30804 0.581 0.33779 0.0
H1409 H 0.26798 0.54045 0.34646 0.0
H1410 H 0.34431 0.58571 0.32124 0.0
H1411 H 0.3488 0.61166 0.36265 0.0
H1412 H 0.34996 0.60638 0.38469 0.0
H1413 H 0.42529 0.6034 0.38143 0.0
H1414 H 0.42438 0.60828 0.35933 0.0
H1415 H 0.44972 0.72332 0.30717 0.0
H1416 H 0.40956 0.68303 0.31596 0.0
H1417 H 0.46221 0.6516 0.32815 0.0
H1418 H 0.50248 0.69168 0.31925 0.0
H1419 H 0.42652 0.64905 0.34573 0.0
H1420 H 0.4212 0.62358 0.30386 0.0
H1421 H 0.41947 0.63011 0.28193 0.0
H1422 H 0.34475 0.63382 0.28633 0.0
H1423 H 0.34625 0.6277 0.30831 0.0
C1424 C 0.31876 0.52758 0.35601 0.0
C1425 C 0.2919 0.52361 0.3546 0.0
C1426 C 0.34158 0.55058 0.35088 0.0
C1427 C 0.33805 0.57022 0.34436 0.0
C1428 C 0.31126 0.56618 0.34284 0.0
C1429 C 0.28841 0.54312 0.3479 0.0
C1430 C 0.36227 0.59486 0.33904 0.0
C1431 C 0.36213 0.59976 0.32663 0.0
C1432 C 0.38571 0.61294 0.34603 0.0
C1433 C 0.38636 0.61005 0.35932 0.0
C1434 C 0.36549 0.60965 0.36662 0.0
C1435 C 0.36613 0.60677 0.37913 0.0
C1436 C 0.38765 0.60448 0.38445 0.0
C1437 C 0.40862 0.60514 0.37729 0.0
C1438 C 0.40806 0.60798 0.36477 0.0
C1439 C 0.45273 0.70768 0.31159 0.0
C1440 C 0.4793 0.71067 0.31247 0.0
C1441 C 0.42976 0.68472 0.31664 0.0
C1442 C 0.43289 0.66423 0.32261 0.0
C1443 C 0.45938 0.66722 0.3236 0.0
C1444 C 0.48237 0.69018 0.31854 0.0
C1445 C 0.40856 0.63978 0.32794 0.0
C1446 C 0.40869 0.63495 0.34036 0.0
C1447 C 0.385 0.62193 0.32097 0.0
C1448 C 0.38399 0.62545 0.30775 0.0
C1449 C 0.40452 0.626 0.30016 0.0
C1450 C 0.40356 0.62959 0.28772 0.0
C1451 C 0.38205 0.63245 0.28275 0.0
C1452 C 0.36142 0.63164 0.2902 0.0
C1453 C 0.3623 0.62809 0.30265 0.0
H1454 H 0.38135 0.63523 0.27311 0.0
H1455 H 0.38811 0.60226 0.39414 0.0
H1456 H 0.76319 0.2784 0.6719 0.0
H1457 H 0.76279 0.31831 0.66305 0.0
H1458 H 0.77831 0.35711 0.69801 0.0
H1459 H 0.78003 0.31784 0.70694 0.0
H1460 H 0.73333 0.35643 0.6839 0.0
H1461 H 0.82969 0.38104 0.68042 0.0
H1462 H 0.86742 0.37248 0.67443 0.0
H1463 H 0.84161 0.36434 0.63743 0.0
H1464 H 0.80344 0.37245 0.64323 0.0
H1465 H 0.76149 0.48918 0.6653 0.0
H1466 H 0.76332 0.45057 0.67466 0.0
H1467 H 0.77151 0.42184 0.63957 0.0
H1468 H 0.77185 0.46158 0.6302 0.0
H1469 H 0.80436 0.41685 0.65403 0.0
H1470 H 0.70882 0.39084 0.65614 0.0
H1471 H 0.66828 0.39585 0.66092 0.0
H1472 H 0.68825 0.40228 0.69863 0.0
H1473 H 0.72916 0.39769 0.69406 0.0
C1474 C 0.76701 0.29557 0.67772 0.0
C1475 C 0.77185 0.29489 0.69015 0.0
C1476 C 0.76651 0.31825 0.67264 0.0
C1477 C 0.77058 0.34059 0.67989 0.0
C1478 C 0.77501 0.33994 0.6923 0.0
C1479 C 0.77587 0.31741 0.69738 0.0
C1480 C 0.77045 0.36476 0.67444 0.0
C1481 C 0.74904 0.36996 0.6775 0.0
C1482 C 0.79043 0.38165 0.66579 0.0
C1483 C 0.81357 0.37711 0.66228 0.0
C1484 C 0.83193 0.37721 0.67102 0.0
C1485 C 0.85342 0.37248 0.66766 0.0
C1486 C 0.85687 0.3678 0.65556 0.0
C1487 C 0.83889 0.36794 0.6468 0.0
C1488 C 0.81735 0.37263 0.65012 0.0
C1489 C 0.76413 0.47495 0.65956 0.0
C1490 C 0.76645 0.47858 0.64696 0.0
C1491 C 0.76473 0.45256 0.66493 0.0
C1492 C 0.76701 0.43292 0.65782 0.0
C1493 C 0.76957 0.4366 0.64526 0.0
C1494 C 0.76942 0.45922 0.63989 0.0
C1495 C 0.76716 0.40879 0.66346 0.0
C1496 C 0.78859 0.40349 0.66044 0.0
C1497 C 0.7468 0.39143 0.67196 0.0
C1498 C 0.72223 0.39421 0.67475 0.0
C1499 C 0.7047 0.39355 0.66545 0.0
C1500 C 0.68163 0.39628 0.66812 0.0
C1501 C 0.67574 0.39946 0.68007 0.0
C1502 C 0.69287 0.39986 0.68938 0.0
C1503 C 0.71599 0.39717 0.68675 0.0
H1504 H 0.65787 0.40156 0.68212 0.0
H1505 H 0.87351 0.36413 0.65298 0.0
H1506 H 0.30787 0.76441 0.96178 0.0
H1507 H 0.34684 0.76244 0.97085 0.0
H1508 H 0.31786 0.76737 0.00633 0.0
H1509 H 0.27829 0.76849 0.99739 0.0
H1510 H 0.37472 0.80321 0.00309 0.0
H1511 H 0.30731 0.70719 0.99698 0.0
H1512 H 0.27406 0.66641 0.98524 0.0
H1513 H 0.33947 0.67655 0.96152 0.0
H1514 H 0.37307 0.71767 0.97302 0.0
H1515 H 0.46017 0.76859 0.03728 0.0
H1516 H 0.42023 0.76893 0.02841 0.0
H1517 H 0.44333 0.75408 0.99322 0.0
H1518 H 0.48257 0.75229 0.00212 0.0
H1519 H 0.38915 0.72323 0.99629 0.0
H1520 H 0.45659 0.8191 0.00195 0.0
H1521 H 0.4903 0.86033 0.01333 0.0
H1522 H 0.42572 0.8514 0.03729 0.0
H1523 H 0.39168 0.80986 0.02615 0.0
C1524 C 0.30953 0.76474 0.97152 0.0
C1525 C 0.28981 0.76649 0.97885 0.0
C1526 C 0.33191 0.76374 0.97668 0.0
C1527 C 0.33508 0.76457 0.98925 0.0
C1528 C 0.31577 0.76678 0.9966 0.0
C1529 C 0.29326 0.76756 0.99146 0.0
C1530 C 0.3586 0.76318 0.99474 0.0
C1531 C 0.37772 0.78559 0.00174 0.0
C1532 C 0.36279 0.74046 0.99271 0.0
C1533 C 0.34265 0.71569 0.98579 0.0
C1534 C 0.31456 0.70088 0.9892 0.0
C1535 C 0.29566 0.67767 0.98259 0.0
C1536 C 0.30463 0.66894 0.97262 0.0
C1537 C 0.33254 0.68336 0.96924 0.0
C1538 C 0.35153 0.70661 0.9758 0.0
C1539 C 0.45659 0.76503 0.02767 0.0
C1540 C 0.47466 0.76047 0.02041 0.0
C1541 C 0.43391 0.76556 0.02259 0.0
C1542 C 0.42903 0.76197 0.01012 0.0
C1543 C 0.44678 0.75705 0.00286 0.0
C1544 C 0.46937 0.75632 0.00795 0.0
C1545 C 0.4054 0.76332 0.00465 0.0
C1546 C 0.38622 0.7409 0.99764 0.0
C1547 C 0.40125 0.78613 0.00661 0.0
C1548 C 0.42164 0.81122 0.01328 0.0
C1549 C 0.44961 0.82581 0.0097 0.0
C1550 C 0.46878 0.84926 0.0161 0.0
C1551 C 0.46017 0.85844 0.02605 0.0
C1552 C 0.43236 0.84424 0.02959 0.0
C1553 C 0.41312 0.82076 0.02323 0.0
H1554 H 0.47504 0.8766 0.03099 0.0
H1555 H 0.28996 0.65096 0.96752 0.0
H1556 H 0.49725 0.30913 0.31455 0.0
H1557 H 0.53671 0.34897 0.32413 0.0
H1558 H 0.58615 0.30972 0.31966 0.0
H1559 H 0.54672 0.26977 0.31011 0.0
H1560 H 0.58985 0.33174 0.3428 0.0
H1561 H 0.59744 0.36005 0.30143 0.0
H1562 H 0.58083 0.3688 0.28221 0.0
H1563 H 0.56446 0.42791 0.29973 0.0
H1564 H 0.5806 0.4192 0.3191 0.0
H1565 H 0.72145 0.44792 0.35602 0.0
H1566 H 0.68211 0.4077 0.34672 0.0
H1567 H 0.63595 0.45105 0.34647 0.0
H1568 H 0.67553 0.49158 0.35557 0.0
H1569 H 0.63039 0.42643 0.32567 0.0
H1570 H 0.62248 0.39835 0.36708 0.0
H1571 H 0.63854 0.38946 0.38642 0.0
H1572 H 0.65468 0.32989 0.36919 0.0
H1573 H 0.63906 0.3387 0.34971 0.0
C1574 C 0.51651 0.30898 0.31566 0.0
C1575 C 0.51898 0.28642 0.31157 0.0
C1576 C 0.53904 0.33177 0.32106 0.0
C1577 C 0.56435 0.3323 0.32253 0.0
C1578 C 0.56678 0.30968 0.31858 0.0
C1579 C 0.54435 0.28701 0.31306 0.0
C1580 C 0.58825 0.35645 0.32823 0.0
C1581 C 0.59899 0.35241 0.339 0.0
C1582 C 0.59964 0.38345 0.32338 0.0
C1583 C 0.58995 0.38875 0.31174 0.0
C1584 C 0.59006 0.37472 0.30121 0.0
C1585 C 0.58078 0.37971 0.29028 0.0
C1586 C 0.57152 0.39884 0.28975 0.0
C1587 C 0.57159 0.41307 0.30015 0.0
C1588 C 0.58082 0.40813 0.3111 0.0
C1589 C 0.70279 0.44875 0.3541 0.0
C1590 C 0.70148 0.47282 0.35656 0.0
C1591 C 0.68032 0.42575 0.34879 0.0
C1592 C 0.65591 0.42619 0.34604 0.0
C1593 C 0.65457 0.45023 0.34851 0.0
C1594 C 0.67716 0.47335 0.3537 0.0
C1595 C 0.63203 0.40186 0.34033 0.0
C1596 C 0.62128 0.40581 0.32953 0.0
C1597 C 0.62054 0.37479 0.34519 0.0
C1598 C 0.62984 0.36938 0.35691 0.0
C1599 C 0.62965 0.3835 0.3674 0.0
C1600 C 0.63864 0.37845 0.37839 0.0
C1601 C 0.64769 0.35917 0.37903 0.0
C1602 C 0.6477 0.34484 0.36868 0.0
C1603 C 0.63875 0.34984 0.35766 0.0
H1604 H 0.65465 0.35529 0.38755 0.0
H1605 H 0.56435 0.40269 0.28128 0.0
H1606 H 0.28318 0.54785 0.64931 0.0
H1607 H 0.28406 0.58815 0.65873 0.0
H1608 H 0.19535 0.54929 0.65458 0.0
H1609 H 0.19431 0.50885 0.64524 0.0
H1610 H 0.22611 0.606 0.64677 0.0
H1611 H 0.21795 0.54887 0.68099 0.0
H1612 H 0.23171 0.5217 0.69389 0.0
H1613 H 0.31109 0.59409 0.70003 0.0
H1614 H 0.29794 0.62162 0.68701 0.0
H1615 H 0.19459 0.68898 0.68409 0.0
H1616 H 0.19654 0.64997 0.67506 0.0
H1617 H 0.28331 0.68808 0.68419 0.0
H1618 H 0.28136 0.72696 0.6935 0.0
H1619 H 0.25588 0.63298 0.6892 0.0
H1620 H 0.26523 0.69072 0.65582 0.0
H1621 H 0.25355 0.71897 0.64257 0.0
H1622 H 0.17504 0.64735 0.63426 0.0
H1623 H 0.18607 0.61872 0.64762 0.0
C1624 C 0.26391 0.54799 0.65039 0.0
C1625 C 0.23867 0.5253 0.64658 0.0
C1626 C 0.26442 0.5709 0.65581 0.0
C1627 C 0.23975 0.57157 0.65737 0.0
C1628 C 0.21457 0.54908 0.65345 0.0
C1629 C 0.21399 0.526 0.6482 0.0
C1630 C 0.2402 0.59582 0.66304 0.0
C1631 C 0.23227 0.61174 0.65609 0.0
C1632 C 0.24915 0.60372 0.67506 0.0
C1633 C 0.25708 0.58722 0.68291 0.0
C1634 C 0.23845 0.55894 0.68499 0.0
C1635 C 0.24611 0.54349 0.69235 0.0
C1636 C 0.27229 0.55614 0.69775 0.0
C1637 C 0.29083 0.5843 0.69583 0.0
C1638 C 0.28328 0.59984 0.68846 0.0
C1639 C 0.21402 0.68893 0.68429 0.0
C1640 C 0.23784 0.71106 0.68949 0.0
C1641 C 0.21517 0.66675 0.67903 0.0
C1642 C 0.24015 0.6663 0.67883 0.0
C1643 C 0.26386 0.6881 0.68421 0.0
C1644 C 0.26275 0.71036 0.68944 0.0
C1645 C 0.24143 0.64304 0.67298 0.0
C1646 C 0.24976 0.62733 0.67987 0.0
C1647 C 0.23314 0.6355 0.66085 0.0
C1648 C 0.22636 0.65263 0.65282 0.0
C1649 C 0.24536 0.68104 0.65126 0.0
C1650 C 0.23888 0.69711 0.64371 0.0
C1651 C 0.21354 0.68498 0.63761 0.0
C1652 C 0.19465 0.65673 0.63902 0.0
C1653 C 0.20101 0.64056 0.64657 0.0
H1654 H 0.20857 0.69746 0.63176 0.0
H1655 H 0.27818 0.54415 0.70345 0.0
H1656 H 0.43629 0.2198 0.11536 0.0
H1657 H 0.4352 0.21124 0.13704 0.0
H1658 H 0.35031 0.19311 0.13858 0.0
H1659 H 0.35151 0.2025 0.11696 0.0
H1660 H 0.38067 0.22611 0.15704 0.0
H1661 H 0.36544 0.14119 0.13887 0.0
H1662 H 0.37617 0.11274 0.12528 0.0
H1663 H 0.4538 0.14052 0.14345 0.0
H1664 H 0.4437 0.16946 0.15704 0.0
H1665 H 0.3479 0.16551 0.21505 0.0
H1666 H 0.34843 0.17285 0.19327 0.0
H1667 H 0.43176 0.18646 0.19131 0.0
H1668 H 0.4311 0.17858 0.21307 0.0
H1669 H 0.40221 0.15571 0.17297 0.0
H1670 H 0.41825 0.24088 0.19097 0.0
H1671 H 0.40843 0.27009 0.2045 0.0
H1672 H 0.33057 0.24297 0.18664 0.0
H1673 H 0.33976 0.21329 0.17311 0.0
C1674 C 0.41747 0.21427 0.12034 0.0
C1675 C 0.39395 0.21176 0.11444 0.0
C1676 C 0.4168 0.20912 0.1327 0.0
C1677 C 0.39256 0.2012 0.13938 0.0
C1678 C 0.36918 0.19908 0.13357 0.0
C1679 C 0.36983 0.20423 0.12121 0.0
C1680 C 0.39158 0.1952 0.15246 0.0
C1681 C 0.38501 0.21046 0.16053 0.0
C1682 C 0.39793 0.17527 0.157 0.0
C1683 C 0.40393 0.15769 0.1489 0.0
C1684 C 0.38489 0.14139 0.13991 0.0
C1685 C 0.39084 0.12515 0.13222 0.0
C1686 C 0.41568 0.12488 0.13348 0.0
C1687 C 0.43458 0.14078 0.14247 0.0
C1688 C 0.42874 0.15708 0.15018 0.0
C1689 C 0.36633 0.1701 0.20996 0.0
C1690 C 0.38952 0.17163 0.21574 0.0
C1691 C 0.36663 0.17434 0.19753 0.0
C1692 C 0.39032 0.18069 0.19069 0.0
C1693 C 0.41328 0.18162 0.19641 0.0
C1694 C 0.41287 0.17708 0.20883 0.0
C1695 C 0.39126 0.18662 0.17759 0.0
C1696 C 0.39785 0.17136 0.16951 0.0
C1697 C 0.38506 0.20667 0.17303 0.0
C1698 C 0.37958 0.22467 0.1811 0.0
C1699 C 0.39895 0.241 0.18998 0.0
C1700 C 0.39351 0.25766 0.19764 0.0
C1701 C 0.36886 0.25834 0.19645 0.0
C1702 C 0.34964 0.24241 0.18756 0.0
C1703 C 0.35496 0.22568 0.17989 0.0
H1704 H 0.36469 0.27124 0.20239 0.0
H1705 H 0.42025 0.1123 0.12751 0.0
H1706 H 0.22381 0.40336 0.44695 0.0
H1707 H 0.23151 0.40409 0.46868 0.0
H1708 H 0.144 0.37065 0.47498 0.0
H1709 H 0.13619 0.37008 0.45321 0.0
H1710 H 0.1736 0.41166 0.49026 0.0
H1711 H 0.17441 0.33003 0.4772 0.0
H1712 H 0.18916 0.30283 0.46486 0.0
H1713 H 0.2727 0.35267 0.47765 0.0
H1714 H 0.25853 0.38044 0.48993 0.0
H1715 H 0.16923 0.36874 0.55083 0.0
H1716 H 0.1629 0.36838 0.52903 0.0
H1717 H 0.25154 0.41115 0.52397 0.0
H1718 H 0.25821 0.41244 0.54584 0.0
H1719 H 0.22217 0.3659 0.50818 0.0
H1720 H 0.2206 0.44712 0.52144 0.0
H1721 H 0.2051 0.47338 0.53399 0.0
H1722 H 0.12186 0.42293 0.52097 0.0
H1723 H 0.13679 0.39607 0.50847 0.0
C1724 C 0.20616 0.39592 0.45296 0.0
C1725 C 0.17935 0.38648 0.44837 0.0
C1726 C 0.2106 0.39636 0.46537 0.0
C1727 C 0.18827 0.38705 0.47345 0.0
C1728 C 0.16153 0.37791 0.46891 0.0
C1729 C 0.1571 0.37764 0.45648 0.0
C1730 C 0.19289 0.38713 0.48664 0.0
C1731 C 0.18388 0.40132 0.49418 0.0
C1732 C 0.20688 0.37419 0.49175 0.0
C1733 C 0.21546 0.35749 0.48439 0.0
C1734 C 0.19597 0.33533 0.4773 0.0
C1735 C 0.20422 0.31979 0.47033 0.0
C1736 C 0.23186 0.32607 0.47044 0.0
C1737 C 0.2513 0.34786 0.47755 0.0
C1738 C 0.24317 0.36349 0.48453 0.0
C1739 C 0.18744 0.37838 0.54512 0.0
C1740 C 0.21426 0.39084 0.55013 0.0
C1741 C 0.18375 0.378 0.53265 0.0
C1742 C 0.20676 0.38995 0.52492 0.0
C1743 C 0.23353 0.40179 0.52981 0.0
C1744 C 0.23727 0.40239 0.54231 0.0
C1745 C 0.20277 0.39028 0.51174 0.0
C1746 C 0.21191 0.37622 0.50422 0.0
C1747 C 0.18878 0.4032 0.50666 0.0
C1748 C 0.17976 0.41941 0.51411 0.0
C1749 C 0.19894 0.44147 0.52133 0.0
C1750 C 0.19027 0.45649 0.52842 0.0
C1751 C 0.1625 0.44978 0.5283 0.0
C1752 C 0.14336 0.42808 0.52107 0.0
C1753 C 0.15191 0.41296 0.51397 0.0
H1754 H 0.15583 0.46144 0.5338 0.0
H1755 H 0.2382 0.314 0.46504 0.0
H1756 H 0.85211 0.25258 0.87925 0.0
H1757 H 0.84364 0.24363 0.85762 0.0
H1758 H 0.77975 0.15956 0.86519 0.0
H1759 H 0.78874 0.16827 0.88683 0.0
H1760 H 0.80984 0.15993 0.84698 0.0
H1761 H 0.76456 0.21126 0.85719 0.0
H1762 H 0.76106 0.25025 0.86578 0.0
H1763 H 0.8242 0.3066 0.84148 0.0
H1764 H 0.82835 0.268 0.83285 0.0
H1765 H 0.752 0.13317 0.78779 0.0
H1766 H 0.75846 0.1399 0.80961 0.0
H1767 H 0.82516 0.22357 0.80389 0.0
H1768 H 0.81804 0.21746 0.78215 0.0
H1769 H 0.79167 0.22206 0.82128 0.0
H1770 H 0.83734 0.17027 0.81144 0.0
H1771 H 0.84033 0.13094 0.80292 0.0
H1772 H 0.77529 0.07489 0.82658 0.0
H1773 H 0.77166 0.11386 0.83513 0.0
C1774 C 0.83622 0.23224 0.87627 0.0
C1775 C 0.82098 0.21115 0.88468 0.0
C1776 C 0.83133 0.22715 0.86393 0.0
C1777 C 0.8107 0.20105 0.85978 0.0
C1778 C 0.79573 0.17985 0.86818 0.0
C1779 C 0.80088 0.18483 0.88052 0.0
C1780 C 0.80481 0.19586 0.84668 0.0
C1781 C 0.80546 0.17329 0.8414 0.0
C1782 C 0.79956 0.21355 0.83934 0.0
C1783 C 0.79692 0.23676 0.84444 0.0
C1784 C 0.77782 0.23199 0.85373 0.0
C1785 C 0.77571 0.25402 0.8586 0.0
C1786 C 0.79244 0.28089 0.8542 0.0
C1787 C 0.81127 0.28578 0.84489 0.0
C1788 C 0.81349 0.26383 0.84 0.0
C1789 C 0.76789 0.15308 0.79118 0.0
C1790 C 0.7846 0.17474 0.78321 0.0
C1791 C 0.77174 0.1568 0.80365 0.0
C1792 C 0.79254 0.18213 0.80837 0.0
C1793 C 0.80907 0.20381 0.80044 0.0
C1794 C 0.80515 0.20018 0.788 0.0
C1795 C 0.79695 0.1863 0.82158 0.0
C1796 C 0.79596 0.20867 0.82688 0.0
C1797 C 0.80177 0.16836 0.82893 0.0
C1798 C 0.80405 0.14495 0.82384 0.0
C1799 C 0.82354 0.14953 0.81476 0.0
C1800 C 0.82537 0.12731 0.80994 0.0
C1801 C 0.80796 0.10042 0.81418 0.0
C1802 C 0.78873 0.09572 0.82329 0.0
C1803 C 0.7868 0.11787 0.82813 0.0
H1804 H 0.80941 0.08324 0.81044 0.0
H1805 H 0.79078 0.29792 0.85798 0.0
H1806 H 0.57775 0.8018 0.115 0.0
H1807 H 0.57836 0.80915 0.13676 0.0
H1808 H 0.6405 0.78504 0.14099 0.0
H1809 H 0.63964 0.77725 0.11922 0.0
H1810 H 0.60246 0.76203 0.15799 0.0
H1811 H 0.65722 0.85369 0.14201 0.0
H1812 H 0.66756 0.89334 0.12881 0.0
H1813 H 0.5991 0.8981 0.14401 0.0
H1814 H 0.58811 0.8582 0.15719 0.0
H1815 H 0.64459 0.81539 0.21728 0.0
H1816 H 0.64426 0.80818 0.19552 0.0
H1817 H 0.57621 0.82381 0.19155 0.0
H1818 H 0.57593 0.83046 0.21334 0.0
H1819 H 0.61769 0.85138 0.17454 0.0
H1820 H 0.56343 0.75919 0.19057 0.0
H1821 H 0.5542 0.71997 0.20385 0.0
H1822 H 0.62363 0.71708 0.1886 0.0
H1823 H 0.63352 0.75657 0.17534 0.0
C1824 C 0.59167 0.79824 0.12057 0.0
C1825 C 0.60878 0.78912 0.11542 0.0
C1826 C 0.59202 0.80246 0.13299 0.0
C1827 C 0.6098 0.79806 0.14049 0.0
C1828 C 0.62664 0.78859 0.13538 0.0
C1829 C 0.62612 0.78413 0.12296 0.0
C1830 C 0.61071 0.80319 0.15366 0.0
C1831 C 0.6062 0.78171 0.16161 0.0
C1832 C 0.61504 0.82869 0.15838 0.0
C1833 C 0.62169 0.85279 0.15051 0.0
C1834 C 0.64425 0.86306 0.14248 0.0
C1835 C 0.65024 0.8856 0.13501 0.0
C1836 C 0.63395 0.89819 0.13555 0.0
C1837 C 0.61168 0.8883 0.14359 0.0
C1838 C 0.60557 0.86574 0.15107 0.0
C1839 C 0.62937 0.81705 0.21181 0.0
C1840 C 0.61018 0.82336 0.21708 0.0
C1841 C 0.62929 0.81302 0.19937 0.0
C1842 C 0.61006 0.81523 0.19196 0.0
C1843 C 0.59125 0.82207 0.19713 0.0
C1844 C 0.59122 0.82597 0.20957 0.0
C1845 C 0.60945 0.81025 0.17882 0.0
C1846 C 0.61402 0.83174 0.1709 0.0
C1847 C 0.60537 0.78485 0.17413 0.0
C1848 C 0.59938 0.76102 0.18205 0.0
C1849 C 0.57687 0.75034 0.19012 0.0
C1850 C 0.57149 0.72804 0.19763 0.0
C1851 C 0.58836 0.71609 0.19709 0.0
C1852 C 0.6106 0.72638 0.18902 0.0
C1853 C 0.61609 0.74871 0.1815 0.0
H1854 H 0.58417 0.69882 0.20291 0.0
H1855 H 0.63863 0.91563 0.12976 0.0
H1856 H 0.75136 0.61181 0.54524 0.0
H1857 H 0.75949 0.61214 0.52356 0.0
H1858 H 0.82976 0.60133 0.53042 0.0
H1859 H 0.82136 0.60015 0.55211 0.0
H1860 H 0.84043 0.64259 0.51335 0.0
H1861 H 0.77193 0.54762 0.5214 0.0
H1862 H 0.72761 0.50998 0.5293 0.0
H1863 H 0.68279 0.53555 0.50605 0.0
H1864 H 0.72688 0.57362 0.49813 0.0
H1865 H 0.85954 0.60793 0.45384 0.0
H1866 H 0.85224 0.60791 0.47559 0.0
H1867 H 0.77615 0.60866 0.46918 0.0
H1868 H 0.78266 0.60742 0.44746 0.0
H1869 H 0.76871 0.57262 0.48621 0.0
H1870 H 0.83591 0.66736 0.47812 0.0
H1871 H 0.87962 0.7061 0.47031 0.0
H1872 H 0.9262 0.68265 0.49354 0.0
H1873 H 0.88273 0.64351 0.50137 0.0
C1874 C 0.76835 0.60917 0.54216 0.0
C1875 C 0.78564 0.60585 0.55044 0.0
C1876 C 0.77305 0.60952 0.52977 0.0
C1877 C 0.79513 0.60661 0.52542 0.0
C1878 C 0.81267 0.6037 0.53362 0.0
C1879 C 0.80789 0.60315 0.54601 0.0
C1880 C 0.7998 0.60641 0.51229 0.0
C1881 C 0.82494 0.6271 0.50741 0.0
C1882 C 0.77925 0.5866 0.50456 0.0
C1883 C 0.75271 0.56364 0.50926 0.0
C1884 C 0.75263 0.54536 0.51804 0.0
C1885 C 0.72755 0.52393 0.52251 0.0
C1886 C 0.7024 0.52042 0.5182 0.0
C1887 C 0.70229 0.53831 0.50939 0.0
C1888 C 0.72732 0.55981 0.5049 0.0
C1889 C 0.84114 0.60786 0.45706 0.0
C1890 C 0.82174 0.60778 0.4489 0.0
C1891 C 0.83715 0.60816 0.46949 0.0
C1892 C 0.81383 0.60865 0.47401 0.0
C1893 C 0.79436 0.60841 0.4659 0.0
C1894 C 0.79826 0.60798 0.45348 0.0
C1895 C 0.80938 0.60888 0.48719 0.0
C1896 C 0.78426 0.58816 0.49211 0.0
C1897 C 0.82988 0.62883 0.49494 0.0
C1898 C 0.85606 0.65232 0.49024 0.0
C1899 C 0.85547 0.67032 0.48149 0.0
C1900 C 0.88021 0.69237 0.47707 0.0
C1901 C 0.90567 0.69678 0.4814 0.0
C1902 C 0.90645 0.67918 0.49018 0.0
C1903 C 0.88177 0.65707 0.49462 0.0
H1904 H 0.9248 0.71388 0.47798 0.0
H1905 H 0.683 0.50381 0.52167 0.0
H1906 H 0.14014 0.75935 0.87968 0.0
H1907 H 0.14756 0.76614 0.85793 0.0
H1908 H 0.23075 0.83331 0.8641 0.0
H1909 H 0.22381 0.82627 0.88587 0.0
H1910 H 0.20287 0.84615 0.84701 0.0
H1911 H 0.22184 0.77287 0.8553 0.0
H1912 H 0.21248 0.72783 0.86347 0.0
H1913 H 0.14039 0.68585 0.84092 0.0
H1914 H 0.14909 0.73071 0.83274 0.0
H1915 H 0.25434 0.85591 0.7873 0.0
H1916 H 0.24745 0.8495 0.80915 0.0
H1917 H 0.16375 0.78289 0.80335 0.0
H1918 H 0.17059 0.78905 0.7815 0.0
H1919 H 0.19227 0.76998 0.82026 0.0
H1920 H 0.17341 0.84348 0.81201 0.0
H1921 H 0.18306 0.88859 0.80381 0.0
H1922 H 0.25535 0.93024 0.82627 0.0
H1923 H 0.24635 0.8853 0.83448 0.0
C1924 C 0.16013 0.77537 0.87643 0.0
C1925 C 0.1814 0.7922 0.88455 0.0
C1926 C 0.16429 0.7793 0.86399 0.0
C1927 C 0.18977 0.8001 0.85942 0.0
C1928 C 0.21091 0.81719 0.86746 0.0
C1929 C 0.20683 0.81319 0.8799 0.0
C1930 C 0.19436 0.80396 0.84623 0.0
C1931 C 0.20093 0.82963 0.84117 0.0
C1932 C 0.19125 0.7822 0.83861 0.0
C1933 C 0.18596 0.75518 0.8435 0.0
C1934 C 0.20385 0.75406 0.85216 0.0
C1935 C 0.19869 0.72856 0.85678 0.0
C1936 C 0.17581 0.704 0.85274 0.0
C1937 C 0.15808 0.70489 0.84406 0.0
C1938 C 0.16313 0.73035 0.83942 0.0
C1939 C 0.23453 0.83983 0.79069 0.0
C1940 C 0.21297 0.82303 0.78271 0.0
C1941 C 0.23057 0.8363 0.80316 0.0
C1942 C 0.20503 0.81585 0.80784 0.0
C1943 C 0.18359 0.79883 0.7999 0.0
C1944 C 0.18745 0.8025 0.78744 0.0
C1945 C 0.20071 0.81213 0.82105 0.0
C1946 C 0.19421 0.78649 0.8261 0.0
C1947 C 0.20392 0.83393 0.82866 0.0
C1948 C 0.20937 0.86099 0.82376 0.0
C1949 C 0.19151 0.86223 0.81512 0.0
C1950 C 0.19683 0.88778 0.81049 0.0
C1951 C 0.21985 0.91226 0.81449 0.0
C1952 C 0.23755 0.91125 0.82316 0.0
C1953 C 0.23234 0.88575 0.82781 0.0
H1954 H 0.22393 0.93202 0.8109 0.0
H1955 H 0.17186 0.68427 0.85633 0.0
H1956 H 0.53319 0.61034 0.05508 0.0
H1957 H 0.50548 0.56017 0.05329 0.0
H1958 H 0.56299 0.56075 0.02705 0.0
H1959 H 0.59123 0.61133 0.02888 0.0
H1960 H 0.50884 0.52878 0.01991 0.0
H1961 H 0.56269 0.53798 0.05505 0.0
H1962 H 0.58292 0.55568 0.07512 0.0
H1963 H 0.50133 0.52012 0.09041 0.0
H1964 H 0.48059 0.50253 0.07039 0.0
H1965 H 0.45889 0.38344 0.02224 0.0
H1966 H 0.48524 0.43391 0.02217 0.0
H1967 H 0.42998 0.43601 0.04889 0.0
H1968 H 0.40318 0.38528 0.04893 0.0
H1969 H 0.48373 0.4667 0.05548 0.0
H1970 H 0.42987 0.45727 0.02022 0.0
H1971 H 0.40986 0.43963 0.00012 0.0
H1972 H 0.49161 0.47532 0.98498 0.0
H1973 H 0.51214 0.49287 0.00504 0.0
C1974 C 0.54036 0.59982 0.04912 0.0
C1975 C 0.56465 0.6148 0.04224 0.0
C1976 C 0.52437 0.57113 0.04806 0.0
C1977 C 0.53235 0.55675 0.04014 0.0
C1978 C 0.55654 0.57153 0.03322 0.0
C1979 C 0.57262 0.60036 0.03428 0.0
C1980 C 0.51492 0.52632 0.03897 0.0
C1981 C 0.50367 0.5151 0.02764 0.0
C1982 C 0.50768 0.50868 0.04912 0.0
C1983 C 0.52009 0.51914 0.06119 0.0
C1984 C 0.54906 0.53412 0.06267 0.0
C1985 C 0.56062 0.5441 0.07405 0.0
C1986 C 0.54342 0.53908 0.08403 0.0
C1987 C 0.51462 0.52401 0.08267 0.0
C1988 C 0.50295 0.514 0.07131 0.0
C1989 C 0.4518 0.39458 0.02785 0.0
C1990 C 0.42889 0.38033 0.03559 0.0
C1991 C 0.46698 0.42347 0.02783 0.0
C1992 C 0.4595 0.43868 0.03549 0.0
C1993 C 0.43611 0.42459 0.04293 0.0
C1994 C 0.42087 0.39566 0.04296 0.0
C1995 C 0.47741 0.4691 0.03644 0.0
C1996 C 0.48885 0.48033 0.04774 0.0
C1997 C 0.48483 0.48669 0.02624 0.0
C1998 C 0.47254 0.47615 0.01417 0.0
C1999 C 0.44359 0.46115 0.01263 0.0
C2000 C 0.43215 0.45121 0.00124 0.0
C2001 C 0.44945 0.45629 0.99129 0.0
C2002 C 0.47823 0.47138 0.9927 0.0
C2003 C 0.48978 0.48135 0.00408 0.0
H2004 H 0.44055 0.44858 0.98247 0.0
H2005 H 0.55241 0.54682 0.09283 0.0
H2006 H 0.97848 0.59209 0.37011 0.0
H2007 H 0.00295 0.56562 0.36924 0.0
H2008 H 0.92549 0.49076 0.36229 0.0
H2009 H 0.90106 0.51711 0.36298 0.0
H2010 H 0.95912 0.48802 0.38176 0.0
H2011 H 0.9655 0.51538 0.34002 0.0
H2012 H 0.97726 0.549 0.32346 0.0
H2013 H 0.06269 0.591 0.33439 0.0
H2014 H 0.05136 0.55786 0.35114 0.0
H2015 H 0.01474 0.39984 0.37115 0.0
H2016 H 0.98823 0.42405 0.36942 0.0
H2017 H 0.06468 0.50198 0.36568 0.0
H2018 H 0.0909 0.47762 0.3668 0.0
H2019 H 0.02984 0.5023 0.35103 0.0
H2020 H 0.02573 0.47917 0.39295 0.0
H2021 H 0.01622 0.44852 0.41052 0.0
H2022 H 0.93003 0.40259 0.40086 0.0
H2023 H 0.93911 0.43276 0.38314 0.0
C2024 C 0.96681 0.57004 0.3683 0.0
C2025 C 0.938 0.55662 0.36651 0.0
C2026 C 0.98074 0.555 0.36778 0.0
C2027 C 0.96595 0.52631 0.36567 0.0
C2028 C 0.9372 0.51291 0.36389 0.0
C2029 C 0.92336 0.52798 0.36421 0.0
C2030 C 0.98033 0.51008 0.36569 0.0
C2031 C 0.97433 0.4908 0.37497 0.0
C2032 C 0.00067 0.51442 0.357 0.0
C2033 C 0.00752 0.5343 0.34691 0.0
C2034 C 0.98675 0.53194 0.33897 0.0
C2035 C 0.99335 0.55088 0.32953 0.0
C2036 C 0.02069 0.57217 0.32789 0.0
C2037 C 0.04151 0.57452 0.33568 0.0
C2038 C 0.03501 0.55565 0.34514 0.0
C2039 C 0.02572 0.42211 0.3699 0.0
C2040 C 0.05475 0.43693 0.36907 0.0
C2041 C 0.01065 0.43596 0.36898 0.0
C2042 C 0.02446 0.46495 0.36761 0.0
C2043 C 0.0535 0.47964 0.3667 0.0
C2044 C 0.06848 0.46575 0.36735 0.0
C2045 C 0.00888 0.48018 0.3672 0.0
C2046 C 0.01461 0.49934 0.35784 0.0
C2047 C 0.98868 0.47615 0.37598 0.0
C2048 C 0.98315 0.45803 0.38665 0.0
C2049 C 0.00478 0.46241 0.39452 0.0
C2050 C -0.00053 0.44514 0.40452 0.0
C2051 C 0.97255 0.42357 0.40678 0.0
C2052 C 0.95088 0.41928 0.39908 0.0
C2053 C 0.95609 0.43646 0.38907 0.0
H2054 H 0.96848 0.41023 0.41452 0.0
H2055 H 0.02576 0.58681 0.32058 0.0
H2056 H 0.61547 0.05032 0.68265 0.0
H2057 H 0.56495 0.02455 0.68059 0.0
H2058 H 0.55638 0.02435 0.71925 0.0
H2059 H 0.60662 0.05092 0.72142 0.0
H2060 H 0.51922 0.97307 0.70796 0.0
H2061 H 0.55219 0.07163 0.70412 0.0
H2062 H 0.58098 0.11769 0.69492 0.0
H2063 H 0.54316 0.08552 0.66049 0.0
H2064 H 0.51444 0.03911 0.66945 0.0
H2065 H 0.38753 0.95068 0.72009 0.0
H2066 H 0.43784 0.97402 0.71846 0.0
H2067 H 0.43175 0.97419 0.67967 0.0
H2068 H 0.38112 0.95154 0.68122 0.0
H2069 H 0.47606 0.02254 0.68842 0.0
H2070 H 0.43961 0.92537 0.69228 0.0
H2071 H 0.41062 0.87895 0.7011 0.0
H2072 H 0.45478 0.90703 0.7346 0.0
H2073 H 0.48374 0.95381 0.72605 0.0
C2074 C 0.60286 0.04477 0.69072 0.0
C2075 C 0.61518 0.05295 0.7022 0.0
C2076 C 0.57403 0.02991 0.68952 0.0
C2077 C 0.55706 0.02281 0.69977 0.0
C2078 C 0.56921 0.02959 0.71124 0.0
C2079 C 0.59798 0.04467 0.71246 0.0
C2080 C 0.52668 0.01002 0.69859 0.0
C2081 C 0.50974 0.98388 0.70375 0.0
C2082 C 0.51445 0.0239 0.69277 0.0
C2083 C 0.53141 0.05185 0.68742 0.0
C2084 C 0.55017 0.07433 0.69456 0.0
C2085 C 0.56646 0.1005 0.6894 0.0
C2086 C 0.56396 0.10451 0.67712 0.0
C2087 C 0.54511 0.08237 0.66999 0.0
C2088 C 0.52882 0.05613 0.67511 0.0
C2089 C 0.39682 0.95636 0.71121 0.0
C2090 C 0.38028 0.94911 0.70077 0.0
C2091 C 0.4256 0.96941 0.71029 0.0
C2092 C 0.4384 0.97525 0.69894 0.0
C2093 C 0.42218 0.9696 0.68851 0.0
C2094 C 0.3933 0.95654 0.68942 0.0
C2095 C 0.46857 0.98584 0.69805 0.0
C2096 C 0.48547 0.01151 0.6925 0.0
C2097 C 0.48078 0.97141 0.70341 0.0
C2098 C 0.46372 0.94318 0.70855 0.0
C2099 C 0.44303 0.92171 0.70156 0.0
C2100 C 0.4266 0.89533 0.7065 0.0
C2101 C 0.43082 0.89006 0.71841 0.0
C2102 C 0.45153 0.91116 0.72538 0.0
C2103 C 0.46797 0.93761 0.72049 0.0
H2104 H 0.41807 0.86962 0.72223 0.0
H2105 H 0.57659 0.12479 0.67314 0.0
H2106 H 0.60817 0.5846 0.64022 0.0
H2107 H 0.55767 0.55624 0.64235 0.0
H2108 H 0.55589 0.50124 0.61452 0.0
H2109 H 0.60605 0.52898 0.61248 0.0
H2110 H 0.51522 0.51446 0.61155 0.0
H2111 H 0.55243 0.48383 0.64374 0.0
H2112 H 0.58087 0.49067 0.66186 0.0
H2113 H 0.53496 0.52136 0.68125 0.0
H2114 H 0.50649 0.51508 0.66318 0.0
H2115 H 0.38304 0.40014 0.61709 0.0
H2116 H 0.4337 0.42709 0.61816 0.0
H2117 H 0.42836 0.47567 0.64727 0.0
H2118 H 0.37773 0.44848 0.64636 0.0
H2119 H 0.47237 0.46799 0.65028 0.0
H2120 H 0.43471 0.49828 0.61886 0.0
H2121 H 0.40586 0.49233 0.60099 0.0
H2122 H 0.45266 0.46458 0.58033 0.0
H2123 H 0.48149 0.46989 0.59816 0.0
C2124 C 0.59699 0.56646 0.63457 0.0
C2125 C 0.61113 0.55916 0.62613 0.0
C2126 C 0.56818 0.55031 0.63579 0.0
C2127 C 0.55313 0.52657 0.62864 0.0
C2128 C 0.56712 0.51957 0.62008 0.0
C2129 C 0.59581 0.53559 0.61887 0.0
C2130 C 0.5228 0.50862 0.63008 0.0
C2131 C 0.50588 0.50409 0.61998 0.0
C2132 C 0.51061 0.49574 0.64118 0.0
C2133 C 0.52753 0.49926 0.65207 0.0
C2134 C 0.54854 0.49223 0.65184 0.0
C2135 C 0.56464 0.49598 0.66211 0.0
C2136 C 0.55978 0.50652 0.67269 0.0
C2137 C 0.53873 0.51325 0.67304 0.0
C2138 C 0.5226 0.50958 0.66279 0.0
C2139 C 0.39272 0.41618 0.62387 0.0
C2140 C 0.37654 0.42242 0.63156 0.0
C2141 C 0.4216 0.43158 0.62447 0.0
C2142 C 0.43472 0.45378 0.63261 0.0
C2143 C 0.41863 0.4587 0.6409 0.0
C2144 C 0.38972 0.4431 0.64039 0.0
C2145 C 0.4649 0.4734 0.63168 0.0
C2146 C 0.48173 0.47839 0.64186 0.0
C2147 C 0.47706 0.48697 0.62067 0.0
C2148 C 0.4601 0.48426 0.60987 0.0
C2149 C 0.43874 0.49075 0.61052 0.0
C2150 C 0.42239 0.4875 0.6004 0.0
C2151 C 0.42739 0.47804 0.58954 0.0
C2152 C 0.4488 0.47188 0.58876 0.0
C2153 C 0.46516 0.47502 0.59887 0.0
H2154 H 0.41471 0.47552 0.58171 0.0
H2155 H 0.57227 0.50941 0.68063 0.0
H2156 H 0.02873 0.61464 0.97499 0.0
H2157 H 0.00637 0.5641 0.97679 0.0
H2158 H 0.05101 0.56172 0.9454 0.0
H2159 H 0.07295 0.61196 0.94346 0.0
H2160 H -0.00029 0.52038 0.94473 0.0
H2161 H 0.07248 0.55928 0.97446 0.0
H2162 H 0.09775 0.58865 0.99188 0.0
H2163 H 0.02551 0.54381 0.0141 0.0
H2164 H -0.00033 0.51441 0.99676 0.0
H2165 H 0.9869 0.38941 0.95154 0.0
H2166 H 0.00988 0.44002 0.95215 0.0
H2167 H 0.95331 0.43523 0.97987 0.0
H2168 H 0.92972 0.38473 0.97911 0.0
H2169 H 0.00927 0.47958 0.98301 0.0
H2170 H 0.93698 0.44057 0.95298 0.0
H2171 H 0.91265 0.41074 0.93555 0.0
H2172 H 0.98557 0.45609 0.91377 0.0
H2173 H 0.0105 0.48589 0.93115 0.0
C2174 C 0.03352 0.60322 0.96843 0.0
C2175 C 0.05249 0.61715 0.95908 0.0
C2176 C 0.02086 0.57443 0.96949 0.0
C2177 C 0.02739 0.55922 0.96134 0.0
C2178 C 0.04566 0.57304 0.95178 0.0
C2179 C 0.05808 0.60173 0.95065 0.0
C2180 C 0.01583 0.529 0.96287 0.0
C2181 C 0.00209 0.51155 0.95306 0.0
C2182 C 0.01847 0.51738 0.97382 0.0
C2183 C 0.03406 0.53483 0.98428 0.0
C2184 C 0.06193 0.5558 0.98304 0.0
C2185 C 0.07636 0.57244 0.9929 0.0
C2186 C 0.06322 0.56815 0.00408 0.0
C2187 C 0.03565 0.54714 0.00543 0.0
C2188 C 0.0211 0.53047 0.99559 0.0
C2189 C 0.97953 0.39912 0.95786 0.0
C2190 C 0.95625 0.38301 0.96516 0.0
C2191 C 0.99277 0.42799 0.95824 0.0
C2192 C 0.98299 0.4412 0.96595 0.0
C2193 C 0.96113 0.42533 0.97388 0.0
C2194 C 0.94776 0.39644 0.97346 0.0
C2195 C 0.99362 0.47127 0.96483 0.0
C2196 C 0.00699 0.48856 0.9747 0.0
C2197 C 0.9908 0.48282 0.95392 0.0
C2198 C 0.97568 0.46528 0.9434 0.0
C2199 C 0.94789 0.44405 0.9445 0.0
C2200 C 0.93398 0.42716 0.93463 0.0
C2201 C 0.94758 0.43147 0.92356 0.0
C2202 C 0.97508 0.45275 0.92234 0.0
C2203 C 0.9891 0.46966 0.9322 0.0
H2204 H 0.93678 0.41837 0.91593 0.0
H2205 H 0.07443 0.58105 0.0117 0.0
H2206 H 0.58219 0.97066 0.3078 0.0
H2207 H 0.55373 0.99282 0.30921 0.0
H2208 H 0.50476 0.94429 0.27894 0.0
H2209 H 0.53337 0.92254 0.27738 0.0
H2210 H 0.51516 0.99574 0.277 0.0
H2211 H 0.48264 0.92703 0.30869 0.0
H2212 H 0.4879 0.90444 0.32684 0.0
H2213 H 0.51713 0.97999 0.34686 0.0
H2214 H 0.5124 0.00314 0.32878 0.0
H2215 H 0.40113 0.01544 0.28227 0.0
H2216 H 0.42767 0.99127 0.2831 0.0
H2217 H 0.47657 0.0441 0.31241 0.0
H2218 H 0.44991 0.06812 0.31171 0.0
H2219 H 0.46702 0.99161 0.3153 0.0
H2220 H 0.49956 0.06027 0.28392 0.0
H2221 H 0.49435 0.08333 0.26593 0.0
H2222 H 0.46582 0.00848 0.24543 0.0
H2223 H 0.47041 0.98484 0.26337 0.0
C2224 C 0.56545 0.96491 0.30142 0.0
C2225 C 0.56003 0.94499 0.29245 0.0
C2226 C 0.54914 0.97746 0.30226 0.0
C2227 C 0.52684 0.96988 0.29429 0.0
C2228 C 0.52186 0.95047 0.28517 0.0
C2229 C 0.5383 0.93815 0.28425 0.0
C2230 C 0.5084 0.98185 0.29548 0.0
C2231 C 0.50439 0.99452 0.28534 0.0
C2232 C 0.49486 0.98088 0.30644 0.0
C2233 C 0.4974 0.96688 0.31735 0.0
C2234 C 0.49035 0.93887 0.31694 0.0
C2235 C 0.49322 0.92596 0.32722 0.0
C2236 C 0.5029 0.94079 0.33799 0.0
C2237 C 0.50966 0.96854 0.33851 0.0
C2238 C 0.50687 0.98156 0.32826 0.0
C2239 C 0.41723 0.02155 0.28902 0.0
C2240 C 0.42364 0.04379 0.29685 0.0
C2241 C 0.43238 0.00779 0.28948 0.0
C2242 C 0.45446 0.01633 0.29765 0.0
C2243 C 0.45967 0.03726 0.30602 0.0
C2244 C 0.44437 0.0509 0.30563 0.0
C2245 C 0.47353 0.00507 0.29678 0.0
C2246 C 0.47777 0.99272 0.30697 0.0
C2247 C 0.48738 0.00639 0.28588 0.0
C2248 C 0.4851 0.02072 0.27502 0.0
C2249 C 0.49202 0.04869 0.27559 0.0
C2250 C 0.48919 0.06186 0.26541 0.0
C2251 C 0.47971 0.04736 0.25455 0.0
C2252 C 0.47313 0.01968 0.25385 0.0
C2253 C 0.47586 0.00638 0.26403 0.0
H2254 H 0.47751 0.05759 0.24667 0.0
H2255 H 0.50512 0.93076 0.34593 0.0
loop_
_geom_bond_atom_site_label_1
_geom_bond_atom_site_label_2
_geom_bond_distance
_geom_bond_site_symmetry_2
_ccdc_geom_bond_type
Li0 N17 1.990 . S
Li0 O60 1.956 . S
Li0 O61 1.970 . S
Li0 O62 1.961 . S
Li1 N25 1.990 . S
Li1 O60 1.970 . S
Li1 O61 1.956 . S
Li1 O63 1.961 . S
Li2 N47 1.990 . S
Li2 O60 1.961 . S
Li2 O62 1.956 . S
Li2 O63 1.970 . S
Li3 N53 1.990 . S
Li3 O61 1.961 . S
Li3 O62 1.970 . S
Li3 O63 1.956 . S
C4 C6 1.348 . S
C4 C7 1.356 . S
C4 O60 1.325 . S
N5 C8 1.314 . S
N5 C9 1.279 . S
C6 C4 1.348 . S
C6 C8 1.353 . S
C6 H64 0.929 . S
C7 C4 1.356 . S
C7 C9 1.358 . S
C7 H65 0.930 . S
C8 N5 1.314 . S
C8 C6 1.353 . S
C8 H66 0.930 . S
C9 N5 1.279 . S
C9 C7 1.358 . S
C9 H67 0.930 . S
C10 C13 1.348 . S
C10 C14 1.356 . S
C10 O61 1.325 . S
C11 N12 1.279 . S
C11 C14 1.358 . S
C11 H68 0.930 . S
N12 C11 1.279 . S
N12 C15 1.314 . S
C13 C10 1.348 . S
C13 C15 1.353 . S
C13 H69 0.929 . S
C14 C10 1.356 . S
C14 C11 1.358 . S
C14 H70 0.930 . S
C15 N12 1.314 . S
C15 C13 1.353 . S
C15 H71 0.930 . S
C16 N17 1.314 . S
C16 C21 1.353 . S
C16 H22 0.930 . S
N17 Li0 1.990 . S
N17 C16 1.314 . S
N17 C19 1.279 . S
C18 C19 1.358 . S
C18 C20 1.356 . S
C18 H72 0.930 . S
C19 N17 1.279 . S
C19 C18 1.358 . S
C19 H23 0.930 . S
C20 C18 1.356 . S
C20 C21 1.348 . S
C21 C16 1.353 . S
C21 C20 1.348 . S
C21 H73 0.929 . S
H22 C16 0.930 . S
H23 C19 0.930 . S
C24 N25 1.314 . S
C24 C26 1.353 . S
C24 H30 0.930 . S
N25 Li1 1.990 . S
N25 C24 1.314 . S
N25 C28 1.279 . S
C26 C24 1.353 . S
C26 C29 1.348 . S
C26 H74 0.929 . S
C27 C28 1.358 . S
C27 C29 1.356 . S
C27 H75 0.930 . S
C28 N25 1.279 . S
C28 C27 1.358 . S
C28 H31 0.930 . S
C29 C26 1.348 . S
C29 C27 1.356 . S
H30 C24 0.930 . S
H31 C28 0.930 . S
C32 C34 1.348 . S
C32 C35 1.356 . S
C32 O62 1.325 . S
N33 C36 1.314 . S
N33 C37 1.279 . S
C34 C32 1.348 . S
C34 C36 1.353 . S
C34 H76 0.929 . S
C35 C32 1.356 . S
C35 C37 1.358 . S
C35 H77 0.930 . S
C36 N33 1.314 . S
C36 C34 1.353 . S
C36 H78 0.930 . S
C37 N33 1.279 . S
C37 C35 1.358 . S
C37 H79 0.930 . S
C38 C39 1.348 . S
C38 C40 1.356 . S
C38 O63 1.325 . S
C39 C38 1.348 . S
C39 C41 1.353 1_554 S
C39 H80 0.929 . S
C40 C38 1.356 . S
C40 C42 1.358 1_554 S
C40 H81 0.930 . S
C41 C39 1.353 1_556 S
C41 N43 1.314 . S
C41 H82 0.930 . S
C42 C40 1.358 1_556 S
C42 N43 1.279 . S
C42 H83 0.930 . S
N43 C41 1.314 . S
N43 C42 1.279 . S
C44 C46 1.353 . S
C44 N47 1.314 . S
C44 H50 0.930 . S
C45 N47 1.279 . S
C45 C48 1.358 . S
C45 H51 0.930 . S
C46 C44 1.353 . S
C46 C49 1.348 . S
C46 H84 0.929 . S
N47 Li2 1.990 . S
N47 C44 1.314 . S
N47 C45 1.279 . S
C48 C45 1.358 . S
C48 C49 1.356 . S
C48 H85 0.930 . S
C49 C46 1.348 . S
C49 C48 1.356 . S
H50 C44 0.930 . S
H51 C45 0.930 . S
C52 N53 1.314 . S
C52 C54 1.353 . S
C52 H58 0.930 . S
N53 Li3 1.990 . S
N53 C52 1.314 . S
N53 C56 1.279 . S
C54 C52 1.353 . S
C54 C57 1.348 . S
C54 H86 0.929 . S
C55 C56 1.358 . S
C55 C57 1.356 . S
C55 H87 0.930 . S
C56 N53 1.279 . S
C56 C55 1.358 . S
C56 H59 0.930 . S
C57 C54 1.348 . S
C57 C55 1.356 . S
H58 C52 0.930 . S
H59 C56 0.930 . S
O60 Li0 1.956 . S
O60 Li1 1.970 . S
O60 Li2 1.961 . S
O60 C4 1.325 . S
O61 Li0 1.970 . S
O61 Li1 1.956 . S
O61 Li3 1.961 . S
O61 C10 1.325 . S
O62 Li0 1.961 . S
O62 Li2 1.956 . S
O62 Li3 1.970 . S
O62 C32 1.325 . S
O63 Li1 1.961 . S
O63 Li2 1.970 . S
O63 Li3 1.956 . S
O63 C38 1.325 . S
H64 C6 0.929 . S
H65 C7 0.930 . S
H66 C8 0.930 . S
H67 C9 0.930 . S
H68 C11 0.930 . S
H69 C13 0.929 . S
H70 C14 0.930 . S
H71 C15 0.930 . S
H72 C18 0.930 . S
H73 C21 0.929 . S
H74 C26 0.929 . S
H75 C27 0.930 . S
H76 C34 0.929 . S
H77 C35 0.930 . S
H78 C36 0.930 . S
H79 C37 0.930 . S
H80 C39 0.929 . S
H81 C40 0.930 . S
H82 C41 0.930 . S
H83 C42 0.930 . S
H84 C46 0.929 . S
H85 C48 0.930 . S
H86 C54 0.929 . S
H87 C55 0.930 . S
Li88 N105 1.990 . S
Li88 O148 1.956 . S
Li88 O149 1.970 . S
Li88 O150 1.961 . S
Li89 N113 1.990 . S
Li89 O148 1.970 . S
Li89 O149 1.956 . S
Li89 O151 1.961 . S
Li90 N135 1.990 . S
Li90 O148 1.961 . S
Li90 O150 1.956 . S
Li90 O151 1.970 . S
Li91 N141 1.990 . S
Li91 O149 1.961 . S
Li91 O150 1.970 . S
Li91 O151 1.956 . S
C92 C94 1.348 . S
C92 C95 1.356 . S
C92 O148 1.325 . S
N93 C96 1.314 . S
N93 C97 1.279 . S
C94 C92 1.348 . S
C94 C96 1.353 . S
C94 H152 0.929 . S
C95 C92 1.356 . S
C95 C97 1.358 . S
C95 H153 0.930 . S
C96 N93 1.314 . S
C96 C94 1.353 . S
C96 H154 0.930 . S
C97 N93 1.279 . S
C97 C95 1.358 . S
C97 H155 0.930 . S
C98 C101 1.348 . S
C98 C102 1.356 . S
C98 O149 1.325 . S
C99 N100 1.279 . S
C99 C102 1.358 . S
C99 H156 0.930 . S
N100 C99 1.279 . S
N100 C103 1.314 . S
C101 C98 1.348 . S
C101 C103 1.353 . S
C101 H157 0.929 . S
C102 C98 1.356 . S
C102 C99 1.358 . S
C102 H158 0.930 . S
C103 N100 1.314 . S
C103 C101 1.353 . S
C103 H159 0.930 . S
C104 N105 1.314 . S
C104 C109 1.353 . S
C104 H110 0.930 . S
N105 Li88 1.990 . S
N105 C104 1.314 . S
N105 C107 1.279 . S
C106 C107 1.358 . S
C106 C108 1.356 . S
C106 H160 0.930 . S
C107 N105 1.279 . S
C107 C106 1.358 . S
C107 H111 0.930 . S
C108 C106 1.356 . S
C108 C109 1.348 . S
C109 C104 1.353 . S
C109 C108 1.348 . S
C109 H161 0.929 . S
H110 C104 0.930 . S
H111 C107 0.930 . S
C112 N113 1.314 . S
C112 C114 1.353 . S
C112 H118 0.930 . S
N113 Li89 1.990 . S
N113 C112 1.314 . S
N113 C116 1.279 . S
C114 C112 1.353 . S
C114 C117 1.348 . S
C114 H162 0.929 . S
C115 C116 1.358 . S
C115 C117 1.356 . S
C115 H163 0.930 . S
C116 N113 1.279 . S
C116 C115 1.358 . S
C116 H119 0.930 . S
C117 C114 1.348 . S
C117 C115 1.356 . S
H118 C112 0.930 . S
H119 C116 0.930 . S
C120 C122 1.348 . S
C120 C123 1.356 . S
C120 O150 1.325 . S
N121 C124 1.314 . S
N121 C125 1.279 . S
C122 C120 1.348 . S
C122 C124 1.353 . S
C122 H164 0.929 . S
C123 C120 1.356 . S
C123 C125 1.358 . S
C123 H165 0.930 . S
C124 N121 1.314 . S
C124 C122 1.353 . S
C124 H166 0.930 . S
C125 N121 1.279 . S
C125 C123 1.358 . S
C125 H167 0.930 . S
C126 C127 1.348 . S
C126 C128 1.356 . S
C126 O151 1.325 . S
C127 C126 1.348 . S
C127 C129 1.353 . S
C127 H168 0.929 . S
C128 C126 1.356 . S
C128 C130 1.358 . S
C128 H169 0.930 . S
C129 C127 1.353 . S
C129 N131 1.314 . S
C129 H170 0.930 . S
C130 C128 1.358 . S
C130 N131 1.279 . S
C130 H171 0.930 . S
N131 C129 1.314 . S
N131 C130 1.279 . S
C132 C134 1.353 . S
C132 N135 1.314 . S
C132 H138 0.930 . S
C133 N135 1.279 . S
C133 C136 1.358 . S
C133 H139 0.930 . S
C134 C132 1.353 . S
C134 C137 1.348 . S
C134 H172 0.929 . S
N135 Li90 1.990 . S
N135 C132 1.314 . S
N135 C133 1.279 . S
C136 C133 1.358 . S
C136 C137 1.356 . S
C136 H173 0.930 . S
C137 C134 1.348 . S
C137 C136 1.356 . S
H138 C132 0.930 . S
H139 C133 0.930 . S
C140 N141 1.314 . S
C140 C142 1.353 . S
C140 H146 0.930 . S
N141 Li91 1.990 . S
N141 C140 1.314 . S
N141 C144 1.279 . S
C142 C140 1.353 . S
C142 C145 1.348 . S
C142 H174 0.929 . S
C143 C144 1.358 . S
C143 C145 1.356 . S
C143 H175 0.930 . S
C144 N141 1.279 . S
C144 C143 1.358 . S
C144 H147 0.930 . S
C145 C142 1.348 . S
C145 C143 1.356 . S
H146 C140 0.930 . S
H147 C144 0.930 . S
O148 Li88 1.956 . S
O148 Li89 1.970 . S
O148 Li90 1.961 . S
O148 C92 1.325 . S
O149 Li88 1.970 . S
O149 Li89 1.956 . S
O149 Li91 1.961 . S
O149 C98 1.325 . S
O150 Li88 1.961 . S
O150 Li90 1.956 . S
O150 Li91 1.970 . S
O150 C120 1.325 . S
O151 Li89 1.961 . S
O151 Li90 1.970 . S
O151 Li91 1.956 . S
O151 C126 1.325 . S
H152 C94 0.929 . S
H153 C95 0.930 . S
H154 C96 0.930 . S
H155 C97 0.930 . S
H156 C99 0.930 . S
H157 C101 0.929 . S
H158 C102 0.930 . S
H159 C103 0.930 . S
H160 C106 0.930 . S
H161 C109 0.929 . S
H162 C114 0.929 . S
H163 C115 0.930 . S
H164 C122 0.929 . S
H165 C123 0.930 . S
H166 C124 0.930 . S
H167 C125 0.930 . S
H168 C127 0.929 . S
H169 C128 0.930 . S
H170 C129 0.930 . S
H171 C130 0.930 . S
H172 C134 0.929 . S
H173 C136 0.930 . S
H174 C142 0.929 . S
H175 C143 0.930 . S
Li176 N193 1.990 . S
Li176 O236 1.956 . S
Li176 O237 1.970 . S
Li176 O238 1.961 . S
Li177 N201 1.990 . S
Li177 O236 1.970 . S
Li177 O237 1.956 . S
Li177 O239 1.961 . S
Li178 N223 1.990 . S
Li178 O236 1.961 . S
Li178 O238 1.956 . S
Li178 O239 1.970 . S
Li179 N229 1.990 . S
Li179 O237 1.961 . S
Li179 O238 1.970 . S
Li179 O239 1.956 . S
C180 C182 1.348 . S
C180 C183 1.356 . S
C180 O236 1.325 . S
N181 C184 1.314 . S
N181 C185 1.279 . S
C182 C180 1.348 . S
C182 C184 1.353 . S
C182 H240 0.929 . S
C183 C180 1.356 . S
C183 C185 1.358 . S
C183 H241 0.930 . S
C184 N181 1.314 . S
C184 C182 1.353 . S
C184 H242 0.930 . S
C185 N181 1.279 . S
C185 C183 1.358 . S
C185 H243 0.930 . S
C186 C189 1.348 . S
C186 C190 1.356 . S
C186 O237 1.325 . S
C187 N188 1.279 . S
C187 C190 1.358 . S
C187 H244 0.930 . S
N188 C187 1.279 . S
N188 C191 1.314 . S
C189 C186 1.348 . S
C189 C191 1.353 . S
C189 H245 0.929 . S
C190 C186 1.356 . S
C190 C187 1.358 . S
C190 H246 0.930 . S
C191 N188 1.314 . S
C191 C189 1.353 . S
C191 H247 0.930 . S
C192 N193 1.314 . S
C192 C197 1.353 . S
C192 H198 0.930 . S
N193 Li176 1.990 . S
N193 C192 1.314 . S
N193 C195 1.279 . S
C194 C195 1.358 . S
C194 C196 1.356 . S
C194 H248 0.930 . S
C195 N193 1.279 . S
C195 C194 1.358 . S
C195 H199 0.930 . S
C196 C194 1.356 . S
C196 C197 1.348 . S
C197 C192 1.353 . S
C197 C196 1.348 . S
C197 H249 0.929 . S
H198 C192 0.930 . S
H199 C195 0.930 . S
C200 N201 1.314 . S
C200 C202 1.353 . S
C200 H206 0.930 . S
N201 Li177 1.990 . S
N201 C200 1.314 . S
N201 C204 1.279 . S
C202 C200 1.353 . S
C202 C205 1.348 . S
C202 H250 0.929 . S
C203 C204 1.358 . S
C203 C205 1.356 . S
C203 H251 0.930 . S
C204 N201 1.279 . S
C204 C203 1.358 . S
C204 H207 0.930 . S
C205 C202 1.348 . S
C205 C203 1.356 . S
H206 C200 0.930 . S
H207 C204 0.930 . S
C208 C210 1.348 . S
C208 C211 1.356 . S
C208 O238 1.325 . S
N209 C212 1.314 . S
N209 C213 1.279 . S
C210 C208 1.348 . S
C210 C212 1.353 . S
C210 H252 0.929 . S
C211 C208 1.356 . S
C211 C213 1.358 . S
C211 H253 0.930 . S
C212 N209 1.314 . S
C212 C210 1.353 . S
C212 H254 0.930 . S
C213 N209 1.279 . S
C213 C211 1.358 . S
C213 H255 0.930 . S
C214 C215 1.348 . S
C214 C216 1.356 . S
C214 O239 1.325 . S
C215 C214 1.348 . S
C215 C217 1.353 . S
C215 H256 0.929 . S
C216 C214 1.356 . S
C216 C218 1.358 . S
C216 H257 0.930 . S
C217 C215 1.353 . S
C217 N219 1.314 . S
C217 H258 0.930 . S
C218 C216 1.358 . S
C218 N219 1.279 . S
C218 H259 0.930 . S
N219 C217 1.314 . S
N219 C218 1.279 . S
C220 C222 1.353 . S
C220 N223 1.314 . S
C220 H226 0.930 . S
C221 N223 1.279 . S
C221 C224 1.358 . S
C221 H227 0.930 . S
C222 C220 1.353 . S
C222 C225 1.348 . S
C222 H260 0.929 . S
N223 Li178 1.990 . S
N223 C220 1.314 . S
N223 C221 1.279 . S
C224 C221 1.358 . S
C224 C225 1.356 . S
C224 H261 0.930 . S
C225 C222 1.348 . S
C225 C224 1.356 . S
H226 C220 0.930 . S
H227 C221 0.930 . S
C228 N229 1.314 . S
C228 C230 1.353 . S
C228 H234 0.930 . S
N229 Li179 1.990 . S
N229 C228 1.314 . S
N229 C232 1.279 . S
C230 C228 1.353 . S
C230 C233 1.348 . S
C230 H262 0.929 . S
C231 C232 1.358 . S
C231 C233 1.356 . S
C231 H263 0.930 . S
C232 N229 1.279 . S
C232 C231 1.358 . S
C232 H235 0.930 . S
C233 C230 1.348 . S
C233 C231 1.356 . S
H234 C228 0.930 . S
H235 C232 0.930 . S
O236 Li176 1.956 . S
O236 Li177 1.970 . S
O236 Li178 1.961 . S
O236 C180 1.325 . S
O237 Li176 1.970 . S
O237 Li177 1.956 . S
O237 Li179 1.961 . S
O237 C186 1.325 . S
O238 Li176 1.961 . S
O238 Li178 1.956 . S
O238 Li179 1.970 . S
O238 C208 1.325 . S
O239 Li177 1.961 . S
O239 Li178 1.970 . S
O239 Li179 1.956 . S
O239 C214 1.325 . S
H240 C182 0.929 . S
H241 C183 0.930 . S
H242 C184 0.930 . S
H243 C185 0.930 . S
H244 C187 0.930 . S
H245 C189 0.929 . S
H246 C190 0.930 . S
H247 C191 0.930 . S
H248 C194 0.930 . S
H249 C197 0.929 . S
H250 C202 0.929 . S
H251 C203 0.930 . S
H252 C210 0.929 . S
H253 C211 0.930 . S
H254 C212 0.930 . S
H255 C213 0.930 . S
H256 C215 0.929 . S
H257 C216 0.930 . S
H258 C217 0.930 . S
H259 C218 0.930 . S
H260 C222 0.929 . S
H261 C224 0.930 . S
H262 C230 0.929 . S
H263 C231 0.930 . S
Li264 N281 1.990 . S
Li264 O324 1.956 . S
Li264 O325 1.970 . S
Li264 O326 1.961 . S
Li265 N289 1.990 . S
Li265 O324 1.970 . S
Li265 O325 1.956 . S
Li265 O327 1.961 . S
Li266 N311 1.990 . S
Li266 O324 1.961 . S
Li266 O326 1.956 . S
Li266 O327 1.970 . S
Li267 N317 1.990 . S
Li267 O325 1.961 . S
Li267 O326 1.970 . S
Li267 O327 1.956 . S
C268 C270 1.348 . S
C268 C271 1.356 . S
C268 O324 1.325 . S
N269 C272 1.314 . S
N269 C273 1.279 . S
C270 C268 1.348 . S
C270 C272 1.353 . S
C270 H328 0.929 . S
C271 C268 1.356 . S
C271 C273 1.358 . S
C271 H329 0.930 . S
C272 N269 1.314 . S
C272 C270 1.353 . S
C272 H330 0.930 . S
C273 N269 1.279 . S
C273 C271 1.358 . S
C273 H331 0.930 . S
C274 C277 1.348 . S
C274 C278 1.356 . S
C274 O325 1.325 . S
C275 N276 1.279 . S
C275 C278 1.358 . S
C275 H332 0.930 . S
N276 C275 1.279 . S
N276 C279 1.314 . S
C277 C274 1.348 . S
C277 C279 1.353 . S
C277 H333 0.929 . S
C278 C274 1.356 . S
C278 C275 1.358 . S
C278 H334 0.930 . S
C279 N276 1.314 . S
C279 C277 1.353 . S
C279 H335 0.930 . S
C280 N281 1.314 . S
C280 C285 1.353 . S
C280 H286 0.930 . S
N281 Li264 1.990 . S
N281 C280 1.314 . S
N281 C283 1.279 . S
C282 C283 1.358 . S
C282 C284 1.356 . S
C282 H336 0.930 . S
C283 N281 1.279 . S
C283 C282 1.358 . S
C283 H287 0.930 . S
C284 C282 1.356 . S
C284 C285 1.348 . S
C285 C280 1.353 . S
C285 C284 1.348 . S
C285 H337 0.929 . S
H286 C280 0.930 . S
H287 C283 0.930 . S
C288 N289 1.314 . S
C288 C290 1.353 . S
C288 H294 0.930 . S
N289 Li265 1.990 . S
N289 C288 1.314 . S
N289 C292 1.279 . S
C290 C288 1.353 . S
C290 C293 1.348 . S
C290 H338 0.929 . S
C291 C292 1.358 . S
C291 C293 1.356 . S
C291 H339 0.930 . S
C292 N289 1.279 . S
C292 C291 1.358 . S
C292 H295 0.930 . S
C293 C290 1.348 . S
C293 C291 1.356 . S
H294 C288 0.930 . S
H295 C292 0.930 . S
C296 C298 1.348 . S
C296 C299 1.356 . S
C296 O326 1.325 . S
N297 C300 1.314 . S
N297 C301 1.279 . S
C298 C296 1.348 . S
C298 C300 1.353 1_554 S
C298 H340 0.929 . S
C299 C296 1.356 . S
C299 C301 1.358 1_554 S
C299 H341 0.930 . S
C300 N297 1.314 . S
C300 C298 1.353 1_556 S
C300 H342 0.930 . S
C301 N297 1.279 . S
C301 C299 1.358 1_556 S
C301 H343 0.930 . S
C302 C303 1.348 . S
C302 C304 1.356 . S
C302 O327 1.325 . S
C303 C302 1.348 . S
C303 C305 1.353 . S
C303 H344 0.929 . S
C304 C302 1.356 . S
C304 C306 1.358 . S
C304 H345 0.930 . S
C305 C303 1.353 . S
C305 N307 1.314 . S
C305 H346 0.930 . S
C306 C304 1.358 . S
C306 N307 1.279 . S
C306 H347 0.930 . S
N307 C305 1.314 . S
N307 C306 1.279 . S
C308 C310 1.353 . S
C308 N311 1.314 . S
C308 H314 0.930 . S
C309 N311 1.279 . S
C309 C312 1.358 . S
C309 H315 0.930 . S
C310 C308 1.353 . S
C310 C313 1.348 . S
C310 H348 0.929 . S
N311 Li266 1.990 . S
N311 C308 1.314 . S
N311 C309 1.279 . S
C312 C309 1.358 . S
C312 C313 1.356 . S
C312 H349 0.930 . S
C313 C310 1.348 . S
C313 C312 1.356 . S
H314 C308 0.930 . S
H315 C309 0.930 . S
C316 N317 1.314 . S
C316 C318 1.353 . S
C316 H322 0.930 . S
N317 Li267 1.990 . S
N317 C316 1.314 . S
N317 C320 1.279 . S
C318 C316 1.353 . S
C318 C321 1.348 . S
C318 H350 0.929 . S
C319 C320 1.358 . S
C319 C321 1.356 . S
C319 H351 0.930 . S
C320 N317 1.279 . S
C320 C319 1.358 . S
C320 H323 0.930 . S
C321 C318 1.348 . S
C321 C319 1.356 . S
H322 C316 0.930 . S
H323 C320 0.930 . S
O324 Li264 1.956 . S
O324 Li265 1.970 . S
O324 Li266 1.961 . S
O324 C268 1.325 . S
O325 Li264 1.970 . S
O325 Li265 1.956 . S
O325 Li267 1.961 . S
O325 C274 1.325 . S
O326 Li264 1.961 . S
O326 Li266 1.956 . S
O326 Li267 1.970 . S
O326 C296 1.325 . S
O327 Li265 1.961 . S
O327 Li266 1.970 . S
O327 Li267 1.956 . S
O327 C302 1.325 . S
H328 C270 0.929 . S
H329 C271 0.930 . S
H330 C272 0.930 . S
H331 C273 0.930 . S
H332 C275 0.930 . S
H333 C277 0.929 . S
H334 C278 0.930 . S
H335 C279 0.930 . S
H336 C282 0.930 . S
H337 C285 0.929 . S
H338 C290 0.929 . S
H339 C291 0.930 . S
H340 C298 0.929 . S
H341 C299 0.930 . S
H342 C300 0.930 . S
H343 C301 0.930 . S
H344 C303 0.929 . S
H345 C304 0.930 . S
H346 C305 0.930 . S
H347 C306 0.930 . S
H348 C310 0.929 . S
H349 C312 0.930 . S
H350 C318 0.929 . S
H351 C319 0.930 . S
Li352 N369 1.990 . S
Li352 O412 1.956 . S
Li352 O413 1.970 . S
Li352 O414 1.961 . S
Li353 N377 1.990 . S
Li353 O412 1.970 . S
Li353 O413 1.956 . S
Li353 O415 1.961 . S
Li354 N399 1.990 . S
Li354 O412 1.961 . S
Li354 O414 1.956 . S
Li354 O415 1.970 . S
Li355 N405 1.990 . S
Li355 O413 1.961 . S
Li355 O414 1.970 . S
Li355 O415 1.956 . S
C356 C358 1.348 . S
C356 C359 1.356 . S
C356 O412 1.325 . S
N357 C360 1.314 . S
N357 C361 1.279 . S
C358 C356 1.348 . S
C358 C360 1.353 . S
C358 H416 0.929 . S
C359 C356 1.356 . S
C359 C361 1.358 . S
C359 H417 0.930 . S
C360 N357 1.314 . S
C360 C358 1.353 . S
C360 H418 0.930 . S
C361 N357 1.279 . S
C361 C359 1.358 . S
C361 H419 0.930 . S
C362 C365 1.348 . S
C362 C366 1.356 . S
C362 O413 1.325 . S
C363 N364 1.279 . S
C363 C366 1.358 . S
C363 H420 0.930 . S
N364 C363 1.279 . S
N364 C367 1.314 . S
C365 C362 1.348 . S
C365 C367 1.353 . S
C365 H421 0.929 . S
C366 C362 1.356 . S
C366 C363 1.358 . S
C366 H422 0.930 . S
C367 N364 1.314 . S
C367 C365 1.353 . S
C367 H423 0.930 . S
C368 N369 1.314 . S
C368 C373 1.353 . S
C368 H374 0.930 . S
N369 Li352 1.990 . S
N369 C368 1.314 . S
N369 C371 1.279 . S
C370 C371 1.358 . S
C370 C372 1.356 . S
C370 H424 0.930 . S
C371 N369 1.279 . S
C371 C370 1.358 . S
C371 H375 0.930 . S
C372 C370 1.356 . S
C372 C373 1.348 . S
C373 C368 1.353 . S
C373 C372 1.348 . S
C373 H425 0.929 . S
H374 C368 0.930 . S
H375 C371 0.930 . S
C376 N377 1.314 . S
C376 C378 1.353 . S
C376 H382 0.930 . S
N377 Li353 1.990 . S
N377 C376 1.314 . S
N377 C380 1.279 . S
C378 C376 1.353 . S
C378 C381 1.348 . S
C378 H426 0.929 . S
C379 C380 1.358 . S
C379 C381 1.356 . S
C379 H427 0.930 . S
C380 N377 1.279 . S
C380 C379 1.358 . S
C380 H383 0.930 . S
C381 C378 1.348 . S
C381 C379 1.356 . S
H382 C376 0.930 . S
H383 C380 0.930 . S
C384 C386 1.348 . S
C384 C387 1.356 . S
C384 O414 1.325 . S
N385 C388 1.314 . S
N385 C389 1.279 . S
C386 C384 1.348 . S
C386 C388 1.353 . S
C386 H428 0.929 . S
C387 C384 1.356 . S
C387 C389 1.358 . S
C387 H429 0.930 . S
C388 N385 1.314 . S
C388 C386 1.353 . S
C388 H430 0.930 . S
C389 N385 1.279 . S
C389 C387 1.358 . S
C389 H431 0.930 . S
C390 C391 1.348 . S
C390 C392 1.356 . S
C390 O415 1.325 . S
C391 C390 1.348 . S
C391 C393 1.353 . S
C391 H432 0.929 . S
C392 C390 1.356 . S
C392 C394 1.358 . S
C392 H433 0.930 . S
C393 C391 1.353 . S
C393 N395 1.314 . S
C393 H434 0.930 . S
C394 C392 1.358 . S
C394 N395 1.279 . S
C394 H435 0.930 . S
N395 C393 1.314 . S
N395 C394 1.279 . S
C396 C398 1.353 . S
C396 N399 1.314 . S
C396 H402 0.930 . S
C397 N399 1.279 . S
C397 C400 1.358 . S
C397 H403 0.930 . S
C398 C396 1.353 . S
C398 C401 1.348 . S
C398 H436 0.929 . S
N399 Li354 1.990 . S
N399 C396 1.314 . S
N399 C397 1.279 . S
C400 C397 1.358 . S
C400 C401 1.356 . S
C400 H437 0.930 . S
C401 C398 1.348 . S
C401 C400 1.356 . S
H402 C396 0.930 . S
H403 C397 0.930 . S
C404 N405 1.314 . S
C404 C406 1.353 . S
C404 H410 0.930 . S
N405 Li355 1.990 . S
N405 C404 1.314 . S
N405 C408 1.279 . S
C406 C404 1.353 . S
C406 C409 1.348 . S
C406 H438 0.929 . S
C407 C408 1.358 . S
C407 C409 1.356 . S
C407 H439 0.930 . S
C408 N405 1.279 . S
C408 C407 1.358 . S
C408 H411 0.930 . S
C409 C406 1.348 . S
C409 C407 1.356 . S
H410 C404 0.930 . S
H411 C408 0.930 . S
O412 Li352 1.956 . S
O412 Li353 1.970 . S
O412 Li354 1.961 . S
O412 C356 1.325 . S
O413 Li352 1.970 . S
O413 Li353 1.956 . S
O413 Li355 1.961 . S
O413 C362 1.325 . S
O414 Li352 1.961 . S
O414 Li354 1.956 . S
O414 Li355 1.970 . S
O414 C384 1.325 . S
O415 Li353 1.961 . S
O415 Li354 1.970 . S
O415 Li355 1.956 . S
O415 C390 1.325 . S
H416 C358 0.929 . S
H417 C359 0.930 . S
H418 C360 0.930 . S
H419 C361 0.930 . S
H420 C363 0.930 . S
H421 C365 0.929 . S
H422 C366 0.930 . S
H423 C367 0.930 . S
H424 C370 0.930 . S
H425 C373 0.929 . S
H426 C378 0.929 . S
H427 C379 0.930 . S
H428 C386 0.929 . S
H429 C387 0.930 . S
H430 C388 0.930 . S
H431 C389 0.930 . S
H432 C391 0.929 . S
H433 C392 0.930 . S
H434 C393 0.930 . S
H435 C394 0.930 . S
H436 C398 0.929 . S
H437 C400 0.930 . S
H438 C406 0.929 . S
H439 C407 0.930 . S
Li440 N457 1.990 . S
Li440 O500 1.956 . S
Li440 O501 1.970 . S
Li440 O502 1.961 . S
Li441 N465 1.990 . S
Li441 O500 1.970 . S
Li441 O501 1.956 . S
Li441 O503 1.961 . S
Li442 N487 1.990 . S
Li442 O500 1.961 . S
Li442 O502 1.956 . S
Li442 O503 1.970 . S
Li443 N493 1.990 . S
Li443 O501 1.961 . S
Li443 O502 1.970 . S
Li443 O503 1.956 . S
C444 C446 1.348 . S
C444 C447 1.356 . S
C444 O500 1.325 . S
N445 C448 1.314 . S
N445 C449 1.279 . S
C446 C444 1.348 . S
C446 C448 1.353 . S
C446 H504 0.929 . S
C447 C444 1.356 . S
C447 C449 1.358 . S
C447 H505 0.930 . S
C448 N445 1.314 . S
C448 C446 1.353 . S
C448 H506 0.930 . S
C449 N445 1.279 . S
C449 C447 1.358 . S
C449 H507 0.930 . S
C450 C453 1.348 . S
C450 C454 1.356 . S
C450 O501 1.325 . S
C451 N452 1.279 . S
C451 C454 1.358 . S
C451 H508 0.930 . S
N452 C451 1.279 . S
N452 C455 1.314 . S
C453 C450 1.348 . S
C453 C455 1.353 . S
C453 H509 0.929 . S
C454 C450 1.356 . S
C454 C451 1.358 . S
C454 H510 0.930 . S
C455 N452 1.314 . S
C455 C453 1.353 . S
C455 H511 0.930 . S
C456 N457 1.314 . S
C456 C461 1.353 . S
C456 H462 0.930 . S
N457 Li440 1.990 . S
N457 C456 1.314 . S
N457 C459 1.279 . S
C458 C459 1.358 . S
C458 C460 1.356 . S
C458 H512 0.930 . S
C459 N457 1.279 . S
C459 C458 1.358 . S
C459 H463 0.930 . S
C460 C458 1.356 . S
C460 C461 1.348 . S
C461 C456 1.353 . S
C461 C460 1.348 . S
C461 H513 0.929 . S
H462 C456 0.930 . S
H463 C459 0.930 . S
C464 N465 1.314 . S
C464 C466 1.353 . S
C464 H470 0.930 . S
N465 Li441 1.990 . S
N465 C464 1.314 . S
N465 C468 1.279 . S
C466 C464 1.353 . S
C466 C469 1.348 . S
C466 H514 0.929 . S
C467 C468 1.358 . S
C467 C469 1.356 . S
C467 H515 0.930 . S
C468 N465 1.279 . S
C468 C467 1.358 . S
C468 H471 0.930 . S
C469 C466 1.348 . S
C469 C467 1.356 . S
H470 C464 0.930 . S
H471 C468 0.930 . S
C472 C474 1.348 . S
C472 C475 1.356 . S
C472 O502 1.325 . S
N473 C476 1.314 . S
N473 C477 1.279 . S
C474 C472 1.348 . S
C474 C476 1.353 . S
C474 H516 0.929 . S
C475 C472 1.356 . S
C475 C477 1.358 . S
C475 H517 0.930 . S
C476 N473 1.314 . S
C476 C474 1.353 . S
C476 H518 0.930 . S
C477 N473 1.279 . S
C477 C475 1.358 . S
C477 H519 0.930 . S
C478 C479 1.348 . S
C478 C480 1.356 . S
C478 O503 1.325 . S
C479 C478 1.348 . S
C479 C481 1.353 . S
C479 H520 0.929 . S
C480 C478 1.356 . S
C480 C482 1.358 . S
C480 H521 0.930 . S
C481 C479 1.353 . S
C481 N483 1.314 . S
C481 H522 0.930 . S
C482 C480 1.358 . S
C482 N483 1.279 . S
C482 H523 0.930 . S
N483 C481 1.314 . S
N483 C482 1.279 . S
C484 C486 1.353 . S
C484 N487 1.314 . S
C484 H490 0.930 . S
C485 N487 1.279 . S
C485 C488 1.358 . S
C485 H491 0.930 . S
C486 C484 1.353 . S
C486 C489 1.348 . S
C486 H524 0.929 . S
N487 Li442 1.990 . S
N487 C484 1.314 . S
N487 C485 1.279 . S
C488 C485 1.358 . S
C488 C489 1.356 . S
C488 H525 0.930 . S
C489 C486 1.348 . S
C489 C488 1.356 . S
H490 C484 0.930 . S
H491 C485 0.930 . S
C492 N493 1.314 . S
C492 C494 1.353 . S
C492 H498 0.930 . S
N493 Li443 1.990 . S
N493 C492 1.314 . S
N493 C496 1.279 . S
C494 C492 1.353 . S
C494 C497 1.348 . S
C494 H526 0.929 . S
C495 C496 1.358 . S
C495 C497 1.356 . S
C495 H527 0.930 . S
C496 N493 1.279 . S
C496 C495 1.358 . S
C496 H499 0.930 . S
C497 C494 1.348 . S
C497 C495 1.356 . S
H498 C492 0.930 . S
H499 C496 0.930 . S
O500 Li440 1.956 . S
O500 Li441 1.970 . S
O500 Li442 1.961 . S
O500 C444 1.325 . S
O501 Li440 1.970 . S
O501 Li441 1.956 . S
O501 Li443 1.961 . S
O501 C450 1.325 . S
O502 Li440 1.961 . S
O502 Li442 1.956 . S
O502 Li443 1.970 . S
O502 C472 1.325 . S
O503 Li441 1.961 . S
O503 Li442 1.970 . S
O503 Li443 1.956 . S
O503 C478 1.325 . S
H504 C446 0.929 . S
H505 C447 0.930 . S
H506 C448 0.930 . S
H507 C449 0.930 . S
H508 C451 0.930 . S
H509 C453 0.929 . S
H510 C454 0.930 . S
H511 C455 0.930 . S
H512 C458 0.930 . S
H513 C461 0.929 . S
H514 C466 0.929 . S
H515 C467 0.930 . S
H516 C474 0.929 . S
H517 C475 0.930 . S
H518 C476 0.930 . S
H519 C477 0.930 . S
H520 C479 0.929 . S
H521 C480 0.930 . S
H522 C481 0.930 . S
H523 C482 0.930 . S
H524 C486 0.929 . S
H525 C488 0.930 . S
H526 C494 0.929 . S
H527 C495 0.930 . S
Li528 N545 1.990 . S
Li528 O588 1.956 . S
Li528 O589 1.970 . S
Li528 O590 1.961 . S
Li529 N553 1.990 . S
Li529 O588 1.970 . S
Li529 O589 1.956 . S
Li529 O591 1.961 . S
Li530 N575 1.990 . S
Li530 O588 1.961 . S
Li530 O590 1.956 . S
Li530 O591 1.970 . S
Li531 N581 1.990 . S
Li531 O589 1.961 . S
Li531 O590 1.970 . S
Li531 O591 1.956 . S
C532 C534 1.348 . S
C532 C535 1.356 . S
C532 O588 1.325 . S
N533 C536 1.314 . S
N533 C537 1.279 . S
C534 C532 1.348 . S
C534 C536 1.353 . S
C534 H592 0.929 . S
C535 C532 1.356 . S
C535 C537 1.358 . S
C535 H593 0.930 . S
C536 N533 1.314 . S
C536 C534 1.353 . S
C536 H594 0.930 . S
C537 N533 1.279 . S
C537 C535 1.358 . S
C537 H595 0.930 . S
C538 C541 1.348 . S
C538 C542 1.356 . S
C538 O589 1.325 . S
C539 N540 1.279 . S
C539 C542 1.358 . S
C539 H596 0.930 . S
N540 C539 1.279 . S
N540 C543 1.314 . S
C541 C538 1.348 . S
C541 C543 1.353 . S
C541 H597 0.929 . S
C542 C538 1.356 . S
C542 C539 1.358 . S
C542 H598 0.930 . S
C543 N540 1.314 . S
C543 C541 1.353 . S
C543 H599 0.930 . S
C544 N545 1.314 . S
C544 C549 1.353 . S
C544 H550 0.930 . S
N545 Li528 1.990 . S
N545 C544 1.314 . S
N545 C547 1.279 . S
C546 C547 1.358 . S
C546 C548 1.356 . S
C546 H600 0.930 . S
C547 N545 1.279 . S
C547 C546 1.358 . S
C547 H551 0.930 . S
C548 C546 1.356 . S
C548 C549 1.348 . S
C549 C544 1.353 . S
C549 C548 1.348 . S
C549 H601 0.929 . S
H550 C544 0.930 . S
H551 C547 0.930 . S
C552 N553 1.314 . S
C552 C554 1.353 . S
C552 H558 0.930 . S
N553 Li529 1.990 . S
N553 C552 1.314 . S
N553 C556 1.279 . S
C554 C552 1.353 . S
C554 C557 1.348 . S
C554 H602 0.929 . S
C555 C556 1.358 . S
C555 C557 1.356 . S
C555 H603 0.930 . S
C556 N553 1.279 . S
C556 C555 1.358 . S
C556 H559 0.930 . S
C557 C554 1.348 . S
C557 C555 1.356 . S
H558 C552 0.930 . S
H559 C556 0.930 . S
C560 C562 1.348 . S
C560 C563 1.356 . S
C560 O590 1.325 . S
N561 C564 1.314 . S
N561 C565 1.279 . S
C562 C560 1.348 . S
C562 C564 1.353 . S
C562 H604 0.929 . S
C563 C560 1.356 . S
C563 C565 1.358 . S
C563 H605 0.930 . S
C564 N561 1.314 . S
C564 C562 1.353 . S
C564 H606 0.930 . S
C565 N561 1.279 . S
C565 C563 1.358 . S
C565 H607 0.930 . S
C566 C567 1.348 . S
C566 C568 1.356 . S
C566 O591 1.325 . S
C567 C566 1.348 . S
C567 C569 1.353 . S
C567 H608 0.929 . S
C568 C566 1.356 . S
C568 C570 1.358 . S
C568 H609 0.930 . S
C569 C567 1.353 . S
C569 N571 1.314 . S
C569 H610 0.930 . S
C570 C568 1.358 . S
C570 N571 1.279 . S
C570 H611 0.930 . S
N571 C569 1.314 . S
N571 C570 1.279 . S
C572 C574 1.353 . S
C572 N575 1.314 . S
C572 H578 0.930 . S
C573 N575 1.279 . S
C573 C576 1.358 . S
C573 H579 0.930 . S
C574 C572 1.353 . S
C574 C577 1.348 . S
C574 H612 0.929 . S
N575 Li530 1.990 . S
N575 C572 1.314 . S
N575 C573 1.279 . S
C576 C573 1.358 . S
C576 C577 1.356 . S
C576 H613 0.930 . S
C577 C574 1.348 . S
C577 C576 1.356 . S
H578 C572 0.930 . S
H579 C573 0.930 . S
C580 N581 1.314 . S
C580 C582 1.353 . S
C580 H586 0.930 . S
N581 Li531 1.990 . S
N581 C580 1.314 . S
N581 C584 1.279 . S
C582 C580 1.353 . S
C582 C585 1.348 . S
C582 H614 0.929 . S
C583 C584 1.358 . S
C583 C585 1.356 . S
C583 H615 0.930 . S
C584 N581 1.279 . S
C584 C583 1.358 . S
C584 H587 0.930 . S
C585 C582 1.348 . S
C585 C583 1.356 . S
H586 C580 0.930 . S
H587 C584 0.930 . S
O588 Li528 1.956 . S
O588 Li529 1.970 . S
O588 Li530 1.961 . S
O588 C532 1.325 . S
O589 Li528 1.970 . S
O589 Li529 1.956 . S
O589 Li531 1.961 . S
O589 C538 1.325 . S
O590 Li528 1.961 . S
O590 Li530 1.956 . S
O590 Li531 1.970 . S
O590 C560 1.325 . S
O591 Li529 1.961 . S
O591 Li530 1.970 . S
O591 Li531 1.956 . S
O591 C566 1.325 . S
H592 C534 0.929 . S
H593 C535 0.930 . S
H594 C536 0.930 . S
H595 C537 0.930 . S
H596 C539 0.930 . S
H597 C541 0.929 . S
H598 C542 0.930 . S
H599 C543 0.930 . S
H600 C546 0.930 . S
H601 C549 0.929 . S
H602 C554 0.929 . S
H603 C555 0.930 . S
H604 C562 0.929 . S
H605 C563 0.930 . S
H606 C564 0.930 . S
H607 C565 0.930 . S
H608 C567 0.929 . S
H609 C568 0.930 . S
H610 C569 0.930 . S
H611 C570 0.930 . S
H612 C574 0.929 . S
H613 C576 0.930 . S
H614 C582 0.929 . S
H615 C583 0.930 . S
Li616 N633 1.990 . S
Li616 O676 1.956 . S
Li616 O677 1.970 . S
Li616 O678 1.961 . S
Li617 N641 1.990 . S
Li617 O676 1.970 . S
Li617 O677 1.956 . S
Li617 O679 1.961 . S
Li618 N663 1.990 . S
Li618 O676 1.961 . S
Li618 O678 1.956 . S
Li618 O679 1.970 . S
Li619 N669 1.990 . S
Li619 O677 1.961 . S
Li619 O678 1.970 . S
Li619 O679 1.956 . S
C620 C622 1.348 . S
C620 C623 1.356 . S
C620 O676 1.325 . S
N621 C624 1.314 . S
N621 C625 1.279 . S
C622 C620 1.348 . S
C622 C624 1.353 . S
C622 H680 0.929 . S
C623 C620 1.356 . S
C623 C625 1.358 . S
C623 H681 0.930 . S
C624 N621 1.314 . S
C624 C622 1.353 . S
C624 H682 0.930 . S
C625 N621 1.279 . S
C625 C623 1.358 . S
C625 H683 0.930 . S
C626 C629 1.348 . S
C626 C630 1.356 . S
C626 O677 1.325 . S
C627 N628 1.279 . S
C627 C630 1.358 1_554 S
C627 H684 0.930 . S
N628 C627 1.279 . S
N628 C631 1.314 . S
C629 C626 1.348 . S
C629 C631 1.353 1_556 S
C629 H685 0.929 . S
C630 C626 1.356 . S
C630 C627 1.358 1_556 S
C630 H686 0.930 . S
C631 N628 1.314 . S
C631 C629 1.353 1_554 S
C631 H687 0.930 . S
C632 N633 1.314 . S
C632 C637 1.353 . S
C632 H638 0.930 . S
N633 Li616 1.990 . S
N633 C632 1.314 . S
N633 C635 1.279 . S
C634 C635 1.358 . S
C634 C636 1.356 . S
C634 H688 0.930 . S
C635 N633 1.279 . S
C635 C634 1.358 . S
C635 H639 0.930 . S
C636 C634 1.356 . S
C636 C637 1.348 . S
C637 C632 1.353 . S
C637 C636 1.348 . S
C637 H689 0.929 . S
H638 C632 0.930 . S
H639 C635 0.930 . S
C640 N641 1.314 . S
C640 C642 1.353 . S
C640 H646 0.930 . S
N641 Li617 1.990 . S
N641 C640 1.314 . S
N641 C644 1.279 . S
C642 C640 1.353 . S
C642 C645 1.348 . S
C642 H690 0.929 . S
C643 C644 1.358 . S
C643 C645 1.356 . S
C643 H691 0.930 . S
C644 N641 1.279 . S
C644 C643 1.358 . S
C644 H647 0.930 . S
C645 C642 1.348 . S
C645 C643 1.356 . S
H646 C640 0.930 . S
H647 C644 0.930 . S
C648 C650 1.348 . S
C648 C651 1.356 . S
C648 O678 1.325 . S
N649 C652 1.314 . S
N649 C653 1.279 . S
C650 C648 1.348 . S
C650 C652 1.353 . S
C650 H692 0.929 . S
C651 C648 1.356 . S
C651 C653 1.358 . S
C651 H693 0.930 . S
C652 N649 1.314 . S
C652 C650 1.353 . S
C652 H694 0.930 . S
C653 N649 1.279 . S
C653 C651 1.358 . S
C653 H695 0.930 . S
C654 C655 1.348 . S
C654 C656 1.356 . S
C654 O679 1.325 . S
C655 C654 1.348 . S
C655 C657 1.353 . S
C655 H696 0.929 . S
C656 C654 1.356 . S
C656 C658 1.358 . S
C656 H697 0.930 . S
C657 C655 1.353 . S
C657 N659 1.314 . S
C657 H698 0.930 . S
C658 C656 1.358 . S
C658 N659 1.279 . S
C658 H699 0.930 . S
N659 C657 1.314 . S
N659 C658 1.279 . S
C660 C662 1.353 . S
C660 N663 1.314 . S
C660 H666 0.930 . S
C661 N663 1.279 . S
C661 C664 1.358 . S
C661 H667 0.930 . S
C662 C660 1.353 . S
C662 C665 1.348 . S
C662 H700 0.929 . S
N663 Li618 1.990 . S
N663 C660 1.314 . S
N663 C661 1.279 . S
C664 C661 1.358 . S
C664 C665 1.356 . S
C664 H701 0.930 . S
C665 C662 1.348 . S
C665 C664 1.356 . S
H666 C660 0.930 . S
H667 C661 0.930 . S
C668 N669 1.314 . S
C668 C670 1.353 . S
C668 H674 0.930 . S
N669 Li619 1.990 . S
N669 C668 1.314 . S
N669 C672 1.279 . S
C670 C668 1.353 . S
C670 C673 1.348 . S
C670 H702 0.929 . S
C671 C672 1.358 . S
C671 C673 1.356 . S
C671 H703 0.930 . S
C672 N669 1.279 . S
C672 C671 1.358 . S
C672 H675 0.930 . S
C673 C670 1.348 . S
C673 C671 1.356 . S
H674 C668 0.930 . S
H675 C672 0.930 . S
O676 Li616 1.956 . S
O676 Li617 1.970 . S
O676 Li618 1.961 . S
O676 C620 1.325 . S
O677 Li616 1.970 . S
O677 Li617 1.956 . S
O677 Li619 1.961 . S
O677 C626 1.325 . S
O678 Li616 1.961 . S
O678 Li618 1.956 . S
O678 Li619 1.970 . S
O678 C648 1.325 . S
O679 Li617 1.961 . S
O679 Li618 1.970 . S
O679 Li619 1.956 . S
O679 C654 1.325 . S
H680 C622 0.929 . S
H681 C623 0.930 . S
H682 C624 0.930 . S
H683 C625 0.930 . S
H684 C627 0.930 . S
H685 C629 0.929 . S
H686 C630 0.930 . S
H687 C631 0.930 . S
H688 C634 0.930 . S
H689 C637 0.929 . S
H690 C642 0.929 . S
H691 C643 0.930 . S
H692 C650 0.929 . S
H693 C651 0.930 . S
H694 C652 0.930 . S
H695 C653 0.930 . S
H696 C655 0.929 . S
H697 C656 0.930 . S
H698 C657 0.930 . S
H699 C658 0.930 . S
H700 C662 0.929 . S
H701 C664 0.930 . S
H702 C670 0.929 . S
H703 C671 0.930 . S
Li704 N721 1.990 . S
Li704 O764 1.956 . S
Li704 O765 1.970 . S
Li704 O766 1.961 . S
Li705 N729 1.990 . S
Li705 O764 1.970 . S
Li705 O765 1.956 . S
Li705 O767 1.961 . S
Li706 N751 1.990 . S
Li706 O764 1.961 . S
Li706 O766 1.956 . S
Li706 O767 1.970 . S
Li707 N757 1.990 . S
Li707 O765 1.961 . S
Li707 O766 1.970 . S
Li707 O767 1.956 . S
C708 C710 1.348 . S
C708 C711 1.356 . S
C708 O764 1.325 . S
N709 C712 1.314 . S
N709 C713 1.279 . S
C710 C708 1.348 . S
C710 C712 1.353 . S
C710 H768 0.929 . S
C711 C708 1.356 . S
C711 C713 1.358 . S
C711 H769 0.930 . S
C712 N709 1.314 . S
C712 C710 1.353 . S
C712 H770 0.930 . S
C713 N709 1.279 . S
C713 C711 1.358 . S
C713 H771 0.930 . S
C714 C717 1.348 . S
C714 C718 1.356 . S
C714 O765 1.325 . S
C715 N716 1.279 . S
C715 C718 1.358 . S
C715 H772 0.930 . S
N716 C715 1.279 . S
N716 C719 1.314 . S
C717 C714 1.348 . S
C717 C719 1.353 . S
C717 H773 0.929 . S
C718 C714 1.356 . S
C718 C715 1.358 . S
C718 H774 0.930 . S
C719 N716 1.314 . S
C719 C717 1.353 . S
C719 H775 0.930 . S
C720 N721 1.314 . S
C720 C725 1.353 . S
C720 H726 0.930 . S
N721 Li704 1.990 . S
N721 C720 1.314 . S
N721 C723 1.279 . S
C722 C723 1.358 . S
C722 C724 1.356 . S
C722 H776 0.930 . S
C723 N721 1.279 . S
C723 C722 1.358 . S
C723 H727 0.930 . S
C724 C722 1.356 . S
C724 C725 1.348 . S
C725 C720 1.353 . S
C725 C724 1.348 . S
C725 H777 0.929 . S
H726 C720 0.930 . S
H727 C723 0.930 . S
C728 N729 1.314 . S
C728 C730 1.353 . S
C728 H734 0.930 . S
N729 Li705 1.990 . S
N729 C728 1.314 . S
N729 C732 1.279 . S
C730 C728 1.353 . S
C730 C733 1.348 . S
C730 H778 0.929 . S
C731 C732 1.358 . S
C731 C733 1.356 . S
C731 H779 0.930 . S
C732 N729 1.279 . S
C732 C731 1.358 . S
C732 H735 0.930 . S
C733 C730 1.348 . S
C733 C731 1.356 . S
H734 C728 0.930 . S
H735 C732 0.930 . S
C736 C738 1.348 . S
C736 C739 1.356 . S
C736 O766 1.325 . S
N737 C740 1.314 . S
N737 C741 1.279 . S
C738 C736 1.348 . S
C738 C740 1.353 . S
C738 H780 0.929 . S
C739 C736 1.356 . S
C739 C741 1.358 . S
C739 H781 0.930 . S
C740 N737 1.314 . S
C740 C738 1.353 . S
C740 H782 0.930 . S
C741 N737 1.279 . S
C741 C739 1.358 . S
C741 H783 0.930 . S
C742 C743 1.348 . S
C742 C744 1.356 . S
C742 O767 1.325 . S
C743 C742 1.348 . S
C743 C745 1.353 . S
C743 H784 0.929 . S
C744 C742 1.356 . S
C744 C746 1.358 . S
C744 H785 0.930 . S
C745 C743 1.353 . S
C745 N747 1.314 . S
C745 H786 0.930 . S
C746 C744 1.358 . S
C746 N747 1.279 . S
C746 H787 0.930 . S
N747 C745 1.314 . S
N747 C746 1.279 . S
C748 C750 1.353 . S
C748 N751 1.314 . S
C748 H754 0.930 . S
C749 N751 1.279 . S
C749 C752 1.358 . S
C749 H755 0.930 . S
C750 C748 1.353 . S
C750 C753 1.348 . S
C750 H788 0.929 . S
N751 Li706 1.990 . S
N751 C748 1.314 . S
N751 C749 1.279 . S
C752 C749 1.358 . S
C752 C753 1.356 . S
C752 H789 0.930 . S
C753 C750 1.348 . S
C753 C752 1.356 . S
H754 C748 0.930 . S
H755 C749 0.930 . S
C756 N757 1.314 . S
C756 C758 1.353 . S
C756 H762 0.930 . S
N757 Li707 1.990 . S
N757 C756 1.314 . S
N757 C760 1.279 . S
C758 C756 1.353 . S
C758 C761 1.348 . S
C758 H790 0.929 . S
C759 C760 1.358 . S
C759 C761 1.356 . S
C759 H791 0.930 . S
C760 N757 1.279 . S
C760 C759 1.358 . S
C760 H763 0.930 . S
C761 C758 1.348 . S
C761 C759 1.356 . S
H762 C756 0.930 . S
H763 C760 0.930 . S
O764 Li704 1.956 . S
O764 Li705 1.970 . S
O764 Li706 1.961 . S
O764 C708 1.325 . S
O765 Li704 1.970 . S
O765 Li705 1.956 . S
O765 Li707 1.961 . S
O765 C714 1.325 . S
O766 Li704 1.961 . S
O766 Li706 1.956 . S
O766 Li707 1.970 . S
O766 C736 1.325 . S
O767 Li705 1.961 . S
O767 Li706 1.970 . S
O767 Li707 1.956 . S
O767 C742 1.325 . S
H768 C710 0.929 . S
H769 C711 0.930 . S
H770 C712 0.930 . S
H771 C713 0.930 . S
H772 C715 0.930 . S
H773 C717 0.929 . S
H774 C718 0.930 . S
H775 C719 0.930 . S
H776 C722 0.930 . S
H777 C725 0.929 . S
H778 C730 0.929 . S
H779 C731 0.930 . S
H780 C738 0.929 . S
H781 C739 0.930 . S
H782 C740 0.930 . S
H783 C741 0.930 . S
H784 C743 0.929 . S
H785 C744 0.930 . S
H786 C745 0.930 . S
H787 C746 0.930 . S
H788 C750 0.929 . S
H789 C752 0.930 . S
H790 C758 0.929 . S
H791 C759 0.930 . S
Li792 N809 1.990 . S
Li792 O852 1.956 . S
Li792 O853 1.970 . S
Li792 O854 1.961 . S
Li793 N817 1.990 . S
Li793 O852 1.970 . S
Li793 O853 1.956 . S
Li793 O855 1.961 . S
Li794 N839 1.990 . S
Li794 O852 1.961 . S
Li794 O854 1.956 . S
Li794 O855 1.970 . S
Li795 N845 1.990 . S
Li795 O853 1.961 . S
Li795 O854 1.970 . S
Li795 O855 1.956 . S
C796 C798 1.348 . S
C796 C799 1.356 . S
C796 O852 1.325 . S
N797 C800 1.314 . S
N797 C801 1.279 . S
C798 C796 1.348 . S
C798 C800 1.353 . S
C798 H856 0.929 . S
C799 C796 1.356 . S
C799 C801 1.358 . S
C799 H857 0.930 . S
C800 N797 1.314 . S
C800 C798 1.353 . S
C800 H858 0.930 . S
C801 N797 1.279 . S
C801 C799 1.358 . S
C801 H859 0.930 . S
C802 C805 1.348 . S
C802 C806 1.356 . S
C802 O853 1.325 . S
C803 N804 1.279 . S
C803 C806 1.358 . S
C803 H860 0.930 . S
N804 C803 1.279 . S
N804 C807 1.314 . S
C805 C802 1.348 . S
C805 C807 1.353 . S
C805 H861 0.929 . S
C806 C802 1.356 . S
C806 C803 1.358 . S
C806 H862 0.930 . S
C807 N804 1.314 . S
C807 C805 1.353 . S
C807 H863 0.930 . S
C808 N809 1.314 . S
C808 C813 1.353 . S
C808 H814 0.930 . S
N809 Li792 1.990 . S
N809 C808 1.314 . S
N809 C811 1.279 . S
C810 C811 1.358 . S
C810 C812 1.356 . S
C810 H864 0.930 . S
C811 N809 1.279 . S
C811 C810 1.358 . S
C811 H815 0.930 . S
C812 C810 1.356 . S
C812 C813 1.348 . S
C813 C808 1.353 . S
C813 C812 1.348 . S
C813 H865 0.929 . S
H814 C808 0.930 . S
H815 C811 0.930 . S
C816 N817 1.314 . S
C816 C818 1.353 . S
C816 H822 0.930 . S
N817 Li793 1.990 . S
N817 C816 1.314 . S
N817 C820 1.279 . S
C818 C816 1.353 . S
C818 C821 1.348 . S
C818 H866 0.929 . S
C819 C820 1.358 . S
C819 C821 1.356 . S
C819 H867 0.930 . S
C820 N817 1.279 . S
C820 C819 1.358 . S
C820 H823 0.930 . S
C821 C818 1.348 . S
C821 C819 1.356 . S
H822 C816 0.930 . S
H823 C820 0.930 . S
C824 C826 1.348 . S
C824 C827 1.356 . S
C824 O854 1.325 . S
N825 C828 1.314 . S
N825 C829 1.279 . S
C826 C824 1.348 . S
C826 C828 1.353 . S
C826 H868 0.929 . S
C827 C824 1.356 . S
C827 C829 1.358 . S
C827 H869 0.930 . S
C828 N825 1.314 . S
C828 C826 1.353 . S
C828 H870 0.930 . S
C829 N825 1.279 . S
C829 C827 1.358 . S
C829 H871 0.930 . S
C830 C831 1.348 . S
C830 C832 1.356 . S
C830 O855 1.325 . S
C831 C830 1.348 . S
C831 C833 1.353 . S
C831 H872 0.929 . S
C832 C830 1.356 . S
C832 C834 1.358 . S
C832 H873 0.930 . S
C833 C831 1.353 . S
C833 N835 1.314 . S
C833 H874 0.930 . S
C834 C832 1.358 . S
C834 N835 1.279 . S
C834 H875 0.930 . S
N835 C833 1.314 . S
N835 C834 1.279 . S
C836 C838 1.353 . S
C836 N839 1.314 . S
C836 H842 0.930 . S
C837 N839 1.279 . S
C837 C840 1.358 . S
C837 H843 0.930 . S
C838 C836 1.353 . S
C838 C841 1.348 . S
C838 H876 0.929 . S
N839 Li794 1.990 . S
N839 C836 1.314 . S
N839 C837 1.279 . S
C840 C837 1.358 . S
C840 C841 1.356 . S
C840 H877 0.930 . S
C841 C838 1.348 . S
C841 C840 1.356 . S
H842 C836 0.930 . S
H843 C837 0.930 . S
C844 N845 1.314 . S
C844 C846 1.353 . S
C844 H850 0.930 . S
N845 Li795 1.990 . S
N845 C844 1.314 . S
N845 C848 1.279 . S
C846 C844 1.353 . S
C846 C849 1.348 . S
C846 H878 0.929 . S
C847 C848 1.358 . S
C847 C849 1.356 . S
C847 H879 0.930 . S
C848 N845 1.279 . S
C848 C847 1.358 . S
C848 H851 0.930 . S
C849 C846 1.348 . S
C849 C847 1.356 . S
H850 C844 0.930 . S
H851 C848 0.930 . S
O852 Li792 1.956 . S
O852 Li793 1.970 . S
O852 Li794 1.961 . S
O852 C796 1.325 . S
O853 Li792 1.970 . S
O853 Li793 1.956 . S
O853 Li795 1.961 . S
O853 C802 1.325 . S
O854 Li792 1.961 . S
O854 Li794 1.956 . S
O854 Li795 1.970 . S
O854 C824 1.325 . S
O855 Li793 1.961 . S
O855 Li794 1.970 . S
O855 Li795 1.956 . S
O855 C830 1.325 . S
H856 C798 0.929 . S
H857 C799 0.930 . S
H858 C800 0.930 . S
H859 C801 0.930 . S
H860 C803 0.930 . S
H861 C805 0.929 . S
H862 C806 0.930 . S
H863 C807 0.930 . S
H864 C810 0.930 . S
H865 C813 0.929 . S
H866 C818 0.929 . S
H867 C819 0.930 . S
H868 C826 0.929 . S
H869 C827 0.930 . S
H870 C828 0.930 . S
H871 C829 0.930 . S
H872 C831 0.929 . S
H873 C832 0.930 . S
H874 C833 0.930 . S
H875 C834 0.930 . S
H876 C838 0.929 . S
H877 C840 0.930 . S
H878 C846 0.929 . S
H879 C847 0.930 . S
Li880 N897 1.990 . S
Li880 O940 1.956 . S
Li880 O941 1.970 . S
Li880 O942 1.961 . S
Li881 N905 1.990 . S
Li881 O940 1.970 . S
Li881 O941 1.956 . S
Li881 O943 1.961 . S
Li882 N927 1.990 . S
Li882 O940 1.961 . S
Li882 O942 1.956 . S
Li882 O943 1.970 . S
Li883 N933 1.990 . S
Li883 O941 1.961 . S
Li883 O942 1.970 . S
Li883 O943 1.956 . S
C884 C886 1.348 . S
C884 C887 1.356 . S
C884 O940 1.325 . S
N885 C888 1.314 . S
N885 C889 1.279 . S
C886 C884 1.348 . S
C886 C888 1.353 1_556 S
C886 H944 0.929 . S
C887 C884 1.356 . S
C887 C889 1.358 1_556 S
C887 H945 0.930 . S
C888 N885 1.314 . S
C888 C886 1.353 1_554 S
C888 H946 0.930 . S
C889 N885 1.279 . S
C889 C887 1.358 1_554 S
C889 H947 0.930 . S
C890 C893 1.348 . S
C890 C894 1.356 . S
C890 O941 1.325 . S
C891 N892 1.279 . S
C891 C894 1.358 . S
C891 H948 0.930 . S
N892 C891 1.279 . S
N892 C895 1.314 . S
C893 C890 1.348 . S
C893 C895 1.353 . S
C893 H949 0.929 . S
C894 C890 1.356 . S
C894 C891 1.358 . S
C894 H950 0.930 . S
C895 N892 1.314 . S
C895 C893 1.353 . S
C895 H951 0.930 . S
C896 N897 1.314 . S
C896 C901 1.353 . S
C896 H902 0.930 . S
N897 Li880 1.990 . S
N897 C896 1.314 . S
N897 C899 1.279 . S
C898 C899 1.358 . S
C898 C900 1.356 . S
C898 H952 0.930 . S
C899 N897 1.279 . S
C899 C898 1.358 . S
C899 H903 0.930 . S
C900 C898 1.356 . S
C900 C901 1.348 . S
C901 C896 1.353 . S
C901 C900 1.348 . S
C901 H953 0.929 . S
H902 C896 0.930 . S
H903 C899 0.930 . S
C904 N905 1.314 . S
C904 C906 1.353 . S
C904 H910 0.930 . S
N905 Li881 1.990 . S
N905 C904 1.314 . S
N905 C908 1.279 . S
C906 C904 1.353 . S
C906 C909 1.348 . S
C906 H954 0.929 . S
C907 C908 1.358 . S
C907 C909 1.356 . S
C907 H955 0.930 . S
C908 N905 1.279 . S
C908 C907 1.358 . S
C908 H911 0.930 . S
C909 C906 1.348 . S
C909 C907 1.356 . S
H910 C904 0.930 . S
H911 C908 0.930 . S
C912 C914 1.348 . S
C912 C915 1.356 . S
C912 O942 1.325 . S
N913 C916 1.314 . S
N913 C917 1.279 . S
C914 C912 1.348 . S
C914 C916 1.353 . S
C914 H956 0.929 . S
C915 C912 1.356 . S
C915 C917 1.358 . S
C915 H957 0.930 . S
C916 N913 1.314 . S
C916 C914 1.353 . S
C916 H958 0.930 . S
C917 N913 1.279 . S
C917 C915 1.358 . S
C917 H959 0.930 . S
C918 C919 1.348 . S
C918 C920 1.356 . S
C918 O943 1.325 . S
C919 C918 1.348 . S
C919 C921 1.353 . S
C919 H960 0.929 . S
C920 C918 1.356 . S
C920 C922 1.358 . S
C920 H961 0.930 . S
C921 C919 1.353 . S
C921 N923 1.314 . S
C921 H962 0.930 . S
C922 C920 1.358 . S
C922 N923 1.279 . S
C922 H963 0.930 . S
N923 C921 1.314 . S
N923 C922 1.279 . S
C924 C926 1.353 . S
C924 N927 1.314 . S
C924 H930 0.930 . S
C925 N927 1.279 . S
C925 C928 1.358 . S
C925 H931 0.930 . S
C926 C924 1.353 . S
C926 C929 1.348 . S
C926 H964 0.929 . S
N927 Li882 1.990 . S
N927 C924 1.314 . S
N927 C925 1.279 . S
C928 C925 1.358 . S
C928 C929 1.356 . S
C928 H965 0.930 . S
C929 C926 1.348 . S
C929 C928 1.356 . S
H930 C924 0.930 . S
H931 C925 0.930 . S
C932 N933 1.314 . S
C932 C934 1.353 . S
C932 H938 0.930 . S
N933 Li883 1.990 . S
N933 C932 1.314 . S
N933 C936 1.279 . S
C934 C932 1.353 . S
C934 C937 1.348 . S
C934 H966 0.929 . S
C935 C936 1.358 . S
C935 C937 1.356 . S
C935 H967 0.930 . S
C936 N933 1.279 . S
C936 C935 1.358 . S
C936 H939 0.930 . S
C937 C934 1.348 . S
C937 C935 1.356 . S
H938 C932 0.930 . S
H939 C936 0.930 . S
O940 Li880 1.956 . S
O940 Li881 1.970 . S
O940 Li882 1.961 . S
O940 C884 1.325 . S
O941 Li880 1.970 . S
O941 Li881 1.956 . S
O941 Li883 1.961 . S
O941 C890 1.325 . S
O942 Li880 1.961 . S
O942 Li882 1.956 . S
O942 Li883 1.970 . S
O942 C912 1.325 . S
O943 Li881 1.961 . S
O943 Li882 1.970 . S
O943 Li883 1.956 . S
O943 C918 1.325 . S
H944 C886 0.929 . S
H945 C887 0.930 . S
H946 C888 0.930 . S
H947 C889 0.930 . S
H948 C891 0.930 . S
H949 C893 0.929 . S
H950 C894 0.930 . S
H951 C895 0.930 . S
H952 C898 0.930 . S
H953 C901 0.929 . S
H954 C906 0.929 . S
H955 C907 0.930 . S
H956 C914 0.929 . S
H957 C915 0.930 . S
H958 C916 0.930 . S
H959 C917 0.930 . S
H960 C919 0.929 . S
H961 C920 0.930 . S
H962 C921 0.930 . S
H963 C922 0.930 . S
H964 C926 0.929 . S
H965 C928 0.930 . S
H966 C934 0.929 . S
H967 C935 0.930 . S
Li968 N985 1.990 . S
Li968 O1028 1.956 . S
Li968 O1029 1.970 . S
Li968 O1030 1.961 . S
Li969 N993 1.990 . S
Li969 O1028 1.970 . S
Li969 O1029 1.956 . S
Li969 O1031 1.961 . S
Li970 N1015 1.990 . S
Li970 O1028 1.961 . S
Li970 O1030 1.956 . S
Li970 O1031 1.970 . S
Li971 N1021 1.990 . S
Li971 O1029 1.961 . S
Li971 O1030 1.970 . S
Li971 O1031 1.956 . S
C972 C974 1.348 . S
C972 C975 1.356 . S
C972 O1028 1.325 . S
N973 C976 1.314 . S
N973 C977 1.279 . S
C974 C972 1.348 . S
C974 C976 1.353 . S
C974 H1032 0.929 . S
C975 C972 1.356 . S
C975 C977 1.358 . S
C975 H1033 0.930 . S
C976 N973 1.314 . S
C976 C974 1.353 . S
C976 H1034 0.930 . S
C977 N973 1.279 . S
C977 C975 1.358 . S
C977 H1035 0.930 . S
C978 C981 1.348 . S
C978 C982 1.356 . S
C978 O1029 1.325 . S
C979 N980 1.279 . S
C979 C982 1.358 . S
C979 H1036 0.930 . S
N980 C979 1.279 . S
N980 C983 1.314 . S
C981 C978 1.348 . S
C981 C983 1.353 . S
C981 H1037 0.929 . S
C982 C978 1.356 . S
C982 C979 1.358 . S
C982 H1038 0.930 . S
C983 N980 1.314 . S
C983 C981 1.353 . S
C983 H1039 0.930 . S
C984 N985 1.314 . S
C984 C989 1.353 . S
C984 H990 0.930 . S
N985 Li968 1.990 . S
N985 C984 1.314 . S
N985 C987 1.279 . S
C986 C987 1.358 . S
C986 C988 1.356 . S
C986 H1040 0.930 . S
C987 N985 1.279 . S
C987 C986 1.358 . S
C987 H991 0.930 . S
C988 C986 1.356 . S
C988 C989 1.348 . S
C989 C984 1.353 . S
C989 C988 1.348 . S
C989 H1041 0.929 . S
H990 C984 0.930 . S
H991 C987 0.930 . S
C992 N993 1.314 . S
C992 C994 1.353 . S
C992 H998 0.930 . S
N993 Li969 1.990 . S
N993 C992 1.314 . S
N993 C996 1.279 . S
C994 C992 1.353 . S
C994 C997 1.348 . S
C994 H1042 0.929 . S
C995 C996 1.358 . S
C995 C997 1.356 . S
C995 H1043 0.930 . S
C996 N993 1.279 . S
C996 C995 1.358 . S
C996 H999 0.930 . S
C997 C994 1.348 . S
C997 C995 1.356 . S
H998 C992 0.930 . S
H999 C996 0.930 . S
C1000 C1002 1.348 . S
C1000 C1003 1.356 . S
C1000 O1030 1.325 . S
N1001 C1004 1.314 . S
N1001 C1005 1.279 . S
C1002 C1000 1.348 . S
C1002 C1004 1.353 . S
C1002 H1044 0.929 . S
C1003 C1000 1.356 . S
C1003 C1005 1.358 . S
C1003 H1045 0.930 . S
C1004 N1001 1.314 . S
C1004 C1002 1.353 . S
C1004 H1046 0.930 . S
C1005 N1001 1.279 . S
C1005 C1003 1.358 . S
C1005 H1047 0.930 . S
C1006 C1007 1.348 . S
C1006 C1008 1.356 . S
C1006 O1031 1.325 . S
C1007 C1006 1.348 . S
C1007 C1009 1.353 . S
C1007 H1048 0.929 . S
C1008 C1006 1.356 . S
C1008 C1010 1.358 . S
C1008 H1049 0.930 . S
C1009 C1007 1.353 . S
C1009 N1011 1.314 . S
C1009 H1050 0.930 . S
C1010 C1008 1.358 . S
C1010 N1011 1.279 . S
C1010 H1051 0.930 . S
N1011 C1009 1.314 . S
N1011 C1010 1.279 . S
C1012 C1014 1.353 . S
C1012 N1015 1.314 . S
C1012 H1018 0.930 . S
C1013 N1015 1.279 . S
C1013 C1016 1.358 . S
C1013 H1019 0.930 . S
C1014 C1012 1.353 . S
C1014 C1017 1.348 . S
C1014 H1052 0.929 . S
N1015 Li970 1.990 . S
N1015 C1012 1.314 . S
N1015 C1013 1.279 . S
C1016 C1013 1.358 . S
C1016 C1017 1.356 . S
C1016 H1053 0.930 . S
C1017 C1014 1.348 . S
C1017 C1016 1.356 . S
H1018 C1012 0.930 . S
H1019 C1013 0.930 . S
C1020 N1021 1.314 . S
C1020 C1022 1.353 . S
C1020 H1026 0.930 . S
N1021 Li971 1.990 . S
N1021 C1020 1.314 . S
N1021 C1024 1.279 . S
C1022 C1020 1.353 . S
C1022 C1025 1.348 . S
C1022 H1054 0.929 . S
C1023 C1024 1.358 . S
C1023 C1025 1.356 . S
C1023 H1055 0.930 . S
C1024 N1021 1.279 . S
C1024 C1023 1.358 . S
C1024 H1027 0.930 . S
C1025 C1022 1.348 . S
C1025 C1023 1.356 . S
H1026 C1020 0.930 . S
H1027 C1024 0.930 . S
O1028 Li968 1.956 . S
O1028 Li969 1.970 . S
O1028 Li970 1.961 . S
O1028 C972 1.325 . S
O1029 Li968 1.970 . S
O1029 Li969 1.956 . S
O1029 Li971 1.961 . S
O1029 C978 1.325 . S
O1030 Li968 1.961 . S
O1030 Li970 1.956 . S
O1030 Li971 1.970 . S
O1030 C1000 1.325 . S
O1031 Li969 1.961 . S
O1031 Li970 1.970 . S
O1031 Li971 1.956 . S
O1031 C1006 1.325 . S
H1032 C974 0.929 . S
H1033 C975 0.930 . S
H1034 C976 0.930 . S
H1035 C977 0.930 . S
H1036 C979 0.930 . S
H1037 C981 0.929 . S
H1038 C982 0.930 . S
H1039 C983 0.930 . S
H1040 C986 0.930 . S
H1041 C989 0.929 . S
H1042 C994 0.929 . S
H1043 C995 0.930 . S
H1044 C1002 0.929 . S
H1045 C1003 0.930 . S
H1046 C1004 0.930 . S
H1047 C1005 0.930 . S
H1048 C1007 0.929 . S
H1049 C1008 0.930 . S
H1050 C1009 0.930 . S
H1051 C1010 0.930 . S
H1052 C1014 0.929 . S
H1053 C1016 0.930 . S
H1054 C1022 0.929 . S
H1055 C1023 0.930 . S
H1056 C1074 0.951 1_554 S
H1057 C1076 0.981 . S
H1058 C1078 0.950 . S
H1059 C1079 0.950 . S
H1060 C1081 0.950 . S
H1061 C1084 0.950 . S
H1062 C1085 0.950 . S
H1063 C1087 0.950 . S
H1064 C1088 0.950 . S
H1065 C1089 0.951 1_556 S
H1066 C1091 0.981 . S
H1067 C1093 0.950 . S
H1068 C1094 0.950 . S
H1069 C1096 0.950 . S
H1070 C1099 0.950 . S
H1071 C1100 0.950 . S
H1072 C1102 0.950 . S
H1073 C1103 0.950 . S
C1074 H1056 0.951 1_556 S
C1074 C1075 1.366 . S
C1074 C1076 1.379 1_556 S
C1075 C1074 1.366 . S
C1075 C1079 1.385 . S
C1076 H1057 0.981 . S
C1076 C1074 1.379 1_554 S
C1076 C1077 1.346 1_554 S
C1077 C1076 1.346 1_556 S
C1077 C1078 1.414 . S
C1077 C1080 1.499 . S
C1078 H1058 0.950 . S
C1078 C1077 1.414 . S
C1078 C1079 1.374 . S
C1079 H1059 0.950 . S
C1079 C1075 1.385 . S
C1079 C1078 1.374 . S
C1080 C1077 1.499 . S
C1080 C1081 1.373 . S
C1080 C1082 1.389 1_556 S
C1081 H1060 0.950 . S
C1081 C1080 1.373 . S
C1081 C1097 1.377 1_565 S
C1082 C1080 1.389 1_554 S
C1082 C1083 1.524 . S
C1082 C1096 1.377 1_565 S
C1083 C1082 1.524 . S
C1083 C1084 1.397 . S
C1083 C1088 1.363 . S
C1084 H1061 0.950 . S
C1084 C1083 1.397 . S
C1084 C1085 1.334 . S
C1085 H1062 0.950 . S
C1085 C1084 1.334 . S
C1085 C1086 1.287 . S
C1086 C1085 1.287 . S
C1086 C1087 1.524 . S
C1086 H1105 0.913 . S
C1087 H1063 0.950 . S
C1087 C1086 1.524 . S
C1087 C1088 1.415 . S
C1088 H1064 0.950 . S
C1088 C1083 1.363 . S
C1088 C1087 1.415 . S
C1089 H1065 0.951 1_554 S
C1089 C1090 1.366 . S
C1089 C1091 1.379 1_554 S
C1090 C1089 1.366 . S
C1090 C1094 1.385 . S
C1091 H1066 0.981 . S
C1091 C1089 1.379 1_556 S
C1091 C1092 1.346 1_556 S
C1092 C1091 1.346 1_554 S
C1092 C1093 1.414 . S
C1092 C1095 1.499 . S
C1093 H1067 0.950 . S
C1093 C1092 1.414 . S
C1093 C1094 1.374 . S
C1094 H1068 0.950 . S
C1094 C1090 1.385 . S
C1094 C1093 1.374 . S
C1095 C1092 1.499 . S
C1095 C1096 1.373 . S
C1095 C1097 1.389 1_554 S
C1096 H1069 0.950 . S
C1096 C1082 1.377 1_545 S
C1096 C1095 1.373 . S
C1097 C1081 1.377 1_545 S
C1097 C1095 1.389 1_556 S
C1097 C1098 1.524 . S
C1098 C1097 1.524 . S
C1098 C1099 1.397 . S
C1098 C1103 1.363 . S
C1099 H1070 0.950 . S
C1099 C1098 1.397 . S
C1099 C1100 1.334 . S
C1100 H1071 0.950 . S
C1100 C1099 1.334 . S
C1100 C1101 1.287 . S
C1101 C1100 1.287 . S
C1101 C1102 1.524 . S
C1101 H1104 0.999 . S
C1102 H1072 0.950 . S
C1102 C1101 1.524 . S
C1102 C1103 1.415 . S
C1103 H1073 0.950 . S
C1103 C1098 1.363 . S
C1103 C1102 1.415 . S
H1104 C1101 0.999 . S
H1105 C1086 0.913 . S
H1106 C1124 0.951 . S
H1107 C1126 0.951 . S
H1108 C1128 0.950 . S
H1109 C1129 0.950 . S
H1110 C1131 0.950 . S
H1111 C1134 0.950 . S
H1112 C1135 0.950 . S
H1113 C1137 0.950 . S
H1114 C1138 0.950 . S
H1115 C1139 0.951 . S
H1116 C1141 0.951 . S
H1117 C1143 0.950 . S
H1118 C1144 0.950 . S
H1119 C1146 0.950 . S
H1120 C1149 0.950 . S
H1121 C1150 0.950 . S
H1122 C1152 0.950 . S
H1123 C1153 0.950 . S
C1124 H1106 0.951 . S
C1124 C1125 1.366 . S
C1124 C1126 1.388 . S
C1125 C1124 1.366 . S
C1125 C1129 1.385 . S
C1126 H1107 0.951 . S
C1126 C1124 1.388 . S
C1126 C1127 1.366 . S
C1127 C1126 1.366 . S
C1127 C1128 1.414 . S
C1127 C1130 1.499 . S
C1128 H1108 0.950 . S
C1128 C1127 1.414 . S
C1128 C1129 1.374 . S
C1129 H1109 0.950 . S
C1129 C1125 1.385 . S
C1129 C1128 1.374 . S
C1130 C1127 1.499 . S
C1130 C1131 1.373 . S
C1130 C1132 1.389 . S
C1131 H1110 0.950 . S
C1131 C1130 1.373 . S
C1131 C1147 1.377 . S
C1132 C1130 1.389 . S
C1132 C1133 1.524 . S
C1132 C1146 1.377 . S
C1133 C1132 1.524 . S
C1133 C1134 1.397 . S
C1133 C1138 1.363 . S
C1134 H1111 0.950 . S
C1134 C1133 1.397 . S
C1134 C1135 1.334 . S
C1135 H1112 0.950 . S
C1135 C1134 1.334 . S
C1135 C1136 1.287 . S
C1136 C1135 1.287 . S
C1136 C1137 1.524 . S
C1136 H1155 0.913 . S
C1137 H1113 0.950 . S
C1137 C1136 1.524 . S
C1137 C1138 1.415 . S
C1138 H1114 0.950 . S
C1138 C1133 1.363 . S
C1138 C1137 1.415 . S
C1139 H1115 0.951 . S
C1139 C1140 1.366 . S
C1139 C1141 1.388 . S
C1140 C1139 1.366 . S
C1140 C1144 1.385 . S
C1141 H1116 0.951 . S
C1141 C1139 1.388 . S
C1141 C1142 1.366 . S
C1142 C1141 1.366 . S
C1142 C1143 1.414 . S
C1142 C1145 1.499 . S
C1143 H1117 0.950 . S
C1143 C1142 1.414 . S
C1143 C1144 1.374 . S
C1144 H1118 0.950 . S
C1144 C1140 1.385 . S
C1144 C1143 1.374 . S
C1145 C1142 1.499 . S
C1145 C1146 1.373 . S
C1145 C1147 1.389 . S
C1146 H1119 0.950 . S
C1146 C1132 1.377 . S
C1146 C1145 1.373 . S
C1147 C1131 1.377 . S
C1147 C1145 1.389 . S
C1147 C1148 1.524 . S
C1148 C1147 1.524 . S
C1148 C1149 1.397 . S
C1148 C1153 1.363 . S
C1149 H1120 0.950 . S
C1149 C1148 1.397 . S
C1149 C1150 1.334 . S
C1150 H1121 0.950 . S
C1150 C1149 1.334 . S
C1150 C1151 1.287 . S
C1151 C1150 1.287 . S
C1151 C1152 1.524 . S
C1151 H1154 0.999 . S
C1152 H1122 0.950 . S
C1152 C1151 1.524 . S
C1152 C1153 1.415 . S
C1153 H1123 0.950 . S
C1153 C1148 1.363 . S
C1153 C1152 1.415 . S
H1154 C1151 0.999 . S
H1155 C1136 0.913 . S
H1156 C1174 0.951 . S
H1157 C1176 0.951 . S
H1158 C1178 0.950 . S
H1159 C1179 0.950 . S
H1160 C1181 0.950 . S
H1161 C1184 0.950 . S
H1162 C1185 0.950 . S
H1163 C1187 0.950 1_455 S
H1164 C1188 0.940 1_455 S
H1165 C1189 0.951 . S
H1166 C1191 0.951 . S
H1167 C1193 0.950 . S
H1168 C1194 0.950 . S
H1169 C1196 0.950 . S
H1170 C1199 0.950 . S
H1171 C1200 0.950 . S
H1172 C1202 0.950 1_655 S
H1173 C1203 0.940 1_655 S
C1174 H1156 0.951 . S
C1174 C1175 1.366 . S
C1174 C1176 1.388 . S
C1175 C1174 1.366 . S
C1175 C1179 1.385 . S
C1176 H1157 0.951 . S
C1176 C1174 1.388 . S
C1176 C1177 1.366 . S
C1177 C1176 1.366 . S
C1177 C1178 1.414 . S
C1177 C1180 1.499 . S
C1178 H1158 0.950 . S
C1178 C1177 1.414 . S
C1178 C1179 1.374 . S
C1179 H1159 0.950 . S
C1179 C1175 1.385 . S
C1179 C1178 1.374 . S
C1180 C1177 1.499 . S
C1180 C1181 1.373 . S
C1180 C1182 1.389 . S
C1181 H1160 0.950 . S
C1181 C1180 1.373 . S
C1181 C1197 1.377 1_655 S
C1182 C1180 1.389 . S
C1182 C1183 1.524 . S
C1182 C1196 1.377 1_655 S
C1183 C1182 1.524 . S
C1183 C1184 1.397 . S
C1183 C1188 1.369 . S
C1184 H1161 0.950 . S
C1184 C1183 1.397 . S
C1184 C1185 1.334 . S
C1185 H1162 0.950 . S
C1185 C1184 1.334 . S
C1185 C1186 1.287 . S
C1186 C1185 1.287 . S
C1186 C1187 1.524 . S
C1186 H1205 0.913 . S
C1187 H1163 0.950 1_655 S
C1187 C1186 1.524 . S
C1187 C1188 1.419 . S
C1188 H1164 0.940 1_655 S
C1188 C1183 1.369 . S
C1188 C1187 1.419 . S
C1189 H1165 0.951 . S
C1189 C1190 1.366 . S
C1189 C1191 1.388 . S
C1190 C1189 1.366 . S
C1190 C1194 1.385 . S
C1191 H1166 0.951 . S
C1191 C1189 1.388 . S
C1191 C1192 1.366 . S
C1192 C1191 1.366 . S
C1192 C1193 1.414 . S
C1192 C1195 1.499 . S
C1193 H1167 0.950 . S
C1193 C1192 1.414 . S
C1193 C1194 1.374 . S
C1194 H1168 0.950 . S
C1194 C1190 1.385 . S
C1194 C1193 1.374 . S
C1195 C1192 1.499 . S
C1195 C1196 1.373 . S
C1195 C1197 1.389 . S
C1196 H1169 0.950 . S
C1196 C1182 1.377 1_455 S
C1196 C1195 1.373 . S
C1197 C1181 1.377 1_455 S
C1197 C1195 1.389 . S
C1197 C1198 1.524 . S
C1198 C1197 1.524 . S
C1198 C1199 1.397 . S
C1198 C1203 1.369 . S
C1199 H1170 0.950 . S
C1199 C1198 1.397 . S
C1199 C1200 1.334 . S
C1200 H1171 0.950 . S
C1200 C1199 1.334 . S
C1200 C1201 1.287 . S
C1201 C1200 1.287 . S
C1201 C1202 1.524 . S
C1201 H1204 0.999 . S
C1202 H1172 0.950 1_455 S
C1202 C1201 1.524 . S
C1202 C1203 1.419 . S
C1203 H1173 0.940 1_455 S
C1203 C1198 1.369 . S
C1203 C1202 1.419 . S
H1204 C1201 0.999 . S
H1205 C1186 0.913 . S
H1206 C1224 0.951 . S
H1207 C1226 0.951 . S
H1208 C1228 0.950 . S
H1209 C1229 0.950 . S
H1210 C1231 0.950 . S
H1211 C1234 0.950 . S
H1212 C1235 0.950 . S
H1213 C1237 0.950 . S
H1214 C1238 0.950 1_545 S
H1215 C1239 0.951 . S
H1216 C1241 0.951 . S
H1217 C1243 0.950 . S
H1218 C1244 0.950 . S
H1219 C1246 0.950 . S
H1220 C1249 0.950 . S
H1221 C1250 0.950 . S
H1222 C1252 0.950 . S
H1223 C1253 0.950 1_565 S
C1224 H1206 0.951 . S
C1224 C1225 1.366 . S
C1224 C1226 1.388 . S
C1225 C1224 1.366 . S
C1225 C1229 1.385 . S
C1226 H1207 0.951 . S
C1226 C1224 1.388 . S
C1226 C1227 1.366 . S
C1227 C1226 1.366 . S
C1227 C1228 1.414 . S
C1227 C1230 1.499 . S
C1228 H1208 0.950 . S
C1228 C1227 1.414 . S
C1228 C1229 1.374 . S
C1229 H1209 0.950 . S
C1229 C1225 1.385 . S
C1229 C1228 1.374 . S
C1230 C1227 1.499 . S
C1230 C1231 1.373 1_554 S
C1230 C1232 1.389 . S
C1231 H1210 0.950 . S
C1231 C1230 1.373 1_556 S
C1231 C1247 1.377 1_565 S
C1232 C1230 1.389 . S
C1232 C1233 1.524 . S
C1232 C1246 1.377 1_565 S
C1233 C1232 1.524 . S
C1233 C1234 1.397 . S
C1233 C1238 1.363 . S
C1234 H1211 0.950 . S
C1234 C1233 1.397 . S
C1234 C1235 1.334 . S
C1235 H1212 0.950 . S
C1235 C1234 1.334 . S
C1235 C1236 1.287 . S
C1236 C1235 1.287 . S
C1236 C1237 1.524 . S
C1236 H1255 0.913 . S
C1237 H1213 0.950 . S
C1237 C1236 1.524 . S
C1237 C1238 1.415 . S
C1238 H1214 0.950 1_565 S
C1238 C1233 1.363 . S
C1238 C1237 1.415 . S
C1239 H1215 0.951 . S
C1239 C1240 1.366 . S
C1239 C1241 1.388 . S
C1240 C1239 1.366 . S
C1240 C1244 1.385 . S
C1241 H1216 0.951 . S
C1241 C1239 1.388 . S
C1241 C1242 1.366 . S
C1242 C1241 1.366 . S
C1242 C1243 1.414 . S
C1242 C1245 1.499 . S
C1243 H1217 0.950 . S
C1243 C1242 1.414 . S
C1243 C1244 1.374 . S
C1244 H1218 0.950 . S
C1244 C1240 1.385 . S
C1244 C1243 1.374 . S
C1245 C1242 1.499 . S
C1245 C1246 1.373 1_556 S
C1245 C1247 1.389 . S
C1246 H1219 0.950 . S
C1246 C1232 1.377 1_545 S
C1246 C1245 1.373 1_554 S
C1247 C1231 1.377 1_545 S
C1247 C1245 1.389 . S
C1247 C1248 1.524 . S
C1248 C1247 1.524 . S
C1248 C1249 1.397 . S
C1248 C1253 1.363 . S
C1249 H1220 0.950 . S
C1249 C1248 1.397 . S
C1249 C1250 1.334 . S
C1250 H1221 0.950 . S
C1250 C1249 1.334 . S
C1250 C1251 1.287 . S
C1251 C1250 1.287 . S
C1251 C1252 1.524 . S
C1251 H1254 0.999 . S
C1252 H1222 0.950 . S
C1252 C1251 1.524 . S
C1252 C1253 1.415 . S
C1253 H1223 0.950 1_545 S
C1253 C1248 1.363 . S
C1253 C1252 1.415 . S
H1254 C1251 0.999 . S
H1255 C1236 0.913 . S
H1256 C1274 0.951 . S
H1257 C1276 0.951 . S
H1258 C1278 0.950 . S
H1259 C1279 0.950 . S
H1260 C1281 0.950 . S
H1261 C1284 0.950 . S
H1262 C1285 0.950 . S
H1263 C1287 0.950 . S
H1264 C1288 0.950 . S
H1265 C1289 0.951 . S
H1266 C1291 0.951 . S
H1267 C1293 0.950 . S
H1268 C1294 0.950 . S
H1269 C1296 0.950 . S
H1270 C1299 0.950 . S
H1271 C1300 0.950 . S
H1272 C1302 0.950 . S
H1273 C1303 0.950 . S
C1274 H1256 0.951 . S
C1274 C1275 1.366 . S
C1274 C1276 1.388 . S
C1275 C1274 1.366 . S
C1275 C1279 1.385 . S
C1276 H1257 0.951 . S
C1276 C1274 1.388 . S
C1276 C1277 1.366 . S
C1277 C1276 1.366 . S
C1277 C1278 1.414 . S
C1277 C1280 1.499 . S
C1278 H1258 0.950 . S
C1278 C1277 1.414 . S
C1278 C1279 1.374 . S
C1279 H1259 0.950 . S
C1279 C1275 1.385 . S
C1279 C1278 1.374 . S
C1280 C1277 1.499 . S
C1280 C1281 1.373 . S
C1280 C1282 1.389 . S
C1281 H1260 0.950 . S
C1281 C1280 1.373 . S
C1281 C1297 1.377 . S
C1282 C1280 1.389 . S
C1282 C1283 1.524 . S
C1282 C1296 1.377 . S
C1283 C1282 1.524 . S
C1283 C1284 1.397 . S
C1283 C1288 1.363 . S
C1284 H1261 0.950 . S
C1284 C1283 1.397 . S
C1284 C1285 1.334 . S
C1285 H1262 0.950 . S
C1285 C1284 1.334 . S
C1285 C1286 1.287 . S
C1286 C1285 1.287 . S
C1286 C1287 1.524 . S
C1286 H1305 0.913 . S
C1287 H1263 0.950 . S
C1287 C1286 1.524 . S
C1287 C1288 1.415 . S
C1288 H1264 0.950 . S
C1288 C1283 1.363 . S
C1288 C1287 1.415 . S
C1289 H1265 0.951 . S
C1289 C1290 1.366 . S
C1289 C1291 1.388 . S
C1290 C1289 1.366 . S
C1290 C1294 1.385 . S
C1291 H1266 0.951 . S
C1291 C1289 1.388 . S
C1291 C1292 1.366 . S
C1292 C1291 1.366 . S
C1292 C1293 1.414 . S
C1292 C1295 1.499 . S
C1293 H1267 0.950 . S
C1293 C1292 1.414 . S
C1293 C1294 1.374 . S
C1294 H1268 0.950 . S
C1294 C1290 1.385 . S
C1294 C1293 1.374 . S
C1295 C1292 1.499 . S
C1295 C1296 1.373 . S
C1295 C1297 1.389 . S
C1296 H1269 0.950 . S
C1296 C1282 1.377 . S
C1296 C1295 1.373 . S
C1297 C1281 1.377 . S
C1297 C1295 1.389 . S
C1297 C1298 1.524 . S
C1298 C1297 1.524 . S
C1298 C1299 1.397 . S
C1298 C1303 1.363 . S
C1299 H1270 0.950 . S
C1299 C1298 1.397 . S
C1299 C1300 1.334 . S
C1300 H1271 0.950 . S
C1300 C1299 1.334 . S
C1300 C1301 1.287 . S
C1301 C1300 1.287 . S
C1301 C1302 1.524 . S
C1301 H1304 0.999 . S
C1302 H1272 0.950 . S
C1302 C1301 1.524 . S
C1302 C1303 1.415 . S
C1303 H1273 0.950 . S
C1303 C1298 1.363 . S
C1303 C1302 1.415 . S
H1304 C1301 0.999 . S
H1305 C1286 0.913 . S
H1306 C1324 0.951 . S
H1307 C1326 0.951 . S
H1308 C1328 0.950 . S
H1309 C1329 0.950 . S
H1310 C1331 0.950 . S
H1311 C1334 0.950 . S
H1312 C1335 0.950 . S
H1313 C1337 0.950 . S
H1314 C1338 0.950 . S
H1315 C1339 0.951 . S
H1316 C1341 0.951 . S
H1317 C1343 0.950 . S
H1318 C1344 0.950 . S
H1319 C1346 0.950 . S
H1320 C1349 0.950 . S
H1321 C1350 0.950 . S
H1322 C1352 0.950 . S
H1323 C1353 0.950 . S
C1324 H1306 0.951 . S
C1324 C1325 1.366 . S
C1324 C1326 1.388 . S
C1325 C1324 1.366 . S
C1325 C1329 1.385 . S
C1326 H1307 0.951 . S
C1326 C1324 1.388 . S
C1326 C1327 1.366 . S
C1327 C1326 1.366 . S
C1327 C1328 1.414 . S
C1327 C1330 1.499 . S
C1328 H1308 0.950 . S
C1328 C1327 1.414 . S
C1328 C1329 1.374 . S
C1329 H1309 0.950 . S
C1329 C1325 1.385 . S
C1329 C1328 1.374 . S
C1330 C1327 1.499 . S
C1330 C1331 1.373 . S
C1330 C1332 1.389 . S
C1331 H1310 0.950 . S
C1331 C1330 1.373 . S
C1331 C1347 1.377 1_655 S
C1332 C1330 1.389 . S
C1332 C1333 1.524 . S
C1332 C1346 1.377 1_655 S
C1333 C1332 1.524 . S
C1333 C1334 1.397 . S
C1333 C1338 1.363 . S
C1334 H1311 0.950 . S
C1334 C1333 1.397 . S
C1334 C1335 1.334 . S
C1335 H1312 0.950 . S
C1335 C1334 1.334 . S
C1335 C1336 1.287 . S
C1336 C1335 1.287 . S
C1336 C1337 1.524 . S
C1336 H1355 0.913 . S
C1337 H1313 0.950 . S
C1337 C1336 1.524 . S
C1337 C1338 1.415 . S
C1338 H1314 0.950 . S
C1338 C1333 1.363 . S
C1338 C1337 1.415 . S
C1339 H1315 0.951 . S
C1339 C1340 1.366 . S
C1339 C1341 1.388 . S
C1340 C1339 1.366 . S
C1340 C1344 1.385 . S
C1341 H1316 0.951 . S
C1341 C1339 1.388 . S
C1341 C1342 1.366 . S
C1342 C1341 1.366 . S
C1342 C1343 1.414 . S
C1342 C1345 1.499 . S
C1343 H1317 0.950 . S
C1343 C1342 1.414 . S
C1343 C1344 1.374 . S
C1344 H1318 0.950 . S
C1344 C1340 1.385 . S
C1344 C1343 1.374 . S
C1345 C1342 1.499 . S
C1345 C1346 1.373 . S
C1345 C1347 1.389 . S
C1346 H1319 0.950 . S
C1346 C1332 1.377 1_455 S
C1346 C1345 1.373 . S
C1347 C1331 1.377 1_455 S
C1347 C1345 1.389 . S
C1347 C1348 1.524 . S
C1348 C1347 1.524 . S
C1348 C1349 1.397 . S
C1348 C1353 1.363 . S
C1349 H1320 0.950 . S
C1349 C1348 1.397 . S
C1349 C1350 1.334 . S
C1350 H1321 0.950 . S
C1350 C1349 1.334 . S
C1350 C1351 1.287 . S
C1351 C1350 1.287 . S
C1351 C1352 1.524 . S
C1351 H1354 0.999 . S
C1352 H1322 0.950 . S
C1352 C1351 1.524 . S
C1352 C1353 1.415 . S
C1353 H1323 0.950 . S
C1353 C1348 1.363 . S
C1353 C1352 1.415 . S
H1354 C1351 0.999 . S
H1355 C1336 0.913 . S
H1356 C1374 0.951 . S
H1357 C1376 0.951 1_554 S
H1358 C1378 0.950 . S
H1359 C1379 0.950 . S
H1360 C1381 0.950 . S
H1361 C1384 0.950 . S
H1362 C1385 0.950 . S
H1363 C1387 0.950 . S
H1364 C1388 0.950 . S
H1365 C1389 0.951 . S
H1366 C1391 0.951 1_556 S
H1367 C1393 0.950 . S
H1368 C1394 0.950 . S
H1369 C1396 0.950 . S
H1370 C1399 0.950 . S
H1371 C1400 0.950 . S
H1372 C1402 0.950 . S
H1373 C1403 0.950 . S
C1374 H1356 0.951 . S
C1374 C1375 1.366 . S
C1374 C1376 1.388 . S
C1375 C1374 1.366 . S
C1375 C1379 1.385 . S
C1376 H1357 0.951 1_556 S
C1376 C1374 1.388 . S
C1376 C1377 1.366 . S
C1377 C1376 1.366 . S
C1377 C1378 1.414 . S
C1377 C1380 1.499 . S
C1378 H1358 0.950 . S
C1378 C1377 1.414 . S
C1378 C1379 1.374 . S
C1379 H1359 0.950 . S
C1379 C1375 1.385 . S
C1379 C1378 1.374 . S
C1380 C1377 1.499 . S
C1380 C1381 1.373 . S
C1380 C1382 1.389 1_556 S
C1381 H1360 0.950 . S
C1381 C1380 1.373 . S
C1381 C1397 1.377 . S
C1382 C1380 1.389 1_554 S
C1382 C1383 1.524 . S
C1382 C1396 1.377 . S
C1383 C1382 1.524 . S
C1383 C1384 1.397 . S
C1383 C1388 1.363 . S
C1384 H1361 0.950 . S
C1384 C1383 1.397 . S
C1384 C1385 1.334 . S
C1385 H1362 0.950 . S
C1385 C1384 1.334 . S
C1385 C1386 1.287 . S
C1386 C1385 1.287 . S
C1386 C1387 1.524 . S
C1386 H1405 0.913 . S
C1387 H1363 0.950 . S
C1387 C1386 1.524 . S
C1387 C1388 1.415 . S
C1388 H1364 0.950 . S
C1388 C1383 1.363 . S
C1388 C1387 1.415 . S
C1389 H1365 0.951 . S
C1389 C1390 1.366 . S
C1389 C1391 1.388 . S
C1390 C1389 1.366 . S
C1390 C1394 1.385 . S
C1391 H1366 0.951 1_554 S
C1391 C1389 1.388 . S
C1391 C1392 1.366 . S
C1392 C1391 1.366 . S
C1392 C1393 1.414 . S
C1392 C1395 1.499 . S
C1393 H1367 0.950 . S
C1393 C1392 1.414 . S
C1393 C1394 1.374 . S
C1394 H1368 0.950 . S
C1394 C1390 1.385 . S
C1394 C1393 1.374 . S
C1395 C1392 1.499 . S
C1395 C1396 1.373 . S
C1395 C1397 1.389 1_554 S
C1396 H1369 0.950 . S
C1396 C1382 1.377 . S
C1396 C1395 1.373 . S
C1397 C1381 1.377 . S
C1397 C1395 1.389 1_556 S
C1397 C1398 1.524 . S
C1398 C1397 1.524 . S
C1398 C1399 1.397 . S
C1398 C1403 1.363 . S
C1399 H1370 0.950 . S
C1399 C1398 1.397 . S
C1399 C1400 1.334 . S
C1400 H1371 0.950 . S
C1400 C1399 1.334 . S
C1400 C1401 1.287 . S
C1401 C1400 1.287 . S
C1401 C1402 1.524 . S
C1401 H1404 0.999 . S
C1402 H1372 0.950 . S
C1402 C1401 1.524 . S
C1402 C1403 1.415 . S
C1403 H1373 0.950 . S
C1403 C1398 1.363 . S
C1403 C1402 1.415 . S
H1404 C1401 0.999 . S
H1405 C1386 0.913 . S
H1406 C1424 0.951 . S
H1407 C1426 0.951 . S
H1408 C1428 0.950 . S
H1409 C1429 0.950 . S
H1410 C1431 0.950 . S
H1411 C1434 0.950 . S
H1412 C1435 0.950 . S
H1413 C1437 0.950 . S
H1414 C1438 0.950 . S
H1415 C1439 0.951 . S
H1416 C1441 0.951 . S
H1417 C1443 0.950 . S
H1418 C1444 0.950 . S
H1419 C1446 0.950 . S
H1420 C1449 0.950 . S
H1421 C1450 0.950 . S
H1422 C1452 0.950 . S
H1423 C1453 0.950 . S
C1424 H1406 0.951 . S
C1424 C1425 1.366 . S
C1424 C1426 1.388 . S
C1425 C1424 1.366 . S
C1425 C1429 1.385 . S
C1426 H1407 0.951 . S
C1426 C1424 1.388 . S
C1426 C1427 1.366 . S
C1427 C1426 1.366 . S
C1427 C1428 1.414 . S
C1427 C1430 1.499 . S
C1428 H1408 0.950 . S
C1428 C1427 1.414 . S
C1428 C1429 1.374 . S
C1429 H1409 0.950 . S
C1429 C1425 1.385 . S
C1429 C1428 1.374 . S
C1430 C1427 1.499 . S
C1430 C1431 1.373 . S
C1430 C1432 1.389 . S
C1431 H1410 0.950 . S
C1431 C1430 1.373 . S
C1431 C1447 1.377 . S
C1432 C1430 1.389 . S
C1432 C1433 1.524 . S
C1432 C1446 1.377 . S
C1433 C1432 1.524 . S
C1433 C1434 1.397 . S
C1433 C1438 1.363 . S
C1434 H1411 0.950 . S
C1434 C1433 1.397 . S
C1434 C1435 1.334 . S
C1435 H1412 0.950 . S
C1435 C1434 1.334 . S
C1435 C1436 1.287 . S
C1436 C1435 1.287 . S
C1436 C1437 1.524 . S
C1436 H1455 0.913 . S
C1437 H1413 0.950 . S
C1437 C1436 1.524 . S
C1437 C1438 1.415 . S
C1438 H1414 0.950 . S
C1438 C1433 1.363 . S
C1438 C1437 1.415 . S
C1439 H1415 0.951 . S
C1439 C1440 1.366 . S
C1439 C1441 1.388 . S
C1440 C1439 1.366 . S
C1440 C1444 1.385 . S
C1441 H1416 0.951 . S
C1441 C1439 1.388 . S
C1441 C1442 1.366 . S
C1442 C1441 1.366 . S
C1442 C1443 1.414 . S
C1442 C1445 1.499 . S
C1443 H1417 0.950 . S
C1443 C1442 1.414 . S
C1443 C1444 1.374 . S
C1444 H1418 0.950 . S
C1444 C1440 1.385 . S
C1444 C1443 1.374 . S
C1445 C1442 1.499 . S
C1445 C1446 1.373 . S
C1445 C1447 1.389 . S
C1446 H1419 0.950 . S
C1446 C1432 1.377 . S
C1446 C1445 1.373 . S
C1447 C1431 1.377 . S
C1447 C1445 1.389 . S
C1447 C1448 1.524 . S
C1448 C1447 1.524 . S
C1448 C1449 1.397 . S
C1448 C1453 1.363 . S
C1449 H1420 0.950 . S
C1449 C1448 1.397 . S
C1449 C1450 1.334 . S
C1450 H1421 0.950 . S
C1450 C1449 1.334 . S
C1450 C1451 1.287 . S
C1451 C1450 1.287 . S
C1451 C1452 1.524 . S
C1451 H1454 0.999 . S
C1452 H1422 0.950 . S
C1452 C1451 1.524 . S
C1452 C1453 1.415 . S
C1453 H1423 0.950 . S
C1453 C1448 1.363 . S
C1453 C1452 1.415 . S
H1454 C1451 0.999 . S
H1455 C1436 0.913 . S
H1456 C1474 0.951 . S
H1457 C1476 0.951 . S
H1458 C1478 0.950 . S
H1459 C1479 0.950 . S
H1460 C1481 0.950 . S
H1461 C1484 0.950 . S
H1462 C1485 0.950 . S
H1463 C1487 0.950 . S
H1464 C1488 0.950 . S
H1465 C1489 0.951 . S
H1466 C1491 0.951 . S
H1467 C1493 0.950 . S
H1468 C1494 0.950 . S
H1469 C1496 0.950 . S
H1470 C1499 0.950 . S
H1471 C1500 0.950 . S
H1472 C1502 0.950 . S
H1473 C1503 0.950 . S
C1474 H1456 0.951 . S
C1474 C1475 1.366 . S
C1474 C1476 1.388 . S
C1475 C1474 1.366 . S
C1475 C1479 1.385 . S
C1476 H1457 0.951 . S
C1476 C1474 1.388 . S
C1476 C1477 1.366 . S
C1477 C1476 1.366 . S
C1477 C1478 1.414 . S
C1477 C1480 1.499 . S
C1478 H1458 0.950 . S
C1478 C1477 1.414 . S
C1478 C1479 1.374 . S
C1479 H1459 0.950 . S
C1479 C1475 1.385 . S
C1479 C1478 1.374 . S
C1480 C1477 1.499 . S
C1480 C1481 1.373 . S
C1480 C1482 1.389 . S
C1481 H1460 0.950 . S
C1481 C1480 1.373 . S
C1481 C1497 1.377 . S
C1482 C1480 1.389 . S
C1482 C1483 1.524 . S
C1482 C1496 1.377 . S
C1483 C1482 1.524 . S
C1483 C1484 1.397 . S
C1483 C1488 1.363 . S
C1484 H1461 0.950 . S
C1484 C1483 1.397 . S
C1484 C1485 1.334 . S
C1485 H1462 0.950 . S
C1485 C1484 1.334 . S
C1485 C1486 1.287 . S
C1486 C1485 1.287 . S
C1486 C1487 1.524 . S
C1486 H1505 0.913 . S
C1487 H1463 0.950 . S
C1487 C1486 1.524 . S
C1487 C1488 1.415 . S
C1488 H1464 0.950 . S
C1488 C1483 1.363 . S
C1488 C1487 1.415 . S
C1489 H1465 0.951 . S
C1489 C1490 1.366 . S
C1489 C1491 1.388 . S
C1490 C1489 1.366 . S
C1490 C1494 1.385 . S
C1491 H1466 0.951 . S
C1491 C1489 1.388 . S
C1491 C1492 1.366 . S
C1492 C1491 1.366 . S
C1492 C1493 1.414 . S
C1492 C1495 1.499 . S
C1493 H1467 0.950 . S
C1493 C1492 1.414 . S
C1493 C1494 1.374 . S
C1494 H1468 0.950 . S
C1494 C1490 1.385 . S
C1494 C1493 1.374 . S
C1495 C1492 1.499 . S
C1495 C1496 1.373 . S
C1495 C1497 1.389 . S
C1496 H1469 0.950 . S
C1496 C1482 1.377 . S
C1496 C1495 1.373 . S
C1497 C1481 1.377 . S
C1497 C1495 1.389 . S
C1497 C1498 1.524 . S
C1498 C1497 1.524 . S
C1498 C1499 1.397 . S
C1498 C1503 1.363 . S
C1499 H1470 0.950 . S
C1499 C1498 1.397 . S
C1499 C1500 1.334 . S
C1500 H1471 0.950 . S
C1500 C1499 1.334 . S
C1500 C1501 1.287 . S
C1501 C1500 1.287 . S
C1501 C1502 1.524 . S
C1501 H1504 0.999 . S
C1502 H1472 0.950 . S
C1502 C1501 1.524 . S
C1502 C1503 1.415 . S
C1503 H1473 0.950 . S
C1503 C1498 1.363 . S
C1503 C1502 1.415 . S
H1504 C1501 0.999 . S
H1505 C1486 0.913 . S
H1506 C1524 0.951 . S
H1507 C1526 0.951 . S
H1508 C1528 0.950 1_554 S
H1509 C1529 0.950 . S
H1510 C1531 0.950 . S
H1511 C1534 0.950 . S
H1512 C1535 0.950 . S
H1513 C1537 0.950 . S
H1514 C1538 0.950 . S
H1515 C1539 0.951 . S
H1516 C1541 0.951 . S
H1517 C1543 0.950 1_556 S
H1518 C1544 0.950 . S
H1519 C1546 0.950 . S
H1520 C1549 0.950 . S
H1521 C1550 0.950 . S
H1522 C1552 0.950 . S
H1523 C1553 0.950 . S
C1524 H1506 0.951 . S
C1524 C1525 1.366 . S
C1524 C1526 1.388 . S
C1525 C1524 1.366 . S
C1525 C1529 1.385 . S
C1526 H1507 0.951 . S
C1526 C1524 1.388 . S
C1526 C1527 1.366 . S
C1527 C1526 1.366 . S
C1527 C1528 1.414 . S
C1527 C1530 1.499 . S
C1528 H1508 0.950 1_556 S
C1528 C1527 1.414 . S
C1528 C1529 1.374 . S
C1529 H1509 0.950 . S
C1529 C1525 1.385 . S
C1529 C1528 1.374 . S
C1530 C1527 1.499 . S
C1530 C1531 1.373 1_556 S
C1530 C1532 1.389 . S
C1531 H1510 0.950 . S
C1531 C1530 1.373 1_554 S
C1531 C1547 1.377 . S
C1532 C1530 1.389 . S
C1532 C1533 1.524 . S
C1532 C1546 1.377 . S
C1533 C1532 1.524 . S
C1533 C1534 1.397 . S
C1533 C1538 1.363 . S
C1534 H1511 0.950 . S
C1534 C1533 1.397 . S
C1534 C1535 1.334 . S
C1535 H1512 0.950 . S
C1535 C1534 1.334 . S
C1535 C1536 1.287 . S
C1536 C1535 1.287 . S
C1536 C1537 1.524 . S
C1536 H1555 0.913 . S
C1537 H1513 0.950 . S
C1537 C1536 1.524 . S
C1537 C1538 1.415 . S
C1538 H1514 0.950 . S
C1538 C1533 1.363 . S
C1538 C1537 1.415 . S
C1539 H1515 0.951 . S
C1539 C1540 1.366 . S
C1539 C1541 1.388 . S
C1540 C1539 1.366 . S
C1540 C1544 1.385 . S
C1541 H1516 0.951 . S
C1541 C1539 1.388 . S
C1541 C1542 1.366 . S
C1542 C1541 1.366 . S
C1542 C1543 1.414 . S
C1542 C1545 1.499 . S
C1543 H1517 0.950 1_554 S
C1543 C1542 1.414 . S
C1543 C1544 1.374 . S
C1544 H1518 0.950 . S
C1544 C1540 1.385 . S
C1544 C1543 1.374 . S
C1545 C1542 1.499 . S
C1545 C1546 1.373 1_554 S
C1545 C1547 1.389 . S
C1546 H1519 0.950 . S
C1546 C1532 1.377 . S
C1546 C1545 1.373 1_556 S
C1547 C1531 1.377 . S
C1547 C1545 1.389 . S
C1547 C1548 1.524 . S
C1548 C1547 1.524 . S
C1548 C1549 1.397 . S
C1548 C1553 1.363 . S
C1549 H1520 0.950 . S
C1549 C1548 1.397 . S
C1549 C1550 1.334 . S
C1550 H1521 0.950 . S
C1550 C1549 1.334 . S
C1550 C1551 1.287 . S
C1551 C1550 1.287 . S
C1551 C1552 1.524 . S
C1551 H1554 0.999 . S
C1552 H1522 0.950 . S
C1552 C1551 1.524 . S
C1552 C1553 1.415 . S
C1553 H1523 0.950 . S
C1553 C1548 1.363 . S
C1553 C1552 1.415 . S
H1554 C1551 0.999 . S
H1555 C1536 0.913 . S
H1556 C1574 0.951 . S
H1557 C1576 0.951 . S
H1558 C1578 0.950 . S
H1559 C1579 0.950 . S
H1560 C1581 0.950 . S
H1561 C1584 0.950 . S
H1562 C1585 0.950 . S
H1563 C1587 0.950 . S
H1564 C1588 0.950 . S
H1565 C1589 0.951 . S
H1566 C1591 0.951 . S
H1567 C1593 0.950 . S
H1568 C1594 0.950 . S
H1569 C1596 0.950 . S
H1570 C1599 0.950 . S
H1571 C1600 0.950 . S
H1572 C1602 0.950 . S
H1573 C1603 0.950 . S
C1574 H1556 0.951 . S
C1574 C1575 1.366 . S
C1574 C1576 1.388 . S
C1575 C1574 1.366 . S
C1575 C1579 1.385 . S
C1576 H1557 0.951 . S
C1576 C1574 1.388 . S
C1576 C1577 1.366 . S
C1577 C1576 1.366 . S
C1577 C1578 1.414 . S
C1577 C1580 1.499 . S
C1578 H1558 0.950 . S
C1578 C1577 1.414 . S
C1578 C1579 1.374 . S
C1579 H1559 0.950 . S
C1579 C1575 1.385 . S
C1579 C1578 1.374 . S
C1580 C1577 1.499 . S
C1580 C1581 1.373 . S
C1580 C1582 1.389 . S
C1581 H1560 0.950 . S
C1581 C1580 1.373 . S
C1581 C1597 1.377 . S
C1582 C1580 1.389 . S
C1582 C1583 1.524 . S
C1582 C1596 1.377 . S
C1583 C1582 1.524 . S
C1583 C1584 1.397 . S
C1583 C1588 1.363 . S
C1584 H1561 0.950 . S
C1584 C1583 1.397 . S
C1584 C1585 1.334 . S
C1585 H1562 0.950 . S
C1585 C1584 1.334 . S
C1585 C1586 1.287 . S
C1586 C1585 1.287 . S
C1586 C1587 1.524 . S
C1586 H1605 0.913 . S
C1587 H1563 0.950 . S
C1587 C1586 1.524 . S
C1587 C1588 1.415 . S
C1588 H1564 0.950 . S
C1588 C1583 1.363 . S
C1588 C1587 1.415 . S
C1589 H1565 0.951 . S
C1589 C1590 1.366 . S
C1589 C1591 1.388 . S
C1590 C1589 1.366 . S
C1590 C1594 1.385 . S
C1591 H1566 0.951 . S
C1591 C1589 1.388 . S
C1591 C1592 1.366 . S
C1592 C1591 1.366 . S
C1592 C1593 1.414 . S
C1592 C1595 1.499 . S
C1593 H1567 0.950 . S
C1593 C1592 1.414 . S
C1593 C1594 1.374 . S
C1594 H1568 0.950 . S
C1594 C1590 1.385 . S
C1594 C1593 1.374 . S
C1595 C1592 1.499 . S
C1595 C1596 1.373 . S
C1595 C1597 1.389 . S
C1596 H1569 0.950 . S
C1596 C1582 1.377 . S
C1596 C1595 1.373 . S
C1597 C1581 1.377 . S
C1597 C1595 1.389 . S
C1597 C1598 1.524 . S
C1598 C1597 1.524 . S
C1598 C1599 1.397 . S
C1598 C1603 1.363 . S
C1599 H1570 0.950 . S
C1599 C1598 1.397 . S
C1599 C1600 1.334 . S
C1600 H1571 0.950 . S
C1600 C1599 1.334 . S
C1600 C1601 1.287 . S
C1601 C1600 1.287 . S
C1601 C1602 1.524 . S
C1601 H1604 0.999 . S
C1602 H1572 0.950 . S
C1602 C1601 1.524 . S
C1602 C1603 1.415 . S
C1603 H1573 0.950 . S
C1603 C1598 1.363 . S
C1603 C1602 1.415 . S
H1604 C1601 0.999 . S
H1605 C1586 0.913 . S
H1606 C1624 0.951 . S
H1607 C1626 0.951 . S
H1608 C1628 0.950 . S
H1609 C1629 0.950 . S
H1610 C1631 0.950 . S
H1611 C1634 0.950 . S
H1612 C1635 0.950 . S
H1613 C1637 0.950 . S
H1614 C1638 0.950 . S
H1615 C1639 0.951 . S
H1616 C1641 0.951 . S
H1617 C1643 0.950 . S
H1618 C1644 0.950 . S
H1619 C1646 0.950 . S
H1620 C1649 0.950 . S
H1621 C1650 0.950 . S
H1622 C1652 0.950 . S
H1623 C1653 0.950 . S
C1624 H1606 0.951 . S
C1624 C1625 1.366 . S
C1624 C1626 1.388 . S
C1625 C1624 1.366 . S
C1625 C1629 1.385 . S
C1626 H1607 0.951 . S
C1626 C1624 1.388 . S
C1626 C1627 1.366 . S
C1627 C1626 1.366 . S
C1627 C1628 1.414 . S
C1627 C1630 1.499 . S
C1628 H1608 0.950 . S
C1628 C1627 1.414 . S
C1628 C1629 1.374 . S
C1629 H1609 0.950 . S
C1629 C1625 1.385 . S
C1629 C1628 1.374 . S
C1630 C1627 1.499 . S
C1630 C1631 1.373 . S
C1630 C1632 1.389 . S
C1631 H1610 0.950 . S
C1631 C1630 1.373 . S
C1631 C1647 1.377 . S
C1632 C1630 1.389 . S
C1632 C1633 1.524 . S
C1632 C1646 1.377 . S
C1633 C1632 1.524 . S
C1633 C1634 1.397 . S
C1633 C1638 1.363 . S
C1634 H1611 0.950 . S
C1634 C1633 1.397 . S
C1634 C1635 1.334 . S
C1635 H1612 0.950 . S
C1635 C1634 1.334 . S
C1635 C1636 1.287 . S
C1636 C1635 1.287 . S
C1636 C1637 1.524 . S
C1636 H1655 0.913 . S
C1637 H1613 0.950 . S
C1637 C1636 1.524 . S
C1637 C1638 1.415 . S
C1638 H1614 0.950 . S
C1638 C1633 1.363 . S
C1638 C1637 1.415 . S
C1639 H1615 0.951 . S
C1639 C1640 1.366 . S
C1639 C1641 1.388 . S
C1640 C1639 1.366 . S
C1640 C1644 1.385 . S
C1641 H1616 0.951 . S
C1641 C1639 1.388 . S
C1641 C1642 1.366 . S
C1642 C1641 1.366 . S
C1642 C1643 1.414 . S
C1642 C1645 1.499 . S
C1643 H1617 0.950 . S
C1643 C1642 1.414 . S
C1643 C1644 1.374 . S
C1644 H1618 0.950 . S
C1644 C1640 1.385 . S
C1644 C1643 1.374 . S
C1645 C1642 1.499 . S
C1645 C1646 1.373 . S
C1645 C1647 1.389 . S
C1646 H1619 0.950 . S
C1646 C1632 1.377 . S
C1646 C1645 1.373 . S
C1647 C1631 1.377 . S
C1647 C1645 1.389 . S
C1647 C1648 1.524 . S
C1648 C1647 1.524 . S
C1648 C1649 1.397 . S
C1648 C1653 1.363 . S
C1649 H1620 0.950 . S
C1649 C1648 1.397 . S
C1649 C1650 1.334 . S
C1650 H1621 0.950 . S
C1650 C1649 1.334 . S
C1650 C1651 1.287 . S
C1651 C1650 1.287 . S
C1651 C1652 1.524 . S
C1651 H1654 0.999 . S
C1652 H1622 0.950 . S
C1652 C1651 1.524 . S
C1652 C1653 1.415 . S
C1653 H1623 0.950 . S
C1653 C1648 1.363 . S
C1653 C1652 1.415 . S
H1654 C1651 0.999 . S
H1655 C1636 0.913 . S
H1656 C1674 0.951 . S
H1657 C1676 0.951 . S
H1658 C1678 0.950 . S
H1659 C1679 0.950 . S
H1660 C1681 0.950 . S
H1661 C1684 0.950 . S
H1662 C1685 0.950 . S
H1663 C1687 0.950 . S
H1664 C1688 0.950 . S
H1665 C1689 0.951 . S
H1666 C1691 0.951 . S
H1667 C1693 0.950 . S
H1668 C1694 0.950 . S
H1669 C1696 0.950 . S
H1670 C1699 0.950 . S
H1671 C1700 0.950 . S
H1672 C1702 0.950 . S
H1673 C1703 0.950 . S
C1674 H1656 0.951 . S
C1674 C1675 1.366 . S
C1674 C1676 1.388 . S
C1675 C1674 1.366 . S
C1675 C1679 1.385 . S
C1676 H1657 0.951 . S
C1676 C1674 1.388 . S
C1676 C1677 1.366 . S
C1677 C1676 1.366 . S
C1677 C1678 1.414 . S
C1677 C1680 1.499 . S
C1678 H1658 0.950 . S
C1678 C1677 1.414 . S
C1678 C1679 1.374 . S
C1679 H1659 0.950 . S
C1679 C1675 1.385 . S
C1679 C1678 1.374 . S
C1680 C1677 1.499 . S
C1680 C1681 1.373 . S
C1680 C1682 1.389 . S
C1681 H1660 0.950 . S
C1681 C1680 1.373 . S
C1681 C1697 1.377 . S
C1682 C1680 1.389 . S
C1682 C1683 1.524 . S
C1682 C1696 1.377 . S
C1683 C1682 1.524 . S
C1683 C1684 1.397 . S
C1683 C1688 1.363 . S
C1684 H1661 0.950 . S
C1684 C1683 1.397 . S
C1684 C1685 1.334 . S
C1685 H1662 0.950 . S
C1685 C1684 1.334 . S
C1685 C1686 1.287 . S
C1686 C1685 1.287 . S
C1686 C1687 1.524 . S
C1686 H1705 0.913 . S
C1687 H1663 0.950 . S
C1687 C1686 1.524 . S
C1687 C1688 1.415 . S
C1688 H1664 0.950 . S
C1688 C1683 1.363 . S
C1688 C1687 1.415 . S
C1689 H1665 0.951 . S
C1689 C1690 1.366 . S
C1689 C1691 1.388 . S
C1690 C1689 1.366 . S
C1690 C1694 1.385 . S
C1691 H1666 0.951 . S
C1691 C1689 1.388 . S
C1691 C1692 1.366 . S
C1692 C1691 1.366 . S
C1692 C1693 1.414 . S
C1692 C1695 1.499 . S
C1693 H1667 0.950 . S
C1693 C1692 1.414 . S
C1693 C1694 1.374 . S
C1694 H1668 0.950 . S
C1694 C1690 1.385 . S
C1694 C1693 1.374 . S
C1695 C1692 1.499 . S
C1695 C1696 1.373 . S
C1695 C1697 1.389 . S
C1696 H1669 0.950 . S
C1696 C1682 1.377 . S
C1696 C1695 1.373 . S
C1697 C1681 1.377 . S
C1697 C1695 1.389 . S
C1697 C1698 1.524 . S
C1698 C1697 1.524 . S
C1698 C1699 1.397 . S
C1698 C1703 1.363 . S
C1699 H1670 0.950 . S
C1699 C1698 1.397 . S
C1699 C1700 1.334 . S
C1700 H1671 0.950 . S
C1700 C1699 1.334 . S
C1700 C1701 1.287 . S
C1701 C1700 1.287 . S
C1701 C1702 1.524 . S
C1701 H1704 0.999 . S
C1702 H1672 0.950 . S
C1702 C1701 1.524 . S
C1702 C1703 1.415 . S
C1703 H1673 0.950 . S
C1703 C1698 1.363 . S
C1703 C1702 1.415 . S
H1704 C1701 0.999 . S
H1705 C1686 0.913 . S
H1706 C1724 0.951 . S
H1707 C1726 0.951 . S
H1708 C1728 0.950 . S
H1709 C1729 0.950 . S
H1710 C1731 0.950 . S
H1711 C1734 0.950 . S
H1712 C1735 0.950 . S
H1713 C1737 0.950 . S
H1714 C1738 0.950 . S
H1715 C1739 0.951 . S
H1716 C1741 0.951 . S
H1717 C1743 0.950 . S
H1718 C1744 0.950 . S
H1719 C1746 0.950 . S
H1720 C1749 0.950 . S
H1721 C1750 0.950 . S
H1722 C1752 0.950 . S
H1723 C1753 0.950 . S
C1724 H1706 0.951 . S
C1724 C1725 1.366 . S
C1724 C1726 1.388 . S
C1725 C1724 1.366 . S
C1725 C1729 1.385 . S
C1726 H1707 0.951 . S
C1726 C1724 1.388 . S
C1726 C1727 1.366 . S
C1727 C1726 1.366 . S
C1727 C1728 1.414 . S
C1727 C1730 1.499 . S
C1728 H1708 0.950 . S
C1728 C1727 1.414 . S
C1728 C1729 1.374 . S
C1729 H1709 0.950 . S
C1729 C1725 1.385 . S
C1729 C1728 1.374 . S
C1730 C1727 1.499 . S
C1730 C1731 1.373 . S
C1730 C1732 1.389 . S
C1731 H1710 0.950 . S
C1731 C1730 1.373 . S
C1731 C1747 1.377 . S
C1732 C1730 1.389 . S
C1732 C1733 1.524 . S
C1732 C1746 1.377 . S
C1733 C1732 1.524 . S
C1733 C1734 1.397 . S
C1733 C1738 1.363 . S
C1734 H1711 0.950 . S
C1734 C1733 1.397 . S
C1734 C1735 1.334 . S
C1735 H1712 0.950 . S
C1735 C1734 1.334 . S
C1735 C1736 1.287 . S
C1736 C1735 1.287 . S
C1736 C1737 1.524 . S
C1736 H1755 0.913 . S
C1737 H1713 0.950 . S
C1737 C1736 1.524 . S
C1737 C1738 1.415 . S
C1738 H1714 0.950 . S
C1738 C1733 1.363 . S
C1738 C1737 1.415 . S
C1739 H1715 0.951 . S
C1739 C1740 1.366 . S
C1739 C1741 1.388 . S
C1740 C1739 1.366 . S
C1740 C1744 1.385 . S
C1741 H1716 0.951 . S
C1741 C1739 1.388 . S
C1741 C1742 1.366 . S
C1742 C1741 1.366 . S
C1742 C1743 1.414 . S
C1742 C1745 1.499 . S
C1743 H1717 0.950 . S
C1743 C1742 1.414 . S
C1743 C1744 1.374 . S
C1744 H1718 0.950 . S
C1744 C1740 1.385 . S
C1744 C1743 1.374 . S
C1745 C1742 1.499 . S
C1745 C1746 1.373 . S
C1745 C1747 1.389 . S
C1746 H1719 0.950 . S
C1746 C1732 1.377 . S
C1746 C1745 1.373 . S
C1747 C1731 1.377 . S
C1747 C1745 1.389 . S
C1747 C1748 1.524 . S
C1748 C1747 1.524 . S
C1748 C1749 1.397 . S
C1748 C1753 1.363 . S
C1749 H1720 0.950 . S
C1749 C1748 1.397 . S
C1749 C1750 1.334 . S
C1750 H1721 0.950 . S
C1750 C1749 1.334 . S
C1750 C1751 1.287 . S
C1751 C1750 1.287 . S
C1751 C1752 1.524 . S
C1751 H1754 0.999 . S
C1752 H1722 0.950 . S
C1752 C1751 1.524 . S
C1752 C1753 1.415 . S
C1753 H1723 0.950 . S
C1753 C1748 1.363 . S
C1753 C1752 1.415 . S
H1754 C1751 0.999 . S
H1755 C1736 0.913 . S
H1756 C1774 0.951 . S
H1757 C1776 0.951 . S
H1758 C1778 0.950 . S
H1759 C1779 0.950 . S
H1760 C1781 0.950 . S
H1761 C1784 0.950 . S
H1762 C1785 0.950 . S
H1763 C1787 0.950 . S
H1764 C1788 0.950 . S
H1765 C1789 0.951 . S
H1766 C1791 0.951 . S
H1767 C1793 0.950 . S
H1768 C1794 0.950 . S
H1769 C1796 0.950 . S
H1770 C1799 0.950 . S
H1771 C1800 0.950 . S
H1772 C1802 0.950 . S
H1773 C1803 0.950 . S
C1774 H1756 0.951 . S
C1774 C1775 1.366 . S
C1774 C1776 1.388 . S
C1775 C1774 1.366 . S
C1775 C1779 1.385 . S
C1776 H1757 0.951 . S
C1776 C1774 1.388 . S
C1776 C1777 1.366 . S
C1777 C1776 1.366 . S
C1777 C1778 1.414 . S
C1777 C1780 1.499 . S
C1778 H1758 0.950 . S
C1778 C1777 1.414 . S
C1778 C1779 1.374 . S
C1779 H1759 0.950 . S
C1779 C1775 1.385 . S
C1779 C1778 1.374 . S
C1780 C1777 1.499 . S
C1780 C1781 1.373 . S
C1780 C1782 1.389 . S
C1781 H1760 0.950 . S
C1781 C1780 1.373 . S
C1781 C1797 1.377 . S
C1782 C1780 1.389 . S
C1782 C1783 1.524 . S
C1782 C1796 1.377 . S
C1783 C1782 1.524 . S
C1783 C1784 1.397 . S
C1783 C1788 1.363 . S
C1784 H1761 0.950 . S
C1784 C1783 1.397 . S
C1784 C1785 1.334 . S
C1785 H1762 0.950 . S
C1785 C1784 1.334 . S
C1785 C1786 1.287 . S
C1786 C1785 1.287 . S
C1786 C1787 1.524 . S
C1786 H1805 0.913 . S
C1787 H1763 0.950 . S
C1787 C1786 1.524 . S
C1787 C1788 1.415 . S
C1788 H1764 0.950 . S
C1788 C1783 1.363 . S
C1788 C1787 1.415 . S
C1789 H1765 0.951 . S
C1789 C1790 1.366 . S
C1789 C1791 1.388 . S
C1790 C1789 1.366 . S
C1790 C1794 1.385 . S
C1791 H1766 0.951 . S
C1791 C1789 1.388 . S
C1791 C1792 1.366 . S
C1792 C1791 1.366 . S
C1792 C1793 1.414 . S
C1792 C1795 1.499 . S
C1793 H1767 0.950 . S
C1793 C1792 1.414 . S
C1793 C1794 1.374 . S
C1794 H1768 0.950 . S
C1794 C1790 1.385 . S
C1794 C1793 1.374 . S
C1795 C1792 1.499 . S
C1795 C1796 1.373 . S
C1795 C1797 1.389 . S
C1796 H1769 0.950 . S
C1796 C1782 1.377 . S
C1796 C1795 1.373 . S
C1797 C1781 1.377 . S
C1797 C1795 1.389 . S
C1797 C1798 1.524 . S
C1798 C1797 1.524 . S
C1798 C1799 1.397 . S
C1798 C1803 1.363 . S
C1799 H1770 0.950 . S
C1799 C1798 1.397 . S
C1799 C1800 1.334 . S
C1800 H1771 0.950 . S
C1800 C1799 1.334 . S
C1800 C1801 1.287 . S
C1801 C1800 1.287 . S
C1801 C1802 1.524 . S
C1801 H1804 0.999 . S
C1802 H1772 0.950 . S
C1802 C1801 1.524 . S
C1802 C1803 1.415 . S
C1803 H1773 0.950 . S
C1803 C1798 1.363 . S
C1803 C1802 1.415 . S
H1804 C1801 0.999 . S
H1805 C1786 0.913 . S
H1806 C1824 0.951 . S
H1807 C1826 0.951 . S
H1808 C1828 0.950 . S
H1809 C1829 0.950 . S
H1810 C1831 0.950 . S
H1811 C1834 0.950 . S
H1812 C1835 0.950 . S
H1813 C1837 0.950 . S
H1814 C1838 0.950 . S
H1815 C1839 0.951 . S
H1816 C1841 0.951 . S
H1817 C1843 0.950 . S
H1818 C1844 0.950 . S
H1819 C1846 0.950 . S
H1820 C1849 0.950 . S
H1821 C1850 0.950 . S
H1822 C1852 0.950 . S
H1823 C1853 0.950 . S
C1824 H1806 0.951 . S
C1824 C1825 1.366 . S
C1824 C1826 1.388 . S
C1825 C1824 1.366 . S
C1825 C1829 1.385 . S
C1826 H1807 0.951 . S
C1826 C1824 1.388 . S
C1826 C1827 1.366 . S
C1827 C1826 1.366 . S
C1827 C1828 1.414 . S
C1827 C1830 1.499 . S
C1828 H1808 0.950 . S
C1828 C1827 1.414 . S
C1828 C1829 1.374 . S
C1829 H1809 0.950 . S
C1829 C1825 1.385 . S
C1829 C1828 1.374 . S
C1830 C1827 1.499 . S
C1830 C1831 1.373 . S
C1830 C1832 1.389 . S
C1831 H1810 0.950 . S
C1831 C1830 1.373 . S
C1831 C1847 1.377 . S
C1832 C1830 1.389 . S
C1832 C1833 1.524 . S
C1832 C1846 1.377 . S
C1833 C1832 1.524 . S
C1833 C1834 1.397 . S
C1833 C1838 1.363 . S
C1834 H1811 0.950 . S
C1834 C1833 1.397 . S
C1834 C1835 1.334 . S
C1835 H1812 0.950 . S
C1835 C1834 1.334 . S
C1835 C1836 1.287 . S
C1836 C1835 1.287 . S
C1836 C1837 1.524 . S
C1836 H1855 0.913 . S
C1837 H1813 0.950 . S
C1837 C1836 1.524 . S
C1837 C1838 1.415 . S
C1838 H1814 0.950 . S
C1838 C1833 1.363 . S
C1838 C1837 1.415 . S
C1839 H1815 0.951 . S
C1839 C1840 1.366 . S
C1839 C1841 1.388 . S
C1840 C1839 1.366 . S
C1840 C1844 1.385 . S
C1841 H1816 0.951 . S
C1841 C1839 1.388 . S
C1841 C1842 1.366 . S
C1842 C1841 1.366 . S
C1842 C1843 1.414 . S
C1842 C1845 1.499 . S
C1843 H1817 0.950 . S
C1843 C1842 1.414 . S
C1843 C1844 1.374 . S
C1844 H1818 0.950 . S
C1844 C1840 1.385 . S
C1844 C1843 1.374 . S
C1845 C1842 1.499 . S
C1845 C1846 1.373 . S
C1845 C1847 1.389 . S
C1846 H1819 0.950 . S
C1846 C1832 1.377 . S
C1846 C1845 1.373 . S
C1847 C1831 1.377 . S
C1847 C1845 1.389 . S
C1847 C1848 1.524 . S
C1848 C1847 1.524 . S
C1848 C1849 1.397 . S
C1848 C1853 1.363 . S
C1849 H1820 0.950 . S
C1849 C1848 1.397 . S
C1849 C1850 1.334 . S
C1850 H1821 0.950 . S
C1850 C1849 1.334 . S
C1850 C1851 1.287 . S
C1851 C1850 1.287 . S
C1851 C1852 1.524 . S
C1851 H1854 0.999 . S
C1852 H1822 0.950 . S
C1852 C1851 1.524 . S
C1852 C1853 1.415 . S
C1853 H1823 0.950 . S
C1853 C1848 1.363 . S
C1853 C1852 1.415 . S
H1854 C1851 0.999 . S
H1855 C1836 0.913 . S
H1856 C1874 0.951 . S
H1857 C1876 0.951 . S
H1858 C1878 0.950 . S
H1859 C1879 0.950 . S
H1860 C1881 0.950 . S
H1861 C1884 0.950 . S
H1862 C1885 0.950 . S
H1863 C1887 0.950 . S
H1864 C1888 0.950 . S
H1865 C1889 0.951 . S
H1866 C1891 0.951 . S
H1867 C1893 0.950 . S
H1868 C1894 0.950 . S
H1869 C1896 0.950 . S
H1870 C1899 0.950 . S
H1871 C1900 0.950 . S
H1872 C1902 0.950 . S
H1873 C1903 0.950 . S
C1874 H1856 0.951 . S
C1874 C1875 1.366 . S
C1874 C1876 1.388 . S
C1875 C1874 1.366 . S
C1875 C1879 1.385 . S
C1876 H1857 0.951 . S
C1876 C1874 1.388 . S
C1876 C1877 1.366 . S
C1877 C1876 1.366 . S
C1877 C1878 1.414 . S
C1877 C1880 1.499 . S
C1878 H1858 0.950 . S
C1878 C1877 1.414 . S
C1878 C1879 1.374 . S
C1879 H1859 0.950 . S
C1879 C1875 1.385 . S
C1879 C1878 1.374 . S
C1880 C1877 1.499 . S
C1880 C1881 1.373 . S
C1880 C1882 1.389 . S
C1881 H1860 0.950 . S
C1881 C1880 1.373 . S
C1881 C1897 1.377 . S
C1882 C1880 1.389 . S
C1882 C1883 1.524 . S
C1882 C1896 1.377 . S
C1883 C1882 1.524 . S
C1883 C1884 1.397 . S
C1883 C1888 1.363 . S
C1884 H1861 0.950 . S
C1884 C1883 1.397 . S
C1884 C1885 1.334 . S
C1885 H1862 0.950 . S
C1885 C1884 1.334 . S
C1885 C1886 1.287 . S
C1886 C1885 1.287 . S
C1886 C1887 1.524 . S
C1886 H1905 0.913 . S
C1887 H1863 0.950 . S
C1887 C1886 1.524 . S
C1887 C1888 1.415 . S
C1888 H1864 0.950 . S
C1888 C1883 1.363 . S
C1888 C1887 1.415 . S
C1889 H1865 0.951 . S
C1889 C1890 1.366 . S
C1889 C1891 1.388 . S
C1890 C1889 1.366 . S
C1890 C1894 1.385 . S
C1891 H1866 0.951 . S
C1891 C1889 1.388 . S
C1891 C1892 1.366 . S
C1892 C1891 1.366 . S
C1892 C1893 1.414 . S
C1892 C1895 1.499 . S
C1893 H1867 0.950 . S
C1893 C1892 1.414 . S
C1893 C1894 1.374 . S
C1894 H1868 0.950 . S
C1894 C1890 1.385 . S
C1894 C1893 1.374 . S
C1895 C1892 1.499 . S
C1895 C1896 1.373 . S
C1895 C1897 1.389 . S
C1896 H1869 0.950 . S
C1896 C1882 1.377 . S
C1896 C1895 1.373 . S
C1897 C1881 1.377 . S
C1897 C1895 1.389 . S
C1897 C1898 1.524 . S
C1898 C1897 1.524 . S
C1898 C1899 1.397 . S
C1898 C1903 1.363 . S
C1899 H1870 0.950 . S
C1899 C1898 1.397 . S
C1899 C1900 1.334 . S
C1900 H1871 0.950 . S
C1900 C1899 1.334 . S
C1900 C1901 1.287 . S
C1901 C1900 1.287 . S
C1901 C1902 1.524 . S
C1901 H1904 0.999 . S
C1902 H1872 0.950 . S
C1902 C1901 1.524 . S
C1902 C1903 1.415 . S
C1903 H1873 0.950 . S
C1903 C1898 1.363 . S
C1903 C1902 1.415 . S
H1904 C1901 0.999 . S
H1905 C1886 0.913 . S
H1906 C1924 0.951 . S
H1907 C1926 0.951 . S
H1908 C1928 0.950 . S
H1909 C1929 0.950 . S
H1910 C1931 0.950 . S
H1911 C1934 0.950 . S
H1912 C1935 0.950 . S
H1913 C1937 0.950 . S
H1914 C1938 0.950 . S
H1915 C1939 0.951 . S
H1916 C1941 0.951 . S
H1917 C1943 0.950 . S
H1918 C1944 0.950 . S
H1919 C1946 0.950 . S
H1920 C1949 0.950 . S
H1921 C1950 0.950 . S
H1922 C1952 0.950 . S
H1923 C1953 0.950 . S
C1924 H1906 0.951 . S
C1924 C1925 1.366 . S
C1924 C1926 1.388 . S
C1925 C1924 1.366 . S
C1925 C1929 1.385 . S
C1926 H1907 0.951 . S
C1926 C1924 1.388 . S
C1926 C1927 1.366 . S
C1927 C1926 1.366 . S
C1927 C1928 1.414 . S
C1927 C1930 1.499 . S
C1928 H1908 0.950 . S
C1928 C1927 1.414 . S
C1928 C1929 1.374 . S
C1929 H1909 0.950 . S
C1929 C1925 1.385 . S
C1929 C1928 1.374 . S
C1930 C1927 1.499 . S
C1930 C1931 1.373 . S
C1930 C1932 1.389 . S
C1931 H1910 0.950 . S
C1931 C1930 1.373 . S
C1931 C1947 1.377 . S
C1932 C1930 1.389 . S
C1932 C1933 1.524 . S
C1932 C1946 1.377 . S
C1933 C1932 1.524 . S
C1933 C1934 1.397 . S
C1933 C1938 1.363 . S
C1934 H1911 0.950 . S
C1934 C1933 1.397 . S
C1934 C1935 1.334 . S
C1935 H1912 0.950 . S
C1935 C1934 1.334 . S
C1935 C1936 1.287 . S
C1936 C1935 1.287 . S
C1936 C1937 1.524 . S
C1936 H1955 0.913 . S
C1937 H1913 0.950 . S
C1937 C1936 1.524 . S
C1937 C1938 1.415 . S
C1938 H1914 0.950 . S
C1938 C1933 1.363 . S
C1938 C1937 1.415 . S
C1939 H1915 0.951 . S
C1939 C1940 1.366 . S
C1939 C1941 1.388 . S
C1940 C1939 1.366 . S
C1940 C1944 1.385 . S
C1941 H1916 0.951 . S
C1941 C1939 1.388 . S
C1941 C1942 1.366 . S
C1942 C1941 1.366 . S
C1942 C1943 1.414 . S
C1942 C1945 1.499 . S
C1943 H1917 0.950 . S
C1943 C1942 1.414 . S
C1943 C1944 1.374 . S
C1944 H1918 0.950 . S
C1944 C1940 1.385 . S
C1944 C1943 1.374 . S
C1945 C1942 1.499 . S
C1945 C1946 1.373 . S
C1945 C1947 1.389 . S
C1946 H1919 0.950 . S
C1946 C1932 1.377 . S
C1946 C1945 1.373 . S
C1947 C1931 1.377 . S
C1947 C1945 1.389 . S
C1947 C1948 1.524 . S
C1948 C1947 1.524 . S
C1948 C1949 1.397 . S
C1948 C1953 1.363 . S
C1949 H1920 0.950 . S
C1949 C1948 1.397 . S
C1949 C1950 1.334 . S
C1950 H1921 0.950 . S
C1950 C1949 1.334 . S
C1950 C1951 1.287 . S
C1951 C1950 1.287 . S
C1951 C1952 1.524 . S
C1951 H1954 0.999 . S
C1952 H1922 0.950 . S
C1952 C1951 1.524 . S
C1952 C1953 1.415 . S
C1953 H1923 0.950 . S
C1953 C1948 1.363 . S
C1953 C1952 1.415 . S
H1954 C1951 0.999 . S
H1955 C1936 0.913 . S
H1956 C1974 0.951 . S
H1957 C1976 0.951 . S
H1958 C1978 0.950 . S
H1959 C1979 0.950 . S
H1960 C1981 0.950 . S
H1961 C1984 0.950 . S
H1962 C1985 0.950 . S
H1963 C1987 0.950 . S
H1964 C1988 0.950 . S
H1965 C1989 0.951 . S
H1966 C1991 0.951 . S
H1967 C1993 0.950 . S
H1968 C1994 0.950 . S
H1969 C1996 0.950 . S
H1970 C1999 0.950 . S
H1971 C2000 0.950 . S
H1972 C2002 0.950 . S
H1973 C2003 0.944 1_554 S
C1974 H1956 0.951 . S
C1974 C1975 1.366 . S
C1974 C1976 1.388 . S
C1975 C1974 1.366 . S
C1975 C1979 1.385 . S
C1976 H1957 0.951 . S
C1976 C1974 1.388 . S
C1976 C1977 1.366 . S
C1977 C1976 1.366 . S
C1977 C1978 1.414 . S
C1977 C1980 1.499 . S
C1978 H1958 0.950 . S
C1978 C1977 1.414 . S
C1978 C1979 1.374 . S
C1979 H1959 0.950 . S
C1979 C1975 1.385 . S
C1979 C1978 1.374 . S
C1980 C1977 1.499 . S
C1980 C1981 1.373 . S
C1980 C1982 1.389 . S
C1981 H1960 0.950 . S
C1981 C1980 1.373 . S
C1981 C1997 1.377 . S
C1982 C1980 1.389 . S
C1982 C1983 1.524 . S
C1982 C1996 1.377 . S
C1983 C1982 1.524 . S
C1983 C1984 1.397 . S
C1983 C1988 1.363 . S
C1984 H1961 0.950 . S
C1984 C1983 1.397 . S
C1984 C1985 1.334 . S
C1985 H1962 0.950 . S
C1985 C1984 1.334 . S
C1985 C1986 1.287 . S
C1986 C1985 1.287 . S
C1986 C1987 1.524 . S
C1986 H2005 0.913 . S
C1987 H1963 0.950 . S
C1987 C1986 1.524 . S
C1987 C1988 1.415 . S
C1988 H1964 0.950 . S
C1988 C1983 1.363 . S
C1988 C1987 1.415 . S
C1989 H1965 0.951 . S
C1989 C1990 1.366 . S
C1989 C1991 1.388 . S
C1990 C1989 1.366 . S
C1990 C1994 1.385 . S
C1991 H1966 0.951 . S
C1991 C1989 1.388 . S
C1991 C1992 1.366 . S
C1992 C1991 1.366 . S
C1992 C1993 1.414 . S
C1992 C1995 1.499 . S
C1993 H1967 0.950 . S
C1993 C1992 1.414 . S
C1993 C1994 1.374 . S
C1994 H1968 0.950 . S
C1994 C1990 1.385 . S
C1994 C1993 1.374 . S
C1995 C1992 1.499 . S
C1995 C1996 1.373 . S
C1995 C1997 1.389 . S
C1996 H1969 0.950 . S
C1996 C1982 1.377 . S
C1996 C1995 1.373 . S
C1997 C1981 1.377 . S
C1997 C1995 1.389 . S
C1997 C1998 1.524 . S
C1998 C1997 1.524 . S
C1998 C1999 1.397 . S
C1998 C2003 1.363 1_554 S
C1999 H1970 0.950 . S
C1999 C1998 1.397 . S
C1999 C2000 1.334 1_554 S
C2000 H1971 0.950 . S
C2000 C1999 1.334 1_556 S
C2000 C2001 1.287 . S
C2001 C2000 1.287 . S
C2001 C2002 1.524 . S
C2001 H2004 0.999 . S
C2002 H1972 0.950 . S
C2002 C2001 1.524 . S
C2002 C2003 1.415 . S
C2003 H1973 0.944 1_556 S
C2003 C1998 1.363 1_556 S
C2003 C2002 1.415 . S
H2004 C2001 0.999 . S
H2005 C1986 0.913 . S
H2006 C2024 0.951 1_455 S
H2007 C2026 0.951 . S
H2008 C2028 0.950 . S
H2009 C2029 0.950 . S
H2010 C2031 0.950 . S
H2011 C2034 0.939 1_655 S
H2012 C2035 0.950 1_655 S
H2013 C2037 0.950 . S
H2014 C2038 0.950 . S
H2015 C2039 0.951 1_655 S
H2016 C2041 0.951 . S
H2017 C2043 0.950 . S
H2018 C2044 0.950 . S
H2019 C2046 0.950 . S
H2020 C2049 0.939 1_455 S
H2021 C2050 0.950 1_455 S
H2022 C2052 0.950 . S
H2023 C2053 0.950 . S
C2024 H2006 0.951 1_655 S
C2024 C2025 1.366 . S
C2024 C2026 1.388 1_655 S
C2025 C2024 1.366 . S
C2025 C2029 1.385 . S
C2026 H2007 0.951 . S
C2026 C2024 1.388 1_455 S
C2026 C2027 1.366 1_455 S
C2027 C2026 1.366 1_655 S
C2027 C2028 1.414 . S
C2027 C2030 1.499 . S
C2028 H2008 0.950 . S
C2028 C2027 1.414 . S
C2028 C2029 1.374 . S
C2029 H2009 0.950 . S
C2029 C2025 1.385 . S
C2029 C2028 1.374 . S
C2030 C2027 1.499 . S
C2030 C2031 1.373 . S
C2030 C2032 1.389 1_655 S
C2031 H2010 0.950 . S
C2031 C2030 1.373 . S
C2031 C2047 1.377 . S
C2032 C2030 1.389 1_455 S
C2032 C2033 1.524 . S
C2032 C2046 1.377 . S
C2033 C2032 1.524 . S
C2033 C2034 1.408 . S
C2033 C2038 1.363 . S
C2034 H2011 0.939 1_455 S
C2034 C2033 1.408 . S
C2034 C2035 1.334 . S
C2035 H2012 0.950 1_455 S
C2035 C2034 1.334 . S
C2035 C2036 1.287 . S
C2036 C2035 1.287 . S
C2036 C2037 1.524 . S
C2036 H2055 0.913 . S
C2037 H2013 0.950 . S
C2037 C2036 1.524 . S
C2037 C2038 1.415 . S
C2038 H2014 0.950 . S
C2038 C2033 1.363 . S
C2038 C2037 1.415 . S
C2039 H2015 0.951 1_455 S
C2039 C2040 1.366 . S
C2039 C2041 1.388 1_455 S
C2040 C2039 1.366 . S
C2040 C2044 1.385 . S
C2041 H2016 0.951 . S
C2041 C2039 1.388 1_655 S
C2041 C2042 1.366 1_655 S
C2042 C2041 1.366 1_455 S
C2042 C2043 1.414 . S
C2042 C2045 1.499 . S
C2043 H2017 0.950 . S
C2043 C2042 1.414 . S
C2043 C2044 1.374 . S
C2044 H2018 0.950 . S
C2044 C2040 1.385 . S
C2044 C2043 1.374 . S
C2045 C2042 1.499 . S
C2045 C2046 1.373 . S
C2045 C2047 1.389 1_455 S
C2046 H2019 0.950 . S
C2046 C2032 1.377 . S
C2046 C2045 1.373 . S
C2047 C2031 1.377 . S
C2047 C2045 1.389 1_655 S
C2047 C2048 1.524 . S
C2048 C2047 1.524 . S
C2048 C2049 1.408 . S
C2048 C2053 1.363 . S
C2049 H2020 0.939 1_655 S
C2049 C2048 1.408 . S
C2049 C2050 1.334 . S
C2050 H2021 0.950 1_655 S
C2050 C2049 1.334 . S
C2050 C2051 1.287 . S
C2051 C2050 1.287 . S
C2051 C2052 1.524 . S
C2051 H2054 0.999 . S
C2052 H2022 0.950 . S
C2052 C2051 1.524 . S
C2052 C2053 1.415 . S
C2053 H2023 0.950 . S
C2053 C2048 1.363 . S
C2053 C2052 1.415 . S
H2054 C2051 0.999 . S
H2055 C2036 0.913 . S
H2056 C2074 0.951 . S
H2057 C2076 0.951 . S
H2058 C2078 0.950 . S
H2059 C2079 0.950 . S
H2060 C2081 0.950 . S
H2061 C2084 0.950 . S
H2062 C2085 0.950 . S
H2063 C2087 0.950 . S
H2064 C2088 0.950 . S
H2065 C2089 0.951 . S
H2066 C2091 0.951 . S
H2067 C2093 0.950 . S
H2068 C2094 0.950 . S
H2069 C2096 0.950 . S
H2070 C2099 0.950 . S
H2071 C2100 0.950 . S
H2072 C2102 0.950 . S
H2073 C2103 0.950 . S
C2074 H2056 0.951 . S
C2074 C2075 1.366 . S
C2074 C2076 1.388 . S
C2075 C2074 1.366 . S
C2075 C2079 1.385 . S
C2076 H2057 0.951 . S
C2076 C2074 1.388 . S
C2076 C2077 1.366 . S
C2077 C2076 1.366 . S
C2077 C2078 1.414 . S
C2077 C2080 1.499 . S
C2078 H2058 0.950 . S
C2078 C2077 1.414 . S
C2078 C2079 1.374 . S
C2079 H2059 0.950 . S
C2079 C2075 1.385 . S
C2079 C2078 1.374 . S
C2080 C2077 1.499 . S
C2080 C2081 1.373 1_545 S
C2080 C2082 1.389 . S
C2081 H2060 0.950 . S
C2081 C2080 1.373 1_565 S
C2081 C2097 1.377 . S
C2082 C2080 1.389 . S
C2082 C2083 1.524 . S
C2082 C2096 1.377 . S
C2083 C2082 1.524 . S
C2083 C2084 1.397 . S
C2083 C2088 1.363 . S
C2084 H2061 0.950 . S
C2084 C2083 1.397 . S
C2084 C2085 1.334 . S
C2085 H2062 0.950 . S
C2085 C2084 1.334 . S
C2085 C2086 1.287 . S
C2086 C2085 1.287 . S
C2086 C2087 1.524 . S
C2086 H2105 0.913 . S
C2087 H2063 0.950 . S
C2087 C2086 1.524 . S
C2087 C2088 1.415 . S
C2088 H2064 0.950 . S
C2088 C2083 1.363 . S
C2088 C2087 1.415 . S
C2089 H2065 0.951 . S
C2089 C2090 1.366 . S
C2089 C2091 1.388 . S
C2090 C2089 1.366 . S
C2090 C2094 1.385 . S
C2091 H2066 0.951 . S
C2091 C2089 1.388 . S
C2091 C2092 1.366 . S
C2092 C2091 1.366 . S
C2092 C2093 1.414 . S
C2092 C2095 1.499 . S
C2093 H2067 0.950 . S
C2093 C2092 1.414 . S
C2093 C2094 1.374 . S
C2094 H2068 0.950 . S
C2094 C2090 1.385 . S
C2094 C2093 1.374 . S
C2095 C2092 1.499 . S
C2095 C2096 1.373 1_565 S
C2095 C2097 1.389 . S
C2096 H2069 0.950 . S
C2096 C2082 1.377 . S
C2096 C2095 1.373 1_545 S
C2097 C2081 1.377 . S
C2097 C2095 1.389 . S
C2097 C2098 1.524 . S
C2098 C2097 1.524 . S
C2098 C2099 1.397 . S
C2098 C2103 1.363 . S
C2099 H2070 0.950 . S
C2099 C2098 1.397 . S
C2099 C2100 1.334 . S
C2100 H2071 0.950 . S
C2100 C2099 1.334 . S
C2100 C2101 1.287 . S
C2101 C2100 1.287 . S
C2101 C2102 1.524 . S
C2101 H2104 0.999 . S
C2102 H2072 0.950 . S
C2102 C2101 1.524 . S
C2102 C2103 1.415 . S
C2103 H2073 0.950 . S
C2103 C2098 1.363 . S
C2103 C2102 1.415 . S
H2104 C2101 0.999 . S
H2105 C2086 0.913 . S
H2106 C2124 0.951 . S
H2107 C2126 0.951 . S
H2108 C2128 0.950 . S
H2109 C2129 0.950 . S
H2110 C2131 0.950 . S
H2111 C2134 0.950 . S
H2112 C2135 0.950 . S
H2113 C2137 0.950 . S
H2114 C2138 0.950 . S
H2115 C2139 0.951 . S
H2116 C2141 0.951 . S
H2117 C2143 0.950 . S
H2118 C2144 0.950 . S
H2119 C2146 0.950 . S
H2120 C2149 0.950 . S
H2121 C2150 0.950 . S
H2122 C2152 0.950 . S
H2123 C2153 0.950 . S
C2124 H2106 0.951 . S
C2124 C2125 1.366 . S
C2124 C2126 1.388 . S
C2125 C2124 1.366 . S
C2125 C2129 1.385 . S
C2126 H2107 0.951 . S
C2126 C2124 1.388 . S
C2126 C2127 1.366 . S
C2127 C2126 1.366 . S
C2127 C2128 1.414 . S
C2127 C2130 1.499 . S
C2128 H2108 0.950 . S
C2128 C2127 1.414 . S
C2128 C2129 1.374 . S
C2129 H2109 0.950 . S
C2129 C2125 1.385 . S
C2129 C2128 1.374 . S
C2130 C2127 1.499 . S
C2130 C2131 1.373 . S
C2130 C2132 1.389 . S
C2131 H2110 0.950 . S
C2131 C2130 1.373 . S
C2131 C2147 1.377 . S
C2132 C2130 1.389 . S
C2132 C2133 1.524 . S
C2132 C2146 1.377 . S
C2133 C2132 1.524 . S
C2133 C2134 1.397 . S
C2133 C2138 1.363 . S
C2134 H2111 0.950 . S
C2134 C2133 1.397 . S
C2134 C2135 1.334 . S
C2135 H2112 0.950 . S
C2135 C2134 1.334 . S
C2135 C2136 1.287 . S
C2136 C2135 1.287 . S
C2136 C2137 1.524 . S
C2136 H2155 0.913 . S
C2137 H2113 0.950 . S
C2137 C2136 1.524 . S
C2137 C2138 1.415 . S
C2138 H2114 0.950 . S
C2138 C2133 1.363 . S
C2138 C2137 1.415 . S
C2139 H2115 0.951 . S
C2139 C2140 1.366 . S
C2139 C2141 1.388 . S
C2140 C2139 1.366 . S
C2140 C2144 1.385 . S
C2141 H2116 0.951 . S
C2141 C2139 1.388 . S
C2141 C2142 1.366 . S
C2142 C2141 1.366 . S
C2142 C2143 1.414 . S
C2142 C2145 1.499 . S
C2143 H2117 0.950 . S
C2143 C2142 1.414 . S
C2143 C2144 1.374 . S
C2144 H2118 0.950 . S
C2144 C2140 1.385 . S
C2144 C2143 1.374 . S
C2145 C2142 1.499 . S
C2145 C2146 1.373 . S
C2145 C2147 1.389 . S
C2146 H2119 0.950 . S
C2146 C2132 1.377 . S
C2146 C2145 1.373 . S
C2147 C2131 1.377 . S
C2147 C2145 1.389 . S
C2147 C2148 1.524 . S
C2148 C2147 1.524 . S
C2148 C2149 1.397 . S
C2148 C2153 1.363 . S
C2149 H2120 0.950 . S
C2149 C2148 1.397 . S
C2149 C2150 1.334 . S
C2150 H2121 0.950 . S
C2150 C2149 1.334 . S
C2150 C2151 1.287 . S
C2151 C2150 1.287 . S
C2151 C2152 1.524 . S
C2151 H2154 0.999 . S
C2152 H2122 0.950 . S
C2152 C2151 1.524 . S
C2152 C2153 1.415 . S
C2153 H2123 0.950 . S
C2153 C2148 1.363 . S
C2153 C2152 1.415 . S
H2154 C2151 0.999 . S
H2155 C2136 0.913 . S
H2156 C2174 0.951 . S
H2157 C2176 0.951 1_655 S
H2158 C2178 0.950 . S
H2159 C2179 0.950 . S
H2160 C2181 0.950 . S
H2161 C2184 0.950 . S
H2162 C2185 0.950 . S
H2163 C2187 0.950 1_655 S
H2164 C2188 0.949 . S
H2165 C2189 0.951 . S
H2166 C2191 0.951 1_455 S
H2167 C2193 0.950 . S
H2168 C2194 0.950 . S
H2169 C2196 0.950 . S
H2170 C2199 0.950 . S
H2171 C2200 0.950 . S
H2172 C2202 0.950 1_455 S
H2173 C2203 0.950 . S
C2174 H2156 0.951 . S
C2174 C2175 1.366 . S
C2174 C2176 1.388 . S
C2175 C2174 1.366 . S
C2175 C2179 1.385 . S
C2176 H2157 0.951 1_455 S
C2176 C2174 1.388 . S
C2176 C2177 1.366 . S
C2177 C2176 1.366 . S
C2177 C2178 1.414 . S
C2177 C2180 1.499 . S
C2178 H2158 0.950 . S
C2178 C2177 1.414 . S
C2178 C2179 1.374 . S
C2179 H2159 0.950 . S
C2179 C2175 1.385 . S
C2179 C2178 1.374 . S
C2180 C2177 1.499 . S
C2180 C2181 1.373 . S
C2180 C2182 1.389 . S
C2181 H2160 0.950 . S
C2181 C2180 1.373 . S
C2181 C2197 1.377 1_455 S
C2182 C2180 1.389 . S
C2182 C2183 1.524 . S
C2182 C2196 1.377 1_455 S
C2183 C2182 1.524 . S
C2183 C2184 1.397 . S
C2183 C2188 1.363 1_456 S
C2184 H2161 0.950 . S
C2184 C2183 1.397 . S
C2184 C2185 1.334 1_556 S
C2185 H2162 0.950 . S
C2185 C2184 1.334 1_554 S
C2185 C2186 1.287 . S
C2186 C2185 1.287 . S
C2186 C2187 1.524 . S
C2186 H2205 0.913 . S
C2187 H2163 0.950 1_455 S
C2187 C2186 1.524 . S
C2187 C2188 1.415 1_455 S
C2188 H2164 0.949 . S
C2188 C2183 1.363 1_654 S
C2188 C2187 1.415 1_655 S
C2189 H2165 0.951 . S
C2189 C2190 1.366 . S
C2189 C2191 1.388 . S
C2190 C2189 1.366 . S
C2190 C2194 1.385 . S
C2191 H2166 0.951 1_655 S
C2191 C2189 1.388 . S
C2191 C2192 1.366 . S
C2192 C2191 1.366 . S
C2192 C2193 1.414 . S
C2192 C2195 1.499 . S
C2193 H2167 0.950 . S
C2193 C2192 1.414 . S
C2193 C2194 1.374 . S
C2194 H2168 0.950 . S
C2194 C2190 1.385 . S
C2194 C2193 1.374 . S
C2195 C2192 1.499 . S
C2195 C2196 1.373 . S
C2195 C2197 1.389 . S
C2196 H2169 0.950 . S
C2196 C2182 1.377 1_655 S
C2196 C2195 1.373 . S
C2197 C2181 1.377 1_655 S
C2197 C2195 1.389 . S
C2197 C2198 1.524 . S
C2198 C2197 1.524 . S
C2198 C2199 1.397 . S
C2198 C2203 1.363 1_655 S
C2199 H2170 0.950 . S
C2199 C2198 1.397 . S
C2199 C2200 1.334 . S
C2200 H2171 0.950 . S
C2200 C2199 1.334 . S
C2200 C2201 1.287 . S
C2201 C2200 1.287 . S
C2201 C2202 1.524 . S
C2201 H2204 0.999 . S
C2202 H2172 0.950 1_655 S
C2202 C2201 1.524 . S
C2202 C2203 1.415 1_655 S
C2203 H2173 0.950 . S
C2203 C2198 1.363 1_455 S
C2203 C2202 1.415 1_455 S
H2204 C2201 0.999 . S
H2205 C2186 0.913 . S
H2206 C2224 0.951 1_545 S
H2207 C2226 0.911 1_545 S
H2208 C2228 0.950 . S
H2209 C2229 0.950 . S
H2210 C2231 0.950 . S
H2211 C2234 0.950 . S
H2212 C2235 0.950 . S
H2213 C2237 0.950 . S
H2214 C2238 0.950 . S
H2215 C2239 0.951 1_565 S
H2216 C2241 0.911 1_565 S
H2217 C2243 0.950 . S
H2218 C2244 0.950 . S
H2219 C2246 0.950 . S
H2220 C2249 0.950 . S
H2221 C2250 0.950 . S
H2222 C2252 0.950 . S
H2223 C2253 0.950 . S
C2224 H2206 0.951 1_565 S
C2224 C2225 1.366 . S
C2224 C2226 1.420 . S
C2225 C2224 1.366 . S
C2225 C2229 1.385 . S
C2226 H2207 0.911 1_565 S
C2226 C2224 1.420 . S
C2226 C2227 1.373 . S
C2227 C2226 1.373 . S
C2227 C2228 1.414 . S
C2227 C2230 1.499 . S
C2228 H2208 0.950 . S
C2228 C2227 1.414 . S
C2228 C2229 1.374 . S
C2229 H2209 0.950 . S
C2229 C2225 1.385 . S
C2229 C2228 1.374 . S
C2230 C2227 1.499 . S
C2230 C2231 1.373 . S
C2230 C2232 1.402 . S
C2231 H2210 0.950 . S
C2231 C2230 1.373 . S
C2231 C2247 1.357 1_565 S
C2232 C2230 1.402 . S
C2232 C2233 1.531 . S
C2232 C2246 1.357 1_565 S
C2233 C2232 1.531 . S
C2233 C2234 1.397 . S
C2233 C2238 1.363 1_565 S
C2234 H2211 0.950 . S
C2234 C2233 1.397 . S
C2234 C2235 1.334 . S
C2235 H2212 0.950 . S
C2235 C2234 1.334 . S
C2235 C2236 1.287 . S
C2236 C2235 1.287 . S
C2236 C2237 1.524 1_565 S
C2236 H2255 0.913 . S
C2237 H2213 0.950 . S
C2237 C2236 1.524 1_545 S
C2237 C2238 1.415 . S
C2238 H2214 0.950 . S
C2238 C2233 1.363 1_545 S
C2238 C2237 1.415 . S
C2239 H2215 0.951 1_545 S
C2239 C2240 1.366 . S
C2239 C2241 1.420 . S
C2240 C2239 1.366 . S
C2240 C2244 1.385 . S
C2241 H2216 0.911 1_545 S
C2241 C2239 1.420 . S
C2241 C2242 1.373 . S
C2242 C2241 1.373 . S
C2242 C2243 1.414 . S
C2242 C2245 1.499 . S
C2243 H2217 0.950 . S
C2243 C2242 1.414 . S
C2243 C2244 1.374 . S
C2244 H2218 0.950 . S
C2244 C2240 1.385 . S
C2244 C2243 1.374 . S
C2245 C2242 1.499 . S
C2245 C2246 1.373 . S
C2245 C2247 1.402 . S
C2246 H2219 0.950 . S
C2246 C2232 1.357 1_545 S
C2246 C2245 1.373 . S
C2247 C2231 1.357 1_545 S
C2247 C2245 1.402 . S
C2247 C2248 1.531 . S
C2248 C2247 1.531 . S
C2248 C2249 1.397 . S
C2248 C2253 1.363 1_545 S
C2249 H2220 0.950 . S
C2249 C2248 1.397 . S
C2249 C2250 1.334 . S
C2250 H2221 0.950 . S
C2250 C2249 1.334 . S
C2250 C2251 1.287 . S
C2251 C2250 1.287 . S
C2251 C2252 1.524 1_545 S
C2251 H2254 0.999 . S
C2252 H2222 0.950 . S
C2252 C2251 1.524 1_565 S
C2252 C2253 1.415 . S
C2253 H2223 0.950 . S
C2253 C2248 1.363 1_565 S
C2253 C2252 1.415 . S
H2254 C2251 0.999 . S
H2255 C2236 0.913 . S
C1075 C673 1.286 . S
C1090 C29 1.287 . S
C1125 C137 1.288 . S
C1140 C753 1.287 . S
C1175 C233 1.288 . S
C1190 C849 1.287 . S
C1225 C284 1.287 . S
C1240 C929 1.287 . S
C1275 C1025 1.288 . S
C1290 C372 1.287 . S
C1325 C557 1.287 . S
C1340 C460 1.288 . S
C1375 C909 0.833 . S
C1390 C49 0.833 . S
C1425 C117 0.833 . S
C1440 C988 0.833 . S
C1475 C196 0.833 . S
C1490 C577 0.833 . S
C1525 C636 0.833 . S
C1540 C321 0.833 . S
C1575 C733 0.833 . S
C1590 C409 0.833 . S
C1625 C812 0.833 . S
C1640 C497 0.833 . S
C1675 C20 1.690 . S
C1690 C761 1.690 . S
C1725 C145 1.690 . S
C1740 C841 1.690 . S
C1775 C937 1.690 . S
C1790 C225 1.690 . S
C1825 C293 1.690 . S
C1840 C1017 1.690 . S
C1875 C548 1.690 . S
C1890 C381 1.690 . S
C1925 C665 1.690 . S
C1940 C469 1.690 . S
C1975 C313 1.546 . S
C1990 C57 1.546 . S
C2025 C401 1.547 . S
C2040 C108 1.547 . S
C2075 C205 1.548 . S
C2090 C489 1.548 . S
C2125 C585 1.547 . S
C2140 C821 1.547 . S
C2175 C645 1.547 . S
C2190 C900 1.547 . S
C2225 C997 1.546 . S
C2240 C724 1.547 . S
