# Generated by pormake.
# Topology uoz, (4)-cn, num edge types: 1
# Building blocks:
#     Node 0, Type 0, BuildingBlock: QUQFOY_clean_sbu_1, # of connection points: 4
#     Node 1, Type 0, BuildingBlock: QUQFOY_clean_sbu_1, # of connection points: 4
#     Node 2, Type 0, BuildingBlock: QUQFOY_clean_sbu_1, # of connection points: 4
#     Node 3, Type 0, BuildingBlock: QUQFOY_clean_sbu_1, # of connection points: 4
#     Node 4, Type 0, BuildingBlock: QUQFOY_clean_sbu_1, # of connection points: 4
#     Node 5, Type 0, BuildingBlock: QUQFOY_clean_sbu_1, # of connection points: 4
#     Node 6, Type 0, BuildingBlock: QUQFOY_clean_sbu_1, # of connection points: 4
#     Node 7, Type 0, BuildingBlock: QUQFOY_clean_sbu_1, # of connection points: 4
#     Node 8, Type 0, BuildingBlock: QUQFOY_clean_sbu_1, # of connection points: 4
#     Node 9, Type 0, BuildingBlock: QUQFOY_clean_sbu_1, # of connection points: 4
#     Node 10, Type 0, BuildingBlock: QUQFOY_clean_sbu_1, # of connection points: 4
#     Node 11, Type 0, BuildingBlock: QUQFOY_clean_sbu_1, # of connection points: 4
#     Node 12, Type 0, BuildingBlock: QUQFOY_clean_sbu_1, # of connection points: 4
#     Node 13, Type 0, BuildingBlock: QUQFOY_clean_sbu_1, # of connection points: 4
#     Node 14, Type 0, BuildingBlock: QUQFOY_clean_sbu_1, # of connection points: 4
#     Node 15, Type 0, BuildingBlock: QUQFOY_clean_sbu_1, # of connection points: 4
#     Edge 16, Type (0, 0), BuildingBlock: ZUJKAS_clean_linker_0, # of connection points: 2
#     Edge 17, Type (0, 0), BuildingBlock: ZUJKAS_clean_linker_0, # of connection points: 2
#     Edge 18, Type (0, 0), BuildingBlock: ZUJKAS_clean_linker_0, # of connection points: 2
#     Edge 19, Type (0, 0), BuildingBlock: ZUJKAS_clean_linker_0, # of connection points: 2
#     Edge 20, Type (0, 0), BuildingBlock: ZUJKAS_clean_linker_0, # of connection points: 2
#     Edge 21, Type (0, 0), BuildingBlock: ZUJKAS_clean_linker_0, # of connection points: 2
#     Edge 22, Type (0, 0), BuildingBlock: ZUJKAS_clean_linker_0, # of connection points: 2
#     Edge 23, Type (0, 0), BuildingBlock: ZUJKAS_clean_linker_0, # of connection points: 2
#     Edge 24, Type (0, 0), BuildingBlock: ZUJKAS_clean_linker_0, # of connection points: 2
#     Edge 25, Type (0, 0), BuildingBlock: ZUJKAS_clean_linker_0, # of connection points: 2
#     Edge 26, Type (0, 0), BuildingBlock: ZUJKAS_clean_linker_0, # of connection points: 2
#     Edge 27, Type (0, 0), BuildingBlock: ZUJKAS_clean_linker_0, # of connection points: 2
#     Edge 28, Type (0, 0), BuildingBlock: ZUJKAS_clean_linker_0, # of connection points: 2
#     Edge 29, Type (0, 0), BuildingBlock: ZUJKAS_clean_linker_0, # of connection points: 2
#     Edge 30, Type (0, 0), BuildingBlock: ZUJKAS_clean_linker_0, # of connection points: 2
#     Edge 31, Type (0, 0), BuildingBlock: ZUJKAS_clean_linker_0, # of connection points: 2
#     Edge 32, Type (0, 0), BuildingBlock: ZUJKAS_clean_linker_0, # of connection points: 2
#     Edge 33, Type (0, 0), BuildingBlock: ZUJKAS_clean_linker_0, # of connection points: 2
#     Edge 34, Type (0, 0), BuildingBlock: ZUJKAS_clean_linker_0, # of connection points: 2
#     Edge 35, Type (0, 0), BuildingBlock: ZUJKAS_clean_linker_0, # of connection points: 2
#     Edge 36, Type (0, 0), BuildingBlock: ZUJKAS_clean_linker_0, # of connection points: 2
#     Edge 37, Type (0, 0), BuildingBlock: ZUJKAS_clean_linker_0, # of connection points: 2
#     Edge 38, Type (0, 0), BuildingBlock: ZUJKAS_clean_linker_0, # of connection points: 2
#     Edge 39, Type (0, 0), BuildingBlock: ZUJKAS_clean_linker_0, # of connection points: 2
#     Edge 40, Type (0, 0), BuildingBlock: ZUJKAS_clean_linker_0, # of connection points: 2
#     Edge 41, Type (0, 0), BuildingBlock: ZUJKAS_clean_linker_0, # of connection points: 2
#     Edge 42, Type (0, 0), BuildingBlock: ZUJKAS_clean_linker_0, # of connection points: 2
#     Edge 43, Type (0, 0), BuildingBlock: ZUJKAS_clean_linker_0, # of connection points: 2
#     Edge 44, Type (0, 0), BuildingBlock: ZUJKAS_clean_linker_0, # of connection points: 2
#     Edge 45, Type (0, 0), BuildingBlock: ZUJKAS_clean_linker_0, # of connection points: 2
#     Edge 46, Type (0, 0), BuildingBlock: ZUJKAS_clean_linker_0, # of connection points: 2
#     Edge 47, Type (0, 0), BuildingBlock: ZUJKAS_clean_linker_0, # of connection points: 2
# Relax obj value: 0.179
# Max RMSD: 0.211
# Mean RMSD: 0.211
data_MOF--net-uoz--node1-QUQFOY_clean_sbu_1--edge1-ZUJKAS_clean_linker_0
_symmetry_space_group_name_H-M    P1
_symmetry_Int_Tables_number       1
_symmetry_cell_setting            triclinic
loop_
_symmetry_equiv_pos_as_xyz
'x, y, z'
_cell_length_a     82.303581
_cell_length_b     82.285822
_cell_length_c     28.608504
_cell_angle_alpha  90.001507
_cell_angle_beta   90.011104
_cell_angle_gamma 89.992146
loop_
_atom_site_label
_atom_site_type_symbol
_atom_site_fract_x
_atom_site_fract_y
_atom_site_fract_z
_atom_type_partial_charge
O0 O 0.10402 0.5608 0.2602 0.0
Cd1 Cd 0.10191 0.57775 0.31252 0.0
Cd2 Cd 0.07753 0.59014 0.24978 0.0
O3 O 0.08155 0.56741 0.22269 0.0
O4 O 0.11313 0.56719 0.3661 0.0
O5 O 0.08665 0.57184 0.36489 0.0
C6 C 0.09908 0.56538 0.38538 0.0
C7 C 0.05191 0.60096 0.23129 0.0
C8 C 0.09357 0.55798 0.22861 0.0
C9 C 0.10863 0.60971 0.26846 0.0
O10 O 0.09586 0.60707 0.24467 0.0
O11 O 0.11274 0.60009 0.30121 0.0
O12 O 0.06277 0.59836 0.19999 0.0
O13 O 0.05542 0.59728 0.27395 0.0
O14 O 0.7711 0.77319 0.51013 0.0
Cd15 Cd 0.75483 0.77099 0.56418 0.0
Cd16 Cd 0.74384 0.7453 0.50966 0.0
O17 O 0.76679 0.74852 0.4831 0.0
O18 O 0.76559 0.78196 0.61774 0.0
O19 O 0.76119 0.75542 0.61512 0.0
C20 C 0.76767 0.76777 0.63601 0.0
C21 C 0.73306 0.71915 0.4988 0.0
C22 C 0.77505 0.76154 0.48344 0.0
C23 C 0.72326 0.77616 0.51955 0.0
O24 O 0.72677 0.7632 0.49763 0.0
O25 O 0.73214 0.78096 0.5532 0.0
O26 O 0.7359 0.72876 0.4644 0.0
O27 O 0.73665 0.72421 0.54022 0.0
O28 O 0.55919 0.43591 0.75711 0.0
Cd29 Cd 0.56071 0.42072 0.81393 0.0
Cd30 Cd 0.58571 0.40567 0.75682 0.0
O31 O 0.58099 0.42667 0.72082 0.0
O32 O 0.54984 0.4331 0.86483 0.0
O33 O 0.57615 0.42758 0.86485 0.0
C34 C 0.56393 0.43492 0.88385 0.0
C35 C 0.6113 0.39471 0.73829 0.0
C36 C 0.56934 0.43672 0.72382 0.0
C37 C 0.55435 0.38704 0.7804 0.0
O38 O 0.56771 0.38838 0.75849 0.0
O39 O 0.54953 0.39827 0.80768 0.0
O40 O 0.5998 0.39571 0.70818 0.0
O41 O 0.60842 0.39994 0.77997 0.0
O42 O 0.89725 0.22853 0.00585 0.0
Cd43 Cd 0.91157 0.22941 0.06447 0.0
Cd44 Cd 0.9292 0.25301 0.00892 0.0
O45 O 0.91029 0.24724 0.9652 0.0
O46 O 0.89813 0.21894 0.11374 0.0
O47 O 0.90489 0.24496 0.11535 0.0
C48 C 0.89692 0.23298 0.13348 0.0
C49 C 0.9404 0.27862 0.99175 0.0
C50 C 0.89885 0.237 0.96909 0.0
C51 C 0.94603 0.22157 0.04006 0.0
O52 O 0.94642 0.23534 0.02001 0.0
O53 O 0.93329 0.21681 0.06114 0.0
O54 O 0.94203 0.26637 0.9644 0.0
O55 O 0.93232 0.27649 0.02987 0.0
O56 O 0.10588 0.43486 0.84844 0.0
Cd57 Cd 0.10429 0.42115 0.78854 0.0
Cd58 Cd 0.08043 0.40376 0.84427 0.0
O59 O 0.08682 0.42219 0.88879 0.0
O60 O 0.11489 0.43485 0.73999 0.0
O61 O 0.08871 0.42878 0.73877 0.0
C62 C 0.10081 0.43663 0.72086 0.0
C63 C 0.05471 0.39286 0.86183 0.0
C64 C 0.09748 0.43327 0.88534 0.0
C65 C 0.11129 0.38632 0.81088 0.0
O66 O 0.09774 0.38632 0.83212 0.0
O67 O 0.11617 0.39894 0.78938 0.0
O68 O 0.06703 0.39093 0.88872 0.0
O69 O 0.05681 0.4011 0.82398 0.0
O70 O 0.89699 0.77338 0.09456 0.0
Cd71 Cd 0.91173 0.77193 0.03701 0.0
Cd72 Cd 0.92714 0.74725 0.09199 0.0
O73 O 0.90629 0.75141 0.12969 0.0
O74 O 0.89897 0.78258 0.98655 0.0
O75 O 0.90493 0.75635 0.98636 0.0
C76 C 0.89738 0.76847 0.96746 0.0
C77 C 0.93837 0.72138 0.10515 0.0
C78 C 0.89625 0.7631 0.12752 0.0
C79 C 0.94534 0.77887 0.06874 0.0
O80 O 0.94439 0.7654 0.09029 0.0
O81 O 0.93384 0.78361 0.04235 0.0
O82 O 0.93795 0.73234 0.13704 0.0
O83 O 0.93229 0.72498 0.06489 0.0
O84 O 0.56244 0.56293 0.34329 0.0
Cd85 Cd 0.5642 0.57845 0.28729 0.0
Cd86 Cd 0.58828 0.59371 0.34891 0.0
O87 O 0.58318 0.57254 0.38368 0.0
O88 O 0.55303 0.56638 0.23622 0.0
O89 O 0.57938 0.57164 0.23555 0.0
C90 C 0.56701 0.56455 0.21657 0.0
C91 C 0.61362 0.60469 0.37002 0.0
C92 C 0.57192 0.5622 0.37821 0.0
C93 C 0.55715 0.61207 0.32144 0.0
O94 O 0.5702 0.61088 0.34493 0.0
O95 O 0.55284 0.6008 0.2936 0.0
O96 O 0.60173 0.60379 0.39888 0.0
O97 O 0.61127 0.59935 0.32817 0.0
O98 O 0.77229 0.22869 0.59096 0.0
Cd99 Cd 0.75556 0.22967 0.53796 0.0
Cd100 Cd 0.7415 0.25371 0.59754 0.0
O101 O 0.76362 0.25027 0.62927 0.0
O102 O 0.76694 0.2189 0.48509 0.0
O103 O 0.76076 0.24508 0.48536 0.0
C104 C 0.76799 0.23297 0.46542 0.0
C105 C 0.73013 0.27945 0.61076 0.0
C106 C 0.77391 0.23896 0.62369 0.0
C107 C 0.72334 0.22181 0.57902 0.0
O108 O 0.72476 0.23515 0.60102 0.0
O109 O 0.73393 0.21754 0.54905 0.0
O110 O 0.73188 0.269 0.64371 0.0
O111 O 0.73496 0.2754 0.56946 0.0
O112 O 0.39565 0.27083 0.58246 0.0
Cd113 Cd 0.41233 0.26777 0.52995 0.0
Cd114 Cd 0.42137 0.24234 0.5873 0.0
O115 O 0.39737 0.24537 0.60525 0.0
O116 O 0.40246 0.27876 0.47501 0.0
O117 O 0.40598 0.2521 0.47931 0.0
C118 C 0.40007 0.26452 0.45736 0.0
C119 C 0.43213 0.21657 0.60441 0.0
C120 C 0.3901 0.25897 0.6058 0.0
C121 C 0.44234 0.273 0.58071 0.0
O122 O 0.43759 0.26066 0.60369 0.0
O123 O 0.4351 0.27707 0.54324 0.0
O124 O 0.42746 0.22638 0.63659 0.0
O125 O 0.43039 0.22116 0.56157 0.0
O126 O 0.27076 0.7252 0.09113 0.0
Cd127 Cd 0.25527 0.72808 0.03554 0.0
Cd128 Cd 0.24433 0.7536 0.08985 0.0
O129 O 0.26735 0.75027 0.11605 0.0
O130 O 0.26657 0.7175 0.98228 0.0
O131 O 0.26232 0.74405 0.98648 0.0
C132 C 0.26895 0.73184 0.96531 0.0
C133 C 0.23363 0.7797 0.10236 0.0
C134 C 0.27506 0.73692 0.11711 0.0
C135 C 0.2236 0.72289 0.07814 0.0
O136 O 0.22725 0.7356 0.10111 0.0
O137 O 0.2324 0.71837 0.04403 0.0
O138 O 0.2365 0.76985 0.13616 0.0
O139 O 0.23708 0.7749 0.06059 0.0
O140 O 0.27246 0.27285 0.00264 0.0
Cd141 Cd 0.25649 0.27058 0.05741 0.0
Cd142 Cd 0.24693 0.24457 0.00561 0.0
O143 O 0.27055 0.24703 0.9837 0.0
O144 O 0.26727 0.28148 0.11103 0.0
O145 O 0.26306 0.25489 0.10769 0.0
C146 C 0.26953 0.26722 0.12874 0.0
C147 C 0.23558 0.21865 0.99504 0.0
C148 C 0.27768 0.26065 0.98009 0.0
C149 C 0.22616 0.27537 0.00887 0.0
O150 O 0.23073 0.26266 0.98731 0.0
O151 O 0.23363 0.27995 0.04548 0.0
O152 O 0.23977 0.22765 0.96044 0.0
O153 O 0.23824 0.22413 0.0366 0.0
O154 O 0.39439 0.72509 0.51236 0.0
Cd155 Cd 0.41102 0.7278 0.56533 0.0
Cd156 Cd 0.42037 0.75355 0.51138 0.0
O157 O 0.39678 0.75051 0.48957 0.0
O158 O 0.40101 0.71744 0.621 0.0
O159 O 0.40518 0.74398 0.61502 0.0
C160 C 0.39909 0.73187 0.63792 0.0
C161 C 0.43113 0.77965 0.49929 0.0
C162 C 0.38932 0.73702 0.48838 0.0
C163 C 0.44143 0.72293 0.51623 0.0
O164 O 0.437 0.73566 0.49457 0.0
O165 O 0.43373 0.71828 0.55234 0.0
O166 O 0.42727 0.77026 0.46523 0.0
O167 O 0.42851 0.77443 0.54115 0.0
O168 O 0.60328 0.06047 0.75166 0.0
Cd169 Cd 0.60225 0.0755 0.80868 0.0
Cd170 Cd 0.57789 0.09135 0.75243 0.0
O171 O 0.58149 0.07006 0.71624 0.0
O172 O 0.61294 0.06274 0.85911 0.0
O173 O 0.58682 0.06912 0.86014 0.0
C174 C 0.5989 0.06144 0.87878 0.0
C175 C 0.55239 0.10316 0.73754 0.0
C176 C 0.59293 0.05976 0.71887 0.0
C177 C 0.61001 0.10878 0.77533 0.0
O178 O 0.59656 0.10806 0.75357 0.0
O179 O 0.61438 0.09733 0.80241 0.0
O180 O 0.56348 0.1022 0.70612 0.0
O181 O 0.55567 0.09737 0.77837 0.0
O182 O 0.06496 0.93767 0.26176 0.0
Cd183 Cd 0.0659 0.92156 0.31621 0.0
Cd184 Cd 0.09118 0.90757 0.25835 0.0
O185 O 0.08823 0.93034 0.22994 0.0
O186 O 0.05467 0.93313 0.36798 0.0
O187 O 0.08094 0.92735 0.36913 0.0
C188 C 0.06861 0.93448 0.38825 0.0
C189 C 0.11623 0.89578 0.23778 0.0
C190 C 0.07621 0.93998 0.23225 0.0
C191 C 0.05886 0.8894 0.27492 0.0
O192 O 0.07227 0.89117 0.25352 0.0
O193 O 0.05432 0.89968 0.30545 0.0
O194 O 0.10509 0.89866 0.20755 0.0
O195 O 0.11332 0.89964 0.28066 0.0
O196 O 0.60212 0.93424 0.33662 0.0
Cd197 Cd 0.59997 0.91831 0.28179 0.0
Cd198 Cd 0.57484 0.90559 0.34092 0.0
O199 O 0.5782 0.92858 0.36715 0.0
O200 O 0.61117 0.92963 0.22953 0.0
O201 O 0.58468 0.92501 0.23035 0.0
C202 C 0.59711 0.93172 0.21055 0.0
C203 C 0.54957 0.89444 0.36208 0.0
C204 C 0.59079 0.93746 0.3652 0.0
C205 C 0.60634 0.88622 0.32341 0.0
O206 O 0.59348 0.8889 0.34679 0.0
O207 O 0.61057 0.89581 0.29077 0.0
O208 O 0.56075 0.89734 0.3922 0.0
O209 O 0.55258 0.89793 0.31899 0.0
O210 O 0.06302 0.06305 0.84567 0.0
Cd211 Cd 0.06369 0.0784 0.78938 0.0
Cd212 Cd 0.08944 0.09305 0.84446 0.0
O213 O 0.08646 0.07076 0.87566 0.0
O214 O 0.05249 0.06602 0.73913 0.0
O215 O 0.0787 0.072 0.73701 0.0
C216 C 0.06642 0.06447 0.71895 0.0
C217 C 0.11448 0.10502 0.86452 0.0
C218 C 0.07441 0.06114 0.875 0.0
C219 C 0.05698 0.11108 0.82717 0.0
O220 O 0.07059 0.10954 0.84771 0.0
O221 O 0.05212 0.1004 0.79821 0.0
O222 O 0.10317 0.10267 0.89458 0.0
O223 O 0.11173 0.10055 0.82204 0.0
H224 H 0.20496 0.72762 0.1557 0.0
H225 H 0.185 0.70923 0.18934 0.0
H226 H 0.19102 0.6766 0.07261 0.0
H227 H 0.21156 0.69477 0.0392 0.0
H228 H 0.15647 0.69804 0.16125 0.0
H229 H 0.19936 0.64652 0.18117 0.0
H230 H 0.20598 0.66668 0.16537 0.0
H231 H 0.19745 0.65337 0.12188 0.0
C232 C 0.20202 0.71658 0.13686 0.0
C233 C 0.21002 0.71259 0.0949 0.0
C234 C 0.19058 0.70606 0.15626 0.0
C235 C 0.18678 0.69135 0.13412 0.0
C236 C 0.19411 0.68767 0.09101 0.0
H237 H 0.10432 0.63063 0.19566 0.0
H238 H 0.12313 0.651 0.16658 0.0
C239 C 0.20573 0.69815 0.07171 0.0
C240 C 0.17529 0.6799 0.15676 0.0
H241 H 0.17157 0.64104 0.19726 0.0
C242 C 0.1598 0.68559 0.16924 0.0
C243 C 0.17975 0.66377 0.16825 0.0
C244 C 0.19659 0.65725 0.15894 0.0
C245 C 0.14855 0.67551 0.19203 0.0
C246 C 0.15273 0.65915 0.20141 0.0
C247 C 0.16833 0.65355 0.1898 0.0
C248 C 0.14091 0.64743 0.22136 0.0
C249 C 0.1324 0.68262 0.20647 0.0
C250 C 0.14473 0.63838 0.26156 0.0
C251 C 0.13403 0.62646 0.2781 0.0
C252 C 0.11934 0.62337 0.25459 0.0
C253 C 0.11545 0.63273 0.21494 0.0
C254 C 0.12617 0.6445 0.19833 0.0
H255 H 0.13323 0.69599 0.21143 0.0
H256 H 0.12334 0.68031 0.17854 0.0
H257 H 0.12792 0.67707 0.23942 0.0
H258 H 0.1561 0.64039 0.27975 0.0
H259 H 0.13744 0.61944 0.30859 0.0
H260 H 0.63519 0.8764 0.28384 0.0
H261 H 0.65411 0.85596 0.31423 0.0
H262 H 0.62123 0.84588 0.42797 0.0
H263 H 0.60214 0.86573 0.39731 0.0
H264 H 0.66954 0.85642 0.39648 0.0
H265 H 0.6322 0.80066 0.38738 0.0
H266 H 0.6265 0.81918 0.35789 0.0
H267 H 0.62209 0.81649 0.41909 0.0
C268 C 0.63185 0.86958 0.31476 0.0
C269 C 0.61711 0.87269 0.33799 0.0
C270 C 0.6427 0.85795 0.3322 0.0
C271 C 0.639 0.84923 0.37307 0.0
C272 C 0.62419 0.85212 0.39575 0.0
H273 H 0.71114 0.80454 0.55687 0.0
H274 H 0.69022 0.82219 0.52304 0.0
C275 C 0.61331 0.8636 0.37822 0.0
C276 C 0.65104 0.83793 0.39402 0.0
H277 H 0.65562 0.79951 0.43704 0.0
C278 C 0.66656 0.84393 0.40497 0.0
C279 C 0.64718 0.8216 0.40478 0.0
C280 C 0.63114 0.81406 0.39122 0.0
C281 C 0.67823 0.83412 0.427 0.0
C282 C 0.67411 0.81801 0.43971 0.0
C283 C 0.65868 0.81194 0.42807 0.0
C284 C 0.68592 0.80693 0.46259 0.0
C285 C 0.69496 0.84103 0.43544 0.0
C286 C 0.68986 0.79213 0.44118 0.0
C287 C 0.70152 0.78191 0.46083 0.0
C288 C 0.70961 0.78629 0.50232 0.0
C289 C 0.70524 0.80086 0.52473 0.0
C290 C 0.6934 0.81104 0.50519 0.0
H291 H 0.69744 0.85165 0.41252 0.0
H292 H 0.69587 0.84519 0.47225 0.0
H293 H 0.70451 0.83174 0.4293 0.0
H294 H 0.68419 0.78864 0.40849 0.0
H295 H 0.70452 0.77077 0.44257 0.0
H296 H 0.56079 0.36213 0.72048 0.0
H297 H 0.54197 0.3419 0.6908 0.0
H298 H 0.50488 0.35951 0.78452 0.0
H299 H 0.52359 0.38041 0.81345 0.0
H300 H 0.52558 0.31733 0.72645 0.0
H301 H 0.48223 0.36364 0.66036 0.0
H302 H 0.50204 0.36891 0.68262 0.0
H303 H 0.4856 0.36467 0.72226 0.0
C304 C 0.54869 0.36169 0.73526 0.0
C305 C 0.54364 0.3731 0.76894 0.0
C306 C 0.53792 0.35005 0.71817 0.0
C307 C 0.52188 0.34944 0.7345 0.0
C308 C 0.51707 0.36008 0.77038 0.0
H309 H 0.45615 0.27043 0.6669 0.0
H310 H 0.47565 0.28864 0.70332 0.0
C311 C 0.52783 0.3719 0.78726 0.0
C312 C 0.51024 0.33797 0.71243 0.0
H313 H 0.47451 0.33612 0.65191 0.0
C314 C 0.5144 0.32144 0.7102 0.0
C315 C 0.49584 0.34339 0.69026 0.0
C316 C 0.4912 0.36113 0.68849 0.0
C317 C 0.50457 0.31018 0.68659 0.0
C318 C 0.48987 0.3155 0.66588 0.0
C319 C 0.48573 0.33203 0.66796 0.0
C320 C 0.47846 0.3041 0.64266 0.0
C321 C 0.51029 0.29279 0.68303 0.0
C322 C 0.47318 0.3069 0.59661 0.0
C323 C 0.46173 0.29661 0.57574 0.0
C324 C 0.4554 0.2833 0.60058 0.0
C325 C 0.4609 0.28044 0.64645 0.0
C326 C 0.47216 0.29081 0.66737 0.0
H327 H 0.52371 0.29191 0.68659 0.0
H328 H 0.5048 0.28559 0.71174 0.0
H329 H 0.5067 0.28724 0.64919 0.0
H330 H 0.47783 0.31715 0.57696 0.0
H331 H 0.4577 0.2992 0.54048 0.0
H332 H 0.94647 0.18846 0.05169 0.0
H333 H 0.96636 0.16954 0.01855 0.0
H334 H 0.99583 0.20991 0.97351 0.0
H335 H 0.97611 0.22887 0.00626 0.0
H336 H 0.98612 0.18803 0.90104 0.0
H337 H 0.01362 0.15608 0.05308 0.0
H338 H 0.9918 0.15729 0.05235 0.0
H339 H 0.00358 0.17551 0.05849 0.0
C340 C 0.95743 0.19331 0.03608 0.0
C341 C 0.95963 0.21018 0.03129 0.0
C342 C 0.96877 0.18247 0.01705 0.0
C343 C 0.9825 0.18836 0.99339 0.0
C344 C 0.98526 0.20515 0.99144 0.0
H345 H 0.06479 0.13731 0.88077 0.0
H346 H 0.04619 0.15642 0.91786 0.0
C347 C 0.97399 0.21595 0.01036 0.0
C348 C 0.99315 0.17725 0.96662 0.0
H349 H 0.02044 0.1463 0.9778 0.0
C350 C 0.99364 0.17889 0.91776 0.0
C351 C 0.00292 0.16541 0.98863 0.0
C352 C 0.00312 0.16346 0.04105 0.0
C353 C 0.00371 0.169 0.89024 0.0
C354 C 0.01342 0.15709 0.91222 0.0
C355 C 0.01291 0.15543 0.96109 0.0
C356 C 0.02462 0.14653 0.88545 0.0
C357 C 0.00416 0.17158 0.83805 0.0
C358 C 0.01867 0.1349 0.85388 0.0
C359 C 0.02931 0.12392 0.83232 0.0
C360 C 0.04604 0.12437 0.84236 0.0
C361 C 0.05197 0.13656 0.87236 0.0
C362 C 0.04136 0.14748 0.89378 0.0
H363 H 0.99855 0.18333 0.82778 0.0
H364 H 0.01687 0.17127 0.82499 0.0
H365 H 0.99735 0.16165 0.82059 0.0
H366 H 0.00575 0.13388 0.84735 0.0
H367 H 0.02433 0.11462 0.8097 0.0
H368 H 0.10503 0.35871 0.86028 0.0
H369 H 0.12458 0.33891 0.88829 0.0
H370 H 0.16221 0.36176 0.80646 0.0
H371 H 0.14274 0.38231 0.77975 0.0
H372 H 0.1436 0.31673 0.85388 0.0
H373 H 0.18173 0.3648 0.93431 0.0
H374 H 0.16218 0.36904 0.90875 0.0
H375 H 0.17981 0.36676 0.87211 0.0
C376 C 0.11741 0.35949 0.84761 0.0
C377 C 0.12237 0.37234 0.81841 0.0
C378 C 0.12861 0.34809 0.86375 0.0
C379 C 0.14499 0.34913 0.85074 0.0
C380 C 0.14973 0.36106 0.8183 0.0
H381 H 0.2141 0.27326 0.92066 0.0
H382 H 0.19438 0.29089 0.88303 0.0
C383 C 0.13854 0.37268 0.80256 0.0
C384 C 0.15702 0.33816 0.87324 0.0
H385 H 0.19146 0.33785 0.93993 0.0
C386 C 0.15408 0.32135 0.87265 0.0
C387 C 0.17047 0.34421 0.89881 0.0
C388 C 0.17368 0.36219 0.90405 0.0
C389 C 0.16416 0.31045 0.89677 0.0
C390 C 0.17798 0.31644 0.92071 0.0
C391 C 0.18092 0.33324 0.9214 0.0
C392 C 0.18973 0.3055 0.94449 0.0
C393 C 0.15955 0.29269 0.89746 0.0
C394 C 0.19417 0.30813 0.99139 0.0
C395 C 0.20583 0.29822 0.01294 0.0
C396 C 0.21313 0.28545 0.98801 0.0
C397 C 0.20854 0.28281 0.94122 0.0
C398 C 0.19715 0.29284 0.91959 0.0
H399 H 0.14628 0.29103 0.89205 0.0
H400 H 0.1659 0.28632 0.86858 0.0
H401 H 0.16298 0.28684 0.93101 0.0
H402 H 0.18869 0.3179 0.01124 0.0
H403 H 0.20916 0.30061 0.04892 0.0
H404 H 0.06617 0.86337 0.21979 0.0
H405 H 0.04723 0.84432 0.18373 0.0
H406 H 0.00742 0.86686 0.25715 0.0
H407 H 0.02635 0.88593 0.29408 0.0
H408 H 0.00543 0.83307 0.25466 0.0
H409 H 0.01679 0.85824 0.0778 0.0
H410 H 0.03489 0.85162 0.10722 0.0
H411 H 0.02338 0.86834 0.1305 0.0
C412 C 0.05341 0.86418 0.2288 0.0
C413 C 0.04775 0.87629 0.25949 0.0
C414 C 0.04259 0.85335 0.20782 0.0
C415 C 0.02589 0.85449 0.21675 0.0
C416 C 0.02027 0.86592 0.24941 0.0
H417 H 0.94743 0.81173 0.05357 0.0
H418 H 0.96742 0.83038 0.0875 0.0
C419 C 0.03111 0.87675 0.27064 0.0
C420 C 0.0143 0.84396 0.19122 0.0
H421 H 0.00131 0.83383 0.08154 0.0
C422 C 0.00448 0.83326 0.21685 0.0
C423 C 0.01289 0.84445 0.14189 0.0
C424 C 0.02242 0.85639 0.1127 0.0
C425 C 0.99358 0.82273 0.19439 0.0
C426 C 0.99271 0.82271 0.14494 0.0
C427 C 0.0022 0.83371 0.11937 0.0
C428 C 0.98186 0.81141 0.11942 0.0
C429 C 0.98293 0.81188 0.22387 0.0
C430 C 0.98386 0.79458 0.12415 0.0
C431 C 0.9725 0.78392 0.10492 0.0
C432 C 0.95898 0.7899 0.08017 0.0
C433 C 0.95769 0.80673 0.07242 0.0
C434 C 0.96905 0.81741 0.09197 0.0
H435 H 0.98195 0.81637 0.26039 0.0
H436 H 0.97052 0.81094 0.20887 0.0
H437 H 0.98827 0.7995 0.22499 0.0
H438 H 0.99392 0.78969 0.14415 0.0
H439 H 0.97396 0.77101 0.11109 0.0
H440 H 0.45614 0.72684 0.43173 0.0
H441 H 0.4757 0.70898 0.39415 0.0
H442 H 0.47663 0.67853 0.51688 0.0
H443 H 0.45642 0.69611 0.55436 0.0
H444 H 0.50565 0.70062 0.41321 0.0
H445 H 0.4671 0.64545 0.41762 0.0
H446 H 0.45941 0.6653 0.43258 0.0
H447 H 0.47074 0.65365 0.47475 0.0
C448 C 0.46051 0.71639 0.45099 0.0
C449 C 0.45459 0.71284 0.49602 0.0
C450 C 0.47172 0.70616 0.42932 0.0
C451 C 0.47738 0.6922 0.45219 0.0
C452 C 0.47206 0.68897 0.49797 0.0
H453 H 0.56229 0.63702 0.38227 0.0
H454 H 0.54284 0.6572 0.40865 0.0
C455 C 0.46063 0.69911 0.51955 0.0
C456 C 0.48887 0.68116 0.42781 0.0
H457 H 0.49472 0.64169 0.39511 0.0
C458 C 0.5032 0.68774 0.40904 0.0
C459 C 0.48551 0.66444 0.42123 0.0
C460 C 0.46978 0.65682 0.43715 0.0
C461 C 0.51444 0.67802 0.38501 0.0
C462 C 0.51154 0.66113 0.38089 0.0
C463 C 0.49701 0.65461 0.39854 0.0
C464 C 0.52378 0.64982 0.36105 0.0
C465 C 0.52921 0.68602 0.36383 0.0
C466 C 0.51955 0.63877 0.3256 0.0
C467 C 0.53065 0.62693 0.31076 0.0
C468 C 0.54615 0.62593 0.33126 0.0
C469 C 0.55051 0.63744 0.36546 0.0
C470 C 0.53941 0.64912 0.38046 0.0
H471 H 0.52676 0.69896 0.35517 0.0
H472 H 0.53931 0.68576 0.38951 0.0
H473 H 0.53321 0.67967 0.33158 0.0
H474 H 0.50752 0.63904 0.31025 0.0
H475 H 0.52687 0.61824 0.28449 0.0
H476 H 0.69653 0.22877 0.63126 0.0
H477 H 0.6772 0.20959 0.66487 0.0
H478 H 0.70113 0.1701 0.59363 0.0
H479 H 0.72049 0.18929 0.55913 0.0
H480 H 0.66728 0.16778 0.59246 0.0
H481 H 0.69011 0.17914 0.77189 0.0
H482 H 0.68377 0.19725 0.74204 0.0
H483 H 0.70082 0.18585 0.72033 0.0
C484 C 0.6976 0.21603 0.62221 0.0
C485 C 0.71018 0.21053 0.59288 0.0
C486 C 0.6866 0.20507 0.64177 0.0
C487 C 0.68803 0.18839 0.63279 0.0
C488 C 0.69995 0.18293 0.6014 0.0
H489 H 0.64273 0.11044 0.79311 0.0
H490 H 0.66206 0.12995 0.76001 0.0
C491 C 0.71096 0.19392 0.58156 0.0
C492 C 0.67728 0.17668 0.65706 0.0
H493 H 0.6657 0.16374 0.76555 0.0
C494 C 0.66697 0.16683 0.63026 0.0
C495 C 0.67714 0.17527 0.7064 0.0
C496 C 0.68867 0.18482 0.73689 0.0
C497 C 0.65615 0.15593 0.65156 0.0
C498 C 0.65544 0.1551 0.70097 0.0
C499 C 0.6661 0.16459 0.72773 0.0
C500 C 0.6437 0.14441 0.7253 0.0
C501 C 0.64569 0.14527 0.62093 0.0
C502 C 0.62697 0.14656 0.7186 0.0
C503 C 0.61592 0.13548 0.73738 0.0
C504 C 0.6214 0.12209 0.76363 0.0
C505 C 0.63811 0.12061 0.77308 0.0
C506 C 0.64918 0.1317 0.75401 0.0
H507 H 0.65074 0.14419 0.58505 0.0
H508 H 0.64445 0.1329 0.63602 0.0
H509 H 0.63338 0.15069 0.61812 0.0
H510 H 0.62247 0.15655 0.69761 0.0
H511 H 0.60312 0.13708 0.72985 0.0
H512 H 0.02436 0.39941 0.82571 0.0
H513 H 0.99843 0.38705 0.84966 0.0
H514 H 0.02404 0.35703 0.94909 0.0
H515 H 0.04951 0.36962 0.92692 0.0
H516 H 0.98799 0.35745 0.84355 0.0
H517 H 0.98816 0.37196 0.03048 0.0
H518 H 0.00184 0.38181 0.99011 0.0
H519 H 0.00727 0.36272 0.0171 0.0
C520 C 0.02435 0.39029 0.853 0.0
C521 C 0.03893 0.38558 0.87471 0.0
C522 C 0.00956 0.38329 0.86679 0.0
C523 C 0.00919 0.37148 0.90233 0.0
C524 C 0.02384 0.36661 0.92313 0.0
H525 H 0.96386 0.28369 0.92726 0.0
H526 H 0.97649 0.30915 0.90496 0.0
C527 C 0.03847 0.3737 0.90993 0.0
C528 C 0.99395 0.36293 0.91525 0.0
H529 H 0.97569 0.3455 0.00979 0.0
C530 C 0.985 0.35521 0.8799 0.0
C531 C 0.98948 0.36043 0.96253 0.0
C532 C 0.99711 0.36987 0.00204 0.0
C533 C 0.97303 0.34368 0.89077 0.0
C534 C 0.97044 0.33932 0.9381 0.0
C535 C 0.97801 0.34841 0.97342 0.0
C536 C 0.96192 0.32407 0.95119 0.0
C537 C 0.96373 0.33589 0.85123 0.0
C538 C 0.95004 0.32375 0.98654 0.0
C539 C 0.94304 0.30898 0.00044 0.0
C540 C 0.94779 0.29436 0.97899 0.0
C541 C 0.95975 0.29476 0.94401 0.0
C542 C 0.96686 0.30938 0.93073 0.0
H543 H 0.96167 0.34476 0.82255 0.0
H544 H 0.97099 0.32574 0.83654 0.0
H545 H 0.9518 0.33112 0.86299 0.0
H546 H 0.94623 0.33491 0.0034 0.0
H547 H 0.93385 0.30901 0.02753 0.0
H548 H 0.52815 0.11239 0.7981 0.0
H549 H 0.50346 0.1278 0.77883 0.0
H550 H 0.51695 0.12746 0.63317 0.0
H551 H 0.54137 0.11211 0.65186 0.0
H552 H 0.50412 0.15849 0.7368 0.0
H553 H 0.46879 0.11551 0.62795 0.0
H554 H 0.48501 0.109 0.6662 0.0
H555 H 0.48956 0.11739 0.60963 0.0
C556 C 0.52568 0.11537 0.76192 0.0
C557 C 0.53673 0.11109 0.72655 0.0
C558 C 0.51159 0.12415 0.75096 0.0
C559 C 0.50826 0.12854 0.70447 0.0
C560 C 0.51907 0.12388 0.66909 0.0
H561 H 0.45121 0.19705 0.54937 0.0
H562 H 0.46809 0.17419 0.57552 0.0
C563 C 0.53313 0.11523 0.67998 0.0
C564 C 0.49455 0.1395 0.69305 0.0
H565 H 0.4618 0.14377 0.62066 0.0
C566 C 0.49468 0.15519 0.71208 0.0
C567 C 0.48238 0.13519 0.66038 0.0
C568 C 0.4813 0.1183 0.64017 0.0
C569 C 0.48339 0.16695 0.69784 0.0
C570 C 0.47141 0.16277 0.66439 0.0
C571 C 0.47101 0.14694 0.6462 0.0
C572 C 0.45958 0.17492 0.64708 0.0
C573 C 0.48485 0.18397 0.7172 0.0
C574 C 0.44876 0.1824 0.67817 0.0
C575 C 0.43926 0.19548 0.66348 0.0
C576 C 0.44024 0.20118 0.61722 0.0
C577 C 0.45023 0.19293 0.58522 0.0
C578 C 0.45987 0.1799 0.60011 0.0
H579 H 0.49689 0.18612 0.73364 0.0
H580 H 0.48298 0.19317 0.68931 0.0
H581 H 0.4754 0.18584 0.74432 0.0
H582 H 0.4481 0.1785 0.71429 0.0
H583 H 0.43152 0.20145 0.68883 0.0
H584 H 0.6384 0.61635 0.31515 0.0
H585 H 0.66221 0.63182 0.34144 0.0
H586 H 0.64752 0.62507 0.48488 0.0
H587 H 0.62366 0.61004 0.45897 0.0
H588 H 0.65221 0.6566 0.46346 0.0
H589 H 0.70515 0.62042 0.40399 0.0
H590 H 0.69073 0.62469 0.35853 0.0
H591 H 0.68487 0.61211 0.40708 0.0
C592 C 0.64045 0.61792 0.35227 0.0
C593 C 0.62911 0.61213 0.38497 0.0
C594 C 0.6541 0.62666 0.36729 0.0
C595 C 0.65671 0.62948 0.41518 0.0
C596 C 0.64576 0.62303 0.4478 0.0
H597 H 0.71995 0.69819 0.56329 0.0
H598 H 0.70298 0.67432 0.54696 0.0
C599 C 0.6321 0.61448 0.43288 0.0
C600 C 0.66968 0.64064 0.43133 0.0
H601 H 0.71056 0.64773 0.42842 0.0
C602 C 0.665 0.65454 0.45637 0.0
C603 C 0.68633 0.63795 0.42185 0.0
C604 C 0.69212 0.6229 0.39677 0.0
C605 C 0.67642 0.6661 0.47096 0.0
C606 C 0.69304 0.66355 0.46088 0.0
C607 C 0.6978 0.64954 0.43641 0.0
C608 C 0.70534 0.67611 0.47178 0.0
C609 C 0.67051 0.68127 0.49531 0.0
C610 C 0.71283 0.68449 0.43505 0.0
C611 C 0.7225 0.69803 0.44423 0.0
C612 C 0.7249 0.70342 0.49039 0.0
C613 C 0.71824 0.69438 0.52739 0.0
C614 C 0.70851 0.6808 0.51811 0.0
H615 H 0.65713 0.68277 0.49247 0.0
H616 H 0.67369 0.68059 0.53296 0.0
H617 H 0.67645 0.69224 0.48047 0.0
H618 H 0.71056 0.68104 0.39908 0.0
H619 H 0.72759 0.70464 0.41493 0.0
H620 H 0.21956 0.8007 0.03972 0.0
H621 H 0.20311 0.82475 0.05823 0.0
H622 H 0.213 0.81791 0.20497 0.0
H623 H 0.22945 0.79413 0.18691 0.0
H624 H 0.1755 0.82245 0.11367 0.0
H625 H 0.21841 0.86693 0.19035 0.0
H626 H 0.22505 0.84997 0.15504 0.0
H627 H 0.22009 0.84705 0.21571 0.0
C628 C 0.21853 0.80458 0.07578 0.0
C629 C 0.22571 0.79548 0.11187 0.0
C630 C 0.20914 0.81829 0.0863 0.0
C631 C 0.207 0.82322 0.13294 0.0
C632 C 0.21477 0.81456 0.16871 0.0
H633 H 0.13912 0.88071 0.29268 0.0
H634 H 0.16229 0.86437 0.26561 0.0
C635 C 0.22405 0.80086 0.15829 0.0
C636 C 0.19504 0.83599 0.14505 0.0
H637 H 0.1901 0.87117 0.20691 0.0
C638 C 0.17872 0.83324 0.13338 0.0
C639 C 0.19927 0.84992 0.17134 0.0
C640 C 0.21668 0.85375 0.1835 0.0
C641 C 0.16642 0.84376 0.14857 0.0
C642 C 0.17061 0.85761 0.17536 0.0
C643 C 0.18695 0.86052 0.18646 0.0
C644 C 0.15802 0.86904 0.19217 0.0
C645 C 0.14898 0.83963 0.13723 0.0
C646 C 0.14838 0.87749 0.15993 0.0
C647 C 0.13516 0.88664 0.17518 0.0
C648 C 0.13142 0.8877 0.22305 0.0
C649 C 0.14169 0.88006 0.25559 0.0
C650 C 0.1549 0.87076 0.24019 0.0
H651 H 0.14757 0.82671 0.12672 0.0
H652 H 0.14095 0.84202 0.16765 0.0
H653 H 0.14481 0.84732 0.10772 0.0
H654 H 0.1508 0.87658 0.1228 0.0
H655 H 0.12762 0.89258 0.14925 0.0
H656 H 0.0303 0.617 0.28779 0.0
H657 H 0.00701 0.63337 0.26258 0.0
H658 H 0.01526 0.61866 0.11979 0.0
H659 H 0.03872 0.60272 0.1445 0.0
H660 H 0.01417 0.65088 0.12809 0.0
H661 H 0.9611 0.62444 0.21946 0.0
H662 H 0.97748 0.62922 0.25846 0.0
H663 H 0.98024 0.61385 0.21441 0.0
C664 C 0.0269 0.61699 0.25122 0.0
C665 C 0.03639 0.60871 0.21808 0.0
C666 C 0.01353 0.62626 0.23685 0.0
C667 C 0.00929 0.62713 0.1893 0.0
C668 C 0.01829 0.61816 0.15662 0.0
H669 H 0.946 0.69702 0.04312 0.0
H670 H 0.96147 0.67213 0.0598 0.0
C671 C 0.03171 0.60908 0.17083 0.0
C672 C 0.99686 0.63885 0.17276 0.0
H673 H 0.95769 0.6514 0.18846 0.0
C674 C 0.00173 0.65082 0.14068 0.0
C675 C 0.98067 0.63877 0.18929 0.0
C676 C 0.9745 0.62578 0.22196 0.0
C677 C 0.99107 0.6631 0.12614 0.0
C678 C 0.97503 0.66331 0.14372 0.0
C679 C 0.96999 0.65113 0.17489 0.0
C680 C 0.96395 0.67704 0.1338 0.0
C681 C 0.9973 0.67621 0.09384 0.0
C682 C 0.95978 0.68766 0.1701 0.0
C683 C 0.95102 0.70179 0.16073 0.0
C684 C 0.94617 0.70554 0.11483 0.0
C685 C 0.94965 0.69448 0.07875 0.0
C686 C 0.95851 0.68031 0.0882 0.0
H687 H 0.01072 0.67577 0.08983 0.0
H688 H 0.99176 0.67463 0.05876 0.0
H689 H 0.99384 0.68842 0.10701 0.0
H690 H 0.96386 0.68534 0.2055 0.0
H691 H 0.94841 0.70997 0.18942 0.0
H692 H 0.13885 0.11724 0.80892 0.0
H693 H 0.1625 0.13311 0.83454 0.0
H694 H 0.14806 0.12673 0.97828 0.0
H695 H 0.12445 0.11118 0.95318 0.0
H696 H 0.15275 0.15872 0.95375 0.0
H697 H 0.20542 0.12101 0.89943 0.0
H698 H 0.19081 0.12487 0.85408 0.0
H699 H 0.18506 0.11294 0.90403 0.0
C700 C 0.14089 0.11901 0.84597 0.0
C701 C 0.12973 0.11307 0.87899 0.0
C702 C 0.15445 0.12799 0.86059 0.0
C703 C 0.15709 0.13096 0.90837 0.0
C704 C 0.14626 0.12454 0.94129 0.0
H705 H 0.22023 0.19894 0.05873 0.0
H706 H 0.20248 0.17574 0.04132 0.0
C707 C 0.13274 0.11568 0.9268 0.0
C708 C 0.17013 0.14209 0.92416 0.0
H709 H 0.21119 0.14801 0.92466 0.0
C710 C 0.16555 0.1563 0.94783 0.0
C711 C 0.18678 0.1389 0.91623 0.0
C712 C 0.19238 0.12354 0.89241 0.0
C713 C 0.17712 0.16766 0.96274 0.0
C714 C 0.19378 0.16456 0.95456 0.0
C715 C 0.19841 0.15026 0.93126 0.0
C716 C 0.20636 0.17672 0.96653 0.0
C717 C 0.17136 0.18318 0.98551 0.0
C718 C 0.21499 0.18437 0.93054 0.0
C719 C 0.22514 0.19749 0.94036 0.0
C720 C 0.22689 0.20321 0.98643 0.0
C721 C 0.21905 0.19487 0.02289 0.0
C722 C 0.20886 0.18169 0.01297 0.0
H723 H 0.15812 0.18516 0.9804 0.0
H724 H 0.17374 0.18257 0.02364 0.0
H725 H 0.17799 0.19384 0.97127 0.0
H726 H 0.21328 0.18067 0.89451 0.0
H727 H 0.23113 0.20355 0.91149 0.0
H728 H 0.71761 0.30133 0.54797 0.0
H729 H 0.7011 0.32539 0.56599 0.0
H730 H 0.70776 0.31668 0.7134 0.0
H731 H 0.72419 0.29282 0.69586 0.0
H732 H 0.67219 0.32238 0.61853 0.0
H733 H 0.71436 0.3661 0.70243 0.0
H734 H 0.72131 0.34961 0.66578 0.0
H735 H 0.71563 0.34583 0.72548 0.0
C736 C 0.71584 0.30478 0.58415 0.0
C737 C 0.72209 0.29514 0.62049 0.0
C738 C 0.70643 0.3185 0.59438 0.0
C739 C 0.70339 0.32291 0.64102 0.0
C740 C 0.71023 0.3137 0.6772 0.0
H741 H 0.63424 0.38071 0.7952 0.0
H742 H 0.65787 0.36464 0.77007 0.0
C743 C 0.7195 0.29996 0.66706 0.0
C744 C 0.69138 0.3357 0.6523 0.0
H745 H 0.68591 0.37072 0.71448 0.0
C746 C 0.67522 0.3331 0.63885 0.0
C747 C 0.69537 0.34949 0.67948 0.0
C748 C 0.71264 0.35304 0.69384 0.0
C749 C 0.6628 0.34363 0.65308 0.0
C750 C 0.66674 0.35741 0.6805 0.0
C751 C 0.68295 0.36016 0.69345 0.0
C752 C 0.65401 0.36889 0.69621 0.0
C753 C 0.64548 0.33955 0.6401 0.0
C754 C 0.6445 0.37709 0.66315 0.0
C755 C 0.63098 0.38602 0.6773 0.0
C756 C 0.62689 0.38718 0.72488 0.0
C757 C 0.6371 0.37996 0.75831 0.0
C758 C 0.65057 0.37081 0.74401 0.0
H759 H 0.64414 0.32658 0.62999 0.0
H760 H 0.63707 0.34212 0.66952 0.0
H761 H 0.64174 0.34708 0.60979 0.0
H762 H 0.64719 0.37609 0.6262 0.0
H763 H 0.62348 0.39168 0.65078 0.0
H764 H 0.43615 0.79374 0.41458 0.0
H765 H 0.45321 0.81713 0.39687 0.0
H766 H 0.4618 0.82454 0.54404 0.0
H767 H 0.44488 0.8008 0.56222 0.0
H768 H 0.45345 0.85005 0.42242 0.0
H769 H 0.50732 0.81664 0.49021 0.0
H770 H 0.48803 0.80684 0.48029 0.0
H771 H 0.491 0.8193 0.53116 0.0
C772 C 0.44149 0.80043 0.44334 0.0
C773 C 0.43938 0.79527 0.48983 0.0
C774 C 0.45119 0.81385 0.43309 0.0
C775 C 0.45899 0.82237 0.46905 0.0
C776 C 0.4561 0.81792 0.51574 0.0
H777 H 0.5388 0.89064 0.45108 0.0
H778 H 0.51526 0.87526 0.47772 0.0
C779 C 0.44638 0.80442 0.52608 0.0
C780 C 0.47115 0.83495 0.45695 0.0
H781 H 0.51185 0.84269 0.45964 0.0
C782 C 0.46621 0.84854 0.43084 0.0
C783 C 0.4878 0.83283 0.46757 0.0
C784 C 0.49395 0.81806 0.49349 0.0
C785 C 0.47753 0.86011 0.41513 0.0
C786 C 0.49418 0.85785 0.42531 0.0
C787 C 0.49905 0.8444 0.45201 0.0
C788 C 0.50696 0.86905 0.40826 0.0
C789 C 0.47158 0.87466 0.38802 0.0
C790 C 0.50996 0.8709 0.36019 0.0
C791 C 0.52346 0.87977 0.3447 0.0
C792 C 0.53422 0.88673 0.37715 0.0
C793 C 0.53081 0.88533 0.42515 0.0
C794 C 0.51733 0.87657 0.44051 0.0
H795 H 0.45841 0.87685 0.39372 0.0
H796 H 0.47841 0.88578 0.39796 0.0
H797 H 0.47351 0.87249 0.35014 0.0
H798 H 0.50228 0.86492 0.33472 0.0
H799 H 0.52582 0.88059 0.30754 0.0
H800 H 0.0772 0.55174 0.14796 0.0
H801 H 0.08021 0.52838 0.09644 0.0
H802 H 0.11696 0.50851 0.18757 0.0
H803 H 0.11433 0.53218 0.23907 0.0
H804 H 0.12551 0.50652 0.09559 0.0
H805 H 0.06314 0.48313 0.12033 0.0
H806 H 0.06302 0.50399 0.10226 0.0
H807 H 0.07181 0.49851 0.15774 0.0
C808 C 0.08587 0.54238 0.15729 0.0
C809 C 0.09543 0.54373 0.1978 0.0
C810 C 0.08752 0.529 0.12789 0.0
C811 C 0.09853 0.51658 0.13882 0.0
C812 C 0.10829 0.51795 0.17884 0.0
H813 H 0.09008 0.42769 0.97648 0.0
H814 H 0.0928 0.44646 0.04204 0.0
C815 C 0.10676 0.53144 0.20816 0.0
C816 C 0.09999 0.50238 0.10758 0.0
H817 H 0.0773 0.47364 0.05219 0.0
C818 C 0.11505 0.49914 0.08653 0.0
C819 C 0.08641 0.49258 0.09665 0.0
C820 C 0.07024 0.49461 0.12086 0.0
C821 C 0.11668 0.48682 0.05296 0.0
C822 C 0.10278 0.47788 0.03939 0.0
C823 C 0.08792 0.48064 0.06214 0.0
C824 C 0.10306 0.46597 0.0007 0.0
C825 C 0.13325 0.48355 0.0325 0.0
C826 C 0.10808 0.47065 0.95575 0.0
C827 C 0.10675 0.45985 0.91829 0.0
C828 C 0.1 0.44436 0.92507 0.0
C829 C 0.09519 0.43963 0.97018 0.0
C830 C 0.09679 0.45031 0.00768 0.0
H831 H 0.14305 0.48712 0.05718 0.0
H832 H 0.1348 0.47052 0.02347 0.0
H833 H 0.13478 0.49088 0.00023 0.0
H834 H 0.11251 0.48283 0.94926 0.0
H835 H 0.11045 0.46383 0.8838 0.0
H836 H 0.89149 0.74344 0.20303 0.0
H837 H 0.8712 0.74641 0.26456 0.0
H838 H 0.85296 0.78982 0.19836 0.0
H839 H 0.87315 0.7869 0.13607 0.0
H840 H 0.86613 0.77336 0.32616 0.0
H841 H 0.8127 0.75998 0.213 0.0
H842 H 0.83324 0.75535 0.19538 0.0
H843 H 0.82601 0.77592 0.19352 0.0
C844 C 0.88315 0.75361 0.20136 0.0
C845 C 0.88386 0.76488 0.16446 0.0
C846 C 0.87163 0.75532 0.23667 0.0
C847 C 0.86059 0.76826 0.23567 0.0
C848 C 0.86131 0.77965 0.19929 0.0
H849 H 0.7938 0.78853 0.4678 0.0
H850 H 0.81512 0.79177 0.40875 0.0
C851 C 0.87284 0.77795 0.16383 0.0
C852 C 0.84816 0.76954 0.27256 0.0
H853 H 0.80756 0.76527 0.29242 0.0
C854 C 0.8533 0.77176 0.3189 0.0
C855 C 0.8315 0.76731 0.26265 0.0
C856 C 0.82546 0.76439 0.21354 0.0
C857 C 0.84216 0.77145 0.35596 0.0
C858 C 0.82553 0.76901 0.34605 0.0
C859 C 0.82036 0.76719 0.29963 0.0
C860 C 0.81338 0.76706 0.38343 0.0
C861 C 0.84829 0.77307 0.40544 0.0
C862 C 0.80543 0.75211 0.38847 0.0
C863 C 0.79327 0.75023 0.42185 0.0
C864 C 0.78879 0.76331 0.4507 0.0
C865 C 0.79702 0.77822 0.44619 0.0
C866 C 0.80921 0.78009 0.41263 0.0
H867 H 0.86174 0.77215 0.40749 0.0
H868 H 0.84462 0.78508 0.41959 0.0
H869 H 0.84286 0.76355 0.42809 0.0
H870 H 0.80854 0.74193 0.36617 0.0
H871 H 0.78721 0.73858 0.42445 0.0
H872 H 0.5838 0.56182 0.46685 0.0
H873 H 0.58122 0.54026 0.52477 0.0
H874 H 0.55312 0.51175 0.4274 0.0
H875 H 0.5552 0.53359 0.36942 0.0
H876 H 0.5407 0.51065 0.51624 0.0
H877 H 0.60691 0.49848 0.51849 0.0
H878 H 0.6022 0.51925 0.53177 0.0
H879 H 0.59747 0.51118 0.47487 0.0
C880 C 0.57707 0.55097 0.45768 0.0
C881 C 0.56987 0.54928 0.41339 0.0
C882 C 0.57565 0.53865 0.49078 0.0
C883 C 0.56731 0.52429 0.4799 0.0
C884 C 0.5597 0.52273 0.43625 0.0
H885 H 0.58184 0.43593 0.63611 0.0
H886 H 0.57966 0.45664 0.57563 0.0
C887 C 0.56093 0.53517 0.40321 0.0
C888 C 0.56686 0.51082 0.51395 0.0
H889 H 0.59132 0.48629 0.57908 0.0
C890 C 0.55174 0.5052 0.52982 0.0
C891 C 0.58129 0.50362 0.53093 0.0
C892 C 0.59787 0.50832 0.51278 0.0
C893 C 0.55068 0.49272 0.56309 0.0
C894 C 0.56515 0.48605 0.58163 0.0
C895 C 0.58024 0.49153 0.56514 0.0
C896 C 0.56512 0.47308 0.61738 0.0
C897 C 0.53412 0.48663 0.57734 0.0
C898 C 0.55757 0.47542 0.66089 0.0
C899 C 0.55862 0.46346 0.69545 0.0
C900 C 0.56754 0.44918 0.68725 0.0
C901 C 0.575 0.44688 0.64359 0.0
C902 C 0.57373 0.45868 0.60895 0.0
H903 H 0.52478 0.48949 0.5505 0.0
H904 H 0.53423 0.47329 0.58323 0.0
H905 H 0.53044 0.49265 0.61038 0.0
H906 H 0.55122 0.48663 0.66854 0.0
H907 H 0.55284 0.46557 0.72891 0.0
H908 H 0.86851 0.22354 0.97172 0.0
H909 H 0.84891 0.22189 0.90764 0.0
H910 H 0.88377 0.24387 0.81437 0.0
H911 H 0.90317 0.2461 0.87853 0.0
H912 H 0.85554 0.25851 0.80822 0.0
H913 H 0.84557 0.19213 0.7969 0.0
H914 H 0.84197 0.19969 0.85477 0.0
H915 H 0.86206 0.20087 0.83005 0.0
C916 C 0.87204 0.22786 0.93742 0.0
C917 C 0.88732 0.23502 0.93013 0.0
C918 C 0.86089 0.22678 0.90076 0.0
C919 C 0.865 0.23251 0.85608 0.0
C920 C 0.88039 0.23933 0.84856 0.0
H921 H 0.80113 0.22012 0.61443 0.0
H922 H 0.82423 0.21849 0.66818 0.0
C923 C 0.89143 0.24063 0.88528 0.0
C924 C 0.85282 0.23268 0.81815 0.0
H925 H 0.8256 0.20902 0.75938 0.0
C926 C 0.84914 0.24764 0.79716 0.0
C927 C 0.84466 0.21846 0.80325 0.0
C928 C 0.84889 0.20186 0.82208 0.0
C929 C 0.83714 0.24889 0.76272 0.0
C930 C 0.82825 0.23487 0.75005 0.0
C931 C 0.83231 0.21979 0.76973 0.0
C932 C 0.81433 0.23576 0.71763 0.0
C933 C 0.83415 0.26521 0.7402 0.0
C934 C 0.80107 0.2458 0.72815 0.0
C935 C 0.78798 0.24688 0.69745 0.0
C936 C 0.7878 0.23771 0.65602 0.0
C937 C 0.80095 0.22736 0.64605 0.0
C938 C 0.81413 0.2264 0.67666 0.0
H939 H 0.84507 0.27312 0.74241 0.0
H940 H 0.8307 0.26388 0.70288 0.0
H941 H 0.82411 0.27147 0.75881 0.0
H942 H 0.80081 0.25277 0.76026 0.0
H943 H 0.77795 0.25481 0.70644 0.0
H944 H 0.29361 0.23668 0.93313 0.0
H945 H 0.31237 0.23989 0.8678 0.0
H946 H 0.30975 0.29201 0.88199 0.0
H947 H 0.29111 0.28895 0.94804 0.0
H948 H 0.30359 0.25659 0.78539 0.0
H949 H 0.35879 0.28298 0.86866 0.0
H950 H 0.34323 0.27271 0.90194 0.0
H951 H 0.33984 0.29299 0.88095 0.0
C952 C 0.29724 0.24883 0.92296 0.0
C953 C 0.29082 0.26257 0.94556 0.0
C954 C 0.30792 0.25063 0.8856 0.0
C955 C 0.3124 0.26617 0.87024 0.0
C956 C 0.30657 0.27992 0.89381 0.0
H957 H 0.37606 0.28761 0.6327 0.0
H958 H 0.35519 0.29133 0.6928 0.0
C959 C 0.29592 0.27813 0.93145 0.0
C960 C 0.32221 0.26782 0.82743 0.0
H961 H 0.35944 0.27925 0.787 0.0
C962 C 0.31577 0.26165 0.78561 0.0
C963 C 0.33797 0.2746 0.82795 0.0
C964 C 0.34548 0.28111 0.87226 0.0
C965 C 0.32492 0.2616 0.7444 0.0
C966 C 0.34092 0.26774 0.74537 0.0
C967 C 0.34711 0.27459 0.78662 0.0
C968 C 0.35202 0.26562 0.70551 0.0
C969 C 0.31753 0.25473 0.70037 0.0
C970 C 0.35691 0.24993 0.69271 0.0
C971 C 0.36883 0.24775 0.65876 0.0
C972 C 0.37606 0.26126 0.63708 0.0
C973 C 0.37067 0.27697 0.64869 0.0
C974 C 0.3588 0.27913 0.68301 0.0
H975 H 0.30404 0.25483 0.70187 0.0
H976 H 0.32153 0.26168 0.66915 0.0
H977 H 0.32154 0.24194 0.69609 0.0
H978 H 0.35195 0.23938 0.71029 0.0
H979 H 0.37272 0.2355 0.65054 0.0
H980 H 0.37279 0.76075 0.44222 0.0
H981 H 0.35317 0.75725 0.37915 0.0
H982 H 0.356 0.70519 0.39498 0.0
H983 H 0.37549 0.70856 0.4589 0.0
H984 H 0.36099 0.74047 0.29692 0.0
H985 H 0.30686 0.71384 0.38512 0.0
H986 H 0.32274 0.72418 0.41697 0.0
H987 H 0.32597 0.7039 0.39578 0.0
C988 C 0.36903 0.74855 0.43291 0.0
C989 C 0.37575 0.73492 0.45531 0.0
C990 C 0.35784 0.74658 0.39686 0.0
C991 C 0.35317 0.73098 0.38256 0.0
C992 C 0.35931 0.71734 0.40602 0.0
H993 H 0.28958 0.70856 0.14464 0.0
H994 H 0.31003 0.70518 0.20625 0.0
C995 C 0.37046 0.7193 0.44242 0.0
C996 C 0.34291 0.72916 0.34065 0.0
H997 H 0.30537 0.71735 0.30337 0.0
C998 C 0.34886 0.73532 0.29823 0.0
C999 C 0.32721 0.72226 0.34256 0.0
C1000 C 0.3202 0.71575 0.38755 0.0
C1001 C 0.33929 0.73524 0.25783 0.0
C1002 C 0.32337 0.72896 0.26019 0.0
C1003 C 0.31764 0.72213 0.30198 0.0
C1004 C 0.31195 0.73088 0.22103 0.0
C1005 C 0.34612 0.74218 0.21315 0.0
C1006 C 0.30642 0.74644 0.2092 0.0
C1007 C 0.29475 0.74842 0.17444 0.0
C1008 C 0.28842 0.73484 0.15088 0.0
C1009 C 0.29429 0.71925 0.16205 0.0
C1010 C 0.3059 0.71728 0.19723 0.0
H1011 H 0.35961 0.74265 0.21389 0.0
H1012 H 0.34221 0.73488 0.1825 0.0
H1013 H 0.34152 0.75475 0.20844 0.0
H1014 H 0.31086 0.75704 0.2277 0.0
H1015 H 0.29048 0.76057 0.16662 0.0
H1016 H 0.56811 0.94859 0.42669 0.0
H1017 H 0.57127 0.97 0.4848 0.0
H1018 H 0.62032 0.97852 0.43777 0.0
H1019 H 0.61724 0.95715 0.3788 0.0
H1020 H 0.59489 0.97021 0.55654 0.0
H1021 H 0.59933 0.02426 0.44014 0.0
H1022 H 0.59148 0.00498 0.42017 0.0
H1023 H 0.61295 0.00772 0.42777 0.0
C1024 C 0.57954 0.95508 0.4283 0.0
C1025 C 0.59244 0.95116 0.39815 0.0
C1026 C 0.58132 0.96729 0.46159 0.0
C1027 C 0.59598 0.97583 0.4653 0.0
C1028 C 0.60883 0.97217 0.43492 0.0
H1029 H 0.61658 0.03651 0.71013 0.0
H1030 H 0.61907 0.01603 0.6485 0.0
C1031 C 0.60706 0.95994 0.4014 0.0
C1032 C 0.59783 0.98813 0.50235 0.0
H1033 H 0.60141 0.02887 0.52126 0.0
C1034 C 0.59645 0.98303 0.54898 0.0
C1035 C 0.59978 0.00479 0.49201 0.0
C1036 C 0.60086 0.01087 0.44235 0.0
C1037 C 0.59657 0.99426 0.58574 0.0
C1038 C 0.59837 0.01095 0.57541 0.0
C1039 C 0.60012 0.01602 0.52885 0.0
C1040 C 0.59724 0.02345 0.61216 0.0
C1041 C 0.59411 0.98827 0.6351 0.0
C1042 C 0.58428 0.03448 0.6115 0.0
C1043 C 0.58283 0.04619 0.64641 0.0
C1044 C 0.59437 0.0471 0.68256 0.0
C1045 C 0.60743 0.03606 0.68294 0.0
C1046 C 0.60887 0.02434 0.64787 0.0
H1047 H 0.58978 0.97548 0.63605 0.0
H1048 H 0.60582 0.9889 0.65426 0.0
H1049 H 0.58519 0.99602 0.65386 0.0
H1050 H 0.57519 0.03392 0.58414 0.0
H1051 H 0.57265 0.05452 0.64497 0.0
H1052 H 0.0967 0.05376 0.9422 0.0
H1053 H 0.09459 0.03311 0.00297 0.0
H1054 H 0.04778 0.01859 0.94961 0.0
H1055 H 0.04979 0.03918 0.88809 0.0
H1056 H 0.06945 0.03061 0.07146 0.0
H1057 H 0.07435 0.9758 0.9581 0.0
H1058 H 0.08025 0.99579 0.93837 0.0
H1059 H 0.05914 0.99048 0.94208 0.0
C1060 C 0.08598 0.04613 0.94306 0.0
C1061 C 0.07342 0.04809 0.91024 0.0
C1062 C 0.08479 0.03438 0.97791 0.0
C1063 C 0.07108 0.02435 0.98047 0.0
C1064 C 0.05854 0.02615 0.94772 0.0
H1065 H 0.05109 0.96146 0.22073 0.0
H1066 H 0.04855 0.98246 0.16053 0.0
C1067 C 0.05971 0.03792 0.91272 0.0
C1068 C 0.06996 0.01218 0.01805 0.0
H1069 H 0.07092 0.97142 0.03887 0.0
C1070 C 0.06965 0.01765 0.06449 0.0
C1071 C 0.07032 0.99535 0.00847 0.0
C1072 C 0.07115 0.98892 0.95912 0.0
C1073 C 0.07 0.00667 0.10188 0.0
C1074 C 0.07049 0.98985 0.09229 0.0
C1075 C 0.07048 0.98437 0.04585 0.0
C1076 C 0.07209 0.9777 0.12981 0.0
C1077 C 0.07045 0.01313 0.15124 0.0
C1078 C 0.08614 0.96813 0.13212 0.0
C1079 C 0.08763 0.95614 0.16617 0.0
C1080 C 0.07503 0.95346 0.19845 0.0
C1081 C 0.06104 0.96327 0.19649 0.0
C1082 C 0.05957 0.97528 0.16226 0.0
H1083 H 0.07307 0.02637 0.1523 0.0
H1084 H 0.05848 0.01104 0.16806 0.0
H1085 H 0.0798 0.00666 0.17216 0.0
H1086 H 0.09593 0.96988 0.10729 0.0
H1087 H 0.09856 0.94882 0.16672 0.0
H1088 H 0.12437 0.45284 0.67288 0.0
H1089 H 0.12086 0.47455 0.61567 0.0
H1090 H 0.06885 0.46906 0.62392 0.0
H1091 H 0.07224 0.44729 0.6818 0.0
H1092 H 0.10495 0.47459 0.52799 0.0
H1093 H 0.07641 0.51774 0.65341 0.0
H1094 H 0.08701 0.49969 0.67236 0.0
H1095 H 0.06699 0.49811 0.6479 0.0
C1096 C 0.11216 0.45612 0.66232 0.0
C1097 C 0.09857 0.44838 0.68211 0.0
C1098 C 0.11019 0.46856 0.62961 0.0
C1099 C 0.0946 0.47361 0.61617 0.0
C1100 C 0.08098 0.46554 0.63449 0.0
H1101 H 0.07088 0.55375 0.42429 0.0
H1102 H 0.06838 0.53167 0.48156 0.0
C1103 C 0.08295 0.45301 0.66722 0.0
C1104 C 0.09284 0.48748 0.58339 0.0
H1105 H 0.08071 0.52717 0.57661 0.0
C1106 C 0.09955 0.48604 0.53851 0.0
C1107 C 0.08573 0.5024 0.59716 0.0
C1108 C 0.0787 0.50473 0.64541 0.0
C1109 C 0.09959 0.49919 0.50729 0.0
C1110 C 0.09303 0.51429 0.52164 0.0
C1111 C 0.08581 0.5156 0.56589 0.0
C1112 C 0.09429 0.52893 0.49163 0.0
C1113 C 0.10675 0.49684 0.45919 0.0
C1114 C 0.10962 0.53517 0.48006 0.0
C1115 C 0.11109 0.54776 0.4476 0.0
C1116 C 0.09722 0.55443 0.42619 0.0
C1117 C 0.08179 0.54888 0.44016 0.0
C1118 C 0.08034 0.53623 0.47272 0.0
H1119 H 0.10726 0.48379 0.44935 0.0
H1120 H 0.09959 0.50349 0.43242 0.0
H1121 H 0.11934 0.50167 0.45877 0.0
H1122 H 0.12052 0.52992 0.495 0.0
H1123 H 0.12315 0.5518 0.43791 0.0
H1124 H 0.88182 0.79197 0.91745 0.0
H1125 H 0.86013 0.7884 0.86021 0.0
H1126 H 0.86498 0.73636 0.87099 0.0
H1127 H 0.8867 0.73981 0.92895 0.0
H1128 H 0.85947 0.77209 0.77346 0.0
H1129 H 0.81659 0.74463 0.90161 0.0
H1130 H 0.83488 0.75504 0.91946 0.0
H1131 H 0.83604 0.7349 0.89558 0.0
C1132 C 0.87843 0.77974 0.90736 0.0
C1133 C 0.88594 0.76617 0.928 0.0
C1134 C 0.866 0.77773 0.87464 0.0
C1135 C 0.86073 0.76213 0.86202 0.0
C1136 C 0.86865 0.74852 0.88095 0.0
H1137 H 0.7793 0.73932 0.67351 0.0
H1138 H 0.80171 0.73643 0.72952 0.0
C1139 C 0.88117 0.75052 0.9137 0.0
C1140 C 0.84672 0.76036 0.82978 0.0
H1141 H 0.80682 0.74883 0.82514 0.0
C1142 C 0.84801 0.76689 0.78464 0.0
C1143 C 0.83177 0.75352 0.84443 0.0
C1144 C 0.82959 0.74671 0.89299 0.0
C1145 C 0.83468 0.76705 0.75405 0.0
C1146 C 0.81958 0.76078 0.76928 0.0
C1147 C 0.8184 0.7537 0.81375 0.0
C1148 C 0.80477 0.76227 0.74006 0.0
C1149 C 0.83684 0.77406 0.7057 0.0
C1150 C 0.79863 0.77771 0.72917 0.0
C1151 C 0.78584 0.77941 0.69747 0.0
C1152 C 0.77889 0.76568 0.67609 0.0
C1153 C 0.78437 0.75014 0.68936 0.0
C1154 C 0.79722 0.74846 0.7212 0.0
H1155 H 0.84983 0.77442 0.69526 0.0
H1156 H 0.82998 0.76688 0.6794 0.0
H1157 H 0.83211 0.78669 0.70519 0.0
H1158 H 0.80411 0.78851 0.74407 0.0
H1159 H 0.78187 0.79155 0.6883 0.0
H1160 H 0.54291 0.55012 0.16611 0.0
H1161 H 0.54564 0.5286 0.10795 0.0
H1162 H 0.59781 0.53162 0.11814 0.0
H1163 H 0.5952 0.55317 0.17698 0.0
H1164 H 0.56187 0.52762 0.02078 0.0
H1165 H 0.58783 0.48345 0.14795 0.0
H1166 H 0.57805 0.50204 0.16621 0.0
H1167 H 0.59822 0.50258 0.14241 0.0
C1168 C 0.55499 0.54637 0.15566 0.0
C1169 C 0.56884 0.55331 0.17643 0.0
C1170 C 0.55652 0.53404 0.12241 0.0
C1171 C 0.57191 0.5283 0.10938 0.0
C1172 C 0.58581 0.53567 0.12838 0.0
H1173 H 0.59247 0.44572 0.92284 0.0
H1174 H 0.59579 0.46831 0.97808 0.0
C1175 C 0.5843 0.54809 0.16166 0.0
C1176 C 0.57316 0.51431 0.07681 0.0
H1177 H 0.58339 0.47407 0.07124 0.0
C1178 C 0.56669 0.51595 0.03169 0.0
C1179 C 0.57949 0.49909 0.0911 0.0
C1180 C 0.58621 0.49654 0.13963 0.0
C1181 C 0.56613 0.50273 0.00072 0.0
C1182 C 0.5719 0.48737 0.01558 0.0
C1183 C 0.5789 0.48584 0.06009 0.0
C1184 C 0.57002 0.47268 0.98598 0.0
C1185 C 0.55928 0.5053 0.95235 0.0
C1186 C 0.55445 0.46723 0.97375 0.0
C1187 C 0.5525 0.45436 0.94245 0.0
C1188 C 0.56612 0.44658 0.92287 0.0
C1189 C 0.58173 0.45144 0.93728 0.0
C1190 C 0.58366 0.46438 0.96869 0.0
H1191 H 0.55958 0.51832 0.9421 0.0
H1192 H 0.56611 0.49813 0.92598 0.0
H1193 H 0.54643 0.50124 0.95172 0.0
H1194 H 0.54376 0.47324 0.98752 0.0
H1195 H 0.5403 0.45087 0.9324 0.0
H1196 H 0.88597 0.26168 0.17091 0.0
H1197 H 0.86454 0.26515 0.22983 0.0
H1198 H 0.86048 0.21311 0.24288 0.0
H1199 H 0.88179 0.20954 0.18459 0.0
H1200 H 0.83224 0.25297 0.22206 0.0
H1201 H 0.86312 0.22859 0.37906 0.0
H1202 H 0.87408 0.23502 0.32759 0.0
H1203 H 0.86464 0.21531 0.32948 0.0
C1204 C 0.88073 0.251 0.18705 0.0
C1205 C 0.88561 0.23533 0.17318 0.0
C1206 C 0.86844 0.253 0.22048 0.0
C1207 C 0.86103 0.23939 0.241 0.0
C1208 C 0.86621 0.22378 0.22808 0.0
H1209 H 0.78281 0.2095 0.41358 0.0
H1210 H 0.80468 0.21308 0.35696 0.0
C1211 C 0.87837 0.22177 0.1946 0.0
C1212 C 0.8472 0.24124 0.2738 0.0
H1213 H 0.83402 0.22965 0.38185 0.0
C1214 C 0.83266 0.24813 0.25731 0.0
C1215 C 0.84782 0.23495 0.31975 0.0
C1216 C 0.8633 0.2282 0.34024 0.0
C1217 C 0.81848 0.24809 0.28475 0.0
C1218 C 0.81895 0.2411 0.32986 0.0
C1219 C 0.83366 0.23484 0.34701 0.0
C1220 C 0.80422 0.23934 0.35929 0.0
C1221 C 0.80294 0.25482 0.26462 0.0
C1222 C 0.79638 0.25296 0.37842 0.0
C1223 C 0.78376 0.25096 0.41081 0.0
C1224 C 0.7789 0.2353 0.42478 0.0
C1225 C 0.78626 0.22173 0.40369 0.0
C1226 C 0.79881 0.22374 0.37141 0.0
H1227 H 0.80397 0.25728 0.22655 0.0
H1228 H 0.79273 0.24622 0.27052 0.0
H1229 H 0.79989 0.26638 0.28253 0.0
H1230 H 0.8005 0.26511 0.36994 0.0
H1231 H 0.77843 0.26165 0.42667 0.0
H1232 H 0.38682 0.28837 0.40328 0.0
H1233 H 0.36507 0.28559 0.34588 0.0
H1234 H 0.36638 0.2335 0.36193 0.0
H1235 H 0.38807 0.23619 0.42019 0.0
H1236 H 0.36245 0.26895 0.26142 0.0
H1237 H 0.31905 0.2448 0.39343 0.0
H1238 H 0.33818 0.25394 0.40954 0.0
H1239 H 0.33766 0.23361 0.38673 0.0
C1240 C 0.38267 0.27629 0.39419 0.0
C1241 C 0.38911 0.26251 0.41664 0.0
C1242 C 0.3702 0.27472 0.36138 0.0
C1243 C 0.36385 0.25937 0.35041 0.0
C1244 C 0.37086 0.2455 0.37069 0.0
H1245 H 0.28068 0.23865 0.16665 0.0
H1246 H 0.30335 0.23539 0.22161 0.0
C1247 C 0.38338 0.24705 0.4036 0.0
C1248 C 0.34953 0.25816 0.31899 0.0
H1249 H 0.30912 0.24841 0.31685 0.0
C1250 C 0.35082 0.26435 0.27345 0.0
C1251 C 0.33435 0.25215 0.33476 0.0
C1252 C 0.3321 0.24585 0.38387 0.0
C1253 C 0.33733 0.26493 0.24349 0.0
C1254 C 0.32207 0.25939 0.25973 0.0
C1255 C 0.32084 0.2527 0.30467 0.0
C1256 C 0.30718 0.26118 0.23098 0.0
C1257 C 0.33947 0.27157 0.19471 0.0
C1258 C 0.30141 0.27674 0.21977 0.0
C1259 C 0.28846 0.27865 0.18872 0.0
C1260 C 0.28099 0.26501 0.16826 0.0
C1261 C 0.28615 0.2494 0.18179 0.0
C1262 C 0.29914 0.2475 0.21303 0.0
H1263 H 0.35243 0.27152 0.1838 0.0
H1264 H 0.33231 0.26441 0.16906 0.0
H1265 H 0.33506 0.28431 0.19367 0.0
H1266 H 0.30728 0.28744 0.23396 0.0
H1267 H 0.28476 0.29085 0.1793 0.0
H1268 H 0.3874 0.76066 0.67265 0.0
H1269 H 0.36635 0.76417 0.73247 0.0
H1270 H 0.36523 0.71233 0.75431 0.0
H1271 H 0.38629 0.70875 0.69535 0.0
H1272 H 0.33535 0.75129 0.72705 0.0
H1273 H 0.36583 0.72936 0.88734 0.0
H1274 H 0.37694 0.7349 0.83532 0.0
H1275 H 0.36767 0.71515 0.8401 0.0
C1276 C 0.38297 0.75006 0.69108 0.0
C1277 C 0.38855 0.73442 0.67928 0.0
C1278 C 0.37087 0.75208 0.72505 0.0
C1279 C 0.36431 0.73853 0.74817 0.0
C1280 C 0.37032 0.72299 0.73765 0.0
H1281 H 0.28448 0.70842 0.91483 0.0
H1282 H 0.30707 0.71202 0.8606 0.0
C1283 C 0.38234 0.72096 0.70372 0.0
C1284 C 0.35024 0.74029 0.78029 0.0
H1285 H 0.33658 0.72929 0.88841 0.0
C1286 C 0.33567 0.74676 0.76264 0.0
C1287 C 0.35069 0.7344 0.82672 0.0
C1288 C 0.36618 0.72822 0.84866 0.0
C1289 C 0.32133 0.74668 0.78937 0.0
C1290 C 0.32164 0.74006 0.83492 0.0
C1291 C 0.33635 0.7342 0.85323 0.0
C1292 C 0.30674 0.73828 0.86356 0.0
C1293 C 0.30579 0.75299 0.76812 0.0
C1294 C 0.2988 0.75189 0.88235 0.0
C1295 C 0.28579 0.74988 0.91345 0.0
C1296 C 0.28059 0.73421 0.92634 0.0
C1297 C 0.28814 0.72066 0.9057 0.0
C1298 C 0.30111 0.72268 0.87481 0.0
H1299 H 0.30709 0.75553 0.73016 0.0
H1300 H 0.29581 0.74408 0.77318 0.0
H1301 H 0.30223 0.76442 0.78595 0.0
H1302 H 0.30306 0.76403 0.87443 0.0
H1303 H 0.28032 0.76057 0.92895 0.0
H1304 H 0.62116 0.94612 0.15983 0.0
H1305 H 0.61844 0.96849 0.10439 0.0
H1306 H 0.5663 0.96615 0.11669 0.0
H1307 H 0.56888 0.94358 0.17231 0.0
H1308 H 0.57871 0.97135 0.02234 0.0
H1309 H 0.60474 0.01422 0.15186 0.0
H1310 H 0.617 0.99651 0.1418 0.0
H1311 H 0.59723 0.99436 0.16778 0.0
C1312 C 0.60908 0.95015 0.15027 0.0
C1313 C 0.59523 0.94315 0.17085 0.0
C1314 C 0.60756 0.96302 0.11877 0.0
C1315 C 0.59219 0.96921 0.10733 0.0
C1316 C 0.57828 0.96163 0.12546 0.0
H1317 H 0.57026 0.05122 0.91833 0.0
H1318 H 0.56675 0.02963 0.97669 0.0
C1319 C 0.57978 0.9487 0.15707 0.0
C1320 C 0.59086 0.98402 0.07804 0.0
H1321 H 0.6026 0.0238 0.07347 0.0
C1322 C 0.58372 0.98289 0.03363 0.0
C1323 C 0.59731 -0.00092 0.09311 0.0
C1324 C 0.60437 0.00122 0.14141 0.0
C1325 C 0.58364 0.99623 0.00288 0.0
C1326 C 0.59066 0.01112 0.01737 0.0
C1327 C 0.59726 0.01238 0.06242 0.0
C1328 C 0.59249 0.0251 0.98503 0.0
C1329 C 0.57674 0.99409 0.95441 0.0
C1330 C 0.60811 0.03017 0.97194 0.0
C1331 C 0.61015 0.04251 0.93898 0.0
C1332 C 0.5966 0.05014 0.91858 0.0
C1333 C 0.58095 0.04559 0.93339 0.0
C1334 C 0.57891 0.03316 0.96638 0.0
H1335 H 0.5745 0.98111 0.94589 0.0
H1336 H 0.56501 0.00068 0.95189 0.0
H1337 H 0.5851 -0.00074 0.92781 0.0
H1338 H 0.61875 0.0242 0.98616 0.0
H1339 H 0.62238 0.04574 0.92849 0.0
H1340 H 0.04261 0.04824 0.67194 0.0
H1341 H 0.04591 0.0257 0.61733 0.0
H1342 H 0.09795 0.03116 0.62369 0.0
H1343 H 0.09478 0.05393 0.67839 0.0
H1344 H 0.08506 0.02483 0.53164 0.0
H1345 H 0.06243 0.981 0.66362 0.0
H1346 H 0.04903 0.99789 0.65397 0.0
H1347 H 0.06884 0.00133 0.67861 0.0
C1348 C 0.05477 0.04484 0.66128 0.0
C1349 C 0.06844 0.05281 0.67987 0.0
C1350 C 0.05663 0.03187 0.63029 0.0
C1351 C 0.07217 0.02651 0.61742 0.0
C1352 C 0.08584 0.03502 0.63361 0.0
H1353 H 0.09689 0.94552 0.42798 0.0
H1354 H 0.09966 0.96703 0.48685 0.0
C1355 C 0.084 0.04806 0.6647 0.0
C1356 C 0.074 0.0117 0.58832 0.0
H1357 H 0.06427 0.97135 0.58514 0.0
C1358 C 0.08073 0.01308 0.54345 0.0
C1359 C 0.06845 0.99637 0.60406 0.0
C1360 C 0.06193 0.99396 0.65287 0.0
C1361 C 0.08126 -0.00031 0.51295 0.0
C1362 C 0.07513 0.98449 0.52812 0.0
C1363 C 0.06894 0.98301 0.57358 0.0
C1364 C 0.07378 0.97038 0.49608 0.0
C1365 C 0.08768 0.00205 0.46402 0.0
C1366 C 0.05836 0.96464 0.48342 0.0
C1367 C 0.05673 0.95234 0.45012 0.0
C1368 C 0.07053 0.94543 0.42899 0.0
C1369 C 0.08603 0.95058 0.44361 0.0
C1370 C 0.08763 0.96297 0.4769 0.0
H1371 H 0.08925 0.01511 0.4552 0.0
H1372 H 0.09968 0.996 0.46083 0.0
H1373 H 0.07937 0.99645 0.43803 0.0
H1374 H 0.04751 0.97011 0.49806 0.0
H1375 H 0.04463 0.94864 0.43979 0.0
loop_
_geom_bond_atom_site_label_1
_geom_bond_atom_site_label_2
_geom_bond_distance
_geom_bond_site_symmetry_2
_ccdc_geom_bond_type
O0 Cd1 2.223 . S
O0 C8 1.315 . S
Cd1 O0 2.223 . S
Cd1 O4 2.297 . S
Cd1 O5 2.439 . S
Cd1 O11 2.240 . S
Cd2 O3 2.240 . S
Cd2 O10 2.223 . S
Cd2 O12 2.297 . S
Cd2 O13 2.439 . S
O3 Cd2 2.240 . S
O3 C8 1.279 . S
O4 Cd1 2.297 . S
O4 C6 1.247 . S
O5 Cd1 2.439 . S
O5 C6 1.208 . S
C6 O4 1.247 . S
C6 O5 1.208 . S
C7 O12 1.247 . S
C7 O13 1.208 . S
C8 O0 1.315 . S
C8 O3 1.279 . S
C9 O10 1.315 . S
C9 O11 1.279 . S
O10 Cd2 2.223 . S
O10 C9 1.315 . S
O11 Cd1 2.240 . S
O11 C9 1.279 . S
O12 Cd2 2.297 . S
O12 C7 1.247 . S
O13 Cd2 2.439 . S
O13 C7 1.208 . S
O14 Cd15 2.223 . S
O14 C22 1.315 . S
Cd15 O14 2.223 . S
Cd15 O18 2.297 . S
Cd15 O19 2.439 . S
Cd15 O25 2.240 . S
Cd16 O17 2.240 . S
Cd16 O24 2.223 . S
Cd16 O26 2.297 . S
Cd16 O27 2.439 . S
O17 Cd16 2.240 . S
O17 C22 1.279 . S
O18 Cd15 2.297 . S
O18 C20 1.247 . S
O19 Cd15 2.439 . S
O19 C20 1.208 . S
C20 O18 1.247 . S
C20 O19 1.208 . S
C21 O26 1.247 . S
C21 O27 1.208 . S
C22 O14 1.315 . S
C22 O17 1.279 . S
C23 O24 1.315 . S
C23 O25 1.279 . S
O24 Cd16 2.223 . S
O24 C23 1.315 . S
O25 Cd15 2.240 . S
O25 C23 1.279 . S
O26 Cd16 2.297 . S
O26 C21 1.247 . S
O27 Cd16 2.439 . S
O27 C21 1.208 . S
O28 Cd29 2.223 . S
O28 C36 1.315 . S
Cd29 O28 2.223 . S
Cd29 O32 2.297 . S
Cd29 O33 2.439 . S
Cd29 O39 2.240 . S
Cd30 O31 2.240 . S
Cd30 O38 2.223 . S
Cd30 O40 2.297 . S
Cd30 O41 2.439 . S
O31 Cd30 2.240 . S
O31 C36 1.279 . S
O32 Cd29 2.297 . S
O32 C34 1.247 . S
O33 Cd29 2.439 . S
O33 C34 1.208 . S
C34 O32 1.247 . S
C34 O33 1.208 . S
C35 O40 1.247 . S
C35 O41 1.208 . S
C36 O28 1.315 . S
C36 O31 1.279 . S
C37 O38 1.315 . S
C37 O39 1.279 . S
O38 Cd30 2.223 . S
O38 C37 1.315 . S
O39 Cd29 2.240 . S
O39 C37 1.279 . S
O40 Cd30 2.297 . S
O40 C35 1.247 . S
O41 Cd30 2.439 . S
O41 C35 1.208 . S
O42 Cd43 2.223 1_556 S
O42 C50 1.315 . S
Cd43 O42 2.223 1_554 S
Cd43 O46 2.297 . S
Cd43 O47 2.439 . S
Cd43 O53 2.240 . S
Cd44 O45 2.240 . S
Cd44 O52 2.223 . S
Cd44 O54 2.297 . S
Cd44 O55 2.439 1_556 S
O45 Cd44 2.240 . S
O45 C50 1.279 . S
O46 Cd43 2.297 . S
O46 C48 1.247 . S
O47 Cd43 2.439 . S
O47 C48 1.208 . S
C48 O46 1.247 . S
C48 O47 1.208 . S
C49 O54 1.252 . S
C49 O55 1.205 1_556 S
C50 O42 1.315 . S
C50 O45 1.279 . S
C51 O52 1.315 . S
C51 O53 1.279 1_556 S
O52 Cd44 2.223 . S
O52 C51 1.315 . S
O53 Cd43 2.240 . S
O53 C51 1.279 1_554 S
O54 Cd44 2.297 . S
O54 C49 1.252 . S
O55 Cd44 2.439 1_554 S
O55 C49 1.205 1_554 S
O56 Cd57 2.223 . S
O56 C64 1.315 . S
Cd57 O56 2.223 . S
Cd57 O60 2.297 . S
Cd57 O61 2.439 . S
Cd57 O67 2.240 . S
Cd58 O59 2.240 . S
Cd58 O66 2.223 . S
Cd58 O68 2.297 . S
Cd58 O69 2.439 . S
O59 Cd58 2.240 . S
O59 C64 1.279 . S
O60 Cd57 2.297 . S
O60 C62 1.247 . S
O61 Cd57 2.439 . S
O61 C62 1.208 . S
C62 O60 1.247 . S
C62 O61 1.208 . S
C63 O68 1.247 . S
C63 O69 1.208 . S
C64 O56 1.315 . S
C64 O59 1.279 . S
C65 O66 1.315 . S
C65 O67 1.279 . S
O66 Cd58 2.223 . S
O66 C65 1.315 . S
O67 Cd57 2.240 . S
O67 C65 1.279 . S
O68 Cd58 2.297 . S
O68 C63 1.247 . S
O69 Cd58 2.439 . S
O69 C63 1.208 . S
O70 Cd71 2.223 . S
O70 C78 1.315 . S
Cd71 O70 2.223 . S
Cd71 O74 2.297 . S
Cd71 O75 2.439 . S
Cd71 O81 2.240 . S
Cd72 O73 2.240 . S
Cd72 O80 2.223 . S
Cd72 O82 2.297 . S
Cd72 O83 2.439 . S
O73 Cd72 2.240 . S
O73 C78 1.279 . S
O74 Cd71 2.297 . S
O74 C76 1.247 1_554 S
O75 Cd71 2.439 . S
O75 C76 1.208 1_554 S
C76 O74 1.247 1_556 S
C76 O75 1.208 1_556 S
C77 O82 1.247 . S
C77 O83 1.208 . S
C78 O70 1.315 . S
C78 O73 1.279 . S
C79 O80 1.315 . S
C79 O81 1.279 . S
O80 Cd72 2.223 . S
O80 C79 1.315 . S
O81 Cd71 2.240 . S
O81 C79 1.279 . S
O82 Cd72 2.297 . S
O82 C77 1.247 . S
O83 Cd72 2.439 . S
O83 C77 1.208 . S
O84 Cd85 2.223 . S
O84 C92 1.315 . S
Cd85 O84 2.223 . S
Cd85 O88 2.297 . S
Cd85 O89 2.439 . S
Cd85 O95 2.240 . S
Cd86 O87 2.240 . S
Cd86 O94 2.223 . S
Cd86 O96 2.297 . S
Cd86 O97 2.439 . S
O87 Cd86 2.240 . S
O87 C92 1.279 . S
O88 Cd85 2.297 . S
O88 C90 1.247 . S
O89 Cd85 2.439 . S
O89 C90 1.208 . S
C90 O88 1.247 . S
C90 O89 1.208 . S
C91 O96 1.247 . S
C91 O97 1.208 . S
C92 O84 1.315 . S
C92 O87 1.279 . S
C93 O94 1.315 . S
C93 O95 1.279 . S
O94 Cd86 2.223 . S
O94 C93 1.315 . S
O95 Cd85 2.240 . S
O95 C93 1.279 . S
O96 Cd86 2.297 . S
O96 C91 1.247 . S
O97 Cd86 2.439 . S
O97 C91 1.208 . S
O98 Cd99 2.223 . S
O98 C106 1.315 . S
Cd99 O98 2.223 . S
Cd99 O102 2.297 . S
Cd99 O103 2.439 . S
Cd99 O109 2.240 . S
Cd100 O101 2.240 . S
Cd100 O108 2.223 . S
Cd100 O110 2.297 . S
Cd100 O111 2.439 . S
O101 Cd100 2.240 . S
O101 C106 1.279 . S
O102 Cd99 2.297 . S
O102 C104 1.247 . S
O103 Cd99 2.439 . S
O103 C104 1.208 . S
C104 O102 1.247 . S
C104 O103 1.208 . S
C105 O110 1.247 . S
C105 O111 1.208 . S
C106 O98 1.315 . S
C106 O101 1.279 . S
C107 O108 1.315 . S
C107 O109 1.279 . S
O108 Cd100 2.223 . S
O108 C107 1.315 . S
O109 Cd99 2.240 . S
O109 C107 1.279 . S
O110 Cd100 2.297 . S
O110 C105 1.247 . S
O111 Cd100 2.439 . S
O111 C105 1.208 . S
O112 Cd113 2.223 . S
O112 C120 1.315 . S
Cd113 O112 2.223 . S
Cd113 O116 2.297 . S
Cd113 O117 2.439 . S
Cd113 O123 2.240 . S
Cd114 O115 2.240 . S
Cd114 O122 2.223 . S
Cd114 O124 2.297 . S
Cd114 O125 2.439 . S
O115 Cd114 2.240 . S
O115 C120 1.279 . S
O116 Cd113 2.297 . S
O116 C118 1.247 . S
O117 Cd113 2.439 . S
O117 C118 1.208 . S
C118 O116 1.247 . S
C118 O117 1.208 . S
C119 O124 1.247 . S
C119 O125 1.208 . S
C120 O112 1.315 . S
C120 O115 1.279 . S
C121 O122 1.315 . S
C121 O123 1.279 . S
O122 Cd114 2.223 . S
O122 C121 1.315 . S
O123 Cd113 2.240 . S
O123 C121 1.279 . S
O124 Cd114 2.297 . S
O124 C119 1.247 . S
O125 Cd114 2.439 . S
O125 C119 1.208 . S
O126 Cd127 2.223 . S
O126 C134 1.315 . S
Cd127 O126 2.223 . S
Cd127 O130 2.297 . S
Cd127 O131 2.439 . S
Cd127 O137 2.240 . S
Cd128 O129 2.240 . S
Cd128 O136 2.223 . S
Cd128 O138 2.297 . S
Cd128 O139 2.439 . S
O129 Cd128 2.240 . S
O129 C134 1.279 . S
O130 Cd127 2.297 . S
O130 C132 1.247 1_554 S
O131 Cd127 2.439 . S
O131 C132 1.208 1_554 S
C132 O130 1.247 1_556 S
C132 O131 1.208 1_556 S
C133 O138 1.247 . S
C133 O139 1.208 . S
C134 O126 1.315 . S
C134 O129 1.279 . S
C135 O136 1.315 . S
C135 O137 1.279 . S
O136 Cd128 2.223 . S
O136 C135 1.315 . S
O137 Cd127 2.240 . S
O137 C135 1.279 . S
O138 Cd128 2.297 . S
O138 C133 1.247 . S
O139 Cd128 2.439 . S
O139 C133 1.208 . S
O140 Cd141 2.223 1_556 S
O140 C148 1.315 . S
Cd141 O140 2.223 1_554 S
Cd141 O144 2.297 . S
Cd141 O145 2.439 . S
Cd141 O151 2.240 . S
Cd142 O143 2.240 . S
Cd142 O150 2.223 . S
Cd142 O152 2.297 . S
Cd142 O153 2.439 1_556 S
O143 Cd142 2.240 . S
O143 C148 1.279 . S
O144 Cd141 2.297 . S
O144 C146 1.247 . S
O145 Cd141 2.439 . S
O145 C146 1.208 . S
C146 O144 1.247 . S
C146 O145 1.208 . S
C147 O152 1.252 . S
C147 O153 1.206 1_556 S
C148 O140 1.315 . S
C148 O143 1.279 . S
C149 O150 1.315 . S
C149 O151 1.279 1_556 S
O150 Cd142 2.223 . S
O150 C149 1.315 . S
O151 Cd141 2.240 . S
O151 C149 1.279 1_554 S
O152 Cd142 2.297 . S
O152 C147 1.252 . S
O153 Cd142 2.439 1_554 S
O153 C147 1.206 1_554 S
O154 Cd155 2.223 . S
O154 C162 1.315 . S
Cd155 O154 2.223 . S
Cd155 O158 2.297 . S
Cd155 O159 2.439 . S
Cd155 O165 2.240 . S
Cd156 O157 2.240 . S
Cd156 O164 2.223 . S
Cd156 O166 2.297 . S
Cd156 O167 2.439 . S
O157 Cd156 2.240 . S
O157 C162 1.279 . S
O158 Cd155 2.297 . S
O158 C160 1.247 . S
O159 Cd155 2.439 . S
O159 C160 1.208 . S
C160 O158 1.247 . S
C160 O159 1.208 . S
C161 O166 1.247 . S
C161 O167 1.208 . S
C162 O154 1.315 . S
C162 O157 1.279 . S
C163 O164 1.315 . S
C163 O165 1.279 . S
O164 Cd156 2.223 . S
O164 C163 1.315 . S
O165 Cd155 2.240 . S
O165 C163 1.279 . S
O166 Cd156 2.297 . S
O166 C161 1.247 . S
O167 Cd156 2.439 . S
O167 C161 1.208 . S
O168 Cd169 2.223 . S
O168 C176 1.315 . S
Cd169 O168 2.223 . S
Cd169 O172 2.297 . S
Cd169 O173 2.439 . S
Cd169 O179 2.240 . S
Cd170 O171 2.240 . S
Cd170 O178 2.223 . S
Cd170 O180 2.297 . S
Cd170 O181 2.439 . S
O171 Cd170 2.240 . S
O171 C176 1.279 . S
O172 Cd169 2.297 . S
O172 C174 1.247 . S
O173 Cd169 2.439 . S
O173 C174 1.208 . S
C174 O172 1.247 . S
C174 O173 1.208 . S
C175 O180 1.247 . S
C175 O181 1.208 . S
C176 O168 1.315 . S
C176 O171 1.279 . S
C177 O178 1.315 . S
C177 O179 1.279 . S
O178 Cd170 2.223 . S
O178 C177 1.315 . S
O179 Cd169 2.240 . S
O179 C177 1.279 . S
O180 Cd170 2.297 . S
O180 C175 1.247 . S
O181 Cd170 2.439 . S
O181 C175 1.208 . S
O182 Cd183 2.223 . S
O182 C190 1.315 . S
Cd183 O182 2.223 . S
Cd183 O186 2.297 . S
Cd183 O187 2.439 . S
Cd183 O193 2.240 . S
Cd184 O185 2.240 . S
Cd184 O192 2.223 . S
Cd184 O194 2.297 . S
Cd184 O195 2.439 . S
O185 Cd184 2.240 . S
O185 C190 1.279 . S
O186 Cd183 2.297 . S
O186 C188 1.247 . S
O187 Cd183 2.439 . S
O187 C188 1.208 . S
C188 O186 1.247 . S
C188 O187 1.208 . S
C189 O194 1.247 . S
C189 O195 1.208 . S
C190 O182 1.315 . S
C190 O185 1.279 . S
C191 O192 1.315 . S
C191 O193 1.279 . S
O192 Cd184 2.223 . S
O192 C191 1.315 . S
O193 Cd183 2.240 . S
O193 C191 1.279 . S
O194 Cd184 2.297 . S
O194 C189 1.247 . S
O195 Cd184 2.439 . S
O195 C189 1.208 . S
O196 Cd197 2.223 . S
O196 C204 1.315 . S
Cd197 O196 2.223 . S
Cd197 O200 2.297 . S
Cd197 O201 2.439 . S
Cd197 O207 2.240 . S
Cd198 O199 2.240 . S
Cd198 O206 2.223 . S
Cd198 O208 2.297 . S
Cd198 O209 2.439 . S
O199 Cd198 2.240 . S
O199 C204 1.279 . S
O200 Cd197 2.297 . S
O200 C202 1.247 . S
O201 Cd197 2.439 . S
O201 C202 1.208 . S
C202 O200 1.247 . S
C202 O201 1.208 . S
C203 O208 1.247 . S
C203 O209 1.208 . S
C204 O196 1.315 . S
C204 O199 1.279 . S
C205 O206 1.315 . S
C205 O207 1.279 . S
O206 Cd198 2.223 . S
O206 C205 1.315 . S
O207 Cd197 2.240 . S
O207 C205 1.279 . S
O208 Cd198 2.297 . S
O208 C203 1.247 . S
O209 Cd198 2.439 . S
O209 C203 1.208 . S
O210 Cd211 2.223 . S
O210 C218 1.315 . S
Cd211 O210 2.223 . S
Cd211 O214 2.297 . S
Cd211 O215 2.439 . S
Cd211 O221 2.240 . S
Cd212 O213 2.240 . S
Cd212 O220 2.223 . S
Cd212 O222 2.297 . S
Cd212 O223 2.439 . S
O213 Cd212 2.240 . S
O213 C218 1.279 . S
O214 Cd211 2.297 . S
O214 C216 1.247 . S
O215 Cd211 2.439 . S
O215 C216 1.208 . S
C216 O214 1.247 . S
C216 O215 1.208 . S
C217 O222 1.247 . S
C217 O223 1.208 . S
C218 O210 1.315 . S
C218 O213 1.279 . S
C219 O220 1.315 . S
C219 O221 1.279 . S
O220 Cd212 2.223 . S
O220 C219 1.315 . S
O221 Cd211 2.240 . S
O221 C219 1.279 . S
O222 Cd212 2.297 . S
O222 C217 1.247 . S
O223 Cd212 2.439 . S
O223 C217 1.208 . S
H224 C232 0.929 . S
H225 C234 0.930 . S
H226 C236 0.930 . S
H227 C239 0.929 . S
H228 C242 0.930 . S
H229 C244 0.960 . S
H230 C244 0.960 . S
H231 C244 0.960 . S
C232 H224 0.929 . S
C232 C233 1.377 . S
C232 C234 1.384 . S
C233 C232 1.377 . S
C233 C239 1.390 . S
C234 H225 0.930 . S
C234 C232 1.384 . S
C234 C235 1.372 . S
C235 C234 1.372 . S
C235 C236 1.400 . S
C235 C240 1.490 . S
C236 H226 0.930 . S
C236 C235 1.400 . S
C236 C239 1.386 . S
H237 C253 0.930 . S
H238 C254 0.931 . S
C239 H227 0.929 . S
C239 C233 1.390 . S
C239 C236 1.386 . S
C240 C235 1.490 . S
C240 C242 1.395 . S
C240 C243 1.403 . S
H241 C247 0.930 . S
C242 H228 0.930 . S
C242 C240 1.395 . S
C242 C245 1.403 . S
C243 C240 1.403 . S
C243 C244 1.524 . S
C243 C247 1.400 . S
C244 H229 0.960 . S
C244 H230 0.960 . S
C244 H231 0.960 . S
C244 C243 1.524 . S
C245 C242 1.403 . S
C245 C246 1.392 . S
C245 C249 1.495 . S
C246 C245 1.392 . S
C246 C247 1.385 . S
C246 C248 1.478 . S
C247 H241 0.930 . S
C247 C243 1.400 . S
C247 C246 1.385 . S
C248 C246 1.478 . S
C248 C250 1.381 . S
C248 C254 1.383 . S
C249 C245 1.495 . S
C249 H255 0.959 . S
C249 H256 0.961 . S
C249 H257 0.960 . S
C250 C248 1.381 . S
C250 C251 1.394 . S
C250 H258 0.930 . S
C251 C250 1.394 . S
C251 C252 1.383 . S
C251 H259 0.929 . S
C252 C251 1.383 . S
C252 C253 1.377 . S
C253 H237 0.930 . S
C253 C252 1.377 . S
C253 C254 1.379 . S
C254 H238 0.931 . S
C254 C248 1.383 . S
C254 C253 1.379 . S
H255 C249 0.959 . S
H256 C249 0.961 . S
H257 C249 0.960 . S
H258 C250 0.930 . S
H259 C251 0.929 . S
H260 C268 0.929 . S
H261 C270 0.930 . S
H262 C272 0.930 . S
H263 C275 0.929 . S
H264 C278 0.930 . S
H265 C280 0.960 . S
H266 C280 0.960 . S
H267 C280 0.960 . S
C268 H260 0.929 . S
C268 C269 1.377 . S
C268 C270 1.384 . S
C269 C268 1.377 . S
C269 C275 1.390 . S
C270 H261 0.930 . S
C270 C268 1.384 . S
C270 C271 1.372 . S
C271 C270 1.372 . S
C271 C272 1.400 . S
C271 C276 1.490 . S
C272 H262 0.930 . S
C272 C271 1.400 . S
C272 C275 1.386 . S
H273 C289 0.930 . S
H274 C290 0.931 . S
C275 H263 0.929 . S
C275 C269 1.390 . S
C275 C272 1.386 . S
C276 C271 1.490 . S
C276 C278 1.395 . S
C276 C279 1.403 . S
H277 C283 0.930 . S
C278 H264 0.930 . S
C278 C276 1.395 . S
C278 C281 1.403 . S
C279 C276 1.403 . S
C279 C280 1.524 . S
C279 C283 1.400 . S
C280 H265 0.960 . S
C280 H266 0.960 . S
C280 H267 0.960 . S
C280 C279 1.524 . S
C281 C278 1.403 . S
C281 C282 1.392 . S
C281 C285 1.495 . S
C282 C281 1.392 . S
C282 C283 1.385 . S
C282 C284 1.478 . S
C283 H277 0.930 . S
C283 C279 1.400 . S
C283 C282 1.385 . S
C284 C282 1.478 . S
C284 C286 1.381 . S
C284 C290 1.383 . S
C285 C281 1.495 . S
C285 H291 0.959 . S
C285 H292 0.961 . S
C285 H293 0.960 . S
C286 C284 1.381 . S
C286 C287 1.394 . S
C286 H294 0.930 . S
C287 C286 1.394 . S
C287 C288 1.383 . S
C287 H295 0.929 . S
C288 C287 1.383 . S
C288 C289 1.377 . S
C289 H273 0.930 . S
C289 C288 1.377 . S
C289 C290 1.379 . S
C290 H274 0.931 . S
C290 C284 1.383 . S
C290 C289 1.379 . S
H291 C285 0.959 . S
H292 C285 0.961 . S
H293 C285 0.960 . S
H294 C286 0.930 . S
H295 C287 0.929 . S
H296 C304 0.929 . S
H297 C306 0.930 . S
H298 C308 0.930 . S
H299 C311 0.929 . S
H300 C314 0.930 . S
H301 C316 0.960 . S
H302 C316 0.960 . S
H303 C316 0.960 . S
C304 H296 0.929 . S
C304 C305 1.377 . S
C304 C306 1.384 . S
C305 C304 1.377 . S
C305 C311 1.390 . S
C306 H297 0.930 . S
C306 C304 1.384 . S
C306 C307 1.372 . S
C307 C306 1.372 . S
C307 C308 1.400 . S
C307 C312 1.490 . S
C308 H298 0.930 . S
C308 C307 1.400 . S
C308 C311 1.386 . S
H309 C325 0.930 . S
H310 C326 0.931 . S
C311 H299 0.929 . S
C311 C305 1.390 . S
C311 C308 1.386 . S
C312 C307 1.490 . S
C312 C314 1.395 . S
C312 C315 1.403 . S
H313 C319 0.930 . S
C314 H300 0.930 . S
C314 C312 1.395 . S
C314 C317 1.403 . S
C315 C312 1.403 . S
C315 C316 1.524 . S
C315 C319 1.400 . S
C316 H301 0.960 . S
C316 H302 0.960 . S
C316 H303 0.960 . S
C316 C315 1.524 . S
C317 C314 1.403 . S
C317 C318 1.392 . S
C317 C321 1.495 . S
C318 C317 1.392 . S
C318 C319 1.385 . S
C318 C320 1.478 . S
C319 H313 0.930 . S
C319 C315 1.400 . S
C319 C318 1.385 . S
C320 C318 1.478 . S
C320 C322 1.381 . S
C320 C326 1.383 . S
C321 C317 1.495 . S
C321 H327 0.959 . S
C321 H328 0.961 . S
C321 H329 0.960 . S
C322 C320 1.381 . S
C322 C323 1.394 . S
C322 H330 0.930 . S
C323 C322 1.394 . S
C323 C324 1.383 . S
C323 H331 0.929 . S
C324 C323 1.383 . S
C324 C325 1.377 . S
C325 H309 0.930 . S
C325 C324 1.377 . S
C325 C326 1.379 . S
C326 H310 0.931 . S
C326 C320 1.383 . S
C326 C325 1.379 . S
H327 C321 0.959 . S
H328 C321 0.961 . S
H329 C321 0.960 . S
H330 C322 0.930 . S
H331 C323 0.929 . S
H332 C340 0.929 . S
H333 C342 0.930 . S
H334 C344 0.930 . S
H335 C347 0.929 . S
H336 C350 0.930 . S
H337 C352 1.000 . S
H338 C352 0.960 . S
H339 C352 0.960 . S
C340 H332 0.929 . S
C340 C341 1.377 . S
C340 C342 1.384 . S
C341 C340 1.377 . S
C341 C347 1.390 . S
C342 H333 0.930 . S
C342 C340 1.384 . S
C342 C343 1.372 . S
C343 C342 1.372 . S
C343 C344 1.400 . S
C343 C348 1.490 . S
C344 H334 0.930 . S
C344 C343 1.400 . S
C344 C347 1.386 . S
H345 C361 0.930 . S
H346 C362 0.931 . S
C347 H335 0.929 . S
C347 C341 1.390 . S
C347 C344 1.386 . S
C348 C343 1.490 . S
C348 C350 1.395 . S
C348 C351 1.403 . S
H349 C355 0.930 . S
C350 H336 0.930 . S
C350 C348 1.395 . S
C350 C353 1.403 . S
C351 C348 1.403 . S
C351 C352 1.524 1_556 S
C351 C355 1.400 1_655 S
C352 H337 1.000 . S
C352 H338 0.960 . S
C352 H339 0.960 . S
C352 C351 1.524 1_554 S
C353 C350 1.403 . S
C353 C354 1.392 1_655 S
C353 C357 1.495 . S
C354 C353 1.392 1_455 S
C354 C355 1.385 . S
C354 C356 1.478 . S
C355 H349 0.930 . S
C355 C351 1.400 1_455 S
C355 C354 1.385 . S
C356 C354 1.478 . S
C356 C358 1.381 . S
C356 C362 1.383 . S
C357 C353 1.495 . S
C357 H363 0.959 . S
C357 H364 0.940 1_655 S
C357 H365 0.960 . S
C358 C356 1.381 . S
C358 C359 1.394 . S
C358 H366 0.923 . S
C359 C358 1.394 . S
C359 C360 1.383 . S
C359 H367 0.929 . S
C360 C359 1.383 . S
C360 C361 1.377 . S
C361 H345 0.930 . S
C361 C360 1.377 . S
C361 C362 1.379 . S
C362 H346 0.931 . S
C362 C356 1.383 . S
C362 C361 1.379 . S
H363 C357 0.959 . S
H364 C357 0.940 1_455 S
H365 C357 0.960 . S
H366 C358 0.923 . S
H367 C359 0.929 . S
H368 C376 0.929 . S
H369 C378 0.930 . S
H370 C380 0.930 . S
H371 C383 0.929 . S
H372 C386 0.930 . S
H373 C388 0.960 . S
H374 C388 0.960 . S
H375 C388 0.960 . S
C376 H368 0.929 . S
C376 C377 1.377 . S
C376 C378 1.384 . S
C377 C376 1.377 . S
C377 C383 1.390 . S
C378 H369 0.930 . S
C378 C376 1.384 . S
C378 C379 1.372 . S
C379 C378 1.372 . S
C379 C380 1.400 . S
C379 C384 1.490 . S
C380 H370 0.930 . S
C380 C379 1.400 . S
C380 C383 1.386 . S
H381 C397 0.930 . S
H382 C398 0.931 . S
C383 H371 0.929 . S
C383 C377 1.390 . S
C383 C380 1.386 . S
C384 C379 1.490 . S
C384 C386 1.395 . S
C384 C387 1.403 . S
H385 C391 0.930 . S
C386 H372 0.930 . S
C386 C384 1.395 . S
C386 C389 1.403 . S
C387 C384 1.403 . S
C387 C388 1.524 . S
C387 C391 1.400 . S
C388 H373 0.960 . S
C388 H374 0.960 . S
C388 H375 0.960 . S
C388 C387 1.524 . S
C389 C386 1.403 . S
C389 C390 1.392 . S
C389 C393 1.495 . S
C390 C389 1.392 . S
C390 C391 1.385 . S
C390 C392 1.478 . S
C391 H385 0.930 . S
C391 C387 1.400 . S
C391 C390 1.385 . S
C392 C390 1.478 . S
C392 C394 1.381 . S
C392 C398 1.383 . S
C393 C389 1.495 . S
C393 H399 0.959 . S
C393 H400 0.961 . S
C393 H401 0.960 . S
C394 C392 1.381 . S
C394 C395 1.396 . S
C394 H402 0.930 1_556 S
C395 C394 1.396 . S
C395 C396 1.391 . S
C395 H403 0.920 1_556 S
C396 C395 1.391 . S
C396 C397 1.377 . S
C397 H381 0.930 . S
C397 C396 1.377 . S
C397 C398 1.379 . S
C398 H382 0.931 . S
C398 C392 1.383 . S
C398 C397 1.379 . S
H399 C393 0.959 . S
H400 C393 0.961 . S
H401 C393 0.960 . S
H402 C394 0.930 1_554 S
H403 C395 0.920 1_554 S
H404 C412 0.929 . S
H405 C414 0.930 . S
H406 C416 0.982 . S
H407 C419 0.929 . S
H408 C422 0.930 . S
H409 C424 0.960 . S
H410 C424 0.999 . S
H411 C424 0.960 . S
C412 H404 0.929 . S
C412 C413 1.377 . S
C412 C414 1.384 . S
C413 C412 1.377 . S
C413 C419 1.390 . S
C414 H405 0.930 . S
C414 C412 1.384 . S
C414 C415 1.372 . S
C415 C414 1.372 . S
C415 C416 1.400 . S
C415 C420 1.490 . S
C416 H406 0.982 . S
C416 C415 1.400 . S
C416 C419 1.386 . S
H417 C433 0.930 . S
H418 C434 0.931 . S
C419 H407 0.929 . S
C419 C413 1.390 . S
C419 C416 1.386 . S
C420 C415 1.490 . S
C420 C422 1.395 . S
C420 C423 1.403 1_455 S
H421 C427 0.930 . S
C422 H408 0.930 . S
C422 C420 1.395 . S
C422 C425 1.403 1_455 S
C423 C420 1.403 1_655 S
C423 C424 1.524 . S
C423 C427 1.400 . S
C424 H409 0.960 . S
C424 H410 0.999 . S
C424 H411 0.960 . S
C424 C423 1.524 . S
C425 C422 1.403 1_655 S
C425 C426 1.392 . S
C425 C429 1.495 . S
C426 C425 1.392 . S
C426 C427 1.385 . S
C426 C428 1.478 . S
C427 H421 0.930 . S
C427 C423 1.400 . S
C427 C426 1.385 . S
C428 C426 1.478 . S
C428 C430 1.381 . S
C428 C434 1.383 . S
C429 C425 1.495 . S
C429 H435 0.959 1_655 S
C429 H436 0.961 . S
C429 H437 0.960 . S
C430 C428 1.381 . S
C430 C431 1.394 . S
C430 H438 0.930 . S
C431 C430 1.394 . S
C431 C432 1.383 . S
C431 H439 0.929 . S
C432 C431 1.383 . S
C432 C433 1.377 . S
C433 H417 0.930 . S
C433 C432 1.377 . S
C433 C434 1.379 . S
C434 H418 0.931 . S
C434 C428 1.383 . S
C434 C433 1.379 . S
H435 C429 0.959 1_455 S
H436 C429 0.961 . S
H437 C429 0.960 . S
H438 C430 0.930 . S
H439 C431 0.929 . S
H440 C448 0.929 . S
H441 C450 0.930 . S
H442 C452 0.930 . S
H443 C455 0.929 . S
H444 C458 0.930 . S
H445 C460 0.960 . S
H446 C460 0.960 . S
H447 C460 0.960 . S
C448 H440 0.929 . S
C448 C449 1.377 . S
C448 C450 1.384 . S
C449 C448 1.377 . S
C449 C455 1.390 . S
C450 H441 0.930 . S
C450 C448 1.384 . S
C450 C451 1.372 . S
C451 C450 1.372 . S
C451 C452 1.400 . S
C451 C456 1.490 . S
C452 H442 0.930 . S
C452 C451 1.400 . S
C452 C455 1.386 . S
H453 C469 0.930 . S
H454 C470 0.931 . S
C455 H443 0.929 . S
C455 C449 1.390 . S
C455 C452 1.386 . S
C456 C451 1.490 . S
C456 C458 1.395 . S
C456 C459 1.403 . S
H457 C463 0.930 . S
C458 H444 0.930 . S
C458 C456 1.395 . S
C458 C461 1.403 . S
C459 C456 1.403 . S
C459 C460 1.524 . S
C459 C463 1.400 . S
C460 H445 0.960 . S
C460 H446 0.960 . S
C460 H447 0.960 . S
C460 C459 1.524 . S
C461 C458 1.403 . S
C461 C462 1.392 . S
C461 C465 1.495 . S
C462 C461 1.392 . S
C462 C463 1.385 . S
C462 C464 1.478 . S
C463 H457 0.930 . S
C463 C459 1.400 . S
C463 C462 1.385 . S
C464 C462 1.478 . S
C464 C466 1.381 . S
C464 C470 1.383 . S
C465 C461 1.495 . S
C465 H471 0.959 . S
C465 H472 0.961 . S
C465 H473 0.960 . S
C466 C464 1.381 . S
C466 C467 1.394 . S
C466 H474 0.930 . S
C467 C466 1.394 . S
C467 C468 1.383 . S
C467 H475 0.929 . S
C468 C467 1.383 . S
C468 C469 1.377 . S
C469 H453 0.930 . S
C469 C468 1.377 . S
C469 C470 1.379 . S
C470 H454 0.931 . S
C470 C464 1.383 . S
C470 C469 1.379 . S
H471 C465 0.959 . S
H472 C465 0.961 . S
H473 C465 0.960 . S
H474 C466 0.930 . S
H475 C467 0.929 . S
H476 C484 0.929 . S
H477 C486 0.930 . S
H478 C488 0.930 . S
H479 C491 0.929 . S
H480 C494 0.930 . S
H481 C496 0.960 . S
H482 C496 0.960 . S
H483 C496 0.960 . S
C484 H476 0.929 . S
C484 C485 1.377 . S
C484 C486 1.384 . S
C485 C484 1.377 . S
C485 C491 1.390 . S
C486 H477 0.930 . S
C486 C484 1.384 . S
C486 C487 1.372 . S
C487 C486 1.372 . S
C487 C488 1.400 . S
C487 C492 1.490 . S
C488 H478 0.930 . S
C488 C487 1.400 . S
C488 C491 1.386 . S
H489 C505 0.930 . S
H490 C506 0.931 . S
C491 H479 0.929 . S
C491 C485 1.390 . S
C491 C488 1.386 . S
C492 C487 1.490 . S
C492 C494 1.395 . S
C492 C495 1.403 . S
H493 C499 0.930 . S
C494 H480 0.930 . S
C494 C492 1.395 . S
C494 C497 1.403 . S
C495 C492 1.403 . S
C495 C496 1.524 . S
C495 C499 1.400 . S
C496 H481 0.960 . S
C496 H482 0.960 . S
C496 H483 0.960 . S
C496 C495 1.524 . S
C497 C494 1.403 . S
C497 C498 1.392 . S
C497 C501 1.495 . S
C498 C497 1.392 . S
C498 C499 1.385 . S
C498 C500 1.478 . S
C499 H493 0.930 . S
C499 C495 1.400 . S
C499 C498 1.385 . S
C500 C498 1.478 . S
C500 C502 1.381 . S
C500 C506 1.383 . S
C501 C497 1.495 . S
C501 H507 0.959 . S
C501 H508 0.961 . S
C501 H509 0.960 . S
C502 C500 1.381 . S
C502 C503 1.394 . S
C502 H510 0.930 . S
C503 C502 1.394 . S
C503 C504 1.383 . S
C503 H511 0.929 . S
C504 C503 1.383 . S
C504 C505 1.377 . S
C505 H489 0.930 . S
C505 C504 1.377 . S
C505 C506 1.379 . S
C506 H490 0.931 . S
C506 C500 1.383 . S
C506 C505 1.379 . S
H507 C501 0.959 . S
H508 C501 0.961 . S
H509 C501 0.960 . S
H510 C502 0.930 . S
H511 C503 0.929 . S
H512 C520 0.929 . S
H513 C522 0.930 . S
H514 C524 0.930 . S
H515 C527 0.929 . S
H516 C530 0.930 . S
H517 C532 0.960 1_554 S
H518 C532 0.960 . S
H519 C532 0.960 . S
C520 H512 0.929 . S
C520 C521 1.377 . S
C520 C522 1.384 . S
C521 C520 1.377 . S
C521 C527 1.390 . S
C522 H513 0.930 . S
C522 C520 1.384 . S
C522 C523 1.372 . S
C523 C522 1.372 . S
C523 C524 1.400 . S
C523 C528 1.490 . S
C524 H514 0.930 . S
C524 C523 1.400 . S
C524 C527 1.386 . S
H525 C541 0.930 . S
H526 C542 0.966 . S
C527 H515 0.929 . S
C527 C521 1.390 . S
C527 C524 1.386 . S
C528 C523 1.490 . S
C528 C530 1.395 . S
C528 C531 1.403 . S
H529 C535 0.930 . S
C530 H516 0.930 . S
C530 C528 1.395 . S
C530 C533 1.403 1_455 S
C531 C528 1.403 . S
C531 C532 1.524 . S
C531 C535 1.400 . S
C532 H517 0.960 1_556 S
C532 H518 0.960 . S
C532 H519 0.960 . S
C532 C531 1.524 . S
C533 C530 1.403 1_655 S
C533 C534 1.392 . S
C533 C537 1.495 . S
C534 C533 1.392 . S
C534 C535 1.385 1_655 S
C534 C536 1.478 . S
C535 H529 0.930 . S
C535 C531 1.400 . S
C535 C534 1.385 1_455 S
C536 C534 1.478 . S
C536 C538 1.381 . S
C536 C542 1.383 . S
C537 C533 1.495 . S
C537 H543 0.959 . S
C537 H544 0.961 . S
C537 H545 0.960 . S
C538 C536 1.381 . S
C538 C539 1.394 . S
C538 H546 0.930 . S
C539 C538 1.394 . S
C539 C540 1.383 . S
C539 H547 0.929 . S
C540 C539 1.383 . S
C540 C541 1.377 . S
C541 H525 0.930 . S
C541 C540 1.377 . S
C541 C542 1.379 . S
C542 H526 0.966 . S
C542 C536 1.383 . S
C542 C541 1.379 . S
H543 C537 0.959 . S
H544 C537 0.961 . S
H545 C537 0.960 . S
H546 C538 0.930 . S
H547 C539 0.929 . S
H548 C556 0.929 . S
H549 C558 0.930 . S
H550 C560 0.930 . S
H551 C563 0.929 . S
H552 C566 0.930 . S
H553 C568 0.960 . S
H554 C568 0.960 . S
H555 C568 0.960 . S
C556 H548 0.929 . S
C556 C557 1.377 . S
C556 C558 1.384 . S
C557 C556 1.377 . S
C557 C563 1.390 . S
C558 H549 0.930 . S
C558 C556 1.384 . S
C558 C559 1.372 . S
C559 C558 1.372 . S
C559 C560 1.400 . S
C559 C564 1.490 . S
C560 H550 0.930 . S
C560 C559 1.400 . S
C560 C563 1.386 . S
H561 C577 0.930 . S
H562 C578 0.931 . S
C563 H551 0.929 . S
C563 C557 1.390 . S
C563 C560 1.386 . S
C564 C559 1.490 . S
C564 C566 1.395 . S
C564 C567 1.403 . S
H565 C571 0.930 . S
C566 H552 0.930 . S
C566 C564 1.395 . S
C566 C569 1.403 . S
C567 C564 1.403 . S
C567 C568 1.524 . S
C567 C571 1.400 . S
C568 H553 0.960 . S
C568 H554 0.960 . S
C568 H555 0.960 . S
C568 C567 1.524 . S
C569 C566 1.403 . S
C569 C570 1.392 . S
C569 C573 1.495 . S
C570 C569 1.392 . S
C570 C571 1.385 . S
C570 C572 1.478 . S
C571 H565 0.930 . S
C571 C567 1.400 . S
C571 C570 1.385 . S
C572 C570 1.478 . S
C572 C574 1.381 . S
C572 C578 1.383 . S
C573 C569 1.495 . S
C573 H579 0.959 . S
C573 H580 0.961 . S
C573 H581 0.960 . S
C574 C572 1.381 . S
C574 C575 1.394 . S
C574 H582 0.930 . S
C575 C574 1.394 . S
C575 C576 1.383 . S
C575 H583 0.929 . S
C576 C575 1.383 . S
C576 C577 1.377 . S
C577 H561 0.930 . S
C577 C576 1.377 . S
C577 C578 1.379 . S
C578 H562 0.931 . S
C578 C572 1.383 . S
C578 C577 1.379 . S
H579 C573 0.959 . S
H580 C573 0.961 . S
H581 C573 0.960 . S
H582 C574 0.930 . S
H583 C575 0.929 . S
H584 C592 0.929 . S
H585 C594 0.930 . S
H586 C596 0.930 . S
H587 C599 0.929 . S
H588 C602 0.930 . S
H589 C604 0.960 . S
H590 C604 0.960 . S
H591 C604 0.960 . S
C592 H584 0.929 . S
C592 C593 1.377 . S
C592 C594 1.384 . S
C593 C592 1.377 . S
C593 C599 1.390 . S
C594 H585 0.930 . S
C594 C592 1.384 . S
C594 C595 1.372 . S
C595 C594 1.372 . S
C595 C596 1.400 . S
C595 C600 1.490 . S
C596 H586 0.930 . S
C596 C595 1.400 . S
C596 C599 1.386 . S
H597 C613 0.930 . S
H598 C614 0.931 . S
C599 H587 0.929 . S
C599 C593 1.390 . S
C599 C596 1.386 . S
C600 C595 1.490 . S
C600 C602 1.395 . S
C600 C603 1.403 . S
H601 C607 0.930 . S
C602 H588 0.930 . S
C602 C600 1.395 . S
C602 C605 1.403 . S
C603 C600 1.403 . S
C603 C604 1.524 . S
C603 C607 1.400 . S
C604 H589 0.960 . S
C604 H590 0.960 . S
C604 H591 0.960 . S
C604 C603 1.524 . S
C605 C602 1.403 . S
C605 C606 1.392 . S
C605 C609 1.495 . S
C606 C605 1.392 . S
C606 C607 1.385 . S
C606 C608 1.478 . S
C607 H601 0.930 . S
C607 C603 1.400 . S
C607 C606 1.385 . S
C608 C606 1.478 . S
C608 C610 1.381 . S
C608 C614 1.383 . S
C609 C605 1.495 . S
C609 H615 0.959 . S
C609 H616 0.961 . S
C609 H617 0.960 . S
C610 C608 1.381 . S
C610 C611 1.394 . S
C610 H618 0.930 . S
C611 C610 1.394 . S
C611 C612 1.383 . S
C611 H619 0.929 . S
C612 C611 1.383 . S
C612 C613 1.377 . S
C613 H597 0.930 . S
C613 C612 1.377 . S
C613 C614 1.379 . S
C614 H598 0.931 . S
C614 C608 1.383 . S
C614 C613 1.379 . S
H615 C609 0.959 . S
H616 C609 0.961 . S
H617 C609 0.960 . S
H618 C610 0.930 . S
H619 C611 0.929 . S
H620 C628 0.929 . S
H621 C630 0.930 . S
H622 C632 0.930 . S
H623 C635 0.929 . S
H624 C638 0.930 . S
H625 C640 0.960 . S
H626 C640 0.960 . S
H627 C640 0.960 . S
C628 H620 0.929 . S
C628 C629 1.377 . S
C628 C630 1.384 . S
C629 C628 1.377 . S
C629 C635 1.390 . S
C630 H621 0.930 . S
C630 C628 1.384 . S
C630 C631 1.372 . S
C631 C630 1.372 . S
C631 C632 1.400 . S
C631 C636 1.490 . S
C632 H622 0.930 . S
C632 C631 1.400 . S
C632 C635 1.386 . S
H633 C649 0.930 . S
H634 C650 0.931 . S
C635 H623 0.929 . S
C635 C629 1.390 . S
C635 C632 1.386 . S
C636 C631 1.490 . S
C636 C638 1.395 . S
C636 C639 1.403 . S
H637 C643 0.930 . S
C638 H624 0.930 . S
C638 C636 1.395 . S
C638 C641 1.403 . S
C639 C636 1.403 . S
C639 C640 1.524 . S
C639 C643 1.400 . S
C640 H625 0.960 . S
C640 H626 0.960 . S
C640 H627 0.960 . S
C640 C639 1.524 . S
C641 C638 1.403 . S
C641 C642 1.392 . S
C641 C645 1.495 . S
C642 C641 1.392 . S
C642 C643 1.385 . S
C642 C644 1.478 . S
C643 H637 0.930 . S
C643 C639 1.400 . S
C643 C642 1.385 . S
C644 C642 1.478 . S
C644 C646 1.381 . S
C644 C650 1.383 . S
C645 C641 1.495 . S
C645 H651 0.959 . S
C645 H652 0.961 . S
C645 H653 0.960 . S
C646 C644 1.381 . S
C646 C647 1.394 . S
C646 H654 0.930 . S
C647 C646 1.394 . S
C647 C648 1.383 . S
C647 H655 0.929 . S
C648 C647 1.383 . S
C648 C649 1.377 . S
C649 H633 0.930 . S
C649 C648 1.377 . S
C649 C650 1.379 . S
C650 H634 0.931 . S
C650 C644 1.383 . S
C650 C649 1.379 . S
H651 C645 0.959 . S
H652 C645 0.961 . S
H653 C645 0.960 . S
H654 C646 0.930 . S
H655 C647 0.929 . S
H656 C664 0.929 . S
H657 C666 0.930 . S
H658 C668 0.930 . S
H659 C671 0.929 . S
H660 C674 0.930 . S
H661 C676 0.960 . S
H662 C676 0.960 1_455 S
H663 C676 0.970 . S
C664 H656 0.929 . S
C664 C665 1.377 . S
C664 C666 1.384 . S
C665 C664 1.377 . S
C665 C671 1.390 . S
C666 H657 0.930 . S
C666 C664 1.384 . S
C666 C667 1.372 . S
C667 C666 1.372 . S
C667 C668 1.400 . S
C667 C672 1.490 . S
C668 H658 0.930 . S
C668 C667 1.400 . S
C668 C671 1.386 . S
H669 C685 0.930 . S
H670 C686 0.931 . S
C671 H659 0.929 . S
C671 C665 1.390 . S
C671 C668 1.386 . S
C672 C667 1.490 . S
C672 C674 1.395 . S
C672 C675 1.403 . S
H673 C679 0.930 . S
C674 H660 0.930 . S
C674 C672 1.395 . S
C674 C677 1.403 . S
C675 C672 1.403 . S
C675 C676 1.524 1_455 S
C675 C679 1.400 1_455 S
C676 H661 0.960 . S
C676 H662 0.960 1_655 S
C676 H663 0.970 . S
C676 C675 1.524 1_655 S
C677 C674 1.403 . S
C677 C678 1.412 . S
C677 C681 1.495 . S
C678 C677 1.412 . S
C678 C679 1.378 1_455 S
C678 C680 1.464 1_455 S
C679 H673 0.930 . S
C679 C675 1.400 1_655 S
C679 C678 1.378 1_655 S
C680 C678 1.464 1_655 S
C680 C682 1.381 . S
C680 C686 1.383 . S
C681 C677 1.495 . S
C681 H687 0.959 . S
C681 H688 0.961 . S
C681 H689 0.960 . S
C682 C680 1.381 . S
C682 C683 1.394 . S
C682 H690 0.930 . S
C683 C682 1.394 . S
C683 C684 1.383 . S
C683 H691 0.929 . S
C684 C683 1.383 . S
C684 C685 1.377 . S
C685 H669 0.930 . S
C685 C684 1.377 . S
C685 C686 1.379 . S
C686 H670 0.931 . S
C686 C680 1.383 . S
C686 C685 1.379 . S
H687 C681 0.959 . S
H688 C681 0.961 . S
H689 C681 0.960 . S
H690 C682 0.930 . S
H691 C683 0.929 . S
H692 C700 0.929 . S
H693 C702 0.930 . S
H694 C704 0.930 . S
H695 C707 0.929 . S
H696 C710 0.930 . S
H697 C712 0.960 . S
H698 C712 0.960 . S
H699 C712 0.960 . S
C700 H692 0.929 . S
C700 C701 1.377 . S
C700 C702 1.384 . S
C701 C700 1.377 . S
C701 C707 1.390 . S
C702 H693 0.930 . S
C702 C700 1.384 . S
C702 C703 1.372 . S
C703 C702 1.372 . S
C703 C704 1.400 . S
C703 C708 1.490 . S
C704 H694 0.930 . S
C704 C703 1.400 . S
C704 C707 1.386 . S
H705 C721 0.930 . S
H706 C722 0.931 . S
C707 H695 0.929 . S
C707 C701 1.390 . S
C707 C704 1.386 . S
C708 C703 1.490 . S
C708 C710 1.395 . S
C708 C711 1.403 . S
H709 C715 0.930 . S
C710 H696 0.930 . S
C710 C708 1.395 . S
C710 C713 1.403 . S
C711 C708 1.403 . S
C711 C712 1.524 . S
C711 C715 1.400 . S
C712 H697 0.960 . S
C712 H698 0.960 . S
C712 H699 0.960 . S
C712 C711 1.524 . S
C713 C710 1.403 . S
C713 C714 1.392 . S
C713 C717 1.495 . S
C714 C713 1.392 . S
C714 C715 1.385 . S
C714 C716 1.478 . S
C715 H709 0.930 . S
C715 C711 1.400 . S
C715 C714 1.385 . S
C716 C714 1.478 . S
C716 C718 1.381 . S
C716 C722 1.383 1_556 S
C717 C713 1.495 . S
C717 H723 0.959 . S
C717 H724 0.961 . S
C717 H725 0.960 . S
C718 C716 1.381 . S
C718 C719 1.394 . S
C718 H726 0.930 . S
C719 C718 1.394 . S
C719 C720 1.383 . S
C719 H727 0.929 . S
C720 C719 1.383 . S
C720 C721 1.377 1_556 S
C721 H705 0.930 . S
C721 C720 1.377 1_554 S
C721 C722 1.379 . S
C722 H706 0.931 . S
C722 C716 1.383 1_554 S
C722 C721 1.379 . S
H723 C717 0.959 . S
H724 C717 0.961 . S
H725 C717 0.960 . S
H726 C718 0.930 . S
H727 C719 0.929 . S
H728 C736 0.929 . S
H729 C738 0.930 . S
H730 C740 0.930 . S
H731 C743 0.929 . S
H732 C746 0.930 . S
H733 C748 0.960 . S
H734 C748 0.960 . S
H735 C748 0.960 . S
C736 H728 0.929 . S
C736 C737 1.377 . S
C736 C738 1.384 . S
C737 C736 1.377 . S
C737 C743 1.390 . S
C738 H729 0.930 . S
C738 C736 1.384 . S
C738 C739 1.372 . S
C739 C738 1.372 . S
C739 C740 1.400 . S
C739 C744 1.490 . S
C740 H730 0.930 . S
C740 C739 1.400 . S
C740 C743 1.386 . S
H741 C757 0.930 . S
H742 C758 0.931 . S
C743 H731 0.929 . S
C743 C737 1.390 . S
C743 C740 1.386 . S
C744 C739 1.490 . S
C744 C746 1.395 . S
C744 C747 1.403 . S
H745 C751 0.930 . S
C746 H732 0.930 . S
C746 C744 1.395 . S
C746 C749 1.403 . S
C747 C744 1.403 . S
C747 C748 1.524 . S
C747 C751 1.400 . S
C748 H733 0.960 . S
C748 H734 0.960 . S
C748 H735 0.960 . S
C748 C747 1.524 . S
C749 C746 1.403 . S
C749 C750 1.392 . S
C749 C753 1.495 . S
C750 C749 1.392 . S
C750 C751 1.385 . S
C750 C752 1.478 . S
C751 H745 0.930 . S
C751 C747 1.400 . S
C751 C750 1.385 . S
C752 C750 1.478 . S
C752 C754 1.381 . S
C752 C758 1.383 . S
C753 C749 1.495 . S
C753 H759 0.959 . S
C753 H760 0.961 . S
C753 H761 0.960 . S
C754 C752 1.381 . S
C754 C755 1.394 . S
C754 H762 0.930 . S
C755 C754 1.394 . S
C755 C756 1.383 . S
C755 H763 0.929 . S
C756 C755 1.383 . S
C756 C757 1.377 . S
C757 H741 0.930 . S
C757 C756 1.377 . S
C757 C758 1.379 . S
C758 H742 0.931 . S
C758 C752 1.383 . S
C758 C757 1.379 . S
H759 C753 0.959 . S
H760 C753 0.961 . S
H761 C753 0.960 . S
H762 C754 0.930 . S
H763 C755 0.929 . S
H764 C772 0.929 . S
H765 C774 0.930 . S
H766 C776 0.930 . S
H767 C779 0.929 . S
H768 C782 0.930 . S
H769 C784 0.960 . S
H770 C784 0.960 . S
H771 C784 0.960 . S
C772 H764 0.929 . S
C772 C773 1.377 . S
C772 C774 1.384 . S
C773 C772 1.377 . S
C773 C779 1.390 . S
C774 H765 0.930 . S
C774 C772 1.384 . S
C774 C775 1.372 . S
C775 C774 1.372 . S
C775 C776 1.400 . S
C775 C780 1.490 . S
C776 H766 0.930 . S
C776 C775 1.400 . S
C776 C779 1.386 . S
H777 C793 0.930 . S
H778 C794 0.931 . S
C779 H767 0.929 . S
C779 C773 1.390 . S
C779 C776 1.386 . S
C780 C775 1.490 . S
C780 C782 1.395 . S
C780 C783 1.403 . S
H781 C787 0.930 . S
C782 H768 0.930 . S
C782 C780 1.395 . S
C782 C785 1.403 . S
C783 C780 1.403 . S
C783 C784 1.524 . S
C783 C787 1.400 . S
C784 H769 0.960 . S
C784 H770 0.960 . S
C784 H771 0.960 . S
C784 C783 1.524 . S
C785 C782 1.403 . S
C785 C786 1.392 . S
C785 C789 1.495 . S
C786 C785 1.392 . S
C786 C787 1.385 . S
C786 C788 1.478 . S
C787 H781 0.930 . S
C787 C783 1.400 . S
C787 C786 1.385 . S
C788 C786 1.478 . S
C788 C790 1.381 . S
C788 C794 1.383 . S
C789 C785 1.495 . S
C789 H795 0.959 . S
C789 H796 0.961 . S
C789 H797 0.960 . S
C790 C788 1.381 . S
C790 C791 1.394 . S
C790 H798 0.930 . S
C791 C790 1.394 . S
C791 C792 1.383 . S
C791 H799 0.929 . S
C792 C791 1.383 . S
C792 C793 1.377 . S
C793 H777 0.930 . S
C793 C792 1.377 . S
C793 C794 1.379 . S
C794 H778 0.931 . S
C794 C788 1.383 . S
C794 C793 1.379 . S
H795 C789 0.959 . S
H796 C789 0.961 . S
H797 C789 0.960 . S
H798 C790 0.930 . S
H799 C791 0.929 . S
H800 C808 0.929 . S
H801 C810 0.930 . S
H802 C812 0.930 . S
H803 C815 0.929 . S
H804 C818 0.930 . S
H805 C820 0.960 . S
H806 C820 0.960 . S
H807 C820 0.960 . S
C808 H800 0.929 . S
C808 C809 1.377 . S
C808 C810 1.384 . S
C809 C808 1.377 . S
C809 C815 1.390 . S
C810 H801 0.930 . S
C810 C808 1.384 . S
C810 C811 1.372 . S
C811 C810 1.372 . S
C811 C812 1.400 . S
C811 C816 1.490 . S
C812 H802 0.930 . S
C812 C811 1.400 . S
C812 C815 1.386 . S
H813 C829 0.930 . S
H814 C830 0.931 1_554 S
C815 H803 0.929 . S
C815 C809 1.390 . S
C815 C812 1.386 . S
C816 C811 1.490 . S
C816 C818 1.395 . S
C816 C819 1.403 . S
H817 C823 0.930 . S
C818 H804 0.930 . S
C818 C816 1.395 . S
C818 C821 1.403 . S
C819 C816 1.403 . S
C819 C820 1.524 . S
C819 C823 1.400 . S
C820 H805 0.960 . S
C820 H806 0.960 . S
C820 H807 0.960 . S
C820 C819 1.524 . S
C821 C818 1.403 . S
C821 C822 1.392 . S
C821 C825 1.495 . S
C822 C821 1.392 . S
C822 C823 1.385 . S
C822 C824 1.478 1_554 S
C823 H817 0.930 . S
C823 C819 1.400 . S
C823 C822 1.385 . S
C824 C822 1.478 1_556 S
C824 C826 1.381 . S
C824 C830 1.383 . S
C825 C821 1.495 . S
C825 H831 0.959 . S
C825 H832 0.961 . S
C825 H833 0.960 1_554 S
C826 C824 1.381 . S
C826 C827 1.394 . S
C826 H834 0.930 . S
C827 C826 1.394 . S
C827 C828 1.383 . S
C827 H835 0.929 . S
C828 C827 1.383 . S
C828 C829 1.377 . S
C829 H813 0.930 . S
C829 C828 1.377 . S
C829 C830 1.379 . S
C830 H814 0.931 1_556 S
C830 C824 1.383 . S
C830 C829 1.379 . S
H831 C825 0.959 . S
H832 C825 0.961 . S
H833 C825 0.960 1_556 S
H834 C826 0.930 . S
H835 C827 0.929 . S
H836 C844 0.929 . S
H837 C846 0.930 . S
H838 C848 0.930 . S
H839 C851 0.929 . S
H840 C854 0.930 . S
H841 C856 0.960 . S
H842 C856 0.960 . S
H843 C856 0.960 . S
C844 H836 0.929 . S
C844 C845 1.377 . S
C844 C846 1.384 . S
C845 C844 1.377 . S
C845 C851 1.390 . S
C846 H837 0.930 . S
C846 C844 1.384 . S
C846 C847 1.372 . S
C847 C846 1.372 . S
C847 C848 1.400 . S
C847 C852 1.490 . S
C848 H838 0.930 . S
C848 C847 1.400 . S
C848 C851 1.386 . S
H849 C865 0.930 . S
H850 C866 0.931 . S
C851 H839 0.929 . S
C851 C845 1.390 . S
C851 C848 1.386 . S
C852 C847 1.490 . S
C852 C854 1.395 . S
C852 C855 1.403 . S
H853 C859 0.930 . S
C854 H840 0.930 . S
C854 C852 1.395 . S
C854 C857 1.403 . S
C855 C852 1.403 . S
C855 C856 1.524 . S
C855 C859 1.400 . S
C856 H841 0.960 . S
C856 H842 0.960 . S
C856 H843 0.960 . S
C856 C855 1.524 . S
C857 C854 1.403 . S
C857 C858 1.392 . S
C857 C861 1.495 . S
C858 C857 1.392 . S
C858 C859 1.385 . S
C858 C860 1.478 . S
C859 H853 0.930 . S
C859 C855 1.400 . S
C859 C858 1.385 . S
C860 C858 1.478 . S
C860 C862 1.381 . S
C860 C866 1.383 . S
C861 C857 1.495 . S
C861 H867 0.959 . S
C861 H868 0.961 . S
C861 H869 0.960 . S
C862 C860 1.381 . S
C862 C863 1.394 . S
C862 H870 0.930 . S
C863 C862 1.394 . S
C863 C864 1.383 . S
C863 H871 0.929 . S
C864 C863 1.383 . S
C864 C865 1.377 . S
C865 H849 0.930 . S
C865 C864 1.377 . S
C865 C866 1.379 . S
C866 H850 0.931 . S
C866 C860 1.383 . S
C866 C865 1.379 . S
H867 C861 0.959 . S
H868 C861 0.961 . S
H869 C861 0.960 . S
H870 C862 0.930 . S
H871 C863 0.929 . S
H872 C880 0.929 . S
H873 C882 0.930 . S
H874 C884 0.930 . S
H875 C887 0.929 . S
H876 C890 0.930 . S
H877 C892 0.960 . S
H878 C892 0.960 . S
H879 C892 0.960 . S
C880 H872 0.929 . S
C880 C881 1.377 . S
C880 C882 1.384 . S
C881 C880 1.377 . S
C881 C887 1.390 . S
C882 H873 0.930 . S
C882 C880 1.384 . S
C882 C883 1.372 . S
C883 C882 1.372 . S
C883 C884 1.400 . S
C883 C888 1.490 . S
C884 H874 0.930 . S
C884 C883 1.400 . S
C884 C887 1.386 . S
H885 C901 0.930 . S
H886 C902 0.931 . S
C887 H875 0.929 . S
C887 C881 1.390 . S
C887 C884 1.386 . S
C888 C883 1.490 . S
C888 C890 1.395 . S
C888 C891 1.403 . S
H889 C895 0.930 . S
C890 H876 0.930 . S
C890 C888 1.395 . S
C890 C893 1.403 . S
C891 C888 1.403 . S
C891 C892 1.524 . S
C891 C895 1.400 . S
C892 H877 0.960 . S
C892 H878 0.960 . S
C892 H879 0.960 . S
C892 C891 1.524 . S
C893 C890 1.403 . S
C893 C894 1.392 . S
C893 C897 1.495 . S
C894 C893 1.392 . S
C894 C895 1.385 . S
C894 C896 1.478 . S
C895 H889 0.930 . S
C895 C891 1.400 . S
C895 C894 1.385 . S
C896 C894 1.478 . S
C896 C898 1.381 . S
C896 C902 1.383 . S
C897 C893 1.495 . S
C897 H903 0.959 . S
C897 H904 0.961 . S
C897 H905 0.960 . S
C898 C896 1.381 . S
C898 C899 1.394 . S
C898 H906 0.930 . S
C899 C898 1.394 . S
C899 C900 1.383 . S
C899 H907 0.929 . S
C900 C899 1.383 . S
C900 C901 1.377 . S
C901 H885 0.930 . S
C901 C900 1.377 . S
C901 C902 1.379 . S
C902 H886 0.931 . S
C902 C896 1.383 . S
C902 C901 1.379 . S
H903 C897 0.959 . S
H904 C897 0.961 . S
H905 C897 0.960 . S
H906 C898 0.930 . S
H907 C899 0.929 . S
H908 C916 0.929 . S
H909 C918 0.930 . S
H910 C920 0.930 . S
H911 C923 0.929 . S
H912 C926 0.930 . S
H913 C928 0.960 . S
H914 C928 0.960 . S
H915 C928 0.960 . S
C916 H908 0.929 . S
C916 C917 1.377 . S
C916 C918 1.384 . S
C917 C916 1.377 . S
C917 C923 1.390 . S
C918 H909 0.930 . S
C918 C916 1.384 . S
C918 C919 1.372 . S
C919 C918 1.372 . S
C919 C920 1.400 . S
C919 C924 1.490 . S
C920 H910 0.930 . S
C920 C919 1.400 . S
C920 C923 1.386 . S
H921 C937 0.930 . S
H922 C938 0.931 . S
C923 H911 0.929 . S
C923 C917 1.390 . S
C923 C920 1.386 . S
C924 C919 1.490 . S
C924 C926 1.395 . S
C924 C927 1.403 . S
H925 C931 0.930 . S
C926 H912 0.930 . S
C926 C924 1.395 . S
C926 C929 1.403 . S
C927 C924 1.403 . S
C927 C928 1.524 . S
C927 C931 1.400 . S
C928 H913 0.960 . S
C928 H914 0.960 . S
C928 H915 0.960 . S
C928 C927 1.524 . S
C929 C926 1.403 . S
C929 C930 1.392 . S
C929 C933 1.495 . S
C930 C929 1.392 . S
C930 C931 1.385 . S
C930 C932 1.478 . S
C931 H925 0.930 . S
C931 C927 1.400 . S
C931 C930 1.385 . S
C932 C930 1.478 . S
C932 C934 1.381 . S
C932 C938 1.383 . S
C933 C929 1.495 . S
C933 H939 0.959 . S
C933 H940 0.961 . S
C933 H941 0.960 . S
C934 C932 1.381 . S
C934 C935 1.394 . S
C934 H942 0.930 . S
C935 C934 1.394 . S
C935 C936 1.383 . S
C935 H943 0.929 . S
C936 C935 1.383 . S
C936 C937 1.377 . S
C937 H921 0.930 . S
C937 C936 1.377 . S
C937 C938 1.379 . S
C938 H922 0.931 . S
C938 C932 1.383 . S
C938 C937 1.379 . S
H939 C933 0.959 . S
H940 C933 0.961 . S
H941 C933 0.960 . S
H942 C934 0.930 . S
H943 C935 0.929 . S
H944 C952 0.929 . S
H945 C954 0.930 . S
H946 C956 0.930 . S
H947 C959 0.929 . S
H948 C962 0.930 . S
H949 C964 0.960 . S
H950 C964 0.960 . S
H951 C964 0.960 . S
C952 H944 0.929 . S
C952 C953 1.377 . S
C952 C954 1.384 . S
C953 C952 1.377 . S
C953 C959 1.390 . S
C954 H945 0.930 . S
C954 C952 1.384 . S
C954 C955 1.372 . S
C955 C954 1.372 . S
C955 C956 1.400 . S
C955 C960 1.490 . S
C956 H946 0.930 . S
C956 C955 1.400 . S
C956 C959 1.386 . S
H957 C973 0.930 . S
H958 C974 0.931 . S
C959 H947 0.929 . S
C959 C953 1.390 . S
C959 C956 1.386 . S
C960 C955 1.490 . S
C960 C962 1.395 . S
C960 C963 1.403 . S
H961 C967 0.930 . S
C962 H948 0.930 . S
C962 C960 1.395 . S
C962 C965 1.403 . S
C963 C960 1.403 . S
C963 C964 1.524 . S
C963 C967 1.400 . S
C964 H949 0.960 . S
C964 H950 0.960 . S
C964 H951 0.960 . S
C964 C963 1.524 . S
C965 C962 1.403 . S
C965 C966 1.392 . S
C965 C969 1.495 . S
C966 C965 1.392 . S
C966 C967 1.385 . S
C966 C968 1.478 . S
C967 H961 0.930 . S
C967 C963 1.400 . S
C967 C966 1.385 . S
C968 C966 1.478 . S
C968 C970 1.381 . S
C968 C974 1.383 . S
C969 C965 1.495 . S
C969 H975 0.959 . S
C969 H976 0.961 . S
C969 H977 0.960 . S
C970 C968 1.381 . S
C970 C971 1.394 . S
C970 H978 0.930 . S
C971 C970 1.394 . S
C971 C972 1.383 . S
C971 H979 0.929 . S
C972 C971 1.383 . S
C972 C973 1.377 . S
C973 H957 0.930 . S
C973 C972 1.377 . S
C973 C974 1.379 . S
C974 H958 0.931 . S
C974 C968 1.383 . S
C974 C973 1.379 . S
H975 C969 0.959 . S
H976 C969 0.961 . S
H977 C969 0.960 . S
H978 C970 0.930 . S
H979 C971 0.929 . S
H980 C988 0.929 . S
H981 C990 0.930 . S
H982 C992 0.930 . S
H983 C995 0.929 . S
H984 C998 0.930 . S
H985 C1000 0.960 . S
H986 C1000 0.960 . S
H987 C1000 0.960 . S
C988 H980 0.929 . S
C988 C989 1.377 . S
C988 C990 1.384 . S
C989 C988 1.377 . S
C989 C995 1.390 . S
C990 H981 0.930 . S
C990 C988 1.384 . S
C990 C991 1.372 . S
C991 C990 1.372 . S
C991 C992 1.400 . S
C991 C996 1.490 . S
C992 H982 0.930 . S
C992 C991 1.400 . S
C992 C995 1.386 . S
H993 C1009 0.930 . S
H994 C1010 0.931 . S
C995 H983 0.929 . S
C995 C989 1.390 . S
C995 C992 1.386 . S
C996 C991 1.490 . S
C996 C998 1.395 . S
C996 C999 1.403 . S
H997 C1003 0.930 . S
C998 H984 0.930 . S
C998 C996 1.395 . S
C998 C1001 1.403 . S
C999 C996 1.403 . S
C999 C1000 1.524 . S
C999 C1003 1.400 . S
C1000 H985 0.960 . S
C1000 H986 0.960 . S
C1000 H987 0.960 . S
C1000 C999 1.524 . S
C1001 C998 1.403 . S
C1001 C1002 1.392 . S
C1001 C1005 1.495 . S
C1002 C1001 1.392 . S
C1002 C1003 1.385 . S
C1002 C1004 1.478 . S
C1003 H997 0.930 . S
C1003 C999 1.400 . S
C1003 C1002 1.385 . S
C1004 C1002 1.478 . S
C1004 C1006 1.381 . S
C1004 C1010 1.383 . S
C1005 C1001 1.495 . S
C1005 H1011 0.959 . S
C1005 H1012 0.961 . S
C1005 H1013 0.960 . S
C1006 C1004 1.381 . S
C1006 C1007 1.394 . S
C1006 H1014 0.930 . S
C1007 C1006 1.394 . S
C1007 C1008 1.383 . S
C1007 H1015 0.929 . S
C1008 C1007 1.383 . S
C1008 C1009 1.377 . S
C1009 H993 0.930 . S
C1009 C1008 1.377 . S
C1009 C1010 1.379 . S
C1010 H994 0.931 . S
C1010 C1004 1.383 . S
C1010 C1009 1.379 . S
H1011 C1005 0.959 . S
H1012 C1005 0.961 . S
H1013 C1005 0.960 . S
H1014 C1006 0.930 . S
H1015 C1007 0.929 . S
H1016 C1024 0.929 . S
H1017 C1026 0.930 . S
H1018 C1028 0.930 . S
H1019 C1031 0.929 . S
H1020 C1034 0.930 . S
H1021 C1036 0.960 . S
H1022 C1036 0.960 . S
H1023 C1036 0.960 1_565 S
C1024 H1016 0.929 . S
C1024 C1025 1.377 . S
C1024 C1026 1.384 . S
C1025 C1024 1.377 . S
C1025 C1031 1.390 . S
C1026 H1017 0.930 . S
C1026 C1024 1.384 . S
C1026 C1027 1.372 . S
C1027 C1026 1.372 . S
C1027 C1028 1.400 . S
C1027 C1032 1.490 . S
C1028 H1018 0.930 . S
C1028 C1027 1.400 . S
C1028 C1031 1.386 . S
H1029 C1045 0.930 . S
H1030 C1046 0.931 . S
C1031 H1019 0.929 . S
C1031 C1025 1.390 . S
C1031 C1028 1.386 . S
C1032 C1027 1.490 . S
C1032 C1034 1.395 . S
C1032 C1035 1.403 1_565 S
H1033 C1039 0.930 . S
C1034 H1020 0.930 . S
C1034 C1032 1.395 . S
C1034 C1037 1.403 . S
C1035 C1032 1.403 1_545 S
C1035 C1036 1.524 . S
C1035 C1039 1.400 . S
C1036 H1021 0.960 . S
C1036 H1022 0.960 . S
C1036 H1023 0.960 1_545 S
C1036 C1035 1.524 . S
C1037 C1034 1.403 . S
C1037 C1038 1.392 1_565 S
C1037 C1041 1.495 . S
C1038 C1037 1.392 1_545 S
C1038 C1039 1.385 . S
C1038 C1040 1.478 . S
C1039 H1033 0.930 . S
C1039 C1035 1.400 . S
C1039 C1038 1.385 . S
C1040 C1038 1.478 . S
C1040 C1042 1.381 . S
C1040 C1046 1.383 . S
C1041 C1037 1.495 . S
C1041 H1047 0.959 . S
C1041 H1048 0.961 . S
C1041 H1049 0.947 1_565 S
C1042 C1040 1.381 . S
C1042 C1043 1.394 . S
C1042 H1050 0.930 . S
C1043 C1042 1.394 . S
C1043 C1044 1.383 . S
C1043 H1051 0.929 . S
C1044 C1043 1.383 . S
C1044 C1045 1.377 . S
C1045 H1029 0.930 . S
C1045 C1044 1.377 . S
C1045 C1046 1.379 . S
C1046 H1030 0.931 . S
C1046 C1040 1.383 . S
C1046 C1045 1.379 . S
H1047 C1041 0.959 . S
H1048 C1041 0.961 . S
H1049 C1041 0.947 1_545 S
H1050 C1042 0.930 . S
H1051 C1043 0.929 . S
H1052 C1060 0.929 . S
H1053 C1062 0.930 1_554 S
H1054 C1064 0.930 . S
H1055 C1067 0.929 . S
H1056 C1070 0.930 . S
H1057 C1072 0.960 . S
H1058 C1072 0.960 . S
H1059 C1072 0.960 . S
C1060 H1052 0.929 . S
C1060 C1061 1.377 . S
C1060 C1062 1.384 . S
C1061 C1060 1.377 . S
C1061 C1067 1.390 . S
C1062 H1053 0.930 1_556 S
C1062 C1060 1.384 . S
C1062 C1063 1.372 . S
C1063 C1062 1.372 . S
C1063 C1064 1.400 . S
C1063 C1068 1.490 1_556 S
C1064 H1054 0.930 . S
C1064 C1063 1.400 . S
C1064 C1067 1.386 . S
H1065 C1081 0.930 . S
H1066 C1082 0.931 . S
C1067 H1055 0.929 . S
C1067 C1061 1.390 . S
C1067 C1064 1.386 . S
C1068 C1063 1.490 1_554 S
C1068 C1070 1.395 . S
C1068 C1071 1.403 1_545 S
H1069 C1075 0.930 . S
C1070 H1056 0.930 . S
C1070 C1068 1.395 . S
C1070 C1073 1.403 . S
C1071 C1068 1.403 1_565 S
C1071 C1072 1.524 1_554 S
C1071 C1075 1.400 . S
C1072 H1057 0.960 . S
C1072 H1058 0.960 . S
C1072 H1059 0.960 . S
C1072 C1071 1.524 1_556 S
C1073 C1070 1.403 . S
C1073 C1074 1.392 1_545 S
C1073 C1077 1.495 . S
C1074 C1073 1.392 1_565 S
C1074 C1075 1.385 . S
C1074 C1076 1.478 . S
C1075 H1069 0.930 . S
C1075 C1071 1.400 . S
C1075 C1074 1.385 . S
C1076 C1074 1.478 . S
C1076 C1078 1.381 . S
C1076 C1082 1.383 . S
C1077 C1073 1.495 . S
C1077 H1083 0.959 . S
C1077 H1084 0.961 . S
C1077 H1085 0.960 . S
C1078 C1076 1.381 . S
C1078 C1079 1.394 . S
C1078 H1086 0.930 . S
C1079 C1078 1.394 . S
C1079 C1080 1.383 . S
C1079 H1087 0.929 . S
C1080 C1079 1.383 . S
C1080 C1081 1.377 . S
C1081 H1065 0.930 . S
C1081 C1080 1.377 . S
C1081 C1082 1.379 . S
C1082 H1066 0.931 . S
C1082 C1076 1.383 . S
C1082 C1081 1.379 . S
H1083 C1077 0.959 . S
H1084 C1077 0.961 . S
H1085 C1077 0.960 . S
H1086 C1078 0.930 . S
H1087 C1079 0.929 . S
H1088 C1096 0.929 . S
H1089 C1098 0.930 . S
H1090 C1100 0.930 . S
H1091 C1103 0.929 . S
H1092 C1106 0.930 . S
H1093 C1108 0.960 . S
H1094 C1108 0.960 . S
H1095 C1108 0.960 . S
C1096 H1088 0.929 . S
C1096 C1097 1.377 . S
C1096 C1098 1.384 . S
C1097 C1096 1.377 . S
C1097 C1103 1.390 . S
C1098 H1089 0.930 . S
C1098 C1096 1.384 . S
C1098 C1099 1.372 . S
C1099 C1098 1.372 . S
C1099 C1100 1.400 . S
C1099 C1104 1.490 . S
C1100 H1090 0.930 . S
C1100 C1099 1.400 . S
C1100 C1103 1.386 . S
H1101 C1117 0.930 . S
H1102 C1118 0.931 . S
C1103 H1091 0.929 . S
C1103 C1097 1.390 . S
C1103 C1100 1.386 . S
C1104 C1099 1.490 . S
C1104 C1106 1.395 . S
C1104 C1107 1.403 . S
H1105 C1111 0.930 . S
C1106 H1092 0.930 . S
C1106 C1104 1.395 . S
C1106 C1109 1.403 . S
C1107 C1104 1.403 . S
C1107 C1108 1.524 . S
C1107 C1111 1.400 . S
C1108 H1093 0.960 . S
C1108 H1094 0.960 . S
C1108 H1095 0.960 . S
C1108 C1107 1.524 . S
C1109 C1106 1.403 . S
C1109 C1110 1.392 . S
C1109 C1113 1.495 . S
C1110 C1109 1.392 . S
C1110 C1111 1.385 . S
C1110 C1112 1.478 . S
C1111 H1105 0.930 . S
C1111 C1107 1.400 . S
C1111 C1110 1.385 . S
C1112 C1110 1.478 . S
C1112 C1114 1.381 . S
C1112 C1118 1.383 . S
C1113 C1109 1.495 . S
C1113 H1119 0.959 . S
C1113 H1120 0.961 . S
C1113 H1121 0.960 . S
C1114 C1112 1.381 . S
C1114 C1115 1.394 . S
C1114 H1122 0.930 . S
C1115 C1114 1.394 . S
C1115 C1116 1.383 . S
C1115 H1123 0.929 . S
C1116 C1115 1.383 . S
C1116 C1117 1.377 . S
C1117 H1101 0.930 . S
C1117 C1116 1.377 . S
C1117 C1118 1.379 . S
C1118 H1102 0.931 . S
C1118 C1112 1.383 . S
C1118 C1117 1.379 . S
H1119 C1113 0.959 . S
H1120 C1113 0.961 . S
H1121 C1113 0.960 . S
H1122 C1114 0.930 . S
H1123 C1115 0.929 . S
H1124 C1132 0.929 . S
H1125 C1134 0.930 . S
H1126 C1136 0.930 . S
H1127 C1139 0.929 . S
H1128 C1142 0.930 . S
H1129 C1144 0.960 . S
H1130 C1144 0.960 . S
H1131 C1144 0.960 . S
C1132 H1124 0.929 . S
C1132 C1133 1.377 . S
C1132 C1134 1.384 . S
C1133 C1132 1.377 . S
C1133 C1139 1.390 . S
C1134 H1125 0.930 . S
C1134 C1132 1.384 . S
C1134 C1135 1.372 . S
C1135 C1134 1.372 . S
C1135 C1136 1.400 . S
C1135 C1140 1.490 . S
C1136 H1126 0.930 . S
C1136 C1135 1.400 . S
C1136 C1139 1.386 . S
H1137 C1153 0.930 . S
H1138 C1154 0.931 . S
C1139 H1127 0.929 . S
C1139 C1133 1.390 . S
C1139 C1136 1.386 . S
C1140 C1135 1.490 . S
C1140 C1142 1.395 . S
C1140 C1143 1.403 . S
H1141 C1147 0.930 . S
C1142 H1128 0.930 . S
C1142 C1140 1.395 . S
C1142 C1145 1.403 . S
C1143 C1140 1.403 . S
C1143 C1144 1.524 . S
C1143 C1147 1.400 . S
C1144 H1129 0.960 . S
C1144 H1130 0.960 . S
C1144 H1131 0.960 . S
C1144 C1143 1.524 . S
C1145 C1142 1.403 . S
C1145 C1146 1.392 . S
C1145 C1149 1.495 . S
C1146 C1145 1.392 . S
C1146 C1147 1.385 . S
C1146 C1148 1.478 . S
C1147 H1141 0.930 . S
C1147 C1143 1.400 . S
C1147 C1146 1.385 . S
C1148 C1146 1.478 . S
C1148 C1150 1.381 . S
C1148 C1154 1.383 . S
C1149 C1145 1.495 . S
C1149 H1155 0.959 . S
C1149 H1156 0.961 . S
C1149 H1157 0.960 . S
C1150 C1148 1.381 . S
C1150 C1151 1.394 . S
C1150 H1158 0.930 . S
C1151 C1150 1.394 . S
C1151 C1152 1.383 . S
C1151 H1159 0.929 . S
C1152 C1151 1.383 . S
C1152 C1153 1.377 . S
C1153 H1137 0.930 . S
C1153 C1152 1.377 . S
C1153 C1154 1.379 . S
C1154 H1138 0.931 . S
C1154 C1148 1.383 . S
C1154 C1153 1.379 . S
H1155 C1149 0.959 . S
H1156 C1149 0.961 . S
H1157 C1149 0.960 . S
H1158 C1150 0.930 . S
H1159 C1151 0.929 . S
H1160 C1168 0.929 . S
H1161 C1170 0.930 . S
H1162 C1172 0.930 . S
H1163 C1175 0.929 . S
H1164 C1178 0.930 . S
H1165 C1180 0.960 . S
H1166 C1180 0.960 . S
H1167 C1180 0.960 . S
C1168 H1160 0.929 . S
C1168 C1169 1.377 . S
C1168 C1170 1.384 . S
C1169 C1168 1.377 . S
C1169 C1175 1.390 . S
C1170 H1161 0.930 . S
C1170 C1168 1.384 . S
C1170 C1171 1.372 . S
C1171 C1170 1.372 . S
C1171 C1172 1.400 . S
C1171 C1176 1.490 . S
C1172 H1162 0.930 . S
C1172 C1171 1.400 . S
C1172 C1175 1.386 . S
H1173 C1189 0.930 . S
H1174 C1190 0.931 . S
C1175 H1163 0.929 . S
C1175 C1169 1.390 . S
C1175 C1172 1.386 . S
C1176 C1171 1.490 . S
C1176 C1178 1.395 . S
C1176 C1179 1.403 . S
H1177 C1183 0.930 . S
C1178 H1164 0.930 . S
C1178 C1176 1.395 . S
C1178 C1181 1.403 . S
C1179 C1176 1.403 . S
C1179 C1180 1.524 . S
C1179 C1183 1.400 . S
C1180 H1165 0.960 . S
C1180 H1166 0.960 . S
C1180 H1167 0.960 . S
C1180 C1179 1.524 . S
C1181 C1178 1.403 . S
C1181 C1182 1.392 . S
C1181 C1185 1.496 . S
C1182 C1181 1.392 . S
C1182 C1183 1.385 . S
C1182 C1184 1.478 1_554 S
C1183 H1177 0.930 . S
C1183 C1179 1.400 . S
C1183 C1182 1.385 . S
C1184 C1182 1.478 1_556 S
C1184 C1186 1.381 . S
C1184 C1190 1.383 . S
C1185 C1181 1.496 . S
C1185 H1191 0.960 . S
C1185 H1192 0.960 1_554 S
C1185 H1193 0.960 . S
C1186 C1184 1.381 . S
C1186 C1187 1.394 . S
C1186 H1194 0.930 . S
C1187 C1186 1.394 . S
C1187 C1188 1.383 . S
C1187 H1195 0.929 . S
C1188 C1187 1.383 . S
C1188 C1189 1.377 . S
C1189 H1173 0.930 . S
C1189 C1188 1.377 . S
C1189 C1190 1.379 . S
C1190 H1174 0.931 . S
C1190 C1184 1.383 . S
C1190 C1189 1.379 . S
H1191 C1185 0.960 . S
H1192 C1185 0.960 1_556 S
H1193 C1185 0.960 . S
H1194 C1186 0.930 . S
H1195 C1187 0.929 . S
H1196 C1204 0.929 . S
H1197 C1206 0.930 . S
H1198 C1208 0.930 . S
H1199 C1211 0.929 . S
H1200 C1214 0.930 . S
H1201 C1216 0.960 . S
H1202 C1216 0.960 . S
H1203 C1216 0.960 . S
C1204 H1196 0.929 . S
C1204 C1205 1.377 . S
C1204 C1206 1.384 . S
C1205 C1204 1.377 . S
C1205 C1211 1.390 . S
C1206 H1197 0.930 . S
C1206 C1204 1.384 . S
C1206 C1207 1.372 . S
C1207 C1206 1.372 . S
C1207 C1208 1.400 . S
C1207 C1212 1.490 . S
C1208 H1198 0.930 . S
C1208 C1207 1.400 . S
C1208 C1211 1.386 . S
H1209 C1225 0.930 . S
H1210 C1226 0.931 . S
C1211 H1199 0.929 . S
C1211 C1205 1.390 . S
C1211 C1208 1.386 . S
C1212 C1207 1.490 . S
C1212 C1214 1.395 . S
C1212 C1215 1.403 . S
H1213 C1219 0.930 . S
C1214 H1200 0.930 . S
C1214 C1212 1.395 . S
C1214 C1217 1.403 . S
C1215 C1212 1.403 . S
C1215 C1216 1.524 . S
C1215 C1219 1.400 . S
C1216 H1201 0.960 . S
C1216 H1202 0.960 . S
C1216 H1203 0.960 . S
C1216 C1215 1.524 . S
C1217 C1214 1.403 . S
C1217 C1218 1.392 . S
C1217 C1221 1.495 . S
C1218 C1217 1.392 . S
C1218 C1219 1.385 . S
C1218 C1220 1.478 . S
C1219 H1213 0.930 . S
C1219 C1215 1.400 . S
C1219 C1218 1.385 . S
C1220 C1218 1.478 . S
C1220 C1222 1.381 . S
C1220 C1226 1.383 . S
C1221 C1217 1.495 . S
C1221 H1227 0.959 . S
C1221 H1228 0.961 . S
C1221 H1229 0.960 . S
C1222 C1220 1.381 . S
C1222 C1223 1.394 . S
C1222 H1230 0.930 . S
C1223 C1222 1.394 . S
C1223 C1224 1.383 . S
C1223 H1231 0.929 . S
C1224 C1223 1.383 . S
C1224 C1225 1.377 . S
C1225 H1209 0.930 . S
C1225 C1224 1.377 . S
C1225 C1226 1.379 . S
C1226 H1210 0.931 . S
C1226 C1220 1.383 . S
C1226 C1225 1.379 . S
H1227 C1221 0.959 . S
H1228 C1221 0.961 . S
H1229 C1221 0.960 . S
H1230 C1222 0.930 . S
H1231 C1223 0.929 . S
H1232 C1240 0.929 . S
H1233 C1242 0.930 . S
H1234 C1244 0.930 . S
H1235 C1247 0.929 . S
H1236 C1250 0.930 . S
H1237 C1252 0.960 . S
H1238 C1252 0.960 . S
H1239 C1252 0.960 . S
C1240 H1232 0.929 . S
C1240 C1241 1.377 . S
C1240 C1242 1.384 . S
C1241 C1240 1.377 . S
C1241 C1247 1.390 . S
C1242 H1233 0.930 . S
C1242 C1240 1.384 . S
C1242 C1243 1.372 . S
C1243 C1242 1.372 . S
C1243 C1244 1.400 . S
C1243 C1248 1.490 . S
C1244 H1234 0.930 . S
C1244 C1243 1.400 . S
C1244 C1247 1.386 . S
H1245 C1261 0.930 . S
H1246 C1262 0.931 . S
C1247 H1235 0.929 . S
C1247 C1241 1.390 . S
C1247 C1244 1.386 . S
C1248 C1243 1.490 . S
C1248 C1250 1.395 . S
C1248 C1251 1.403 . S
H1249 C1255 0.930 . S
C1250 H1236 0.930 . S
C1250 C1248 1.395 . S
C1250 C1253 1.403 . S
C1251 C1248 1.403 . S
C1251 C1252 1.524 . S
C1251 C1255 1.400 . S
C1252 H1237 0.960 . S
C1252 H1238 0.960 . S
C1252 H1239 0.960 . S
C1252 C1251 1.524 . S
C1253 C1250 1.403 . S
C1253 C1254 1.392 . S
C1253 C1257 1.495 . S
C1254 C1253 1.392 . S
C1254 C1255 1.385 . S
C1254 C1256 1.478 . S
C1255 H1249 0.930 . S
C1255 C1251 1.400 . S
C1255 C1254 1.385 . S
C1256 C1254 1.478 . S
C1256 C1258 1.381 . S
C1256 C1262 1.383 . S
C1257 C1253 1.495 . S
C1257 H1263 0.959 . S
C1257 H1264 0.961 . S
C1257 H1265 0.960 . S
C1258 C1256 1.381 . S
C1258 C1259 1.394 . S
C1258 H1266 0.930 . S
C1259 C1258 1.394 . S
C1259 C1260 1.383 . S
C1259 H1267 0.929 . S
C1260 C1259 1.383 . S
C1260 C1261 1.377 . S
C1261 H1245 0.930 . S
C1261 C1260 1.377 . S
C1261 C1262 1.379 . S
C1262 H1246 0.931 . S
C1262 C1256 1.383 . S
C1262 C1261 1.379 . S
H1263 C1257 0.959 . S
H1264 C1257 0.961 . S
H1265 C1257 0.960 . S
H1266 C1258 0.930 . S
H1267 C1259 0.929 . S
H1268 C1276 0.929 . S
H1269 C1278 0.930 . S
H1270 C1280 0.930 . S
H1271 C1283 0.929 . S
H1272 C1286 0.930 . S
H1273 C1288 0.960 . S
H1274 C1288 0.960 . S
H1275 C1288 0.960 . S
C1276 H1268 0.929 . S
C1276 C1277 1.377 . S
C1276 C1278 1.384 . S
C1277 C1276 1.377 . S
C1277 C1283 1.390 . S
C1278 H1269 0.930 . S
C1278 C1276 1.384 . S
C1278 C1279 1.372 . S
C1279 C1278 1.372 . S
C1279 C1280 1.400 . S
C1279 C1284 1.490 . S
C1280 H1270 0.930 . S
C1280 C1279 1.400 . S
C1280 C1283 1.386 . S
H1281 C1297 0.930 . S
H1282 C1298 0.931 . S
C1283 H1271 0.929 . S
C1283 C1277 1.390 . S
C1283 C1280 1.386 . S
C1284 C1279 1.490 . S
C1284 C1286 1.395 . S
C1284 C1287 1.403 . S
H1285 C1291 0.930 . S
C1286 H1272 0.930 . S
C1286 C1284 1.395 . S
C1286 C1289 1.403 . S
C1287 C1284 1.403 . S
C1287 C1288 1.524 . S
C1287 C1291 1.400 . S
C1288 H1273 0.960 . S
C1288 H1274 0.960 . S
C1288 H1275 0.960 . S
C1288 C1287 1.524 . S
C1289 C1286 1.403 . S
C1289 C1290 1.392 . S
C1289 C1293 1.495 . S
C1290 C1289 1.392 . S
C1290 C1291 1.385 . S
C1290 C1292 1.478 . S
C1291 H1285 0.930 . S
C1291 C1287 1.400 . S
C1291 C1290 1.385 . S
C1292 C1290 1.478 . S
C1292 C1294 1.381 . S
C1292 C1298 1.383 . S
C1293 C1289 1.495 . S
C1293 H1299 0.959 . S
C1293 H1300 0.961 . S
C1293 H1301 0.960 . S
C1294 C1292 1.381 . S
C1294 C1295 1.394 . S
C1294 H1302 0.930 . S
C1295 C1294 1.394 . S
C1295 C1296 1.383 . S
C1295 H1303 0.929 . S
C1296 C1295 1.383 . S
C1296 C1297 1.377 . S
C1297 H1281 0.930 . S
C1297 C1296 1.377 . S
C1297 C1298 1.379 . S
C1298 H1282 0.931 . S
C1298 C1292 1.383 . S
C1298 C1297 1.379 . S
H1299 C1293 0.959 . S
H1300 C1293 0.961 . S
H1301 C1293 0.960 . S
H1302 C1294 0.930 . S
H1303 C1295 0.929 . S
H1304 C1312 0.929 . S
H1305 C1314 0.930 . S
H1306 C1316 0.930 . S
H1307 C1319 0.929 . S
H1308 C1322 0.930 . S
H1309 C1324 0.960 . S
H1310 C1324 0.960 1_565 S
H1311 C1324 0.960 . S
C1312 H1304 0.929 . S
C1312 C1313 1.377 . S
C1312 C1314 1.384 . S
C1313 C1312 1.377 . S
C1313 C1319 1.390 . S
C1314 H1305 0.930 . S
C1314 C1312 1.384 . S
C1314 C1315 1.372 . S
C1315 C1314 1.372 . S
C1315 C1316 1.400 . S
C1315 C1320 1.490 . S
C1316 H1306 0.930 . S
C1316 C1315 1.400 . S
C1316 C1319 1.386 . S
H1317 C1333 0.930 . S
H1318 C1334 0.931 1_554 S
C1319 H1307 0.929 . S
C1319 C1313 1.390 . S
C1319 C1316 1.386 . S
C1320 C1315 1.490 . S
C1320 C1322 1.395 . S
C1320 C1323 1.403 1_565 S
H1321 C1327 0.930 . S
C1322 H1308 0.930 . S
C1322 C1320 1.395 . S
C1322 C1325 1.403 . S
C1323 C1320 1.403 1_545 S
C1323 C1324 1.524 . S
C1323 C1327 1.400 . S
C1324 H1309 0.960 . S
C1324 H1310 0.960 1_545 S
C1324 H1311 0.960 . S
C1324 C1323 1.524 . S
C1325 C1322 1.403 . S
C1325 C1326 1.392 1_565 S
C1325 C1329 1.495 1_554 S
C1326 C1325 1.392 1_545 S
C1326 C1327 1.385 . S
C1326 C1328 1.478 1_554 S
C1327 H1321 0.930 . S
C1327 C1323 1.400 . S
C1327 C1326 1.385 . S
C1328 C1326 1.478 1_556 S
C1328 C1330 1.381 . S
C1328 C1334 1.383 . S
C1329 C1325 1.495 1_556 S
C1329 H1335 0.959 . S
C1329 H1336 0.959 1_565 S
C1329 H1337 0.960 . S
C1330 C1328 1.381 . S
C1330 C1331 1.394 . S
C1330 H1338 0.930 . S
C1331 C1330 1.394 . S
C1331 C1332 1.383 . S
C1331 H1339 0.929 . S
C1332 C1331 1.383 . S
C1332 C1333 1.377 . S
C1333 H1317 0.930 . S
C1333 C1332 1.377 . S
C1333 C1334 1.379 . S
C1334 H1318 0.931 1_556 S
C1334 C1328 1.383 . S
C1334 C1333 1.379 . S
H1335 C1329 0.959 . S
H1336 C1329 0.959 1_545 S
H1337 C1329 0.960 . S
H1338 C1330 0.930 . S
H1339 C1331 0.929 . S
H1340 C1348 0.929 . S
H1341 C1350 0.930 . S
H1342 C1352 0.930 . S
H1343 C1355 0.929 . S
H1344 C1358 0.930 . S
H1345 C1360 0.960 . S
H1346 C1360 0.960 . S
H1347 C1360 0.960 . S
C1348 H1340 0.929 . S
C1348 C1349 1.377 . S
C1348 C1350 1.384 . S
C1349 C1348 1.377 . S
C1349 C1355 1.390 . S
C1350 H1341 0.930 . S
C1350 C1348 1.384 . S
C1350 C1351 1.372 . S
C1351 C1350 1.372 . S
C1351 C1352 1.400 . S
C1351 C1356 1.490 . S
C1352 H1342 0.930 . S
C1352 C1351 1.400 . S
C1352 C1355 1.386 . S
H1353 C1369 0.930 . S
H1354 C1370 0.931 . S
C1355 H1343 0.929 . S
C1355 C1349 1.390 . S
C1355 C1352 1.386 . S
C1356 C1351 1.490 . S
C1356 C1358 1.395 . S
C1356 C1359 1.403 1_545 S
H1357 C1363 0.930 . S
C1358 H1344 0.930 . S
C1358 C1356 1.395 . S
C1358 C1361 1.403 . S
C1359 C1356 1.403 1_565 S
C1359 C1360 1.524 . S
C1359 C1363 1.400 . S
C1360 H1345 0.960 . S
C1360 H1346 0.960 . S
C1360 H1347 0.960 . S
C1360 C1359 1.524 . S
C1361 C1358 1.403 . S
C1361 C1362 1.392 1_545 S
C1361 C1365 1.495 . S
C1362 C1361 1.392 1_565 S
C1362 C1363 1.385 . S
C1362 C1364 1.478 . S
C1363 H1357 0.930 . S
C1363 C1359 1.400 . S
C1363 C1362 1.385 . S
C1364 C1362 1.478 . S
C1364 C1366 1.381 . S
C1364 C1370 1.383 . S
C1365 C1361 1.495 . S
C1365 H1371 0.959 . S
C1365 H1372 0.961 . S
C1365 H1373 0.960 . S
C1366 C1364 1.381 . S
C1366 C1367 1.394 . S
C1366 H1374 0.930 . S
C1367 C1366 1.394 . S
C1367 C1368 1.383 . S
C1367 H1375 0.929 . S
C1368 C1367 1.383 . S
C1368 C1369 1.377 . S
C1369 H1353 0.930 . S
C1369 C1368 1.377 . S
C1369 C1370 1.379 . S
C1370 H1354 0.931 . S
C1370 C1364 1.383 . S
C1370 C1369 1.379 . S
H1371 C1365 0.959 . S
H1372 C1365 0.961 . S
H1373 C1365 0.960 . S
H1374 C1366 0.930 . S
H1375 C1367 0.929 . S
C233 C135 1.244 . S
C252 C9 1.217 . S
C269 C205 1.241 . S
C288 C23 1.263 . S
C305 C37 1.246 . S
C324 C121 1.219 . S
C341 C51 1.247 . S
C360 C219 1.247 . S
C377 C65 1.246 . S
C396 C149 1.218 . S
C413 C191 1.241 . S
C432 C79 1.224 . S
C449 C163 1.246 . S
C468 C93 1.219 . S
C485 C107 1.238 . S
C504 C177 1.238 . S
C521 C63 1.671 . S
C540 C49 1.644 . S
C557 C175 1.673 . S
C576 C119 1.643 . S
C593 C91 1.683 . S
C612 C21 1.690 . S
C629 C133 1.679 . S
C648 C189 1.660 . S
C665 C7 1.683 . S
C684 C77 1.696 . S
C701 C217 1.682 . S
C720 C147 1.683 . S
C737 C105 1.681 . S
C756 C35 1.669 . S
C773 C161 1.674 . S
C792 C203 1.687 . S
C809 C8 1.049 . S
C828 C64 1.046 . S
C845 C78 1.044 . S
C864 C22 1.027 . S
C881 C92 1.048 . S
C900 C36 1.043 . S
C917 C50 1.045 . S
C936 C106 1.051 . S
C953 C148 1.042 . S
C972 C120 1.028 . S
C989 C162 1.043 . S
C1008 C134 1.037 . S
C1025 C204 1.042 . S
C1044 C176 1.026 . S
C1061 C218 1.043 . S
C1080 C190 1.026 . S
C1097 C62 1.584 . S
C1116 C6 1.587 . S
C1133 C76 1.586 . S
C1152 C20 1.571 . S
C1169 C90 1.589 . S
C1188 C34 1.564 . S
C1205 C48 1.593 . S
C1224 C104 1.594 . S
C1241 C118 1.587 . S
C1260 C146 1.568 . S
C1277 C160 1.593 . S
C1296 C132 1.586 . S
C1313 C202 1.585 . S
C1332 C174 1.601 . S
C1349 C216 1.584 . S
C1368 C188 1.598 . S
