# Generated by pormake.
# Topology twf-e, (6)-cn, num edge types: 1
# Building blocks:
#     Node 0, Type 0, BuildingBlock: MIDCAF_clean_sbu_0, # of connection points: 6
#     Node 1, Type 0, BuildingBlock: MIDCAF_clean_sbu_0, # of connection points: 6
#     Node 2, Type 0, BuildingBlock: MIDCAF_clean_sbu_0, # of connection points: 6
#     Node 3, Type 0, BuildingBlock: MIDCAF_clean_sbu_0, # of connection points: 6
#     Node 4, Type 0, BuildingBlock: MIDCAF_clean_sbu_0, # of connection points: 6
#     Node 5, Type 0, BuildingBlock: MIDCAF_clean_sbu_0, # of connection points: 6
#     Node 6, Type 0, BuildingBlock: MIDCAF_clean_sbu_0, # of connection points: 6
#     Node 7, Type 0, BuildingBlock: MIDCAF_clean_sbu_0, # of connection points: 6
#     Node 8, Type 0, BuildingBlock: MIDCAF_clean_sbu_0, # of connection points: 6
#     Node 9, Type 0, BuildingBlock: MIDCAF_clean_sbu_0, # of connection points: 6
#     Node 10, Type 0, BuildingBlock: MIDCAF_clean_sbu_0, # of connection points: 6
#     Node 11, Type 0, BuildingBlock: MIDCAF_clean_sbu_0, # of connection points: 6
#     Node 12, Type 0, BuildingBlock: MIDCAF_clean_sbu_0, # of connection points: 6
#     Node 13, Type 0, BuildingBlock: MIDCAF_clean_sbu_0, # of connection points: 6
#     Node 14, Type 0, BuildingBlock: MIDCAF_clean_sbu_0, # of connection points: 6
#     Node 15, Type 0, BuildingBlock: MIDCAF_clean_sbu_0, # of connection points: 6
#     Node 16, Type 0, BuildingBlock: MIDCAF_clean_sbu_0, # of connection points: 6
#     Node 17, Type 0, BuildingBlock: MIDCAF_clean_sbu_0, # of connection points: 6
#     Node 18, Type 0, BuildingBlock: MIDCAF_clean_sbu_0, # of connection points: 6
#     Node 19, Type 0, BuildingBlock: MIDCAF_clean_sbu_0, # of connection points: 6
#     Node 20, Type 0, BuildingBlock: MIDCAF_clean_sbu_0, # of connection points: 6
#     Node 21, Type 0, BuildingBlock: MIDCAF_clean_sbu_0, # of connection points: 6
#     Node 22, Type 0, BuildingBlock: MIDCAF_clean_sbu_0, # of connection points: 6
#     Node 23, Type 0, BuildingBlock: MIDCAF_clean_sbu_0, # of connection points: 6
#     Node 24, Type 0, BuildingBlock: MIDCAF_clean_sbu_0, # of connection points: 6
#     Node 25, Type 0, BuildingBlock: MIDCAF_clean_sbu_0, # of connection points: 6
#     Node 26, Type 0, BuildingBlock: MIDCAF_clean_sbu_0, # of connection points: 6
#     Node 27, Type 0, BuildingBlock: MIDCAF_clean_sbu_0, # of connection points: 6
#     Node 28, Type 0, BuildingBlock: MIDCAF_clean_sbu_0, # of connection points: 6
#     Node 29, Type 0, BuildingBlock: MIDCAF_clean_sbu_0, # of connection points: 6
#     Node 30, Type 0, BuildingBlock: MIDCAF_clean_sbu_0, # of connection points: 6
#     Node 31, Type 0, BuildingBlock: MIDCAF_clean_sbu_0, # of connection points: 6
#     Node 32, Type 0, BuildingBlock: MIDCAF_clean_sbu_0, # of connection points: 6
#     Node 33, Type 0, BuildingBlock: MIDCAF_clean_sbu_0, # of connection points: 6
#     Node 34, Type 0, BuildingBlock: MIDCAF_clean_sbu_0, # of connection points: 6
#     Node 35, Type 0, BuildingBlock: MIDCAF_clean_sbu_0, # of connection points: 6
#     Node 36, Type 0, BuildingBlock: MIDCAF_clean_sbu_0, # of connection points: 6
#     Node 37, Type 0, BuildingBlock: MIDCAF_clean_sbu_0, # of connection points: 6
#     Node 38, Type 0, BuildingBlock: MIDCAF_clean_sbu_0, # of connection points: 6
#     Node 39, Type 0, BuildingBlock: MIDCAF_clean_sbu_0, # of connection points: 6
#     Node 40, Type 0, BuildingBlock: MIDCAF_clean_sbu_0, # of connection points: 6
#     Node 41, Type 0, BuildingBlock: MIDCAF_clean_sbu_0, # of connection points: 6
#     Node 42, Type 0, BuildingBlock: MIDCAF_clean_sbu_0, # of connection points: 6
#     Node 43, Type 0, BuildingBlock: MIDCAF_clean_sbu_0, # of connection points: 6
#     Node 44, Type 0, BuildingBlock: MIDCAF_clean_sbu_0, # of connection points: 6
#     Node 45, Type 0, BuildingBlock: MIDCAF_clean_sbu_0, # of connection points: 6
#     Node 46, Type 0, BuildingBlock: MIDCAF_clean_sbu_0, # of connection points: 6
#     Node 47, Type 0, BuildingBlock: MIDCAF_clean_sbu_0, # of connection points: 6
#     Edge 48, Type (0, 0), BuildingBlock: TEMPAE_clean_linker_10, # of connection points: 2
#     Edge 49, Type (0, 0), BuildingBlock: TEMPAE_clean_linker_10, # of connection points: 2
#     Edge 50, Type (0, 0), BuildingBlock: TEMPAE_clean_linker_10, # of connection points: 2
#     Edge 51, Type (0, 0), BuildingBlock: TEMPAE_clean_linker_10, # of connection points: 2
#     Edge 52, Type (0, 0), BuildingBlock: TEMPAE_clean_linker_10, # of connection points: 2
#     Edge 53, Type (0, 0), BuildingBlock: TEMPAE_clean_linker_10, # of connection points: 2
#     Edge 54, Type (0, 0), BuildingBlock: TEMPAE_clean_linker_10, # of connection points: 2
#     Edge 55, Type (0, 0), BuildingBlock: TEMPAE_clean_linker_10, # of connection points: 2
#     Edge 56, Type (0, 0), BuildingBlock: TEMPAE_clean_linker_10, # of connection points: 2
#     Edge 57, Type (0, 0), BuildingBlock: TEMPAE_clean_linker_10, # of connection points: 2
#     Edge 58, Type (0, 0), BuildingBlock: TEMPAE_clean_linker_10, # of connection points: 2
#     Edge 59, Type (0, 0), BuildingBlock: TEMPAE_clean_linker_10, # of connection points: 2
#     Edge 60, Type (0, 0), BuildingBlock: TEMPAE_clean_linker_10, # of connection points: 2
#     Edge 61, Type (0, 0), BuildingBlock: TEMPAE_clean_linker_10, # of connection points: 2
#     Edge 62, Type (0, 0), BuildingBlock: TEMPAE_clean_linker_10, # of connection points: 2
#     Edge 63, Type (0, 0), BuildingBlock: TEMPAE_clean_linker_10, # of connection points: 2
#     Edge 64, Type (0, 0), BuildingBlock: TEMPAE_clean_linker_10, # of connection points: 2
#     Edge 65, Type (0, 0), BuildingBlock: TEMPAE_clean_linker_10, # of connection points: 2
#     Edge 66, Type (0, 0), BuildingBlock: TEMPAE_clean_linker_10, # of connection points: 2
#     Edge 67, Type (0, 0), BuildingBlock: TEMPAE_clean_linker_10, # of connection points: 2
#     Edge 68, Type (0, 0), BuildingBlock: TEMPAE_clean_linker_10, # of connection points: 2
#     Edge 69, Type (0, 0), BuildingBlock: TEMPAE_clean_linker_10, # of connection points: 2
#     Edge 70, Type (0, 0), BuildingBlock: TEMPAE_clean_linker_10, # of connection points: 2
#     Edge 71, Type (0, 0), BuildingBlock: TEMPAE_clean_linker_10, # of connection points: 2
#     Edge 72, Type (0, 0), BuildingBlock: TEMPAE_clean_linker_10, # of connection points: 2
#     Edge 73, Type (0, 0), BuildingBlock: TEMPAE_clean_linker_10, # of connection points: 2
#     Edge 74, Type (0, 0), BuildingBlock: TEMPAE_clean_linker_10, # of connection points: 2
#     Edge 75, Type (0, 0), BuildingBlock: TEMPAE_clean_linker_10, # of connection points: 2
#     Edge 76, Type (0, 0), BuildingBlock: TEMPAE_clean_linker_10, # of connection points: 2
#     Edge 77, Type (0, 0), BuildingBlock: TEMPAE_clean_linker_10, # of connection points: 2
#     Edge 78, Type (0, 0), BuildingBlock: TEMPAE_clean_linker_10, # of connection points: 2
#     Edge 79, Type (0, 0), BuildingBlock: TEMPAE_clean_linker_10, # of connection points: 2
#     Edge 80, Type (0, 0), BuildingBlock: TEMPAE_clean_linker_10, # of connection points: 2
#     Edge 81, Type (0, 0), BuildingBlock: TEMPAE_clean_linker_10, # of connection points: 2
#     Edge 82, Type (0, 0), BuildingBlock: TEMPAE_clean_linker_10, # of connection points: 2
#     Edge 83, Type (0, 0), BuildingBlock: TEMPAE_clean_linker_10, # of connection points: 2
#     Edge 84, Type (0, 0), BuildingBlock: TEMPAE_clean_linker_10, # of connection points: 2
#     Edge 85, Type (0, 0), BuildingBlock: TEMPAE_clean_linker_10, # of connection points: 2
#     Edge 86, Type (0, 0), BuildingBlock: TEMPAE_clean_linker_10, # of connection points: 2
#     Edge 87, Type (0, 0), BuildingBlock: TEMPAE_clean_linker_10, # of connection points: 2
#     Edge 88, Type (0, 0), BuildingBlock: TEMPAE_clean_linker_10, # of connection points: 2
#     Edge 89, Type (0, 0), BuildingBlock: TEMPAE_clean_linker_10, # of connection points: 2
#     Edge 90, Type (0, 0), BuildingBlock: TEMPAE_clean_linker_10, # of connection points: 2
#     Edge 91, Type (0, 0), BuildingBlock: TEMPAE_clean_linker_10, # of connection points: 2
#     Edge 92, Type (0, 0), BuildingBlock: TEMPAE_clean_linker_10, # of connection points: 2
#     Edge 93, Type (0, 0), BuildingBlock: TEMPAE_clean_linker_10, # of connection points: 2
#     Edge 94, Type (0, 0), BuildingBlock: TEMPAE_clean_linker_10, # of connection points: 2
#     Edge 95, Type (0, 0), BuildingBlock: TEMPAE_clean_linker_10, # of connection points: 2
#     Edge 96, Type (0, 0), BuildingBlock: TEMPAE_clean_linker_10, # of connection points: 2
#     Edge 97, Type (0, 0), BuildingBlock: TEMPAE_clean_linker_10, # of connection points: 2
#     Edge 98, Type (0, 0), BuildingBlock: TEMPAE_clean_linker_10, # of connection points: 2
#     Edge 99, Type (0, 0), BuildingBlock: TEMPAE_clean_linker_10, # of connection points: 2
#     Edge 100, Type (0, 0), BuildingBlock: TEMPAE_clean_linker_10, # of connection points: 2
#     Edge 101, Type (0, 0), BuildingBlock: TEMPAE_clean_linker_10, # of connection points: 2
#     Edge 102, Type (0, 0), BuildingBlock: TEMPAE_clean_linker_10, # of connection points: 2
#     Edge 103, Type (0, 0), BuildingBlock: TEMPAE_clean_linker_10, # of connection points: 2
#     Edge 104, Type (0, 0), BuildingBlock: TEMPAE_clean_linker_10, # of connection points: 2
#     Edge 105, Type (0, 0), BuildingBlock: TEMPAE_clean_linker_10, # of connection points: 2
#     Edge 106, Type (0, 0), BuildingBlock: TEMPAE_clean_linker_10, # of connection points: 2
#     Edge 107, Type (0, 0), BuildingBlock: TEMPAE_clean_linker_10, # of connection points: 2
#     Edge 108, Type (0, 0), BuildingBlock: TEMPAE_clean_linker_10, # of connection points: 2
#     Edge 109, Type (0, 0), BuildingBlock: TEMPAE_clean_linker_10, # of connection points: 2
#     Edge 110, Type (0, 0), BuildingBlock: TEMPAE_clean_linker_10, # of connection points: 2
#     Edge 111, Type (0, 0), BuildingBlock: TEMPAE_clean_linker_10, # of connection points: 2
#     Edge 112, Type (0, 0), BuildingBlock: TEMPAE_clean_linker_10, # of connection points: 2
#     Edge 113, Type (0, 0), BuildingBlock: TEMPAE_clean_linker_10, # of connection points: 2
#     Edge 114, Type (0, 0), BuildingBlock: TEMPAE_clean_linker_10, # of connection points: 2
#     Edge 115, Type (0, 0), BuildingBlock: TEMPAE_clean_linker_10, # of connection points: 2
#     Edge 116, Type (0, 0), BuildingBlock: TEMPAE_clean_linker_10, # of connection points: 2
#     Edge 117, Type (0, 0), BuildingBlock: TEMPAE_clean_linker_10, # of connection points: 2
#     Edge 118, Type (0, 0), BuildingBlock: TEMPAE_clean_linker_10, # of connection points: 2
#     Edge 119, Type (0, 0), BuildingBlock: TEMPAE_clean_linker_10, # of connection points: 2
#     Edge 120, Type (0, 0), BuildingBlock: TEMPAE_clean_linker_10, # of connection points: 2
#     Edge 121, Type (0, 0), BuildingBlock: TEMPAE_clean_linker_10, # of connection points: 2
#     Edge 122, Type (0, 0), BuildingBlock: TEMPAE_clean_linker_10, # of connection points: 2
#     Edge 123, Type (0, 0), BuildingBlock: TEMPAE_clean_linker_10, # of connection points: 2
#     Edge 124, Type (0, 0), BuildingBlock: TEMPAE_clean_linker_10, # of connection points: 2
#     Edge 125, Type (0, 0), BuildingBlock: TEMPAE_clean_linker_10, # of connection points: 2
#     Edge 126, Type (0, 0), BuildingBlock: TEMPAE_clean_linker_10, # of connection points: 2
#     Edge 127, Type (0, 0), BuildingBlock: TEMPAE_clean_linker_10, # of connection points: 2
#     Edge 128, Type (0, 0), BuildingBlock: TEMPAE_clean_linker_10, # of connection points: 2
#     Edge 129, Type (0, 0), BuildingBlock: TEMPAE_clean_linker_10, # of connection points: 2
#     Edge 130, Type (0, 0), BuildingBlock: TEMPAE_clean_linker_10, # of connection points: 2
#     Edge 131, Type (0, 0), BuildingBlock: TEMPAE_clean_linker_10, # of connection points: 2
#     Edge 132, Type (0, 0), BuildingBlock: TEMPAE_clean_linker_10, # of connection points: 2
#     Edge 133, Type (0, 0), BuildingBlock: TEMPAE_clean_linker_10, # of connection points: 2
#     Edge 134, Type (0, 0), BuildingBlock: TEMPAE_clean_linker_10, # of connection points: 2
#     Edge 135, Type (0, 0), BuildingBlock: TEMPAE_clean_linker_10, # of connection points: 2
#     Edge 136, Type (0, 0), BuildingBlock: TEMPAE_clean_linker_10, # of connection points: 2
#     Edge 137, Type (0, 0), BuildingBlock: TEMPAE_clean_linker_10, # of connection points: 2
#     Edge 138, Type (0, 0), BuildingBlock: TEMPAE_clean_linker_10, # of connection points: 2
#     Edge 139, Type (0, 0), BuildingBlock: TEMPAE_clean_linker_10, # of connection points: 2
#     Edge 140, Type (0, 0), BuildingBlock: TEMPAE_clean_linker_10, # of connection points: 2
#     Edge 141, Type (0, 0), BuildingBlock: TEMPAE_clean_linker_10, # of connection points: 2
#     Edge 142, Type (0, 0), BuildingBlock: TEMPAE_clean_linker_10, # of connection points: 2
#     Edge 143, Type (0, 0), BuildingBlock: TEMPAE_clean_linker_10, # of connection points: 2
#     Edge 144, Type (0, 0), BuildingBlock: TEMPAE_clean_linker_10, # of connection points: 2
#     Edge 145, Type (0, 0), BuildingBlock: TEMPAE_clean_linker_10, # of connection points: 2
#     Edge 146, Type (0, 0), BuildingBlock: TEMPAE_clean_linker_10, # of connection points: 2
#     Edge 147, Type (0, 0), BuildingBlock: TEMPAE_clean_linker_10, # of connection points: 2
#     Edge 148, Type (0, 0), BuildingBlock: TEMPAE_clean_linker_10, # of connection points: 2
#     Edge 149, Type (0, 0), BuildingBlock: TEMPAE_clean_linker_10, # of connection points: 2
#     Edge 150, Type (0, 0), BuildingBlock: TEMPAE_clean_linker_10, # of connection points: 2
#     Edge 151, Type (0, 0), BuildingBlock: TEMPAE_clean_linker_10, # of connection points: 2
#     Edge 152, Type (0, 0), BuildingBlock: TEMPAE_clean_linker_10, # of connection points: 2
#     Edge 153, Type (0, 0), BuildingBlock: TEMPAE_clean_linker_10, # of connection points: 2
#     Edge 154, Type (0, 0), BuildingBlock: TEMPAE_clean_linker_10, # of connection points: 2
#     Edge 155, Type (0, 0), BuildingBlock: TEMPAE_clean_linker_10, # of connection points: 2
#     Edge 156, Type (0, 0), BuildingBlock: TEMPAE_clean_linker_10, # of connection points: 2
#     Edge 157, Type (0, 0), BuildingBlock: TEMPAE_clean_linker_10, # of connection points: 2
#     Edge 158, Type (0, 0), BuildingBlock: TEMPAE_clean_linker_10, # of connection points: 2
#     Edge 159, Type (0, 0), BuildingBlock: TEMPAE_clean_linker_10, # of connection points: 2
#     Edge 160, Type (0, 0), BuildingBlock: TEMPAE_clean_linker_10, # of connection points: 2
#     Edge 161, Type (0, 0), BuildingBlock: TEMPAE_clean_linker_10, # of connection points: 2
#     Edge 162, Type (0, 0), BuildingBlock: TEMPAE_clean_linker_10, # of connection points: 2
#     Edge 163, Type (0, 0), BuildingBlock: TEMPAE_clean_linker_10, # of connection points: 2
#     Edge 164, Type (0, 0), BuildingBlock: TEMPAE_clean_linker_10, # of connection points: 2
#     Edge 165, Type (0, 0), BuildingBlock: TEMPAE_clean_linker_10, # of connection points: 2
#     Edge 166, Type (0, 0), BuildingBlock: TEMPAE_clean_linker_10, # of connection points: 2
#     Edge 167, Type (0, 0), BuildingBlock: TEMPAE_clean_linker_10, # of connection points: 2
#     Edge 168, Type (0, 0), BuildingBlock: TEMPAE_clean_linker_10, # of connection points: 2
#     Edge 169, Type (0, 0), BuildingBlock: TEMPAE_clean_linker_10, # of connection points: 2
#     Edge 170, Type (0, 0), BuildingBlock: TEMPAE_clean_linker_10, # of connection points: 2
#     Edge 171, Type (0, 0), BuildingBlock: TEMPAE_clean_linker_10, # of connection points: 2
#     Edge 172, Type (0, 0), BuildingBlock: TEMPAE_clean_linker_10, # of connection points: 2
#     Edge 173, Type (0, 0), BuildingBlock: TEMPAE_clean_linker_10, # of connection points: 2
#     Edge 174, Type (0, 0), BuildingBlock: TEMPAE_clean_linker_10, # of connection points: 2
#     Edge 175, Type (0, 0), BuildingBlock: TEMPAE_clean_linker_10, # of connection points: 2
#     Edge 176, Type (0, 0), BuildingBlock: TEMPAE_clean_linker_10, # of connection points: 2
#     Edge 177, Type (0, 0), BuildingBlock: TEMPAE_clean_linker_10, # of connection points: 2
#     Edge 178, Type (0, 0), BuildingBlock: TEMPAE_clean_linker_10, # of connection points: 2
#     Edge 179, Type (0, 0), BuildingBlock: TEMPAE_clean_linker_10, # of connection points: 2
#     Edge 180, Type (0, 0), BuildingBlock: TEMPAE_clean_linker_10, # of connection points: 2
#     Edge 181, Type (0, 0), BuildingBlock: TEMPAE_clean_linker_10, # of connection points: 2
#     Edge 182, Type (0, 0), BuildingBlock: TEMPAE_clean_linker_10, # of connection points: 2
#     Edge 183, Type (0, 0), BuildingBlock: TEMPAE_clean_linker_10, # of connection points: 2
#     Edge 184, Type (0, 0), BuildingBlock: TEMPAE_clean_linker_10, # of connection points: 2
#     Edge 185, Type (0, 0), BuildingBlock: TEMPAE_clean_linker_10, # of connection points: 2
#     Edge 186, Type (0, 0), BuildingBlock: TEMPAE_clean_linker_10, # of connection points: 2
#     Edge 187, Type (0, 0), BuildingBlock: TEMPAE_clean_linker_10, # of connection points: 2
#     Edge 188, Type (0, 0), BuildingBlock: TEMPAE_clean_linker_10, # of connection points: 2
#     Edge 189, Type (0, 0), BuildingBlock: TEMPAE_clean_linker_10, # of connection points: 2
#     Edge 190, Type (0, 0), BuildingBlock: TEMPAE_clean_linker_10, # of connection points: 2
#     Edge 191, Type (0, 0), BuildingBlock: TEMPAE_clean_linker_10, # of connection points: 2
# Relax obj value: 0.393
# Max RMSD: 0.172
# Mean RMSD: 0.172
data_MOF--net-twf-e--node1-MIDCAF_clean_sbu_0--edge1-TEMPAE_clean_linker_10
_symmetry_space_group_name_H-M    P1
_symmetry_Int_Tables_number       1
_symmetry_cell_setting            triclinic
loop_
_symmetry_equiv_pos_as_xyz
'x, y, z'
_cell_length_a     59.965996
_cell_length_b     59.949696
_cell_length_c     60.020935
_cell_angle_alpha  89.990812
_cell_angle_beta   89.969552
_cell_angle_gamma 90.013133
loop_
_atom_site_label
_atom_site_type_symbol
_atom_site_fract_x
_atom_site_fract_y
_atom_site_fract_z
_atom_type_partial_charge
Zn0 Zn 0.02935 0.18116 0.35326 0.0
Zn1 Zn 0.96761 0.17517 0.40163 0.0
Zn2 Zn 0.99752 0.18118 0.37729 0.0
C3 C 0.95107 0.20464 0.37107 0.0
C4 C 0.99554 0.19033 0.43123 0.0
O5 O 0.00704 0.14796 0.36156 0.0
O6 O 0.02838 0.1557 0.3328 0.0
C7 C 0.00764 0.21994 0.34223 0.0
O8 O 0.97207 0.206 0.36665 0.0
O9 O 0.94423 0.18946 0.38387 0.0
O10 O 0.97462 0.18908 0.43041 0.0
O11 O 0.00716 0.18685 0.41343 0.0
O12 O 0.02589 0.20993 0.33971 0.0
O13 O 0.99236 0.21102 0.35454 0.0
O14 O 0.02515 0.19045 0.39815 0.0
O15 O 0.05332 0.18231 0.37595 0.0
C16 C 0.0462 0.18994 0.39421 0.0
O17 O 0.98383 0.14715 0.37143 0.0
O18 O 0.96471 0.14293 0.40244 0.0
C19 C 0.019 0.14133 0.34487 0.0
C20 C 0.97109 0.13522 0.38401 0.0
Zn21 Zn 0.83831 0.06262 0.34573 0.0
Zn22 Zn 0.83459 0.95582 0.38902 0.0
Zn23 Zn 0.83207 0.00236 0.3762 0.0
C24 C 0.79757 0.96637 0.36269 0.0
C25 C 0.8278 0.98758 0.4263 0.0
O26 O 0.8617 0.00397 0.35654 0.0
O27 O 0.84468 0.03007 0.33879 0.0
C28 C 0.7991 0.02444 0.33939 0.0
O29 O 0.80103 0.98709 0.36644 0.0
O30 O 0.81438 0.95379 0.36164 0.0
O31 O 0.82731 0.96736 0.42008 0.0
O32 O 0.83084 0.00309 0.41201 0.0
O33 O 0.81112 0.04184 0.33602 0.0
O34 O 0.80399 0.00936 0.35399 0.0
O35 O 0.83214 0.03657 0.37967 0.0
O36 O 0.8321 0.0726 0.37843 0.0
C37 C 0.82717 0.05488 0.38893 0.0
O38 O 0.86432 0.98538 0.36816 0.0
O39 O 0.86655 0.95196 0.38411 0.0
C40 C 0.8629 0.02065 0.34338 0.0
C41 C 0.87539 0.96767 0.37332 0.0
Zn42 Zn 0.9636 0.84596 0.33704 0.0
Zn43 Zn 0.06465 0.83382 0.38755 0.0
Zn44 Zn 0.01596 0.83038 0.37623 0.0
C45 C 0.04895 0.79563 0.37792 0.0
C46 C 0.03273 0.82796 0.42595 0.0
O47 O 0.01249 0.86669 0.37416 0.0
O48 O 0.99391 0.8581 0.34449 0.0
C49 C 0.99342 0.80562 0.32986 0.0
O50 O 0.03311 0.80249 0.39027 0.0
O51 O 0.05755 0.80959 0.36484 0.0
O52 O 0.05145 0.83543 0.41941 0.0
O53 O 0.01874 0.82035 0.41158 0.0
O54 O 0.97752 0.81827 0.32342 0.0
O55 O 0.00537 0.80995 0.34724 0.0
O56 O 0.98126 0.82934 0.37281 0.0
O57 O 0.94637 0.83303 0.36387 0.0
C58 C 0.96091 0.82554 0.37731 0.0
O59 O 0.03693 0.8606 0.36822 0.0
O60 O 0.07312 0.86247 0.37504 0.0
C61 C 0.99832 0.87239 0.3592 0.0
C62 C 0.05559 0.87113 0.36736 0.0
Zn63 Zn 0.19326 0.98022 0.36611 0.0
Zn64 Zn 0.1647 0.0449 0.3988 0.0
Zn65 Zn 0.18093 0.01437 0.3823 0.0
C66 C 0.19475 0.06266 0.37091 0.0
C67 C 0.18245 0.02814 0.43531 0.0
O68 O 0.15332 0.99935 0.36187 0.0
O69 O 0.17125 0.97345 0.34312 0.0
C70 C 0.22589 0.00887 0.35254 0.0
O71 O 0.20164 0.04238 0.37216 0.0
O72 O 0.17477 0.06677 0.37601 0.0
O73 O 0.17807 0.04758 0.42863 0.0
O74 O 0.18307 0.01219 0.42073 0.0
O75 O 0.22283 0.98823 0.355 0.0
O76 O 0.21136 0.02262 0.36063 0.0
O77 O 0.19083 0.99239 0.41003 0.0
O78 O 0.19307 0.96032 0.39221 0.0
C79 C 0.19421 0.97117 0.41015 0.0
O80 O 0.1455 0.02061 0.37071 0.0
O81 O 0.13239 0.03946 0.39931 0.0
C82 C 0.15333 0.98358 0.34723 0.0
C83 C 0.12906 0.0303 0.38076 0.0
Zn84 Zn 0.04677 0.83086 0.66124 0.0
Zn85 Zn 0.99672 0.86937 0.62698 0.0
Zn86 Zn 0.01438 0.84061 0.64451 0.0
C87 C 0.9722 0.83102 0.62094 0.0
C88 C 0.01652 0.84703 0.59263 0.0
O89 O 0.03495 0.87001 0.64348 0.0
O90 O 0.06263 0.85888 0.66462 0.0
C91 C 0.01477 0.81808 0.6914 0.0
O92 O 0.99245 0.82387 0.6215 0.0
O93 O 0.96842 0.85127 0.62539 0.0
O94 O 0.01506 0.86748 0.5981 0.0
O95 O 0.01331 0.83201 0.60781 0.0
O96 O 0.03559 0.81837 0.68877 0.0
O97 O 0.00213 0.82655 0.67636 0.0
O98 O 0.02154 0.81147 0.62301 0.0
O99 O 0.05458 0.80851 0.63892 0.0
C100 C 0.04038 0.80128 0.62515 0.0
O101 O 0.98862 0.85403 0.66673 0.0
O102 O 0.99872 0.88747 0.65535 0.0
C103 C 0.05262 0.8742 0.65437 0.0
C104 C 0.98835 0.87539 0.66928 0.0
Zn105 Zn 0.18385 0.03978 0.67489 0.0
Zn106 Zn 0.18593 0.97347 0.63782 0.0
Zn107 Zn 0.1862 0.00952 0.65178 0.0
C108 C 0.22884 0.98197 0.64265 0.0
C109 C 0.17485 0.00526 0.60277 0.0
O110 O 0.15772 0.02892 0.64024 0.0
O111 O 0.15145 0.03372 0.67601 0.0
C112 C 0.22221 0.02184 0.68744 0.0
O113 O 0.22038 0.00168 0.64205 0.0
O114 O 0.2166 0.96603 0.64885 0.0
O115 O 0.18236 0.98582 0.60622 0.0
O116 O 0.17071 0.01795 0.61955 0.0
O117 O 0.20541 0.02849 0.69829 0.0
O118 O 0.21987 0.01746 0.66662 0.0
O119 O 0.21623 0.02651 0.6432 0.0
O120 O 0.19604 0.05673 0.64712 0.0
C121 C 0.21174 0.04665 0.63717 0.0
O122 O 0.17046 0.99212 0.67854 0.0
O123 O 0.16058 0.96439 0.65675 0.0
C124 C 0.14411 0.03325 0.65628 0.0
C125 C 0.15917 0.97445 0.67519 0.0
Zn126 Zn 0.97444 0.19642 0.65969 0.0
Zn127 Zn 0.04674 0.17722 0.6315 0.0
Zn128 Zn 0.01324 0.18904 0.64745 0.0
C129 C 0.06123 0.20784 0.65886 0.0
C130 C 0.02938 0.19321 0.59525 0.0
O131 O 0.99808 0.15901 0.6657 0.0
O132 O 0.96463 0.17026 0.67585 0.0
C133 C 0.00244 0.22887 0.68012 0.0
O134 O 0.04023 0.21235 0.65776 0.0
O135 O 0.06731 0.18807 0.65503 0.0
O136 O 0.0492 0.19141 0.60197 0.0
O137 O 0.01334 0.19156 0.60959 0.0
O138 O 0.98264 0.22226 0.67759 0.0
O139 O 0.01837 0.21852 0.67002 0.0
O140 O 0.99327 0.19922 0.61956 0.0
O141 O 0.95875 0.20308 0.63175 0.0
C142 C 0.97278 0.20448 0.61621 0.0
O143 O 0.01952 0.15409 0.6571 0.0
O144 O 0.04173 0.145 0.62935 0.0
C145 C 0.97897 0.15496 0.67487 0.0
C146 C 0.03026 0.13924 0.64591 0.0
Zn147 Zn 0.85766 0.04607 0.62246 0.0
Zn148 Zn 0.82637 0.97969 0.66136 0.0
Zn149 Zn 0.83896 0.01568 0.64426 0.0
C150 C 0.81818 0.97252 0.61843 0.0
C151 C 0.79711 0.01267 0.6766 0.0
O152 O 0.87485 0.02022 0.6562 0.0
O153 O 0.88745 0.04718 0.6345 0.0
C154 C 0.84278 0.02021 0.58942 0.0
O155 O 0.82474 0.99301 0.61891 0.0
O156 O 0.81967 0.96056 0.63562 0.0
O157 O 0.80019 0.9919 0.67645 0.0
O158 O 0.81045 0.0258 0.66598 0.0
O159 O 0.85538 0.03691 0.59118 0.0
O160 O 0.83503 0.01065 0.6071 0.0
O161 O 0.81799 0.04499 0.65274 0.0
O162 O 0.83669 0.06935 0.63237 0.0
C163 C 0.82045 0.06492 0.64501 0.0
O164 O 0.86716 0.9991 0.66367 0.0
O165 O 0.85086 0.97064 0.6804 0.0
C166 C 0.89069 0.03359 0.65014 0.0
C167 C 0.86817 0.98195 0.67679 0.0
Zn168 Zn 0.3348 0.04091 0.18209 0.0
Zn169 Zn 0.38615 0.96966 0.18237 0.0
Zn170 Zn 0.37 0.0068 0.18572 0.0
C171 C 0.36328 0.96716 0.22001 0.0
C172 C 0.42103 0.00168 0.18881 0.0
O173 O 0.35618 0.01737 0.15243 0.0
O174 O 0.32824 0.04138 0.14982 0.0
C175 C 0.32553 0.01403 0.21898 0.0
O176 O 0.36232 0.98811 0.2159 0.0
O177 O 0.36587 0.95412 0.2038 0.0
O178 O 0.4173 0.98091 0.18953 0.0
O179 O 0.40487 0.01524 0.18613 0.0
O180 O 0.31508 0.0245 0.20393 0.0
O181 O 0.34637 0.00879 0.21603 0.0
O182 O 0.36648 0.02899 0.21238 0.0
O183 O 0.36014 0.06028 0.19474 0.0
C184 C 0.36926 0.04993 0.21071 0.0
O185 O 0.3599 0.99282 0.15308 0.0
O186 O 0.38108 0.96274 0.15143 0.0
C187 C 0.34249 0.02905 0.14052 0.0
C188 C 0.36744 0.97582 0.14234 0.0
Zn189 Zn 0.99094 0.34294 0.18212 0.0
Zn190 Zn 0.03234 0.39491 0.15846 0.0
Zn191 Zn 0.01639 0.3747 0.18842 0.0
C192 C 0.05983 0.40052 0.19361 0.0
C193 C 0.01189 0.42686 0.1799 0.0
O194 O 0.99308 0.37801 0.15956 0.0
O195 O 0.98886 0.34273 0.14993 0.0
C196 C 0.01301 0.32783 0.21653 0.0
O197 O 0.04003 0.3986 0.20123 0.0
O198 O 0.06313 0.39637 0.17326 0.0
O199 O 0.013 0.42182 0.15951 0.0
O200 O 0.01661 0.41174 0.19443 0.0
O201 O 0.00657 0.3185 0.19879 0.0
O202 O 0.01485 0.34932 0.2167 0.0
O203 O 0.9977 0.36805 0.21754 0.0
O204 O 0.96733 0.3625 0.1985 0.0
C205 C 0.9766 0.36989 0.2159 0.0
O206 O 0.03614 0.35348 0.16448 0.0
O207 O 0.03044 0.37397 0.13449 0.0
C208 C 0.98641 0.36318 0.14556 0.0
C209 C 0.03717 0.35601 0.14316 0.0
Zn210 Zn 0.62175 0.05551 0.18172 0.0
Zn211 Zn 0.65887 0.98593 0.19307 0.0
Zn212 Zn 0.63898 0.02096 0.19054 0.0
C213 C 0.61525 0.97553 0.20182 0.0
C214 C 0.67385 0.00878 0.22959 0.0
O215 O 0.64699 0.03111 0.1553 0.0
O216 O 0.62312 0.05839 0.1496 0.0
C217 C 0.58628 0.03215 0.19581 0.0
O218 O 0.61393 0.99693 0.20184 0.0
O219 O 0.63242 0.96618 0.19401 0.0
O220 O 0.67341 0.98933 0.22171 0.0
O221 O 0.66285 0.02442 0.21963 0.0
O222 O 0.59143 0.05238 0.19345 0.0
O223 O 0.60171 0.01714 0.19478 0.0
O224 O 0.65259 0.04549 0.21457 0.0
O225 O 0.64182 0.07601 0.19732 0.0
C226 C 0.65216 0.06694 0.21317 0.0
O227 O 0.65506 0.00902 0.15896 0.0
O228 O 0.67927 0.98276 0.16772 0.0
C229 C 0.63844 0.04602 0.14239 0.0
C230 C 0.67028 0.99489 0.15319 0.0
Zn231 Zn 0.03771 0.65961 0.18724 0.0
Zn232 Zn 0.96692 0.6249 0.17805 0.0
Zn233 Zn 0.9994 0.64289 0.18526 0.0
C234 C 0.95337 0.65636 0.2055 0.0
C235 C 0.98713 0.5914 0.19715 0.0
O236 O 0.00932 0.65793 0.15231 0.0
O237 O 0.04189 0.67398 0.15843 0.0
C238 C 0.01175 0.67951 0.22134 0.0
O239 O 0.9745 0.65557 0.20923 0.0
O240 O 0.94627 0.64912 0.18713 0.0
O241 O 0.96706 0.59756 0.19629 0.0
O242 O 0.0025 0.60568 0.19216 0.0
O243 O 0.03092 0.67897 0.2127 0.0
O244 O 0.99609 0.66728 0.21315 0.0
O245 O 0.02259 0.61784 0.19698 0.0
O246 O 0.05599 0.63319 0.19477 0.0
C247 C 0.04373 0.61706 0.20041 0.0
O248 O 0.98671 0.64952 0.15049 0.0
O249 O 0.9667 0.61915 0.14601 0.0
C250 C 0.02611 0.66948 0.14537 0.0
C251 C 0.97384 0.63732 0.13827 0.0
Zn252 Zn 0.35354 0.98301 0.82523 0.0
Zn253 Zn 0.40327 0.04632 0.84766 0.0
Zn254 Zn 0.37964 0.0154 0.83397 0.0
C255 C 0.38008 0.06329 0.8112 0.0
C256 C 0.43419 0.01643 0.83394 0.0
O257 O 0.35943 0.00508 0.86381 0.0
O258 O 0.33506 0.98007 0.85214 0.0
C259 C 0.34656 0.01287 0.79109 0.0
O260 O 0.37413 0.04268 0.80957 0.0
O261 O 0.39145 0.06966 0.82767 0.0
O262 O 0.43363 0.03621 0.84094 0.0
O263 O 0.41588 0.00541 0.83116 0.0
O264 O 0.34019 0.99404 0.79789 0.0
O265 O 0.36073 0.0243 0.80259 0.0
O266 O 0.40167 0.987 0.82724 0.0
O267 O 0.37709 0.96032 0.82039 0.0
C268 C 0.39709 0.96665 0.82209 0.0
O269 O 0.36793 0.02761 0.86767 0.0
O270 O 0.39494 0.05001 0.87875 0.0
C271 C 0.34338 0.99125 0.86786 0.0
C272 C 0.37632 0.04098 0.88232 0.0
Zn273 Zn 0.96997 0.39639 0.85163 0.0
Zn274 Zn 0.04263 0.34889 0.84209 0.0
Zn275 Zn 0.00499 0.37894 0.84605 0.0
C276 C 0.03414 0.38584 0.81327 0.0
C277 C 0.0177 0.33443 0.80884 0.0
O278 O 0.98746 0.3623 0.87287 0.0
O279 O 0.964 0.38848 0.88294 0.0
C280 C 0.99696 0.43181 0.8424 0.0
O281 O 0.01456 0.37734 0.81356 0.0
O282 O 0.04803 0.38056 0.82839 0.0
O283 O 0.03484 0.32827 0.81933 0.0
O284 O 0.00685 0.3524 0.81507 0.0
O285 O 0.97634 0.42795 0.84397 0.0
O286 O 0.01065 0.41553 0.84462 0.0
O287 O 0.98962 0.37014 0.81474 0.0
O288 O 0.95594 0.37811 0.82764 0.0
C289 C 0.96831 0.37156 0.81188 0.0
O290 O 0.02896 0.37297 0.87259 0.0
O291 O 0.02462 0.33772 0.86838 0.0
C292 C 0.97346 0.37011 0.88675 0.0
C293 C 0.0313 0.35341 0.88035 0.0
Zn294 Zn 0.63258 0.96434 0.8422 0.0
Zn295 Zn 0.66152 0.03832 0.83046 0.0
Zn296 Zn 0.64876 0.99886 0.83361 0.0
C297 C 0.61854 0.04194 0.82096 0.0
C298 C 0.68092 0.01391 0.79483 0.0
O299 O 0.65808 0.98689 0.868 0.0
O300 O 0.63067 0.96331 0.87453 0.0
C301 C 0.59751 0.98485 0.8257 0.0
O302 O 0.62159 0.02095 0.82414 0.0
O303 O 0.63397 0.05557 0.82513 0.0
O304 O 0.67915 0.03291 0.80366 0.0
O305 O 0.67123 0.997 0.80393 0.0
O306 O 0.60356 0.96469 0.82592 0.0
O307 O 0.61195 0.00021 0.82985 0.0
O308 O 0.65927 0.97476 0.80798 0.0
O309 O 0.65833 0.94675 0.83093 0.0
C310 C 0.66082 0.95363 0.81129 0.0
O311 O 0.66496 0.00975 0.86548 0.0
O312 O 0.67738 0.04356 0.85802 0.0
C313 C 0.64802 0.97311 0.88121 0.0
C314 C 0.67489 0.02782 0.87169 0.0
Zn315 Zn 0.07472 0.62859 0.83888 0.0
Zn316 Zn 0.97876 0.65838 0.8161 0.0
Zn317 Zn 0.0153 0.64459 0.82318 0.0
C318 C 0.97799 0.61359 0.80437 0.0
C319 C 0.00267 0.68723 0.79167 0.0
O320 O 0.02366 0.64744 0.85858 0.0
O321 O 0.05844 0.6565 0.85196 0.0
C322 C 0.03679 0.59458 0.82345 0.0
O323 O 0.99851 0.61473 0.81037 0.0
O324 O 0.96592 0.6308 0.80473 0.0
O325 O 0.98258 0.68336 0.79627 0.0
O326 O 0.01807 0.67407 0.79906 0.0
O327 O 0.05548 0.60052 0.83178 0.0
O328 O 0.02135 0.60868 0.81803 0.0
O329 O 0.03825 0.66115 0.80082 0.0
O330 O 0.06183 0.65805 0.82762 0.0
C331 C 0.05848 0.65851 0.80686 0.0
O332 O 0.00124 0.65445 0.85589 0.0
O333 O 0.9683 0.66671 0.84546 0.0
C334 C 0.043 0.65271 0.86596 0.0
C335 C 0.982 0.66248 0.86077 0.0
Zn336 Zn 0.17408 0.39482 0.96941 0.0
Zn337 Zn 0.19258 0.35199 0.02344 0.0
Zn338 Zn 0.18881 0.38139 0.00118 0.0
C339 C 0.21719 0.38991 0.03617 0.0
C340 C 0.23021 0.34526 0.00451 0.0
O341 O 0.17164 0.3545 0.98469 0.0
O342 O 0.14649 0.37694 0.97092 0.0
C343 C 0.17486 0.43227 0.99302 0.0
O344 O 0.22046 0.38762 0.0152 0.0
O345 O 0.20276 0.3774 0.04523 0.0
O346 O 0.2153 0.33194 0.01092 0.0
O347 O 0.22517 0.36615 0.00195 0.0
O348 O 0.17243 0.42729 0.97278 0.0
O349 O 0.17878 0.41667 0.0071 0.0
O350 O 0.21997 0.38586 0.98435 0.0
O351 O 0.20099 0.38398 0.9528 0.0
C352 C 0.21947 0.38517 0.9629 0.0
O353 O 0.16137 0.37692 0.02652 0.0
O354 O 0.1626 0.34041 0.02641 0.0
C355 C 0.15267 0.35746 0.9758 0.0
C356 C 0.15236 0.35806 0.03135 0.0
Zn357 Zn 0.17882 0.67086 0.9953 0.0
Zn358 Zn 0.16062 0.63247 0.05276 0.0
Zn359 Zn 0.17769 0.64877 0.02451 0.0
C360 C 0.20182 0.64517 0.06674 0.0
C361 C 0.16936 0.59742 0.02559 0.0
O362 O 0.15881 0.63181 0.99876 0.0
O363 O 0.14636 0.66503 0.989 0.0
C364 C 0.2109 0.68938 0.02002 0.0
O365 O 0.20566 0.64317 0.04584 0.0
O366 O 0.18193 0.6482 0.07315 0.0
O367 O 0.16759 0.60056 0.04628 0.0
O368 O 0.16951 0.61439 0.01241 0.0
O369 O 0.19434 0.69773 0.00983 0.0
O370 O 0.21004 0.66858 0.02545 0.0
O371 O 0.21247 0.64458 0.01671 0.0
O372 O 0.19978 0.64679 0.98257 0.0
C373 C 0.21412 0.63903 0.99601 0.0
O374 O 0.15358 0.67358 0.03509 0.0
O375 O 0.13135 0.64607 0.04404 0.0
C376 C 0.1443 0.64396 0.98873 0.0
C377 C 0.13399 0.66647 0.03951 0.0
Zn378 Zn 0.35221 0.19499 0.9807 0.0
Zn379 Zn 0.39994 0.17464 0.04964 0.0
Zn380 Zn 0.37805 0.18802 0.01607 0.0
C381 C 0.3725 0.209 0.06439 0.0
C382 C 0.43182 0.19141 0.02147 0.0
O383 O 0.36053 0.1573 0.00413 0.0
O384 O 0.33816 0.16557 0.97603 0.0
C385 C 0.33965 0.22624 0.01315 0.0
O386 O 0.36886 0.2108 0.04332 0.0
O387 O 0.38371 0.19281 0.0718 0.0
O388 O 0.43012 0.1846 0.04125 0.0
O389 O 0.41438 0.19298 0.00899 0.0
O390 O 0.33425 0.21905 0.99415 0.0
O391 O 0.35574 0.21706 0.02412 0.0
O392 O 0.4011 0.1989 0.99034 0.0
O393 O 0.3784 0.20362 0.96162 0.0
C394 C 0.39779 0.20443 0.96989 0.0
O395 O 0.37004 0.15253 0.02532 0.0
O396 O 0.39482 0.14246 0.05065 0.0
C397 C 0.34633 0.15127 0.98908 0.0
C398 C 0.37864 0.13759 0.03824 0.0
Zn399 Zn 0.83661 0.40157 0.04363 0.0
Zn400 Zn 0.82379 0.34009 0.96456 0.0
Zn401 Zn 0.82695 0.38124 0.01357 0.0
C402 C 0.8148 0.38146 0.96405 0.0
C403 C 0.7923 0.34098 0.00807 0.0
O404 O 0.8608 0.37443 0.02531 0.0
O405 O 0.86893 0.40761 0.03859 0.0
C406 C 0.81663 0.43203 0.02047 0.0
O407 O 0.82329 0.37385 0.9817 0.0
O408 O 0.81487 0.36878 0.9472 0.0
O409 O 0.80126 0.33482 0.98982 0.0
O410 O 0.79879 0.35834 0.01913 0.0
O411 O 0.81584 0.42716 0.0409 0.0
O412 O 0.82309 0.41711 0.00667 0.0
O413 O 0.80329 0.3719 0.04007 0.0
O414 O 0.82909 0.37737 0.06511 0.0
C415 C 0.80932 0.37175 0.06065 0.0
O416 O 0.85689 0.363 0.00302 0.0
O417 O 0.85598 0.33813 0.97503 0.0
C418 C 0.87515 0.38832 0.03306 0.0
C419 C 0.86638 0.34841 0.99038 0.0
Zn420 Zn 0.6654 0.83188 0.98082 0.0
Zn421 Zn 0.63079 0.84584 0.05185 0.0
Zn422 Zn 0.64673 0.83857 0.01497 0.0
C423 C 0.65591 0.81012 0.05949 0.0
C424 C 0.5934 0.83599 0.02746 0.0
O425 O 0.66726 0.86887 0.00436 0.0
O426 O 0.68807 0.85466 0.97776 0.0
C427 C 0.67915 0.79583 0.00294 0.0
O428 O 0.65656 0.81206 0.0381 0.0
O429 O 0.64867 0.82602 0.07114 0.0
O430 O 0.59938 0.83712 0.04756 0.0
O431 O 0.60841 0.83716 0.01191 0.0
O432 O 0.67808 0.80228 0.98304 0.0
O433 O 0.66902 0.8074 0.01811 0.0
O434 O 0.6204 0.83121 0.99098 0.0
O435 O 0.64026 0.83351 0.96017 0.0
C436 C 0.62189 0.82968 0.96963 0.0
O437 O 0.65756 0.87246 0.02592 0.0
O438 O 0.63588 0.8777 0.05522 0.0
C439 C 0.68291 0.87114 0.98963 0.0
C440 C 0.65027 0.88498 0.04181 0.0
Zn441 Zn 0.83944 0.63113 0.96714 0.0
Zn442 Zn 0.83958 0.6727 0.06351 0.0
Zn443 Zn 0.83574 0.64837 0.00252 0.0
C444 C 0.82877 0.62782 0.05421 0.0
C445 C 0.80201 0.68318 0.02359 0.0
O446 O 0.86887 0.65585 0.98752 0.0
O447 O 0.87234 0.62958 0.96211 0.0
C448 C 0.82701 0.598 0.99745 0.0
O449 O 0.83143 0.63562 0.03467 0.0
O450 O 0.83536 0.63921 0.07083 0.0
O451 O 0.81315 0.68398 0.04188 0.0
O452 O 0.80767 0.67057 0.0071 0.0
O453 O 0.8249 0.60293 0.9771 0.0
O454 O 0.83391 0.61287 0.01116 0.0
O455 O 0.80592 0.65689 0.98432 0.0
O456 O 0.82038 0.6534 0.95101 0.0
C457 C 0.80368 0.65767 0.96311 0.0
O458 O 0.865 0.66867 0.00472 0.0
O459 O 0.84689 0.6815 0.0325 0.0
C460 C 0.88094 0.64496 0.97353 0.0
C461 C 0.8655 0.6792 0.02311 0.0
Zn462 Zn 0.39571 0.84101 0.96521 0.0
Zn463 Zn 0.34859 0.83659 0.01985 0.0
Zn464 Zn 0.37645 0.83238 0.99558 0.0
C465 C 0.37997 0.80323 0.03291 0.0
C466 C 0.33468 0.80025 0.9987 0.0
O467 O 0.3541 0.8545 0.97687 0.0
O468 O 0.38191 0.87017 0.95891 0.0
C469 C 0.42743 0.84017 0.99894 0.0
O470 O 0.37834 0.8002 0.01168 0.0
O471 O 0.3695 0.81956 0.04132 0.0
O472 O 0.32504 0.81851 0.00316 0.0
O473 O 0.3562 0.79999 0.99811 0.0
O474 O 0.42608 0.83821 0.97806 0.0
O475 O 0.40935 0.8423 0.01034 0.0
O476 O 0.3811 0.79893 0.98279 0.0
O477 O 0.3842 0.81423 0.94952 0.0
C478 C 0.38227 0.79699 0.96149 0.0
O479 O 0.38862 0.85618 0.01994 0.0
O480 O 0.35437 0.86945 0.01828 0.0
C481 C 0.3616 0.87017 0.96447 0.0
C482 C 0.37479 0.87231 0.0229 0.0
Zn483 Zn 0.62888 0.17269 0.97324 0.0
Zn484 Zn 0.66872 0.18175 0.03995 0.0
Zn485 Zn 0.64668 0.1809 0.00528 0.0
C486 C 0.62544 0.19451 0.05084 0.0
C487 C 0.68279 0.21852 0.01546 0.0
O488 O 0.65207 0.1457 0.99271 0.0
O489 O 0.62085 0.14117 0.974 0.0
C490 C 0.59641 0.19315 0.99402 0.0
O491 O 0.62285 0.19129 0.02986 0.0
O492 O 0.64364 0.18944 0.06013 0.0
O493 O 0.6866 0.2078 0.03311 0.0
O494 O 0.66894 0.21068 0.00103 0.0
O495 O 0.60324 0.19359 0.97411 0.0
O496 O 0.61004 0.18692 0.00948 0.0
O497 O 0.65719 0.20474 0.97966 0.0
O498 O 0.65643 0.17835 0.95513 0.0
C499 C 0.6589 0.19876 0.9592 0.0
O500 O 0.66235 0.14814 0.01424 0.0
O501 O 0.68394 0.1532 0.04357 0.0
C502 C 0.63895 0.13316 0.98104 0.0
C503 C 0.67586 0.14035 0.02909 0.0
Zn504 Zn 0.54385 0.69112 0.85171 0.0
Zn505 Zn 0.45651 0.66664 0.88675 0.0
Zn506 Zn 0.50401 0.6861 0.86821 0.0
C507 C 0.46139 0.70055 0.85513 0.0
C508 C 0.4853 0.69051 0.9199 0.0
O509 O 0.5183 0.65445 0.85619 0.0
O510 O 0.55275 0.66026 0.84461 0.0
C511 C 0.51618 0.72003 0.8272 0.0
O512 O 0.48098 0.70809 0.85199 0.0
O513 O 0.46009 0.67965 0.85606 0.0
O514 O 0.46627 0.68295 0.91455 0.0
O515 O 0.50106 0.6922 0.90521 0.0
O516 O 0.53555 0.71173 0.82726 0.0
O517 O 0.50161 0.71307 0.84152 0.0
O518 O 0.5215 0.70039 0.89563 0.0
O519 O 0.55436 0.70562 0.87969 0.0
C520 C 0.54145 0.70801 0.89616 0.0
O521 O 0.49605 0.64957 0.86304 0.0
O522 O 0.4689 0.6361 0.88485 0.0
C523 C 0.53676 0.64709 0.84813 0.0
C524 C 0.4844 0.63308 0.87081 0.0
Zn525 Zn 0.34174 0.46964 0.89478 0.0
Zn526 Zn 0.32692 0.55109 0.86055 0.0
Zn527 Zn 0.33122 0.51251 0.87537 0.0
C528 C 0.31858 0.55338 0.90611 0.0
C529 C 0.29346 0.52653 0.83924 0.0
O530 O 0.36613 0.50039 0.87076 0.0
O531 O 0.36866 0.4868 0.90448 0.0
C532 C 0.31933 0.4937 0.92498 0.0
O533 O 0.32167 0.5323 0.90403 0.0
O534 O 0.32083 0.5661 0.8895 0.0
O535 O 0.30131 0.546 0.84072 0.0
O536 O 0.30255 0.51064 0.85062 0.0
O537 O 0.31759 0.47419 0.91707 0.0
O538 O 0.32553 0.50997 0.91221 0.0
O539 O 0.30819 0.48921 0.86062 0.0
O540 O 0.33608 0.46673 0.86144 0.0
C541 C 0.31534 0.46917 0.85919 0.0
O542 O 0.36369 0.52263 0.86072 0.0
O543 O 0.35641 0.55598 0.84721 0.0
C544 C 0.37799 0.49138 0.88628 0.0
C545 C 0.37016 0.54048 0.8508 0.0
Zn546 Zn 0.50276 0.3374 0.84686 0.0
Zn547 Zn 0.56033 0.3497 0.88969 0.0
Zn548 Zn 0.52843 0.33845 0.87305 0.0
C549 C 0.5646 0.3044 0.87905 0.0
C550 C 0.52774 0.3496 0.92322 0.0
O551 O 0.50195 0.36201 0.88313 0.0
O552 O 0.49984 0.36976 0.84737 0.0
C553 C 0.5253 0.30321 0.83346 0.0
O554 O 0.5432 0.30582 0.87804 0.0
O555 O 0.57626 0.322 0.87989 0.0
O556 O 0.54863 0.34945 0.92054 0.0
O557 O 0.51507 0.34878 0.90593 0.0
O558 O 0.51841 0.31993 0.82266 0.0
O559 O 0.52771 0.30505 0.85473 0.0
O560 O 0.51554 0.30485 0.87701 0.0
O561 O 0.48333 0.32039 0.86982 0.0
C562 C 0.49421 0.30531 0.87981 0.0
O563 O 0.54246 0.36023 0.84781 0.0
O564 O 0.56161 0.37835 0.87309 0.0
C565 C 0.49557 0.37511 0.86729 0.0
C566 C 0.5534 0.37746 0.85377 0.0
Zn567 Zn 0.67055 0.55056 0.89232 0.0
Zn568 Zn 0.70166 0.4851 0.85418 0.0
Zn569 Zn 0.68953 0.51989 0.87515 0.0
C570 C 0.70756 0.47702 0.9 0.0
C571 C 0.73056 0.51934 0.84137 0.0
O572 O 0.65424 0.52505 0.86393 0.0
O573 O 0.63843 0.54262 0.89199 0.0
C574 C 0.69122 0.53199 0.92693 0.0
O575 O 0.70028 0.49712 0.90157 0.0
O576 O 0.70901 0.46779 0.88115 0.0
O577 O 0.72651 0.49894 0.83835 0.0
O578 O 0.71844 0.53106 0.85465 0.0
O579 O 0.68548 0.55152 0.92175 0.0
O580 O 0.69172 0.51656 0.91196 0.0
O581 O 0.70935 0.54992 0.86888 0.0
O582 O 0.68064 0.57222 0.86912 0.0
C583 C 0.70153 0.56987 0.8686 0.0
O584 O 0.66218 0.50426 0.85545 0.0
O585 O 0.67556 0.47546 0.83697 0.0
C586 C 0.63665 0.53311 0.87337 0.0
C587 C 0.65929 0.48769 0.8421 0.0
Zn588 Zn 0.4656 0.34984 0.12245 0.0
Zn589 Zn 0.52438 0.32929 0.17252 0.0
Zn590 Zn 0.49673 0.33419 0.14135 0.0
C591 C 0.53779 0.31249 0.12781 0.0
C592 C 0.49666 0.29749 0.18288 0.0
O593 O 0.48874 0.36886 0.15263 0.0
O594 O 0.46439 0.38169 0.12832 0.0
C595 C 0.49081 0.33511 0.08744 0.0
O596 O 0.52086 0.32243 0.11951 0.0
O597 O 0.54138 0.31252 0.14861 0.0
O598 O 0.50866 0.31049 0.19421 0.0
O599 O 0.49093 0.30312 0.16284 0.0
O600 O 0.47142 0.34204 0.09153 0.0
O601 O 0.50416 0.33095 0.10387 0.0
O602 O 0.46939 0.31178 0.15087 0.0
O603 O 0.44236 0.33274 0.13777 0.0
C604 C 0.44847 0.31535 0.14785 0.0
O605 O 0.5125 0.36491 0.1568 0.0
O606 O 0.53747 0.35746 0.18281 0.0
C607 C 0.47623 0.38473 0.14532 0.0
C608 C 0.52746 0.37148 0.17085 0.0
Zn609 Zn 0.69177 0.54271 0.16785 0.0
Zn610 Zn 0.66859 0.47555 0.1243 0.0
Zn611 Zn 0.68284 0.50849 0.14333 0.0
C612 C 0.70314 0.45929 0.14721 0.0
C613 C 0.68482 0.50154 0.09065 0.0
O614 O 0.65345 0.52092 0.16285 0.0
O615 O 0.66396 0.54957 0.18351 0.0
C616 C 0.72288 0.5103 0.17893 0.0
O617 O 0.70595 0.48051 0.14915 0.0
O618 O 0.68442 0.45189 0.14117 0.0
O619 O 0.68009 0.48137 0.0942 0.0
O620 O 0.6853 0.51546 0.10702 0.0
O621 O 0.71592 0.52919 0.18497 0.0
O622 O 0.71296 0.49949 0.16325 0.0
O623 O 0.69372 0.53374 0.11974 0.0
O624 O 0.70156 0.56171 0.1424 0.0
C625 C 0.70146 0.55348 0.12301 0.0
O626 O 0.64792 0.4997 0.15372 0.0
O627 O 0.63611 0.47696 0.12735 0.0
C628 C 0.64887 0.53651 0.17699 0.0
C629 C 0.63221 0.48807 0.14469 0.0
Zn630 Zn 0.53713 0.65967 0.11497 0.0
Zn631 Zn 0.49304 0.68695 0.1708 0.0
Zn632 Zn 0.51944 0.69022 0.13699 0.0
C633 C 0.47859 0.71727 0.13834 0.0
C634 C 0.52038 0.72182 0.17916 0.0
O635 O 0.53311 0.66324 0.15936 0.0
O636 O 0.54107 0.63544 0.13656 0.0
C637 C 0.51034 0.67767 0.08543 0.0
O638 O 0.4997 0.71963 0.13853 0.0
O639 O 0.47023 0.70165 0.14976 0.0
O640 O 0.51378 0.70478 0.18963 0.0
O641 O 0.51932 0.72172 0.1577 0.0
O642 O 0.51589 0.65783 0.08984 0.0
O643 O 0.51267 0.69261 0.10057 0.0
O644 O 0.55361 0.69782 0.1392 0.0
O645 O 0.56507 0.67821 0.11057 0.0
C646 C 0.56872 0.69303 0.12513 0.0
O647 O 0.50034 0.65819 0.14241 0.0
O648 O 0.48786 0.65552 0.1769 0.0
C649 C 0.5404 0.64329 0.15606 0.0
C650 C 0.49017 0.64712 0.15777 0.0
Zn651 Zn 0.33626 0.53936 0.12255 0.0
Zn652 Zn 0.33095 0.46369 0.1889 0.0
Zn653 Zn 0.33153 0.50597 0.14229 0.0
C654 C 0.31802 0.45475 0.14908 0.0
C655 C 0.29637 0.50241 0.18403 0.0
O656 O 0.36452 0.52162 0.14808 0.0
O657 O 0.36868 0.54018 0.1167 0.0
C658 C 0.3201 0.51218 0.09187 0.0
O659 O 0.32601 0.47412 0.15182 0.0
O660 O 0.32044 0.44118 0.16505 0.0
O661 O 0.30661 0.4868 0.19412 0.0
O662 O 0.3026 0.51013 0.16488 0.0
O663 O 0.31648 0.5323 0.09683 0.0
O664 O 0.32888 0.49929 0.10643 0.0
O665 O 0.30542 0.53012 0.15008 0.0
O666 O 0.32516 0.5605 0.14572 0.0
C667 C 0.30688 0.5515 0.15081 0.0
O668 O 0.36313 0.50017 0.15974 0.0
O669 O 0.36286 0.47475 0.18726 0.0
C670 C 0.3768 0.5331 0.1347 0.0
C671 C 0.37301 0.48891 0.17521 0.0
Zn672 Zn 0.88504 0.45951 0.6687 0.0
Zn673 Zn 0.84392 0.52011 0.68055 0.0
Zn674 Zn 0.86721 0.49131 0.67781 0.0
C675 C 0.88123 0.52192 0.71044 0.0
C676 C 0.82999 0.50039 0.71574 0.0
O677 O 0.84496 0.47169 0.65705 0.0
O678 O 0.87386 0.46063 0.63763 0.0
C679 C 0.91682 0.49338 0.67251 0.0
O680 O 0.87517 0.50125 0.71121 0.0
O681 O 0.87195 0.53441 0.69604 0.0
O682 O 0.81942 0.51003 0.70034 0.0
O683 O 0.85008 0.49381 0.71196 0.0
O684 O 0.91435 0.47302 0.67732 0.0
O685 O 0.89969 0.5048 0.66641 0.0
O686 O 0.8754 0.4761 0.70943 0.0
O687 O 0.86564 0.44564 0.69231 0.0
C688 C 0.87266 0.45488 0.70984 0.0
O689 O 0.87784 0.51784 0.655 0.0
O690 O 0.8425 0.51366 0.64819 0.0
C691 C 0.85309 0.46376 0.63906 0.0
C692 C 0.86101 0.52164 0.64235 0.0
Zn693 Zn 0.55129 0.89796 0.67047 0.0
Zn694 Zn 0.48241 0.87772 0.68746 0.0
Zn695 Zn 0.51906 0.88183 0.6812 0.0
C696 C 0.50031 0.89944 0.72307 0.0
C697 C 0.50239 0.84469 0.71347 0.0
O698 O 0.53088 0.86186 0.65201 0.0
O699 O 0.55597 0.88618 0.64065 0.0
C700 C 0.52331 0.93348 0.67585 0.0
O701 O 0.5156 0.88528 0.71764 0.0
O702 O 0.48458 0.90316 0.70948 0.0
O703 O 0.48528 0.84612 0.70115 0.0
O704 O 0.51729 0.86025 0.7119 0.0
O705 O 0.54393 0.92974 0.67413 0.0
O706 O 0.50983 0.91695 0.67657 0.0
O707 O 0.5392 0.8746 0.71137 0.0
O708 O 0.56991 0.88443 0.69375 0.0
C709 C 0.56062 0.87667 0.71095 0.0
O710 O 0.5047 0.86024 0.65503 0.0
O711 O 0.47437 0.88067 0.65524 0.0
C712 C 0.54564 0.8681 0.63773 0.0
C713 C 0.4865 0.86639 0.64556 0.0
Zn714 Zn 0.15514 0.4765 0.69424 0.0
Zn715 Zn 0.11844 0.54559 0.66779 0.0
Zn716 Zn 0.13687 0.51347 0.68398 0.0
C717 C 0.14097 0.55948 0.70687 0.0
C718 C 0.08192 0.52399 0.67925 0.0
O719 O 0.156 0.5 0.65489 0.0
O720 O 0.1684 0.46732 0.66638 0.0
C721 C 0.17284 0.50647 0.72409 0.0
O722 O 0.14523 0.53856 0.70881 0.0
O723 O 0.13163 0.56666 0.68944 0.0
O724 O 0.08634 0.5428 0.67112 0.0
O725 O 0.09817 0.51061 0.68426 0.0
O726 O 0.17555 0.48672 0.71745 0.0
O727 O 0.15829 0.51923 0.7146 0.0
O728 O 0.10943 0.49172 0.69147 0.0
O729 O 0.12739 0.46179 0.70339 0.0
C730 C 0.10938 0.47204 0.69988 0.0
O731 O 0.15296 0.52416 0.65183 0.0
O732 O 0.12926 0.5483 0.63752 0.0
C733 C 0.16635 0.48152 0.65107 0.0
C734 C 0.14758 0.53816 0.63642 0.0
Zn735 Zn 0.46639 0.12939 0.67904 0.0
Zn736 Zn 0.53627 0.16678 0.69226 0.0
Zn737 Zn 0.49925 0.14782 0.68572 0.0
C738 C 0.54307 0.1221 0.70071 0.0
C739 C 0.50701 0.18165 0.7258 0.0
O740 O 0.49128 0.15312 0.65047 0.0
O741 O 0.47159 0.12223 0.64758 0.0
C742 C 0.48692 0.09613 0.69447 0.0
O743 O 0.5221 0.12221 0.69652 0.0
O744 O 0.55444 0.13963 0.69798 0.0
O745 O 0.52701 0.18272 0.71939 0.0
O746 O 0.49268 0.17004 0.71478 0.0
O747 O 0.46708 0.1022 0.69798 0.0
O748 O 0.50169 0.11071 0.68866 0.0
O749 O 0.47204 0.15845 0.70873 0.0
O750 O 0.44434 0.15312 0.68568 0.0
C751 C 0.4509 0.15893 0.70477 0.0
O752 O 0.51103 0.16569 0.65452 0.0
O753 O 0.54128 0.18394 0.6647 0.0
C754 C 0.48149 0.13828 0.63844 0.0
C755 C 0.52746 0.17882 0.64972 0.0
Zn756 Zn 0.84896 0.48806 0.3265 0.0
Zn757 Zn 0.89657 0.55464 0.34171 0.0
Zn758 Zn 0.8771 0.52038 0.32908 0.0
C759 C 0.87251 0.56804 0.30516 0.0
C760 C 0.9302 0.52478 0.32931 0.0
O761 O 0.86039 0.50851 0.36068 0.0
O762 O 0.83403 0.48335 0.35529 0.0
C763 C 0.83841 0.51568 0.29151 0.0
O764 O 0.86761 0.54708 0.30463 0.0
O765 O 0.88431 0.57565 0.32073 0.0
O766 O 0.92721 0.54438 0.33634 0.0
O767 O 0.91326 0.51216 0.3253 0.0
O768 O 0.83153 0.49842 0.30131 0.0
O769 O 0.85505 0.52687 0.29939 0.0
O770 O 0.89916 0.49386 0.31892 0.0
O771 O 0.87369 0.46717 0.3186 0.0
C772 C 0.89362 0.47342 0.31561 0.0
O773 O 0.86979 0.52943 0.36446 0.0
O774 O 0.88838 0.56024 0.37233 0.0
C775 C 0.84525 0.49524 0.36845 0.0
C776 C 0.87525 0.54499 0.37821 0.0
Zn777 Zn 0.46628 0.88095 0.33586 0.0
Zn778 Zn 0.55789 0.82402 0.32783 0.0
Zn779 Zn 0.50819 0.87618 0.33118 0.0
C780 C 0.5603 0.86881 0.31536 0.0
C781 C 0.51729 0.83567 0.29954 0.0
O782 O 0.49332 0.86952 0.36561 0.0
O783 O 0.45643 0.8699 0.36452 0.0
C784 C 0.49145 0.92406 0.334 0.0
O785 O 0.54171 0.86674 0.32535 0.0
O786 O 0.5738 0.85241 0.31604 0.0
O787 O 0.52382 0.82579 0.31732 0.0
O788 O 0.50905 0.85542 0.30094 0.0
O789 O 0.47235 0.91496 0.33551 0.0
O790 O 0.50875 0.91179 0.33185 0.0
O791 O 0.48853 0.87241 0.30024 0.0
O792 O 0.45433 0.86446 0.30974 0.0
C793 C 0.46807 0.86928 0.29466 0.0
O794 O 0.51225 0.85665 0.36096 0.0
O795 O 0.52698 0.82961 0.34197 0.0
C796 C 0.47419 0.86781 0.37546 0.0
C797 C 0.52314 0.83833 0.36085 0.0
Zn798 Zn 0.13063 0.4675 0.34131 0.0
Zn799 Zn 0.1651 0.5383 0.33359 0.0
Zn800 Zn 0.14644 0.50261 0.33783 0.0
C801 C 0.12108 0.54818 0.32884 0.0
C802 C 0.17745 0.51648 0.2958 0.0
O803 O 0.15551 0.49024 0.37216 0.0
O804 O 0.12972 0.46434 0.37337 0.0
C805 C 0.09455 0.49042 0.33121 0.0
O806 O 0.12034 0.52677 0.33008 0.0
O807 O 0.13887 0.55824 0.33388 0.0
O808 O 0.17801 0.53582 0.30393 0.0
O809 O 0.16765 0.50068 0.3067 0.0
O810 O 0.10071 0.4706 0.32803 0.0
O811 O 0.10913 0.50549 0.33619 0.0
O812 O 0.15705 0.4797 0.31053 0.0
O813 O 0.15127 0.4471 0.32603 0.0
C814 C 0.15736 0.4582 0.30928 0.0
O815 O 0.16504 0.51204 0.36911 0.0
O816 O 0.18623 0.54006 0.35825 0.0
C817 C 0.14499 0.47496 0.38307 0.0
C818 C 0.18011 0.52686 0.37336 0.0
Zn819 Zn 0.54817 0.11682 0.34021 0.0
Zn820 Zn 0.49135 0.17359 0.32471 0.0
Zn821 Zn 0.52064 0.1432 0.3303 0.0
C822 C 0.47343 0.13102 0.31257 0.0
C823 C 0.52169 0.18273 0.29216 0.0
O824 O 0.53082 0.14877 0.36638 0.0
O825 O 0.54862 0.11738 0.37256 0.0
C826 C 0.51829 0.08857 0.32519 0.0
O827 O 0.49289 0.12414 0.31826 0.0
O828 O 0.46827 0.15138 0.31456 0.0
O829 O 0.50478 0.19131 0.30116 0.0
O830 O 0.53044 0.16479 0.30042 0.0
O831 O 0.53908 0.0879 0.32794 0.0
O832 O 0.50809 0.10755 0.32603 0.0
O833 O 0.54922 0.15133 0.30843 0.0
O834 O 0.57402 0.1317 0.32702 0.0
C835 C 0.56958 0.14537 0.31174 0.0
O836 O 0.50971 0.16004 0.36159 0.0
O837 O 0.48707 0.18792 0.35365 0.0
C838 C 0.54151 0.13574 0.37981 0.0
C839 C 0.49681 0.17607 0.36794 0.0
Zn840 Zn 0.66756 0.88739 0.46126 0.0
Zn841 Zn 0.68588 0.84718 0.53598 0.0
Zn842 Zn 0.67999 0.86889 0.49741 0.0
C843 C 0.69744 0.89294 0.54116 0.0
C844 C 0.71706 0.83066 0.5049 0.0
O845 O 0.64529 0.85922 0.48654 0.0
O846 O 0.63571 0.8824 0.45954 0.0
C847 C 0.68144 0.92224 0.48795 0.0
O848 O 0.69043 0.8941 0.52095 0.0
O849 O 0.69659 0.87471 0.55175 0.0
O850 O 0.70891 0.82686 0.52393 0.0
O851 O 0.70904 0.84625 0.49248 0.0
O852 O 0.67564 0.91883 0.46804 0.0
O853 O 0.68334 0.90578 0.50168 0.0
O854 O 0.70546 0.86033 0.47304 0.0
O855 O 0.68674 0.86712 0.44257 0.0
C856 C 0.70514 0.86281 0.45179 0.0
O857 O 0.64912 0.85138 0.50823 0.0
O858 O 0.65556 0.83514 0.54068 0.0
C859 C 0.63075 0.8667 0.47252 0.0
C860 C 0.64237 0.83965 0.52495 0.0
Zn861 Zn 0.68989 0.15305 0.48134 0.0
Zn862 Zn 0.67816 0.1195 0.55238 0.0
Zn863 Zn 0.68713 0.13904 0.51894 0.0
C864 C 0.71432 0.14636 0.56321 0.0
C865 C 0.68844 0.08442 0.52814 0.0
O866 O 0.65381 0.15436 0.50848 0.0
O867 O 0.66044 0.16239 0.47324 0.0
C868 C 0.72111 0.17764 0.50534 0.0
O869 O 0.71342 0.15115 0.54227 0.0
O870 O 0.69965 0.13399 0.5717 0.0
O871 O 0.68305 0.08776 0.54811 0.0
O872 O 0.69061 0.1013 0.51485 0.0
O873 O 0.71063 0.17703 0.48718 0.0
O874 O 0.71587 0.16367 0.5209 0.0
O875 O 0.69904 0.11202 0.49609 0.0
O876 O 0.70269 0.12902 0.46372 0.0
C877 C 0.70539 0.11188 0.47551 0.0
O878 O 0.65278 0.15053 0.53198 0.0
O879 O 0.64841 0.12746 0.56014 0.0
C880 C 0.64706 0.16176 0.48937 0.0
C881 C 0.64146 0.14388 0.54916 0.0
Zn882 Zn 0.89547 0.68434 0.54389 0.0
Zn883 Zn 0.85677 0.68094 0.48169 0.0
Zn884 Zn 0.87798 0.68583 0.51225 0.0
C885 C 0.88905 0.71553 0.47691 0.0
C886 C 0.83761 0.717 0.4988 0.0
O887 O 0.85626 0.66638 0.53278 0.0
O888 O 0.8869 0.6528 0.54718 0.0
C889 C 0.92846 0.68481 0.51244 0.0
O890 O 0.88257 0.71808 0.49729 0.0
O891 O 0.88254 0.69829 0.46646 0.0
O892 O 0.82992 0.69964 0.48961 0.0
O893 O 0.85786 0.71693 0.50586 0.0
O894 O 0.92491 0.69305 0.53145 0.0
O895 O 0.91215 0.67568 0.50192 0.0
O896 O 0.88063 0.72007 0.52382 0.0
O897 O 0.87709 0.70795 0.55821 0.0
C898 C 0.87792 0.7241 0.54475 0.0
O899 O 0.89469 0.66045 0.49253 0.0
O900 O 0.86034 0.6484 0.48889 0.0
C901 C 0.86609 0.65151 0.54429 0.0
C902 C 0.88102 0.6443 0.4892 0.0
Zn903 Zn 0.34324 0.84927 0.48856 0.0
Zn904 Zn 0.34036 0.8788 0.55963 0.0
Zn905 Zn 0.34094 0.86911 0.52195 0.0
C906 C 0.29719 0.87433 0.55 0.0
C907 C 0.35078 0.91854 0.53421 0.0
O908 O 0.36417 0.88791 0.50246 0.0
O909 O 0.37636 0.85469 0.49289 0.0
C910 C 0.30806 0.83031 0.5087 0.0
O911 O 0.3061 0.87361 0.5305 0.0
O912 O 0.30907 0.86976 0.56674 0.0
O913 O 0.34563 0.9119 0.5536 0.0
O914 O 0.35248 0.90403 0.51851 0.0
O915 O 0.32534 0.82196 0.49982 0.0
O916 O 0.30891 0.85077 0.51518 0.0
O917 O 0.30883 0.87406 0.50598 0.0
O918 O 0.32444 0.87434 0.47292 0.0
C919 C 0.30857 0.88053 0.48546 0.0
O920 O 0.36183 0.84275 0.53512 0.0
O921 O 0.3651 0.85853 0.56796 0.0
C922 C 0.38002 0.87533 0.49561 0.0
C923 C 0.37074 0.84341 0.55441 0.0
Zn924 Zn 0.16506 0.32511 0.48235 0.0
Zn925 Zn 0.1214 0.33417 0.54674 0.0
Zn926 Zn 0.14416 0.32688 0.5164 0.0
C927 C 0.14936 0.30384 0.56358 0.0
C928 C 0.09001 0.31982 0.52038 0.0
O929 O 0.16152 0.35982 0.50708 0.0
O930 O 0.18364 0.35116 0.47915 0.0
C931 C 0.17924 0.28793 0.50682 0.0
O932 O 0.15259 0.30133 0.54246 0.0
O933 O 0.13982 0.32125 0.57034 0.0
O934 O 0.09209 0.31997 0.54125 0.0
O935 O 0.10735 0.32326 0.50806 0.0
O936 O 0.18067 0.29741 0.48815 0.0
O937 O 0.16675 0.29674 0.52203 0.0
O938 O 0.12138 0.31744 0.48981 0.0
O939 O 0.14173 0.32195 0.45962 0.0
C940 C 0.12366 0.31609 0.46857 0.0
O941 O 0.15161 0.36116 0.52921 0.0
O942 O 0.12095 0.36649 0.54861 0.0
C943 C 0.17588 0.36575 0.49206 0.0
C944 C 0.13942 0.37374 0.54173 0.0
Zn945 Zn 0.34317 0.11381 0.46381 0.0
Zn946 Zn 0.34213 0.16086 0.5199 0.0
Zn947 Zn 0.33716 0.13522 0.49386 0.0
C948 C 0.30814 0.13005 0.53053 0.0
C949 C 0.30597 0.17842 0.50314 0.0
O950 O 0.35885 0.15672 0.47529 0.0
O951 O 0.37412 0.12638 0.46183 0.0
C952 C 0.34362 0.08357 0.49804 0.0
O953 O 0.30508 0.13384 0.50958 0.0
O954 O 0.32531 0.13832 0.53966 0.0
O955 O 0.32431 0.18714 0.50895 0.0
O956 O 0.30573 0.15731 0.4987 0.0
O957 O 0.33794 0.08402 0.47781 0.0
O958 O 0.34808 0.10211 0.50798 0.0
O959 O 0.30295 0.13427 0.48252 0.0
O960 O 0.31741 0.12891 0.4491 0.0
C961 C 0.30076 0.13357 0.4612 0.0
O962 O 0.3619 0.1222 0.51712 0.0
O963 O 0.37472 0.15667 0.5173 0.0
C964 C 0.37529 0.14701 0.46594 0.0
C965 C 0.37797 0.13605 0.52048 0.0
Zn966 Zn 0.89225 0.35143 0.45743 0.0
Zn967 Zn 0.85724 0.33134 0.53127 0.0
Zn968 Zn 0.87347 0.33649 0.49253 0.0
C969 C 0.90134 0.32401 0.53648 0.0
C970 C 0.83971 0.29718 0.50391 0.0
O971 O 0.8634 0.37152 0.48489 0.0
O972 O 0.88535 0.38356 0.45784 0.0
C973 C 0.92736 0.33595 0.48181 0.0
O974 O 0.89984 0.32702 0.51531 0.0
O975 O 0.88463 0.32724 0.54885 0.0
O976 O 0.84109 0.30432 0.52361 0.0
O977 O 0.8507 0.30689 0.48813 0.0
O978 O 0.92374 0.34262 0.46223 0.0
O979 O 0.91091 0.33364 0.49553 0.0
O980 O 0.86367 0.31225 0.46696 0.0
O981 O 0.87476 0.33158 0.43763 0.0
C982 C 0.86613 0.31412 0.44571 0.0
O983 O 0.85382 0.36591 0.50503 0.0
O984 O 0.83806 0.357 0.53707 0.0
C985 C 0.87026 0.38727 0.47195 0.0
C986 C 0.84094 0.37084 0.52157 0.0
Zn987 Zn 0.12516 0.65357 0.48977 0.0
Zn988 Zn 0.18013 0.69086 0.51682 0.0
Zn989 Zn 0.14594 0.6864 0.49739 0.0
C990 C 0.14437 0.71703 0.53259 0.0
C991 C 0.1831 0.72526 0.491 0.0
O992 O 0.16694 0.66203 0.4779 0.0
O993 O 0.14978 0.63165 0.48999 0.0
C994 C 0.09455 0.67615 0.50659 0.0
O995 O 0.144 0.71864 0.5114 0.0
O996 O 0.15786 0.70326 0.54109 0.0
O997 O 0.19694 0.7102 0.49565 0.0
O998 O 0.16219 0.72113 0.494 0.0
O999 O 0.10051 0.65673 0.51237 0.0
O1000 O 0.10904 0.68923 0.49788 0.0
O1001 O 0.15286 0.68245 0.46334 0.0
O1002 O 0.11956 0.66827 0.45914 0.0
C1003 C 0.13573 0.67931 0.45116 0.0
O1004 O 0.15443 0.66073 0.52297 0.0
O1005 O 0.19115 0.66115 0.52233 0.0
C1006 C 0.16612 0.64059 0.48003 0.0
C1007 C 0.17324 0.65216 0.52871 0.0
C1008 C 0.00399 0.19234 0.56175 0.0
C1009 C 0.02523 0.19562 0.57091 0.0
C1010 C 0.00055 0.19314 0.53856 0.0
C1011 C 0.01899 0.19614 0.52403 0.0
C1012 C 0.0405 0.19928 0.53322 0.0
C1013 C 0.04325 0.19944 0.55645 0.0
C1014 C 0.9772 0.19035 0.5296 0.0
C1015 C 0.0608 0.20243 0.51872 0.0
C1016 C 0.01189 0.17346 0.46513 0.0
C1017 C 0.00584 0.19267 0.45333 0.0
C1018 C 0.0168 0.17444 0.48802 0.0
C1019 C 0.01575 0.19518 0.49932 0.0
C1020 C 0.01062 0.21474 0.4871 0.0
C1021 C 0.00546 0.21323 0.46429 0.0
C1022 C 0.02224 0.15316 0.5003 0.0
C1023 C 0.01032 0.23722 0.49815 0.0
H1024 H 0.99011 0.18852 0.5726 0.0
H1025 H 0.0598 0.20199 0.56326 0.0
H1026 H 0.97297 0.20453 0.51847 0.0
H1027 H 0.97619 0.17487 0.51952 0.0
H1028 H 0.96453 0.18949 0.54309 0.0
H1029 H 0.07652 0.19941 0.52804 0.0
H1030 H 0.06043 0.19105 0.50416 0.0
H1031 H 0.0611 0.21986 0.51258 0.0
H1032 H 0.01167 0.15748 0.45667 0.0
H1033 H 0.00052 0.22802 0.45513 0.0
H1034 H 0.00924 0.14983 0.51304 0.0
H1035 H 0.03837 0.15494 0.50918 0.0
H1036 H 0.02326 0.13855 0.48897 0.0
H1037 H 1e-05 0.23667 0.51347 0.0
H1038 H 0.00378 0.2504 0.48691 0.0
H1039 H 0.02752 0.24176 0.5032 0.0
C1040 C 0.85499 0.00761 0.55211 0.0
C1041 C 0.83748 0.01216 0.56683 0.0
C1042 C 0.85095 0.00349 0.52948 0.0
C1043 C 0.82883 0.00426 0.52125 0.0
C1044 C 0.81097 0.00835 0.53619 0.0
C1045 C 0.81555 0.01243 0.55885 0.0
C1046 C 0.87047 0.99883 0.51426 0.0
C1047 C 0.7872 0.00951 0.52811 0.0
C1048 C 0.82676 0.01444 0.45867 0.0
C1049 C 0.82533 0.99257 0.45048 0.0
C1050 C 0.82635 0.01872 0.48174 0.0
C1051 C 0.82475 0.00068 0.49697 0.0
C1052 C 0.82193 0.97877 0.48875 0.0
C1053 C 0.82234 0.97499 0.46571 0.0
C1054 C 0.8288 0.04243 0.48976 0.0
C1055 C 0.81979 0.95907 0.5043 0.0
H1056 H 0.87199 0.00779 0.55829 0.0
H1057 H 0.80212 0.017 0.57002 0.0
H1058 H 0.86798 0.9827 0.50554 0.0
H1059 H 0.8716 0.01202 0.50133 0.0
H1060 H 0.88656 0.99817 0.52341 0.0
H1061 H 0.77508 0.0092 0.54209 0.0
H1062 H 0.78483 0.02524 0.51874 0.0
H1063 H 0.78344 0.99556 0.51658 0.0
H1064 H 0.82891 0.02817 0.44714 0.0
H1065 H 0.82107 0.95801 0.45972 0.0
H1066 H 0.84603 0.04502 0.49597 0.0
H1067 H 0.81723 0.04583 0.50378 0.0
H1068 H 0.82553 0.05469 0.47625 0.0
H1069 H 0.83642 0.95505 0.51133 0.0
H1070 H 0.81334 0.94403 0.49561 0.0
H1071 H 0.80856 0.963 0.51845 0.0
C1072 C 0.99955 0.84848 0.55469 0.0
C1073 C 0.01682 0.84104 0.56859 0.0
C1074 C 0.9998 0.84428 0.53158 0.0
C1075 C 0.01798 0.83263 0.52197 0.0
C1076 C 0.03523 0.82466 0.53608 0.0
C1077 C 0.03439 0.82882 0.55924 0.0
C1078 C 0.98112 0.85326 0.51733 0.0
C1079 C 0.05512 0.81266 0.52647 0.0
C1080 C 0.015 0.81242 0.46117 0.0
C1081 C 0.02758 0.82888 0.45024 0.0
C1082 C 0.01167 0.81326 0.48453 0.0
C1083 C 0.0205 0.83136 0.49707 0.0
C1084 C 0.03244 0.84835 0.48582 0.0
C1085 C 0.03608 0.84672 0.46277 0.0
C1086 C 0.99916 0.79459 0.49585 0.0
C1087 C 0.04159 0.86832 0.49818 0.0
H1088 H 0.98588 0.85786 0.56192 0.0
H1089 H 0.04787 0.82325 0.5699 0.0
H1090 H 0.98763 0.86659 0.50627 0.0
H1091 H 0.97434 0.83991 0.50647 0.0
H1092 H 0.96728 0.86025 0.52748 0.0
H1093 H 0.06641 0.80632 0.53961 0.0
H1094 H 0.04953 0.79852 0.51593 0.0
H1095 H 0.06474 0.82414 0.51562 0.0
H1096 H 0.0084 0.79859 0.45161 0.0
H1097 H 0.04552 0.85969 0.45442 0.0
H1098 H 0.98432 0.80132 0.50461 0.0
H1099 H 0.00994 0.78666 0.50862 0.0
H1100 H 0.9936 0.78159 0.48389 0.0
H1101 H 0.02794 0.87698 0.50718 0.0
H1102 H 0.04982 0.88048 0.48688 0.0
H1103 H 0.05391 0.86283 0.51082 0.0
C1104 C 0.19635 0.01618 0.56908 0.0
C1105 C 0.17547 0.01361 0.57937 0.0
C1106 C 0.19858 0.01764 0.54579 0.0
C1107 C 0.1793 0.01802 0.53221 0.0
C1108 C 0.15799 0.01723 0.54262 0.0
C1109 C 0.15632 0.01446 0.56602 0.0
C1110 C 0.22166 0.01771 0.53569 0.0
C1111 C 0.13697 0.01885 0.52896 0.0
C1112 C 0.18564 0.0433 0.47409 0.0
C1113 C 0.18439 0.02457 0.45998 0.0
C1114 C 0.18406 0.04137 0.49739 0.0
C1115 C 0.18155 0.02007 0.50727 0.0
C1116 C 0.18152 0.00092 0.49327 0.0
C1117 C 0.18255 0.00341 0.46983 0.0
C1118 C 0.18421 0.06237 0.51131 0.0
C1119 C 0.18015 0.97779 0.50306 0.0
H1120 H 0.21119 0.01621 0.57923 0.0
H1121 H 0.14013 0.01232 0.57376 0.0
H1122 H 0.22426 0.00195 0.52634 0.0
H1123 H 0.22349 0.03151 0.52354 0.0
H1124 H 0.23495 0.01921 0.5485 0.0
H1125 H 0.12176 0.01937 0.53953 0.0
H1126 H 0.13745 0.03409 0.51846 0.0
H1127 H 0.13578 0.00433 0.51757 0.0
H1128 H 0.18718 0.05981 0.46687 0.0
H1129 H 0.18121 0.98885 0.45926 0.0
H1130 H 0.19528 0.06055 0.52597 0.0
H1131 H 0.16712 0.06553 0.51767 0.0
H1132 H 0.18971 0.07717 0.50162 0.0
H1133 H 0.19364 0.9754 0.51549 0.0
H1134 H 0.1816 0.9646 0.49014 0.0
H1135 H 0.16405 0.97568 0.51192 0.0
C1136 C 0.54708 0.0431 0.2043 0.0
C1137 C 0.56218 0.02662 0.19727 0.0
C1138 C 0.52395 0.03999 0.20258 0.0
C1139 C 0.51553 0.01957 0.1943 0.0
C1140 C 0.53065 0.00259 0.18771 0.0
C1141 C 0.55379 0.0066 0.18869 0.0
C1142 C 0.50852 0.05876 0.2092 0.0
C1143 C 0.5224 0.98039 0.17921 0.0
C1144 C 0.45587 0.00558 0.2107 0.0
C1145 C 0.44426 0.00948 0.19089 0.0
C1146 C 0.4791 0.00827 0.21184 0.0
C1147 C 0.4909 0.01603 0.19293 0.0
C1148 C 0.47902 0.02107 0.17312 0.0
C1149 C 0.4558 0.01752 0.17227 0.0
C1150 C 0.49113 0.00205 0.23301 0.0
C1151 C 0.49085 0.0299 0.15275 0.0
H1152 H 0.55338 0.05885 0.21056 0.0
H1153 H 0.56529 0.9945 0.18183 0.0
H1154 H 0.49781 0.06345 0.19487 0.0
H1155 H 0.49732 0.05319 0.2228 0.0
H1156 H 0.51771 0.07381 0.21488 0.0
H1157 H 0.53621 0.9683 0.17667 0.0
H1158 H 0.51025 0.9731 0.19112 0.0
H1159 H 0.5136 0.98274 0.16314 0.0
H1160 H 0.44676 0.99995 0.22521 0.0
H1161 H 0.44678 0.02034 0.15687 0.0
H1162 H 0.50087 0.01648 0.23924 0.0
H1163 H 0.50317 0.98843 0.22958 0.0
H1164 H 0.4795 0.99641 0.24627 0.0
H1165 H 0.49922 0.0459 0.15682 0.0
H1166 H 0.47927 0.03269 0.13858 0.0
H1167 H 0.50401 0.01805 0.1474 0.0
C1168 C 0.0137 0.55885 0.20105 0.0
C1169 C 0.99191 0.56731 0.20113 0.0
C1170 C 0.01771 0.53569 0.20162 0.0
C1171 C 0.99946 0.52063 0.20122 0.0
C1172 C 0.97748 0.52908 0.2024 0.0
C1173 C 0.97401 0.55221 0.20273 0.0
C1174 C 0.04145 0.52738 0.20135 0.0
C1175 C 0.95747 0.51377 0.20153 0.0
C1176 C 0.00663 0.46667 0.16899 0.0
C1177 C 0.00821 0.45062 0.18599 0.0
C1178 C 0.00414 0.4894 0.17381 0.0
C1179 C 0.00307 0.49648 0.19625 0.0
C1180 C 0.00441 0.48042 0.21352 0.0
C1181 C 0.00707 0.45765 0.20823 0.0
C1182 C 0.00249 0.50583 0.15477 0.0
C1183 C 0.00319 0.48735 0.23756 0.0
H1184 H 0.02762 0.57016 0.19963 0.0
H1185 H 0.95703 0.55841 0.2029 0.0
H1186 H 0.04358 0.51339 0.21326 0.0
H1187 H 0.04557 0.52102 0.18449 0.0
H1188 H 0.05351 0.54078 0.20566 0.0
H1189 H 0.94162 0.52274 0.20495 0.0
H1190 H 0.95634 0.50612 0.18473 0.0
H1191 H 0.9592 0.49999 0.21373 0.0
H1192 H 0.00751 0.46154 0.1517 0.0
H1193 H 0.0083 0.4454 0.22147 0.0
H1194 H 0.01613 0.51827 0.15595 0.0
H1195 H 0.98648 0.51505 0.15578 0.0
H1196 H 0.00351 0.49758 0.13823 0.0
H1197 H 0.01686 0.49926 0.24122 0.0
H1198 H 0.00447 0.4728 0.24891 0.0
H1199 H 0.98727 0.49612 0.24094 0.0
C1200 C 0.56445 0.00959 0.83172 0.0
C1201 C 0.57376 0.9904 0.82218 0.0
C1202 C 0.54131 0.01325 0.83121 0.0
C1203 C 0.52717 0.99734 0.82088 0.0
C1204 C 0.53684 0.97887 0.80968 0.0
C1205 C 0.55993 0.97548 0.8108 0.0
C1206 C 0.53195 0.03383 0.8423 0.0
C1207 C 0.52328 0.96204 0.79696 0.0
C1208 C 0.46821 0.99532 0.84453 0.0
C1209 C 0.45621 0.00713 0.82841 0.0
C1210 C 0.49118 0.99131 0.84188 0.0
C1211 C 0.50244 0.99967 0.82284 0.0
C1212 C 0.49023 0.01141 0.80644 0.0
C1213 C 0.46723 0.01487 0.80934 0.0
C1214 C 0.50355 0.97865 0.85975 0.0
C1215 C 0.50167 0.02112 0.78633 0.0
H1216 H 0.57511 0.02125 0.84049 0.0
H1217 H 0.56711 0.96083 0.80301 0.0
H1218 H 0.52035 0.0426 0.83088 0.0
H1219 H 0.5223 0.02894 0.8573 0.0
H1220 H 0.54525 0.04566 0.84744 0.0
H1221 H 0.53172 0.95768 0.78106 0.0
H1222 H 0.52203 0.94647 0.80688 0.0
H1223 H 0.5064 0.9682 0.79311 0.0
H1224 H 0.45983 0.99005 0.85965 0.0
H1225 H 0.45804 0.02467 0.79724 0.0
H1226 H 0.51524 0.99004 0.86844 0.0
H1227 H 0.51362 0.96509 0.85217 0.0
H1228 H 0.49207 0.97127 0.87228 0.0
H1229 H 0.51681 0.03046 0.79139 0.0
H1230 H 0.49062 0.03259 0.77693 0.0
H1231 H 0.50712 0.00736 0.77523 0.0
C1232 C 0.02982 0.55775 0.80439 0.0
C1233 C 0.03165 0.57044 0.8239 0.0
C1234 C 0.02583 0.53454 0.80544 0.0
C1235 C 0.02362 0.52392 0.82648 0.0
C1236 C 0.02593 0.53677 0.84616 0.0
C1237 C 0.03003 0.55978 0.8446 0.0
C1238 C 0.02398 0.52136 0.78411 0.0
C1239 C 0.02371 0.5263 0.86894 0.0
C1240 C 0.98831 0.47183 0.83407 0.0
C1241 C 0.0044 0.45504 0.83724 0.0
C1242 C 0.99438 0.49399 0.82955 0.0
C1243 C 0.01721 0.49981 0.82822 0.0
C1244 C 0.0336 0.48287 0.83055 0.0
C1245 C 0.02701 0.46067 0.83499 0.0
C1246 C 0.97629 0.51134 0.82691 0.0
C1247 C 0.05811 0.48832 0.82897 0.0
H1248 H 0.03185 0.56589 0.7884 0.0
H1249 H 0.0318 0.56959 0.85969 0.0
H1250 H 0.03622 0.5075 0.78416 0.0
H1251 H 0.00717 0.51373 0.78287 0.0
H1252 H 0.02698 0.53182 0.76914 0.0
H1253 H 0.02703 0.53837 0.88258 0.0
H1254 H 0.0066 0.51956 0.87107 0.0
H1255 H 0.03547 0.51211 0.8706 0.0
H1256 H 0.97075 0.46775 0.83536 0.0
H1257 H 0.03957 0.44782 0.83697 0.0
H1258 H 0.97869 0.52082 0.81121 0.0
H1259 H 0.97723 0.52348 0.84084 0.0
H1260 H 0.95933 0.50388 0.82676 0.0
H1261 H 0.06161 0.49761 0.81338 0.0
H1262 H 0.06869 0.47312 0.82937 0.0
H1263 H 0.06296 0.49927 0.84305 0.0
C1264 C 0.19065 0.56205 0.02458 0.0
C1265 C 0.17192 0.57425 0.01772 0.0
C1266 C 0.19194 0.53887 0.02131 0.0
C1267 C 0.1738 0.52749 0.01132 0.0
C1268 C 0.15494 0.53986 0.0041 0.0
C1269 C 0.15428 0.56315 0.00728 0.0
C1270 C 0.21268 0.5266 0.02864 0.0
C1271 C 0.13519 0.52838 0.99354 0.0
C1272 C 0.18312 0.4716 0.98303 0.0
C1273 C 0.17538 0.45631 0.99901 0.0
C1274 C 0.18323 0.49461 0.9871 0.0
C1275 C 0.17493 0.50283 0.00755 0.0
C1276 C 0.16747 0.4875 0.02404 0.0
C1277 C 0.16805 0.46433 0.01968 0.0
C1278 C 0.1921 0.51015 0.96935 0.0
C1279 C 0.15856 0.49561 0.0461 0.0
H1280 H 0.20415 0.57067 0.03298 0.0
H1281 H 0.13957 0.57254 0.00252 0.0
H1282 H 0.20825 0.51211 0.03925 0.0
H1283 H 0.22157 0.52003 0.01381 0.0
H1284 H 0.2243 0.53753 0.03806 0.0
H1285 H 0.12169 0.54027 0.98913 0.0
H1286 H 0.14051 0.5195 0.97822 0.0
H1287 H 0.12837 0.51569 0.00516 0.0
H1288 H 0.18927 0.46551 0.96716 0.0
H1289 H 0.16216 0.4526 0.03211 0.0
H1290 H 0.20564 0.52068 0.97629 0.0
H1291 H 0.17867 0.52152 0.96366 0.0
H1292 H 0.19872 0.50101 0.95467 0.0
H1293 H 0.17149 0.50554 0.05484 0.0
H1294 H 0.15331 0.48166 0.0571 0.0
H1295 H 0.14406 0.50676 0.04329 0.0
C1296 C 0.55853 0.20465 0.98096 0.0
C1297 C 0.57237 0.19745 0.99843 0.0
C1298 C 0.53531 0.20585 0.98352 0.0
C1299 C 0.52561 0.2005 0.00431 0.0
C1300 C 0.53953 0.19439 0.0224 0.0
C1301 C 0.56266 0.19235 0.01907 0.0
C1302 C 0.52112 0.21216 0.96374 0.0
C1303 C 0.52993 0.18904 0.04502 0.0
C1304 C 0.46523 0.21562 0.0171 0.0
C1305 C 0.45442 0.19535 0.01289 0.0
C1306 C 0.48833 0.21789 0.01362 0.0
C1307 C 0.50087 0.19917 0.0065 0.0
C1308 C 0.48982 0.17878 0.00185 0.0
C1309 C 0.46669 0.17718 0.005 0.0
C1310 C 0.49942 0.24002 0.01826 0.0
C1311 C 0.50257 0.15839 0.99438 0.0
H1312 H 0.56575 0.20851 0.96488 0.0
H1313 H 0.57302 0.18616 0.03249 0.0
H1314 H 0.50793 0.19949 0.96093 0.0
H1315 H 0.51272 0.22827 0.96709 0.0
H1316 H 0.53103 0.2138 0.9482 0.0
H1317 H 0.54309 0.18743 0.05795 0.0
H1318 H 0.51807 0.20223 0.0503 0.0
H1319 H 0.52052 0.17313 0.04414 0.0
H1320 H 0.4557 0.22948 0.02376 0.0
H1321 H 0.45833 0.16135 0.0024 0.0
H1322 H 0.50828 0.24593 0.00314 0.0
H1323 H 0.51209 0.23807 0.03159 0.0
H1324 H 0.48728 0.25302 0.02345 0.0
H1325 H 0.51191 0.16211 0.97885 0.0
H1326 H 0.49146 0.14388 0.99129 0.0
H1327 H 0.51496 0.15366 0.00727 0.0
C1328 C 0.80606 0.56276 0.99238 0.0
C1329 C 0.82272 0.57452 0.00383 0.0
C1330 C 0.80421 0.53951 0.99404 0.0
C1331 C 0.81938 0.52752 0.00751 0.0
C1332 C 0.83586 0.53937 0.01973 0.0
C1333 C 0.83723 0.56282 0.01789 0.0
C1334 C 0.7864 0.52772 0.98083 0.0
C1335 C 0.8525 0.52719 0.03412 0.0
C1336 C 0.80263 0.47009 0.02863 0.0
C1337 C 0.81421 0.4558 0.01423 0.0
C1338 C 0.80406 0.4933 0.02642 0.0
C1339 C 0.81737 0.50268 0.00937 0.0
C1340 C 0.82827 0.48832 0.99403 0.0
C1341 C 0.82642 0.46499 0.99654 0.0
C1342 C 0.79132 0.5078 0.04243 0.0
C1343 C 0.84263 0.49757 0.97556 0.0
H1344 H 0.79482 0.57176 0.98144 0.0
H1345 H 0.85037 0.57181 0.02645 0.0
H1346 H 0.79421 0.51607 0.96882 0.0
H1347 H 0.77585 0.51767 0.9922 0.0
H1348 H 0.77566 0.53945 0.97136 0.0
H1349 H 0.86462 0.5387 0.04211 0.0
H1350 H 0.84365 0.51774 0.04734 0.0
H1351 H 0.86183 0.5149 0.0239 0.0
H1352 H 0.79297 0.46308 0.04222 0.0
H1353 H 0.83555 0.45402 0.98545 0.0
H1354 H 0.77844 0.51706 0.03297 0.0
H1355 H 0.80256 0.52022 0.05027 0.0
H1356 H 0.78298 0.49803 0.05578 0.0
H1357 H 0.83267 0.50878 0.96477 0.0
H1358 H 0.84998 0.48421 0.96505 0.0
H1359 H 0.85634 0.50769 0.98277 0.0
C1360 C 0.55795 0.84739 0.00749 0.0
C1361 C 0.56889 0.83401 0.02323 0.0
C1362 C 0.53447 0.84701 0.0054 0.0
C1363 C 0.52137 0.83383 0.02014 0.0
C1364 C 0.53237 0.82059 0.03631 0.0
C1365 C 0.55585 0.82072 0.03752 0.0
C1366 C 0.52365 0.86055 0.98719 0.0
C1367 C 0.51932 0.8063 0.05243 0.0
C1368 C 0.45994 0.85199 0.02342 0.0
C1369 C 0.44985 0.83668 0.00897 0.0
C1370 C 0.48304 0.85052 0.02825 0.0
C1371 C 0.49629 0.83354 0.01821 0.0
C1372 C 0.4855 0.817 0.00524 0.0
C1373 C 0.46264 0.81892 0.00072 0.0
C1374 C 0.49342 0.86753 0.04356 0.0
C1375 C 0.49782 0.79783 0.99463 0.0
H1376 H 0.56779 0.85817 0.99681 0.0
H1377 H 0.5641 0.81061 0.05003 0.0
H1378 H 0.51313 0.84954 0.97666 0.0
H1379 H 0.51257 0.87337 0.99459 0.0
H1380 H 0.5361 0.86901 0.97639 0.0
H1381 H 0.53019 0.7983 0.06511 0.0
H1382 H 0.50657 0.81654 0.06109 0.0
H1383 H 0.51036 0.79299 0.04323 0.0
H1384 H 0.45014 0.8657 0.02995 0.0
H1385 H 0.45486 0.8068 0.98975 0.0
H1386 H 0.5043 0.87888 0.03381 0.0
H1387 H 0.50407 0.85912 0.05614 0.0
H1388 H 0.48066 0.87769 0.05233 0.0
H1389 H 0.50115 0.80208 0.97695 0.0
H1390 H 0.48737 0.78252 0.99472 0.0
H1391 H 0.51379 0.79396 0.00301 0.0
C1392 C 0.47099 0.69491 0.95897 0.0
C1393 C 0.48924 0.6949 0.94419 0.0
C1394 C 0.47385 0.69599 0.98216 0.0
C1395 C 0.49559 0.69612 0.99123 0.0
C1396 C 0.51418 0.69657 0.97656 0.0
C1397 C 0.51078 0.69612 0.95325 0.0
C1398 C 0.45351 0.69546 0.99702 0.0
C1399 C 0.53767 0.69613 0.98554 0.0
C1400 C 0.50339 0.70529 0.05412 0.0
C1401 C 0.50427 0.68321 0.06194 0.0
C1402 C 0.50053 0.70992 0.03117 0.0
C1403 C 0.49867 0.69207 0.01572 0.0
C1404 C 0.49894 0.66984 0.0237 0.0
C1405 C 0.50156 0.66575 0.04655 0.0
C1406 C 0.49992 0.73386 0.02343 0.0
C1407 C 0.4969 0.6502 0.00803 0.0
H1408 H 0.45425 0.69307 0.9525 0.0
H1409 H 0.52501 0.69528 0.94224 0.0
H1410 H 0.4524 0.67904 0.00547 0.0
H1411 H 0.45485 0.70836 0.01017 0.0
H1412 H 0.43782 0.69816 0.98758 0.0
H1413 H 0.55035 0.69643 0.97208 0.0
H1414 H 0.54042 0.71066 0.99664 0.0
H1415 H 0.54023 0.68085 0.99567 0.0
H1416 H 0.50549 0.71891 0.06579 0.0
H1417 H 0.50204 0.64861 0.0523 0.0
H1418 H 0.48494 0.73682 0.01299 0.0
H1419 H 0.51473 0.73736 0.01291 0.0
H1420 H 0.49978 0.74581 0.03758 0.0
H1421 H 0.4808 0.65096 0.99898 0.0
H1422 H 0.49786 0.63394 0.01685 0.0
H1423 H 0.51039 0.65082 0.99538 0.0
C1424 C 0.32591 0.51567 0.96019 0.0
C1425 C 0.31744 0.49664 0.94955 0.0
C1426 C 0.32541 0.51774 0.98355 0.0
C1427 C 0.31663 0.50011 0.99665 0.0
C1428 C 0.30838 0.48077 0.98604 0.0
C1429 C 0.30938 0.4791 0.96277 0.0
C1430 C 0.33484 0.5385 0.99418 0.0
C1431 C 0.29882 0.46163 0.99929 0.0
C1432 C 0.33456 0.49424 0.0573 0.0
C1433 C 0.3174 0.50555 0.06835 0.0
C1434 C 0.33462 0.49247 0.03392 0.0
C1435 C 0.31665 0.5015 0.02147 0.0
C1436 C 0.29868 0.51182 0.03276 0.0
C1437 C 0.29952 0.51415 0.05601 0.0
C1438 C 0.35444 0.48195 0.0225 0.0
C1439 C 0.27888 0.52097 0.02024 0.0
H1440 H 0.33353 0.52874 0.95033 0.0
H1441 H 0.30448 0.46364 0.95502 0.0
H1442 H 0.32241 0.54613 0.00555 0.0
H1443 H 0.34963 0.53404 0.00437 0.0
H1444 H 0.33987 0.55118 0.98163 0.0
H1445 H 0.29288 0.44778 0.98854 0.0
H1446 H 0.31166 0.45497 0.01077 0.0
H1447 H 0.28467 0.46761 0.00962 0.0
H1448 H 0.34866 0.48809 0.06679 0.0
H1449 H 0.28635 0.52311 0.06457 0.0
H1450 H 0.36253 0.49438 0.01142 0.0
H1451 H 0.34898 0.46786 0.01186 0.0
H1452 H 0.36702 0.4757 0.03456 0.0
H1453 H 0.28447 0.53411 0.00854 0.0
H1454 H 0.26611 0.52818 0.03154 0.0
H1455 H 0.27104 0.50756 0.01018 0.0
C1456 C 0.53354 0.35657 0.96364 0.0
C1457 C 0.51947 0.34866 0.94665 0.0
C1458 C 0.52922 0.35228 0.98621 0.0
C1459 C 0.51012 0.33987 0.99236 0.0
C1460 C 0.49539 0.33227 0.97538 0.0
C1461 C 0.50027 0.3367 0.9527 0.0
C1462 C 0.54526 0.36106 0.00354 0.0
C1463 C 0.47473 0.31915 0.98116 0.0
C1464 C 0.50982 0.31877 0.05301 0.0
C1465 C 0.49766 0.33574 0.06356 0.0
C1466 C 0.51327 0.31924 0.0296 0.0
C1467 C 0.50467 0.33723 0.01667 0.0
C1468 C 0.49256 0.35431 0.02746 0.0
C1469 C 0.48927 0.35333 0.05054 0.0
C1470 C 0.52605 0.30054 0.0187 0.0
C1471 C 0.48324 0.37394 0.01469 0.0
H1472 H 0.54847 0.36577 0.95921 0.0
H1473 H 0.48958 0.33006 0.93973 0.0
H1474 H 0.53656 0.37302 0.01465 0.0
H1475 H 0.5514 0.34716 0.01409 0.0
H1476 H 0.55985 0.36963 0.99599 0.0
H1477 H 0.46456 0.31516 0.96621 0.0
H1478 H 0.47953 0.30334 0.98947 0.0
H1479 H 0.46426 0.32866 0.99308 0.0
H1480 H 0.51603 0.30494 0.06285 0.0
H1481 H 0.47991 0.36658 0.05853 0.0
H1482 H 0.54174 0.30712 0.01142 0.0
H1483 H 0.51615 0.29335 0.00483 0.0
H1484 H 0.53025 0.28702 0.03064 0.0
H1485 H 0.49708 0.38377 0.00732 0.0
H1486 H 0.47314 0.3852 0.02538 0.0
H1487 H 0.47263 0.36802 0.00075 0.0
C1488 C 0.71061 0.5355 0.96339 0.0
C1489 C 0.69315 0.5267 0.95066 0.0
C1490 C 0.71078 0.53297 0.98667 0.0
C1491 C 0.69268 0.52212 0.99729 0.0
C1492 C 0.6748 0.51369 0.98438 0.0
C1493 C 0.67546 0.51575 0.96114 0.0
C1494 C 0.73038 0.54156 -0.00012 0.0
C1495 C 0.65476 0.50286 0.99513 0.0
C1496 C 0.69869 0.49287 0.05276 0.0
C1497 C 0.68928 0.50838 0.06748 0.0
C1498 C 0.70079 0.49757 0.03005 0.0
C1499 C 0.69298 0.51822 0.02174 0.0
C1500 C 0.68413 0.53432 0.03664 0.0
C1501 C 0.6825 0.52923 0.05946 0.0
C1502 C 0.71028 0.47982 0.01491 0.0
C1503 C 0.67531 0.55638 0.02835 0.0
H1504 H 0.72407 0.54432 0.95513 0.0
H1505 H 0.66168 0.50962 0.95117 0.0
H1506 H 0.72468 0.5522 0.01385 0.0
H1507 H 0.73944 0.52723 0.00731 0.0
H1508 H 0.74208 0.55141 0.98946 0.0
H1509 H 0.6413 0.4993 0.98291 0.0
H1510 H 0.65977 0.48694 0.00309 0.0
H1511 H 0.64795 0.51381 0.00839 0.0
H1512 H 0.70404 0.47673 0.05896 0.0
H1513 H 0.67511 0.54115 0.07085 0.0
H1514 H 0.71975 0.48727 0.00095 0.0
H1515 H 0.69641 0.4699 0.00774 0.0
H1516 H 0.7214 0.46822 0.02412 0.0
H1517 H 0.68843 0.56544 0.01899 0.0
H1518 H 0.66938 0.56721 0.04215 0.0
H1519 H 0.66127 0.55345 0.01666 0.0
C1520 C 0.95192 0.51113 0.6579 0.0
C1521 C 0.93944 0.50287 0.67579 0.0
C1522 C 0.97519 0.51437 0.65991 0.0
C1523 C 0.98617 0.50934 0.6803 0.0
C1524 C 0.97331 0.5021 0.69873 0.0
C1525 C 0.95023 0.4988 0.69618 0.0
C1526 C 0.98821 0.52219 0.63987 0.0
C1527 C 0.98398 0.49691 0.72093 0.0
C1528 C 0.04908 0.49747 0.67809 0.0
C1529 C 0.05797 0.51854 0.68286 0.0
C1530 C 0.02574 0.494 0.6778 0.0
C1531 C 0.01101 0.51202 0.68242 0.0
C1532 C 0.0201 0.53295 0.68847 0.0
C1533 C 0.04331 0.53594 0.68847 0.0
C1534 C 0.01683 0.47127 0.67174 0.0
C1535 C 0.00538 0.55262 0.69397 0.0
H1536 H 0.94376 0.51377 0.64201 0.0
H1537 H 0.94065 0.49212 0.71 0.0
H1538 H 0.99772 0.5375 0.64405 0.0
H1539 H 0.00049 0.50923 0.63501 0.0
H1540 H 0.97728 0.52578 0.62537 0.0
H1541 H 0.9714 0.49532 0.73445 0.0
H1542 H 0.99321 0.48093 0.71974 0.0
H1543 H 0.99617 0.51002 0.7256 0.0
H1544 H 0.06026 0.48409 0.6734 0.0
H1545 H 0.05005 0.55229 0.69231 0.0
H1546 H 0.00586 0.47258 0.65691 0.0
H1547 H 0.00657 0.46464 0.68562 0.0
H1548 H 0.03038 0.45917 0.66811 0.0
H1549 H 0.9991 0.5601 0.67828 0.0
H1550 H 0.01457 0.5657 0.70333 0.0
H1551 H 0.99072 0.5474 0.70391 0.0
C1552 C 0.53193 0.97353 0.68224 0.0
C1553 C 0.51584 0.95693 0.67835 0.0
C1554 C 0.52591 0.99584 0.68536 0.0
C1555 C 0.50322 0.00198 0.68403 0.0
C1556 C 0.48677 0.9854 0.68017 0.0
C1557 C 0.49327 0.96295 0.6776 0.0
C1558 C 0.54389 0.01281 0.69036 0.0
C1559 C 0.46238 0.99141 0.67894 0.0
C1560 C 0.48814 0.05769 0.71031 0.0
C1561 C 0.49157 0.07219 0.6924 0.0
C1562 C 0.49142 0.03462 0.7078 0.0
C1563 C 0.49708 0.02589 0.68659 0.0
C1564 C 0.49915 0.0405 0.66816 0.0
C1565 C 0.49694 0.06355 0.67142 0.0
C1566 C 0.48987 0.02001 0.72817 0.0
C1567 C 0.50374 0.03178 0.645 0.0
H1568 H 0.54942 0.96909 0.68322 0.0
H1569 H 0.48074 0.9502 0.67485 0.0
H1570 H 0.54475 0.02532 0.67677 0.0
H1571 H 0.53984 0.0219 0.70597 0.0
H1572 H 0.56062 0.00506 0.6922 0.0
H1573 H 0.45179 0.97684 0.6746 0.0
H1574 H 0.45678 0.99811 0.69524 0.0
H1575 H 0.45977 0.00471 0.66634 0.0
H1576 H 0.48336 0.06445 0.72636 0.0
H1577 H 0.49872 0.07483 0.6574 0.0
H1578 H 0.48538 0.00253 0.7242 0.0
H1579 H 0.4774 0.0267 0.7401 0.0
H1580 H 0.5064 0.01987 0.73646 0.0
H1581 H 0.52098 0.02515 0.64411 0.0
H1582 H 0.50184 0.04494 0.6321 0.0
H1583 H 0.49222 0.01784 0.64104 0.0
C1584 C 0.96981 0.53337 0.32167 0.0
C1585 C 0.95356 0.51728 0.32658 0.0
C1586 C 0.99258 0.5284 0.3225 0.0
C1587 C 0.99949 0.5065 0.32802 0.0
C1588 C 0.98314 0.48987 0.3323 0.0
C1589 C 0.9603 0.49548 0.33158 0.0
C1590 C 0.0088 0.54697 0.31723 0.0
C1591 C 0.98978 0.46643 0.33861 0.0
C1592 C 0.05826 0.48933 0.31138 0.0
C1593 C 0.0705 0.49523 0.33031 0.0
C1594 C 0.03512 0.49275 0.3105 0.0
C1595 C 0.02379 0.50123 0.32936 0.0
C1596 C 0.03608 0.50643 0.34887 0.0
C1597 C 0.05941 0.50382 0.34895 0.0
C1598 C 0.02302 0.48845 0.28898 0.0
C1599 C 0.02462 0.51511 0.36949 0.0
H1600 H 0.96471 0.55026 0.31764 0.0
H1601 H 0.94781 0.48312 0.33585 0.0
H1602 H 0.0257 0.54419 0.32413 0.0
H1603 H 0.01014 0.54856 0.29887 0.0
H1604 H 0.00253 0.56317 0.32367 0.0
H1605 H 0.97509 0.45539 0.34108 0.0
H1606 H 0.00052 0.45905 0.32551 0.0
H1607 H 0.99968 0.4668 0.35422 0.0
H1608 H 0.06695 0.48261 0.29701 0.0
H1609 H 0.06891 0.50791 0.36376 0.0
H1610 H 0.0151 0.50414 0.28315 0.0
H1611 H 0.00952 0.47608 0.29154 0.0
H1612 H 0.03442 0.48221 0.27578 0.0
H1613 H 0.01789 0.53203 0.36618 0.0
H1614 H 0.0361 0.51607 0.38398 0.0
H1615 H 0.01032 0.50418 0.3739 0.0
C1616 C 0.50595 0.0565 0.34758 0.0
C1617 C 0.50631 0.06714 0.32678 0.0
C1618 C 0.50116 0.03366 0.34948 0.0
C1619 C 0.49623 0.02115 0.33009 0.0
C1620 C 0.49494 0.03224 0.30924 0.0
C1621 C 0.50047 0.05505 0.30774 0.0
C1622 C 0.50348 0.02255 0.37194 0.0
C1623 C 0.48929 0.01967 0.28828 0.0
C1624 C 0.5133 0.95977 0.32952 0.0
C1625 C 0.49305 0.94893 0.33386 0.0
C1626 C 0.5146 0.98322 0.32846 0.0
C1627 C 0.49505 0.99624 0.33135 0.0
C1628 C 0.47462 0.98543 0.33608 0.0
C1629 C 0.47396 0.96203 0.33768 0.0
C1630 C 0.53695 0.99388 0.32381 0.0
C1631 C 0.4534 0.99858 0.33931 0.0
H1632 H 0.51108 0.06576 0.36224 0.0
H1633 H 0.50153 0.063 0.29157 0.0
H1634 H 0.48894 0.01166 0.37539 0.0
H1635 H 0.51857 0.01181 0.3719 0.0
H1636 H 0.50509 0.03487 0.38567 0.0
H1637 H 0.48486 0.03116 0.27447 0.0
H1638 H 0.50391 0.00956 0.28314 0.0
H1639 H 0.47515 0.00807 0.29114 0.0
H1640 H 0.52818 0.9499 0.32695 0.0
H1641 H 0.45833 0.95398 0.3418 0.0
H1642 H 0.53858 0.01059 0.33156 0.0
H1643 H 0.53899 0.99585 0.30554 0.0
H1644 H 0.55079 0.98335 0.3301 0.0
H1645 H 0.4552 0.01004 0.35371 0.0
H1646 H 0.43872 0.98765 0.34225 0.0
H1647 H 0.45013 0.00902 0.32439 0.0
C1648 C 0.70627 0.95511 0.4937 0.0
C1649 C 0.68506 0.94541 0.49503 0.0
C1650 C 0.70929 0.97802 0.49782 0.0
C1651 C 0.69052 0.99146 0.50289 0.0
C1652 C 0.66902 0.98168 0.50381 0.0
C1653 C 0.66658 0.95874 0.49989 0.0
C1654 C 0.73249 0.98778 0.49702 0.0
C1655 C 0.64855 0.99546 0.50881 0.0
C1656 C 0.69535 0.04441 0.53687 0.0
C1657 C 0.69176 0.06102 0.52076 0.0
C1658 C 0.69591 0.02178 0.53112 0.0
C1659 C 0.69325 0.01549 0.50858 0.0
C1660 C 0.69094 0.03219 0.49201 0.0
C1661 C 0.68969 0.05476 0.49837 0.0
C1662 C 0.69782 0.00465 0.54948 0.0
C1663 C 0.68878 0.0262 0.4677 0.0
H1664 H 0.7204 0.94486 0.48906 0.0
H1665 H 0.65012 0.95124 0.50019 0.0
H1666 H 0.73274 0.00332 0.48699 0.0
H1667 H 0.7378 0.99225 0.51416 0.0
H1668 H 0.74482 0.97593 0.48992 0.0
H1669 H 0.63298 0.98543 0.50823 0.0
H1670 H 0.65004 0.00306 0.52559 0.0
H1671 H 0.64712 0.0093 0.49661 0.0
H1672 H 0.69698 0.04902 0.55426 0.0
H1673 H 0.68626 0.06734 0.48591 0.0
H1674 H 0.70808 0.99021 0.54421 0.0
H1675 H 0.68093 0.99826 0.55355 0.0
H1676 H 0.7051 0.01189 0.56488 0.0
H1677 H 0.70192 0.01411 0.46283 0.0
H1678 H 0.69005 0.04109 0.45674 0.0
H1679 H 0.67241 0.01807 0.46478 0.0
C1680 C 0.06075 0.69027 0.48659 0.0
C1681 C 0.07042 0.68146 0.50599 0.0
C1682 C 0.03739 0.69147 0.48419 0.0
C1683 C 0.02342 0.68487 0.50207 0.0
C1684 C 0.03324 0.67705 0.5221 0.0
C1685 C 0.05654 0.6748 0.52353 0.0
C1686 C 0.02779 0.69944 0.46236 0.0
C1687 C 0.01912 0.6707 0.54193 0.0
C1688 C 0.96388 0.7054 0.50822 0.0
C1689 C 0.95157 0.68595 0.50392 0.0
C1690 C 0.98719 0.70572 0.50637 0.0
C1691 C 0.99856 0.68603 0.50011 0.0
C1692 C 0.98605 0.66689 0.49384 0.0
C1693 C 0.96259 0.66705 0.49584 0.0
C1694 C 0.99966 0.72666 0.51271 0.0
C1695 C 0.99754 0.64588 0.48616 0.0
H1696 H 0.0714 0.69504 0.47278 0.0
H1697 H 0.06394 0.66765 0.53836 0.0
H1698 H 0.01179 0.69105 0.45837 0.0
H1699 H 0.02458 0.71763 0.46341 0.0
H1700 H 0.03953 0.6964 0.4484 0.0
H1701 H 0.02936 0.66626 0.5567 0.0
H1702 H 0.00796 0.68475 0.54651 0.0
H1703 H 0.00838 0.65626 0.53763 0.0
H1704 H 0.9553 0.72013 0.5143 0.0
H1705 H 0.95312 0.65199 0.49259 0.0
H1706 H 0.01203 0.73104 0.49969 0.0
H1707 H 0.00895 0.72373 0.52843 0.0
H1708 H 0.98832 0.74111 0.51518 0.0
H1709 H 0.00994 0.64985 0.47301 0.0
H1710 H 0.98555 0.63339 0.47957 0.0
H1711 H 0.00671 0.63831 0.50032 0.0
C1712 C 0.34902 0.95821 0.54772 0.0
C1713 C 0.35268 0.94317 0.53006 0.0
C1714 C 0.34796 0.98141 0.54424 0.0
C1715 C 0.35122 0.99022 0.5226 0.0
C1716 C 0.35564 0.97525 0.50476 0.0
C1717 C 0.35616 0.95196 0.50865 0.0
C1718 C 0.34245 0.99645 0.56367 0.0
C1719 C 0.35929 0.98383 0.48141 0.0
C1720 C 0.32641 0.04703 0.50744 0.0
C1721 C 0.34493 0.0613 0.50888 0.0
C1722 C 0.32807 0.02414 0.51247 0.0
C1723 C 0.34898 0.01496 0.51857 0.0
C1724 C 0.36763 0.02946 0.52074 0.0
C1725 C 0.36536 0.05248 0.51601 0.0
C1726 C 0.30754 0.00968 0.51045 0.0
C1727 C 0.39023 0.02046 0.52709 0.0
H1728 H 0.34617 0.9518 0.56436 0.0
H1729 H 0.35888 0.94064 0.49483 0.0
H1730 H 0.35539 0.00954 0.56549 0.0
H1731 H 0.32635 0.00503 0.56055 0.0
H1732 H 0.34111 0.98712 0.57961 0.0
H1733 H 0.36411 0.97033 0.46967 0.0
H1734 H 0.34379 0.99178 0.47521 0.0
H1735 H 0.37252 0.99678 0.48137 0.0
H1736 H 0.31066 0.05373 0.50159 0.0
H1737 H 0.37984 0.0633 0.51659 0.0
H1738 H 0.30517 0.99963 0.52579 0.0
H1739 H 0.30963 0.99784 0.4964 0.0
H1740 H 0.2922 0.01965 0.5075 0.0
H1741 H 0.38915 0.01125 0.54309 0.0
H1742 H 0.4029 0.03388 0.52877 0.0
H1743 H 0.39597 0.00845 0.51424 0.0
C1744 C 0.05947 0.33521 0.49671 0.0
C1745 C 0.06725 0.31846 0.51101 0.0
C1746 C 0.03654 0.33734 0.49198 0.0
C1747 C 0.02115 0.32196 0.50128 0.0
C1748 C 0.02923 0.30429 0.51467 0.0
C1749 C 0.05207 0.30297 0.51972 0.0
C1750 C 0.02865 0.35673 0.47805 0.0
C1751 C 0.01353 0.2874 0.52451 0.0
C1752 C 0.95998 0.33899 0.50792 0.0
C1753 C 0.95064 0.33068 0.48822 0.0
C1754 C 0.98286 0.33615 0.51253 0.0
C1755 C 0.9966 0.32441 0.49721 0.0
C1756 C 0.98685 0.31501 0.47789 0.0
C1757 C 0.96414 0.31863 0.47344 0.0
C1758 C 0.99245 0.34659 0.53331 0.0
C1759 C 0.00045 0.3015 0.46161 0.0
H1760 H 0.07113 0.3475 0.49037 0.0
H1761 H 0.05801 0.29017 0.53102 0.0
H1762 H 0.01921 0.35058 0.46341 0.0
H1763 H 0.01712 0.36725 0.488 0.0
H1764 H 0.04267 0.36728 0.47209 0.0
H1765 H 0.02247 0.27303 0.53201 0.0
H1766 H 0.00331 0.29558 0.53746 0.0
H1767 H 0.00183 0.28132 0.51162 0.0
H1768 H 0.94957 0.34845 0.51928 0.0
H1769 H 0.9569 0.31205 0.45824 0.0
H1770 H 0.00318 0.36089 0.52853 0.0
H1771 H 0.00308 0.33455 0.54244 0.0
H1772 H 0.97923 0.35268 0.54476 0.0
H1773 H 0.01133 0.31286 0.45191 0.0
H1774 H 0.98978 0.2921 0.44975 0.0
H1775 H 0.01135 0.2895 0.47053 0.0
C1776 C 0.02519 0.25212 0.32342 0.0
C1777 C 0.00538 0.24138 0.33002 0.0
C1778 C 0.02527 0.26868 0.30706 0.0
C1779 C 0.00487 0.27563 0.29762 0.0
C1780 C 0.98452 0.26682 0.30608 0.0
C1781 C 0.98499 0.24948 0.32207 0.0
C1782 C 0.04745 0.27705 0.2984 0.0
C1783 C 0.96236 0.27461 0.29718 0.0
C1784 C 0.0112 0.32533 0.25839 0.0
C1785 C 0.0124 0.31472 0.23757 0.0
C1786 C 0.00751 0.31301 0.27805 0.0
C1787 C 0.00549 0.28947 0.27694 0.0
C1788 C 0.00693 0.27871 0.25597 0.0
C1789 C 0.01029 0.29142 0.23664 0.0
C1790 C 0.0059 0.32516 0.30001 0.0
C1791 C 0.00543 0.25362 0.25397 0.0
H1792 H 0.04106 0.24645 0.32996 0.0
H1793 H 0.96962 0.24151 0.32728 0.0
H1794 H 0.05002 0.27088 0.28115 0.0
H1795 H 0.0477 0.29551 0.29776 0.0
H1796 H 0.06168 0.27132 0.30877 0.0
H1797 H 0.94842 0.26986 0.30842 0.0
H1798 H 0.96232 0.29299 0.29496 0.0
H1799 H 0.95937 0.26695 0.28063 0.0
H1800 H 0.01267 0.3433 0.2593 0.0
H1801 H 0.01111 0.28303 0.22066 0.0
H1802 H 0.02082 0.32149 0.31028 0.0
H1803 H 0.99111 0.31933 0.3095 0.0
H1804 H 0.00473 0.34352 0.29776 0.0
H1805 H 0.01963 0.2458 0.26287 0.0
H1806 H 0.0057 0.24793 0.23636 0.0
H1807 H 0.98987 0.24749 0.26188 0.0
C1808 C 0.78144 0.02344 0.30208 0.0
C1809 C 0.77924 0.02167 0.32522 0.0
C1810 C 0.76274 0.02221 0.2881 0.0
C1811 C 0.7412 0.02009 0.29758 0.0
C1812 C 0.73889 0.01862 0.32107 0.0
C1813 C 0.75805 0.019 0.33463 0.0
C1814 C 0.76612 0.02275 0.26316 0.0
C1815 C 0.71622 0.01681 0.33183 0.0
C1816 C 0.69453 0.03387 0.2566 0.0
C1817 C 0.68848 0.01253 0.24928 0.0
C1818 C 0.71069 0.03665 0.27346 0.0
C1819 C 0.72145 0.01767 0.28267 0.0
C1820 C 0.71476 0.99612 0.27593 0.0
C1821 C 0.69819 0.99385 0.25969 0.0
C1822 C 0.71689 0.05991 0.28075 0.0
C1823 C 0.72614 0.97538 0.28469 0.0
H1824 H 0.79791 0.0255 0.29489 0.0
H1825 H 0.75642 0.01795 0.35259 0.0
H1826 H 0.7593 0.0073 0.25558 0.0
H1827 H 0.75695 0.03702 0.25582 0.0
H1828 H 0.784 0.0242 0.25849 0.0
H1829 H 0.71716 0.01765 0.3503 0.0
H1830 H 0.70525 0.03043 0.32578 0.0
H1831 H 0.70823 0.00081 0.3271 0.0
H1832 H 0.68733 0.04836 0.24866 0.0
H1833 H 0.69356 0.97718 0.25446 0.0
H1834 H 0.73366 0.06419 0.2742 0.0
H1835 H 0.71772 0.06086 0.2992 0.0
H1836 H 0.7048 0.07255 0.27463 0.0
H1837 H 0.74374 0.97514 0.27897 0.0
H1838 H 0.7179 0.95982 0.27892 0.0
H1839 H 0.72637 0.97537 0.30316 0.0
C1840 C 0.99344 0.78633 0.2933 0.0
C1841 C 0.99763 0.78545 0.31627 0.0
C1842 C 0.99511 0.76728 0.27993 0.0
C1843 C 0.00071 0.74658 0.28977 0.0
C1844 C 0.00506 0.74551 0.31299 0.0
C1845 C 0.00371 0.76508 0.32598 0.0
C1846 C 0.99116 0.76944 0.25515 0.0
C1847 C 0.01094 0.72371 0.32409 0.0
C1848 C 0.98784 0.69771 0.25113 0.0
C1849 C 0.00853 0.69475 0.24068 0.0
C1850 C 0.98529 0.7135 0.2684 0.0
C1851 C 0.00377 0.72672 0.2751 0.0
C1852 C 0.02485 0.72297 0.26532 0.0
C1853 C 0.02697 0.70704 0.24845 0.0
C1854 C 0.96263 0.7167 0.27882 0.0
C1855 C 0.04498 0.73684 0.27155 0.0
H1856 H 0.98886 0.80209 0.2857 0.0
H1857 H 0.00669 0.76431 0.34378 0.0
H1858 H 0.00638 0.76439 0.2459 0.0
H1859 H 0.9775 0.75814 0.2499 0.0
H1860 H 0.98675 0.78673 0.25017 0.0
H1861 H 0.01295 0.7255 0.3424 0.0
H1862 H 0.99773 0.71118 0.32073 0.0
H1863 H 0.02669 0.71706 0.31705 0.0
H1864 H 0.97358 0.68815 0.24551 0.0
H1865 H 0.04321 0.70479 0.24083 0.0
H1866 H 0.95549 0.73282 0.27323 0.0
H1867 H 0.96406 0.71738 0.29724 0.0
H1868 H 0.95088 0.70313 0.2742 0.0
H1869 H 0.04261 0.75419 0.26555 0.0
H1870 H 0.06064 0.73021 0.2642 0.0
H1871 H 0.04699 0.73759 0.2899 0.0
C1872 C 0.32335 0.02357 0.25952 0.0
C1873 C 0.31459 0.01218 0.24108 0.0
C1874 C 0.31086 0.02604 0.27933 0.0
C1875 C 0.28931 0.01635 0.28097 0.0
C1876 C 0.28083 0.00412 0.26258 0.0
C1877 C 0.29334 0.00261 0.24277 0.0
C1878 C 0.32038 0.03968 0.29818 0.0
C1879 C 0.25837 0.99279 0.2637 0.0
C1880 C 0.26326 0.00066 0.33659 0.0
C1881 C 0.24509 0.01545 0.33812 0.0
C1882 C 0.27844 0.00156 0.3188 0.0
C1883 C 0.27587 0.018 0.3021 0.0
C1884 C 0.25887 0.03437 0.30465 0.0
C1885 C 0.24357 0.03285 0.32258 0.0
C1886 C 0.296 0.98358 0.31689 0.0
C1887 C 0.25594 0.05263 0.28763 0.0
H1888 H 0.33948 0.0316 0.25802 0.0
H1889 H 0.28639 0.99414 0.2284 0.0
H1890 H 0.30925 0.05405 0.30169 0.0
H1891 H 0.32123 0.02954 0.3136 0.0
H1892 H 0.33734 0.0461 0.29434 0.0
H1893 H 0.25455 0.9832 0.24833 0.0
H1894 H 0.25783 0.98122 0.27813 0.0
H1895 H 0.24508 0.00541 0.26623 0.0
H1896 H 0.26471 0.98722 0.34861 0.0
H1897 H 0.22959 0.04428 0.32349 0.0
H1898 H 0.31257 0.99096 0.31333 0.0
H1899 H 0.2918 0.97238 0.30278 0.0
H1900 H 0.29726 0.97336 0.33228 0.0
H1901 H 0.27227 0.06027 0.28344 0.0
H1902 H 0.24446 0.06589 0.29361 0.0
H1903 H 0.249 0.04547 0.27207 0.0
C1904 C 0.99507 0.72732 0.78711 0.0
C1905 C 0.00722 0.70853 0.78016 0.0
C1906 C 0.99454 0.7469 0.77445 0.0
C1907 C 0.00656 0.74787 0.75425 0.0
C1908 C 0.01991 0.72939 0.74768 0.0
C1909 C 0.02008 0.7098 0.76077 0.0
C1910 C 0.98027 0.76616 0.78224 0.0
C1911 C 0.03337 0.73003 0.72645 0.0
C1912 C 0.9906 0.78824 0.70772 0.0
C1913 C 0.00669 0.80493 0.71058 0.0
C1914 C 0.98955 0.77001 0.72257 0.0
C1915 C 0.00528 0.76835 0.74018 0.0
C1916 C 0.02023 0.78614 0.74409 0.0
C1917 C 0.02036 0.80439 0.72956 0.0
C1918 C 0.97261 0.75185 0.71857 0.0
C1919 C 0.03746 0.78508 0.76242 0.0
H1920 H 0.98516 0.72636 0.80221 0.0
H1921 H 0.02928 0.69524 0.75528 0.0
H1922 H 0.99007 0.78185 0.78253 0.0
H1923 H 0.96628 0.76866 0.77041 0.0
H1924 H 0.97324 0.76331 0.79913 0.0
H1925 H 0.0443 0.71518 0.72465 0.0
H1926 H 0.02195 0.73074 0.71194 0.0
H1927 H 0.04387 0.74527 0.72597 0.0
H1928 H 0.98017 0.78842 0.69297 0.0
H1929 H 0.03284 0.81731 0.73179 0.0
H1930 H 0.96387 0.74761 0.73431 0.0
H1931 H 0.98121 0.73655 0.71272 0.0
H1932 H 0.96002 0.75676 0.7059 0.0
H1933 H 0.02958 0.78079 0.77857 0.0
H1934 H 0.04662 0.80107 0.76436 0.0
H1935 H 0.0497 0.77175 0.75855 0.0
C1936 C 0.32569 0.04028 0.76737 0.0
C1937 C 0.33746 0.02025 0.76945 0.0
C1938 C 0.31018 0.04313 0.74992 0.0
C1939 C 0.30631 0.02541 0.73467 0.0
C1940 C 0.32029 0.00643 0.73523 0.0
C1941 C 0.33577 0.00418 0.75254 0.0
C1942 C 0.29631 0.06407 0.7492 0.0
C1943 C 0.31696 0.98707 0.71947 0.0
C1944 C 0.24552 0.0147 0.72079 0.0
C1945 C 0.2442 0.02128 0.69848 0.0
C1946 C 0.26571 0.01573 0.73249 0.0
C1947 C 0.285 0.02433 0.72184 0.0
C1948 C 0.28383 0.03085 0.69916 0.0
C1949 C 0.26344 0.02896 0.68762 0.0
C1950 C 0.26631 0.00759 0.75632 0.0
C1951 C 0.3038 0.04052 0.6873 0.0
H1952 H 0.32701 0.05275 0.78038 0.0
H1953 H 0.34508 0.98874 0.75405 0.0
H1954 H 0.29376 0.06961 0.73174 0.0
H1955 H 0.27965 0.06064 0.7565 0.0
H1956 H 0.30417 0.07782 0.7588 0.0
H1957 H 0.33175 0.97591 0.71909 0.0
H1958 H 0.30237 0.97714 0.72506 0.0
H1959 H 0.31352 0.99292 0.70229 0.0
H1960 H 0.23065 0.00865 0.72914 0.0
H1961 H 0.26232 0.03434 0.6704 0.0
H1962 H 0.27062 0.02158 0.76761 0.0
H1963 H 0.27938 0.99463 0.75827 0.0
H1964 H 0.25011 0.00043 0.76176 0.0
H1965 H 0.30717 0.05747 0.69393 0.0
H1966 H 0.30108 0.04181 0.66904 0.0
H1967 H 0.31892 0.03032 0.69037 0.0
C1968 C 0.01864 0.29901 0.78795 0.0
C1969 C 0.01269 0.32166 0.7883 0.0
C1970 C 0.01862 0.28662 0.76823 0.0
C1971 C 0.01216 0.29693 0.74805 0.0
C1972 C 0.00568 0.31976 0.74821 0.0
C1973 C 0.00602 0.33193 0.76841 0.0
C1974 C 0.02526 0.2623 0.76914 0.0
C1975 C 0.99861 0.33131 0.72705 0.0
C1976 C 0.02573 0.25972 0.69802 0.0
C1977 C 0.00567 0.24791 0.69585 0.0
C1978 C 0.02771 0.27721 0.71378 0.0
C1979 C 0.00938 0.28261 0.72785 0.0
C1980 C 0.98897 0.27124 0.72505 0.0
C1981 C 0.98738 0.2543 0.70918 0.0
C1982 C 0.04962 0.28934 0.71594 0.0
C1983 C 0.96912 0.27581 0.73993 0.0
H1984 H 0.02386 0.29097 0.80328 0.0
H1985 H 0.00189 0.34953 0.76849 0.0
H1986 H 0.01089 0.25169 0.7643 0.0
H1987 H 0.03891 0.25896 0.75713 0.0
H1988 H 0.03091 0.25713 0.78599 0.0
H1989 H 0.99516 0.34933 0.72971 0.0
H1990 H 0.01184 0.32957 0.71423 0.0
H1991 H 0.98336 0.32331 0.72031 0.0
H1992 H 0.03984 0.25522 0.68767 0.0
H1993 H 0.97167 0.24547 0.70784 0.0
H1994 H 0.05821 0.28383 0.73135 0.0
H1995 H 0.04681 0.30758 0.71736 0.0
H1996 H 0.06079 0.28607 0.70153 0.0
H1997 H 0.97281 0.26995 0.75708 0.0
H1998 H 0.95378 0.26723 0.73407 0.0
H1999 H 0.96569 0.29395 0.74088 0.0
C2000 C 0.75669 0.01661 0.68302 0.0
C2001 C 0.77851 0.02048 0.69045 0.0
C2002 C 0.73885 0.01494 0.69816 0.0
C2003 C 0.74305 0.01683 0.72131 0.0
C2004 C 0.76495 0.02173 0.72876 0.0
C2005 C 0.78239 0.02353 0.71323 0.0
C2006 C 0.71575 0.01003 0.68947 0.0
C2007 C 0.77016 0.024 0.75327 0.0
C2008 C 0.69792 0.03284 0.76223 0.0
C2009 C 0.69414 0.01279 0.77389 0.0
C2010 C 0.71302 0.03408 0.74453 0.0
C2011 C 0.72456 0.01471 0.73784 0.0
C2012 C 0.71967 0.99399 0.74834 0.0
C2013 C 0.70448 0.99326 0.76636 0.0
C2014 C 0.71755 0.05648 0.73387 0.0
C2015 C 0.73125 0.97284 0.74122 0.0
H2016 H 0.75385 0.01339 0.66546 0.0
H2017 H 0.79939 0.02559 0.71903 0.0
H2018 H 0.71021 0.99343 0.69551 0.0
H2019 H 0.70368 0.02249 0.6959 0.0
H2020 H 0.71507 0.01012 0.67097 0.0
H2021 H 0.788 0.02798 0.75633 0.0
H2022 H 0.75976 0.03735 0.76075 0.0
H2023 H 0.76604 0.00822 0.76203 0.0
H2024 H 0.6896 0.04801 0.76748 0.0
H2025 H 0.70148 0.97771 0.77508 0.0
H2026 H 0.71613 0.05529 0.71549 0.0
H2027 H 0.73485 0.0618 0.73772 0.0
H2028 H 0.70594 0.06962 0.73985 0.0
H2029 H 0.73014 0.97079 0.72289 0.0
H2030 H 0.72402 0.95785 0.74937 0.0
H2031 H 0.7492 0.97387 0.74557 0.0
C2032 C 0.30457 0.2452 0.02352 0.0
C2033 C 0.32777 0.24628 0.02107 0.0
C2034 C 0.29143 0.2646 0.02302 0.0
C2035 C 0.30169 0.2856 0.01936 0.0
C2036 C 0.32529 0.28691 0.01846 0.0
C2037 C 0.33808 0.26719 0.01943 0.0
C2038 C 0.2664 0.26234 0.02467 0.0
C2039 C 0.33693 0.30887 0.01455 0.0
C2040 C 0.26216 0.32445 0.98851 0.0
C2041 C 0.25329 0.33703 0.00601 0.0
C2042 C 0.2794 0.30896 0.99233 0.0
C2043 C 0.28748 0.30553 0.01431 0.0
C2044 C 0.27961 0.31939 0.03173 0.0
C2045 C 0.26272 0.33507 0.02731 0.0
C2046 C 0.28753 0.29487 0.97314 0.0
C2047 C 0.28727 0.31614 0.05545 0.0
H2048 H 0.29656 0.229 0.02434 0.0
H2049 H 0.35598 0.26798 0.01694 0.0
H2050 H 0.25952 0.27487 0.03641 0.0
H2051 H 0.25881 0.26548 0.00811 0.0
H2052 H 0.26129 0.24545 0.03033 0.0
H2053 H 0.35522 0.30759 0.01719 0.0
H2054 H 0.33387 0.31439 0.99718 0.0
H2055 H 0.33016 0.32193 0.02576 0.0
H2056 H 0.25445 0.32547 0.9722 0.0
H2057 H 0.25536 0.34431 0.04101 0.0
H2058 H 0.28083 0.2777 0.97482 0.0
H2059 H 0.306 0.2937 0.97332 0.0
H2060 H 0.28214 0.30168 0.9568 0.0
H2061 H 0.27949 0.3008 0.06231 0.0
H2062 H 0.28252 0.33042 0.06625 0.0
H2063 H 0.30561 0.31388 0.05624 0.0
C2064 C 0.302 0.77783 0.98557 0.0
C2065 C 0.3211 0.77947 0.99893 0.0
C2066 C 0.28628 0.76062 0.98878 0.0
C2067 C 0.28905 0.7452 0.00651 0.0
C2068 C 0.30879 0.74631 0.01954 0.0
C2069 C 0.32471 0.76322 0.01537 0.0
C2070 C 0.26612 0.75961 0.97376 0.0
C2071 C 0.31239 0.73068 0.0389 0.0
C2072 C 0.23332 0.72357 0.02897 0.0
C2073 C 0.2323 0.70198 0.02012 0.0
C2074 C 0.25229 0.73716 0.02585 0.0
C2075 C 0.27034 0.72948 0.01256 0.0
C2076 C 0.26952 0.70744 0.00393 0.0
C2077 C 0.2507 0.69387 0.00812 0.0
C2078 C 0.25265 0.76011 0.03617 0.0
C2079 C 0.28778 0.69867 0.989 0.0
H2080 H 0.29905 0.79044 0.97297 0.0
H2081 H 0.33922 0.76468 0.02605 0.0
H2082 H 0.26328 0.74226 0.96797 0.0
H2083 H 0.25109 0.76488 0.98315 0.0
H2084 H 0.26793 0.77062 0.95897 0.0
H2085 H 0.32945 0.73215 0.04596 0.0
H2086 H 0.30013 0.73456 0.05222 0.0
H2087 H 0.30955 0.71314 0.03379 0.0
H2088 H 0.21906 0.72999 0.03805 0.0
H2089 H 0.24979 0.67737 0.00078 0.0
H2090 H 0.25132 0.77294 0.02292 0.0
H2091 H 0.26867 0.7629 0.04499 0.0
H2092 H 0.23873 0.76259 0.04813 0.0
H2093 H 0.28712 0.70752 0.97277 0.0
H2094 H 0.28607 0.68048 0.98585 0.0
H2095 H 0.30443 0.70192 0.99633 0.0
C2096 C 0.77751 0.30378 0.01611 0.0
C2097 C 0.77378 0.32683 0.0156 0.0
C2098 C 0.75979 0.28864 0.01564 0.0
C2099 C 0.73763 0.29672 0.01474 0.0
C2100 C 0.73365 0.32004 0.01553 0.0
C2101 C 0.75188 0.33492 0.01586 0.0
C2102 C 0.7649 0.26394 0.01524 0.0
C2103 C 0.71026 0.32925 0.01496 0.0
C2104 C 0.69904 0.25095 0.9937 0.0
C2105 C 0.69306 0.24096 0.0139 0.0
C2106 C 0.71199 0.27064 0.99357 0.0
C2107 C 0.71899 0.28029 0.01407 0.0
C2108 C 0.71118 0.27129 0.03434 0.0
C2109 C 0.69829 0.25191 0.03397 0.0
C2110 C 0.71953 0.28016 0.97158 0.0
C2111 C 0.71817 0.28082 0.05659 0.0
H2112 H 0.79451 0.29759 0.0155 0.0
H2113 H 0.74904 0.35276 0.01483 0.0
H2114 H 0.75659 0.2555 0.02945 0.0
H2115 H 0.75829 0.25641 -0.0003 0.0
H2116 H 0.78307 0.26047 0.01616 0.0
H2117 H 0.70993 0.34764 0.01725 0.0
H2118 H 0.70242 0.32516 0.99872 0.0
H2119 H 0.69991 0.32142 0.02814 0.0
H2120 H 0.69474 0.2428 0.97817 0.0
H2121 H 0.69309 0.24472 0.04972 0.0
H2122 H 0.73727 0.27571 0.96874 0.0
H2123 H 0.71836 0.29863 0.97171 0.0
H2124 H 0.70951 0.27359 0.95747 0.0
H2125 H 0.73583 0.27635 0.05986 0.0
H2126 H 0.70785 0.27425 0.0705 0.0
H2127 H 0.71702 0.29928 0.05656 0.0
C2128 C 0.76141 0.6893 0.01583 0.0
C2129 C 0.78235 0.6979 0.02159 0.0
C2130 C 0.74247 0.70322 0.01518 0.0
C2131 C 0.74478 0.7264 0.01943 0.0
C2132 C 0.76602 0.73504 0.02518 0.0
C2133 C 0.78441 0.7206 0.02665 0.0
C2134 C 0.72005 0.69316 0.00973 0.0
C2135 C 0.76956 0.7597 0.02891 0.0
C2136 C 0.70646 0.76717 0.99008 0.0
C2137 C 0.69388 0.77628 0.00771 0.0
C2138 C 0.72251 0.75059 0.99365 0.0
C2139 C 0.72582 0.7421 0.01536 0.0
C2140 C 0.71236 0.75017 0.0331 0.0
C2141 C 0.69684 0.76747 0.02914 0.0
C2142 C 0.73678 0.74307 0.97426 0.0
C2143 C 0.71473 0.74096 0.05636 0.0
H2144 H 0.75977 0.67163 0.01232 0.0
H2145 H 0.80063 0.72718 0.03117 0.0
H2146 H 0.70727 0.69909 0.02174 0.0
H2147 H 0.71471 0.69856 0.99289 0.0
H2148 H 0.72047 0.67464 0.01007 0.0
H2149 H 0.78702 0.76367 0.03366 0.0
H2150 H 0.76544 0.76899 0.01345 0.0
H2151 H 0.75828 0.76584 0.04219 0.0
H2152 H 0.70448 0.77363 0.97334 0.0
H2153 H 0.68743 0.77428 0.04285 0.0
H2154 H 0.73587 0.72471 0.97231 0.0
H2155 H 0.75448 0.74739 0.97751 0.0
H2156 H 0.73169 0.75091 0.95828 0.0
H2157 H 0.71518 0.72245 0.05595 0.0
H2158 H 0.70087 0.74637 0.0674 0.0
H2159 H 0.73068 0.74674 0.06371 0.0
C2160 C 0.52659 0.74177 0.7932 0.0
C2161 C 0.51157 0.73834 0.8109 0.0
C2162 C 0.52433 0.75976 0.77842 0.0
C2163 C 0.50659 0.77506 0.7812 0.0
C2164 C 0.49123 0.77177 0.79895 0.0
C2165 C 0.49382 0.75338 0.81353 0.0
C2166 C 0.54106 0.76237 0.75975 0.0
C2167 C 0.47223 0.78782 0.80268 0.0
C2168 C 0.5158 0.83037 0.75066 0.0
C2169 C 0.50341 0.82718 0.73108 0.0
C2170 C 0.51593 0.81415 0.76771 0.0
C2171 C 0.50401 0.79388 0.76486 0.0
C2172 C 0.49145 0.79067 0.74513 0.0
C2173 C 0.49108 0.80741 0.72868 0.0
C2174 C 0.52912 0.81859 0.78865 0.0
C2175 C 0.47897 0.76919 0.74102 0.0
H2176 H 0.54039 0.73034 0.79088 0.0
H2177 H 0.48228 0.7511 0.82724 0.0
H2178 H 0.53236 0.7621 0.74344 0.0
H2179 H 0.54963 0.7787 0.76115 0.0
H2180 H 0.55388 0.74899 0.75982 0.0
H2181 H 0.46246 0.7837 0.81787 0.0
H2182 H 0.47873 0.80508 0.80425 0.0
H2183 H 0.46086 0.78756 0.78811 0.0
H2184 H 0.52515 0.8457 0.7528 0.0
H2185 H 0.48145 0.80479 0.71363 0.0
H2186 H 0.54362 0.80714 0.78942 0.0
H2187 H 0.5187 0.81531 0.80358 0.0
H2188 H 0.53535 0.83604 0.78943 0.0
H2189 H 0.49096 0.75513 0.73996 0.0
H2190 H 0.46909 0.76968 0.72537 0.0
H2191 H 0.46754 0.76561 0.75511 0.0
C2192 C 0.18131 0.51725 0.76351 0.0
C2193 C 0.18837 0.51432 0.74147 0.0
C2194 C 0.19698 0.51867 0.78103 0.0
C2195 C 0.22014 0.51711 0.77629 0.0
C2196 C 0.2272 0.51481 0.75388 0.0
C2197 C 0.21125 0.51331 0.73685 0.0
C2198 C 0.18874 0.52103 0.80466 0.0
C2199 C 0.25163 0.51341 0.74789 0.0
C2200 C 0.26367 0.54219 0.81469 0.0
C2201 C 0.2737 0.52328 0.82439 0.0
C2202 C 0.2458 0.54037 0.79976 0.0
C2203 C 0.23727 0.5191 0.79435 0.0
C2204 C 0.24666 0.4999 0.80461 0.0
C2205 C 0.2649 0.50219 0.81938 0.0
C2206 C 0.23665 0.56129 0.78907 0.0
C2207 C 0.23786 0.47689 0.79951 0.0
H2208 H 0.1636 0.51726 0.76717 0.0
H2209 H 0.21667 0.51046 0.71984 0.0
H2210 H 0.19395 0.50628 0.81454 0.0
H2211 H 0.19635 0.53591 0.8126 0.0
H2212 H 0.1703 0.52259 0.80555 0.0
H2213 H 0.25434 0.51195 0.72964 0.0
H2214 H 0.26052 0.52846 0.75397 0.0
H2215 H 0.2593 0.49875 0.75615 0.0
H2216 H 0.27006 0.55868 0.81842 0.0
H2217 H 0.27251 0.4875 0.82656 0.0
H2218 H 0.2183 0.56213 0.79126 0.0
H2219 H 0.24002 0.56094 0.77089 0.0
H2220 H 0.24415 0.5767 0.79611 0.0
H2221 H 0.21942 0.4766 0.80099 0.0
H2222 H 0.24497 0.46404 0.81081 0.0
H2223 H 0.24209 0.47239 0.78209 0.0
C2224 C 0.51479 0.18878 0.76539 0.0
C2225 C 0.50164 0.19346 0.74664 0.0
C2226 C 0.51712 0.20429 0.78272 0.0
C2227 C 0.50602 0.22505 0.78124 0.0
C2228 C 0.49091 0.22889 0.76342 0.0
C2229 C 0.48895 0.21301 0.74621 0.0
C2230 C 0.53336 0.19938 0.80131 0.0
C2231 C 0.4784 0.25062 0.76144 0.0
C2232 C 0.50785 0.26582 0.83003 0.0
C2233 C 0.52383 0.2812 0.82262 0.0
C2234 C 0.50194 0.24728 0.81693 0.0
C2235 C 0.51275 0.24378 0.79623 0.0
C2236 C 0.5299 0.25862 0.7894 0.0
C2237 C 0.53488 0.27742 0.80246 0.0
C2238 C 0.48329 0.23223 0.82464 0.0
C2239 C 0.54248 0.25507 0.76789 0.0
H2240 H 0.52482 0.17371 0.76556 0.0
H2241 H 0.47909 0.2168 0.73155 0.0
H2242 H 0.54885 0.20915 0.79862 0.0
H2243 H 0.52639 0.20441 0.81766 0.0
H2244 H 0.53783 0.1814 0.80202 0.0
H2245 H 0.46477 0.24962 0.74895 0.0
H2246 H 0.47122 0.25552 0.77776 0.0
H2247 H 0.4901 0.26399 0.75624 0.0
H2248 H 0.49887 0.2691 0.84535 0.0
H2249 H 0.54699 0.28952 0.79664 0.0
H2250 H 0.48861 0.21452 0.82415 0.0
H2251 H 0.46888 0.23392 0.81317 0.0
H2252 H 0.47766 0.23629 0.84181 0.0
H2253 H 0.54946 0.23794 0.76734 0.0
H2254 H 0.55636 0.26718 0.76579 0.0
H2255 H 0.53094 0.25682 0.75356 0.0
C2256 C 0.77063 0.52311 0.83363 0.0
C2257 C 0.74868 0.52863 0.82782 0.0
C2258 C 0.78723 0.52078 0.81723 0.0
C2259 C 0.78154 0.52373 0.79452 0.0
C2260 C 0.75992 0.53144 0.78887 0.0
C2261 C 0.74378 0.53392 0.80566 0.0
C2262 C 0.81018 0.51303 0.82401 0.0
C2263 C 0.7531 0.53482 0.7649 0.0
C2264 C 0.82402 0.52551 0.7476 0.0
C2265 C 0.82185 0.50408 0.73851 0.0
C2266 C 0.81181 0.5319 0.76651 0.0
C2267 C 0.79713 0.51642 0.77656 0.0
C2268 C 0.79591 0.49429 0.76813 0.0
C2269 C 0.80819 0.48844 0.74901 0.0
C2270 C 0.81357 0.5556 0.77484 0.0
C2271 C 0.78062 0.47718 0.77848 0.0
H2272 H 0.77428 0.51841 0.8507 0.0
H2273 H 0.72666 0.53753 0.80109 0.0
H2274 H 0.81232 0.49526 0.81927 0.0
H2275 H 0.82322 0.52274 0.81518 0.0
H2276 H 0.81288 0.51458 0.84225 0.0
H2277 H 0.73654 0.543 0.76345 0.0
H2278 H 0.76561 0.5451 0.75597 0.0
H2279 H 0.75228 0.51841 0.75637 0.0
H2280 H 0.83434 0.53771 0.7391 0.0
H2281 H 0.80625 0.47204 0.74165 0.0
H2282 H 0.81643 0.55581 0.79309 0.0
H2283 H 0.79765 0.56448 0.77168 0.0
H2284 H 0.82724 0.56494 0.76653 0.0
H2285 H 0.78364 0.4761 0.79668 0.0
H2286 H 0.78291 0.46035 0.77108 0.0
H2287 H 0.76302 0.48234 0.77608 0.0
C2288 C 0.53638 0.21381 0.2694 0.0
C2289 C 0.52773 0.19212 0.27021 0.0
C2290 C 0.5322 0.22789 0.25107 0.0
C2291 C 0.51844 0.22034 0.23336 0.0
C2292 C 0.51147 0.19774 0.23316 0.0
C2293 C 0.51638 0.18387 0.2515 0.0
C2294 C 0.54074 0.25156 0.25173 0.0
C2295 C 0.49675 0.18885 0.21483 0.0
C2296 C 0.48422 0.26856 0.20999 0.0
C2297 C 0.49613 0.27409 0.1907 0.0
C2298 C 0.49013 0.24983 0.22291 0.0
C2299 C 0.50908 0.23688 0.21699 0.0
C2300 C 0.52024 0.24159 0.19671 0.0
C2301 C 0.51342 0.25995 0.18369 0.0
C2302 C 0.47713 0.24498 0.2439 0.0
C2303 C 0.54075 0.22876 0.18981 0.0
H2304 H 0.54466 0.22048 0.28401 0.0
H2305 H 0.50906 0.16734 0.25231 0.0
H2306 H 0.54761 0.25646 0.23527 0.0
H2307 H 0.52677 0.26305 0.25562 0.0
H2308 H 0.55389 0.25381 0.26457 0.0
H2309 H 0.49591 0.17034 0.21502 0.0
H2310 H 0.47962 0.1955 0.21703 0.0
H2311 H 0.50276 0.19439 0.19825 0.0
H2312 H 0.47123 0.27974 0.21578 0.0
H2313 H 0.52317 0.26459 0.16918 0.0
H2314 H 0.4872 0.24979 0.25863 0.0
H2315 H 0.47352 0.22687 0.24525 0.0
H2316 H 0.46112 0.25429 0.24445 0.0
H2317 H 0.55507 0.23419 0.20019 0.0
H2318 H 0.54505 0.23167 0.17203 0.0
H2319 H 0.53849 0.21061 0.19253 0.0
C2320 C 0.74448 0.49288 0.20934 0.0
C2321 C 0.74427 0.50331 0.18851 0.0
C2322 C 0.76311 0.49473 0.22344 0.0
C2323 C 0.78166 0.50783 0.2167 0.0
C2324 C 0.78215 0.51687 0.19493 0.0
C2325 C 0.76347 0.51438 0.18105 0.0
C2326 C 0.76215 0.4842 0.24627 0.0
C2327 C 0.80145 0.53099 0.18704 0.0
C2328 C 0.8113 0.53423 0.26618 0.0
C2329 C 0.8291 0.51949 0.26917 0.0
C2330 C 0.79658 0.53161 0.24808 0.0
C2331 C 0.79951 0.51348 0.2331 0.0
C2332 C 0.81844 0.49962 0.23523 0.0
C2333 C 0.83309 0.50293 0.25314 0.0
C2334 C 0.77691 0.54716 0.24602 0.0
C2335 C 0.8221 0.47993 0.21997 0.0
H2336 H 0.72941 0.48487 0.21533 0.0
H2337 H 0.76302 0.52301 0.16516 0.0
H2338 H 0.77796 0.47533 0.24997 0.0
H2339 H 0.76003 0.49741 0.25905 0.0
H2340 H 0.74809 0.47223 0.24782 0.0
H2341 H 0.80069 0.53422 0.16882 0.0
H2342 H 0.80114 0.54724 0.19588 0.0
H2343 H 0.81759 0.52286 0.19096 0.0
H2344 H 0.80789 0.54665 0.27887 0.0
H2345 H 0.84658 0.49117 0.25582 0.0
H2346 H 0.76141 0.53814 0.25061 0.0
H2347 H 0.77504 0.55291 0.22855 0.0
H2348 H 0.77857 0.56196 0.25703 0.0
H2349 H 0.80976 0.46673 0.22398 0.0
H2350 H 0.8391 0.47278 0.2218 0.0
H2351 H 0.81954 0.48471 0.20231 0.0
C2352 C 0.53185 0.73902 0.21502 0.0
C2353 C 0.52562 0.742 0.19265 0.0
C2354 C 0.53214 0.75685 0.23012 0.0
C2355 C 0.5264 0.77852 0.22274 0.0
C2356 C 0.52187 0.78205 0.19977 0.0
C2357 C 0.52141 0.76369 0.18495 0.0
C2358 C 0.53717 0.75211 0.25434 0.0
C2359 C 0.5165 0.80501 0.19107 0.0
C2360 C 0.50028 0.81346 0.26886 0.0
C2361 C 0.51898 0.82406 0.27789 0.0
C2362 C 0.50224 0.79952 0.25009 0.0
C2363 C 0.52332 0.79666 0.23967 0.0
C2364 C 0.54194 0.80867 0.24793 0.0
C2365 C 0.53966 0.82171 0.26732 0.0
C2366 C 0.48205 0.78658 0.24243 0.0
C2367 C 0.56455 0.80688 0.23704 0.0
H2368 H 0.53546 0.72236 0.22107 0.0
H2369 H 0.51661 0.76616 0.16772 0.0
H2370 H 0.55089 0.76297 0.26028 0.0
H2371 H 0.52226 0.75587 0.26464 0.0
H2372 H 0.542 0.73446 0.25723 0.0
H2373 H 0.51639 0.80556 0.17256 0.0
H2374 H 0.49983 0.81021 0.19718 0.0
H2375 H 0.52879 0.81733 0.19736 0.0
H2376 H 0.48433 0.81513 0.27724 0.0
H2377 H 0.55418 0.82957 0.27457 0.0
H2378 H 0.48462 0.76857 0.24587 0.0
H2379 H 0.47972 0.78845 0.2242 0.0
H2380 H 0.46656 0.79204 0.25099 0.0
H2381 H 0.5726 0.79101 0.24209 0.0
H2382 H 0.57566 0.82086 0.24201 0.0
H2383 H 0.563 0.80676 0.21862 0.0
C2384 C 0.27751 0.51655 0.21758 0.0
C2385 C 0.27605 0.5105 0.19512 0.0
C2386 C 0.25848 0.51765 0.23104 0.0
C2387 C 0.23739 0.51223 0.22188 0.0
C2388 C 0.23562 0.50742 0.1988 0.0
C2389 C 0.25506 0.50666 0.18561 0.0
C2390 C 0.26116 0.52342 0.2554 0.0
C2391 C 0.21347 0.50163 0.1884 0.0
C2392 C 0.19914 0.49304 0.26845 0.0
C2393 C 0.18864 0.51312 0.27402 0.0
C2394 C 0.21344 0.49182 0.24985 0.0
C2395 C 0.21764 0.51125 0.23696 0.0
C2396 C 0.20555 0.53096 0.24144 0.0
C2397 C 0.19114 0.5316 0.2598 0.0
C2398 C 0.22545 0.47023 0.24515 0.0
C2399 C 0.20941 0.55209 0.22828 0.0
H2400 H 0.29382 0.5192 0.22493 0.0
H2401 H 0.25403 0.50145 0.16834 0.0
H2402 H 0.24967 0.53716 0.26004 0.0
H2403 H 0.25677 0.50874 0.26578 0.0
H2404 H 0.27847 0.52856 0.25954 0.0
H2405 H 0.21443 0.50115 0.16992 0.0
H2406 H 0.20802 0.485 0.19443 0.0
H2407 H 0.20049 0.51382 0.1934 0.0
H2408 H 0.19728 0.47872 0.27931 0.0
H2409 H 0.18273 0.54711 0.26376 0.0
H2410 H 0.24283 0.47143 0.25139 0.0
H2411 H 0.22624 0.467 0.22696 0.0
H2412 H 0.21722 0.45585 0.25344 0.0
H2413 H 0.22546 0.55968 0.23351 0.0
H2414 H 0.19594 0.56451 0.23103 0.0
H2415 H 0.2106 0.54852 0.21019 0.0
C2416 C 0.75759 0.82594 0.49673 0.0
C2417 C 0.73612 0.8168 0.49803 0.0
C2418 C 0.77654 0.81201 0.49618 0.0
C2419 C 0.77379 0.78851 0.49675 0.0
C2420 C 0.752 0.77936 0.49704 0.0
C2421 C 0.7335 0.79362 0.49789 0.0
C2422 C 0.79945 0.82242 0.49606 0.0
C2423 C 0.74821 0.75445 0.49745 0.0
C2424 C 0.81665 0.746 0.47809 0.0
C2425 C 0.82427 0.73763 0.49849 0.0
C2426 C 0.80162 0.76392 0.47725 0.0
C2427 C 0.79341 0.77317 0.49735 0.0
C2428 C 0.80193 0.76541 0.51803 0.0
C2429 C 0.81755 0.74786 0.51833 0.0
C2430 C 0.79353 0.77208 0.45488 0.0
C2431 C 0.79349 0.77461 0.53986 0.0
H2432 H 0.7596 0.8439 0.49753 0.0
H2433 H 0.71687 0.78662 0.49937 0.0
H2434 H 0.80804 0.81865 0.51199 0.0
H2435 H 0.80971 0.81522 0.48247 0.0
H2436 H 0.79876 0.84082 0.49396 0.0
H2437 H 0.73022 0.75005 0.49698 0.0
H2438 H 0.75659 0.7465 0.483 0.0
H2439 H 0.75563 0.74724 0.51277 0.0
H2440 H 0.82212 0.73815 0.46275 0.0
H2441 H 0.82351 0.74131 0.53408 0.0
H2442 H 0.79406 0.79057 0.45415 0.0
H2443 H 0.77593 0.76694 0.45243 0.0
H2444 H 0.80365 0.76528 0.44094 0.0
H2445 H 0.79373 0.79311 0.53964 0.0
H2446 H 0.80351 0.76867 0.55425 0.0
H2447 H 0.77593 0.76933 0.54237 0.0
C2448 C 0.8029 0.2812 0.5123 0.0
C2449 C 0.82302 0.27928 0.50047 0.0
C2450 C 0.78808 0.2633 0.51437 0.0
C2451 C 0.79315 0.24276 0.50401 0.0
C2452 C 0.81319 0.24075 0.49144 0.0
C2453 C 0.82802 0.25908 0.48986 0.0
C2454 C 0.7669 0.2665 0.52767 0.0
C2455 C 0.81899 0.21921 0.47985 0.0
C2456 C 0.75659 0.19353 0.52269 0.0
C2457 C 0.73964 0.19425 0.50661 0.0
C2458 C 0.77472 0.20869 0.52173 0.0
C2459 C 0.77593 0.22468 0.50423 0.0
C2460 C 0.75891 0.22527 0.48803 0.0
C2461 C 0.74107 0.21037 0.48957 0.0
C2462 C 0.79243 0.20778 0.53952 0.0
C2463 C 0.75918 0.24209 0.46923 0.0
H2464 H 0.79901 0.29677 0.52065 0.0
H2465 H 0.84376 0.25735 0.48115 0.0
H2466 H 0.7522 0.26489 0.51658 0.0
H2467 H 0.76547 0.25339 0.54064 0.0
H2468 H 0.76618 0.28307 0.53593 0.0
H2469 H 0.83551 0.21998 0.4715 0.0
H2470 H 0.81909 0.20531 0.49206 0.0
H2471 H 0.80611 0.21526 0.46719 0.0
H2472 H 0.75581 0.18111 0.53578 0.0
H2473 H 0.7281 0.21142 0.47704 0.0
H2474 H 0.7924 0.22359 0.54914 0.0
H2475 H 0.80914 0.20613 0.53175 0.0
H2476 H 0.78984 0.19367 0.55125 0.0
H2477 H 0.75707 0.25916 0.47606 0.0
H2478 H 0.74571 0.23908 0.45689 0.0
H2479 H 0.77543 0.24164 0.46041 0.0
C2480 C 0.20658 0.75384 0.47251 0.0
C2481 C 0.19223 0.74811 0.49001 0.0
C2482 C 0.22274 0.77069 0.47511 0.0
C2483 C 0.22521 0.78144 0.49602 0.0
C2484 C 0.2095 0.77695 0.51312 0.0
C2485 C 0.19304 0.76051 0.5098 0.0
C2486 C 0.23849 0.77548 0.45609 0.0
C2487 C 0.21155 0.7876 0.53581 0.0
C2488 C 0.2857 0.79504 0.51036 0.0
C2489 C 0.28646 0.81822 0.50758 0.0
C2490 C 0.26566 0.78313 0.50759 0.0
C2491 C 0.24599 0.79452 0.50093 0.0
C2492 C 0.24665 0.81801 0.49825 0.0
C2493 C 0.26677 0.82961 0.502 0.0
C2494 C 0.26564 0.75824 0.51145 0.0
C2495 C 0.2264 0.83078 0.49051 0.0
H2496 H 0.20631 0.74398 0.45737 0.0
H2497 H 0.18238 0.75567 0.52359 0.0
H2498 H 0.2414 0.79368 0.45444 0.0
H2499 H 0.25483 0.76747 0.45944 0.0
H2500 H 0.23202 0.76896 0.44001 0.0
H2501 H 0.19613 0.78541 0.54586 0.0
H2502 H 0.22562 0.77976 0.54492 0.0
H2503 H 0.21523 0.80567 0.53439 0.0
H2504 H 0.30085 0.7862 0.51472 0.0
H2505 H 0.26732 0.84752 0.49954 0.0
H2506 H 0.26246 0.74943 0.49552 0.0
H2507 H 0.25206 0.75361 0.52314 0.0
H2508 H 0.28173 0.7522 0.51836 0.0
H2509 H 0.22191 0.8254 0.47341 0.0
H2510 H 0.22927 0.8491 0.49038 0.0
H2511 H 0.21189 0.8271 0.50137 0.0
C2512 C 0.19967 0.25853 0.53008 0.0
C2513 C 0.19288 0.26717 0.50946 0.0
C2514 C 0.21581 0.24123 0.53117 0.0
C2515 C 0.22565 0.23283 0.51126 0.0
C2516 C 0.21771 0.24059 0.49051 0.0
C2517 C 0.20129 0.25716 0.48992 0.0
C2518 C 0.22308 0.23274 0.55365 0.0
C2519 C 0.22777 0.23271 0.46877 0.0
C2520 C 0.28653 0.21506 0.50848 0.0
C2521 C 0.28508 0.19193 0.50494 0.0
C2522 C 0.26741 0.22824 0.5117 0.0
C2523 C 0.24602 0.2182 0.51156 0.0
C2524 C 0.24439 0.19476 0.50848 0.0
C2525 C 0.26389 0.18194 0.50505 0.0
C2526 C 0.27013 0.25314 0.51446 0.0
C2527 C 0.22201 0.18327 0.50848 0.0
H2528 H 0.19316 0.26583 0.54527 0.0
H2529 H 0.19583 0.26312 0.47376 0.0
H2530 H 0.22522 0.21436 0.55333 0.0
H2531 H 0.23942 0.24022 0.55803 0.0
H2532 H 0.2109 0.23716 0.56689 0.0
H2533 H 0.21885 0.23945 0.45402 0.0
H2534 H 0.24546 0.23809 0.46782 0.0
H2535 H 0.22755 0.21425 0.46781 0.0
H2536 H 0.30276 0.22303 0.50861 0.0
H2537 H 0.26253 0.16405 0.50272 0.0
H2538 H 0.26134 0.2589 0.52967 0.0
H2539 H 0.2625 0.26186 0.50004 0.0
H2540 H 0.28791 0.25821 0.51565 0.0
H2541 H 0.21194 0.18883 0.52298 0.0
H2542 H 0.22365 0.16481 0.50903 0.0
H2543 H 0.21265 0.18784 0.49322 0.0
C2544 C 0.05109 0.12064 0.35882 0.0
C2545 C 0.03114 0.12011 0.3468 0.0
C2546 C 0.06509 0.10207 0.35982 0.0
C2547 C 0.05839 0.0819 0.34952 0.0
C2548 C 0.03834 0.08129 0.33698 0.0
C2549 C 0.02533 0.10079 0.33506 0.0
C2550 C 0.08707 0.10414 0.37201 0.0
C2551 C 0.0303 0.06006 0.32616 0.0
C2552 C 0.1089 0.04504 0.34775 0.0
C2553 C 0.10808 0.03591 0.36924 0.0
C2554 C 0.09104 0.05767 0.33943 0.0
C2555 C 0.07228 0.06167 0.35322 0.0
C2556 C 0.07031 0.05021 0.37375 0.0
C2557 C 0.08833 0.03754 0.38159 0.0
C2558 C 0.09363 0.06905 0.31717 0.0
C2559 C 0.05043 0.05371 0.38877 0.0
H2560 H 0.05607 0.13597 0.36704 0.0
H2561 H 0.01072 0.10089 0.3245 0.0
H2562 H 0.08702 0.09321 0.38692 0.0
H2563 H 0.10097 0.09866 0.3611 0.0
H2564 H 0.09049 0.12151 0.37748 0.0
H2565 H 0.01812 0.06349 0.31265 0.0
H2566 H 0.04435 0.05019 0.31928 0.0
H2567 H 0.0219 0.04964 0.33894 0.0
H2568 H 0.12423 0.04393 0.33821 0.0
H2569 H 0.0877 0.03052 0.39823 0.0
H2570 H 0.10022 0.08615 0.3198 0.0
H2571 H 0.0774 0.07051 0.30844 0.0
H2572 H 0.1055 0.0599 0.30628 0.0
H2573 H 0.05195 0.07013 0.39718 0.0
H2574 H 0.04928 0.04059 0.40179 0.0
H2575 H 0.03475 0.05384 0.37895 0.0
C2576 C 0.96799 0.10298 0.35737 0.0
C2577 C 0.95999 0.11487 0.37574 0.0
C2578 C 0.95575 0.08518 0.34828 0.0
C2579 C 0.9347 0.0798 0.35749 0.0
C2580 C 0.92652 0.09181 0.37605 0.0
C2581 C 0.93942 0.10886 0.38515 0.0
C2582 C 0.96558 0.07223 0.32908 0.0
C2583 C 0.9038 0.08712 0.38602 0.0
C2584 C 0.88558 0.05287 0.32985 0.0
C2585 C 0.88408 0.0332 0.34235 0.0
C2586 C 0.90378 0.06731 0.33254 0.0
C2587 C 0.92061 0.06185 0.34814 0.0
C2588 C 0.92057 0.04076 0.35857 0.0
C2589 C 0.90222 0.0267 0.35563 0.0
C2590 C 0.90391 0.08932 0.32037 0.0
C2591 C 0.9387 0.03403 0.37466 0.0
H2592 H 0.98361 0.1078 0.35003 0.0
H2593 H 0.93279 0.11819 0.39913 0.0
H2594 H 0.97686 0.0592 0.33583 0.0
H2595 H 0.9527 0.06389 0.31877 0.0
H2596 H 0.97562 0.08327 0.31814 0.0
H2597 H 0.8998 0.09839 0.40016 0.0
H2598 H 0.8907 0.08916 0.37312 0.0
H2599 H 0.90299 0.06965 0.39206 0.0
H2600 H 0.87195 0.05764 0.31899 0.0
H2601 H 0.90149 0.01143 0.36512 0.0
H2602 H 0.92086 0.09308 0.31395 0.0
H2603 H 0.89921 0.10284 0.3321 0.0
H2604 H 0.89196 0.08944 0.30623 0.0
H2605 H 0.95534 0.03863 0.36799 0.0
H2606 H 0.93843 0.01583 0.37817 0.0
H2607 H 0.93635 0.04307 0.39064 0.0
C2608 C 0.9621 0.88994 0.36601 0.0
C2609 C 0.98473 0.89234 0.36158 0.0
C2610 C 0.94803 0.9084 0.36619 0.0
C2611 C 0.95699 0.92984 0.36164 0.0
C2612 C 0.98006 0.93243 0.35744 0.0
C2613 C 0.99379 0.91347 0.35757 0.0
C2614 C 0.92354 0.90476 0.37112 0.0
C2615 C 0.99009 0.95492 0.35223 0.0
C2616 C 0.90623 0.96128 0.34675 0.0
C2617 C 0.89907 0.96624 0.3683 0.0
C2618 C 0.92769 0.95273 0.34332 0.0
C2619 C 0.94167 0.94908 0.36201 0.0
C2620 C 0.93573 0.95797 0.38301 0.0
C2621 C 0.91416 0.96619 0.386 0.0
C2622 C 0.93379 0.94418 0.3205 0.0
C2623 C 0.95043 0.95514 0.40321 0.0
H2624 H 0.95537 0.87356 0.36928 0.0
H2625 H 0.01139 0.91508 0.35392 0.0
H2626 H 0.91847 0.91468 0.38588 0.0
H2627 H 0.91329 0.91036 0.35679 0.0
H2628 H 0.91955 0.88697 0.37446 0.0
H2629 H 0.00861 0.95436 0.35177 0.0
H2630 H 0.98401 0.96071 0.33577 0.0
H2631 H 0.98479 0.96749 0.36471 0.0
H2632 H 0.89443 0.96188 0.33307 0.0
H2633 H 0.90849 0.97068 0.40257 0.0
H2634 H 0.92901 0.92633 0.31923 0.0
H2635 H 0.952 0.94545 0.31751 0.0
H2636 H 0.92481 0.9535 0.30726 0.0
H2637 H 0.94731 0.93848 0.41066 0.0
H2638 H 0.94668 0.96797 0.41603 0.0
H2639 H 0.96834 0.95615 0.39875 0.0
C2640 C 0.11194 0.98435 0.33986 0.0
C2641 C 0.13232 0.97305 0.33964 0.0
C2642 C 0.09164 0.97265 0.33901 0.0
C2643 C 0.09202 0.94905 0.33841 0.0
C2644 C 0.11262 0.93782 0.3353 0.0
C2645 C 0.13242 0.95004 0.33556 0.0
C2646 C 0.07016 0.98566 0.34047 0.0
C2647 C 0.11421 0.91262 0.33449 0.0
C2648 C 0.06364 0.91018 0.37623 0.0
C2649 C 0.05636 0.89454 0.36062 0.0
C2650 C 0.07167 0.93092 0.36934 0.0
C2651 C 0.07275 0.93565 0.34624 0.0
C2652 C 0.06136 0.92167 0.33102 0.0
C2653 C 0.05359 0.90079 0.33834 0.0
C2654 C 0.08221 0.94607 0.38646 0.0
C2655 C 0.05999 0.92749 0.30665 0.0
H2656 H 0.11183 0.00214 0.3415 0.0
H2657 H 0.14811 0.9411 0.33479 0.0
H2658 H 0.05536 0.97539 0.33622 0.0
H2659 H 0.06814 0.99235 0.35758 0.0
H2660 H 0.07085 0.00025 0.32907 0.0
H2661 H 0.13152 0.90671 0.33156 0.0
H2662 H 0.10832 0.90541 0.35048 0.0
H2663 H 0.10353 0.90592 0.32101 0.0
H2664 H 0.06496 0.90539 0.39362 0.0
H2665 H 0.04719 0.88881 0.32641 0.0
H2666 H 0.07689 0.96355 0.38374 0.0
H2667 H 0.10064 0.94541 0.38483 0.0
H2668 H 0.07769 0.94118 0.40374 0.0
H2669 H 0.05922 0.94584 0.30426 0.0
H2670 H 0.04513 0.91966 0.29883 0.0
H2671 H 0.07502 0.92117 0.29792 0.0
C2672 C 0.14019 0.94625 0.69761 0.0
C2673 C 0.14068 0.96812 0.68962 0.0
C2674 C 0.12004 0.93445 0.69815 0.0
C2675 C 0.10039 0.94507 0.69044 0.0
C2676 C 0.10027 0.96829 0.68687 0.0
C2677 C 0.12069 0.97955 0.68626 0.0
C2678 C 0.12065 0.90974 0.70286 0.0
C2679 C 0.0794 0.98017 0.6794 0.0
C2680 C 0.07472 0.90779 0.64722 0.0
C2681 C 0.05872 0.89692 0.65994 0.0
C2682 C 0.08717 0.92514 0.65651 0.0
C2683 C 0.08343 0.93132 0.6791 0.0
C2684 C 0.06546 0.92198 0.69108 0.0
C2685 C 0.05327 0.90468 0.6813 0.0
C2686 C 0.10578 0.93522 0.64281 0.0
C2687 C 0.06044 0.92857 0.71483 0.0
H2688 H 0.15577 0.9374 0.70011 0.0
H2689 H 0.12132 0.99596 0.67912 0.0
H2690 H 0.10564 0.90447 0.71229 0.0
H2691 H 0.12082 0.90047 0.68685 0.0
H2692 H 0.13575 0.905 0.71247 0.0
H2693 H 0.08095 0.99844 0.68139 0.0
H2694 H 0.0763 0.9766 0.66152 0.0
H2695 H 0.0647 0.97428 0.68895 0.0
H2696 H 0.07883 0.90142 0.63081 0.0
H2697 H 0.04082 0.8959 0.69107 0.0
H2698 H 0.12213 0.9305 0.65008 0.0
H2699 H 0.10466 0.95367 0.64294 0.0
H2700 H 0.10539 0.9295 0.62521 0.0
H2701 H 0.07104 0.91864 0.72628 0.0
H2702 H 0.04274 0.92519 0.71913 0.0
H2703 H 0.06405 0.94647 0.71784 0.0
C2704 C 0.05475 0.11762 0.66899 0.0
C2705 C 0.03575 0.11778 0.6556 0.0
C2706 C 0.06894 0.09923 0.66894 0.0
C2707 C 0.06278 0.08 0.65665 0.0
C2708 C 0.0416 0.07881 0.64637 0.0
C2709 C 0.02852 0.09817 0.64526 0.0
C2710 C 0.09165 0.10156 0.67973 0.0
C2711 C 0.03371 0.05778 0.63506 0.0
C2712 C 0.1143 0.05209 0.63411 0.0
C2713 C 0.12076 0.04009 0.65298 0.0
C2714 C 0.09412 0.064 0.63414 0.0
C2715 C 0.0797 0.06253 0.65289 0.0
C2716 C 0.08489 0.04806 0.67058 0.0
C2717 C 0.10581 0.03798 0.67094 0.0
C2718 C 0.08968 0.08026 0.61545 0.0
C2719 C 0.06931 0.04511 0.69021 0.0
H2720 H 0.06021 0.13304 0.67674 0.0
H2721 H 0.01369 0.09849 0.63494 0.0
H2722 H 0.0943 0.08827 0.69227 0.0
H2723 H 0.10489 0.09982 0.66692 0.0
H2724 H 0.09382 0.11792 0.68815 0.0
H2725 H 0.01571 0.05855 0.63086 0.0
H2726 H 0.04319 0.05511 0.61943 0.0
H2727 H 0.03674 0.04312 0.64594 0.0
H2728 H 0.12596 0.05409 0.62045 0.0
H2729 H 0.11092 0.02971 0.68611 0.0
H2730 H 0.09163 0.09755 0.62178 0.0
H2731 H 0.07236 0.07857 0.60927 0.0
H2732 H 0.10131 0.07789 0.60123 0.0
H2733 H 0.06755 0.06098 0.69953 0.0
H2734 H 0.07525 0.03216 0.70202 0.0
H2735 H 0.05244 0.04046 0.68419 0.0
C2736 C 0.98503 0.1143 0.6857 0.0
C2737 C 0.97102 0.13186 0.6792 0.0
C2738 C 0.97674 0.09224 0.68729 0.0
C2739 C 0.95426 0.08767 0.68126 0.0
C2740 C 0.94003 0.10563 0.67545 0.0
C2741 C 0.94847 0.12731 0.67496 0.0
C2742 C 0.99225 0.07393 0.69479 0.0
C2743 C 0.91606 0.10201 0.66833 0.0
C2744 C 0.93101 0.04034 0.6488 0.0
C2745 C 0.91223 0.03569 0.66194 0.0
C2746 C 0.94755 0.05505 0.6563 0.0
C2747 C 0.94568 0.06447 0.67786 0.0
C2748 C 0.92957 0.05564 0.69279 0.0
C2749 C 0.91259 0.04159 0.68452 0.0
C2750 C 0.96415 0.06373 0.6395 0.0
C2751 C 0.92821 0.06373 0.71652 0.0
H2752 H 0.00234 0.11774 0.6895 0.0
H2753 H 0.93744 0.14071 0.66987 0.0
H2754 H 0.98305 0.06046 0.70357 0.0
H2755 H 0.00069 0.06653 0.68011 0.0
H2756 H 0.00542 0.08056 0.70598 0.0
H2757 H 0.90768 0.11775 0.66329 0.0
H2758 H 0.91534 0.09029 0.65404 0.0
H2759 H 0.90634 0.0946 0.68218 0.0
H2760 H 0.93094 0.0354 0.63141 0.0
H2761 H 0.89832 0.03773 0.69493 0.0
H2762 H 0.98018 0.06809 0.64746 0.0
H2763 H 0.95735 0.07907 0.63168 0.0
H2764 H 0.96732 0.05133 0.62611 0.0
H2765 H 0.94502 0.06784 0.72308 0.0
H2766 H 0.92033 0.05097 0.7274 0.0
H2767 H 0.91784 0.07903 0.71726 0.0
C2768 C 0.94913 0.88643 0.67171 0.0
C2769 C 0.97036 0.88686 0.68136 0.0
C2770 C 0.93399 0.90395 0.67514 0.0
C2771 C 0.93986 0.9219 0.68937 0.0
C2772 C 0.96042 0.92121 0.70098 0.0
C2773 C 0.9757 0.90396 0.69638 0.0
C2774 C 0.91251 0.90415 0.66198 0.0
C2775 C 0.96692 0.93944 0.71702 0.0
C2776 C 0.90904 0.9744 0.67212 0.0
C2777 C 0.88955 0.97239 0.68481 0.0
C2778 C 0.92681 0.9593 0.675 0.0
C2779 C 0.92485 0.94175 0.69079 0.0
C2780 C 0.90633 0.94136 0.70535 0.0
C2781 C 0.889 0.95677 0.70228 0.0
C2782 C 0.94654 0.96077 0.65947 0.0
C2783 C 0.90364 0.92326 0.72264 0.0
H2784 H 0.94527 0.87362 0.65954 0.0
H2785 H 0.99235 0.90464 0.70337 0.0
H2786 H 0.89804 0.90624 0.6733 0.0
H2787 H 0.91253 0.91854 0.65032 0.0
H2788 H 0.91012 0.88864 0.65215 0.0
H2789 H 0.98172 0.93476 0.72713 0.0
H2790 H 0.9709 0.95486 0.70762 0.0
H2791 H 0.95288 0.94336 0.72842 0.0
H2792 H 0.90963 0.98632 0.65856 0.0
H2793 H 0.87409 0.95529 0.71242 0.0
H2794 H 0.94479 0.94798 0.64622 0.0
H2795 H 0.96233 0.95739 0.66847 0.0
H2796 H 0.94772 0.97743 0.65144 0.0
H2797 H 0.8985 0.90755 0.71433 0.0
H2798 H 0.89076 0.92761 0.73522 0.0
H2799 H 0.91965 0.92 0.73131 0.0
C2800 C 0.36862 0.0383 0.11042 0.0
C2801 C 0.34698 0.03221 0.11666 0.0
C2802 C 0.37231 0.05042 0.09083 0.0
C2803 C 0.35402 0.05531 0.07668 0.0
C2804 C 0.33318 0.045 0.08075 0.0
C2805 C 0.32955 0.03436 0.1013 0.0
C2806 C 0.39508 0.0605 0.087 0.0
C2807 C 0.31417 0.0472 0.06448 0.0
C2808 C 0.35298 0.11625 0.06142 0.0
C2809 C 0.36705 0.1166 0.04292 0.0
C2810 C 0.34747 0.09614 0.07185 0.0
C2811 C 0.35509 0.0757 0.06258 0.0
C2812 C 0.36711 0.07595 0.04223 0.0
C2813 C 0.37391 0.0965 0.03323 0.0
C2814 C 0.33557 0.09714 0.09408 0.0
C2815 C 0.37412 0.05483 0.03052 0.0
H2816 H 0.38216 0.03622 0.12222 0.0
H2817 H 0.31289 0.02899 0.10586 0.0
H2818 H 0.40137 0.05573 0.07032 0.0
H2819 H 0.39399 0.07899 0.08756 0.0
H2820 H 0.40745 0.05499 0.09963 0.0
H2821 H 0.30262 0.03277 0.06584 0.0
H2822 H 0.30452 0.06254 0.06813 0.0
H2823 H 0.32046 0.04834 0.0471 0.0
H2824 H 0.34818 0.13192 0.06909 0.0
H2825 H 0.38552 0.09672 0.01943 0.0
H2826 H 0.34569 0.08876 0.1071 0.0
H2827 H 0.31936 0.08837 0.09305 0.0
H2828 H 0.33231 0.11453 0.09957 0.0
H2829 H 0.39247 0.05284 0.03175 0.0
H2830 H 0.3701 0.05613 0.0125 0.0
H2831 H 0.36586 0.03974 0.03735 0.0
C2832 C 0.96286 0.38776 0.1218 0.0
C2833 C 0.97671 0.36917 0.12392 0.0
C2834 C 0.94985 0.39057 0.10258 0.0
C2835 C 0.95185 0.37505 0.08481 0.0
C2836 C 0.96775 0.35778 0.08597 0.0
C2837 C 0.97926 0.35448 0.1059 0.0
C2838 C 0.93251 0.40882 0.10222 0.0
C2839 C 0.97141 0.34172 0.06694 0.0
C2840 C 0.89689 0.36374 0.05699 0.0
C2841 C 0.89674 0.3805 0.04086 0.0
C2842 C 0.9154 0.36089 0.07078 0.0
C2843 C 0.9345 0.3744 0.06735 0.0
C2844 C 0.93544 0.38913 0.04895 0.0
C2845 C 0.91613 0.3926 0.03628 0.0
C2846 C 0.91351 0.34518 0.0904 0.0
C2847 C 0.95619 0.4023 0.04363 0.0
H2848 H 0.96077 0.39896 0.13583 0.0
H2849 H 0.98955 0.33975 0.10767 0.0
H2850 H 0.93411 0.41893 0.08685 0.0
H2851 H 0.9156 0.40126 0.10217 0.0
H2852 H 0.93386 0.42009 0.11685 0.0
H2853 H 0.98833 0.33419 0.06768 0.0
H2854 H 0.95907 0.32798 0.06793 0.0
H2855 H 0.96933 0.35012 0.05059 0.0
H2856 H 0.88169 0.35454 0.06042 0.0
H2857 H 0.91587 0.40542 0.02352 0.0
H2858 H 0.91449 0.35482 0.10616 0.0
H2859 H 0.92748 0.33311 0.0904 0.0
H2860 H 0.89761 0.33567 0.09033 0.0
H2861 H 0.95708 0.41716 0.05459 0.0
H2862 H 0.95618 0.40812 0.02605 0.0
H2863 H 0.97139 0.39215 0.04657 0.0
C2864 C 0.68966 0.98595 0.11735 0.0
C2865 C 0.67037 0.98631 0.13046 0.0
C2866 C 0.69016 0.97353 0.09747 0.0
C2867 C 0.67154 0.96012 0.09178 0.0
C2868 C 0.6519 0.96099 0.10492 0.0
C2869 C 0.65141 0.97463 0.12371 0.0
C2870 C 0.71067 0.97444 0.08293 0.0
C2871 C 0.63195 0.94621 0.1003 0.0
C2872 C 0.65426 0.92632 0.04236 0.0
C2873 C 0.66194 0.90522 0.04875 0.0
C2874 C 0.66072 0.9454 0.0543 0.0
C2875 C 0.67306 0.9428 0.07424 0.0
C2876 C 0.68178 0.92159 0.07998 0.0
C2877 C 0.67666 0.90319 0.06665 0.0
C2878 C 0.65291 0.96812 0.04673 0.0
C2879 C 0.69364 0.91757 0.10183 0.0
H2880 H 0.70432 0.99503 0.12278 0.0
H2881 H 0.63669 0.97475 0.13423 0.0
H2882 H 0.72187 0.96032 0.08697 0.0
H2883 H 0.70615 0.97322 0.06503 0.0
H2884 H 0.72014 0.99013 0.08567 0.0
H2885 H 0.61885 0.94773 0.11331 0.0
H2886 H 0.62437 0.95064 0.08406 0.0
H2887 H 0.6372 0.92848 0.0994 0.0
H2888 H 0.6426 0.92775 0.02863 0.0
H2889 H 0.68203 0.88668 0.07178 0.0
H2890 H 0.66754 0.97934 0.04495 0.0
H2891 H 0.64174 0.97575 0.05932 0.0
H2892 H 0.6439 0.96738 0.03059 0.0
H2893 H 0.70793 0.92909 0.1037 0.0
H2894 H 0.69991 0.9002 0.10336 0.0
H2895 H 0.682 0.9208 0.11586 0.0
C2896 C 0.0432 0.65527 0.1114 0.0
C2897 C 0.03088 0.6722 0.12157 0.0
C2898 C 0.0565 0.65971 0.09275 0.0
C2899 C 0.05662 0.68149 0.08346 0.0
C2900 C 0.0417 0.69777 0.09185 0.0
C2901 C 0.02951 0.69318 0.11139 0.0
C2902 C 0.07232 0.64177 0.08476 0.0
C2903 C 0.0399 0.72054 0.08135 0.0
C2904 C 0.1155 0.69195 0.06536 0.0
C2905 C 0.11521 0.68125 0.0447 0.0
C2906 C 0.09566 0.69499 0.0774 0.0
C2907 C 0.07515 0.68769 0.06808 0.0
C2908 C 0.07455 0.68078 0.04555 0.0
C2909 C 0.09473 0.67726 0.03419 0.0
C2910 C 0.09725 0.70256 0.10133 0.0
C2911 C 0.05298 0.67423 0.03441 0.0
H2912 H 0.04442 0.63916 0.11957 0.0
H2913 H 0.02001 0.70633 0.11938 0.0
H2914 H 0.07025 0.63893 0.06664 0.0
H2915 H 0.08981 0.64714 0.0876 0.0
H2916 H 0.0697 0.62563 0.09349 0.0
H2917 H 0.0234 0.72821 0.08489 0.0
H2918 H 0.05293 0.73165 0.08832 0.0
H2919 H 0.04233 0.71966 0.06304 0.0
H2920 H 0.13138 0.69487 0.07351 0.0
H2921 H 0.09452 0.66914 0.01806 0.0
H2922 H 0.09491 0.68799 0.11252 0.0
H2923 H 0.08401 0.71483 0.10524 0.0
H2924 H 0.11369 0.71024 0.10509 0.0
H2925 H 0.04919 0.65652 0.03817 0.0
H2926 H 0.05421 0.67596 0.01601 0.0
H2927 H 0.03888 0.68454 0.04055 0.0
C2928 C 0.31798 0.97383 0.89576 0.0
C2929 C 0.33874 0.98343 0.89077 0.0
C2930 C 0.31584 0.9581 0.91301 0.0
C2931 C 0.33499 0.95163 0.92517 0.0
C2932 C 0.35513 0.96369 0.92228 0.0
C2933 C 0.35677 0.97942 0.90503 0.0
C2934 C 0.29384 0.9463 0.91609 0.0
C2935 C 0.37598 0.95768 0.93502 0.0
C2936 C 0.33922 0.90509 0.9683 0.0
C2937 C 0.34751 0.8878 0.95495 0.0
C2938 C 0.33338 0.9258 0.95878 0.0
C2939 C 0.33597 0.92901 0.9355 0.0
C2940 C 0.34235 0.91076 0.92189 0.0
C2941 C 0.34802 0.89044 0.93182 0.0
C2942 C 0.32614 0.94463 0.97378 0.0
C2943 C 0.34529 0.91317 0.89698 0.0
H2944 H 0.30394 0.97694 0.88481 0.0
H2945 H 0.37291 0.98665 0.90119 0.0
H2946 H 0.29402 0.93044 0.90656 0.0
H2947 H 0.29095 0.94215 0.93387 0.0
H2948 H 0.27973 0.95659 0.90991 0.0
H2949 H 0.38858 0.97125 0.93429 0.0
H2950 H 0.37214 0.95406 0.95272 0.0
H2951 H 0.38344 0.94243 0.92763 0.0
H2952 H 0.33895 0.90302 0.98622 0.0
H2953 H 0.35463 0.87706 0.92159 0.0
H2954 H 0.31169 0.95358 0.96648 0.0
H2955 H 0.3399 0.95687 0.97546 0.0
H2956 H 0.3216 0.93861 0.99069 0.0
H2957 H 0.32999 0.92018 0.88933 0.0
H2958 H 0.34906 0.89701 0.88875 0.0
H2959 H 0.3592 0.92487 0.89344 0.0
C2960 C 0.14196 0.33599 0.9437 0.0
C2961 C 0.1396 0.3393 0.96663 0.0
C2962 C 0.12311 0.33282 0.93041 0.0
C2963 C 0.10191 0.33182 0.94075 0.0
C2964 C 0.10027 0.33046 0.96422 0.0
C2965 C 0.11933 0.33448 0.97703 0.0
C2966 C 0.12564 0.33445 0.90542 0.0
C2967 C 0.07804 0.32834 0.97579 0.0
C2968 C 0.05819 0.36508 0.90989 0.0
C2969 C 0.0469 0.34818 0.89851 0.0
C2970 C 0.07564 0.35982 0.92449 0.0
C2971 C 0.08188 0.33717 0.92752 0.0
C2972 C 0.06987 0.32004 0.91687 0.0
C2973 C 0.05233 0.32574 0.90269 0.0
C2974 C 0.08808 0.37856 0.93586 0.0
C2975 C 0.07627 0.29582 0.91949 0.0
H2976 H 0.1578 0.33981 0.93581 0.0
H2977 H 0.11767 0.33707 0.99484 0.0
H2978 H 0.11385 0.3232 0.89671 0.0
H2979 H 0.12189 0.35178 0.90008 0.0
H2980 H 0.1429 0.33039 0.90002 0.0
H2981 H 0.08003 0.32222 0.99315 0.0
H2982 H 0.0699 0.34495 0.9764 0.0
H2983 H 0.0668 0.31686 0.96662 0.0
H2984 H 0.05396 0.38238 0.90677 0.0
H2985 H 0.04356 0.31252 0.89403 0.0
H2986 H 0.10567 0.37881 0.9301 0.0
H2987 H 0.08827 0.37587 0.95415 0.0
H2988 H 0.08053 0.39513 0.93243 0.0
H2989 H 0.09283 0.2929 0.91176 0.0
H2990 H 0.06403 0.28442 0.91153 0.0
H2991 H 0.07774 0.29143 0.93738 0.0
C2992 C 0.66643 0.10149 0.97889 0.0
C2993 C 0.64598 0.11097 0.9728 0.0
C2994 C 0.6739 0.08158 0.9692 0.0
C2995 C 0.66223 0.07272 0.95073 0.0
C2996 C 0.64161 0.08242 0.94425 0.0
C2997 C 0.63325 0.10058 0.95619 0.0
C2998 C 0.69469 0.0709 0.97847 0.0
C2999 C 0.629 0.07496 0.9237 0.0
C3000 C 0.69236 0.05147 0.9005 0.0
C3001 C 0.67878 0.03313 0.89541 0.0
C3002 C 0.68881 0.06382 0.91996 0.0
C3003 C 0.67284 0.05623 0.93565 0.0
C3004 C 0.66284 0.03508 0.93271 0.0
C3005 C 0.6647 0.02455 0.91197 0.0
C3006 C 0.70006 0.08629 0.92213 0.0
C3007 C 0.64816 0.02471 0.9503 0.0
H3008 H 0.67711 0.10989 0.99061 0.0
H3009 H 0.61748 0.1078 0.9511 0.0
H3010 H 0.69838 0.05441 0.97092 0.0
H3011 H 0.70914 0.08221 0.97601 0.0
H3012 H 0.69276 0.06868 0.99675 0.0
H3013 H 0.6162 0.0873 0.9185 0.0
H3014 H 0.64048 0.07229 0.90944 0.0
H3015 H 0.6203 0.05904 0.92717 0.0
H3016 H 0.70362 0.05793 0.88791 0.0
H3017 H 0.65345 0.01104 0.9082 0.0
H3018 H 0.71131 0.08621 0.93675 0.0
H3019 H 0.68748 0.09964 0.92464 0.0
H3020 H 0.71017 0.09061 0.90722 0.0
H3021 H 0.65095 0.03225 0.96697 0.0
H3022 H 0.65148 0.0065 0.95132 0.0
H3023 H 0.63038 0.02669 0.94566 0.0
C3024 C 0.95116 0.65761 0.88689 0.0
C3025 C 0.97365 0.66281 0.88376 0.0
C3026 C 0.94178 0.65686 0.908 0.0
C3027 C 0.95523 0.6618 0.9268 0.0
C3028 C 0.97811 0.66712 0.9239 0.0
C3029 C 0.98719 0.66738 0.90222 0.0
C3030 C 0.91742 0.65039 0.9099 0.0
C3031 C 0.99283 0.67292 0.94343 0.0
C3032 C 0.91013 0.67325 0.96608 0.0
C3033 C 0.90433 0.65102 0.97013 0.0
C3034 C 0.93033 0.67825 0.95541 0.0
C3035 C 0.94457 0.66052 0.94902 0.0
C3036 C 0.94095 0.63898 0.95795 0.0
C3037 C 0.92038 0.63427 0.96791 0.0
C3038 C 0.93413 0.70167 0.94711 0.0
C3039 C 0.95659 0.61992 0.95303 0.0
H3040 H 0.94079 0.65354 0.87265 0.0
H3041 H 0.00462 0.67145 0.8997 0.0
H3042 H 0.91571 0.63487 0.91979 0.0
H3043 H 0.90785 0.66374 0.91835 0.0
H3044 H 0.90954 0.64739 0.89342 0.0
H3045 H 0.01081 0.67156 0.93911 0.0
H3046 H 0.98947 0.69037 0.94856 0.0
H3047 H 0.98929 0.66207 0.95797 0.0
H3048 H 0.89788 0.6863 0.96862 0.0
H3049 H 0.91615 0.61719 0.97214 0.0
H3050 H 0.92714 0.70326 0.93005 0.0
H3051 H 0.95219 0.70557 0.94629 0.0
H3052 H 0.92568 0.71409 0.95795 0.0
H3053 H 0.95176 0.6121 0.93698 0.0
H3054 H 0.95557 0.60696 0.96623 0.0
H3055 H 0.97408 0.62575 0.95159 0.0
C3056 C 0.12364 0.3728 0.05813 0.0
C3057 C 0.13177 0.35562 0.04462 0.0
C3058 C 0.10669 0.36851 0.07378 0.0
C3059 C 0.09822 0.3465 0.07612 0.0
C3060 C 0.1056 0.32948 0.06172 0.0
C3061 C 0.12195 0.33435 0.04592 0.0
C3062 C 0.09832 0.38733 0.08825 0.0
C3063 C 0.09702 0.30585 0.06367 0.0
C3064 C 0.07254 0.33769 0.13306 0.0
C3065 C 0.05011 0.34167 0.12814 0.0
C3066 C 0.08845 0.33715 0.11584 0.0
C3067 C 0.08156 0.34128 0.09361 0.0
C3068 C 0.05863 0.34223 0.08846 0.0
C3069 C 0.04317 0.34145 0.10581 0.0
C3070 C 0.11275 0.33449 0.12171 0.0
C3071 C 0.05034 0.34742 0.06523 0.0
H3072 H 0.13109 0.38925 0.05712 0.0
H3073 H 0.12783 0.32104 0.03519 0.0
H3074 H 0.07982 0.38787 0.08799 0.0
H3075 H 0.10352 0.38447 0.10576 0.0
H3076 H 0.10486 0.40379 0.0828 0.0
H3077 H 0.10437 0.2946 0.05092 0.0
H3078 H 0.10103 0.29917 0.08045 0.0
H3079 H 0.07862 0.30548 0.0619 0.0
H3080 H 0.07802 0.3378 0.15028 0.0
H3081 H 0.02589 0.3447 0.10197 0.0
H3082 H 0.12094 0.35109 0.12163 0.0
H3083 H 0.12139 0.32387 0.10926 0.0
H3084 H 0.11492 0.32701 0.13851 0.0
H3085 H 0.05211 0.36559 0.06217 0.0
H3086 H 0.03246 0.34297 0.06319 0.0
H3087 H 0.06014 0.33863 0.05228 0.0
C3088 C 0.1318 0.6326 0.95157 0.0
C3089 C 0.12719 0.63437 0.97429 0.0
C3090 C 0.11447 0.63128 0.936 0.0
C3091 C 0.09204 0.63178 0.94351 0.0
C3092 C 0.08744 0.63124 0.96665 0.0
C3093 C 0.10519 0.6327 0.98186 0.0
C3094 C 0.12021 0.63192 0.91149 0.0
C3095 C 0.06383 0.63135 0.97534 0.0
C3096 C 0.05805 0.66456 0.9022 0.0
C3097 C 0.04943 0.64754 0.88889 0.0
C3098 C 0.07014 0.65957 0.92152 0.0
C3099 C 0.07413 0.63696 0.9272 0.0
C3100 C 0.06386 0.61975 0.91472 0.0
C3101 C 0.05151 0.62529 0.89562 0.0
C3102 C 0.08048 0.67849 0.93453 0.0
C3103 C 0.06762 0.5955 0.92026 0.0
H3104 H 0.1489 0.63422 0.94586 0.0
H3105 H 0.10179 0.63414 -0.00046 0.0
H3106 H 0.11017 0.61955 0.90211 0.0
H3107 H 0.11625 0.64868 0.9047 0.0
H3108 H 0.13817 0.6285 0.90845 0.0
H3109 H 0.06307 0.62627 0.99313 0.0
H3110 H 0.05685 0.64843 0.9739 0.0
H3111 H 0.05309 0.62004 0.96539 0.0
H3112 H 0.05647 0.68174 0.89675 0.0
H3113 H 0.04504 0.61216 0.88499 0.0
H3114 H 0.09873 0.67886 0.93142 0.0
H3115 H 0.07794 0.67606 0.95267 0.0
H3116 H 0.07342 0.69494 0.92973 0.0
H3117 H 0.08456 0.59051 0.91475 0.0
H3118 H 0.0553 0.58452 0.91183 0.0
H3119 H 0.06665 0.59271 0.93851 0.0
C3120 C 0.3237 0.11971 0.97395 0.0
C3121 C 0.34365 0.12751 0.98332 0.0
C3122 C 0.3233 0.09983 0.96151 0.0
C3123 C 0.34346 0.08809 0.95786 0.0
C3124 C 0.36286 0.0944 0.96977 0.0
C3125 C 0.36273 0.11416 0.9822 0.0
C3126 C 0.302 0.09306 0.95003 0.0
C3127 C 0.38474 0.08234 0.96662 0.0
C3128 C 0.35539 0.03947 0.91886 0.0
C3129 C 0.3626 0.05112 0.89996 0.0
C3130 C 0.34683 0.05108 0.93744 0.0
C3131 C 0.34634 0.07475 0.93713 0.0
C3132 C 0.35215 0.08628 0.91734 0.0
C3133 C 0.3599 0.07426 0.89902 0.0
C3134 C 0.33963 0.03812 0.95774 0.0
C3135 C 0.35214 0.11149 0.91602 0.0
H3136 H 0.30885 0.12999 0.97485 0.0
H3137 H 0.3783 0.12044 0.98888 0.0
H3138 H 0.30158 0.10041 0.93307 0.0
H3139 H 0.30091 0.07466 0.9483 0.0
H3140 H 0.28716 0.09918 0.95927 0.0
H3141 H 0.39723 0.08719 0.9794 0.0
H3142 H 0.38232 0.06404 0.9674 0.0
H3143 H 0.39164 0.08642 0.94994 0.0
H3144 H 0.35763 0.02163 0.91971 0.0
H3145 H 0.36536 0.0832 0.88425 0.0
H3146 H 0.32501 0.04608 0.96582 0.0
H3147 H 0.35339 0.03778 0.97006 0.0
H3148 H 0.33537 0.0206 0.95343 0.0
H3149 H 0.33548 0.11817 0.92042 0.0
H3150 H 0.35659 0.11769 0.89915 0.0
H3151 H 0.36434 0.11841 0.92809 0.0
C3152 C 0.97829 0.35778 0.92587 0.0
C3153 C 0.96612 0.35726 0.906 0.0
C3154 C 0.96805 0.35194 0.94612 0.0
C3155 C 0.94516 0.34609 0.94617 0.0
C3156 C 0.93368 0.34338 0.92565 0.0
C3157 C 0.94442 0.34899 0.9058 0.0
C3158 C 0.98129 0.35389 0.96738 0.0
C3159 C 0.90929 0.33698 0.92465 0.0
C3160 C 0.90221 0.32785 0.98664 0.0
C3161 C 0.89077 0.34806 0.98912 0.0
C3162 C 0.92316 0.32738 0.97623 0.0
C3163 C 0.93168 0.34727 0.96685 0.0
C3164 C 0.92175 0.36799 0.97241 0.0
C3165 C 0.90148 0.3681 0.98392 0.0
C3166 C 0.93462 0.30531 0.97262 0.0
C3167 C 0.93029 0.38975 0.96301 0.0
H3168 H 0.99517 0.36429 0.92584 0.0
H3169 H 0.93522 0.34871 0.89023 0.0
H3170 H 0.98158 0.37156 0.97285 0.0
H3171 H 0.9741 0.34362 0.98098 0.0
H3172 H 0.99886 0.34874 0.96456 0.0
H3173 H 0.90314 0.33532 0.90727 0.0
H3174 H 0.90651 0.32088 0.93326 0.0
H3175 H 0.89905 0.34981 0.93321 0.0
H3176 H 0.89402 0.31235 0.99108 0.0
H3177 H 0.89258 0.38372 0.98593 0.0
H3178 H 0.953 0.30745 0.97172 0.0
H3179 H 0.92892 0.29788 0.95669 0.0
H3180 H 0.93053 0.29342 0.98623 0.0
H3181 H 0.94851 0.39124 0.9656 0.0
H3182 H 0.92203 0.40441 0.97075 0.0
H3183 H 0.92713 0.39025 0.94479 0.0
C3184 C 0.67887 0.97322 0.90977 0.0
C3185 C 0.6575 0.96647 0.903 0.0
C3186 C 0.6886 0.96451 0.92921 0.0
C3187 C 0.67762 0.94711 0.94079 0.0
C3188 C 0.65572 0.94083 0.93443 0.0
C3189 C 0.64575 0.95112 0.91612 0.0
C3190 C 0.71081 0.97359 0.93668 0.0
C3191 C 0.6432 0.92212 0.9459 0.0
C3192 C 0.70247 0.89471 0.96167 0.0
C3193 C 0.691 0.89332 0.98208 0.0
C3194 C 0.7014 0.91411 0.94873 0.0
C3195 C 0.68959 0.93277 0.95703 0.0
C3196 C 0.68305 0.93308 0.97964 0.0
C3197 C 0.68325 0.91303 0.99174 0.0
C3198 C 0.70956 0.91317 0.92494 0.0
C3199 C 0.67307 0.95358 0.99013 0.0
H3200 H 0.6882 0.985 0.89975 0.0
H3201 H 0.62912 0.94597 0.91125 0.0
H3202 H 0.71452 0.96942 0.95431 0.0
H3203 H 0.72423 0.96681 0.92592 0.0
H3204 H 0.71109 0.99203 0.93475 0.0
H3205 H 0.62708 0.91825 0.93764 0.0
H3206 H 0.6534 0.90668 0.94606 0.0
H3207 H 0.63964 0.92676 0.96341 0.0
H3208 H 0.70972 0.87984 0.95438 0.0
H3209 H 0.67559 0.9124 0.0078 0.0
H3210 H 0.71928 0.92832 0.92085 0.0
H3211 H 0.69505 0.91247 0.91348 0.0
H3212 H 0.72021 0.89834 0.92179 0.0
H3213 H 0.67653 0.96889 0.9803 0.0
H3214 H 0.67992 0.95579 0.00717 0.0
H3215 H 0.65476 0.95145 0.99172 0.0
C3216 C 0.93926 0.64172 0.11669 0.0
C3217 C 0.96201 0.64669 0.11885 0.0
C3218 C 0.92641 0.65095 0.0997 0.0
C3219 C 0.93659 0.66536 0.08405 0.0
C3220 C 0.95955 0.6707 0.08611 0.0
C3221 C 0.97199 0.66142 0.10375 0.0
C3222 C 0.9019 0.64503 0.09846 0.0
C3223 C 0.97094 0.68592 0.06964 0.0
C3224 C 0.90226 0.6621 0.0321 0.0
C3225 C 0.88636 0.67878 0.03617 0.0
C3226 C 0.92044 0.65907 0.04634 0.0
C3227 C 0.92295 0.67325 0.065 0.0
C3228 C 0.9083 0.69159 0.06783 0.0
C3229 C 0.88986 0.6939 0.05358 0.0
C3230 C 0.9353 0.63903 0.04285 0.0
C3231 C 0.9109 0.70754 0.08708 0.0
H3232 H 0.93123 0.63086 0.12872 0.0
H3233 H 0.98946 0.66537 0.10547 0.0
H3234 H 0.89161 0.66038 0.09922 0.0
H3235 H 0.89822 0.63663 0.08241 0.0
H3236 H 0.89659 0.63382 0.11223 0.0
H3237 H 0.98838 0.68979 0.07457 0.0
H3238 H 0.97119 0.67795 0.05296 0.0
H3239 H 0.96151 0.70175 0.068 0.0
H3240 H 0.89969 0.65023 0.01878 0.0
H3241 H 0.87779 0.70705 0.05651 0.0
H3242 H 0.93037 0.62567 0.05468 0.0
H3243 H 0.953 0.64322 0.04617 0.0
H3244 H 0.93391 0.63231 0.02565 0.0
H3245 H 0.90361 0.69997 0.1023 0.0
H3246 H 0.90219 0.72357 0.08385 0.0
H3247 H 0.92876 0.71099 0.09046 0.0
C3248 C 0.38353 0.97532 0.10517 0.0
C3249 C 0.36438 0.9731 0.11834 0.0
C3250 C 0.38621 0.96261 0.08581 0.0
C3251 C 0.36895 0.94797 0.07925 0.0
C3252 C 0.34819 0.94847 0.0906 0.0
C3253 C 0.34625 0.96084 0.11039 0.0
C3254 C 0.40862 0.96253 0.07434 0.0
C3255 C 0.32896 0.9339 0.08352 0.0
C3256 C 0.37381 0.91319 0.02665 0.0
C3257 C 0.3803 0.89252 0.0354 0.0
C3258 C 0.37078 0.93175 0.04053 0.0
C3259 C 0.37412 0.92938 0.06372 0.0
C3260 C 0.38199 0.90881 0.07243 0.0
C3261 C 0.38514 0.89062 0.05807 0.0
C3262 C 0.36241 0.9533 0.03058 0.0
C3263 C 0.38561 0.90553 0.09713 0.0
H3264 H 0.39758 0.98476 0.11156 0.0
H3265 H 0.33152 0.95904 0.12073 0.0
H3266 H 0.41787 0.94724 0.07918 0.0
H3267 H 0.40665 0.96227 0.05598 0.0
H3268 H 0.41884 0.97725 0.07905 0.0
H3269 H 0.31284 0.94048 0.08986 0.0
H3270 H 0.32803 0.93253 0.06511 0.0
H3271 H 0.33134 0.91688 0.09039 0.0
H3272 H 0.36976 0.91445 0.0091 0.0
H3273 H 0.38946 0.87441 0.06487 0.0
H3274 H 0.3716 0.9678 0.03747 0.0
H3275 H 0.34455 0.95549 0.03491 0.0
H3276 H 0.36402 0.95346 0.01214 0.0
H3277 H 0.39669 0.91876 0.10379 0.0
H3278 H 0.39306 0.88901 0.101 0.0
H3279 H 0.36942 0.90684 0.10599 0.0
C3280 C 0.65786 0.10336 0.03179 0.0
C3281 C 0.67731 0.11621 0.0333 0.0
C3282 C 0.65571 0.08362 0.04403 0.0
C3283 C 0.67311 0.07737 0.05865 0.0
C3284 C 0.69424 0.08765 0.05655 0.0
C3285 C 0.69605 0.10735 0.04406 0.0
C3286 C 0.63331 0.07223 0.04463 0.0
C3287 C 0.71369 0.08037 0.07066 0.0
C3288 C 0.65157 0.0755 0.11745 0.0
C3289 C 0.64907 0.05264 0.12128 0.0
C3290 C 0.66002 0.08353 0.09741 0.0
C3291 C 0.66667 0.06821 0.08067 0.0
C3292 C 0.66521 0.04498 0.08475 0.0
C3293 C 0.65602 0.03742 0.10502 0.0
C3294 C 0.66097 0.10856 0.09407 0.0
C3295 C 0.67248 0.02811 0.06759 0.0
H3296 H 0.64334 0.11 0.02336 0.0
H3297 H 0.71133 0.117 0.04477 0.0
H3298 H 0.63523 0.05397 0.04671 0.0
H3299 H 0.62358 0.07866 0.05901 0.0
H3300 H 0.62365 0.07551 0.02918 0.0
H3301 H 0.72978 0.08484 0.06262 0.0
H3302 H 0.71289 0.08897 0.08701 0.0
H3303 H 0.71324 0.06211 0.0737 0.0
H3304 H 0.64649 0.08731 0.13017 0.0
H3305 H 0.65345 0.01982 0.10764 0.0
H3306 H 0.65052 0.11346 0.07964 0.0
H3307 H 0.67833 0.1139 0.09065 0.0
H3308 H 0.65495 0.11794 0.10886 0.0
H3309 H 0.6581 0.02366 0.05688 0.0
H3310 H 0.6783 0.01257 0.0757 0.0
H3311 H 0.68603 0.03462 0.0568 0.0
C3312 C 0.53986 0.60932 0.83065 0.0
C3313 C 0.54169 0.62323 0.84926 0.0
C3314 C 0.5496 0.58796 0.83087 0.0
C3315 C 0.5622 0.58119 0.84967 0.0
C3316 C 0.56211 0.59455 0.86919 0.0
C3317 C 0.55156 0.61531 0.86875 0.0
C3318 C 0.54782 0.57344 0.81044 0.0
C3319 C 0.57531 0.58827 0.88971 0.0
C3320 C 0.59585 0.53105 0.86568 0.0
C3321 C 0.61712 0.53871 0.85992 0.0
C3322 C 0.5768 0.54289 0.85886 0.0
C3323 C 0.5795 0.56356 0.84771 0.0
C3324 C 0.60091 0.56987 0.83986 0.0
C3325 C 0.6194 0.55689 0.84555 0.0
C3326 C 0.55409 0.53451 0.86565 0.0
C3327 C 0.60494 0.59204 0.82854 0.0
H3328 H 0.53183 0.61549 0.81569 0.0
H3329 H 0.55263 0.62622 0.88314 0.0
H3330 H 0.5624 0.57636 0.79945 0.0
H3331 H 0.54762 0.55549 0.81502 0.0
H3332 H 0.53253 0.57739 0.80078 0.0
H3333 H 0.57283 0.60026 0.90361 0.0
H3334 H 0.5704 0.57148 0.89564 0.0
H3335 H 0.59336 0.58774 0.88563 0.0
H3336 H 0.59418 0.51679 0.87667 0.0
H3337 H 0.63599 0.56275 0.8413 0.0
H3338 H 0.54101 0.54021 0.85386 0.0
H3339 H 0.54986 0.54091 0.88246 0.0
H3340 H 0.55388 0.51599 0.86645 0.0
H3341 H 0.59341 0.5943 0.81432 0.0
H3342 H 0.62231 0.5937 0.8223 0.0
H3343 H 0.60177 0.60579 0.84053 0.0
C3344 C 0.39965 0.56599 0.86219 0.0
C3345 C 0.39388 0.54666 0.85057 0.0
C3346 C 0.42133 0.57426 0.86194 0.0
C3347 C 0.43802 0.56284 0.84966 0.0
C3348 C 0.43258 0.54259 0.83861 0.0
C3349 C 0.41037 0.53467 0.83917 0.0
C3350 C 0.42599 0.59563 0.87456 0.0
C3351 C 0.44986 0.52963 0.82577 0.0
C3352 C 0.47586 0.60975 0.83852 0.0
C3353 C 0.48503 0.61118 0.85989 0.0
C3354 C 0.46316 0.59106 0.83244 0.0
C3355 C 0.46042 0.57347 0.84799 0.0
C3356 C 0.47451 0.57265 0.86688 0.0
C3357 C 0.48626 0.59194 0.87305 0.0
C3358 C 0.44903 0.59246 0.81172 0.0
C3359 C 0.47364 0.55333 0.8829 0.0
H3360 H 0.3869 0.57492 0.87143 0.0
H3361 H 0.40585 0.51954 0.83038 0.0
H3362 H 0.43867 0.59261 0.88765 0.0
H3363 H 0.43255 0.60856 0.86308 0.0
H3364 H 0.41087 0.60247 0.88279 0.0
H3365 H 0.44499 0.51183 0.82397 0.0
H3366 H 0.45152 0.53682 0.80883 0.0
H3367 H 0.46643 0.53053 0.83394 0.0
H3368 H 0.47528 0.62459 0.82817 0.0
H3369 H 0.49389 0.59289 0.8894 0.0
H3370 H 0.43239 0.59924 0.81618 0.0
H3371 H 0.44657 0.57576 0.80421 0.0
H3372 H 0.45665 0.60371 0.79913 0.0
H3373 H 0.46018 0.55625 0.89527 0.0
H3374 H 0.48964 0.55167 0.89209 0.0
H3375 H 0.47004 0.53749 0.87407 0.0
C3376 C 0.39347 0.45382 0.8826 0.0
C3377 C 0.39672 0.47685 0.88035 0.0
C3378 C 0.41124 0.43894 0.8809 0.0
C3379 C 0.43286 0.44728 0.87662 0.0
C3380 C 0.43616 0.47051 0.87337 0.0
C3381 C 0.41792 0.48518 0.87546 0.0
C3382 C 0.40681 0.41428 0.88392 0.0
C3383 C 0.45889 0.47977 0.86788 0.0
C3384 C 0.47788 0.40506 0.89116 0.0
C3385 C 0.48116 0.3949 0.87044 0.0
C3386 C 0.46325 0.42336 0.89322 0.0
C3387 C 0.45149 0.4312 0.87422 0.0
C3388 C 0.45527 0.42135 0.85324 0.0
C3389 C 0.47007 0.40351 0.85162 0.0
C3390 C 0.45967 0.43377 0.9158 0.0
C3391 C 0.44256 0.42849 0.83267 0.0
H3392 H 0.37695 0.44746 0.88633 0.0
H3393 H 0.42036 0.50303 0.87402 0.0
H3394 H 0.41169 0.40506 0.86865 0.0
H3395 H 0.41703 0.40767 0.89784 0.0
H3396 H 0.38899 0.41067 0.88749 0.0
H3397 H 0.45881 0.49824 0.8667 0.0
H3398 H 0.4711 0.47462 0.88078 0.0
H3399 H 0.46473 0.47287 0.85175 0.0
H3400 H 0.48651 0.39863 0.90566 0.0
H3401 H 0.47225 0.39578 0.83545 0.0
H3402 H 0.44251 0.43007 0.92167 0.0
H3403 H 0.46128 0.45217 0.91466 0.0
H3404 H 0.47171 0.42744 0.92836 0.0
H3405 H 0.42528 0.42192 0.83359 0.0
H3406 H 0.45033 0.42208 0.81713 0.0
H3407 H 0.44145 0.44692 0.83153 0.0
C3408 C 0.54889 0.41752 0.84727 0.0
C3409 C 0.55664 0.39693 0.83937 0.0
C3410 C 0.56033 0.4373 0.84228 0.0
C3411 C 0.57998 0.43615 0.82928 0.0
C3412 C 0.58527 0.41601 0.81802 0.0
C3413 C 0.57353 0.39644 0.82337 0.0
C3414 C 0.55364 0.45844 0.85417 0.0
C3415 C 0.60571 0.41417 0.8035 0.0
C3416 C 0.62235 0.48324 0.82271 0.0
C3417 C 0.63704 0.47789 0.84001 0.0
C3418 C 0.60271 0.47066 0.81958 0.0
C3419 C 0.59829 0.45227 0.8338 0.0
C3420 C 0.61268 0.44785 0.85202 0.0
C3421 C 0.63176 0.4608 0.85488 0.0
C3422 C 0.58725 0.47646 0.80065 0.0
C3423 C 0.60868 0.42867 0.86794 0.0
H3424 H 0.53569 0.41782 0.85965 0.0
H3425 H 0.57952 0.38048 0.81732 0.0
H3426 H 0.56257 0.45941 0.87034 0.0
H3427 H 0.55807 0.47346 0.84433 0.0
H3428 H 0.53545 0.45863 0.8577 0.0
H3429 H 0.60476 0.39946 0.79229 0.0
H3430 H 0.60798 0.42941 0.79328 0.0
H3431 H 0.62066 0.41229 0.81425 0.0
H3432 H 0.62654 0.49665 0.81134 0.0
H3433 H 0.64325 0.45691 0.86831 0.0
H3434 H 0.56963 0.47614 0.80629 0.0
H3435 H 0.58896 0.46389 0.78722 0.0
H3436 H 0.59098 0.49318 0.79358 0.0
H3437 H 0.59198 0.4302 0.87574 0.0
H3438 H 0.62132 0.42795 0.88144 0.0
H3439 H 0.60914 0.41262 0.85875 0.0
C3440 C 0.53327 0.41037 0.185 0.0
C3441 C 0.53692 0.39392 0.16887 0.0
C3442 C 0.54493 0.43075 0.18406 0.0
C3443 C 0.56128 0.43402 0.16729 0.0
C3444 C 0.56467 0.41736 0.15086 0.0
C3445 C 0.5521 0.39773 0.15165 0.0
C3446 C 0.54029 0.44834 0.20142 0.0
C3447 C 0.58248 0.4196 0.13315 0.0
C3448 C 0.59113 0.48518 0.14661 0.0
C3449 C 0.61186 0.4824 0.15692 0.0
C3450 C 0.57309 0.47135 0.15224 0.0
C3451 C 0.5764 0.45371 0.16762 0.0
C3452 C 0.59669 0.45247 0.17968 0.0
C3453 C 0.61402 0.4673 0.17453 0.0
C3454 C 0.55139 0.474 0.13985 0.0
C3455 C 0.60144 0.43348 0.19552 0.0
H3456 H 0.52153 0.40722 0.19838 0.0
H3457 H 0.55503 0.38471 0.13944 0.0
H3458 H 0.55299 0.44733 0.21479 0.0
H3459 H 0.54115 0.46532 0.19409 0.0
H3460 H 0.52362 0.44597 0.20917 0.0
H3461 H 0.58343 0.4047 0.12218 0.0
H3462 H 0.57915 0.43438 0.12258 0.0
H3463 H 0.59902 0.42206 0.14108 0.0
H3464 H 0.58959 0.4968 0.13284 0.0
H3465 H 0.63026 0.46495 0.18214 0.0
H3466 H 0.53705 0.47007 0.15082 0.0
H3467 H 0.55095 0.46229 0.12555 0.0
H3468 H 0.54943 0.49121 0.13327 0.0
H3469 H 0.58724 0.43069 0.20697 0.0
H3470 H 0.61669 0.43651 0.20558 0.0
H3471 H 0.6039 0.41791 0.1858 0.0
C3472 C 0.5711 0.63221 0.18055 0.0
C3473 C 0.54901 0.62901 0.17394 0.0
C3474 C 0.58422 0.61401 0.18726 0.0
C3475 C 0.57457 0.59238 0.18816 0.0
C3476 C 0.55132 0.58998 0.18524 0.0
C3477 C 0.53896 0.6082 0.1774 0.0
C3478 C 0.609 0.61747 0.19003 0.0
C3479 C 0.53995 0.56764 0.18757 0.0
C3480 C 0.61299 0.5496 0.16249 0.0
C3481 C 0.6257 0.54336 0.18096 0.0
C3482 C 0.59524 0.56463 0.16479 0.0
C3483 C 0.58935 0.57251 0.18631 0.0
C3484 C 0.60013 0.56356 0.20529 0.0
C3485 C 0.61876 0.54964 0.20236 0.0
C3486 C 0.58453 0.57387 0.14394 0.0
C3487 C 0.59313 0.56993 0.22857 0.0
H3488 H 0.57897 0.64822 0.17748 0.0
H3489 H 0.52213 0.60547 0.17169 0.0
H3490 H 0.61518 0.6088 0.20511 0.0
H3491 H 0.61785 0.6103 0.17545 0.0
H3492 H 0.61342 0.63542 0.19131 0.0
H3493 H 0.52211 0.56975 0.19212 0.0
H3494 H 0.54059 0.55864 0.17144 0.0
H3495 H 0.54826 0.55715 0.20034 0.0
H3496 H 0.61856 0.54488 0.14595 0.0
H3497 H 0.62864 0.54474 0.21667 0.0
H3498 H 0.58752 0.59212 0.1429 0.0
H3499 H 0.56625 0.57124 0.1444 0.0
H3500 H 0.59113 0.56599 0.12854 0.0
H3501 H 0.60138 0.58575 0.23342 0.0
H3502 H 0.59808 0.55694 0.2408 0.0
H3503 H 0.57482 0.57248 0.22958 0.0
C3504 C 0.4182 0.53617 0.13565 0.0
C3505 C 0.39723 0.54365 0.14257 0.0
C3506 C 0.43725 0.54932 0.13927 0.0
C3507 C 0.43474 0.5709 0.14855 0.0
C3508 C 0.41355 0.5781 0.15614 0.0
C3509 C 0.39513 0.56412 0.15342 0.0
C3510 C 0.45974 0.54057 0.13218 0.0
C3511 C 0.40995 0.60119 0.16562 0.0
C3512 C 0.47791 0.61 0.17141 0.0
C3513 C 0.48056 0.62493 0.1536 0.0
C3514 C 0.46517 0.59061 0.16908 0.0
C3515 C 0.45358 0.5869 0.14895 0.0
C3516 C 0.45716 0.60126 0.1305 0.0
C3517 C 0.47107 0.61993 0.13293 0.0
C3518 C 0.46269 0.57511 0.18877 0.0
C3519 C 0.44458 0.59822 0.10893 0.0
H3520 H 0.41962 0.52053 0.12672 0.0
H3521 H 0.37868 0.56992 0.15828 0.0
H3522 H 0.46443 0.54806 0.11595 0.0
H3523 H 0.47278 0.54519 0.14446 0.0
H3524 H 0.45958 0.52214 0.13025 0.0
H3525 H 0.39244 0.60395 0.17099 0.0
H3526 H 0.42101 0.60398 0.18014 0.0
H3527 H 0.41424 0.6139 0.15287 0.0
H3528 H 0.48531 0.61381 0.18745 0.0
H3529 H 0.47293 0.63161 0.11925 0.0
H3530 H 0.46242 0.55744 0.18326 0.0
H3531 H 0.4467 0.57856 0.19739 0.0
H3532 H 0.47644 0.57737 0.20097 0.0
H3533 H 0.44591 0.58075 0.10304 0.0
H3534 H 0.45078 0.60948 0.09559 0.0
H3535 H 0.42663 0.60177 0.11174 0.0
C3536 C 0.40786 0.48349 0.15458 0.0
C3537 C 0.39746 0.48756 0.17502 0.0
C3538 C 0.42813 0.47202 0.15367 0.0
C3539 C 0.4382 0.4649 0.17381 0.0
C3540 C 0.43001 0.47301 0.19436 0.0
C3541 C 0.40922 0.48375 0.19484 0.0
C3542 C 0.43658 0.46436 0.13124 0.0
C3543 C 0.44166 0.46769 0.21596 0.0
C3544 C 0.44963 0.40372 0.16894 0.0
C3545 C 0.47075 0.40388 0.15925 0.0
C3546 C 0.43943 0.42351 0.17556 0.0
C3547 C 0.45127 0.44391 0.17339 0.0
C3548 C 0.47387 0.44366 0.16644 0.0
C3549 C 0.48325 0.42357 0.15873 0.0
C3550 C 0.41507 0.42265 0.18217 0.0
C3551 C 0.48767 0.46463 0.16545 0.0
H3552 H 0.39876 0.48644 0.13924 0.0
H3553 H 0.40131 0.48727 0.2107 0.0
H3554 H 0.4547 0.46758 0.12974 0.0
H3555 H 0.43388 0.44611 0.12949 0.0
H3556 H 0.42797 0.47291 0.11726 0.0
H3557 H 0.43743 0.4801 0.22903 0.0
H3558 H 0.43636 0.45102 0.22198 0.0
H3559 H 0.46003 0.46732 0.21359 0.0
H3560 H 0.44014 0.38829 0.16916 0.0
H3561 H 0.49962 0.42361 0.15107 0.0
H3562 H 0.40491 0.43233 0.17011 0.0
H3563 H 0.41265 0.43015 0.19886 0.0
H3564 H 0.40847 0.40534 0.18268 0.0
H3565 H 0.48993 0.46977 0.14783 0.0
H3566 H 0.50448 0.46128 0.1723 0.0
H3567 H 0.4801 0.47861 0.17493 0.0
C3568 C 0.8777 0.5467 0.613 0.0
C3569 C 0.85981 0.54025 0.62643 0.0
C3570 C 0.87521 0.56461 0.59802 0.0
C3571 C 0.85459 0.57625 0.59704 0.0
C3572 C 0.83658 0.56965 0.61051 0.0
C3573 C 0.83941 0.5518 0.62495 0.0
C3574 C 0.89466 0.57142 0.5836 0.0
C3575 C 0.81458 0.58203 0.61043 0.0
C3576 C 0.859 0.63657 0.58097 0.0
C3577 C 0.8543 0.63556 0.55819 0.0
C3578 C 0.85841 0.6174 0.59402 0.0
C3579 C 0.85251 0.59694 0.58396 0.0
C3580 C 0.84487 0.59642 0.56163 0.0
C3581 C 0.84575 0.61602 0.54888 0.0
C3582 C 0.86607 0.61877 0.61798 0.0
C3583 C 0.83744 0.57494 0.55084 0.0
H3584 H 0.89338 0.53777 0.6141 0.0
H3585 H 0.82554 0.54726 0.63561 0.0
H3586 H 0.88951 0.5718 0.56584 0.0
H3587 H 0.9001 0.58854 0.5881 0.0
H3588 H 0.90909 0.55994 0.5854 0.0
H3589 H 0.8017 0.5736 0.62073 0.0
H3590 H 0.81702 0.59914 0.61704 0.0
H3591 H 0.80816 0.5837 0.59319 0.0
H3592 H 0.86552 0.65193 0.58801 0.0
H3593 H 0.84156 0.61563 0.53134 0.0
H3594 H 0.88221 0.6099 0.61981 0.0
H3595 H 0.85391 0.6105 0.62919 0.0
H3596 H 0.86835 0.63627 0.62362 0.0
H3597 H 0.8519 0.56351 0.5493 0.0
H3598 H 0.83024 0.57775 0.53402 0.0
H3599 H 0.82484 0.56642 0.56136 0.0
C3600 C 0.39232 0.82414 0.58326 0.0
C3601 C 0.39006 0.82956 0.5607 0.0
C3602 C 0.41342 0.82276 0.59311 0.0
C3603 C 0.43262 0.82636 0.57981 0.0
C3604 C 0.43038 0.82688 0.55631 0.0
C3605 C 0.40892 0.82881 0.5469 0.0
C3606 C 0.41481 0.82132 0.6182 0.0
C3607 C 0.45062 0.82814 0.54149 0.0
C3608 C 0.46535 0.86977 0.61043 0.0
C3609 C 0.47842 0.85655 0.62449 0.0
C3610 C 0.45231 0.86022 0.59364 0.0
C3611 C 0.45241 0.83672 0.59076 0.0
C3612 C 0.46797 0.82367 0.60285 0.0
C3613 C 0.48065 0.83371 0.61991 0.0
C3614 C 0.43655 0.87517 0.58082 0.0
C3615 C 0.4701 0.79891 0.59913 0.0
H3616 H 0.37763 0.82415 0.59382 0.0
H3617 H 0.40718 0.83239 0.52929 0.0
H3618 H 0.42759 0.80899 0.62326 0.0
H3619 H 0.41978 0.83779 0.62507 0.0
H3620 H 0.39863 0.81648 0.62582 0.0
H3621 H 0.44633 0.82484 0.52379 0.0
H3622 H 0.45824 0.84495 0.54267 0.0
H3623 H 0.46336 0.81592 0.54703 0.0
H3624 H 0.4641 0.88754 0.61362 0.0
H3625 H 0.49113 0.82347 0.63048 0.0
H3626 H 0.41905 0.87117 0.58533 0.0
H3627 H 0.43843 0.87247 0.56265 0.0
H3628 H 0.43948 0.89314 0.58429 0.0
H3629 H 0.46026 0.78987 0.61192 0.0
H3630 H 0.48776 0.79362 0.601 0.0
H3631 H 0.46406 0.79388 0.5824 0.0
C3632 C 0.13405 0.40648 0.56621 0.0
C3633 C 0.14741 0.39534 0.55062 0.0
C3634 C 0.14226 0.42442 0.57846 0.0
C3635 C 0.16365 0.43317 0.57334 0.0
C3636 C 0.17636 0.42347 0.55596 0.0
C3637 C 0.16874 0.40373 0.54591 0.0
C3638 C 0.12839 0.43285 0.59781 0.0
C3639 C 0.19809 0.43338 0.54806 0.0
C3640 C 0.16165 0.4827 0.60968 0.0
C3641 C 0.17293 0.47457 0.62839 0.0
C3642 C 0.16311 0.4716 0.58914 0.0
C3643 C 0.17316 0.45028 0.58844 0.0
C3644 C 0.18639 0.44307 0.6066 0.0
C3645 C 0.1869 0.45594 0.62603 0.0
C3646 C 0.15126 0.48109 0.5691 0.0
C3647 C 0.19694 0.42019 0.6071 0.0
H3648 H 0.11756 0.4002 0.57014 0.0
H3649 H 0.17956 0.39494 0.53446 0.0
H3650 H 0.13874 0.43481 0.613 0.0
H3651 H 0.12112 0.44932 0.59367 0.0
H3652 H 0.11437 0.42144 0.60191 0.0
H3653 H 0.19881 0.43298 0.52956 0.0
H3654 H 0.20037 0.45087 0.55368 0.0
H3655 H 0.2122 0.42311 0.55415 0.0
H3656 H 0.14992 0.49626 0.61154 0.0
H3657 H 0.19598 0.44975 0.64038 0.0
H3658 H 0.13324 0.47705 0.5699 0.0
H3659 H 0.15815 0.47423 0.55334 0.0
H3660 H 0.15275 0.49953 0.56874 0.0
H3661 H 0.18367 0.40726 0.60729 0.0
H3662 H 0.20767 0.41772 0.62198 0.0
H3663 H 0.20725 0.41748 0.59205 0.0
C3664 C 0.5487 0.20141 0.62203 0.0
C3665 C 0.53384 0.18381 0.62632 0.0
C3666 C 0.56288 0.20091 0.60337 0.0
C3667 C 0.56189 0.1825 0.58861 0.0
C3668 C 0.54399 0.1672 0.5906 0.0
C3669 C 0.5305 0.16774 0.60973 0.0
C3670 C 0.58141 0.21787 0.60195 0.0
C3671 C 0.54165 0.14775 0.57482 0.0
C3672 C 0.60887 0.17132 0.54652 0.0
C3673 C 0.62154 0.15561 0.55832 0.0
C3674 C 0.58905 0.18022 0.55575 0.0
C3675 C 0.58292 0.17457 0.57791 0.0
C3676 C 0.59685 0.16026 0.59045 0.0
C3677 C 0.61549 0.15074 0.58042 0.0
C3678 C 0.57441 0.19499 0.54163 0.0
C3679 C 0.59195 0.15441 0.61453 0.0
H3680 H 0.55119 0.21415 0.63461 0.0
H3681 H 0.51962 0.1538 0.61295 0.0
H3682 H 0.5962 0.2114 0.611 0.0
H3683 H 0.58641 0.22104 0.58446 0.0
H3684 H 0.57643 0.2339 0.6098 0.0
H3685 H 0.5242 0.14153 0.57442 0.0
H3686 H 0.54682 0.15239 0.55768 0.0
H3687 H 0.55253 0.13391 0.58055 0.0
H3688 H 0.61419 0.17643 0.53013 0.0
H3689 H 0.62555 0.13941 0.59026 0.0
H3690 H 0.57119 0.21103 0.55022 0.0
H3691 H 0.55802 0.18679 0.53908 0.0
H3692 H 0.58191 0.19845 0.52506 0.0
H3693 H 0.58959 0.16978 0.62454 0.0
H3694 H 0.60553 0.14453 0.62232 0.0
H3695 H 0.57637 0.14449 0.61556 0.0
C3696 C 0.83896 0.41 0.45882 0.0
C3697 C 0.85871 0.40874 0.47105 0.0
C3698 C 0.83264 0.43011 0.44875 0.0
C3699 C 0.84633 0.44919 0.45151 0.0
C3700 C 0.86337 0.44889 0.46781 0.0
C3701 C 0.87002 0.42833 0.47682 0.0
C3702 C 0.81373 0.42982 0.43219 0.0
C3703 C 0.87673 0.46951 0.47307 0.0
C3704 C 0.86353 0.47124 0.39541 0.0
C3705 C 0.84739 0.48749 0.39145 0.0
C3706 C 0.86405 0.45953 0.41546 0.0
C3707 C 0.8484 0.46485 0.43242 0.0
C3708 C 0.83341 0.4829 0.42927 0.0
C3709 C 0.83268 0.49374 0.40843 0.0
C3710 C 0.8804 0.44041 0.41767 0.0
C3711 C 0.81756 0.4903 0.4473 0.0
H3712 H 0.83014 0.39475 0.45469 0.0
H3713 H 0.88508 0.42734 0.48675 0.0
H3714 H 0.80329 0.44495 0.43402 0.0
H3715 H 0.82063 0.4297 0.41502 0.0
H3716 H 0.80295 0.41488 0.43427 0.0
H3717 H 0.88329 0.46883 0.49036 0.0
H3718 H 0.89117 0.47066 0.46156 0.0
H3719 H 0.86648 0.48481 0.47103 0.0
H3720 H 0.87493 0.46666 0.38212 0.0
H3721 H 0.82037 0.50661 0.4053 0.0
H3722 H 0.87138 0.42463 0.42117 0.0
H3723 H 0.89198 0.44356 0.43169 0.0
H3724 H 0.89055 0.43795 0.40237 0.0
H3725 H 0.80074 0.48339 0.44391 0.0
H3726 H 0.81602 0.50877 0.44727 0.0
H3727 H 0.82298 0.48479 0.4641 0.0
C3728 C 0.52911 0.82592 0.39976 0.0
C3729 C 0.53787 0.83441 0.37987 0.0
C3730 C 0.54176 0.82619 0.41945 0.0
C3731 C 0.56324 0.83598 0.41921 0.0
C3732 C 0.57229 0.84403 0.39888 0.0
C3733 C 0.55952 0.84291 0.37939 0.0
C3734 C 0.53174 0.8171 0.44065 0.0
C3735 C 0.59488 0.85519 0.39794 0.0
C3736 C 0.59054 0.86835 0.46498 0.0
C3737 C 0.60953 0.85528 0.4685 0.0
C3738 C 0.57342 0.86089 0.45099 0.0
C3739 C 0.57567 0.83999 0.44023 0.0
C3740 C 0.5932 0.82544 0.44649 0.0
C3741 C 0.61 0.83327 0.46079 0.0
C3742 C 0.5548 0.87683 0.44523 0.0
C3743 C 0.59593 0.80287 0.43574 0.0
H3744 H 0.5121 0.81975 0.40005 0.0
H3745 H 0.56594 0.84998 0.36404 0.0
H3746 H 0.54399 0.80647 0.44955 0.0
H3747 H 0.52733 0.83107 0.45192 0.0
H3748 H 0.51644 0.80717 0.4374 0.0
H3749 H 0.59981 0.85968 0.38066 0.0
H3750 H 0.59461 0.87065 0.4081 0.0
H3751 H 0.60783 0.84406 0.40504 0.0
H3752 H 0.59026 0.88537 0.4711 0.0
H3753 H 0.62479 0.82323 0.4635 0.0
H3754 H 0.53873 0.86793 0.44317 0.0
H3755 H 0.55872 0.8852 0.4292 0.0
H3756 H 0.55273 0.8899 0.4582 0.0
H3757 H 0.57956 0.79453 0.43362 0.0
H3758 H 0.60707 0.79189 0.44566 0.0
H3759 H 0.60341 0.805 0.41895 0.0
C3760 C 0.16795 0.53768 0.41105 0.0
C3761 C 0.18558 0.53356 0.39634 0.0
C3762 C 0.17007 0.55376 0.42793 0.0
C3763 C 0.19055 0.56534 0.43049 0.0
C3764 C 0.20933 0.55861 0.41792 0.0
C3765 C 0.20655 0.54298 0.40072 0.0
C3766 C 0.14954 0.56032 0.44096 0.0
C3767 C 0.23172 0.56967 0.42092 0.0
C3768 C 0.18074 0.62612 0.44456 0.0
C3769 C 0.18088 0.62537 0.46782 0.0
C3770 C 0.18543 0.6069 0.43204 0.0
C3771 C 0.19098 0.58672 0.44315 0.0
C3772 C 0.19385 0.58677 0.46654 0.0
C3773 C 0.18844 0.60606 0.47865 0.0
C3774 C 0.18201 0.60762 0.40712 0.0
C3775 C 0.20052 0.56596 0.47901 0.0
H3776 H 0.15169 0.53053 0.40761 0.0
H3777 H 0.22024 0.53975 0.38936 0.0
H3778 H 0.15345 0.56204 0.45892 0.0
H3779 H 0.14351 0.57677 0.43497 0.0
H3780 H 0.13584 0.548 0.43903 0.0
H3781 H 0.24539 0.55939 0.4138 0.0
H3782 H 0.23171 0.58605 0.41231 0.0
H3783 H 0.23521 0.57275 0.43881 0.0
H3784 H 0.17443 0.64091 0.43626 0.0
H3785 H 0.1883 0.60546 0.49672 0.0
H3786 H 0.16721 0.59743 0.40264 0.0
H3787 H 0.1966 0.60039 0.39837 0.0
H3788 H 0.17935 0.62488 0.40091 0.0
H3789 H 0.18581 0.55489 0.48087 0.0
H3790 H 0.2069 0.56993 0.49593 0.0
H3791 H 0.21349 0.55655 0.46975 0.0
C3792 C 0.46929 0.15687 0.39035 0.0
C3793 C 0.48525 0.17378 0.38925 0.0
C3794 C 0.45319 0.15671 0.40707 0.0
C3795 C 0.45401 0.1731 0.42408 0.0
C3796 C 0.47125 0.1893 0.42403 0.0
C3797 C 0.48626 0.19001 0.40598 0.0
C3798 C 0.43476 0.13948 0.40583 0.0
C3799 C 0.47387 0.20565 0.44294 0.0
C3800 C 0.39625 0.17781 0.4475 0.0
C3801 C 0.39616 0.15862 0.46068 0.0
C3802 C 0.41609 0.18485 0.43715 0.0
C3803 C 0.43618 0.17295 0.44119 0.0
C3804 C 0.43652 0.15584 0.45733 0.0
C3805 C 0.41632 0.14807 0.46591 0.0
C3806 C 0.41478 0.20277 0.41956 0.0
C3807 C 0.45782 0.14382 0.46334 0.0
H3808 H 0.46836 0.14466 0.37703 0.0
H3809 H 0.49859 0.20318 0.40485 0.0
H3810 H 0.43647 0.12738 0.41969 0.0
H3811 H 0.41819 0.14756 0.40741 0.0
H3812 H 0.43507 0.12997 0.38994 0.0
H3813 H 0.48668 0.21854 0.4393 0.0
H3814 H 0.45783 0.21402 0.44676 0.0
H3815 H 0.47895 0.19647 0.45817 0.0
H3816 H 0.38056 0.18577 0.44333 0.0
H3817 H 0.41616 0.13301 0.47592 0.0
H3818 H 0.4146 0.1948 0.40286 0.0
H3819 H 0.42949 0.21394 0.42025 0.0
H3820 H 0.39943 0.213 0.4213 0.0
H3821 H 0.46227 0.13186 0.44996 0.0
H3822 H 0.45606 0.13433 0.47914 0.0
H3823 H 0.47179 0.15586 0.46499 0.0
C3824 C 0.53836 0.84753 0.60192 0.0
C3825 C 0.55292 0.85427 0.61886 0.0
C3826 C 0.54677 0.83964 0.58142 0.0
C3827 C 0.57016 0.83948 0.57778 0.0
C3828 C 0.58477 0.84511 0.59551 0.0
C3829 C 0.5759 0.852 0.61583 0.0
C3830 C 0.53057 0.83276 0.56349 0.0
C3831 C 0.60987 0.84546 0.59272 0.0
C3832 C 0.6113 0.81596 0.53871 0.0
C3833 C 0.61842 0.83581 0.52866 0.0
C3834 C 0.59172 0.81552 0.55153 0.0
C3835 C 0.58012 0.8357 0.55536 0.0
C3836 C 0.58506 0.85456 0.54197 0.0
C3837 C 0.60413 0.85426 0.52843 0.0
C3838 C 0.58578 0.79453 0.56401 0.0
C3839 C 0.57297 0.87641 0.54503 0.0
H3840 H 0.52062 0.84975 0.60406 0.0
H3841 H 0.5871 0.85721 0.62905 0.0
H3842 H 0.52668 0.84732 0.55279 0.0
H3843 H 0.53764 0.81944 0.55275 0.0
H3844 H 0.51463 0.82678 0.57082 0.0
H3845 H 0.61863 0.85108 0.60803 0.0
H3846 H 0.61605 0.82856 0.58851 0.0
H3847 H 0.61461 0.85685 0.57893 0.0
H3848 H 0.62214 0.80148 0.53845 0.0
H3849 H 0.60953 0.86957 0.52044 0.0
H3850 H 0.56754 0.79351 0.567 0.0
H3851 H 0.5943 0.79453 0.58042 0.0
H3852 H 0.59129 0.77948 0.55471 0.0
H3853 H 0.55493 0.87372 0.54787 0.0
H3854 H 0.57514 0.88748 0.53034 0.0
H3855 H 0.57985 0.8851 0.55985 0.0
C3856 C 0.54129 0.16218 0.41292 0.0
C3857 C 0.54846 0.14244 0.40267 0.0
C3858 C 0.55055 0.16926 0.43336 0.0
C3859 C 0.56851 0.15708 0.44289 0.0
C3860 C 0.57532 0.13681 0.43277 0.0
C3861 C 0.56463 0.12943 0.41347 0.0
C3862 C 0.5413 0.19009 0.44397 0.0
C3863 C 0.59518 0.12355 0.44103 0.0
C3864 C 0.61987 0.18253 0.46656 0.0
C3865 C 0.62362 0.16769 0.48427 0.0
C3866 C 0.6001 0.18171 0.45419 0.0
C3867 C 0.58308 0.16667 0.46066 0.0
C3868 C 0.5849 0.15563 0.48149 0.0
C3869 C 0.60566 0.15516 0.49245 0.0
C3870 C 0.59884 0.19473 0.43266 0.0
C3871 C 0.56574 0.14243 0.49095 0.0
H3872 H 0.52897 0.17243 0.40479 0.0
H3873 H 0.57029 0.11401 0.40594 0.0
H3874 H 0.54922 0.19416 0.46016 0.0
H3875 H 0.54333 0.2044 0.43239 0.0
H3876 H 0.52311 0.18796 0.44668 0.0
H3877 H 0.60016 0.11013 0.42927 0.0
H3878 H 0.60982 0.13458 0.44358 0.0
H3879 H 0.59113 0.11556 0.45717 0.0
H3880 H 0.6335 0.19285 0.46065 0.0
H3881 H 0.60817 0.14381 0.50627 0.0
H3882 H 0.58427 0.20608 0.43308 0.0
H3883 H 0.59667 0.18321 0.41834 0.0
H3884 H 0.61401 0.20494 0.42966 0.0
H3885 H 0.54951 0.14838 0.48432 0.0
H3886 H 0.56558 0.14376 0.50942 0.0
H3887 H 0.5677 0.12454 0.48671 0.0
C3888 C 0.85277 0.5606 0.4083 0.0
C3889 C 0.86831 0.54466 0.40148 0.0
C3890 C 0.85482 0.57074 0.4292 0.0
C3891 C 0.8731 0.56493 0.44298 0.0
C3892 C 0.88591 0.54582 0.43787 0.0
C3893 C 0.88329 0.53575 0.41696 0.0
C3894 C 0.83965 0.59001 0.43487 0.0
C3895 C 0.90457 0.53816 0.45281 0.0
C3896 C 0.89826 0.61931 0.46158 0.0
C3897 C 0.88791 0.62191 0.48223 0.0
C3898 C 0.89552 0.59948 0.44947 0.0
C3899 C 0.88207 0.58209 0.45839 0.0
C3900 C 0.87424 0.58362 0.48051 0.0
C3901 C 0.8774 0.60358 0.49222 0.0
C3902 C 0.90471 0.59831 0.42607 0.0
C3903 C 0.86033 0.56552 0.4911 0.0
H3904 H 0.84101 0.56724 0.39628 0.0
H3905 H 0.89511 0.52314 0.41162 0.0
H3906 H 0.83529 0.58981 0.45284 0.0
H3907 H 0.84838 0.60594 0.43129 0.0
H3908 H 0.82403 0.58956 0.42493 0.0
H3909 H 0.90838 0.52022 0.45008 0.0
H3910 H 0.91981 0.54795 0.44897 0.0
H3911 H 0.9004 0.5408 0.47062 0.0
H3912 H 0.90624 0.63357 0.45381 0.0
H3913 H 0.86975 0.60556 0.50839 0.0
H3914 H 0.89088 0.60035 0.41394 0.0
H3915 H 0.91255 0.58184 0.42296 0.0
H3916 H 0.91725 0.61157 0.42286 0.0
H3917 H 0.84248 0.57033 0.49024 0.0
H3918 H 0.86476 0.56374 0.50896 0.0
H3919 H 0.86239 0.54912 0.48281 0.0
C3920 C 0.40054 0.89565 0.46669 0.0
C3921 C 0.40099 0.88418 0.48692 0.0
C3922 C 0.41907 0.89513 0.45247 0.0
C3923 C 0.43843 0.88321 0.45906 0.0
C3924 C 0.44004 0.87481 0.481 0.0
C3925 C 0.42106 0.87507 0.49463 0.0
C3926 C 0.41666 0.9045 0.42924 0.0
C3927 C 0.46067 0.86299 0.48915 0.0
C3928 C 0.45707 0.85135 0.40878 0.0
C3929 C 0.47247 0.86626 0.39969 0.0
C3930 C 0.44777 0.85531 0.42976 0.0
C3931 C 0.45376 0.87494 0.4415 0.0
C3932 C 0.47151 0.88834 0.43366 0.0
C3933 C 0.48085 0.88373 0.4127 0.0
C3934 C 0.42957 0.83994 0.43798 0.0
C3935 C 0.47889 0.90892 0.44608 0.0
H3936 H 0.38489 0.90252 0.46077 0.0
H3937 H 0.42135 0.86632 0.51044 0.0
H3938 H 0.43198 0.91354 0.42418 0.0
H3939 H 0.41411 0.89059 0.41729 0.0
H3940 H 0.40222 0.91603 0.42789 0.0
H3941 H 0.46305 0.86595 0.50726 0.0
H3942 H 0.45867 0.84477 0.4866 0.0
H3943 H 0.47588 0.86851 0.48017 0.0
H3944 H 0.45079 0.83779 0.3986 0.0
H3945 H 0.49279 0.89527 0.40552 0.0
H3946 H 0.41318 0.84842 0.43649 0.0
H3947 H 0.43216 0.83577 0.45579 0.0
H3948 H 0.42889 0.82415 0.4283 0.0
H3949 H 0.46731 0.92284 0.44227 0.0
H3950 H 0.49597 0.91409 0.44106 0.0
H3951 H 0.47854 0.90613 0.46435 0.0
C3952 C 0.1404 0.44822 0.4141 0.0
C3953 C 0.15174 0.46682 0.40547 0.0
C3954 C 0.1485 0.43637 0.43233 0.0
C3955 C 0.1676 0.44425 0.44374 0.0
C3956 C 0.17793 0.46437 0.43661 0.0
C3957 C 0.1703 0.47505 0.41706 0.0
C3958 C 0.13713 0.41459 0.43836 0.0
C3959 C 0.19737 0.47439 0.449 0.0
C3960 C 0.16523 0.40647 0.49249 0.0
C3961 C 0.17979 0.38947 0.48574 0.0
C3962 C 0.16511 0.42726 0.4817 0.0
C3963 C 0.17716 0.42984 0.46159 0.0
C3964 C 0.19325 0.41358 0.45571 0.0
C3965 C 0.19509 0.39412 0.46856 0.0
C3966 C 0.1498 0.44531 0.49014 0.0
C3967 C 0.20587 0.41479 0.43397 0.0
H3968 H 0.12575 0.44182 0.40568 0.0
H3969 H 0.17921 0.48937 0.41067 0.0
H3970 H 0.14955 0.40097 0.44001 0.0
H3971 H 0.12837 0.41631 0.45452 0.0
H3972 H 0.12462 0.4094 0.42573 0.0
H3973 H 0.19674 0.4929 0.4482 0.0
H3974 H 0.19771 0.46916 0.46674 0.0
H3975 H 0.21318 0.46914 0.44097 0.0
H3976 H 0.15258 0.40311 0.50483 0.0
H3977 H 0.20665 0.38128 0.46321 0.0
H3978 H 0.13287 0.44297 0.4831 0.0
H3979 H 0.15592 0.46209 0.4852 0.0
H3980 H 0.1484 0.44456 0.50859 0.0
H3981 H 0.19431 0.41086 0.42005 0.0
H3982 H 0.21992 0.40272 0.4334 0.0
H3983 H 0.21256 0.43174 0.4311 0.0
C3984 C 0.39955 0.11702 0.55006 0.0
C3985 C 0.39926 0.12977 0.53061 0.0
C3986 C 0.41806 0.11793 0.56434 0.0
C3987 C 0.4369 0.13093 0.55819 0.0
C3988 C 0.43762 0.14148 0.53725 0.0
C3989 C 0.41845 0.14147 0.52411 0.0
C3990 C 0.41641 0.10708 0.58699 0.0
C3991 C 0.45781 0.15457 0.52972 0.0
C3992 C 0.46296 0.1581 0.60822 0.0
C3993 C 0.47764 0.14131 0.61473 0.0
C3994 C 0.45053 0.15577 0.58866 0.0
C3995 C 0.45379 0.13661 0.57516 0.0
C3996 C 0.47115 0.12148 0.58007 0.0
C3997 C 0.48259 0.12372 0.60024 0.0
C3998 C 0.432 0.17225 0.5842 0.0
C3999 C 0.47608 0.10175 0.56528 0.0
H4000 H 0.3845 0.10846 0.5553 0.0
H4001 H 0.41788 0.15224 0.50971 0.0
H4002 H 0.43124 0.09652 0.5902 0.0
H4003 H 0.41599 0.12018 0.60006 0.0
H4004 H 0.40121 0.09661 0.58869 0.0
H4005 H 0.45623 0.16039 0.51223 0.0
H4006 H 0.46022 0.16937 0.54053 0.0
H4007 H 0.47302 0.14414 0.53122 0.0
H4008 H 0.45912 0.17151 0.61973 0.0
H4009 H 0.49409 0.11079 0.60551 0.0
H4010 H 0.41572 0.16425 0.58794 0.0
H4011 H 0.43175 0.17737 0.56647 0.0
H4012 H 0.43355 0.18748 0.59465 0.0
H4013 H 0.46375 0.08834 0.56856 0.0
H4014 H 0.49301 0.09493 0.56847 0.0
H4015 H 0.47474 0.10639 0.54744 0.0
C4016 C 0.813 0.39837 0.53434 0.0
C4017 C 0.83433 0.39397 0.52593 0.0
C4018 C 0.80947 0.41644 0.54878 0.0
C4019 C 0.82799 0.42931 0.55567 0.0
C4020 C 0.84854 0.42719 0.54414 0.0
C4021 C 0.85135 0.40957 0.52908 0.0
C4022 C 0.78687 0.41936 0.55938 0.0
C4023 C 0.86883 0.44058 0.55065 0.0
C4024 C 0.83201 0.46989 0.60405 0.0
C4025 C 0.83926 0.45543 0.62087 0.0
C4026 C 0.82612 0.46153 0.58295 0.0
C4027 C 0.82834 0.43838 0.5787 0.0
C4028 C 0.83397 0.42368 0.59638 0.0
C4029 C 0.83919 0.43245 0.61728 0.0
C4030 C 0.81923 0.47762 0.56491 0.0
C4031 C 0.83661 0.39883 0.59282 0.0
H4032 H 0.79972 0.38639 0.53163 0.0
H4033 H 0.86788 0.40607 0.52261 0.0
H4034 H 0.78607 0.40944 0.57497 0.0
H4035 H 0.78379 0.4371 0.56369 0.0
H4036 H 0.77342 0.4134 0.54813 0.0
H4037 H 0.88159 0.44055 0.53722 0.0
H4038 H 0.86439 0.45807 0.55456 0.0
H4039 H 0.87638 0.4331 0.5658 0.0
H4040 H 0.83251 0.48776 0.60684 0.0
H4041 H 0.84517 0.42146 0.63034 0.0
H4042 H 0.80662 0.47005 0.55369 0.0
H4043 H 0.83395 0.48215 0.55469 0.0
H4044 H 0.81233 0.49324 0.5721 0.0
H4045 H 0.82092 0.39159 0.58629 0.0
H4046 H 0.841 0.38987 0.60843 0.0
H4047 H 0.84993 0.39561 0.58038 0.0
C4048 C 0.16938 0.54172 0.60116 0.0
C4049 C 0.16463 0.54899 0.62276 0.0
C4050 C 0.17726 0.55673 0.58511 0.0
C4051 C 0.17883 0.57957 0.59069 0.0
C4052 C 0.17665 0.58644 0.61311 0.0
C4053 C 0.17019 0.57077 0.62905 0.0
C4054 C 0.181 0.54861 0.56161 0.0
C4055 C 0.17761 0.61072 0.61978 0.0
C4056 C 0.19555 0.62476 0.55033 0.0
C4057 C 0.1746 0.63218 0.54285 0.0
C4058 C 0.19735 0.60701 0.5653 0.0
C4059 C 0.17775 0.59651 0.57291 0.0
C4060 C 0.15661 0.6033 0.56474 0.0
C4061 C 0.1553 0.62112 0.54974 0.0
C4062 C 0.2201 0.60006 0.57357 0.0
C4063 C 0.13529 0.59228 0.57247 0.0
H4064 H 0.16512 0.52513 0.59604 0.0
H4065 H 0.16643 0.57635 0.64585 0.0
H4066 H 0.16557 0.55114 0.55174 0.0
H4067 H 0.19465 0.55804 0.55338 0.0
H4068 H 0.18514 0.53055 0.56132 0.0
H4069 H 0.17976 0.61274 0.63806 0.0
H4070 H 0.19136 0.61955 0.61116 0.0
H4071 H 0.16175 0.61894 0.61492 0.0
H4072 H 0.21061 0.63319 0.54497 0.0
H4073 H 0.13915 0.62669 0.54383 0.0
H4074 H 0.22212 0.58171 0.57222 0.0
H4075 H 0.22186 0.60446 0.59143 0.0
H4076 H 0.23379 0.6083 0.56418 0.0
H4077 H 0.13583 0.57416 0.56883 0.0
H4078 H 0.12029 0.59945 0.56431 0.0
H4079 H 0.1335 0.59422 0.59078 0.0
C4080 C 0.0722 0.22139 0.3939 0.0
C4081 C 0.06033 0.20559 0.40637 0.0
C4082 C 0.08093 0.24044 0.40398 0.0
C4083 C 0.07827 0.24333 0.42717 0.0
C4084 C 0.06709 0.227 0.44 0.0
C4085 C 0.05805 0.20828 0.42935 0.0
C4086 C 0.0925 0.25772 0.38973 0.0
C4087 C 0.06451 0.22943 0.46484 0.0
C4088 C 0.12254 0.27863 0.45359 0.0
C4089 C 0.11123 0.29869 0.45722 0.0
C4090 C 0.11172 0.26033 0.44438 0.0
C4091 C 0.08914 0.26241 0.43817 0.0
C4092 C 0.07754 0.28274 0.44169 0.0
C4093 C 0.08872 0.30073 0.45171 0.0
C4094 C 0.1245 0.23879 0.44138 0.0
C4095 C 0.0535 0.28547 0.43484 0.0
H4096 H 0.07341 0.21961 0.37596 0.0
H4097 H 0.04893 0.19595 0.43884 0.0
H4098 H 0.08466 0.27429 0.39226 0.0
H4099 H 0.11024 0.25918 0.39474 0.0
H4100 H 0.09183 0.25356 0.3717 0.0
H4101 H 0.05606 0.21477 0.47223 0.0
H4102 H 0.08108 0.23143 0.47282 0.0
H4103 H 0.05463 0.24458 0.4687 0.0
H4104 H 0.13991 0.27713 0.45847 0.0
H4105 H 0.0801 0.31628 0.45494 0.0
H4106 H 0.12557 0.23454 0.42342 0.0
H4107 H 0.11561 0.22492 0.44981 0.0
H4108 H 0.1417 0.23978 0.44817 0.0
H4109 H 0.05112 0.27991 0.41736 0.0
H4110 H 0.04784 0.30304 0.43633 0.0
H4111 H 0.04278 0.27483 0.44551 0.0
C4112 C 0.72135 0.09181 0.44316 0.0
C4113 C 0.7192 0.09368 0.46632 0.0
C4114 C 0.73913 0.08006 0.43368 0.0
C4115 C 0.75484 0.06947 0.44777 0.0
C4116 C 0.75114 0.06892 0.47104 0.0
C4117 C 0.73353 0.08142 0.48014 0.0
C4118 C 0.74229 0.081 0.40871 0.0
C4119 C 0.76677 0.05682 0.48654 0.0
C4120 C 0.79609 0.03911 0.41161 0.0
C4121 C 0.81213 0.05584 0.40832 0.0
C4122 C 0.77866 0.04203 0.42691 0.0
C4123 C 0.77661 0.06264 0.43816 0.0
C4124 C 0.79376 0.07883 0.43621 0.0
C4125 C 0.8114 0.07515 0.42136 0.0
C4126 C 0.76143 0.02386 0.42942 0.0
C4127 C 0.79234 0.10102 0.44802 0.0
H4128 H 0.71014 0.10106 0.43242 0.0
H4129 H 0.73204 0.08283 0.49808 0.0
H4130 H 0.75734 0.09104 0.40473 0.0
H4131 H 0.74494 0.06403 0.40188 0.0
H4132 H 0.72777 0.08861 0.40008 0.0
H4133 H 0.75811 0.05201 0.50219 0.0
H4134 H 0.77378 0.04162 0.47862 0.0
H4135 H 0.78083 0.06798 0.49098 0.0
H4136 H 0.79616 0.02439 0.40115 0.0
H4137 H 0.82383 0.08805 0.41886 0.0
H4138 H 0.74733 0.02713 0.41792 0.0
H4139 H 0.75471 0.02332 0.44665 0.0
H4140 H 0.76853 0.00726 0.42521 0.0
H4141 H 0.77864 0.11106 0.44067 0.0
H4142 H 0.80808 0.11071 0.44662 0.0
H4143 H 0.78849 0.09858 0.46592 0.0
C4144 C 0.96815 0.79684 0.40647 0.0
C4145 C 0.95411 0.8131 0.39729 0.0
C4146 C 0.96019 0.78214 0.42283 0.0
C4147 C 0.93772 0.78377 0.42982 0.0
C4148 C 0.92422 0.80149 0.42213 0.0
C4149 C 0.93254 0.81588 0.40578 0.0
C4150 C 0.97528 0.76402 0.43159 0.0
C4151 C 0.90051 0.80436 0.43013 0.0
C4152 C 0.90481 0.73153 0.442 0.0
C4153 C 0.90233 0.73263 0.46518 0.0
C4154 C 0.91705 0.7477 0.43047 0.0
C4155 C 0.92721 0.76534 0.44244 0.0
C4156 C 0.92553 0.76608 0.46592 0.0
C4157 C 0.91296 0.74974 0.47694 0.0
C4158 C 0.91856 0.74624 0.40538 0.0
C4159 C 0.93658 0.78394 0.47978 0.0
H4160 H 0.98482 0.79465 0.39987 0.0
H4161 H 0.92183 0.82878 0.399 0.0
H4162 H 0.9743 0.7633 0.45005 0.0
H4163 H 0.9697 0.74761 0.42511 0.0
H4164 H 0.99294 0.76663 0.42659 0.0
H4165 H 0.89291 0.82012 0.42404 0.0
H4166 H 0.8902 0.79017 0.42423 0.0
H4167 H 0.90001 0.80429 0.44862 0.0
H4168 H 0.89683 0.71821 0.43274 0.0
H4169 H 0.91154 0.75037 0.49475 0.0
H4170 H 0.93627 0.74654 0.40003 0.0
H4171 H 0.91021 0.76091 0.39779 0.0
H4172 H 0.91064 0.73087 0.39873 0.0
H4173 H 0.94782 0.77592 0.49211 0.0
H4174 H 0.92368 0.79318 0.48933 0.0
H4175 H 0.9465 0.79603 0.46992 0.0
C4176 C 0.22219 0.97049 0.44041 0.0
C4177 C 0.20455 0.95997 0.42931 0.0
C4178 C 0.23776 0.95793 0.45253 0.0
C4179 C 0.23531 0.93446 0.45365 0.0
C4180 C 0.21611 0.92417 0.44459 0.0
C4181 C 0.20099 0.93709 0.43237 0.0
C4182 C 0.25792 0.96952 0.46215 0.0
C4183 C 0.21265 0.89925 0.44588 0.0
C4184 C 0.28841 0.90002 0.4545 0.0
C4185 C 0.28945 0.89354 0.47688 0.0
C4186 C 0.2707 0.91319 0.44669 0.0
C4187 C 0.25398 0.92043 0.46178 0.0
C4188 C 0.25494 0.91391 0.48435 0.0
C4189 C 0.27238 0.90014 0.49146 0.0
C4190 C 0.26992 0.91942 0.42232 0.0
C4191 C 0.23767 0.92157 0.50102 0.0
H4192 H 0.22508 0.98816 0.43786 0.0
H4193 H 0.18731 0.929 0.42374 0.0
H4194 H 0.2617 0.96314 0.47909 0.0
H4195 H 0.27265 0.96603 0.4515 0.0
H4196 H 0.25559 0.98788 0.46305 0.0
H4197 H 0.19548 0.89437 0.4409 0.0
H4198 H 0.22463 0.8908 0.4346 0.0
H4199 H 0.21584 0.89306 0.463 0.0
H4200 H 0.30142 0.89484 0.44307 0.0
H4201 H 0.27265 0.89466 0.50856 0.0
H4202 H 0.27027 0.93784 0.42051 0.0
H4203 H 0.25412 0.91343 0.41481 0.0
H4204 H 0.28409 0.91227 0.41276 0.0
H4205 H 0.2369 0.94006 0.5013 0.0
H4206 H 0.24128 0.91557 0.51816 0.0
H4207 H 0.22093 0.91549 0.49603 0.0
C4208 C 0.06437 0.76841 0.62053 0.0
C4209 C 0.04736 0.78186 0.61169 0.0
C4210 C 0.07705 0.75448 0.60697 0.0
C4211 C 0.0721 0.75332 0.58404 0.0
C4212 C 0.0527 0.76399 0.57566 0.0
C4213 C 0.04048 0.77845 0.58966 0.0
C4214 C 0.09708 0.74282 0.61688 0.0
C4215 C 0.04567 0.76092 0.55175 0.0
C4216 C 0.12453 0.74935 0.54905 0.0
C4217 C 0.12603 0.72642 0.54563 0.0
C4218 C 0.10654 0.75839 0.56093 0.0
C4219 C 0.08933 0.74412 0.56883 0.0
C4220 C 0.09055 0.72092 0.56473 0.0
C4221 C 0.10906 0.71231 0.5533 0.0
C4222 C 0.10685 0.78301 0.56626 0.0
C4223 C 0.07251 0.70519 0.57256 0.0
H4224 H 0.06905 0.77014 0.6379 0.0
H4225 H 0.02665 0.788 0.58306 0.0
H4226 H 0.09759 0.72509 0.61165 0.0
H4227 H 0.11257 0.7509 0.61075 0.0
H4228 H 0.09711 0.74347 0.63538 0.0
H4229 H 0.03099 0.77133 0.54737 0.0
H4230 H 0.05967 0.765 0.54037 0.0
H4231 H 0.0414 0.74314 0.54891 0.0
H4232 H 0.13771 0.76012 0.54292 0.0
H4233 H 0.11021 0.69453 0.55016 0.0
H4234 H 0.11301 0.78531 0.58354 0.0
H4235 H 0.08993 0.79032 0.56542 0.0
H4236 H 0.11801 0.79241 0.55484 0.0
H4237 H 0.06759 0.70876 0.59001 0.0
H4238 H 0.0778 0.68747 0.57146 0.0
H4239 H 0.05747 0.70753 0.56205 0.0
C4240 C 0.24095 0.04594 0.60759 0.0
C4241 C 0.22425 0.05755 0.61912 0.0
C4242 C 0.25283 0.05619 0.5903 0.0
C4243 C 0.24804 0.07862 0.58476 0.0
C4244 C 0.23051 0.09004 0.59563 0.0
C4245 C 0.2188 0.07934 0.6127 0.0
C4246 C 0.27122 0.04337 0.57882 0.0
C4247 C 0.22493 0.11398 0.59011 0.0
C4248 C 0.29588 0.11514 0.56697 0.0
C4249 C 0.2921 0.11736 0.54403 0.0
C4250 C 0.28179 0.10225 0.58023 0.0
C4251 C 0.26344 0.0913 0.57032 0.0
C4252 C 0.25951 0.09335 0.54715 0.0
C4253 C 0.27393 0.10647 0.53421 0.0
C4254 C 0.28652 0.10048 0.60492 0.0
C4255 C 0.24012 0.08175 0.53614 0.0
H4256 H 0.24497 0.02895 0.61223 0.0
H4257 H 0.20561 0.08823 0.62129 0.0
H4258 H 0.27093 0.04633 0.56058 0.0
H4259 H 0.28761 0.0492 0.58513 0.0
H4260 H 0.26993 0.02514 0.58193 0.0
H4261 H 0.20919 0.11954 0.59816 0.0
H4262 H 0.23865 0.125 0.59584 0.0
H4263 H 0.22333 0.11622 0.57183 0.0
H4264 H 0.30998 0.12343 0.57465 0.0
H4265 H 0.27112 0.10801 0.51643 0.0
H4266 H 0.28873 0.08273 0.60969 0.0
H4267 H 0.27217 0.10705 0.61457 0.0
H4268 H 0.30171 0.10983 0.6099 0.0
H4269 H 0.24012 0.06383 0.54064 0.0
H4270 H 0.24054 0.08331 0.5177 0.0
H4271 H 0.22424 0.08893 0.54232 0.0
C4272 C 0.98289 0.23576 0.59229 0.0
C4273 C 0.96759 0.21889 0.59742 0.0
C4274 C 0.97622 0.2546 0.58056 0.0
C4275 C 0.95409 0.2558 0.57268 0.0
C4276 C 0.93925 0.23763 0.57574 0.0
C4277 C 0.94612 0.21942 0.58855 0.0
C4278 C 0.99252 0.2737 0.57894 0.0
C4279 C 0.91552 0.23834 0.56736 0.0
C4280 C 0.92308 0.30996 0.5686 0.0
C4281 C 0.92031 0.31153 0.5455 0.0
C4282 C 0.93549 0.29254 0.57779 0.0
C4283 C 0.9455 0.27676 0.5634 0.0
C4284 C 0.94508 0.27989 0.54015 0.0
C4285 C 0.93214 0.29708 0.53141 0.0
C4286 C 0.93633 0.28992 0.60281 0.0
C4287 C 0.95643 0.26385 0.52446 0.0
H4288 H 0.99948 0.2355 0.59949 0.0
H4289 H 0.93438 0.2063 0.59274 0.0
H4290 H 0.98569 0.28866 0.57056 0.0
H4291 H 0.9979 0.27863 0.59595 0.0
H4292 H 0.00771 0.268 0.57003 0.0
H4293 H 0.90693 0.22204 0.56931 0.0
H4294 H 0.90603 0.25114 0.57679 0.0
H4295 H 0.91513 0.24314 0.54952 0.0
H4296 H 0.91405 0.32122 0.57951 0.0
H4297 H 0.92972 0.29774 0.51357 0.0
H4298 H 0.95383 0.28772 0.60839 0.0
H4299 H 0.92694 0.27474 0.60777 0.0
H4300 H 0.92905 0.30449 0.61162 0.0
H4301 H 0.9726 0.25827 0.53144 0.0
H4302 H 0.95933 0.27148 0.50784 0.0
H4303 H 0.94578 0.24887 0.52223 0.0
C4304 C 0.80381 0.94222 0.59422 0.0
C4305 C 0.80361 0.96469 0.60044 0.0
C4306 C 0.78601 0.93304 0.58218 0.0
C4307 C 0.76748 0.94666 0.57671 0.0
C4308 C 0.76786 0.96966 0.58185 0.0
C4309 C 0.78599 0.97842 0.59364 0.0
C4310 C 0.78635 0.90845 0.57672 0.0
C4311 C 0.74843 0.98463 0.5763 0.0
C4312 C 0.72679 0.92142 0.53572 0.0
C4313 C 0.71162 0.91089 0.55006 0.0
C4314 C 0.74453 0.93408 0.5441 0.0
C4315 C 0.74702 0.93633 0.5674 0.0
C4316 C 0.73094 0.92691 0.58194 0.0
C4317 C 0.71349 0.9141 0.57307 0.0
C4318 C 0.7616 0.94347 0.52816 0.0
C4319 C 0.73299 0.92909 0.60693 0.0
H4320 H 0.8173 0.93157 0.59984 0.0
H4321 H 0.78546 0.99562 0.59921 0.0
H4322 H 0.77384 0.89964 0.58712 0.0
H4323 H 0.78178 0.90568 0.55903 0.0
H4324 H 0.80296 0.90085 0.57982 0.0
H4325 H 0.75161 0.00231 0.58086 0.0
H4326 H 0.74489 0.98375 0.55822 0.0
H4327 H 0.73328 0.97884 0.58521 0.0
H4328 H 0.72598 0.91813 0.518 0.0
H4329 H 0.70195 0.90569 0.58417 0.0
H4330 H 0.77792 0.93522 0.53096 0.0
H4331 H 0.76398 0.96153 0.53128 0.0
H4332 H 0.7568 0.94101 0.51047 0.0
H4333 H 0.74764 0.91943 0.61279 0.0
H4334 H 0.71793 0.92284 0.61574 0.0
H4335 H 0.73574 0.94677 0.61165 0.0
C4336 C 0.39232 0.0825 0.22248 0.0
C4337 C 0.38344 0.06142 0.22712 0.0
C4338 C 0.4073 0.09265 0.23726 0.0
C4339 C 0.41314 0.08157 0.25728 0.0
C4340 C 0.40404 0.06038 0.26216 0.0
C4341 C 0.38939 0.05049 0.24694 0.0
C4342 C 0.41712 0.11508 0.23132 0.0
C4343 C 0.40983 0.04815 0.2834 0.0
C4344 C 0.46623 0.10042 0.28573 0.0
C4345 C 0.45794 0.11599 0.30101 0.0
C4346 C 0.45179 0.08861 0.27168 0.0
C4347 C 0.42854 0.09237 0.27325 0.0
C4348 C 0.42004 0.10733 0.2894 0.0
C4349 C 0.4349 0.11917 0.30296 0.0
C4350 C 0.46146 0.07306 0.25438 0.0
C4351 C 0.3953 0.11141 0.29179 0.0
H4352 H 0.38802 0.09082 0.20703 0.0
H4353 H 0.38264 0.03411 0.25056 0.0
H4354 H 0.41247 0.12759 0.24411 0.0
H4355 H 0.4356 0.11403 0.23111 0.0
H4356 H 0.41137 0.12113 0.2148 0.0
H4357 H 0.40117 0.03182 0.28472 0.0
H4358 H 0.42807 0.04523 0.28426 0.0
H4359 H 0.40523 0.05849 0.29803 0.0
H4360 H 0.4841 0.0985 0.2838 0.0
H4361 H 0.42856 0.13132 0.31475 0.0
H4362 H 0.45776 0.07952 0.23746 0.0
H4363 H 0.45372 0.05631 0.25569 0.0
H4364 H 0.47981 0.07127 0.25608 0.0
H4365 H 0.38879 0.11938 0.27643 0.0
H4366 H 0.39135 0.12235 0.3062 0.0
H4367 H 0.38636 0.09534 0.29389 0.0
C4368 C 0.94549 0.39491 0.22686 0.0
C4369 C 0.96427 0.38247 0.2329 0.0
C4370 C 0.9357 0.40979 0.24197 0.0
C4371 C 0.94465 0.41176 0.26372 0.0
C4372 C 0.96322 0.39873 0.27009 0.0
C4373 C 0.97296 0.38437 0.25449 0.0
C4374 C 0.91612 0.42376 0.2345 0.0
C4375 C 0.97298 0.40023 0.29324 0.0
C4376 C 0.92817 0.46463 0.29402 0.0
C4377 C 0.90943 0.4573 0.30588 0.0
C4378 C 0.94076 0.44966 0.2812 0.0
C4379 C 0.93406 0.42704 0.27994 0.0
C4380 C 0.91595 0.41934 0.29288 0.0
C4381 C 0.90395 0.43455 0.30583 0.0
C4382 C 0.96025 0.45843 0.26791 0.0
C4383 C 0.90837 0.39531 0.29202 0.0
H4384 H 0.93906 0.39376 0.21002 0.0
H4385 H 0.9876 0.37486 0.25909 0.0
H4386 H 0.90148 0.42042 0.24531 0.0
H4387 H 0.92024 0.44173 0.23616 0.0
H4388 H 0.91138 0.42039 0.21693 0.0
H4389 H 0.98732 0.38873 0.29558 0.0
H4390 H 0.97863 0.41753 0.29658 0.0
H4391 H 0.96003 0.39616 0.30582 0.0
H4392 H 0.93231 0.48222 0.29373 0.0
H4393 H 0.88955 0.42875 0.3151 0.0
H4394 H 0.9553 0.46013 0.25018 0.0
H4395 H 0.97456 0.44673 0.26861 0.0
H4396 H 0.96584 0.47501 0.27403 0.0
H4397 H 0.90161 0.39156 0.27522 0.0
H4398 H 0.89524 0.39162 0.30455 0.0
H4399 H 0.92267 0.38392 0.29487 0.0
C4400 C 0.61576 0.95386 0.23622 0.0
C4401 C 0.6031 0.9628 0.21878 0.0
C4402 C 0.60603 0.94043 0.25247 0.0
C4403 C 0.58294 0.93593 0.25135 0.0
C4404 C 0.56975 0.94584 0.23446 0.0
C4405 C 0.5801 0.95907 0.21808 0.0
C4406 C 0.62064 0.93057 0.27048 0.0
C4407 C 0.54494 0.94189 0.23337 0.0
C4408 C 0.57088 0.88026 0.27737 0.0
C4409 C 0.5638 0.88636 0.29873 0.0
C4410 C 0.5752 0.89636 0.26114 0.0
C4411 C 0.57346 0.91918 0.26679 0.0
C4412 C 0.56607 0.92547 0.28831 0.0
C4413 C 0.56064 0.90886 0.30393 0.0
C4414 C 0.58298 0.8889 0.23838 0.0
C4415 C 0.56466 0.9496 0.2952 0.0
H4416 H 0.63356 0.95713 0.23692 0.0
H4417 H 0.5704 0.96567 0.2045 0.0
H4418 H 0.61376 0.93464 0.28716 0.0
H4419 H 0.62092 0.91213 0.26892 0.0
H4420 H 0.63808 0.93678 0.26961 0.0
H4421 H 0.53676 0.95247 0.22056 0.0
H4422 H 0.54165 0.92411 0.22941 0.0
H4423 H 0.53722 0.94542 0.24981 0.0
H4424 H 0.5733 0.86283 0.27338 0.0
H4425 H 0.5551 0.91347 0.3205 0.0
H4426 H 0.60096 0.89284 0.2364 0.0
H4427 H 0.5738 0.89796 0.22513 0.0
H4428 H 0.58066 0.87069 0.23582 0.0
H4429 H 0.56611 0.95129 0.31355 0.0
H4430 H 0.54831 0.9564 0.28985 0.0
H4431 H 0.5779 0.95993 0.28745 0.0
C4432 C 0.0422 0.60788 0.23987 0.0
C4433 C 0.05151 0.60344 0.21895 0.0
C4434 C 0.05174 0.59925 0.2592 0.0
C4435 C 0.07051 0.58518 0.25738 0.0
C4436 C 0.07912 0.57945 0.23612 0.0
C4437 C 0.06985 0.58925 0.21701 0.0
C4438 C 0.04232 0.60594 0.28159 0.0
C4439 C 0.09844 0.56351 0.23367 0.0
C4440 C 0.11037 0.58108 0.30593 0.0
C4441 C 0.10458 0.56024 0.31501 0.0
C4442 C 0.09919 0.58956 0.2873 0.0
C4443 C 0.08151 0.57716 0.27787 0.0
C4444 C 0.07434 0.55719 0.28803 0.0
C4445 C 0.08595 0.54904 0.30654 0.0
C4446 C 0.10717 0.6111 0.27691 0.0
C4447 C 0.05558 0.54348 0.27838 0.0
H4448 H 0.02823 0.61931 0.2412 0.0
H4449 H 0.07699 0.58607 0.20072 0.0
H4450 H 0.03742 0.59087 0.29115 0.0
H4451 H 0.05527 0.61477 0.29142 0.0
H4452 H 0.02756 0.61702 0.28002 0.0
H4453 H 0.10201 0.55953 0.21595 0.0
H4454 H 0.11361 0.57087 0.24127 0.0
H4455 H 0.09482 0.54774 0.24267 0.0
H4456 H 0.12474 0.59003 0.31227 0.0
H4457 H 0.08127 0.5332 0.31341 0.0
H4458 H 0.09302 0.62285 0.27488 0.0
H4459 H 0.11399 0.6077 0.26006 0.0
H4460 H 0.12035 0.61933 0.28699 0.0
H4461 H 0.04857 0.53198 0.29096 0.0
H4462 H 0.06204 0.53337 0.26432 0.0
H4463 H 0.04192 0.55412 0.27191 0.0
C4464 C 0.43523 0.95019 0.82539 0.0
C4465 C 0.41476 0.95156 0.81438 0.0
C4466 C 0.45297 0.93811 0.81602 0.0
C4467 C 0.4503 0.9282 0.79479 0.0
C4468 C 0.42899 0.92795 0.78464 0.0
C4469 C 0.41141 0.93951 0.79469 0.0
C4470 C 0.4749 0.9374 0.8281 0.0
C4471 C 0.42511 0.91698 0.76231 0.0
C4472 C 0.49215 0.93034 0.74832 0.0
C4473 C 0.49716 0.9077 0.7458 0.0
C4474 C 0.47854 0.93767 0.76578 0.0
C4475 C 0.47001 0.92188 0.78119 0.0
C4476 C 0.47733 0.89942 0.78023 0.0
C4477 C 0.491 0.89259 0.76247 0.0
C4478 C 0.47074 0.96166 0.76554 0.0
C4479 C 0.46832 0.88195 0.79593 0.0
H4480 H 0.43745 0.95887 0.84106 0.0
H4481 H 0.3954 0.94036 0.78632 0.0
H4482 H 0.48393 0.92155 0.82507 0.0
H4483 H 0.48536 0.9511 0.82175 0.0
H4484 H 0.47265 0.93973 0.84632 0.0
H4485 H 0.40707 0.9154 0.75838 0.0
H4486 H 0.43308 0.92709 0.74902 0.0
H4487 H 0.43275 0.90014 0.76189 0.0
H4488 H 0.49666 0.94191 0.73515 0.0
H4489 H 0.49445 0.87499 0.76018 0.0
H4490 H 0.46771 0.96806 0.78262 0.0
H4491 H 0.45483 0.96278 0.75618 0.0
H4492 H 0.48306 0.97268 0.75715 0.0
H4493 H 0.46575 0.88877 0.81291 0.0
H4494 H 0.47962 0.8673 0.79692 0.0
H4495 H 0.45191 0.87609 0.78971 0.0
C4496 C 0.06005 0.39436 0.78273 0.0
C4497 C 0.04085 0.39972 0.79465 0.0
C4498 C 0.06676 0.40758 0.76482 0.0
C4499 C 0.05408 0.42675 0.75927 0.0
C4500 C 0.03448 0.43204 0.77119 0.0
C4501 C 0.02789 0.41815 0.78868 0.0
C4502 C 0.08799 0.40162 0.75259 0.0
C4503 C 0.02112 0.45279 0.76607 0.0
C4504 C 0.09137 0.47053 0.73574 0.0
C4505 C 0.09044 0.4652 0.71313 0.0
C4506 C 0.07826 0.45911 0.75104 0.0
C4507 C 0.06331 0.44269 0.74317 0.0
C4508 C 0.0604 0.43921 0.72001 0.0
C4509 C 0.07463 0.45018 0.70508 0.0
C4510 C 0.08254 0.46268 0.77562 0.0
C4511 C 0.04368 0.42258 0.71127 0.0
H4512 H 0.06975 0.37984 0.78744 0.0
H4513 H 0.01303 0.4221 0.79814 0.0
H4514 H 0.08484 0.40056 0.73442 0.0
H4515 H 0.10065 0.41485 0.75527 0.0
H4516 H 0.09507 0.38546 0.75826 0.0
H4517 H 0.00641 0.45461 0.77719 0.0
H4518 H 0.03168 0.46785 0.76792 0.0
H4519 H 0.01542 0.45236 0.7485 0.0
H4520 H 0.10396 0.48212 0.74167 0.0
H4521 H 0.07423 0.44617 0.68747 0.0
H4522 H 0.09217 0.44834 0.78226 0.0
H4523 H 0.0667 0.46357 0.78509 0.0
H4524 H 0.09222 0.47816 0.77883 0.0
H4525 H 0.04951 0.40539 0.7149 0.0
H4526 H 0.04126 0.42421 0.69299 0.0
H4527 H 0.02737 0.42482 0.71973 0.0
C4528 C 0.59688 0.03565 0.78685 0.0
C4529 C 0.60088 0.04894 0.80567 0.0
C4530 C 0.58646 0.04451 0.76802 0.0
C4531 C 0.57912 0.06686 0.76852 0.0
C4532 C 0.58112 0.07965 0.78829 0.0
C4533 C 0.59242 0.07062 0.80659 0.0
C4534 C 0.58518 0.03064 0.74704 0.0
C4535 C 0.57261 0.10332 0.78961 0.0
C4536 C 0.57596 0.10277 0.71698 0.0
C4537 C 0.55285 0.10363 0.7136 0.0
C4538 C 0.58498 0.08979 0.73416 0.0
C4539 C 0.57047 0.0774 0.74806 0.0
C4540 C 0.5474 0.07676 0.74356 0.0
C4541 C 0.53886 0.08993 0.72638 0.0
C4542 C 0.60978 0.0907 0.73845 0.0
C4543 C 0.53159 0.0635 0.75798 0.0
H4544 H 0.60385 0.01898 0.78594 0.0
H4545 H 0.59568 0.08085 0.82113 0.0
H4546 H 0.56812 0.03103 0.73997 0.0
H4547 H 0.59657 0.03776 0.7343 0.0
H4548 H 0.59 0.01299 0.74999 0.0
H4549 H 0.57329 0.11002 0.80686 0.0
H4550 H 0.58284 0.11422 0.7787 0.0
H4551 H 0.55514 0.10422 0.78359 0.0
H4552 H 0.58687 0.11336 0.70718 0.0
H4553 H 0.52101 0.09096 0.72444 0.0
H4554 H 0.61655 0.07368 0.74104 0.0
H4555 H 0.613 0.10037 0.75389 0.0
H4556 H 0.61899 0.09875 0.72454 0.0
H4557 H 0.53604 0.04557 0.75724 0.0
H4558 H 0.51395 0.0654 0.75279 0.0
H4559 H 0.53309 0.06885 0.77562 0.0
C4560 C 0.97833 0.57827 0.78222 0.0
C4561 C 0.96742 0.59285 0.79674 0.0
C4562 C 0.96611 0.56225 0.77024 0.0
C4563 C 0.94263 0.56118 0.77285 0.0
C4564 C 0.932 0.57452 0.78909 0.0
C4565 C 0.9446 0.59003 0.80099 0.0
C4566 C 0.97796 0.54764 0.75362 0.0
C4567 C 0.90697 0.57436 0.79211 0.0
C4568 C 0.90643 0.55247 0.72226 0.0
C4569 C 0.89769 0.53116 0.72612 0.0
C4570 C 0.92187 0.56192 0.73689 0.0
C4571 C 0.92867 0.5498 0.75596 0.0
C4572 C 0.9205 0.52796 0.75961 0.0
C4573 C 0.90507 0.51882 0.74455 0.0
C4574 C 0.93049 0.58516 0.73218 0.0
C4575 C 0.92767 0.51453 0.77962 0.0
H4576 H 0.99589 0.58065 0.7788 0.0
H4577 H 0.93621 0.60122 0.81247 0.0
H4578 H 0.97706 0.53008 0.75935 0.0
H4579 H 0.96962 0.54844 0.73717 0.0
H4580 H 0.99574 0.55236 0.75151 0.0
H4581 H 0.90174 0.58334 0.80743 0.0
H4582 H 0.89902 0.58262 0.77759 0.0
H4583 H 0.90053 0.55704 0.79289 0.0
H4584 H 0.90113 0.56189 0.70778 0.0
H4585 H 0.89853 0.5022 0.7474 0.0
H4586 H 0.94898 0.58508 0.73158 0.0
H4587 H 0.9254 0.59662 0.74578 0.0
H4588 H 0.92415 0.59194 0.71616 0.0
H4589 H 0.94613 0.51329 0.78006 0.0
H4590 H 0.92052 0.49743 0.77954 0.0
H4591 H 0.92238 0.52309 0.79513 0.0
C4592 C 0.25185 0.41206 0.04222 0.0
C4593 C 0.23094 0.40491 0.04976 0.0
C4594 C 0.26603 0.42415 0.05632 0.0
C4595 C 0.25883 0.42943 0.07815 0.0
C4596 C 0.23689 0.42405 0.08498 0.0
C4597 C 0.22325 0.41166 0.07072 0.0
C4598 C 0.28922 0.42996 0.04847 0.0
C4599 C 0.22844 0.42968 0.10801 0.0
C4600 C 0.30167 0.42631 0.12402 0.0
C4601 C 0.30449 0.44879 0.12955 0.0
C4602 C 0.28708 0.41994 0.10703 0.0
C4603 C 0.27527 0.43653 0.09507 0.0
C4604 C 0.27834 0.45933 0.10026 0.0
C4605 C 0.29267 0.46517 0.11779 0.0
C4606 C 0.28378 0.39538 0.10233 0.0
C4607 C 0.2661 0.4774 0.08771 0.0
H4608 H 0.25759 0.40721 0.02578 0.0
H4609 H 0.20677 0.40669 0.07626 0.0
H4610 H 0.29193 0.44823 0.04985 0.0
H4611 H 0.30181 0.42172 0.05923 0.0
H4612 H 0.29217 0.42466 0.031 0.0
H4613 H 0.21009 0.42747 0.10942 0.0
H4614 H 0.23661 0.41862 0.12038 0.0
H4615 H 0.23264 0.44712 0.1125 0.0
H4616 H 0.31056 0.41362 0.13333 0.0
H4617 H 0.29393 0.48246 0.12285 0.0
H4618 H 0.2877 0.39171 0.08464 0.0
H4619 H 0.26608 0.39077 0.10517 0.0
H4620 H 0.2944 0.38464 0.11305 0.0
H4621 H 0.27029 0.47642 0.06974 0.0
H4622 H 0.27029 0.49435 0.09393 0.0
H4623 H 0.24783 0.47496 0.08916 0.0
C4624 C 0.24929 0.61693 0.00137 0.0
C4625 C 0.23241 0.62509 0.98743 0.0
C4626 C 0.26622 0.60314 0.99278 0.0
C4627 C 0.2661 0.59766 0.96984 0.0
C4628 C 0.24883 0.60559 0.95588 0.0
C4629 C 0.23227 0.61917 0.96485 0.0
C4630 C 0.28417 0.5945 0.00812 0.0
C4631 C 0.24785 0.59988 0.93133 0.0
C4632 C 0.31445 0.58476 0.93269 0.0
C4633 C 0.30952 0.56272 0.92684 0.0
C4634 C 0.30197 0.59581 0.949 0.0
C4635 C 0.28422 0.58441 0.95962 0.0
C4636 C 0.2808 0.56142 0.95547 0.0
C4637 C 0.29325 0.55095 0.93874 0.0
C4638 C 0.30595 0.62039 0.95273 0.0
C4639 C 0.26224 0.54849 0.96651 0.0
H4640 H 0.24927 0.62126 0.01891 0.0
H4641 H 0.2191 0.62513 0.95402 0.0
H4642 H 0.28574 0.57614 0.0064 0.0
H4643 H 0.30048 0.60185 0.00338 0.0
H4644 H 0.28077 0.59859 0.02585 0.0
H4645 H 0.23326 0.60752 0.92287 0.0
H4646 H 0.26322 0.60572 0.92284 0.0
H4647 H 0.24687 0.58154 0.92912 0.0
H4648 H 0.32707 0.59384 0.92342 0.0
H4649 H 0.28907 0.53403 0.93393 0.0
H4650 H 0.30467 0.62464 0.97067 0.0
H4651 H 0.29299 0.63009 0.94376 0.0
H4652 H 0.32256 0.62572 0.94648 0.0
H4653 H 0.25825 0.55513 0.9833 0.0
H4654 H 0.26668 0.53055 0.96801 0.0
H4655 H 0.24698 0.54966 0.95612 0.0
C4656 C 0.43245 0.22709 0.96686 0.0
C4657 C 0.41595 0.21422 0.95651 0.0
C4658 C 0.44744 0.23982 0.95422 0.0
C4659 C 0.44586 0.23958 0.9307 0.0
C4660 C 0.43003 0.22565 0.92012 0.0
C4661 C 0.41516 0.21319 0.93319 0.0
C4662 C 0.46387 0.2548 0.96603 0.0
C4663 C 0.42781 0.22506 0.89507 0.0
C4664 C 0.46101 0.29303 0.90098 0.0
C4665 C 0.48229 0.28816 0.89268 0.0
C4666 C 0.44909 0.27735 0.91342 0.0
C4667 C 0.45859 0.25612 0.91743 0.0
C4668 C 0.4801 0.25105 0.90907 0.0
C4669 C 0.49182 0.26726 0.89686 0.0
C4670 C 0.42636 0.28359 0.92237 0.0
C4671 C 0.49053 0.22843 0.91258 0.0
H4672 H 0.43263 0.22851 0.98482 0.0
H4673 H 0.40236 0.20328 0.92514 0.0
H4674 H 0.48094 0.25191 0.95955 0.0
H4675 H 0.45968 0.27249 0.96266 0.0
H4676 H 0.46383 0.25222 0.98433 0.0
H4677 H 0.41653 0.2115 0.8894 0.0
H4678 H 0.42103 0.24121 0.8891 0.0
H4679 H 0.44438 0.22275 0.88717 0.0
H4680 H 0.45374 0.30932 0.89799 0.0
H4681 H 0.50824 0.26345 0.8903 0.0
H4682 H 0.42625 0.28225 0.94081 0.0
H4683 H 0.41358 0.27187 0.91592 0.0
H4684 H 0.42143 0.30083 0.91772 0.0
H4685 H 0.48777 0.2225 0.92986 0.0
H4686 H 0.50873 0.22858 0.90909 0.0
H4687 H 0.48252 0.21623 0.90122 0.0
C4688 C 0.78293 0.40294 0.97856 0.0
C4689 C 0.80133 0.4017 0.96425 0.0
C4690 C 0.76641 0.41908 0.97523 0.0
C4691 C 0.76861 0.43409 0.95719 0.0
C4692 C 0.78878 0.43478 0.94483 0.0
C4693 C 0.80478 0.41815 0.94822 0.0
C4694 C 0.74549 0.41817 0.98916 0.0
C4695 C 0.79227 0.45113 0.92602 0.0
C4696 C 0.72112 0.44232 0.91744 0.0
C4697 C 0.71757 0.46534 0.91916 0.0
C4698 C 0.73668 0.43158 0.93097 0.0
C4699 C 0.74842 0.44409 0.94717 0.0
C4700 C 0.74287 0.46669 0.95092 0.0
C4701 C 0.7276 0.47722 0.93662 0.0
C4702 C 0.74216 0.40741 0.92624 0.0
C4703 C 0.75452 0.4801 0.96868 0.0
H4704 H 0.7805 0.39016 0.99112 0.0
H4705 H 0.81931 0.41723 0.93748 0.0
H4706 H 0.7387 0.43512 0.99212 0.0
H4707 H 0.73258 0.4084 0.98019 0.0
H4708 H 0.74857 0.40994 0.00546 0.0
H4709 H 0.8102 0.45273 0.92161 0.0
H4710 H 0.78311 0.44522 0.91108 0.0
H4711 H 0.78577 0.46787 0.93039 0.0
H4712 H 0.71311 0.433 0.90418 0.0
H4713 H 0.72506 0.49502 0.93794 0.0
H4714 H 0.74155 0.39745 0.94179 0.0
H4715 H 0.75933 0.40615 0.91944 0.0
H4716 H 0.73053 0.39981 0.91399 0.0
H4717 H 0.75391 0.47119 0.98486 0.0
H4718 H 0.74699 0.4969 0.97069 0.0
H4719 H 0.77237 0.48204 0.96434 0.0
C4720 C 0.58405 0.81302 0.96599 0.0
C4721 C 0.60505 0.81711 0.95692 0.0
C4722 C 0.57009 0.79657 0.95718 0.0
C4723 C 0.57778 0.78337 0.93932 0.0
C4724 C 0.59852 0.78814 0.92918 0.0
C4725 C 0.61174 0.80527 0.93785 0.0
C4726 C 0.54784 0.79249 0.96803 0.0
C4727 C 0.60743 0.77424 0.91014 0.0
C4728 C 0.56075 0.72368 0.92929 0.0
C4729 C 0.54652 0.72637 0.91112 0.0
C4730 C 0.56946 0.74245 0.94018 0.0
C4731 C 0.56475 0.76399 0.93162 0.0
C4732 C 0.54959 0.76665 0.91384 0.0
C4733 C 0.54032 0.74771 0.90403 0.0
C4734 C 0.58482 0.73923 0.95982 0.0
C4735 C 0.54463 0.78929 0.90395 0.0
H4736 H 0.57902 0.82181 0.98066 0.0
H4737 H 0.62811 0.80809 0.9307 0.0
H4738 H 0.53491 0.78814 0.95555 0.0
H4739 H 0.54931 0.77833 0.97985 0.0
H4740 H 0.54228 0.80742 0.97743 0.0
H4741 H 0.62321 0.78105 0.90322 0.0
H4742 H 0.61062 0.75698 0.91603 0.0
H4743 H 0.59495 0.77321 0.89655 0.0
H4744 H 0.5657 0.70705 0.93436 0.0
H4745 H 0.52957 0.74951 0.8896 0.0
H4746 H 0.57977 0.75033 0.97373 0.0
H4747 H 0.60209 0.74384 0.95503 0.0
H4748 H 0.58483 0.72172 0.96586 0.0
H4749 H 0.54026 0.80138 0.91724 0.0
H4750 H 0.53079 0.78866 0.89166 0.0
H4751 H 0.55975 0.7957 0.8954 0.0
C4752 C 0.81102 0.59754 0.07633 0.0
C4753 C 0.81091 0.61147 0.0577 0.0
C4754 C 0.79157 0.58628 0.08277 0.0
C4755 C 0.77154 0.58987 0.07071 0.0
C4756 C 0.77183 0.6026 0.05092 0.0
C4757 C 0.79164 0.61307 0.04451 0.0
C4758 C 0.7921 0.57189 0.10341 0.0
C4759 C 0.75089 0.60686 0.03761 0.0
C4760 C 0.72468 0.55206 0.08866 0.0
C4761 C 0.71474 0.56472 0.10558 0.0
C4762 C 0.74188 0.56084 0.0756 0.0
C4763 C 0.75005 0.58238 0.08029 0.0
C4764 C 0.73912 0.59589 0.09625 0.0
C4765 C 0.72139 0.58695 0.10857 0.0
C4766 C 0.75295 0.54608 0.05863 0.0
C4767 C 0.7473 0.61911 0.1016 0.0
H4768 H 0.82596 0.59631 0.08642 0.0
H4769 H 0.79143 0.6241 0.03018 0.0
H4770 H 0.78307 0.58045 0.1171 0.0
H4771 H 0.78357 0.55577 0.10032 0.0
H4772 H 0.80941 0.56845 0.10902 0.0
H4773 H 0.75464 0.61394 0.02091 0.0
H4774 H 0.74114 0.59128 0.03545 0.0
H4775 H 0.7402 0.61889 0.04675 0.0
H4776 H 0.72056 0.53463 0.08688 0.0
H4777 H 0.71384 0.59685 0.12167 0.0
H4778 H 0.76866 0.53974 0.06595 0.0
H4779 H 0.7573 0.55551 0.04334 0.0
H4780 H 0.74229 0.53163 0.054 0.0
H4781 H 0.76383 0.61808 0.10985 0.0
H4782 H 0.73571 0.6282 0.11283 0.0
H4783 H 0.74948 0.62893 0.08608 0.0
C4784 C 0.40873 0.77316 0.03833 0.0
C4785 C 0.39436 0.78927 0.04731 0.0
C4786 C 0.42383 0.76154 0.05204 0.0
C4787 C 0.42445 0.76615 0.07521 0.0
C4788 C 0.41012 0.78254 0.08424 0.0
C4789 C 0.39522 0.79376 0.07025 0.0
C4790 C 0.43886 0.74417 0.04176 0.0
C4791 C 0.41052 0.78828 0.10877 0.0
C4792 C 0.44308 0.72313 0.11755 0.0
C4793 C 0.46465 0.73045 0.12283 0.0
C4794 C 0.43026 0.73408 0.10138 0.0
C4795 C 0.439 0.7531 0.09049 0.0
C4796 C 0.4608 0.76061 0.09568 0.0
C4797 C 0.47344 0.74908 0.11169 0.0
C4798 C 0.40724 0.72535 0.09604 0.0
C4799 C 0.47066 0.7809 0.08447 0.0
H4800 H 0.40839 0.76983 0.02057 0.0
H4801 H 0.38439 0.80637 0.07735 0.0
H4802 H 0.45611 0.74566 0.04825 0.0
H4803 H 0.4327 0.72731 0.04628 0.0
H4804 H 0.43933 0.74551 0.0233 0.0
H4805 H 0.39908 0.80224 0.11295 0.0
H4806 H 0.40561 0.77349 0.11875 0.0
H4807 H 0.42766 0.79298 0.1139 0.0
H4808 H 0.43632 0.70851 0.12575 0.0
H4809 H 0.4902 0.75467 0.1155 0.0
H4810 H 0.40564 0.72247 0.07785 0.0
H4811 H 0.39452 0.73792 0.10078 0.0
H4812 H 0.40347 0.70952 0.1049 0.0
H4813 H 0.47076 0.7786 0.06613 0.0
H4814 H 0.48798 0.78432 0.09009 0.0
H4815 H 0.46023 0.79576 0.08808 0.0
C4816 C 0.61188 0.21153 0.0862 0.0
C4817 C 0.6097 0.20881 0.06309 0.0
C4818 C 0.60049 0.22862 0.09733 0.0
C4819 C 0.58604 0.24266 0.08508 0.0
C4820 C 0.58303 0.2394 0.06199 0.0
C4821 C 0.59543 0.22297 0.0512 0.0
C4822 C 0.60446 0.2321 0.12193 0.0
C4823 C 0.56736 0.25382 0.04852 0.0
C4824 C 0.54043 0.27437 0.11415 0.0
C4825 C 0.54947 0.29584 0.1148 0.0
C4826 C 0.5525 0.25671 0.10507 0.0
C4827 C 0.57394 0.26088 0.09623 0.0
C4828 C 0.58315 0.28266 0.09687 0.0
C4829 C 0.57078 0.29998 0.10649 0.0
C4830 C 0.54237 0.23363 0.10492 0.0
C4831 C 0.60612 0.28755 0.08778 0.0
H4832 H 0.62331 0.201 0.09542 0.0
H4833 H 0.59474 0.22206 0.03324 0.0
H4834 H 0.61112 0.24912 0.12487 0.0
H4835 H 0.5885 0.2308 0.1312 0.0
H4836 H 0.61642 0.2198 0.12893 0.0
H4837 H 0.56606 0.24824 0.03091 0.0
H4838 H 0.55043 0.25356 0.05599 0.0
H4839 H 0.57323 0.27138 0.04874 0.0
H4840 H 0.52412 0.27133 0.1214 0.0
H4841 H 0.57781 0.3166 0.10782 0.0
H4842 H 0.55384 0.22153 0.11293 0.0
H4843 H 0.53983 0.22805 0.08747 0.0
H4844 H 0.52609 0.23303 0.11375 0.0
H4845 H 0.61879 0.27857 0.09781 0.0
H4846 H 0.61008 0.30566 0.08811 0.0
H4847 H 0.60758 0.2815 0.07037 0.0
C4848 C 0.95535 0.79381 0.61405 0.0
C4849 C 0.95388 0.81704 0.61292 0.0
C4850 C 0.93825 0.78049 0.60543 0.0
C4851 C 0.91978 0.79082 0.59492 0.0
C4852 C 0.91765 0.81425 0.59494 0.0
C4853 C 0.93471 0.82713 0.60413 0.0
C4854 C 0.94069 0.75544 0.60625 0.0
C4855 C 0.89824 0.82572 0.58374 0.0
C4856 C 0.90118 0.75755 0.54552 0.0
C4857 C 0.88296 0.74599 0.55418 0.0
C4858 C 0.91249 0.77331 0.55827 0.0
C4859 C 0.9053 0.77747 0.5803 0.0
C4860 C 0.88569 0.76732 0.58856 0.0
C4861 C 0.87465 0.75158 0.57529 0.0
C4862 C 0.93349 0.78372 0.54891 0.0
C4863 C 0.87762 0.77132 0.61204 0.0
H4864 H 0.96996 0.78608 0.62138 0.0
H4865 H 0.93346 0.84516 0.60348 0.0
H4866 H 0.92466 0.74745 0.6109 0.0
H4867 H 0.94542 0.74917 0.5895 0.0
H4868 H 0.9537 0.75015 0.61832 0.0
H4869 H 0.89745 0.84376 0.5879 0.0
H4870 H 0.89991 0.82403 0.5654 0.0
H4871 H 0.88226 0.81776 0.58861 0.0
H4872 H 0.90835 0.75236 0.52995 0.0
H4873 H 0.86074 0.74227 0.58214 0.0
H4874 H 0.94825 0.77711 0.55789 0.0
H4875 H 0.93325 0.80207 0.55127 0.0
H4876 H 0.93563 0.78012 0.53091 0.0
H4877 H 0.88792 0.76138 0.62376 0.0
H4878 H 0.85993 0.76622 0.61416 0.0
H4879 H 0.87935 0.78912 0.61678 0.0
C4880 C 0.23817 0.97862 0.60385 0.0
C4881 C 0.24528 0.97602 0.62586 0.0
C4882 C 0.24404 0.96318 0.58753 0.0
C4883 C 0.25965 0.94644 0.59294 0.0
C4884 C 0.26975 0.94603 0.61433 0.0
C4885 C 0.26174 0.96038 0.63091 0.0
C4886 C 0.23193 0.96383 0.56542 0.0
C4887 C 0.28752 0.92925 0.62037 0.0
C4888 C 0.26371 0.88861 0.56922 0.0
C4889 C 0.28077 0.89175 0.55375 0.0
C4890 C 0.25466 0.90698 0.58041 0.0
C4891 C 0.26425 0.92836 0.57702 0.0
C4892 C 0.2799 0.93177 0.55981 0.0
C4893 C 0.28743 0.91338 0.54784 0.0
C4894 C 0.23625 0.90314 0.59712 0.0
C4895 C 0.29105 0.95407 0.55606 0.0
H4896 H 0.22517 0.99046 0.60029 0.0
H4897 H 0.26699 0.95818 0.64806 0.0
H4898 H 0.24106 0.97493 0.55381 0.0
H4899 H 0.23052 0.94713 0.55758 0.0
H4900 H 0.21485 0.97071 0.56736 0.0
H4901 H 0.27951 0.9134 0.62554 0.0
H4902 H 0.29861 0.9257 0.60599 0.0
H4903 H 0.29785 0.93526 0.63451 0.0
H4904 H 0.25867 0.87183 0.57372 0.0
H4905 H 0.30082 0.91569 0.5359 0.0
H4906 H 0.22484 0.9177 0.598 0.0
H4907 H 0.24359 0.90051 0.61387 0.0
H4908 H 0.22638 0.88804 0.59284 0.0
H4909 H 0.30034 0.95456 0.54005 0.0
H4910 H 0.30294 0.95723 0.56987 0.0
H4911 H 0.27883 0.96787 0.55609 0.0
C4912 C 0.07221 0.24538 0.64397 0.0
C4913 C 0.07833 0.22536 0.65444 0.0
C4914 C 0.08782 0.25772 0.63141 0.0
C4915 C 0.11003 0.24979 0.62914 0.0
C4916 C 0.11679 0.23092 0.64155 0.0
C4917 C 0.10099 0.21918 0.65429 0.0
C4918 C 0.08003 0.27824 0.61912 0.0
C4919 C 0.14022 0.22187 0.63974 0.0
C4920 C 0.13656 0.26585 0.57359 0.0
C4921 C 0.14857 0.285 0.57952 0.0
C4922 C 0.12496 0.25339 0.58982 0.0
C4923 C 0.12554 0.26018 0.61249 0.0
C4924 C 0.13972 0.27796 0.61878 0.0
C4925 C 0.15126 0.28995 0.60226 0.0
C4926 C 0.11043 0.23422 0.58237 0.0
C4927 C 0.14087 0.28594 0.6426 0.0
H4928 H 0.05484 0.25039 0.64388 0.0
H4929 H 0.10599 0.20382 0.66242 0.0
H4930 H 0.09225 0.29201 0.62099 0.0
H4931 H 0.07865 0.27443 0.60108 0.0
H4932 H 0.0635 0.28408 0.62514 0.0
H4933 H 0.14358 0.20868 0.6523 0.0
H4934 H 0.1427 0.21466 0.62289 0.0
H4935 H 0.15266 0.2354 0.64182 0.0
H4936 H 0.13407 0.2621 0.55609 0.0
H4937 H 0.16032 0.3049 0.60693 0.0
H4938 H 0.09263 0.23911 0.58368 0.0
H4939 H 0.11298 0.21952 0.5933 0.0
H4940 H 0.11387 0.2293 0.56486 0.0
H4941 H 0.12517 0.29479 0.64683 0.0
H4942 H 0.15504 0.29757 0.64533 0.0
H4943 H 0.14251 0.27171 0.65428 0.0
C4944 C 0.78087 0.07593 0.63957 0.0
C4945 C 0.80259 0.08194 0.64569 0.0
C4946 C 0.76661 0.09156 0.62931 0.0
C4947 C 0.77435 0.11359 0.62521 0.0
C4948 C 0.79505 0.12038 0.6342 0.0
C4949 C 0.80887 0.10449 0.64442 0.0
C4950 C 0.7443 0.08375 0.62071 0.0
C4951 C 0.80374 0.14375 0.63078 0.0
C4952 C 0.75342 0.13673 0.57002 0.0
C4953 C 0.73459 0.14869 0.57686 0.0
C4954 C 0.76729 0.1262 0.58574 0.0
C4955 C 0.7625 0.12822 0.60884 0.0
C4956 C 0.74532 0.14281 0.6158 0.0
C4957 C 0.73165 0.15297 0.59971 0.0
C4958 C 0.78558 0.111 0.5775 0.0
C4959 C 0.7397 0.14578 0.64013 0.0
H4960 H 0.77593 0.05854 0.64039 0.0
H4961 H 0.82565 0.10922 0.64921 0.0
H4962 H 0.73123 0.09645 0.62389 0.0
H4963 H 0.74536 0.08126 0.60241 0.0
H4964 H 0.73911 0.06775 0.62849 0.0
H4965 H 0.81822 0.1474 0.64172 0.0
H4966 H 0.80907 0.14578 0.61319 0.0
H4967 H 0.79048 0.15624 0.63405 0.0
H4968 H 0.75557 0.13305 0.55245 0.0
H4969 H 0.71691 0.16198 0.60509 0.0
H4970 H 0.78095 0.09339 0.5809 0.0
H4971 H 0.80138 0.11444 0.58647 0.0
H4972 H 0.78855 0.11287 0.55932 0.0
H4973 H 0.72995 0.13116 0.64595 0.0
H4974 H 0.72954 0.16101 0.64298 0.0
H4975 H 0.755 0.14678 0.65046 0.0
C4976 C 0.91258 0.21822 0.36663 0.0
C4977 C 0.93542 0.22332 0.36776 0.0
C4978 C 0.89655 0.2326 0.37577 0.0
C4979 C 0.90354 0.25275 0.38581 0.0
C4980 C 0.92619 0.25944 0.3839 0.0
C4981 C 0.94191 0.24462 0.37473 0.0
C4982 C 0.87262 0.2249 0.3771 0.0
C4983 C 0.93434 0.28104 0.39391 0.0
C4984 C 0.86478 0.29767 0.40785 0.0
C4985 C 0.86663 0.29436 0.43097 0.0
C4986 C 0.87545 0.28335 0.39269 0.0
C4987 C 0.88813 0.26524 0.40086 0.0
C4988 C 0.88775 0.2603 0.42399 0.0
C4989 C 0.8768 0.27484 0.43878 0.0
C4990 C 0.87503 0.28899 0.36819 0.0
C4991 C 0.90079 0.24093 0.43342 0.0
H4992 H 0.90752 0.20172 0.3612 0.0
H4993 H 0.95952 0.24862 0.37572 0.0
H4994 H 0.86918 0.2186 0.39415 0.0
H4995 H 0.86095 0.23888 0.37387 0.0
H4996 H 0.86912 0.21125 0.36508 0.0
H4997 H 0.95129 0.28548 0.38788 0.0
H4998 H 0.92277 0.29491 0.38993 0.0
H4999 H 0.93496 0.27937 0.41232 0.0
H5000 H 0.85695 0.31277 0.40172 0.0
H5001 H 0.87852 0.27227 0.45658 0.0
H5002 H 0.8725 0.27378 0.35799 0.0
H5003 H 0.89132 0.2963 0.36331 0.0
H5004 H 0.86171 0.30121 0.36415 0.0
H5005 H 0.89714 0.22544 0.42399 0.0
H5006 H 0.89698 0.23801 0.45131 0.0
H5007 H 0.91891 0.24432 0.43177 0.0
C5008 C 0.76451 0.94108 0.3646 0.0
C5009 C 0.77887 0.95632 0.37479 0.0
C5010 C 0.75219 0.92589 0.37762 0.0
C5011 C 0.75704 0.92385 0.40078 0.0
C5012 C 0.77197 0.93923 0.41074 0.0
C5013 C 0.78049 0.95664 0.39795 0.0
C5014 C 0.73471 0.91194 0.36614 0.0
C5015 C 0.78065 0.93699 0.43431 0.0
C5016 C 0.72287 0.89868 0.44723 0.0
C5017 C 0.72345 0.87593 0.44235 0.0
C5018 C 0.73194 0.91434 0.43273 0.0
C5019 C 0.7457 0.90696 0.415 0.0
C5020 C 0.749 0.8836 0.41184 0.0
C5021 C 0.73658 0.86834 0.42471 0.0
C5022 C 0.72596 0.9386 0.43646 0.0
C5023 C 0.765 0.87437 0.39479 0.0
H5024 H 0.76311 0.94083 0.34659 0.0
H5025 H 0.79069 0.96914 0.4058 0.0
H5026 H 0.74299 0.8983 0.35678 0.0
H5027 H 0.72245 0.90466 0.37792 0.0
H5028 H 0.72553 0.9222 0.35375 0.0
H5029 H 0.79909 0.9356 0.43377 0.0
H5030 H 0.77672 0.95233 0.44392 0.0
H5031 H 0.77441 0.92218 0.4434 0.0
H5032 H 0.71323 0.90438 0.46127 0.0
H5033 H 0.737 0.85068 0.42085 0.0
H5034 H 0.72749 0.94881 0.42112 0.0
H5035 H 0.73689 0.94571 0.44955 0.0
H5036 H 0.70856 0.94017 0.44261 0.0
H5037 H 0.75544 0.8682 0.38022 0.0
H5038 H 0.77406 0.85981 0.4018 0.0
H5039 H 0.77744 0.88682 0.3891 0.0
C5040 C 0.05765 0.7636 0.40309 0.0
C5041 C 0.06246 0.77598 0.38394 0.0
C5042 C 0.07247 0.74716 0.4106 0.0
C5043 C 0.09243 0.74302 0.3986 0.0
C5044 C 0.097 0.75495 0.37886 0.0
C5045 C 0.08186 0.77116 0.37166 0.0
C5046 C 0.0672 0.73482 0.43187 0.0
C5047 C 0.11828 0.75128 0.3659 0.0
C5048 C 0.13624 0.71713 0.4353 0.0
C5049 C 0.13125 0.69446 0.43253 0.0
C5050 C 0.12477 0.73339 0.42312 0.0
C5051 C 0.10867 0.7266 0.40729 0.0
C5052 C 0.10591 0.70369 0.40232 0.0
C5053 C 0.11696 0.68779 0.41538 0.0
C5054 C 0.12805 0.75763 0.42915 0.0
C5055 C 0.0896 0.69594 0.38483 0.0
H5056 H 0.04275 0.76729 0.41264 0.0
H5057 H 0.08569 0.78065 0.35677 0.0
H5058 H 0.068 0.71657 0.42897 0.0
H5059 H 0.07983 0.73891 0.44474 0.0
H5060 H 0.05045 0.73913 0.43849 0.0
H5061 H 0.11844 0.7606 0.3499 0.0
H5062 H 0.13274 0.75683 0.376 0.0
H5063 H 0.12066 0.73327 0.36236 0.0
H5064 H 0.14716 0.72232 0.44873 0.0
H5065 H 0.11319 0.67022 0.41327 0.0
H5066 H 0.11392 0.76321 0.43973 0.0
H5067 H 0.12826 0.76831 0.41407 0.0
H5068 H 0.14376 0.76033 0.43859 0.0
H5069 H 0.07235 0.69777 0.39129 0.0
H5070 H 0.09231 0.67818 0.38029 0.0
H5071 H 0.09099 0.7063 0.36956 0.0
C5072 C 0.27868 0.14596 0.42916 0.0
C5073 C 0.2792 0.13526 0.44993 0.0
C5074 C 0.26342 0.13947 0.41278 0.0
C5075 C 0.24834 0.12202 0.41752 0.0
C5076 C 0.24676 0.11343 0.43953 0.0
C5077 C 0.26229 0.12028 0.45562 0.0
C5078 C 0.26548 0.14928 0.38971 0.0
C5079 C 0.23044 0.09516 0.4454 0.0
C5080 C 0.20245 0.10239 0.37934 0.0
C5081 C 0.21077 0.0813 0.37321 0.0
C5082 C 0.21499 0.11673 0.39282 0.0
C5083 C 0.23675 0.11035 0.39907 0.0
C5084 C 0.24657 0.09106 0.38953 0.0
C5085 C 0.23338 0.07664 0.37669 0.0
C5086 C 0.20393 0.13715 0.40255 0.0
C5087 C 0.27023 0.08433 0.39487 0.0
H5088 H 0.29184 0.15763 0.42488 0.0
H5089 H 0.26283 0.11195 0.47166 0.0
H5090 H 0.27522 0.13771 0.37906 0.0
H5091 H 0.2489 0.1515 0.38185 0.0
H5092 H 0.27421 0.16563 0.38999 0.0
H5093 H 0.22884 0.09293 0.46372 0.0
H5094 H 0.21373 0.09878 0.43836 0.0
H5095 H 0.23626 0.07917 0.43811 0.0
H5096 H 0.18513 0.10648 0.37614 0.0
H5097 H 0.24015 0.06069 0.37153 0.0
H5098 H 0.21557 0.15151 0.403 0.0
H5099 H 0.19887 0.13355 0.41997 0.0
H5100 H 0.18881 0.14199 0.39302 0.0
H5101 H 0.2816 0.09887 0.39354 0.0
H5102 H 0.27633 0.07094 0.38362 0.0
H5103 H 0.27104 0.07813 0.41228 0.0
C5104 C 0.65169 0.91499 0.79937 0.0
C5105 C 0.65348 0.93773 0.79376 0.0
C5106 C 0.63676 0.90083 0.78826 0.0
C5107 C 0.62418 0.90919 0.77021 0.0
C5108 C 0.62772 0.93143 0.76286 0.0
C5109 C 0.6422 0.94551 0.77482 0.0
C5110 C 0.63312 0.87749 0.79705 0.0
C5111 C 0.61518 0.94079 0.74315 0.0
C5112 C 0.59754 0.87116 0.72762 0.0
C5113 C 0.57482 0.87567 0.73097 0.0
C5114 C 0.6139 0.88106 0.741 0.0
C5115 C 0.6073 0.89481 0.75895 0.0
C5116 C 0.58433 0.8965 0.76451 0.0
C5117 C 0.56824 0.88701 0.75028 0.0
C5118 C 0.63805 0.87908 0.73411 0.0
C5119 C 0.57662 0.91015 0.78417 0.0
H5120 H 0.66038 0.90875 0.81393 0.0
H5121 H 0.64332 0.96298 0.77031 0.0
H5122 H 0.61598 0.87615 0.80392 0.0
H5123 H 0.63452 0.86506 0.78345 0.0
H5124 H 0.64517 0.87306 0.81038 0.0
H5125 H 0.62162 0.9574 0.73803 0.0
H5126 H 0.61632 0.92925 0.72874 0.0
H5127 H 0.59728 0.94257 0.74746 0.0
H5128 H 0.60263 0.8623 0.71269 0.0
H5129 H 0.55071 0.89059 0.75294 0.0
H5130 H 0.64887 0.87561 0.74866 0.0
H5131 H 0.64362 0.89516 0.72681 0.0
H5132 H 0.64063 0.86574 0.72152 0.0
H5133 H 0.58737 0.90706 0.79889 0.0
H5134 H 0.55902 0.90643 0.78866 0.0
H5135 H 0.57785 0.92812 0.77998 0.0
C5136 C 0.09675 0.64531 0.79811 0.0
C5137 C 0.07396 0.6455 0.79276 0.0
C5138 C 0.11172 0.63127 0.78691 0.0
C5139 C 0.10373 0.6171 0.76989 0.0
C5140 C 0.08071 0.61718 0.76439 0.0
C5141 C 0.06609 0.63148 0.77583 0.0
C5142 C 0.13605 0.63148 0.79337 0.0
C5143 C 0.07148 0.60205 0.74651 0.0
C5144 C 0.13975 0.5976 0.72217 0.0
C5145 C 0.14071 0.57458 0.72625 0.0
C5146 C 0.12892 0.61197 0.73702 0.0
C5147 C 0.11953 0.60318 0.75678 0.0
C5148 C 0.12331 0.58054 0.76248 0.0
C5149 C 0.1339 0.5664 0.74705 0.0
C5150 C 0.1253 0.63597 0.73026 0.0
C5151 C 0.11418 0.57064 0.78372 0.0
H5152 H 0.10282 0.65598 0.81137 0.0
H5153 H 0.04844 0.6312 0.77196 0.0
H5154 H 0.1416 0.61437 0.79773 0.0
H5155 H 0.14633 0.63708 0.77905 0.0
H5156 H 0.1394 0.64267 0.80774 0.0
H5157 H 0.05315 0.60384 0.74452 0.0
H5158 H 0.07961 0.60581 0.73032 0.0
H5159 H 0.07523 0.58439 0.75061 0.0
H5160 H 0.14519 0.60398 0.70615 0.0
H5161 H 0.13457 0.54862 0.7503 0.0
H5162 H 0.12917 0.64738 0.74426 0.0
H5163 H 0.1075 0.63846 0.72583 0.0
H5164 H 0.13567 0.64075 0.71567 0.0
H5165 H 0.11576 0.58249 0.79782 0.0
H5166 H 0.12283 0.55485 0.78813 0.0
H5167 H 0.09619 0.56691 0.78149 0.0
C5168 C 0.37337 0.10129 0.79661 0.0
C5169 C 0.37875 0.07893 0.79234 0.0
C5170 C 0.38075 0.11841 0.78243 0.0
C5171 C 0.39437 0.11301 0.76395 0.0
C5172 C 0.39811 0.09027 0.75849 0.0
C5173 C 0.38993 0.07346 0.77263 0.0
C5174 C 0.37575 0.14232 0.78846 0.0
C5175 C 0.41267 0.08372 0.73902 0.0
C5176 C 0.41205 0.15257 0.71797 0.0
C5177 C 0.43468 0.15586 0.72324 0.0
C5178 C 0.39809 0.13987 0.73184 0.0
C5179 C 0.40678 0.13082 0.75176 0.0
C5180 C 0.42861 0.13679 0.75867 0.0
C5181 C 0.44231 0.14932 0.74434 0.0
C5182 C 0.37487 0.13421 0.72396 0.0
C5183 C 0.43836 0.12802 0.78014 0.0
H5184 H 0.36493 0.10553 0.81202 0.0
H5185 H 0.39449 0.05622 0.76957 0.0
H5186 H 0.39075 0.14999 0.7961 0.0
H5187 H 0.37153 0.15219 0.7734 0.0
H5188 H 0.36175 0.14357 0.80053 0.0
H5189 H 0.41202 0.0655 0.73564 0.0
H5190 H 0.40756 0.09279 0.72375 0.0
H5191 H 0.43023 0.08836 0.74261 0.0
H5192 H 0.40584 0.15786 0.70185 0.0
H5193 H 0.45965 0.15195 0.74875 0.0
H5194 H 0.36272 0.1354 0.73785 0.0
H5195 H 0.37458 0.11674 0.71784 0.0
H5196 H 0.36936 0.1453 0.7102 0.0
H5197 H 0.42644 0.13026 0.79409 0.0
H5198 H 0.45428 0.13645 0.78449 0.0
H5199 H 0.44161 0.10987 0.77844 0.0
C5200 C 0.93761 0.36812 0.78506 0.0
C5201 C 0.9593 0.37533 0.78964 0.0
C5202 C 0.92387 0.38039 0.77073 0.0
C5203 C 0.93197 0.40057 0.76153 0.0
C5204 C 0.95452 0.40672 0.76447 0.0
C5205 C 0.96814 0.39354 0.77801 0.0
C5206 C 0.90022 0.37273 0.76681 0.0
C5207 C 0.96376 0.4283 0.7553 0.0
C5208 C 0.90057 0.42525 0.71344 0.0
C5209 C 0.88722 0.44134 0.72396 0.0
C5210 C 0.91546 0.41222 0.72549 0.0
C5211 C 0.91686 0.41511 0.74872 0.0
C5212 C 0.90385 0.43171 0.75952 0.0
C5213 C 0.88921 0.44493 0.74686 0.0
C5214 C 0.9298 0.39544 0.7133 0.0
C5215 C 0.90542 0.43543 0.78433 0.0
H5216 H 0.93076 0.35416 0.7943 0.0
H5217 H 0.9848 0.39929 0.78185 0.0
H5218 H 0.88848 0.38445 0.77501 0.0
H5219 H 0.89638 0.3728 0.74873 0.0
H5220 H 0.89721 0.3557 0.77347 0.0
H5221 H 0.98222 0.42783 0.75439 0.0
H5222 H 0.95717 0.43204 0.73845 0.0
H5223 H 0.95884 0.44223 0.76646 0.0
H5224 H 0.89972 0.4231 0.69552 0.0
H5225 H 0.87922 0.45775 0.75478 0.0
H5226 H 0.92657 0.37843 0.71986 0.0
H5227 H 0.9477 0.39915 0.71617 0.0
H5228 H 0.9267 0.39543 0.69506 0.0
H5229 H 0.90031 0.42005 0.79327 0.0
H5230 H 0.89472 0.44944 0.79002 0.0
H5231 H 0.92295 0.43901 0.78906 0.0
C5232 C 0.64704 0.07507 0.25292 0.0
C5233 C 0.65648 0.08134 0.23254 0.0
C5234 C 0.63798 0.09125 0.26717 0.0
C5235 C 0.63897 0.11407 0.26093 0.0
C5236 C 0.65227 0.12052 0.24259 0.0
C5237 C 0.66105 0.10397 0.2286 0.0
C5238 C 0.62451 0.08359 0.287 0.0
C5239 C 0.65456 0.14465 0.23588 0.0
C5240 C 0.58339 0.14074 0.27357 0.0
C5241 C 0.58728 0.14861 0.29513 0.0
C5242 C 0.60076 0.13106 0.26123 0.0
C5243 C 0.62251 0.12995 0.27055 0.0
C5244 C 0.62707 0.14115 0.29075 0.0
C5245 C 0.60931 0.15037 0.30286 0.0
C5246 C 0.59516 0.11949 0.23959 0.0
C5247 C 0.65005 0.141 0.30095 0.0
H5248 H 0.64368 0.05758 0.25615 0.0
H5249 H 0.6687 0.10883 0.21295 0.0
H5250 H 0.62734 0.0946 0.30156 0.0
H5251 H 0.60649 0.08434 0.28279 0.0
H5252 H 0.62863 0.06617 0.2918 0.0
H5253 H 0.6694 0.14729 0.22511 0.0
H5254 H 0.63954 0.14977 0.22637 0.0
H5255 H 0.65585 0.15563 0.2507 0.0
H5256 H 0.56636 0.13923 0.26766 0.0
H5257 H 0.61229 0.15649 0.31961 0.0
H5258 H 0.59562 0.10114 0.24212 0.0
H5259 H 0.6076 0.12365 0.22656 0.0
H5260 H 0.57831 0.12409 0.2334 0.0
H5261 H 0.65274 0.12492 0.30971 0.0
H5262 H 0.65206 0.15467 0.31328 0.0
H5263 H 0.66316 0.14261 0.28801 0.0
C5264 C 0.91434 0.65788 0.21883 0.0
C5265 C 0.93709 0.65571 0.22401 0.0
C5266 C 0.89801 0.6464 0.23107 0.0
C5267 C 0.90459 0.63293 0.24924 0.0
C5268 C 0.92712 0.63337 0.25647 0.0
C5269 C 0.94313 0.6449 0.24382 0.0
C5270 C 0.87422 0.64671 0.22289 0.0
C5271 C 0.93479 0.61976 0.2762 0.0
C5272 C 0.86622 0.60594 0.29128 0.0
C5273 C 0.8694 0.5833 0.28618 0.0
C5274 C 0.87617 0.62272 0.27838 0.0
C5275 C 0.88872 0.61667 0.25939 0.0
C5276 C 0.88865 0.59412 0.25211 0.0
C5277 C 0.87897 0.57759 0.26569 0.0
C5278 C 0.87579 0.64641 0.28688 0.0
C5279 C 0.90106 0.58709 0.23139 0.0
H5280 H 0.90956 0.66635 0.20359 0.0
H5281 H 0.96063 0.64314 0.24801 0.0
H5282 H 0.87101 0.63133 0.2131 0.0
H5283 H 0.86225 0.64694 0.23697 0.0
H5284 H 0.87094 0.66133 0.21201 0.0
H5285 H 0.95192 0.62435 0.28155 0.0
H5286 H 0.92328 0.62198 0.29051 0.0
H5287 H 0.93472 0.60181 0.2717 0.0
H5288 H 0.85876 0.61037 0.30715 0.0
H5289 H 0.88152 0.56013 0.26167 0.0
H5290 H 0.87418 0.65852 0.27301 0.0
H5291 H 0.89174 0.64996 0.29556 0.0
H5292 H 0.86193 0.64915 0.29886 0.0
H5293 H 0.89794 0.59897 0.21756 0.0
H5294 H 0.8962 0.57007 0.22591 0.0
H5295 H 0.91925 0.58712 0.2348 0.0
C5296 C 0.39927 0.96601 0.23792 0.0
C5297 C 0.37663 0.96044 0.2393 0.0
C5298 C 0.4156 0.95079 0.24449 0.0
C5299 C 0.40925 0.93178 0.25696 0.0
C5300 C 0.38639 0.92858 0.26243 0.0
C5301 C 0.3702 0.94217 0.25227 0.0
C5302 C 0.43933 0.95467 0.23679 0.0
C5303 C 0.37859 0.91033 0.27787 0.0
C5304 C 0.44205 0.87774 0.26348 0.0
C5305 C 0.45892 0.88457 0.278 0.0
C5306 C 0.42675 0.89336 0.25499 0.0
C5307 C 0.42658 0.91543 0.26377 0.0
C5308 C 0.44399 0.9222 0.27818 0.0
C5309 C 0.46102 0.90721 0.28316 0.0
C5310 C 0.4105 0.88567 0.23741 0.0
C5311 C 0.44427 0.94437 0.29019 0.0
H5312 H 0.4042 0.98062 0.22857 0.0
H5313 H 0.35269 0.93785 0.25354 0.0
H5314 H 0.44745 0.96698 0.24794 0.0
H5315 H 0.44957 0.93929 0.23643 0.0
H5316 H 0.43955 0.96153 0.21969 0.0
H5317 H 0.37079 0.89681 0.26796 0.0
H5318 H 0.39227 0.90327 0.28813 0.0
H5319 H 0.36551 0.91689 0.28922 0.0
H5320 H 0.44038 0.86021 0.25937 0.0
H5321 H 0.47441 0.91263 0.29389 0.0
H5322 H 0.4036 0.8997 0.22753 0.0
H5323 H 0.39661 0.87653 0.24549 0.0
H5324 H 0.41875 0.87382 0.2258 0.0
H5325 H 0.46034 0.95306 0.28707 0.0
H5326 H 0.44323 0.94108 0.30831 0.0
H5327 H 0.43029 0.95565 0.28601 0.0
C5328 C 0.07365 0.4185 0.22844 0.0
C5329 C 0.07827 0.40789 0.20816 0.0
C5330 C 0.09093 0.42511 0.24271 0.0
C5331 C 0.11338 0.42077 0.23664 0.0
C5332 C 0.11813 0.40974 0.21636 0.0
C5333 C 0.10049 0.40359 0.20225 0.0
C5334 C 0.08512 0.43677 0.26428 0.0
C5335 C 0.14179 0.40444 0.20962 0.0
C5336 C 0.15099 0.45981 0.26827 0.0
C5337 C 0.15555 0.44704 0.28731 0.0
C5338 C 0.13934 0.45059 0.25022 0.0
C5339 C 0.13168 0.4283 0.25154 0.0
C5340 C 0.13877 0.41457 0.26934 0.0
C5341 C 0.15116 0.424 0.28676 0.0
C5342 C 0.13289 0.46555 0.23105 0.0
C5343 C 0.13089 0.39075 0.27164 0.0
H5344 H 0.05649 0.4218 0.23309 0.0
H5345 H 0.1041 0.39506 0.18673 0.0
H5346 H 0.09203 0.42733 0.2786 0.0
H5347 H 0.09273 0.45364 0.26457 0.0
H5348 H 0.06683 0.43855 0.26666 0.0
H5349 H 0.14262 0.3951 0.19366 0.0
H5350 H 0.15146 0.42012 0.20786 0.0
H5351 H 0.15004 0.39439 0.22277 0.0
H5352 H 0.1542 0.47757 0.26836 0.0
H5353 H 0.15493 0.41384 0.30123 0.0
H5354 H 0.11526 0.4708 0.23307 0.0
H5355 H 0.13428 0.45655 0.21496 0.0
H5356 H 0.14347 0.48076 0.23034 0.0
H5357 H 0.11379 0.39072 0.27875 0.0
H5358 H 0.14182 0.38101 0.28298 0.0
H5359 H 0.13017 0.38223 0.25527 0.0
C5360 C 0.77322 0.63071 0.95958 0.0
C5361 C 0.78209 0.65147 0.95339 0.0
C5362 C 0.75892 0.61898 0.9453 0.0
C5363 C 0.75268 0.62872 0.92471 0.0
C5364 C 0.75966 0.65072 0.91958 0.0
C5365 C 0.77478 0.66164 0.93375 0.0
C5366 C 0.75237 0.59541 0.95145 0.0
C5367 C 0.75235 0.66209 0.89839 0.0
C5368 C 0.73819 0.58786 0.87826 0.0
C5369 C 0.71487 0.58775 0.8793 0.0
C5370 C 0.75074 0.6019 0.8923 0.0
C5371 C 0.73969 0.61554 0.90818 0.0
C5372 C 0.71618 0.61577 0.90899 0.0
C5373 C 0.7041 0.60228 0.89429 0.0
C5374 C 0.77586 0.60137 0.89088 0.0
C5375 C 0.70378 0.62912 0.92639 0.0
H5376 H 0.77935 0.62252 0.9745 0.0
H5377 H 0.78195 0.6775 0.92882 0.0
H5378 H 0.75385 0.59243 0.96967 0.0
H5379 H 0.73507 0.59152 0.94622 0.0
H5380 H 0.76367 0.58356 0.94282 0.0
H5381 H 0.75722 0.67996 0.89804 0.0
H5382 H 0.76001 0.65357 0.88387 0.0
H5383 H 0.73398 0.66091 0.89648 0.0
H5384 H 0.7466 0.57649 0.867 0.0
H5385 H 0.68608 0.60203 0.89575 0.0
H5386 H 0.78277 0.5942 0.90646 0.0
H5387 H 0.78253 0.61856 0.88923 0.0
H5388 H 0.78185 0.59126 0.87656 0.0
H5389 H 0.70735 0.62217 0.94316 0.0
H5390 H 0.68544 0.62881 0.92377 0.0
H5391 H 0.70952 0.64671 0.92637 0.0
C5392 C 0.80022 0.38269 0.09949 0.0
C5393 C 0.79271 0.37447 0.07883 0.0
C5394 C 0.78592 0.3943 0.1138 0.0
C5395 C 0.76317 0.39641 0.10817 0.0
C5396 C 0.75481 0.38521 0.08907 0.0
C5397 C 0.76978 0.37469 0.07433 0.0
C5398 C 0.79576 0.40653 0.13351 0.0
C5399 C 0.73042 0.38614 0.08304 0.0
C5400 C 0.72313 0.42294 0.1498 0.0
C5401 C 0.72231 0.44494 0.14198 0.0
C5402 C 0.73689 0.40701 0.13942 0.0
C5403 C 0.74922 0.41306 0.12021 0.0
C5404 C 0.74876 0.43543 0.11258 0.0
C5405 C 0.73567 0.45117 0.12386 0.0
C5406 C 0.73747 0.3835 0.14838 0.0
C5407 C 0.76124 0.44256 0.09187 0.0
H5408 H 0.81785 0.38232 0.10346 0.0
H5409 H 0.76373 0.36815 0.05861 0.0
H5410 H 0.79619 0.42468 0.12984 0.0
H5411 H 0.78534 0.40418 0.14859 0.0
H5412 H 0.81304 0.40099 0.13725 0.0
H5413 H 0.72594 0.37307 0.07071 0.0
H5414 H 0.71985 0.38405 0.09807 0.0
H5415 H 0.72656 0.40268 0.07569 0.0
H5416 H 0.71229 0.41801 0.1634 0.0
H5417 H 0.73437 0.46797 0.11725 0.0
H5418 H 0.75494 0.37827 0.15146 0.0
H5419 H 0.73042 0.37188 0.13584 0.0
H5420 H 0.72788 0.38179 0.16413 0.0
H5421 H 0.77935 0.43943 0.09399 0.0
H5422 H 0.75876 0.4605 0.08793 0.0
H5423 H 0.75558 0.43258 0.07736 0.0
C5424 C 0.63863 0.77329 0.05907 0.0
C5425 C 0.65378 0.78782 0.06925 0.0
C5426 C 0.6284 0.75628 0.07124 0.0
C5427 C 0.63469 0.75277 0.09371 0.0
C5428 C 0.65204 0.76567 0.10322 0.0
C5429 C 0.66096 0.78359 0.09104 0.0
C5430 C 0.60916 0.74382 0.06073 0.0
C5431 C 0.65994 0.76171 0.12673 0.0
C5432 C 0.5862 0.73043 0.12685 0.0
C5433 C 0.58842 0.70752 0.12288 0.0
C5434 C 0.60219 0.74552 0.11892 0.0
C5435 C 0.62121 0.7373 0.10754 0.0
C5436 C 0.62476 0.71403 0.10591 0.0
C5437 C 0.60805 0.69936 0.11318 0.0
C5438 C 0.59732 0.7702 0.12047 0.0
C5439 C 0.64531 0.70473 0.09474 0.0
H5440 H 0.63274 0.77687 0.04236 0.0
H5441 H 0.67252 0.79503 0.09894 0.0
H5442 H 0.61169 0.72556 0.06208 0.0
H5443 H 0.59349 0.74793 0.06969 0.0
H5444 H 0.60691 0.74811 0.04286 0.0
H5445 H 0.6766 0.76927 0.12965 0.0
H5446 H 0.64801 0.76932 0.13863 0.0
H5447 H 0.66081 0.74358 0.13042 0.0
H5448 H 0.57096 0.73678 0.13425 0.0
H5449 H 0.60985 0.6816 0.11031 0.0
H5450 H 0.59245 0.77651 0.10377 0.0
H5451 H 0.6123 0.7796 0.12578 0.0
H5452 H 0.58354 0.77385 0.1323 0.0
H5453 H 0.64377 0.70656 0.07642 0.0
H5454 H 0.64769 0.68677 0.09861 0.0
H5455 H 0.66038 0.7141 0.10002 0.0
C5456 C 0.2408 0.63614 0.07904 0.0
C5457 C 0.21789 0.63695 0.0834 0.0
C5458 C 0.25513 0.62416 0.0932 0.0
C5459 C 0.24607 0.61217 0.11149 0.0
C5460 C 0.22311 0.61362 0.11631 0.0
C5461 C 0.20943 0.6264 0.10254 0.0
C5462 C 0.27962 0.62287 0.08763 0.0
C5463 C 0.21261 0.60002 0.13475 0.0
C5464 C 0.274 0.55806 0.12775 0.0
C5465 C 0.28699 0.56475 0.14594 0.0
C5466 C 0.26095 0.57342 0.1161 0.0
C5467 C 0.25979 0.59574 0.12376 0.0
C5468 C 0.27125 0.60207 0.1434 0.0
C5469 C 0.28522 0.58658 0.15399 0.0
C5470 C 0.2494 0.56542 0.09515 0.0
C5471 C 0.26958 0.62545 0.15255 0.0
H5472 H 0.24733 0.64413 0.0642 0.0
H5473 H 0.19166 0.62656 0.10588 0.0
H5474 H 0.28985 0.62547 0.10281 0.0
H5475 H 0.28351 0.60599 0.08109 0.0
H5476 H 0.28451 0.63542 0.07491 0.0
H5477 H 0.19496 0.60475 0.13782 0.0
H5478 H 0.21308 0.58209 0.13012 0.0
H5479 H 0.22211 0.60193 0.15048 0.0
H5480 H 0.27574 0.54129 0.12115 0.0
H5481 H 0.29563 0.59179 0.16781 0.0
H5482 H 0.24196 0.57893 0.085 0.0
H5483 H 0.23602 0.5535 0.0998 0.0
H5484 H 0.26143 0.55615 0.08453 0.0
H5485 H 0.2769 0.6374 0.14047 0.0
H5486 H 0.27835 0.62725 0.16875 0.0
H5487 H 0.25182 0.63013 0.15487 0.0
C5488 C 0.365 0.22457 0.10181 0.0
C5489 C 0.3704 0.22825 0.07937 0.0
C5490 C 0.37286 0.23895 0.11853 0.0
C5491 C 0.38702 0.25685 0.11257 0.0
C5492 C 0.39046 0.26194 0.08973 0.0
C5493 C 0.38163 0.24779 0.07335 0.0
C5494 C 0.36788 0.23362 0.14258 0.0
C5495 C 0.40558 0.28079 0.08257 0.0
C5496 C 0.409 0.30356 0.14823 0.0
C5497 C 0.43161 0.29748 0.14961 0.0
C5498 C 0.3934 0.28949 0.138 0.0
C5499 C 0.40051 0.26861 0.12975 0.0
C5500 C 0.42235 0.26091 0.13472 0.0
C5501 C 0.43773 0.27551 0.14468 0.0
C5502 C 0.37024 0.29823 0.13342 0.0
C5503 C 0.43041 0.2384 0.12688 0.0
H5504 H 0.3564 0.20935 0.10645 0.0
H5505 H 0.38606 0.25047 0.05603 0.0
H5506 H 0.38248 0.22516 0.15013 0.0
H5507 H 0.36474 0.24908 0.15225 0.0
H5508 H 0.35319 0.22244 0.1442 0.0
H5509 H 0.40498 0.28369 0.06429 0.0
H5510 H 0.40097 0.29648 0.09119 0.0
H5511 H 0.42304 0.27679 0.08724 0.0
H5512 H 0.40408 0.32045 0.15246 0.0
H5513 H 0.45509 0.27061 0.14595 0.0
H5514 H 0.35759 0.28488 0.13539 0.0
H5515 H 0.36935 0.30425 0.11595 0.0
H5516 H 0.36591 0.31236 0.14459 0.0
H5517 H 0.41765 0.22538 0.13 0.0
H5518 H 0.44616 0.23343 0.13527 0.0
H5519 H 0.43346 0.23903 0.10865 0.0
C5520 C 0.24273 0.38032 0.92938 0.0
C5521 C 0.23868 0.39157 0.94942 0.0
C5522 C 0.25485 0.39052 0.91218 0.0
C5523 C 0.26267 0.41261 0.91508 0.0
C5524 C 0.25874 0.42387 0.93548 0.0
C5525 C 0.24732 0.41294 0.95263 0.0
C5526 C 0.25761 0.37845 0.89029 0.0
C5527 C 0.2643 0.44818 0.93865 0.0
C5528 C 0.31105 0.43408 0.88109 0.0
C5529 C 0.30103 0.45149 0.86898 0.0
C5530 C 0.29862 0.42089 0.89575 0.0
C5531 C 0.2753 0.4239 0.89705 0.0
C5532 C 0.26469 0.43956 0.88288 0.0
C5533 C 0.27776 0.45363 0.86944 0.0
C5534 C 0.3108 0.40536 0.91143 0.0
C5535 C 0.23971 0.44256 0.88293 0.0
H5536 H 0.23514 0.36412 0.92667 0.0
H5537 H 0.24309 0.42206 0.96768 0.0
H5538 H 0.24865 0.38772 0.87702 0.0
H5539 H 0.27543 0.37782 0.88543 0.0
H5540 H 0.25102 0.36114 0.89094 0.0
H5541 H 0.26714 0.45206 0.95651 0.0
H5542 H 0.27895 0.45336 0.9287 0.0
H5543 H 0.24987 0.45839 0.93322 0.0
H5544 H 0.329 0.43198 0.88074 0.0
H5545 H 0.26981 0.46685 0.86006 0.0
H5546 H 0.30323 0.38849 0.91119 0.0
H5547 H 0.30932 0.41182 0.92871 0.0
H5548 H 0.32879 0.40383 0.90728 0.0
H5549 H 0.23101 0.42642 0.88545 0.0
H5550 H 0.23382 0.45015 0.8671 0.0
H5551 H 0.23492 0.45388 0.89673 0.0
C5552 C 0.64681 0.23669 0.94644 0.0
C5553 C 0.65108 0.21424 0.94157 0.0
C5554 C 0.63288 0.24948 0.93262 0.0
C5555 C 0.62261 0.2394 0.91385 0.0
C5556 C 0.62801 0.21726 0.90804 0.0
C5557 C 0.64268 0.20519 0.92158 0.0
C5558 C 0.62812 0.2734 0.93884 0.0
C5559 C 0.61699 0.20572 0.88855 0.0
C5560 C 0.56854 0.26809 0.8983 0.0
C5561 C 0.57619 0.28309 0.88218 0.0
C5562 C 0.5832 0.25252 0.90785 0.0
C5563 C 0.60577 0.25196 0.90077 0.0
C5564 C 0.61269 0.26528 0.88261 0.0
C5565 C 0.59779 0.28078 0.87357 0.0
C5566 C 0.57504 0.23813 0.92679 0.0
C5567 C 0.63642 0.26482 0.87421 0.0
H5568 H 0.65323 0.24387 0.96172 0.0
H5569 H 0.64594 0.1879 0.91743 0.0
H5570 H 0.63068 0.28445 0.92422 0.0
H5571 H 0.61043 0.27505 0.94403 0.0
H5572 H 0.6389 0.27931 0.95268 0.0
H5573 H 0.6245 0.18915 0.88504 0.0
H5574 H 0.59901 0.2033 0.89221 0.0
H5575 H 0.61812 0.2161 0.8733 0.0
H5576 H 0.55184 0.26999 0.90501 0.0
H5577 H 0.6036 0.29238 0.86097 0.0
H5578 H 0.58274 0.24381 0.94262 0.0
H5579 H 0.58008 0.22052 0.92418 0.0
H5580 H 0.55663 0.23889 0.92864 0.0
H5581 H 0.64743 0.27307 0.88657 0.0
H5582 H 0.6382 0.27362 0.85801 0.0
H5583 H 0.64238 0.24743 0.8722 0.0
C5584 C 0.37646 0.77271 0.92914 0.0
C5585 C 0.38597 0.77566 0.95025 0.0
C5586 C 0.38671 0.7591 0.91319 0.0
C5587 C 0.40682 0.74807 0.91866 0.0
C5588 C 0.41534 0.74948 0.94067 0.0
C5589 C 0.40458 0.76308 0.95635 0.0
C5590 C 0.3774 0.75861 0.88981 0.0
C5591 C 0.43706 0.73879 0.94731 0.0
C5592 C 0.42765 0.70319 0.87943 0.0
C5593 C 0.44595 0.71373 0.86926 0.0
C5594 C 0.41497 0.71406 0.89574 0.0
C5595 C 0.41971 0.73653 0.90095 0.0
C5596 C 0.43714 0.74782 0.88964 0.0
C5597 C 0.45027 0.73619 0.87413 0.0
C5598 C 0.39734 0.70114 0.90826 0.0
C5599 C 0.44241 0.77196 0.89447 0.0
H5600 H 0.36226 0.78286 0.92438 0.0
H5601 H 0.41229 0.76585 0.97247 0.0
H5602 H 0.38886 0.76773 0.87849 0.0
H5603 H 0.37617 0.74124 0.8836 0.0
H5604 H 0.36065 0.76648 0.8888 0.0
H5605 H 0.43593 0.7322 0.96456 0.0
H5606 H 0.44202 0.72521 0.93586 0.0
H5607 H 0.4504 0.75163 0.94722 0.0
H5608 H 0.42378 0.686 0.87542 0.0
H5609 H 0.46418 0.74457 0.86619 0.0
H5610 H 0.38098 0.70966 0.90701 0.0
H5611 H 0.40183 0.70047 0.92619 0.0
H5612 H 0.3955 0.6838 0.90199 0.0
H5613 H 0.42697 0.78216 0.89392 0.0
H5614 H 0.45464 0.77899 0.88245 0.0
H5615 H 0.44946 0.77343 0.91149 0.0
loop_
_geom_bond_atom_site_label_1
_geom_bond_atom_site_label_2
_geom_bond_distance
_geom_bond_site_symmetry_2
_ccdc_geom_bond_type
Zn0 O6 1.920 . S
Zn0 O12 1.898 . S
Zn0 O15 1.905 . S
Zn1 O9 1.905 . S
Zn1 O10 1.898 . S
Zn1 O18 1.920 . S
Zn2 O5 2.080 . S
Zn2 O8 2.114 1_455 S
Zn2 O11 2.120 . S
Zn2 O13 2.120 . S
Zn2 O14 2.114 . S
Zn2 O17 2.080 1_455 S
C3 O8 1.166 . S
C3 O9 1.182 . S
C4 O10 1.167 . S
C4 O11 1.299 1_655 S
O5 Zn2 2.080 . S
O5 C19 1.305 . S
O6 Zn0 1.920 . S
O6 C19 1.234 . S
C7 O12 1.167 . S
C7 O13 1.299 . S
O8 Zn2 2.114 1_655 S
O8 C3 1.166 . S
O9 Zn1 1.905 . S
O9 C3 1.182 . S
O10 Zn1 1.898 . S
O10 C4 1.167 . S
O11 Zn2 2.120 . S
O11 C4 1.299 1_455 S
O12 Zn0 1.898 . S
O12 C7 1.167 . S
O13 Zn2 2.120 . S
O13 C7 1.299 . S
O14 Zn2 2.114 . S
O14 C16 1.166 . S
O15 Zn0 1.905 . S
O15 C16 1.182 . S
C16 O14 1.166 . S
C16 O15 1.182 . S
O17 Zn2 2.080 1_655 S
O17 C20 1.305 . S
O18 Zn1 1.920 . S
O18 C20 1.234 . S
C19 O5 1.305 . S
C19 O6 1.234 . S
C20 O17 1.305 . S
C20 O18 1.234 . S
Zn21 O27 1.920 . S
Zn21 O33 1.898 . S
Zn21 O36 1.905 . S
Zn22 O30 1.905 . S
Zn22 O31 1.898 . S
Zn22 O39 1.920 . S
Zn23 O26 2.080 . S
Zn23 O29 2.114 1_545 S
Zn23 O32 2.120 . S
Zn23 O34 2.120 . S
Zn23 O35 2.114 . S
Zn23 O38 2.080 1_545 S
C24 O29 1.166 . S
C24 O30 1.182 . S
C25 O31 1.167 . S
C25 O32 1.299 1_565 S
O26 Zn23 2.080 . S
O26 C40 1.305 . S
O27 Zn21 1.920 . S
O27 C40 1.234 . S
C28 O33 1.167 . S
C28 O34 1.299 . S
O29 Zn23 2.114 1_565 S
O29 C24 1.166 . S
O30 Zn22 1.905 . S
O30 C24 1.182 . S
O31 Zn22 1.898 . S
O31 C25 1.167 . S
O32 Zn23 2.120 . S
O32 C25 1.299 1_545 S
O33 Zn21 1.898 . S
O33 C28 1.167 . S
O34 Zn23 2.120 . S
O34 C28 1.299 . S
O35 Zn23 2.114 . S
O35 C37 1.166 . S
O36 Zn21 1.905 . S
O36 C37 1.182 . S
C37 O35 1.166 . S
C37 O36 1.182 . S
O38 Zn23 2.080 1_565 S
O38 C41 1.305 . S
O39 Zn22 1.920 . S
O39 C41 1.234 . S
C40 O26 1.305 . S
C40 O27 1.234 . S
C41 O38 1.305 . S
C41 O39 1.234 . S
Zn42 O48 1.920 . S
Zn42 O54 1.898 . S
Zn42 O57 1.905 . S
Zn43 O51 1.905 . S
Zn43 O52 1.898 . S
Zn43 O60 1.920 . S
Zn44 O47 2.080 1_455 S
Zn44 O50 2.114 . S
Zn44 O53 2.120 . S
Zn44 O55 2.120 . S
Zn44 O56 2.114 1_455 S
Zn44 O59 2.080 . S
C45 O50 1.166 . S
C45 O51 1.182 . S
C46 O52 1.167 . S
C46 O53 1.299 . S
O47 Zn44 2.080 1_655 S
O47 C61 1.305 . S
O48 Zn42 1.920 . S
O48 C61 1.234 . S
C49 O54 1.167 1_455 S
C49 O55 1.299 . S
O50 Zn44 2.114 . S
O50 C45 1.166 . S
O51 Zn43 1.905 . S
O51 C45 1.182 . S
O52 Zn43 1.898 . S
O52 C46 1.167 . S
O53 Zn44 2.120 . S
O53 C46 1.299 . S
O54 Zn42 1.898 . S
O54 C49 1.167 1_655 S
O55 Zn44 2.120 . S
O55 C49 1.299 . S
O56 Zn44 2.114 1_655 S
O56 C58 1.166 . S
O57 Zn42 1.905 . S
O57 C58 1.182 . S
C58 O56 1.166 . S
C58 O57 1.182 . S
O59 Zn44 2.080 . S
O59 C62 1.305 . S
O60 Zn43 1.920 . S
O60 C62 1.234 . S
C61 O47 1.305 . S
C61 O48 1.234 . S
C62 O59 1.305 . S
C62 O60 1.234 . S
Zn63 O69 1.920 . S
Zn63 O75 1.898 . S
Zn63 O78 1.905 . S
Zn64 O72 1.905 . S
Zn64 O73 1.898 . S
Zn64 O81 1.920 . S
Zn65 O68 2.080 1_545 S
Zn65 O71 2.114 . S
Zn65 O74 2.120 . S
Zn65 O76 2.120 . S
Zn65 O77 2.114 1_545 S
Zn65 O80 2.080 . S
C66 O71 1.166 . S
C66 O72 1.182 . S
C67 O73 1.167 . S
C67 O74 1.299 . S
O68 Zn65 2.080 1_565 S
O68 C82 1.305 . S
O69 Zn63 1.920 . S
O69 C82 1.234 . S
C70 O75 1.167 1_545 S
C70 O76 1.299 . S
O71 Zn65 2.114 . S
O71 C66 1.166 . S
O72 Zn64 1.905 . S
O72 C66 1.182 . S
O73 Zn64 1.898 . S
O73 C67 1.167 . S
O74 Zn65 2.120 . S
O74 C67 1.299 . S
O75 Zn63 1.898 . S
O75 C70 1.167 1_565 S
O76 Zn65 2.120 . S
O76 C70 1.299 . S
O77 Zn65 2.114 1_565 S
O77 C79 1.166 . S
O78 Zn63 1.905 . S
O78 C79 1.182 . S
C79 O77 1.166 . S
C79 O78 1.182 . S
O80 Zn65 2.080 . S
O80 C83 1.305 . S
O81 Zn64 1.920 . S
O81 C83 1.234 . S
C82 O68 1.305 . S
C82 O69 1.234 . S
C83 O80 1.305 . S
C83 O81 1.234 . S
Zn84 O90 1.920 . S
Zn84 O96 1.898 . S
Zn84 O99 1.905 . S
Zn85 O93 1.905 . S
Zn85 O94 1.898 . S
Zn85 O102 1.920 . S
Zn86 O89 2.080 . S
Zn86 O92 2.114 1_455 S
Zn86 O95 2.120 . S
Zn86 O97 2.120 . S
Zn86 O98 2.114 . S
Zn86 O101 2.080 1_455 S
C87 O92 1.166 . S
C87 O93 1.182 . S
C88 O94 1.167 . S
C88 O95 1.299 1_655 S
O89 Zn86 2.080 . S
O89 C103 1.305 . S
O90 Zn84 1.920 . S
O90 C103 1.234 . S
C91 O96 1.167 . S
C91 O97 1.299 . S
O92 Zn86 2.114 1_655 S
O92 C87 1.166 . S
O93 Zn85 1.905 . S
O93 C87 1.182 . S
O94 Zn85 1.898 . S
O94 C88 1.167 . S
O95 Zn86 2.120 . S
O95 C88 1.299 1_455 S
O96 Zn84 1.898 . S
O96 C91 1.167 . S
O97 Zn86 2.120 . S
O97 C91 1.299 . S
O98 Zn86 2.114 . S
O98 C100 1.166 . S
O99 Zn84 1.905 . S
O99 C100 1.182 . S
C100 O98 1.166 . S
C100 O99 1.182 . S
O101 Zn86 2.080 1_655 S
O101 C104 1.305 . S
O102 Zn85 1.920 . S
O102 C104 1.234 . S
C103 O89 1.305 . S
C103 O90 1.234 . S
C104 O101 1.305 . S
C104 O102 1.234 . S
Zn105 O111 1.920 . S
Zn105 O117 1.898 . S
Zn105 O120 1.905 . S
Zn106 O114 1.905 . S
Zn106 O115 1.898 . S
Zn106 O123 1.920 . S
Zn107 O110 2.080 . S
Zn107 O113 2.114 1_545 S
Zn107 O116 2.120 . S
Zn107 O118 2.120 . S
Zn107 O119 2.114 . S
Zn107 O122 2.080 1_545 S
C108 O113 1.166 . S
C108 O114 1.182 . S
C109 O115 1.167 . S
C109 O116 1.299 1_565 S
O110 Zn107 2.080 . S
O110 C124 1.305 . S
O111 Zn105 1.920 . S
O111 C124 1.234 . S
C112 O117 1.167 . S
C112 O118 1.299 . S
O113 Zn107 2.114 1_565 S
O113 C108 1.166 . S
O114 Zn106 1.905 . S
O114 C108 1.182 . S
O115 Zn106 1.898 . S
O115 C109 1.167 . S
O116 Zn107 2.120 . S
O116 C109 1.299 1_545 S
O117 Zn105 1.898 . S
O117 C112 1.167 . S
O118 Zn107 2.120 . S
O118 C112 1.299 . S
O119 Zn107 2.114 . S
O119 C121 1.166 . S
O120 Zn105 1.905 . S
O120 C121 1.182 . S
C121 O119 1.166 . S
C121 O120 1.182 . S
O122 Zn107 2.080 1_565 S
O122 C125 1.305 . S
O123 Zn106 1.920 . S
O123 C125 1.234 . S
C124 O110 1.305 . S
C124 O111 1.234 . S
C125 O122 1.305 . S
C125 O123 1.234 . S
Zn126 O132 1.920 . S
Zn126 O138 1.898 . S
Zn126 O141 1.905 . S
Zn127 O135 1.905 . S
Zn127 O136 1.898 . S
Zn127 O144 1.920 . S
Zn128 O131 2.080 1_455 S
Zn128 O134 2.114 . S
Zn128 O137 2.120 . S
Zn128 O139 2.120 . S
Zn128 O140 2.114 1_455 S
Zn128 O143 2.080 . S
C129 O134 1.166 . S
C129 O135 1.182 . S
C130 O136 1.167 . S
C130 O137 1.299 . S
O131 Zn128 2.080 1_655 S
O131 C145 1.305 . S
O132 Zn126 1.920 . S
O132 C145 1.234 . S
C133 O138 1.167 1_455 S
C133 O139 1.299 . S
O134 Zn128 2.114 . S
O134 C129 1.166 . S
O135 Zn127 1.905 . S
O135 C129 1.182 . S
O136 Zn127 1.898 . S
O136 C130 1.167 . S
O137 Zn128 2.120 . S
O137 C130 1.299 . S
O138 Zn126 1.898 . S
O138 C133 1.167 1_655 S
O139 Zn128 2.120 . S
O139 C133 1.299 . S
O140 Zn128 2.114 1_655 S
O140 C142 1.166 . S
O141 Zn126 1.905 . S
O141 C142 1.182 . S
C142 O140 1.166 . S
C142 O141 1.182 . S
O143 Zn128 2.080 . S
O143 C146 1.305 . S
O144 Zn127 1.920 . S
O144 C146 1.234 . S
C145 O131 1.305 . S
C145 O132 1.234 . S
C146 O143 1.305 . S
C146 O144 1.234 . S
Zn147 O153 1.920 . S
Zn147 O159 1.898 . S
Zn147 O162 1.905 . S
Zn148 O156 1.905 . S
Zn148 O157 1.898 . S
Zn148 O165 1.920 . S
Zn149 O152 2.080 . S
Zn149 O155 2.114 1_545 S
Zn149 O158 2.120 . S
Zn149 O160 2.120 . S
Zn149 O161 2.114 . S
Zn149 O164 2.080 1_545 S
C150 O155 1.166 . S
C150 O156 1.182 . S
C151 O157 1.167 1_545 S
C151 O158 1.299 . S
O152 Zn149 2.080 . S
O152 C166 1.305 . S
O153 Zn147 1.920 . S
O153 C166 1.234 . S
C154 O159 1.167 . S
C154 O160 1.299 . S
O155 Zn149 2.114 1_565 S
O155 C150 1.166 . S
O156 Zn148 1.905 . S
O156 C150 1.182 . S
O157 Zn148 1.898 . S
O157 C151 1.167 1_565 S
O158 Zn149 2.120 . S
O158 C151 1.299 . S
O159 Zn147 1.898 . S
O159 C154 1.167 . S
O160 Zn149 2.120 . S
O160 C154 1.299 . S
O161 Zn149 2.114 . S
O161 C163 1.166 . S
O162 Zn147 1.905 . S
O162 C163 1.182 . S
C163 O161 1.166 . S
C163 O162 1.182 . S
O164 Zn149 2.080 1_565 S
O164 C167 1.305 . S
O165 Zn148 1.920 . S
O165 C167 1.234 . S
C166 O152 1.305 . S
C166 O153 1.234 . S
C167 O164 1.305 . S
C167 O165 1.234 . S
Zn168 O174 1.920 . S
Zn168 O180 1.898 . S
Zn168 O183 1.905 . S
Zn169 O177 1.905 . S
Zn169 O178 1.898 . S
Zn169 O186 1.920 . S
Zn170 O173 2.080 . S
Zn170 O176 2.114 1_545 S
Zn170 O179 2.120 . S
Zn170 O181 2.120 . S
Zn170 O182 2.114 . S
Zn170 O185 2.080 1_545 S
C171 O176 1.166 . S
C171 O177 1.182 . S
C172 O178 1.167 . S
C172 O179 1.299 1_565 S
O173 Zn170 2.080 . S
O173 C187 1.305 . S
O174 Zn168 1.920 . S
O174 C187 1.234 . S
C175 O180 1.167 . S
C175 O181 1.299 . S
O176 Zn170 2.114 1_565 S
O176 C171 1.166 . S
O177 Zn169 1.905 . S
O177 C171 1.182 . S
O178 Zn169 1.898 . S
O178 C172 1.167 . S
O179 Zn170 2.120 . S
O179 C172 1.299 1_545 S
O180 Zn168 1.898 . S
O180 C175 1.167 . S
O181 Zn170 2.120 . S
O181 C175 1.299 . S
O182 Zn170 2.114 . S
O182 C184 1.166 . S
O183 Zn168 1.905 . S
O183 C184 1.182 . S
C184 O182 1.166 . S
C184 O183 1.182 . S
O185 Zn170 2.080 1_565 S
O185 C188 1.305 . S
O186 Zn169 1.920 . S
O186 C188 1.234 . S
C187 O173 1.305 . S
C187 O174 1.234 . S
C188 O185 1.305 . S
C188 O186 1.234 . S
Zn189 O195 1.920 . S
Zn189 O201 1.898 . S
Zn189 O204 1.905 . S
Zn190 O198 1.905 . S
Zn190 O199 1.898 . S
Zn190 O207 1.920 . S
Zn191 O194 2.080 1_455 S
Zn191 O197 2.114 . S
Zn191 O200 2.120 . S
Zn191 O202 2.120 . S
Zn191 O203 2.114 1_455 S
Zn191 O206 2.080 . S
C192 O197 1.166 . S
C192 O198 1.182 . S
C193 O199 1.167 . S
C193 O200 1.299 . S
O194 Zn191 2.080 1_655 S
O194 C208 1.305 . S
O195 Zn189 1.920 . S
O195 C208 1.234 . S
C196 O201 1.167 1_455 S
C196 O202 1.299 . S
O197 Zn191 2.114 . S
O197 C192 1.166 . S
O198 Zn190 1.905 . S
O198 C192 1.182 . S
O199 Zn190 1.898 . S
O199 C193 1.167 . S
O200 Zn191 2.120 . S
O200 C193 1.299 . S
O201 Zn189 1.898 . S
O201 C196 1.167 1_655 S
O202 Zn191 2.120 . S
O202 C196 1.299 . S
O203 Zn191 2.114 1_655 S
O203 C205 1.166 . S
O204 Zn189 1.905 . S
O204 C205 1.182 . S
C205 O203 1.166 . S
C205 O204 1.182 . S
O206 Zn191 2.080 . S
O206 C209 1.305 . S
O207 Zn190 1.920 . S
O207 C209 1.234 . S
C208 O194 1.305 . S
C208 O195 1.234 . S
C209 O206 1.305 . S
C209 O207 1.234 . S
Zn210 O216 1.920 . S
Zn210 O222 1.898 . S
Zn210 O225 1.905 . S
Zn211 O219 1.905 . S
Zn211 O220 1.898 . S
Zn211 O228 1.920 . S
Zn212 O215 2.080 . S
Zn212 O218 2.114 1_545 S
Zn212 O221 2.120 . S
Zn212 O223 2.120 . S
Zn212 O224 2.114 . S
Zn212 O227 2.080 1_545 S
C213 O218 1.166 . S
C213 O219 1.182 . S
C214 O220 1.167 1_545 S
C214 O221 1.299 . S
O215 Zn212 2.080 . S
O215 C229 1.305 . S
O216 Zn210 1.920 . S
O216 C229 1.234 . S
C217 O222 1.167 . S
C217 O223 1.299 . S
O218 Zn212 2.114 1_565 S
O218 C213 1.166 . S
O219 Zn211 1.905 . S
O219 C213 1.182 . S
O220 Zn211 1.898 . S
O220 C214 1.167 1_565 S
O221 Zn212 2.120 . S
O221 C214 1.299 . S
O222 Zn210 1.898 . S
O222 C217 1.167 . S
O223 Zn212 2.120 . S
O223 C217 1.299 . S
O224 Zn212 2.114 . S
O224 C226 1.166 . S
O225 Zn210 1.905 . S
O225 C226 1.182 . S
C226 O224 1.166 . S
C226 O225 1.182 . S
O227 Zn212 2.080 1_565 S
O227 C230 1.305 . S
O228 Zn211 1.920 . S
O228 C230 1.234 . S
C229 O215 1.305 . S
C229 O216 1.234 . S
C230 O227 1.305 . S
C230 O228 1.234 . S
Zn231 O237 1.920 . S
Zn231 O243 1.898 . S
Zn231 O246 1.905 . S
Zn232 O240 1.905 . S
Zn232 O241 1.898 . S
Zn232 O249 1.920 . S
Zn233 O236 2.080 . S
Zn233 O239 2.114 1_455 S
Zn233 O242 2.120 . S
Zn233 O244 2.120 . S
Zn233 O245 2.114 . S
Zn233 O248 2.080 1_455 S
C234 O239 1.166 . S
C234 O240 1.182 . S
C235 O241 1.167 . S
C235 O242 1.299 1_655 S
O236 Zn233 2.080 . S
O236 C250 1.305 . S
O237 Zn231 1.920 . S
O237 C250 1.234 . S
C238 O243 1.167 . S
C238 O244 1.299 . S
O239 Zn233 2.114 1_655 S
O239 C234 1.166 . S
O240 Zn232 1.905 . S
O240 C234 1.182 . S
O241 Zn232 1.898 . S
O241 C235 1.167 . S
O242 Zn233 2.120 . S
O242 C235 1.299 1_455 S
O243 Zn231 1.898 . S
O243 C238 1.167 . S
O244 Zn233 2.120 . S
O244 C238 1.299 . S
O245 Zn233 2.114 . S
O245 C247 1.166 . S
O246 Zn231 1.905 . S
O246 C247 1.182 . S
C247 O245 1.166 . S
C247 O246 1.182 . S
O248 Zn233 2.080 1_655 S
O248 C251 1.305 . S
O249 Zn232 1.920 . S
O249 C251 1.234 . S
C250 O236 1.305 . S
C250 O237 1.234 . S
C251 O248 1.305 . S
C251 O249 1.234 . S
Zn252 O258 1.920 . S
Zn252 O264 1.898 . S
Zn252 O267 1.905 . S
Zn253 O261 1.905 . S
Zn253 O262 1.898 . S
Zn253 O270 1.920 . S
Zn254 O257 2.080 1_545 S
Zn254 O260 2.114 . S
Zn254 O263 2.120 . S
Zn254 O265 2.120 . S
Zn254 O266 2.114 1_545 S
Zn254 O269 2.080 . S
C255 O260 1.166 . S
C255 O261 1.182 . S
C256 O262 1.167 . S
C256 O263 1.299 . S
O257 Zn254 2.080 1_565 S
O257 C271 1.305 . S
O258 Zn252 1.920 . S
O258 C271 1.234 . S
C259 O264 1.167 1_545 S
C259 O265 1.299 . S
O260 Zn254 2.114 . S
O260 C255 1.166 . S
O261 Zn253 1.905 . S
O261 C255 1.182 . S
O262 Zn253 1.898 . S
O262 C256 1.167 . S
O263 Zn254 2.120 . S
O263 C256 1.299 . S
O264 Zn252 1.898 . S
O264 C259 1.167 1_565 S
O265 Zn254 2.120 . S
O265 C259 1.299 . S
O266 Zn254 2.114 1_565 S
O266 C268 1.166 . S
O267 Zn252 1.905 . S
O267 C268 1.182 . S
C268 O266 1.166 . S
C268 O267 1.182 . S
O269 Zn254 2.080 . S
O269 C272 1.305 . S
O270 Zn253 1.920 . S
O270 C272 1.234 . S
C271 O257 1.305 . S
C271 O258 1.234 . S
C272 O269 1.305 . S
C272 O270 1.234 . S
Zn273 O279 1.920 . S
Zn273 O285 1.898 . S
Zn273 O288 1.905 . S
Zn274 O282 1.905 . S
Zn274 O283 1.898 . S
Zn274 O291 1.920 . S
Zn275 O278 2.080 1_455 S
Zn275 O281 2.114 . S
Zn275 O284 2.120 . S
Zn275 O286 2.120 . S
Zn275 O287 2.114 1_455 S
Zn275 O290 2.080 . S
C276 O281 1.166 . S
C276 O282 1.182 . S
C277 O283 1.167 . S
C277 O284 1.299 . S
O278 Zn275 2.080 1_655 S
O278 C292 1.305 . S
O279 Zn273 1.920 . S
O279 C292 1.234 . S
C280 O285 1.167 . S
C280 O286 1.299 1_655 S
O281 Zn275 2.114 . S
O281 C276 1.166 . S
O282 Zn274 1.905 . S
O282 C276 1.182 . S
O283 Zn274 1.898 . S
O283 C277 1.167 . S
O284 Zn275 2.120 . S
O284 C277 1.299 . S
O285 Zn273 1.898 . S
O285 C280 1.167 . S
O286 Zn275 2.120 . S
O286 C280 1.299 1_455 S
O287 Zn275 2.114 1_655 S
O287 C289 1.166 . S
O288 Zn273 1.905 . S
O288 C289 1.182 . S
C289 O287 1.166 . S
C289 O288 1.182 . S
O290 Zn275 2.080 . S
O290 C293 1.305 . S
O291 Zn274 1.920 . S
O291 C293 1.234 . S
C292 O278 1.305 . S
C292 O279 1.234 . S
C293 O290 1.305 . S
C293 O291 1.234 . S
Zn294 O300 1.920 . S
Zn294 O306 1.898 . S
Zn294 O309 1.905 . S
Zn295 O303 1.905 . S
Zn295 O304 1.898 . S
Zn295 O312 1.920 . S
Zn296 O299 2.080 1_545 S
Zn296 O302 2.114 . S
Zn296 O305 2.120 . S
Zn296 O307 2.120 . S
Zn296 O308 2.114 1_545 S
Zn296 O311 2.080 . S
C297 O302 1.166 . S
C297 O303 1.182 . S
C298 O304 1.167 . S
C298 O305 1.299 . S
O299 Zn296 2.080 1_565 S
O299 C313 1.305 . S
O300 Zn294 1.920 . S
O300 C313 1.234 . S
C301 O306 1.167 . S
C301 O307 1.299 1_565 S
O302 Zn296 2.114 . S
O302 C297 1.166 . S
O303 Zn295 1.905 . S
O303 C297 1.182 . S
O304 Zn295 1.898 . S
O304 C298 1.167 . S
O305 Zn296 2.120 . S
O305 C298 1.299 . S
O306 Zn294 1.898 . S
O306 C301 1.167 . S
O307 Zn296 2.120 . S
O307 C301 1.299 1_545 S
O308 Zn296 2.114 1_565 S
O308 C310 1.166 . S
O309 Zn294 1.905 . S
O309 C310 1.182 . S
C310 O308 1.166 . S
C310 O309 1.182 . S
O311 Zn296 2.080 . S
O311 C314 1.305 . S
O312 Zn295 1.920 . S
O312 C314 1.234 . S
C313 O299 1.305 . S
C313 O300 1.234 . S
C314 O311 1.305 . S
C314 O312 1.234 . S
Zn315 O321 1.920 . S
Zn315 O327 1.898 . S
Zn315 O330 1.905 . S
Zn316 O324 1.905 . S
Zn316 O325 1.898 . S
Zn316 O333 1.920 . S
Zn317 O320 2.080 . S
Zn317 O323 2.114 1_455 S
Zn317 O326 2.120 . S
Zn317 O328 2.120 . S
Zn317 O329 2.114 . S
Zn317 O332 2.080 1_455 S
C318 O323 1.166 . S
C318 O324 1.182 . S
C319 O325 1.167 1_455 S
C319 O326 1.299 . S
O320 Zn317 2.080 . S
O320 C334 1.305 . S
O321 Zn315 1.920 . S
O321 C334 1.234 . S
C322 O327 1.167 . S
C322 O328 1.299 . S
O323 Zn317 2.114 1_655 S
O323 C318 1.166 . S
O324 Zn316 1.905 . S
O324 C318 1.182 . S
O325 Zn316 1.898 . S
O325 C319 1.167 1_655 S
O326 Zn317 2.120 . S
O326 C319 1.299 . S
O327 Zn315 1.898 . S
O327 C322 1.167 . S
O328 Zn317 2.120 . S
O328 C322 1.299 . S
O329 Zn317 2.114 . S
O329 C331 1.166 . S
O330 Zn315 1.905 . S
O330 C331 1.182 . S
C331 O329 1.166 . S
C331 O330 1.182 . S
O332 Zn317 2.080 1_655 S
O332 C335 1.305 . S
O333 Zn316 1.920 . S
O333 C335 1.234 . S
C334 O320 1.305 . S
C334 O321 1.234 . S
C335 O332 1.305 . S
C335 O333 1.234 . S
Zn336 O342 1.920 . S
Zn336 O348 1.898 . S
Zn336 O351 1.905 . S
Zn337 O345 1.905 . S
Zn337 O346 1.898 . S
Zn337 O354 1.920 . S
Zn338 O341 2.080 1_554 S
Zn338 O344 2.114 . S
Zn338 O347 2.120 . S
Zn338 O349 2.120 . S
Zn338 O350 2.114 1_554 S
Zn338 O353 2.080 . S
C339 O344 1.166 . S
C339 O345 1.182 . S
C340 O346 1.167 . S
C340 O347 1.299 . S
O341 Zn338 2.080 1_556 S
O341 C355 1.305 . S
O342 Zn336 1.920 . S
O342 C355 1.234 . S
C343 O348 1.167 . S
C343 O349 1.299 1_556 S
O344 Zn338 2.114 . S
O344 C339 1.166 . S
O345 Zn337 1.905 . S
O345 C339 1.182 . S
O346 Zn337 1.898 . S
O346 C340 1.167 . S
O347 Zn338 2.120 . S
O347 C340 1.299 . S
O348 Zn336 1.898 . S
O348 C343 1.167 . S
O349 Zn338 2.120 . S
O349 C343 1.299 1_554 S
O350 Zn338 2.114 1_556 S
O350 C352 1.166 . S
O351 Zn336 1.905 . S
O351 C352 1.182 . S
C352 O350 1.166 . S
C352 O351 1.182 . S
O353 Zn338 2.080 . S
O353 C356 1.305 . S
O354 Zn337 1.920 . S
O354 C356 1.234 . S
C355 O341 1.305 . S
C355 O342 1.234 . S
C356 O353 1.305 . S
C356 O354 1.234 . S
Zn357 O363 1.920 . S
Zn357 O369 1.898 . S
Zn357 O372 1.905 . S
Zn358 O366 1.905 . S
Zn358 O367 1.898 . S
Zn358 O375 1.920 . S
Zn359 O362 2.080 1_554 S
Zn359 O365 2.114 . S
Zn359 O368 2.120 . S
Zn359 O370 2.120 . S
Zn359 O371 2.114 1_554 S
Zn359 O374 2.080 . S
C360 O365 1.166 . S
C360 O366 1.182 . S
C361 O367 1.167 . S
C361 O368 1.299 . S
O362 Zn359 2.080 1_556 S
O362 C376 1.305 . S
O363 Zn357 1.920 . S
O363 C376 1.234 . S
C364 O369 1.167 1_554 S
C364 O370 1.299 . S
O365 Zn359 2.114 . S
O365 C360 1.166 . S
O366 Zn358 1.905 . S
O366 C360 1.182 . S
O367 Zn358 1.898 . S
O367 C361 1.167 . S
O368 Zn359 2.120 . S
O368 C361 1.299 . S
O369 Zn357 1.898 . S
O369 C364 1.167 1_556 S
O370 Zn359 2.120 . S
O370 C364 1.299 . S
O371 Zn359 2.114 1_556 S
O371 C373 1.166 . S
O372 Zn357 1.905 . S
O372 C373 1.182 . S
C373 O371 1.166 . S
C373 O372 1.182 . S
O374 Zn359 2.080 . S
O374 C377 1.305 . S
O375 Zn358 1.920 . S
O375 C377 1.234 . S
C376 O362 1.305 . S
C376 O363 1.234 . S
C377 O374 1.305 . S
C377 O375 1.234 . S
Zn378 O384 1.920 . S
Zn378 O390 1.898 . S
Zn378 O393 1.905 . S
Zn379 O387 1.905 . S
Zn379 O388 1.898 . S
Zn379 O396 1.920 . S
Zn380 O383 2.080 1_554 S
Zn380 O386 2.114 . S
Zn380 O389 2.120 . S
Zn380 O391 2.120 . S
Zn380 O392 2.114 1_554 S
Zn380 O395 2.080 . S
C381 O386 1.166 . S
C381 O387 1.182 . S
C382 O388 1.167 . S
C382 O389 1.299 . S
O383 Zn380 2.080 1_556 S
O383 C397 1.305 . S
O384 Zn378 1.920 . S
O384 C397 1.234 . S
C385 O390 1.167 1_554 S
C385 O391 1.299 . S
O386 Zn380 2.114 . S
O386 C381 1.166 . S
O387 Zn379 1.905 . S
O387 C381 1.182 . S
O388 Zn379 1.898 . S
O388 C382 1.167 . S
O389 Zn380 2.120 . S
O389 C382 1.299 . S
O390 Zn378 1.898 . S
O390 C385 1.167 1_556 S
O391 Zn380 2.120 . S
O391 C385 1.299 . S
O392 Zn380 2.114 1_556 S
O392 C394 1.166 . S
O393 Zn378 1.905 . S
O393 C394 1.182 . S
C394 O392 1.166 . S
C394 O393 1.182 . S
O395 Zn380 2.080 . S
O395 C398 1.305 . S
O396 Zn379 1.920 . S
O396 C398 1.234 . S
C397 O383 1.305 . S
C397 O384 1.234 . S
C398 O395 1.305 . S
C398 O396 1.234 . S
Zn399 O405 1.920 . S
Zn399 O411 1.898 . S
Zn399 O414 1.905 . S
Zn400 O408 1.905 . S
Zn400 O409 1.898 . S
Zn400 O417 1.920 . S
Zn401 O404 2.080 . S
Zn401 O407 2.114 1_554 S
Zn401 O410 2.120 . S
Zn401 O412 2.120 . S
Zn401 O413 2.114 . S
Zn401 O416 2.080 1_554 S
C402 O407 1.166 . S
C402 O408 1.182 . S
C403 O409 1.167 1_554 S
C403 O410 1.299 . S
O404 Zn401 2.080 . S
O404 C418 1.305 . S
O405 Zn399 1.920 . S
O405 C418 1.234 . S
C406 O411 1.167 . S
C406 O412 1.299 . S
O407 Zn401 2.114 1_556 S
O407 C402 1.166 . S
O408 Zn400 1.905 . S
O408 C402 1.182 . S
O409 Zn400 1.898 . S
O409 C403 1.167 1_556 S
O410 Zn401 2.120 . S
O410 C403 1.299 . S
O411 Zn399 1.898 . S
O411 C406 1.167 . S
O412 Zn401 2.120 . S
O412 C406 1.299 . S
O413 Zn401 2.114 . S
O413 C415 1.166 . S
O414 Zn399 1.905 . S
O414 C415 1.182 . S
C415 O413 1.166 . S
C415 O414 1.182 . S
O416 Zn401 2.080 1_556 S
O416 C419 1.305 . S
O417 Zn400 1.920 . S
O417 C419 1.234 . S
C418 O404 1.305 . S
C418 O405 1.234 . S
C419 O416 1.305 . S
C419 O417 1.234 . S
Zn420 O426 1.920 . S
Zn420 O432 1.898 . S
Zn420 O435 1.905 . S
Zn421 O429 1.905 . S
Zn421 O430 1.898 . S
Zn421 O438 1.920 . S
Zn422 O425 2.080 1_554 S
Zn422 O428 2.114 . S
Zn422 O431 2.120 . S
Zn422 O433 2.120 . S
Zn422 O434 2.114 1_554 S
Zn422 O437 2.080 . S
C423 O428 1.166 . S
C423 O429 1.182 . S
C424 O430 1.167 . S
C424 O431 1.299 . S
O425 Zn422 2.080 1_556 S
O425 C439 1.305 . S
O426 Zn420 1.920 . S
O426 C439 1.234 . S
C427 O432 1.167 1_554 S
C427 O433 1.299 . S
O428 Zn422 2.114 . S
O428 C423 1.166 . S
O429 Zn421 1.905 . S
O429 C423 1.182 . S
O430 Zn421 1.898 . S
O430 C424 1.167 . S
O431 Zn422 2.120 . S
O431 C424 1.299 . S
O432 Zn420 1.898 . S
O432 C427 1.167 1_556 S
O433 Zn422 2.120 . S
O433 C427 1.299 . S
O434 Zn422 2.114 1_556 S
O434 C436 1.166 . S
O435 Zn420 1.905 . S
O435 C436 1.182 . S
C436 O434 1.166 . S
C436 O435 1.182 . S
O437 Zn422 2.080 . S
O437 C440 1.305 . S
O438 Zn421 1.920 . S
O438 C440 1.234 . S
C439 O425 1.305 . S
C439 O426 1.234 . S
C440 O437 1.305 . S
C440 O438 1.234 . S
Zn441 O447 1.920 . S
Zn441 O453 1.898 . S
Zn441 O456 1.905 . S
Zn442 O450 1.905 . S
Zn442 O451 1.898 . S
Zn442 O459 1.920 . S
Zn443 O446 2.080 1_554 S
Zn443 O449 2.114 . S
Zn443 O452 2.120 . S
Zn443 O454 2.120 . S
Zn443 O455 2.114 1_554 S
Zn443 O458 2.080 . S
C444 O449 1.166 . S
C444 O450 1.182 . S
C445 O451 1.167 . S
C445 O452 1.299 . S
O446 Zn443 2.080 1_556 S
O446 C460 1.305 . S
O447 Zn441 1.920 . S
O447 C460 1.234 . S
C448 O453 1.167 . S
C448 O454 1.299 1_556 S
O449 Zn443 2.114 . S
O449 C444 1.166 . S
O450 Zn442 1.905 . S
O450 C444 1.182 . S
O451 Zn442 1.898 . S
O451 C445 1.167 . S
O452 Zn443 2.120 . S
O452 C445 1.299 . S
O453 Zn441 1.898 . S
O453 C448 1.167 . S
O454 Zn443 2.120 . S
O454 C448 1.299 1_554 S
O455 Zn443 2.114 1_556 S
O455 C457 1.166 . S
O456 Zn441 1.905 . S
O456 C457 1.182 . S
C457 O455 1.166 . S
C457 O456 1.182 . S
O458 Zn443 2.080 . S
O458 C461 1.305 . S
O459 Zn442 1.920 . S
O459 C461 1.234 . S
C460 O446 1.305 . S
C460 O447 1.234 . S
C461 O458 1.305 . S
C461 O459 1.234 . S
Zn462 O468 1.920 . S
Zn462 O474 1.898 . S
Zn462 O477 1.905 . S
Zn463 O471 1.905 . S
Zn463 O472 1.898 . S
Zn463 O480 1.920 . S
Zn464 O467 2.080 1_554 S
Zn464 O470 2.114 . S
Zn464 O473 2.120 . S
Zn464 O475 2.120 . S
Zn464 O476 2.114 1_554 S
Zn464 O479 2.080 . S
C465 O470 1.166 . S
C465 O471 1.182 . S
C466 O472 1.167 . S
C466 O473 1.299 . S
O467 Zn464 2.080 1_556 S
O467 C481 1.305 . S
O468 Zn462 1.920 . S
O468 C481 1.234 . S
C469 O474 1.167 . S
C469 O475 1.299 1_556 S
O470 Zn464 2.114 . S
O470 C465 1.166 . S
O471 Zn463 1.905 . S
O471 C465 1.182 . S
O472 Zn463 1.898 . S
O472 C466 1.167 . S
O473 Zn464 2.120 . S
O473 C466 1.299 . S
O474 Zn462 1.898 . S
O474 C469 1.167 . S
O475 Zn464 2.120 . S
O475 C469 1.299 1_554 S
O476 Zn464 2.114 1_556 S
O476 C478 1.166 . S
O477 Zn462 1.905 . S
O477 C478 1.182 . S
C478 O476 1.166 . S
C478 O477 1.182 . S
O479 Zn464 2.080 . S
O479 C482 1.305 . S
O480 Zn463 1.920 . S
O480 C482 1.234 . S
C481 O467 1.305 . S
C481 O468 1.234 . S
C482 O479 1.305 . S
C482 O480 1.234 . S
Zn483 O489 1.920 . S
Zn483 O495 1.898 . S
Zn483 O498 1.905 . S
Zn484 O492 1.905 . S
Zn484 O493 1.898 . S
Zn484 O501 1.920 . S
Zn485 O488 2.080 1_554 S
Zn485 O491 2.114 . S
Zn485 O494 2.120 . S
Zn485 O496 2.120 . S
Zn485 O497 2.114 1_554 S
Zn485 O500 2.080 . S
C486 O491 1.166 . S
C486 O492 1.182 . S
C487 O493 1.167 . S
C487 O494 1.299 . S
O488 Zn485 2.080 1_556 S
O488 C502 1.305 . S
O489 Zn483 1.920 . S
O489 C502 1.234 . S
C490 O495 1.167 . S
C490 O496 1.299 1_556 S
O491 Zn485 2.114 . S
O491 C486 1.166 . S
O492 Zn484 1.905 . S
O492 C486 1.182 . S
O493 Zn484 1.898 . S
O493 C487 1.167 . S
O494 Zn485 2.120 . S
O494 C487 1.299 . S
O495 Zn483 1.898 . S
O495 C490 1.167 . S
O496 Zn485 2.120 . S
O496 C490 1.299 1_554 S
O497 Zn485 2.114 1_556 S
O497 C499 1.166 . S
O498 Zn483 1.905 . S
O498 C499 1.182 . S
C499 O497 1.166 . S
C499 O498 1.182 . S
O500 Zn485 2.080 . S
O500 C503 1.305 . S
O501 Zn484 1.920 . S
O501 C503 1.234 . S
C502 O488 1.305 . S
C502 O489 1.234 . S
C503 O500 1.305 . S
C503 O501 1.234 . S
Zn504 O510 1.920 . S
Zn504 O516 1.898 . S
Zn504 O519 1.905 . S
Zn505 O513 1.905 . S
Zn505 O514 1.898 . S
Zn505 O522 1.920 . S
Zn506 O509 2.080 . S
Zn506 O512 2.114 . S
Zn506 O515 2.120 . S
Zn506 O517 2.120 . S
Zn506 O518 2.114 . S
Zn506 O521 2.080 . S
C507 O512 1.166 . S
C507 O513 1.182 . S
C508 O514 1.167 . S
C508 O515 1.299 . S
O509 Zn506 2.080 . S
O509 C523 1.305 . S
O510 Zn504 1.920 . S
O510 C523 1.234 . S
C511 O516 1.167 . S
C511 O517 1.299 . S
O512 Zn506 2.114 . S
O512 C507 1.166 . S
O513 Zn505 1.905 . S
O513 C507 1.182 . S
O514 Zn505 1.898 . S
O514 C508 1.167 . S
O515 Zn506 2.120 . S
O515 C508 1.299 . S
O516 Zn504 1.898 . S
O516 C511 1.167 . S
O517 Zn506 2.120 . S
O517 C511 1.299 . S
O518 Zn506 2.114 . S
O518 C520 1.166 . S
O519 Zn504 1.905 . S
O519 C520 1.182 . S
C520 O518 1.166 . S
C520 O519 1.182 . S
O521 Zn506 2.080 . S
O521 C524 1.305 . S
O522 Zn505 1.920 . S
O522 C524 1.234 . S
C523 O509 1.305 . S
C523 O510 1.234 . S
C524 O521 1.305 . S
C524 O522 1.234 . S
Zn525 O531 1.920 . S
Zn525 O537 1.898 . S
Zn525 O540 1.905 . S
Zn526 O534 1.905 . S
Zn526 O535 1.898 . S
Zn526 O543 1.920 . S
Zn527 O530 2.080 . S
Zn527 O533 2.114 . S
Zn527 O536 2.120 . S
Zn527 O538 2.120 . S
Zn527 O539 2.114 . S
Zn527 O542 2.080 . S
C528 O533 1.166 . S
C528 O534 1.182 . S
C529 O535 1.167 . S
C529 O536 1.299 . S
O530 Zn527 2.080 . S
O530 C544 1.305 . S
O531 Zn525 1.920 . S
O531 C544 1.234 . S
C532 O537 1.167 . S
C532 O538 1.299 . S
O533 Zn527 2.114 . S
O533 C528 1.166 . S
O534 Zn526 1.905 . S
O534 C528 1.182 . S
O535 Zn526 1.898 . S
O535 C529 1.167 . S
O536 Zn527 2.120 . S
O536 C529 1.299 . S
O537 Zn525 1.898 . S
O537 C532 1.167 . S
O538 Zn527 2.120 . S
O538 C532 1.299 . S
O539 Zn527 2.114 . S
O539 C541 1.166 . S
O540 Zn525 1.905 . S
O540 C541 1.182 . S
C541 O539 1.166 . S
C541 O540 1.182 . S
O542 Zn527 2.080 . S
O542 C545 1.305 . S
O543 Zn526 1.920 . S
O543 C545 1.234 . S
C544 O530 1.305 . S
C544 O531 1.234 . S
C545 O542 1.305 . S
C545 O543 1.234 . S
Zn546 O552 1.920 . S
Zn546 O558 1.898 . S
Zn546 O561 1.905 . S
Zn547 O555 1.905 . S
Zn547 O556 1.898 . S
Zn547 O564 1.920 . S
Zn548 O551 2.080 . S
Zn548 O554 2.114 . S
Zn548 O557 2.120 . S
Zn548 O559 2.120 . S
Zn548 O560 2.114 . S
Zn548 O563 2.080 . S
C549 O554 1.166 . S
C549 O555 1.182 . S
C550 O556 1.167 . S
C550 O557 1.299 . S
O551 Zn548 2.080 . S
O551 C565 1.305 . S
O552 Zn546 1.920 . S
O552 C565 1.234 . S
C553 O558 1.167 . S
C553 O559 1.299 . S
O554 Zn548 2.114 . S
O554 C549 1.166 . S
O555 Zn547 1.905 . S
O555 C549 1.182 . S
O556 Zn547 1.898 . S
O556 C550 1.167 . S
O557 Zn548 2.120 . S
O557 C550 1.299 . S
O558 Zn546 1.898 . S
O558 C553 1.167 . S
O559 Zn548 2.120 . S
O559 C553 1.299 . S
O560 Zn548 2.114 . S
O560 C562 1.166 . S
O561 Zn546 1.905 . S
O561 C562 1.182 . S
C562 O560 1.166 . S
C562 O561 1.182 . S
O563 Zn548 2.080 . S
O563 C566 1.305 . S
O564 Zn547 1.920 . S
O564 C566 1.234 . S
C565 O551 1.305 . S
C565 O552 1.234 . S
C566 O563 1.305 . S
C566 O564 1.234 . S
Zn567 O573 1.920 . S
Zn567 O579 1.898 . S
Zn567 O582 1.905 . S
Zn568 O576 1.905 . S
Zn568 O577 1.898 . S
Zn568 O585 1.920 . S
Zn569 O572 2.080 . S
Zn569 O575 2.114 . S
Zn569 O578 2.120 . S
Zn569 O580 2.120 . S
Zn569 O581 2.114 . S
Zn569 O584 2.080 . S
C570 O575 1.166 . S
C570 O576 1.182 . S
C571 O577 1.167 . S
C571 O578 1.299 . S
O572 Zn569 2.080 . S
O572 C586 1.305 . S
O573 Zn567 1.920 . S
O573 C586 1.234 . S
C574 O579 1.167 . S
C574 O580 1.299 . S
O575 Zn569 2.114 . S
O575 C570 1.166 . S
O576 Zn568 1.905 . S
O576 C570 1.182 . S
O577 Zn568 1.898 . S
O577 C571 1.167 . S
O578 Zn569 2.120 . S
O578 C571 1.299 . S
O579 Zn567 1.898 . S
O579 C574 1.167 . S
O580 Zn569 2.120 . S
O580 C574 1.299 . S
O581 Zn569 2.114 . S
O581 C583 1.166 . S
O582 Zn567 1.905 . S
O582 C583 1.182 . S
C583 O581 1.166 . S
C583 O582 1.182 . S
O584 Zn569 2.080 . S
O584 C587 1.305 . S
O585 Zn568 1.920 . S
O585 C587 1.234 . S
C586 O572 1.305 . S
C586 O573 1.234 . S
C587 O584 1.305 . S
C587 O585 1.234 . S
Zn588 O594 1.920 . S
Zn588 O600 1.898 . S
Zn588 O603 1.905 . S
Zn589 O597 1.905 . S
Zn589 O598 1.898 . S
Zn589 O606 1.920 . S
Zn590 O593 2.080 . S
Zn590 O596 2.114 . S
Zn590 O599 2.120 . S
Zn590 O601 2.120 . S
Zn590 O602 2.114 . S
Zn590 O605 2.080 . S
C591 O596 1.166 . S
C591 O597 1.182 . S
C592 O598 1.167 . S
C592 O599 1.299 . S
O593 Zn590 2.080 . S
O593 C607 1.305 . S
O594 Zn588 1.920 . S
O594 C607 1.234 . S
C595 O600 1.167 . S
C595 O601 1.299 . S
O596 Zn590 2.114 . S
O596 C591 1.166 . S
O597 Zn589 1.905 . S
O597 C591 1.182 . S
O598 Zn589 1.898 . S
O598 C592 1.167 . S
O599 Zn590 2.120 . S
O599 C592 1.299 . S
O600 Zn588 1.898 . S
O600 C595 1.167 . S
O601 Zn590 2.120 . S
O601 C595 1.299 . S
O602 Zn590 2.114 . S
O602 C604 1.166 . S
O603 Zn588 1.905 . S
O603 C604 1.182 . S
C604 O602 1.166 . S
C604 O603 1.182 . S
O605 Zn590 2.080 . S
O605 C608 1.305 . S
O606 Zn589 1.920 . S
O606 C608 1.234 . S
C607 O593 1.305 . S
C607 O594 1.234 . S
C608 O605 1.305 . S
C608 O606 1.234 . S
Zn609 O615 1.920 . S
Zn609 O621 1.898 . S
Zn609 O624 1.905 . S
Zn610 O618 1.905 . S
Zn610 O619 1.898 . S
Zn610 O627 1.920 . S
Zn611 O614 2.080 . S
Zn611 O617 2.114 . S
Zn611 O620 2.120 . S
Zn611 O622 2.120 . S
Zn611 O623 2.114 . S
Zn611 O626 2.080 . S
C612 O617 1.166 . S
C612 O618 1.182 . S
C613 O619 1.167 . S
C613 O620 1.299 . S
O614 Zn611 2.080 . S
O614 C628 1.305 . S
O615 Zn609 1.920 . S
O615 C628 1.234 . S
C616 O621 1.167 . S
C616 O622 1.299 . S
O617 Zn611 2.114 . S
O617 C612 1.166 . S
O618 Zn610 1.905 . S
O618 C612 1.182 . S
O619 Zn610 1.898 . S
O619 C613 1.167 . S
O620 Zn611 2.120 . S
O620 C613 1.299 . S
O621 Zn609 1.898 . S
O621 C616 1.167 . S
O622 Zn611 2.120 . S
O622 C616 1.299 . S
O623 Zn611 2.114 . S
O623 C625 1.166 . S
O624 Zn609 1.905 . S
O624 C625 1.182 . S
C625 O623 1.166 . S
C625 O624 1.182 . S
O626 Zn611 2.080 . S
O626 C629 1.305 . S
O627 Zn610 1.920 . S
O627 C629 1.234 . S
C628 O614 1.305 . S
C628 O615 1.234 . S
C629 O626 1.305 . S
C629 O627 1.234 . S
Zn630 O636 1.920 . S
Zn630 O642 1.898 . S
Zn630 O645 1.905 . S
Zn631 O639 1.905 . S
Zn631 O640 1.898 . S
Zn631 O648 1.920 . S
Zn632 O635 2.080 . S
Zn632 O638 2.114 . S
Zn632 O641 2.120 . S
Zn632 O643 2.120 . S
Zn632 O644 2.114 . S
Zn632 O647 2.080 . S
C633 O638 1.166 . S
C633 O639 1.182 . S
C634 O640 1.167 . S
C634 O641 1.299 . S
O635 Zn632 2.080 . S
O635 C649 1.305 . S
O636 Zn630 1.920 . S
O636 C649 1.234 . S
C637 O642 1.167 . S
C637 O643 1.299 . S
O638 Zn632 2.114 . S
O638 C633 1.166 . S
O639 Zn631 1.905 . S
O639 C633 1.182 . S
O640 Zn631 1.898 . S
O640 C634 1.167 . S
O641 Zn632 2.120 . S
O641 C634 1.299 . S
O642 Zn630 1.898 . S
O642 C637 1.167 . S
O643 Zn632 2.120 . S
O643 C637 1.299 . S
O644 Zn632 2.114 . S
O644 C646 1.166 . S
O645 Zn630 1.905 . S
O645 C646 1.182 . S
C646 O644 1.166 . S
C646 O645 1.182 . S
O647 Zn632 2.080 . S
O647 C650 1.305 . S
O648 Zn631 1.920 . S
O648 C650 1.234 . S
C649 O635 1.305 . S
C649 O636 1.234 . S
C650 O647 1.305 . S
C650 O648 1.234 . S
Zn651 O657 1.920 . S
Zn651 O663 1.898 . S
Zn651 O666 1.905 . S
Zn652 O660 1.905 . S
Zn652 O661 1.898 . S
Zn652 O669 1.920 . S
Zn653 O656 2.080 . S
Zn653 O659 2.114 . S
Zn653 O662 2.120 . S
Zn653 O664 2.120 . S
Zn653 O665 2.114 . S
Zn653 O668 2.080 . S
C654 O659 1.166 . S
C654 O660 1.182 . S
C655 O661 1.167 . S
C655 O662 1.299 . S
O656 Zn653 2.080 . S
O656 C670 1.305 . S
O657 Zn651 1.920 . S
O657 C670 1.234 . S
C658 O663 1.167 . S
C658 O664 1.299 . S
O659 Zn653 2.114 . S
O659 C654 1.166 . S
O660 Zn652 1.905 . S
O660 C654 1.182 . S
O661 Zn652 1.898 . S
O661 C655 1.167 . S
O662 Zn653 2.120 . S
O662 C655 1.299 . S
O663 Zn651 1.898 . S
O663 C658 1.167 . S
O664 Zn653 2.120 . S
O664 C658 1.299 . S
O665 Zn653 2.114 . S
O665 C667 1.166 . S
O666 Zn651 1.905 . S
O666 C667 1.182 . S
C667 O665 1.166 . S
C667 O666 1.182 . S
O668 Zn653 2.080 . S
O668 C671 1.305 . S
O669 Zn652 1.920 . S
O669 C671 1.234 . S
C670 O656 1.305 . S
C670 O657 1.234 . S
C671 O668 1.305 . S
C671 O669 1.234 . S
Zn672 O678 1.920 . S
Zn672 O684 1.898 . S
Zn672 O687 1.905 . S
Zn673 O681 1.905 . S
Zn673 O682 1.898 . S
Zn673 O690 1.920 . S
Zn674 O677 2.080 . S
Zn674 O680 2.114 . S
Zn674 O683 2.120 . S
Zn674 O685 2.120 . S
Zn674 O686 2.114 . S
Zn674 O689 2.080 . S
C675 O680 1.166 . S
C675 O681 1.182 . S
C676 O682 1.167 . S
C676 O683 1.299 . S
O677 Zn674 2.080 . S
O677 C691 1.305 . S
O678 Zn672 1.920 . S
O678 C691 1.234 . S
C679 O684 1.167 . S
C679 O685 1.299 . S
O680 Zn674 2.114 . S
O680 C675 1.166 . S
O681 Zn673 1.905 . S
O681 C675 1.182 . S
O682 Zn673 1.898 . S
O682 C676 1.167 . S
O683 Zn674 2.120 . S
O683 C676 1.299 . S
O684 Zn672 1.898 . S
O684 C679 1.167 . S
O685 Zn674 2.120 . S
O685 C679 1.299 . S
O686 Zn674 2.114 . S
O686 C688 1.166 . S
O687 Zn672 1.905 . S
O687 C688 1.182 . S
C688 O686 1.166 . S
C688 O687 1.182 . S
O689 Zn674 2.080 . S
O689 C692 1.305 . S
O690 Zn673 1.920 . S
O690 C692 1.234 . S
C691 O677 1.305 . S
C691 O678 1.234 . S
C692 O689 1.305 . S
C692 O690 1.234 . S
Zn693 O699 1.920 . S
Zn693 O705 1.898 . S
Zn693 O708 1.905 . S
Zn694 O702 1.905 . S
Zn694 O703 1.898 . S
Zn694 O711 1.920 . S
Zn695 O698 2.080 . S
Zn695 O701 2.114 . S
Zn695 O704 2.120 . S
Zn695 O706 2.120 . S
Zn695 O707 2.114 . S
Zn695 O710 2.080 . S
C696 O701 1.166 . S
C696 O702 1.182 . S
C697 O703 1.167 . S
C697 O704 1.299 . S
O698 Zn695 2.080 . S
O698 C712 1.305 . S
O699 Zn693 1.920 . S
O699 C712 1.234 . S
C700 O705 1.167 . S
C700 O706 1.299 . S
O701 Zn695 2.114 . S
O701 C696 1.166 . S
O702 Zn694 1.905 . S
O702 C696 1.182 . S
O703 Zn694 1.898 . S
O703 C697 1.167 . S
O704 Zn695 2.120 . S
O704 C697 1.299 . S
O705 Zn693 1.898 . S
O705 C700 1.167 . S
O706 Zn695 2.120 . S
O706 C700 1.299 . S
O707 Zn695 2.114 . S
O707 C709 1.166 . S
O708 Zn693 1.905 . S
O708 C709 1.182 . S
C709 O707 1.166 . S
C709 O708 1.182 . S
O710 Zn695 2.080 . S
O710 C713 1.305 . S
O711 Zn694 1.920 . S
O711 C713 1.234 . S
C712 O698 1.305 . S
C712 O699 1.234 . S
C713 O710 1.305 . S
C713 O711 1.234 . S
Zn714 O720 1.920 . S
Zn714 O726 1.898 . S
Zn714 O729 1.905 . S
Zn715 O723 1.905 . S
Zn715 O724 1.898 . S
Zn715 O732 1.920 . S
Zn716 O719 2.080 . S
Zn716 O722 2.114 . S
Zn716 O725 2.120 . S
Zn716 O727 2.120 . S
Zn716 O728 2.114 . S
Zn716 O731 2.080 . S
C717 O722 1.166 . S
C717 O723 1.182 . S
C718 O724 1.167 . S
C718 O725 1.299 . S
O719 Zn716 2.080 . S
O719 C733 1.305 . S
O720 Zn714 1.920 . S
O720 C733 1.234 . S
C721 O726 1.167 . S
C721 O727 1.299 . S
O722 Zn716 2.114 . S
O722 C717 1.166 . S
O723 Zn715 1.905 . S
O723 C717 1.182 . S
O724 Zn715 1.898 . S
O724 C718 1.167 . S
O725 Zn716 2.120 . S
O725 C718 1.299 . S
O726 Zn714 1.898 . S
O726 C721 1.167 . S
O727 Zn716 2.120 . S
O727 C721 1.299 . S
O728 Zn716 2.114 . S
O728 C730 1.166 . S
O729 Zn714 1.905 . S
O729 C730 1.182 . S
C730 O728 1.166 . S
C730 O729 1.182 . S
O731 Zn716 2.080 . S
O731 C734 1.305 . S
O732 Zn715 1.920 . S
O732 C734 1.234 . S
C733 O719 1.305 . S
C733 O720 1.234 . S
C734 O731 1.305 . S
C734 O732 1.234 . S
Zn735 O741 1.920 . S
Zn735 O747 1.898 . S
Zn735 O750 1.905 . S
Zn736 O744 1.905 . S
Zn736 O745 1.898 . S
Zn736 O753 1.920 . S
Zn737 O740 2.080 . S
Zn737 O743 2.114 . S
Zn737 O746 2.120 . S
Zn737 O748 2.120 . S
Zn737 O749 2.114 . S
Zn737 O752 2.080 . S
C738 O743 1.166 . S
C738 O744 1.182 . S
C739 O745 1.167 . S
C739 O746 1.299 . S
O740 Zn737 2.080 . S
O740 C754 1.305 . S
O741 Zn735 1.920 . S
O741 C754 1.234 . S
C742 O747 1.167 . S
C742 O748 1.299 . S
O743 Zn737 2.114 . S
O743 C738 1.166 . S
O744 Zn736 1.905 . S
O744 C738 1.182 . S
O745 Zn736 1.898 . S
O745 C739 1.167 . S
O746 Zn737 2.120 . S
O746 C739 1.299 . S
O747 Zn735 1.898 . S
O747 C742 1.167 . S
O748 Zn737 2.120 . S
O748 C742 1.299 . S
O749 Zn737 2.114 . S
O749 C751 1.166 . S
O750 Zn735 1.905 . S
O750 C751 1.182 . S
C751 O749 1.166 . S
C751 O750 1.182 . S
O752 Zn737 2.080 . S
O752 C755 1.305 . S
O753 Zn736 1.920 . S
O753 C755 1.234 . S
C754 O740 1.305 . S
C754 O741 1.234 . S
C755 O752 1.305 . S
C755 O753 1.234 . S
Zn756 O762 1.920 . S
Zn756 O768 1.898 . S
Zn756 O771 1.905 . S
Zn757 O765 1.905 . S
Zn757 O766 1.898 . S
Zn757 O774 1.920 . S
Zn758 O761 2.080 . S
Zn758 O764 2.114 . S
Zn758 O767 2.120 . S
Zn758 O769 2.120 . S
Zn758 O770 2.114 . S
Zn758 O773 2.080 . S
C759 O764 1.166 . S
C759 O765 1.182 . S
C760 O766 1.167 . S
C760 O767 1.299 . S
O761 Zn758 2.080 . S
O761 C775 1.305 . S
O762 Zn756 1.920 . S
O762 C775 1.234 . S
C763 O768 1.167 . S
C763 O769 1.299 . S
O764 Zn758 2.114 . S
O764 C759 1.166 . S
O765 Zn757 1.905 . S
O765 C759 1.182 . S
O766 Zn757 1.898 . S
O766 C760 1.167 . S
O767 Zn758 2.120 . S
O767 C760 1.299 . S
O768 Zn756 1.898 . S
O768 C763 1.167 . S
O769 Zn758 2.120 . S
O769 C763 1.299 . S
O770 Zn758 2.114 . S
O770 C772 1.166 . S
O771 Zn756 1.905 . S
O771 C772 1.182 . S
C772 O770 1.166 . S
C772 O771 1.182 . S
O773 Zn758 2.080 . S
O773 C776 1.305 . S
O774 Zn757 1.920 . S
O774 C776 1.234 . S
C775 O761 1.305 . S
C775 O762 1.234 . S
C776 O773 1.305 . S
C776 O774 1.234 . S
Zn777 O783 1.920 . S
Zn777 O789 1.898 . S
Zn777 O792 1.905 . S
Zn778 O786 1.905 . S
Zn778 O787 1.898 . S
Zn778 O795 1.920 . S
Zn779 O782 2.080 . S
Zn779 O785 2.114 . S
Zn779 O788 2.120 . S
Zn779 O790 2.120 . S
Zn779 O791 2.114 . S
Zn779 O794 2.080 . S
C780 O785 1.166 . S
C780 O786 1.182 . S
C781 O787 1.167 . S
C781 O788 1.299 . S
O782 Zn779 2.080 . S
O782 C796 1.305 . S
O783 Zn777 1.920 . S
O783 C796 1.234 . S
C784 O789 1.167 . S
C784 O790 1.299 . S
O785 Zn779 2.114 . S
O785 C780 1.166 . S
O786 Zn778 1.905 . S
O786 C780 1.182 . S
O787 Zn778 1.898 . S
O787 C781 1.167 . S
O788 Zn779 2.120 . S
O788 C781 1.299 . S
O789 Zn777 1.898 . S
O789 C784 1.167 . S
O790 Zn779 2.120 . S
O790 C784 1.299 . S
O791 Zn779 2.114 . S
O791 C793 1.166 . S
O792 Zn777 1.905 . S
O792 C793 1.182 . S
C793 O791 1.166 . S
C793 O792 1.182 . S
O794 Zn779 2.080 . S
O794 C797 1.305 . S
O795 Zn778 1.920 . S
O795 C797 1.234 . S
C796 O782 1.305 . S
C796 O783 1.234 . S
C797 O794 1.305 . S
C797 O795 1.234 . S
Zn798 O804 1.920 . S
Zn798 O810 1.898 . S
Zn798 O813 1.905 . S
Zn799 O807 1.905 . S
Zn799 O808 1.898 . S
Zn799 O816 1.920 . S
Zn800 O803 2.080 . S
Zn800 O806 2.114 . S
Zn800 O809 2.120 . S
Zn800 O811 2.120 . S
Zn800 O812 2.114 . S
Zn800 O815 2.080 . S
C801 O806 1.166 . S
C801 O807 1.182 . S
C802 O808 1.167 . S
C802 O809 1.299 . S
O803 Zn800 2.080 . S
O803 C817 1.305 . S
O804 Zn798 1.920 . S
O804 C817 1.234 . S
C805 O810 1.167 . S
C805 O811 1.299 . S
O806 Zn800 2.114 . S
O806 C801 1.166 . S
O807 Zn799 1.905 . S
O807 C801 1.182 . S
O808 Zn799 1.898 . S
O808 C802 1.167 . S
O809 Zn800 2.120 . S
O809 C802 1.299 . S
O810 Zn798 1.898 . S
O810 C805 1.167 . S
O811 Zn800 2.120 . S
O811 C805 1.299 . S
O812 Zn800 2.114 . S
O812 C814 1.166 . S
O813 Zn798 1.905 . S
O813 C814 1.182 . S
C814 O812 1.166 . S
C814 O813 1.182 . S
O815 Zn800 2.080 . S
O815 C818 1.305 . S
O816 Zn799 1.920 . S
O816 C818 1.234 . S
C817 O803 1.305 . S
C817 O804 1.234 . S
C818 O815 1.305 . S
C818 O816 1.234 . S
Zn819 O825 1.920 . S
Zn819 O831 1.898 . S
Zn819 O834 1.905 . S
Zn820 O828 1.905 . S
Zn820 O829 1.898 . S
Zn820 O837 1.920 . S
Zn821 O824 2.080 . S
Zn821 O827 2.114 . S
Zn821 O830 2.120 . S
Zn821 O832 2.120 . S
Zn821 O833 2.114 . S
Zn821 O836 2.080 . S
C822 O827 1.166 . S
C822 O828 1.182 . S
C823 O829 1.167 . S
C823 O830 1.299 . S
O824 Zn821 2.080 . S
O824 C838 1.305 . S
O825 Zn819 1.920 . S
O825 C838 1.234 . S
C826 O831 1.167 . S
C826 O832 1.299 . S
O827 Zn821 2.114 . S
O827 C822 1.166 . S
O828 Zn820 1.905 . S
O828 C822 1.182 . S
O829 Zn820 1.898 . S
O829 C823 1.167 . S
O830 Zn821 2.120 . S
O830 C823 1.299 . S
O831 Zn819 1.898 . S
O831 C826 1.167 . S
O832 Zn821 2.120 . S
O832 C826 1.299 . S
O833 Zn821 2.114 . S
O833 C835 1.166 . S
O834 Zn819 1.905 . S
O834 C835 1.182 . S
C835 O833 1.166 . S
C835 O834 1.182 . S
O836 Zn821 2.080 . S
O836 C839 1.305 . S
O837 Zn820 1.920 . S
O837 C839 1.234 . S
C838 O824 1.305 . S
C838 O825 1.234 . S
C839 O836 1.305 . S
C839 O837 1.234 . S
Zn840 O846 1.920 . S
Zn840 O852 1.898 . S
Zn840 O855 1.905 . S
Zn841 O849 1.905 . S
Zn841 O850 1.898 . S
Zn841 O858 1.920 . S
Zn842 O845 2.080 . S
Zn842 O848 2.114 . S
Zn842 O851 2.120 . S
Zn842 O853 2.120 . S
Zn842 O854 2.114 . S
Zn842 O857 2.080 . S
C843 O848 1.166 . S
C843 O849 1.182 . S
C844 O850 1.167 . S
C844 O851 1.299 . S
O845 Zn842 2.080 . S
O845 C859 1.305 . S
O846 Zn840 1.920 . S
O846 C859 1.234 . S
C847 O852 1.167 . S
C847 O853 1.299 . S
O848 Zn842 2.114 . S
O848 C843 1.166 . S
O849 Zn841 1.905 . S
O849 C843 1.182 . S
O850 Zn841 1.898 . S
O850 C844 1.167 . S
O851 Zn842 2.120 . S
O851 C844 1.299 . S
O852 Zn840 1.898 . S
O852 C847 1.167 . S
O853 Zn842 2.120 . S
O853 C847 1.299 . S
O854 Zn842 2.114 . S
O854 C856 1.166 . S
O855 Zn840 1.905 . S
O855 C856 1.182 . S
C856 O854 1.166 . S
C856 O855 1.182 . S
O857 Zn842 2.080 . S
O857 C860 1.305 . S
O858 Zn841 1.920 . S
O858 C860 1.234 . S
C859 O845 1.305 . S
C859 O846 1.234 . S
C860 O857 1.305 . S
C860 O858 1.234 . S
Zn861 O867 1.920 . S
Zn861 O873 1.898 . S
Zn861 O876 1.905 . S
Zn862 O870 1.905 . S
Zn862 O871 1.898 . S
Zn862 O879 1.920 . S
Zn863 O866 2.080 . S
Zn863 O869 2.114 . S
Zn863 O872 2.120 . S
Zn863 O874 2.120 . S
Zn863 O875 2.114 . S
Zn863 O878 2.080 . S
C864 O869 1.166 . S
C864 O870 1.182 . S
C865 O871 1.167 . S
C865 O872 1.299 . S
O866 Zn863 2.080 . S
O866 C880 1.305 . S
O867 Zn861 1.920 . S
O867 C880 1.234 . S
C868 O873 1.167 . S
C868 O874 1.299 . S
O869 Zn863 2.114 . S
O869 C864 1.166 . S
O870 Zn862 1.905 . S
O870 C864 1.182 . S
O871 Zn862 1.898 . S
O871 C865 1.167 . S
O872 Zn863 2.120 . S
O872 C865 1.299 . S
O873 Zn861 1.898 . S
O873 C868 1.167 . S
O874 Zn863 2.120 . S
O874 C868 1.299 . S
O875 Zn863 2.114 . S
O875 C877 1.166 . S
O876 Zn861 1.905 . S
O876 C877 1.182 . S
C877 O875 1.166 . S
C877 O876 1.182 . S
O878 Zn863 2.080 . S
O878 C881 1.305 . S
O879 Zn862 1.920 . S
O879 C881 1.234 . S
C880 O866 1.305 . S
C880 O867 1.234 . S
C881 O878 1.305 . S
C881 O879 1.234 . S
Zn882 O888 1.920 . S
Zn882 O894 1.898 . S
Zn882 O897 1.905 . S
Zn883 O891 1.905 . S
Zn883 O892 1.898 . S
Zn883 O900 1.920 . S
Zn884 O887 2.080 . S
Zn884 O890 2.114 . S
Zn884 O893 2.120 . S
Zn884 O895 2.120 . S
Zn884 O896 2.114 . S
Zn884 O899 2.080 . S
C885 O890 1.166 . S
C885 O891 1.182 . S
C886 O892 1.167 . S
C886 O893 1.299 . S
O887 Zn884 2.080 . S
O887 C901 1.305 . S
O888 Zn882 1.920 . S
O888 C901 1.234 . S
C889 O894 1.167 . S
C889 O895 1.299 . S
O890 Zn884 2.114 . S
O890 C885 1.166 . S
O891 Zn883 1.905 . S
O891 C885 1.182 . S
O892 Zn883 1.898 . S
O892 C886 1.167 . S
O893 Zn884 2.120 . S
O893 C886 1.299 . S
O894 Zn882 1.898 . S
O894 C889 1.167 . S
O895 Zn884 2.120 . S
O895 C889 1.299 . S
O896 Zn884 2.114 . S
O896 C898 1.166 . S
O897 Zn882 1.905 . S
O897 C898 1.182 . S
C898 O896 1.166 . S
C898 O897 1.182 . S
O899 Zn884 2.080 . S
O899 C902 1.305 . S
O900 Zn883 1.920 . S
O900 C902 1.234 . S
C901 O887 1.305 . S
C901 O888 1.234 . S
C902 O899 1.305 . S
C902 O900 1.234 . S
Zn903 O909 1.920 . S
Zn903 O915 1.898 . S
Zn903 O918 1.905 . S
Zn904 O912 1.905 . S
Zn904 O913 1.898 . S
Zn904 O921 1.920 . S
Zn905 O908 2.080 . S
Zn905 O911 2.114 . S
Zn905 O914 2.120 . S
Zn905 O916 2.120 . S
Zn905 O917 2.114 . S
Zn905 O920 2.080 . S
C906 O911 1.166 . S
C906 O912 1.182 . S
C907 O913 1.167 . S
C907 O914 1.299 . S
O908 Zn905 2.080 . S
O908 C922 1.305 . S
O909 Zn903 1.920 . S
O909 C922 1.234 . S
C910 O915 1.167 . S
C910 O916 1.299 . S
O911 Zn905 2.114 . S
O911 C906 1.166 . S
O912 Zn904 1.905 . S
O912 C906 1.182 . S
O913 Zn904 1.898 . S
O913 C907 1.167 . S
O914 Zn905 2.120 . S
O914 C907 1.299 . S
O915 Zn903 1.898 . S
O915 C910 1.167 . S
O916 Zn905 2.120 . S
O916 C910 1.299 . S
O917 Zn905 2.114 . S
O917 C919 1.166 . S
O918 Zn903 1.905 . S
O918 C919 1.182 . S
C919 O917 1.166 . S
C919 O918 1.182 . S
O920 Zn905 2.080 . S
O920 C923 1.305 . S
O921 Zn904 1.920 . S
O921 C923 1.234 . S
C922 O908 1.305 . S
C922 O909 1.234 . S
C923 O920 1.305 . S
C923 O921 1.234 . S
Zn924 O930 1.920 . S
Zn924 O936 1.898 . S
Zn924 O939 1.905 . S
Zn925 O933 1.905 . S
Zn925 O934 1.898 . S
Zn925 O942 1.920 . S
Zn926 O929 2.080 . S
Zn926 O932 2.114 . S
Zn926 O935 2.120 . S
Zn926 O937 2.120 . S
Zn926 O938 2.114 . S
Zn926 O941 2.080 . S
C927 O932 1.166 . S
C927 O933 1.182 . S
C928 O934 1.167 . S
C928 O935 1.299 . S
O929 Zn926 2.080 . S
O929 C943 1.305 . S
O930 Zn924 1.920 . S
O930 C943 1.234 . S
C931 O936 1.167 . S
C931 O937 1.299 . S
O932 Zn926 2.114 . S
O932 C927 1.166 . S
O933 Zn925 1.905 . S
O933 C927 1.182 . S
O934 Zn925 1.898 . S
O934 C928 1.167 . S
O935 Zn926 2.120 . S
O935 C928 1.299 . S
O936 Zn924 1.898 . S
O936 C931 1.167 . S
O937 Zn926 2.120 . S
O937 C931 1.299 . S
O938 Zn926 2.114 . S
O938 C940 1.166 . S
O939 Zn924 1.905 . S
O939 C940 1.182 . S
C940 O938 1.166 . S
C940 O939 1.182 . S
O941 Zn926 2.080 . S
O941 C944 1.305 . S
O942 Zn925 1.920 . S
O942 C944 1.234 . S
C943 O929 1.305 . S
C943 O930 1.234 . S
C944 O941 1.305 . S
C944 O942 1.234 . S
Zn945 O951 1.920 . S
Zn945 O957 1.898 . S
Zn945 O960 1.905 . S
Zn946 O954 1.905 . S
Zn946 O955 1.898 . S
Zn946 O963 1.920 . S
Zn947 O950 2.080 . S
Zn947 O953 2.114 . S
Zn947 O956 2.120 . S
Zn947 O958 2.120 . S
Zn947 O959 2.114 . S
Zn947 O962 2.080 . S
C948 O953 1.166 . S
C948 O954 1.182 . S
C949 O955 1.167 . S
C949 O956 1.299 . S
O950 Zn947 2.080 . S
O950 C964 1.305 . S
O951 Zn945 1.920 . S
O951 C964 1.234 . S
C952 O957 1.167 . S
C952 O958 1.299 . S
O953 Zn947 2.114 . S
O953 C948 1.166 . S
O954 Zn946 1.905 . S
O954 C948 1.182 . S
O955 Zn946 1.898 . S
O955 C949 1.167 . S
O956 Zn947 2.120 . S
O956 C949 1.299 . S
O957 Zn945 1.898 . S
O957 C952 1.167 . S
O958 Zn947 2.120 . S
O958 C952 1.299 . S
O959 Zn947 2.114 . S
O959 C961 1.166 . S
O960 Zn945 1.905 . S
O960 C961 1.182 . S
C961 O959 1.166 . S
C961 O960 1.182 . S
O962 Zn947 2.080 . S
O962 C965 1.305 . S
O963 Zn946 1.920 . S
O963 C965 1.234 . S
C964 O950 1.305 . S
C964 O951 1.234 . S
C965 O962 1.305 . S
C965 O963 1.234 . S
Zn966 O972 1.920 . S
Zn966 O978 1.898 . S
Zn966 O981 1.905 . S
Zn967 O975 1.905 . S
Zn967 O976 1.898 . S
Zn967 O984 1.920 . S
Zn968 O971 2.080 . S
Zn968 O974 2.114 . S
Zn968 O977 2.120 . S
Zn968 O979 2.120 . S
Zn968 O980 2.114 . S
Zn968 O983 2.080 . S
C969 O974 1.166 . S
C969 O975 1.182 . S
C970 O976 1.167 . S
C970 O977 1.299 . S
O971 Zn968 2.080 . S
O971 C985 1.305 . S
O972 Zn966 1.920 . S
O972 C985 1.234 . S
C973 O978 1.167 . S
C973 O979 1.299 . S
O974 Zn968 2.114 . S
O974 C969 1.166 . S
O975 Zn967 1.905 . S
O975 C969 1.182 . S
O976 Zn967 1.898 . S
O976 C970 1.167 . S
O977 Zn968 2.120 . S
O977 C970 1.299 . S
O978 Zn966 1.898 . S
O978 C973 1.167 . S
O979 Zn968 2.120 . S
O979 C973 1.299 . S
O980 Zn968 2.114 . S
O980 C982 1.166 . S
O981 Zn966 1.905 . S
O981 C982 1.182 . S
C982 O980 1.166 . S
C982 O981 1.182 . S
O983 Zn968 2.080 . S
O983 C986 1.305 . S
O984 Zn967 1.920 . S
O984 C986 1.234 . S
C985 O971 1.305 . S
C985 O972 1.234 . S
C986 O983 1.305 . S
C986 O984 1.234 . S
Zn987 O993 1.920 . S
Zn987 O999 1.898 . S
Zn987 O1002 1.905 . S
Zn988 O996 1.905 . S
Zn988 O997 1.898 . S
Zn988 O1005 1.920 . S
Zn989 O992 2.080 . S
Zn989 O995 2.114 . S
Zn989 O998 2.120 . S
Zn989 O1000 2.120 . S
Zn989 O1001 2.114 . S
Zn989 O1004 2.080 . S
C990 O995 1.166 . S
C990 O996 1.182 . S
C991 O997 1.167 . S
C991 O998 1.299 . S
O992 Zn989 2.080 . S
O992 C1006 1.305 . S
O993 Zn987 1.920 . S
O993 C1006 1.234 . S
C994 O999 1.167 . S
C994 O1000 1.299 . S
O995 Zn989 2.114 . S
O995 C990 1.166 . S
O996 Zn988 1.905 . S
O996 C990 1.182 . S
O997 Zn988 1.898 . S
O997 C991 1.167 . S
O998 Zn989 2.120 . S
O998 C991 1.299 . S
O999 Zn987 1.898 . S
O999 C994 1.167 . S
O1000 Zn989 2.120 . S
O1000 C994 1.299 . S
O1001 Zn989 2.114 . S
O1001 C1003 1.166 . S
O1002 Zn987 1.905 . S
O1002 C1003 1.182 . S
C1003 O1001 1.166 . S
C1003 O1002 1.182 . S
O1004 Zn989 2.080 . S
O1004 C1007 1.305 . S
O1005 Zn988 1.920 . S
O1005 C1007 1.234 . S
C1006 O992 1.305 . S
C1006 O993 1.234 . S
C1007 O1004 1.305 . S
C1007 O1005 1.234 . S
C1008 C1009 1.391 1_655 S
C1008 C1010 1.394 . S
C1008 H1024 0.931 . S
C1009 C1008 1.391 1_455 S
C1009 C1013 1.376 . S
C1010 C1008 1.394 . S
C1010 C1011 1.369 1_655 S
C1010 C1014 1.531 . S
C1011 C1010 1.369 1_455 S
C1011 C1012 1.410 . S
C1011 C1019 1.503 . S
C1012 C1011 1.410 . S
C1012 C1013 1.392 . S
C1012 C1015 1.511 . S
C1013 C1009 1.376 . S
C1013 C1012 1.392 . S
C1013 H1025 0.929 . S
C1014 C1010 1.531 . S
C1014 H1026 0.960 . S
C1014 H1027 0.962 . S
C1014 H1028 0.960 . S
C1015 C1012 1.511 . S
C1015 H1029 0.961 . S
C1015 H1030 0.961 . S
C1015 H1031 0.961 . S
C1016 C1017 1.370 . S
C1016 C1018 1.363 . S
C1016 H1032 0.931 1_455 S
C1017 C1016 1.370 . S
C1017 C1021 1.408 . S
C1018 C1016 1.363 . S
C1018 C1019 1.370 . S
C1018 C1022 1.524 1_455 S
C1019 C1011 1.503 . S
C1019 C1018 1.370 . S
C1019 C1020 1.403 . S
C1020 C1019 1.403 . S
C1020 C1021 1.404 . S
C1020 C1023 1.539 . S
C1021 C1017 1.408 . S
C1021 C1020 1.404 . S
C1021 H1033 0.930 . S
C1022 C1018 1.524 1_655 S
C1022 H1034 0.956 . S
C1022 H1035 0.961 1_655 S
C1022 H1036 0.961 . S
C1023 C1020 1.539 . S
C1023 H1037 0.958 . S
C1023 H1038 0.961 . S
C1023 H1039 0.960 . S
H1024 C1008 0.931 . S
H1025 C1013 0.929 . S
H1026 C1014 0.960 . S
H1027 C1014 0.962 . S
H1028 C1014 0.960 . S
H1029 C1015 0.961 . S
H1030 C1015 0.961 . S
H1031 C1015 0.961 . S
H1032 C1016 0.931 1_655 S
H1033 C1021 0.930 . S
H1034 C1022 0.956 . S
H1035 C1022 0.961 1_455 S
H1036 C1022 0.961 . S
H1037 C1023 0.958 . S
H1038 C1023 0.961 . S
H1039 C1023 0.960 . S
C1040 C1041 1.391 . S
C1040 C1042 1.397 . S
C1040 H1056 0.927 1_545 S
C1041 C1040 1.391 . S
C1041 C1045 1.376 . S
C1042 C1040 1.397 . S
C1042 C1043 1.375 . S
C1042 C1046 1.521 1_545 S
C1043 C1042 1.375 . S
C1043 C1044 1.410 . S
C1043 C1051 1.503 . S
C1044 C1043 1.410 . S
C1044 C1045 1.392 . S
C1044 C1047 1.511 . S
C1045 C1041 1.376 . S
C1045 C1044 1.392 . S
C1045 H1057 0.929 . S
C1046 C1042 1.521 1_565 S
C1046 H1058 0.960 . S
C1046 H1059 0.962 1_565 S
C1046 H1060 0.960 . S
C1047 C1044 1.511 . S
C1047 H1061 0.961 . S
C1047 H1062 0.961 . S
C1047 H1063 0.961 . S
C1048 C1049 1.370 . S
C1048 C1050 1.363 . S
C1048 H1064 0.931 . S
C1049 C1048 1.370 . S
C1049 C1053 1.408 1_545 S
C1050 C1048 1.363 . S
C1050 C1051 1.370 . S
C1050 C1054 1.524 . S
C1051 C1043 1.503 . S
C1051 C1050 1.370 . S
C1051 C1052 1.403 1_545 S
C1052 C1051 1.403 1_565 S
C1052 C1053 1.404 . S
C1052 C1055 1.539 . S
C1053 C1049 1.408 1_565 S
C1053 C1052 1.404 . S
C1053 H1065 0.930 . S
C1054 C1050 1.524 . S
C1054 H1066 0.956 . S
C1054 H1067 0.961 . S
C1054 H1068 0.961 . S
C1055 C1052 1.539 . S
C1055 H1069 0.958 . S
C1055 H1070 0.961 . S
C1055 H1071 0.960 . S
H1056 C1040 0.927 1_565 S
H1057 C1045 0.929 . S
H1058 C1046 0.960 . S
H1059 C1046 0.962 1_545 S
H1060 C1046 0.960 . S
H1061 C1047 0.961 . S
H1062 C1047 0.961 . S
H1063 C1047 0.961 . S
H1064 C1048 0.931 . S
H1065 C1053 0.930 . S
H1066 C1054 0.956 . S
H1067 C1054 0.961 . S
H1068 C1054 0.961 . S
H1069 C1055 0.958 . S
H1070 C1055 0.961 . S
H1071 C1055 0.960 . S
C1072 C1073 1.391 1_655 S
C1072 C1074 1.394 . S
C1072 H1088 0.931 . S
C1073 C1072 1.391 1_455 S
C1073 C1077 1.376 . S
C1074 C1072 1.394 . S
C1074 C1075 1.369 1_655 S
C1074 C1078 1.531 . S
C1075 C1074 1.369 1_455 S
C1075 C1076 1.410 . S
C1075 C1083 1.503 . S
C1076 C1075 1.410 . S
C1076 C1077 1.392 . S
C1076 C1079 1.511 . S
C1077 C1073 1.376 . S
C1077 C1076 1.392 . S
C1077 H1089 0.929 . S
C1078 C1074 1.531 . S
C1078 H1090 0.960 . S
C1078 H1091 0.962 . S
C1078 H1092 0.960 . S
C1079 C1076 1.511 . S
C1079 H1093 0.961 . S
C1079 H1094 0.961 . S
C1079 H1095 0.961 . S
C1080 C1081 1.370 . S
C1080 C1082 1.363 . S
C1080 H1096 0.931 1_455 S
C1081 C1080 1.370 . S
C1081 C1085 1.408 . S
C1082 C1080 1.363 . S
C1082 C1083 1.370 . S
C1082 C1086 1.524 1_455 S
C1083 C1075 1.503 . S
C1083 C1082 1.370 . S
C1083 C1084 1.403 . S
C1084 C1083 1.403 . S
C1084 C1085 1.404 . S
C1084 C1087 1.539 . S
C1085 C1081 1.408 . S
C1085 C1084 1.404 . S
C1085 H1097 0.930 . S
C1086 C1082 1.524 1_655 S
C1086 H1098 0.956 . S
C1086 H1099 0.976 . S
C1086 H1100 0.961 . S
C1087 C1084 1.539 . S
C1087 H1101 0.958 . S
C1087 H1102 0.961 . S
C1087 H1103 0.960 . S
H1088 C1072 0.931 . S
H1089 C1077 0.929 . S
H1090 C1078 0.960 . S
H1091 C1078 0.962 . S
H1092 C1078 0.960 . S
H1093 C1079 0.961 . S
H1094 C1079 0.961 . S
H1095 C1079 0.961 . S
H1096 C1080 0.931 1_655 S
H1097 C1085 0.930 . S
H1098 C1086 0.956 . S
H1099 C1086 0.976 . S
H1100 C1086 0.961 . S
H1101 C1087 0.958 . S
H1102 C1087 0.961 . S
H1103 C1087 0.960 . S
C1104 C1105 1.394 . S
C1104 C1106 1.394 . S
C1104 H1120 0.928 1_545 S
C1105 C1104 1.394 . S
C1105 C1109 1.376 . S
C1106 C1104 1.394 . S
C1106 C1107 1.371 . S
C1106 C1110 1.528 1_545 S
C1107 C1106 1.371 . S
C1107 C1108 1.410 . S
C1107 C1115 1.503 . S
C1108 C1107 1.410 . S
C1108 C1109 1.392 . S
C1108 C1111 1.511 . S
C1109 C1105 1.376 . S
C1109 C1108 1.392 . S
C1109 H1121 0.929 . S
C1110 C1106 1.528 1_565 S
C1110 H1122 0.960 . S
C1110 H1123 0.962 1_565 S
C1110 H1124 0.960 . S
C1111 C1108 1.511 . S
C1111 H1125 0.961 . S
C1111 H1126 0.961 . S
C1111 H1127 0.961 1_545 S
C1112 C1113 1.370 . S
C1112 C1114 1.363 . S
C1112 H1128 0.931 . S
C1113 C1112 1.370 . S
C1113 C1117 1.408 1_545 S
C1114 C1112 1.363 . S
C1114 C1115 1.370 . S
C1114 C1118 1.524 . S
C1115 C1107 1.503 . S
C1115 C1114 1.370 . S
C1115 C1116 1.403 1_545 S
C1116 C1115 1.403 1_565 S
C1116 C1117 1.404 . S
C1116 C1119 1.539 . S
C1117 C1113 1.408 1_565 S
C1117 C1116 1.404 . S
C1117 H1129 0.930 . S
C1118 C1114 1.524 . S
C1118 H1130 0.956 . S
C1118 H1131 0.961 . S
C1118 H1132 0.961 . S
C1119 C1116 1.539 . S
C1119 H1133 0.958 . S
C1119 H1134 0.961 . S
C1119 H1135 0.960 . S
H1120 C1104 0.928 1_565 S
H1121 C1109 0.929 . S
H1122 C1110 0.960 . S
H1123 C1110 0.962 1_545 S
H1124 C1110 0.960 . S
H1125 C1111 0.961 . S
H1126 C1111 0.961 . S
H1127 C1111 0.961 1_565 S
H1128 C1112 0.931 . S
H1129 C1117 0.930 . S
H1130 C1118 0.956 . S
H1131 C1118 0.961 . S
H1132 C1118 0.961 . S
H1133 C1119 0.958 . S
H1134 C1119 0.961 . S
H1135 C1119 0.960 . S
C1136 C1137 1.391 . S
C1136 C1138 1.394 . S
C1136 H1152 0.931 . S
C1137 C1136 1.391 . S
C1137 C1141 1.376 1_545 S
C1138 C1136 1.394 . S
C1138 C1139 1.369 . S
C1138 C1142 1.531 . S
C1139 C1138 1.369 . S
C1139 C1140 1.410 1_545 S
C1139 C1147 1.503 . S
C1140 C1139 1.410 1_565 S
C1140 C1141 1.392 . S
C1140 C1143 1.511 . S
C1141 C1137 1.376 1_565 S
C1141 C1140 1.392 . S
C1141 H1153 0.929 . S
C1142 C1138 1.531 . S
C1142 H1154 0.960 . S
C1142 H1155 0.962 . S
C1142 H1156 0.960 . S
C1143 C1140 1.511 . S
C1143 H1157 0.961 . S
C1143 H1158 0.961 . S
C1143 H1159 0.961 . S
C1144 C1145 1.370 . S
C1144 C1146 1.363 . S
C1144 H1160 0.931 . S
C1145 C1144 1.370 . S
C1145 C1149 1.408 . S
C1146 C1144 1.363 . S
C1146 C1147 1.370 . S
C1146 C1150 1.524 . S
C1147 C1139 1.503 . S
C1147 C1146 1.370 . S
C1147 C1148 1.403 . S
C1148 C1147 1.403 . S
C1148 C1149 1.404 . S
C1148 C1151 1.539 . S
C1149 C1145 1.408 . S
C1149 C1148 1.404 . S
C1149 H1161 0.930 . S
C1150 C1146 1.524 . S
C1150 H1162 0.956 . S
C1150 H1163 0.961 1_545 S
C1150 H1164 0.961 . S
C1151 C1148 1.539 . S
C1151 H1165 0.958 . S
C1151 H1166 0.961 . S
C1151 H1167 0.960 . S
H1152 C1136 0.931 . S
H1153 C1141 0.929 . S
H1154 C1142 0.960 . S
H1155 C1142 0.962 . S
H1156 C1142 0.960 . S
H1157 C1143 0.961 . S
H1158 C1143 0.961 . S
H1159 C1143 0.961 . S
H1160 C1144 0.931 . S
H1161 C1149 0.930 . S
H1162 C1150 0.956 . S
H1163 C1150 0.961 1_565 S
H1164 C1150 0.961 . S
H1165 C1151 0.958 . S
H1166 C1151 0.961 . S
H1167 C1151 0.960 . S
C1168 C1169 1.391 . S
C1168 C1170 1.394 . S
C1168 H1184 0.931 . S
C1169 C1168 1.391 . S
C1169 C1173 1.376 1_455 S
C1170 C1168 1.394 . S
C1170 C1171 1.369 . S
C1170 C1174 1.531 . S
C1171 C1170 1.369 . S
C1171 C1172 1.410 1_455 S
C1171 C1179 1.503 . S
C1172 C1171 1.410 1_655 S
C1172 C1173 1.392 . S
C1172 C1175 1.511 . S
C1173 C1169 1.376 1_655 S
C1173 C1172 1.392 . S
C1173 H1185 0.929 . S
C1174 C1170 1.531 . S
C1174 H1186 0.960 . S
C1174 H1187 0.962 . S
C1174 H1188 0.960 . S
C1175 C1172 1.511 . S
C1175 H1189 0.961 . S
C1175 H1190 0.961 . S
C1175 H1191 0.961 . S
C1176 C1177 1.370 . S
C1176 C1178 1.363 . S
C1176 H1192 0.931 . S
C1177 C1176 1.370 . S
C1177 C1181 1.408 . S
C1178 C1176 1.363 . S
C1178 C1179 1.370 . S
C1178 C1182 1.524 . S
C1179 C1171 1.503 . S
C1179 C1178 1.370 . S
C1179 C1180 1.403 . S
C1180 C1179 1.403 . S
C1180 C1181 1.404 . S
C1180 C1183 1.527 1_455 S
C1181 C1177 1.408 . S
C1181 C1180 1.404 . S
C1181 H1193 0.930 . S
C1182 C1178 1.524 . S
C1182 H1194 0.956 . S
C1182 H1195 0.961 . S
C1182 H1196 0.961 . S
C1183 C1180 1.527 1_655 S
C1183 H1197 0.921 1_655 S
C1183 H1198 0.990 . S
C1183 H1199 0.983 . S
H1184 C1168 0.931 . S
H1185 C1173 0.929 . S
H1186 C1174 0.960 . S
H1187 C1174 0.962 . S
H1188 C1174 0.960 . S
H1189 C1175 0.961 . S
H1190 C1175 0.961 . S
H1191 C1175 0.961 . S
H1192 C1176 0.931 . S
H1193 C1181 0.930 . S
H1194 C1182 0.956 . S
H1195 C1182 0.961 . S
H1196 C1182 0.961 . S
H1197 C1183 0.921 1_455 S
H1198 C1183 0.990 . S
H1199 C1183 0.983 . S
C1200 C1201 1.391 . S
C1200 C1202 1.394 . S
C1200 H1216 0.931 . S
C1201 C1200 1.391 . S
C1201 C1205 1.376 1_545 S
C1202 C1200 1.394 . S
C1202 C1203 1.369 . S
C1202 C1206 1.531 . S
C1203 C1202 1.369 . S
C1203 C1204 1.410 1_545 S
C1203 C1211 1.503 . S
C1204 C1203 1.410 1_565 S
C1204 C1205 1.392 . S
C1204 C1207 1.511 . S
C1205 C1201 1.376 1_565 S
C1205 C1204 1.392 . S
C1205 H1217 0.929 . S
C1206 C1202 1.531 . S
C1206 H1218 0.960 . S
C1206 H1219 0.962 . S
C1206 H1220 0.960 . S
C1207 C1204 1.511 . S
C1207 H1221 0.961 . S
C1207 H1222 0.961 . S
C1207 H1223 0.961 . S
C1208 C1209 1.370 . S
C1208 C1210 1.363 . S
C1208 H1224 0.931 . S
C1209 C1208 1.370 . S
C1209 C1213 1.408 . S
C1210 C1208 1.363 . S
C1210 C1211 1.370 . S
C1210 C1214 1.524 1_545 S
C1211 C1203 1.503 . S
C1211 C1210 1.370 . S
C1211 C1212 1.403 . S
C1212 C1211 1.403 . S
C1212 C1213 1.404 . S
C1212 C1215 1.539 . S
C1213 C1209 1.408 . S
C1213 C1212 1.404 . S
C1213 H1225 0.930 . S
C1214 C1210 1.524 1_565 S
C1214 H1226 0.956 1_565 S
C1214 H1227 0.961 . S
C1214 H1228 0.961 . S
C1215 C1212 1.539 . S
C1215 H1229 0.958 . S
C1215 H1230 0.961 . S
C1215 H1231 0.960 . S
H1216 C1200 0.931 . S
H1217 C1205 0.929 . S
H1218 C1206 0.960 . S
H1219 C1206 0.962 . S
H1220 C1206 0.960 . S
H1221 C1207 0.961 . S
H1222 C1207 0.961 . S
H1223 C1207 0.961 . S
H1224 C1208 0.931 . S
H1225 C1213 0.930 . S
H1226 C1214 0.956 1_545 S
H1227 C1214 0.961 . S
H1228 C1214 0.961 . S
H1229 C1215 0.958 . S
H1230 C1215 0.961 . S
H1231 C1215 0.960 . S
C1232 C1233 1.391 . S
C1232 C1234 1.394 . S
C1232 H1248 0.931 . S
C1233 C1232 1.391 . S
C1233 C1237 1.376 . S
C1234 C1232 1.394 . S
C1234 C1235 1.369 . S
C1234 C1238 1.531 . S
C1235 C1234 1.369 . S
C1235 C1236 1.410 . S
C1235 C1243 1.503 . S
C1236 C1235 1.410 . S
C1236 C1237 1.392 . S
C1236 C1239 1.511 . S
C1237 C1233 1.376 . S
C1237 C1236 1.392 . S
C1237 H1249 0.929 . S
C1238 C1234 1.531 . S
C1238 H1250 0.960 . S
C1238 H1251 0.962 1_455 S
C1238 H1252 0.960 . S
C1239 C1236 1.511 . S
C1239 H1253 0.961 . S
C1239 H1254 0.961 . S
C1239 H1255 0.961 . S
C1240 C1241 1.370 1_655 S
C1240 C1242 1.363 . S
C1240 H1256 0.931 . S
C1241 C1240 1.370 1_455 S
C1241 C1245 1.408 . S
C1242 C1240 1.363 . S
C1242 C1243 1.370 1_655 S
C1242 C1246 1.524 . S
C1243 C1235 1.503 . S
C1243 C1242 1.370 1_455 S
C1243 C1244 1.403 . S
C1244 C1243 1.403 . S
C1244 C1245 1.404 . S
C1244 C1247 1.539 . S
C1245 C1241 1.408 . S
C1245 C1244 1.404 . S
C1245 H1257 0.930 . S
C1246 C1242 1.524 . S
C1246 H1258 0.956 . S
C1246 H1259 0.961 . S
C1246 H1260 0.961 . S
C1247 C1244 1.539 . S
C1247 H1261 0.958 . S
C1247 H1262 0.961 . S
C1247 H1263 0.960 . S
H1248 C1232 0.931 . S
H1249 C1237 0.929 . S
H1250 C1238 0.960 . S
H1251 C1238 0.962 1_655 S
H1252 C1238 0.960 . S
H1253 C1239 0.961 . S
H1254 C1239 0.961 . S
H1255 C1239 0.961 . S
H1256 C1240 0.931 . S
H1257 C1245 0.930 . S
H1258 C1246 0.956 . S
H1259 C1246 0.961 . S
H1260 C1246 0.961 . S
H1261 C1247 0.958 . S
H1262 C1247 0.961 . S
H1263 C1247 0.960 . S
C1264 C1265 1.391 . S
C1264 C1266 1.394 . S
C1264 H1280 0.931 . S
C1265 C1264 1.391 . S
C1265 C1269 1.376 . S
C1266 C1264 1.394 . S
C1266 C1267 1.369 . S
C1266 C1270 1.531 . S
C1267 C1266 1.369 . S
C1267 C1268 1.410 . S
C1267 C1275 1.503 . S
C1268 C1267 1.410 . S
C1268 C1269 1.392 . S
C1268 C1271 1.511 . S
C1269 C1265 1.376 . S
C1269 C1268 1.392 . S
C1269 H1281 0.929 . S
C1270 C1266 1.531 . S
C1270 H1282 0.960 . S
C1270 H1283 0.962 . S
C1270 H1284 0.960 . S
C1271 C1268 1.511 . S
C1271 H1285 0.961 1_554 S
C1271 H1286 0.961 1_554 S
C1271 H1287 0.961 . S
C1272 C1273 1.370 1_556 S
C1272 C1274 1.363 . S
C1272 H1288 0.931 . S
C1273 C1272 1.370 1_554 S
C1273 C1277 1.408 . S
C1274 C1272 1.363 . S
C1274 C1275 1.370 1_556 S
C1274 C1278 1.524 . S
C1275 C1267 1.503 . S
C1275 C1274 1.370 1_554 S
C1275 C1276 1.403 . S
C1276 C1275 1.403 . S
C1276 C1277 1.404 . S
C1276 C1279 1.539 . S
C1277 C1273 1.408 . S
C1277 C1276 1.404 . S
C1277 H1289 0.930 . S
C1278 C1274 1.524 . S
C1278 H1290 0.956 . S
C1278 H1291 0.961 . S
C1278 H1292 0.961 . S
C1279 C1276 1.539 . S
C1279 H1293 0.958 . S
C1279 H1294 0.961 . S
C1279 H1295 0.960 . S
H1280 C1264 0.931 . S
H1281 C1269 0.929 . S
H1282 C1270 0.960 . S
H1283 C1270 0.962 . S
H1284 C1270 0.960 . S
H1285 C1271 0.961 1_556 S
H1286 C1271 0.961 1_556 S
H1287 C1271 0.961 . S
H1288 C1272 0.931 . S
H1289 C1277 0.930 . S
H1290 C1278 0.956 . S
H1291 C1278 0.961 . S
H1292 C1278 0.961 . S
H1293 C1279 0.958 . S
H1294 C1279 0.961 . S
H1295 C1279 0.960 . S
C1296 C1297 1.391 1_556 S
C1296 C1298 1.394 . S
C1296 H1312 0.931 . S
C1297 C1296 1.391 1_554 S
C1297 C1301 1.376 . S
C1298 C1296 1.394 . S
C1298 C1299 1.369 1_556 S
C1298 C1302 1.531 . S
C1299 C1298 1.369 1_554 S
C1299 C1300 1.410 . S
C1299 C1307 1.503 . S
C1300 C1299 1.410 . S
C1300 C1301 1.392 . S
C1300 C1303 1.511 . S
C1301 C1297 1.376 . S
C1301 C1300 1.392 . S
C1301 H1313 0.929 . S
C1302 C1298 1.531 . S
C1302 H1314 0.960 . S
C1302 H1315 0.962 . S
C1302 H1316 0.960 . S
C1303 C1300 1.511 . S
C1303 H1317 0.961 . S
C1303 H1318 0.961 . S
C1303 H1319 0.961 . S
C1304 C1305 1.370 . S
C1304 C1306 1.363 . S
C1304 H1320 0.931 . S
C1305 C1304 1.370 . S
C1305 C1309 1.408 . S
C1306 C1304 1.363 . S
C1306 C1307 1.370 . S
C1306 C1310 1.519 1_554 S
C1307 C1299 1.503 . S
C1307 C1306 1.370 . S
C1307 C1308 1.403 . S
C1308 C1307 1.403 . S
C1308 C1309 1.404 . S
C1308 C1311 1.539 . S
C1309 C1305 1.408 . S
C1309 C1308 1.404 . S
C1309 H1321 0.930 . S
C1310 C1306 1.519 1_556 S
C1310 H1322 0.975 . S
C1310 H1323 0.945 1_556 S
C1310 H1324 0.963 . S
C1311 C1308 1.539 . S
C1311 H1325 0.958 . S
C1311 H1326 0.961 . S
C1311 H1327 0.960 . S
H1312 C1296 0.931 . S
H1313 C1301 0.929 . S
H1314 C1302 0.960 . S
H1315 C1302 0.962 . S
H1316 C1302 0.960 . S
H1317 C1303 0.961 . S
H1318 C1303 0.961 . S
H1319 C1303 0.961 . S
H1320 C1304 0.931 . S
H1321 C1309 0.930 . S
H1322 C1310 0.975 . S
H1323 C1310 0.945 1_554 S
H1324 C1310 0.963 . S
H1325 C1311 0.958 . S
H1326 C1311 0.961 . S
H1327 C1311 0.960 . S
C1328 C1329 1.391 1_556 S
C1328 C1330 1.394 . S
C1328 H1344 0.931 . S
C1329 C1328 1.391 1_554 S
C1329 C1333 1.376 . S
C1330 C1328 1.394 . S
C1330 C1331 1.369 1_556 S
C1330 C1334 1.531 . S
C1331 C1330 1.369 1_554 S
C1331 C1332 1.410 . S
C1331 C1339 1.503 . S
C1332 C1331 1.410 . S
C1332 C1333 1.392 . S
C1332 C1335 1.511 . S
C1333 C1329 1.376 . S
C1333 C1332 1.392 . S
C1333 H1345 0.929 . S
C1334 C1330 1.531 . S
C1334 H1346 0.960 . S
C1334 H1347 0.962 . S
C1334 H1348 0.960 . S
C1335 C1332 1.511 . S
C1335 H1349 0.961 . S
C1335 H1350 0.961 . S
C1335 H1351 0.961 . S
C1336 C1337 1.370 . S
C1336 C1338 1.363 . S
C1336 H1352 0.931 . S
C1337 C1336 1.370 . S
C1337 C1341 1.408 1_554 S
C1338 C1336 1.363 . S
C1338 C1339 1.370 . S
C1338 C1342 1.524 . S
C1339 C1331 1.503 . S
C1339 C1338 1.370 . S
C1339 C1340 1.403 1_554 S
C1340 C1339 1.403 1_556 S
C1340 C1341 1.404 . S
C1340 C1343 1.539 . S
C1341 C1337 1.408 1_556 S
C1341 C1340 1.404 . S
C1341 H1353 0.930 . S
C1342 C1338 1.524 . S
C1342 H1354 0.956 . S
C1342 H1355 0.961 . S
C1342 H1356 0.961 . S
C1343 C1340 1.539 . S
C1343 H1357 0.958 . S
C1343 H1358 0.961 . S
C1343 H1359 0.960 . S
H1344 C1328 0.931 . S
H1345 C1333 0.929 . S
H1346 C1334 0.960 . S
H1347 C1334 0.962 . S
H1348 C1334 0.960 . S
H1349 C1335 0.961 . S
H1350 C1335 0.961 . S
H1351 C1335 0.961 . S
H1352 C1336 0.931 . S
H1353 C1341 0.930 . S
H1354 C1342 0.956 . S
H1355 C1342 0.961 . S
H1356 C1342 0.961 . S
H1357 C1343 0.958 . S
H1358 C1343 0.961 . S
H1359 C1343 0.960 . S
C1360 C1361 1.391 1_556 S
C1360 C1362 1.394 . S
C1360 H1376 0.931 . S
C1361 C1360 1.391 1_554 S
C1361 C1365 1.376 . S
C1362 C1360 1.394 . S
C1362 C1363 1.369 1_556 S
C1362 C1366 1.531 . S
C1363 C1362 1.369 1_554 S
C1363 C1364 1.410 . S
C1363 C1371 1.503 . S
C1364 C1363 1.410 . S
C1364 C1365 1.392 . S
C1364 C1367 1.511 . S
C1365 C1361 1.376 . S
C1365 C1364 1.392 . S
C1365 H1377 0.929 . S
C1366 C1362 1.531 . S
C1366 H1378 0.960 . S
C1366 H1379 0.962 . S
C1366 H1380 0.960 . S
C1367 C1364 1.511 . S
C1367 H1381 0.961 . S
C1367 H1382 0.961 . S
C1367 H1383 0.961 . S
C1368 C1369 1.370 . S
C1368 C1370 1.363 . S
C1368 H1384 0.931 . S
C1369 C1368 1.370 . S
C1369 C1373 1.408 1_554 S
C1370 C1368 1.363 . S
C1370 C1371 1.370 . S
C1370 C1374 1.524 . S
C1371 C1363 1.503 . S
C1371 C1370 1.370 . S
C1371 C1372 1.403 1_554 S
C1372 C1371 1.403 1_556 S
C1372 C1373 1.404 . S
C1372 C1375 1.539 . S
C1373 C1369 1.408 1_556 S
C1373 C1372 1.404 . S
C1373 H1385 0.930 . S
C1374 C1370 1.524 . S
C1374 H1386 0.956 . S
C1374 H1387 0.961 . S
C1374 H1388 0.961 . S
C1375 C1372 1.539 . S
C1375 H1389 0.958 . S
C1375 H1390 0.961 . S
C1375 H1391 0.960 . S
H1376 C1360 0.931 . S
H1377 C1365 0.929 . S
H1378 C1366 0.960 . S
H1379 C1366 0.962 . S
H1380 C1366 0.960 . S
H1381 C1367 0.961 . S
H1382 C1367 0.961 . S
H1383 C1367 0.961 . S
H1384 C1368 0.931 . S
H1385 C1373 0.930 . S
H1386 C1374 0.956 . S
H1387 C1374 0.961 . S
H1388 C1374 0.961 . S
H1389 C1375 0.958 . S
H1390 C1375 0.961 . S
H1391 C1375 0.960 . S
C1392 C1393 1.391 . S
C1392 C1394 1.394 . S
C1392 H1408 0.931 . S
C1393 C1392 1.391 . S
C1393 C1397 1.376 . S
C1394 C1392 1.394 . S
C1394 C1395 1.369 . S
C1394 C1398 1.509 1_556 S
C1395 C1394 1.369 . S
C1395 C1396 1.410 . S
C1395 C1403 1.503 1_556 S
C1396 C1395 1.410 . S
C1396 C1397 1.392 . S
C1396 C1399 1.511 . S
C1397 C1393 1.376 . S
C1397 C1396 1.392 . S
C1397 H1409 0.929 . S
C1398 C1394 1.509 1_554 S
C1398 H1410 0.994 . S
C1398 H1411 0.972 . S
C1398 H1412 0.939 1_554 S
C1399 C1396 1.511 . S
C1399 H1413 0.961 . S
C1399 H1414 0.961 1_556 S
C1399 H1415 0.961 . S
C1400 C1401 1.370 . S
C1400 C1402 1.363 . S
C1400 H1416 0.931 . S
C1401 C1400 1.370 . S
C1401 C1405 1.408 . S
C1402 C1400 1.363 . S
C1402 C1403 1.370 . S
C1402 C1406 1.524 . S
C1403 C1395 1.503 1_554 S
C1403 C1402 1.370 . S
C1403 C1404 1.403 . S
C1404 C1403 1.403 . S
C1404 C1405 1.404 . S
C1404 C1407 1.539 . S
C1405 C1401 1.408 . S
C1405 C1404 1.404 . S
C1405 H1417 0.930 . S
C1406 C1402 1.524 . S
C1406 H1418 0.956 . S
C1406 H1419 0.961 . S
C1406 H1420 0.961 . S
C1407 C1404 1.539 . S
C1407 H1421 0.958 . S
C1407 H1422 0.961 . S
C1407 H1423 0.960 . S
H1408 C1392 0.931 . S
H1409 C1397 0.929 . S
H1410 C1398 0.994 . S
H1411 C1398 0.972 . S
H1412 C1398 0.939 1_556 S
H1413 C1399 0.961 . S
H1414 C1399 0.961 1_554 S
H1415 C1399 0.961 . S
H1416 C1400 0.931 . S
H1417 C1405 0.930 . S
H1418 C1406 0.956 . S
H1419 C1406 0.961 . S
H1420 C1406 0.961 . S
H1421 C1407 0.958 . S
H1422 C1407 0.961 . S
H1423 C1407 0.960 . S
C1424 C1425 1.391 . S
C1424 C1426 1.394 . S
C1424 H1440 0.931 . S
C1425 C1424 1.391 . S
C1425 C1429 1.376 . S
C1426 C1424 1.394 . S
C1426 C1427 1.369 . S
C1426 C1430 1.531 . S
C1427 C1426 1.369 . S
C1427 C1428 1.410 . S
C1427 C1435 1.503 1_556 S
C1428 C1427 1.410 . S
C1428 C1429 1.392 . S
C1428 C1431 1.514 1_556 S
C1429 C1425 1.376 . S
C1429 C1428 1.392 . S
C1429 H1441 0.929 . S
C1430 C1426 1.531 . S
C1430 H1442 0.960 1_556 S
C1430 H1443 0.966 . S
C1430 H1444 0.960 . S
C1431 C1428 1.514 1_554 S
C1431 H1445 0.963 1_554 S
C1431 H1446 0.956 . S
C1431 H1447 0.960 . S
C1432 C1433 1.370 . S
C1432 C1434 1.363 . S
C1432 H1448 0.931 . S
C1433 C1432 1.370 . S
C1433 C1437 1.408 . S
C1434 C1432 1.363 . S
C1434 C1435 1.370 . S
C1434 C1438 1.524 . S
C1435 C1427 1.503 1_554 S
C1435 C1434 1.370 . S
C1435 C1436 1.403 . S
C1436 C1435 1.403 . S
C1436 C1437 1.404 . S
C1436 C1439 1.539 . S
C1437 C1433 1.408 . S
C1437 C1436 1.404 . S
C1437 H1449 0.930 . S
C1438 C1434 1.524 . S
C1438 H1450 0.956 . S
C1438 H1451 0.961 . S
C1438 H1452 0.961 . S
C1439 C1436 1.539 . S
C1439 H1453 0.958 . S
C1439 H1454 0.961 . S
C1439 H1455 0.960 . S
H1440 C1424 0.931 . S
H1441 C1429 0.929 . S
H1442 C1430 0.960 1_554 S
H1443 C1430 0.966 . S
H1444 C1430 0.960 . S
H1445 C1431 0.963 1_556 S
H1446 C1431 0.956 . S
H1447 C1431 0.960 . S
H1448 C1432 0.931 . S
H1449 C1437 0.930 . S
H1450 C1438 0.956 . S
H1451 C1438 0.961 . S
H1452 C1438 0.961 . S
H1453 C1439 0.958 . S
H1454 C1439 0.961 . S
H1455 C1439 0.960 . S
C1456 C1457 1.391 . S
C1456 C1458 1.394 . S
C1456 H1472 0.931 . S
C1457 C1456 1.391 . S
C1457 C1461 1.376 . S
C1458 C1456 1.394 . S
C1458 C1459 1.369 . S
C1458 C1462 1.518 1_556 S
C1459 C1458 1.369 . S
C1459 C1460 1.410 . S
C1459 C1467 1.503 1_556 S
C1460 C1459 1.410 . S
C1460 C1461 1.392 . S
C1460 C1463 1.511 . S
C1461 C1457 1.376 . S
C1461 C1460 1.392 . S
C1461 H1473 0.929 . S
C1462 C1458 1.518 1_554 S
C1462 H1474 0.980 . S
C1462 H1475 0.968 . S
C1462 H1476 0.948 1_554 S
C1463 C1460 1.511 . S
C1463 H1477 0.961 . S
C1463 H1478 0.961 1_556 S
C1463 H1479 0.961 . S
C1464 C1465 1.370 . S
C1464 C1466 1.363 . S
C1464 H1480 0.931 . S
C1465 C1464 1.370 . S
C1465 C1469 1.408 . S
C1466 C1464 1.363 . S
C1466 C1467 1.370 . S
C1466 C1470 1.524 . S
C1467 C1459 1.503 1_554 S
C1467 C1466 1.370 . S
C1467 C1468 1.403 . S
C1468 C1467 1.403 . S
C1468 C1469 1.404 . S
C1468 C1471 1.539 . S
C1469 C1465 1.408 . S
C1469 C1468 1.404 . S
C1469 H1481 0.930 . S
C1470 C1466 1.524 . S
C1470 H1482 0.956 . S
C1470 H1483 0.961 . S
C1470 H1484 0.961 . S
C1471 C1468 1.539 . S
C1471 H1485 0.958 . S
C1471 H1486 0.961 . S
C1471 H1487 0.960 . S
H1472 C1456 0.931 . S
H1473 C1461 0.929 . S
H1474 C1462 0.980 . S
H1475 C1462 0.968 . S
H1476 C1462 0.948 1_556 S
H1477 C1463 0.961 . S
H1478 C1463 0.961 1_554 S
H1479 C1463 0.961 . S
H1480 C1464 0.931 . S
H1481 C1469 0.930 . S
H1482 C1470 0.956 . S
H1483 C1470 0.961 . S
H1484 C1470 0.961 . S
H1485 C1471 0.958 . S
H1486 C1471 0.961 . S
H1487 C1471 0.960 . S
C1488 C1489 1.391 . S
C1488 C1490 1.394 . S
C1488 H1504 0.931 . S
C1489 C1488 1.391 . S
C1489 C1493 1.376 . S
C1490 C1488 1.394 . S
C1490 C1491 1.369 . S
C1490 C1494 1.531 . S
C1491 C1490 1.369 . S
C1491 C1492 1.410 . S
C1491 C1499 1.503 1_556 S
C1492 C1491 1.410 . S
C1492 C1493 1.392 . S
C1492 C1495 1.511 . S
C1493 C1489 1.376 . S
C1493 C1492 1.392 . S
C1493 H1505 0.929 . S
C1494 C1490 1.531 . S
C1494 H1506 0.960 1_556 S
C1494 H1507 0.962 1_556 S
C1494 H1508 0.960 . S
C1495 C1492 1.511 . S
C1495 H1509 0.961 . S
C1495 H1510 0.961 1_556 S
C1495 H1511 0.952 1_556 S
C1496 C1497 1.370 . S
C1496 C1498 1.363 . S
C1496 H1512 0.931 . S
C1497 C1496 1.370 . S
C1497 C1501 1.408 . S
C1498 C1496 1.363 . S
C1498 C1499 1.370 . S
C1498 C1502 1.524 . S
C1499 C1491 1.503 1_554 S
C1499 C1498 1.370 . S
C1499 C1500 1.403 . S
C1500 C1499 1.403 . S
C1500 C1501 1.404 . S
C1500 C1503 1.539 . S
C1501 C1497 1.408 . S
C1501 C1500 1.404 . S
C1501 H1513 0.930 . S
C1502 C1498 1.524 . S
C1502 H1514 0.956 . S
C1502 H1515 0.961 . S
C1502 H1516 0.961 . S
C1503 C1500 1.539 . S
C1503 H1517 0.958 . S
C1503 H1518 0.961 . S
C1503 H1519 0.960 . S
H1504 C1488 0.931 . S
H1505 C1493 0.929 . S
H1506 C1494 0.960 1_554 S
H1507 C1494 0.962 1_554 S
H1508 C1494 0.960 . S
H1509 C1495 0.961 . S
H1510 C1495 0.961 1_554 S
H1511 C1495 0.952 1_554 S
H1512 C1496 0.931 . S
H1513 C1501 0.930 . S
H1514 C1502 0.956 . S
H1515 C1502 0.961 . S
H1516 C1502 0.961 . S
H1517 C1503 0.958 . S
H1518 C1503 0.961 . S
H1519 C1503 0.960 . S
C1520 C1521 1.391 . S
C1520 C1522 1.394 . S
C1520 H1536 0.931 . S
C1521 C1520 1.391 . S
C1521 C1525 1.376 . S
C1522 C1520 1.394 . S
C1522 C1523 1.369 . S
C1522 C1526 1.531 . S
C1523 C1522 1.369 . S
C1523 C1524 1.410 . S
C1523 C1531 1.503 1_655 S
C1524 C1523 1.410 . S
C1524 C1525 1.392 . S
C1524 C1527 1.511 . S
C1525 C1521 1.376 . S
C1525 C1524 1.392 . S
C1525 H1537 0.929 . S
C1526 C1522 1.531 . S
C1526 H1538 0.960 1_655 S
C1526 H1539 0.962 1_655 S
C1526 H1540 0.960 . S
C1527 C1524 1.511 . S
C1527 H1541 0.961 . S
C1527 H1542 0.961 1_655 S
C1527 H1543 0.966 . S
C1528 C1529 1.370 . S
C1528 C1530 1.363 . S
C1528 H1544 0.931 . S
C1529 C1528 1.370 . S
C1529 C1533 1.408 . S
C1530 C1528 1.363 . S
C1530 C1531 1.370 . S
C1530 C1534 1.524 . S
C1531 C1523 1.503 1_455 S
C1531 C1530 1.370 . S
C1531 C1532 1.403 . S
C1532 C1531 1.403 . S
C1532 C1533 1.404 . S
C1532 C1535 1.539 . S
C1533 C1529 1.408 . S
C1533 C1532 1.404 . S
C1533 H1545 0.930 . S
C1534 C1530 1.524 . S
C1534 H1546 0.956 . S
C1534 H1547 0.961 . S
C1534 H1548 0.961 . S
C1535 C1532 1.539 . S
C1535 H1549 0.958 . S
C1535 H1550 0.961 . S
C1535 H1551 0.960 . S
H1536 C1520 0.931 . S
H1537 C1525 0.929 . S
H1538 C1526 0.960 1_455 S
H1539 C1526 0.962 1_455 S
H1540 C1526 0.960 . S
H1541 C1527 0.961 . S
H1542 C1527 0.961 1_455 S
H1543 C1527 0.966 . S
H1544 C1528 0.931 . S
H1545 C1533 0.930 . S
H1546 C1534 0.956 . S
H1547 C1534 0.961 . S
H1548 C1534 0.961 . S
H1549 C1535 0.958 . S
H1550 C1535 0.961 . S
H1551 C1535 0.960 . S
C1552 C1553 1.391 . S
C1552 C1554 1.394 . S
C1552 H1568 0.931 . S
C1553 C1552 1.391 . S
C1553 C1557 1.376 . S
C1554 C1552 1.394 . S
C1554 C1555 1.369 . S
C1554 C1558 1.513 1_565 S
C1555 C1554 1.369 . S
C1555 C1556 1.410 . S
C1555 C1563 1.503 1_565 S
C1556 C1555 1.410 . S
C1556 C1557 1.392 . S
C1556 C1559 1.511 . S
C1557 C1553 1.376 . S
C1557 C1556 1.392 . S
C1557 H1569 0.929 . S
C1558 C1554 1.513 1_545 S
C1558 H1570 0.988 . S
C1558 H1571 0.971 . S
C1558 H1572 0.943 1_545 S
C1559 C1556 1.511 . S
C1559 H1573 0.961 . S
C1559 H1574 0.961 1_565 S
C1559 H1575 0.961 . S
C1560 C1561 1.370 . S
C1560 C1562 1.363 . S
C1560 H1576 0.931 . S
C1561 C1560 1.370 . S
C1561 C1565 1.408 . S
C1562 C1560 1.363 . S
C1562 C1563 1.370 . S
C1562 C1566 1.524 . S
C1563 C1555 1.503 1_545 S
C1563 C1562 1.370 . S
C1563 C1564 1.403 . S
C1564 C1563 1.403 . S
C1564 C1565 1.404 . S
C1564 C1567 1.539 . S
C1565 C1561 1.408 . S
C1565 C1564 1.404 . S
C1565 H1577 0.930 . S
C1566 C1562 1.524 . S
C1566 H1578 0.956 . S
C1566 H1579 0.961 . S
C1566 H1580 0.961 . S
C1567 C1564 1.539 . S
C1567 H1581 0.958 . S
C1567 H1582 0.961 . S
C1567 H1583 0.960 . S
H1568 C1552 0.931 . S
H1569 C1557 0.929 . S
H1570 C1558 0.988 . S
H1571 C1558 0.971 . S
H1572 C1558 0.943 1_565 S
H1573 C1559 0.961 . S
H1574 C1559 0.961 1_545 S
H1575 C1559 0.961 . S
H1576 C1560 0.931 . S
H1577 C1565 0.930 . S
H1578 C1566 0.956 . S
H1579 C1566 0.961 . S
H1580 C1566 0.961 . S
H1581 C1567 0.958 . S
H1582 C1567 0.961 . S
H1583 C1567 0.960 . S
C1584 C1585 1.391 . S
C1584 C1586 1.394 . S
C1584 H1600 0.931 . S
C1585 C1584 1.391 . S
C1585 C1589 1.376 . S
C1586 C1584 1.394 . S
C1586 C1587 1.369 . S
C1586 C1590 1.508 1_655 S
C1587 C1586 1.369 . S
C1587 C1588 1.410 . S
C1587 C1595 1.503 1_655 S
C1588 C1587 1.410 . S
C1588 C1589 1.392 . S
C1588 C1591 1.511 . S
C1589 C1585 1.376 . S
C1589 C1588 1.392 . S
C1589 H1601 0.929 . S
C1590 C1586 1.508 1_455 S
C1590 H1602 0.996 . S
C1590 H1603 0.972 . S
C1590 H1604 0.939 1_455 S
C1591 C1588 1.511 . S
C1591 H1605 0.961 . S
C1591 H1606 0.961 1_655 S
C1591 H1607 0.961 . S
C1592 C1593 1.370 . S
C1592 C1594 1.363 . S
C1592 H1608 0.931 . S
C1593 C1592 1.370 . S
C1593 C1597 1.408 . S
C1594 C1592 1.363 . S
C1594 C1595 1.370 . S
C1594 C1598 1.524 . S
C1595 C1587 1.503 1_455 S
C1595 C1594 1.370 . S
C1595 C1596 1.403 . S
C1596 C1595 1.403 . S
C1596 C1597 1.404 . S
C1596 C1599 1.539 . S
C1597 C1593 1.408 . S
C1597 C1596 1.404 . S
C1597 H1609 0.930 . S
C1598 C1594 1.524 . S
C1598 H1610 0.956 . S
C1598 H1611 0.961 . S
C1598 H1612 0.961 . S
C1599 C1596 1.539 . S
C1599 H1613 0.958 . S
C1599 H1614 0.961 . S
C1599 H1615 0.960 . S
H1600 C1584 0.931 . S
H1601 C1589 0.929 . S
H1602 C1590 0.996 . S
H1603 C1590 0.972 . S
H1604 C1590 0.939 1_655 S
H1605 C1591 0.961 . S
H1606 C1591 0.961 1_455 S
H1607 C1591 0.961 . S
H1608 C1592 0.931 . S
H1609 C1597 0.930 . S
H1610 C1598 0.956 . S
H1611 C1598 0.961 . S
H1612 C1598 0.961 . S
H1613 C1599 0.958 . S
H1614 C1599 0.961 . S
H1615 C1599 0.960 . S
C1616 C1617 1.391 . S
C1616 C1618 1.394 . S
C1616 H1632 0.931 . S
C1617 C1616 1.391 . S
C1617 C1621 1.376 . S
C1618 C1616 1.394 . S
C1618 C1619 1.369 . S
C1618 C1622 1.531 . S
C1619 C1618 1.369 . S
C1619 C1620 1.410 . S
C1619 C1627 1.503 1_545 S
C1620 C1619 1.410 . S
C1620 C1621 1.392 . S
C1620 C1623 1.511 . S
C1621 C1617 1.376 . S
C1621 C1620 1.392 . S
C1621 H1633 0.929 . S
C1622 C1618 1.531 . S
C1622 H1634 0.960 . S
C1622 H1635 0.962 . S
C1622 H1636 0.960 . S
C1623 C1620 1.511 . S
C1623 H1637 0.961 . S
C1623 H1638 0.961 . S
C1623 H1639 0.961 . S
C1624 C1625 1.370 . S
C1624 C1626 1.363 . S
C1624 H1640 0.931 . S
C1625 C1624 1.370 . S
C1625 C1629 1.408 . S
C1626 C1624 1.363 . S
C1626 C1627 1.370 . S
C1626 C1630 1.524 . S
C1627 C1619 1.503 1_565 S
C1627 C1626 1.370 . S
C1627 C1628 1.403 . S
C1628 C1627 1.403 . S
C1628 C1629 1.404 . S
C1628 C1631 1.539 . S
C1629 C1625 1.408 . S
C1629 C1628 1.404 . S
C1629 H1641 0.930 . S
C1630 C1626 1.524 . S
C1630 H1642 0.956 1_565 S
C1630 H1643 0.961 1_565 S
C1630 H1644 0.961 . S
C1631 C1628 1.539 . S
C1631 H1645 0.960 . S
C1631 H1646 0.961 . S
C1631 H1647 0.960 1_565 S
H1632 C1616 0.931 . S
H1633 C1621 0.929 . S
H1634 C1622 0.960 . S
H1635 C1622 0.962 . S
H1636 C1622 0.960 . S
H1637 C1623 0.961 . S
H1638 C1623 0.961 . S
H1639 C1623 0.961 . S
H1640 C1624 0.931 . S
H1641 C1629 0.930 . S
H1642 C1630 0.956 1_545 S
H1643 C1630 0.961 1_545 S
H1644 C1630 0.961 . S
H1645 C1631 0.960 . S
H1646 C1631 0.961 . S
H1647 C1631 0.960 1_545 S
C1648 C1649 1.391 . S
C1648 C1650 1.394 . S
C1648 H1664 0.931 . S
C1649 C1648 1.391 . S
C1649 C1653 1.376 . S
C1650 C1648 1.394 . S
C1650 C1651 1.369 . S
C1650 C1654 1.531 . S
C1651 C1650 1.369 . S
C1651 C1652 1.410 . S
C1651 C1659 1.503 1_565 S
C1652 C1651 1.410 . S
C1652 C1653 1.392 . S
C1652 C1655 1.522 . S
C1653 C1649 1.376 . S
C1653 C1652 1.392 . S
C1653 H1665 0.929 . S
C1654 C1650 1.531 . S
C1654 H1666 0.960 1_565 S
C1654 H1667 0.961 . S
C1654 H1668 0.960 . S
C1655 C1652 1.522 . S
C1655 H1669 0.973 . S
C1655 H1670 0.942 1_565 S
C1655 H1671 0.957 1_565 S
C1656 C1657 1.370 . S
C1656 C1658 1.363 . S
C1656 H1672 0.931 . S
C1657 C1656 1.370 . S
C1657 C1661 1.408 . S
C1658 C1656 1.363 . S
C1658 C1659 1.370 . S
C1658 C1662 1.524 . S
C1659 C1651 1.503 1_545 S
C1659 C1658 1.370 . S
C1659 C1660 1.403 . S
C1660 C1659 1.403 . S
C1660 C1661 1.404 . S
C1660 C1663 1.539 . S
C1661 C1657 1.408 . S
C1661 C1660 1.404 . S
C1661 H1673 0.930 . S
C1662 C1658 1.524 . S
C1662 H1674 0.956 . S
C1662 H1675 0.961 . S
C1662 H1676 0.961 . S
C1663 C1660 1.539 . S
C1663 H1677 0.958 . S
C1663 H1678 0.961 . S
C1663 H1679 0.960 . S
H1664 C1648 0.931 . S
H1665 C1653 0.929 . S
H1666 C1654 0.960 1_545 S
H1667 C1654 0.961 . S
H1668 C1654 0.960 . S
H1669 C1655 0.973 . S
H1670 C1655 0.942 1_545 S
H1671 C1655 0.957 1_545 S
H1672 C1656 0.931 . S
H1673 C1661 0.930 . S
H1674 C1662 0.956 . S
H1675 C1662 0.961 . S
H1676 C1662 0.961 . S
H1677 C1663 0.958 . S
H1678 C1663 0.961 . S
H1679 C1663 0.960 . S
C1680 C1681 1.391 . S
C1680 C1682 1.394 . S
C1680 H1696 0.931 . S
C1681 C1680 1.391 . S
C1681 C1685 1.376 . S
C1682 C1680 1.394 . S
C1682 C1683 1.369 . S
C1682 C1686 1.531 . S
C1683 C1682 1.369 . S
C1683 C1684 1.410 . S
C1683 C1691 1.503 1_455 S
C1684 C1683 1.410 . S
C1684 C1685 1.392 . S
C1684 C1687 1.511 . S
C1685 C1681 1.376 . S
C1685 C1684 1.392 . S
C1685 H1697 0.929 . S
C1686 C1682 1.531 . S
C1686 H1698 0.960 . S
C1686 H1699 0.962 . S
C1686 H1700 0.960 . S
C1687 C1684 1.511 . S
C1687 H1701 0.961 . S
C1687 H1702 0.961 . S
C1687 H1703 0.961 . S
C1688 C1689 1.370 . S
C1688 C1690 1.363 . S
C1688 H1704 0.931 . S
C1689 C1688 1.370 . S
C1689 C1693 1.408 . S
C1690 C1688 1.363 . S
C1690 C1691 1.370 . S
C1690 C1694 1.524 1_655 S
C1691 C1683 1.503 1_655 S
C1691 C1690 1.370 . S
C1691 C1692 1.403 . S
C1692 C1691 1.403 . S
C1692 C1693 1.404 . S
C1692 C1695 1.539 . S
C1693 C1689 1.408 . S
C1693 C1692 1.404 . S
C1693 H1705 0.930 . S
C1694 C1690 1.524 1_455 S
C1694 H1706 0.956 . S
C1694 H1707 0.961 . S
C1694 H1708 0.961 1_455 S
C1695 C1692 1.539 . S
C1695 H1709 0.958 . S
C1695 H1710 0.961 . S
C1695 H1711 0.960 1_655 S
H1696 C1680 0.931 . S
H1697 C1685 0.929 . S
H1698 C1686 0.960 . S
H1699 C1686 0.962 . S
H1700 C1686 0.960 . S
H1701 C1687 0.961 . S
H1702 C1687 0.961 . S
H1703 C1687 0.961 . S
H1704 C1688 0.931 . S
H1705 C1693 0.930 . S
H1706 C1694 0.956 . S
H1707 C1694 0.961 . S
H1708 C1694 0.961 1_655 S
H1709 C1695 0.958 . S
H1710 C1695 0.961 . S
H1711 C1695 0.960 1_455 S
C1712 C1713 1.391 . S
C1712 C1714 1.394 . S
C1712 H1728 0.931 . S
C1713 C1712 1.391 . S
C1713 C1717 1.376 . S
C1714 C1712 1.394 . S
C1714 C1715 1.369 . S
C1714 C1718 1.509 1_565 S
C1715 C1714 1.369 . S
C1715 C1716 1.410 . S
C1715 C1723 1.503 1_565 S
C1716 C1715 1.410 . S
C1716 C1717 1.392 . S
C1716 C1719 1.511 . S
C1717 C1713 1.376 . S
C1717 C1716 1.392 . S
C1717 H1729 0.929 . S
C1718 C1714 1.509 1_545 S
C1718 H1730 0.994 . S
C1718 H1731 0.971 . S
C1718 H1732 0.940 1_545 S
C1719 C1716 1.511 . S
C1719 H1733 0.961 . S
C1719 H1734 0.961 1_565 S
C1719 H1735 0.961 . S
C1720 C1721 1.370 . S
C1720 C1722 1.363 . S
C1720 H1736 0.931 . S
C1721 C1720 1.370 . S
C1721 C1725 1.408 . S
C1722 C1720 1.363 . S
C1722 C1723 1.370 . S
C1722 C1726 1.524 . S
C1723 C1715 1.503 1_545 S
C1723 C1722 1.370 . S
C1723 C1724 1.403 . S
C1724 C1723 1.403 . S
C1724 C1725 1.404 . S
C1724 C1727 1.539 . S
C1725 C1721 1.408 . S
C1725 C1724 1.404 . S
C1725 H1737 0.930 . S
C1726 C1722 1.524 . S
C1726 H1738 0.956 . S
C1726 H1739 0.961 . S
C1726 H1740 0.961 . S
C1727 C1724 1.539 . S
C1727 H1741 0.958 . S
C1727 H1742 0.961 . S
C1727 H1743 0.960 . S
H1728 C1712 0.931 . S
H1729 C1717 0.929 . S
H1730 C1718 0.994 . S
H1731 C1718 0.971 . S
H1732 C1718 0.940 1_565 S
H1733 C1719 0.961 . S
H1734 C1719 0.961 1_545 S
H1735 C1719 0.961 . S
H1736 C1720 0.931 . S
H1737 C1725 0.930 . S
H1738 C1726 0.956 . S
H1739 C1726 0.961 . S
H1740 C1726 0.961 . S
H1741 C1727 0.958 . S
H1742 C1727 0.961 . S
H1743 C1727 0.960 . S
C1744 C1745 1.391 . S
C1744 C1746 1.394 . S
C1744 H1760 0.931 . S
C1745 C1744 1.391 . S
C1745 C1749 1.376 . S
C1746 C1744 1.394 . S
C1746 C1747 1.369 . S
C1746 C1750 1.531 . S
C1747 C1746 1.369 . S
C1747 C1748 1.410 . S
C1747 C1755 1.503 1_455 S
C1748 C1747 1.410 . S
C1748 C1749 1.392 . S
C1748 C1751 1.511 . S
C1749 C1745 1.376 . S
C1749 C1748 1.392 . S
C1749 H1761 0.929 . S
C1750 C1746 1.531 . S
C1750 H1762 0.960 . S
C1750 H1763 0.962 . S
C1750 H1764 0.960 . S
C1751 C1748 1.511 . S
C1751 H1765 0.961 . S
C1751 H1766 0.961 . S
C1751 H1767 0.961 . S
C1752 C1753 1.370 . S
C1752 C1754 1.363 . S
C1752 H1768 0.931 . S
C1753 C1752 1.370 . S
C1753 C1757 1.408 . S
C1754 C1752 1.363 . S
C1754 C1755 1.370 . S
C1754 C1758 1.524 . S
C1755 C1747 1.503 1_655 S
C1755 C1754 1.370 . S
C1755 C1756 1.403 . S
C1756 C1755 1.403 . S
C1756 C1757 1.404 . S
C1756 C1759 1.539 . S
C1757 C1753 1.408 . S
C1757 C1756 1.404 . S
C1757 H1769 0.930 . S
C1758 C1754 1.524 . S
C1758 H1770 0.956 1_655 S
C1758 H1771 0.961 1_655 S
C1758 H1772 0.961 . S
C1759 C1756 1.539 . S
C1759 H1773 0.954 1_655 S
C1759 H1774 0.961 . S
C1759 H1775 0.960 1_655 S
H1760 C1744 0.931 . S
H1761 C1749 0.929 . S
H1762 C1750 0.960 . S
H1763 C1750 0.962 . S
H1764 C1750 0.960 . S
H1765 C1751 0.961 . S
H1766 C1751 0.961 . S
H1767 C1751 0.961 . S
H1768 C1752 0.931 . S
H1769 C1757 0.930 . S
H1770 C1758 0.956 1_455 S
H1771 C1758 0.961 1_455 S
H1772 C1758 0.961 . S
H1773 C1759 0.954 1_455 S
H1774 C1759 0.961 . S
H1775 C1759 0.960 1_455 S
C1776 C1777 1.391 . S
C1776 C1778 1.394 . S
C1776 H1792 0.931 . S
C1777 C1776 1.391 . S
C1777 C1781 1.376 1_455 S
C1778 C1776 1.394 . S
C1778 C1779 1.369 . S
C1778 C1782 1.531 . S
C1779 C1778 1.369 . S
C1779 C1780 1.410 1_455 S
C1779 C1787 1.503 . S
C1780 C1779 1.410 1_655 S
C1780 C1781 1.392 . S
C1780 C1783 1.511 . S
C1781 C1777 1.376 1_655 S
C1781 C1780 1.392 . S
C1781 H1793 0.929 . S
C1782 C1778 1.531 . S
C1782 H1794 0.960 . S
C1782 H1795 0.962 . S
C1782 H1796 0.960 . S
C1783 C1780 1.511 . S
C1783 H1797 0.961 . S
C1783 H1798 0.961 . S
C1783 H1799 0.961 . S
C1784 C1785 1.370 . S
C1784 C1786 1.363 . S
C1784 H1800 0.931 . S
C1785 C1784 1.370 . S
C1785 C1789 1.408 . S
C1786 C1784 1.363 . S
C1786 C1787 1.370 . S
C1786 C1790 1.524 . S
C1787 C1779 1.503 . S
C1787 C1786 1.370 . S
C1787 C1788 1.403 . S
C1788 C1787 1.403 . S
C1788 C1789 1.404 . S
C1788 C1791 1.539 . S
C1789 C1785 1.408 . S
C1789 C1788 1.404 . S
C1789 H1801 0.930 . S
C1790 C1786 1.524 . S
C1790 H1802 0.956 . S
C1790 H1803 0.961 . S
C1790 H1804 0.961 . S
C1791 C1788 1.539 . S
C1791 H1805 0.958 . S
C1791 H1806 0.961 1_455 S
C1791 H1807 0.959 1_455 S
H1792 C1776 0.931 . S
H1793 C1781 0.929 . S
H1794 C1782 0.960 . S
H1795 C1782 0.962 . S
H1796 C1782 0.960 . S
H1797 C1783 0.961 . S
H1798 C1783 0.961 . S
H1799 C1783 0.961 . S
H1800 C1784 0.931 . S
H1801 C1789 0.930 . S
H1802 C1790 0.956 . S
H1803 C1790 0.961 . S
H1804 C1790 0.961 . S
H1805 C1791 0.958 . S
H1806 C1791 0.961 1_655 S
H1807 C1791 0.959 1_655 S
C1808 C1809 1.391 . S
C1808 C1810 1.394 . S
C1808 H1824 0.931 . S
C1809 C1808 1.391 . S
C1809 C1813 1.376 . S
C1810 C1808 1.394 . S
C1810 C1811 1.369 . S
C1810 C1814 1.531 . S
C1811 C1810 1.369 . S
C1811 C1812 1.410 . S
C1811 C1819 1.503 . S
C1812 C1811 1.410 . S
C1812 C1813 1.392 . S
C1812 C1815 1.511 . S
C1813 C1809 1.376 . S
C1813 C1812 1.392 . S
C1813 H1825 0.929 . S
C1814 C1810 1.531 . S
C1814 H1826 0.960 1_545 S
C1814 H1827 0.962 . S
C1814 H1828 0.960 1_545 S
C1815 C1812 1.511 . S
C1815 H1829 0.961 . S
C1815 H1830 0.961 . S
C1815 H1831 0.961 1_545 S
C1816 C1817 1.370 . S
C1816 C1818 1.363 . S
C1816 H1832 0.931 . S
C1817 C1816 1.370 . S
C1817 C1821 1.408 1_545 S
C1818 C1816 1.363 . S
C1818 C1819 1.370 . S
C1818 C1822 1.524 . S
C1819 C1811 1.503 . S
C1819 C1818 1.370 . S
C1819 C1820 1.403 1_545 S
C1820 C1819 1.403 1_565 S
C1820 C1821 1.404 . S
C1820 C1823 1.539 . S
C1821 C1817 1.408 1_565 S
C1821 C1820 1.404 . S
C1821 H1833 0.930 . S
C1822 C1818 1.524 . S
C1822 H1834 0.956 . S
C1822 H1835 0.961 . S
C1822 H1836 0.961 . S
C1823 C1820 1.539 . S
C1823 H1837 0.958 . S
C1823 H1838 0.961 . S
C1823 H1839 0.960 . S
H1824 C1808 0.931 . S
H1825 C1813 0.929 . S
H1826 C1814 0.960 1_565 S
H1827 C1814 0.962 . S
H1828 C1814 0.960 1_565 S
H1829 C1815 0.961 . S
H1830 C1815 0.961 . S
H1831 C1815 0.961 1_565 S
H1832 C1816 0.931 . S
H1833 C1821 0.930 . S
H1834 C1822 0.956 . S
H1835 C1822 0.961 . S
H1836 C1822 0.961 . S
H1837 C1823 0.958 . S
H1838 C1823 0.961 . S
H1839 C1823 0.960 . S
C1840 C1841 1.391 . S
C1840 C1842 1.394 . S
C1840 H1856 0.931 . S
C1841 C1840 1.391 . S
C1841 C1845 1.376 . S
C1842 C1840 1.394 . S
C1842 C1843 1.369 . S
C1842 C1846 1.531 . S
C1843 C1842 1.369 . S
C1843 C1844 1.410 . S
C1843 C1851 1.503 . S
C1844 C1843 1.410 . S
C1844 C1845 1.392 . S
C1844 C1847 1.511 . S
C1845 C1841 1.376 . S
C1845 C1844 1.392 . S
C1845 H1857 0.929 . S
C1846 C1842 1.531 . S
C1846 H1858 0.960 . S
C1846 H1859 0.962 1_455 S
C1846 H1860 0.960 . S
C1847 C1844 1.511 . S
C1847 H1861 0.961 . S
C1847 H1862 0.961 . S
C1847 H1863 0.961 . S
C1848 C1849 1.370 1_655 S
C1848 C1850 1.363 . S
C1848 H1864 0.931 . S
C1849 C1848 1.370 1_455 S
C1849 C1853 1.408 . S
C1850 C1848 1.363 . S
C1850 C1851 1.370 1_655 S
C1850 C1854 1.524 . S
C1851 C1843 1.503 . S
C1851 C1850 1.370 1_455 S
C1851 C1852 1.403 . S
C1852 C1851 1.403 . S
C1852 C1853 1.404 . S
C1852 C1855 1.539 . S
C1853 C1849 1.408 . S
C1853 C1852 1.404 . S
C1853 H1865 0.930 . S
C1854 C1850 1.524 . S
C1854 H1866 0.956 . S
C1854 H1867 0.961 . S
C1854 H1868 0.961 . S
C1855 C1852 1.539 . S
C1855 H1869 0.958 . S
C1855 H1870 0.961 . S
C1855 H1871 0.960 . S
H1856 C1840 0.931 . S
H1857 C1845 0.929 . S
H1858 C1846 0.960 . S
H1859 C1846 0.962 1_655 S
H1860 C1846 0.960 . S
H1861 C1847 0.961 . S
H1862 C1847 0.961 . S
H1863 C1847 0.961 . S
H1864 C1848 0.931 . S
H1865 C1853 0.930 . S
H1866 C1854 0.956 . S
H1867 C1854 0.961 . S
H1868 C1854 0.961 . S
H1869 C1855 0.958 . S
H1870 C1855 0.961 . S
H1871 C1855 0.960 . S
C1872 C1873 1.391 . S
C1872 C1874 1.394 . S
C1872 H1888 0.931 . S
C1873 C1872 1.391 . S
C1873 C1877 1.376 1_545 S
C1874 C1872 1.394 . S
C1874 C1875 1.369 . S
C1874 C1878 1.531 . S
C1875 C1874 1.369 . S
C1875 C1876 1.410 1_545 S
C1875 C1883 1.503 . S
C1876 C1875 1.410 1_565 S
C1876 C1877 1.392 . S
C1876 C1879 1.511 . S
C1877 C1873 1.376 1_565 S
C1877 C1876 1.392 . S
C1877 H1889 0.929 . S
C1878 C1874 1.531 . S
C1878 H1890 0.960 . S
C1878 H1891 0.962 . S
C1878 H1892 0.960 . S
C1879 C1876 1.511 . S
C1879 H1893 0.961 . S
C1879 H1894 0.961 . S
C1879 H1895 0.961 . S
C1880 C1881 1.368 . S
C1880 C1882 1.362 1_545 S
C1880 H1896 0.933 1_545 S
C1881 C1880 1.368 . S
C1881 C1885 1.408 . S
C1882 C1880 1.362 1_565 S
C1882 C1883 1.342 1_565 S
C1882 C1886 1.556 . S
C1883 C1875 1.503 . S
C1883 C1882 1.342 1_545 S
C1883 C1884 1.403 . S
C1884 C1883 1.403 . S
C1884 C1885 1.404 . S
C1884 C1887 1.539 . S
C1885 C1881 1.408 . S
C1885 C1884 1.404 . S
C1885 H1897 0.930 . S
C1886 C1882 1.556 . S
C1886 H1898 0.956 . S
C1886 H1899 0.961 . S
C1886 H1900 0.961 . S
C1887 C1884 1.539 . S
C1887 H1901 0.958 . S
C1887 H1902 0.961 . S
C1887 H1903 0.960 . S
H1888 C1872 0.931 . S
H1889 C1877 0.929 . S
H1890 C1878 0.960 . S
H1891 C1878 0.962 . S
H1892 C1878 0.960 . S
H1893 C1879 0.961 . S
H1894 C1879 0.961 . S
H1895 C1879 0.961 . S
H1896 C1880 0.933 1_565 S
H1897 C1885 0.930 . S
H1898 C1886 0.956 . S
H1899 C1886 0.961 . S
H1900 C1886 0.961 . S
H1901 C1887 0.958 . S
H1902 C1887 0.961 . S
H1903 C1887 0.960 . S
C1904 C1905 1.391 . S
C1904 C1906 1.394 . S
C1904 H1920 0.931 1_455 S
C1905 C1904 1.391 . S
C1905 C1909 1.376 . S
C1906 C1904 1.394 . S
C1906 C1907 1.369 . S
C1906 C1910 1.531 1_455 S
C1907 C1906 1.369 . S
C1907 C1908 1.410 . S
C1907 C1915 1.503 . S
C1908 C1907 1.410 . S
C1908 C1909 1.392 . S
C1908 C1911 1.511 . S
C1909 C1905 1.376 . S
C1909 C1908 1.392 . S
C1909 H1921 0.929 . S
C1910 C1906 1.531 1_655 S
C1910 H1922 0.960 . S
C1910 H1923 0.962 . S
C1910 H1924 0.960 . S
C1911 C1908 1.511 . S
C1911 H1925 0.961 . S
C1911 H1926 0.961 . S
C1911 H1927 0.961 . S
C1912 C1913 1.370 1_655 S
C1912 C1914 1.363 . S
C1912 H1928 0.931 . S
C1913 C1912 1.370 1_455 S
C1913 C1917 1.408 . S
C1914 C1912 1.363 . S
C1914 C1915 1.370 1_655 S
C1914 C1918 1.524 . S
C1915 C1907 1.503 . S
C1915 C1914 1.370 1_455 S
C1915 C1916 1.403 . S
C1916 C1915 1.403 . S
C1916 C1917 1.404 . S
C1916 C1919 1.539 . S
C1917 C1913 1.408 . S
C1917 C1916 1.404 . S
C1917 H1929 0.930 . S
C1918 C1914 1.524 . S
C1918 H1930 0.956 . S
C1918 H1931 0.961 . S
C1918 H1932 0.961 . S
C1919 C1916 1.539 . S
C1919 H1933 0.958 . S
C1919 H1934 0.961 . S
C1919 H1935 0.960 . S
H1920 C1904 0.931 1_655 S
H1921 C1909 0.929 . S
H1922 C1910 0.960 . S
H1923 C1910 0.962 . S
H1924 C1910 0.960 . S
H1925 C1911 0.961 . S
H1926 C1911 0.961 . S
H1927 C1911 0.961 . S
H1928 C1912 0.931 . S
H1929 C1917 0.930 . S
H1930 C1918 0.956 . S
H1931 C1918 0.961 . S
H1932 C1918 0.961 . S
H1933 C1919 0.958 . S
H1934 C1919 0.961 . S
H1935 C1919 0.960 . S
C1936 C1937 1.391 . S
C1936 C1938 1.394 . S
C1936 H1952 0.931 . S
C1937 C1936 1.391 . S
C1937 C1941 1.376 1_545 S
C1938 C1936 1.394 . S
C1938 C1939 1.369 . S
C1938 C1942 1.531 . S
C1939 C1938 1.369 . S
C1939 C1940 1.410 1_545 S
C1939 C1947 1.503 . S
C1940 C1939 1.410 1_565 S
C1940 C1941 1.392 . S
C1940 C1943 1.511 . S
C1941 C1937 1.376 1_565 S
C1941 C1940 1.392 . S
C1941 H1953 0.929 . S
C1942 C1938 1.531 . S
C1942 H1954 0.960 . S
C1942 H1955 0.962 . S
C1942 H1956 0.960 . S
C1943 C1940 1.511 . S
C1943 H1957 0.961 . S
C1943 H1958 0.961 . S
C1943 H1959 0.961 . S
C1944 C1945 1.373 . S
C1944 C1946 1.364 . S
C1944 H1960 0.927 1_545 S
C1945 C1944 1.373 . S
C1945 C1949 1.408 . S
C1946 C1944 1.364 . S
C1946 C1947 1.370 . S
C1946 C1950 1.524 1_545 S
C1947 C1939 1.503 . S
C1947 C1946 1.370 . S
C1947 C1948 1.403 . S
C1948 C1947 1.403 . S
C1948 C1949 1.404 . S
C1948 C1951 1.539 . S
C1949 C1945 1.408 . S
C1949 C1948 1.404 . S
C1949 H1961 0.930 . S
C1950 C1946 1.524 1_565 S
C1950 H1962 0.956 1_565 S
C1950 H1963 0.961 . S
C1950 H1964 0.961 . S
C1951 C1948 1.539 . S
C1951 H1965 0.958 . S
C1951 H1966 0.961 . S
C1951 H1967 0.960 . S
H1952 C1936 0.931 . S
H1953 C1941 0.929 . S
H1954 C1942 0.960 . S
H1955 C1942 0.962 . S
H1956 C1942 0.960 . S
H1957 C1943 0.961 . S
H1958 C1943 0.961 . S
H1959 C1943 0.961 . S
H1960 C1944 0.927 1_565 S
H1961 C1949 0.930 . S
H1962 C1950 0.956 1_545 S
H1963 C1950 0.961 . S
H1964 C1950 0.961 . S
H1965 C1951 0.958 . S
H1966 C1951 0.961 . S
H1967 C1951 0.960 . S
C1968 C1969 1.391 . S
C1968 C1970 1.394 . S
C1968 H1984 0.931 . S
C1969 C1968 1.391 . S
C1969 C1973 1.376 1_455 S
C1970 C1968 1.394 . S
C1970 C1971 1.369 . S
C1970 C1974 1.531 . S
C1971 C1970 1.369 . S
C1971 C1972 1.410 1_455 S
C1971 C1979 1.503 . S
C1972 C1971 1.410 1_655 S
C1972 C1973 1.392 . S
C1972 C1975 1.511 . S
C1973 C1969 1.376 1_655 S
C1973 C1972 1.392 . S
C1973 H1985 0.929 . S
C1974 C1970 1.531 . S
C1974 H1986 0.960 . S
C1974 H1987 0.962 . S
C1974 H1988 0.960 . S
C1975 C1972 1.511 . S
C1975 H1989 0.961 . S
C1975 H1990 0.961 . S
C1975 H1991 0.961 . S
C1976 C1977 1.370 . S
C1976 C1978 1.363 . S
C1976 H1992 0.931 . S
C1977 C1976 1.370 . S
C1977 C1981 1.408 1_455 S
C1978 C1976 1.363 . S
C1978 C1979 1.370 . S
C1978 C1982 1.524 . S
C1979 C1971 1.503 . S
C1979 C1978 1.370 . S
C1979 C1980 1.403 1_455 S
C1980 C1979 1.403 1_655 S
C1980 C1981 1.404 . S
C1980 C1983 1.539 . S
C1981 C1977 1.408 1_655 S
C1981 C1980 1.404 . S
C1981 H1993 0.930 . S
C1982 C1978 1.524 . S
C1982 H1994 0.956 . S
C1982 H1995 0.961 . S
C1982 H1996 0.961 . S
C1983 C1980 1.539 . S
C1983 H1997 0.958 . S
C1983 H1998 0.961 . S
C1983 H1999 0.960 . S
H1984 C1968 0.931 . S
H1985 C1973 0.929 . S
H1986 C1974 0.960 . S
H1987 C1974 0.962 . S
H1988 C1974 0.960 . S
H1989 C1975 0.961 . S
H1990 C1975 0.961 . S
H1991 C1975 0.961 . S
H1992 C1976 0.931 . S
H1993 C1981 0.930 . S
H1994 C1982 0.956 . S
H1995 C1982 0.961 . S
H1996 C1982 0.961 . S
H1997 C1983 0.958 . S
H1998 C1983 0.961 . S
H1999 C1983 0.960 . S
C2000 C2001 1.391 . S
C2000 C2002 1.394 . S
C2000 H2016 0.931 . S
C2001 C2000 1.391 . S
C2001 C2005 1.376 . S
C2002 C2000 1.394 . S
C2002 C2003 1.369 . S
C2002 C2006 1.531 . S
C2003 C2002 1.369 . S
C2003 C2004 1.410 . S
C2003 C2011 1.503 . S
C2004 C2003 1.410 . S
C2004 C2005 1.392 . S
C2004 C2007 1.510 1_545 S
C2005 C2001 1.376 . S
C2005 C2004 1.392 . S
C2005 H2017 0.929 . S
C2006 C2002 1.531 . S
C2006 H2018 0.968 . S
C2006 H2019 0.962 . S
C2006 H2020 0.960 . S
C2007 C2004 1.510 1_565 S
C2007 H2021 0.958 1_565 S
C2007 H2022 0.959 1_565 S
C2007 H2023 0.966 . S
C2008 C2009 1.370 . S
C2008 C2010 1.363 . S
C2008 H2024 0.931 . S
C2009 C2008 1.370 . S
C2009 C2013 1.408 1_545 S
C2010 C2008 1.363 . S
C2010 C2011 1.370 . S
C2010 C2014 1.524 . S
C2011 C2003 1.503 . S
C2011 C2010 1.370 . S
C2011 C2012 1.403 1_545 S
C2012 C2011 1.403 1_565 S
C2012 C2013 1.404 . S
C2012 C2015 1.539 . S
C2013 C2009 1.408 1_565 S
C2013 C2012 1.404 . S
C2013 H2025 0.930 . S
C2014 C2010 1.524 . S
C2014 H2026 0.956 . S
C2014 H2027 0.961 . S
C2014 H2028 0.961 . S
C2015 C2012 1.539 . S
C2015 H2029 0.958 . S
C2015 H2030 0.961 . S
C2015 H2031 0.960 . S
H2016 C2000 0.931 . S
H2017 C2005 0.929 . S
H2018 C2006 0.968 . S
H2019 C2006 0.962 . S
H2020 C2006 0.960 . S
H2021 C2007 0.958 1_545 S
H2022 C2007 0.959 1_545 S
H2023 C2007 0.966 . S
H2024 C2008 0.931 . S
H2025 C2013 0.930 . S
H2026 C2014 0.956 . S
H2027 C2014 0.961 . S
H2028 C2014 0.961 . S
H2029 C2015 0.958 . S
H2030 C2015 0.961 . S
H2031 C2015 0.960 . S
C2032 C2033 1.391 . S
C2032 C2034 1.394 . S
C2032 H2048 0.931 . S
C2033 C2032 1.391 . S
C2033 C2037 1.376 . S
C2034 C2032 1.394 . S
C2034 C2035 1.369 . S
C2034 C2038 1.531 . S
C2035 C2034 1.369 . S
C2035 C2036 1.410 . S
C2035 C2043 1.503 . S
C2036 C2035 1.410 . S
C2036 C2037 1.392 . S
C2036 C2039 1.511 . S
C2037 C2033 1.376 . S
C2037 C2036 1.392 . S
C2037 H2049 0.929 . S
C2038 C2034 1.531 . S
C2038 H2050 0.960 . S
C2038 H2051 0.962 . S
C2038 H2052 0.960 . S
C2039 C2036 1.511 . S
C2039 H2053 0.961 . S
C2039 H2054 0.961 . S
C2039 H2055 0.961 . S
C2040 C2041 1.370 1_556 S
C2040 C2042 1.363 . S
C2040 H2056 0.931 . S
C2041 C2040 1.370 1_554 S
C2041 C2045 1.408 . S
C2042 C2040 1.363 . S
C2042 C2043 1.370 1_556 S
C2042 C2046 1.524 . S
C2043 C2035 1.503 . S
C2043 C2042 1.370 1_554 S
C2043 C2044 1.403 . S
C2044 C2043 1.403 . S
C2044 C2045 1.404 . S
C2044 C2047 1.539 . S
C2045 C2041 1.408 . S
C2045 C2044 1.404 . S
C2045 H2057 0.930 . S
C2046 C2042 1.524 . S
C2046 H2058 0.956 . S
C2046 H2059 0.961 . S
C2046 H2060 0.961 . S
C2047 C2044 1.539 . S
C2047 H2061 0.958 . S
C2047 H2062 0.961 . S
C2047 H2063 0.960 . S
H2048 C2032 0.931 . S
H2049 C2037 0.929 . S
H2050 C2038 0.960 . S
H2051 C2038 0.962 . S
H2052 C2038 0.960 . S
H2053 C2039 0.961 . S
H2054 C2039 0.961 . S
H2055 C2039 0.961 . S
H2056 C2040 0.931 . S
H2057 C2045 0.930 . S
H2058 C2046 0.956 . S
H2059 C2046 0.961 . S
H2060 C2046 0.961 . S
H2061 C2047 0.958 . S
H2062 C2047 0.961 . S
H2063 C2047 0.960 . S
C2064 C2065 1.391 1_556 S
C2064 C2066 1.394 . S
C2064 H2080 0.931 . S
C2065 C2064 1.391 1_554 S
C2065 C2069 1.376 . S
C2066 C2064 1.394 . S
C2066 C2067 1.369 1_556 S
C2066 C2070 1.531 . S
C2067 C2066 1.369 1_554 S
C2067 C2068 1.410 . S
C2067 C2075 1.503 . S
C2068 C2067 1.410 . S
C2068 C2069 1.392 . S
C2068 C2071 1.511 . S
C2069 C2065 1.376 . S
C2069 C2068 1.392 . S
C2069 H2081 0.929 . S
C2070 C2066 1.531 . S
C2070 H2082 0.960 . S
C2070 H2083 0.962 . S
C2070 H2084 0.960 . S
C2071 C2068 1.511 . S
C2071 H2085 0.961 . S
C2071 H2086 0.961 . S
C2071 H2087 0.961 . S
C2072 C2073 1.370 . S
C2072 C2074 1.363 . S
C2072 H2088 0.931 . S
C2073 C2072 1.370 . S
C2073 C2077 1.408 1_554 S
C2074 C2072 1.363 . S
C2074 C2075 1.370 . S
C2074 C2078 1.524 . S
C2075 C2067 1.503 . S
C2075 C2074 1.370 . S
C2075 C2076 1.403 1_554 S
C2076 C2075 1.403 1_556 S
C2076 C2077 1.404 . S
C2076 C2079 1.539 . S
C2077 C2073 1.408 1_556 S
C2077 C2076 1.404 . S
C2077 H2089 0.930 . S
C2078 C2074 1.524 . S
C2078 H2090 0.956 . S
C2078 H2091 0.961 . S
C2078 H2092 0.961 . S
C2079 C2076 1.539 . S
C2079 H2093 0.958 . S
C2079 H2094 0.961 . S
C2079 H2095 0.960 . S
H2080 C2064 0.931 . S
H2081 C2069 0.929 . S
H2082 C2070 0.960 . S
H2083 C2070 0.962 . S
H2084 C2070 0.960 . S
H2085 C2071 0.961 . S
H2086 C2071 0.961 . S
H2087 C2071 0.961 . S
H2088 C2072 0.931 . S
H2089 C2077 0.930 . S
H2090 C2078 0.956 . S
H2091 C2078 0.961 . S
H2092 C2078 0.961 . S
H2093 C2079 0.958 . S
H2094 C2079 0.961 . S
H2095 C2079 0.960 . S
C2096 C2097 1.391 . S
C2096 C2098 1.394 . S
C2096 H2112 0.931 . S
C2097 C2096 1.391 . S
C2097 C2101 1.376 . S
C2098 C2096 1.394 . S
C2098 C2099 1.369 . S
C2098 C2102 1.531 . S
C2099 C2098 1.369 . S
C2099 C2100 1.410 . S
C2099 C2107 1.503 . S
C2100 C2099 1.410 . S
C2100 C2101 1.392 . S
C2100 C2103 1.511 . S
C2101 C2097 1.376 . S
C2101 C2100 1.392 . S
C2101 H2113 0.929 . S
C2102 C2098 1.531 . S
C2102 H2114 0.960 . S
C2102 H2115 0.962 1_554 S
C2102 H2116 0.960 . S
C2103 C2100 1.511 . S
C2103 H2117 0.961 . S
C2103 H2118 0.961 . S
C2103 H2119 0.961 . S
C2104 C2105 1.370 1_556 S
C2104 C2106 1.363 . S
C2104 H2120 0.931 . S
C2105 C2104 1.370 1_554 S
C2105 C2109 1.408 . S
C2106 C2104 1.363 . S
C2106 C2107 1.370 1_556 S
C2106 C2110 1.524 . S
C2107 C2099 1.503 . S
C2107 C2106 1.370 1_554 S
C2107 C2108 1.403 . S
C2108 C2107 1.403 . S
C2108 C2109 1.404 . S
C2108 C2111 1.539 . S
C2109 C2105 1.408 . S
C2109 C2108 1.404 . S
C2109 H2121 0.930 . S
C2110 C2106 1.524 . S
C2110 H2122 0.956 . S
C2110 H2123 0.961 . S
C2110 H2124 0.961 . S
C2111 C2108 1.539 . S
C2111 H2125 0.958 . S
C2111 H2126 0.961 . S
C2111 H2127 0.960 . S
H2112 C2096 0.931 . S
H2113 C2101 0.929 . S
H2114 C2102 0.960 . S
H2115 C2102 0.962 1_556 S
H2116 C2102 0.960 . S
H2117 C2103 0.961 . S
H2118 C2103 0.961 . S
H2119 C2103 0.961 . S
H2120 C2104 0.931 . S
H2121 C2109 0.930 . S
H2122 C2110 0.956 . S
H2123 C2110 0.961 . S
H2124 C2110 0.961 . S
H2125 C2111 0.958 . S
H2126 C2111 0.961 . S
H2127 C2111 0.960 . S
C2128 C2129 1.391 . S
C2128 C2130 1.394 . S
C2128 H2144 0.931 . S
C2129 C2128 1.391 . S
C2129 C2133 1.376 . S
C2130 C2128 1.394 . S
C2130 C2131 1.369 . S
C2130 C2134 1.531 . S
C2131 C2130 1.369 . S
C2131 C2132 1.410 . S
C2131 C2139 1.503 . S
C2132 C2131 1.410 . S
C2132 C2133 1.392 . S
C2132 C2135 1.511 . S
C2133 C2129 1.376 . S
C2133 C2132 1.392 . S
C2133 H2145 0.929 . S
C2134 C2130 1.531 . S
C2134 H2146 0.960 . S
C2134 H2147 0.962 1_554 S
C2134 H2148 0.960 . S
C2135 C2132 1.511 . S
C2135 H2149 0.961 . S
C2135 H2150 0.961 . S
C2135 H2151 0.961 . S
C2136 C2137 1.370 1_556 S
C2136 C2138 1.363 . S
C2136 H2152 0.931 . S
C2137 C2136 1.370 1_554 S
C2137 C2141 1.408 . S
C2138 C2136 1.363 . S
C2138 C2139 1.370 1_556 S
C2138 C2142 1.524 . S
C2139 C2131 1.503 . S
C2139 C2138 1.370 1_554 S
C2139 C2140 1.403 . S
C2140 C2139 1.403 . S
C2140 C2141 1.404 . S
C2140 C2143 1.539 . S
C2141 C2137 1.408 . S
C2141 C2140 1.404 . S
C2141 H2153 0.930 . S
C2142 C2138 1.524 . S
C2142 H2154 0.956 . S
C2142 H2155 0.961 . S
C2142 H2156 0.961 . S
C2143 C2140 1.539 . S
C2143 H2157 0.958 . S
C2143 H2158 0.961 . S
C2143 H2159 0.960 . S
H2144 C2128 0.931 . S
H2145 C2133 0.929 . S
H2146 C2134 0.960 . S
H2147 C2134 0.962 1_556 S
H2148 C2134 0.960 . S
H2149 C2135 0.961 . S
H2150 C2135 0.961 . S
H2151 C2135 0.961 . S
H2152 C2136 0.931 . S
H2153 C2141 0.930 . S
H2154 C2142 0.956 . S
H2155 C2142 0.961 . S
H2156 C2142 0.961 . S
H2157 C2143 0.958 . S
H2158 C2143 0.961 . S
H2159 C2143 0.960 . S
C2160 C2161 1.391 . S
C2160 C2162 1.394 . S
C2160 H2176 0.931 . S
C2161 C2160 1.391 . S
C2161 C2165 1.376 . S
C2162 C2160 1.394 . S
C2162 C2163 1.369 . S
C2162 C2166 1.531 . S
C2163 C2162 1.369 . S
C2163 C2164 1.410 . S
C2163 C2171 1.503 . S
C2164 C2163 1.410 . S
C2164 C2165 1.392 . S
C2164 C2167 1.511 . S
C2165 C2161 1.376 . S
C2165 C2164 1.392 . S
C2165 H2177 0.929 . S
C2166 C2162 1.531 . S
C2166 H2178 0.960 . S
C2166 H2179 0.962 . S
C2166 H2180 0.960 . S
C2167 C2164 1.511 . S
C2167 H2181 0.961 . S
C2167 H2182 0.961 . S
C2167 H2183 0.961 . S
C2168 C2169 1.370 . S
C2168 C2170 1.363 . S
C2168 H2184 0.931 . S
C2169 C2168 1.370 . S
C2169 C2173 1.408 . S
C2170 C2168 1.363 . S
C2170 C2171 1.370 . S
C2170 C2174 1.524 . S
C2171 C2163 1.503 . S
C2171 C2170 1.370 . S
C2171 C2172 1.403 . S
C2172 C2171 1.403 . S
C2172 C2173 1.404 . S
C2172 C2175 1.539 . S
C2173 C2169 1.408 . S
C2173 C2172 1.404 . S
C2173 H2185 0.930 . S
C2174 C2170 1.524 . S
C2174 H2186 0.956 . S
C2174 H2187 0.961 . S
C2174 H2188 0.961 . S
C2175 C2172 1.539 . S
C2175 H2189 0.958 . S
C2175 H2190 0.961 . S
C2175 H2191 0.960 . S
H2176 C2160 0.931 . S
H2177 C2165 0.929 . S
H2178 C2166 0.960 . S
H2179 C2166 0.962 . S
H2180 C2166 0.960 . S
H2181 C2167 0.961 . S
H2182 C2167 0.961 . S
H2183 C2167 0.961 . S
H2184 C2168 0.931 . S
H2185 C2173 0.930 . S
H2186 C2174 0.956 . S
H2187 C2174 0.961 . S
H2188 C2174 0.961 . S
H2189 C2175 0.958 . S
H2190 C2175 0.961 . S
H2191 C2175 0.960 . S
C2192 C2193 1.391 . S
C2192 C2194 1.394 . S
C2192 H2208 0.931 . S
C2193 C2192 1.391 . S
C2193 C2197 1.376 . S
C2194 C2192 1.394 . S
C2194 C2195 1.369 . S
C2194 C2198 1.531 . S
C2195 C2194 1.369 . S
C2195 C2196 1.410 . S
C2195 C2203 1.503 . S
C2196 C2195 1.410 . S
C2196 C2197 1.392 . S
C2196 C2199 1.511 . S
C2197 C2193 1.376 . S
C2197 C2196 1.392 . S
C2197 H2209 0.929 . S
C2198 C2194 1.531 . S
C2198 H2210 0.960 . S
C2198 H2211 0.962 . S
C2198 H2212 0.960 . S
C2199 C2196 1.511 . S
C2199 H2213 0.961 . S
C2199 H2214 0.961 . S
C2199 H2215 0.961 . S
C2200 C2201 1.370 . S
C2200 C2202 1.363 . S
C2200 H2216 0.931 . S
C2201 C2200 1.370 . S
C2201 C2205 1.408 . S
C2202 C2200 1.363 . S
C2202 C2203 1.370 . S
C2202 C2206 1.524 . S
C2203 C2195 1.503 . S
C2203 C2202 1.370 . S
C2203 C2204 1.403 . S
C2204 C2203 1.403 . S
C2204 C2205 1.404 . S
C2204 C2207 1.539 . S
C2205 C2201 1.408 . S
C2205 C2204 1.404 . S
C2205 H2217 0.930 . S
C2206 C2202 1.524 . S
C2206 H2218 0.956 . S
C2206 H2219 0.961 . S
C2206 H2220 0.961 . S
C2207 C2204 1.539 . S
C2207 H2221 0.958 . S
C2207 H2222 0.961 . S
C2207 H2223 0.960 . S
H2208 C2192 0.931 . S
H2209 C2197 0.929 . S
H2210 C2198 0.960 . S
H2211 C2198 0.962 . S
H2212 C2198 0.960 . S
H2213 C2199 0.961 . S
H2214 C2199 0.961 . S
H2215 C2199 0.961 . S
H2216 C2200 0.931 . S
H2217 C2205 0.930 . S
H2218 C2206 0.956 . S
H2219 C2206 0.961 . S
H2220 C2206 0.961 . S
H2221 C2207 0.958 . S
H2222 C2207 0.961 . S
H2223 C2207 0.960 . S
C2224 C2225 1.391 . S
C2224 C2226 1.394 . S
C2224 H2240 0.931 . S
C2225 C2224 1.391 . S
C2225 C2229 1.376 . S
C2226 C2224 1.394 . S
C2226 C2227 1.369 . S
C2226 C2230 1.531 . S
C2227 C2226 1.369 . S
C2227 C2228 1.410 . S
C2227 C2235 1.503 . S
C2228 C2227 1.410 . S
C2228 C2229 1.392 . S
C2228 C2231 1.511 . S
C2229 C2225 1.376 . S
C2229 C2228 1.392 . S
C2229 H2241 0.929 . S
C2230 C2226 1.531 . S
C2230 H2242 0.960 . S
C2230 H2243 0.962 . S
C2230 H2244 0.960 . S
C2231 C2228 1.511 . S
C2231 H2245 0.961 . S
C2231 H2246 0.961 . S
C2231 H2247 0.961 . S
C2232 C2233 1.370 . S
C2232 C2234 1.363 . S
C2232 H2248 0.931 . S
C2233 C2232 1.370 . S
C2233 C2237 1.408 . S
C2234 C2232 1.363 . S
C2234 C2235 1.370 . S
C2234 C2238 1.524 . S
C2235 C2227 1.503 . S
C2235 C2234 1.370 . S
C2235 C2236 1.403 . S
C2236 C2235 1.403 . S
C2236 C2237 1.404 . S
C2236 C2239 1.539 . S
C2237 C2233 1.408 . S
C2237 C2236 1.404 . S
C2237 H2249 0.930 . S
C2238 C2234 1.524 . S
C2238 H2250 0.956 . S
C2238 H2251 0.961 . S
C2238 H2252 0.961 . S
C2239 C2236 1.539 . S
C2239 H2253 0.958 . S
C2239 H2254 0.961 . S
C2239 H2255 0.960 . S
H2240 C2224 0.931 . S
H2241 C2229 0.929 . S
H2242 C2230 0.960 . S
H2243 C2230 0.962 . S
H2244 C2230 0.960 . S
H2245 C2231 0.961 . S
H2246 C2231 0.961 . S
H2247 C2231 0.961 . S
H2248 C2232 0.931 . S
H2249 C2237 0.930 . S
H2250 C2238 0.956 . S
H2251 C2238 0.961 . S
H2252 C2238 0.961 . S
H2253 C2239 0.958 . S
H2254 C2239 0.961 . S
H2255 C2239 0.960 . S
C2256 C2257 1.391 . S
C2256 C2258 1.394 . S
C2256 H2272 0.931 . S
C2257 C2256 1.391 . S
C2257 C2261 1.376 . S
C2258 C2256 1.394 . S
C2258 C2259 1.369 . S
C2258 C2262 1.531 . S
C2259 C2258 1.369 . S
C2259 C2260 1.410 . S
C2259 C2267 1.503 . S
C2260 C2259 1.410 . S
C2260 C2261 1.392 . S
C2260 C2263 1.511 . S
C2261 C2257 1.376 . S
C2261 C2260 1.392 . S
C2261 H2273 0.929 . S
C2262 C2258 1.531 . S
C2262 H2274 0.960 . S
C2262 H2275 0.962 . S
C2262 H2276 0.960 . S
C2263 C2260 1.511 . S
C2263 H2277 0.961 . S
C2263 H2278 0.961 . S
C2263 H2279 0.961 . S
C2264 C2265 1.370 . S
C2264 C2266 1.363 . S
C2264 H2280 0.931 . S
C2265 C2264 1.370 . S
C2265 C2269 1.408 . S
C2266 C2264 1.363 . S
C2266 C2267 1.370 . S
C2266 C2270 1.524 . S
C2267 C2259 1.503 . S
C2267 C2266 1.370 . S
C2267 C2268 1.403 . S
C2268 C2267 1.403 . S
C2268 C2269 1.404 . S
C2268 C2271 1.539 . S
C2269 C2265 1.408 . S
C2269 C2268 1.404 . S
C2269 H2281 0.930 . S
C2270 C2266 1.524 . S
C2270 H2282 0.956 . S
C2270 H2283 0.961 . S
C2270 H2284 0.961 . S
C2271 C2268 1.539 . S
C2271 H2285 0.958 . S
C2271 H2286 0.961 . S
C2271 H2287 0.960 . S
H2272 C2256 0.931 . S
H2273 C2261 0.929 . S
H2274 C2262 0.960 . S
H2275 C2262 0.962 . S
H2276 C2262 0.960 . S
H2277 C2263 0.961 . S
H2278 C2263 0.961 . S
H2279 C2263 0.961 . S
H2280 C2264 0.931 . S
H2281 C2269 0.930 . S
H2282 C2270 0.956 . S
H2283 C2270 0.961 . S
H2284 C2270 0.961 . S
H2285 C2271 0.958 . S
H2286 C2271 0.961 . S
H2287 C2271 0.960 . S
C2288 C2289 1.391 . S
C2288 C2290 1.394 . S
C2288 H2304 0.931 . S
C2289 C2288 1.391 . S
C2289 C2293 1.376 . S
C2290 C2288 1.394 . S
C2290 C2291 1.369 . S
C2290 C2294 1.531 . S
C2291 C2290 1.369 . S
C2291 C2292 1.410 . S
C2291 C2299 1.503 . S
C2292 C2291 1.410 . S
C2292 C2293 1.392 . S
C2292 C2295 1.511 . S
C2293 C2289 1.376 . S
C2293 C2292 1.392 . S
C2293 H2305 0.929 . S
C2294 C2290 1.531 . S
C2294 H2306 0.960 . S
C2294 H2307 0.962 . S
C2294 H2308 0.960 . S
C2295 C2292 1.511 . S
C2295 H2309 0.961 . S
C2295 H2310 0.961 . S
C2295 H2311 0.961 . S
C2296 C2297 1.370 . S
C2296 C2298 1.363 . S
C2296 H2312 0.931 . S
C2297 C2296 1.370 . S
C2297 C2301 1.408 . S
C2298 C2296 1.363 . S
C2298 C2299 1.370 . S
C2298 C2302 1.524 . S
C2299 C2291 1.503 . S
C2299 C2298 1.370 . S
C2299 C2300 1.403 . S
C2300 C2299 1.403 . S
C2300 C2301 1.404 . S
C2300 C2303 1.539 . S
C2301 C2297 1.408 . S
C2301 C2300 1.404 . S
C2301 H2313 0.930 . S
C2302 C2298 1.524 . S
C2302 H2314 0.956 . S
C2302 H2315 0.961 . S
C2302 H2316 0.961 . S
C2303 C2300 1.539 . S
C2303 H2317 0.958 . S
C2303 H2318 0.961 . S
C2303 H2319 0.960 . S
H2304 C2288 0.931 . S
H2305 C2293 0.929 . S
H2306 C2294 0.960 . S
H2307 C2294 0.962 . S
H2308 C2294 0.960 . S
H2309 C2295 0.961 . S
H2310 C2295 0.961 . S
H2311 C2295 0.961 . S
H2312 C2296 0.931 . S
H2313 C2301 0.930 . S
H2314 C2302 0.956 . S
H2315 C2302 0.961 . S
H2316 C2302 0.961 . S
H2317 C2303 0.958 . S
H2318 C2303 0.961 . S
H2319 C2303 0.960 . S
C2320 C2321 1.391 . S
C2320 C2322 1.394 . S
C2320 H2336 0.931 . S
C2321 C2320 1.391 . S
C2321 C2325 1.376 . S
C2322 C2320 1.394 . S
C2322 C2323 1.369 . S
C2322 C2326 1.531 . S
C2323 C2322 1.369 . S
C2323 C2324 1.410 . S
C2323 C2331 1.503 . S
C2324 C2323 1.410 . S
C2324 C2325 1.392 . S
C2324 C2327 1.511 . S
C2325 C2321 1.376 . S
C2325 C2324 1.392 . S
C2325 H2337 0.929 . S
C2326 C2322 1.531 . S
C2326 H2338 0.960 . S
C2326 H2339 0.962 . S
C2326 H2340 0.960 . S
C2327 C2324 1.511 . S
C2327 H2341 0.961 . S
C2327 H2342 0.961 . S
C2327 H2343 0.961 . S
C2328 C2329 1.370 . S
C2328 C2330 1.363 . S
C2328 H2344 0.931 . S
C2329 C2328 1.370 . S
C2329 C2333 1.408 . S
C2330 C2328 1.363 . S
C2330 C2331 1.370 . S
C2330 C2334 1.524 . S
C2331 C2323 1.503 . S
C2331 C2330 1.370 . S
C2331 C2332 1.403 . S
C2332 C2331 1.403 . S
C2332 C2333 1.404 . S
C2332 C2335 1.539 . S
C2333 C2329 1.408 . S
C2333 C2332 1.404 . S
C2333 H2345 0.930 . S
C2334 C2330 1.524 . S
C2334 H2346 0.956 . S
C2334 H2347 0.961 . S
C2334 H2348 0.961 . S
C2335 C2332 1.539 . S
C2335 H2349 0.958 . S
C2335 H2350 0.961 . S
C2335 H2351 0.960 . S
H2336 C2320 0.931 . S
H2337 C2325 0.929 . S
H2338 C2326 0.960 . S
H2339 C2326 0.962 . S
H2340 C2326 0.960 . S
H2341 C2327 0.961 . S
H2342 C2327 0.961 . S
H2343 C2327 0.961 . S
H2344 C2328 0.931 . S
H2345 C2333 0.930 . S
H2346 C2334 0.956 . S
H2347 C2334 0.961 . S
H2348 C2334 0.961 . S
H2349 C2335 0.958 . S
H2350 C2335 0.961 . S
H2351 C2335 0.960 . S
C2352 C2353 1.391 . S
C2352 C2354 1.394 . S
C2352 H2368 0.931 . S
C2353 C2352 1.391 . S
C2353 C2357 1.376 . S
C2354 C2352 1.394 . S
C2354 C2355 1.369 . S
C2354 C2358 1.531 . S
C2355 C2354 1.369 . S
C2355 C2356 1.410 . S
C2355 C2363 1.503 . S
C2356 C2355 1.410 . S
C2356 C2357 1.392 . S
C2356 C2359 1.511 . S
C2357 C2353 1.376 . S
C2357 C2356 1.392 . S
C2357 H2369 0.929 . S
C2358 C2354 1.531 . S
C2358 H2370 0.960 . S
C2358 H2371 0.962 . S
C2358 H2372 0.960 . S
C2359 C2356 1.511 . S
C2359 H2373 0.961 . S
C2359 H2374 0.961 . S
C2359 H2375 0.961 . S
C2360 C2361 1.370 . S
C2360 C2362 1.363 . S
C2360 H2376 0.931 . S
C2361 C2360 1.370 . S
C2361 C2365 1.408 . S
C2362 C2360 1.363 . S
C2362 C2363 1.370 . S
C2362 C2366 1.524 . S
C2363 C2355 1.503 . S
C2363 C2362 1.370 . S
C2363 C2364 1.403 . S
C2364 C2363 1.403 . S
C2364 C2365 1.404 . S
C2364 C2367 1.539 . S
C2365 C2361 1.408 . S
C2365 C2364 1.404 . S
C2365 H2377 0.930 . S
C2366 C2362 1.524 . S
C2366 H2378 0.956 . S
C2366 H2379 0.961 . S
C2366 H2380 0.961 . S
C2367 C2364 1.539 . S
C2367 H2381 0.958 . S
C2367 H2382 0.961 . S
C2367 H2383 0.960 . S
H2368 C2352 0.931 . S
H2369 C2357 0.929 . S
H2370 C2358 0.960 . S
H2371 C2358 0.962 . S
H2372 C2358 0.960 . S
H2373 C2359 0.961 . S
H2374 C2359 0.961 . S
H2375 C2359 0.961 . S
H2376 C2360 0.931 . S
H2377 C2365 0.930 . S
H2378 C2366 0.956 . S
H2379 C2366 0.961 . S
H2380 C2366 0.961 . S
H2381 C2367 0.958 . S
H2382 C2367 0.961 . S
H2383 C2367 0.960 . S
C2384 C2385 1.391 . S
C2384 C2386 1.394 . S
C2384 H2400 0.931 . S
C2385 C2384 1.391 . S
C2385 C2389 1.376 . S
C2386 C2384 1.394 . S
C2386 C2387 1.369 . S
C2386 C2390 1.531 . S
C2387 C2386 1.369 . S
C2387 C2388 1.410 . S
C2387 C2395 1.503 . S
C2388 C2387 1.410 . S
C2388 C2389 1.392 . S
C2388 C2391 1.511 . S
C2389 C2385 1.376 . S
C2389 C2388 1.392 . S
C2389 H2401 0.929 . S
C2390 C2386 1.531 . S
C2390 H2402 0.960 . S
C2390 H2403 0.962 . S
C2390 H2404 0.960 . S
C2391 C2388 1.511 . S
C2391 H2405 0.961 . S
C2391 H2406 0.961 . S
C2391 H2407 0.961 . S
C2392 C2393 1.370 . S
C2392 C2394 1.363 . S
C2392 H2408 0.931 . S
C2393 C2392 1.370 . S
C2393 C2397 1.408 . S
C2394 C2392 1.363 . S
C2394 C2395 1.370 . S
C2394 C2398 1.524 . S
C2395 C2387 1.503 . S
C2395 C2394 1.370 . S
C2395 C2396 1.403 . S
C2396 C2395 1.403 . S
C2396 C2397 1.404 . S
C2396 C2399 1.539 . S
C2397 C2393 1.408 . S
C2397 C2396 1.404 . S
C2397 H2409 0.930 . S
C2398 C2394 1.524 . S
C2398 H2410 0.956 . S
C2398 H2411 0.961 . S
C2398 H2412 0.961 . S
C2399 C2396 1.539 . S
C2399 H2413 0.958 . S
C2399 H2414 0.961 . S
C2399 H2415 0.960 . S
H2400 C2384 0.931 . S
H2401 C2389 0.929 . S
H2402 C2390 0.960 . S
H2403 C2390 0.962 . S
H2404 C2390 0.960 . S
H2405 C2391 0.961 . S
H2406 C2391 0.961 . S
H2407 C2391 0.961 . S
H2408 C2392 0.931 . S
H2409 C2397 0.930 . S
H2410 C2398 0.956 . S
H2411 C2398 0.961 . S
H2412 C2398 0.961 . S
H2413 C2399 0.958 . S
H2414 C2399 0.961 . S
H2415 C2399 0.960 . S
C2416 C2417 1.391 . S
C2416 C2418 1.394 . S
C2416 H2432 0.931 . S
C2417 C2416 1.391 . S
C2417 C2421 1.376 . S
C2418 C2416 1.394 . S
C2418 C2419 1.369 . S
C2418 C2422 1.531 . S
C2419 C2418 1.369 . S
C2419 C2420 1.410 . S
C2419 C2427 1.503 . S
C2420 C2419 1.410 . S
C2420 C2421 1.392 . S
C2420 C2423 1.511 . S
C2421 C2417 1.376 . S
C2421 C2420 1.392 . S
C2421 H2433 0.929 . S
C2422 C2418 1.531 . S
C2422 H2434 0.960 . S
C2422 H2435 0.962 . S
C2422 H2436 0.960 . S
C2423 C2420 1.511 . S
C2423 H2437 0.961 . S
C2423 H2438 0.961 . S
C2423 H2439 0.961 . S
C2424 C2425 1.370 . S
C2424 C2426 1.363 . S
C2424 H2440 0.931 . S
C2425 C2424 1.370 . S
C2425 C2429 1.408 . S
C2426 C2424 1.363 . S
C2426 C2427 1.370 . S
C2426 C2430 1.524 . S
C2427 C2419 1.503 . S
C2427 C2426 1.370 . S
C2427 C2428 1.403 . S
C2428 C2427 1.403 . S
C2428 C2429 1.404 . S
C2428 C2431 1.539 . S
C2429 C2425 1.408 . S
C2429 C2428 1.404 . S
C2429 H2441 0.930 . S
C2430 C2426 1.524 . S
C2430 H2442 0.956 . S
C2430 H2443 0.961 . S
C2430 H2444 0.961 . S
C2431 C2428 1.539 . S
C2431 H2445 0.958 . S
C2431 H2446 0.961 . S
C2431 H2447 0.960 . S
H2432 C2416 0.931 . S
H2433 C2421 0.929 . S
H2434 C2422 0.960 . S
H2435 C2422 0.962 . S
H2436 C2422 0.960 . S
H2437 C2423 0.961 . S
H2438 C2423 0.961 . S
H2439 C2423 0.961 . S
H2440 C2424 0.931 . S
H2441 C2429 0.930 . S
H2442 C2430 0.956 . S
H2443 C2430 0.961 . S
H2444 C2430 0.961 . S
H2445 C2431 0.958 . S
H2446 C2431 0.961 . S
H2447 C2431 0.960 . S
C2448 C2449 1.391 . S
C2448 C2450 1.394 . S
C2448 H2464 0.931 . S
C2449 C2448 1.391 . S
C2449 C2453 1.376 . S
C2450 C2448 1.394 . S
C2450 C2451 1.369 . S
C2450 C2454 1.531 . S
C2451 C2450 1.369 . S
C2451 C2452 1.410 . S
C2451 C2459 1.503 . S
C2452 C2451 1.410 . S
C2452 C2453 1.392 . S
C2452 C2455 1.511 . S
C2453 C2449 1.376 . S
C2453 C2452 1.392 . S
C2453 H2465 0.929 . S
C2454 C2450 1.531 . S
C2454 H2466 0.960 . S
C2454 H2467 0.962 . S
C2454 H2468 0.960 . S
C2455 C2452 1.511 . S
C2455 H2469 0.961 . S
C2455 H2470 0.961 . S
C2455 H2471 0.961 . S
C2456 C2457 1.370 . S
C2456 C2458 1.363 . S
C2456 H2472 0.931 . S
C2457 C2456 1.370 . S
C2457 C2461 1.408 . S
C2458 C2456 1.363 . S
C2458 C2459 1.370 . S
C2458 C2462 1.524 . S
C2459 C2451 1.503 . S
C2459 C2458 1.370 . S
C2459 C2460 1.403 . S
C2460 C2459 1.403 . S
C2460 C2461 1.404 . S
C2460 C2463 1.539 . S
C2461 C2457 1.408 . S
C2461 C2460 1.404 . S
C2461 H2473 0.930 . S
C2462 C2458 1.524 . S
C2462 H2474 0.956 . S
C2462 H2475 0.961 . S
C2462 H2476 0.961 . S
C2463 C2460 1.539 . S
C2463 H2477 0.958 . S
C2463 H2478 0.961 . S
C2463 H2479 0.960 . S
H2464 C2448 0.931 . S
H2465 C2453 0.929 . S
H2466 C2454 0.960 . S
H2467 C2454 0.962 . S
H2468 C2454 0.960 . S
H2469 C2455 0.961 . S
H2470 C2455 0.961 . S
H2471 C2455 0.961 . S
H2472 C2456 0.931 . S
H2473 C2461 0.930 . S
H2474 C2462 0.956 . S
H2475 C2462 0.961 . S
H2476 C2462 0.961 . S
H2477 C2463 0.958 . S
H2478 C2463 0.961 . S
H2479 C2463 0.960 . S
C2480 C2481 1.391 . S
C2480 C2482 1.394 . S
C2480 H2496 0.931 . S
C2481 C2480 1.391 . S
C2481 C2485 1.376 . S
C2482 C2480 1.394 . S
C2482 C2483 1.369 . S
C2482 C2486 1.531 . S
C2483 C2482 1.369 . S
C2483 C2484 1.410 . S
C2483 C2491 1.503 . S
C2484 C2483 1.410 . S
C2484 C2485 1.392 . S
C2484 C2487 1.511 . S
C2485 C2481 1.376 . S
C2485 C2484 1.392 . S
C2485 H2497 0.929 . S
C2486 C2482 1.531 . S
C2486 H2498 0.960 . S
C2486 H2499 0.962 . S
C2486 H2500 0.960 . S
C2487 C2484 1.511 . S
C2487 H2501 0.961 . S
C2487 H2502 0.961 . S
C2487 H2503 0.961 . S
C2488 C2489 1.370 . S
C2488 C2490 1.363 . S
C2488 H2504 0.931 . S
C2489 C2488 1.370 . S
C2489 C2493 1.408 . S
C2490 C2488 1.363 . S
C2490 C2491 1.370 . S
C2490 C2494 1.524 . S
C2491 C2483 1.503 . S
C2491 C2490 1.370 . S
C2491 C2492 1.403 . S
C2492 C2491 1.403 . S
C2492 C2493 1.404 . S
C2492 C2495 1.539 . S
C2493 C2489 1.408 . S
C2493 C2492 1.404 . S
C2493 H2505 0.930 . S
C2494 C2490 1.524 . S
C2494 H2506 0.956 . S
C2494 H2507 0.961 . S
C2494 H2508 0.961 . S
C2495 C2492 1.539 . S
C2495 H2509 0.958 . S
C2495 H2510 0.961 . S
C2495 H2511 0.960 . S
H2496 C2480 0.931 . S
H2497 C2485 0.929 . S
H2498 C2486 0.960 . S
H2499 C2486 0.962 . S
H2500 C2486 0.960 . S
H2501 C2487 0.961 . S
H2502 C2487 0.961 . S
H2503 C2487 0.961 . S
H2504 C2488 0.931 . S
H2505 C2493 0.930 . S
H2506 C2494 0.956 . S
H2507 C2494 0.961 . S
H2508 C2494 0.961 . S
H2509 C2495 0.958 . S
H2510 C2495 0.961 . S
H2511 C2495 0.960 . S
C2512 C2513 1.391 . S
C2512 C2514 1.394 . S
C2512 H2528 0.931 . S
C2513 C2512 1.391 . S
C2513 C2517 1.376 . S
C2514 C2512 1.394 . S
C2514 C2515 1.369 . S
C2514 C2518 1.531 . S
C2515 C2514 1.369 . S
C2515 C2516 1.410 . S
C2515 C2523 1.503 . S
C2516 C2515 1.410 . S
C2516 C2517 1.392 . S
C2516 C2519 1.511 . S
C2517 C2513 1.376 . S
C2517 C2516 1.392 . S
C2517 H2529 0.929 . S
C2518 C2514 1.531 . S
C2518 H2530 0.960 . S
C2518 H2531 0.962 . S
C2518 H2532 0.960 . S
C2519 C2516 1.511 . S
C2519 H2533 0.961 . S
C2519 H2534 0.961 . S
C2519 H2535 0.961 . S
C2520 C2521 1.370 . S
C2520 C2522 1.363 . S
C2520 H2536 0.931 . S
C2521 C2520 1.370 . S
C2521 C2525 1.408 . S
C2522 C2520 1.363 . S
C2522 C2523 1.370 . S
C2522 C2526 1.524 . S
C2523 C2515 1.503 . S
C2523 C2522 1.370 . S
C2523 C2524 1.403 . S
C2524 C2523 1.403 . S
C2524 C2525 1.404 . S
C2524 C2527 1.539 . S
C2525 C2521 1.408 . S
C2525 C2524 1.404 . S
C2525 H2537 0.930 . S
C2526 C2522 1.524 . S
C2526 H2538 0.956 . S
C2526 H2539 0.961 . S
C2526 H2540 0.961 . S
C2527 C2524 1.539 . S
C2527 H2541 0.958 . S
C2527 H2542 0.961 . S
C2527 H2543 0.960 . S
H2528 C2512 0.931 . S
H2529 C2517 0.929 . S
H2530 C2518 0.960 . S
H2531 C2518 0.962 . S
H2532 C2518 0.960 . S
H2533 C2519 0.961 . S
H2534 C2519 0.961 . S
H2535 C2519 0.961 . S
H2536 C2520 0.931 . S
H2537 C2525 0.930 . S
H2538 C2526 0.956 . S
H2539 C2526 0.961 . S
H2540 C2526 0.961 . S
H2541 C2527 0.958 . S
H2542 C2527 0.961 . S
H2543 C2527 0.960 . S
C2544 C2545 1.391 . S
C2544 C2546 1.394 . S
C2544 H2560 0.931 . S
C2545 C2544 1.391 . S
C2545 C2549 1.376 . S
C2546 C2544 1.394 . S
C2546 C2547 1.369 . S
C2546 C2550 1.531 . S
C2547 C2546 1.369 . S
C2547 C2548 1.410 . S
C2547 C2555 1.503 . S
C2548 C2547 1.410 . S
C2548 C2549 1.392 . S
C2548 C2551 1.511 . S
C2549 C2545 1.376 . S
C2549 C2548 1.392 . S
C2549 H2561 0.929 . S
C2550 C2546 1.531 . S
C2550 H2562 0.960 . S
C2550 H2563 0.962 . S
C2550 H2564 0.960 . S
C2551 C2548 1.511 . S
C2551 H2565 0.961 . S
C2551 H2566 0.961 . S
C2551 H2567 0.961 . S
C2552 C2553 1.370 . S
C2552 C2554 1.363 . S
C2552 H2568 0.931 . S
C2553 C2552 1.370 . S
C2553 C2557 1.408 . S
C2554 C2552 1.363 . S
C2554 C2555 1.370 . S
C2554 C2558 1.524 . S
C2555 C2547 1.503 . S
C2555 C2554 1.370 . S
C2555 C2556 1.403 . S
C2556 C2555 1.403 . S
C2556 C2557 1.404 . S
C2556 C2559 1.539 . S
C2557 C2553 1.408 . S
C2557 C2556 1.404 . S
C2557 H2569 0.930 . S
C2558 C2554 1.524 . S
C2558 H2570 0.956 . S
C2558 H2571 0.961 . S
C2558 H2572 0.961 . S
C2559 C2556 1.539 . S
C2559 H2573 0.958 . S
C2559 H2574 0.961 . S
C2559 H2575 0.960 . S
H2560 C2544 0.931 . S
H2561 C2549 0.929 . S
H2562 C2550 0.960 . S
H2563 C2550 0.962 . S
H2564 C2550 0.960 . S
H2565 C2551 0.961 . S
H2566 C2551 0.961 . S
H2567 C2551 0.961 . S
H2568 C2552 0.931 . S
H2569 C2557 0.930 . S
H2570 C2558 0.956 . S
H2571 C2558 0.961 . S
H2572 C2558 0.961 . S
H2573 C2559 0.958 . S
H2574 C2559 0.961 . S
H2575 C2559 0.960 . S
C2576 C2577 1.391 . S
C2576 C2578 1.394 . S
C2576 H2592 0.931 . S
C2577 C2576 1.391 . S
C2577 C2581 1.376 . S
C2578 C2576 1.394 . S
C2578 C2579 1.369 . S
C2578 C2582 1.531 . S
C2579 C2578 1.369 . S
C2579 C2580 1.410 . S
C2579 C2587 1.503 . S
C2580 C2579 1.410 . S
C2580 C2581 1.392 . S
C2580 C2583 1.511 . S
C2581 C2577 1.376 . S
C2581 C2580 1.392 . S
C2581 H2593 0.929 . S
C2582 C2578 1.531 . S
C2582 H2594 0.960 . S
C2582 H2595 0.962 . S
C2582 H2596 0.960 . S
C2583 C2580 1.511 . S
C2583 H2597 0.961 . S
C2583 H2598 0.961 . S
C2583 H2599 0.961 . S
C2584 C2585 1.370 . S
C2584 C2586 1.363 . S
C2584 H2600 0.931 . S
C2585 C2584 1.370 . S
C2585 C2589 1.408 . S
C2586 C2584 1.363 . S
C2586 C2587 1.370 . S
C2586 C2590 1.524 . S
C2587 C2579 1.503 . S
C2587 C2586 1.370 . S
C2587 C2588 1.403 . S
C2588 C2587 1.403 . S
C2588 C2589 1.404 . S
C2588 C2591 1.539 . S
C2589 C2585 1.408 . S
C2589 C2588 1.404 . S
C2589 H2601 0.930 . S
C2590 C2586 1.524 . S
C2590 H2602 0.956 . S
C2590 H2603 0.961 . S
C2590 H2604 0.961 . S
C2591 C2588 1.539 . S
C2591 H2605 0.958 . S
C2591 H2606 0.961 . S
C2591 H2607 0.960 . S
H2592 C2576 0.931 . S
H2593 C2581 0.929 . S
H2594 C2582 0.960 . S
H2595 C2582 0.962 . S
H2596 C2582 0.960 . S
H2597 C2583 0.961 . S
H2598 C2583 0.961 . S
H2599 C2583 0.961 . S
H2600 C2584 0.931 . S
H2601 C2589 0.930 . S
H2602 C2590 0.956 . S
H2603 C2590 0.961 . S
H2604 C2590 0.961 . S
H2605 C2591 0.958 . S
H2606 C2591 0.961 . S
H2607 C2591 0.960 . S
C2608 C2609 1.391 . S
C2608 C2610 1.394 . S
C2608 H2624 0.931 . S
C2609 C2608 1.391 . S
C2609 C2613 1.376 . S
C2610 C2608 1.394 . S
C2610 C2611 1.369 . S
C2610 C2614 1.531 . S
C2611 C2610 1.369 . S
C2611 C2612 1.410 . S
C2611 C2619 1.503 . S
C2612 C2611 1.410 . S
C2612 C2613 1.392 . S
C2612 C2615 1.511 . S
C2613 C2609 1.376 . S
C2613 C2612 1.392 . S
C2613 H2625 0.929 . S
C2614 C2610 1.531 . S
C2614 H2626 0.960 . S
C2614 H2627 0.962 . S
C2614 H2628 0.960 . S
C2615 C2612 1.511 . S
C2615 H2629 0.961 . S
C2615 H2630 0.961 . S
C2615 H2631 0.961 . S
C2616 C2617 1.370 . S
C2616 C2618 1.363 . S
C2616 H2632 0.931 . S
C2617 C2616 1.370 . S
C2617 C2621 1.408 . S
C2618 C2616 1.363 . S
C2618 C2619 1.370 . S
C2618 C2622 1.524 . S
C2619 C2611 1.503 . S
C2619 C2618 1.370 . S
C2619 C2620 1.403 . S
C2620 C2619 1.403 . S
C2620 C2621 1.404 . S
C2620 C2623 1.539 . S
C2621 C2617 1.408 . S
C2621 C2620 1.404 . S
C2621 H2633 0.930 . S
C2622 C2618 1.524 . S
C2622 H2634 0.956 . S
C2622 H2635 0.961 . S
C2622 H2636 0.961 . S
C2623 C2620 1.539 . S
C2623 H2637 0.958 . S
C2623 H2638 0.961 . S
C2623 H2639 0.960 . S
H2624 C2608 0.931 . S
H2625 C2613 0.929 . S
H2626 C2614 0.960 . S
H2627 C2614 0.962 . S
H2628 C2614 0.960 . S
H2629 C2615 0.961 . S
H2630 C2615 0.961 . S
H2631 C2615 0.961 . S
H2632 C2616 0.931 . S
H2633 C2621 0.930 . S
H2634 C2622 0.956 . S
H2635 C2622 0.961 . S
H2636 C2622 0.961 . S
H2637 C2623 0.958 . S
H2638 C2623 0.961 . S
H2639 C2623 0.960 . S
C2640 C2641 1.391 . S
C2640 C2642 1.394 . S
C2640 H2656 0.931 . S
C2641 C2640 1.391 . S
C2641 C2645 1.376 . S
C2642 C2640 1.394 . S
C2642 C2643 1.369 . S
C2642 C2646 1.531 . S
C2643 C2642 1.369 . S
C2643 C2644 1.410 . S
C2643 C2651 1.503 . S
C2644 C2643 1.410 . S
C2644 C2645 1.392 . S
C2644 C2647 1.511 . S
C2645 C2641 1.376 . S
C2645 C2644 1.392 . S
C2645 H2657 0.929 . S
C2646 C2642 1.531 . S
C2646 H2658 0.960 . S
C2646 H2659 0.962 . S
C2646 H2660 0.960 . S
C2647 C2644 1.511 . S
C2647 H2661 0.961 . S
C2647 H2662 0.961 . S
C2647 H2663 0.961 . S
C2648 C2649 1.370 . S
C2648 C2650 1.363 . S
C2648 H2664 0.931 . S
C2649 C2648 1.370 . S
C2649 C2653 1.408 . S
C2650 C2648 1.363 . S
C2650 C2651 1.370 . S
C2650 C2654 1.524 . S
C2651 C2643 1.503 . S
C2651 C2650 1.370 . S
C2651 C2652 1.403 . S
C2652 C2651 1.403 . S
C2652 C2653 1.404 . S
C2652 C2655 1.539 . S
C2653 C2649 1.408 . S
C2653 C2652 1.404 . S
C2653 H2665 0.930 . S
C2654 C2650 1.524 . S
C2654 H2666 0.956 . S
C2654 H2667 0.961 . S
C2654 H2668 0.961 . S
C2655 C2652 1.539 . S
C2655 H2669 0.958 . S
C2655 H2670 0.961 . S
C2655 H2671 0.960 . S
H2656 C2640 0.931 . S
H2657 C2645 0.929 . S
H2658 C2646 0.960 . S
H2659 C2646 0.962 . S
H2660 C2646 0.960 . S
H2661 C2647 0.961 . S
H2662 C2647 0.961 . S
H2663 C2647 0.961 . S
H2664 C2648 0.931 . S
H2665 C2653 0.930 . S
H2666 C2654 0.956 . S
H2667 C2654 0.961 . S
H2668 C2654 0.961 . S
H2669 C2655 0.958 . S
H2670 C2655 0.961 . S
H2671 C2655 0.960 . S
C2672 C2673 1.391 . S
C2672 C2674 1.394 . S
C2672 H2688 0.931 . S
C2673 C2672 1.391 . S
C2673 C2677 1.376 . S
C2674 C2672 1.394 . S
C2674 C2675 1.369 . S
C2674 C2678 1.531 . S
C2675 C2674 1.369 . S
C2675 C2676 1.410 . S
C2675 C2683 1.503 . S
C2676 C2675 1.410 . S
C2676 C2677 1.392 . S
C2676 C2679 1.511 . S
C2677 C2673 1.376 . S
C2677 C2676 1.392 . S
C2677 H2689 0.929 . S
C2678 C2674 1.531 . S
C2678 H2690 0.960 . S
C2678 H2691 0.962 . S
C2678 H2692 0.960 . S
C2679 C2676 1.511 . S
C2679 H2693 0.961 . S
C2679 H2694 0.961 . S
C2679 H2695 0.961 . S
C2680 C2681 1.370 . S
C2680 C2682 1.363 . S
C2680 H2696 0.931 . S
C2681 C2680 1.370 . S
C2681 C2685 1.408 . S
C2682 C2680 1.363 . S
C2682 C2683 1.370 . S
C2682 C2686 1.524 . S
C2683 C2675 1.503 . S
C2683 C2682 1.370 . S
C2683 C2684 1.403 . S
C2684 C2683 1.403 . S
C2684 C2685 1.404 . S
C2684 C2687 1.539 . S
C2685 C2681 1.408 . S
C2685 C2684 1.404 . S
C2685 H2697 0.930 . S
C2686 C2682 1.524 . S
C2686 H2698 0.956 . S
C2686 H2699 0.961 . S
C2686 H2700 0.961 . S
C2687 C2684 1.539 . S
C2687 H2701 0.958 . S
C2687 H2702 0.961 . S
C2687 H2703 0.960 . S
H2688 C2672 0.931 . S
H2689 C2677 0.929 . S
H2690 C2678 0.960 . S
H2691 C2678 0.962 . S
H2692 C2678 0.960 . S
H2693 C2679 0.961 . S
H2694 C2679 0.961 . S
H2695 C2679 0.961 . S
H2696 C2680 0.931 . S
H2697 C2685 0.930 . S
H2698 C2686 0.956 . S
H2699 C2686 0.961 . S
H2700 C2686 0.961 . S
H2701 C2687 0.958 . S
H2702 C2687 0.961 . S
H2703 C2687 0.960 . S
C2704 C2705 1.391 . S
C2704 C2706 1.394 . S
C2704 H2720 0.931 . S
C2705 C2704 1.391 . S
C2705 C2709 1.376 . S
C2706 C2704 1.394 . S
C2706 C2707 1.369 . S
C2706 C2710 1.531 . S
C2707 C2706 1.369 . S
C2707 C2708 1.410 . S
C2707 C2715 1.503 . S
C2708 C2707 1.410 . S
C2708 C2709 1.392 . S
C2708 C2711 1.511 . S
C2709 C2705 1.376 . S
C2709 C2708 1.392 . S
C2709 H2721 0.929 . S
C2710 C2706 1.531 . S
C2710 H2722 0.960 . S
C2710 H2723 0.962 . S
C2710 H2724 0.960 . S
C2711 C2708 1.511 . S
C2711 H2725 0.961 . S
C2711 H2726 0.961 . S
C2711 H2727 0.961 . S
C2712 C2713 1.370 . S
C2712 C2714 1.363 . S
C2712 H2728 0.931 . S
C2713 C2712 1.370 . S
C2713 C2717 1.408 . S
C2714 C2712 1.363 . S
C2714 C2715 1.370 . S
C2714 C2718 1.524 . S
C2715 C2707 1.503 . S
C2715 C2714 1.370 . S
C2715 C2716 1.403 . S
C2716 C2715 1.403 . S
C2716 C2717 1.404 . S
C2716 C2719 1.539 . S
C2717 C2713 1.408 . S
C2717 C2716 1.404 . S
C2717 H2729 0.930 . S
C2718 C2714 1.524 . S
C2718 H2730 0.956 . S
C2718 H2731 0.961 . S
C2718 H2732 0.961 . S
C2719 C2716 1.539 . S
C2719 H2733 0.958 . S
C2719 H2734 0.961 . S
C2719 H2735 0.960 . S
H2720 C2704 0.931 . S
H2721 C2709 0.929 . S
H2722 C2710 0.960 . S
H2723 C2710 0.962 . S
H2724 C2710 0.960 . S
H2725 C2711 0.961 . S
H2726 C2711 0.961 . S
H2727 C2711 0.961 . S
H2728 C2712 0.931 . S
H2729 C2717 0.930 . S
H2730 C2718 0.956 . S
H2731 C2718 0.961 . S
H2732 C2718 0.961 . S
H2733 C2719 0.958 . S
H2734 C2719 0.961 . S
H2735 C2719 0.960 . S
C2736 C2737 1.391 . S
C2736 C2738 1.394 . S
C2736 H2752 0.931 . S
C2737 C2736 1.391 . S
C2737 C2741 1.376 . S
C2738 C2736 1.394 . S
C2738 C2739 1.369 . S
C2738 C2742 1.531 . S
C2739 C2738 1.369 . S
C2739 C2740 1.410 . S
C2739 C2747 1.503 . S
C2740 C2739 1.410 . S
C2740 C2741 1.392 . S
C2740 C2743 1.511 . S
C2741 C2737 1.376 . S
C2741 C2740 1.392 . S
C2741 H2753 0.929 . S
C2742 C2738 1.531 . S
C2742 H2754 0.960 . S
C2742 H2755 0.962 . S
C2742 H2756 0.960 . S
C2743 C2740 1.511 . S
C2743 H2757 0.961 . S
C2743 H2758 0.961 . S
C2743 H2759 0.961 . S
C2744 C2745 1.370 . S
C2744 C2746 1.363 . S
C2744 H2760 0.931 . S
C2745 C2744 1.370 . S
C2745 C2749 1.408 . S
C2746 C2744 1.363 . S
C2746 C2747 1.370 . S
C2746 C2750 1.524 . S
C2747 C2739 1.503 . S
C2747 C2746 1.370 . S
C2747 C2748 1.403 . S
C2748 C2747 1.403 . S
C2748 C2749 1.404 . S
C2748 C2751 1.539 . S
C2749 C2745 1.408 . S
C2749 C2748 1.404 . S
C2749 H2761 0.930 . S
C2750 C2746 1.524 . S
C2750 H2762 0.956 . S
C2750 H2763 0.961 . S
C2750 H2764 0.961 . S
C2751 C2748 1.539 . S
C2751 H2765 0.958 . S
C2751 H2766 0.961 . S
C2751 H2767 0.960 . S
H2752 C2736 0.931 . S
H2753 C2741 0.929 . S
H2754 C2742 0.960 . S
H2755 C2742 0.962 . S
H2756 C2742 0.960 . S
H2757 C2743 0.961 . S
H2758 C2743 0.961 . S
H2759 C2743 0.961 . S
H2760 C2744 0.931 . S
H2761 C2749 0.930 . S
H2762 C2750 0.956 . S
H2763 C2750 0.961 . S
H2764 C2750 0.961 . S
H2765 C2751 0.958 . S
H2766 C2751 0.961 . S
H2767 C2751 0.960 . S
C2768 C2769 1.391 . S
C2768 C2770 1.394 . S
C2768 H2784 0.931 . S
C2769 C2768 1.391 . S
C2769 C2773 1.376 . S
C2770 C2768 1.394 . S
C2770 C2771 1.369 . S
C2770 C2774 1.531 . S
C2771 C2770 1.369 . S
C2771 C2772 1.410 . S
C2771 C2779 1.503 . S
C2772 C2771 1.410 . S
C2772 C2773 1.392 . S
C2772 C2775 1.511 . S
C2773 C2769 1.376 . S
C2773 C2772 1.392 . S
C2773 H2785 0.929 . S
C2774 C2770 1.531 . S
C2774 H2786 0.960 . S
C2774 H2787 0.962 . S
C2774 H2788 0.960 . S
C2775 C2772 1.511 . S
C2775 H2789 0.961 . S
C2775 H2790 0.961 . S
C2775 H2791 0.961 . S
C2776 C2777 1.370 . S
C2776 C2778 1.363 . S
C2776 H2792 0.931 . S
C2777 C2776 1.370 . S
C2777 C2781 1.408 . S
C2778 C2776 1.363 . S
C2778 C2779 1.370 . S
C2778 C2782 1.524 . S
C2779 C2771 1.503 . S
C2779 C2778 1.370 . S
C2779 C2780 1.403 . S
C2780 C2779 1.403 . S
C2780 C2781 1.404 . S
C2780 C2783 1.539 . S
C2781 C2777 1.408 . S
C2781 C2780 1.404 . S
C2781 H2793 0.930 . S
C2782 C2778 1.524 . S
C2782 H2794 0.956 . S
C2782 H2795 0.961 . S
C2782 H2796 0.961 . S
C2783 C2780 1.539 . S
C2783 H2797 0.958 . S
C2783 H2798 0.961 . S
C2783 H2799 0.960 . S
H2784 C2768 0.931 . S
H2785 C2773 0.929 . S
H2786 C2774 0.960 . S
H2787 C2774 0.962 . S
H2788 C2774 0.960 . S
H2789 C2775 0.961 . S
H2790 C2775 0.961 . S
H2791 C2775 0.961 . S
H2792 C2776 0.931 . S
H2793 C2781 0.930 . S
H2794 C2782 0.956 . S
H2795 C2782 0.961 . S
H2796 C2782 0.961 . S
H2797 C2783 0.958 . S
H2798 C2783 0.961 . S
H2799 C2783 0.960 . S
C2800 C2801 1.391 . S
C2800 C2802 1.394 . S
C2800 H2816 0.931 . S
C2801 C2800 1.391 . S
C2801 C2805 1.376 . S
C2802 C2800 1.394 . S
C2802 C2803 1.369 . S
C2802 C2806 1.531 . S
C2803 C2802 1.369 . S
C2803 C2804 1.410 . S
C2803 C2811 1.503 . S
C2804 C2803 1.410 . S
C2804 C2805 1.392 . S
C2804 C2807 1.511 . S
C2805 C2801 1.376 . S
C2805 C2804 1.392 . S
C2805 H2817 0.929 . S
C2806 C2802 1.531 . S
C2806 H2818 0.960 . S
C2806 H2819 0.962 . S
C2806 H2820 0.960 . S
C2807 C2804 1.511 . S
C2807 H2821 0.961 . S
C2807 H2822 0.961 . S
C2807 H2823 0.961 . S
C2808 C2809 1.370 . S
C2808 C2810 1.363 . S
C2808 H2824 0.931 . S
C2809 C2808 1.370 . S
C2809 C2813 1.408 . S
C2810 C2808 1.363 . S
C2810 C2811 1.370 . S
C2810 C2814 1.524 . S
C2811 C2803 1.503 . S
C2811 C2810 1.370 . S
C2811 C2812 1.403 . S
C2812 C2811 1.403 . S
C2812 C2813 1.404 . S
C2812 C2815 1.539 . S
C2813 C2809 1.408 . S
C2813 C2812 1.404 . S
C2813 H2825 0.930 . S
C2814 C2810 1.524 . S
C2814 H2826 0.956 . S
C2814 H2827 0.961 . S
C2814 H2828 0.961 . S
C2815 C2812 1.539 . S
C2815 H2829 0.958 . S
C2815 H2830 0.961 . S
C2815 H2831 0.960 . S
H2816 C2800 0.931 . S
H2817 C2805 0.929 . S
H2818 C2806 0.960 . S
H2819 C2806 0.962 . S
H2820 C2806 0.960 . S
H2821 C2807 0.961 . S
H2822 C2807 0.961 . S
H2823 C2807 0.961 . S
H2824 C2808 0.931 . S
H2825 C2813 0.930 . S
H2826 C2814 0.956 . S
H2827 C2814 0.961 . S
H2828 C2814 0.961 . S
H2829 C2815 0.958 . S
H2830 C2815 0.961 . S
H2831 C2815 0.960 . S
C2832 C2833 1.391 . S
C2832 C2834 1.394 . S
C2832 H2848 0.931 . S
C2833 C2832 1.391 . S
C2833 C2837 1.376 . S
C2834 C2832 1.394 . S
C2834 C2835 1.369 . S
C2834 C2838 1.531 . S
C2835 C2834 1.369 . S
C2835 C2836 1.410 . S
C2835 C2843 1.503 . S
C2836 C2835 1.410 . S
C2836 C2837 1.392 . S
C2836 C2839 1.511 . S
C2837 C2833 1.376 . S
C2837 C2836 1.392 . S
C2837 H2849 0.929 . S
C2838 C2834 1.531 . S
C2838 H2850 0.960 . S
C2838 H2851 0.962 . S
C2838 H2852 0.960 . S
C2839 C2836 1.511 . S
C2839 H2853 0.961 . S
C2839 H2854 0.961 . S
C2839 H2855 0.961 . S
C2840 C2841 1.370 . S
C2840 C2842 1.363 . S
C2840 H2856 0.931 . S
C2841 C2840 1.370 . S
C2841 C2845 1.408 . S
C2842 C2840 1.363 . S
C2842 C2843 1.370 . S
C2842 C2846 1.524 . S
C2843 C2835 1.503 . S
C2843 C2842 1.370 . S
C2843 C2844 1.403 . S
C2844 C2843 1.403 . S
C2844 C2845 1.404 . S
C2844 C2847 1.539 . S
C2845 C2841 1.408 . S
C2845 C2844 1.404 . S
C2845 H2857 0.930 . S
C2846 C2842 1.524 . S
C2846 H2858 0.956 . S
C2846 H2859 0.961 . S
C2846 H2860 0.961 . S
C2847 C2844 1.539 . S
C2847 H2861 0.958 . S
C2847 H2862 0.961 . S
C2847 H2863 0.960 . S
H2848 C2832 0.931 . S
H2849 C2837 0.929 . S
H2850 C2838 0.960 . S
H2851 C2838 0.962 . S
H2852 C2838 0.960 . S
H2853 C2839 0.961 . S
H2854 C2839 0.961 . S
H2855 C2839 0.961 . S
H2856 C2840 0.931 . S
H2857 C2845 0.930 . S
H2858 C2846 0.956 . S
H2859 C2846 0.961 . S
H2860 C2846 0.961 . S
H2861 C2847 0.958 . S
H2862 C2847 0.961 . S
H2863 C2847 0.960 . S
C2864 C2865 1.391 . S
C2864 C2866 1.394 . S
C2864 H2880 0.931 . S
C2865 C2864 1.391 . S
C2865 C2869 1.376 . S
C2866 C2864 1.394 . S
C2866 C2867 1.369 . S
C2866 C2870 1.531 . S
C2867 C2866 1.369 . S
C2867 C2868 1.410 . S
C2867 C2875 1.503 . S
C2868 C2867 1.410 . S
C2868 C2869 1.392 . S
C2868 C2871 1.511 . S
C2869 C2865 1.376 . S
C2869 C2868 1.392 . S
C2869 H2881 0.929 . S
C2870 C2866 1.531 . S
C2870 H2882 0.960 . S
C2870 H2883 0.962 . S
C2870 H2884 0.960 . S
C2871 C2868 1.511 . S
C2871 H2885 0.961 . S
C2871 H2886 0.961 . S
C2871 H2887 0.961 . S
C2872 C2873 1.370 . S
C2872 C2874 1.363 . S
C2872 H2888 0.931 . S
C2873 C2872 1.370 . S
C2873 C2877 1.408 . S
C2874 C2872 1.363 . S
C2874 C2875 1.370 . S
C2874 C2878 1.524 . S
C2875 C2867 1.503 . S
C2875 C2874 1.370 . S
C2875 C2876 1.403 . S
C2876 C2875 1.403 . S
C2876 C2877 1.404 . S
C2876 C2879 1.539 . S
C2877 C2873 1.408 . S
C2877 C2876 1.404 . S
C2877 H2889 0.930 . S
C2878 C2874 1.524 . S
C2878 H2890 0.956 . S
C2878 H2891 0.961 . S
C2878 H2892 0.961 . S
C2879 C2876 1.539 . S
C2879 H2893 0.958 . S
C2879 H2894 0.961 . S
C2879 H2895 0.960 . S
H2880 C2864 0.931 . S
H2881 C2869 0.929 . S
H2882 C2870 0.960 . S
H2883 C2870 0.962 . S
H2884 C2870 0.960 . S
H2885 C2871 0.961 . S
H2886 C2871 0.961 . S
H2887 C2871 0.961 . S
H2888 C2872 0.931 . S
H2889 C2877 0.930 . S
H2890 C2878 0.956 . S
H2891 C2878 0.961 . S
H2892 C2878 0.961 . S
H2893 C2879 0.958 . S
H2894 C2879 0.961 . S
H2895 C2879 0.960 . S
C2896 C2897 1.391 . S
C2896 C2898 1.394 . S
C2896 H2912 0.931 . S
C2897 C2896 1.391 . S
C2897 C2901 1.376 . S
C2898 C2896 1.394 . S
C2898 C2899 1.369 . S
C2898 C2902 1.531 . S
C2899 C2898 1.369 . S
C2899 C2900 1.410 . S
C2899 C2907 1.503 . S
C2900 C2899 1.410 . S
C2900 C2901 1.392 . S
C2900 C2903 1.511 . S
C2901 C2897 1.376 . S
C2901 C2900 1.392 . S
C2901 H2913 0.929 . S
C2902 C2898 1.531 . S
C2902 H2914 0.960 . S
C2902 H2915 0.962 . S
C2902 H2916 0.960 . S
C2903 C2900 1.511 . S
C2903 H2917 0.961 . S
C2903 H2918 0.961 . S
C2903 H2919 0.961 . S
C2904 C2905 1.370 . S
C2904 C2906 1.363 . S
C2904 H2920 0.931 . S
C2905 C2904 1.370 . S
C2905 C2909 1.408 . S
C2906 C2904 1.363 . S
C2906 C2907 1.370 . S
C2906 C2910 1.524 . S
C2907 C2899 1.503 . S
C2907 C2906 1.370 . S
C2907 C2908 1.403 . S
C2908 C2907 1.403 . S
C2908 C2909 1.404 . S
C2908 C2911 1.539 . S
C2909 C2905 1.408 . S
C2909 C2908 1.404 . S
C2909 H2921 0.930 . S
C2910 C2906 1.524 . S
C2910 H2922 0.956 . S
C2910 H2923 0.961 . S
C2910 H2924 0.961 . S
C2911 C2908 1.539 . S
C2911 H2925 0.958 . S
C2911 H2926 0.961 . S
C2911 H2927 0.960 . S
H2912 C2896 0.931 . S
H2913 C2901 0.929 . S
H2914 C2902 0.960 . S
H2915 C2902 0.962 . S
H2916 C2902 0.960 . S
H2917 C2903 0.961 . S
H2918 C2903 0.961 . S
H2919 C2903 0.961 . S
H2920 C2904 0.931 . S
H2921 C2909 0.930 . S
H2922 C2910 0.956 . S
H2923 C2910 0.961 . S
H2924 C2910 0.961 . S
H2925 C2911 0.958 . S
H2926 C2911 0.961 . S
H2927 C2911 0.960 . S
C2928 C2929 1.391 . S
C2928 C2930 1.394 . S
C2928 H2944 0.931 . S
C2929 C2928 1.391 . S
C2929 C2933 1.376 . S
C2930 C2928 1.394 . S
C2930 C2931 1.369 . S
C2930 C2934 1.531 . S
C2931 C2930 1.369 . S
C2931 C2932 1.410 . S
C2931 C2939 1.503 . S
C2932 C2931 1.410 . S
C2932 C2933 1.392 . S
C2932 C2935 1.511 . S
C2933 C2929 1.376 . S
C2933 C2932 1.392 . S
C2933 H2945 0.929 . S
C2934 C2930 1.531 . S
C2934 H2946 0.960 . S
C2934 H2947 0.962 . S
C2934 H2948 0.960 . S
C2935 C2932 1.511 . S
C2935 H2949 0.961 . S
C2935 H2950 0.961 . S
C2935 H2951 0.961 . S
C2936 C2937 1.370 . S
C2936 C2938 1.363 . S
C2936 H2952 0.931 . S
C2937 C2936 1.370 . S
C2937 C2941 1.408 . S
C2938 C2936 1.363 . S
C2938 C2939 1.370 . S
C2938 C2942 1.524 . S
C2939 C2931 1.503 . S
C2939 C2938 1.370 . S
C2939 C2940 1.403 . S
C2940 C2939 1.403 . S
C2940 C2941 1.404 . S
C2940 C2943 1.539 . S
C2941 C2937 1.408 . S
C2941 C2940 1.404 . S
C2941 H2953 0.930 . S
C2942 C2938 1.524 . S
C2942 H2954 0.956 . S
C2942 H2955 0.961 . S
C2942 H2956 0.961 . S
C2943 C2940 1.539 . S
C2943 H2957 0.958 . S
C2943 H2958 0.961 . S
C2943 H2959 0.960 . S
H2944 C2928 0.931 . S
H2945 C2933 0.929 . S
H2946 C2934 0.960 . S
H2947 C2934 0.962 . S
H2948 C2934 0.960 . S
H2949 C2935 0.961 . S
H2950 C2935 0.961 . S
H2951 C2935 0.961 . S
H2952 C2936 0.931 . S
H2953 C2941 0.930 . S
H2954 C2942 0.956 . S
H2955 C2942 0.961 . S
H2956 C2942 0.961 . S
H2957 C2943 0.958 . S
H2958 C2943 0.961 . S
H2959 C2943 0.960 . S
C2960 C2961 1.391 . S
C2960 C2962 1.394 . S
C2960 H2976 0.931 . S
C2961 C2960 1.391 . S
C2961 C2965 1.376 . S
C2962 C2960 1.394 . S
C2962 C2963 1.369 . S
C2962 C2966 1.531 . S
C2963 C2962 1.369 . S
C2963 C2964 1.410 . S
C2963 C2971 1.503 . S
C2964 C2963 1.410 . S
C2964 C2965 1.392 . S
C2964 C2967 1.511 . S
C2965 C2961 1.376 . S
C2965 C2964 1.392 . S
C2965 H2977 0.929 . S
C2966 C2962 1.531 . S
C2966 H2978 0.960 . S
C2966 H2979 0.962 . S
C2966 H2980 0.960 . S
C2967 C2964 1.511 . S
C2967 H2981 0.961 . S
C2967 H2982 0.961 . S
C2967 H2983 0.961 . S
C2968 C2969 1.370 . S
C2968 C2970 1.363 . S
C2968 H2984 0.931 . S
C2969 C2968 1.370 . S
C2969 C2973 1.408 . S
C2970 C2968 1.363 . S
C2970 C2971 1.370 . S
C2970 C2974 1.524 . S
C2971 C2963 1.503 . S
C2971 C2970 1.370 . S
C2971 C2972 1.403 . S
C2972 C2971 1.403 . S
C2972 C2973 1.404 . S
C2972 C2975 1.539 . S
C2973 C2969 1.408 . S
C2973 C2972 1.404 . S
C2973 H2985 0.930 . S
C2974 C2970 1.524 . S
C2974 H2986 0.956 . S
C2974 H2987 0.961 . S
C2974 H2988 0.961 . S
C2975 C2972 1.539 . S
C2975 H2989 0.958 . S
C2975 H2990 0.961 . S
C2975 H2991 0.960 . S
H2976 C2960 0.931 . S
H2977 C2965 0.929 . S
H2978 C2966 0.960 . S
H2979 C2966 0.962 . S
H2980 C2966 0.960 . S
H2981 C2967 0.961 . S
H2982 C2967 0.961 . S
H2983 C2967 0.961 . S
H2984 C2968 0.931 . S
H2985 C2973 0.930 . S
H2986 C2974 0.956 . S
H2987 C2974 0.961 . S
H2988 C2974 0.961 . S
H2989 C2975 0.958 . S
H2990 C2975 0.961 . S
H2991 C2975 0.960 . S
C2992 C2993 1.391 . S
C2992 C2994 1.394 . S
C2992 H3008 0.931 . S
C2993 C2992 1.391 . S
C2993 C2997 1.376 . S
C2994 C2992 1.394 . S
C2994 C2995 1.369 . S
C2994 C2998 1.531 . S
C2995 C2994 1.369 . S
C2995 C2996 1.410 . S
C2995 C3003 1.503 . S
C2996 C2995 1.410 . S
C2996 C2997 1.392 . S
C2996 C2999 1.511 . S
C2997 C2993 1.376 . S
C2997 C2996 1.392 . S
C2997 H3009 0.929 . S
C2998 C2994 1.531 . S
C2998 H3010 0.960 . S
C2998 H3011 0.962 . S
C2998 H3012 0.960 . S
C2999 C2996 1.511 . S
C2999 H3013 0.961 . S
C2999 H3014 0.961 . S
C2999 H3015 0.961 . S
C3000 C3001 1.370 . S
C3000 C3002 1.363 . S
C3000 H3016 0.931 . S
C3001 C3000 1.370 . S
C3001 C3005 1.408 . S
C3002 C3000 1.363 . S
C3002 C3003 1.370 . S
C3002 C3006 1.524 . S
C3003 C2995 1.503 . S
C3003 C3002 1.370 . S
C3003 C3004 1.403 . S
C3004 C3003 1.403 . S
C3004 C3005 1.404 . S
C3004 C3007 1.539 . S
C3005 C3001 1.408 . S
C3005 C3004 1.404 . S
C3005 H3017 0.930 . S
C3006 C3002 1.524 . S
C3006 H3018 0.956 . S
C3006 H3019 0.961 . S
C3006 H3020 0.961 . S
C3007 C3004 1.539 . S
C3007 H3021 0.958 . S
C3007 H3022 0.961 . S
C3007 H3023 0.960 . S
H3008 C2992 0.931 . S
H3009 C2997 0.929 . S
H3010 C2998 0.960 . S
H3011 C2998 0.962 . S
H3012 C2998 0.960 . S
H3013 C2999 0.961 . S
H3014 C2999 0.961 . S
H3015 C2999 0.961 . S
H3016 C3000 0.931 . S
H3017 C3005 0.930 . S
H3018 C3006 0.956 . S
H3019 C3006 0.961 . S
H3020 C3006 0.961 . S
H3021 C3007 0.958 . S
H3022 C3007 0.961 . S
H3023 C3007 0.960 . S
C3024 C3025 1.391 . S
C3024 C3026 1.394 . S
C3024 H3040 0.931 . S
C3025 C3024 1.391 . S
C3025 C3029 1.376 . S
C3026 C3024 1.394 . S
C3026 C3027 1.369 . S
C3026 C3030 1.531 . S
C3027 C3026 1.369 . S
C3027 C3028 1.410 . S
C3027 C3035 1.503 . S
C3028 C3027 1.410 . S
C3028 C3029 1.392 . S
C3028 C3031 1.511 . S
C3029 C3025 1.376 . S
C3029 C3028 1.392 . S
C3029 H3041 0.929 . S
C3030 C3026 1.531 . S
C3030 H3042 0.960 . S
C3030 H3043 0.962 . S
C3030 H3044 0.960 . S
C3031 C3028 1.511 . S
C3031 H3045 0.961 . S
C3031 H3046 0.961 . S
C3031 H3047 0.961 . S
C3032 C3033 1.370 . S
C3032 C3034 1.363 . S
C3032 H3048 0.931 . S
C3033 C3032 1.370 . S
C3033 C3037 1.408 . S
C3034 C3032 1.363 . S
C3034 C3035 1.370 . S
C3034 C3038 1.524 . S
C3035 C3027 1.503 . S
C3035 C3034 1.370 . S
C3035 C3036 1.403 . S
C3036 C3035 1.403 . S
C3036 C3037 1.404 . S
C3036 C3039 1.539 . S
C3037 C3033 1.408 . S
C3037 C3036 1.404 . S
C3037 H3049 0.930 . S
C3038 C3034 1.524 . S
C3038 H3050 0.956 . S
C3038 H3051 0.961 . S
C3038 H3052 0.961 . S
C3039 C3036 1.539 . S
C3039 H3053 0.958 . S
C3039 H3054 0.961 . S
C3039 H3055 0.960 . S
H3040 C3024 0.931 . S
H3041 C3029 0.929 . S
H3042 C3030 0.960 . S
H3043 C3030 0.962 . S
H3044 C3030 0.960 . S
H3045 C3031 0.961 . S
H3046 C3031 0.961 . S
H3047 C3031 0.961 . S
H3048 C3032 0.931 . S
H3049 C3037 0.930 . S
H3050 C3038 0.956 . S
H3051 C3038 0.961 . S
H3052 C3038 0.961 . S
H3053 C3039 0.958 . S
H3054 C3039 0.961 . S
H3055 C3039 0.960 . S
C3056 C3057 1.391 . S
C3056 C3058 1.394 . S
C3056 H3072 0.931 . S
C3057 C3056 1.391 . S
C3057 C3061 1.376 . S
C3058 C3056 1.394 . S
C3058 C3059 1.369 . S
C3058 C3062 1.531 . S
C3059 C3058 1.369 . S
C3059 C3060 1.410 . S
C3059 C3067 1.503 . S
C3060 C3059 1.410 . S
C3060 C3061 1.392 . S
C3060 C3063 1.511 . S
C3061 C3057 1.376 . S
C3061 C3060 1.392 . S
C3061 H3073 0.929 . S
C3062 C3058 1.531 . S
C3062 H3074 0.960 . S
C3062 H3075 0.962 . S
C3062 H3076 0.960 . S
C3063 C3060 1.511 . S
C3063 H3077 0.961 . S
C3063 H3078 0.961 . S
C3063 H3079 0.961 . S
C3064 C3065 1.370 . S
C3064 C3066 1.363 . S
C3064 H3080 0.931 . S
C3065 C3064 1.370 . S
C3065 C3069 1.408 . S
C3066 C3064 1.363 . S
C3066 C3067 1.370 . S
C3066 C3070 1.524 . S
C3067 C3059 1.503 . S
C3067 C3066 1.370 . S
C3067 C3068 1.403 . S
C3068 C3067 1.403 . S
C3068 C3069 1.404 . S
C3068 C3071 1.539 . S
C3069 C3065 1.408 . S
C3069 C3068 1.404 . S
C3069 H3081 0.930 . S
C3070 C3066 1.524 . S
C3070 H3082 0.956 . S
C3070 H3083 0.961 . S
C3070 H3084 0.961 . S
C3071 C3068 1.539 . S
C3071 H3085 0.958 . S
C3071 H3086 0.961 . S
C3071 H3087 0.960 . S
H3072 C3056 0.931 . S
H3073 C3061 0.929 . S
H3074 C3062 0.960 . S
H3075 C3062 0.962 . S
H3076 C3062 0.960 . S
H3077 C3063 0.961 . S
H3078 C3063 0.961 . S
H3079 C3063 0.961 . S
H3080 C3064 0.931 . S
H3081 C3069 0.930 . S
H3082 C3070 0.956 . S
H3083 C3070 0.961 . S
H3084 C3070 0.961 . S
H3085 C3071 0.958 . S
H3086 C3071 0.961 . S
H3087 C3071 0.960 . S
C3088 C3089 1.391 . S
C3088 C3090 1.394 . S
C3088 H3104 0.931 . S
C3089 C3088 1.391 . S
C3089 C3093 1.376 . S
C3090 C3088 1.394 . S
C3090 C3091 1.369 . S
C3090 C3094 1.531 . S
C3091 C3090 1.369 . S
C3091 C3092 1.410 . S
C3091 C3099 1.503 . S
C3092 C3091 1.410 . S
C3092 C3093 1.392 . S
C3092 C3095 1.511 . S
C3093 C3089 1.376 . S
C3093 C3092 1.392 . S
C3093 H3105 0.929 . S
C3094 C3090 1.531 . S
C3094 H3106 0.960 . S
C3094 H3107 0.962 . S
C3094 H3108 0.960 . S
C3095 C3092 1.511 . S
C3095 H3109 0.961 . S
C3095 H3110 0.961 . S
C3095 H3111 0.961 . S
C3096 C3097 1.370 . S
C3096 C3098 1.363 . S
C3096 H3112 0.931 . S
C3097 C3096 1.370 . S
C3097 C3101 1.408 . S
C3098 C3096 1.363 . S
C3098 C3099 1.370 . S
C3098 C3102 1.524 . S
C3099 C3091 1.503 . S
C3099 C3098 1.370 . S
C3099 C3100 1.403 . S
C3100 C3099 1.403 . S
C3100 C3101 1.404 . S
C3100 C3103 1.539 . S
C3101 C3097 1.408 . S
C3101 C3100 1.404 . S
C3101 H3113 0.930 . S
C3102 C3098 1.524 . S
C3102 H3114 0.956 . S
C3102 H3115 0.961 . S
C3102 H3116 0.961 . S
C3103 C3100 1.539 . S
C3103 H3117 0.958 . S
C3103 H3118 0.961 . S
C3103 H3119 0.960 . S
H3104 C3088 0.931 . S
H3105 C3093 0.929 . S
H3106 C3094 0.960 . S
H3107 C3094 0.962 . S
H3108 C3094 0.960 . S
H3109 C3095 0.961 . S
H3110 C3095 0.961 . S
H3111 C3095 0.961 . S
H3112 C3096 0.931 . S
H3113 C3101 0.930 . S
H3114 C3102 0.956 . S
H3115 C3102 0.961 . S
H3116 C3102 0.961 . S
H3117 C3103 0.958 . S
H3118 C3103 0.961 . S
H3119 C3103 0.960 . S
C3120 C3121 1.391 . S
C3120 C3122 1.394 . S
C3120 H3136 0.931 . S
C3121 C3120 1.391 . S
C3121 C3125 1.376 . S
C3122 C3120 1.394 . S
C3122 C3123 1.369 . S
C3122 C3126 1.531 . S
C3123 C3122 1.369 . S
C3123 C3124 1.410 . S
C3123 C3131 1.503 . S
C3124 C3123 1.410 . S
C3124 C3125 1.392 . S
C3124 C3127 1.511 . S
C3125 C3121 1.376 . S
C3125 C3124 1.392 . S
C3125 H3137 0.929 . S
C3126 C3122 1.531 . S
C3126 H3138 0.960 . S
C3126 H3139 0.962 . S
C3126 H3140 0.960 . S
C3127 C3124 1.511 . S
C3127 H3141 0.961 . S
C3127 H3142 0.961 . S
C3127 H3143 0.961 . S
C3128 C3129 1.370 . S
C3128 C3130 1.363 . S
C3128 H3144 0.931 . S
C3129 C3128 1.370 . S
C3129 C3133 1.408 . S
C3130 C3128 1.363 . S
C3130 C3131 1.370 . S
C3130 C3134 1.524 . S
C3131 C3123 1.503 . S
C3131 C3130 1.370 . S
C3131 C3132 1.403 . S
C3132 C3131 1.403 . S
C3132 C3133 1.404 . S
C3132 C3135 1.539 . S
C3133 C3129 1.408 . S
C3133 C3132 1.404 . S
C3133 H3145 0.930 . S
C3134 C3130 1.524 . S
C3134 H3146 0.956 . S
C3134 H3147 0.961 . S
C3134 H3148 0.961 . S
C3135 C3132 1.539 . S
C3135 H3149 0.958 . S
C3135 H3150 0.961 . S
C3135 H3151 0.960 . S
H3136 C3120 0.931 . S
H3137 C3125 0.929 . S
H3138 C3126 0.960 . S
H3139 C3126 0.962 . S
H3140 C3126 0.960 . S
H3141 C3127 0.961 . S
H3142 C3127 0.961 . S
H3143 C3127 0.961 . S
H3144 C3128 0.931 . S
H3145 C3133 0.930 . S
H3146 C3134 0.956 . S
H3147 C3134 0.961 . S
H3148 C3134 0.961 . S
H3149 C3135 0.958 . S
H3150 C3135 0.961 . S
H3151 C3135 0.960 . S
C3152 C3153 1.391 . S
C3152 C3154 1.394 . S
C3152 H3168 0.931 . S
C3153 C3152 1.391 . S
C3153 C3157 1.376 . S
C3154 C3152 1.394 . S
C3154 C3155 1.369 . S
C3154 C3158 1.531 . S
C3155 C3154 1.369 . S
C3155 C3156 1.410 . S
C3155 C3163 1.503 . S
C3156 C3155 1.410 . S
C3156 C3157 1.392 . S
C3156 C3159 1.511 . S
C3157 C3153 1.376 . S
C3157 C3156 1.392 . S
C3157 H3169 0.929 . S
C3158 C3154 1.531 . S
C3158 H3170 0.960 . S
C3158 H3171 0.962 . S
C3158 H3172 0.960 . S
C3159 C3156 1.511 . S
C3159 H3173 0.961 . S
C3159 H3174 0.961 . S
C3159 H3175 0.961 . S
C3160 C3161 1.370 . S
C3160 C3162 1.363 . S
C3160 H3176 0.931 . S
C3161 C3160 1.370 . S
C3161 C3165 1.408 . S
C3162 C3160 1.363 . S
C3162 C3163 1.370 . S
C3162 C3166 1.524 . S
C3163 C3155 1.503 . S
C3163 C3162 1.370 . S
C3163 C3164 1.403 . S
C3164 C3163 1.403 . S
C3164 C3165 1.404 . S
C3164 C3167 1.539 . S
C3165 C3161 1.408 . S
C3165 C3164 1.404 . S
C3165 H3177 0.930 . S
C3166 C3162 1.524 . S
C3166 H3178 0.956 . S
C3166 H3179 0.961 . S
C3166 H3180 0.961 . S
C3167 C3164 1.539 . S
C3167 H3181 0.958 . S
C3167 H3182 0.961 . S
C3167 H3183 0.960 . S
H3168 C3152 0.931 . S
H3169 C3157 0.929 . S
H3170 C3158 0.960 . S
H3171 C3158 0.962 . S
H3172 C3158 0.960 . S
H3173 C3159 0.961 . S
H3174 C3159 0.961 . S
H3175 C3159 0.961 . S
H3176 C3160 0.931 . S
H3177 C3165 0.930 . S
H3178 C3166 0.956 . S
H3179 C3166 0.961 . S
H3180 C3166 0.961 . S
H3181 C3167 0.958 . S
H3182 C3167 0.961 . S
H3183 C3167 0.960 . S
C3184 C3185 1.391 . S
C3184 C3186 1.394 . S
C3184 H3200 0.931 . S
C3185 C3184 1.391 . S
C3185 C3189 1.376 . S
C3186 C3184 1.394 . S
C3186 C3187 1.369 . S
C3186 C3190 1.531 . S
C3187 C3186 1.369 . S
C3187 C3188 1.410 . S
C3187 C3195 1.503 . S
C3188 C3187 1.410 . S
C3188 C3189 1.392 . S
C3188 C3191 1.511 . S
C3189 C3185 1.376 . S
C3189 C3188 1.392 . S
C3189 H3201 0.929 . S
C3190 C3186 1.531 . S
C3190 H3202 0.960 . S
C3190 H3203 0.962 . S
C3190 H3204 0.960 . S
C3191 C3188 1.511 . S
C3191 H3205 0.961 . S
C3191 H3206 0.961 . S
C3191 H3207 0.961 . S
C3192 C3193 1.370 . S
C3192 C3194 1.363 . S
C3192 H3208 0.931 . S
C3193 C3192 1.370 . S
C3193 C3197 1.408 . S
C3194 C3192 1.363 . S
C3194 C3195 1.370 . S
C3194 C3198 1.524 . S
C3195 C3187 1.503 . S
C3195 C3194 1.370 . S
C3195 C3196 1.403 . S
C3196 C3195 1.403 . S
C3196 C3197 1.404 . S
C3196 C3199 1.539 . S
C3197 C3193 1.408 . S
C3197 C3196 1.404 . S
C3197 H3209 0.930 . S
C3198 C3194 1.524 . S
C3198 H3210 0.956 . S
C3198 H3211 0.961 . S
C3198 H3212 0.961 . S
C3199 C3196 1.539 . S
C3199 H3213 0.958 . S
C3199 H3214 0.961 . S
C3199 H3215 0.960 . S
H3200 C3184 0.931 . S
H3201 C3189 0.929 . S
H3202 C3190 0.960 . S
H3203 C3190 0.962 . S
H3204 C3190 0.960 . S
H3205 C3191 0.961 . S
H3206 C3191 0.961 . S
H3207 C3191 0.961 . S
H3208 C3192 0.931 . S
H3209 C3197 0.930 . S
H3210 C3198 0.956 . S
H3211 C3198 0.961 . S
H3212 C3198 0.961 . S
H3213 C3199 0.958 . S
H3214 C3199 0.961 . S
H3215 C3199 0.960 . S
C3216 C3217 1.391 . S
C3216 C3218 1.394 . S
C3216 H3232 0.931 . S
C3217 C3216 1.391 . S
C3217 C3221 1.376 . S
C3218 C3216 1.394 . S
C3218 C3219 1.369 . S
C3218 C3222 1.531 . S
C3219 C3218 1.369 . S
C3219 C3220 1.410 . S
C3219 C3227 1.503 . S
C3220 C3219 1.410 . S
C3220 C3221 1.392 . S
C3220 C3223 1.511 . S
C3221 C3217 1.376 . S
C3221 C3220 1.392 . S
C3221 H3233 0.929 . S
C3222 C3218 1.531 . S
C3222 H3234 0.960 . S
C3222 H3235 0.962 . S
C3222 H3236 0.960 . S
C3223 C3220 1.511 . S
C3223 H3237 0.961 . S
C3223 H3238 0.961 . S
C3223 H3239 0.961 . S
C3224 C3225 1.370 . S
C3224 C3226 1.363 . S
C3224 H3240 0.931 . S
C3225 C3224 1.370 . S
C3225 C3229 1.408 . S
C3226 C3224 1.363 . S
C3226 C3227 1.370 . S
C3226 C3230 1.524 . S
C3227 C3219 1.503 . S
C3227 C3226 1.370 . S
C3227 C3228 1.403 . S
C3228 C3227 1.403 . S
C3228 C3229 1.404 . S
C3228 C3231 1.539 . S
C3229 C3225 1.408 . S
C3229 C3228 1.404 . S
C3229 H3241 0.930 . S
C3230 C3226 1.524 . S
C3230 H3242 0.956 . S
C3230 H3243 0.961 . S
C3230 H3244 0.961 . S
C3231 C3228 1.539 . S
C3231 H3245 0.958 . S
C3231 H3246 0.961 . S
C3231 H3247 0.960 . S
H3232 C3216 0.931 . S
H3233 C3221 0.929 . S
H3234 C3222 0.960 . S
H3235 C3222 0.962 . S
H3236 C3222 0.960 . S
H3237 C3223 0.961 . S
H3238 C3223 0.961 . S
H3239 C3223 0.961 . S
H3240 C3224 0.931 . S
H3241 C3229 0.930 . S
H3242 C3230 0.956 . S
H3243 C3230 0.961 . S
H3244 C3230 0.961 . S
H3245 C3231 0.958 . S
H3246 C3231 0.961 . S
H3247 C3231 0.960 . S
C3248 C3249 1.391 . S
C3248 C3250 1.394 . S
C3248 H3264 0.931 . S
C3249 C3248 1.391 . S
C3249 C3253 1.376 . S
C3250 C3248 1.394 . S
C3250 C3251 1.369 . S
C3250 C3254 1.531 . S
C3251 C3250 1.369 . S
C3251 C3252 1.410 . S
C3251 C3259 1.503 . S
C3252 C3251 1.410 . S
C3252 C3253 1.392 . S
C3252 C3255 1.511 . S
C3253 C3249 1.376 . S
C3253 C3252 1.392 . S
C3253 H3265 0.929 . S
C3254 C3250 1.531 . S
C3254 H3266 0.960 . S
C3254 H3267 0.962 . S
C3254 H3268 0.960 . S
C3255 C3252 1.511 . S
C3255 H3269 0.961 . S
C3255 H3270 0.961 . S
C3255 H3271 0.961 . S
C3256 C3257 1.370 . S
C3256 C3258 1.363 . S
C3256 H3272 0.931 . S
C3257 C3256 1.370 . S
C3257 C3261 1.408 . S
C3258 C3256 1.363 . S
C3258 C3259 1.370 . S
C3258 C3262 1.524 . S
C3259 C3251 1.503 . S
C3259 C3258 1.370 . S
C3259 C3260 1.403 . S
C3260 C3259 1.403 . S
C3260 C3261 1.404 . S
C3260 C3263 1.539 . S
C3261 C3257 1.408 . S
C3261 C3260 1.404 . S
C3261 H3273 0.930 . S
C3262 C3258 1.524 . S
C3262 H3274 0.956 . S
C3262 H3275 0.961 . S
C3262 H3276 0.961 . S
C3263 C3260 1.539 . S
C3263 H3277 0.958 . S
C3263 H3278 0.961 . S
C3263 H3279 0.960 . S
H3264 C3248 0.931 . S
H3265 C3253 0.929 . S
H3266 C3254 0.960 . S
H3267 C3254 0.962 . S
H3268 C3254 0.960 . S
H3269 C3255 0.961 . S
H3270 C3255 0.961 . S
H3271 C3255 0.961 . S
H3272 C3256 0.931 . S
H3273 C3261 0.930 . S
H3274 C3262 0.956 . S
H3275 C3262 0.961 . S
H3276 C3262 0.961 . S
H3277 C3263 0.958 . S
H3278 C3263 0.961 . S
H3279 C3263 0.960 . S
C3280 C3281 1.391 . S
C3280 C3282 1.394 . S
C3280 H3296 0.931 . S
C3281 C3280 1.391 . S
C3281 C3285 1.376 . S
C3282 C3280 1.394 . S
C3282 C3283 1.369 . S
C3282 C3286 1.531 . S
C3283 C3282 1.369 . S
C3283 C3284 1.410 . S
C3283 C3291 1.503 . S
C3284 C3283 1.410 . S
C3284 C3285 1.392 . S
C3284 C3287 1.511 . S
C3285 C3281 1.376 . S
C3285 C3284 1.392 . S
C3285 H3297 0.929 . S
C3286 C3282 1.531 . S
C3286 H3298 0.960 . S
C3286 H3299 0.962 . S
C3286 H3300 0.960 . S
C3287 C3284 1.511 . S
C3287 H3301 0.961 . S
C3287 H3302 0.961 . S
C3287 H3303 0.961 . S
C3288 C3289 1.370 . S
C3288 C3290 1.363 . S
C3288 H3304 0.931 . S
C3289 C3288 1.370 . S
C3289 C3293 1.408 . S
C3290 C3288 1.363 . S
C3290 C3291 1.370 . S
C3290 C3294 1.524 . S
C3291 C3283 1.503 . S
C3291 C3290 1.370 . S
C3291 C3292 1.403 . S
C3292 C3291 1.403 . S
C3292 C3293 1.404 . S
C3292 C3295 1.539 . S
C3293 C3289 1.408 . S
C3293 C3292 1.404 . S
C3293 H3305 0.930 . S
C3294 C3290 1.524 . S
C3294 H3306 0.956 . S
C3294 H3307 0.961 . S
C3294 H3308 0.961 . S
C3295 C3292 1.539 . S
C3295 H3309 0.958 . S
C3295 H3310 0.961 . S
C3295 H3311 0.960 . S
H3296 C3280 0.931 . S
H3297 C3285 0.929 . S
H3298 C3286 0.960 . S
H3299 C3286 0.962 . S
H3300 C3286 0.960 . S
H3301 C3287 0.961 . S
H3302 C3287 0.961 . S
H3303 C3287 0.961 . S
H3304 C3288 0.931 . S
H3305 C3293 0.930 . S
H3306 C3294 0.956 . S
H3307 C3294 0.961 . S
H3308 C3294 0.961 . S
H3309 C3295 0.958 . S
H3310 C3295 0.961 . S
H3311 C3295 0.960 . S
C3312 C3313 1.391 . S
C3312 C3314 1.394 . S
C3312 H3328 0.931 . S
C3313 C3312 1.391 . S
C3313 C3317 1.376 . S
C3314 C3312 1.394 . S
C3314 C3315 1.369 . S
C3314 C3318 1.531 . S
C3315 C3314 1.369 . S
C3315 C3316 1.410 . S
C3315 C3323 1.503 . S
C3316 C3315 1.410 . S
C3316 C3317 1.392 . S
C3316 C3319 1.511 . S
C3317 C3313 1.376 . S
C3317 C3316 1.392 . S
C3317 H3329 0.929 . S
C3318 C3314 1.531 . S
C3318 H3330 0.960 . S
C3318 H3331 0.962 . S
C3318 H3332 0.960 . S
C3319 C3316 1.511 . S
C3319 H3333 0.961 . S
C3319 H3334 0.961 . S
C3319 H3335 0.961 . S
C3320 C3321 1.370 . S
C3320 C3322 1.363 . S
C3320 H3336 0.931 . S
C3321 C3320 1.370 . S
C3321 C3325 1.408 . S
C3322 C3320 1.363 . S
C3322 C3323 1.370 . S
C3322 C3326 1.524 . S
C3323 C3315 1.503 . S
C3323 C3322 1.370 . S
C3323 C3324 1.403 . S
C3324 C3323 1.403 . S
C3324 C3325 1.404 . S
C3324 C3327 1.539 . S
C3325 C3321 1.408 . S
C3325 C3324 1.404 . S
C3325 H3337 0.930 . S
C3326 C3322 1.524 . S
C3326 H3338 0.956 . S
C3326 H3339 0.961 . S
C3326 H3340 0.961 . S
C3327 C3324 1.539 . S
C3327 H3341 0.958 . S
C3327 H3342 0.961 . S
C3327 H3343 0.960 . S
H3328 C3312 0.931 . S
H3329 C3317 0.929 . S
H3330 C3318 0.960 . S
H3331 C3318 0.962 . S
H3332 C3318 0.960 . S
H3333 C3319 0.961 . S
H3334 C3319 0.961 . S
H3335 C3319 0.961 . S
H3336 C3320 0.931 . S
H3337 C3325 0.930 . S
H3338 C3326 0.956 . S
H3339 C3326 0.961 . S
H3340 C3326 0.961 . S
H3341 C3327 0.958 . S
H3342 C3327 0.961 . S
H3343 C3327 0.960 . S
C3344 C3345 1.391 . S
C3344 C3346 1.394 . S
C3344 H3360 0.931 . S
C3345 C3344 1.391 . S
C3345 C3349 1.376 . S
C3346 C3344 1.394 . S
C3346 C3347 1.369 . S
C3346 C3350 1.531 . S
C3347 C3346 1.369 . S
C3347 C3348 1.410 . S
C3347 C3355 1.503 . S
C3348 C3347 1.410 . S
C3348 C3349 1.392 . S
C3348 C3351 1.511 . S
C3349 C3345 1.376 . S
C3349 C3348 1.392 . S
C3349 H3361 0.929 . S
C3350 C3346 1.531 . S
C3350 H3362 0.960 . S
C3350 H3363 0.962 . S
C3350 H3364 0.960 . S
C3351 C3348 1.511 . S
C3351 H3365 0.961 . S
C3351 H3366 0.961 . S
C3351 H3367 0.961 . S
C3352 C3353 1.370 . S
C3352 C3354 1.363 . S
C3352 H3368 0.931 . S
C3353 C3352 1.370 . S
C3353 C3357 1.408 . S
C3354 C3352 1.363 . S
C3354 C3355 1.370 . S
C3354 C3358 1.524 . S
C3355 C3347 1.503 . S
C3355 C3354 1.370 . S
C3355 C3356 1.403 . S
C3356 C3355 1.403 . S
C3356 C3357 1.404 . S
C3356 C3359 1.539 . S
C3357 C3353 1.408 . S
C3357 C3356 1.404 . S
C3357 H3369 0.930 . S
C3358 C3354 1.524 . S
C3358 H3370 0.956 . S
C3358 H3371 0.961 . S
C3358 H3372 0.961 . S
C3359 C3356 1.539 . S
C3359 H3373 0.958 . S
C3359 H3374 0.961 . S
C3359 H3375 0.960 . S
H3360 C3344 0.931 . S
H3361 C3349 0.929 . S
H3362 C3350 0.960 . S
H3363 C3350 0.962 . S
H3364 C3350 0.960 . S
H3365 C3351 0.961 . S
H3366 C3351 0.961 . S
H3367 C3351 0.961 . S
H3368 C3352 0.931 . S
H3369 C3357 0.930 . S
H3370 C3358 0.956 . S
H3371 C3358 0.961 . S
H3372 C3358 0.961 . S
H3373 C3359 0.958 . S
H3374 C3359 0.961 . S
H3375 C3359 0.960 . S
C3376 C3377 1.391 . S
C3376 C3378 1.394 . S
C3376 H3392 0.931 . S
C3377 C3376 1.391 . S
C3377 C3381 1.376 . S
C3378 C3376 1.394 . S
C3378 C3379 1.369 . S
C3378 C3382 1.531 . S
C3379 C3378 1.369 . S
C3379 C3380 1.410 . S
C3379 C3387 1.503 . S
C3380 C3379 1.410 . S
C3380 C3381 1.392 . S
C3380 C3383 1.511 . S
C3381 C3377 1.376 . S
C3381 C3380 1.392 . S
C3381 H3393 0.929 . S
C3382 C3378 1.531 . S
C3382 H3394 0.960 . S
C3382 H3395 0.962 . S
C3382 H3396 0.960 . S
C3383 C3380 1.511 . S
C3383 H3397 0.961 . S
C3383 H3398 0.961 . S
C3383 H3399 0.961 . S
C3384 C3385 1.370 . S
C3384 C3386 1.363 . S
C3384 H3400 0.931 . S
C3385 C3384 1.370 . S
C3385 C3389 1.408 . S
C3386 C3384 1.363 . S
C3386 C3387 1.370 . S
C3386 C3390 1.524 . S
C3387 C3379 1.503 . S
C3387 C3386 1.370 . S
C3387 C3388 1.403 . S
C3388 C3387 1.403 . S
C3388 C3389 1.404 . S
C3388 C3391 1.539 . S
C3389 C3385 1.408 . S
C3389 C3388 1.404 . S
C3389 H3401 0.930 . S
C3390 C3386 1.524 . S
C3390 H3402 0.956 . S
C3390 H3403 0.961 . S
C3390 H3404 0.961 . S
C3391 C3388 1.539 . S
C3391 H3405 0.958 . S
C3391 H3406 0.961 . S
C3391 H3407 0.960 . S
H3392 C3376 0.931 . S
H3393 C3381 0.929 . S
H3394 C3382 0.960 . S
H3395 C3382 0.962 . S
H3396 C3382 0.960 . S
H3397 C3383 0.961 . S
H3398 C3383 0.961 . S
H3399 C3383 0.961 . S
H3400 C3384 0.931 . S
H3401 C3389 0.930 . S
H3402 C3390 0.956 . S
H3403 C3390 0.961 . S
H3404 C3390 0.961 . S
H3405 C3391 0.958 . S
H3406 C3391 0.961 . S
H3407 C3391 0.960 . S
C3408 C3409 1.391 . S
C3408 C3410 1.394 . S
C3408 H3424 0.931 . S
C3409 C3408 1.391 . S
C3409 C3413 1.376 . S
C3410 C3408 1.394 . S
C3410 C3411 1.369 . S
C3410 C3414 1.531 . S
C3411 C3410 1.369 . S
C3411 C3412 1.410 . S
C3411 C3419 1.503 . S
C3412 C3411 1.410 . S
C3412 C3413 1.392 . S
C3412 C3415 1.511 . S
C3413 C3409 1.376 . S
C3413 C3412 1.392 . S
C3413 H3425 0.929 . S
C3414 C3410 1.531 . S
C3414 H3426 0.960 . S
C3414 H3427 0.962 . S
C3414 H3428 0.960 . S
C3415 C3412 1.511 . S
C3415 H3429 0.961 . S
C3415 H3430 0.961 . S
C3415 H3431 0.961 . S
C3416 C3417 1.370 . S
C3416 C3418 1.363 . S
C3416 H3432 0.931 . S
C3417 C3416 1.370 . S
C3417 C3421 1.408 . S
C3418 C3416 1.363 . S
C3418 C3419 1.370 . S
C3418 C3422 1.524 . S
C3419 C3411 1.503 . S
C3419 C3418 1.370 . S
C3419 C3420 1.403 . S
C3420 C3419 1.403 . S
C3420 C3421 1.404 . S
C3420 C3423 1.539 . S
C3421 C3417 1.408 . S
C3421 C3420 1.404 . S
C3421 H3433 0.930 . S
C3422 C3418 1.524 . S
C3422 H3434 0.956 . S
C3422 H3435 0.961 . S
C3422 H3436 0.961 . S
C3423 C3420 1.539 . S
C3423 H3437 0.958 . S
C3423 H3438 0.961 . S
C3423 H3439 0.960 . S
H3424 C3408 0.931 . S
H3425 C3413 0.929 . S
H3426 C3414 0.960 . S
H3427 C3414 0.962 . S
H3428 C3414 0.960 . S
H3429 C3415 0.961 . S
H3430 C3415 0.961 . S
H3431 C3415 0.961 . S
H3432 C3416 0.931 . S
H3433 C3421 0.930 . S
H3434 C3422 0.956 . S
H3435 C3422 0.961 . S
H3436 C3422 0.961 . S
H3437 C3423 0.958 . S
H3438 C3423 0.961 . S
H3439 C3423 0.960 . S
C3440 C3441 1.391 . S
C3440 C3442 1.394 . S
C3440 H3456 0.931 . S
C3441 C3440 1.391 . S
C3441 C3445 1.376 . S
C3442 C3440 1.394 . S
C3442 C3443 1.369 . S
C3442 C3446 1.531 . S
C3443 C3442 1.369 . S
C3443 C3444 1.410 . S
C3443 C3451 1.503 . S
C3444 C3443 1.410 . S
C3444 C3445 1.392 . S
C3444 C3447 1.511 . S
C3445 C3441 1.376 . S
C3445 C3444 1.392 . S
C3445 H3457 0.929 . S
C3446 C3442 1.531 . S
C3446 H3458 0.960 . S
C3446 H3459 0.962 . S
C3446 H3460 0.960 . S
C3447 C3444 1.511 . S
C3447 H3461 0.961 . S
C3447 H3462 0.961 . S
C3447 H3463 0.961 . S
C3448 C3449 1.370 . S
C3448 C3450 1.363 . S
C3448 H3464 0.931 . S
C3449 C3448 1.370 . S
C3449 C3453 1.408 . S
C3450 C3448 1.363 . S
C3450 C3451 1.370 . S
C3450 C3454 1.524 . S
C3451 C3443 1.503 . S
C3451 C3450 1.370 . S
C3451 C3452 1.403 . S
C3452 C3451 1.403 . S
C3452 C3453 1.404 . S
C3452 C3455 1.539 . S
C3453 C3449 1.408 . S
C3453 C3452 1.404 . S
C3453 H3465 0.930 . S
C3454 C3450 1.524 . S
C3454 H3466 0.956 . S
C3454 H3467 0.961 . S
C3454 H3468 0.961 . S
C3455 C3452 1.539 . S
C3455 H3469 0.958 . S
C3455 H3470 0.961 . S
C3455 H3471 0.960 . S
H3456 C3440 0.931 . S
H3457 C3445 0.929 . S
H3458 C3446 0.960 . S
H3459 C3446 0.962 . S
H3460 C3446 0.960 . S
H3461 C3447 0.961 . S
H3462 C3447 0.961 . S
H3463 C3447 0.961 . S
H3464 C3448 0.931 . S
H3465 C3453 0.930 . S
H3466 C3454 0.956 . S
H3467 C3454 0.961 . S
H3468 C3454 0.961 . S
H3469 C3455 0.958 . S
H3470 C3455 0.961 . S
H3471 C3455 0.960 . S
C3472 C3473 1.391 . S
C3472 C3474 1.394 . S
C3472 H3488 0.931 . S
C3473 C3472 1.391 . S
C3473 C3477 1.376 . S
C3474 C3472 1.394 . S
C3474 C3475 1.369 . S
C3474 C3478 1.531 . S
C3475 C3474 1.369 . S
C3475 C3476 1.410 . S
C3475 C3483 1.503 . S
C3476 C3475 1.410 . S
C3476 C3477 1.392 . S
C3476 C3479 1.511 . S
C3477 C3473 1.376 . S
C3477 C3476 1.392 . S
C3477 H3489 0.929 . S
C3478 C3474 1.531 . S
C3478 H3490 0.960 . S
C3478 H3491 0.962 . S
C3478 H3492 0.960 . S
C3479 C3476 1.511 . S
C3479 H3493 0.961 . S
C3479 H3494 0.961 . S
C3479 H3495 0.961 . S
C3480 C3481 1.370 . S
C3480 C3482 1.363 . S
C3480 H3496 0.931 . S
C3481 C3480 1.370 . S
C3481 C3485 1.408 . S
C3482 C3480 1.363 . S
C3482 C3483 1.370 . S
C3482 C3486 1.524 . S
C3483 C3475 1.503 . S
C3483 C3482 1.370 . S
C3483 C3484 1.403 . S
C3484 C3483 1.403 . S
C3484 C3485 1.404 . S
C3484 C3487 1.539 . S
C3485 C3481 1.408 . S
C3485 C3484 1.404 . S
C3485 H3497 0.930 . S
C3486 C3482 1.524 . S
C3486 H3498 0.956 . S
C3486 H3499 0.961 . S
C3486 H3500 0.961 . S
C3487 C3484 1.539 . S
C3487 H3501 0.958 . S
C3487 H3502 0.961 . S
C3487 H3503 0.960 . S
H3488 C3472 0.931 . S
H3489 C3477 0.929 . S
H3490 C3478 0.960 . S
H3491 C3478 0.962 . S
H3492 C3478 0.960 . S
H3493 C3479 0.961 . S
H3494 C3479 0.961 . S
H3495 C3479 0.961 . S
H3496 C3480 0.931 . S
H3497 C3485 0.930 . S
H3498 C3486 0.956 . S
H3499 C3486 0.961 . S
H3500 C3486 0.961 . S
H3501 C3487 0.958 . S
H3502 C3487 0.961 . S
H3503 C3487 0.960 . S
C3504 C3505 1.391 . S
C3504 C3506 1.394 . S
C3504 H3520 0.931 . S
C3505 C3504 1.391 . S
C3505 C3509 1.376 . S
C3506 C3504 1.394 . S
C3506 C3507 1.369 . S
C3506 C3510 1.531 . S
C3507 C3506 1.369 . S
C3507 C3508 1.410 . S
C3507 C3515 1.503 . S
C3508 C3507 1.410 . S
C3508 C3509 1.392 . S
C3508 C3511 1.511 . S
C3509 C3505 1.376 . S
C3509 C3508 1.392 . S
C3509 H3521 0.929 . S
C3510 C3506 1.531 . S
C3510 H3522 0.960 . S
C3510 H3523 0.962 . S
C3510 H3524 0.960 . S
C3511 C3508 1.511 . S
C3511 H3525 0.961 . S
C3511 H3526 0.961 . S
C3511 H3527 0.961 . S
C3512 C3513 1.370 . S
C3512 C3514 1.363 . S
C3512 H3528 0.931 . S
C3513 C3512 1.370 . S
C3513 C3517 1.408 . S
C3514 C3512 1.363 . S
C3514 C3515 1.370 . S
C3514 C3518 1.524 . S
C3515 C3507 1.503 . S
C3515 C3514 1.370 . S
C3515 C3516 1.403 . S
C3516 C3515 1.403 . S
C3516 C3517 1.404 . S
C3516 C3519 1.539 . S
C3517 C3513 1.408 . S
C3517 C3516 1.404 . S
C3517 H3529 0.930 . S
C3518 C3514 1.524 . S
C3518 H3530 0.956 . S
C3518 H3531 0.961 . S
C3518 H3532 0.961 . S
C3519 C3516 1.539 . S
C3519 H3533 0.958 . S
C3519 H3534 0.961 . S
C3519 H3535 0.960 . S
H3520 C3504 0.931 . S
H3521 C3509 0.929 . S
H3522 C3510 0.960 . S
H3523 C3510 0.962 . S
H3524 C3510 0.960 . S
H3525 C3511 0.961 . S
H3526 C3511 0.961 . S
H3527 C3511 0.961 . S
H3528 C3512 0.931 . S
H3529 C3517 0.930 . S
H3530 C3518 0.956 . S
H3531 C3518 0.961 . S
H3532 C3518 0.961 . S
H3533 C3519 0.958 . S
H3534 C3519 0.961 . S
H3535 C3519 0.960 . S
C3536 C3537 1.391 . S
C3536 C3538 1.394 . S
C3536 H3552 0.931 . S
C3537 C3536 1.391 . S
C3537 C3541 1.376 . S
C3538 C3536 1.394 . S
C3538 C3539 1.369 . S
C3538 C3542 1.531 . S
C3539 C3538 1.369 . S
C3539 C3540 1.410 . S
C3539 C3547 1.503 . S
C3540 C3539 1.410 . S
C3540 C3541 1.392 . S
C3540 C3543 1.511 . S
C3541 C3537 1.376 . S
C3541 C3540 1.392 . S
C3541 H3553 0.929 . S
C3542 C3538 1.531 . S
C3542 H3554 0.960 . S
C3542 H3555 0.962 . S
C3542 H3556 0.960 . S
C3543 C3540 1.511 . S
C3543 H3557 0.961 . S
C3543 H3558 0.961 . S
C3543 H3559 0.961 . S
C3544 C3545 1.370 . S
C3544 C3546 1.363 . S
C3544 H3560 0.931 . S
C3545 C3544 1.370 . S
C3545 C3549 1.408 . S
C3546 C3544 1.363 . S
C3546 C3547 1.370 . S
C3546 C3550 1.524 . S
C3547 C3539 1.503 . S
C3547 C3546 1.370 . S
C3547 C3548 1.403 . S
C3548 C3547 1.403 . S
C3548 C3549 1.404 . S
C3548 C3551 1.539 . S
C3549 C3545 1.408 . S
C3549 C3548 1.404 . S
C3549 H3561 0.930 . S
C3550 C3546 1.524 . S
C3550 H3562 0.956 . S
C3550 H3563 0.961 . S
C3550 H3564 0.961 . S
C3551 C3548 1.539 . S
C3551 H3565 0.958 . S
C3551 H3566 0.961 . S
C3551 H3567 0.960 . S
H3552 C3536 0.931 . S
H3553 C3541 0.929 . S
H3554 C3542 0.960 . S
H3555 C3542 0.962 . S
H3556 C3542 0.960 . S
H3557 C3543 0.961 . S
H3558 C3543 0.961 . S
H3559 C3543 0.961 . S
H3560 C3544 0.931 . S
H3561 C3549 0.930 . S
H3562 C3550 0.956 . S
H3563 C3550 0.961 . S
H3564 C3550 0.961 . S
H3565 C3551 0.958 . S
H3566 C3551 0.961 . S
H3567 C3551 0.960 . S
C3568 C3569 1.391 . S
C3568 C3570 1.394 . S
C3568 H3584 0.931 . S
C3569 C3568 1.391 . S
C3569 C3573 1.376 . S
C3570 C3568 1.394 . S
C3570 C3571 1.369 . S
C3570 C3574 1.531 . S
C3571 C3570 1.369 . S
C3571 C3572 1.410 . S
C3571 C3579 1.503 . S
C3572 C3571 1.410 . S
C3572 C3573 1.392 . S
C3572 C3575 1.511 . S
C3573 C3569 1.376 . S
C3573 C3572 1.392 . S
C3573 H3585 0.929 . S
C3574 C3570 1.531 . S
C3574 H3586 0.960 . S
C3574 H3587 0.962 . S
C3574 H3588 0.960 . S
C3575 C3572 1.511 . S
C3575 H3589 0.961 . S
C3575 H3590 0.961 . S
C3575 H3591 0.961 . S
C3576 C3577 1.370 . S
C3576 C3578 1.363 . S
C3576 H3592 0.931 . S
C3577 C3576 1.370 . S
C3577 C3581 1.408 . S
C3578 C3576 1.363 . S
C3578 C3579 1.370 . S
C3578 C3582 1.524 . S
C3579 C3571 1.503 . S
C3579 C3578 1.370 . S
C3579 C3580 1.403 . S
C3580 C3579 1.403 . S
C3580 C3581 1.404 . S
C3580 C3583 1.539 . S
C3581 C3577 1.408 . S
C3581 C3580 1.404 . S
C3581 H3593 0.930 . S
C3582 C3578 1.524 . S
C3582 H3594 0.956 . S
C3582 H3595 0.961 . S
C3582 H3596 0.961 . S
C3583 C3580 1.539 . S
C3583 H3597 0.958 . S
C3583 H3598 0.961 . S
C3583 H3599 0.960 . S
H3584 C3568 0.931 . S
H3585 C3573 0.929 . S
H3586 C3574 0.960 . S
H3587 C3574 0.962 . S
H3588 C3574 0.960 . S
H3589 C3575 0.961 . S
H3590 C3575 0.961 . S
H3591 C3575 0.961 . S
H3592 C3576 0.931 . S
H3593 C3581 0.930 . S
H3594 C3582 0.956 . S
H3595 C3582 0.961 . S
H3596 C3582 0.961 . S
H3597 C3583 0.958 . S
H3598 C3583 0.961 . S
H3599 C3583 0.960 . S
C3600 C3601 1.391 . S
C3600 C3602 1.394 . S
C3600 H3616 0.931 . S
C3601 C3600 1.391 . S
C3601 C3605 1.376 . S
C3602 C3600 1.394 . S
C3602 C3603 1.369 . S
C3602 C3606 1.531 . S
C3603 C3602 1.369 . S
C3603 C3604 1.410 . S
C3603 C3611 1.503 . S
C3604 C3603 1.410 . S
C3604 C3605 1.392 . S
C3604 C3607 1.511 . S
C3605 C3601 1.376 . S
C3605 C3604 1.392 . S
C3605 H3617 0.929 . S
C3606 C3602 1.531 . S
C3606 H3618 0.960 . S
C3606 H3619 0.962 . S
C3606 H3620 0.960 . S
C3607 C3604 1.511 . S
C3607 H3621 0.961 . S
C3607 H3622 0.961 . S
C3607 H3623 0.961 . S
C3608 C3609 1.370 . S
C3608 C3610 1.363 . S
C3608 H3624 0.931 . S
C3609 C3608 1.370 . S
C3609 C3613 1.408 . S
C3610 C3608 1.363 . S
C3610 C3611 1.370 . S
C3610 C3614 1.524 . S
C3611 C3603 1.503 . S
C3611 C3610 1.370 . S
C3611 C3612 1.403 . S
C3612 C3611 1.403 . S
C3612 C3613 1.404 . S
C3612 C3615 1.539 . S
C3613 C3609 1.408 . S
C3613 C3612 1.404 . S
C3613 H3625 0.930 . S
C3614 C3610 1.524 . S
C3614 H3626 0.956 . S
C3614 H3627 0.961 . S
C3614 H3628 0.961 . S
C3615 C3612 1.539 . S
C3615 H3629 0.958 . S
C3615 H3630 0.961 . S
C3615 H3631 0.960 . S
H3616 C3600 0.931 . S
H3617 C3605 0.929 . S
H3618 C3606 0.960 . S
H3619 C3606 0.962 . S
H3620 C3606 0.960 . S
H3621 C3607 0.961 . S
H3622 C3607 0.961 . S
H3623 C3607 0.961 . S
H3624 C3608 0.931 . S
H3625 C3613 0.930 . S
H3626 C3614 0.956 . S
H3627 C3614 0.961 . S
H3628 C3614 0.961 . S
H3629 C3615 0.958 . S
H3630 C3615 0.961 . S
H3631 C3615 0.960 . S
C3632 C3633 1.391 . S
C3632 C3634 1.394 . S
C3632 H3648 0.931 . S
C3633 C3632 1.391 . S
C3633 C3637 1.376 . S
C3634 C3632 1.394 . S
C3634 C3635 1.369 . S
C3634 C3638 1.531 . S
C3635 C3634 1.369 . S
C3635 C3636 1.410 . S
C3635 C3643 1.503 . S
C3636 C3635 1.410 . S
C3636 C3637 1.392 . S
C3636 C3639 1.511 . S
C3637 C3633 1.376 . S
C3637 C3636 1.392 . S
C3637 H3649 0.929 . S
C3638 C3634 1.531 . S
C3638 H3650 0.960 . S
C3638 H3651 0.962 . S
C3638 H3652 0.960 . S
C3639 C3636 1.511 . S
C3639 H3653 0.961 . S
C3639 H3654 0.961 . S
C3639 H3655 0.961 . S
C3640 C3641 1.370 . S
C3640 C3642 1.363 . S
C3640 H3656 0.931 . S
C3641 C3640 1.370 . S
C3641 C3645 1.408 . S
C3642 C3640 1.363 . S
C3642 C3643 1.370 . S
C3642 C3646 1.524 . S
C3643 C3635 1.503 . S
C3643 C3642 1.370 . S
C3643 C3644 1.403 . S
C3644 C3643 1.403 . S
C3644 C3645 1.404 . S
C3644 C3647 1.539 . S
C3645 C3641 1.408 . S
C3645 C3644 1.404 . S
C3645 H3657 0.930 . S
C3646 C3642 1.524 . S
C3646 H3658 0.956 . S
C3646 H3659 0.961 . S
C3646 H3660 0.961 . S
C3647 C3644 1.539 . S
C3647 H3661 0.958 . S
C3647 H3662 0.961 . S
C3647 H3663 0.960 . S
H3648 C3632 0.931 . S
H3649 C3637 0.929 . S
H3650 C3638 0.960 . S
H3651 C3638 0.962 . S
H3652 C3638 0.960 . S
H3653 C3639 0.961 . S
H3654 C3639 0.961 . S
H3655 C3639 0.961 . S
H3656 C3640 0.931 . S
H3657 C3645 0.930 . S
H3658 C3646 0.956 . S
H3659 C3646 0.961 . S
H3660 C3646 0.961 . S
H3661 C3647 0.958 . S
H3662 C3647 0.961 . S
H3663 C3647 0.960 . S
C3664 C3665 1.391 . S
C3664 C3666 1.394 . S
C3664 H3680 0.931 . S
C3665 C3664 1.391 . S
C3665 C3669 1.376 . S
C3666 C3664 1.394 . S
C3666 C3667 1.369 . S
C3666 C3670 1.531 . S
C3667 C3666 1.369 . S
C3667 C3668 1.410 . S
C3667 C3675 1.503 . S
C3668 C3667 1.410 . S
C3668 C3669 1.392 . S
C3668 C3671 1.511 . S
C3669 C3665 1.376 . S
C3669 C3668 1.392 . S
C3669 H3681 0.929 . S
C3670 C3666 1.531 . S
C3670 H3682 0.960 . S
C3670 H3683 0.962 . S
C3670 H3684 0.960 . S
C3671 C3668 1.511 . S
C3671 H3685 0.961 . S
C3671 H3686 0.961 . S
C3671 H3687 0.961 . S
C3672 C3673 1.370 . S
C3672 C3674 1.363 . S
C3672 H3688 0.931 . S
C3673 C3672 1.370 . S
C3673 C3677 1.408 . S
C3674 C3672 1.363 . S
C3674 C3675 1.370 . S
C3674 C3678 1.524 . S
C3675 C3667 1.503 . S
C3675 C3674 1.370 . S
C3675 C3676 1.403 . S
C3676 C3675 1.403 . S
C3676 C3677 1.404 . S
C3676 C3679 1.539 . S
C3677 C3673 1.408 . S
C3677 C3676 1.404 . S
C3677 H3689 0.930 . S
C3678 C3674 1.524 . S
C3678 H3690 0.956 . S
C3678 H3691 0.961 . S
C3678 H3692 0.961 . S
C3679 C3676 1.539 . S
C3679 H3693 0.958 . S
C3679 H3694 0.961 . S
C3679 H3695 0.960 . S
H3680 C3664 0.931 . S
H3681 C3669 0.929 . S
H3682 C3670 0.960 . S
H3683 C3670 0.962 . S
H3684 C3670 0.960 . S
H3685 C3671 0.961 . S
H3686 C3671 0.961 . S
H3687 C3671 0.961 . S
H3688 C3672 0.931 . S
H3689 C3677 0.930 . S
H3690 C3678 0.956 . S
H3691 C3678 0.961 . S
H3692 C3678 0.961 . S
H3693 C3679 0.958 . S
H3694 C3679 0.961 . S
H3695 C3679 0.960 . S
C3696 C3697 1.391 . S
C3696 C3698 1.394 . S
C3696 H3712 0.931 . S
C3697 C3696 1.391 . S
C3697 C3701 1.376 . S
C3698 C3696 1.394 . S
C3698 C3699 1.369 . S
C3698 C3702 1.531 . S
C3699 C3698 1.369 . S
C3699 C3700 1.410 . S
C3699 C3707 1.503 . S
C3700 C3699 1.410 . S
C3700 C3701 1.392 . S
C3700 C3703 1.511 . S
C3701 C3697 1.376 . S
C3701 C3700 1.392 . S
C3701 H3713 0.929 . S
C3702 C3698 1.531 . S
C3702 H3714 0.960 . S
C3702 H3715 0.962 . S
C3702 H3716 0.960 . S
C3703 C3700 1.511 . S
C3703 H3717 0.961 . S
C3703 H3718 0.961 . S
C3703 H3719 0.961 . S
C3704 C3705 1.370 . S
C3704 C3706 1.363 . S
C3704 H3720 0.931 . S
C3705 C3704 1.370 . S
C3705 C3709 1.408 . S
C3706 C3704 1.363 . S
C3706 C3707 1.370 . S
C3706 C3710 1.524 . S
C3707 C3699 1.503 . S
C3707 C3706 1.370 . S
C3707 C3708 1.403 . S
C3708 C3707 1.403 . S
C3708 C3709 1.404 . S
C3708 C3711 1.539 . S
C3709 C3705 1.408 . S
C3709 C3708 1.404 . S
C3709 H3721 0.930 . S
C3710 C3706 1.524 . S
C3710 H3722 0.956 . S
C3710 H3723 0.961 . S
C3710 H3724 0.961 . S
C3711 C3708 1.539 . S
C3711 H3725 0.958 . S
C3711 H3726 0.961 . S
C3711 H3727 0.960 . S
H3712 C3696 0.931 . S
H3713 C3701 0.929 . S
H3714 C3702 0.960 . S
H3715 C3702 0.962 . S
H3716 C3702 0.960 . S
H3717 C3703 0.961 . S
H3718 C3703 0.961 . S
H3719 C3703 0.961 . S
H3720 C3704 0.931 . S
H3721 C3709 0.930 . S
H3722 C3710 0.956 . S
H3723 C3710 0.961 . S
H3724 C3710 0.961 . S
H3725 C3711 0.958 . S
H3726 C3711 0.961 . S
H3727 C3711 0.960 . S
C3728 C3729 1.391 . S
C3728 C3730 1.394 . S
C3728 H3744 0.931 . S
C3729 C3728 1.391 . S
C3729 C3733 1.376 . S
C3730 C3728 1.394 . S
C3730 C3731 1.369 . S
C3730 C3734 1.531 . S
C3731 C3730 1.369 . S
C3731 C3732 1.410 . S
C3731 C3739 1.503 . S
C3732 C3731 1.410 . S
C3732 C3733 1.392 . S
C3732 C3735 1.511 . S
C3733 C3729 1.376 . S
C3733 C3732 1.392 . S
C3733 H3745 0.929 . S
C3734 C3730 1.531 . S
C3734 H3746 0.960 . S
C3734 H3747 0.962 . S
C3734 H3748 0.960 . S
C3735 C3732 1.511 . S
C3735 H3749 0.961 . S
C3735 H3750 0.961 . S
C3735 H3751 0.961 . S
C3736 C3737 1.370 . S
C3736 C3738 1.363 . S
C3736 H3752 0.931 . S
C3737 C3736 1.370 . S
C3737 C3741 1.408 . S
C3738 C3736 1.363 . S
C3738 C3739 1.370 . S
C3738 C3742 1.524 . S
C3739 C3731 1.503 . S
C3739 C3738 1.370 . S
C3739 C3740 1.403 . S
C3740 C3739 1.403 . S
C3740 C3741 1.404 . S
C3740 C3743 1.539 . S
C3741 C3737 1.408 . S
C3741 C3740 1.404 . S
C3741 H3753 0.930 . S
C3742 C3738 1.524 . S
C3742 H3754 0.956 . S
C3742 H3755 0.961 . S
C3742 H3756 0.961 . S
C3743 C3740 1.539 . S
C3743 H3757 0.958 . S
C3743 H3758 0.961 . S
C3743 H3759 0.960 . S
H3744 C3728 0.931 . S
H3745 C3733 0.929 . S
H3746 C3734 0.960 . S
H3747 C3734 0.962 . S
H3748 C3734 0.960 . S
H3749 C3735 0.961 . S
H3750 C3735 0.961 . S
H3751 C3735 0.961 . S
H3752 C3736 0.931 . S
H3753 C3741 0.930 . S
H3754 C3742 0.956 . S
H3755 C3742 0.961 . S
H3756 C3742 0.961 . S
H3757 C3743 0.958 . S
H3758 C3743 0.961 . S
H3759 C3743 0.960 . S
C3760 C3761 1.391 . S
C3760 C3762 1.394 . S
C3760 H3776 0.931 . S
C3761 C3760 1.391 . S
C3761 C3765 1.376 . S
C3762 C3760 1.394 . S
C3762 C3763 1.369 . S
C3762 C3766 1.531 . S
C3763 C3762 1.369 . S
C3763 C3764 1.410 . S
C3763 C3771 1.503 . S
C3764 C3763 1.410 . S
C3764 C3765 1.392 . S
C3764 C3767 1.511 . S
C3765 C3761 1.376 . S
C3765 C3764 1.392 . S
C3765 H3777 0.929 . S
C3766 C3762 1.531 . S
C3766 H3778 0.960 . S
C3766 H3779 0.962 . S
C3766 H3780 0.960 . S
C3767 C3764 1.511 . S
C3767 H3781 0.961 . S
C3767 H3782 0.961 . S
C3767 H3783 0.961 . S
C3768 C3769 1.370 . S
C3768 C3770 1.363 . S
C3768 H3784 0.931 . S
C3769 C3768 1.370 . S
C3769 C3773 1.408 . S
C3770 C3768 1.363 . S
C3770 C3771 1.370 . S
C3770 C3774 1.524 . S
C3771 C3763 1.503 . S
C3771 C3770 1.370 . S
C3771 C3772 1.403 . S
C3772 C3771 1.403 . S
C3772 C3773 1.404 . S
C3772 C3775 1.539 . S
C3773 C3769 1.408 . S
C3773 C3772 1.404 . S
C3773 H3785 0.930 . S
C3774 C3770 1.524 . S
C3774 H3786 0.956 . S
C3774 H3787 0.961 . S
C3774 H3788 0.961 . S
C3775 C3772 1.539 . S
C3775 H3789 0.958 . S
C3775 H3790 0.961 . S
C3775 H3791 0.960 . S
H3776 C3760 0.931 . S
H3777 C3765 0.929 . S
H3778 C3766 0.960 . S
H3779 C3766 0.962 . S
H3780 C3766 0.960 . S
H3781 C3767 0.961 . S
H3782 C3767 0.961 . S
H3783 C3767 0.961 . S
H3784 C3768 0.931 . S
H3785 C3773 0.930 . S
H3786 C3774 0.956 . S
H3787 C3774 0.961 . S
H3788 C3774 0.961 . S
H3789 C3775 0.958 . S
H3790 C3775 0.961 . S
H3791 C3775 0.960 . S
C3792 C3793 1.391 . S
C3792 C3794 1.394 . S
C3792 H3808 0.931 . S
C3793 C3792 1.391 . S
C3793 C3797 1.376 . S
C3794 C3792 1.394 . S
C3794 C3795 1.369 . S
C3794 C3798 1.531 . S
C3795 C3794 1.369 . S
C3795 C3796 1.410 . S
C3795 C3803 1.503 . S
C3796 C3795 1.410 . S
C3796 C3797 1.392 . S
C3796 C3799 1.511 . S
C3797 C3793 1.376 . S
C3797 C3796 1.392 . S
C3797 H3809 0.929 . S
C3798 C3794 1.531 . S
C3798 H3810 0.960 . S
C3798 H3811 0.962 . S
C3798 H3812 0.960 . S
C3799 C3796 1.511 . S
C3799 H3813 0.961 . S
C3799 H3814 0.961 . S
C3799 H3815 0.961 . S
C3800 C3801 1.370 . S
C3800 C3802 1.363 . S
C3800 H3816 0.931 . S
C3801 C3800 1.370 . S
C3801 C3805 1.408 . S
C3802 C3800 1.363 . S
C3802 C3803 1.370 . S
C3802 C3806 1.524 . S
C3803 C3795 1.503 . S
C3803 C3802 1.370 . S
C3803 C3804 1.403 . S
C3804 C3803 1.403 . S
C3804 C3805 1.404 . S
C3804 C3807 1.539 . S
C3805 C3801 1.408 . S
C3805 C3804 1.404 . S
C3805 H3817 0.930 . S
C3806 C3802 1.524 . S
C3806 H3818 0.956 . S
C3806 H3819 0.961 . S
C3806 H3820 0.961 . S
C3807 C3804 1.539 . S
C3807 H3821 0.958 . S
C3807 H3822 0.961 . S
C3807 H3823 0.960 . S
H3808 C3792 0.931 . S
H3809 C3797 0.929 . S
H3810 C3798 0.960 . S
H3811 C3798 0.962 . S
H3812 C3798 0.960 . S
H3813 C3799 0.961 . S
H3814 C3799 0.961 . S
H3815 C3799 0.961 . S
H3816 C3800 0.931 . S
H3817 C3805 0.930 . S
H3818 C3806 0.956 . S
H3819 C3806 0.961 . S
H3820 C3806 0.961 . S
H3821 C3807 0.958 . S
H3822 C3807 0.961 . S
H3823 C3807 0.960 . S
C3824 C3825 1.391 . S
C3824 C3826 1.394 . S
C3824 H3840 0.931 . S
C3825 C3824 1.391 . S
C3825 C3829 1.376 . S
C3826 C3824 1.394 . S
C3826 C3827 1.369 . S
C3826 C3830 1.531 . S
C3827 C3826 1.369 . S
C3827 C3828 1.410 . S
C3827 C3835 1.503 . S
C3828 C3827 1.410 . S
C3828 C3829 1.392 . S
C3828 C3831 1.511 . S
C3829 C3825 1.376 . S
C3829 C3828 1.392 . S
C3829 H3841 0.929 . S
C3830 C3826 1.531 . S
C3830 H3842 0.960 . S
C3830 H3843 0.962 . S
C3830 H3844 0.960 . S
C3831 C3828 1.511 . S
C3831 H3845 0.961 . S
C3831 H3846 0.961 . S
C3831 H3847 0.961 . S
C3832 C3833 1.370 . S
C3832 C3834 1.363 . S
C3832 H3848 0.931 . S
C3833 C3832 1.370 . S
C3833 C3837 1.408 . S
C3834 C3832 1.363 . S
C3834 C3835 1.370 . S
C3834 C3838 1.524 . S
C3835 C3827 1.503 . S
C3835 C3834 1.370 . S
C3835 C3836 1.403 . S
C3836 C3835 1.403 . S
C3836 C3837 1.404 . S
C3836 C3839 1.539 . S
C3837 C3833 1.408 . S
C3837 C3836 1.404 . S
C3837 H3849 0.930 . S
C3838 C3834 1.524 . S
C3838 H3850 0.956 . S
C3838 H3851 0.961 . S
C3838 H3852 0.961 . S
C3839 C3836 1.539 . S
C3839 H3853 0.958 . S
C3839 H3854 0.961 . S
C3839 H3855 0.960 . S
H3840 C3824 0.931 . S
H3841 C3829 0.929 . S
H3842 C3830 0.960 . S
H3843 C3830 0.962 . S
H3844 C3830 0.960 . S
H3845 C3831 0.961 . S
H3846 C3831 0.961 . S
H3847 C3831 0.961 . S
H3848 C3832 0.931 . S
H3849 C3837 0.930 . S
H3850 C3838 0.956 . S
H3851 C3838 0.961 . S
H3852 C3838 0.961 . S
H3853 C3839 0.958 . S
H3854 C3839 0.961 . S
H3855 C3839 0.960 . S
C3856 C3857 1.391 . S
C3856 C3858 1.394 . S
C3856 H3872 0.931 . S
C3857 C3856 1.391 . S
C3857 C3861 1.376 . S
C3858 C3856 1.394 . S
C3858 C3859 1.369 . S
C3858 C3862 1.531 . S
C3859 C3858 1.369 . S
C3859 C3860 1.410 . S
C3859 C3867 1.503 . S
C3860 C3859 1.410 . S
C3860 C3861 1.392 . S
C3860 C3863 1.511 . S
C3861 C3857 1.376 . S
C3861 C3860 1.392 . S
C3861 H3873 0.929 . S
C3862 C3858 1.531 . S
C3862 H3874 0.960 . S
C3862 H3875 0.962 . S
C3862 H3876 0.960 . S
C3863 C3860 1.511 . S
C3863 H3877 0.961 . S
C3863 H3878 0.961 . S
C3863 H3879 0.961 . S
C3864 C3865 1.370 . S
C3864 C3866 1.363 . S
C3864 H3880 0.931 . S
C3865 C3864 1.370 . S
C3865 C3869 1.408 . S
C3866 C3864 1.363 . S
C3866 C3867 1.370 . S
C3866 C3870 1.524 . S
C3867 C3859 1.503 . S
C3867 C3866 1.370 . S
C3867 C3868 1.403 . S
C3868 C3867 1.403 . S
C3868 C3869 1.404 . S
C3868 C3871 1.539 . S
C3869 C3865 1.408 . S
C3869 C3868 1.404 . S
C3869 H3881 0.930 . S
C3870 C3866 1.524 . S
C3870 H3882 0.956 . S
C3870 H3883 0.961 . S
C3870 H3884 0.961 . S
C3871 C3868 1.539 . S
C3871 H3885 0.958 . S
C3871 H3886 0.961 . S
C3871 H3887 0.960 . S
H3872 C3856 0.931 . S
H3873 C3861 0.929 . S
H3874 C3862 0.960 . S
H3875 C3862 0.962 . S
H3876 C3862 0.960 . S
H3877 C3863 0.961 . S
H3878 C3863 0.961 . S
H3879 C3863 0.961 . S
H3880 C3864 0.931 . S
H3881 C3869 0.930 . S
H3882 C3870 0.956 . S
H3883 C3870 0.961 . S
H3884 C3870 0.961 . S
H3885 C3871 0.958 . S
H3886 C3871 0.961 . S
H3887 C3871 0.960 . S
C3888 C3889 1.391 . S
C3888 C3890 1.394 . S
C3888 H3904 0.931 . S
C3889 C3888 1.391 . S
C3889 C3893 1.376 . S
C3890 C3888 1.394 . S
C3890 C3891 1.369 . S
C3890 C3894 1.531 . S
C3891 C3890 1.369 . S
C3891 C3892 1.410 . S
C3891 C3899 1.503 . S
C3892 C3891 1.410 . S
C3892 C3893 1.392 . S
C3892 C3895 1.511 . S
C3893 C3889 1.376 . S
C3893 C3892 1.392 . S
C3893 H3905 0.929 . S
C3894 C3890 1.531 . S
C3894 H3906 0.960 . S
C3894 H3907 0.962 . S
C3894 H3908 0.960 . S
C3895 C3892 1.511 . S
C3895 H3909 0.961 . S
C3895 H3910 0.961 . S
C3895 H3911 0.961 . S
C3896 C3897 1.370 . S
C3896 C3898 1.363 . S
C3896 H3912 0.931 . S
C3897 C3896 1.370 . S
C3897 C3901 1.408 . S
C3898 C3896 1.363 . S
C3898 C3899 1.370 . S
C3898 C3902 1.524 . S
C3899 C3891 1.503 . S
C3899 C3898 1.370 . S
C3899 C3900 1.403 . S
C3900 C3899 1.403 . S
C3900 C3901 1.404 . S
C3900 C3903 1.539 . S
C3901 C3897 1.408 . S
C3901 C3900 1.404 . S
C3901 H3913 0.930 . S
C3902 C3898 1.524 . S
C3902 H3914 0.956 . S
C3902 H3915 0.961 . S
C3902 H3916 0.961 . S
C3903 C3900 1.539 . S
C3903 H3917 0.958 . S
C3903 H3918 0.961 . S
C3903 H3919 0.960 . S
H3904 C3888 0.931 . S
H3905 C3893 0.929 . S
H3906 C3894 0.960 . S
H3907 C3894 0.962 . S
H3908 C3894 0.960 . S
H3909 C3895 0.961 . S
H3910 C3895 0.961 . S
H3911 C3895 0.961 . S
H3912 C3896 0.931 . S
H3913 C3901 0.930 . S
H3914 C3902 0.956 . S
H3915 C3902 0.961 . S
H3916 C3902 0.961 . S
H3917 C3903 0.958 . S
H3918 C3903 0.961 . S
H3919 C3903 0.960 . S
C3920 C3921 1.391 . S
C3920 C3922 1.394 . S
C3920 H3936 0.931 . S
C3921 C3920 1.391 . S
C3921 C3925 1.376 . S
C3922 C3920 1.394 . S
C3922 C3923 1.369 . S
C3922 C3926 1.531 . S
C3923 C3922 1.369 . S
C3923 C3924 1.410 . S
C3923 C3931 1.503 . S
C3924 C3923 1.410 . S
C3924 C3925 1.392 . S
C3924 C3927 1.511 . S
C3925 C3921 1.376 . S
C3925 C3924 1.392 . S
C3925 H3937 0.929 . S
C3926 C3922 1.531 . S
C3926 H3938 0.960 . S
C3926 H3939 0.962 . S
C3926 H3940 0.960 . S
C3927 C3924 1.511 . S
C3927 H3941 0.961 . S
C3927 H3942 0.961 . S
C3927 H3943 0.961 . S
C3928 C3929 1.370 . S
C3928 C3930 1.363 . S
C3928 H3944 0.931 . S
C3929 C3928 1.370 . S
C3929 C3933 1.408 . S
C3930 C3928 1.363 . S
C3930 C3931 1.370 . S
C3930 C3934 1.524 . S
C3931 C3923 1.503 . S
C3931 C3930 1.370 . S
C3931 C3932 1.403 . S
C3932 C3931 1.403 . S
C3932 C3933 1.404 . S
C3932 C3935 1.539 . S
C3933 C3929 1.408 . S
C3933 C3932 1.404 . S
C3933 H3945 0.930 . S
C3934 C3930 1.524 . S
C3934 H3946 0.956 . S
C3934 H3947 0.961 . S
C3934 H3948 0.961 . S
C3935 C3932 1.539 . S
C3935 H3949 0.958 . S
C3935 H3950 0.961 . S
C3935 H3951 0.960 . S
H3936 C3920 0.931 . S
H3937 C3925 0.929 . S
H3938 C3926 0.960 . S
H3939 C3926 0.962 . S
H3940 C3926 0.960 . S
H3941 C3927 0.961 . S
H3942 C3927 0.961 . S
H3943 C3927 0.961 . S
H3944 C3928 0.931 . S
H3945 C3933 0.930 . S
H3946 C3934 0.956 . S
H3947 C3934 0.961 . S
H3948 C3934 0.961 . S
H3949 C3935 0.958 . S
H3950 C3935 0.961 . S
H3951 C3935 0.960 . S
C3952 C3953 1.391 . S
C3952 C3954 1.394 . S
C3952 H3968 0.931 . S
C3953 C3952 1.391 . S
C3953 C3957 1.376 . S
C3954 C3952 1.394 . S
C3954 C3955 1.369 . S
C3954 C3958 1.531 . S
C3955 C3954 1.369 . S
C3955 C3956 1.410 . S
C3955 C3963 1.503 . S
C3956 C3955 1.410 . S
C3956 C3957 1.392 . S
C3956 C3959 1.511 . S
C3957 C3953 1.376 . S
C3957 C3956 1.392 . S
C3957 H3969 0.929 . S
C3958 C3954 1.531 . S
C3958 H3970 0.960 . S
C3958 H3971 0.962 . S
C3958 H3972 0.960 . S
C3959 C3956 1.511 . S
C3959 H3973 0.961 . S
C3959 H3974 0.961 . S
C3959 H3975 0.961 . S
C3960 C3961 1.370 . S
C3960 C3962 1.363 . S
C3960 H3976 0.931 . S
C3961 C3960 1.370 . S
C3961 C3965 1.408 . S
C3962 C3960 1.363 . S
C3962 C3963 1.370 . S
C3962 C3966 1.524 . S
C3963 C3955 1.503 . S
C3963 C3962 1.370 . S
C3963 C3964 1.403 . S
C3964 C3963 1.403 . S
C3964 C3965 1.404 . S
C3964 C3967 1.539 . S
C3965 C3961 1.408 . S
C3965 C3964 1.404 . S
C3965 H3977 0.930 . S
C3966 C3962 1.524 . S
C3966 H3978 0.956 . S
C3966 H3979 0.961 . S
C3966 H3980 0.961 . S
C3967 C3964 1.539 . S
C3967 H3981 0.958 . S
C3967 H3982 0.961 . S
C3967 H3983 0.960 . S
H3968 C3952 0.931 . S
H3969 C3957 0.929 . S
H3970 C3958 0.960 . S
H3971 C3958 0.962 . S
H3972 C3958 0.960 . S
H3973 C3959 0.961 . S
H3974 C3959 0.961 . S
H3975 C3959 0.961 . S
H3976 C3960 0.931 . S
H3977 C3965 0.930 . S
H3978 C3966 0.956 . S
H3979 C3966 0.961 . S
H3980 C3966 0.961 . S
H3981 C3967 0.958 . S
H3982 C3967 0.961 . S
H3983 C3967 0.960 . S
C3984 C3985 1.391 . S
C3984 C3986 1.394 . S
C3984 H4000 0.931 . S
C3985 C3984 1.391 . S
C3985 C3989 1.376 . S
C3986 C3984 1.394 . S
C3986 C3987 1.369 . S
C3986 C3990 1.531 . S
C3987 C3986 1.369 . S
C3987 C3988 1.410 . S
C3987 C3995 1.503 . S
C3988 C3987 1.410 . S
C3988 C3989 1.392 . S
C3988 C3991 1.511 . S
C3989 C3985 1.376 . S
C3989 C3988 1.392 . S
C3989 H4001 0.929 . S
C3990 C3986 1.531 . S
C3990 H4002 0.960 . S
C3990 H4003 0.962 . S
C3990 H4004 0.960 . S
C3991 C3988 1.511 . S
C3991 H4005 0.961 . S
C3991 H4006 0.961 . S
C3991 H4007 0.961 . S
C3992 C3993 1.370 . S
C3992 C3994 1.363 . S
C3992 H4008 0.931 . S
C3993 C3992 1.370 . S
C3993 C3997 1.408 . S
C3994 C3992 1.363 . S
C3994 C3995 1.370 . S
C3994 C3998 1.524 . S
C3995 C3987 1.503 . S
C3995 C3994 1.370 . S
C3995 C3996 1.403 . S
C3996 C3995 1.403 . S
C3996 C3997 1.404 . S
C3996 C3999 1.539 . S
C3997 C3993 1.408 . S
C3997 C3996 1.404 . S
C3997 H4009 0.930 . S
C3998 C3994 1.524 . S
C3998 H4010 0.956 . S
C3998 H4011 0.961 . S
C3998 H4012 0.961 . S
C3999 C3996 1.539 . S
C3999 H4013 0.958 . S
C3999 H4014 0.961 . S
C3999 H4015 0.960 . S
H4000 C3984 0.931 . S
H4001 C3989 0.929 . S
H4002 C3990 0.960 . S
H4003 C3990 0.962 . S
H4004 C3990 0.960 . S
H4005 C3991 0.961 . S
H4006 C3991 0.961 . S
H4007 C3991 0.961 . S
H4008 C3992 0.931 . S
H4009 C3997 0.930 . S
H4010 C3998 0.956 . S
H4011 C3998 0.961 . S
H4012 C3998 0.961 . S
H4013 C3999 0.958 . S
H4014 C3999 0.961 . S
H4015 C3999 0.960 . S
C4016 C4017 1.391 . S
C4016 C4018 1.394 . S
C4016 H4032 0.931 . S
C4017 C4016 1.391 . S
C4017 C4021 1.376 . S
C4018 C4016 1.394 . S
C4018 C4019 1.369 . S
C4018 C4022 1.531 . S
C4019 C4018 1.369 . S
C4019 C4020 1.410 . S
C4019 C4027 1.503 . S
C4020 C4019 1.410 . S
C4020 C4021 1.392 . S
C4020 C4023 1.511 . S
C4021 C4017 1.376 . S
C4021 C4020 1.392 . S
C4021 H4033 0.929 . S
C4022 C4018 1.531 . S
C4022 H4034 0.960 . S
C4022 H4035 0.962 . S
C4022 H4036 0.960 . S
C4023 C4020 1.511 . S
C4023 H4037 0.961 . S
C4023 H4038 0.961 . S
C4023 H4039 0.961 . S
C4024 C4025 1.370 . S
C4024 C4026 1.363 . S
C4024 H4040 0.931 . S
C4025 C4024 1.370 . S
C4025 C4029 1.408 . S
C4026 C4024 1.363 . S
C4026 C4027 1.370 . S
C4026 C4030 1.524 . S
C4027 C4019 1.503 . S
C4027 C4026 1.370 . S
C4027 C4028 1.403 . S
C4028 C4027 1.403 . S
C4028 C4029 1.404 . S
C4028 C4031 1.539 . S
C4029 C4025 1.408 . S
C4029 C4028 1.404 . S
C4029 H4041 0.930 . S
C4030 C4026 1.524 . S
C4030 H4042 0.956 . S
C4030 H4043 0.961 . S
C4030 H4044 0.961 . S
C4031 C4028 1.539 . S
C4031 H4045 0.958 . S
C4031 H4046 0.961 . S
C4031 H4047 0.960 . S
H4032 C4016 0.931 . S
H4033 C4021 0.929 . S
H4034 C4022 0.960 . S
H4035 C4022 0.962 . S
H4036 C4022 0.960 . S
H4037 C4023 0.961 . S
H4038 C4023 0.961 . S
H4039 C4023 0.961 . S
H4040 C4024 0.931 . S
H4041 C4029 0.930 . S
H4042 C4030 0.956 . S
H4043 C4030 0.961 . S
H4044 C4030 0.961 . S
H4045 C4031 0.958 . S
H4046 C4031 0.961 . S
H4047 C4031 0.960 . S
C4048 C4049 1.391 . S
C4048 C4050 1.394 . S
C4048 H4064 0.931 . S
C4049 C4048 1.391 . S
C4049 C4053 1.376 . S
C4050 C4048 1.394 . S
C4050 C4051 1.369 . S
C4050 C4054 1.531 . S
C4051 C4050 1.369 . S
C4051 C4052 1.410 . S
C4051 C4059 1.503 . S
C4052 C4051 1.410 . S
C4052 C4053 1.392 . S
C4052 C4055 1.511 . S
C4053 C4049 1.376 . S
C4053 C4052 1.392 . S
C4053 H4065 0.929 . S
C4054 C4050 1.531 . S
C4054 H4066 0.960 . S
C4054 H4067 0.962 . S
C4054 H4068 0.960 . S
C4055 C4052 1.511 . S
C4055 H4069 0.961 . S
C4055 H4070 0.961 . S
C4055 H4071 0.961 . S
C4056 C4057 1.370 . S
C4056 C4058 1.363 . S
C4056 H4072 0.931 . S
C4057 C4056 1.370 . S
C4057 C4061 1.408 . S
C4058 C4056 1.363 . S
C4058 C4059 1.370 . S
C4058 C4062 1.524 . S
C4059 C4051 1.503 . S
C4059 C4058 1.370 . S
C4059 C4060 1.403 . S
C4060 C4059 1.403 . S
C4060 C4061 1.404 . S
C4060 C4063 1.539 . S
C4061 C4057 1.408 . S
C4061 C4060 1.404 . S
C4061 H4073 0.930 . S
C4062 C4058 1.524 . S
C4062 H4074 0.956 . S
C4062 H4075 0.961 . S
C4062 H4076 0.961 . S
C4063 C4060 1.539 . S
C4063 H4077 0.958 . S
C4063 H4078 0.961 . S
C4063 H4079 0.960 . S
H4064 C4048 0.931 . S
H4065 C4053 0.929 . S
H4066 C4054 0.960 . S
H4067 C4054 0.962 . S
H4068 C4054 0.960 . S
H4069 C4055 0.961 . S
H4070 C4055 0.961 . S
H4071 C4055 0.961 . S
H4072 C4056 0.931 . S
H4073 C4061 0.930 . S
H4074 C4062 0.956 . S
H4075 C4062 0.961 . S
H4076 C4062 0.961 . S
H4077 C4063 0.958 . S
H4078 C4063 0.961 . S
H4079 C4063 0.960 . S
C4080 C4081 1.391 . S
C4080 C4082 1.394 . S
C4080 H4096 0.931 . S
C4081 C4080 1.391 . S
C4081 C4085 1.376 . S
C4082 C4080 1.394 . S
C4082 C4083 1.369 . S
C4082 C4086 1.531 . S
C4083 C4082 1.369 . S
C4083 C4084 1.410 . S
C4083 C4091 1.503 . S
C4084 C4083 1.410 . S
C4084 C4085 1.392 . S
C4084 C4087 1.511 . S
C4085 C4081 1.376 . S
C4085 C4084 1.392 . S
C4085 H4097 0.929 . S
C4086 C4082 1.531 . S
C4086 H4098 0.960 . S
C4086 H4099 0.962 . S
C4086 H4100 0.960 . S
C4087 C4084 1.511 . S
C4087 H4101 0.961 . S
C4087 H4102 0.961 . S
C4087 H4103 0.961 . S
C4088 C4089 1.370 . S
C4088 C4090 1.363 . S
C4088 H4104 0.931 . S
C4089 C4088 1.370 . S
C4089 C4093 1.408 . S
C4090 C4088 1.363 . S
C4090 C4091 1.370 . S
C4090 C4094 1.524 . S
C4091 C4083 1.503 . S
C4091 C4090 1.370 . S
C4091 C4092 1.403 . S
C4092 C4091 1.403 . S
C4092 C4093 1.404 . S
C4092 C4095 1.539 . S
C4093 C4089 1.408 . S
C4093 C4092 1.404 . S
C4093 H4105 0.930 . S
C4094 C4090 1.524 . S
C4094 H4106 0.956 . S
C4094 H4107 0.961 . S
C4094 H4108 0.961 . S
C4095 C4092 1.539 . S
C4095 H4109 0.958 . S
C4095 H4110 0.961 . S
C4095 H4111 0.960 . S
H4096 C4080 0.931 . S
H4097 C4085 0.929 . S
H4098 C4086 0.960 . S
H4099 C4086 0.962 . S
H4100 C4086 0.960 . S
H4101 C4087 0.961 . S
H4102 C4087 0.961 . S
H4103 C4087 0.961 . S
H4104 C4088 0.931 . S
H4105 C4093 0.930 . S
H4106 C4094 0.956 . S
H4107 C4094 0.961 . S
H4108 C4094 0.961 . S
H4109 C4095 0.958 . S
H4110 C4095 0.961 . S
H4111 C4095 0.960 . S
C4112 C4113 1.391 . S
C4112 C4114 1.394 . S
C4112 H4128 0.931 . S
C4113 C4112 1.391 . S
C4113 C4117 1.376 . S
C4114 C4112 1.394 . S
C4114 C4115 1.369 . S
C4114 C4118 1.531 . S
C4115 C4114 1.369 . S
C4115 C4116 1.410 . S
C4115 C4123 1.503 . S
C4116 C4115 1.410 . S
C4116 C4117 1.392 . S
C4116 C4119 1.511 . S
C4117 C4113 1.376 . S
C4117 C4116 1.392 . S
C4117 H4129 0.929 . S
C4118 C4114 1.531 . S
C4118 H4130 0.960 . S
C4118 H4131 0.962 . S
C4118 H4132 0.960 . S
C4119 C4116 1.511 . S
C4119 H4133 0.961 . S
C4119 H4134 0.961 . S
C4119 H4135 0.961 . S
C4120 C4121 1.370 . S
C4120 C4122 1.363 . S
C4120 H4136 0.931 . S
C4121 C4120 1.370 . S
C4121 C4125 1.408 . S
C4122 C4120 1.363 . S
C4122 C4123 1.370 . S
C4122 C4126 1.524 . S
C4123 C4115 1.503 . S
C4123 C4122 1.370 . S
C4123 C4124 1.403 . S
C4124 C4123 1.403 . S
C4124 C4125 1.404 . S
C4124 C4127 1.539 . S
C4125 C4121 1.408 . S
C4125 C4124 1.404 . S
C4125 H4137 0.930 . S
C4126 C4122 1.524 . S
C4126 H4138 0.956 . S
C4126 H4139 0.961 . S
C4126 H4140 0.961 . S
C4127 C4124 1.539 . S
C4127 H4141 0.958 . S
C4127 H4142 0.961 . S
C4127 H4143 0.960 . S
H4128 C4112 0.931 . S
H4129 C4117 0.929 . S
H4130 C4118 0.960 . S
H4131 C4118 0.962 . S
H4132 C4118 0.960 . S
H4133 C4119 0.961 . S
H4134 C4119 0.961 . S
H4135 C4119 0.961 . S
H4136 C4120 0.931 . S
H4137 C4125 0.930 . S
H4138 C4126 0.956 . S
H4139 C4126 0.961 . S
H4140 C4126 0.961 . S
H4141 C4127 0.958 . S
H4142 C4127 0.961 . S
H4143 C4127 0.960 . S
C4144 C4145 1.391 . S
C4144 C4146 1.394 . S
C4144 H4160 0.931 . S
C4145 C4144 1.391 . S
C4145 C4149 1.376 . S
C4146 C4144 1.394 . S
C4146 C4147 1.369 . S
C4146 C4150 1.531 . S
C4147 C4146 1.369 . S
C4147 C4148 1.410 . S
C4147 C4155 1.503 . S
C4148 C4147 1.410 . S
C4148 C4149 1.392 . S
C4148 C4151 1.511 . S
C4149 C4145 1.376 . S
C4149 C4148 1.392 . S
C4149 H4161 0.929 . S
C4150 C4146 1.531 . S
C4150 H4162 0.960 . S
C4150 H4163 0.962 . S
C4150 H4164 0.960 . S
C4151 C4148 1.511 . S
C4151 H4165 0.961 . S
C4151 H4166 0.961 . S
C4151 H4167 0.961 . S
C4152 C4153 1.370 . S
C4152 C4154 1.363 . S
C4152 H4168 0.931 . S
C4153 C4152 1.370 . S
C4153 C4157 1.408 . S
C4154 C4152 1.363 . S
C4154 C4155 1.370 . S
C4154 C4158 1.524 . S
C4155 C4147 1.503 . S
C4155 C4154 1.370 . S
C4155 C4156 1.403 . S
C4156 C4155 1.403 . S
C4156 C4157 1.404 . S
C4156 C4159 1.539 . S
C4157 C4153 1.408 . S
C4157 C4156 1.404 . S
C4157 H4169 0.930 . S
C4158 C4154 1.524 . S
C4158 H4170 0.956 . S
C4158 H4171 0.961 . S
C4158 H4172 0.961 . S
C4159 C4156 1.539 . S
C4159 H4173 0.958 . S
C4159 H4174 0.961 . S
C4159 H4175 0.960 . S
H4160 C4144 0.931 . S
H4161 C4149 0.929 . S
H4162 C4150 0.960 . S
H4163 C4150 0.962 . S
H4164 C4150 0.960 . S
H4165 C4151 0.961 . S
H4166 C4151 0.961 . S
H4167 C4151 0.961 . S
H4168 C4152 0.931 . S
H4169 C4157 0.930 . S
H4170 C4158 0.956 . S
H4171 C4158 0.961 . S
H4172 C4158 0.961 . S
H4173 C4159 0.958 . S
H4174 C4159 0.961 . S
H4175 C4159 0.960 . S
C4176 C4177 1.391 . S
C4176 C4178 1.394 . S
C4176 H4192 0.931 . S
C4177 C4176 1.391 . S
C4177 C4181 1.376 . S
C4178 C4176 1.394 . S
C4178 C4179 1.369 . S
C4178 C4182 1.531 . S
C4179 C4178 1.369 . S
C4179 C4180 1.410 . S
C4179 C4187 1.503 . S
C4180 C4179 1.410 . S
C4180 C4181 1.392 . S
C4180 C4183 1.511 . S
C4181 C4177 1.376 . S
C4181 C4180 1.392 . S
C4181 H4193 0.929 . S
C4182 C4178 1.531 . S
C4182 H4194 0.960 . S
C4182 H4195 0.962 . S
C4182 H4196 0.960 . S
C4183 C4180 1.511 . S
C4183 H4197 0.961 . S
C4183 H4198 0.961 . S
C4183 H4199 0.961 . S
C4184 C4185 1.370 . S
C4184 C4186 1.363 . S
C4184 H4200 0.931 . S
C4185 C4184 1.370 . S
C4185 C4189 1.408 . S
C4186 C4184 1.363 . S
C4186 C4187 1.370 . S
C4186 C4190 1.524 . S
C4187 C4179 1.503 . S
C4187 C4186 1.370 . S
C4187 C4188 1.403 . S
C4188 C4187 1.403 . S
C4188 C4189 1.404 . S
C4188 C4191 1.539 . S
C4189 C4185 1.408 . S
C4189 C4188 1.404 . S
C4189 H4201 0.930 . S
C4190 C4186 1.524 . S
C4190 H4202 0.956 . S
C4190 H4203 0.961 . S
C4190 H4204 0.961 . S
C4191 C4188 1.539 . S
C4191 H4205 0.958 . S
C4191 H4206 0.961 . S
C4191 H4207 0.960 . S
H4192 C4176 0.931 . S
H4193 C4181 0.929 . S
H4194 C4182 0.960 . S
H4195 C4182 0.962 . S
H4196 C4182 0.960 . S
H4197 C4183 0.961 . S
H4198 C4183 0.961 . S
H4199 C4183 0.961 . S
H4200 C4184 0.931 . S
H4201 C4189 0.930 . S
H4202 C4190 0.956 . S
H4203 C4190 0.961 . S
H4204 C4190 0.961 . S
H4205 C4191 0.958 . S
H4206 C4191 0.961 . S
H4207 C4191 0.960 . S
C4208 C4209 1.391 . S
C4208 C4210 1.394 . S
C4208 H4224 0.931 . S
C4209 C4208 1.391 . S
C4209 C4213 1.376 . S
C4210 C4208 1.394 . S
C4210 C4211 1.369 . S
C4210 C4214 1.531 . S
C4211 C4210 1.369 . S
C4211 C4212 1.410 . S
C4211 C4219 1.503 . S
C4212 C4211 1.410 . S
C4212 C4213 1.392 . S
C4212 C4215 1.511 . S
C4213 C4209 1.376 . S
C4213 C4212 1.392 . S
C4213 H4225 0.929 . S
C4214 C4210 1.531 . S
C4214 H4226 0.960 . S
C4214 H4227 0.962 . S
C4214 H4228 0.960 . S
C4215 C4212 1.511 . S
C4215 H4229 0.961 . S
C4215 H4230 0.961 . S
C4215 H4231 0.961 . S
C4216 C4217 1.370 . S
C4216 C4218 1.363 . S
C4216 H4232 0.931 . S
C4217 C4216 1.370 . S
C4217 C4221 1.408 . S
C4218 C4216 1.363 . S
C4218 C4219 1.370 . S
C4218 C4222 1.524 . S
C4219 C4211 1.503 . S
C4219 C4218 1.370 . S
C4219 C4220 1.403 . S
C4220 C4219 1.403 . S
C4220 C4221 1.404 . S
C4220 C4223 1.539 . S
C4221 C4217 1.408 . S
C4221 C4220 1.404 . S
C4221 H4233 0.930 . S
C4222 C4218 1.524 . S
C4222 H4234 0.956 . S
C4222 H4235 0.961 . S
C4222 H4236 0.961 . S
C4223 C4220 1.539 . S
C4223 H4237 0.958 . S
C4223 H4238 0.961 . S
C4223 H4239 0.960 . S
H4224 C4208 0.931 . S
H4225 C4213 0.929 . S
H4226 C4214 0.960 . S
H4227 C4214 0.962 . S
H4228 C4214 0.960 . S
H4229 C4215 0.961 . S
H4230 C4215 0.961 . S
H4231 C4215 0.961 . S
H4232 C4216 0.931 . S
H4233 C4221 0.930 . S
H4234 C4222 0.956 . S
H4235 C4222 0.961 . S
H4236 C4222 0.961 . S
H4237 C4223 0.958 . S
H4238 C4223 0.961 . S
H4239 C4223 0.960 . S
C4240 C4241 1.391 . S
C4240 C4242 1.394 . S
C4240 H4256 0.931 . S
C4241 C4240 1.391 . S
C4241 C4245 1.376 . S
C4242 C4240 1.394 . S
C4242 C4243 1.369 . S
C4242 C4246 1.531 . S
C4243 C4242 1.369 . S
C4243 C4244 1.410 . S
C4243 C4251 1.503 . S
C4244 C4243 1.410 . S
C4244 C4245 1.392 . S
C4244 C4247 1.511 . S
C4245 C4241 1.376 . S
C4245 C4244 1.392 . S
C4245 H4257 0.929 . S
C4246 C4242 1.531 . S
C4246 H4258 0.960 . S
C4246 H4259 0.962 . S
C4246 H4260 0.960 . S
C4247 C4244 1.511 . S
C4247 H4261 0.961 . S
C4247 H4262 0.961 . S
C4247 H4263 0.961 . S
C4248 C4249 1.370 . S
C4248 C4250 1.363 . S
C4248 H4264 0.931 . S
C4249 C4248 1.370 . S
C4249 C4253 1.408 . S
C4250 C4248 1.363 . S
C4250 C4251 1.370 . S
C4250 C4254 1.524 . S
C4251 C4243 1.503 . S
C4251 C4250 1.370 . S
C4251 C4252 1.403 . S
C4252 C4251 1.403 . S
C4252 C4253 1.404 . S
C4252 C4255 1.539 . S
C4253 C4249 1.408 . S
C4253 C4252 1.404 . S
C4253 H4265 0.930 . S
C4254 C4250 1.524 . S
C4254 H4266 0.956 . S
C4254 H4267 0.961 . S
C4254 H4268 0.961 . S
C4255 C4252 1.539 . S
C4255 H4269 0.958 . S
C4255 H4270 0.961 . S
C4255 H4271 0.960 . S
H4256 C4240 0.931 . S
H4257 C4245 0.929 . S
H4258 C4246 0.960 . S
H4259 C4246 0.962 . S
H4260 C4246 0.960 . S
H4261 C4247 0.961 . S
H4262 C4247 0.961 . S
H4263 C4247 0.961 . S
H4264 C4248 0.931 . S
H4265 C4253 0.930 . S
H4266 C4254 0.956 . S
H4267 C4254 0.961 . S
H4268 C4254 0.961 . S
H4269 C4255 0.958 . S
H4270 C4255 0.961 . S
H4271 C4255 0.960 . S
C4272 C4273 1.391 . S
C4272 C4274 1.394 . S
C4272 H4288 0.931 . S
C4273 C4272 1.391 . S
C4273 C4277 1.376 . S
C4274 C4272 1.394 . S
C4274 C4275 1.369 . S
C4274 C4278 1.531 . S
C4275 C4274 1.369 . S
C4275 C4276 1.410 . S
C4275 C4283 1.503 . S
C4276 C4275 1.410 . S
C4276 C4277 1.392 . S
C4276 C4279 1.511 . S
C4277 C4273 1.376 . S
C4277 C4276 1.392 . S
C4277 H4289 0.929 . S
C4278 C4274 1.531 . S
C4278 H4290 0.960 . S
C4278 H4291 0.962 . S
C4278 H4292 0.960 . S
C4279 C4276 1.511 . S
C4279 H4293 0.961 . S
C4279 H4294 0.961 . S
C4279 H4295 0.961 . S
C4280 C4281 1.370 . S
C4280 C4282 1.363 . S
C4280 H4296 0.931 . S
C4281 C4280 1.370 . S
C4281 C4285 1.408 . S
C4282 C4280 1.363 . S
C4282 C4283 1.370 . S
C4282 C4286 1.524 . S
C4283 C4275 1.503 . S
C4283 C4282 1.370 . S
C4283 C4284 1.403 . S
C4284 C4283 1.403 . S
C4284 C4285 1.404 . S
C4284 C4287 1.539 . S
C4285 C4281 1.408 . S
C4285 C4284 1.404 . S
C4285 H4297 0.930 . S
C4286 C4282 1.524 . S
C4286 H4298 0.956 . S
C4286 H4299 0.961 . S
C4286 H4300 0.961 . S
C4287 C4284 1.539 . S
C4287 H4301 0.958 . S
C4287 H4302 0.961 . S
C4287 H4303 0.960 . S
H4288 C4272 0.931 . S
H4289 C4277 0.929 . S
H4290 C4278 0.960 . S
H4291 C4278 0.962 . S
H4292 C4278 0.960 . S
H4293 C4279 0.961 . S
H4294 C4279 0.961 . S
H4295 C4279 0.961 . S
H4296 C4280 0.931 . S
H4297 C4285 0.930 . S
H4298 C4286 0.956 . S
H4299 C4286 0.961 . S
H4300 C4286 0.961 . S
H4301 C4287 0.958 . S
H4302 C4287 0.961 . S
H4303 C4287 0.960 . S
C4304 C4305 1.391 . S
C4304 C4306 1.394 . S
C4304 H4320 0.931 . S
C4305 C4304 1.391 . S
C4305 C4309 1.376 . S
C4306 C4304 1.394 . S
C4306 C4307 1.369 . S
C4306 C4310 1.531 . S
C4307 C4306 1.369 . S
C4307 C4308 1.410 . S
C4307 C4315 1.503 . S
C4308 C4307 1.410 . S
C4308 C4309 1.392 . S
C4308 C4311 1.511 . S
C4309 C4305 1.376 . S
C4309 C4308 1.392 . S
C4309 H4321 0.929 . S
C4310 C4306 1.531 . S
C4310 H4322 0.960 . S
C4310 H4323 0.962 . S
C4310 H4324 0.960 . S
C4311 C4308 1.511 . S
C4311 H4325 0.961 . S
C4311 H4326 0.961 . S
C4311 H4327 0.961 . S
C4312 C4313 1.370 . S
C4312 C4314 1.363 . S
C4312 H4328 0.931 . S
C4313 C4312 1.370 . S
C4313 C4317 1.408 . S
C4314 C4312 1.363 . S
C4314 C4315 1.370 . S
C4314 C4318 1.524 . S
C4315 C4307 1.503 . S
C4315 C4314 1.370 . S
C4315 C4316 1.403 . S
C4316 C4315 1.403 . S
C4316 C4317 1.404 . S
C4316 C4319 1.539 . S
C4317 C4313 1.408 . S
C4317 C4316 1.404 . S
C4317 H4329 0.930 . S
C4318 C4314 1.524 . S
C4318 H4330 0.956 . S
C4318 H4331 0.961 . S
C4318 H4332 0.961 . S
C4319 C4316 1.539 . S
C4319 H4333 0.958 . S
C4319 H4334 0.961 . S
C4319 H4335 0.960 . S
H4320 C4304 0.931 . S
H4321 C4309 0.929 . S
H4322 C4310 0.960 . S
H4323 C4310 0.962 . S
H4324 C4310 0.960 . S
H4325 C4311 0.961 . S
H4326 C4311 0.961 . S
H4327 C4311 0.961 . S
H4328 C4312 0.931 . S
H4329 C4317 0.930 . S
H4330 C4318 0.956 . S
H4331 C4318 0.961 . S
H4332 C4318 0.961 . S
H4333 C4319 0.958 . S
H4334 C4319 0.961 . S
H4335 C4319 0.960 . S
C4336 C4337 1.391 . S
C4336 C4338 1.394 . S
C4336 H4352 0.931 . S
C4337 C4336 1.391 . S
C4337 C4341 1.376 . S
C4338 C4336 1.394 . S
C4338 C4339 1.369 . S
C4338 C4342 1.531 . S
C4339 C4338 1.369 . S
C4339 C4340 1.410 . S
C4339 C4347 1.503 . S
C4340 C4339 1.410 . S
C4340 C4341 1.392 . S
C4340 C4343 1.511 . S
C4341 C4337 1.376 . S
C4341 C4340 1.392 . S
C4341 H4353 0.929 . S
C4342 C4338 1.531 . S
C4342 H4354 0.960 . S
C4342 H4355 0.962 . S
C4342 H4356 0.960 . S
C4343 C4340 1.511 . S
C4343 H4357 0.961 . S
C4343 H4358 0.961 . S
C4343 H4359 0.961 . S
C4344 C4345 1.370 . S
C4344 C4346 1.363 . S
C4344 H4360 0.931 . S
C4345 C4344 1.370 . S
C4345 C4349 1.408 . S
C4346 C4344 1.363 . S
C4346 C4347 1.370 . S
C4346 C4350 1.524 . S
C4347 C4339 1.503 . S
C4347 C4346 1.370 . S
C4347 C4348 1.403 . S
C4348 C4347 1.403 . S
C4348 C4349 1.404 . S
C4348 C4351 1.539 . S
C4349 C4345 1.408 . S
C4349 C4348 1.404 . S
C4349 H4361 0.930 . S
C4350 C4346 1.524 . S
C4350 H4362 0.956 . S
C4350 H4363 0.961 . S
C4350 H4364 0.961 . S
C4351 C4348 1.539 . S
C4351 H4365 0.958 . S
C4351 H4366 0.961 . S
C4351 H4367 0.960 . S
H4352 C4336 0.931 . S
H4353 C4341 0.929 . S
H4354 C4342 0.960 . S
H4355 C4342 0.962 . S
H4356 C4342 0.960 . S
H4357 C4343 0.961 . S
H4358 C4343 0.961 . S
H4359 C4343 0.961 . S
H4360 C4344 0.931 . S
H4361 C4349 0.930 . S
H4362 C4350 0.956 . S
H4363 C4350 0.961 . S
H4364 C4350 0.961 . S
H4365 C4351 0.958 . S
H4366 C4351 0.961 . S
H4367 C4351 0.960 . S
C4368 C4369 1.391 . S
C4368 C4370 1.394 . S
C4368 H4384 0.931 . S
C4369 C4368 1.391 . S
C4369 C4373 1.376 . S
C4370 C4368 1.394 . S
C4370 C4371 1.369 . S
C4370 C4374 1.531 . S
C4371 C4370 1.369 . S
C4371 C4372 1.410 . S
C4371 C4379 1.503 . S
C4372 C4371 1.410 . S
C4372 C4373 1.392 . S
C4372 C4375 1.511 . S
C4373 C4369 1.376 . S
C4373 C4372 1.392 . S
C4373 H4385 0.929 . S
C4374 C4370 1.531 . S
C4374 H4386 0.960 . S
C4374 H4387 0.962 . S
C4374 H4388 0.960 . S
C4375 C4372 1.511 . S
C4375 H4389 0.961 . S
C4375 H4390 0.961 . S
C4375 H4391 0.961 . S
C4376 C4377 1.370 . S
C4376 C4378 1.363 . S
C4376 H4392 0.931 . S
C4377 C4376 1.370 . S
C4377 C4381 1.408 . S
C4378 C4376 1.363 . S
C4378 C4379 1.370 . S
C4378 C4382 1.524 . S
C4379 C4371 1.503 . S
C4379 C4378 1.370 . S
C4379 C4380 1.403 . S
C4380 C4379 1.403 . S
C4380 C4381 1.404 . S
C4380 C4383 1.539 . S
C4381 C4377 1.408 . S
C4381 C4380 1.404 . S
C4381 H4393 0.930 . S
C4382 C4378 1.524 . S
C4382 H4394 0.956 . S
C4382 H4395 0.961 . S
C4382 H4396 0.961 . S
C4383 C4380 1.539 . S
C4383 H4397 0.958 . S
C4383 H4398 0.961 . S
C4383 H4399 0.960 . S
H4384 C4368 0.931 . S
H4385 C4373 0.929 . S
H4386 C4374 0.960 . S
H4387 C4374 0.962 . S
H4388 C4374 0.960 . S
H4389 C4375 0.961 . S
H4390 C4375 0.961 . S
H4391 C4375 0.961 . S
H4392 C4376 0.931 . S
H4393 C4381 0.930 . S
H4394 C4382 0.956 . S
H4395 C4382 0.961 . S
H4396 C4382 0.961 . S
H4397 C4383 0.958 . S
H4398 C4383 0.961 . S
H4399 C4383 0.960 . S
C4400 C4401 1.391 . S
C4400 C4402 1.394 . S
C4400 H4416 0.931 . S
C4401 C4400 1.391 . S
C4401 C4405 1.376 . S
C4402 C4400 1.394 . S
C4402 C4403 1.369 . S
C4402 C4406 1.531 . S
C4403 C4402 1.369 . S
C4403 C4404 1.410 . S
C4403 C4411 1.503 . S
C4404 C4403 1.410 . S
C4404 C4405 1.392 . S
C4404 C4407 1.511 . S
C4405 C4401 1.376 . S
C4405 C4404 1.392 . S
C4405 H4417 0.929 . S
C4406 C4402 1.531 . S
C4406 H4418 0.960 . S
C4406 H4419 0.962 . S
C4406 H4420 0.960 . S
C4407 C4404 1.511 . S
C4407 H4421 0.961 . S
C4407 H4422 0.961 . S
C4407 H4423 0.961 . S
C4408 C4409 1.370 . S
C4408 C4410 1.363 . S
C4408 H4424 0.931 . S
C4409 C4408 1.370 . S
C4409 C4413 1.408 . S
C4410 C4408 1.363 . S
C4410 C4411 1.370 . S
C4410 C4414 1.524 . S
C4411 C4403 1.503 . S
C4411 C4410 1.370 . S
C4411 C4412 1.403 . S
C4412 C4411 1.403 . S
C4412 C4413 1.404 . S
C4412 C4415 1.539 . S
C4413 C4409 1.408 . S
C4413 C4412 1.404 . S
C4413 H4425 0.930 . S
C4414 C4410 1.524 . S
C4414 H4426 0.956 . S
C4414 H4427 0.961 . S
C4414 H4428 0.961 . S
C4415 C4412 1.539 . S
C4415 H4429 0.958 . S
C4415 H4430 0.961 . S
C4415 H4431 0.960 . S
H4416 C4400 0.931 . S
H4417 C4405 0.929 . S
H4418 C4406 0.960 . S
H4419 C4406 0.962 . S
H4420 C4406 0.960 . S
H4421 C4407 0.961 . S
H4422 C4407 0.961 . S
H4423 C4407 0.961 . S
H4424 C4408 0.931 . S
H4425 C4413 0.930 . S
H4426 C4414 0.956 . S
H4427 C4414 0.961 . S
H4428 C4414 0.961 . S
H4429 C4415 0.958 . S
H4430 C4415 0.961 . S
H4431 C4415 0.960 . S
C4432 C4433 1.391 . S
C4432 C4434 1.394 . S
C4432 H4448 0.931 . S
C4433 C4432 1.391 . S
C4433 C4437 1.376 . S
C4434 C4432 1.394 . S
C4434 C4435 1.369 . S
C4434 C4438 1.531 . S
C4435 C4434 1.369 . S
C4435 C4436 1.410 . S
C4435 C4443 1.503 . S
C4436 C4435 1.410 . S
C4436 C4437 1.392 . S
C4436 C4439 1.511 . S
C4437 C4433 1.376 . S
C4437 C4436 1.392 . S
C4437 H4449 0.929 . S
C4438 C4434 1.531 . S
C4438 H4450 0.960 . S
C4438 H4451 0.962 . S
C4438 H4452 0.960 . S
C4439 C4436 1.511 . S
C4439 H4453 0.961 . S
C4439 H4454 0.961 . S
C4439 H4455 0.961 . S
C4440 C4441 1.370 . S
C4440 C4442 1.363 . S
C4440 H4456 0.931 . S
C4441 C4440 1.370 . S
C4441 C4445 1.408 . S
C4442 C4440 1.363 . S
C4442 C4443 1.370 . S
C4442 C4446 1.524 . S
C4443 C4435 1.503 . S
C4443 C4442 1.370 . S
C4443 C4444 1.403 . S
C4444 C4443 1.403 . S
C4444 C4445 1.404 . S
C4444 C4447 1.539 . S
C4445 C4441 1.408 . S
C4445 C4444 1.404 . S
C4445 H4457 0.930 . S
C4446 C4442 1.524 . S
C4446 H4458 0.956 . S
C4446 H4459 0.961 . S
C4446 H4460 0.961 . S
C4447 C4444 1.539 . S
C4447 H4461 0.958 . S
C4447 H4462 0.961 . S
C4447 H4463 0.960 . S
H4448 C4432 0.931 . S
H4449 C4437 0.929 . S
H4450 C4438 0.960 . S
H4451 C4438 0.962 . S
H4452 C4438 0.960 . S
H4453 C4439 0.961 . S
H4454 C4439 0.961 . S
H4455 C4439 0.961 . S
H4456 C4440 0.931 . S
H4457 C4445 0.930 . S
H4458 C4446 0.956 . S
H4459 C4446 0.961 . S
H4460 C4446 0.961 . S
H4461 C4447 0.958 . S
H4462 C4447 0.961 . S
H4463 C4447 0.960 . S
C4464 C4465 1.391 . S
C4464 C4466 1.394 . S
C4464 H4480 0.931 . S
C4465 C4464 1.391 . S
C4465 C4469 1.376 . S
C4466 C4464 1.394 . S
C4466 C4467 1.369 . S
C4466 C4470 1.531 . S
C4467 C4466 1.369 . S
C4467 C4468 1.410 . S
C4467 C4475 1.503 . S
C4468 C4467 1.410 . S
C4468 C4469 1.392 . S
C4468 C4471 1.511 . S
C4469 C4465 1.376 . S
C4469 C4468 1.392 . S
C4469 H4481 0.929 . S
C4470 C4466 1.531 . S
C4470 H4482 0.960 . S
C4470 H4483 0.962 . S
C4470 H4484 0.960 . S
C4471 C4468 1.511 . S
C4471 H4485 0.961 . S
C4471 H4486 0.961 . S
C4471 H4487 0.961 . S
C4472 C4473 1.370 . S
C4472 C4474 1.363 . S
C4472 H4488 0.931 . S
C4473 C4472 1.370 . S
C4473 C4477 1.408 . S
C4474 C4472 1.363 . S
C4474 C4475 1.370 . S
C4474 C4478 1.524 . S
C4475 C4467 1.503 . S
C4475 C4474 1.370 . S
C4475 C4476 1.403 . S
C4476 C4475 1.403 . S
C4476 C4477 1.404 . S
C4476 C4479 1.539 . S
C4477 C4473 1.408 . S
C4477 C4476 1.404 . S
C4477 H4489 0.930 . S
C4478 C4474 1.524 . S
C4478 H4490 0.956 . S
C4478 H4491 0.961 . S
C4478 H4492 0.961 . S
C4479 C4476 1.539 . S
C4479 H4493 0.958 . S
C4479 H4494 0.961 . S
C4479 H4495 0.960 . S
H4480 C4464 0.931 . S
H4481 C4469 0.929 . S
H4482 C4470 0.960 . S
H4483 C4470 0.962 . S
H4484 C4470 0.960 . S
H4485 C4471 0.961 . S
H4486 C4471 0.961 . S
H4487 C4471 0.961 . S
H4488 C4472 0.931 . S
H4489 C4477 0.930 . S
H4490 C4478 0.956 . S
H4491 C4478 0.961 . S
H4492 C4478 0.961 . S
H4493 C4479 0.958 . S
H4494 C4479 0.961 . S
H4495 C4479 0.960 . S
C4496 C4497 1.391 . S
C4496 C4498 1.394 . S
C4496 H4512 0.931 . S
C4497 C4496 1.391 . S
C4497 C4501 1.376 . S
C4498 C4496 1.394 . S
C4498 C4499 1.369 . S
C4498 C4502 1.531 . S
C4499 C4498 1.369 . S
C4499 C4500 1.410 . S
C4499 C4507 1.503 . S
C4500 C4499 1.410 . S
C4500 C4501 1.392 . S
C4500 C4503 1.511 . S
C4501 C4497 1.376 . S
C4501 C4500 1.392 . S
C4501 H4513 0.929 . S
C4502 C4498 1.531 . S
C4502 H4514 0.960 . S
C4502 H4515 0.962 . S
C4502 H4516 0.960 . S
C4503 C4500 1.511 . S
C4503 H4517 0.961 . S
C4503 H4518 0.961 . S
C4503 H4519 0.961 . S
C4504 C4505 1.370 . S
C4504 C4506 1.363 . S
C4504 H4520 0.931 . S
C4505 C4504 1.370 . S
C4505 C4509 1.408 . S
C4506 C4504 1.363 . S
C4506 C4507 1.370 . S
C4506 C4510 1.524 . S
C4507 C4499 1.503 . S
C4507 C4506 1.370 . S
C4507 C4508 1.403 . S
C4508 C4507 1.403 . S
C4508 C4509 1.404 . S
C4508 C4511 1.539 . S
C4509 C4505 1.408 . S
C4509 C4508 1.404 . S
C4509 H4521 0.930 . S
C4510 C4506 1.524 . S
C4510 H4522 0.956 . S
C4510 H4523 0.961 . S
C4510 H4524 0.961 . S
C4511 C4508 1.539 . S
C4511 H4525 0.958 . S
C4511 H4526 0.961 . S
C4511 H4527 0.960 . S
H4512 C4496 0.931 . S
H4513 C4501 0.929 . S
H4514 C4502 0.960 . S
H4515 C4502 0.962 . S
H4516 C4502 0.960 . S
H4517 C4503 0.961 . S
H4518 C4503 0.961 . S
H4519 C4503 0.961 . S
H4520 C4504 0.931 . S
H4521 C4509 0.930 . S
H4522 C4510 0.956 . S
H4523 C4510 0.961 . S
H4524 C4510 0.961 . S
H4525 C4511 0.958 . S
H4526 C4511 0.961 . S
H4527 C4511 0.960 . S
C4528 C4529 1.391 . S
C4528 C4530 1.394 . S
C4528 H4544 0.931 . S
C4529 C4528 1.391 . S
C4529 C4533 1.376 . S
C4530 C4528 1.394 . S
C4530 C4531 1.369 . S
C4530 C4534 1.531 . S
C4531 C4530 1.369 . S
C4531 C4532 1.410 . S
C4531 C4539 1.503 . S
C4532 C4531 1.410 . S
C4532 C4533 1.392 . S
C4532 C4535 1.511 . S
C4533 C4529 1.376 . S
C4533 C4532 1.392 . S
C4533 H4545 0.929 . S
C4534 C4530 1.531 . S
C4534 H4546 0.960 . S
C4534 H4547 0.962 . S
C4534 H4548 0.960 . S
C4535 C4532 1.511 . S
C4535 H4549 0.961 . S
C4535 H4550 0.961 . S
C4535 H4551 0.961 . S
C4536 C4537 1.370 . S
C4536 C4538 1.363 . S
C4536 H4552 0.931 . S
C4537 C4536 1.370 . S
C4537 C4541 1.408 . S
C4538 C4536 1.363 . S
C4538 C4539 1.370 . S
C4538 C4542 1.524 . S
C4539 C4531 1.503 . S
C4539 C4538 1.370 . S
C4539 C4540 1.403 . S
C4540 C4539 1.403 . S
C4540 C4541 1.404 . S
C4540 C4543 1.539 . S
C4541 C4537 1.408 . S
C4541 C4540 1.404 . S
C4541 H4553 0.930 . S
C4542 C4538 1.524 . S
C4542 H4554 0.956 . S
C4542 H4555 0.961 . S
C4542 H4556 0.961 . S
C4543 C4540 1.539 . S
C4543 H4557 0.958 . S
C4543 H4558 0.961 . S
C4543 H4559 0.960 . S
H4544 C4528 0.931 . S
H4545 C4533 0.929 . S
H4546 C4534 0.960 . S
H4547 C4534 0.962 . S
H4548 C4534 0.960 . S
H4549 C4535 0.961 . S
H4550 C4535 0.961 . S
H4551 C4535 0.961 . S
H4552 C4536 0.931 . S
H4553 C4541 0.930 . S
H4554 C4542 0.956 . S
H4555 C4542 0.961 . S
H4556 C4542 0.961 . S
H4557 C4543 0.958 . S
H4558 C4543 0.961 . S
H4559 C4543 0.960 . S
C4560 C4561 1.391 . S
C4560 C4562 1.394 . S
C4560 H4576 0.931 . S
C4561 C4560 1.391 . S
C4561 C4565 1.376 . S
C4562 C4560 1.394 . S
C4562 C4563 1.369 . S
C4562 C4566 1.531 . S
C4563 C4562 1.369 . S
C4563 C4564 1.410 . S
C4563 C4571 1.503 . S
C4564 C4563 1.410 . S
C4564 C4565 1.392 . S
C4564 C4567 1.511 . S
C4565 C4561 1.376 . S
C4565 C4564 1.392 . S
C4565 H4577 0.929 . S
C4566 C4562 1.531 . S
C4566 H4578 0.960 . S
C4566 H4579 0.962 . S
C4566 H4580 0.960 . S
C4567 C4564 1.511 . S
C4567 H4581 0.961 . S
C4567 H4582 0.961 . S
C4567 H4583 0.961 . S
C4568 C4569 1.370 . S
C4568 C4570 1.363 . S
C4568 H4584 0.931 . S
C4569 C4568 1.370 . S
C4569 C4573 1.408 . S
C4570 C4568 1.363 . S
C4570 C4571 1.370 . S
C4570 C4574 1.524 . S
C4571 C4563 1.503 . S
C4571 C4570 1.370 . S
C4571 C4572 1.403 . S
C4572 C4571 1.403 . S
C4572 C4573 1.404 . S
C4572 C4575 1.539 . S
C4573 C4569 1.408 . S
C4573 C4572 1.404 . S
C4573 H4585 0.930 . S
C4574 C4570 1.524 . S
C4574 H4586 0.956 . S
C4574 H4587 0.961 . S
C4574 H4588 0.961 . S
C4575 C4572 1.539 . S
C4575 H4589 0.958 . S
C4575 H4590 0.961 . S
C4575 H4591 0.960 . S
H4576 C4560 0.931 . S
H4577 C4565 0.929 . S
H4578 C4566 0.960 . S
H4579 C4566 0.962 . S
H4580 C4566 0.960 . S
H4581 C4567 0.961 . S
H4582 C4567 0.961 . S
H4583 C4567 0.961 . S
H4584 C4568 0.931 . S
H4585 C4573 0.930 . S
H4586 C4574 0.956 . S
H4587 C4574 0.961 . S
H4588 C4574 0.961 . S
H4589 C4575 0.958 . S
H4590 C4575 0.961 . S
H4591 C4575 0.960 . S
C4592 C4593 1.391 . S
C4592 C4594 1.394 . S
C4592 H4608 0.931 . S
C4593 C4592 1.391 . S
C4593 C4597 1.376 . S
C4594 C4592 1.394 . S
C4594 C4595 1.369 . S
C4594 C4598 1.531 . S
C4595 C4594 1.369 . S
C4595 C4596 1.410 . S
C4595 C4603 1.503 . S
C4596 C4595 1.410 . S
C4596 C4597 1.392 . S
C4596 C4599 1.511 . S
C4597 C4593 1.376 . S
C4597 C4596 1.392 . S
C4597 H4609 0.929 . S
C4598 C4594 1.531 . S
C4598 H4610 0.960 . S
C4598 H4611 0.962 . S
C4598 H4612 0.960 . S
C4599 C4596 1.511 . S
C4599 H4613 0.961 . S
C4599 H4614 0.961 . S
C4599 H4615 0.961 . S
C4600 C4601 1.370 . S
C4600 C4602 1.363 . S
C4600 H4616 0.931 . S
C4601 C4600 1.370 . S
C4601 C4605 1.408 . S
C4602 C4600 1.363 . S
C4602 C4603 1.370 . S
C4602 C4606 1.524 . S
C4603 C4595 1.503 . S
C4603 C4602 1.370 . S
C4603 C4604 1.403 . S
C4604 C4603 1.403 . S
C4604 C4605 1.404 . S
C4604 C4607 1.539 . S
C4605 C4601 1.408 . S
C4605 C4604 1.404 . S
C4605 H4617 0.930 . S
C4606 C4602 1.524 . S
C4606 H4618 0.956 . S
C4606 H4619 0.961 . S
C4606 H4620 0.961 . S
C4607 C4604 1.539 . S
C4607 H4621 0.958 . S
C4607 H4622 0.961 . S
C4607 H4623 0.960 . S
H4608 C4592 0.931 . S
H4609 C4597 0.929 . S
H4610 C4598 0.960 . S
H4611 C4598 0.962 . S
H4612 C4598 0.960 . S
H4613 C4599 0.961 . S
H4614 C4599 0.961 . S
H4615 C4599 0.961 . S
H4616 C4600 0.931 . S
H4617 C4605 0.930 . S
H4618 C4606 0.956 . S
H4619 C4606 0.961 . S
H4620 C4606 0.961 . S
H4621 C4607 0.958 . S
H4622 C4607 0.961 . S
H4623 C4607 0.960 . S
C4624 C4625 1.391 . S
C4624 C4626 1.394 . S
C4624 H4640 0.931 . S
C4625 C4624 1.391 . S
C4625 C4629 1.376 . S
C4626 C4624 1.394 . S
C4626 C4627 1.369 . S
C4626 C4630 1.531 . S
C4627 C4626 1.369 . S
C4627 C4628 1.410 . S
C4627 C4635 1.503 . S
C4628 C4627 1.410 . S
C4628 C4629 1.392 . S
C4628 C4631 1.511 . S
C4629 C4625 1.376 . S
C4629 C4628 1.392 . S
C4629 H4641 0.929 . S
C4630 C4626 1.531 . S
C4630 H4642 0.960 . S
C4630 H4643 0.962 . S
C4630 H4644 0.960 . S
C4631 C4628 1.511 . S
C4631 H4645 0.961 . S
C4631 H4646 0.961 . S
C4631 H4647 0.961 . S
C4632 C4633 1.370 . S
C4632 C4634 1.363 . S
C4632 H4648 0.931 . S
C4633 C4632 1.370 . S
C4633 C4637 1.408 . S
C4634 C4632 1.363 . S
C4634 C4635 1.370 . S
C4634 C4638 1.524 . S
C4635 C4627 1.503 . S
C4635 C4634 1.370 . S
C4635 C4636 1.403 . S
C4636 C4635 1.403 . S
C4636 C4637 1.404 . S
C4636 C4639 1.539 . S
C4637 C4633 1.408 . S
C4637 C4636 1.404 . S
C4637 H4649 0.930 . S
C4638 C4634 1.524 . S
C4638 H4650 0.956 . S
C4638 H4651 0.961 . S
C4638 H4652 0.961 . S
C4639 C4636 1.539 . S
C4639 H4653 0.958 . S
C4639 H4654 0.961 . S
C4639 H4655 0.960 . S
H4640 C4624 0.931 . S
H4641 C4629 0.929 . S
H4642 C4630 0.960 . S
H4643 C4630 0.962 . S
H4644 C4630 0.960 . S
H4645 C4631 0.961 . S
H4646 C4631 0.961 . S
H4647 C4631 0.961 . S
H4648 C4632 0.931 . S
H4649 C4637 0.930 . S
H4650 C4638 0.956 . S
H4651 C4638 0.961 . S
H4652 C4638 0.961 . S
H4653 C4639 0.958 . S
H4654 C4639 0.961 . S
H4655 C4639 0.960 . S
C4656 C4657 1.391 . S
C4656 C4658 1.394 . S
C4656 H4672 0.931 . S
C4657 C4656 1.391 . S
C4657 C4661 1.376 . S
C4658 C4656 1.394 . S
C4658 C4659 1.369 . S
C4658 C4662 1.531 . S
C4659 C4658 1.369 . S
C4659 C4660 1.410 . S
C4659 C4667 1.503 . S
C4660 C4659 1.410 . S
C4660 C4661 1.392 . S
C4660 C4663 1.511 . S
C4661 C4657 1.376 . S
C4661 C4660 1.392 . S
C4661 H4673 0.929 . S
C4662 C4658 1.531 . S
C4662 H4674 0.960 . S
C4662 H4675 0.962 . S
C4662 H4676 0.960 . S
C4663 C4660 1.511 . S
C4663 H4677 0.961 . S
C4663 H4678 0.961 . S
C4663 H4679 0.961 . S
C4664 C4665 1.370 . S
C4664 C4666 1.363 . S
C4664 H4680 0.931 . S
C4665 C4664 1.370 . S
C4665 C4669 1.408 . S
C4666 C4664 1.363 . S
C4666 C4667 1.370 . S
C4666 C4670 1.524 . S
C4667 C4659 1.503 . S
C4667 C4666 1.370 . S
C4667 C4668 1.403 . S
C4668 C4667 1.403 . S
C4668 C4669 1.404 . S
C4668 C4671 1.539 . S
C4669 C4665 1.408 . S
C4669 C4668 1.404 . S
C4669 H4681 0.930 . S
C4670 C4666 1.524 . S
C4670 H4682 0.956 . S
C4670 H4683 0.961 . S
C4670 H4684 0.961 . S
C4671 C4668 1.539 . S
C4671 H4685 0.958 . S
C4671 H4686 0.961 . S
C4671 H4687 0.960 . S
H4672 C4656 0.931 . S
H4673 C4661 0.929 . S
H4674 C4662 0.960 . S
H4675 C4662 0.962 . S
H4676 C4662 0.960 . S
H4677 C4663 0.961 . S
H4678 C4663 0.961 . S
H4679 C4663 0.961 . S
H4680 C4664 0.931 . S
H4681 C4669 0.930 . S
H4682 C4670 0.956 . S
H4683 C4670 0.961 . S
H4684 C4670 0.961 . S
H4685 C4671 0.958 . S
H4686 C4671 0.961 . S
H4687 C4671 0.960 . S
C4688 C4689 1.391 . S
C4688 C4690 1.394 . S
C4688 H4704 0.931 . S
C4689 C4688 1.391 . S
C4689 C4693 1.376 . S
C4690 C4688 1.394 . S
C4690 C4691 1.369 . S
C4690 C4694 1.531 . S
C4691 C4690 1.369 . S
C4691 C4692 1.410 . S
C4691 C4699 1.503 . S
C4692 C4691 1.410 . S
C4692 C4693 1.392 . S
C4692 C4695 1.511 . S
C4693 C4689 1.376 . S
C4693 C4692 1.392 . S
C4693 H4705 0.929 . S
C4694 C4690 1.531 . S
C4694 H4706 0.960 . S
C4694 H4707 0.962 . S
C4694 H4708 0.960 . S
C4695 C4692 1.511 . S
C4695 H4709 0.961 . S
C4695 H4710 0.961 . S
C4695 H4711 0.961 . S
C4696 C4697 1.370 . S
C4696 C4698 1.363 . S
C4696 H4712 0.931 . S
C4697 C4696 1.370 . S
C4697 C4701 1.408 . S
C4698 C4696 1.363 . S
C4698 C4699 1.370 . S
C4698 C4702 1.524 . S
C4699 C4691 1.503 . S
C4699 C4698 1.370 . S
C4699 C4700 1.403 . S
C4700 C4699 1.403 . S
C4700 C4701 1.404 . S
C4700 C4703 1.539 . S
C4701 C4697 1.408 . S
C4701 C4700 1.404 . S
C4701 H4713 0.930 . S
C4702 C4698 1.524 . S
C4702 H4714 0.956 . S
C4702 H4715 0.961 . S
C4702 H4716 0.961 . S
C4703 C4700 1.539 . S
C4703 H4717 0.958 . S
C4703 H4718 0.961 . S
C4703 H4719 0.960 . S
H4704 C4688 0.931 . S
H4705 C4693 0.929 . S
H4706 C4694 0.960 . S
H4707 C4694 0.962 . S
H4708 C4694 0.960 . S
H4709 C4695 0.961 . S
H4710 C4695 0.961 . S
H4711 C4695 0.961 . S
H4712 C4696 0.931 . S
H4713 C4701 0.930 . S
H4714 C4702 0.956 . S
H4715 C4702 0.961 . S
H4716 C4702 0.961 . S
H4717 C4703 0.958 . S
H4718 C4703 0.961 . S
H4719 C4703 0.960 . S
C4720 C4721 1.391 . S
C4720 C4722 1.394 . S
C4720 H4736 0.931 . S
C4721 C4720 1.391 . S
C4721 C4725 1.376 . S
C4722 C4720 1.394 . S
C4722 C4723 1.369 . S
C4722 C4726 1.531 . S
C4723 C4722 1.369 . S
C4723 C4724 1.410 . S
C4723 C4731 1.503 . S
C4724 C4723 1.410 . S
C4724 C4725 1.392 . S
C4724 C4727 1.511 . S
C4725 C4721 1.376 . S
C4725 C4724 1.392 . S
C4725 H4737 0.929 . S
C4726 C4722 1.531 . S
C4726 H4738 0.960 . S
C4726 H4739 0.962 . S
C4726 H4740 0.960 . S
C4727 C4724 1.511 . S
C4727 H4741 0.961 . S
C4727 H4742 0.961 . S
C4727 H4743 0.961 . S
C4728 C4729 1.370 . S
C4728 C4730 1.363 . S
C4728 H4744 0.931 . S
C4729 C4728 1.370 . S
C4729 C4733 1.408 . S
C4730 C4728 1.363 . S
C4730 C4731 1.370 . S
C4730 C4734 1.524 . S
C4731 C4723 1.503 . S
C4731 C4730 1.370 . S
C4731 C4732 1.403 . S
C4732 C4731 1.403 . S
C4732 C4733 1.404 . S
C4732 C4735 1.539 . S
C4733 C4729 1.408 . S
C4733 C4732 1.404 . S
C4733 H4745 0.930 . S
C4734 C4730 1.524 . S
C4734 H4746 0.956 . S
C4734 H4747 0.961 . S
C4734 H4748 0.961 . S
C4735 C4732 1.539 . S
C4735 H4749 0.958 . S
C4735 H4750 0.961 . S
C4735 H4751 0.960 . S
H4736 C4720 0.931 . S
H4737 C4725 0.929 . S
H4738 C4726 0.960 . S
H4739 C4726 0.962 . S
H4740 C4726 0.960 . S
H4741 C4727 0.961 . S
H4742 C4727 0.961 . S
H4743 C4727 0.961 . S
H4744 C4728 0.931 . S
H4745 C4733 0.930 . S
H4746 C4734 0.956 . S
H4747 C4734 0.961 . S
H4748 C4734 0.961 . S
H4749 C4735 0.958 . S
H4750 C4735 0.961 . S
H4751 C4735 0.960 . S
C4752 C4753 1.391 . S
C4752 C4754 1.394 . S
C4752 H4768 0.931 . S
C4753 C4752 1.391 . S
C4753 C4757 1.376 . S
C4754 C4752 1.394 . S
C4754 C4755 1.369 . S
C4754 C4758 1.531 . S
C4755 C4754 1.369 . S
C4755 C4756 1.410 . S
C4755 C4763 1.503 . S
C4756 C4755 1.410 . S
C4756 C4757 1.392 . S
C4756 C4759 1.511 . S
C4757 C4753 1.376 . S
C4757 C4756 1.392 . S
C4757 H4769 0.929 . S
C4758 C4754 1.531 . S
C4758 H4770 0.960 . S
C4758 H4771 0.962 . S
C4758 H4772 0.960 . S
C4759 C4756 1.511 . S
C4759 H4773 0.961 . S
C4759 H4774 0.961 . S
C4759 H4775 0.961 . S
C4760 C4761 1.370 . S
C4760 C4762 1.363 . S
C4760 H4776 0.931 . S
C4761 C4760 1.370 . S
C4761 C4765 1.408 . S
C4762 C4760 1.363 . S
C4762 C4763 1.370 . S
C4762 C4766 1.524 . S
C4763 C4755 1.503 . S
C4763 C4762 1.370 . S
C4763 C4764 1.403 . S
C4764 C4763 1.403 . S
C4764 C4765 1.404 . S
C4764 C4767 1.539 . S
C4765 C4761 1.408 . S
C4765 C4764 1.404 . S
C4765 H4777 0.930 . S
C4766 C4762 1.524 . S
C4766 H4778 0.956 . S
C4766 H4779 0.961 . S
C4766 H4780 0.961 . S
C4767 C4764 1.539 . S
C4767 H4781 0.958 . S
C4767 H4782 0.961 . S
C4767 H4783 0.960 . S
H4768 C4752 0.931 . S
H4769 C4757 0.929 . S
H4770 C4758 0.960 . S
H4771 C4758 0.962 . S
H4772 C4758 0.960 . S
H4773 C4759 0.961 . S
H4774 C4759 0.961 . S
H4775 C4759 0.961 . S
H4776 C4760 0.931 . S
H4777 C4765 0.930 . S
H4778 C4766 0.956 . S
H4779 C4766 0.961 . S
H4780 C4766 0.961 . S
H4781 C4767 0.958 . S
H4782 C4767 0.961 . S
H4783 C4767 0.960 . S
C4784 C4785 1.391 . S
C4784 C4786 1.394 . S
C4784 H4800 0.931 . S
C4785 C4784 1.391 . S
C4785 C4789 1.376 . S
C4786 C4784 1.394 . S
C4786 C4787 1.369 . S
C4786 C4790 1.531 . S
C4787 C4786 1.369 . S
C4787 C4788 1.410 . S
C4787 C4795 1.503 . S
C4788 C4787 1.410 . S
C4788 C4789 1.392 . S
C4788 C4791 1.511 . S
C4789 C4785 1.376 . S
C4789 C4788 1.392 . S
C4789 H4801 0.929 . S
C4790 C4786 1.531 . S
C4790 H4802 0.960 . S
C4790 H4803 0.962 . S
C4790 H4804 0.960 . S
C4791 C4788 1.511 . S
C4791 H4805 0.961 . S
C4791 H4806 0.961 . S
C4791 H4807 0.961 . S
C4792 C4793 1.370 . S
C4792 C4794 1.363 . S
C4792 H4808 0.931 . S
C4793 C4792 1.370 . S
C4793 C4797 1.408 . S
C4794 C4792 1.363 . S
C4794 C4795 1.370 . S
C4794 C4798 1.524 . S
C4795 C4787 1.503 . S
C4795 C4794 1.370 . S
C4795 C4796 1.403 . S
C4796 C4795 1.403 . S
C4796 C4797 1.404 . S
C4796 C4799 1.539 . S
C4797 C4793 1.408 . S
C4797 C4796 1.404 . S
C4797 H4809 0.930 . S
C4798 C4794 1.524 . S
C4798 H4810 0.956 . S
C4798 H4811 0.961 . S
C4798 H4812 0.961 . S
C4799 C4796 1.539 . S
C4799 H4813 0.958 . S
C4799 H4814 0.961 . S
C4799 H4815 0.960 . S
H4800 C4784 0.931 . S
H4801 C4789 0.929 . S
H4802 C4790 0.960 . S
H4803 C4790 0.962 . S
H4804 C4790 0.960 . S
H4805 C4791 0.961 . S
H4806 C4791 0.961 . S
H4807 C4791 0.961 . S
H4808 C4792 0.931 . S
H4809 C4797 0.930 . S
H4810 C4798 0.956 . S
H4811 C4798 0.961 . S
H4812 C4798 0.961 . S
H4813 C4799 0.958 . S
H4814 C4799 0.961 . S
H4815 C4799 0.960 . S
C4816 C4817 1.391 . S
C4816 C4818 1.394 . S
C4816 H4832 0.931 . S
C4817 C4816 1.391 . S
C4817 C4821 1.376 . S
C4818 C4816 1.394 . S
C4818 C4819 1.369 . S
C4818 C4822 1.531 . S
C4819 C4818 1.369 . S
C4819 C4820 1.410 . S
C4819 C4827 1.503 . S
C4820 C4819 1.410 . S
C4820 C4821 1.392 . S
C4820 C4823 1.511 . S
C4821 C4817 1.376 . S
C4821 C4820 1.392 . S
C4821 H4833 0.929 . S
C4822 C4818 1.531 . S
C4822 H4834 0.960 . S
C4822 H4835 0.962 . S
C4822 H4836 0.960 . S
C4823 C4820 1.511 . S
C4823 H4837 0.961 . S
C4823 H4838 0.961 . S
C4823 H4839 0.961 . S
C4824 C4825 1.370 . S
C4824 C4826 1.363 . S
C4824 H4840 0.931 . S
C4825 C4824 1.370 . S
C4825 C4829 1.408 . S
C4826 C4824 1.363 . S
C4826 C4827 1.370 . S
C4826 C4830 1.524 . S
C4827 C4819 1.503 . S
C4827 C4826 1.370 . S
C4827 C4828 1.403 . S
C4828 C4827 1.403 . S
C4828 C4829 1.404 . S
C4828 C4831 1.539 . S
C4829 C4825 1.408 . S
C4829 C4828 1.404 . S
C4829 H4841 0.930 . S
C4830 C4826 1.524 . S
C4830 H4842 0.956 . S
C4830 H4843 0.961 . S
C4830 H4844 0.961 . S
C4831 C4828 1.539 . S
C4831 H4845 0.958 . S
C4831 H4846 0.961 . S
C4831 H4847 0.960 . S
H4832 C4816 0.931 . S
H4833 C4821 0.929 . S
H4834 C4822 0.960 . S
H4835 C4822 0.962 . S
H4836 C4822 0.960 . S
H4837 C4823 0.961 . S
H4838 C4823 0.961 . S
H4839 C4823 0.961 . S
H4840 C4824 0.931 . S
H4841 C4829 0.930 . S
H4842 C4830 0.956 . S
H4843 C4830 0.961 . S
H4844 C4830 0.961 . S
H4845 C4831 0.958 . S
H4846 C4831 0.961 . S
H4847 C4831 0.960 . S
C4848 C4849 1.391 . S
C4848 C4850 1.394 . S
C4848 H4864 0.931 . S
C4849 C4848 1.391 . S
C4849 C4853 1.376 . S
C4850 C4848 1.394 . S
C4850 C4851 1.369 . S
C4850 C4854 1.531 . S
C4851 C4850 1.369 . S
C4851 C4852 1.410 . S
C4851 C4859 1.503 . S
C4852 C4851 1.410 . S
C4852 C4853 1.392 . S
C4852 C4855 1.511 . S
C4853 C4849 1.376 . S
C4853 C4852 1.392 . S
C4853 H4865 0.929 . S
C4854 C4850 1.531 . S
C4854 H4866 0.960 . S
C4854 H4867 0.962 . S
C4854 H4868 0.960 . S
C4855 C4852 1.511 . S
C4855 H4869 0.961 . S
C4855 H4870 0.961 . S
C4855 H4871 0.961 . S
C4856 C4857 1.370 . S
C4856 C4858 1.363 . S
C4856 H4872 0.931 . S
C4857 C4856 1.370 . S
C4857 C4861 1.408 . S
C4858 C4856 1.363 . S
C4858 C4859 1.370 . S
C4858 C4862 1.524 . S
C4859 C4851 1.503 . S
C4859 C4858 1.370 . S
C4859 C4860 1.403 . S
C4860 C4859 1.403 . S
C4860 C4861 1.404 . S
C4860 C4863 1.539 . S
C4861 C4857 1.408 . S
C4861 C4860 1.404 . S
C4861 H4873 0.930 . S
C4862 C4858 1.524 . S
C4862 H4874 0.956 . S
C4862 H4875 0.961 . S
C4862 H4876 0.961 . S
C4863 C4860 1.539 . S
C4863 H4877 0.958 . S
C4863 H4878 0.961 . S
C4863 H4879 0.960 . S
H4864 C4848 0.931 . S
H4865 C4853 0.929 . S
H4866 C4854 0.960 . S
H4867 C4854 0.962 . S
H4868 C4854 0.960 . S
H4869 C4855 0.961 . S
H4870 C4855 0.961 . S
H4871 C4855 0.961 . S
H4872 C4856 0.931 . S
H4873 C4861 0.930 . S
H4874 C4862 0.956 . S
H4875 C4862 0.961 . S
H4876 C4862 0.961 . S
H4877 C4863 0.958 . S
H4878 C4863 0.961 . S
H4879 C4863 0.960 . S
C4880 C4881 1.391 . S
C4880 C4882 1.394 . S
C4880 H4896 0.931 . S
C4881 C4880 1.391 . S
C4881 C4885 1.376 . S
C4882 C4880 1.394 . S
C4882 C4883 1.369 . S
C4882 C4886 1.531 . S
C4883 C4882 1.369 . S
C4883 C4884 1.410 . S
C4883 C4891 1.503 . S
C4884 C4883 1.410 . S
C4884 C4885 1.392 . S
C4884 C4887 1.511 . S
C4885 C4881 1.376 . S
C4885 C4884 1.392 . S
C4885 H4897 0.929 . S
C4886 C4882 1.531 . S
C4886 H4898 0.960 . S
C4886 H4899 0.962 . S
C4886 H4900 0.960 . S
C4887 C4884 1.511 . S
C4887 H4901 0.961 . S
C4887 H4902 0.961 . S
C4887 H4903 0.961 . S
C4888 C4889 1.370 . S
C4888 C4890 1.363 . S
C4888 H4904 0.931 . S
C4889 C4888 1.370 . S
C4889 C4893 1.408 . S
C4890 C4888 1.363 . S
C4890 C4891 1.370 . S
C4890 C4894 1.524 . S
C4891 C4883 1.503 . S
C4891 C4890 1.370 . S
C4891 C4892 1.403 . S
C4892 C4891 1.403 . S
C4892 C4893 1.404 . S
C4892 C4895 1.539 . S
C4893 C4889 1.408 . S
C4893 C4892 1.404 . S
C4893 H4905 0.930 . S
C4894 C4890 1.524 . S
C4894 H4906 0.956 . S
C4894 H4907 0.961 . S
C4894 H4908 0.961 . S
C4895 C4892 1.539 . S
C4895 H4909 0.958 . S
C4895 H4910 0.961 . S
C4895 H4911 0.960 . S
H4896 C4880 0.931 . S
H4897 C4885 0.929 . S
H4898 C4886 0.960 . S
H4899 C4886 0.962 . S
H4900 C4886 0.960 . S
H4901 C4887 0.961 . S
H4902 C4887 0.961 . S
H4903 C4887 0.961 . S
H4904 C4888 0.931 . S
H4905 C4893 0.930 . S
H4906 C4894 0.956 . S
H4907 C4894 0.961 . S
H4908 C4894 0.961 . S
H4909 C4895 0.958 . S
H4910 C4895 0.961 . S
H4911 C4895 0.960 . S
C4912 C4913 1.391 . S
C4912 C4914 1.394 . S
C4912 H4928 0.931 . S
C4913 C4912 1.391 . S
C4913 C4917 1.376 . S
C4914 C4912 1.394 . S
C4914 C4915 1.369 . S
C4914 C4918 1.531 . S
C4915 C4914 1.369 . S
C4915 C4916 1.410 . S
C4915 C4923 1.503 . S
C4916 C4915 1.410 . S
C4916 C4917 1.392 . S
C4916 C4919 1.511 . S
C4917 C4913 1.376 . S
C4917 C4916 1.392 . S
C4917 H4929 0.929 . S
C4918 C4914 1.531 . S
C4918 H4930 0.960 . S
C4918 H4931 0.962 . S
C4918 H4932 0.960 . S
C4919 C4916 1.511 . S
C4919 H4933 0.961 . S
C4919 H4934 0.961 . S
C4919 H4935 0.961 . S
C4920 C4921 1.370 . S
C4920 C4922 1.363 . S
C4920 H4936 0.931 . S
C4921 C4920 1.370 . S
C4921 C4925 1.408 . S
C4922 C4920 1.363 . S
C4922 C4923 1.370 . S
C4922 C4926 1.524 . S
C4923 C4915 1.503 . S
C4923 C4922 1.370 . S
C4923 C4924 1.403 . S
C4924 C4923 1.403 . S
C4924 C4925 1.404 . S
C4924 C4927 1.539 . S
C4925 C4921 1.408 . S
C4925 C4924 1.404 . S
C4925 H4937 0.930 . S
C4926 C4922 1.524 . S
C4926 H4938 0.956 . S
C4926 H4939 0.961 . S
C4926 H4940 0.961 . S
C4927 C4924 1.539 . S
C4927 H4941 0.958 . S
C4927 H4942 0.961 . S
C4927 H4943 0.960 . S
H4928 C4912 0.931 . S
H4929 C4917 0.929 . S
H4930 C4918 0.960 . S
H4931 C4918 0.962 . S
H4932 C4918 0.960 . S
H4933 C4919 0.961 . S
H4934 C4919 0.961 . S
H4935 C4919 0.961 . S
H4936 C4920 0.931 . S
H4937 C4925 0.930 . S
H4938 C4926 0.956 . S
H4939 C4926 0.961 . S
H4940 C4926 0.961 . S
H4941 C4927 0.958 . S
H4942 C4927 0.961 . S
H4943 C4927 0.960 . S
C4944 C4945 1.391 . S
C4944 C4946 1.394 . S
C4944 H4960 0.931 . S
C4945 C4944 1.391 . S
C4945 C4949 1.376 . S
C4946 C4944 1.394 . S
C4946 C4947 1.369 . S
C4946 C4950 1.531 . S
C4947 C4946 1.369 . S
C4947 C4948 1.410 . S
C4947 C4955 1.503 . S
C4948 C4947 1.410 . S
C4948 C4949 1.392 . S
C4948 C4951 1.511 . S
C4949 C4945 1.376 . S
C4949 C4948 1.392 . S
C4949 H4961 0.929 . S
C4950 C4946 1.531 . S
C4950 H4962 0.960 . S
C4950 H4963 0.962 . S
C4950 H4964 0.960 . S
C4951 C4948 1.511 . S
C4951 H4965 0.961 . S
C4951 H4966 0.961 . S
C4951 H4967 0.961 . S
C4952 C4953 1.370 . S
C4952 C4954 1.363 . S
C4952 H4968 0.931 . S
C4953 C4952 1.370 . S
C4953 C4957 1.408 . S
C4954 C4952 1.363 . S
C4954 C4955 1.370 . S
C4954 C4958 1.524 . S
C4955 C4947 1.503 . S
C4955 C4954 1.370 . S
C4955 C4956 1.403 . S
C4956 C4955 1.403 . S
C4956 C4957 1.404 . S
C4956 C4959 1.539 . S
C4957 C4953 1.408 . S
C4957 C4956 1.404 . S
C4957 H4969 0.930 . S
C4958 C4954 1.524 . S
C4958 H4970 0.956 . S
C4958 H4971 0.961 . S
C4958 H4972 0.961 . S
C4959 C4956 1.539 . S
C4959 H4973 0.958 . S
C4959 H4974 0.961 . S
C4959 H4975 0.960 . S
H4960 C4944 0.931 . S
H4961 C4949 0.929 . S
H4962 C4950 0.960 . S
H4963 C4950 0.962 . S
H4964 C4950 0.960 . S
H4965 C4951 0.961 . S
H4966 C4951 0.961 . S
H4967 C4951 0.961 . S
H4968 C4952 0.931 . S
H4969 C4957 0.930 . S
H4970 C4958 0.956 . S
H4971 C4958 0.961 . S
H4972 C4958 0.961 . S
H4973 C4959 0.958 . S
H4974 C4959 0.961 . S
H4975 C4959 0.960 . S
C4976 C4977 1.391 . S
C4976 C4978 1.394 . S
C4976 H4992 0.931 . S
C4977 C4976 1.391 . S
C4977 C4981 1.376 . S
C4978 C4976 1.394 . S
C4978 C4979 1.369 . S
C4978 C4982 1.531 . S
C4979 C4978 1.369 . S
C4979 C4980 1.410 . S
C4979 C4987 1.503 . S
C4980 C4979 1.410 . S
C4980 C4981 1.392 . S
C4980 C4983 1.511 . S
C4981 C4977 1.376 . S
C4981 C4980 1.392 . S
C4981 H4993 0.929 . S
C4982 C4978 1.531 . S
C4982 H4994 0.960 . S
C4982 H4995 0.962 . S
C4982 H4996 0.960 . S
C4983 C4980 1.511 . S
C4983 H4997 0.961 . S
C4983 H4998 0.961 . S
C4983 H4999 0.961 . S
C4984 C4985 1.370 . S
C4984 C4986 1.363 . S
C4984 H5000 0.931 . S
C4985 C4984 1.370 . S
C4985 C4989 1.408 . S
C4986 C4984 1.363 . S
C4986 C4987 1.370 . S
C4986 C4990 1.524 . S
C4987 C4979 1.503 . S
C4987 C4986 1.370 . S
C4987 C4988 1.403 . S
C4988 C4987 1.403 . S
C4988 C4989 1.404 . S
C4988 C4991 1.539 . S
C4989 C4985 1.408 . S
C4989 C4988 1.404 . S
C4989 H5001 0.930 . S
C4990 C4986 1.524 . S
C4990 H5002 0.956 . S
C4990 H5003 0.961 . S
C4990 H5004 0.961 . S
C4991 C4988 1.539 . S
C4991 H5005 0.958 . S
C4991 H5006 0.961 . S
C4991 H5007 0.960 . S
H4992 C4976 0.931 . S
H4993 C4981 0.929 . S
H4994 C4982 0.960 . S
H4995 C4982 0.962 . S
H4996 C4982 0.960 . S
H4997 C4983 0.961 . S
H4998 C4983 0.961 . S
H4999 C4983 0.961 . S
H5000 C4984 0.931 . S
H5001 C4989 0.930 . S
H5002 C4990 0.956 . S
H5003 C4990 0.961 . S
H5004 C4990 0.961 . S
H5005 C4991 0.958 . S
H5006 C4991 0.961 . S
H5007 C4991 0.960 . S
C5008 C5009 1.391 . S
C5008 C5010 1.394 . S
C5008 H5024 0.931 . S
C5009 C5008 1.391 . S
C5009 C5013 1.376 . S
C5010 C5008 1.394 . S
C5010 C5011 1.369 . S
C5010 C5014 1.531 . S
C5011 C5010 1.369 . S
C5011 C5012 1.410 . S
C5011 C5019 1.503 . S
C5012 C5011 1.410 . S
C5012 C5013 1.392 . S
C5012 C5015 1.511 . S
C5013 C5009 1.376 . S
C5013 C5012 1.392 . S
C5013 H5025 0.929 . S
C5014 C5010 1.531 . S
C5014 H5026 0.960 . S
C5014 H5027 0.962 . S
C5014 H5028 0.960 . S
C5015 C5012 1.511 . S
C5015 H5029 0.961 . S
C5015 H5030 0.961 . S
C5015 H5031 0.961 . S
C5016 C5017 1.370 . S
C5016 C5018 1.363 . S
C5016 H5032 0.931 . S
C5017 C5016 1.370 . S
C5017 C5021 1.408 . S
C5018 C5016 1.363 . S
C5018 C5019 1.370 . S
C5018 C5022 1.524 . S
C5019 C5011 1.503 . S
C5019 C5018 1.370 . S
C5019 C5020 1.403 . S
C5020 C5019 1.403 . S
C5020 C5021 1.404 . S
C5020 C5023 1.539 . S
C5021 C5017 1.408 . S
C5021 C5020 1.404 . S
C5021 H5033 0.930 . S
C5022 C5018 1.524 . S
C5022 H5034 0.956 . S
C5022 H5035 0.961 . S
C5022 H5036 0.961 . S
C5023 C5020 1.539 . S
C5023 H5037 0.958 . S
C5023 H5038 0.961 . S
C5023 H5039 0.960 . S
H5024 C5008 0.931 . S
H5025 C5013 0.929 . S
H5026 C5014 0.960 . S
H5027 C5014 0.962 . S
H5028 C5014 0.960 . S
H5029 C5015 0.961 . S
H5030 C5015 0.961 . S
H5031 C5015 0.961 . S
H5032 C5016 0.931 . S
H5033 C5021 0.930 . S
H5034 C5022 0.956 . S
H5035 C5022 0.961 . S
H5036 C5022 0.961 . S
H5037 C5023 0.958 . S
H5038 C5023 0.961 . S
H5039 C5023 0.960 . S
C5040 C5041 1.391 . S
C5040 C5042 1.394 . S
C5040 H5056 0.931 . S
C5041 C5040 1.391 . S
C5041 C5045 1.376 . S
C5042 C5040 1.394 . S
C5042 C5043 1.369 . S
C5042 C5046 1.531 . S
C5043 C5042 1.369 . S
C5043 C5044 1.410 . S
C5043 C5051 1.503 . S
C5044 C5043 1.410 . S
C5044 C5045 1.392 . S
C5044 C5047 1.511 . S
C5045 C5041 1.376 . S
C5045 C5044 1.392 . S
C5045 H5057 0.929 . S
C5046 C5042 1.531 . S
C5046 H5058 0.960 . S
C5046 H5059 0.962 . S
C5046 H5060 0.960 . S
C5047 C5044 1.511 . S
C5047 H5061 0.961 . S
C5047 H5062 0.961 . S
C5047 H5063 0.961 . S
C5048 C5049 1.370 . S
C5048 C5050 1.363 . S
C5048 H5064 0.931 . S
C5049 C5048 1.370 . S
C5049 C5053 1.408 . S
C5050 C5048 1.363 . S
C5050 C5051 1.370 . S
C5050 C5054 1.524 . S
C5051 C5043 1.503 . S
C5051 C5050 1.370 . S
C5051 C5052 1.403 . S
C5052 C5051 1.403 . S
C5052 C5053 1.404 . S
C5052 C5055 1.539 . S
C5053 C5049 1.408 . S
C5053 C5052 1.404 . S
C5053 H5065 0.930 . S
C5054 C5050 1.524 . S
C5054 H5066 0.956 . S
C5054 H5067 0.961 . S
C5054 H5068 0.961 . S
C5055 C5052 1.539 . S
C5055 H5069 0.958 . S
C5055 H5070 0.961 . S
C5055 H5071 0.960 . S
H5056 C5040 0.931 . S
H5057 C5045 0.929 . S
H5058 C5046 0.960 . S
H5059 C5046 0.962 . S
H5060 C5046 0.960 . S
H5061 C5047 0.961 . S
H5062 C5047 0.961 . S
H5063 C5047 0.961 . S
H5064 C5048 0.931 . S
H5065 C5053 0.930 . S
H5066 C5054 0.956 . S
H5067 C5054 0.961 . S
H5068 C5054 0.961 . S
H5069 C5055 0.958 . S
H5070 C5055 0.961 . S
H5071 C5055 0.960 . S
C5072 C5073 1.391 . S
C5072 C5074 1.394 . S
C5072 H5088 0.931 . S
C5073 C5072 1.391 . S
C5073 C5077 1.376 . S
C5074 C5072 1.394 . S
C5074 C5075 1.369 . S
C5074 C5078 1.531 . S
C5075 C5074 1.369 . S
C5075 C5076 1.410 . S
C5075 C5083 1.503 . S
C5076 C5075 1.410 . S
C5076 C5077 1.392 . S
C5076 C5079 1.511 . S
C5077 C5073 1.376 . S
C5077 C5076 1.392 . S
C5077 H5089 0.929 . S
C5078 C5074 1.531 . S
C5078 H5090 0.960 . S
C5078 H5091 0.962 . S
C5078 H5092 0.960 . S
C5079 C5076 1.511 . S
C5079 H5093 0.961 . S
C5079 H5094 0.961 . S
C5079 H5095 0.961 . S
C5080 C5081 1.370 . S
C5080 C5082 1.363 . S
C5080 H5096 0.931 . S
C5081 C5080 1.370 . S
C5081 C5085 1.408 . S
C5082 C5080 1.363 . S
C5082 C5083 1.370 . S
C5082 C5086 1.524 . S
C5083 C5075 1.503 . S
C5083 C5082 1.370 . S
C5083 C5084 1.403 . S
C5084 C5083 1.403 . S
C5084 C5085 1.404 . S
C5084 C5087 1.539 . S
C5085 C5081 1.408 . S
C5085 C5084 1.404 . S
C5085 H5097 0.930 . S
C5086 C5082 1.524 . S
C5086 H5098 0.956 . S
C5086 H5099 0.961 . S
C5086 H5100 0.961 . S
C5087 C5084 1.539 . S
C5087 H5101 0.958 . S
C5087 H5102 0.961 . S
C5087 H5103 0.960 . S
H5088 C5072 0.931 . S
H5089 C5077 0.929 . S
H5090 C5078 0.960 . S
H5091 C5078 0.962 . S
H5092 C5078 0.960 . S
H5093 C5079 0.961 . S
H5094 C5079 0.961 . S
H5095 C5079 0.961 . S
H5096 C5080 0.931 . S
H5097 C5085 0.930 . S
H5098 C5086 0.956 . S
H5099 C5086 0.961 . S
H5100 C5086 0.961 . S
H5101 C5087 0.958 . S
H5102 C5087 0.961 . S
H5103 C5087 0.960 . S
C5104 C5105 1.391 . S
C5104 C5106 1.394 . S
C5104 H5120 0.931 . S
C5105 C5104 1.391 . S
C5105 C5109 1.376 . S
C5106 C5104 1.394 . S
C5106 C5107 1.369 . S
C5106 C5110 1.531 . S
C5107 C5106 1.369 . S
C5107 C5108 1.410 . S
C5107 C5115 1.503 . S
C5108 C5107 1.410 . S
C5108 C5109 1.392 . S
C5108 C5111 1.511 . S
C5109 C5105 1.376 . S
C5109 C5108 1.392 . S
C5109 H5121 0.929 . S
C5110 C5106 1.531 . S
C5110 H5122 0.960 . S
C5110 H5123 0.962 . S
C5110 H5124 0.960 . S
C5111 C5108 1.511 . S
C5111 H5125 0.961 . S
C5111 H5126 0.961 . S
C5111 H5127 0.961 . S
C5112 C5113 1.370 . S
C5112 C5114 1.363 . S
C5112 H5128 0.931 . S
C5113 C5112 1.370 . S
C5113 C5117 1.408 . S
C5114 C5112 1.363 . S
C5114 C5115 1.370 . S
C5114 C5118 1.524 . S
C5115 C5107 1.503 . S
C5115 C5114 1.370 . S
C5115 C5116 1.403 . S
C5116 C5115 1.403 . S
C5116 C5117 1.404 . S
C5116 C5119 1.539 . S
C5117 C5113 1.408 . S
C5117 C5116 1.404 . S
C5117 H5129 0.930 . S
C5118 C5114 1.524 . S
C5118 H5130 0.956 . S
C5118 H5131 0.961 . S
C5118 H5132 0.961 . S
C5119 C5116 1.539 . S
C5119 H5133 0.958 . S
C5119 H5134 0.961 . S
C5119 H5135 0.960 . S
H5120 C5104 0.931 . S
H5121 C5109 0.929 . S
H5122 C5110 0.960 . S
H5123 C5110 0.962 . S
H5124 C5110 0.960 . S
H5125 C5111 0.961 . S
H5126 C5111 0.961 . S
H5127 C5111 0.961 . S
H5128 C5112 0.931 . S
H5129 C5117 0.930 . S
H5130 C5118 0.956 . S
H5131 C5118 0.961 . S
H5132 C5118 0.961 . S
H5133 C5119 0.958 . S
H5134 C5119 0.961 . S
H5135 C5119 0.960 . S
C5136 C5137 1.391 . S
C5136 C5138 1.394 . S
C5136 H5152 0.931 . S
C5137 C5136 1.391 . S
C5137 C5141 1.376 . S
C5138 C5136 1.394 . S
C5138 C5139 1.369 . S
C5138 C5142 1.531 . S
C5139 C5138 1.369 . S
C5139 C5140 1.410 . S
C5139 C5147 1.503 . S
C5140 C5139 1.410 . S
C5140 C5141 1.392 . S
C5140 C5143 1.511 . S
C5141 C5137 1.376 . S
C5141 C5140 1.392 . S
C5141 H5153 0.929 . S
C5142 C5138 1.531 . S
C5142 H5154 0.960 . S
C5142 H5155 0.962 . S
C5142 H5156 0.960 . S
C5143 C5140 1.511 . S
C5143 H5157 0.961 . S
C5143 H5158 0.961 . S
C5143 H5159 0.961 . S
C5144 C5145 1.370 . S
C5144 C5146 1.363 . S
C5144 H5160 0.931 . S
C5145 C5144 1.370 . S
C5145 C5149 1.408 . S
C5146 C5144 1.363 . S
C5146 C5147 1.370 . S
C5146 C5150 1.524 . S
C5147 C5139 1.503 . S
C5147 C5146 1.370 . S
C5147 C5148 1.403 . S
C5148 C5147 1.403 . S
C5148 C5149 1.404 . S
C5148 C5151 1.539 . S
C5149 C5145 1.408 . S
C5149 C5148 1.404 . S
C5149 H5161 0.930 . S
C5150 C5146 1.524 . S
C5150 H5162 0.956 . S
C5150 H5163 0.961 . S
C5150 H5164 0.961 . S
C5151 C5148 1.539 . S
C5151 H5165 0.958 . S
C5151 H5166 0.961 . S
C5151 H5167 0.960 . S
H5152 C5136 0.931 . S
H5153 C5141 0.929 . S
H5154 C5142 0.960 . S
H5155 C5142 0.962 . S
H5156 C5142 0.960 . S
H5157 C5143 0.961 . S
H5158 C5143 0.961 . S
H5159 C5143 0.961 . S
H5160 C5144 0.931 . S
H5161 C5149 0.930 . S
H5162 C5150 0.956 . S
H5163 C5150 0.961 . S
H5164 C5150 0.961 . S
H5165 C5151 0.958 . S
H5166 C5151 0.961 . S
H5167 C5151 0.960 . S
C5168 C5169 1.391 . S
C5168 C5170 1.394 . S
C5168 H5184 0.931 . S
C5169 C5168 1.391 . S
C5169 C5173 1.376 . S
C5170 C5168 1.394 . S
C5170 C5171 1.369 . S
C5170 C5174 1.531 . S
C5171 C5170 1.369 . S
C5171 C5172 1.410 . S
C5171 C5179 1.503 . S
C5172 C5171 1.410 . S
C5172 C5173 1.392 . S
C5172 C5175 1.511 . S
C5173 C5169 1.376 . S
C5173 C5172 1.392 . S
C5173 H5185 0.929 . S
C5174 C5170 1.531 . S
C5174 H5186 0.960 . S
C5174 H5187 0.962 . S
C5174 H5188 0.960 . S
C5175 C5172 1.511 . S
C5175 H5189 0.961 . S
C5175 H5190 0.961 . S
C5175 H5191 0.961 . S
C5176 C5177 1.370 . S
C5176 C5178 1.363 . S
C5176 H5192 0.931 . S
C5177 C5176 1.370 . S
C5177 C5181 1.408 . S
C5178 C5176 1.363 . S
C5178 C5179 1.370 . S
C5178 C5182 1.524 . S
C5179 C5171 1.503 . S
C5179 C5178 1.370 . S
C5179 C5180 1.403 . S
C5180 C5179 1.403 . S
C5180 C5181 1.404 . S
C5180 C5183 1.539 . S
C5181 C5177 1.408 . S
C5181 C5180 1.404 . S
C5181 H5193 0.930 . S
C5182 C5178 1.524 . S
C5182 H5194 0.956 . S
C5182 H5195 0.961 . S
C5182 H5196 0.961 . S
C5183 C5180 1.539 . S
C5183 H5197 0.958 . S
C5183 H5198 0.961 . S
C5183 H5199 0.960 . S
H5184 C5168 0.931 . S
H5185 C5173 0.929 . S
H5186 C5174 0.960 . S
H5187 C5174 0.962 . S
H5188 C5174 0.960 . S
H5189 C5175 0.961 . S
H5190 C5175 0.961 . S
H5191 C5175 0.961 . S
H5192 C5176 0.931 . S
H5193 C5181 0.930 . S
H5194 C5182 0.956 . S
H5195 C5182 0.961 . S
H5196 C5182 0.961 . S
H5197 C5183 0.958 . S
H5198 C5183 0.961 . S
H5199 C5183 0.960 . S
C5200 C5201 1.391 . S
C5200 C5202 1.394 . S
C5200 H5216 0.931 . S
C5201 C5200 1.391 . S
C5201 C5205 1.376 . S
C5202 C5200 1.394 . S
C5202 C5203 1.369 . S
C5202 C5206 1.531 . S
C5203 C5202 1.369 . S
C5203 C5204 1.410 . S
C5203 C5211 1.503 . S
C5204 C5203 1.410 . S
C5204 C5205 1.392 . S
C5204 C5207 1.511 . S
C5205 C5201 1.376 . S
C5205 C5204 1.392 . S
C5205 H5217 0.929 . S
C5206 C5202 1.531 . S
C5206 H5218 0.960 . S
C5206 H5219 0.962 . S
C5206 H5220 0.960 . S
C5207 C5204 1.511 . S
C5207 H5221 0.961 . S
C5207 H5222 0.961 . S
C5207 H5223 0.961 . S
C5208 C5209 1.370 . S
C5208 C5210 1.363 . S
C5208 H5224 0.931 . S
C5209 C5208 1.370 . S
C5209 C5213 1.408 . S
C5210 C5208 1.363 . S
C5210 C5211 1.370 . S
C5210 C5214 1.524 . S
C5211 C5203 1.503 . S
C5211 C5210 1.370 . S
C5211 C5212 1.403 . S
C5212 C5211 1.403 . S
C5212 C5213 1.404 . S
C5212 C5215 1.539 . S
C5213 C5209 1.408 . S
C5213 C5212 1.404 . S
C5213 H5225 0.930 . S
C5214 C5210 1.524 . S
C5214 H5226 0.956 . S
C5214 H5227 0.961 . S
C5214 H5228 0.961 . S
C5215 C5212 1.539 . S
C5215 H5229 0.958 . S
C5215 H5230 0.961 . S
C5215 H5231 0.960 . S
H5216 C5200 0.931 . S
H5217 C5205 0.929 . S
H5218 C5206 0.960 . S
H5219 C5206 0.962 . S
H5220 C5206 0.960 . S
H5221 C5207 0.961 . S
H5222 C5207 0.961 . S
H5223 C5207 0.961 . S
H5224 C5208 0.931 . S
H5225 C5213 0.930 . S
H5226 C5214 0.956 . S
H5227 C5214 0.961 . S
H5228 C5214 0.961 . S
H5229 C5215 0.958 . S
H5230 C5215 0.961 . S
H5231 C5215 0.960 . S
C5232 C5233 1.391 . S
C5232 C5234 1.394 . S
C5232 H5248 0.931 . S
C5233 C5232 1.391 . S
C5233 C5237 1.376 . S
C5234 C5232 1.394 . S
C5234 C5235 1.369 . S
C5234 C5238 1.531 . S
C5235 C5234 1.369 . S
C5235 C5236 1.410 . S
C5235 C5243 1.503 . S
C5236 C5235 1.410 . S
C5236 C5237 1.392 . S
C5236 C5239 1.511 . S
C5237 C5233 1.376 . S
C5237 C5236 1.392 . S
C5237 H5249 0.929 . S
C5238 C5234 1.531 . S
C5238 H5250 0.960 . S
C5238 H5251 0.962 . S
C5238 H5252 0.960 . S
C5239 C5236 1.511 . S
C5239 H5253 0.961 . S
C5239 H5254 0.961 . S
C5239 H5255 0.961 . S
C5240 C5241 1.370 . S
C5240 C5242 1.363 . S
C5240 H5256 0.931 . S
C5241 C5240 1.370 . S
C5241 C5245 1.408 . S
C5242 C5240 1.363 . S
C5242 C5243 1.370 . S
C5242 C5246 1.524 . S
C5243 C5235 1.503 . S
C5243 C5242 1.370 . S
C5243 C5244 1.403 . S
C5244 C5243 1.403 . S
C5244 C5245 1.404 . S
C5244 C5247 1.539 . S
C5245 C5241 1.408 . S
C5245 C5244 1.404 . S
C5245 H5257 0.930 . S
C5246 C5242 1.524 . S
C5246 H5258 0.956 . S
C5246 H5259 0.961 . S
C5246 H5260 0.961 . S
C5247 C5244 1.539 . S
C5247 H5261 0.958 . S
C5247 H5262 0.961 . S
C5247 H5263 0.960 . S
H5248 C5232 0.931 . S
H5249 C5237 0.929 . S
H5250 C5238 0.960 . S
H5251 C5238 0.962 . S
H5252 C5238 0.960 . S
H5253 C5239 0.961 . S
H5254 C5239 0.961 . S
H5255 C5239 0.961 . S
H5256 C5240 0.931 . S
H5257 C5245 0.930 . S
H5258 C5246 0.956 . S
H5259 C5246 0.961 . S
H5260 C5246 0.961 . S
H5261 C5247 0.958 . S
H5262 C5247 0.961 . S
H5263 C5247 0.960 . S
C5264 C5265 1.391 . S
C5264 C5266 1.394 . S
C5264 H5280 0.931 . S
C5265 C5264 1.391 . S
C5265 C5269 1.376 . S
C5266 C5264 1.394 . S
C5266 C5267 1.369 . S
C5266 C5270 1.531 . S
C5267 C5266 1.369 . S
C5267 C5268 1.410 . S
C5267 C5275 1.503 . S
C5268 C5267 1.410 . S
C5268 C5269 1.392 . S
C5268 C5271 1.511 . S
C5269 C5265 1.376 . S
C5269 C5268 1.392 . S
C5269 H5281 0.929 . S
C5270 C5266 1.531 . S
C5270 H5282 0.960 . S
C5270 H5283 0.962 . S
C5270 H5284 0.960 . S
C5271 C5268 1.511 . S
C5271 H5285 0.961 . S
C5271 H5286 0.961 . S
C5271 H5287 0.961 . S
C5272 C5273 1.370 . S
C5272 C5274 1.363 . S
C5272 H5288 0.931 . S
C5273 C5272 1.370 . S
C5273 C5277 1.408 . S
C5274 C5272 1.363 . S
C5274 C5275 1.370 . S
C5274 C5278 1.524 . S
C5275 C5267 1.503 . S
C5275 C5274 1.370 . S
C5275 C5276 1.403 . S
C5276 C5275 1.403 . S
C5276 C5277 1.404 . S
C5276 C5279 1.539 . S
C5277 C5273 1.408 . S
C5277 C5276 1.404 . S
C5277 H5289 0.930 . S
C5278 C5274 1.524 . S
C5278 H5290 0.956 . S
C5278 H5291 0.961 . S
C5278 H5292 0.961 . S
C5279 C5276 1.539 . S
C5279 H5293 0.958 . S
C5279 H5294 0.961 . S
C5279 H5295 0.960 . S
H5280 C5264 0.931 . S
H5281 C5269 0.929 . S
H5282 C5270 0.960 . S
H5283 C5270 0.962 . S
H5284 C5270 0.960 . S
H5285 C5271 0.961 . S
H5286 C5271 0.961 . S
H5287 C5271 0.961 . S
H5288 C5272 0.931 . S
H5289 C5277 0.930 . S
H5290 C5278 0.956 . S
H5291 C5278 0.961 . S
H5292 C5278 0.961 . S
H5293 C5279 0.958 . S
H5294 C5279 0.961 . S
H5295 C5279 0.960 . S
C5296 C5297 1.391 . S
C5296 C5298 1.394 . S
C5296 H5312 0.931 . S
C5297 C5296 1.391 . S
C5297 C5301 1.376 . S
C5298 C5296 1.394 . S
C5298 C5299 1.369 . S
C5298 C5302 1.531 . S
C5299 C5298 1.369 . S
C5299 C5300 1.410 . S
C5299 C5307 1.503 . S
C5300 C5299 1.410 . S
C5300 C5301 1.392 . S
C5300 C5303 1.511 . S
C5301 C5297 1.376 . S
C5301 C5300 1.392 . S
C5301 H5313 0.929 . S
C5302 C5298 1.531 . S
C5302 H5314 0.960 . S
C5302 H5315 0.962 . S
C5302 H5316 0.960 . S
C5303 C5300 1.511 . S
C5303 H5317 0.961 . S
C5303 H5318 0.961 . S
C5303 H5319 0.961 . S
C5304 C5305 1.370 . S
C5304 C5306 1.363 . S
C5304 H5320 0.931 . S
C5305 C5304 1.370 . S
C5305 C5309 1.408 . S
C5306 C5304 1.363 . S
C5306 C5307 1.370 . S
C5306 C5310 1.524 . S
C5307 C5299 1.503 . S
C5307 C5306 1.370 . S
C5307 C5308 1.403 . S
C5308 C5307 1.403 . S
C5308 C5309 1.404 . S
C5308 C5311 1.539 . S
C5309 C5305 1.408 . S
C5309 C5308 1.404 . S
C5309 H5321 0.930 . S
C5310 C5306 1.524 . S
C5310 H5322 0.956 . S
C5310 H5323 0.961 . S
C5310 H5324 0.961 . S
C5311 C5308 1.539 . S
C5311 H5325 0.958 . S
C5311 H5326 0.961 . S
C5311 H5327 0.960 . S
H5312 C5296 0.931 . S
H5313 C5301 0.929 . S
H5314 C5302 0.960 . S
H5315 C5302 0.962 . S
H5316 C5302 0.960 . S
H5317 C5303 0.961 . S
H5318 C5303 0.961 . S
H5319 C5303 0.961 . S
H5320 C5304 0.931 . S
H5321 C5309 0.930 . S
H5322 C5310 0.956 . S
H5323 C5310 0.961 . S
H5324 C5310 0.961 . S
H5325 C5311 0.958 . S
H5326 C5311 0.961 . S
H5327 C5311 0.960 . S
C5328 C5329 1.391 . S
C5328 C5330 1.394 . S
C5328 H5344 0.931 . S
C5329 C5328 1.391 . S
C5329 C5333 1.376 . S
C5330 C5328 1.394 . S
C5330 C5331 1.369 . S
C5330 C5334 1.531 . S
C5331 C5330 1.369 . S
C5331 C5332 1.410 . S
C5331 C5339 1.503 . S
C5332 C5331 1.410 . S
C5332 C5333 1.392 . S
C5332 C5335 1.511 . S
C5333 C5329 1.376 . S
C5333 C5332 1.392 . S
C5333 H5345 0.929 . S
C5334 C5330 1.531 . S
C5334 H5346 0.960 . S
C5334 H5347 0.962 . S
C5334 H5348 0.960 . S
C5335 C5332 1.511 . S
C5335 H5349 0.961 . S
C5335 H5350 0.961 . S
C5335 H5351 0.961 . S
C5336 C5337 1.370 . S
C5336 C5338 1.363 . S
C5336 H5352 0.931 . S
C5337 C5336 1.370 . S
C5337 C5341 1.408 . S
C5338 C5336 1.363 . S
C5338 C5339 1.370 . S
C5338 C5342 1.524 . S
C5339 C5331 1.503 . S
C5339 C5338 1.370 . S
C5339 C5340 1.403 . S
C5340 C5339 1.403 . S
C5340 C5341 1.404 . S
C5340 C5343 1.539 . S
C5341 C5337 1.408 . S
C5341 C5340 1.404 . S
C5341 H5353 0.930 . S
C5342 C5338 1.524 . S
C5342 H5354 0.956 . S
C5342 H5355 0.961 . S
C5342 H5356 0.961 . S
C5343 C5340 1.539 . S
C5343 H5357 0.958 . S
C5343 H5358 0.961 . S
C5343 H5359 0.960 . S
H5344 C5328 0.931 . S
H5345 C5333 0.929 . S
H5346 C5334 0.960 . S
H5347 C5334 0.962 . S
H5348 C5334 0.960 . S
H5349 C5335 0.961 . S
H5350 C5335 0.961 . S
H5351 C5335 0.961 . S
H5352 C5336 0.931 . S
H5353 C5341 0.930 . S
H5354 C5342 0.956 . S
H5355 C5342 0.961 . S
H5356 C5342 0.961 . S
H5357 C5343 0.958 . S
H5358 C5343 0.961 . S
H5359 C5343 0.960 . S
C5360 C5361 1.391 . S
C5360 C5362 1.394 . S
C5360 H5376 0.931 . S
C5361 C5360 1.391 . S
C5361 C5365 1.376 . S
C5362 C5360 1.394 . S
C5362 C5363 1.369 . S
C5362 C5366 1.531 . S
C5363 C5362 1.369 . S
C5363 C5364 1.410 . S
C5363 C5371 1.503 . S
C5364 C5363 1.410 . S
C5364 C5365 1.392 . S
C5364 C5367 1.511 . S
C5365 C5361 1.376 . S
C5365 C5364 1.392 . S
C5365 H5377 0.929 . S
C5366 C5362 1.531 . S
C5366 H5378 0.960 . S
C5366 H5379 0.962 . S
C5366 H5380 0.960 . S
C5367 C5364 1.511 . S
C5367 H5381 0.961 . S
C5367 H5382 0.961 . S
C5367 H5383 0.961 . S
C5368 C5369 1.370 . S
C5368 C5370 1.363 . S
C5368 H5384 0.931 . S
C5369 C5368 1.370 . S
C5369 C5373 1.408 . S
C5370 C5368 1.363 . S
C5370 C5371 1.370 . S
C5370 C5374 1.524 . S
C5371 C5363 1.503 . S
C5371 C5370 1.370 . S
C5371 C5372 1.403 . S
C5372 C5371 1.403 . S
C5372 C5373 1.404 . S
C5372 C5375 1.539 . S
C5373 C5369 1.408 . S
C5373 C5372 1.404 . S
C5373 H5385 0.930 . S
C5374 C5370 1.524 . S
C5374 H5386 0.956 . S
C5374 H5387 0.961 . S
C5374 H5388 0.961 . S
C5375 C5372 1.539 . S
C5375 H5389 0.958 . S
C5375 H5390 0.961 . S
C5375 H5391 0.960 . S
H5376 C5360 0.931 . S
H5377 C5365 0.929 . S
H5378 C5366 0.960 . S
H5379 C5366 0.962 . S
H5380 C5366 0.960 . S
H5381 C5367 0.961 . S
H5382 C5367 0.961 . S
H5383 C5367 0.961 . S
H5384 C5368 0.931 . S
H5385 C5373 0.930 . S
H5386 C5374 0.956 . S
H5387 C5374 0.961 . S
H5388 C5374 0.961 . S
H5389 C5375 0.958 . S
H5390 C5375 0.961 . S
H5391 C5375 0.960 . S
C5392 C5393 1.391 . S
C5392 C5394 1.394 . S
C5392 H5408 0.931 . S
C5393 C5392 1.391 . S
C5393 C5397 1.376 . S
C5394 C5392 1.394 . S
C5394 C5395 1.369 . S
C5394 C5398 1.531 . S
C5395 C5394 1.369 . S
C5395 C5396 1.410 . S
C5395 C5403 1.503 . S
C5396 C5395 1.410 . S
C5396 C5397 1.392 . S
C5396 C5399 1.511 . S
C5397 C5393 1.376 . S
C5397 C5396 1.392 . S
C5397 H5409 0.929 . S
C5398 C5394 1.531 . S
C5398 H5410 0.960 . S
C5398 H5411 0.962 . S
C5398 H5412 0.960 . S
C5399 C5396 1.511 . S
C5399 H5413 0.961 . S
C5399 H5414 0.961 . S
C5399 H5415 0.961 . S
C5400 C5401 1.370 . S
C5400 C5402 1.363 . S
C5400 H5416 0.931 . S
C5401 C5400 1.370 . S
C5401 C5405 1.408 . S
C5402 C5400 1.363 . S
C5402 C5403 1.370 . S
C5402 C5406 1.524 . S
C5403 C5395 1.503 . S
C5403 C5402 1.370 . S
C5403 C5404 1.403 . S
C5404 C5403 1.403 . S
C5404 C5405 1.404 . S
C5404 C5407 1.539 . S
C5405 C5401 1.408 . S
C5405 C5404 1.404 . S
C5405 H5417 0.930 . S
C5406 C5402 1.524 . S
C5406 H5418 0.956 . S
C5406 H5419 0.961 . S
C5406 H5420 0.961 . S
C5407 C5404 1.539 . S
C5407 H5421 0.958 . S
C5407 H5422 0.961 . S
C5407 H5423 0.960 . S
H5408 C5392 0.931 . S
H5409 C5397 0.929 . S
H5410 C5398 0.960 . S
H5411 C5398 0.962 . S
H5412 C5398 0.960 . S
H5413 C5399 0.961 . S
H5414 C5399 0.961 . S
H5415 C5399 0.961 . S
H5416 C5400 0.931 . S
H5417 C5405 0.930 . S
H5418 C5406 0.956 . S
H5419 C5406 0.961 . S
H5420 C5406 0.961 . S
H5421 C5407 0.958 . S
H5422 C5407 0.961 . S
H5423 C5407 0.960 . S
C5424 C5425 1.391 . S
C5424 C5426 1.394 . S
C5424 H5440 0.931 . S
C5425 C5424 1.391 . S
C5425 C5429 1.376 . S
C5426 C5424 1.394 . S
C5426 C5427 1.369 . S
C5426 C5430 1.531 . S
C5427 C5426 1.369 . S
C5427 C5428 1.410 . S
C5427 C5435 1.503 . S
C5428 C5427 1.410 . S
C5428 C5429 1.392 . S
C5428 C5431 1.511 . S
C5429 C5425 1.376 . S
C5429 C5428 1.392 . S
C5429 H5441 0.929 . S
C5430 C5426 1.531 . S
C5430 H5442 0.960 . S
C5430 H5443 0.962 . S
C5430 H5444 0.960 . S
C5431 C5428 1.511 . S
C5431 H5445 0.961 . S
C5431 H5446 0.961 . S
C5431 H5447 0.961 . S
C5432 C5433 1.370 . S
C5432 C5434 1.363 . S
C5432 H5448 0.931 . S
C5433 C5432 1.370 . S
C5433 C5437 1.408 . S
C5434 C5432 1.363 . S
C5434 C5435 1.370 . S
C5434 C5438 1.524 . S
C5435 C5427 1.503 . S
C5435 C5434 1.370 . S
C5435 C5436 1.403 . S
C5436 C5435 1.403 . S
C5436 C5437 1.404 . S
C5436 C5439 1.539 . S
C5437 C5433 1.408 . S
C5437 C5436 1.404 . S
C5437 H5449 0.930 . S
C5438 C5434 1.524 . S
C5438 H5450 0.956 . S
C5438 H5451 0.961 . S
C5438 H5452 0.961 . S
C5439 C5436 1.539 . S
C5439 H5453 0.958 . S
C5439 H5454 0.961 . S
C5439 H5455 0.960 . S
H5440 C5424 0.931 . S
H5441 C5429 0.929 . S
H5442 C5430 0.960 . S
H5443 C5430 0.962 . S
H5444 C5430 0.960 . S
H5445 C5431 0.961 . S
H5446 C5431 0.961 . S
H5447 C5431 0.961 . S
H5448 C5432 0.931 . S
H5449 C5437 0.930 . S
H5450 C5438 0.956 . S
H5451 C5438 0.961 . S
H5452 C5438 0.961 . S
H5453 C5439 0.958 . S
H5454 C5439 0.961 . S
H5455 C5439 0.960 . S
C5456 C5457 1.391 . S
C5456 C5458 1.394 . S
C5456 H5472 0.931 . S
C5457 C5456 1.391 . S
C5457 C5461 1.376 . S
C5458 C5456 1.394 . S
C5458 C5459 1.369 . S
C5458 C5462 1.531 . S
C5459 C5458 1.369 . S
C5459 C5460 1.410 . S
C5459 C5467 1.503 . S
C5460 C5459 1.410 . S
C5460 C5461 1.392 . S
C5460 C5463 1.511 . S
C5461 C5457 1.376 . S
C5461 C5460 1.392 . S
C5461 H5473 0.929 . S
C5462 C5458 1.531 . S
C5462 H5474 0.960 . S
C5462 H5475 0.962 . S
C5462 H5476 0.960 . S
C5463 C5460 1.511 . S
C5463 H5477 0.961 . S
C5463 H5478 0.961 . S
C5463 H5479 0.961 . S
C5464 C5465 1.370 . S
C5464 C5466 1.363 . S
C5464 H5480 0.931 . S
C5465 C5464 1.370 . S
C5465 C5469 1.408 . S
C5466 C5464 1.363 . S
C5466 C5467 1.370 . S
C5466 C5470 1.524 . S
C5467 C5459 1.503 . S
C5467 C5466 1.370 . S
C5467 C5468 1.403 . S
C5468 C5467 1.403 . S
C5468 C5469 1.404 . S
C5468 C5471 1.539 . S
C5469 C5465 1.408 . S
C5469 C5468 1.404 . S
C5469 H5481 0.930 . S
C5470 C5466 1.524 . S
C5470 H5482 0.956 . S
C5470 H5483 0.961 . S
C5470 H5484 0.961 . S
C5471 C5468 1.539 . S
C5471 H5485 0.958 . S
C5471 H5486 0.961 . S
C5471 H5487 0.960 . S
H5472 C5456 0.931 . S
H5473 C5461 0.929 . S
H5474 C5462 0.960 . S
H5475 C5462 0.962 . S
H5476 C5462 0.960 . S
H5477 C5463 0.961 . S
H5478 C5463 0.961 . S
H5479 C5463 0.961 . S
H5480 C5464 0.931 . S
H5481 C5469 0.930 . S
H5482 C5470 0.956 . S
H5483 C5470 0.961 . S
H5484 C5470 0.961 . S
H5485 C5471 0.958 . S
H5486 C5471 0.961 . S
H5487 C5471 0.960 . S
C5488 C5489 1.391 . S
C5488 C5490 1.394 . S
C5488 H5504 0.931 . S
C5489 C5488 1.391 . S
C5489 C5493 1.376 . S
C5490 C5488 1.394 . S
C5490 C5491 1.369 . S
C5490 C5494 1.531 . S
C5491 C5490 1.369 . S
C5491 C5492 1.410 . S
C5491 C5499 1.503 . S
C5492 C5491 1.410 . S
C5492 C5493 1.392 . S
C5492 C5495 1.511 . S
C5493 C5489 1.376 . S
C5493 C5492 1.392 . S
C5493 H5505 0.929 . S
C5494 C5490 1.531 . S
C5494 H5506 0.960 . S
C5494 H5507 0.962 . S
C5494 H5508 0.960 . S
C5495 C5492 1.511 . S
C5495 H5509 0.961 . S
C5495 H5510 0.961 . S
C5495 H5511 0.961 . S
C5496 C5497 1.370 . S
C5496 C5498 1.363 . S
C5496 H5512 0.931 . S
C5497 C5496 1.370 . S
C5497 C5501 1.408 . S
C5498 C5496 1.363 . S
C5498 C5499 1.370 . S
C5498 C5502 1.524 . S
C5499 C5491 1.503 . S
C5499 C5498 1.370 . S
C5499 C5500 1.403 . S
C5500 C5499 1.403 . S
C5500 C5501 1.404 . S
C5500 C5503 1.539 . S
C5501 C5497 1.408 . S
C5501 C5500 1.404 . S
C5501 H5513 0.930 . S
C5502 C5498 1.524 . S
C5502 H5514 0.956 . S
C5502 H5515 0.961 . S
C5502 H5516 0.961 . S
C5503 C5500 1.539 . S
C5503 H5517 0.958 . S
C5503 H5518 0.961 . S
C5503 H5519 0.960 . S
H5504 C5488 0.931 . S
H5505 C5493 0.929 . S
H5506 C5494 0.960 . S
H5507 C5494 0.962 . S
H5508 C5494 0.960 . S
H5509 C5495 0.961 . S
H5510 C5495 0.961 . S
H5511 C5495 0.961 . S
H5512 C5496 0.931 . S
H5513 C5501 0.930 . S
H5514 C5502 0.956 . S
H5515 C5502 0.961 . S
H5516 C5502 0.961 . S
H5517 C5503 0.958 . S
H5518 C5503 0.961 . S
H5519 C5503 0.960 . S
C5520 C5521 1.391 . S
C5520 C5522 1.394 . S
C5520 H5536 0.931 . S
C5521 C5520 1.391 . S
C5521 C5525 1.376 . S
C5522 C5520 1.394 . S
C5522 C5523 1.369 . S
C5522 C5526 1.531 . S
C5523 C5522 1.369 . S
C5523 C5524 1.410 . S
C5523 C5531 1.503 . S
C5524 C5523 1.410 . S
C5524 C5525 1.392 . S
C5524 C5527 1.511 . S
C5525 C5521 1.376 . S
C5525 C5524 1.392 . S
C5525 H5537 0.929 . S
C5526 C5522 1.531 . S
C5526 H5538 0.960 . S
C5526 H5539 0.962 . S
C5526 H5540 0.960 . S
C5527 C5524 1.511 . S
C5527 H5541 0.961 . S
C5527 H5542 0.961 . S
C5527 H5543 0.961 . S
C5528 C5529 1.370 . S
C5528 C5530 1.363 . S
C5528 H5544 0.931 . S
C5529 C5528 1.370 . S
C5529 C5533 1.408 . S
C5530 C5528 1.363 . S
C5530 C5531 1.370 . S
C5530 C5534 1.524 . S
C5531 C5523 1.503 . S
C5531 C5530 1.370 . S
C5531 C5532 1.403 . S
C5532 C5531 1.403 . S
C5532 C5533 1.404 . S
C5532 C5535 1.539 . S
C5533 C5529 1.408 . S
C5533 C5532 1.404 . S
C5533 H5545 0.930 . S
C5534 C5530 1.524 . S
C5534 H5546 0.956 . S
C5534 H5547 0.961 . S
C5534 H5548 0.961 . S
C5535 C5532 1.539 . S
C5535 H5549 0.958 . S
C5535 H5550 0.961 . S
C5535 H5551 0.960 . S
H5536 C5520 0.931 . S
H5537 C5525 0.929 . S
H5538 C5526 0.960 . S
H5539 C5526 0.962 . S
H5540 C5526 0.960 . S
H5541 C5527 0.961 . S
H5542 C5527 0.961 . S
H5543 C5527 0.961 . S
H5544 C5528 0.931 . S
H5545 C5533 0.930 . S
H5546 C5534 0.956 . S
H5547 C5534 0.961 . S
H5548 C5534 0.961 . S
H5549 C5535 0.958 . S
H5550 C5535 0.961 . S
H5551 C5535 0.960 . S
C5552 C5553 1.391 . S
C5552 C5554 1.394 . S
C5552 H5568 0.931 . S
C5553 C5552 1.391 . S
C5553 C5557 1.376 . S
C5554 C5552 1.394 . S
C5554 C5555 1.369 . S
C5554 C5558 1.531 . S
C5555 C5554 1.369 . S
C5555 C5556 1.410 . S
C5555 C5563 1.503 . S
C5556 C5555 1.410 . S
C5556 C5557 1.392 . S
C5556 C5559 1.511 . S
C5557 C5553 1.376 . S
C5557 C5556 1.392 . S
C5557 H5569 0.929 . S
C5558 C5554 1.531 . S
C5558 H5570 0.960 . S
C5558 H5571 0.962 . S
C5558 H5572 0.960 . S
C5559 C5556 1.511 . S
C5559 H5573 0.961 . S
C5559 H5574 0.961 . S
C5559 H5575 0.961 . S
C5560 C5561 1.370 . S
C5560 C5562 1.363 . S
C5560 H5576 0.931 . S
C5561 C5560 1.370 . S
C5561 C5565 1.408 . S
C5562 C5560 1.363 . S
C5562 C5563 1.370 . S
C5562 C5566 1.524 . S
C5563 C5555 1.503 . S
C5563 C5562 1.370 . S
C5563 C5564 1.403 . S
C5564 C5563 1.403 . S
C5564 C5565 1.404 . S
C5564 C5567 1.539 . S
C5565 C5561 1.408 . S
C5565 C5564 1.404 . S
C5565 H5577 0.930 . S
C5566 C5562 1.524 . S
C5566 H5578 0.956 . S
C5566 H5579 0.961 . S
C5566 H5580 0.961 . S
C5567 C5564 1.539 . S
C5567 H5581 0.958 . S
C5567 H5582 0.961 . S
C5567 H5583 0.960 . S
H5568 C5552 0.931 . S
H5569 C5557 0.929 . S
H5570 C5558 0.960 . S
H5571 C5558 0.962 . S
H5572 C5558 0.960 . S
H5573 C5559 0.961 . S
H5574 C5559 0.961 . S
H5575 C5559 0.961 . S
H5576 C5560 0.931 . S
H5577 C5565 0.930 . S
H5578 C5566 0.956 . S
H5579 C5566 0.961 . S
H5580 C5566 0.961 . S
H5581 C5567 0.958 . S
H5582 C5567 0.961 . S
H5583 C5567 0.960 . S
C5584 C5585 1.391 . S
C5584 C5586 1.394 . S
C5584 H5600 0.931 . S
C5585 C5584 1.391 . S
C5585 C5589 1.376 . S
C5586 C5584 1.394 . S
C5586 C5587 1.369 . S
C5586 C5590 1.531 . S
C5587 C5586 1.369 . S
C5587 C5588 1.410 . S
C5587 C5595 1.503 . S
C5588 C5587 1.410 . S
C5588 C5589 1.392 . S
C5588 C5591 1.511 . S
C5589 C5585 1.376 . S
C5589 C5588 1.392 . S
C5589 H5601 0.929 . S
C5590 C5586 1.531 . S
C5590 H5602 0.960 . S
C5590 H5603 0.962 . S
C5590 H5604 0.960 . S
C5591 C5588 1.511 . S
C5591 H5605 0.961 . S
C5591 H5606 0.961 . S
C5591 H5607 0.961 . S
C5592 C5593 1.370 . S
C5592 C5594 1.363 . S
C5592 H5608 0.931 . S
C5593 C5592 1.370 . S
C5593 C5597 1.408 . S
C5594 C5592 1.363 . S
C5594 C5595 1.370 . S
C5594 C5598 1.524 . S
C5595 C5587 1.503 . S
C5595 C5594 1.370 . S
C5595 C5596 1.403 . S
C5596 C5595 1.403 . S
C5596 C5597 1.404 . S
C5596 C5599 1.539 . S
C5597 C5593 1.408 . S
C5597 C5596 1.404 . S
C5597 H5609 0.930 . S
C5598 C5594 1.524 . S
C5598 H5610 0.956 . S
C5598 H5611 0.961 . S
C5598 H5612 0.961 . S
C5599 C5596 1.539 . S
C5599 H5613 0.958 . S
C5599 H5614 0.961 . S
C5599 H5615 0.960 . S
H5600 C5584 0.931 . S
H5601 C5589 0.929 . S
H5602 C5590 0.960 . S
H5603 C5590 0.962 . S
H5604 C5590 0.960 . S
H5605 C5591 0.961 . S
H5606 C5591 0.961 . S
H5607 C5591 0.961 . S
H5608 C5592 0.931 . S
H5609 C5597 0.930 . S
H5610 C5598 0.956 . S
H5611 C5598 0.961 . S
H5612 C5598 0.961 . S
H5613 C5599 0.958 . S
H5614 C5599 0.961 . S
H5615 C5599 0.960 . S
C1009 C130 1.416 . S
C1017 C4 1.440 1_455 S
C1041 C154 1.469 . S
C1049 C25 1.415 1_545 S
C1073 C88 1.448 1_455 S
C1081 C46 1.417 . S
C1105 C109 1.383 1_545 S
C1113 C67 1.447 . S
C1137 C217 1.421 . S
C1145 C172 1.427 1_545 S
C1169 C235 1.420 1_455 S
C1177 C193 1.439 . S
C1201 C301 1.444 1_545 S
C1209 C256 1.429 . S
C1233 C322 1.386 . S
C1241 C280 1.448 1_455 S
C1265 C361 1.384 . S
C1273 C343 1.446 1_554 S
C1297 C490 1.437 1_554 S
C1305 C382 1.421 . S
C1329 C448 1.386 1_554 S
C1337 C406 1.444 . S
C1361 C424 1.453 . S
C1369 C469 1.424 1_554 S
C1393 C508 1.425 . S
C1401 C637 1.425 . S
C1425 C532 1.450 . S
C1433 C658 1.426 . S
C1457 C550 1.440 . S
C1465 C595 1.420 . S
C1489 C574 1.383 . S
C1497 C613 1.447 . S
C1521 C679 1.470 . S
C1529 C718 1.413 . S
C1553 C700 1.433 . S
C1561 C742 1.422 . S
C1585 C760 1.418 . S
C1593 C805 1.428 . S
C1617 C826 1.463 . S
C1625 C784 1.413 . S
C1649 C847 1.390 . S
C1657 C865 1.448 . S
C1681 C994 1.414 . S
C1689 C889 1.430 . S
C1713 C907 1.411 . S
C1721 C952 1.431 . S
C1745 C928 1.470 . S
C1753 C973 1.414 . S
C1777 C7 1.533 . S
C1785 C196 1.519 . S
C1809 C28 1.569 . S
C1817 C214 1.508 . S
C1841 C49 1.568 . S
C1849 C238 1.507 . S
C1873 C175 1.488 . S
C1881 C70 1.539 . S
C1905 C319 1.561 . S
C1913 C91 1.509 . S
C1937 C259 1.540 . S
C1945 C112 1.523 . S
C1969 C277 1.563 . S
C1977 C133 1.509 . S
C2001 C151 1.477 . S
C2009 C298 1.546 . S
C2033 C385 1.569 . S
C2041 C340 1.508 . S
C2065 C466 1.555 . S
C2073 C364 1.517 . S
C2097 C403 1.569 . S
C2105 C487 1.507 . S
C2129 C445 1.477 . S
C2137 C427 1.546 . S
C2161 C511 1.546 . S
C2169 C697 1.515 . S
C2193 C721 1.477 . S
C2201 C529 1.546 . S
C2225 C739 1.482 . S
C2233 C553 1.542 . S
C2257 C571 1.477 . S
C2265 C676 1.545 . S
C2289 C823 1.561 . S
C2297 C592 1.514 . S
C2321 C616 1.564 . S
C2329 C763 1.512 . S
C2353 C634 1.567 . S
C2361 C781 1.510 . S
C2385 C655 1.569 . S
C2393 C802 1.508 . S
C2417 C844 1.477 . S
C2425 C886 1.545 . S
C2449 C970 1.562 . S
C2457 C868 1.509 . S
C2481 C991 1.540 . S
C2489 C910 1.524 . S
C2513 C931 1.514 . S
C2521 C949 1.534 . S
C2545 C19 1.338 . S
C2553 C83 1.286 . S
C2577 C20 1.289 . S
C2585 C40 1.345 . S
C2609 C61 1.336 . S
C2617 C41 1.286 . S
C2641 C82 1.337 . S
C2649 C62 1.310 . S
C2673 C125 1.343 . S
C2681 C103 1.346 . S
C2705 C146 1.343 . S
C2713 C124 1.346 . S
C2737 C145 1.320 . S
C2745 C166 1.302 . S
C2769 C104 1.273 . S
C2777 C167 1.319 . S
C2801 C187 1.378 . S
C2809 C398 1.310 . S
C2833 C208 1.366 . S
C2841 C418 1.301 . S
C2865 C230 1.284 . S
C2873 C440 1.280 . S
C2897 C250 1.370 . S
C2905 C377 1.304 . S
C2929 C271 1.284 . S
C2937 C481 1.273 . S
C2961 C355 1.311 . S
C2969 C293 1.331 . S
C2993 C502 1.305 . S
C3001 C314 1.350 . S
C3025 C335 1.347 . S
C3033 C460 1.291 . S
C3057 C356 1.378 . S
C3065 C209 1.310 . S
C3089 C376 1.316 . S
C3097 C334 1.278 . S
C3121 C397 1.282 . S
C3129 C272 1.274 . S
C3153 C292 1.240 . S
C3161 C419 1.323 . S
C3185 C313 1.305 . S
C3193 C439 1.350 . S
C3217 C251 1.319 . S
C3225 C461 1.334 . S
C3249 C188 1.260 . S
C3257 C482 1.316 . S
C3281 C503 1.382 . S
C3289 C229 1.319 . S
C3313 C523 1.288 . S
C3321 C586 1.284 . S
C3345 C545 1.362 . S
C3353 C524 1.298 . S
C3377 C544 1.314 . S
C3385 C565 1.332 . S
C3409 C566 1.235 . S
C3417 C587 1.317 . S
C3441 C608 1.296 . S
C3449 C629 1.290 . S
C3473 C649 1.339 . S
C3481 C628 1.344 . S
C3505 C670 1.252 . S
C3513 C650 1.330 . S
C3537 C671 1.383 . S
C3545 C607 1.318 . S
C3569 C692 1.377 . S
C3577 C901 1.320 . S
C3601 C923 1.338 . S
C3609 C713 1.343 . S
C3633 C944 1.276 . S
C3641 C733 1.320 . S
C3665 C755 1.283 . S
C3673 C881 1.273 . S
C3697 C985 1.350 . S
C3705 C775 1.353 . S
C3729 C797 1.307 . S
C3737 C859 1.296 . S
C3761 C818 1.382 . S
C3769 C1006 1.319 . S
C3793 C839 1.354 . S
C3801 C964 1.294 . S
C3825 C712 1.265 . S
C3833 C860 1.336 . S
C3857 C838 1.318 . S
C3865 C880 1.353 . S
C3889 C776 1.343 . S
C3897 C902 1.357 . S
C3921 C922 1.335 . S
C3929 C796 1.285 . S
C3953 C817 1.275 . S
C3961 C943 1.320 . S
C3985 C965 1.347 . S
C3993 C754 1.290 . S
C4017 C986 1.281 . S
C4025 C691 1.276 . S
C4049 C734 1.277 . S
C4057 C1007 1.340 . S
C4081 C16 0.974 . S
C4089 C940 0.987 . S
C4113 C877 0.935 . S
C4121 C37 0.974 . S
C4145 C58 1.013 . S
C4153 C885 0.973 . S
C4177 C79 1.015 . S
C4185 C919 0.978 . S
C4209 C100 0.966 . S
C4217 C990 0.985 . S
C4241 C121 1.014 . S
C4249 C948 0.975 . S
C4273 C142 1.016 . S
C4281 C969 0.980 . S
C4305 C150 0.919 . S
C4313 C843 0.953 . S
C4337 C184 0.917 . S
C4345 C822 0.956 . S
C4369 C205 0.918 . S
C4377 C772 0.954 . S
C4401 C213 0.982 . S
C4409 C780 0.988 . S
C4433 C247 1.004 . S
C4441 C801 0.989 . S
C4465 C268 0.946 . S
C4473 C696 0.948 . S
C4497 C276 0.964 . S
C4505 C730 0.985 . S
C4529 C297 1.013 . S
C4537 C738 0.985 . S
C4561 C318 0.994 . S
C4569 C675 0.960 . S
C4593 C339 1.016 . S
C4601 C654 0.979 . S
C4625 C373 1.015 . S
C4633 C528 0.977 . S
C4657 C394 0.992 . S
C4665 C562 0.959 . S
C4689 C402 1.006 . S
C4697 C570 0.988 . S
C4721 C436 0.963 . S
C4729 C520 0.950 . S
C4753 C444 0.929 . S
C4761 C625 0.949 . S
C4785 C465 1.010 . S
C4793 C633 0.970 . S
C4817 C486 0.953 . S
C4825 C591 0.982 . S
C4849 C87 0.911 . S
C4857 C898 0.913 . S
C4881 C108 0.909 . S
C4889 C906 0.842 . S
C4913 C129 0.962 . S
C4921 C927 0.889 . S
C4945 C163 0.940 . S
C4953 C864 0.902 . S
C4977 C3 0.802 . S
C4985 C982 0.875 . S
C5009 C24 0.874 . S
C5017 C856 0.920 . S
C5041 C45 0.971 . S
C5049 C1003 0.858 . S
C5073 C961 0.795 . S
C5081 C66 0.912 . S
C5105 C310 0.785 . S
C5113 C709 0.894 . S
C5137 C331 0.785 . S
C5145 C717 0.895 . S
C5169 C255 0.792 . S
C5177 C751 0.909 . S
C5201 C289 0.816 . S
C5209 C688 0.918 . S
C5233 C226 0.968 . S
C5241 C835 0.882 . S
C5265 C234 0.787 . S
C5273 C759 0.905 . S
C5297 C171 0.934 . S
C5305 C793 0.843 . S
C5329 C192 0.974 . S
C5337 C814 0.868 . S
C5361 C457 0.924 . S
C5369 C583 0.842 . S
C5393 C415 0.883 . S
C5401 C612 0.845 . S
C5425 C423 0.944 . S
C5433 C646 0.844 . S
C5457 C360 0.888 . S
C5465 C667 0.918 . S
C5489 C381 0.794 . S
C5497 C604 0.911 . S
C5521 C352 0.819 . S
C5529 C541 0.919 . S
C5553 C499 0.926 . S
C5561 C549 0.908 . S
C5585 C478 0.804 . S
C5593 C507 0.915 . S
