# Generated by pormake.
# Topology snz, (6)-cn, num edge types: 1
# Building blocks:
#     Node 0, Type 0, BuildingBlock: MIFKUJ_clean_sbu_0, # of connection points: 6
#     Node 1, Type 0, BuildingBlock: MIFKUJ_clean_sbu_0, # of connection points: 6
#     Node 2, Type 0, BuildingBlock: MIFKUJ_clean_sbu_0, # of connection points: 6
#     Node 3, Type 0, BuildingBlock: MIFKUJ_clean_sbu_0, # of connection points: 6
#     Node 4, Type 0, BuildingBlock: MIFKUJ_clean_sbu_0, # of connection points: 6
#     Node 5, Type 0, BuildingBlock: MIFKUJ_clean_sbu_0, # of connection points: 6
#     Node 6, Type 0, BuildingBlock: MIFKUJ_clean_sbu_0, # of connection points: 6
#     Node 7, Type 0, BuildingBlock: MIFKUJ_clean_sbu_0, # of connection points: 6
#     Node 8, Type 0, BuildingBlock: MIFKUJ_clean_sbu_0, # of connection points: 6
#     Edge 9, Type (0, 0), BuildingBlock: OJICUG_clean_linker_0, # of connection points: 2
#     Edge 10, Type (0, 0), BuildingBlock: OJICUG_clean_linker_0, # of connection points: 2
#     Edge 11, Type (0, 0), BuildingBlock: OJICUG_clean_linker_0, # of connection points: 2
#     Edge 12, Type (0, 0), BuildingBlock: OJICUG_clean_linker_0, # of connection points: 2
#     Edge 13, Type (0, 0), BuildingBlock: OJICUG_clean_linker_0, # of connection points: 2
#     Edge 14, Type (0, 0), BuildingBlock: OJICUG_clean_linker_0, # of connection points: 2
#     Edge 15, Type (0, 0), BuildingBlock: OJICUG_clean_linker_0, # of connection points: 2
#     Edge 16, Type (0, 0), BuildingBlock: OJICUG_clean_linker_0, # of connection points: 2
#     Edge 17, Type (0, 0), BuildingBlock: OJICUG_clean_linker_0, # of connection points: 2
#     Edge 18, Type (0, 0), BuildingBlock: OJICUG_clean_linker_0, # of connection points: 2
#     Edge 19, Type (0, 0), BuildingBlock: OJICUG_clean_linker_0, # of connection points: 2
#     Edge 20, Type (0, 0), BuildingBlock: OJICUG_clean_linker_0, # of connection points: 2
#     Edge 21, Type (0, 0), BuildingBlock: OJICUG_clean_linker_0, # of connection points: 2
#     Edge 22, Type (0, 0), BuildingBlock: OJICUG_clean_linker_0, # of connection points: 2
#     Edge 23, Type (0, 0), BuildingBlock: OJICUG_clean_linker_0, # of connection points: 2
#     Edge 24, Type (0, 0), BuildingBlock: OJICUG_clean_linker_0, # of connection points: 2
#     Edge 25, Type (0, 0), BuildingBlock: OJICUG_clean_linker_0, # of connection points: 2
#     Edge 26, Type (0, 0), BuildingBlock: OJICUG_clean_linker_0, # of connection points: 2
#     Edge 27, Type (0, 0), BuildingBlock: OJICUG_clean_linker_0, # of connection points: 2
#     Edge 28, Type (0, 0), BuildingBlock: OJICUG_clean_linker_0, # of connection points: 2
#     Edge 29, Type (0, 0), BuildingBlock: OJICUG_clean_linker_0, # of connection points: 2
#     Edge 30, Type (0, 0), BuildingBlock: OJICUG_clean_linker_0, # of connection points: 2
#     Edge 31, Type (0, 0), BuildingBlock: OJICUG_clean_linker_0, # of connection points: 2
#     Edge 32, Type (0, 0), BuildingBlock: OJICUG_clean_linker_0, # of connection points: 2
#     Edge 33, Type (0, 0), BuildingBlock: OJICUG_clean_linker_0, # of connection points: 2
#     Edge 34, Type (0, 0), BuildingBlock: OJICUG_clean_linker_0, # of connection points: 2
#     Edge 35, Type (0, 0), BuildingBlock: OJICUG_clean_linker_0, # of connection points: 2
# Relax obj value: 0.147
# Max RMSD: 0.183
# Mean RMSD: 0.120
data_MOF--net-snz--node1-MIFKUJ_clean_sbu_0--edge1-OJICUG_clean_linker_0
_symmetry_space_group_name_H-M    P1
_symmetry_Int_Tables_number       1
_symmetry_cell_setting            triclinic
loop_
_symmetry_equiv_pos_as_xyz
'x, y, z'
_cell_length_a     45.023299
_cell_length_b     41.559522
_cell_length_c     10.573955
_cell_angle_alpha  93.746898
_cell_angle_beta   94.038953
_cell_angle_gamma 120.72424
loop_
_atom_site_label
_atom_site_type_symbol
_atom_site_fract_x
_atom_site_fract_y
_atom_site_fract_z
_atom_type_partial_charge
Zn0 Zn 0.01283 0.49191 0.03033 0.0
Zn1 Zn 0.05477 0.44522 0.02845 0.0
C2 C 0.08036 0.55564 0.1505 0.0
O3 O 0.06834 0.54338 0.25789 0.0
C4 C 0.02493 0.37324 0.88949 0.0
O5 O 0.05339 0.39277 0.83555 0.0
O6 O 0.98335 0.51513 1.00179 0.0
O7 O 0.00219 0.45881 0.86513 0.0
O8 O 0.05649 0.47321 0.87668 0.0
C9 C 0.99023 0.54593 0.06359 0.0
O10 O 0.01504 0.56136 0.16017 0.0
O11 O 0.06228 0.53698 0.04508 0.0
C12 C 0.10918 0.43622 0.14667 0.0
O13 O 0.09155 0.43115 0.24475 0.0
O14 O 0.09945 0.44478 0.04514 0.0
O15 O 0.04828 0.45992 0.20691 0.0
O16 O 0.00334 0.46806 0.19451 0.0
O17 O 0.018 0.39018 0.97648 0.0
C18 C 0.02835 0.46474 0.80981 0.0
C19 C 0.02495 0.46266 0.25938 0.0
Zn20 Zn 0.55212 0.44774 1.02598 0.0
Zn21 Zn 0.64673 0.51744 0.06846 0.0
C22 C 0.5255 0.36892 0.06318 0.0
O23 O 0.52895 0.38136 0.18395 0.0
C24 C 0.64054 0.57785 0.18271 0.0
O25 O 0.64332 0.56369 0.28721 0.0
O26 O 0.50792 0.44913 0.03753 0.0
O27 O 0.57902 0.46228 0.20386 0.0
O28 O 0.63669 0.49409 0.23425 0.0
C29 C 0.49897 0.45791 0.13966 0.0
O30 O 0.52067 0.47025 0.24523 0.0
O31 O 0.53431 0.39213 0.98052 0.0
C32 C 0.70742 0.56943 0.97227 0.0
O33 O 0.68265 0.57022 0.90168 0.0
O34 O 0.69901 0.54703 0.0579 0.0
O35 O 0.62785 0.48382 0.90029 0.0
O36 O 0.57382 0.47184 0.86852 0.0
O37 O 0.63602 0.55931 0.07517 0.0
C38 C 0.60745 0.4764 0.27745 0.0
C39 C 0.6014 0.47684 0.82535 0.0
Zn40 Zn 0.64108 0.01884 0.19044 0.0
Zn41 Zn 0.55849 0.97715 0.14762 0.0
C42 C 0.63961 0.95679 0.28767 0.0
O43 O 0.65589 0.98312 0.38528 0.0
C44 C 0.53794 0.03057 0.19357 0.0
O45 O 0.52153 0.00761 0.27747 0.0
O46 O 0.6939 0.04742 0.18788 0.0
O47 O 0.62269 0.02741 1.02502 0.0
O48 O 0.57846 0.96915 0.99074 0.0
C49 C 0.70395 0.03068 0.11235 0.0
O50 O 0.68048 0.99854 0.04594 0.0
O51 O 0.62796 0.96438 0.18812 0.0
C52 C 0.49053 0.91956 0.21681 0.0
O53 O 0.50871 0.92028 0.32073 0.0
O54 O 0.50646 0.93864 0.12859 0.0
O55 O 0.57805 0.97761 0.32675 0.0
O56 O 0.62755 0.03239 0.35553 0.0
O57 O 0.55887 0.02547 0.13294 0.0
C58 C 0.60098 0.99885 0.9475 0.0
C59 C 0.60232 0.00546 0.40113 0.0
Zn60 Zn 0.74245 0.84562 0.3902 0.0
Zn61 Zn 0.78641 0.80285 0.38107 0.0
C62 C 0.80258 0.92396 0.38387 0.0
O63 O 0.8044 0.91364 0.26603 0.0
C64 C 0.72902 0.73704 0.23979 0.0
O65 O 0.75071 0.74897 0.15332 0.0
O66 O 0.70039 0.851 0.38051 0.0
O67 O 0.74625 0.82877 0.20982 0.0
O68 O 0.79636 0.83078 0.22586 0.0
C69 C 0.68439 0.85134 0.27707 0.0
O70 O 0.6923 0.84276 0.16777 0.0
O71 O 0.78057 0.89985 0.44817 0.0
C72 C 0.84414 0.79411 0.47501 0.0
O73 O 0.85571 0.82706 0.54077 0.0
O74 O 0.81644 0.77976 0.3974 0.0
O75 O 0.79379 0.83143 0.55334 0.0
O76 O 0.73913 0.81596 0.53874 0.0
O77 O 0.73771 0.75686 0.3478 0.0
C78 C 0.77167 0.83047 0.1584 0.0
C79 C 0.76711 0.82443 0.60695 0.0
Zn80 Zn 0.18873 0.78621 0.30485 0.0
Zn81 Zn 0.29238 0.87742 0.35233 0.0
C82 C 0.17102 0.71508 0.17513 0.0
O83 O 0.1667 0.73072 0.07698 0.0
C84 C 0.33599 0.95026 0.48202 0.0
O85 O 0.34003 0.92919 0.56061 0.0
O86 O 0.13886 0.77346 0.3185 0.0
O87 O 0.21539 0.81303 0.47923 0.0
O88 O 0.27037 0.86009 0.51562 0.0
C89 C 0.12661 0.75488 0.4122 0.0
O90 O 0.14626 0.74648 0.48313 0.0
O91 O 0.1832 0.73475 0.2837 0.0
C92 C 0.34928 0.88265 0.24204 0.0
O93 O 0.33717 0.89706 0.16107 0.0
O94 O 0.33319 0.86976 0.33813 0.0
O95 O 0.26203 0.85737 0.18031 0.0
O96 O 0.2066 0.81095 0.14405 0.0
O97 O 0.31539 0.93429 0.37902 0.0
C98 C 0.24188 0.83702 0.55608 0.0
C99 C 0.23422 0.83636 0.10437 0.0
Zn100 Zn 0.2966 0.3284 0.2564 0.0
Zn101 Zn 0.19428 0.30261 0.22496 0.0
C102 C 0.3113 0.27111 0.3303 0.0
O103 O 0.28216 0.25734 0.38223 0.0
C104 C 0.18671 0.36214 0.13045 0.0
O105 O 0.18675 0.34635 1.01878 0.0
O106 O 0.3396 0.38047 0.25973 0.0
O107 O 0.2666 0.31329 0.08462 0.0
O108 O 0.21092 0.29631 0.05632 0.0
C109 C 0.35201 0.38915 0.15418 0.0
O110 O 0.33274 0.3683 0.04848 0.0
O111 O 0.31995 0.29827 0.26379 0.0
C112 C 0.13219 0.26668 0.3298 0.0
O113 O 0.15242 0.29702 0.41046 0.0
O114 O 0.14398 0.26109 0.23009 0.0
O115 O 0.21977 0.30447 0.39372 0.0
O116 O 0.27528 0.32126 0.42325 0.0
O117 O 0.19181 0.34964 0.23107 0.0
C118 C 0.23858 0.30215 1.01157 0.0
C119 C 0.2464 0.31083 0.46626 0.0
Zn120 Zn 0.42466 0.1285 0.92098 0.0
Zn121 Zn 0.44111 0.19076 0.60115 0.0
C122 C 0.48249 0.1162 0.9814 0.0
O123 O 0.50091 0.14582 0.9222 0.0
C124 C 0.41525 0.23881 0.52284 0.0
O125 O 0.44841 0.26474 0.52957 0.0
O126 O 0.3756 0.10089 0.9695 0.0
O127 O 0.45115 0.18492 0.99149 0.0
O128 O 0.44906 0.19487 0.79294 0.0
C129 C 0.37012 0.10728 0.08183 0.0
O130 O 0.33815 0.09202 0.11075 0.0
O131 O 0.45043 0.10409 0.98687 0.0
C132 C 0.49014 0.21748 0.41751 0.0
O133 O 0.52052 0.23666 0.37538 0.0
O134 O 0.48726 0.22284 0.53439 0.0
O135 O 0.419 0.13487 0.53107 0.0
O136 O 0.42053 0.1263 0.73043 0.0
O137 O 0.40658 0.20614 0.55095 0.0
C138 C 0.45857 0.20827 0.90952 0.0
C139 C 0.41219 0.11219 0.61465 0.0
Zn140 Zn 0.93303 0.15789 0.55944 0.0
Zn141 Zn 0.89077 0.1367 0.7892 0.0
C142 C 0.99743 0.17424 0.49441 0.0
O143 O 0.99537 0.16058 0.60425 0.0
C144 C 0.8396 0.08984 0.94709 0.0
O145 O 0.84935 0.06646 0.90668 0.0
O146 O 0.89464 0.16711 0.49548 0.0
O147 O 0.91229 0.10236 0.5721 0.0
O148 O 0.86471 0.09677 0.63758 0.0
C149 C 0.88445 0.16719 0.38047 0.0
O150 O 0.8614 0.17712 0.3567 0.0
O151 O 0.97116 0.1746 0.44349 0.0
C152 C 0.9421 0.13103 0.9667 0.0
O153 O 0.96585 0.12205 0.98958 0.0
O154 O 0.93044 0.12931 0.85201 0.0
O155 O 0.91071 0.19203 0.76748 0.0
O156 O 0.95811 0.19448 0.71734 0.0
O157 O 0.85508 0.12298 0.91465 0.0
C158 C 0.88008 0.08211 0.58331 0.0
C159 C 0.94319 0.21116 0.75955 0.0
Zn160 Zn 0.92216 0.69407 0.85882 0.0
Zn161 Zn 0.91504 0.64141 0.55806 0.0
C162 C 0.84949 0.66906 0.87442 0.0
O163 O 0.86006 0.70424 0.85832 0.0
C164 C 0.98859 0.69529 0.56205 0.0
O165 O 0.98533 0.70092 0.68258 0.0
O166 O 0.93861 0.73763 0.9974 0.0
O167 O 0.94606 0.66535 0.89307 0.0
O168 O 0.92551 0.62329 0.71996 0.0
C169 C 0.93269 0.73431 0.11298 0.0
O170 O 0.94156 0.76442 0.19164 0.0
O171 O 0.87108 0.65799 0.87265 0.0
C172 C 0.87497 0.59338 0.32018 0.0
O173 O 0.8537 0.56119 0.24968 0.0
O174 O 0.88377 0.59367 0.43732 0.0
O175 O 0.89015 0.67057 0.56057 0.0
O176 O 0.92967 0.71825 0.69582 0.0
O177 O 0.96158 0.67173 0.48653 0.0
C178 C 0.9396 0.6342 0.83548 0.0
C179 C 0.90414 0.70463 0.60891 0.0
C180 C 0.99831 0.46087 0.59408 0.0
C181 C 0.02672 0.46334 0.66868 0.0
H182 H 0.97543 0.45889 0.40646 0.0
C183 C 0.05402 0.46493 0.6072 0.0
H184 H 0.97686 0.45966 0.63846 0.0
C185 C 0.0531 0.46428 0.47472 0.0
C186 C 0.02494 0.4622 0.39984 0.0
H187 H 0.07626 0.46675 0.66145 0.0
H188 H 0.07486 0.46597 0.43138 0.0
C189 C 0.99751 0.46049 0.46111 0.0
C190 C 0.57238 0.45802 0.59888 0.0
C191 C 0.60301 0.475 0.68505 0.0
H192 H 0.54967 0.44397 0.4041 0.0
C193 C 0.6352 0.49064 0.63567 0.0
H194 H 0.54713 0.44534 0.6333 0.0
C195 C 0.63673 0.49035 0.50355 0.0
C196 C 0.60609 0.47397 0.41732 0.0
H197 H 0.65934 0.50394 0.69923 0.0
H198 H 0.662 0.50354 0.46923 0.0
C199 C 0.57389 0.45722 0.46698 0.0
C200 C 0.62727 0.033 0.75991 0.0
C201 C 0.60157 1.00065 0.80788 0.0
H202 H 0.64776 0.06004 0.59434 0.0
C203 C 0.57632 0.97018 0.72102 0.0
H204 H 0.64721 0.057 0.82418 0.0
C205 C 0.57664 0.972 0.58962 0.0
C206 C 0.60222 0.00432 0.54129 0.0
H207 H 0.55618 0.94484 0.75436 0.0
H208 H 0.55682 0.9478 0.526 0.0
C209 C 0.62763 0.03479 0.62808 0.0
C210 C 0.74017 0.82198 0.80842 0.0
C211 C 0.76859 0.82624 0.74812 0.0
H212 H 0.71888 0.82003 0.98383 0.0
C213 C 0.79838 0.83238 0.82416 0.0
H214 H 0.71683 0.81727 0.75305 0.0
C215 C 0.79959 0.83401 0.95735 0.0
C216 C 0.77111 0.82975 1.01754 0.0
H217 H 0.82075 0.83574 0.78084 0.0
H218 H 0.82282 0.83856 1.01301 0.0
C219 C 0.74144 0.82377 0.94125 0.0
C220 C 0.20851 0.8125 0.74436 0.0
C221 C 0.23941 0.83816 0.69643 0.0
H222 H 0.18241 0.7919 0.90868 0.0
C223 C 0.26786 0.86488 0.78432 0.0
H224 H 0.18589 0.79179 0.68038 0.0
C225 C 0.26574 0.86523 0.9161 0.0
C226 C 0.2352 0.83873 0.96411 0.0
H227 H 0.29199 0.88541 0.75157 0.0
H228 H 0.28834 0.88597 0.98031 0.0
C229 C 0.20644 0.81272 0.87605 0.0
C230 C 0.21301 0.29791 0.6572 0.0
C231 C 0.2437 0.30619 0.60469 0.0
H232 H 0.18713 0.28983 0.82483 0.0
C233 C 0.27172 0.31005 0.68616 0.0
H234 H 0.19071 0.29423 0.59788 0.0
C235 C 0.26949 0.307 0.81696 0.0
C236 C 0.23934 0.30038 0.87035 0.0
H237 H 0.29558 0.31579 0.64925 0.0
H238 H 0.29173 0.31048 0.87648 0.0
C239 C 0.21088 0.29513 0.78798 0.0
C240 C 0.45515 0.15389 0.29467 0.0
C241 C 0.45963 0.18926 0.33093 0.0
H242 H 0.4215 0.09896 0.19143 0.0
C243 C 0.43408 0.19708 0.28803 0.0
H244 H 0.47458 0.14734 0.3277 0.0
C245 C 0.40393 0.16963 0.21133 0.0
C246 C 0.3995 0.13434 0.17468 0.0
H247 H 0.43797 0.22481 0.31022 0.0
H248 H 0.38479 0.17643 0.17667 0.0
C249 C 0.42502 0.12642 0.21747 0.0
C250 C 0.90969 0.18069 0.17528 0.0
C251 C 0.89934 0.15808 0.27499 0.0
H252 H 0.93274 0.1904 1.00114 0.0
C253 C 0.90298 0.12652 0.27242 0.0
H254 H 0.90709 0.20521 0.17554 0.0
C255 C 0.91749 0.11802 0.17283 0.0
C256 C 0.92779 0.14059 0.07306 0.0
H257 H 0.89408 0.10809 0.34604 0.0
H258 H 0.91992 0.09339 0.17227 0.0
C259 C 0.92414 0.17216 0.07548 0.0
C260 C 0.92185 0.64496 0.22104 0.0
C261 C 0.88892 0.62867 0.26301 0.0
H262 H 0.96167 0.6921 0.14121 0.0
C263 C 0.86968 0.64647 0.25118 0.0
H264 H 0.93697 0.63147 0.22977 0.0
C265 C 0.8838 0.68099 0.20119 0.0
C266 C 0.91689 0.6974 0.16006 0.0
H267 H 0.84403 0.63392 0.28219 0.0
H268 H 0.86894 0.69481 0.19432 0.0
C269 C 0.93579 0.67923 0.17007 0.0
C270 C 0.16479 0.39972 1.0266 0.0
C271 C 0.17359 0.38829 0.13819 0.0
H272 H 0.13781 0.42446 0.94185 0.0
C273 C 0.16561 0.39812 0.25531 0.0
H274 H 0.17084 0.39287 0.93502 0.0
C275 C 0.14653 0.41605 0.25913 0.0
C276 C 0.1353 0.42475 0.14613 0.0
H277 H 0.17226 0.39002 0.3433 0.0
H278 H 0.13912 0.42136 0.34987 0.0
C279 C 0.1459 0.41791 0.03058 0.0
C280 C 0.66147 0.64004 0.30992 0.0
C281 C 0.6542 0.61888 0.19042 0.0
H282 H 0.6906 0.69444 0.4194 0.0
C283 C 0.66637 0.63808 0.0834 0.0
H284 H 0.65218 0.62612 0.39406 0.0
C285 C 0.68867 0.6772 0.09822 0.0
C286 C 0.69889 0.69791 0.21997 0.0
H287 H 0.66109 0.62274 0.98974 0.0
H288 H 0.69965 0.69087 1.01538 0.0
C289 C 0.68352 0.67925 0.32452 0.0
C290 C 0.43547 0.8882 0.32071 0.0
C291 C 0.45251 0.90372 0.21422 0.0
H292 H 0.38933 0.8691 0.41323 0.0
C293 C 0.43376 0.90801 0.11151 0.0
H294 H 0.44909 0.8844 0.40146 0.0
C295 C 0.39961 0.89932 0.11851 0.0
C296 C 0.3833 0.88605 0.22824 0.0
H297 H 0.44594 0.91972 0.02778 0.0
H298 H 0.38647 0.90441 0.03951 0.0
C299 C 0.40119 0.87942 0.32762 0.0
C300 C 0.49602 0.05302 0.18919 0.0
C301 C 0.52663 0.05629 0.15108 0.0
H302 H 0.45796 0.06896 0.1644 0.0
C303 C 0.54394 0.08139 0.06219 0.0
H304 H 0.48195 0.03391 0.25718 0.0
C305 C 0.53021 0.1018 1.00939 0.0
C306 C 0.49867 0.09701 0.04307 0.0
H307 H 0.56758 0.08452 0.03089 0.0
H308 H 0.54367 0.12033 0.93915 0.0
C309 C 0.48207 0.07291 0.13514 0.0
C310 C 0.95059 0.27121 0.86675 0.0
C311 C 0.96352 0.25259 0.79379 0.0
H312 H 0.95995 0.3241 0.95537 0.0
C313 C 0.99634 0.27402 0.75176 0.0
H314 H 0.9254 0.25542 0.90072 0.0
C315 C 0.01578 0.31311 0.78144 0.0
C316 C 0.00316 0.33183 0.85536 0.0
H317 H 0.00702 0.26063 0.69475 0.0
H318 H 0.041 0.32859 0.74743 0.0
C319 C 0.97036 0.31048 0.89806 0.0
C320 C 0.80445 0.61087 0.961 0.0
C321 C 0.81328 0.64321 0.89997 0.0
H322 H 0.76412 0.56244 0.03464 0.0
C323 C 0.78726 0.65125 0.86607 0.0
H324 H 0.82406 0.60413 0.98935 0.0
C325 C 0.75308 0.62723 0.89037 0.0
C326 C 0.74414 0.59492 0.95138 0.0
H327 H 0.79321 0.67594 0.81929 0.0
H328 H 0.73362 0.63417 0.86186 0.0
C329 C 0.77025 0.58715 0.98774 0.0
C330 C 0.93819 0.5735 0.84823 0.0
C331 C 0.95054 0.61075 0.90066 0.0
H332 H 0.94054 0.52366 0.85944 0.0
C333 C 0.97411 0.62547 1.01304 0.0
H334 H 0.9198 0.56113 0.76232 0.0
C335 C 0.98585 0.60381 0.06946 0.0
C336 C 0.9744 0.56703 1.01428 0.0
H337 H 0.98436 0.65412 0.05547 0.0
H338 H 0.00476 0.6164 0.15394 0.0
C339 C 0.94995 0.5519 0.90439 0.0
C340 C 0.49999 0.31345 0.89353 0.0
C341 C 0.50994 0.32805 1.02329 0.0
H342 H 0.47608 0.26429 0.7563 0.0
C343 C 0.50408 0.30303 0.11491 0.0
H344 H 0.5042 0.33191 0.82032 0.0
C345 C 0.48816 0.26429 0.07776 0.0
C346 C 0.47718 0.24955 0.94852 0.0
H347 H 0.51173 0.31331 0.21561 0.0
H348 H 0.48443 0.24594 0.15042 0.0
C349 C 0.48374 0.27465 0.85672 0.0
C350 C 0.78514 0.0368 1.01096 0.0
C351 C 0.8075 0.07577 1.0104 0.0
H352 H 0.735 0.99227 0.04385 0.0
C353 C 0.7971 0.10036 0.05941 0.0
H354 H 0.79231 0.01702 0.97482 0.0
C355 C 0.76411 0.08602 0.10087 0.0
C356 C 0.74091 0.0469 0.09207 0.0
H357 H 0.8139 0.13058 0.06135 0.0
H358 H 0.7561 0.10541 0.1329 0.0
C359 C 0.75218 0.02257 0.05023 0.0
C360 C 0.65113 0.91271 0.3995 0.0
C361 C 0.64198 0.92264 0.28514 0.0
H362 H 0.67092 0.88147 0.48693 0.0
C363 C 0.64057 0.90335 0.16859 0.0
H364 H 0.65197 0.92676 0.49086 0.0
C365 C 0.6517 0.87747 0.16611 0.0
C366 C 0.66418 0.87036 0.28019 0.0
H367 H 0.63347 0.91032 0.07887 0.0
H368 H 0.65273 0.86507 0.07443 0.0
C369 C 0.66196 0.88668 0.39714 0.0
C370 C 0.13867 0.65151 0.04678 0.0
C371 C 0.1546 0.6736 0.16527 0.0
H372 H 0.10304 0.59658 0.94856 0.0
C373 C 0.15047 0.65546 0.27597 0.0
H374 H 0.14163 0.66456 0.95947 0.0
C375 C 0.12825 0.61645 0.26975 0.0
C376 C 0.10984 0.59479 0.15269 0.0
H377 H 0.1626 0.67159 0.3687 0.0
H378 H 0.12398 0.60364 0.35784 0.0
C379 C 0.11657 0.61246 0.04049 0.0
C380 C 0.43949 0.43605 0.03037 0.0
C381 C 0.46237 0.44789 0.14379 0.0
H382 H 0.38673 0.40924 0.94484 0.0
C383 C 0.44899 0.44596 0.26126 0.0
H384 H 0.44897 0.43758 0.93827 0.0
C385 C 0.4131 0.42948 0.26522 0.0
C386 C 0.38995 0.4148 0.15171 0.0
H387 H 0.46593 0.45505 0.35053 0.0
H388 H 0.40341 0.42619 0.35729 0.0
C389 C 0.40373 0.41986 0.03428 0.0
C390 C 0.90579 0.76602 0.62046 0.0
C391 C 0.88985 0.72807 0.56853 0.0
H392 H 0.90408 0.81663 0.63117 0.0
C393 C 0.85963 0.71259 0.48078 0.0
H394 H 0.9291 0.7789 0.68835 0.0
C395 C 0.84543 0.73438 0.44702 0.0
C396 C 0.86093 0.77206 0.50135 0.0
H397 H 0.84647 0.6834 0.43993 0.0
H398 H 0.82179 0.72133 0.38079 0.0
C399 C 0.89147 0.78772 0.58745 0.0
C400 C 0.37645 0.05483 0.45434 0.0
C401 C 0.3932 0.07087 0.5789 0.0
H402 H 0.34485 0.00406 0.32595 0.0
C403 C 0.39092 0.04697 0.6705 0.0
H404 H 0.37748 0.07251 0.38192 0.0
C405 C 0.37244 0.00791 0.63839 0.0
C406 C 0.35541 0.99176 0.51428 0.0
H407 H 0.40349 0.05842 0.76725 0.0
H408 H 0.37128 0.99035 0.71152 0.0
C409 C 0.35757 0.01563 0.42249 0.0
C410 C 0.03435 0.20257 0.31713 0.0
C411 C 0.0315 0.19424 0.44426 0.0
H412 H 0.06903 0.23142 0.17899 0.0
C413 C 0.06204 0.20734 0.52816 0.0
H414 H 0.01122 0.19277 0.25039 0.0
C415 C 0.09463 0.22984 0.48838 0.0
C416 C 0.09759 0.23893 0.36279 0.0
H417 H 0.06086 0.20162 0.62675 0.0
H418 H 0.11764 0.24077 0.5569 0.0
C419 C 0.06729 0.22441 0.27613 0.0
C420 C 0.3532 0.22214 0.4861 0.0
C421 C 0.38835 0.24616 0.46989 0.0
H422 H 0.30111 0.2111 0.45415 0.0
C423 C 0.3975 0.27684 0.40009 0.0
H424 H 0.34536 0.19811 0.53884 0.0
C425 C 0.37212 0.28382 0.34954 0.0
C426 C 0.3371 0.26059 0.36934 0.0
H427 H 0.42429 0.29553 0.38444 0.0
H428 H 0.38021 0.30818 0.29828 0.0
C429 C 0.32784 0.22946 0.43714 0.0
C430 C 0.85379 0.98963 0.38761 0.0
C431 C 0.82325 0.96421 0.43737 0.0
H432 H 0.89603 0.04679 0.39604 0.0
C433 C 0.81164 0.9779 0.53561 0.0
H434 H 0.86333 0.97993 0.31173 0.0
C435 C 0.82985 0.01623 0.58172 0.0
C436 C 0.86054 0.04162 0.53275 0.0
H437 H 0.78801 0.9591 0.57519 0.0
H438 H 0.82003 0.02592 0.65657 0.0
C439 C 0.8725 0.02788 0.43592 0.0
C440 C 0.05321 0.72926 0.61202 0.0
C441 C 0.02384 0.71329 0.51986 0.0
H442 H 0.1084 0.75462 0.64935 0.0
C443 C 0.02879 0.71343 0.38974 0.0
H444 H 0.05049 0.7296 0.71299 0.0
C445 C 0.06244 0.72876 0.35312 0.0
C446 C 0.09146 0.74325 0.44617 0.0
H447 H 0.0067 0.70126 0.31651 0.0
H448 H 0.06559 0.7278 0.25258 0.0
C449 C 0.08647 0.74361 0.57563 0.0
loop_
_geom_bond_atom_site_label_1
_geom_bond_atom_site_label_2
_geom_bond_distance
_geom_bond_site_symmetry_2
_ccdc_geom_bond_type
Zn0 O6 1.969 1_455 S
Zn0 O7 1.965 1_554 S
Zn0 O11 2.024 . S
Zn0 O16 1.969 . S
Zn1 O8 1.969 1_554 S
Zn1 O14 1.969 . S
Zn1 O15 1.965 . S
Zn1 O17 2.024 1_455 S
C2 O3 1.229 . S
C2 O11 1.058 . S
O3 C2 1.229 . S
C4 O5 1.229 1_655 S
C4 O17 1.058 1_556 S
O5 C4 1.229 1_455 S
O6 Zn0 1.969 1_655 S
O6 C9 1.267 1_554 S
O7 Zn0 1.965 1_556 S
O7 C18 1.260 . S
O8 Zn1 1.969 1_556 S
O8 C18 1.258 . S
C9 O6 1.267 1_556 S
C9 O10 1.228 1_655 S
O10 C9 1.228 1_455 S
O11 Zn0 2.024 . S
O11 C2 1.058 . S
C12 O13 1.228 . S
C12 O14 1.267 . S
O13 C12 1.228 . S
O14 Zn1 1.969 . S
O14 C12 1.267 . S
O15 Zn1 1.965 . S
O15 C19 1.260 . S
O16 Zn0 1.969 . S
O16 C19 1.258 . S
O17 Zn1 2.024 1_655 S
O17 C4 1.058 1_554 S
C18 O7 1.260 . S
C18 O8 1.258 . S
C19 O15 1.260 . S
C19 O16 1.258 . S
Zn20 O26 1.969 . S
Zn20 O27 1.965 . S
Zn20 O31 2.024 . S
Zn20 O36 1.969 1_554 S
Zn21 O28 1.969 . S
Zn21 O34 1.969 . S
Zn21 O35 1.965 1_554 S
Zn21 O37 2.024 . S
C22 O23 1.229 1_554 S
C22 O31 1.058 . S
O23 C22 1.229 1_556 S
C24 O25 1.229 . S
C24 O37 1.058 . S
O25 C24 1.229 . S
O26 Zn20 1.969 . S
O26 C29 1.267 . S
O27 Zn20 1.965 . S
O27 C38 1.260 . S
O28 Zn21 1.969 . S
O28 C38 1.258 . S
C29 O26 1.267 . S
C29 O30 1.228 . S
O30 C29 1.228 . S
O31 Zn20 2.024 . S
O31 C22 1.058 . S
C32 O33 1.228 1_554 S
C32 O34 1.267 . S
O33 C32 1.228 1_556 S
O34 Zn21 1.969 . S
O34 C32 1.267 . S
O35 Zn21 1.965 1_556 S
O35 C39 1.260 . S
O36 Zn20 1.969 1_556 S
O36 C39 1.258 . S
O37 Zn21 2.024 . S
O37 C24 1.058 . S
C38 O27 1.260 . S
C38 O28 1.258 . S
C39 O35 1.260 . S
C39 O36 1.258 . S
Zn40 O46 1.969 . S
Zn40 O47 1.965 . S
Zn40 O51 2.024 1_545 S
Zn40 O56 1.969 . S
Zn41 O48 1.969 1_554 S
Zn41 O54 1.969 1_545 S
Zn41 O55 1.965 . S
Zn41 O57 2.024 . S
C42 O43 1.229 1_565 S
C42 O51 1.058 . S
O43 C42 1.229 1_545 S
C44 O45 1.229 . S
C44 O57 1.058 . S
O45 C44 1.229 . S
O46 Zn40 1.969 . S
O46 C49 1.267 . S
O47 Zn40 1.965 . S
O47 C58 1.260 1_554 S
O48 Zn41 1.969 1_556 S
O48 C58 1.258 . S
C49 O46 1.267 . S
C49 O50 1.228 . S
O50 C49 1.228 . S
O51 Zn40 2.024 1_565 S
O51 C42 1.058 . S
C52 O53 1.228 1_565 S
C52 O54 1.267 . S
O53 C52 1.228 1_545 S
O54 Zn41 1.969 1_565 S
O54 C52 1.267 . S
O55 Zn41 1.965 . S
O55 C59 1.260 . S
O56 Zn40 1.969 . S
O56 C59 1.258 . S
O57 Zn41 2.024 . S
O57 C44 1.058 . S
C58 O47 1.260 1_556 S
C58 O48 1.258 . S
C59 O55 1.260 . S
C59 O56 1.258 . S
Zn60 O66 1.969 . S
Zn60 O67 1.965 . S
Zn60 O71 2.024 . S
Zn60 O76 1.969 . S
Zn61 O68 1.969 . S
Zn61 O74 1.969 . S
Zn61 O75 1.965 . S
Zn61 O77 2.024 . S
C62 O63 1.229 . S
C62 O71 1.058 . S
O63 C62 1.229 . S
C64 O65 1.229 . S
C64 O77 1.058 . S
O65 C64 1.229 . S
O66 Zn60 1.969 . S
O66 C69 1.267 . S
O67 Zn60 1.965 . S
O67 C78 1.260 . S
O68 Zn61 1.969 . S
O68 C78 1.258 . S
C69 O66 1.267 . S
C69 O70 1.228 . S
O70 C69 1.228 . S
O71 Zn60 2.024 . S
O71 C62 1.058 . S
C72 O73 1.228 . S
C72 O74 1.267 . S
O73 C72 1.228 . S
O74 Zn61 1.969 . S
O74 C72 1.267 . S
O75 Zn61 1.965 . S
O75 C79 1.260 . S
O76 Zn60 1.969 . S
O76 C79 1.258 . S
O77 Zn61 2.024 . S
O77 C64 1.058 . S
C78 O67 1.260 . S
C78 O68 1.258 . S
C79 O75 1.260 . S
C79 O76 1.258 . S
Zn80 O86 1.969 . S
Zn80 O87 1.965 . S
Zn80 O91 2.024 . S
Zn80 O96 1.969 . S
Zn81 O88 1.969 . S
Zn81 O94 1.969 . S
Zn81 O95 1.965 . S
Zn81 O97 2.024 . S
C82 O83 1.229 . S
C82 O91 1.058 . S
O83 C82 1.229 . S
C84 O85 1.229 . S
C84 O97 1.058 . S
O85 C84 1.229 . S
O86 Zn80 1.969 . S
O86 C89 1.267 . S
O87 Zn80 1.965 . S
O87 C98 1.260 . S
O88 Zn81 1.969 . S
O88 C98 1.258 . S
C89 O86 1.267 . S
C89 O90 1.228 . S
O90 C89 1.228 . S
O91 Zn80 2.024 . S
O91 C82 1.058 . S
C92 O93 1.228 . S
C92 O94 1.267 . S
O93 C92 1.228 . S
O94 Zn81 1.969 . S
O94 C92 1.267 . S
O95 Zn81 1.965 . S
O95 C99 1.260 . S
O96 Zn80 1.969 . S
O96 C99 1.258 . S
O97 Zn81 2.024 . S
O97 C84 1.058 . S
C98 O87 1.260 . S
C98 O88 1.258 . S
C99 O95 1.260 . S
C99 O96 1.258 . S
Zn100 O106 1.969 . S
Zn100 O107 1.965 . S
Zn100 O111 2.024 . S
Zn100 O116 1.969 . S
Zn101 O108 1.969 . S
Zn101 O114 1.969 . S
Zn101 O115 1.965 . S
Zn101 O117 2.024 . S
C102 O103 1.229 . S
C102 O111 1.058 . S
O103 C102 1.229 . S
C104 O105 1.229 . S
C104 O117 1.058 . S
O105 C104 1.229 . S
O106 Zn100 1.969 . S
O106 C109 1.267 . S
O107 Zn100 1.965 . S
O107 C118 1.260 . S
O108 Zn101 1.969 . S
O108 C118 1.258 . S
C109 O106 1.267 . S
C109 O110 1.228 . S
O110 C109 1.228 . S
O111 Zn100 2.024 . S
O111 C102 1.058 . S
C112 O113 1.228 . S
C112 O114 1.267 . S
O113 C112 1.228 . S
O114 Zn101 1.969 . S
O114 C112 1.267 . S
O115 Zn101 1.965 . S
O115 C119 1.260 . S
O116 Zn100 1.969 . S
O116 C119 1.258 . S
O117 Zn101 2.024 . S
O117 C104 1.058 . S
C118 O107 1.260 . S
C118 O108 1.258 . S
C119 O115 1.260 . S
C119 O116 1.258 . S
Zn120 O126 1.969 . S
Zn120 O127 1.965 . S
Zn120 O131 2.024 . S
Zn120 O136 1.969 . S
Zn121 O128 1.969 . S
Zn121 O134 1.969 . S
Zn121 O135 1.965 . S
Zn121 O137 2.024 . S
C122 O123 1.229 . S
C122 O131 1.058 . S
O123 C122 1.229 . S
C124 O125 1.229 . S
C124 O137 1.058 . S
O125 C124 1.229 . S
O126 Zn120 1.969 . S
O126 C129 1.267 1_556 S
O127 Zn120 1.965 . S
O127 C138 1.260 . S
O128 Zn121 1.969 . S
O128 C138 1.258 . S
C129 O126 1.267 1_554 S
C129 O130 1.228 . S
O130 C129 1.228 . S
O131 Zn120 2.024 . S
O131 C122 1.058 . S
C132 O133 1.228 . S
C132 O134 1.267 . S
O133 C132 1.228 . S
O134 Zn121 1.969 . S
O134 C132 1.267 . S
O135 Zn121 1.965 . S
O135 C139 1.260 . S
O136 Zn120 1.969 . S
O136 C139 1.258 . S
O137 Zn121 2.024 . S
O137 C124 1.058 . S
C138 O127 1.260 . S
C138 O128 1.258 . S
C139 O135 1.260 . S
C139 O136 1.258 . S
Zn140 O146 1.969 . S
Zn140 O147 1.965 . S
Zn140 O151 2.024 . S
Zn140 O156 1.969 . S
Zn141 O148 1.969 . S
Zn141 O154 1.969 . S
Zn141 O155 1.965 . S
Zn141 O157 2.024 . S
C142 O143 1.229 . S
C142 O151 1.058 1_455 S
O143 C142 1.229 . S
C144 O145 1.229 . S
C144 O157 1.058 . S
O145 C144 1.229 . S
O146 Zn140 1.969 . S
O146 C149 1.267 . S
O147 Zn140 1.965 . S
O147 C158 1.260 . S
O148 Zn141 1.969 . S
O148 C158 1.258 . S
C149 O146 1.267 . S
C149 O150 1.228 . S
O150 C149 1.228 . S
O151 Zn140 2.024 . S
O151 C142 1.058 1_655 S
C152 O153 1.228 . S
C152 O154 1.267 1_554 S
O153 C152 1.228 . S
O154 Zn141 1.969 . S
O154 C152 1.267 1_556 S
O155 Zn141 1.965 . S
O155 C159 1.260 . S
O156 Zn140 1.969 . S
O156 C159 1.258 . S
O157 Zn141 2.024 . S
O157 C144 1.058 . S
C158 O147 1.260 . S
C158 O148 1.258 . S
C159 O155 1.260 . S
C159 O156 1.258 . S
Zn160 O166 1.969 . S
Zn160 O167 1.965 . S
Zn160 O171 2.024 . S
Zn160 O176 1.969 . S
Zn161 O168 1.969 . S
Zn161 O174 1.969 . S
Zn161 O175 1.965 . S
Zn161 O177 2.024 . S
C162 O163 1.229 . S
C162 O171 1.058 . S
O163 C162 1.229 . S
C164 O165 1.229 . S
C164 O177 1.058 1_455 S
O165 C164 1.229 . S
O166 Zn160 1.969 . S
O166 C169 1.267 1_556 S
O167 Zn160 1.965 . S
O167 C178 1.260 . S
O168 Zn161 1.969 . S
O168 C178 1.258 . S
C169 O166 1.267 1_554 S
C169 O170 1.228 . S
O170 C169 1.228 . S
O171 Zn160 2.024 . S
O171 C162 1.058 . S
C172 O173 1.228 . S
C172 O174 1.267 . S
O173 C172 1.228 . S
O174 Zn161 1.969 . S
O174 C172 1.267 . S
O175 Zn161 1.965 . S
O175 C179 1.260 . S
O176 Zn160 1.969 . S
O176 C179 1.258 . S
O177 Zn161 2.024 . S
O177 C164 1.058 1_655 S
C178 O167 1.260 . S
C178 O168 1.258 . S
C179 O175 1.260 . S
C179 O176 1.258 . S
C180 C181 1.387 . S
C180 H184 0.950 . S
C180 C189 1.390 . S
C181 C180 1.387 . S
C181 C183 1.387 . S
H182 C189 0.950 . S
C183 C181 1.387 . S
C183 C185 1.390 . S
C183 H187 0.950 . S
H184 C180 0.950 . S
C185 C183 1.390 . S
C185 C186 1.387 . S
C185 H188 0.950 . S
C186 C185 1.387 . S
C186 C189 1.387 . S
H187 C183 0.950 . S
H188 C185 0.950 . S
C189 C180 1.390 . S
C189 H182 0.950 . S
C189 C186 1.387 . S
C190 C191 1.387 . S
C190 H194 0.950 . S
C190 C199 1.390 . S
C191 C190 1.387 . S
C191 C193 1.387 . S
H192 C199 0.950 . S
C193 C191 1.387 . S
C193 C195 1.390 . S
C193 H197 0.950 . S
H194 C190 0.950 . S
C195 C193 1.390 . S
C195 C196 1.387 . S
C195 H198 0.950 . S
C196 C195 1.387 . S
C196 C199 1.387 . S
H197 C193 0.950 . S
H198 C195 0.950 . S
C199 C190 1.390 . S
C199 H192 0.950 . S
C199 C196 1.387 . S
C200 C201 1.387 . S
C200 H204 0.950 . S
C200 C209 1.390 . S
C201 C200 1.387 . S
C201 C203 1.387 . S
H202 C209 0.950 . S
C203 C201 1.387 . S
C203 C205 1.390 . S
C203 H207 0.950 . S
H204 C200 0.950 . S
C205 C203 1.390 . S
C205 C206 1.387 . S
C205 H208 0.950 . S
C206 C205 1.387 . S
C206 C209 1.387 . S
H207 C203 0.950 . S
H208 C205 0.950 . S
C209 C200 1.390 . S
C209 H202 0.950 . S
C209 C206 1.387 . S
C210 C211 1.387 . S
C210 H214 0.950 . S
C210 C219 1.390 . S
C211 C210 1.387 . S
C211 C213 1.387 . S
H212 C219 0.950 . S
C213 C211 1.387 . S
C213 C215 1.390 . S
C213 H217 0.950 . S
H214 C210 0.950 . S
C215 C213 1.390 . S
C215 C216 1.387 . S
C215 H218 0.950 . S
C216 C215 1.387 . S
C216 C219 1.387 . S
H217 C213 0.950 . S
H218 C215 0.950 . S
C219 C210 1.390 . S
C219 H212 0.950 . S
C219 C216 1.387 . S
C220 C221 1.387 . S
C220 H224 0.950 . S
C220 C229 1.390 . S
C221 C220 1.387 . S
C221 C223 1.387 . S
H222 C229 0.950 . S
C223 C221 1.387 . S
C223 C225 1.390 . S
C223 H227 0.950 . S
H224 C220 0.950 . S
C225 C223 1.390 . S
C225 C226 1.387 . S
C225 H228 0.950 . S
C226 C225 1.387 . S
C226 C229 1.387 . S
H227 C223 0.950 . S
H228 C225 0.950 . S
C229 C220 1.390 . S
C229 H222 0.950 . S
C229 C226 1.387 . S
C230 C231 1.387 . S
C230 H234 0.950 . S
C230 C239 1.390 . S
C231 C230 1.387 . S
C231 C233 1.387 . S
H232 C239 0.950 . S
C233 C231 1.387 . S
C233 C235 1.390 . S
C233 H237 0.950 . S
H234 C230 0.950 . S
C235 C233 1.390 . S
C235 C236 1.387 . S
C235 H238 0.950 . S
C236 C235 1.387 . S
C236 C239 1.387 . S
H237 C233 0.950 . S
H238 C235 0.950 . S
C239 C230 1.390 . S
C239 H232 0.950 . S
C239 C236 1.387 . S
C240 C241 1.387 . S
C240 H244 0.950 . S
C240 C249 1.390 . S
C241 C240 1.387 . S
C241 C243 1.387 . S
H242 C249 0.950 . S
C243 C241 1.387 . S
C243 C245 1.390 . S
C243 H247 0.950 . S
H244 C240 0.950 . S
C245 C243 1.390 . S
C245 C246 1.387 . S
C245 H248 0.950 . S
C246 C245 1.387 . S
C246 C249 1.387 . S
H247 C243 0.950 . S
H248 C245 0.950 . S
C249 C240 1.390 . S
C249 H242 0.950 . S
C249 C246 1.387 . S
C250 C251 1.387 . S
C250 H254 0.950 . S
C250 C259 1.390 . S
C251 C250 1.387 . S
C251 C253 1.387 . S
H252 C259 0.950 . S
C253 C251 1.387 . S
C253 C255 1.390 . S
C253 H257 0.950 . S
H254 C250 0.950 . S
C255 C253 1.390 . S
C255 C256 1.387 . S
C255 H258 0.950 . S
C256 C255 1.387 . S
C256 C259 1.387 . S
H257 C253 0.950 . S
H258 C255 0.950 . S
C259 C250 1.390 . S
C259 H252 0.950 . S
C259 C256 1.387 . S
C260 C261 1.387 . S
C260 H264 0.950 . S
C260 C269 1.390 . S
C261 C260 1.387 . S
C261 C263 1.387 . S
H262 C269 0.950 . S
C263 C261 1.387 . S
C263 C265 1.390 . S
C263 H267 0.950 . S
H264 C260 0.950 . S
C265 C263 1.390 . S
C265 C266 1.387 . S
C265 H268 0.950 . S
C266 C265 1.387 . S
C266 C269 1.387 . S
H267 C263 0.950 . S
H268 C265 0.950 . S
C269 C260 1.390 . S
C269 H262 0.950 . S
C269 C266 1.387 . S
C270 C271 1.387 . S
C270 H274 0.950 1_554 S
C270 C279 1.390 . S
C271 C270 1.387 . S
C271 C273 1.387 . S
H272 C279 0.950 1_556 S
C273 C271 1.387 . S
C273 C275 1.390 . S
C273 H277 0.950 . S
H274 C270 0.950 1_556 S
C275 C273 1.390 . S
C275 C276 1.387 . S
C275 H278 0.950 . S
C276 C275 1.387 . S
C276 C279 1.387 . S
H277 C273 0.950 . S
H278 C275 0.950 . S
C279 C270 1.390 . S
C279 H272 0.950 1_554 S
C279 C276 1.387 . S
C280 C281 1.387 . S
C280 H284 0.950 . S
C280 C289 1.390 . S
C281 C280 1.387 . S
C281 C283 1.387 . S
H282 C289 0.950 . S
C283 C281 1.387 . S
C283 C285 1.390 . S
C283 H287 0.950 . S
H284 C280 0.950 . S
C285 C283 1.390 . S
C285 C286 1.387 . S
C285 H288 0.950 . S
C286 C285 1.387 . S
C286 C289 1.387 . S
H287 C283 0.950 . S
H288 C285 0.950 . S
C289 C280 1.390 . S
C289 H282 0.950 . S
C289 C286 1.387 . S
C290 C291 1.387 . S
C290 H294 0.950 . S
C290 C299 1.390 . S
C291 C290 1.387 . S
C291 C293 1.387 . S
H292 C299 0.950 . S
C293 C291 1.387 . S
C293 C295 1.390 . S
C293 H297 0.950 . S
H294 C290 0.950 . S
C295 C293 1.390 . S
C295 C296 1.387 . S
C295 H298 0.950 . S
C296 C295 1.387 . S
C296 C299 1.387 . S
H297 C293 0.950 . S
H298 C295 0.950 . S
C299 C290 1.390 . S
C299 H292 0.950 . S
C299 C296 1.387 . S
C300 C301 1.387 . S
C300 H304 0.950 . S
C300 C309 1.390 . S
C301 C300 1.387 . S
C301 C303 1.387 1_554 S
H302 C309 0.950 . S
C303 C301 1.387 1_556 S
C303 C305 1.390 . S
C303 H307 0.950 . S
H304 C300 0.950 . S
C305 C303 1.390 . S
C305 C306 1.387 . S
C305 H308 0.950 . S
C306 C305 1.387 . S
C306 C309 1.387 1_556 S
H307 C303 0.950 . S
H308 C305 0.950 . S
C309 C300 1.390 . S
C309 H302 0.950 . S
C309 C306 1.387 1_554 S
C310 C311 1.387 . S
C310 H314 0.950 . S
C310 C319 1.390 . S
C311 C310 1.387 . S
C311 C313 1.387 . S
H312 C319 0.950 . S
C313 C311 1.387 . S
C313 C315 1.390 . S
C313 H317 0.946 1_655 S
H314 C310 0.950 . S
C315 C313 1.390 . S
C315 C316 1.387 . S
C315 H318 0.950 1_655 S
C316 C315 1.387 . S
C316 C319 1.387 . S
H317 C313 0.946 1_455 S
H318 C315 0.950 1_455 S
C319 C310 1.390 . S
C319 H312 0.950 . S
C319 C316 1.387 . S
C320 C321 1.387 . S
C320 H324 0.950 . S
C320 C329 1.390 1_556 S
C321 C320 1.387 . S
C321 C323 1.387 . S
H322 C329 0.950 . S
C323 C321 1.387 . S
C323 C325 1.390 . S
C323 H327 0.950 . S
H324 C320 0.950 . S
C325 C323 1.390 . S
C325 C326 1.387 . S
C325 H328 0.950 . S
C326 C325 1.387 . S
C326 C329 1.387 1_556 S
H327 C323 0.950 . S
H328 C325 0.950 . S
C329 C320 1.390 1_554 S
C329 H322 0.950 . S
C329 C326 1.387 1_554 S
C330 C331 1.387 . S
C330 H334 0.950 . S
C330 C339 1.390 . S
C331 C330 1.387 . S
C331 C333 1.387 . S
H332 C339 0.950 . S
C333 C331 1.387 . S
C333 C335 1.390 . S
C333 H337 0.950 . S
H334 C330 0.950 . S
C335 C333 1.390 . S
C335 C336 1.387 . S
C335 H338 0.950 1_556 S
C336 C335 1.387 . S
C336 C339 1.387 . S
H337 C333 0.950 . S
H338 C335 0.950 1_554 S
C339 C330 1.390 . S
C339 H332 0.950 . S
C339 C336 1.387 . S
C340 C341 1.387 . S
C340 H344 0.950 . S
C340 C349 1.390 . S
C341 C340 1.387 . S
C341 C343 1.387 . S
H342 C349 0.950 . S
C343 C341 1.387 . S
C343 C345 1.390 . S
C343 H347 0.950 1_556 S
H344 C340 0.950 . S
C345 C343 1.390 . S
C345 C346 1.387 . S
C345 H348 0.950 . S
C346 C345 1.387 . S
C346 C349 1.387 . S
H347 C343 0.950 1_554 S
H348 C345 0.950 . S
C349 C340 1.390 . S
C349 H342 0.950 . S
C349 C346 1.387 . S
C350 C351 1.387 . S
C350 H354 0.950 . S
C350 C359 1.390 . S
C351 C350 1.387 . S
C351 C353 1.387 . S
H352 C359 0.950 . S
C353 C351 1.387 . S
C353 C355 1.390 1_556 S
C353 H357 0.950 . S
H354 C350 0.950 . S
C355 C353 1.390 1_554 S
C355 C356 1.387 . S
C355 H358 0.950 . S
C356 C355 1.387 . S
C356 C359 1.387 1_554 S
H357 C353 0.950 . S
H358 C355 0.950 . S
C359 C350 1.390 . S
C359 H352 0.950 . S
C359 C356 1.387 1_556 S
C360 C361 1.387 . S
C360 H364 0.950 . S
C360 C369 1.390 . S
C361 C360 1.387 . S
C361 C363 1.387 . S
H362 C369 0.950 . S
C363 C361 1.387 . S
C363 C365 1.390 . S
C363 H367 0.950 . S
H364 C360 0.950 . S
C365 C363 1.390 . S
C365 C366 1.387 . S
C365 H368 0.950 . S
C366 C365 1.387 . S
C366 C369 1.387 . S
H367 C363 0.950 . S
H368 C365 0.950 . S
C369 C360 1.390 . S
C369 H362 0.950 . S
C369 C366 1.387 . S
C370 C371 1.387 . S
C370 H374 0.950 . S
C370 C379 1.390 . S
C371 C370 1.387 . S
C371 C373 1.387 . S
H372 C379 0.950 . S
C373 C371 1.387 . S
C373 C375 1.390 . S
C373 H377 0.950 . S
H374 C370 0.950 . S
C375 C373 1.390 . S
C375 C376 1.387 . S
C375 H378 0.950 . S
C376 C375 1.387 . S
C376 C379 1.387 . S
H377 C373 0.950 . S
H378 C375 0.950 . S
C379 C370 1.390 . S
C379 H372 0.950 . S
C379 C376 1.387 . S
C380 C381 1.387 . S
C380 H384 0.950 1_554 S
C380 C389 1.390 . S
C381 C380 1.387 . S
C381 C383 1.387 . S
H382 C389 0.950 1_556 S
C383 C381 1.387 . S
C383 C385 1.390 . S
C383 H387 0.950 . S
H384 C380 0.950 1_556 S
C385 C383 1.390 . S
C385 C386 1.387 . S
C385 H388 0.950 . S
C386 C385 1.387 . S
C386 C389 1.387 . S
H387 C383 0.950 . S
H388 C385 0.950 . S
C389 C380 1.390 . S
C389 H382 0.950 1_554 S
C389 C386 1.387 . S
C390 C391 1.387 . S
C390 H394 0.950 . S
C390 C399 1.390 . S
C391 C390 1.387 . S
C391 C393 1.387 . S
H392 C399 0.950 . S
C393 C391 1.387 . S
C393 C395 1.390 . S
C393 H397 0.950 . S
H394 C390 0.950 . S
C395 C393 1.390 . S
C395 C396 1.387 . S
C395 H398 0.950 . S
C396 C395 1.387 . S
C396 C399 1.387 . S
H397 C393 0.950 . S
H398 C395 0.950 . S
C399 C390 1.390 . S
C399 H392 0.950 . S
C399 C396 1.387 . S
C400 C401 1.387 . S
C400 H404 0.950 . S
C400 C409 1.390 . S
C401 C400 1.387 . S
C401 C403 1.387 . S
H402 C409 0.950 . S
C403 C401 1.387 . S
C403 C405 1.390 . S
C403 H407 0.950 . S
H404 C400 0.950 . S
C405 C403 1.390 . S
C405 C406 1.387 1_545 S
C405 H408 0.950 1_545 S
C406 C405 1.387 1_565 S
C406 C409 1.387 1_565 S
H407 C403 0.950 . S
H408 C405 0.950 1_565 S
C409 C400 1.390 . S
C409 H402 0.950 . S
C409 C406 1.387 1_545 S
C410 C411 1.387 . S
C410 H414 0.948 . S
C410 C419 1.390 . S
C411 C410 1.387 . S
C411 C413 1.387 . S
H412 C419 0.950 . S
C413 C411 1.387 . S
C413 C415 1.390 . S
C413 H417 0.950 . S
H414 C410 0.948 . S
C415 C413 1.390 . S
C415 C416 1.387 . S
C415 H418 0.950 . S
C416 C415 1.387 . S
C416 C419 1.387 . S
H417 C413 0.950 . S
H418 C415 0.950 . S
C419 C410 1.390 . S
C419 H412 0.950 . S
C419 C416 1.387 . S
C420 C421 1.387 . S
C420 H424 0.950 . S
C420 C429 1.390 . S
C421 C420 1.387 . S
C421 C423 1.387 . S
H422 C429 0.950 . S
C423 C421 1.387 . S
C423 C425 1.390 . S
C423 H427 0.950 . S
H424 C420 0.950 . S
C425 C423 1.390 . S
C425 C426 1.387 . S
C425 H428 0.950 . S
C426 C425 1.387 . S
C426 C429 1.387 . S
H427 C423 0.950 . S
H428 C425 0.950 . S
C429 C420 1.390 . S
C429 H422 0.950 . S
C429 C426 1.387 . S
C430 C431 1.387 1_545 S
C430 H434 0.950 . S
C430 C439 1.390 . S
C431 C430 1.387 1_565 S
C431 C433 1.387 . S
H432 C439 0.950 . S
C433 C431 1.387 . S
C433 C435 1.390 1_565 S
C433 H437 0.950 . S
H434 C430 0.950 . S
C435 C433 1.390 1_545 S
C435 C436 1.387 . S
C435 H438 0.950 . S
C436 C435 1.387 . S
C436 C439 1.387 . S
H437 C433 0.950 . S
H438 C435 0.950 . S
C439 C430 1.390 . S
C439 H432 0.950 . S
C439 C436 1.387 . S
C440 C441 1.387 . S
C440 H444 0.950 . S
C440 C449 1.390 . S
C441 C440 1.387 . S
C441 C443 1.387 . S
H442 C449 0.950 . S
C443 C441 1.387 . S
C443 C445 1.390 . S
C443 H447 0.950 . S
H444 C440 0.950 . S
C445 C443 1.390 . S
C445 C446 1.387 . S
C445 H448 0.950 . S
C446 C445 1.387 . S
C446 C449 1.387 . S
H447 C443 0.950 . S
H448 C445 0.950 . S
C449 C440 1.390 . S
C449 H442 0.950 . S
C449 C446 1.387 . S
C181 C18 2.145 . S
C186 C19 2.145 . S
C191 C39 2.159 . S
C196 C38 2.159 . S
C201 C58 2.168 . S
C206 C59 2.168 . S
C211 C79 2.145 . S
C216 C78 2.145 1_556 S
C221 C98 2.159 . S
C226 C99 2.159 1_556 S
C231 C119 2.169 . S
C236 C118 2.169 1_556 S
C241 C132 0.626 . S
C246 C129 0.626 . S
C251 C149 0.836 . S
C256 C152 0.836 . S
C261 C172 0.847 . S
C266 C169 0.847 . S
C271 C104 1.458 . S
C276 C12 1.532 . S
C281 C24 1.434 . S
C286 C64 1.477 . S
C291 C52 1.529 . S
C296 C92 1.560 . S
C301 C44 1.272 . S
C306 C122 1.338 . S
C311 C159 1.500 . S
C316 C4 1.340 . S
C321 C162 1.393 . S
C326 C32 1.411 1_556 S
C331 C178 1.570 . S
C336 C9 1.471 . S
C341 C22 1.318 1_556 S
C346 C138 1.476 . S
C351 C144 1.395 . S
C356 C49 1.415 . S
C361 C42 1.454 . S
C366 C69 1.535 . S
C371 C82 1.433 . S
C376 C2 1.479 . S
C381 C29 1.563 . S
C386 C109 1.526 . S
C391 C179 1.569 . S
C396 C72 1.475 . S
C401 C139 1.475 . S
C406 C84 1.316 . S
C411 C142 1.395 . S
C416 C112 1.413 . S
C421 C124 1.333 . S
C426 C102 1.273 . S
C431 C62 1.340 . S
C436 C158 1.499 . S
C441 C164 1.392 . S
C446 C89 1.411 . S
