# Generated by pormake.
# Topology uos, (4)-cn, num edge types: 1
# Building blocks:
#     Node 0, Type 0, BuildingBlock: CEKHIL_clean_sbu_0, # of connection points: 4
#     Node 1, Type 0, BuildingBlock: CEKHIL_clean_sbu_0, # of connection points: 4
#     Node 2, Type 0, BuildingBlock: CEKHIL_clean_sbu_0, # of connection points: 4
#     Node 3, Type 0, BuildingBlock: CEKHIL_clean_sbu_0, # of connection points: 4
#     Node 4, Type 0, BuildingBlock: CEKHIL_clean_sbu_0, # of connection points: 4
#     Node 5, Type 0, BuildingBlock: CEKHIL_clean_sbu_0, # of connection points: 4
#     Node 6, Type 0, BuildingBlock: CEKHIL_clean_sbu_0, # of connection points: 4
#     Node 7, Type 0, BuildingBlock: CEKHIL_clean_sbu_0, # of connection points: 4
#     Node 8, Type 0, BuildingBlock: CEKHIL_clean_sbu_0, # of connection points: 4
#     Node 9, Type 0, BuildingBlock: CEKHIL_clean_sbu_0, # of connection points: 4
#     Node 10, Type 0, BuildingBlock: CEKHIL_clean_sbu_0, # of connection points: 4
#     Node 11, Type 0, BuildingBlock: CEKHIL_clean_sbu_0, # of connection points: 4
#     Node 12, Type 0, BuildingBlock: CEKHIL_clean_sbu_0, # of connection points: 4
#     Node 13, Type 0, BuildingBlock: CEKHIL_clean_sbu_0, # of connection points: 4
#     Node 14, Type 0, BuildingBlock: CEKHIL_clean_sbu_0, # of connection points: 4
#     Node 15, Type 0, BuildingBlock: CEKHIL_clean_sbu_0, # of connection points: 4
#     Node 16, Type 0, BuildingBlock: CEKHIL_clean_sbu_0, # of connection points: 4
#     Node 17, Type 0, BuildingBlock: CEKHIL_clean_sbu_0, # of connection points: 4
#     Node 18, Type 0, BuildingBlock: CEKHIL_clean_sbu_0, # of connection points: 4
#     Node 19, Type 0, BuildingBlock: CEKHIL_clean_sbu_0, # of connection points: 4
#     Node 20, Type 0, BuildingBlock: CEKHIL_clean_sbu_0, # of connection points: 4
#     Node 21, Type 0, BuildingBlock: CEKHIL_clean_sbu_0, # of connection points: 4
#     Node 22, Type 0, BuildingBlock: CEKHIL_clean_sbu_0, # of connection points: 4
#     Node 23, Type 0, BuildingBlock: CEKHIL_clean_sbu_0, # of connection points: 4
#     Node 24, Type 0, BuildingBlock: CEKHIL_clean_sbu_0, # of connection points: 4
#     Node 25, Type 0, BuildingBlock: CEKHIL_clean_sbu_0, # of connection points: 4
#     Node 26, Type 0, BuildingBlock: CEKHIL_clean_sbu_0, # of connection points: 4
#     Node 27, Type 0, BuildingBlock: CEKHIL_clean_sbu_0, # of connection points: 4
#     Node 28, Type 0, BuildingBlock: CEKHIL_clean_sbu_0, # of connection points: 4
#     Node 29, Type 0, BuildingBlock: CEKHIL_clean_sbu_0, # of connection points: 4
#     Node 30, Type 0, BuildingBlock: CEKHIL_clean_sbu_0, # of connection points: 4
#     Node 31, Type 0, BuildingBlock: CEKHIL_clean_sbu_0, # of connection points: 4
#     Edge 32, Type (0, 0), BuildingBlock: ZUJKAS_clean_linker_0, # of connection points: 2
#     Edge 33, Type (0, 0), BuildingBlock: ZUJKAS_clean_linker_0, # of connection points: 2
#     Edge 34, Type (0, 0), BuildingBlock: ZUJKAS_clean_linker_0, # of connection points: 2
#     Edge 35, Type (0, 0), BuildingBlock: ZUJKAS_clean_linker_0, # of connection points: 2
#     Edge 36, Type (0, 0), BuildingBlock: ZUJKAS_clean_linker_0, # of connection points: 2
#     Edge 37, Type (0, 0), BuildingBlock: ZUJKAS_clean_linker_0, # of connection points: 2
#     Edge 38, Type (0, 0), BuildingBlock: ZUJKAS_clean_linker_0, # of connection points: 2
#     Edge 39, Type (0, 0), BuildingBlock: ZUJKAS_clean_linker_0, # of connection points: 2
#     Edge 40, Type (0, 0), BuildingBlock: ZUJKAS_clean_linker_0, # of connection points: 2
#     Edge 41, Type (0, 0), BuildingBlock: ZUJKAS_clean_linker_0, # of connection points: 2
#     Edge 42, Type (0, 0), BuildingBlock: ZUJKAS_clean_linker_0, # of connection points: 2
#     Edge 43, Type (0, 0), BuildingBlock: ZUJKAS_clean_linker_0, # of connection points: 2
#     Edge 44, Type (0, 0), BuildingBlock: ZUJKAS_clean_linker_0, # of connection points: 2
#     Edge 45, Type (0, 0), BuildingBlock: ZUJKAS_clean_linker_0, # of connection points: 2
#     Edge 46, Type (0, 0), BuildingBlock: ZUJKAS_clean_linker_0, # of connection points: 2
#     Edge 47, Type (0, 0), BuildingBlock: ZUJKAS_clean_linker_0, # of connection points: 2
#     Edge 48, Type (0, 0), BuildingBlock: ZUJKAS_clean_linker_0, # of connection points: 2
#     Edge 49, Type (0, 0), BuildingBlock: ZUJKAS_clean_linker_0, # of connection points: 2
#     Edge 50, Type (0, 0), BuildingBlock: ZUJKAS_clean_linker_0, # of connection points: 2
#     Edge 51, Type (0, 0), BuildingBlock: ZUJKAS_clean_linker_0, # of connection points: 2
#     Edge 52, Type (0, 0), BuildingBlock: ZUJKAS_clean_linker_0, # of connection points: 2
#     Edge 53, Type (0, 0), BuildingBlock: ZUJKAS_clean_linker_0, # of connection points: 2
#     Edge 54, Type (0, 0), BuildingBlock: ZUJKAS_clean_linker_0, # of connection points: 2
#     Edge 55, Type (0, 0), BuildingBlock: ZUJKAS_clean_linker_0, # of connection points: 2
#     Edge 56, Type (0, 0), BuildingBlock: ZUJKAS_clean_linker_0, # of connection points: 2
#     Edge 57, Type (0, 0), BuildingBlock: ZUJKAS_clean_linker_0, # of connection points: 2
#     Edge 58, Type (0, 0), BuildingBlock: ZUJKAS_clean_linker_0, # of connection points: 2
#     Edge 59, Type (0, 0), BuildingBlock: ZUJKAS_clean_linker_0, # of connection points: 2
#     Edge 60, Type (0, 0), BuildingBlock: ZUJKAS_clean_linker_0, # of connection points: 2
#     Edge 61, Type (0, 0), BuildingBlock: ZUJKAS_clean_linker_0, # of connection points: 2
#     Edge 62, Type (0, 0), BuildingBlock: ZUJKAS_clean_linker_0, # of connection points: 2
#     Edge 63, Type (0, 0), BuildingBlock: ZUJKAS_clean_linker_0, # of connection points: 2
#     Edge 64, Type (0, 0), BuildingBlock: ZUJKAS_clean_linker_0, # of connection points: 2
#     Edge 65, Type (0, 0), BuildingBlock: ZUJKAS_clean_linker_0, # of connection points: 2
#     Edge 66, Type (0, 0), BuildingBlock: ZUJKAS_clean_linker_0, # of connection points: 2
#     Edge 67, Type (0, 0), BuildingBlock: ZUJKAS_clean_linker_0, # of connection points: 2
#     Edge 68, Type (0, 0), BuildingBlock: ZUJKAS_clean_linker_0, # of connection points: 2
#     Edge 69, Type (0, 0), BuildingBlock: ZUJKAS_clean_linker_0, # of connection points: 2
#     Edge 70, Type (0, 0), BuildingBlock: ZUJKAS_clean_linker_0, # of connection points: 2
#     Edge 71, Type (0, 0), BuildingBlock: ZUJKAS_clean_linker_0, # of connection points: 2
#     Edge 72, Type (0, 0), BuildingBlock: ZUJKAS_clean_linker_0, # of connection points: 2
#     Edge 73, Type (0, 0), BuildingBlock: ZUJKAS_clean_linker_0, # of connection points: 2
#     Edge 74, Type (0, 0), BuildingBlock: ZUJKAS_clean_linker_0, # of connection points: 2
#     Edge 75, Type (0, 0), BuildingBlock: ZUJKAS_clean_linker_0, # of connection points: 2
#     Edge 76, Type (0, 0), BuildingBlock: ZUJKAS_clean_linker_0, # of connection points: 2
#     Edge 77, Type (0, 0), BuildingBlock: ZUJKAS_clean_linker_0, # of connection points: 2
#     Edge 78, Type (0, 0), BuildingBlock: ZUJKAS_clean_linker_0, # of connection points: 2
#     Edge 79, Type (0, 0), BuildingBlock: ZUJKAS_clean_linker_0, # of connection points: 2
#     Edge 80, Type (0, 0), BuildingBlock: ZUJKAS_clean_linker_0, # of connection points: 2
#     Edge 81, Type (0, 0), BuildingBlock: ZUJKAS_clean_linker_0, # of connection points: 2
#     Edge 82, Type (0, 0), BuildingBlock: ZUJKAS_clean_linker_0, # of connection points: 2
#     Edge 83, Type (0, 0), BuildingBlock: ZUJKAS_clean_linker_0, # of connection points: 2
#     Edge 84, Type (0, 0), BuildingBlock: ZUJKAS_clean_linker_0, # of connection points: 2
#     Edge 85, Type (0, 0), BuildingBlock: ZUJKAS_clean_linker_0, # of connection points: 2
#     Edge 86, Type (0, 0), BuildingBlock: ZUJKAS_clean_linker_0, # of connection points: 2
#     Edge 87, Type (0, 0), BuildingBlock: ZUJKAS_clean_linker_0, # of connection points: 2
#     Edge 88, Type (0, 0), BuildingBlock: ZUJKAS_clean_linker_0, # of connection points: 2
#     Edge 89, Type (0, 0), BuildingBlock: ZUJKAS_clean_linker_0, # of connection points: 2
#     Edge 90, Type (0, 0), BuildingBlock: ZUJKAS_clean_linker_0, # of connection points: 2
#     Edge 91, Type (0, 0), BuildingBlock: ZUJKAS_clean_linker_0, # of connection points: 2
#     Edge 92, Type (0, 0), BuildingBlock: ZUJKAS_clean_linker_0, # of connection points: 2
#     Edge 93, Type (0, 0), BuildingBlock: ZUJKAS_clean_linker_0, # of connection points: 2
#     Edge 94, Type (0, 0), BuildingBlock: ZUJKAS_clean_linker_0, # of connection points: 2
#     Edge 95, Type (0, 0), BuildingBlock: ZUJKAS_clean_linker_0, # of connection points: 2
# Relax obj value: 0.050
# Max RMSD: 0.069
# Mean RMSD: 0.069
data_MOF--net-uos--node1-CEKHIL_clean_sbu_0--edge1-ZUJKAS_clean_linker_0
_symmetry_space_group_name_H-M    P1
_symmetry_Int_Tables_number       1
_symmetry_cell_setting            triclinic
loop_
_symmetry_equiv_pos_as_xyz
'x, y, z'
_cell_length_a     110.21674
_cell_length_b     110.22146
_cell_length_c     29.630031
_cell_angle_alpha  89.980068
_cell_angle_beta   89.983091
_cell_angle_gamma 89.994802
loop_
_atom_site_label
_atom_site_type_symbol
_atom_site_fract_x
_atom_site_fract_y
_atom_site_fract_z
_atom_type_partial_charge
Co0 Co 0.1687 0.16887 0.12287 0.0
O1 O 0.1548 0.16563 0.08487 0.0
O2 O 0.17107 0.15404 0.08781 0.0
C3 C 0.17005 0.18894 0.10522 0.0
O4 O 0.18504 0.16957 0.15646 0.0
Co5 Co 0.16704 0.18756 0.20183 0.0
O6 O 0.18487 0.1855 0.20398 0.0
C7 C 0.15615 0.16314 0.21214 0.0
C8 C 0.16047 0.15613 0.07001 0.0
C9 C 0.19037 0.17671 0.18487 0.0
O10 O 0.16103 0.1595 0.17484 0.0
O11 O 0.15665 0.17415 0.22579 0.0
O12 O 0.17477 0.18083 0.07865 0.0
O13 O 0.16404 0.18463 0.13883 0.0
Co14 Co 0.08816 0.91923 0.36689 0.0
O15 O 0.09117 0.90548 0.32802 0.0
O16 O 0.10291 0.92164 0.33136 0.0
C17 C 0.06805 0.92094 0.35052 0.0
O18 O 0.0876 0.93537 0.40174 0.0
Co19 Co 0.0699 0.9168 0.44701 0.0
O20 O 0.07207 0.93461 0.45111 0.0
C21 C 0.09424 0.90579 0.454 0.0
C22 C 0.1007 0.9111 0.31326 0.0
C23 C 0.08064 0.94037 0.43158 0.0
O24 O 0.09771 0.91128 0.4177 0.0
O25 O 0.08326 0.9059 0.46818 0.0
O26 O 0.07613 0.92564 0.32372 0.0
O27 O 0.07241 0.91461 0.38325 0.0
Co28 Co 0.33607 0.83866 0.61346 0.0
O29 O 0.34983 0.84155 0.57444 0.0
O30 O 0.33377 0.85343 0.57795 0.0
C31 C 0.33416 0.81856 0.59722 0.0
O32 O 0.31994 0.83825 0.64847 0.0
Co33 Co 0.33857 0.82037 0.69362 0.0
O34 O 0.32103 0.82364 0.70169 0.0
C35 C 0.34988 0.84454 0.69987 0.0
C36 C 0.34428 0.85114 0.55975 0.0
C37 C 0.31522 0.83193 0.68079 0.0
O38 O 0.34414 0.84814 0.66429 0.0
O39 O 0.34989 0.83351 0.71341 0.0
O40 O 0.32953 0.82667 0.57038 0.0
O41 O 0.34056 0.82288 0.62977 0.0
Co42 Co 0.41886 0.08738 0.87091 0.0
O43 O 0.41523 0.10152 0.83465 0.0
O44 O 0.40403 0.08497 0.83584 0.0
C45 C 0.43891 0.08658 0.85238 0.0
O46 O 0.42002 0.07076 0.90256 0.0
Co47 Co 0.43784 0.08886 0.94919 0.0
O48 O 0.43581 0.07105 0.95081 0.0
C49 C 0.41278 0.09789 0.96379 0.0
C50 C 0.40588 0.09575 0.81912 0.0
C51 C 0.42715 0.06549 0.93119 0.0
O52 O 0.40938 0.0943 0.9242 0.0
O53 O 0.42376 0.09727 0.97771 0.0
O54 O 0.43082 0.08194 0.8256 0.0
O55 O 0.4346 0.09226 0.88674 0.0
Co56 Co 0.16951 0.83772 0.89157 0.0
O57 O 0.15576 0.84086 0.9304 0.0
O58 O 0.17205 0.85243 0.9271 0.0
C59 C 0.17104 0.8176 0.90787 0.0
O60 O 0.18569 0.83701 0.85699 0.0
Co61 Co 0.16699 0.81948 0.81142 0.0
O62 O 0.18479 0.82168 0.8068 0.0
C63 C 0.15601 0.84383 0.80472 0.0
C64 C 0.16149 0.85032 0.94525 0.0
C65 C 0.19062 0.83012 0.82678 0.0
O66 O 0.16167 0.84734 0.84061 0.0
O67 O 0.15598 0.83282 0.79092 0.0
O68 O 0.17577 0.82562 0.93478 0.0
O69 O 0.16477 0.82202 0.87514 0.0
Co70 Co 0.41807 0.91944 0.13759 0.0
O71 O 0.41489 0.9058 0.17687 0.0
O72 O 0.40341 0.92215 0.17338 0.0
C73 C 0.43822 0.92083 0.15356 0.0
O74 O 0.41884 0.93554 0.10246 0.0
Co75 Co 0.43616 0.91652 0.05716 0.0
O76 O 0.43366 0.93422 0.05021 0.0
C77 C 0.41166 0.90588 0.05109 0.0
C78 C 0.40548 0.91161 0.19173 0.0
C79 C 0.42543 0.9402 0.07077 0.0
O80 O 0.40831 0.91157 0.08712 0.0
O81 O 0.42264 0.90571 0.03694 0.0
O82 O 0.43026 0.92571 0.18037 0.0
O83 O 0.43372 0.91453 0.12107 0.0
Co84 Co 0.33586 0.16767 0.39554 0.0
O85 O 0.35025 0.16427 0.4308 0.0
O86 O 0.33373 0.15301 0.43179 0.0
C87 C 0.3351 0.18779 0.41264 0.0
O88 O 0.31902 0.16859 0.36541 0.0
Co89 Co 0.33643 0.18616 0.31569 0.0
O90 O 0.31858 0.18491 0.31977 0.0
C91 C 0.34544 0.16106 0.30177 0.0
C92 C 0.3446 0.15496 0.44741 0.0
C93 C 0.3133 0.17606 0.33929 0.0
O94 O 0.34251 0.15797 0.34244 0.0
O95 O 0.34431 0.17186 0.2864 0.0
O96 O 0.33068 0.17981 0.44044 0.0
O97 O 0.34055 0.18335 0.37793 0.0
Co98 Co 0.08869 0.08559 0.64756 0.0
O99 O 0.09211 0.10009 0.68215 0.0
O100 O 0.1033 0.08353 0.68411 0.0
C101 C 0.06855 0.08502 0.66459 0.0
O102 O 0.08775 0.06866 0.61825 0.0
Co103 Co 0.07021 0.08583 0.56771 0.0
O104 O 0.07128 0.068 0.57345 0.0
C105 C 0.0954 0.09462 0.55328 0.0
C106 C 0.10136 0.09445 0.6992 0.0
C107 C 0.08019 0.06281 0.59294 0.0
O108 O 0.09847 0.09201 0.59425 0.0
O109 O 0.08462 0.09336 0.53786 0.0
O110 O 0.07648 0.08063 0.6926 0.0
O111 O 0.07304 0.09029 0.62958 0.0
Co112 Co 0.83675 0.83806 0.89222 0.0
O113 O 0.85073 0.84117 0.92991 0.0
O114 O 0.8345 0.85283 0.92773 0.0
C115 C 0.83525 0.81797 0.90916 0.0
O116 O 0.82035 0.83743 0.85898 0.0
Co117 Co 0.8384 0.81957 0.81255 0.0
O118 O 0.82054 0.8215 0.81143 0.0
C119 C 0.84927 0.844 0.80299 0.0
C120 C 0.84514 0.85068 0.9451 0.0
C121 C 0.81502 0.83024 0.83078 0.0
O122 O 0.84437 0.84754 0.84038 0.0
O123 O 0.8488 0.83301 0.78902 0.0
O124 O 0.83068 0.82605 0.93622 0.0
O125 O 0.8413 0.82231 0.87572 0.0
Co126 Co 0.91841 0.0863 0.64447 0.0
O127 O 0.91522 0.10021 0.68236 0.0
O128 O 0.90372 0.08386 0.68027 0.0
C129 C 0.93854 0.08504 0.66107 0.0
O130 O 0.91915 0.06995 0.6111 0.0
Co131 Co 0.93666 0.08822 0.56426 0.0
O132 O 0.93491 0.07033 0.56275 0.0
C133 C 0.91226 0.09913 0.55629 0.0
C134 C 0.9058 0.0945 0.69772 0.0
C135 C 0.92631 0.0647 0.58254 0.0
O136 O 0.90878 0.09386 0.59305 0.0
O137 O 0.92323 0.09891 0.54213 0.0
O138 O 0.93053 0.08033 0.68814 0.0
O139 O 0.93409 0.09105 0.62767 0.0
Co140 Co 0.67012 0.16821 0.39302 0.0
O141 O 0.6564 0.16506 0.43194 0.0
O142 O 0.6727 0.15351 0.42866 0.0
C143 C 0.67154 0.18835 0.40943 0.0
O144 O 0.68627 0.16892 0.35824 0.0
Co145 Co 0.66745 0.18645 0.3129 0.0
O146 O 0.68509 0.18365 0.30559 0.0
C147 C 0.65651 0.1621 0.30648 0.0
C148 C 0.66215 0.15561 0.44685 0.0
C149 C 0.69099 0.1754 0.32636 0.0
O150 O 0.66227 0.15858 0.34213 0.0
O151 O 0.65637 0.17312 0.29292 0.0
O152 O 0.67637 0.18034 0.43618 0.0
O153 O 0.6653 0.1839 0.37666 0.0
Co154 Co 0.58839 0.91898 0.13795 0.0
O155 O 0.5916 0.90512 0.17615 0.0
O156 O 0.60307 0.92148 0.17378 0.0
C157 C 0.56825 0.92024 0.15456 0.0
O158 O 0.5876 0.9353 0.10416 0.0
Co159 Co 0.57003 0.91678 0.05801 0.0
O160 O 0.57237 0.93454 0.05355 0.0
C161 C 0.59461 0.90625 0.0494 0.0
C162 C 0.60099 0.91087 0.1915 0.0
C163 C 0.5808 0.94029 0.0738 0.0
O164 O 0.59805 0.91138 0.08651 0.0
O165 O 0.58362 0.90642 0.03546 0.0
O166 O 0.57624 0.925 0.18152 0.0
O167 O 0.57271 0.91417 0.12139 0.0
Co168 Co 0.83717 0.16799 0.11966 0.0
O169 O 0.85094 0.16478 0.08106 0.0
O170 O 0.83458 0.15331 0.08396 0.0
C171 C 0.83579 0.18813 0.10346 0.0
O172 O 0.82096 0.1688 0.154 0.0
Co173 Co 0.8398 0.18613 0.20002 0.0
O174 O 0.82201 0.18393 0.20498 0.0
C175 C 0.85059 0.16172 0.20653 0.0
C176 C 0.84517 0.15536 0.06605 0.0
C177 C 0.81611 0.17561 0.18462 0.0
O178 O 0.84489 0.15828 0.17064 0.0
O179 O 0.85073 0.17271 0.22039 0.0
O180 O 0.83104 0.18015 0.07642 0.0
O181 O 0.842 0.18364 0.13625 0.0
Co182 Co 0.58894 0.08658 0.86867 0.0
O183 O 0.59209 0.10032 0.82985 0.0
O184 O 0.60362 0.084 0.83294 0.0
C185 C 0.5688 0.08518 0.85244 0.0
O186 O 0.5882 0.07041 0.9033 0.0
Co187 Co 0.57079 0.08924 0.94903 0.0
O188 O 0.57336 0.07154 0.95548 0.0
C189 C 0.59521 0.10004 0.9555 0.0
C190 C 0.60154 0.09458 0.81491 0.0
C191 C 0.58162 0.06564 0.93479 0.0
O192 O 0.59862 0.0944 0.91945 0.0
O193 O 0.58423 0.10012 0.96953 0.0
O194 O 0.57679 0.08037 0.82559 0.0
O195 O 0.57326 0.09142 0.8852 0.0
Co196 Co 0.67005 0.83786 0.61411 0.0
O197 O 0.65597 0.84118 0.57711 0.0
O198 O 0.67228 0.85272 0.57911 0.0
C199 C 0.67136 0.81781 0.59612 0.0
O200 O 0.68654 0.83706 0.6466 0.0
Co201 Co 0.66863 0.8191 0.69297 0.0
O202 O 0.6865 0.821 0.69358 0.0
C203 C 0.65792 0.84355 0.70427 0.0
C204 C 0.6616 0.85067 0.56199 0.0
C205 C 0.69196 0.82979 0.67434 0.0
O206 O 0.66268 0.8472 0.66676 0.0
O207 O 0.65837 0.83251 0.71769 0.0
O208 O 0.67591 0.82597 0.56929 0.0
O209 O 0.66546 0.82207 0.6301 0.0
Co210 Co 0.91823 0.91956 0.36764 0.0
O211 O 0.91502 0.90561 0.3299 0.0
O212 O 0.90347 0.92192 0.33218 0.0
C213 C 0.93833 0.92095 0.35063 0.0
O214 O 0.91898 0.93594 0.40088 0.0
Co215 Co 0.93671 0.91773 0.44731 0.0
O216 O 0.93483 0.9356 0.44883 0.0
C217 C 0.91226 0.90695 0.45659 0.0
C218 C 0.90556 0.91129 0.3147 0.0
C219 C 0.92617 0.9412 0.42931 0.0
O220 O 0.90872 0.91202 0.41952 0.0
O221 O 0.92326 0.90724 0.47042 0.0
O222 O 0.93027 0.92557 0.32361 0.0
O223 O 0.93396 0.91491 0.38407 0.0
Co224 Co 0.6701 0.66803 0.61425 0.0
O225 O 0.65563 0.66458 0.57951 0.0
O226 O 0.67214 0.6533 0.57848 0.0
C227 C 0.6709 0.68812 0.59646 0.0
O228 O 0.68699 0.66896 0.64382 0.0
Co229 Co 0.66984 0.68673 0.69342 0.0
O230 O 0.68769 0.68547 0.68833 0.0
C231 C 0.66097 0.66161 0.70874 0.0
C232 C 0.66125 0.65523 0.56306 0.0
C233 C 0.69285 0.67651 0.66914 0.0
O234 O 0.66358 0.65845 0.66787 0.0
O235 O 0.66228 0.67242 0.72383 0.0
O236 O 0.67521 0.68006 0.56878 0.0
O237 O 0.66551 0.68377 0.63149 0.0
Co238 Co 0.58829 0.4197 0.8684 0.0
O239 O 0.59178 0.40549 0.83228 0.0
O240 O 0.60293 0.42208 0.83222 0.0
C241 C 0.56816 0.42048 0.85143 0.0
O242 O 0.58722 0.4364 0.89956 0.0
Co243 Co 0.56988 0.41835 0.94844 0.0
O244 O 0.57133 0.43622 0.94731 0.0
C245 C 0.59505 0.40952 0.96128 0.0
C246 C 0.60104 0.41127 0.81596 0.0
C247 C 0.57993 0.44178 0.92736 0.0
O248 O 0.59809 0.41289 0.92102 0.0
O249 O 0.58423 0.41028 0.97666 0.0
O250 O 0.57612 0.42502 0.82385 0.0
O251 O 0.57264 0.41483 0.88565 0.0
Co252 Co 0.83756 0.338 0.12164 0.0
O253 O 0.852 0.34127 0.0864 0.0
O254 O 0.83561 0.35273 0.08576 0.0
C255 C 0.83653 0.31791 0.10425 0.0
O256 O 0.82072 0.33729 0.15159 0.0
Co257 Co 0.83772 0.31947 0.20123 0.0
O258 O 0.81986 0.32068 0.19568 0.0
C259 C 0.84751 0.34429 0.21513 0.0
C260 C 0.84644 0.35067 0.07004 0.0
C261 C 0.81479 0.3297 0.17649 0.0
O262 O 0.84433 0.34754 0.17488 0.0
O263 O 0.8463 0.33345 0.23005 0.0
O264 O 0.83224 0.32599 0.07654 0.0
O265 O 0.84201 0.32224 0.13908 0.0
Co266 Co 0.91823 0.58685 0.36609 0.0
O267 O 0.91498 0.60076 0.32823 0.0
O268 O 0.90347 0.58443 0.33079 0.0
C269 C 0.93832 0.58548 0.34912 0.0
O270 O 0.919 0.5705 0.39951 0.0
Co271 Co 0.93668 0.5887 0.44579 0.0
O272 O 0.93516 0.57077 0.44603 0.0
C273 C 0.91232 0.5997 0.45436 0.0
C274 C 0.90552 0.59506 0.31324 0.0
C275 C 0.92642 0.56519 0.42695 0.0
O276 O 0.90872 0.59442 0.41782 0.0
O277 O 0.92333 0.59946 0.46812 0.0
O278 O 0.93027 0.58083 0.32213 0.0
O279 O 0.93394 0.59153 0.38251 0.0
Co280 Co 0.66994 0.33832 0.39275 0.0
O281 O 0.65542 0.34188 0.42712 0.0
O282 O 0.67196 0.35311 0.42827 0.0
C283 C 0.67056 0.31826 0.41108 0.0
O284 O 0.68688 0.33729 0.36355 0.0
Co285 Co 0.66988 0.31946 0.31419 0.0
O286 O 0.68771 0.32034 0.32139 0.0
C287 C 0.66091 0.34452 0.29796 0.0
C288 C 0.66104 0.35123 0.44352 0.0
C289 C 0.69282 0.32945 0.3398 0.0
O290 O 0.66352 0.3478 0.33872 0.0
O291 O 0.66224 0.33366 0.28336 0.0
O292 O 0.67492 0.32634 0.4386 0.0
O293 O 0.6653 0.32258 0.37576 0.0
Co294 Co 0.91833 0.42022 0.64546 0.0
O295 O 0.91489 0.40564 0.67964 0.0
O296 O 0.90367 0.42218 0.6817 0.0
C297 C 0.93843 0.42079 0.66297 0.0
O298 O 0.91924 0.43722 0.61676 0.0
Co299 Co 0.93689 0.42043 0.56603 0.0
O300 O 0.93611 0.43823 0.57418 0.0
C301 C 0.9118 0.41143 0.55072 0.0
C302 C 0.90561 0.41124 0.69666 0.0
C303 C 0.92703 0.44326 0.59312 0.0
O304 O 0.90868 0.41389 0.59177 0.0
O305 O 0.92258 0.41287 0.53549 0.0
O306 O 0.93043 0.4251 0.6909 0.0
O307 O 0.93403 0.41562 0.6276 0.0
Co308 Co 0.83669 0.66818 0.89076 0.0
O309 O 0.85038 0.66523 0.92999 0.0
O310 O 0.83424 0.65346 0.92639 0.0
C311 C 0.83491 0.68828 0.907 0.0
O312 O 0.8206 0.66868 0.85563 0.0
Co313 Co 0.83915 0.68639 0.81057 0.0
O314 O 0.82136 0.68414 0.80601 0.0
C315 C 0.85022 0.66207 0.80388 0.0
C316 C 0.84473 0.65571 0.94479 0.0
C317 C 0.81561 0.67558 0.82558 0.0
O318 O 0.84473 0.65862 0.8402 0.0
O319 O 0.85008 0.67303 0.78957 0.0
O320 O 0.83019 0.6802 0.93371 0.0
O321 O 0.8413 0.68394 0.87439 0.0
Co322 Co 0.58765 0.58731 0.13878 0.0
O323 O 0.59039 0.60102 0.17819 0.0
O324 O 0.60244 0.5851 0.17426 0.0
C325 C 0.56758 0.58519 0.15513 0.0
O326 O 0.58744 0.57123 0.10344 0.0
Co327 Co 0.56935 0.58962 0.0587 0.0
O328 O 0.57281 0.57215 0.05034 0.0
C329 C 0.5935 0.60105 0.05189 0.0
C330 C 0.60003 0.59554 0.1928 0.0
C331 C 0.58119 0.56644 0.07108 0.0
O332 O 0.59705 0.59559 0.08817 0.0
O333 O 0.58252 0.60077 0.03783 0.0
O334 O 0.57574 0.58058 0.18174 0.0
O335 O 0.57181 0.59167 0.12257 0.0
Co336 Co 0.33696 0.33768 0.39288 0.0
O337 O 0.35101 0.34105 0.42994 0.0
O338 O 0.33456 0.35241 0.42857 0.0
C339 C 0.33586 0.31758 0.41025 0.0
O340 O 0.32046 0.33675 0.36026 0.0
Co341 Co 0.33879 0.31906 0.31345 0.0
O342 O 0.32101 0.32125 0.31065 0.0
C343 C 0.34776 0.34419 0.30073 0.0
C344 C 0.34527 0.35042 0.44559 0.0
C345 C 0.31536 0.32981 0.33057 0.0
O346 O 0.34413 0.34733 0.34055 0.0
O347 O 0.34713 0.33331 0.28575 0.0
O348 O 0.33125 0.32563 0.43729 0.0
O349 O 0.34176 0.32196 0.37647 0.0
Co350 Co 0.41773 0.58639 0.14331 0.0
O351 O 0.41434 0.60072 0.17892 0.0
O352 O 0.4031 0.58419 0.17968 0.0
C353 C 0.43787 0.58557 0.16015 0.0
O354 O 0.41864 0.56963 0.11265 0.0
Co355 Co 0.43621 0.58718 0.06333 0.0
O356 O 0.43493 0.56932 0.06689 0.0
C357 C 0.41098 0.5959 0.04964 0.0
C358 C 0.40505 0.59504 0.1955 0.0
C359 C 0.42609 0.56399 0.08622 0.0
O360 O 0.40795 0.5931 0.09048 0.0
O361 O 0.42175 0.59475 0.03402 0.0
O362 O 0.42991 0.58113 0.18795 0.0
O363 O 0.43339 0.59111 0.1257 0.0
Co364 Co 0.16983 0.66767 0.89251 0.0
O365 O 0.15618 0.66466 0.93189 0.0
O366 O 0.1724 0.653 0.92835 0.0
C367 C 0.17149 0.68781 0.90828 0.0
O368 O 0.18592 0.66827 0.85729 0.0
Co369 Co 0.16702 0.68574 0.81194 0.0
O370 O 0.1847 0.68308 0.80501 0.0
C371 C 0.15597 0.66144 0.8066 0.0
C372 C 0.1619 0.6552 0.94679 0.0
C373 C 0.19063 0.67482 0.8256 0.0
O374 O 0.16183 0.65799 0.84211 0.0
O375 O 0.15582 0.67243 0.79267 0.0
O376 O 0.17627 0.67981 0.93518 0.0
O377 O 0.1651 0.68336 0.87591 0.0
Co378 Co 0.08845 0.42013 0.64526 0.0
O379 O 0.09258 0.4059 0.68044 0.0
O380 O 0.10314 0.42293 0.68046 0.0
C381 C 0.0684 0.42034 0.66377 0.0
O382 O 0.08687 0.43681 0.61451 0.0
Co383 Co 0.06962 0.41862 0.56678 0.0
O384 O 0.07091 0.43653 0.56717 0.0
C385 C 0.09451 0.409 0.55382 0.0
C386 C 0.10174 0.41197 0.69605 0.0
C387 C 0.0795 0.44215 0.587 0.0
O388 O 0.09805 0.41359 0.59176 0.0
O389 O 0.08344 0.40918 0.54071 0.0
O390 O 0.07637 0.42507 0.69085 0.0
O391 O 0.07286 0.41491 0.62906 0.0
Co392 Co 0.33687 0.66902 0.61845 0.0
O393 O 0.35066 0.66601 0.57964 0.0
O394 O 0.33463 0.65411 0.58375 0.0
C395 C 0.33492 0.68904 0.60091 0.0
O396 O 0.32067 0.66952 0.65312 0.0
Co397 Co 0.33895 0.68773 0.69737 0.0
O398 O 0.32128 0.68493 0.70306 0.0
C399 C 0.35018 0.6635 0.70652 0.0
C400 C 0.34512 0.65637 0.56534 0.0
C401 C 0.31565 0.6763 0.68349 0.0
O402 O 0.34494 0.6598 0.66999 0.0
O403 O 0.3498 0.67454 0.71995 0.0
O404 O 0.33033 0.68081 0.57455 0.0
O405 O 0.34128 0.68489 0.63389 0.0
Co406 Co 0.08814 0.58653 0.36771 0.0
O407 O 0.09141 0.60029 0.32913 0.0
O408 O 0.10291 0.58395 0.33255 0.0
C409 C 0.06806 0.5851 0.35074 0.0
O410 O 0.08731 0.57034 0.40218 0.0
Co411 Co 0.06975 0.58898 0.44735 0.0
O412 O 0.07157 0.57111 0.45059 0.0
C413 C 0.09418 0.59976 0.45522 0.0
C414 C 0.10089 0.59454 0.31452 0.0
C415 C 0.08015 0.56532 0.43129 0.0
O416 O 0.09767 0.59429 0.41892 0.0
O417 O 0.08318 0.59972 0.46911 0.0
O418 O 0.07613 0.58034 0.32409 0.0
O419 O 0.07241 0.59132 0.38373 0.0
Co420 Co 0.16945 0.33893 0.12178 0.0
O421 O 0.15553 0.34289 0.08476 0.0
O422 O 0.17247 0.35357 0.08633 0.0
C423 C 0.17001 0.31885 0.104 0.0
O424 O 0.18579 0.33741 0.15494 0.0
Co425 Co 0.16666 0.32037 0.20084 0.0
O426 O 0.18446 0.32227 0.20583 0.0
C427 C 0.15709 0.34529 0.21085 0.0
C428 C 0.16165 0.35206 0.06958 0.0
C429 C 0.19051 0.33049 0.18553 0.0
O430 O 0.16237 0.34867 0.17398 0.0
O431 O 0.15678 0.33424 0.22415 0.0
O432 O 0.17492 0.32681 0.0773 0.0
O433 O 0.16411 0.32335 0.13759 0.0
Co434 Co 0.41826 0.41945 0.86837 0.0
O435 O 0.41471 0.40513 0.83291 0.0
O436 O 0.40349 0.42168 0.83288 0.0
C437 C 0.43834 0.4202 0.85034 0.0
O438 O 0.41928 0.43621 0.89896 0.0
Co439 Co 0.43708 0.41872 0.9472 0.0
O440 O 0.43567 0.43658 0.94422 0.0
C441 C 0.41193 0.40995 0.96242 0.0
C442 C 0.40537 0.41084 0.81689 0.0
C443 C 0.42674 0.44187 0.92524 0.0
O444 O 0.40871 0.41278 0.9218 0.0
O445 O 0.42278 0.41106 0.97727 0.0
O446 O 0.43028 0.42468 0.82302 0.0
O447 O 0.43399 0.4147 0.8851 0.0
H448 H 0.29862 0.15636 0.35958 0.0
H449 H 0.27771 0.15278 0.33348 0.0
H450 H 0.2777 0.18758 0.26715 0.0
H451 H 0.2983 0.19125 0.29272 0.0
H452 H 0.25595 0.16693 0.34618 0.0
H453 H 0.2683 0.1637 0.16557 0.0
H454 H 0.27933 0.16225 0.21034 0.0
H455 H 0.27436 0.17702 0.19218 0.0
C456 C 0.29412 0.16328 0.33974 0.0
C457 C 0.30026 0.17405 0.32799 0.0
C458 C 0.2822 0.1612 0.32469 0.0
C459 C 0.27626 0.16979 0.29737 0.0
C460 C 0.2822 0.18068 0.28714 0.0
H461 H 0.20444 0.19073 0.23988 0.0
H462 H 0.22489 0.18684 0.2667 0.0
C463 C 0.29401 0.18278 0.30214 0.0
C464 C 0.26379 0.16768 0.27971 0.0
H465 H 0.24736 0.16812 0.18179 0.0
C466 C 0.25408 0.16696 0.31025 0.0
C467 C 0.26132 0.16752 0.23278 0.0
C468 C 0.27139 0.16754 0.19828 0.0
C469 C 0.24198 0.1669 0.29514 0.0
C470 C 0.2395 0.16774 0.24829 0.0
C471 C 0.24922 0.16763 0.21768 0.0
C472 C 0.227 0.16989 0.23087 0.0
C473 C 0.23193 0.1662 0.3296 0.0
C474 C 0.22148 0.16189 0.20015 0.0
C475 C 0.20965 0.16412 0.18428 0.0
C476 C 0.2032 0.17446 0.19857 0.0
C477 C 0.20899 0.1826 0.22831 0.0
C478 C 0.22071 0.18035 0.24409 0.0
H479 H 0.23506 0.16172 0.36113 0.0
H480 H 0.22895 0.17552 0.33838 0.0
H481 H 0.22399 0.16114 0.31623 0.0
H482 H 0.22623 0.15383 0.189 0.0
H483 H 0.20553 0.15767 0.16141 0.0
H484 H 0.0672 0.95359 0.49132 0.0
H485 H 0.07068 0.97411 0.5181 0.0
H486 H 0.10229 0.977 0.43315 0.0
H487 H 0.09885 0.95624 0.40552 0.0
H488 H 0.09119 0.98356 0.56308 0.0
H489 H 0.08201 0.00739 0.40088 0.0
H490 H 0.0777 0.99179 0.41012 0.0
H491 H 0.09329 0.9956 0.40009 0.0
C492 C 0.07491 0.95852 0.47796 0.0
C493 C 0.08273 0.95317 0.44599 0.0
C494 C 0.0769 0.97029 0.49359 0.0
C495 C 0.08672 0.97714 0.47766 0.0
C496 C 0.09457 0.97193 0.44563 0.0
H497 H 0.10078 0.04885 0.60597 0.0
H498 H 0.10429 0.02801 0.57923 0.0
C499 C 0.0926 0.96006 0.42988 0.0
C500 C 0.08844 0.98972 0.49489 0.0
H501 H 0.08555 0.0195 0.46465 0.0
C502 C 0.09016 0.99144 0.54149 0.0
C503 C 0.087 0.99998 0.46674 0.0
C504 C 0.08482 0.9987 0.4167 0.0
C505 C 0.09003 1.0031 0.56086 0.0
C506 C 0.08823 0.01334 0.53286 0.0
C507 C 0.08697 0.01164 0.48606 0.0
C508 C 0.08625 0.02572 0.55165 0.0
C509 C 0.09118 0.00436 0.61137 0.0
C510 C 0.07495 0.03131 0.54547 0.0
C511 C 0.07293 0.04312 0.56064 0.0
C512 C 0.08218 0.04974 0.58232 0.0
C513 C 0.09343 0.04401 0.58974 0.0
C514 C 0.09545 0.0321 0.57439 0.0
H515 H 0.09072 0.99545 0.62885 0.0
H516 H 0.10001 0.00865 0.61958 0.0
H517 H 0.08388 0.0103 0.6248 0.0
H518 H 0.06768 0.02655 0.52834 0.0
H519 H 0.06412 0.04715 0.55448 0.0
H520 H 0.20292 0.81858 0.75934 0.0
H521 H 0.22393 0.82109 0.73655 0.0
H522 H 0.22896 0.84831 0.8392 0.0
H523 H 0.20763 0.84599 0.86228 0.0
H524 H 0.23984 0.85422 0.75347 0.0
H525 H 0.25251 0.80804 0.81027 0.0
H526 H 0.23975 0.80814 0.77267 0.0
H527 H 0.23854 0.81526 0.82711 0.0
C528 C 0.20841 0.82512 0.77738 0.0
C529 C 0.20352 0.83199 0.81316 0.0
C530 C 0.22049 0.82652 0.7642 0.0
C531 C 0.2281 0.83473 0.78657 0.0
C532 C 0.22326 0.84186 0.82157 0.0
H533 H 0.3061 0.82829 0.76471 0.0
H534 H 0.28528 0.83054 0.79052 0.0
C535 C 0.21107 0.8405 0.83484 0.0
C536 C 0.24114 0.8355 0.77364 0.0
H537 H 0.26661 0.81814 0.76254 0.0
C538 C 0.24575 0.84638 0.75581 0.0
C539 C 0.24889 0.82531 0.77705 0.0
C540 C 0.24472 0.81356 0.79821 0.0
C541 C 0.25784 0.84723 0.74036 0.0
C542 C 0.26543 0.83686 0.74207 0.0
C543 C 0.26082 0.82608 0.76073 0.0
C544 C 0.27832 0.83692 0.72648 0.0
C545 C 0.26238 0.85927 0.72305 0.0
C546 C 0.28153 0.83997 0.68185 0.0
C547 C 0.29361 0.83883 0.66699 0.0
C548 C 0.30261 0.83437 0.69625 0.0
C549 C 0.29938 0.83161 0.74104 0.0
C550 C 0.28745 0.83292 0.75595 0.0
H551 H 0.25676 0.86692 0.73566 0.0
H552 H 0.27195 0.86083 0.73316 0.0
H553 H 0.26191 0.85932 0.68564 0.0
H554 H 0.27465 0.84284 0.65807 0.0
H555 H 0.29579 0.84097 0.63224 0.0
H556 H 0.41354 0.04776 0.88815 0.0
H557 H 0.41122 0.02641 0.91091 0.0
H558 H 0.4335 0.03301 0.02799 0.0
H559 H 0.4361 0.05397 1.0052 0.0
H560 H 0.44095 0.01346 0.985 0.0
H561 H 0.39111 0.01048 0.00913 0.0
H562 H 0.39567 0.01564 0.95418 0.0
H563 H 0.39893 0.02478 1.00294 0.0
C564 C 0.41788 0.04465 0.91884 0.0
C565 C 0.4251 0.05261 0.94451 0.0
C566 C 0.41647 0.03246 0.93204 0.0
C567 C 0.42209 0.02808 0.97151 0.0
C568 C 0.42908 0.0361 0.99741 0.0
H569 H 0.41392 0.95893 0.11605 0.0
H570 H 0.41235 0.98026 0.09196 0.0
C571 C 0.43059 0.04814 0.98412 0.0
C572 C 0.42148 0.01504 0.98508 0.0
H573 H 0.40221 0.99203 0.01508 0.0
C574 C 0.43246 0.00881 0.99158 0.0
C575 C 0.41042 0.00897 0.99437 0.0
C576 C 0.39835 0.01532 0.99024 0.0
C577 C 0.43273 0.99676 0.00691 0.0
C578 C 0.42169 0.99055 0.01482 0.0
C579 C 0.41067 0.99677 0.00874 0.0
C580 C 0.42155 0.97751 0.02823 0.0
C581 C 0.4449 0.99089 0.01532 0.0
C582 C 0.42691 0.96884 0.99998 0.0
C583 C 0.42794 0.95678 0.01378 0.0
C584 C 0.42346 0.95298 0.05603 0.0
C585 C 0.41752 0.96155 0.08347 0.0
C586 C 0.4166 0.97373 0.0697 0.0
H587 H 0.45214 0.99776 0.02059 0.0
H588 H 0.44459 0.98484 0.0453 0.0
H589 H 0.44745 0.98535 0.98552 0.0
H590 H 0.43053 0.97145 0.96739 0.0
H591 H 0.43235 0.95043 0.99123 0.0
H592 H 0.79985 0.8494 0.85291 0.0
H593 H 0.77895 0.8528 0.82662 0.0
H594 H 0.78015 0.81911 0.75295 0.0
H595 H 0.8008 0.81567 0.77842 0.0
H596 H 0.77124 0.8386 0.70166 0.0
H597 H 0.74795 0.83485 0.86787 0.0
H598 H 0.76015 0.84564 0.86374 0.0
H599 H 0.76334 0.82972 0.85939 0.0
C600 C 0.79562 0.84268 0.83143 0.0
C601 C 0.80208 0.83226 0.81789 0.0
C602 C 0.78367 0.84463 0.81643 0.0
C603 C 0.77796 0.83619 0.78783 0.0
C604 C 0.78436 0.82579 0.77475 0.0
H605 H 0.70658 0.81482 0.72354 0.0
H606 H 0.7272 0.81839 0.74929 0.0
C607 C 0.79621 0.82383 0.7896 0.0
C608 C 0.76535 0.83797 0.77089 0.0
H609 H 0.73564 0.8373 0.80386 0.0
C610 C 0.76344 0.83851 0.724 0.0
C611 C 0.75519 0.83777 0.80006 0.0
C612 C 0.75667 0.83689 0.85058 0.0
C613 C 0.75168 0.83837 0.70547 0.0
C614 C 0.74153 0.83783 0.73461 0.0
C615 C 0.74343 0.83777 0.78154 0.0
C616 C 0.72897 0.83593 0.71733 0.0
C617 C 0.75023 0.83815 0.65485 0.0
C618 C 0.72305 0.84458 0.69022 0.0
C619 C 0.71112 0.84255 0.67505 0.0
C620 C 0.7049 0.83185 0.68697 0.0
C621 C 0.71099 0.8232 0.71368 0.0
C622 C 0.72282 0.82523 0.72866 0.0
H623 H 0.75899 0.83656 0.63726 0.0
H624 H 0.74373 0.83097 0.64463 0.0
H625 H 0.74656 0.847 0.64333 0.0
H626 H 0.72756 0.85298 0.68141 0.0
H627 H 0.70672 0.84945 0.65484 0.0
H628 H 0.90732 0.95658 0.4057 0.0
H629 H 0.90405 0.97754 0.43139 0.0
H630 H 0.93729 0.97598 0.50775 0.0
H631 H 0.94059 0.95525 0.48291 0.0
H632 H 0.91785 0.98533 0.55725 0.0
H633 H 0.92251 0.00815 0.39053 0.0
H634 H 0.91147 0.99618 0.39428 0.0
H635 H 0.92731 0.99269 0.39974 0.0
C636 C 0.91397 0.96073 0.42768 0.0
C637 C 0.92422 0.95415 0.44211 0.0
C638 C 0.91209 0.97273 0.44232 0.0
C639 C 0.92046 0.97837 0.47143 0.0
C640 C 0.93069 0.97183 0.4855 0.0
H641 H 0.94139 0.05024 0.53315 0.0
H642 H 0.93809 0.02953 0.50794 0.0
C643 C 0.93256 0.95993 0.47102 0.0
C644 C 0.91876 0.99103 0.48785 0.0
H645 H 0.91965 0.02065 0.45382 0.0
C646 C 0.91807 0.99307 0.53463 0.0
C647 C 0.91914 1.00111 0.45833 0.0
C648 C 0.92023 0.99951 0.40792 0.0
C649 C 0.91818 0.00487 0.55274 0.0
C650 C 0.91884 0.01495 0.52326 0.0
C651 C 0.91909 0.01292 0.47641 0.0
C652 C 0.92059 0.02757 0.54015 0.0
C653 C 0.91823 0.00644 0.60333 0.0
C654 C 0.91188 0.03344 0.56717 0.0
C655 C 0.91377 0.0454 0.58207 0.0
C656 C 0.92438 0.05175 0.56991 0.0
C657 C 0.93308 0.04574 0.54318 0.0
C658 C 0.9312 0.03385 0.52852 0.0
H659 H 0.91996 0.99775 0.62122 0.0
H660 H 0.92525 0.01311 0.61367 0.0
H661 H 0.90927 0.00993 0.6144 0.0
H662 H 0.90354 0.02884 0.57613 0.0
H663 H 0.90684 0.04975 0.60229 0.0
H664 H 0.70088 0.18115 0.24509 0.0
H665 H 0.72175 0.17881 0.22018 0.0
H666 H 0.73111 0.16269 0.34818 0.0
H667 H 0.70991 0.16469 0.3731 0.0
H668 H 0.74092 0.18951 0.25392 0.0
H669 H 0.74805 0.13977 0.26259 0.0
H670 H 0.73319 0.14658 0.26631 0.0
H671 H 0.74299 0.14629 0.31482 0.0
C672 C 0.70731 0.17701 0.26802 0.0
C673 C 0.7037 0.17318 0.31133 0.0
C674 C 0.71929 0.17565 0.25358 0.0
C675 C 0.72806 0.17049 0.28201 0.0
C676 C 0.72449 0.16646 0.32513 0.0
H677 H 0.80446 0.18568 0.2567 0.0
H678 H 0.78337 0.18357 0.27898 0.0
C679 C 0.71238 0.16768 0.33951 0.0
C680 C 0.74102 0.17029 0.26715 0.0
H681 H 0.76565 0.15193 0.24974 0.0
C682 C 0.74627 0.18126 0.25287 0.0
C683 C 0.74803 0.15952 0.26509 0.0
C684 C 0.74276 0.14735 0.27758 0.0
C685 C 0.75828 0.18181 0.2372 0.0
C686 C 0.76544 0.17115 0.23682 0.0
C687 C 0.76018 0.16012 0.25032 0.0
C688 C 0.77853 0.17153 0.22428 0.0
C689 C 0.76313 0.19382 0.22069 0.0
C690 C 0.78303 0.1651 0.18684 0.0
C691 C 0.79526 0.16623 0.17389 0.0
C692 C 0.8032 0.17381 0.19825 0.0
C693 C 0.79866 0.1799 0.23652 0.0
C694 C 0.78654 0.17872 0.24943 0.0
H695 H 0.75569 0.20007 0.21067 0.0
H696 H 0.76832 0.19824 0.24827 0.0
H697 H 0.7693 0.19258 0.19141 0.0
H698 H 0.77702 0.15943 0.16705 0.0
H699 H 0.79844 0.16134 0.14446 0.0
H700 H 0.59334 0.04711 0.88917 0.0
H701 H 0.59506 0.02573 0.91264 0.0
H702 H 0.57657 0.0341 0.03699 0.0
H703 H 0.5746 0.05516 0.01377 0.0
H704 H 0.60519 0.01394 0.98948 0.0
H705 H 0.55535 0.00764 0.98267 0.0
H706 H 0.56278 0.02068 0.95843 0.0
H707 H 0.55984 0.02004 0.01813 0.0
C708 C 0.5897 0.04438 0.92156 0.0
C709 C 0.58364 0.05284 0.94913 0.0
C710 C 0.5907 0.03217 0.93498 0.0
C711 C 0.58571 0.02825 0.97621 0.0
C712 C 0.58022 0.03682 1.00458 0.0
H713 H 0.59408 0.95825 0.11681 0.0
H714 H 0.59626 0.97957 0.09352 0.0
C715 C 0.57911 0.0489 0.99113 0.0
C716 C 0.5857 0.01519 0.98928 0.0
H717 H 0.56666 0.99201 0.01818 0.0
C718 C 0.59678 0.0091 0.99551 0.0
C719 C 0.57472 0.00883 0.99679 0.0
C720 C 0.5625 0.01458 0.98825 0.0
C721 C 0.59715 0.99688 0.00973 0.0
C722 C 0.58615 0.99067 0.01864 0.0
C723 C 0.57511 0.99677 0.01189 0.0
C724 C 0.58568 0.97764 0.03233 0.0
C725 C 0.60928 0.99068 0.01414 0.0
C726 C 0.57892 0.96947 0.0062 0.0
C727 C 0.57751 0.95743 0.01973 0.0
C728 C 0.58286 0.95313 0.05985 0.0
C729 C 0.58987 0.96123 0.08572 0.0
C730 C 0.59119 0.97341 0.07223 0.0
H731 H 0.61651 0.99561 0.99553 0.0
H732 H 0.61189 0.99035 0.05029 0.0
H733 H 0.60885 0.98122 1.00132 0.0
H734 H 0.57459 0.97246 0.9753 0.0
H735 H 0.57215 0.9515 0.99852 0.0
H736 H 0.70685 0.65603 0.65427 0.0
H737 H 0.72765 0.65232 0.68115 0.0
H738 H 0.72901 0.6885 0.73594 0.0
H739 H 0.70847 0.69229 0.70964 0.0
H740 H 0.7499 0.66483 0.66449 0.0
H741 H 0.73741 0.66704 0.84515 0.0
H742 H 0.7263 0.66513 0.80093 0.0
H743 H 0.73214 0.67996 0.81396 0.0
C744 C 0.71163 0.66323 0.67165 0.0
C745 C 0.70588 0.67441 0.68015 0.0
C746 C 0.72349 0.66107 0.68718 0.0
C747 C 0.72977 0.67003 0.71165 0.0
C748 C 0.72424 0.68134 0.7183 0.0
H749 H 0.80263 0.68841 0.76326 0.0
H750 H 0.78213 0.68482 0.73656 0.0
C751 C 0.71247 0.6835 0.7029 0.0
C752 C 0.74213 0.66781 0.7302 0.0
H753 H 0.75856 0.66987 0.8278 0.0
C754 C 0.75177 0.66572 0.70027 0.0
C755 C 0.74458 0.66874 0.77702 0.0
C756 C 0.73454 0.67021 0.8112 0.0
C757 C 0.76385 0.66534 0.71557 0.0
C758 C 0.76637 0.66727 0.76193 0.0
C759 C 0.75667 0.66854 0.79222 0.0
C760 C 0.77897 0.66913 0.77878 0.0
C761 C 0.77383 0.66312 0.68175 0.0
C762 C 0.78396 0.66175 0.8128 0.0
C763 C 0.79582 0.66382 0.82859 0.0
C764 C 0.80284 0.6734 0.81097 0.0
C765 C 0.79762 0.68089 0.77759 0.0
C766 C 0.78588 0.67879 0.76187 0.0
H767 H 0.77044 0.65798 0.65206 0.0
H768 H 0.77733 0.67197 0.66947 0.0
H769 H 0.78148 0.65802 0.69713 0.0
H770 H 0.77873 0.65433 0.82678 0.0
H771 H 0.79949 0.65789 0.85434 0.0
H772 H 0.56749 0.45489 0.99019 0.0
H773 H 0.57003 0.47598 0.01126 0.0
H774 H 0.59876 0.47983 0.91363 0.0
H775 H 0.59644 0.45834 0.89242 0.0
H776 H 0.6038 0.49111 0.9986 0.0
H777 H 0.55855 0.50444 0.93461 0.0
H778 H 0.55783 0.4919 0.97309 0.0
H779 H 0.56558 0.49019 0.91999 0.0
C780 C 0.57436 0.46013 0.97279 0.0
C781 C 0.58167 0.45484 0.93905 0.0
C782 C 0.57577 0.47227 0.98499 0.0
C783 C 0.58443 0.47958 0.96357 0.0
C784 C 0.59196 0.47436 0.93046 0.0
H785 H 0.57831 0.55769 0.98634 0.0
H786 H 0.58081 0.53697 0.95965 0.0
C787 C 0.59058 0.4621 0.91823 0.0
C788 C 0.58532 0.49266 0.97585 0.0
H789 H 0.56817 0.51834 0.98475 0.0
C790 C 0.59607 0.49713 0.99513 0.0
C791 C 0.57528 0.50055 0.97098 0.0
C792 C 0.5637 0.49657 0.94813 0.0
C793 C 0.59692 0.5092 0.01076 0.0
C794 C 0.58666 0.51691 0.00782 0.0
C795 C 0.57603 0.51246 0.98755 0.0
C796 C 0.58667 0.52976 0.02399 0.0
C797 C 0.60884 0.51358 0.02966 0.0
C798 C 0.58937 0.5328 0.06909 0.0
C799 C 0.58811 0.54481 0.08446 0.0
C800 C 0.58386 0.55392 0.05521 0.0
C801 C 0.58146 0.55088 0.00997 0.0
C802 C 0.58291 0.539 0.99457 0.0
H803 H 0.61655 0.50795 0.01757 0.0
H804 H 0.61056 0.52318 0.02027 0.0
H805 H 0.60858 0.51294 0.06702 0.0
H806 H 0.59203 0.52583 0.09284 0.0
H807 H 0.58996 0.54686 0.11953 0.0
H808 H 0.70574 0.3509 0.33806 0.0
H809 H 0.72631 0.35396 0.30765 0.0
H810 H 0.72982 0.31541 0.28701 0.0
H811 H 0.70941 0.31232 0.3164 0.0
H812 H 0.74955 0.34486 0.3298 0.0
H813 H 0.73552 0.32895 0.16067 0.0
H814 H 0.7247 0.3328 0.20413 0.0
H815 H 0.73193 0.31815 0.20395 0.0
C816 C 0.71099 0.34308 0.3277 0.0
C817 C 0.70586 0.33138 0.32914 0.0
C818 C 0.72271 0.34484 0.3101 0.0
C819 C 0.72947 0.33495 0.29377 0.0
C820 C 0.72465 0.32322 0.29806 0.0
H821 H 0.79821 0.31284 0.20281 0.0
H822 H 0.77739 0.31612 0.22793 0.0
C823 C 0.71298 0.32147 0.3152 0.0
C824 C 0.74143 0.33667 0.27119 0.0
H825 H 0.75699 0.32916 0.17527 0.0
C826 C 0.75114 0.34166 0.2957 0.0
C827 C 0.7435 0.33261 0.22645 0.0
C828 C 0.73333 0.32795 0.19709 0.0
C829 C 0.76297 0.34196 0.27766 0.0
C830 C 0.76511 0.33719 0.23405 0.0
C831 C 0.75533 0.33276 0.20877 0.0
C832 C 0.77759 0.33547 0.21619 0.0
C833 C 0.77324 0.34677 0.30605 0.0
C834 C 0.78455 0.34525 0.20009 0.0
C835 C 0.79651 0.34338 0.18509 0.0
C836 C 0.80171 0.33172 0.18649 0.0
C837 C 0.79454 0.32195 0.2015 0.0
C838 C 0.78262 0.3238 0.21592 0.0
H839 H 0.77018 0.34965 0.34013 0.0
H840 H 0.78035 0.3397 0.30985 0.0
H841 H 0.77745 0.35466 0.28887 0.0
H842 H 0.78078 0.35433 0.19971 0.0
H843 H 0.8018 0.3511 0.17398 0.0
H844 H 0.94421 0.46012 0.57343 0.0
H845 H 0.94121 0.48071 0.54559 0.0
H846 H 0.90249 0.47656 0.55964 0.0
H847 H 0.90548 0.45589 0.58882 0.0
H848 H 0.92956 0.48651 0.46865 0.0
H849 H 0.90748 0.51005 0.61288 0.0
H850 H 0.91491 0.49555 0.619 0.0
H851 H 0.90006 0.49644 0.5942 0.0
C852 C 0.93505 0.46365 0.57146 0.0
C853 C 0.92508 0.45635 0.58336 0.0
C854 C 0.93334 0.47543 0.55536 0.0
C855 C 0.92163 0.48025 0.55044 0.0
C856 C 0.91163 0.47316 0.56379 0.0
H857 H 0.90562 0.5513 0.42104 0.0
H858 H 0.90282 0.5303 0.44776 0.0
C859 C 0.91335 0.46133 0.58048 0.0
C860 C 0.92009 0.49234 0.52849 0.0
H861 H 0.91029 0.52143 0.54609 0.0
C862 C 0.92525 0.4941 0.48556 0.0
C863 C 0.9144 0.50228 0.55025 0.0
C864 C 0.90897 0.50108 0.59677 0.0
C865 C 0.92523 0.50553 0.46457 0.0
C866 C 0.91993 0.51552 0.48694 0.0
C867 C 0.9143 0.51372 0.52895 0.0
C868 C 0.92142 0.52807 0.4695 0.0
C869 C 0.93118 0.50696 0.41903 0.0
C870 C 0.93278 0.53369 0.47266 0.0
C871 C 0.93439 0.54561 0.45777 0.0
C872 C 0.92467 0.5522 0.43905 0.0
C873 C 0.91331 0.54646 0.43499 0.0
C874 C 0.91167 0.53451 0.45047 0.0
H875 H 0.93263 0.49808 0.40215 0.0
H876 H 0.92559 0.51282 0.39673 0.0
H877 H 0.94014 0.5114 0.42338 0.0
H878 H 0.94041 0.5289 0.48728 0.0
H879 H 0.94328 0.54969 0.46131 0.0
H880 H 0.30483 0.32253 0.25233 0.0
H881 H 0.28397 0.32497 0.22806 0.0
H882 H 0.27566 0.34412 0.35117 0.0
H883 H 0.29692 0.34198 0.37551 0.0
H884 H 0.26458 0.31566 0.26662 0.0
H885 H 0.25932 0.36567 0.25832 0.0
H886 H 0.27394 0.35841 0.26335 0.0
H887 H 0.26438 0.36011 0.3121 0.0
C888 C 0.29864 0.32734 0.27441 0.0
C889 C 0.30259 0.33197 0.31621 0.0
C890 C 0.28666 0.32875 0.26028 0.0
C891 C 0.27818 0.33478 0.28749 0.0
C892 C 0.28207 0.33962 0.32907 0.0
H893 H 0.20127 0.32168 0.26147 0.0
H894 H 0.22224 0.32364 0.28543 0.0
C895 C 0.2942 0.33832 0.34314 0.0
C896 C 0.26522 0.33511 0.27298 0.0
H897 H 0.24143 0.3539 0.24765 0.0
C898 C 0.25956 0.32405 0.26243 0.0
C899 C 0.25866 0.34605 0.2668 0.0
C900 C 0.26439 0.35825 0.2753 0.0
C901 C 0.24761 0.32357 0.2462 0.0
C902 C 0.24089 0.33445 0.24148 0.0
C903 C 0.24654 0.34556 0.2515 0.0
C904 C 0.22788 0.33427 0.22781 0.0
C905 C 0.24236 0.31139 0.23354 0.0
C906 C 0.22387 0.34003 0.18812 0.0
C907 C 0.2117 0.33902 0.17425 0.0
C908 C 0.20337 0.33219 0.19983 0.0
C909 C 0.20742 0.32681 0.24027 0.0
C910 C 0.21946 0.32791 0.25416 0.0
H911 H 0.2496 0.30465 0.22614 0.0
H912 H 0.23692 0.30785 0.26218 0.0
H913 H 0.23636 0.31212 0.20357 0.0
H914 H 0.23021 0.34506 0.16736 0.0
H915 H 0.20889 0.34335 0.14315 0.0
H916 H 0.44107 0.54926 0.03757 0.0
H917 H 0.43726 0.52883 0.01048 0.0
H918 H 0.4028 0.52842 0.07918 0.0
H919 H 0.4065 0.54918 0.10669 0.0
H920 H 0.41767 0.50654 0.08905 0.0
H921 H 0.41233 0.5201 0.91021 0.0
H922 H 0.42568 0.5263 0.93616 0.0
H923 H 0.41094 0.53074 0.95635 0.0
C924 C 0.43265 0.54491 0.04722 0.0
C925 C 0.42403 0.55101 0.07413 0.0
C926 C 0.43047 0.5332 0.03136 0.0
C927 C 0.41963 0.5272 0.04185 0.0
C928 C 0.41117 0.53296 0.0702 0.0
H929 H 0.40688 0.45642 0.9062 0.0
H930 H 0.40298 0.47708 0.93436 0.0
C931 C 0.41332 0.5448 0.08606 0.0
C932 C 0.41747 0.51484 0.02333 0.0
H933 H 0.41711 0.49912 0.9238 0.0
C934 C 0.4173 0.50492 0.05297 0.0
C935 C 0.41682 0.51271 0.97623 0.0
C936 C 0.41633 0.52303 0.94285 0.0
C937 C 0.41733 0.49293 0.03666 0.0
C938 C 0.41766 0.49082 0.98951 0.0
C939 C 0.41699 0.50073 0.95991 0.0
C940 C 0.41995 0.47851 0.97067 0.0
C941 C 0.41736 0.48261 0.0701 0.0
C942 C 0.43093 0.47266 0.98034 0.0
C943 C 0.43322 0.461 0.96413 0.0
C944 C 0.42458 0.45481 0.93764 0.0
C945 C 0.41373 0.46087 0.92648 0.0
C946 C 0.41146 0.47265 0.94273 0.0
H947 H 0.41347 0.48543 0.10307 0.0
H948 H 0.41213 0.47474 0.05711 0.0
H949 H 0.42685 0.47964 0.076 0.0
H950 H 0.43775 0.4771 1.00084 0.0
H951 H 0.44174 0.45675 0.97316 0.0
H952 H 0.30474 0.68443 0.76009 0.0
H953 H 0.28386 0.6818 0.7842 0.0
H954 H 0.27642 0.66065 0.66495 0.0
H955 H 0.29764 0.66303 0.64077 0.0
H956 H 0.26422 0.68994 0.74255 0.0
H957 H 0.26057 0.64 0.76218 0.0
H958 H 0.27497 0.64766 0.75634 0.0
H959 H 0.26571 0.64484 0.70752 0.0
C960 C 0.29874 0.67914 0.73887 0.0
C961 C 0.30292 0.67401 0.69818 0.0
C962 C 0.28676 0.67761 0.7529 0.0
C963 C 0.27852 0.67096 0.72671 0.0
C964 C 0.28264 0.66563 0.68629 0.0
H965 H 0.20108 0.68202 0.74675 0.0
H966 H 0.22213 0.6801 0.72335 0.0
C967 C 0.29476 0.66707 0.6723 0.0
C968 C 0.26553 0.67045 0.7408 0.0
H969 H 0.24225 0.65132 0.76914 0.0
C970 C 0.25946 0.68147 0.7484 0.0
C971 C 0.2593 0.65942 0.74914 0.0
C972 C 0.26548 0.6473 0.74382 0.0
C973 C 0.24741 0.6818 0.76371 0.0
C974 C 0.24104 0.6708 0.7706 0.0
C975 C 0.24711 0.65975 0.76358 0.0
C976 C 0.22799 0.67077 0.78373 0.0
C977 C 0.24169 0.69399 0.7731 0.0
C978 C 0.22408 0.66567 0.82479 0.0
C979 C 0.21188 0.66666 0.83833 0.0
C980 C 0.20342 0.6728 0.81104 0.0
C981 C 0.20734 0.67743 0.76918 0.0
C982 C 0.21942 0.67635 0.75563 0.0
H983 H 0.24865 0.70111 0.77897 0.0
H984 H 0.23619 0.69679 0.74349 0.0
H985 H 0.23563 0.69358 0.80302 0.0
H986 H 0.23053 0.66125 0.84693 0.0
H987 H 0.20917 0.66293 0.87061 0.0
H988 H 0.06457 0.45653 0.53651 0.0
H989 H 0.06803 0.47716 0.51062 0.0
H990 H 0.10197 0.47823 0.58274 0.0
H991 H 0.09856 0.45736 0.60935 0.0
H992 H 0.08791 0.49943 0.59276 0.0
H993 H 0.09217 0.48726 0.41241 0.0
H994 H 0.07859 0.48127 0.43735 0.0
H995 H 0.09316 0.47614 0.45707 0.0
C996 C 0.0728 0.46108 0.54711 0.0
C997 C 0.08134 0.45516 0.57484 0.0
C998 C 0.0748 0.4729 0.53189 0.0
C999 C 0.0854 0.47915 0.54369 0.0
C1000 C 0.09378 0.47351 0.57271 0.0
H1001 H 0.09886 0.5497 0.40852 0.0
H1002 H 0.1021 0.5289 0.43622 0.0
C1003 C 0.09179 0.4616 0.58804 0.0
C1004 C 0.08743 0.49166 0.52617 0.0
H1005 H 0.08762 0.50819 0.42843 0.0
C1006 C 0.08805 0.50133 0.55684 0.0
C1007 C 0.08785 0.49417 0.47927 0.0
C1008 C 0.08804 0.48415 0.44461 0.0
C1009 C 0.08829 0.51345 0.5419 0.0
C1010 C 0.08772 0.51598 0.49503 0.0
C1011 C 0.08789 0.50629 0.46433 0.0
C1012 C 0.08592 0.52853 0.47758 0.0
C1013 C 0.08897 0.52345 0.57655 0.0
C1014 C 0.0756 0.53509 0.49049 0.0
C1015 C 0.0737 0.54688 0.47472 0.0
C1016 C 0.08205 0.55245 0.44524 0.0
C1017 C 0.09226 0.54574 0.43122 0.0
C1018 C 0.09414 0.53386 0.44713 0.0
H1019 H 0.09328 0.52023 0.60826 0.0
H1020 H 0.09416 0.53135 0.56359 0.0
H1021 H 0.07964 0.52651 0.5849 0.0
H1022 H 0.06893 0.53108 0.51285 0.0
H1023 H 0.06566 0.55163 0.48602 0.0
H1024 H 0.16965 0.13519 0.03183 0.0
H1025 H 0.16087 0.1232 0.97006 0.0
H1026 H 0.13071 0.14804 0.96267 0.0
H1027 H 0.13924 0.15981 0.0247 0.0
H1028 H 0.12294 0.12507 0.95844 0.0
H1029 H 0.16086 0.13083 0.83694 0.0
H1030 H 0.16519 0.12417 0.88983 0.0
H1031 H 0.15979 0.13956 0.88827 0.0
C1032 C 0.16114 0.13808 0.01705 0.0
C1033 C 0.15519 0.1485 0.0333 0.0
C1034 C 0.15617 0.13127 0.98139 0.0
C1035 C 0.14519 0.1348 0.96086 0.0
C1036 C 0.13919 0.14511 0.97759 0.0
H1037 H 0.09786 0.11644 0.73952 0.0
H1038 H 0.10894 0.12531 0.80278 0.0
C1039 C 0.14411 0.15186 0.01321 0.0
C1040 C 0.13973 0.12776 0.92261 0.0
H1041 H 0.14462 0.11823 0.81396 0.0
C1042 C 0.12773 0.12357 0.92695 0.0
C1043 C 0.14592 0.12571 0.88129 0.0
C1044 C 0.15861 0.13038 0.87345 0.0
C1045 C 0.12176 0.11756 0.89138 0.0
C1046 C 0.12785 0.11574 0.84987 0.0
C1047 C 0.13995 0.11961 0.84575 0.0
C1048 C 0.12155 0.1104 0.80984 0.0
C1049 C 0.10892 0.1132 0.89851 0.0
C1050 C 0.12512 0.09917 0.79165 0.0
C1051 C 0.11874 0.09401 0.75522 0.0
C1052 C 0.10875 0.10007 0.73592 0.0
C1053 C 0.10547 0.11148 0.75347 0.0
C1054 C 0.11177 0.11656 0.7899 0.0
H1055 H 0.10663 0.11251 0.93494 0.0
H1056 H 0.10255 0.11974 0.88276 0.0
H1057 H 0.1075 0.10421 0.88248 0.0
H1058 H 0.13267 0.09426 0.80627 0.0
H1059 H 0.12154 0.08523 0.74258 0.0
H1060 H 0.14034 0.84658 0.99094 0.0
H1061 H 0.13193 0.85825 0.05355 0.0
H1062 H 0.16229 0.88283 0.04716 0.0
H1063 H 0.17083 0.87112 0.98401 0.0
H1064 H 0.14338 0.86282 0.13846 0.0
H1065 H 0.13217 0.90563 0.04804 0.0
H1066 H 0.13485 0.89152 0.01865 0.0
H1067 H 0.14736 0.89991 0.04158 0.0
C1068 C 0.14523 0.85451 1.0025 0.0
C1069 C 0.15628 0.8579 0.98222 0.0
C1070 C 0.14039 0.86118 0.03847 0.0
C1071 C 0.14639 0.8715 0.05498 0.0
C1072 C 0.15739 0.87501 0.03466 0.0
H1073 H 0.12154 0.92028 0.27402 0.0
H1074 H 0.13369 0.9111 0.21328 0.0
C1075 C 0.16229 0.86827 0.99865 0.0
C1076 C 0.14122 0.87819 0.09443 0.0
H1077 H 0.12766 0.90485 0.12574 0.0
C1078 C 0.14 0.87203 0.1357 0.0
C1079 C 0.13691 0.89027 0.09112 0.0
C1080 C 0.13778 0.89726 0.04748 0.0
C1081 C 0.13447 0.87751 0.17337 0.0
C1082 C 0.12969 0.88941 0.1696 0.0
C1083 C 0.13126 0.89573 0.12875 0.0
C1084 C 0.12244 0.8951 0.20672 0.0
C1085 C 0.13387 0.87047 0.21699 0.0
C1086 C 0.11195 0.88932 0.22297 0.0
C1087 C 0.10506 0.8945 0.25765 0.0
C1088 C 0.10836 0.9057 0.27687 0.0
C1089 C 0.11877 0.91161 0.26022 0.0
C1090 C 0.12571 0.90638 0.2254 0.0
H1091 H 0.1412 0.86357 0.21895 0.0
H1092 H 0.1346 0.87656 0.24671 0.0
H1093 H 0.12506 0.86561 0.21884 0.0
H1094 H 0.10901 0.88079 0.20849 0.0
H1095 H 0.09705 0.88972 0.26916 0.0
H1096 H 0.40913 0.89048 0.23765 0.0
H1097 H 0.39741 0.88215 0.30028 0.0
H1098 H 0.37298 0.91263 0.29378 0.0
H1099 H 0.38474 0.9211 0.23056 0.0
H1100 H 0.39288 0.89354 0.38511 0.0
H1101 H 0.35 0.88269 0.29464 0.0
H1102 H 0.36412 0.88533 0.26526 0.0
H1103 H 0.35579 0.89786 0.28839 0.0
C1104 C 0.40122 0.89542 0.24919 0.0
C1105 C 0.39788 0.90648 0.22884 0.0
C1106 C 0.39452 0.89063 0.28518 0.0
C1107 C 0.38423 0.89668 0.30166 0.0
C1108 C 0.38078 0.90769 0.28131 0.0
H1109 H 0.33527 0.87206 0.52067 0.0
H1110 H 0.34454 0.88418 0.45997 0.0
C1111 C 0.38754 0.91255 0.24526 0.0
C1112 C 0.37749 0.89154 0.34109 0.0
H1113 H 0.35073 0.87815 0.37231 0.0
C1114 C 0.38364 0.89024 0.38233 0.0
C1115 C 0.36539 0.88731 0.33775 0.0
C1116 C 0.3584 0.88826 0.29414 0.0
C1117 C 0.37812 0.88471 0.41995 0.0
C1118 C 0.36619 0.88002 0.41616 0.0
C1119 C 0.35988 0.88167 0.37534 0.0
C1120 C 0.36044 0.87279 0.45324 0.0
C1121 C 0.38517 0.88401 0.46354 0.0
C1122 C 0.36614 0.86224 0.46937 0.0
C1123 C 0.36091 0.85537 0.50403 0.0
C1124 C 0.34973 0.85876 0.52334 0.0
C1125 C 0.34391 0.86923 0.5068 0.0
C1126 C 0.34919 0.87614 0.472 0.0
H1127 H 0.39213 0.89128 0.46555 0.0
H1128 H 0.37908 0.88477 0.49328 0.0
H1129 H 0.38995 0.87516 0.46527 0.0
H1130 H 0.37463 0.85923 0.45483 0.0
H1131 H 0.36562 0.84732 0.51546 0.0
H1132 H 0.38534 0.08627 0.77886 0.0
H1133 H 0.37383 0.09481 0.71507 0.0
H1134 H 0.39785 0.12564 0.71206 0.0
H1135 H 0.40929 0.11727 0.7754 0.0
H1136 H 0.36211 0.11901 0.70566 0.0
H1137 H 0.39899 0.11144 0.58135 0.0
H1138 H 0.39837 0.10361 0.63486 0.0
H1139 H 0.4036 0.11903 0.6322 0.0
C1140 C 0.38812 0.0949 0.76476 0.0
C1141 C 0.39829 0.10104 0.78228 0.0
C1142 C 0.38153 0.09977 0.72828 0.0
C1143 C 0.38507 0.1108 0.70826 0.0
C1144 C 0.39504 0.11704 0.72639 0.0
H1145 H 0.36644 0.15846 0.48881 0.0
H1146 H 0.37535 0.14705 0.5511 0.0
C1147 C 0.40155 0.11225 0.76287 0.0
C1148 C 0.37851 0.11583 0.66822 0.0
H1149 H 0.38269 0.12403 0.55793 0.0
C1150 C 0.36654 0.11999 0.67317 0.0
C1151 C 0.38429 0.11714 0.62582 0.0
C1152 C 0.39698 0.11249 0.61789 0.0
C1153 C 0.36039 0.12588 0.63753 0.0
C1154 C 0.36626 0.1274 0.59525 0.0
C1155 C 0.37814 0.12293 0.59014 0.0
C1156 C 0.3606 0.13418 0.55669 0.0
C1157 C 0.34787 0.13089 0.64621 0.0
C1158 C 0.34936 0.13072 0.53813 0.0
C1159 C 0.34417 0.13733 0.50235 0.0
C1160 C 0.35017 0.14747 0.48396 0.0
C1161 C 0.36153 0.15072 0.50198 0.0
C1162 C 0.36666 0.14418 0.53775 0.0
H1163 H 0.34596 0.13176 0.68289 0.0
H1164 H 0.34673 0.13993 0.6302 0.0
H1165 H 0.34102 0.12465 0.6316 0.0
H1166 H 0.3446 0.12287 0.55116 0.0
H1167 H 0.33544 0.13452 0.48921 0.0
H1168 H 0.83601 0.87143 0.98492 0.0
H1169 H 0.84521 0.88345 0.04595 0.0
H1170 H 0.87555 0.85879 0.04971 0.0
H1171 H 0.86662 0.84699 0.98865 0.0
H1172 H 0.85135 0.87734 0.13291 0.0
H1173 H 0.89286 0.89088 0.04114 0.0
H1174 H 0.87994 0.88431 0.01289 0.0
H1175 H 0.89082 0.87474 0.04099 0.0
C1176 C 0.8447 0.86865 0.99851 0.0
C1177 C 0.85061 0.85829 0.98146 0.0
C1178 C 0.84994 0.87551 0.03352 0.0
C1179 C 0.86123 0.87221 0.05205 0.0
C1180 C 0.86703 0.86178 0.03536 0.0
H1181 H 0.90932 0.89 0.2699 0.0
H1182 H 0.89778 0.88151 0.20709 0.0
C1183 C 0.86184 0.85497 1.00045 0.0
C1184 C 0.8669 0.87936 0.08952 0.0
H1185 H 0.89346 0.89294 0.12167 0.0
C1186 C 0.86049 0.88091 0.13021 0.0
C1187 C 0.87882 0.88411 0.0862 0.0
C1188 C 0.88596 0.88354 0.04279 0.0
C1189 C 0.86588 0.88652 0.16806 0.0
C1190 C 0.87797 0.8908 0.16518 0.0
C1191 C 0.88423 0.88959 0.12412 0.0
C1192 C 0.88457 0.89599 0.20484 0.0
C1193 C 0.85879 0.8874 0.21146 0.0
C1194 C 0.88103 0.90703 0.2248 0.0
C1195 C 0.88769 0.91197 0.26091 0.0
C1196 C 0.89801 0.90597 0.27783 0.0
C1197 C 0.90142 0.89488 0.25797 0.0
C1198 C 0.89483 0.89 0.22188 0.0
H1199 H 0.85041 0.8818 0.21061 0.0
H1200 H 0.86444 0.88445 0.24048 0.0
H1201 H 0.85614 0.89698 0.21727 0.0
H1202 H 0.87325 0.91193 0.21191 0.0
H1203 H 0.88483 0.92055 0.27521 0.0
H1204 H 0.86664 0.15874 0.02203 0.0
H1205 H 0.87528 0.14685 0.96055 0.0
H1206 H 0.84462 0.12258 0.96539 0.0
H1207 H 0.83573 0.13468 0.02674 0.0
H1208 H 0.88249 0.12346 0.95771 0.0
H1209 H 0.84578 0.13054 0.83197 0.0
H1210 H 0.84677 0.13926 0.88335 0.0
H1211 H 0.84092 0.12404 0.88454 0.0
C1212 C 0.86168 0.15089 0.01009 0.0
C1213 C 0.85044 0.14771 0.02937 0.0
C1214 C 0.86666 0.14407 0.9748 0.0
C1215 C 0.86056 0.13388 0.9576 0.0
C1216 C 0.8494 0.13055 0.97719 0.0
H1217 H 0.88512 0.08519 0.73749 0.0
H1218 H 0.87357 0.09383 0.80098 0.0
C1219 C 0.84437 0.13742 0.01258 0.0
C1220 C 0.86614 0.12676 0.91986 0.0
H1221 H 0.86205 0.11788 0.81005 0.0
C1222 C 0.87797 0.12222 0.92553 0.0
C1223 C 0.86028 0.12504 0.87771 0.0
C1224 C 0.84778 0.13005 0.86867 0.0
C1225 C 0.88412 0.11622 0.89038 0.0
C1226 C 0.87839 0.11479 0.84795 0.0
C1227 C 0.86644 0.11897 0.84254 0.0
C1228 C 0.88501 0.10965 0.80827 0.0
C1229 C 0.89676 0.11149 0.8989 0.0
C1230 C 0.89511 0.11578 0.79058 0.0
C1231 C 0.90165 0.11092 0.75433 0.0
C1232 C 0.89828 0.09979 0.7347 0.0
C1233 C 0.88799 0.09376 0.75182 0.0
C1234 C 0.88138 0.09869 0.7881 0.0
H1235 H 0.89861 0.11042 0.93555 0.0
H1236 H 0.89817 0.10261 0.88198 0.0
H1237 H 0.90346 0.11802 0.88501 0.0
H1238 H 0.89799 0.12433 0.80501 0.0
H1239 H 0.90948 0.11586 0.74205 0.0
H1240 H 0.59812 0.11603 0.77088 0.0
H1241 H 0.61004 0.12473 0.70956 0.0
H1242 H 0.63439 0.09414 0.71447 0.0
H1243 H 0.62227 0.0852 0.77569 0.0
H1244 H 0.63344 0.13199 0.70713 0.0
H1245 H 0.62653 0.09538 0.5809 0.0
H1246 H 0.61774 0.09632 0.63218 0.0
H1247 H 0.63298 0.09051 0.63354 0.0
C1248 C 0.60599 0.11109 0.75898 0.0
C1249 C 0.60919 0.09986 0.77826 0.0
C1250 C 0.61283 0.11611 0.72379 0.0
C1251 C 0.62305 0.11006 0.70666 0.0
C1252 C 0.6264 0.0989 0.72623 0.0
H1253 H 0.67153 0.13486 0.48599 0.0
H1254 H 0.66302 0.12324 0.54956 0.0
C1255 C 0.61951 0.09383 0.76153 0.0
C1256 C 0.6302 0.11568 0.66904 0.0
H1257 H 0.63912 0.11172 0.55919 0.0
C1258 C 0.63471 0.12751 0.67489 0.0
C1259 C 0.63194 0.10987 0.62683 0.0
C1260 C 0.62697 0.09736 0.61763 0.0
C1261 C 0.64071 0.13371 0.63984 0.0
C1262 C 0.64216 0.12804 0.59731 0.0
C1263 C 0.63801 0.11608 0.59175 0.0
C1264 C 0.64724 0.13471 0.55768 0.0
C1265 C 0.64541 0.14634 0.64859 0.0
C1266 C 0.64111 0.14487 0.54041 0.0
C1267 C 0.6459 0.15145 0.50414 0.0
C1268 C 0.65697 0.14807 0.48401 0.0
C1269 C 0.66301 0.13774 0.5007 0.0
C1270 C 0.65815 0.13109 0.53704 0.0
H1271 H 0.64655 0.14812 0.68526 0.0
H1272 H 0.65425 0.14783 0.63145 0.0
H1273 H 0.63883 0.15305 0.63512 0.0
H1274 H 0.63259 0.14774 0.55517 0.0
H1275 H 0.64095 0.15931 0.4922 0.0
H1276 H 0.64 0.84725 0.51885 0.0
H1277 H 0.63126 0.85901 0.45718 0.0
H1278 H 0.66183 0.88338 0.46093 0.0
H1279 H 0.67083 0.87141 0.52239 0.0
H1280 H 0.62389 0.88224 0.45281 0.0
H1281 H 0.66084 0.87517 0.32807 0.0
H1282 H 0.6599 0.86662 0.37988 0.0
H1283 H 0.66562 0.88189 0.38032 0.0
C1284 C 0.64491 0.8551 0.50666 0.0
C1285 C 0.65617 0.85833 0.52562 0.0
C1286 C 0.63987 0.86185 0.47125 0.0
C1287 C 0.64593 0.87202 0.4536 0.0
C1288 C 0.65708 0.87543 0.47302 0.0
H1289 H 0.6216 0.92026 0.2316 0.0
H1290 H 0.63303 0.91174 0.29562 0.0
C1291 C 0.66218 0.86862 0.5085 0.0
C1292 C 0.64034 0.87901 0.41548 0.0
H1293 H 0.6446 0.88781 0.3056 0.0
C1294 C 0.62847 0.88347 0.42073 0.0
C1295 C 0.64627 0.88072 0.37342 0.0
C1296 C 0.65881 0.87577 0.36474 0.0
C1297 C 0.62235 0.88939 0.38529 0.0
C1298 C 0.62815 0.89083 0.34299 0.0
C1299 C 0.64014 0.88672 0.33799 0.0
C1300 C 0.6216 0.89591 0.30303 0.0
C1301 C 0.60966 0.89405 0.39341 0.0
C1302 C 0.61154 0.88975 0.28519 0.0
C1303 C 0.60507 0.89454 0.24863 0.0
C1304 C 0.60847 0.90565 0.2288 0.0
C1305 C 0.61871 0.91171 0.24606 0.0
C1306 C 0.62525 0.90685 0.28266 0.0
H1307 H 0.60774 0.89516 0.42999 0.0
H1308 H 0.60822 0.90289 0.37628 0.0
H1309 H 0.60304 0.88746 0.3795 0.0
H1310 H 0.60864 0.88121 0.29973 0.0
H1311 H 0.59727 0.88957 0.23627 0.0
H1312 H 0.6394 0.65873 0.52162 0.0
H1313 H 0.63059 0.64736 0.45892 0.0
H1314 H 0.66152 0.62345 0.45812 0.0
H1315 H 0.67047 0.63485 0.52121 0.0
H1316 H 0.64148 0.64384 0.3719 0.0
H1317 H 0.63188 0.59999 0.45775 0.0
H1318 H 0.63444 0.61388 0.48865 0.0
H1319 H 0.64698 0.60598 0.46361 0.0
C1320 C 0.64432 0.65099 0.50852 0.0
C1321 C 0.65566 0.64771 0.52669 0.0
C1322 C 0.63925 0.6445 0.47249 0.0
C1323 C 0.64531 0.63447 0.45387 0.0
C1324 C 0.65657 0.63104 0.47224 0.0
H1325 H 0.62113 0.58673 0.23114 0.0
H1326 H 0.63304 0.59586 0.29257 0.0
C1327 C 0.6617 0.63759 0.50826 0.0
C1328 C 0.63998 0.62803 0.41412 0.0
H1329 H 0.62708 0.60127 0.38035 0.0
C1330 C 0.63838 0.63452 0.37374 0.0
C1331 C 0.63602 0.61582 0.41621 0.0
C1332 C 0.63731 0.60847 0.45888 0.0
C1333 C 0.63286 0.62921 0.33571 0.0
C1334 C 0.62847 0.61713 0.33824 0.0
C1335 C 0.63037 0.61052 0.37826 0.0
C1336 C 0.62134 0.61149 0.30063 0.0
C1337 C 0.6319 0.6366 0.29298 0.0
C1338 C 0.61069 0.61707 0.28494 0.0
C1339 C 0.60394 0.61192 0.24981 0.0
C1340 C 0.60754 0.60094 0.2296 0.0
C1341 C 0.61812 0.59522 0.24569 0.0
C1342 C 0.62493 0.60043 0.28092 0.0
H1343 H 0.63901 0.64374 0.29154 0.0
H1344 H 0.63273 0.6308 0.26252 0.0
H1345 H 0.62295 0.6412 0.2921 0.0
H1346 H 0.6075 0.62541 0.3002 0.0
H1347 H 0.59579 0.61654 0.23876 0.0
H1348 H 0.5973 0.38983 0.77207 0.0
H1349 H 0.60861 0.38135 0.70858 0.0
H1350 H 0.63291 0.41196 0.7112 0.0
H1351 H 0.62154 0.4206 0.77504 0.0
H1352 H 0.61262 0.39322 0.62208 0.0
H1353 H 0.65575 0.3815 0.70941 0.0
H1354 H 0.64173 0.38389 0.73973 0.0
H1355 H 0.64992 0.39661 0.71738 0.0
C1356 C 0.60511 0.39475 0.75952 0.0
C1357 C 0.60851 0.40592 0.7789 0.0
C1358 C 0.61156 0.38988 0.72304 0.0
C1359 C 0.62168 0.39594 0.70516 0.0
C1360 C 0.62523 0.40702 0.72469 0.0
H1361 H 0.67022 0.37166 0.4852 0.0
H1362 H 0.66092 0.3835 0.54646 0.0
C1363 C 0.6187 0.41198 0.76115 0.0
C1364 C 0.62814 0.39077 0.66513 0.0
H1365 H 0.65458 0.37718 0.63169 0.0
C1366 C 0.62182 0.38976 0.62415 0.0
C1367 C 0.64018 0.38636 0.66756 0.0
C1368 C 0.64733 0.38704 0.71085 0.0
C1369 C 0.62713 0.38439 0.5858 0.0
C1370 C 0.63902 0.37952 0.58862 0.0
C1371 C 0.64547 0.38084 0.62933 0.0
C1372 C 0.64465 0.37255 0.55052 0.0
C1373 C 0.61995 0.38413 0.54246 0.0
C1374 C 0.63873 0.36236 0.53244 0.0
C1375 C 0.64397 0.35566 0.49728 0.0
C1376 C 0.65538 0.35885 0.47949 0.0
C1377 C 0.66139 0.36899 0.49781 0.0
C1378 C 0.65609 0.37575 0.53299 0.0
H1379 H 0.61317 0.39159 0.54134 0.0
H1380 H 0.62596 0.38492 0.51251 0.0
H1381 H 0.61493 0.37543 0.54025 0.0
H1382 H 0.63009 0.35943 0.546 0.0
H1383 H 0.63912 0.34784 0.48451 0.0
H1384 H 0.90942 0.38949 0.73845 0.0
H1385 H 0.89831 0.38068 0.80187 0.0
H1386 H 0.87406 0.41134 0.8026 0.0
H1387 H 0.88521 0.4203 0.7389 0.0
H1388 H 0.89472 0.39212 0.88922 0.0
H1389 H 0.85114 0.38101 0.804 0.0
H1390 H 0.86503 0.38353 0.77296 0.0
H1391 H 0.85694 0.39615 0.79656 0.0
C1392 C 0.90166 0.39435 0.7517 0.0
C1393 C 0.89821 0.40562 0.73335 0.0
C1394 C 0.89532 0.38929 0.78814 0.0
C1395 C 0.88528 0.39528 0.80694 0.0
C1396 C 0.88168 0.40646 0.78837 0.0
H1397 H 0.83744 0.37126 0.02896 0.0
H1398 H 0.84667 0.38297 0.96725 0.0
C1399 C 0.88809 0.41159 0.75199 0.0
C1400 C 0.87899 0.38996 0.84705 0.0
H1401 H 0.85254 0.37659 0.88164 0.0
C1402 C 0.88548 0.38876 0.88759 0.0
C1403 C 0.86689 0.38568 0.84518 0.0
C1404 C 0.85955 0.38655 0.80236 0.0
C1405 C 0.88027 0.38336 0.92608 0.0
C1406 C 0.86831 0.37866 0.92384 0.0
C1407 C 0.8617 0.38013 0.88355 0.0
C1408 C 0.86272 0.37174 0.96215 0.0
C1409 C 0.88763 0.38291 0.96898 0.0
C1410 C 0.86855 0.36143 0.9798 0.0
C1411 C 0.86335 0.3548 0.01523 0.0
C1412 C 0.85207 0.35818 0.0337 0.0
C1413 C 0.84616 0.36843 0.0158 0.0
C1414 C 0.85142 0.37512 0.98037 0.0
H1415 H 0.89455 0.39024 0.96983 0.0
H1416 H 0.88177 0.38376 0.99929 0.0
H1417 H 0.89251 0.37411 0.97074 0.0
H1418 H 0.87708 0.35837 0.96572 0.0
H1419 H 0.86812 0.34689 0.02768 0.0
H1420 H 0.88487 0.58565 0.27377 0.0
H1421 H 0.87276 0.59457 0.21255 0.0
H1422 H 0.89687 0.62536 0.20858 0.0
H1423 H 0.90878 0.61666 0.26995 0.0
H1424 H 0.87339 0.63243 0.2055 0.0
H1425 H 0.88091 0.59593 0.07928 0.0
H1426 H 0.8744 0.59096 0.13167 0.0
H1427 H 0.88957 0.59692 0.13082 0.0
C1428 C 0.88757 0.59432 0.25985 0.0
C1429 C 0.89783 0.60041 0.27683 0.0
C1430 C 0.88069 0.59938 0.22454 0.0
C1431 C 0.88398 0.61058 0.2052 0.0
C1432 C 0.89413 0.6167 0.22263 0.0
H1433 H 0.86583 0.65967 0.99045 0.0
H1434 H 0.87425 0.64821 0.05357 0.0
C1435 C 0.90096 0.61169 0.25785 0.0
C1436 C 0.87687 0.61616 0.16743 0.0
H1437 H 0.86814 0.61212 0.05743 0.0
C1438 C 0.87222 0.62793 0.17323 0.0
C1439 C 0.87525 0.61033 0.12517 0.0
C1440 C 0.88037 0.59788 0.11601 0.0
C1441 C 0.86621 0.63407 0.1381 0.0
C1442 C 0.86487 0.62839 0.09555 0.0
C1443 C 0.86916 0.61648 0.09001 0.0
C1444 C 0.85975 0.63501 0.05585 0.0
C1445 C 0.86135 0.64665 0.14679 0.0
C1446 C 0.84891 0.63125 0.03505 0.0
C1447 C 0.84402 0.63784 0.99864 0.0
C1448 C 0.84996 0.64824 0.98204 0.0
C1449 C 0.86096 0.65176 1.00233 0.0
C1450 C 0.86578 0.64523 0.03868 0.0
H1451 H 0.86015 0.64841 0.18345 0.0
H1452 H 0.86787 0.65343 0.13342 0.0
H1453 H 0.85251 0.64804 0.12954 0.0
H1454 H 0.84413 0.62334 0.04751 0.0
H1455 H 0.83555 0.63485 0.98379 0.0
H1456 H 0.36671 0.34675 0.48951 0.0
H1457 H 0.37515 0.35807 0.55297 0.0
H1458 H 0.34453 0.38236 0.5501 0.0
H1459 H 0.33592 0.37098 0.48616 0.0
H1460 H 0.36877 0.39388 0.55957 0.0
H1461 H 0.36104 0.35699 0.68366 0.0
H1462 H 0.3686 0.35233 0.63279 0.0
H1463 H 0.35321 0.35767 0.63017 0.0
C1464 C 0.36174 0.35452 0.50212 0.0
C1465 C 0.35058 0.3579 0.48268 0.0
C1466 C 0.36658 0.36096 0.53866 0.0
C1467 C 0.36042 0.37098 0.55685 0.0
C1468 C 0.34943 0.37462 0.53685 0.0
H1469 H 0.38487 0.42019 0.77606 0.0
H1470 H 0.37301 0.41119 0.71437 0.0
C1471 C 0.34452 0.36811 0.50029 0.0
C1472 C 0.36552 0.37747 0.59689 0.0
H1473 H 0.37386 0.37313 0.70693 0.0
C1474 C 0.36976 0.38942 0.59198 0.0
C1475 C 0.36685 0.37165 0.6392 0.0
C1476 C 0.3621 0.35899 0.64711 0.0
C1477 C 0.37575 0.39549 0.62756 0.0
C1478 C 0.3773 0.38956 0.66971 0.0
C1479 C 0.37274 0.37772 0.67481 0.0
C1480 C 0.3842 0.39512 0.70812 0.0
C1481 C 0.38084 0.40798 0.61892 0.0
C1482 C 0.39421 0.38897 0.72657 0.0
C1483 C 0.40088 0.39401 0.76219 0.0
C1484 C 0.39774 0.40537 0.78054 0.0
C1485 C 0.38759 0.41146 0.76266 0.0
C1486 C 0.38086 0.40636 0.72702 0.0
H1487 H 0.38163 0.40994 0.58225 0.0
H1488 H 0.37469 0.41486 0.6339 0.0
H1489 H 0.38992 0.40902 0.63462 0.0
H1490 H 0.397 0.38029 0.71294 0.0
H1491 H 0.40862 0.38903 0.77496 0.0
H1492 H 0.36624 0.66027 0.51954 0.0
H1493 H 0.37491 0.64846 0.45786 0.0
H1494 H 0.34512 0.62321 0.4664 0.0
H1495 H 0.3362 0.63523 0.52787 0.0
H1496 H 0.38297 0.62548 0.45472 0.0
H1497 H 0.34504 0.63058 0.33284 0.0
H1498 H 0.34603 0.63947 0.38382 0.0
H1499 H 0.3408 0.62403 0.38604 0.0
C1500 C 0.36148 0.65221 0.50837 0.0
C1501 C 0.35046 0.64875 0.52871 0.0
C1502 C 0.36648 0.64544 0.47296 0.0
C1503 C 0.36062 0.635 0.45667 0.0
C1504 C 0.34971 0.63137 0.47741 0.0
H1505 H 0.38484 0.58567 0.23828 0.0
H1506 H 0.37358 0.59456 0.30198 0.0
C1507 C 0.34465 0.6382 0.51289 0.0
C1508 C 0.36619 0.62794 0.41866 0.0
H1509 H 0.36149 0.61823 0.31014 0.0
C1510 C 0.37822 0.62389 0.42321 0.0
C1511 C 0.36005 0.62577 0.37735 0.0
C1512 C 0.34731 0.63027 0.36937 0.0
C1513 C 0.38429 0.6179 0.38781 0.0
C1514 C 0.37826 0.61597 0.34623 0.0
C1515 C 0.36612 0.6197 0.34196 0.0
C1516 C 0.38468 0.6107 0.30629 0.0
C1517 C 0.39716 0.61367 0.39521 0.0
C1518 C 0.39448 0.61691 0.28675 0.0
C1519 C 0.40086 0.61191 0.25034 0.0
C1520 C 0.39762 0.60054 0.23236 0.0
C1521 C 0.3876 0.59443 0.25126 0.0
C1522 C 0.38116 0.5995 0.2877 0.0
H1523 H 0.39937 0.61293 0.43169 0.0
H1524 H 0.39874 0.60473 0.37899 0.0
H1525 H 0.4035 0.62032 0.37987 0.0
H1526 H 0.39727 0.62565 0.29991 0.0
H1527 H 0.40848 0.61692 0.23669 0.0
H1528 H 0.14102 0.65931 0.99366 0.0
H1529 H 0.13266 0.64779 0.05674 0.0
H1530 H 0.16245 0.62258 0.04843 0.0
H1531 H 0.17098 0.63416 0.9848 0.0
H1532 H 0.13811 0.61169 0.0585 0.0
H1533 H 0.14729 0.64728 0.18622 0.0
H1534 H 0.13961 0.65266 0.13663 0.0
H1535 H 0.15482 0.64691 0.13207 0.0
C1536 C 0.14583 0.65131 1.00504 0.0
C1537 C 0.15673 0.64772 0.98413 0.0
C1538 C 0.14104 0.64475 0.04136 0.0
C1539 C 0.14699 0.6344 0.05786 0.0
C1540 C 0.15773 0.63058 0.03649 0.0
H1541 H 0.12134 0.58483 0.27446 0.0
H1542 H 0.13357 0.59369 0.21336 0.0
C1543 C 0.1626 0.63721 1.00014 0.0
C1544 C 0.14188 0.62772 0.09742 0.0
H1545 H 0.13377 0.63149 0.20796 0.0
C1546 C 0.1373 0.61593 0.09138 0.0
C1547 C 0.14081 0.63325 0.14035 0.0
C1548 C 0.14598 0.64568 0.14952 0.0
C1549 C 0.13118 0.60978 0.12645 0.0
C1550 C 0.12981 0.61547 0.1691 0.0
C1551 C 0.13476 0.6271 0.1754 0.0
C1552 C 0.12263 0.60992 0.20675 0.0
C1553 C 0.12574 0.5975 0.11684 0.0
C1554 C 0.11261 0.61618 0.2245 0.0
C1555 C 0.10571 0.6112 0.25959 0.0
C1556 C 0.10864 0.59981 0.27815 0.0
C1557 C 0.11879 0.59359 0.26087 0.0
C1558 C 0.12573 0.59861 0.22564 0.0
H1559 H 0.12513 0.59566 0.08005 0.0
H1560 H 0.13153 0.59038 0.13222 0.0
H1561 H 0.11652 0.59674 0.13169 0.0
H1562 H 0.11002 0.62492 0.2108 0.0
H1563 H 0.09798 0.61628 0.27195 0.0
H1564 H 0.11237 0.42353 0.7677 0.0
H1565 H 0.12342 0.41429 0.83062 0.0
H1566 H 0.12068 0.3793 0.7659 0.0
H1567 H 0.10877 0.38842 0.70515 0.0
H1568 H 0.11626 0.37572 0.84571 0.0
H1569 H 0.15697 0.40477 0.85 0.0
H1570 H 0.14362 0.41378 0.85772 0.0
H1571 H 0.14599 0.40582 0.80518 0.0
C1572 C 0.11428 0.4139 0.76674 0.0
C1573 C 0.10975 0.40671 0.73138 0.0
C1574 C 0.12072 0.4086 0.80265 0.0
C1575 C 0.12322 0.39605 0.80316 0.0
C1576 C 0.11894 0.38897 0.7669 0.0
H1577 H 0.17351 0.36245 0.99786 0.0
H1578 H 0.16438 0.37302 0.93326 0.0
C1579 C 0.11216 0.3942 0.73188 0.0
C1580 C 0.1295 0.39009 0.8425 0.0
H1581 H 0.15345 0.39255 0.91568 0.0
C1582 C 0.12448 0.37939 0.86048 0.0
C1583 C 0.14038 0.3946 0.86199 0.0
C1584 C 0.14711 0.40529 0.84236 0.0
C1585 C 0.12987 0.37318 0.89687 0.0
C1586 C 0.14025 0.37815 0.91839 0.0
C1587 C 0.14538 0.38877 0.90015 0.0
C1588 C 0.14599 0.37236 0.95912 0.0
C1589 C 0.12452 0.3611 0.91048 0.0
C1590 C 0.13889 0.36876 0.99631 0.0
C1591 C 0.14405 0.36239 0.03245 0.0
C1592 C 0.15656 0.35994 0.03352 0.0
C1593 C 0.16384 0.36424 0.99803 0.0
C1594 C 0.1586 0.37029 0.96103 0.0
H1595 H 0.11982 0.35669 0.88166 0.0
H1596 H 0.13159 0.35479 0.92311 0.0
H1597 H 0.11767 0.36254 0.9374 0.0
H1598 H 0.12927 0.3707 0.99717 0.0
H1599 H 0.13823 0.35932 0.05962 0.0
H1600 H 0.16032 0.30102 0.15628 0.0
H1601 H 0.162 0.27911 0.1466 0.0
H1602 H 0.18415 0.28444 0.02829 0.0
H1603 H 0.18258 0.30654 0.03801 0.0
H1604 H 0.15451 0.26557 0.07017 0.0
H1605 H 0.20383 0.25981 0.10499 0.0
H1606 H 0.19563 0.27332 0.12107 0.0
H1607 H 0.19963 0.27086 0.0631 0.0
C1608 C 0.16562 0.29757 0.12829 0.0
C1609 C 0.17134 0.30555 0.09794 0.0
C1610 C 0.16655 0.28502 0.12279 0.0
C1611 C 0.17328 0.28011 0.08698 0.0
C1612 C 0.17906 0.28802 0.05657 0.0
H1613 H 0.18247 0.20118 0.03832 0.0
H1614 H 0.18382 0.22333 0.02791 0.0
C1615 C 0.17811 0.30064 0.06203 0.0
C1616 C 0.17378 0.26671 0.08126 0.0
H1617 H 0.19252 0.24209 0.09051 0.0
C1618 C 0.16285 0.26045 0.07417 0.0
C1619 C 0.18467 0.26003 0.08611 0.0
C1620 C 0.19663 0.26628 0.09452 0.0
C1621 C 0.16245 0.24773 0.07315 0.0
C1622 C 0.17323 0.24102 0.08017 0.0
C1623 C 0.18427 0.24725 0.08523 0.0
C1624 C 0.17295 0.22764 0.08656 0.0
C1625 C 0.15042 0.24154 0.06529 0.0
C1626 C 0.16663 0.22276 0.12341 0.0
C1627 C 0.16587 0.21022 0.12942 0.0
C1628 C 0.17145 0.20222 0.0988 0.0
C1629 C 0.17804 0.2071 0.06237 0.0
C1630 C 0.17882 0.21974 0.05642 0.0
H1631 H 0.14391 0.24762 0.0477 0.0
H1632 H 0.15157 0.23315 0.04503 0.0
H1633 H 0.1464 0.23901 0.09831 0.0
H1634 H 0.16221 0.22867 0.14754 0.0
H1635 H 0.16078 0.20681 0.15801 0.0
H1636 H 0.95614 0.91309 0.40691 0.0
H1637 H 0.97796 0.91598 0.39995 0.0
H1638 H 0.97267 0.93601 0.27654 0.0
H1639 H 0.95058 0.93311 0.28323 0.0
H1640 H 0.99134 0.91791 0.27242 0.0
H1641 H 0.997 0.94747 0.42188 0.0
H1642 H 0.98867 0.93388 0.43415 0.0
H1643 H 0.98243 0.94487 0.39568 0.0
C1644 C 0.95955 0.91818 0.37834 0.0
C1645 C 0.95159 0.92294 0.34574 0.0
C1646 C 0.97207 0.91987 0.37455 0.0
C1647 C 0.97696 0.92639 0.33817 0.0
C1648 C 0.96908 0.93104 0.30511 0.0
H1649 H 0.05593 0.93346 0.28389 0.0
H1650 H 0.03387 0.93624 0.27646 0.0
C1651 C 0.95647 0.92939 0.30899 0.0
C1652 C 0.99034 0.92792 0.33465 0.0
H1653 H 0.01497 0.93758 0.39465 0.0
C1654 C 0.99653 0.92241 0.29862 0.0
C1655 C 0.99708 0.93382 0.36882 0.0
C1656 C 0.99096 0.94045 0.40709 0.0
C1657 C 0.0093 0.92201 0.29737 0.0
C1658 C 0.01603 0.9274 0.33277 0.0
C1659 C 0.00982 0.93339 0.36764 0.0
C1660 C 0.02942 0.92601 0.33659 0.0
C1661 C 0.01549 0.91527 0.25953 0.0
C1662 C 0.03425 0.91955 0.37321 0.0
C1663 C 0.04678 0.91798 0.37754 0.0
C1664 C 0.0548 0.92291 0.3455 0.0
C1665 C 0.04998 0.92953 0.30904 0.0
C1666 C 0.03738 0.93106 0.30464 0.0
H1667 H 0.00897 0.90992 0.23897 0.0
H1668 H 0.02008 0.92187 0.23699 0.0
H1669 H 0.0225 0.90903 0.27313 0.0
H1670 H 0.0283 0.91559 0.39832 0.0
H1671 H 0.05015 0.91285 0.40607 0.0
H1672 H 0.34211 0.80067 0.65301 0.0
H1673 H 0.33929 0.77884 0.64551 0.0
H1674 H 0.31872 0.78438 0.52348 0.0
H1675 H 0.32158 0.80644 0.53067 0.0
H1676 H 0.31723 0.76558 0.64178 0.0
H1677 H 0.34508 0.75939 0.48657 0.0
H1678 H 0.34599 0.77294 0.52064 0.0
H1679 H 0.33316 0.77053 0.48449 0.0
C1680 C 0.33697 0.7973 0.62451 0.0
C1681 C 0.33209 0.80532 0.59235 0.0
C1682 C 0.33536 0.78479 0.62031 0.0
C1683 C 0.3289 0.77995 0.58373 0.0
C1684 C 0.32389 0.7879 0.55165 0.0
H1685 H 0.32247 0.70088 0.53326 0.0
H1686 H 0.31924 0.7229 0.5256 0.0
C1687 C 0.32548 0.8005 0.55592 0.0
C1688 C 0.32749 0.76656 0.58006 0.0
H1689 H 0.33724 0.7418 0.52068 0.0
C1690 C 0.32147 0.76039 0.61498 0.0
C1691 C 0.33297 0.75978 0.54495 0.0
C1692 C 0.33974 0.76593 0.50707 0.0
C1693 C 0.32113 0.74766 0.61656 0.0
C1694 C 0.32715 0.74087 0.58275 0.0
C1695 C 0.33266 0.74701 0.54661 0.0
C1696 C 0.32883 0.72753 0.58692 0.0
C1697 C 0.3145 0.74157 0.65494 0.0
C1698 C 0.33543 0.72285 0.62347 0.0
C1699 C 0.33732 0.71038 0.62779 0.0
C1700 C 0.33267 0.70225 0.59559 0.0
C1701 C 0.32611 0.70691 0.55873 0.0
C1702 C 0.32427 0.71948 0.55429 0.0
H1703 H 0.30742 0.7476 0.66944 0.0
H1704 H 0.31017 0.73299 0.64374 0.0
H1705 H 0.32107 0.73939 0.68216 0.0
H1706 H 0.33926 0.72889 0.64856 0.0
H1707 H 0.34248 0.70714 0.65644 0.0
H1708 H 0.45684 0.09583 0.90496 0.0
H1709 H 0.47871 0.09414 0.89477 0.0
H1710 H 0.47321 0.07255 0.77524 0.0
H1711 H 0.45108 0.07415 0.78539 0.0
H1712 H 0.49166 0.06352 0.83774 0.0
H1713 H 0.49822 0.11206 0.79582 0.0
H1714 H 0.48953 0.10972 0.84634 0.0
H1715 H 0.48358 0.10472 0.79295 0.0
C1716 C 0.46023 0.0907 0.87643 0.0
C1717 C 0.45219 0.08518 0.8458 0.0
C1718 C 0.47276 0.08979 0.87057 0.0
C1719 C 0.4776 0.08339 0.83387 0.0
C1720 C 0.46966 0.07761 0.80364 0.0
H1721 H 0.55645 0.07267 0.78632 0.0
H1722 H 0.53433 0.07129 0.7764 0.0
C1723 C 0.45703 0.07855 0.80943 0.0
C1724 C 0.49099 0.08285 0.8278 0.0
H1725 H 0.51592 0.10108 0.81864 0.0
C1726 C 0.49699 0.07168 0.83273 0.0
C1727 C 0.49792 0.0935 0.8211 0.0
C1728 C 0.49199 0.10567 0.8133 0.0
C1729 C 0.50976 0.07102 0.83383 0.0
C1730 C 0.51666 0.08178 0.82935 0.0
C1731 C 0.51063 0.09284 0.82235 0.0
C1732 C 0.53006 0.08201 0.83548 0.0
C1733 C 0.51577 0.05893 0.84206 0.0
C1734 C 0.53499 0.08855 0.87169 0.0
C1735 C 0.54755 0.08937 0.87732 0.0
C1736 C 0.5555 0.08373 0.8467 0.0
C1737 C 0.55057 0.07708 0.81055 0.0
C1738 C 0.53794 0.07624 0.80496 0.0
H1739 H 0.50914 0.05181 0.85189 0.0
H1740 H 0.52043 0.05594 0.81077 0.0
H1741 H 0.52273 0.05973 0.86902 0.0
H1742 H 0.5291 0.09309 0.89561 0.0
H1743 H 0.55101 0.09457 0.90552 0.0
H1744 H 0.18349 0.80529 0.97428 0.0
H1745 H 0.18641 0.7832 0.98054 0.0
H1746 H 0.16588 0.77801 0.85825 0.0
H1747 H 0.16297 0.79985 0.85172 0.0
H1748 H 0.16834 0.76457 0.98564 0.0
H1749 H 0.19725 0.75894 0.83432 0.0
H1750 H 0.19476 0.7735 0.86071 0.0
H1751 H 0.18359 0.76727 0.82297 0.0
C1752 C 0.17966 0.79942 0.94866 0.0
C1753 C 0.17306 0.80434 0.91237 0.0
C1754 C 0.18133 0.78682 0.95229 0.0
C1755 C 0.17654 0.77897 0.91943 0.0
C1756 C 0.16988 0.78389 0.88348 0.0
H1757 H 0.16313 0.70558 0.85273 0.0
H1758 H 0.16574 0.72746 0.86 0.0
C1759 C 0.16818 0.79641 0.87994 0.0
C1760 C 0.17807 0.76558 0.92279 0.0
H1761 H 0.18757 0.74096 0.86234 0.0
C1762 C 0.17274 0.75939 0.95917 0.0
C1763 C 0.18385 0.75884 0.88828 0.0
C1764 C 0.1903 0.76498 0.84958 0.0
C1765 C 0.17239 0.74662 0.96052 0.0
C1766 C 0.17766 0.73989 0.92485 0.0
C1767 C 0.18347 0.74611 0.88957 0.0
C1768 C 0.17635 0.72649 0.92129 0.0
C1769 C 0.16582 0.74043 0.99881 0.0
C1770 C 0.18155 0.7186 0.95316 0.0
C1771 C 0.18008 0.70598 0.94904 0.0
C1772 C 0.1734 0.70108 0.91295 0.0
C1773 C 0.16832 0.70903 0.88097 0.0
C1774 C 0.16981 0.72157 0.88503 0.0
H1775 H 0.16049 0.74693 0.01948 0.0
H1776 H 0.15961 0.73333 0.98567 0.0
H1777 H 0.17254 0.73593 0.02113 0.0
H1778 H 0.18679 0.72218 0.98104 0.0
H1779 H 0.18414 0.7001 0.97412 0.0
H1780 H 0.45063 0.93351 0.21905 0.0
H1781 H 0.47276 0.93505 0.22828 0.0
H1782 H 0.47787 0.91309 0.10939 0.0
H1783 H 0.45596 0.91143 0.10022 0.0
H1784 H 0.49132 0.90529 0.18535 0.0
H1785 H 0.49763 0.95463 0.15237 0.0
H1786 H 0.48653 0.95047 0.19416 0.0
H1787 H 0.48401 0.94663 0.13607 0.0
C1788 C 0.45649 0.92909 0.19475 0.0
C1789 C 0.45153 0.92235 0.15891 0.0
C1790 C 0.46913 0.93002 0.19993 0.0
C1791 C 0.47698 0.92426 0.16928 0.0
C1792 C 0.47201 0.91762 0.1334 0.0
H1793 H 0.55055 0.91106 0.10069 0.0
H1794 H 0.52864 0.91266 0.10979 0.0
C1795 C 0.45945 0.9167 0.12819 0.0
C1796 C 0.49039 0.9246 0.17501 0.0
H1797 H 0.51522 0.94312 0.16691 0.0
C1798 C 0.49653 0.91359 0.18173 0.0
C1799 C 0.49719 0.93544 0.17065 0.0
C1800 C 0.49107 0.94748 0.16263 0.0
C1801 C 0.50925 0.91305 0.18294 0.0
C1802 C 0.51608 0.92378 0.17649 0.0
C1803 C 0.50997 0.9349 0.17172 0.0
C1804 C 0.52948 0.92339 0.1708 0.0
C1805 C 0.51529 0.90093 0.19053 0.0
C1806 C 0.5373 0.92922 0.20138 0.0
C1807 C 0.54995 0.92834 0.1962 0.0
C1808 C 0.55494 0.92171 0.16011 0.0
C1809 C 0.54704 0.91618 0.12904 0.0
C1810 C 0.53448 0.91704 0.13427 0.0
H1811 H 0.50912 0.89445 0.20778 0.0
H1812 H 0.51783 0.89696 0.15743 0.0
H1813 H 0.52367 0.90193 0.21101 0.0
H1814 H 0.53362 0.93424 0.22966 0.0
H1815 H 0.55579 0.93274 0.22058 0.0
H1816 H 0.3429 0.20555 0.35595 0.0
H1817 H 0.34056 0.22743 0.36385 0.0
H1818 H 0.32127 0.22225 0.48898 0.0
H1819 H 0.32366 0.20014 0.48144 0.0
H1820 H 0.31888 0.2409 0.37012 0.0
H1821 H 0.34798 0.24706 0.52201 0.0
H1822 H 0.3484 0.23341 0.48839 0.0
H1823 H 0.33594 0.2361 0.5261 0.0
C1824 C 0.33816 0.20901 0.38526 0.0
C1825 C 0.33349 0.20108 0.41815 0.0
C1826 C 0.33683 0.22155 0.38968 0.0
C1827 C 0.33085 0.22651 0.42718 0.0
C1828 C 0.32608 0.21864 0.46009 0.0
H1829 H 0.32415 0.30541 0.47882 0.0
H1830 H 0.32139 0.28334 0.48637 0.0
C1831 C 0.3274 0.20602 0.45563 0.0
C1832 C 0.32958 0.23991 0.43078 0.0
H1833 H 0.33973 0.26467 0.48922 0.0
C1834 C 0.32333 0.24608 0.39645 0.0
C1835 C 0.33533 0.24668 0.4653 0.0
C1836 C 0.34237 0.24054 0.50248 0.0
C1837 C 0.32298 0.25882 0.39492 0.0
C1838 C 0.32921 0.2656 0.42818 0.0
C1839 C 0.33499 0.25945 0.46371 0.0
C1840 C 0.33071 0.27896 0.4242 0.0
C1841 C 0.31608 0.26491 0.35723 0.0
C1842 C 0.33701 0.2838 0.38719 0.0
C1843 C 0.33863 0.29631 0.38291 0.0
C1844 C 0.334 0.30432 0.41562 0.0
C1845 C 0.32777 0.29948 0.45297 0.0
C1846 C 0.3262 0.28689 0.45735 0.0
H1847 H 0.30898 0.25885 0.3431 0.0
H1848 H 0.31172 0.27342 0.36902 0.0
H1849 H 0.32247 0.26722 0.32958 0.0
H1850 H 0.34079 0.27786 0.36166 0.0
H1851 H 0.34355 0.29969 0.35388 0.0
H1852 H 0.95088 0.0731 0.7287 0.0
H1853 H 0.97302 0.07189 0.73896 0.0
H1854 H 0.97822 0.0926 0.61702 0.0
H1855 H 0.95633 0.09392 0.60677 0.0
H1856 H 0.99172 0.06272 0.67918 0.0
H1857 H 0.99723 0.11182 0.71311 0.0
H1858 H 0.98271 0.10428 0.71624 0.0
H1859 H 0.98884 0.10875 0.66248 0.0
C1860 C 0.95677 0.07737 0.7041 0.0
C1861 C 0.95184 0.08368 0.66712 0.0
C1862 C 0.9694 0.07666 0.70997 0.0
C1863 C 0.97727 0.08234 0.67917 0.0
C1864 C 0.97234 0.08836 0.6417 0.0
H1865 H 0.05087 0.0937 0.60944 0.0
H1866 H 0.02894 0.09215 0.61856 0.0
C1867 C 0.95979 0.08905 0.6358 0.0
C1868 C 0.99066 0.08214 0.68564 0.0
H1869 H 0.01523 0.10092 0.6932 0.0
C1870 C 0.99687 0.07103 0.68303 0.0
C1871 C 0.99737 0.09299 0.69089 0.0
C1872 C 0.9912 0.10513 0.6963 0.0
C1873 C 0.00966 0.07059 0.68291 0.0
C1874 C 0.01635 0.08152 0.68599 0.0
C1875 C 0.0101 0.09255 0.69058 0.0
C1876 C 0.02977 0.08191 0.68076 0.0
C1877 C 0.01592 0.05852 0.67722 0.0
C1878 C 0.03758 0.07667 0.7128 0.0
C1879 C 0.05023 0.07756 0.7077 0.0
C1880 C 0.05523 0.08372 0.67048 0.0
C1881 C 0.04735 0.08888 0.63849 0.0
C1882 C 0.03478 0.08801 0.64365 0.0
H1883 H 0.00946 0.05117 0.66825 0.0
H1884 H 0.02299 0.05911 0.65059 0.0
H1885 H 0.02047 0.05602 0.70929 0.0
H1886 H 0.03391 0.07206 0.74206 0.0
H1887 H 0.05606 0.07352 0.73297 0.0
H1888 H 0.84301 0.70624 0.85166 0.0
H1889 H 0.8403 0.72808 0.85976 0.0
H1890 H 0.81961 0.72239 0.98145 0.0
H1891 H 0.82236 0.70035 0.97367 0.0
H1892 H 0.81834 0.74147 0.86366 0.0
H1893 H 0.84598 0.74716 0.01956 0.0
H1894 H 0.84684 0.73367 0.98511 0.0
H1895 H 0.83401 0.73607 0.02129 0.0
C1896 C 0.83787 0.70959 0.88021 0.0
C1897 C 0.83293 0.70153 0.91212 0.0
C1898 C 0.83632 0.72211 0.88475 0.0
C1899 C 0.82987 0.7269 0.92144 0.0
C1900 C 0.82479 0.71891 0.95323 0.0
H1901 H 0.82299 0.80571 0.97634 0.0
H1902 H 0.81998 0.78363 0.98267 0.0
C1903 C 0.82631 0.70632 0.94862 0.0
C1904 C 0.8285 0.74029 0.92555 0.0
H1905 H 0.83802 0.76485 0.98654 0.0
C1906 C 0.82253 0.74657 0.89082 0.0
C1907 C 0.83389 0.74695 0.96114 0.0
C1908 C 0.84062 0.74068 0.99885 0.0
C1909 C 0.82212 0.7593 0.88995 0.0
C1910 C 0.82802 0.76598 0.92431 0.0
C1911 C 0.83351 0.75972 0.9602 0.0
C1912 C 0.82961 0.77936 0.92103 0.0
C1913 C 0.81551 0.76551 0.8518 0.0
C1914 C 0.83617 0.78426 0.88478 0.0
C1915 C 0.83792 0.79676 0.88121 0.0
C1916 C 0.83319 0.80472 0.9139 0.0
C1917 C 0.8267 0.79982 0.95052 0.0
C1918 C 0.82498 0.78723 0.95418 0.0
H1919 H 0.80847 0.75951 0.83687 0.0
H1920 H 0.81112 0.77403 0.86337 0.0
H1921 H 0.82209 0.76782 0.82479 0.0
H1922 H 0.84005 0.77837 0.85932 0.0
H1923 H 0.84305 0.80018 0.85273 0.0
H1924 H 0.68366 0.20072 0.47655 0.0
H1925 H 0.68478 0.22286 0.48691 0.0
H1926 H 0.66373 0.22801 0.36581 0.0
H1927 H 0.66249 0.20612 0.35547 0.0
H1928 H 0.69364 0.24171 0.42692 0.0
H1929 H 0.64459 0.24676 0.46297 0.0
H1930 H 0.65228 0.2323 0.46567 0.0
H1931 H 0.64758 0.23842 0.41214 0.0
C1932 C 0.6793 0.2066 0.45213 0.0
C1933 C 0.67291 0.20165 0.41539 0.0
C1934 C 0.67996 0.21923 0.45807 0.0
C1935 C 0.67415 0.22708 0.42756 0.0
C1936 C 0.66807 0.22214 0.39027 0.0
H1937 H 0.66195 0.30034 0.35697 0.0
H1938 H 0.66375 0.27847 0.36685 0.0
C1939 C 0.66743 0.20959 0.38432 0.0
C1940 C 0.67425 0.24046 0.43417 0.0
H1941 H 0.65526 0.26485 0.4424 0.0
C1942 C 0.68529 0.24679 0.43112 0.0
C1943 C 0.66335 0.24707 0.43989 0.0
C1944 C 0.65129 0.24079 0.44582 0.0
C1945 C 0.68561 0.25957 0.43092 0.0
C1946 C 0.67462 0.26616 0.43438 0.0
C1947 C 0.66367 0.25981 0.4395 0.0
C1948 C 0.67408 0.27956 0.42875 0.0
C1949 C 0.6976 0.26595 0.42471 0.0
C1950 C 0.67928 0.28751 0.46039 0.0
C1951 C 0.67825 0.30014 0.45484 0.0
C1952 C 0.67198 0.30498 0.41759 0.0
C1953 C 0.66685 0.29695 0.38603 0.0
C1954 C 0.66786 0.28442 0.39163 0.0
H1955 H 0.70501 0.25955 0.41581 0.0
H1956 H 0.69688 0.27294 0.39784 0.0
H1957 H 0.7001 0.27063 0.45655 0.0
H1958 H 0.68398 0.28397 0.48965 0.0
H1959 H 0.68227 0.30608 0.47978 0.0
H1960 H 0.84414 0.29997 0.16047 0.0
H1961 H 0.84147 0.27814 0.15229 0.0
H1962 H 0.82206 0.28376 0.02769 0.0
H1963 H 0.82481 0.30581 0.03551 0.0
H1964 H 0.81969 0.26496 0.14653 0.0
H1965 H 0.84824 0.25861 0.99327 0.0
H1966 H 0.84889 0.27224 0.02697 0.0
H1967 H 0.83631 0.2697 0.98971 0.0
C1968 C 0.83931 0.29661 0.13121 0.0
C1969 C 0.83471 0.30465 0.09856 0.0
C1970 C 0.83778 0.2841 0.12663 0.0
C1971 C 0.83167 0.27928 0.08919 0.0
C1972 C 0.82697 0.28726 0.05652 0.0
H1973 H 0.82388 0.20053 0.03599 0.0
H1974 H 0.82127 0.22265 0.02924 0.0
C1975 C 0.8285 0.29985 0.06114 0.0
C1976 C 0.83021 0.26589 0.08538 0.0
H1977 H 0.8398 0.24108 0.02596 0.0
C1978 C 0.82398 0.25975 0.11988 0.0
C1979 C 0.83574 0.25909 0.05046 0.0
C1980 C 0.84275 0.26518 0.01306 0.0
C1981 C 0.82345 0.24703 0.12118 0.0
C1982 C 0.82947 0.2402 0.08748 0.0
C1983 C 0.83522 0.24632 0.0518 0.0
C1984 C 0.83081 0.22681 0.09113 0.0
C1985 C 0.81659 0.24097 0.15907 0.0
C1986 C 0.83717 0.22184 0.12774 0.0
C1987 C 0.83869 0.2093 0.13156 0.0
C1988 C 0.83392 0.20141 0.09879 0.0
C1989 C 0.82761 0.20637 0.06189 0.0
C1990 C 0.82613 0.21899 0.05796 0.0
H1991 H 0.80961 0.24711 0.17361 0.0
H1992 H 0.81208 0.23253 0.14733 0.0
H1993 H 0.82303 0.23855 0.18639 0.0
H1994 H 0.84107 0.22769 0.15327 0.0
H1995 H 0.84368 0.20581 0.16026 0.0
H1996 H 0.68215 0.70027 0.5267 0.0
H1997 H 0.68499 0.72233 0.51905 0.0
H1998 H 0.66641 0.72785 0.64544 0.0
H1999 H 0.6636 0.70603 0.65337 0.0
H2000 H 0.66702 0.74115 0.51746 0.0
H2001 H 0.69827 0.74666 0.66218 0.0
H2002 H 0.69525 0.7321 0.6366 0.0
H2003 H 0.68475 0.73846 0.67667 0.0
C2004 C 0.67872 0.7062 0.55288 0.0
C2005 C 0.67272 0.70138 0.59078 0.0
C2006 C 0.68034 0.7188 0.54846 0.0
C2007 C 0.6761 0.72673 0.58208 0.0
C2008 C 0.66999 0.72191 0.61955 0.0
H2009 H 0.6636 0.79982 0.65178 0.0
H2010 H 0.66615 0.77799 0.64309 0.0
C2011 C 0.66834 0.7094 0.62391 0.0
C2012 C 0.67769 0.7401 0.57816 0.0
H2013 H 0.68821 0.76469 0.63637 0.0
C2014 C 0.67185 0.74631 0.54291 0.0
C2015 C 0.68403 0.74682 0.61129 0.0
C2016 C 0.69104 0.74067 0.64858 0.0
C2017 C 0.67155 0.75909 0.54157 0.0
C2018 C 0.67737 0.76579 0.57607 0.0
C2019 C 0.6837 0.75956 0.61004 0.0
C2020 C 0.67604 0.77918 0.58022 0.0
C2021 C 0.66446 0.76532 0.5047 0.0
C2022 C 0.68085 0.78719 0.54786 0.0
C2023 C 0.67943 0.79979 0.55281 0.0
C2024 C 0.67318 0.80456 0.59021 0.0
C2025 C 0.66847 0.79649 0.62255 0.0
C2026 C 0.66992 0.78397 0.61768 0.0
H2027 H 0.65896 0.75882 0.48464 0.0
H2028 H 0.65833 0.77229 0.51925 0.0
H2029 H 0.67085 0.76998 0.48152 0.0
H2030 H 0.68577 0.7837 0.51898 0.0
H2031 H 0.68319 0.80577 0.5274 0.0
H2032 H 0.55583 0.43177 0.78235 0.0
H2033 H 0.53373 0.43431 0.77495 0.0
H2034 H 0.52851 0.41538 0.90081 0.0
H2035 H 0.55039 0.41285 0.90848 0.0
H2036 H 0.51523 0.416 0.77293 0.0
H2037 H 0.50921 0.44697 0.91826 0.0
H2038 H 0.52381 0.44423 0.89255 0.0
H2039 H 0.51763 0.43355 0.93232 0.0
C2040 C 0.54995 0.42821 0.80849 0.0
C2041 C 0.55487 0.42218 0.84614 0.0
C2042 C 0.53734 0.42965 0.80419 0.0
C2043 C 0.52948 0.42522 0.8377 0.0
C2044 C 0.5344 0.41911 0.87499 0.0
H2045 H 0.45622 0.41238 0.90637 0.0
H2046 H 0.47807 0.41487 0.89813 0.0
C2047 C 0.54693 0.41762 0.87921 0.0
C2048 C 0.51609 0.42661 0.8338 0.0
H2049 H 0.49132 0.43684 0.89176 0.0
C2050 C 0.50998 0.42074 0.79839 0.0
C2051 C 0.50927 0.43284 0.86695 0.0
C2052 C 0.51531 0.43986 0.90443 0.0
C2053 C 0.49722 0.42032 0.79684 0.0
C2054 C 0.49041 0.42605 0.83129 0.0
C2055 C 0.49654 0.43239 0.86548 0.0
C2056 C 0.47701 0.42468 0.83502 0.0
C2057 C 0.49111 0.41321 0.75977 0.0
C2058 C 0.46908 0.42943 0.80233 0.0
C2059 C 0.45647 0.42803 0.80701 0.0
C2060 C 0.45161 0.42186 0.84448 0.0
C2061 C 0.45962 0.41718 0.87708 0.0
C2062 C 0.47214 0.41861 0.87247 0.0
H2063 H 0.49767 0.40769 0.74005 0.0
H2064 H 0.48408 0.40708 0.77405 0.0
H2065 H 0.48653 0.41958 0.73631 0.0
H2066 H 0.47262 0.43431 0.77347 0.0
H2067 H 0.45054 0.43178 0.7814 0.0
H2068 H 0.9506 0.57319 0.28213 0.0
H2069 H 0.97268 0.57026 0.27568 0.0
H2070 H 0.97793 0.59056 0.39846 0.0
H2071 H 0.9561 0.59347 0.40518 0.0
H2072 H 0.99141 0.58833 0.27118 0.0
H2073 H 0.99687 0.55906 0.42161 0.0
H2074 H 0.98233 0.56164 0.39514 0.0
H2075 H 0.98855 0.5727 0.43335 0.0
C2076 C 0.95648 0.57697 0.30779 0.0
C2077 C 0.95158 0.5835 0.34431 0.0
C2078 C 0.96908 0.5753 0.30405 0.0
C2079 C 0.97695 0.58002 0.33702 0.0
C2080 C 0.97204 0.58662 0.37314 0.0
H2081 H 0.05012 0.5934 0.40568 0.0
H2082 H 0.02827 0.59078 0.39758 0.0
C2083 C 0.95953 0.58832 0.3768 0.0
C2084 C 0.99033 0.57845 0.33369 0.0
H2085 H 0.01489 0.56886 0.39431 0.0
C2086 C 0.99656 0.58387 0.29759 0.0
C2087 C 0.99703 0.5726 0.36813 0.0
C2088 C 0.99085 0.56606 0.40652 0.0
C2089 C 0.00933 0.58424 0.29649 0.0
C2090 C 0.01602 0.57891 0.33215 0.0
C2091 C 0.00977 0.573 0.36711 0.0
C2092 C 0.02941 0.58027 0.3361 0.0
C2093 C 0.01557 0.5909 0.25853 0.0
C2094 C 0.03739 0.57514 0.30438 0.0
C2095 C 0.04999 0.57661 0.30899 0.0
C2096 C 0.05479 0.58323 0.34542 0.0
C2097 C 0.04675 0.58826 0.3772 0.0
C2098 C 0.03423 0.58676 0.37266 0.0
H2099 H 0.00909 0.59623 0.23776 0.0
H2100 H 0.0226 0.59713 0.27202 0.0
H2101 H 0.02016 0.58424 0.23622 0.0
H2102 H 0.03388 0.56993 0.27626 0.0
H2103 H 0.05595 0.5726 0.28404 0.0
H2104 H 0.95072 0.43198 0.73247 0.0
H2105 H 0.97284 0.43324 0.74282 0.0
H2106 H 0.97817 0.41357 0.61864 0.0
H2107 H 0.95627 0.41223 0.60823 0.0
H2108 H 0.99147 0.40441 0.69413 0.0
H2109 H 0.99779 0.45416 0.671 0.0
H2110 H 0.98651 0.44928 0.71103 0.0
H2111 H 0.9843 0.44638 0.65205 0.0
C2112 C 0.95663 0.42799 0.7073 0.0
C2113 C 0.95173 0.42201 0.66953 0.0
C2114 C 0.96926 0.42877 0.71315 0.0
C2115 C 0.97716 0.42358 0.68129 0.0
C2116 C 0.97226 0.41766 0.6436 0.0
H2117 H 0.05066 0.41119 0.61 0.0
H2118 H 0.02876 0.41243 0.62017 0.0
C2119 C 0.95971 0.41691 0.63769 0.0
C2120 C 0.99056 0.42383 0.68733 0.0
H2121 H 0.01538 0.44241 0.68232 0.0
C2122 C 0.99669 0.41273 0.69201 0.0
C2123 C 0.99736 0.4347 0.68492 0.0
C2124 C 0.99123 0.44684 0.67921 0.0
C2125 C 0.00941 0.41217 0.69302 0.0
C2126 C 0.01624 0.42297 0.68837 0.0
C2127 C 0.01013 0.43414 0.68572 0.0
C2128 C 0.02964 0.42267 0.68235 0.0
C2129 C 0.01544 0.39997 0.6985 0.0
C2130 C 0.03748 0.42833 0.71327 0.0
C2131 C 0.05012 0.42767 0.70745 0.0
C2132 C 0.05509 0.42142 0.67037 0.0
C2133 C 0.04717 0.41601 0.63909 0.0
C2134 C 0.03462 0.41666 0.64495 0.0
H2135 H 0.0093 0.39333 0.71509 0.0
H2136 H 0.01783 0.39635 0.6647 0.0
H2137 H 0.0239 0.40071 0.71867 0.0
H2138 H 0.03383 0.4331 0.74221 0.0
H2139 H 0.05598 0.43197 0.73201 0.0
H2140 H 0.45556 0.59313 0.10271 0.0
H2141 H 0.4774 0.59024 0.10912 0.0
H2142 H 0.47238 0.57108 0.23461 0.0
H2143 H 0.45028 0.57399 0.22847 0.0
H2144 H 0.4912 0.58905 0.23617 0.0
H2145 H 0.49611 0.55843 0.08929 0.0
H2146 H 0.48784 0.57201 0.07615 0.0
H2147 H 0.48166 0.56133 0.11596 0.0
C2148 C 0.45904 0.58824 0.13164 0.0
C2149 C 0.45115 0.58372 0.16496 0.0
C2150 C 0.47156 0.58654 0.13513 0.0
C2151 C 0.47653 0.58026 0.17191 0.0
C2152 C 0.46872 0.57587 0.20573 0.0
H2153 H 0.55564 0.5729 0.22287 0.0
H2154 H 0.5336 0.57024 0.23151 0.0
C2155 C 0.45612 0.57753 0.20217 0.0
C2156 C 0.48991 0.57864 0.17494 0.0
H2157 H 0.51426 0.56834 0.11471 0.0
C2158 C 0.49626 0.58432 0.21015 0.0
C2159 C 0.49649 0.57244 0.14103 0.0
C2160 C 0.49017 0.5656 0.10371 0.0
C2161 C 0.50904 0.58461 0.21077 0.0
C2162 C 0.5156 0.57892 0.17557 0.0
C2163 C 0.50923 0.57275 0.14157 0.0
C2164 C 0.52899 0.58019 0.17092 0.0
C2165 C 0.51542 0.59154 0.24769 0.0
C2166 C 0.53372 0.58645 0.13364 0.0
C2167 C 0.54623 0.58795 0.12862 0.0
C2168 C 0.55434 0.58316 0.16063 0.0
C2169 C 0.54963 0.57672 0.1977 0.0
C2170 C 0.53704 0.57525 0.20281 0.0
H2171 H 0.50901 0.59703 0.26822 0.0
H2172 H 0.52009 0.58505 0.27045 0.0
H2173 H 0.5224 0.59766 0.23315 0.0
H2174 H 0.5277 0.59032 0.10856 0.0
H2175 H 0.54953 0.59295 0.09963 0.0
H2176 H 0.14077 0.16838 0.28117 0.0
H2177 H 0.13238 0.15472 0.33728 0.0
H2178 H 0.1491 0.12427 0.27039 0.0
H2179 H 0.15785 0.13807 0.21368 0.0
H2180 H 0.11682 0.13559 0.32621 0.0
H2181 H 0.16036 0.12054 0.40289 0.0
H2182 H 0.15935 0.13352 0.36586 0.0
H2183 H 0.15892 0.11846 0.34291 0.0
C2184 C 0.14271 0.15878 0.27805 0.0
C2185 C 0.15009 0.15436 0.2429 0.0
C2186 C 0.13787 0.15097 0.31034 0.0
C2187 C 0.14027 0.1385 0.3086 0.0
C2188 C 0.14733 0.13391 0.27291 0.0
H2189 H 0.09723 0.08828 0.4657 0.0
H2190 H 0.10948 0.09785 0.40713 0.0
C2191 C 0.1522 0.14178 0.24023 0.0
C2192 C 0.13505 0.13051 0.34408 0.0
H2193 H 0.14233 0.11234 0.4338 0.0
C2194 C 0.1224 0.13044 0.34953 0.0
C2195 C 0.14236 0.12398 0.375 0.0
C2196 C 0.15601 0.12415 0.37184 0.0
C2197 C 0.11686 0.12411 0.38502 0.0
C2198 C 0.12413 0.11741 0.41555 0.0
C2199 C 0.13679 0.11744 0.41024 0.0
C2200 C 0.11853 0.11024 0.45254 0.0
C2201 C 0.10325 0.12488 0.39013 0.0
C2202 C 0.12009 0.11354 0.49807 0.0
C2203 C 0.11316 0.10792 0.53203 0.0
C2204 C 0.10454 0.09904 0.52059 0.0
C2205 C 0.10367 0.09523 0.47541 0.0
C2206 C 0.11065 0.1007 0.44186 0.0
H2207 H 0.09941 0.13273 0.37142 0.0
H2208 H 0.09907 0.1165 0.37641 0.0
H2209 H 0.10063 0.12569 0.4262 0.0
H2210 H 0.12618 0.12086 0.50701 0.0
H2211 H 0.11399 0.11102 0.56657 0.0
H2212 H 0.11833 0.91144 0.46688 0.0
H2213 H 0.13193 0.90296 0.52498 0.0
H2214 H 0.10386 0.87803 0.56565 0.0
H2215 H 0.09028 0.88644 0.5086 0.0
H2216 H 0.12159 0.90003 0.63099 0.0
H2217 H 0.13937 0.85951 0.54063 0.0
H2218 H 0.13535 0.87339 0.51162 0.0
H2219 H 0.12367 0.86346 0.53194 0.0
C2220 C 0.11517 0.90399 0.48765 0.0
C2221 C 0.10323 0.89962 0.48324 0.0
C2222 C 0.1229 0.89924 0.52098 0.0
C2223 C 0.11883 0.88994 0.54964 0.0
C2224 C 0.10713 0.88523 0.54391 0.0
H2225 H 0.13601 0.84012 0.75357 0.0
H2226 H 0.12811 0.85303 0.69367 0.0
C2227 C 0.0994 0.89004 0.51122 0.0
C2228 C 0.12641 0.88527 0.58705 0.0
H2229 H 0.14171 0.8599 0.6201 0.0
C2230 C 0.12624 0.89138 0.62861 0.0
C2231 C 0.13235 0.87397 0.58366 0.0
C2232 C 0.13281 0.86716 0.53957 0.0
C2233 C 0.1313 0.88613 0.66764 0.0
C2234 C 0.13678 0.87454 0.66467 0.0
C2235 C 0.13747 0.86876 0.62245 0.0
C2236 C 0.14083 0.86766 0.70515 0.0
C2237 C 0.13011 0.89267 0.71213 0.0
C2238 C 0.15036 0.87176 0.7328 0.0
C2239 C 0.15482 0.8644 0.76781 0.0
C2240 C 0.14991 0.85278 0.7751 0.0
C2241 C 0.14002 0.849 0.74868 0.0
C2242 C 0.13552 0.85635 0.71426 0.0
H2243 H 0.1237 0.90043 0.7101 0.0
H2244 H 0.12695 0.88636 0.7389 0.0
H2245 H 0.13912 0.89622 0.72233 0.0
H2246 H 0.15471 0.88038 0.72607 0.0
H2247 H 0.16255 0.86747 0.78726 0.0
H2248 H 0.41543 0.88688 0.99463 0.0
H2249 H 0.40171 0.87891 0.93729 0.0
H2250 H 0.37367 0.90336 0.98199 0.0
H2251 H 0.38745 0.91147 0.04023 0.0
H2252 H 0.37242 0.87115 0.95592 0.0
H2253 H 0.38502 0.90728 0.83292 0.0
H2254 H 0.39611 0.90213 0.87349 0.0
H2255 H 0.38312 0.91048 0.89234 0.0
C2256 C 0.40629 0.89048 0.99283 0.0
C2257 C 0.40254 0.89985 0.02192 0.0
C2258 C 0.39848 0.88591 0.95997 0.0
C2259 C 0.38677 0.89064 0.95518 0.0
C2260 C 0.38273 0.89964 0.98519 0.0
H2261 H 0.34364 0.86832 0.71659 0.0
H2262 H 0.35127 0.88107 0.77872 0.0
C2263 C 0.39056 0.90419 0.01858 0.0
C2264 C 0.37913 0.88627 0.91746 0.0
H2265 H 0.37491 0.89003 0.80403 0.0
C2266 C 0.37272 0.8754 0.92291 0.0
C2267 C 0.37954 0.89187 0.87455 0.0
C2268 C 0.38627 0.90362 0.86755 0.0
C2269 C 0.36717 0.86966 0.88599 0.0
C2270 C 0.36833 0.87479 0.84233 0.0
C2271 C 0.37412 0.88606 0.83739 0.0
C2272 C 0.36457 0.86798 0.80139 0.0
C2273 C 0.36039 0.85796 0.8939 0.0
C2274 C 0.36996 0.85673 0.79213 0.0
C2275 C 0.36567 0.84951 0.75699 0.0
C2276 C 0.35597 0.85342 0.72983 0.0
C2277 C 0.35117 0.8651 0.73681 0.0
C2278 C 0.35545 0.87234 0.77247 0.0
H2279 H 0.35709 0.8573 0.92925 0.0
H2280 H 0.35252 0.85712 0.87072 0.0
H2281 H 0.36658 0.8502 0.88775 0.0
H2282 H 0.37725 0.85333 0.81319 0.0
H2283 H 0.36965 0.84061 0.75217 0.0
H2284 H 0.41461 0.09689 0.05472 0.0
H2285 H 0.40115 0.10543 0.11113 0.0
H2286 H 0.37712 0.11802 0.00621 0.0
H2287 H 0.39062 0.10912 0.94871 0.0
H2288 H 0.39615 0.12902 0.12061 0.0
H2289 H 0.35334 0.10329 0.09615 0.0
H2290 H 0.36759 0.09848 0.07193 0.0
H2291 H 0.35907 0.11054 0.04619 0.0
C2292 C 0.40643 0.1014 0.04334 0.0
C2293 C 0.40377 0.10245 0.99702 0.0
C2294 C 0.39871 0.10625 0.07583 0.0
C2295 C 0.38809 0.11235 0.06313 0.0
C2296 C 0.38517 0.11318 0.01694 0.0
H2297 H 0.34185 0.16058 0.21147 0.0
H2298 H 0.35145 0.14744 0.15575 0.0
C2299 C 0.3929 0.10815 0.98408 0.0
C2300 C 0.38078 0.1185 0.09864 0.0
H2301 H 0.35272 0.11982 0.14777 0.0
C2302 C 0.38668 0.12693 0.12667 0.0
C2303 C 0.36841 0.11577 0.10665 0.0
C2304 C 0.36172 0.10645 0.07895 0.0
C2305 C 0.38056 0.13276 0.16208 0.0
C2306 C 0.36821 0.13008 0.16998 0.0
C2307 C 0.36224 0.12173 0.14192 0.0
C2308 C 0.36121 0.13672 0.20484 0.0
C2309 C 0.38726 0.142 0.19024 0.0
C2310 C 0.36326 0.13482 0.25118 0.0
C2311 C 0.35767 0.14231 0.28346 0.0
C2312 C 0.35014 0.1519 0.26959 0.0
C2313 C 0.34773 0.15337 0.22323 0.0
C2314 C 0.35315 0.14583 0.19127 0.0
H2315 H 0.39638 0.14411 0.17632 0.0
H2316 H 0.38195 0.15054 0.19247 0.0
H2317 H 0.38841 0.13844 0.22503 0.0
H2318 H 0.36945 0.1278 0.26225 0.0
H2319 H 0.35969 0.14097 0.31889 0.0
H2320 H 0.91683 0.88941 0.51849 0.0
H2321 H 0.90339 0.88176 0.57708 0.0
H2322 H 0.8742 0.90373 0.52496 0.0
H2323 H 0.88771 0.91144 0.46528 0.0
H2324 H 0.89189 0.89634 0.64301 0.0
H2325 H 0.85877 0.86971 0.54119 0.0
H2326 H 0.87332 0.87426 0.51883 0.0
H2327 H 0.86143 0.88524 0.52521 0.0
C2328 C 0.90751 0.89253 0.51896 0.0
C2329 C 0.90336 0.90108 0.48721 0.0
C2330 C 0.89984 0.88817 0.55267 0.0
C2331 C 0.88782 0.89221 0.55564 0.0
C2332 C 0.88344 0.90042 0.52311 0.0
H2333 H 0.84728 0.86905 0.80182 0.0
H2334 H 0.85536 0.88294 0.74393 0.0
C2335 C 0.89115 0.90478 0.48894 0.0
C2336 C 0.88021 0.88793 0.5939 0.0
H2337 H 0.85717 0.86844 0.62002 0.0
C2338 C 0.88414 0.89043 0.63809 0.0
C2339 C 0.87012 0.88021 0.58734 0.0
C2340 C 0.86563 0.8771 0.54068 0.0
C2341 C 0.87866 0.88492 0.67572 0.0
C2342 C 0.86895 0.87676 0.66898 0.0
C2343 C 0.8646 0.87476 0.62502 0.0
C2344 C 0.86442 0.86884 0.70586 0.0
C2345 C 0.88376 0.88721 0.72216 0.0
C2346 C 0.86702 0.85642 0.70401 0.0
C2347 C 0.86252 0.84856 0.73677 0.0
C2348 C 0.85521 0.85288 0.77231 0.0
C2349 C 0.85292 0.86543 0.77509 0.0
C2350 C 0.85749 0.87336 0.74197 0.0
H2351 H 0.89191 0.89315 0.72128 0.0
H2352 H 0.87676 0.89162 0.74349 0.0
H2353 H 0.88624 0.87848 0.73845 0.0
H2354 H 0.87246 0.85277 0.67672 0.0
H2355 H 0.8646 0.83899 0.73359 0.0
H2356 H 0.87073 0.16517 0.25716 0.0
H2357 H 0.8786 0.15215 0.31682 0.0
H2358 H 0.85155 0.12517 0.28528 0.0
H2359 H 0.84376 0.13817 0.2243 0.0
H2360 H 0.86523 0.14552 0.39078 0.0
H2361 H 0.88215 0.1046 0.30036 0.0
H2362 H 0.87899 0.11868 0.27153 0.0
H2363 H 0.86675 0.10901 0.28894 0.0
C2364 C 0.86662 0.15634 0.26218 0.0
C2365 C 0.85662 0.15269 0.23604 0.0
C2366 C 0.87109 0.14892 0.29647 0.0
C2367 C 0.86566 0.13769 0.30576 0.0
C2368 C 0.856 0.13373 0.27841 0.0
H2369 H 0.88803 0.09381 0.54423 0.0
H2370 H 0.87443 0.10237 0.48626 0.0
C2371 C 0.85157 0.14114 0.24351 0.0
C2372 C 0.86971 0.13075 0.34612 0.0
H2373 H 0.88446 0.10496 0.37941 0.0
C2374 C 0.86927 0.13657 0.38832 0.0
C2375 C 0.87493 0.11904 0.34304 0.0
C2376 C 0.87585 0.11245 0.29857 0.0
C2377 C 0.87441 0.13127 0.42693 0.0
C2378 C 0.88008 0.11984 0.42342 0.0
C2379 C 0.88 0.1137 0.38191 0.0
C2380 C 0.88771 0.11506 0.46053 0.0
C2381 C 0.87424 0.13812 0.47096 0.0
C2382 C 0.89951 0.11954 0.46558 0.0
C2383 C 0.90724 0.11469 0.49818 0.0
C2384 C 0.9033 0.10528 0.52678 0.0
C2385 C 0.89127 0.10111 0.52297 0.0
C2386 C 0.88355 0.10591 0.48972 0.0
H2387 H 0.86783 0.1459 0.47012 0.0
H2388 H 0.87168 0.13198 0.49911 0.0
H2389 H 0.88347 0.14165 0.47808 0.0
H2390 H 0.90286 0.12662 0.44344 0.0
H2391 H 0.91642 0.11813 0.50033 0.0
H2392 H 0.66322 0.13849 0.28878 0.0
H2393 H 0.65566 0.12571 0.22662 0.0
H2394 H 0.62894 0.15293 0.19429 0.0
H2395 H 0.63648 0.16569 0.25527 0.0
H2396 H 0.63233 0.11619 0.20199 0.0
H2397 H 0.64862 0.1498 0.07714 0.0
H2398 H 0.65337 0.15 0.13546 0.0
H2399 H 0.63904 0.15651 0.11924 0.0
C2400 C 0.65555 0.14159 0.26901 0.0
C2401 C 0.65052 0.15315 0.27657 0.0
C2402 C 0.65131 0.13433 0.23334 0.0
C2403 C 0.64199 0.13855 0.20498 0.0
C2404 C 0.63638 0.14965 0.21486 0.0
H2405 H 0.59128 0.1191 0.01151 0.0
H2406 H 0.60491 0.12728 0.06873 0.0
C2407 C 0.64064 0.1569 0.24999 0.0
C2408 C 0.63825 0.13174 0.16398 0.0
H2409 H 0.63359 0.13557 0.05077 0.0
C2410 C 0.63286 0.12028 0.16875 0.0
C2411 C 0.63906 0.13703 0.12046 0.0
C2412 C 0.64545 0.14896 0.11261 0.0
C2413 C 0.62749 0.1144 0.13164 0.0
C2414 C 0.62754 0.12012 0.08894 0.0
C2415 C 0.63356 0.13122 0.08362 0.0
C2416 C 0.61994 0.11559 0.05137 0.0
C2417 C 0.62116 0.10241 0.13853 0.0
C2418 C 0.62404 0.10654 0.02169 0.0
C2419 C 0.61626 0.10188 0.98835 0.0
C2420 C 0.60426 0.10615 0.98475 0.0
C2421 C 0.60044 0.11556 0.01353 0.0
C2422 C 0.6082 0.12024 0.04632 0.0
H2423 H 0.62248 0.0988 0.17319 0.0
H2424 H 0.61128 0.10354 0.13235 0.0
H2425 H 0.6246 0.09567 0.11383 0.0
H2426 H 0.63312 0.10288 0.02508 0.0
H2427 H 0.61944 0.09458 0.96693 0.0
H2428 H 0.66104 0.86842 0.70918 0.0
H2429 H 0.65359 0.882 0.76919 0.0
H2430 H 0.63466 0.85201 0.83055 0.0
H2431 H 0.64197 0.83854 0.77164 0.0
H2432 H 0.62961 0.88753 0.79917 0.0
H2433 H 0.65584 0.86492 0.93414 0.0
H2434 H 0.65921 0.86287 0.87495 0.0
H2435 H 0.64724 0.85429 0.90127 0.0
C2436 C 0.65517 0.86479 0.73518 0.0
C2437 C 0.65223 0.85236 0.73584 0.0
C2438 C 0.651 0.87252 0.76959 0.0
C2439 C 0.64389 0.86791 0.80512 0.0
C2440 C 0.64045 0.85568 0.80434 0.0
H2441 H 0.58996 0.89071 0.98035 0.0
H2442 H 0.60385 0.88333 0.92301 0.0
C2443 C 0.64459 0.848 0.77031 0.0
C2444 C 0.63974 0.87571 0.84303 0.0
H2445 H 0.63816 0.87625 0.95828 0.0
C2446 C 0.6317 0.88526 0.83393 0.0
C2447 C 0.64262 0.87289 0.88847 0.0
C2448 C 0.65181 0.86327 0.90033 0.0
C2449 C 0.62572 0.89139 0.86907 0.0
C2450 C 0.62773 0.88778 0.91434 0.0
C2451 C 0.63651 0.87891 0.92358 0.0
C2452 C 0.6197 0.89197 0.95143 0.0
C2453 C 0.61692 0.90138 0.8574 0.0
C2454 C 0.62411 0.89882 0.98793 0.0
C2455 C 0.61612 0.9031 0.02136 0.0
C2456 C 0.60363 0.90049 0.01876 0.0
C2457 C 0.59946 0.89308 0.98327 0.0
C2458 C 0.60739 0.88888 0.95016 0.0
H2459 H 0.61909 0.90553 0.82418 0.0
H2460 H 0.60762 0.89755 0.85538 0.0
H2461 H 0.61695 0.90859 0.88358 0.0
H2462 H 0.63365 0.90115 0.98983 0.0
H2463 H 0.61963 0.90877 0.04817 0.0
H2464 H 0.6183 0.59782 0.04665 0.0
H2465 H 0.63218 0.60682 0.9907 0.0
H2466 H 0.60247 0.62718 0.934 0.0
H2467 H 0.5887 0.61843 0.9893 0.0
H2468 H 0.62975 0.6055 0.89233 0.0
H2469 H 0.62911 0.6528 0.95573 0.0
H2470 H 0.62448 0.64006 0.98995 0.0
H2471 H 0.61426 0.64636 0.94885 0.0
C2472 C 0.6148 0.60438 0.02276 0.0
C2473 C 0.60239 0.60741 0.02255 0.0
C2474 C 0.6227 0.60942 0.99061 0.0
C2475 C 0.61835 0.6177 0.95832 0.0
C2476 C 0.60606 0.62091 0.95884 0.0
H2477 H 0.64405 0.6434 0.69755 0.0
H2478 H 0.63471 0.63124 0.75804 0.0
C2479 C 0.59819 0.61586 0.99053 0.0
C2480 C 0.62642 0.62288 0.9231 0.0
H2481 H 0.63622 0.64991 0.88055 0.0
C2482 C 0.63133 0.6152 0.88996 0.0
C2483 C 0.62849 0.63551 0.92018 0.0
C2484 C 0.62391 0.64417 0.95579 0.0
C2485 C 0.63797 0.61987 0.85322 0.0
C2486 C 0.63958 0.63257 0.84931 0.0
C2487 C 0.63492 0.64018 0.88321 0.0
C2488 C 0.64622 0.63833 0.81112 0.0
C2489 C 0.64325 0.61119 0.81917 0.0
C2490 C 0.65586 0.64624 0.82058 0.0
C2491 C 0.66099 0.65328 0.78647 0.0
C2492 C 0.65671 0.65252 0.74187 0.0
C2493 C 0.64757 0.64408 0.73158 0.0
C2494 C 0.64227 0.63711 0.76612 0.0
H2495 H 0.64412 0.60189 0.83326 0.0
H2496 H 0.63715 0.61072 0.78942 0.0
H2497 H 0.65231 0.61429 0.80752 0.0
H2498 H 0.65911 0.64733 0.85485 0.0
H2499 H 0.66809 0.65964 0.79531 0.0
H2500 H 0.64615 0.36448 0.31155 0.0
H2501 H 0.6369 0.37727 0.25255 0.0
H2502 H 0.65684 0.35772 0.15063 0.0
H2503 H 0.66574 0.34484 0.20858 0.0
H2504 H 0.64591 0.39231 0.18333 0.0
H2505 H 0.62203 0.35254 0.11098 0.0
H2506 H 0.6294 0.35206 0.16529 0.0
H2507 H 0.63814 0.35047 0.11432 0.0
C2508 C 0.64863 0.36303 0.27658 0.0
C2509 C 0.65648 0.35351 0.26461 0.0
C2510 C 0.64334 0.37031 0.24292 0.0
C2511 C 0.64592 0.36821 0.19703 0.0
C2512 C 0.65441 0.35927 0.18558 0.0
H2513 H 0.61615 0.39688 0.94281 0.0
H2514 H 0.63006 0.38768 0.99834 0.0
C2515 C 0.65952 0.35194 0.21885 0.0
C2516 C 0.63945 0.37491 0.16066 0.0
H2517 H 0.62139 0.37069 0.06815 0.0
C2518 C 0.64052 0.38759 0.15822 0.0
C2519 C 0.63243 0.36875 0.12778 0.0
C2520 C 0.63031 0.35522 0.12986 0.0
C2521 C 0.63485 0.39424 0.12358 0.0
C2522 C 0.62788 0.38805 0.09072 0.0
C2523 C 0.6269 0.37539 0.09294 0.0
C2524 C 0.62046 0.39458 0.05669 0.0
C2525 C 0.63634 0.40783 0.12225 0.0
C2526 C 0.61053 0.40148 0.07112 0.0
C2527 C 0.60257 0.40654 0.0398 0.0
C2528 C 0.60436 0.40489 0.99313 0.0
C2529 C 0.61457 0.39834 0.97847 0.0
C2530 C 0.62249 0.39309 0.01012 0.0
H2531 H 0.64433 0.41084 0.14214 0.0
H2532 H 0.63733 0.41109 0.08697 0.0
H2533 H 0.62814 0.41215 0.13688 0.0
H2534 H 0.60868 0.40259 0.1068 0.0
H2535 H 0.59485 0.41163 0.05229 0.0
H2536 H 0.9107 0.41685 0.46193 0.0
H2537 H 0.89765 0.40799 0.40446 0.0
H2538 H 0.87966 0.38659 0.50648 0.0
H2539 H 0.89254 0.39588 0.56483 0.0
H2540 H 0.89754 0.3851 0.38103 0.0
H2541 H 0.85097 0.39762 0.4337 0.0
H2542 H 0.86427 0.40465 0.45772 0.0
H2543 H 0.8593 0.39001 0.47731 0.0
C2544 C 0.90382 0.41041 0.47232 0.0
C2545 C 0.90268 0.407 0.51788 0.0
C2546 C 0.89636 0.40534 0.43936 0.0
C2547 C 0.88761 0.39664 0.45091 0.0
C2548 C 0.88616 0.39348 0.4967 0.0
H2549 H 0.84849 0.34244 0.30655 0.0
H2550 H 0.85758 0.35637 0.36035 0.0
C2551 C 0.89355 0.39873 0.53004 0.0
C2552 C 0.88091 0.3902 0.41434 0.0
H2553 H 0.85266 0.38222 0.37704 0.0
C2554 C 0.88771 0.38463 0.37992 0.0
C2555 C 0.86809 0.38956 0.4127 0.0
C2556 C 0.86022 0.39588 0.44708 0.0
C2557 C 0.8821 0.37819 0.34478 0.0
C2558 C 0.86932 0.37731 0.34376 0.0
C2559 C 0.86247 0.38298 0.37776 0.0
C2560 C 0.86303 0.36953 0.31024 0.0
C2561 C 0.88989 0.37197 0.30987 0.0
C2562 C 0.86289 0.37239 0.26396 0.0
C2563 C 0.85762 0.36439 0.23266 0.0
C2564 C 0.85254 0.35336 0.24725 0.0
C2565 C 0.85246 0.35076 0.29383 0.0
C2566 C 0.85759 0.35876 0.32486 0.0
H2567 H 0.89967 0.37214 0.31894 0.0
H2568 H 0.88702 0.36238 0.30559 0.0
H2569 H 0.88877 0.3766 0.27688 0.0
H2570 H 0.86699 0.38073 0.25205 0.0
H2571 H 0.85779 0.3667 0.19713 0.0
H2572 H 0.84481 0.63788 0.792 0.0
H2573 H 0.85335 0.62421 0.73429 0.0
H2574 H 0.8779 0.65243 0.69194 0.0
H2575 H 0.86944 0.66608 0.74862 0.0
H2576 H 0.85627 0.63461 0.62719 0.0
H2577 H 0.89655 0.61678 0.71895 0.0
H2578 H 0.8826 0.62074 0.74752 0.0
H2579 H 0.89251 0.63246 0.72749 0.0
C2580 C 0.85219 0.64106 0.77094 0.0
C2581 C 0.85644 0.65306 0.77479 0.0
C2582 C 0.85698 0.63329 0.73783 0.0
C2583 C 0.86619 0.63738 0.7088 0.0
C2584 C 0.87077 0.64914 0.71395 0.0
H2585 H 0.91637 0.61939 0.50677 0.0
H2586 H 0.90349 0.62741 0.56657 0.0
C2587 C 0.86593 0.65691 0.74644 0.0
C2588 C 0.8709 0.62973 0.67165 0.0
H2589 H 0.89622 0.61419 0.63966 0.0
C2590 C 0.86488 0.6299 0.62991 0.0
C2591 C 0.88215 0.62373 0.67548 0.0
C2592 C 0.88887 0.6233 0.71976 0.0
C2593 C 0.87017 0.62475 0.59112 0.0
C2594 C 0.88171 0.61917 0.59454 0.0
C2595 C 0.8874 0.6185 0.63695 0.0
C2596 C 0.88864 0.615 0.55433 0.0
C2597 C 0.86373 0.62594 0.54644 0.0
C2598 C 0.88443 0.60559 0.52632 0.0
C2599 C 0.89177 0.60108 0.49132 0.0
C2600 C 0.90348 0.6058 0.48444 0.0
C2601 C 0.90741 0.61553 0.51136 0.0
C2602 C 0.90007 0.62009 0.54572 0.0
H2603 H 0.8561 0.63251 0.54806 0.0
H2604 H 0.87013 0.6289 0.51966 0.0
H2605 H 0.85999 0.61698 0.53655 0.0
H2606 H 0.87571 0.6014 0.53266 0.0
H2607 H 0.88857 0.59347 0.47149 0.0
H2608 H 0.35968 0.36573 0.3188 0.0
H2609 H 0.36864 0.37975 0.26304 0.0
H2610 H 0.3551 0.35737 0.15493 0.0
H2611 H 0.34631 0.34346 0.2096 0.0
H2612 H 0.38627 0.37154 0.19467 0.0
H2613 H 0.3455 0.39249 0.11718 0.0
H2614 H 0.34532 0.38568 0.17269 0.0
H2615 H 0.34481 0.37628 0.12321 0.0
C2616 C 0.35849 0.36393 0.28314 0.0
C2617 C 0.35239 0.35343 0.26866 0.0
C2618 C 0.3636 0.37192 0.25137 0.0
C2619 C 0.36239 0.36966 0.20484 0.0
C2620 C 0.35597 0.3594 0.19056 0.0
H2621 H 0.39245 0.39456 0.94933 0.0
H2622 H 0.37969 0.38543 0.00878 0.0
C2623 C 0.35106 0.35139 0.222 0.0
C2624 C 0.36875 0.3772 0.17075 0.0
H2625 H 0.36409 0.39446 0.07638 0.0
C2626 C 0.38144 0.37671 0.16921 0.0
C2627 C 0.3624 0.38373 0.13705 0.0
C2628 C 0.34875 0.38469 0.13764 0.0
C2629 C 0.38797 0.38228 0.13418 0.0
C2630 C 0.38164 0.38883 0.10037 0.0
C2631 C 0.36893 0.38944 0.10219 0.0
C2632 C 0.3882 0.39526 0.06358 0.0
C2633 C 0.40158 0.38069 0.13286 0.0
C2634 C 0.39679 0.40416 0.07443 0.0
C2635 C 0.4041 0.4092 0.04094 0.0
C2636 C 0.40284 0.40566 0.99557 0.0
C2637 C 0.39363 0.39741 0.98403 0.0
C2638 C 0.38638 0.39219 0.01794 0.0
H2639 H 0.40453 0.37267 0.15278 0.0
H2640 H 0.40488 0.37962 0.09768 0.0
H2641 H 0.40597 0.38882 0.14767 0.0
H2642 H 0.39811 0.40695 0.10913 0.0
H2643 H 0.41096 0.41572 0.05076 0.0
H2644 H 0.40859 0.58887 0.96311 0.0
H2645 H 0.39635 0.5983 0.90418 0.0
H2646 H 0.38071 0.62256 1.0024 0.0
H2647 H 0.39287 0.61285 0.06232 0.0
H2648 H 0.36404 0.61413 0.93156 0.0
H2649 H 0.40727 0.63241 0.86348 0.0
H2650 H 0.40709 0.61622 0.87009 0.0
H2651 H 0.40613 0.62581 0.91904 0.0
C2652 C 0.40237 0.59606 0.97238 0.0
C2653 C 0.40178 0.60025 0.01715 0.0
C2654 C 0.3954 0.60145 0.93863 0.0
C2655 C 0.38784 0.6113 0.94869 0.0
C2656 C 0.38656 0.615 0.99392 0.0
H2657 H 0.36656 0.66875 0.77219 0.0
H2658 H 0.37503 0.65525 0.82877 0.0
C2659 C 0.39346 0.60945 0.0281 0.0
C2660 C 0.3823 0.61835 0.91124 0.0
H2661 H 0.38973 0.63547 0.81918 0.0
C2662 C 0.36962 0.61881 0.90695 0.0
C2663 C 0.38962 0.62451 0.87934 0.0
C2664 C 0.40328 0.62484 0.88329 0.0
C2665 C 0.36408 0.62526 0.8714 0.0
C2666 C 0.37144 0.63124 0.83911 0.0
C2667 C 0.3841 0.63074 0.84355 0.0
C2668 C 0.36629 0.6391 0.80309 0.0
C2669 C 0.35043 0.62592 0.8694 0.0
C2670 C 0.35876 0.63447 0.76882 0.0
C2671 C 0.35386 0.64225 0.7359 0.0
C2672 C 0.35641 0.65476 0.73691 0.0
C2673 C 0.36429 0.6592 0.77044 0.0
C2674 C 0.36916 0.65148 0.80298 0.0
H2675 H 0.34615 0.6228 0.90132 0.0
H2676 H 0.3474 0.63534 0.86236 0.0
H2677 H 0.34712 0.62005 0.8416 0.0
H2678 H 0.35663 0.62489 0.76769 0.0
H2679 H 0.34781 0.63853 0.71063 0.0
H2680 H 0.13541 0.66481 0.75833 0.0
H2681 H 0.12739 0.65197 0.69839 0.0
H2682 H 0.15505 0.62527 0.72583 0.0
H2683 H 0.16297 0.63807 0.78711 0.0
H2684 H 0.14056 0.64613 0.62321 0.0
H2685 H 0.12486 0.6042 0.71019 0.0
H2686 H 0.12788 0.61811 0.74031 0.0
H2687 H 0.14022 0.6088 0.72124 0.0
C2688 C 0.13961 0.65606 0.75241 0.0
C2689 C 0.14982 0.65244 0.77743 0.0
C2690 C 0.13505 0.64875 0.71796 0.0
C2691 C 0.14063 0.63767 0.70738 0.0
C2692 C 0.15048 0.63371 0.73372 0.0
H2693 H 0.11813 0.5938 0.4696 0.0
H2694 H 0.13167 0.60231 0.52784 0.0
C2695 C 0.15499 0.64101 0.76879 0.0
C2696 C 0.13655 0.63094 0.66656 0.0
H2697 H 0.12239 0.60504 0.63122 0.0
C2698 C 0.13672 0.63708 0.62495 0.0
C2699 C 0.13164 0.61909 0.66866 0.0
C2700 C 0.13102 0.61215 0.71247 0.0
C2701 C 0.13163 0.63194 0.58601 0.0
C2702 C 0.12624 0.62036 0.58857 0.0
C2703 C 0.12661 0.61391 0.62944 0.0
C2704 C 0.11869 0.61562 0.55116 0.0
C2705 C 0.1316 0.6391 0.54263 0.0
C2706 C 0.10706 0.62045 0.54469 0.0
C2707 C 0.09936 0.61561 0.51197 0.0
C2708 C 0.10316 0.60589 0.48464 0.0
C2709 C 0.11502 0.60137 0.48983 0.0
C2710 C 0.1227 0.60614 0.52325 0.0
H2711 H 0.13812 0.64678 0.54366 0.0
H2712 H 0.13387 0.63315 0.5136 0.0
H2713 H 0.12238 0.64284 0.53681 0.0
H2714 H 0.10381 0.62777 0.5659 0.0
H2715 H 0.0903 0.61931 0.50877 0.0
H2716 H 0.16121 0.37004 0.21491 0.0
H2717 H 0.15409 0.3841 0.2739 0.0
H2718 H 0.13381 0.35508 0.33575 0.0
H2719 H 0.14076 0.34114 0.27783 0.0
H2720 H 0.13016 0.39061 0.30252 0.0
H2721 H 0.15522 0.36763 0.43958 0.0
H2722 H 0.15873 0.36532 0.38063 0.0
H2723 H 0.14644 0.35715 0.40675 0.0
C2724 C 0.15512 0.36672 0.2408 0.0
C2725 C 0.15169 0.35441 0.24188 0.0
C2726 C 0.15113 0.37473 0.27463 0.0
C2727 C 0.14373 0.37053 0.30999 0.0
C2728 C 0.13982 0.35844 0.30964 0.0
H2729 H 0.08964 0.39523 0.47989 0.0
H2730 H 0.10356 0.38806 0.42248 0.0
C2731 C 0.14377 0.35049 0.27618 0.0
C2732 C 0.13974 0.3786 0.34732 0.0
H2733 H 0.1377 0.37942 0.4624 0.0
C2734 C 0.13203 0.38836 0.33746 0.0
C2735 C 0.14237 0.37583 0.39299 0.0
C2736 C 0.15125 0.36599 0.40565 0.0
C2737 C 0.12608 0.39474 0.37206 0.0
C2738 C 0.12776 0.39113 0.41755 0.0
C2739 C 0.13627 0.38207 0.42755 0.0
C2740 C 0.11961 0.39549 0.45404 0.0
C2741 C 0.11767 0.40499 0.35949 0.0
C2742 C 0.12405 0.4016 0.49229 0.0
C2743 C 0.11603 0.40573 0.52587 0.0
C2744 C 0.10346 0.40372 0.52172 0.0
C2745 C 0.09921 0.39715 0.48414 0.0
C2746 C 0.10716 0.39309 0.45092 0.0
H2747 H 0.12041 0.40923 0.32702 0.0
H2748 H 0.10834 0.40138 0.35528 0.0
H2749 H 0.11749 0.41208 0.3861 0.0
H2750 H 0.13368 0.40337 0.49569 0.0
H2751 H 0.11962 0.41074 0.55434 0.0
loop_
_geom_bond_atom_site_label_1
_geom_bond_atom_site_label_2
_geom_bond_distance
_geom_bond_site_symmetry_2
_ccdc_geom_bond_type
Co0 O1 2.216 . S
Co0 O2 2.091 . S
Co0 O4 2.004 . S
Co0 O10 2.021 . S
Co0 O12 2.137 . S
Co0 O13 2.244 . S
O1 Co0 2.216 . S
O1 C8 1.247 . S
O2 Co0 2.091 . S
O2 C8 1.261 . S
C3 O12 1.247 . S
C3 O13 1.272 . S
O4 Co0 2.004 . S
O4 C9 1.259 . S
Co5 O6 2.061 . S
Co5 O11 2.052 . S
Co5 O13 2.135 . S
O6 Co5 2.061 . S
O6 C9 1.235 . S
C7 O10 1.238 . S
C7 O11 1.241 . S
C8 O1 1.247 . S
C8 O2 1.261 . S
C9 O4 1.259 . S
C9 O6 1.235 . S
O10 Co0 2.021 . S
O10 C7 1.238 . S
O11 Co5 2.052 . S
O11 C7 1.241 . S
O12 Co0 2.137 . S
O12 C3 1.247 . S
O13 Co0 2.244 . S
O13 C3 1.272 . S
O13 Co5 2.135 . S
Co14 O15 2.216 . S
Co14 O16 2.091 . S
Co14 O18 2.004 . S
Co14 O24 2.021 . S
Co14 O26 2.137 . S
Co14 O27 2.244 . S
O15 Co14 2.216 . S
O15 C22 1.247 . S
O16 Co14 2.091 . S
O16 C22 1.261 . S
C17 O26 1.247 . S
C17 O27 1.272 . S
O18 Co14 2.004 . S
O18 C23 1.259 . S
Co19 O20 2.061 . S
Co19 O25 2.052 . S
Co19 O27 2.135 . S
O20 Co19 2.061 . S
O20 C23 1.235 . S
C21 O24 1.238 . S
C21 O25 1.241 . S
C22 O15 1.247 . S
C22 O16 1.261 . S
C23 O18 1.259 . S
C23 O20 1.235 . S
O24 Co14 2.021 . S
O24 C21 1.238 . S
O25 Co19 2.052 . S
O25 C21 1.241 . S
O26 Co14 2.137 . S
O26 C17 1.247 . S
O27 Co14 2.244 . S
O27 C17 1.272 . S
O27 Co19 2.135 . S
Co28 O29 2.216 . S
Co28 O30 2.091 . S
Co28 O32 2.004 . S
Co28 O38 2.021 . S
Co28 O40 2.137 . S
Co28 O41 2.244 . S
O29 Co28 2.216 . S
O29 C36 1.247 . S
O30 Co28 2.091 . S
O30 C36 1.261 . S
C31 O40 1.247 . S
C31 O41 1.272 . S
O32 Co28 2.004 . S
O32 C37 1.259 . S
Co33 O34 2.061 . S
Co33 O39 2.052 . S
Co33 O41 2.135 . S
O34 Co33 2.061 . S
O34 C37 1.235 . S
C35 O38 1.238 . S
C35 O39 1.241 . S
C36 O29 1.247 . S
C36 O30 1.261 . S
C37 O32 1.259 . S
C37 O34 1.235 . S
O38 Co28 2.021 . S
O38 C35 1.238 . S
O39 Co33 2.052 . S
O39 C35 1.241 . S
O40 Co28 2.137 . S
O40 C31 1.247 . S
O41 Co28 2.244 . S
O41 C31 1.272 . S
O41 Co33 2.135 . S
Co42 O43 2.216 . S
Co42 O44 2.091 . S
Co42 O46 2.004 . S
Co42 O52 2.021 . S
Co42 O54 2.137 . S
Co42 O55 2.244 . S
O43 Co42 2.216 . S
O43 C50 1.247 . S
O44 Co42 2.091 . S
O44 C50 1.261 . S
C45 O54 1.247 . S
C45 O55 1.272 . S
O46 Co42 2.004 . S
O46 C51 1.259 . S
Co47 O48 2.061 . S
Co47 O53 2.052 . S
Co47 O55 2.135 . S
O48 Co47 2.061 . S
O48 C51 1.235 . S
C49 O52 1.238 . S
C49 O53 1.241 . S
C50 O43 1.247 . S
C50 O44 1.261 . S
C51 O46 1.259 . S
C51 O48 1.235 . S
O52 Co42 2.021 . S
O52 C49 1.238 . S
O53 Co47 2.052 . S
O53 C49 1.241 . S
O54 Co42 2.137 . S
O54 C45 1.247 . S
O55 Co42 2.244 . S
O55 C45 1.272 . S
O55 Co47 2.135 . S
Co56 O57 2.216 . S
Co56 O58 2.091 . S
Co56 O60 2.004 . S
Co56 O66 2.021 . S
Co56 O68 2.137 . S
Co56 O69 2.244 . S
O57 Co56 2.216 . S
O57 C64 1.247 . S
O58 Co56 2.091 . S
O58 C64 1.261 . S
C59 O68 1.247 . S
C59 O69 1.272 . S
O60 Co56 2.004 . S
O60 C65 1.259 . S
Co61 O62 2.061 . S
Co61 O67 2.052 . S
Co61 O69 2.135 . S
O62 Co61 2.061 . S
O62 C65 1.235 . S
C63 O66 1.238 . S
C63 O67 1.241 . S
C64 O57 1.247 . S
C64 O58 1.261 . S
C65 O60 1.259 . S
C65 O62 1.235 . S
O66 Co56 2.021 . S
O66 C63 1.238 . S
O67 Co61 2.052 . S
O67 C63 1.241 . S
O68 Co56 2.137 . S
O68 C59 1.247 . S
O69 Co56 2.244 . S
O69 C59 1.272 . S
O69 Co61 2.135 . S
Co70 O71 2.216 . S
Co70 O72 2.091 . S
Co70 O74 2.004 . S
Co70 O80 2.021 . S
Co70 O82 2.137 . S
Co70 O83 2.244 . S
O71 Co70 2.216 . S
O71 C78 1.247 . S
O72 Co70 2.091 . S
O72 C78 1.261 . S
C73 O82 1.247 . S
C73 O83 1.272 . S
O74 Co70 2.004 . S
O74 C79 1.259 . S
Co75 O76 2.061 . S
Co75 O81 2.052 . S
Co75 O83 2.135 . S
O76 Co75 2.061 . S
O76 C79 1.235 . S
C77 O80 1.238 . S
C77 O81 1.241 . S
C78 O71 1.247 . S
C78 O72 1.261 . S
C79 O74 1.259 . S
C79 O76 1.235 . S
O80 Co70 2.021 . S
O80 C77 1.238 . S
O81 Co75 2.052 . S
O81 C77 1.241 . S
O82 Co70 2.137 . S
O82 C73 1.247 . S
O83 Co70 2.244 . S
O83 C73 1.272 . S
O83 Co75 2.135 . S
Co84 O85 2.216 . S
Co84 O86 2.091 . S
Co84 O88 2.004 . S
Co84 O94 2.021 . S
Co84 O96 2.137 . S
Co84 O97 2.244 . S
O85 Co84 2.216 . S
O85 C92 1.247 . S
O86 Co84 2.091 . S
O86 C92 1.261 . S
C87 O96 1.247 . S
C87 O97 1.272 . S
O88 Co84 2.004 . S
O88 C93 1.259 . S
Co89 O90 2.061 . S
Co89 O95 2.052 . S
Co89 O97 2.135 . S
O90 Co89 2.061 . S
O90 C93 1.235 . S
C91 O94 1.238 . S
C91 O95 1.241 . S
C92 O85 1.247 . S
C92 O86 1.261 . S
C93 O88 1.259 . S
C93 O90 1.235 . S
O94 Co84 2.021 . S
O94 C91 1.238 . S
O95 Co89 2.052 . S
O95 C91 1.241 . S
O96 Co84 2.137 . S
O96 C87 1.247 . S
O97 Co84 2.244 . S
O97 C87 1.272 . S
O97 Co89 2.135 . S
Co98 O99 2.216 . S
Co98 O100 2.091 . S
Co98 O102 2.004 . S
Co98 O108 2.021 . S
Co98 O110 2.137 . S
Co98 O111 2.244 . S
O99 Co98 2.216 . S
O99 C106 1.247 . S
O100 Co98 2.091 . S
O100 C106 1.261 . S
C101 O110 1.247 . S
C101 O111 1.272 . S
O102 Co98 2.004 . S
O102 C107 1.259 . S
Co103 O104 2.061 . S
Co103 O109 2.052 . S
Co103 O111 2.135 . S
O104 Co103 2.061 . S
O104 C107 1.235 . S
C105 O108 1.238 . S
C105 O109 1.241 . S
C106 O99 1.247 . S
C106 O100 1.261 . S
C107 O102 1.259 . S
C107 O104 1.235 . S
O108 Co98 2.021 . S
O108 C105 1.238 . S
O109 Co103 2.052 . S
O109 C105 1.241 . S
O110 Co98 2.137 . S
O110 C101 1.247 . S
O111 Co98 2.244 . S
O111 C101 1.272 . S
O111 Co103 2.135 . S
Co112 O113 2.216 . S
Co112 O114 2.091 . S
Co112 O116 2.004 . S
Co112 O122 2.021 . S
Co112 O124 2.137 . S
Co112 O125 2.244 . S
O113 Co112 2.216 . S
O113 C120 1.247 . S
O114 Co112 2.091 . S
O114 C120 1.261 . S
C115 O124 1.247 . S
C115 O125 1.272 . S
O116 Co112 2.004 . S
O116 C121 1.259 . S
Co117 O118 2.061 . S
Co117 O123 2.052 . S
Co117 O125 2.135 . S
O118 Co117 2.061 . S
O118 C121 1.235 . S
C119 O122 1.238 . S
C119 O123 1.241 . S
C120 O113 1.247 . S
C120 O114 1.261 . S
C121 O116 1.259 . S
C121 O118 1.235 . S
O122 Co112 2.021 . S
O122 C119 1.238 . S
O123 Co117 2.052 . S
O123 C119 1.241 . S
O124 Co112 2.137 . S
O124 C115 1.247 . S
O125 Co112 2.244 . S
O125 C115 1.272 . S
O125 Co117 2.135 . S
Co126 O127 2.216 . S
Co126 O128 2.091 . S
Co126 O130 2.004 . S
Co126 O136 2.021 . S
Co126 O138 2.137 . S
Co126 O139 2.244 . S
O127 Co126 2.216 . S
O127 C134 1.247 . S
O128 Co126 2.091 . S
O128 C134 1.261 . S
C129 O138 1.247 . S
C129 O139 1.272 . S
O130 Co126 2.004 . S
O130 C135 1.259 . S
Co131 O132 2.061 . S
Co131 O137 2.052 . S
Co131 O139 2.135 . S
O132 Co131 2.061 . S
O132 C135 1.235 . S
C133 O136 1.238 . S
C133 O137 1.241 . S
C134 O127 1.247 . S
C134 O128 1.261 . S
C135 O130 1.259 . S
C135 O132 1.235 . S
O136 Co126 2.021 . S
O136 C133 1.238 . S
O137 Co131 2.052 . S
O137 C133 1.241 . S
O138 Co126 2.137 . S
O138 C129 1.247 . S
O139 Co126 2.244 . S
O139 C129 1.272 . S
O139 Co131 2.135 . S
Co140 O141 2.216 . S
Co140 O142 2.091 . S
Co140 O144 2.004 . S
Co140 O150 2.021 . S
Co140 O152 2.137 . S
Co140 O153 2.244 . S
O141 Co140 2.216 . S
O141 C148 1.247 . S
O142 Co140 2.091 . S
O142 C148 1.261 . S
C143 O152 1.247 . S
C143 O153 1.272 . S
O144 Co140 2.004 . S
O144 C149 1.259 . S
Co145 O146 2.061 . S
Co145 O151 2.052 . S
Co145 O153 2.135 . S
O146 Co145 2.061 . S
O146 C149 1.235 . S
C147 O150 1.238 . S
C147 O151 1.241 . S
C148 O141 1.247 . S
C148 O142 1.261 . S
C149 O144 1.259 . S
C149 O146 1.235 . S
O150 Co140 2.021 . S
O150 C147 1.238 . S
O151 Co145 2.052 . S
O151 C147 1.241 . S
O152 Co140 2.137 . S
O152 C143 1.247 . S
O153 Co140 2.244 . S
O153 C143 1.272 . S
O153 Co145 2.135 . S
Co154 O155 2.216 . S
Co154 O156 2.091 . S
Co154 O158 2.004 . S
Co154 O164 2.021 . S
Co154 O166 2.137 . S
Co154 O167 2.244 . S
O155 Co154 2.216 . S
O155 C162 1.247 . S
O156 Co154 2.091 . S
O156 C162 1.261 . S
C157 O166 1.247 . S
C157 O167 1.272 . S
O158 Co154 2.004 . S
O158 C163 1.259 . S
Co159 O160 2.061 . S
Co159 O165 2.052 . S
Co159 O167 2.135 . S
O160 Co159 2.061 . S
O160 C163 1.235 . S
C161 O164 1.238 . S
C161 O165 1.241 . S
C162 O155 1.247 . S
C162 O156 1.261 . S
C163 O158 1.259 . S
C163 O160 1.235 . S
O164 Co154 2.021 . S
O164 C161 1.238 . S
O165 Co159 2.052 . S
O165 C161 1.241 . S
O166 Co154 2.137 . S
O166 C157 1.247 . S
O167 Co154 2.244 . S
O167 C157 1.272 . S
O167 Co159 2.135 . S
Co168 O169 2.216 . S
Co168 O170 2.091 . S
Co168 O172 2.004 . S
Co168 O178 2.021 . S
Co168 O180 2.137 . S
Co168 O181 2.244 . S
O169 Co168 2.216 . S
O169 C176 1.247 . S
O170 Co168 2.091 . S
O170 C176 1.261 . S
C171 O180 1.247 . S
C171 O181 1.272 . S
O172 Co168 2.004 . S
O172 C177 1.259 . S
Co173 O174 2.061 . S
Co173 O179 2.052 . S
Co173 O181 2.135 . S
O174 Co173 2.061 . S
O174 C177 1.235 . S
C175 O178 1.238 . S
C175 O179 1.241 . S
C176 O169 1.247 . S
C176 O170 1.261 . S
C177 O172 1.259 . S
C177 O174 1.235 . S
O178 Co168 2.021 . S
O178 C175 1.238 . S
O179 Co173 2.052 . S
O179 C175 1.241 . S
O180 Co168 2.137 . S
O180 C171 1.247 . S
O181 Co168 2.244 . S
O181 C171 1.272 . S
O181 Co173 2.135 . S
Co182 O183 2.216 . S
Co182 O184 2.091 . S
Co182 O186 2.004 . S
Co182 O192 2.021 . S
Co182 O194 2.137 . S
Co182 O195 2.244 . S
O183 Co182 2.216 . S
O183 C190 1.247 . S
O184 Co182 2.091 . S
O184 C190 1.261 . S
C185 O194 1.247 . S
C185 O195 1.272 . S
O186 Co182 2.004 . S
O186 C191 1.259 . S
Co187 O188 2.061 . S
Co187 O193 2.052 . S
Co187 O195 2.135 . S
O188 Co187 2.061 . S
O188 C191 1.235 . S
C189 O192 1.238 . S
C189 O193 1.241 . S
C190 O183 1.247 . S
C190 O184 1.261 . S
C191 O186 1.259 . S
C191 O188 1.235 . S
O192 Co182 2.021 . S
O192 C189 1.238 . S
O193 Co187 2.052 . S
O193 C189 1.241 . S
O194 Co182 2.137 . S
O194 C185 1.247 . S
O195 Co182 2.244 . S
O195 C185 1.272 . S
O195 Co187 2.135 . S
Co196 O197 2.216 . S
Co196 O198 2.091 . S
Co196 O200 2.004 . S
Co196 O206 2.021 . S
Co196 O208 2.137 . S
Co196 O209 2.244 . S
O197 Co196 2.216 . S
O197 C204 1.247 . S
O198 Co196 2.091 . S
O198 C204 1.261 . S
C199 O208 1.247 . S
C199 O209 1.272 . S
O200 Co196 2.004 . S
O200 C205 1.259 . S
Co201 O202 2.061 . S
Co201 O207 2.052 . S
Co201 O209 2.135 . S
O202 Co201 2.061 . S
O202 C205 1.235 . S
C203 O206 1.238 . S
C203 O207 1.241 . S
C204 O197 1.247 . S
C204 O198 1.261 . S
C205 O200 1.259 . S
C205 O202 1.235 . S
O206 Co196 2.021 . S
O206 C203 1.238 . S
O207 Co201 2.052 . S
O207 C203 1.241 . S
O208 Co196 2.137 . S
O208 C199 1.247 . S
O209 Co196 2.244 . S
O209 C199 1.272 . S
O209 Co201 2.135 . S
Co210 O211 2.216 . S
Co210 O212 2.091 . S
Co210 O214 2.004 . S
Co210 O220 2.021 . S
Co210 O222 2.137 . S
Co210 O223 2.244 . S
O211 Co210 2.216 . S
O211 C218 1.247 . S
O212 Co210 2.091 . S
O212 C218 1.261 . S
C213 O222 1.247 . S
C213 O223 1.272 . S
O214 Co210 2.004 . S
O214 C219 1.259 . S
Co215 O216 2.061 . S
Co215 O221 2.052 . S
Co215 O223 2.135 . S
O216 Co215 2.061 . S
O216 C219 1.235 . S
C217 O220 1.238 . S
C217 O221 1.241 . S
C218 O211 1.247 . S
C218 O212 1.261 . S
C219 O214 1.259 . S
C219 O216 1.235 . S
O220 Co210 2.021 . S
O220 C217 1.238 . S
O221 Co215 2.052 . S
O221 C217 1.241 . S
O222 Co210 2.137 . S
O222 C213 1.247 . S
O223 Co210 2.244 . S
O223 C213 1.272 . S
O223 Co215 2.135 . S
Co224 O225 2.216 . S
Co224 O226 2.091 . S
Co224 O228 2.004 . S
Co224 O234 2.021 . S
Co224 O236 2.137 . S
Co224 O237 2.244 . S
O225 Co224 2.216 . S
O225 C232 1.247 . S
O226 Co224 2.091 . S
O226 C232 1.261 . S
C227 O236 1.247 . S
C227 O237 1.272 . S
O228 Co224 2.004 . S
O228 C233 1.259 . S
Co229 O230 2.061 . S
Co229 O235 2.052 . S
Co229 O237 2.135 . S
O230 Co229 2.061 . S
O230 C233 1.235 . S
C231 O234 1.238 . S
C231 O235 1.241 . S
C232 O225 1.247 . S
C232 O226 1.261 . S
C233 O228 1.259 . S
C233 O230 1.235 . S
O234 Co224 2.021 . S
O234 C231 1.238 . S
O235 Co229 2.052 . S
O235 C231 1.241 . S
O236 Co224 2.137 . S
O236 C227 1.247 . S
O237 Co224 2.244 . S
O237 C227 1.272 . S
O237 Co229 2.135 . S
Co238 O239 2.216 . S
Co238 O240 2.091 . S
Co238 O242 2.004 . S
Co238 O248 2.021 . S
Co238 O250 2.137 . S
Co238 O251 2.244 . S
O239 Co238 2.216 . S
O239 C246 1.247 . S
O240 Co238 2.091 . S
O240 C246 1.261 . S
C241 O250 1.247 . S
C241 O251 1.272 . S
O242 Co238 2.004 . S
O242 C247 1.259 . S
Co243 O244 2.061 . S
Co243 O249 2.052 . S
Co243 O251 2.135 . S
O244 Co243 2.061 . S
O244 C247 1.235 . S
C245 O248 1.238 . S
C245 O249 1.241 . S
C246 O239 1.247 . S
C246 O240 1.261 . S
C247 O242 1.259 . S
C247 O244 1.235 . S
O248 Co238 2.021 . S
O248 C245 1.238 . S
O249 Co243 2.052 . S
O249 C245 1.241 . S
O250 Co238 2.137 . S
O250 C241 1.247 . S
O251 Co238 2.244 . S
O251 C241 1.272 . S
O251 Co243 2.135 . S
Co252 O253 2.216 . S
Co252 O254 2.091 . S
Co252 O256 2.004 . S
Co252 O262 2.021 . S
Co252 O264 2.137 . S
Co252 O265 2.244 . S
O253 Co252 2.216 . S
O253 C260 1.247 . S
O254 Co252 2.091 . S
O254 C260 1.261 . S
C255 O264 1.247 . S
C255 O265 1.272 . S
O256 Co252 2.004 . S
O256 C261 1.259 . S
Co257 O258 2.061 . S
Co257 O263 2.052 . S
Co257 O265 2.135 . S
O258 Co257 2.061 . S
O258 C261 1.235 . S
C259 O262 1.238 . S
C259 O263 1.241 . S
C260 O253 1.247 . S
C260 O254 1.261 . S
C261 O256 1.259 . S
C261 O258 1.235 . S
O262 Co252 2.021 . S
O262 C259 1.238 . S
O263 Co257 2.052 . S
O263 C259 1.241 . S
O264 Co252 2.137 . S
O264 C255 1.247 . S
O265 Co252 2.244 . S
O265 C255 1.272 . S
O265 Co257 2.135 . S
Co266 O267 2.216 . S
Co266 O268 2.091 . S
Co266 O270 2.004 . S
Co266 O276 2.021 . S
Co266 O278 2.137 . S
Co266 O279 2.244 . S
O267 Co266 2.216 . S
O267 C274 1.247 . S
O268 Co266 2.091 . S
O268 C274 1.261 . S
C269 O278 1.247 . S
C269 O279 1.272 . S
O270 Co266 2.004 . S
O270 C275 1.259 . S
Co271 O272 2.061 . S
Co271 O277 2.052 . S
Co271 O279 2.135 . S
O272 Co271 2.061 . S
O272 C275 1.235 . S
C273 O276 1.238 . S
C273 O277 1.241 . S
C274 O267 1.247 . S
C274 O268 1.261 . S
C275 O270 1.259 . S
C275 O272 1.235 . S
O276 Co266 2.021 . S
O276 C273 1.238 . S
O277 Co271 2.052 . S
O277 C273 1.241 . S
O278 Co266 2.137 . S
O278 C269 1.247 . S
O279 Co266 2.244 . S
O279 C269 1.272 . S
O279 Co271 2.135 . S
Co280 O281 2.216 . S
Co280 O282 2.091 . S
Co280 O284 2.004 . S
Co280 O290 2.021 . S
Co280 O292 2.137 . S
Co280 O293 2.244 . S
O281 Co280 2.216 . S
O281 C288 1.247 . S
O282 Co280 2.091 . S
O282 C288 1.261 . S
C283 O292 1.247 . S
C283 O293 1.272 . S
O284 Co280 2.004 . S
O284 C289 1.259 . S
Co285 O286 2.061 . S
Co285 O291 2.052 . S
Co285 O293 2.135 . S
O286 Co285 2.061 . S
O286 C289 1.235 . S
C287 O290 1.238 . S
C287 O291 1.241 . S
C288 O281 1.247 . S
C288 O282 1.261 . S
C289 O284 1.259 . S
C289 O286 1.235 . S
O290 Co280 2.021 . S
O290 C287 1.238 . S
O291 Co285 2.052 . S
O291 C287 1.241 . S
O292 Co280 2.137 . S
O292 C283 1.247 . S
O293 Co280 2.244 . S
O293 C283 1.272 . S
O293 Co285 2.135 . S
Co294 O295 2.216 . S
Co294 O296 2.091 . S
Co294 O298 2.004 . S
Co294 O304 2.021 . S
Co294 O306 2.137 . S
Co294 O307 2.244 . S
O295 Co294 2.216 . S
O295 C302 1.247 . S
O296 Co294 2.091 . S
O296 C302 1.261 . S
C297 O306 1.247 . S
C297 O307 1.272 . S
O298 Co294 2.004 . S
O298 C303 1.259 . S
Co299 O300 2.061 . S
Co299 O305 2.052 . S
Co299 O307 2.135 . S
O300 Co299 2.061 . S
O300 C303 1.235 . S
C301 O304 1.238 . S
C301 O305 1.241 . S
C302 O295 1.247 . S
C302 O296 1.261 . S
C303 O298 1.259 . S
C303 O300 1.235 . S
O304 Co294 2.021 . S
O304 C301 1.238 . S
O305 Co299 2.052 . S
O305 C301 1.241 . S
O306 Co294 2.137 . S
O306 C297 1.247 . S
O307 Co294 2.244 . S
O307 C297 1.272 . S
O307 Co299 2.135 . S
Co308 O309 2.216 . S
Co308 O310 2.091 . S
Co308 O312 2.004 . S
Co308 O318 2.021 . S
Co308 O320 2.137 . S
Co308 O321 2.244 . S
O309 Co308 2.216 . S
O309 C316 1.247 . S
O310 Co308 2.091 . S
O310 C316 1.261 . S
C311 O320 1.247 . S
C311 O321 1.272 . S
O312 Co308 2.004 . S
O312 C317 1.259 . S
Co313 O314 2.061 . S
Co313 O319 2.052 . S
Co313 O321 2.135 . S
O314 Co313 2.061 . S
O314 C317 1.235 . S
C315 O318 1.238 . S
C315 O319 1.241 . S
C316 O309 1.247 . S
C316 O310 1.261 . S
C317 O312 1.259 . S
C317 O314 1.235 . S
O318 Co308 2.021 . S
O318 C315 1.238 . S
O319 Co313 2.052 . S
O319 C315 1.241 . S
O320 Co308 2.137 . S
O320 C311 1.247 . S
O321 Co308 2.244 . S
O321 C311 1.272 . S
O321 Co313 2.135 . S
Co322 O323 2.216 . S
Co322 O324 2.091 . S
Co322 O326 2.004 . S
Co322 O332 2.021 . S
Co322 O334 2.137 . S
Co322 O335 2.244 . S
O323 Co322 2.216 . S
O323 C330 1.247 . S
O324 Co322 2.091 . S
O324 C330 1.261 . S
C325 O334 1.247 . S
C325 O335 1.272 . S
O326 Co322 2.004 . S
O326 C331 1.259 . S
Co327 O328 2.061 . S
Co327 O333 2.052 . S
Co327 O335 2.135 . S
O328 Co327 2.061 . S
O328 C331 1.235 . S
C329 O332 1.238 . S
C329 O333 1.241 . S
C330 O323 1.247 . S
C330 O324 1.261 . S
C331 O326 1.259 . S
C331 O328 1.235 . S
O332 Co322 2.021 . S
O332 C329 1.238 . S
O333 Co327 2.052 . S
O333 C329 1.241 . S
O334 Co322 2.137 . S
O334 C325 1.247 . S
O335 Co322 2.244 . S
O335 C325 1.272 . S
O335 Co327 2.135 . S
Co336 O337 2.216 . S
Co336 O338 2.091 . S
Co336 O340 2.004 . S
Co336 O346 2.021 . S
Co336 O348 2.137 . S
Co336 O349 2.244 . S
O337 Co336 2.216 . S
O337 C344 1.247 . S
O338 Co336 2.091 . S
O338 C344 1.261 . S
C339 O348 1.247 . S
C339 O349 1.272 . S
O340 Co336 2.004 . S
O340 C345 1.259 . S
Co341 O342 2.061 . S
Co341 O347 2.052 . S
Co341 O349 2.135 . S
O342 Co341 2.061 . S
O342 C345 1.235 . S
C343 O346 1.238 . S
C343 O347 1.241 . S
C344 O337 1.247 . S
C344 O338 1.261 . S
C345 O340 1.259 . S
C345 O342 1.235 . S
O346 Co336 2.021 . S
O346 C343 1.238 . S
O347 Co341 2.052 . S
O347 C343 1.241 . S
O348 Co336 2.137 . S
O348 C339 1.247 . S
O349 Co336 2.244 . S
O349 C339 1.272 . S
O349 Co341 2.135 . S
Co350 O351 2.216 . S
Co350 O352 2.091 . S
Co350 O354 2.004 . S
Co350 O360 2.021 . S
Co350 O362 2.137 . S
Co350 O363 2.244 . S
O351 Co350 2.216 . S
O351 C358 1.247 . S
O352 Co350 2.091 . S
O352 C358 1.261 . S
C353 O362 1.247 . S
C353 O363 1.272 . S
O354 Co350 2.004 . S
O354 C359 1.259 . S
Co355 O356 2.061 . S
Co355 O361 2.052 . S
Co355 O363 2.135 . S
O356 Co355 2.061 . S
O356 C359 1.235 . S
C357 O360 1.238 . S
C357 O361 1.241 . S
C358 O351 1.247 . S
C358 O352 1.261 . S
C359 O354 1.259 . S
C359 O356 1.235 . S
O360 Co350 2.021 . S
O360 C357 1.238 . S
O361 Co355 2.052 . S
O361 C357 1.241 . S
O362 Co350 2.137 . S
O362 C353 1.247 . S
O363 Co350 2.244 . S
O363 C353 1.272 . S
O363 Co355 2.135 . S
Co364 O365 2.216 . S
Co364 O366 2.091 . S
Co364 O368 2.004 . S
Co364 O374 2.021 . S
Co364 O376 2.137 . S
Co364 O377 2.244 . S
O365 Co364 2.216 . S
O365 C372 1.247 . S
O366 Co364 2.091 . S
O366 C372 1.261 . S
C367 O376 1.247 . S
C367 O377 1.272 . S
O368 Co364 2.004 . S
O368 C373 1.259 . S
Co369 O370 2.061 . S
Co369 O375 2.052 . S
Co369 O377 2.135 . S
O370 Co369 2.061 . S
O370 C373 1.235 . S
C371 O374 1.238 . S
C371 O375 1.241 . S
C372 O365 1.247 . S
C372 O366 1.261 . S
C373 O368 1.259 . S
C373 O370 1.235 . S
O374 Co364 2.021 . S
O374 C371 1.238 . S
O375 Co369 2.052 . S
O375 C371 1.241 . S
O376 Co364 2.137 . S
O376 C367 1.247 . S
O377 Co364 2.244 . S
O377 C367 1.272 . S
O377 Co369 2.135 . S
Co378 O379 2.216 . S
Co378 O380 2.091 . S
Co378 O382 2.004 . S
Co378 O388 2.021 . S
Co378 O390 2.137 . S
Co378 O391 2.244 . S
O379 Co378 2.216 . S
O379 C386 1.247 . S
O380 Co378 2.091 . S
O380 C386 1.261 . S
C381 O390 1.247 . S
C381 O391 1.272 . S
O382 Co378 2.004 . S
O382 C387 1.259 . S
Co383 O384 2.061 . S
Co383 O389 2.052 . S
Co383 O391 2.135 . S
O384 Co383 2.061 . S
O384 C387 1.235 . S
C385 O388 1.238 . S
C385 O389 1.241 . S
C386 O379 1.247 . S
C386 O380 1.261 . S
C387 O382 1.259 . S
C387 O384 1.235 . S
O388 Co378 2.021 . S
O388 C385 1.238 . S
O389 Co383 2.052 . S
O389 C385 1.241 . S
O390 Co378 2.137 . S
O390 C381 1.247 . S
O391 Co378 2.244 . S
O391 C381 1.272 . S
O391 Co383 2.135 . S
Co392 O393 2.216 . S
Co392 O394 2.091 . S
Co392 O396 2.004 . S
Co392 O402 2.021 . S
Co392 O404 2.137 . S
Co392 O405 2.244 . S
O393 Co392 2.216 . S
O393 C400 1.247 . S
O394 Co392 2.091 . S
O394 C400 1.261 . S
C395 O404 1.247 . S
C395 O405 1.272 . S
O396 Co392 2.004 . S
O396 C401 1.259 . S
Co397 O398 2.061 . S
Co397 O403 2.052 . S
Co397 O405 2.135 . S
O398 Co397 2.061 . S
O398 C401 1.235 . S
C399 O402 1.238 . S
C399 O403 1.241 . S
C400 O393 1.247 . S
C400 O394 1.261 . S
C401 O396 1.259 . S
C401 O398 1.235 . S
O402 Co392 2.021 . S
O402 C399 1.238 . S
O403 Co397 2.052 . S
O403 C399 1.241 . S
O404 Co392 2.137 . S
O404 C395 1.247 . S
O405 Co392 2.244 . S
O405 C395 1.272 . S
O405 Co397 2.135 . S
Co406 O407 2.216 . S
Co406 O408 2.091 . S
Co406 O410 2.004 . S
Co406 O416 2.021 . S
Co406 O418 2.137 . S
Co406 O419 2.244 . S
O407 Co406 2.216 . S
O407 C414 1.247 . S
O408 Co406 2.091 . S
O408 C414 1.261 . S
C409 O418 1.247 . S
C409 O419 1.272 . S
O410 Co406 2.004 . S
O410 C415 1.259 . S
Co411 O412 2.061 . S
Co411 O417 2.052 . S
Co411 O419 2.135 . S
O412 Co411 2.061 . S
O412 C415 1.235 . S
C413 O416 1.238 . S
C413 O417 1.241 . S
C414 O407 1.247 . S
C414 O408 1.261 . S
C415 O410 1.259 . S
C415 O412 1.235 . S
O416 Co406 2.021 . S
O416 C413 1.238 . S
O417 Co411 2.052 . S
O417 C413 1.241 . S
O418 Co406 2.137 . S
O418 C409 1.247 . S
O419 Co406 2.244 . S
O419 C409 1.272 . S
O419 Co411 2.135 . S
Co420 O421 2.216 . S
Co420 O422 2.091 . S
Co420 O424 2.004 . S
Co420 O430 2.021 . S
Co420 O432 2.137 . S
Co420 O433 2.244 . S
O421 Co420 2.216 . S
O421 C428 1.247 . S
O422 Co420 2.091 . S
O422 C428 1.261 . S
C423 O432 1.247 . S
C423 O433 1.272 . S
O424 Co420 2.004 . S
O424 C429 1.259 . S
Co425 O426 2.061 . S
Co425 O431 2.052 . S
Co425 O433 2.135 . S
O426 Co425 2.061 . S
O426 C429 1.235 . S
C427 O430 1.238 . S
C427 O431 1.241 . S
C428 O421 1.247 . S
C428 O422 1.261 . S
C429 O424 1.259 . S
C429 O426 1.235 . S
O430 Co420 2.021 . S
O430 C427 1.238 . S
O431 Co425 2.052 . S
O431 C427 1.241 . S
O432 Co420 2.137 . S
O432 C423 1.247 . S
O433 Co420 2.244 . S
O433 C423 1.272 . S
O433 Co425 2.135 . S
Co434 O435 2.216 . S
Co434 O436 2.091 . S
Co434 O438 2.004 . S
Co434 O444 2.021 . S
Co434 O446 2.137 . S
Co434 O447 2.244 . S
O435 Co434 2.216 . S
O435 C442 1.247 . S
O436 Co434 2.091 . S
O436 C442 1.261 . S
C437 O446 1.247 . S
C437 O447 1.272 . S
O438 Co434 2.004 . S
O438 C443 1.259 . S
Co439 O440 2.061 . S
Co439 O445 2.052 . S
Co439 O447 2.135 . S
O440 Co439 2.061 . S
O440 C443 1.235 . S
C441 O444 1.238 . S
C441 O445 1.241 . S
C442 O435 1.247 . S
C442 O436 1.261 . S
C443 O438 1.259 . S
C443 O440 1.235 . S
O444 Co434 2.021 . S
O444 C441 1.238 . S
O445 Co439 2.052 . S
O445 C441 1.241 . S
O446 Co434 2.137 . S
O446 C437 1.247 . S
O447 Co434 2.244 . S
O447 C437 1.272 . S
O447 Co439 2.135 . S
H448 C456 0.929 . S
H449 C458 0.930 . S
H450 C460 0.930 . S
H451 C463 0.929 . S
H452 C466 0.930 . S
H453 C468 0.960 . S
H454 C468 0.960 . S
H455 C468 0.960 . S
C456 H448 0.929 . S
C456 C457 1.377 . S
C456 C458 1.384 . S
C457 C456 1.377 . S
C457 C463 1.390 . S
C458 H449 0.930 . S
C458 C456 1.384 . S
C458 C459 1.372 . S
C459 C458 1.372 . S
C459 C460 1.400 . S
C459 C464 1.490 . S
C460 H450 0.930 . S
C460 C459 1.400 . S
C460 C463 1.386 . S
H461 C477 0.930 . S
H462 C478 0.931 . S
C463 H451 0.929 . S
C463 C457 1.390 . S
C463 C460 1.386 . S
C464 C459 1.490 . S
C464 C466 1.395 . S
C464 C467 1.403 . S
H465 C471 0.930 . S
C466 H452 0.930 . S
C466 C464 1.395 . S
C466 C469 1.403 . S
C467 C464 1.403 . S
C467 C468 1.524 . S
C467 C471 1.400 . S
C468 H453 0.960 . S
C468 H454 0.960 . S
C468 H455 0.960 . S
C468 C467 1.524 . S
C469 C466 1.403 . S
C469 C470 1.392 . S
C469 C473 1.495 . S
C470 C469 1.392 . S
C470 C471 1.385 . S
C470 C472 1.478 . S
C471 H465 0.930 . S
C471 C467 1.400 . S
C471 C470 1.385 . S
C472 C470 1.478 . S
C472 C474 1.381 . S
C472 C478 1.383 . S
C473 C469 1.495 . S
C473 H479 0.959 . S
C473 H480 0.961 . S
C473 H481 0.960 . S
C474 C472 1.381 . S
C474 C475 1.394 . S
C474 H482 0.930 . S
C475 C474 1.394 . S
C475 C476 1.383 . S
C475 H483 0.929 . S
C476 C475 1.383 . S
C476 C477 1.377 . S
C477 H461 0.930 . S
C477 C476 1.377 . S
C477 C478 1.379 . S
C478 H462 0.931 . S
C478 C472 1.383 . S
C478 C477 1.379 . S
H479 C473 0.959 . S
H480 C473 0.961 . S
H481 C473 0.960 . S
H482 C474 0.930 . S
H483 C475 0.929 . S
H484 C492 0.929 . S
H485 C494 0.930 . S
H486 C496 0.930 . S
H487 C499 0.929 . S
H488 C502 0.930 . S
H489 C504 0.960 1_545 S
H490 C504 0.960 . S
H491 C504 0.960 . S
C492 H484 0.929 . S
C492 C493 1.377 . S
C492 C494 1.384 . S
C493 C492 1.377 . S
C493 C499 1.390 . S
C494 H485 0.930 . S
C494 C492 1.384 . S
C494 C495 1.372 . S
C495 C494 1.372 . S
C495 C496 1.400 . S
C495 C500 1.490 . S
C496 H486 0.930 . S
C496 C495 1.400 . S
C496 C499 1.386 . S
H497 C513 0.930 . S
H498 C514 0.931 . S
C499 H487 0.929 . S
C499 C493 1.390 . S
C499 C496 1.386 . S
C500 C495 1.490 . S
C500 C502 1.395 . S
C500 C503 1.403 . S
H501 C507 0.930 . S
C502 H488 0.930 . S
C502 C500 1.395 . S
C502 C505 1.324 1_565 S
C503 C500 1.403 . S
C503 C504 1.524 . S
C503 C507 1.400 1_565 S
C504 H489 0.960 1_565 S
C504 H490 0.960 . S
C504 H491 0.960 . S
C504 C503 1.524 . S
C505 C502 1.324 1_545 S
C505 C506 1.465 . S
C505 C509 1.504 . S
C506 C505 1.465 . S
C506 C507 1.385 . S
C506 C508 1.478 . S
C507 H501 0.930 . S
C507 C503 1.400 1_545 S
C507 C506 1.385 . S
C508 C506 1.478 . S
C508 C510 1.381 . S
C508 C514 1.383 . S
C509 C505 1.504 . S
C509 H515 0.959 1_545 S
C509 H516 0.961 . S
C509 H517 0.960 . S
C510 C508 1.381 . S
C510 C511 1.394 . S
C510 H518 0.930 . S
C511 C510 1.394 . S
C511 C512 1.383 . S
C511 H519 0.929 . S
C512 C511 1.383 . S
C512 C513 1.377 . S
C513 H497 0.930 . S
C513 C512 1.377 . S
C513 C514 1.379 . S
C514 H498 0.931 . S
C514 C508 1.383 . S
C514 C513 1.379 . S
H515 C509 0.959 1_565 S
H516 C509 0.961 . S
H517 C509 0.960 . S
H518 C510 0.930 . S
H519 C511 0.929 . S
H520 C528 0.929 . S
H521 C530 0.930 . S
H522 C532 0.930 . S
H523 C535 0.929 . S
H524 C538 0.930 . S
H525 C540 0.960 . S
H526 C540 0.960 . S
H527 C540 0.960 . S
C528 H520 0.929 . S
C528 C529 1.377 . S
C528 C530 1.384 . S
C529 C528 1.377 . S
C529 C535 1.390 . S
C530 H521 0.930 . S
C530 C528 1.384 . S
C530 C531 1.372 . S
C531 C530 1.372 . S
C531 C532 1.400 . S
C531 C536 1.490 . S
C532 H522 0.930 . S
C532 C531 1.400 . S
C532 C535 1.386 . S
H533 C549 0.930 . S
H534 C550 0.931 . S
C535 H523 0.929 . S
C535 C529 1.390 . S
C535 C532 1.386 . S
C536 C531 1.490 . S
C536 C538 1.395 . S
C536 C539 1.403 . S
H537 C543 0.930 . S
C538 H524 0.930 . S
C538 C536 1.395 . S
C538 C541 1.403 . S
C539 C536 1.403 . S
C539 C540 1.524 . S
C539 C543 1.400 . S
C540 H525 0.960 . S
C540 H526 0.960 . S
C540 H527 0.960 . S
C540 C539 1.524 . S
C541 C538 1.403 . S
C541 C542 1.392 . S
C541 C545 1.495 . S
C542 C541 1.392 . S
C542 C543 1.385 . S
C542 C544 1.478 . S
C543 H537 0.930 . S
C543 C539 1.400 . S
C543 C542 1.385 . S
C544 C542 1.478 . S
C544 C546 1.381 . S
C544 C550 1.383 . S
C545 C541 1.495 . S
C545 H551 0.959 . S
C545 H552 0.961 . S
C545 H553 0.960 . S
C546 C544 1.381 . S
C546 C547 1.394 . S
C546 H554 0.930 . S
C547 C546 1.394 . S
C547 C548 1.383 . S
C547 H555 0.929 . S
C548 C547 1.383 . S
C548 C549 1.377 . S
C549 H533 0.930 . S
C549 C548 1.377 . S
C549 C550 1.379 . S
C550 H534 0.931 . S
C550 C544 1.383 . S
C550 C549 1.379 . S
H551 C545 0.959 . S
H552 C545 0.961 . S
H553 C545 0.960 . S
H554 C546 0.930 . S
H555 C547 0.929 . S
H556 C564 0.929 . S
H557 C566 0.930 . S
H558 C568 0.930 1_554 S
H559 C571 0.929 . S
H560 C574 0.930 . S
H561 C576 0.960 1_554 S
H562 C576 0.960 . S
H563 C576 0.960 1_554 S
C564 H556 0.929 . S
C564 C565 1.377 . S
C564 C566 1.384 . S
C565 C564 1.377 . S
C565 C571 1.390 . S
C566 H557 0.930 . S
C566 C564 1.384 . S
C566 C567 1.372 . S
C567 C566 1.372 . S
C567 C568 1.400 . S
C567 C572 1.490 . S
C568 H558 0.930 1_556 S
C568 C567 1.400 . S
C568 C571 1.386 . S
H569 C585 0.930 . S
H570 C586 0.931 . S
C571 H559 0.929 . S
C571 C565 1.390 . S
C571 C568 1.386 . S
C572 C567 1.490 . S
C572 C574 1.395 . S
C572 C575 1.403 . S
H573 C579 0.930 . S
C574 H560 0.930 . S
C574 C572 1.395 . S
C574 C577 1.401 1_546 S
C575 C572 1.403 . S
C575 C576 1.524 . S
C575 C579 1.400 1_546 S
C576 H561 0.960 1_556 S
C576 H562 0.960 . S
C576 H563 0.960 1_556 S
C576 C575 1.524 . S
C577 C574 1.401 1_564 S
C577 C578 1.395 . S
C577 C581 1.496 . S
C578 C577 1.395 . S
C578 C579 1.385 . S
C578 C580 1.478 . S
C579 H573 0.930 . S
C579 C575 1.400 1_564 S
C579 C578 1.385 . S
C580 C578 1.478 . S
C580 C582 1.381 . S
C580 C586 1.383 . S
C581 C577 1.496 . S
C581 H587 0.959 1_554 S
C581 H588 0.961 . S
C581 H589 0.960 1_554 S
C582 C580 1.381 . S
C582 C583 1.394 . S
C582 H590 0.930 1_554 S
C583 C582 1.394 . S
C583 C584 1.383 . S
C583 H591 0.929 . S
C584 C583 1.383 . S
C584 C585 1.377 . S
C585 H569 0.930 . S
C585 C584 1.377 . S
C585 C586 1.379 . S
C586 H570 0.931 . S
C586 C580 1.383 . S
C586 C585 1.379 . S
H587 C581 0.959 1_556 S
H588 C581 0.961 . S
H589 C581 0.960 1_556 S
H590 C582 0.930 1_556 S
H591 C583 0.929 . S
H592 C600 0.929 . S
H593 C602 0.930 . S
H594 C604 0.930 . S
H595 C607 0.929 . S
H596 C610 0.930 . S
H597 C612 0.960 . S
H598 C612 0.960 . S
H599 C612 0.960 . S
C600 H592 0.929 . S
C600 C601 1.377 . S
C600 C602 1.384 . S
C601 C600 1.377 . S
C601 C607 1.390 . S
C602 H593 0.930 . S
C602 C600 1.384 . S
C602 C603 1.372 . S
C603 C602 1.372 . S
C603 C604 1.400 . S
C603 C608 1.490 . S
C604 H594 0.930 . S
C604 C603 1.400 . S
C604 C607 1.386 . S
H605 C621 0.930 . S
H606 C622 0.931 . S
C607 H595 0.929 . S
C607 C601 1.390 . S
C607 C604 1.386 . S
C608 C603 1.490 . S
C608 C610 1.395 . S
C608 C611 1.403 . S
H609 C615 0.930 . S
C610 H596 0.930 . S
C610 C608 1.395 . S
C610 C613 1.403 . S
C611 C608 1.403 . S
C611 C612 1.524 . S
C611 C615 1.400 . S
C612 H597 0.960 . S
C612 H598 0.960 . S
C612 H599 0.960 . S
C612 C611 1.524 . S
C613 C610 1.403 . S
C613 C614 1.392 . S
C613 C617 1.495 . S
C614 C613 1.392 . S
C614 C615 1.385 . S
C614 C616 1.478 . S
C615 H609 0.930 . S
C615 C611 1.400 . S
C615 C614 1.385 . S
C616 C614 1.478 . S
C616 C618 1.381 . S
C616 C622 1.383 . S
C617 C613 1.495 . S
C617 H623 0.959 . S
C617 H624 0.961 . S
C617 H625 0.960 . S
C618 C616 1.381 . S
C618 C619 1.394 . S
C618 H626 0.930 . S
C619 C618 1.394 . S
C619 C620 1.383 . S
C619 H627 0.929 . S
C620 C619 1.383 . S
C620 C621 1.377 . S
C621 H605 0.930 . S
C621 C620 1.377 . S
C621 C622 1.379 . S
C622 H606 0.931 . S
C622 C616 1.383 . S
C622 C621 1.379 . S
H623 C617 0.959 . S
H624 C617 0.961 . S
H625 C617 0.960 . S
H626 C618 0.930 . S
H627 C619 0.929 . S
H628 C636 0.929 . S
H629 C638 0.930 . S
H630 C640 0.930 . S
H631 C643 0.929 . S
H632 C646 0.930 . S
H633 C648 0.960 1_545 S
H634 C648 0.960 . S
H635 C648 0.960 . S
C636 H628 0.929 . S
C636 C637 1.377 . S
C636 C638 1.384 . S
C637 C636 1.377 . S
C637 C643 1.390 . S
C638 H629 0.930 . S
C638 C636 1.384 . S
C638 C639 1.372 . S
C639 C638 1.372 . S
C639 C640 1.400 . S
C639 C644 1.490 . S
C640 H630 0.930 . S
C640 C639 1.400 . S
C640 C643 1.386 . S
H641 C657 0.930 . S
H642 C658 0.931 . S
C643 H631 0.929 . S
C643 C637 1.390 . S
C643 C640 1.386 . S
C644 C639 1.490 . S
C644 C646 1.395 . S
C644 C647 1.403 . S
H645 C651 0.930 . S
C646 H632 0.930 . S
C646 C644 1.395 . S
C646 C649 1.403 1_565 S
C647 C644 1.403 . S
C647 C648 1.524 . S
C647 C651 1.400 1_565 S
C648 H633 0.960 1_565 S
C648 H634 0.960 . S
C648 H635 0.960 . S
C648 C647 1.524 . S
C649 C646 1.403 1_545 S
C649 C650 1.392 . S
C649 C653 1.495 . S
C650 C649 1.392 . S
C650 C651 1.385 . S
C650 C652 1.478 . S
C651 H645 0.930 . S
C651 C647 1.400 1_545 S
C651 C650 1.385 . S
C652 C650 1.478 . S
C652 C654 1.381 . S
C652 C658 1.383 . S
C653 C649 1.495 . S
C653 H659 0.959 1_545 S
C653 H660 0.961 . S
C653 H661 0.960 . S
C654 C652 1.381 . S
C654 C655 1.394 . S
C654 H662 0.930 . S
C655 C654 1.394 . S
C655 C656 1.383 . S
C655 H663 0.929 . S
C656 C655 1.383 . S
C656 C657 1.377 . S
C657 H641 0.930 . S
C657 C656 1.377 . S
C657 C658 1.379 . S
C658 H642 0.931 . S
C658 C652 1.383 . S
C658 C657 1.379 . S
H659 C653 0.959 1_565 S
H660 C653 0.961 . S
H661 C653 0.960 . S
H662 C654 0.930 . S
H663 C655 0.929 . S
H664 C672 0.929 . S
H665 C674 0.930 . S
H666 C676 0.930 . S
H667 C679 0.929 . S
H668 C682 0.930 . S
H669 C684 0.960 . S
H670 C684 0.960 . S
H671 C684 0.960 . S
C672 H664 0.929 . S
C672 C673 1.377 . S
C672 C674 1.384 . S
C673 C672 1.377 . S
C673 C679 1.390 . S
C674 H665 0.930 . S
C674 C672 1.384 . S
C674 C675 1.372 . S
C675 C674 1.372 . S
C675 C676 1.400 . S
C675 C680 1.490 . S
C676 H666 0.930 . S
C676 C675 1.400 . S
C676 C679 1.386 . S
H677 C693 0.930 . S
H678 C694 0.931 . S
C679 H667 0.929 . S
C679 C673 1.390 . S
C679 C676 1.386 . S
C680 C675 1.490 . S
C680 C682 1.395 . S
C680 C683 1.403 . S
H681 C687 0.930 . S
C682 H668 0.930 . S
C682 C680 1.395 . S
C682 C685 1.403 . S
C683 C680 1.403 . S
C683 C684 1.524 . S
C683 C687 1.400 . S
C684 H669 0.960 . S
C684 H670 0.960 . S
C684 H671 0.960 . S
C684 C683 1.524 . S
C685 C682 1.403 . S
C685 C686 1.392 . S
C685 C689 1.495 . S
C686 C685 1.392 . S
C686 C687 1.385 . S
C686 C688 1.478 . S
C687 H681 0.930 . S
C687 C683 1.400 . S
C687 C686 1.385 . S
C688 C686 1.478 . S
C688 C690 1.381 . S
C688 C694 1.383 . S
C689 C685 1.495 . S
C689 H695 0.959 . S
C689 H696 0.961 . S
C689 H697 0.960 . S
C690 C688 1.381 . S
C690 C691 1.394 . S
C690 H698 0.930 . S
C691 C690 1.394 . S
C691 C692 1.383 . S
C691 H699 0.929 . S
C692 C691 1.383 . S
C692 C693 1.377 . S
C693 H677 0.930 . S
C693 C692 1.377 . S
C693 C694 1.379 . S
C694 H678 0.931 . S
C694 C688 1.383 . S
C694 C693 1.379 . S
H695 C689 0.959 . S
H696 C689 0.961 . S
H697 C689 0.960 . S
H698 C690 0.930 . S
H699 C691 0.929 . S
H700 C708 0.929 . S
H701 C710 0.930 . S
H702 C712 0.930 1_554 S
H703 C715 0.929 . S
H704 C718 0.930 . S
H705 C720 0.960 . S
H706 C720 0.960 1_556 S
H707 C720 0.960 . S
C708 H700 0.929 . S
C708 C709 1.377 . S
C708 C710 1.384 . S
C709 C708 1.377 . S
C709 C715 1.390 . S
C710 H701 0.930 . S
C710 C708 1.384 . S
C710 C711 1.372 . S
C711 C710 1.372 . S
C711 C712 1.400 . S
C711 C716 1.490 . S
C712 H702 0.930 1_556 S
C712 C711 1.400 . S
C712 C715 1.386 . S
H713 C729 0.930 . S
H714 C730 0.931 . S
C715 H703 0.929 . S
C715 C709 1.390 . S
C715 C712 1.386 . S
C716 C711 1.490 . S
C716 C718 1.395 . S
C716 C719 1.403 1_556 S
H717 C723 0.930 . S
C718 H704 0.930 . S
C718 C716 1.395 . S
C718 C721 1.403 1_545 S
C719 C716 1.403 1_554 S
C719 C720 1.524 . S
C719 C723 1.400 1_545 S
C720 H705 0.960 . S
C720 H706 0.960 1_554 S
C720 H707 0.960 . S
C720 C719 1.524 . S
C721 C718 1.403 1_565 S
C721 C722 1.392 1_556 S
C721 C725 1.495 . S
C722 C721 1.392 1_554 S
C722 C723 1.385 . S
C722 C724 1.478 . S
C723 H717 0.930 . S
C723 C719 1.400 1_565 S
C723 C722 1.385 . S
C724 C722 1.478 . S
C724 C726 1.381 . S
C724 C730 1.383 . S
C725 C721 1.495 . S
C725 H731 0.959 . S
C725 H732 0.961 1_556 S
C725 H733 0.960 . S
C726 C724 1.381 . S
C726 C727 1.394 . S
C726 H734 0.930 1_554 S
C727 C726 1.394 . S
C727 C728 1.383 . S
C727 H735 0.929 . S
C728 C727 1.383 . S
C728 C729 1.377 . S
C729 H713 0.930 . S
C729 C728 1.377 . S
C729 C730 1.379 . S
C730 H714 0.931 . S
C730 C724 1.383 . S
C730 C729 1.379 . S
H731 C725 0.959 . S
H732 C725 0.961 1_554 S
H733 C725 0.960 . S
H734 C726 0.930 1_556 S
H735 C727 0.929 . S
H736 C744 0.929 . S
H737 C746 0.930 . S
H738 C748 0.930 . S
H739 C751 0.929 . S
H740 C754 0.930 . S
H741 C756 0.960 . S
H742 C756 0.960 . S
H743 C756 0.960 . S
C744 H736 0.929 . S
C744 C745 1.377 . S
C744 C746 1.384 . S
C745 C744 1.377 . S
C745 C751 1.390 . S
C746 H737 0.930 . S
C746 C744 1.384 . S
C746 C747 1.372 . S
C747 C746 1.372 . S
C747 C748 1.400 . S
C747 C752 1.490 . S
C748 H738 0.930 . S
C748 C747 1.400 . S
C748 C751 1.386 . S
H749 C765 0.930 . S
H750 C766 0.931 . S
C751 H739 0.929 . S
C751 C745 1.390 . S
C751 C748 1.386 . S
C752 C747 1.490 . S
C752 C754 1.395 . S
C752 C755 1.403 . S
H753 C759 0.930 . S
C754 H740 0.930 . S
C754 C752 1.395 . S
C754 C757 1.403 . S
C755 C752 1.403 . S
C755 C756 1.524 . S
C755 C759 1.400 . S
C756 H741 0.960 . S
C756 H742 0.960 . S
C756 H743 0.960 . S
C756 C755 1.524 . S
C757 C754 1.403 . S
C757 C758 1.392 . S
C757 C761 1.495 . S
C758 C757 1.392 . S
C758 C759 1.385 . S
C758 C760 1.478 . S
C759 H753 0.930 . S
C759 C755 1.400 . S
C759 C758 1.385 . S
C760 C758 1.478 . S
C760 C762 1.381 . S
C760 C766 1.383 . S
C761 C757 1.495 . S
C761 H767 0.959 . S
C761 H768 0.961 . S
C761 H769 0.960 . S
C762 C760 1.381 . S
C762 C763 1.394 . S
C762 H770 0.930 . S
C763 C762 1.394 . S
C763 C764 1.383 . S
C763 H771 0.929 . S
C764 C763 1.383 . S
C764 C765 1.377 . S
C765 H749 0.930 . S
C765 C764 1.377 . S
C765 C766 1.379 . S
C766 H750 0.931 . S
C766 C760 1.383 . S
C766 C765 1.379 . S
H767 C761 0.959 . S
H768 C761 0.961 . S
H769 C761 0.960 . S
H770 C762 0.930 . S
H771 C763 0.929 . S
H772 C780 0.929 . S
H773 C782 0.930 1_554 S
H774 C784 0.930 . S
H775 C787 0.929 . S
H776 C790 0.930 . S
H777 C792 0.960 . S
H778 C792 0.960 . S
H779 C792 0.960 . S
C780 H772 0.929 . S
C780 C781 1.377 . S
C780 C782 1.384 . S
C781 C780 1.377 . S
C781 C787 1.390 . S
C782 H773 0.930 1_556 S
C782 C780 1.384 . S
C782 C783 1.372 . S
C783 C782 1.372 . S
C783 C784 1.400 . S
C783 C788 1.490 . S
C784 H774 0.930 . S
C784 C783 1.400 . S
C784 C787 1.386 . S
H785 C801 0.930 . S
H786 C802 0.931 1_556 S
C787 H775 0.929 . S
C787 C781 1.390 . S
C787 C784 1.386 . S
C788 C783 1.490 . S
C788 C790 1.395 1_556 S
C788 C791 1.403 . S
H789 C795 0.930 . S
C790 H776 0.930 . S
C790 C788 1.395 1_554 S
C790 C793 1.403 . S
C791 C788 1.403 . S
C791 C792 1.524 . S
C791 C795 1.400 . S
C792 H777 0.960 . S
C792 H778 0.960 . S
C792 H779 0.960 . S
C792 C791 1.524 . S
C793 C790 1.403 . S
C793 C794 1.392 . S
C793 C797 1.495 . S
C794 C793 1.392 . S
C794 C795 1.385 1_554 S
C794 C796 1.478 . S
C795 H789 0.930 . S
C795 C791 1.400 . S
C795 C794 1.385 1_556 S
C796 C794 1.478 . S
C796 C798 1.381 . S
C796 C802 1.383 . S
C797 C793 1.495 . S
C797 H803 0.959 . S
C797 H804 0.961 . S
C797 H805 0.960 . S
C798 C796 1.381 . S
C798 C799 1.394 . S
C798 H806 0.930 . S
C799 C798 1.394 . S
C799 C800 1.383 . S
C799 H807 0.929 . S
C800 C799 1.383 . S
C800 C801 1.377 . S
C801 H785 0.930 . S
C801 C800 1.377 . S
C801 C802 1.379 . S
C802 H786 0.931 1_554 S
C802 C796 1.383 . S
C802 C801 1.379 . S
H803 C797 0.959 . S
H804 C797 0.961 . S
H805 C797 0.960 . S
H806 C798 0.930 . S
H807 C799 0.929 . S
H808 C816 0.929 . S
H809 C818 0.930 . S
H810 C820 0.930 . S
H811 C823 0.929 . S
H812 C826 0.930 . S
H813 C828 0.960 . S
H814 C828 0.960 . S
H815 C828 0.960 . S
C816 H808 0.929 . S
C816 C817 1.377 . S
C816 C818 1.384 . S
C817 C816 1.377 . S
C817 C823 1.390 . S
C818 H809 0.930 . S
C818 C816 1.384 . S
C818 C819 1.372 . S
C819 C818 1.372 . S
C819 C820 1.400 . S
C819 C824 1.490 . S
C820 H810 0.930 . S
C820 C819 1.400 . S
C820 C823 1.386 . S
H821 C837 0.930 . S
H822 C838 0.931 . S
C823 H811 0.929 . S
C823 C817 1.390 . S
C823 C820 1.386 . S
C824 C819 1.490 . S
C824 C826 1.395 . S
C824 C827 1.403 . S
H825 C831 0.930 . S
C826 H812 0.930 . S
C826 C824 1.395 . S
C826 C829 1.403 . S
C827 C824 1.403 . S
C827 C828 1.524 . S
C827 C831 1.400 . S
C828 H813 0.960 . S
C828 H814 0.960 . S
C828 H815 0.960 . S
C828 C827 1.524 . S
C829 C826 1.403 . S
C829 C830 1.392 . S
C829 C833 1.495 . S
C830 C829 1.392 . S
C830 C831 1.385 . S
C830 C832 1.478 . S
C831 H825 0.930 . S
C831 C827 1.400 . S
C831 C830 1.385 . S
C832 C830 1.478 . S
C832 C834 1.381 . S
C832 C838 1.383 . S
C833 C829 1.495 . S
C833 H839 0.959 . S
C833 H840 0.961 . S
C833 H841 0.960 . S
C834 C832 1.381 . S
C834 C835 1.394 . S
C834 H842 0.930 . S
C835 C834 1.394 . S
C835 C836 1.383 . S
C835 H843 0.929 . S
C836 C835 1.383 . S
C836 C837 1.377 . S
C837 H821 0.930 . S
C837 C836 1.377 . S
C837 C838 1.379 . S
C838 H822 0.931 . S
C838 C832 1.383 . S
C838 C837 1.379 . S
H839 C833 0.959 . S
H840 C833 0.961 . S
H841 C833 0.960 . S
H842 C834 0.930 . S
H843 C835 0.929 . S
H844 C852 0.929 . S
H845 C854 0.930 . S
H846 C856 0.930 . S
H847 C859 0.929 . S
H848 C862 0.930 . S
H849 C864 0.960 . S
H850 C864 0.960 . S
H851 C864 0.960 . S
C852 H844 0.929 . S
C852 C853 1.377 . S
C852 C854 1.384 . S
C853 C852 1.377 . S
C853 C859 1.390 . S
C854 H845 0.930 . S
C854 C852 1.384 . S
C854 C855 1.372 . S
C855 C854 1.372 . S
C855 C856 1.400 . S
C855 C860 1.490 . S
C856 H846 0.930 . S
C856 C855 1.400 . S
C856 C859 1.386 . S
H857 C873 0.930 . S
H858 C874 0.931 . S
C859 H847 0.929 . S
C859 C853 1.390 . S
C859 C856 1.386 . S
C860 C855 1.490 . S
C860 C862 1.395 . S
C860 C863 1.403 . S
H861 C867 0.930 . S
C862 H848 0.930 . S
C862 C860 1.395 . S
C862 C865 1.403 . S
C863 C860 1.403 . S
C863 C864 1.524 . S
C863 C867 1.400 . S
C864 H849 0.960 . S
C864 H850 0.960 . S
C864 H851 0.960 . S
C864 C863 1.524 . S
C865 C862 1.403 . S
C865 C866 1.392 . S
C865 C869 1.495 . S
C866 C865 1.392 . S
C866 C867 1.385 . S
C866 C868 1.478 . S
C867 H861 0.930 . S
C867 C863 1.400 . S
C867 C866 1.385 . S
C868 C866 1.478 . S
C868 C870 1.381 . S
C868 C874 1.383 . S
C869 C865 1.495 . S
C869 H875 0.959 . S
C869 H876 0.961 . S
C869 H877 0.960 . S
C870 C868 1.381 . S
C870 C871 1.394 . S
C870 H878 0.930 . S
C871 C870 1.394 . S
C871 C872 1.383 . S
C871 H879 0.929 . S
C872 C871 1.383 . S
C872 C873 1.377 . S
C873 H857 0.930 . S
C873 C872 1.377 . S
C873 C874 1.379 . S
C874 H858 0.931 . S
C874 C868 1.383 . S
C874 C873 1.379 . S
H875 C869 0.959 . S
H876 C869 0.961 . S
H877 C869 0.960 . S
H878 C870 0.930 . S
H879 C871 0.929 . S
H880 C888 0.929 . S
H881 C890 0.930 . S
H882 C892 0.930 . S
H883 C895 0.929 . S
H884 C898 0.930 . S
H885 C900 0.960 . S
H886 C900 0.960 . S
H887 C900 0.960 . S
C888 H880 0.929 . S
C888 C889 1.377 . S
C888 C890 1.384 . S
C889 C888 1.377 . S
C889 C895 1.390 . S
C890 H881 0.930 . S
C890 C888 1.384 . S
C890 C891 1.372 . S
C891 C890 1.372 . S
C891 C892 1.400 . S
C891 C896 1.490 . S
C892 H882 0.930 . S
C892 C891 1.400 . S
C892 C895 1.386 . S
H893 C909 0.930 . S
H894 C910 0.931 . S
C895 H883 0.929 . S
C895 C889 1.390 . S
C895 C892 1.386 . S
C896 C891 1.490 . S
C896 C898 1.395 . S
C896 C899 1.403 . S
H897 C903 0.930 . S
C898 H884 0.930 . S
C898 C896 1.395 . S
C898 C901 1.403 . S
C899 C896 1.403 . S
C899 C900 1.524 . S
C899 C903 1.400 . S
C900 H885 0.960 . S
C900 H886 0.960 . S
C900 H887 0.960 . S
C900 C899 1.524 . S
C901 C898 1.403 . S
C901 C902 1.392 . S
C901 C905 1.495 . S
C902 C901 1.392 . S
C902 C903 1.385 . S
C902 C904 1.478 . S
C903 H897 0.930 . S
C903 C899 1.400 . S
C903 C902 1.385 . S
C904 C902 1.478 . S
C904 C906 1.381 . S
C904 C910 1.383 . S
C905 C901 1.495 . S
C905 H911 0.959 . S
C905 H912 0.961 . S
C905 H913 0.960 . S
C906 C904 1.381 . S
C906 C907 1.394 . S
C906 H914 0.930 . S
C907 C906 1.394 . S
C907 C908 1.383 . S
C907 H915 0.929 . S
C908 C907 1.383 . S
C908 C909 1.377 . S
C909 H893 0.930 . S
C909 C908 1.377 . S
C909 C910 1.379 . S
C910 H894 0.931 . S
C910 C904 1.383 . S
C910 C909 1.379 . S
H911 C905 0.959 . S
H912 C905 0.961 . S
H913 C905 0.960 . S
H914 C906 0.930 . S
H915 C907 0.929 . S
H916 C924 0.929 . S
H917 C926 0.930 . S
H918 C928 0.930 . S
H919 C931 0.929 . S
H920 C934 0.930 . S
H921 C936 0.960 . S
H922 C936 0.960 . S
H923 C936 0.960 . S
C924 H916 0.929 . S
C924 C925 1.377 . S
C924 C926 1.384 . S
C925 C924 1.377 . S
C925 C931 1.390 . S
C926 H917 0.930 . S
C926 C924 1.384 . S
C926 C927 1.372 . S
C927 C926 1.372 . S
C927 C928 1.400 . S
C927 C932 1.490 . S
C928 H918 0.930 . S
C928 C927 1.400 . S
C928 C931 1.386 . S
H929 C945 0.930 . S
H930 C946 0.931 . S
C931 H919 0.929 . S
C931 C925 1.390 . S
C931 C928 1.386 . S
C932 C927 1.490 . S
C932 C934 1.395 . S
C932 C935 1.403 1_554 S
H933 C939 0.930 . S
C934 H920 0.930 . S
C934 C932 1.395 . S
C934 C937 1.403 . S
C935 C932 1.403 1_556 S
C935 C936 1.524 . S
C935 C939 1.400 . S
C936 H921 0.960 . S
C936 H922 0.960 . S
C936 H923 0.960 . S
C936 C935 1.524 . S
C937 C934 1.403 . S
C937 C938 1.392 1_554 S
C937 C941 1.495 . S
C938 C937 1.392 1_556 S
C938 C939 1.385 . S
C938 C940 1.478 . S
C939 H933 0.930 . S
C939 C935 1.400 . S
C939 C938 1.385 . S
C940 C938 1.478 . S
C940 C942 1.381 . S
C940 C946 1.383 . S
C941 C937 1.495 . S
C941 H947 0.959 . S
C941 H948 0.961 . S
C941 H949 0.960 . S
C942 C940 1.381 . S
C942 C943 1.394 . S
C942 H950 0.930 . S
C943 C942 1.394 . S
C943 C944 1.383 . S
C943 H951 0.929 . S
C944 C943 1.383 . S
C944 C945 1.377 . S
C945 H929 0.930 . S
C945 C944 1.377 . S
C945 C946 1.379 . S
C946 H930 0.931 . S
C946 C940 1.383 . S
C946 C945 1.379 . S
H947 C941 0.959 . S
H948 C941 0.961 . S
H949 C941 0.960 . S
H950 C942 0.930 . S
H951 C943 0.929 . S
H952 C960 0.929 . S
H953 C962 0.930 . S
H954 C964 0.930 . S
H955 C967 0.929 . S
H956 C970 0.930 . S
H957 C972 0.960 . S
H958 C972 0.960 . S
H959 C972 0.960 . S
C960 H952 0.929 . S
C960 C961 1.377 . S
C960 C962 1.384 . S
C961 C960 1.377 . S
C961 C967 1.390 . S
C962 H953 0.930 . S
C962 C960 1.384 . S
C962 C963 1.372 . S
C963 C962 1.372 . S
C963 C964 1.400 . S
C963 C968 1.490 . S
C964 H954 0.930 . S
C964 C963 1.400 . S
C964 C967 1.386 . S
H965 C981 0.930 . S
H966 C982 0.931 . S
C967 H955 0.929 . S
C967 C961 1.390 . S
C967 C964 1.386 . S
C968 C963 1.490 . S
C968 C970 1.395 . S
C968 C971 1.403 . S
H969 C975 0.930 . S
C970 H956 0.930 . S
C970 C968 1.395 . S
C970 C973 1.403 . S
C971 C968 1.403 . S
C971 C972 1.524 . S
C971 C975 1.400 . S
C972 H957 0.960 . S
C972 H958 0.960 . S
C972 H959 0.960 . S
C972 C971 1.524 . S
C973 C970 1.403 . S
C973 C974 1.392 . S
C973 C977 1.495 . S
C974 C973 1.392 . S
C974 C975 1.385 . S
C974 C976 1.478 . S
C975 H969 0.930 . S
C975 C971 1.400 . S
C975 C974 1.385 . S
C976 C974 1.478 . S
C976 C978 1.381 . S
C976 C982 1.383 . S
C977 C973 1.495 . S
C977 H983 0.959 . S
C977 H984 0.961 . S
C977 H985 0.960 . S
C978 C976 1.381 . S
C978 C979 1.394 . S
C978 H986 0.930 . S
C979 C978 1.394 . S
C979 C980 1.383 . S
C979 H987 0.929 . S
C980 C979 1.383 . S
C980 C981 1.377 . S
C981 H965 0.930 . S
C981 C980 1.377 . S
C981 C982 1.379 . S
C982 H966 0.931 . S
C982 C976 1.383 . S
C982 C981 1.379 . S
H983 C977 0.959 . S
H984 C977 0.961 . S
H985 C977 0.960 . S
H986 C978 0.930 . S
H987 C979 0.929 . S
H988 C996 0.929 . S
H989 C998 0.930 . S
H990 C1000 0.930 . S
H991 C1003 0.929 . S
H992 C1006 0.930 . S
H993 C1008 0.960 . S
H994 C1008 0.960 . S
H995 C1008 0.960 . S
C996 H988 0.929 . S
C996 C997 1.377 . S
C996 C998 1.384 . S
C997 C996 1.377 . S
C997 C1003 1.390 . S
C998 H989 0.930 . S
C998 C996 1.384 . S
C998 C999 1.372 . S
C999 C998 1.372 . S
C999 C1000 1.400 . S
C999 C1004 1.490 . S
C1000 H990 0.930 . S
C1000 C999 1.400 . S
C1000 C1003 1.386 . S
H1001 C1017 0.930 . S
H1002 C1018 0.931 . S
C1003 H991 0.929 . S
C1003 C997 1.390 . S
C1003 C1000 1.386 . S
C1004 C999 1.490 . S
C1004 C1006 1.395 . S
C1004 C1007 1.403 . S
H1005 C1011 0.930 . S
C1006 H992 0.930 . S
C1006 C1004 1.395 . S
C1006 C1009 1.403 . S
C1007 C1004 1.403 . S
C1007 C1008 1.524 . S
C1007 C1011 1.400 . S
C1008 H993 0.960 . S
C1008 H994 0.960 . S
C1008 H995 0.960 . S
C1008 C1007 1.524 . S
C1009 C1006 1.403 . S
C1009 C1010 1.392 . S
C1009 C1013 1.495 . S
C1010 C1009 1.392 . S
C1010 C1011 1.385 . S
C1010 C1012 1.478 . S
C1011 H1005 0.930 . S
C1011 C1007 1.400 . S
C1011 C1010 1.385 . S
C1012 C1010 1.478 . S
C1012 C1014 1.381 . S
C1012 C1018 1.383 . S
C1013 C1009 1.495 . S
C1013 H1019 0.959 . S
C1013 H1020 0.961 . S
C1013 H1021 0.960 . S
C1014 C1012 1.381 . S
C1014 C1015 1.394 . S
C1014 H1022 0.930 . S
C1015 C1014 1.394 . S
C1015 C1016 1.383 . S
C1015 H1023 0.929 . S
C1016 C1015 1.383 . S
C1016 C1017 1.377 . S
C1017 H1001 0.930 . S
C1017 C1016 1.377 . S
C1017 C1018 1.379 . S
C1018 H1002 0.931 . S
C1018 C1012 1.383 . S
C1018 C1017 1.379 . S
H1019 C1013 0.959 . S
H1020 C1013 0.961 . S
H1021 C1013 0.960 . S
H1022 C1014 0.930 . S
H1023 C1015 0.929 . S
H1024 C1032 0.929 . S
H1025 C1034 0.930 . S
H1026 C1036 0.930 . S
H1027 C1039 0.929 . S
H1028 C1042 0.930 . S
H1029 C1044 0.960 . S
H1030 C1044 0.960 . S
H1031 C1044 0.960 . S
C1032 H1024 0.929 . S
C1032 C1033 1.377 . S
C1032 C1034 1.384 1_554 S
C1033 C1032 1.377 . S
C1033 C1039 1.390 1_554 S
C1034 H1025 0.930 . S
C1034 C1032 1.384 1_556 S
C1034 C1035 1.372 . S
C1035 C1034 1.372 . S
C1035 C1036 1.400 . S
C1035 C1040 1.490 . S
C1036 H1026 0.930 . S
C1036 C1035 1.400 . S
C1036 C1039 1.386 . S
H1037 C1053 0.930 . S
H1038 C1054 0.931 . S
C1039 H1027 0.929 . S
C1039 C1033 1.390 1_556 S
C1039 C1036 1.386 . S
C1040 C1035 1.490 . S
C1040 C1042 1.395 . S
C1040 C1043 1.403 . S
H1041 C1047 0.930 . S
C1042 H1028 0.930 . S
C1042 C1040 1.395 . S
C1042 C1045 1.403 . S
C1043 C1040 1.403 . S
C1043 C1044 1.524 . S
C1043 C1047 1.400 . S
C1044 H1029 0.960 . S
C1044 H1030 0.960 . S
C1044 H1031 0.960 . S
C1044 C1043 1.524 . S
C1045 C1042 1.403 . S
C1045 C1046 1.392 . S
C1045 C1049 1.495 . S
C1046 C1045 1.392 . S
C1046 C1047 1.385 . S
C1046 C1048 1.478 . S
C1047 H1041 0.930 . S
C1047 C1043 1.400 . S
C1047 C1046 1.385 . S
C1048 C1046 1.478 . S
C1048 C1050 1.381 . S
C1048 C1054 1.383 . S
C1049 C1045 1.495 . S
C1049 H1055 0.959 . S
C1049 H1056 0.961 . S
C1049 H1057 0.960 . S
C1050 C1048 1.381 . S
C1050 C1051 1.394 . S
C1050 H1058 0.930 . S
C1051 C1050 1.394 . S
C1051 C1052 1.383 . S
C1051 H1059 0.929 . S
C1052 C1051 1.383 . S
C1052 C1053 1.377 . S
C1053 H1037 0.930 . S
C1053 C1052 1.377 . S
C1053 C1054 1.379 . S
C1054 H1038 0.931 . S
C1054 C1048 1.383 . S
C1054 C1053 1.379 . S
H1055 C1049 0.959 . S
H1056 C1049 0.961 . S
H1057 C1049 0.960 . S
H1058 C1050 0.930 . S
H1059 C1051 0.929 . S
H1060 C1068 0.929 . S
H1061 C1070 0.930 . S
H1062 C1072 0.930 . S
H1063 C1075 0.929 . S
H1064 C1078 0.930 . S
H1065 C1080 0.960 . S
H1066 C1080 0.960 . S
H1067 C1080 0.960 . S
C1068 H1060 0.929 . S
C1068 C1069 1.377 . S
C1068 C1070 1.384 1_556 S
C1069 C1068 1.377 . S
C1069 C1075 1.390 1_556 S
C1070 H1061 0.930 . S
C1070 C1068 1.384 1_554 S
C1070 C1071 1.372 . S
C1071 C1070 1.372 . S
C1071 C1072 1.400 . S
C1071 C1076 1.490 . S
C1072 H1062 0.930 . S
C1072 C1071 1.400 . S
C1072 C1075 1.386 . S
H1073 C1089 0.930 . S
H1074 C1090 0.931 . S
C1075 H1063 0.929 . S
C1075 C1069 1.390 1_554 S
C1075 C1072 1.386 . S
C1076 C1071 1.490 . S
C1076 C1078 1.395 . S
C1076 C1079 1.403 . S
H1077 C1083 0.930 . S
C1078 H1064 0.930 . S
C1078 C1076 1.395 . S
C1078 C1081 1.403 . S
C1079 C1076 1.403 . S
C1079 C1080 1.524 . S
C1079 C1083 1.400 . S
C1080 H1065 0.960 . S
C1080 H1066 0.960 . S
C1080 H1067 0.960 . S
C1080 C1079 1.524 . S
C1081 C1078 1.403 . S
C1081 C1082 1.392 . S
C1081 C1085 1.495 . S
C1082 C1081 1.392 . S
C1082 C1083 1.385 . S
C1082 C1084 1.478 . S
C1083 H1077 0.930 . S
C1083 C1079 1.400 . S
C1083 C1082 1.385 . S
C1084 C1082 1.478 . S
C1084 C1086 1.381 . S
C1084 C1090 1.383 . S
C1085 C1081 1.495 . S
C1085 H1091 0.959 . S
C1085 H1092 0.961 . S
C1085 H1093 0.960 . S
C1086 C1084 1.381 . S
C1086 C1087 1.394 . S
C1086 H1094 0.930 . S
C1087 C1086 1.394 . S
C1087 C1088 1.383 . S
C1087 H1095 0.929 . S
C1088 C1087 1.383 . S
C1088 C1089 1.377 . S
C1089 H1073 0.930 . S
C1089 C1088 1.377 . S
C1089 C1090 1.379 . S
C1090 H1074 0.931 . S
C1090 C1084 1.383 . S
C1090 C1089 1.379 . S
H1091 C1085 0.959 . S
H1092 C1085 0.961 . S
H1093 C1085 0.960 . S
H1094 C1086 0.930 . S
H1095 C1087 0.929 . S
H1096 C1104 0.929 . S
H1097 C1106 0.930 . S
H1098 C1108 0.930 . S
H1099 C1111 0.929 . S
H1100 C1114 0.930 . S
H1101 C1116 0.960 . S
H1102 C1116 0.960 . S
H1103 C1116 0.960 . S
C1104 H1096 0.929 . S
C1104 C1105 1.377 . S
C1104 C1106 1.384 . S
C1105 C1104 1.377 . S
C1105 C1111 1.390 . S
C1106 H1097 0.930 . S
C1106 C1104 1.384 . S
C1106 C1107 1.372 . S
C1107 C1106 1.372 . S
C1107 C1108 1.400 . S
C1107 C1112 1.490 . S
C1108 H1098 0.930 . S
C1108 C1107 1.400 . S
C1108 C1111 1.386 . S
H1109 C1125 0.930 . S
H1110 C1126 0.931 . S
C1111 H1099 0.929 . S
C1111 C1105 1.390 . S
C1111 C1108 1.386 . S
C1112 C1107 1.490 . S
C1112 C1114 1.395 . S
C1112 C1115 1.403 . S
H1113 C1119 0.930 . S
C1114 H1100 0.930 . S
C1114 C1112 1.395 . S
C1114 C1117 1.403 . S
C1115 C1112 1.403 . S
C1115 C1116 1.524 . S
C1115 C1119 1.400 . S
C1116 H1101 0.960 . S
C1116 H1102 0.960 . S
C1116 H1103 0.960 . S
C1116 C1115 1.524 . S
C1117 C1114 1.403 . S
C1117 C1118 1.392 . S
C1117 C1121 1.495 . S
C1118 C1117 1.392 . S
C1118 C1119 1.385 . S
C1118 C1120 1.478 . S
C1119 H1113 0.930 . S
C1119 C1115 1.400 . S
C1119 C1118 1.385 . S
C1120 C1118 1.478 . S
C1120 C1122 1.381 . S
C1120 C1126 1.383 . S
C1121 C1117 1.495 . S
C1121 H1127 0.959 . S
C1121 H1128 0.961 . S
C1121 H1129 0.960 . S
C1122 C1120 1.381 . S
C1122 C1123 1.394 . S
C1122 H1130 0.930 . S
C1123 C1122 1.394 . S
C1123 C1124 1.383 . S
C1123 H1131 0.929 . S
C1124 C1123 1.383 . S
C1124 C1125 1.377 . S
C1125 H1109 0.930 . S
C1125 C1124 1.377 . S
C1125 C1126 1.379 . S
C1126 H1110 0.931 . S
C1126 C1120 1.383 . S
C1126 C1125 1.379 . S
H1127 C1121 0.959 . S
H1128 C1121 0.961 . S
H1129 C1121 0.960 . S
H1130 C1122 0.930 . S
H1131 C1123 0.929 . S
H1132 C1140 0.929 . S
H1133 C1142 0.930 . S
H1134 C1144 0.930 . S
H1135 C1147 0.929 . S
H1136 C1150 0.930 . S
H1137 C1152 0.960 . S
H1138 C1152 0.960 . S
H1139 C1152 0.960 . S
C1140 H1132 0.929 . S
C1140 C1141 1.377 . S
C1140 C1142 1.384 . S
C1141 C1140 1.377 . S
C1141 C1147 1.390 . S
C1142 H1133 0.930 . S
C1142 C1140 1.384 . S
C1142 C1143 1.372 . S
C1143 C1142 1.372 . S
C1143 C1144 1.400 . S
C1143 C1148 1.490 . S
C1144 H1134 0.930 . S
C1144 C1143 1.400 . S
C1144 C1147 1.386 . S
H1145 C1161 0.930 . S
H1146 C1162 0.931 . S
C1147 H1135 0.929 . S
C1147 C1141 1.390 . S
C1147 C1144 1.386 . S
C1148 C1143 1.490 . S
C1148 C1150 1.395 . S
C1148 C1151 1.403 . S
H1149 C1155 0.930 . S
C1150 H1136 0.930 . S
C1150 C1148 1.395 . S
C1150 C1153 1.403 . S
C1151 C1148 1.403 . S
C1151 C1152 1.524 . S
C1151 C1155 1.400 . S
C1152 H1137 0.960 . S
C1152 H1138 0.960 . S
C1152 H1139 0.960 . S
C1152 C1151 1.524 . S
C1153 C1150 1.403 . S
C1153 C1154 1.392 . S
C1153 C1157 1.495 . S
C1154 C1153 1.392 . S
C1154 C1155 1.385 . S
C1154 C1156 1.478 . S
C1155 H1149 0.930 . S
C1155 C1151 1.400 . S
C1155 C1154 1.385 . S
C1156 C1154 1.478 . S
C1156 C1158 1.381 . S
C1156 C1162 1.383 . S
C1157 C1153 1.495 . S
C1157 H1163 0.959 . S
C1157 H1164 0.961 . S
C1157 H1165 0.960 . S
C1158 C1156 1.381 . S
C1158 C1159 1.394 . S
C1158 H1166 0.930 . S
C1159 C1158 1.394 . S
C1159 C1160 1.383 . S
C1159 H1167 0.929 . S
C1160 C1159 1.383 . S
C1160 C1161 1.377 . S
C1161 H1145 0.930 . S
C1161 C1160 1.377 . S
C1161 C1162 1.379 . S
C1162 H1146 0.931 . S
C1162 C1156 1.383 . S
C1162 C1161 1.379 . S
H1163 C1157 0.959 . S
H1164 C1157 0.961 . S
H1165 C1157 0.960 . S
H1166 C1158 0.930 . S
H1167 C1159 0.929 . S
H1168 C1176 0.929 . S
H1169 C1178 0.930 . S
H1170 C1180 0.930 . S
H1171 C1183 0.929 . S
H1172 C1186 0.930 . S
H1173 C1188 0.960 . S
H1174 C1188 0.960 . S
H1175 C1188 0.960 . S
C1176 H1168 0.929 . S
C1176 C1177 1.377 . S
C1176 C1178 1.384 1_556 S
C1177 C1176 1.377 . S
C1177 C1183 1.390 1_556 S
C1178 H1169 0.930 . S
C1178 C1176 1.384 1_554 S
C1178 C1179 1.372 . S
C1179 C1178 1.372 . S
C1179 C1180 1.400 . S
C1179 C1184 1.490 . S
C1180 H1170 0.930 . S
C1180 C1179 1.400 . S
C1180 C1183 1.386 . S
H1181 C1197 0.930 . S
H1182 C1198 0.931 . S
C1183 H1171 0.929 . S
C1183 C1177 1.390 1_554 S
C1183 C1180 1.386 . S
C1184 C1179 1.490 . S
C1184 C1186 1.395 . S
C1184 C1187 1.403 . S
H1185 C1191 0.930 . S
C1186 H1172 0.930 . S
C1186 C1184 1.395 . S
C1186 C1189 1.403 . S
C1187 C1184 1.403 . S
C1187 C1188 1.524 . S
C1187 C1191 1.400 . S
C1188 H1173 0.960 . S
C1188 H1174 0.960 . S
C1188 H1175 0.960 . S
C1188 C1187 1.524 . S
C1189 C1186 1.403 . S
C1189 C1190 1.392 . S
C1189 C1193 1.495 . S
C1190 C1189 1.392 . S
C1190 C1191 1.385 . S
C1190 C1192 1.478 . S
C1191 H1185 0.930 . S
C1191 C1187 1.400 . S
C1191 C1190 1.385 . S
C1192 C1190 1.478 . S
C1192 C1194 1.381 . S
C1192 C1198 1.383 . S
C1193 C1189 1.495 . S
C1193 H1199 0.959 . S
C1193 H1200 0.961 . S
C1193 H1201 0.960 . S
C1194 C1192 1.381 . S
C1194 C1195 1.394 . S
C1194 H1202 0.930 . S
C1195 C1194 1.394 . S
C1195 C1196 1.383 . S
C1195 H1203 0.929 . S
C1196 C1195 1.383 . S
C1196 C1197 1.377 . S
C1197 H1181 0.930 . S
C1197 C1196 1.377 . S
C1197 C1198 1.379 . S
C1198 H1182 0.931 . S
C1198 C1192 1.383 . S
C1198 C1197 1.379 . S
H1199 C1193 0.959 . S
H1200 C1193 0.961 . S
H1201 C1193 0.960 . S
H1202 C1194 0.930 . S
H1203 C1195 0.929 . S
H1204 C1212 0.929 . S
H1205 C1214 0.930 . S
H1206 C1216 0.930 . S
H1207 C1219 0.929 . S
H1208 C1222 0.930 . S
H1209 C1224 0.960 . S
H1210 C1224 0.960 . S
H1211 C1224 0.960 . S
C1212 H1204 0.929 . S
C1212 C1213 1.377 . S
C1212 C1214 1.384 1_554 S
C1213 C1212 1.377 . S
C1213 C1219 1.390 1_554 S
C1214 H1205 0.930 . S
C1214 C1212 1.384 1_556 S
C1214 C1215 1.372 . S
C1215 C1214 1.372 . S
C1215 C1216 1.400 . S
C1215 C1220 1.490 . S
C1216 H1206 0.930 . S
C1216 C1215 1.400 . S
C1216 C1219 1.386 . S
H1217 C1233 0.930 . S
H1218 C1234 0.931 . S
C1219 H1207 0.929 . S
C1219 C1213 1.390 1_556 S
C1219 C1216 1.386 . S
C1220 C1215 1.490 . S
C1220 C1222 1.395 . S
C1220 C1223 1.403 . S
H1221 C1227 0.930 . S
C1222 H1208 0.930 . S
C1222 C1220 1.395 . S
C1222 C1225 1.403 . S
C1223 C1220 1.403 . S
C1223 C1224 1.524 . S
C1223 C1227 1.400 . S
C1224 H1209 0.960 . S
C1224 H1210 0.960 . S
C1224 H1211 0.960 . S
C1224 C1223 1.524 . S
C1225 C1222 1.403 . S
C1225 C1226 1.392 . S
C1225 C1229 1.495 . S
C1226 C1225 1.392 . S
C1226 C1227 1.385 . S
C1226 C1228 1.478 . S
C1227 H1221 0.930 . S
C1227 C1223 1.400 . S
C1227 C1226 1.385 . S
C1228 C1226 1.478 . S
C1228 C1230 1.381 . S
C1228 C1234 1.383 . S
C1229 C1225 1.495 . S
C1229 H1235 0.959 . S
C1229 H1236 0.961 . S
C1229 H1237 0.960 . S
C1230 C1228 1.381 . S
C1230 C1231 1.394 . S
C1230 H1238 0.930 . S
C1231 C1230 1.394 . S
C1231 C1232 1.383 . S
C1231 H1239 0.929 . S
C1232 C1231 1.383 . S
C1232 C1233 1.377 . S
C1233 H1217 0.930 . S
C1233 C1232 1.377 . S
C1233 C1234 1.379 . S
C1234 H1218 0.931 . S
C1234 C1228 1.383 . S
C1234 C1233 1.379 . S
H1235 C1229 0.959 . S
H1236 C1229 0.961 . S
H1237 C1229 0.960 . S
H1238 C1230 0.930 . S
H1239 C1231 0.929 . S
H1240 C1248 0.929 . S
H1241 C1250 0.930 . S
H1242 C1252 0.930 . S
H1243 C1255 0.929 . S
H1244 C1258 0.930 . S
H1245 C1260 0.960 . S
H1246 C1260 0.960 . S
H1247 C1260 0.960 . S
C1248 H1240 0.929 . S
C1248 C1249 1.377 . S
C1248 C1250 1.384 . S
C1249 C1248 1.377 . S
C1249 C1255 1.390 . S
C1250 H1241 0.930 . S
C1250 C1248 1.384 . S
C1250 C1251 1.372 . S
C1251 C1250 1.372 . S
C1251 C1252 1.400 . S
C1251 C1256 1.490 . S
C1252 H1242 0.930 . S
C1252 C1251 1.400 . S
C1252 C1255 1.386 . S
H1253 C1269 0.930 . S
H1254 C1270 0.931 . S
C1255 H1243 0.929 . S
C1255 C1249 1.390 . S
C1255 C1252 1.386 . S
C1256 C1251 1.490 . S
C1256 C1258 1.395 . S
C1256 C1259 1.403 . S
H1257 C1263 0.930 . S
C1258 H1244 0.930 . S
C1258 C1256 1.395 . S
C1258 C1261 1.403 . S
C1259 C1256 1.403 . S
C1259 C1260 1.524 . S
C1259 C1263 1.400 . S
C1260 H1245 0.960 . S
C1260 H1246 0.960 . S
C1260 H1247 0.960 . S
C1260 C1259 1.524 . S
C1261 C1258 1.403 . S
C1261 C1262 1.392 . S
C1261 C1265 1.495 . S
C1262 C1261 1.392 . S
C1262 C1263 1.385 . S
C1262 C1264 1.478 . S
C1263 H1257 0.930 . S
C1263 C1259 1.400 . S
C1263 C1262 1.385 . S
C1264 C1262 1.478 . S
C1264 C1266 1.381 . S
C1264 C1270 1.383 . S
C1265 C1261 1.495 . S
C1265 H1271 0.959 . S
C1265 H1272 0.961 . S
C1265 H1273 0.960 . S
C1266 C1264 1.381 . S
C1266 C1267 1.394 . S
C1266 H1274 0.930 . S
C1267 C1266 1.394 . S
C1267 C1268 1.383 . S
C1267 H1275 0.929 . S
C1268 C1267 1.383 . S
C1268 C1269 1.377 . S
C1269 H1253 0.930 . S
C1269 C1268 1.377 . S
C1269 C1270 1.379 . S
C1270 H1254 0.931 . S
C1270 C1264 1.383 . S
C1270 C1269 1.379 . S
H1271 C1265 0.959 . S
H1272 C1265 0.961 . S
H1273 C1265 0.960 . S
H1274 C1266 0.930 . S
H1275 C1267 0.929 . S
H1276 C1284 0.929 . S
H1277 C1286 0.930 . S
H1278 C1288 0.930 . S
H1279 C1291 0.929 . S
H1280 C1294 0.930 . S
H1281 C1296 0.960 . S
H1282 C1296 0.960 . S
H1283 C1296 0.960 . S
C1284 H1276 0.929 . S
C1284 C1285 1.377 . S
C1284 C1286 1.384 . S
C1285 C1284 1.377 . S
C1285 C1291 1.390 . S
C1286 H1277 0.930 . S
C1286 C1284 1.384 . S
C1286 C1287 1.372 . S
C1287 C1286 1.372 . S
C1287 C1288 1.400 . S
C1287 C1292 1.490 . S
C1288 H1278 0.930 . S
C1288 C1287 1.400 . S
C1288 C1291 1.386 . S
H1289 C1305 0.930 . S
H1290 C1306 0.931 . S
C1291 H1279 0.929 . S
C1291 C1285 1.390 . S
C1291 C1288 1.386 . S
C1292 C1287 1.490 . S
C1292 C1294 1.395 . S
C1292 C1295 1.403 . S
H1293 C1299 0.930 . S
C1294 H1280 0.930 . S
C1294 C1292 1.395 . S
C1294 C1297 1.403 . S
C1295 C1292 1.403 . S
C1295 C1296 1.524 . S
C1295 C1299 1.400 . S
C1296 H1281 0.960 . S
C1296 H1282 0.960 . S
C1296 H1283 0.960 . S
C1296 C1295 1.524 . S
C1297 C1294 1.403 . S
C1297 C1298 1.392 . S
C1297 C1301 1.495 . S
C1298 C1297 1.392 . S
C1298 C1299 1.385 . S
C1298 C1300 1.478 . S
C1299 H1293 0.930 . S
C1299 C1295 1.400 . S
C1299 C1298 1.385 . S
C1300 C1298 1.478 . S
C1300 C1302 1.381 . S
C1300 C1306 1.383 . S
C1301 C1297 1.495 . S
C1301 H1307 0.959 . S
C1301 H1308 0.961 . S
C1301 H1309 0.960 . S
C1302 C1300 1.381 . S
C1302 C1303 1.394 . S
C1302 H1310 0.930 . S
C1303 C1302 1.394 . S
C1303 C1304 1.383 . S
C1303 H1311 0.929 . S
C1304 C1303 1.383 . S
C1304 C1305 1.377 . S
C1305 H1289 0.930 . S
C1305 C1304 1.377 . S
C1305 C1306 1.379 . S
C1306 H1290 0.931 . S
C1306 C1300 1.383 . S
C1306 C1305 1.379 . S
H1307 C1301 0.959 . S
H1308 C1301 0.961 . S
H1309 C1301 0.960 . S
H1310 C1302 0.930 . S
H1311 C1303 0.929 . S
H1312 C1320 0.929 . S
H1313 C1322 0.930 . S
H1314 C1324 0.930 . S
H1315 C1327 0.929 . S
H1316 C1330 0.930 . S
H1317 C1332 0.960 . S
H1318 C1332 0.960 . S
H1319 C1332 0.960 . S
C1320 H1312 0.929 . S
C1320 C1321 1.377 . S
C1320 C1322 1.384 . S
C1321 C1320 1.377 . S
C1321 C1327 1.390 . S
C1322 H1313 0.930 . S
C1322 C1320 1.384 . S
C1322 C1323 1.372 . S
C1323 C1322 1.372 . S
C1323 C1324 1.400 . S
C1323 C1328 1.490 . S
C1324 H1314 0.930 . S
C1324 C1323 1.400 . S
C1324 C1327 1.386 . S
H1325 C1341 0.930 . S
H1326 C1342 0.931 . S
C1327 H1315 0.929 . S
C1327 C1321 1.390 . S
C1327 C1324 1.386 . S
C1328 C1323 1.490 . S
C1328 C1330 1.395 . S
C1328 C1331 1.403 . S
H1329 C1335 0.930 . S
C1330 H1316 0.930 . S
C1330 C1328 1.395 . S
C1330 C1333 1.403 . S
C1331 C1328 1.403 . S
C1331 C1332 1.524 . S
C1331 C1335 1.400 . S
C1332 H1317 0.960 . S
C1332 H1318 0.960 . S
C1332 H1319 0.960 . S
C1332 C1331 1.524 . S
C1333 C1330 1.403 . S
C1333 C1334 1.392 . S
C1333 C1337 1.495 . S
C1334 C1333 1.392 . S
C1334 C1335 1.385 . S
C1334 C1336 1.478 . S
C1335 H1329 0.930 . S
C1335 C1331 1.400 . S
C1335 C1334 1.385 . S
C1336 C1334 1.478 . S
C1336 C1338 1.381 . S
C1336 C1342 1.383 . S
C1337 C1333 1.495 . S
C1337 H1343 0.959 . S
C1337 H1344 0.961 . S
C1337 H1345 0.960 . S
C1338 C1336 1.381 . S
C1338 C1339 1.394 . S
C1338 H1346 0.930 . S
C1339 C1338 1.394 . S
C1339 C1340 1.383 . S
C1339 H1347 0.929 . S
C1340 C1339 1.383 . S
C1340 C1341 1.377 . S
C1341 H1325 0.930 . S
C1341 C1340 1.377 . S
C1341 C1342 1.379 . S
C1342 H1326 0.931 . S
C1342 C1336 1.383 . S
C1342 C1341 1.379 . S
H1343 C1337 0.959 . S
H1344 C1337 0.961 . S
H1345 C1337 0.960 . S
H1346 C1338 0.930 . S
H1347 C1339 0.929 . S
H1348 C1356 0.929 . S
H1349 C1358 0.930 . S
H1350 C1360 0.930 . S
H1351 C1363 0.929 . S
H1352 C1366 0.930 . S
H1353 C1368 0.960 . S
H1354 C1368 0.960 . S
H1355 C1368 0.960 . S
C1356 H1348 0.929 . S
C1356 C1357 1.377 . S
C1356 C1358 1.384 . S
C1357 C1356 1.377 . S
C1357 C1363 1.390 . S
C1358 H1349 0.930 . S
C1358 C1356 1.384 . S
C1358 C1359 1.372 . S
C1359 C1358 1.372 . S
C1359 C1360 1.400 . S
C1359 C1364 1.490 . S
C1360 H1350 0.930 . S
C1360 C1359 1.400 . S
C1360 C1363 1.386 . S
H1361 C1377 0.930 . S
H1362 C1378 0.931 . S
C1363 H1351 0.929 . S
C1363 C1357 1.390 . S
C1363 C1360 1.386 . S
C1364 C1359 1.490 . S
C1364 C1366 1.395 . S
C1364 C1367 1.403 . S
H1365 C1371 0.930 . S
C1366 H1352 0.930 . S
C1366 C1364 1.395 . S
C1366 C1369 1.403 . S
C1367 C1364 1.403 . S
C1367 C1368 1.524 . S
C1367 C1371 1.400 . S
C1368 H1353 0.960 . S
C1368 H1354 0.960 . S
C1368 H1355 0.960 . S
C1368 C1367 1.524 . S
C1369 C1366 1.403 . S
C1369 C1370 1.392 . S
C1369 C1373 1.495 . S
C1370 C1369 1.392 . S
C1370 C1371 1.385 . S
C1370 C1372 1.478 . S
C1371 H1365 0.930 . S
C1371 C1367 1.400 . S
C1371 C1370 1.385 . S
C1372 C1370 1.478 . S
C1372 C1374 1.381 . S
C1372 C1378 1.383 . S
C1373 C1369 1.495 . S
C1373 H1379 0.959 . S
C1373 H1380 0.961 . S
C1373 H1381 0.960 . S
C1374 C1372 1.381 . S
C1374 C1375 1.394 . S
C1374 H1382 0.930 . S
C1375 C1374 1.394 . S
C1375 C1376 1.383 . S
C1375 H1383 0.929 . S
C1376 C1375 1.383 . S
C1376 C1377 1.377 . S
C1377 H1361 0.930 . S
C1377 C1376 1.377 . S
C1377 C1378 1.379 . S
C1378 H1362 0.931 . S
C1378 C1372 1.383 . S
C1378 C1377 1.379 . S
H1379 C1373 0.959 . S
H1380 C1373 0.961 . S
H1381 C1373 0.960 . S
H1382 C1374 0.930 . S
H1383 C1375 0.929 . S
H1384 C1392 0.929 . S
H1385 C1394 0.930 . S
H1386 C1396 0.930 . S
H1387 C1399 0.929 . S
H1388 C1402 0.930 . S
H1389 C1404 0.960 . S
H1390 C1404 0.960 . S
H1391 C1404 0.960 . S
C1392 H1384 0.929 . S
C1392 C1393 1.377 . S
C1392 C1394 1.384 . S
C1393 C1392 1.377 . S
C1393 C1399 1.390 . S
C1394 H1385 0.930 . S
C1394 C1392 1.384 . S
C1394 C1395 1.372 . S
C1395 C1394 1.372 . S
C1395 C1396 1.400 . S
C1395 C1400 1.490 . S
C1396 H1386 0.930 . S
C1396 C1395 1.400 . S
C1396 C1399 1.386 . S
H1397 C1413 0.931 . S
H1398 C1414 0.931 . S
C1399 H1387 0.929 . S
C1399 C1393 1.390 . S
C1399 C1396 1.386 . S
C1400 C1395 1.490 . S
C1400 C1402 1.395 . S
C1400 C1403 1.403 . S
H1401 C1407 0.930 . S
C1402 H1388 0.930 . S
C1402 C1400 1.395 . S
C1402 C1405 1.403 . S
C1403 C1400 1.403 . S
C1403 C1404 1.524 . S
C1403 C1407 1.400 . S
C1404 H1389 0.960 . S
C1404 H1390 0.960 . S
C1404 H1391 0.960 . S
C1404 C1403 1.524 . S
C1405 C1402 1.403 . S
C1405 C1406 1.392 . S
C1405 C1409 1.495 . S
C1406 C1405 1.392 . S
C1406 C1407 1.385 . S
C1406 C1408 1.478 . S
C1407 H1401 0.930 . S
C1407 C1403 1.400 . S
C1407 C1406 1.385 . S
C1408 C1406 1.478 . S
C1408 C1410 1.381 . S
C1408 C1414 1.383 . S
C1409 C1405 1.495 . S
C1409 H1415 0.959 . S
C1409 H1416 0.961 . S
C1409 H1417 0.960 . S
C1410 C1408 1.381 . S
C1410 C1411 1.394 1_556 S
C1410 H1418 0.930 . S
C1411 C1410 1.394 1_554 S
C1411 C1412 1.383 . S
C1411 H1419 0.929 . S
C1412 C1411 1.383 . S
C1412 C1413 1.379 . S
C1413 H1397 0.931 . S
C1413 C1412 1.379 . S
C1413 C1414 1.375 1_554 S
C1414 H1398 0.931 . S
C1414 C1408 1.383 . S
C1414 C1413 1.375 1_556 S
H1415 C1409 0.959 . S
H1416 C1409 0.961 . S
H1417 C1409 0.960 . S
H1418 C1410 0.930 . S
H1419 C1411 0.929 . S
H1420 C1428 0.929 . S
H1421 C1430 0.930 . S
H1422 C1432 0.930 . S
H1423 C1435 0.929 . S
H1424 C1438 0.930 . S
H1425 C1440 0.960 . S
H1426 C1440 0.960 . S
H1427 C1440 0.960 . S
C1428 H1420 0.929 . S
C1428 C1429 1.377 . S
C1428 C1430 1.384 . S
C1429 C1428 1.377 . S
C1429 C1435 1.390 . S
C1430 H1421 0.930 . S
C1430 C1428 1.384 . S
C1430 C1431 1.372 . S
C1431 C1430 1.372 . S
C1431 C1432 1.400 . S
C1431 C1436 1.490 . S
C1432 H1422 0.930 . S
C1432 C1431 1.400 . S
C1432 C1435 1.386 . S
H1433 C1449 0.930 . S
H1434 C1450 0.931 . S
C1435 H1423 0.929 . S
C1435 C1429 1.390 . S
C1435 C1432 1.386 . S
C1436 C1431 1.490 . S
C1436 C1438 1.395 . S
C1436 C1439 1.403 . S
H1437 C1443 0.930 . S
C1438 H1424 0.930 . S
C1438 C1436 1.395 . S
C1438 C1441 1.403 . S
C1439 C1436 1.403 . S
C1439 C1440 1.524 . S
C1439 C1443 1.400 . S
C1440 H1425 0.960 . S
C1440 H1426 0.960 . S
C1440 H1427 0.960 . S
C1440 C1439 1.524 . S
C1441 C1438 1.403 . S
C1441 C1442 1.392 . S
C1441 C1445 1.495 . S
C1442 C1441 1.392 . S
C1442 C1443 1.385 . S
C1442 C1444 1.478 . S
C1443 H1437 0.930 . S
C1443 C1439 1.400 . S
C1443 C1442 1.385 . S
C1444 C1442 1.478 . S
C1444 C1446 1.381 . S
C1444 C1450 1.383 . S
C1445 C1441 1.495 . S
C1445 H1451 0.959 . S
C1445 H1452 0.961 . S
C1445 H1453 0.960 . S
C1446 C1444 1.381 . S
C1446 C1447 1.394 . S
C1446 H1454 0.930 . S
C1447 C1446 1.394 . S
C1447 C1448 1.383 1_554 S
C1447 H1455 0.929 . S
C1448 C1447 1.383 1_556 S
C1448 C1449 1.377 . S
C1449 H1433 0.930 . S
C1449 C1448 1.377 . S
C1449 C1450 1.379 1_556 S
C1450 H1434 0.931 . S
C1450 C1444 1.383 . S
C1450 C1449 1.379 1_554 S
H1451 C1445 0.959 . S
H1452 C1445 0.961 . S
H1453 C1445 0.960 . S
H1454 C1446 0.930 . S
H1455 C1447 0.929 . S
H1456 C1464 0.929 . S
H1457 C1466 0.930 . S
H1458 C1468 0.930 . S
H1459 C1471 0.929 . S
H1460 C1474 0.930 . S
H1461 C1476 0.960 . S
H1462 C1476 0.960 . S
H1463 C1476 0.960 . S
C1464 H1456 0.929 . S
C1464 C1465 1.377 . S
C1464 C1466 1.384 . S
C1465 C1464 1.377 . S
C1465 C1471 1.390 . S
C1466 H1457 0.930 . S
C1466 C1464 1.384 . S
C1466 C1467 1.372 . S
C1467 C1466 1.372 . S
C1467 C1468 1.400 . S
C1467 C1472 1.490 . S
C1468 H1458 0.930 . S
C1468 C1467 1.400 . S
C1468 C1471 1.386 . S
H1469 C1485 0.930 . S
H1470 C1486 0.931 . S
C1471 H1459 0.929 . S
C1471 C1465 1.390 . S
C1471 C1468 1.386 . S
C1472 C1467 1.490 . S
C1472 C1474 1.395 . S
C1472 C1475 1.403 . S
H1473 C1479 0.930 . S
C1474 H1460 0.930 . S
C1474 C1472 1.395 . S
C1474 C1477 1.403 . S
C1475 C1472 1.403 . S
C1475 C1476 1.524 . S
C1475 C1479 1.400 . S
C1476 H1461 0.960 . S
C1476 H1462 0.960 . S
C1476 H1463 0.960 . S
C1476 C1475 1.524 . S
C1477 C1474 1.403 . S
C1477 C1478 1.392 . S
C1477 C1481 1.495 . S
C1478 C1477 1.392 . S
C1478 C1479 1.385 . S
C1478 C1480 1.478 . S
C1479 H1473 0.930 . S
C1479 C1475 1.400 . S
C1479 C1478 1.385 . S
C1480 C1478 1.478 . S
C1480 C1482 1.381 . S
C1480 C1486 1.383 . S
C1481 C1477 1.495 . S
C1481 H1487 0.959 . S
C1481 H1488 0.961 . S
C1481 H1489 0.960 . S
C1482 C1480 1.381 . S
C1482 C1483 1.394 . S
C1482 H1490 0.930 . S
C1483 C1482 1.394 . S
C1483 C1484 1.383 . S
C1483 H1491 0.929 . S
C1484 C1483 1.383 . S
C1484 C1485 1.377 . S
C1485 H1469 0.930 . S
C1485 C1484 1.377 . S
C1485 C1486 1.379 . S
C1486 H1470 0.931 . S
C1486 C1480 1.383 . S
C1486 C1485 1.379 . S
H1487 C1481 0.959 . S
H1488 C1481 0.961 . S
H1489 C1481 0.960 . S
H1490 C1482 0.930 . S
H1491 C1483 0.929 . S
H1492 C1500 0.929 . S
H1493 C1502 0.930 . S
H1494 C1504 0.930 . S
H1495 C1507 0.929 . S
H1496 C1510 0.930 . S
H1497 C1512 0.960 . S
H1498 C1512 0.960 . S
H1499 C1512 0.960 . S
C1500 H1492 0.929 . S
C1500 C1501 1.377 . S
C1500 C1502 1.384 . S
C1501 C1500 1.377 . S
C1501 C1507 1.390 . S
C1502 H1493 0.930 . S
C1502 C1500 1.384 . S
C1502 C1503 1.372 . S
C1503 C1502 1.372 . S
C1503 C1504 1.400 . S
C1503 C1508 1.490 . S
C1504 H1494 0.930 . S
C1504 C1503 1.400 . S
C1504 C1507 1.386 . S
H1505 C1521 0.930 . S
H1506 C1522 0.931 . S
C1507 H1495 0.929 . S
C1507 C1501 1.390 . S
C1507 C1504 1.386 . S
C1508 C1503 1.490 . S
C1508 C1510 1.395 . S
C1508 C1511 1.403 . S
H1509 C1515 0.930 . S
C1510 H1496 0.930 . S
C1510 C1508 1.395 . S
C1510 C1513 1.403 . S
C1511 C1508 1.403 . S
C1511 C1512 1.524 . S
C1511 C1515 1.400 . S
C1512 H1497 0.960 . S
C1512 H1498 0.960 . S
C1512 H1499 0.960 . S
C1512 C1511 1.524 . S
C1513 C1510 1.403 . S
C1513 C1514 1.392 . S
C1513 C1517 1.495 . S
C1514 C1513 1.392 . S
C1514 C1515 1.385 . S
C1514 C1516 1.478 . S
C1515 H1509 0.930 . S
C1515 C1511 1.400 . S
C1515 C1514 1.385 . S
C1516 C1514 1.478 . S
C1516 C1518 1.381 . S
C1516 C1522 1.383 . S
C1517 C1513 1.495 . S
C1517 H1523 0.959 . S
C1517 H1524 0.961 . S
C1517 H1525 0.960 . S
C1518 C1516 1.381 . S
C1518 C1519 1.394 . S
C1518 H1526 0.930 . S
C1519 C1518 1.394 . S
C1519 C1520 1.383 . S
C1519 H1527 0.929 . S
C1520 C1519 1.383 . S
C1520 C1521 1.377 . S
C1521 H1505 0.930 . S
C1521 C1520 1.377 . S
C1521 C1522 1.379 . S
C1522 H1506 0.931 . S
C1522 C1516 1.383 . S
C1522 C1521 1.379 . S
H1523 C1517 0.959 . S
H1524 C1517 0.961 . S
H1525 C1517 0.960 . S
H1526 C1518 0.930 . S
H1527 C1519 0.929 . S
H1528 C1536 0.929 . S
H1529 C1538 0.930 . S
H1530 C1540 0.930 . S
H1531 C1543 0.929 . S
H1532 C1546 0.930 . S
H1533 C1548 0.960 . S
H1534 C1548 0.960 . S
H1535 C1548 0.960 . S
C1536 H1528 0.929 . S
C1536 C1537 1.377 . S
C1536 C1538 1.384 1_556 S
C1537 C1536 1.377 . S
C1537 C1543 1.390 1_556 S
C1538 H1529 0.930 . S
C1538 C1536 1.384 1_554 S
C1538 C1539 1.372 . S
C1539 C1538 1.372 . S
C1539 C1540 1.400 . S
C1539 C1544 1.490 . S
C1540 H1530 0.930 . S
C1540 C1539 1.400 . S
C1540 C1543 1.386 . S
H1541 C1557 0.930 . S
H1542 C1558 0.931 . S
C1543 H1531 0.929 . S
C1543 C1537 1.390 1_554 S
C1543 C1540 1.386 . S
C1544 C1539 1.490 . S
C1544 C1546 1.395 . S
C1544 C1547 1.403 . S
H1545 C1551 0.930 . S
C1546 H1532 0.930 . S
C1546 C1544 1.395 . S
C1546 C1549 1.403 . S
C1547 C1544 1.403 . S
C1547 C1548 1.524 . S
C1547 C1551 1.400 . S
C1548 H1533 0.960 . S
C1548 H1534 0.960 . S
C1548 H1535 0.960 . S
C1548 C1547 1.524 . S
C1549 C1546 1.403 . S
C1549 C1550 1.392 . S
C1549 C1553 1.495 . S
C1550 C1549 1.392 . S
C1550 C1551 1.385 . S
C1550 C1552 1.478 . S
C1551 H1545 0.930 . S
C1551 C1547 1.400 . S
C1551 C1550 1.385 . S
C1552 C1550 1.478 . S
C1552 C1554 1.381 . S
C1552 C1558 1.383 . S
C1553 C1549 1.495 . S
C1553 H1559 0.959 . S
C1553 H1560 0.961 . S
C1553 H1561 0.960 . S
C1554 C1552 1.381 . S
C1554 C1555 1.394 . S
C1554 H1562 0.930 . S
C1555 C1554 1.394 . S
C1555 C1556 1.383 . S
C1555 H1563 0.929 . S
C1556 C1555 1.383 . S
C1556 C1557 1.377 . S
C1557 H1541 0.930 . S
C1557 C1556 1.377 . S
C1557 C1558 1.379 . S
C1558 H1542 0.931 . S
C1558 C1552 1.383 . S
C1558 C1557 1.379 . S
H1559 C1553 0.959 . S
H1560 C1553 0.961 . S
H1561 C1553 0.960 . S
H1562 C1554 0.930 . S
H1563 C1555 0.929 . S
H1564 C1572 0.929 . S
H1565 C1574 0.930 . S
H1566 C1576 0.930 . S
H1567 C1579 0.929 . S
H1568 C1582 0.930 . S
H1569 C1584 0.960 . S
H1570 C1584 0.960 . S
H1571 C1584 0.960 . S
C1572 H1564 0.929 . S
C1572 C1573 1.377 . S
C1572 C1574 1.384 . S
C1573 C1572 1.377 . S
C1573 C1579 1.390 . S
C1574 H1565 0.930 . S
C1574 C1572 1.384 . S
C1574 C1575 1.372 . S
C1575 C1574 1.372 . S
C1575 C1576 1.400 . S
C1575 C1580 1.490 . S
C1576 H1566 0.930 . S
C1576 C1575 1.400 . S
C1576 C1579 1.386 . S
H1577 C1593 0.930 . S
H1578 C1594 0.931 . S
C1579 H1567 0.929 . S
C1579 C1573 1.390 . S
C1579 C1576 1.386 . S
C1580 C1575 1.490 . S
C1580 C1582 1.395 . S
C1580 C1583 1.403 . S
H1581 C1587 0.930 . S
C1582 H1568 0.930 . S
C1582 C1580 1.395 . S
C1582 C1585 1.403 . S
C1583 C1580 1.403 . S
C1583 C1584 1.524 . S
C1583 C1587 1.400 . S
C1584 H1569 0.960 . S
C1584 H1570 0.960 . S
C1584 H1571 0.960 . S
C1584 C1583 1.524 . S
C1585 C1582 1.403 . S
C1585 C1586 1.392 . S
C1585 C1589 1.495 . S
C1586 C1585 1.392 . S
C1586 C1587 1.385 . S
C1586 C1588 1.478 . S
C1587 H1581 0.930 . S
C1587 C1583 1.400 . S
C1587 C1586 1.385 . S
C1588 C1586 1.478 . S
C1588 C1590 1.381 . S
C1588 C1594 1.383 . S
C1589 C1585 1.495 . S
C1589 H1595 0.959 . S
C1589 H1596 0.961 . S
C1589 H1597 0.960 . S
C1590 C1588 1.381 . S
C1590 C1591 1.394 1_556 S
C1590 H1598 0.930 1_556 S
C1591 C1590 1.394 1_554 S
C1591 C1592 1.383 . S
C1591 H1599 0.929 . S
C1592 C1591 1.383 . S
C1592 C1593 1.377 1_554 S
C1593 H1577 0.930 . S
C1593 C1592 1.377 1_556 S
C1593 C1594 1.379 . S
C1594 H1578 0.931 . S
C1594 C1588 1.383 . S
C1594 C1593 1.379 . S
H1595 C1589 0.959 . S
H1596 C1589 0.961 . S
H1597 C1589 0.960 . S
H1598 C1590 0.930 1_554 S
H1599 C1591 0.929 . S
H1600 C1608 0.929 . S
H1601 C1610 0.930 . S
H1602 C1612 0.930 . S
H1603 C1615 0.929 . S
H1604 C1618 0.930 . S
H1605 C1620 0.960 . S
H1606 C1620 0.960 . S
H1607 C1620 0.960 . S
C1608 H1600 0.929 . S
C1608 C1609 1.377 . S
C1608 C1610 1.384 . S
C1609 C1608 1.377 . S
C1609 C1615 1.390 . S
C1610 H1601 0.930 . S
C1610 C1608 1.384 . S
C1610 C1611 1.372 . S
C1611 C1610 1.372 . S
C1611 C1612 1.400 . S
C1611 C1616 1.490 . S
C1612 H1602 0.930 . S
C1612 C1611 1.400 . S
C1612 C1615 1.386 . S
H1613 C1629 0.930 . S
H1614 C1630 0.931 . S
C1615 H1603 0.929 . S
C1615 C1609 1.390 . S
C1615 C1612 1.386 . S
C1616 C1611 1.490 . S
C1616 C1618 1.395 . S
C1616 C1619 1.403 . S
H1617 C1623 0.930 . S
C1618 H1604 0.930 . S
C1618 C1616 1.395 . S
C1618 C1621 1.403 . S
C1619 C1616 1.403 . S
C1619 C1620 1.524 . S
C1619 C1623 1.400 . S
C1620 H1605 0.960 . S
C1620 H1606 0.960 . S
C1620 H1607 0.960 . S
C1620 C1619 1.524 . S
C1621 C1618 1.403 . S
C1621 C1622 1.392 . S
C1621 C1625 1.495 . S
C1622 C1621 1.392 . S
C1622 C1623 1.385 . S
C1622 C1624 1.478 . S
C1623 H1617 0.930 . S
C1623 C1619 1.400 . S
C1623 C1622 1.385 . S
C1624 C1622 1.478 . S
C1624 C1626 1.381 . S
C1624 C1630 1.383 . S
C1625 C1621 1.495 . S
C1625 H1631 0.959 . S
C1625 H1632 0.961 . S
C1625 H1633 0.960 . S
C1626 C1624 1.381 . S
C1626 C1627 1.394 . S
C1626 H1634 0.930 . S
C1627 C1626 1.394 . S
C1627 C1628 1.383 . S
C1627 H1635 0.929 . S
C1628 C1627 1.383 . S
C1628 C1629 1.377 . S
C1629 H1613 0.930 . S
C1629 C1628 1.377 . S
C1629 C1630 1.379 . S
C1630 H1614 0.931 . S
C1630 C1624 1.383 . S
C1630 C1629 1.379 . S
H1631 C1625 0.959 . S
H1632 C1625 0.961 . S
H1633 C1625 0.960 . S
H1634 C1626 0.930 . S
H1635 C1627 0.929 . S
H1636 C1644 0.929 . S
H1637 C1646 0.930 . S
H1638 C1648 0.930 . S
H1639 C1651 0.929 . S
H1640 C1654 0.930 . S
H1641 C1656 0.960 . S
H1642 C1656 0.960 . S
H1643 C1656 0.960 . S
C1644 H1636 0.929 . S
C1644 C1645 1.377 . S
C1644 C1646 1.384 . S
C1645 C1644 1.377 . S
C1645 C1651 1.390 . S
C1646 H1637 0.930 . S
C1646 C1644 1.384 . S
C1646 C1647 1.372 . S
C1647 C1646 1.372 . S
C1647 C1648 1.400 . S
C1647 C1652 1.490 . S
C1648 H1638 0.930 . S
C1648 C1647 1.400 . S
C1648 C1651 1.386 . S
H1649 C1665 0.930 . S
H1650 C1666 0.931 . S
C1651 H1639 0.929 . S
C1651 C1645 1.390 . S
C1651 C1648 1.386 . S
C1652 C1647 1.490 . S
C1652 C1654 1.395 . S
C1652 C1655 1.403 . S
H1653 C1659 0.930 . S
C1654 H1640 0.930 . S
C1654 C1652 1.395 . S
C1654 C1657 1.403 1_655 S
C1655 C1652 1.403 . S
C1655 C1656 1.524 . S
C1655 C1659 1.400 1_655 S
C1656 H1641 0.960 . S
C1656 H1642 0.960 . S
C1656 H1643 0.960 . S
C1656 C1655 1.524 . S
C1657 C1654 1.403 1_455 S
C1657 C1658 1.392 . S
C1657 C1661 1.495 . S
C1658 C1657 1.392 . S
C1658 C1659 1.385 . S
C1658 C1660 1.478 . S
C1659 H1653 0.930 . S
C1659 C1655 1.400 1_455 S
C1659 C1658 1.385 . S
C1660 C1658 1.478 . S
C1660 C1662 1.381 . S
C1660 C1666 1.383 . S
C1661 C1657 1.495 . S
C1661 H1667 0.959 . S
C1661 H1668 0.961 . S
C1661 H1669 0.960 . S
C1662 C1660 1.381 . S
C1662 C1663 1.394 . S
C1662 H1670 0.930 . S
C1663 C1662 1.394 . S
C1663 C1664 1.383 . S
C1663 H1671 0.929 . S
C1664 C1663 1.383 . S
C1664 C1665 1.377 . S
C1665 H1649 0.930 . S
C1665 C1664 1.377 . S
C1665 C1666 1.379 . S
C1666 H1650 0.931 . S
C1666 C1660 1.383 . S
C1666 C1665 1.379 . S
H1667 C1661 0.959 . S
H1668 C1661 0.961 . S
H1669 C1661 0.960 . S
H1670 C1662 0.930 . S
H1671 C1663 0.929 . S
H1672 C1680 0.929 . S
H1673 C1682 0.930 . S
H1674 C1684 0.930 . S
H1675 C1687 0.929 . S
H1676 C1690 0.930 . S
H1677 C1692 0.960 . S
H1678 C1692 0.960 . S
H1679 C1692 0.960 . S
C1680 H1672 0.929 . S
C1680 C1681 1.377 . S
C1680 C1682 1.384 . S
C1681 C1680 1.377 . S
C1681 C1687 1.390 . S
C1682 H1673 0.930 . S
C1682 C1680 1.384 . S
C1682 C1683 1.372 . S
C1683 C1682 1.372 . S
C1683 C1684 1.400 . S
C1683 C1688 1.490 . S
C1684 H1674 0.930 . S
C1684 C1683 1.400 . S
C1684 C1687 1.386 . S
H1685 C1701 0.930 . S
H1686 C1702 0.931 . S
C1687 H1675 0.929 . S
C1687 C1681 1.390 . S
C1687 C1684 1.386 . S
C1688 C1683 1.490 . S
C1688 C1690 1.395 . S
C1688 C1691 1.403 . S
H1689 C1695 0.930 . S
C1690 H1676 0.930 . S
C1690 C1688 1.395 . S
C1690 C1693 1.403 . S
C1691 C1688 1.403 . S
C1691 C1692 1.524 . S
C1691 C1695 1.400 . S
C1692 H1677 0.960 . S
C1692 H1678 0.960 . S
C1692 H1679 0.960 . S
C1692 C1691 1.524 . S
C1693 C1690 1.403 . S
C1693 C1694 1.392 . S
C1693 C1697 1.495 . S
C1694 C1693 1.392 . S
C1694 C1695 1.385 . S
C1694 C1696 1.478 . S
C1695 H1689 0.930 . S
C1695 C1691 1.400 . S
C1695 C1694 1.385 . S
C1696 C1694 1.478 . S
C1696 C1698 1.381 . S
C1696 C1702 1.383 . S
C1697 C1693 1.495 . S
C1697 H1703 0.959 . S
C1697 H1704 0.961 . S
C1697 H1705 0.960 . S
C1698 C1696 1.381 . S
C1698 C1699 1.394 . S
C1698 H1706 0.930 . S
C1699 C1698 1.394 . S
C1699 C1700 1.383 . S
C1699 H1707 0.929 . S
C1700 C1699 1.383 . S
C1700 C1701 1.377 . S
C1701 H1685 0.930 . S
C1701 C1700 1.377 . S
C1701 C1702 1.379 . S
C1702 H1686 0.931 . S
C1702 C1696 1.383 . S
C1702 C1701 1.379 . S
H1703 C1697 0.959 . S
H1704 C1697 0.961 . S
H1705 C1697 0.960 . S
H1706 C1698 0.930 . S
H1707 C1699 0.929 . S
H1708 C1716 0.929 . S
H1709 C1718 0.930 . S
H1710 C1720 0.930 . S
H1711 C1723 0.929 . S
H1712 C1726 0.930 . S
H1713 C1728 0.960 . S
H1714 C1728 0.960 . S
H1715 C1728 0.960 . S
C1716 H1708 0.929 . S
C1716 C1717 1.377 . S
C1716 C1718 1.384 . S
C1717 C1716 1.377 . S
C1717 C1723 1.390 . S
C1718 H1709 0.930 . S
C1718 C1716 1.384 . S
C1718 C1719 1.372 . S
C1719 C1718 1.372 . S
C1719 C1720 1.400 . S
C1719 C1724 1.490 . S
C1720 H1710 0.930 . S
C1720 C1719 1.400 . S
C1720 C1723 1.386 . S
H1721 C1737 0.930 . S
H1722 C1738 0.931 . S
C1723 H1711 0.929 . S
C1723 C1717 1.390 . S
C1723 C1720 1.386 . S
C1724 C1719 1.490 . S
C1724 C1726 1.395 . S
C1724 C1727 1.403 . S
H1725 C1731 0.930 . S
C1726 H1712 0.930 . S
C1726 C1724 1.395 . S
C1726 C1729 1.403 . S
C1727 C1724 1.403 . S
C1727 C1728 1.524 . S
C1727 C1731 1.400 . S
C1728 H1713 0.960 . S
C1728 H1714 0.960 . S
C1728 H1715 0.960 . S
C1728 C1727 1.524 . S
C1729 C1726 1.403 . S
C1729 C1730 1.392 . S
C1729 C1733 1.495 . S
C1730 C1729 1.392 . S
C1730 C1731 1.385 . S
C1730 C1732 1.478 . S
C1731 H1725 0.930 . S
C1731 C1727 1.400 . S
C1731 C1730 1.385 . S
C1732 C1730 1.478 . S
C1732 C1734 1.381 . S
C1732 C1738 1.383 . S
C1733 C1729 1.495 . S
C1733 H1739 0.959 . S
C1733 H1740 0.961 . S
C1733 H1741 0.960 . S
C1734 C1732 1.381 . S
C1734 C1735 1.394 . S
C1734 H1742 0.930 . S
C1735 C1734 1.394 . S
C1735 C1736 1.383 . S
C1735 H1743 0.929 . S
C1736 C1735 1.383 . S
C1736 C1737 1.377 . S
C1737 H1721 0.930 . S
C1737 C1736 1.377 . S
C1737 C1738 1.379 . S
C1738 H1722 0.931 . S
C1738 C1732 1.383 . S
C1738 C1737 1.379 . S
H1739 C1733 0.959 . S
H1740 C1733 0.961 . S
H1741 C1733 0.960 . S
H1742 C1734 0.930 . S
H1743 C1735 0.929 . S
H1744 C1752 0.929 . S
H1745 C1754 0.930 . S
H1746 C1756 0.930 . S
H1747 C1759 0.929 . S
H1748 C1762 0.930 . S
H1749 C1764 0.960 . S
H1750 C1764 0.960 . S
H1751 C1764 0.960 . S
C1752 H1744 0.929 . S
C1752 C1753 1.377 . S
C1752 C1754 1.384 . S
C1753 C1752 1.377 . S
C1753 C1759 1.390 . S
C1754 H1745 0.930 . S
C1754 C1752 1.384 . S
C1754 C1755 1.372 . S
C1755 C1754 1.372 . S
C1755 C1756 1.400 . S
C1755 C1760 1.490 . S
C1756 H1746 0.930 . S
C1756 C1755 1.400 . S
C1756 C1759 1.386 . S
H1757 C1773 0.930 . S
H1758 C1774 0.931 . S
C1759 H1747 0.929 . S
C1759 C1753 1.390 . S
C1759 C1756 1.386 . S
C1760 C1755 1.490 . S
C1760 C1762 1.395 . S
C1760 C1763 1.403 . S
H1761 C1767 0.930 . S
C1762 H1748 0.930 . S
C1762 C1760 1.395 . S
C1762 C1765 1.403 . S
C1763 C1760 1.403 . S
C1763 C1764 1.524 . S
C1763 C1767 1.400 . S
C1764 H1749 0.960 . S
C1764 H1750 0.960 . S
C1764 H1751 0.960 . S
C1764 C1763 1.524 . S
C1765 C1762 1.403 . S
C1765 C1766 1.392 . S
C1765 C1769 1.495 . S
C1766 C1765 1.392 . S
C1766 C1767 1.385 . S
C1766 C1768 1.478 . S
C1767 H1761 0.930 . S
C1767 C1763 1.400 . S
C1767 C1766 1.385 . S
C1768 C1766 1.478 . S
C1768 C1770 1.381 . S
C1768 C1774 1.383 . S
C1769 C1765 1.495 . S
C1769 H1775 0.959 . S
C1769 H1776 0.961 . S
C1769 H1777 0.960 . S
C1770 C1768 1.381 . S
C1770 C1771 1.394 . S
C1770 H1778 0.930 . S
C1771 C1770 1.394 . S
C1771 C1772 1.383 . S
C1771 H1779 0.929 . S
C1772 C1771 1.383 . S
C1772 C1773 1.377 . S
C1773 H1757 0.930 . S
C1773 C1772 1.377 . S
C1773 C1774 1.379 . S
C1774 H1758 0.931 . S
C1774 C1768 1.383 . S
C1774 C1773 1.379 . S
H1775 C1769 0.959 . S
H1776 C1769 0.961 . S
H1777 C1769 0.960 . S
H1778 C1770 0.930 . S
H1779 C1771 0.929 . S
H1780 C1788 0.929 . S
H1781 C1790 0.930 . S
H1782 C1792 0.930 . S
H1783 C1795 0.929 . S
H1784 C1798 0.930 . S
H1785 C1800 0.960 . S
H1786 C1800 0.960 . S
H1787 C1800 0.960 . S
C1788 H1780 0.929 . S
C1788 C1789 1.377 . S
C1788 C1790 1.384 . S
C1789 C1788 1.377 . S
C1789 C1795 1.390 . S
C1790 H1781 0.930 . S
C1790 C1788 1.384 . S
C1790 C1791 1.372 . S
C1791 C1790 1.372 . S
C1791 C1792 1.400 . S
C1791 C1796 1.490 . S
C1792 H1782 0.930 . S
C1792 C1791 1.400 . S
C1792 C1795 1.386 . S
H1793 C1809 0.930 . S
H1794 C1810 0.931 . S
C1795 H1783 0.929 . S
C1795 C1789 1.390 . S
C1795 C1792 1.386 . S
C1796 C1791 1.490 . S
C1796 C1798 1.395 . S
C1796 C1799 1.403 . S
H1797 C1803 0.930 . S
C1798 H1784 0.930 . S
C1798 C1796 1.395 . S
C1798 C1801 1.403 . S
C1799 C1796 1.403 . S
C1799 C1800 1.524 . S
C1799 C1803 1.400 . S
C1800 H1785 0.960 . S
C1800 H1786 0.960 . S
C1800 H1787 0.960 . S
C1800 C1799 1.524 . S
C1801 C1798 1.403 . S
C1801 C1802 1.392 . S
C1801 C1805 1.495 . S
C1802 C1801 1.392 . S
C1802 C1803 1.385 . S
C1802 C1804 1.478 . S
C1803 H1797 0.930 . S
C1803 C1799 1.400 . S
C1803 C1802 1.385 . S
C1804 C1802 1.478 . S
C1804 C1806 1.381 . S
C1804 C1810 1.383 . S
C1805 C1801 1.495 . S
C1805 H1811 0.959 . S
C1805 H1812 0.961 . S
C1805 H1813 0.960 . S
C1806 C1804 1.381 . S
C1806 C1807 1.394 . S
C1806 H1814 0.930 . S
C1807 C1806 1.394 . S
C1807 C1808 1.383 . S
C1807 H1815 0.929 . S
C1808 C1807 1.383 . S
C1808 C1809 1.377 . S
C1809 H1793 0.930 . S
C1809 C1808 1.377 . S
C1809 C1810 1.379 . S
C1810 H1794 0.931 . S
C1810 C1804 1.383 . S
C1810 C1809 1.379 . S
H1811 C1805 0.959 . S
H1812 C1805 0.961 . S
H1813 C1805 0.960 . S
H1814 C1806 0.930 . S
H1815 C1807 0.929 . S
H1816 C1824 0.929 . S
H1817 C1826 0.930 . S
H1818 C1828 0.930 . S
H1819 C1831 0.929 . S
H1820 C1834 0.930 . S
H1821 C1836 0.960 . S
H1822 C1836 0.960 . S
H1823 C1836 0.960 . S
C1824 H1816 0.929 . S
C1824 C1825 1.377 . S
C1824 C1826 1.384 . S
C1825 C1824 1.377 . S
C1825 C1831 1.390 . S
C1826 H1817 0.930 . S
C1826 C1824 1.384 . S
C1826 C1827 1.372 . S
C1827 C1826 1.372 . S
C1827 C1828 1.400 . S
C1827 C1832 1.490 . S
C1828 H1818 0.930 . S
C1828 C1827 1.400 . S
C1828 C1831 1.386 . S
H1829 C1845 0.930 . S
H1830 C1846 0.931 . S
C1831 H1819 0.929 . S
C1831 C1825 1.390 . S
C1831 C1828 1.386 . S
C1832 C1827 1.490 . S
C1832 C1834 1.395 . S
C1832 C1835 1.403 . S
H1833 C1839 0.930 . S
C1834 H1820 0.930 . S
C1834 C1832 1.395 . S
C1834 C1837 1.403 . S
C1835 C1832 1.403 . S
C1835 C1836 1.524 . S
C1835 C1839 1.400 . S
C1836 H1821 0.960 . S
C1836 H1822 0.960 . S
C1836 H1823 0.960 . S
C1836 C1835 1.524 . S
C1837 C1834 1.403 . S
C1837 C1838 1.392 . S
C1837 C1841 1.495 . S
C1838 C1837 1.392 . S
C1838 C1839 1.385 . S
C1838 C1840 1.478 . S
C1839 H1833 0.930 . S
C1839 C1835 1.400 . S
C1839 C1838 1.385 . S
C1840 C1838 1.478 . S
C1840 C1842 1.381 . S
C1840 C1846 1.383 . S
C1841 C1837 1.495 . S
C1841 H1847 0.959 . S
C1841 H1848 0.961 . S
C1841 H1849 0.960 . S
C1842 C1840 1.381 . S
C1842 C1843 1.394 . S
C1842 H1850 0.930 . S
C1843 C1842 1.394 . S
C1843 C1844 1.383 . S
C1843 H1851 0.929 . S
C1844 C1843 1.383 . S
C1844 C1845 1.377 . S
C1845 H1829 0.930 . S
C1845 C1844 1.377 . S
C1845 C1846 1.379 . S
C1846 H1830 0.931 . S
C1846 C1840 1.383 . S
C1846 C1845 1.379 . S
H1847 C1841 0.959 . S
H1848 C1841 0.961 . S
H1849 C1841 0.960 . S
H1850 C1842 0.930 . S
H1851 C1843 0.929 . S
H1852 C1860 0.929 . S
H1853 C1862 0.930 . S
H1854 C1864 0.930 . S
H1855 C1867 0.929 . S
H1856 C1870 0.930 . S
H1857 C1872 0.960 . S
H1858 C1872 0.960 . S
H1859 C1872 0.960 . S
C1860 H1852 0.929 . S
C1860 C1861 1.377 . S
C1860 C1862 1.384 . S
C1861 C1860 1.377 . S
C1861 C1867 1.390 . S
C1862 H1853 0.930 . S
C1862 C1860 1.384 . S
C1862 C1863 1.372 . S
C1863 C1862 1.372 . S
C1863 C1864 1.400 . S
C1863 C1868 1.490 . S
C1864 H1854 0.930 . S
C1864 C1863 1.400 . S
C1864 C1867 1.386 . S
H1865 C1881 0.930 . S
H1866 C1882 0.931 . S
C1867 H1855 0.929 . S
C1867 C1861 1.390 . S
C1867 C1864 1.386 . S
C1868 C1863 1.490 . S
C1868 C1870 1.395 . S
C1868 C1871 1.403 . S
H1869 C1875 0.930 . S
C1870 H1856 0.930 . S
C1870 C1868 1.395 . S
C1870 C1873 1.403 1_655 S
C1871 C1868 1.403 . S
C1871 C1872 1.524 . S
C1871 C1875 1.400 1_655 S
C1872 H1857 0.960 . S
C1872 H1858 0.960 . S
C1872 H1859 0.960 . S
C1872 C1871 1.524 . S
C1873 C1870 1.403 1_455 S
C1873 C1874 1.392 . S
C1873 C1877 1.495 . S
C1874 C1873 1.392 . S
C1874 C1875 1.385 . S
C1874 C1876 1.478 . S
C1875 H1869 0.930 . S
C1875 C1871 1.400 1_455 S
C1875 C1874 1.385 . S
C1876 C1874 1.478 . S
C1876 C1878 1.381 . S
C1876 C1882 1.383 . S
C1877 C1873 1.495 . S
C1877 H1883 0.959 . S
C1877 H1884 0.961 . S
C1877 H1885 0.960 . S
C1878 C1876 1.381 . S
C1878 C1879 1.394 . S
C1878 H1886 0.930 . S
C1879 C1878 1.394 . S
C1879 C1880 1.383 . S
C1879 H1887 0.929 . S
C1880 C1879 1.383 . S
C1880 C1881 1.377 . S
C1881 H1865 0.930 . S
C1881 C1880 1.377 . S
C1881 C1882 1.379 . S
C1882 H1866 0.931 . S
C1882 C1876 1.383 . S
C1882 C1881 1.379 . S
H1883 C1877 0.959 . S
H1884 C1877 0.961 . S
H1885 C1877 0.960 . S
H1886 C1878 0.930 . S
H1887 C1879 0.929 . S
H1888 C1896 0.929 . S
H1889 C1898 0.930 . S
H1890 C1900 0.930 . S
H1891 C1903 0.929 . S
H1892 C1906 0.930 . S
H1893 C1908 0.960 . S
H1894 C1908 0.960 . S
H1895 C1908 0.960 . S
C1896 H1888 0.929 . S
C1896 C1897 1.377 . S
C1896 C1898 1.384 . S
C1897 C1896 1.377 . S
C1897 C1903 1.390 . S
C1898 H1889 0.930 . S
C1898 C1896 1.384 . S
C1898 C1899 1.372 . S
C1899 C1898 1.372 . S
C1899 C1900 1.400 . S
C1899 C1904 1.490 . S
C1900 H1890 0.930 . S
C1900 C1899 1.400 . S
C1900 C1903 1.386 . S
H1901 C1917 0.930 . S
H1902 C1918 0.931 . S
C1903 H1891 0.929 . S
C1903 C1897 1.390 . S
C1903 C1900 1.386 . S
C1904 C1899 1.490 . S
C1904 C1906 1.395 . S
C1904 C1907 1.403 . S
H1905 C1911 0.930 . S
C1906 H1892 0.930 . S
C1906 C1904 1.395 . S
C1906 C1909 1.403 . S
C1907 C1904 1.403 . S
C1907 C1908 1.524 . S
C1907 C1911 1.400 . S
C1908 H1893 0.960 . S
C1908 H1894 0.960 . S
C1908 H1895 0.960 . S
C1908 C1907 1.524 . S
C1909 C1906 1.403 . S
C1909 C1910 1.392 . S
C1909 C1913 1.495 . S
C1910 C1909 1.392 . S
C1910 C1911 1.385 . S
C1910 C1912 1.478 . S
C1911 H1905 0.930 . S
C1911 C1907 1.400 . S
C1911 C1910 1.385 . S
C1912 C1910 1.478 . S
C1912 C1914 1.381 . S
C1912 C1918 1.383 . S
C1913 C1909 1.495 . S
C1913 H1919 0.959 . S
C1913 H1920 0.961 . S
C1913 H1921 0.960 . S
C1914 C1912 1.381 . S
C1914 C1915 1.394 . S
C1914 H1922 0.930 . S
C1915 C1914 1.394 . S
C1915 C1916 1.383 . S
C1915 H1923 0.929 . S
C1916 C1915 1.383 . S
C1916 C1917 1.377 . S
C1917 H1901 0.930 . S
C1917 C1916 1.377 . S
C1917 C1918 1.379 . S
C1918 H1902 0.931 . S
C1918 C1912 1.383 . S
C1918 C1917 1.379 . S
H1919 C1913 0.959 . S
H1920 C1913 0.961 . S
H1921 C1913 0.960 . S
H1922 C1914 0.930 . S
H1923 C1915 0.929 . S
H1924 C1932 0.929 . S
H1925 C1934 0.930 . S
H1926 C1936 0.930 . S
H1927 C1939 0.929 . S
H1928 C1942 0.930 . S
H1929 C1944 0.960 . S
H1930 C1944 0.960 . S
H1931 C1944 0.960 . S
C1932 H1924 0.929 . S
C1932 C1933 1.377 . S
C1932 C1934 1.384 . S
C1933 C1932 1.377 . S
C1933 C1939 1.390 . S
C1934 H1925 0.930 . S
C1934 C1932 1.384 . S
C1934 C1935 1.372 . S
C1935 C1934 1.372 . S
C1935 C1936 1.400 . S
C1935 C1940 1.490 . S
C1936 H1926 0.930 . S
C1936 C1935 1.400 . S
C1936 C1939 1.386 . S
H1937 C1953 0.930 . S
H1938 C1954 0.931 . S
C1939 H1927 0.929 . S
C1939 C1933 1.390 . S
C1939 C1936 1.386 . S
C1940 C1935 1.490 . S
C1940 C1942 1.395 . S
C1940 C1943 1.403 . S
H1941 C1947 0.930 . S
C1942 H1928 0.930 . S
C1942 C1940 1.395 . S
C1942 C1945 1.403 . S
C1943 C1940 1.403 . S
C1943 C1944 1.524 . S
C1943 C1947 1.400 . S
C1944 H1929 0.960 . S
C1944 H1930 0.960 . S
C1944 H1931 0.960 . S
C1944 C1943 1.524 . S
C1945 C1942 1.403 . S
C1945 C1946 1.392 . S
C1945 C1949 1.495 . S
C1946 C1945 1.392 . S
C1946 C1947 1.385 . S
C1946 C1948 1.478 . S
C1947 H1941 0.930 . S
C1947 C1943 1.400 . S
C1947 C1946 1.385 . S
C1948 C1946 1.478 . S
C1948 C1950 1.381 . S
C1948 C1954 1.383 . S
C1949 C1945 1.495 . S
C1949 H1955 0.959 . S
C1949 H1956 0.961 . S
C1949 H1957 0.960 . S
C1950 C1948 1.381 . S
C1950 C1951 1.394 . S
C1950 H1958 0.930 . S
C1951 C1950 1.394 . S
C1951 C1952 1.383 . S
C1951 H1959 0.929 . S
C1952 C1951 1.383 . S
C1952 C1953 1.377 . S
C1953 H1937 0.930 . S
C1953 C1952 1.377 . S
C1953 C1954 1.379 . S
C1954 H1938 0.931 . S
C1954 C1948 1.383 . S
C1954 C1953 1.379 . S
H1955 C1949 0.959 . S
H1956 C1949 0.961 . S
H1957 C1949 0.960 . S
H1958 C1950 0.930 . S
H1959 C1951 0.929 . S
H1960 C1968 0.929 . S
H1961 C1970 0.930 . S
H1962 C1972 0.930 . S
H1963 C1975 0.929 . S
H1964 C1978 0.930 . S
H1965 C1980 0.960 . S
H1966 C1980 0.960 . S
H1967 C1980 0.960 . S
C1968 H1960 0.929 . S
C1968 C1969 1.377 . S
C1968 C1970 1.384 . S
C1969 C1968 1.377 . S
C1969 C1975 1.390 . S
C1970 H1961 0.930 . S
C1970 C1968 1.384 . S
C1970 C1971 1.372 . S
C1971 C1970 1.372 . S
C1971 C1972 1.400 . S
C1971 C1976 1.490 . S
C1972 H1962 0.930 . S
C1972 C1971 1.400 . S
C1972 C1975 1.386 . S
H1973 C1989 0.930 . S
H1974 C1990 0.931 . S
C1975 H1963 0.929 . S
C1975 C1969 1.390 . S
C1975 C1972 1.386 . S
C1976 C1971 1.490 . S
C1976 C1978 1.395 . S
C1976 C1979 1.403 . S
H1977 C1983 0.930 . S
C1978 H1964 0.930 . S
C1978 C1976 1.395 . S
C1978 C1981 1.403 . S
C1979 C1976 1.403 . S
C1979 C1980 1.524 . S
C1979 C1983 1.400 . S
C1980 H1965 0.960 . S
C1980 H1966 0.960 . S
C1980 H1967 0.960 . S
C1980 C1979 1.524 . S
C1981 C1978 1.403 . S
C1981 C1982 1.392 . S
C1981 C1985 1.495 . S
C1982 C1981 1.392 . S
C1982 C1983 1.385 . S
C1982 C1984 1.478 . S
C1983 H1977 0.930 . S
C1983 C1979 1.400 . S
C1983 C1982 1.385 . S
C1984 C1982 1.478 . S
C1984 C1986 1.381 . S
C1984 C1990 1.383 . S
C1985 C1981 1.495 . S
C1985 H1991 0.959 . S
C1985 H1992 0.961 . S
C1985 H1993 0.960 . S
C1986 C1984 1.381 . S
C1986 C1987 1.394 . S
C1986 H1994 0.930 . S
C1987 C1986 1.394 . S
C1987 C1988 1.383 . S
C1987 H1995 0.929 . S
C1988 C1987 1.383 . S
C1988 C1989 1.377 . S
C1989 H1973 0.930 . S
C1989 C1988 1.377 . S
C1989 C1990 1.379 . S
C1990 H1974 0.931 . S
C1990 C1984 1.383 . S
C1990 C1989 1.379 . S
H1991 C1985 0.959 . S
H1992 C1985 0.961 . S
H1993 C1985 0.960 . S
H1994 C1986 0.930 . S
H1995 C1987 0.929 . S
H1996 C2004 0.929 . S
H1997 C2006 0.930 . S
H1998 C2008 0.930 . S
H1999 C2011 0.929 . S
H2000 C2014 0.930 . S
H2001 C2016 0.960 . S
H2002 C2016 0.960 . S
H2003 C2016 0.960 . S
C2004 H1996 0.929 . S
C2004 C2005 1.377 . S
C2004 C2006 1.384 . S
C2005 C2004 1.377 . S
C2005 C2011 1.390 . S
C2006 H1997 0.930 . S
C2006 C2004 1.384 . S
C2006 C2007 1.372 . S
C2007 C2006 1.372 . S
C2007 C2008 1.400 . S
C2007 C2012 1.490 . S
C2008 H1998 0.930 . S
C2008 C2007 1.400 . S
C2008 C2011 1.386 . S
H2009 C2025 0.930 . S
H2010 C2026 0.931 . S
C2011 H1999 0.929 . S
C2011 C2005 1.390 . S
C2011 C2008 1.386 . S
C2012 C2007 1.490 . S
C2012 C2014 1.395 . S
C2012 C2015 1.403 . S
H2013 C2019 0.930 . S
C2014 H2000 0.930 . S
C2014 C2012 1.395 . S
C2014 C2017 1.403 . S
C2015 C2012 1.403 . S
C2015 C2016 1.524 . S
C2015 C2019 1.400 . S
C2016 H2001 0.960 . S
C2016 H2002 0.960 . S
C2016 H2003 0.960 . S
C2016 C2015 1.524 . S
C2017 C2014 1.403 . S
C2017 C2018 1.392 . S
C2017 C2021 1.495 . S
C2018 C2017 1.392 . S
C2018 C2019 1.385 . S
C2018 C2020 1.478 . S
C2019 H2013 0.930 . S
C2019 C2015 1.400 . S
C2019 C2018 1.385 . S
C2020 C2018 1.478 . S
C2020 C2022 1.381 . S
C2020 C2026 1.383 . S
C2021 C2017 1.495 . S
C2021 H2027 0.959 . S
C2021 H2028 0.961 . S
C2021 H2029 0.960 . S
C2022 C2020 1.381 . S
C2022 C2023 1.394 . S
C2022 H2030 0.930 . S
C2023 C2022 1.394 . S
C2023 C2024 1.383 . S
C2023 H2031 0.929 . S
C2024 C2023 1.383 . S
C2024 C2025 1.377 . S
C2025 H2009 0.930 . S
C2025 C2024 1.377 . S
C2025 C2026 1.379 . S
C2026 H2010 0.931 . S
C2026 C2020 1.383 . S
C2026 C2025 1.379 . S
H2027 C2021 0.959 . S
H2028 C2021 0.961 . S
H2029 C2021 0.960 . S
H2030 C2022 0.930 . S
H2031 C2023 0.929 . S
H2032 C2040 0.929 . S
H2033 C2042 0.930 . S
H2034 C2044 0.930 . S
H2035 C2047 0.929 . S
H2036 C2050 0.930 . S
H2037 C2052 0.960 . S
H2038 C2052 0.960 . S
H2039 C2052 0.960 . S
C2040 H2032 0.929 . S
C2040 C2041 1.377 . S
C2040 C2042 1.384 . S
C2041 C2040 1.377 . S
C2041 C2047 1.390 . S
C2042 H2033 0.930 . S
C2042 C2040 1.384 . S
C2042 C2043 1.372 . S
C2043 C2042 1.372 . S
C2043 C2044 1.400 . S
C2043 C2048 1.490 . S
C2044 H2034 0.930 . S
C2044 C2043 1.400 . S
C2044 C2047 1.386 . S
H2045 C2061 0.930 . S
H2046 C2062 0.931 . S
C2047 H2035 0.929 . S
C2047 C2041 1.390 . S
C2047 C2044 1.386 . S
C2048 C2043 1.490 . S
C2048 C2050 1.395 . S
C2048 C2051 1.403 . S
H2049 C2055 0.930 . S
C2050 H2036 0.930 . S
C2050 C2048 1.395 . S
C2050 C2053 1.403 . S
C2051 C2048 1.403 . S
C2051 C2052 1.524 . S
C2051 C2055 1.400 . S
C2052 H2037 0.960 . S
C2052 H2038 0.960 . S
C2052 H2039 0.960 . S
C2052 C2051 1.524 . S
C2053 C2050 1.403 . S
C2053 C2054 1.392 . S
C2053 C2057 1.495 . S
C2054 C2053 1.392 . S
C2054 C2055 1.385 . S
C2054 C2056 1.478 . S
C2055 H2049 0.930 . S
C2055 C2051 1.400 . S
C2055 C2054 1.385 . S
C2056 C2054 1.478 . S
C2056 C2058 1.381 . S
C2056 C2062 1.383 . S
C2057 C2053 1.495 . S
C2057 H2063 0.959 . S
C2057 H2064 0.961 . S
C2057 H2065 0.960 . S
C2058 C2056 1.381 . S
C2058 C2059 1.394 . S
C2058 H2066 0.930 . S
C2059 C2058 1.394 . S
C2059 C2060 1.383 . S
C2059 H2067 0.929 . S
C2060 C2059 1.383 . S
C2060 C2061 1.377 . S
C2061 H2045 0.930 . S
C2061 C2060 1.377 . S
C2061 C2062 1.379 . S
C2062 H2046 0.931 . S
C2062 C2056 1.383 . S
C2062 C2061 1.379 . S
H2063 C2057 0.959 . S
H2064 C2057 0.961 . S
H2065 C2057 0.960 . S
H2066 C2058 0.930 . S
H2067 C2059 0.929 . S
H2068 C2076 0.929 . S
H2069 C2078 0.930 . S
H2070 C2080 0.930 . S
H2071 C2083 0.929 . S
H2072 C2086 0.930 . S
H2073 C2088 0.960 . S
H2074 C2088 0.960 . S
H2075 C2088 0.960 . S
C2076 H2068 0.929 . S
C2076 C2077 1.377 . S
C2076 C2078 1.384 . S
C2077 C2076 1.377 . S
C2077 C2083 1.390 . S
C2078 H2069 0.930 . S
C2078 C2076 1.384 . S
C2078 C2079 1.372 . S
C2079 C2078 1.372 . S
C2079 C2080 1.400 . S
C2079 C2084 1.490 . S
C2080 H2070 0.930 . S
C2080 C2079 1.400 . S
C2080 C2083 1.386 . S
H2081 C2097 0.930 . S
H2082 C2098 0.931 . S
C2083 H2071 0.929 . S
C2083 C2077 1.390 . S
C2083 C2080 1.386 . S
C2084 C2079 1.490 . S
C2084 C2086 1.395 . S
C2084 C2087 1.403 . S
H2085 C2091 0.930 . S
C2086 H2072 0.930 . S
C2086 C2084 1.395 . S
C2086 C2089 1.403 1_655 S
C2087 C2084 1.403 . S
C2087 C2088 1.524 . S
C2087 C2091 1.400 1_655 S
C2088 H2073 0.960 . S
C2088 H2074 0.960 . S
C2088 H2075 0.960 . S
C2088 C2087 1.524 . S
C2089 C2086 1.403 1_455 S
C2089 C2090 1.392 . S
C2089 C2093 1.495 . S
C2090 C2089 1.392 . S
C2090 C2091 1.385 . S
C2090 C2092 1.478 . S
C2091 H2085 0.930 . S
C2091 C2087 1.400 1_455 S
C2091 C2090 1.385 . S
C2092 C2090 1.478 . S
C2092 C2094 1.381 . S
C2092 C2098 1.383 . S
C2093 C2089 1.495 . S
C2093 H2099 0.959 . S
C2093 H2100 0.961 . S
C2093 H2101 0.960 . S
C2094 C2092 1.381 . S
C2094 C2095 1.394 . S
C2094 H2102 0.930 . S
C2095 C2094 1.394 . S
C2095 C2096 1.383 . S
C2095 H2103 0.929 . S
C2096 C2095 1.383 . S
C2096 C2097 1.377 . S
C2097 H2081 0.930 . S
C2097 C2096 1.377 . S
C2097 C2098 1.379 . S
C2098 H2082 0.931 . S
C2098 C2092 1.383 . S
C2098 C2097 1.379 . S
H2099 C2093 0.959 . S
H2100 C2093 0.961 . S
H2101 C2093 0.960 . S
H2102 C2094 0.930 . S
H2103 C2095 0.929 . S
H2104 C2112 0.929 . S
H2105 C2114 0.930 . S
H2106 C2116 0.930 . S
H2107 C2119 0.929 . S
H2108 C2122 0.930 . S
H2109 C2124 0.960 . S
H2110 C2124 0.960 . S
H2111 C2124 0.960 . S
C2112 H2104 0.929 . S
C2112 C2113 1.377 . S
C2112 C2114 1.384 . S
C2113 C2112 1.377 . S
C2113 C2119 1.390 . S
C2114 H2105 0.930 . S
C2114 C2112 1.384 . S
C2114 C2115 1.372 . S
C2115 C2114 1.372 . S
C2115 C2116 1.400 . S
C2115 C2120 1.490 . S
C2116 H2106 0.930 . S
C2116 C2115 1.400 . S
C2116 C2119 1.386 . S
H2117 C2133 0.930 . S
H2118 C2134 0.931 . S
C2119 H2107 0.929 . S
C2119 C2113 1.390 . S
C2119 C2116 1.386 . S
C2120 C2115 1.490 . S
C2120 C2122 1.395 . S
C2120 C2123 1.403 . S
H2121 C2127 0.930 . S
C2122 H2108 0.930 . S
C2122 C2120 1.395 . S
C2122 C2125 1.403 1_655 S
C2123 C2120 1.403 . S
C2123 C2124 1.524 . S
C2123 C2127 1.400 1_655 S
C2124 H2109 0.960 . S
C2124 H2110 0.960 . S
C2124 H2111 0.960 . S
C2124 C2123 1.524 . S
C2125 C2122 1.403 1_455 S
C2125 C2126 1.392 . S
C2125 C2129 1.495 . S
C2126 C2125 1.392 . S
C2126 C2127 1.385 . S
C2126 C2128 1.478 . S
C2127 H2121 0.930 . S
C2127 C2123 1.400 1_455 S
C2127 C2126 1.385 . S
C2128 C2126 1.478 . S
C2128 C2130 1.381 . S
C2128 C2134 1.383 . S
C2129 C2125 1.495 . S
C2129 H2135 0.959 . S
C2129 H2136 0.961 . S
C2129 H2137 0.960 . S
C2130 C2128 1.381 . S
C2130 C2131 1.394 . S
C2130 H2138 0.930 . S
C2131 C2130 1.394 . S
C2131 C2132 1.383 . S
C2131 H2139 0.929 . S
C2132 C2131 1.383 . S
C2132 C2133 1.377 . S
C2133 H2117 0.930 . S
C2133 C2132 1.377 . S
C2133 C2134 1.379 . S
C2134 H2118 0.931 . S
C2134 C2128 1.383 . S
C2134 C2133 1.379 . S
H2135 C2129 0.959 . S
H2136 C2129 0.961 . S
H2137 C2129 0.960 . S
H2138 C2130 0.930 . S
H2139 C2131 0.929 . S
H2140 C2148 0.929 . S
H2141 C2150 0.930 . S
H2142 C2152 0.930 . S
H2143 C2155 0.929 . S
H2144 C2158 0.930 . S
H2145 C2160 0.960 . S
H2146 C2160 0.960 . S
H2147 C2160 0.960 . S
C2148 H2140 0.929 . S
C2148 C2149 1.377 . S
C2148 C2150 1.384 . S
C2149 C2148 1.377 . S
C2149 C2155 1.390 . S
C2150 H2141 0.930 . S
C2150 C2148 1.384 . S
C2150 C2151 1.372 . S
C2151 C2150 1.372 . S
C2151 C2152 1.400 . S
C2151 C2156 1.490 . S
C2152 H2142 0.930 . S
C2152 C2151 1.400 . S
C2152 C2155 1.386 . S
H2153 C2169 0.930 . S
H2154 C2170 0.931 . S
C2155 H2143 0.929 . S
C2155 C2149 1.390 . S
C2155 C2152 1.386 . S
C2156 C2151 1.490 . S
C2156 C2158 1.395 . S
C2156 C2159 1.403 . S
H2157 C2163 0.930 . S
C2158 H2144 0.930 . S
C2158 C2156 1.395 . S
C2158 C2161 1.403 . S
C2159 C2156 1.403 . S
C2159 C2160 1.524 . S
C2159 C2163 1.400 . S
C2160 H2145 0.960 . S
C2160 H2146 0.960 . S
C2160 H2147 0.960 . S
C2160 C2159 1.524 . S
C2161 C2158 1.403 . S
C2161 C2162 1.392 . S
C2161 C2165 1.495 . S
C2162 C2161 1.392 . S
C2162 C2163 1.385 . S
C2162 C2164 1.478 . S
C2163 H2157 0.930 . S
C2163 C2159 1.400 . S
C2163 C2162 1.385 . S
C2164 C2162 1.478 . S
C2164 C2166 1.381 . S
C2164 C2170 1.383 . S
C2165 C2161 1.495 . S
C2165 H2171 0.959 . S
C2165 H2172 0.961 . S
C2165 H2173 0.960 . S
C2166 C2164 1.381 . S
C2166 C2167 1.394 . S
C2166 H2174 0.930 . S
C2167 C2166 1.394 . S
C2167 C2168 1.383 . S
C2167 H2175 0.929 . S
C2168 C2167 1.383 . S
C2168 C2169 1.377 . S
C2169 H2153 0.930 . S
C2169 C2168 1.377 . S
C2169 C2170 1.379 . S
C2170 H2154 0.931 . S
C2170 C2164 1.383 . S
C2170 C2169 1.379 . S
H2171 C2165 0.959 . S
H2172 C2165 0.961 . S
H2173 C2165 0.960 . S
H2174 C2166 0.930 . S
H2175 C2167 0.929 . S
H2176 C2184 0.929 . S
H2177 C2186 0.930 . S
H2178 C2188 0.930 . S
H2179 C2191 0.929 . S
H2180 C2194 0.930 . S
H2181 C2196 0.960 . S
H2182 C2196 0.960 . S
H2183 C2196 0.960 . S
C2184 H2176 0.929 . S
C2184 C2185 1.377 . S
C2184 C2186 1.384 . S
C2185 C2184 1.377 . S
C2185 C2191 1.390 . S
C2186 H2177 0.930 . S
C2186 C2184 1.384 . S
C2186 C2187 1.372 . S
C2187 C2186 1.372 . S
C2187 C2188 1.400 . S
C2187 C2192 1.490 . S
C2188 H2178 0.930 . S
C2188 C2187 1.400 . S
C2188 C2191 1.386 . S
H2189 C2205 0.930 . S
H2190 C2206 0.931 . S
C2191 H2179 0.929 . S
C2191 C2185 1.390 . S
C2191 C2188 1.386 . S
C2192 C2187 1.490 . S
C2192 C2194 1.395 . S
C2192 C2195 1.403 . S
H2193 C2199 0.930 . S
C2194 H2180 0.930 . S
C2194 C2192 1.395 . S
C2194 C2197 1.403 . S
C2195 C2192 1.403 . S
C2195 C2196 1.524 . S
C2195 C2199 1.400 . S
C2196 H2181 0.960 . S
C2196 H2182 0.960 . S
C2196 H2183 0.960 . S
C2196 C2195 1.524 . S
C2197 C2194 1.403 . S
C2197 C2198 1.392 . S
C2197 C2201 1.495 . S
C2198 C2197 1.392 . S
C2198 C2199 1.385 . S
C2198 C2200 1.478 . S
C2199 H2193 0.930 . S
C2199 C2195 1.400 . S
C2199 C2198 1.385 . S
C2200 C2198 1.478 . S
C2200 C2202 1.381 . S
C2200 C2206 1.383 . S
C2201 C2197 1.495 . S
C2201 H2207 0.959 . S
C2201 H2208 0.961 . S
C2201 H2209 0.960 . S
C2202 C2200 1.381 . S
C2202 C2203 1.394 . S
C2202 H2210 0.930 . S
C2203 C2202 1.394 . S
C2203 C2204 1.383 . S
C2203 H2211 0.929 . S
C2204 C2203 1.383 . S
C2204 C2205 1.377 . S
C2205 H2189 0.930 . S
C2205 C2204 1.377 . S
C2205 C2206 1.379 . S
C2206 H2190 0.931 . S
C2206 C2200 1.383 . S
C2206 C2205 1.379 . S
H2207 C2201 0.959 . S
H2208 C2201 0.961 . S
H2209 C2201 0.960 . S
H2210 C2202 0.930 . S
H2211 C2203 0.929 . S
H2212 C2220 0.929 . S
H2213 C2222 0.930 . S
H2214 C2224 0.930 . S
H2215 C2227 0.929 . S
H2216 C2230 0.930 . S
H2217 C2232 0.960 . S
H2218 C2232 0.960 . S
H2219 C2232 0.960 . S
C2220 H2212 0.929 . S
C2220 C2221 1.377 . S
C2220 C2222 1.384 . S
C2221 C2220 1.377 . S
C2221 C2227 1.390 . S
C2222 H2213 0.930 . S
C2222 C2220 1.384 . S
C2222 C2223 1.372 . S
C2223 C2222 1.372 . S
C2223 C2224 1.400 . S
C2223 C2228 1.490 . S
C2224 H2214 0.930 . S
C2224 C2223 1.400 . S
C2224 C2227 1.386 . S
H2225 C2241 0.930 . S
H2226 C2242 0.931 . S
C2227 H2215 0.929 . S
C2227 C2221 1.390 . S
C2227 C2224 1.386 . S
C2228 C2223 1.490 . S
C2228 C2230 1.395 . S
C2228 C2231 1.403 . S
H2229 C2235 0.930 . S
C2230 H2216 0.930 . S
C2230 C2228 1.395 . S
C2230 C2233 1.403 . S
C2231 C2228 1.403 . S
C2231 C2232 1.524 . S
C2231 C2235 1.400 . S
C2232 H2217 0.960 . S
C2232 H2218 0.960 . S
C2232 H2219 0.960 . S
C2232 C2231 1.524 . S
C2233 C2230 1.403 . S
C2233 C2234 1.392 . S
C2233 C2237 1.495 . S
C2234 C2233 1.392 . S
C2234 C2235 1.385 . S
C2234 C2236 1.478 . S
C2235 H2229 0.930 . S
C2235 C2231 1.400 . S
C2235 C2234 1.385 . S
C2236 C2234 1.478 . S
C2236 C2238 1.381 . S
C2236 C2242 1.383 . S
C2237 C2233 1.495 . S
C2237 H2243 0.959 . S
C2237 H2244 0.961 . S
C2237 H2245 0.960 . S
C2238 C2236 1.381 . S
C2238 C2239 1.394 . S
C2238 H2246 0.930 . S
C2239 C2238 1.394 . S
C2239 C2240 1.383 . S
C2239 H2247 0.929 . S
C2240 C2239 1.383 . S
C2240 C2241 1.377 . S
C2241 H2225 0.930 . S
C2241 C2240 1.377 . S
C2241 C2242 1.379 . S
C2242 H2226 0.931 . S
C2242 C2236 1.383 . S
C2242 C2241 1.379 . S
H2243 C2237 0.959 . S
H2244 C2237 0.961 . S
H2245 C2237 0.960 . S
H2246 C2238 0.930 . S
H2247 C2239 0.929 . S
H2248 C2256 0.929 . S
H2249 C2258 0.930 . S
H2250 C2260 0.930 . S
H2251 C2263 0.929 . S
H2252 C2266 0.930 . S
H2253 C2268 0.960 . S
H2254 C2268 0.960 . S
H2255 C2268 0.960 . S
C2256 H2248 0.929 . S
C2256 C2257 1.377 1_556 S
C2256 C2258 1.384 . S
C2257 C2256 1.377 1_554 S
C2257 C2263 1.390 . S
C2258 H2249 0.930 . S
C2258 C2256 1.384 . S
C2258 C2259 1.372 . S
C2259 C2258 1.372 . S
C2259 C2260 1.400 . S
C2259 C2264 1.490 . S
C2260 H2250 0.930 . S
C2260 C2259 1.400 . S
C2260 C2263 1.386 1_556 S
H2261 C2277 0.930 . S
H2262 C2278 0.931 . S
C2263 H2251 0.929 . S
C2263 C2257 1.390 . S
C2263 C2260 1.386 1_554 S
C2264 C2259 1.490 . S
C2264 C2266 1.395 . S
C2264 C2267 1.403 . S
H2265 C2271 0.930 . S
C2266 H2252 0.930 . S
C2266 C2264 1.395 . S
C2266 C2269 1.403 . S
C2267 C2264 1.403 . S
C2267 C2268 1.524 . S
C2267 C2271 1.400 . S
C2268 H2253 0.960 . S
C2268 H2254 0.960 . S
C2268 H2255 0.960 . S
C2268 C2267 1.524 . S
C2269 C2266 1.403 . S
C2269 C2270 1.392 . S
C2269 C2273 1.495 . S
C2270 C2269 1.392 . S
C2270 C2271 1.385 . S
C2270 C2272 1.478 . S
C2271 H2265 0.930 . S
C2271 C2267 1.400 . S
C2271 C2270 1.385 . S
C2272 C2270 1.478 . S
C2272 C2274 1.381 . S
C2272 C2278 1.383 . S
C2273 C2269 1.495 . S
C2273 H2279 0.959 . S
C2273 H2280 0.961 . S
C2273 H2281 0.960 . S
C2274 C2272 1.381 . S
C2274 C2275 1.394 . S
C2274 H2282 0.930 . S
C2275 C2274 1.394 . S
C2275 C2276 1.383 . S
C2275 H2283 0.929 . S
C2276 C2275 1.383 . S
C2276 C2277 1.377 . S
C2277 H2261 0.930 . S
C2277 C2276 1.377 . S
C2277 C2278 1.379 . S
C2278 H2262 0.931 . S
C2278 C2272 1.383 . S
C2278 C2277 1.379 . S
H2279 C2273 0.959 . S
H2280 C2273 0.961 . S
H2281 C2273 0.960 . S
H2282 C2274 0.930 . S
H2283 C2275 0.929 . S
H2284 C2292 0.929 . S
H2285 C2294 0.930 . S
H2286 C2296 0.930 . S
H2287 C2299 0.929 . S
H2288 C2302 0.930 . S
H2289 C2304 0.960 . S
H2290 C2304 0.960 . S
H2291 C2304 0.960 . S
C2292 H2284 0.929 . S
C2292 C2293 1.377 1_554 S
C2292 C2294 1.384 . S
C2293 C2292 1.377 1_556 S
C2293 C2299 1.390 . S
C2294 H2285 0.930 . S
C2294 C2292 1.384 . S
C2294 C2295 1.372 . S
C2295 C2294 1.372 . S
C2295 C2296 1.400 . S
C2295 C2300 1.490 . S
C2296 H2286 0.930 . S
C2296 C2295 1.400 . S
C2296 C2299 1.386 1_554 S
H2297 C2313 0.930 . S
H2298 C2314 0.931 . S
C2299 H2287 0.929 . S
C2299 C2293 1.390 . S
C2299 C2296 1.386 1_556 S
C2300 C2295 1.490 . S
C2300 C2302 1.395 . S
C2300 C2303 1.403 . S
H2301 C2307 0.930 . S
C2302 H2288 0.930 . S
C2302 C2300 1.395 . S
C2302 C2305 1.403 . S
C2303 C2300 1.403 . S
C2303 C2304 1.524 . S
C2303 C2307 1.400 . S
C2304 H2289 0.960 . S
C2304 H2290 0.960 . S
C2304 H2291 0.960 . S
C2304 C2303 1.524 . S
C2305 C2302 1.403 . S
C2305 C2306 1.392 . S
C2305 C2309 1.495 . S
C2306 C2305 1.392 . S
C2306 C2307 1.385 . S
C2306 C2308 1.478 . S
C2307 H2301 0.930 . S
C2307 C2303 1.400 . S
C2307 C2306 1.385 . S
C2308 C2306 1.478 . S
C2308 C2310 1.381 . S
C2308 C2314 1.383 . S
C2309 C2305 1.495 . S
C2309 H2315 0.959 . S
C2309 H2316 0.961 . S
C2309 H2317 0.960 . S
C2310 C2308 1.381 . S
C2310 C2311 1.394 . S
C2310 H2318 0.930 . S
C2311 C2310 1.394 . S
C2311 C2312 1.383 . S
C2311 H2319 0.929 . S
C2312 C2311 1.383 . S
C2312 C2313 1.377 . S
C2313 H2297 0.930 . S
C2313 C2312 1.377 . S
C2313 C2314 1.379 . S
C2314 H2298 0.931 . S
C2314 C2308 1.383 . S
C2314 C2313 1.379 . S
H2315 C2309 0.959 . S
H2316 C2309 0.961 . S
H2317 C2309 0.960 . S
H2318 C2310 0.930 . S
H2319 C2311 0.929 . S
H2320 C2328 0.929 . S
H2321 C2330 0.930 . S
H2322 C2332 0.930 . S
H2323 C2335 0.929 . S
H2324 C2338 0.930 . S
H2325 C2340 0.960 . S
H2326 C2340 0.960 . S
H2327 C2340 0.960 . S
C2328 H2320 0.929 . S
C2328 C2329 1.377 . S
C2328 C2330 1.384 . S
C2329 C2328 1.377 . S
C2329 C2335 1.390 . S
C2330 H2321 0.930 . S
C2330 C2328 1.384 . S
C2330 C2331 1.372 . S
C2331 C2330 1.372 . S
C2331 C2332 1.400 . S
C2331 C2336 1.490 . S
C2332 H2322 0.930 . S
C2332 C2331 1.400 . S
C2332 C2335 1.386 . S
H2333 C2349 0.930 . S
H2334 C2350 0.931 . S
C2335 H2323 0.929 . S
C2335 C2329 1.390 . S
C2335 C2332 1.386 . S
C2336 C2331 1.490 . S
C2336 C2338 1.395 . S
C2336 C2339 1.403 . S
H2337 C2343 0.930 . S
C2338 H2324 0.930 . S
C2338 C2336 1.395 . S
C2338 C2341 1.403 . S
C2339 C2336 1.403 . S
C2339 C2340 1.524 . S
C2339 C2343 1.400 . S
C2340 H2325 0.960 . S
C2340 H2326 0.960 . S
C2340 H2327 0.960 . S
C2340 C2339 1.524 . S
C2341 C2338 1.403 . S
C2341 C2342 1.392 . S
C2341 C2345 1.495 . S
C2342 C2341 1.392 . S
C2342 C2343 1.385 . S
C2342 C2344 1.478 . S
C2343 H2337 0.930 . S
C2343 C2339 1.400 . S
C2343 C2342 1.385 . S
C2344 C2342 1.478 . S
C2344 C2346 1.381 . S
C2344 C2350 1.383 . S
C2345 C2341 1.495 . S
C2345 H2351 0.959 . S
C2345 H2352 0.961 . S
C2345 H2353 0.960 . S
C2346 C2344 1.381 . S
C2346 C2347 1.394 . S
C2346 H2354 0.930 . S
C2347 C2346 1.394 . S
C2347 C2348 1.383 . S
C2347 H2355 0.929 . S
C2348 C2347 1.383 . S
C2348 C2349 1.377 . S
C2349 H2333 0.930 . S
C2349 C2348 1.377 . S
C2349 C2350 1.379 . S
C2350 H2334 0.931 . S
C2350 C2344 1.383 . S
C2350 C2349 1.379 . S
H2351 C2345 0.959 . S
H2352 C2345 0.961 . S
H2353 C2345 0.960 . S
H2354 C2346 0.930 . S
H2355 C2347 0.929 . S
H2356 C2364 0.929 . S
H2357 C2366 0.930 . S
H2358 C2368 0.930 . S
H2359 C2371 0.929 . S
H2360 C2374 0.930 . S
H2361 C2376 0.960 . S
H2362 C2376 0.960 . S
H2363 C2376 0.960 . S
C2364 H2356 0.929 . S
C2364 C2365 1.377 . S
C2364 C2366 1.384 . S
C2365 C2364 1.377 . S
C2365 C2371 1.390 . S
C2366 H2357 0.930 . S
C2366 C2364 1.384 . S
C2366 C2367 1.372 . S
C2367 C2366 1.372 . S
C2367 C2368 1.400 . S
C2367 C2372 1.490 . S
C2368 H2358 0.930 . S
C2368 C2367 1.400 . S
C2368 C2371 1.386 . S
H2369 C2385 0.930 . S
H2370 C2386 0.931 . S
C2371 H2359 0.929 . S
C2371 C2365 1.390 . S
C2371 C2368 1.386 . S
C2372 C2367 1.490 . S
C2372 C2374 1.395 . S
C2372 C2375 1.403 . S
H2373 C2379 0.930 . S
C2374 H2360 0.930 . S
C2374 C2372 1.395 . S
C2374 C2377 1.403 . S
C2375 C2372 1.403 . S
C2375 C2376 1.524 . S
C2375 C2379 1.400 . S
C2376 H2361 0.960 . S
C2376 H2362 0.960 . S
C2376 H2363 0.960 . S
C2376 C2375 1.524 . S
C2377 C2374 1.403 . S
C2377 C2378 1.392 . S
C2377 C2381 1.495 . S
C2378 C2377 1.392 . S
C2378 C2379 1.385 . S
C2378 C2380 1.478 . S
C2379 H2373 0.930 . S
C2379 C2375 1.400 . S
C2379 C2378 1.385 . S
C2380 C2378 1.478 . S
C2380 C2382 1.381 . S
C2380 C2386 1.383 . S
C2381 C2377 1.495 . S
C2381 H2387 0.959 . S
C2381 H2388 0.961 . S
C2381 H2389 0.960 . S
C2382 C2380 1.381 . S
C2382 C2383 1.394 . S
C2382 H2390 0.930 . S
C2383 C2382 1.394 . S
C2383 C2384 1.383 . S
C2383 H2391 0.929 . S
C2384 C2383 1.383 . S
C2384 C2385 1.377 . S
C2385 H2369 0.930 . S
C2385 C2384 1.377 . S
C2385 C2386 1.379 . S
C2386 H2370 0.931 . S
C2386 C2380 1.383 . S
C2386 C2385 1.379 . S
H2387 C2381 0.959 . S
H2388 C2381 0.961 . S
H2389 C2381 0.960 . S
H2390 C2382 0.930 . S
H2391 C2383 0.929 . S
H2392 C2400 0.929 . S
H2393 C2402 0.930 . S
H2394 C2404 0.930 . S
H2395 C2407 0.929 . S
H2396 C2410 0.930 . S
H2397 C2412 0.960 . S
H2398 C2412 0.960 . S
H2399 C2412 0.960 . S
C2400 H2392 0.929 . S
C2400 C2401 1.377 . S
C2400 C2402 1.384 . S
C2401 C2400 1.377 . S
C2401 C2407 1.390 . S
C2402 H2393 0.930 . S
C2402 C2400 1.384 . S
C2402 C2403 1.372 . S
C2403 C2402 1.372 . S
C2403 C2404 1.400 . S
C2403 C2408 1.490 . S
C2404 H2394 0.930 . S
C2404 C2403 1.400 . S
C2404 C2407 1.386 . S
H2405 C2421 0.930 . S
H2406 C2422 0.931 . S
C2407 H2395 0.929 . S
C2407 C2401 1.390 . S
C2407 C2404 1.386 . S
C2408 C2403 1.490 . S
C2408 C2410 1.395 . S
C2408 C2411 1.403 . S
H2409 C2415 0.930 . S
C2410 H2396 0.930 . S
C2410 C2408 1.395 . S
C2410 C2413 1.403 . S
C2411 C2408 1.403 . S
C2411 C2412 1.524 . S
C2411 C2415 1.400 . S
C2412 H2397 0.960 . S
C2412 H2398 0.960 . S
C2412 H2399 0.960 . S
C2412 C2411 1.524 . S
C2413 C2410 1.403 . S
C2413 C2414 1.392 . S
C2413 C2417 1.495 . S
C2414 C2413 1.392 . S
C2414 C2415 1.385 . S
C2414 C2416 1.478 . S
C2415 H2409 0.930 . S
C2415 C2411 1.400 . S
C2415 C2414 1.385 . S
C2416 C2414 1.478 . S
C2416 C2418 1.381 . S
C2416 C2422 1.383 . S
C2417 C2413 1.495 . S
C2417 H2423 0.959 . S
C2417 H2424 0.961 . S
C2417 H2425 0.960 . S
C2418 C2416 1.381 . S
C2418 C2419 1.394 1_554 S
C2418 H2426 0.930 . S
C2419 C2418 1.394 1_556 S
C2419 C2420 1.383 . S
C2419 H2427 0.929 . S
C2420 C2419 1.383 . S
C2420 C2421 1.377 1_556 S
C2421 H2405 0.930 . S
C2421 C2420 1.377 1_554 S
C2421 C2422 1.379 . S
C2422 H2406 0.931 . S
C2422 C2416 1.383 . S
C2422 C2421 1.379 . S
H2423 C2417 0.959 . S
H2424 C2417 0.961 . S
H2425 C2417 0.960 . S
H2426 C2418 0.930 . S
H2427 C2419 0.929 . S
H2428 C2436 0.929 . S
H2429 C2438 0.930 . S
H2430 C2440 0.930 . S
H2431 C2443 0.929 . S
H2432 C2446 0.930 . S
H2433 C2448 0.960 . S
H2434 C2448 0.960 . S
H2435 C2448 0.960 . S
C2436 H2428 0.929 . S
C2436 C2437 1.377 . S
C2436 C2438 1.384 . S
C2437 C2436 1.377 . S
C2437 C2443 1.390 . S
C2438 H2429 0.930 . S
C2438 C2436 1.384 . S
C2438 C2439 1.372 . S
C2439 C2438 1.372 . S
C2439 C2440 1.400 . S
C2439 C2444 1.490 . S
C2440 H2430 0.930 . S
C2440 C2439 1.400 . S
C2440 C2443 1.386 . S
H2441 C2457 0.930 . S
H2442 C2458 0.931 . S
C2443 H2431 0.929 . S
C2443 C2437 1.390 . S
C2443 C2440 1.386 . S
C2444 C2439 1.490 . S
C2444 C2446 1.395 . S
C2444 C2447 1.403 . S
H2445 C2451 0.930 . S
C2446 H2432 0.930 . S
C2446 C2444 1.395 . S
C2446 C2449 1.403 . S
C2447 C2444 1.403 . S
C2447 C2448 1.524 . S
C2447 C2451 1.400 . S
C2448 H2433 0.960 . S
C2448 H2434 0.960 . S
C2448 H2435 0.960 . S
C2448 C2447 1.524 . S
C2449 C2446 1.403 . S
C2449 C2450 1.392 . S
C2449 C2453 1.495 . S
C2450 C2449 1.392 . S
C2450 C2451 1.385 . S
C2450 C2452 1.478 . S
C2451 H2445 0.930 . S
C2451 C2447 1.400 . S
C2451 C2450 1.385 . S
C2452 C2450 1.478 . S
C2452 C2454 1.381 . S
C2452 C2458 1.383 . S
C2453 C2449 1.495 . S
C2453 H2459 0.959 . S
C2453 H2460 0.961 . S
C2453 H2461 0.960 . S
C2454 C2452 1.381 . S
C2454 C2455 1.394 1_556 S
C2454 H2462 0.930 . S
C2455 C2454 1.394 1_554 S
C2455 C2456 1.383 . S
C2455 H2463 0.929 . S
C2456 C2455 1.383 . S
C2456 C2457 1.377 1_554 S
C2457 H2441 0.930 . S
C2457 C2456 1.377 1_556 S
C2457 C2458 1.379 . S
C2458 H2442 0.931 . S
C2458 C2452 1.383 . S
C2458 C2457 1.379 . S
H2459 C2453 0.959 . S
H2460 C2453 0.961 . S
H2461 C2453 0.960 . S
H2462 C2454 0.930 . S
H2463 C2455 0.929 . S
H2464 C2472 0.929 . S
H2465 C2474 0.930 . S
H2466 C2476 0.930 . S
H2467 C2479 0.929 . S
H2468 C2482 0.930 . S
H2469 C2484 0.960 . S
H2470 C2484 0.960 . S
H2471 C2484 0.960 . S
C2472 H2464 0.929 . S
C2472 C2473 1.377 . S
C2472 C2474 1.384 1_554 S
C2473 C2472 1.377 . S
C2473 C2479 1.390 1_554 S
C2474 H2465 0.930 . S
C2474 C2472 1.384 1_556 S
C2474 C2475 1.372 . S
C2475 C2474 1.372 . S
C2475 C2476 1.400 . S
C2475 C2480 1.490 . S
C2476 H2466 0.930 . S
C2476 C2475 1.400 . S
C2476 C2479 1.386 . S
H2477 C2493 0.930 . S
H2478 C2494 0.931 . S
C2479 H2467 0.929 . S
C2479 C2473 1.390 1_556 S
C2479 C2476 1.386 . S
C2480 C2475 1.490 . S
C2480 C2482 1.395 . S
C2480 C2483 1.403 . S
H2481 C2487 0.930 . S
C2482 H2468 0.930 . S
C2482 C2480 1.395 . S
C2482 C2485 1.403 . S
C2483 C2480 1.403 . S
C2483 C2484 1.524 . S
C2483 C2487 1.400 . S
C2484 H2469 0.960 . S
C2484 H2470 0.960 . S
C2484 H2471 0.960 . S
C2484 C2483 1.524 . S
C2485 C2482 1.403 . S
C2485 C2486 1.392 . S
C2485 C2489 1.495 . S
C2486 C2485 1.392 . S
C2486 C2487 1.385 . S
C2486 C2488 1.478 . S
C2487 H2481 0.930 . S
C2487 C2483 1.400 . S
C2487 C2486 1.385 . S
C2488 C2486 1.478 . S
C2488 C2490 1.381 . S
C2488 C2494 1.383 . S
C2489 C2485 1.495 . S
C2489 H2495 0.959 . S
C2489 H2496 0.961 . S
C2489 H2497 0.960 . S
C2490 C2488 1.381 . S
C2490 C2491 1.394 . S
C2490 H2498 0.930 . S
C2491 C2490 1.394 . S
C2491 C2492 1.383 . S
C2491 H2499 0.929 . S
C2492 C2491 1.383 . S
C2492 C2493 1.377 . S
C2493 H2477 0.930 . S
C2493 C2492 1.377 . S
C2493 C2494 1.379 . S
C2494 H2478 0.931 . S
C2494 C2488 1.383 . S
C2494 C2493 1.379 . S
H2495 C2489 0.959 . S
H2496 C2489 0.961 . S
H2497 C2489 0.960 . S
H2498 C2490 0.930 . S
H2499 C2491 0.929 . S
H2500 C2508 0.929 . S
H2501 C2510 0.930 . S
H2502 C2512 0.930 . S
H2503 C2515 0.929 . S
H2504 C2518 0.930 . S
H2505 C2520 0.960 . S
H2506 C2520 0.960 . S
H2507 C2520 0.960 . S
C2508 H2500 0.929 . S
C2508 C2509 1.377 . S
C2508 C2510 1.384 . S
C2509 C2508 1.377 . S
C2509 C2515 1.390 . S
C2510 H2501 0.930 . S
C2510 C2508 1.384 . S
C2510 C2511 1.372 . S
C2511 C2510 1.372 . S
C2511 C2512 1.400 . S
C2511 C2516 1.490 . S
C2512 H2502 0.930 . S
C2512 C2511 1.400 . S
C2512 C2515 1.386 . S
H2513 C2529 0.930 . S
H2514 C2530 0.931 . S
C2515 H2503 0.929 . S
C2515 C2509 1.390 . S
C2515 C2512 1.386 . S
C2516 C2511 1.490 . S
C2516 C2518 1.395 . S
C2516 C2519 1.403 . S
H2517 C2523 0.930 . S
C2518 H2504 0.930 . S
C2518 C2516 1.395 . S
C2518 C2521 1.403 . S
C2519 C2516 1.403 . S
C2519 C2520 1.524 . S
C2519 C2523 1.400 . S
C2520 H2505 0.960 . S
C2520 H2506 0.960 . S
C2520 H2507 0.960 . S
C2520 C2519 1.524 . S
C2521 C2518 1.403 . S
C2521 C2522 1.392 . S
C2521 C2525 1.495 . S
C2522 C2521 1.392 . S
C2522 C2523 1.385 . S
C2522 C2524 1.478 . S
C2523 H2517 0.930 . S
C2523 C2519 1.400 . S
C2523 C2522 1.385 . S
C2524 C2522 1.478 . S
C2524 C2526 1.381 . S
C2524 C2530 1.383 . S
C2525 C2521 1.495 . S
C2525 H2531 0.959 . S
C2525 H2532 0.961 . S
C2525 H2533 0.960 . S
C2526 C2524 1.381 . S
C2526 C2527 1.394 . S
C2526 H2534 0.930 . S
C2527 C2526 1.394 . S
C2527 C2528 1.383 1_554 S
C2527 H2535 0.929 . S
C2528 C2527 1.383 1_556 S
C2528 C2529 1.377 . S
C2529 H2513 0.930 . S
C2529 C2528 1.377 . S
C2529 C2530 1.379 1_556 S
C2530 H2514 0.931 . S
C2530 C2524 1.383 . S
C2530 C2529 1.379 1_554 S
H2531 C2525 0.959 . S
H2532 C2525 0.961 . S
H2533 C2525 0.960 . S
H2534 C2526 0.930 . S
H2535 C2527 0.929 . S
H2536 C2544 0.929 . S
H2537 C2546 0.930 . S
H2538 C2548 0.930 . S
H2539 C2551 0.929 . S
H2540 C2554 0.930 . S
H2541 C2556 0.960 . S
H2542 C2556 0.960 . S
H2543 C2556 0.960 . S
C2544 H2536 0.929 . S
C2544 C2545 1.377 . S
C2544 C2546 1.384 . S
C2545 C2544 1.377 . S
C2545 C2551 1.390 . S
C2546 H2537 0.930 . S
C2546 C2544 1.384 . S
C2546 C2547 1.372 . S
C2547 C2546 1.372 . S
C2547 C2548 1.400 . S
C2547 C2552 1.490 . S
C2548 H2538 0.930 . S
C2548 C2547 1.400 . S
C2548 C2551 1.386 . S
H2549 C2565 0.930 . S
H2550 C2566 0.931 . S
C2551 H2539 0.929 . S
C2551 C2545 1.390 . S
C2551 C2548 1.386 . S
C2552 C2547 1.490 . S
C2552 C2554 1.395 . S
C2552 C2555 1.403 . S
H2553 C2559 0.930 . S
C2554 H2540 0.930 . S
C2554 C2552 1.395 . S
C2554 C2557 1.403 . S
C2555 C2552 1.403 . S
C2555 C2556 1.524 . S
C2555 C2559 1.400 . S
C2556 H2541 0.960 . S
C2556 H2542 0.960 . S
C2556 H2543 0.960 . S
C2556 C2555 1.524 . S
C2557 C2554 1.403 . S
C2557 C2558 1.392 . S
C2557 C2561 1.495 . S
C2558 C2557 1.392 . S
C2558 C2559 1.385 . S
C2558 C2560 1.478 . S
C2559 H2553 0.930 . S
C2559 C2555 1.400 . S
C2559 C2558 1.385 . S
C2560 C2558 1.478 . S
C2560 C2562 1.381 . S
C2560 C2566 1.383 . S
C2561 C2557 1.495 . S
C2561 H2567 0.959 . S
C2561 H2568 0.961 . S
C2561 H2569 0.960 . S
C2562 C2560 1.381 . S
C2562 C2563 1.394 . S
C2562 H2570 0.930 . S
C2563 C2562 1.394 . S
C2563 C2564 1.383 . S
C2563 H2571 0.929 . S
C2564 C2563 1.383 . S
C2564 C2565 1.377 . S
C2565 H2549 0.930 . S
C2565 C2564 1.377 . S
C2565 C2566 1.379 . S
C2566 H2550 0.931 . S
C2566 C2560 1.383 . S
C2566 C2565 1.379 . S
H2567 C2561 0.959 . S
H2568 C2561 0.961 . S
H2569 C2561 0.960 . S
H2570 C2562 0.930 . S
H2571 C2563 0.929 . S
H2572 C2580 0.929 . S
H2573 C2582 0.930 . S
H2574 C2584 0.930 . S
H2575 C2587 0.929 . S
H2576 C2590 0.930 . S
H2577 C2592 0.960 . S
H2578 C2592 0.960 . S
H2579 C2592 0.960 . S
C2580 H2572 0.929 . S
C2580 C2581 1.377 . S
C2580 C2582 1.384 . S
C2581 C2580 1.377 . S
C2581 C2587 1.390 . S
C2582 H2573 0.930 . S
C2582 C2580 1.384 . S
C2582 C2583 1.372 . S
C2583 C2582 1.372 . S
C2583 C2584 1.400 . S
C2583 C2588 1.490 . S
C2584 H2574 0.930 . S
C2584 C2583 1.400 . S
C2584 C2587 1.386 . S
H2585 C2601 0.930 . S
H2586 C2602 0.931 . S
C2587 H2575 0.929 . S
C2587 C2581 1.390 . S
C2587 C2584 1.386 . S
C2588 C2583 1.490 . S
C2588 C2590 1.395 . S
C2588 C2591 1.403 . S
H2589 C2595 0.930 . S
C2590 H2576 0.930 . S
C2590 C2588 1.395 . S
C2590 C2593 1.403 . S
C2591 C2588 1.403 . S
C2591 C2592 1.524 . S
C2591 C2595 1.400 . S
C2592 H2577 0.960 . S
C2592 H2578 0.960 . S
C2592 H2579 0.960 . S
C2592 C2591 1.524 . S
C2593 C2590 1.403 . S
C2593 C2594 1.392 . S
C2593 C2597 1.495 . S
C2594 C2593 1.392 . S
C2594 C2595 1.385 . S
C2594 C2596 1.478 . S
C2595 H2589 0.930 . S
C2595 C2591 1.400 . S
C2595 C2594 1.385 . S
C2596 C2594 1.478 . S
C2596 C2598 1.381 . S
C2596 C2602 1.383 . S
C2597 C2593 1.495 . S
C2597 H2603 0.959 . S
C2597 H2604 0.961 . S
C2597 H2605 0.960 . S
C2598 C2596 1.381 . S
C2598 C2599 1.394 . S
C2598 H2606 0.930 . S
C2599 C2598 1.394 . S
C2599 C2600 1.383 . S
C2599 H2607 0.929 . S
C2600 C2599 1.383 . S
C2600 C2601 1.377 . S
C2601 H2585 0.930 . S
C2601 C2600 1.377 . S
C2601 C2602 1.379 . S
C2602 H2586 0.931 . S
C2602 C2596 1.383 . S
C2602 C2601 1.379 . S
H2603 C2597 0.959 . S
H2604 C2597 0.961 . S
H2605 C2597 0.960 . S
H2606 C2598 0.930 . S
H2607 C2599 0.929 . S
H2608 C2616 0.929 . S
H2609 C2618 0.930 . S
H2610 C2620 0.930 . S
H2611 C2623 0.929 . S
H2612 C2626 0.930 . S
H2613 C2628 0.960 . S
H2614 C2628 0.960 . S
H2615 C2628 0.960 . S
C2616 H2608 0.929 . S
C2616 C2617 1.377 . S
C2616 C2618 1.384 . S
C2617 C2616 1.377 . S
C2617 C2623 1.390 . S
C2618 H2609 0.930 . S
C2618 C2616 1.384 . S
C2618 C2619 1.372 . S
C2619 C2618 1.372 . S
C2619 C2620 1.400 . S
C2619 C2624 1.490 . S
C2620 H2610 0.930 . S
C2620 C2619 1.400 . S
C2620 C2623 1.386 . S
H2621 C2637 0.930 . S
H2622 C2638 0.931 . S
C2623 H2611 0.929 . S
C2623 C2617 1.390 . S
C2623 C2620 1.386 . S
C2624 C2619 1.490 . S
C2624 C2626 1.395 . S
C2624 C2627 1.403 . S
H2625 C2631 0.930 . S
C2626 H2612 0.930 . S
C2626 C2624 1.395 . S
C2626 C2629 1.403 . S
C2627 C2624 1.403 . S
C2627 C2628 1.524 . S
C2627 C2631 1.400 . S
C2628 H2613 0.960 . S
C2628 H2614 0.960 . S
C2628 H2615 0.960 . S
C2628 C2627 1.524 . S
C2629 C2626 1.403 . S
C2629 C2630 1.392 . S
C2629 C2633 1.495 . S
C2630 C2629 1.392 . S
C2630 C2631 1.385 . S
C2630 C2632 1.478 . S
C2631 H2625 0.930 . S
C2631 C2627 1.400 . S
C2631 C2630 1.385 . S
C2632 C2630 1.478 . S
C2632 C2634 1.381 . S
C2632 C2638 1.383 . S
C2633 C2629 1.495 . S
C2633 H2639 0.959 . S
C2633 H2640 0.961 . S
C2633 H2641 0.960 . S
C2634 C2632 1.381 . S
C2634 C2635 1.394 . S
C2634 H2642 0.930 . S
C2635 C2634 1.394 . S
C2635 C2636 1.383 1_554 S
C2635 H2643 0.929 . S
C2636 C2635 1.383 1_556 S
C2636 C2637 1.377 . S
C2637 H2621 0.930 . S
C2637 C2636 1.377 . S
C2637 C2638 1.379 1_556 S
C2638 H2622 0.931 . S
C2638 C2632 1.383 . S
C2638 C2637 1.379 1_554 S
H2639 C2633 0.959 . S
H2640 C2633 0.961 . S
H2641 C2633 0.960 . S
H2642 C2634 0.930 . S
H2643 C2635 0.929 . S
H2644 C2652 0.929 . S
H2645 C2654 0.930 . S
H2646 C2656 0.930 . S
H2647 C2659 0.929 . S
H2648 C2662 0.930 . S
H2649 C2664 0.960 . S
H2650 C2664 0.960 . S
H2651 C2664 0.960 . S
C2652 H2644 0.929 . S
C2652 C2653 1.377 1_556 S
C2652 C2654 1.384 . S
C2653 C2652 1.377 1_554 S
C2653 C2659 1.390 . S
C2654 H2645 0.930 . S
C2654 C2652 1.384 . S
C2654 C2655 1.372 . S
C2655 C2654 1.372 . S
C2655 C2656 1.400 . S
C2655 C2660 1.490 . S
C2656 H2646 0.930 . S
C2656 C2655 1.400 . S
C2656 C2659 1.386 1_556 S
H2657 C2673 0.930 . S
H2658 C2674 0.931 . S
C2659 H2647 0.929 . S
C2659 C2653 1.390 . S
C2659 C2656 1.386 1_554 S
C2660 C2655 1.490 . S
C2660 C2662 1.395 . S
C2660 C2663 1.403 . S
H2661 C2667 0.930 . S
C2662 H2648 0.930 . S
C2662 C2660 1.395 . S
C2662 C2665 1.403 . S
C2663 C2660 1.403 . S
C2663 C2664 1.524 . S
C2663 C2667 1.400 . S
C2664 H2649 0.960 . S
C2664 H2650 0.960 . S
C2664 H2651 0.960 . S
C2664 C2663 1.524 . S
C2665 C2662 1.403 . S
C2665 C2666 1.392 . S
C2665 C2669 1.495 . S
C2666 C2665 1.392 . S
C2666 C2667 1.385 . S
C2666 C2668 1.478 . S
C2667 H2661 0.930 . S
C2667 C2663 1.400 . S
C2667 C2666 1.385 . S
C2668 C2666 1.478 . S
C2668 C2670 1.381 . S
C2668 C2674 1.383 . S
C2669 C2665 1.495 . S
C2669 H2675 0.959 . S
C2669 H2676 0.961 . S
C2669 H2677 0.960 . S
C2670 C2668 1.381 . S
C2670 C2671 1.394 . S
C2670 H2678 0.930 . S
C2671 C2670 1.394 . S
C2671 C2672 1.383 . S
C2671 H2679 0.929 . S
C2672 C2671 1.383 . S
C2672 C2673 1.377 . S
C2673 H2657 0.930 . S
C2673 C2672 1.377 . S
C2673 C2674 1.379 . S
C2674 H2658 0.931 . S
C2674 C2668 1.383 . S
C2674 C2673 1.379 . S
H2675 C2669 0.959 . S
H2676 C2669 0.961 . S
H2677 C2669 0.960 . S
H2678 C2670 0.930 . S
H2679 C2671 0.929 . S
H2680 C2688 0.929 . S
H2681 C2690 0.930 . S
H2682 C2692 0.930 . S
H2683 C2695 0.929 . S
H2684 C2698 0.930 . S
H2685 C2700 0.960 . S
H2686 C2700 0.960 . S
H2687 C2700 0.960 . S
C2688 H2680 0.929 . S
C2688 C2689 1.377 . S
C2688 C2690 1.384 . S
C2689 C2688 1.377 . S
C2689 C2695 1.390 . S
C2690 H2681 0.930 . S
C2690 C2688 1.384 . S
C2690 C2691 1.372 . S
C2691 C2690 1.372 . S
C2691 C2692 1.400 . S
C2691 C2696 1.490 . S
C2692 H2682 0.930 . S
C2692 C2691 1.400 . S
C2692 C2695 1.386 . S
H2693 C2709 0.930 . S
H2694 C2710 0.931 . S
C2695 H2683 0.929 . S
C2695 C2689 1.390 . S
C2695 C2692 1.386 . S
C2696 C2691 1.490 . S
C2696 C2698 1.395 . S
C2696 C2699 1.403 . S
H2697 C2703 0.930 . S
C2698 H2684 0.930 . S
C2698 C2696 1.395 . S
C2698 C2701 1.403 . S
C2699 C2696 1.403 . S
C2699 C2700 1.524 . S
C2699 C2703 1.400 . S
C2700 H2685 0.960 . S
C2700 H2686 0.960 . S
C2700 H2687 0.960 . S
C2700 C2699 1.524 . S
C2701 C2698 1.403 . S
C2701 C2702 1.392 . S
C2701 C2705 1.495 . S
C2702 C2701 1.392 . S
C2702 C2703 1.385 . S
C2702 C2704 1.478 . S
C2703 H2697 0.930 . S
C2703 C2699 1.400 . S
C2703 C2702 1.385 . S
C2704 C2702 1.478 . S
C2704 C2706 1.381 . S
C2704 C2710 1.383 . S
C2705 C2701 1.495 . S
C2705 H2711 0.959 . S
C2705 H2712 0.961 . S
C2705 H2713 0.960 . S
C2706 C2704 1.381 . S
C2706 C2707 1.394 . S
C2706 H2714 0.930 . S
C2707 C2706 1.394 . S
C2707 C2708 1.383 . S
C2707 H2715 0.929 . S
C2708 C2707 1.383 . S
C2708 C2709 1.377 . S
C2709 H2693 0.930 . S
C2709 C2708 1.377 . S
C2709 C2710 1.379 . S
C2710 H2694 0.931 . S
C2710 C2704 1.383 . S
C2710 C2709 1.379 . S
H2711 C2705 0.959 . S
H2712 C2705 0.961 . S
H2713 C2705 0.960 . S
H2714 C2706 0.930 . S
H2715 C2707 0.929 . S
H2716 C2724 0.929 . S
H2717 C2726 0.930 . S
H2718 C2728 0.930 . S
H2719 C2731 0.929 . S
H2720 C2734 0.930 . S
H2721 C2736 0.960 . S
H2722 C2736 0.960 . S
H2723 C2736 0.960 . S
C2724 H2716 0.929 . S
C2724 C2725 1.377 . S
C2724 C2726 1.384 . S
C2725 C2724 1.377 . S
C2725 C2731 1.390 . S
C2726 H2717 0.930 . S
C2726 C2724 1.384 . S
C2726 C2727 1.372 . S
C2727 C2726 1.372 . S
C2727 C2728 1.400 . S
C2727 C2732 1.490 . S
C2728 H2718 0.930 . S
C2728 C2727 1.400 . S
C2728 C2731 1.386 . S
H2729 C2745 0.930 . S
H2730 C2746 0.931 . S
C2731 H2719 0.929 . S
C2731 C2725 1.390 . S
C2731 C2728 1.386 . S
C2732 C2727 1.490 . S
C2732 C2734 1.395 . S
C2732 C2735 1.403 . S
H2733 C2739 0.930 . S
C2734 H2720 0.930 . S
C2734 C2732 1.395 . S
C2734 C2737 1.403 . S
C2735 C2732 1.403 . S
C2735 C2736 1.524 . S
C2735 C2739 1.400 . S
C2736 H2721 0.960 . S
C2736 H2722 0.960 . S
C2736 H2723 0.960 . S
C2736 C2735 1.524 . S
C2737 C2734 1.403 . S
C2737 C2738 1.392 . S
C2737 C2741 1.495 . S
C2738 C2737 1.392 . S
C2738 C2739 1.385 . S
C2738 C2740 1.478 . S
C2739 H2733 0.930 . S
C2739 C2735 1.400 . S
C2739 C2738 1.385 . S
C2740 C2738 1.478 . S
C2740 C2742 1.381 . S
C2740 C2746 1.383 . S
C2741 C2737 1.495 . S
C2741 H2747 0.959 . S
C2741 H2748 0.961 . S
C2741 H2749 0.960 . S
C2742 C2740 1.381 . S
C2742 C2743 1.394 . S
C2742 H2750 0.930 . S
C2743 C2742 1.394 . S
C2743 C2744 1.383 . S
C2743 H2751 0.929 . S
C2744 C2743 1.383 . S
C2744 C2745 1.377 . S
C2745 H2729 0.930 . S
C2745 C2744 1.377 . S
C2745 C2746 1.379 . S
C2746 H2730 0.931 . S
C2746 C2740 1.383 . S
C2746 C2745 1.379 . S
H2747 C2741 0.959 . S
H2748 C2741 0.961 . S
H2749 C2741 0.960 . S
H2750 C2742 0.930 . S
H2751 C2743 0.929 . S
C457 C93 1.493 . S
C476 C9 1.472 . S
C493 C23 1.489 . S
C512 C107 1.503 . S
C529 C65 1.488 . S
C548 C37 1.504 . S
C565 C51 1.494 . S
C584 C79 1.475 . S
C601 C121 1.494 . S
C620 C205 1.502 . S
C637 C219 1.494 . S
C656 C135 1.503 . S
C673 C149 1.491 . S
C692 C177 1.480 . S
C709 C191 1.491 . S
C728 C163 1.494 . S
C745 C233 1.491 . S
C764 C317 1.479 . S
C781 C247 1.487 . S
C800 C331 1.503 . S
C817 C289 1.488 . S
C836 C261 1.491 . S
C853 C303 1.494 . S
C872 C275 1.479 . S
C889 C345 1.489 . S
C908 C429 1.475 . S
C925 C359 1.487 . S
C944 C443 1.475 . S
C961 C401 1.489 . S
C980 C373 1.473 . S
C997 C387 1.487 . S
C1016 C415 1.473 . S
C1033 C8 1.491 . S
C1052 C106 1.492 . S
C1069 C64 1.492 . S
C1088 C22 1.492 . S
C1105 C78 1.492 . S
C1124 C36 1.492 . S
C1141 C50 1.492 . S
C1160 C92 1.484 . S
C1177 C120 1.492 . S
C1196 C218 1.484 . S
C1213 C176 1.493 . S
C1232 C134 1.489 . S
C1249 C190 1.492 . S
C1268 C148 1.489 . S
C1285 C204 1.491 . S
C1304 C162 1.493 . S
C1321 C232 1.493 . S
C1340 C330 1.488 . S
C1357 C246 1.492 . S
C1376 C288 1.489 . S
C1393 C302 1.492 . S
C1412 C260 1.489 . S
C1429 C274 1.491 . S
C1448 C316 1.492 . S
C1465 C344 1.493 . S
C1484 C442 1.485 . S
C1501 C400 1.492 . S
C1520 C358 1.493 . S
C1537 C372 1.493 . S
C1556 C414 1.487 . S
C1573 C386 1.491 . S
C1592 C428 1.492 . S
C1609 C423 1.469 . S
C1628 C3 1.471 . S
C1645 C213 1.469 . S
C1664 C17 1.471 . S
C1681 C31 1.470 . S
C1700 C395 1.461 . S
C1717 C45 1.469 . S
C1736 C185 1.462 . S
C1753 C59 1.468 . S
C1772 C367 1.471 . S
C1789 C73 1.470 . S
C1808 C157 1.470 . S
C1825 C87 1.470 . S
C1844 C339 1.461 . S
C1861 C129 1.470 . S
C1880 C101 1.462 . S
C1897 C311 1.470 . S
C1916 C115 1.462 . S
C1933 C143 1.470 . S
C1952 C283 1.467 . S
C1969 C255 1.470 . S
C1988 C171 1.465 . S
C2005 C227 1.468 . S
C2024 C199 1.470 . S
C2041 C241 1.469 . S
C2060 C437 1.471 . S
C2077 C269 1.468 . S
C2096 C409 1.465 . S
C2113 C297 1.469 . S
C2132 C381 1.471 . S
C2149 C353 1.469 . S
C2168 C325 1.471 . S
C2185 C7 1.391 . S
C2204 C105 1.377 . S
C2221 C21 1.402 . S
C2240 C63 1.419 . S
C2257 C77 1.391 . S
C2276 C35 1.374 . S
C2293 C49 1.392 . S
C2312 C91 1.383 . S
C2329 C217 1.400 . S
C2348 C119 1.415 . S
C2365 C175 1.402 . S
C2384 C133 1.399 . S
C2401 C147 1.391 . S
C2420 C189 1.389 . S
C2437 C203 1.392 . S
C2456 C161 1.378 . S
C2473 C329 1.401 . S
C2492 C231 1.408 . S
C2509 C287 1.400 . S
C2528 C245 1.397 . S
C2545 C301 1.395 . S
C2564 C259 1.401 . S
C2581 C315 1.402 . S
C2600 C273 1.411 . S
C2617 C343 1.401 . S
C2636 C441 1.377 . S
C2653 C357 1.391 . S
C2672 C399 1.390 . S
C2689 C371 1.402 . S
C2708 C413 1.399 . S
C2725 C427 1.394 . S
C2744 C385 1.370 . S
