# Generated by pormake.
# Topology umf, (4)-cn, num edge types: 1
# Building blocks:
#     Node 0, Type 0, BuildingBlock: NAWXER_clean_sbu_0, # of connection points: 4
#     Node 1, Type 0, BuildingBlock: NAWXER_clean_sbu_0, # of connection points: 4
#     Node 2, Type 0, BuildingBlock: NAWXER_clean_sbu_0, # of connection points: 4
#     Node 3, Type 0, BuildingBlock: NAWXER_clean_sbu_0, # of connection points: 4
#     Node 4, Type 0, BuildingBlock: NAWXER_clean_sbu_0, # of connection points: 4
#     Node 5, Type 0, BuildingBlock: NAWXER_clean_sbu_0, # of connection points: 4
#     Node 6, Type 0, BuildingBlock: NAWXER_clean_sbu_0, # of connection points: 4
#     Node 7, Type 0, BuildingBlock: NAWXER_clean_sbu_0, # of connection points: 4
#     Edge 8, Type (0, 0), BuildingBlock: XUDNAN_clean_linker_2, # of connection points: 2
#     Edge 9, Type (0, 0), BuildingBlock: XUDNAN_clean_linker_2, # of connection points: 2
#     Edge 10, Type (0, 0), BuildingBlock: XUDNAN_clean_linker_2, # of connection points: 2
#     Edge 11, Type (0, 0), BuildingBlock: XUDNAN_clean_linker_2, # of connection points: 2
#     Edge 12, Type (0, 0), BuildingBlock: XUDNAN_clean_linker_2, # of connection points: 2
#     Edge 13, Type (0, 0), BuildingBlock: XUDNAN_clean_linker_2, # of connection points: 2
#     Edge 14, Type (0, 0), BuildingBlock: XUDNAN_clean_linker_2, # of connection points: 2
#     Edge 15, Type (0, 0), BuildingBlock: XUDNAN_clean_linker_2, # of connection points: 2
#     Edge 16, Type (0, 0), BuildingBlock: XUDNAN_clean_linker_2, # of connection points: 2
#     Edge 17, Type (0, 0), BuildingBlock: XUDNAN_clean_linker_2, # of connection points: 2
#     Edge 18, Type (0, 0), BuildingBlock: XUDNAN_clean_linker_2, # of connection points: 2
#     Edge 19, Type (0, 0), BuildingBlock: XUDNAN_clean_linker_2, # of connection points: 2
#     Edge 20, Type (0, 0), BuildingBlock: XUDNAN_clean_linker_2, # of connection points: 2
#     Edge 21, Type (0, 0), BuildingBlock: XUDNAN_clean_linker_2, # of connection points: 2
#     Edge 22, Type (0, 0), BuildingBlock: XUDNAN_clean_linker_2, # of connection points: 2
#     Edge 23, Type (0, 0), BuildingBlock: XUDNAN_clean_linker_2, # of connection points: 2
# Relax obj value: 0.064
# Max RMSD: 0.167
# Mean RMSD: 0.166
data_MOF--net-umf--node1-NAWXER_clean_sbu_0--edge1-XUDNAN_clean_linker_2
_symmetry_space_group_name_H-M    P1
_symmetry_Int_Tables_number       1
_symmetry_cell_setting            triclinic
loop_
_symmetry_equiv_pos_as_xyz
'x, y, z'
_cell_length_a     28.969867
_cell_length_b     28.921793
_cell_length_c     53.077947
_cell_angle_alpha  89.696854
_cell_angle_beta   90.133674
_cell_angle_gamma 90.010904
loop_
_atom_site_label
_atom_site_type_symbol
_atom_site_fract_x
_atom_site_fract_y
_atom_site_fract_z
_atom_type_partial_charge
C0 C 0.10039 0.23107 0.20088 0.0
C1 C 0.06084 0.25088 0.11194 0.0
O2 O 0.05755 0.24099 0.1977 0.0
Zn3 Zn 0.01132 0.25294 0.16608 0.0
O4 O 0.12647 0.22664 0.18184 0.0
Zn5 Zn 0.08053 0.24052 0.15659 0.0
O6 O 0.06341 0.31208 0.16415 0.0
O7 O 0.98882 0.31393 0.17248 0.0
O8 O 0.09989 0.24227 0.12182 0.0
O9 O 0.02549 0.25543 0.12622 0.0
O10 O 0.96755 0.20323 0.16866 0.0
O11 O 0.03745 0.17978 0.15848 0.0
C12 C 0.02698 0.335 0.16987 0.0
C13 C 0.99503 0.17059 0.16329 0.0
C14 C 0.75152 0.10073 0.70261 0.0
C15 C 0.74719 0.05483 0.61448 0.0
O16 O 0.74389 0.05714 0.70028 0.0
Zn17 Zn 0.73756 0.00799 0.66912 0.0
O18 O 0.75617 0.12594 0.6831 0.0
Zn19 Zn 0.74849 0.07768 0.65896 0.0
O20 O 0.6776 0.05838 0.66395 0.0
O21 O 0.67615 0.98398 0.67347 0.0
O22 O 0.75309 0.09447 0.62407 0.0
O23 O 0.74109 0.01986 0.62905 0.0
O24 O 0.78903 0.96656 0.67525 0.0
O25 O 0.80946 0.03857 0.66663 0.0
C26 C 0.65482 0.02165 0.66941 0.0
C27 C 0.82023 -0.003 0.67258 0.0
C28 C 0.97894 0.67012 0.1745 0.0
C29 C 0.94924 0.83413 0.162 0.0
O30 O 0.93753 0.67769 0.16695 0.0
Zn31 Zn 0.89578 0.73654 0.15723 0.0
O32 O 0.00596 0.70403 0.17804 0.0
Zn33 Zn 0.96379 0.75226 0.16804 0.0
O34 O 0.91303 0.75408 0.19799 0.0
O35 O 0.84639 0.73282 0.1814 0.0
O36 O 0.9867 0.81437 0.16834 0.0
O37 O 0.91328 0.80955 0.15739 0.0
O38 O 0.88076 0.72508 0.12252 0.0
O39 O 0.95462 0.73995 0.12825 0.0
C40 C 0.8697 0.74577 0.20039 0.0
C41 C 0.92104 0.72983 0.11348 0.0
C42 C 0.3187 0.98036 0.67277 0.0
C43 C 0.15336 0.96511 0.67226 0.0
O44 O 0.30744 0.93941 0.66578 0.0
Zn45 Zn 0.24286 0.90278 0.65977 0.0
O46 O 0.28736 0.00925 0.67795 0.0
Zn47 Zn 0.2359 0.97102 0.6709 0.0
O48 O 0.23575 0.92027 0.70122 0.0
O49 O 0.24764 0.85235 0.68361 0.0
O50 O 0.17875 3e-05 0.67617 0.0
O51 O 0.17167 0.92662 0.6655 0.0
O52 O 0.24529 0.88705 0.62469 0.0
O53 O 0.23877 0.96204 0.63046 0.0
C54 C 0.24063 0.87629 0.70321 0.0
C55 C 0.24268 0.92756 0.6155 0.0
C56 C 0.01859 0.8315 0.88859 0.0
C57 C 0.00358 0.66781 0.86943 0.0
O58 O 0.05223 0.80701 0.89697 0.0
Zn59 Zn 0.07232 0.7357 0.89892 0.0
O60 O 0.98421 0.81192 0.87817 0.0
Zn61 Zn 0.00838 0.7496 0.88002 0.0
O62 O 0.00179 0.73384 0.91898 0.0
O63 O 0.07109 0.72234 0.93504 0.0
O64 O 0.97482 0.69958 0.86421 0.0
O65 O 0.04033 0.67702 0.88189 0.0
O66 O 0.1305 0.73797 0.88076 0.0
O67 O 0.06978 0.75661 0.85744 0.0
C68 C 0.02759 0.72435 0.93793 0.0
C69 C 0.11358 0.75156 0.85984 0.0
C70 C 0.17581 -0.0016 0.38008 0.0
C71 C 0.33934 0.03375 0.37587 0.0
O72 O 0.18591 0.0364 0.39116 0.0
Zn73 Zn 0.24674 0.07669 0.39929 0.0
O74 O 0.20757 0.97407 0.37034 0.0
Zn75 Zn 0.25739 0.01534 0.37857 0.0
O76 O 0.26066 0.00687 0.41862 0.0
O77 O 0.24911 0.07477 0.43605 0.0
O78 O 0.31804 -0.00147 0.36771 0.0
O79 O 0.31708 0.0653 0.38765 0.0
O80 O 0.23055 0.13385 0.38257 0.0
O81 O 0.23989 0.07571 0.35627 0.0
C82 C 0.25666 0.03168 0.43843 0.0
C83 C 0.2299 0.11832 0.36019 0.0
C84 C 0.99288 0.16936 0.88064 0.0
C85 C 0.97467 0.33371 0.86636 0.0
O86 O 0.95591 0.18437 0.8911 0.0
Zn87 Zn 0.92182 0.25096 0.89517 0.0
O88 O 0.01906 0.19713 0.86882 0.0
Zn89 Zn 0.98279 0.25114 0.87403 0.0
O90 O 0.9924 0.26132 0.91384 0.0
O91 O 0.92364 0.25959 0.93142 0.0
O92 O 0.00557 0.30607 0.85884 0.0
O93 O 0.94153 0.31829 0.88011 0.0
O94 O 0.86283 0.2382 0.87952 0.0
O95 O 0.92108 0.236 0.85286 0.0
C96 C 0.96716 0.26329 0.93363 0.0
C97 C 0.87779 0.23172 0.85733 0.0
C98 C 0.83926 0.96844 0.3816 0.0
C99 C 0.67462 0.99557 0.37179 0.0
O100 O 0.81486 0.93553 0.39093 0.0
Zn101 Zn 0.74251 0.91955 0.39604 0.0
O102 O 0.81965 0.00403 0.37233 0.0
Zn103 Zn 0.75746 0.983 0.37712 0.0
O104 O 0.75075 0.98842 0.41683 0.0
O105 O 0.73609 0.91954 0.43279 0.0
O106 O 0.70784 0.02098 0.36459 0.0
O107 O 0.68307 0.95745 0.38338 0.0
O108 O 0.73771 0.86219 0.37714 0.0
O109 O 0.75714 0.92269 0.35382 0.0
C110 C 0.74286 0.96257 0.43599 0.0
C111 C 0.74968 0.87916 0.35597 0.0
H112 H 0.95498 0.39622 0.17097 0.0
H113 H 0.10437 0.38833 0.17579 0.0
H114 H 0.10823 0.47326 0.18037 0.0
H115 H 0.95116 0.49772 0.13351 0.0
H116 H 0.90035 0.52071 0.14845 0.0
H117 H 0.90935 0.45919 0.14744 0.0
H118 H 0.9022 0.45481 0.19608 0.0
H119 H 0.89327 0.51641 0.19723 0.0
H120 H 0.93912 0.49028 0.21537 0.0
H121 H 0.09566 0.55949 0.18326 0.0
H122 H 0.06798 0.64032 0.18174 0.0
H123 H 0.92713 0.59108 0.17381 0.0
C124 C 0.9885 0.41226 0.17328 0.0
C125 C 0.02937 0.38566 0.17317 0.0
C126 C 0.0726 0.40806 0.17583 0.0
C127 C 0.07513 0.45623 0.17855 0.0
C128 C 0.03415 0.48146 0.17845 0.0
C129 C 0.99167 0.46024 0.17576 0.0
C130 C 0.95296 0.49531 0.17483 0.0
C131 C 0.92694 0.49309 0.14955 0.0
C132 C 0.91995 0.48881 0.19722 0.0
C133 C 0.98031 0.53964 0.17717 0.0
C134 C 0.02702 0.53098 0.17953 0.0
C135 C 0.05913 0.56669 0.18151 0.0
C136 C 0.04308 0.61247 0.18067 0.0
C137 C 0.99542 0.62204 0.17763 0.0
C138 C 0.96377 0.58497 0.17616 0.0
H139 H 0.39611 0.92554 0.66936 0.0
H140 H 0.35167 0.06785 0.67885 0.0
H141 H 0.43275 0.09316 0.67963 0.0
H142 H 0.49612 0.93325 0.71059 0.0
H143 H 0.53129 0.89626 0.69128 0.0
H144 H 0.46954 0.88888 0.69174 0.0
H145 H 0.46693 0.89834 0.64318 0.0
H146 H 0.52863 0.90584 0.64257 0.0
H147 H 0.49159 0.94929 0.62883 0.0
H148 H 0.51753 0.10388 0.67751 0.0
H149 H 0.60226 0.09898 0.67469 0.0
H150 H 0.59285 0.94963 0.66811 0.0
C151 C 0.40348 0.96198 0.67169 0.0
C152 C 0.36755 0.99471 0.67402 0.0
C153 C 0.37859 0.04209 0.67711 0.0
C154 C 0.42454 0.05687 0.67754 0.0
C155 C 0.45908 0.02384 0.67507 0.0
C156 C 0.44928 0.97736 0.6724 0.0
C157 C 0.49314 0.94915 0.67016 0.0
C158 C 0.49779 0.91487 0.69226 0.0
C159 C 0.49518 0.9242 0.64467 0.0
C160 C 0.52899 0.98717 0.67174 0.0
C161 C 0.50847 0.02996 0.67447 0.0
C162 C 0.53412 0.07058 0.67556 0.0
C163 C 0.58219 0.06742 0.67385 0.0
C164 C 0.60409 0.02392 0.67127 0.0
C165 C 0.57706 0.9833 0.67031 0.0
H166 H 0.92606 0.40681 0.88633 0.0
H167 H 0.03206 0.37297 0.83173 0.0
H168 H 0.04341 0.45571 0.8228 0.0
H169 H 0.87939 0.50996 0.85218 0.0
H170 H 0.87029 0.54144 0.88096 0.0
H171 H 0.86591 0.47925 0.88088 0.0
H172 H 0.92702 0.47432 0.91651 0.0
H173 H 0.93155 0.53633 0.91671 0.0
H174 H 0.98243 0.50155 0.91211 0.0
H175 H 0.05087 0.54079 0.82356 0.0
H176 H 0.0531 0.62404 0.83394 0.0
H177 H 0.94125 0.60466 0.88694 0.0
C178 C 0.95089 0.41682 0.8721 0.0
C179 C 0.97807 0.38335 0.85969 0.0
C180 C 0.01082 0.39789 0.84151 0.0
C181 C 0.01739 0.44486 0.83618 0.0
C182 C 0.99075 0.477 0.84905 0.0
C183 C 0.95797 0.46376 0.86655 0.0
C184 C 0.9367 0.50559 0.87915 0.0
C185 C 0.885 0.50927 0.87291 0.0
C186 C 0.94495 0.50436 0.90781 0.0
C187 C 0.96383 0.54419 0.86663 0.0
C188 C 0.99447 0.52683 0.84911 0.0
C189 C 0.02627 0.55501 0.83673 0.0
C190 C 0.02732 0.6021 0.84269 0.0
C191 C -0.00348 0.62042 0.86062 0.0
C192 C 0.96394 0.5914 0.87249 0.0
H193 H 0.40186 0.96357 0.37248 0.0
H194 H 0.39025 0.11307 0.37221 0.0
H195 H 0.47502 0.11965 0.36753 0.0
H196 H 0.50208 0.95962 0.41052 0.0
H197 H 0.52694 0.91053 0.39477 0.0
H198 H 0.46527 0.91778 0.3954 0.0
H199 H 0.46274 0.91416 0.34662 0.0
H200 H 0.52451 0.90698 0.34584 0.0
H201 H 0.49777 0.95349 0.32841 0.0
H202 H 0.56133 0.10952 0.36357 0.0
H203 H 0.64279 0.08392 0.36513 0.0
H204 H 0.59751 0.94126 0.37102 0.0
C205 C 0.41714 -0.00233 0.37102 0.0
C206 C 0.38966 0.03785 0.37237 0.0
C207 C 0.41085 0.0819 0.3711 0.0
C208 C 0.45885 0.08594 0.36832 0.0
C209 C 0.48507 0.04558 0.36718 0.0
C210 C 0.46498 0.0023 0.36878 0.0
C211 C 0.50103 0.96445 0.36924 0.0
C212 C 0.49868 0.93647 0.39395 0.0
C213 C 0.49622 0.93292 0.34615 0.0
C214 C 0.5446 0.99318 0.36786 0.0
C215 C 0.5347 0.03984 0.3662 0.0
C216 C 0.56949 0.07307 0.36485 0.0
C217 C 0.6156 0.05822 0.36565 0.0
C218 C 0.62635 0.01067 0.36826 0.0
C219 C 0.59029 0.97786 0.3691 0.0
H220 H 0.92553 0.26307 0.98041 0.0
H221 H 0.05936 0.27064 0.94388 0.0
H222 H 0.09751 0.27051 0.9854 0.0
H223 H 0.95511 0.33691 0.03398 0.0
H224 H 0.92171 0.30309 0.05598 0.0
H225 H 0.90461 0.30614 1.02335 0.0
H226 H 0.90666 0.21672 1.02082 0.0
H227 H 0.92401 0.21341 0.05337 0.0
H228 H 0.95874 0.18637 0.02947 0.0
H229 H 0.1217 0.2647 0.03069 0.0
H230 H 0.12985 0.25721 0.07686 0.0
H231 H 0.98062 0.25486 0.08424 0.0
C232 C 0.96282 0.2653 0.98113 0.0
C233 C 0.98936 0.26692 0.95879 0.0
C234 C 0.03815 0.26945 0.96065 0.0
C235 C 0.06023 0.26937 0.98418 0.0
C236 C 0.03315 0.26699 1.00578 0.0
C237 C 0.98551 0.26538 1.00452 0.0
C238 C 0.96463 0.26196 0.03064 0.0
C239 C 0.93476 0.30457 0.03632 0.0
C240 C 0.93688 0.21694 0.03375 0.0
C241 C 0.008 0.26131 0.0467 0.0
C242 C 0.04713 0.26423 0.03198 0.0
C243 C 0.09128 0.26279 0.04245 0.0
C244 C 0.09557 0.25837 0.0687 0.0
C245 C 0.05594 0.25563 0.08422 0.0
C246 C 0.01163 0.25727 0.07295 0.0
H247 H 0.73783 0.97435 0.58718 0.0
H248 H 0.756 0.1228 0.57891 0.0
H249 H 0.7553 0.11456 0.53278 0.0
H250 H 0.81045 0.942 0.53519 0.0
H251 H 0.7744 0.89449 0.52546 0.0
H252 H 0.77559 0.9117 0.55803 0.0
H253 H 0.6868 0.92217 0.5573 0.0
H254 H 0.68533 0.90507 0.52471 0.0
H255 H 0.66093 0.95969 0.534 0.0
H256 H 0.75313 0.09122 0.48809 0.0
H257 H 0.75095 0.05405 0.44668 0.0
H258 H 0.7344 0.91982 0.48277 0.0
C259 C 0.74161 0.00513 0.57566 0.0
C260 C 0.74694 0.04929 0.58673 0.0
C261 C 0.75188 0.08864 0.57095 0.0
C262 C 0.75147 0.08434 0.5447 0.0
C263 C 0.74611 0.04046 0.53443 0.0
C264 C 0.74134 0.00148 0.54932 0.0
C265 C 0.7366 0.95839 0.53326 0.0
C266 C 0.77665 0.92466 0.53829 0.0
C267 C 0.68962 0.93495 0.53758 0.0
C268 C 0.73963 0.97937 0.50704 0.0
C269 C 0.74498 0.02679 0.50831 0.0
C270 C 0.74893 0.05413 0.48682 0.0
C271 C 0.74766 0.03252 0.46334 0.0
C272 C 0.74253 0.98388 0.46136 0.0
C273 C 0.73823 0.95702 0.48361 0.0
H274 H 0.00283 0.73984 0.0877 0.0
H275 H 0.85801 0.70565 0.07737 0.0
H276 H 0.8713 0.69591 0.03184 0.0
H277 H 0.01516 0.80586 0.03137 0.0
H278 H 0.07286 0.78606 1.0248 0.0
H279 H 0.05263 0.78816 0.05682 0.0
H280 H 0.07226 0.70135 0.06254 0.0
H281 H 0.09243 0.69893 0.03048 0.0
H282 H 0.04814 0.65966 0.04108 0.0
H283 H 0.89886 0.69343 0.98753 0.0
H284 H 0.93874 0.69929 0.94674 0.0
H285 H 0.06643 0.73398 0.98523 0.0
C286 C 0.97394 0.73002 0.0759 0.0
C287 C 0.92932 0.72348 0.08616 0.0
C288 C 0.89247 0.71087 0.07001 0.0
C289 C 0.8997 0.70511 0.04411 0.0
C290 C 0.944 0.71193 0.03464 0.0
C291 C 0.98054 0.72408 0.04998 0.0
C292 C 0.02439 0.73079 0.03478 0.0
C293 C 0.04229 0.78068 0.03708 0.0
C294 C 0.0615 0.69558 0.0427 0.0
C295 C 0.00658 0.72111 1.00844 0.0
C296 C 0.96013 0.71011 1.00889 0.0
C297 C 0.93528 0.70166 0.98694 0.0
C298 C 0.95827 0.70518 0.96385 0.0
C299 C 0.00574 0.71693 0.9628 0.0
C300 C 0.03032 0.7243 0.98547 0.0
H301 H 0.24372 0.07084 0.48546 0.0
H302 H 0.2738 0.94073 0.44837 0.0
H303 H 0.27325 0.90082 0.48937 0.0
H304 H 0.31401 0.04888 0.54131 0.0
H305 H 0.27385 0.0761 0.56245 0.0
H306 H 0.27752 0.09518 0.53015 0.0
H307 H 0.18985 0.08071 0.52458 0.0
H308 H 0.18596 0.06133 0.55682 0.0
H309 H 0.16645 0.02438 0.53171 0.0
H310 H 0.26704 0.87393 0.53378 0.0
H311 H 0.259 0.86232 0.57956 0.0
H312 H 0.2339 0.00934 0.58879 0.0
C313 C 0.25056 0.03404 0.486 0.0
C314 C 0.2588 0.00903 0.46359 0.0
C315 C 0.26738 0.96081 0.46517 0.0
C316 C 0.26711 0.9377 0.48841 0.0
C317 C 0.25834 0.96315 0.51003 0.0
C318 C 0.25051 0.01026 0.50915 0.0
C319 C 0.24173 0.02909 0.53536 0.0
C320 C 0.27901 0.0644 0.54275 0.0
C321 C 0.1931 0.05011 0.53722 0.0
C322 C 0.24568 0.98513 0.55099 0.0
C323 C 0.25515 0.94755 0.53592 0.0
C324 C 0.25981 0.90311 0.54582 0.0
C325 C 0.25505 0.89686 0.57188 0.0
C326 C 0.24586 0.93486 0.58786 0.0
C327 C 0.241 0.97957 0.57714 0.0
H328 H 0.16697 0.17007 0.21644 0.0
H329 H 0.07443 0.27662 0.24335 0.0
H330 H 0.1036 0.26465 0.28677 0.0
H331 H 0.14858 0.0943 0.26806 0.0
H332 H 0.20692 0.07269 0.26889 0.0
H333 H 0.18269 0.09341 0.2397 0.0
H334 H 0.25083 0.15085 0.23483 0.0
H335 H 0.27517 0.13041 0.26412 0.0
H336 H 0.26318 0.19109 0.25979 0.0
H337 H 0.14159 0.23964 0.3274 0.0
H338 H 0.17852 0.19763 0.36275 0.0
H339 H 0.24211 0.1036 0.30967 0.0
C340 C 0.15351 0.19138 0.23144 0.0
C341 C 0.11896 0.22471 0.2266 0.0
C342 C 0.10109 0.25106 0.24674 0.0
C343 C 0.11762 0.24467 0.2714 0.0
C344 C 0.15154 0.21131 0.27562 0.0
C345 C 0.16884 0.18466 0.25625 0.0
C346 C 0.20183 0.14818 0.26617 0.0
C347 C 0.18392 0.09926 0.26036 0.0
C348 C 0.25065 0.1556 0.2556 0.0
C349 C 0.20013 0.15822 0.29414 0.0
C350 C 0.17162 0.19533 0.29916 0.0
C351 C 0.16408 0.2106 0.32368 0.0
C352 C 0.18538 0.18666 0.34364 0.0
C353 C 0.21322 0.14737 0.33898 0.0
C354 C 0.2211 0.13356 0.31384 0.0
H355 H 0.89055 0.24007 0.80652 0.0
H356 H 0.79574 0.18548 0.86237 0.0
H357 H 0.74956 0.1494 0.82847 0.0
H358 H 0.80225 0.26474 0.75789 0.0
H359 H 0.84038 0.24881 0.73259 0.0
H360 H 0.86367 0.27288 0.76117 0.0
H361 H 0.9169 0.20139 0.76633 0.0
H362 H 0.89358 0.17697 0.73791 0.0
H363 H 0.89173 0.14438 0.76692 0.0
H364 H 0.72037 0.11042 0.78877 0.0
H365 H 0.70525 0.07953 0.74602 0.0
H366 H 0.81519 0.16514 0.7161 0.0
C367 C 0.85959 0.22123 0.81158 0.0
C368 C 0.84668 0.21555 0.83706 0.0
C369 C 0.80601 0.19059 0.84295 0.0
C370 C 0.7797 0.16982 0.82383 0.0
C371 C 0.79402 0.17518 0.79891 0.0
C372 C 0.83252 0.20109 0.79274 0.0
C373 C 0.84122 0.20082 0.76462 0.0
C374 C 0.83659 0.24972 0.75341 0.0
C375 C 0.88866 0.17962 0.75861 0.0
C376 C 0.8023 0.16978 0.75596 0.0
C377 C 0.77562 0.15499 0.77601 0.0
C378 C 0.7403 0.12268 0.77286 0.0
C379 C 0.73205 0.10521 0.7486 0.0
C380 C 0.75843 0.12077 0.72783 0.0
C381 C 0.79365 0.15374 0.73159 0.0
H382 H 0.82116 0.88992 0.32411 0.0
H383 H 0.7041 0.801 0.33963 0.0
H384 H 0.72312 0.7543 0.30179 0.0
H385 H 0.81337 0.89177 0.25787 0.0
H386 H 0.87489 0.89022 0.25297 0.0
H387 H 0.8519 0.91536 0.28122 0.0
H388 H 0.90192 0.85984 0.30838 0.0
H389 H 0.92517 0.83455 0.28018 0.0
H390 H 0.89778 0.79834 0.3035 0.0
H391 H 0.75219 0.72241 0.25956 0.0
H392 H 0.79247 0.70352 0.21971 0.0
H393 H 0.89383 0.80999 0.23517 0.0
C394 C 0.79948 0.86059 0.31954 0.0
C395 C 0.76081 0.84925 0.33443 0.0
C396 C 0.73378 0.81016 0.32828 0.0
C397 C 0.74433 0.78363 0.30686 0.0
C398 C 0.7826 0.79617 0.29235 0.0
C399 C 0.81014 0.83333 0.29877 0.0
C400 C 0.84974 0.83956 0.28058 0.0
C401 C 0.84729 0.88703 0.26738 0.0
C402 C 0.89641 0.83264 0.29396 0.0
C403 C 0.8398 0.80073 0.26244 0.0
C404 C 0.80077 0.77621 0.26933 0.0
C405 C 0.78324 0.74085 0.25429 0.0
C406 C 0.8062 0.73043 0.23169 0.0
C407 C 0.84661 0.7548 0.22465 0.0
C408 C 0.86366 0.79003 0.2404 0.0
H409 H 0.17865 0.90046 0.739 0.0
H410 H 0.28436 0.79937 0.72212 0.0
H411 H 0.26785 0.75898 0.7625 0.0
H412 H 0.19268 0.90393 0.80737 0.0
H413 H 0.13141 0.90761 0.81285 0.0
H414 H 0.15571 0.93129 0.78435 0.0
H415 H 0.09996 0.88112 0.75775 0.0
H416 H 0.07555 0.85726 0.78612 0.0
H417 H 0.09896 0.81936 0.76253 0.0
H418 H 0.23816 0.7294 0.80511 0.0
H419 H 0.19238 0.70852 0.84308 0.0
H420 H 0.10185 0.82505 0.82882 0.0
C421 C 0.19903 0.87041 0.7441 0.0
C422 C 0.2334 0.85344 0.72781 0.0
C423 C 0.25821 0.81307 0.73457 0.0
C424 C 0.24915 0.79008 0.75746 0.0
C425 C 0.21458 0.80749 0.77305 0.0
C426 C 0.18955 0.84646 0.76643 0.0
C427 C 0.15117 0.85567 0.785 0.0
C428 C 0.15819 0.90239 0.79817 0.0
C429 C 0.10361 0.85318 0.77208 0.0
C430 C 0.15827 0.81574 0.80309 0.0
C431 C 0.19556 0.78878 0.79628 0.0
C432 C 0.2088 0.75021 0.81053 0.0
C433 C 0.1828 0.73865 0.83205 0.0
C434 C 0.14351 0.76495 0.83859 0.0
C435 C 0.1315 0.80407 0.82401 0.0
H436 H 0.04736 0.09182 0.16322 0.0
H437 H 0.90548 0.14007 0.1619 0.0
H438 H 0.87824 0.05912 0.16036 0.0
H439 H 0.03259 0.99551 0.12137 0.0
H440 H 0.0714 0.9584 0.13872 0.0
H441 H 0.07963 0.02012 0.1391 0.0
H442 H 0.07642 0.01936 0.18791 0.0
H443 H 0.0683 0.95764 0.18768 0.0
H444 H 0.02724 0.99409 0.20353 0.0
H445 H 0.86669 0.97281 0.15847 0.0
H446 H 0.87144 0.88755 0.15876 0.0
H447 H 0.02092 0.89613 0.16276 0.0
C448 C 0.01054 0.08542 0.16249 0.0
C449 C 0.97851 0.12224 0.16255 0.0
C450 C 0.93063 0.11237 0.16188 0.0
C451 C 0.91484 0.06654 0.16093 0.0
C452 C 0.94738 0.03105 0.16086 0.0
C453 C 0.99421 0.03996 0.16181 0.0
C454 C 0.022 0.99564 0.16229 0.0
C455 C 0.05324 0.99223 0.13898 0.0
C456 C 0.05013 0.99145 0.18681 0.0
C457 C 0.98348 0.96034 0.16141 0.0
C458 C 0.94071 0.98144 0.16041 0.0
C459 C 0.89999 0.9559 0.1593 0.0
C460 C 0.90306 0.9075 0.1594 0.0
C461 C 0.94654 0.88516 0.16081 0.0
C462 C 0.98717 0.91213 0.16175 0.0
H463 H 0.08024 0.91994 0.64964 0.0
H464 H 0.11524 0.01812 0.70824 0.0
H465 H 0.03305 0.02759 0.71824 0.0
H466 H 0.98449 0.98149 0.62699 0.0
H467 H 0.94937 0.93169 0.62003 0.0
H468 H 0.01128 0.92695 0.61965 0.0
H469 H 0.00707 0.85974 0.65203 0.0
H470 H 0.94501 0.86442 0.65257 0.0
H471 H 0.9775 0.86827 0.68149 0.0
H472 H 0.94937 0.03379 0.71918 0.0
H473 H 0.86615 0.03861 0.70979 0.0
H474 H 0.88179 0.93707 0.65065 0.0
C475 C 0.07039 0.94268 0.66485 0.0
C476 C 0.10389 0.96831 0.6782 0.0
C477 C 0.08999 -0.00155 0.69768 0.0
C478 C 0.04345 0.00374 0.70367 0.0
C479 C 0.01112 0.97876 0.68996 0.0
C480 C 0.02366 0.94895 0.67088 0.0
C481 C 0.9813 0.93011 0.6575 0.0
C482 C 0.98165 0.94337 0.62938 0.0
C483 C 0.97751 0.8775 0.66112 0.0
C484 C 0.94333 0.9552 0.67159 0.0
C485 C 0.96159 0.98245 0.69049 0.0
C486 C 0.93443 0.01196 0.70481 0.0
C487 C 0.88737 0.01453 0.69935 0.0
C488 C 0.86802 0.98761 0.67989 0.0
C489 C 0.89595 0.95688 0.6661 0.0
H490 H 0.93447 0.09505 0.88318 0.0
H491 H 0.07935 0.13309 0.88221 0.0
H492 H 0.10101 0.05071 0.88579 0.0
H493 H 0.94291 -0.00133 0.92657 0.0
H494 H 0.90188 0.96343 0.90979 0.0
H495 H 0.89745 0.02553 0.90845 0.0
H496 H 0.90052 0.02297 0.85969 0.0
H497 H 0.90484 0.96088 0.86087 0.0
H498 H 0.94804 0.99422 0.84448 0.0
H499 H 0.10703 0.96555 0.8903 0.0
H500 H 0.09786 0.88101 0.89151 0.0
H501 H 0.94901 0.89663 0.88646 0.0
C502 C 0.97071 0.0859 0.88392 0.0
C503 C 0.00536 0.12019 0.88265 0.0
C504 C 0.05241 0.10716 0.88316 0.0
C505 C 0.06499 0.06058 0.8853 0.0
C506 C 0.03006 0.02756 0.88648 0.0
C507 C 0.9839 0.03943 0.88548 0.0
C508 C 0.95341 -0.0032 0.88568 0.0
C509 C 0.92207 -0.00392 0.90902 0.0
C510 C 0.92504 0.99354 0.86122 0.0
C511 C 0.98972 0.95916 0.88711 0.0
C512 C 0.03362 0.97787 0.88787 0.0
C513 C 0.07289 0.95042 0.88964 0.0
C514 C 0.06725 0.90244 0.89044 0.0
C515 C 0.0227 0.88231 0.88911 0.0
C516 C 0.98344 0.91112 0.88743 0.0
H517 H 0.90397 0.03741 0.38108 0.0
H518 H 0.88829 0.88824 0.37989 0.0
H519 H 0.973 0.8793 0.37762 0.0
H520 H 0.00164 0.04505 0.339 0.0
H521 H 0.02923 0.09059 0.35653 0.0
H522 H 0.96728 0.08526 0.35678 0.0
H523 H 0.96823 0.08104 0.4056 0.0
H524 H 0.03013 0.08649 0.40548 0.0
H525 H 0.00335 0.03802 0.42115 0.0
H526 H 0.05955 0.88686 0.37481 0.0
H527 H 0.1418 0.9104 0.37543 0.0
H528 H 0.10027 0.05409 0.38112 0.0
C529 C 0.91843 0.00293 0.38021 0.0
C530 C 0.8898 0.96352 0.3806 0.0
C531 C 0.90982 0.91887 0.37976 0.0
C532 C 0.9578 0.91345 0.37832 0.0
C533 C 0.98517 0.95302 0.37804 0.0
C534 C 0.96626 -0.00313 0.37923 0.0
C535 C 0.00336 0.03362 0.37989 0.0
C536 C 0.00018 0.0655 0.35667 0.0
C537 C 0.00113 0.06141 0.4045 0.0
C538 C 0.04604 0.00359 0.37898 0.0
C539 C 0.0349 0.95724 0.37754 0.0
C540 C 0.06873 0.92305 0.37606 0.0
C541 C 0.11523 0.93667 0.37635 0.0
C542 C 0.12718 0.98392 0.37854 0.0
C543 C 0.09206 0.01764 0.37974 0.0
loop_
_geom_bond_atom_site_label_1
_geom_bond_atom_site_label_2
_geom_bond_distance
_geom_bond_site_symmetry_2
_ccdc_geom_bond_type
C0 O2 1.247 . S
C0 O4 1.258 . S
C1 O8 1.247 . S
C1 O9 1.258 . S
O2 C0 1.247 . S
O2 Zn3 2.028 . S
Zn3 O2 2.028 . S
Zn3 O7 2.035 . S
Zn3 O9 2.035 . S
Zn3 O10 2.028 . S
O4 C0 1.258 . S
O4 Zn5 2.035 . S
Zn5 O4 2.035 . S
Zn5 O6 2.028 . S
Zn5 O8 2.028 . S
Zn5 O11 2.035 . S
O6 Zn5 2.028 . S
O6 C12 1.247 . S
O7 Zn3 2.035 . S
O7 C12 1.258 . S
O8 C1 1.247 . S
O8 Zn5 2.028 . S
O9 C1 1.258 . S
O9 Zn3 2.035 . S
O10 Zn3 2.028 . S
O10 C13 1.247 . S
O11 Zn5 2.035 . S
O11 C13 1.258 . S
C12 O6 1.247 . S
C12 O7 1.258 . S
C13 O10 1.247 . S
C13 O11 1.258 . S
C14 O16 1.247 . S
C14 O18 1.258 . S
C15 O22 1.247 . S
C15 O23 1.258 . S
O16 C14 1.247 . S
O16 Zn17 2.028 . S
Zn17 O16 2.028 . S
Zn17 O21 2.035 . S
Zn17 O23 2.035 . S
Zn17 O24 2.028 . S
O18 C14 1.258 . S
O18 Zn19 2.035 . S
Zn19 O18 2.035 . S
Zn19 O20 2.028 . S
Zn19 O22 2.028 . S
Zn19 O25 2.035 . S
O20 Zn19 2.028 . S
O20 C26 1.247 . S
O21 Zn17 2.035 . S
O21 C26 1.258 . S
O22 C15 1.247 . S
O22 Zn19 2.028 . S
O23 C15 1.258 . S
O23 Zn17 2.035 . S
O24 Zn17 2.028 . S
O24 C27 1.247 . S
O25 Zn19 2.035 . S
O25 C27 1.258 . S
C26 O20 1.247 . S
C26 O21 1.258 . S
C27 O24 1.247 . S
C27 O25 1.258 . S
C28 O30 1.247 . S
C28 O32 1.258 . S
C29 O36 1.247 . S
C29 O37 1.258 . S
O30 C28 1.247 . S
O30 Zn31 2.028 . S
Zn31 O30 2.028 . S
Zn31 O35 2.035 . S
Zn31 O37 2.035 . S
Zn31 O38 2.028 . S
O32 C28 1.258 . S
O32 Zn33 2.035 . S
Zn33 O32 2.035 . S
Zn33 O34 2.028 . S
Zn33 O36 2.028 . S
Zn33 O39 2.035 . S
O34 Zn33 2.028 . S
O34 C40 1.247 . S
O35 Zn31 2.035 . S
O35 C40 1.258 . S
O36 C29 1.247 . S
O36 Zn33 2.028 . S
O37 C29 1.258 . S
O37 Zn31 2.035 . S
O38 Zn31 2.028 . S
O38 C41 1.247 . S
O39 Zn33 2.035 . S
O39 C41 1.258 . S
C40 O34 1.247 . S
C40 O35 1.258 . S
C41 O38 1.247 . S
C41 O39 1.258 . S
C42 O44 1.247 . S
C42 O46 1.258 . S
C43 O50 1.247 . S
C43 O51 1.258 . S
O44 C42 1.247 . S
O44 Zn45 2.028 . S
Zn45 O44 2.028 . S
Zn45 O49 2.035 . S
Zn45 O51 2.035 . S
Zn45 O52 2.028 . S
O46 C42 1.258 . S
O46 Zn47 2.035 . S
Zn47 O46 2.035 . S
Zn47 O48 2.028 . S
Zn47 O50 2.028 . S
Zn47 O53 2.035 . S
O48 Zn47 2.028 . S
O48 C54 1.247 . S
O49 Zn45 2.035 . S
O49 C54 1.258 . S
O50 C43 1.247 . S
O50 Zn47 2.028 . S
O51 C43 1.258 . S
O51 Zn45 2.035 . S
O52 Zn45 2.028 . S
O52 C55 1.247 . S
O53 Zn47 2.035 . S
O53 C55 1.258 . S
C54 O48 1.247 . S
C54 O49 1.258 . S
C55 O52 1.247 . S
C55 O53 1.258 . S
C56 O58 1.247 . S
C56 O60 1.258 . S
C57 O64 1.247 . S
C57 O65 1.258 . S
O58 C56 1.247 . S
O58 Zn59 2.028 . S
Zn59 O58 2.028 . S
Zn59 O63 2.035 . S
Zn59 O65 2.035 . S
Zn59 O66 2.028 . S
O60 C56 1.258 . S
O60 Zn61 2.035 . S
Zn61 O60 2.035 . S
Zn61 O62 2.028 . S
Zn61 O64 2.028 . S
Zn61 O67 2.035 . S
O62 Zn61 2.028 . S
O62 C68 1.247 . S
O63 Zn59 2.035 . S
O63 C68 1.258 . S
O64 C57 1.247 . S
O64 Zn61 2.028 . S
O65 C57 1.258 . S
O65 Zn59 2.035 . S
O66 Zn59 2.028 . S
O66 C69 1.247 . S
O67 Zn61 2.035 . S
O67 C69 1.258 . S
C68 O62 1.247 . S
C68 O63 1.258 . S
C69 O66 1.247 . S
C69 O67 1.258 . S
C70 O72 1.247 . S
C70 O74 1.258 . S
C71 O78 1.247 . S
C71 O79 1.258 . S
O72 C70 1.247 . S
O72 Zn73 2.028 . S
Zn73 O72 2.028 . S
Zn73 O77 2.035 . S
Zn73 O79 2.035 . S
Zn73 O80 2.028 . S
O74 C70 1.258 . S
O74 Zn75 2.035 . S
Zn75 O74 2.035 . S
Zn75 O76 2.028 . S
Zn75 O78 2.028 . S
Zn75 O81 2.035 . S
O76 Zn75 2.028 . S
O76 C82 1.247 . S
O77 Zn73 2.035 . S
O77 C82 1.258 . S
O78 C71 1.247 . S
O78 Zn75 2.028 . S
O79 C71 1.258 . S
O79 Zn73 2.035 . S
O80 Zn73 2.028 . S
O80 C83 1.247 . S
O81 Zn75 2.035 . S
O81 C83 1.258 . S
C82 O76 1.247 . S
C82 O77 1.258 . S
C83 O80 1.247 . S
C83 O81 1.258 . S
C84 O86 1.247 . S
C84 O88 1.258 . S
C85 O92 1.247 . S
C85 O93 1.258 . S
O86 C84 1.247 . S
O86 Zn87 2.028 . S
Zn87 O86 2.028 . S
Zn87 O91 2.035 . S
Zn87 O93 2.035 . S
Zn87 O94 2.028 . S
O88 C84 1.258 . S
O88 Zn89 2.035 . S
Zn89 O88 2.035 . S
Zn89 O90 2.028 . S
Zn89 O92 2.028 . S
Zn89 O95 2.035 . S
O90 Zn89 2.028 . S
O90 C96 1.247 . S
O91 Zn87 2.035 . S
O91 C96 1.258 . S
O92 C85 1.247 . S
O92 Zn89 2.028 . S
O93 C85 1.258 . S
O93 Zn87 2.035 . S
O94 Zn87 2.028 . S
O94 C97 1.247 . S
O95 Zn89 2.035 . S
O95 C97 1.258 . S
C96 O90 1.247 . S
C96 O91 1.258 . S
C97 O94 1.247 . S
C97 O95 1.258 . S
C98 O100 1.247 . S
C98 O102 1.258 . S
C99 O106 1.247 . S
C99 O107 1.258 . S
O100 C98 1.247 . S
O100 Zn101 2.028 . S
Zn101 O100 2.028 . S
Zn101 O105 2.035 . S
Zn101 O107 2.035 . S
Zn101 O108 2.028 . S
O102 C98 1.258 . S
O102 Zn103 2.035 . S
Zn103 O102 2.035 . S
Zn103 O104 2.028 . S
Zn103 O106 2.028 . S
Zn103 O109 2.035 . S
O104 Zn103 2.028 . S
O104 C110 1.247 . S
O105 Zn101 2.035 . S
O105 C110 1.258 . S
O106 C99 1.247 . S
O106 Zn103 2.028 . S
O107 C99 1.258 . S
O107 Zn101 2.035 . S
O108 Zn101 2.028 . S
O108 C111 1.247 . S
O109 Zn103 2.035 . S
O109 C111 1.258 . S
C110 O104 1.247 . S
C110 O105 1.258 . S
C111 O108 1.247 . S
C111 O109 1.258 . S
H112 C124 0.930 . S
H113 C126 0.930 . S
H114 C127 0.930 . S
H115 C131 0.959 . S
H116 C131 0.959 . S
H117 C131 0.961 . S
H118 C132 0.960 . S
H119 C132 0.961 . S
H120 C132 0.959 . S
H121 C135 0.929 . S
H122 C136 0.931 . S
H123 C138 0.930 . S
C124 H112 0.930 . S
C124 C125 1.399 . S
C124 C129 1.399 . S
C125 C124 1.399 . S
C125 C126 1.376 . S
C126 H113 0.930 . S
C126 C125 1.376 . S
C126 C127 1.388 . S
C127 H114 0.930 . S
C127 C126 1.388 . S
C127 C128 1.390 . S
C128 C127 1.390 . S
C128 C129 1.394 . S
C128 C134 1.465 1_455 S
C129 C124 1.399 . S
C129 C128 1.394 . S
C129 C130 1.516 1_455 S
C130 C129 1.516 1_655 S
C130 C131 1.502 1_655 S
C130 C132 1.561 . S
C130 C133 1.526 . S
C131 H115 0.959 . S
C131 H116 0.959 . S
C131 H117 0.961 . S
C131 C130 1.502 1_455 S
C132 H118 0.960 . S
C132 H119 0.961 . S
C132 H120 0.959 . S
C132 C130 1.561 . S
C133 C130 1.526 . S
C133 C134 1.396 . S
C133 C138 1.390 . S
C134 C128 1.465 1_655 S
C134 C133 1.396 . S
C134 C135 1.399 . S
C135 H121 0.929 . S
C135 C134 1.399 . S
C135 C136 1.385 . S
C136 H122 0.931 . S
C136 C135 1.385 . S
C136 C137 1.389 . S
C137 C136 1.389 . S
C137 C138 1.387 . S
C138 H123 0.930 . S
C138 C133 1.390 . S
C138 C137 1.387 . S
H139 C151 0.930 . S
H140 C153 0.930 . S
H141 C154 0.930 1_545 S
H142 C158 0.959 . S
H143 C158 0.959 . S
H144 C158 0.961 . S
H145 C159 0.960 . S
H146 C159 0.961 . S
H147 C159 0.959 . S
H148 C162 0.929 . S
H149 C163 0.931 . S
H150 C165 0.930 . S
C151 H139 0.930 . S
C151 C152 1.399 . S
C151 C156 1.399 . S
C152 C151 1.399 . S
C152 C153 1.376 . S
C153 H140 0.930 . S
C153 C152 1.376 . S
C153 C154 1.388 . S
C154 H141 0.930 1_565 S
C154 C153 1.388 . S
C154 C155 1.390 . S
C155 C154 1.390 . S
C155 C156 1.394 . S
C155 C161 1.465 1_565 S
C156 C151 1.399 . S
C156 C155 1.394 . S
C156 C157 1.516 . S
C157 C156 1.516 . S
C157 C158 1.502 . S
C157 C159 1.561 1_565 S
C157 C160 1.526 1_565 S
C158 H142 0.959 . S
C158 H143 0.959 . S
C158 H144 0.961 . S
C158 C157 1.502 . S
C159 H145 0.960 . S
C159 H146 0.961 . S
C159 H147 0.959 . S
C159 C157 1.561 1_545 S
C160 C157 1.526 1_545 S
C160 C161 1.396 . S
C160 C165 1.390 . S
C161 C155 1.465 1_545 S
C161 C160 1.396 . S
C161 C162 1.399 . S
C162 H148 0.929 . S
C162 C161 1.399 . S
C162 C163 1.385 . S
C163 H149 0.931 . S
C163 C162 1.385 . S
C163 C164 1.389 . S
C164 C163 1.389 . S
C164 C165 1.387 . S
C165 H150 0.930 . S
C165 C160 1.390 . S
C165 C164 1.387 . S
H166 C178 0.930 . S
H167 C180 0.930 . S
H168 C181 0.930 . S
H169 C185 0.959 . S
H170 C185 0.959 . S
H171 C185 0.961 . S
H172 C186 0.960 . S
H173 C186 0.961 . S
H174 C186 0.959 . S
H175 C189 0.929 . S
H176 C190 0.931 . S
H177 C192 0.930 . S
C178 H166 0.930 . S
C178 C179 1.399 . S
C178 C183 1.399 . S
C179 C178 1.399 . S
C179 C180 1.376 . S
C180 H167 0.930 . S
C180 C179 1.376 . S
C180 C181 1.388 1_655 S
C181 H168 0.930 . S
C181 C180 1.388 1_455 S
C181 C182 1.393 . S
C182 C181 1.393 . S
C182 C183 1.381 1_455 S
C182 C188 1.473 . S
C183 C178 1.399 . S
C183 C182 1.381 1_655 S
C183 C184 1.516 . S
C184 C183 1.516 . S
C184 C185 1.502 . S
C184 C186 1.561 . S
C184 C187 1.526 1_655 S
C185 H169 0.959 . S
C185 H170 0.959 . S
C185 H171 0.961 . S
C185 C184 1.502 . S
C186 H172 0.960 . S
C186 H173 0.961 . S
C186 H174 0.959 . S
C186 C184 1.561 . S
C187 C184 1.526 1_455 S
C187 C188 1.396 . S
C187 C192 1.390 . S
C188 C182 1.473 . S
C188 C187 1.396 . S
C188 C189 1.399 . S
C189 H175 0.929 . S
C189 C188 1.399 . S
C189 C190 1.385 . S
C190 H176 0.931 . S
C190 C189 1.385 . S
C190 C191 1.389 . S
C191 C190 1.389 . S
C191 C192 1.387 . S
C192 H177 0.930 . S
C192 C187 1.390 . S
C192 C191 1.387 . S
H193 C205 0.930 . S
H194 C207 0.930 . S
H195 C208 0.930 . S
H196 C212 0.959 . S
H197 C212 0.959 . S
H198 C212 0.961 . S
H199 C213 0.960 . S
H200 C213 0.961 . S
H201 C213 0.959 1_545 S
H202 C216 0.929 . S
H203 C217 0.931 . S
H204 C219 0.930 . S
C205 H193 0.930 . S
C205 C206 1.399 . S
C205 C210 1.399 . S
C206 C205 1.399 . S
C206 C207 1.376 . S
C207 H194 0.930 . S
C207 C206 1.376 . S
C207 C208 1.388 . S
C208 H195 0.930 . S
C208 C207 1.388 . S
C208 C209 1.390 . S
C209 C208 1.390 . S
C209 C210 1.394 . S
C209 C215 1.465 . S
C210 C205 1.399 . S
C210 C209 1.394 . S
C210 C211 1.516 1_545 S
C211 C210 1.516 1_565 S
C211 C212 1.502 . S
C211 C213 1.561 . S
C211 C214 1.526 . S
C212 H196 0.959 . S
C212 H197 0.959 . S
C212 H198 0.961 . S
C212 C211 1.502 . S
C213 H199 0.960 . S
C213 H200 0.961 . S
C213 H201 0.959 1_565 S
C213 C211 1.561 . S
C214 C211 1.526 . S
C214 C215 1.396 1_565 S
C214 C219 1.390 . S
C215 C209 1.465 . S
C215 C214 1.396 1_545 S
C215 C216 1.399 . S
C216 H202 0.929 . S
C216 C215 1.399 . S
C216 C217 1.385 1_545 S
C217 H203 0.931 . S
C217 C216 1.385 1_565 S
C217 C218 1.389 . S
C218 C217 1.389 . S
C218 C219 1.387 . S
C219 H204 0.930 . S
C219 C214 1.390 . S
C219 C218 1.387 . S
H220 C232 0.930 . S
H221 C234 0.930 1_455 S
H222 C235 0.930 . S
H223 C239 0.959 . S
H224 C239 0.959 . S
H225 C239 0.961 1_556 S
H226 C240 0.960 . S
H227 C240 0.961 1_554 S
H228 C240 0.959 . S
H229 C243 0.929 . S
H230 C244 0.931 . S
H231 C246 0.930 . S
C232 H220 0.930 . S
C232 C233 1.399 . S
C232 C237 1.399 . S
C233 C232 1.399 . S
C233 C234 1.376 . S
C234 H221 0.930 1_655 S
C234 C233 1.376 . S
C234 C235 1.388 1_655 S
C235 H222 0.930 . S
C235 C234 1.388 1_455 S
C235 C236 1.390 . S
C236 C235 1.390 . S
C236 C237 1.394 1_455 S
C236 C242 1.465 1_556 S
C237 C232 1.399 . S
C237 C236 1.394 1_655 S
C237 C238 1.516 1_556 S
C238 C237 1.516 1_554 S
C238 C239 1.502 . S
C238 C240 1.561 1_654 S
C238 C241 1.526 1_655 S
C239 H223 0.959 . S
C239 H224 0.959 . S
C239 H225 0.961 1_554 S
C239 C238 1.502 . S
C240 H226 0.960 . S
C240 H227 0.961 1_556 S
C240 H228 0.959 . S
C240 C238 1.561 1_456 S
C241 C238 1.526 1_455 S
C241 C242 1.396 . S
C241 C246 1.390 . S
C242 C236 1.465 1_554 S
C242 C241 1.396 . S
C242 C243 1.399 . S
C243 H229 0.929 . S
C243 C242 1.399 . S
C243 C244 1.385 . S
C244 H230 0.931 . S
C244 C243 1.385 . S
C244 C245 1.389 . S
C245 C244 1.389 . S
C245 C246 1.387 . S
C246 H231 0.930 . S
C246 C241 1.390 . S
C246 C245 1.387 . S
H247 C259 0.930 . S
H248 C261 0.930 . S
H249 C262 0.930 . S
H250 C266 0.959 . S
H251 C266 0.959 . S
H252 C266 0.961 . S
H253 C267 0.960 . S
H254 C267 0.961 . S
H255 C267 0.959 . S
H256 C270 0.926 1_545 S
H257 C271 0.931 . S
H258 C273 0.930 . S
C259 H247 0.930 . S
C259 C260 1.399 . S
C259 C264 1.399 . S
C260 C259 1.399 . S
C260 C261 1.376 . S
C261 H248 0.930 . S
C261 C260 1.376 . S
C261 C262 1.388 . S
C262 H249 0.930 . S
C262 C261 1.388 . S
C262 C263 1.390 . S
C263 C262 1.390 . S
C263 C264 1.394 . S
C263 C269 1.465 . S
C264 C259 1.399 . S
C264 C263 1.394 . S
C264 C265 1.516 1_545 S
C265 C264 1.516 1_565 S
C265 C266 1.502 . S
C265 C267 1.561 1_565 S
C265 C268 1.526 . S
C266 H250 0.959 . S
C266 H251 0.959 . S
C266 H252 0.961 . S
C266 C265 1.502 . S
C267 H253 0.960 . S
C267 H254 0.961 . S
C267 H255 0.959 . S
C267 C265 1.561 1_545 S
C268 C265 1.526 . S
C268 C269 1.396 1_565 S
C268 C273 1.390 . S
C269 C263 1.465 . S
C269 C268 1.396 1_545 S
C269 C270 1.398 1_545 S
C270 H256 0.926 1_565 S
C270 C269 1.398 1_565 S
C270 C271 1.389 . S
C271 H257 0.931 . S
C271 C270 1.389 . S
C271 C272 1.389 . S
C272 C271 1.389 . S
C272 C273 1.387 . S
C273 H258 0.930 . S
C273 C268 1.390 . S
C273 C272 1.387 . S
H274 C286 0.930 1_455 S
H275 C288 0.930 . S
H276 C289 0.930 . S
H277 C293 0.959 . S
H278 C293 0.959 1_556 S
H279 C293 0.961 . S
H280 C294 0.960 1_554 S
H281 C294 0.961 1_455 S
H282 C294 0.959 . S
H283 C297 0.929 . S
H284 C298 0.931 . S
H285 C300 0.930 . S
C286 H274 0.930 1_655 S
C286 C287 1.399 . S
C286 C291 1.399 . S
C287 C286 1.399 . S
C287 C288 1.376 . S
C288 H275 0.930 . S
C288 C287 1.376 . S
C288 C289 1.388 . S
C289 H276 0.930 . S
C289 C288 1.388 . S
C289 C290 1.390 . S
C290 C289 1.390 . S
C290 C291 1.394 . S
C290 C296 1.465 1_554 S
C291 C286 1.399 . S
C291 C290 1.394 . S
C291 C292 1.516 1_655 S
C292 C291 1.516 1_455 S
C292 C293 1.502 . S
C292 C294 1.561 1_454 S
C292 C295 1.526 1_554 S
C293 H277 0.959 . S
C293 H278 0.959 1_554 S
C293 H279 0.961 . S
C293 C292 1.502 . S
C294 H280 0.960 1_556 S
C294 H281 0.961 1_655 S
C294 H282 0.959 . S
C294 C292 1.561 1_656 S
C295 C292 1.526 1_556 S
C295 C296 1.396 1_455 S
C295 C300 1.390 . S
C296 C290 1.465 1_556 S
C296 C295 1.396 1_655 S
C296 C297 1.399 . S
C297 H283 0.929 . S
C297 C296 1.399 . S
C297 C298 1.387 . S
C298 H284 0.931 . S
C298 C297 1.387 . S
C298 C299 1.387 1_655 S
C299 C298 1.387 1_455 S
C299 C300 1.387 . S
C300 H285 0.930 . S
C300 C295 1.390 . S
C300 C299 1.387 . S
H301 C313 0.930 . S
H302 C315 0.930 . S
H303 C316 0.930 . S
H304 C320 0.959 . S
H305 C320 0.959 . S
H306 C320 0.961 . S
H307 C321 0.960 . S
H308 C321 0.961 . S
H309 C321 0.959 . S
H310 C324 0.929 . S
H311 C325 0.931 . S
H312 C327 0.930 . S
C313 H301 0.930 . S
C313 C314 1.399 . S
C313 C318 1.399 . S
C314 C313 1.399 . S
C314 C315 1.376 1_545 S
C315 H302 0.930 . S
C315 C314 1.376 1_565 S
C315 C316 1.388 . S
C316 H303 0.930 . S
C316 C315 1.388 . S
C316 C317 1.390 . S
C317 C316 1.390 . S
C317 C318 1.394 1_565 S
C317 C323 1.465 . S
C318 C313 1.399 . S
C318 C317 1.394 1_545 S
C318 C319 1.516 . S
C319 C318 1.516 . S
C319 C320 1.502 . S
C319 C321 1.561 . S
C319 C322 1.526 . S
C320 H304 0.959 . S
C320 H305 0.959 . S
C320 H306 0.961 . S
C320 C319 1.502 . S
C321 H307 0.960 . S
C321 H308 0.961 . S
C321 H309 0.959 . S
C321 C319 1.561 . S
C322 C319 1.526 . S
C322 C323 1.396 1_545 S
C322 C327 1.390 . S
C323 C317 1.465 . S
C323 C322 1.396 1_565 S
C323 C324 1.399 . S
C324 H310 0.929 . S
C324 C323 1.399 . S
C324 C325 1.385 . S
C325 H311 0.931 . S
C325 C324 1.385 . S
C325 C326 1.389 . S
C326 C325 1.389 . S
C326 C327 1.387 1_565 S
C327 H312 0.930 . S
C327 C322 1.390 . S
C327 C326 1.387 1_545 S
H328 C340 0.930 . S
H329 C342 0.930 . S
H330 C343 0.930 . S
H331 C347 0.959 . S
H332 C347 0.959 . S
H333 C347 0.961 . S
H334 C348 0.960 . S
H335 C348 0.961 . S
H336 C348 0.959 . S
H337 C351 0.929 . S
H338 C352 0.931 . S
H339 C354 0.930 . S
C340 H328 0.930 . S
C340 C341 1.399 . S
C340 C345 1.399 . S
C341 C340 1.399 . S
C341 C342 1.376 . S
C342 H329 0.930 . S
C342 C341 1.376 . S
C342 C343 1.388 . S
C343 H330 0.930 . S
C343 C342 1.388 . S
C343 C344 1.390 . S
C344 C343 1.390 . S
C344 C345 1.394 . S
C344 C350 1.465 . S
C345 C340 1.399 . S
C345 C344 1.394 . S
C345 C346 1.516 . S
C346 C345 1.516 . S
C346 C347 1.502 . S
C346 C348 1.561 . S
C346 C349 1.526 . S
C347 H331 0.959 . S
C347 H332 0.959 . S
C347 H333 0.961 . S
C347 C346 1.502 . S
C348 H334 0.960 . S
C348 H335 0.961 . S
C348 H336 0.959 . S
C348 C346 1.561 . S
C349 C346 1.526 . S
C349 C350 1.396 . S
C349 C354 1.390 . S
C350 C344 1.465 . S
C350 C349 1.396 . S
C350 C351 1.399 . S
C351 H337 0.929 . S
C351 C350 1.399 . S
C351 C352 1.385 . S
C352 H338 0.931 . S
C352 C351 1.385 . S
C352 C353 1.389 . S
C353 C352 1.389 . S
C353 C354 1.387 . S
C354 H339 0.930 . S
C354 C349 1.390 . S
C354 C353 1.387 . S
H355 C367 0.930 . S
H356 C369 0.930 . S
H357 C370 0.930 . S
H358 C374 0.959 . S
H359 C374 0.959 . S
H360 C374 0.961 . S
H361 C375 0.960 . S
H362 C375 0.961 . S
H363 C375 0.959 . S
H364 C378 0.929 . S
H365 C379 0.931 . S
H366 C381 0.930 . S
C367 H355 0.930 . S
C367 C368 1.399 . S
C367 C372 1.399 . S
C368 C367 1.399 . S
C368 C369 1.376 . S
C369 H356 0.930 . S
C369 C368 1.376 . S
C369 C370 1.388 . S
C370 H357 0.930 . S
C370 C369 1.388 . S
C370 C371 1.390 . S
C371 C370 1.390 . S
C371 C372 1.394 . S
C371 C377 1.465 . S
C372 C367 1.399 . S
C372 C371 1.394 . S
C372 C373 1.516 . S
C373 C372 1.516 . S
C373 C374 1.502 . S
C373 C375 1.561 . S
C373 C376 1.526 . S
C374 H358 0.959 . S
C374 H359 0.959 . S
C374 H360 0.961 . S
C374 C373 1.502 . S
C375 H361 0.960 . S
C375 H362 0.961 . S
C375 H363 0.959 . S
C375 C373 1.561 . S
C376 C373 1.526 . S
C376 C377 1.396 . S
C376 C381 1.390 . S
C377 C371 1.465 . S
C377 C376 1.396 . S
C377 C378 1.399 . S
C378 H364 0.929 . S
C378 C377 1.399 . S
C378 C379 1.385 . S
C379 H365 0.931 . S
C379 C378 1.385 . S
C379 C380 1.389 . S
C380 C379 1.389 . S
C380 C381 1.387 . S
C381 H366 0.930 . S
C381 C376 1.390 . S
C381 C380 1.387 . S
H382 C394 0.930 . S
H383 C396 0.930 . S
H384 C397 0.930 . S
H385 C401 0.959 . S
H386 C401 0.959 . S
H387 C401 0.961 . S
H388 C402 0.960 . S
H389 C402 0.961 . S
H390 C402 0.959 . S
H391 C405 0.929 . S
H392 C406 0.931 . S
H393 C408 0.930 . S
C394 H382 0.930 . S
C394 C395 1.399 . S
C394 C399 1.399 . S
C395 C394 1.399 . S
C395 C396 1.376 . S
C396 H383 0.930 . S
C396 C395 1.376 . S
C396 C397 1.388 . S
C397 H384 0.930 . S
C397 C396 1.388 . S
C397 C398 1.390 . S
C398 C397 1.390 . S
C398 C399 1.394 . S
C398 C404 1.465 . S
C399 C394 1.399 . S
C399 C398 1.394 . S
C399 C400 1.516 . S
C400 C399 1.516 . S
C400 C401 1.502 . S
C400 C402 1.561 . S
C400 C403 1.526 . S
C401 H385 0.959 . S
C401 H386 0.959 . S
C401 H387 0.961 . S
C401 C400 1.502 . S
C402 H388 0.960 . S
C402 H389 0.961 . S
C402 H390 0.959 . S
C402 C400 1.561 . S
C403 C400 1.526 . S
C403 C404 1.396 . S
C403 C408 1.390 . S
C404 C398 1.465 . S
C404 C403 1.396 . S
C404 C405 1.399 . S
C405 H391 0.929 . S
C405 C404 1.399 . S
C405 C406 1.385 . S
C406 H392 0.931 . S
C406 C405 1.385 . S
C406 C407 1.389 . S
C407 C406 1.389 . S
C407 C408 1.387 . S
C408 H393 0.930 . S
C408 C403 1.390 . S
C408 C407 1.387 . S
H409 C421 0.930 . S
H410 C423 0.930 . S
H411 C424 0.930 . S
H412 C428 0.959 . S
H413 C428 0.959 . S
H414 C428 0.961 . S
H415 C429 0.960 . S
H416 C429 0.961 . S
H417 C429 0.959 . S
H418 C432 0.929 . S
H419 C433 0.931 . S
H420 C435 0.930 . S
C421 H409 0.930 . S
C421 C422 1.399 . S
C421 C426 1.399 . S
C422 C421 1.399 . S
C422 C423 1.376 . S
C423 H410 0.930 . S
C423 C422 1.376 . S
C423 C424 1.388 . S
C424 H411 0.930 . S
C424 C423 1.388 . S
C424 C425 1.390 . S
C425 C424 1.390 . S
C425 C426 1.394 . S
C425 C431 1.465 . S
C426 C421 1.399 . S
C426 C425 1.394 . S
C426 C427 1.516 . S
C427 C426 1.516 . S
C427 C428 1.502 . S
C427 C429 1.561 . S
C427 C430 1.526 . S
C428 H412 0.959 . S
C428 H413 0.959 . S
C428 H414 0.961 . S
C428 C427 1.502 . S
C429 H415 0.960 . S
C429 H416 0.961 . S
C429 H417 0.959 . S
C429 C427 1.561 . S
C430 C427 1.526 . S
C430 C431 1.396 . S
C430 C435 1.390 . S
C431 C425 1.465 . S
C431 C430 1.396 . S
C431 C432 1.399 . S
C432 H418 0.929 . S
C432 C431 1.399 . S
C432 C433 1.385 . S
C433 H419 0.931 . S
C433 C432 1.385 . S
C433 C434 1.389 . S
C434 C433 1.389 . S
C434 C435 1.387 . S
C435 H420 0.930 . S
C435 C430 1.390 . S
C435 C434 1.387 . S
H436 C448 0.930 . S
H437 C450 0.930 . S
H438 C451 0.930 . S
H439 C455 0.959 . S
H440 C455 0.959 . S
H441 C455 0.961 . S
H442 C456 0.960 1_455 S
H443 C456 0.961 1_565 S
H444 C456 0.959 . S
H445 C459 0.929 . S
H446 C460 0.931 . S
H447 C462 0.930 . S
C448 H436 0.930 . S
C448 C449 1.399 . S
C448 C453 1.399 . S
C449 C448 1.399 . S
C449 C450 1.376 . S
C450 H437 0.930 . S
C450 C449 1.376 . S
C450 C451 1.388 1_455 S
C451 H438 0.930 . S
C451 C450 1.388 1_655 S
C451 C452 1.390 . S
C452 C451 1.390 . S
C452 C453 1.394 1_655 S
C452 C458 1.465 1_545 S
C453 C448 1.399 . S
C453 C452 1.394 1_455 S
C453 C454 1.516 1_545 S
C454 C453 1.516 1_565 S
C454 C455 1.502 . S
C454 C456 1.561 1_465 S
C454 C457 1.526 1_455 S
C455 H439 0.959 . S
C455 H440 0.959 . S
C455 H441 0.961 . S
C455 C454 1.502 . S
C456 H442 0.960 1_655 S
C456 H443 0.961 1_545 S
C456 H444 0.959 . S
C456 C454 1.561 1_645 S
C457 C454 1.526 1_655 S
C457 C458 1.396 . S
C457 C462 1.390 . S
C458 C452 1.465 1_565 S
C458 C457 1.396 . S
C458 C459 1.399 . S
C459 H445 0.929 . S
C459 C458 1.399 . S
C459 C460 1.385 . S
C460 H446 0.931 . S
C460 C459 1.385 . S
C460 C461 1.389 . S
C461 C460 1.389 . S
C461 C462 1.387 . S
C462 H447 0.930 . S
C462 C457 1.390 . S
C462 C461 1.387 . S
H463 C475 0.930 . S
H464 C477 0.930 . S
H465 C478 0.930 . S
H466 C482 0.959 1_545 S
H467 C482 0.959 . S
H468 C482 0.961 1_455 S
H469 C483 0.960 . S
H470 C483 0.961 . S
H471 C483 0.959 . S
H472 C486 0.929 . S
H473 C487 0.931 . S
H474 C489 0.930 . S
C475 H463 0.930 . S
C475 C476 1.399 . S
C475 C480 1.399 . S
C476 C475 1.399 . S
C476 C477 1.376 . S
C477 H464 0.930 . S
C477 C476 1.376 . S
C477 C478 1.388 1_565 S
C478 H465 0.930 . S
C478 C477 1.388 1_545 S
C478 C479 1.390 1_545 S
C479 C478 1.390 1_565 S
C479 C480 1.394 . S
C479 C485 1.465 1_465 S
C480 C475 1.399 . S
C480 C479 1.394 . S
C480 C481 1.516 1_455 S
C481 C480 1.516 1_655 S
C481 C482 1.502 . S
C481 C483 1.561 . S
C481 C484 1.526 1_565 S
C482 H466 0.959 1_565 S
C482 H467 0.959 . S
C482 H468 0.961 1_655 S
C482 C481 1.502 . S
C483 H469 0.960 . S
C483 H470 0.961 . S
C483 H471 0.959 . S
C483 C481 1.561 . S
C484 C481 1.526 1_545 S
C484 C485 1.396 . S
C484 C489 1.390 . S
C485 C479 1.465 1_645 S
C485 C484 1.396 . S
C485 C486 1.399 . S
C486 H472 0.929 . S
C486 C485 1.399 . S
C486 C487 1.385 . S
C487 H473 0.931 . S
C487 C486 1.385 . S
C487 C488 1.389 . S
C488 C487 1.389 . S
C488 C489 1.387 . S
C489 H474 0.930 . S
C489 C484 1.390 . S
C489 C488 1.387 . S
H490 C502 0.930 . S
H491 C504 0.930 . S
H492 C505 0.930 . S
H493 C509 0.959 . S
H494 C509 0.959 . S
H495 C509 0.961 . S
H496 C510 0.960 1_545 S
H497 C510 0.961 . S
H498 C510 0.959 1_445 S
H499 C513 0.929 . S
H500 C514 0.931 . S
H501 C516 0.930 . S
C502 H490 0.930 . S
C502 C503 1.399 . S
C502 C507 1.399 . S
C503 C502 1.399 . S
C503 C504 1.376 . S
C504 H491 0.930 . S
C504 C503 1.376 . S
C504 C505 1.388 1_655 S
C505 H492 0.930 . S
C505 C504 1.388 1_455 S
C505 C506 1.390 . S
C506 C505 1.390 . S
C506 C507 1.394 1_455 S
C506 C512 1.465 1_545 S
C507 C502 1.399 . S
C507 C506 1.394 1_655 S
C507 C508 1.516 1_545 S
C508 C507 1.516 1_565 S
C508 C509 1.502 . S
C508 C510 1.561 . S
C508 C511 1.526 1_655 S
C509 H493 0.959 . S
C509 H494 0.959 . S
C509 H495 0.961 . S
C509 C508 1.502 . S
C510 H496 0.960 1_565 S
C510 H497 0.961 . S
C510 H498 0.959 1_665 S
C510 C508 1.561 . S
C511 C508 1.526 1_455 S
C511 C512 1.396 . S
C511 C516 1.390 . S
C512 C506 1.465 1_565 S
C512 C511 1.396 . S
C512 C513 1.399 . S
C513 H499 0.929 . S
C513 C512 1.399 . S
C513 C514 1.385 . S
C514 H500 0.931 . S
C514 C513 1.385 . S
C514 C515 1.389 . S
C515 C514 1.389 . S
C515 C516 1.387 . S
C516 H501 0.930 . S
C516 C511 1.390 . S
C516 C515 1.387 . S
H517 C529 0.930 . S
H518 C531 0.930 . S
H519 C532 0.930 1_545 S
H520 C536 0.959 . S
H521 C536 0.959 . S
H522 C536 0.961 . S
H523 C537 0.960 . S
H524 C537 0.961 1_455 S
H525 C537 0.959 . S
H526 C540 0.929 . S
H527 C541 0.931 . S
H528 C543 0.930 . S
C529 H517 0.930 . S
C529 C530 1.399 . S
C529 C534 1.399 . S
C530 C529 1.399 . S
C530 C531 1.376 . S
C531 H518 0.930 . S
C531 C530 1.376 . S
C531 C532 1.388 . S
C532 H519 0.930 1_565 S
C532 C531 1.388 . S
C532 C533 1.390 . S
C533 C532 1.390 . S
C533 C534 1.394 . S
C533 C539 1.465 1_665 S
C534 C529 1.399 . S
C534 C533 1.394 . S
C534 C535 1.516 1_655 S
C535 C534 1.516 1_455 S
C535 C536 1.502 . S
C535 C537 1.561 1_465 S
C535 C538 1.526 1_565 S
C536 H520 0.959 . S
C536 H521 0.959 . S
C536 H522 0.961 . S
C536 C535 1.502 . S
C537 H523 0.960 . S
C537 H524 0.961 1_655 S
C537 H525 0.959 . S
C537 C535 1.561 1_645 S
C538 C535 1.526 1_545 S
C538 C539 1.396 . S
C538 C543 1.390 . S
C539 C533 1.465 1_445 S
C539 C538 1.396 . S
C539 C540 1.399 . S
C540 H526 0.929 . S
C540 C539 1.399 . S
C540 C541 1.385 . S
C541 H527 0.931 . S
C541 C540 1.385 . S
C541 C542 1.389 . S
C542 C541 1.389 . S
C542 C543 1.387 . S
C543 H528 0.930 . S
C543 C538 1.390 . S
C543 C542 1.387 . S
C125 C12 1.767 . S
C137 C28 1.783 . S
C152 C42 1.763 . S
C164 C26 1.789 . S
C179 C85 1.774 . S
C191 C57 1.803 . S
C206 C71 1.809 . S
C218 C99 1.762 . S
C233 C96 1.604 . S
C245 C1 1.602 . S
C260 C15 1.574 . S
C272 C110 1.576 . S
C287 C41 1.577 . S
C299 C68 1.580 . S
C314 C82 1.594 . S
C326 C55 1.591 . S
C341 C0 1.668 . S
C353 C83 1.643 . S
C368 C97 1.640 . S
C380 C14 1.670 . S
C395 C111 1.670 . S
C407 C40 1.643 . S
C422 C54 1.643 . S
C434 C69 1.669 . S
C449 C13 1.431 . S
C461 C29 1.481 . S
C476 C43 1.461 . S
C488 C27 1.487 . S
C503 C84 1.432 . S
C515 C56 1.486 . S
C530 C98 1.438 . S
C542 C70 1.475 . S
