# Generated by pormake.
# Topology sxa, (6)-cn, num edge types: 1
# Building blocks:
#     Node 0, Type 0, BuildingBlock: PAMTUU_clean_sbu_0, # of connection points: 6
#     Node 1, Type 0, BuildingBlock: PAMTUU_clean_sbu_0, # of connection points: 6
#     Node 2, Type 0, BuildingBlock: PAMTUU_clean_sbu_0, # of connection points: 6
#     Node 3, Type 0, BuildingBlock: PAMTUU_clean_sbu_0, # of connection points: 6
#     Edge 4, Type (0, 0), BuildingBlock: CIFDUS_clean_linker_0, # of connection points: 2
#     Edge 5, Type (0, 0), BuildingBlock: CIFDUS_clean_linker_0, # of connection points: 2
#     Edge 6, Type (0, 0), BuildingBlock: CIFDUS_clean_linker_0, # of connection points: 2
#     Edge 7, Type (0, 0), BuildingBlock: CIFDUS_clean_linker_0, # of connection points: 2
#     Edge 8, Type (0, 0), BuildingBlock: CIFDUS_clean_linker_0, # of connection points: 2
#     Edge 9, Type (0, 0), BuildingBlock: CIFDUS_clean_linker_0, # of connection points: 2
#     Edge 10, Type (0, 0), BuildingBlock: CIFDUS_clean_linker_0, # of connection points: 2
#     Edge 11, Type (0, 0), BuildingBlock: CIFDUS_clean_linker_0, # of connection points: 2
#     Edge 12, Type (0, 0), BuildingBlock: CIFDUS_clean_linker_0, # of connection points: 2
#     Edge 13, Type (0, 0), BuildingBlock: CIFDUS_clean_linker_0, # of connection points: 2
#     Edge 14, Type (0, 0), BuildingBlock: CIFDUS_clean_linker_0, # of connection points: 2
#     Edge 15, Type (0, 0), BuildingBlock: CIFDUS_clean_linker_0, # of connection points: 2
# Relax obj value: 0.261
# Max RMSD: 0.292
# Mean RMSD: 0.292
data_MOF--net-sxa--node1-PAMTUU_clean_sbu_0--edge1-CIFDUS_clean_linker_0
_symmetry_space_group_name_H-M    P1
_symmetry_Int_Tables_number       1
_symmetry_cell_setting            triclinic
loop_
_symmetry_equiv_pos_as_xyz
'x, y, z'
_cell_length_a     32.007179
_cell_length_b     23.616737
_cell_length_c     15.842961
_cell_angle_alpha  93.33697
_cell_angle_beta   51.93504
_cell_angle_gamma 99.092327
loop_
_atom_site_label
_atom_site_type_symbol
_atom_site_fract_x
_atom_site_fract_y
_atom_site_fract_z
_atom_type_partial_charge
Tb0 Tb 0.08907 0.76415 0.06917 0.0
Tb1 Tb 0.09155 0.78639 0.26983 0.0
C2 C 0.07135 0.66593 0.19238 0.0
C3 C 0.04046 0.70278 0.92535 0.0
C4 C 0.95 0.65296 0.94138 0.0
C5 C 1.00151 0.6605 0.8408 0.0
C6 C 0.04647 0.68571 0.83286 0.0
C7 C 0.99012 0.69134 0.02614 0.0
C8 C 0.94527 0.66706 0.03418 0.0
C9 C 0.08537 0.73475 0.91881 0.0
O10 O 1.00719 0.78153 0.20565 0.0
O11 O 1.00542 0.77487 0.35352 0.0
O12 O 0.07641 0.86688 0.22923 0.0
O13 O 0.12182 0.85291 0.05017 0.0
O14 O 0.08381 0.74958 0.39866 0.0
O15 O 0.11769 0.83814 0.34698 0.0
O16 O 0.16948 0.81691 0.12546 0.0
O17 O 0.16773 0.74939 0.02115 0.0
O18 O 0.04224 0.69439 0.18574 0.0
O19 O 0.10346 0.69694 0.20973 0.0
C20 C 0.98093 0.77899 0.31153 0.0
O21 O 0.07753 0.78541 0.95903 0.0
O22 O 0.10473 0.70562 0.95161 0.0
C23 C 0.09869 0.88666 0.13021 0.0
C24 C 0.15207 0.78905 0.41674 0.0
C25 C 0.23118 0.78031 0.44555 0.0
C26 C 0.24213 0.81842 0.36641 0.0
C27 C 0.20339 0.82269 0.35212 0.0
C28 C 0.14095 0.75103 0.49599 0.0
C29 C 0.17982 0.74666 0.51006 0.0
C30 C 0.10879 0.79576 0.40798 0.0
C31 C 0.19451 0.78257 0.04828 0.0
H32 H 1.0068 0.64914 0.76788 0.0
H33 H 0.0854 0.69352 0.75469 0.0
H34 H 0.98503 0.70371 0.09854 0.0
H35 H 0.90652 0.663 0.11289 0.0
H36 H 0.28055 0.84605 0.31648 0.0
H37 H 0.21356 0.85305 0.29115 0.0
H38 H 0.1018 0.7248 0.54803 0.0
H39 H 0.16978 0.71632 0.57088 0.0
Tb40 Tb 0.63726 0.30875 1.00444 0.0
Tb41 Tb 0.62443 0.30189 0.22372 0.0
C42 C 0.62264 0.18978 0.08962 0.0
C43 C 0.60098 0.36349 0.8577 0.0
C44 C 0.51799 0.41516 0.89545 0.0
C45 C 0.55286 0.3899 0.79711 0.0
C46 C 0.5941 0.36378 0.77862 0.0
C47 C 0.56771 0.3909 0.95318 0.0
C48 C 0.52709 0.41695 0.97148 0.0
C49 C 0.63718 0.32915 0.85079 0.0
O50 O 0.5495 0.30322 0.14599 0.0
O51 O 0.54052 0.28737 0.30004 0.0
O52 O 0.60043 0.38445 0.2141 0.0
O53 O 0.66187 0.3917 0.0352 0.0
O54 O 0.64104 0.25198 0.30228 0.0
O55 O 0.62263 0.33713 0.35253 0.0
O56 O 0.7043 0.33816 0.09112 0.0
O57 O 0.71341 0.28724 0.95759 0.0
O58 O 0.64657 0.22208 1.00325 0.0
O59 O 0.6073 0.21236 0.18231 0.0
C60 C 0.51943 0.29274 0.25204 0.0
O61 O 0.67148 0.35744 0.86297 0.0
O62 O 0.61251 0.28178 0.91098 0.0
C63 C 0.62656 0.41498 0.12242 0.0
C64 C 0.68277 0.30193 0.37556 0.0
C65 C 0.75537 0.30635 0.42641 0.0
C66 C 0.71436 0.34094 0.47747 0.0
C67 C 0.67852 0.33842 0.45315 0.0
C68 C 0.72545 0.26951 0.32027 0.0
C69 C 0.76109 0.27172 0.34518 0.0
C70 C 0.63906 0.29274 0.36327 0.0
C71 C 0.73381 0.31085 1.0047 0.0
H72 H 0.54607 0.38694 0.73784 0.0
H73 H 0.61848 0.34135 0.70579 0.0
H74 H 0.57129 0.38939 0.01643 0.0
H75 H 0.50077 0.43573 0.04801 0.0
H76 H 0.7093 0.3696 0.53798 0.0
H77 H 0.64629 0.36391 0.49772 0.0
H78 H 0.73038 0.24073 0.25994 0.0
H79 H 0.7918 0.24432 0.30349 0.0
Tb80 Tb 0.09041 0.27115 0.75504 0.0
Tb81 Tb 0.08955 0.29221 0.96006 0.0
C82 C 0.08257 0.17043 0.89503 0.0
C83 C 1.03789 0.26553 0.59064 0.0
C84 C 0.96937 0.2759 0.53462 0.0
C85 C 1.0072 0.23758 0.48354 0.0
C86 C 0.04074 0.23262 0.51096 0.0
C87 C 0.99932 0.30291 0.64441 0.0
C88 C 0.96539 0.30785 0.61707 0.0
C89 C 0.07757 0.26144 0.61044 0.0
O90 O 1.01217 0.23969 0.89678 0.0
O91 O 1.01149 0.30661 1.00416 0.0
O92 O 0.13718 0.36252 0.84498 0.0
O93 O 0.07773 0.36045 0.8161 0.0
O94 O 0.09929 0.27032 0.07262 0.0
O95 O 0.07168 0.34983 0.08007 0.0
O96 O 0.17243 0.27622 0.82526 0.0
O97 O 0.17597 0.28376 0.67537 0.0
O98 O 0.10582 0.19089 0.79587 0.0
O99 O 0.05782 0.20342 0.9758 0.0
C100 C 0.98623 0.27415 0.97298 0.0
O101 O 0.09877 0.30849 0.62644 0.0
O102 O 0.06747 0.21894 0.67241 0.0
C103 C 0.10897 0.39118 0.83594 0.0
C104 C 0.13405 0.35275 0.11151 0.0
C105 C 0.22256 0.404 0.10131 0.0
C106 C 0.1707 0.39398 0.20095 0.0
C107 C 0.12671 0.36803 0.206 0.0
C108 C 0.18467 0.36626 1.01202 0.0
C109 C 0.22853 0.39121 1.00684 0.0
C110 C 0.09035 0.32057 0.11429 0.0
C111 C 0.1996 0.27946 0.71904 0.0
H112 H 1.01114 0.21107 0.42159 0.0
H113 H 0.06978 0.20331 0.46821 0.0
H114 H 0.99592 0.3289 0.70644 0.0
H115 H 0.93707 0.33791 0.65862 0.0
H116 H 0.16442 0.40416 0.27518 0.0
H117 H 0.08751 0.3584 0.2834 0.0
H118 H 0.1908 0.3551 0.9382 0.0
H119 H 0.26758 0.39695 0.92869 0.0
Tb120 Tb 0.5578 0.76177 0.79867 0.0
Tb121 Tb 0.54228 0.75375 0.02217 0.0
C122 C 0.55402 0.64889 0.90133 0.0
C123 C 0.50687 0.76399 0.63519 0.0
C124 C 0.42636 0.7613 0.60647 0.0
C125 C 0.41653 0.7288 0.69095 0.0
C126 C 0.45606 0.73024 0.70531 0.0
C127 C 0.51706 0.79583 0.55031 0.0
C128 C 0.47762 0.79457 0.53609 0.0
C129 C 0.54958 0.76797 0.64896 0.0
O130 O 0.47619 0.72874 0.92941 0.0
O131 O 0.46831 0.77865 0.06348 0.0
O132 O 0.53969 0.84222 0.01854 0.0
O133 O 0.56914 0.85208 0.84477 0.0
O134 O 0.50475 0.70348 0.16393 0.0
O135 O 0.56315 0.77843 0.1227 0.0
O136 O 0.63035 0.75727 0.88426 0.0
O137 O 0.64105 0.77629 0.72932 0.0
O138 O 0.58189 0.67997 0.80993 0.0
O139 O 0.51755 0.6721 0.98721 0.0
C140 C 0.44746 0.75574 0.0168 0.0
O141 O 0.55322 0.81173 0.69914 0.0
O142 O 0.55606 0.7215 0.67773 0.0
C143 C 0.55794 0.87432 0.93501 0.0
C144 C 0.57206 0.6958 0.17823 0.0
C145 C 0.65429 0.64497 0.14564 0.0
C146 C 0.61705 0.66807 0.24508 0.0
C147 C 0.57597 0.69355 0.26129 0.0
C148 C 0.6075 0.67024 0.08188 0.0
C149 C 0.64749 0.64432 0.06632 0.0
C150 C 0.53722 0.73079 0.18164 0.0
C151 C 0.66124 0.76919 0.77851 0.0
H152 H 0.37828 0.70166 0.74586 0.0
H153 H 0.44682 0.70505 0.77138 0.0
H154 H 0.55571 0.8224 0.49504 0.0
H155 H 0.48712 0.82089 0.47096 0.0
H156 H 0.62177 0.66984 0.30729 0.0
H157 H 0.54936 0.71398 0.33572 0.0
H158 H 0.60615 0.67318 0.01589 0.0
H159 H 0.67526 0.6268 0.9892 0.0
H160 H 0.16286 0.45274 0.90194 0.0
H161 H 1.02704 0.45328 0.90515 0.0
H162 H 1.00235 0.53551 0.02083 0.0
H163 H 1.01759 0.60475 0.12549 0.0
H164 H 0.1534 0.60401 0.12227 0.0
H165 H 0.17817 0.52198 1.00628 0.0
C166 C 0.12791 0.47084 0.92702 0.0
C167 C 0.09703 0.44643 0.89347 0.0
C168 C 0.11312 0.517 0.99616 0.0
C169 C 0.052 0.47107 0.92781 0.0
C170 C 1.03753 0.51775 0.99524 0.0
C171 C 0.05256 0.58664 0.10033 0.0
C172 C 0.08341 0.61095 0.13399 0.0
C173 C 0.06738 0.54052 0.03104 0.0
C174 C 0.12849 0.58634 0.09947 0.0
C175 C 0.14298 0.53974 0.03191 0.0
H176 H 0.6787 0.48256 0.94081 0.0
H177 H 0.52985 0.45636 0.26373 0.0
H178 H 0.49301 0.52175 0.2184 0.0
H179 H 0.50159 0.58205 0.08471 0.0
H180 H 0.65063 0.60781 0.76191 0.0
H181 H 0.68728 0.54255 0.80758 0.0
C182 C 0.63825 0.49142 1.00231 0.0
C183 C 0.60725 0.46432 0.1065 0.0
C184 C 0.61651 0.52666 0.97395 0.0
C185 C 0.55507 0.47692 0.18402 0.0
C186 C 0.53369 0.51356 0.15724 0.0
C187 C 0.542 0.57303 0.02339 0.0
C188 C 0.5732 0.60011 0.91908 0.0
C189 C 0.56364 0.53759 0.05186 0.0
C190 C 0.62535 0.58741 0.84177 0.0
C191 C 0.64659 0.55075 0.86865 0.0
H192 H 0.52658 0.92864 0.1181 0.0
H193 H 0.6186 0.96224 0.77675 0.0
H194 H 0.64832 0.06129 0.79565 0.0
H195 H 0.65074 0.1364 0.90733 0.0
H196 H 0.55922 0.10247 0.2485 0.0
H197 H 0.52828 1.00397 0.23001 0.0
C198 C 0.55298 0.95739 0.04711 0.0
C199 C 0.57024 0.93728 0.94537 0.0
C200 C 0.57089 1.01372 0.05838 0.0
C201 C 0.60412 0.97606 0.85575 0.0
C202 C 0.62158 0.03261 0.86662 0.0
C203 C 0.62419 0.10772 0.97836 0.0
C204 C 0.60769 0.12748 0.07985 0.0
C205 C 0.60582 0.05156 0.96725 0.0
C206 C 0.57319 0.08889 0.16967 0.0
C207 C 0.55511 0.03263 0.15902 0.0
H208 H 0.14155 0.93306 0.93305 0.0
H209 H 0.04169 0.96971 0.26904 0.0
H210 H 1.02668 0.05857 0.2248 0.0
H211 H 0.04051 0.12443 0.09192 0.0
H212 H 0.14039 0.08785 0.75588 0.0
H213 H 0.15568 0.99915 0.80002 0.0
C214 C 0.11661 0.96038 0.99736 0.0
C215 C 0.09294 0.94416 0.10513 0.0
C216 C 0.10754 1.01094 0.97129 0.0
C217 C 0.06084 0.98077 0.1859 0.0
C218 C 0.05196 0.03149 0.16042 0.0
C219 C 0.06552 0.09717 0.02754 0.0
C220 C 0.08903 0.1133 0.91983 0.0
C221 C 0.07475 0.04671 0.05356 0.0
C222 C 0.12134 0.07683 0.83898 0.0
C223 C 0.13036 1.0262 0.86442 0.0
H224 H 0.43711 0.76949 0.4197 0.0
H225 H 0.31706 0.75511 0.76432 0.0
H226 H 0.24698 0.75725 0.74625 0.0
H227 H 0.21901 0.76646 0.63286 0.0
H228 H 0.33952 0.78259 0.28875 0.0
H229 H 0.40928 0.7781 0.30678 0.0
C230 C 0.39576 0.76729 0.49128 0.0
C231 C 0.38315 0.76183 0.59362 0.0
C232 C 0.3552 0.76947 0.48042 0.0
C233 C 0.32865 0.75814 0.6844 0.0
C234 C 0.28825 0.75992 0.67415 0.0
C235 C 0.26043 0.76857 0.56157 0.0
C236 C 0.27345 0.77557 0.45916 0.0
C237 C 0.30092 0.76579 0.57257 0.0
C238 C 0.32785 0.77855 0.36854 0.0
C239 C 0.368 0.77552 0.37882 0.0
H240 H 0.26975 0.29429 0.49848 0.0
H241 H 0.26485 0.26533 0.77136 0.0
H242 H 0.36186 0.26575 0.6514 0.0
H243 H 0.44807 0.27475 0.47039 0.0
H244 H 0.45473 0.3061 0.19619 0.0
H245 H 0.35714 0.30418 0.31553 0.0
C246 C 0.28969 0.28791 0.53217 0.0
C247 C 0.25927 0.27954 0.64493 0.0
C248 C 0.34599 0.28856 0.46226 0.0
C249 C 0.28656 0.27174 0.68577 0.0
C250 C 0.34227 0.27198 0.6169 0.0
C251 C 0.42851 0.28103 0.43583 0.0
C252 C 0.45944 0.29024 0.32323 0.0
C253 C 0.37239 0.28036 0.50513 0.0
C254 C 0.43252 0.29852 0.28171 0.0
C255 C 0.37652 0.29755 0.35028 0.0
H256 H 0.86315 0.29448 0.656 0.0
H257 H 1.00047 0.27447 0.32976 0.0
H258 H 0.94822 0.28209 0.26788 0.0
H259 H 0.86286 0.29339 0.3048 0.0
H260 H 0.72521 0.31305 0.63069 0.0
H261 H 0.77796 0.30765 0.69246 0.0
C262 C 0.88193 0.29222 0.57122 0.0
C263 C 0.93616 0.28315 0.49844 0.0
C264 C 0.8513 0.29677 0.5353 0.0
C265 C 0.95891 0.28016 0.38881 0.0
C266 C 0.92895 0.28487 0.35284 0.0
C267 C 0.84413 0.29635 0.38945 0.0
C268 C 0.78956 0.30416 0.46224 0.0
C269 C 0.87491 0.29274 0.42523 0.0
C270 C 0.767 0.30829 0.57163 0.0
C271 C 0.79723 0.30471 0.60754 0.0
H272 H 0.91065 0.76329 0.53272 0.0
H273 H 0.91595 0.7959 0.26052 0.0
H274 H 0.81932 0.79693 0.38042 0.0
H275 H 0.7333 0.78821 0.56074 0.0
H276 H 0.72522 0.75284 0.8352 0.0
H277 H 0.82275 0.75345 0.71616 0.0
C278 C 0.89082 0.7708 0.4993 0.0
C279 C 0.92135 0.77976 0.38657 0.0
C280 C 0.83455 0.77092 0.56933 0.0
C281 C 0.89423 0.78898 0.346 0.0
C282 C 0.83869 0.78959 0.41487 0.0
C283 C 0.75247 0.78076 0.59556 0.0
C284 C 0.72118 0.77084 0.70808 0.0
C285 C 0.80845 0.7806 0.52648 0.0
C286 C 0.7477 0.76102 0.74974 0.0
C287 C 0.80367 0.76123 0.68132 0.0
H288 H 0.38328 0.68576 0.9867 0.0
H289 H 0.3984 0.85069 0.10529 0.0
H290 H 0.32495 0.87584 0.11199 0.0
H291 H 0.25914 0.85189 0.07879 0.0
H292 H 0.24309 0.68649 0.96195 0.0
H293 H 0.31672 0.66142 0.95465 0.0
C294 C 0.36979 0.72688 0.01598 0.0
C295 C 0.39564 0.76614 0.04705 0.0
C296 C 0.3289 0.74146 0.01639 0.0
C297 C 0.3783 0.81936 0.08351 0.0
C298 C 0.33707 0.83403 0.08533 0.0
C299 C 0.27205 0.81047 0.05046 0.0
C300 C 0.24578 0.77115 0.0203 0.0
C301 C 0.31275 0.79572 0.05045 0.0
C302 C 0.26306 0.71781 0.98401 0.0
C303 C 0.30451 0.70317 0.98162 0.0
H304 H 0.31814 0.47002 0.9455 0.0
H305 H 0.23746 0.37046 0.24233 0.0
H306 H 0.32233 0.37344 0.21002 0.0
H307 H 0.41962 0.38756 0.08357 0.0
H308 H 0.50292 0.47713 0.777 0.0
H309 H 0.41671 0.49242 0.82486 0.0
C310 C 0.319 0.44918 1.00349 0.0
C311 C 0.27131 0.41899 0.09508 0.0
C312 C 0.36855 0.44772 0.98113 0.0
C313 C 0.27308 0.39429 0.17133 0.0
C314 C 0.32189 0.39513 0.15215 0.0
C315 C 0.41918 0.41187 0.02813 0.0
C316 C 0.46746 0.43116 0.92679 0.0
C317 C 0.36989 0.41925 0.05515 0.0
C318 C 0.4661 0.4614 0.85502 0.0
C319 C 0.41694 0.47029 0.88258 0.0
H320 H 0.78065 0.3607 0.09107 0.0
H321 H 0.80408 0.24065 0.85377 0.0
H322 H 0.88313 0.21729 0.82828 0.0
H323 H 0.94164 0.22791 0.87978 0.0
H324 H 0.91848 0.34832 0.11652 0.0
H325 H 0.84038 0.37289 0.13975 0.0
C326 C 0.80305 0.32958 0.0329 0.0
C327 C 0.78626 0.30219 0.97433 0.0
C328 C 0.84718 0.31548 0.0211 0.0
C329 C 0.81621 0.26245 0.89924 0.0
C330 C 0.86094 0.24872 0.88575 0.0
C331 C 0.91955 0.25937 0.93735 0.0
C332 C 0.93574 0.28596 0.99743 0.0
C333 C 0.87602 0.27426 0.94772 0.0
C334 C 0.90664 0.32687 0.07036 0.0
C335 C 0.86242 0.34126 0.08266 0.0
H336 H 0.85317 0.5902 0.10101 0.0
H337 H 0.93521 0.68713 0.80095 0.0
H338 H 0.85046 0.68623 0.83389 0.0
H339 H 0.75353 0.6737 0.95987 0.0
H340 H 0.6685 0.58415 0.26724 0.0
H341 H 0.75432 0.56901 0.22158 0.0
C342 C 0.85258 0.61081 0.04244 0.0
C343 C 0.90069 0.63953 0.94949 0.0
C344 C 0.80317 0.61307 0.06463 0.0
C345 C 0.89925 0.66426 0.87281 0.0
C346 C 0.85055 0.66463 0.89232 0.0
C347 C 0.75336 0.64932 0.01606 0.0
C348 C 0.7047 0.62996 0.11685 0.0
C349 C 0.80234 0.64144 0.98982 0.0
C350 C 0.70554 0.59996 0.18962 0.0
C351 C 0.75449 0.59108 0.16326 0.0
loop_
_geom_bond_atom_site_label_1
_geom_bond_atom_site_label_2
_geom_bond_distance
_geom_bond_site_symmetry_2
_ccdc_geom_bond_type
Tb0 C9 2.764 1_454 S
Tb0 O10 2.325 1_455 S
Tb0 O13 2.303 . S
Tb0 O17 2.320 . S
Tb0 O18 2.349 . S
Tb0 O21 2.415 . S
Tb0 O22 2.399 1_554 S
Tb1 O11 2.322 1_455 S
Tb1 O12 2.349 . S
Tb1 O14 2.415 . S
Tb1 O15 2.399 . S
Tb1 O16 2.325 . S
Tb1 O19 2.303 . S
Tb1 C30 2.764 . S
C2 O18 1.261 . S
C2 O19 1.257 . S
C3 C6 1.358 . S
C3 C7 1.332 . S
C3 C9 1.504 . S
C4 C5 1.373 . S
C4 C8 1.308 . S
C5 C4 1.373 . S
C5 C6 1.429 . S
C5 H32 0.932 . S
C6 C3 1.358 . S
C6 C5 1.429 . S
C6 H33 0.930 . S
C7 C3 1.332 . S
C7 C8 1.394 . S
C7 H34 0.932 1_556 S
C8 C4 1.308 . S
C8 C7 1.394 . S
C8 H35 0.929 . S
C9 Tb0 2.764 1_656 S
C9 C3 1.504 . S
C9 O21 1.239 1_656 S
C9 O22 1.263 1_655 S
O10 Tb0 2.325 1_655 S
O10 C20 1.236 . S
O11 Tb1 2.322 1_655 S
O11 C20 1.257 . S
O12 Tb1 2.349 . S
O12 C23 1.261 . S
O13 Tb0 2.303 . S
O13 C23 1.257 . S
O14 Tb1 2.415 . S
O14 C30 1.239 . S
O15 Tb1 2.399 . S
O15 C30 1.263 . S
O16 Tb1 2.325 . S
O16 C31 1.236 . S
O17 Tb0 2.320 . S
O17 C31 1.262 . S
O18 Tb0 2.349 . S
O18 C2 1.261 . S
O19 Tb1 2.303 . S
O19 C2 1.257 . S
C20 O10 1.236 . S
C20 O11 1.257 . S
O21 Tb0 2.415 . S
O21 C9 1.239 1_454 S
O22 Tb0 2.399 1_556 S
O22 C9 1.263 1_455 S
C23 O12 1.261 . S
C23 O13 1.257 . S
C24 C27 1.358 . S
C24 C28 1.332 . S
C24 C30 1.504 . S
C25 C26 1.373 . S
C25 C29 1.308 . S
C26 C25 1.373 . S
C26 C27 1.429 . S
C26 H36 0.932 . S
C27 C24 1.358 . S
C27 C26 1.429 . S
C27 H37 0.930 . S
C28 C24 1.332 . S
C28 C29 1.394 . S
C28 H38 0.932 . S
C29 C25 1.308 . S
C29 C28 1.394 . S
C29 H39 0.929 . S
C30 Tb1 2.764 . S
C30 O14 1.239 . S
C30 O15 1.263 . S
C30 C24 1.504 . S
C31 O16 1.236 . S
C31 O17 1.262 . S
H32 C5 0.932 . S
H33 C6 0.930 . S
H34 C7 0.932 1_554 S
H35 C8 0.929 . S
H36 C26 0.932 . S
H37 C27 0.930 . S
H38 C28 0.932 . S
H39 C29 0.929 . S
Tb40 C49 2.764 1_554 S
Tb40 O50 2.325 . S
Tb40 O53 2.303 . S
Tb40 O57 2.320 . S
Tb40 O58 2.349 . S
Tb40 O61 2.415 . S
Tb40 O62 2.399 1_554 S
Tb41 O51 2.322 . S
Tb41 O52 2.349 . S
Tb41 O54 2.415 . S
Tb41 O55 2.399 . S
Tb41 O56 2.325 . S
Tb41 O59 2.303 . S
Tb41 C70 2.764 . S
C42 O58 1.261 . S
C42 O59 1.257 . S
C43 C46 1.358 . S
C43 C47 1.332 . S
C43 C49 1.504 . S
C44 C45 1.373 . S
C44 C48 1.308 . S
C45 C44 1.373 . S
C45 C46 1.429 . S
C45 H72 0.932 . S
C46 C43 1.358 . S
C46 C45 1.429 . S
C46 H73 0.930 . S
C47 C43 1.332 . S
C47 C48 1.394 . S
C47 H74 0.932 1_556 S
C48 C44 1.308 . S
C48 C47 1.394 . S
C48 H75 0.929 . S
C49 Tb40 2.764 1_556 S
C49 C43 1.504 . S
C49 O61 1.239 1_556 S
C49 O62 1.263 . S
O50 Tb40 2.325 . S
O50 C60 1.236 . S
O51 Tb41 2.322 . S
O51 C60 1.257 . S
O52 Tb41 2.349 . S
O52 C63 1.261 . S
O53 Tb40 2.303 . S
O53 C63 1.257 . S
O54 Tb41 2.415 . S
O54 C70 1.239 . S
O55 Tb41 2.399 . S
O55 C70 1.263 . S
O56 Tb41 2.325 . S
O56 C71 1.236 . S
O57 Tb40 2.320 . S
O57 C71 1.262 . S
O58 Tb40 2.349 . S
O58 C42 1.261 . S
O59 Tb41 2.303 . S
O59 C42 1.257 . S
C60 O50 1.236 . S
C60 O51 1.257 . S
O61 Tb40 2.415 . S
O61 C49 1.239 1_554 S
O62 Tb40 2.399 1_556 S
O62 C49 1.263 . S
C63 O52 1.261 . S
C63 O53 1.257 . S
C64 C67 1.358 . S
C64 C68 1.332 . S
C64 C70 1.504 . S
C65 C66 1.373 . S
C65 C69 1.308 . S
C66 C65 1.373 . S
C66 C67 1.429 . S
C66 H76 0.932 . S
C67 C64 1.358 . S
C67 C66 1.429 . S
C67 H77 0.930 . S
C68 C64 1.332 . S
C68 C69 1.394 . S
C68 H78 0.932 . S
C69 C65 1.308 . S
C69 C68 1.394 . S
C69 H79 0.929 . S
C70 Tb41 2.764 . S
C70 O54 1.239 . S
C70 O55 1.263 . S
C70 C64 1.504 . S
C71 O56 1.236 . S
C71 O57 1.262 . S
H72 C45 0.932 . S
H73 C46 0.930 . S
H74 C47 0.932 1_554 S
H75 C48 0.929 . S
H76 C66 0.932 . S
H77 C67 0.930 . S
H78 C68 0.932 . S
H79 C69 0.929 . S
Tb80 C89 2.764 1_455 S
Tb80 O90 2.325 1_455 S
Tb80 O93 2.303 . S
Tb80 O97 2.322 . S
Tb80 O98 2.349 . S
Tb80 O101 2.415 1_455 S
Tb80 O102 2.399 1_455 S
Tb81 O91 2.320 1_455 S
Tb81 O92 2.349 . S
Tb81 O94 2.415 . S
Tb81 O95 2.399 1_556 S
Tb81 O96 2.325 . S
Tb81 O99 2.303 . S
Tb81 C110 2.764 1_556 S
C82 O98 1.261 . S
C82 O99 1.257 . S
C83 C86 1.358 . S
C83 C87 1.332 . S
C83 C89 1.504 . S
C84 C85 1.373 . S
C84 C88 1.308 . S
C85 C84 1.373 . S
C85 C86 1.429 . S
C85 H112 0.932 . S
C86 C83 1.358 . S
C86 C85 1.429 . S
C86 H113 0.930 . S
C87 C83 1.332 . S
C87 C88 1.394 . S
C87 H114 0.932 . S
C88 C84 1.308 . S
C88 C87 1.394 . S
C88 H115 0.929 . S
C89 Tb80 2.764 1_655 S
C89 C83 1.504 . S
C89 O101 1.239 . S
C89 O102 1.263 . S
O90 Tb80 2.325 1_655 S
O90 C100 1.236 . S
O91 Tb81 2.320 1_655 S
O91 C100 1.262 . S
O92 Tb81 2.349 . S
O92 C103 1.261 . S
O93 Tb80 2.303 . S
O93 C103 1.257 . S
O94 Tb81 2.415 . S
O94 C110 1.239 1_556 S
O95 Tb81 2.399 1_554 S
O95 C110 1.263 . S
O96 Tb81 2.325 . S
O96 C111 1.236 . S
O97 Tb80 2.322 . S
O97 C111 1.257 . S
O98 Tb80 2.349 . S
O98 C82 1.261 . S
O99 Tb81 2.303 . S
O99 C82 1.257 . S
C100 O90 1.236 . S
C100 O91 1.262 . S
O101 Tb80 2.415 1_655 S
O101 C89 1.239 . S
O102 Tb80 2.399 1_655 S
O102 C89 1.263 . S
C103 O92 1.261 . S
C103 O93 1.257 . S
C104 C107 1.358 . S
C104 C108 1.332 . S
C104 C110 1.504 . S
C105 C106 1.373 . S
C105 C109 1.308 . S
C106 C105 1.373 . S
C106 C107 1.429 . S
C106 H116 0.932 . S
C107 C104 1.358 . S
C107 C106 1.429 . S
C107 H117 0.930 . S
C108 C104 1.332 . S
C108 C109 1.394 . S
C108 H118 0.932 1_554 S
C109 C105 1.308 . S
C109 C108 1.394 . S
C109 H119 0.929 . S
C110 Tb81 2.764 1_554 S
C110 O94 1.239 1_554 S
C110 O95 1.263 . S
C110 C104 1.504 . S
C111 O96 1.236 . S
C111 O97 1.257 . S
H112 C85 0.932 . S
H113 C86 0.930 . S
H114 C87 0.932 . S
H115 C88 0.929 . S
H116 C106 0.932 . S
H117 C107 0.930 . S
H118 C108 0.932 1_556 S
H119 C109 0.929 . S
Tb120 C129 2.764 . S
Tb120 O130 2.325 . S
Tb120 O133 2.303 . S
Tb120 O137 2.322 . S
Tb120 O138 2.349 . S
Tb120 O141 2.415 . S
Tb120 O142 2.399 . S
Tb121 O131 2.320 . S
Tb121 O132 2.349 . S
Tb121 O134 2.415 . S
Tb121 O135 2.399 1_556 S
Tb121 O136 2.325 . S
Tb121 O139 2.303 . S
Tb121 C150 2.764 1_556 S
C122 O138 1.261 . S
C122 O139 1.257 . S
C123 C126 1.358 . S
C123 C127 1.332 . S
C123 C129 1.504 . S
C124 C125 1.373 . S
C124 C128 1.308 . S
C125 C124 1.373 . S
C125 C126 1.429 . S
C125 H152 0.932 . S
C126 C123 1.358 . S
C126 C125 1.429 . S
C126 H153 0.930 . S
C127 C123 1.332 . S
C127 C128 1.394 . S
C127 H154 0.932 . S
C128 C124 1.308 . S
C128 C127 1.394 . S
C128 H155 0.929 . S
C129 Tb120 2.764 . S
C129 C123 1.504 . S
C129 O141 1.239 . S
C129 O142 1.263 . S
O130 Tb120 2.325 . S
O130 C140 1.236 . S
O131 Tb121 2.320 . S
O131 C140 1.262 . S
O132 Tb121 2.349 . S
O132 C143 1.261 . S
O133 Tb120 2.303 . S
O133 C143 1.257 . S
O134 Tb121 2.415 . S
O134 C150 1.239 1_556 S
O135 Tb121 2.399 1_554 S
O135 C150 1.263 . S
O136 Tb121 2.325 . S
O136 C151 1.236 . S
O137 Tb120 2.322 . S
O137 C151 1.257 . S
O138 Tb120 2.349 . S
O138 C122 1.261 . S
O139 Tb121 2.303 . S
O139 C122 1.257 . S
C140 O130 1.236 . S
C140 O131 1.262 . S
O141 Tb120 2.415 . S
O141 C129 1.239 . S
O142 Tb120 2.399 . S
O142 C129 1.263 . S
C143 O132 1.261 . S
C143 O133 1.257 . S
C144 C147 1.358 . S
C144 C148 1.332 . S
C144 C150 1.504 . S
C145 C146 1.373 . S
C145 C149 1.308 . S
C146 C145 1.373 . S
C146 C147 1.429 . S
C146 H156 0.932 . S
C147 C144 1.358 . S
C147 C146 1.429 . S
C147 H157 0.930 . S
C148 C144 1.332 . S
C148 C149 1.394 . S
C148 H158 0.932 1_554 S
C149 C145 1.308 . S
C149 C148 1.394 . S
C149 H159 0.929 . S
C150 Tb121 2.764 1_554 S
C150 O134 1.239 1_554 S
C150 O135 1.263 . S
C150 C144 1.504 . S
C151 O136 1.236 . S
C151 O137 1.257 . S
H152 C125 0.932 . S
H153 C126 0.930 . S
H154 C127 0.932 . S
H155 C128 0.929 . S
H156 C146 0.932 . S
H157 C147 0.930 . S
H158 C148 0.932 1_556 S
H159 C149 0.929 . S
H160 C166 0.930 . S
H161 C169 0.930 . S
H162 C170 0.930 . S
H163 C171 0.930 . S
H164 C174 0.930 . S
H165 C175 0.930 . S
C166 H160 0.930 . S
C166 C167 1.355 . S
C166 C168 1.415 1_556 S
C167 C166 1.355 . S
C167 C169 1.419 . S
C168 C166 1.415 1_554 S
C168 C173 1.425 1_554 S
C168 C175 1.409 . S
C169 H161 0.930 . S
C169 C167 1.419 . S
C169 C170 1.362 . S
C170 H162 0.930 . S
C170 C169 1.362 . S
C170 C173 1.409 . S
C171 H163 0.930 . S
C171 C172 1.355 . S
C171 C173 1.415 1_554 S
C172 C171 1.355 . S
C172 C174 1.419 . S
C173 C168 1.425 1_556 S
C173 C170 1.409 . S
C173 C171 1.415 1_556 S
C174 H164 0.930 . S
C174 C172 1.419 . S
C174 C175 1.362 . S
C175 H165 0.930 . S
C175 C168 1.409 . S
C175 C174 1.362 . S
H176 C182 0.930 . S
H177 C185 0.930 . S
H178 C186 0.930 . S
H179 C187 0.930 . S
H180 C190 0.930 . S
H181 C191 0.930 . S
C182 H176 0.930 . S
C182 C183 1.355 . S
C182 C184 1.415 1_554 S
C183 C182 1.355 . S
C183 C185 1.419 . S
C184 C182 1.415 1_556 S
C184 C189 1.425 1_556 S
C184 C191 1.409 . S
C185 H177 0.930 . S
C185 C183 1.419 . S
C185 C186 1.362 . S
C186 H178 0.930 . S
C186 C185 1.362 . S
C186 C189 1.409 . S
C187 H179 0.930 . S
C187 C188 1.355 . S
C187 C189 1.415 1_556 S
C188 C187 1.355 . S
C188 C190 1.419 . S
C189 C184 1.425 1_554 S
C189 C186 1.409 . S
C189 C187 1.415 1_554 S
C190 H180 0.930 . S
C190 C188 1.419 . S
C190 C191 1.362 . S
C191 H181 0.930 . S
C191 C184 1.409 . S
C191 C190 1.362 . S
H192 C198 0.930 . S
H193 C201 0.930 . S
H194 C202 0.930 . S
H195 C203 0.930 . S
H196 C206 0.930 . S
H197 C207 0.930 . S
C198 H192 0.930 . S
C198 C199 1.355 . S
C198 C200 1.415 1_565 S
C199 C198 1.355 . S
C199 C201 1.419 . S
C200 C198 1.415 1_545 S
C200 C205 1.425 1_546 S
C200 C207 1.409 . S
C201 H193 0.930 . S
C201 C199 1.419 . S
C201 C202 1.362 1_556 S
C202 H194 0.930 . S
C202 C201 1.362 1_554 S
C202 C205 1.409 . S
C203 H195 0.930 . S
C203 C204 1.355 . S
C203 C205 1.415 1_545 S
C204 C203 1.355 . S
C204 C206 1.419 . S
C205 C200 1.425 1_564 S
C205 C202 1.409 . S
C205 C203 1.415 1_565 S
C206 H196 0.930 . S
C206 C204 1.419 . S
C206 C207 1.362 1_554 S
C207 H197 0.930 . S
C207 C200 1.409 . S
C207 C206 1.362 1_556 S
H208 C214 0.930 1_556 S
H209 C217 0.930 1_655 S
H210 C218 0.930 . S
H211 C219 0.930 1_654 S
H212 C222 0.930 . S
H213 C223 0.930 . S
C214 H208 0.930 1_554 S
C214 C215 1.355 . S
C214 C216 1.415 1_554 S
C215 C214 1.355 . S
C215 C217 1.419 . S
C216 C214 1.415 1_556 S
C216 C221 1.425 1_566 S
C216 C223 1.409 1_565 S
C217 H209 0.930 1_455 S
C217 C215 1.419 . S
C217 C218 1.362 1_455 S
C218 H210 0.930 . S
C218 C217 1.362 1_655 S
C218 C221 1.409 1_665 S
C219 H211 0.930 1_456 S
C219 C220 1.355 . S
C219 C221 1.415 1_556 S
C220 C219 1.355 . S
C220 C222 1.419 . S
C221 C216 1.425 1_544 S
C221 C218 1.409 1_445 S
C221 C219 1.415 1_554 S
C222 H212 0.930 . S
C222 C220 1.419 . S
C222 C223 1.362 . S
C223 H213 0.930 . S
C223 C216 1.409 1_545 S
C223 C222 1.362 . S
H224 C230 0.930 . S
H225 C233 0.930 . S
H226 C234 0.930 . S
H227 C235 0.930 . S
H228 C238 0.930 . S
H229 C239 0.930 . S
C230 H224 0.930 . S
C230 C231 1.355 . S
C230 C232 1.415 . S
C231 C230 1.355 . S
C231 C233 1.419 . S
C232 C230 1.415 . S
C232 C237 1.425 . S
C232 C239 1.409 . S
C233 H225 0.930 . S
C233 C231 1.419 . S
C233 C234 1.362 . S
C234 H226 0.930 . S
C234 C233 1.362 . S
C234 C237 1.409 . S
C235 H227 0.930 . S
C235 C236 1.355 . S
C235 C237 1.415 . S
C236 C235 1.355 . S
C236 C238 1.419 . S
C237 C232 1.425 . S
C237 C234 1.409 . S
C237 C235 1.415 . S
C238 H228 0.930 . S
C238 C236 1.419 . S
C238 C239 1.362 . S
C239 H229 0.930 . S
C239 C232 1.409 . S
C239 C238 1.362 . S
H240 C246 0.930 . S
H241 C249 0.930 . S
H242 C250 0.930 . S
H243 C251 0.930 . S
H244 C254 0.930 . S
H245 C255 0.930 . S
C246 H240 0.930 . S
C246 C247 1.355 . S
C246 C248 1.415 . S
C247 C246 1.355 . S
C247 C249 1.419 . S
C248 C246 1.415 . S
C248 C253 1.425 . S
C248 C255 1.409 . S
C249 H241 0.930 . S
C249 C247 1.419 . S
C249 C250 1.362 . S
C250 H242 0.930 . S
C250 C249 1.362 . S
C250 C253 1.409 . S
C251 H243 0.930 . S
C251 C252 1.355 . S
C251 C253 1.415 . S
C252 C251 1.355 . S
C252 C254 1.419 . S
C253 C248 1.425 . S
C253 C250 1.409 . S
C253 C251 1.415 . S
C254 H244 0.930 . S
C254 C252 1.419 . S
C254 C255 1.362 . S
C255 H245 0.930 . S
C255 C248 1.409 . S
C255 C254 1.362 . S
H256 C262 0.930 . S
H257 C265 0.930 . S
H258 C266 0.930 . S
H259 C267 0.930 . S
H260 C270 0.930 . S
H261 C271 0.930 . S
C262 H256 0.930 . S
C262 C263 1.355 . S
C262 C264 1.415 . S
C263 C262 1.355 . S
C263 C265 1.419 . S
C264 C262 1.415 . S
C264 C269 1.425 . S
C264 C271 1.409 . S
C265 H257 0.930 . S
C265 C263 1.419 . S
C265 C266 1.362 . S
C266 H258 0.930 . S
C266 C265 1.362 . S
C266 C269 1.409 . S
C267 H259 0.930 . S
C267 C268 1.355 . S
C267 C269 1.415 . S
C268 C267 1.355 . S
C268 C270 1.419 . S
C269 C264 1.425 . S
C269 C266 1.409 . S
C269 C267 1.415 . S
C270 H260 0.930 . S
C270 C268 1.419 . S
C270 C271 1.362 . S
C271 H261 0.930 . S
C271 C264 1.409 . S
C271 C270 1.362 . S
H272 C278 0.930 . S
H273 C281 0.930 . S
H274 C282 0.930 . S
H275 C283 0.930 . S
H276 C286 0.930 . S
H277 C287 0.930 . S
C278 H272 0.930 . S
C278 C279 1.355 . S
C278 C280 1.415 . S
C279 C278 1.355 . S
C279 C281 1.419 . S
C280 C278 1.415 . S
C280 C285 1.425 . S
C280 C287 1.409 . S
C281 H273 0.930 . S
C281 C279 1.419 . S
C281 C282 1.362 . S
C282 H274 0.930 . S
C282 C281 1.362 . S
C282 C285 1.409 . S
C283 H275 0.930 . S
C283 C284 1.355 . S
C283 C285 1.415 . S
C284 C283 1.355 . S
C284 C286 1.419 . S
C285 C280 1.425 . S
C285 C282 1.409 . S
C285 C283 1.415 . S
C286 H276 0.930 . S
C286 C284 1.419 . S
C286 C287 1.362 . S
C287 H277 0.930 . S
C287 C280 1.409 . S
C287 C286 1.362 . S
H288 C294 0.930 . S
H289 C297 0.930 . S
H290 C298 0.930 . S
H291 C299 0.930 . S
H292 C302 0.930 . S
H293 C303 0.930 . S
C294 H288 0.930 . S
C294 C295 1.355 1_556 S
C294 C296 1.415 . S
C295 C294 1.355 1_554 S
C295 C297 1.419 . S
C296 C294 1.415 . S
C296 C301 1.425 1_556 S
C296 C303 1.409 . S
C297 H289 0.930 . S
C297 C295 1.419 . S
C297 C298 1.362 . S
C298 H290 0.930 . S
C298 C297 1.362 . S
C298 C301 1.409 . S
C299 H291 0.930 . S
C299 C300 1.355 1_554 S
C299 C301 1.415 . S
C300 C299 1.355 1_556 S
C300 C302 1.419 . S
C301 C296 1.425 1_554 S
C301 C298 1.409 . S
C301 C299 1.415 . S
C302 H292 0.930 . S
C302 C300 1.419 . S
C302 C303 1.362 . S
C303 H293 0.930 . S
C303 C296 1.409 . S
C303 C302 1.362 . S
H304 C310 0.930 . S
H305 C313 0.930 . S
H306 C314 0.930 . S
H307 C315 0.930 . S
H308 C318 0.930 . S
H309 C319 0.930 . S
C310 H304 0.930 . S
C310 C311 1.355 . S
C310 C312 1.415 1_554 S
C311 C310 1.355 . S
C311 C313 1.419 . S
C312 C310 1.415 1_556 S
C312 C317 1.425 1_556 S
C312 C319 1.409 . S
C313 H305 0.930 . S
C313 C311 1.419 . S
C313 C314 1.362 . S
C314 H306 0.930 . S
C314 C313 1.362 . S
C314 C317 1.409 . S
C315 H307 0.930 . S
C315 C316 1.355 . S
C315 C317 1.415 1_556 S
C316 C315 1.355 . S
C316 C318 1.419 . S
C317 C312 1.425 1_554 S
C317 C314 1.409 . S
C317 C315 1.415 1_554 S
C318 H308 0.930 . S
C318 C316 1.419 . S
C318 C319 1.362 . S
C319 H309 0.930 . S
C319 C312 1.409 . S
C319 C318 1.362 . S
H320 C326 0.930 . S
H321 C329 0.930 . S
H322 C330 0.930 . S
H323 C331 0.930 . S
H324 C334 0.930 . S
H325 C335 0.930 . S
C326 H320 0.930 . S
C326 C327 1.355 1_554 S
C326 C328 1.415 . S
C327 C326 1.355 1_556 S
C327 C329 1.419 . S
C328 C326 1.415 . S
C328 C333 1.425 1_554 S
C328 C335 1.409 . S
C329 H321 0.930 . S
C329 C327 1.419 . S
C329 C330 1.362 . S
C330 H322 0.930 . S
C330 C329 1.362 . S
C330 C333 1.409 . S
C331 H323 0.930 . S
C331 C332 1.355 1_556 S
C331 C333 1.415 . S
C332 C331 1.355 1_554 S
C332 C334 1.419 . S
C333 C328 1.425 1_556 S
C333 C330 1.409 . S
C333 C331 1.415 . S
C334 H324 0.930 . S
C334 C332 1.419 . S
C334 C335 1.362 . S
C335 H325 0.930 . S
C335 C328 1.409 . S
C335 C334 1.362 . S
H336 C342 0.930 1_554 S
H337 C345 0.930 . S
H338 C346 0.930 . S
H339 C347 0.930 1_556 S
H340 C350 0.930 . S
H341 C351 0.930 . S
C342 H336 0.930 1_556 S
C342 C343 1.355 . S
C342 C344 1.415 1_556 S
C343 C342 1.355 . S
C343 C345 1.419 . S
C344 C342 1.415 1_554 S
C344 C349 1.425 1_554 S
C344 C351 1.409 . S
C345 H337 0.930 . S
C345 C343 1.419 . S
C345 C346 1.362 . S
C346 H338 0.930 . S
C346 C345 1.362 . S
C346 C349 1.409 . S
C347 H339 0.930 1_554 S
C347 C348 1.355 . S
C347 C349 1.415 1_554 S
C348 C347 1.355 . S
C348 C350 1.419 . S
C349 C344 1.425 1_556 S
C349 C346 1.409 . S
C349 C347 1.415 1_556 S
C350 H340 0.930 . S
C350 C348 1.419 . S
C350 C351 1.362 . S
C351 H341 0.930 . S
C351 C344 1.409 . S
C351 C350 1.362 . S
C167 C103 1.998 . S
C172 C2 1.998 . S
C183 C63 2.594 . S
C188 C122 2.594 . S
C199 C143 1.907 . S
C204 C42 1.907 . S
C215 C23 2.599 . S
C220 C82 2.599 . S
C231 C124 1.590 . S
C236 C25 1.590 . S
C247 C111 1.586 . S
C252 C60 1.586 . S
C263 C84 1.617 . S
C268 C65 1.617 . S
C279 C20 1.582 . S
C284 C151 1.582 . S
C295 C140 2.066 1_554 S
C300 C31 2.066 1_556 S
C311 C105 0.885 . S
C316 C44 0.885 . S
C327 C71 2.048 1_556 S
C332 C100 2.048 1_554 S
C343 C4 0.890 . S
C348 C145 0.890 . S
