# Generated by pormake.
# Topology fcu, (12)-cn, num edge types: 1
# Building blocks:
#     Node 0, Type 0, BuildingBlock: FANWIC_clean_sbu_0, # of connection points: 12
#     Node 1, Type 0, BuildingBlock: FANWIC_clean_sbu_0, # of connection points: 12
#     Node 2, Type 0, BuildingBlock: FANWIC_clean_sbu_0, # of connection points: 12
#     Node 3, Type 0, BuildingBlock: FANWIC_clean_sbu_0, # of connection points: 12
#     Edge 4, Type (0, 0), BuildingBlock: MIFKUJ_clean_linker_0, # of connection points: 2
#     Edge 5, Type (0, 0), BuildingBlock: MIFKUJ_clean_linker_0, # of connection points: 2
#     Edge 6, Type (0, 0), BuildingBlock: MIFKUJ_clean_linker_0, # of connection points: 2
#     Edge 7, Type (0, 0), BuildingBlock: MIFKUJ_clean_linker_0, # of connection points: 2
#     Edge 8, Type (0, 0), BuildingBlock: MIFKUJ_clean_linker_0, # of connection points: 2
#     Edge 9, Type (0, 0), BuildingBlock: MIFKUJ_clean_linker_0, # of connection points: 2
#     Edge 10, Type (0, 0), BuildingBlock: MIFKUJ_clean_linker_0, # of connection points: 2
#     Edge 11, Type (0, 0), BuildingBlock: MIFKUJ_clean_linker_0, # of connection points: 2
#     Edge 12, Type (0, 0), BuildingBlock: MIFKUJ_clean_linker_0, # of connection points: 2
#     Edge 13, Type (0, 0), BuildingBlock: MIFKUJ_clean_linker_0, # of connection points: 2
#     Edge 14, Type (0, 0), BuildingBlock: MIFKUJ_clean_linker_0, # of connection points: 2
#     Edge 15, Type (0, 0), BuildingBlock: MIFKUJ_clean_linker_0, # of connection points: 2
#     Edge 16, Type (0, 0), BuildingBlock: MIFKUJ_clean_linker_0, # of connection points: 2
#     Edge 17, Type (0, 0), BuildingBlock: MIFKUJ_clean_linker_0, # of connection points: 2
#     Edge 18, Type (0, 0), BuildingBlock: MIFKUJ_clean_linker_0, # of connection points: 2
#     Edge 19, Type (0, 0), BuildingBlock: MIFKUJ_clean_linker_0, # of connection points: 2
#     Edge 20, Type (0, 0), BuildingBlock: MIFKUJ_clean_linker_0, # of connection points: 2
#     Edge 21, Type (0, 0), BuildingBlock: MIFKUJ_clean_linker_0, # of connection points: 2
#     Edge 22, Type (0, 0), BuildingBlock: MIFKUJ_clean_linker_0, # of connection points: 2
#     Edge 23, Type (0, 0), BuildingBlock: MIFKUJ_clean_linker_0, # of connection points: 2
#     Edge 24, Type (0, 0), BuildingBlock: MIFKUJ_clean_linker_0, # of connection points: 2
#     Edge 25, Type (0, 0), BuildingBlock: MIFKUJ_clean_linker_0, # of connection points: 2
#     Edge 26, Type (0, 0), BuildingBlock: MIFKUJ_clean_linker_0, # of connection points: 2
#     Edge 27, Type (0, 0), BuildingBlock: MIFKUJ_clean_linker_0, # of connection points: 2
# Relax obj value: 0.217
# Max RMSD: 0.293
# Mean RMSD: 0.293
data_MOF--net-fcu--node1-FANWIC_clean_sbu_0--edge1-MIFKUJ_clean_linker_0
_symmetry_space_group_name_H-M    P1
_symmetry_Int_Tables_number       1
_symmetry_cell_setting            triclinic
loop_
_symmetry_equiv_pos_as_xyz
'x, y, z'
_cell_length_a     30.124605
_cell_length_b     30.707018
_cell_length_c     30.716023
_cell_angle_alpha  91.26886
_cell_angle_beta   90.809633
_cell_angle_gamma 92.575962
loop_
_atom_site_label
_atom_site_type_symbol
_atom_site_fract_x
_atom_site_fract_y
_atom_site_fract_z
_atom_type_partial_charge
Zn0 Zn 0.95773 -0.00125 0.94554 0.0
Zn1 Zn 0.93453 0.97087 0.0458 0.0
Zn2 Zn 0.96819 0.07547 0.02641 0.0
Zn3 Zn 0.8744 0.03293 0.99658 0.0
O4 O 0.93726 0.01948 0.00497 0.0
C5 C 0.02414 0.07501 0.10363 0.0
O6 O 0.05572 0.06939 0.07536 0.0
N7 N 0.00398 0.95448 0.94649 0.0
N8 N 0.03788 0.95103 0.97417 0.0
N9 N 0.03855 0.89438 0.92716 0.0
C10 C 0.00521 0.92088 0.91764 0.0
C11 C 0.05873 0.91446 0.9624 0.0
N12 N 0.98612 0.97227 0.08299 0.0
C13 C 0.05252 0.95946 0.10181 0.0
N14 N 0.0275 0.94643 0.13571 0.0
C15 C 0.9861 0.95532 0.12289 0.0
N16 N 0.02772 0.97532 0.06952 0.0
H17 H 0.95215 0.92571 0.17764 0.0
C18 C 0.94472 0.94044 0.14585 0.0
H19 H 0.92558 0.91616 0.12494 0.0
H20 H 0.92406 0.96886 0.15193 0.0
N21 N 0.02274 0.08083 0.99462 0.0
C22 C 0.04915 0.11633 0.98749 0.0
C23 C 0.07813 0.0622 0.95657 0.0
N24 N 0.04076 0.04697 0.97549 0.0
N25 N 0.08433 0.10566 0.96341 0.0
C26 C 0.03841 0.16161 0.00142 0.0
H27 H 0.02824 0.17982 0.97238 0.0
H28 H 0.01111 0.16093 0.02526 0.0
H29 H 0.06809 0.17906 0.01622 0.0
O30 O 0.84874 0.00607 0.94141 0.0
O31 O 0.90541 0.97498 0.91008 0.0
C32 C 0.86443 0.98304 0.91086 0.0
O33 O 0.9319 0.91422 0.01177 0.0
O34 O 0.86608 0.09686 0.99486 0.0
O35 O 0.92977 0.12876 0.0183 0.0
O36 O 0.97882 0.05095 0.91211 0.0
O37 O 0.83577 0.01351 0.04563 0.0
O38 O 0.87941 0.97138 0.08258 0.0
O39 O 0.9839 0.07489 0.09049 0.0
C40 C 0.96023 0.88489 0.015 0.0
O41 O 0.99504 0.8915 0.04075 0.0
C42 C 0.88957 0.13101 0.00519 0.0
C43 C 0.95586 0.08404 0.90641 0.0
O44 O 0.91526 0.08423 0.92116 0.0
C45 C 0.84261 0.9895 0.07793 0.0
H46 H 0.97003 0.94992 0.86532 0.0
H47 H 0.9439 0.9007 0.88599 0.0
H48 H 0.99159 0.89778 0.85141 0.0
C49 C 0.97616 0.91701 0.87763 0.0
Zn50 Zn 0.94331 0.50808 0.44225 0.0
Zn51 Zn 0.92424 0.46389 0.53633 0.0
Zn52 Zn 0.96024 0.57732 0.52511 0.0
Zn53 Zn 0.86664 0.53104 0.49969 0.0
O54 O 0.92992 0.51988 0.50512 0.0
C55 C 0.01413 0.57656 0.6058 0.0
O56 O 0.04527 0.56379 0.5796 0.0
N57 N 0.99205 0.46958 0.43434 0.0
N58 N 0.02529 0.4627 0.46179 0.0
N59 N 0.03331 0.42048 0.40263 0.0
C60 C 0.9971 0.44418 0.39871 0.0
C61 C 0.0504 0.433 0.44205 0.0
N62 N 0.9761 0.45193 0.56909 0.0
C63 C 0.03693 0.45775 0.60565 0.0
N64 N 0.01471 0.42254 0.62148 0.0
C65 C 0.97686 0.41974 0.59784 0.0
N66 N 0.01345 0.47607 0.57369 0.0
H67 H 0.95254 0.35418 0.60943 0.0
C68 C 0.93935 0.3868 0.60389 0.0
H69 H 0.91654 0.38532 0.57521 0.0
H70 H 0.92029 0.39619 0.63301 0.0
N71 N 0.01497 0.58276 0.49358 0.0
C72 C 0.04856 0.61273 0.49885 0.0
C73 C 0.06854 0.56554 0.45237 0.0
N74 N 0.02723 0.55356 0.4644 0.0
N75 N 0.08337 0.60234 0.47395 0.0
C76 C 0.04541 0.65356 0.52609 0.0
H77 H 0.06543 0.68076 0.51184 0.0
H78 H 0.0102 0.66238 0.52862 0.0
H79 H 0.05817 0.64827 0.55948 0.0
O80 O 0.83426 0.49685 0.45137 0.0
O81 O 0.891 0.48065 0.41031 0.0
C82 C 0.84968 0.47902 0.41745 0.0
O83 O 0.91187 0.41677 0.49152 0.0
O84 O 0.85759 0.5937 0.49276 0.0
O85 O 0.92129 0.62871 0.51191 0.0
O86 O 0.95743 0.56487 0.4139 0.0
O87 O 0.83523 0.5171 0.55382 0.0
O88 O 0.87431 0.46426 0.57997 0.0
O89 O 0.97515 0.58133 0.59041 0.0
C90 C 0.93741 0.38646 0.48122 0.0
O91 O 0.97582 0.38366 0.50146 0.0
C92 C 0.88061 0.62889 0.49976 0.0
C93 C 0.9418 0.57604 0.37752 0.0
O94 O 0.91287 0.54991 0.35637 0.0
C95 C 0.84158 0.48891 0.58247 0.0
H96 H 0.95283 0.47387 0.35415 0.0
H97 H 0.93643 0.4191 0.36896 0.0
H98 H 0.98078 0.42818 0.33122 0.0
C99 C 0.96509 0.4412 0.36091 0.0
Zn100 Zn 0.44496 0.99639 0.4451 0.0
Zn101 Zn 0.42962 0.98905 0.54678 0.0
Zn102 Zn 0.46399 0.09032 0.5114 0.0
Zn103 Zn 0.36838 0.04285 0.49373 0.0
O104 O 0.43269 0.03151 0.49954 0.0
C105 C 0.52508 0.09874 0.58742 0.0
O106 O 0.55707 0.09238 0.5597 0.0
N107 N 0.49273 0.95563 0.45223 0.0
N108 N 0.52979 0.96075 0.47618 0.0
N109 N 0.53208 0.89738 0.43937 0.0
C110 C 0.4944 0.91742 0.43008 0.0
C111 C 0.55326 0.92489 0.46827 0.0
N112 N 0.48296 0.98251 0.57902 0.0
C113 C 0.54838 0.98588 0.60615 0.0
N114 N 0.52452 0.96024 0.6333 0.0
C115 C 0.48367 0.95872 0.61513 0.0
N116 N 0.52333 -0.00014 0.57299 0.0
H117 H 0.45443 0.89961 0.6405 0.0
C118 C 0.44436 0.93251 0.63144 0.0
H119 H 0.41716 0.92947 0.60686 0.0
H120 H 0.43171 0.94878 0.66105 0.0
N121 N 0.51367 0.0968 0.47283 0.0
C122 C 0.54271 0.13116 0.46979 0.0
C123 C 0.56069 0.08343 0.42321 0.0
N124 N 0.52511 0.06667 0.44414 0.0
N125 N 0.57293 0.12359 0.43898 0.0
C126 C 0.54276 0.171 0.49873 0.0
H127 H 0.54208 0.20043 0.47845 0.0
H128 H 0.51368 0.16989 0.52052 0.0
H129 H 0.57392 0.17346 0.51853 0.0
O130 O 0.33966 0.01143 0.44186 0.0
O131 O 0.38957 0.96391 0.42358 0.0
C132 C 0.35133 0.97914 0.41878 0.0
O133 O 0.40799 0.93095 0.52305 0.0
O134 O 0.35925 0.10569 0.48474 0.0
O135 O 0.42312 0.14083 0.5021 0.0
O136 O 0.45748 0.03556 0.3947 0.0
O137 O 0.33298 0.02968 0.54835 0.0
O138 O 0.38596 0.00571 0.59061 0.0
O139 O 0.48484 0.09661 0.5741 0.0
C140 C 0.43065 0.89713 0.52009 0.0
O141 O 0.47312 0.89917 0.53042 0.0
C142 C 0.38231 0.14102 0.49063 0.0
C143 C 0.47845 0.0238 0.36108 0.0
O144 O 0.49478 0.98498 0.359 0.0
C145 C 0.34678 0.01816 0.58554 0.0
H146 H 0.44474 0.92561 0.38041 0.0
H147 H 0.4313 0.8845 0.41896 0.0
H148 H 0.47138 0.87476 0.37719 0.0
C149 C 0.45859 0.8995 0.39974 0.0
Zn150 Zn 0.46684 0.52537 0.94997 0.0
Zn151 Zn 0.4214 0.47796 0.03446 0.0
Zn152 Zn 0.48685 0.58662 0.03734 0.0
Zn153 Zn 0.3877 0.55721 0.00701 0.0
O154 O 0.44852 0.53483 0.01246 0.0
C155 C 0.47468 0.5804 0.13269 0.0
O156 O 0.43161 0.57811 0.12512 0.0
N157 N 0.50641 0.4755 0.94537 0.0
N158 N 0.53636 0.46466 0.97506 0.0
N159 N 0.5312 0.4112 0.92492 0.0
C160 C 0.50414 0.44332 0.91462 0.0
C161 C 0.55131 0.42541 0.96248 0.0
N162 N 0.46246 0.43677 0.0557 0.0
C163 C 0.51549 0.40784 0.09033 0.0
N164 N 0.48345 0.37577 0.08515 0.0
C165 C 0.45041 0.39516 0.06439 0.0
N166 N 0.50278 0.44525 0.07249 0.0
H167 H 0.4052 0.35191 0.02817 0.0
C168 C 0.40458 0.37507 0.05637 0.0
H169 H 0.38043 0.40037 0.05001 0.0
H170 H 0.39299 0.35634 0.08471 0.0
N171 N 0.54546 0.58787 0.01007 0.0
C172 C 0.5821 0.61181 0.02302 0.0
C173 C 0.60031 0.57191 0.96948 0.0
N174 N 0.55687 0.56293 0.97666 0.0
N175 N 0.61729 0.60219 0.99832 0.0
C176 C 0.5834 0.64367 0.06066 0.0
H177 H 0.59533 0.67626 0.04981 0.0
H178 H 0.54999 0.64641 0.07485 0.0
H179 H 0.60718 0.63306 0.08579 0.0
O180 O 0.3566 0.53622 0.95159 0.0
O181 O 0.41268 0.51361 0.91243 0.0
C182 C 0.37165 0.52051 0.91635 0.0
O183 O 0.38259 0.45011 0.98602 0.0
O184 O 0.39018 0.62127 0.00352 0.0
O185 O 0.45606 0.64567 0.02943 0.0
O186 O 0.49191 0.58207 0.92427 0.0
O187 O 0.34791 0.54424 0.0591 0.0
O188 O 0.38115 0.48755 0.08447 0.0
O189 O 0.50103 0.58135 0.10088 0.0
C190 C 0.39591 0.4201 0.96096 0.0
O191 O 0.43617 0.4065 0.96654 0.0
C192 C 0.41727 0.65258 0.01425 0.0
C193 C 0.49376 0.58495 0.88309 0.0
O194 O 0.48095 0.55099 0.85869 0.0
C195 C 0.35139 0.51529 0.08783 0.0
H196 H 0.43901 0.44395 0.88516 0.0
H197 H 0.47709 0.41248 0.85495 0.0
H198 H 0.48189 0.47112 0.85533 0.0
C199 C 0.47397 0.44243 0.87527 0.0
H200 H 0.98074 0.06435 0.18054 0.0
H201 H 0.99116 0.11099 0.24612 0.0
H202 H 0.10072 0.1805 0.18502 0.0
H203 H 0.09294 0.13171 0.12203 0.0
H204 H 0.11657 0.18779 0.26239 0.0
H205 H 0.98316 0.20787 0.17868 0.0
H206 H 0.91012 0.18835 0.14458 0.0
H207 H 0.85586 0.16116 0.27012 0.0
H208 H 0.92883 0.17985 0.30493 0.0
H209 H 0.06441 0.41017 0.32156 0.0
H210 H 0.07191 0.34023 0.28183 0.0
H211 H 0.02336 0.27115 0.39362 0.0
H212 H 0.01839 0.34081 0.43378 0.0
H213 H 0.97735 0.25783 0.3029 0.0
H214 H 0.11868 0.2599 0.38117 0.0
H215 H 0.19163 0.29453 0.40309 0.0
H216 H 0.23022 0.29784 0.26931 0.0
H217 H 0.15749 0.2641 0.24657 0.0
C218 C 0.00794 0.08868 0.1821 0.0
C219 C 0.03575 0.09491 0.14633 0.0
C220 C 0.01363 0.11561 0.21924 0.0
C221 C 0.04561 0.15051 0.21996 0.0
C222 C 0.07562 0.15413 0.1855 0.0
C223 C 0.07111 0.12618 0.1493 0.0
C224 C 0.0452 0.18606 0.25357 0.0
C225 C 0.08602 0.203 0.27108 0.0
C226 C 0.00542 0.20627 0.26519 0.0
C227 C 0.96167 0.1944 0.2443 0.0
C228 C 0.95577 0.19729 0.19896 0.0
C229 C 0.91439 0.18645 0.17951 0.0
C230 C 0.8785 0.17323 0.20513 0.0
C231 C 0.8838 0.17113 0.2503 0.0
C232 C 0.92517 0.18177 0.2699 0.0
C233 C 0.05596 0.37982 0.33742 0.0
C234 C 0.04018 0.38015 0.38007 0.0
C235 C 0.06036 0.34022 0.31508 0.0
C236 C 0.04833 0.30089 0.33515 0.0
C237 C 0.03308 0.3013 0.37797 0.0
C238 C 0.02986 0.34075 0.4006 0.0
C239 C 0.04845 0.25957 0.31021 0.0
C240 C 0.00759 0.24179 0.29457 0.0
C241 C 0.08827 0.24028 0.29837 0.0
C242 C 0.13246 0.25968 0.31223 0.0
C243 C 0.14263 0.26832 0.35649 0.0
C244 C 0.1839 0.28772 0.36905 0.0
C245 C 0.2154 0.29838 0.33765 0.0
C246 C 0.20578 0.28955 0.29362 0.0
C247 C 0.16456 0.27024 0.2809 0.0
H248 H 0.24728 0.31342 0.34745 0.0
H249 H 0.84661 0.16463 0.18997 0.0
H250 H 0.84175 0.93602 0.14845 0.0
H251 H 0.78754 0.93314 0.20703 0.0
H252 H 0.71196 0.02976 0.14283 0.0
H253 H 0.76541 0.03246 0.08413 0.0
H254 H 0.76931 0.99679 0.26208 0.0
H255 H 0.6035 0.01933 0.16661 0.0
H256 H 0.56808 0.99577 0.09665 0.0
H257 H 0.64868 0.88399 0.09138 0.0
H258 H 0.68414 0.90648 0.16165 0.0
H259 H 0.59571 0.12078 0.35089 0.0
H260 H 0.6388 0.08619 0.29428 0.0
H261 H 0.61401 0.96118 0.35213 0.0
H262 H 0.57296 0.99646 0.41099 0.0
H263 H 0.60529 0.98762 0.24272 0.0
H264 H 0.69472 0.96829 0.37361 0.0
H265 H 0.72899 0.99429 0.44335 0.0
H266 H 0.80315 0.09481 0.37736 0.0
H267 H 0.76797 0.07052 0.30744 0.0
C268 C 0.81334 0.95631 0.14656 0.0
C269 C 0.80811 0.98465 0.11165 0.0
C270 C 0.78233 0.95455 0.18004 0.0
C271 C 0.7454 0.98086 0.17914 0.0
C272 C 0.73962 0.00842 0.14384 0.0
C273 C 0.77046 0.01012 0.11036 0.0
C274 C 0.71501 0.98275 0.21674 0.0
C275 C 0.73347 0.99382 0.25796 0.0
C276 C 0.66817 0.97879 0.21148 0.0
C277 C 0.64671 0.96479 0.16933 0.0
C278 C 0.61352 0.98959 0.15068 0.0
C279 C 0.59346 0.97644 0.11092 0.0
C280 C 0.6062 0.93847 0.08954 0.0
C281 C 0.63895 0.91349 0.10792 0.0
C282 C 0.65909 0.92645 0.14768 0.0
C283 C 0.60042 0.08612 0.35239 0.0
C284 C 0.58282 0.06142 0.38659 0.0
C285 C 0.62462 0.0664 0.31972 0.0
C286 C 0.63083 0.02154 0.32009 0.0
C287 C 0.61051 0.99613 0.35219 0.0
C288 C 0.58711 0.01614 0.38561 0.0
C289 C 0.65983 0.0023 0.28727 0.0
C290 C 0.64116 0.98888 0.2469 0.0
C291 C 0.70647 0.00372 0.29333 0.0
C292 C 0.72788 0.01816 0.33538 0.0
C293 C 0.71762 0.99647 0.37406 0.0
C294 C 0.73745 0.01069 0.4136 0.0
C295 C 0.76836 0.046 0.41476 0.0
C296 C 0.77933 0.06733 0.37641 0.0
C297 C 0.75932 0.05342 0.33684 0.0
H298 H 0.78374 0.05689 0.44539 0.0
H299 H 0.59065 0.92836 0.05875 0.0
H300 H 0.0594 0.95422 0.21829 0.0
H301 H 0.06101 0.89434 0.27088 0.0
H302 H 0.01669 0.80272 0.16943 0.0
H303 H 0.01441 0.86181 0.11786 0.0
H304 H 0.96216 0.82695 0.25608 0.0
H305 H 0.10374 0.79286 0.19015 0.0
H306 H 0.18359 0.80413 0.17708 0.0
H307 H 0.21164 0.7874 0.31285 0.0
H308 H 0.13175 0.78023 0.3276 0.0
H309 H 0.91891 0.60817 0.29874 0.0
H310 H 0.94612 0.67628 0.26704 0.0
H311 H 0.02795 0.70535 0.38134 0.0
H312 H 0.00109 0.63709 0.41335 0.0
H313 H 0.07208 0.7217 0.30382 0.0
H314 H 0.93596 0.756 0.37133 0.0
H315 H 0.8568 0.74527 0.38869 0.0
H316 H 0.82127 0.75903 0.25397 0.0
H317 H 0.90039 0.76905 0.23565 0.0
C318 C 0.05167 0.92094 0.20735 0.0
C319 C 0.03729 0.91196 0.16439 0.0
C320 C 0.05295 0.88703 0.23702 0.0
C321 C 0.04032 0.8443 0.22346 0.0
C322 C 0.02772 0.83539 0.18004 0.0
C323 C 0.02634 0.86895 0.15074 0.0
C324 C 0.0308 0.81027 0.2551 0.0
C325 C 0.98625 0.8041 0.2669 0.0
C326 C 0.06284 0.78138 0.26968 0.0
C327 C 0.11109 0.78748 0.26029 0.0
C328 C 0.12651 0.79343 0.21764 0.0
C329 C 0.17204 0.79901 0.20986 0.0
C330 C 0.20269 0.79728 0.24423 0.0
C331 C 0.18791 0.78947 0.28631 0.0
C332 C 0.14244 0.78522 0.29449 0.0
C333 C 0.94259 0.62905 0.31721 0.0
C334 C 0.95764 0.61742 0.35861 0.0
C335 C 0.95812 0.66789 0.29907 0.0
C336 C 0.98867 0.69584 0.32213 0.0
C337 C 0.00433 0.68411 0.36317 0.0
C338 C 0.98875 0.64526 0.38142 0.0
C339 C 0.00324 0.73774 0.30334 0.0
C340 C 0.04838 0.74533 0.29402 0.0
C341 C 0.972 0.76828 0.29103 0.0
C342 C 0.92422 0.76296 0.30206 0.0
C343 C 0.91131 0.75645 0.34534 0.0
C344 C 0.86638 0.75052 0.35537 0.0
C345 C 0.83394 0.75141 0.32246 0.0
C346 C 0.8464 0.75833 0.27945 0.0
C347 C 0.89131 0.76416 0.26922 0.0
H348 H 0.79915 0.7468 0.33023 0.0
H349 H 0.23789 0.80174 0.23826 0.0
H350 H 0.26931 0.00628 0.39484 0.0
H351 H 0.23027 0.99144 0.32561 0.0
H352 H 0.33297 0.90646 0.28539 0.0
H353 H 0.37248 0.92175 0.35418 0.0
H354 H 0.31229 0.95647 0.22068 0.0
H355 H 0.22926 0.8698 0.32258 0.0
H356 H 0.18629 0.8549 0.38872 0.0
H357 H 0.0878 0.94231 0.34665 0.0
H358 H 0.13064 0.95778 0.28051 0.0
H359 H 0.09354 0.88306 0.09027 0.0
H360 H 0.16404 0.86922 0.12665 0.0
H361 H 0.18997 0.00767 0.14521 0.0
H362 H 0.11848 0.02127 0.1113 0.0
H363 H 0.15238 0.91044 0.21482 0.0
H364 H 0.28876 0.02129 0.15364 0.0
H365 H 0.32789 0.03775 0.08543 0.0
H366 H 0.31292 0.90305 0.04515 0.0
H367 H 0.27359 0.88604 0.11314 0.0
C368 C 0.2832 0.98374 0.37167 0.0
C369 C 0.32385 0.96468 0.38038 0.0
C370 C 0.26089 0.97536 0.33201 0.0
C371 C 0.27837 0.94721 0.30059 0.0
C372 C 0.31871 0.92798 0.30929 0.0
C373 C 0.34106 0.93642 0.34886 0.0
C374 C 0.25471 0.9381 0.25853 0.0
C375 C 0.27745 0.94596 0.21952 0.0
C376 C 0.20929 0.92395 0.25676 0.0
C377 C 0.18329 0.91475 0.29656 0.0
C378 C 0.19863 0.88593 0.32764 0.0
C379 C 0.17424 0.87737 0.36509 0.0
C380 C 0.13426 0.89762 0.3719 0.0
C381 C 0.11875 0.92655 0.34132 0.0
C382 C 0.14306 0.93508 0.30376 0.0
C383 C 0.11539 0.91051 0.10027 0.0
C384 C 0.10038 0.95311 0.09952 0.0
C385 C 0.15575 0.90256 0.12071 0.0
C386 C 0.18164 0.93742 0.13916 0.0
C387 C 0.17038 0.98037 0.13096 0.0
C388 C 0.12953 0.98821 0.11146 0.0
C389 C 0.20961 0.93025 0.17773 0.0
C390 C 0.18756 0.91975 0.21624 0.0
C391 C 0.25512 0.94239 0.17912 0.0
C392 C 0.27916 0.95236 0.13869 0.0
C393 C 0.29449 0.99518 0.13049 0.0
C394 C 0.31629 0.00464 0.0917 0.0
C395 C 0.32287 0.97143 0.06093 0.0
C396 C 0.30758 0.92874 0.06887 0.0
C397 C 0.28552 0.9192 0.10748 0.0
H398 H 0.33975 0.97877 0.03091 0.0
H399 H 0.11532 0.89094 0.40087 0.0
H400 H 0.11973 0.86714 0.90298 0.0
H401 H 0.13516 0.79919 0.86411 0.0
H402 H 0.99456 0.76494 0.85831 0.0
H403 H 0.98017 0.82959 0.90185 0.0
H404 H 0.03501 0.69557 0.86986 0.0
H405 H 0.06943 0.80589 0.73629 0.0
H406 H 0.11693 0.86645 0.70829 0.0
H407 H 0.22879 0.82149 0.77978 0.0
H408 H 0.18236 0.75961 0.8065 0.0
H409 H 0.95898 0.60067 0.67157 0.0
H410 H 0.98032 0.63974 0.73935 0.0
H411 H 0.11867 0.63003 0.70799 0.0
H412 H 0.09767 0.59116 0.64018 0.0
H413 H 0.10493 0.70924 0.72552 0.0
H414 H 0.07462 0.58065 0.80007 0.0
H415 H 0.03652 0.51276 0.82384 0.0
H416 H 0.92725 0.58521 0.86985 0.0
H417 H 0.9644 0.65357 0.84598 0.0
C418 C 0.09241 0.8444 0.89434 0.0
C419 C 0.04861 0.85392 0.90517 0.0
C420 C 0.1011 0.80605 0.87087 0.0
C421 C 0.06599 0.7773 0.85637 0.0
C422 C 0.02247 0.7864 0.86855 0.0
C423 C 0.01406 0.82375 0.89311 0.0
C424 C 0.07282 0.73809 0.82791 0.0
C425 C 0.05031 0.69856 0.83824 0.0
C426 C 0.09532 0.74044 0.78775 0.0
C427 C 0.12217 0.77922 0.77457 0.0
C428 C 0.10405 0.80928 0.74634 0.0
C429 C 0.13089 0.84349 0.7303 0.0
C430 C 0.17565 0.84824 0.74281 0.0
C431 C 0.194 0.8181 0.77048 0.0
C432 C 0.16754 0.78331 0.78583 0.0
C433 C 0.99397 0.60595 0.67959 0.0
C434 C 0.02654 0.59307 0.65026 0.0
C435 C 0.00621 0.62803 0.7186 0.0
C436 C 0.05127 0.63764 0.72909 0.0
C437 C 0.08381 0.62274 0.70086 0.0
C438 C 0.07163 0.60053 0.662 0.0
C439 C 0.06381 0.66818 0.76607 0.0
C440 C 0.09022 0.70572 0.75737 0.0
C441 C 0.04578 0.66347 0.80804 0.0
C442 C 0.02239 0.62233 0.82119 0.0
C443 C 0.04232 0.58213 0.81495 0.0
C444 C 0.02096 0.54356 0.82862 0.0
C445 C 0.9797 0.54475 0.84871 0.0
C446 C 0.9594 0.58442 0.85465 0.0
C447 C 0.98063 0.62311 0.8411 0.0
H448 H 0.96329 0.51486 0.85941 0.0
H449 H 0.19617 0.87509 0.73081 0.0
H450 H 0.0459 0.02657 0.881 0.0
H451 H 0.08864 0.0156 0.81682 0.0
H452 H 0.20856 0.01813 0.89644 0.0
H453 H 0.1656 0.04231 0.95872 0.0
H454 H 0.22758 0.06144 0.83783 0.0
H455 H 0.13738 0.92279 0.82669 0.0
H456 H 0.06608 0.88 0.8196 0.0
H457 H 0.03342 0.9472 0.70374 0.0
H458 H 0.10416 0.99043 0.70963 0.0
H459 H 0.36857 -0.00089 0.66908 0.0
H460 H 0.32079 0.99753 0.73217 0.0
H461 H 0.2107 0.03588 0.65262 0.0
H462 H 0.25842 0.03689 0.58853 0.0
H463 H 0.1867 0.9702 0.70727 0.0
H464 H 0.26463 0.10995 0.71874 0.0
H465 H 0.32951 0.16192 0.72236 0.0
H466 H 0.37869 0.09917 0.83572 0.0
H467 H 0.31459 0.04624 0.83218 0.0
C468 C 0.08131 0.02528 0.88469 0.0
C469 C 0.10254 0.03712 0.9242 0.0
C470 C 0.10609 0.01724 0.84779 0.0
C471 C 0.1525 0.01495 0.85083 0.0
C472 C 0.17303 0.02058 0.89235 0.0
C473 C 0.14851 0.03348 0.92831 0.0
C474 C 0.18022 0.01279 0.81088 0.0
C475 C 0.21899 0.04011 0.81015 0.0
C476 C 0.16797 0.98759 0.77271 0.0
C477 C 0.12635 0.95983 0.76862 0.0
C478 C 0.11518 0.92832 0.79961 0.0
C479 C 0.07466 0.9043 0.79607 0.0
C480 C 0.04521 0.91113 0.76168 0.0
C481 C 0.05622 0.94193 0.73046 0.0
C482 C 0.09657 0.96613 0.73378 0.0
C483 C 0.3342 0.00718 0.66475 0.0
C484 C 0.31732 0.01821 0.62366 0.0
C485 C 0.30698 0.00639 0.701 0.0
C486 C 0.26238 0.01696 0.69712 0.0
C487 C 0.24513 0.02763 0.6562 0.0
C488 C 0.27244 0.02841 0.61971 0.0
C489 C 0.23406 0.0171 0.73606 0.0
C490 C 0.19537 0.99003 0.73609 0.0
C491 C 0.24585 0.04272 0.7735 0.0
C492 C 0.28501 0.07389 0.77494 0.0
C493 C 0.28954 0.10693 0.74413 0.0
C494 C 0.32615 0.1366 0.74621 0.0
C495 C 0.35828 0.13378 0.77917 0.0
C496 C 0.35386 0.10127 0.81013 0.0
C497 C 0.31742 0.07141 0.80809 0.0
H498 H 0.38655 0.15683 0.78077 0.0
H499 H 0.01398 0.89233 0.75911 0.0
H500 H 0.08316 0.3698 0.62671 0.0
H501 H 0.09437 0.31534 0.6833 0.0
H502 H 0.9836 0.36434 0.75407 0.0
H503 H 0.97199 0.41745 0.69708 0.0
H504 H 0.05455 0.33869 0.80859 0.0
H505 H 0.96685 0.28908 0.68063 0.0
H506 H 0.95085 0.26666 0.60432 0.0
H507 H 0.05173 0.1727 0.6102 0.0
H508 H 0.07014 0.19606 0.68591 0.0
H509 H 0.93333 0.16898 0.91469 0.0
H510 H 0.96399 0.23128 0.8746 0.0
H511 H 0.05324 0.14685 0.80837 0.0
H512 H 0.02101 0.08471 0.84618 0.0
H513 H 0.01175 0.18969 0.75297 0.0
H514 H 0.08968 0.22772 0.88332 0.0
H515 H 0.10275 0.24391 0.96151 0.0
H516 H 0.02078 0.35429 0.95382 0.0
H517 H 0.00676 0.33843 0.87569 0.0
C518 C 0.06198 0.36904 0.6549 0.0
C519 C 0.02614 0.39644 0.65761 0.0
C520 C 0.06845 0.33839 0.6871 0.0
C521 C 0.03956 0.33577 0.72255 0.0
C522 C 0.00621 0.36592 0.72696 0.0
C523 C 0.99929 0.39581 0.69443 0.0
C524 C 0.03933 0.29829 0.75171 0.0
C525 C 0.04537 0.30595 0.79668 0.0
C526 C 0.02862 0.25553 0.73572 0.0
C527 C 0.02031 0.24476 0.68886 0.0
C528 C 0.98637 0.26436 0.66544 0.0
C529 C 0.97656 0.25119 0.62239 0.0
C530 C 0.99957 0.21769 0.60279 0.0
C531 C 0.03363 0.19837 0.62559 0.0
C532 C 0.04404 0.21181 0.66843 0.0
C533 C 0.95962 0.1639 0.89166 0.0
C534 C 0.97512 0.12204 0.8838 0.0
C535 C 0.97762 0.19958 0.86932 0.0
C536 C 0.0115 0.19388 0.83899 0.0
C537 C 0.02744 0.15216 0.83189 0.0
C538 C 0.00924 0.11661 0.85385 0.0
C539 C 0.02601 0.22982 0.81033 0.0
C540 C 0.02238 0.22195 0.76526 0.0
C541 C 0.03915 0.27209 0.82637 0.0
C542 C 0.047 0.28162 0.87357 0.0
C543 C 0.07419 0.25521 0.89835 0.0
C544 C 0.08184 0.26439 0.94265 0.0
C545 C 0.06257 0.30004 0.96263 0.0
C546 C 0.03569 0.32665 0.9383 0.0
C547 C 0.02795 0.31761 0.89395 0.0
H548 H 0.06851 0.30708 0.99695 0.0
H549 H 0.99114 0.20682 0.56983 0.0
H550 H 0.57722 0.03605 0.67406 0.0
H551 H 0.65288 0.04026 0.70337 0.0
H552 H 0.69735 0.96905 0.5906 0.0
H553 H 0.62169 0.9683 0.55966 0.0
H554 H 0.699 0.92595 0.67462 0.0
H555 H 0.7529 0.05569 0.61034 0.0
H556 H 0.75106 0.13123 0.58543 0.0
H557 H 0.73981 0.17747 0.71756 0.0
H558 H 0.74151 0.10225 0.7434 0.0
H559 H 0.88564 0.93499 0.83817 0.0
H560 H 0.84595 0.9327 0.76791 0.0
H561 H 0.7418 0.00628 0.8244 0.0
H562 H 0.78035 0.00817 0.89464 0.0
H563 H 0.79402 0.04293 0.74696 0.0
H564 H 0.7077 0.91913 0.80353 0.0
H565 H 0.69612 0.84523 0.83223 0.0
H566 H 0.75618 0.79091 0.71858 0.0
H567 H 0.76873 0.8647 0.68952 0.0
C568 C 0.60371 0.02353 0.65453 0.0
C569 C 0.59422 0.00096 0.61524 0.0
C570 C 0.64684 0.02594 0.67117 0.0
C571 C 0.68048 0.00473 0.64918 0.0
C572 C 0.67181 0.98584 0.60779 0.0
C573 C 0.62874 0.98498 0.59037 0.0
C574 C 0.72001 0.99403 0.67455 0.0
C575 C 0.72124 0.95113 0.68929 0.0
C576 C 0.7478 0.02732 0.69413 0.0
C577 C 0.74758 0.07302 0.67889 0.0
C578 C 0.75008 0.08186 0.63418 0.0
C579 C 0.74906 0.12472 0.61985 0.0
C580 C 0.74541 0.15914 0.64989 0.0
C581 C 0.74283 0.15078 0.69433 0.0
C582 C 0.74402 0.10801 0.70885 0.0
C583 C 0.85372 0.94966 0.83598 0.0
C584 C 0.83646 0.97231 0.8719 0.0
C585 C 0.83125 0.94839 0.79581 0.0
C586 C 0.79154 0.9699 0.79122 0.0
C587 C 0.77274 0.98984 0.82756 0.0
C588 C 0.79475 0.99067 0.8677 0.0
C589 C 0.77112 0.97552 0.74812 0.0
C590 C 0.77358 0.01739 0.73061 0.0
C591 C 0.74579 0.94162 0.7266 0.0
C592 C 0.74012 0.89749 0.74484 0.0
C593 C 0.71921 0.89151 0.78505 0.0
C594 C 0.7122 0.84961 0.80127 0.0
C595 C 0.72558 0.81338 0.77736 0.0
C596 C 0.74601 0.81901 0.73717 0.0
C597 C 0.75313 0.86087 0.72083 0.0
H598 H 0.71992 0.78096 0.78991 0.0
H599 H 0.74455 0.19228 0.63872 0.0
H600 H 0.41521 0.36166 0.8965 0.0
H601 H 0.36368 0.30802 0.86125 0.0
H602 H 0.25404 0.368 0.92449 0.0
H603 H 0.30532 0.42243 0.95866 0.0
H604 H 0.32584 0.25256 0.90936 0.0
H605 H 0.15423 0.33597 0.88109 0.0
H606 H 0.12672 0.39927 0.84282 0.0
H607 H 0.24368 0.4045 0.76457 0.0
H608 H 0.27178 0.34112 0.80185 0.0
H609 H 0.14441 0.15623 0.00805 0.0
H610 H 0.20143 0.2059 0.97779 0.0
H611 H 0.15752 0.16754 0.84761 0.0
H612 H 0.10042 0.11795 0.87824 0.0
H613 H 0.16812 0.25996 0.86292 0.0
H614 H 0.25155 0.13448 0.87165 0.0
H615 H 0.27812 0.06756 0.90446 0.0
H616 H 0.33869 0.14346 0.01012 0.0
H617 H 0.3119 0.21073 0.97848 0.0
C618 C 0.38 0.3642 0.90187 0.0
C619 C 0.36441 0.39534 0.93145 0.0
C620 C 0.35051 0.33363 0.88145 0.0
C621 C 0.30497 0.33348 0.8906 0.0
C622 C 0.28891 0.36751 0.91647 0.0
C623 C 0.31839 0.39844 0.93647 0.0
C624 C 0.27638 0.29345 0.88223 0.0
C625 C 0.29163 0.25417 0.89827 0.0
C626 C 0.23198 0.29486 0.86663 0.0
C627 C 0.21541 0.3338 0.84466 0.0
C628 C 0.17414 0.35052 0.85567 0.0
C629 C 0.15844 0.38658 0.83416 0.0
C630 C 0.1836 0.40623 0.8015 0.0
C631 C 0.22442 0.38971 0.79018 0.0
C632 C 0.24032 0.35374 0.81157 0.0
C633 C 0.14692 0.15882 0.97307 0.0
C634 C 0.11777 0.13429 0.94534 0.0
C635 C 0.17957 0.18666 0.95579 0.0
C636 C 0.18355 0.19021 0.9105 0.0
C637 C 0.15481 0.16523 0.88262 0.0
C638 C 0.12224 0.13718 0.90004 0.0
C639 C 0.21715 0.22135 0.89323 0.0
C640 C 0.20278 0.25854 0.87251 0.0
C641 C 0.26255 0.21796 0.90376 0.0
C642 C 0.27958 0.17768 0.92268 0.0
C643 C 0.27032 0.13687 0.902 0.0
C644 C 0.28542 0.09888 0.92038 0.0
C645 C 0.31002 0.10127 0.9593 0.0
C646 C 0.31968 0.14167 0.97992 0.0
C647 C 0.30461 0.17976 0.96173 0.0
H648 H 0.32162 0.07181 0.97349 0.0
H649 H 0.17143 0.43414 0.78487 0.0
H650 H 0.41841 0.71731 0.07769 0.0
H651 H 0.36816 0.77839 0.08044 0.0
H652 H 0.32258 0.74536 0.94954 0.0
H653 H 0.37274 0.6854 0.9467 0.0
H654 H 0.32156 0.82944 0.96019 0.0
H655 H 0.26872 0.70402 0.04162 0.0
H656 H 0.27413 0.64977 0.09929 0.0
H657 H 0.28329 0.75245 0.19654 0.0
H658 H 0.27764 0.80741 0.1394 0.0
H659 H 0.07246 0.83302 0.9925 0.0
H660 H 0.14364 0.80365 0.01349 0.0
H661 H 0.20699 0.93199 0.00541 0.0
H662 H 0.13561 0.96111 0.98328 0.0
H663 H 0.20726 0.81319 0.07414 0.0
H664 H 0.30083 0.92693 0.96196 0.0
H665 H 0.28969 0.96923 0.89539 0.0
H666 H 0.19118 0.87321 0.84892 0.0
H667 H 0.20122 0.83101 0.9154 0.0
C668 C 0.39909 0.72446 0.04893 0.0
C669 C 0.39971 0.6968 0.01186 0.0
C670 C 0.36982 0.75894 0.05072 0.0
C671 C 0.34074 0.76616 0.01548 0.0
C672 C 0.34441 0.74074 0.97723 0.0
C673 C 0.37332 0.70644 0.97553 0.0
C674 C 0.30339 0.79659 0.01903 0.0
C675 C 0.29714 0.82644 0.98569 0.0
C676 C 0.27075 0.79254 0.05176 0.0
C677 C 0.27337 0.75977 0.08625 0.0
C678 C 0.272 0.71501 0.07531 0.0
C679 C 0.27496 0.68416 0.1079 0.0
C680 C 0.27903 0.69769 0.15156 0.0
C681 C 0.27994 0.7421 0.16272 0.0
C682 C 0.27681 0.7731 0.13026 0.0
C683 C 0.10151 0.85502 0.9957 0.0
C684 C 0.09899 0.89903 0.98478 0.0
C685 C 0.1422 0.83828 0.00795 0.0
C686 C 0.18115 0.86528 0.0099 0.0
C687 C 0.17775 0.91019 0.00298 0.0
C688 C 0.13694 0.92691 0.9906 0.0
C689 C 0.2253 0.84537 0.01491 0.0
C690 C 0.23262 0.8174 0.04967 0.0
C691 C 0.25842 0.85018 0.98289 0.0
C692 C 0.25156 0.8761 0.94358 0.0
C693 C 0.27669 0.91507 0.93753 0.0
C694 C 0.27049 0.93906 0.8999 0.0
C695 C 0.23968 0.92397 0.86795 0.0
C696 C 0.2148 0.88507 0.87372 0.0
C697 C 0.22058 0.86121 0.91142 0.0
H698 H 0.23525 0.94228 0.83864 0.0
H699 H 0.28144 0.67375 0.17673 0.0
H700 H 0.6278 0.46123 0.99874 0.0
H701 H 0.69577 0.42308 0.0167 0.0
H702 H 0.62241 0.29993 0.00019 0.0
H703 H 0.55589 0.33815 0.98032 0.0
H704 H 0.69034 0.30931 0.07552 0.0
H705 H 0.67531 0.31957 0.91279 0.0
H706 H 0.67063 0.35929 0.84388 0.0
H707 H 0.77948 0.44563 0.88604 0.0
H708 H 0.78575 0.40565 0.95442 0.0
H709 H 0.82779 0.15455 0.94672 0.0
H710 H 0.78015 0.21649 0.9516 0.0
H711 H 0.85144 0.26382 0.06722 0.0
H712 H 0.89997 0.20138 0.06208 0.0
H713 H 0.79459 0.30515 0.952 0.0
H714 H 0.76497 0.30774 0.13415 0.0
H715 H 0.77182 0.26177 0.19867 0.0
H716 H 0.75152 0.14655 0.11784 0.0
H717 H 0.74409 0.19189 0.05301 0.0
C718 C 0.62685 0.42615 0.99801 0.0
C719 C 0.58785 0.40277 0.98454 0.0
C720 C 0.66521 0.40433 0.00913 0.0
C721 C 0.66442 0.35856 0.00874 0.0
C722 C 0.62404 0.33525 2e-05 0.0
C723 C 0.58616 0.35714 0.98797 0.0
C724 C 0.70611 0.33464 0.01252 0.0
C725 C 0.71361 0.30888 0.0489 0.0
C726 C 0.73667 0.3342 0.97808 0.0
C727 C 0.73074 0.36 0.93864 0.0
C728 C 0.69795 0.34728 0.9074 0.0
C729 C 0.69519 0.3696 0.86835 0.0
C730 C 0.72473 0.40479 0.86047 0.0
C731 C 0.75695 0.41801 0.8918 0.0
C732 C 0.76017 0.39556 0.93069 0.0
C733 C 0.83399 0.17862 0.97268 0.0
C734 C 0.86754 0.17313 0.00404 0.0
C735 C 0.80671 0.21405 0.97547 0.0
C736 C 0.81181 0.2446 0.01004 0.0
C737 C 0.84668 0.24047 0.04043 0.0
C738 C 0.87461 0.20507 0.03726 0.0
C739 C 0.7786 0.27886 0.01454 0.0
C740 C 0.77242 0.30655 0.9795 0.0
C741 C 0.74958 0.28102 0.05038 0.0
C742 C 0.75468 0.25323 0.08877 0.0
C743 C 0.76231 0.2726 0.13021 0.0
C744 C 0.76616 0.24668 0.1668 0.0
C745 C 0.76228 0.20129 0.16231 0.0
C746 C 0.75466 0.18172 0.12122 0.0
C747 C 0.75072 0.20752 0.08453 0.0
H748 H 0.76504 0.18127 0.1907 0.0
H749 H 0.72258 0.42172 0.83007 0.0
H750 H 0.89869 0.86188 0.95219 0.0
H751 H 0.86308 0.78963 0.94178 0.0
H752 H 0.95986 0.73622 0.02798 0.0
H753 H 0.9961 0.80859 0.03836 0.0
H754 H 0.87849 0.69705 0.92702 0.0
H755 H 0.90447 0.69966 0.10199 0.0
H756 H 0.93335 0.74925 0.16134 0.0
H757 H 0.86411 0.85468 0.10615 0.0
H758 H 0.83513 0.80563 0.04646 0.0
H759 H 0.69106 0.55826 0.01356 0.0
H760 H 0.76842 0.58713 0.01046 0.0
H761 H 0.72163 0.71603 0.99227 0.0
H762 H 0.64438 0.68635 0.98999 0.0
H763 H 0.7944 0.69627 0.06494 0.0
H764 H 0.75027 0.69008 0.90929 0.0
H765 H 0.72867 0.65703 0.83749 0.0
H766 H 0.83565 0.56984 0.84703 0.0
H767 H 0.85711 0.60174 0.91895 0.0
C768 C 0.91344 0.83449 0.96758 0.0
C769 C 0.94899 0.84092 0.99733 0.0
C770 C 0.89341 0.79312 0.96121 0.0
C771 C 0.90838 0.75803 0.98495 0.0
C772 C 0.94778 0.76315 0.0097 0.0
C773 C 0.96823 0.80457 0.01574 0.0
C774 C 0.8762 0.72173 0.99291 0.0
C775 C 0.86103 0.69533 0.95766 0.0
C776 C 0.85315 0.72044 0.03269 0.0
C777 C 0.86742 0.74901 0.0702 0.0
C778 C 0.89502 0.73329 0.10295 0.0
C779 C 0.91158 0.76133 0.13646 0.0
C780 C 0.90049 0.80507 0.1376 0.0
C781 C 0.87261 0.82079 0.10533 0.0
C782 C 0.85606 0.79289 0.07171 0.0
C783 C 0.69751 0.59246 0.00747 0.0
C784 C 0.66213 0.62002 0.00101 0.0
C785 C 0.74146 0.60893 0.0063 0.0
C786 C 0.75032 0.65347 0.00022 0.0
C787 C 0.71501 0.6814 0.99599 0.0
C788 C 0.67115 0.66467 0.99547 0.0
C789 C 0.79626 0.67174 0.99868 0.0
C790 C 0.81345 0.69528 0.03523 0.0
C791 C 0.82106 0.67046 0.95998 0.0
C792 C 0.80447 0.64747 0.91984 0.0
C793 C 0.76815 0.66291 0.89659 0.0
C794 C 0.7562 0.6447 0.85574 0.0
C795 C 0.7807 0.61143 0.83773 0.0
C796 C 0.81659 0.59557 0.86092 0.0
C797 C 0.82853 0.61355 0.90181 0.0
H798 H 0.77202 0.59831 0.80563 0.0
H799 H 0.91358 0.82678 0.16341 0.0
H800 H 0.5927 0.60376 0.88853 0.0
H801 H 0.6304 0.58053 0.82244 0.0
H802 H 0.69849 0.48526 0.89627 0.0
H803 H 0.66259 0.51024 0.96193 0.0
H804 H 0.75403 0.51867 0.84529 0.0
H805 H 0.61301 0.44372 0.80776 0.0
H806 H 0.53137 0.43512 0.80145 0.0
H807 H 0.52843 0.5516 0.72676 0.0
H808 H 0.61036 0.56 0.73204 0.0
H809 H 0.8413 0.43182 0.65022 0.0
H810 H 0.79539 0.43433 0.71541 0.0
H811 H 0.72974 0.54521 0.66535 0.0
H812 H 0.77404 0.54219 0.60002 0.0
H813 H 0.67179 0.49122 0.70555 0.0
H814 H 0.81676 0.56299 0.7401 0.0
H815 H 0.89858 0.56133 0.73803 0.0
H816 H 0.89456 0.44573 0.81425 0.0
H817 H 0.81271 0.44646 0.81616 0.0
C818 C 0.61492 0.57715 0.89013 0.0
C819 C 0.62312 0.55726 0.92987 0.0
C820 C 0.63643 0.56372 0.85241 0.0
C821 C 0.66614 0.52965 0.8537 0.0
C822 C 0.67508 0.5107 0.89386 0.0
C823 C 0.65401 0.52461 0.93154 0.0
C824 C 0.68939 0.51539 0.81371 0.0
C825 C 0.73587 0.51235 0.81493 0.0
C826 C 0.66621 0.50663 0.77386 0.0
C827 C 0.61726 0.50294 0.77132 0.0
C828 C 0.59464 0.46775 0.79074 0.0
C829 C 0.54845 0.46286 0.78715 0.0
C830 C 0.52451 0.49337 0.76458 0.0
C831 C 0.54694 0.52825 0.74464 0.0
C832 C 0.59327 0.53294 0.74771 0.0
C833 C 0.81669 0.45635 0.65291 0.0
C834 C 0.81171 0.4871 0.62018 0.0
C835 C 0.79058 0.45782 0.69017 0.0
C836 C 0.75971 0.49045 0.69546 0.0
C837 C 0.75335 0.5198 0.66194 0.0
C838 C 0.77898 0.51811 0.62466 0.0
C839 C 0.73619 0.49657 0.73697 0.0
C840 C 0.68979 0.49774 0.73602 0.0
C841 C 0.75954 0.50371 0.77688 0.0
C842 C 0.80875 0.50504 0.77874 0.0
C843 C 0.83343 0.53746 0.75673 0.0
C844 C 0.87974 0.53657 0.75537 0.0
C845 C 0.90169 0.50334 0.77584 0.0
C846 C 0.87747 0.47146 0.79846 0.0
C847 C 0.83113 0.47225 0.79993 0.0
H848 H 0.93745 0.50216 0.77395 0.0
H849 H 0.48865 0.48981 0.76222 0.0
H850 H 0.11607 0.48173 0.56843 0.0
H851 H 0.18481 0.50736 0.60727 0.0
H852 H 0.11368 0.50828 0.72834 0.0
H853 H 0.04583 0.48282 0.68991 0.0
H854 H 0.17427 0.57923 0.72042 0.0
H855 H 0.16709 0.41833 0.7003 0.0
H856 H 0.1662 0.35049 0.65578 0.0
H857 H 0.28384 0.39627 0.59063 0.0
H858 H 0.28574 0.46435 0.63519 0.0
H859 H 0.28134 0.52634 0.91184 0.0
H860 H 0.23528 0.52994 0.84611 0.0
H861 H 0.35023 0.51106 0.76673 0.0
H862 H 0.3962 0.50593 0.8322 0.0
H863 H 0.28519 0.46578 0.73411 0.0
H864 H 0.3037 0.61225 0.77966 0.0
H865 H 0.30514 0.67919 0.82548 0.0
H866 H 0.16392 0.66475 0.84154 0.0
H867 H 0.1617 0.59699 0.79708 0.0
C868 C 0.1154 0.48773 0.60324 0.0
C869 C 0.07657 0.47875 0.6267 0.0
C870 C 0.15439 0.50249 0.62526 0.0
C871 C 0.15424 0.50905 0.67065 0.0
C872 C 0.11447 0.50312 0.69334 0.0
C873 C 0.07595 0.48806 0.67152 0.0
C874 C 0.19558 0.51773 0.69611 0.0
C875 C 0.19868 0.55464 0.72371 0.0
C876 C 0.22836 0.48645 0.69852 0.0
C877 C 0.2264 0.4464 0.67078 0.0
C878 C 0.19259 0.41403 0.67626 0.0
C879 C 0.19195 0.37554 0.6511 0.0
C880 C 0.22486 0.36914 0.62031 0.0
C881 C 0.25839 0.40132 0.61447 0.0
C882 C 0.25936 0.43979 0.63976 0.0
C883 C 0.29673 0.5225 0.88041 0.0
C884 C 0.34247 0.51618 0.8773 0.0
C885 C 0.27051 0.52523 0.84284 0.0
C886 C 0.28963 0.52237 0.80147 0.0
C887 C 0.33489 0.51409 0.79828 0.0
C888 C 0.36105 0.51087 0.83583 0.0
C889 C 0.26161 0.52553 0.76173 0.0
C890 C 0.26154 0.49116 0.73082 0.0
C891 C 0.23131 0.55916 0.75668 0.0
C892 C 0.23267 0.59909 0.78518 0.0
C893 C 0.27303 0.62288 0.7935 0.0
C894 C 0.27396 0.66107 0.81922 0.0
C895 C 0.23468 0.67613 0.83653 0.0
C896 C 0.19437 0.65296 0.82827 0.0
C897 C 0.19328 0.61459 0.80284 0.0
H898 H 0.23547 0.70583 0.85624 0.0
H899 H 0.22457 0.33913 0.6012 0.0
H900 H 0.13558 0.50848 0.45599 0.0
H901 H 0.17904 0.48201 0.39523 0.0
H902 H 0.10103 0.55674 0.30692 0.0
H903 H 0.05375 0.57683 0.36683 0.0
H904 H 0.12179 0.4998 0.26211 0.0
H905 H 0.24203 0.58539 0.3588 0.0
H906 H 0.28687 0.59446 0.42677 0.0
H907 H 0.30395 0.45637 0.42836 0.0
H908 H 0.26038 0.44694 0.35977 0.0
H909 H 0.28064 0.56633 0.105 0.0
H910 H 0.22985 0.56139 0.16646 0.0
H911 H 0.30085 0.45372 0.21616 0.0
H912 H 0.35193 0.45876 0.15536 0.0
H913 H 0.28565 0.50974 0.2796 0.0
H914 H 0.19836 0.4364 0.16839 0.0
H915 H 0.16213 0.42586 0.09621 0.0
H916 H 0.08389 0.53709 0.1205 0.0
H917 H 0.1201 0.54867 0.19262 0.0
C918 C 0.12724 0.51793 0.42321 0.0
C919 C 0.09145 0.5445 0.41583 0.0
C920 C 0.15311 0.50404 0.38836 0.0
C921 C 0.14557 0.5188 0.3458 0.0
C922 C 0.10833 0.54423 0.33878 0.0
C923 C 0.08105 0.55598 0.37316 0.0
C924 C 0.17615 0.50952 0.30854 0.0
C925 C 0.15758 0.50298 0.26631 0.0
C926 C 0.22329 0.5101 0.31296 0.0
C927 C 0.24715 0.51547 0.35511 0.0
C928 C 0.25489 0.55706 0.37416 0.0
C929 C 0.2803 0.56225 0.41253 0.0
C930 C 0.29774 0.52595 0.43218 0.0
C931 C 0.29023 0.48443 0.41326 0.0
C932 C 0.26549 0.4792 0.37451 0.0
C933 C 0.28545 0.54161 0.129 0.0
C934 C 0.32046 0.51301 0.12514 0.0
C935 C 0.25614 0.53857 0.16398 0.0
C936 C 0.2611 0.50677 0.19575 0.0
C937 C 0.29619 0.47842 0.19207 0.0
C938 C 0.32541 0.48139 0.15718 0.0
C939 C 0.23096 0.50424 0.2338 0.0
C940 C 0.24974 0.50743 0.27579 0.0
C941 C 0.18418 0.50054 0.22909 0.0
C942 C 0.16222 0.4936 0.18579 0.0
C943 C 0.17367 0.45881 0.15822 0.0
C944 C 0.15309 0.45261 0.11733 0.0
C945 C 0.1208 0.48084 0.10374 0.0
C946 C 0.10894 0.51527 0.13106 0.0
C947 C 0.12944 0.52163 0.17197 0.0
H948 H 0.1049 0.47598 0.07208 0.0
H949 H 0.31744 0.53001 0.46186 0.0
H950 H 0.51552 0.3752 0.17206 0.0
H951 H 0.57646 0.37453 0.22392 0.0
H952 H 0.66189 0.44204 0.13356 0.0
H953 H 0.59997 0.4418 0.0804 0.0
H954 H 0.70496 0.37543 0.18176 0.0
H955 H 0.61089 0.49761 0.20801 0.0
H956 H 0.53858 0.52926 0.22052 0.0
H957 H 0.52155 0.45468 0.33596 0.0
H958 H 0.59318 0.4209 0.32319 0.0
H959 H 0.86358 0.47331 0.33046 0.0
H960 H 0.81016 0.44975 0.27363 0.0
H961 H 0.71482 0.41356 0.37173 0.0
H962 H 0.76742 0.44025 0.42874 0.0
H963 H 0.6767 0.45834 0.31822 0.0
H964 H 0.77224 0.34226 0.30165 0.0
H965 H 0.83973 0.30145 0.29007 0.0
H966 H 0.85259 0.354 0.16235 0.0
H967 H 0.78543 0.39555 0.17328 0.0
C968 C 0.54767 0.38779 0.16199 0.0
C969 C 0.55367 0.40617 0.12092 0.0
C970 C 0.58247 0.38806 0.19216 0.0
C971 C 0.62389 0.40768 0.18243 0.0
C972 C 0.63035 0.42595 0.14135 0.0
C973 C 0.59515 0.42579 0.11103 0.0
C974 C 0.65844 0.41316 0.21704 0.0
C975 C 0.69933 0.3938 0.21157 0.0
C976 C 0.64997 0.43574 0.25643 0.0
C977 C 0.60724 0.45651 0.26444 0.0
C978 C 0.5916 0.48766 0.23587 0.0
C979 C 0.55071 0.50604 0.24304 0.0
C980 C 0.52551 0.49431 0.2791 0.0
C981 C 0.54108 0.4638 0.30802 0.0
C982 C 0.58175 0.44486 0.30075 0.0
C983 C 0.83137 0.45989 0.33992 0.0
C984 C 0.81928 0.45915 0.38392 0.0
C985 C 0.80095 0.44598 0.30734 0.0
C986 C 0.75841 0.42953 0.31821 0.0
C987 C 0.7473 0.42644 0.36243 0.0
C988 C 0.77728 0.44163 0.395 0.0
C989 C 0.72402 0.42025 0.28371 0.0
C990 C 0.68287 0.43925 0.28895 0.0
C991 C 0.73216 0.39627 0.24475 0.0
C992 C 0.77347 0.3721 0.23838 0.0
C993 C 0.7894 0.34523 0.27112 0.0
C994 C 0.8277 0.32197 0.26469 0.0
C995 C 0.85042 0.32508 0.2255 0.0
C996 C 0.83498 0.35164 0.19274 0.0
C997 C 0.79672 0.37503 0.19905 0.0
H998 H 0.87995 0.30688 0.2205 0.0
H999 H 0.49394 0.50885 0.2846 0.0
H1000 H 0.46137 0.82552 0.47772 0.0
H1001 H 0.41996 0.75542 0.46307 0.0
H1002 H 0.30763 0.804 0.53138 0.0
H1003 H 0.34773 0.87382 0.54446 0.0
H1004 H 0.35077 0.70557 0.54598 0.0
H1005 H 0.28942 0.82013 0.4478 0.0
H1006 H 0.28486 0.86606 0.38363 0.0
H1007 H 0.31957 0.75849 0.30111 0.0
H1008 H 0.32647 0.7124 0.36539 0.0
H1009 H 0.13049 0.62823 0.54619 0.0
H1010 H 0.20529 0.66074 0.54919 0.0
H1011 H 0.2157 0.63851 0.41013 0.0
H1012 H 0.13799 0.61782 0.40617 0.0
H1013 H 0.24712 0.70494 0.41961 0.0
H1014 H 0.27662 0.58433 0.50608 0.0
H1015 H 0.2676 0.53046 0.56384 0.0
H1016 H 0.29042 0.6317 0.66121 0.0
H1017 H 0.29912 0.68631 0.60403 0.0
C1018 C 0.42793 0.82087 0.48954 0.0
C1019 C 0.4074 0.85489 0.51162 0.0
C1020 C 0.40449 0.78113 0.48123 0.0
C1021 C 0.36094 0.77514 0.49602 0.0
C1022 C 0.34126 0.80845 0.51963 0.0
C1023 C 0.36398 0.84831 0.52668 0.0
C1024 C 0.3338 0.73546 0.48571 0.0
C1025 C 0.32838 0.70409 0.51797 0.0
C1026 C 0.30615 0.73311 0.44839 0.0
C1027 C 0.31033 0.76335 0.41169 0.0
C1028 C 0.29817 0.80681 0.41637 0.0
C1029 C 0.29462 0.83274 0.3798 0.0
C1030 C 0.30203 0.81521 0.33828 0.0
C1031 C 0.31393 0.77201 0.3333 0.0
C1032 C 0.31829 0.74619 0.36983 0.0
C1033 C 0.14837 0.63196 0.51615 0.0
C1034 C 0.12806 0.62056 0.47586 0.0
C1035 C 0.19211 0.64865 0.51808 0.0
C1036 C 0.21757 0.65083 0.48011 0.0
C1037 C 0.19752 0.63719 0.4402 0.0
C1038 C 0.15289 0.62432 0.43789 0.0
C1039 C 0.26198 0.67391 0.48044 0.0
C1040 C 0.27052 0.70287 0.44654 0.0
C1041 C 0.29307 0.67248 0.51556 0.0
C1042 C 0.28887 0.63953 0.5504 0.0
C1043 C 0.27991 0.59516 0.5397 0.0
C1044 C 0.27471 0.56447 0.57242 0.0
C1045 C 0.27855 0.57765 0.61617 0.0
C1046 C 0.28763 0.62153 0.62727 0.0
C1047 C 0.29286 0.65236 0.59465 0.0
H1048 H 0.27449 0.55388 0.64145 0.0
H1049 H 0.2985 0.83494 0.30983 0.0
H1050 H 0.12362 0.41207 0.39693 0.0
H1051 H 0.18919 0.3778 0.42378 0.0
H1052 H 0.14173 0.38929 0.55522 0.0
H1053 H 0.07336 0.42074 0.52753 0.0
H1054 H 0.2574 0.39729 0.48704 0.0
H1055 H 0.14094 0.31553 0.58533 0.0
H1056 H 0.06035 0.29735 0.58767 0.0
H1057 H 0.06356 0.24335 0.45773 0.0
H1058 H 0.14404 0.26164 0.45483 0.0
H1059 H 0.40307 0.21915 0.53343 0.0
H1060 H 0.35506 0.28156 0.54021 0.0
H1061 H 0.26044 0.21767 0.4504 0.0
H1062 H 0.30748 0.15551 0.44414 0.0
H1063 H 0.21947 0.243 0.52089 0.0
H1064 H 0.32582 0.30547 0.42191 0.0
H1065 H 0.39936 0.3314 0.39625 0.0
H1066 H 0.41245 0.42178 0.50485 0.0
H1067 H 0.33924 0.39594 0.53146 0.0
C1068 C 0.12656 0.40668 0.43151 0.0
C1069 C 0.09251 0.41744 0.46003 0.0
C1070 C 0.16465 0.38792 0.44693 0.0
C1071 C 0.1698 0.37984 0.49133 0.0
C1072 C 0.13772 0.39403 0.52061 0.0
C1073 C 0.09896 0.41232 0.50492 0.0
C1074 C 0.20537 0.35095 0.50458 0.0
C1075 C 0.24964 0.36389 0.49618 0.0
C1076 C 0.19479 0.30712 0.51494 0.0
C1077 C 0.14805 0.29104 0.51933 0.0
C1078 C 0.12441 0.2997 0.55738 0.0
C1079 C 0.07874 0.28957 0.55875 0.0
C1080 C 0.05669 0.27001 0.52253 0.0
C1081 C 0.08049 0.25926 0.48544 0.0
C1082 C 0.12606 0.26959 0.48388 0.0
C1083 C 0.37249 0.21896 0.51445 0.0
C1084 C 0.35888 0.1823 0.48849 0.0
C1085 C 0.34498 0.2545 0.51853 0.0
C1086 C 0.30379 0.25398 0.49635 0.0
C1087 C 0.29164 0.21848 0.46849 0.0
C1088 C 0.31875 0.18307 0.46468 0.0
C1089 C 0.27196 0.28907 0.50291 0.0
C1090 C 0.22821 0.2769 0.51451 0.0
C1091 C 0.28299 0.33337 0.49449 0.0
C1092 C 0.32749 0.34811 0.4792 0.0
C1093 C 0.34469 0.3304 0.44068 0.0
C1094 C 0.38623 0.34521 0.42586 0.0
C1095 C 0.41068 0.37804 0.44904 0.0
C1096 C 0.39358 0.3962 0.48704 0.0
C1097 C 0.35208 0.38145 0.50203 0.0
H1098 H 0.4428 0.38953 0.43746 0.0
H1099 H 0.02121 0.26303 0.52317 0.0
H1100 H 0.79742 0.63816 0.52725 0.0
H1101 H 0.75384 0.70266 0.52664 0.0
H1102 H 0.86431 0.77669 0.47279 0.0
H1103 H 0.90942 0.71147 0.47491 0.0
H1104 H 0.81859 0.8245 0.53407 0.0
H1105 H 0.77976 0.7335 0.40787 0.0
H1106 H 0.75721 0.66402 0.3702 0.0
H1107 H 0.63534 0.6585 0.44107 0.0
H1108 H 0.6575 0.72753 0.47953 0.0
H1109 H 0.63054 0.94824 0.43019 0.0
H1110 H 0.70129 0.91453 0.44195 0.0
H1111 H 0.64776 0.84889 0.55343 0.0
H1112 H 0.5758 0.88112 0.5402 0.0
H1113 H 0.67351 0.80631 0.4558 0.0
H1114 H 0.78102 0.86132 0.60414 0.0
H1115 H 0.80638 0.9278 0.6456 0.0
H1116 H 0.78761 0.00456 0.53223 0.0
H1117 H 0.76404 0.93832 0.48971 0.0
C1118 C 0.81262 0.66812 0.51521 0.0
C1119 C 0.85651 0.66965 0.50022 0.0
C1120 C 0.78762 0.70501 0.51496 0.0
C1121 C 0.80533 0.74414 0.49851 0.0
C1122 C 0.8499 0.74658 0.48521 0.0
C1123 C 0.87553 0.70946 0.48626 0.0
C1124 C 0.77602 0.78136 0.494 0.0
C1125 C 0.78708 0.82077 0.51655 0.0
C1126 C 0.73474 0.77634 0.47124 0.0
C1127 C 0.72063 0.73555 0.44685 0.0
C1128 C 0.74828 0.71739 0.41545 0.0
C1129 C 0.73555 0.67805 0.39403 0.0
C1130 C 0.69505 0.65669 0.40359 0.0
C1131 C 0.66685 0.67496 0.43397 0.0
C1132 C 0.67946 0.71424 0.4555 0.0
C1133 C 0.6346 0.92864 0.45857 0.0
C1134 C 0.59824 0.91797 0.48486 0.0
C1135 C 0.6752 0.90961 0.46548 0.0
C1136 C 0.68023 0.88039 0.49938 0.0
C1137 C 0.6449 0.87245 0.52792 0.0
C1138 C 0.60388 0.89069 0.52033 0.0
C1139 C 0.71561 0.84885 0.49665 0.0
C1140 C 0.70535 0.81026 0.47278 0.0
C1141 C 0.75715 0.85468 0.51836 0.0
C1142 C 0.76974 0.89495 0.54397 0.0
C1143 C 0.78215 0.89241 0.58811 0.0
C1144 C 0.79648 0.92999 0.61174 0.0
C1145 C 0.79832 0.97038 0.59166 0.0
C1146 C 0.78592 0.97328 0.54784 0.0
C1147 C 0.77196 0.93571 0.52396 0.0
H1148 H 0.8096 -0.00064 0.61002 0.0
H1149 H 0.68549 0.62592 0.38758 0.0
H1150 H 0.5933 0.20334 0.40823 0.0
H1151 H 0.66874 0.23496 0.39662 0.0
H1152 H 0.72432 0.11968 0.44902 0.0
H1153 H 0.64933 0.08856 0.46061 0.0
H1154 H 0.75758 0.19343 0.48688 0.0
H1155 H 0.73427 0.14025 0.33703 0.0
H1156 H 0.69573 0.13273 0.26553 0.0
H1157 H 0.69846 0.27208 0.2555 0.0
H1158 H 0.73705 0.27993 0.32669 0.0
H1159 H 0.9594 0.3011 0.48121 0.0
H1160 H 0.91224 0.23992 0.45241 0.0
H1161 H 0.82717 0.33017 0.3901 0.0
H1162 H 0.87437 0.39078 0.41812 0.0
H1163 H 0.81788 0.25309 0.34995 0.0
H1164 H 0.81571 0.31236 0.49581 0.0
H1165 H 0.84302 0.33321 0.56973 0.0
H1166 H 0.87151 0.20001 0.59377 0.0
H1167 H 0.84497 0.17849 0.51956 0.0
C1168 C 0.6219 0.18527 0.41738 0.0
C1169 C 0.61624 0.14404 0.43553 0.0
C1170 C 0.66468 0.2027 0.40999 0.0
C1171 C 0.70192 0.17891 0.4208 0.0
C1172 C 0.69598 0.13794 0.43951 0.0
C1173 C 0.65344 0.12057 0.44668 0.0
C1174 C 0.74707 0.19887 0.41778 0.0
C1175 C 0.77147 0.20525 0.45668 0.0
C1176 C 0.76404 0.21573 0.37865 0.0
C1177 C 0.73915 0.21065 0.33672 0.0
C1178 C 0.72659 0.16912 0.31948 0.0
C1179 C 0.7045 0.1648 0.27914 0.0
C1180 C 0.69415 0.20186 0.25614 0.0
C1181 C 0.70619 0.24331 0.27329 0.0
C1182 C 0.72851 0.2477 0.31342 0.0
C1183 C 0.93184 0.30768 0.45969 0.0
C1184 C 0.91948 0.35057 0.45292 0.0
C1185 C 0.90497 0.27273 0.44321 0.0
C1186 C 0.86549 0.28072 0.42044 0.0
C1187 C 0.85719 0.32327 0.40806 0.0
C1188 C 0.88395 0.35802 0.42447 0.0
C1189 C 0.82807 0.24805 0.41916 0.0
C1190 C 0.80491 0.2395 0.37972 0.0
C1191 C 0.81085 0.23091 0.45823 0.0
C1192 C 0.82921 0.24397 0.5019 0.0
C1193 C 0.82848 0.28764 0.51661 0.0
C1194 C 0.84362 0.29955 0.5586 0.0
C1195 C 0.85894 0.26795 0.58642 0.0
C1196 C 0.85962 0.22444 0.57215 0.0
C1197 C 0.84467 0.21238 0.53008 0.0
H1198 H 0.87023 0.27718 0.61908 0.0
H1199 H 0.67703 0.19844 0.22495 0.0
H1200 H 0.59405 0.40103 0.86573 0.0
H1201 H 0.59922 0.33883 0.814 0.0
H1202 H 0.491 0.27138 0.87839 0.0
H1203 H 0.4841 0.33502 0.92779 0.0
H1204 H 0.57323 0.21881 0.85178 0.0
H1205 H 0.45666 0.3079 0.80063 0.0
H1206 H 0.42234 0.37622 0.78086 0.0
H1207 H 0.52302 0.4 0.68559 0.0
H1208 H 0.55847 0.33208 0.70544 0.0
H1209 H 0.471 0.09867 0.65784 0.0
H1210 H 0.48229 0.14245 0.72504 0.0
H1211 H 0.61276 0.18482 0.68283 0.0
H1212 H 0.60232 0.14026 0.61608 0.0
H1213 H 0.52203 0.2471 0.70109 0.0
H1214 H 0.63839 0.15408 0.75553 0.0
H1215 H 0.66562 0.08219 0.77434 0.0
H1216 H 0.55755 0.0626 0.86244 0.0
H1217 H 0.52945 0.13431 0.84388 0.0
C1218 C 0.57175 0.3727 0.86849 0.0
C1219 C 0.53846 0.37245 0.89969 0.0
C1220 C 0.57498 0.33722 0.83967 0.0
C1221 C 0.54587 0.3005 0.84291 0.0
C1222 C 0.51403 0.29929 0.87578 0.0
C1223 C 0.50988 0.33546 0.9036 0.0
C1224 C 0.54574 0.26571 0.80896 0.0
C1225 C 0.56192 0.22485 0.81886 0.0
C1226 C 0.53098 0.27377 0.76616 0.0
C1227 C 0.51048 0.31515 0.75482 0.0
C1228 C 0.47184 0.32797 0.77587 0.0
C1229 C 0.45205 0.3665 0.7645 0.0
C1230 C 0.47035 0.39229 0.73181 0.0
C1231 C 0.50876 0.37984 0.71074 0.0
C1232 C 0.52875 0.34136 0.72207 0.0
C1233 C 0.50262 0.11626 0.6635 0.0
C1234 C 0.53556 0.11656 0.63154 0.0
C1235 C 0.50904 0.14108 0.7019 0.0
C1236 C 0.54832 0.16666 0.7087 0.0
C1237 C 0.58243 0.16483 0.67822 0.0
C1238 C 0.57635 0.13941 0.64013 0.0
C1239 C 0.55033 0.2005 0.74356 0.0
C1240 C 0.53395 0.24122 0.73385 0.0
C1241 C 0.56447 0.19205 0.78642 0.0
C1242 C 0.58154 0.14926 0.79794 0.0
C1243 C 0.62018 0.13425 0.77856 0.0
C1244 C 0.63585 0.0936 0.78926 0.0
C1245 C 0.61321 0.06775 0.81936 0.0
C1246 C 0.575 0.08262 0.83904 0.0
C1247 C 0.55924 0.12329 0.82853 0.0
H1248 H 0.62537 0.03627 0.82754 0.0
H1249 H 0.45481 0.42196 0.72285 0.0
H1250 H 0.59016 0.90349 0.6291 0.0
H1251 H 0.60118 0.84389 0.67962 0.0
H1252 H 0.50161 0.8948 0.76377 0.0
H1253 H 0.49223 0.9555 0.71439 0.0
H1254 H 0.60469 0.83892 0.78967 0.0
H1255 H 0.42485 0.80444 0.74412 0.0
H1256 H 0.37092 0.81438 0.68423 0.0
H1257 H 0.47496 0.80481 0.59084 0.0
H1258 H 0.52932 0.79422 0.65018 0.0
H1259 H 0.50806 0.66662 0.921 0.0
H1260 H 0.52643 0.735 0.88385 0.0
H1261 H 0.53134 0.66398 0.76133 0.0
H1262 H 0.51189 0.59642 0.79779 0.0
H1263 H 0.48136 0.73097 0.75352 0.0
H1264 H 0.62255 0.70498 0.81983 0.0
H1265 H 0.67463 0.69392 0.88048 0.0
H1266 H 0.65346 0.82263 0.93091 0.0
H1267 H 0.59861 0.83345 0.87236 0.0
C1268 C 0.57232 0.90304 0.65945 0.0
C1269 C 0.53982 0.93343 0.66774 0.0
C1270 C 0.57846 0.86897 0.68812 0.0
C1271 C 0.55173 0.86482 0.72497 0.0
C1272 C 0.52241 0.89752 0.73538 0.0
C1273 C 0.51686 0.93189 0.70714 0.0
C1274 C 0.54818 0.82311 0.74794 0.0
C1275 C 0.57789 0.81509 0.78201 0.0
C1276 C 0.51334 0.79225 0.73742 0.0
C1277 C 0.48113 0.79906 0.70156 0.0
C1278 C 0.43615 0.80447 0.71079 0.0
C1279 C 0.40553 0.81011 0.67697 0.0
C1280 C 0.41951 0.81013 0.63378 0.0
C1281 C 0.4642 0.80473 0.62431 0.0
C1282 C 0.49494 0.79907 0.65804 0.0
C1283 C 0.51338 0.66568 0.88619 0.0
C1284 C 0.50814 0.62615 0.86222 0.0
C1285 C 0.52408 0.70471 0.86504 0.0
C1286 C 0.53031 0.70468 0.81973 0.0
C1287 C 0.52644 0.66496 0.79621 0.0
C1288 C 0.51538 0.62625 0.81715 0.0
C1289 C 0.53804 0.7459 0.79586 0.0
C1290 C 0.50857 0.75426 0.76153 0.0
C1291 C 0.57336 0.77672 0.80624 0.0
C1292 C 0.60604 0.76989 0.84177 0.0
C1293 C 0.62839 0.73073 0.84416 0.0
C1294 C 0.65853 0.72453 0.87818 0.0
C1295 C 0.66784 0.75777 0.90916 0.0
C1296 C 0.64629 0.79695 0.90679 0.0
C1297 C 0.61537 0.803 0.8734 0.0
H1298 H 0.69179 0.7533 0.93494 0.0
H1299 H 0.39573 0.81437 0.60771 0.0
H1300 H 0.55846 0.61181 0.15435 0.0
H1301 H 0.58254 0.64745 0.22248 0.0
H1302 H 0.45679 0.61049 0.27972 0.0
H1303 H 0.43159 0.5761 0.21057 0.0
H1304 H 0.46836 0.69453 0.27671 0.0
H1305 H 0.56269 0.58358 0.33484 0.0
H1306 H 0.62055 0.52942 0.3292 0.0
H1307 H 0.71273 0.62729 0.28181 0.0
H1308 H 0.65596 0.68246 0.28888 0.0
H1309 H 0.54052 0.81885 0.47556 0.0
H1310 H 0.54742 0.74937 0.43503 0.0
H1311 H 0.56665 0.8201 0.31652 0.0
H1312 H 0.55886 0.88908 0.35699 0.0
H1313 H 0.60976 0.71082 0.36163 0.0
H1314 H 0.48602 0.78587 0.25595 0.0
H1315 H 0.42923 0.84139 0.25523 0.0
H1316 H 0.39644 0.81234 0.38737 0.0
H1317 H 0.45329 0.75687 0.38885 0.0
C1318 C 0.53622 0.61019 0.18169 0.0
C1319 C 0.49259 0.59209 0.17671 0.0
C1320 C 0.55045 0.63007 0.22107 0.0
C1321 C 0.52159 0.63172 0.25643 0.0
C1322 C 0.47966 0.60964 0.25285 0.0
C1323 C 0.46512 0.59029 0.21322 0.0
C1324 C 0.53026 0.66509 0.29162 0.0
C1325 C 0.4989 0.69711 0.29598 0.0
C1326 C 0.57072 0.6698 0.31576 0.0
C1327 C 0.60508 0.637 0.31221 0.0
C1328 C 0.59532 0.5935 0.32324 0.0
C1329 C 0.62792 0.56265 0.31985 0.0
C1330 C 0.67007 0.5747 0.30456 0.0
C1331 C 0.67998 0.61789 0.29337 0.0
C1332 C 0.64778 0.64908 0.29755 0.0
C1333 C 0.54753 0.81928 0.44111 0.0
C1334 C 0.54799 0.85868 0.41884 0.0
C1335 C 0.55182 0.7798 0.41809 0.0
C1336 C 0.55711 0.77967 0.37274 0.0
C1337 C 0.56257 0.81954 0.3515 0.0
C1338 C 0.55805 0.8588 0.37443 0.0
C1339 C 0.54745 0.73924 0.34649 0.0
C1340 C 0.57872 0.70678 0.34337 0.0
C1341 C 0.50717 0.73399 0.32256 0.0
C1342 C 0.47382 0.76768 0.32261 0.0
C1343 C 0.46663 0.79148 0.28482 0.0
C1344 C 0.43455 0.82285 0.28426 0.0
C1345 C 0.4093 0.83026 0.32118 0.0
C1346 C 0.41593 0.8063 0.35874 0.0
C1347 C 0.4483 0.7752 0.35962 0.0
H1348 H 0.38473 0.85468 0.32064 0.0
H1349 H 0.69512 0.55065 0.30171 0.0
H1350 H 0.44347 0.10328 0.35219 0.0
H1351 H 0.45022 0.15114 0.29015 0.0
H1352 H 0.53462 0.06063 0.22597 0.0
H1353 H 0.52765 0.01193 0.28793 0.0
H1354 H 0.56279 0.15504 0.22505 0.0
H1355 H 0.43958 0.05694 0.18701 0.0
H1356 H 0.37151 0.01437 0.20574 0.0
H1357 H 0.30555 0.13265 0.23367 0.0
H1358 H 0.37355 0.17598 0.21585 0.0
H1359 H 0.53467 0.31179 0.0575 0.0
H1360 H 0.53724 0.23807 0.0869 0.0
H1361 H 0.43664 0.27019 0.1796 0.0
H1362 H 0.43299 0.3427 0.14882 0.0
H1363 H 0.42288 0.18806 0.14754 0.0
H1364 H 0.55794 0.26629 0.2304 0.0
H1365 H 0.6268 0.31264 0.22478 0.0
H1366 H 0.66547 0.23665 0.11382 0.0
H1367 H 0.59843 0.18849 0.12048 0.0
C1368 C 0.46356 0.09351 0.325 0.0
C1369 C 0.48457 0.05365 0.32465 0.0
C1370 C 0.46736 0.12085 0.28964 0.0
C1371 C 0.49235 0.1089 0.25349 0.0
C1372 C 0.5149 0.07002 0.25358 0.0
C1373 C 0.51071 0.0423 0.28885 0.0
C1374 C 0.49335 0.13715 0.21544 0.0
C1375 C 0.53261 0.16136 0.20699 0.0
C1376 C 0.45376 0.14543 0.19244 0.0
C1377 C 0.41178 0.11971 0.20024 0.0
C1378 C 0.41057 0.07389 0.19716 0.0
C1379 C 0.37203 0.04961 0.20777 0.0
C1380 C 0.33431 0.07078 0.2212 0.0
C1381 C 0.33485 0.1163 0.22341 0.0
C1382 C 0.37337 0.14075 0.21295 0.0
C1383 C 0.51285 0.30246 0.08371 0.0
C1384 C 0.48327 0.33212 0.10072 0.0
C1385 C 0.51458 0.26075 0.10077 0.0
C1386 C 0.48765 0.2489 0.13594 0.0
C1387 C 0.45745 0.27848 0.15224 0.0
C1388 C 0.45515 0.31969 0.13463 0.0
C1389 C 0.49207 0.20699 0.15802 0.0
C1390 C 0.45362 0.18034 0.16388 0.0
C1391 C 0.53229 0.19646 0.17875 0.0
C1392 C 0.57314 0.22439 0.17551 0.0
C1393 C 0.58136 0.25952 0.20495 0.0
C1394 C 0.62006 0.28602 0.20164 0.0
C1395 C 0.6502 0.27807 0.16857 0.0
C1396 C 0.64226 0.24291 0.13941 0.0
C1397 C 0.60416 0.21573 0.1432 0.0
H1398 H 0.6798 0.29897 0.16579 0.0
H1399 H 0.30461 0.05192 0.22976 0.0
loop_
_geom_bond_atom_site_label_1
_geom_bond_atom_site_label_2
_geom_bond_distance
_geom_bond_site_symmetry_2
_ccdc_geom_bond_type
Zn0 O4 1.992 . S
Zn0 N7 2.004 1_545 S
Zn0 O31 2.064 1_545 S
Zn0 O36 1.963 . S
Zn1 O4 1.970 1_564 S
Zn1 N12 2.004 . S
Zn1 O33 1.963 1_554 S
Zn1 O38 2.064 . S
Zn2 O4 1.971 1_554 S
Zn2 N21 2.004 1_655 S
Zn2 O35 2.064 . S
Zn2 O39 1.963 . S
Zn3 O4 1.913 . S
Zn3 O30 1.941 . S
Zn3 O34 1.941 1_556 S
Zn3 O37 1.941 1_556 S
O4 Zn0 1.992 . S
O4 Zn1 1.970 1_546 S
O4 Zn2 1.971 1_556 S
O4 Zn3 1.913 . S
C5 O6 1.237 1_655 S
C5 O39 1.268 . S
O6 C5 1.237 1_455 S
N7 Zn0 2.004 1_565 S
N7 N8 1.383 1_655 S
N7 C10 1.306 1_655 S
N8 N7 1.383 1_455 S
N8 C11 1.302 . S
N9 C10 1.368 . S
N9 C11 1.379 . S
C10 N7 1.306 1_455 S
C10 N9 1.368 . S
C10 C49 1.481 1_455 S
C11 N8 1.302 . S
C11 N9 1.379 . S
N12 Zn1 2.004 . S
N12 C15 1.306 1_655 S
N12 N16 1.383 1_655 S
C13 N14 1.379 . S
C13 N16 1.302 . S
N14 C13 1.379 . S
N14 C15 1.368 . S
C15 N12 1.306 1_455 S
C15 N14 1.368 . S
C15 C18 1.481 1_455 S
N16 N12 1.383 1_455 S
N16 C13 1.302 . S
H17 C18 0.969 . S
C18 C15 1.481 1_655 S
C18 H17 0.969 . S
C18 H19 0.970 . S
C18 H20 0.971 . S
H19 C18 0.970 . S
H20 C18 0.971 . S
N21 Zn2 2.004 1_455 S
N21 C22 1.306 . S
N21 N24 1.384 1_554 S
C22 N21 1.306 . S
C22 N25 1.368 1_554 S
C22 C26 1.481 . S
C23 N24 1.302 . S
C23 N25 1.379 . S
N24 N21 1.384 1_556 S
N24 C23 1.302 . S
N25 C22 1.368 1_556 S
N25 C23 1.379 . S
C26 C22 1.481 . S
C26 H27 0.971 . S
C26 H28 0.970 . S
C26 H29 0.969 . S
H27 C26 0.971 . S
H28 C26 0.970 . S
H29 C26 0.969 . S
O30 Zn3 1.941 . S
O30 C32 1.277 1_545 S
O31 Zn0 2.064 1_565 S
O31 C32 1.233 . S
C32 O30 1.277 1_565 S
C32 O31 1.233 . S
O33 Zn1 1.963 1_556 S
O33 C40 1.268 . S
O34 Zn3 1.941 1_554 S
O34 C42 1.277 1_554 S
O35 Zn2 2.064 . S
O35 C42 1.231 1_554 S
O36 Zn0 1.963 . S
O36 C43 1.268 . S
O37 Zn3 1.941 1_554 S
O37 C45 1.277 1_545 S
O38 Zn1 2.064 . S
O38 C45 1.233 . S
O39 Zn2 1.963 . S
O39 C5 1.268 . S
C40 O33 1.268 . S
C40 O41 1.237 1_556 S
O41 C40 1.237 1_554 S
C42 O34 1.277 1_556 S
C42 O35 1.231 1_556 S
C43 O36 1.268 . S
C43 O44 1.237 . S
O44 C43 1.237 . S
C45 O37 1.277 1_565 S
C45 O38 1.233 . S
H46 C49 0.970 . S
H47 C49 0.971 . S
H48 C49 0.969 1_455 S
C49 C10 1.481 1_655 S
C49 H46 0.970 . S
C49 H47 0.971 . S
C49 H48 0.969 1_655 S
Zn50 O54 1.978 . S
Zn50 N57 2.004 . S
Zn50 O81 2.064 . S
Zn50 O86 1.963 . S
Zn51 O54 1.978 . S
Zn51 N62 2.004 . S
Zn51 O83 1.963 . S
Zn51 O88 2.064 . S
Zn52 O54 1.978 . S
Zn52 N71 2.004 1_655 S
Zn52 O85 2.064 . S
Zn52 O89 1.963 . S
Zn53 O54 1.913 . S
Zn53 O80 1.941 . S
Zn53 O84 1.941 . S
Zn53 O87 1.941 . S
O54 Zn50 1.978 . S
O54 Zn51 1.978 . S
O54 Zn52 1.978 . S
O54 Zn53 1.913 . S
C55 O56 1.237 1_655 S
C55 O89 1.268 . S
O56 C55 1.237 1_455 S
N57 Zn50 2.004 . S
N57 N58 1.383 1_655 S
N57 C60 1.306 1_655 S
N58 N57 1.383 1_455 S
N58 C61 1.302 . S
N59 C60 1.368 . S
N59 C61 1.379 . S
C60 N57 1.306 1_455 S
C60 N59 1.368 . S
C60 C99 1.481 1_455 S
C61 N58 1.302 . S
C61 N59 1.379 . S
N62 Zn51 2.004 . S
N62 C65 1.306 1_655 S
N62 N66 1.383 1_655 S
C63 N64 1.379 . S
C63 N66 1.302 . S
N64 C63 1.379 . S
N64 C65 1.368 . S
C65 N62 1.306 1_455 S
C65 N64 1.368 . S
C65 C68 1.481 1_455 S
N66 N62 1.383 1_455 S
N66 C63 1.302 . S
H67 C68 0.969 . S
C68 C65 1.481 1_655 S
C68 H67 0.969 . S
C68 H69 0.970 . S
C68 H70 0.971 . S
H69 C68 0.970 . S
H70 C68 0.971 . S
N71 Zn52 2.004 1_455 S
N71 C72 1.306 . S
N71 N74 1.383 . S
C72 N71 1.306 . S
C72 N75 1.368 . S
C72 C76 1.481 . S
C73 N74 1.302 . S
C73 N75 1.379 . S
N74 N71 1.383 . S
N74 C73 1.302 . S
N75 C72 1.368 . S
N75 C73 1.379 . S
C76 C72 1.481 . S
C76 H77 0.971 . S
C76 H78 0.970 . S
C76 H79 0.969 . S
H77 C76 0.971 . S
H78 C76 0.970 . S
H79 C76 0.969 . S
O80 Zn53 1.941 . S
O80 C82 1.277 . S
O81 Zn50 2.064 . S
O81 C82 1.233 . S
C82 O80 1.277 . S
C82 O81 1.233 . S
O83 Zn51 1.963 . S
O83 C90 1.268 . S
O84 Zn53 1.941 . S
O84 C92 1.277 . S
O85 Zn52 2.064 . S
O85 C92 1.233 . S
O86 Zn50 1.963 . S
O86 C93 1.268 . S
O87 Zn53 1.941 . S
O87 C95 1.277 . S
O88 Zn51 2.064 . S
O88 C95 1.233 . S
O89 Zn52 1.963 . S
O89 C55 1.268 . S
C90 O83 1.268 . S
C90 O91 1.237 . S
O91 C90 1.237 . S
C92 O84 1.277 . S
C92 O85 1.233 . S
C93 O86 1.268 . S
C93 O94 1.237 . S
O94 C93 1.237 . S
C95 O87 1.277 . S
C95 O88 1.233 . S
H96 C99 0.970 . S
H97 C99 0.971 . S
H98 C99 0.969 1_455 S
C99 C60 1.481 1_655 S
C99 H96 0.970 . S
C99 H97 0.971 . S
C99 H98 0.969 1_655 S
Zn100 O104 1.978 . S
Zn100 N107 2.004 1_545 S
Zn100 O131 2.064 1_545 S
Zn100 O136 1.963 . S
Zn101 O104 1.978 1_565 S
Zn101 N112 2.004 . S
Zn101 O133 1.963 . S
Zn101 O138 2.064 . S
Zn102 O104 1.978 . S
Zn102 N121 2.004 . S
Zn102 O135 2.064 . S
Zn102 O139 1.963 . S
Zn103 O104 1.913 . S
Zn103 O130 1.941 . S
Zn103 O134 1.941 . S
Zn103 O137 1.941 . S
O104 Zn100 1.978 . S
O104 Zn101 1.978 1_545 S
O104 Zn102 1.978 . S
O104 Zn103 1.913 . S
C105 O106 1.237 . S
C105 O139 1.268 . S
O106 C105 1.237 . S
N107 Zn100 2.004 1_565 S
N107 N108 1.383 . S
N107 C110 1.306 . S
N108 N107 1.383 . S
N108 C111 1.302 . S
N109 C110 1.368 . S
N109 C111 1.379 . S
C110 N107 1.306 . S
C110 N109 1.368 . S
C110 C149 1.481 . S
C111 N108 1.302 . S
C111 N109 1.379 . S
N112 Zn101 2.004 . S
N112 C115 1.306 . S
N112 N116 1.383 . S
C113 N114 1.379 . S
C113 N116 1.302 . S
N114 C113 1.379 . S
N114 C115 1.368 . S
C115 N112 1.306 . S
C115 N114 1.368 . S
C115 C118 1.481 . S
N116 N112 1.383 . S
N116 C113 1.302 . S
H117 C118 0.969 . S
C118 C115 1.481 . S
C118 H117 0.969 . S
C118 H119 0.970 . S
C118 H120 0.971 . S
H119 C118 0.970 . S
H120 C118 0.971 . S
N121 Zn102 2.004 . S
N121 C122 1.306 . S
N121 N124 1.383 . S
C122 N121 1.306 . S
C122 N125 1.368 . S
C122 C126 1.481 . S
C123 N124 1.302 . S
C123 N125 1.379 . S
N124 N121 1.383 . S
N124 C123 1.302 . S
N125 C122 1.368 . S
N125 C123 1.379 . S
C126 C122 1.481 . S
C126 H127 0.971 . S
C126 H128 0.970 . S
C126 H129 0.969 . S
H127 C126 0.971 . S
H128 C126 0.970 . S
H129 C126 0.969 . S
O130 Zn103 1.941 . S
O130 C132 1.277 1_545 S
O131 Zn100 2.064 1_565 S
O131 C132 1.233 . S
C132 O130 1.277 1_565 S
C132 O131 1.233 . S
O133 Zn101 1.963 . S
O133 C140 1.268 . S
O134 Zn103 1.941 . S
O134 C142 1.277 . S
O135 Zn102 2.064 . S
O135 C142 1.233 . S
O136 Zn100 1.963 . S
O136 C143 1.268 . S
O137 Zn103 1.941 . S
O137 C145 1.277 1_545 S
O138 Zn101 2.064 . S
O138 C145 1.233 . S
O139 Zn102 1.963 . S
O139 C105 1.268 . S
C140 O133 1.268 . S
C140 O141 1.237 . S
O141 C140 1.237 . S
C142 O134 1.277 . S
C142 O135 1.233 . S
C143 O136 1.268 . S
C143 O144 1.237 . S
O144 C143 1.237 . S
C145 O137 1.277 1_565 S
C145 O138 1.233 . S
H146 C149 0.970 . S
H147 C149 0.971 . S
H148 C149 0.969 . S
C149 C110 1.481 . S
C149 H146 0.970 . S
C149 H147 0.971 . S
C149 H148 0.969 . S
Zn150 O154 1.992 . S
Zn150 N157 2.004 . S
Zn150 O181 2.064 . S
Zn150 O186 1.963 . S
Zn151 O154 1.970 1_554 S
Zn151 N162 2.004 . S
Zn151 O183 1.963 1_554 S
Zn151 O188 2.064 . S
Zn152 O154 1.971 1_554 S
Zn152 N171 2.004 . S
Zn152 O185 2.064 . S
Zn152 O189 1.963 . S
Zn153 O154 1.913 . S
Zn153 O180 1.941 . S
Zn153 O184 1.941 1_556 S
Zn153 O187 1.941 1_556 S
O154 Zn150 1.992 . S
O154 Zn151 1.970 1_556 S
O154 Zn152 1.971 1_556 S
O154 Zn153 1.913 . S
C155 O156 1.237 . S
C155 O189 1.268 . S
O156 C155 1.237 . S
N157 Zn150 2.004 . S
N157 N158 1.383 . S
N157 C160 1.306 . S
N158 N157 1.383 . S
N158 C161 1.302 . S
N159 C160 1.368 . S
N159 C161 1.379 . S
C160 N157 1.306 . S
C160 N159 1.368 . S
C160 C199 1.481 . S
C161 N158 1.302 . S
C161 N159 1.379 . S
N162 Zn151 2.004 . S
N162 C165 1.306 . S
N162 N166 1.383 . S
C163 N164 1.379 . S
C163 N166 1.302 . S
N164 C163 1.379 . S
N164 C165 1.368 . S
C165 N162 1.306 . S
C165 N164 1.368 . S
C165 C168 1.481 . S
N166 N162 1.383 . S
N166 C163 1.302 . S
H167 C168 0.969 . S
C168 C165 1.481 . S
C168 H167 0.969 . S
C168 H169 0.970 . S
C168 H170 0.971 . S
H169 C168 0.970 . S
H170 C168 0.971 . S
N171 Zn152 2.004 . S
N171 C172 1.306 . S
N171 N174 1.384 1_554 S
C172 N171 1.306 . S
C172 N175 1.368 1_554 S
C172 C176 1.481 . S
C173 N174 1.302 . S
C173 N175 1.379 . S
N174 N171 1.384 1_556 S
N174 C173 1.302 . S
N175 C172 1.368 1_556 S
N175 C173 1.379 . S
C176 C172 1.481 . S
C176 H177 0.971 . S
C176 H178 0.970 . S
C176 H179 0.969 . S
H177 C176 0.971 . S
H178 C176 0.970 . S
H179 C176 0.969 . S
O180 Zn153 1.941 . S
O180 C182 1.277 . S
O181 Zn150 2.064 . S
O181 C182 1.233 . S
C182 O180 1.277 . S
C182 O181 1.233 . S
O183 Zn151 1.963 1_556 S
O183 C190 1.268 . S
O184 Zn153 1.941 1_554 S
O184 C192 1.277 1_554 S
O185 Zn152 2.064 . S
O185 C192 1.231 1_554 S
O186 Zn150 1.963 . S
O186 C193 1.268 . S
O187 Zn153 1.941 1_554 S
O187 C195 1.277 . S
O188 Zn151 2.064 . S
O188 C195 1.233 . S
O189 Zn152 1.963 . S
O189 C155 1.268 . S
C190 O183 1.268 . S
C190 O191 1.237 1_556 S
O191 C190 1.237 1_554 S
C192 O184 1.277 1_556 S
C192 O185 1.231 1_556 S
C193 O186 1.268 . S
C193 O194 1.237 . S
O194 C193 1.237 . S
C195 O187 1.277 . S
C195 O188 1.233 . S
H196 C199 0.970 . S
H197 C199 0.971 . S
H198 C199 0.969 . S
C199 C160 1.481 . S
C199 H196 0.970 . S
C199 H197 0.971 . S
C199 H198 0.969 . S
H200 C218 0.951 . S
H201 C220 0.951 . S
H202 C222 0.950 . S
H203 C223 0.950 . S
H204 C225 0.950 . S
H205 C228 0.950 . S
H206 C229 0.950 . S
H207 C231 0.950 . S
H208 C232 0.950 . S
H209 C233 0.951 . S
H210 C235 0.951 . S
H211 C237 0.950 1_655 S
H212 C238 0.950 1_655 S
H213 C240 0.950 . S
H214 C243 0.950 . S
H215 C244 0.950 . S
H216 C246 0.950 . S
H217 C247 0.950 . S
C218 H200 0.951 . S
C218 C219 1.366 . S
C218 C220 1.388 . S
C219 C218 1.366 . S
C219 C223 1.385 1_655 S
C220 H201 0.951 . S
C220 C218 1.388 . S
C220 C221 1.366 1_655 S
C221 C220 1.366 1_455 S
C221 C222 1.414 . S
C221 C224 1.499 . S
C222 H202 0.950 . S
C222 C221 1.414 . S
C222 C223 1.374 . S
C223 H203 0.950 . S
C223 C219 1.385 1_455 S
C223 C222 1.374 . S
C224 C221 1.499 . S
C224 C225 1.373 . S
C224 C226 1.389 1_455 S
C225 H204 0.950 . S
C225 C224 1.373 . S
C225 C241 1.377 . S
C226 C224 1.389 1_655 S
C226 C227 1.524 . S
C226 C240 1.377 . S
C227 C226 1.524 . S
C227 C228 1.397 . S
C227 C232 1.363 . S
C228 H205 0.950 . S
C228 C227 1.397 . S
C228 C229 1.334 . S
C229 H206 0.950 . S
C229 C228 1.334 . S
C229 C230 1.287 . S
C230 C229 1.287 . S
C230 C231 1.524 . S
C230 H249 0.913 . S
C231 H207 0.950 . S
C231 C230 1.524 . S
C231 C232 1.415 . S
C232 H208 0.950 . S
C232 C227 1.363 . S
C232 C231 1.415 . S
C233 H209 0.951 . S
C233 C234 1.366 . S
C233 C235 1.388 . S
C234 C233 1.366 . S
C234 C238 1.385 . S
C235 H210 0.951 . S
C235 C233 1.388 . S
C235 C236 1.366 . S
C236 C235 1.366 . S
C236 C237 1.414 . S
C236 C239 1.499 . S
C237 H211 0.950 1_455 S
C237 C236 1.414 . S
C237 C238 1.374 . S
C238 H212 0.950 1_455 S
C238 C234 1.385 . S
C238 C237 1.374 . S
C239 C236 1.499 . S
C239 C240 1.373 1_455 S
C239 C241 1.389 . S
C240 H213 0.950 . S
C240 C226 1.377 . S
C240 C239 1.373 1_655 S
C241 C225 1.377 . S
C241 C239 1.389 . S
C241 C242 1.524 . S
C242 C241 1.524 . S
C242 C243 1.397 . S
C242 C247 1.363 . S
C243 H214 0.950 . S
C243 C242 1.397 . S
C243 C244 1.334 . S
C244 H215 0.950 . S
C244 C243 1.334 . S
C244 C245 1.287 . S
C245 C244 1.287 . S
C245 C246 1.524 . S
C245 H248 0.999 . S
C246 H216 0.950 . S
C246 C245 1.524 . S
C246 C247 1.415 . S
C247 H217 0.950 . S
C247 C242 1.363 . S
C247 C246 1.415 . S
H248 C245 0.999 . S
H249 C230 0.913 . S
H250 C268 0.951 . S
H251 C270 0.951 . S
H252 C272 0.950 . S
H253 C273 0.950 . S
H254 C275 0.950 . S
H255 C278 0.950 1_545 S
H256 C279 0.950 . S
H257 C281 0.950 . S
H258 C282 0.950 . S
H259 C283 0.951 . S
H260 C285 0.951 . S
H261 C287 0.950 . S
H262 C288 0.950 . S
H263 C290 0.950 . S
H264 C293 0.950 . S
H265 C294 0.950 . S
H266 C296 0.950 . S
H267 C297 0.950 . S
C268 H250 0.951 . S
C268 C269 1.366 1_565 S
C268 C270 1.388 . S
C269 C268 1.366 1_545 S
C269 C273 1.385 . S
C270 H251 0.951 . S
C270 C268 1.388 . S
C270 C271 1.366 1_565 S
C271 C270 1.366 1_545 S
C271 C272 1.414 . S
C271 C274 1.499 . S
C272 H252 0.950 . S
C272 C271 1.414 . S
C272 C273 1.374 . S
C273 H253 0.950 . S
C273 C269 1.385 . S
C273 C272 1.374 . S
C274 C271 1.499 . S
C274 C275 1.373 . S
C274 C276 1.389 1_545 S
C275 H254 0.950 . S
C275 C274 1.373 . S
C275 C291 1.377 . S
C276 C274 1.389 1_565 S
C276 C277 1.524 . S
C276 C290 1.377 . S
C277 C276 1.524 . S
C277 C278 1.397 . S
C277 C282 1.363 . S
C278 H255 0.950 1_565 S
C278 C277 1.397 . S
C278 C279 1.334 . S
C279 H256 0.950 . S
C279 C278 1.334 . S
C279 C280 1.287 . S
C280 C279 1.287 . S
C280 C281 1.524 . S
C280 H299 0.913 . S
C281 H257 0.950 . S
C281 C280 1.524 . S
C281 C282 1.415 . S
C282 H258 0.950 . S
C282 C277 1.363 . S
C282 C281 1.415 . S
C283 H259 0.951 . S
C283 C284 1.366 . S
C283 C285 1.388 . S
C284 C283 1.366 . S
C284 C288 1.385 1_545 S
C285 H260 0.951 . S
C285 C283 1.388 . S
C285 C286 1.366 . S
C286 C285 1.366 . S
C286 C287 1.414 1_545 S
C286 C289 1.499 . S
C287 H261 0.950 . S
C287 C286 1.414 1_565 S
C287 C288 1.374 . S
C288 H262 0.950 . S
C288 C284 1.385 1_565 S
C288 C287 1.374 . S
C289 C286 1.499 . S
C289 C290 1.373 1_545 S
C289 C291 1.389 . S
C290 H263 0.950 . S
C290 C276 1.377 . S
C290 C289 1.373 1_565 S
C291 C275 1.377 . S
C291 C289 1.389 . S
C291 C292 1.524 . S
C292 C291 1.524 . S
C292 C293 1.397 . S
C292 C297 1.363 . S
C293 H264 0.950 . S
C293 C292 1.397 . S
C293 C294 1.334 . S
C294 H265 0.950 . S
C294 C293 1.334 . S
C294 C295 1.287 . S
C295 C294 1.287 . S
C295 C296 1.524 . S
C295 H298 0.999 . S
C296 H266 0.950 . S
C296 C295 1.524 . S
C296 C297 1.415 . S
C297 H267 0.950 . S
C297 C292 1.363 . S
C297 C296 1.415 . S
H298 C295 0.999 . S
H299 C280 0.913 . S
H300 C318 0.951 . S
H301 C320 0.951 . S
H302 C322 0.950 . S
H303 C323 0.950 . S
H304 C325 0.944 1_655 S
H305 C328 0.950 . S
H306 C329 0.950 . S
H307 C331 0.950 . S
H308 C332 0.950 . S
H309 C333 0.951 . S
H310 C335 0.951 . S
H311 C337 0.950 . S
H312 C338 0.950 . S
H313 C340 0.950 . S
H314 C343 0.950 . S
H315 C344 0.950 . S
H316 C346 0.950 . S
H317 C347 0.950 . S
C318 H300 0.951 . S
C318 C319 1.366 . S
C318 C320 1.388 . S
C319 C318 1.366 . S
C319 C323 1.385 . S
C320 H301 0.951 . S
C320 C318 1.388 . S
C320 C321 1.366 . S
C321 C320 1.366 . S
C321 C322 1.414 . S
C321 C324 1.499 . S
C322 H302 0.950 . S
C322 C321 1.414 . S
C322 C323 1.374 . S
C323 H303 0.950 . S
C323 C319 1.385 . S
C323 C322 1.374 . S
C324 C321 1.499 . S
C324 C325 1.380 . S
C324 C326 1.389 . S
C325 H304 0.944 1_455 S
C325 C324 1.380 . S
C325 C341 1.375 1_455 S
C326 C324 1.389 . S
C326 C327 1.524 . S
C326 C340 1.377 . S
C327 C326 1.524 . S
C327 C328 1.397 . S
C327 C332 1.363 . S
C328 H305 0.950 . S
C328 C327 1.397 . S
C328 C329 1.334 . S
C329 H306 0.950 . S
C329 C328 1.334 . S
C329 C330 1.287 . S
C330 C329 1.287 . S
C330 C331 1.524 . S
C330 H349 0.913 . S
C331 H307 0.950 . S
C331 C330 1.524 . S
C331 C332 1.415 . S
C332 H308 0.950 . S
C332 C327 1.363 . S
C332 C331 1.415 . S
C333 H309 0.951 . S
C333 C334 1.366 1_655 S
C333 C335 1.388 . S
C334 C333 1.366 1_455 S
C334 C338 1.385 . S
C335 H310 0.951 . S
C335 C333 1.388 . S
C335 C336 1.366 1_655 S
C336 C335 1.366 1_455 S
C336 C337 1.414 . S
C336 C339 1.499 . S
C337 H311 0.950 . S
C337 C336 1.414 . S
C337 C338 1.374 . S
C338 H312 0.950 . S
C338 C334 1.385 . S
C338 C337 1.374 . S
C339 C336 1.499 . S
C339 C340 1.373 . S
C339 C341 1.389 1_455 S
C340 H313 0.950 . S
C340 C326 1.377 . S
C340 C339 1.373 . S
C341 C325 1.375 1_655 S
C341 C339 1.389 1_655 S
C341 C342 1.524 . S
C342 C341 1.524 . S
C342 C343 1.397 . S
C342 C347 1.363 . S
C343 H314 0.950 . S
C343 C342 1.397 . S
C343 C344 1.334 . S
C344 H315 0.950 . S
C344 C343 1.334 . S
C344 C345 1.287 . S
C345 C344 1.287 . S
C345 C346 1.524 . S
C345 H348 0.999 . S
C346 H316 0.950 . S
C346 C345 1.524 . S
C346 C347 1.415 . S
C347 H317 0.950 . S
C347 C342 1.363 . S
C347 C346 1.415 . S
H348 C345 0.999 . S
H349 C330 0.913 . S
H350 C368 0.956 . S
H351 C370 0.956 . S
H352 C372 0.950 . S
H353 C373 0.950 . S
H354 C375 0.950 . S
H355 C378 0.950 . S
H356 C379 0.950 . S
H357 C381 0.950 . S
H358 C382 0.950 . S
H359 C383 0.951 . S
H360 C385 0.951 . S
H361 C387 0.950 . S
H362 C388 0.950 . S
H363 C390 0.950 . S
H364 C393 0.950 . S
H365 C394 0.950 . S
H366 C396 0.950 . S
H367 C397 0.950 1_565 S
C368 H350 0.956 . S
C368 C369 1.360 1_545 S
C368 C370 1.388 . S
C369 C368 1.360 1_565 S
C369 C373 1.385 . S
C370 H351 0.956 . S
C370 C368 1.388 . S
C370 C371 1.361 1_545 S
C371 C370 1.361 1_565 S
C371 C372 1.414 . S
C371 C374 1.499 . S
C372 H352 0.950 . S
C372 C371 1.414 . S
C372 C373 1.374 . S
C373 H353 0.950 . S
C373 C369 1.385 . S
C373 C372 1.374 . S
C374 C371 1.499 . S
C374 C375 1.373 1_565 S
C374 C376 1.389 . S
C375 H354 0.950 . S
C375 C374 1.373 1_545 S
C375 C391 1.377 . S
C376 C374 1.389 . S
C376 C377 1.524 . S
C376 C390 1.377 . S
C377 C376 1.524 . S
C377 C378 1.397 . S
C377 C382 1.363 . S
C378 H355 0.950 . S
C378 C377 1.397 . S
C378 C379 1.334 . S
C379 H356 0.950 . S
C379 C378 1.334 . S
C379 C380 1.287 . S
C380 C379 1.287 . S
C380 C381 1.524 . S
C380 H399 0.913 . S
C381 H357 0.950 . S
C381 C380 1.524 . S
C381 C382 1.415 . S
C382 H358 0.950 . S
C382 C377 1.363 . S
C382 C381 1.415 . S
C383 H359 0.951 . S
C383 C384 1.366 . S
C383 C385 1.388 . S
C384 C383 1.366 . S
C384 C388 1.385 1_565 S
C385 H360 0.951 . S
C385 C383 1.388 . S
C385 C386 1.366 . S
C386 C385 1.366 . S
C386 C387 1.414 1_565 S
C386 C389 1.499 . S
C387 H361 0.950 . S
C387 C386 1.414 1_545 S
C387 C388 1.374 . S
C388 H362 0.950 . S
C388 C384 1.385 1_545 S
C388 C387 1.374 . S
C389 C386 1.499 . S
C389 C390 1.373 . S
C389 C391 1.389 1_565 S
C390 H363 0.950 . S
C390 C376 1.377 . S
C390 C389 1.373 . S
C391 C375 1.377 . S
C391 C389 1.389 1_545 S
C391 C392 1.524 . S
C392 C391 1.524 . S
C392 C393 1.397 . S
C392 C397 1.363 . S
C393 H364 0.950 . S
C393 C392 1.397 . S
C393 C394 1.334 . S
C394 H365 0.950 . S
C394 C393 1.334 . S
C394 C395 1.287 . S
C395 C394 1.287 . S
C395 C396 1.524 . S
C395 H398 0.999 . S
C396 H366 0.950 . S
C396 C395 1.524 . S
C396 C397 1.415 . S
C397 H367 0.950 1_545 S
C397 C392 1.363 . S
C397 C396 1.415 . S
H398 C395 0.999 . S
H399 C380 0.913 . S
H400 C418 0.951 . S
H401 C420 0.951 . S
H402 C422 0.947 1_655 S
H403 C423 0.950 1_655 S
H404 C425 0.950 . S
H405 C428 0.950 . S
H406 C429 0.950 . S
H407 C431 0.950 . S
H408 C432 0.950 . S
H409 C433 0.951 . S
H410 C435 0.951 . S
H411 C437 0.950 . S
H412 C438 0.950 . S
H413 C440 0.950 . S
H414 C443 0.950 . S
H415 C444 0.950 . S
H416 C446 0.950 . S
H417 C447 0.950 . S
C418 H400 0.951 . S
C418 C419 1.366 . S
C418 C420 1.388 . S
C419 C418 1.366 . S
C419 C423 1.385 . S
C420 H401 0.951 . S
C420 C418 1.388 . S
C420 C421 1.366 . S
C421 C420 1.366 . S
C421 C422 1.417 . S
C421 C424 1.499 . S
C422 H402 0.947 1_455 S
C422 C421 1.417 . S
C422 C423 1.374 . S
C423 H403 0.950 1_455 S
C423 C419 1.385 . S
C423 C422 1.374 . S
C424 C421 1.499 . S
C424 C425 1.373 1_455 S
C424 C426 1.389 . S
C425 H404 0.950 . S
C425 C424 1.373 1_655 S
C425 C441 1.377 . S
C426 C424 1.389 . S
C426 C427 1.524 . S
C426 C440 1.377 . S
C427 C426 1.524 . S
C427 C428 1.397 . S
C427 C432 1.363 . S
C428 H405 0.950 . S
C428 C427 1.397 . S
C428 C429 1.334 . S
C429 H406 0.950 . S
C429 C428 1.334 . S
C429 C430 1.287 . S
C430 C429 1.287 . S
C430 C431 1.524 . S
C430 H449 0.913 . S
C431 H407 0.950 . S
C431 C430 1.524 . S
C431 C432 1.415 . S
C432 H408 0.950 . S
C432 C427 1.363 . S
C432 C431 1.415 . S
C433 H409 0.951 . S
C433 C434 1.366 . S
C433 C435 1.388 . S
C434 C433 1.366 . S
C434 C438 1.385 1_655 S
C435 H410 0.951 . S
C435 C433 1.388 . S
C435 C436 1.366 1_655 S
C436 C435 1.366 1_455 S
C436 C437 1.414 . S
C436 C439 1.499 . S
C437 H411 0.950 . S
C437 C436 1.414 . S
C437 C438 1.374 . S
C438 H412 0.950 . S
C438 C434 1.385 1_455 S
C438 C437 1.374 . S
C439 C436 1.499 . S
C439 C440 1.373 . S
C439 C441 1.389 1_455 S
C440 H413 0.950 . S
C440 C426 1.377 . S
C440 C439 1.373 . S
C441 C425 1.377 . S
C441 C439 1.389 1_655 S
C441 C442 1.524 . S
C442 C441 1.524 . S
C442 C443 1.397 . S
C442 C447 1.363 . S
C443 H414 0.950 . S
C443 C442 1.397 . S
C443 C444 1.334 . S
C444 H415 0.950 . S
C444 C443 1.334 . S
C444 C445 1.287 . S
C445 C444 1.287 . S
C445 C446 1.524 . S
C445 H448 0.999 . S
C446 H416 0.950 . S
C446 C445 1.524 . S
C446 C447 1.415 . S
C447 H417 0.950 . S
C447 C442 1.363 . S
C447 C446 1.415 . S
H448 C445 0.999 . S
H449 C430 0.913 . S
H450 C468 0.951 . S
H451 C470 0.951 . S
H452 C472 0.950 . S
H453 C473 0.950 . S
H454 C475 0.950 . S
H455 C478 0.950 . S
H456 C479 0.950 . S
H457 C481 0.950 . S
H458 C482 0.950 . S
H459 C483 0.951 . S
H460 C485 0.951 . S
H461 C487 0.950 . S
H462 C488 0.950 1_565 S
H463 C490 0.950 . S
H464 C493 0.950 . S
H465 C494 0.950 . S
H466 C496 0.950 . S
H467 C497 0.950 . S
C468 H450 0.951 . S
C468 C469 1.366 . S
C468 C470 1.388 . S
C469 C468 1.366 . S
C469 C473 1.385 . S
C470 H451 0.951 . S
C470 C468 1.388 . S
C470 C471 1.366 . S
C471 C470 1.366 . S
C471 C472 1.414 . S
C471 C474 1.499 . S
C472 H452 0.950 . S
C472 C471 1.414 . S
C472 C473 1.374 . S
C473 H453 0.950 . S
C473 C469 1.385 . S
C473 C472 1.374 . S
C474 C471 1.499 . S
C474 C475 1.373 . S
C474 C476 1.389 1_545 S
C475 H454 0.950 . S
C475 C474 1.373 . S
C475 C491 1.377 . S
C476 C474 1.389 1_565 S
C476 C477 1.524 . S
C476 C490 1.377 . S
C477 C476 1.524 . S
C477 C478 1.397 . S
C477 C482 1.363 . S
C478 H455 0.950 . S
C478 C477 1.397 . S
C478 C479 1.334 . S
C479 H456 0.950 . S
C479 C478 1.334 . S
C479 C480 1.287 . S
C480 C479 1.287 . S
C480 C481 1.524 . S
C480 H499 0.913 . S
C481 H457 0.950 . S
C481 C480 1.524 . S
C481 C482 1.415 . S
C482 H458 0.950 . S
C482 C477 1.363 . S
C482 C481 1.415 . S
C483 H459 0.951 . S
C483 C484 1.366 . S
C483 C485 1.388 . S
C484 C483 1.366 . S
C484 C488 1.385 . S
C485 H460 0.951 . S
C485 C483 1.388 . S
C485 C486 1.366 . S
C486 C485 1.366 . S
C486 C487 1.414 . S
C486 C489 1.499 . S
C487 H461 0.950 . S
C487 C486 1.414 . S
C487 C488 1.374 . S
C488 H462 0.950 1_545 S
C488 C484 1.385 . S
C488 C487 1.374 . S
C489 C486 1.499 . S
C489 C490 1.373 1_545 S
C489 C491 1.389 . S
C490 H463 0.950 . S
C490 C476 1.377 . S
C490 C489 1.373 1_565 S
C491 C475 1.377 . S
C491 C489 1.389 . S
C491 C492 1.524 . S
C492 C491 1.524 . S
C492 C493 1.397 . S
C492 C497 1.363 . S
C493 H464 0.950 . S
C493 C492 1.397 . S
C493 C494 1.334 . S
C494 H465 0.950 . S
C494 C493 1.334 . S
C494 C495 1.287 . S
C495 C494 1.287 . S
C495 C496 1.524 . S
C495 H498 0.999 . S
C496 H466 0.950 . S
C496 C495 1.524 . S
C496 C497 1.415 . S
C497 H467 0.950 . S
C497 C492 1.363 . S
C497 C496 1.415 . S
H498 C495 0.999 . S
H499 C480 0.913 . S
H500 C518 0.951 . S
H501 C520 0.951 . S
H502 C522 0.950 1_655 S
H503 C523 0.950 . S
H504 C525 0.950 . S
H505 C528 0.959 . S
H506 C529 0.950 . S
H507 C531 0.950 . S
H508 C532 0.950 . S
H509 C533 0.951 . S
H510 C535 0.951 . S
H511 C537 0.950 . S
H512 C538 0.950 . S
H513 C540 0.950 . S
H514 C543 0.950 . S
H515 C544 0.950 . S
H516 C546 0.950 1_655 S
H517 C547 0.950 1_655 S
C518 H500 0.951 . S
C518 C519 1.366 . S
C518 C520 1.388 . S
C519 C518 1.366 . S
C519 C523 1.385 . S
C520 H501 0.951 . S
C520 C518 1.388 . S
C520 C521 1.366 . S
C521 C520 1.366 . S
C521 C522 1.414 . S
C521 C524 1.499 . S
C522 H502 0.950 1_455 S
C522 C521 1.414 . S
C522 C523 1.374 . S
C523 H503 0.950 . S
C523 C519 1.385 . S
C523 C522 1.374 . S
C524 C521 1.499 . S
C524 C525 1.373 . S
C524 C526 1.389 . S
C525 H504 0.950 . S
C525 C524 1.373 . S
C525 C541 1.377 . S
C526 C524 1.389 . S
C526 C527 1.524 . S
C526 C540 1.377 . S
C527 C526 1.524 . S
C527 C528 1.387 1_455 S
C527 C532 1.363 . S
C528 H505 0.959 . S
C528 C527 1.387 1_655 S
C528 C529 1.336 . S
C529 H506 0.950 . S
C529 C528 1.336 . S
C529 C530 1.287 1_655 S
C530 C529 1.287 1_455 S
C530 C531 1.524 . S
C530 H549 0.913 . S
C531 H507 0.950 . S
C531 C530 1.524 . S
C531 C532 1.415 . S
C532 H508 0.950 . S
C532 C527 1.363 . S
C532 C531 1.415 . S
C533 H509 0.951 . S
C533 C534 1.366 1_655 S
C533 C535 1.388 . S
C534 C533 1.366 1_455 S
C534 C538 1.385 . S
C535 H510 0.951 . S
C535 C533 1.388 . S
C535 C536 1.366 1_655 S
C536 C535 1.366 1_455 S
C536 C537 1.414 . S
C536 C539 1.499 . S
C537 H511 0.950 . S
C537 C536 1.414 . S
C537 C538 1.374 . S
C538 H512 0.950 . S
C538 C534 1.385 . S
C538 C537 1.374 . S
C539 C536 1.499 . S
C539 C540 1.373 . S
C539 C541 1.389 . S
C540 H513 0.950 . S
C540 C526 1.377 . S
C540 C539 1.373 . S
C541 C525 1.377 . S
C541 C539 1.389 . S
C541 C542 1.524 . S
C542 C541 1.524 . S
C542 C543 1.397 . S
C542 C547 1.363 . S
C543 H514 0.950 . S
C543 C542 1.397 . S
C543 C544 1.334 . S
C544 H515 0.950 . S
C544 C543 1.334 . S
C544 C545 1.287 . S
C545 C544 1.287 . S
C545 C546 1.524 . S
C545 H548 0.999 . S
C546 H516 0.950 1_455 S
C546 C545 1.524 . S
C546 C547 1.415 . S
C547 H517 0.950 1_455 S
C547 C542 1.363 . S
C547 C546 1.415 . S
H548 C545 0.999 . S
H549 C530 0.913 . S
H550 C568 0.951 1_545 S
H551 C570 0.951 1_545 S
H552 C572 0.950 . S
H553 C573 0.950 . S
H554 C575 0.950 . S
H555 C578 0.950 . S
H556 C579 0.950 . S
H557 C581 0.950 . S
H558 C582 0.950 . S
H559 C583 0.951 . S
H560 C585 0.951 . S
H561 C587 0.950 . S
H562 C588 0.950 . S
H563 C590 0.950 . S
H564 C593 0.950 . S
H565 C594 0.950 . S
H566 C596 0.950 . S
H567 C597 0.950 . S
C568 H550 0.951 1_565 S
C568 C569 1.366 . S
C568 C570 1.388 . S
C569 C568 1.366 . S
C569 C573 1.385 . S
C570 H551 0.951 1_565 S
C570 C568 1.388 . S
C570 C571 1.366 . S
C571 C570 1.366 . S
C571 C572 1.414 . S
C571 C574 1.499 . S
C572 H552 0.950 . S
C572 C571 1.414 . S
C572 C573 1.374 . S
C573 H553 0.950 . S
C573 C569 1.385 . S
C573 C572 1.374 . S
C574 C571 1.499 . S
C574 C575 1.373 . S
C574 C576 1.389 1_565 S
C575 H554 0.950 . S
C575 C574 1.373 . S
C575 C591 1.377 . S
C576 C574 1.389 1_545 S
C576 C577 1.524 . S
C576 C590 1.377 . S
C577 C576 1.524 . S
C577 C578 1.397 . S
C577 C582 1.363 . S
C578 H555 0.950 . S
C578 C577 1.397 . S
C578 C579 1.334 . S
C579 H556 0.950 . S
C579 C578 1.334 . S
C579 C580 1.287 . S
C580 C579 1.287 . S
C580 C581 1.524 . S
C580 H599 0.913 . S
C581 H557 0.950 . S
C581 C580 1.524 . S
C581 C582 1.415 . S
C582 H558 0.950 . S
C582 C577 1.363 . S
C582 C581 1.415 . S
C583 H559 0.951 . S
C583 C584 1.366 . S
C583 C585 1.388 . S
C584 C583 1.366 . S
C584 C588 1.385 . S
C585 H560 0.951 . S
C585 C583 1.388 . S
C585 C586 1.366 . S
C586 C585 1.366 . S
C586 C587 1.414 . S
C586 C589 1.499 . S
C587 H561 0.950 . S
C587 C586 1.414 . S
C587 C588 1.374 . S
C588 H562 0.950 . S
C588 C584 1.385 . S
C588 C587 1.374 . S
C589 C586 1.499 . S
C589 C590 1.373 1_565 S
C589 C591 1.389 . S
C590 H563 0.950 . S
C590 C576 1.377 . S
C590 C589 1.373 1_545 S
C591 C575 1.377 . S
C591 C589 1.389 . S
C591 C592 1.524 . S
C592 C591 1.524 . S
C592 C593 1.397 . S
C592 C597 1.363 . S
C593 H564 0.950 . S
C593 C592 1.397 . S
C593 C594 1.334 . S
C594 H565 0.950 . S
C594 C593 1.334 . S
C594 C595 1.287 . S
C595 C594 1.287 . S
C595 C596 1.524 . S
C595 H598 0.999 . S
C596 H566 0.950 . S
C596 C595 1.524 . S
C596 C597 1.415 . S
C597 H567 0.950 . S
C597 C592 1.363 . S
C597 C596 1.415 . S
H598 C595 0.999 . S
H599 C580 0.913 . S
H600 C618 0.951 . S
H601 C620 0.951 . S
H602 C622 0.950 . S
H603 C623 0.950 . S
H604 C625 0.950 . S
H605 C628 0.950 . S
H606 C629 0.950 . S
H607 C631 0.950 . S
H608 C632 0.950 . S
H609 C633 0.951 . S
H610 C635 0.951 . S
H611 C637 0.950 . S
H612 C638 0.950 . S
H613 C640 0.950 . S
H614 C643 0.950 . S
H615 C644 0.950 . S
H616 C646 0.950 . S
H617 C647 0.950 . S
C618 H600 0.951 . S
C618 C619 1.366 . S
C618 C620 1.388 . S
C619 C618 1.366 . S
C619 C623 1.385 1_556 S
C620 H601 0.951 . S
C620 C618 1.388 . S
C620 C621 1.366 . S
C621 C620 1.366 . S
C621 C622 1.414 1_556 S
C621 C624 1.499 . S
C622 H602 0.950 . S
C622 C621 1.414 1_554 S
C622 C623 1.374 . S
C623 H603 0.950 . S
C623 C619 1.385 1_554 S
C623 C622 1.374 . S
C624 C621 1.499 . S
C624 C625 1.373 1_556 S
C624 C626 1.389 . S
C625 H604 0.950 . S
C625 C624 1.373 1_554 S
C625 C641 1.377 . S
C626 C624 1.389 . S
C626 C627 1.524 . S
C626 C640 1.377 . S
C627 C626 1.524 . S
C627 C628 1.397 . S
C627 C632 1.363 . S
C628 H605 0.950 . S
C628 C627 1.397 . S
C628 C629 1.334 . S
C629 H606 0.950 . S
C629 C628 1.334 . S
C629 C630 1.287 . S
C630 C629 1.287 . S
C630 C631 1.524 . S
C630 H649 0.913 . S
C631 H607 0.950 . S
C631 C630 1.524 . S
C631 C632 1.415 . S
C632 H608 0.950 . S
C632 C627 1.363 . S
C632 C631 1.415 . S
C633 H609 0.951 . S
C633 C634 1.366 1_554 S
C633 C635 1.388 . S
C634 C633 1.366 1_556 S
C634 C638 1.385 . S
C635 H610 0.951 . S
C635 C633 1.388 . S
C635 C636 1.366 1_554 S
C636 C635 1.366 1_556 S
C636 C637 1.414 . S
C636 C639 1.499 . S
C637 H611 0.950 . S
C637 C636 1.414 . S
C637 C638 1.374 . S
C638 H612 0.950 . S
C638 C634 1.385 . S
C638 C637 1.374 . S
C639 C636 1.499 . S
C639 C640 1.373 . S
C639 C641 1.389 1_556 S
C640 H613 0.950 . S
C640 C626 1.377 . S
C640 C639 1.373 . S
C641 C625 1.377 . S
C641 C639 1.389 1_554 S
C641 C642 1.524 . S
C642 C641 1.524 . S
C642 C643 1.397 . S
C642 C647 1.363 . S
C643 H614 0.950 . S
C643 C642 1.397 . S
C643 C644 1.334 . S
C644 H615 0.950 . S
C644 C643 1.334 . S
C644 C645 1.287 . S
C645 C644 1.287 . S
C645 C646 1.524 . S
C645 H648 0.999 . S
C646 H616 0.950 . S
C646 C645 1.524 . S
C646 C647 1.415 . S
C647 H617 0.950 . S
C647 C642 1.363 . S
C647 C646 1.415 . S
H648 C645 0.999 . S
H649 C630 0.913 . S
H650 C668 0.951 . S
H651 C670 0.951 . S
H652 C672 0.950 . S
H653 C673 0.950 . S
H654 C675 0.950 . S
H655 C678 0.950 . S
H656 C679 0.950 . S
H657 C681 0.950 . S
H658 C682 0.950 . S
H659 C683 0.951 . S
H660 C685 0.951 . S
H661 C687 0.950 . S
H662 C688 0.950 . S
H663 C690 0.950 . S
H664 C693 0.950 . S
H665 C694 0.950 . S
H666 C696 0.950 . S
H667 C697 0.950 . S
C668 H650 0.951 . S
C668 C669 1.366 1_554 S
C668 C670 1.388 . S
C669 C668 1.366 1_556 S
C669 C673 1.385 . S
C670 H651 0.951 . S
C670 C668 1.388 . S
C670 C671 1.366 1_554 S
C671 C670 1.366 1_556 S
C671 C672 1.414 . S
C671 C674 1.499 . S
C672 H652 0.950 . S
C672 C671 1.414 . S
C672 C673 1.374 . S
C673 H653 0.950 . S
C673 C669 1.385 . S
C673 C672 1.374 . S
C674 C671 1.499 . S
C674 C675 1.373 . S
C674 C676 1.389 1_556 S
C675 H654 0.950 . S
C675 C674 1.373 . S
C675 C691 1.377 . S
C676 C674 1.389 1_554 S
C676 C677 1.524 . S
C676 C690 1.377 . S
C677 C676 1.524 . S
C677 C678 1.397 . S
C677 C682 1.363 . S
C678 H655 0.950 . S
C678 C677 1.397 . S
C678 C679 1.334 . S
C679 H656 0.950 . S
C679 C678 1.334 . S
C679 C680 1.287 . S
C680 C679 1.287 . S
C680 C681 1.524 . S
C680 H699 0.913 . S
C681 H657 0.950 . S
C681 C680 1.524 . S
C681 C682 1.415 . S
C682 H658 0.950 . S
C682 C677 1.363 . S
C682 C681 1.415 . S
C683 H659 0.951 . S
C683 C684 1.366 . S
C683 C685 1.388 . S
C684 C683 1.366 . S
C684 C688 1.385 1_556 S
C685 H660 0.951 . S
C685 C683 1.388 . S
C685 C686 1.366 . S
C686 C685 1.366 . S
C686 C687 1.414 1_556 S
C686 C689 1.499 . S
C687 H661 0.950 . S
C687 C686 1.414 1_554 S
C687 C688 1.374 . S
C688 H662 0.950 . S
C688 C684 1.385 1_554 S
C688 C687 1.374 . S
C689 C686 1.499 . S
C689 C690 1.373 1_556 S
C689 C691 1.389 . S
C690 H663 0.950 . S
C690 C676 1.377 . S
C690 C689 1.373 1_554 S
C691 C675 1.377 . S
C691 C689 1.389 . S
C691 C692 1.524 . S
C692 C691 1.524 . S
C692 C693 1.397 . S
C692 C697 1.363 . S
C693 H664 0.950 . S
C693 C692 1.397 . S
C693 C694 1.334 . S
C694 H665 0.950 . S
C694 C693 1.334 . S
C694 C695 1.287 . S
C695 C694 1.287 . S
C695 C696 1.524 . S
C695 H698 0.999 . S
C696 H666 0.950 . S
C696 C695 1.524 . S
C696 C697 1.415 . S
C697 H667 0.950 . S
C697 C692 1.363 . S
C697 C696 1.415 . S
H698 C695 0.999 . S
H699 C680 0.913 . S
H700 C718 0.951 1_554 S
H701 C720 0.951 1_554 S
H702 C722 0.950 . S
H703 C723 0.950 . S
H704 C725 0.947 1_554 S
H705 C728 0.950 . S
H706 C729 0.950 . S
H707 C731 0.950 . S
H708 C732 0.950 . S
H709 C733 0.951 . S
H710 C735 0.951 . S
H711 C737 0.950 . S
H712 C738 0.950 . S
H713 C740 0.950 . S
H714 C743 0.950 . S
H715 C744 0.950 . S
H716 C746 0.950 . S
H717 C747 0.950 1_556 S
C718 H700 0.951 1_556 S
C718 C719 1.366 . S
C718 C720 1.388 . S
C719 C718 1.366 . S
C719 C723 1.385 . S
C720 H701 0.951 1_556 S
C720 C718 1.388 . S
C720 C721 1.366 . S
C721 C720 1.366 . S
C721 C722 1.414 . S
C721 C724 1.499 . S
C722 H702 0.950 . S
C722 C721 1.414 . S
C722 C723 1.374 . S
C723 H703 0.950 . S
C723 C719 1.385 . S
C723 C722 1.374 . S
C724 C721 1.499 . S
C724 C725 1.373 . S
C724 C726 1.389 . S
C725 H704 0.947 1_556 S
C725 C724 1.373 . S
C725 C741 1.377 . S
C726 C724 1.389 . S
C726 C727 1.524 . S
C726 C740 1.377 . S
C727 C726 1.524 . S
C727 C728 1.397 . S
C727 C732 1.363 . S
C728 H705 0.950 . S
C728 C727 1.397 . S
C728 C729 1.334 . S
C729 H706 0.950 . S
C729 C728 1.334 . S
C729 C730 1.287 . S
C730 C729 1.287 . S
C730 C731 1.524 . S
C730 H749 0.913 . S
C731 H707 0.950 . S
C731 C730 1.524 . S
C731 C732 1.415 . S
C732 H708 0.950 . S
C732 C727 1.363 . S
C732 C731 1.415 . S
C733 H709 0.951 . S
C733 C734 1.366 . S
C733 C735 1.388 . S
C734 C733 1.366 . S
C734 C738 1.385 1_556 S
C735 H710 0.951 . S
C735 C733 1.388 . S
C735 C736 1.366 . S
C736 C735 1.366 . S
C736 C737 1.414 1_556 S
C736 C739 1.499 . S
C737 H711 0.950 . S
C737 C736 1.414 1_554 S
C737 C738 1.374 . S
C738 H712 0.950 . S
C738 C734 1.385 1_554 S
C738 C737 1.374 . S
C739 C736 1.499 . S
C739 C740 1.373 . S
C739 C741 1.389 . S
C740 H713 0.950 . S
C740 C726 1.377 . S
C740 C739 1.373 . S
C741 C725 1.377 . S
C741 C739 1.389 . S
C741 C742 1.524 1_556 S
C742 C741 1.524 1_554 S
C742 C743 1.397 . S
C742 C747 1.363 . S
C743 H714 0.950 . S
C743 C742 1.397 . S
C743 C744 1.334 . S
C744 H715 0.950 . S
C744 C743 1.334 . S
C744 C745 1.287 . S
C745 C744 1.287 . S
C745 C746 1.524 . S
C745 H748 0.999 . S
C746 H716 0.950 . S
C746 C745 1.524 . S
C746 C747 1.415 . S
C747 H717 0.950 1_554 S
C747 C742 1.363 . S
C747 C746 1.415 . S
H748 C745 0.999 . S
H749 C730 0.913 . S
H750 C768 0.951 1_554 S
H751 C770 0.951 1_554 S
H752 C772 0.950 . S
H753 C773 0.950 . S
H754 C775 0.950 . S
H755 C778 0.950 . S
H756 C779 0.950 . S
H757 C781 0.950 . S
H758 C782 0.950 . S
H759 C783 0.951 . S
H760 C785 0.951 . S
H761 C787 0.950 1_554 S
H762 C788 0.960 . S
H763 C790 0.950 . S
H764 C793 0.950 . S
H765 C794 0.950 . S
H766 C796 0.950 . S
H767 C797 0.950 . S
C768 H750 0.951 1_556 S
C768 C769 1.366 . S
C768 C770 1.388 . S
C769 C768 1.366 . S
C769 C773 1.385 . S
C770 H751 0.951 1_556 S
C770 C768 1.388 . S
C770 C771 1.366 . S
C771 C770 1.366 . S
C771 C772 1.414 . S
C771 C774 1.499 . S
C772 H752 0.950 . S
C772 C771 1.414 . S
C772 C773 1.374 . S
C773 H753 0.950 . S
C773 C769 1.385 . S
C773 C772 1.374 . S
C774 C771 1.499 . S
C774 C775 1.373 . S
C774 C776 1.389 1_556 S
C775 H754 0.950 . S
C775 C774 1.373 . S
C775 C791 1.377 . S
C776 C774 1.389 1_554 S
C776 C777 1.524 . S
C776 C790 1.377 . S
C777 C776 1.524 . S
C777 C778 1.397 . S
C777 C782 1.363 . S
C778 H755 0.950 . S
C778 C777 1.397 . S
C778 C779 1.334 . S
C779 H756 0.950 . S
C779 C778 1.334 . S
C779 C780 1.287 . S
C780 C779 1.287 . S
C780 C781 1.524 . S
C780 H799 0.913 . S
C781 H757 0.950 . S
C781 C780 1.524 . S
C781 C782 1.415 . S
C782 H758 0.950 . S
C782 C777 1.363 . S
C782 C781 1.415 . S
C783 H759 0.951 . S
C783 C784 1.366 . S
C783 C785 1.388 . S
C784 C783 1.366 . S
C784 C788 1.385 . S
C785 H760 0.951 . S
C785 C783 1.388 . S
C785 C786 1.366 . S
C786 C785 1.366 . S
C786 C787 1.414 . S
C786 C789 1.499 . S
C787 H761 0.950 1_556 S
C787 C786 1.414 . S
C787 C788 1.374 . S
C788 H762 0.960 . S
C788 C784 1.385 . S
C788 C787 1.374 . S
C789 C786 1.499 . S
C789 C790 1.373 1_556 S
C789 C791 1.389 . S
C790 H763 0.950 . S
C790 C776 1.377 . S
C790 C789 1.373 1_554 S
C791 C775 1.377 . S
C791 C789 1.389 . S
C791 C792 1.524 . S
C792 C791 1.524 . S
C792 C793 1.397 . S
C792 C797 1.363 . S
C793 H764 0.950 . S
C793 C792 1.397 . S
C793 C794 1.334 . S
C794 H765 0.950 . S
C794 C793 1.334 . S
C794 C795 1.287 . S
C795 C794 1.287 . S
C795 C796 1.524 . S
C795 H798 0.999 . S
C796 H766 0.950 . S
C796 C795 1.524 . S
C796 C797 1.415 . S
C797 H767 0.950 . S
C797 C792 1.363 . S
C797 C796 1.415 . S
H798 C795 0.999 . S
H799 C780 0.913 . S
H800 C818 0.951 . S
H801 C820 0.951 . S
H802 C822 0.950 . S
H803 C823 0.950 . S
H804 C825 0.950 . S
H805 C828 0.950 . S
H806 C829 0.950 . S
H807 C831 0.950 . S
H808 C832 0.950 . S
H809 C833 0.951 . S
H810 C835 0.951 . S
H811 C837 0.950 . S
H812 C838 0.950 . S
H813 C840 0.950 . S
H814 C843 0.950 . S
H815 C844 0.950 . S
H816 C846 0.950 . S
H817 C847 0.950 . S
C818 H800 0.951 . S
C818 C819 1.366 . S
C818 C820 1.388 . S
C819 C818 1.366 . S
C819 C823 1.385 . S
C820 H801 0.951 . S
C820 C818 1.388 . S
C820 C821 1.366 . S
C821 C820 1.366 . S
C821 C822 1.414 . S
C821 C824 1.499 . S
C822 H802 0.950 . S
C822 C821 1.414 . S
C822 C823 1.374 . S
C823 H803 0.950 . S
C823 C819 1.385 . S
C823 C822 1.374 . S
C824 C821 1.499 . S
C824 C825 1.373 . S
C824 C826 1.389 . S
C825 H804 0.950 . S
C825 C824 1.373 . S
C825 C841 1.377 . S
C826 C824 1.389 . S
C826 C827 1.524 . S
C826 C840 1.377 . S
C827 C826 1.524 . S
C827 C828 1.397 . S
C827 C832 1.363 . S
C828 H805 0.950 . S
C828 C827 1.397 . S
C828 C829 1.334 . S
C829 H806 0.950 . S
C829 C828 1.334 . S
C829 C830 1.287 . S
C830 C829 1.287 . S
C830 C831 1.524 . S
C830 H849 0.913 . S
C831 H807 0.950 . S
C831 C830 1.524 . S
C831 C832 1.415 . S
C832 H808 0.950 . S
C832 C827 1.363 . S
C832 C831 1.415 . S
C833 H809 0.951 . S
C833 C834 1.366 . S
C833 C835 1.388 . S
C834 C833 1.366 . S
C834 C838 1.385 . S
C835 H810 0.951 . S
C835 C833 1.388 . S
C835 C836 1.366 . S
C836 C835 1.366 . S
C836 C837 1.414 . S
C836 C839 1.499 . S
C837 H811 0.950 . S
C837 C836 1.414 . S
C837 C838 1.374 . S
C838 H812 0.950 . S
C838 C834 1.385 . S
C838 C837 1.374 . S
C839 C836 1.499 . S
C839 C840 1.373 . S
C839 C841 1.389 . S
C840 H813 0.950 . S
C840 C826 1.377 . S
C840 C839 1.373 . S
C841 C825 1.377 . S
C841 C839 1.389 . S
C841 C842 1.524 . S
C842 C841 1.524 . S
C842 C843 1.397 . S
C842 C847 1.363 . S
C843 H814 0.950 . S
C843 C842 1.397 . S
C843 C844 1.334 . S
C844 H815 0.950 . S
C844 C843 1.334 . S
C844 C845 1.287 . S
C845 C844 1.287 . S
C845 C846 1.524 . S
C845 H848 0.999 . S
C846 H816 0.950 . S
C846 C845 1.524 . S
C846 C847 1.415 . S
C847 H817 0.950 . S
C847 C842 1.363 . S
C847 C846 1.415 . S
H848 C845 0.999 . S
H849 C830 0.913 . S
H850 C868 0.951 . S
H851 C870 0.951 . S
H852 C872 0.950 . S
H853 C873 0.950 . S
H854 C875 0.950 . S
H855 C878 0.950 . S
H856 C879 0.950 . S
H857 C881 0.950 . S
H858 C882 0.950 . S
H859 C883 0.951 . S
H860 C885 0.951 . S
H861 C887 0.950 . S
H862 C888 0.950 . S
H863 C890 0.950 . S
H864 C893 0.950 . S
H865 C894 0.950 . S
H866 C896 0.950 . S
H867 C897 0.950 . S
C868 H850 0.951 . S
C868 C869 1.366 . S
C868 C870 1.388 . S
C869 C868 1.366 . S
C869 C873 1.385 . S
C870 H851 0.951 . S
C870 C868 1.388 . S
C870 C871 1.366 . S
C871 C870 1.366 . S
C871 C872 1.414 . S
C871 C874 1.499 . S
C872 H852 0.950 . S
C872 C871 1.414 . S
C872 C873 1.374 . S
C873 H853 0.950 . S
C873 C869 1.385 . S
C873 C872 1.374 . S
C874 C871 1.499 . S
C874 C875 1.373 . S
C874 C876 1.389 . S
C875 H854 0.950 . S
C875 C874 1.373 . S
C875 C891 1.377 . S
C876 C874 1.389 . S
C876 C877 1.524 . S
C876 C890 1.377 . S
C877 C876 1.524 . S
C877 C878 1.397 . S
C877 C882 1.363 . S
C878 H855 0.950 . S
C878 C877 1.397 . S
C878 C879 1.334 . S
C879 H856 0.950 . S
C879 C878 1.334 . S
C879 C880 1.287 . S
C880 C879 1.287 . S
C880 C881 1.524 . S
C880 H899 0.913 . S
C881 H857 0.950 . S
C881 C880 1.524 . S
C881 C882 1.415 . S
C882 H858 0.950 . S
C882 C877 1.363 . S
C882 C881 1.415 . S
C883 H859 0.951 . S
C883 C884 1.366 . S
C883 C885 1.388 . S
C884 C883 1.366 . S
C884 C888 1.385 . S
C885 H860 0.951 . S
C885 C883 1.388 . S
C885 C886 1.366 . S
C886 C885 1.366 . S
C886 C887 1.414 . S
C886 C889 1.499 . S
C887 H861 0.950 . S
C887 C886 1.414 . S
C887 C888 1.374 . S
C888 H862 0.950 . S
C888 C884 1.385 . S
C888 C887 1.374 . S
C889 C886 1.499 . S
C889 C890 1.373 . S
C889 C891 1.389 . S
C890 H863 0.950 . S
C890 C876 1.377 . S
C890 C889 1.373 . S
C891 C875 1.377 . S
C891 C889 1.389 . S
C891 C892 1.524 . S
C892 C891 1.524 . S
C892 C893 1.397 . S
C892 C897 1.363 . S
C893 H864 0.950 . S
C893 C892 1.397 . S
C893 C894 1.334 . S
C894 H865 0.950 . S
C894 C893 1.334 . S
C894 C895 1.287 . S
C895 C894 1.287 . S
C895 C896 1.524 . S
C895 H898 0.999 . S
C896 H866 0.950 . S
C896 C895 1.524 . S
C896 C897 1.415 . S
C897 H867 0.950 . S
C897 C892 1.363 . S
C897 C896 1.415 . S
H898 C895 0.999 . S
H899 C880 0.913 . S
H900 C918 0.951 . S
H901 C920 0.951 . S
H902 C922 0.950 . S
H903 C923 0.950 . S
H904 C925 0.950 . S
H905 C928 0.950 . S
H906 C929 0.950 . S
H907 C931 0.950 . S
H908 C932 0.950 . S
H909 C933 0.951 . S
H910 C935 0.951 . S
H911 C937 0.950 . S
H912 C938 0.950 . S
H913 C940 0.950 . S
H914 C943 0.950 . S
H915 C944 0.950 . S
H916 C946 0.950 . S
H917 C947 0.950 . S
C918 H900 0.951 . S
C918 C919 1.366 . S
C918 C920 1.388 . S
C919 C918 1.366 . S
C919 C923 1.385 . S
C920 H901 0.951 . S
C920 C918 1.388 . S
C920 C921 1.366 . S
C921 C920 1.366 . S
C921 C922 1.414 . S
C921 C924 1.499 . S
C922 H902 0.950 . S
C922 C921 1.414 . S
C922 C923 1.374 . S
C923 H903 0.950 . S
C923 C919 1.385 . S
C923 C922 1.374 . S
C924 C921 1.499 . S
C924 C925 1.373 . S
C924 C926 1.389 . S
C925 H904 0.950 . S
C925 C924 1.373 . S
C925 C941 1.377 . S
C926 C924 1.389 . S
C926 C927 1.524 . S
C926 C940 1.377 . S
C927 C926 1.524 . S
C927 C928 1.397 . S
C927 C932 1.363 . S
C928 H905 0.950 . S
C928 C927 1.397 . S
C928 C929 1.334 . S
C929 H906 0.950 . S
C929 C928 1.334 . S
C929 C930 1.287 . S
C930 C929 1.287 . S
C930 C931 1.524 . S
C930 H949 0.913 . S
C931 H907 0.950 . S
C931 C930 1.524 . S
C931 C932 1.415 . S
C932 H908 0.950 . S
C932 C927 1.363 . S
C932 C931 1.415 . S
C933 H909 0.951 . S
C933 C934 1.366 . S
C933 C935 1.388 . S
C934 C933 1.366 . S
C934 C938 1.385 . S
C935 H910 0.951 . S
C935 C933 1.388 . S
C935 C936 1.366 . S
C936 C935 1.366 . S
C936 C937 1.414 . S
C936 C939 1.499 . S
C937 H911 0.950 . S
C937 C936 1.414 . S
C937 C938 1.374 . S
C938 H912 0.950 . S
C938 C934 1.385 . S
C938 C937 1.374 . S
C939 C936 1.499 . S
C939 C940 1.373 . S
C939 C941 1.389 . S
C940 H913 0.950 . S
C940 C926 1.377 . S
C940 C939 1.373 . S
C941 C925 1.377 . S
C941 C939 1.389 . S
C941 C942 1.524 . S
C942 C941 1.524 . S
C942 C943 1.397 . S
C942 C947 1.363 . S
C943 H914 0.950 . S
C943 C942 1.397 . S
C943 C944 1.334 . S
C944 H915 0.950 . S
C944 C943 1.334 . S
C944 C945 1.287 . S
C945 C944 1.287 . S
C945 C946 1.524 . S
C945 H948 0.999 . S
C946 H916 0.950 . S
C946 C945 1.524 . S
C946 C947 1.415 . S
C947 H917 0.950 . S
C947 C942 1.363 . S
C947 C946 1.415 . S
H948 C945 0.999 . S
H949 C930 0.913 . S
H950 C968 0.951 . S
H951 C970 0.951 . S
H952 C972 0.950 . S
H953 C973 0.950 . S
H954 C975 0.950 . S
H955 C978 0.950 . S
H956 C979 0.950 . S
H957 C981 0.950 . S
H958 C982 0.950 . S
H959 C983 0.951 . S
H960 C985 0.951 . S
H961 C987 0.950 . S
H962 C988 0.950 . S
H963 C990 0.950 . S
H964 C993 0.950 . S
H965 C994 0.950 . S
H966 C996 0.950 . S
H967 C997 0.950 . S
C968 H950 0.951 . S
C968 C969 1.366 . S
C968 C970 1.388 . S
C969 C968 1.366 . S
C969 C973 1.385 . S
C970 H951 0.951 . S
C970 C968 1.388 . S
C970 C971 1.366 . S
C971 C970 1.366 . S
C971 C972 1.414 . S
C971 C974 1.499 . S
C972 H952 0.950 . S
C972 C971 1.414 . S
C972 C973 1.374 . S
C973 H953 0.950 . S
C973 C969 1.385 . S
C973 C972 1.374 . S
C974 C971 1.499 . S
C974 C975 1.373 . S
C974 C976 1.389 . S
C975 H954 0.950 . S
C975 C974 1.373 . S
C975 C991 1.377 . S
C976 C974 1.389 . S
C976 C977 1.524 . S
C976 C990 1.377 . S
C977 C976 1.524 . S
C977 C978 1.397 . S
C977 C982 1.363 . S
C978 H955 0.950 . S
C978 C977 1.397 . S
C978 C979 1.334 . S
C979 H956 0.950 . S
C979 C978 1.334 . S
C979 C980 1.287 . S
C980 C979 1.287 . S
C980 C981 1.524 . S
C980 H999 0.913 . S
C981 H957 0.950 . S
C981 C980 1.524 . S
C981 C982 1.415 . S
C982 H958 0.950 . S
C982 C977 1.363 . S
C982 C981 1.415 . S
C983 H959 0.951 . S
C983 C984 1.366 . S
C983 C985 1.388 . S
C984 C983 1.366 . S
C984 C988 1.385 . S
C985 H960 0.951 . S
C985 C983 1.388 . S
C985 C986 1.366 . S
C986 C985 1.366 . S
C986 C987 1.414 . S
C986 C989 1.499 . S
C987 H961 0.950 . S
C987 C986 1.414 . S
C987 C988 1.374 . S
C988 H962 0.950 . S
C988 C984 1.385 . S
C988 C987 1.374 . S
C989 C986 1.499 . S
C989 C990 1.373 . S
C989 C991 1.389 . S
C990 H963 0.950 . S
C990 C976 1.377 . S
C990 C989 1.373 . S
C991 C975 1.377 . S
C991 C989 1.389 . S
C991 C992 1.524 . S
C992 C991 1.524 . S
C992 C993 1.397 . S
C992 C997 1.363 . S
C993 H964 0.950 . S
C993 C992 1.397 . S
C993 C994 1.334 . S
C994 H965 0.950 . S
C994 C993 1.334 . S
C994 C995 1.287 . S
C995 C994 1.287 . S
C995 C996 1.524 . S
C995 H998 0.999 . S
C996 H966 0.950 . S
C996 C995 1.524 . S
C996 C997 1.415 . S
C997 H967 0.950 . S
C997 C992 1.363 . S
C997 C996 1.415 . S
H998 C995 0.999 . S
H999 C980 0.913 . S
H1000 C1018 0.951 . S
H1001 C1020 0.951 . S
H1002 C1022 0.950 . S
H1003 C1023 0.950 . S
H1004 C1025 0.950 . S
H1005 C1028 0.950 . S
H1006 C1029 0.950 . S
H1007 C1031 0.950 . S
H1008 C1032 0.950 . S
H1009 C1033 0.951 . S
H1010 C1035 0.951 . S
H1011 C1037 0.950 . S
H1012 C1038 0.950 . S
H1013 C1040 0.950 . S
H1014 C1043 0.950 . S
H1015 C1044 0.950 . S
H1016 C1046 0.950 . S
H1017 C1047 0.950 . S
C1018 H1000 0.951 . S
C1018 C1019 1.366 . S
C1018 C1020 1.388 . S
C1019 C1018 1.366 . S
C1019 C1023 1.385 . S
C1020 H1001 0.951 . S
C1020 C1018 1.388 . S
C1020 C1021 1.366 . S
C1021 C1020 1.366 . S
C1021 C1022 1.414 . S
C1021 C1024 1.499 . S
C1022 H1002 0.950 . S
C1022 C1021 1.414 . S
C1022 C1023 1.374 . S
C1023 H1003 0.950 . S
C1023 C1019 1.385 . S
C1023 C1022 1.374 . S
C1024 C1021 1.499 . S
C1024 C1025 1.373 . S
C1024 C1026 1.389 . S
C1025 H1004 0.950 . S
C1025 C1024 1.373 . S
C1025 C1041 1.377 . S
C1026 C1024 1.389 . S
C1026 C1027 1.524 . S
C1026 C1040 1.377 . S
C1027 C1026 1.524 . S
C1027 C1028 1.397 . S
C1027 C1032 1.363 . S
C1028 H1005 0.950 . S
C1028 C1027 1.397 . S
C1028 C1029 1.334 . S
C1029 H1006 0.950 . S
C1029 C1028 1.334 . S
C1029 C1030 1.287 . S
C1030 C1029 1.287 . S
C1030 C1031 1.524 . S
C1030 H1049 0.913 . S
C1031 H1007 0.950 . S
C1031 C1030 1.524 . S
C1031 C1032 1.415 . S
C1032 H1008 0.950 . S
C1032 C1027 1.363 . S
C1032 C1031 1.415 . S
C1033 H1009 0.951 . S
C1033 C1034 1.366 . S
C1033 C1035 1.388 . S
C1034 C1033 1.366 . S
C1034 C1038 1.385 . S
C1035 H1010 0.951 . S
C1035 C1033 1.388 . S
C1035 C1036 1.366 . S
C1036 C1035 1.366 . S
C1036 C1037 1.414 . S
C1036 C1039 1.499 . S
C1037 H1011 0.950 . S
C1037 C1036 1.414 . S
C1037 C1038 1.374 . S
C1038 H1012 0.950 . S
C1038 C1034 1.385 . S
C1038 C1037 1.374 . S
C1039 C1036 1.499 . S
C1039 C1040 1.373 . S
C1039 C1041 1.389 . S
C1040 H1013 0.950 . S
C1040 C1026 1.377 . S
C1040 C1039 1.373 . S
C1041 C1025 1.377 . S
C1041 C1039 1.389 . S
C1041 C1042 1.524 . S
C1042 C1041 1.524 . S
C1042 C1043 1.397 . S
C1042 C1047 1.363 . S
C1043 H1014 0.950 . S
C1043 C1042 1.397 . S
C1043 C1044 1.334 . S
C1044 H1015 0.950 . S
C1044 C1043 1.334 . S
C1044 C1045 1.287 . S
C1045 C1044 1.287 . S
C1045 C1046 1.524 . S
C1045 H1048 0.999 . S
C1046 H1016 0.950 . S
C1046 C1045 1.524 . S
C1046 C1047 1.415 . S
C1047 H1017 0.950 . S
C1047 C1042 1.363 . S
C1047 C1046 1.415 . S
H1048 C1045 0.999 . S
H1049 C1030 0.913 . S
H1050 C1068 0.951 . S
H1051 C1070 0.951 . S
H1052 C1072 0.950 . S
H1053 C1073 0.950 . S
H1054 C1075 0.950 . S
H1055 C1078 0.950 . S
H1056 C1079 0.950 . S
H1057 C1081 0.950 . S
H1058 C1082 0.950 . S
H1059 C1083 0.951 . S
H1060 C1085 0.951 . S
H1061 C1087 0.950 . S
H1062 C1088 0.950 . S
H1063 C1090 0.950 . S
H1064 C1093 0.950 . S
H1065 C1094 0.950 . S
H1066 C1096 0.950 . S
H1067 C1097 0.950 . S
C1068 H1050 0.951 . S
C1068 C1069 1.366 . S
C1068 C1070 1.388 . S
C1069 C1068 1.366 . S
C1069 C1073 1.385 . S
C1070 H1051 0.951 . S
C1070 C1068 1.388 . S
C1070 C1071 1.366 . S
C1071 C1070 1.366 . S
C1071 C1072 1.414 . S
C1071 C1074 1.499 . S
C1072 H1052 0.950 . S
C1072 C1071 1.414 . S
C1072 C1073 1.374 . S
C1073 H1053 0.950 . S
C1073 C1069 1.385 . S
C1073 C1072 1.374 . S
C1074 C1071 1.499 . S
C1074 C1075 1.373 . S
C1074 C1076 1.389 . S
C1075 H1054 0.950 . S
C1075 C1074 1.373 . S
C1075 C1091 1.377 . S
C1076 C1074 1.389 . S
C1076 C1077 1.524 . S
C1076 C1090 1.377 . S
C1077 C1076 1.524 . S
C1077 C1078 1.397 . S
C1077 C1082 1.363 . S
C1078 H1055 0.950 . S
C1078 C1077 1.397 . S
C1078 C1079 1.334 . S
C1079 H1056 0.950 . S
C1079 C1078 1.334 . S
C1079 C1080 1.287 . S
C1080 C1079 1.287 . S
C1080 C1081 1.524 . S
C1080 H1099 0.913 . S
C1081 H1057 0.950 . S
C1081 C1080 1.524 . S
C1081 C1082 1.415 . S
C1082 H1058 0.950 . S
C1082 C1077 1.363 . S
C1082 C1081 1.415 . S
C1083 H1059 0.951 . S
C1083 C1084 1.366 . S
C1083 C1085 1.388 . S
C1084 C1083 1.366 . S
C1084 C1088 1.385 . S
C1085 H1060 0.951 . S
C1085 C1083 1.388 . S
C1085 C1086 1.366 . S
C1086 C1085 1.366 . S
C1086 C1087 1.414 . S
C1086 C1089 1.499 . S
C1087 H1061 0.950 . S
C1087 C1086 1.414 . S
C1087 C1088 1.374 . S
C1088 H1062 0.950 . S
C1088 C1084 1.385 . S
C1088 C1087 1.374 . S
C1089 C1086 1.499 . S
C1089 C1090 1.373 . S
C1089 C1091 1.389 . S
C1090 H1063 0.950 . S
C1090 C1076 1.377 . S
C1090 C1089 1.373 . S
C1091 C1075 1.377 . S
C1091 C1089 1.389 . S
C1091 C1092 1.524 . S
C1092 C1091 1.524 . S
C1092 C1093 1.397 . S
C1092 C1097 1.363 . S
C1093 H1064 0.950 . S
C1093 C1092 1.397 . S
C1093 C1094 1.334 . S
C1094 H1065 0.950 . S
C1094 C1093 1.334 . S
C1094 C1095 1.287 . S
C1095 C1094 1.287 . S
C1095 C1096 1.524 . S
C1095 H1098 0.999 . S
C1096 H1066 0.950 . S
C1096 C1095 1.524 . S
C1096 C1097 1.415 . S
C1097 H1067 0.950 . S
C1097 C1092 1.363 . S
C1097 C1096 1.415 . S
H1098 C1095 0.999 . S
H1099 C1080 0.913 . S
H1100 C1118 0.951 . S
H1101 C1120 0.951 . S
H1102 C1122 0.950 . S
H1103 C1123 0.950 . S
H1104 C1125 0.950 . S
H1105 C1128 0.950 . S
H1106 C1129 0.950 . S
H1107 C1131 0.950 . S
H1108 C1132 0.950 . S
H1109 C1133 0.951 . S
H1110 C1135 0.951 . S
H1111 C1137 0.950 . S
H1112 C1138 0.950 . S
H1113 C1140 0.950 . S
H1114 C1143 0.950 . S
H1115 C1144 0.950 . S
H1116 C1146 0.950 . S
H1117 C1147 0.950 . S
C1118 H1100 0.951 . S
C1118 C1119 1.366 . S
C1118 C1120 1.388 . S
C1119 C1118 1.366 . S
C1119 C1123 1.385 . S
C1120 H1101 0.951 . S
C1120 C1118 1.388 . S
C1120 C1121 1.366 . S
C1121 C1120 1.366 . S
C1121 C1122 1.414 . S
C1121 C1124 1.499 . S
C1122 H1102 0.950 . S
C1122 C1121 1.414 . S
C1122 C1123 1.374 . S
C1123 H1103 0.950 . S
C1123 C1119 1.385 . S
C1123 C1122 1.374 . S
C1124 C1121 1.499 . S
C1124 C1125 1.373 . S
C1124 C1126 1.389 . S
C1125 H1104 0.950 . S
C1125 C1124 1.373 . S
C1125 C1141 1.377 . S
C1126 C1124 1.389 . S
C1126 C1127 1.524 . S
C1126 C1140 1.377 . S
C1127 C1126 1.524 . S
C1127 C1128 1.397 . S
C1127 C1132 1.363 . S
C1128 H1105 0.950 . S
C1128 C1127 1.397 . S
C1128 C1129 1.334 . S
C1129 H1106 0.950 . S
C1129 C1128 1.334 . S
C1129 C1130 1.287 . S
C1130 C1129 1.287 . S
C1130 C1131 1.524 . S
C1130 H1149 0.913 . S
C1131 H1107 0.950 . S
C1131 C1130 1.524 . S
C1131 C1132 1.415 . S
C1132 H1108 0.950 . S
C1132 C1127 1.363 . S
C1132 C1131 1.415 . S
C1133 H1109 0.951 . S
C1133 C1134 1.366 . S
C1133 C1135 1.388 . S
C1134 C1133 1.366 . S
C1134 C1138 1.385 . S
C1135 H1110 0.951 . S
C1135 C1133 1.388 . S
C1135 C1136 1.366 . S
C1136 C1135 1.366 . S
C1136 C1137 1.414 . S
C1136 C1139 1.499 . S
C1137 H1111 0.950 . S
C1137 C1136 1.414 . S
C1137 C1138 1.374 . S
C1138 H1112 0.950 . S
C1138 C1134 1.385 . S
C1138 C1137 1.374 . S
C1139 C1136 1.499 . S
C1139 C1140 1.373 . S
C1139 C1141 1.389 . S
C1140 H1113 0.950 . S
C1140 C1126 1.377 . S
C1140 C1139 1.373 . S
C1141 C1125 1.377 . S
C1141 C1139 1.389 . S
C1141 C1142 1.524 . S
C1142 C1141 1.524 . S
C1142 C1143 1.397 . S
C1142 C1147 1.363 . S
C1143 H1114 0.950 . S
C1143 C1142 1.397 . S
C1143 C1144 1.334 . S
C1144 H1115 0.950 . S
C1144 C1143 1.334 . S
C1144 C1145 1.287 . S
C1145 C1144 1.287 . S
C1145 C1146 1.524 . S
C1145 H1148 0.999 . S
C1146 H1116 0.950 . S
C1146 C1145 1.524 . S
C1146 C1147 1.415 . S
C1147 H1117 0.950 . S
C1147 C1142 1.363 . S
C1147 C1146 1.415 . S
H1148 C1145 0.999 . S
H1149 C1130 0.913 . S
H1150 C1168 0.951 . S
H1151 C1170 0.951 . S
H1152 C1172 0.950 . S
H1153 C1173 0.950 . S
H1154 C1175 0.950 . S
H1155 C1178 0.950 . S
H1156 C1179 0.950 . S
H1157 C1181 0.950 . S
H1158 C1182 0.950 . S
H1159 C1183 0.951 . S
H1160 C1185 0.951 . S
H1161 C1187 0.950 . S
H1162 C1188 0.950 . S
H1163 C1190 0.950 . S
H1164 C1193 0.950 . S
H1165 C1194 0.950 . S
H1166 C1196 0.950 . S
H1167 C1197 0.950 . S
C1168 H1150 0.951 . S
C1168 C1169 1.366 . S
C1168 C1170 1.388 . S
C1169 C1168 1.366 . S
C1169 C1173 1.385 . S
C1170 H1151 0.951 . S
C1170 C1168 1.388 . S
C1170 C1171 1.366 . S
C1171 C1170 1.366 . S
C1171 C1172 1.414 . S
C1171 C1174 1.499 . S
C1172 H1152 0.950 . S
C1172 C1171 1.414 . S
C1172 C1173 1.374 . S
C1173 H1153 0.950 . S
C1173 C1169 1.385 . S
C1173 C1172 1.374 . S
C1174 C1171 1.499 . S
C1174 C1175 1.373 . S
C1174 C1176 1.389 . S
C1175 H1154 0.950 . S
C1175 C1174 1.373 . S
C1175 C1191 1.377 . S
C1176 C1174 1.389 . S
C1176 C1177 1.524 . S
C1176 C1190 1.377 . S
C1177 C1176 1.524 . S
C1177 C1178 1.397 . S
C1177 C1182 1.363 . S
C1178 H1155 0.950 . S
C1178 C1177 1.397 . S
C1178 C1179 1.334 . S
C1179 H1156 0.950 . S
C1179 C1178 1.334 . S
C1179 C1180 1.287 . S
C1180 C1179 1.287 . S
C1180 C1181 1.524 . S
C1180 H1199 0.913 . S
C1181 H1157 0.950 . S
C1181 C1180 1.524 . S
C1181 C1182 1.415 . S
C1182 H1158 0.950 . S
C1182 C1177 1.363 . S
C1182 C1181 1.415 . S
C1183 H1159 0.951 . S
C1183 C1184 1.366 . S
C1183 C1185 1.388 . S
C1184 C1183 1.366 . S
C1184 C1188 1.385 . S
C1185 H1160 0.951 . S
C1185 C1183 1.388 . S
C1185 C1186 1.366 . S
C1186 C1185 1.366 . S
C1186 C1187 1.414 . S
C1186 C1189 1.499 . S
C1187 H1161 0.950 . S
C1187 C1186 1.414 . S
C1187 C1188 1.374 . S
C1188 H1162 0.950 . S
C1188 C1184 1.385 . S
C1188 C1187 1.374 . S
C1189 C1186 1.499 . S
C1189 C1190 1.373 . S
C1189 C1191 1.389 . S
C1190 H1163 0.950 . S
C1190 C1176 1.377 . S
C1190 C1189 1.373 . S
C1191 C1175 1.377 . S
C1191 C1189 1.389 . S
C1191 C1192 1.524 . S
C1192 C1191 1.524 . S
C1192 C1193 1.397 . S
C1192 C1197 1.363 . S
C1193 H1164 0.950 . S
C1193 C1192 1.397 . S
C1193 C1194 1.334 . S
C1194 H1165 0.950 . S
C1194 C1193 1.334 . S
C1194 C1195 1.287 . S
C1195 C1194 1.287 . S
C1195 C1196 1.524 . S
C1195 H1198 0.999 . S
C1196 H1166 0.950 . S
C1196 C1195 1.524 . S
C1196 C1197 1.415 . S
C1197 H1167 0.950 . S
C1197 C1192 1.363 . S
C1197 C1196 1.415 . S
H1198 C1195 0.999 . S
H1199 C1180 0.913 . S
H1200 C1218 0.951 . S
H1201 C1220 0.951 . S
H1202 C1222 0.950 . S
H1203 C1223 0.950 . S
H1204 C1225 0.950 . S
H1205 C1228 0.950 . S
H1206 C1229 0.950 . S
H1207 C1231 0.950 . S
H1208 C1232 0.950 . S
H1209 C1233 0.951 . S
H1210 C1235 0.951 . S
H1211 C1237 0.950 . S
H1212 C1238 0.950 . S
H1213 C1240 0.950 . S
H1214 C1243 0.950 . S
H1215 C1244 0.950 . S
H1216 C1246 0.950 . S
H1217 C1247 0.950 . S
C1218 H1200 0.951 . S
C1218 C1219 1.366 . S
C1218 C1220 1.388 . S
C1219 C1218 1.366 . S
C1219 C1223 1.385 . S
C1220 H1201 0.951 . S
C1220 C1218 1.388 . S
C1220 C1221 1.366 . S
C1221 C1220 1.366 . S
C1221 C1222 1.414 . S
C1221 C1224 1.499 . S
C1222 H1202 0.950 . S
C1222 C1221 1.414 . S
C1222 C1223 1.374 . S
C1223 H1203 0.950 . S
C1223 C1219 1.385 . S
C1223 C1222 1.374 . S
C1224 C1221 1.499 . S
C1224 C1225 1.373 . S
C1224 C1226 1.389 . S
C1225 H1204 0.950 . S
C1225 C1224 1.373 . S
C1225 C1241 1.377 . S
C1226 C1224 1.389 . S
C1226 C1227 1.524 . S
C1226 C1240 1.377 . S
C1227 C1226 1.524 . S
C1227 C1228 1.397 . S
C1227 C1232 1.363 . S
C1228 H1205 0.950 . S
C1228 C1227 1.397 . S
C1228 C1229 1.334 . S
C1229 H1206 0.950 . S
C1229 C1228 1.334 . S
C1229 C1230 1.287 . S
C1230 C1229 1.287 . S
C1230 C1231 1.524 . S
C1230 H1249 0.913 . S
C1231 H1207 0.950 . S
C1231 C1230 1.524 . S
C1231 C1232 1.415 . S
C1232 H1208 0.950 . S
C1232 C1227 1.363 . S
C1232 C1231 1.415 . S
C1233 H1209 0.951 . S
C1233 C1234 1.366 . S
C1233 C1235 1.388 . S
C1234 C1233 1.366 . S
C1234 C1238 1.385 . S
C1235 H1210 0.951 . S
C1235 C1233 1.388 . S
C1235 C1236 1.366 . S
C1236 C1235 1.366 . S
C1236 C1237 1.414 . S
C1236 C1239 1.499 . S
C1237 H1211 0.950 . S
C1237 C1236 1.414 . S
C1237 C1238 1.374 . S
C1238 H1212 0.950 . S
C1238 C1234 1.385 . S
C1238 C1237 1.374 . S
C1239 C1236 1.499 . S
C1239 C1240 1.373 . S
C1239 C1241 1.389 . S
C1240 H1213 0.950 . S
C1240 C1226 1.377 . S
C1240 C1239 1.373 . S
C1241 C1225 1.377 . S
C1241 C1239 1.389 . S
C1241 C1242 1.524 . S
C1242 C1241 1.524 . S
C1242 C1243 1.397 . S
C1242 C1247 1.363 . S
C1243 H1214 0.950 . S
C1243 C1242 1.397 . S
C1243 C1244 1.334 . S
C1244 H1215 0.950 . S
C1244 C1243 1.334 . S
C1244 C1245 1.287 . S
C1245 C1244 1.287 . S
C1245 C1246 1.524 . S
C1245 H1248 0.999 . S
C1246 H1216 0.950 . S
C1246 C1245 1.524 . S
C1246 C1247 1.415 . S
C1247 H1217 0.950 . S
C1247 C1242 1.363 . S
C1247 C1246 1.415 . S
H1248 C1245 0.999 . S
H1249 C1230 0.913 . S
H1250 C1268 0.951 . S
H1251 C1270 0.951 . S
H1252 C1272 0.950 . S
H1253 C1273 0.950 . S
H1254 C1275 0.950 . S
H1255 C1278 0.950 . S
H1256 C1279 0.950 . S
H1257 C1281 0.950 . S
H1258 C1282 0.950 . S
H1259 C1283 0.951 . S
H1260 C1285 0.951 . S
H1261 C1287 0.950 . S
H1262 C1288 0.950 . S
H1263 C1290 0.950 . S
H1264 C1293 0.950 . S
H1265 C1294 0.950 . S
H1266 C1296 0.950 . S
H1267 C1297 0.950 . S
C1268 H1250 0.951 . S
C1268 C1269 1.366 . S
C1268 C1270 1.388 . S
C1269 C1268 1.366 . S
C1269 C1273 1.385 . S
C1270 H1251 0.951 . S
C1270 C1268 1.388 . S
C1270 C1271 1.366 . S
C1271 C1270 1.366 . S
C1271 C1272 1.414 . S
C1271 C1274 1.499 . S
C1272 H1252 0.950 . S
C1272 C1271 1.414 . S
C1272 C1273 1.374 . S
C1273 H1253 0.950 . S
C1273 C1269 1.385 . S
C1273 C1272 1.374 . S
C1274 C1271 1.499 . S
C1274 C1275 1.373 . S
C1274 C1276 1.389 . S
C1275 H1254 0.950 . S
C1275 C1274 1.373 . S
C1275 C1291 1.377 . S
C1276 C1274 1.389 . S
C1276 C1277 1.524 . S
C1276 C1290 1.377 . S
C1277 C1276 1.524 . S
C1277 C1278 1.397 . S
C1277 C1282 1.363 . S
C1278 H1255 0.950 . S
C1278 C1277 1.397 . S
C1278 C1279 1.334 . S
C1279 H1256 0.950 . S
C1279 C1278 1.334 . S
C1279 C1280 1.287 . S
C1280 C1279 1.287 . S
C1280 C1281 1.524 . S
C1280 H1299 0.913 . S
C1281 H1257 0.950 . S
C1281 C1280 1.524 . S
C1281 C1282 1.415 . S
C1282 H1258 0.950 . S
C1282 C1277 1.363 . S
C1282 C1281 1.415 . S
C1283 H1259 0.951 . S
C1283 C1284 1.366 . S
C1283 C1285 1.388 . S
C1284 C1283 1.366 . S
C1284 C1288 1.385 . S
C1285 H1260 0.951 . S
C1285 C1283 1.388 . S
C1285 C1286 1.366 . S
C1286 C1285 1.366 . S
C1286 C1287 1.414 . S
C1286 C1289 1.499 . S
C1287 H1261 0.950 . S
C1287 C1286 1.414 . S
C1287 C1288 1.374 . S
C1288 H1262 0.950 . S
C1288 C1284 1.385 . S
C1288 C1287 1.374 . S
C1289 C1286 1.499 . S
C1289 C1290 1.373 . S
C1289 C1291 1.389 . S
C1290 H1263 0.950 . S
C1290 C1276 1.377 . S
C1290 C1289 1.373 . S
C1291 C1275 1.377 . S
C1291 C1289 1.389 . S
C1291 C1292 1.524 . S
C1292 C1291 1.524 . S
C1292 C1293 1.397 . S
C1292 C1297 1.363 . S
C1293 H1264 0.950 . S
C1293 C1292 1.397 . S
C1293 C1294 1.334 . S
C1294 H1265 0.950 . S
C1294 C1293 1.334 . S
C1294 C1295 1.287 . S
C1295 C1294 1.287 . S
C1295 C1296 1.524 . S
C1295 H1298 0.999 . S
C1296 H1266 0.950 . S
C1296 C1295 1.524 . S
C1296 C1297 1.415 . S
C1297 H1267 0.950 . S
C1297 C1292 1.363 . S
C1297 C1296 1.415 . S
H1298 C1295 0.999 . S
H1299 C1280 0.913 . S
H1300 C1318 0.951 . S
H1301 C1320 0.951 . S
H1302 C1322 0.950 . S
H1303 C1323 0.950 . S
H1304 C1325 0.950 . S
H1305 C1328 0.950 . S
H1306 C1329 0.950 . S
H1307 C1331 0.950 . S
H1308 C1332 0.950 . S
H1309 C1333 0.951 . S
H1310 C1335 0.951 . S
H1311 C1337 0.950 . S
H1312 C1338 0.950 . S
H1313 C1340 0.950 . S
H1314 C1343 0.950 . S
H1315 C1344 0.950 . S
H1316 C1346 0.950 . S
H1317 C1347 0.950 . S
C1318 H1300 0.951 . S
C1318 C1319 1.366 . S
C1318 C1320 1.388 . S
C1319 C1318 1.366 . S
C1319 C1323 1.385 . S
C1320 H1301 0.951 . S
C1320 C1318 1.388 . S
C1320 C1321 1.366 . S
C1321 C1320 1.366 . S
C1321 C1322 1.414 . S
C1321 C1324 1.499 . S
C1322 H1302 0.950 . S
C1322 C1321 1.414 . S
C1322 C1323 1.374 . S
C1323 H1303 0.950 . S
C1323 C1319 1.385 . S
C1323 C1322 1.374 . S
C1324 C1321 1.499 . S
C1324 C1325 1.373 . S
C1324 C1326 1.389 . S
C1325 H1304 0.950 . S
C1325 C1324 1.373 . S
C1325 C1341 1.377 . S
C1326 C1324 1.389 . S
C1326 C1327 1.524 . S
C1326 C1340 1.377 . S
C1327 C1326 1.524 . S
C1327 C1328 1.397 . S
C1327 C1332 1.363 . S
C1328 H1305 0.950 . S
C1328 C1327 1.397 . S
C1328 C1329 1.334 . S
C1329 H1306 0.950 . S
C1329 C1328 1.334 . S
C1329 C1330 1.287 . S
C1330 C1329 1.287 . S
C1330 C1331 1.524 . S
C1330 H1349 0.913 . S
C1331 H1307 0.950 . S
C1331 C1330 1.524 . S
C1331 C1332 1.415 . S
C1332 H1308 0.950 . S
C1332 C1327 1.363 . S
C1332 C1331 1.415 . S
C1333 H1309 0.951 . S
C1333 C1334 1.366 . S
C1333 C1335 1.388 . S
C1334 C1333 1.366 . S
C1334 C1338 1.385 . S
C1335 H1310 0.951 . S
C1335 C1333 1.388 . S
C1335 C1336 1.366 . S
C1336 C1335 1.366 . S
C1336 C1337 1.414 . S
C1336 C1339 1.499 . S
C1337 H1311 0.950 . S
C1337 C1336 1.414 . S
C1337 C1338 1.374 . S
C1338 H1312 0.950 . S
C1338 C1334 1.385 . S
C1338 C1337 1.374 . S
C1339 C1336 1.499 . S
C1339 C1340 1.373 . S
C1339 C1341 1.389 . S
C1340 H1313 0.950 . S
C1340 C1326 1.377 . S
C1340 C1339 1.373 . S
C1341 C1325 1.377 . S
C1341 C1339 1.389 . S
C1341 C1342 1.524 . S
C1342 C1341 1.524 . S
C1342 C1343 1.397 . S
C1342 C1347 1.363 . S
C1343 H1314 0.950 . S
C1343 C1342 1.397 . S
C1343 C1344 1.334 . S
C1344 H1315 0.950 . S
C1344 C1343 1.334 . S
C1344 C1345 1.287 . S
C1345 C1344 1.287 . S
C1345 C1346 1.524 . S
C1345 H1348 0.999 . S
C1346 H1316 0.950 . S
C1346 C1345 1.524 . S
C1346 C1347 1.415 . S
C1347 H1317 0.950 . S
C1347 C1342 1.363 . S
C1347 C1346 1.415 . S
H1348 C1345 0.999 . S
H1349 C1330 0.913 . S
H1350 C1368 0.951 . S
H1351 C1370 0.951 . S
H1352 C1372 0.950 . S
H1353 C1373 0.950 . S
H1354 C1375 0.950 . S
H1355 C1378 0.950 . S
H1356 C1379 0.950 . S
H1357 C1381 0.950 . S
H1358 C1382 0.950 . S
H1359 C1383 0.951 . S
H1360 C1385 0.951 . S
H1361 C1387 0.950 . S
H1362 C1388 0.950 . S
H1363 C1390 0.950 . S
H1364 C1393 0.950 . S
H1365 C1394 0.950 . S
H1366 C1396 0.950 . S
H1367 C1397 0.950 . S
C1368 H1350 0.951 . S
C1368 C1369 1.366 . S
C1368 C1370 1.388 . S
C1369 C1368 1.366 . S
C1369 C1373 1.385 . S
C1370 H1351 0.951 . S
C1370 C1368 1.388 . S
C1370 C1371 1.366 . S
C1371 C1370 1.366 . S
C1371 C1372 1.414 . S
C1371 C1374 1.499 . S
C1372 H1352 0.950 . S
C1372 C1371 1.414 . S
C1372 C1373 1.374 . S
C1373 H1353 0.950 . S
C1373 C1369 1.385 . S
C1373 C1372 1.374 . S
C1374 C1371 1.499 . S
C1374 C1375 1.373 . S
C1374 C1376 1.389 . S
C1375 H1354 0.950 . S
C1375 C1374 1.373 . S
C1375 C1391 1.377 . S
C1376 C1374 1.389 . S
C1376 C1377 1.524 . S
C1376 C1390 1.377 . S
C1377 C1376 1.524 . S
C1377 C1378 1.397 . S
C1377 C1382 1.363 . S
C1378 H1355 0.950 . S
C1378 C1377 1.397 . S
C1378 C1379 1.334 . S
C1379 H1356 0.950 . S
C1379 C1378 1.334 . S
C1379 C1380 1.287 . S
C1380 C1379 1.287 . S
C1380 C1381 1.524 . S
C1380 H1399 0.913 . S
C1381 H1357 0.950 . S
C1381 C1380 1.524 . S
C1381 C1382 1.415 . S
C1382 H1358 0.950 . S
C1382 C1377 1.363 . S
C1382 C1381 1.415 . S
C1383 H1359 0.951 . S
C1383 C1384 1.366 . S
C1383 C1385 1.388 . S
C1384 C1383 1.366 . S
C1384 C1388 1.385 . S
C1385 H1360 0.951 . S
C1385 C1383 1.388 . S
C1385 C1386 1.366 . S
C1386 C1385 1.366 . S
C1386 C1387 1.414 . S
C1386 C1389 1.499 . S
C1387 H1361 0.950 . S
C1387 C1386 1.414 . S
C1387 C1388 1.374 . S
C1388 H1362 0.950 . S
C1388 C1384 1.385 . S
C1388 C1387 1.374 . S
C1389 C1386 1.499 . S
C1389 C1390 1.373 . S
C1389 C1391 1.389 . S
C1390 H1363 0.950 . S
C1390 C1376 1.377 . S
C1390 C1389 1.373 . S
C1391 C1375 1.377 . S
C1391 C1389 1.389 . S
C1391 C1392 1.524 . S
C1392 C1391 1.524 . S
C1392 C1393 1.397 . S
C1392 C1397 1.363 . S
C1393 H1364 0.950 . S
C1393 C1392 1.397 . S
C1393 C1394 1.334 . S
C1394 H1365 0.950 . S
C1394 C1393 1.334 . S
C1394 C1395 1.287 . S
C1395 C1394 1.287 . S
C1395 C1396 1.524 . S
C1395 H1398 0.999 . S
C1396 H1366 0.950 . S
C1396 C1395 1.524 . S
C1396 C1397 1.415 . S
C1397 H1367 0.950 . S
C1397 C1392 1.363 . S
C1397 C1396 1.415 . S
H1398 C1395 0.999 . S
H1399 C1380 0.913 . S
C219 C5 1.024 . S
C234 N59 1.153 . S
C269 C45 1.585 1_545 S
C284 C123 1.537 . S
C319 N14 1.468 . S
C334 C93 1.555 1_455 S
C369 C132 1.192 . S
C384 C13 1.114 . S
C419 N9 1.157 . S
C434 C55 1.026 . S
C469 C23 1.537 . S
C484 C145 1.585 1_545 S
C519 N64 1.470 . S
C534 C43 1.552 1_455 S
C569 C113 1.118 . S
C584 C32 1.196 . S
C619 C190 0.751 . S
C634 N25 0.748 . S
C669 C192 1.825 . S
C684 C11 1.848 . S
C719 C161 1.848 . S
C734 C42 1.824 . S
C769 C40 0.753 . S
C784 N175 0.756 . S
C819 C173 1.537 . S
C834 C95 1.589 . S
C869 C63 1.118 . S
C884 C182 1.193 . S
C919 C73 1.537 . S
C934 C195 1.580 . S
C969 C163 1.119 . S
C984 C82 1.193 . S
C1019 C140 0.751 . S
C1034 N75 0.751 . S
C1069 C61 1.847 . S
C1084 C142 1.818 . S
C1119 C92 1.823 . S
C1134 C111 1.852 . S
C1169 N125 0.751 . S
C1184 C90 0.752 . S
C1219 N159 1.158 . S
C1234 C105 1.025 . S
C1269 N114 1.469 . S
C1284 C193 1.558 . S
C1319 C155 1.023 . S
C1334 N109 1.159 . S
C1369 C143 1.554 . S
C1384 N164 1.464 . S
