# Generated by pormake.
# Topology ske, (6)-cn, num edge types: 1
# Building blocks:
#     Node 0, Type 0, BuildingBlock: VOLQOD_clean_sbu_1, # of connection points: 6
#     Node 1, Type 0, BuildingBlock: VOLQOD_clean_sbu_1, # of connection points: 6
#     Node 2, Type 0, BuildingBlock: VOLQOD_clean_sbu_1, # of connection points: 6
#     Node 3, Type 0, BuildingBlock: VOLQOD_clean_sbu_1, # of connection points: 6
#     Node 4, Type 0, BuildingBlock: VOLQOD_clean_sbu_1, # of connection points: 6
#     Node 5, Type 0, BuildingBlock: VOLQOD_clean_sbu_1, # of connection points: 6
#     Node 6, Type 0, BuildingBlock: VOLQOD_clean_sbu_1, # of connection points: 6
#     Node 7, Type 0, BuildingBlock: VOLQOD_clean_sbu_1, # of connection points: 6
#     Edge 8, Type (0, 0), BuildingBlock: AJUNOK_clean_linker_0, # of connection points: 2
#     Edge 9, Type (0, 0), BuildingBlock: AJUNOK_clean_linker_0, # of connection points: 2
#     Edge 10, Type (0, 0), BuildingBlock: AJUNOK_clean_linker_0, # of connection points: 2
#     Edge 11, Type (0, 0), BuildingBlock: AJUNOK_clean_linker_0, # of connection points: 2
#     Edge 12, Type (0, 0), BuildingBlock: AJUNOK_clean_linker_0, # of connection points: 2
#     Edge 13, Type (0, 0), BuildingBlock: AJUNOK_clean_linker_0, # of connection points: 2
#     Edge 14, Type (0, 0), BuildingBlock: AJUNOK_clean_linker_0, # of connection points: 2
#     Edge 15, Type (0, 0), BuildingBlock: AJUNOK_clean_linker_0, # of connection points: 2
#     Edge 16, Type (0, 0), BuildingBlock: AJUNOK_clean_linker_0, # of connection points: 2
#     Edge 17, Type (0, 0), BuildingBlock: AJUNOK_clean_linker_0, # of connection points: 2
#     Edge 18, Type (0, 0), BuildingBlock: AJUNOK_clean_linker_0, # of connection points: 2
#     Edge 19, Type (0, 0), BuildingBlock: AJUNOK_clean_linker_0, # of connection points: 2
#     Edge 20, Type (0, 0), BuildingBlock: AJUNOK_clean_linker_0, # of connection points: 2
#     Edge 21, Type (0, 0), BuildingBlock: AJUNOK_clean_linker_0, # of connection points: 2
#     Edge 22, Type (0, 0), BuildingBlock: AJUNOK_clean_linker_0, # of connection points: 2
#     Edge 23, Type (0, 0), BuildingBlock: AJUNOK_clean_linker_0, # of connection points: 2
#     Edge 24, Type (0, 0), BuildingBlock: AJUNOK_clean_linker_0, # of connection points: 2
#     Edge 25, Type (0, 0), BuildingBlock: AJUNOK_clean_linker_0, # of connection points: 2
#     Edge 26, Type (0, 0), BuildingBlock: AJUNOK_clean_linker_0, # of connection points: 2
#     Edge 27, Type (0, 0), BuildingBlock: AJUNOK_clean_linker_0, # of connection points: 2
#     Edge 28, Type (0, 0), BuildingBlock: AJUNOK_clean_linker_0, # of connection points: 2
#     Edge 29, Type (0, 0), BuildingBlock: AJUNOK_clean_linker_0, # of connection points: 2
#     Edge 30, Type (0, 0), BuildingBlock: AJUNOK_clean_linker_0, # of connection points: 2
#     Edge 31, Type (0, 0), BuildingBlock: AJUNOK_clean_linker_0, # of connection points: 2
# Relax obj value: 0.031
# Max RMSD: 0.058
# Mean RMSD: 0.058
data_MOF--net-ske--node1-VOLQOD_clean_sbu_1--edge1-AJUNOK_clean_linker_0
_symmetry_space_group_name_H-M    P1
_symmetry_Int_Tables_number       1
_symmetry_cell_setting            triclinic
loop_
_symmetry_equiv_pos_as_xyz
'x, y, z'
_cell_length_a     50.852589
_cell_length_b     25.528158
_cell_length_c     13.050401
_cell_angle_alpha  90.040124
_cell_angle_beta   89.999571
_cell_angle_gamma 89.969476
loop_
_atom_site_label
_atom_site_type_symbol
_atom_site_fract_x
_atom_site_fract_y
_atom_site_fract_z
_atom_type_partial_charge
O0 O 0.11013 0.28669 0.83108 0.0
Zn1 Zn 0.10091 0.29462 0.6817 0.0
O2 O 0.12082 0.24437 0.60317 0.0
Zn3 Zn 0.14826 0.2783 0.5244 0.0
Zn4 Zn 0.13554 0.19151 0.69158 0.0
Zn5 Zn 0.09764 0.21118 0.50852 0.0
O6 O 0.14559 0.25733 0.37371 0.0
O7 O 0.10253 0.24152 0.36971 0.0
O8 O 0.1078 0.36769 0.62881 0.0
O9 O 0.14195 0.3558 0.52469 0.0
O10 O 0.18404 0.26494 0.58897 0.0
O11 O 0.17429 0.20055 0.69718 0.0
O12 O 0.12848 0.1179 0.63934 0.0
O13 O 0.06209 0.2809 0.66866 0.0
O14 O 0.10641 0.13551 0.49657 0.0
O15 O 0.06003 0.21783 0.55162 0.0
C16 C 0.11774 0.24675 0.88187 0.0
C17 C 0.12407 0.25166 0.32434 0.0
C18 C 0.19082 0.23158 0.65677 0.0
C19 C 0.12493 0.38547 0.56657 0.0
C20 C 0.11804 0.10323 0.55516 0.0
C21 C 0.04894 0.2484 0.61531 0.0
O22 O 0.12493 0.20446 0.83778 0.0
O23 O 0.87224 0.20667 0.8267 0.0
Zn24 Zn 0.88277 0.1978 0.67777 0.0
O25 O 0.86374 0.24832 0.59568 0.0
Zn26 Zn 0.83662 0.21447 0.51425 0.0
Zn27 Zn 0.84803 0.29861 0.68609 0.0
Zn28 Zn 0.88768 0.28558 0.50956 0.0
O29 O 0.84074 0.2343 0.36392 0.0
O30 O 0.88159 0.26614 0.36448 0.0
O31 O 0.87572 0.12465 0.62569 0.0
O32 O 0.84264 0.1369 0.51663 0.0
O33 O 0.80018 0.22748 0.57594 0.0
O34 O 0.81064 0.28006 0.70567 0.0
O35 O 0.85016 0.37268 0.63103 0.0
O36 O 0.92205 0.21027 0.6678 0.0
O37 O 0.8815 0.36228 0.51442 0.0
O38 O 0.92481 0.27317 0.55041 0.0
C39 C 0.86792 0.24955 0.87426 0.0
C40 C 0.86121 0.25056 0.31684 0.0
C41 C 0.79401 0.25237 0.65744 0.0
C42 C 0.85902 0.10701 0.56155 0.0
C43 C 0.86542 0.39118 0.56274 0.0
C44 C 0.9355 0.24226 0.61433 0.0
O45 O 0.86324 0.29212 0.82667 0.0
O46 O 0.10887 0.69859 0.16688 0.0
Zn47 Zn 0.09999 0.69235 0.31753 0.0
O48 O 0.12064 0.74257 0.39372 0.0
Zn49 Zn 0.14809 0.70931 0.47396 0.0
Zn50 Zn 0.13546 0.7934 0.3019 0.0
Zn51 Zn 0.09806 0.77793 0.48737 0.0
O52 O 0.14486 0.72929 0.62483 0.0
O53 O 0.1021 0.74795 0.62695 0.0
O54 O 0.10682 0.61969 0.37284 0.0
O55 O 0.14188 0.63166 0.47255 0.0
O56 O 0.18421 0.7232 0.41182 0.0
O57 O 0.17378 0.78012 0.28946 0.0
O58 O 0.12977 0.86787 0.35244 0.0
O59 O 0.06121 0.70792 0.33129 0.0
O60 O 0.10753 0.85335 0.49615 0.0
O61 O 0.06061 0.77344 0.44342 0.0
C62 C 0.11614 0.7385 0.11523 0.0
C63 C 0.12327 0.73595 0.67318 0.0
C64 C 0.19056 0.7517 0.33537 0.0
C65 C 0.12445 0.60201 0.43315 0.0
C66 C 0.11926 0.88435 0.43526 0.0
C67 C 0.04885 0.74281 0.38184 0.0
O68 O 0.12327 0.781 0.15836 0.0
O69 O 0.87433 0.79127 0.16649 0.0
Zn70 Zn 0.88328 0.79981 0.31625 0.0
O71 O 0.86345 0.74925 0.39477 0.0
Zn72 Zn 0.83612 0.78221 0.47657 0.0
Zn73 Zn 0.84774 0.69847 0.30483 0.0
Zn74 Zn 0.88714 0.71431 0.48541 0.0
O75 O 0.83956 0.76095 0.62628 0.0
O76 O 0.88222 0.74092 0.62745 0.0
O77 O 0.87579 0.87253 0.36933 0.0
O78 O 0.8423 0.85983 0.47651 0.0
O79 O 0.79978 0.76956 0.41537 0.0
O80 O 0.80981 0.71398 0.29028 0.0
O81 O 0.85178 0.6245 0.35981 0.0
O82 O 0.92235 0.78748 0.32928 0.0
O83 O 0.87969 0.63803 0.48836 0.0
O84 O 0.92447 0.72306 0.44317 0.0
C85 C 0.86749 0.75052 0.11636 0.0
C86 C 0.86108 0.75272 0.67416 0.0
C87 C 0.79325 0.74235 0.33734 0.0
C88 C 0.85888 0.88984 0.43308 0.0
C89 C 0.86532 0.60772 0.43525 0.0
C90 C 0.93553 0.75454 0.38143 0.0
O91 O 0.86051 0.70833 0.16106 0.0
O92 O 0.60898 0.79082 0.32087 0.0
Zn93 Zn 0.59927 0.79742 0.17188 0.0
O94 O 0.62009 0.7487 0.09271 0.0
Zn95 Zn 0.6472 0.7827 0.0125 0.0
Zn96 Zn 0.63509 0.6979 0.18373 0.0
Zn97 Zn 0.59821 0.71385 -0.00344 0.0
O98 O 0.64565 0.76054 0.86246 0.0
O99 O 0.60272 0.74428 0.85814 0.0
O100 O 0.60582 0.87124 0.11985 0.0
O101 O 0.63871 0.85936 0.009 0.0
O102 O 0.68312 0.7724 0.07962 0.0
O103 O 0.67299 0.71329 0.1985 0.0
O104 O 0.63057 0.62405 0.13031 0.0
O105 O 0.56047 0.77899 0.16049 0.0
O106 O 0.60792 0.63829 0.98734 0.0
O107 O 0.56069 0.71924 0.03661 0.0
C108 C 0.61601 0.75053 0.37174 0.0
C109 C 0.62418 0.75488 0.81294 0.0
C110 C 0.68942 0.7437 0.15591 0.0
C111 C 0.6221 0.88888 0.05385 0.0
C112 C 0.62014 0.60756 0.04747 0.0
C113 C 0.54847 0.74642 0.10295 0.0
O114 O 0.62255 0.70791 0.32764 0.0
O115 O 0.36983 0.70508 0.32271 0.0
Zn116 Zn 0.38152 0.6946 0.17616 0.0
O117 O 0.36371 0.74469 0.0892 0.0
Zn118 Zn 0.33635 0.71172 0.00831 0.0
Zn119 Zn 0.34875 0.7969 0.17692 0.0
Zn120 Zn 0.38823 0.77823 0.00039 0.0
O121 O 0.33867 0.73374 0.85901 0.0
O122 O 0.38003 0.76241 0.85563 0.0
O123 O 0.37366 0.62091 0.12639 0.0
O124 O 0.34361 0.6348 0.00512 0.0
O125 O 0.30041 0.72358 0.07499 0.0
O126 O 0.31104 0.78107 0.19642 0.0
O127 O 0.35303 0.86971 0.11968 0.0
O128 O 0.42115 0.7064 0.16998 0.0
O129 O 0.38566 0.85582 0.00984 0.0
O130 O 0.42482 0.75773 0.03288 0.0
C131 C 0.36625 0.7487 0.36836 0.0
C132 C 0.35894 0.74938 0.81005 0.0
C133 C 0.29439 0.75146 0.15291 0.0
C134 C 0.35852 0.60418 0.05556 0.0
C135 C 0.36992 0.88652 0.05568 0.0
C136 C 0.43509 0.73123 0.10488 0.0
O137 O 0.36325 0.79123 0.31874 0.0
O138 O 0.61113 0.20394 0.65771 0.0
Zn139 Zn 0.60062 0.19627 0.8065 0.0
O140 O 0.61953 0.24716 0.88774 0.0
Zn141 Zn 0.64595 0.21415 0.97197 0.0
Zn142 Zn 0.63476 0.29757 0.7964 0.0
Zn143 Zn 0.59616 0.28397 0.97547 0.0
O144 O 0.64201 0.23627 0.12073 0.0
O145 O 0.59973 0.25914 0.11836 0.0
O146 O 0.60751 0.12284 0.85938 0.0
O147 O 0.63852 0.13722 0.97661 0.0
O148 O 0.68233 0.22589 0.90933 0.0
O149 O 0.67257 0.27979 0.78061 0.0
O150 O 0.63173 0.37216 0.84946 0.0
O151 O 0.5615 0.21141 0.81505 0.0
O152 O 0.60547 0.35911 0.98266 0.0
O153 O 0.55935 0.27752 0.9262 0.0
C154 C 0.61515 0.24657 0.60921 0.0
C155 C 0.6206 0.24753 0.16702 0.0
C156 C 0.68899 0.25177 0.82957 0.0
C157 C 0.62292 0.10654 0.92959 0.0
C158 C 0.61966 0.38908 0.92842 0.0
C159 C 0.54846 0.24635 0.86315 0.0
O160 O 0.61985 0.2895 0.65558 0.0
O161 O 0.37073 0.28709 0.66084 0.0
Zn162 Zn 0.38163 0.29731 0.80842 0.0
O163 O 0.36418 0.24533 0.89288 0.0
Zn164 Zn 0.33714 0.27807 0.97513 0.0
Zn165 Zn 0.3491 0.19239 0.80622 0.0
Zn166 Zn 0.38905 0.21146 0.98048 0.0
O167 O 0.34072 0.25614 0.12369 0.0
O168 O 0.38285 0.2317 0.12523 0.0
O169 O 0.3736 0.37073 0.85951 0.0
O170 O 0.34373 0.35494 0.98016 0.0
O171 O 0.30094 0.26524 0.91192 0.0
O172 O 0.31066 0.2031 0.79835 0.0
O173 O 0.35512 0.11914 0.85878 0.0
O174 O 0.42115 0.28665 0.81465 0.0
O175 O 0.38493 0.13423 0.9792 0.0
O176 O 0.42558 0.22616 0.9361 0.0
C177 C 0.36621 0.24412 0.61402 0.0
C178 C 0.36167 0.24351 0.17173 0.0
C179 C 0.29414 0.23315 0.8416 0.0
C180 C 0.35851 0.38636 0.93137 0.0
C181 C 0.37054 0.10295 0.92866 0.0
C182 C 0.43541 0.25639 0.86899 0.0
O183 O 0.36166 0.20162 0.66203 0.0
C184 C 0.23022 0.27908 0.72328 0.0
C185 C 0.21772 0.23154 0.69863 0.0
C186 C 0.25444 0.27956 0.77503 0.0
C187 C 0.26707 0.23252 0.80174 0.0
H188 H 0.22093 0.31607 0.70467 0.0
H189 H 0.26368 0.31686 0.79158 0.0
S190 S 0.24262 0.09794 0.75351 0.0
N191 N 0.21962 0.13649 0.70557 0.0
N192 N 0.26547 0.1374 0.79958 0.0
C193 C 0.25484 0.18487 0.77685 0.0
C194 C 0.23006 0.18438 0.72612 0.0
C195 C 0.71984 0.25072 0.6811 0.0
C196 C 0.71595 0.24799 0.78804 0.0
C197 C 0.74513 0.25001 0.63847 0.0
C198 C 0.76741 0.24784 0.70155 0.0
H199 H 0.70315 0.25366 0.62977 0.0
H200 H 0.74728 0.25301 0.55608 0.0
S201 S 0.76804 0.23736 0.98541 0.0
N202 N 0.73652 0.24026 0.95531 0.0
N203 N 0.78416 0.2403 0.8757 0.0
C204 C 0.76383 0.2439 0.80837 0.0
C205 C 0.73807 0.24354 0.85155 0.0
C206 C 0.24542 0.75018 0.13886 0.0
C207 C 0.26809 0.74769 0.19966 0.0
C208 C 0.22043 0.75145 0.18411 0.0
C209 C 0.21728 0.74889 0.29144 0.0
H210 H 0.24703 0.75287 0.05625 0.0
H211 H 0.2034 0.75438 0.13451 0.0
S212 S 0.27065 0.73815 0.48342 0.0
N213 N 0.28603 0.74064 0.37204 0.0
N214 N 0.23893 0.74132 0.4566 0.0
C215 C 0.23979 0.74437 0.35271 0.0
C216 C 0.26525 0.74429 0.30686 0.0
C217 C 0.73835 0.74633 0.14136 0.0
C218 C 0.71572 0.74761 0.20249 0.0
C219 C 0.76337 0.74493 0.18632 0.0
C220 C 0.76656 0.74614 0.29372 0.0
H221 H 0.7367 0.74459 0.05865 0.0
H222 H 0.78039 0.74279 0.13649 0.0
S223 S 0.71331 0.75362 0.48669 0.0
N224 N 0.69787 0.75232 0.37535 0.0
N225 N 0.74501 0.75129 0.45942 0.0
C226 C 0.74409 0.74959 0.3554 0.0
C227 C 0.71861 0.74984 0.30981 0.0
C228 C 0.11975 0.95505 0.56722 0.0
C229 C 0.12051 0.94042 0.46308 0.0
C230 C 0.11963 0.00781 0.59668 0.0
C231 C 0.11967 0.04785 0.52306 0.0
H232 H 0.11921 0.92547 0.62663 0.0
H233 H 0.11881 0.01725 0.67762 0.0
S234 S 0.12264 0.03058 0.24062 0.0
N235 N 0.1223 0.97031 0.28643 0.0
N236 N 0.12158 0.06958 0.34154 0.0
C237 C 0.12084 0.03385 0.41867 0.0
C238 C 0.12142 0.9801 0.38879 0.0
C239 C 0.88808 0.47472 0.5242 0.0
C240 C 0.86443 0.44692 0.53535 0.0
C241 C 0.88809 0.52674 0.49088 0.0
C242 C 0.86454 0.55211 0.46423 0.0
H243 H 0.9067 0.45613 0.54187 0.0
H244 H 0.90672 0.54713 0.48491 0.0
S245 S 0.79746 0.49594 0.47777 0.0
N246 N 0.81688 0.44814 0.51743 0.0
N247 N 0.81698 0.54584 0.451 0.0
C248 C 0.84077 0.52459 0.47373 0.0
C249 C 0.84069 0.47196 0.51051 0.0
C250 C 0.83575 0.97254 0.47975 0.0
C251 C 0.85944 0.94543 0.46324 0.0
C252 C 0.83579 0.02484 0.51231 0.0
C253 C 0.8595 0.05118 0.53277 0.0
H254 H 0.81706 0.95336 0.46626 0.0
H255 H 0.81713 0.04469 0.52234 0.0
S256 S 0.92679 -0.00306 0.50441 0.0
N257 N 0.90718 0.94839 0.47032 0.0
N258 N 0.90725 0.04629 0.5348 0.0
C259 C 0.88331 0.02422 0.51822 0.0
C260 C 0.88328 0.97143 0.48244 0.0
C261 C 0.14772 0.51961 0.48081 0.0
C262 C 0.12396 0.54646 0.4641 0.0
C263 C 0.14785 0.46757 0.51475 0.0
C264 C 0.12424 0.44111 0.53623 0.0
H265 H 0.16637 0.53882 0.46661 0.0
H266 H 0.16659 0.44803 0.52504 0.0
S267 S 0.05678 0.49443 0.50734 0.0
N268 N 0.07622 0.54297 0.47193 0.0
N269 N 0.07647 0.44551 0.53856 0.0
C270 C 0.10035 0.46772 0.5212 0.0
C271 C 0.1002 0.5203 0.48421 0.0
C272 C 0.62222 0.53705 0.9152 0.0
C273 C 0.62199 0.55167 0.01936 0.0
C274 C 0.62255 0.48424 0.88585 0.0
C275 C 0.62203 0.44435 0.95973 0.0
H276 H 0.622 0.56667 0.85578 0.0
H277 H 0.62227 0.47462 0.80498 0.0
S278 S 0.62262 0.46169 0.24219 0.0
N279 N 0.6225 0.52193 0.19624 0.0
N280 N 0.62252 0.42265 0.14128 0.0
C281 C 0.62237 0.45838 0.06406 0.0
C282 C 0.62254 0.51208 0.09387 0.0
C283 C 0.34677 0.96835 0.00492 0.0
C284 C 0.37037 0.94217 0.02769 0.0
C285 C 0.347 0.02004 0.96886 0.0
C286 C 0.3708 0.04734 0.95719 0.0
H287 H 0.32809 0.94836 0.01272 0.0
H288 H 0.32845 0.03913 0.95226 0.0
S289 S 0.43778 -0.0037 0.00815 0.0
N290 N 0.41805 0.94688 0.0355 0.0
N291 N 0.41844 0.04482 0.97168 0.0
C292 C 0.39447 0.02175 0.98091 0.0
C293 C 0.39426 0.96886 0.01513 0.0
C294 C 0.35893 0.48193 0.89112 0.0
C295 C 0.35913 0.44157 0.96403 0.0
C296 C 0.3585 0.53456 0.92184 0.0
C297 C 0.3591 0.54844 0.02631 0.0
H298 H 0.35852 0.47277 0.81006 0.0
H299 H 0.35797 0.56465 0.86335 0.0
S300 S 0.36092 0.45715 0.24671 0.0
N301 N 0.36031 0.41867 0.14492 0.0
N302 N 0.36053 0.51774 0.2023 0.0
C303 C 0.35996 0.50844 0.09978 0.0
C304 C 0.35968 0.45491 0.06867 0.0
C305 C 0.6222 0.01094 0.88924 0.0
C306 C 0.6218 0.05137 0.96216 0.0
C307 C 0.62235 0.95831 0.91995 0.0
C308 C 0.62123 0.94453 0.02433 0.0
H309 H 0.62305 0.02006 0.80823 0.0
H310 H 0.62318 0.92812 0.8616 0.0
S311 S 0.61857 0.03599 0.24455 0.0
N312 N 0.6198 0.07442 0.14286 0.0
N313 N 0.61898 0.97535 0.20017 0.0
C314 C 0.62005 0.98459 0.09772 0.0
C315 C 0.62065 0.03811 0.06668 0.0
C316 C 0.14206 0.22646 0.15363 0.0
C317 C 0.12367 0.25468 0.21185 0.0
C318 C 0.13983 0.22373 0.04665 0.0
C319 C 0.11952 0.25017 -0.00547 0.0
H320 H 0.15767 0.20487 0.19118 0.0
H321 H 0.15418 0.20093 0.00443 0.0
S322 S 0.06726 0.33154 0.11276 0.0
N323 N 0.08495 0.31049 0.21057 0.0
N324 N 0.08124 0.30678 0.00926 0.0
C325 C 0.10152 0.27983 0.05198 0.0
C326 C 0.10347 0.28167 0.16081 0.0
C327 C 0.85173 0.20975 0.14668 0.0
C328 C 0.86187 0.25172 0.20408 0.0
C329 C 0.85441 0.20854 0.03968 0.0
C330 C 0.86674 0.24985 0.98695 0.0
H331 H 0.84227 0.17713 0.18484 0.0
H332 H 0.8464 0.17554 -0.00218 0.0
S333 S 0.89567 0.36944 0.10213 0.0
N334 N 0.88435 0.33577 0.20068 0.0
N335 N 0.88871 0.33411 -0.00037 0.0
C336 C 0.87648 0.29241 0.04346 0.0
C337 C 0.87423 0.29317 0.15211 0.0
C338 C 0.13923 0.75941 0.95206 0.0
C339 C 0.11812 0.73487 0.0028 0.0
C340 C 0.14155 0.75744 0.84514 0.0
C341 C 0.12247 0.73201 0.78556 0.0
H342 H 0.1541 0.78025 -0.00463 0.0
H343 H 0.15782 0.77756 0.80875 0.0
S344 S 0.06401 0.66023 0.88108 0.0
N345 N 0.0785 0.68247 0.98573 0.0
N346 N 0.08233 0.68033 0.78424 0.0
C347 C 0.10151 0.70667 0.83529 0.0
C348 C 0.09948 0.70763 0.94418 0.0
C349 C 0.84311 0.72906 0.84547 0.0
C350 C 0.86188 0.75573 0.78653 0.0
C351 C 0.84529 0.72714 0.95245 0.0
C352 C 0.86592 0.75296 0.00376 0.0
H353 H 0.82715 0.70822 0.80853 0.0
H354 H 0.8306 0.7056 -0.00465 0.0
S355 S 0.91919 0.83056 0.88357 0.0
N356 N 0.90131 0.80948 0.78624 0.0
N357 N 0.90487 0.80745 0.98776 0.0
C358 C 0.88432 0.7811 0.94564 0.0
C359 C 0.88245 0.78202 0.83676 0.0
C360 C 0.63848 0.72639 0.53479 0.0
C361 C 0.61835 0.75406 0.48408 0.0
C362 C 0.6413 0.72914 0.64148 0.0
C363 C 0.62366 0.7586 0.70073 0.0
H364 H 0.65219 0.70248 0.49171 0.0
H365 H 0.65669 0.70649 0.67805 0.0
S366 S 0.56818 0.83926 0.60546 0.0
N367 N 0.5812 0.81342 0.50107 0.0
N368 N 0.58596 0.81711 0.70207 0.0
C369 C 0.60372 0.787 0.65108 0.0
C370 C 0.6012 0.78515 0.54249 0.0
C371 C 0.34838 0.71023 0.63979 0.0
C372 C 0.35878 0.75177 0.69754 0.0
C373 C 0.35127 0.70904 0.53294 0.0
C374 C 0.36412 0.74992 0.48076 0.0
H375 H 0.33879 0.67766 0.67764 0.0
H376 H 0.34322 0.67615 0.49085 0.0
S377 S 0.39348 0.86877 0.59721 0.0
N378 N 0.38171 0.83532 0.69526 0.0
N379 N 0.38651 0.83374 0.49434 0.0
C380 C 0.37386 0.79237 0.53757 0.0
C381 C 0.37137 0.79311 0.64611 0.0
C382 C 0.63175 0.20825 0.33668 0.0
C383 C 0.61959 0.24813 0.27958 0.0
C384 C 0.62952 0.20696 0.44378 0.0
C385 C 0.61567 0.24628 0.4967 0.0
H386 H 0.64257 0.17739 0.29825 0.0
H387 H 0.63914 0.17571 0.48558 0.0
S388 S 0.58058 0.35921 0.38235 0.0
N389 N 0.59306 0.32743 0.28338 0.0
N390 N 0.5897 0.32589 0.48478 0.0
C391 C 0.60368 0.28652 0.44049 0.0
C392 C 0.60542 0.2872 0.33175 0.0
C393 C 0.35123 0.28395 0.34081 0.0
C394 C 0.36182 0.24217 0.28418 0.0
C395 C 0.35325 0.28496 0.44796 0.0
C396 C 0.36531 0.24356 0.50141 0.0
H397 H 0.34195 0.3166 0.30196 0.0
H398 H 0.345 0.31792 0.4893 0.0
S399 S 0.39553 0.12479 0.38776 0.0
N400 N 0.38469 0.15858 0.2885 0.0
N401 N 0.38772 0.15963 0.49002 0.0
C402 C 0.37556 0.20124 0.4455 0.0
C403 C 0.37403 0.20079 0.33669 0.0
C404 C 0.00656 0.19925 0.61694 0.0
C405 C 0.02008 0.24719 0.62445 0.0
C406 C 0.97901 0.19754 0.61884 0.0
C407 C 0.96422 0.24388 0.62525 0.0
H408 H 0.01735 0.16287 0.60878 0.0
H409 H 0.96923 0.16004 0.61107 0.0
S410 S 0.99011 0.37902 0.64942 0.0
N411 N 0.01662 0.34175 0.64283 0.0
N412 N 0.96481 0.33863 0.64256 0.0
C413 C 0.97747 0.29189 0.63452 0.0
C414 C 0.00545 0.29353 0.63522 0.0
C415 C 0.97727 0.70407 0.37189 0.0
C416 C 0.96432 0.75276 0.372 0.0
C417 C 0.00476 0.70113 0.37046 0.0
C418 C 0.02011 0.74682 0.37223 0.0
H419 H 0.96606 0.66799 0.37373 0.0
H420 H 0.01403 0.66291 0.37203 0.0
S421 S -0.00432 0.88372 0.3698 0.0
N422 N 0.96877 0.84751 0.36951 0.0
N423 N 0.02056 0.84207 0.37062 0.0
C424 C 0.00741 0.79572 0.37066 0.0
C425 C 0.97944 0.79869 0.36943 0.0
C426 C 0.50568 0.72768 0.01937 0.0
C427 C 0.51963 0.74084 0.10881 0.0
C428 C 0.47833 0.72311 0.02013 0.0
C429 C 0.46393 0.7302 0.11081 0.0
H430 H 0.51589 0.72218 0.94728 0.0
H431 H 0.46831 0.71451 0.94876 0.0
S432 S 0.49094 0.76292 0.3666 0.0
N433 N 0.51703 0.75981 0.2913 0.0
N434 N 0.46534 0.74978 0.29291 0.0
C435 C 0.47754 0.74182 0.20161 0.0
C436 C 0.50548 0.74765 0.20049 0.0
C437 C 0.47717 0.20643 0.85685 0.0
C438 C 0.46404 0.25495 0.8541 0.0
C439 C 0.50464 0.20373 0.85354 0.0
C440 C 0.51981 0.24958 0.85034 0.0
H441 H 0.46611 0.1703 0.86344 0.0
H442 H 0.51406 0.16574 0.85869 0.0
S443 S 0.49492 0.38594 0.83566 0.0
N444 N 0.46812 0.34951 0.84113 0.0
N445 N 0.51994 0.34465 0.83876 0.0
C446 C 0.50694 0.29824 0.84428 0.0
C447 C 0.47895 0.30088 0.84502 0.0
loop_
_geom_bond_atom_site_label_1
_geom_bond_atom_site_label_2
_geom_bond_distance
_geom_bond_site_symmetry_2
_ccdc_geom_bond_type
O0 Zn1 1.953 . S
O0 C16 1.225 . S
Zn1 O0 1.953 . S
Zn1 O2 1.949 . S
Zn1 O8 1.919 . S
Zn1 O13 1.924 . S
O2 Zn1 1.949 . S
O2 Zn3 1.923 . S
O2 Zn4 1.950 . S
O2 Zn5 1.945 . S
Zn3 O2 1.923 . S
Zn3 O6 1.933 . S
Zn3 O9 1.941 . S
Zn3 O10 1.965 . S
Zn4 O2 1.950 . S
Zn4 O11 1.938 . S
Zn4 O12 1.906 . S
Zn4 O22 1.953 . S
Zn5 O2 1.945 . S
Zn5 O7 1.932 . S
Zn5 O14 1.977 . S
Zn5 O15 1.910 . S
O6 Zn3 1.933 . S
O6 C17 1.226 . S
O7 Zn5 1.932 . S
O7 C17 1.307 . S
O8 Zn1 1.919 . S
O8 C19 1.253 . S
O9 Zn3 1.941 . S
O9 C19 1.283 . S
O10 Zn3 1.965 . S
O10 C18 1.303 . S
O11 Zn4 1.938 . S
O11 C18 1.247 . S
O12 Zn4 1.906 . S
O12 C20 1.304 . S
O13 Zn1 1.924 . S
O13 C21 1.311 . S
O14 Zn5 1.977 . S
O14 C20 1.272 . S
O15 Zn5 1.910 . S
O15 C21 1.231 . S
C16 O0 1.225 . S
C16 O22 1.298 . S
C17 O6 1.226 . S
C17 O7 1.307 . S
C18 O10 1.303 . S
C18 O11 1.247 . S
C19 O8 1.253 . S
C19 O9 1.283 . S
C20 O12 1.304 . S
C20 O14 1.272 . S
C21 O13 1.311 . S
C21 O15 1.231 . S
O22 Zn4 1.953 . S
O22 C16 1.298 . S
O23 Zn24 1.953 . S
O23 C39 1.225 . S
Zn24 O23 1.953 . S
Zn24 O25 1.949 . S
Zn24 O31 1.919 . S
Zn24 O36 1.924 . S
O25 Zn24 1.949 . S
O25 Zn26 1.923 . S
O25 Zn27 1.950 . S
O25 Zn28 1.945 . S
Zn26 O25 1.923 . S
Zn26 O29 1.933 . S
Zn26 O32 1.941 . S
Zn26 O33 1.965 . S
Zn27 O25 1.950 . S
Zn27 O34 1.938 . S
Zn27 O35 1.906 . S
Zn27 O45 1.953 . S
Zn28 O25 1.945 . S
Zn28 O30 1.932 . S
Zn28 O37 1.977 . S
Zn28 O38 1.910 . S
O29 Zn26 1.933 . S
O29 C40 1.226 . S
O30 Zn28 1.932 . S
O30 C40 1.307 . S
O31 Zn24 1.919 . S
O31 C42 1.253 . S
O32 Zn26 1.941 . S
O32 C42 1.283 . S
O33 Zn26 1.965 . S
O33 C41 1.303 . S
O34 Zn27 1.938 . S
O34 C41 1.247 . S
O35 Zn27 1.906 . S
O35 C43 1.304 . S
O36 Zn24 1.924 . S
O36 C44 1.311 . S
O37 Zn28 1.977 . S
O37 C43 1.272 . S
O38 Zn28 1.910 . S
O38 C44 1.231 . S
C39 O23 1.225 . S
C39 O45 1.298 . S
C40 O29 1.226 . S
C40 O30 1.307 . S
C41 O33 1.303 . S
C41 O34 1.247 . S
C42 O31 1.253 . S
C42 O32 1.283 . S
C43 O35 1.304 . S
C43 O37 1.272 . S
C44 O36 1.311 . S
C44 O38 1.231 . S
O45 Zn27 1.953 . S
O45 C39 1.298 . S
O46 Zn47 1.953 . S
O46 C62 1.225 . S
Zn47 O46 1.953 . S
Zn47 O48 1.949 . S
Zn47 O54 1.919 . S
Zn47 O59 1.924 . S
O48 Zn47 1.949 . S
O48 Zn49 1.923 . S
O48 Zn50 1.950 . S
O48 Zn51 1.945 . S
Zn49 O48 1.923 . S
Zn49 O52 1.933 . S
Zn49 O55 1.941 . S
Zn49 O56 1.965 . S
Zn50 O48 1.950 . S
Zn50 O57 1.938 . S
Zn50 O58 1.906 . S
Zn50 O68 1.953 . S
Zn51 O48 1.945 . S
Zn51 O53 1.932 . S
Zn51 O60 1.977 . S
Zn51 O61 1.910 . S
O52 Zn49 1.933 . S
O52 C63 1.226 . S
O53 Zn51 1.932 . S
O53 C63 1.307 . S
O54 Zn47 1.919 . S
O54 C65 1.253 . S
O55 Zn49 1.941 . S
O55 C65 1.283 . S
O56 Zn49 1.965 . S
O56 C64 1.303 . S
O57 Zn50 1.938 . S
O57 C64 1.247 . S
O58 Zn50 1.906 . S
O58 C66 1.304 . S
O59 Zn47 1.924 . S
O59 C67 1.311 . S
O60 Zn51 1.977 . S
O60 C66 1.272 . S
O61 Zn51 1.910 . S
O61 C67 1.231 . S
C62 O46 1.225 . S
C62 O68 1.298 . S
C63 O52 1.226 . S
C63 O53 1.307 . S
C64 O56 1.303 . S
C64 O57 1.247 . S
C65 O54 1.253 . S
C65 O55 1.283 . S
C66 O58 1.304 . S
C66 O60 1.272 . S
C67 O59 1.311 . S
C67 O61 1.231 . S
O68 Zn50 1.953 . S
O68 C62 1.298 . S
O69 Zn70 1.953 . S
O69 C85 1.225 . S
Zn70 O69 1.953 . S
Zn70 O71 1.949 . S
Zn70 O77 1.919 . S
Zn70 O82 1.924 . S
O71 Zn70 1.949 . S
O71 Zn72 1.923 . S
O71 Zn73 1.950 . S
O71 Zn74 1.945 . S
Zn72 O71 1.923 . S
Zn72 O75 1.933 . S
Zn72 O78 1.941 . S
Zn72 O79 1.965 . S
Zn73 O71 1.950 . S
Zn73 O80 1.938 . S
Zn73 O81 1.906 . S
Zn73 O91 1.953 . S
Zn74 O71 1.945 . S
Zn74 O76 1.932 . S
Zn74 O83 1.977 . S
Zn74 O84 1.910 . S
O75 Zn72 1.933 . S
O75 C86 1.226 . S
O76 Zn74 1.932 . S
O76 C86 1.307 . S
O77 Zn70 1.919 . S
O77 C88 1.253 . S
O78 Zn72 1.941 . S
O78 C88 1.283 . S
O79 Zn72 1.965 . S
O79 C87 1.303 . S
O80 Zn73 1.938 . S
O80 C87 1.247 . S
O81 Zn73 1.906 . S
O81 C89 1.304 . S
O82 Zn70 1.924 . S
O82 C90 1.311 . S
O83 Zn74 1.977 . S
O83 C89 1.272 . S
O84 Zn74 1.910 . S
O84 C90 1.231 . S
C85 O69 1.225 . S
C85 O91 1.298 . S
C86 O75 1.226 . S
C86 O76 1.307 . S
C87 O79 1.303 . S
C87 O80 1.247 . S
C88 O77 1.253 . S
C88 O78 1.283 . S
C89 O81 1.304 . S
C89 O83 1.272 . S
C90 O82 1.311 . S
C90 O84 1.231 . S
O91 Zn73 1.953 . S
O91 C85 1.298 . S
O92 Zn93 1.953 . S
O92 C108 1.225 . S
Zn93 O92 1.953 . S
Zn93 O94 1.949 . S
Zn93 O100 1.919 . S
Zn93 O105 1.924 . S
O94 Zn93 1.949 . S
O94 Zn95 1.923 . S
O94 Zn96 1.950 . S
O94 Zn97 1.945 . S
Zn95 O94 1.923 . S
Zn95 O98 1.933 1_554 S
Zn95 O101 1.941 . S
Zn95 O102 1.965 . S
Zn96 O94 1.950 . S
Zn96 O103 1.938 . S
Zn96 O104 1.906 . S
Zn96 O114 1.953 . S
Zn97 O94 1.945 . S
Zn97 O99 1.932 1_554 S
Zn97 O106 1.977 . S
Zn97 O107 1.910 . S
O98 Zn95 1.933 1_556 S
O98 C109 1.226 . S
O99 Zn97 1.932 1_556 S
O99 C109 1.307 . S
O100 Zn93 1.919 . S
O100 C111 1.253 . S
O101 Zn95 1.941 . S
O101 C111 1.283 . S
O102 Zn95 1.965 . S
O102 C110 1.303 . S
O103 Zn96 1.938 . S
O103 C110 1.247 . S
O104 Zn96 1.906 . S
O104 C112 1.304 . S
O105 Zn93 1.924 . S
O105 C113 1.311 . S
O106 Zn97 1.977 . S
O106 C112 1.272 . S
O107 Zn97 1.910 . S
O107 C113 1.231 . S
C108 O92 1.225 . S
C108 O114 1.298 . S
C109 O98 1.226 . S
C109 O99 1.307 . S
C110 O102 1.303 . S
C110 O103 1.247 . S
C111 O100 1.253 . S
C111 O101 1.283 . S
C112 O104 1.304 . S
C112 O106 1.272 . S
C113 O105 1.311 . S
C113 O107 1.231 . S
O114 Zn96 1.953 . S
O114 C108 1.298 . S
O115 Zn116 1.953 . S
O115 C131 1.225 . S
Zn116 O115 1.953 . S
Zn116 O117 1.949 . S
Zn116 O123 1.919 . S
Zn116 O128 1.924 . S
O117 Zn116 1.949 . S
O117 Zn118 1.923 . S
O117 Zn119 1.950 . S
O117 Zn120 1.945 . S
Zn118 O117 1.923 . S
Zn118 O121 1.933 1_554 S
Zn118 O124 1.941 . S
Zn118 O125 1.965 . S
Zn119 O117 1.950 . S
Zn119 O126 1.938 . S
Zn119 O127 1.906 . S
Zn119 O137 1.953 . S
Zn120 O117 1.945 . S
Zn120 O122 1.932 1_554 S
Zn120 O129 1.977 . S
Zn120 O130 1.910 . S
O121 Zn118 1.933 1_556 S
O121 C132 1.226 . S
O122 Zn120 1.932 1_556 S
O122 C132 1.307 . S
O123 Zn116 1.919 . S
O123 C134 1.253 . S
O124 Zn118 1.941 . S
O124 C134 1.283 . S
O125 Zn118 1.965 . S
O125 C133 1.303 . S
O126 Zn119 1.938 . S
O126 C133 1.247 . S
O127 Zn119 1.906 . S
O127 C135 1.304 . S
O128 Zn116 1.924 . S
O128 C136 1.311 . S
O129 Zn120 1.977 . S
O129 C135 1.272 . S
O130 Zn120 1.910 . S
O130 C136 1.231 . S
C131 O115 1.225 . S
C131 O137 1.298 . S
C132 O121 1.226 . S
C132 O122 1.307 . S
C133 O125 1.303 . S
C133 O126 1.247 . S
C134 O123 1.253 . S
C134 O124 1.283 . S
C135 O127 1.304 . S
C135 O129 1.272 . S
C136 O128 1.311 . S
C136 O130 1.231 . S
O137 Zn119 1.953 . S
O137 C131 1.298 . S
O138 Zn139 1.953 . S
O138 C154 1.225 . S
Zn139 O138 1.953 . S
Zn139 O140 1.949 . S
Zn139 O146 1.919 . S
Zn139 O151 1.924 . S
O140 Zn139 1.949 . S
O140 Zn141 1.923 . S
O140 Zn142 1.950 . S
O140 Zn143 1.945 . S
Zn141 O140 1.923 . S
Zn141 O144 1.933 1_556 S
Zn141 O147 1.941 . S
Zn141 O148 1.965 . S
Zn142 O140 1.950 . S
Zn142 O149 1.938 . S
Zn142 O150 1.906 . S
Zn142 O160 1.953 . S
Zn143 O140 1.945 . S
Zn143 O145 1.932 1_556 S
Zn143 O152 1.977 . S
Zn143 O153 1.910 . S
O144 Zn141 1.933 1_554 S
O144 C155 1.226 . S
O145 Zn143 1.932 1_554 S
O145 C155 1.307 . S
O146 Zn139 1.919 . S
O146 C157 1.253 . S
O147 Zn141 1.941 . S
O147 C157 1.283 . S
O148 Zn141 1.965 . S
O148 C156 1.303 . S
O149 Zn142 1.938 . S
O149 C156 1.247 . S
O150 Zn142 1.906 . S
O150 C158 1.304 . S
O151 Zn139 1.924 . S
O151 C159 1.311 . S
O152 Zn143 1.977 . S
O152 C158 1.272 . S
O153 Zn143 1.910 . S
O153 C159 1.231 . S
C154 O138 1.225 . S
C154 O160 1.298 . S
C155 O144 1.226 . S
C155 O145 1.307 . S
C156 O148 1.303 . S
C156 O149 1.247 . S
C157 O146 1.253 . S
C157 O147 1.283 . S
C158 O150 1.304 . S
C158 O152 1.272 . S
C159 O151 1.311 . S
C159 O153 1.231 . S
O160 Zn142 1.953 . S
O160 C154 1.298 . S
O161 Zn162 1.953 . S
O161 C177 1.225 . S
Zn162 O161 1.953 . S
Zn162 O163 1.949 . S
Zn162 O169 1.919 . S
Zn162 O174 1.924 . S
O163 Zn162 1.949 . S
O163 Zn164 1.923 . S
O163 Zn165 1.950 . S
O163 Zn166 1.945 . S
Zn164 O163 1.923 . S
Zn164 O167 1.933 1_556 S
Zn164 O170 1.941 . S
Zn164 O171 1.965 . S
Zn165 O163 1.950 . S
Zn165 O172 1.938 . S
Zn165 O173 1.906 . S
Zn165 O183 1.953 . S
Zn166 O163 1.945 . S
Zn166 O168 1.932 1_556 S
Zn166 O175 1.977 . S
Zn166 O176 1.910 . S
O167 Zn164 1.933 1_554 S
O167 C178 1.226 . S
O168 Zn166 1.932 1_554 S
O168 C178 1.307 . S
O169 Zn162 1.919 . S
O169 C180 1.253 . S
O170 Zn164 1.941 . S
O170 C180 1.283 . S
O171 Zn164 1.965 . S
O171 C179 1.303 . S
O172 Zn165 1.938 . S
O172 C179 1.247 . S
O173 Zn165 1.906 . S
O173 C181 1.304 . S
O174 Zn162 1.924 . S
O174 C182 1.311 . S
O175 Zn166 1.977 . S
O175 C181 1.272 . S
O176 Zn166 1.910 . S
O176 C182 1.231 . S
C177 O161 1.225 . S
C177 O183 1.298 . S
C178 O167 1.226 . S
C178 O168 1.307 . S
C179 O171 1.303 . S
C179 O172 1.247 . S
C180 O169 1.253 . S
C180 O170 1.283 . S
C181 O173 1.304 . S
C181 O175 1.272 . S
C182 O174 1.311 . S
C182 O176 1.231 . S
O183 Zn165 1.953 . S
O183 C177 1.298 . S
C184 C185 1.369 . S
C184 C186 1.419 . S
C184 H188 0.930 . S
C185 C184 1.369 . S
C185 C194 1.429 . S
C186 C184 1.419 . S
C186 C187 1.363 . S
C186 H189 0.929 . S
C187 C186 1.363 . S
C187 C193 1.428 . S
H188 C184 0.930 . S
H189 C186 0.929 . S
S190 N191 1.613 . S
S190 N192 1.610 . S
N191 S190 1.613 . S
N191 C194 1.350 . S
N192 S190 1.610 . S
N192 C193 1.351 . S
C193 C187 1.428 . S
C193 N192 1.351 . S
C193 C194 1.434 . S
C194 C185 1.429 . S
C194 N191 1.350 . S
C194 C193 1.434 . S
C195 C196 1.369 . S
C195 C197 1.419 . S
C195 H199 0.930 . S
C196 C195 1.369 . S
C196 C205 1.429 . S
C197 C195 1.419 . S
C197 C198 1.363 . S
C197 H200 0.929 . S
C198 C197 1.363 . S
C198 C204 1.428 . S
H199 C195 0.930 . S
H200 C197 0.929 . S
S201 N202 1.613 1_554 S
S201 N203 1.610 1_554 S
N202 S201 1.613 1_556 S
N202 C205 1.350 . S
N203 S201 1.610 1_556 S
N203 C204 1.351 . S
C204 C198 1.428 . S
C204 N203 1.351 . S
C204 C205 1.434 . S
C205 C196 1.429 . S
C205 N202 1.350 . S
C205 C204 1.434 . S
C206 C207 1.369 . S
C206 C208 1.419 . S
C206 H210 0.930 . S
C207 C206 1.369 . S
C207 C216 1.429 . S
C208 C206 1.419 . S
C208 C209 1.363 . S
C208 H211 0.929 . S
C209 C208 1.363 . S
C209 C215 1.428 . S
H210 C206 0.930 . S
H211 C208 0.929 . S
S212 N213 1.613 . S
S212 N214 1.610 . S
N213 S212 1.613 . S
N213 C216 1.350 . S
N214 S212 1.610 . S
N214 C215 1.351 . S
C215 C209 1.428 . S
C215 N214 1.351 . S
C215 C216 1.434 . S
C216 C207 1.429 . S
C216 N213 1.350 . S
C216 C215 1.434 . S
C217 C218 1.369 . S
C217 C219 1.419 . S
C217 H221 0.930 . S
C218 C217 1.369 . S
C218 C227 1.429 . S
C219 C217 1.419 . S
C219 C220 1.363 . S
C219 H222 0.929 . S
C220 C219 1.363 . S
C220 C226 1.428 . S
H221 C217 0.930 . S
H222 C219 0.929 . S
S223 N224 1.613 . S
S223 N225 1.610 . S
N224 S223 1.613 . S
N224 C227 1.350 . S
N225 S223 1.610 . S
N225 C226 1.351 . S
C226 C220 1.428 . S
C226 N225 1.351 . S
C226 C227 1.434 . S
C227 C218 1.429 . S
C227 N224 1.350 . S
C227 C226 1.434 . S
C228 C229 1.369 . S
C228 C230 1.419 1_565 S
C228 H232 0.930 . S
C229 C228 1.369 . S
C229 C238 1.429 . S
C230 C228 1.419 1_545 S
C230 C231 1.363 . S
C230 H233 0.929 . S
C231 C230 1.363 . S
C231 C237 1.428 . S
H232 C228 0.930 . S
H233 C230 0.929 . S
S234 N235 1.613 1_545 S
S234 N236 1.610 . S
N235 S234 1.613 1_565 S
N235 C238 1.350 . S
N236 S234 1.610 . S
N236 C237 1.351 . S
C237 C231 1.428 . S
C237 N236 1.351 . S
C237 C238 1.434 1_545 S
C238 C229 1.429 . S
C238 N235 1.350 . S
C238 C237 1.434 1_565 S
C239 C240 1.369 . S
C239 C241 1.419 . S
C239 H243 0.930 . S
C240 C239 1.369 . S
C240 C249 1.429 . S
C241 C239 1.419 . S
C241 C242 1.363 . S
C241 H244 0.929 . S
C242 C241 1.363 . S
C242 C248 1.428 . S
H243 C239 0.930 . S
H244 C241 0.929 . S
S245 N246 1.613 . S
S245 N247 1.610 . S
N246 S245 1.613 . S
N246 C249 1.350 . S
N247 S245 1.610 . S
N247 C248 1.351 . S
C248 C242 1.428 . S
C248 N247 1.351 . S
C248 C249 1.434 . S
C249 C240 1.429 . S
C249 N246 1.350 . S
C249 C248 1.434 . S
C250 C251 1.369 . S
C250 C252 1.419 1_565 S
C250 H254 0.930 . S
C251 C250 1.369 . S
C251 C260 1.429 . S
C252 C250 1.419 1_545 S
C252 C253 1.363 . S
C252 H255 0.929 . S
C253 C252 1.363 . S
C253 C259 1.428 . S
H254 C250 0.930 . S
H255 C252 0.929 . S
S256 N257 1.613 . S
S256 N258 1.610 1_565 S
N257 S256 1.613 . S
N257 C260 1.350 . S
N258 S256 1.610 1_545 S
N258 C259 1.351 . S
C259 C253 1.428 . S
C259 N258 1.351 . S
C259 C260 1.434 1_545 S
C260 C251 1.429 . S
C260 N257 1.350 . S
C260 C259 1.434 1_565 S
C261 C262 1.369 . S
C261 C263 1.419 . S
C261 H265 0.930 . S
C262 C261 1.369 . S
C262 C271 1.429 . S
C263 C261 1.419 . S
C263 C264 1.363 . S
C263 H266 0.929 . S
C264 C263 1.363 . S
C264 C270 1.428 . S
H265 C261 0.930 . S
H266 C263 0.929 . S
S267 N268 1.613 . S
S267 N269 1.610 . S
N268 S267 1.613 . S
N268 C271 1.350 . S
N269 S267 1.610 . S
N269 C270 1.351 . S
C270 C264 1.428 . S
C270 N269 1.351 . S
C270 C271 1.434 . S
C271 C262 1.429 . S
C271 N268 1.350 . S
C271 C270 1.434 . S
C272 C273 1.369 1_556 S
C272 C274 1.419 . S
C272 H276 0.930 . S
C273 C272 1.369 1_554 S
C273 C282 1.429 . S
C274 C272 1.419 . S
C274 C275 1.363 . S
C274 H277 0.929 . S
C275 C274 1.363 . S
C275 C281 1.428 1_556 S
H276 C272 0.930 . S
H277 C274 0.929 . S
S278 N279 1.613 . S
S278 N280 1.610 . S
N279 S278 1.613 . S
N279 C282 1.350 . S
N280 S278 1.610 . S
N280 C281 1.351 . S
C281 C275 1.428 1_554 S
C281 N280 1.351 . S
C281 C282 1.434 . S
C282 C273 1.429 . S
C282 N279 1.350 . S
C282 C281 1.434 . S
C283 C284 1.369 . S
C283 C285 1.419 1_564 S
C283 H287 0.930 . S
C284 C283 1.369 . S
C284 C293 1.429 . S
C285 C283 1.419 1_546 S
C285 C286 1.363 . S
C285 H288 0.929 . S
C286 C285 1.363 . S
C286 C292 1.431 . S
H287 C283 0.930 . S
H288 C285 0.929 . S
S289 N290 1.613 1_545 S
S289 N291 1.610 . S
N290 S289 1.613 1_565 S
N290 C293 1.350 . S
N291 S289 1.610 . S
N291 C292 1.350 1_554 S
C292 C286 1.431 . S
C292 N291 1.350 1_556 S
C292 C293 1.431 1_546 S
C293 C284 1.429 . S
C293 N290 1.350 . S
C293 C292 1.431 1_564 S
C294 C295 1.369 . S
C294 C296 1.419 . S
C294 H298 0.930 . S
C295 C294 1.369 . S
C295 C304 1.429 1_556 S
C296 C294 1.419 . S
C296 C297 1.363 1_556 S
C296 H299 0.929 . S
C297 C296 1.363 1_554 S
C297 C303 1.428 . S
H298 C294 0.930 . S
H299 C296 0.929 . S
S300 N301 1.613 . S
S300 N302 1.610 . S
N301 S300 1.613 . S
N301 C304 1.350 . S
N302 S300 1.610 . S
N302 C303 1.351 . S
C303 C297 1.428 . S
C303 N302 1.351 . S
C303 C304 1.434 . S
C304 C295 1.429 1_554 S
C304 N301 1.350 . S
C304 C303 1.434 . S
C305 C306 1.369 . S
C305 C307 1.419 1_545 S
C305 H309 0.930 . S
C306 C305 1.369 . S
C306 C315 1.429 1_556 S
C307 C305 1.419 1_565 S
C307 C308 1.363 1_556 S
C307 H310 0.929 . S
C308 C307 1.363 1_554 S
C308 C314 1.428 . S
H309 C305 0.930 . S
H310 C307 0.929 . S
S311 N312 1.613 . S
S311 N313 1.610 1_545 S
N312 S311 1.613 . S
N312 C315 1.350 . S
N313 S311 1.610 1_565 S
N313 C314 1.351 . S
C314 C308 1.428 . S
C314 N313 1.351 . S
C314 C315 1.434 1_565 S
C315 C306 1.429 1_554 S
C315 N312 1.350 . S
C315 C314 1.434 1_545 S
C316 C317 1.369 . S
C316 C318 1.419 . S
C316 H320 0.930 . S
C317 C316 1.369 . S
C317 C326 1.429 . S
C318 C316 1.419 . S
C318 C319 1.363 1_554 S
C318 H321 0.929 1_554 S
C319 C318 1.363 1_556 S
C319 C325 1.428 1_556 S
H320 C316 0.930 . S
H321 C318 0.929 1_556 S
S322 N323 1.613 . S
S322 N324 1.610 . S
N323 S322 1.613 . S
N323 C326 1.350 . S
N324 S322 1.610 . S
N324 C325 1.351 . S
C325 C319 1.428 1_554 S
C325 N324 1.351 . S
C325 C326 1.434 . S
C326 C317 1.429 . S
C326 N323 1.350 . S
C326 C325 1.434 . S
C327 C328 1.369 . S
C327 C329 1.419 . S
C327 H331 0.930 . S
C328 C327 1.369 . S
C328 C337 1.429 . S
C329 C327 1.419 . S
C329 C330 1.363 1_554 S
C329 H332 0.929 . S
C330 C329 1.363 1_556 S
C330 C336 1.428 1_556 S
H331 C327 0.930 . S
H332 C329 0.929 . S
S333 N334 1.613 . S
S333 N335 1.610 . S
N334 S333 1.613 . S
N334 C337 1.350 . S
N335 S333 1.610 . S
N335 C336 1.351 . S
C336 C330 1.428 1_554 S
C336 N335 1.351 . S
C336 C337 1.434 . S
C337 C328 1.429 . S
C337 N334 1.350 . S
C337 C336 1.434 . S
C338 C339 1.369 1_556 S
C338 C340 1.419 . S
C338 H342 0.930 1_556 S
C339 C338 1.369 1_554 S
C339 C348 1.429 1_554 S
C340 C338 1.419 . S
C340 C341 1.363 . S
C340 H343 0.929 . S
C341 C340 1.363 . S
C341 C347 1.428 . S
H342 C338 0.930 1_554 S
H343 C340 0.929 . S
S344 N345 1.613 . S
S344 N346 1.610 . S
N345 S344 1.613 . S
N345 C348 1.350 . S
N346 S344 1.610 . S
N346 C347 1.351 . S
C347 C341 1.428 . S
C347 N346 1.351 . S
C347 C348 1.434 . S
C348 C339 1.429 1_556 S
C348 N345 1.350 . S
C348 C347 1.434 . S
C349 C350 1.369 . S
C349 C351 1.419 . S
C349 H353 0.930 . S
C350 C349 1.369 . S
C350 C359 1.429 . S
C351 C349 1.419 . S
C351 C352 1.363 1_556 S
C351 H354 0.929 . S
C352 C351 1.363 1_554 S
C352 C358 1.428 1_554 S
H353 C349 0.930 . S
H354 C351 0.929 . S
S355 N356 1.613 . S
S355 N357 1.610 . S
N356 S355 1.613 . S
N356 C359 1.350 . S
N357 S355 1.610 . S
N357 C358 1.351 . S
C358 C352 1.428 1_556 S
C358 N357 1.351 . S
C358 C359 1.434 . S
C359 C350 1.429 . S
C359 N356 1.350 . S
C359 C358 1.434 . S
C360 C361 1.369 . S
C360 C362 1.419 . S
C360 H364 0.930 . S
C361 C360 1.369 . S
C361 C370 1.429 . S
C362 C360 1.419 . S
C362 C363 1.363 . S
C362 H365 0.929 . S
C363 C362 1.363 . S
C363 C369 1.428 . S
H364 C360 0.930 . S
H365 C362 0.929 . S
S366 N367 1.613 . S
S366 N368 1.610 . S
N367 S366 1.613 . S
N367 C370 1.350 . S
N368 S366 1.610 . S
N368 C369 1.351 . S
C369 C363 1.428 . S
C369 N368 1.351 . S
C369 C370 1.434 . S
C370 C361 1.429 . S
C370 N367 1.350 . S
C370 C369 1.434 . S
C371 C372 1.369 . S
C371 C373 1.419 . S
C371 H375 0.930 . S
C372 C371 1.369 . S
C372 C381 1.429 . S
C373 C371 1.419 . S
C373 C374 1.363 . S
C373 H376 0.929 . S
C374 C373 1.363 . S
C374 C380 1.428 . S
H375 C371 0.930 . S
H376 C373 0.929 . S
S377 N378 1.613 . S
S377 N379 1.610 . S
N378 S377 1.613 . S
N378 C381 1.350 . S
N379 S377 1.610 . S
N379 C380 1.351 . S
C380 C374 1.428 . S
C380 N379 1.351 . S
C380 C381 1.434 . S
C381 C372 1.429 . S
C381 N378 1.350 . S
C381 C380 1.434 . S
C382 C383 1.369 . S
C382 C384 1.419 . S
C382 H386 0.930 . S
C383 C382 1.369 . S
C383 C392 1.429 . S
C384 C382 1.419 . S
C384 C385 1.363 . S
C384 H387 0.929 . S
C385 C384 1.363 . S
C385 C391 1.428 . S
H386 C382 0.930 . S
H387 C384 0.929 . S
S388 N389 1.613 . S
S388 N390 1.610 . S
N389 S388 1.613 . S
N389 C392 1.350 . S
N390 S388 1.610 . S
N390 C391 1.351 . S
C391 C385 1.428 . S
C391 N390 1.351 . S
C391 C392 1.434 . S
C392 C383 1.429 . S
C392 N389 1.350 . S
C392 C391 1.434 . S
C393 C394 1.369 . S
C393 C395 1.419 . S
C393 H397 0.930 . S
C394 C393 1.369 . S
C394 C403 1.429 . S
C395 C393 1.419 . S
C395 C396 1.363 . S
C395 H398 0.929 . S
C396 C395 1.363 . S
C396 C402 1.428 . S
H397 C393 0.930 . S
H398 C395 0.929 . S
S399 N400 1.613 . S
S399 N401 1.610 . S
N400 S399 1.613 . S
N400 C403 1.350 . S
N401 S399 1.610 . S
N401 C402 1.351 . S
C402 C396 1.428 . S
C402 N401 1.351 . S
C402 C403 1.434 . S
C403 C394 1.429 . S
C403 N400 1.350 . S
C403 C402 1.434 . S
C404 C405 1.369 . S
C404 C406 1.419 1_455 S
C404 H408 0.930 . S
C405 C404 1.369 . S
C405 C414 1.429 . S
C406 C404 1.419 1_655 S
C406 C407 1.363 . S
C406 H409 0.929 . S
C407 C406 1.363 . S
C407 C413 1.428 . S
H408 C404 0.930 . S
H409 C406 0.929 . S
S410 N411 1.592 1_655 S
S410 N412 1.631 . S
N411 S410 1.592 1_455 S
N411 C414 1.350 . S
N412 S410 1.631 . S
N412 C413 1.351 . S
C413 C407 1.428 . S
C413 N412 1.351 . S
C413 C414 1.434 1_655 S
C414 C405 1.429 . S
C414 N411 1.350 . S
C414 C413 1.434 1_455 S
C415 C416 1.369 . S
C415 C417 1.419 1_655 S
C415 H419 0.930 . S
C416 C415 1.369 . S
C416 C425 1.429 . S
C417 C415 1.419 1_455 S
C417 C418 1.363 . S
C417 H420 0.929 . S
C418 C417 1.363 . S
C418 C424 1.428 . S
H419 C415 0.930 . S
H420 C417 0.929 . S
S421 N422 1.586 1_455 S
S421 N423 1.637 . S
N422 S421 1.586 1_655 S
N422 C425 1.350 . S
N423 S421 1.637 . S
N423 C424 1.351 . S
C424 C418 1.428 . S
C424 N423 1.351 . S
C424 C425 1.434 1_455 S
C425 C416 1.429 . S
C425 N422 1.350 . S
C425 C424 1.434 1_655 S
C426 C427 1.369 . S
C426 C428 1.419 . S
C426 H430 0.930 . S
C427 C426 1.369 . S
C427 C436 1.429 . S
C428 C426 1.419 . S
C428 C429 1.363 . S
C428 H431 0.929 . S
C429 C428 1.363 . S
C429 C435 1.428 . S
H430 C426 0.930 . S
H431 C428 0.929 . S
S432 N433 1.613 . S
S432 N434 1.610 . S
N433 S432 1.613 . S
N433 C436 1.350 . S
N434 S432 1.610 . S
N434 C435 1.351 . S
C435 C429 1.428 . S
C435 N434 1.351 . S
C435 C436 1.434 . S
C436 C427 1.429 . S
C436 N433 1.350 . S
C436 C435 1.434 . S
C437 C438 1.369 . S
C437 C439 1.419 . S
C437 H441 0.930 . S
C438 C437 1.369 . S
C438 C447 1.429 . S
C439 C437 1.419 . S
C439 C440 1.363 . S
C439 H442 0.929 . S
C440 C439 1.363 . S
C440 C446 1.428 . S
H441 C437 0.930 . S
H442 C439 0.929 . S
S443 N444 1.613 . S
S443 N445 1.610 . S
N444 S443 1.613 . S
N444 C447 1.350 . S
N445 S443 1.610 . S
N445 C446 1.351 . S
C446 C440 1.428 . S
C446 N445 1.351 . S
C446 C447 1.434 . S
C447 C438 1.429 . S
C447 N444 1.350 . S
C447 C446 1.434 . S
C185 C18 1.465 . S
C187 C179 1.465 . S
C196 C156 1.465 . S
C198 C41 1.467 . S
C207 C133 1.467 . S
C209 C64 1.466 . S
C218 C110 1.467 . S
C220 C87 1.466 . S
C229 C66 1.552 . S
C231 C20 1.553 . S
C240 C43 1.554 . S
C242 C89 1.553 . S
C251 C88 1.528 . S
C253 C42 1.527 . S
C262 C65 1.528 . S
C264 C19 1.526 . S
C273 C112 1.551 . S
C275 C158 1.552 . S
C284 C135 1.550 . S
C286 C181 1.551 . S
C295 C180 1.528 . S
C297 C134 1.526 . S
C306 C157 1.528 . S
C308 C111 1.525 . S
C317 C17 1.420 . S
C319 C16 1.420 . S
C328 C40 1.421 . S
C330 C39 1.420 . S
C339 C62 1.420 . S
C341 C63 1.421 . S
C350 C86 1.421 . S
C352 C85 1.420 . S
C361 C108 1.419 . S
C363 C109 1.421 . S
C372 C132 1.421 . S
C374 C131 1.420 . S
C383 C155 1.421 . S
C385 C154 1.419 . S
C394 C178 1.420 . S
C396 C177 1.420 . S
C405 C21 1.476 . S
C407 C44 1.477 . S
C416 C90 1.475 . S
C418 C67 1.476 . S
C427 C113 1.477 . S
C429 C136 1.477 . S
C438 C182 1.475 . S
C440 C159 1.476 . S
