# Generated by pormake.
# Topology wne, (6)-cn, num edge types: 1
# Building blocks:
#     Node 0, Type 0, BuildingBlock: JUFBIX_clean_sbu_0, # of connection points: 6
#     Node 1, Type 0, BuildingBlock: JUFBIX_clean_sbu_0, # of connection points: 6
#     Node 2, Type 0, BuildingBlock: JUFBIX_clean_sbu_0, # of connection points: 6
#     Node 3, Type 0, BuildingBlock: JUFBIX_clean_sbu_0, # of connection points: 6
#     Node 4, Type 0, BuildingBlock: JUFBIX_clean_sbu_0, # of connection points: 6
#     Node 5, Type 0, BuildingBlock: JUFBIX_clean_sbu_0, # of connection points: 6
#     Node 6, Type 0, BuildingBlock: JUFBIX_clean_sbu_0, # of connection points: 6
#     Node 7, Type 0, BuildingBlock: JUFBIX_clean_sbu_0, # of connection points: 6
#     Node 8, Type 0, BuildingBlock: JUFBIX_clean_sbu_0, # of connection points: 6
#     Node 9, Type 0, BuildingBlock: JUFBIX_clean_sbu_0, # of connection points: 6
#     Node 10, Type 0, BuildingBlock: JUFBIX_clean_sbu_0, # of connection points: 6
#     Node 11, Type 0, BuildingBlock: JUFBIX_clean_sbu_0, # of connection points: 6
#     Node 12, Type 0, BuildingBlock: JUFBIX_clean_sbu_0, # of connection points: 6
#     Node 13, Type 0, BuildingBlock: JUFBIX_clean_sbu_0, # of connection points: 6
#     Node 14, Type 0, BuildingBlock: JUFBIX_clean_sbu_0, # of connection points: 6
#     Node 15, Type 0, BuildingBlock: JUFBIX_clean_sbu_0, # of connection points: 6
#     Node 16, Type 0, BuildingBlock: JUFBIX_clean_sbu_0, # of connection points: 6
#     Node 17, Type 0, BuildingBlock: JUFBIX_clean_sbu_0, # of connection points: 6
#     Node 18, Type 0, BuildingBlock: JUFBIX_clean_sbu_0, # of connection points: 6
#     Node 19, Type 0, BuildingBlock: JUFBIX_clean_sbu_0, # of connection points: 6
#     Node 20, Type 0, BuildingBlock: JUFBIX_clean_sbu_0, # of connection points: 6
#     Node 21, Type 0, BuildingBlock: JUFBIX_clean_sbu_0, # of connection points: 6
#     Node 22, Type 0, BuildingBlock: JUFBIX_clean_sbu_0, # of connection points: 6
#     Node 23, Type 0, BuildingBlock: JUFBIX_clean_sbu_0, # of connection points: 6
#     Node 24, Type 0, BuildingBlock: JUFBIX_clean_sbu_0, # of connection points: 6
#     Node 25, Type 0, BuildingBlock: JUFBIX_clean_sbu_0, # of connection points: 6
#     Node 26, Type 0, BuildingBlock: JUFBIX_clean_sbu_0, # of connection points: 6
#     Node 27, Type 0, BuildingBlock: JUFBIX_clean_sbu_0, # of connection points: 6
#     Node 28, Type 0, BuildingBlock: JUFBIX_clean_sbu_0, # of connection points: 6
#     Node 29, Type 0, BuildingBlock: JUFBIX_clean_sbu_0, # of connection points: 6
#     Node 30, Type 0, BuildingBlock: JUFBIX_clean_sbu_0, # of connection points: 6
#     Node 31, Type 0, BuildingBlock: JUFBIX_clean_sbu_0, # of connection points: 6
#     Node 32, Type 0, BuildingBlock: JUFBIX_clean_sbu_0, # of connection points: 6
#     Node 33, Type 0, BuildingBlock: JUFBIX_clean_sbu_0, # of connection points: 6
#     Node 34, Type 0, BuildingBlock: JUFBIX_clean_sbu_0, # of connection points: 6
#     Node 35, Type 0, BuildingBlock: JUFBIX_clean_sbu_0, # of connection points: 6
#     Edge 36, Type (0, 0), BuildingBlock: KIFKEQ_clean_linker_1, # of connection points: 2
#     Edge 37, Type (0, 0), BuildingBlock: KIFKEQ_clean_linker_1, # of connection points: 2
#     Edge 38, Type (0, 0), BuildingBlock: KIFKEQ_clean_linker_1, # of connection points: 2
#     Edge 39, Type (0, 0), BuildingBlock: KIFKEQ_clean_linker_1, # of connection points: 2
#     Edge 40, Type (0, 0), BuildingBlock: KIFKEQ_clean_linker_1, # of connection points: 2
#     Edge 41, Type (0, 0), BuildingBlock: KIFKEQ_clean_linker_1, # of connection points: 2
#     Edge 42, Type (0, 0), BuildingBlock: KIFKEQ_clean_linker_1, # of connection points: 2
#     Edge 43, Type (0, 0), BuildingBlock: KIFKEQ_clean_linker_1, # of connection points: 2
#     Edge 44, Type (0, 0), BuildingBlock: KIFKEQ_clean_linker_1, # of connection points: 2
#     Edge 45, Type (0, 0), BuildingBlock: KIFKEQ_clean_linker_1, # of connection points: 2
#     Edge 46, Type (0, 0), BuildingBlock: KIFKEQ_clean_linker_1, # of connection points: 2
#     Edge 47, Type (0, 0), BuildingBlock: KIFKEQ_clean_linker_1, # of connection points: 2
#     Edge 48, Type (0, 0), BuildingBlock: KIFKEQ_clean_linker_1, # of connection points: 2
#     Edge 49, Type (0, 0), BuildingBlock: KIFKEQ_clean_linker_1, # of connection points: 2
#     Edge 50, Type (0, 0), BuildingBlock: KIFKEQ_clean_linker_1, # of connection points: 2
#     Edge 51, Type (0, 0), BuildingBlock: KIFKEQ_clean_linker_1, # of connection points: 2
#     Edge 52, Type (0, 0), BuildingBlock: KIFKEQ_clean_linker_1, # of connection points: 2
#     Edge 53, Type (0, 0), BuildingBlock: KIFKEQ_clean_linker_1, # of connection points: 2
#     Edge 54, Type (0, 0), BuildingBlock: KIFKEQ_clean_linker_1, # of connection points: 2
#     Edge 55, Type (0, 0), BuildingBlock: KIFKEQ_clean_linker_1, # of connection points: 2
#     Edge 56, Type (0, 0), BuildingBlock: KIFKEQ_clean_linker_1, # of connection points: 2
#     Edge 57, Type (0, 0), BuildingBlock: KIFKEQ_clean_linker_1, # of connection points: 2
#     Edge 58, Type (0, 0), BuildingBlock: KIFKEQ_clean_linker_1, # of connection points: 2
#     Edge 59, Type (0, 0), BuildingBlock: KIFKEQ_clean_linker_1, # of connection points: 2
#     Edge 60, Type (0, 0), BuildingBlock: KIFKEQ_clean_linker_1, # of connection points: 2
#     Edge 61, Type (0, 0), BuildingBlock: KIFKEQ_clean_linker_1, # of connection points: 2
#     Edge 62, Type (0, 0), BuildingBlock: KIFKEQ_clean_linker_1, # of connection points: 2
#     Edge 63, Type (0, 0), BuildingBlock: KIFKEQ_clean_linker_1, # of connection points: 2
#     Edge 64, Type (0, 0), BuildingBlock: KIFKEQ_clean_linker_1, # of connection points: 2
#     Edge 65, Type (0, 0), BuildingBlock: KIFKEQ_clean_linker_1, # of connection points: 2
#     Edge 66, Type (0, 0), BuildingBlock: KIFKEQ_clean_linker_1, # of connection points: 2
#     Edge 67, Type (0, 0), BuildingBlock: KIFKEQ_clean_linker_1, # of connection points: 2
#     Edge 68, Type (0, 0), BuildingBlock: KIFKEQ_clean_linker_1, # of connection points: 2
#     Edge 69, Type (0, 0), BuildingBlock: KIFKEQ_clean_linker_1, # of connection points: 2
#     Edge 70, Type (0, 0), BuildingBlock: KIFKEQ_clean_linker_1, # of connection points: 2
#     Edge 71, Type (0, 0), BuildingBlock: KIFKEQ_clean_linker_1, # of connection points: 2
#     Edge 72, Type (0, 0), BuildingBlock: KIFKEQ_clean_linker_1, # of connection points: 2
#     Edge 73, Type (0, 0), BuildingBlock: KIFKEQ_clean_linker_1, # of connection points: 2
#     Edge 74, Type (0, 0), BuildingBlock: KIFKEQ_clean_linker_1, # of connection points: 2
#     Edge 75, Type (0, 0), BuildingBlock: KIFKEQ_clean_linker_1, # of connection points: 2
#     Edge 76, Type (0, 0), BuildingBlock: KIFKEQ_clean_linker_1, # of connection points: 2
#     Edge 77, Type (0, 0), BuildingBlock: KIFKEQ_clean_linker_1, # of connection points: 2
#     Edge 78, Type (0, 0), BuildingBlock: KIFKEQ_clean_linker_1, # of connection points: 2
#     Edge 79, Type (0, 0), BuildingBlock: KIFKEQ_clean_linker_1, # of connection points: 2
#     Edge 80, Type (0, 0), BuildingBlock: KIFKEQ_clean_linker_1, # of connection points: 2
#     Edge 81, Type (0, 0), BuildingBlock: KIFKEQ_clean_linker_1, # of connection points: 2
#     Edge 82, Type (0, 0), BuildingBlock: KIFKEQ_clean_linker_1, # of connection points: 2
#     Edge 83, Type (0, 0), BuildingBlock: KIFKEQ_clean_linker_1, # of connection points: 2
#     Edge 84, Type (0, 0), BuildingBlock: KIFKEQ_clean_linker_1, # of connection points: 2
#     Edge 85, Type (0, 0), BuildingBlock: KIFKEQ_clean_linker_1, # of connection points: 2
#     Edge 86, Type (0, 0), BuildingBlock: KIFKEQ_clean_linker_1, # of connection points: 2
#     Edge 87, Type (0, 0), BuildingBlock: KIFKEQ_clean_linker_1, # of connection points: 2
#     Edge 88, Type (0, 0), BuildingBlock: KIFKEQ_clean_linker_1, # of connection points: 2
#     Edge 89, Type (0, 0), BuildingBlock: KIFKEQ_clean_linker_1, # of connection points: 2
#     Edge 90, Type (0, 0), BuildingBlock: KIFKEQ_clean_linker_1, # of connection points: 2
#     Edge 91, Type (0, 0), BuildingBlock: KIFKEQ_clean_linker_1, # of connection points: 2
#     Edge 92, Type (0, 0), BuildingBlock: KIFKEQ_clean_linker_1, # of connection points: 2
#     Edge 93, Type (0, 0), BuildingBlock: KIFKEQ_clean_linker_1, # of connection points: 2
#     Edge 94, Type (0, 0), BuildingBlock: KIFKEQ_clean_linker_1, # of connection points: 2
#     Edge 95, Type (0, 0), BuildingBlock: KIFKEQ_clean_linker_1, # of connection points: 2
#     Edge 96, Type (0, 0), BuildingBlock: KIFKEQ_clean_linker_1, # of connection points: 2
#     Edge 97, Type (0, 0), BuildingBlock: KIFKEQ_clean_linker_1, # of connection points: 2
#     Edge 98, Type (0, 0), BuildingBlock: KIFKEQ_clean_linker_1, # of connection points: 2
#     Edge 99, Type (0, 0), BuildingBlock: KIFKEQ_clean_linker_1, # of connection points: 2
#     Edge 100, Type (0, 0), BuildingBlock: KIFKEQ_clean_linker_1, # of connection points: 2
#     Edge 101, Type (0, 0), BuildingBlock: KIFKEQ_clean_linker_1, # of connection points: 2
#     Edge 102, Type (0, 0), BuildingBlock: KIFKEQ_clean_linker_1, # of connection points: 2
#     Edge 103, Type (0, 0), BuildingBlock: KIFKEQ_clean_linker_1, # of connection points: 2
#     Edge 104, Type (0, 0), BuildingBlock: KIFKEQ_clean_linker_1, # of connection points: 2
#     Edge 105, Type (0, 0), BuildingBlock: KIFKEQ_clean_linker_1, # of connection points: 2
#     Edge 106, Type (0, 0), BuildingBlock: KIFKEQ_clean_linker_1, # of connection points: 2
#     Edge 107, Type (0, 0), BuildingBlock: KIFKEQ_clean_linker_1, # of connection points: 2
#     Edge 108, Type (0, 0), BuildingBlock: KIFKEQ_clean_linker_1, # of connection points: 2
#     Edge 109, Type (0, 0), BuildingBlock: KIFKEQ_clean_linker_1, # of connection points: 2
#     Edge 110, Type (0, 0), BuildingBlock: KIFKEQ_clean_linker_1, # of connection points: 2
#     Edge 111, Type (0, 0), BuildingBlock: KIFKEQ_clean_linker_1, # of connection points: 2
#     Edge 112, Type (0, 0), BuildingBlock: KIFKEQ_clean_linker_1, # of connection points: 2
#     Edge 113, Type (0, 0), BuildingBlock: KIFKEQ_clean_linker_1, # of connection points: 2
#     Edge 114, Type (0, 0), BuildingBlock: KIFKEQ_clean_linker_1, # of connection points: 2
#     Edge 115, Type (0, 0), BuildingBlock: KIFKEQ_clean_linker_1, # of connection points: 2
#     Edge 116, Type (0, 0), BuildingBlock: KIFKEQ_clean_linker_1, # of connection points: 2
#     Edge 117, Type (0, 0), BuildingBlock: KIFKEQ_clean_linker_1, # of connection points: 2
#     Edge 118, Type (0, 0), BuildingBlock: KIFKEQ_clean_linker_1, # of connection points: 2
#     Edge 119, Type (0, 0), BuildingBlock: KIFKEQ_clean_linker_1, # of connection points: 2
#     Edge 120, Type (0, 0), BuildingBlock: KIFKEQ_clean_linker_1, # of connection points: 2
#     Edge 121, Type (0, 0), BuildingBlock: KIFKEQ_clean_linker_1, # of connection points: 2
#     Edge 122, Type (0, 0), BuildingBlock: KIFKEQ_clean_linker_1, # of connection points: 2
#     Edge 123, Type (0, 0), BuildingBlock: KIFKEQ_clean_linker_1, # of connection points: 2
#     Edge 124, Type (0, 0), BuildingBlock: KIFKEQ_clean_linker_1, # of connection points: 2
#     Edge 125, Type (0, 0), BuildingBlock: KIFKEQ_clean_linker_1, # of connection points: 2
#     Edge 126, Type (0, 0), BuildingBlock: KIFKEQ_clean_linker_1, # of connection points: 2
#     Edge 127, Type (0, 0), BuildingBlock: KIFKEQ_clean_linker_1, # of connection points: 2
#     Edge 128, Type (0, 0), BuildingBlock: KIFKEQ_clean_linker_1, # of connection points: 2
#     Edge 129, Type (0, 0), BuildingBlock: KIFKEQ_clean_linker_1, # of connection points: 2
#     Edge 130, Type (0, 0), BuildingBlock: KIFKEQ_clean_linker_1, # of connection points: 2
#     Edge 131, Type (0, 0), BuildingBlock: KIFKEQ_clean_linker_1, # of connection points: 2
#     Edge 132, Type (0, 0), BuildingBlock: KIFKEQ_clean_linker_1, # of connection points: 2
#     Edge 133, Type (0, 0), BuildingBlock: KIFKEQ_clean_linker_1, # of connection points: 2
#     Edge 134, Type (0, 0), BuildingBlock: KIFKEQ_clean_linker_1, # of connection points: 2
#     Edge 135, Type (0, 0), BuildingBlock: KIFKEQ_clean_linker_1, # of connection points: 2
#     Edge 136, Type (0, 0), BuildingBlock: KIFKEQ_clean_linker_1, # of connection points: 2
#     Edge 137, Type (0, 0), BuildingBlock: KIFKEQ_clean_linker_1, # of connection points: 2
#     Edge 138, Type (0, 0), BuildingBlock: KIFKEQ_clean_linker_1, # of connection points: 2
#     Edge 139, Type (0, 0), BuildingBlock: KIFKEQ_clean_linker_1, # of connection points: 2
#     Edge 140, Type (0, 0), BuildingBlock: KIFKEQ_clean_linker_1, # of connection points: 2
#     Edge 141, Type (0, 0), BuildingBlock: KIFKEQ_clean_linker_1, # of connection points: 2
#     Edge 142, Type (0, 0), BuildingBlock: KIFKEQ_clean_linker_1, # of connection points: 2
#     Edge 143, Type (0, 0), BuildingBlock: KIFKEQ_clean_linker_1, # of connection points: 2
# Relax obj value: 0.252
# Max RMSD: 0.204
# Mean RMSD: 0.204
data_MOF--net-wne--node1-JUFBIX_clean_sbu_0--edge1-KIFKEQ_clean_linker_1
_symmetry_space_group_name_H-M    P1
_symmetry_Int_Tables_number       1
_symmetry_cell_setting            triclinic
loop_
_symmetry_equiv_pos_as_xyz
'x, y, z'
_cell_length_a     72.376014
_cell_length_b     72.407058
_cell_length_c     37.971615
_cell_angle_alpha  90.122823
_cell_angle_beta   89.91127
_cell_angle_gamma 120.02408
loop_
_atom_site_label
_atom_site_type_symbol
_atom_site_fract_x
_atom_site_fract_y
_atom_site_fract_z
_atom_type_partial_charge
Co0 Co 0.24816 0.22258 0.0789 0.0
C1 C 0.28601 0.2362 0.03732 0.0
Co2 Co 0.27626 0.22627 0.10775 0.0
C3 C 0.21057 0.22624 0.05777 0.0
C4 C 0.21702 0.20665 1.02348 0.0
N5 N 0.22422 0.21867 0.05287 0.0
N6 N 0.19506 0.21912 0.03278 0.0
C7 C 0.19921 0.20681 1.01129 0.0
H8 H 0.2118 0.23651 0.07948 0.0
H9 H 0.22431 0.19828 1.01152 0.0
C10 C 0.24102 0.21418 0.15212 0.0
N11 N 0.29943 0.2303 0.13315 0.0
C12 C 0.3108 0.22066 0.12671 0.0
C13 C 0.30613 0.23973 0.16482 0.0
N14 N 0.32357 0.22256 0.1539 0.0
C15 C 0.32097 0.23493 0.17774 0.0
C16 C 0.27319 0.26305 0.10457 0.0
O17 O 0.23141 0.21453 0.12392 0.0
O18 O 0.26013 0.21825 0.14946 0.0
O19 O 0.28405 0.25494 0.11588 0.0
O20 O 0.25623 0.2515 0.0872 0.0
O21 O 0.29301 0.23445 0.06688 0.0
H22 H 0.29934 0.24795 0.17886 0.0
H23 H 0.30846 0.21105 0.10351 0.0
O24 O 0.26645 0.23166 0.03523 0.0
O25 O 0.2402 0.19284 0.07034 0.0
O26 O 0.26831 0.19727 0.09901 0.0
C27 C 0.25175 0.18526 0.08111 0.0
H28 H 0.19019 0.1987 0.98796 0.0
H29 H 0.3276 0.23847 0.20405 0.0
Co30 Co 0.79912 0.03121 0.08432 0.0
C31 C 0.78385 0.05515 0.04587 0.0
Co32 Co 0.79465 0.05443 0.11547 0.0
C33 C 0.79656 0.99104 0.06089 0.0
C34 C 0.81577 0.01751 1.02723 0.0
N35 N 0.80372 0.0122 0.05662 0.0
N36 N 0.80388 0.98309 0.03549 0.0
C37 C 0.81598 0.99981 1.01438 0.0
H38 H 0.78641 0.98172 0.08249 0.0
H39 H 0.82394 0.0333 1.0158 0.0
C40 C 0.80834 0.03164 0.15688 0.0
N41 N 0.78964 0.07209 0.14368 0.0
C42 C 0.79999 0.09351 0.14318 0.0
C43 C 0.77826 0.06655 0.1739 0.0
N44 N 0.79618 0.10158 0.17241 0.0
C45 C 0.78246 0.08473 0.19184 0.0
C46 C 0.7587 0.01381 0.11068 0.0
O47 O 0.80765 0.02193 0.12814 0.0
O48 O 0.80386 0.04639 0.15549 0.0
O49 O 0.76641 0.03236 0.1237 0.0
O50 O 0.77048 0.0095 0.0917 0.0
O51 O 0.78519 0.0629 0.07632 0.0
H52 H 0.76921 0.05045 0.18393 0.0
H53 H 0.812 0.10307 0.12384 0.0
O54 O 0.78966 0.04111 0.04191 0.0
O55 O 0.82841 0.05359 0.07665 0.0
O56 O 0.82331 0.07661 0.10636 0.0
C57 C 0.83559 0.07254 0.08806 0.0
H58 H 0.82418 0.99926 0.99089 0.0
H59 H 0.7775 0.08553 0.21844 0.0
Co60 Co 0.99106 0.77418 0.08024 0.0
C61 C 0.96703 0.73674 0.03798 0.0
Co62 Co 0.9667 0.74576 0.1088 0.0
C63 C 0.03211 0.81193 0.05859 0.0
C64 C 1.00561 0.80616 1.02613 0.0
N65 N 1.01076 0.79853 0.05453 0.0
N66 N 0.04028 0.8277 0.03404 0.0
C67 C 0.02351 0.82397 1.01372 0.0
H68 H 0.04144 0.81028 0.07931 0.0
H69 H 0.98979 0.79912 1.01488 0.0
C70 C 0.98971 0.78059 0.15375 0.0
N71 N 0.94805 0.72197 0.13385 0.0
C72 C 0.92674 0.71085 0.1302 0.0
C73 C 0.9523 0.71268 0.16097 0.0
N74 N 0.91735 0.69521 0.15432 0.0
C75 C 0.93343 0.69621 0.17365 0.0
C76 C 1.00708 0.74959 0.1042 0.0
O77 O 0.99952 0.79047 0.12559 0.0
O78 O 0.97483 0.7614 0.15098 0.0
O79 O 0.98809 0.73847 0.11535 0.0
O80 O 1.01237 0.76669 0.08752 0.0
O81 O 0.95812 0.72948 0.06739 0.0
H82 H 0.96801 0.71805 0.17177 0.0
H83 H 0.91821 0.71505 0.11149 0.0
O84 O 0.98208 0.7563 0.03629 0.0
O85 O 0.96882 0.78158 0.07272 0.0
O86 O 0.9453 0.75335 0.10146 0.0
C87 C 0.94974 0.76994 0.08379 0.0
H88 H 0.02417 0.83324 0.99093 0.0
H89 H 0.93171 0.68639 0.19624 0.0
Co90 Co 0.22673 0.24356 0.48113 0.0
C91 C 0.24162 0.2829 0.51952 0.0
Co92 Co 0.2303 0.27088 0.45009 0.0
C93 C 0.23045 0.20643 0.5042 0.0
C94 C 0.21196 0.21406 0.53903 0.0
N95 N 0.22326 0.22039 0.50884 0.0
N96 N 0.22381 0.19155 0.53014 0.0
C97 C 0.21218 0.19644 0.55198 0.0
H98 H 0.24007 0.20695 0.48194 0.0
H99 H 0.20398 0.22177 0.55092 0.0
C100 C 0.21732 0.23441 0.40857 0.0
N101 N 0.23389 0.29311 0.42221 0.0
C102 C 0.22212 0.30268 0.42391 0.0
C103 C 0.24403 0.29903 0.39088 0.0
N104 N 0.22332 0.31318 0.39405 0.0
C105 C 0.2375 0.3114 0.37342 0.0
C106 C 0.26687 0.2675 0.45328 0.0
O107 O 0.21837 0.22563 0.43729 0.0
O108 O 0.22108 0.25342 0.41004 0.0
O109 O 0.25869 0.27799 0.44058 0.0
O110 O 0.25556 0.25145 0.47262 0.0
O111 O 0.23981 0.28903 0.48916 0.0
H112 H 0.25362 0.29283 0.3798 0.0
H113 H 0.21121 0.30025 0.44523 0.0
O114 O 0.23621 0.26316 0.52346 0.0
O115 O 0.19708 0.23564 0.48998 0.0
O116 O 0.20146 0.26342 0.46046 0.0
C117 C 0.18952 0.24714 0.47898 0.0
H118 H 0.20455 0.18801 0.57599 0.0
H119 H 0.24095 0.31647 0.34623 0.0
Co120 Co 0.77827 0.9881 0.48358 0.0
C121 C 0.7385 0.96358 0.52046 0.0
Co122 Co 0.75125 0.96456 0.45143 0.0
C123 C 0.81509 0.02903 0.50731 0.0
C124 C 0.80718 1.00306 0.54247 0.0
N125 N 0.8011 1.00787 0.51192 0.0
N126 N 0.82974 0.03742 0.53361 0.0
C127 C 0.82468 0.02099 0.55566 0.0
H128 H 0.81477 0.03801 0.4848 0.0
H129 H 0.79939 0.9874 0.55442 0.0
C130 C 0.78824 0.98805 0.41142 0.0
N131 N 0.72937 0.94583 0.42265 0.0
C132 C 0.72041 0.92451 0.4231 0.0
C133 C 0.72333 0.95028 0.39165 0.0
N134 N 0.71014 0.91552 0.39287 0.0
C135 C 0.71147 0.93158 0.37321 0.0
C136 C 0.75445 1.00427 0.45484 0.0
O137 O 0.7968 0.99762 0.44047 0.0
O138 O 0.76906 0.97311 0.41211 0.0
O139 O 0.744 0.98563 0.44199 0.0
O140 O 0.77047 0.00903 0.47432 0.0
O141 O 0.73272 0.95557 0.48999 0.0
H142 H 0.7291 0.96618 0.38144 0.0
H143 H 0.72308 0.91587 0.4438 0.0
O144 O 0.75817 0.97801 0.525 0.0
O145 O 0.78602 0.96636 0.4933 0.0
O146 O 0.75893 0.9435 0.4617 0.0
C147 C 0.77476 0.94751 0.48118 0.0
H148 H 0.83291 0.02191 0.57995 0.0
H149 H 0.70638 0.93023 0.34606 0.0
Co150 Co 0.0336 0.79405 0.4825 0.0
C151 C 0.05768 0.77953 0.52185 0.0
Co152 Co 0.05724 0.79019 0.45167 0.0
C153 C 0.99295 0.7912 0.50444 0.0
C154 C 0.01898 0.80964 0.53941 0.0
N155 N 0.014 0.79806 0.5095 0.0
N156 N 0.98479 0.79832 0.52986 0.0
C157 C 1.00125 0.80991 0.5518 0.0
H158 H 0.98388 0.7815 0.48226 0.0
H159 H 0.03462 0.81749 0.55147 0.0
C160 C 0.03413 0.80295 0.40949 0.0
N161 N 0.07605 0.78616 0.42525 0.0
C162 C 0.09698 0.79509 0.43204 0.0
C163 C 0.07339 0.77764 0.3928 0.0
N164 N 0.10789 0.79369 0.40441 0.0
C165 C 0.09301 0.78233 0.37982 0.0
C166 C 0.01732 0.75374 0.45552 0.0
O167 O 0.02428 0.80205 0.43817 0.0
O168 O 0.04935 0.79912 0.41101 0.0
O169 O 0.03595 0.76184 0.44258 0.0
O170 O 1.01258 0.76518 0.47466 0.0
O171 O 0.06551 0.78097 0.49149 0.0
H172 H 0.05849 0.77019 0.37841 0.0
H173 H 0.10417 0.80389 0.45595 0.0
O174 O 0.0434 0.785 0.52552 0.0
O175 O 0.05536 0.82363 0.49055 0.0
O176 O 0.07875 0.81896 0.46132 0.0
C177 C 0.07439 0.83107 0.4794 0.0
H178 H 1.00047 0.81783 0.5755 0.0
H179 H 0.09621 0.77947 0.35311 0.0
Co180 Co 0.74991 0.79253 0.95135 0.0
C181 C 0.78625 0.80581 0.90963 0.0
Co182 Co 0.77725 0.79611 0.98217 0.0
C183 C 0.72756 0.80274 0.90165 0.0
C184 C 0.70812 0.77072 0.91986 0.0
N185 N 0.72737 0.78835 0.92405 0.0
N186 N 0.70924 0.79496 0.88338 0.0
C187 C 0.69686 0.77477 0.89484 0.0
H188 H 0.74087 0.81884 0.89942 0.0
H189 H 0.70268 0.75591 0.93395 0.0
C190 C 0.73817 0.78096 1.02074 0.0
N191 N 0.80074 0.80015 1.00955 0.0
C192 C 0.81483 0.79312 1.00477 0.0
C193 C 0.80734 0.81182 0.03937 0.0
N194 N 0.83002 0.8002 1.03026 0.0
C195 C 0.82523 0.81196 0.05196 0.0
C196 C 0.77296 0.83302 0.98008 0.0
O197 O 0.73195 0.78267 0.99043 0.0
O198 O 0.75797 0.78665 1.02471 0.0
O199 O 0.78474 0.82565 0.99057 0.0
O200 O 0.75645 0.82095 0.96204 0.0
O201 O 0.79499 0.80452 0.93821 0.0
H202 H 0.79962 0.81981 0.05124 0.0
H203 H 0.81415 0.7833 0.98273 0.0
O204 O 0.76724 0.80208 0.9112 0.0
O205 O 0.74343 0.76438 0.94141 0.0
O206 O 0.76965 0.76727 0.97408 0.0
C207 C 0.75365 0.75604 0.95452 0.0
H208 H 0.68081 0.76374 0.88601 0.0
H209 H 0.83389 0.81991 0.07565 0.0
Co210 Co 0.23176 0.96366 0.94867 0.0
C211 C 0.21853 0.9861 0.90618 0.0
Co212 Co 0.22734 0.98701 0.97959 0.0
C213 C 0.22746 0.92417 0.92672 0.0
C214 C 0.24953 0.94971 0.89398 0.0
N215 N 0.23688 0.94537 0.92247 0.0
N216 N 0.23329 0.91488 0.90169 0.0
C217 C 0.24733 0.93095 0.88107 0.0
H218 H 0.21549 0.91557 0.94662 0.0
H219 H 0.25906 0.96536 0.88247 0.0
C220 C 0.24236 0.96351 1.01911 0.0
N221 N 0.22261 1.00634 1.00626 0.0
C222 C 0.22957 0.02743 1.00142 0.0
C223 C 0.2105 1.00119 0.03557 0.0
N224 N 0.22203 0.03546 1.02637 0.0
C225 C 0.21004 0.01887 0.0478 0.0
C226 C 0.19074 0.94571 0.9763 0.0
O227 O 0.24107 0.95575 0.98873 0.0
O228 O 0.23663 0.9776 1.02281 0.0
O229 O 0.19799 0.96474 0.98737 0.0
O230 O 0.20296 0.94155 0.95804 0.0
O231 O 0.21912 0.99584 0.93487 0.0
H232 H 0.20247 0.98551 0.04741 0.0
H233 H 0.2397 0.03663 0.97973 0.0
O234 O 0.22276 0.97115 0.90774 0.0
O235 O 0.26016 0.98576 0.94011 0.0
O236 O 0.25596 1.00856 0.97217 0.0
C237 C 0.26778 1.00434 0.95309 0.0
H238 H 0.25477 0.92925 0.85751 0.0
H239 H 0.20174 0.01951 0.0711 0.0
Co240 Co 0.05689 0.27278 0.95549 0.0
C241 C 0.03409 0.23708 0.9123 0.0
Co242 Co 0.03388 0.24455 0.98578 0.0
C243 C 0.09582 0.30711 0.92892 0.0
C244 C 0.06875 0.30396 0.90102 0.0
N245 N 0.0744 0.29616 0.92867 0.0
N246 N 0.10384 0.32096 0.90197 0.0
C247 C 0.08686 0.3192 0.88447 0.0
H248 H 0.1054 0.30363 0.94658 0.0
H249 H 0.05258 0.2979 0.89189 0.0
C250 C 0.05786 0.28284 1.02609 0.0
N251 N 0.0151 0.22043 1.01248 0.0
C252 C 0.99382 0.20674 1.00869 0.0
C253 C 0.02062 0.21312 0.04088 0.0
N254 N 0.98599 0.19113 0.03343 0.0
C255 C 1.00292 0.1952 0.05361 0.0
C256 C 0.07539 0.24981 0.98061 0.0
O257 O 0.06562 0.28991 0.99592 0.0
O258 O 0.04359 0.26303 1.02906 0.0
O259 O 0.05649 0.23782 0.99208 0.0
O260 O 0.07925 0.26627 0.96294 0.0
O261 O 0.02466 0.22756 0.94092 0.0
H262 H 0.03653 0.22043 0.05183 0.0
H263 H 0.9843 0.20808 0.98797 0.0
O264 O 0.04873 0.25638 0.91428 0.0
O265 O 0.0345 0.27888 0.94885 0.0
O266 O 1.01203 0.25127 0.97998 0.0
C267 C 0.01603 0.26753 0.9619 0.0
H268 H 0.08748 0.32724 0.86011 0.0
H269 H 1.0025 0.18609 0.07648 0.0
Co270 Co 0.79468 0.74616 0.61317 0.0
C271 C 0.80822 0.78269 0.65468 0.0
Co272 Co 0.79868 0.77361 0.58222 0.0
C273 C 0.80061 0.71228 0.63505 0.0
C274 C 0.78231 0.71828 0.67287 0.0
N275 N 0.79092 0.72372 0.64042 0.0
N276 N 0.79963 0.70085 0.66361 0.0
C277 C 0.78772 0.70422 0.6873 0.0
H278 H 0.80977 0.7138 0.61162 0.0
H279 H 0.77444 0.72561 0.68639 0.0
C280 C 0.78339 0.73431 0.54367 0.0
N281 N 0.8024 0.79678 0.55448 0.0
C282 C 0.79648 0.81171 0.5596 0.0
C283 C 0.81174 0.80137 0.52251 0.0
N284 N 0.80164 0.82522 0.53182 0.0
C285 C 0.81129 0.81866 0.50863 0.0
C286 C 0.83545 0.76954 0.58424 0.0
O287 O 0.785 0.7281 0.57403 0.0
O288 O 0.789 0.75409 0.53981 0.0
O289 O 0.8281 0.78123 0.57326 0.0
O290 O 0.8234 0.75329 0.60275 0.0
O291 O 0.80731 0.79155 0.62597 0.0
H292 H 0.81834 0.79254 0.50988 0.0
H293 H 0.78809 0.81229 0.58281 0.0
O294 O 0.80409 0.76355 0.65327 0.0
O295 O 0.7664 0.73928 0.62285 0.0
O296 O 0.76992 0.766 0.59082 0.0
C297 C 0.75843 0.74993 0.61006 0.0
H298 H 0.78505 0.6988 0.71435 0.0
H299 H 0.8177 0.82589 0.48331 0.0
Co300 Co 0.27629 0.0524 0.60665 0.0
C301 C 0.24083 0.03 0.65053 0.0
Co302 Co 0.24765 0.02946 0.57698 0.0
C303 C 0.31063 0.0913 0.63365 0.0
C304 C 0.30815 0.06411 0.66006 0.0
N305 N 0.29997 0.06988 0.63311 0.0
N306 N 0.32464 0.09916 0.66045 0.0
C307 C 0.32332 0.08211 0.67698 0.0
H308 H 0.30681 0.10095 0.61678 0.0
H309 H 0.30237 0.04789 0.6686 0.0
C310 C 0.28567 0.05296 0.53586 0.0
N311 N 0.22322 0.01073 0.55086 0.0
C312 C 0.20935 0.98956 0.5553 0.0
C313 C 0.21572 0.01611 0.52256 0.0
N314 N 0.19345 0.98165 0.53104 0.0
C315 C 0.19751 0.99843 0.5105 0.0
C316 C 0.25337 0.07112 0.58206 0.0
O317 O 0.29313 0.06084 0.56583 0.0
O318 O 0.26577 0.03885 0.53337 0.0
O319 O 0.24112 0.05221 0.57085 0.0
O320 O 0.26995 0.07489 0.59931 0.0
O321 O 0.23104 0.02056 0.62209 0.0
H322 H 0.22308 0.03192 0.51123 0.0
H323 H 0.21077 0.98018 0.57616 0.0
O324 O 0.26017 0.04451 0.64823 0.0
O325 O 0.28214 0.02983 0.61315 0.0
O326 O 0.25416 1.00744 0.58261 0.0
C327 C 0.27051 0.01132 0.60039 0.0
H328 H 0.33156 0.08257 0.701 0.0
H329 H 0.18819 0.99791 0.48785 0.0
Co330 Co 0.96909 0.22866 0.61416 0.0
C331 C 0.99069 0.21438 0.6564 0.0
Co332 Co 0.99173 0.22336 0.58299 0.0
C333 C 0.936 0.22053 0.66237 0.0
C334 C 0.94956 0.25197 0.64095 0.0
N335 N 0.95125 0.23424 0.64044 0.0
N336 N 0.92455 0.22874 0.67622 0.0
C337 C 0.93294 0.24854 0.66279 0.0
H338 H 0.93249 0.20428 0.66633 0.0
H339 H 0.95921 0.2661 0.62538 0.0
C340 C 0.96918 0.23949 0.54377 0.0
N341 N 1.01073 0.21811 0.55625 0.0
C342 C 0.03193 0.22529 0.56047 0.0
C343 C 1.00527 0.20551 0.52749 0.0
N344 N 0.03974 0.21743 0.53566 0.0
C345 C 0.02288 0.20499 0.51499 0.0
C346 C 0.95 0.1876 0.58626 0.0
O347 O 0.96201 0.23893 0.57438 0.0
O348 O 0.98236 0.23262 0.5397 0.0
O349 O 0.96905 0.19415 0.57586 0.0
O350 O 0.9462 0.20039 0.60365 0.0
O351 O 1.00058 0.21516 0.62779 0.0
H352 H 0.98944 0.19722 0.51618 0.0
H353 H 0.04139 0.23586 0.58158 0.0
O354 O 0.97583 0.21872 0.65478 0.0
O355 O 0.99187 0.25658 0.62404 0.0
O356 O 0.01357 0.25186 0.58981 0.0
C357 C 1.01011 0.26382 0.60989 0.0
H358 H 0.92692 0.25935 0.66724 0.0
H359 H 0.02328 0.19635 0.49197 0.0
Co360 Co 0.91381 0.55552 0.4149 0.0
C361 C 0.95282 0.57054 0.37585 0.0
Co362 Co 0.94126 0.55909 0.44554 0.0
C363 C 0.87657 0.55936 0.39219 0.0
C364 C 0.88375 0.54034 0.3578 0.0
N365 N 0.89037 0.55194 0.38768 0.0
N366 N 0.86151 0.55255 0.36648 0.0
C367 C 0.86612 0.54059 0.34492 0.0
H368 H 0.87736 0.56928 0.41416 0.0
H369 H 0.89129 0.53216 0.34601 0.0
C370 C 0.90513 0.54598 0.48769 0.0
N371 N 0.96385 0.56277 0.47234 0.0
C372 C 0.97506 0.55284 0.46699 0.0
C373 C 0.96962 0.57163 0.5046 0.0
N374 N 0.98668 0.55394 0.49538 0.0
C375 C 0.98367 0.56616 0.51892 0.0
C376 C 0.93783 0.59557 0.44294 0.0
O377 O 0.89623 0.54714 0.45916 0.0
O378 O 0.92414 0.5497 0.48591 0.0
O379 O 0.9483 0.58734 0.45553 0.0
O380 O 0.92173 0.58432 0.42358 0.0
O381 O 0.95908 0.56878 0.4061 0.0
H382 H 0.96254 0.57975 0.51809 0.0
H383 H 0.97328 0.54345 0.44372 0.0
O384 O 0.93303 0.56501 0.37213 0.0
O385 O 0.90593 0.5259 0.40594 0.0
O386 O 0.93399 0.53042 0.43487 0.0
C387 C 0.91759 0.51844 0.41658 0.0
H388 H 0.8575 0.53277 0.32113 0.0
H389 H 0.98932 0.56903 0.54585 0.0
Co390 Co 0.46548 0.36222 0.41306 0.0
C391 C 0.45079 0.3869 0.37526 0.0
Co392 Co 0.4615 0.38556 0.4447 0.0
C393 C 0.46292 0.32209 0.38894 0.0
C394 C 0.47917 0.34806 0.35294 0.0
N395 N 0.46952 0.34314 0.38466 0.0
N396 N 0.4679 0.31373 0.36088 0.0
C397 C 0.47819 0.33017 0.33836 0.0
H398 H 0.45405 0.31294 0.41168 0.0
H399 H 0.4862 0.36365 0.34086 0.0
C400 C 0.47442 0.36195 0.48562 0.0
N401 N 0.45679 0.40329 0.47312 0.0
C402 C 0.4677 0.4247 0.47321 0.0
C403 C 0.44413 0.39777 0.50187 0.0
N404 N 0.4629 0.4328 0.50138 0.0
C405 C 0.44791 0.41593 0.51939 0.0
C406 C 0.42509 0.34529 0.43945 0.0
O407 O 0.47372 0.35242 0.45664 0.0
O408 O 0.47032 0.37698 0.48461 0.0
O409 O 0.43313 0.36383 0.45257 0.0
O410 O 0.43665 0.34072 0.42038 0.0
O411 O 0.45241 0.39462 0.40579 0.0
H412 H 0.43399 0.38161 0.511 0.0
H413 H 0.48035 0.43416 0.45477 0.0
O414 O 0.45615 0.37256 0.37105 0.0
O415 O 0.49506 0.38443 0.4053 0.0
O416 O 0.4903 0.40738 0.43589 0.0
C417 C 0.50244 0.40335 0.41718 0.0
H418 H 0.4846 0.32937 0.313 0.0
H419 H 0.44128 0.41663 0.5446 0.0
Co420 Co 0.65902 0.10704 0.41471 0.0
C421 C 0.635 0.06817 0.37565 0.0
Co422 Co 0.63525 0.07968 0.44556 0.0
C423 C 0.69998 0.14436 0.39226 0.0
C424 C 0.67386 0.13711 0.35773 0.0
N425 N 0.6788 0.13048 0.38757 0.0
N426 N 0.70825 0.15948 0.3667 0.0
C427 C 0.69174 0.15483 0.34504 0.0
H428 H 0.70906 0.14359 0.41427 0.0
H429 H 0.65818 0.12952 0.34587 0.0
C430 C 0.65828 0.11574 0.4876 0.0
N431 N 0.61632 0.05701 0.47209 0.0
C432 C 0.5954 0.04506 0.46527 0.0
C433 C 0.61891 0.05132 0.50466 0.0
N434 N 0.58442 0.03292 0.49296 0.0
C435 C 0.59925 0.03652 0.51766 0.0
C436 C 0.67514 0.08307 0.44236 0.0
O437 O 0.66826 0.12459 0.45897 0.0
O438 O 0.64302 0.09672 0.48601 0.0
O439 O 0.65648 0.07262 0.45521 0.0
O440 O 0.67993 0.09914 0.42302 0.0
O441 O 0.62711 0.06196 0.40599 0.0
H442 H 0.63379 0.0588 0.5191 0.0
H443 H 0.58824 0.04655 0.44126 0.0
O444 O 0.64927 0.08793 0.37183 0.0
O445 O 0.63733 0.1149 0.40617 0.0
O446 O 0.6138 0.08694 0.43533 0.0
C447 C 0.61823 0.10333 0.4171 0.0
H448 H 0.69258 0.16349 0.32132 0.0
H449 H 0.59599 0.0306 0.54441 0.0
Co450 Co 0.89356 0.57711 0.818 0.0
C451 C 0.90814 0.6153 0.8584 0.0
Co452 Co 0.89938 0.60548 0.78749 0.0
C453 C 0.89584 0.53932 0.84097 0.0
C454 C 0.8749 0.54529 0.87264 0.0
N455 N 0.88799 0.55282 0.84452 0.0
N456 N 0.88797 0.52363 0.86559 0.0
C457 C 0.87477 0.52745 0.88544 0.0
H458 H 0.90697 0.54087 0.82054 0.0
H459 H 0.8661 0.55244 0.88343 0.0
C460 C 0.8861 0.56985 0.7442 0.0
N461 N 0.90554 0.62904 0.76108 0.0
C462 C 0.89563 0.64051 0.76245 0.0
C463 C 0.91894 0.63689 0.73332 0.0
N464 N 0.9018 0.65481 0.73613 0.0
C465 C 0.91662 0.65273 0.71783 0.0
C466 C 0.93462 0.59985 0.79409 0.0
O467 O 0.88552 0.56017 0.7729 0.0
O468 O 0.89132 0.5893 0.74613 0.0
O469 O 0.92781 0.61146 0.78114 0.0
O470 O 0.92209 0.58354 0.81191 0.0
O471 O 0.90761 0.62242 0.82823 0.0
H472 H 0.92874 0.6306 0.72357 0.0
H473 H 0.88281 0.63721 0.78062 0.0
O474 O 0.90252 0.59548 0.86135 0.0
O475 O 0.86431 0.57082 0.82472 0.0
O476 O 0.87058 0.59908 0.79447 0.0
C477 C 0.85775 0.58296 0.81263 0.0
H478 H 0.86594 0.51824 0.90816 0.0
H479 H 0.92422 0.66109 0.69377 0.0
Co480 Co 0.44495 0.32046 0.81499 0.0
C481 C 0.40737 0.29667 0.85724 0.0
Co482 Co 0.41658 0.29613 0.78658 0.0
C483 C 0.48308 0.36147 0.83506 0.0
C484 C 0.47657 0.33563 0.86968 0.0
N485 N 0.46919 0.34038 0.84051 0.0
N486 N 0.4989 0.36986 0.8595 0.0
C487 C 0.49471 0.35352 0.88122 0.0
H488 H 0.48178 0.37041 0.81333 0.0
H489 H 0.46919 0.32006 0.8819 0.0
C490 C 0.45157 0.31882 0.74167 0.0
N491 N 0.39313 0.27709 0.76163 0.0
C492 C 0.38148 0.25615 0.7684 0.0
C493 C 0.38627 0.27977 0.73012 0.0
N494 N 0.36836 0.24525 0.74155 0.0
C495 C 0.37105 0.26015 0.71761 0.0
C496 C 0.42012 0.33619 0.78998 0.0
O497 O 0.46138 0.32885 0.76973 0.0
O498 O 0.43241 0.30393 0.74458 0.0
O499 O 0.40907 0.31719 0.77877 0.0
O500 O 0.43713 0.34151 0.8071 0.0
O501 O 0.40012 0.28785 0.82778 0.0
H502 H 0.39318 0.2947 0.7159 0.0
H503 H 0.38385 0.24894 0.79158 0.0
O504 O 0.427 0.31158 0.85902 0.0
O505 O 0.45268 0.29857 0.82308 0.0
O506 O 0.42429 0.27488 0.79492 0.0
C507 C 0.44099 0.27943 0.81237 0.0
H508 H 0.50395 0.35449 0.90426 0.0
H509 H 0.36421 0.25699 0.69146 0.0
Co510 Co 0.70209 0.12868 0.81594 0.0
C511 C 0.7264 0.11441 0.85562 0.0
Co512 Co 0.72615 0.12509 0.7856 0.0
C513 C 0.66104 0.12523 0.83848 0.0
C514 C 0.6868 0.14222 0.87463 0.0
N515 N 0.6822 0.13231 0.84312 0.0
N516 N 0.65235 0.13019 0.86614 0.0
C517 C 0.66868 0.14094 0.88872 0.0
H518 H 0.65206 0.11603 0.81583 0.0
H519 H 0.70236 0.14962 0.88696 0.0
C520 C 0.70288 0.13756 0.74296 0.0
N521 N 0.74503 0.12098 0.75929 0.0
C522 C 0.76616 0.13027 0.7646 0.0
C523 C 0.74133 0.10987 0.72904 0.0
N524 N 0.77599 0.12592 0.73849 0.0
C525 C 0.76044 0.113 0.71603 0.0
C526 C 0.68623 0.08835 0.78936 0.0
O527 O 0.69297 0.13681 0.77153 0.0
O528 O 0.71805 0.13365 0.74476 0.0
O529 O 0.705 0.09657 0.77698 0.0
O530 O 0.68115 0.09978 0.8078 0.0
O531 O 0.73463 0.11623 0.82551 0.0
H532 H 0.72594 0.10103 0.71633 0.0
H533 H 0.77441 0.14139 0.78583 0.0
O534 O 0.71181 0.1195 0.85892 0.0
O535 O 0.72385 0.15834 0.82436 0.0
O536 O 0.74741 0.15393 0.79495 0.0
C537 C 0.74293 0.16591 0.81318 0.0
H538 H 0.66764 0.14747 0.91383 0.0
H539 H 0.76284 0.10726 0.69107 0.0
Co540 Co 0.41675 0.12217 0.28537 0.0
C541 C 0.45238 0.13538 0.24211 0.0
Co542 Co 0.44518 0.12795 0.31573 0.0
C543 C 0.38234 0.12658 0.2587 0.0
C544 C 0.38515 0.10223 0.23148 0.0
N545 N 0.39318 0.11601 0.25875 0.0
N546 N 0.36832 0.12048 0.23192 0.0
C547 C 0.36987 0.10499 0.21485 0.0
H548 H 0.38599 0.13987 0.27601 0.0
H549 H 0.39106 0.09193 0.22263 0.0
C550 C 0.40699 0.11345 0.35621 0.0
N551 N 0.46951 0.13363 0.3422 0.0
C552 C 0.48344 0.12637 0.33798 0.0
C553 C 0.47682 0.14648 0.37065 0.0
N554 N 0.49919 0.13437 0.36252 0.0
C555 C 0.49497 0.14703 0.38301 0.0
C556 C 0.4395 0.16385 0.31018 0.0
O557 O 0.39982 0.11409 0.32612 0.0
O558 O 0.4268 0.11897 0.35904 0.0
O559 O 0.4515 0.15717 0.32241 0.0
O560 O 0.42328 0.15105 0.29213 0.0
O561 O 0.4621 0.13599 0.27075 0.0
H562 H 0.46935 0.15487 0.38189 0.0
H563 H 0.48217 0.1156 0.31709 0.0
O564 O 0.4329 0.13009 0.24404 0.0
O565 O 0.41071 0.09368 0.27923 0.0
O566 O 0.43879 0.09943 0.30962 0.0
C567 C 0.42239 0.08688 0.29196 0.0
H568 H 0.36164 0.09726 0.19075 0.0
H569 H 0.50413 0.1558 0.40583 0.0
Co570 Co 0.89903 0.29759 0.28436 0.0
C571 C 0.88511 0.3195 0.24205 0.0
Co572 Co 0.89437 0.32079 0.31521 0.0
C573 C 0.89553 0.25843 0.26241 0.0
C574 C 0.91715 0.28415 0.2295 0.0
N575 N 0.9045 0.27959 0.25806 0.0
N576 N 0.90164 0.24938 0.23738 0.0
C577 C 0.91539 0.26557 0.21666 0.0
H578 H 0.88365 0.24967 0.28235 0.0
H579 H 0.92637 0.29982 0.21791 0.0
C580 C 0.9099 0.29769 0.35463 0.0
N581 N 0.88938 0.33991 0.34193 0.0
C582 C 0.89616 0.36095 0.33703 0.0
C583 C 0.87735 0.33471 0.37132 0.0
N584 N 0.88859 0.36891 0.36204 0.0
C585 C 0.87676 0.35232 0.38356 0.0
C586 C 0.85814 0.2792 0.31215 0.0
O587 O 0.90861 0.2899 0.32428 0.0
O588 O 0.90405 0.3117 0.35832 0.0
O589 O 0.86517 0.2982 0.32327 0.0
O590 O 0.87047 0.27524 0.29382 0.0
O591 O 0.88567 0.32926 0.27069 0.0
H592 H 0.86947 0.31904 0.38322 0.0
H593 H 0.90621 0.37017 0.31528 0.0
O594 O 0.88974 0.30483 0.2436 0.0
O595 O 0.92716 0.31987 0.27563 0.0
O596 O 0.9229 0.34271 0.3074 0.0
C597 C 0.93469 0.33851 0.28821 0.0
H598 H 0.92291 0.26405 0.19304 0.0
H599 H 0.8685 0.35292 0.40694 0.0
Co600 Co 0.72297 0.60503 0.28419 0.0
C601 C 0.70022 0.56856 0.24283 0.0
Co602 Co 0.70025 0.57735 0.31584 0.0
C603 C 0.76189 0.63881 0.25579 0.0
C604 C 0.73459 0.63373 0.22624 0.0
N605 N 0.74044 0.62778 0.25596 0.0
N606 N 0.76964 0.65079 0.22662 0.0
C607 C 0.75257 0.64777 0.20797 0.0
H608 H 0.77166 0.63633 0.27459 0.0
H609 H 0.71838 0.62678 0.21673 0.0
C610 C 0.72407 0.61661 0.35414 0.0
N611 N 0.68141 0.55358 0.34342 0.0
C612 C 0.66023 0.5395 0.33919 0.0
C613 C 0.68685 0.54672 0.37247 0.0
N614 N 0.6524 0.52406 0.36426 0.0
C615 C 0.66923 0.52868 0.38514 0.0
C616 C 0.7417 0.58262 0.3114 0.0
O617 O 0.73126 0.62303 0.32342 0.0
O618 O 0.71043 0.59666 0.35838 0.0
O619 O 0.72276 0.57056 0.32264 0.0
O620 O 0.74553 0.59897 0.29341 0.0
O621 O 0.69064 0.55964 0.27168 0.0
H622 H 0.70269 0.55435 0.38376 0.0
H623 H 0.65082 0.54035 0.3178 0.0
O624 O 0.71512 0.58775 0.24413 0.0
O625 O 0.70038 0.61069 0.27588 0.0
O626 O 0.6785 0.58416 0.30955 0.0
C627 C 0.68213 0.59978 0.28997 0.0
H628 H 0.75307 0.65375 0.18167 0.0
H629 H 0.66879 0.51981 0.40834 0.0
Co630 Co 0.46082 0.079 0.94437 0.0
C631 C 0.47452 0.11511 0.98617 0.0
Co632 Co 0.46605 0.10672 0.9128 0.0
C633 C 0.46464 0.04426 0.97072 0.0
C634 C 0.44173 0.04851 0.99983 0.0
N635 N 0.45485 0.05583 0.97166 0.0
N636 N 0.45867 0.03041 0.99768 0.0
C637 C 0.44409 0.03288 1.01597 0.0
H638 H 0.4773 0.04722 0.95241 0.0
H639 H 0.43214 0.05507 1.00945 0.0
C640 C 0.4507 0.06782 0.87404 0.0
N641 N 0.4714 0.13067 0.88563 0.0
C642 C 0.46436 0.14475 0.89001 0.0
C643 C 0.48377 0.13757 0.85661 0.0
N644 N 0.47203 0.16022 0.86503 0.0
C645 C 0.48426 0.15565 0.84407 0.0
C646 C 0.50213 0.10113 0.91784 0.0
O647 O 0.45178 0.06145 0.90458 0.0
O648 O 0.45663 0.08767 0.87004 0.0
O649 O 0.49531 0.11301 0.90556 0.0
O650 O 0.48953 0.08515 0.9365 0.0
O651 O 0.47448 0.12427 0.95723 0.0
H652 H 0.49191 0.1299 0.84516 0.0
H653 H 0.45401 0.14382 0.91138 0.0
O654 O 0.46956 0.09573 0.98496 0.0
O655 O 0.43256 0.07323 0.95154 0.0
O656 O 0.43747 0.10035 0.91947 0.0
C657 C 0.4253 0.08434 0.93823 0.0
H658 H 0.43677 0.025 0.04049 0.0
H659 H 0.4927 0.16452 0.82085 0.0
Co660 Co 0.94261 0.38662 0.94742 0.0
C661 C 0.90582 0.3638 0.98781 0.0
Co662 Co 0.91522 0.36402 0.91516 0.0
C663 C 0.97661 0.42532 0.97571 0.0
C664 C 0.97055 0.39811 1.00641 0.0
N665 N 0.96513 0.40392 0.9761 0.0
N666 N 0.98839 0.43314 1.00508 0.0
C667 C 0.98473 0.41612 1.02449 0.0
H668 H 0.97458 0.43509 0.95628 0.0
H669 H 0.96313 0.38197 1.01635 0.0
C670 C 0.95473 0.38793 0.87774 0.0
N671 N 0.8917 0.34532 0.88714 0.0
C672 C 0.87761 0.32418 0.8914 0.0
C673 C 0.88502 0.3507 0.85783 0.0
N674 N 0.86233 0.31629 0.86607 0.0
C675 C 0.86705 0.33304 0.845 0.0
C676 C 0.92034 0.40536 0.91982 0.0
O677 O 0.96093 0.395 0.9086 0.0
O678 O 0.93481 0.37432 0.87307 0.0
O679 O 0.90845 0.38647 0.90825 0.0
O680 O 0.93663 0.40921 0.93807 0.0
O681 O 0.89717 0.35426 0.95879 0.0
H682 H 0.89271 0.36651 0.84648 0.0
H683 H 0.87835 0.31484 0.913 0.0
O684 O 0.92501 0.3787 0.987 0.0
O685 O 0.94817 0.36403 0.95601 0.0
O686 O 0.92198 0.34227 0.92163 0.0
C687 C 0.93738 0.34583 0.94172 0.0
H688 H 0.99034 0.41674 0.05112 0.0
H689 H 0.8583 0.33254 0.82157 0.0
Co690 Co 0.63383 0.56034 0.94427 0.0
C691 C 0.65624 0.54734 0.98729 0.0
Co692 Co 0.65825 0.55731 0.91418 0.0
C693 C 0.59359 0.55561 0.95648 0.0
C694 C 0.6134 0.57003 1.00151 0.0
N695 N 0.61352 0.56316 0.96855 0.0
N696 N 0.58062 0.55658 0.98079 0.0
C697 C 0.59304 0.56591 1.0092 0.0
H698 H 0.58843 0.54832 0.9308 0.0
H699 H 0.62681 0.5763 1.01944 0.0
C700 C 0.63489 0.5722 0.87418 0.0
N701 N 0.67879 0.55438 0.88773 0.0
C702 C 0.69989 0.56135 0.89279 0.0
C703 C 0.67446 0.54484 0.8559 0.0
N704 N 0.70876 0.55666 0.86506 0.0
C705 C 0.69264 0.54621 0.84204 0.0
C706 C 0.61782 0.51994 0.91428 0.0
O707 O 0.62653 0.57008 0.90415 0.0
O708 O 0.64935 0.56698 0.87081 0.0
O709 O 0.63708 0.52771 0.90401 0.0
O710 O 0.61305 0.53162 0.93266 0.0
O711 O 0.66662 0.54868 0.95895 0.0
H712 H 0.65902 0.53758 0.84319 0.0
H713 H 0.7087 0.57024 0.91578 0.0
O714 O 0.64088 0.55098 0.98528 0.0
O715 O 0.6544 0.58871 0.95532 0.0
O716 O 0.67861 0.5862 0.9241 0.0
C717 C 0.67329 0.59723 0.94322 0.0
H718 H 0.58749 0.56797 0.03459 0.0
H719 H 0.69387 0.53995 0.81678 0.0
Co720 Co 0.58123 0.88981 0.74743 0.0
C721 C 0.61948 0.90472 0.70717 0.0
Co722 Co 0.60872 0.89294 0.7774 0.0
C723 C 0.54375 0.89405 0.72603 0.0
C724 C 0.55235 0.87707 0.68948 0.0
N725 N 0.5577 0.88683 0.72113 0.0
N726 N 0.53016 0.8893 0.69837 0.0
C727 C 0.53563 0.87855 0.67558 0.0
H728 H 0.54401 0.90318 0.74882 0.0
H729 H 0.56039 0.86962 0.6769 0.0
C730 C 0.57335 0.87992 0.82066 0.0
N731 N 0.63191 0.89587 0.8015 0.0
C732 C 0.64437 0.88843 0.78932 0.0
C733 C 0.63896 0.90287 0.83437 0.0
N734 N 0.65847 0.88964 0.81347 0.0
C735 C 0.65534 0.89897 0.84189 0.0
C736 C 0.6061 0.92972 0.77647 0.0
O737 O 0.5643 0.8813 0.79241 0.0
O738 O 0.59233 0.88351 0.81848 0.0
O739 O 0.61641 0.92118 0.78857 0.0
O740 O 0.58983 0.91875 0.7572 0.0
O741 O 0.62575 0.90276 0.73718 0.0
H742 H 0.63182 0.90914 0.85232 0.0
H743 H 0.64225 0.88111 0.76367 0.0
O744 O 0.59976 0.89935 0.70385 0.0
O745 O 0.57277 0.86017 0.73748 0.0
O746 O 0.60088 0.86433 0.76574 0.0
C747 C 0.58437 0.85253 0.74762 0.0
H748 H 0.52807 0.87218 0.65041 0.0
H749 H 0.66308 0.90121 0.86717 0.0
Co750 Co 0.13197 0.69626 0.7477 0.0
C751 C 0.11609 0.72015 0.71055 0.0
Co752 Co 0.12723 0.71898 0.77984 0.0
C753 C 0.12973 0.65629 0.72346 0.0
C754 C 0.14568 0.6822 0.68726 0.0
N755 N 0.13619 0.67731 0.71911 0.0
N756 N 0.13464 0.6479 0.69535 0.0
C757 C 0.14474 0.66432 0.6727 0.0
H758 H 0.12099 0.64717 0.7463 0.0
H759 H 0.15255 0.69775 0.67508 0.0
C760 C 0.14143 0.69623 0.8201 0.0
N761 N 0.12248 0.73656 0.80874 0.0
C762 C 0.1327 0.75798 0.80822 0.0
C763 C 0.1115 0.73098 0.83935 0.0
N764 N 0.12916 0.76601 0.83777 0.0
C765 C 0.11577 0.74913 0.85745 0.0
C766 C 0.09163 0.67829 0.77503 0.0
O767 O 0.14054 0.68659 0.79115 0.0
O768 O 0.13706 0.71106 0.81916 0.0
O769 O 0.09904 0.69657 0.78906 0.0
O770 O 0.10345 0.67465 0.75497 0.0
O771 O 0.11712 0.72737 0.74134 0.0
H772 H 0.10264 0.71487 0.84943 0.0
H773 H 0.14439 0.76758 0.78848 0.0
O774 O 0.12238 0.70654 0.70591 0.0
O775 O 0.16124 0.71858 0.73995 0.0
O776 O 0.15582 0.74136 0.76982 0.0
C777 C 0.16823 0.7375 0.75141 0.0
H778 H 0.15106 0.6635 0.64724 0.0
H779 H 0.11102 0.74991 0.88422 0.0
Co780 Co 0.32531 0.43974 0.74808 0.0
C781 C 0.30138 0.40096 0.70867 0.0
Co782 Co 0.30159 0.41227 0.77872 0.0
C783 C 0.3661 0.47739 0.72603 0.0
C784 C 0.34001 0.46995 0.69132 0.0
N785 N 0.34499 0.46332 0.72113 0.0
N786 N 0.37429 0.49261 0.70063 0.0
C787 C 0.3578 0.48785 0.67886 0.0
H788 H 0.37518 0.47668 0.74808 0.0
H789 H 0.32435 0.46225 0.67936 0.0
C790 C 0.32448 0.44823 0.82109 0.0
N791 N 0.28281 0.38947 0.80512 0.0
C792 C 0.26186 0.37747 0.79856 0.0
C793 C 0.28561 0.38366 0.83746 0.0
N794 N 0.25107 0.3652 0.82625 0.0
C795 C 0.26605 0.36875 0.85062 0.0
C796 C 0.3416 0.41587 0.7755 0.0
O797 O 0.33449 0.45717 0.79252 0.0
O798 O 0.30926 0.42919 0.81932 0.0
O799 O 0.32292 0.40538 0.78822 0.0
O800 O 0.34639 0.43193 0.75616 0.0
O801 O 0.29352 0.39465 0.73901 0.0
H802 H 0.30057 0.39114 0.85169 0.0
H803 H 0.25454 0.37905 0.77482 0.0
O804 O 0.3156 0.42075 0.70499 0.0
O805 O 0.3035 0.44751 0.73983 0.0
O806 O 0.28 0.41939 0.7687 0.0
C807 C 0.28441 0.43587 0.75073 0.0
H808 H 0.35859 0.49655 0.65522 0.0
H809 H 0.26296 0.36276 0.87734 0.0
Co810 Co 0.56045 0.91035 0.14921 0.0
C811 C 0.57572 0.94966 0.18754 0.0
Co812 Co 0.56434 0.93765 0.11803 0.0
C813 C 0.56367 0.873 0.17268 0.0
C814 C 0.54729 0.88252 0.2089 0.0
N815 N 0.55688 0.8873 0.17713 0.0
N816 N 0.55884 0.85971 0.2007 0.0
C817 C 0.54847 0.86574 0.22334 0.0
H818 H 0.57254 0.87279 0.14986 0.0
H819 H 0.54015 0.89096 0.22112 0.0
C820 C 0.5509 0.90117 0.07664 0.0
N821 N 0.5682 0.96008 0.09088 0.0
C822 C 0.55931 0.97214 0.09721 0.0
C823 C 0.57648 0.96541 0.05822 0.0
N824 N 0.56046 0.98395 0.06909 0.0
C825 C 0.57166 0.98009 0.04464 0.0
C826 C 0.60064 0.93398 0.12121 0.0
O827 O 0.55196 0.89239 0.10537 0.0
O828 O 0.55486 0.92025 0.07803 0.0
O829 O 0.59257 0.94448 0.1082 0.0
O830 O 0.58925 0.91806 0.14078 0.0
O831 O 0.57414 0.95577 0.1571 0.0
H832 H 0.58381 0.95773 0.0441 0.0
H833 H 0.55063 0.97089 0.12113 0.0
O834 O 0.57001 0.92988 0.19161 0.0
O835 O 0.5309 0.90263 0.15792 0.0
O836 O 0.53562 0.93059 0.12847 0.0
C837 C 0.52352 0.91427 0.14682 0.0
H838 H 0.54214 0.85852 0.2487 0.0
H839 H 0.57423 0.98566 1.01768 0.0
Co840 Co 0.11014 0.6547 0.14835 0.0
C841 C 0.07105 0.63083 0.18719 0.0
Co842 Co 0.08271 0.63083 0.11748 0.0
C843 C 0.14789 0.69542 0.17123 0.0
C844 C 0.1385 0.66968 0.20758 0.0
N845 N 0.13355 0.67434 0.17586 0.0
N846 N 0.16136 0.70402 0.19909 0.0
C847 C 0.1554 0.68771 0.2218 0.0
H848 H 0.14799 0.70442 0.14844 0.0
H849 H 0.13006 0.65417 0.21995 0.0
C850 C 0.11886 0.6535 0.07556 0.0
N851 N 0.05975 0.61233 0.0907 0.0
C852 C 0.04803 0.59112 0.0949 0.0
C853 C 0.05162 0.61661 0.06196 0.0
N854 N 0.03309 0.58178 0.06964 0.0
C855 C 0.03521 0.59782 0.0489 0.0
C856 C 0.08673 0.6712 0.1204 0.0
O857 O 0.12782 0.66353 0.10416 0.0
O858 O 0.0997 0.63848 0.07713 0.0
O859 O 0.0761 0.65243 0.10813 0.0
O860 O 0.1028 0.67602 0.13972 0.0
O861 O 0.06492 0.62272 0.15694 0.0
H862 H 0.05772 0.63225 0.05045 0.0
H863 H 0.05129 0.58258 0.11499 0.0
O864 O 0.09078 0.6452 0.191 0.0
O865 O 0.1175 0.63271 0.1573 0.0
O866 O 0.08968 0.60916 0.12761 0.0
C867 C 0.10598 0.61361 0.14625 0.0
H868 H 0.16272 0.6887 0.24708 0.0
H869 H 0.02619 0.59609 1.02521 0.0
Co870 Co 0.36784 0.46131 0.14911 0.0
C871 C 0.39169 0.44605 0.18757 0.0
Co872 Co 0.3917 0.45785 0.11823 0.0
C873 C 0.32721 0.45828 0.17197 0.0
C874 C 0.35341 0.4768 0.20659 0.0
N875 N 0.34833 0.46527 0.17662 0.0
N876 N 0.3191 0.46527 0.19768 0.0
C877 C 0.33567 0.47691 0.21939 0.0
H878 H 0.31805 0.44855 0.14986 0.0
H879 H 0.36911 0.48471 0.21843 0.0
C880 C 0.36877 0.47124 0.07662 0.0
N881 N 0.41012 0.45377 0.09084 0.0
C882 C 0.42441 0.46828 0.06861 0.0
C883 C 0.41176 0.43617 0.08637 0.0
N884 N 0.435 0.4606 0.05019 0.0
C885 C 0.42717 0.44036 0.06137 0.0
C886 C 0.35136 0.42144 0.12076 0.0
O887 O 0.35858 0.46978 0.10517 0.0
O888 O 0.38412 0.46763 0.07822 0.0
O889 O 0.37 0.42982 0.10781 0.0
O890 O 0.34662 0.43251 0.1408 0.0
O891 O 0.3996 0.44773 0.1572 0.0
H892 H 0.40232 0.42129 0.10025 0.0
H893 H 0.42721 0.48439 0.06661 0.0
O894 O 0.37763 0.4518 0.19163 0.0
O895 O 0.38987 0.49084 0.15761 0.0
O896 O 0.41358 0.48619 0.12928 0.0
C897 C 0.40907 0.49824 0.14723 0.0
H898 H 0.33497 0.48477 0.24323 0.0
H899 H 0.43222 0.4294 0.05235 0.0
Co900 Co 0.08439 0.45636 0.61917 0.0
C901 C 0.12044 0.46993 0.57766 0.0
Co902 Co 0.11209 0.46201 0.65131 0.0
C903 C 0.04931 0.45983 0.59336 0.0
C904 C 0.05363 0.43707 0.56391 0.0
N905 N 0.06112 0.45028 0.59196 0.0
N906 N 0.03509 0.45356 0.56686 0.0
C907 C 0.03763 0.4391 0.54835 0.0
H908 H 0.05222 0.47239 0.61185 0.0
H909 H 0.06019 0.4275 0.55416 0.0
C910 C 0.07325 0.44682 0.68984 0.0
N911 N 0.13613 0.46747 0.67845 0.0
C912 C 0.14999 0.46012 0.67426 0.0
C913 C 0.14335 0.48015 0.7071 0.0
N914 N 0.16562 0.46788 0.699 0.0
C915 C 0.16139 0.48051 0.71961 0.0
C916 C 0.10652 0.4979 0.64525 0.0
O917 O 0.06686 0.44736 0.65903 0.0
O918 O 0.09317 0.45311 0.69415 0.0
O919 O 0.11852 0.49128 0.65771 0.0
O920 O 0.09045 0.48509 0.62689 0.0
O921 O 0.12952 0.46993 0.60675 0.0
H922 H 0.13592 0.48859 0.7183 0.0
H923 H 0.14878 0.44948 0.65318 0.0
O924 O 0.10108 0.46507 0.57862 0.0
O925 O 0.07876 0.42808 0.61208 0.0
O926 O 0.10557 0.43341 0.64556 0.0
C927 C 0.08985 0.42108 0.62638 0.0
H928 H 0.02939 0.43146 0.5242 0.0
H929 H 0.17048 0.48914 0.74257 0.0
Co930 Co 0.56438 0.63126 0.61721 0.0
C931 C 0.55026 0.65318 0.57539 0.0
Co932 Co 0.56007 0.6545 0.64824 0.0
C933 C 0.56143 0.59223 0.59877 0.0
C934 C 0.57724 0.61543 0.55831 0.0
N935 N 0.56899 0.61283 0.59095 0.0
N936 N 0.56349 0.58137 0.5717 0.0
C937 C 0.57379 0.59603 0.5463 0.0
H938 H 0.55321 0.58515 0.62315 0.0
H939 H 0.58377 0.63005 0.54328 0.0
C940 C 0.57599 0.63163 0.68709 0.0
N941 N 0.55562 0.67386 0.67504 0.0
C942 C 0.56222 0.6948 0.66957 0.0
C943 C 0.54402 0.66894 0.70491 0.0
N944 N 0.55495 0.70297 0.69467 0.0
C945 C 0.5435 0.68664 0.71686 0.0
C946 C 0.5237 0.61317 0.64616 0.0
O947 O 0.57458 0.62391 0.65668 0.0
O948 O 0.56982 0.64536 0.69117 0.0
O949 O 0.53076 0.63224 0.65687 0.0
O950 O 0.53596 0.60911 0.62786 0.0
O951 O 0.55134 0.66317 0.60399 0.0
H952 H 0.53634 0.6534 0.71723 0.0
H953 H 0.57188 0.70377 0.64729 0.0
O954 O 0.55449 0.63824 0.57685 0.0
O955 O 0.59236 0.65311 0.60714 0.0
O956 O 0.58875 0.67604 0.63991 0.0
C957 C 0.60026 0.67168 0.62022 0.0
H958 H 0.57678 0.59269 0.51976 0.0
H959 H 0.53554 0.68748 0.74046 0.0
Co960 Co 0.3885 0.93758 0.61606 0.0
C961 C 0.36662 0.90108 0.57513 0.0
Co962 Co 0.36636 0.91 0.64838 0.0
C963 C 0.42721 0.97204 0.58916 0.0
C964 C 0.40014 0.96753 0.55959 0.0
N965 N 0.40581 0.96057 0.5883 0.0
N966 N 0.43522 0.98545 0.56163 0.0
C967 C 0.41824 0.98282 0.54305 0.0
H968 H 0.43683 0.96929 0.60787 0.0
H969 H 0.38401 0.9609 0.54987 0.0
C970 C 0.38947 0.9493 0.68616 0.0
N971 N 0.34767 0.8862 0.67601 0.0
C972 C 0.32642 0.87233 0.67224 0.0
C973 C 0.35319 0.87934 0.70498 0.0
N974 N 0.31859 0.85704 0.69753 0.0
C975 C 0.33551 0.86151 0.71805 0.0
C976 C 0.40805 0.91604 0.64401 0.0
O977 O 0.3965 0.95553 0.65533 0.0
O978 O 0.37603 0.92935 0.69078 0.0
O979 O 0.38931 0.90386 0.65594 0.0
O980 O 0.41128 0.93193 0.62524 0.0
O981 O 0.35727 0.89214 0.60415 0.0
H982 H 0.36908 0.88689 0.71605 0.0
H983 H 0.31692 0.87329 0.6511 0.0
O984 O 0.38104 0.92047 0.57607 0.0
O985 O 0.36573 0.94278 0.60757 0.0
O986 O 0.34417 0.91625 0.64145 0.0
C987 C 0.34752 0.93165 0.62156 0.0
H988 H 0.41889 0.99035 0.51811 0.0
H989 H 0.33511 0.85272 0.74135 0.0
Co990 Co 0.12806 0.41309 0.27622 0.0
C991 C 0.14078 0.44795 0.32139 0.0
Co992 Co 0.13309 0.44182 0.24781 0.0
C993 C 0.13081 0.37682 0.29735 0.0
C994 C 0.10817 0.38046 0.32843 0.0
N995 N 0.12186 0.38906 0.3012 0.0
N996 N 0.12357 0.36108 0.32141 0.0
C997 C 0.1092 0.36323 0.34094 0.0
H998 H 0.14338 0.38021 0.27859 0.0
H999 H 0.09868 0.3868 0.3394 0.0
C1000 C 0.11895 0.40439 0.20532 0.0
N1001 N 0.13862 0.46648 0.22241 0.0
C1002 C 0.13081 0.47997 0.22655 0.0
C1003 C 0.15184 0.47435 0.19449 0.0
N1004 N 0.13885 0.49599 0.20249 0.0
C1005 C 0.15209 0.49238 0.1824 0.0
C1006 C 0.16941 0.43628 0.25155 0.0
O1007 O 0.11997 0.39685 0.2348 0.0
O1008 O 0.12414 0.42414 0.20364 0.0
O1009 O 0.16249 0.44839 0.24075 0.0
O1010 O 0.15683 0.41965 0.26888 0.0
O1011 O 0.14106 0.45799 0.29335 0.0
H1012 H 0.16065 0.46731 0.18332 0.0
H1013 H 0.11958 0.47817 0.24696 0.0
O1014 O 0.13599 0.42864 0.31843 0.0
O1015 O 0.09963 0.40679 0.28281 0.0
O1016 O 0.10443 0.43514 0.25458 0.0
C1017 C 0.09224 0.41826 0.27149 0.0
H1018 H 0.10072 0.35365 0.36357 0.0
H1019 H 0.16103 0.50186 0.15997 0.0
Co1020 Co 0.60898 0.71915 0.27933 0.0
C1021 C 0.57312 0.69719 0.32106 0.0
Co1022 Co 0.58127 0.69692 0.24734 0.0
C1023 C 0.64506 0.75794 0.30095 0.0
C1024 C 0.64052 0.73209 0.33391 0.0
N1025 N 0.63249 0.73685 0.30558 0.0
N1026 N 0.66047 0.76676 0.32555 0.0
C1027 C 0.65774 0.7505 0.34634 0.0
H1028 H 0.64218 0.76684 0.28098 0.0
H1029 H 0.63386 0.7164 0.34548 0.0
C1030 C 0.61987 0.72007 0.20854 0.0
N1031 N 0.55717 0.67809 0.22056 0.0
C1032 C 0.54329 0.65692 0.22499 0.0
C1033 C 0.54995 0.68338 0.19178 0.0
N1034 N 0.52765 0.64892 0.20027 0.0
C1035 C 0.53189 0.66564 0.17944 0.0
C1036 C 0.58687 0.73833 0.25254 0.0
O1037 O 0.62626 0.72716 0.23926 0.0
O1038 O 0.59997 0.70642 0.20429 0.0
O1039 O 0.57484 0.71964 0.24033 0.0
O1040 O 0.6029 0.74169 0.27103 0.0
O1041 O 0.56401 0.68795 0.29204 0.0
H1042 H 0.5574 0.69917 0.18035 0.0
H1043 H 0.5445 0.64761 0.24619 0.0
O1044 O 0.59252 0.71165 0.32005 0.0
O1045 O 0.61468 0.69664 0.28712 0.0
O1046 O 0.58784 0.67493 0.25377 0.0
C1047 C 0.60354 0.67843 0.27306 0.0
H1048 H 0.66698 0.75188 0.36958 0.0
H1049 H 0.5228 0.66504 0.15642 0.0
Co1050 Co 0.30293 0.89499 0.27815 0.0
C1051 C 0.3247 0.88051 0.31956 0.0
Co1052 Co 0.32509 0.88931 0.24618 0.0
C1053 C 0.26417 0.89064 0.30519 0.0
C1054 C 0.29129 0.91379 0.33406 0.0
N1055 N 0.28559 0.90083 0.30567 0.0
N1056 N 0.2562 0.89616 0.33268 0.0
C1057 C 0.2732 0.9109 0.35081 0.0
H1058 H 0.25453 0.87797 0.28688 0.0
H1059 H 0.30745 0.92355 0.34351 0.0
C1060 C 0.30208 0.9054 0.20787 0.0
N1061 N 0.34382 0.884 0.21894 0.0
C1062 C 0.36498 0.89113 0.22339 0.0
C1063 C 0.33849 0.87163 0.18992 0.0
N1064 N 0.37293 0.88352 0.19846 0.0
C1065 C 0.35617 0.87122 0.17746 0.0
C1066 C 0.28341 0.85367 0.25074 0.0
O1067 O 0.29492 0.90465 0.2386 0.0
O1068 O 0.31556 0.89891 0.20351 0.0
O1069 O 0.30212 0.8602 0.23869 0.0
O1070 O 0.28017 0.86642 0.26932 0.0
O1071 O 0.33401 0.88065 0.29061 0.0
H1072 H 0.3227 0.86342 0.17843 0.0
H1073 H 0.37432 0.9015 0.24479 0.0
O1074 O 0.31041 0.88565 0.31842 0.0
O1075 O 0.3257 0.92307 0.28632 0.0
O1076 O 0.34732 0.91775 0.25306 0.0
C1077 C 0.34396 0.92999 0.27254 0.0
H1078 H 0.27261 0.91795 0.37565 0.0
H1079 H 0.35671 0.86278 0.15427 0.0
H1080 H 0.27723 0.16764 0.0897 0.0
H1081 H 0.21528 0.15268 0.05064 0.0
H1082 H 0.27 0.132 0.07366 0.0
H1083 H 0.20798 0.11681 0.03466 0.0
H1084 H 0.19461 0.04732 0.05239 0.0
H1085 H 0.20154 0.08342 0.06388 0.0
H1086 H 0.26504 0.10909 1.02136 0.0
H1087 H 0.25804 0.07274 1.00997 0.0
C1088 C 0.262 0.15674 0.07777 0.0
C1089 C 0.2468 0.16313 0.07171 0.0
C1090 C 0.25794 0.13629 0.06824 0.0
C1091 C 0.23842 0.12142 0.05271 0.0
C1092 C 0.22314 0.12775 0.04677 0.0
C1093 C 0.22734 0.14836 0.05589 0.0
C1094 C 0.21005 0.06064 0.04538 0.0
C1095 C 0.2258 0.05704 1.03041 0.0
C1096 C 0.21397 0.08141 0.05173 0.0
C1097 C 0.23389 0.09929 0.04374 0.0
C1098 C 0.24957 0.09573 1.0282 0.0
C1099 C 0.24552 0.0749 1.02135 0.0
H1100 H 0.9734 0.15167 0.05895 0.0
H1101 H 0.94909 0.19119 1.01947 0.0
H1102 H 0.93711 0.12316 0.07112 0.0
H1103 H 0.91253 0.16248 0.0315 0.0
H1104 H 0.85356 0.11565 0.09915 0.0
H1105 H 0.88945 0.14405 0.08373 0.0
H1106 H 0.9037 0.09727 0.04108 0.0
H1107 H 0.86778 0.06884 0.05638 0.0
C1108 C 0.96028 0.15427 0.05279 0.0
C1109 C 0.96425 0.17382 0.03834 0.0
C1110 C 0.93941 0.13781 0.05952 0.0
C1111 C 0.92179 0.14044 0.05242 0.0
C1112 C 0.9257 0.15993 0.03761 0.0
C1113 C 0.94664 0.17633 1.03039 0.0
C1114 C 0.86433 0.11137 0.08652 0.0
C1115 C 0.8577 0.08985 0.07919 0.0
C1116 C 0.8849 0.12772 0.0774 0.0
C1117 C 0.89956 0.12304 0.06108 0.0
C1118 C 0.89295 0.10151 0.05387 0.0
C1119 C 0.87229 0.08517 0.0626 0.0
H1120 H 0.83128 0.76429 1.01301 0.0
H1121 H 0.86907 0.82723 0.05735 0.0
H1122 H 0.86047 0.75708 1.02439 0.0
H1123 H 0.89809 0.8201 0.06878 0.0
H1124 H 0.95364 0.8065 0.05424 0.0
H1125 H 0.92511 0.81388 0.03875 0.0
H1126 H 0.87816 0.75169 0.07688 0.0
H1127 H 0.90656 0.74436 0.09253 0.0
C1128 C 0.84587 0.77666 1.02482 0.0
C1129 C 0.84773 0.7963 0.0344 0.0
C1130 C 0.86256 0.77248 0.03165 0.0
C1131 C 0.8817 0.78798 0.04767 0.0
C1132 C 0.88372 0.80782 0.05624 0.0
C1133 C 0.86697 0.81185 0.04992 0.0
C1134 C 0.93725 0.79442 0.05943 0.0
C1135 C 0.93252 0.77488 0.07488 0.0
C1136 C 0.92085 0.79866 0.05059 0.0
C1137 C 0.89924 0.78336 0.05642 0.0
C1138 C 0.89454 0.76377 0.07159 0.0
C1139 C 0.91091 0.75964 0.08087 0.0
H1140 H 0.07711 0.25379 0.55061 0.0
H1141 H 0.05165 0.18999 0.50986 0.0
H1142 H 0.11344 0.26089 0.53858 0.0
H1143 H 0.08771 0.19703 0.4977 0.0
H1144 H 0.15705 0.21097 0.51011 0.0
H1145 H 0.12126 0.20378 0.52631 0.0
H1146 H 0.13629 0.26554 0.48649 0.0
H1147 H 0.17192 0.27269 0.47032 0.0
C1148 C 0.07925 0.24122 0.53944 0.0
C1149 C 0.06136 0.22135 0.53107 0.0
C1150 C 0.10008 0.24533 0.53222 0.0
C1151 C 0.10363 0.22957 0.51698 0.0
C1152 C 0.08573 0.20953 0.50962 0.0
C1153 C 0.06497 0.20554 0.51634 0.0
C1154 C 0.15272 0.223 0.50474 0.0
C1155 C 0.16745 0.24237 0.48863 0.0
C1156 C 0.13213 0.21887 0.51397 0.0
C1157 C 0.12577 0.23409 0.50785 0.0
C1158 C 0.1406 0.25351 0.49204 0.0
C1159 C 0.16104 0.25753 0.48243 0.0
H1160 H 0.80452 0.94797 0.5277 0.0
H1161 H 0.75479 0.90693 0.45546 0.0
H1162 H 0.81074 0.9184 0.54198 0.0
H1163 H 0.76087 0.87773 0.46954 0.0
H1164 H 0.79396 0.83841 0.46975 0.0
H1165 H 0.78836 0.86832 0.45918 0.0
H1166 H 0.79349 0.88172 0.57066 0.0
H1167 H 0.79947 0.85158 0.58126 0.0
C1168 C 0.79496 0.93272 0.51476 0.0
C1169 C 0.77927 0.92999 0.49005 0.0
C1170 C 0.79841 0.91571 0.52316 0.0
C1171 C 0.7864 0.89562 0.50679 0.0
C1172 C 0.77068 0.89297 0.48233 0.0
C1173 C 0.76715 0.90981 0.47423 0.0
C1174 C 0.79403 0.84773 0.49211 0.0
C1175 C 0.79728 0.84254 0.52639 0.0
C1176 C 0.79062 0.86485 0.48605 0.0
C1177 C 0.79043 0.87753 0.51401 0.0
C1178 C 0.79369 0.87243 0.54843 0.0
C1179 C 0.7969 0.85503 0.55458 0.0
H1180 H 0.11743 0.84909 0.46863 0.0
H1181 H 0.07049 0.86337 0.51056 0.0
H1182 H 0.14576 0.88502 0.48352 0.0
H1183 H 0.09894 0.89946 0.52539 0.0
H1184 H 0.15382 0.96913 0.5061 0.0
H1185 H 0.12498 0.9328 0.49503 0.0
H1186 H 0.1642 0.90823 0.53525 0.0
H1187 H 0.1932 0.94477 0.54611 0.0
C1188 C 0.11311 0.85989 0.48099 0.0
C1189 C 0.09157 0.85325 0.48821 0.0
C1190 C 0.12943 0.8805 0.48981 0.0
C1191 C 0.12474 0.89523 0.50578 0.0
C1192 C 0.10318 0.88864 0.5129 0.0
C1193 C 0.08685 0.8679 0.50445 0.0
C1194 C 0.15632 0.956 0.51263 0.0
C1195 C 0.17594 0.95995 0.52685 0.0
C1196 C 0.13968 0.93511 0.50655 0.0
C1197 C 0.1422 0.91748 0.51411 0.0
C1198 C 0.16172 0.92139 0.52879 0.0
C1199 C 0.17831 0.94234 0.53533 0.0
H1200 H 0.83082 0.97091 1.00841 0.0
H1201 H 0.76768 0.94599 0.0518 0.0
H1202 H 0.82346 0.9347 0.9966 0.0
H1203 H 0.76025 0.90954 0.04005 0.0
H1204 H 0.74751 0.85075 0.97137 0.0
H1205 H 0.75497 0.88651 0.98736 0.0
H1206 H 0.81684 0.90134 1.02651 0.0
H1207 H 0.80933 0.86541 1.0107 0.0
C1208 C 0.81535 0.95768 1.01553 0.0
C1209 C 0.79981 0.96144 1.03092 0.0
C1210 C 0.81119 0.93685 1.009 0.0
C1211 C 0.79123 0.91909 1.01722 0.0
C1212 C 0.77574 0.92281 0.03307 0.0
C1213 C 0.78004 0.9437 0.04011 0.0
C1214 C 0.76274 0.86159 0.9834 0.0
C1215 C 0.77784 0.8551 0.98958 0.0
C1216 C 0.76694 0.8821 0.99284 0.0
C1217 C 0.7865 0.8969 1.00835 0.0
C1218 C 0.80166 0.89046 1.01442 0.0
C1219 C 0.79734 0.86981 1.0054 0.0
H1220 H 0.17252 0.90246 0.96589 0.0
H1221 H 0.15884 0.94961 1.00872 0.0
H1222 H 0.13675 0.87419 0.98238 0.0
H1223 H 0.12309 0.92135 1.02516 0.0
H1224 H 0.05316 0.86743 1.00964 0.0
H1225 H 0.08943 0.89566 0.99679 0.0
H1226 H 0.11372 0.85568 0.03438 0.0
H1227 H 0.0771 0.82718 0.04706 0.0
C1228 C 0.1619 0.90684 0.97875 0.0
C1229 C 0.16865 0.92844 0.98572 0.0
C1230 C 0.14139 0.89056 0.98851 0.0
C1231 C 0.1269 0.89537 1.00519 0.0
C1232 C 0.13367 0.91698 1.01209 0.0
C1233 C 0.15424 0.93323 1.00269 0.0
C1234 C 0.06621 0.86462 1.01526 0.0
C1235 C 0.06211 0.84492 1.02926 0.0
C1236 C 0.0871 0.88093 1.00812 0.0
C1237 C 0.10465 0.87806 1.01439 0.0
C1238 C 0.10063 0.85844 1.02887 0.0
C1239 C 0.07964 0.84215 0.03649 0.0
H1240 H 0.19482 0.2558 0.04838 0.0
H1241 H 0.15553 0.19218 1.00756 0.0
H1242 H 0.16591 0.26349 0.03695 0.0
H1243 H 0.12687 0.19976 0.99602 0.0
H1244 H 0.0721 0.21385 1.01103 0.0
H1245 H 0.10077 0.20673 1.02611 0.0
H1246 H 0.14723 0.26834 0.98523 0.0
H1247 H 0.11856 0.27547 0.97003 0.0
C1248 C 0.17997 0.2434 0.03734 0.0
C1249 C 0.17759 0.2234 1.02878 0.0
C1250 C 0.16345 0.24785 1.03044 0.0
C1251 C 0.14398 0.23227 1.0154 0.0
C1252 C 0.14148 0.21212 1.00781 0.0
C1253 C 0.15804 0.20781 1.0142 0.0
C1254 C 0.08841 0.22588 1.00512 0.0
C1255 C 0.0929 0.2452 0.98906 0.0
C1256 C 0.1049 0.22177 1.01374 0.0
C1257 C 0.12642 0.23695 1.00699 0.0
C1258 C 0.13092 0.25635 0.99121 0.0
C1259 C 0.11441 0.26036 0.98219 0.0
H1260 H 0.97305 0.82559 0.55673 0.0
H1261 H 0.94752 0.76265 0.51224 0.0
H1262 H 0.93697 0.81875 0.56802 0.0
H1263 H 0.91117 0.75573 0.52342 0.0
H1264 H 0.85245 0.74346 0.59179 0.0
H1265 H 0.88804 0.75042 0.57579 0.0
H1266 H 0.90394 0.81287 0.53817 0.0
H1267 H 0.8682 0.80586 0.55421 0.0
C1268 C 0.9597 0.81028 0.54922 0.0
C1269 C 0.96325 0.79463 0.53374 0.0
C1270 C 0.93895 0.80641 0.55545 0.0
C1271 C 0.92105 0.78665 0.5468 0.0
C1272 C 0.92456 0.77107 0.53075 0.0
C1273 C 0.94538 0.77508 0.52402 0.0
C1274 C 0.86352 0.75872 0.58021 0.0
C1275 C 0.8574 0.77414 0.5746 0.0
C1276 C 0.88391 0.76263 0.57068 0.0
C1277 C 0.89895 0.7822 0.55558 0.0
C1278 C 0.89286 0.79767 0.54997 0.0
C1279 C 0.87233 0.79364 0.55911 0.0
H1280 H 0.21698 0.06803 0.55371 0.0
H1281 H 0.27973 0.11431 0.59105 0.0
H1282 H 0.21004 0.09687 0.53898 0.0
H1283 H 0.2728 0.14314 0.57612 0.0
H1284 H 0.25972 0.19029 0.51251 0.0
H1285 H 0.26707 0.16118 0.52404 0.0
H1286 H 0.20438 0.12386 0.5697 0.0
H1287 H 0.19712 0.15275 0.55814 0.0
C1288 C 0.2293 0.08434 0.55887 0.0
C1289 C 0.24888 0.08873 0.57381 0.0
C1290 C 0.2253 0.10092 0.55046 0.0
C1291 C 0.24085 0.12243 0.55625 0.0
C1292 C 0.26051 0.12683 0.57091 0.0
C1293 C 0.26441 0.11024 0.57977 0.0
C1294 C 0.24747 0.17578 0.52466 0.0
C1295 C 0.22786 0.17395 0.5345 0.0
C1296 C 0.25173 0.15915 0.53159 0.0
C1297 C 0.23635 0.1401 0.54794 0.0
C1298 C 0.21658 0.13815 0.55689 0.0
C1299 C 0.21246 0.15483 0.55048 0.0
H1300 H 0.90673 0.17088 0.59414 0.0
H1301 H 0.95315 0.15432 0.55785 0.0
H1302 H 0.87793 0.13507 0.57895 0.0
H1303 H 0.92435 0.1185 0.54293 0.0
H1304 H 0.86837 0.04975 0.56256 0.0
H1305 H 0.89721 0.08599 0.57403 0.0
H1306 H 0.86011 0.11101 0.52667 0.0
H1307 H 0.83107 0.07445 0.51518 0.0
C1308 C 0.91084 0.15962 0.58298 0.0
C1309 C 0.93237 0.16558 0.57741 0.0
C1310 C 0.89426 0.1391 0.574 0.0
C1311 C 0.89872 0.12379 0.55964 0.0
C1312 C 0.92026 0.12975 0.55417 0.0
C1313 C 0.93682 0.15036 0.56268 0.0
C1314 C 0.86633 0.06295 0.55451 0.0
C1315 C 0.8473 0.05911 0.53804 0.0
C1316 C 0.88298 0.0838 0.56087 0.0
C1317 C 0.88108 0.10155 0.5514 0.0
C1318 C 0.86211 0.09776 0.53461 0.0
C1319 C 0.84552 0.07681 0.52771 0.0
H1320 H 0.88107 0.48565 0.38674 0.0
H1321 H 0.94358 0.50131 0.42386 0.0
H1322 H 0.87392 0.44983 0.37078 0.0
H1323 H 0.93649 0.46571 0.40795 0.0
H1324 H 0.92432 0.40625 0.34482 0.0
H1325 H 0.93116 0.44255 0.35598 0.0
H1326 H 0.86802 0.4167 0.4001 0.0
H1327 H 0.86123 0.38064 0.38879 0.0
C1328 C 0.89328 0.48149 0.39155 0.0
C1329 C 0.91285 0.49643 0.40688 0.0
C1330 C 0.88918 0.46091 0.38246 0.0
C1331 C 0.90464 0.45478 0.38794 0.0
C1332 C 0.92428 0.46983 0.40291 0.0
C1333 C 0.92826 0.49026 0.41239 0.0
C1334 C 0.91184 0.40835 0.3565 0.0
C1335 C 0.89227 0.39046 0.36606 0.0
C1336 C 0.9158 0.42916 0.36321 0.0
C1337 C 0.90018 0.43266 0.37913 0.0
C1338 C 0.8804 0.41473 0.38764 0.0
C1339 C 0.87656 0.39399 0.3814 0.0
H1340 H 0.64051 0.48481 0.39022 0.0
H1341 H 0.61507 0.52291 0.34877 0.0
H1342 H 0.60438 0.45562 0.4016 0.0
H1343 H 0.57871 0.49357 0.36014 0.0
H1344 H 0.51992 0.44639 0.4277 0.0
H1345 H 0.55564 0.4751 0.41249 0.0
H1346 H 0.57108 0.4289 0.37115 0.0
H1347 H 0.53518 0.40008 0.38615 0.0
C1348 C 0.62719 0.48696 0.38345 0.0
C1349 C 0.63079 0.50633 0.36869 0.0
C1350 C 0.60641 0.4701 0.38974 0.0
C1351 C 0.58851 0.47215 0.38194 0.0
C1352 C 0.59208 0.49144 0.36679 0.0
C1353 C 0.61292 0.50823 0.35996 0.0
C1354 C 0.53089 0.44227 0.41539 0.0
C1355 C 0.52456 0.42078 0.40834 0.0
C1356 C 0.55139 0.45882 0.40639 0.0
C1357 C 0.56635 0.45443 0.39046 0.0
C1358 C 0.56008 0.43293 0.38358 0.0
C1359 C 0.53944 0.41637 0.39213 0.0
H1360 H 0.49964 0.09776 0.34772 0.0
H1361 H 0.53868 0.1616 0.38795 0.0
H1362 H 0.52864 0.09033 0.35928 0.0
H1363 H 0.5675 0.15422 0.39968 0.0
H1364 H 0.62223 0.13945 0.38566 0.0
H1365 H 0.59381 0.14696 0.37007 0.0
H1366 H 0.54682 0.0857 0.41142 0.0
H1367 H 0.57512 0.07824 0.42707 0.0
C1368 C 0.51446 0.11027 0.35869 0.0
C1369 C 0.51673 0.13024 0.36703 0.0
C1370 C 0.53104 0.10597 0.36563 0.0
C1371 C 0.55048 0.12164 0.38058 0.0
C1372 C 0.5529 0.14179 0.38797 0.0
C1373 C 0.53626 0.14597 0.3815 0.0
C1374 C 0.60585 0.1276 0.39149 0.0
C1375 C 0.60107 0.10827 0.40782 0.0
C1376 C 0.58952 0.13192 0.38261 0.0
C1377 C 0.56793 0.11692 0.38936 0.0
C1378 C 0.56318 0.09754 0.40541 0.0
C1379 C 0.57949 0.09333 0.41467 0.0
H1380 H 0.82783 0.55366 0.85841 0.0
H1381 H 0.83807 0.60392 0.78625 0.0
H1382 H 0.79252 0.54843 0.87293 0.0
H1383 H 0.80299 0.59877 0.80082 0.0
H1384 H 0.72991 0.56627 0.80299 0.0
H1385 H 0.76564 0.57251 0.79149 0.0
H1386 H 0.77395 0.56569 0.90233 0.0
H1387 H 0.73766 0.55912 0.91378 0.0
C1388 C 0.82256 0.56355 0.84553 0.0
C1389 C 0.83585 0.57911 0.82088 0.0
C1390 C 0.80236 0.56069 0.85413 0.0
C1391 C 0.79476 0.57315 0.83808 0.0
C1392 C 0.8081 0.58868 0.81347 0.0
C1393 C 0.82831 0.59167 0.80512 0.0
C1394 C 0.73929 0.56607 0.825 0.0
C1395 C 0.73076 0.56205 0.85933 0.0
C1396 C 0.75994 0.56985 0.81842 0.0
C1397 C 0.77283 0.5696 0.8459 0.0
C1398 C 0.76445 0.56581 0.88042 0.0
C1399 C 0.74373 0.56226 0.88709 0.0
H1400 H 0.4359 0.16121 0.88163 0.0
H1401 H 0.49902 0.19935 0.8381 0.0
H1402 H 0.42859 0.19031 0.87047 0.0
H1403 H 0.49175 0.22828 0.82678 0.0
H1404 H 0.47768 0.28352 0.84182 0.0
H1405 H 0.48531 0.2551 0.85684 0.0
H1406 H 0.42316 0.20804 0.81848 0.0
H1407 H 0.4156 0.23632 0.80339 0.0
C1408 C 0.44829 0.17586 0.87001 0.0
C1409 C 0.46802 0.17784 0.86063 0.0
C1410 C 0.44405 0.19249 0.8633 0.0
C1411 C 0.45955 0.2117 0.84756 0.0
C1412 C 0.47946 0.21385 0.83911 0.0
C1413 C 0.48358 0.19714 0.84535 0.0
C1414 C 0.46567 0.26712 0.83651 0.0
C1415 C 0.44606 0.26231 0.82119 0.0
C1416 C 0.47005 0.2508 0.84507 0.0
C1417 C 0.45483 0.22918 0.83902 0.0
C1418 C 0.43518 0.22442 0.82395 0.0
C1419 C 0.43091 0.24071 0.815 0.0
H1420 H 0.73891 0.1985 0.84306 0.0
H1421 H 0.78607 0.18366 0.80413 0.0
H1422 H 0.76738 0.2346 0.8581 0.0
H1423 H 0.81438 0.21954 0.81935 0.0
H1424 H 0.86123 0.27921 0.88294 0.0
H1425 H 0.83209 0.24276 0.87178 0.0
H1426 H 0.79426 0.26784 0.82752 0.0
H1427 H 0.82327 0.3041 0.83875 0.0
C1428 C 0.75531 0.2029 0.83768 0.0
C1429 C 0.76009 0.1881 0.82219 0.0
C1430 C 0.77166 0.22364 0.84625 0.0
C1431 C 0.79327 0.23005 0.84008 0.0
C1432 C 0.79801 0.21516 0.82489 0.0
C1433 C 0.78169 0.19458 0.81589 0.0
C1434 C 0.84662 0.27692 0.87118 0.0
C1435 C 0.8447 0.29465 0.86161 0.0
C1436 C 0.82996 0.25602 0.86448 0.0
C1437 C 0.81077 0.25227 0.84859 0.0
C1438 C 0.80868 0.27003 0.83996 0.0
C1439 C 0.82542 0.29087 0.84615 0.0
H1440 H 0.46863 0.19343 0.35646 0.0
H1441 H 0.41976 0.18433 0.28195 0.0
H1442 H 0.47472 0.22914 0.37003 0.0
H1443 H 0.42584 0.2199 0.29549 0.0
H1444 H 0.46 0.29322 0.29816 0.0
H1445 H 0.45331 0.25729 0.28675 0.0
H1446 H 0.45737 0.24804 0.39811 0.0
H1447 H 0.46433 0.2844 0.40951 0.0
C1448 C 0.45922 0.19903 0.34286 0.0
C1449 C 0.44378 0.18594 0.3179 0.0
C1450 C 0.4626 0.21948 0.35089 0.0
C1451 C 0.4508 0.22753 0.3339 0.0
C1452 C 0.43541 0.21442 0.30888 0.0
C1453 C 0.43188 0.19393 0.30115 0.0
C1454 C 0.45955 0.28361 0.32029 0.0
C1455 C 0.46285 0.29186 0.35479 0.0
C1456 C 0.4555 0.26285 0.31375 0.0
C1457 C 0.45479 0.24963 0.34144 0.0
C1458 C 0.45798 0.25779 0.37606 0.0
C1459 C 0.46178 0.27857 0.38267 0.0
H1460 H 0.72051 0.19859 0.34008 0.0
H1461 H 0.7453 0.16029 0.38313 0.0
H1462 H 0.75672 0.22739 0.32833 0.0
H1463 H 0.78183 0.18931 0.37141 0.0
H1464 H 0.84086 0.23601 0.30297 0.0
H1465 H 0.80515 0.2074 0.31888 0.0
H1466 H 0.78979 0.25399 0.35861 0.0
H1467 H 0.82554 0.28264 0.34287 0.0
C1468 C 0.73373 0.19634 0.34715 0.0
C1469 C 0.72993 0.17703 0.36243 0.0
C1470 C 0.75456 0.21296 0.34064 0.0
C1471 C 0.77231 0.21075 0.34878 0.0
C1472 C 0.76857 0.19153 0.3645 0.0
C1473 C 0.74765 0.17496 0.37154 0.0
C1474 C 0.82988 0.24021 0.31507 0.0
C1475 C 0.83615 0.26174 0.32141 0.0
C1476 C 0.80942 0.22373 0.32448 0.0
C1477 C 0.79449 0.22829 0.34011 0.0
C1478 C 0.80076 0.24983 0.34639 0.0
C1479 C 0.82131 0.2663 0.33741 0.0
H1480 H 0.73843 0.54668 0.34184 0.0
H1481 H 0.78495 0.60856 0.30187 0.0
H1482 H 0.76712 0.53969 0.35751 0.0
H1483 H 0.81365 0.60159 0.31774 0.0
H1484 H 0.86082 0.58896 0.38244 0.0
H1485 H 0.83189 0.59653 0.37026 0.0
H1486 H 0.79368 0.53314 0.32753 0.0
H1487 H 0.82238 0.52569 0.33972 0.0
C1488 C 0.75476 0.5588 0.33631 0.0
C1489 C 0.75926 0.57815 0.32035 0.0
C1490 C 0.77126 0.55477 0.34527 0.0
C1491 C 0.79281 0.57007 0.33899 0.0
C1492 C 0.79732 0.58951 0.32334 0.0
C1493 C 0.78079 0.59343 0.31395 0.0
C1494 C 0.84614 0.57661 0.37082 0.0
C1495 C 0.84401 0.55674 0.36196 0.0
C1496 C 0.82962 0.58099 0.3635 0.0
C1497 C 0.81038 0.56547 0.34776 0.0
C1498 C 0.80812 0.54546 0.33985 0.0
C1499 C 0.82469 0.54122 0.34663 0.0
H1500 H 0.63167 0.12189 0.92869 0.0
H1501 H 0.62282 0.12613 0.81734 0.0
H1502 H 0.59566 0.11494 0.94005 0.0
H1503 H 0.58632 0.11891 0.8287 0.0
H1504 H 0.5314 0.1299 0.87071 0.0
H1505 H 0.56707 0.13594 0.85664 0.0
H1506 H 0.55836 0.08756 0.93172 0.0
H1507 H 0.52287 0.08155 0.94577 0.0
C1508 C 0.62202 0.12133 0.90653 0.0
C1509 C 0.63032 0.12472 0.87206 0.0
C1510 C 0.6012 0.11714 0.91305 0.0
C1511 C 0.58791 0.11635 0.88538 0.0
C1512 C 0.5961 0.11957 0.85076 0.0
C1513 C 0.61697 0.12352 0.84416 0.0
C1514 C 0.53711 0.12059 0.88431 0.0
C1515 C 0.52418 0.10532 0.90961 0.0
C1516 C 0.55754 0.12393 0.87599 0.0
C1517 C 0.56575 0.11228 0.89301 0.0
C1518 C 0.55278 0.09703 0.91829 0.0
C1519 C 0.53232 0.09354 0.92632 0.0
H1520 H 0.92526 0.52414 0.85226 0.0
H1521 H 0.86125 0.48407 0.89104 0.0
H1522 H 0.93337 0.49565 0.86446 0.0
H1523 H 0.86929 0.4558 0.90341 0.0
H1524 H 0.88455 0.40181 0.88835 0.0
H1525 H 0.87705 0.43021 0.8734 0.0
H1526 H 0.93802 0.47695 0.91623 0.0
H1527 H 0.94553 0.44852 0.93129 0.0
C1528 C 0.91287 0.50921 0.86308 0.0
C1529 C 0.89261 0.50648 0.87074 0.0
C1530 C 0.91756 0.49293 0.87041 0.0
C1531 C 0.90201 0.47335 0.88505 0.0
C1532 C 0.88165 0.47053 0.89194 0.0
C1533 C 0.87707 0.48685 0.88509 0.0
C1534 C 0.89637 0.41812 0.89469 0.0
C1535 C 0.91562 0.42276 0.91123 0.0
C1536 C 0.89203 0.43445 0.88617 0.0
C1537 C 0.90691 0.45597 0.89354 0.0
C1538 C 0.92626 0.46064 0.9098 0.0
C1539 C 0.9305 0.44427 0.9187 0.0
H1540 H 0.62216 0.48809 0.88203 0.0
H1541 H 0.57468 0.50178 0.92323 0.0
H1542 H 0.59387 0.4522 0.86552 0.0
H1543 H 0.54654 0.46613 0.90665 0.0
H1544 H 0.49941 0.40677 0.84346 0.0
H1545 H 0.52852 0.44332 0.85435 0.0
H1546 H 0.56752 0.41857 0.89481 0.0
H1547 H 0.5386 0.38229 0.88379 0.0
C1548 C 0.60573 0.48349 0.88758 0.0
C1549 C 0.60081 0.4979 0.90417 0.0
C1550 C 0.58947 0.46287 0.87816 0.0
C1551 C 0.56782 0.45619 0.8846 0.0
C1552 C 0.56294 0.47072 0.90083 0.0
C1553 C 0.57916 0.49118 0.91062 0.0
C1554 C 0.5143 0.40918 0.85423 0.0
C1555 C 0.51657 0.39155 0.86292 0.0
C1556 C 0.53094 0.43012 0.86079 0.0
C1557 C 0.55043 0.43399 0.87565 0.0
C1558 C 0.55288 0.41632 0.88317 0.0
C1559 C 0.53619 0.39545 0.8771 0.0
H1560 H 0.61003 0.83513 0.75509 0.0
H1561 H 0.54776 0.82001 0.71739 0.0
H1562 H 0.60274 0.7995 0.73908 0.0
H1563 H 0.54038 0.78408 0.70149 0.0
H1564 H 0.52766 0.71478 0.72139 0.0
H1565 H 0.53443 0.75092 0.73186 0.0
H1566 H 0.59724 0.77648 0.68653 0.0
H1567 H 0.59041 0.74012 0.67615 0.0
C1568 C 0.59474 0.82421 0.74338 0.0
C1569 C 0.57946 0.83053 0.73771 0.0
C1570 C 0.59063 0.80376 0.7339 0.0
C1571 C 0.57099 0.78885 0.71884 0.0
C1572 C 0.55564 0.7951 0.71321 0.0
C1573 C 0.55988 0.81572 0.72227 0.0
C1574 C 0.5429 0.72809 0.71353 0.0
C1575 C 0.55854 0.72449 0.69811 0.0
C1576 C 0.54672 0.74886 0.71928 0.0
C1577 C 0.56642 0.76671 0.71021 0.0
C1578 C 0.58195 0.76313 0.69415 0.0
C1579 C 0.57799 0.74229 0.68791 0.0
H1580 H 0.18569 0.78066 0.76164 0.0
H1581 H 0.20093 0.73417 0.72084 0.0
H1582 H 0.22156 0.80929 0.74654 0.0
H1583 H 0.23684 0.76282 0.70594 0.0
H1584 H 0.30622 0.8179 0.72443 0.0
H1585 H 0.26997 0.78921 0.73644 0.0
H1586 H 0.24501 0.82764 0.69436 0.0
H1587 H 0.28152 0.85652 0.6824 0.0
C1588 C 0.19668 0.7765 0.74951 0.0
C1589 C 0.19032 0.75499 0.74264 0.0
C1590 C 0.21724 0.79298 0.74058 0.0
C1591 C 0.2322 0.78847 0.72494 0.0
C1592 C 0.22586 0.76695 0.71819 0.0
C1593 C 0.2052 0.75048 0.72668 0.0
C1594 C 0.29303 0.82028 0.71769 0.0
C1595 C 0.29688 0.83963 0.70253 0.0
C1596 C 0.27217 0.80371 0.72435 0.0
C1597 C 0.25444 0.80602 0.71649 0.0
C1598 C 0.25824 0.82532 0.70105 0.0
C1599 C 0.27917 0.84183 0.69388 0.0
H1600 H 0.166 0.43136 0.68309 0.0
H1601 H 0.20501 0.49469 0.72535 0.0
H1602 H 0.1949 0.42371 0.69405 0.0
H1603 H 0.23375 0.48708 0.73646 0.0
H1604 H 0.28845 0.47236 0.72069 0.0
H1605 H 0.26009 0.48013 0.70605 0.0
H1606 H 0.21301 0.41839 0.74562 0.0
H1607 H 0.24127 0.41067 0.76033 0.0
C1608 C 0.18078 0.44371 0.6944 0.0
C1609 C 0.18307 0.46361 0.70345 0.0
C1610 C 0.19731 0.43928 0.701 0.0
C1611 C 0.21672 0.45474 0.71629 0.0
C1612 C 0.21916 0.47481 0.72447 0.0
C1613 C 0.20256 0.47912 0.71836 0.0
C1614 C 0.27206 0.46045 0.72632 0.0
C1615 C 0.26725 0.44091 0.74188 0.0
C1616 C 0.25576 0.46493 0.718 0.0
C1617 C 0.23416 0.44988 0.72453 0.0
C1618 C 0.22938 0.43028 0.73979 0.0
C1619 C 0.24566 0.42592 0.74851 0.0
H1620 H 0.41 0.91973 0.21504 0.0
H1621 H 0.38527 0.85658 0.1718 0.0
H1622 H 0.44651 0.92709 0.20419 0.0
H1623 H 0.42156 0.86388 0.16085 0.0
H1624 H 0.49074 0.87783 0.17666 0.0
H1625 H 0.45466 0.87036 0.19137 0.0
H1626 H 0.4701 0.93244 0.15259 0.0
H1627 H 0.50601 0.93985 0.1378 0.0
C1628 C 0.41233 0.90735 0.20355 0.0
C1629 C 0.39461 0.88759 0.19418 0.0
C1630 C 0.43327 0.91162 0.19702 0.0
C1631 C 0.43709 0.89611 0.1815 0.0
C1632 C 0.41934 0.87618 0.17303 0.0
C1633 C 0.39847 0.87204 0.17905 0.0
C1634 C 0.48645 0.88989 0.17123 0.0
C1635 C 0.50137 0.90942 0.15582 0.0
C1636 C 0.4657 0.88558 0.17959 0.0
C1637 C 0.45937 0.9008 0.17328 0.0
C1638 C 0.47439 0.92041 0.15823 0.0
C1639 C 0.495 0.92459 0.14945 0.0
H1640 H 0.08129 0.57043 0.13563 0.0
H1641 H 0.14181 0.61784 0.17905 0.0
H1642 H 0.08903 0.54236 0.15177 0.0
H1643 H 0.14956 0.58971 0.19517 0.0
H1644 H 0.16582 0.53586 0.1785 0.0
H1645 H 0.1578 0.56417 0.1663 0.0
H1646 H 0.09341 0.5239 0.20364 0.0
H1647 H 0.10149 0.49538 0.21562 0.0
C1648 C 0.09628 0.57492 0.14859 0.0
C1649 C 0.11096 0.59652 0.15583 0.0
C1650 C 0.10064 0.55874 0.15814 0.0
C1651 C 0.11992 0.56366 0.17487 0.0
C1652 C 0.13462 0.58527 0.18206 0.0
C1653 C 0.13015 0.60144 0.17288 0.0
C1654 C 0.14994 0.53301 0.18418 0.0
C1655 C 0.13428 0.51323 0.19791 0.0
C1656 C 0.14538 0.54936 0.17743 0.0
C1657 C 0.12493 0.54641 0.18383 0.0
C1658 C 0.10929 0.52672 0.19804 0.0
C1659 C 0.11396 0.51041 0.20525 0.0
H1660 H 0.52729 0.61208 0.21622 0.0
H1661 H 0.48822 0.63628 0.1742 0.0
H1662 H 0.49841 0.57549 0.20516 0.0
H1663 H 0.45951 0.59991 0.16299 0.0
H1664 H 0.40491 0.53048 0.17802 0.0
H1665 H 0.43321 0.56657 0.19325 0.0
H1666 H 0.48043 0.55219 0.15317 0.0
H1667 H 0.45225 0.51625 0.13782 0.0
C1668 C 0.51249 0.60961 0.20496 0.0
C1669 C 0.51018 0.62719 0.19597 0.0
C1670 C 0.49598 0.58863 0.19831 0.0
C1671 C 0.47657 0.58466 0.18302 0.0
C1672 C 0.4741 0.60226 0.17497 0.0
C1673 C 0.49068 0.62318 0.18114 0.0
C1674 C 0.42132 0.53501 0.17242 0.0
C1675 C 0.42619 0.52037 0.15653 0.0
C1676 C 0.43757 0.55575 0.18108 0.0
C1677 C 0.45919 0.56237 0.17456 0.0
C1678 C 0.46404 0.54764 0.159 0.0
C1679 C 0.4478 0.52703 0.14994 0.0
H1680 H 0.12677 0.62727 0.63267 0.0
H1681 H 0.13118 0.61865 0.74407 0.0
H1682 H 0.12011 0.59134 0.62144 0.0
H1683 H 0.12425 0.58229 0.73283 0.0
H1684 H 0.13542 0.52753 0.69177 0.0
H1685 H 0.14145 0.56324 0.70513 0.0
H1686 H 0.09281 0.55394 0.63006 0.0
H1687 H 0.08679 0.51836 0.61672 0.0
C1688 C 0.12635 0.61772 0.65486 0.0
C1689 C 0.12966 0.62604 0.68932 0.0
C1690 C 0.12232 0.59694 0.64841 0.0
C1691 C 0.12163 0.58375 0.67615 0.0
C1692 C 0.12484 0.59199 0.71073 0.0
C1693 C 0.12862 0.61278 0.71725 0.0
C1694 C 0.12605 0.53311 0.67802 0.0
C1695 C 0.11069 0.51998 0.65296 0.0
C1696 C 0.12939 0.55357 0.68592 0.0
C1697 C 0.11766 0.56163 0.66872 0.0
C1698 C 0.10234 0.54847 0.64362 0.0
C1699 C 0.09884 0.52797 0.63601 0.0
H1700 H 0.50665 0.57004 0.63733 0.0
H1701 H 0.49104 0.61647 0.67712 0.0
H1702 H 0.47108 0.54131 0.65339 0.0
H1703 H 0.45537 0.58767 0.69304 0.0
H1704 H 0.3862 0.53172 0.67433 0.0
H1705 H 0.42231 0.56083 0.66287 0.0
H1706 H 0.44793 0.52318 0.70589 0.0
H1707 H 0.41151 0.49387 0.71731 0.0
C1708 C 0.49564 0.57416 0.64947 0.0
C1709 C 0.50179 0.59568 0.65572 0.0
C1710 C 0.47525 0.55762 0.65897 0.0
C1711 C 0.46026 0.56208 0.67461 0.0
C1712 C 0.46639 0.5836 0.68082 0.0
C1713 C 0.4869 0.60015 0.67174 0.0
C1714 C 0.39951 0.52964 0.68146 0.0
C1715 C 0.39589 0.51036 0.6966 0.0
C1716 C 0.42028 0.54643 0.67512 0.0
C1717 C 0.43814 0.54443 0.68331 0.0
C1718 C 0.43457 0.52525 0.69895 0.0
C1719 C 0.41371 0.5085 0.70581 0.0
H1720 H 0.50386 0.89231 0.74688 0.0
H1721 H 0.51891 0.89885 0.63609 0.0
H1722 H 0.47438 0.89917 0.73511 0.0
H1723 H 0.48966 0.90539 0.62428 0.0
H1724 H 0.44886 0.93694 0.61789 0.0
H1725 H 0.47872 0.93182 0.63297 0.0
H1726 H 0.43859 0.88199 0.70578 0.0
H1727 H 0.40859 0.88719 0.69075 0.0
C1728 C 0.50102 0.89539 0.72012 0.0
C1729 C 0.51374 0.89491 0.69246 0.0
C1730 C 0.48399 0.89911 0.71327 0.0
C1731 C 0.4795 0.90281 0.67865 0.0
C1732 C 0.49262 0.90281 0.65127 0.0
C1733 C 0.50936 0.89886 0.65804 0.0
C1734 C 0.44631 0.92483 0.63707 0.0
C1735 C 0.42615 0.91239 0.65285 0.0
C1736 C 0.46349 0.92185 0.6457 0.0
C1737 C 0.46119 0.90644 0.67063 0.0
C1738 C 0.44109 0.89414 0.68674 0.0
C1739 C 0.4238 0.897 0.67786 0.0
H1740 H 0.18632 0.41005 0.25976 0.0
H1741 H 0.20256 0.47271 0.22266 0.0
H1742 H 0.22199 0.41697 0.24415 0.0
H1743 H 0.23833 0.47965 0.20719 0.0
H1744 H 0.30728 0.4923 0.22536 0.0
H1745 H 0.2712 0.48534 0.23708 0.0
H1746 H 0.24541 0.42246 0.19193 0.0
H1747 H 0.28179 0.42951 0.18029 0.0
C1748 C 0.1975 0.42535 0.24838 0.0
C1749 C 0.19148 0.44086 0.24272 0.0
C1750 C 0.21795 0.42924 0.23911 0.0
C1751 C 0.23314 0.44886 0.2243 0.0
C1752 C 0.22716 0.46441 0.21878 0.0
C1753 C 0.20659 0.46042 0.22761 0.0
C1754 C 0.29394 0.47699 0.21784 0.0
C1755 C 0.29751 0.46144 0.20201 0.0
C1756 C 0.27319 0.47305 0.22433 0.0
C1757 C 0.25527 0.4533 0.21561 0.0
C1758 C 0.2588 0.43779 0.19932 0.0
C1759 C 0.27964 0.44187 0.19233 0.0
H1760 H 0.60709 0.77883 0.27989 0.0
H1761 H 0.55779 0.73866 0.20615 0.0
H1762 H 0.60127 0.80839 0.26584 0.0
H1763 H 0.55194 0.76836 0.19211 0.0
H1764 H 0.56224 0.83375 0.15208 0.0
H1765 H 0.56926 0.8044 0.16355 0.0
H1766 H 0.57401 0.81849 0.27477 0.0
H1767 H 0.5673 0.84767 0.26329 0.0
C1768 C 0.59493 0.77624 0.26075 0.0
C1769 C 0.58282 0.75622 0.24438 0.0
C1770 C 0.59156 0.79324 0.25272 0.0
C1771 C 0.5761 0.79086 0.22782 0.0
C1772 C 0.56412 0.77089 0.21116 0.0
C1773 C 0.56735 0.75378 0.21946 0.0
C1774 C 0.56498 0.83066 0.17889 0.0
C1775 C 0.56408 0.84306 0.20673 0.0
C1776 C 0.5688 0.81371 0.18555 0.0
C1777 C 0.57218 0.80897 0.22016 0.0
C1778 C 0.57167 0.82168 0.24779 0.0
C1779 C 0.56762 0.83836 0.2412 0.0
H1780 H 0.24292 0.83344 0.27831 0.0
H1781 H 0.28272 0.82416 0.2039 0.0
H1782 H 0.21322 0.79807 0.26428 0.0
H1783 H 0.25289 0.78862 0.18987 0.0
H1784 H 0.18727 0.73328 0.15034 0.0
H1785 H 0.21673 0.76967 0.16167 0.0
H1786 H 0.2029 0.7607 0.27295 0.0
H1787 H 0.17363 0.72478 0.2616 0.0
C1788 C 0.2454 0.82385 0.259 0.0
C1789 C 0.26538 0.83174 0.24246 0.0
C1790 C 0.22832 0.80347 0.25099 0.0
C1791 C 0.23054 0.79033 0.22591 0.0
C1792 C 0.25045 0.79829 0.20906 0.0
C1793 C 0.26765 0.81864 0.21735 0.0
C1794 C 0.19044 0.73919 0.17713 0.0
C1795 C 0.17807 0.72597 0.20502 0.0
C1796 C 0.20746 0.75999 0.18372 0.0
C1797 C 0.21233 0.76824 0.21831 0.0
C1798 C 0.19963 0.75509 0.24597 0.0
C1799 C 0.18289 0.73433 0.23946 0.0
H1800 H 0.35466 0.22938 0.20057 0.0
H1801 H 0.31199 0.18434 0.12305 0.0
H1802 H 0.365 0.20345 0.21865 0.0
H1803 H 0.32251 0.15902 0.14073 0.0
H1804 H 0.36299 0.12752 0.1638 0.0
H1805 H 0.3537 0.15347 0.14223 0.0
H1806 H 0.34456 0.16773 0.24923 0.0
H1807 H 0.35371 0.14158 0.27085 0.0
C1808 C 0.34767 0.21415 0.18715 0.0
C1809 C 0.33237 0.20899 0.16058 0.0
C1810 C 0.35353 0.19933 0.19755 0.0
C1811 C 0.34428 0.17922 0.18131 0.0
C1812 C 0.32994 0.17448 0.15351 0.0
C1813 C 0.32402 0.18918 0.14326 0.0
C1814 C 0.35844 0.13575 0.18266 0.0
C1815 C 0.3591 0.13262 0.21901 0.0
C1816 C 0.35335 0.15075 0.17033 0.0
C1817 C 0.34887 0.16281 0.19418 0.0
C1818 C 0.34852 0.15897 0.23042 0.0
C1819 C 0.35353 0.14393 0.24272 0.0
H1820 H 0.80709 0.1381 0.13897 0.0
H1821 H 0.81796 0.11178 0.23308 0.0
H1822 H 0.83556 0.17361 0.15595 0.0
H1823 H 0.84722 0.14684 0.24946 0.0
H1824 H 0.88153 0.21713 0.28401 0.0
H1825 H 0.85552 0.1806 0.2695 0.0
H1826 H 0.87313 0.19345 0.15962 0.0
H1827 H 0.89781 0.23049 0.17382 0.0
C1828 C 0.81551 0.14013 0.16352 0.0
C1829 C 0.81028 0.12257 0.18512 0.0
C1830 C 0.83203 0.16025 0.17296 0.0
C1831 C 0.84391 0.16299 0.20379 0.0
C1832 C 0.83827 0.14536 0.22577 0.0
C1833 C 0.82146 0.12534 0.21661 0.0
C1834 C 0.87989 0.21216 0.25676 0.0
C1835 C 0.89116 0.22693 0.22995 0.0
C1836 C 0.86513 0.19111 0.24846 0.0
C1837 C 0.86178 0.18429 0.21324 0.0
C1838 C 0.87478 0.19846 0.18688 0.0
C1839 C 0.88925 0.21964 0.19512 0.0
H1840 H 0.80632 0.67508 0.26092 0.0
H1841 H 0.77978 0.64176 0.16339 0.0
H1842 H 0.84187 0.68325 0.24183 0.0
H1843 H 0.81491 0.64876 0.14474 0.0
H1844 H 0.88483 0.68605 0.10943 0.0
H1845 H 0.84854 0.67542 0.12588 0.0
H1846 H 0.86194 0.66601 0.23324 0.0
H1847 H 0.89877 0.67844 0.21737 0.0
C1848 C 0.80829 0.66976 0.23523 0.0
C1849 C 0.79064 0.65818 0.21331 0.0
C1850 C 0.82845 0.67404 0.2245 0.0
C1851 C 0.83116 0.66636 0.19195 0.0
C1852 C 0.81344 0.65512 0.16975 0.0
C1853 C 0.79337 0.65121 0.18026 0.0
C1854 C 0.88007 0.68174 0.13656 0.0
C1855 C 0.89493 0.68381 0.16229 0.0
C1856 C 0.85913 0.67537 0.14593 0.0
C1857 C 0.8525 0.67042 0.1811 0.0
C1858 C 0.86679 0.67047 0.20615 0.0
C1859 C 0.88785 0.67722 0.19689 0.0
H1860 H 0.14346 0.34801 0.27584 0.0
H1861 H 0.12618 0.34616 0.38537 0.0
H1862 H 0.1669 0.33414 0.29172 0.0
H1863 H 0.14912 0.33196 0.40092 0.0
H1864 H 0.18168 0.293 0.41229 0.0
H1865 H 0.15466 0.30084 0.39183 0.0
H1866 H 0.20163 0.35172 0.327 0.0
H1867 H 0.22904 0.34394 0.34799 0.0
C1868 C 0.14441 0.34434 0.30316 0.0
C1869 C 0.1333 0.34854 0.32944 0.0
C1870 C 0.1578 0.33646 0.31218 0.0
C1871 C 0.15999 0.33238 0.34752 0.0
C1872 C 0.14762 0.33496 0.37342 0.0
C1873 C 0.13438 0.34298 0.36447 0.0
C1874 C 0.18641 0.30614 0.39423 0.0
C1875 C 0.20761 0.3183 0.38238 0.0
C1876 C 0.17085 0.31042 0.38222 0.0
C1877 C 0.17613 0.32684 0.35796 0.0
C1878 C 0.19718 0.33877 0.34546 0.0
C1879 C 0.21284 0.3345 0.3576 0.0
H1880 H 0.67626 0.78582 0.38849 0.0
H1881 H 0.67376 0.79874 0.27795 0.0
H1882 H 0.69126 0.82345 0.40161 0.0
H1883 H 0.68813 0.83644 0.29153 0.0
H1884 H 0.67867 0.88996 0.34797 0.0
H1885 H 0.67057 0.85447 0.32753 0.0
H1886 H 0.72353 0.85997 0.38823 0.0
H1887 H 0.73176 0.8952 0.40774 0.0
C1888 C 0.67938 0.79669 0.36686 0.0
C1889 C 0.67339 0.7892 0.33227 0.0
C1890 C 0.68786 0.81823 0.37444 0.0
C1891 C 0.69039 0.8326 0.34758 0.0
C1892 C 0.68586 0.82547 0.31268 0.0
C1893 C 0.67764 0.80395 0.30502 0.0
C1894 C 0.68854 0.88352 0.35665 0.0
C1895 C 0.70535 0.89493 0.38031 0.0
C1896 C 0.68407 0.86342 0.34487 0.0
C1897 C 0.69641 0.85461 0.35665 0.0
C1898 C 0.71362 0.86635 0.37929 0.0
C1899 C 0.71812 0.88635 0.39082 0.0
H1900 H 0.24316 0.88693 0.40031 0.0
H1901 H 0.2208 0.87696 0.29273 0.0
H1902 H 0.20754 0.86067 0.42018 0.0
H1903 H 0.1851 0.85052 0.31263 0.0
H1904 H 0.13211 0.78782 0.35607 0.0
H1905 H 0.16876 0.81375 0.33961 0.0
H1906 H 0.17115 0.85583 0.42249 0.0
H1907 H 0.13498 0.83053 0.43863 0.0
C1908 C 0.23051 0.87953 0.38103 0.0
C1909 C 0.23467 0.88391 0.34496 0.0
C1910 C 0.21021 0.86435 0.39236 0.0
C1911 C 0.1938 0.85335 0.3678 0.0
C1912 C 0.19769 0.85844 0.33193 0.0
C1913 C 0.21797 0.87365 0.32063 0.0
C1914 C 0.14053 0.80252 0.37091 0.0
C1915 C 0.13041 0.80705 0.39844 0.0
C1916 C 0.16142 0.81734 0.36145 0.0
C1917 C 0.17254 0.83682 0.37957 0.0
C1918 C 0.16293 0.84085 0.40825 0.0
C1919 C 0.1421 0.82616 0.41759 0.0
H1920 H 0.73619 0.83079 0.84709 0.0
H1921 H 0.66936 0.78668 0.86726 0.0
H1922 H 0.72687 0.85558 0.82023 0.0
H1923 H 0.66017 0.81103 0.83894 0.0
H1924 H 0.64812 0.85416 0.77503 0.0
H1925 H 0.66337 0.83126 0.78044 0.0
H1926 H 0.70936 0.87507 0.8552 0.0
H1927 H 0.69424 0.89853 0.84947 0.0
C1928 C 0.71952 0.8262 0.84538 0.0
C1929 C 0.70354 0.80704 0.86042 0.0
C1930 C 0.71426 0.84033 0.82972 0.0
C1931 C 0.69291 0.83521 0.828 0.0
C1932 C 0.67679 0.81523 0.83988 0.0
C1933 C 0.68206 0.80126 0.85608 0.0
C1934 C 0.66194 0.85945 0.79174 0.0
C1935 C 0.66986 0.87815 0.8122 0.0
C1936 C 0.67057 0.84619 0.79486 0.0
C1937 C 0.68735 0.85142 0.81829 0.0
C1938 C 0.69645 0.87085 0.83673 0.0
C1939 C 0.68769 0.88412 0.83379 0.0
H1940 H 0.13965 0.80216 0.80336 0.0
H1941 H 0.15078 0.77703 0.89868 0.0
H1942 H 0.16747 0.83803 0.82007 0.0
H1943 H 0.17938 0.81249 0.91484 0.0
H1944 H 0.2126 0.88276 0.94839 0.0
H1945 H 0.18681 0.84614 0.93405 0.0
H1946 H 0.20497 0.85864 0.82434 0.0
H1947 H 0.22944 0.89578 0.83832 0.0
C1948 C 0.14799 0.80452 0.82808 0.0
C1949 C 0.14301 0.78718 0.85009 0.0
C1950 C 0.16414 0.82487 0.83741 0.0
C1951 C 0.17589 0.82807 0.86856 0.0
C1952 C 0.1705 0.81065 0.8909 0.0
C1953 C 0.15407 0.79039 0.88184 0.0
C1954 C 0.2111 0.87771 0.9212 0.0
C1955 C 0.22255 0.8924 0.89437 0.0
C1956 C 0.19647 0.8566 0.91301 0.0
C1957 C 0.1934 0.84961 0.87788 0.0
C1958 C 0.20642 0.86376 0.85152 0.0
C1959 C 0.22078 0.885 0.85964 0.0
H1960 H 0.13942 0.33627 0.94125 0.0
H1961 H 0.11641 0.32523 0.83402 0.0
H1962 H 0.17483 0.34515 0.92029 0.0
H1963 H 0.15171 0.33417 0.8131 0.0
H1964 H 0.2242 0.37572 0.79359 0.0
H1965 H 0.18827 0.36526 0.81076 0.0
H1966 H 0.19049 0.32456 0.89163 0.0
H1967 H 0.22691 0.33491 0.87411 0.0
C1968 C 0.14205 0.33602 0.91321 0.0
C1969 C 0.12525 0.33006 0.88927 0.0
C1970 C 0.16216 0.34085 0.90129 0.0
C1971 C 0.16576 0.3399 0.86521 0.0
C1972 C 0.14927 0.335 0.84109 0.0
C1973 C 0.12915 0.33012 0.85303 0.0
C1974 C 0.21706 0.36408 0.81436 0.0
C1975 C 0.22863 0.35625 0.83266 0.0
C1976 C 0.19638 0.35819 0.8243 0.0
C1977 C 0.18682 0.34438 0.85275 0.0
C1978 C 0.19781 0.33562 0.86999 0.0
C1979 C 0.21855 0.34146 0.85992 0.0
H1980 H 0.83822 0.71371 0.6336 0.0
H1981 H 0.79401 0.6709 0.71166 0.0
H1982 H 0.86412 0.70381 0.65085 0.0
H1983 H 0.82048 0.6611 0.72934 0.0
H1984 H 0.88228 0.67006 0.77768 0.0
H1985 H 0.85667 0.6806 0.75863 0.0
H1986 H 0.86908 0.67237 0.65007 0.0
H1987 H 0.89446 0.66172 0.66904 0.0
C1988 C 0.83373 0.70177 0.65386 0.0
C1989 C 0.81388 0.69297 0.67114 0.0
C1990 C 0.84874 0.69625 0.66391 0.0
C1991 C 0.84432 0.68187 0.69153 0.0
C1992 C 0.82434 0.67254 0.70828 0.0
C1993 C 0.8092 0.67804 0.6981 0.0
C1994 C 0.87967 0.67077 0.74977 0.0
C1995 C 0.89023 0.66499 0.72485 0.0
C1996 C 0.86494 0.67659 0.73893 0.0
C1997 C 0.8607 0.67688 0.70298 0.0
C1998 C 0.87213 0.67228 0.67797 0.0
C1999 C 0.8868 0.66639 0.68882 0.0
H2000 H 0.32926 0.1108 0.72896 0.0
H2001 H 0.33901 0.13519 0.62272 0.0
H2002 H 0.33783 0.14565 0.7517 0.0
H2003 H 0.34747 0.17011 0.6455 0.0
H2004 H 0.33703 0.22107 0.69507 0.0
H2005 H 0.32661 0.18482 0.6765 0.0
H2006 H 0.36875 0.18247 0.75446 0.0
H2007 H 0.37935 0.21826 0.77264 0.0
C2008 C 0.33377 0.12374 0.71054 0.0
C2009 C 0.33347 0.12036 0.67406 0.0
C2010 C 0.33842 0.14359 0.72353 0.0
C2011 C 0.34285 0.16032 0.70023 0.0
C2012 C 0.34354 0.15724 0.66389 0.0
C2013 C 0.33894 0.13741 0.65092 0.0
C2014 C 0.34391 0.21273 0.70842 0.0
C2015 C 0.35922 0.22279 0.73503 0.0
C2016 C 0.338 0.19207 0.69775 0.0
C2017 C 0.34718 0.18112 0.71378 0.0
C2018 C 0.36139 0.19058 0.74181 0.0
C2019 C 0.36737 0.21119 0.75233 0.0
H2020 H 0.88922 0.23169 0.66695 0.0
H2021 H 0.91452 0.19773 0.72404 0.0
H2022 H 0.85325 0.20536 0.68554 0.0
H2023 H 0.87837 0.17112 0.74232 0.0
H2024 H 0.80754 0.13971 0.78657 0.0
H2025 H 0.84507 0.16642 0.77666 0.0
H2026 H 0.83241 0.16598 0.66547 0.0
H2027 H 0.79506 0.13965 0.67537 0.0
C2028 C 0.88713 0.21896 0.68434 0.0
C2029 C 0.90451 0.21653 0.6938 0.0
C2030 C 0.86658 0.20377 0.69454 0.0
C2031 C 0.86317 0.18606 0.71457 0.0
C2032 C 0.88068 0.1846 0.72664 0.0
C2033 C 0.90125 0.19973 0.7162 0.0
C2034 C 0.81296 0.14511 0.76 0.0
C2035 C 0.79846 0.13778 0.73177 0.0
C2036 C 0.83431 0.16033 0.75438 0.0
C2037 C 0.84132 0.16849 0.72049 0.0
C2038 C 0.82715 0.16018 0.69197 0.0
C2039 C 0.8059 0.14488 0.69754 0.0
H2040 H 0.0171 0.5599 0.54273 0.0
H2041 H 0.9733 0.51503 0.46626 0.0
H2042 H 0.02712 0.53361 0.56035 0.0
H2043 H 0.98348 0.4893 0.4834 0.0
H2044 H 0.02721 0.46033 0.49998 0.0
H2045 H 0.01552 0.48497 0.48143 0.0
H2046 H 1.00786 0.49739 0.59025 0.0
H2047 H 0.01934 0.47245 0.6089 0.0
C2048 C 1.00978 0.54459 0.52952 0.0
C2049 C 0.99453 0.53969 0.50298 0.0
C2050 C 0.0154 0.52956 0.53967 0.0
C2051 C 1.0059 0.50946 0.52329 0.0
C2052 C 0.99115 0.50477 0.49615 0.0
C2053 C 0.98548 0.51969 0.48616 0.0
C2054 C 0.02245 0.46781 0.51993 0.0
C2055 C 0.02433 0.46463 0.5559 0.0
C2056 C 0.01595 0.48205 0.50931 0.0
C2057 C 1.01125 0.4933 0.53451 0.0
C2058 C 1.01194 0.48924 0.57041 0.0
C2059 C 0.01834 0.47492 0.58102 0.0
H2060 H 0.57087 0.55781 0.52414 0.0
H2061 H 0.52813 0.55306 0.60809 0.0
H2062 H 0.54624 0.52062 0.50867 0.0
H2063 H 0.50417 0.51641 0.59294 0.0
H2064 H 0.47342 0.44509 0.56905 0.0
H2065 H 0.50019 0.48044 0.58935 0.0
H2066 H 0.50925 0.50381 0.48247 0.0
H2067 H 0.48236 0.46841 0.46218 0.0
C2068 C 0.55649 0.54887 0.53956 0.0
C2069 C 0.55144 0.55864 0.56697 0.0
C2070 C 0.54243 0.52766 0.5307 0.0
C2071 C 0.52325 0.51591 0.54936 0.0
C2072 C 0.51893 0.52514 0.57828 0.0
C2073 C 0.53285 0.54627 0.58701 0.0
C2074 C 0.48075 0.45789 0.55004 0.0
C2075 C 0.47585 0.45412 0.51406 0.0
C2076 C 0.49623 0.47801 0.56159 0.0
C2077 C 0.50699 0.49461 0.53731 0.0
C2078 C 0.50154 0.49106 0.50153 0.0
C2079 C 0.48605 0.47096 0.49001 0.0
H2080 H 0.55751 0.04276 0.45862 0.0
H2081 H 0.56006 1.00288 0.54108 0.0
H2082 H 0.52118 0.03166 0.47412 0.0
H2083 H 0.52325 0.99195 0.55693 0.0
H2084 H 0.47028 1.00215 0.60248 0.0
H2085 H 0.50632 0.01206 0.58351 0.0
H2086 H 0.48492 0.99968 0.4754 0.0
H2087 H 0.44896 0.98964 0.49434 0.0
C2088 C 0.55028 0.03122 0.47951 0.0
C2089 C 0.56189 0.0238 0.49877 0.0
C2090 C 0.52937 0.02497 0.48848 0.0
C2091 C 0.51961 0.01122 0.51693 0.0
C2092 C 0.5307 1.00294 0.53525 0.0
C2093 C 0.55168 0.00913 0.52614 0.0
C2094 C 0.4734 1.00178 0.57466 0.0
C2095 C 0.45688 0.99509 0.5499 0.0
C2096 C 0.49388 1.00723 0.56389 0.0
C2097 C 0.49816 1.00619 0.52814 0.0
C2098 C 0.48194 1.00057 0.50315 0.0
C2099 C 0.46144 0.99506 0.51395 0.0
H2100 H 0.56621 0.01379 1.02069 0.0
H2101 H 0.52312 0.97332 0.10214 0.0
H2102 H 0.54009 0.02421 1.00389 0.0
H2103 H 0.49763 0.98385 0.0857 0.0
H2104 H 0.46727 0.02556 0.06508 0.0
H2105 H 0.49306 0.01554 0.08447 0.0
H2106 H 0.50334 1.00399 0.97645 0.0
H2107 H 0.47735 0.01394 0.95702 0.0
C2108 C 0.55138 1.00732 0.03521 0.0
C2109 C 0.54683 0.9927 0.06265 0.0
C2110 C 0.53645 0.01319 1.02554 0.0
C2111 C 0.51685 1.00459 0.04335 0.0
C2112 C 0.51271 0.99081 0.07176 0.0
C2113 C 0.52751 0.9849 0.0813 0.0
C2114 C 0.47456 0.0203 0.04558 0.0
C2115 C 0.47041 0.02055 1.00954 0.0
C2116 C 0.48947 0.01479 0.05664 0.0
C2117 C 0.50041 0.00944 0.03182 0.0
C2118 C 0.49546 0.00861 0.99595 0.0
C2119 C 0.48051 0.01406 0.98491 0.0
H2120 H 0.0145 0.46936 0.9712 0.0
H2121 H 0.97775 0.44397 0.06617 0.0
H2122 H 0.02261 0.5052 0.98821 0.0
H2123 H 0.98465 0.4794 0.08261 0.0
H2124 H 0.02157 0.54967 0.11638 0.0
H2125 H 1.01085 0.51308 0.10203 0.0
H2126 H 1.00542 0.52557 0.9923 0.0
H2127 H 0.01798 0.56266 1.00627 0.0
C2128 C 1.00845 0.47166 0.99594 0.0
C2129 C 0.9959 0.45426 1.01774 0.0
C2130 C 1.01267 0.49199 1.00542 0.0
C2131 C 1.00396 0.49509 0.03651 0.0
C2132 C 0.9918 0.47762 0.05871 0.0
C2133 C 0.98795 0.45739 0.0495 0.0
C2134 C 0.01811 0.54463 0.08918 0.0
C2135 C 0.0214 0.5593 0.06234 0.0
C2136 C 1.01169 0.52354 0.08099 0.0
C2137 C 1.00788 0.51657 0.04586 0.0
C2138 C 1.00902 0.53069 1.01948 0.0
C2139 C 0.01584 0.5519 1.0276 0.0
H2140 H 0.44377 0.49641 1.01406 0.0
H2141 H 0.46688 0.45268 0.03425 0.0
H2142 H 0.47797 0.52148 0.98753 0.0
H2143 H 0.50052 0.47732 1.00623 0.0
H2144 H 0.55579 0.52103 0.94234 0.0
H2145 H 0.51767 0.49776 0.94779 0.0
H2146 H 0.51486 0.54114 1.02284 0.0
H2147 H 0.55343 0.56497 1.01709 0.0
C2148 C 0.45597 0.49197 1.01241 0.0
C2149 C 0.45286 0.47283 1.02736 0.0
C2150 C 0.47541 0.50626 0.99695 0.0
C2151 C 0.49176 0.50132 0.99534 0.0
C2152 C 0.488 0.48137 1.00711 0.0
C2153 C 0.46871 0.46724 1.02312 0.0
C2154 C 0.54713 0.52614 0.95914 0.0
C2155 C 0.55772 0.54483 0.97964 0.0
C2156 C 0.52525 0.51267 0.96228 0.0
C2157 C 0.51353 0.51769 0.98578 0.0
C2158 C 0.52368 0.53709 1.00432 0.0
C2159 C 0.5457 0.55056 1.00136 0.0
H2160 H 0.31329 0.2223 1.02057 0.0
H2161 H 0.29525 0.268 0.98772 0.0
H2162 H 0.34329 0.23767 0.97979 0.0
H2163 H 0.32578 0.28378 0.94652 0.0
H2164 H 0.39753 0.31951 0.90543 0.0
H2165 H 0.36704 0.30485 0.9467 0.0
H2166 H 0.35109 0.24108 0.91663 0.0
H2167 H 0.38106 0.25563 0.87575 0.0
C2168 C 0.31546 0.2354 1.00397 0.0
C2169 C 0.30144 0.24353 1.00701 0.0
C2170 C 0.33284 0.24435 0.98059 0.0
C2171 C 0.33725 0.26213 0.95968 0.0
C2172 C 0.32309 0.27022 0.96231 0.0
C2173 C 0.30533 0.26094 0.98548 0.0
C2174 C 0.38783 0.30238 0.90844 0.0
C2175 C 0.39215 0.28878 0.88781 0.0
C2176 C 0.37007 0.29393 0.93162 0.0
C2177 C 0.35635 0.27166 0.93515 0.0
C2178 C 0.36121 0.25824 0.91513 0.0
C2179 C 0.37858 0.26662 0.89173 0.0
H2180 H 0.7778 0.04462 0.97401 0.0
H2181 H 0.76898 0.08298 0.05204 0.0
H2182 H 0.76267 0.05771 0.92913 0.0
H2183 H 0.75437 0.09604 1.00785 0.0
H2184 H 0.71243 0.10432 0.9256 0.0
H2185 H 0.72496 0.0886 0.97038 0.0
H2186 H 0.7701 0.08867 0.8959 0.0
H2187 H 0.75764 0.1039 0.85178 0.0
C2188 C 0.77274 0.05581 0.98169 0.0
C2189 C 0.77484 0.06265 1.01693 0.0
C2190 C 0.76406 0.06344 0.9559 0.0
C2191 C 0.75709 0.07804 0.96455 0.0
C2192 C 0.75909 0.08463 0.99985 0.0
C2193 C 0.76778 0.07716 1.02536 0.0
C2194 C 0.72505 0.10104 0.91886 0.0
C2195 C 0.73391 0.10556 0.88479 0.0
C2196 C 0.73232 0.09199 0.9446 0.0
C2197 C 0.7486 0.08708 0.93702 0.0
C2198 C 0.75734 0.09168 0.90295 0.0
C2199 C 0.7502 0.10072 0.87751 0.0
H2200 H 0.93894 0.62425 0.90972 0.0
H2201 H 0.89444 0.64299 0.87299 0.0
H2202 H 0.95431 0.65483 0.95084 0.0
H2203 H 0.90937 0.67303 0.9138 0.0
H2204 H 0.92607 0.71065 1.01843 0.0
H2205 H 0.91179 0.68066 0.97749 0.0
H2206 H 0.97579 0.69623 0.94973 0.0
H2207 H 0.99017 0.72674 0.99091 0.0
C2208 C 0.93205 0.6345 0.9111 0.0
C2209 C 0.9151 0.63082 0.88852 0.0
C2210 C 0.9411 0.65228 0.93422 0.0
C2211 C 0.93321 0.66663 0.93576 0.0
C2212 C 0.91586 0.66242 0.9138 0.0
C2213 C 0.90717 0.64503 0.89043 0.0
C2214 C 0.93717 0.70808 1.00291 0.0
C2215 C 0.9593 0.72154 1.00741 0.0
C2216 C 0.92894 0.69071 0.97951 0.0
C2217 C 0.94253 0.68575 0.96018 0.0
C2218 C 0.96477 0.69936 0.96429 0.0
C2219 C 0.97306 0.71712 0.98741 0.0
H2220 H 0.25033 0.27929 0.59039 0.0
H2221 H 0.25423 0.32516 0.51398 0.0
H2222 H 0.26613 0.30785 0.63478 0.0
H2223 H 0.26953 0.35319 0.55775 0.0
H2224 H 0.31304 0.40487 0.63723 0.0
H2225 H 0.2999 0.37638 0.59258 0.0
H2226 H 0.25905 0.33074 0.67036 0.0
H2227 H 0.27212 0.35863 0.71429 0.0
C2228 C 0.25442 0.29533 0.58298 0.0
C2229 C 0.25078 0.2996 0.54831 0.0
C2230 C 0.2635 0.31184 0.60851 0.0
C2231 C 0.26935 0.33318 0.60017 0.0
C2232 C 0.26574 0.33729 0.56546 0.0
C2233 C 0.25666 0.32092 0.54021 0.0
C2234 C 0.30127 0.38877 0.64475 0.0
C2235 C 0.29376 0.38437 0.67968 0.0
C2236 C 0.29362 0.37231 0.61907 0.0
C2237 C 0.27833 0.35091 0.62755 0.0
C2238 C 0.27101 0.34668 0.66251 0.0
C2239 C 0.2785 0.36299 0.68788 0.0
H2240 H 0.66163 0.91725 0.7128 0.0
H2241 H 0.61582 0.91336 0.63609 0.0
H2242 H 0.68964 0.93231 0.66928 0.0
H2243 H 0.64451 0.92897 0.59177 0.0
H2244 H 0.69615 0.93439 0.51352 0.0
H2245 H 0.66774 0.92163 0.55665 0.0
H2246 H 0.71271 0.96282 0.63503 0.0
H2247 H 0.74162 0.9756 0.59135 0.0
C2248 C 0.65739 0.91965 0.68655 0.0
C2249 C 0.63609 0.91386 0.67832 0.0
C2250 C 0.67377 0.9286 0.66144 0.0
C2251 C 0.66972 0.93218 0.6267 0.0
C2252 C 0.64841 0.92639 0.61814 0.0
C2253 C 0.63185 0.91743 0.6436 0.0
C2254 C 0.70021 0.94087 0.53993 0.0
C2255 C 0.72153 0.95609 0.54868 0.0
C2256 C 0.68364 0.93359 0.56477 0.0
C2257 C 0.68757 0.94108 0.59966 0.0
C2258 C 0.70889 0.95639 0.60859 0.0
C2259 C 0.72559 0.96382 0.58349 0.0
H2260 H 0.0442 0.76964 0.59215 0.0
H2261 H 0.08891 0.76903 0.51744 0.0
H2262 H 0.05701 0.75401 0.63663 0.0
H2263 H 0.10167 0.75393 0.56126 0.0
H2264 H 0.10997 0.71002 0.6386 0.0
H2265 H 0.09465 0.72319 0.59424 0.0
H2266 H 0.08635 0.76109 0.67381 0.0
H2267 H 0.10112 0.74788 0.71755 0.0
C2268 C 0.05678 0.76634 0.58515 0.0
C2269 C 0.06538 0.77076 0.5509 0.0
C2270 C 0.06422 0.75735 0.61072 0.0
C2271 C 0.08044 0.75241 0.60282 0.0
C2272 C 0.08895 0.75694 0.56858 0.0
C2273 C 0.08164 0.76591 0.54331 0.0
C2274 C 0.10487 0.72113 0.64659 0.0
C2275 C 0.107 0.72779 0.68194 0.0
C2276 C 0.09609 0.72882 0.62108 0.0
C2277 C 0.08906 0.74333 0.6301 0.0
C2278 C 0.0911 0.74975 0.66551 0.0
C2279 C 0.09988 0.74221 0.69076 0.0
H2280 H 0.66193 0.75011 0.21442 0.0
H2281 H 0.61626 0.7083 0.1373 0.0
H2282 H 0.68996 0.7634 0.17078 0.0
H2283 H 0.6449 0.72164 0.09298 0.0
H2284 H 0.69577 0.76749 1.01465 0.0
H2285 H 0.6677 0.75199 0.05818 0.0
H2286 H 0.71327 0.75654 0.1359 0.0
H2287 H 0.74192 0.77263 0.09172 0.0
C2288 C 0.65774 0.74357 0.18806 0.0
C2289 C 0.63649 0.72799 0.17971 0.0
C2290 C 0.67412 0.75119 0.16289 0.0
C2291 C 0.67008 0.74366 0.12804 0.0
C2292 C 0.6488 0.72808 0.11941 0.0
C2293 C 0.63226 0.72033 0.14486 0.0
C2294 C 0.70007 0.76529 0.04098 0.0
C2295 C 0.72147 0.77159 0.04937 0.0
C2296 C 0.68368 0.75608 0.06608 0.0
C2297 C 0.68785 0.75274 0.10089 0.0
C2298 C 0.70926 0.75898 0.10951 0.0
C2299 C 0.72581 0.76821 0.08413 0.0
H2300 H 0.25226 0.97697 0.08949 0.0
H2301 H 0.2531 0.93247 1.01458 0.0
H2302 H 0.26805 0.96427 0.13386 0.0
H2303 H 0.26835 0.91981 0.05829 0.0
H2304 H 0.31223 0.91142 0.1358 0.0
H2305 H 0.29902 0.92671 0.09139 0.0
H2306 H 0.26111 0.93503 0.17089 0.0
H2307 H 0.27432 0.92032 0.21462 0.0
C2308 C 0.25564 0.96447 0.08243 0.0
C2309 C 0.25123 0.95589 0.04814 0.0
C2310 C 0.26473 0.95708 0.10793 0.0
C2311 C 0.26977 0.94094 0.09995 0.0
C2312 C 0.26526 0.93247 0.06568 0.0
C2313 C 0.25621 0.93973 0.04047 0.0
C2314 C 0.3011 0.91652 0.14375 0.0
C2315 C 0.29445 0.91443 0.1791 0.0
C2316 C 0.2934 0.92529 0.11822 0.0
C2317 C 0.27888 0.93233 0.12721 0.0
C2318 C 0.27246 0.93029 0.1626 0.0
C2319 C 0.28002 0.92154 0.18786 0.0
H2320 H 0.08533 0.39355 0.15914 0.0
H2321 H 0.1349 0.37943 0.18469 0.0
H2322 H 0.06958 0.363 0.11803 0.0
H2323 H 0.11957 0.34938 0.14386 0.0
H2324 H 0.09917 0.31121 0.04005 0.0
H2325 H 0.11394 0.34133 0.08066 0.0
H2326 H 0.05064 0.32185 0.1189 0.0
H2327 H 0.03577 0.29122 0.07791 0.0
C2328 C 0.09325 0.38438 0.15517 0.0
C2329 C 0.11176 0.38937 0.17456 0.0
C2330 C 0.084 0.36658 0.13211 0.0
C2331 C 0.09318 0.35349 0.1275 0.0
C2332 C 0.11204 0.35902 0.14624 0.0
C2333 C 0.12099 0.37644 0.16955 0.0
C2334 C 0.08838 0.31299 0.0577 0.0
C2335 C 0.06629 0.29842 0.05613 0.0
C2336 C 0.09688 0.33042 0.08096 0.0
C2337 C 0.08359 0.3343 0.1032 0.0
C2338 C 0.06142 0.31957 0.10204 0.0
C2339 C 0.05289 0.30176 0.079 0.0
H2340 H 0.77467 0.73805 0.47288 0.0
H2341 H 0.77115 0.69215 0.5489 0.0
H2342 H 0.75906 0.70958 0.4283 0.0
H2343 H 0.7561 0.66424 0.50496 0.0
H2344 H 0.71281 0.61257 0.42566 0.0
H2345 H 0.72586 0.641 0.47034 0.0
H2346 H 0.76618 0.68689 0.39239 0.0
H2347 H 0.75313 0.65902 0.34837 0.0
C2348 C 0.7707 0.72202 0.48016 0.0
C2349 C 0.77436 0.7177 0.51478 0.0
C2350 C 0.76174 0.70558 0.45453 0.0
C2351 C 0.75607 0.68426 0.46272 0.0
C2352 C 0.75973 0.68012 0.49737 0.0
C2353 C 0.76867 0.69642 0.52272 0.0
C2354 C 0.72446 0.62871 0.41811 0.0
C2355 C 0.7318 0.63319 0.38311 0.0
C2356 C 0.73206 0.64513 0.4438 0.0
C2357 C 0.74717 0.66659 0.43529 0.0
C2358 C 0.75435 0.67089 0.40026 0.0
C2359 C 0.74688 0.65462 0.37485 0.0
H2360 H 0.31185 0.09413 0.51773 0.0
H2361 H 0.29563 0.03039 0.48763 0.0
H2362 H 0.34184 0.10887 0.47671 0.0
H2363 H 0.32614 0.04519 0.44645 0.0
H2364 H 0.39812 0.08233 0.40673 0.0
H2365 H 0.3676 0.06666 0.4479 0.0
H2366 H 0.34935 0.11188 0.4127 0.0
H2367 H 0.37934 0.1271 0.37174 0.0
C2368 C 0.3144 0.08323 0.50163 0.0
C2369 C 0.3009 0.06105 0.50539 0.0
C2370 C 0.33176 0.0917 0.4782 0.0
C2371 C 0.33668 0.07833 0.45815 0.0
C2372 C 0.32304 0.05605 0.46157 0.0
C2373 C 0.30528 0.04752 0.48469 0.0
C2374 C 0.38788 0.08922 0.40851 0.0
C2375 C 0.39153 0.10632 0.3864 0.0
C2376 C 0.37013 0.08 0.43167 0.0
C2377 C 0.35579 0.08788 0.43372 0.0
C2378 C 0.35997 0.10539 0.41226 0.0
C2379 C 0.37732 0.11424 0.38883 0.0
H2380 H 0.94264 0.25583 0.55055 0.0
H2381 H 0.97873 0.24449 0.47141 0.0
H2382 H 0.92958 0.27054 0.50666 0.0
H2383 H 0.96573 0.25986 0.42678 0.0
H2384 H 0.91976 0.26602 0.35062 0.0
H2385 H 0.93505 0.25341 0.39434 0.0
H2386 H 0.93659 0.29928 0.46881 0.0
H2387 H 0.92071 0.31189 0.42447 0.0
C2388 C 0.94798 0.25652 0.52367 0.0
C2389 C 0.96183 0.24869 0.51488 0.0
C2390 C 0.94052 0.26528 0.49831 0.0
C2391 C 0.94648 0.26666 0.46277 0.0
C2392 C 0.96046 0.25896 0.45374 0.0
C2393 C 0.96806 0.25015 0.47939 0.0
C2394 C 0.92329 0.2736 0.37627 0.0
C2395 C 0.91879 0.29012 0.38366 0.0
C2396 C 0.93236 0.26637 0.40148 0.0
C2397 C 0.93739 0.27525 0.43545 0.0
C2398 C 0.93284 0.29177 0.44314 0.0
C2399 C 0.92371 0.2991 0.41765 0.0
H2400 H 0.02862 0.60192 0.18101 0.0
H2401 H 0.07481 0.64228 0.25869 0.0
H2402 H 1.00062 0.58874 0.22477 0.0
H2403 H 0.04623 0.62906 0.30314 0.0
H2404 H 0.99505 0.58298 0.38108 0.0
H2405 H 0.02305 0.59847 0.33737 0.0
H2406 H 0.97769 0.59559 0.26077 0.0
H2407 H 0.94913 0.57959 0.30514 0.0
C2408 C 0.03294 0.60816 0.20752 0.0
C2409 C 0.05435 0.62328 0.21596 0.0
C2410 C 0.01658 0.60061 0.23278 0.0
C2411 C 0.02077 0.60772 0.26787 0.0
C2412 C 0.04219 0.62292 0.27655 0.0
C2413 C 0.0587 0.63063 0.25099 0.0
C2414 C 0.99079 0.58556 0.35496 0.0
C2415 C 0.96946 0.57978 0.34699 0.0
C2416 C 1.00715 0.59476 0.32975 0.0
C2417 C 1.00303 0.59859 0.29518 0.0
C2418 C 0.98167 0.59281 0.28694 0.0
C2419 C 0.96517 0.58361 0.31245 0.0
H2420 H 0.43987 0.41781 0.38062 0.0
H2421 H 0.44098 0.37384 0.30488 0.0
H2422 H 0.42464 0.43068 0.33713 0.0
H2423 H 0.42523 0.38672 0.26081 0.0
H2424 H 0.41948 0.4312 0.18079 0.0
H2425 H 0.43251 0.41628 0.22442 0.0
H2426 H 0.39398 0.42383 0.30369 0.0
H2427 H 0.38096 0.43935 0.25936 0.0
C2428 C 0.43684 0.41073 0.3546 0.0
C2429 C 0.44189 0.39467 0.34658 0.0
C2430 C 0.4278 0.4181 0.32953 0.0
C2431 C 0.4234 0.40982 0.29512 0.0
C2432 C 0.42848 0.39376 0.28685 0.0
C2433 C 0.43754 0.38627 0.31218 0.0
C2434 C 0.41362 0.42978 0.20748 0.0
C2435 C 0.39909 0.43676 0.21622 0.0
C2436 C 0.42107 0.4209 0.23267 0.0
C2437 C 0.41441 0.41858 0.26795 0.0
C2438 C 0.39976 0.42546 0.27693 0.0
C2439 C 0.39217 0.43435 0.25145 0.0
H2440 H 0.60513 0.02603 0.38125 0.0
H2441 H 0.64732 0.07173 0.30465 0.0
H2442 H 0.59222 0.99798 0.3376 0.0
H2443 H 0.63434 0.04309 0.26031 0.0
H2444 H 0.58902 0.99202 0.18133 0.0
H2445 H 0.60418 0.02013 0.22493 0.0
H2446 H 0.59939 0.97473 0.30305 0.0
H2447 H 0.58371 0.94606 0.2588 0.0
C2448 C 0.61182 0.03023 0.355 0.0
C2449 C 0.62739 0.05151 0.34682 0.0
C2450 C 0.60442 0.01384 0.32982 0.0
C2451 C 0.61215 0.01788 0.29508 0.0
C2452 C 0.62774 0.03918 0.28663 0.0
C2453 C 0.63529 0.05572 0.31211 0.0
C2454 C 0.59112 0.98778 0.20776 0.0
C2455 C 0.58489 0.96641 0.21622 0.0
C2456 C 0.60012 1.00419 0.23291 0.0
C2457 C 0.60329 1.00009 0.26787 0.0
C2458 C 0.5971 0.9787 0.27656 0.0
C2459 C 0.5881 0.96214 0.25113 0.0
H2460 H 0.41696 0.99197 0.67884 0.0
H2461 H 0.38003 0.94544 0.75844 0.0
H2462 H 0.43064 0.02006 0.72245 0.0
H2463 H 0.39369 0.97411 0.80274 0.0
H2464 H 0.44044 0.02618 0.87845 0.0
H2465 H 0.4248 0.99806 0.83492 0.0
H2466 H 0.42399 0.04239 0.75998 0.0
H2467 H 0.44018 0.07107 0.80412 0.0
C2468 C 0.41157 0.9876 0.70575 0.0
C2469 C 0.39728 0.96608 0.71478 0.0
C2470 C 0.4194 1.004 0.73094 0.0
C2471 C 0.41339 0.99974 0.7665 0.0
C2472 C 0.39899 0.97821 0.77576 0.0
C2473 C 0.39103 0.96165 0.7503 0.0
C2474 C 0.43702 0.03018 0.85272 0.0
C2475 C 0.44178 0.05124 0.84513 0.0
C2476 C 0.42774 0.01376 0.82764 0.0
C2477 C 0.42279 0.01755 0.79362 0.0
C2478 C 0.42765 0.03867 0.78572 0.0
C2479 C 0.43698 0.05524 0.81107 0.0
H2480 H 0.07687 0.43873 0.76103 0.0
H2481 H 0.03118 0.43485 0.68413 0.0
H2482 H 0.04824 0.42332 0.80534 0.0
H2483 H 1.00313 0.42 0.72778 0.0
H2484 H 0.95117 0.37667 0.80633 0.0
H2485 H 0.97986 0.38979 0.76218 0.0
H2486 H 0.02522 0.43031 0.8407 0.0
H2487 H 0.99708 0.41716 0.88424 0.0
C2488 C 0.06087 0.43476 0.75352 0.0
C2489 C 0.05664 0.4382 0.71871 0.0
C2490 C 0.04432 0.4259 0.77898 0.0
C2491 C 0.02302 0.42013 0.77043 0.0
C2492 C 0.01899 0.42368 0.73563 0.0
C2493 C 0.03537 0.4325 0.71045 0.0
C2494 C 0.96724 0.38838 0.81411 0.0
C2495 C 0.9715 0.39574 0.84913 0.0
C2496 C 0.98382 0.39601 0.78873 0.0
C2497 C 1.0052 0.41121 0.79756 0.0
C2498 C 1.00929 0.41842 0.83261 0.0
C2499 C 0.99286 0.4109 0.85772 0.0
H2500 H 0.58274 0.64236 0.75891 0.0
H2501 H 0.59114 0.60413 0.68002 0.0
H2502 H 0.59853 0.62949 0.80302 0.0
H2503 H 0.60636 0.59131 0.72342 0.0
H2504 H 0.64877 0.58278 0.80413 0.0
H2505 H 0.63611 0.59881 0.76009 0.0
H2506 H 0.59137 0.59848 0.83573 0.0
H2507 H 0.60394 0.58299 0.87905 0.0
C2508 C 0.58786 0.63126 0.75088 0.0
C2509 C 0.58544 0.62437 0.71564 0.0
C2510 C 0.59692 0.62377 0.77622 0.0
C2511 C 0.60394 0.60926 0.76706 0.0
C2512 C 0.60163 0.60266 0.73177 0.0
C2513 C 0.59258 0.60999 0.70673 0.0
C2514 C 0.63624 0.5861 0.81127 0.0
C2515 C 0.62751 0.5814 0.84542 0.0
C2516 C 0.62888 0.59532 0.78598 0.0
C2517 C 0.61266 0.60022 0.79412 0.0
C2518 C 0.60409 0.59549 0.82828 0.0
C2519 C 0.61129 0.58629 0.85324 0.0
H2520 H 0.22448 0.20209 0.3839 0.0
H2521 H 0.20364 0.24552 0.35002 0.0
H2522 H 0.22569 0.19256 0.32217 0.0
H2523 H 0.20566 0.2369 0.28911 0.0
H2524 H 0.20558 0.21615 0.17706 0.0
H2525 H 0.19523 0.21594 0.23876 0.0
H2526 H 0.24663 0.20604 0.27226 0.0
H2527 H 0.25618 0.20538 0.2115 0.0
C2528 C 0.21972 0.20927 0.36348 0.0
C2529 C 0.21399 0.22462 0.37236 0.0
C2530 C 0.22073 0.20409 0.32777 0.0
C2531 C 0.21609 0.21412 0.29979 0.0
C2532 C 0.2092 0.22852 0.30916 0.0
C2533 C 0.20815 0.2336 0.34455 0.0
C2534 C 0.21431 0.21342 0.1976 0.0
C2535 C 0.2318 0.21087 0.18882 0.0
C2536 C 0.20857 0.21357 0.23327 0.0
C2537 C 0.22015 0.2112 0.26135 0.0
C2538 C 0.23697 0.20766 0.25213 0.0
C2539 C 0.24261 0.20746 0.21679 0.0
H2540 H 0.80609 0.99396 0.18062 0.0
H2541 H 0.81925 0.05604 0.21595 0.0
H2542 H 0.80692 0.98383 0.24202 0.0
H2543 H 0.81901 0.04584 0.2764 0.0
H2544 H 0.82144 0.02723 0.38762 0.0
H2545 H 0.83163 0.03785 0.3261 0.0
H2546 H 0.78656 0.9737 0.29238 0.0
H2547 H 0.77746 0.96315 0.35305 0.0
C2548 C 0.8095 1.00557 0.20128 0.0
C2549 C 0.81246 0.02579 0.19292 0.0
C2550 C 0.80969 0.9997 0.23679 0.0
C2551 C 0.81274 0.01383 0.26506 0.0
C2552 C 0.81684 0.03439 0.25615 0.0
C2553 C 0.81678 0.04023 0.22098 0.0
C2554 C 0.81427 0.0153 0.36709 0.0
C2555 C 0.79854 0.99434 0.37566 0.0
C2556 C 0.81982 0.02142 0.3315 0.0
C2557 C 0.80971 1.00681 0.30339 0.0
C2558 C 0.795 0.98558 0.31251 0.0
C2559 C 0.78962 0.9795 0.34778 0.0
H2560 H 0.96573 0.76543 0.21318 0.0
H2561 H 0.0273 0.8157 0.17856 0.0
H2562 H 0.97613 0.77472 0.27397 0.0
H2563 H 0.03767 0.82573 0.24027 0.0
H2564 H 0.05871 0.81578 0.35052 0.0
H2565 H 0.04795 0.8142 0.28982 0.0
H2566 H 0.98412 0.796 0.32402 0.0
H2567 H 0.99495 0.79682 0.38553 0.0
C2568 C 0.98145 0.77887 0.21846 0.0
C2569 C 0.99568 0.78967 0.19046 0.0
C2570 C 0.9874 0.78435 0.25378 0.0
C2571 C 1.00789 0.80097 0.26288 0.0
C2572 C 0.02185 0.81256 0.2348 0.0
C2573 C 0.01584 0.807 0.19915 0.0
C2574 C 0.04239 0.81176 0.34535 0.0
C2575 C 0.02771 0.80631 0.37338 0.0
C2576 C 0.03621 0.81098 0.31011 0.0
C2577 C 0.01501 0.80475 0.30116 0.0
C2578 C 1.00052 0.80047 0.32935 0.0
C2579 C 1.00677 0.80124 0.36491 0.0
H2580 H 0.80416 0.81712 0.67843 0.0
H2581 H 0.81987 0.77009 0.71386 0.0
H2582 H 0.80402 0.82771 0.73985 0.0
H2583 H 0.81876 0.77971 0.77439 0.0
H2584 H 0.82018 0.80103 0.88568 0.0
H2585 H 0.83052 0.80061 0.82422 0.0
H2586 H 0.78327 0.81652 0.78996 0.0
H2587 H 0.77393 0.81792 0.85058 0.0
C2588 C 0.80796 0.8093 0.69912 0.0
C2589 C 0.81194 0.79266 0.69077 0.0
C2590 C 0.80758 0.81513 0.73465 0.0
C2591 C 0.81107 0.80445 0.76296 0.0
C2592 C 0.81619 0.78865 0.75409 0.0
C2593 C 0.81667 0.78297 0.71889 0.0
C2594 C 0.81248 0.80503 0.86504 0.0
C2595 C 0.79612 0.8094 0.8735 0.0
C2596 C 0.81815 0.80448 0.82949 0.0
C2597 C 0.80758 0.80819 0.80125 0.0
C2598 C 0.7921 0.81375 0.81021 0.0
C2599 C 0.78658 0.8144 0.84545 0.0
H2600 H 0.22399 0.02496 0.88206 0.0
H2601 H 0.20599 0.96142 0.84727 0.0
H2602 H 0.22463 0.03561 0.8205 0.0
H2603 H 0.20738 0.972 0.78652 0.0
H2604 H 0.2058 0.99227 0.67509 0.0
H2605 H 0.19566 0.98193 0.73677 0.0
H2606 H 0.24598 0.04384 0.77057 0.0
H2607 H 0.25535 0.05419 0.70981 0.0
C2608 C 0.21975 0.01314 0.86147 0.0
C2609 C 0.215 0.99233 0.87002 0.0
C2610 C 0.2204 0.01929 0.82589 0.0
C2611 C 0.21635 1.00482 0.79774 0.0
C2612 C 0.21043 0.98373 0.80677 0.0
C2613 C 0.20976 0.97764 0.84204 0.0
C2614 C 0.2143 1.00381 0.69569 0.0
C2615 C 0.23148 0.02406 0.68706 0.0
C2616 C 0.20869 0.99782 0.73132 0.0
C2617 C 0.22008 0.01189 0.75944 0.0
C2618 C 0.23651 0.03247 0.75036 0.0
C2619 C 0.24204 0.0384 0.71506 0.0
H2620 H 0.02944 0.21968 0.68099 0.0
H2621 H 0.96575 0.20167 0.71498 0.0
H2622 H 0.03986 0.22027 0.74267 0.0
H2623 H 0.97612 0.20311 0.77586 0.0
H2624 H 0.0584 0.25099 0.85316 0.0
H2625 H 0.04811 0.24148 0.79245 0.0
H2626 H 0.98583 0.19184 0.82614 0.0
H2627 H 0.99612 0.2022 0.88781 0.0
C2628 C 0.01754 0.21542 0.70143 0.0
C2629 C 0.99675 0.2107 0.69261 0.0
C2630 C 0.02356 0.21607 0.7371 0.0
C2631 C 1.009 0.21207 0.76509 0.0
C2632 C 0.98793 0.20613 0.75578 0.0
C2633 C 0.98196 0.20544 0.72042 0.0
C2634 C 0.04253 0.2378 0.84791 0.0
C2635 C 0.02809 0.22751 0.87589 0.0
C2636 C 0.03663 0.23217 0.81261 0.0
C2637 C 0.01598 0.2159 0.80348 0.0
C2638 C 1.00179 0.20476 0.83159 0.0
C2639 C 1.00774 0.21048 0.86724 0.0
H2640 H 0.88812 0.53438 0.71943 0.0
H2641 H 0.87618 0.58421 0.68523 0.0
H2642 H 0.88758 0.52385 0.65769 0.0
H2643 H 0.87651 0.57453 0.62447 0.0
H2644 H 0.87251 0.55253 0.51285 0.0
H2645 H 0.86307 0.55352 0.57469 0.0
H2646 H 0.90828 0.53445 0.60704 0.0
H2647 H 0.91681 0.53263 0.54602 0.0
C2648 C 0.88502 0.54287 0.69895 0.0
C2649 C 0.88228 0.56023 0.70776 0.0
C2650 C 0.88499 0.53704 0.66325 0.0
C2651 C 0.88223 0.5484 0.63523 0.0
C2652 C 0.87844 0.56504 0.64454 0.0
C2653 C 0.87843 0.57076 0.67988 0.0
C2654 C 0.87992 0.54794 0.53314 0.0
C2655 C 0.89548 0.54255 0.52401 0.0
C2656 C 0.87478 0.54882 0.56891 0.0
C2657 C 0.88508 0.5444 0.59673 0.0
C2658 C 0.8997 0.53782 0.58713 0.0
C2659 C 0.90473 0.53689 0.55166 0.0
H2660 H 0.46712 0.32241 0.50985 0.0
H2661 H 0.48877 0.38688 0.54398 0.0
H2662 H 0.46615 0.31175 0.5715 0.0
H2663 H 0.48701 0.37634 0.60481 0.0
H2664 H 0.48729 0.3558 0.71654 0.0
H2665 H 0.49755 0.36567 0.65478 0.0
H2666 H 0.44531 0.3047 0.62158 0.0
H2667 H 0.43584 0.29475 0.6824 0.0
C2668 C 0.47213 0.33441 0.53031 0.0
C2669 C 0.47798 0.35551 0.52157 0.0
C2670 C 0.47126 0.32827 0.56595 0.0
C2671 C 0.47618 0.34303 0.59397 0.0
C2672 C 0.48325 0.36436 0.58471 0.0
C2673 C 0.48415 0.37043 0.54938 0.0
C2674 C 0.47835 0.34436 0.69605 0.0
C2675 C 0.46065 0.32449 0.70491 0.0
C2676 C 0.48405 0.35008 0.66036 0.0
C2677 C 0.4722 0.33614 0.63237 0.0
C2678 C 0.45516 0.31594 0.64166 0.0
C2679 C 0.44957 0.31026 0.67703 0.0
H2680 H 0.69715 0.14939 0.51172 0.0
H2681 H 0.63374 0.10351 0.54663 0.0
H2682 H 0.70784 0.15954 0.57325 0.0
H2683 H 0.64441 0.11271 0.6073 0.0
H2684 H 0.66459 0.1338 0.7189 0.0
H2685 H 0.65405 0.13363 0.65741 0.0
H2686 H 0.7166 0.14734 0.62306 0.0
H2687 H 0.72715 0.14843 0.68364 0.0
C2688 C 0.68537 0.14175 0.53232 0.0
C2689 C 0.66458 0.12555 0.52379 0.0
C2690 C 0.69155 0.14731 0.56791 0.0
C2691 C 0.67716 0.1368 0.5961 0.0
C2692 C 0.65609 0.12149 0.58708 0.0
C2693 C 0.64996 0.11605 0.55181 0.0
C2694 C 0.67622 0.13733 0.69823 0.0
C2695 C 0.69671 0.14102 0.70667 0.0
C2696 C 0.67012 0.13695 0.66267 0.0
C2697 C 0.6843 0.14019 0.63441 0.0
C2698 C 0.7051 0.14499 0.64334 0.0
C2699 C 0.71115 0.14544 0.67857 0.0
H2700 H 0.43814 0.14566 0.1834 0.0
H2701 H 0.48768 0.13315 0.21726 0.0
H2702 H 0.44769 0.14526 0.12258 0.0
H2703 H 0.49806 0.1336 0.15548 0.0
H2704 H 0.48794 0.10347 0.04427 0.0
H2705 H 0.48676 0.11252 0.10521 0.0
H2706 H 0.46873 0.15846 0.07265 0.0
H2707 H 0.46908 0.14851 1.01086 0.0
C2708 C 0.45151 0.14328 0.17795 0.0
C2709 C 0.46198 0.13926 0.20572 0.0
C2710 C 0.45715 0.14323 0.1426 0.0
C2711 C 0.47363 0.13922 0.13321 0.0
C2712 C 0.48498 0.13635 0.16114 0.0
C2713 C 0.47924 0.13637 0.19684 0.0
C2714 C 0.48406 0.11582 0.04986 0.0
C2715 C 0.47847 0.12512 1.02222 0.0
C2716 C 0.48352 0.12116 0.08525 0.0
C2717 C 0.47739 0.13613 0.09475 0.0
C2718 C 0.47309 0.1465 0.06691 0.0
C2719 C 0.4736 0.14106 1.03119 0.0
H2720 H 0.87452 0.29523 0.18279 0.0
H2721 H 0.88726 0.3571 0.21847 0.0
H2722 H 0.87493 0.3056 0.12233 0.0
H2723 H 0.88668 0.36743 0.15711 0.0
H2724 H 0.87245 0.32465 1.01127 0.0
H2725 H 0.86216 0.31381 0.07269 0.0
H2726 H 0.9076 0.37768 0.1071 0.0
H2727 H 0.91688 0.38845 0.04653 0.0
C2728 C 0.87693 0.31101 0.17782 0.0
C2729 C 0.88107 0.32536 0.20597 0.0
C2730 C 0.87698 0.31696 0.14268 0.0
C2731 C 0.88105 0.33753 0.13392 0.0
C2732 C 0.88393 0.35155 0.16226 0.0
C2733 C 0.88398 0.34557 0.19773 0.0
C2734 C 0.8797 0.33648 0.03193 0.0
C2735 C 0.89558 0.35742 1.02359 0.0
C2736 C 0.87408 0.33023 0.06744 0.0
C2737 C 0.88423 0.3447 0.0957 0.0
C2738 C 0.89911 0.36592 0.08682 0.0
C2739 C 0.90459 0.37212 0.05163 0.0
H2740 H 0.72488 0.58054 0.18404 0.0
H2741 H 0.66129 0.53499 0.21864 0.0
H2742 H 0.7143 0.57146 0.12333 0.0
H2743 H 0.65066 0.52494 0.15703 0.0
H2744 H 0.63175 0.53635 0.04645 0.0
H2745 H 0.64211 0.5372 0.1071 0.0
H2746 H 0.70467 0.55075 0.07314 0.0
H2747 H 0.69435 0.55085 1.01163 0.0
C2748 C 0.70864 0.56807 0.17877 0.0
C2749 C 0.69395 0.55864 0.20672 0.0
C2750 C 0.70255 0.56271 0.14347 0.0
C2751 C 0.68145 0.54754 0.13433 0.0
C2752 C 0.66698 0.53707 0.16246 0.0
C2753 C 0.67312 0.54256 0.19809 0.0
C2754 C 0.64771 0.53925 0.05163 0.0
C2755 C 0.66222 0.54371 1.02362 0.0
C2756 C 0.65365 0.53957 0.0869 0.0
C2757 C 0.6744 0.54426 0.09597 0.0
C2758 C 0.68864 0.54752 0.06779 0.0
C2759 C 0.68267 0.5473 0.03221 0.0
H2760 H 0.53876 0.8834 0.84542 0.0
H2761 H 0.58696 0.86902 0.87965 0.0
H2762 H 0.52842 0.8833 0.90705 0.0
H2763 H 0.57757 0.8699 0.94039 0.0
H2764 H 0.55649 0.86778 0.05219 0.0
H2765 H 0.55699 0.85773 0.99054 0.0
H2766 H 0.53938 0.90388 0.95728 0.0
H2767 H 0.53792 0.91293 1.01804 0.0
C2768 C 0.54693 0.87987 0.86589 0.0
C2769 C 0.56379 0.87632 0.85709 0.0
C2770 C 0.54124 0.8801 0.90155 0.0
C2771 C 0.55227 0.87688 0.92959 0.0
C2772 C 0.56835 0.87224 0.92031 0.0
C2773 C 0.57391 0.8719 0.88497 0.0
C2774 C 0.55211 0.87527 0.03173 0.0
C2775 C 0.54723 0.89124 0.04051 0.0
C2776 C 0.55272 0.86978 0.99606 0.0
C2777 C 0.54856 0.88015 0.96803 0.0
C2778 C 0.54251 0.89521 0.97733 0.0
C2779 C 0.54181 0.90056 1.01267 0.0
H2780 H 0.10582 0.62874 1.0168 0.0
H2781 H 0.15366 0.69154 0.05114 0.0
H2782 H 0.11543 0.63879 0.95615 0.0
H2783 H 0.16431 0.70155 0.98958 0.0
H2784 H 0.15498 0.72126 0.87838 0.0
H2785 H 0.1537 0.71101 0.93914 0.0
H2786 H 0.1358 0.64705 0.90606 0.0
H2787 H 0.13604 0.65735 0.84443 0.0
C2788 C 0.11886 0.64468 1.01151 0.0
C2789 C 0.12877 0.65935 0.03938 0.0
C2790 C 0.12456 0.65045 0.97622 0.0
C2791 C 0.14061 0.67116 0.96696 0.0
C2792 C 0.15151 0.68554 0.99504 0.0
C2793 C 0.14565 0.67975 1.03067 0.0
C2794 C 0.15107 0.70501 0.8838 0.0
C2795 C 0.14545 0.69013 0.85603 0.0
C2796 C 0.15048 0.69911 0.91914 0.0
C2797 C 0.14437 0.67802 0.92851 0.0
C2798 C 0.1401 0.66337 0.90051 0.0
C2799 C 0.14057 0.66932 0.86484 0.0
H2800 H 0.39348 0.48379 1.01776 0.0
H2801 H 0.32992 0.46592 0.05235 0.0
H2802 H 0.38293 0.48226 0.95705 0.0
H2803 H 0.31934 0.46537 0.99081 0.0
H2804 H 0.30013 0.43512 0.8803 0.0
H2805 H 0.31064 0.44463 0.94089 0.0
H2806 H 0.37335 0.49318 0.90676 0.0
H2807 H 0.36285 0.4827 0.84525 0.0
C2808 C 0.37725 0.48003 1.0125 0.0
C2809 C 0.36255 0.47481 0.04045 0.0
C2810 C 0.37118 0.4793 0.9772 0.0
C2811 C 0.3501 0.47343 0.96806 0.0
C2812 C 0.33564 0.46949 0.9962 0.0
C2813 C 0.34175 0.47012 0.03181 0.0
C2814 C 0.31615 0.44808 0.88543 0.0
C2815 C 0.33064 0.45798 0.85736 0.0
C2816 C 0.32219 0.45371 0.92068 0.0
C2817 C 0.34302 0.46965 0.92969 0.0
C2818 C 0.35726 0.48048 0.90147 0.0
C2819 C 0.35118 0.47471 0.86588 0.0
H2820 H 0.10974 0.4843 0.51971 0.0
H2821 H 0.15304 0.46319 0.55314 0.0
H2822 H 0.11868 0.48288 0.45876 0.0
H2823 H 0.16286 0.46252 0.49137 0.0
H2824 H 0.14928 0.43218 0.38026 0.0
H2825 H 0.14891 0.44158 0.44122 0.0
H2826 H 0.14015 0.49385 0.40881 0.0
H2827 H 0.1397 0.4837 0.34691 0.0
C2828 C 0.1217 0.47988 0.51412 0.0
C2829 C 0.13055 0.47376 0.54175 0.0
C2830 C 0.12697 0.47918 0.47874 0.0
C2831 C 0.1414 0.47234 0.46927 0.0
C2832 C 0.15133 0.46747 0.49711 0.0
C2833 C 0.14598 0.46816 0.53281 0.0
C2834 C 0.14752 0.44591 0.38585 0.0
C2835 C 0.14434 0.45703 0.35816 0.0
C2836 C 0.1475 0.45146 0.42128 0.0
C2837 C 0.14435 0.46847 0.43081 0.0
C2838 C 0.14224 0.48037 0.40302 0.0
C2839 C 0.14223 0.47474 0.36726 0.0
H2840 H 0.58551 0.72168 0.38001 0.0
H2841 H 0.53844 0.65886 0.34448 0.0
H2842 H 0.57568 0.71114 0.44051 0.0
H2843 H 0.52765 0.64831 0.40587 0.0
H2844 H 0.53816 0.62851 0.51652 0.0
H2845 H 0.53924 0.63901 0.4559 0.0
H2846 H 0.55446 0.70204 0.4901 0.0
H2847 H 0.55434 0.69154 0.55156 0.0
C2848 C 0.57258 0.70563 0.38503 0.0
C2849 C 0.56294 0.6911 0.35694 0.0
C2850 C 0.56677 0.69958 0.42018 0.0
C2851 C 0.55092 0.6787 0.42897 0.0
C2852 C 0.54027 0.66444 0.40068 0.0
C2853 C 0.54621 0.67054 0.36519 0.0
C2854 C 0.54144 0.64459 0.51137 0.0
C2855 C 0.54635 0.65919 0.53937 0.0
C2856 C 0.5419 0.65062 0.47615 0.0
C2857 C 0.54719 0.67155 0.46721 0.0
C2858 C 0.55078 0.68587 0.49541 0.0
C2859 C 0.55041 0.6798 0.53094 0.0
H2860 H 0.32803 0.86713 0.55055 0.0
H2861 H 0.39181 0.91281 0.51706 0.0
H2862 H 0.31796 0.85686 0.48884 0.0
H2863 H 0.38178 0.90358 0.45622 0.0
H2864 H 0.36275 0.88384 0.34409 0.0
H2865 H 0.37266 0.88331 0.40576 0.0
H2866 H 0.30959 0.86875 0.43863 0.0
H2867 H 0.29968 0.86827 0.37787 0.0
C2868 C 0.34003 0.87467 0.53023 0.0
C2869 C 0.36073 0.89088 0.53918 0.0
C2870 C 0.33421 0.86906 0.49451 0.0
C2871 C 0.34888 0.87955 0.46662 0.0
C2872 C 0.36988 0.89481 0.47614 0.0
C2873 C 0.37565 0.90026 0.51152 0.0
C2874 C 0.35087 0.87991 0.36446 0.0
C2875 C 0.33043 0.87621 0.35559 0.0
C2876 C 0.3566 0.87991 0.40015 0.0
C2877 C 0.34211 0.87631 0.4281 0.0
C2878 C 0.32134 0.8714 0.41866 0.0
C2879 C 0.31565 0.87129 0.38332 0.0
H2880 H 0.31035 0.29175 0.13575 0.0
H2881 H 0.25448 0.28641 0.08461 0.0
H2882 H 0.32616 0.33027 0.13802 0.0
H2883 H 0.27055 0.32539 0.0875 0.0
H2884 H 0.31076 0.39691 0.14712 0.0
H2885 H 0.28848 0.35789 0.14335 0.0
H2886 H 0.336 0.35562 0.07772 0.0
H2887 H 0.35806 0.3942 0.08088 0.0
C2888 C 0.30129 0.29873 0.12542 0.0
C2889 C 0.28127 0.28605 0.10959 0.0
C2890 C 0.31038 0.32078 0.12675 0.0
C2891 C 0.29957 0.33059 0.11265 0.0
C2892 C 0.27908 0.31801 0.09851 0.0
C2893 C 0.26999 0.29581 0.0968 0.0
C2894 C 0.31622 0.38808 0.13134 0.0
C2895 C 0.33629 0.39858 0.11471 0.0
C2896 C 0.30347 0.36586 0.12915 0.0
C2897 C 0.31077 0.35399 0.11057 0.0
C2898 C 0.33021 0.36456 0.09241 0.0
C2899 C 0.34279 0.38663 0.09429 0.0
H2900 H 0.62887 0.96822 0.08289 0.0
H2901 H 0.62417 0.91697 0.14779 0.0
H2902 H 0.66749 0.98414 0.08132 0.0
H2903 H 0.66316 0.9331 0.14561 0.0
H2904 H 0.73576 0.97321 0.08376 0.0
H2905 H 0.69678 0.94995 0.08518 0.0
H2906 H 0.69131 0.99642 0.14871 0.0
H2907 H 0.72986 0.01948 0.1479 0.0
C2908 C 0.63601 0.96012 0.09628 0.0
C2909 C 0.62351 0.94149 0.11591 0.0
C2910 C 0.65808 0.96924 0.09527 0.0
C2911 C 0.66803 0.9598 0.11348 0.0
C2912 C 0.65563 0.9405 0.13131 0.0
C2913 C 0.63343 0.93139 0.1326 0.0
C2914 C 0.72625 0.97824 0.09859 0.0
C2915 C 0.73583 0.99828 0.11534 0.0
C2916 C 0.70406 0.96494 0.09942 0.0
C2917 C 0.69135 0.97165 0.11683 0.0
C2918 C 0.70096 0.99109 0.13503 0.0
C2919 C 0.723 1.00424 0.13448 0.0
H2920 H 0.04898 0.76829 0.0829 0.0
H2921 H 0.99907 0.7128 0.13593 0.0
H2922 H 0.07208 0.75239 0.08542 0.0
H2923 H 0.02195 0.6972 0.13786 0.0
H2924 H 0.05347 0.66511 0.07937 0.0
H2925 H 0.0374 0.68755 0.07569 0.0
H2926 H 0.08657 0.73431 0.14303 0.0
H2927 H 0.10288 0.71168 0.14726 0.0
C2928 C 0.04306 0.75291 0.09543 0.0
C2929 C 0.02213 0.74167 0.10884 0.0
C2930 C 0.05627 0.74393 0.09692 0.0
C2931 C 0.04855 0.7236 0.11153 0.0
C2932 C 0.02807 0.71286 0.12625 0.0
C2933 C 0.01502 0.72183 0.12509 0.0
C2934 C 0.06114 0.68029 0.09303 0.0
C2935 C 0.07925 0.68647 0.11411 0.0
C2936 C 0.05194 0.69311 0.0908 0.0
C2937 C 0.06075 0.71243 0.1093 0.0
C2938 C 0.07964 0.71943 0.12852 0.0
C2939 C 0.08885 0.70647 0.13099 0.0
H2940 H 0.39699 0.35166 0.47743 0.0
H2941 H 0.4012 0.30485 0.4121 0.0
H2942 H 0.35839 0.32935 0.47888 0.0
H2943 H 0.36212 0.2823 0.41419 0.0
H2944 H 0.29022 0.24959 0.47689 0.0
H2945 H 0.32915 0.26532 0.47352 0.0
H2946 H 0.33375 0.31817 0.41415 0.0
H2947 H 0.29521 0.30266 0.41692 0.0
C2948 C 0.38974 0.33646 0.46384 0.0
C2949 C 0.40213 0.33014 0.44423 0.0
C2950 C 0.36766 0.32374 0.46474 0.0
C2951 C 0.35753 0.30435 0.44643 0.0
C2952 C 0.36978 0.29726 0.4285 0.0
C2953 C 0.39203 0.31015 0.42729 0.0
C2954 C 0.29953 0.26436 0.46257 0.0
C2955 C 0.28971 0.27505 0.44757 0.0
C2956 C 0.32169 0.27324 0.46057 0.0
C2957 C 0.33416 0.29289 0.44378 0.0
C2958 C 0.32429 0.30299 0.42731 0.0
C2959 C 0.30226 0.2941 0.42899 0.0
H2960 H 0.71948 0.99739 0.41793 0.0
H2961 H 0.77174 0.04523 0.47995 0.0
H2962 H 0.70337 0.01986 0.41626 0.0
H2963 H 0.75541 0.0679 0.47765 0.0
H2964 H 0.7163 0.1007 0.41807 0.0
H2965 H 0.73911 0.08454 0.42035 0.0
H2966 H 0.6907 0.0318 0.47992 0.0
H2967 H 0.66807 0.04774 0.47827 0.0
C2968 C 0.72774 0.01284 0.4307 0.0
C2969 C 0.74673 0.01942 0.44953 0.0
C2970 C 0.71849 0.02565 0.42969 0.0
C2971 C 0.72816 0.04536 0.44708 0.0
C2972 C 0.74779 0.05269 0.46406 0.0
C2973 C 0.75703 0.03972 0.46541 0.0
C2974 C 0.71072 0.08586 0.4322 0.0
C2975 C 0.69029 0.07533 0.44759 0.0
C2976 C 0.72378 0.07672 0.43353 0.0
C2977 C 0.71641 0.05695 0.45001 0.0
C2978 C 0.69653 0.04703 0.46689 0.0
C2979 C 0.68363 0.05618 0.4659 0.0
H2980 H 0.97625 0.73033 0.48027 0.0
H2981 H 0.02427 0.72528 0.41976 0.0
H2982 H 0.9534 0.69133 0.47824 0.0
H2983 H 1.00162 0.68671 0.41836 0.0
H2984 H 0.97293 0.62362 0.47973 0.0
H2985 H 0.98908 0.66221 0.48174 0.0
H2986 H 0.93687 0.65827 0.42114 0.0
H2987 H 0.92051 0.61928 0.41851 0.0
C2988 C 0.98177 0.72098 0.46615 0.0
C2989 C 1.00216 0.73082 0.45057 0.0
C2990 C 0.9687 0.69879 0.46495 0.0
C2991 C 0.97601 0.6863 0.44845 0.0
C2992 C 0.99583 0.69617 0.43142 0.0
C2993 C 1.00875 0.71822 0.43228 0.0
C2994 C 0.96465 0.63084 0.46722 0.0
C2995 C 0.9456 0.61844 0.44849 0.0
C2996 C 0.97391 0.6529 0.46843 0.0
C2997 C 0.96421 0.66296 0.45134 0.0
C2998 C 0.94452 0.65067 0.4345 0.0
C2999 C 0.93526 0.62846 0.43295 0.0
H3000 H 0.71527 0.62094 0.923 0.0
H3001 H 0.66467 0.62557 0.97562 0.0
H3002 H 0.73782 0.65993 0.92547 0.0
H3003 H 0.68705 0.66419 0.97749 0.0
H3004 H 0.71796 0.72793 0.91904 0.0
H3005 H 0.70111 0.6893 0.91828 0.0
H3006 H 0.75338 0.69281 0.97812 0.0
H3007 H 0.77045 0.73191 0.97955 0.0
C3008 C 0.70909 0.6302 0.93551 0.0
C3009 C 0.68811 0.62021 0.94875 0.0
C3010 C 0.722 0.65242 0.93697 0.0
C3011 C 0.71395 0.66485 0.95129 0.0
C3012 C 0.69344 0.65483 0.96603 0.0
C3013 C 0.68068 0.63273 0.96498 0.0
C3014 C 0.72611 0.72062 0.9317 0.0
C3015 C 0.74543 0.73298 0.94975 0.0
C3016 C 0.71639 0.6985 0.93129 0.0
C3017 C 0.72589 0.68826 0.94851 0.0
C3018 C 0.74583 0.7005 0.96475 0.0
C3019 C 0.75551 0.72278 0.96556 0.0
H3020 H 0.29578 1.00148 0.90863 0.0
H3021 H 0.29115 0.04306 0.98573 0.0
H3022 H 0.33428 0.02552 0.90521 0.0
H3023 H 0.32991 0.06698 0.98222 0.0
H3024 H 0.4015 0.0975 0.90106 0.0
H3025 H 0.36254 0.08178 0.90318 0.0
H3026 H 0.35898 0.04016 0.98718 0.0
H3027 H 0.3976 0.05548 0.98516 0.0
C3028 C 0.30289 0.0159 0.92438 0.0
C3029 C 0.29048 0.02028 0.94773 0.0
C3030 C 0.32486 0.02965 0.92222 0.0
C3031 C 0.33474 0.04797 0.94331 0.0
C3032 C 0.32239 0.05297 0.96553 0.0
C3033 C 0.30032 0.03926 0.96756 0.0
C3034 C 0.39244 0.08531 0.92045 0.0
C3035 C 0.40254 0.07755 0.9427 0.0
C3036 C 0.37026 0.07641 0.92162 0.0
C3037 C 0.3581 0.05993 0.94539 0.0
C3038 C 0.36824 0.05299 0.96885 0.0
C3039 C 0.39028 0.0617 0.96752 0.0
H3040 H 0.93021 0.3133 0.89736 0.0
H3041 H 0.95901 0.34209 0.99711 0.0
H3042 H 0.94526 0.28968 0.90188 0.0
H3043 H 0.97349 0.31809 1.00192 0.0
H3044 H 1.01272 0.29007 0.90774 0.0
H3045 H 0.9886 0.30443 0.90342 0.0
H3046 H 0.95952 0.27476 1.00228 0.0
H3047 H 0.98329 0.25979 1.00624 0.0
C3048 C 0.9393 0.3142 0.9206 0.0
C3049 C 0.94367 0.32961 0.94675 0.0
C3050 C 0.94786 0.30074 0.92312 0.0
C3051 C 0.9604 0.30215 0.95225 0.0
C3052 C 0.96367 0.31664 0.97939 0.0
C3053 C 0.95554 0.33042 0.97651 0.0
C3054 C 1.00091 0.28629 0.92819 0.0
C3055 C 0.99989 0.27397 0.95741 0.0
C3056 C 0.98706 0.29435 0.92559 0.0
C3057 C 0.9723 0.29059 0.95251 0.0
C3058 C 0.97078 0.27773 0.98121 0.0
C3059 C 0.98431 0.26921 0.98341 0.0
H3060 H 0.73543 0.76808 0.58577 0.0
H3061 H 0.72961 0.71458 0.64551 0.0
H3062 H 0.69647 0.7523 0.58754 0.0
H3063 H 0.69103 0.69901 0.64665 0.0
H3064 H 0.62854 0.66593 0.58145 0.0
H3065 H 0.66716 0.68844 0.58057 0.0
H3066 H 0.66282 0.73477 0.64627 0.0
H3067 H 0.62378 0.71206 0.6478 0.0
C3068 C 0.72593 0.75321 0.59972 0.0
C3069 C 0.73554 0.74242 0.61512 0.0
C3070 C 0.70375 0.74429 0.60077 0.0
C3071 C 0.69104 0.72449 0.61699 0.0
C3072 C 0.70067 0.7143 0.63388 0.0
C3073 C 0.72273 0.72323 0.63317 0.0
C3074 C 0.63567 0.68104 0.59531 0.0
C3075 C 0.62313 0.68708 0.61514 0.0
C3076 C 0.65775 0.69388 0.59473 0.0
C3077 C 0.66771 0.71309 0.61357 0.0
C3078 C 0.65529 0.71995 0.63155 0.0
C3079 C 0.63306 0.70696 0.63243 0.0
H3080 H 0.31544 0.92508 0.6666 0.0
H3081 H 0.34289 0.95207 0.56536 0.0
H3082 H 0.29189 0.94023 0.662 0.0
H3083 H 0.31898 0.96664 0.56046 0.0
H3084 H 0.29292 1.00782 0.65461 0.0
H3085 H 0.3066 0.98317 0.65937 0.0
H3086 H 0.27634 0.95384 0.56088 0.0
H3087 H 0.26208 0.97818 0.55648 0.0
C3088 C 0.31602 0.93375 0.64301 0.0
C3089 C 0.33107 0.93763 0.61646 0.0
C3090 C 0.30261 0.94239 0.64045 0.0
C3091 C 0.3037 0.9545 0.61088 0.0
C3092 C 0.31776 0.95717 0.58333 0.0
C3093 C 0.3315 0.94898 0.58626 0.0
C3094 C 0.28887 0.99585 0.63432 0.0
C3095 C 0.27661 0.99494 0.60507 0.0
C3096 C 0.29653 0.98168 0.63719 0.0
C3097 C 0.29242 0.96668 0.61051 0.0
C3098 C 0.27959 0.96527 0.58179 0.0
C3099 C 0.27148 0.97914 0.57932 0.0
H3100 H 0.06862 0.39491 0.57155 0.0
H3101 H 0.09631 0.39626 0.67291 0.0
H3102 H 0.05379 0.35632 0.56849 0.0
H3103 H 0.08089 0.35744 0.67018 0.0
H3104 H 0.01356 0.29 0.66411 0.0
H3105 H 0.03791 0.32849 0.66823 0.0
H3106 H 0.06726 0.32712 0.57 0.0
H3107 H 0.0433 0.28848 0.56619 0.0
C3108 C 0.07177 0.38697 0.5929 0.0
C3109 C 0.08348 0.39846 0.62254 0.0
C3110 C 0.06342 0.36497 0.59104 0.0
C3111 C 0.06627 0.35408 0.61912 0.0
C3112 C 0.07859 0.36561 0.64823 0.0
C3113 C 0.0874 0.38774 0.64972 0.0
C3114 C 0.02551 0.29785 0.64379 0.0
C3115 C 0.0265 0.28635 0.61473 0.0
C3116 C 0.03948 0.31979 0.64627 0.0
C3117 C 0.05435 0.33059 0.61941 0.0
C3118 C 0.05591 0.31902 0.59102 0.0
C3119 C 0.04224 0.29698 0.58891 0.0
H3120 H 0.95935 0.59249 0.83947 0.0
H3121 H 0.96067 0.62165 0.73964 0.0
H3122 H 0.99814 0.60749 0.83608 0.0
H3123 H 0.99918 0.63602 0.73588 0.0
H3124 H 0.0665 0.64533 0.73131 0.0
H3125 H 0.02784 0.62156 0.73579 0.0
H3126 H 0.02749 0.65074 0.83481 0.0
H3127 H 0.066 0.6749 0.83003 0.0
C3128 C 0.96786 0.60165 0.81647 0.0
C3129 C 0.95718 0.60611 0.78992 0.0
C3130 C 0.98994 0.6102 0.8146 0.0
C3131 C 1.00143 0.62277 0.78569 0.0
C3132 C 0.99055 0.62618 0.75823 0.0
C3133 C 0.96861 0.6181 0.7605 0.0
C3134 C 0.05821 0.64638 0.75433 0.0
C3135 C 0.06911 0.66204 0.78018 0.0
C3136 C 0.03618 0.63282 0.75684 0.0
C3137 C 0.0249 0.6344 0.78565 0.0
C3138 C 0.03598 0.64916 0.81254 0.0
C3139 C 0.05791 0.66303 0.80966 0.0
H3140 H 0.43862 0.378 0.81159 0.0
H3141 H 0.38354 0.32823 0.75738 0.0
H3142 H 0.42259 0.40096 0.80908 0.0
H3143 H 0.36777 0.35098 0.75549 0.0
H3144 H 0.33525 0.38198 0.81498 0.0
H3145 H 0.35762 0.3658 0.8177 0.0
H3146 H 0.40474 0.41583 0.75214 0.0
H3147 H 0.38216 0.43225 0.74882 0.0
C3148 C 0.42331 0.37209 0.79878 0.0
C3149 C 0.4122 0.35122 0.78508 0.0
C3150 C 0.41425 0.38522 0.7973 0.0
C3151 C 0.39398 0.3775 0.78241 0.0
C3152 C 0.38339 0.35711 0.76733 0.0
C3153 C 0.39244 0.34413 0.76846 0.0
C3154 C 0.35048 0.3898 0.80148 0.0
C3155 C 0.35679 0.40821 0.78119 0.0
C3156 C 0.36325 0.38052 0.80314 0.0
C3157 C 0.38267 0.38957 0.78489 0.0
C3158 C 0.38977 0.4087 0.76643 0.0
C3159 C 0.37685 0.41798 0.76449 0.0
H3160 H 0.6943 0.05984 0.75637 0.0
H3161 H 0.64468 0.06473 0.81198 0.0
H3162 H 0.67194 0.02126 0.75516 0.0
H3163 H 0.6221 0.0257 0.81015 0.0
H3164 H 0.58899 0.954 0.75381 0.0
H3165 H 0.60589 0.99303 0.75679 0.0
H3166 H 0.65863 0.99603 0.81445 0.0
H3167 H 0.64195 0.95741 0.81206 0.0
C3168 C 0.6785 0.05274 0.76789 0.0
C3169 C 0.67135 0.06532 0.78468 0.0
C3170 C 0.66576 0.03066 0.76722 0.0
C3171 C 0.64552 0.0207 0.78292 0.0
C3172 C 0.63772 0.03318 0.79795 0.0
C3173 C 0.65063 0.05541 0.79901 0.0
C3174 C 0.604 0.96299 0.76767 0.0
C3175 C 0.61429 0.95267 0.78229 0.0
C3176 C 0.61357 0.98522 0.76941 0.0
C3177 C 0.63357 0.9973 0.78547 0.0
C3178 C 0.64326 0.98693 0.80165 0.0
C3179 C 0.63367 0.96484 0.80027 0.0
H3180 H 0.40019 0.06081 0.23766 0.0
H3181 H 0.43032 0.06219 0.33653 0.0
H3182 H 0.38606 0.02237 0.23344 0.0
H3183 H 0.41558 0.02347 0.33269 0.0
H3184 H 0.37642 0.95497 0.22781 0.0
H3185 H 0.40031 0.99366 0.23204 0.0
H3186 H 0.37264 0.99408 0.33257 0.0
H3187 H 0.34839 0.95561 0.32802 0.0
C3188 C 0.404 0.0529 0.25822 0.0
C3189 C 0.41619 0.06434 0.28751 0.0
C3190 C 0.39607 0.031 0.25567 0.0
C3191 C 0.39983 0.02014 0.28273 0.0
C3192 C 0.4126 0.03164 0.31149 0.0
C3193 C 0.421 0.05369 0.31363 0.0
C3194 C 0.37577 0.96329 0.2511 0.0
C3195 C 0.36048 0.95244 0.27745 0.0
C3196 C 0.38938 0.98534 0.25346 0.0
C3197 C 0.38824 0.99665 0.28264 0.0
C3198 C 0.3739 0.98559 0.31001 0.0
C3199 C 0.35997 0.96367 0.30727 0.0
H3200 H 0.9625 0.3347 0.24489 0.0
H3201 H 0.95811 0.37822 0.31811 0.0
H3202 H 1.00095 0.35836 0.24117 0.0
H3203 H 0.99693 0.40198 0.31399 0.0
H3204 H 0.06894 0.43509 0.24302 0.0
H3205 H 0.02996 0.41949 0.24575 0.0
H3206 H 0.02533 0.36953 0.31322 0.0
H3207 H 0.06383 0.38481 0.31091 0.0
C3208 C 0.96965 0.34948 0.25969 0.0
C3209 C 0.95732 0.35446 0.28221 0.0
C3210 C 0.9916 0.36302 0.25736 0.0
C3211 C 1.00161 0.38183 0.27725 0.0
C3212 C 0.98933 0.38757 0.29823 0.0
C3213 C 0.96723 0.37395 0.30065 0.0
C3214 C 0.05961 0.42102 0.25896 0.0
C3215 C 0.0694 0.41102 0.2764 0.0
C3216 C 0.03743 0.41221 0.26055 0.0
C3217 C 0.02496 0.39342 0.27965 0.0
C3218 C 0.0348 0.38408 0.29841 0.0
C3219 C 0.05681 0.39281 0.29691 0.0
H3220 H 0.6254 0.67427 0.32762 0.0
H3221 H 0.59626 0.64628 0.22768 0.0
H3222 H 0.63996 0.6503 0.33116 0.0
H3223 H 0.61142 0.62268 0.23088 0.0
H3224 H 0.64953 0.59216 0.33451 0.0
H3225 H 0.6259 0.60724 0.33095 0.0
H3226 H 0.65456 0.63672 0.23177 0.0
H3227 H 0.67857 0.62219 0.23564 0.0
C3228 C 0.62187 0.66278 0.3067 0.0
C3229 C 0.60984 0.66215 0.2773 0.0
C3230 C 0.63007 0.64902 0.30884 0.0
C3231 C 0.62674 0.63475 0.28127 0.0
C3232 C 0.61409 0.63357 0.25243 0.0
C3233 C 0.60544 0.647 0.25068 0.0
C3234 C 0.6505 0.60154 0.31166 0.0
C3235 C 0.66595 0.6062 0.28547 0.0
C3236 C 0.63703 0.61014 0.3097 0.0
C3237 C 0.63849 0.62302 0.28107 0.0
C3238 C 0.65307 0.62664 0.25391 0.0
C3239 C 0.66685 0.61847 0.25625 0.0
loop_
_geom_bond_atom_site_label_1
_geom_bond_atom_site_label_2
_geom_bond_distance
_geom_bond_site_symmetry_2
_ccdc_geom_bond_type
Co0 N5 2.057 . S
Co0 O17 2.021 . S
Co0 O20 2.062 . S
Co0 O24 2.117 . S
Co0 O25 2.020 . S
C1 O21 1.259 . S
C1 O24 1.258 . S
Co2 N11 2.057 . S
Co2 O18 2.117 . S
Co2 O19 2.020 . S
Co2 O21 2.021 . S
Co2 O26 2.062 . S
C3 N5 1.316 . S
C3 N6 1.347 . S
C3 H8 0.931 . S
C4 N5 1.375 1_556 S
C4 C7 1.350 . S
C4 H9 0.930 . S
N5 Co0 2.057 . S
N5 C3 1.316 . S
N5 C4 1.375 1_554 S
N6 C3 1.347 . S
N6 C7 1.373 1_554 S
C7 C4 1.350 . S
C7 N6 1.373 1_556 S
C7 H28 0.931 . S
H8 C3 0.931 . S
H9 C4 0.930 . S
C10 O17 1.259 . S
C10 O18 1.258 . S
N11 Co2 2.057 . S
N11 C12 1.316 . S
N11 C13 1.375 . S
C12 N11 1.316 . S
C12 N14 1.347 . S
C12 H23 0.931 . S
C13 N11 1.375 . S
C13 C15 1.350 . S
C13 H22 0.930 . S
N14 C12 1.347 . S
N14 C15 1.373 . S
C15 C13 1.350 . S
C15 N14 1.373 . S
C15 H29 0.931 . S
C16 O19 1.256 . S
C16 O20 1.255 . S
O17 Co0 2.021 . S
O17 C10 1.259 . S
O18 Co2 2.117 . S
O18 C10 1.258 . S
O19 Co2 2.020 . S
O19 C16 1.256 . S
O20 Co0 2.062 . S
O20 C16 1.255 . S
O21 C1 1.259 . S
O21 Co2 2.021 . S
H22 C13 0.930 . S
H23 C12 0.931 . S
O24 Co0 2.117 . S
O24 C1 1.258 . S
O25 Co0 2.020 . S
O25 C27 1.256 . S
O26 Co2 2.062 . S
O26 C27 1.255 . S
C27 O25 1.256 . S
C27 O26 1.255 . S
H28 C7 0.931 . S
H29 C15 0.931 . S
Co30 N35 2.057 1_545 S
Co30 O47 2.021 . S
Co30 O50 2.059 . S
Co30 O54 2.117 . S
Co30 O55 2.020 . S
C31 O51 1.259 . S
C31 O54 1.258 . S
Co32 N41 2.057 . S
Co32 O48 2.117 . S
Co32 O49 2.020 . S
Co32 O51 2.021 . S
Co32 O56 2.062 . S
C33 N35 1.316 . S
C33 N36 1.347 . S
C33 H38 0.931 . S
C34 N35 1.375 1_556 S
C34 C37 1.350 . S
C34 H39 0.936 . S
N35 Co30 2.057 1_565 S
N35 C33 1.316 . S
N35 C34 1.375 1_554 S
N36 C33 1.347 . S
N36 C37 1.373 1_554 S
C37 C34 1.350 . S
C37 N36 1.373 1_556 S
C37 H58 0.931 . S
H38 C33 0.931 . S
H39 C34 0.936 . S
C40 O47 1.259 . S
C40 O48 1.258 . S
N41 Co32 2.057 . S
N41 C42 1.316 . S
N41 C43 1.375 . S
C42 N41 1.316 . S
C42 N44 1.347 . S
C42 H53 0.931 . S
C43 N41 1.375 . S
C43 C45 1.350 . S
C43 H52 0.930 . S
N44 C42 1.347 . S
N44 C45 1.373 . S
C45 C43 1.350 . S
C45 N44 1.373 . S
C45 H59 0.931 . S
C46 O49 1.256 . S
C46 O50 1.296 . S
O47 Co30 2.021 . S
O47 C40 1.259 . S
O48 Co32 2.117 . S
O48 C40 1.258 . S
O49 Co32 2.020 . S
O49 C46 1.256 . S
O50 Co30 2.059 . S
O50 C46 1.296 . S
O51 C31 1.259 . S
O51 Co32 2.021 . S
H52 C43 0.930 . S
H53 C42 0.931 . S
O54 Co30 2.117 . S
O54 C31 1.258 . S
O55 Co30 2.020 . S
O55 C57 1.256 . S
O56 Co32 2.062 . S
O56 C57 1.255 . S
C57 O55 1.256 . S
C57 O56 1.255 . S
H58 C37 0.931 . S
H59 C45 0.931 . S
Co60 N65 2.057 1_655 S
Co60 O77 2.021 . S
Co60 O80 2.104 . S
Co60 O84 2.117 . S
Co60 O85 2.020 . S
C61 O81 1.259 . S
C61 O84 1.258 . S
Co62 N71 2.057 . S
Co62 O78 2.117 . S
Co62 O79 2.020 . S
Co62 O81 2.021 . S
Co62 O86 2.062 . S
C63 N65 1.316 . S
C63 N66 1.347 . S
C63 H68 0.931 . S
C64 N65 1.375 1_556 S
C64 C67 1.350 . S
C64 H69 0.933 . S
N65 Co60 2.057 1_455 S
N65 C63 1.316 . S
N65 C64 1.375 1_554 S
N66 C63 1.347 . S
N66 C67 1.373 1_554 S
C67 C64 1.350 . S
C67 N66 1.373 1_556 S
C67 H88 0.931 . S
H68 C63 0.931 . S
H69 C64 0.933 . S
C70 O77 1.259 . S
C70 O78 1.258 . S
N71 Co62 2.057 . S
N71 C72 1.316 . S
N71 C73 1.375 . S
C72 N71 1.316 . S
C72 N74 1.347 . S
C72 H83 0.931 . S
C73 N71 1.375 . S
C73 C75 1.350 . S
C73 H82 0.930 . S
N74 C72 1.347 . S
N74 C75 1.373 . S
C75 C73 1.350 . S
C75 N74 1.373 . S
C75 H89 0.931 . S
C76 O79 1.256 . S
C76 O80 1.254 . S
O77 Co60 2.021 . S
O77 C70 1.259 . S
O78 Co62 2.117 . S
O78 C70 1.258 . S
O79 Co62 2.020 . S
O79 C76 1.256 . S
O80 Co60 2.104 . S
O80 C76 1.254 . S
O81 C61 1.259 . S
O81 Co62 2.021 . S
H82 C73 0.930 . S
H83 C72 0.931 . S
O84 Co60 2.117 . S
O84 C61 1.258 . S
O85 Co60 2.020 . S
O85 C87 1.256 . S
O86 Co62 2.062 . S
O86 C87 1.255 . S
C87 O85 1.256 . S
C87 O86 1.255 . S
H88 C67 0.931 . S
H89 C75 0.931 . S
Co90 N95 2.057 . S
Co90 O107 2.021 . S
Co90 O110 2.062 . S
Co90 O114 2.117 . S
Co90 O115 2.020 . S
C91 O111 1.259 . S
C91 O114 1.258 . S
Co92 N101 2.057 . S
Co92 O108 2.117 . S
Co92 O109 2.020 . S
Co92 O111 2.021 . S
Co92 O116 2.062 . S
C93 N95 1.316 . S
C93 N96 1.347 . S
C93 H98 0.931 . S
C94 N95 1.375 . S
C94 C97 1.350 . S
C94 H99 0.930 . S
N95 Co90 2.057 . S
N95 C93 1.316 . S
N95 C94 1.375 . S
N96 C93 1.347 . S
N96 C97 1.373 . S
C97 C94 1.350 . S
C97 N96 1.373 . S
C97 H118 0.931 . S
H98 C93 0.931 . S
H99 C94 0.930 . S
C100 O107 1.259 . S
C100 O108 1.258 . S
N101 Co92 2.057 . S
N101 C102 1.316 . S
N101 C103 1.375 . S
C102 N101 1.316 . S
C102 N104 1.347 . S
C102 H113 0.931 . S
C103 N101 1.375 . S
C103 C105 1.350 . S
C103 H112 0.930 . S
N104 C102 1.347 . S
N104 C105 1.373 . S
C105 C103 1.350 . S
C105 N104 1.373 . S
C105 H119 0.931 . S
C106 O109 1.256 . S
C106 O110 1.255 . S
O107 Co90 2.021 . S
O107 C100 1.259 . S
O108 Co92 2.117 . S
O108 C100 1.258 . S
O109 Co92 2.020 . S
O109 C106 1.256 . S
O110 Co90 2.062 . S
O110 C106 1.255 . S
O111 C91 1.259 . S
O111 Co92 2.021 . S
H112 C103 0.930 . S
H113 C102 0.931 . S
O114 Co90 2.117 . S
O114 C91 1.258 . S
O115 Co90 2.020 . S
O115 C117 1.256 . S
O116 Co92 2.062 . S
O116 C117 1.255 . S
C117 O115 1.256 . S
C117 O116 1.255 . S
H118 C97 0.931 . S
H119 C105 0.931 . S
Co120 N125 2.057 1_565 S
Co120 O137 2.021 . S
Co120 O140 2.104 . S
Co120 O144 2.117 . S
Co120 O145 2.020 . S
C121 O141 1.259 . S
C121 O144 1.258 . S
Co122 N131 2.057 . S
Co122 O138 2.117 . S
Co122 O139 2.020 . S
Co122 O141 2.021 . S
Co122 O146 2.062 . S
C123 N125 1.316 . S
C123 N126 1.347 . S
C123 H128 0.931 . S
C124 N125 1.375 . S
C124 C127 1.350 . S
C124 H129 0.933 . S
N125 Co120 2.057 1_545 S
N125 C123 1.316 . S
N125 C124 1.375 . S
N126 C123 1.347 . S
N126 C127 1.373 . S
C127 C124 1.350 . S
C127 N126 1.373 . S
C127 H148 0.931 . S
H128 C123 0.931 . S
H129 C124 0.933 . S
C130 O137 1.259 . S
C130 O138 1.258 . S
N131 Co122 2.057 . S
N131 C132 1.316 . S
N131 C133 1.375 . S
C132 N131 1.316 . S
C132 N134 1.347 . S
C132 H143 0.931 . S
C133 N131 1.375 . S
C133 C135 1.350 . S
C133 H142 0.930 . S
N134 C132 1.347 . S
N134 C135 1.373 . S
C135 C133 1.350 . S
C135 N134 1.373 . S
C135 H149 0.931 . S
C136 O139 1.256 . S
C136 O140 1.254 . S
O137 Co120 2.021 . S
O137 C130 1.259 . S
O138 Co122 2.117 . S
O138 C130 1.258 . S
O139 Co122 2.020 . S
O139 C136 1.256 . S
O140 Co120 2.104 . S
O140 C136 1.254 . S
O141 C121 1.259 . S
O141 Co122 2.021 . S
H142 C133 0.930 . S
H143 C132 0.931 . S
O144 Co120 2.117 . S
O144 C121 1.258 . S
O145 Co120 2.020 . S
O145 C147 1.256 . S
O146 Co122 2.062 . S
O146 C147 1.255 . S
C147 O145 1.256 . S
C147 O146 1.255 . S
H148 C127 0.931 . S
H149 C135 0.931 . S
Co150 N155 2.057 1_455 S
Co150 O167 2.021 . S
Co150 O170 2.059 . S
Co150 O174 2.117 . S
Co150 O175 2.020 . S
C151 O171 1.259 . S
C151 O174 1.258 . S
Co152 N161 2.057 . S
Co152 O168 2.117 . S
Co152 O169 2.020 . S
Co152 O171 2.021 . S
Co152 O176 2.062 . S
C153 N155 1.316 . S
C153 N156 1.347 . S
C153 H158 0.931 . S
C154 N155 1.375 . S
C154 C157 1.350 . S
C154 H159 0.936 . S
N155 Co150 2.057 1_655 S
N155 C153 1.316 . S
N155 C154 1.375 . S
N156 C153 1.347 . S
N156 C157 1.373 . S
C157 C154 1.350 . S
C157 N156 1.373 . S
C157 H178 0.931 . S
H158 C153 0.931 . S
H159 C154 0.936 . S
C160 O167 1.259 . S
C160 O168 1.258 . S
N161 Co152 2.057 . S
N161 C162 1.316 . S
N161 C163 1.375 . S
C162 N161 1.316 . S
C162 N164 1.347 . S
C162 H173 0.931 . S
C163 N161 1.375 . S
C163 C165 1.350 . S
C163 H172 0.930 . S
N164 C162 1.347 . S
N164 C165 1.373 . S
C165 C163 1.350 . S
C165 N164 1.373 . S
C165 H179 0.931 . S
C166 O169 1.256 . S
C166 O170 1.296 . S
O167 Co150 2.021 . S
O167 C160 1.259 . S
O168 Co152 2.117 . S
O168 C160 1.258 . S
O169 Co152 2.020 . S
O169 C166 1.256 . S
O170 Co150 2.059 . S
O170 C166 1.296 . S
O171 C151 1.259 . S
O171 Co152 2.021 . S
H172 C163 0.930 . S
H173 C162 0.931 . S
O174 Co150 2.117 . S
O174 C151 1.258 . S
O175 Co150 2.020 . S
O175 C177 1.256 . S
O176 Co152 2.062 . S
O176 C177 1.255 . S
C177 O175 1.256 . S
C177 O176 1.255 . S
H178 C157 0.931 . S
H179 C165 0.931 . S
Co180 N185 2.057 . S
Co180 O197 2.021 . S
Co180 O200 2.062 . S
Co180 O204 2.117 . S
Co180 O205 2.020 . S
C181 O201 1.259 . S
C181 O204 1.258 . S
Co182 N191 2.057 . S
Co182 O198 2.117 . S
Co182 O199 2.020 . S
Co182 O201 2.021 . S
Co182 O206 2.062 . S
C183 N185 1.316 . S
C183 N186 1.347 . S
C183 H188 0.931 . S
C184 N185 1.375 . S
C184 C187 1.350 . S
C184 H189 0.930 . S
N185 Co180 2.057 . S
N185 C183 1.316 . S
N185 C184 1.375 . S
N186 C183 1.347 . S
N186 C187 1.373 . S
C187 C184 1.350 . S
C187 N186 1.373 . S
C187 H208 0.931 . S
H188 C183 0.931 . S
H189 C184 0.930 . S
C190 O197 1.259 . S
C190 O198 1.258 . S
N191 Co182 2.057 . S
N191 C192 1.316 . S
N191 C193 1.375 1_556 S
C192 N191 1.316 . S
C192 N194 1.347 . S
C192 H203 0.931 . S
C193 N191 1.375 1_554 S
C193 C195 1.350 . S
C193 H202 0.930 . S
N194 C192 1.347 . S
N194 C195 1.373 1_556 S
C195 C193 1.350 . S
C195 N194 1.373 1_554 S
C195 H209 0.931 . S
C196 O199 1.256 . S
C196 O200 1.255 . S
O197 Co180 2.021 . S
O197 C190 1.259 . S
O198 Co182 2.117 . S
O198 C190 1.258 . S
O199 Co182 2.020 . S
O199 C196 1.256 . S
O200 Co180 2.062 . S
O200 C196 1.255 . S
O201 C181 1.259 . S
O201 Co182 2.021 . S
H202 C193 0.930 . S
H203 C192 0.931 . S
O204 Co180 2.117 . S
O204 C181 1.258 . S
O205 Co180 2.020 . S
O205 C207 1.256 . S
O206 Co182 2.062 . S
O206 C207 1.255 . S
C207 O205 1.256 . S
C207 O206 1.255 . S
H208 C187 0.931 . S
H209 C195 0.931 . S
Co210 N215 2.057 . S
Co210 O227 2.021 . S
Co210 O230 2.062 . S
Co210 O234 2.117 . S
Co210 O235 2.020 . S
C211 O231 1.259 . S
C211 O234 1.258 . S
Co212 N221 2.057 1_565 S
Co212 O228 2.117 . S
Co212 O229 2.020 . S
Co212 O231 2.021 . S
Co212 O236 2.059 . S
C213 N215 1.316 . S
C213 N216 1.347 . S
C213 H218 0.931 . S
C214 N215 1.375 . S
C214 C217 1.350 . S
C214 H219 0.930 . S
N215 Co210 2.057 . S
N215 C213 1.316 . S
N215 C214 1.375 . S
N216 C213 1.347 . S
N216 C217 1.373 . S
C217 C214 1.350 . S
C217 N216 1.373 . S
C217 H238 0.931 . S
H218 C213 0.931 . S
H219 C214 0.930 . S
C220 O227 1.259 . S
C220 O228 1.258 . S
N221 Co212 2.057 1_545 S
N221 C222 1.316 . S
N221 C223 1.375 1_556 S
C222 N221 1.316 . S
C222 N224 1.347 . S
C222 H233 0.931 . S
C223 N221 1.375 1_554 S
C223 C225 1.350 . S
C223 H232 0.936 . S
N224 C222 1.347 . S
N224 C225 1.373 1_556 S
C225 C223 1.350 . S
C225 N224 1.373 1_554 S
C225 H239 0.931 . S
C226 O229 1.256 . S
C226 O230 1.255 . S
O227 Co210 2.021 . S
O227 C220 1.259 . S
O228 Co212 2.117 . S
O228 C220 1.258 . S
O229 Co212 2.020 . S
O229 C226 1.256 . S
O230 Co210 2.062 . S
O230 C226 1.255 . S
O231 C211 1.259 . S
O231 Co212 2.021 . S
H232 C223 0.936 . S
H233 C222 0.931 . S
O234 Co210 2.117 . S
O234 C211 1.258 . S
O235 Co210 2.020 . S
O235 C237 1.256 . S
O236 Co212 2.059 . S
O236 C237 1.296 . S
C237 O235 1.256 . S
C237 O236 1.296 . S
H238 C217 0.931 . S
H239 C225 0.931 . S
Co240 N245 2.057 . S
Co240 O257 2.021 . S
Co240 O260 2.062 . S
Co240 O264 2.117 . S
Co240 O265 2.020 . S
C241 O261 1.259 . S
C241 O264 1.258 . S
Co242 N251 2.057 1_455 S
Co242 O258 2.117 . S
Co242 O259 2.020 . S
Co242 O261 2.021 . S
Co242 O266 2.104 . S
C243 N245 1.316 . S
C243 N246 1.347 . S
C243 H248 0.931 . S
C244 N245 1.375 . S
C244 C247 1.350 . S
C244 H249 0.930 . S
N245 Co240 2.057 . S
N245 C243 1.316 . S
N245 C244 1.375 . S
N246 C243 1.347 . S
N246 C247 1.373 . S
C247 C244 1.350 . S
C247 N246 1.373 . S
C247 H268 0.931 . S
H248 C243 0.931 . S
H249 C244 0.930 . S
C250 O257 1.259 . S
C250 O258 1.258 . S
N251 Co242 2.057 1_655 S
N251 C252 1.316 . S
N251 C253 1.375 1_556 S
C252 N251 1.316 . S
C252 N254 1.347 . S
C252 H263 0.931 . S
C253 N251 1.375 1_554 S
C253 C255 1.350 . S
C253 H262 0.933 . S
N254 C252 1.347 . S
N254 C255 1.373 1_556 S
C255 C253 1.350 . S
C255 N254 1.373 1_554 S
C255 H269 0.931 . S
C256 O259 1.256 . S
C256 O260 1.255 . S
O257 Co240 2.021 . S
O257 C250 1.259 . S
O258 Co242 2.117 . S
O258 C250 1.258 . S
O259 Co242 2.020 . S
O259 C256 1.256 . S
O260 Co240 2.062 . S
O260 C256 1.255 . S
O261 C241 1.259 . S
O261 Co242 2.021 . S
H262 C253 0.933 . S
H263 C252 0.931 . S
O264 Co240 2.117 . S
O264 C241 1.258 . S
O265 Co240 2.020 . S
O265 C267 1.256 . S
O266 Co242 2.104 . S
O266 C267 1.254 . S
C267 O265 1.256 . S
C267 O266 1.254 . S
H268 C247 0.931 . S
H269 C255 0.931 . S
Co270 N275 2.057 . S
Co270 O287 2.021 . S
Co270 O290 2.062 . S
Co270 O294 2.117 . S
Co270 O295 2.020 . S
C271 O291 1.259 . S
C271 O294 1.258 . S
Co272 N281 2.057 . S
Co272 O288 2.117 . S
Co272 O289 2.020 . S
Co272 O291 2.021 . S
Co272 O296 2.062 . S
C273 N275 1.316 . S
C273 N276 1.347 . S
C273 H278 0.931 . S
C274 N275 1.375 . S
C274 C277 1.350 . S
C274 H279 0.930 . S
N275 Co270 2.057 . S
N275 C273 1.316 . S
N275 C274 1.375 . S
N276 C273 1.347 . S
N276 C277 1.373 . S
C277 C274 1.350 . S
C277 N276 1.373 . S
C277 H298 0.931 . S
H278 C273 0.931 . S
H279 C274 0.930 . S
C280 O287 1.259 . S
C280 O288 1.258 . S
N281 Co272 2.057 . S
N281 C282 1.316 . S
N281 C283 1.375 . S
C282 N281 1.316 . S
C282 N284 1.347 . S
C282 H293 0.931 . S
C283 N281 1.375 . S
C283 C285 1.350 . S
C283 H292 0.930 . S
N284 C282 1.347 . S
N284 C285 1.373 . S
C285 C283 1.350 . S
C285 N284 1.373 . S
C285 H299 0.931 . S
C286 O289 1.256 . S
C286 O290 1.255 . S
O287 Co270 2.021 . S
O287 C280 1.259 . S
O288 Co272 2.117 . S
O288 C280 1.258 . S
O289 Co272 2.020 . S
O289 C286 1.256 . S
O290 Co270 2.062 . S
O290 C286 1.255 . S
O291 C271 1.259 . S
O291 Co272 2.021 . S
H292 C283 0.930 . S
H293 C282 0.931 . S
O294 Co270 2.117 . S
O294 C271 1.258 . S
O295 Co270 2.020 . S
O295 C297 1.256 . S
O296 Co272 2.062 . S
O296 C297 1.255 . S
C297 O295 1.256 . S
C297 O296 1.255 . S
H298 C277 0.931 . S
H299 C285 0.931 . S
Co300 N305 2.057 . S
Co300 O317 2.021 . S
Co300 O320 2.062 . S
Co300 O324 2.117 . S
Co300 O325 2.020 . S
C301 O321 1.259 . S
C301 O324 1.258 . S
Co302 N311 2.057 1_545 S
Co302 O318 2.117 . S
Co302 O319 2.020 . S
Co302 O321 2.021 . S
Co302 O326 2.104 . S
C303 N305 1.316 . S
C303 N306 1.347 . S
C303 H308 0.931 . S
C304 N305 1.375 . S
C304 C307 1.350 . S
C304 H309 0.930 . S
N305 Co300 2.057 . S
N305 C303 1.316 . S
N305 C304 1.375 . S
N306 C303 1.347 . S
N306 C307 1.373 . S
C307 C304 1.350 . S
C307 N306 1.373 . S
C307 H328 0.931 . S
H308 C303 0.931 . S
H309 C304 0.930 . S
C310 O317 1.259 . S
C310 O318 1.258 . S
N311 Co302 2.057 1_565 S
N311 C312 1.316 . S
N311 C313 1.375 . S
C312 N311 1.316 . S
C312 N314 1.347 . S
C312 H323 0.931 . S
C313 N311 1.375 . S
C313 C315 1.350 . S
C313 H322 0.933 . S
N314 C312 1.347 . S
N314 C315 1.373 . S
C315 C313 1.350 . S
C315 N314 1.373 . S
C315 H329 0.931 . S
C316 O319 1.256 . S
C316 O320 1.255 . S
O317 Co300 2.021 . S
O317 C310 1.259 . S
O318 Co302 2.117 . S
O318 C310 1.258 . S
O319 Co302 2.020 . S
O319 C316 1.256 . S
O320 Co300 2.062 . S
O320 C316 1.255 . S
O321 C301 1.259 . S
O321 Co302 2.021 . S
H322 C313 0.933 . S
H323 C312 0.931 . S
O324 Co300 2.117 . S
O324 C301 1.258 . S
O325 Co300 2.020 . S
O325 C327 1.256 . S
O326 Co302 2.104 . S
O326 C327 1.254 . S
C327 O325 1.256 . S
C327 O326 1.254 . S
H328 C307 0.931 . S
H329 C315 0.931 . S
Co330 N335 2.057 . S
Co330 O347 2.021 . S
Co330 O350 2.062 . S
Co330 O354 2.117 . S
Co330 O355 2.020 . S
C331 O351 1.259 . S
C331 O354 1.258 . S
Co332 N341 2.057 1_655 S
Co332 O348 2.117 . S
Co332 O349 2.020 . S
Co332 O351 2.021 . S
Co332 O356 2.059 . S
C333 N335 1.316 . S
C333 N336 1.347 . S
C333 H338 0.931 . S
C334 N335 1.375 . S
C334 C337 1.350 . S
C334 H339 0.930 . S
N335 Co330 2.057 . S
N335 C333 1.316 . S
N335 C334 1.375 . S
N336 C333 1.347 . S
N336 C337 1.373 . S
C337 C334 1.350 . S
C337 N336 1.373 . S
C337 H358 0.931 . S
H338 C333 0.931 . S
H339 C334 0.930 . S
C340 O347 1.259 . S
C340 O348 1.258 . S
N341 Co332 2.057 1_455 S
N341 C342 1.316 . S
N341 C343 1.375 . S
C342 N341 1.316 . S
C342 N344 1.347 . S
C342 H353 0.931 . S
C343 N341 1.375 . S
C343 C345 1.350 . S
C343 H352 0.936 . S
N344 C342 1.347 . S
N344 C345 1.373 . S
C345 C343 1.350 . S
C345 N344 1.373 . S
C345 H359 0.931 . S
C346 O349 1.256 . S
C346 O350 1.255 . S
O347 Co330 2.021 . S
O347 C340 1.259 . S
O348 Co332 2.117 . S
O348 C340 1.258 . S
O349 Co332 2.020 . S
O349 C346 1.256 . S
O350 Co330 2.062 . S
O350 C346 1.255 . S
O351 C331 1.259 . S
O351 Co332 2.021 . S
H352 C343 0.936 . S
H353 C342 0.931 . S
O354 Co330 2.117 . S
O354 C331 1.258 . S
O355 Co330 2.020 . S
O355 C357 1.256 . S
O356 Co332 2.059 . S
O356 C357 1.296 . S
C357 O355 1.256 . S
C357 O356 1.296 . S
H358 C337 0.931 . S
H359 C345 0.931 . S
Co360 N365 2.057 . S
Co360 O377 2.021 . S
Co360 O380 2.062 . S
Co360 O384 2.117 . S
Co360 O385 2.020 . S
C361 O381 1.259 . S
C361 O384 1.258 . S
Co362 N371 2.057 . S
Co362 O378 2.117 . S
Co362 O379 2.020 . S
Co362 O381 2.021 . S
Co362 O386 2.062 . S
C363 N365 1.316 . S
C363 N366 1.347 . S
C363 H368 0.931 . S
C364 N365 1.375 . S
C364 C367 1.350 . S
C364 H369 0.930 . S
N365 Co360 2.057 . S
N365 C363 1.316 . S
N365 C364 1.375 . S
N366 C363 1.347 . S
N366 C367 1.373 . S
C367 C364 1.350 . S
C367 N366 1.373 . S
C367 H388 0.931 . S
H368 C363 0.931 . S
H369 C364 0.930 . S
C370 O377 1.259 . S
C370 O378 1.258 . S
N371 Co362 2.057 . S
N371 C372 1.316 . S
N371 C373 1.375 . S
C372 N371 1.316 . S
C372 N374 1.347 . S
C372 H383 0.931 . S
C373 N371 1.375 . S
C373 C375 1.350 . S
C373 H382 0.930 . S
N374 C372 1.347 . S
N374 C375 1.373 . S
C375 C373 1.350 . S
C375 N374 1.373 . S
C375 H389 0.931 . S
C376 O379 1.256 . S
C376 O380 1.255 . S
O377 Co360 2.021 . S
O377 C370 1.259 . S
O378 Co362 2.117 . S
O378 C370 1.258 . S
O379 Co362 2.020 . S
O379 C376 1.256 . S
O380 Co360 2.062 . S
O380 C376 1.255 . S
O381 C361 1.259 . S
O381 Co362 2.021 . S
H382 C373 0.930 . S
H383 C372 0.931 . S
O384 Co360 2.117 . S
O384 C361 1.258 . S
O385 Co360 2.020 . S
O385 C387 1.256 . S
O386 Co362 2.062 . S
O386 C387 1.255 . S
C387 O385 1.256 . S
C387 O386 1.255 . S
H388 C367 0.931 . S
H389 C375 0.931 . S
Co390 N395 2.057 . S
Co390 O407 2.021 . S
Co390 O410 2.062 . S
Co390 O414 2.117 . S
Co390 O415 2.020 . S
C391 O411 1.259 . S
C391 O414 1.258 . S
Co392 N401 2.057 . S
Co392 O408 2.117 . S
Co392 O409 2.020 . S
Co392 O411 2.021 . S
Co392 O416 2.062 . S
C393 N395 1.316 . S
C393 N396 1.347 . S
C393 H398 0.931 . S
C394 N395 1.375 . S
C394 C397 1.350 . S
C394 H399 0.930 . S
N395 Co390 2.057 . S
N395 C393 1.316 . S
N395 C394 1.375 . S
N396 C393 1.347 . S
N396 C397 1.373 . S
C397 C394 1.350 . S
C397 N396 1.373 . S
C397 H418 0.931 . S
H398 C393 0.931 . S
H399 C394 0.930 . S
C400 O407 1.259 . S
C400 O408 1.258 . S
N401 Co392 2.057 . S
N401 C402 1.316 . S
N401 C403 1.375 . S
C402 N401 1.316 . S
C402 N404 1.347 . S
C402 H413 0.931 . S
C403 N401 1.375 . S
C403 C405 1.350 . S
C403 H412 0.930 . S
N404 C402 1.347 . S
N404 C405 1.373 . S
C405 C403 1.350 . S
C405 N404 1.373 . S
C405 H419 0.931 . S
C406 O409 1.256 . S
C406 O410 1.255 . S
O407 Co390 2.021 . S
O407 C400 1.259 . S
O408 Co392 2.117 . S
O408 C400 1.258 . S
O409 Co392 2.020 . S
O409 C406 1.256 . S
O410 Co390 2.062 . S
O410 C406 1.255 . S
O411 C391 1.259 . S
O411 Co392 2.021 . S
H412 C403 0.930 . S
H413 C402 0.931 . S
O414 Co390 2.117 . S
O414 C391 1.258 . S
O415 Co390 2.020 . S
O415 C417 1.256 . S
O416 Co392 2.062 . S
O416 C417 1.255 . S
C417 O415 1.256 . S
C417 O416 1.255 . S
H418 C397 0.931 . S
H419 C405 0.931 . S
Co420 N425 2.057 . S
Co420 O437 2.021 . S
Co420 O440 2.062 . S
Co420 O444 2.117 . S
Co420 O445 2.020 . S
C421 O441 1.259 . S
C421 O444 1.258 . S
Co422 N431 2.057 . S
Co422 O438 2.117 . S
Co422 O439 2.020 . S
Co422 O441 2.021 . S
Co422 O446 2.062 . S
C423 N425 1.316 . S
C423 N426 1.347 . S
C423 H428 0.931 . S
C424 N425 1.375 . S
C424 C427 1.350 . S
C424 H429 0.930 . S
N425 Co420 2.057 . S
N425 C423 1.316 . S
N425 C424 1.375 . S
N426 C423 1.347 . S
N426 C427 1.373 . S
C427 C424 1.350 . S
C427 N426 1.373 . S
C427 H448 0.931 . S
H428 C423 0.931 . S
H429 C424 0.930 . S
C430 O437 1.259 . S
C430 O438 1.258 . S
N431 Co422 2.057 . S
N431 C432 1.316 . S
N431 C433 1.375 . S
C432 N431 1.316 . S
C432 N434 1.347 . S
C432 H443 0.931 . S
C433 N431 1.375 . S
C433 C435 1.350 . S
C433 H442 0.930 . S
N434 C432 1.347 . S
N434 C435 1.373 . S
C435 C433 1.350 . S
C435 N434 1.373 . S
C435 H449 0.931 . S
C436 O439 1.256 . S
C436 O440 1.255 . S
O437 Co420 2.021 . S
O437 C430 1.259 . S
O438 Co422 2.117 . S
O438 C430 1.258 . S
O439 Co422 2.020 . S
O439 C436 1.256 . S
O440 Co420 2.062 . S
O440 C436 1.255 . S
O441 C421 1.259 . S
O441 Co422 2.021 . S
H442 C433 0.930 . S
H443 C432 0.931 . S
O444 Co420 2.117 . S
O444 C421 1.258 . S
O445 Co420 2.020 . S
O445 C447 1.256 . S
O446 Co422 2.062 . S
O446 C447 1.255 . S
C447 O445 1.256 . S
C447 O446 1.255 . S
H448 C427 0.931 . S
H449 C435 0.931 . S
Co450 N455 2.057 . S
Co450 O467 2.021 . S
Co450 O470 2.062 . S
Co450 O474 2.117 . S
Co450 O475 2.020 . S
C451 O471 1.259 . S
C451 O474 1.258 . S
Co452 N461 2.057 . S
Co452 O468 2.117 . S
Co452 O469 2.020 . S
Co452 O471 2.021 . S
Co452 O476 2.062 . S
C453 N455 1.316 . S
C453 N456 1.347 . S
C453 H458 0.931 . S
C454 N455 1.375 . S
C454 C457 1.350 . S
C454 H459 0.930 . S
N455 Co450 2.057 . S
N455 C453 1.316 . S
N455 C454 1.375 . S
N456 C453 1.347 . S
N456 C457 1.373 . S
C457 C454 1.350 . S
C457 N456 1.373 . S
C457 H478 0.931 . S
H458 C453 0.931 . S
H459 C454 0.930 . S
C460 O467 1.259 . S
C460 O468 1.258 . S
N461 Co452 2.057 . S
N461 C462 1.316 . S
N461 C463 1.375 . S
C462 N461 1.316 . S
C462 N464 1.347 . S
C462 H473 0.931 . S
C463 N461 1.375 . S
C463 C465 1.350 . S
C463 H472 0.930 . S
N464 C462 1.347 . S
N464 C465 1.373 . S
C465 C463 1.350 . S
C465 N464 1.373 . S
C465 H479 0.931 . S
C466 O469 1.256 . S
C466 O470 1.255 . S
O467 Co450 2.021 . S
O467 C460 1.259 . S
O468 Co452 2.117 . S
O468 C460 1.258 . S
O469 Co452 2.020 . S
O469 C466 1.256 . S
O470 Co450 2.062 . S
O470 C466 1.255 . S
O471 C451 1.259 . S
O471 Co452 2.021 . S
H472 C463 0.930 . S
H473 C462 0.931 . S
O474 Co450 2.117 . S
O474 C451 1.258 . S
O475 Co450 2.020 . S
O475 C477 1.256 . S
O476 Co452 2.062 . S
O476 C477 1.255 . S
C477 O475 1.256 . S
C477 O476 1.255 . S
H478 C457 0.931 . S
H479 C465 0.931 . S
Co480 N485 2.057 . S
Co480 O497 2.021 . S
Co480 O500 2.062 . S
Co480 O504 2.117 . S
Co480 O505 2.020 . S
C481 O501 1.259 . S
C481 O504 1.258 . S
Co482 N491 2.057 . S
Co482 O498 2.117 . S
Co482 O499 2.020 . S
Co482 O501 2.021 . S
Co482 O506 2.062 . S
C483 N485 1.316 . S
C483 N486 1.347 . S
C483 H488 0.931 . S
C484 N485 1.375 . S
C484 C487 1.350 . S
C484 H489 0.930 . S
N485 Co480 2.057 . S
N485 C483 1.316 . S
N485 C484 1.375 . S
N486 C483 1.347 . S
N486 C487 1.373 . S
C487 C484 1.350 . S
C487 N486 1.373 . S
C487 H508 0.931 . S
H488 C483 0.931 . S
H489 C484 0.930 . S
C490 O497 1.259 . S
C490 O498 1.258 . S
N491 Co482 2.057 . S
N491 C492 1.316 . S
N491 C493 1.375 . S
C492 N491 1.316 . S
C492 N494 1.347 . S
C492 H503 0.931 . S
C493 N491 1.375 . S
C493 C495 1.350 . S
C493 H502 0.930 . S
N494 C492 1.347 . S
N494 C495 1.373 . S
C495 C493 1.350 . S
C495 N494 1.373 . S
C495 H509 0.931 . S
C496 O499 1.256 . S
C496 O500 1.255 . S
O497 Co480 2.021 . S
O497 C490 1.259 . S
O498 Co482 2.117 . S
O498 C490 1.258 . S
O499 Co482 2.020 . S
O499 C496 1.256 . S
O500 Co480 2.062 . S
O500 C496 1.255 . S
O501 C481 1.259 . S
O501 Co482 2.021 . S
H502 C493 0.930 . S
H503 C492 0.931 . S
O504 Co480 2.117 . S
O504 C481 1.258 . S
O505 Co480 2.020 . S
O505 C507 1.256 . S
O506 Co482 2.062 . S
O506 C507 1.255 . S
C507 O505 1.256 . S
C507 O506 1.255 . S
H508 C487 0.931 . S
H509 C495 0.931 . S
Co510 N515 2.057 . S
Co510 O527 2.021 . S
Co510 O530 2.062 . S
Co510 O534 2.117 . S
Co510 O535 2.020 . S
C511 O531 1.259 . S
C511 O534 1.258 . S
Co512 N521 2.057 . S
Co512 O528 2.117 . S
Co512 O529 2.020 . S
Co512 O531 2.021 . S
Co512 O536 2.062 . S
C513 N515 1.316 . S
C513 N516 1.347 . S
C513 H518 0.931 . S
C514 N515 1.375 . S
C514 C517 1.350 . S
C514 H519 0.930 . S
N515 Co510 2.057 . S
N515 C513 1.316 . S
N515 C514 1.375 . S
N516 C513 1.347 . S
N516 C517 1.373 . S
C517 C514 1.350 . S
C517 N516 1.373 . S
C517 H538 0.931 . S
H518 C513 0.931 . S
H519 C514 0.930 . S
C520 O527 1.259 . S
C520 O528 1.258 . S
N521 Co512 2.057 . S
N521 C522 1.316 . S
N521 C523 1.375 . S
C522 N521 1.316 . S
C522 N524 1.347 . S
C522 H533 0.931 . S
C523 N521 1.375 . S
C523 C525 1.350 . S
C523 H532 0.930 . S
N524 C522 1.347 . S
N524 C525 1.373 . S
C525 C523 1.350 . S
C525 N524 1.373 . S
C525 H539 0.931 . S
C526 O529 1.256 . S
C526 O530 1.255 . S
O527 Co510 2.021 . S
O527 C520 1.259 . S
O528 Co512 2.117 . S
O528 C520 1.258 . S
O529 Co512 2.020 . S
O529 C526 1.256 . S
O530 Co510 2.062 . S
O530 C526 1.255 . S
O531 C511 1.259 . S
O531 Co512 2.021 . S
H532 C523 0.930 . S
H533 C522 0.931 . S
O534 Co510 2.117 . S
O534 C511 1.258 . S
O535 Co510 2.020 . S
O535 C537 1.256 . S
O536 Co512 2.062 . S
O536 C537 1.255 . S
C537 O535 1.256 . S
C537 O536 1.255 . S
H538 C517 0.931 . S
H539 C525 0.931 . S
Co540 N545 2.057 . S
Co540 O557 2.021 . S
Co540 O560 2.062 . S
Co540 O564 2.117 . S
Co540 O565 2.020 . S
C541 O561 1.259 . S
C541 O564 1.258 . S
Co542 N551 2.057 . S
Co542 O558 2.117 . S
Co542 O559 2.020 . S
Co542 O561 2.021 . S
Co542 O566 2.062 . S
C543 N545 1.316 . S
C543 N546 1.347 . S
C543 H548 0.931 . S
C544 N545 1.375 . S
C544 C547 1.350 . S
C544 H549 0.930 . S
N545 Co540 2.057 . S
N545 C543 1.316 . S
N545 C544 1.375 . S
N546 C543 1.347 . S
N546 C547 1.373 . S
C547 C544 1.350 . S
C547 N546 1.373 . S
C547 H568 0.931 . S
H548 C543 0.931 . S
H549 C544 0.930 . S
C550 O557 1.259 . S
C550 O558 1.258 . S
N551 Co542 2.057 . S
N551 C552 1.316 . S
N551 C553 1.375 . S
C552 N551 1.316 . S
C552 N554 1.347 . S
C552 H563 0.931 . S
C553 N551 1.375 . S
C553 C555 1.350 . S
C553 H562 0.930 . S
N554 C552 1.347 . S
N554 C555 1.373 . S
C555 C553 1.350 . S
C555 N554 1.373 . S
C555 H569 0.931 . S
C556 O559 1.256 . S
C556 O560 1.255 . S
O557 Co540 2.021 . S
O557 C550 1.259 . S
O558 Co542 2.117 . S
O558 C550 1.258 . S
O559 Co542 2.020 . S
O559 C556 1.256 . S
O560 Co540 2.062 . S
O560 C556 1.255 . S
O561 C541 1.259 . S
O561 Co542 2.021 . S
H562 C553 0.930 . S
H563 C552 0.931 . S
O564 Co540 2.117 . S
O564 C541 1.258 . S
O565 Co540 2.020 . S
O565 C567 1.256 . S
O566 Co542 2.062 . S
O566 C567 1.255 . S
C567 O565 1.256 . S
C567 O566 1.255 . S
H568 C547 0.931 . S
H569 C555 0.931 . S
Co570 N575 2.057 . S
Co570 O587 2.021 . S
Co570 O590 2.062 . S
Co570 O594 2.117 . S
Co570 O595 2.020 . S
C571 O591 1.259 . S
C571 O594 1.258 . S
Co572 N581 2.057 . S
Co572 O588 2.117 . S
Co572 O589 2.020 . S
Co572 O591 2.021 . S
Co572 O596 2.062 . S
C573 N575 1.316 . S
C573 N576 1.347 . S
C573 H578 0.931 . S
C574 N575 1.375 . S
C574 C577 1.350 . S
C574 H579 0.930 . S
N575 Co570 2.057 . S
N575 C573 1.316 . S
N575 C574 1.375 . S
N576 C573 1.347 . S
N576 C577 1.373 . S
C577 C574 1.350 . S
C577 N576 1.373 . S
C577 H598 0.931 . S
H578 C573 0.931 . S
H579 C574 0.930 . S
C580 O587 1.259 . S
C580 O588 1.258 . S
N581 Co572 2.057 . S
N581 C582 1.316 . S
N581 C583 1.375 . S
C582 N581 1.316 . S
C582 N584 1.347 . S
C582 H593 0.931 . S
C583 N581 1.375 . S
C583 C585 1.350 . S
C583 H592 0.930 . S
N584 C582 1.347 . S
N584 C585 1.373 . S
C585 C583 1.350 . S
C585 N584 1.373 . S
C585 H599 0.931 . S
C586 O589 1.256 . S
C586 O590 1.255 . S
O587 Co570 2.021 . S
O587 C580 1.259 . S
O588 Co572 2.117 . S
O588 C580 1.258 . S
O589 Co572 2.020 . S
O589 C586 1.256 . S
O590 Co570 2.062 . S
O590 C586 1.255 . S
O591 C571 1.259 . S
O591 Co572 2.021 . S
H592 C583 0.930 . S
H593 C582 0.931 . S
O594 Co570 2.117 . S
O594 C571 1.258 . S
O595 Co570 2.020 . S
O595 C597 1.256 . S
O596 Co572 2.062 . S
O596 C597 1.255 . S
C597 O595 1.256 . S
C597 O596 1.255 . S
H598 C577 0.931 . S
H599 C585 0.931 . S
Co600 N605 2.057 . S
Co600 O617 2.021 . S
Co600 O620 2.062 . S
Co600 O624 2.117 . S
Co600 O625 2.020 . S
C601 O621 1.259 . S
C601 O624 1.258 . S
Co602 N611 2.057 . S
Co602 O618 2.117 . S
Co602 O619 2.020 . S
Co602 O621 2.021 . S
Co602 O626 2.062 . S
C603 N605 1.316 . S
C603 N606 1.347 . S
C603 H608 0.931 . S
C604 N605 1.375 . S
C604 C607 1.350 . S
C604 H609 0.930 . S
N605 Co600 2.057 . S
N605 C603 1.316 . S
N605 C604 1.375 . S
N606 C603 1.347 . S
N606 C607 1.373 . S
C607 C604 1.350 . S
C607 N606 1.373 . S
C607 H628 0.931 . S
H608 C603 0.931 . S
H609 C604 0.930 . S
C610 O617 1.259 . S
C610 O618 1.258 . S
N611 Co602 2.057 . S
N611 C612 1.316 . S
N611 C613 1.375 . S
C612 N611 1.316 . S
C612 N614 1.347 . S
C612 H623 0.931 . S
C613 N611 1.375 . S
C613 C615 1.350 . S
C613 H622 0.930 . S
N614 C612 1.347 . S
N614 C615 1.373 . S
C615 C613 1.350 . S
C615 N614 1.373 . S
C615 H629 0.931 . S
C616 O619 1.256 . S
C616 O620 1.255 . S
O617 Co600 2.021 . S
O617 C610 1.259 . S
O618 Co602 2.117 . S
O618 C610 1.258 . S
O619 Co602 2.020 . S
O619 C616 1.256 . S
O620 Co600 2.062 . S
O620 C616 1.255 . S
O621 C601 1.259 . S
O621 Co602 2.021 . S
H622 C613 0.930 . S
H623 C612 0.931 . S
O624 Co600 2.117 . S
O624 C601 1.258 . S
O625 Co600 2.020 . S
O625 C627 1.256 . S
O626 Co602 2.062 . S
O626 C627 1.255 . S
C627 O625 1.256 . S
C627 O626 1.255 . S
H628 C607 0.931 . S
H629 C615 0.931 . S
Co630 N635 2.057 . S
Co630 O647 2.021 . S
Co630 O650 2.062 . S
Co630 O654 2.117 . S
Co630 O655 2.020 . S
C631 O651 1.259 . S
C631 O654 1.258 . S
Co632 N641 2.057 . S
Co632 O648 2.117 . S
Co632 O649 2.020 . S
Co632 O651 2.021 . S
Co632 O656 2.062 . S
C633 N635 1.316 . S
C633 N636 1.347 . S
C633 H638 0.931 . S
C634 N635 1.375 . S
C634 C637 1.350 . S
C634 H639 0.930 . S
N635 Co630 2.057 . S
N635 C633 1.316 . S
N635 C634 1.375 . S
N636 C633 1.347 . S
N636 C637 1.373 . S
C637 C634 1.350 . S
C637 N636 1.373 . S
C637 H658 0.931 1_556 S
H638 C633 0.931 . S
H639 C634 0.930 . S
C640 O647 1.259 . S
C640 O648 1.258 . S
N641 Co632 2.057 . S
N641 C642 1.316 . S
N641 C643 1.375 . S
C642 N641 1.316 . S
C642 N644 1.347 . S
C642 H653 0.931 . S
C643 N641 1.375 . S
C643 C645 1.350 . S
C643 H652 0.930 . S
N644 C642 1.347 . S
N644 C645 1.373 . S
C645 C643 1.350 . S
C645 N644 1.373 . S
C645 H659 0.931 . S
C646 O649 1.256 . S
C646 O650 1.255 . S
O647 Co630 2.021 . S
O647 C640 1.259 . S
O648 Co632 2.117 . S
O648 C640 1.258 . S
O649 Co632 2.020 . S
O649 C646 1.256 . S
O650 Co630 2.062 . S
O650 C646 1.255 . S
O651 C631 1.259 . S
O651 Co632 2.021 . S
H652 C643 0.930 . S
H653 C642 0.931 . S
O654 Co630 2.117 . S
O654 C631 1.258 . S
O655 Co630 2.020 . S
O655 C657 1.256 . S
O656 Co632 2.062 . S
O656 C657 1.255 . S
C657 O655 1.256 . S
C657 O656 1.255 . S
H658 C637 0.931 1_554 S
H659 C645 0.931 . S
Co660 N665 2.057 . S
Co660 O677 2.021 . S
Co660 O680 2.062 . S
Co660 O684 2.117 . S
Co660 O685 2.020 . S
C661 O681 1.259 . S
C661 O684 1.258 . S
Co662 N671 2.057 . S
Co662 O678 2.117 . S
Co662 O679 2.020 . S
Co662 O681 2.021 . S
Co662 O686 2.062 . S
C663 N665 1.316 . S
C663 N666 1.347 . S
C663 H668 0.931 . S
C664 N665 1.375 . S
C664 C667 1.350 . S
C664 H669 0.930 . S
N665 Co660 2.057 . S
N665 C663 1.316 . S
N665 C664 1.375 . S
N666 C663 1.347 . S
N666 C667 1.373 . S
C667 C664 1.350 . S
C667 N666 1.373 . S
C667 H688 0.931 1_556 S
H668 C663 0.931 . S
H669 C664 0.930 . S
C670 O677 1.259 . S
C670 O678 1.258 . S
N671 Co662 2.057 . S
N671 C672 1.316 . S
N671 C673 1.375 . S
C672 N671 1.316 . S
C672 N674 1.347 . S
C672 H683 0.931 . S
C673 N671 1.375 . S
C673 C675 1.350 . S
C673 H682 0.930 . S
N674 C672 1.347 . S
N674 C675 1.373 . S
C675 C673 1.350 . S
C675 N674 1.373 . S
C675 H689 0.931 . S
C676 O679 1.256 . S
C676 O680 1.255 . S
O677 Co660 2.021 . S
O677 C670 1.259 . S
O678 Co662 2.117 . S
O678 C670 1.258 . S
O679 Co662 2.020 . S
O679 C676 1.256 . S
O680 Co660 2.062 . S
O680 C676 1.255 . S
O681 C661 1.259 . S
O681 Co662 2.021 . S
H682 C673 0.930 . S
H683 C672 0.931 . S
O684 Co660 2.117 . S
O684 C661 1.258 . S
O685 Co660 2.020 . S
O685 C687 1.256 . S
O686 Co662 2.062 . S
O686 C687 1.255 . S
C687 O685 1.256 . S
C687 O686 1.255 . S
H688 C667 0.931 1_554 S
H689 C675 0.931 . S
Co690 N695 2.057 . S
Co690 O707 2.021 . S
Co690 O710 2.062 . S
Co690 O714 2.117 . S
Co690 O715 2.020 . S
C691 O711 1.259 . S
C691 O714 1.258 . S
Co692 N701 2.057 . S
Co692 O708 2.117 . S
Co692 O709 2.020 . S
Co692 O711 2.021 . S
Co692 O716 2.062 . S
C693 N695 1.316 . S
C693 N696 1.347 . S
C693 H698 0.931 . S
C694 N695 1.375 . S
C694 C697 1.350 . S
C694 H699 0.930 . S
N695 Co690 2.057 . S
N695 C693 1.316 . S
N695 C694 1.375 . S
N696 C693 1.347 . S
N696 C697 1.373 . S
C697 C694 1.350 . S
C697 N696 1.373 . S
C697 H718 0.931 1_556 S
H698 C693 0.931 . S
H699 C694 0.930 . S
C700 O707 1.259 . S
C700 O708 1.258 . S
N701 Co692 2.057 . S
N701 C702 1.316 . S
N701 C703 1.375 . S
C702 N701 1.316 . S
C702 N704 1.347 . S
C702 H713 0.931 . S
C703 N701 1.375 . S
C703 C705 1.350 . S
C703 H712 0.930 . S
N704 C702 1.347 . S
N704 C705 1.373 . S
C705 C703 1.350 . S
C705 N704 1.373 . S
C705 H719 0.931 . S
C706 O709 1.256 . S
C706 O710 1.255 . S
O707 Co690 2.021 . S
O707 C700 1.259 . S
O708 Co692 2.117 . S
O708 C700 1.258 . S
O709 Co692 2.020 . S
O709 C706 1.256 . S
O710 Co690 2.062 . S
O710 C706 1.255 . S
O711 C691 1.259 . S
O711 Co692 2.021 . S
H712 C703 0.930 . S
H713 C702 0.931 . S
O714 Co690 2.117 . S
O714 C691 1.258 . S
O715 Co690 2.020 . S
O715 C717 1.256 . S
O716 Co692 2.062 . S
O716 C717 1.255 . S
C717 O715 1.256 . S
C717 O716 1.255 . S
H718 C697 0.931 1_554 S
H719 C705 0.931 . S
Co720 N725 2.057 . S
Co720 O737 2.021 . S
Co720 O740 2.062 . S
Co720 O744 2.117 . S
Co720 O745 2.020 . S
C721 O741 1.259 . S
C721 O744 1.258 . S
Co722 N731 2.057 . S
Co722 O738 2.117 . S
Co722 O739 2.020 . S
Co722 O741 2.021 . S
Co722 O746 2.062 . S
C723 N725 1.316 . S
C723 N726 1.347 . S
C723 H728 0.931 . S
C724 N725 1.375 . S
C724 C727 1.350 . S
C724 H729 0.930 . S
N725 Co720 2.057 . S
N725 C723 1.316 . S
N725 C724 1.375 . S
N726 C723 1.347 . S
N726 C727 1.373 . S
C727 C724 1.350 . S
C727 N726 1.373 . S
C727 H748 0.931 . S
H728 C723 0.931 . S
H729 C724 0.930 . S
C730 O737 1.259 . S
C730 O738 1.258 . S
N731 Co722 2.057 . S
N731 C732 1.316 . S
N731 C733 1.375 . S
C732 N731 1.316 . S
C732 N734 1.347 . S
C732 H743 0.931 . S
C733 N731 1.375 . S
C733 C735 1.350 . S
C733 H742 0.930 . S
N734 C732 1.347 . S
N734 C735 1.373 . S
C735 C733 1.350 . S
C735 N734 1.373 . S
C735 H749 0.931 . S
C736 O739 1.256 . S
C736 O740 1.255 . S
O737 Co720 2.021 . S
O737 C730 1.259 . S
O738 Co722 2.117 . S
O738 C730 1.258 . S
O739 Co722 2.020 . S
O739 C736 1.256 . S
O740 Co720 2.062 . S
O740 C736 1.255 . S
O741 C721 1.259 . S
O741 Co722 2.021 . S
H742 C733 0.930 . S
H743 C732 0.931 . S
O744 Co720 2.117 . S
O744 C721 1.258 . S
O745 Co720 2.020 . S
O745 C747 1.256 . S
O746 Co722 2.062 . S
O746 C747 1.255 . S
C747 O745 1.256 . S
C747 O746 1.255 . S
H748 C727 0.931 . S
H749 C735 0.931 . S
Co750 N755 2.057 . S
Co750 O767 2.021 . S
Co750 O770 2.062 . S
Co750 O774 2.117 . S
Co750 O775 2.020 . S
C751 O771 1.259 . S
C751 O774 1.258 . S
Co752 N761 2.057 . S
Co752 O768 2.117 . S
Co752 O769 2.020 . S
Co752 O771 2.021 . S
Co752 O776 2.062 . S
C753 N755 1.316 . S
C753 N756 1.347 . S
C753 H758 0.931 . S
C754 N755 1.375 . S
C754 C757 1.350 . S
C754 H759 0.930 . S
N755 Co750 2.057 . S
N755 C753 1.316 . S
N755 C754 1.375 . S
N756 C753 1.347 . S
N756 C757 1.373 . S
C757 C754 1.350 . S
C757 N756 1.373 . S
C757 H778 0.931 . S
H758 C753 0.931 . S
H759 C754 0.930 . S
C760 O767 1.259 . S
C760 O768 1.258 . S
N761 Co752 2.057 . S
N761 C762 1.316 . S
N761 C763 1.375 . S
C762 N761 1.316 . S
C762 N764 1.347 . S
C762 H773 0.931 . S
C763 N761 1.375 . S
C763 C765 1.350 . S
C763 H772 0.930 . S
N764 C762 1.347 . S
N764 C765 1.373 . S
C765 C763 1.350 . S
C765 N764 1.373 . S
C765 H779 0.931 . S
C766 O769 1.256 . S
C766 O770 1.255 . S
O767 Co750 2.021 . S
O767 C760 1.259 . S
O768 Co752 2.117 . S
O768 C760 1.258 . S
O769 Co752 2.020 . S
O769 C766 1.256 . S
O770 Co750 2.062 . S
O770 C766 1.255 . S
O771 C751 1.259 . S
O771 Co752 2.021 . S
H772 C763 0.930 . S
H773 C762 0.931 . S
O774 Co750 2.117 . S
O774 C751 1.258 . S
O775 Co750 2.020 . S
O775 C777 1.256 . S
O776 Co752 2.062 . S
O776 C777 1.255 . S
C777 O775 1.256 . S
C777 O776 1.255 . S
H778 C757 0.931 . S
H779 C765 0.931 . S
Co780 N785 2.057 . S
Co780 O797 2.021 . S
Co780 O800 2.062 . S
Co780 O804 2.117 . S
Co780 O805 2.020 . S
C781 O801 1.259 . S
C781 O804 1.258 . S
Co782 N791 2.057 . S
Co782 O798 2.117 . S
Co782 O799 2.020 . S
Co782 O801 2.021 . S
Co782 O806 2.062 . S
C783 N785 1.316 . S
C783 N786 1.347 . S
C783 H788 0.931 . S
C784 N785 1.375 . S
C784 C787 1.350 . S
C784 H789 0.930 . S
N785 Co780 2.057 . S
N785 C783 1.316 . S
N785 C784 1.375 . S
N786 C783 1.347 . S
N786 C787 1.373 . S
C787 C784 1.350 . S
C787 N786 1.373 . S
C787 H808 0.931 . S
H788 C783 0.931 . S
H789 C784 0.930 . S
C790 O797 1.259 . S
C790 O798 1.258 . S
N791 Co782 2.057 . S
N791 C792 1.316 . S
N791 C793 1.375 . S
C792 N791 1.316 . S
C792 N794 1.347 . S
C792 H803 0.931 . S
C793 N791 1.375 . S
C793 C795 1.350 . S
C793 H802 0.930 . S
N794 C792 1.347 . S
N794 C795 1.373 . S
C795 C793 1.350 . S
C795 N794 1.373 . S
C795 H809 0.931 . S
C796 O799 1.256 . S
C796 O800 1.255 . S
O797 Co780 2.021 . S
O797 C790 1.259 . S
O798 Co782 2.117 . S
O798 C790 1.258 . S
O799 Co782 2.020 . S
O799 C796 1.256 . S
O800 Co780 2.062 . S
O800 C796 1.255 . S
O801 C781 1.259 . S
O801 Co782 2.021 . S
H802 C793 0.930 . S
H803 C792 0.931 . S
O804 Co780 2.117 . S
O804 C781 1.258 . S
O805 Co780 2.020 . S
O805 C807 1.256 . S
O806 Co782 2.062 . S
O806 C807 1.255 . S
C807 O805 1.256 . S
C807 O806 1.255 . S
H808 C787 0.931 . S
H809 C795 0.931 . S
Co810 N815 2.057 . S
Co810 O827 2.021 . S
Co810 O830 2.062 . S
Co810 O834 2.117 . S
Co810 O835 2.020 . S
C811 O831 1.259 . S
C811 O834 1.258 . S
Co812 N821 2.057 . S
Co812 O828 2.117 . S
Co812 O829 2.020 . S
Co812 O831 2.021 . S
Co812 O836 2.062 . S
C813 N815 1.316 . S
C813 N816 1.347 . S
C813 H818 0.931 . S
C814 N815 1.375 . S
C814 C817 1.350 . S
C814 H819 0.930 . S
N815 Co810 2.057 . S
N815 C813 1.316 . S
N815 C814 1.375 . S
N816 C813 1.347 . S
N816 C817 1.373 . S
C817 C814 1.350 . S
C817 N816 1.373 . S
C817 H838 0.931 . S
H818 C813 0.931 . S
H819 C814 0.930 . S
C820 O827 1.259 . S
C820 O828 1.258 . S
N821 Co812 2.057 . S
N821 C822 1.316 . S
N821 C823 1.375 . S
C822 N821 1.316 . S
C822 N824 1.347 . S
C822 H833 0.931 . S
C823 N821 1.375 . S
C823 C825 1.350 . S
C823 H832 0.930 . S
N824 C822 1.347 . S
N824 C825 1.373 . S
C825 C823 1.350 . S
C825 N824 1.373 . S
C825 H839 0.931 1_554 S
C826 O829 1.256 . S
C826 O830 1.255 . S
O827 Co810 2.021 . S
O827 C820 1.259 . S
O828 Co812 2.117 . S
O828 C820 1.258 . S
O829 Co812 2.020 . S
O829 C826 1.256 . S
O830 Co810 2.062 . S
O830 C826 1.255 . S
O831 C811 1.259 . S
O831 Co812 2.021 . S
H832 C823 0.930 . S
H833 C822 0.931 . S
O834 Co810 2.117 . S
O834 C811 1.258 . S
O835 Co810 2.020 . S
O835 C837 1.256 . S
O836 Co812 2.062 . S
O836 C837 1.255 . S
C837 O835 1.256 . S
C837 O836 1.255 . S
H838 C817 0.931 . S
H839 C825 0.931 1_556 S
Co840 N845 2.057 . S
Co840 O857 2.021 . S
Co840 O860 2.062 . S
Co840 O864 2.117 . S
Co840 O865 2.020 . S
C841 O861 1.259 . S
C841 O864 1.258 . S
Co842 N851 2.057 . S
Co842 O858 2.117 . S
Co842 O859 2.020 . S
Co842 O861 2.021 . S
Co842 O866 2.062 . S
C843 N845 1.316 . S
C843 N846 1.347 . S
C843 H848 0.931 . S
C844 N845 1.375 . S
C844 C847 1.350 . S
C844 H849 0.930 . S
N845 Co840 2.057 . S
N845 C843 1.316 . S
N845 C844 1.375 . S
N846 C843 1.347 . S
N846 C847 1.373 . S
C847 C844 1.350 . S
C847 N846 1.373 . S
C847 H868 0.931 . S
H848 C843 0.931 . S
H849 C844 0.930 . S
C850 O857 1.259 . S
C850 O858 1.258 . S
N851 Co842 2.057 . S
N851 C852 1.316 . S
N851 C853 1.375 . S
C852 N851 1.316 . S
C852 N854 1.347 . S
C852 H863 0.931 . S
C853 N851 1.375 . S
C853 C855 1.350 . S
C853 H862 0.930 . S
N854 C852 1.347 . S
N854 C855 1.373 . S
C855 C853 1.350 . S
C855 N854 1.373 . S
C855 H869 0.931 1_554 S
C856 O859 1.256 . S
C856 O860 1.255 . S
O857 Co840 2.021 . S
O857 C850 1.259 . S
O858 Co842 2.117 . S
O858 C850 1.258 . S
O859 Co842 2.020 . S
O859 C856 1.256 . S
O860 Co840 2.062 . S
O860 C856 1.255 . S
O861 C841 1.259 . S
O861 Co842 2.021 . S
H862 C853 0.930 . S
H863 C852 0.931 . S
O864 Co840 2.117 . S
O864 C841 1.258 . S
O865 Co840 2.020 . S
O865 C867 1.256 . S
O866 Co842 2.062 . S
O866 C867 1.255 . S
C867 O865 1.256 . S
C867 O866 1.255 . S
H868 C847 0.931 . S
H869 C855 0.931 1_556 S
Co870 N875 2.057 . S
Co870 O887 2.021 . S
Co870 O890 2.062 . S
Co870 O894 2.117 . S
Co870 O895 2.020 . S
C871 O891 1.259 . S
C871 O894 1.258 . S
Co872 N881 2.057 . S
Co872 O888 2.117 . S
Co872 O889 2.020 . S
Co872 O891 2.021 . S
Co872 O896 2.062 . S
C873 N875 1.316 . S
C873 N876 1.347 . S
C873 H878 0.931 . S
C874 N875 1.375 . S
C874 C877 1.350 . S
C874 H879 0.930 . S
N875 Co870 2.057 . S
N875 C873 1.316 . S
N875 C874 1.375 . S
N876 C873 1.347 . S
N876 C877 1.373 . S
C877 C874 1.350 . S
C877 N876 1.373 . S
C877 H898 0.931 . S
H878 C873 0.931 . S
H879 C874 0.930 . S
C880 O887 1.259 . S
C880 O888 1.258 . S
N881 Co872 2.057 . S
N881 C882 1.316 . S
N881 C883 1.375 . S
C882 N881 1.316 . S
C882 N884 1.347 . S
C882 H893 0.931 . S
C883 N881 1.375 . S
C883 C885 1.350 . S
C883 H892 0.930 . S
N884 C882 1.347 . S
N884 C885 1.373 . S
C885 C883 1.350 . S
C885 N884 1.373 . S
C885 H899 0.931 1_554 S
C886 O889 1.256 . S
C886 O890 1.255 . S
O887 Co870 2.021 . S
O887 C880 1.259 . S
O888 Co872 2.117 . S
O888 C880 1.258 . S
O889 Co872 2.020 . S
O889 C886 1.256 . S
O890 Co870 2.062 . S
O890 C886 1.255 . S
O891 C871 1.259 . S
O891 Co872 2.021 . S
H892 C883 0.930 . S
H893 C882 0.931 . S
O894 Co870 2.117 . S
O894 C871 1.258 . S
O895 Co870 2.020 . S
O895 C897 1.256 . S
O896 Co872 2.062 . S
O896 C897 1.255 . S
C897 O895 1.256 . S
C897 O896 1.255 . S
H898 C877 0.931 . S
H899 C885 0.931 1_556 S
Co900 N905 2.057 . S
Co900 O917 2.021 . S
Co900 O920 2.062 . S
Co900 O924 2.117 . S
Co900 O925 2.020 . S
C901 O921 1.259 . S
C901 O924 1.258 . S
Co902 N911 2.057 . S
Co902 O918 2.117 . S
Co902 O919 2.020 . S
Co902 O921 2.021 . S
Co902 O926 2.062 . S
C903 N905 1.316 . S
C903 N906 1.347 . S
C903 H908 0.931 . S
C904 N905 1.375 . S
C904 C907 1.350 . S
C904 H909 0.930 . S
N905 Co900 2.057 . S
N905 C903 1.316 . S
N905 C904 1.375 . S
N906 C903 1.347 . S
N906 C907 1.373 . S
C907 C904 1.350 . S
C907 N906 1.373 . S
C907 H928 0.931 . S
H908 C903 0.931 . S
H909 C904 0.930 . S
C910 O917 1.259 . S
C910 O918 1.258 . S
N911 Co902 2.057 . S
N911 C912 1.316 . S
N911 C913 1.375 . S
C912 N911 1.316 . S
C912 N914 1.347 . S
C912 H923 0.931 . S
C913 N911 1.375 . S
C913 C915 1.350 . S
C913 H922 0.930 . S
N914 C912 1.347 . S
N914 C915 1.373 . S
C915 C913 1.350 . S
C915 N914 1.373 . S
C915 H929 0.931 . S
C916 O919 1.256 . S
C916 O920 1.255 . S
O917 Co900 2.021 . S
O917 C910 1.259 . S
O918 Co902 2.117 . S
O918 C910 1.258 . S
O919 Co902 2.020 . S
O919 C916 1.256 . S
O920 Co900 2.062 . S
O920 C916 1.255 . S
O921 C901 1.259 . S
O921 Co902 2.021 . S
H922 C913 0.930 . S
H923 C912 0.931 . S
O924 Co900 2.117 . S
O924 C901 1.258 . S
O925 Co900 2.020 . S
O925 C927 1.256 . S
O926 Co902 2.062 . S
O926 C927 1.255 . S
C927 O925 1.256 . S
C927 O926 1.255 . S
H928 C907 0.931 . S
H929 C915 0.931 . S
Co930 N935 2.057 . S
Co930 O947 2.021 . S
Co930 O950 2.062 . S
Co930 O954 2.117 . S
Co930 O955 2.020 . S
C931 O951 1.259 . S
C931 O954 1.258 . S
Co932 N941 2.057 . S
Co932 O948 2.117 . S
Co932 O949 2.020 . S
Co932 O951 2.021 . S
Co932 O956 2.062 . S
C933 N935 1.316 . S
C933 N936 1.347 . S
C933 H938 0.931 . S
C934 N935 1.375 . S
C934 C937 1.350 . S
C934 H939 0.930 . S
N935 Co930 2.057 . S
N935 C933 1.316 . S
N935 C934 1.375 . S
N936 C933 1.347 . S
N936 C937 1.373 . S
C937 C934 1.350 . S
C937 N936 1.373 . S
C937 H958 0.931 . S
H938 C933 0.931 . S
H939 C934 0.930 . S
C940 O947 1.259 . S
C940 O948 1.258 . S
N941 Co932 2.057 . S
N941 C942 1.316 . S
N941 C943 1.375 . S
C942 N941 1.316 . S
C942 N944 1.347 . S
C942 H953 0.931 . S
C943 N941 1.375 . S
C943 C945 1.350 . S
C943 H952 0.930 . S
N944 C942 1.347 . S
N944 C945 1.373 . S
C945 C943 1.350 . S
C945 N944 1.373 . S
C945 H959 0.931 . S
C946 O949 1.256 . S
C946 O950 1.255 . S
O947 Co930 2.021 . S
O947 C940 1.259 . S
O948 Co932 2.117 . S
O948 C940 1.258 . S
O949 Co932 2.020 . S
O949 C946 1.256 . S
O950 Co930 2.062 . S
O950 C946 1.255 . S
O951 C931 1.259 . S
O951 Co932 2.021 . S
H952 C943 0.930 . S
H953 C942 0.931 . S
O954 Co930 2.117 . S
O954 C931 1.258 . S
O955 Co930 2.020 . S
O955 C957 1.256 . S
O956 Co932 2.062 . S
O956 C957 1.255 . S
C957 O955 1.256 . S
C957 O956 1.255 . S
H958 C937 0.931 . S
H959 C945 0.931 . S
Co960 N965 2.057 . S
Co960 O977 2.021 . S
Co960 O980 2.062 . S
Co960 O984 2.117 . S
Co960 O985 2.020 . S
C961 O981 1.259 . S
C961 O984 1.258 . S
Co962 N971 2.057 . S
Co962 O978 2.117 . S
Co962 O979 2.020 . S
Co962 O981 2.021 . S
Co962 O986 2.062 . S
C963 N965 1.316 . S
C963 N966 1.347 . S
C963 H968 0.931 . S
C964 N965 1.375 . S
C964 C967 1.350 . S
C964 H969 0.930 . S
N965 Co960 2.057 . S
N965 C963 1.316 . S
N965 C964 1.375 . S
N966 C963 1.347 . S
N966 C967 1.373 . S
C967 C964 1.350 . S
C967 N966 1.373 . S
C967 H988 0.931 . S
H968 C963 0.931 . S
H969 C964 0.930 . S
C970 O977 1.259 . S
C970 O978 1.258 . S
N971 Co962 2.057 . S
N971 C972 1.316 . S
N971 C973 1.375 . S
C972 N971 1.316 . S
C972 N974 1.347 . S
C972 H983 0.931 . S
C973 N971 1.375 . S
C973 C975 1.350 . S
C973 H982 0.930 . S
N974 C972 1.347 . S
N974 C975 1.373 . S
C975 C973 1.350 . S
C975 N974 1.373 . S
C975 H989 0.931 . S
C976 O979 1.256 . S
C976 O980 1.255 . S
O977 Co960 2.021 . S
O977 C970 1.259 . S
O978 Co962 2.117 . S
O978 C970 1.258 . S
O979 Co962 2.020 . S
O979 C976 1.256 . S
O980 Co960 2.062 . S
O980 C976 1.255 . S
O981 C961 1.259 . S
O981 Co962 2.021 . S
H982 C973 0.930 . S
H983 C972 0.931 . S
O984 Co960 2.117 . S
O984 C961 1.258 . S
O985 Co960 2.020 . S
O985 C987 1.256 . S
O986 Co962 2.062 . S
O986 C987 1.255 . S
C987 O985 1.256 . S
C987 O986 1.255 . S
H988 C967 0.931 . S
H989 C975 0.931 . S
Co990 N995 2.057 . S
Co990 O1007 2.021 . S
Co990 O1010 2.062 . S
Co990 O1014 2.117 . S
Co990 O1015 2.020 . S
C991 O1011 1.259 . S
C991 O1014 1.258 . S
Co992 N1001 2.057 . S
Co992 O1008 2.117 . S
Co992 O1009 2.020 . S
Co992 O1011 2.021 . S
Co992 O1016 2.062 . S
C993 N995 1.316 . S
C993 N996 1.347 . S
C993 H998 0.931 . S
C994 N995 1.375 . S
C994 C997 1.350 . S
C994 H999 0.930 . S
N995 Co990 2.057 . S
N995 C993 1.316 . S
N995 C994 1.375 . S
N996 C993 1.347 . S
N996 C997 1.373 . S
C997 C994 1.350 . S
C997 N996 1.373 . S
C997 H1018 0.931 . S
H998 C993 0.931 . S
H999 C994 0.930 . S
C1000 O1007 1.259 . S
C1000 O1008 1.258 . S
N1001 Co992 2.057 . S
N1001 C1002 1.316 . S
N1001 C1003 1.375 . S
C1002 N1001 1.316 . S
C1002 N1004 1.347 . S
C1002 H1013 0.931 . S
C1003 N1001 1.375 . S
C1003 C1005 1.350 . S
C1003 H1012 0.930 . S
N1004 C1002 1.347 . S
N1004 C1005 1.373 . S
C1005 C1003 1.350 . S
C1005 N1004 1.373 . S
C1005 H1019 0.931 . S
C1006 O1009 1.256 . S
C1006 O1010 1.255 . S
O1007 Co990 2.021 . S
O1007 C1000 1.259 . S
O1008 Co992 2.117 . S
O1008 C1000 1.258 . S
O1009 Co992 2.020 . S
O1009 C1006 1.256 . S
O1010 Co990 2.062 . S
O1010 C1006 1.255 . S
O1011 C991 1.259 . S
O1011 Co992 2.021 . S
H1012 C1003 0.930 . S
H1013 C1002 0.931 . S
O1014 Co990 2.117 . S
O1014 C991 1.258 . S
O1015 Co990 2.020 . S
O1015 C1017 1.256 . S
O1016 Co992 2.062 . S
O1016 C1017 1.255 . S
C1017 O1015 1.256 . S
C1017 O1016 1.255 . S
H1018 C997 0.931 . S
H1019 C1005 0.931 . S
Co1020 N1025 2.057 . S
Co1020 O1037 2.021 . S
Co1020 O1040 2.062 . S
Co1020 O1044 2.117 . S
Co1020 O1045 2.020 . S
C1021 O1041 1.259 . S
C1021 O1044 1.258 . S
Co1022 N1031 2.057 . S
Co1022 O1038 2.117 . S
Co1022 O1039 2.020 . S
Co1022 O1041 2.021 . S
Co1022 O1046 2.062 . S
C1023 N1025 1.316 . S
C1023 N1026 1.347 . S
C1023 H1028 0.931 . S
C1024 N1025 1.375 . S
C1024 C1027 1.350 . S
C1024 H1029 0.930 . S
N1025 Co1020 2.057 . S
N1025 C1023 1.316 . S
N1025 C1024 1.375 . S
N1026 C1023 1.347 . S
N1026 C1027 1.373 . S
C1027 C1024 1.350 . S
C1027 N1026 1.373 . S
C1027 H1048 0.931 . S
H1028 C1023 0.931 . S
H1029 C1024 0.930 . S
C1030 O1037 1.259 . S
C1030 O1038 1.258 . S
N1031 Co1022 2.057 . S
N1031 C1032 1.316 . S
N1031 C1033 1.375 . S
C1032 N1031 1.316 . S
C1032 N1034 1.347 . S
C1032 H1043 0.931 . S
C1033 N1031 1.375 . S
C1033 C1035 1.350 . S
C1033 H1042 0.930 . S
N1034 C1032 1.347 . S
N1034 C1035 1.373 . S
C1035 C1033 1.350 . S
C1035 N1034 1.373 . S
C1035 H1049 0.931 . S
C1036 O1039 1.256 . S
C1036 O1040 1.255 . S
O1037 Co1020 2.021 . S
O1037 C1030 1.259 . S
O1038 Co1022 2.117 . S
O1038 C1030 1.258 . S
O1039 Co1022 2.020 . S
O1039 C1036 1.256 . S
O1040 Co1020 2.062 . S
O1040 C1036 1.255 . S
O1041 C1021 1.259 . S
O1041 Co1022 2.021 . S
H1042 C1033 0.930 . S
H1043 C1032 0.931 . S
O1044 Co1020 2.117 . S
O1044 C1021 1.258 . S
O1045 Co1020 2.020 . S
O1045 C1047 1.256 . S
O1046 Co1022 2.062 . S
O1046 C1047 1.255 . S
C1047 O1045 1.256 . S
C1047 O1046 1.255 . S
H1048 C1027 0.931 . S
H1049 C1035 0.931 . S
Co1050 N1055 2.057 . S
Co1050 O1067 2.021 . S
Co1050 O1070 2.062 . S
Co1050 O1074 2.117 . S
Co1050 O1075 2.020 . S
C1051 O1071 1.259 . S
C1051 O1074 1.258 . S
Co1052 N1061 2.057 . S
Co1052 O1068 2.117 . S
Co1052 O1069 2.020 . S
Co1052 O1071 2.021 . S
Co1052 O1076 2.062 . S
C1053 N1055 1.316 . S
C1053 N1056 1.347 . S
C1053 H1058 0.931 . S
C1054 N1055 1.375 . S
C1054 C1057 1.350 . S
C1054 H1059 0.930 . S
N1055 Co1050 2.057 . S
N1055 C1053 1.316 . S
N1055 C1054 1.375 . S
N1056 C1053 1.347 . S
N1056 C1057 1.373 . S
C1057 C1054 1.350 . S
C1057 N1056 1.373 . S
C1057 H1078 0.931 . S
H1058 C1053 0.931 . S
H1059 C1054 0.930 . S
C1060 O1067 1.259 . S
C1060 O1068 1.258 . S
N1061 Co1052 2.057 . S
N1061 C1062 1.316 . S
N1061 C1063 1.375 . S
C1062 N1061 1.316 . S
C1062 N1064 1.347 . S
C1062 H1073 0.931 . S
C1063 N1061 1.375 . S
C1063 C1065 1.350 . S
C1063 H1072 0.930 . S
N1064 C1062 1.347 . S
N1064 C1065 1.373 . S
C1065 C1063 1.350 . S
C1065 N1064 1.373 . S
C1065 H1079 0.931 . S
C1066 O1069 1.256 . S
C1066 O1070 1.255 . S
O1067 Co1050 2.021 . S
O1067 C1060 1.259 . S
O1068 Co1052 2.117 . S
O1068 C1060 1.258 . S
O1069 Co1052 2.020 . S
O1069 C1066 1.256 . S
O1070 Co1050 2.062 . S
O1070 C1066 1.255 . S
O1071 C1051 1.259 . S
O1071 Co1052 2.021 . S
H1072 C1063 0.930 . S
H1073 C1062 0.931 . S
O1074 Co1050 2.117 . S
O1074 C1051 1.258 . S
O1075 Co1050 2.020 . S
O1075 C1077 1.256 . S
O1076 Co1052 2.062 . S
O1076 C1077 1.255 . S
C1077 O1075 1.256 . S
C1077 O1076 1.255 . S
H1078 C1057 0.931 . S
H1079 C1065 0.931 . S
H1080 C1088 0.950 . S
H1081 C1093 0.950 . S
H1082 C1090 0.950 . S
H1083 C1092 0.950 1_556 S
H1084 C1094 0.950 . S
H1085 C1096 0.950 . S
H1086 C1098 0.950 . S
H1087 C1099 0.950 . S
C1088 H1080 0.950 . S
C1088 C1089 1.386 . S
C1088 C1090 1.391 . S
C1089 C1088 1.386 . S
C1089 C1093 1.393 . S
C1090 H1082 0.950 . S
C1090 C1088 1.391 . S
C1090 C1091 1.400 . S
C1091 C1090 1.400 . S
C1091 C1092 1.398 . S
C1091 C1097 1.491 . S
C1092 H1083 0.950 1_554 S
C1092 C1091 1.398 . S
C1092 C1093 1.391 . S
C1093 H1081 0.950 . S
C1093 C1089 1.393 . S
C1093 C1092 1.391 . S
C1094 H1084 0.950 . S
C1094 C1095 1.386 . S
C1094 C1096 1.391 . S
C1095 C1094 1.386 . S
C1095 C1099 1.393 1_556 S
C1096 H1085 0.950 . S
C1096 C1094 1.391 . S
C1096 C1097 1.400 1_556 S
C1097 C1091 1.491 . S
C1097 C1096 1.400 1_554 S
C1097 C1098 1.398 . S
C1098 H1086 0.950 . S
C1098 C1097 1.398 . S
C1098 C1099 1.391 . S
C1099 H1087 0.950 . S
C1099 C1095 1.393 1_554 S
C1099 C1098 1.391 . S
H1100 C1108 0.950 . S
H1101 C1113 0.950 . S
H1102 C1110 0.950 . S
H1103 C1112 0.950 . S
H1104 C1114 0.950 . S
H1105 C1116 0.950 . S
H1106 C1118 0.950 . S
H1107 C1119 0.950 . S
C1108 H1100 0.950 . S
C1108 C1109 1.386 1_554 S
C1108 C1110 1.391 . S
C1109 C1108 1.386 1_556 S
C1109 C1113 1.393 . S
C1110 H1102 0.950 . S
C1110 C1108 1.391 . S
C1110 C1111 1.400 . S
C1111 C1110 1.400 . S
C1111 C1112 1.398 . S
C1111 C1117 1.491 . S
C1112 H1103 0.950 . S
C1112 C1111 1.398 . S
C1112 C1113 1.391 1_554 S
C1113 H1101 0.950 . S
C1113 C1109 1.393 . S
C1113 C1112 1.391 1_556 S
C1114 H1104 0.950 . S
C1114 C1115 1.386 . S
C1114 C1116 1.391 . S
C1115 C1114 1.386 . S
C1115 C1119 1.393 . S
C1116 H1105 0.950 . S
C1116 C1114 1.391 . S
C1116 C1117 1.400 . S
C1117 C1111 1.491 . S
C1117 C1116 1.400 . S
C1117 C1118 1.398 . S
C1118 H1106 0.950 . S
C1118 C1117 1.398 . S
C1118 C1119 1.391 . S
C1119 H1107 0.950 . S
C1119 C1115 1.393 . S
C1119 C1118 1.391 . S
H1120 C1128 0.950 . S
H1121 C1133 0.950 . S
H1122 C1130 0.950 . S
H1123 C1132 0.950 . S
H1124 C1134 0.950 . S
H1125 C1136 0.950 1_556 S
H1126 C1138 0.950 . S
H1127 C1139 0.950 . S
C1128 H1120 0.950 . S
C1128 C1129 1.386 1_554 S
C1128 C1130 1.391 . S
C1129 C1128 1.386 1_556 S
C1129 C1133 1.393 . S
C1130 H1122 0.950 . S
C1130 C1128 1.391 . S
C1130 C1131 1.400 . S
C1131 C1130 1.400 . S
C1131 C1132 1.398 1_554 S
C1131 C1137 1.491 . S
C1132 H1123 0.950 . S
C1132 C1131 1.398 1_556 S
C1132 C1133 1.391 . S
C1133 H1121 0.950 . S
C1133 C1129 1.393 . S
C1133 C1132 1.391 . S
C1134 H1124 0.950 . S
C1134 C1135 1.386 . S
C1134 C1136 1.391 . S
C1135 C1134 1.386 . S
C1135 C1139 1.393 . S
C1136 H1125 0.950 1_554 S
C1136 C1134 1.391 . S
C1136 C1137 1.400 . S
C1137 C1131 1.491 . S
C1137 C1136 1.400 . S
C1137 C1138 1.398 . S
C1138 H1126 0.950 . S
C1138 C1137 1.398 . S
C1138 C1139 1.391 . S
C1139 H1127 0.950 . S
C1139 C1135 1.393 . S
C1139 C1138 1.391 . S
H1140 C1148 0.950 . S
H1141 C1153 0.950 . S
H1142 C1150 0.950 . S
H1143 C1152 0.950 . S
H1144 C1154 0.950 . S
H1145 C1156 0.950 . S
H1146 C1158 0.950 . S
H1147 C1159 0.950 . S
C1148 H1140 0.950 . S
C1148 C1149 1.386 . S
C1148 C1150 1.391 . S
C1149 C1148 1.386 . S
C1149 C1153 1.393 . S
C1150 H1142 0.950 . S
C1150 C1148 1.391 . S
C1150 C1151 1.400 . S
C1151 C1150 1.400 . S
C1151 C1152 1.398 . S
C1151 C1157 1.491 . S
C1152 H1143 0.950 . S
C1152 C1151 1.398 . S
C1152 C1153 1.391 . S
C1153 H1141 0.950 . S
C1153 C1149 1.393 . S
C1153 C1152 1.391 . S
C1154 H1144 0.950 . S
C1154 C1155 1.386 . S
C1154 C1156 1.391 . S
C1155 C1154 1.386 . S
C1155 C1159 1.393 . S
C1156 H1145 0.950 . S
C1156 C1154 1.391 . S
C1156 C1157 1.400 . S
C1157 C1151 1.491 . S
C1157 C1156 1.400 . S
C1157 C1158 1.398 . S
C1158 H1146 0.950 . S
C1158 C1157 1.398 . S
C1158 C1159 1.391 . S
C1159 H1147 0.950 . S
C1159 C1155 1.393 . S
C1159 C1158 1.391 . S
H1160 C1168 0.950 . S
H1161 C1173 0.950 . S
H1162 C1170 0.950 . S
H1163 C1172 0.950 . S
H1164 C1174 0.950 . S
H1165 C1176 0.950 . S
H1166 C1178 0.950 . S
H1167 C1179 0.950 . S
C1168 H1160 0.950 . S
C1168 C1169 1.386 . S
C1168 C1170 1.391 . S
C1169 C1168 1.386 . S
C1169 C1173 1.393 . S
C1170 H1162 0.950 . S
C1170 C1168 1.391 . S
C1170 C1171 1.400 . S
C1171 C1170 1.400 . S
C1171 C1172 1.398 . S
C1171 C1177 1.491 . S
C1172 H1163 0.950 . S
C1172 C1171 1.398 . S
C1172 C1173 1.391 . S
C1173 H1161 0.950 . S
C1173 C1169 1.393 . S
C1173 C1172 1.391 . S
C1174 H1164 0.950 . S
C1174 C1175 1.386 . S
C1174 C1176 1.391 . S
C1175 C1174 1.386 . S
C1175 C1179 1.393 . S
C1176 H1165 0.950 . S
C1176 C1174 1.391 . S
C1176 C1177 1.400 . S
C1177 C1171 1.491 . S
C1177 C1176 1.400 . S
C1177 C1178 1.398 . S
C1178 H1166 0.950 . S
C1178 C1177 1.398 . S
C1178 C1179 1.391 . S
C1179 H1167 0.950 . S
C1179 C1175 1.393 . S
C1179 C1178 1.391 . S
H1180 C1188 0.950 . S
H1181 C1193 0.950 . S
H1182 C1190 0.950 . S
H1183 C1192 0.950 . S
H1184 C1194 0.950 . S
H1185 C1196 0.950 . S
H1186 C1198 0.950 . S
H1187 C1199 0.950 . S
C1188 H1180 0.950 . S
C1188 C1189 1.386 . S
C1188 C1190 1.391 . S
C1189 C1188 1.386 . S
C1189 C1193 1.393 . S
C1190 H1182 0.950 . S
C1190 C1188 1.391 . S
C1190 C1191 1.400 . S
C1191 C1190 1.400 . S
C1191 C1192 1.398 . S
C1191 C1197 1.491 . S
C1192 H1183 0.950 . S
C1192 C1191 1.398 . S
C1192 C1193 1.391 . S
C1193 H1181 0.950 . S
C1193 C1189 1.393 . S
C1193 C1192 1.391 . S
C1194 H1184 0.950 . S
C1194 C1195 1.386 . S
C1194 C1196 1.391 . S
C1195 C1194 1.386 . S
C1195 C1199 1.393 . S
C1196 H1185 0.950 . S
C1196 C1194 1.391 . S
C1196 C1197 1.400 . S
C1197 C1191 1.491 . S
C1197 C1196 1.400 . S
C1197 C1198 1.398 . S
C1198 H1186 0.950 . S
C1198 C1197 1.398 . S
C1198 C1199 1.391 . S
C1199 H1187 0.950 . S
C1199 C1195 1.393 . S
C1199 C1198 1.391 . S
H1200 C1208 0.950 . S
H1201 C1213 0.950 . S
H1202 C1210 0.950 . S
H1203 C1212 0.950 . S
H1204 C1214 0.950 . S
H1205 C1216 0.950 . S
H1206 C1218 0.950 . S
H1207 C1219 0.950 . S
C1208 H1200 0.950 . S
C1208 C1209 1.386 1_556 S
C1208 C1210 1.391 . S
C1209 C1208 1.386 1_554 S
C1209 C1213 1.393 . S
C1210 H1202 0.950 . S
C1210 C1208 1.391 . S
C1210 C1211 1.400 . S
C1211 C1210 1.400 . S
C1211 C1212 1.398 . S
C1211 C1217 1.491 . S
C1212 H1203 0.950 . S
C1212 C1211 1.398 . S
C1212 C1213 1.391 1_556 S
C1213 H1201 0.950 . S
C1213 C1209 1.393 . S
C1213 C1212 1.391 1_554 S
C1214 H1204 0.950 . S
C1214 C1215 1.386 . S
C1214 C1216 1.391 . S
C1215 C1214 1.386 . S
C1215 C1219 1.393 . S
C1216 H1205 0.950 . S
C1216 C1214 1.391 . S
C1216 C1217 1.400 . S
C1217 C1211 1.491 . S
C1217 C1216 1.400 . S
C1217 C1218 1.398 . S
C1218 H1206 0.950 . S
C1218 C1217 1.398 . S
C1218 C1219 1.391 . S
C1219 H1207 0.950 . S
C1219 C1215 1.393 . S
C1219 C1218 1.391 . S
H1220 C1228 0.950 . S
H1221 C1233 0.950 . S
H1222 C1230 0.950 . S
H1223 C1232 0.950 . S
H1224 C1234 0.950 . S
H1225 C1236 0.950 . S
H1226 C1238 0.950 . S
H1227 C1239 0.950 . S
C1228 H1220 0.950 . S
C1228 C1229 1.386 . S
C1228 C1230 1.391 . S
C1229 C1228 1.386 . S
C1229 C1233 1.393 . S
C1230 H1222 0.950 . S
C1230 C1228 1.391 . S
C1230 C1231 1.400 . S
C1231 C1230 1.400 . S
C1231 C1232 1.398 . S
C1231 C1237 1.491 . S
C1232 H1223 0.950 . S
C1232 C1231 1.398 . S
C1232 C1233 1.391 . S
C1233 H1221 0.950 . S
C1233 C1229 1.393 . S
C1233 C1232 1.391 . S
C1234 H1224 0.950 . S
C1234 C1235 1.385 . S
C1234 C1236 1.391 1_554 S
C1235 C1234 1.385 . S
C1235 C1239 1.394 1_554 S
C1236 H1225 0.950 . S
C1236 C1234 1.391 1_556 S
C1236 C1237 1.400 . S
C1237 C1231 1.491 . S
C1237 C1236 1.400 . S
C1237 C1238 1.398 . S
C1238 H1226 0.950 . S
C1238 C1237 1.398 . S
C1238 C1239 1.391 . S
C1239 H1227 0.950 . S
C1239 C1235 1.394 1_556 S
C1239 C1238 1.391 . S
H1240 C1248 0.950 . S
H1241 C1253 0.950 . S
H1242 C1250 0.950 . S
H1243 C1252 0.950 . S
H1244 C1254 0.965 . S
H1245 C1256 0.950 1_554 S
H1246 C1258 0.950 . S
H1247 C1259 0.950 . S
C1248 H1240 0.950 . S
C1248 C1249 1.363 1_556 S
C1248 C1250 1.391 . S
C1249 C1248 1.363 1_554 S
C1249 C1253 1.408 . S
C1250 H1242 0.950 . S
C1250 C1248 1.391 . S
C1250 C1251 1.400 . S
C1251 C1250 1.400 . S
C1251 C1252 1.398 1_556 S
C1251 C1257 1.491 . S
C1252 H1243 0.950 . S
C1252 C1251 1.398 1_554 S
C1252 C1253 1.391 . S
C1253 H1241 0.950 . S
C1253 C1249 1.408 . S
C1253 C1252 1.391 . S
C1254 H1244 0.965 . S
C1254 C1255 1.386 . S
C1254 C1256 1.391 . S
C1255 C1254 1.386 . S
C1255 C1259 1.393 . S
C1256 H1245 0.950 1_556 S
C1256 C1254 1.391 . S
C1256 C1257 1.400 . S
C1257 C1251 1.491 . S
C1257 C1256 1.400 . S
C1257 C1258 1.398 . S
C1258 H1246 0.950 . S
C1258 C1257 1.398 . S
C1258 C1259 1.391 . S
C1259 H1247 0.950 . S
C1259 C1255 1.393 . S
C1259 C1258 1.391 . S
H1260 C1268 0.950 . S
H1261 C1273 0.950 . S
H1262 C1270 0.950 . S
H1263 C1272 0.950 . S
H1264 C1274 0.950 . S
H1265 C1276 0.950 . S
H1266 C1278 0.950 . S
H1267 C1279 0.950 . S
C1268 H1260 0.950 . S
C1268 C1269 1.386 . S
C1268 C1270 1.391 . S
C1269 C1268 1.386 . S
C1269 C1273 1.393 . S
C1270 H1262 0.950 . S
C1270 C1268 1.391 . S
C1270 C1271 1.400 . S
C1271 C1270 1.400 . S
C1271 C1272 1.398 . S
C1271 C1277 1.491 . S
C1272 H1263 0.950 . S
C1272 C1271 1.398 . S
C1272 C1273 1.391 . S
C1273 H1261 0.950 . S
C1273 C1269 1.393 . S
C1273 C1272 1.391 . S
C1274 H1264 0.950 . S
C1274 C1275 1.386 . S
C1274 C1276 1.391 . S
C1275 C1274 1.386 . S
C1275 C1279 1.393 . S
C1276 H1265 0.950 . S
C1276 C1274 1.391 . S
C1276 C1277 1.400 . S
C1277 C1271 1.491 . S
C1277 C1276 1.400 . S
C1277 C1278 1.398 . S
C1278 H1266 0.950 . S
C1278 C1277 1.398 . S
C1278 C1279 1.391 . S
C1279 H1267 0.950 . S
C1279 C1275 1.393 . S
C1279 C1278 1.391 . S
H1280 C1288 0.950 . S
H1281 C1293 0.950 . S
H1282 C1290 0.950 . S
H1283 C1292 0.950 . S
H1284 C1294 0.950 . S
H1285 C1296 0.950 . S
H1286 C1298 0.950 . S
H1287 C1299 0.950 . S
C1288 H1280 0.950 . S
C1288 C1289 1.386 . S
C1288 C1290 1.391 . S
C1289 C1288 1.386 . S
C1289 C1293 1.393 . S
C1290 H1282 0.950 . S
C1290 C1288 1.391 . S
C1290 C1291 1.400 . S
C1291 C1290 1.400 . S
C1291 C1292 1.398 . S
C1291 C1297 1.491 . S
C1292 H1283 0.950 . S
C1292 C1291 1.398 . S
C1292 C1293 1.391 . S
C1293 H1281 0.950 . S
C1293 C1289 1.393 . S
C1293 C1292 1.391 . S
C1294 H1284 0.950 . S
C1294 C1295 1.386 . S
C1294 C1296 1.391 . S
C1295 C1294 1.386 . S
C1295 C1299 1.393 . S
C1296 H1285 0.950 . S
C1296 C1294 1.391 . S
C1296 C1297 1.400 . S
C1297 C1291 1.491 . S
C1297 C1296 1.400 . S
C1297 C1298 1.398 . S
C1298 H1286 0.950 . S
C1298 C1297 1.398 . S
C1298 C1299 1.391 . S
C1299 H1287 0.950 . S
C1299 C1295 1.393 . S
C1299 C1298 1.391 . S
H1300 C1308 0.950 . S
H1301 C1313 0.950 . S
H1302 C1310 0.950 . S
H1303 C1312 0.950 . S
H1304 C1314 0.950 . S
H1305 C1316 0.950 . S
H1306 C1318 0.950 . S
H1307 C1319 0.950 . S
C1308 H1300 0.950 . S
C1308 C1309 1.386 . S
C1308 C1310 1.391 . S
C1309 C1308 1.386 . S
C1309 C1313 1.393 . S
C1310 H1302 0.950 . S
C1310 C1308 1.391 . S
C1310 C1311 1.400 . S
C1311 C1310 1.400 . S
C1311 C1312 1.398 . S
C1311 C1317 1.491 . S
C1312 H1303 0.950 . S
C1312 C1311 1.398 . S
C1312 C1313 1.391 . S
C1313 H1301 0.950 . S
C1313 C1309 1.393 . S
C1313 C1312 1.391 . S
C1314 H1304 0.950 . S
C1314 C1315 1.386 . S
C1314 C1316 1.391 . S
C1315 C1314 1.386 . S
C1315 C1319 1.393 . S
C1316 H1305 0.950 . S
C1316 C1314 1.391 . S
C1316 C1317 1.400 . S
C1317 C1311 1.491 . S
C1317 C1316 1.400 . S
C1317 C1318 1.398 . S
C1318 H1306 0.950 . S
C1318 C1317 1.398 . S
C1318 C1319 1.391 . S
C1319 H1307 0.950 . S
C1319 C1315 1.393 . S
C1319 C1318 1.391 . S
H1320 C1328 0.950 . S
H1321 C1333 0.950 . S
H1322 C1330 0.950 . S
H1323 C1332 0.950 . S
H1324 C1334 0.950 . S
H1325 C1336 0.950 . S
H1326 C1338 0.950 . S
H1327 C1339 0.950 . S
C1328 H1320 0.950 . S
C1328 C1329 1.386 . S
C1328 C1330 1.391 . S
C1329 C1328 1.386 . S
C1329 C1333 1.393 . S
C1330 H1322 0.950 . S
C1330 C1328 1.391 . S
C1330 C1331 1.400 . S
C1331 C1330 1.400 . S
C1331 C1332 1.398 . S
C1331 C1337 1.491 . S
C1332 H1323 0.950 . S
C1332 C1331 1.398 . S
C1332 C1333 1.391 . S
C1333 H1321 0.950 . S
C1333 C1329 1.393 . S
C1333 C1332 1.391 . S
C1334 H1324 0.950 . S
C1334 C1335 1.386 . S
C1334 C1336 1.391 . S
C1335 C1334 1.386 . S
C1335 C1339 1.393 . S
C1336 H1325 0.950 . S
C1336 C1334 1.391 . S
C1336 C1337 1.400 . S
C1337 C1331 1.491 . S
C1337 C1336 1.400 . S
C1337 C1338 1.398 . S
C1338 H1326 0.950 . S
C1338 C1337 1.398 . S
C1338 C1339 1.391 . S
C1339 H1327 0.950 . S
C1339 C1335 1.393 . S
C1339 C1338 1.391 . S
H1340 C1348 0.950 . S
H1341 C1353 0.950 . S
H1342 C1350 0.950 . S
H1343 C1352 0.950 . S
H1344 C1354 0.950 . S
H1345 C1356 0.950 . S
H1346 C1358 0.950 . S
H1347 C1359 0.950 . S
C1348 H1340 0.950 . S
C1348 C1349 1.386 . S
C1348 C1350 1.391 . S
C1349 C1348 1.386 . S
C1349 C1353 1.393 . S
C1350 H1342 0.950 . S
C1350 C1348 1.391 . S
C1350 C1351 1.400 . S
C1351 C1350 1.400 . S
C1351 C1352 1.398 . S
C1351 C1357 1.491 . S
C1352 H1343 0.950 . S
C1352 C1351 1.398 . S
C1352 C1353 1.391 . S
C1353 H1341 0.950 . S
C1353 C1349 1.393 . S
C1353 C1352 1.391 . S
C1354 H1344 0.950 . S
C1354 C1355 1.386 . S
C1354 C1356 1.391 . S
C1355 C1354 1.386 . S
C1355 C1359 1.393 . S
C1356 H1345 0.950 . S
C1356 C1354 1.391 . S
C1356 C1357 1.400 . S
C1357 C1351 1.491 . S
C1357 C1356 1.400 . S
C1357 C1358 1.398 . S
C1358 H1346 0.950 . S
C1358 C1357 1.398 . S
C1358 C1359 1.391 . S
C1359 H1347 0.950 . S
C1359 C1355 1.393 . S
C1359 C1358 1.391 . S
H1360 C1368 0.950 . S
H1361 C1373 0.950 . S
H1362 C1370 0.950 . S
H1363 C1372 0.950 . S
H1364 C1374 0.950 . S
H1365 C1376 0.950 . S
H1366 C1378 0.950 . S
H1367 C1379 0.950 . S
C1368 H1360 0.950 . S
C1368 C1369 1.386 . S
C1368 C1370 1.391 . S
C1369 C1368 1.386 . S
C1369 C1373 1.393 . S
C1370 H1362 0.950 . S
C1370 C1368 1.391 . S
C1370 C1371 1.400 . S
C1371 C1370 1.400 . S
C1371 C1372 1.398 . S
C1371 C1377 1.491 . S
C1372 H1363 0.950 . S
C1372 C1371 1.398 . S
C1372 C1373 1.391 . S
C1373 H1361 0.950 . S
C1373 C1369 1.393 . S
C1373 C1372 1.391 . S
C1374 H1364 0.950 . S
C1374 C1375 1.386 . S
C1374 C1376 1.391 . S
C1375 C1374 1.386 . S
C1375 C1379 1.393 . S
C1376 H1365 0.950 . S
C1376 C1374 1.391 . S
C1376 C1377 1.400 . S
C1377 C1371 1.491 . S
C1377 C1376 1.400 . S
C1377 C1378 1.398 . S
C1378 H1366 0.950 . S
C1378 C1377 1.398 . S
C1378 C1379 1.391 . S
C1379 H1367 0.950 . S
C1379 C1375 1.393 . S
C1379 C1378 1.391 . S
H1380 C1388 0.950 . S
H1381 C1393 0.950 . S
H1382 C1390 0.950 . S
H1383 C1392 0.950 . S
H1384 C1394 0.950 . S
H1385 C1396 0.950 . S
H1386 C1398 0.950 . S
H1387 C1399 0.950 . S
C1388 H1380 0.950 . S
C1388 C1389 1.386 . S
C1388 C1390 1.391 . S
C1389 C1388 1.386 . S
C1389 C1393 1.393 . S
C1390 H1382 0.950 . S
C1390 C1388 1.391 . S
C1390 C1391 1.400 . S
C1391 C1390 1.400 . S
C1391 C1392 1.398 . S
C1391 C1397 1.491 . S
C1392 H1383 0.950 . S
C1392 C1391 1.398 . S
C1392 C1393 1.391 . S
C1393 H1381 0.950 . S
C1393 C1389 1.393 . S
C1393 C1392 1.391 . S
C1394 H1384 0.950 . S
C1394 C1395 1.386 . S
C1394 C1396 1.391 . S
C1395 C1394 1.386 . S
C1395 C1399 1.393 . S
C1396 H1385 0.950 . S
C1396 C1394 1.391 . S
C1396 C1397 1.400 . S
C1397 C1391 1.491 . S
C1397 C1396 1.400 . S
C1397 C1398 1.398 . S
C1398 H1386 0.950 . S
C1398 C1397 1.398 . S
C1398 C1399 1.391 . S
C1399 H1387 0.950 . S
C1399 C1395 1.393 . S
C1399 C1398 1.391 . S
H1400 C1408 0.950 . S
H1401 C1413 0.950 . S
H1402 C1410 0.950 . S
H1403 C1412 0.950 . S
H1404 C1414 0.950 . S
H1405 C1416 0.950 . S
H1406 C1418 0.950 . S
H1407 C1419 0.950 . S
C1408 H1400 0.950 . S
C1408 C1409 1.386 . S
C1408 C1410 1.391 . S
C1409 C1408 1.386 . S
C1409 C1413 1.393 . S
C1410 H1402 0.950 . S
C1410 C1408 1.391 . S
C1410 C1411 1.400 . S
C1411 C1410 1.400 . S
C1411 C1412 1.398 . S
C1411 C1417 1.491 . S
C1412 H1403 0.950 . S
C1412 C1411 1.398 . S
C1412 C1413 1.391 . S
C1413 H1401 0.950 . S
C1413 C1409 1.393 . S
C1413 C1412 1.391 . S
C1414 H1404 0.950 . S
C1414 C1415 1.386 . S
C1414 C1416 1.391 . S
C1415 C1414 1.386 . S
C1415 C1419 1.393 . S
C1416 H1405 0.950 . S
C1416 C1414 1.391 . S
C1416 C1417 1.400 . S
C1417 C1411 1.491 . S
C1417 C1416 1.400 . S
C1417 C1418 1.398 . S
C1418 H1406 0.950 . S
C1418 C1417 1.398 . S
C1418 C1419 1.391 . S
C1419 H1407 0.950 . S
C1419 C1415 1.393 . S
C1419 C1418 1.391 . S
H1420 C1428 0.950 . S
H1421 C1433 0.950 . S
H1422 C1430 0.950 . S
H1423 C1432 0.950 . S
H1424 C1434 0.950 . S
H1425 C1436 0.950 . S
H1426 C1438 0.950 . S
H1427 C1439 0.950 . S
C1428 H1420 0.950 . S
C1428 C1429 1.386 . S
C1428 C1430 1.391 . S
C1429 C1428 1.386 . S
C1429 C1433 1.393 . S
C1430 H1422 0.950 . S
C1430 C1428 1.391 . S
C1430 C1431 1.400 . S
C1431 C1430 1.400 . S
C1431 C1432 1.398 . S
C1431 C1437 1.491 . S
C1432 H1423 0.950 . S
C1432 C1431 1.398 . S
C1432 C1433 1.391 . S
C1433 H1421 0.950 . S
C1433 C1429 1.393 . S
C1433 C1432 1.391 . S
C1434 H1424 0.950 . S
C1434 C1435 1.386 . S
C1434 C1436 1.391 . S
C1435 C1434 1.386 . S
C1435 C1439 1.393 . S
C1436 H1425 0.950 . S
C1436 C1434 1.391 . S
C1436 C1437 1.400 . S
C1437 C1431 1.491 . S
C1437 C1436 1.400 . S
C1437 C1438 1.398 . S
C1438 H1426 0.950 . S
C1438 C1437 1.398 . S
C1438 C1439 1.391 . S
C1439 H1427 0.950 . S
C1439 C1435 1.393 . S
C1439 C1438 1.391 . S
H1440 C1448 0.950 . S
H1441 C1453 0.950 . S
H1442 C1450 0.950 . S
H1443 C1452 0.950 . S
H1444 C1454 0.950 . S
H1445 C1456 0.950 . S
H1446 C1458 0.950 . S
H1447 C1459 0.950 . S
C1448 H1440 0.950 . S
C1448 C1449 1.386 . S
C1448 C1450 1.391 . S
C1449 C1448 1.386 . S
C1449 C1453 1.393 . S
C1450 H1442 0.950 . S
C1450 C1448 1.391 . S
C1450 C1451 1.400 . S
C1451 C1450 1.400 . S
C1451 C1452 1.398 . S
C1451 C1457 1.491 . S
C1452 H1443 0.950 . S
C1452 C1451 1.398 . S
C1452 C1453 1.391 . S
C1453 H1441 0.950 . S
C1453 C1449 1.393 . S
C1453 C1452 1.391 . S
C1454 H1444 0.950 . S
C1454 C1455 1.386 . S
C1454 C1456 1.391 . S
C1455 C1454 1.386 . S
C1455 C1459 1.393 . S
C1456 H1445 0.950 . S
C1456 C1454 1.391 . S
C1456 C1457 1.400 . S
C1457 C1451 1.491 . S
C1457 C1456 1.400 . S
C1457 C1458 1.398 . S
C1458 H1446 0.950 . S
C1458 C1457 1.398 . S
C1458 C1459 1.391 . S
C1459 H1447 0.950 . S
C1459 C1455 1.393 . S
C1459 C1458 1.391 . S
H1460 C1468 0.950 . S
H1461 C1473 0.950 . S
H1462 C1470 0.950 . S
H1463 C1472 0.950 . S
H1464 C1474 0.950 . S
H1465 C1476 0.950 . S
H1466 C1478 0.950 . S
H1467 C1479 0.950 . S
C1468 H1460 0.950 . S
C1468 C1469 1.386 . S
C1468 C1470 1.391 . S
C1469 C1468 1.386 . S
C1469 C1473 1.393 . S
C1470 H1462 0.950 . S
C1470 C1468 1.391 . S
C1470 C1471 1.400 . S
C1471 C1470 1.400 . S
C1471 C1472 1.398 . S
C1471 C1477 1.491 . S
C1472 H1463 0.950 . S
C1472 C1471 1.398 . S
C1472 C1473 1.391 . S
C1473 H1461 0.950 . S
C1473 C1469 1.393 . S
C1473 C1472 1.391 . S
C1474 H1464 0.950 . S
C1474 C1475 1.386 . S
C1474 C1476 1.391 . S
C1475 C1474 1.386 . S
C1475 C1479 1.393 . S
C1476 H1465 0.950 . S
C1476 C1474 1.391 . S
C1476 C1477 1.400 . S
C1477 C1471 1.491 . S
C1477 C1476 1.400 . S
C1477 C1478 1.398 . S
C1478 H1466 0.950 . S
C1478 C1477 1.398 . S
C1478 C1479 1.391 . S
C1479 H1467 0.950 . S
C1479 C1475 1.393 . S
C1479 C1478 1.391 . S
H1480 C1488 0.950 . S
H1481 C1493 0.950 . S
H1482 C1490 0.950 . S
H1483 C1492 0.950 . S
H1484 C1494 0.950 . S
H1485 C1496 0.950 . S
H1486 C1498 0.950 . S
H1487 C1499 0.950 . S
C1488 H1480 0.950 . S
C1488 C1489 1.386 . S
C1488 C1490 1.391 . S
C1489 C1488 1.386 . S
C1489 C1493 1.393 . S
C1490 H1482 0.950 . S
C1490 C1488 1.391 . S
C1490 C1491 1.400 . S
C1491 C1490 1.400 . S
C1491 C1492 1.398 . S
C1491 C1497 1.491 . S
C1492 H1483 0.950 . S
C1492 C1491 1.398 . S
C1492 C1493 1.391 . S
C1493 H1481 0.950 . S
C1493 C1489 1.393 . S
C1493 C1492 1.391 . S
C1494 H1484 0.950 . S
C1494 C1495 1.386 . S
C1494 C1496 1.391 . S
C1495 C1494 1.386 . S
C1495 C1499 1.393 . S
C1496 H1485 0.950 . S
C1496 C1494 1.391 . S
C1496 C1497 1.400 . S
C1497 C1491 1.491 . S
C1497 C1496 1.400 . S
C1497 C1498 1.398 . S
C1498 H1486 0.950 . S
C1498 C1497 1.398 . S
C1498 C1499 1.391 . S
C1499 H1487 0.950 . S
C1499 C1495 1.393 . S
C1499 C1498 1.391 . S
H1500 C1508 0.950 . S
H1501 C1513 0.950 . S
H1502 C1510 0.950 . S
H1503 C1512 0.950 . S
H1504 C1514 0.950 . S
H1505 C1516 0.950 . S
H1506 C1518 0.950 . S
H1507 C1519 0.950 . S
C1508 H1500 0.950 . S
C1508 C1509 1.386 . S
C1508 C1510 1.391 . S
C1509 C1508 1.386 . S
C1509 C1513 1.393 . S
C1510 H1502 0.950 . S
C1510 C1508 1.391 . S
C1510 C1511 1.400 . S
C1511 C1510 1.400 . S
C1511 C1512 1.398 . S
C1511 C1517 1.491 . S
C1512 H1503 0.950 . S
C1512 C1511 1.398 . S
C1512 C1513 1.391 . S
C1513 H1501 0.950 . S
C1513 C1509 1.393 . S
C1513 C1512 1.391 . S
C1514 H1504 0.950 . S
C1514 C1515 1.386 . S
C1514 C1516 1.391 . S
C1515 C1514 1.386 . S
C1515 C1519 1.393 . S
C1516 H1505 0.950 . S
C1516 C1514 1.391 . S
C1516 C1517 1.400 . S
C1517 C1511 1.491 . S
C1517 C1516 1.400 . S
C1517 C1518 1.398 . S
C1518 H1506 0.950 . S
C1518 C1517 1.398 . S
C1518 C1519 1.391 . S
C1519 H1507 0.950 . S
C1519 C1515 1.393 . S
C1519 C1518 1.391 . S
H1520 C1528 0.950 . S
H1521 C1533 0.950 . S
H1522 C1530 0.950 . S
H1523 C1532 0.950 . S
H1524 C1534 0.950 . S
H1525 C1536 0.950 . S
H1526 C1538 0.950 . S
H1527 C1539 0.950 . S
C1528 H1520 0.950 . S
C1528 C1529 1.386 . S
C1528 C1530 1.391 . S
C1529 C1528 1.386 . S
C1529 C1533 1.393 . S
C1530 H1522 0.950 . S
C1530 C1528 1.391 . S
C1530 C1531 1.400 . S
C1531 C1530 1.400 . S
C1531 C1532 1.398 . S
C1531 C1537 1.491 . S
C1532 H1523 0.950 . S
C1532 C1531 1.398 . S
C1532 C1533 1.391 . S
C1533 H1521 0.950 . S
C1533 C1529 1.393 . S
C1533 C1532 1.391 . S
C1534 H1524 0.950 . S
C1534 C1535 1.386 . S
C1534 C1536 1.391 . S
C1535 C1534 1.386 . S
C1535 C1539 1.393 . S
C1536 H1525 0.950 . S
C1536 C1534 1.391 . S
C1536 C1537 1.400 . S
C1537 C1531 1.491 . S
C1537 C1536 1.400 . S
C1537 C1538 1.398 . S
C1538 H1526 0.950 . S
C1538 C1537 1.398 . S
C1538 C1539 1.391 . S
C1539 H1527 0.950 . S
C1539 C1535 1.393 . S
C1539 C1538 1.391 . S
H1540 C1548 0.950 . S
H1541 C1553 0.950 . S
H1542 C1550 0.950 . S
H1543 C1552 0.950 . S
H1544 C1554 0.950 . S
H1545 C1556 0.950 . S
H1546 C1558 0.950 . S
H1547 C1559 0.950 . S
C1548 H1540 0.950 . S
C1548 C1549 1.386 . S
C1548 C1550 1.391 . S
C1549 C1548 1.386 . S
C1549 C1553 1.393 . S
C1550 H1542 0.950 . S
C1550 C1548 1.391 . S
C1550 C1551 1.400 . S
C1551 C1550 1.400 . S
C1551 C1552 1.398 . S
C1551 C1557 1.491 . S
C1552 H1543 0.950 . S
C1552 C1551 1.398 . S
C1552 C1553 1.391 . S
C1553 H1541 0.950 . S
C1553 C1549 1.393 . S
C1553 C1552 1.391 . S
C1554 H1544 0.950 . S
C1554 C1555 1.386 . S
C1554 C1556 1.391 . S
C1555 C1554 1.386 . S
C1555 C1559 1.393 . S
C1556 H1545 0.950 . S
C1556 C1554 1.391 . S
C1556 C1557 1.400 . S
C1557 C1551 1.491 . S
C1557 C1556 1.400 . S
C1557 C1558 1.398 . S
C1558 H1546 0.950 . S
C1558 C1557 1.398 . S
C1558 C1559 1.391 . S
C1559 H1547 0.950 . S
C1559 C1555 1.393 . S
C1559 C1558 1.391 . S
H1560 C1568 0.950 . S
H1561 C1573 0.950 . S
H1562 C1570 0.950 . S
H1563 C1572 0.950 . S
H1564 C1574 0.950 . S
H1565 C1576 0.950 . S
H1566 C1578 0.950 . S
H1567 C1579 0.950 . S
C1568 H1560 0.950 . S
C1568 C1569 1.386 . S
C1568 C1570 1.391 . S
C1569 C1568 1.386 . S
C1569 C1573 1.393 . S
C1570 H1562 0.950 . S
C1570 C1568 1.391 . S
C1570 C1571 1.400 . S
C1571 C1570 1.400 . S
C1571 C1572 1.398 . S
C1571 C1577 1.491 . S
C1572 H1563 0.950 . S
C1572 C1571 1.398 . S
C1572 C1573 1.391 . S
C1573 H1561 0.950 . S
C1573 C1569 1.393 . S
C1573 C1572 1.391 . S
C1574 H1564 0.950 . S
C1574 C1575 1.386 . S
C1574 C1576 1.391 . S
C1575 C1574 1.386 . S
C1575 C1579 1.393 . S
C1576 H1565 0.950 . S
C1576 C1574 1.391 . S
C1576 C1577 1.400 . S
C1577 C1571 1.491 . S
C1577 C1576 1.400 . S
C1577 C1578 1.398 . S
C1578 H1566 0.950 . S
C1578 C1577 1.398 . S
C1578 C1579 1.391 . S
C1579 H1567 0.950 . S
C1579 C1575 1.393 . S
C1579 C1578 1.391 . S
H1580 C1588 0.950 . S
H1581 C1593 0.950 . S
H1582 C1590 0.950 . S
H1583 C1592 0.950 . S
H1584 C1594 0.950 . S
H1585 C1596 0.950 . S
H1586 C1598 0.950 . S
H1587 C1599 0.950 . S
C1588 H1580 0.950 . S
C1588 C1589 1.386 . S
C1588 C1590 1.391 . S
C1589 C1588 1.386 . S
C1589 C1593 1.393 . S
C1590 H1582 0.950 . S
C1590 C1588 1.391 . S
C1590 C1591 1.400 . S
C1591 C1590 1.400 . S
C1591 C1592 1.398 . S
C1591 C1597 1.491 . S
C1592 H1583 0.950 . S
C1592 C1591 1.398 . S
C1592 C1593 1.391 . S
C1593 H1581 0.950 . S
C1593 C1589 1.393 . S
C1593 C1592 1.391 . S
C1594 H1584 0.950 . S
C1594 C1595 1.386 . S
C1594 C1596 1.391 . S
C1595 C1594 1.386 . S
C1595 C1599 1.393 . S
C1596 H1585 0.950 . S
C1596 C1594 1.391 . S
C1596 C1597 1.400 . S
C1597 C1591 1.491 . S
C1597 C1596 1.400 . S
C1597 C1598 1.398 . S
C1598 H1586 0.950 . S
C1598 C1597 1.398 . S
C1598 C1599 1.391 . S
C1599 H1587 0.950 . S
C1599 C1595 1.393 . S
C1599 C1598 1.391 . S
H1600 C1608 0.950 . S
H1601 C1613 0.950 . S
H1602 C1610 0.950 . S
H1603 C1612 0.950 . S
H1604 C1614 0.950 . S
H1605 C1616 0.950 . S
H1606 C1618 0.950 . S
H1607 C1619 0.950 . S
C1608 H1600 0.950 . S
C1608 C1609 1.386 . S
C1608 C1610 1.391 . S
C1609 C1608 1.386 . S
C1609 C1613 1.393 . S
C1610 H1602 0.950 . S
C1610 C1608 1.391 . S
C1610 C1611 1.400 . S
C1611 C1610 1.400 . S
C1611 C1612 1.398 . S
C1611 C1617 1.491 . S
C1612 H1603 0.950 . S
C1612 C1611 1.398 . S
C1612 C1613 1.391 . S
C1613 H1601 0.950 . S
C1613 C1609 1.393 . S
C1613 C1612 1.391 . S
C1614 H1604 0.950 . S
C1614 C1615 1.386 . S
C1614 C1616 1.391 . S
C1615 C1614 1.386 . S
C1615 C1619 1.393 . S
C1616 H1605 0.950 . S
C1616 C1614 1.391 . S
C1616 C1617 1.400 . S
C1617 C1611 1.491 . S
C1617 C1616 1.400 . S
C1617 C1618 1.398 . S
C1618 H1606 0.950 . S
C1618 C1617 1.398 . S
C1618 C1619 1.391 . S
C1619 H1607 0.950 . S
C1619 C1615 1.393 . S
C1619 C1618 1.391 . S
H1620 C1628 0.950 . S
H1621 C1633 0.950 . S
H1622 C1630 0.950 . S
H1623 C1632 0.950 . S
H1624 C1634 0.950 . S
H1625 C1636 0.950 . S
H1626 C1638 0.950 . S
H1627 C1639 0.950 . S
C1628 H1620 0.950 . S
C1628 C1629 1.386 . S
C1628 C1630 1.391 . S
C1629 C1628 1.386 . S
C1629 C1633 1.393 . S
C1630 H1622 0.950 . S
C1630 C1628 1.391 . S
C1630 C1631 1.400 . S
C1631 C1630 1.400 . S
C1631 C1632 1.398 . S
C1631 C1637 1.491 . S
C1632 H1623 0.950 . S
C1632 C1631 1.398 . S
C1632 C1633 1.391 . S
C1633 H1621 0.950 . S
C1633 C1629 1.393 . S
C1633 C1632 1.391 . S
C1634 H1624 0.950 . S
C1634 C1635 1.386 . S
C1634 C1636 1.391 . S
C1635 C1634 1.386 . S
C1635 C1639 1.393 . S
C1636 H1625 0.950 . S
C1636 C1634 1.391 . S
C1636 C1637 1.400 . S
C1637 C1631 1.491 . S
C1637 C1636 1.400 . S
C1637 C1638 1.398 . S
C1638 H1626 0.950 . S
C1638 C1637 1.398 . S
C1638 C1639 1.391 . S
C1639 H1627 0.950 . S
C1639 C1635 1.393 . S
C1639 C1638 1.391 . S
H1640 C1648 0.950 . S
H1641 C1653 0.950 . S
H1642 C1650 0.950 . S
H1643 C1652 0.950 . S
H1644 C1654 0.950 . S
H1645 C1656 0.950 . S
H1646 C1658 0.950 . S
H1647 C1659 0.950 . S
C1648 H1640 0.950 . S
C1648 C1649 1.386 . S
C1648 C1650 1.391 . S
C1649 C1648 1.386 . S
C1649 C1653 1.393 . S
C1650 H1642 0.950 . S
C1650 C1648 1.391 . S
C1650 C1651 1.400 . S
C1651 C1650 1.400 . S
C1651 C1652 1.398 . S
C1651 C1657 1.491 . S
C1652 H1643 0.950 . S
C1652 C1651 1.398 . S
C1652 C1653 1.391 . S
C1653 H1641 0.950 . S
C1653 C1649 1.393 . S
C1653 C1652 1.391 . S
C1654 H1644 0.950 . S
C1654 C1655 1.386 . S
C1654 C1656 1.391 . S
C1655 C1654 1.386 . S
C1655 C1659 1.393 . S
C1656 H1645 0.950 . S
C1656 C1654 1.391 . S
C1656 C1657 1.400 . S
C1657 C1651 1.491 . S
C1657 C1656 1.400 . S
C1657 C1658 1.398 . S
C1658 H1646 0.950 . S
C1658 C1657 1.398 . S
C1658 C1659 1.391 . S
C1659 H1647 0.950 . S
C1659 C1655 1.393 . S
C1659 C1658 1.391 . S
H1660 C1668 0.950 . S
H1661 C1673 0.950 . S
H1662 C1670 0.950 . S
H1663 C1672 0.950 . S
H1664 C1674 0.950 . S
H1665 C1676 0.950 . S
H1666 C1678 0.950 . S
H1667 C1679 0.950 . S
C1668 H1660 0.950 . S
C1668 C1669 1.386 . S
C1668 C1670 1.391 . S
C1669 C1668 1.386 . S
C1669 C1673 1.393 . S
C1670 H1662 0.950 . S
C1670 C1668 1.391 . S
C1670 C1671 1.400 . S
C1671 C1670 1.400 . S
C1671 C1672 1.398 . S
C1671 C1677 1.491 . S
C1672 H1663 0.950 . S
C1672 C1671 1.398 . S
C1672 C1673 1.391 . S
C1673 H1661 0.950 . S
C1673 C1669 1.393 . S
C1673 C1672 1.391 . S
C1674 H1664 0.950 . S
C1674 C1675 1.386 . S
C1674 C1676 1.391 . S
C1675 C1674 1.386 . S
C1675 C1679 1.393 . S
C1676 H1665 0.950 . S
C1676 C1674 1.391 . S
C1676 C1677 1.400 . S
C1677 C1671 1.491 . S
C1677 C1676 1.400 . S
C1677 C1678 1.398 . S
C1678 H1666 0.950 . S
C1678 C1677 1.398 . S
C1678 C1679 1.391 . S
C1679 H1667 0.950 . S
C1679 C1675 1.393 . S
C1679 C1678 1.391 . S
H1680 C1688 0.950 . S
H1681 C1693 0.950 . S
H1682 C1690 0.950 . S
H1683 C1692 0.950 . S
H1684 C1694 0.950 . S
H1685 C1696 0.950 . S
H1686 C1698 0.950 . S
H1687 C1699 0.950 . S
C1688 H1680 0.950 . S
C1688 C1689 1.386 . S
C1688 C1690 1.391 . S
C1689 C1688 1.386 . S
C1689 C1693 1.393 . S
C1690 H1682 0.950 . S
C1690 C1688 1.391 . S
C1690 C1691 1.400 . S
C1691 C1690 1.400 . S
C1691 C1692 1.398 . S
C1691 C1697 1.491 . S
C1692 H1683 0.950 . S
C1692 C1691 1.398 . S
C1692 C1693 1.391 . S
C1693 H1681 0.950 . S
C1693 C1689 1.393 . S
C1693 C1692 1.391 . S
C1694 H1684 0.950 . S
C1694 C1695 1.386 . S
C1694 C1696 1.391 . S
C1695 C1694 1.386 . S
C1695 C1699 1.393 . S
C1696 H1685 0.950 . S
C1696 C1694 1.391 . S
C1696 C1697 1.400 . S
C1697 C1691 1.491 . S
C1697 C1696 1.400 . S
C1697 C1698 1.398 . S
C1698 H1686 0.950 . S
C1698 C1697 1.398 . S
C1698 C1699 1.391 . S
C1699 H1687 0.950 . S
C1699 C1695 1.393 . S
C1699 C1698 1.391 . S
H1700 C1708 0.950 . S
H1701 C1713 0.950 . S
H1702 C1710 0.950 . S
H1703 C1712 0.950 . S
H1704 C1714 0.950 . S
H1705 C1716 0.950 . S
H1706 C1718 0.950 . S
H1707 C1719 0.950 . S
C1708 H1700 0.950 . S
C1708 C1709 1.386 . S
C1708 C1710 1.391 . S
C1709 C1708 1.386 . S
C1709 C1713 1.393 . S
C1710 H1702 0.950 . S
C1710 C1708 1.391 . S
C1710 C1711 1.400 . S
C1711 C1710 1.400 . S
C1711 C1712 1.398 . S
C1711 C1717 1.491 . S
C1712 H1703 0.950 . S
C1712 C1711 1.398 . S
C1712 C1713 1.391 . S
C1713 H1701 0.950 . S
C1713 C1709 1.393 . S
C1713 C1712 1.391 . S
C1714 H1704 0.950 . S
C1714 C1715 1.386 . S
C1714 C1716 1.391 . S
C1715 C1714 1.386 . S
C1715 C1719 1.393 . S
C1716 H1705 0.950 . S
C1716 C1714 1.391 . S
C1716 C1717 1.400 . S
C1717 C1711 1.491 . S
C1717 C1716 1.400 . S
C1717 C1718 1.398 . S
C1718 H1706 0.950 . S
C1718 C1717 1.398 . S
C1718 C1719 1.391 . S
C1719 H1707 0.950 . S
C1719 C1715 1.393 . S
C1719 C1718 1.391 . S
H1720 C1728 0.950 . S
H1721 C1733 0.950 . S
H1722 C1730 0.950 . S
H1723 C1732 0.950 . S
H1724 C1734 0.950 . S
H1725 C1736 0.950 . S
H1726 C1738 0.950 . S
H1727 C1739 0.950 . S
C1728 H1720 0.950 . S
C1728 C1729 1.386 . S
C1728 C1730 1.391 . S
C1729 C1728 1.386 . S
C1729 C1733 1.393 . S
C1730 H1722 0.950 . S
C1730 C1728 1.391 . S
C1730 C1731 1.400 . S
C1731 C1730 1.400 . S
C1731 C1732 1.398 . S
C1731 C1737 1.491 . S
C1732 H1723 0.950 . S
C1732 C1731 1.398 . S
C1732 C1733 1.391 . S
C1733 H1721 0.950 . S
C1733 C1729 1.393 . S
C1733 C1732 1.391 . S
C1734 H1724 0.950 . S
C1734 C1735 1.386 . S
C1734 C1736 1.391 . S
C1735 C1734 1.386 . S
C1735 C1739 1.393 . S
C1736 H1725 0.950 . S
C1736 C1734 1.391 . S
C1736 C1737 1.400 . S
C1737 C1731 1.491 . S
C1737 C1736 1.400 . S
C1737 C1738 1.398 . S
C1738 H1726 0.950 . S
C1738 C1737 1.398 . S
C1738 C1739 1.391 . S
C1739 H1727 0.950 . S
C1739 C1735 1.393 . S
C1739 C1738 1.391 . S
H1740 C1748 0.950 . S
H1741 C1753 0.950 . S
H1742 C1750 0.950 . S
H1743 C1752 0.950 . S
H1744 C1754 0.950 . S
H1745 C1756 0.950 . S
H1746 C1758 0.950 . S
H1747 C1759 0.950 . S
C1748 H1740 0.950 . S
C1748 C1749 1.386 . S
C1748 C1750 1.391 . S
C1749 C1748 1.386 . S
C1749 C1753 1.393 . S
C1750 H1742 0.950 . S
C1750 C1748 1.391 . S
C1750 C1751 1.400 . S
C1751 C1750 1.400 . S
C1751 C1752 1.398 . S
C1751 C1757 1.491 . S
C1752 H1743 0.950 . S
C1752 C1751 1.398 . S
C1752 C1753 1.391 . S
C1753 H1741 0.950 . S
C1753 C1749 1.393 . S
C1753 C1752 1.391 . S
C1754 H1744 0.950 . S
C1754 C1755 1.386 . S
C1754 C1756 1.391 . S
C1755 C1754 1.386 . S
C1755 C1759 1.393 . S
C1756 H1745 0.950 . S
C1756 C1754 1.391 . S
C1756 C1757 1.400 . S
C1757 C1751 1.491 . S
C1757 C1756 1.400 . S
C1757 C1758 1.398 . S
C1758 H1746 0.950 . S
C1758 C1757 1.398 . S
C1758 C1759 1.391 . S
C1759 H1747 0.950 . S
C1759 C1755 1.393 . S
C1759 C1758 1.391 . S
H1760 C1768 0.950 . S
H1761 C1773 0.950 . S
H1762 C1770 0.950 . S
H1763 C1772 0.950 . S
H1764 C1774 0.950 . S
H1765 C1776 0.950 . S
H1766 C1778 0.950 . S
H1767 C1779 0.950 . S
C1768 H1760 0.950 . S
C1768 C1769 1.386 . S
C1768 C1770 1.391 . S
C1769 C1768 1.386 . S
C1769 C1773 1.393 . S
C1770 H1762 0.950 . S
C1770 C1768 1.391 . S
C1770 C1771 1.400 . S
C1771 C1770 1.400 . S
C1771 C1772 1.398 . S
C1771 C1777 1.491 . S
C1772 H1763 0.950 . S
C1772 C1771 1.398 . S
C1772 C1773 1.391 . S
C1773 H1761 0.950 . S
C1773 C1769 1.393 . S
C1773 C1772 1.391 . S
C1774 H1764 0.950 . S
C1774 C1775 1.386 . S
C1774 C1776 1.391 . S
C1775 C1774 1.386 . S
C1775 C1779 1.393 . S
C1776 H1765 0.950 . S
C1776 C1774 1.391 . S
C1776 C1777 1.400 . S
C1777 C1771 1.491 . S
C1777 C1776 1.400 . S
C1777 C1778 1.398 . S
C1778 H1766 0.950 . S
C1778 C1777 1.398 . S
C1778 C1779 1.391 . S
C1779 H1767 0.950 . S
C1779 C1775 1.393 . S
C1779 C1778 1.391 . S
H1780 C1788 0.950 . S
H1781 C1793 0.950 . S
H1782 C1790 0.950 . S
H1783 C1792 0.950 . S
H1784 C1794 0.950 . S
H1785 C1796 0.950 . S
H1786 C1798 0.950 . S
H1787 C1799 0.950 . S
C1788 H1780 0.950 . S
C1788 C1789 1.386 . S
C1788 C1790 1.391 . S
C1789 C1788 1.386 . S
C1789 C1793 1.393 . S
C1790 H1782 0.950 . S
C1790 C1788 1.391 . S
C1790 C1791 1.400 . S
C1791 C1790 1.400 . S
C1791 C1792 1.398 . S
C1791 C1797 1.491 . S
C1792 H1783 0.950 . S
C1792 C1791 1.398 . S
C1792 C1793 1.391 . S
C1793 H1781 0.950 . S
C1793 C1789 1.393 . S
C1793 C1792 1.391 . S
C1794 H1784 0.950 . S
C1794 C1795 1.386 . S
C1794 C1796 1.391 . S
C1795 C1794 1.386 . S
C1795 C1799 1.393 . S
C1796 H1785 0.950 . S
C1796 C1794 1.391 . S
C1796 C1797 1.400 . S
C1797 C1791 1.491 . S
C1797 C1796 1.400 . S
C1797 C1798 1.398 . S
C1798 H1786 0.950 . S
C1798 C1797 1.398 . S
C1798 C1799 1.391 . S
C1799 H1787 0.950 . S
C1799 C1795 1.393 . S
C1799 C1798 1.391 . S
H1800 C1808 0.950 . S
H1801 C1813 0.950 . S
H1802 C1810 0.950 . S
H1803 C1812 0.950 . S
H1804 C1814 0.950 . S
H1805 C1816 0.950 . S
H1806 C1818 0.950 . S
H1807 C1819 0.950 . S
C1808 H1800 0.950 . S
C1808 C1809 1.386 . S
C1808 C1810 1.391 . S
C1809 C1808 1.386 . S
C1809 C1813 1.393 . S
C1810 H1802 0.950 . S
C1810 C1808 1.391 . S
C1810 C1811 1.400 . S
C1811 C1810 1.400 . S
C1811 C1812 1.398 . S
C1811 C1817 1.491 . S
C1812 H1803 0.950 . S
C1812 C1811 1.398 . S
C1812 C1813 1.391 . S
C1813 H1801 0.950 . S
C1813 C1809 1.393 . S
C1813 C1812 1.391 . S
C1814 H1804 0.950 . S
C1814 C1815 1.386 . S
C1814 C1816 1.391 . S
C1815 C1814 1.386 . S
C1815 C1819 1.393 . S
C1816 H1805 0.950 . S
C1816 C1814 1.391 . S
C1816 C1817 1.400 . S
C1817 C1811 1.491 . S
C1817 C1816 1.400 . S
C1817 C1818 1.398 . S
C1818 H1806 0.950 . S
C1818 C1817 1.398 . S
C1818 C1819 1.391 . S
C1819 H1807 0.950 . S
C1819 C1815 1.393 . S
C1819 C1818 1.391 . S
H1820 C1828 0.950 . S
H1821 C1833 0.950 . S
H1822 C1830 0.950 . S
H1823 C1832 0.950 . S
H1824 C1834 0.950 . S
H1825 C1836 0.950 . S
H1826 C1838 0.950 . S
H1827 C1839 0.950 . S
C1828 H1820 0.950 . S
C1828 C1829 1.386 . S
C1828 C1830 1.391 . S
C1829 C1828 1.386 . S
C1829 C1833 1.393 . S
C1830 H1822 0.950 . S
C1830 C1828 1.391 . S
C1830 C1831 1.400 . S
C1831 C1830 1.400 . S
C1831 C1832 1.398 . S
C1831 C1837 1.491 . S
C1832 H1823 0.950 . S
C1832 C1831 1.398 . S
C1832 C1833 1.391 . S
C1833 H1821 0.950 . S
C1833 C1829 1.393 . S
C1833 C1832 1.391 . S
C1834 H1824 0.950 . S
C1834 C1835 1.386 . S
C1834 C1836 1.391 . S
C1835 C1834 1.386 . S
C1835 C1839 1.393 . S
C1836 H1825 0.950 . S
C1836 C1834 1.391 . S
C1836 C1837 1.400 . S
C1837 C1831 1.491 . S
C1837 C1836 1.400 . S
C1837 C1838 1.398 . S
C1838 H1826 0.950 . S
C1838 C1837 1.398 . S
C1838 C1839 1.391 . S
C1839 H1827 0.950 . S
C1839 C1835 1.393 . S
C1839 C1838 1.391 . S
H1840 C1848 0.950 . S
H1841 C1853 0.950 . S
H1842 C1850 0.950 . S
H1843 C1852 0.950 . S
H1844 C1854 0.950 . S
H1845 C1856 0.950 . S
H1846 C1858 0.950 . S
H1847 C1859 0.950 . S
C1848 H1840 0.950 . S
C1848 C1849 1.386 . S
C1848 C1850 1.391 . S
C1849 C1848 1.386 . S
C1849 C1853 1.393 . S
C1850 H1842 0.950 . S
C1850 C1848 1.391 . S
C1850 C1851 1.400 . S
C1851 C1850 1.400 . S
C1851 C1852 1.398 . S
C1851 C1857 1.491 . S
C1852 H1843 0.950 . S
C1852 C1851 1.398 . S
C1852 C1853 1.391 . S
C1853 H1841 0.950 . S
C1853 C1849 1.393 . S
C1853 C1852 1.391 . S
C1854 H1844 0.950 . S
C1854 C1855 1.386 . S
C1854 C1856 1.391 . S
C1855 C1854 1.386 . S
C1855 C1859 1.393 . S
C1856 H1845 0.950 . S
C1856 C1854 1.391 . S
C1856 C1857 1.400 . S
C1857 C1851 1.491 . S
C1857 C1856 1.400 . S
C1857 C1858 1.398 . S
C1858 H1846 0.950 . S
C1858 C1857 1.398 . S
C1858 C1859 1.391 . S
C1859 H1847 0.950 . S
C1859 C1855 1.393 . S
C1859 C1858 1.391 . S
H1860 C1868 0.950 . S
H1861 C1873 0.950 . S
H1862 C1870 0.950 . S
H1863 C1872 0.950 . S
H1864 C1874 0.950 . S
H1865 C1876 0.950 . S
H1866 C1878 0.950 . S
H1867 C1879 0.950 . S
C1868 H1860 0.950 . S
C1868 C1869 1.386 . S
C1868 C1870 1.391 . S
C1869 C1868 1.386 . S
C1869 C1873 1.393 . S
C1870 H1862 0.950 . S
C1870 C1868 1.391 . S
C1870 C1871 1.400 . S
C1871 C1870 1.400 . S
C1871 C1872 1.398 . S
C1871 C1877 1.491 . S
C1872 H1863 0.950 . S
C1872 C1871 1.398 . S
C1872 C1873 1.391 . S
C1873 H1861 0.950 . S
C1873 C1869 1.393 . S
C1873 C1872 1.391 . S
C1874 H1864 0.950 . S
C1874 C1875 1.386 . S
C1874 C1876 1.391 . S
C1875 C1874 1.386 . S
C1875 C1879 1.393 . S
C1876 H1865 0.950 . S
C1876 C1874 1.391 . S
C1876 C1877 1.400 . S
C1877 C1871 1.491 . S
C1877 C1876 1.400 . S
C1877 C1878 1.398 . S
C1878 H1866 0.950 . S
C1878 C1877 1.398 . S
C1878 C1879 1.391 . S
C1879 H1867 0.950 . S
C1879 C1875 1.393 . S
C1879 C1878 1.391 . S
H1880 C1888 0.950 . S
H1881 C1893 0.950 . S
H1882 C1890 0.950 . S
H1883 C1892 0.950 . S
H1884 C1894 0.950 . S
H1885 C1896 0.950 . S
H1886 C1898 0.950 . S
H1887 C1899 0.950 . S
C1888 H1880 0.950 . S
C1888 C1889 1.386 . S
C1888 C1890 1.391 . S
C1889 C1888 1.386 . S
C1889 C1893 1.393 . S
C1890 H1882 0.950 . S
C1890 C1888 1.391 . S
C1890 C1891 1.400 . S
C1891 C1890 1.400 . S
C1891 C1892 1.398 . S
C1891 C1897 1.491 . S
C1892 H1883 0.950 . S
C1892 C1891 1.398 . S
C1892 C1893 1.391 . S
C1893 H1881 0.950 . S
C1893 C1889 1.393 . S
C1893 C1892 1.391 . S
C1894 H1884 0.950 . S
C1894 C1895 1.386 . S
C1894 C1896 1.391 . S
C1895 C1894 1.386 . S
C1895 C1899 1.393 . S
C1896 H1885 0.950 . S
C1896 C1894 1.391 . S
C1896 C1897 1.400 . S
C1897 C1891 1.491 . S
C1897 C1896 1.400 . S
C1897 C1898 1.398 . S
C1898 H1886 0.950 . S
C1898 C1897 1.398 . S
C1898 C1899 1.391 . S
C1899 H1887 0.950 . S
C1899 C1895 1.393 . S
C1899 C1898 1.391 . S
H1900 C1908 0.950 . S
H1901 C1913 0.950 . S
H1902 C1910 0.950 . S
H1903 C1912 0.950 . S
H1904 C1914 0.950 . S
H1905 C1916 0.950 . S
H1906 C1918 0.950 . S
H1907 C1919 0.950 . S
C1908 H1900 0.950 . S
C1908 C1909 1.386 . S
C1908 C1910 1.391 . S
C1909 C1908 1.386 . S
C1909 C1913 1.393 . S
C1910 H1902 0.950 . S
C1910 C1908 1.391 . S
C1910 C1911 1.400 . S
C1911 C1910 1.400 . S
C1911 C1912 1.398 . S
C1911 C1917 1.491 . S
C1912 H1903 0.950 . S
C1912 C1911 1.398 . S
C1912 C1913 1.391 . S
C1913 H1901 0.950 . S
C1913 C1909 1.393 . S
C1913 C1912 1.391 . S
C1914 H1904 0.950 . S
C1914 C1915 1.386 . S
C1914 C1916 1.391 . S
C1915 C1914 1.386 . S
C1915 C1919 1.393 . S
C1916 H1905 0.950 . S
C1916 C1914 1.391 . S
C1916 C1917 1.400 . S
C1917 C1911 1.491 . S
C1917 C1916 1.400 . S
C1917 C1918 1.398 . S
C1918 H1906 0.950 . S
C1918 C1917 1.398 . S
C1918 C1919 1.391 . S
C1919 H1907 0.950 . S
C1919 C1915 1.393 . S
C1919 C1918 1.391 . S
H1920 C1928 0.950 . S
H1921 C1933 0.950 . S
H1922 C1930 0.950 . S
H1923 C1932 0.950 . S
H1924 C1934 0.950 . S
H1925 C1936 0.950 . S
H1926 C1938 0.950 . S
H1927 C1939 0.950 . S
C1928 H1920 0.950 . S
C1928 C1929 1.386 . S
C1928 C1930 1.391 . S
C1929 C1928 1.386 . S
C1929 C1933 1.393 . S
C1930 H1922 0.950 . S
C1930 C1928 1.391 . S
C1930 C1931 1.400 . S
C1931 C1930 1.400 . S
C1931 C1932 1.398 . S
C1931 C1937 1.491 . S
C1932 H1923 0.950 . S
C1932 C1931 1.398 . S
C1932 C1933 1.391 . S
C1933 H1921 0.950 . S
C1933 C1929 1.393 . S
C1933 C1932 1.391 . S
C1934 H1924 0.950 . S
C1934 C1935 1.386 . S
C1934 C1936 1.391 . S
C1935 C1934 1.386 . S
C1935 C1939 1.393 . S
C1936 H1925 0.950 . S
C1936 C1934 1.391 . S
C1936 C1937 1.400 . S
C1937 C1931 1.491 . S
C1937 C1936 1.400 . S
C1937 C1938 1.398 . S
C1938 H1926 0.950 . S
C1938 C1937 1.398 . S
C1938 C1939 1.391 . S
C1939 H1927 0.950 . S
C1939 C1935 1.393 . S
C1939 C1938 1.391 . S
H1940 C1948 0.950 . S
H1941 C1953 0.950 . S
H1942 C1950 0.950 . S
H1943 C1952 0.950 . S
H1944 C1954 0.950 . S
H1945 C1956 0.950 . S
H1946 C1958 0.950 . S
H1947 C1959 0.950 . S
C1948 H1940 0.950 . S
C1948 C1949 1.386 . S
C1948 C1950 1.391 . S
C1949 C1948 1.386 . S
C1949 C1953 1.393 . S
C1950 H1942 0.950 . S
C1950 C1948 1.391 . S
C1950 C1951 1.400 . S
C1951 C1950 1.400 . S
C1951 C1952 1.398 . S
C1951 C1957 1.491 . S
C1952 H1943 0.950 . S
C1952 C1951 1.398 . S
C1952 C1953 1.391 . S
C1953 H1941 0.950 . S
C1953 C1949 1.393 . S
C1953 C1952 1.391 . S
C1954 H1944 0.950 . S
C1954 C1955 1.386 . S
C1954 C1956 1.391 . S
C1955 C1954 1.386 . S
C1955 C1959 1.393 . S
C1956 H1945 0.950 . S
C1956 C1954 1.391 . S
C1956 C1957 1.400 . S
C1957 C1951 1.491 . S
C1957 C1956 1.400 . S
C1957 C1958 1.398 . S
C1958 H1946 0.950 . S
C1958 C1957 1.398 . S
C1958 C1959 1.391 . S
C1959 H1947 0.950 . S
C1959 C1955 1.393 . S
C1959 C1958 1.391 . S
H1960 C1968 0.950 . S
H1961 C1973 0.950 . S
H1962 C1970 0.950 . S
H1963 C1972 0.950 . S
H1964 C1974 0.950 . S
H1965 C1976 0.950 . S
H1966 C1978 0.950 . S
H1967 C1979 0.950 . S
C1968 H1960 0.950 . S
C1968 C1969 1.386 . S
C1968 C1970 1.391 . S
C1969 C1968 1.386 . S
C1969 C1973 1.393 . S
C1970 H1962 0.950 . S
C1970 C1968 1.391 . S
C1970 C1971 1.400 . S
C1971 C1970 1.400 . S
C1971 C1972 1.398 . S
C1971 C1977 1.491 . S
C1972 H1963 0.950 . S
C1972 C1971 1.398 . S
C1972 C1973 1.391 . S
C1973 H1961 0.950 . S
C1973 C1969 1.393 . S
C1973 C1972 1.391 . S
C1974 H1964 0.950 . S
C1974 C1975 1.386 . S
C1974 C1976 1.391 . S
C1975 C1974 1.386 . S
C1975 C1979 1.393 . S
C1976 H1965 0.950 . S
C1976 C1974 1.391 . S
C1976 C1977 1.400 . S
C1977 C1971 1.491 . S
C1977 C1976 1.400 . S
C1977 C1978 1.398 . S
C1978 H1966 0.950 . S
C1978 C1977 1.398 . S
C1978 C1979 1.391 . S
C1979 H1967 0.950 . S
C1979 C1975 1.393 . S
C1979 C1978 1.391 . S
H1980 C1988 0.950 . S
H1981 C1993 0.950 . S
H1982 C1990 0.950 . S
H1983 C1992 0.950 . S
H1984 C1994 0.950 . S
H1985 C1996 0.950 . S
H1986 C1998 0.950 . S
H1987 C1999 0.950 . S
C1988 H1980 0.950 . S
C1988 C1989 1.386 . S
C1988 C1990 1.391 . S
C1989 C1988 1.386 . S
C1989 C1993 1.393 . S
C1990 H1982 0.950 . S
C1990 C1988 1.391 . S
C1990 C1991 1.400 . S
C1991 C1990 1.400 . S
C1991 C1992 1.398 . S
C1991 C1997 1.491 . S
C1992 H1983 0.950 . S
C1992 C1991 1.398 . S
C1992 C1993 1.391 . S
C1993 H1981 0.950 . S
C1993 C1989 1.393 . S
C1993 C1992 1.391 . S
C1994 H1984 0.950 . S
C1994 C1995 1.386 . S
C1994 C1996 1.391 . S
C1995 C1994 1.386 . S
C1995 C1999 1.393 . S
C1996 H1985 0.950 . S
C1996 C1994 1.391 . S
C1996 C1997 1.400 . S
C1997 C1991 1.491 . S
C1997 C1996 1.400 . S
C1997 C1998 1.398 . S
C1998 H1986 0.950 . S
C1998 C1997 1.398 . S
C1998 C1999 1.391 . S
C1999 H1987 0.950 . S
C1999 C1995 1.393 . S
C1999 C1998 1.391 . S
H2000 C2008 0.950 . S
H2001 C2013 0.950 . S
H2002 C2010 0.950 . S
H2003 C2012 0.950 . S
H2004 C2014 0.950 . S
H2005 C2016 0.950 . S
H2006 C2018 0.950 . S
H2007 C2019 0.950 . S
C2008 H2000 0.950 . S
C2008 C2009 1.386 . S
C2008 C2010 1.391 . S
C2009 C2008 1.386 . S
C2009 C2013 1.393 . S
C2010 H2002 0.950 . S
C2010 C2008 1.391 . S
C2010 C2011 1.400 . S
C2011 C2010 1.400 . S
C2011 C2012 1.398 . S
C2011 C2017 1.491 . S
C2012 H2003 0.950 . S
C2012 C2011 1.398 . S
C2012 C2013 1.391 . S
C2013 H2001 0.950 . S
C2013 C2009 1.393 . S
C2013 C2012 1.391 . S
C2014 H2004 0.950 . S
C2014 C2015 1.386 . S
C2014 C2016 1.391 . S
C2015 C2014 1.386 . S
C2015 C2019 1.393 . S
C2016 H2005 0.950 . S
C2016 C2014 1.391 . S
C2016 C2017 1.400 . S
C2017 C2011 1.491 . S
C2017 C2016 1.400 . S
C2017 C2018 1.398 . S
C2018 H2006 0.950 . S
C2018 C2017 1.398 . S
C2018 C2019 1.391 . S
C2019 H2007 0.950 . S
C2019 C2015 1.393 . S
C2019 C2018 1.391 . S
H2020 C2028 0.950 . S
H2021 C2033 0.950 . S
H2022 C2030 0.950 . S
H2023 C2032 0.950 . S
H2024 C2034 0.950 . S
H2025 C2036 0.950 . S
H2026 C2038 0.950 . S
H2027 C2039 0.950 . S
C2028 H2020 0.950 . S
C2028 C2029 1.386 . S
C2028 C2030 1.391 . S
C2029 C2028 1.386 . S
C2029 C2033 1.393 . S
C2030 H2022 0.950 . S
C2030 C2028 1.391 . S
C2030 C2031 1.400 . S
C2031 C2030 1.400 . S
C2031 C2032 1.398 . S
C2031 C2037 1.491 . S
C2032 H2023 0.950 . S
C2032 C2031 1.398 . S
C2032 C2033 1.391 . S
C2033 H2021 0.950 . S
C2033 C2029 1.393 . S
C2033 C2032 1.391 . S
C2034 H2024 0.950 . S
C2034 C2035 1.386 . S
C2034 C2036 1.391 . S
C2035 C2034 1.386 . S
C2035 C2039 1.393 . S
C2036 H2025 0.950 . S
C2036 C2034 1.391 . S
C2036 C2037 1.400 . S
C2037 C2031 1.491 . S
C2037 C2036 1.400 . S
C2037 C2038 1.398 . S
C2038 H2026 0.950 . S
C2038 C2037 1.398 . S
C2038 C2039 1.391 . S
C2039 H2027 0.950 . S
C2039 C2035 1.393 . S
C2039 C2038 1.391 . S
H2040 C2048 0.955 . S
H2041 C2053 0.950 . S
H2042 C2050 0.950 . S
H2043 C2052 0.950 . S
H2044 C2054 0.955 . S
H2045 C2056 0.950 . S
H2046 C2058 0.950 . S
H2047 C2059 0.950 . S
C2048 H2040 0.955 . S
C2048 C2049 1.342 1_455 S
C2048 C2050 1.433 . S
C2049 C2048 1.342 1_655 S
C2049 C2053 1.393 . S
C2050 H2042 0.950 . S
C2050 C2048 1.433 . S
C2050 C2051 1.400 1_455 S
C2051 C2050 1.400 1_655 S
C2051 C2052 1.398 . S
C2051 C2057 1.491 1_655 S
C2052 H2043 0.950 . S
C2052 C2051 1.398 . S
C2052 C2053 1.391 . S
C2053 H2041 0.950 . S
C2053 C2049 1.393 . S
C2053 C2052 1.391 . S
C2054 H2044 0.955 . S
C2054 C2055 1.342 1_655 S
C2054 C2056 1.433 . S
C2055 C2054 1.342 1_455 S
C2055 C2059 1.393 . S
C2056 H2045 0.950 . S
C2056 C2054 1.433 . S
C2056 C2057 1.400 1_655 S
C2057 C2051 1.491 1_455 S
C2057 C2056 1.400 1_455 S
C2057 C2058 1.398 . S
C2058 H2046 0.950 . S
C2058 C2057 1.398 . S
C2058 C2059 1.391 . S
C2059 H2047 0.950 . S
C2059 C2055 1.393 . S
C2059 C2058 1.391 . S
H2060 C2068 0.950 . S
H2061 C2073 0.950 . S
H2062 C2070 0.950 . S
H2063 C2072 0.950 . S
H2064 C2074 0.950 . S
H2065 C2076 0.950 . S
H2066 C2078 0.950 . S
H2067 C2079 0.950 . S
C2068 H2060 0.950 . S
C2068 C2069 1.386 . S
C2068 C2070 1.391 . S
C2069 C2068 1.386 . S
C2069 C2073 1.393 . S
C2070 H2062 0.950 . S
C2070 C2068 1.391 . S
C2070 C2071 1.400 . S
C2071 C2070 1.400 . S
C2071 C2072 1.398 . S
C2071 C2077 1.491 . S
C2072 H2063 0.950 . S
C2072 C2071 1.398 . S
C2072 C2073 1.391 . S
C2073 H2061 0.950 . S
C2073 C2069 1.393 . S
C2073 C2072 1.391 . S
C2074 H2064 0.950 . S
C2074 C2075 1.386 . S
C2074 C2076 1.391 . S
C2075 C2074 1.386 . S
C2075 C2079 1.393 . S
C2076 H2065 0.950 . S
C2076 C2074 1.391 . S
C2076 C2077 1.400 . S
C2077 C2071 1.491 . S
C2077 C2076 1.400 . S
C2077 C2078 1.398 . S
C2078 H2066 0.950 . S
C2078 C2077 1.398 . S
C2078 C2079 1.391 . S
C2079 H2067 0.950 . S
C2079 C2075 1.393 . S
C2079 C2078 1.391 . S
H2080 C2088 0.950 . S
H2081 C2093 0.950 1_565 S
H2082 C2090 0.950 . S
H2083 C2092 0.950 . S
H2084 C2094 0.950 . S
H2085 C2096 0.950 . S
H2086 C2098 0.950 . S
H2087 C2099 0.950 1_545 S
C2088 H2080 0.950 . S
C2088 C2089 1.386 . S
C2088 C2090 1.391 . S
C2089 C2088 1.386 . S
C2089 C2093 1.393 . S
C2090 H2082 0.950 . S
C2090 C2088 1.391 . S
C2090 C2091 1.400 . S
C2091 C2090 1.400 . S
C2091 C2092 1.398 1_545 S
C2091 C2097 1.491 1_545 S
C2092 H2083 0.950 . S
C2092 C2091 1.398 1_565 S
C2092 C2093 1.391 1_565 S
C2093 H2081 0.950 1_545 S
C2093 C2089 1.393 . S
C2093 C2092 1.391 1_545 S
C2094 H2084 0.950 . S
C2094 C2095 1.386 . S
C2094 C2096 1.391 . S
C2095 C2094 1.386 . S
C2095 C2099 1.393 . S
C2096 H2085 0.950 . S
C2096 C2094 1.391 . S
C2096 C2097 1.400 . S
C2097 C2091 1.491 1_565 S
C2097 C2096 1.400 . S
C2097 C2098 1.398 1_565 S
C2098 H2086 0.950 . S
C2098 C2097 1.398 1_545 S
C2098 C2099 1.391 1_545 S
C2099 H2087 0.950 1_565 S
C2099 C2095 1.393 . S
C2099 C2098 1.391 1_565 S
H2100 C2108 0.950 1_545 S
H2101 C2113 0.950 . S
H2102 C2110 0.972 . S
H2103 C2112 0.950 . S
H2104 C2114 0.950 1_565 S
H2105 C2116 0.972 . S
H2106 C2118 0.950 . S
H2107 C2119 0.950 . S
C2108 H2100 0.950 1_565 S
C2108 C2109 1.386 . S
C2108 C2110 1.378 1_564 S
C2109 C2108 1.386 . S
C2109 C2113 1.393 . S
C2110 H2102 0.972 . S
C2110 C2108 1.378 1_546 S
C2110 C2111 1.393 1_546 S
C2111 C2110 1.393 1_564 S
C2111 C2112 1.398 . S
C2111 C2117 1.491 1_564 S
C2112 H2103 0.950 . S
C2112 C2111 1.398 . S
C2112 C2113 1.391 . S
C2113 H2101 0.950 . S
C2113 C2109 1.393 . S
C2113 C2112 1.391 . S
C2114 H2104 0.950 1_545 S
C2114 C2115 1.386 . S
C2114 C2116 1.378 1_546 S
C2115 C2114 1.386 . S
C2115 C2119 1.393 . S
C2116 H2105 0.972 . S
C2116 C2114 1.378 1_564 S
C2116 C2117 1.393 1_564 S
C2117 C2111 1.491 1_546 S
C2117 C2116 1.393 1_546 S
C2117 C2118 1.398 . S
C2118 H2106 0.950 . S
C2118 C2117 1.398 . S
C2118 C2119 1.391 . S
C2119 H2107 0.950 . S
C2119 C2115 1.393 . S
C2119 C2118 1.391 . S
H2120 C2128 0.990 . S
H2121 C2133 0.950 . S
H2122 C2130 0.950 . S
H2123 C2132 0.950 1_554 S
H2124 C2134 0.990 . S
H2125 C2136 0.950 . S
H2126 C2138 0.950 1_556 S
H2127 C2139 0.950 . S
C2128 H2120 0.990 . S
C2128 C2129 1.356 1_455 S
C2128 C2130 1.385 . S
C2129 C2128 1.356 1_655 S
C2129 C2133 1.393 . S
C2130 H2122 0.950 . S
C2130 C2128 1.385 . S
C2130 C2131 1.400 1_455 S
C2131 C2130 1.400 1_655 S
C2131 C2132 1.398 . S
C2131 C2137 1.491 1_656 S
C2132 H2123 0.950 1_556 S
C2132 C2131 1.398 . S
C2132 C2133 1.391 . S
C2133 H2121 0.950 . S
C2133 C2129 1.393 . S
C2133 C2132 1.391 . S
C2134 H2124 0.990 . S
C2134 C2135 1.356 1_655 S
C2134 C2136 1.385 . S
C2135 C2134 1.356 1_455 S
C2135 C2139 1.393 . S
C2136 H2125 0.950 . S
C2136 C2134 1.385 . S
C2136 C2137 1.400 1_655 S
C2137 C2131 1.491 1_454 S
C2137 C2136 1.400 1_455 S
C2137 C2138 1.398 . S
C2138 H2126 0.950 1_554 S
C2138 C2137 1.398 . S
C2138 C2139 1.391 . S
C2139 H2127 0.950 . S
C2139 C2135 1.393 . S
C2139 C2138 1.391 . S
H2140 C2148 0.950 . S
H2141 C2153 0.950 . S
H2142 C2150 0.950 . S
H2143 C2152 0.950 . S
H2144 C2154 0.950 . S
H2145 C2156 0.950 . S
H2146 C2158 0.950 . S
H2147 C2159 0.950 . S
C2148 H2140 0.950 . S
C2148 C2149 1.386 . S
C2148 C2150 1.391 . S
C2149 C2148 1.386 . S
C2149 C2153 1.393 . S
C2150 H2142 0.950 . S
C2150 C2148 1.391 . S
C2150 C2151 1.400 . S
C2151 C2150 1.400 . S
C2151 C2152 1.398 . S
C2151 C2157 1.491 1_554 S
C2152 H2143 0.950 . S
C2152 C2151 1.398 . S
C2152 C2153 1.391 . S
C2153 H2141 0.950 . S
C2153 C2149 1.393 . S
C2153 C2152 1.391 . S
C2154 H2144 0.950 . S
C2154 C2155 1.386 . S
C2154 C2156 1.391 . S
C2155 C2154 1.386 . S
C2155 C2159 1.393 . S
C2156 H2145 0.950 . S
C2156 C2154 1.391 . S
C2156 C2157 1.400 . S
C2157 C2151 1.491 1_556 S
C2157 C2156 1.400 . S
C2157 C2158 1.398 . S
C2158 H2146 0.950 . S
C2158 C2157 1.398 . S
C2158 C2159 1.391 . S
C2159 H2147 0.950 . S
C2159 C2155 1.393 . S
C2159 C2158 1.391 . S
H2160 C2168 0.950 . S
H2161 C2173 0.950 . S
H2162 C2170 0.950 . S
H2163 C2172 0.950 . S
H2164 C2174 0.950 . S
H2165 C2176 0.950 . S
H2166 C2178 0.950 . S
H2167 C2179 0.950 . S
C2168 H2160 0.950 . S
C2168 C2169 1.386 . S
C2168 C2170 1.391 . S
C2169 C2168 1.386 . S
C2169 C2173 1.393 . S
C2170 H2162 0.950 . S
C2170 C2168 1.391 . S
C2170 C2171 1.400 . S
C2171 C2170 1.400 . S
C2171 C2172 1.398 . S
C2171 C2177 1.491 . S
C2172 H2163 0.950 . S
C2172 C2171 1.398 . S
C2172 C2173 1.391 . S
C2173 H2161 0.950 . S
C2173 C2169 1.393 . S
C2173 C2172 1.391 . S
C2174 H2164 0.950 . S
C2174 C2175 1.386 . S
C2174 C2176 1.391 . S
C2175 C2174 1.386 . S
C2175 C2179 1.393 . S
C2176 H2165 0.950 . S
C2176 C2174 1.391 . S
C2176 C2177 1.400 . S
C2177 C2171 1.491 . S
C2177 C2176 1.400 . S
C2177 C2178 1.398 . S
C2178 H2166 0.950 . S
C2178 C2177 1.398 . S
C2178 C2179 1.391 . S
C2179 H2167 0.950 . S
C2179 C2175 1.393 . S
C2179 C2178 1.391 . S
H2180 C2188 0.950 . S
H2181 C2193 0.950 1_554 S
H2182 C2190 0.950 . S
H2183 C2192 0.950 . S
H2184 C2194 0.950 . S
H2185 C2196 0.950 . S
H2186 C2198 0.950 . S
H2187 C2199 0.950 . S
C2188 H2180 0.950 . S
C2188 C2189 1.386 . S
C2188 C2190 1.391 . S
C2189 C2188 1.386 . S
C2189 C2193 1.393 . S
C2190 H2182 0.950 . S
C2190 C2188 1.391 . S
C2190 C2191 1.400 . S
C2191 C2190 1.400 . S
C2191 C2192 1.398 . S
C2191 C2197 1.491 . S
C2192 H2183 0.950 . S
C2192 C2191 1.398 . S
C2192 C2193 1.391 . S
C2193 H2181 0.950 1_556 S
C2193 C2189 1.393 . S
C2193 C2192 1.391 . S
C2194 H2184 0.950 . S
C2194 C2195 1.386 . S
C2194 C2196 1.391 . S
C2195 C2194 1.386 . S
C2195 C2199 1.393 . S
C2196 H2185 0.950 . S
C2196 C2194 1.391 . S
C2196 C2197 1.400 . S
C2197 C2191 1.491 . S
C2197 C2196 1.400 . S
C2197 C2198 1.398 . S
C2198 H2186 0.950 . S
C2198 C2197 1.398 . S
C2198 C2199 1.391 . S
C2199 H2187 0.950 . S
C2199 C2195 1.393 . S
C2199 C2198 1.391 . S
H2200 C2208 0.950 . S
H2201 C2213 0.950 . S
H2202 C2210 0.950 . S
H2203 C2212 0.950 . S
H2204 C2214 0.950 . S
H2205 C2216 0.950 . S
H2206 C2218 0.950 . S
H2207 C2219 0.950 . S
C2208 H2200 0.950 . S
C2208 C2209 1.386 . S
C2208 C2210 1.391 . S
C2209 C2208 1.386 . S
C2209 C2213 1.393 . S
C2210 H2202 0.950 . S
C2210 C2208 1.391 . S
C2210 C2211 1.400 . S
C2211 C2210 1.400 . S
C2211 C2212 1.398 . S
C2211 C2217 1.491 . S
C2212 H2203 0.950 . S
C2212 C2211 1.398 . S
C2212 C2213 1.391 . S
C2213 H2201 0.950 . S
C2213 C2209 1.393 . S
C2213 C2212 1.391 . S
C2214 H2204 0.950 . S
C2214 C2215 1.386 . S
C2214 C2216 1.391 . S
C2215 C2214 1.386 . S
C2215 C2219 1.393 . S
C2216 H2205 0.950 . S
C2216 C2214 1.391 . S
C2216 C2217 1.400 . S
C2217 C2211 1.491 . S
C2217 C2216 1.400 . S
C2217 C2218 1.398 . S
C2218 H2206 0.950 . S
C2218 C2217 1.398 . S
C2218 C2219 1.391 . S
C2219 H2207 0.950 . S
C2219 C2215 1.393 . S
C2219 C2218 1.391 . S
H2220 C2228 0.950 . S
H2221 C2233 0.950 . S
H2222 C2230 0.950 . S
H2223 C2232 0.950 . S
H2224 C2234 0.950 . S
H2225 C2236 0.950 . S
H2226 C2238 0.950 . S
H2227 C2239 0.950 . S
C2228 H2220 0.950 . S
C2228 C2229 1.386 . S
C2228 C2230 1.391 . S
C2229 C2228 1.386 . S
C2229 C2233 1.393 . S
C2230 H2222 0.950 . S
C2230 C2228 1.391 . S
C2230 C2231 1.400 . S
C2231 C2230 1.400 . S
C2231 C2232 1.398 . S
C2231 C2237 1.491 . S
C2232 H2223 0.950 . S
C2232 C2231 1.398 . S
C2232 C2233 1.391 . S
C2233 H2221 0.950 . S
C2233 C2229 1.393 . S
C2233 C2232 1.391 . S
C2234 H2224 0.950 . S
C2234 C2235 1.386 . S
C2234 C2236 1.391 . S
C2235 C2234 1.386 . S
C2235 C2239 1.393 . S
C2236 H2225 0.950 . S
C2236 C2234 1.391 . S
C2236 C2237 1.400 . S
C2237 C2231 1.491 . S
C2237 C2236 1.400 . S
C2237 C2238 1.398 . S
C2238 H2226 0.950 . S
C2238 C2237 1.398 . S
C2238 C2239 1.391 . S
C2239 H2227 0.950 . S
C2239 C2235 1.393 . S
C2239 C2238 1.391 . S
H2240 C2248 0.950 . S
H2241 C2253 0.950 . S
H2242 C2250 0.950 . S
H2243 C2252 0.950 . S
H2244 C2254 0.950 . S
H2245 C2256 0.950 . S
H2246 C2258 0.950 . S
H2247 C2259 0.950 . S
C2248 H2240 0.950 . S
C2248 C2249 1.386 . S
C2248 C2250 1.391 . S
C2249 C2248 1.386 . S
C2249 C2253 1.393 . S
C2250 H2242 0.950 . S
C2250 C2248 1.391 . S
C2250 C2251 1.400 . S
C2251 C2250 1.400 . S
C2251 C2252 1.398 . S
C2251 C2257 1.491 . S
C2252 H2243 0.950 . S
C2252 C2251 1.398 . S
C2252 C2253 1.391 . S
C2253 H2241 0.950 . S
C2253 C2249 1.393 . S
C2253 C2252 1.391 . S
C2254 H2244 0.950 . S
C2254 C2255 1.386 . S
C2254 C2256 1.391 . S
C2255 C2254 1.386 . S
C2255 C2259 1.393 . S
C2256 H2245 0.950 . S
C2256 C2254 1.391 . S
C2256 C2257 1.400 . S
C2257 C2251 1.491 . S
C2257 C2256 1.400 . S
C2257 C2258 1.398 . S
C2258 H2246 0.950 . S
C2258 C2257 1.398 . S
C2258 C2259 1.391 . S
C2259 H2247 0.950 . S
C2259 C2255 1.393 . S
C2259 C2258 1.391 . S
H2260 C2268 0.950 . S
H2261 C2273 0.950 . S
H2262 C2270 0.950 . S
H2263 C2272 0.950 . S
H2264 C2274 0.950 . S
H2265 C2276 0.950 . S
H2266 C2278 0.950 . S
H2267 C2279 0.950 . S
C2268 H2260 0.950 . S
C2268 C2269 1.386 . S
C2268 C2270 1.391 . S
C2269 C2268 1.386 . S
C2269 C2273 1.393 . S
C2270 H2262 0.950 . S
C2270 C2268 1.391 . S
C2270 C2271 1.400 . S
C2271 C2270 1.400 . S
C2271 C2272 1.398 . S
C2271 C2277 1.491 . S
C2272 H2263 0.950 . S
C2272 C2271 1.398 . S
C2272 C2273 1.391 . S
C2273 H2261 0.950 . S
C2273 C2269 1.393 . S
C2273 C2272 1.391 . S
C2274 H2264 0.950 . S
C2274 C2275 1.386 . S
C2274 C2276 1.391 . S
C2275 C2274 1.386 . S
C2275 C2279 1.393 . S
C2276 H2265 0.950 . S
C2276 C2274 1.391 . S
C2276 C2277 1.400 . S
C2277 C2271 1.491 . S
C2277 C2276 1.400 . S
C2277 C2278 1.398 . S
C2278 H2266 0.950 . S
C2278 C2277 1.398 . S
C2278 C2279 1.391 . S
C2279 H2267 0.950 . S
C2279 C2275 1.393 . S
C2279 C2278 1.391 . S
H2280 C2288 0.950 . S
H2281 C2293 0.950 . S
H2282 C2290 0.950 . S
H2283 C2292 0.950 . S
H2284 C2294 0.941 1_556 S
H2285 C2296 0.950 . S
H2286 C2298 0.950 . S
H2287 C2299 0.950 . S
C2288 H2280 0.950 . S
C2288 C2289 1.386 . S
C2288 C2290 1.391 . S
C2289 C2288 1.386 . S
C2289 C2293 1.393 . S
C2290 H2282 0.950 . S
C2290 C2288 1.391 . S
C2290 C2291 1.400 . S
C2291 C2290 1.400 . S
C2291 C2292 1.398 . S
C2291 C2297 1.491 . S
C2292 H2283 0.950 . S
C2292 C2291 1.398 . S
C2292 C2293 1.391 . S
C2293 H2281 0.950 . S
C2293 C2289 1.393 . S
C2293 C2292 1.391 . S
C2294 H2284 0.941 1_554 S
C2294 C2295 1.386 . S
C2294 C2296 1.391 . S
C2295 C2294 1.386 . S
C2295 C2299 1.393 . S
C2296 H2285 0.950 . S
C2296 C2294 1.391 . S
C2296 C2297 1.400 . S
C2297 C2291 1.491 . S
C2297 C2296 1.400 . S
C2297 C2298 1.398 . S
C2298 H2286 0.950 . S
C2298 C2297 1.398 . S
C2298 C2299 1.391 . S
C2299 H2287 0.950 . S
C2299 C2295 1.393 . S
C2299 C2298 1.391 . S
H2300 C2308 0.950 . S
H2301 C2313 0.950 1_556 S
H2302 C2310 0.950 . S
H2303 C2312 0.950 . S
H2304 C2314 0.950 . S
H2305 C2316 0.950 . S
H2306 C2318 0.950 . S
H2307 C2319 0.950 . S
C2308 H2300 0.950 . S
C2308 C2309 1.386 . S
C2308 C2310 1.391 . S
C2309 C2308 1.386 . S
C2309 C2313 1.393 . S
C2310 H2302 0.950 . S
C2310 C2308 1.391 . S
C2310 C2311 1.400 . S
C2311 C2310 1.400 . S
C2311 C2312 1.398 . S
C2311 C2317 1.491 . S
C2312 H2303 0.950 . S
C2312 C2311 1.398 . S
C2312 C2313 1.391 . S
C2313 H2301 0.950 1_554 S
C2313 C2309 1.393 . S
C2313 C2312 1.391 . S
C2314 H2304 0.950 . S
C2314 C2315 1.386 . S
C2314 C2316 1.391 . S
C2315 C2314 1.386 . S
C2315 C2319 1.393 . S
C2316 H2305 0.950 . S
C2316 C2314 1.391 . S
C2316 C2317 1.400 . S
C2317 C2311 1.491 . S
C2317 C2316 1.400 . S
C2317 C2318 1.398 . S
C2318 H2306 0.950 . S
C2318 C2317 1.398 . S
C2318 C2319 1.391 . S
C2319 H2307 0.950 . S
C2319 C2315 1.393 . S
C2319 C2318 1.391 . S
H2320 C2328 0.950 . S
H2321 C2333 0.950 . S
H2322 C2330 0.950 . S
H2323 C2332 0.950 . S
H2324 C2334 0.950 . S
H2325 C2336 0.950 . S
H2326 C2338 0.950 . S
H2327 C2339 0.950 . S
C2328 H2320 0.950 . S
C2328 C2329 1.386 . S
C2328 C2330 1.391 . S
C2329 C2328 1.386 . S
C2329 C2333 1.393 . S
C2330 H2322 0.950 . S
C2330 C2328 1.391 . S
C2330 C2331 1.400 . S
C2331 C2330 1.400 . S
C2331 C2332 1.398 . S
C2331 C2337 1.491 . S
C2332 H2323 0.950 . S
C2332 C2331 1.398 . S
C2332 C2333 1.391 . S
C2333 H2321 0.950 . S
C2333 C2329 1.393 . S
C2333 C2332 1.391 . S
C2334 H2324 0.950 . S
C2334 C2335 1.386 . S
C2334 C2336 1.391 . S
C2335 C2334 1.386 . S
C2335 C2339 1.393 . S
C2336 H2325 0.950 . S
C2336 C2334 1.391 . S
C2336 C2337 1.400 . S
C2337 C2331 1.491 . S
C2337 C2336 1.400 . S
C2337 C2338 1.398 . S
C2338 H2326 0.950 . S
C2338 C2337 1.398 . S
C2338 C2339 1.391 . S
C2339 H2327 0.950 . S
C2339 C2335 1.393 . S
C2339 C2338 1.391 . S
H2340 C2348 0.950 . S
H2341 C2353 0.950 . S
H2342 C2350 0.950 . S
H2343 C2352 0.950 . S
H2344 C2354 0.950 . S
H2345 C2356 0.950 . S
H2346 C2358 0.950 . S
H2347 C2359 0.950 . S
C2348 H2340 0.950 . S
C2348 C2349 1.386 . S
C2348 C2350 1.391 . S
C2349 C2348 1.386 . S
C2349 C2353 1.393 . S
C2350 H2342 0.950 . S
C2350 C2348 1.391 . S
C2350 C2351 1.400 . S
C2351 C2350 1.400 . S
C2351 C2352 1.398 . S
C2351 C2357 1.491 . S
C2352 H2343 0.950 . S
C2352 C2351 1.398 . S
C2352 C2353 1.391 . S
C2353 H2341 0.950 . S
C2353 C2349 1.393 . S
C2353 C2352 1.391 . S
C2354 H2344 0.950 . S
C2354 C2355 1.386 . S
C2354 C2356 1.391 . S
C2355 C2354 1.386 . S
C2355 C2359 1.393 . S
C2356 H2345 0.950 . S
C2356 C2354 1.391 . S
C2356 C2357 1.400 . S
C2357 C2351 1.491 . S
C2357 C2356 1.400 . S
C2357 C2358 1.398 . S
C2358 H2346 0.950 . S
C2358 C2357 1.398 . S
C2358 C2359 1.391 . S
C2359 H2347 0.950 . S
C2359 C2355 1.393 . S
C2359 C2358 1.391 . S
H2360 C2368 0.950 . S
H2361 C2373 0.950 . S
H2362 C2370 0.950 . S
H2363 C2372 0.950 . S
H2364 C2374 0.950 . S
H2365 C2376 0.950 . S
H2366 C2378 0.950 . S
H2367 C2379 0.950 . S
C2368 H2360 0.950 . S
C2368 C2369 1.386 . S
C2368 C2370 1.391 . S
C2369 C2368 1.386 . S
C2369 C2373 1.393 . S
C2370 H2362 0.950 . S
C2370 C2368 1.391 . S
C2370 C2371 1.400 . S
C2371 C2370 1.400 . S
C2371 C2372 1.398 . S
C2371 C2377 1.491 . S
C2372 H2363 0.950 . S
C2372 C2371 1.398 . S
C2372 C2373 1.391 . S
C2373 H2361 0.950 . S
C2373 C2369 1.393 . S
C2373 C2372 1.391 . S
C2374 H2364 0.950 . S
C2374 C2375 1.386 . S
C2374 C2376 1.391 . S
C2375 C2374 1.386 . S
C2375 C2379 1.393 . S
C2376 H2365 0.950 . S
C2376 C2374 1.391 . S
C2376 C2377 1.400 . S
C2377 C2371 1.491 . S
C2377 C2376 1.400 . S
C2377 C2378 1.398 . S
C2378 H2366 0.950 . S
C2378 C2377 1.398 . S
C2378 C2379 1.391 . S
C2379 H2367 0.950 . S
C2379 C2375 1.393 . S
C2379 C2378 1.391 . S
H2380 C2388 0.950 . S
H2381 C2393 0.950 . S
H2382 C2390 0.950 . S
H2383 C2392 0.950 . S
H2384 C2394 0.950 . S
H2385 C2396 0.950 . S
H2386 C2398 0.950 . S
H2387 C2399 0.950 . S
C2388 H2380 0.950 . S
C2388 C2389 1.386 . S
C2388 C2390 1.391 . S
C2389 C2388 1.386 . S
C2389 C2393 1.393 . S
C2390 H2382 0.950 . S
C2390 C2388 1.391 . S
C2390 C2391 1.400 . S
C2391 C2390 1.400 . S
C2391 C2392 1.398 . S
C2391 C2397 1.491 . S
C2392 H2383 0.950 . S
C2392 C2391 1.398 . S
C2392 C2393 1.391 . S
C2393 H2381 0.950 . S
C2393 C2389 1.393 . S
C2393 C2392 1.391 . S
C2394 H2384 0.950 . S
C2394 C2395 1.386 . S
C2394 C2396 1.391 . S
C2395 C2394 1.386 . S
C2395 C2399 1.393 . S
C2396 H2385 0.950 . S
C2396 C2394 1.391 . S
C2396 C2397 1.400 . S
C2397 C2391 1.491 . S
C2397 C2396 1.400 . S
C2397 C2398 1.398 . S
C2398 H2386 0.950 . S
C2398 C2397 1.398 . S
C2398 C2399 1.391 . S
C2399 H2387 0.950 . S
C2399 C2395 1.393 . S
C2399 C2398 1.391 . S
H2400 C2408 0.950 . S
H2401 C2413 0.950 . S
H2402 C2410 0.950 1_655 S
H2403 C2412 0.950 . S
H2404 C2414 0.950 . S
H2405 C2416 0.950 1_455 S
H2406 C2418 0.950 . S
H2407 C2419 0.950 . S
C2408 H2400 0.950 . S
C2408 C2409 1.386 . S
C2408 C2410 1.391 . S
C2409 C2408 1.386 . S
C2409 C2413 1.393 . S
C2410 H2402 0.950 1_455 S
C2410 C2408 1.391 . S
C2410 C2411 1.400 . S
C2411 C2410 1.400 . S
C2411 C2412 1.398 . S
C2411 C2417 1.491 1_455 S
C2412 H2403 0.950 . S
C2412 C2411 1.398 . S
C2412 C2413 1.391 . S
C2413 H2401 0.950 . S
C2413 C2409 1.393 . S
C2413 C2412 1.391 . S
C2414 H2404 0.950 . S
C2414 C2415 1.386 . S
C2414 C2416 1.391 . S
C2415 C2414 1.386 . S
C2415 C2419 1.393 . S
C2416 H2405 0.950 1_655 S
C2416 C2414 1.391 . S
C2416 C2417 1.400 . S
C2417 C2411 1.491 1_655 S
C2417 C2416 1.400 . S
C2417 C2418 1.398 . S
C2418 H2406 0.950 . S
C2418 C2417 1.398 . S
C2418 C2419 1.391 . S
C2419 H2407 0.950 . S
C2419 C2415 1.393 . S
C2419 C2418 1.391 . S
H2420 C2428 0.950 . S
H2421 C2433 0.950 . S
H2422 C2430 0.950 . S
H2423 C2432 0.950 . S
H2424 C2434 0.950 . S
H2425 C2436 0.950 . S
H2426 C2438 0.950 . S
H2427 C2439 0.950 . S
C2428 H2420 0.950 . S
C2428 C2429 1.386 . S
C2428 C2430 1.391 . S
C2429 C2428 1.386 . S
C2429 C2433 1.393 . S
C2430 H2422 0.950 . S
C2430 C2428 1.391 . S
C2430 C2431 1.400 . S
C2431 C2430 1.400 . S
C2431 C2432 1.398 . S
C2431 C2437 1.491 . S
C2432 H2423 0.950 . S
C2432 C2431 1.398 . S
C2432 C2433 1.391 . S
C2433 H2421 0.950 . S
C2433 C2429 1.393 . S
C2433 C2432 1.391 . S
C2434 H2424 0.950 . S
C2434 C2435 1.386 . S
C2434 C2436 1.391 . S
C2435 C2434 1.386 . S
C2435 C2439 1.393 . S
C2436 H2425 0.950 . S
C2436 C2434 1.391 . S
C2436 C2437 1.400 . S
C2437 C2431 1.491 . S
C2437 C2436 1.400 . S
C2437 C2438 1.398 . S
C2438 H2426 0.950 . S
C2438 C2437 1.398 . S
C2438 C2439 1.391 . S
C2439 H2427 0.950 . S
C2439 C2435 1.393 . S
C2439 C2438 1.391 . S
H2440 C2448 0.950 . S
H2441 C2453 0.950 . S
H2442 C2450 0.950 . S
H2443 C2452 0.950 . S
H2444 C2454 0.950 . S
H2445 C2456 0.950 . S
H2446 C2458 0.950 . S
H2447 C2459 0.950 . S
C2448 H2440 0.950 . S
C2448 C2449 1.386 . S
C2448 C2450 1.391 . S
C2449 C2448 1.386 . S
C2449 C2453 1.393 . S
C2450 H2442 0.950 . S
C2450 C2448 1.391 . S
C2450 C2451 1.400 . S
C2451 C2450 1.400 . S
C2451 C2452 1.398 . S
C2451 C2457 1.491 1_545 S
C2452 H2443 0.950 . S
C2452 C2451 1.398 . S
C2452 C2453 1.391 . S
C2453 H2441 0.950 . S
C2453 C2449 1.393 . S
C2453 C2452 1.391 . S
C2454 H2444 0.950 . S
C2454 C2455 1.386 . S
C2454 C2456 1.391 . S
C2455 C2454 1.386 . S
C2455 C2459 1.393 . S
C2456 H2445 0.950 . S
C2456 C2454 1.391 . S
C2456 C2457 1.400 . S
C2457 C2451 1.491 1_565 S
C2457 C2456 1.400 . S
C2457 C2458 1.398 . S
C2458 H2446 0.950 . S
C2458 C2457 1.398 . S
C2458 C2459 1.391 . S
C2459 H2447 0.950 . S
C2459 C2455 1.393 . S
C2459 C2458 1.391 . S
H2460 C2468 0.950 . S
H2461 C2473 0.950 . S
H2462 C2470 0.950 . S
H2463 C2472 0.950 . S
H2464 C2474 0.950 . S
H2465 C2476 0.950 . S
H2466 C2478 0.950 . S
H2467 C2479 0.950 . S
C2468 H2460 0.950 . S
C2468 C2469 1.386 . S
C2468 C2470 1.391 . S
C2469 C2468 1.386 . S
C2469 C2473 1.393 . S
C2470 H2462 0.950 . S
C2470 C2468 1.391 . S
C2470 C2471 1.400 . S
C2471 C2470 1.400 . S
C2471 C2472 1.398 . S
C2471 C2477 1.491 1_565 S
C2472 H2463 0.950 . S
C2472 C2471 1.398 . S
C2472 C2473 1.391 . S
C2473 H2461 0.950 . S
C2473 C2469 1.393 . S
C2473 C2472 1.391 . S
C2474 H2464 0.950 . S
C2474 C2475 1.386 . S
C2474 C2476 1.391 . S
C2475 C2474 1.386 . S
C2475 C2479 1.393 . S
C2476 H2465 0.950 . S
C2476 C2474 1.391 . S
C2476 C2477 1.400 . S
C2477 C2471 1.491 1_545 S
C2477 C2476 1.400 . S
C2477 C2478 1.398 . S
C2478 H2466 0.950 . S
C2478 C2477 1.398 . S
C2478 C2479 1.391 . S
C2479 H2467 0.950 . S
C2479 C2475 1.393 . S
C2479 C2478 1.391 . S
H2480 C2488 0.950 . S
H2481 C2493 0.950 . S
H2482 C2490 0.950 . S
H2483 C2492 0.889 1_655 S
H2484 C2494 0.950 . S
H2485 C2496 0.950 . S
H2486 C2498 0.888 1_455 S
H2487 C2499 0.950 . S
C2488 H2480 0.950 . S
C2488 C2489 1.386 . S
C2488 C2490 1.391 . S
C2489 C2488 1.386 . S
C2489 C2493 1.393 . S
C2490 H2482 0.950 . S
C2490 C2488 1.391 . S
C2490 C2491 1.400 . S
C2491 C2490 1.400 . S
C2491 C2492 1.398 . S
C2491 C2497 1.491 1_455 S
C2492 H2483 0.889 1_455 S
C2492 C2491 1.398 . S
C2492 C2493 1.391 . S
C2493 H2481 0.950 . S
C2493 C2489 1.393 . S
C2493 C2492 1.391 . S
C2494 H2484 0.950 . S
C2494 C2495 1.386 . S
C2494 C2496 1.391 . S
C2495 C2494 1.386 . S
C2495 C2499 1.393 . S
C2496 H2485 0.950 . S
C2496 C2494 1.391 . S
C2496 C2497 1.400 . S
C2497 C2491 1.491 1_655 S
C2497 C2496 1.400 . S
C2497 C2498 1.398 . S
C2498 H2486 0.888 1_655 S
C2498 C2497 1.398 . S
C2498 C2499 1.391 . S
C2499 H2487 0.950 . S
C2499 C2495 1.393 . S
C2499 C2498 1.391 . S
H2500 C2508 0.950 . S
H2501 C2513 0.950 . S
H2502 C2510 0.950 . S
H2503 C2512 0.950 . S
H2504 C2514 0.950 . S
H2505 C2516 0.950 . S
H2506 C2518 0.950 . S
H2507 C2519 0.950 . S
C2508 H2500 0.950 . S
C2508 C2509 1.386 . S
C2508 C2510 1.391 . S
C2509 C2508 1.386 . S
C2509 C2513 1.393 . S
C2510 H2502 0.950 . S
C2510 C2508 1.391 . S
C2510 C2511 1.400 . S
C2511 C2510 1.400 . S
C2511 C2512 1.398 . S
C2511 C2517 1.491 . S
C2512 H2503 0.950 . S
C2512 C2511 1.398 . S
C2512 C2513 1.391 . S
C2513 H2501 0.950 . S
C2513 C2509 1.393 . S
C2513 C2512 1.391 . S
C2514 H2504 0.950 . S
C2514 C2515 1.386 . S
C2514 C2516 1.391 . S
C2515 C2514 1.386 . S
C2515 C2519 1.393 . S
C2516 H2505 0.950 . S
C2516 C2514 1.391 . S
C2516 C2517 1.400 . S
C2517 C2511 1.491 . S
C2517 C2516 1.400 . S
C2517 C2518 1.398 . S
C2518 H2506 0.950 . S
C2518 C2517 1.398 . S
C2518 C2519 1.391 . S
C2519 H2507 0.950 . S
C2519 C2515 1.393 . S
C2519 C2518 1.391 . S
H2520 C2528 0.950 . S
H2521 C2533 0.950 . S
H2522 C2530 0.950 . S
H2523 C2532 0.950 . S
H2524 C2534 0.950 . S
H2525 C2536 0.950 . S
H2526 C2538 0.950 . S
H2527 C2539 0.950 . S
C2528 H2520 0.950 . S
C2528 C2529 1.386 . S
C2528 C2530 1.391 . S
C2529 C2528 1.386 . S
C2529 C2533 1.393 . S
C2530 H2522 0.950 . S
C2530 C2528 1.391 . S
C2530 C2531 1.400 . S
C2531 C2530 1.400 . S
C2531 C2532 1.398 . S
C2531 C2537 1.491 . S
C2532 H2523 0.950 . S
C2532 C2531 1.398 . S
C2532 C2533 1.391 . S
C2533 H2521 0.950 . S
C2533 C2529 1.393 . S
C2533 C2532 1.391 . S
C2534 H2524 0.950 . S
C2534 C2535 1.386 . S
C2534 C2536 1.391 . S
C2535 C2534 1.386 . S
C2535 C2539 1.393 . S
C2536 H2525 0.950 . S
C2536 C2534 1.391 . S
C2536 C2537 1.400 . S
C2537 C2531 1.491 . S
C2537 C2536 1.400 . S
C2537 C2538 1.398 . S
C2538 H2526 0.950 . S
C2538 C2537 1.398 . S
C2538 C2539 1.391 . S
C2539 H2527 0.950 . S
C2539 C2535 1.393 . S
C2539 C2538 1.391 . S
H2540 C2548 0.950 . S
H2541 C2553 0.950 . S
H2542 C2550 0.950 . S
H2543 C2552 0.950 . S
H2544 C2554 0.950 . S
H2545 C2556 0.950 . S
H2546 C2558 0.950 . S
H2547 C2559 0.950 . S
C2548 H2540 0.950 . S
C2548 C2549 1.386 1_565 S
C2548 C2550 1.391 . S
C2549 C2548 1.386 1_545 S
C2549 C2553 1.393 . S
C2550 H2542 0.950 . S
C2550 C2548 1.391 . S
C2550 C2551 1.400 1_565 S
C2551 C2550 1.400 1_545 S
C2551 C2552 1.398 . S
C2551 C2557 1.491 1_545 S
C2552 H2543 0.950 . S
C2552 C2551 1.398 . S
C2552 C2553 1.391 . S
C2553 H2541 0.950 . S
C2553 C2549 1.393 . S
C2553 C2552 1.391 . S
C2554 H2544 0.950 . S
C2554 C2555 1.386 1_545 S
C2554 C2556 1.391 . S
C2555 C2554 1.386 1_565 S
C2555 C2559 1.393 . S
C2556 H2545 0.950 . S
C2556 C2554 1.391 . S
C2556 C2557 1.400 1_545 S
C2557 C2551 1.491 1_565 S
C2557 C2556 1.400 1_565 S
C2557 C2558 1.398 . S
C2558 H2546 0.950 . S
C2558 C2557 1.398 . S
C2558 C2559 1.391 . S
C2559 H2547 0.950 . S
C2559 C2555 1.393 . S
C2559 C2558 1.391 . S
H2560 C2568 0.950 . S
H2561 C2573 0.950 . S
H2562 C2570 0.950 . S
H2563 C2572 0.950 . S
H2564 C2574 0.950 . S
H2565 C2576 0.950 . S
H2566 C2578 0.950 . S
H2567 C2579 0.950 . S
C2568 H2560 0.950 . S
C2568 C2569 1.386 . S
C2568 C2570 1.391 . S
C2569 C2568 1.386 . S
C2569 C2573 1.393 1_655 S
C2570 H2562 0.950 . S
C2570 C2568 1.391 . S
C2570 C2571 1.400 . S
C2571 C2570 1.400 . S
C2571 C2572 1.398 1_655 S
C2571 C2577 1.491 1_655 S
C2572 H2563 0.950 . S
C2572 C2571 1.398 1_455 S
C2572 C2573 1.391 . S
C2573 H2561 0.950 . S
C2573 C2569 1.393 1_455 S
C2573 C2572 1.391 . S
C2574 H2564 0.950 . S
C2574 C2575 1.386 . S
C2574 C2576 1.391 . S
C2575 C2574 1.386 . S
C2575 C2579 1.393 1_455 S
C2576 H2565 0.950 . S
C2576 C2574 1.391 . S
C2576 C2577 1.400 . S
C2577 C2571 1.491 1_455 S
C2577 C2576 1.400 . S
C2577 C2578 1.398 1_455 S
C2578 H2566 0.950 . S
C2578 C2577 1.398 1_655 S
C2578 C2579 1.391 . S
C2579 H2567 0.950 . S
C2579 C2575 1.393 1_655 S
C2579 C2578 1.391 . S
H2580 C2588 0.950 . S
H2581 C2593 0.950 . S
H2582 C2590 0.950 . S
H2583 C2592 0.950 . S
H2584 C2594 0.950 . S
H2585 C2596 0.950 . S
H2586 C2598 0.950 . S
H2587 C2599 0.950 . S
C2588 H2580 0.950 . S
C2588 C2589 1.386 . S
C2588 C2590 1.391 . S
C2589 C2588 1.386 . S
C2589 C2593 1.393 . S
C2590 H2582 0.950 . S
C2590 C2588 1.391 . S
C2590 C2591 1.400 . S
C2591 C2590 1.400 . S
C2591 C2592 1.398 . S
C2591 C2597 1.491 . S
C2592 H2583 0.950 . S
C2592 C2591 1.398 . S
C2592 C2593 1.391 . S
C2593 H2581 0.950 . S
C2593 C2589 1.393 . S
C2593 C2592 1.391 . S
C2594 H2584 0.950 . S
C2594 C2595 1.386 . S
C2594 C2596 1.391 . S
C2595 C2594 1.386 . S
C2595 C2599 1.393 . S
C2596 H2585 0.950 . S
C2596 C2594 1.391 . S
C2596 C2597 1.400 . S
C2597 C2591 1.491 . S
C2597 C2596 1.400 . S
C2597 C2598 1.398 . S
C2598 H2586 0.950 . S
C2598 C2597 1.398 . S
C2598 C2599 1.391 . S
C2599 H2587 0.950 . S
C2599 C2595 1.393 . S
C2599 C2598 1.391 . S
H2600 C2608 0.950 . S
H2601 C2613 0.950 . S
H2602 C2610 0.950 1_545 S
H2603 C2612 0.950 . S
H2604 C2614 0.950 . S
H2605 C2616 0.950 1_565 S
H2606 C2618 0.950 . S
H2607 C2619 0.950 . S
C2608 H2600 0.950 . S
C2608 C2609 1.386 . S
C2608 C2610 1.391 . S
C2609 C2608 1.386 . S
C2609 C2613 1.393 . S
C2610 H2602 0.950 1_565 S
C2610 C2608 1.391 . S
C2610 C2611 1.400 . S
C2611 C2610 1.400 . S
C2611 C2612 1.398 . S
C2611 C2617 1.491 1_565 S
C2612 H2603 0.950 . S
C2612 C2611 1.398 . S
C2612 C2613 1.391 . S
C2613 H2601 0.950 . S
C2613 C2609 1.393 . S
C2613 C2612 1.391 . S
C2614 H2604 0.950 . S
C2614 C2615 1.386 . S
C2614 C2616 1.391 . S
C2615 C2614 1.386 . S
C2615 C2619 1.393 . S
C2616 H2605 0.950 1_545 S
C2616 C2614 1.391 . S
C2616 C2617 1.400 . S
C2617 C2611 1.491 1_545 S
C2617 C2616 1.400 . S
C2617 C2618 1.398 . S
C2618 H2606 0.950 . S
C2618 C2617 1.398 . S
C2618 C2619 1.391 . S
C2619 H2607 0.950 . S
C2619 C2615 1.393 . S
C2619 C2618 1.391 . S
H2620 C2628 0.950 . S
H2621 C2633 0.950 . S
H2622 C2630 0.952 . S
H2623 C2632 0.950 . S
H2624 C2634 0.950 . S
H2625 C2636 0.952 . S
H2626 C2638 0.950 . S
H2627 C2639 0.950 . S
C2628 H2620 0.950 . S
C2628 C2629 1.386 . S
C2628 C2630 1.391 . S
C2629 C2628 1.386 . S
C2629 C2633 1.393 . S
C2630 H2622 0.952 . S
C2630 C2628 1.391 . S
C2630 C2631 1.400 . S
C2631 C2630 1.400 . S
C2631 C2632 1.398 . S
C2631 C2637 1.491 1_655 S
C2632 H2623 0.950 . S
C2632 C2631 1.398 . S
C2632 C2633 1.391 . S
C2633 H2621 0.950 . S
C2633 C2629 1.393 . S
C2633 C2632 1.391 . S
C2634 H2624 0.950 . S
C2634 C2635 1.386 . S
C2634 C2636 1.391 . S
C2635 C2634 1.386 . S
C2635 C2639 1.393 . S
C2636 H2625 0.952 . S
C2636 C2634 1.391 . S
C2636 C2637 1.400 . S
C2637 C2631 1.491 1_455 S
C2637 C2636 1.400 . S
C2637 C2638 1.398 . S
C2638 H2626 0.950 . S
C2638 C2637 1.398 . S
C2638 C2639 1.391 . S
C2639 H2627 0.950 . S
C2639 C2635 1.393 . S
C2639 C2638 1.391 . S
H2640 C2648 0.950 . S
H2641 C2653 0.950 . S
H2642 C2650 0.950 . S
H2643 C2652 0.950 . S
H2644 C2654 0.950 . S
H2645 C2656 0.950 . S
H2646 C2658 0.950 . S
H2647 C2659 0.950 . S
C2648 H2640 0.950 . S
C2648 C2649 1.386 . S
C2648 C2650 1.391 . S
C2649 C2648 1.386 . S
C2649 C2653 1.393 . S
C2650 H2642 0.950 . S
C2650 C2648 1.391 . S
C2650 C2651 1.400 . S
C2651 C2650 1.400 . S
C2651 C2652 1.398 . S
C2651 C2657 1.491 . S
C2652 H2643 0.950 . S
C2652 C2651 1.398 . S
C2652 C2653 1.391 . S
C2653 H2641 0.950 . S
C2653 C2649 1.393 . S
C2653 C2652 1.391 . S
C2654 H2644 0.950 . S
C2654 C2655 1.386 . S
C2654 C2656 1.391 . S
C2655 C2654 1.386 . S
C2655 C2659 1.393 . S
C2656 H2645 0.950 . S
C2656 C2654 1.391 . S
C2656 C2657 1.400 . S
C2657 C2651 1.491 . S
C2657 C2656 1.400 . S
C2657 C2658 1.398 . S
C2658 H2646 0.950 . S
C2658 C2657 1.398 . S
C2658 C2659 1.391 . S
C2659 H2647 0.950 . S
C2659 C2655 1.393 . S
C2659 C2658 1.391 . S
H2660 C2668 0.950 . S
H2661 C2673 0.950 . S
H2662 C2670 0.950 . S
H2663 C2672 0.950 . S
H2664 C2674 0.950 . S
H2665 C2676 0.950 . S
H2666 C2678 0.950 . S
H2667 C2679 0.950 . S
C2668 H2660 0.950 . S
C2668 C2669 1.386 . S
C2668 C2670 1.391 . S
C2669 C2668 1.386 . S
C2669 C2673 1.393 . S
C2670 H2662 0.950 . S
C2670 C2668 1.391 . S
C2670 C2671 1.400 . S
C2671 C2670 1.400 . S
C2671 C2672 1.398 . S
C2671 C2677 1.491 . S
C2672 H2663 0.950 . S
C2672 C2671 1.398 . S
C2672 C2673 1.391 . S
C2673 H2661 0.950 . S
C2673 C2669 1.393 . S
C2673 C2672 1.391 . S
C2674 H2664 0.950 . S
C2674 C2675 1.386 . S
C2674 C2676 1.391 . S
C2675 C2674 1.386 . S
C2675 C2679 1.393 . S
C2676 H2665 0.950 . S
C2676 C2674 1.391 . S
C2676 C2677 1.400 . S
C2677 C2671 1.491 . S
C2677 C2676 1.400 . S
C2677 C2678 1.398 . S
C2678 H2666 0.950 . S
C2678 C2677 1.398 . S
C2678 C2679 1.391 . S
C2679 H2667 0.950 . S
C2679 C2675 1.393 . S
C2679 C2678 1.391 . S
H2680 C2688 0.950 . S
H2681 C2693 0.950 . S
H2682 C2690 0.950 . S
H2683 C2692 0.950 . S
H2684 C2694 0.950 . S
H2685 C2696 0.950 . S
H2686 C2698 0.950 . S
H2687 C2699 0.950 . S
C2688 H2680 0.950 . S
C2688 C2689 1.386 . S
C2688 C2690 1.391 . S
C2689 C2688 1.386 . S
C2689 C2693 1.393 . S
C2690 H2682 0.950 . S
C2690 C2688 1.391 . S
C2690 C2691 1.400 . S
C2691 C2690 1.400 . S
C2691 C2692 1.398 . S
C2691 C2697 1.491 . S
C2692 H2683 0.950 . S
C2692 C2691 1.398 . S
C2692 C2693 1.391 . S
C2693 H2681 0.950 . S
C2693 C2689 1.393 . S
C2693 C2692 1.391 . S
C2694 H2684 0.950 . S
C2694 C2695 1.386 . S
C2694 C2696 1.391 . S
C2695 C2694 1.386 . S
C2695 C2699 1.393 . S
C2696 H2685 0.950 . S
C2696 C2694 1.391 . S
C2696 C2697 1.400 . S
C2697 C2691 1.491 . S
C2697 C2696 1.400 . S
C2697 C2698 1.398 . S
C2698 H2686 0.950 . S
C2698 C2697 1.398 . S
C2698 C2699 1.391 . S
C2699 H2687 0.950 . S
C2699 C2695 1.393 . S
C2699 C2698 1.391 . S
H2700 C2708 0.950 . S
H2701 C2713 0.950 . S
H2702 C2710 0.950 . S
H2703 C2712 0.950 . S
H2704 C2714 0.950 . S
H2705 C2716 0.950 . S
H2706 C2718 0.950 . S
H2707 C2719 0.950 1_556 S
C2708 H2700 0.950 . S
C2708 C2709 1.386 . S
C2708 C2710 1.391 . S
C2709 C2708 1.386 . S
C2709 C2713 1.393 . S
C2710 H2702 0.950 . S
C2710 C2708 1.391 . S
C2710 C2711 1.400 . S
C2711 C2710 1.400 . S
C2711 C2712 1.398 . S
C2711 C2717 1.491 . S
C2712 H2703 0.950 . S
C2712 C2711 1.398 . S
C2712 C2713 1.391 . S
C2713 H2701 0.950 . S
C2713 C2709 1.393 . S
C2713 C2712 1.391 . S
C2714 H2704 0.950 . S
C2714 C2715 1.386 1_554 S
C2714 C2716 1.391 . S
C2715 C2714 1.386 1_556 S
C2715 C2719 1.393 1_556 S
C2716 H2705 0.950 . S
C2716 C2714 1.391 . S
C2716 C2717 1.400 . S
C2717 C2711 1.491 . S
C2717 C2716 1.400 . S
C2717 C2718 1.398 . S
C2718 H2706 0.950 . S
C2718 C2717 1.398 . S
C2718 C2719 1.391 . S
C2719 H2707 0.950 1_554 S
C2719 C2715 1.393 1_554 S
C2719 C2718 1.391 . S
H2720 C2728 0.950 . S
H2721 C2733 0.950 . S
H2722 C2730 0.950 . S
H2723 C2732 0.950 . S
H2724 C2734 0.950 . S
H2725 C2736 0.950 . S
H2726 C2738 0.950 . S
H2727 C2739 0.950 . S
C2728 H2720 0.950 . S
C2728 C2729 1.386 . S
C2728 C2730 1.391 . S
C2729 C2728 1.386 . S
C2729 C2733 1.393 . S
C2730 H2722 0.950 . S
C2730 C2728 1.391 . S
C2730 C2731 1.400 . S
C2731 C2730 1.400 . S
C2731 C2732 1.398 . S
C2731 C2737 1.491 . S
C2732 H2723 0.950 . S
C2732 C2731 1.398 . S
C2732 C2733 1.391 . S
C2733 H2721 0.950 . S
C2733 C2729 1.393 . S
C2733 C2732 1.391 . S
C2734 H2724 0.950 . S
C2734 C2735 1.386 1_554 S
C2734 C2736 1.391 . S
C2735 C2734 1.386 1_556 S
C2735 C2739 1.393 1_556 S
C2736 H2725 0.950 . S
C2736 C2734 1.391 . S
C2736 C2737 1.400 . S
C2737 C2731 1.491 . S
C2737 C2736 1.400 . S
C2737 C2738 1.398 . S
C2738 H2726 0.950 . S
C2738 C2737 1.398 . S
C2738 C2739 1.391 . S
C2739 H2727 0.950 . S
C2739 C2735 1.393 1_554 S
C2739 C2738 1.391 . S
H2740 C2748 0.950 . S
H2741 C2753 0.950 . S
H2742 C2750 0.950 . S
H2743 C2752 0.950 . S
H2744 C2754 0.950 . S
H2745 C2756 0.950 . S
H2746 C2758 0.950 . S
H2747 C2759 0.950 1_556 S
C2748 H2740 0.950 . S
C2748 C2749 1.386 . S
C2748 C2750 1.391 . S
C2749 C2748 1.386 . S
C2749 C2753 1.393 . S
C2750 H2742 0.950 . S
C2750 C2748 1.391 . S
C2750 C2751 1.400 . S
C2751 C2750 1.400 . S
C2751 C2752 1.398 . S
C2751 C2757 1.491 . S
C2752 H2743 0.950 . S
C2752 C2751 1.398 . S
C2752 C2753 1.391 . S
C2753 H2741 0.950 . S
C2753 C2749 1.393 . S
C2753 C2752 1.391 . S
C2754 H2744 0.950 . S
C2754 C2755 1.386 1_554 S
C2754 C2756 1.391 . S
C2755 C2754 1.386 1_556 S
C2755 C2759 1.393 1_556 S
C2756 H2745 0.950 . S
C2756 C2754 1.391 . S
C2756 C2757 1.400 . S
C2757 C2751 1.491 . S
C2757 C2756 1.400 . S
C2757 C2758 1.398 . S
C2758 H2746 0.950 . S
C2758 C2757 1.398 . S
C2758 C2759 1.391 . S
C2759 H2747 0.950 1_554 S
C2759 C2755 1.393 1_554 S
C2759 C2758 1.391 . S
H2760 C2768 0.950 . S
H2761 C2773 0.950 . S
H2762 C2770 0.950 . S
H2763 C2772 0.950 . S
H2764 C2774 0.950 1_554 S
H2765 C2776 0.950 . S
H2766 C2778 0.950 . S
H2767 C2779 0.950 . S
C2768 H2760 0.950 . S
C2768 C2769 1.386 . S
C2768 C2770 1.391 . S
C2769 C2768 1.386 . S
C2769 C2773 1.393 . S
C2770 H2762 0.950 . S
C2770 C2768 1.391 . S
C2770 C2771 1.400 . S
C2771 C2770 1.400 . S
C2771 C2772 1.398 . S
C2771 C2777 1.491 . S
C2772 H2763 0.950 . S
C2772 C2771 1.398 . S
C2772 C2773 1.391 . S
C2773 H2761 0.950 . S
C2773 C2769 1.393 . S
C2773 C2772 1.391 . S
C2774 H2764 0.950 1_556 S
C2774 C2775 1.386 1_556 S
C2774 C2776 1.391 . S
C2775 C2774 1.386 1_554 S
C2775 C2779 1.393 1_554 S
C2776 H2765 0.950 . S
C2776 C2774 1.391 . S
C2776 C2777 1.400 . S
C2777 C2771 1.491 . S
C2777 C2776 1.400 . S
C2777 C2778 1.398 . S
C2778 H2766 0.950 . S
C2778 C2777 1.398 . S
C2778 C2779 1.391 . S
C2779 H2767 0.950 . S
C2779 C2775 1.393 1_556 S
C2779 C2778 1.391 . S
H2780 C2788 0.950 . S
H2781 C2793 0.950 1_554 S
H2782 C2790 0.950 . S
H2783 C2792 0.950 . S
H2784 C2794 0.950 . S
H2785 C2796 0.950 . S
H2786 C2798 0.950 . S
H2787 C2799 0.950 . S
C2788 H2780 0.950 . S
C2788 C2789 1.386 1_556 S
C2788 C2790 1.391 . S
C2789 C2788 1.386 1_554 S
C2789 C2793 1.393 1_554 S
C2790 H2782 0.950 . S
C2790 C2788 1.391 . S
C2790 C2791 1.400 . S
C2791 C2790 1.400 . S
C2791 C2792 1.398 . S
C2791 C2797 1.491 . S
C2792 H2783 0.950 . S
C2792 C2791 1.398 . S
C2792 C2793 1.391 . S
C2793 H2781 0.950 1_556 S
C2793 C2789 1.393 1_556 S
C2793 C2792 1.391 . S
C2794 H2784 0.950 . S
C2794 C2795 1.386 . S
C2794 C2796 1.391 . S
C2795 C2794 1.386 . S
C2795 C2799 1.393 . S
C2796 H2785 0.950 . S
C2796 C2794 1.391 . S
C2796 C2797 1.400 . S
C2797 C2791 1.491 . S
C2797 C2796 1.400 . S
C2797 C2798 1.398 . S
C2798 H2786 0.950 . S
C2798 C2797 1.398 . S
C2798 C2799 1.391 . S
C2799 H2787 0.950 . S
C2799 C2795 1.393 . S
C2799 C2798 1.391 . S
H2800 C2808 0.950 . S
H2801 C2813 0.950 1_554 S
H2802 C2810 0.950 . S
H2803 C2812 0.950 . S
H2804 C2814 0.950 . S
H2805 C2816 0.950 . S
H2806 C2818 0.950 . S
H2807 C2819 0.950 . S
C2808 H2800 0.950 . S
C2808 C2809 1.386 1_556 S
C2808 C2810 1.391 . S
C2809 C2808 1.386 1_554 S
C2809 C2813 1.393 1_554 S
C2810 H2802 0.950 . S
C2810 C2808 1.391 . S
C2810 C2811 1.400 . S
C2811 C2810 1.400 . S
C2811 C2812 1.398 . S
C2811 C2817 1.491 . S
C2812 H2803 0.950 . S
C2812 C2811 1.398 . S
C2812 C2813 1.391 . S
C2813 H2801 0.950 1_556 S
C2813 C2809 1.393 1_556 S
C2813 C2812 1.391 . S
C2814 H2804 0.950 . S
C2814 C2815 1.386 . S
C2814 C2816 1.391 . S
C2815 C2814 1.386 . S
C2815 C2819 1.393 . S
C2816 H2805 0.950 . S
C2816 C2814 1.391 . S
C2816 C2817 1.400 . S
C2817 C2811 1.491 . S
C2817 C2816 1.400 . S
C2817 C2818 1.398 . S
C2818 H2806 0.950 . S
C2818 C2817 1.398 . S
C2818 C2819 1.391 . S
C2819 H2807 0.950 . S
C2819 C2815 1.393 . S
C2819 C2818 1.391 . S
H2820 C2828 0.950 . S
H2821 C2833 0.950 . S
H2822 C2830 0.950 . S
H2823 C2832 0.950 . S
H2824 C2834 0.950 . S
H2825 C2836 0.950 . S
H2826 C2838 0.950 . S
H2827 C2839 0.950 . S
C2828 H2820 0.950 . S
C2828 C2829 1.386 . S
C2828 C2830 1.391 . S
C2829 C2828 1.386 . S
C2829 C2833 1.393 . S
C2830 H2822 0.950 . S
C2830 C2828 1.391 . S
C2830 C2831 1.400 . S
C2831 C2830 1.400 . S
C2831 C2832 1.398 . S
C2831 C2837 1.491 . S
C2832 H2823 0.950 . S
C2832 C2831 1.398 . S
C2832 C2833 1.391 . S
C2833 H2821 0.950 . S
C2833 C2829 1.393 . S
C2833 C2832 1.391 . S
C2834 H2824 0.950 . S
C2834 C2835 1.386 . S
C2834 C2836 1.391 . S
C2835 C2834 1.386 . S
C2835 C2839 1.393 . S
C2836 H2825 0.950 . S
C2836 C2834 1.391 . S
C2836 C2837 1.400 . S
C2837 C2831 1.491 . S
C2837 C2836 1.400 . S
C2837 C2838 1.398 . S
C2838 H2826 0.950 . S
C2838 C2837 1.398 . S
C2838 C2839 1.391 . S
C2839 H2827 0.950 . S
C2839 C2835 1.393 . S
C2839 C2838 1.391 . S
H2840 C2848 0.950 . S
H2841 C2853 0.950 . S
H2842 C2850 0.950 . S
H2843 C2852 0.950 . S
H2844 C2854 0.950 . S
H2845 C2856 0.950 . S
H2846 C2858 0.950 . S
H2847 C2859 0.950 . S
C2848 H2840 0.950 . S
C2848 C2849 1.386 . S
C2848 C2850 1.391 . S
C2849 C2848 1.386 . S
C2849 C2853 1.393 . S
C2850 H2842 0.950 . S
C2850 C2848 1.391 . S
C2850 C2851 1.400 . S
C2851 C2850 1.400 . S
C2851 C2852 1.398 . S
C2851 C2857 1.491 . S
C2852 H2843 0.950 . S
C2852 C2851 1.398 . S
C2852 C2853 1.391 . S
C2853 H2841 0.950 . S
C2853 C2849 1.393 . S
C2853 C2852 1.391 . S
C2854 H2844 0.950 . S
C2854 C2855 1.386 . S
C2854 C2856 1.391 . S
C2855 C2854 1.386 . S
C2855 C2859 1.393 . S
C2856 H2845 0.950 . S
C2856 C2854 1.391 . S
C2856 C2857 1.400 . S
C2857 C2851 1.491 . S
C2857 C2856 1.400 . S
C2857 C2858 1.398 . S
C2858 H2846 0.950 . S
C2858 C2857 1.398 . S
C2858 C2859 1.391 . S
C2859 H2847 0.950 . S
C2859 C2855 1.393 . S
C2859 C2858 1.391 . S
H2860 C2868 0.950 . S
H2861 C2873 0.950 . S
H2862 C2870 0.950 . S
H2863 C2872 0.950 . S
H2864 C2874 0.950 . S
H2865 C2876 0.950 . S
H2866 C2878 0.950 . S
H2867 C2879 0.950 . S
C2868 H2860 0.950 . S
C2868 C2869 1.386 . S
C2868 C2870 1.391 . S
C2869 C2868 1.386 . S
C2869 C2873 1.393 . S
C2870 H2862 0.950 . S
C2870 C2868 1.391 . S
C2870 C2871 1.400 . S
C2871 C2870 1.400 . S
C2871 C2872 1.398 . S
C2871 C2877 1.491 . S
C2872 H2863 0.950 . S
C2872 C2871 1.398 . S
C2872 C2873 1.391 . S
C2873 H2861 0.950 . S
C2873 C2869 1.393 . S
C2873 C2872 1.391 . S
C2874 H2864 0.950 . S
C2874 C2875 1.386 . S
C2874 C2876 1.391 . S
C2875 C2874 1.386 . S
C2875 C2879 1.393 . S
C2876 H2865 0.950 . S
C2876 C2874 1.391 . S
C2876 C2877 1.400 . S
C2877 C2871 1.491 . S
C2877 C2876 1.400 . S
C2877 C2878 1.398 . S
C2878 H2866 0.950 . S
C2878 C2877 1.398 . S
C2878 C2879 1.391 . S
C2879 H2867 0.950 . S
C2879 C2875 1.393 . S
C2879 C2878 1.391 . S
H2880 C2888 0.950 . S
H2881 C2893 0.950 . S
H2882 C2890 0.950 . S
H2883 C2892 0.950 . S
H2884 C2894 0.950 . S
H2885 C2896 0.950 . S
H2886 C2898 0.950 . S
H2887 C2899 0.950 . S
C2888 H2880 0.950 . S
C2888 C2889 1.386 . S
C2888 C2890 1.391 . S
C2889 C2888 1.386 . S
C2889 C2893 1.393 . S
C2890 H2882 0.950 . S
C2890 C2888 1.391 . S
C2890 C2891 1.400 . S
C2891 C2890 1.400 . S
C2891 C2892 1.398 . S
C2891 C2897 1.491 . S
C2892 H2883 0.950 . S
C2892 C2891 1.398 . S
C2892 C2893 1.391 . S
C2893 H2881 0.950 . S
C2893 C2889 1.393 . S
C2893 C2892 1.391 . S
C2894 H2884 0.950 . S
C2894 C2895 1.386 . S
C2894 C2896 1.391 . S
C2895 C2894 1.386 . S
C2895 C2899 1.393 . S
C2896 H2885 0.950 . S
C2896 C2894 1.391 . S
C2896 C2897 1.400 . S
C2897 C2891 1.491 . S
C2897 C2896 1.400 . S
C2897 C2898 1.398 . S
C2898 H2886 0.950 . S
C2898 C2897 1.398 . S
C2898 C2899 1.391 . S
C2899 H2887 0.950 . S
C2899 C2895 1.393 . S
C2899 C2898 1.391 . S
H2900 C2908 0.950 . S
H2901 C2913 0.950 . S
H2902 C2910 0.950 . S
H2903 C2912 0.950 . S
H2904 C2914 0.950 . S
H2905 C2916 0.950 . S
H2906 C2918 0.990 . S
H2907 C2919 0.950 . S
C2908 H2900 0.950 . S
C2908 C2909 1.386 . S
C2908 C2910 1.391 . S
C2909 C2908 1.386 . S
C2909 C2913 1.393 . S
C2910 H2902 0.950 . S
C2910 C2908 1.391 . S
C2910 C2911 1.400 . S
C2911 C2910 1.400 . S
C2911 C2912 1.398 . S
C2911 C2917 1.491 . S
C2912 H2903 0.950 . S
C2912 C2911 1.398 . S
C2912 C2913 1.391 . S
C2913 H2901 0.950 . S
C2913 C2909 1.393 . S
C2913 C2912 1.391 . S
C2914 H2904 0.950 . S
C2914 C2915 1.386 . S
C2914 C2916 1.391 . S
C2915 C2914 1.386 . S
C2915 C2919 1.393 1_565 S
C2916 H2905 0.950 . S
C2916 C2914 1.391 . S
C2916 C2917 1.400 . S
C2917 C2911 1.491 . S
C2917 C2916 1.400 . S
C2917 C2918 1.398 . S
C2918 H2906 0.990 . S
C2918 C2917 1.398 . S
C2918 C2919 1.391 1_565 S
C2919 H2907 0.950 . S
C2919 C2915 1.393 1_545 S
C2919 C2918 1.391 1_545 S
H2920 C2928 0.950 . S
H2921 C2933 0.950 . S
H2922 C2930 0.950 . S
H2923 C2932 0.950 . S
H2924 C2934 0.950 . S
H2925 C2936 0.950 . S
H2926 C2938 0.950 . S
H2927 C2939 0.950 . S
C2928 H2920 0.950 . S
C2928 C2929 1.386 . S
C2928 C2930 1.391 . S
C2929 C2928 1.386 . S
C2929 C2933 1.393 1_455 S
C2930 H2922 0.950 . S
C2930 C2928 1.391 . S
C2930 C2931 1.400 . S
C2931 C2930 1.400 . S
C2931 C2932 1.398 . S
C2931 C2937 1.491 . S
C2932 H2923 0.950 . S
C2932 C2931 1.398 . S
C2932 C2933 1.391 1_455 S
C2933 H2921 0.950 . S
C2933 C2929 1.393 1_655 S
C2933 C2932 1.391 1_655 S
C2934 H2924 0.950 . S
C2934 C2935 1.386 . S
C2934 C2936 1.391 . S
C2935 C2934 1.386 . S
C2935 C2939 1.393 . S
C2936 H2925 0.950 . S
C2936 C2934 1.391 . S
C2936 C2937 1.400 . S
C2937 C2931 1.491 . S
C2937 C2936 1.400 . S
C2937 C2938 1.398 . S
C2938 H2926 0.950 . S
C2938 C2937 1.398 . S
C2938 C2939 1.391 . S
C2939 H2927 0.950 . S
C2939 C2935 1.393 . S
C2939 C2938 1.391 . S
H2940 C2948 0.950 . S
H2941 C2953 0.950 . S
H2942 C2950 0.950 . S
H2943 C2952 0.950 . S
H2944 C2954 0.950 . S
H2945 C2956 0.950 . S
H2946 C2958 0.950 . S
H2947 C2959 0.950 . S
C2948 H2940 0.950 . S
C2948 C2949 1.386 . S
C2948 C2950 1.391 . S
C2949 C2948 1.386 . S
C2949 C2953 1.393 . S
C2950 H2942 0.950 . S
C2950 C2948 1.391 . S
C2950 C2951 1.400 . S
C2951 C2950 1.400 . S
C2951 C2952 1.398 . S
C2951 C2957 1.491 . S
C2952 H2943 0.950 . S
C2952 C2951 1.398 . S
C2952 C2953 1.391 . S
C2953 H2941 0.950 . S
C2953 C2949 1.393 . S
C2953 C2952 1.391 . S
C2954 H2944 0.950 . S
C2954 C2955 1.386 . S
C2954 C2956 1.391 . S
C2955 C2954 1.386 . S
C2955 C2959 1.393 . S
C2956 H2945 0.950 . S
C2956 C2954 1.391 . S
C2956 C2957 1.400 . S
C2957 C2951 1.491 . S
C2957 C2956 1.400 . S
C2957 C2958 1.398 . S
C2958 H2946 0.950 . S
C2958 C2957 1.398 . S
C2958 C2959 1.391 . S
C2959 H2947 0.950 . S
C2959 C2955 1.393 . S
C2959 C2958 1.391 . S
H2960 C2968 0.950 . S
H2961 C2973 0.950 . S
H2962 C2970 0.950 1_565 S
H2963 C2972 0.950 . S
H2964 C2974 0.950 . S
H2965 C2976 0.950 . S
H2966 C2978 0.950 . S
H2967 C2979 0.950 . S
C2968 H2960 0.950 . S
C2968 C2969 1.386 1_565 S
C2968 C2970 1.391 1_565 S
C2969 C2968 1.386 1_545 S
C2969 C2973 1.393 . S
C2970 H2962 0.950 1_545 S
C2970 C2968 1.391 1_545 S
C2970 C2971 1.400 . S
C2971 C2970 1.400 . S
C2971 C2972 1.398 . S
C2971 C2977 1.491 . S
C2972 H2963 0.950 . S
C2972 C2971 1.398 . S
C2972 C2973 1.391 . S
C2973 H2961 0.950 . S
C2973 C2969 1.393 . S
C2973 C2972 1.391 . S
C2974 H2964 0.950 . S
C2974 C2975 1.386 . S
C2974 C2976 1.391 . S
C2975 C2974 1.386 . S
C2975 C2979 1.393 . S
C2976 H2965 0.950 . S
C2976 C2974 1.391 . S
C2976 C2977 1.400 . S
C2977 C2971 1.491 . S
C2977 C2976 1.400 . S
C2977 C2978 1.398 . S
C2978 H2966 0.950 . S
C2978 C2977 1.398 . S
C2978 C2979 1.391 . S
C2979 H2967 0.950 . S
C2979 C2975 1.393 . S
C2979 C2978 1.391 . S
H2980 C2988 0.950 . S
H2981 C2993 0.950 . S
H2982 C2990 0.950 . S
H2983 C2992 0.950 . S
H2984 C2994 0.950 . S
H2985 C2996 0.950 . S
H2986 C2998 0.950 . S
H2987 C2999 0.950 . S
C2988 H2980 0.950 . S
C2988 C2989 1.386 . S
C2988 C2990 1.391 . S
C2989 C2988 1.386 . S
C2989 C2993 1.393 1_655 S
C2990 H2982 0.950 . S
C2990 C2988 1.391 . S
C2990 C2991 1.400 . S
C2991 C2990 1.400 . S
C2991 C2992 1.398 . S
C2991 C2997 1.491 . S
C2992 H2983 0.950 . S
C2992 C2991 1.398 . S
C2992 C2993 1.391 1_655 S
C2993 H2981 0.950 . S
C2993 C2989 1.393 1_455 S
C2993 C2992 1.391 1_455 S
C2994 H2984 0.950 . S
C2994 C2995 1.386 . S
C2994 C2996 1.391 . S
C2995 C2994 1.386 . S
C2995 C2999 1.393 . S
C2996 H2985 0.950 . S
C2996 C2994 1.391 . S
C2996 C2997 1.400 . S
C2997 C2991 1.491 . S
C2997 C2996 1.400 . S
C2997 C2998 1.398 . S
C2998 H2986 0.950 . S
C2998 C2997 1.398 . S
C2998 C2999 1.391 . S
C2999 H2987 0.950 . S
C2999 C2995 1.393 . S
C2999 C2998 1.391 . S
H3000 C3008 0.950 . S
H3001 C3013 0.950 . S
H3002 C3010 0.950 . S
H3003 C3012 0.950 . S
H3004 C3014 0.950 . S
H3005 C3016 0.950 . S
H3006 C3018 0.950 . S
H3007 C3019 0.950 . S
C3008 H3000 0.950 . S
C3008 C3009 1.386 . S
C3008 C3010 1.391 . S
C3009 C3008 1.386 . S
C3009 C3013 1.393 . S
C3010 H3002 0.950 . S
C3010 C3008 1.391 . S
C3010 C3011 1.400 . S
C3011 C3010 1.400 . S
C3011 C3012 1.398 . S
C3011 C3017 1.491 . S
C3012 H3003 0.950 . S
C3012 C3011 1.398 . S
C3012 C3013 1.391 . S
C3013 H3001 0.950 . S
C3013 C3009 1.393 . S
C3013 C3012 1.391 . S
C3014 H3004 0.950 . S
C3014 C3015 1.386 . S
C3014 C3016 1.391 . S
C3015 C3014 1.386 . S
C3015 C3019 1.393 . S
C3016 H3005 0.950 . S
C3016 C3014 1.391 . S
C3016 C3017 1.400 . S
C3017 C3011 1.491 . S
C3017 C3016 1.400 . S
C3017 C3018 1.398 . S
C3018 H3006 0.950 . S
C3018 C3017 1.398 . S
C3018 C3019 1.391 . S
C3019 H3007 0.950 . S
C3019 C3015 1.393 . S
C3019 C3018 1.391 . S
H3020 C3028 0.950 . S
H3021 C3033 0.950 . S
H3022 C3030 0.950 . S
H3023 C3032 0.950 . S
H3024 C3034 0.950 . S
H3025 C3036 0.950 . S
H3026 C3038 0.950 . S
H3027 C3039 0.950 . S
C3028 H3020 0.950 . S
C3028 C3029 1.386 1_565 S
C3028 C3030 1.391 1_565 S
C3029 C3028 1.386 1_545 S
C3029 C3033 1.393 . S
C3030 H3022 0.950 . S
C3030 C3028 1.391 1_545 S
C3030 C3031 1.400 . S
C3031 C3030 1.400 . S
C3031 C3032 1.398 . S
C3031 C3037 1.491 . S
C3032 H3023 0.950 . S
C3032 C3031 1.398 . S
C3032 C3033 1.391 . S
C3033 H3021 0.950 . S
C3033 C3029 1.393 . S
C3033 C3032 1.391 . S
C3034 H3024 0.950 . S
C3034 C3035 1.386 . S
C3034 C3036 1.391 . S
C3035 C3034 1.386 . S
C3035 C3039 1.393 . S
C3036 H3025 0.950 . S
C3036 C3034 1.391 . S
C3036 C3037 1.400 . S
C3037 C3031 1.491 . S
C3037 C3036 1.400 . S
C3037 C3038 1.398 . S
C3038 H3026 0.950 . S
C3038 C3037 1.398 . S
C3038 C3039 1.391 . S
C3039 H3027 0.950 . S
C3039 C3035 1.393 . S
C3039 C3038 1.391 . S
H3040 C3048 0.950 . S
H3041 C3053 0.950 . S
H3042 C3050 0.950 . S
H3043 C3052 0.950 . S
H3044 C3054 0.950 . S
H3045 C3056 0.951 1_455 S
H3046 C3058 0.950 . S
H3047 C3059 0.950 . S
C3048 H3040 0.950 . S
C3048 C3049 1.386 . S
C3048 C3050 1.391 . S
C3049 C3048 1.386 . S
C3049 C3053 1.393 . S
C3050 H3042 0.950 . S
C3050 C3048 1.391 . S
C3050 C3051 1.400 . S
C3051 C3050 1.400 . S
C3051 C3052 1.398 . S
C3051 C3057 1.491 . S
C3052 H3043 0.950 . S
C3052 C3051 1.398 . S
C3052 C3053 1.391 . S
C3053 H3041 0.950 . S
C3053 C3049 1.393 . S
C3053 C3052 1.391 . S
C3054 H3044 0.950 . S
C3054 C3055 1.386 1_455 S
C3054 C3056 1.391 1_455 S
C3055 C3054 1.386 1_655 S
C3055 C3059 1.393 . S
C3056 H3045 0.951 1_655 S
C3056 C3054 1.391 1_655 S
C3056 C3057 1.400 . S
C3057 C3051 1.491 . S
C3057 C3056 1.400 . S
C3057 C3058 1.398 . S
C3058 H3046 0.950 . S
C3058 C3057 1.398 . S
C3058 C3059 1.391 . S
C3059 H3047 0.950 . S
C3059 C3055 1.393 . S
C3059 C3058 1.391 . S
H3060 C3068 0.950 . S
H3061 C3073 0.950 . S
H3062 C3070 0.950 . S
H3063 C3072 0.950 . S
H3064 C3074 0.950 . S
H3065 C3076 0.950 . S
H3066 C3078 0.950 . S
H3067 C3079 0.950 . S
C3068 H3060 0.950 . S
C3068 C3069 1.386 . S
C3068 C3070 1.391 . S
C3069 C3068 1.386 . S
C3069 C3073 1.393 . S
C3070 H3062 0.950 . S
C3070 C3068 1.391 . S
C3070 C3071 1.400 . S
C3071 C3070 1.400 . S
C3071 C3072 1.398 . S
C3071 C3077 1.491 . S
C3072 H3063 0.950 . S
C3072 C3071 1.398 . S
C3072 C3073 1.391 . S
C3073 H3061 0.950 . S
C3073 C3069 1.393 . S
C3073 C3072 1.391 . S
C3074 H3064 0.950 . S
C3074 C3075 1.386 . S
C3074 C3076 1.391 . S
C3075 C3074 1.386 . S
C3075 C3079 1.393 . S
C3076 H3065 0.950 . S
C3076 C3074 1.391 . S
C3076 C3077 1.400 . S
C3077 C3071 1.491 . S
C3077 C3076 1.400 . S
C3077 C3078 1.398 . S
C3078 H3066 0.950 . S
C3078 C3077 1.398 . S
C3078 C3079 1.391 . S
C3079 H3067 0.950 . S
C3079 C3075 1.393 . S
C3079 C3078 1.391 . S
H3080 C3088 0.950 . S
H3081 C3093 0.950 . S
H3082 C3090 0.950 . S
H3083 C3092 0.950 . S
H3084 C3094 0.950 . S
H3085 C3096 0.950 1_545 S
H3086 C3098 0.950 . S
H3087 C3099 0.950 . S
C3088 H3080 0.950 . S
C3088 C3089 1.386 . S
C3088 C3090 1.391 . S
C3089 C3088 1.386 . S
C3089 C3093 1.393 . S
C3090 H3082 0.950 . S
C3090 C3088 1.391 . S
C3090 C3091 1.400 . S
C3091 C3090 1.400 . S
C3091 C3092 1.398 . S
C3091 C3097 1.491 . S
C3092 H3083 0.950 . S
C3092 C3091 1.398 . S
C3092 C3093 1.391 . S
C3093 H3081 0.950 . S
C3093 C3089 1.393 . S
C3093 C3092 1.391 . S
C3094 H3084 0.950 . S
C3094 C3095 1.386 1_545 S
C3094 C3096 1.391 1_545 S
C3095 C3094 1.386 1_565 S
C3095 C3099 1.393 . S
C3096 H3085 0.950 1_565 S
C3096 C3094 1.391 1_565 S
C3096 C3097 1.400 . S
C3097 C3091 1.491 . S
C3097 C3096 1.400 . S
C3097 C3098 1.398 . S
C3098 H3086 0.950 . S
C3098 C3097 1.398 . S
C3098 C3099 1.391 . S
C3099 H3087 0.950 . S
C3099 C3095 1.393 . S
C3099 C3098 1.391 . S
H3100 C3108 0.950 . S
H3101 C3113 0.950 . S
H3102 C3110 0.950 . S
H3103 C3112 0.950 . S
H3104 C3114 0.950 . S
H3105 C3116 0.950 . S
H3106 C3118 0.950 . S
H3107 C3119 0.950 . S
C3108 H3100 0.950 . S
C3108 C3109 1.386 . S
C3108 C3110 1.391 . S
C3109 C3108 1.386 . S
C3109 C3113 1.393 . S
C3110 H3102 0.950 . S
C3110 C3108 1.391 . S
C3110 C3111 1.400 . S
C3111 C3110 1.400 . S
C3111 C3112 1.398 . S
C3111 C3117 1.491 . S
C3112 H3103 0.950 . S
C3112 C3111 1.398 . S
C3112 C3113 1.391 . S
C3113 H3101 0.950 . S
C3113 C3109 1.393 . S
C3113 C3112 1.391 . S
C3114 H3104 0.950 . S
C3114 C3115 1.386 . S
C3114 C3116 1.391 . S
C3115 C3114 1.386 . S
C3115 C3119 1.393 . S
C3116 H3105 0.950 . S
C3116 C3114 1.391 . S
C3116 C3117 1.400 . S
C3117 C3111 1.491 . S
C3117 C3116 1.400 . S
C3117 C3118 1.398 . S
C3118 H3106 0.950 . S
C3118 C3117 1.398 . S
C3118 C3119 1.391 . S
C3119 H3107 0.950 . S
C3119 C3115 1.393 . S
C3119 C3118 1.391 . S
H3120 C3128 0.950 . S
H3121 C3133 0.950 . S
H3122 C3130 0.950 . S
H3123 C3132 0.950 . S
H3124 C3134 0.950 . S
H3125 C3136 0.950 . S
H3126 C3138 0.950 . S
H3127 C3139 0.950 . S
C3128 H3120 0.950 . S
C3128 C3129 1.386 . S
C3128 C3130 1.391 . S
C3129 C3128 1.386 . S
C3129 C3133 1.393 . S
C3130 H3122 0.950 . S
C3130 C3128 1.391 . S
C3130 C3131 1.400 . S
C3131 C3130 1.400 . S
C3131 C3132 1.398 . S
C3131 C3137 1.491 1_655 S
C3132 H3123 0.950 . S
C3132 C3131 1.398 . S
C3132 C3133 1.391 . S
C3133 H3121 0.950 . S
C3133 C3129 1.393 . S
C3133 C3132 1.391 . S
C3134 H3124 0.950 . S
C3134 C3135 1.386 . S
C3134 C3136 1.391 . S
C3135 C3134 1.386 . S
C3135 C3139 1.393 . S
C3136 H3125 0.950 . S
C3136 C3134 1.391 . S
C3136 C3137 1.400 . S
C3137 C3131 1.491 1_455 S
C3137 C3136 1.400 . S
C3137 C3138 1.398 . S
C3138 H3126 0.950 . S
C3138 C3137 1.398 . S
C3138 C3139 1.391 . S
C3139 H3127 0.950 . S
C3139 C3135 1.393 . S
C3139 C3138 1.391 . S
H3140 C3148 0.950 . S
H3141 C3153 0.950 . S
H3142 C3150 0.950 . S
H3143 C3152 0.950 . S
H3144 C3154 0.950 . S
H3145 C3156 0.950 . S
H3146 C3158 0.950 . S
H3147 C3159 0.950 . S
C3148 H3140 0.950 . S
C3148 C3149 1.386 . S
C3148 C3150 1.391 . S
C3149 C3148 1.386 . S
C3149 C3153 1.393 . S
C3150 H3142 0.950 . S
C3150 C3148 1.391 . S
C3150 C3151 1.400 . S
C3151 C3150 1.400 . S
C3151 C3152 1.398 . S
C3151 C3157 1.491 . S
C3152 H3143 0.950 . S
C3152 C3151 1.398 . S
C3152 C3153 1.391 . S
C3153 H3141 0.950 . S
C3153 C3149 1.393 . S
C3153 C3152 1.391 . S
C3154 H3144 0.950 . S
C3154 C3155 1.386 . S
C3154 C3156 1.391 . S
C3155 C3154 1.386 . S
C3155 C3159 1.393 . S
C3156 H3145 0.950 . S
C3156 C3154 1.391 . S
C3156 C3157 1.400 . S
C3157 C3151 1.491 . S
C3157 C3156 1.400 . S
C3157 C3158 1.398 . S
C3158 H3146 0.950 . S
C3158 C3157 1.398 . S
C3158 C3159 1.391 . S
C3159 H3147 0.950 . S
C3159 C3155 1.393 . S
C3159 C3158 1.391 . S
H3160 C3168 0.950 . S
H3161 C3173 0.950 . S
H3162 C3170 0.950 . S
H3163 C3172 0.950 . S
H3164 C3174 0.950 . S
H3165 C3176 0.950 . S
H3166 C3178 0.950 . S
H3167 C3179 0.950 . S
C3168 H3160 0.950 . S
C3168 C3169 1.386 . S
C3168 C3170 1.391 . S
C3169 C3168 1.386 . S
C3169 C3173 1.393 . S
C3170 H3162 0.950 . S
C3170 C3168 1.391 . S
C3170 C3171 1.400 . S
C3171 C3170 1.400 . S
C3171 C3172 1.398 . S
C3171 C3177 1.491 1_545 S
C3172 H3163 0.950 . S
C3172 C3171 1.398 . S
C3172 C3173 1.391 . S
C3173 H3161 0.950 . S
C3173 C3169 1.393 . S
C3173 C3172 1.391 . S
C3174 H3164 0.950 . S
C3174 C3175 1.386 . S
C3174 C3176 1.391 . S
C3175 C3174 1.386 . S
C3175 C3179 1.393 . S
C3176 H3165 0.950 . S
C3176 C3174 1.391 . S
C3176 C3177 1.400 . S
C3177 C3171 1.491 1_565 S
C3177 C3176 1.400 . S
C3177 C3178 1.398 . S
C3178 H3166 0.950 . S
C3178 C3177 1.398 . S
C3178 C3179 1.391 . S
C3179 H3167 0.950 . S
C3179 C3175 1.393 . S
C3179 C3178 1.391 . S
H3180 C3188 0.950 . S
H3181 C3193 0.950 . S
H3182 C3190 0.950 . S
H3183 C3192 0.950 . S
H3184 C3194 0.950 . S
H3185 C3196 0.950 . S
H3186 C3198 0.950 . S
H3187 C3199 0.950 . S
C3188 H3180 0.950 . S
C3188 C3189 1.386 . S
C3188 C3190 1.391 . S
C3189 C3188 1.386 . S
C3189 C3193 1.393 . S
C3190 H3182 0.950 . S
C3190 C3188 1.391 . S
C3190 C3191 1.400 . S
C3191 C3190 1.400 . S
C3191 C3192 1.398 . S
C3191 C3197 1.491 1_545 S
C3192 H3183 0.950 . S
C3192 C3191 1.398 . S
C3192 C3193 1.391 . S
C3193 H3181 0.950 . S
C3193 C3189 1.393 . S
C3193 C3192 1.391 . S
C3194 H3184 0.950 . S
C3194 C3195 1.386 . S
C3194 C3196 1.391 . S
C3195 C3194 1.386 . S
C3195 C3199 1.393 . S
C3196 H3185 0.950 . S
C3196 C3194 1.391 . S
C3196 C3197 1.400 . S
C3197 C3191 1.491 1_565 S
C3197 C3196 1.400 . S
C3197 C3198 1.398 . S
C3198 H3186 0.950 . S
C3198 C3197 1.398 . S
C3198 C3199 1.391 . S
C3199 H3187 0.950 . S
C3199 C3195 1.393 . S
C3199 C3198 1.391 . S
H3200 C3208 0.950 . S
H3201 C3213 0.950 . S
H3202 C3210 0.950 . S
H3203 C3212 0.950 . S
H3204 C3214 0.950 . S
H3205 C3216 0.950 . S
H3206 C3218 0.950 . S
H3207 C3219 0.950 . S
C3208 H3200 0.950 . S
C3208 C3209 1.386 . S
C3208 C3210 1.391 . S
C3209 C3208 1.386 . S
C3209 C3213 1.393 . S
C3210 H3202 0.950 . S
C3210 C3208 1.391 . S
C3210 C3211 1.400 . S
C3211 C3210 1.400 . S
C3211 C3212 1.398 . S
C3211 C3217 1.491 1_655 S
C3212 H3203 0.950 . S
C3212 C3211 1.398 . S
C3212 C3213 1.391 . S
C3213 H3201 0.950 . S
C3213 C3209 1.393 . S
C3213 C3212 1.391 . S
C3214 H3204 0.950 . S
C3214 C3215 1.386 . S
C3214 C3216 1.391 . S
C3215 C3214 1.386 . S
C3215 C3219 1.393 . S
C3216 H3205 0.950 . S
C3216 C3214 1.391 . S
C3216 C3217 1.400 . S
C3217 C3211 1.491 1_455 S
C3217 C3216 1.400 . S
C3217 C3218 1.398 . S
C3218 H3206 0.950 . S
C3218 C3217 1.398 . S
C3218 C3219 1.391 . S
C3219 H3207 0.950 . S
C3219 C3215 1.393 . S
C3219 C3218 1.391 . S
H3220 C3228 0.950 . S
H3221 C3233 0.950 . S
H3222 C3230 0.950 . S
H3223 C3232 0.950 . S
H3224 C3234 0.950 . S
H3225 C3236 0.950 . S
H3226 C3238 0.950 . S
H3227 C3239 0.950 . S
C3228 H3220 0.950 . S
C3228 C3229 1.386 . S
C3228 C3230 1.391 . S
C3229 C3228 1.386 . S
C3229 C3233 1.393 . S
C3230 H3222 0.950 . S
C3230 C3228 1.391 . S
C3230 C3231 1.400 . S
C3231 C3230 1.400 . S
C3231 C3232 1.398 . S
C3231 C3237 1.491 . S
C3232 H3223 0.950 . S
C3232 C3231 1.398 . S
C3232 C3233 1.391 . S
C3233 H3221 0.950 . S
C3233 C3229 1.393 . S
C3233 C3232 1.391 . S
C3234 H3224 0.950 . S
C3234 C3235 1.386 . S
C3234 C3236 1.391 . S
C3235 C3234 1.386 . S
C3235 C3239 1.393 . S
C3236 H3225 0.950 . S
C3236 C3234 1.391 . S
C3236 C3237 1.400 . S
C3237 C3231 1.491 . S
C3237 C3236 1.400 . S
C3237 C3238 1.398 . S
C3238 H3226 0.950 . S
C3238 C3237 1.398 . S
C3238 C3239 1.391 . S
C3239 H3227 0.950 . S
C3239 C3235 1.393 . S
C3239 C3238 1.391 . S
C1089 C27 1.359 . S
C1095 N224 1.365 . S
C1109 N254 1.350 . S
C1115 C57 1.351 . S
C1129 N194 1.364 . S
C1135 C87 1.357 . S
C1149 N344 1.353 . S
C1155 C117 1.341 . S
C1169 C147 1.339 . S
C1175 N284 1.351 . S
C1189 C177 1.346 . S
C1195 N314 1.358 . S
C1209 N36 1.361 . S
C1215 C196 1.350 . S
C1229 C226 1.345 . S
C1235 N66 1.345 . S
C1249 N6 1.348 . S
C1255 C256 1.337 . S
C1269 N156 1.364 . S
C1275 C286 1.360 . S
C1289 C316 1.360 . S
C1295 N96 1.363 . S
C1309 C346 1.351 . S
C1315 N126 1.350 . S
C1329 C387 1.342 . S
C1335 N584 1.344 . S
C1349 N614 1.353 . S
C1355 C417 1.354 . S
C1369 N554 1.363 . S
C1375 C447 1.354 . S
C1389 C477 1.340 . S
C1395 N704 1.352 . S
C1409 N644 1.362 . S
C1415 C507 1.352 . S
C1429 C537 1.343 . S
C1435 N674 1.344 . S
C1449 C556 1.358 . S
C1455 N396 1.358 . S
C1469 N426 1.356 . S
C1475 C586 1.343 . S
C1489 C616 1.343 . S
C1495 N366 1.355 . S
C1509 N516 1.354 . S
C1515 C646 1.342 . S
C1529 N456 1.343 . S
C1535 C676 1.340 . S
C1549 C706 1.345 . S
C1555 N486 1.357 . S
C1569 C747 1.360 . S
C1575 N944 1.364 . S
C1589 C777 1.346 . S
C1595 N974 1.358 . S
C1609 N914 1.357 . S
C1615 C807 1.345 . S
C1629 N1064 1.361 . S
C1635 C837 1.350 . S
C1649 C867 1.349 . S
C1655 N1004 1.360 . S
C1669 N1034 1.354 . S
C1675 C897 1.342 . S
C1689 N756 1.348 . S
C1695 C916 1.338 . S
C1709 C946 1.338 . S
C1715 N786 1.344 . S
C1729 N726 1.355 . S
C1735 C976 1.356 . S
C1749 C1006 1.354 . S
C1755 N876 1.353 . S
C1769 C1036 1.339 . S
C1775 N816 1.351 . S
C1789 C1066 1.340 . S
C1795 N846 1.351 . S
C1809 N14 0.759 . S
C1815 N546 0.759 . S
C1829 N44 0.777 . S
C1835 N576 0.777 . S
C1849 N606 0.769 . S
C1855 N74 0.769 . S
C1869 N996 0.756 . S
C1875 N104 0.756 . S
C1889 N1026 0.792 . S
C1895 N134 0.792 . S
C1909 N1056 0.801 . S
C1915 N164 0.801 . S
C1929 N186 0.760 . S
C1935 N734 0.760 . S
C1949 N764 0.785 . S
C1955 N216 0.785 . S
C1969 N246 0.749 . S
C1975 N794 0.749 . S
C1989 N276 0.756 . S
C1995 N464 0.756 . S
C2009 N306 0.799 . S
C2015 N494 0.799 . S
C2029 N336 0.777 . S
C2035 N524 0.777 . S
C2049 N374 0.750 . S
C2055 N906 0.750 . S
C2069 N936 0.805 . S
C2075 N404 0.805 . S
C2089 N434 0.805 . S
C2095 N966 0.805 . S
C2109 N824 0.749 . S
C2115 N636 0.749 . S
C2129 N666 0.778 . S
C2135 N854 0.778 . S
C2149 N884 0.798 . S
C2155 N696 0.798 . S
C2169 C1 2.200 1_556 S
C2175 C481 2.201 . S
C2189 C31 2.189 1_556 S
C2195 C511 2.191 . S
C2209 C451 2.185 . S
C2215 C61 2.184 1_556 S
C2229 C91 2.199 . S
C2235 C781 2.201 . S
C2249 C721 2.202 . S
C2255 C121 2.201 . S
C2269 C151 2.186 . S
C2275 C751 2.188 . S
C2289 C1030 2.197 . S
C2295 C190 2.199 1_554 S
C2309 C220 2.193 1_554 S
C2315 C1060 2.191 . S
C2329 C1000 2.202 . S
C2335 C250 2.202 1_554 S
C2349 C280 2.193 . S
C2355 C610 2.191 . S
C2369 C310 2.184 . S
C2375 C550 2.184 . S
C2389 C340 2.191 . S
C2395 C580 2.193 . S
C2409 C841 2.199 . S
C2415 C361 2.198 . S
C2429 C391 2.186 . S
C2435 C871 2.185 . S
C2449 C421 2.186 . S
C2455 C811 2.185 . S
C2469 C970 2.185 . S
C2475 C640 2.187 . S
C2489 C910 2.199 . S
C2495 C670 2.197 . S
C2509 C940 2.185 . S
C2515 C700 2.184 . S
C2529 C100 1.810 . S
C2535 C10 1.800 . S
C2549 C40 1.809 . S
C2555 C130 1.801 . S
C2569 C70 1.801 . S
C2575 C160 1.809 . S
C2589 C271 1.803 . S
C2595 C181 1.807 . S
C2609 C211 1.804 . S
C2615 C301 1.806 . S
C2629 C331 1.804 . S
C2635 C241 1.806 . S
C2649 C460 1.808 . S
C2655 C370 1.803 . S
C2669 C400 1.810 . S
C2675 C490 1.800 . S
C2689 C430 1.808 . S
C2695 C520 1.802 . S
C2709 C541 1.809 . S
C2715 C631 1.801 . S
C2729 C571 1.806 . S
C2735 C661 1.804 . S
C2749 C601 1.810 . S
C2755 C691 1.800 . S
C2769 C730 1.808 . S
C2775 C820 1.802 . S
C2789 C850 1.801 . S
C2795 C760 1.809 . S
C2809 C880 1.800 . S
C2815 C790 1.810 . S
C2829 C901 1.809 . S
C2835 C991 1.802 . S
C2849 C1021 1.808 . S
C2855 C931 1.802 . S
C2869 C961 1.800 . S
C2875 C1051 1.810 . S
C2889 C16 1.654 . S
C2895 C886 1.657 . S
C2909 C826 1.655 . S
C2915 C46 1.656 1_565 S
C2929 C76 1.659 1_455 S
C2935 C856 1.662 . S
C2949 C406 1.658 . S
C2955 C106 1.654 . S
C2969 C136 1.655 1_545 S
C2975 C436 1.655 . S
C2989 C166 1.662 1_655 S
C2995 C376 1.660 . S
C3009 C717 1.654 . S
C3015 C207 1.656 . S
C3029 C237 1.660 1_545 S
C3035 C657 1.662 . S
C3049 C687 1.654 . S
C3055 C267 1.657 1_655 S
C3069 C297 1.655 . S
C3075 C957 1.658 . S
C3089 C987 1.655 . S
C3095 C327 1.655 1_565 S
C3109 C927 1.660 . S
C3115 C357 1.656 1_455 S
C3129 C466 1.661 . S
C3135 C766 1.657 . S
C3149 C496 1.659 . S
C3155 C796 1.662 . S
C3169 C526 1.654 . S
C3175 C736 1.657 . S
C3189 C567 1.660 . S
C3195 C1077 1.662 . S
C3209 C597 1.662 . S
C3215 C1017 1.659 . S
C3229 C1047 1.662 . S
C3235 C627 1.659 . S
