# Generated by pormake.
# Topology umk, (4)-cn, num edge types: 1
# Building blocks:
#     Node 0, Type 0, BuildingBlock: CEKHIL_clean_sbu_0, # of connection points: 4
#     Node 1, Type 0, BuildingBlock: CEKHIL_clean_sbu_0, # of connection points: 4
#     Node 2, Type 0, BuildingBlock: CEKHIL_clean_sbu_0, # of connection points: 4
#     Node 3, Type 0, BuildingBlock: CEKHIL_clean_sbu_0, # of connection points: 4
#     Node 4, Type 0, BuildingBlock: CEKHIL_clean_sbu_0, # of connection points: 4
#     Node 5, Type 0, BuildingBlock: CEKHIL_clean_sbu_0, # of connection points: 4
#     Node 6, Type 0, BuildingBlock: CEKHIL_clean_sbu_0, # of connection points: 4
#     Node 7, Type 0, BuildingBlock: CEKHIL_clean_sbu_0, # of connection points: 4
#     Node 8, Type 0, BuildingBlock: CEKHIL_clean_sbu_0, # of connection points: 4
#     Node 9, Type 0, BuildingBlock: CEKHIL_clean_sbu_0, # of connection points: 4
#     Node 10, Type 0, BuildingBlock: CEKHIL_clean_sbu_0, # of connection points: 4
#     Node 11, Type 0, BuildingBlock: CEKHIL_clean_sbu_0, # of connection points: 4
#     Node 12, Type 0, BuildingBlock: CEKHIL_clean_sbu_0, # of connection points: 4
#     Node 13, Type 0, BuildingBlock: CEKHIL_clean_sbu_0, # of connection points: 4
#     Node 14, Type 0, BuildingBlock: CEKHIL_clean_sbu_0, # of connection points: 4
#     Node 15, Type 0, BuildingBlock: CEKHIL_clean_sbu_0, # of connection points: 4
#     Node 16, Type 0, BuildingBlock: CEKHIL_clean_sbu_0, # of connection points: 4
#     Node 17, Type 0, BuildingBlock: CEKHIL_clean_sbu_0, # of connection points: 4
#     Node 18, Type 0, BuildingBlock: CEKHIL_clean_sbu_0, # of connection points: 4
#     Node 19, Type 0, BuildingBlock: CEKHIL_clean_sbu_0, # of connection points: 4
#     Node 20, Type 0, BuildingBlock: CEKHIL_clean_sbu_0, # of connection points: 4
#     Node 21, Type 0, BuildingBlock: CEKHIL_clean_sbu_0, # of connection points: 4
#     Node 22, Type 0, BuildingBlock: CEKHIL_clean_sbu_0, # of connection points: 4
#     Node 23, Type 0, BuildingBlock: CEKHIL_clean_sbu_0, # of connection points: 4
#     Edge 24, Type (0, 0), BuildingBlock: UVAHIK_clean_linker_0, # of connection points: 2
#     Edge 25, Type (0, 0), BuildingBlock: UVAHIK_clean_linker_0, # of connection points: 2
#     Edge 26, Type (0, 0), BuildingBlock: UVAHIK_clean_linker_0, # of connection points: 2
#     Edge 27, Type (0, 0), BuildingBlock: UVAHIK_clean_linker_0, # of connection points: 2
#     Edge 28, Type (0, 0), BuildingBlock: UVAHIK_clean_linker_0, # of connection points: 2
#     Edge 29, Type (0, 0), BuildingBlock: UVAHIK_clean_linker_0, # of connection points: 2
#     Edge 30, Type (0, 0), BuildingBlock: UVAHIK_clean_linker_0, # of connection points: 2
#     Edge 31, Type (0, 0), BuildingBlock: UVAHIK_clean_linker_0, # of connection points: 2
#     Edge 32, Type (0, 0), BuildingBlock: UVAHIK_clean_linker_0, # of connection points: 2
#     Edge 33, Type (0, 0), BuildingBlock: UVAHIK_clean_linker_0, # of connection points: 2
#     Edge 34, Type (0, 0), BuildingBlock: UVAHIK_clean_linker_0, # of connection points: 2
#     Edge 35, Type (0, 0), BuildingBlock: UVAHIK_clean_linker_0, # of connection points: 2
#     Edge 36, Type (0, 0), BuildingBlock: UVAHIK_clean_linker_0, # of connection points: 2
#     Edge 37, Type (0, 0), BuildingBlock: UVAHIK_clean_linker_0, # of connection points: 2
#     Edge 38, Type (0, 0), BuildingBlock: UVAHIK_clean_linker_0, # of connection points: 2
#     Edge 39, Type (0, 0), BuildingBlock: UVAHIK_clean_linker_0, # of connection points: 2
#     Edge 40, Type (0, 0), BuildingBlock: UVAHIK_clean_linker_0, # of connection points: 2
#     Edge 41, Type (0, 0), BuildingBlock: UVAHIK_clean_linker_0, # of connection points: 2
#     Edge 42, Type (0, 0), BuildingBlock: UVAHIK_clean_linker_0, # of connection points: 2
#     Edge 43, Type (0, 0), BuildingBlock: UVAHIK_clean_linker_0, # of connection points: 2
#     Edge 44, Type (0, 0), BuildingBlock: UVAHIK_clean_linker_0, # of connection points: 2
#     Edge 45, Type (0, 0), BuildingBlock: UVAHIK_clean_linker_0, # of connection points: 2
#     Edge 46, Type (0, 0), BuildingBlock: UVAHIK_clean_linker_0, # of connection points: 2
#     Edge 47, Type (0, 0), BuildingBlock: UVAHIK_clean_linker_0, # of connection points: 2
#     Edge 48, Type (0, 0), BuildingBlock: UVAHIK_clean_linker_0, # of connection points: 2
#     Edge 49, Type (0, 0), BuildingBlock: UVAHIK_clean_linker_0, # of connection points: 2
#     Edge 50, Type (0, 0), BuildingBlock: UVAHIK_clean_linker_0, # of connection points: 2
#     Edge 51, Type (0, 0), BuildingBlock: UVAHIK_clean_linker_0, # of connection points: 2
#     Edge 52, Type (0, 0), BuildingBlock: UVAHIK_clean_linker_0, # of connection points: 2
#     Edge 53, Type (0, 0), BuildingBlock: UVAHIK_clean_linker_0, # of connection points: 2
#     Edge 54, Type (0, 0), BuildingBlock: UVAHIK_clean_linker_0, # of connection points: 2
#     Edge 55, Type (0, 0), BuildingBlock: UVAHIK_clean_linker_0, # of connection points: 2
#     Edge 56, Type (0, 0), BuildingBlock: UVAHIK_clean_linker_0, # of connection points: 2
#     Edge 57, Type (0, 0), BuildingBlock: UVAHIK_clean_linker_0, # of connection points: 2
#     Edge 58, Type (0, 0), BuildingBlock: UVAHIK_clean_linker_0, # of connection points: 2
#     Edge 59, Type (0, 0), BuildingBlock: UVAHIK_clean_linker_0, # of connection points: 2
#     Edge 60, Type (0, 0), BuildingBlock: UVAHIK_clean_linker_0, # of connection points: 2
#     Edge 61, Type (0, 0), BuildingBlock: UVAHIK_clean_linker_0, # of connection points: 2
#     Edge 62, Type (0, 0), BuildingBlock: UVAHIK_clean_linker_0, # of connection points: 2
#     Edge 63, Type (0, 0), BuildingBlock: UVAHIK_clean_linker_0, # of connection points: 2
#     Edge 64, Type (0, 0), BuildingBlock: UVAHIK_clean_linker_0, # of connection points: 2
#     Edge 65, Type (0, 0), BuildingBlock: UVAHIK_clean_linker_0, # of connection points: 2
#     Edge 66, Type (0, 0), BuildingBlock: UVAHIK_clean_linker_0, # of connection points: 2
#     Edge 67, Type (0, 0), BuildingBlock: UVAHIK_clean_linker_0, # of connection points: 2
#     Edge 68, Type (0, 0), BuildingBlock: UVAHIK_clean_linker_0, # of connection points: 2
#     Edge 69, Type (0, 0), BuildingBlock: UVAHIK_clean_linker_0, # of connection points: 2
#     Edge 70, Type (0, 0), BuildingBlock: UVAHIK_clean_linker_0, # of connection points: 2
#     Edge 71, Type (0, 0), BuildingBlock: UVAHIK_clean_linker_0, # of connection points: 2
# Relax obj value: 0.069
# Max RMSD: 0.047
# Mean RMSD: 0.047
data_MOF--net-umk--node1-CEKHIL_clean_sbu_0--edge1-UVAHIK_clean_linker_0
_symmetry_space_group_name_H-M    P1
_symmetry_Int_Tables_number       1
_symmetry_cell_setting            triclinic
loop_
_symmetry_equiv_pos_as_xyz
'x, y, z'
_cell_length_a     85.079872
_cell_length_b     85.161823
_cell_length_c     55.817722
_cell_angle_alpha  90.008767
_cell_angle_beta   89.993111
_cell_angle_gamma 120.09159
loop_
_atom_site_label
_atom_site_type_symbol
_atom_site_fract_x
_atom_site_fract_y
_atom_site_fract_z
_atom_type_partial_charge
Co0 Co 0.33074 0.46774 0.08452 0.0
O1 O 0.3143 0.47687 0.08065 0.0
O2 O 0.31668 0.4583 0.0552 0.0
C3 C 0.32416 0.46037 0.12364 0.0
O4 O 0.34577 0.45498 0.08338 0.0
Co5 Co 0.36271 0.4865 0.12101 0.0
O6 O 0.36611 0.46567 0.11354 0.0
C7 C 0.36428 0.50445 0.07512 0.0
C8 C 0.30872 0.46741 0.06113 0.0
C9 C 0.35842 0.45485 0.09603 0.0
O10 O 0.3505 0.48976 0.06711 0.0
O11 O 0.36985 0.50627 0.0968 0.0
O12 O 0.31379 0.44921 0.10713 0.0
O13 O 0.33697 0.47575 0.11597 0.0
Co14 Co 0.86689 0.33034 0.5829 0.0
O15 O 0.84137 0.3152 0.57636 0.0
O16 O 0.86334 0.31723 0.55302 0.0
C17 C 0.86511 0.32203 0.62171 0.0
O18 O 0.89475 0.34411 0.58453 0.0
Co19 Co 0.8799 0.36087 0.62147 0.0
O20 O 0.90299 0.36062 0.61848 0.0
C21 C 0.86655 0.3654 0.57449 0.0
C22 C 0.84601 0.30992 0.5572 0.0
C23 C 0.90676 0.35404 0.6003 0.0
O24 O 0.86678 0.3514 0.56602 0.0
O25 O 0.86976 0.3702 0.59651 0.0
O26 O 0.86618 0.31199 0.60499 0.0
O27 O 0.86378 0.33563 0.61431 0.0
Co28 Co 0.53764 0.86477 0.08404 0.0
O29 O 0.52624 0.83905 0.07875 0.0
O30 O 0.54612 0.85983 0.05411 0.0
C31 C 0.54463 0.86348 0.12278 0.0
O32 O 0.55277 0.89261 0.08438 0.0
Co33 Co 0.52213 0.88002 0.12233 0.0
O34 O 0.54635 0.90202 0.11879 0.0
C35 C 0.50331 0.86676 0.07578 0.0
C36 C 0.53572 0.84271 0.05927 0.0
C37 C 0.55605 0.90501 0.10009 0.0
O38 O 0.51664 0.86522 0.06746 0.0
O39 O 0.50251 0.87109 0.09754 0.0
O40 O 0.55526 0.86376 0.10586 0.0
O41 O 0.52988 0.86276 0.11567 0.0
Co42 Co 0.67316 0.5366 0.58591 0.0
O43 O 0.68958 0.5273 0.5837 0.0
O44 O 0.68707 0.54468 0.55635 0.0
C45 C 0.67971 0.54595 0.62438 0.0
O46 O 0.65823 0.54937 0.58277 0.0
Co47 Co 0.64109 0.51932 0.62242 0.0
O48 O 0.63755 0.53966 0.61256 0.0
C49 C 0.63906 0.49978 0.57788 0.0
C50 C 0.69506 0.53587 0.5635 0.0
C51 C 0.64544 0.54987 0.5946 0.0
O52 O 0.65334 0.51393 0.5697 0.0
O53 O 0.63321 0.49878 0.59927 0.0
O54 O 0.6902 0.55613 0.60723 0.0
O55 O 0.66692 0.53013 0.61789 0.0
Co56 Co 0.14017 0.67339 0.08441 0.0
O57 O 0.16571 0.68928 0.07876 0.0
O58 O 0.14388 0.68677 0.05474 0.0
C59 C 0.14051 0.68092 0.12331 0.0
O60 O 0.11225 0.65885 0.08517 0.0
Co61 Co 0.12747 0.64231 0.12212 0.0
O62 O 0.10408 0.64188 0.11873 0.0
C63 C 0.14192 0.63903 0.07542 0.0
C64 C 0.16116 0.69454 0.0595 0.0
C65 C 0.10022 0.6485 0.10068 0.0
O66 O 0.14138 0.65295 0.06727 0.0
O67 O 0.13845 0.63381 0.09726 0.0
O68 O 0.13973 0.69111 0.10658 0.0
O69 O 0.14276 0.66784 0.11593 0.0
Co70 Co 0.46848 0.13824 0.5848 0.0
O71 O 0.47715 0.16375 0.5814 0.0
O72 O 0.45905 0.14287 0.55549 0.0
C73 C 0.46071 0.13689 0.62383 0.0
O74 O 0.45622 0.11046 0.58321 0.0
Co75 Co 0.48752 0.1254 0.62127 0.0
O76 O 0.46712 0.10098 0.61327 0.0
C77 C 0.5056 0.14233 0.57564 0.0
C78 C 0.46779 0.1599 0.56179 0.0
C79 C 0.45635 0.09775 0.59568 0.0
O80 O 0.49085 0.1412 0.56757 0.0
O81 O 0.5074 0.1385 0.59728 0.0
O82 O 0.44957 0.13596 0.60721 0.0
O83 O 0.47628 0.13991 0.61635 0.0
Co84 Co 0.53757 0.67237 0.91355 0.0
O85 O 0.52673 0.68734 0.9171 0.0
O86 O 0.54562 0.68616 0.94324 0.0
C87 C 0.54593 0.67975 0.87492 0.0
O88 O 0.5521 0.65904 0.915 0.0
Co89 Co 0.52168 0.64073 0.87645 0.0
O90 O 0.54562 0.64254 0.88112 0.0
C91 C 0.5023 0.63666 0.922 0.0
C92 C 0.53575 0.69322 0.93693 0.0
C93 C 0.55527 0.64952 0.89981 0.0
O94 O 0.51586 0.6515 0.93005 0.0
O95 O 0.50158 0.63098 0.90056 0.0
O96 O 0.55605 0.6904 0.89198 0.0
O97 O 0.53064 0.6662 0.8817 0.0
Co98 Co 0.8665 0.53746 0.41571 0.0
O99 O 0.84069 0.52607 0.42073 0.0
O100 O 0.8614 0.54591 0.44549 0.0
C101 C 0.86539 0.54435 0.37687 0.0
O102 O 0.89434 0.55267 0.41587 0.0
Co103 Co 0.88263 0.5226 0.37783 0.0
O104 O 0.90436 0.54703 0.38142 0.0
C105 C 0.86875 0.50336 0.42408 0.0
C106 C 0.84429 0.53558 0.44019 0.0
C107 C 0.90697 0.55641 0.40033 0.0
O108 O 0.86691 0.51651 0.43239 0.0
O109 O 0.8735 0.50284 0.40244 0.0
O110 O 0.86555 0.55499 0.39367 0.0
O111 O 0.86481 0.52972 0.38412 0.0
Co112 Co 0.33158 0.86624 0.91514 0.0
O113 O 0.31619 0.84076 0.92139 0.0
O114 O 0.31823 0.86262 0.94491 0.0
C115 C 0.32352 0.86475 0.87625 0.0
O116 O 0.34572 0.89411 0.91367 0.0
Co117 Co 0.36232 0.87878 0.87689 0.0
O118 O 0.36286 0.9022 0.88025 0.0
C119 C 0.36624 0.86515 0.92393 0.0
C120 C 0.31084 0.84532 0.94054 0.0
C121 C 0.35618 0.90611 0.89821 0.0
O122 O 0.35239 0.86575 0.93224 0.0
O123 O 0.37114 0.8682 0.90193 0.0
O124 O 0.31346 0.8659 0.89289 0.0
O125 O 0.33695 0.86315 0.88378 0.0
Co126 Co 0.46863 0.33065 0.41411 0.0
O127 O 0.4782 0.31472 0.4192 0.0
O128 O 0.45913 0.31706 0.44379 0.0
C129 C 0.46153 0.32307 0.37518 0.0
O130 O 0.45529 0.34517 0.41372 0.0
Co131 Co 0.48688 0.36176 0.37646 0.0
O132 O 0.46385 0.36203 0.38007 0.0
C133 C 0.50478 0.36507 0.42311 0.0
C134 C 0.4685 0.30923 0.43853 0.0
C135 C 0.45349 0.35545 0.39826 0.0
O136 O 0.49039 0.35101 0.43123 0.0
O137 O 0.50643 0.37039 0.40132 0.0
O138 O 0.45038 0.31299 0.39187 0.0
O139 O 0.47679 0.33626 0.38262 0.0
Co140 Co 0.13772 0.46704 0.91329 0.0
O141 O 0.16338 0.47592 0.91603 0.0
O142 O 0.14296 0.45858 0.94296 0.0
C143 C 0.1352 0.45789 0.87477 0.0
O144 O 0.10996 0.45465 0.91588 0.0
Co145 Co 0.12383 0.48488 0.87643 0.0
O146 O 0.09964 0.46461 0.88565 0.0
C147 C 0.14111 0.50408 0.92129 0.0
C148 C 0.15988 0.46718 0.93615 0.0
C149 C 0.09691 0.45434 0.90367 0.0
O150 O 0.14086 0.48979 0.92954 0.0
O151 O 0.13656 0.50525 0.89979 0.0
O152 O 0.13507 0.4475 0.8919 0.0
O153 O 0.13847 0.47374 0.88134 0.0
Co154 Co 0.67428 0.13848 0.4143 0.0
O155 O 0.68931 0.16418 0.41959 0.0
O156 O 0.68768 0.143 0.44411 0.0
C157 C 0.68223 0.13889 0.37559 0.0
O158 O 0.66076 0.11059 0.41402 0.0
Co159 Co 0.64323 0.12407 0.37636 0.0
O160 O 0.64445 0.10156 0.37992 0.0
C161 C 0.6386 0.13794 0.42282 0.0
C162 C 0.69487 0.16016 0.43902 0.0
C163 C 0.65117 0.0983 0.39837 0.0
O164 O 0.65323 0.13883 0.43098 0.0
O165 O 0.63329 0.13375 0.4011 0.0
O166 O 0.69258 0.13875 0.39258 0.0
O167 O 0.66862 0.14044 0.38256 0.0
Co168 Co 0.67577 0.53745 0.91416 0.0
O169 O 0.69094 0.52691 0.9191 0.0
O170 O 0.68931 0.54632 0.94387 0.0
C171 C 0.68337 0.545 0.87533 0.0
O172 O 0.66219 0.55172 0.91432 0.0
Co173 Co 0.64445 0.52078 0.87654 0.0
O174 O 0.64555 0.54444 0.88049 0.0
C175 C 0.64027 0.50214 0.92276 0.0
C176 C 0.69655 0.53644 0.93859 0.0
C177 C 0.65241 0.55438 0.89897 0.0
O178 O 0.65483 0.51599 0.93095 0.0
O179 O 0.63492 0.50099 0.90106 0.0
O180 O 0.69387 0.55555 0.89221 0.0
O181 O 0.66987 0.52983 0.88247 0.0
Co182 Co 0.13951 0.67231 0.41379 0.0
O183 O 0.16505 0.6893 0.41716 0.0
O184 O 0.14415 0.68611 0.44333 0.0
C185 C 0.13752 0.67879 0.37503 0.0
O186 O 0.11171 0.65664 0.41536 0.0
Co187 Co 0.127 0.64058 0.37705 0.0
O188 O 0.10254 0.63642 0.38506 0.0
C189 C 0.14397 0.63941 0.42246 0.0
C190 C 0.16118 0.69458 0.43695 0.0
C191 C 0.09913 0.64384 0.40262 0.0
O192 O 0.14264 0.65288 0.43064 0.0
O193 O 0.14026 0.63389 0.40077 0.0
O194 O 0.13699 0.68902 0.39191 0.0
O195 O 0.14095 0.66641 0.38204 0.0
Co196 Co 0.46795 0.13949 0.91678 0.0
O197 O 0.47766 0.16489 0.92333 0.0
O198 O 0.45778 0.14266 0.94641 0.0
C199 C 0.46164 0.14107 0.8778 0.0
O200 O 0.4545 0.11164 0.915 0.0
Co201 Co 0.48675 0.12756 0.8787 0.0
O202 O 0.46393 0.10395 0.88162 0.0
C203 C 0.50389 0.14103 0.92605 0.0
C204 C 0.46751 0.16001 0.94228 0.0
C205 C 0.45318 0.0998 0.89945 0.0
O206 O 0.4893 0.14025 0.93417 0.0
O207 O 0.50593 0.13811 0.90407 0.0
O208 O 0.45021 0.13964 0.89428 0.0
O209 O 0.47672 0.1429 0.88553 0.0
Co210 Co 0.333 0.46815 0.41661 0.0
O211 O 0.31777 0.47837 0.4232 0.0
O212 O 0.3197 0.45831 0.44633 0.0
C213 C 0.32487 0.46184 0.3777 0.0
O214 O 0.34685 0.45415 0.41491 0.0
Co215 Co 0.36377 0.48601 0.37845 0.0
O216 O 0.36347 0.46267 0.38106 0.0
C217 C 0.36833 0.50341 0.42584 0.0
C218 C 0.3124 0.46831 0.44223 0.0
C219 C 0.35685 0.4522 0.39913 0.0
O220 O 0.35394 0.48928 0.43384 0.0
O221 O 0.37346 0.5051 0.40396 0.0
O222 O 0.31477 0.45059 0.39429 0.0
O223 O 0.33845 0.47678 0.38527 0.0
Co224 Co 0.86572 0.33041 0.91398 0.0
O225 O 0.84015 0.31333 0.91657 0.0
O226 O 0.8606 0.31649 0.9435 0.0
C227 C 0.86785 0.32406 0.87516 0.0
O228 O 0.89345 0.34605 0.91646 0.0
Co229 Co 0.8792 0.36237 0.87752 0.0
O230 O 0.90353 0.36659 0.88653 0.0
C231 C 0.8616 0.36349 0.9225 0.0
C232 C 0.84372 0.30799 0.93652 0.0
C233 C 0.9064 0.35898 0.90434 0.0
O234 O 0.86239 0.34973 0.93071 0.0
O235 O 0.86587 0.36923 0.90096 0.0
O236 O 0.86848 0.31386 0.89201 0.0
O237 O 0.86465 0.33656 0.88227 0.0
Co238 Co 0.53774 0.86529 0.41446 0.0
O239 O 0.52721 0.83969 0.42012 0.0
O240 O 0.54673 0.86106 0.44443 0.0
C241 C 0.54473 0.864 0.37572 0.0
O242 O 0.55208 0.89316 0.4137 0.0
Co243 Co 0.52109 0.87927 0.3761 0.0
O244 O 0.54487 0.90186 0.37931 0.0
C245 C 0.50267 0.86588 0.42284 0.0
C246 C 0.53683 0.84384 0.43952 0.0
C247 C 0.55481 0.90532 0.39786 0.0
O248 O 0.51639 0.865 0.43111 0.0
O249 O 0.50155 0.86991 0.40104 0.0
O250 O 0.55563 0.86482 0.39261 0.0
O251 O 0.52976 0.86275 0.38287 0.0
Co252 Co 0.46681 0.33193 0.08265 0.0
O253 O 0.47668 0.31622 0.07762 0.0
O254 O 0.45743 0.31829 0.053 0.0
C255 C 0.45958 0.32433 0.12159 0.0
O256 O 0.4534 0.34639 0.08261 0.0
Co257 Co 0.4847 0.363 0.12056 0.0
O258 O 0.46342 0.36582 0.11379 0.0
C259 C 0.50298 0.36635 0.0742 0.0
C260 C 0.46706 0.31075 0.05822 0.0
C261 C 0.45283 0.35848 0.09598 0.0
O262 O 0.48861 0.35243 0.06573 0.0
O263 O 0.50447 0.37136 0.09611 0.0
O264 O 0.44852 0.31419 0.10485 0.0
O265 O 0.47479 0.33758 0.1142 0.0
Co266 Co 0.14035 0.46757 0.58492 0.0
O267 O 0.16607 0.47815 0.57982 0.0
O268 O 0.14491 0.45853 0.55527 0.0
C269 C 0.14049 0.46016 0.62376 0.0
O270 O 0.11242 0.45328 0.58503 0.0
Co271 Co 0.12605 0.48456 0.62247 0.0
O272 O 0.10338 0.46091 0.61884 0.0
C273 C 0.14016 0.50281 0.57592 0.0
C274 C 0.16208 0.46852 0.56044 0.0
C275 C 0.10008 0.45078 0.60052 0.0
O276 O 0.14092 0.48897 0.56795 0.0
O277 O 0.13598 0.50408 0.59759 0.0
O278 O 0.14037 0.44957 0.60692 0.0
O279 O 0.14223 0.47533 0.61657 0.0
Co280 Co 0.67374 0.13786 0.08615 0.0
O281 O 0.68939 0.16362 0.08222 0.0
O282 O 0.687 0.14299 0.05611 0.0
C283 C 0.68147 0.13713 0.12469 0.0
O284 O 0.65981 0.10999 0.08507 0.0
Co285 Co 0.64257 0.12278 0.12394 0.0
O286 O 0.64393 0.10041 0.11945 0.0
C287 C 0.63819 0.13785 0.07836 0.0
C288 C 0.69477 0.16001 0.06231 0.0
C289 C 0.65046 0.09746 0.10055 0.0
O290 O 0.65294 0.13906 0.07005 0.0
O291 O 0.6327 0.133 0.09989 0.0
O292 O 0.69177 0.13716 0.10747 0.0
O293 O 0.66804 0.13907 0.11807 0.0
Co294 Co 0.53915 0.67392 0.58603 0.0
O295 O 0.53026 0.69068 0.58404 0.0
O296 O 0.54737 0.68787 0.55652 0.0
C297 C 0.54861 0.6802 0.62448 0.0
O298 O 0.55148 0.6586 0.58269 0.0
Co299 Co 0.52139 0.64182 0.62246 0.0
O300 O 0.54137 0.63776 0.61228 0.0
C301 C 0.5018 0.64059 0.57836 0.0
C302 C 0.53883 0.6961 0.56382 0.0
C303 C 0.55167 0.6456 0.59436 0.0
O304 O 0.51624 0.65439 0.56986 0.0
O305 O 0.5007 0.63488 0.59985 0.0
O306 O 0.55888 0.69066 0.60737 0.0
O307 O 0.53268 0.66766 0.61797 0.0
Co308 Co 0.86658 0.53596 0.08479 0.0
O309 O 0.84106 0.52552 0.07842 0.0
O310 O 0.86289 0.54541 0.05487 0.0
C311 C 0.86487 0.54262 0.12356 0.0
O312 O 0.89448 0.55009 0.08627 0.0
Co313 Co 0.87967 0.51852 0.12323 0.0
O314 O 0.90273 0.54189 0.12025 0.0
C315 C 0.86676 0.50075 0.07607 0.0
C316 C 0.84558 0.53535 0.0592 0.0
C317 C 0.90651 0.5522 0.10202 0.0
O318 O 0.86638 0.51475 0.06792 0.0
O319 O 0.87029 0.49923 0.09797 0.0
O320 O 0.86595 0.55367 0.10676 0.0
O321 O 0.86353 0.52764 0.11629 0.0
Co322 Co 0.33209 0.86609 0.58366 0.0
O323 O 0.31526 0.84057 0.58006 0.0
O324 O 0.31817 0.86149 0.55419 0.0
C325 C 0.32541 0.8673 0.62261 0.0
O326 O 0.34764 0.89388 0.58225 0.0
Co327 Co 0.3638 0.87887 0.62048 0.0
O328 O 0.3679 0.90329 0.61251 0.0
C329 C 0.36518 0.86209 0.57487 0.0
C330 C 0.30988 0.84444 0.56038 0.0
C331 C 0.36045 0.90656 0.59485 0.0
O332 O 0.35162 0.86325 0.56664 0.0
O333 O 0.37067 0.86583 0.59658 0.0
O334 O 0.31528 0.86822 0.60589 0.0
O335 O 0.33804 0.86435 0.61525 0.0
C336 C 0.30714 0.44001 0.15847 0.0
C337 C 0.32135 0.45651 0.14958 0.0
C338 C 0.30413 0.43736 0.18326 0.0
C339 C 0.3115 0.46381 0.23786 0.0
H340 H 0.31056 0.42422 0.27342 0.0
C341 C 0.33229 0.47177 0.33536 0.0
C342 C 0.32148 0.4581 0.3518 0.0
C343 C 0.32905 0.46896 0.31087 0.0
C344 C 0.31044 0.43515 0.26366 0.0
H345 H 0.34387 0.48288 0.15966 0.0
H346 H 0.33856 0.47831 0.2024 0.0
H347 H 0.3106 0.42373 0.22935 0.0
H348 H 0.29906 0.43053 0.35547 0.0
H349 H 0.29348 0.42553 0.31211 0.0
H350 H 0.31199 0.47561 0.27182 0.0
C351 C 0.32964 0.46749 0.19038 0.0
C352 C 0.31046 0.43487 0.23852 0.0
C353 C 0.33272 0.47005 0.16585 0.0
C354 C 0.30755 0.44133 0.34317 0.0
C355 C 0.30439 0.43845 0.31844 0.0
C356 C 0.31145 0.46408 0.26279 0.0
C357 C 0.31515 0.45129 0.19935 0.0
C358 C 0.31169 0.44956 0.22548 0.0
C359 C 0.31497 0.45238 0.30212 0.0
C360 C 0.31163 0.45013 0.27595 0.0
H361 H 0.2982 0.42932 0.14631 0.0
H362 H 0.29291 0.42472 0.1898 0.0
H363 H 0.3121 0.47514 0.22821 0.0
H364 H 0.34319 0.48481 0.34138 0.0
H365 H 0.33765 0.47983 0.2987 0.0
C366 C 0.86878 0.30493 0.65612 0.0
C367 C 0.86572 0.31871 0.64758 0.0
C368 C 0.86883 0.30193 0.68085 0.0
C369 C 0.85076 0.3091 0.73686 0.0
H370 H 0.89124 0.3096 0.76958 0.0
C371 C 0.86766 0.33254 0.83267 0.0
C372 C 0.86936 0.32114 0.84936 0.0
C373 C 0.86714 0.32911 0.80825 0.0
C374 C 0.8797 0.30908 0.76061 0.0
H375 H 0.86063 0.34029 0.65817 0.0
H376 H 0.86064 0.33502 0.70081 0.0
H377 H 0.89002 0.30887 0.72551 0.0
H378 H 0.87275 0.2977 0.85349 0.0
H379 H 0.8721 0.29182 0.81016 0.0
H380 H 0.84082 0.31017 0.77162 0.0
C381 C 0.86283 0.32642 0.68858 0.0
C382 C 0.87899 0.30865 0.73548 0.0
C383 C 0.86293 0.3295 0.66411 0.0
C384 C 0.87137 0.30666 0.841 0.0
C385 C 0.87101 0.30331 0.81631 0.0
C386 C 0.85149 0.30957 0.76177 0.0
C387 C 0.86557 0.31251 0.69725 0.0
C388 C 0.86485 0.30937 0.72344 0.0
C389 C 0.86843 0.31428 0.79982 0.0
C390 C 0.86629 0.31027 0.77385 0.0
H391 H 0.87104 0.29646 0.64374 0.0
H392 H 0.87104 0.29115 0.68713 0.0
H393 H 0.83952 0.3093 0.72803 0.0
H394 H 0.86623 0.3439 0.83846 0.0
H395 H 0.86547 0.33797 0.79587 0.0
C396 C 0.5654 0.86665 0.34166 0.0
C397 C 0.54869 0.86419 0.34993 0.0
C398 C 0.56836 0.86597 0.31703 0.0
C399 C 0.54286 0.84637 0.26176 0.0
H400 H 0.58243 0.88595 0.22714 0.0
C401 C 0.53525 0.86121 0.1653 0.0
C402 C 0.54863 0.86372 0.14856 0.0
C403 C 0.53815 0.86044 0.18967 0.0
C404 C 0.57154 0.87463 0.23665 0.0
H405 H 0.5222 0.8595 0.33894 0.0
H406 H 0.52731 0.85819 0.29645 0.0
H407 H 0.58242 0.88607 0.27122 0.0
H408 H 0.57582 0.86797 0.14426 0.0
H409 H 0.58104 0.86691 0.18751 0.0
H410 H 0.53151 0.83531 0.2275 0.0
C411 C 0.53806 0.86049 0.30885 0.0
C412 C 0.57153 0.8747 0.26178 0.0
C413 C 0.53519 0.86135 0.33321 0.0
C414 C 0.56525 0.86594 0.1568 0.0
C415 C 0.56825 0.86537 0.18145 0.0
C416 C 0.54287 0.8463 0.23683 0.0
C417 C 0.55455 0.86255 0.30049 0.0
C418 C 0.55679 0.86092 0.27447 0.0
C419 C 0.55455 0.86229 0.19801 0.0
C420 C 0.5568 0.86078 0.22404 0.0
H421 H 0.57606 0.86892 0.35418 0.0
H422 H 0.58122 0.86767 0.31096 0.0
H423 H 0.5315 0.83542 0.27115 0.0
H424 H 0.52232 0.85954 0.15958 0.0
H425 H 0.52748 0.85838 0.20209 0.0
C426 C 0.67147 0.53971 0.83366 0.0
C427 C 0.68536 0.55048 0.8499 0.0
C428 C 0.67287 0.54457 0.80963 0.0
C429 C 0.70472 0.56737 0.76173 0.0
H430 H 0.66187 0.56208 0.72965 0.0
C431 C 0.69786 0.56715 0.65779 0.0
C432 C 0.68188 0.55186 0.64963 0.0
C433 C 0.70006 0.57174 0.68219 0.0
C434 C 0.674 0.56374 0.73835 0.0
H435 H 0.71176 0.57471 0.85361 0.0
H436 H 0.71441 0.58303 0.81096 0.0
H437 H 0.66277 0.56155 0.7733 0.0
H438 H 0.65553 0.52971 0.66041 0.0
H439 H 0.65925 0.53775 0.70252 0.0
H440 H 0.71554 0.56857 0.72661 0.0
C441 C 0.70235 0.57094 0.81716 0.0
C442 C 0.67452 0.56346 0.7633 0.0
C443 C 0.70082 0.5662 0.84148 0.0
C444 C 0.66799 0.54158 0.66609 0.0
C445 C 0.67008 0.54627 0.69025 0.0
C446 C 0.70419 0.56761 0.73665 0.0
C447 C 0.68828 0.5602 0.80109 0.0
C448 C 0.68956 0.56452 0.7752 0.0
C449 C 0.68617 0.56128 0.69864 0.0
C450 C 0.6885 0.56503 0.72475 0.0
H451 H 0.65943 0.52746 0.83946 0.0
H452 H 0.66197 0.53584 0.79757 0.0
H453 H 0.71646 0.56816 0.77049 0.0
H454 H 0.7088 0.57527 0.64547 0.0
H455 H 0.7126 0.58337 0.6882 0.0
C456 C 0.1315 0.66698 0.3333 0.0
C457 C 0.13388 0.68055 0.34959 0.0
C458 C 0.12871 0.6686 0.30908 0.0
C459 C 0.13876 0.70173 0.26213 0.0
H460 H 0.10519 0.65884 0.22625 0.0
C461 C 0.13595 0.69762 0.15739 0.0
C462 C 0.13721 0.68274 0.14888 0.0
C463 C 0.13285 0.69898 0.18179 0.0
C464 C 0.11453 0.67098 0.23603 0.0
H465 H 0.13509 0.70647 0.35334 0.0
H466 H 0.13047 0.70947 0.31047 0.0
H467 H 0.10416 0.65825 0.26991 0.0
H468 H 0.13621 0.65769 0.15923 0.0
H469 H 0.1306 0.65994 0.2013 0.0
H470 H 0.14963 0.71415 0.22806 0.0
C471 C 0.13066 0.69752 0.31669 0.0
C472 C 0.11395 0.67064 0.26099 0.0
C473 C 0.13325 0.69578 0.34115 0.0
C474 C 0.13521 0.66927 0.16511 0.0
C475 C 0.13188 0.67049 0.18925 0.0
C476 C 0.13932 0.70208 0.23704 0.0
C477 C 0.12837 0.68391 0.30044 0.0
C478 C 0.12655 0.68574 0.27431 0.0
C479 C 0.13064 0.68531 0.19788 0.0
C480 C 0.12769 0.68644 0.22383 0.0
H481 H 0.13196 0.6551 0.33919 0.0
H482 H 0.12732 0.65803 0.29696 0.0
H483 H 0.14867 0.71355 0.27195 0.0
H484 H 0.13749 0.70822 0.14526 0.0
H485 H 0.13201 0.71058 0.18805 0.0
C486 C 0.47173 0.14337 0.83558 0.0
C487 C 0.4579 0.1403 0.85186 0.0
C488 C 0.46889 0.14329 0.81103 0.0
C489 C 0.43502 0.12636 0.76377 0.0
H490 H 0.47464 0.16462 0.72755 0.0
C491 C 0.44003 0.13328 0.65836 0.0
C492 C 0.45665 0.13573 0.64972 0.0
C493 C 0.43724 0.13377 0.68308 0.0
C494 C 0.46341 0.15391 0.73742 0.0
H495 H 0.43003 0.1343 0.85517 0.0
H496 H 0.42498 0.13401 0.81169 0.0
H497 H 0.47503 0.16604 0.77112 0.0
H498 H 0.48305 0.13989 0.66019 0.0
H499 H 0.47824 0.14086 0.70285 0.0
H500 H 0.42377 0.11398 0.72971 0.0
C501 C 0.43805 0.13656 0.81821 0.0
C502 C 0.46364 0.15471 0.76232 0.0
C503 C 0.44096 0.13678 0.843 0.0
C504 C 0.47014 0.13809 0.66619 0.0
C505 C 0.46743 0.13874 0.69066 0.0
C506 C 0.43477 0.12558 0.73865 0.0
C507 C 0.45213 0.14009 0.80205 0.0
C508 C 0.44983 0.14062 0.77579 0.0
C509 C 0.45114 0.13694 0.69935 0.0
C510 C 0.44934 0.13903 0.72536 0.0
H511 H 0.48491 0.14602 0.84177 0.0
H512 H 0.47988 0.1457 0.79901 0.0
H513 H 0.42421 0.11533 0.77375 0.0
H514 H 0.42938 0.13139 0.64605 0.0
H515 H 0.42453 0.13228 0.68942 0.0
C516 C 0.56986 0.69782 0.65812 0.0
C517 C 0.55458 0.68197 0.64966 0.0
C518 C 0.57446 0.69963 0.68251 0.0
C519 C 0.5666 0.67274 0.73778 0.0
H520 H 0.56992 0.71415 0.77144 0.0
C521 C 0.54173 0.66795 0.83325 0.0
C522 C 0.55187 0.68191 0.84968 0.0
C523 C 0.54691 0.66972 0.8093 0.0
C524 C 0.56944 0.7027 0.76227 0.0
H525 H 0.53247 0.65544 0.65987 0.0
H526 H 0.54054 0.65847 0.70192 0.0
H527 H 0.5707 0.71411 0.72757 0.0
H528 H 0.57541 0.70874 0.85391 0.0
H529 H 0.58431 0.71202 0.81148 0.0
H530 H 0.56438 0.66091 0.77231 0.0
C531 C 0.54904 0.6695 0.6899 0.0
C532 C 0.56991 0.70269 0.73718 0.0
C533 C 0.54433 0.66782 0.66578 0.0
C534 C 0.56737 0.69775 0.84162 0.0
C535 C 0.57244 0.69964 0.81741 0.0
C536 C 0.56612 0.67275 0.76275 0.0
C537 C 0.56403 0.68546 0.69861 0.0
C538 C 0.56771 0.68736 0.72473 0.0
C539 C 0.56226 0.68557 0.80107 0.0
C540 C 0.56676 0.68739 0.7752 0.0
H541 H 0.57796 0.70897 0.64606 0.0
H542 H 0.58607 0.71209 0.68879 0.0
H543 H 0.56522 0.66089 0.72864 0.0
H544 H 0.52968 0.65561 0.83881 0.0
H545 H 0.53859 0.65879 0.79705 0.0
C546 C 0.86327 0.53472 0.33449 0.0
C547 C 0.8656 0.54816 0.35101 0.0
C548 C 0.86242 0.53736 0.31006 0.0
C549 C 0.87607 0.5701 0.26245 0.0
H550 H 0.83676 0.52958 0.22874 0.0
C551 C 0.8678 0.56333 0.15766 0.0
C552 C 0.86503 0.54652 0.14937 0.0
C553 C 0.86722 0.56634 0.18229 0.0
C554 C 0.84775 0.54106 0.23789 0.0
H555 H 0.86944 0.57519 0.35483 0.0
H556 H 0.86823 0.57997 0.31146 0.0
H557 H 0.83693 0.53007 0.27238 0.0
H558 H 0.85982 0.51988 0.16033 0.0
H559 H 0.8587 0.52508 0.20285 0.0
H560 H 0.88728 0.58063 0.22768 0.0
C561 C 0.86691 0.56733 0.31776 0.0
C562 C 0.84783 0.54135 0.26282 0.0
C563 C 0.86756 0.56459 0.34247 0.0
C564 C 0.86192 0.53294 0.16608 0.0
C565 C 0.86117 0.53588 0.19047 0.0
C566 C 0.876 0.5698 0.23731 0.0
C567 C 0.864 0.55355 0.30143 0.0
C568 C 0.86233 0.55548 0.27535 0.0
C569 C 0.8636 0.55249 0.19884 0.0
C570 C 0.86219 0.55489 0.2249 0.0
H571 H 0.8618 0.52194 0.34042 0.0
H572 H 0.86049 0.52665 0.29783 0.0
H573 H 0.8874 0.58113 0.27175 0.0
H574 H 0.87029 0.57405 0.14515 0.0
H575 H 0.8692 0.5793 0.18834 0.0
C576 C 0.30828 0.87098 0.65698 0.0
C577 C 0.32242 0.86845 0.64846 0.0
C578 C 0.30497 0.87056 0.68168 0.0
C579 C 0.31084 0.85062 0.73629 0.0
H580 H 0.31091 0.88966 0.77218 0.0
C581 C 0.33099 0.86235 0.83392 0.0
C582 C 0.32029 0.86537 0.85037 0.0
C583 C 0.32792 0.86219 0.80943 0.0
C584 C 0.31048 0.8785 0.76231 0.0
H585 H 0.34455 0.86419 0.65912 0.0
H586 H 0.3387 0.86334 0.70174 0.0
H587 H 0.31153 0.89063 0.72811 0.0
H588 H 0.29826 0.87106 0.85403 0.0
H589 H 0.293 0.87096 0.81063 0.0
H590 H 0.31047 0.83876 0.77015 0.0
C591 C 0.33007 0.86547 0.68947 0.0
C592 C 0.31085 0.87906 0.73718 0.0
C593 C 0.33346 0.86605 0.66502 0.0
C594 C 0.30665 0.86862 0.84173 0.0
C595 C 0.30367 0.86862 0.81698 0.0
C596 C 0.31044 0.85004 0.7612 0.0
C597 C 0.31562 0.86738 0.69805 0.0
C598 C 0.31174 0.86545 0.72406 0.0
C599 C 0.31414 0.86511 0.80067 0.0
C600 C 0.31099 0.8643 0.77449 0.0
H601 H 0.2996 0.87291 0.64459 0.0
H602 H 0.29379 0.87214 0.68794 0.0
H603 H 0.31118 0.83979 0.72654 0.0
H604 H 0.34167 0.85989 0.83994 0.0
H605 H 0.33643 0.8598 0.79726 0.0
C606 C 0.44057 0.30608 0.34085 0.0
C607 C 0.45747 0.31991 0.34932 0.0
C608 C 0.43749 0.30297 0.31614 0.0
C609 C 0.46273 0.30958 0.26036 0.0
H610 H 0.42282 0.30981 0.22706 0.0
C611 C 0.46927 0.33194 0.16394 0.0
C612 C 0.4557 0.32097 0.14746 0.0
C613 C 0.46661 0.32848 0.18838 0.0
C614 C 0.43381 0.30935 0.2362 0.0
H615 H 0.48416 0.34154 0.33863 0.0
H616 H 0.47883 0.33606 0.29599 0.0
H617 H 0.42331 0.30963 0.27114 0.0
H618 H 0.42837 0.2981 0.14374 0.0
H619 H 0.42359 0.29216 0.18711 0.0
H620 H 0.47368 0.31008 0.22574 0.0
C621 C 0.46802 0.32751 0.30827 0.0
C622 C 0.4341 0.30925 0.26133 0.0
C623 C 0.47103 0.33071 0.33274 0.0
C624 C 0.43909 0.30673 0.15606 0.0
C625 C 0.43634 0.30335 0.18078 0.0
C626 C 0.46245 0.30968 0.23543 0.0
C627 C 0.45135 0.31349 0.2997 0.0
C628 C 0.44895 0.31008 0.27356 0.0
C629 C 0.45027 0.31402 0.19706 0.0
C630 C 0.44838 0.31028 0.22312 0.0
H631 H 0.42986 0.2976 0.35326 0.0
H632 H 0.42449 0.29211 0.30993 0.0
H633 H 0.47415 0.30986 0.26935 0.0
H634 H 0.48219 0.34309 0.15798 0.0
H635 H 0.47745 0.33712 0.20058 0.0
C636 C 0.13393 0.46543 0.66548 0.0
C637 C 0.13698 0.45467 0.64919 0.0
C638 C 0.13038 0.46049 0.68949 0.0
C639 C 0.13899 0.43721 0.73721 0.0
H640 H 0.10156 0.44265 0.76936 0.0
C641 C 0.13193 0.43675 0.84117 0.0
C642 C 0.13151 0.45213 0.84946 0.0
C643 C 0.12957 0.4323 0.81673 0.0
C644 C 0.11199 0.44094 0.76064 0.0
H645 H 0.13892 0.43037 0.64535 0.0
H646 H 0.1331 0.42191 0.68792 0.0
H647 H 0.10317 0.44353 0.72573 0.0
H648 H 0.12783 0.47458 0.83883 0.0
H649 H 0.12356 0.46678 0.79667 0.0
H650 H 0.14838 0.43561 0.77231 0.0
C651 C 0.13326 0.43405 0.6818 0.0
C652 C 0.1129 0.44144 0.7357 0.0
C653 C 0.13656 0.43888 0.65752 0.0
C654 C 0.12821 0.46264 0.83307 0.0
C655 C 0.12563 0.45809 0.80887 0.0
C656 C 0.1381 0.43676 0.76228 0.0
C657 C 0.13 0.44478 0.69793 0.0
C658 C 0.12685 0.44033 0.72378 0.0
C659 C 0.12643 0.44299 0.80036 0.0
C660 C 0.12504 0.43939 0.77422 0.0
H661 H 0.13425 0.47773 0.65974 0.0
H662 H 0.12826 0.4692 0.7016 0.0
H663 H 0.1499 0.43637 0.72844 0.0
H664 H 0.13451 0.42845 0.85344 0.0
H665 H 0.13027 0.4206 0.81061 0.0
C666 C 0.6709 0.13256 0.33362 0.0
C667 C 0.68463 0.13579 0.35015 0.0
C668 C 0.67278 0.12953 0.30956 0.0
C669 C 0.70565 0.14002 0.26251 0.0
H670 H 0.66368 0.10247 0.22888 0.0
C671 C 0.69983 0.13441 0.15814 0.0
C672 C 0.6839 0.13384 0.15003 0.0
C673 C 0.70199 0.13191 0.18252 0.0
C674 C 0.67558 0.11292 0.23802 0.0
H675 H 0.71123 0.13855 0.35442 0.0
H676 H 0.71472 0.13363 0.31178 0.0
H677 H 0.66383 0.10313 0.27255 0.0
H678 H 0.6577 0.12995 0.16098 0.0
H679 H 0.66134 0.12538 0.20297 0.0
H680 H 0.71695 0.15036 0.22778 0.0
C681 C 0.70242 0.13326 0.31773 0.0
C682 C 0.67566 0.1133 0.26298 0.0
C683 C 0.70041 0.13604 0.34205 0.0
C684 C 0.67011 0.13041 0.16657 0.0
C685 C 0.67214 0.12766 0.19066 0.0
C686 C 0.70555 0.13966 0.23741 0.0
C687 C 0.68853 0.12985 0.30133 0.0
C688 C 0.69035 0.12729 0.27544 0.0
C689 C 0.68809 0.12845 0.19896 0.0
C690 C 0.69017 0.12655 0.22498 0.0
H691 H 0.65862 0.13237 0.3392 0.0
H692 H 0.662 0.12728 0.29725 0.0
H693 H 0.71712 0.15097 0.27171 0.0
H694 H 0.7107 0.1371 0.14576 0.0
H695 H 0.71445 0.13264 0.18851 0.0
C696 C 0.1708 0.45599 0.9706 0.0
C697 C 0.17455 0.4666 0.94982 0.0
C698 C 0.18476 0.45498 0.9826 0.0
C699 C 0.21868 0.46371 0.01171 0.0
H700 H 0.25665 0.46274 0.97437 0.0
C701 C 0.28583 0.47717 0.05461 0.0
C702 C 0.29352 0.46672 0.04719 0.0
C703 C 0.27096 0.47614 0.04256 0.0
C704 C 0.24608 0.46282 0.98509 0.0
H705 H 0.19597 0.48471 0.9256 0.0
H706 H 0.22018 0.48316 0.94659 0.0
H707 H 0.2311 0.46239 0.95402 0.0
H708 H 0.29169 0.44708 0.02102 0.0
H709 H 0.26555 0.4452 -0.00013 0.0
H710 H 0.23355 0.46396 0.04278 0.0
C711 C 0.20646 0.47532 0.95344 0.0
C712 C 0.23152 0.46284 0.97341 0.0
C713 C 0.19256 0.47633 0.9415 0.0
C714 C 0.28611 0.45535 0.02714 0.0
C715 C 0.27116 0.45432 0.015 0.0
C716 C 0.23324 0.46371 0.02338 0.0
C717 C 0.20276 0.46454 0.97405 0.0
C718 C 0.21773 0.4635 0.98656 0.0
C719 C 0.2633 0.4646 0.02272 0.0
C720 C 0.24726 0.46349 0.01022 0.0
H721 H 0.15706 0.44828 0.97742 0.0
H722 H 0.18138 0.44644 0.99833 0.0
H723 H 0.2084 0.46434 0.02243 0.0
H724 H 0.29122 0.48616 0.06992 0.0
H725 H 0.26554 0.48454 0.04873 0.0
C726 C 0.72229 0.17163 0.46553 0.0
C727 C 0.70958 0.17465 0.45345 0.0
C728 C 0.73761 0.18611 0.4763 0.0
C729 C 0.7645 0.2371 0.47574 0.0
H730 H 0.78776 0.23051 0.53149 0.0
C731 C 0.8145 0.29344 0.54086 0.0
C732 C 0.83196 0.29555 0.54192 0.0
C733 C 0.80051 0.27886 0.52851 0.0
C734 C 0.78145 0.23245 0.51578 0.0
H735 H 0.70231 0.19488 0.44427 0.0
H736 H 0.72814 0.21978 0.46425 0.0
H737 H 0.76069 0.20449 0.51471 0.0
H738 H 0.84852 0.2841 0.53086 0.0
H739 H 0.82367 0.25806 0.5098 0.0
H740 H 0.78481 0.26532 0.47789 0.0
C741 C 0.727 0.20655 0.46452 0.0
C742 C 0.76596 0.21754 0.50604 0.0
C743 C 0.71199 0.19219 0.4533 0.0
C744 C 0.83523 0.28289 0.5301 0.0
C745 C 0.82105 0.26798 0.51824 0.0
C746 C 0.77971 0.25202 0.48582 0.0
C747 C 0.74036 0.20388 0.47564 0.0
C748 C 0.75714 0.21965 0.48594 0.0
C749 C 0.80357 0.26583 0.5175 0.0
C750 C 0.78828 0.24982 0.50591 0.0
H751 H 0.72085 0.15825 0.46569 0.0
H752 H 0.74757 0.1834 0.48439 0.0
H753 H 0.75858 0.23935 0.45988 0.0
H754 H 0.81161 0.30299 0.54985 0.0
H755 H 0.78712 0.27744 0.52817 0.0
C756 C 0.52254 0.80973 0.05041 0.0
C757 C 0.53524 0.82786 0.04479 0.0
C758 C 0.52263 0.79543 0.03831 0.0
C759 C 0.55209 0.78375 0.00325 0.0
H760 H 0.50636 0.74109 0.98651 0.0
C761 C 0.54714 0.71657 0.96999 0.0
C762 C 0.53532 0.70793 0.95065 0.0
C763 C 0.5473 0.73127 0.98164 0.0
C764 C 0.51927 0.75292 0.99093 0.0
H765 H 0.5579 0.84517 0.02175 0.0
H766 H 0.558 0.82005 0.00036 0.0
H767 H 0.50635 0.76702 0.0048 0.0
H768 H 0.51425 0.70781 0.92861 0.0
H769 H 0.51454 0.73323 0.94876 0.0
H770 H 0.56499 0.76962 0.98903 0.0
C771 C 0.54805 0.81697 0.01435 0.0
C772 C 0.51926 0.76775 0.00162 0.0
C773 C 0.5479 0.83136 0.02644 0.0
C774 C 0.5235 0.7141 0.94349 0.0
C775 C 0.5236 0.72866 0.95514 0.0
C776 C 0.5521 0.76884 0.9926 0.0
C777 C 0.53545 0.79882 0.02025 0.0
C778 C 0.53565 0.78336 0.00798 0.0
C779 C 0.53555 0.73752 0.97428 0.0
C780 C 0.53568 0.75324 0.98627 0.0
H781 H 0.51261 0.80652 0.06449 0.0
H782 H 0.51288 0.78166 0.04356 0.0
H783 H 0.56495 0.79547 0.00814 0.0
H784 H 0.55645 0.71218 0.97589 0.0
H785 H 0.55654 0.73767 0.99649 0.0
C786 C 0.71837 0.52638 0.55902 0.0
C787 C 0.7102 0.53601 0.55008 0.0
C788 C 0.73316 0.52697 0.54728 0.0
C789 C 0.7707 0.53901 0.52739 0.0
H790 H 0.77124 0.53589 0.45817 0.0
C791 C 0.83317 0.54707 0.47408 0.0
C792 C 0.82946 0.53538 0.45444 0.0
C793 C 0.819 0.54765 0.48615 0.0
C794 C 0.77127 0.53668 0.47753 0.0
H795 H 0.7111 0.55371 0.52157 0.0
H796 H 0.73705 0.55479 0.50098 0.0
H797 H 0.74568 0.53585 0.47803 0.0
H798 H 0.8079 0.51481 0.43252 0.0
H799 H 0.78335 0.51567 0.45363 0.0
H800 H 0.7961 0.53943 0.52692 0.0
C801 C 0.73189 0.54666 0.51706 0.0
C802 C 0.7567 0.53687 0.48891 0.0
C803 C 0.71705 0.54609 0.52888 0.0
C804 C 0.81128 0.52404 0.4475 0.0
C805 C 0.79717 0.52464 0.45949 0.0
C806 C 0.7853 0.53887 0.51601 0.0
C807 C 0.74022 0.53721 0.52624 0.0
C808 C 0.75613 0.53786 0.514 0.0
C809 C 0.80083 0.5366 0.47878 0.0
C810 C 0.78569 0.53751 0.49094 0.0
H811 H 0.71341 0.51841 0.57526 0.0
H812 H 0.73898 0.51924 0.55463 0.0
H813 H 0.77085 0.54003 0.54674 0.0
H814 H 0.84703 0.55602 0.47982 0.0
H815 H 0.82232 0.55709 0.50086 0.0
C816 C 0.28304 0.83395 0.9664 0.0
C817 C 0.29633 0.83117 0.95556 0.0
C818 C 0.26784 0.81946 0.97742 0.0
C819 C 0.24266 0.76846 0.9793 0.0
H820 H 0.2174 0.7751 0.03265 0.0
C821 C 0.19296 0.71213 0.04426 0.0
C822 C 0.17521 0.70931 0.04466 0.0
C823 C 0.20681 0.72694 0.03206 0.0
C824 C 0.22428 0.77314 0.01761 0.0
H825 H 0.30481 0.81148 0.94896 0.0
H826 H 0.27923 0.78668 0.9694 0.0
H827 H 0.24414 0.8014 0.01565 0.0
H828 H 0.15802 0.71979 0.03265 0.0
H829 H 0.18259 0.74623 0.01187 0.0
H830 H 0.22326 0.74003 0.98232 0.0
C831 C 0.27979 0.79964 0.96847 0.0
C832 C 0.23958 0.7882 0.00776 0.0
C833 C 0.29466 0.81395 0.957 0.0
C834 C 0.17154 0.72155 0.03242 0.0
C835 C 0.18557 0.7367 0.02072 0.0
C836 C 0.22765 0.75343 0.9895 0.0
C837 C 0.26582 0.80197 0.97823 0.0
C838 C 0.24914 0.78608 0.98855 0.0
C839 C 0.20331 0.73951 0.02054 0.0
C840 C 0.21838 0.75562 0.00877 0.0
H841 H 0.28392 0.84707 0.96531 0.0
H842 H 0.2574 0.82189 0.98448 0.0
H843 H 0.24915 0.76617 0.96409 0.0
H844 H 0.19617 0.70292 0.05356 0.0
H845 H 0.2204 0.72886 0.03215 0.0
C846 C 0.45584 0.17046 0.52772 0.0
C847 C 0.46672 0.17435 0.54827 0.0
C848 C 0.45449 0.18431 0.51591 0.0
C849 C 0.46185 0.23079 0.52554 0.0
H850 H 0.46381 0.2337 0.45625 0.0
C851 C 0.45571 0.28639 0.47222 0.0
C852 C 0.46759 0.29403 0.45267 0.0
C853 C 0.45426 0.27121 0.48421 0.0
C854 C 0.4633 0.23313 0.47563 0.0
H855 H 0.4849 0.19589 0.57231 0.0
H856 H 0.48272 0.21983 0.55173 0.0
H857 H 0.46384 0.20825 0.47621 0.0
H858 H 0.48755 0.29193 0.43078 0.0
H859 H 0.48519 0.26585 0.45168 0.0
H860 H 0.46184 0.25595 0.52498 0.0
C861 C 0.47495 0.20611 0.54489 0.0
C862 C 0.4631 0.2184 0.48707 0.0
C863 C 0.47633 0.19236 0.55658 0.0
C864 C 0.47818 0.28637 0.44568 0.0
C865 C 0.47671 0.27127 0.45755 0.0
C866 C 0.46199 0.2455 0.5141 0.0
C867 C 0.46394 0.20229 0.52449 0.0
C868 C 0.46268 0.21719 0.51219 0.0
C869 C 0.46461 0.26334 0.4768 0.0
C870 C 0.46303 0.24702 0.48901 0.0
H871 H 0.44822 0.15673 0.52091 0.0
H872 H 0.44581 0.18087 0.50031 0.0
H873 H 0.46124 0.23016 0.54492 0.0
H874 H 0.44732 0.29193 0.47799 0.0
H875 H 0.44475 0.26541 0.49892 0.0
C876 C 0.83467 0.55125 0.03163 0.0
C877 C 0.8314 0.53557 0.0441 0.0
C878 C 0.82036 0.55201 0.02021 0.0
C879 C 0.76947 0.52838 0.02027 0.0
H880 H 0.77633 0.55637 0.96249 0.0
C881 C 0.71502 0.52238 0.95069 0.0
C882 C 0.71123 0.53659 0.95307 0.0
C883 C 0.72972 0.523 0.96274 0.0
C884 C 0.77434 0.54863 0.97874 0.0
H885 H 0.81092 0.50808 0.05323 0.0
H886 H 0.78632 0.50895 0.03235 0.0
H887 H 0.80224 0.55557 0.98026 0.0
H888 H 0.71983 0.56256 0.97003 0.0
H889 H 0.74591 0.56374 0.99085 0.0
H890 H 0.74136 0.52087 0.01792 0.0
C891 C 0.79963 0.52102 0.03219 0.0
C892 C 0.78915 0.5482 0.98902 0.0
C893 C 0.8138 0.52042 0.04395 0.0
C894 C 0.72234 0.55135 0.96802 0.0
C895 C 0.73728 0.5521 0.97979 0.0
C896 C 0.75467 0.52863 0.00979 0.0
C897 C 0.80254 0.53698 0.02069 0.0
C898 C 0.78692 0.53793 0.00986 0.0
C899 C 0.74109 0.53795 0.97709 0.0
C900 C 0.75698 0.5387 0.98894 0.0
H901 H 0.84808 0.56319 0.03165 0.0
H902 H 0.8232 0.5646 0.01176 0.0
H903 H 0.76718 0.52068 0.03661 0.0
H904 H 0.70669 0.51082 0.93935 0.0
H905 H 0.73243 0.51193 0.96053 0.0
C906 C 0.1937 0.71838 0.44268 0.0
C907 C 0.1756 0.71007 0.45063 0.0
C908 C 0.20741 0.73355 0.45447 0.0
C909 C 0.21905 0.75826 0.51201 0.0
H910 H 0.25732 0.79663 0.47424 0.0
C911 C 0.28647 0.81185 0.5544 0.0
C912 C 0.2945 0.82996 0.54661 0.0
C913 C 0.27143 0.79804 0.54255 0.0
C914 C 0.24666 0.78616 0.48507 0.0
H915 H 0.15773 0.71114 0.47742 0.0
H916 H 0.18175 0.73778 0.49811 0.0
H917 H 0.23178 0.77121 0.45416 0.0
H918 H 0.29307 0.84771 0.52 0.0
H919 H 0.26663 0.82348 0.49917 0.0
H920 H 0.23386 0.77326 0.54291 0.0
C921 C 0.18533 0.73243 0.48277 0.0
C922 C 0.2321 0.77145 0.47356 0.0
C923 C 0.17155 0.71718 0.47091 0.0
C924 C 0.28724 0.8339 0.5264 0.0
C925 C 0.27211 0.82 0.51446 0.0
C926 C 0.23362 0.77296 0.52352 0.0
C927 C 0.20343 0.74089 0.47455 0.0
C928 C 0.21824 0.75716 0.48687 0.0
C929 C 0.26393 0.80191 0.52255 0.0
C930 C 0.24777 0.78697 0.51021 0.0
H931 H 0.19735 0.71324 0.42718 0.0
H932 H 0.2212 0.73943 0.44791 0.0
H933 H 0.20869 0.7475 0.52285 0.0
H934 H 0.29175 0.80827 0.56984 0.0
H935 H 0.26578 0.78426 0.549 0.0
C936 C 0.45039 0.17041 0.9684 0.0
C937 C 0.46669 0.17385 0.95741 0.0
C938 C 0.44926 0.18444 0.98002 0.0
C939 C 0.47454 0.22614 0.01256 0.0
H940 H 0.44463 0.24367 0.9841 0.0
C941 C 0.48196 0.29379 0.04356 0.0
C942 C 0.46666 0.29595 0.04385 0.0
C943 C 0.48126 0.27871 0.03259 0.0
C944 C 0.45282 0.23882 0.99264 0.0
H945 H 0.49469 0.19437 0.95071 0.0
H946 H 0.49293 0.21856 0.972 0.0
H947 H 0.44394 0.21669 0.96775 0.0
H948 H 0.43867 0.28417 0.03259 0.0
H949 H 0.43706 0.25731 0.01431 0.0
H950 H 0.48306 0.24761 0.03795 0.0
C951 C 0.48098 0.20516 0.97119 0.0
C952 C 0.45243 0.22337 0.98316 0.0
C953 C 0.48197 0.19133 0.95906 0.0
C954 C 0.45072 0.28292 0.0324 0.0
C955 C 0.44986 0.26752 0.02189 0.0
C956 C 0.47464 0.2413 0.02238 0.0
C957 C 0.46455 0.20194 0.98138 0.0
C958 C 0.4635 0.2171 0.99283 0.0
C959 C 0.46506 0.26502 0.02219 0.0
C960 C 0.46408 0.24816 0.01229 0.0
H961 H 0.43836 0.1571 0.96716 0.0
H962 H 0.43647 0.18167 0.98782 0.0
H963 H 0.48313 0.22148 0.02038 0.0
H964 H 0.49449 0.30373 0.05207 0.0
H965 H 0.4935 0.27779 0.03252 0.0
C966 C 0.17367 0.45256 0.53421 0.0
C967 C 0.1766 0.46833 0.54608 0.0
C968 C 0.18821 0.45183 0.52345 0.0
C969 C 0.23931 0.47661 0.52347 0.0
H970 H 0.23266 0.44615 0.46838 0.0
C971 C 0.29593 0.48321 0.45887 0.0
C972 C 0.29794 0.46784 0.45748 0.0
C973 C 0.28129 0.48251 0.47121 0.0
C974 C 0.23462 0.45458 0.4839 0.0
H975 H 0.19672 0.49603 0.55485 0.0
H976 H 0.22169 0.49529 0.53486 0.0
H977 H 0.20656 0.44697 0.48519 0.0
H978 H 0.28627 0.43967 0.46794 0.0
H979 H 0.26014 0.43828 0.48895 0.0
H980 H 0.26761 0.48492 0.52108 0.0
C981 C 0.2085 0.48307 0.53477 0.0
C982 C 0.21966 0.45503 0.49366 0.0
C983 C 0.19411 0.48362 0.54601 0.0
C984 C 0.28512 0.45176 0.46895 0.0
C985 C 0.27016 0.45093 0.48078 0.0
C986 C 0.25427 0.47645 0.51335 0.0
C987 C 0.20594 0.46702 0.52387 0.0
C988 C 0.22178 0.46615 0.51354 0.0
C989 C 0.26811 0.46629 0.48188 0.0
C990 C 0.25206 0.46548 0.49348 0.0
H991 H 0.16033 0.44051 0.53422 0.0
H992 H 0.18557 0.43914 0.51554 0.0
H993 H 0.24158 0.48494 0.53916 0.0
H994 H 0.30559 0.49577 0.45016 0.0
H995 H 0.27996 0.49451 0.47181 0.0
C996 C 0.8302 0.29018 0.97443 0.0
C997 C 0.82912 0.2924 0.94969 0.0
C998 C 0.81583 0.27557 0.98652 0.0
C999 C 0.7667 0.23987 0.97833 0.0
H1000 H 0.77555 0.2191 0.03494 0.0
C1001 C 0.71271 0.17248 0.02423 0.0
C1002 C 0.70992 0.17464 0.04854 0.0
C1003 C 0.7273 0.18651 0.01169 0.0
C1004 C 0.77293 0.22479 0.01911 0.0
H1005 H 0.81255 0.28071 0.91803 0.0
H1006 H 0.78819 0.25492 0.93855 0.0
H1007 H 0.80111 0.24402 0.01411 0.0
H1008 H 0.7204 0.19301 0.07886 0.0
H1009 H 0.74608 0.21714 0.05718 0.0
H1010 H 0.73852 0.22007 0.98309 0.0
C1011 C 0.79956 0.26475 0.94909 0.0
C1012 C 0.78755 0.23921 0.00725 0.0
C1013 C 0.81367 0.27952 0.9372 0.0
C1014 C 0.7221 0.19097 0.0601 0.0
C1015 C 0.73687 0.20475 0.04777 0.0
C1016 C 0.75217 0.22519 0.98989 0.0
C1017 C 0.80024 0.26263 0.97402 0.0
C1018 C 0.78468 0.24708 0.98671 0.0
C1019 C 0.73959 0.2027 0.02345 0.0
C1020 C 0.75513 0.21761 0.01047 0.0
H1021 H 0.84193 0.29995 0.98452 0.0
H1022 H 0.81687 0.27468 0.00574 0.0
H1023 H 0.76371 0.24573 0.96303 0.0
H1024 H 0.70355 0.16005 0.01488 0.0
H1025 H 0.72914 0.18463 0.99292 0.0
C1026 C 0.52584 0.81113 0.4478 0.0
C1027 C 0.53715 0.82944 0.45412 0.0
C1028 C 0.52689 0.79736 0.45998 0.0
C1029 C 0.54244 0.78658 0.51614 0.0
H1030 H 0.53892 0.7466 0.47855 0.0
C1031 C 0.54919 0.71806 0.5292 0.0
C1032 C 0.53923 0.71139 0.55053 0.0
C1033 C 0.54993 0.73297 0.51741 0.0
C1034 C 0.54011 0.75773 0.48931 0.0
H1035 H 0.5582 0.8476 0.47863 0.0
H1036 H 0.56007 0.82345 0.50004 0.0
H1037 H 0.53864 0.77188 0.45849 0.0
H1038 H 0.52209 0.71506 0.57604 0.0
H1039 H 0.52319 0.74074 0.55546 0.0
H1040 H 0.54405 0.77247 0.54696 0.0
C1041 C 0.55031 0.81978 0.48564 0.0
C1042 C 0.53973 0.77214 0.47783 0.0
C1043 C 0.54926 0.83363 0.47338 0.0
C1044 C 0.52994 0.71986 0.55968 0.0
C1045 C 0.5307 0.73473 0.54798 0.0
C1046 C 0.54277 0.77213 0.52763 0.0
C1047 C 0.5393 0.80149 0.47884 0.0
C1048 C 0.54067 0.78665 0.49111 0.0
C1049 C 0.54076 0.74156 0.52676 0.0
C1050 C 0.54141 0.75741 0.51439 0.0
H1051 H 0.51627 0.80737 0.43315 0.0
H1052 H 0.51792 0.78343 0.45458 0.0
H1053 H 0.54312 0.79747 0.52693 0.0
H1054 H 0.55655 0.71189 0.52173 0.0
H1055 H 0.55792 0.73795 0.50119 0.0
C1056 C 0.38288 0.44688 0.09718 0.0
C1057 C 0.36536 0.44247 0.08967 0.0
C1058 C 0.38992 0.43567 0.09167 0.0
C1059 C 0.37867 0.38948 0.08019 0.0
H1060 H 0.429 0.41319 0.05972 0.0
C1061 C 0.42469 0.35552 0.07584 0.0
C1062 C 0.44037 0.36542 0.08996 0.0
C1063 C 0.41332 0.3627 0.07064 0.0
C1064 C 0.41487 0.4063 0.06515 0.0
H1065 H 0.34142 0.42257 0.07053 0.0
H1066 H 0.35377 0.40252 0.06128 0.0
H1067 H 0.41278 0.43003 0.05954 0.0
H1068 H 0.45644 0.3907 0.10934 0.0
H1069 H 0.43704 0.40309 0.09999 0.0
H1070 H 0.38123 0.36598 0.08696 0.0
C1071 C 0.362 0.4149 0.07128 0.0
C1072 C 0.40559 0.41593 0.06508 0.0
C1073 C 0.35499 0.42638 0.07649 0.0
C1074 C 0.44446 0.38259 0.09853 0.0
C1075 C 0.4334 0.3898 0.09303 0.0
C1076 C 0.38801 0.37976 0.08023 0.0
C1077 C 0.37964 0.41957 0.07868 0.0
C1078 C 0.38767 0.40791 0.07359 0.0
C1079 C 0.41776 0.38003 0.07901 0.0
C1080 C 0.40644 0.38838 0.07367 0.0
H1081 H 0.39134 0.45917 0.10725 0.0
H1082 H 0.40344 0.43953 0.09793 0.0
H1083 H 0.36486 0.38298 0.08689 0.0
H1084 H 0.42114 0.34224 0.06902 0.0
H1085 H 0.40128 0.35487 0.05983 0.0
C1086 C 0.06964 0.42918 0.61718 0.0
C1087 C 0.08092 0.4363 0.597 0.0
C1088 C 0.05095 0.41793 0.61461 0.0
C1089 C 0.01298 0.3892 0.5744 0.0
H1090 H 0.9873 0.40526 0.61606 0.0
C1091 C 0.93383 0.36088 0.57434 0.0
C1092 C 0.92607 0.35914 0.59715 0.0
C1093 C 0.95274 0.36856 0.57184 0.0
C1094 C 0.9942 0.40044 0.60445 0.0
H1095 H 0.08154 0.43614 0.55819 0.0
H1096 H 0.04846 0.41635 0.55366 0.0
H1097 H 0.02022 0.42153 0.61594 0.0
H1098 H 0.93182 0.36257 0.63525 0.0
H1099 H 0.96437 0.37546 0.63096 0.0
H1100 H 0.9866 0.36793 0.56311 0.0
C1101 C 0.05427 0.41956 0.57148 0.0
C1102 C 0.01311 0.4098 0.60436 0.0
C1103 C 0.07318 0.43086 0.57407 0.0
C1104 C 0.93738 0.36404 0.61739 0.0
C1105 C 0.95608 0.37152 0.61492 0.0
C1106 C 0.99386 0.37972 0.57452 0.0
C1107 C 0.04293 0.41355 0.5918 0.0
C1108 C 0.02277 0.40409 0.58981 0.0
C1109 C 0.96411 0.37452 0.59213 0.0
C1110 C 0.98429 0.38502 0.59003 0.0
H1111 H 0.07521 0.43282 0.63511 0.0
H1112 H 0.04266 0.41314 0.63062 0.0
H1113 H 0.02008 0.38455 0.56291 0.0
H1114 H 0.92545 0.35722 0.55841 0.0
H1115 H 0.95851 0.37063 0.55404 0.0
C1116 C 0.57476 0.932 0.0734 0.0
C1117 C 0.57083 0.92395 0.09625 0.0
C1118 C 0.58615 0.95088 0.07096 0.0
C1119 C 0.59928 0.99165 0.10708 0.0
H1120 H 0.63572 0.01838 0.0586 0.0
C1121 C 0.64427 0.06769 0.11654 0.0
C1122 C 0.64624 0.07854 0.09656 0.0
C1123 C 0.63741 0.0491 0.11401 0.0
C1124 C 0.62547 0.01105 0.07211 0.0
H1125 H 0.57706 0.92895 0.13407 0.0
H1126 H 0.59713 0.96148 0.12982 0.0
H1127 H 0.61954 0.98496 0.05858 0.0
H1128 H 0.64368 0.07861 0.05796 0.0
H1129 H 0.63122 0.0457 0.0535 0.0
H1130 H 0.60487 0.01734 0.12062 0.0
C1131 C 0.59102 0.95348 0.11384 0.0
C1132 C 0.61623 0.99195 0.0721 0.0
C1133 C 0.57959 0.93482 0.11628 0.0
C1134 C 0.64229 0.07055 0.07367 0.0
C1135 C 0.63517 0.05174 0.07114 0.0
C1136 C 0.60841 0.01054 0.10708 0.0
C1137 C 0.59382 0.96188 0.09134 0.0
C1138 C 0.60328 0.98207 0.08994 0.0
C1139 C 0.63205 0.04074 0.09145 0.0
C1140 C 0.62188 0.02053 0.08995 0.0
H1141 H 0.56814 0.92394 0.05766 0.0
H1142 H 0.58808 0.95694 0.05337 0.0
H1143 H 0.58899 0.9845 0.12062 0.0
H1144 H 0.64752 0.07351 0.13437 0.0
H1145 H 0.6357 0.04114 0.12995 0.0
C1146 C 0.62026 0.55658 0.59088 0.0
C1147 C 0.63858 0.56198 0.58674 0.0
C1148 C 0.61341 0.56784 0.58475 0.0
C1149 C 0.62515 0.61464 0.57897 0.0
H1150 H 0.57715 0.59291 0.55051 0.0
C1151 C 0.58066 0.64967 0.57589 0.0
C1152 C 0.56356 0.6385 0.58644 0.0
C1153 C 0.59203 0.6426 0.57018 0.0
C1154 C 0.59064 0.59927 0.55825 0.0
H1155 H 0.6641 0.5835 0.57273 0.0
H1156 H 0.65206 0.60367 0.56247 0.0
H1157 H 0.59353 0.57622 0.55061 0.0
H1158 H 0.54474 0.6111 0.5984 0.0
H1159 H 0.56418 0.59888 0.5881 0.0
H1160 H 0.62171 0.63732 0.58776 0.0
C1161 C 0.64306 0.5905 0.57027 0.0
C1162 C 0.60001 0.58972 0.55831 0.0
C1163 C 0.6499 0.57896 0.57603 0.0
C1164 C 0.55786 0.62011 0.59044 0.0
C1165 C 0.56896 0.61305 0.58435 0.0
C1166 C 0.61572 0.62425 0.57892 0.0
C1167 C 0.62469 0.58497 0.57456 0.0
C1168 C 0.61701 0.59694 0.56958 0.0
C1169 C 0.58622 0.62418 0.57434 0.0
C1170 C 0.59803 0.61628 0.56948 0.0
H1171 H 0.61113 0.54355 0.59897 0.0
H1172 H 0.59928 0.56328 0.58859 0.0
H1173 H 0.63821 0.62051 0.58785 0.0
H1174 H 0.58543 0.6639 0.57272 0.0
H1175 H 0.60529 0.65149 0.56252 0.0
C1176 C 0.93346 0.57268 0.07591 0.0
C1177 C 0.92589 0.56628 0.09873 0.0
C1178 C 0.95238 0.58372 0.07314 0.0
C1179 C 0.99383 0.59149 0.10375 0.0
H1180 H 0.02013 0.63523 0.06568 0.0
C1181 C 0.06938 0.63737 0.11774 0.0
C1182 C 0.08081 0.64308 0.09757 0.0
C1183 C 0.05067 0.62973 0.11526 0.0
C1184 C 0.01292 0.62291 0.07615 0.0
H1185 H 0.93209 0.56777 0.13666 0.0
H1186 H 0.96466 0.58696 0.13187 0.0
H1187 H 0.98665 0.61869 0.06597 0.0
H1188 H 0.08157 0.64628 0.05899 0.0
H1189 H 0.04845 0.63265 0.0546 0.0
H1190 H 0.01973 0.59552 0.11414 0.0
C1191 C 0.95617 0.58311 0.11602 0.0
C1192 C 0.9938 0.61347 0.07632 0.0
C1193 C 0.93746 0.57214 0.11876 0.0
C1194 C 0.07311 0.64197 0.07487 0.0
C1195 C 0.05418 0.63417 0.07236 0.0
C1196 C 0.01274 0.60082 0.10358 0.0
C1197 C 0.96395 0.58851 0.09316 0.0
C1198 C 0.98409 0.59791 0.09067 0.0
C1199 C 0.04274 0.62743 0.09252 0.0
C1200 C 0.02257 0.6169 0.09032 0.0
H1201 H 0.9249 0.56842 0.06013 0.0
H1202 H 0.95799 0.58774 0.0553 0.0
H1203 H 0.98678 0.57926 0.11445 0.0
H1204 H 0.07486 0.63835 0.13555 0.0
H1205 H 0.0423 0.62515 0.13122 0.0
C1206 C 0.44921 0.06557 0.59608 0.0
C1207 C 0.44432 0.0784 0.58902 0.0
C1208 C 0.43826 0.04727 0.59047 0.0
C1209 C 0.39208 0.01171 0.57947 0.0
H1210 H 0.41616 0.98572 0.55823 0.0
C1211 C 0.35767 0.932 0.57544 0.0
C1212 C 0.36786 0.92593 0.58831 0.0
C1213 C 0.36507 0.95057 0.57028 0.0
C1214 C 0.40917 0.99277 0.56396 0.0
H1215 H 0.42391 0.08192 0.57047 0.0
H1216 H 0.40433 0.04943 0.56102 0.0
H1217 H 0.43274 0.0188 0.55841 0.0
H1218 H 0.39393 0.93461 0.60525 0.0
H1219 H 0.40669 0.96648 0.59603 0.0
H1220 H 0.36872 0.98546 0.58614 0.0
C1221 C 0.41686 0.05383 0.57078 0.0
C1222 C 0.41866 0.0117 0.56407 0.0
C1223 C 0.42807 0.07238 0.57609 0.0
C1224 C 0.38561 0.93873 0.59545 0.0
C1225 C 0.39303 0.95705 0.58998 0.0
C1226 C 0.38251 0.99264 0.57937 0.0
C1227 C 0.42196 0.04113 0.5778 0.0
C1228 C 0.41049 0.02139 0.57276 0.0
C1229 C 0.38291 0.96324 0.57739 0.0
C1230 C 0.39125 0.98301 0.57256 0.0
H1231 H 0.46164 0.06965 0.60594 0.0
H1232 H 0.44245 0.03782 0.59644 0.0
H1233 H 0.38546 0.01883 0.58632 0.0
H1234 H 0.34394 0.92248 0.56976 0.0
H1235 H 0.35697 0.95501 0.56058 0.0
C1236 C 0.579 0.64353 0.88394 0.0
C1237 C 0.57012 0.64555 0.90391 0.0
C1238 C 0.59057 0.6365 0.88649 0.0
C1239 C 0.61655 0.62424 0.92781 0.0
H1240 H 0.60471 0.58672 0.88024 0.0
C1241 C 0.6445 0.57329 0.92582 0.0
C1242 C 0.64791 0.5689 0.90283 0.0
C1243 C 0.637 0.58464 0.92848 0.0
C1244 C 0.60839 0.59729 0.8935 0.0
H1245 H 0.56739 0.64296 0.94249 0.0
H1246 H 0.58768 0.63029 0.94698 0.0
H1247 H 0.58828 0.60313 0.88058 0.0
H1248 H 0.64781 0.57422 0.86489 0.0
H1249 H 0.63534 0.5942 0.8695 0.0
H1250 H 0.6368 0.61817 0.94062 0.0
C1251 C 0.58567 0.63431 0.92936 0.0
C1252 C 0.59893 0.6067 0.89371 0.0
C1253 C 0.57409 0.64156 0.92681 0.0
C1254 C 0.64501 0.57709 0.88281 0.0
C1255 C 0.63777 0.58847 0.88546 0.0
C1256 C 0.62614 0.61474 0.92757 0.0
C1257 C 0.59345 0.63106 0.90904 0.0
C1258 C 0.60311 0.62055 0.91049 0.0
C1259 C 0.63295 0.5918 0.90819 0.0
C1260 C 0.6224 0.60142 0.91002 0.0
H1261 H 0.57645 0.64677 0.8661 0.0
H1262 H 0.59674 0.63464 0.87056 0.0
H1263 H 0.62 0.63478 0.94104 0.0
H1264 H 0.64659 0.56714 0.94157 0.0
H1265 H 0.63349 0.58699 0.94625 0.0
C1266 C 0.93417 0.57296 0.42711 0.0
C1267 C 0.92574 0.57121 0.40486 0.0
C1268 C 0.95305 0.58427 0.42949 0.0
C1269 C 0.99343 0.60223 0.39043 0.0
H1270 H 0.02032 0.62623 0.44798 0.0
C1271 C 0.07359 0.64775 0.41936 0.0
C1272 C 0.07965 0.63697 0.40806 0.0
C1273 C 0.05488 0.64148 0.42152 0.0
C1274 C 0.01298 0.61973 0.43172 0.0
H1275 H 0.92993 0.58113 0.3684 0.0
H1276 H 0.96249 0.60148 0.37276 0.0
H1277 H 0.98726 0.61361 0.44678 0.0
H1278 H 0.07081 0.61062 0.39198 0.0
H1279 H 0.03865 0.59976 0.39606 0.0
H1280 H 0.01886 0.60826 0.37527 0.0
C1281 C 0.95486 0.59361 0.38816 0.0
C1282 C 0.99404 0.61236 0.43109 0.0
C1283 C 0.93616 0.58208 0.38568 0.0
C1284 C 0.06668 0.61948 0.4003 0.0
C1285 C 0.04817 0.61324 0.40257 0.0
C1286 C 0.01219 0.60954 0.39107 0.0
C1287 C 0.96373 0.59419 0.40971 0.0
C1288 C 0.984 0.60336 0.41045 0.0
C1289 C 0.04199 0.62432 0.41248 0.0
C1290 C 0.0222 0.61806 0.41182 0.0
H1291 H 0.92642 0.56462 0.44214 0.0
H1292 H 0.95937 0.58432 0.44635 0.0
H1293 H 0.98627 0.59515 0.37435 0.0
H1294 H 0.08326 0.66127 0.42558 0.0
H1295 H 0.05052 0.65032 0.42932 0.0
C1296 C 0.43506 0.06856 0.88267 0.0
C1297 C 0.43943 0.08027 0.90244 0.0
C1298 C 0.42419 0.04986 0.88539 0.0
C1299 C 0.39119 0.0124 0.92295 0.0
H1300 H 0.41156 0.98644 0.89033 0.0
C1301 C 0.3617 0.93289 0.92405 0.0
C1302 C 0.36186 0.92557 0.90148 0.0
C1303 C 0.36966 0.95179 0.92704 0.0
C1304 C 0.40562 0.99345 0.89947 0.0
H1305 H 0.43478 0.08142 0.94043 0.0
H1306 H 0.4156 0.04832 0.94521 0.0
H1307 H 0.42813 0.01939 0.89053 0.0
H1308 H 0.36915 0.93229 0.86408 0.0
H1309 H 0.38273 0.96477 0.86928 0.0
H1310 H 0.36846 0.98609 0.93156 0.0
C1311 C 0.42074 0.05385 0.9276 0.0
C1312 C 0.41512 0.01235 0.89958 0.0
C1313 C 0.43171 0.07277 0.92486 0.0
C1314 C 0.36908 0.93741 0.88182 0.0
C1315 C 0.37694 0.95609 0.88479 0.0
C1316 C 0.38159 0.99329 0.92285 0.0
C1317 C 0.41737 0.04219 0.90797 0.0
C1318 C 0.40782 0.02209 0.91068 0.0
C1319 C 0.37788 0.96359 0.90752 0.0
C1320 C 0.38852 0.98366 0.91047 0.0
H1321 H 0.44044 0.07382 0.86504 0.0
H1322 H 0.42147 0.0413 0.86979 0.0
H1323 H 0.38527 0.01955 0.93174 0.0
H1324 H 0.35621 0.92414 0.93955 0.0
H1325 H 0.37012 0.95719 0.94476 0.0
C1326 C 0.36773 0.43232 0.38204 0.0
C1327 C 0.36209 0.43811 0.4022 0.0
C1328 C 0.37539 0.4213 0.38456 0.0
C1329 C 0.38259 0.39076 0.42394 0.0
H1330 H 0.42626 0.40854 0.38557 0.0
C1331 C 0.43316 0.36207 0.42446 0.0
C1332 C 0.43955 0.36089 0.40164 0.0
C1333 C 0.42211 0.36991 0.42719 0.0
C1334 C 0.41403 0.40329 0.39629 0.0
H1335 H 0.35905 0.43582 0.44081 0.0
H1336 H 0.37271 0.41644 0.44526 0.0
H1337 H 0.40973 0.4249 0.38562 0.0
H1338 H 0.43804 0.36555 0.3637 0.0
H1339 H 0.41883 0.37883 0.36843 0.0
H1340 H 0.38707 0.36896 0.4344 0.0
C1341 C 0.3711 0.42053 0.42748 0.0
C1342 C 0.40454 0.41268 0.39631 0.0
C1343 C 0.36328 0.43161 0.42493 0.0
C1344 C 0.4337 0.36657 0.3816 0.0
C1345 C 0.42271 0.37426 0.3843 0.0
C1346 C 0.39218 0.38127 0.42392 0.0
C1347 C 0.37779 0.41579 0.40733 0.0
C1348 C 0.38845 0.40632 0.40959 0.0
C1349 C 0.41729 0.37663 0.40714 0.0
C1350 C 0.40776 0.38721 0.40955 0.0
H1351 H 0.36671 0.43676 0.36421 0.0
H1352 H 0.37995 0.41749 0.36861 0.0
H1353 H 0.37027 0.38559 0.43445 0.0
H1354 H 0.43741 0.35778 0.44024 0.0
H1355 H 0.41807 0.37149 0.44502 0.0
C1356 C 0.07187 0.4258 0.92303 0.0
C1357 C 0.07775 0.4424 0.91112 0.0
C1358 C 0.05338 0.41448 0.92867 0.0
C1359 C 0.01122 0.41593 0.9381 0.0
H1360 H 0.98498 0.36713 0.91219 0.0
C1361 C 0.93843 0.38436 0.90605 0.0
C1362 C 0.92561 0.36626 0.91161 0.0
C1363 C 0.95668 0.39159 0.91189 0.0
C1364 C 0.99214 0.38057 0.92004 0.0
H1365 H 0.06893 0.46034 0.89654 0.0
H1366 H 0.03717 0.44099 0.90666 0.0
H1367 H 0.01836 0.38382 0.91212 0.0
H1368 H 0.92199 0.34154 0.92781 0.0
H1369 H 0.95441 0.35422 0.93762 0.0
H1370 H 0.9852 0.41317 0.94488 0.0
C1371 C 0.04667 0.43658 0.91155 0.0
C1372 C 0.01123 0.39011 0.92 0.0
C1373 C 0.0649 0.44761 0.90557 0.0
C1374 C 0.93154 0.35555 0.92338 0.0
C1375 C 0.95005 0.36276 0.92889 0.0
C1376 C 0.99226 0.40645 0.93814 0.0
C1377 C 0.04064 0.41986 0.92304 0.0
C1378 C 0.02091 0.40818 0.92809 0.0
C1379 C 0.96277 0.38091 0.92325 0.0
C1380 C 0.98251 0.38898 0.92817 0.0
H1381 H 0.08145 0.42139 0.92746 0.0
H1382 H 0.04907 0.40163 0.9375 0.0
H1383 H 0.01832 0.42973 0.94481 0.0
H1384 H 0.93435 0.39305 0.89712 0.0
H1385 H 0.96616 0.40553 0.907 0.0
C1386 C 0.57685 0.93558 0.38109 0.0
C1387 C 0.56929 0.92448 0.40132 0.0
C1388 C 0.58822 0.95426 0.38353 0.0
C1389 C 0.61592 0.99229 0.42472 0.0
H1390 H 0.60252 0.01836 0.37986 0.0
C1391 C 0.64362 0.07127 0.42471 0.0
C1392 C 0.64666 0.07922 0.40185 0.0
C1393 C 0.63614 0.05239 0.42708 0.0
C1394 C 0.6066 0.01134 0.39237 0.0
H1395 H 0.56868 0.92415 0.44013 0.0
H1396 H 0.58855 0.95717 0.44444 0.0
H1397 H 0.58604 0.98548 0.37971 0.0
H1398 H 0.64587 0.07397 0.36373 0.0
H1399 H 0.63332 0.04147 0.36784 0.0
H1400 H 0.63657 0.01853 0.43733 0.0
C1401 C 0.58568 0.95126 0.42667 0.0
C1402 C 0.59714 0.99245 0.39229 0.0
C1403 C 0.57432 0.93238 0.42421 0.0
C1404 C 0.64337 0.06822 0.38159 0.0
C1405 C 0.63609 0.04955 0.38394 0.0
C1406 C 0.62548 0.01139 0.42482 0.0
C1407 C 0.59221 0.96245 0.40627 0.0
C1408 C 0.60189 0.98263 0.40805 0.0
C1409 C 0.63169 0.04128 0.40661 0.0
C1410 C 0.62114 0.0211 0.40823 0.0
H1411 H 0.57352 0.92989 0.36321 0.0
H1412 H 0.59343 0.9624 0.36746 0.0
H1413 H 0.61984 0.9851 0.43717 0.0
H1414 H 0.64603 0.07943 0.44064 0.0
H1415 H 0.63295 0.04641 0.4448 0.0
C1416 C 0.47194 0.60904 0.92917 0.0
C1417 C 0.4868 0.62511 0.93807 0.0
C1418 C 0.45755 0.59761 0.94407 0.0
C1419 C 0.44636 0.58533 0.00743 0.0
H1420 H 0.39684 0.55938 0.98362 0.0
C1421 C 0.38753 0.53695 0.06814 0.0
C1422 C 0.37522 0.51979 0.05862 0.0
C1423 C 0.39975 0.55096 0.05334 0.0
C1424 C 0.41061 0.56644 0.99047 0.0
H1425 H 0.49784 0.64188 0.96976 0.0
H1426 H 0.47252 0.62188 0.99587 0.0
H1427 H 0.42099 0.58224 0.95849 0.0
H1428 H 0.36548 0.50424 0.02579 0.0
H1429 H 0.38703 0.52881 -0.00021 0.0
H1430 H 0.43608 0.56942 0.03926 0.0
C1431 C 0.47221 0.61809 0.97728 0.0
C1432 C 0.42446 0.57955 0.97609 0.0
C1433 C 0.48669 0.6296 0.9623 0.0
C1434 C 0.37478 0.51728 0.03369 0.0
C1435 C 0.38711 0.53137 0.0188 0.0
C1436 C 0.43253 0.57227 0.0218 0.0
C1437 C 0.45752 0.60189 0.96835 0.0
C1438 C 0.44254 0.58901 0.98431 0.0
C1439 C 0.40005 0.54822 0.02859 0.0
C1440 C 0.41451 0.56257 0.01344 0.0
H1441 H 0.47146 0.60505 0.91064 0.0
H1442 H 0.44666 0.58513 0.93664 0.0
H1443 H 0.46015 0.5921 0.01418 0.0
H1444 H 0.38808 0.53948 0.08723 0.0
H1445 H 0.40922 0.56389 0.06139 0.0
C1446 C 0.86472 0.37669 0.53333 0.0
C1447 C 0.86307 0.37718 0.55835 0.0
C1448 C 0.86311 0.38923 0.51874 0.0
C1449 C 0.86799 0.4348 0.52216 0.0
H1450 H 0.84443 0.42271 0.46009 0.0
C1451 C 0.8617 0.48792 0.46449 0.0
C1452 C 0.86566 0.48808 0.44 0.0
C1453 C 0.85951 0.47364 0.47925 0.0
C1454 C 0.85116 0.42633 0.47734 0.0
H1455 H 0.85729 0.3905 0.58743 0.0
H1456 H 0.85427 0.41195 0.56212 0.0
H1457 H 0.84416 0.39886 0.4847 0.0
H1458 H 0.87006 0.47301 0.41186 0.0
H1459 H 0.86651 0.44854 0.43747 0.0
H1460 H 0.87525 0.46227 0.51472 0.0
C1461 C 0.85731 0.4023 0.55377 0.0
C1462 C 0.85102 0.41266 0.4914 0.0
C1463 C 0.85897 0.3899 0.56828 0.0
C1464 C 0.86704 0.47346 0.43061 0.0
C1465 C 0.86484 0.45926 0.44529 0.0
C1466 C 0.86814 0.44845 0.50811 0.0
C1467 C 0.85975 0.40241 0.5289 0.0
C1468 C 0.85951 0.41675 0.51394 0.0
C1469 C 0.86117 0.45919 0.46981 0.0
C1470 C 0.85986 0.44442 0.48545 0.0
H1471 H 0.86787 0.36707 0.52512 0.0
H1472 H 0.86513 0.389 0.49962 0.0
H1473 H 0.87493 0.4385 0.53926 0.0
H1474 H 0.86047 0.4989 0.47232 0.0
H1475 H 0.85652 0.4739 0.49805 0.0
C1476 C 0.39028 0.85696 0.93053 0.0
C1477 C 0.37779 0.86147 0.94025 0.0
C1478 C 0.40258 0.85521 0.94519 0.0
C1479 C 0.41294 0.84951 0.00778 0.0
H1480 H 0.46256 0.873 0.98436 0.0
C1481 C 0.47362 0.86549 0.06887 0.0
C1482 C 0.48814 0.86382 0.0597 0.0
C1483 C 0.4595 0.86336 0.05406 0.0
C1484 C 0.44874 0.8661 0.99101 0.0
H1485 H 0.36795 0.8669 0.97327 0.0
H1486 H 0.38968 0.86401 0.99902 0.0
H1487 H 0.43885 0.87264 0.95957 0.0
H1488 H 0.49888 0.85823 0.02762 0.0
H1489 H 0.474 0.85436 0.00166 0.0
H1490 H 0.42292 0.84315 0.03937 0.0
C1491 C 0.38981 0.86173 0.97995 0.0
C1492 C 0.43513 0.86592 0.97682 0.0
C1493 C 0.37739 0.86343 0.96521 0.0
C1494 C 0.48798 0.85968 0.03528 0.0
C1495 C 0.47376 0.85754 0.02039 0.0
C1496 C 0.42657 0.84966 0.02198 0.0
C1497 C 0.4028 0.85798 0.96999 0.0
C1498 C 0.41708 0.85772 0.98507 0.0
C1499 C 0.4594 0.85945 0.02962 0.0
C1500 C 0.44467 0.85811 0.01385 0.0
H1501 H 0.39081 0.85503 0.91142 0.0
H1502 H 0.41208 0.85188 0.937 0.0
H1503 H 0.39915 0.84287 0.01452 0.0
H1504 H 0.4732 0.86869 0.08755 0.0
H1505 H 0.44885 0.86524 0.06171 0.0
C1506 C 0.5182 0.3748 0.46453 0.0
C1507 C 0.52015 0.37634 0.43948 0.0
C1508 C 0.53243 0.38683 0.4795 0.0
C1509 C 0.57264 0.43283 0.47834 0.0
H1510 H 0.58542 0.41858 0.53786 0.0
C1511 C 0.63163 0.48508 0.53704 0.0
C1512 C 0.628 0.48418 0.56173 0.0
C1513 C 0.61993 0.47092 0.52178 0.0
C1514 C 0.58194 0.4228 0.52134 0.0
H1515 H 0.53904 0.39109 0.41065 0.0
H1516 H 0.56363 0.4117 0.43659 0.0
H1517 H 0.56171 0.39551 0.51241 0.0
H1518 H 0.60957 0.4672 0.58978 0.0
H1519 H 0.58927 0.44292 0.56333 0.0
H1520 H 0.59249 0.4601 0.48737 0.0
C1521 C 0.55102 0.40155 0.44471 0.0
C1522 C 0.56834 0.40957 0.5068 0.0
C1523 C 0.53688 0.38964 0.42984 0.0
C1524 C 0.61282 0.46848 0.57087 0.0
C1525 C 0.60119 0.4544 0.55568 0.0
C1526 C 0.58617 0.44604 0.49288 0.0
C1527 C 0.54887 0.40058 0.46969 0.0
C1528 C 0.56349 0.41444 0.48517 0.0
C1529 C 0.60439 0.45554 0.5309 0.0
C1530 C 0.59093 0.44123 0.51464 0.0
H1531 H 0.50552 0.36472 0.47255 0.0
H1532 H 0.53033 0.38577 0.4987 0.0
H1533 H 0.56902 0.4371 0.46198 0.0
H1534 H 0.64322 0.4969 0.52938 0.0
H1535 H 0.62295 0.47212 0.5028 0.0
C1536 C 0.14824 0.51874 0.96218 0.0
C1537 C 0.14573 0.5197 0.93744 0.0
C1538 C 0.15076 0.53293 0.97737 0.0
C1539 C 0.16129 0.58116 0.97757 0.0
H1540 H 0.13381 0.567 0.03677 0.0
C1541 C 0.14548 0.6292 0.034 0.0
C1542 C 0.14599 0.62777 0.05905 0.0
C1543 C 0.14766 0.61716 0.01907 0.0
C1544 C 0.14176 0.57123 0.02044 0.0
H1545 H 0.14473 0.5368 0.90925 0.0
H1546 H 0.14876 0.5611 0.93559 0.0
H1547 H 0.13422 0.54393 0.01156 0.0
H1548 H 0.15032 0.61321 0.08792 0.0
H1549 H 0.1542 0.59256 0.06206 0.0
H1550 H 0.16844 0.60848 0.98633 0.0
C1551 C 0.149 0.54957 0.94333 0.0
C1552 C 0.14206 0.55798 0.00602 0.0
C1553 C 0.14653 0.53547 0.92821 0.0
C1554 C 0.14952 0.61457 0.06873 0.0
C1555 C 0.15169 0.60264 0.0539 0.0
C1556 C 0.16092 0.59443 0.99198 0.0
C1557 C 0.15085 0.54838 0.96816 0.0
C1558 C 0.15173 0.56274 0.98431 0.0
C1559 C 0.1504 0.60349 0.02894 0.0
C1560 C 0.1511 0.5896 0.01355 0.0
H1561 H 0.1478 0.50686 0.9699 0.0
H1562 H 0.15242 0.5317 0.99639 0.0
H1563 H 0.16907 0.58534 0.96111 0.0
H1564 H 0.14282 0.63921 0.02595 0.0
H1565 H 0.14654 0.61813 -0.00014 0.0
C1566 C 0.53825 0.15205 0.56883 0.0
C1567 C 0.52106 0.14701 0.55922 0.0
C1568 C 0.55235 0.154 0.5541 0.0
C1569 C 0.56802 0.15865 0.49132 0.0
H1570 H 0.59368 0.13491 0.51524 0.0
C1571 C 0.61076 0.14021 0.43015 0.0
C1572 C 0.62688 0.14153 0.43904 0.0
C1573 C 0.59927 0.14302 0.44507 0.0
C1574 C 0.58691 0.14189 0.50844 0.0
H1575 H 0.50557 0.14104 0.52631 0.0
H1576 H 0.5303 0.14433 0.50045 0.0
H1577 H 0.57094 0.13625 0.54022 0.0
H1578 H 0.64361 0.14721 0.47076 0.0
H1579 H 0.62349 0.15228 0.49692 0.0
H1580 H 0.58388 0.1641 0.4594 0.0
C1581 C 0.53282 0.14685 0.51947 0.0
C1582 C 0.57382 0.14264 0.52275 0.0
C1583 C 0.51863 0.14494 0.53427 0.0
C1584 C 0.63129 0.146 0.46331 0.0
C1585 C 0.61972 0.14884 0.47832 0.0
C1586 C 0.58117 0.15795 0.47701 0.0
C1587 C 0.54968 0.15091 0.52935 0.0
C1588 C 0.56411 0.15089 0.5143 0.0
C1589 C 0.60352 0.1473 0.46936 0.0
C1590 C 0.59062 0.14937 0.48529 0.0
H1591 H 0.54072 0.15405 0.58792 0.0
H1592 H 0.56529 0.15757 0.56222 0.0
H1593 H 0.56096 0.16531 0.48442 0.0
H1594 H 0.60681 0.13676 0.41159 0.0
H1595 H 0.58678 0.14138 0.43763 0.0
C1596 C 0.51708 0.37617 0.03308 0.0
C1597 C 0.51846 0.37796 0.05816 0.0
C1598 C 0.53137 0.38851 0.01841 0.0
C1599 C 0.57001 0.43538 0.01972 0.0
H1600 H 0.58643 0.42146 0.96307 0.0
C1601 C 0.63092 0.48824 0.96395 0.0
C1602 C 0.62849 0.48688 0.93898 0.0
C1603 C 0.61868 0.47418 0.97894 0.0
C1604 C 0.58192 0.42559 0.97876 0.0
H1605 H 0.53646 0.3936 0.08737 0.0
H1606 H 0.56105 0.41477 0.06198 0.0
H1607 H 0.5622 0.39808 0.98762 0.0
H1608 H 0.61162 0.46925 0.91022 0.0
H1609 H 0.59041 0.44515 0.93617 0.0
H1610 H 0.58938 0.46284 0.01075 0.0
C1611 C 0.54885 0.40414 0.05359 0.0
C1612 C 0.56802 0.41218 0.99278 0.0
C1613 C 0.53471 0.39188 0.06815 0.0
C1614 C 0.61392 0.4709 0.92937 0.0
C1615 C 0.60178 0.45692 0.94427 0.0
C1616 C 0.58383 0.44876 0.00569 0.0
C1617 C 0.54725 0.40286 0.02857 0.0
C1618 C 0.56191 0.41694 0.01341 0.0
C1619 C 0.60382 0.45845 0.96926 0.0
C1620 C 0.58992 0.44406 0.98498 0.0
H1621 H 0.5048 0.36561 0.02478 0.0
H1622 H 0.52973 0.38721 0.99914 0.0
H1623 H 0.56541 0.43952 0.03531 0.0
H1624 H 0.642 0.5003 0.97196 0.0
H1625 H 0.62078 0.4757 0.99813 0.0
C1626 C 0.14683 0.62913 0.46379 0.0
C1627 C 0.14871 0.62867 0.43882 0.0
C1628 C 0.14882 0.61692 0.47858 0.0
C1629 C 0.14449 0.57169 0.47549 0.0
H1630 H 0.1667 0.58357 0.5384 0.0
C1631 C 0.14806 0.51788 0.53523 0.0
C1632 C 0.14383 0.51806 0.55955 0.0
C1633 C 0.15088 0.53221 0.52007 0.0
C1634 C 0.16034 0.58 0.52091 0.0
H1635 H 0.1555 0.61592 0.41004 0.0
H1636 H 0.15915 0.59498 0.43572 0.0
H1637 H 0.1677 0.60753 0.51329 0.0
H1638 H 0.13952 0.5337 0.58693 0.0
H1639 H 0.14411 0.55819 0.56065 0.0
H1640 H 0.13674 0.54414 0.48323 0.0
C1641 C 0.15566 0.60438 0.44387 0.0
C1642 C 0.16093 0.59375 0.50655 0.0
C1643 C 0.15364 0.61648 0.42916 0.0
C1644 C 0.14277 0.533 0.56834 0.0
C1645 C 0.14557 0.54722 0.55327 0.0
C1646 C 0.14385 0.55795 0.48986 0.0
C1647 C 0.15278 0.60408 0.46866 0.0
C1648 C 0.15289 0.58973 0.48373 0.0
C1649 C 0.14958 0.54701 0.52892 0.0
C1650 C 0.15159 0.56188 0.51286 0.0
H1651 H 0.14301 0.63832 0.47181 0.0
H1652 H 0.14647 0.617 0.49763 0.0
H1653 H 0.13791 0.56807 0.45814 0.0
H1654 H 0.14905 0.50665 0.52785 0.0
H1655 H 0.15411 0.53171 0.50142 0.0
C1656 C 0.61049 0.14047 0.0717 0.0
C1657 C 0.62641 0.14155 0.06244 0.0
C1658 C 0.59868 0.14289 0.05692 0.0
C1659 C 0.585 0.1398 0.99382 0.0
H1660 H 0.55899 0.16338 0.01704 0.0
C1661 C 0.53613 0.14928 0.933 0.0
C1662 C 0.51905 0.14473 0.94255 0.0
C1663 C 0.5501 0.15098 0.94778 0.0
C1664 C 0.56605 0.15664 0.01039 0.0
H1665 H 0.64254 0.14658 0.03026 0.0
H1666 H 0.62188 0.15101 0.00436 0.0
H1667 H 0.58245 0.16309 0.04194 0.0
H1668 H 0.5036 0.13923 0.97543 0.0
H1669 H 0.52813 0.14209 0.00143 0.0
H1670 H 0.56854 0.13322 0.96239 0.0
C1671 C 0.6185 0.14801 0.02313 0.0
C1672 C 0.57951 0.15649 0.02462 0.0
C1673 C 0.63039 0.14557 0.038 0.0
C1674 C 0.51657 0.14273 0.9675 0.0
C1675 C 0.53063 0.1444 0.98238 0.0
C1676 C 0.5716 0.14001 0.97959 0.0
C1677 C 0.6024 0.14653 0.03241 0.0
C1678 C 0.58905 0.14792 0.01659 0.0
C1679 C 0.54742 0.14815 0.97256 0.0
C1680 C 0.56189 0.14834 0.98774 0.0
H1681 H 0.6069 0.13741 0.09042 0.0
H1682 H 0.5863 0.14136 0.06464 0.0
H1683 H 0.5918 0.13279 0.98724 0.0
H1684 H 0.53869 0.15124 0.91392 0.0
H1685 H 0.56299 0.15431 0.93971 0.0
C1686 C 0.46921 0.61696 0.57264 0.0
C1687 C 0.48599 0.62968 0.56251 0.0
C1688 C 0.45489 0.60472 0.55822 0.0
C1689 C 0.43773 0.59437 0.49597 0.0
H1690 H 0.41406 0.5445 0.51825 0.0
C1691 C 0.39564 0.53385 0.43354 0.0
C1692 C 0.37994 0.51852 0.44239 0.0
C1693 C 0.40702 0.54805 0.44872 0.0
C1694 C 0.42026 0.55837 0.51194 0.0
H1695 H 0.5005 0.64012 0.52905 0.0
H1696 H 0.47541 0.61856 0.50375 0.0
H1697 H 0.43683 0.56858 0.54325 0.0
H1698 H 0.36382 0.50638 0.47432 0.0
H1699 H 0.38376 0.53137 0.50094 0.0
H1700 H 0.4213 0.58409 0.46449 0.0
C1701 C 0.47337 0.61817 0.52294 0.0
C1702 C 0.43337 0.5722 0.52626 0.0
C1703 C 0.48776 0.63051 0.53743 0.0
C1704 C 0.37581 0.51791 0.46689 0.0
C1705 C 0.38728 0.53221 0.48216 0.0
C1706 C 0.42458 0.58052 0.48166 0.0
C1707 C 0.45695 0.60482 0.53327 0.0
C1708 C 0.44239 0.59035 0.51836 0.0
C1709 C 0.40306 0.54742 0.47322 0.0
C1710 C 0.41585 0.56232 0.48933 0.0
H1711 H 0.46724 0.61609 0.59187 0.0
H1712 H 0.44229 0.59491 0.56671 0.0
H1713 H 0.44424 0.60822 0.48952 0.0
H1714 H 0.39936 0.53489 0.41481 0.0
H1715 H 0.4192 0.55935 0.44126 0.0
C1716 C 0.85255 0.38692 0.92901 0.0
C1717 C 0.85691 0.37433 0.93875 0.0
C1718 C 0.85071 0.39914 0.94371 0.0
C1719 C 0.84517 0.40968 0.00639 0.0
H1720 H 0.8707 0.45942 0.98357 0.0
C1721 C 0.86401 0.47048 0.06851 0.0
C1722 C 0.86327 0.48558 0.05965 0.0
C1723 C 0.86117 0.45625 0.05341 0.0
C1724 C 0.86322 0.44558 0.99006 0.0
H1725 H 0.86175 0.36409 0.97183 0.0
H1726 H 0.85863 0.38562 0.99764 0.0
H1727 H 0.86907 0.43532 0.9584 0.0
H1728 H 0.85861 0.49728 0.02781 0.0
H1729 H 0.8535 0.47224 0.00135 0.0
H1730 H 0.83951 0.42002 0.03819 0.0
C1731 C 0.85657 0.38592 0.97854 0.0
C1732 C 0.86231 0.43174 0.97563 0.0
C1733 C 0.85837 0.37359 0.96376 0.0
C1734 C 0.85937 0.48593 0.03524 0.0
C1735 C 0.85651 0.47161 0.02006 0.0
C1736 C 0.84604 0.42354 0.02081 0.0
C1737 C 0.85322 0.39916 0.96857 0.0
C1738 C 0.8534 0.41364 0.98369 0.0
C1739 C 0.85745 0.45662 0.02899 0.0
C1740 C 0.85526 0.44169 0.01293 0.0
H1741 H 0.85104 0.3877 0.90985 0.0
H1742 H 0.84769 0.40885 0.93552 0.0
H1743 H 0.838 0.39586 0.01298 0.0
H1744 H 0.86701 0.46966 0.08717 0.0
H1745 H 0.86233 0.44513 0.06084 0.0
C1746 C 0.47264 0.8638 0.43003 0.0
C1747 C 0.48738 0.86244 0.43901 0.0
C1748 C 0.45833 0.86108 0.44491 0.0
C1749 C 0.44705 0.86241 0.50818 0.0
H1750 H 0.39762 0.83891 0.48408 0.0
C1751 C 0.38813 0.85242 0.5683 0.0
C1752 C 0.37602 0.85743 0.55857 0.0
C1753 C 0.40031 0.85044 0.55367 0.0
C1754 C 0.41136 0.84559 0.491 0.0
H1755 H 0.49835 0.85681 0.47083 0.0
H1756 H 0.47314 0.85189 0.4969 0.0
H1757 H 0.42177 0.84003 0.45919 0.0
H1758 H 0.36657 0.86332 0.52556 0.0
H1759 H 0.38805 0.85998 0.49987 0.0
H1760 H 0.43673 0.86816 0.53986 0.0
C1761 C 0.47286 0.85529 0.47827 0.0
C1762 C 0.42521 0.84624 0.47677 0.0
C1763 C 0.48728 0.85804 0.46331 0.0
C1764 C 0.37571 0.85944 0.53361 0.0
C1765 C 0.388 0.85751 0.51891 0.0
C1766 C 0.43321 0.86171 0.52242 0.0
C1767 C 0.45825 0.85686 0.46923 0.0
C1768 C 0.44327 0.85485 0.48508 0.0
C1769 C 0.40077 0.85347 0.5289 0.0
C1770 C 0.41523 0.85343 0.51394 0.0
H1771 H 0.47217 0.8672 0.41145 0.0
H1772 H 0.44751 0.86273 0.4374 0.0
H1773 H 0.46083 0.86941 0.515 0.0
H1774 H 0.38857 0.85046 0.58741 0.0
H1775 H 0.40965 0.84689 0.56187 0.0
loop_
_geom_bond_atom_site_label_1
_geom_bond_atom_site_label_2
_geom_bond_distance
_geom_bond_site_symmetry_2
_ccdc_geom_bond_type
Co0 O1 2.216 . S
Co0 O2 2.091 . S
Co0 O4 2.004 . S
Co0 O10 2.021 . S
Co0 O12 2.137 . S
Co0 O13 2.244 . S
O1 Co0 2.216 . S
O1 C8 1.247 . S
O2 Co0 2.091 . S
O2 C8 1.261 . S
C3 O12 1.247 . S
C3 O13 1.272 . S
O4 Co0 2.004 . S
O4 C9 1.259 . S
Co5 O6 2.061 . S
Co5 O11 2.052 . S
Co5 O13 2.135 . S
O6 Co5 2.061 . S
O6 C9 1.235 . S
C7 O10 1.238 . S
C7 O11 1.241 . S
C8 O1 1.247 . S
C8 O2 1.261 . S
C9 O4 1.259 . S
C9 O6 1.235 . S
O10 Co0 2.021 . S
O10 C7 1.238 . S
O11 Co5 2.052 . S
O11 C7 1.241 . S
O12 Co0 2.137 . S
O12 C3 1.247 . S
O13 Co0 2.244 . S
O13 C3 1.272 . S
O13 Co5 2.135 . S
Co14 O15 2.216 . S
Co14 O16 2.091 . S
Co14 O18 2.004 . S
Co14 O24 2.021 . S
Co14 O26 2.137 . S
Co14 O27 2.244 . S
O15 Co14 2.216 . S
O15 C22 1.247 . S
O16 Co14 2.091 . S
O16 C22 1.261 . S
C17 O26 1.247 . S
C17 O27 1.272 . S
O18 Co14 2.004 . S
O18 C23 1.259 . S
Co19 O20 2.061 . S
Co19 O25 2.052 . S
Co19 O27 2.135 . S
O20 Co19 2.061 . S
O20 C23 1.235 . S
C21 O24 1.238 . S
C21 O25 1.241 . S
C22 O15 1.247 . S
C22 O16 1.261 . S
C23 O18 1.259 . S
C23 O20 1.235 . S
O24 Co14 2.021 . S
O24 C21 1.238 . S
O25 Co19 2.052 . S
O25 C21 1.241 . S
O26 Co14 2.137 . S
O26 C17 1.247 . S
O27 Co14 2.244 . S
O27 C17 1.272 . S
O27 Co19 2.135 . S
Co28 O29 2.216 . S
Co28 O30 2.091 . S
Co28 O32 2.004 . S
Co28 O38 2.021 . S
Co28 O40 2.137 . S
Co28 O41 2.244 . S
O29 Co28 2.216 . S
O29 C36 1.247 . S
O30 Co28 2.091 . S
O30 C36 1.261 . S
C31 O40 1.247 . S
C31 O41 1.272 . S
O32 Co28 2.004 . S
O32 C37 1.259 . S
Co33 O34 2.061 . S
Co33 O39 2.052 . S
Co33 O41 2.135 . S
O34 Co33 2.061 . S
O34 C37 1.235 . S
C35 O38 1.238 . S
C35 O39 1.241 . S
C36 O29 1.247 . S
C36 O30 1.261 . S
C37 O32 1.259 . S
C37 O34 1.235 . S
O38 Co28 2.021 . S
O38 C35 1.238 . S
O39 Co33 2.052 . S
O39 C35 1.241 . S
O40 Co28 2.137 . S
O40 C31 1.247 . S
O41 Co28 2.244 . S
O41 C31 1.272 . S
O41 Co33 2.135 . S
Co42 O43 2.216 . S
Co42 O44 2.091 . S
Co42 O46 2.004 . S
Co42 O52 2.021 . S
Co42 O54 2.137 . S
Co42 O55 2.244 . S
O43 Co42 2.216 . S
O43 C50 1.247 . S
O44 Co42 2.091 . S
O44 C50 1.261 . S
C45 O54 1.247 . S
C45 O55 1.272 . S
O46 Co42 2.004 . S
O46 C51 1.259 . S
Co47 O48 2.061 . S
Co47 O53 2.052 . S
Co47 O55 2.135 . S
O48 Co47 2.061 . S
O48 C51 1.235 . S
C49 O52 1.238 . S
C49 O53 1.241 . S
C50 O43 1.247 . S
C50 O44 1.261 . S
C51 O46 1.259 . S
C51 O48 1.235 . S
O52 Co42 2.021 . S
O52 C49 1.238 . S
O53 Co47 2.052 . S
O53 C49 1.241 . S
O54 Co42 2.137 . S
O54 C45 1.247 . S
O55 Co42 2.244 . S
O55 C45 1.272 . S
O55 Co47 2.135 . S
Co56 O57 2.216 . S
Co56 O58 2.091 . S
Co56 O60 2.004 . S
Co56 O66 2.021 . S
Co56 O68 2.137 . S
Co56 O69 2.244 . S
O57 Co56 2.216 . S
O57 C64 1.247 . S
O58 Co56 2.091 . S
O58 C64 1.261 . S
C59 O68 1.247 . S
C59 O69 1.272 . S
O60 Co56 2.004 . S
O60 C65 1.259 . S
Co61 O62 2.061 . S
Co61 O67 2.052 . S
Co61 O69 2.135 . S
O62 Co61 2.061 . S
O62 C65 1.235 . S
C63 O66 1.238 . S
C63 O67 1.241 . S
C64 O57 1.247 . S
C64 O58 1.261 . S
C65 O60 1.259 . S
C65 O62 1.235 . S
O66 Co56 2.021 . S
O66 C63 1.238 . S
O67 Co61 2.052 . S
O67 C63 1.241 . S
O68 Co56 2.137 . S
O68 C59 1.247 . S
O69 Co56 2.244 . S
O69 C59 1.272 . S
O69 Co61 2.135 . S
Co70 O71 2.216 . S
Co70 O72 2.091 . S
Co70 O74 2.004 . S
Co70 O80 2.021 . S
Co70 O82 2.137 . S
Co70 O83 2.244 . S
O71 Co70 2.216 . S
O71 C78 1.247 . S
O72 Co70 2.091 . S
O72 C78 1.261 . S
C73 O82 1.247 . S
C73 O83 1.272 . S
O74 Co70 2.004 . S
O74 C79 1.259 . S
Co75 O76 2.061 . S
Co75 O81 2.052 . S
Co75 O83 2.135 . S
O76 Co75 2.061 . S
O76 C79 1.235 . S
C77 O80 1.238 . S
C77 O81 1.241 . S
C78 O71 1.247 . S
C78 O72 1.261 . S
C79 O74 1.259 . S
C79 O76 1.235 . S
O80 Co70 2.021 . S
O80 C77 1.238 . S
O81 Co75 2.052 . S
O81 C77 1.241 . S
O82 Co70 2.137 . S
O82 C73 1.247 . S
O83 Co70 2.244 . S
O83 C73 1.272 . S
O83 Co75 2.135 . S
Co84 O85 2.216 . S
Co84 O86 2.091 . S
Co84 O88 2.004 . S
Co84 O94 2.021 . S
Co84 O96 2.137 . S
Co84 O97 2.244 . S
O85 Co84 2.216 . S
O85 C92 1.247 . S
O86 Co84 2.091 . S
O86 C92 1.261 . S
C87 O96 1.247 . S
C87 O97 1.272 . S
O88 Co84 2.004 . S
O88 C93 1.259 . S
Co89 O90 2.061 . S
Co89 O95 2.052 . S
Co89 O97 2.135 . S
O90 Co89 2.061 . S
O90 C93 1.235 . S
C91 O94 1.238 . S
C91 O95 1.241 . S
C92 O85 1.247 . S
C92 O86 1.261 . S
C93 O88 1.259 . S
C93 O90 1.235 . S
O94 Co84 2.021 . S
O94 C91 1.238 . S
O95 Co89 2.052 . S
O95 C91 1.241 . S
O96 Co84 2.137 . S
O96 C87 1.247 . S
O97 Co84 2.244 . S
O97 C87 1.272 . S
O97 Co89 2.135 . S
Co98 O99 2.216 . S
Co98 O100 2.091 . S
Co98 O102 2.004 . S
Co98 O108 2.021 . S
Co98 O110 2.137 . S
Co98 O111 2.244 . S
O99 Co98 2.216 . S
O99 C106 1.247 . S
O100 Co98 2.091 . S
O100 C106 1.261 . S
C101 O110 1.247 . S
C101 O111 1.272 . S
O102 Co98 2.004 . S
O102 C107 1.259 . S
Co103 O104 2.061 . S
Co103 O109 2.052 . S
Co103 O111 2.135 . S
O104 Co103 2.061 . S
O104 C107 1.235 . S
C105 O108 1.238 . S
C105 O109 1.241 . S
C106 O99 1.247 . S
C106 O100 1.261 . S
C107 O102 1.259 . S
C107 O104 1.235 . S
O108 Co98 2.021 . S
O108 C105 1.238 . S
O109 Co103 2.052 . S
O109 C105 1.241 . S
O110 Co98 2.137 . S
O110 C101 1.247 . S
O111 Co98 2.244 . S
O111 C101 1.272 . S
O111 Co103 2.135 . S
Co112 O113 2.216 . S
Co112 O114 2.091 . S
Co112 O116 2.004 . S
Co112 O122 2.021 . S
Co112 O124 2.137 . S
Co112 O125 2.244 . S
O113 Co112 2.216 . S
O113 C120 1.247 . S
O114 Co112 2.091 . S
O114 C120 1.261 . S
C115 O124 1.247 . S
C115 O125 1.272 . S
O116 Co112 2.004 . S
O116 C121 1.259 . S
Co117 O118 2.061 . S
Co117 O123 2.052 . S
Co117 O125 2.135 . S
O118 Co117 2.061 . S
O118 C121 1.235 . S
C119 O122 1.238 . S
C119 O123 1.241 . S
C120 O113 1.247 . S
C120 O114 1.261 . S
C121 O116 1.259 . S
C121 O118 1.235 . S
O122 Co112 2.021 . S
O122 C119 1.238 . S
O123 Co117 2.052 . S
O123 C119 1.241 . S
O124 Co112 2.137 . S
O124 C115 1.247 . S
O125 Co112 2.244 . S
O125 C115 1.272 . S
O125 Co117 2.135 . S
Co126 O127 2.216 . S
Co126 O128 2.091 . S
Co126 O130 2.004 . S
Co126 O136 2.021 . S
Co126 O138 2.137 . S
Co126 O139 2.244 . S
O127 Co126 2.216 . S
O127 C134 1.247 . S
O128 Co126 2.091 . S
O128 C134 1.261 . S
C129 O138 1.247 . S
C129 O139 1.272 . S
O130 Co126 2.004 . S
O130 C135 1.259 . S
Co131 O132 2.061 . S
Co131 O137 2.052 . S
Co131 O139 2.135 . S
O132 Co131 2.061 . S
O132 C135 1.235 . S
C133 O136 1.238 . S
C133 O137 1.241 . S
C134 O127 1.247 . S
C134 O128 1.261 . S
C135 O130 1.259 . S
C135 O132 1.235 . S
O136 Co126 2.021 . S
O136 C133 1.238 . S
O137 Co131 2.052 . S
O137 C133 1.241 . S
O138 Co126 2.137 . S
O138 C129 1.247 . S
O139 Co126 2.244 . S
O139 C129 1.272 . S
O139 Co131 2.135 . S
Co140 O141 2.216 . S
Co140 O142 2.091 . S
Co140 O144 2.004 . S
Co140 O150 2.021 . S
Co140 O152 2.137 . S
Co140 O153 2.244 . S
O141 Co140 2.216 . S
O141 C148 1.247 . S
O142 Co140 2.091 . S
O142 C148 1.261 . S
C143 O152 1.247 . S
C143 O153 1.272 . S
O144 Co140 2.004 . S
O144 C149 1.259 . S
Co145 O146 2.061 . S
Co145 O151 2.052 . S
Co145 O153 2.135 . S
O146 Co145 2.061 . S
O146 C149 1.235 . S
C147 O150 1.238 . S
C147 O151 1.241 . S
C148 O141 1.247 . S
C148 O142 1.261 . S
C149 O144 1.259 . S
C149 O146 1.235 . S
O150 Co140 2.021 . S
O150 C147 1.238 . S
O151 Co145 2.052 . S
O151 C147 1.241 . S
O152 Co140 2.137 . S
O152 C143 1.247 . S
O153 Co140 2.244 . S
O153 C143 1.272 . S
O153 Co145 2.135 . S
Co154 O155 2.216 . S
Co154 O156 2.091 . S
Co154 O158 2.004 . S
Co154 O164 2.021 . S
Co154 O166 2.137 . S
Co154 O167 2.244 . S
O155 Co154 2.216 . S
O155 C162 1.247 . S
O156 Co154 2.091 . S
O156 C162 1.261 . S
C157 O166 1.247 . S
C157 O167 1.272 . S
O158 Co154 2.004 . S
O158 C163 1.259 . S
Co159 O160 2.061 . S
Co159 O165 2.052 . S
Co159 O167 2.135 . S
O160 Co159 2.061 . S
O160 C163 1.235 . S
C161 O164 1.238 . S
C161 O165 1.241 . S
C162 O155 1.247 . S
C162 O156 1.261 . S
C163 O158 1.259 . S
C163 O160 1.235 . S
O164 Co154 2.021 . S
O164 C161 1.238 . S
O165 Co159 2.052 . S
O165 C161 1.241 . S
O166 Co154 2.137 . S
O166 C157 1.247 . S
O167 Co154 2.244 . S
O167 C157 1.272 . S
O167 Co159 2.135 . S
Co168 O169 2.216 . S
Co168 O170 2.091 . S
Co168 O172 2.004 . S
Co168 O178 2.021 . S
Co168 O180 2.137 . S
Co168 O181 2.244 . S
O169 Co168 2.216 . S
O169 C176 1.247 . S
O170 Co168 2.091 . S
O170 C176 1.261 . S
C171 O180 1.247 . S
C171 O181 1.272 . S
O172 Co168 2.004 . S
O172 C177 1.259 . S
Co173 O174 2.061 . S
Co173 O179 2.052 . S
Co173 O181 2.135 . S
O174 Co173 2.061 . S
O174 C177 1.235 . S
C175 O178 1.238 . S
C175 O179 1.241 . S
C176 O169 1.247 . S
C176 O170 1.261 . S
C177 O172 1.259 . S
C177 O174 1.235 . S
O178 Co168 2.021 . S
O178 C175 1.238 . S
O179 Co173 2.052 . S
O179 C175 1.241 . S
O180 Co168 2.137 . S
O180 C171 1.247 . S
O181 Co168 2.244 . S
O181 C171 1.272 . S
O181 Co173 2.135 . S
Co182 O183 2.216 . S
Co182 O184 2.091 . S
Co182 O186 2.004 . S
Co182 O192 2.021 . S
Co182 O194 2.137 . S
Co182 O195 2.244 . S
O183 Co182 2.216 . S
O183 C190 1.247 . S
O184 Co182 2.091 . S
O184 C190 1.261 . S
C185 O194 1.247 . S
C185 O195 1.272 . S
O186 Co182 2.004 . S
O186 C191 1.259 . S
Co187 O188 2.061 . S
Co187 O193 2.052 . S
Co187 O195 2.135 . S
O188 Co187 2.061 . S
O188 C191 1.235 . S
C189 O192 1.238 . S
C189 O193 1.241 . S
C190 O183 1.247 . S
C190 O184 1.261 . S
C191 O186 1.259 . S
C191 O188 1.235 . S
O192 Co182 2.021 . S
O192 C189 1.238 . S
O193 Co187 2.052 . S
O193 C189 1.241 . S
O194 Co182 2.137 . S
O194 C185 1.247 . S
O195 Co182 2.244 . S
O195 C185 1.272 . S
O195 Co187 2.135 . S
Co196 O197 2.216 . S
Co196 O198 2.091 . S
Co196 O200 2.004 . S
Co196 O206 2.021 . S
Co196 O208 2.137 . S
Co196 O209 2.244 . S
O197 Co196 2.216 . S
O197 C204 1.247 . S
O198 Co196 2.091 . S
O198 C204 1.261 . S
C199 O208 1.247 . S
C199 O209 1.272 . S
O200 Co196 2.004 . S
O200 C205 1.259 . S
Co201 O202 2.061 . S
Co201 O207 2.052 . S
Co201 O209 2.135 . S
O202 Co201 2.061 . S
O202 C205 1.235 . S
C203 O206 1.238 . S
C203 O207 1.241 . S
C204 O197 1.247 . S
C204 O198 1.261 . S
C205 O200 1.259 . S
C205 O202 1.235 . S
O206 Co196 2.021 . S
O206 C203 1.238 . S
O207 Co201 2.052 . S
O207 C203 1.241 . S
O208 Co196 2.137 . S
O208 C199 1.247 . S
O209 Co196 2.244 . S
O209 C199 1.272 . S
O209 Co201 2.135 . S
Co210 O211 2.216 . S
Co210 O212 2.091 . S
Co210 O214 2.004 . S
Co210 O220 2.021 . S
Co210 O222 2.137 . S
Co210 O223 2.244 . S
O211 Co210 2.216 . S
O211 C218 1.247 . S
O212 Co210 2.091 . S
O212 C218 1.261 . S
C213 O222 1.247 . S
C213 O223 1.272 . S
O214 Co210 2.004 . S
O214 C219 1.259 . S
Co215 O216 2.061 . S
Co215 O221 2.052 . S
Co215 O223 2.135 . S
O216 Co215 2.061 . S
O216 C219 1.235 . S
C217 O220 1.238 . S
C217 O221 1.241 . S
C218 O211 1.247 . S
C218 O212 1.261 . S
C219 O214 1.259 . S
C219 O216 1.235 . S
O220 Co210 2.021 . S
O220 C217 1.238 . S
O221 Co215 2.052 . S
O221 C217 1.241 . S
O222 Co210 2.137 . S
O222 C213 1.247 . S
O223 Co210 2.244 . S
O223 C213 1.272 . S
O223 Co215 2.135 . S
Co224 O225 2.216 . S
Co224 O226 2.091 . S
Co224 O228 2.004 . S
Co224 O234 2.021 . S
Co224 O236 2.137 . S
Co224 O237 2.244 . S
O225 Co224 2.216 . S
O225 C232 1.247 . S
O226 Co224 2.091 . S
O226 C232 1.261 . S
C227 O236 1.247 . S
C227 O237 1.272 . S
O228 Co224 2.004 . S
O228 C233 1.259 . S
Co229 O230 2.061 . S
Co229 O235 2.052 . S
Co229 O237 2.135 . S
O230 Co229 2.061 . S
O230 C233 1.235 . S
C231 O234 1.238 . S
C231 O235 1.241 . S
C232 O225 1.247 . S
C232 O226 1.261 . S
C233 O228 1.259 . S
C233 O230 1.235 . S
O234 Co224 2.021 . S
O234 C231 1.238 . S
O235 Co229 2.052 . S
O235 C231 1.241 . S
O236 Co224 2.137 . S
O236 C227 1.247 . S
O237 Co224 2.244 . S
O237 C227 1.272 . S
O237 Co229 2.135 . S
Co238 O239 2.216 . S
Co238 O240 2.091 . S
Co238 O242 2.004 . S
Co238 O248 2.021 . S
Co238 O250 2.137 . S
Co238 O251 2.244 . S
O239 Co238 2.216 . S
O239 C246 1.247 . S
O240 Co238 2.091 . S
O240 C246 1.261 . S
C241 O250 1.247 . S
C241 O251 1.272 . S
O242 Co238 2.004 . S
O242 C247 1.259 . S
Co243 O244 2.061 . S
Co243 O249 2.052 . S
Co243 O251 2.135 . S
O244 Co243 2.061 . S
O244 C247 1.235 . S
C245 O248 1.238 . S
C245 O249 1.241 . S
C246 O239 1.247 . S
C246 O240 1.261 . S
C247 O242 1.259 . S
C247 O244 1.235 . S
O248 Co238 2.021 . S
O248 C245 1.238 . S
O249 Co243 2.052 . S
O249 C245 1.241 . S
O250 Co238 2.137 . S
O250 C241 1.247 . S
O251 Co238 2.244 . S
O251 C241 1.272 . S
O251 Co243 2.135 . S
Co252 O253 2.216 . S
Co252 O254 2.091 . S
Co252 O256 2.004 . S
Co252 O262 2.021 . S
Co252 O264 2.137 . S
Co252 O265 2.244 . S
O253 Co252 2.216 . S
O253 C260 1.247 . S
O254 Co252 2.091 . S
O254 C260 1.261 . S
C255 O264 1.247 . S
C255 O265 1.272 . S
O256 Co252 2.004 . S
O256 C261 1.259 . S
Co257 O258 2.061 . S
Co257 O263 2.052 . S
Co257 O265 2.135 . S
O258 Co257 2.061 . S
O258 C261 1.235 . S
C259 O262 1.238 . S
C259 O263 1.241 . S
C260 O253 1.247 . S
C260 O254 1.261 . S
C261 O256 1.259 . S
C261 O258 1.235 . S
O262 Co252 2.021 . S
O262 C259 1.238 . S
O263 Co257 2.052 . S
O263 C259 1.241 . S
O264 Co252 2.137 . S
O264 C255 1.247 . S
O265 Co252 2.244 . S
O265 C255 1.272 . S
O265 Co257 2.135 . S
Co266 O267 2.216 . S
Co266 O268 2.091 . S
Co266 O270 2.004 . S
Co266 O276 2.021 . S
Co266 O278 2.137 . S
Co266 O279 2.244 . S
O267 Co266 2.216 . S
O267 C274 1.247 . S
O268 Co266 2.091 . S
O268 C274 1.261 . S
C269 O278 1.247 . S
C269 O279 1.272 . S
O270 Co266 2.004 . S
O270 C275 1.259 . S
Co271 O272 2.061 . S
Co271 O277 2.052 . S
Co271 O279 2.135 . S
O272 Co271 2.061 . S
O272 C275 1.235 . S
C273 O276 1.238 . S
C273 O277 1.241 . S
C274 O267 1.247 . S
C274 O268 1.261 . S
C275 O270 1.259 . S
C275 O272 1.235 . S
O276 Co266 2.021 . S
O276 C273 1.238 . S
O277 Co271 2.052 . S
O277 C273 1.241 . S
O278 Co266 2.137 . S
O278 C269 1.247 . S
O279 Co266 2.244 . S
O279 C269 1.272 . S
O279 Co271 2.135 . S
Co280 O281 2.216 . S
Co280 O282 2.091 . S
Co280 O284 2.004 . S
Co280 O290 2.021 . S
Co280 O292 2.137 . S
Co280 O293 2.244 . S
O281 Co280 2.216 . S
O281 C288 1.247 . S
O282 Co280 2.091 . S
O282 C288 1.261 . S
C283 O292 1.247 . S
C283 O293 1.272 . S
O284 Co280 2.004 . S
O284 C289 1.259 . S
Co285 O286 2.061 . S
Co285 O291 2.052 . S
Co285 O293 2.135 . S
O286 Co285 2.061 . S
O286 C289 1.235 . S
C287 O290 1.238 . S
C287 O291 1.241 . S
C288 O281 1.247 . S
C288 O282 1.261 . S
C289 O284 1.259 . S
C289 O286 1.235 . S
O290 Co280 2.021 . S
O290 C287 1.238 . S
O291 Co285 2.052 . S
O291 C287 1.241 . S
O292 Co280 2.137 . S
O292 C283 1.247 . S
O293 Co280 2.244 . S
O293 C283 1.272 . S
O293 Co285 2.135 . S
Co294 O295 2.216 . S
Co294 O296 2.091 . S
Co294 O298 2.004 . S
Co294 O304 2.021 . S
Co294 O306 2.137 . S
Co294 O307 2.244 . S
O295 Co294 2.216 . S
O295 C302 1.247 . S
O296 Co294 2.091 . S
O296 C302 1.261 . S
C297 O306 1.247 . S
C297 O307 1.272 . S
O298 Co294 2.004 . S
O298 C303 1.259 . S
Co299 O300 2.061 . S
Co299 O305 2.052 . S
Co299 O307 2.135 . S
O300 Co299 2.061 . S
O300 C303 1.235 . S
C301 O304 1.238 . S
C301 O305 1.241 . S
C302 O295 1.247 . S
C302 O296 1.261 . S
C303 O298 1.259 . S
C303 O300 1.235 . S
O304 Co294 2.021 . S
O304 C301 1.238 . S
O305 Co299 2.052 . S
O305 C301 1.241 . S
O306 Co294 2.137 . S
O306 C297 1.247 . S
O307 Co294 2.244 . S
O307 C297 1.272 . S
O307 Co299 2.135 . S
Co308 O309 2.216 . S
Co308 O310 2.091 . S
Co308 O312 2.004 . S
Co308 O318 2.021 . S
Co308 O320 2.137 . S
Co308 O321 2.244 . S
O309 Co308 2.216 . S
O309 C316 1.247 . S
O310 Co308 2.091 . S
O310 C316 1.261 . S
C311 O320 1.247 . S
C311 O321 1.272 . S
O312 Co308 2.004 . S
O312 C317 1.259 . S
Co313 O314 2.061 . S
Co313 O319 2.052 . S
Co313 O321 2.135 . S
O314 Co313 2.061 . S
O314 C317 1.235 . S
C315 O318 1.238 . S
C315 O319 1.241 . S
C316 O309 1.247 . S
C316 O310 1.261 . S
C317 O312 1.259 . S
C317 O314 1.235 . S
O318 Co308 2.021 . S
O318 C315 1.238 . S
O319 Co313 2.052 . S
O319 C315 1.241 . S
O320 Co308 2.137 . S
O320 C311 1.247 . S
O321 Co308 2.244 . S
O321 C311 1.272 . S
O321 Co313 2.135 . S
Co322 O323 2.216 . S
Co322 O324 2.091 . S
Co322 O326 2.004 . S
Co322 O332 2.021 . S
Co322 O334 2.137 . S
Co322 O335 2.244 . S
O323 Co322 2.216 . S
O323 C330 1.247 . S
O324 Co322 2.091 . S
O324 C330 1.261 . S
C325 O334 1.247 . S
C325 O335 1.272 . S
O326 Co322 2.004 . S
O326 C331 1.259 . S
Co327 O328 2.061 . S
Co327 O333 2.052 . S
Co327 O335 2.135 . S
O328 Co327 2.061 . S
O328 C331 1.235 . S
C329 O332 1.238 . S
C329 O333 1.241 . S
C330 O323 1.247 . S
C330 O324 1.261 . S
C331 O326 1.259 . S
C331 O328 1.235 . S
O332 Co322 2.021 . S
O332 C329 1.238 . S
O333 Co327 2.052 . S
O333 C329 1.241 . S
O334 Co322 2.137 . S
O334 C325 1.247 . S
O335 Co322 2.244 . S
O335 C325 1.272 . S
O335 Co327 2.135 . S
C336 C337 1.349 . S
C336 C338 1.327 . S
C336 H361 0.950 . S
C337 C336 1.349 . S
C337 C353 1.349 . S
C338 C336 1.327 . S
C338 C357 1.429 . S
C338 H362 0.950 . S
C339 C356 1.574 . S
C339 C358 1.368 . S
C339 H363 0.949 . S
H340 C344 0.949 . S
C341 C342 1.349 . S
C341 C343 1.327 . S
C341 H364 0.950 . S
C342 C341 1.349 . S
C342 C354 1.349 . S
C343 C341 1.327 . S
C343 C359 1.429 . S
C343 H365 0.950 . S
C344 H340 0.949 . S
C344 C352 1.574 . S
C344 C360 1.368 . S
H345 C353 0.950 . S
H346 C351 0.950 . S
H347 C352 0.949 . S
H348 C354 0.950 . S
H349 C355 0.950 . S
H350 C356 0.949 . S
C351 H346 0.950 . S
C351 C353 1.327 . S
C351 C357 1.429 . S
C352 C344 1.574 . S
C352 H347 0.949 . S
C352 C358 1.368 . S
C353 C337 1.349 . S
C353 H345 0.950 . S
C353 C351 1.327 . S
C354 C342 1.349 . S
C354 H348 0.950 . S
C354 C355 1.327 . S
C355 H349 0.950 . S
C355 C354 1.327 . S
C355 C359 1.429 . S
C356 C339 1.574 . S
C356 H350 0.949 . S
C356 C360 1.368 . S
C357 C338 1.429 . S
C357 C351 1.429 . S
C357 C358 1.523 . S
C358 C339 1.368 . S
C358 C352 1.368 . S
C358 C357 1.523 . S
C359 C343 1.429 . S
C359 C355 1.429 . S
C359 C360 1.523 . S
C360 C344 1.368 . S
C360 C356 1.368 . S
C360 C359 1.523 . S
H361 C336 0.950 . S
H362 C338 0.950 . S
H363 C339 0.949 . S
H364 C341 0.950 . S
H365 C343 0.950 . S
C366 C367 1.349 . S
C366 C368 1.327 . S
C366 H391 0.950 . S
C367 C366 1.349 . S
C367 C383 1.349 . S
C368 C366 1.327 . S
C368 C387 1.429 . S
C368 H392 0.950 . S
C369 C386 1.574 . S
C369 C388 1.368 . S
C369 H393 0.949 . S
H370 C374 0.949 . S
C371 C372 1.349 . S
C371 C373 1.327 . S
C371 H394 0.950 . S
C372 C371 1.349 . S
C372 C384 1.349 . S
C373 C371 1.327 . S
C373 C389 1.429 . S
C373 H395 0.950 . S
C374 H370 0.949 . S
C374 C382 1.574 . S
C374 C390 1.368 . S
H375 C383 0.950 . S
H376 C381 0.950 . S
H377 C382 0.949 . S
H378 C384 0.950 . S
H379 C385 0.950 . S
H380 C386 0.949 . S
C381 H376 0.950 . S
C381 C383 1.327 . S
C381 C387 1.429 . S
C382 C374 1.574 . S
C382 H377 0.949 . S
C382 C388 1.368 . S
C383 C367 1.349 . S
C383 H375 0.950 . S
C383 C381 1.327 . S
C384 C372 1.349 . S
C384 H378 0.950 . S
C384 C385 1.327 . S
C385 H379 0.950 . S
C385 C384 1.327 . S
C385 C389 1.429 . S
C386 C369 1.574 . S
C386 H380 0.949 . S
C386 C390 1.368 . S
C387 C368 1.429 . S
C387 C381 1.429 . S
C387 C388 1.523 . S
C388 C369 1.368 . S
C388 C382 1.368 . S
C388 C387 1.523 . S
C389 C373 1.429 . S
C389 C385 1.429 . S
C389 C390 1.523 . S
C390 C374 1.368 . S
C390 C386 1.368 . S
C390 C389 1.523 . S
H391 C366 0.950 . S
H392 C368 0.950 . S
H393 C369 0.949 . S
H394 C371 0.950 . S
H395 C373 0.950 . S
C396 C397 1.349 . S
C396 C398 1.327 . S
C396 H421 0.950 . S
C397 C396 1.349 . S
C397 C413 1.349 . S
C398 C396 1.327 . S
C398 C417 1.429 . S
C398 H422 0.950 . S
C399 C416 1.574 . S
C399 C418 1.368 . S
C399 H423 0.949 . S
H400 C404 0.949 . S
C401 C402 1.349 . S
C401 C403 1.327 . S
C401 H424 0.950 . S
C402 C401 1.349 . S
C402 C414 1.349 . S
C403 C401 1.327 . S
C403 C419 1.429 . S
C403 H425 0.950 . S
C404 H400 0.949 . S
C404 C412 1.574 . S
C404 C420 1.368 . S
H405 C413 0.950 . S
H406 C411 0.950 . S
H407 C412 0.949 . S
H408 C414 0.950 . S
H409 C415 0.950 . S
H410 C416 0.949 . S
C411 H406 0.950 . S
C411 C413 1.327 . S
C411 C417 1.429 . S
C412 C404 1.574 . S
C412 H407 0.949 . S
C412 C418 1.368 . S
C413 C397 1.349 . S
C413 H405 0.950 . S
C413 C411 1.327 . S
C414 C402 1.349 . S
C414 H408 0.950 . S
C414 C415 1.327 . S
C415 H409 0.950 . S
C415 C414 1.327 . S
C415 C419 1.429 . S
C416 C399 1.574 . S
C416 H410 0.949 . S
C416 C420 1.368 . S
C417 C398 1.429 . S
C417 C411 1.429 . S
C417 C418 1.523 . S
C418 C399 1.368 . S
C418 C412 1.368 . S
C418 C417 1.523 . S
C419 C403 1.429 . S
C419 C415 1.429 . S
C419 C420 1.523 . S
C420 C404 1.368 . S
C420 C416 1.368 . S
C420 C419 1.523 . S
H421 C396 0.950 . S
H422 C398 0.950 . S
H423 C399 0.949 . S
H424 C401 0.950 . S
H425 C403 0.950 . S
C426 C427 1.349 . S
C426 C428 1.327 . S
C426 H451 0.950 . S
C427 C426 1.349 . S
C427 C443 1.349 . S
C428 C426 1.327 . S
C428 C447 1.429 . S
C428 H452 0.950 . S
C429 C446 1.574 . S
C429 C448 1.368 . S
C429 H453 0.949 . S
H430 C434 0.949 . S
C431 C432 1.349 . S
C431 C433 1.327 . S
C431 H454 0.950 . S
C432 C431 1.349 . S
C432 C444 1.349 . S
C433 C431 1.327 . S
C433 C449 1.429 . S
C433 H455 0.950 . S
C434 H430 0.949 . S
C434 C442 1.574 . S
C434 C450 1.368 . S
H435 C443 0.950 . S
H436 C441 0.950 . S
H437 C442 0.949 . S
H438 C444 0.950 . S
H439 C445 0.950 . S
H440 C446 0.949 . S
C441 H436 0.950 . S
C441 C443 1.327 . S
C441 C447 1.429 . S
C442 C434 1.574 . S
C442 H437 0.949 . S
C442 C448 1.368 . S
C443 C427 1.349 . S
C443 H435 0.950 . S
C443 C441 1.327 . S
C444 C432 1.349 . S
C444 H438 0.950 . S
C444 C445 1.327 . S
C445 H439 0.950 . S
C445 C444 1.327 . S
C445 C449 1.429 . S
C446 C429 1.574 . S
C446 H440 0.949 . S
C446 C450 1.368 . S
C447 C428 1.429 . S
C447 C441 1.429 . S
C447 C448 1.523 . S
C448 C429 1.368 . S
C448 C442 1.368 . S
C448 C447 1.523 . S
C449 C433 1.429 . S
C449 C445 1.429 . S
C449 C450 1.523 . S
C450 C434 1.368 . S
C450 C446 1.368 . S
C450 C449 1.523 . S
H451 C426 0.950 . S
H452 C428 0.950 . S
H453 C429 0.949 . S
H454 C431 0.950 . S
H455 C433 0.950 . S
C456 C457 1.349 . S
C456 C458 1.327 . S
C456 H481 0.950 . S
C457 C456 1.349 . S
C457 C473 1.349 . S
C458 C456 1.327 . S
C458 C477 1.429 . S
C458 H482 0.950 . S
C459 C476 1.574 . S
C459 C478 1.368 . S
C459 H483 0.949 . S
H460 C464 0.949 . S
C461 C462 1.349 . S
C461 C463 1.327 . S
C461 H484 0.950 . S
C462 C461 1.349 . S
C462 C474 1.349 . S
C463 C461 1.327 . S
C463 C479 1.429 . S
C463 H485 0.950 . S
C464 H460 0.949 . S
C464 C472 1.574 . S
C464 C480 1.368 . S
H465 C473 0.950 . S
H466 C471 0.950 . S
H467 C472 0.949 . S
H468 C474 0.950 . S
H469 C475 0.950 . S
H470 C476 0.949 . S
C471 H466 0.950 . S
C471 C473 1.327 . S
C471 C477 1.429 . S
C472 C464 1.574 . S
C472 H467 0.949 . S
C472 C478 1.368 . S
C473 C457 1.349 . S
C473 H465 0.950 . S
C473 C471 1.327 . S
C474 C462 1.349 . S
C474 H468 0.950 . S
C474 C475 1.327 . S
C475 H469 0.950 . S
C475 C474 1.327 . S
C475 C479 1.429 . S
C476 C459 1.574 . S
C476 H470 0.949 . S
C476 C480 1.368 . S
C477 C458 1.429 . S
C477 C471 1.429 . S
C477 C478 1.523 . S
C478 C459 1.368 . S
C478 C472 1.368 . S
C478 C477 1.523 . S
C479 C463 1.429 . S
C479 C475 1.429 . S
C479 C480 1.523 . S
C480 C464 1.368 . S
C480 C476 1.368 . S
C480 C479 1.523 . S
H481 C456 0.950 . S
H482 C458 0.950 . S
H483 C459 0.949 . S
H484 C461 0.950 . S
H485 C463 0.950 . S
C486 C487 1.349 . S
C486 C488 1.327 . S
C486 H511 0.950 . S
C487 C486 1.349 . S
C487 C503 1.349 . S
C488 C486 1.327 . S
C488 C507 1.429 . S
C488 H512 0.950 . S
C489 C506 1.574 . S
C489 C508 1.368 . S
C489 H513 0.949 . S
H490 C494 0.949 . S
C491 C492 1.349 . S
C491 C493 1.327 . S
C491 H514 0.950 . S
C492 C491 1.349 . S
C492 C504 1.349 . S
C493 C491 1.327 . S
C493 C509 1.429 . S
C493 H515 0.950 . S
C494 H490 0.949 . S
C494 C502 1.574 . S
C494 C510 1.368 . S
H495 C503 0.950 . S
H496 C501 0.950 . S
H497 C502 0.949 . S
H498 C504 0.950 . S
H499 C505 0.950 . S
H500 C506 0.949 . S
C501 H496 0.950 . S
C501 C503 1.327 . S
C501 C507 1.429 . S
C502 C494 1.574 . S
C502 H497 0.949 . S
C502 C508 1.368 . S
C503 C487 1.349 . S
C503 H495 0.950 . S
C503 C501 1.327 . S
C504 C492 1.349 . S
C504 H498 0.950 . S
C504 C505 1.327 . S
C505 H499 0.950 . S
C505 C504 1.327 . S
C505 C509 1.429 . S
C506 C489 1.574 . S
C506 H500 0.949 . S
C506 C510 1.368 . S
C507 C488 1.429 . S
C507 C501 1.429 . S
C507 C508 1.523 . S
C508 C489 1.368 . S
C508 C502 1.368 . S
C508 C507 1.523 . S
C509 C493 1.429 . S
C509 C505 1.429 . S
C509 C510 1.523 . S
C510 C494 1.368 . S
C510 C506 1.368 . S
C510 C509 1.523 . S
H511 C486 0.950 . S
H512 C488 0.950 . S
H513 C489 0.949 . S
H514 C491 0.950 . S
H515 C493 0.950 . S
C516 C517 1.349 . S
C516 C518 1.327 . S
C516 H541 0.950 . S
C517 C516 1.349 . S
C517 C533 1.349 . S
C518 C516 1.327 . S
C518 C537 1.429 . S
C518 H542 0.950 . S
C519 C536 1.574 . S
C519 C538 1.368 . S
C519 H543 0.949 . S
H520 C524 0.949 . S
C521 C522 1.349 . S
C521 C523 1.327 . S
C521 H544 0.950 . S
C522 C521 1.349 . S
C522 C534 1.349 . S
C523 C521 1.327 . S
C523 C539 1.429 . S
C523 H545 0.950 . S
C524 H520 0.949 . S
C524 C532 1.574 . S
C524 C540 1.368 . S
H525 C533 0.950 . S
H526 C531 0.950 . S
H527 C532 0.949 . S
H528 C534 0.950 . S
H529 C535 0.950 . S
H530 C536 0.949 . S
C531 H526 0.950 . S
C531 C533 1.327 . S
C531 C537 1.429 . S
C532 C524 1.574 . S
C532 H527 0.949 . S
C532 C538 1.368 . S
C533 C517 1.349 . S
C533 H525 0.950 . S
C533 C531 1.327 . S
C534 C522 1.349 . S
C534 H528 0.950 . S
C534 C535 1.327 . S
C535 H529 0.950 . S
C535 C534 1.327 . S
C535 C539 1.429 . S
C536 C519 1.574 . S
C536 H530 0.949 . S
C536 C540 1.368 . S
C537 C518 1.429 . S
C537 C531 1.429 . S
C537 C538 1.523 . S
C538 C519 1.368 . S
C538 C532 1.368 . S
C538 C537 1.523 . S
C539 C523 1.429 . S
C539 C535 1.429 . S
C539 C540 1.523 . S
C540 C524 1.368 . S
C540 C536 1.368 . S
C540 C539 1.523 . S
H541 C516 0.950 . S
H542 C518 0.950 . S
H543 C519 0.949 . S
H544 C521 0.950 . S
H545 C523 0.950 . S
C546 C547 1.349 . S
C546 C548 1.327 . S
C546 H571 0.950 . S
C547 C546 1.349 . S
C547 C563 1.349 . S
C548 C546 1.327 . S
C548 C567 1.429 . S
C548 H572 0.950 . S
C549 C566 1.574 . S
C549 C568 1.368 . S
C549 H573 0.949 . S
H550 C554 0.949 . S
C551 C552 1.349 . S
C551 C553 1.327 . S
C551 H574 0.950 . S
C552 C551 1.349 . S
C552 C564 1.349 . S
C553 C551 1.327 . S
C553 C569 1.429 . S
C553 H575 0.950 . S
C554 H550 0.949 . S
C554 C562 1.574 . S
C554 C570 1.368 . S
H555 C563 0.950 . S
H556 C561 0.950 . S
H557 C562 0.949 . S
H558 C564 0.950 . S
H559 C565 0.950 . S
H560 C566 0.949 . S
C561 H556 0.950 . S
C561 C563 1.327 . S
C561 C567 1.429 . S
C562 C554 1.574 . S
C562 H557 0.949 . S
C562 C568 1.368 . S
C563 C547 1.349 . S
C563 H555 0.950 . S
C563 C561 1.327 . S
C564 C552 1.349 . S
C564 H558 0.950 . S
C564 C565 1.327 . S
C565 H559 0.950 . S
C565 C564 1.327 . S
C565 C569 1.429 . S
C566 C549 1.574 . S
C566 H560 0.949 . S
C566 C570 1.368 . S
C567 C548 1.429 . S
C567 C561 1.429 . S
C567 C568 1.523 . S
C568 C549 1.368 . S
C568 C562 1.368 . S
C568 C567 1.523 . S
C569 C553 1.429 . S
C569 C565 1.429 . S
C569 C570 1.523 . S
C570 C554 1.368 . S
C570 C566 1.368 . S
C570 C569 1.523 . S
H571 C546 0.950 . S
H572 C548 0.950 . S
H573 C549 0.949 . S
H574 C551 0.950 . S
H575 C553 0.950 . S
C576 C577 1.349 . S
C576 C578 1.327 . S
C576 H601 0.950 . S
C577 C576 1.349 . S
C577 C593 1.349 . S
C578 C576 1.327 . S
C578 C597 1.429 . S
C578 H602 0.950 . S
C579 C596 1.574 . S
C579 C598 1.368 . S
C579 H603 0.949 . S
H580 C584 0.949 . S
C581 C582 1.349 . S
C581 C583 1.327 . S
C581 H604 0.950 . S
C582 C581 1.349 . S
C582 C594 1.349 . S
C583 C581 1.327 . S
C583 C599 1.429 . S
C583 H605 0.950 . S
C584 H580 0.949 . S
C584 C592 1.574 . S
C584 C600 1.368 . S
H585 C593 0.950 . S
H586 C591 0.950 . S
H587 C592 0.949 . S
H588 C594 0.950 . S
H589 C595 0.950 . S
H590 C596 0.949 . S
C591 H586 0.950 . S
C591 C593 1.327 . S
C591 C597 1.429 . S
C592 C584 1.574 . S
C592 H587 0.949 . S
C592 C598 1.368 . S
C593 C577 1.349 . S
C593 H585 0.950 . S
C593 C591 1.327 . S
C594 C582 1.349 . S
C594 H588 0.950 . S
C594 C595 1.327 . S
C595 H589 0.950 . S
C595 C594 1.327 . S
C595 C599 1.429 . S
C596 C579 1.574 . S
C596 H590 0.949 . S
C596 C600 1.368 . S
C597 C578 1.429 . S
C597 C591 1.429 . S
C597 C598 1.523 . S
C598 C579 1.368 . S
C598 C592 1.368 . S
C598 C597 1.523 . S
C599 C583 1.429 . S
C599 C595 1.429 . S
C599 C600 1.523 . S
C600 C584 1.368 . S
C600 C596 1.368 . S
C600 C599 1.523 . S
H601 C576 0.950 . S
H602 C578 0.950 . S
H603 C579 0.949 . S
H604 C581 0.950 . S
H605 C583 0.950 . S
C606 C607 1.349 . S
C606 C608 1.327 . S
C606 H631 0.950 . S
C607 C606 1.349 . S
C607 C623 1.349 . S
C608 C606 1.327 . S
C608 C627 1.429 . S
C608 H632 0.950 . S
C609 C626 1.574 . S
C609 C628 1.368 . S
C609 H633 0.949 . S
H610 C614 0.949 . S
C611 C612 1.349 . S
C611 C613 1.327 . S
C611 H634 0.950 . S
C612 C611 1.349 . S
C612 C624 1.349 . S
C613 C611 1.327 . S
C613 C629 1.429 . S
C613 H635 0.950 . S
C614 H610 0.949 . S
C614 C622 1.574 . S
C614 C630 1.368 . S
H615 C623 0.950 . S
H616 C621 0.950 . S
H617 C622 0.949 . S
H618 C624 0.950 . S
H619 C625 0.950 . S
H620 C626 0.949 . S
C621 H616 0.950 . S
C621 C623 1.327 . S
C621 C627 1.429 . S
C622 C614 1.574 . S
C622 H617 0.949 . S
C622 C628 1.368 . S
C623 C607 1.349 . S
C623 H615 0.950 . S
C623 C621 1.327 . S
C624 C612 1.349 . S
C624 H618 0.950 . S
C624 C625 1.327 . S
C625 H619 0.950 . S
C625 C624 1.327 . S
C625 C629 1.429 . S
C626 C609 1.574 . S
C626 H620 0.949 . S
C626 C630 1.368 . S
C627 C608 1.429 . S
C627 C621 1.429 . S
C627 C628 1.523 . S
C628 C609 1.368 . S
C628 C622 1.368 . S
C628 C627 1.523 . S
C629 C613 1.429 . S
C629 C625 1.429 . S
C629 C630 1.523 . S
C630 C614 1.368 . S
C630 C626 1.368 . S
C630 C629 1.523 . S
H631 C606 0.950 . S
H632 C608 0.950 . S
H633 C609 0.949 . S
H634 C611 0.950 . S
H635 C613 0.950 . S
C636 C637 1.349 . S
C636 C638 1.327 . S
C636 H661 0.950 . S
C637 C636 1.349 . S
C637 C653 1.349 . S
C638 C636 1.327 . S
C638 C657 1.429 . S
C638 H662 0.950 . S
C639 C656 1.574 . S
C639 C658 1.368 . S
C639 H663 0.949 . S
H640 C644 0.949 . S
C641 C642 1.349 . S
C641 C643 1.327 . S
C641 H664 0.950 . S
C642 C641 1.349 . S
C642 C654 1.349 . S
C643 C641 1.327 . S
C643 C659 1.429 . S
C643 H665 0.950 . S
C644 H640 0.949 . S
C644 C652 1.574 . S
C644 C660 1.368 . S
H645 C653 0.950 . S
H646 C651 0.950 . S
H647 C652 0.949 . S
H648 C654 0.950 . S
H649 C655 0.950 . S
H650 C656 0.949 . S
C651 H646 0.950 . S
C651 C653 1.327 . S
C651 C657 1.429 . S
C652 C644 1.574 . S
C652 H647 0.949 . S
C652 C658 1.368 . S
C653 C637 1.349 . S
C653 H645 0.950 . S
C653 C651 1.327 . S
C654 C642 1.349 . S
C654 H648 0.950 . S
C654 C655 1.327 . S
C655 H649 0.950 . S
C655 C654 1.327 . S
C655 C659 1.429 . S
C656 C639 1.574 . S
C656 H650 0.949 . S
C656 C660 1.368 . S
C657 C638 1.429 . S
C657 C651 1.429 . S
C657 C658 1.523 . S
C658 C639 1.368 . S
C658 C652 1.368 . S
C658 C657 1.523 . S
C659 C643 1.429 . S
C659 C655 1.429 . S
C659 C660 1.523 . S
C660 C644 1.368 . S
C660 C656 1.368 . S
C660 C659 1.523 . S
H661 C636 0.950 . S
H662 C638 0.950 . S
H663 C639 0.949 . S
H664 C641 0.950 . S
H665 C643 0.950 . S
C666 C667 1.349 . S
C666 C668 1.327 . S
C666 H691 0.950 . S
C667 C666 1.349 . S
C667 C683 1.349 . S
C668 C666 1.327 . S
C668 C687 1.429 . S
C668 H692 0.950 . S
C669 C686 1.574 . S
C669 C688 1.368 . S
C669 H693 0.949 . S
H670 C674 0.949 . S
C671 C672 1.349 . S
C671 C673 1.327 . S
C671 H694 0.950 . S
C672 C671 1.349 . S
C672 C684 1.349 . S
C673 C671 1.327 . S
C673 C689 1.429 . S
C673 H695 0.950 . S
C674 H670 0.949 . S
C674 C682 1.574 . S
C674 C690 1.368 . S
H675 C683 0.950 . S
H676 C681 0.950 . S
H677 C682 0.949 . S
H678 C684 0.950 . S
H679 C685 0.950 . S
H680 C686 0.949 . S
C681 H676 0.950 . S
C681 C683 1.327 . S
C681 C687 1.429 . S
C682 C674 1.574 . S
C682 H677 0.949 . S
C682 C688 1.368 . S
C683 C667 1.349 . S
C683 H675 0.950 . S
C683 C681 1.327 . S
C684 C672 1.349 . S
C684 H678 0.950 . S
C684 C685 1.327 . S
C685 H679 0.950 . S
C685 C684 1.327 . S
C685 C689 1.429 . S
C686 C669 1.574 . S
C686 H680 0.949 . S
C686 C690 1.368 . S
C687 C668 1.429 . S
C687 C681 1.429 . S
C687 C688 1.523 . S
C688 C669 1.368 . S
C688 C682 1.368 . S
C688 C687 1.523 . S
C689 C673 1.429 . S
C689 C685 1.429 . S
C689 C690 1.523 . S
C690 C674 1.368 . S
C690 C686 1.368 . S
C690 C689 1.523 . S
H691 C666 0.950 . S
H692 C668 0.950 . S
H693 C669 0.949 . S
H694 C671 0.950 . S
H695 C673 0.950 . S
C696 C697 1.349 . S
C696 C698 1.327 . S
C696 H721 0.950 . S
C697 C696 1.349 . S
C697 C713 1.349 . S
C698 C696 1.327 . S
C698 C717 1.429 . S
C698 H722 0.950 . S
C699 C716 1.574 . S
C699 C718 1.368 1_554 S
C699 H723 0.949 . S
H700 C704 0.949 . S
C701 C702 1.349 . S
C701 C703 1.327 . S
C701 H724 0.950 . S
C702 C701 1.349 . S
C702 C714 1.349 . S
C703 C701 1.327 . S
C703 C719 1.429 . S
C703 H725 0.950 . S
C704 H700 0.949 . S
C704 C712 1.574 . S
C704 C720 1.368 1_556 S
H705 C713 0.950 . S
H706 C711 0.950 . S
H707 C712 0.949 . S
H708 C714 0.950 . S
H709 C715 0.950 . S
H710 C716 0.949 . S
C711 H706 0.950 . S
C711 C713 1.327 . S
C711 C717 1.429 . S
C712 C704 1.574 . S
C712 H707 0.949 . S
C712 C718 1.368 . S
C713 C697 1.349 . S
C713 H705 0.950 . S
C713 C711 1.327 . S
C714 C702 1.349 . S
C714 H708 0.950 . S
C714 C715 1.327 . S
C715 H709 0.950 . S
C715 C714 1.327 . S
C715 C719 1.429 . S
C716 C699 1.574 . S
C716 H710 0.949 . S
C716 C720 1.368 . S
C717 C698 1.429 . S
C717 C711 1.429 . S
C717 C718 1.523 . S
C718 C699 1.368 1_556 S
C718 C712 1.368 . S
C718 C717 1.523 . S
C719 C703 1.429 . S
C719 C715 1.429 . S
C719 C720 1.523 . S
C720 C704 1.368 1_554 S
C720 C716 1.368 . S
C720 C719 1.523 . S
H721 C696 0.950 . S
H722 C698 0.950 . S
H723 C699 0.949 . S
H724 C701 0.950 . S
H725 C703 0.950 . S
C726 C727 1.349 . S
C726 C728 1.327 . S
C726 H751 0.950 . S
C727 C726 1.349 . S
C727 C743 1.349 . S
C728 C726 1.327 . S
C728 C747 1.429 . S
C728 H752 0.950 . S
C729 C746 1.574 . S
C729 C748 1.368 . S
C729 H753 0.949 . S
H730 C734 0.949 . S
C731 C732 1.349 . S
C731 C733 1.327 . S
C731 H754 0.950 . S
C732 C731 1.349 . S
C732 C744 1.349 . S
C733 C731 1.327 . S
C733 C749 1.429 . S
C733 H755 0.950 . S
C734 H730 0.949 . S
C734 C742 1.574 . S
C734 C750 1.368 . S
H735 C743 0.950 . S
H736 C741 0.950 . S
H737 C742 0.949 . S
H738 C744 0.950 . S
H739 C745 0.950 . S
H740 C746 0.949 . S
C741 H736 0.950 . S
C741 C743 1.327 . S
C741 C747 1.429 . S
C742 C734 1.574 . S
C742 H737 0.949 . S
C742 C748 1.368 . S
C743 C727 1.349 . S
C743 H735 0.950 . S
C743 C741 1.327 . S
C744 C732 1.349 . S
C744 H738 0.950 . S
C744 C745 1.327 . S
C745 H739 0.950 . S
C745 C744 1.327 . S
C745 C749 1.429 . S
C746 C729 1.574 . S
C746 H740 0.949 . S
C746 C750 1.368 . S
C747 C728 1.429 . S
C747 C741 1.429 . S
C747 C748 1.523 . S
C748 C729 1.368 . S
C748 C742 1.368 . S
C748 C747 1.523 . S
C749 C733 1.429 . S
C749 C745 1.429 . S
C749 C750 1.523 . S
C750 C734 1.368 . S
C750 C746 1.368 . S
C750 C749 1.523 . S
H751 C726 0.950 . S
H752 C728 0.950 . S
H753 C729 0.949 . S
H754 C731 0.950 . S
H755 C733 0.950 . S
C756 C757 1.349 . S
C756 C758 1.327 . S
C756 H781 0.950 . S
C757 C756 1.349 . S
C757 C773 1.349 . S
C758 C756 1.327 . S
C758 C777 1.429 . S
C758 H782 0.950 . S
C759 C776 1.590 . S
C759 C778 1.368 . S
C759 H783 0.949 . S
H760 C764 0.949 . S
C761 C762 1.349 . S
C761 C763 1.327 . S
C761 H784 0.950 . S
C762 C761 1.349 . S
C762 C774 1.349 . S
C763 C761 1.327 . S
C763 C779 1.429 . S
C763 H785 0.950 . S
C764 H760 0.949 . S
C764 C772 1.590 . S
C764 C780 1.368 . S
H765 C773 0.950 . S
H766 C771 0.950 . S
H767 C772 0.949 . S
H768 C774 0.950 . S
H769 C775 0.950 . S
H770 C776 0.949 . S
C771 H766 0.950 . S
C771 C773 1.327 . S
C771 C777 1.429 . S
C772 C764 1.590 . S
C772 H767 0.949 . S
C772 C778 1.352 1_556 S
C773 C757 1.349 . S
C773 H765 0.950 . S
C773 C771 1.327 . S
C774 C762 1.349 . S
C774 H768 0.950 . S
C774 C775 1.327 . S
C775 H769 0.950 . S
C775 C774 1.327 . S
C775 C779 1.429 . S
C776 C759 1.590 . S
C776 H770 0.949 . S
C776 C780 1.352 1_554 S
C777 C758 1.429 . S
C777 C771 1.429 . S
C777 C778 1.523 . S
C778 C759 1.368 . S
C778 C772 1.352 1_554 S
C778 C777 1.523 . S
C779 C763 1.429 . S
C779 C775 1.429 . S
C779 C780 1.523 . S
C780 C764 1.368 . S
C780 C776 1.352 1_556 S
C780 C779 1.523 . S
H781 C756 0.950 . S
H782 C758 0.950 . S
H783 C759 0.949 . S
H784 C761 0.950 . S
H785 C763 0.950 . S
C786 C787 1.349 . S
C786 C788 1.327 . S
C786 H811 0.950 . S
C787 C786 1.349 . S
C787 C803 1.349 . S
C788 C786 1.327 . S
C788 C807 1.429 . S
C788 H812 0.950 . S
C789 C806 1.574 . S
C789 C808 1.368 . S
C789 H813 0.949 . S
H790 C794 0.949 . S
C791 C792 1.349 . S
C791 C793 1.327 . S
C791 H814 0.950 . S
C792 C791 1.349 . S
C792 C804 1.349 . S
C793 C791 1.327 . S
C793 C809 1.429 . S
C793 H815 0.950 . S
C794 H790 0.949 . S
C794 C802 1.574 . S
C794 C810 1.368 . S
H795 C803 0.950 . S
H796 C801 0.950 . S
H797 C802 0.949 . S
H798 C804 0.950 . S
H799 C805 0.950 . S
H800 C806 0.949 . S
C801 H796 0.950 . S
C801 C803 1.327 . S
C801 C807 1.429 . S
C802 C794 1.574 . S
C802 H797 0.949 . S
C802 C808 1.368 . S
C803 C787 1.349 . S
C803 H795 0.950 . S
C803 C801 1.327 . S
C804 C792 1.349 . S
C804 H798 0.950 . S
C804 C805 1.327 . S
C805 H799 0.950 . S
C805 C804 1.327 . S
C805 C809 1.429 . S
C806 C789 1.574 . S
C806 H800 0.949 . S
C806 C810 1.368 . S
C807 C788 1.429 . S
C807 C801 1.429 . S
C807 C808 1.523 . S
C808 C789 1.368 . S
C808 C802 1.368 . S
C808 C807 1.523 . S
C809 C793 1.429 . S
C809 C805 1.429 . S
C809 C810 1.523 . S
C810 C794 1.368 . S
C810 C806 1.368 . S
C810 C809 1.523 . S
H811 C786 0.950 . S
H812 C788 0.950 . S
H813 C789 0.949 . S
H814 C791 0.950 . S
H815 C793 0.950 . S
C816 C817 1.349 . S
C816 C818 1.327 . S
C816 H841 0.950 . S
C817 C816 1.349 . S
C817 C833 1.349 . S
C818 C816 1.327 . S
C818 C837 1.429 . S
C818 H842 0.950 . S
C819 C836 1.574 . S
C819 C838 1.368 . S
C819 H843 0.949 . S
H820 C824 0.949 . S
C821 C822 1.349 . S
C821 C823 1.327 . S
C821 H844 0.950 . S
C822 C821 1.349 . S
C822 C834 1.349 . S
C823 C821 1.327 . S
C823 C839 1.429 . S
C823 H845 0.950 . S
C824 H820 0.949 . S
C824 C832 1.574 . S
C824 C840 1.368 . S
H825 C833 0.950 . S
H826 C831 0.950 . S
H827 C832 0.949 . S
H828 C834 0.950 . S
H829 C835 0.950 . S
H830 C836 0.949 . S
C831 H826 0.950 . S
C831 C833 1.327 . S
C831 C837 1.429 . S
C832 C824 1.574 . S
C832 H827 0.949 . S
C832 C838 1.368 1_554 S
C833 C817 1.349 . S
C833 H825 0.950 . S
C833 C831 1.327 . S
C834 C822 1.349 . S
C834 H828 0.950 . S
C834 C835 1.327 . S
C835 H829 0.950 . S
C835 C834 1.327 . S
C835 C839 1.429 . S
C836 C819 1.574 . S
C836 H830 0.949 . S
C836 C840 1.368 1_556 S
C837 C818 1.429 . S
C837 C831 1.429 . S
C837 C838 1.523 . S
C838 C819 1.368 . S
C838 C832 1.368 1_556 S
C838 C837 1.523 . S
C839 C823 1.429 . S
C839 C835 1.429 . S
C839 C840 1.523 . S
C840 C824 1.368 . S
C840 C836 1.368 1_554 S
C840 C839 1.523 . S
H841 C816 0.950 . S
H842 C818 0.950 . S
H843 C819 0.949 . S
H844 C821 0.950 . S
H845 C823 0.950 . S
C846 C847 1.349 . S
C846 C848 1.327 . S
C846 H871 0.950 . S
C847 C846 1.349 . S
C847 C863 1.349 . S
C848 C846 1.327 . S
C848 C867 1.429 . S
C848 H872 0.950 . S
C849 C866 1.574 . S
C849 C868 1.368 . S
C849 H873 0.949 . S
H850 C854 0.949 . S
C851 C852 1.349 . S
C851 C853 1.327 . S
C851 H874 0.950 . S
C852 C851 1.349 . S
C852 C864 1.349 . S
C853 C851 1.327 . S
C853 C869 1.429 . S
C853 H875 0.950 . S
C854 H850 0.949 . S
C854 C862 1.574 . S
C854 C870 1.368 . S
H855 C863 0.950 . S
H856 C861 0.950 . S
H857 C862 0.949 . S
H858 C864 0.950 . S
H859 C865 0.950 . S
H860 C866 0.949 . S
C861 H856 0.950 . S
C861 C863 1.327 . S
C861 C867 1.429 . S
C862 C854 1.574 . S
C862 H857 0.949 . S
C862 C868 1.368 . S
C863 C847 1.349 . S
C863 H855 0.950 . S
C863 C861 1.327 . S
C864 C852 1.349 . S
C864 H858 0.950 . S
C864 C865 1.327 . S
C865 H859 0.950 . S
C865 C864 1.327 . S
C865 C869 1.429 . S
C866 C849 1.574 . S
C866 H860 0.949 . S
C866 C870 1.368 . S
C867 C848 1.429 . S
C867 C861 1.429 . S
C867 C868 1.523 . S
C868 C849 1.368 . S
C868 C862 1.368 . S
C868 C867 1.523 . S
C869 C853 1.429 . S
C869 C865 1.429 . S
C869 C870 1.523 . S
C870 C854 1.368 . S
C870 C866 1.368 . S
C870 C869 1.523 . S
H871 C846 0.950 . S
H872 C848 0.950 . S
H873 C849 0.949 . S
H874 C851 0.950 . S
H875 C853 0.950 . S
C876 C877 1.349 . S
C876 C878 1.327 . S
C876 H901 0.950 . S
C877 C876 1.349 . S
C877 C893 1.349 . S
C878 C876 1.327 . S
C878 C897 1.429 . S
C878 H902 0.950 . S
C879 C896 1.574 . S
C879 C898 1.368 . S
C879 H903 0.949 . S
H880 C884 0.949 . S
C881 C882 1.349 . S
C881 C883 1.327 . S
C881 H904 0.950 . S
C882 C881 1.349 . S
C882 C894 1.349 . S
C883 C881 1.327 . S
C883 C899 1.429 . S
C883 H905 0.950 . S
C884 H880 0.949 . S
C884 C892 1.574 . S
C884 C900 1.368 . S
H885 C893 0.950 . S
H886 C891 0.950 . S
H887 C892 0.949 . S
H888 C894 0.950 . S
H889 C895 0.950 . S
H890 C896 0.949 . S
C891 H886 0.950 . S
C891 C893 1.327 . S
C891 C897 1.429 . S
C892 C884 1.574 . S
C892 H887 0.949 . S
C892 C898 1.368 1_556 S
C893 C877 1.349 . S
C893 H885 0.950 . S
C893 C891 1.327 . S
C894 C882 1.349 . S
C894 H888 0.950 . S
C894 C895 1.327 . S
C895 H889 0.950 . S
C895 C894 1.327 . S
C895 C899 1.429 . S
C896 C879 1.574 . S
C896 H890 0.949 . S
C896 C900 1.368 1_554 S
C897 C878 1.429 . S
C897 C891 1.429 . S
C897 C898 1.523 . S
C898 C879 1.368 . S
C898 C892 1.368 1_554 S
C898 C897 1.523 . S
C899 C883 1.429 . S
C899 C895 1.429 . S
C899 C900 1.523 . S
C900 C884 1.368 . S
C900 C896 1.368 1_556 S
C900 C899 1.523 . S
H901 C876 0.950 . S
H902 C878 0.950 . S
H903 C879 0.949 . S
H904 C881 0.950 . S
H905 C883 0.950 . S
C906 C907 1.349 . S
C906 C908 1.327 . S
C906 H931 0.950 . S
C907 C906 1.349 . S
C907 C923 1.349 . S
C908 C906 1.327 . S
C908 C927 1.429 . S
C908 H932 0.950 . S
C909 C926 1.574 . S
C909 C928 1.368 . S
C909 H933 0.949 . S
H910 C914 0.949 . S
C911 C912 1.349 . S
C911 C913 1.327 . S
C911 H934 0.950 . S
C912 C911 1.349 . S
C912 C924 1.349 . S
C913 C911 1.327 . S
C913 C929 1.429 . S
C913 H935 0.950 . S
C914 H910 0.949 . S
C914 C922 1.574 . S
C914 C930 1.368 . S
H915 C923 0.950 . S
H916 C921 0.950 . S
H917 C922 0.949 . S
H918 C924 0.950 . S
H919 C925 0.950 . S
H920 C926 0.949 . S
C921 H916 0.950 . S
C921 C923 1.327 . S
C921 C927 1.429 . S
C922 C914 1.574 . S
C922 H917 0.949 . S
C922 C928 1.368 . S
C923 C907 1.349 . S
C923 H915 0.950 . S
C923 C921 1.327 . S
C924 C912 1.349 . S
C924 H918 0.950 . S
C924 C925 1.327 . S
C925 H919 0.950 . S
C925 C924 1.327 . S
C925 C929 1.429 . S
C926 C909 1.574 . S
C926 H920 0.949 . S
C926 C930 1.368 . S
C927 C908 1.429 . S
C927 C921 1.429 . S
C927 C928 1.523 . S
C928 C909 1.368 . S
C928 C922 1.368 . S
C928 C927 1.523 . S
C929 C913 1.429 . S
C929 C925 1.429 . S
C929 C930 1.523 . S
C930 C914 1.368 . S
C930 C926 1.368 . S
C930 C929 1.523 . S
H931 C906 0.950 . S
H932 C908 0.950 . S
H933 C909 0.949 . S
H934 C911 0.950 . S
H935 C913 0.950 . S
C936 C937 1.349 . S
C936 C938 1.327 . S
C936 H961 0.950 . S
C937 C936 1.349 . S
C937 C953 1.349 . S
C938 C936 1.327 . S
C938 C957 1.429 . S
C938 H962 0.950 . S
C939 C956 1.574 . S
C939 C958 1.368 1_554 S
C939 H963 0.949 . S
H940 C944 0.949 . S
C941 C942 1.349 . S
C941 C943 1.327 . S
C941 H964 0.950 . S
C942 C941 1.349 . S
C942 C954 1.349 . S
C943 C941 1.327 . S
C943 C959 1.429 . S
C943 H965 0.950 . S
C944 H940 0.949 . S
C944 C952 1.574 . S
C944 C960 1.368 1_556 S
H945 C953 0.950 . S
H946 C951 0.950 . S
H947 C952 0.949 . S
H948 C954 0.950 . S
H949 C955 0.950 . S
H950 C956 0.949 . S
C951 H946 0.950 . S
C951 C953 1.327 . S
C951 C957 1.429 . S
C952 C944 1.574 . S
C952 H947 0.949 . S
C952 C958 1.368 . S
C953 C937 1.349 . S
C953 H945 0.950 . S
C953 C951 1.327 . S
C954 C942 1.349 . S
C954 H948 0.950 . S
C954 C955 1.327 . S
C955 H949 0.950 . S
C955 C954 1.327 . S
C955 C959 1.429 . S
C956 C939 1.574 . S
C956 H950 0.949 . S
C956 C960 1.368 . S
C957 C938 1.429 . S
C957 C951 1.429 . S
C957 C958 1.523 . S
C958 C939 1.368 1_556 S
C958 C952 1.368 . S
C958 C957 1.523 . S
C959 C943 1.429 . S
C959 C955 1.429 . S
C959 C960 1.523 . S
C960 C944 1.368 1_554 S
C960 C956 1.368 . S
C960 C959 1.523 . S
H961 C936 0.950 . S
H962 C938 0.950 . S
H963 C939 0.949 . S
H964 C941 0.950 . S
H965 C943 0.950 . S
C966 C967 1.349 . S
C966 C968 1.327 . S
C966 H991 0.950 . S
C967 C966 1.349 . S
C967 C983 1.349 . S
C968 C966 1.327 . S
C968 C987 1.429 . S
C968 H992 0.950 . S
C969 C986 1.574 . S
C969 C988 1.368 . S
C969 H993 0.949 . S
H970 C974 0.949 . S
C971 C972 1.349 . S
C971 C973 1.327 . S
C971 H994 0.950 . S
C972 C971 1.349 . S
C972 C984 1.349 . S
C973 C971 1.327 . S
C973 C989 1.429 . S
C973 H995 0.950 . S
C974 H970 0.949 . S
C974 C982 1.574 . S
C974 C990 1.368 . S
H975 C983 0.950 . S
H976 C981 0.950 . S
H977 C982 0.949 . S
H978 C984 0.950 . S
H979 C985 0.950 . S
H980 C986 0.949 . S
C981 H976 0.950 . S
C981 C983 1.327 . S
C981 C987 1.429 . S
C982 C974 1.574 . S
C982 H977 0.949 . S
C982 C988 1.368 . S
C983 C967 1.349 . S
C983 H975 0.950 . S
C983 C981 1.327 . S
C984 C972 1.349 . S
C984 H978 0.950 . S
C984 C985 1.327 . S
C985 H979 0.950 . S
C985 C984 1.327 . S
C985 C989 1.429 . S
C986 C969 1.574 . S
C986 H980 0.949 . S
C986 C990 1.368 . S
C987 C968 1.429 . S
C987 C981 1.429 . S
C987 C988 1.523 . S
C988 C969 1.368 . S
C988 C982 1.368 . S
C988 C987 1.523 . S
C989 C973 1.429 . S
C989 C985 1.429 . S
C989 C990 1.523 . S
C990 C974 1.368 . S
C990 C986 1.368 . S
C990 C989 1.523 . S
H991 C966 0.950 . S
H992 C968 0.950 . S
H993 C969 0.949 . S
H994 C971 0.950 . S
H995 C973 0.950 . S
C996 C997 1.349 . S
C996 C998 1.327 . S
C996 H1021 0.950 . S
C997 C996 1.349 . S
C997 C1013 1.349 . S
C998 C996 1.327 . S
C998 C1017 1.429 . S
C998 H1022 0.950 . S
C999 C1016 1.574 . S
C999 C1018 1.368 . S
C999 H1023 0.949 . S
H1000 C1004 0.949 . S
C1001 C1002 1.349 . S
C1001 C1003 1.327 . S
C1001 H1024 0.950 . S
C1002 C1001 1.349 . S
C1002 C1014 1.349 . S
C1003 C1001 1.327 . S
C1003 C1019 1.429 . S
C1003 H1025 0.950 . S
C1004 H1000 0.949 . S
C1004 C1012 1.574 . S
C1004 C1020 1.368 . S
H1005 C1013 0.950 . S
H1006 C1011 0.950 . S
H1007 C1012 0.949 . S
H1008 C1014 0.950 . S
H1009 C1015 0.950 . S
H1010 C1016 0.949 . S
C1011 H1006 0.950 . S
C1011 C1013 1.327 . S
C1011 C1017 1.429 . S
C1012 C1004 1.574 . S
C1012 H1007 0.949 . S
C1012 C1018 1.368 1_554 S
C1013 C997 1.349 . S
C1013 H1005 0.950 . S
C1013 C1011 1.327 . S
C1014 C1002 1.349 . S
C1014 H1008 0.950 . S
C1014 C1015 1.327 . S
C1015 H1009 0.950 . S
C1015 C1014 1.327 . S
C1015 C1019 1.429 . S
C1016 C999 1.574 . S
C1016 H1010 0.949 . S
C1016 C1020 1.368 1_556 S
C1017 C998 1.429 . S
C1017 C1011 1.429 . S
C1017 C1018 1.523 . S
C1018 C999 1.368 . S
C1018 C1012 1.368 1_556 S
C1018 C1017 1.523 . S
C1019 C1003 1.429 . S
C1019 C1015 1.429 . S
C1019 C1020 1.523 . S
C1020 C1004 1.368 . S
C1020 C1016 1.368 1_554 S
C1020 C1019 1.523 . S
H1021 C996 0.950 . S
H1022 C998 0.950 . S
H1023 C999 0.949 . S
H1024 C1001 0.950 . S
H1025 C1003 0.950 . S
C1026 C1027 1.349 . S
C1026 C1028 1.327 . S
C1026 H1051 0.950 . S
C1027 C1026 1.349 . S
C1027 C1043 1.349 . S
C1028 C1026 1.327 . S
C1028 C1047 1.429 . S
C1028 H1052 0.950 . S
C1029 C1046 1.574 . S
C1029 C1048 1.368 . S
C1029 H1053 0.949 . S
H1030 C1034 0.949 . S
C1031 C1032 1.349 . S
C1031 C1033 1.327 . S
C1031 H1054 0.950 . S
C1032 C1031 1.349 . S
C1032 C1044 1.349 . S
C1033 C1031 1.327 . S
C1033 C1049 1.429 . S
C1033 H1055 0.950 . S
C1034 H1030 0.949 . S
C1034 C1042 1.574 . S
C1034 C1050 1.368 . S
H1035 C1043 0.950 . S
H1036 C1041 0.950 . S
H1037 C1042 0.949 . S
H1038 C1044 0.950 . S
H1039 C1045 0.950 . S
H1040 C1046 0.949 . S
C1041 H1036 0.950 . S
C1041 C1043 1.327 . S
C1041 C1047 1.429 . S
C1042 C1034 1.574 . S
C1042 H1037 0.949 . S
C1042 C1048 1.368 . S
C1043 C1027 1.349 . S
C1043 H1035 0.950 . S
C1043 C1041 1.327 . S
C1044 C1032 1.349 . S
C1044 H1038 0.950 . S
C1044 C1045 1.327 . S
C1045 H1039 0.950 . S
C1045 C1044 1.327 . S
C1045 C1049 1.429 . S
C1046 C1029 1.574 . S
C1046 H1040 0.949 . S
C1046 C1050 1.368 . S
C1047 C1028 1.429 . S
C1047 C1041 1.429 . S
C1047 C1048 1.523 . S
C1048 C1029 1.368 . S
C1048 C1042 1.368 . S
C1048 C1047 1.523 . S
C1049 C1033 1.429 . S
C1049 C1045 1.429 . S
C1049 C1050 1.523 . S
C1050 C1034 1.368 . S
C1050 C1046 1.368 . S
C1050 C1049 1.523 . S
H1051 C1026 0.950 . S
H1052 C1028 0.950 . S
H1053 C1029 0.949 . S
H1054 C1031 0.950 . S
H1055 C1033 0.950 . S
C1056 C1057 1.349 . S
C1056 C1058 1.327 . S
C1056 H1081 0.950 . S
C1057 C1056 1.349 . S
C1057 C1073 1.349 . S
C1058 C1056 1.327 . S
C1058 C1077 1.429 . S
C1058 H1082 0.950 . S
C1059 C1076 1.574 . S
C1059 C1078 1.368 . S
C1059 H1083 0.949 . S
H1060 C1064 0.949 . S
C1061 C1062 1.349 . S
C1061 C1063 1.327 . S
C1061 H1084 0.950 . S
C1062 C1061 1.349 . S
C1062 C1074 1.349 . S
C1063 C1061 1.327 . S
C1063 C1079 1.429 . S
C1063 H1085 0.950 . S
C1064 H1060 0.949 . S
C1064 C1072 1.574 . S
C1064 C1080 1.368 . S
H1065 C1073 0.950 . S
H1066 C1071 0.950 . S
H1067 C1072 0.949 . S
H1068 C1074 0.950 . S
H1069 C1075 0.950 . S
H1070 C1076 0.949 . S
C1071 H1066 0.950 . S
C1071 C1073 1.327 . S
C1071 C1077 1.429 . S
C1072 C1064 1.574 . S
C1072 H1067 0.949 . S
C1072 C1078 1.368 . S
C1073 C1057 1.349 . S
C1073 H1065 0.950 . S
C1073 C1071 1.327 . S
C1074 C1062 1.349 . S
C1074 H1068 0.950 . S
C1074 C1075 1.327 . S
C1075 H1069 0.950 . S
C1075 C1074 1.327 . S
C1075 C1079 1.429 . S
C1076 C1059 1.574 . S
C1076 H1070 0.949 . S
C1076 C1080 1.368 . S
C1077 C1058 1.429 . S
C1077 C1071 1.429 . S
C1077 C1078 1.523 . S
C1078 C1059 1.368 . S
C1078 C1072 1.368 . S
C1078 C1077 1.523 . S
C1079 C1063 1.429 . S
C1079 C1075 1.429 . S
C1079 C1080 1.523 . S
C1080 C1064 1.368 . S
C1080 C1076 1.368 . S
C1080 C1079 1.523 . S
H1081 C1056 0.950 . S
H1082 C1058 0.950 . S
H1083 C1059 0.949 . S
H1084 C1061 0.950 . S
H1085 C1063 0.950 . S
C1086 C1087 1.349 . S
C1086 C1088 1.327 . S
C1086 H1111 0.950 . S
C1087 C1086 1.349 . S
C1087 C1103 1.349 . S
C1088 C1086 1.327 . S
C1088 C1107 1.429 . S
C1088 H1112 0.950 . S
C1089 C1106 1.574 1_455 S
C1089 C1108 1.368 . S
C1089 H1113 0.949 . S
H1090 C1094 0.949 . S
C1091 C1092 1.349 . S
C1091 C1093 1.327 . S
C1091 H1114 0.950 . S
C1092 C1091 1.349 . S
C1092 C1104 1.349 . S
C1093 C1091 1.327 . S
C1093 C1109 1.429 . S
C1093 H1115 0.950 . S
C1094 H1090 0.949 . S
C1094 C1102 1.574 1_655 S
C1094 C1110 1.368 . S
H1095 C1103 0.950 . S
H1096 C1101 0.950 . S
H1097 C1102 0.949 . S
H1098 C1104 0.950 . S
H1099 C1105 0.950 . S
H1100 C1106 0.949 . S
C1101 H1096 0.950 . S
C1101 C1103 1.327 . S
C1101 C1107 1.429 . S
C1102 C1094 1.574 1_455 S
C1102 H1097 0.949 . S
C1102 C1108 1.368 . S
C1103 C1087 1.349 . S
C1103 H1095 0.950 . S
C1103 C1101 1.327 . S
C1104 C1092 1.349 . S
C1104 H1098 0.950 . S
C1104 C1105 1.327 . S
C1105 H1099 0.950 . S
C1105 C1104 1.327 . S
C1105 C1109 1.429 . S
C1106 C1089 1.574 1_655 S
C1106 H1100 0.949 . S
C1106 C1110 1.368 . S
C1107 C1088 1.429 . S
C1107 C1101 1.429 . S
C1107 C1108 1.523 . S
C1108 C1089 1.368 . S
C1108 C1102 1.368 . S
C1108 C1107 1.523 . S
C1109 C1093 1.429 . S
C1109 C1105 1.429 . S
C1109 C1110 1.523 . S
C1110 C1094 1.368 . S
C1110 C1106 1.368 . S
C1110 C1109 1.523 . S
H1111 C1086 0.950 . S
H1112 C1088 0.950 . S
H1113 C1089 0.949 . S
H1114 C1091 0.950 . S
H1115 C1093 0.950 . S
C1116 C1117 1.349 . S
C1116 C1118 1.327 . S
C1116 H1141 0.950 . S
C1117 C1116 1.349 . S
C1117 C1133 1.349 . S
C1118 C1116 1.327 . S
C1118 C1137 1.429 . S
C1118 H1142 0.950 . S
C1119 C1136 1.574 1_565 S
C1119 C1138 1.368 . S
C1119 H1143 0.949 . S
H1120 C1124 0.949 . S
C1121 C1122 1.349 . S
C1121 C1123 1.327 . S
C1121 H1144 0.950 . S
C1122 C1121 1.349 . S
C1122 C1134 1.349 . S
C1123 C1121 1.327 . S
C1123 C1139 1.429 . S
C1123 H1145 0.950 . S
C1124 H1120 0.949 . S
C1124 C1132 1.574 1_545 S
C1124 C1140 1.368 . S
H1125 C1133 0.950 . S
H1126 C1131 0.950 . S
H1127 C1132 0.949 . S
H1128 C1134 0.950 . S
H1129 C1135 0.950 . S
H1130 C1136 0.949 . S
C1131 H1126 0.950 . S
C1131 C1133 1.327 . S
C1131 C1137 1.429 . S
C1132 C1124 1.574 1_565 S
C1132 H1127 0.949 . S
C1132 C1138 1.368 . S
C1133 C1117 1.349 . S
C1133 H1125 0.950 . S
C1133 C1131 1.327 . S
C1134 C1122 1.349 . S
C1134 H1128 0.950 . S
C1134 C1135 1.327 . S
C1135 H1129 0.950 . S
C1135 C1134 1.327 . S
C1135 C1139 1.429 . S
C1136 C1119 1.574 1_545 S
C1136 H1130 0.949 . S
C1136 C1140 1.368 . S
C1137 C1118 1.429 . S
C1137 C1131 1.429 . S
C1137 C1138 1.523 . S
C1138 C1119 1.368 . S
C1138 C1132 1.368 . S
C1138 C1137 1.523 . S
C1139 C1123 1.429 . S
C1139 C1135 1.429 . S
C1139 C1140 1.523 . S
C1140 C1124 1.368 . S
C1140 C1136 1.368 . S
C1140 C1139 1.523 . S
H1141 C1116 0.950 . S
H1142 C1118 0.950 . S
H1143 C1119 0.949 . S
H1144 C1121 0.950 . S
H1145 C1123 0.950 . S
C1146 C1147 1.349 . S
C1146 C1148 1.327 . S
C1146 H1171 0.950 . S
C1147 C1146 1.349 . S
C1147 C1163 1.349 . S
C1148 C1146 1.327 . S
C1148 C1167 1.429 . S
C1148 H1172 0.950 . S
C1149 C1166 1.574 . S
C1149 C1168 1.368 . S
C1149 H1173 0.949 . S
H1150 C1154 0.949 . S
C1151 C1152 1.349 . S
C1151 C1153 1.327 . S
C1151 H1174 0.950 . S
C1152 C1151 1.349 . S
C1152 C1164 1.349 . S
C1153 C1151 1.327 . S
C1153 C1169 1.429 . S
C1153 H1175 0.950 . S
C1154 H1150 0.949 . S
C1154 C1162 1.574 . S
C1154 C1170 1.368 . S
H1155 C1163 0.950 . S
H1156 C1161 0.950 . S
H1157 C1162 0.949 . S
H1158 C1164 0.950 . S
H1159 C1165 0.950 . S
H1160 C1166 0.949 . S
C1161 H1156 0.950 . S
C1161 C1163 1.327 . S
C1161 C1167 1.429 . S
C1162 C1154 1.574 . S
C1162 H1157 0.949 . S
C1162 C1168 1.368 . S
C1163 C1147 1.349 . S
C1163 H1155 0.950 . S
C1163 C1161 1.327 . S
C1164 C1152 1.349 . S
C1164 H1158 0.950 . S
C1164 C1165 1.327 . S
C1165 H1159 0.950 . S
C1165 C1164 1.327 . S
C1165 C1169 1.429 . S
C1166 C1149 1.574 . S
C1166 H1160 0.949 . S
C1166 C1170 1.368 . S
C1167 C1148 1.429 . S
C1167 C1161 1.429 . S
C1167 C1168 1.523 . S
C1168 C1149 1.368 . S
C1168 C1162 1.368 . S
C1168 C1167 1.523 . S
C1169 C1153 1.429 . S
C1169 C1165 1.429 . S
C1169 C1170 1.523 . S
C1170 C1154 1.368 . S
C1170 C1166 1.368 . S
C1170 C1169 1.523 . S
H1171 C1146 0.950 . S
H1172 C1148 0.950 . S
H1173 C1149 0.949 . S
H1174 C1151 0.950 . S
H1175 C1153 0.950 . S
C1176 C1177 1.349 . S
C1176 C1178 1.327 . S
C1176 H1201 0.950 . S
C1177 C1176 1.349 . S
C1177 C1193 1.349 . S
C1178 C1176 1.327 . S
C1178 C1197 1.429 . S
C1178 H1202 0.950 . S
C1179 C1196 1.574 1_655 S
C1179 C1198 1.368 . S
C1179 H1203 0.949 . S
H1180 C1184 0.949 . S
C1181 C1182 1.349 . S
C1181 C1183 1.327 . S
C1181 H1204 0.950 . S
C1182 C1181 1.349 . S
C1182 C1194 1.349 . S
C1183 C1181 1.327 . S
C1183 C1199 1.429 . S
C1183 H1205 0.950 . S
C1184 H1180 0.949 . S
C1184 C1192 1.574 1_455 S
C1184 C1200 1.368 . S
H1185 C1193 0.950 . S
H1186 C1191 0.950 . S
H1187 C1192 0.949 . S
H1188 C1194 0.950 . S
H1189 C1195 0.950 . S
H1190 C1196 0.949 . S
C1191 H1186 0.950 . S
C1191 C1193 1.327 . S
C1191 C1197 1.429 . S
C1192 C1184 1.574 1_655 S
C1192 H1187 0.949 . S
C1192 C1198 1.368 . S
C1193 C1177 1.349 . S
C1193 H1185 0.950 . S
C1193 C1191 1.327 . S
C1194 C1182 1.349 . S
C1194 H1188 0.950 . S
C1194 C1195 1.327 . S
C1195 H1189 0.950 . S
C1195 C1194 1.327 . S
C1195 C1199 1.429 . S
C1196 C1179 1.574 1_455 S
C1196 H1190 0.949 . S
C1196 C1200 1.368 . S
C1197 C1178 1.429 . S
C1197 C1191 1.429 . S
C1197 C1198 1.523 . S
C1198 C1179 1.368 . S
C1198 C1192 1.368 . S
C1198 C1197 1.523 . S
C1199 C1183 1.429 . S
C1199 C1195 1.429 . S
C1199 C1200 1.523 . S
C1200 C1184 1.368 . S
C1200 C1196 1.368 . S
C1200 C1199 1.523 . S
H1201 C1176 0.950 . S
H1202 C1178 0.950 . S
H1203 C1179 0.949 . S
H1204 C1181 0.950 . S
H1205 C1183 0.950 . S
C1206 C1207 1.349 . S
C1206 C1208 1.327 . S
C1206 H1231 0.950 . S
C1207 C1206 1.349 . S
C1207 C1223 1.349 . S
C1208 C1206 1.327 . S
C1208 C1227 1.429 . S
C1208 H1232 0.950 . S
C1209 C1226 1.574 1_545 S
C1209 C1228 1.368 . S
C1209 H1233 0.949 . S
H1210 C1214 0.949 . S
C1211 C1212 1.349 . S
C1211 C1213 1.327 . S
C1211 H1234 0.950 . S
C1212 C1211 1.349 . S
C1212 C1224 1.349 . S
C1213 C1211 1.327 . S
C1213 C1229 1.429 . S
C1213 H1235 0.950 . S
C1214 H1210 0.949 . S
C1214 C1222 1.574 1_565 S
C1214 C1230 1.368 . S
H1215 C1223 0.950 . S
H1216 C1221 0.950 . S
H1217 C1222 0.949 . S
H1218 C1224 0.950 . S
H1219 C1225 0.950 . S
H1220 C1226 0.949 . S
C1221 H1216 0.950 . S
C1221 C1223 1.327 . S
C1221 C1227 1.429 . S
C1222 C1214 1.574 1_545 S
C1222 H1217 0.949 . S
C1222 C1228 1.368 . S
C1223 C1207 1.349 . S
C1223 H1215 0.950 . S
C1223 C1221 1.327 . S
C1224 C1212 1.349 . S
C1224 H1218 0.950 . S
C1224 C1225 1.327 . S
C1225 H1219 0.950 . S
C1225 C1224 1.327 . S
C1225 C1229 1.429 . S
C1226 C1209 1.574 1_565 S
C1226 H1220 0.949 . S
C1226 C1230 1.368 . S
C1227 C1208 1.429 . S
C1227 C1221 1.429 . S
C1227 C1228 1.523 . S
C1228 C1209 1.368 . S
C1228 C1222 1.368 . S
C1228 C1227 1.523 . S
C1229 C1213 1.429 . S
C1229 C1225 1.429 . S
C1229 C1230 1.523 . S
C1230 C1214 1.368 . S
C1230 C1226 1.368 . S
C1230 C1229 1.523 . S
H1231 C1206 0.950 . S
H1232 C1208 0.950 . S
H1233 C1209 0.949 . S
H1234 C1211 0.950 . S
H1235 C1213 0.950 . S
C1236 C1237 1.349 . S
C1236 C1238 1.327 . S
C1236 H1261 0.950 . S
C1237 C1236 1.349 . S
C1237 C1253 1.349 . S
C1238 C1236 1.327 . S
C1238 C1257 1.429 . S
C1238 H1262 0.950 . S
C1239 C1256 1.574 . S
C1239 C1258 1.368 . S
C1239 H1263 0.949 . S
H1240 C1244 0.949 . S
C1241 C1242 1.349 . S
C1241 C1243 1.327 . S
C1241 H1264 0.950 . S
C1242 C1241 1.349 . S
C1242 C1254 1.349 . S
C1243 C1241 1.327 . S
C1243 C1259 1.429 . S
C1243 H1265 0.950 . S
C1244 H1240 0.949 . S
C1244 C1252 1.574 . S
C1244 C1260 1.368 . S
H1245 C1253 0.950 . S
H1246 C1251 0.950 . S
H1247 C1252 0.949 . S
H1248 C1254 0.950 . S
H1249 C1255 0.950 . S
H1250 C1256 0.949 . S
C1251 H1246 0.950 . S
C1251 C1253 1.327 . S
C1251 C1257 1.429 . S
C1252 C1244 1.574 . S
C1252 H1247 0.949 . S
C1252 C1258 1.368 . S
C1253 C1237 1.349 . S
C1253 H1245 0.950 . S
C1253 C1251 1.327 . S
C1254 C1242 1.349 . S
C1254 H1248 0.950 . S
C1254 C1255 1.327 . S
C1255 H1249 0.950 . S
C1255 C1254 1.327 . S
C1255 C1259 1.429 . S
C1256 C1239 1.574 . S
C1256 H1250 0.949 . S
C1256 C1260 1.368 . S
C1257 C1238 1.429 . S
C1257 C1251 1.429 . S
C1257 C1258 1.523 . S
C1258 C1239 1.368 . S
C1258 C1252 1.368 . S
C1258 C1257 1.523 . S
C1259 C1243 1.429 . S
C1259 C1255 1.429 . S
C1259 C1260 1.523 . S
C1260 C1244 1.368 . S
C1260 C1256 1.368 . S
C1260 C1259 1.523 . S
H1261 C1236 0.950 . S
H1262 C1238 0.950 . S
H1263 C1239 0.949 . S
H1264 C1241 0.950 . S
H1265 C1243 0.950 . S
C1266 C1267 1.349 . S
C1266 C1268 1.327 . S
C1266 H1291 0.950 . S
C1267 C1266 1.349 . S
C1267 C1283 1.349 . S
C1268 C1266 1.327 . S
C1268 C1287 1.429 . S
C1268 H1292 0.950 . S
C1269 C1286 1.574 1_655 S
C1269 C1288 1.368 . S
C1269 H1293 0.949 . S
H1270 C1274 0.949 . S
C1271 C1272 1.349 . S
C1271 C1273 1.327 . S
C1271 H1294 0.950 . S
C1272 C1271 1.349 . S
C1272 C1284 1.349 . S
C1273 C1271 1.327 . S
C1273 C1289 1.429 . S
C1273 H1295 0.950 . S
C1274 H1270 0.949 . S
C1274 C1282 1.574 1_455 S
C1274 C1290 1.368 . S
H1275 C1283 0.950 . S
H1276 C1281 0.950 . S
H1277 C1282 0.949 . S
H1278 C1284 0.950 . S
H1279 C1285 0.950 . S
H1280 C1286 0.949 . S
C1281 H1276 0.950 . S
C1281 C1283 1.327 . S
C1281 C1287 1.429 . S
C1282 C1274 1.574 1_655 S
C1282 H1277 0.949 . S
C1282 C1288 1.368 . S
C1283 C1267 1.349 . S
C1283 H1275 0.950 . S
C1283 C1281 1.327 . S
C1284 C1272 1.349 . S
C1284 H1278 0.950 . S
C1284 C1285 1.327 . S
C1285 H1279 0.950 . S
C1285 C1284 1.327 . S
C1285 C1289 1.429 . S
C1286 C1269 1.574 1_455 S
C1286 H1280 0.949 . S
C1286 C1290 1.368 . S
C1287 C1268 1.429 . S
C1287 C1281 1.429 . S
C1287 C1288 1.523 . S
C1288 C1269 1.368 . S
C1288 C1282 1.368 . S
C1288 C1287 1.523 . S
C1289 C1273 1.429 . S
C1289 C1285 1.429 . S
C1289 C1290 1.523 . S
C1290 C1274 1.368 . S
C1290 C1286 1.368 . S
C1290 C1289 1.523 . S
H1291 C1266 0.950 . S
H1292 C1268 0.950 . S
H1293 C1269 0.949 . S
H1294 C1271 0.950 . S
H1295 C1273 0.950 . S
C1296 C1297 1.349 . S
C1296 C1298 1.327 . S
C1296 H1321 0.950 . S
C1297 C1296 1.349 . S
C1297 C1313 1.349 . S
C1298 C1296 1.327 . S
C1298 C1317 1.429 . S
C1298 H1322 0.950 . S
C1299 C1316 1.574 1_545 S
C1299 C1318 1.368 . S
C1299 H1323 0.949 . S
H1300 C1304 0.949 . S
C1301 C1302 1.349 . S
C1301 C1303 1.327 . S
C1301 H1324 0.950 . S
C1302 C1301 1.349 . S
C1302 C1314 1.349 . S
C1303 C1301 1.327 . S
C1303 C1319 1.429 . S
C1303 H1325 0.950 . S
C1304 H1300 0.949 . S
C1304 C1312 1.574 1_565 S
C1304 C1320 1.368 . S
H1305 C1313 0.950 . S
H1306 C1311 0.950 . S
H1307 C1312 0.949 . S
H1308 C1314 0.950 . S
H1309 C1315 0.950 . S
H1310 C1316 0.949 . S
C1311 H1306 0.950 . S
C1311 C1313 1.327 . S
C1311 C1317 1.429 . S
C1312 C1304 1.574 1_545 S
C1312 H1307 0.949 . S
C1312 C1318 1.368 . S
C1313 C1297 1.349 . S
C1313 H1305 0.950 . S
C1313 C1311 1.327 . S
C1314 C1302 1.349 . S
C1314 H1308 0.950 . S
C1314 C1315 1.327 . S
C1315 H1309 0.950 . S
C1315 C1314 1.327 . S
C1315 C1319 1.429 . S
C1316 C1299 1.574 1_565 S
C1316 H1310 0.949 . S
C1316 C1320 1.368 . S
C1317 C1298 1.429 . S
C1317 C1311 1.429 . S
C1317 C1318 1.523 . S
C1318 C1299 1.368 . S
C1318 C1312 1.368 . S
C1318 C1317 1.523 . S
C1319 C1303 1.429 . S
C1319 C1315 1.429 . S
C1319 C1320 1.523 . S
C1320 C1304 1.368 . S
C1320 C1316 1.368 . S
C1320 C1319 1.523 . S
H1321 C1296 0.950 . S
H1322 C1298 0.950 . S
H1323 C1299 0.949 . S
H1324 C1301 0.950 . S
H1325 C1303 0.950 . S
C1326 C1327 1.349 . S
C1326 C1328 1.327 . S
C1326 H1351 0.950 . S
C1327 C1326 1.349 . S
C1327 C1343 1.349 . S
C1328 C1326 1.327 . S
C1328 C1347 1.429 . S
C1328 H1352 0.950 . S
C1329 C1346 1.574 . S
C1329 C1348 1.368 . S
C1329 H1353 0.949 . S
H1330 C1334 0.949 . S
C1331 C1332 1.349 . S
C1331 C1333 1.327 . S
C1331 H1354 0.950 . S
C1332 C1331 1.349 . S
C1332 C1344 1.349 . S
C1333 C1331 1.327 . S
C1333 C1349 1.429 . S
C1333 H1355 0.950 . S
C1334 H1330 0.949 . S
C1334 C1342 1.574 . S
C1334 C1350 1.368 . S
H1335 C1343 0.950 . S
H1336 C1341 0.950 . S
H1337 C1342 0.949 . S
H1338 C1344 0.950 . S
H1339 C1345 0.950 . S
H1340 C1346 0.949 . S
C1341 H1336 0.950 . S
C1341 C1343 1.327 . S
C1341 C1347 1.429 . S
C1342 C1334 1.574 . S
C1342 H1337 0.949 . S
C1342 C1348 1.368 . S
C1343 C1327 1.349 . S
C1343 H1335 0.950 . S
C1343 C1341 1.327 . S
C1344 C1332 1.349 . S
C1344 H1338 0.950 . S
C1344 C1345 1.327 . S
C1345 H1339 0.950 . S
C1345 C1344 1.327 . S
C1345 C1349 1.429 . S
C1346 C1329 1.574 . S
C1346 H1340 0.949 . S
C1346 C1350 1.368 . S
C1347 C1328 1.429 . S
C1347 C1341 1.429 . S
C1347 C1348 1.523 . S
C1348 C1329 1.368 . S
C1348 C1342 1.368 . S
C1348 C1347 1.523 . S
C1349 C1333 1.429 . S
C1349 C1345 1.429 . S
C1349 C1350 1.523 . S
C1350 C1334 1.368 . S
C1350 C1346 1.368 . S
C1350 C1349 1.523 . S
H1351 C1326 0.950 . S
H1352 C1328 0.950 . S
H1353 C1329 0.949 . S
H1354 C1331 0.950 . S
H1355 C1333 0.950 . S
C1356 C1357 1.349 . S
C1356 C1358 1.327 . S
C1356 H1381 0.950 . S
C1357 C1356 1.349 . S
C1357 C1373 1.349 . S
C1358 C1356 1.327 . S
C1358 C1377 1.429 . S
C1358 H1382 0.950 . S
C1359 C1376 1.574 1_455 S
C1359 C1378 1.368 . S
C1359 H1383 0.949 . S
H1360 C1364 0.949 . S
C1361 C1362 1.349 . S
C1361 C1363 1.327 . S
C1361 H1384 0.950 . S
C1362 C1361 1.349 . S
C1362 C1374 1.349 . S
C1363 C1361 1.327 . S
C1363 C1379 1.429 . S
C1363 H1385 0.950 . S
C1364 H1360 0.949 . S
C1364 C1372 1.574 1_655 S
C1364 C1380 1.368 . S
H1365 C1373 0.950 . S
H1366 C1371 0.950 . S
H1367 C1372 0.949 . S
H1368 C1374 0.950 . S
H1369 C1375 0.950 . S
H1370 C1376 0.949 . S
C1371 H1366 0.950 . S
C1371 C1373 1.327 . S
C1371 C1377 1.429 . S
C1372 C1364 1.574 1_455 S
C1372 H1367 0.949 . S
C1372 C1378 1.368 . S
C1373 C1357 1.349 . S
C1373 H1365 0.950 . S
C1373 C1371 1.327 . S
C1374 C1362 1.349 . S
C1374 H1368 0.950 . S
C1374 C1375 1.327 . S
C1375 H1369 0.950 . S
C1375 C1374 1.327 . S
C1375 C1379 1.429 . S
C1376 C1359 1.574 1_655 S
C1376 H1370 0.949 . S
C1376 C1380 1.368 . S
C1377 C1358 1.429 . S
C1377 C1371 1.429 . S
C1377 C1378 1.523 . S
C1378 C1359 1.368 . S
C1378 C1372 1.368 . S
C1378 C1377 1.523 . S
C1379 C1363 1.429 . S
C1379 C1375 1.429 . S
C1379 C1380 1.523 . S
C1380 C1364 1.368 . S
C1380 C1376 1.368 . S
C1380 C1379 1.523 . S
H1381 C1356 0.950 . S
H1382 C1358 0.950 . S
H1383 C1359 0.949 . S
H1384 C1361 0.950 . S
H1385 C1363 0.950 . S
C1386 C1387 1.349 . S
C1386 C1388 1.327 . S
C1386 H1411 0.950 . S
C1387 C1386 1.349 . S
C1387 C1403 1.349 . S
C1388 C1386 1.327 . S
C1388 C1407 1.429 . S
C1388 H1412 0.950 . S
C1389 C1406 1.574 1_565 S
C1389 C1408 1.368 . S
C1389 H1413 0.949 . S
H1390 C1394 0.949 . S
C1391 C1392 1.349 . S
C1391 C1393 1.327 . S
C1391 H1414 0.950 . S
C1392 C1391 1.349 . S
C1392 C1404 1.349 . S
C1393 C1391 1.327 . S
C1393 C1409 1.429 . S
C1393 H1415 0.950 . S
C1394 H1390 0.949 . S
C1394 C1402 1.574 1_545 S
C1394 C1410 1.368 . S
H1395 C1403 0.950 . S
H1396 C1401 0.950 . S
H1397 C1402 0.949 . S
H1398 C1404 0.950 . S
H1399 C1405 0.950 . S
H1400 C1406 0.949 . S
C1401 H1396 0.950 . S
C1401 C1403 1.327 . S
C1401 C1407 1.429 . S
C1402 C1394 1.574 1_565 S
C1402 H1397 0.949 . S
C1402 C1408 1.368 . S
C1403 C1387 1.349 . S
C1403 H1395 0.950 . S
C1403 C1401 1.327 . S
C1404 C1392 1.349 . S
C1404 H1398 0.950 . S
C1404 C1405 1.327 . S
C1405 H1399 0.950 . S
C1405 C1404 1.327 . S
C1405 C1409 1.429 . S
C1406 C1389 1.574 1_545 S
C1406 H1400 0.949 . S
C1406 C1410 1.368 . S
C1407 C1388 1.429 . S
C1407 C1401 1.429 . S
C1407 C1408 1.523 . S
C1408 C1389 1.368 . S
C1408 C1402 1.368 . S
C1408 C1407 1.523 . S
C1409 C1393 1.429 . S
C1409 C1405 1.429 . S
C1409 C1410 1.523 . S
C1410 C1394 1.368 . S
C1410 C1406 1.368 . S
C1410 C1409 1.523 . S
H1411 C1386 0.950 . S
H1412 C1388 0.950 . S
H1413 C1389 0.949 . S
H1414 C1391 0.950 . S
H1415 C1393 0.950 . S
C1416 C1417 1.349 . S
C1416 C1418 1.327 . S
C1416 H1441 0.950 . S
C1417 C1416 1.349 . S
C1417 C1433 1.349 . S
C1418 C1416 1.327 . S
C1418 C1437 1.429 . S
C1418 H1442 0.950 . S
C1419 C1436 1.574 . S
C1419 C1438 1.368 1_554 S
C1419 H1443 0.949 . S
H1420 C1424 0.949 . S
C1421 C1422 1.349 . S
C1421 C1423 1.327 . S
C1421 H1444 0.950 . S
C1422 C1421 1.349 . S
C1422 C1434 1.349 . S
C1423 C1421 1.327 . S
C1423 C1439 1.429 . S
C1423 H1445 0.950 . S
C1424 H1420 0.949 . S
C1424 C1432 1.574 . S
C1424 C1440 1.368 1_556 S
H1425 C1433 0.950 . S
H1426 C1431 0.950 1_554 S
H1427 C1432 0.949 . S
H1428 C1434 0.950 . S
H1429 C1435 0.950 1_556 S
H1430 C1436 0.949 . S
C1431 H1426 0.950 1_556 S
C1431 C1433 1.327 . S
C1431 C1437 1.429 . S
C1432 C1424 1.574 . S
C1432 H1427 0.949 . S
C1432 C1438 1.368 . S
C1433 C1417 1.349 . S
C1433 H1425 0.950 . S
C1433 C1431 1.327 . S
C1434 C1422 1.349 . S
C1434 H1428 0.950 . S
C1434 C1435 1.327 . S
C1435 H1429 0.950 1_554 S
C1435 C1434 1.327 . S
C1435 C1439 1.429 . S
C1436 C1419 1.574 . S
C1436 H1430 0.949 . S
C1436 C1440 1.368 . S
C1437 C1418 1.429 . S
C1437 C1431 1.429 . S
C1437 C1438 1.523 . S
C1438 C1419 1.368 1_556 S
C1438 C1432 1.368 . S
C1438 C1437 1.523 . S
C1439 C1423 1.429 . S
C1439 C1435 1.429 . S
C1439 C1440 1.523 . S
C1440 C1424 1.368 1_554 S
C1440 C1436 1.368 . S
C1440 C1439 1.523 . S
H1441 C1416 0.950 . S
H1442 C1418 0.950 . S
H1443 C1419 0.949 . S
H1444 C1421 0.950 . S
H1445 C1423 0.950 . S
C1446 C1447 1.349 . S
C1446 C1448 1.327 . S
C1446 H1471 0.950 . S
C1447 C1446 1.349 . S
C1447 C1463 1.349 . S
C1448 C1446 1.327 . S
C1448 C1467 1.429 . S
C1448 H1472 0.950 . S
C1449 C1466 1.574 . S
C1449 C1468 1.368 . S
C1449 H1473 0.949 . S
H1450 C1454 0.949 . S
C1451 C1452 1.349 . S
C1451 C1453 1.327 . S
C1451 H1474 0.950 . S
C1452 C1451 1.349 . S
C1452 C1464 1.349 . S
C1453 C1451 1.327 . S
C1453 C1469 1.429 . S
C1453 H1475 0.950 . S
C1454 H1450 0.949 . S
C1454 C1462 1.574 . S
C1454 C1470 1.368 . S
H1455 C1463 0.950 . S
H1456 C1461 0.950 . S
H1457 C1462 0.949 . S
H1458 C1464 0.950 . S
H1459 C1465 0.950 . S
H1460 C1466 0.949 . S
C1461 H1456 0.950 . S
C1461 C1463 1.327 . S
C1461 C1467 1.429 . S
C1462 C1454 1.574 . S
C1462 H1457 0.949 . S
C1462 C1468 1.368 . S
C1463 C1447 1.349 . S
C1463 H1455 0.950 . S
C1463 C1461 1.327 . S
C1464 C1452 1.349 . S
C1464 H1458 0.950 . S
C1464 C1465 1.327 . S
C1465 H1459 0.950 . S
C1465 C1464 1.327 . S
C1465 C1469 1.429 . S
C1466 C1449 1.574 . S
C1466 H1460 0.949 . S
C1466 C1470 1.368 . S
C1467 C1448 1.429 . S
C1467 C1461 1.429 . S
C1467 C1468 1.523 . S
C1468 C1449 1.368 . S
C1468 C1462 1.368 . S
C1468 C1467 1.523 . S
C1469 C1453 1.429 . S
C1469 C1465 1.429 . S
C1469 C1470 1.523 . S
C1470 C1454 1.368 . S
C1470 C1466 1.368 . S
C1470 C1469 1.523 . S
H1471 C1446 0.950 . S
H1472 C1448 0.950 . S
H1473 C1449 0.949 . S
H1474 C1451 0.950 . S
H1475 C1453 0.950 . S
C1476 C1477 1.349 . S
C1476 C1478 1.327 . S
C1476 H1501 0.950 . S
C1477 C1476 1.349 . S
C1477 C1493 1.349 . S
C1478 C1476 1.327 . S
C1478 C1497 1.429 . S
C1478 H1502 0.950 . S
C1479 C1496 1.574 . S
C1479 C1498 1.368 1_554 S
C1479 H1503 0.949 . S
H1480 C1484 0.949 . S
C1481 C1482 1.349 . S
C1481 C1483 1.327 . S
C1481 H1504 0.950 . S
C1482 C1481 1.349 . S
C1482 C1494 1.349 . S
C1483 C1481 1.327 . S
C1483 C1499 1.429 . S
C1483 H1505 0.950 . S
C1484 H1480 0.949 . S
C1484 C1492 1.574 . S
C1484 C1500 1.368 1_556 S
H1485 C1493 0.950 . S
H1486 C1491 0.950 . S
H1487 C1492 0.949 . S
H1488 C1494 0.950 . S
H1489 C1495 0.950 . S
H1490 C1496 0.949 . S
C1491 H1486 0.950 . S
C1491 C1493 1.327 . S
C1491 C1497 1.429 . S
C1492 C1484 1.574 . S
C1492 H1487 0.949 . S
C1492 C1498 1.368 . S
C1493 C1477 1.349 . S
C1493 H1485 0.950 . S
C1493 C1491 1.327 . S
C1494 C1482 1.349 . S
C1494 H1488 0.950 . S
C1494 C1495 1.327 . S
C1495 H1489 0.950 . S
C1495 C1494 1.327 . S
C1495 C1499 1.429 . S
C1496 C1479 1.574 . S
C1496 H1490 0.949 . S
C1496 C1500 1.368 . S
C1497 C1478 1.429 . S
C1497 C1491 1.429 . S
C1497 C1498 1.523 . S
C1498 C1479 1.368 1_556 S
C1498 C1492 1.368 . S
C1498 C1497 1.523 . S
C1499 C1483 1.429 . S
C1499 C1495 1.429 . S
C1499 C1500 1.523 . S
C1500 C1484 1.368 1_554 S
C1500 C1496 1.368 . S
C1500 C1499 1.523 . S
H1501 C1476 0.950 . S
H1502 C1478 0.950 . S
H1503 C1479 0.949 . S
H1504 C1481 0.950 . S
H1505 C1483 0.950 . S
C1506 C1507 1.349 . S
C1506 C1508 1.327 . S
C1506 H1531 0.950 . S
C1507 C1506 1.349 . S
C1507 C1523 1.349 . S
C1508 C1506 1.327 . S
C1508 C1527 1.429 . S
C1508 H1532 0.950 . S
C1509 C1526 1.574 . S
C1509 C1528 1.368 . S
C1509 H1533 0.949 . S
H1510 C1514 0.949 . S
C1511 C1512 1.349 . S
C1511 C1513 1.327 . S
C1511 H1534 0.950 . S
C1512 C1511 1.349 . S
C1512 C1524 1.349 . S
C1513 C1511 1.327 . S
C1513 C1529 1.429 . S
C1513 H1535 0.950 . S
C1514 H1510 0.949 . S
C1514 C1522 1.574 . S
C1514 C1530 1.368 . S
H1515 C1523 0.950 . S
H1516 C1521 0.950 . S
H1517 C1522 0.949 . S
H1518 C1524 0.950 . S
H1519 C1525 0.950 . S
H1520 C1526 0.949 . S
C1521 H1516 0.950 . S
C1521 C1523 1.327 . S
C1521 C1527 1.429 . S
C1522 C1514 1.574 . S
C1522 H1517 0.949 . S
C1522 C1528 1.368 . S
C1523 C1507 1.349 . S
C1523 H1515 0.950 . S
C1523 C1521 1.327 . S
C1524 C1512 1.349 . S
C1524 H1518 0.950 . S
C1524 C1525 1.327 . S
C1525 H1519 0.950 . S
C1525 C1524 1.327 . S
C1525 C1529 1.429 . S
C1526 C1509 1.574 . S
C1526 H1520 0.949 . S
C1526 C1530 1.368 . S
C1527 C1508 1.429 . S
C1527 C1521 1.429 . S
C1527 C1528 1.523 . S
C1528 C1509 1.368 . S
C1528 C1522 1.368 . S
C1528 C1527 1.523 . S
C1529 C1513 1.429 . S
C1529 C1525 1.429 . S
C1529 C1530 1.523 . S
C1530 C1514 1.368 . S
C1530 C1526 1.368 . S
C1530 C1529 1.523 . S
H1531 C1506 0.950 . S
H1532 C1508 0.950 . S
H1533 C1509 0.949 . S
H1534 C1511 0.950 . S
H1535 C1513 0.950 . S
C1536 C1537 1.349 . S
C1536 C1538 1.327 . S
C1536 H1561 0.950 . S
C1537 C1536 1.349 . S
C1537 C1553 1.349 . S
C1538 C1536 1.327 . S
C1538 C1557 1.429 . S
C1538 H1562 0.950 . S
C1539 C1556 1.574 . S
C1539 C1558 1.368 . S
C1539 H1563 0.949 . S
H1540 C1544 0.949 . S
C1541 C1542 1.349 . S
C1541 C1543 1.327 . S
C1541 H1564 0.950 . S
C1542 C1541 1.349 . S
C1542 C1554 1.349 . S
C1543 C1541 1.327 . S
C1543 C1559 1.429 . S
C1543 H1565 0.950 . S
C1544 H1540 0.949 . S
C1544 C1552 1.574 . S
C1544 C1560 1.368 . S
H1545 C1553 0.950 . S
H1546 C1551 0.950 . S
H1547 C1552 0.949 . S
H1548 C1554 0.950 . S
H1549 C1555 0.950 . S
H1550 C1556 0.949 . S
C1551 H1546 0.950 . S
C1551 C1553 1.327 . S
C1551 C1557 1.429 . S
C1552 C1544 1.574 . S
C1552 H1547 0.949 . S
C1552 C1558 1.368 1_554 S
C1553 C1537 1.349 . S
C1553 H1545 0.950 . S
C1553 C1551 1.327 . S
C1554 C1542 1.349 . S
C1554 H1548 0.950 . S
C1554 C1555 1.327 . S
C1555 H1549 0.950 . S
C1555 C1554 1.327 . S
C1555 C1559 1.429 . S
C1556 C1539 1.574 . S
C1556 H1550 0.949 . S
C1556 C1560 1.368 1_556 S
C1557 C1538 1.429 . S
C1557 C1551 1.429 . S
C1557 C1558 1.523 . S
C1558 C1539 1.368 . S
C1558 C1552 1.368 1_556 S
C1558 C1557 1.523 . S
C1559 C1543 1.429 . S
C1559 C1555 1.429 . S
C1559 C1560 1.523 . S
C1560 C1544 1.368 . S
C1560 C1556 1.368 1_554 S
C1560 C1559 1.523 . S
H1561 C1536 0.950 . S
H1562 C1538 0.950 . S
H1563 C1539 0.949 . S
H1564 C1541 0.950 . S
H1565 C1543 0.950 . S
C1566 C1567 1.349 . S
C1566 C1568 1.327 . S
C1566 H1591 0.950 . S
C1567 C1566 1.349 . S
C1567 C1583 1.349 . S
C1568 C1566 1.327 . S
C1568 C1587 1.429 . S
C1568 H1592 0.950 . S
C1569 C1586 1.574 . S
C1569 C1588 1.368 . S
C1569 H1593 0.949 . S
H1570 C1574 0.949 . S
C1571 C1572 1.349 . S
C1571 C1573 1.327 . S
C1571 H1594 0.950 . S
C1572 C1571 1.349 . S
C1572 C1584 1.349 . S
C1573 C1571 1.327 . S
C1573 C1589 1.429 . S
C1573 H1595 0.950 . S
C1574 H1570 0.949 . S
C1574 C1582 1.574 . S
C1574 C1590 1.368 . S
H1575 C1583 0.950 . S
H1576 C1581 0.950 . S
H1577 C1582 0.949 . S
H1578 C1584 0.950 . S
H1579 C1585 0.950 . S
H1580 C1586 0.949 . S
C1581 H1576 0.950 . S
C1581 C1583 1.327 . S
C1581 C1587 1.429 . S
C1582 C1574 1.574 . S
C1582 H1577 0.949 . S
C1582 C1588 1.368 . S
C1583 C1567 1.349 . S
C1583 H1575 0.950 . S
C1583 C1581 1.327 . S
C1584 C1572 1.349 . S
C1584 H1578 0.950 . S
C1584 C1585 1.327 . S
C1585 H1579 0.950 . S
C1585 C1584 1.327 . S
C1585 C1589 1.429 . S
C1586 C1569 1.574 . S
C1586 H1580 0.949 . S
C1586 C1590 1.368 . S
C1587 C1568 1.429 . S
C1587 C1581 1.429 . S
C1587 C1588 1.523 . S
C1588 C1569 1.368 . S
C1588 C1582 1.368 . S
C1588 C1587 1.523 . S
C1589 C1573 1.429 . S
C1589 C1585 1.429 . S
C1589 C1590 1.523 . S
C1590 C1574 1.368 . S
C1590 C1586 1.368 . S
C1590 C1589 1.523 . S
H1591 C1566 0.950 . S
H1592 C1568 0.950 . S
H1593 C1569 0.949 . S
H1594 C1571 0.950 . S
H1595 C1573 0.950 . S
C1596 C1597 1.349 . S
C1596 C1598 1.327 . S
C1596 H1621 0.950 . S
C1597 C1596 1.349 . S
C1597 C1613 1.349 . S
C1598 C1596 1.327 . S
C1598 C1617 1.429 . S
C1598 H1622 0.950 . S
C1599 C1616 1.574 1_554 S
C1599 C1618 1.368 . S
C1599 H1623 0.949 . S
H1600 C1604 0.949 . S
C1601 C1602 1.349 . S
C1601 C1603 1.327 . S
C1601 H1624 0.950 . S
C1602 C1601 1.349 . S
C1602 C1614 1.349 . S
C1603 C1601 1.327 . S
C1603 C1619 1.429 . S
C1603 H1625 0.950 . S
C1604 H1600 0.949 . S
C1604 C1612 1.574 1_556 S
C1604 C1620 1.368 . S
H1605 C1613 0.950 . S
H1606 C1611 0.950 . S
H1607 C1612 0.949 . S
H1608 C1614 0.950 . S
H1609 C1615 0.950 . S
H1610 C1616 0.949 . S
C1611 H1606 0.950 . S
C1611 C1613 1.327 . S
C1611 C1617 1.429 . S
C1612 C1604 1.574 1_554 S
C1612 H1607 0.949 . S
C1612 C1618 1.368 . S
C1613 C1597 1.349 . S
C1613 H1605 0.950 . S
C1613 C1611 1.327 . S
C1614 C1602 1.349 . S
C1614 H1608 0.950 . S
C1614 C1615 1.327 . S
C1615 H1609 0.950 . S
C1615 C1614 1.327 . S
C1615 C1619 1.429 . S
C1616 C1599 1.574 1_556 S
C1616 H1610 0.949 . S
C1616 C1620 1.368 . S
C1617 C1598 1.429 . S
C1617 C1611 1.429 . S
C1617 C1618 1.523 . S
C1618 C1599 1.368 . S
C1618 C1612 1.368 . S
C1618 C1617 1.523 . S
C1619 C1603 1.429 . S
C1619 C1615 1.429 . S
C1619 C1620 1.523 . S
C1620 C1604 1.368 . S
C1620 C1616 1.368 . S
C1620 C1619 1.523 . S
H1621 C1596 0.950 . S
H1622 C1598 0.950 . S
H1623 C1599 0.949 . S
H1624 C1601 0.950 . S
H1625 C1603 0.950 . S
C1626 C1627 1.349 . S
C1626 C1628 1.327 . S
C1626 H1651 0.950 . S
C1627 C1626 1.349 . S
C1627 C1643 1.349 . S
C1628 C1626 1.327 . S
C1628 C1647 1.429 . S
C1628 H1652 0.950 . S
C1629 C1646 1.574 . S
C1629 C1648 1.368 . S
C1629 H1653 0.949 . S
H1630 C1634 0.949 . S
C1631 C1632 1.349 . S
C1631 C1633 1.327 . S
C1631 H1654 0.950 . S
C1632 C1631 1.349 . S
C1632 C1644 1.349 . S
C1633 C1631 1.327 . S
C1633 C1649 1.429 . S
C1633 H1655 0.950 . S
C1634 H1630 0.949 . S
C1634 C1642 1.574 . S
C1634 C1650 1.368 . S
H1635 C1643 0.950 . S
H1636 C1641 0.950 . S
H1637 C1642 0.949 . S
H1638 C1644 0.950 . S
H1639 C1645 0.950 . S
H1640 C1646 0.949 . S
C1641 H1636 0.950 . S
C1641 C1643 1.327 . S
C1641 C1647 1.429 . S
C1642 C1634 1.574 . S
C1642 H1637 0.949 . S
C1642 C1648 1.368 . S
C1643 C1627 1.349 . S
C1643 H1635 0.950 . S
C1643 C1641 1.327 . S
C1644 C1632 1.349 . S
C1644 H1638 0.950 . S
C1644 C1645 1.327 . S
C1645 H1639 0.950 . S
C1645 C1644 1.327 . S
C1645 C1649 1.429 . S
C1646 C1629 1.574 . S
C1646 H1640 0.949 . S
C1646 C1650 1.368 . S
C1647 C1628 1.429 . S
C1647 C1641 1.429 . S
C1647 C1648 1.523 . S
C1648 C1629 1.368 . S
C1648 C1642 1.368 . S
C1648 C1647 1.523 . S
C1649 C1633 1.429 . S
C1649 C1645 1.429 . S
C1649 C1650 1.523 . S
C1650 C1634 1.368 . S
C1650 C1646 1.368 . S
C1650 C1649 1.523 . S
H1651 C1626 0.950 . S
H1652 C1628 0.950 . S
H1653 C1629 0.949 . S
H1654 C1631 0.950 . S
H1655 C1633 0.950 . S
C1656 C1657 1.349 . S
C1656 C1658 1.327 . S
C1656 H1681 0.950 . S
C1657 C1656 1.349 . S
C1657 C1673 1.349 . S
C1658 C1656 1.327 . S
C1658 C1677 1.429 . S
C1658 H1682 0.950 . S
C1659 C1676 1.574 . S
C1659 C1678 1.368 1_556 S
C1659 H1683 0.949 . S
H1660 C1664 0.949 . S
C1661 C1662 1.349 . S
C1661 C1663 1.327 . S
C1661 H1684 0.950 . S
C1662 C1661 1.349 . S
C1662 C1674 1.349 . S
C1663 C1661 1.327 . S
C1663 C1679 1.429 . S
C1663 H1685 0.950 . S
C1664 H1660 0.949 . S
C1664 C1672 1.574 . S
C1664 C1680 1.368 1_554 S
H1665 C1673 0.950 . S
H1666 C1671 0.950 . S
H1667 C1672 0.949 . S
H1668 C1674 0.950 . S
H1669 C1675 0.950 . S
H1670 C1676 0.949 . S
C1671 H1666 0.950 . S
C1671 C1673 1.327 . S
C1671 C1677 1.429 . S
C1672 C1664 1.574 . S
C1672 H1667 0.949 . S
C1672 C1678 1.368 . S
C1673 C1657 1.349 . S
C1673 H1665 0.950 . S
C1673 C1671 1.327 . S
C1674 C1662 1.349 . S
C1674 H1668 0.950 . S
C1674 C1675 1.327 . S
C1675 H1669 0.950 . S
C1675 C1674 1.327 . S
C1675 C1679 1.429 . S
C1676 C1659 1.574 . S
C1676 H1670 0.949 . S
C1676 C1680 1.368 . S
C1677 C1658 1.429 . S
C1677 C1671 1.429 . S
C1677 C1678 1.523 . S
C1678 C1659 1.368 1_554 S
C1678 C1672 1.368 . S
C1678 C1677 1.523 . S
C1679 C1663 1.429 . S
C1679 C1675 1.429 . S
C1679 C1680 1.523 . S
C1680 C1664 1.368 1_556 S
C1680 C1676 1.368 . S
C1680 C1679 1.523 . S
H1681 C1656 0.950 . S
H1682 C1658 0.950 . S
H1683 C1659 0.949 . S
H1684 C1661 0.950 . S
H1685 C1663 0.950 . S
C1686 C1687 1.349 . S
C1686 C1688 1.327 . S
C1686 H1711 0.950 . S
C1687 C1686 1.349 . S
C1687 C1703 1.349 . S
C1688 C1686 1.327 . S
C1688 C1707 1.429 . S
C1688 H1712 0.950 . S
C1689 C1706 1.574 . S
C1689 C1708 1.368 . S
C1689 H1713 0.949 . S
H1690 C1694 0.949 . S
C1691 C1692 1.349 . S
C1691 C1693 1.327 . S
C1691 H1714 0.950 . S
C1692 C1691 1.349 . S
C1692 C1704 1.349 . S
C1693 C1691 1.327 . S
C1693 C1709 1.429 . S
C1693 H1715 0.950 . S
C1694 H1690 0.949 . S
C1694 C1702 1.574 . S
C1694 C1710 1.368 . S
H1695 C1703 0.950 . S
H1696 C1701 0.950 . S
H1697 C1702 0.949 . S
H1698 C1704 0.950 . S
H1699 C1705 0.950 . S
H1700 C1706 0.949 . S
C1701 H1696 0.950 . S
C1701 C1703 1.327 . S
C1701 C1707 1.429 . S
C1702 C1694 1.574 . S
C1702 H1697 0.949 . S
C1702 C1708 1.368 . S
C1703 C1687 1.349 . S
C1703 H1695 0.950 . S
C1703 C1701 1.327 . S
C1704 C1692 1.349 . S
C1704 H1698 0.950 . S
C1704 C1705 1.327 . S
C1705 H1699 0.950 . S
C1705 C1704 1.327 . S
C1705 C1709 1.429 . S
C1706 C1689 1.574 . S
C1706 H1700 0.949 . S
C1706 C1710 1.368 . S
C1707 C1688 1.429 . S
C1707 C1701 1.429 . S
C1707 C1708 1.523 . S
C1708 C1689 1.368 . S
C1708 C1702 1.368 . S
C1708 C1707 1.523 . S
C1709 C1693 1.429 . S
C1709 C1705 1.429 . S
C1709 C1710 1.523 . S
C1710 C1694 1.368 . S
C1710 C1706 1.368 . S
C1710 C1709 1.523 . S
H1711 C1686 0.950 . S
H1712 C1688 0.950 . S
H1713 C1689 0.949 . S
H1714 C1691 0.950 . S
H1715 C1693 0.950 . S
C1716 C1717 1.349 . S
C1716 C1718 1.327 . S
C1716 H1741 0.950 . S
C1717 C1716 1.349 . S
C1717 C1733 1.349 . S
C1718 C1716 1.327 . S
C1718 C1737 1.429 . S
C1718 H1742 0.950 . S
C1719 C1736 1.574 . S
C1719 C1738 1.368 1_554 S
C1719 H1743 0.949 . S
H1720 C1724 0.949 . S
C1721 C1722 1.349 . S
C1721 C1723 1.327 . S
C1721 H1744 0.950 . S
C1722 C1721 1.349 . S
C1722 C1734 1.349 . S
C1723 C1721 1.327 . S
C1723 C1739 1.429 . S
C1723 H1745 0.950 . S
C1724 H1720 0.949 . S
C1724 C1732 1.574 . S
C1724 C1740 1.368 1_556 S
H1725 C1733 0.950 . S
H1726 C1731 0.950 1_554 S
H1727 C1732 0.949 . S
H1728 C1734 0.950 . S
H1729 C1735 0.950 1_556 S
H1730 C1736 0.949 . S
C1731 H1726 0.950 1_556 S
C1731 C1733 1.327 . S
C1731 C1737 1.429 . S
C1732 C1724 1.574 . S
C1732 H1727 0.949 . S
C1732 C1738 1.368 . S
C1733 C1717 1.349 . S
C1733 H1725 0.950 . S
C1733 C1731 1.327 . S
C1734 C1722 1.349 . S
C1734 H1728 0.950 . S
C1734 C1735 1.327 . S
C1735 H1729 0.950 1_554 S
C1735 C1734 1.327 . S
C1735 C1739 1.429 . S
C1736 C1719 1.574 . S
C1736 H1730 0.949 . S
C1736 C1740 1.368 . S
C1737 C1718 1.429 . S
C1737 C1731 1.429 . S
C1737 C1738 1.523 . S
C1738 C1719 1.368 1_556 S
C1738 C1732 1.368 . S
C1738 C1737 1.523 . S
C1739 C1723 1.429 . S
C1739 C1735 1.429 . S
C1739 C1740 1.523 . S
C1740 C1724 1.368 1_554 S
C1740 C1736 1.368 . S
C1740 C1739 1.523 . S
H1741 C1716 0.950 . S
H1742 C1718 0.950 . S
H1743 C1719 0.949 . S
H1744 C1721 0.950 . S
H1745 C1723 0.950 . S
C1746 C1747 1.349 . S
C1746 C1748 1.327 . S
C1746 H1771 0.950 . S
C1747 C1746 1.349 . S
C1747 C1763 1.349 . S
C1748 C1746 1.327 . S
C1748 C1767 1.429 . S
C1748 H1772 0.950 . S
C1749 C1766 1.574 . S
C1749 C1768 1.368 . S
C1749 H1773 0.949 . S
H1750 C1754 0.949 . S
C1751 C1752 1.349 . S
C1751 C1753 1.327 . S
C1751 H1774 0.950 . S
C1752 C1751 1.349 . S
C1752 C1764 1.349 . S
C1753 C1751 1.327 . S
C1753 C1769 1.429 . S
C1753 H1775 0.950 . S
C1754 H1750 0.949 . S
C1754 C1762 1.574 . S
C1754 C1770 1.368 . S
H1755 C1763 0.950 . S
H1756 C1761 0.950 . S
H1757 C1762 0.949 . S
H1758 C1764 0.950 . S
H1759 C1765 0.950 . S
H1760 C1766 0.949 . S
C1761 H1756 0.950 . S
C1761 C1763 1.327 . S
C1761 C1767 1.429 . S
C1762 C1754 1.574 . S
C1762 H1757 0.949 . S
C1762 C1768 1.368 . S
C1763 C1747 1.349 . S
C1763 H1755 0.950 . S
C1763 C1761 1.327 . S
C1764 C1752 1.349 . S
C1764 H1758 0.950 . S
C1764 C1765 1.327 . S
C1765 H1759 0.950 . S
C1765 C1764 1.327 . S
C1765 C1769 1.429 . S
C1766 C1749 1.574 . S
C1766 H1760 0.949 . S
C1766 C1770 1.368 . S
C1767 C1748 1.429 . S
C1767 C1761 1.429 . S
C1767 C1768 1.523 . S
C1768 C1749 1.368 . S
C1768 C1762 1.368 . S
C1768 C1767 1.523 . S
C1769 C1753 1.429 . S
C1769 C1765 1.429 . S
C1769 C1770 1.523 . S
C1770 C1754 1.368 . S
C1770 C1766 1.368 . S
C1770 C1769 1.523 . S
H1771 C1746 0.950 . S
H1772 C1748 0.950 . S
H1773 C1749 0.949 . S
H1774 C1751 0.950 . S
H1775 C1753 0.950 . S
C337 C3 1.482 . S
C342 C213 1.482 . S
C367 C17 1.482 . S
C372 C227 1.482 . S
C397 C241 1.482 . S
C402 C31 1.482 . S
C427 C171 1.482 . S
C432 C45 1.482 . S
C457 C185 1.482 . S
C462 C59 1.482 . S
C487 C199 1.482 . S
C492 C73 1.482 . S
C517 C297 1.482 . S
C522 C87 1.482 . S
C547 C101 1.482 . S
C552 C311 1.482 . S
C577 C325 1.482 . S
C582 C115 1.482 . S
C607 C129 1.482 . S
C612 C255 1.482 . S
C637 C269 1.482 . S
C642 C143 1.482 . S
C667 C157 1.482 . S
C672 C283 1.482 . S
C697 C148 1.338 . S
C702 C8 1.338 . S
C727 C162 1.338 . S
C732 C22 1.338 . S
C757 C36 1.338 . S
C762 C92 1.338 . S
C787 C50 1.338 . S
C792 C106 1.338 . S
C817 C120 1.338 . S
C822 C64 1.338 . S
C847 C78 1.338 . S
C852 C134 1.338 . S
C877 C316 1.338 . S
C882 C176 1.338 . S
C907 C190 1.338 . S
C912 C330 1.338 . S
C937 C204 1.338 . S
C942 C260 1.338 . S
C967 C274 1.338 . S
C972 C218 1.338 . S
C997 C232 1.338 . S
C1002 C288 1.338 . S
C1027 C246 1.338 . S
C1032 C302 1.338 . S
C1057 C9 1.377 . S
C1062 C261 1.377 . S
C1087 C275 1.377 . S
C1092 C23 1.377 . S
C1117 C37 1.377 . S
C1122 C289 1.377 . S
C1147 C51 1.377 . S
C1152 C303 1.377 . S
C1177 C317 1.377 . S
C1182 C65 1.377 . S
C1207 C79 1.377 . S
C1212 C331 1.377 . S
C1237 C93 1.377 . S
C1242 C177 1.377 . S
C1267 C107 1.377 . S
C1272 C191 1.377 . S
C1297 C205 1.377 . S
C1302 C121 1.377 . S
C1327 C219 1.377 . S
C1332 C135 1.377 . S
C1357 C149 1.377 . S
C1362 C233 1.377 . S
C1387 C247 1.377 . S
C1392 C163 1.377 . S
C1417 C91 1.445 . S
C1422 C7 1.445 . S
C1447 C21 1.444 . S
C1452 C105 1.444 . S
C1477 C119 1.444 . S
C1482 C35 1.444 . S
C1507 C133 1.445 . S
C1512 C49 1.445 . S
C1537 C147 1.444 . S
C1542 C63 1.444 . S
C1567 C77 1.444 . S
C1572 C161 1.444 . S
C1597 C259 1.445 . S
C1602 C175 1.445 . S
C1627 C189 1.444 . S
C1632 C273 1.444 . S
C1657 C287 1.444 . S
C1662 C203 1.444 . S
C1687 C301 1.445 . S
C1692 C217 1.445 . S
C1717 C231 1.444 . S
C1722 C315 1.444 . S
C1747 C245 1.444 . S
C1752 C329 1.444 . S
