# Generated by pormake.
# Topology wjz, (5)-cn, num edge types: 1
# Building blocks:
#     Node 0, Type 0, BuildingBlock: BEQFEK_clean_sbu_0, # of connection points: 5
#     Node 1, Type 0, BuildingBlock: BEQFEK_clean_sbu_0, # of connection points: 5
#     Node 2, Type 0, BuildingBlock: BEQFEK_clean_sbu_0, # of connection points: 5
#     Node 3, Type 0, BuildingBlock: BEQFEK_clean_sbu_0, # of connection points: 5
#     Node 4, Type 0, BuildingBlock: BEQFEK_clean_sbu_0, # of connection points: 5
#     Node 5, Type 0, BuildingBlock: BEQFEK_clean_sbu_0, # of connection points: 5
#     Node 6, Type 0, BuildingBlock: BEQFEK_clean_sbu_0, # of connection points: 5
#     Node 7, Type 0, BuildingBlock: BEQFEK_clean_sbu_0, # of connection points: 5
#     Node 8, Type 0, BuildingBlock: BEQFEK_clean_sbu_0, # of connection points: 5
#     Node 9, Type 0, BuildingBlock: BEQFEK_clean_sbu_0, # of connection points: 5
#     Node 10, Type 0, BuildingBlock: BEQFEK_clean_sbu_0, # of connection points: 5
#     Node 11, Type 0, BuildingBlock: BEQFEK_clean_sbu_0, # of connection points: 5
#     Edge 12, Type (0, 0), BuildingBlock: TEMPAE_clean_linker_10, # of connection points: 2
#     Edge 13, Type (0, 0), BuildingBlock: TEMPAE_clean_linker_10, # of connection points: 2
#     Edge 14, Type (0, 0), BuildingBlock: TEMPAE_clean_linker_10, # of connection points: 2
#     Edge 15, Type (0, 0), BuildingBlock: TEMPAE_clean_linker_10, # of connection points: 2
#     Edge 16, Type (0, 0), BuildingBlock: TEMPAE_clean_linker_10, # of connection points: 2
#     Edge 17, Type (0, 0), BuildingBlock: TEMPAE_clean_linker_10, # of connection points: 2
#     Edge 18, Type (0, 0), BuildingBlock: TEMPAE_clean_linker_10, # of connection points: 2
#     Edge 19, Type (0, 0), BuildingBlock: TEMPAE_clean_linker_10, # of connection points: 2
#     Edge 20, Type (0, 0), BuildingBlock: TEMPAE_clean_linker_10, # of connection points: 2
#     Edge 21, Type (0, 0), BuildingBlock: TEMPAE_clean_linker_10, # of connection points: 2
#     Edge 22, Type (0, 0), BuildingBlock: TEMPAE_clean_linker_10, # of connection points: 2
#     Edge 23, Type (0, 0), BuildingBlock: TEMPAE_clean_linker_10, # of connection points: 2
#     Edge 24, Type (0, 0), BuildingBlock: TEMPAE_clean_linker_10, # of connection points: 2
#     Edge 25, Type (0, 0), BuildingBlock: TEMPAE_clean_linker_10, # of connection points: 2
#     Edge 26, Type (0, 0), BuildingBlock: TEMPAE_clean_linker_10, # of connection points: 2
#     Edge 27, Type (0, 0), BuildingBlock: TEMPAE_clean_linker_10, # of connection points: 2
#     Edge 28, Type (0, 0), BuildingBlock: TEMPAE_clean_linker_10, # of connection points: 2
#     Edge 29, Type (0, 0), BuildingBlock: TEMPAE_clean_linker_10, # of connection points: 2
#     Edge 30, Type (0, 0), BuildingBlock: TEMPAE_clean_linker_10, # of connection points: 2
#     Edge 31, Type (0, 0), BuildingBlock: TEMPAE_clean_linker_10, # of connection points: 2
#     Edge 32, Type (0, 0), BuildingBlock: TEMPAE_clean_linker_10, # of connection points: 2
#     Edge 33, Type (0, 0), BuildingBlock: TEMPAE_clean_linker_10, # of connection points: 2
#     Edge 34, Type (0, 0), BuildingBlock: TEMPAE_clean_linker_10, # of connection points: 2
#     Edge 35, Type (0, 0), BuildingBlock: TEMPAE_clean_linker_10, # of connection points: 2
#     Edge 36, Type (0, 0), BuildingBlock: TEMPAE_clean_linker_10, # of connection points: 2
#     Edge 37, Type (0, 0), BuildingBlock: TEMPAE_clean_linker_10, # of connection points: 2
#     Edge 38, Type (0, 0), BuildingBlock: TEMPAE_clean_linker_10, # of connection points: 2
#     Edge 39, Type (0, 0), BuildingBlock: TEMPAE_clean_linker_10, # of connection points: 2
#     Edge 40, Type (0, 0), BuildingBlock: TEMPAE_clean_linker_10, # of connection points: 2
#     Edge 41, Type (0, 0), BuildingBlock: TEMPAE_clean_linker_10, # of connection points: 2
# Relax obj value: 0.219
# Max RMSD: 0.195
# Mean RMSD: 0.195
data_MOF--net-wjz--node1-BEQFEK_clean_sbu_0--edge1-TEMPAE_clean_linker_10
_symmetry_space_group_name_H-M    P1
_symmetry_Int_Tables_number       1
_symmetry_cell_setting            triclinic
loop_
_symmetry_equiv_pos_as_xyz
'x, y, z'
_cell_length_a     72.60498
_cell_length_b     72.641603
_cell_length_c     18.708855
_cell_angle_alpha  89.99513
_cell_angle_beta   90.003803
_cell_angle_gamma 120.00533
loop_
_atom_site_label
_atom_site_type_symbol
_atom_site_fract_x
_atom_site_fract_y
_atom_site_fract_z
_atom_type_partial_charge
Co0 Co 0.34394 0.46272 0.05068 0.0
Co1 Co 0.36328 0.48206 0.19863 0.0
C2 C 0.36475 0.44426 0.13326 0.0
O3 O 0.35358 0.44284 0.079 0.0
O4 O 0.36962 0.45876 0.17986 0.0
C5 C 0.32852 0.44012 0.91832 0.0
O6 O 0.3346 0.42718 0.94418 0.0
C7 C 0.35819 0.47457 0.34985 0.0
C8 C 0.37836 0.50637 0.39715 0.0
C9 C 0.36381 0.48543 0.41418 0.0
N10 N 0.36843 0.48851 0.29711 0.0
N11 N 0.38067 0.50748 0.32552 0.0
C12 C 0.34338 0.45127 0.3381 0.0
H13 H 0.3478 0.44575 0.28946 0.0
H14 H 0.32696 0.44827 0.33045 0.0
H15 H 0.34354 0.4419 0.38469 0.0
C16 C 0.30518 0.45844 0.11843 0.0
N17 N 0.32587 0.46405 0.11969 0.0
N18 N 0.3344 0.47377 0.18014 0.0
C19 C 0.31958 0.4755 0.21828 0.0
C20 C 0.30044 0.46549 0.18111 0.0
C21 C 0.29035 0.44623 0.05876 0.0
H22 H 0.29467 0.4348 0.03596 0.0
H23 H 0.2736 0.4375 0.07749 0.0
H24 H 0.29184 0.45746 0.01588 0.0
O25 O 0.36927 0.49139 0.03416 0.0
O26 O 0.38253 0.50661 0.1393 0.0
H27 H 0.31363 0.4958 0.28718 0.0
H28 H 0.32141 0.47895 0.33222 0.0
C29 C 0.32422 0.48889 0.28405 0.0
H30 H 0.34097 0.502 0.28385 0.0
H31 H 0.39008 0.52125 0.29597 0.0
O32 O 0.32982 0.455 0.95736 0.0
C33 C 0.3827 0.50707 0.07135 0.0
Co34 Co 0.88505 0.34004 0.21246 0.0
Co35 Co 0.88221 0.36123 0.35292 0.0
C36 C 0.92296 0.36271 0.29956 0.0
O37 O 0.91413 0.35022 0.24709 0.0
O38 O 0.91241 0.36818 0.34012 0.0
C39 C 0.89508 0.33294 0.07474 0.0
O40 O 0.91447 0.34617 0.09692 0.0
C41 C 0.88325 0.35812 0.50581 0.0
C42 C 0.8724 0.37971 0.54582 0.0
C43 C 0.87833 0.36517 0.56776 0.0
N44 N 0.87988 0.36759 0.44978 0.0
N45 N 0.87355 0.38063 0.47382 0.0
C46 C 0.89149 0.34293 0.49951 0.0
H47 H 0.9004 0.34549 0.44909 0.0
H48 H 0.87797 0.32638 0.49893 0.0
H49 H 0.90191 0.34471 0.54554 0.0
C50 C 0.84983 0.30187 0.28158 0.0
N51 N 0.86463 0.32266 0.28049 0.0
N52 N 0.86245 0.33195 0.33748 0.0
C53 C 0.84558 0.31754 0.37539 0.0
C54 C 0.83728 0.29787 0.34213 0.0
C55 C 0.84814 0.28626 0.22614 0.0
H56 H 0.86409 0.29107 0.20394 0.0
H57 H 0.84099 0.27001 0.24889 0.0
H58 H 0.8379 0.28612 0.18186 0.0
O59 O 0.88184 0.36495 0.18844 0.0
O60 O 0.87655 0.37892 0.28635 0.0
H61 H 0.81829 0.31221 0.43738 0.0
H62 H 0.84227 0.32094 0.48772 0.0
C63 C 0.83579 0.32294 0.43652 0.0
H64 H 0.83928 0.33959 0.4321 0.0
H65 H 0.86966 0.38983 0.44115 0.0
O66 O 0.87992 0.32574 0.11954 0.0
C67 C 0.87813 0.37847 0.21865 0.0
Co68 Co 0.54209 0.88489 0.38852 0.0
Co69 Co 0.51923 0.88195 0.53409 0.0
C70 C 0.55867 0.9221 0.48458 0.0
O71 O 0.5608 0.91343 0.42849 0.0
O72 O 0.54322 0.91178 0.52751 0.0
C73 C 0.56372 0.88036 0.24244 0.0
O74 O 0.58132 0.8795 0.24774 0.0
C75 C 0.52033 0.88459 0.68901 0.0
C76 C 0.4866 0.86484 0.71998 0.0
C77 C 0.50698 0.87647 0.74774 0.0
N78 N 0.50844 0.87807 0.62939 0.0
N79 N 0.48824 0.86655 0.64818 0.0
C80 C 0.54414 0.89611 0.68884 0.0
H81 H 0.55014 0.89305 0.63827 0.0
H82 H 0.55031 0.89115 0.73482 0.0
H83 H 0.5502 0.91344 0.69313 0.0
C84 C 0.54337 0.84813 0.45194 0.0
N85 N 0.53819 0.86352 0.45463 0.0
N86 N 0.52868 0.86225 0.51589 0.0
C87 C 0.52754 0.84594 0.55403 0.0
C88 C 0.53691 0.83664 0.51494 0.0
C89 C 0.55454 0.84476 0.39061 0.0
H90 H 0.54474 0.84136 0.34165 0.0
H91 H 0.5699 0.85955 0.38124 0.0
H92 H 0.55755 0.83144 0.40086 0.0
O93 O 0.51457 0.88253 0.36241 0.0
O94 O 0.49682 0.87792 0.46407 0.0
H95 H 0.5142 0.8226 0.63887 0.0
H96 H 0.52683 0.84991 0.66693 0.0
C97 C 0.51677 0.83857 0.62494 0.0
H98 H 0.5012 0.83791 0.62389 0.0
H99 H 0.47568 0.85909 0.612 0.0
O100 O 0.55505 0.88213 0.29902 0.0
C101 C 0.49802 0.87945 0.3961 0.0
Co102 Co 0.6563 0.53914 0.55816 0.0
Co103 Co 0.63604 0.51958 0.70559 0.0
C104 C 0.63571 0.55787 0.64451 0.0
O105 O 0.64736 0.55934 0.59159 0.0
O106 O 0.62992 0.54296 0.68994 0.0
C107 C 0.66644 0.56008 0.42445 0.0
O108 O 0.65626 0.5692 0.45116 0.0
C109 C 0.63268 0.5236 0.85809 0.0
C110 C 0.62397 0.4917 0.89863 0.0
C111 C 0.63012 0.51223 0.92024 0.0
N112 N 0.629 0.51064 0.80218 0.0
N113 N 0.62323 0.49143 0.8266 0.0
C114 C 0.63955 0.54672 0.85119 0.0
H115 H 0.65395 0.55478 0.81704 0.0
H116 H 0.64263 0.55477 0.90373 0.0
H117 H 0.62674 0.54821 0.8245 0.0
C118 C 0.69313 0.53816 0.62188 0.0
N119 N 0.67338 0.5354 0.62554 0.0
N120 N 0.66552 0.52869 0.68974 0.0
C121 C 0.68056 0.52806 0.73042 0.0
C122 C 0.6985 0.53371 0.68857 0.0
C123 C 0.70555 0.54295 0.5538 0.0
H124 H 0.69463 0.53503 0.50828 0.0
H125 H 0.71403 0.56035 0.54427 0.0
H126 H 0.71727 0.53741 0.55595 0.0
O127 O 0.6309 0.51172 0.53764 0.0
O128 O 0.61724 0.49554 0.64064 0.0
H129 H 0.66714 0.50681 0.81918 0.0
H130 H 0.69387 0.52855 0.83506 0.0
C131 C 0.67842 0.5239 0.80921 0.0
H132 H 0.67222 0.53343 0.83439 0.0
H133 H 0.62006 0.47848 0.79419 0.0
O134 O 0.67028 0.54828 0.46451 0.0
C135 C 0.61708 0.49574 0.57248 0.0
Co136 Co 0.11702 0.65961 0.72577 0.0
Co137 Co 0.11929 0.63892 0.8686 0.0
C138 C 0.07921 0.63858 0.81555 0.0
O139 O 0.08813 0.65017 0.76111 0.0
O140 O 0.08943 0.63307 0.85762 0.0
C141 C 0.10727 0.66802 0.58744 0.0
O142 O 0.08761 0.65808 0.61094 0.0
C143 C 0.11536 0.63777 0.02207 0.0
C144 C 0.13184 0.62072 0.05726 0.0
C145 C 0.12142 0.63105 0.08192 0.0
N146 N 0.12176 0.63166 0.96407 0.0
N147 N 0.1314 0.62123 0.98521 0.0
C148 C 0.10474 0.65088 0.01983 0.0
H149 H 0.10937 0.66075 0.97067 0.0
H150 H 0.10883 0.66119 0.06783 0.0
H151 H 0.08725 0.64009 0.01897 0.0
C152 C 0.15245 0.69782 0.79378 0.0
N153 N 0.13767 0.67702 0.79349 0.0
N154 N 0.13921 0.66816 0.85276 0.0
C155 C 0.15541 0.68297 0.89211 0.0
C156 C 0.16421 0.70234 0.8565 0.0
C157 C 0.15461 0.71303 0.7361 0.0
H158 H 0.13878 0.70829 0.71296 0.0
H159 H 0.16197 0.72952 0.75693 0.0
H160 H 0.16482 0.71252 0.69292 0.0
O161 O 0.11944 0.63432 0.70258 0.0
O162 O 0.12437 0.62078 0.80197 0.0
H163 H 0.18036 0.6903 0.96929 0.0
H164 H 0.15384 0.67846 0.00534 0.0
C165 C 0.16345 0.6783 0.95951 0.0
H166 H 0.16199 0.66241 0.95611 0.0
H167 H 0.13827 0.6151 0.95061 0.0
O168 O 0.12241 0.67323 0.63139 0.0
C169 C 0.12283 0.62082 0.73425 0.0
Co170 Co 0.46627 0.12054 0.89427 0.0
Co171 Co 0.47974 0.11578 0.04734 0.0
C172 C 0.44407 0.07893 0.97156 0.0
O173 O 0.44552 0.09005 0.91686 0.0
O174 O 0.45645 0.08714 0.02469 0.0
C175 C 0.44316 0.1174 0.76346 0.0
O176 O 0.42644 0.10102 0.79185 0.0
C177 C 0.47307 0.10695 0.19915 0.0
C178 C 0.50468 0.12925 0.2438 0.0
C179 C 0.48389 0.11489 0.26263 0.0
N180 N 0.48676 0.11632 0.14504 0.0
N181 N 0.5058 0.12919 0.17198 0.0
C182 C 0.44961 0.09248 0.18979 0.0
H183 H 0.44378 0.09755 0.14322 0.0
H184 H 0.44068 0.09201 0.23853 0.0
H185 H 0.44655 0.07617 0.17892 0.0
C186 C 0.46478 0.15671 0.9614 0.0
N187 N 0.46722 0.13953 0.96446 0.0
N188 N 0.47159 0.13679 0.03039 0.0
C189 C 0.47084 0.15149 0.07243 0.0
C190 C 0.46687 0.1649 0.03011 0.0
C191 C 0.46271 0.16616 0.89282 0.0
H192 H 0.47243 0.16439 0.85064 0.0
H193 H 0.44583 0.15754 0.87543 0.0
H194 H 0.46804 0.18329 0.89882 0.0
O195 O 0.49484 0.12452 0.88153 0.0
O196 O 0.50515 0.12114 0.99001 0.0
H197 H 0.48834 0.15642 0.16948 0.0
H198 H 0.46658 0.16178 0.1773 0.0
C199 C 0.47188 0.15141 0.15225 0.0
H200 H 0.4611 0.13515 0.17163 0.0
H201 H 0.51918 0.13903 0.14133 0.0
O202 O 0.45993 0.12764 0.80036 0.0
C203 C 0.50858 0.12441 0.92321 0.0
Co204 Co 0.54399 0.66098 0.78735 0.0
Co205 Co 0.52036 0.6425 0.64516 0.0
C206 C 0.5597 0.64067 0.68811 0.0
O207 O 0.56277 0.65179 0.74391 0.0
O208 O 0.54368 0.63555 0.64811 0.0
C209 C 0.55453 0.65742 0.91832 0.0
O210 O 0.55246 0.64078 0.88351 0.0
C211 C 0.52299 0.64327 0.49342 0.0
C212 C 0.48956 0.62566 0.45702 0.0
C213 C 0.51042 0.63642 0.43277 0.0
N214 N 0.51024 0.63677 0.55064 0.0
N215 N 0.49025 0.62616 0.52902 0.0
C216 C 0.54666 0.65727 0.49812 0.0
H217 H 0.55117 0.66625 0.54913 0.0
H218 H 0.55278 0.6686 0.45267 0.0
H219 H 0.55422 0.64725 0.49684 0.0
C220 C 0.54604 0.70019 0.73219 0.0
N221 N 0.54056 0.6796 0.72695 0.0
N222 N 0.53028 0.67173 0.6666 0.0
C223 C 0.52887 0.68718 0.63143 0.0
C224 C 0.53892 0.70566 0.67155 0.0
C225 C 0.55772 0.71413 0.79426 0.0
H226 H 0.54669 0.70967 0.84039 0.0
H227 H 0.57096 0.7115 0.81004 0.0
H228 H 0.56397 0.73116 0.7814 0.0
O229 O 0.51576 0.63628 0.81015 0.0
O230 O 0.49731 0.62334 0.71066 0.0
H231 H 0.51335 0.69703 0.55408 0.0
H232 H 0.52712 0.68435 0.51766 0.0
C233 C 0.51711 0.68415 0.56273 0.0
H234 H 0.50214 0.66863 0.56304 0.0
H235 H 0.47714 0.61945 0.56324 0.0
O236 O 0.55452 0.67235 0.88295 0.0
C237 C 0.49878 0.62305 0.77832 0.0
Co238 Co 0.88189 0.53833 0.94969 0.0
Co239 Co 0.88099 0.51945 0.80027 0.0
C240 C 0.92023 0.55764 0.85913 0.0
O241 O 0.9106 0.55902 0.91383 0.0
O242 O 0.91066 0.54274 0.81394 0.0
C243 C 0.89293 0.5602 0.08281 0.0
O244 O 0.91228 0.56982 0.05633 0.0
C245 C 0.88723 0.52366 0.64756 0.0
C246 C 0.86319 0.49203 0.60732 0.0
C247 C 0.87781 0.51247 0.58571 0.0
N248 N 0.87808 0.51068 0.70348 0.0
N249 N 0.86409 0.49163 0.67923 0.0
C250 C 0.90403 0.5466 0.65426 0.0
H251 H 0.8983 0.55494 0.68968 0.0
H252 H 0.90886 0.55472 0.6018 0.0
H253 H 0.91831 0.54759 0.67937 0.0
C254 C 0.84313 0.5371 0.89288 0.0
N255 N 0.8602 0.53458 0.88578 0.0
N256 N 0.86093 0.5285 0.82024 0.0
C257 C 0.84497 0.52812 0.78212 0.0
C258 C 0.83285 0.53319 0.82709 0.0
C259 C 0.83589 0.54117 0.96306 0.0
H260 H 0.83913 0.53277 0.00643 0.0
H261 H 0.84488 0.55846 0.97462 0.0
H262 H 0.81862 0.53564 0.96268 0.0
O263 O 0.88079 0.51108 0.96813 0.0
O264 O 0.87597 0.49516 0.86284 0.0
H265 H 0.83617 0.50771 0.69068 0.0
H266 H 0.8319 0.53007 0.6797 0.0
C267 C 0.84252 0.52477 0.70292 0.0
H268 H 0.85819 0.53419 0.67711 0.0
H269 H 0.85431 0.47873 0.71182 0.0
O270 O 0.87754 0.54746 0.04359 0.0
C271 C 0.8777 0.4952 0.9306 0.0
Co272 Co 0.34259 0.88647 0.11577 0.0
Co273 Co 0.35978 0.87891 0.97483 0.0
C274 C 0.36125 0.92064 0.01167 0.0
O275 O 0.35035 0.91351 0.06841 0.0
O276 O 0.3664 0.90918 0.97478 0.0
C277 C 0.34639 0.9017 0.24685 0.0
O278 O 0.36302 0.91627 0.21189 0.0
C279 C 0.35683 0.8797 0.82355 0.0
C280 C 0.37702 0.86714 0.78349 0.0
C281 C 0.36461 0.8757 0.76137 0.0
N282 N 0.36448 0.87407 0.87936 0.0
N283 N 0.37653 0.86653 0.85552 0.0
C284 C 0.34152 0.88773 0.8312 0.0
H285 H 0.33277 0.88236 0.8825 0.0
H286 H 0.32999 0.88214 0.78629 0.0
H287 H 0.35046 0.90537 0.83162 0.0
C288 C 0.30293 0.84826 0.06724 0.0
N289 N 0.32351 0.86325 0.05961 0.0
N290 N 0.3311 0.85949 0.00102 0.0
C291 C 0.31571 0.84157 0.97043 0.0
C292 C 0.29734 0.83399 0.01102 0.0
C293 C 0.28934 0.84732 0.12874 0.0
H294 H 0.29528 0.84361 0.17822 0.0
H295 H 0.29075 0.86313 0.13624 0.0
H296 H 0.27244 0.83504 0.12044 0.0
O297 O 0.36847 0.88449 0.13719 0.0
O298 O 0.3796 0.8759 0.03924 0.0
H299 H 0.33435 0.83333 0.90276 0.0
H300 H 0.30598 0.81513 0.89739 0.0
C301 C 0.31848 0.83204 0.90318 0.0
H302 H 0.31742 0.84091 0.85661 0.0
H303 H 0.3846 0.86127 0.88826 0.0
O304 O 0.3318 0.88635 0.21181 0.0
C305 C 0.38117 0.87983 0.10591 0.0
Co306 Co 0.45682 0.34203 0.28577 0.0
Co307 Co 0.48028 0.36018 0.14276 0.0
C308 C 0.44074 0.36161 0.18571 0.0
O309 O 0.43721 0.34989 0.24025 0.0
O310 O 0.45719 0.36733 0.14738 0.0
C311 C 0.44631 0.34662 0.41648 0.0
O312 O 0.44734 0.36249 0.37954 0.0
C313 C 0.47886 0.36313 0.9899 0.0
C314 C 0.51249 0.37746 0.95697 0.0
C315 C 0.49208 0.36983 0.93055 0.0
N316 N 0.49088 0.36668 0.04828 0.0
N317 N 0.511 0.37542 0.02864 0.0
C318 C 0.45501 0.35127 0.99168 0.0
H319 H 0.44913 0.34133 0.04054 0.0
H320 H 0.44836 0.3409 0.94404 0.0
H321 H 0.44924 0.36282 0.99254 0.0
C322 C 0.4583 0.30374 0.23531 0.0
N323 N 0.46161 0.3236 0.22712 0.0
N324 N 0.47031 0.33096 0.16424 0.0
C325 C 0.47214 0.31576 0.1292 0.0
C326 C 0.4649 0.29802 0.17338 0.0
C327 C 0.45054 0.29133 0.30328 0.0
H328 H 0.4553 0.30223 0.34973 0.0
H329 H 0.43292 0.28179 0.30196 0.0
H330 H 0.45698 0.28042 0.30996 0.0
O331 O 0.48409 0.36788 0.30756 0.0
O332 O 0.50353 0.37887 0.20899 0.0
H333 H 0.49696 0.32935 0.05085 0.0
H334 H 0.47612 0.30252 0.02975 0.0
C335 C 0.47962 0.31791 0.05335 0.0
H336 H 0.47136 0.32408 0.02011 0.0
H337 H 0.52364 0.37972 0.06396 0.0
O338 O 0.44674 0.33161 0.38296 0.0
C339 C 0.50132 0.38035 0.27577 0.0
Co340 Co 0.11895 0.46061 0.4552 0.0
Co341 Co 0.12245 0.48321 0.31106 0.0
C342 C 0.08177 0.44392 0.36367 0.0
O343 O 0.09038 0.441 0.41836 0.0
O344 O 0.09235 0.45968 0.32213 0.0
C345 C 0.10827 0.44207 0.59208 0.0
O346 O 0.08882 0.4356 0.56973 0.0
C347 C 0.11965 0.47862 0.15859 0.0
C348 C 0.13795 0.51158 0.11828 0.0
C349 C 0.12752 0.49049 0.09675 0.0
N350 N 0.12571 0.492 0.21429 0.0
N351 N 0.13637 0.51172 0.19007 0.0
C352 C 0.10625 0.45494 0.16582 0.0
H353 H 0.09101 0.45101 0.19185 0.0
H354 H 0.11448 0.44896 0.20071 0.0
H355 H 0.10236 0.44664 0.11367 0.0
C356 C 0.15524 0.45817 0.3944 0.0
N357 N 0.14009 0.46366 0.39059 0.0
N358 N 0.14226 0.47399 0.33064 0.0
C359 C 0.15928 0.47588 0.29507 0.0
C360 C 0.1679 0.46578 0.33405 0.0
C361 C 0.1581 0.44687 0.45649 0.0
H362 H 0.16361 0.45767 0.50339 0.0
H363 H 0.14258 0.43281 0.4706 0.0
H364 H 0.1699 0.44183 0.44462 0.0
O365 O 0.12109 0.48847 0.47633 0.0
O366 O 0.12732 0.50678 0.37544 0.0
H367 H 0.16735 0.50256 0.22682 0.0
H368 H 0.18372 0.49056 0.2139 0.0
C369 C 0.16739 0.48733 0.22556 0.0
H370 H 0.15684 0.47736 0.18178 0.0
H371 H 0.14325 0.52519 0.22263 0.0
O372 O 0.12358 0.45135 0.54839 0.0
C373 C 0.12493 0.50531 0.44298 0.0
Co374 Co 0.66313 0.11799 0.63792 0.0
Co375 Co 0.64249 0.12127 0.49626 0.0
C376 C 0.64124 0.08069 0.54364 0.0
O377 O 0.65288 0.08927 0.59815 0.0
O378 O 0.636 0.09126 0.50245 0.0
C379 C 0.66186 0.10588 0.77126 0.0
O380 O 0.64507 0.09041 0.73978 0.0
C381 C 0.64104 0.11815 0.34327 0.0
C382 C 0.62673 0.13741 0.30976 0.0
C383 C 0.63562 0.12571 0.28376 0.0
N384 N 0.63568 0.12505 0.40176 0.0
N385 N 0.62686 0.13633 0.38169 0.0
C386 C 0.65351 0.10681 0.34533 0.0
H387 H 0.6629 0.11064 0.39541 0.0
H388 H 0.66438 0.11123 0.29877 0.0
H389 H 0.64232 0.08941 0.34385 0.0
C390 C 0.70143 0.15432 0.57419 0.0
N391 N 0.68078 0.13914 0.57267 0.0
N392 N 0.67191 0.14113 0.51402 0.0
C393 C 0.68665 0.15802 0.47689 0.0
C394 C 0.7058 0.16682 0.51357 0.0
C395 C 0.71613 0.15737 0.63472 0.0
H396 H 0.71075 0.16222 0.68305 0.0
H397 H 0.71533 0.14204 0.64699 0.0
H398 H 0.73276 0.16967 0.62231 0.0
O399 O 0.63875 0.12188 0.66337 0.0
O400 O 0.62377 0.12499 0.5644 0.0
H401 H 0.66788 0.16657 0.41143 0.0
H402 H 0.69599 0.18128 0.39154 0.0
C403 C 0.68257 0.16555 0.40734 0.0
H404 H 0.68037 0.15402 0.3648 0.0
H405 H 0.62166 0.14391 0.41697 0.0
O406 O 0.67604 0.12045 0.7326 0.0
C407 C 0.62469 0.12451 0.63224 0.0
C408 C 0.33379 0.46207 0.49559 0.0
C409 C 0.35537 0.47709 0.48596 0.0
C410 C 0.32581 0.45348 0.56315 0.0
C411 C 0.33967 0.46055 0.62256 0.0
C412 C 0.36132 0.47632 0.61359 0.0
C413 C 0.36891 0.4844 0.5452 0.0
C414 C 0.30263 0.43681 0.57089 0.0
C415 C 0.37649 0.48454 0.67617 0.0
C416 C 0.32145 0.4567 0.81332 0.0
C417 C 0.32579 0.44127 0.84057 0.0
C418 C 0.32446 0.46217 0.74084 0.0
C419 C 0.33173 0.45175 0.69466 0.0
C420 C 0.33393 0.43462 0.7203 0.0
C421 C 0.33093 0.42956 0.79325 0.0
C422 C 0.32176 0.48042 0.71539 0.0
C423 C 0.3412 0.42283 0.67203 0.0
H424 H 0.32302 0.45715 0.45052 0.0
H425 H 0.38552 0.49623 0.53785 0.0
H426 H 0.3012 0.42203 0.59351 0.0
H427 H 0.29469 0.44238 0.60873 0.0
H428 H 0.29402 0.43295 0.51907 0.0
H429 H 0.39273 0.49707 0.66019 0.0
H430 H 0.37046 0.49121 0.71733 0.0
H431 H 0.37757 0.47128 0.70135 0.0
H432 H 0.3171 0.46558 0.84943 0.0
H433 H 0.33405 0.41742 0.81376 0.0
H434 H 0.31336 0.47667 0.66331 0.0
H435 H 0.33767 0.49467 0.70747 0.0
H436 H 0.31282 0.48447 0.75449 0.0
H437 H 0.33234 0.41866 0.62076 0.0
H438 H 0.33907 0.40805 0.6973 0.0
H439 H 0.35831 0.43323 0.65941 0.0
C440 C 0.87038 0.32868 0.9756 0.0
C441 C 0.89024 0.3319 -0.00221 0.0
C442 C 0.86699 0.33243 0.90467 0.0
C443 C 0.88373 0.33908 0.85461 0.0
C444 C 0.90328 0.34083 0.87551 0.0
C445 C 0.90639 0.33743 0.94719 0.0
C446 C 0.84601 0.33065 0.88461 0.0
C447 C 0.9213 0.34737 0.82301 0.0
C448 C 0.87151 0.33687 0.65695 0.0
C449 C 0.87861 0.3583 0.64182 0.0
C450 C 0.87299 0.33033 0.72608 0.0
C451 C 0.8813 0.34554 0.78162 0.0
C452 C 0.88757 0.36705 0.76737 0.0
C453 C 0.88614 0.37318 0.6974 0.0
C454 C 0.86597 0.30724 0.73941 0.0
C455 C 0.89611 0.38363 0.82576 0.0
H456 H 0.85787 0.32459 0.01459 0.0
H457 H 0.92173 0.33986 0.96419 0.0
H458 H 0.84846 0.34675 0.87385 0.0
H459 H 0.8396 0.3212 0.83501 0.0
H460 H 0.83394 0.32321 0.92765 0.0
H461 H 0.93465 0.34597 0.84602 0.0
H462 H 0.91555 0.33744 0.7741 0.0
H463 H 0.92743 0.36412 0.80658 0.0
H464 H 0.8647 0.32514 0.61483 0.0
H465 H 0.89137 0.3897 0.68582 0.0
H466 H 0.85351 0.30067 0.78136 0.0
H467 H 0.8796 0.30581 0.75932 0.0
H468 H 0.85961 0.29738 0.69044 0.0
H469 H 0.88451 0.37871 0.87032 0.0
H470 H 0.89952 0.39949 0.80636 0.0
H471 H 0.91099 0.38514 0.84783 0.0
C472 C 0.56325 0.87645 0.10951 0.0
C473 C 0.55417 0.87941 0.17149 0.0
C474 C 0.55458 0.87572 0.04182 0.0
C475 C 0.53644 0.87812 0.03583 0.0
C476 C 0.52709 0.88096 0.0982 0.0
C477 C 0.53605 0.88154 0.16531 0.0
C478 C 0.56492 0.87249 0.97664 0.0
C479 C 0.50778 0.88363 0.094 0.0
C480 C 0.52851 0.89642 0.85411 0.0
C481 C 0.51322 0.87722 0.82334 0.0
C482 C 0.53569 0.89705 0.92421 0.0
C483 C 0.52756 0.87796 0.96398 0.0
C484 C 0.51172 0.85859 0.93358 0.0
C485 C 0.50458 0.8585 0.86375 0.0
C486 C 0.55234 0.91806 0.9551 0.0
C487 C 0.5029 0.83786 0.97382 0.0
H488 H 0.57719 0.87472 0.11375 0.0
H489 H 0.52892 0.88382 0.21291 0.0
H490 H 0.55312 0.85832 0.94644 0.0
H491 H 0.57063 0.88639 0.94043 0.0
H492 H 0.5786 0.87034 0.9906 0.0
H493 H 0.50212 0.88518 0.14762 0.0
H494 H 0.51158 0.89799 0.0622 0.0
H495 H 0.49461 0.86982 0.06627 0.0
H496 H 0.53494 0.91095 0.8231 0.0
H497 H 0.49281 0.84363 0.8397 0.0
H498 H 0.56719 0.91768 0.96535 0.0
H499 H 0.54685 0.92091 0.00712 0.0
H500 H 0.55607 0.9316 0.91887 0.0
H501 H 0.51582 0.83428 0.98447 0.0
H502 H 0.49005 0.82434 0.94379 0.0
H503 H 0.49654 0.83913 0.02635 0.0
C504 C 0.65813 0.53845 0.00119 0.0
C505 C 0.63768 0.52089 0.99221 0.0
C506 C 0.66571 0.54699 0.06905 0.0
C507 C 0.65257 0.5375 0.12925 0.0
C508 C 0.6321 0.51938 0.12069 0.0
C509 C 0.62493 0.51119 0.05198 0.0
C510 C 0.6877 0.56614 0.07629 0.0
C511 C 0.61773 0.50877 0.18401 0.0
C512 C 0.67421 0.54472 0.31715 0.0
C513 C 0.66769 0.55836 0.34616 0.0
C514 C 0.67045 0.53866 0.24516 0.0
C515 C 0.66006 0.54655 0.20142 0.0
C516 C 0.65519 0.56178 0.22873 0.0
C517 C 0.65913 0.56756 0.30091 0.0
C518 C 0.67617 0.52263 0.21751 0.0
C519 C 0.64441 0.5708 0.18318 0.0
H520 H 0.66829 0.54548 0.95503 0.0
H521 H 0.60927 0.49739 0.04479 0.0
H522 H 0.68669 0.57949 0.10103 0.0
H523 H 0.69755 0.56238 0.11212 0.0
H524 H 0.69593 0.57152 0.02396 0.0
H525 H 0.60235 0.49474 0.16823 0.0
H526 H 0.62573 0.50355 0.22286 0.0
H527 H 0.61441 0.52028 0.21195 0.0
H528 H 0.68107 0.53772 0.35159 0.0
H529 H 0.65427 0.57831 0.32273 0.0
H530 H 0.68424 0.52765 0.16492 0.0
H531 H 0.66144 0.50711 0.20968 0.0
H532 H 0.68669 0.5203 0.25507 0.0
H533 H 0.65272 0.57646 0.13122 0.0
H534 H 0.64389 0.58418 0.20995 0.0
H535 H 0.62785 0.55813 0.1716 0.0
C536 C 0.13687 0.65487 0.18625 0.0
C537 C 0.12 0.63659 0.15618 0.0
C538 C 0.13536 0.66115 0.25584 0.0
C539 C 0.11658 0.64868 0.29593 0.0
C540 C 0.09953 0.6301 0.26542 0.0
C541 C 0.1014 0.62436 0.19535 0.0
C542 C 0.15377 0.68113 0.28636 0.0
C543 C 0.0794 0.61625 0.30689 0.0
C544 C 0.12071 0.6528 0.49759 0.0
C545 C 0.1111 0.66496 0.51254 0.0
C546 C 0.12247 0.64728 0.42732 0.0
C547 C 0.11503 0.6547 0.37056 0.0
C548 C 0.10579 0.66749 0.38533 0.0
C549 C 0.10352 0.67211 0.45664 0.0
C550 C 0.1317 0.63298 0.41414 0.0
C551 C 0.09811 0.67603 0.32592 0.0
H552 H 0.1511 0.66437 0.15484 0.0
H553 H 0.08836 0.61034 0.17106 0.0
H554 H 0.1483 0.69223 0.30352 0.0
H555 H 0.16008 0.6772 0.3344 0.0
H556 H 0.16693 0.6894 0.24726 0.0
H557 H 0.06771 0.60228 0.27548 0.0
H558 H 0.08322 0.61051 0.35658 0.0
H559 H 0.07184 0.62563 0.32304 0.0
H560 H 0.12608 0.64685 0.54135 0.0
H561 H 0.09588 0.68131 0.46875 0.0
H562 H 0.14575 0.64102 0.3785 0.0
H563 H 0.11979 0.61824 0.38669 0.0
H564 H 0.13657 0.62845 0.46444 0.0
H565 H 0.11111 0.68495 0.28695 0.0
H566 H 0.09242 0.6867 0.34617 0.0
H567 H 0.08491 0.66267 0.29662 0.0
C568 C 0.42822 0.10722 0.63973 0.0
C569 C 0.44492 0.12065 0.68528 0.0
C570 C 0.43169 0.10696 0.56598 0.0
C571 C 0.45239 0.12007 0.53821 0.0
C572 C 0.46876 0.13492 0.583 0.0
C573 C 0.46472 0.13527 0.65578 0.0
C574 C 0.41363 0.09164 0.51886 0.0
C575 C 0.4911 0.14915 0.55552 0.0
C576 C 0.47333 0.10142 0.38631 0.0
C577 C 0.47429 0.11485 0.33142 0.0
C578 C 0.46513 0.10221 0.45334 0.0
C579 C 0.4578 0.11678 0.46486 0.0
C580 C 0.45804 0.12979 0.40829 0.0
C581 C 0.46647 0.12876 0.34216 0.0
C582 C 0.46518 0.08814 0.51266 0.0
C583 C 0.45026 0.1454 0.41833 0.0
H584 H 0.41279 0.09613 0.66198 0.0
H585 H 0.47764 0.14602 0.69033 0.0
H586 H 0.41366 0.09926 0.46742 0.0
H587 H 0.41563 0.07781 0.50642 0.0
H588 H 0.39795 0.08572 0.54517 0.0
H589 H 0.50154 0.16095 0.59606 0.0
H590 H 0.49823 0.13929 0.54031 0.0
H591 H 0.4909 0.15782 0.50703 0.0
H592 H 0.47937 0.09066 0.37715 0.0
H593 H 0.46738 0.13918 0.29928 0.0
H594 H 0.44908 0.07892 0.53647 0.0
H595 H 0.47617 0.09812 0.55571 0.0
H596 H 0.47024 0.07685 0.49374 0.0
H597 H 0.43477 0.13779 0.44678 0.0
H598 H 0.44843 0.15181 0.36656 0.0
H599 H 0.46178 0.15891 0.45162 0.0
C600 C 0.50568 0.64393 0.30642 0.0
C601 C 0.51744 0.64016 0.35769 0.0
C602 C 0.51241 0.64793 0.23506 0.0
C603 C 0.53136 0.64822 0.21518 0.0
C604 C 0.54324 0.64435 0.26676 0.0
C605 C 0.53591 0.63998 0.3372 0.0
C606 C 0.49907 0.65143 0.18078 0.0
C607 C 0.56352 0.64449 0.24735 0.0
C608 C 0.53745 0.63526 0.02471 0.0
C609 C 0.55024 0.65554 -0.00459 0.0
C610 C 0.53096 0.63272 0.09596 0.0
C611 C 0.53794 0.65092 0.13943 0.0
C612 C 0.55127 0.67146 0.11076 0.0
C613 C 0.55703 0.67356 0.03836 0.0
C614 C 0.51638 0.61058 0.12431 0.0
C615 C 0.55931 0.69113 0.15645 0.0
H616 H 0.49129 0.6439 0.32221 0.0
H617 H 0.54452 0.6361 0.3759 0.0
H618 H 0.50884 0.66682 0.15297 0.0
H619 H 0.49327 0.63877 0.13959 0.0
H620 H 0.48513 0.65138 0.20547 0.0
H621 H 0.57179 0.64299 0.29504 0.0
H622 H 0.55988 0.63113 0.21053 0.0
H623 H 0.57453 0.65943 0.21894 0.0
H624 H 0.5318 0.62128 0.99118 0.0
H625 H 0.56681 0.68923 0.01536 0.0
H626 H 0.50196 0.60963 0.14833 0.0
H627 H 0.52455 0.6068 0.16707 0.0
H628 H 0.51132 0.59825 0.08199 0.0
H629 H 0.54571 0.69243 0.17733 0.0
H630 H 0.57003 0.70587 0.12643 0.0
H631 H 0.56806 0.68996 0.20328 0.0
C632 C 0.88186 0.51151 0.45414 0.0
C633 C 0.87907 0.5213 0.51407 0.0
C634 C 0.88346 0.52009 0.38581 0.0
C635 C 0.88201 0.53874 0.37787 0.0
C636 C 0.87855 0.5483 0.43822 0.0
C637 C 0.87694 0.53932 0.5057 0.0
C638 C 0.88693 0.50936 0.32226 0.0
C639 C 0.87671 0.56804 0.43157 0.0
C640 C 0.90724 0.56814 0.20696 0.0
C641 C 0.88968 0.55934 0.16083 0.0
C642 C 0.90478 0.56268 0.27954 0.0
C643 C 0.88429 0.54819 0.3061 0.0
C644 C 0.86629 0.54097 0.26139 0.0
C645 C 0.8692 0.54671 0.18913 0.0
C646 C 0.9243 0.57103 0.32624 0.0
C647 C 0.84414 0.52573 0.28816 0.0
H648 H 0.88315 0.49737 0.46095 0.0
H649 H 0.87399 0.54641 0.5521 0.0
H650 H 0.87401 0.50489 0.28264 0.0
H651 H 0.90213 0.52053 0.29547 0.0
H652 H 0.88743 0.49483 0.33757 0.0
H653 H 0.87372 0.57331 0.48389 0.0
H654 H 0.89156 0.58119 0.40852 0.0
H655 H 0.86358 0.56509 0.39454 0.0
H656 H 0.92309 0.57813 0.18565 0.0
H657 H 0.85549 0.54012 0.15395 0.0
H658 H 0.92765 0.558 0.33769 0.0
H659 H 0.92163 0.57668 0.37819 0.0
H660 H 0.93855 0.58426 0.30032 0.0
H661 H 0.84239 0.50977 0.2955 0.0
H662 H 0.83171 0.52425 0.25018 0.0
H663 H 0.84131 0.53089 0.34079 0.0
C664 C 0.36767 0.9106 0.35812 0.0
C665 C 0.34767 0.90013 0.32492 0.0
C666 C 0.37003 0.90687 0.42988 0.0
C667 C 0.35188 0.89268 0.46975 0.0
C668 C 0.33149 0.88282 0.43761 0.0
C669 C 0.32965 0.88648 0.36502 0.0
C670 C 0.3921 0.91733 0.46188 0.0
C671 C 0.31176 0.86804 0.47941 0.0
C672 C 0.36085 0.8668 0.63157 0.0
C673 C 0.36116 0.87997 0.68679 0.0
C674 C 0.35766 0.87065 0.56046 0.0
C675 C 0.35441 0.88788 0.54474 0.0
C676 C 0.35477 0.90124 0.60017 0.0
C677 C 0.35866 0.89743 0.67027 0.0
C678 C 0.35806 0.85648 0.50212 0.0
C679 C 0.35138 0.91979 0.58533 0.0
H680 H 0.38172 0.92097 0.32716 0.0
H681 H 0.31419 0.87838 0.33935 0.0
H682 H 0.39262 0.92549 0.51256 0.0
H683 H 0.39638 0.90502 0.47467 0.0
H684 H 0.40433 0.92911 0.42509 0.0
H685 H 0.297 0.86278 0.44783 0.0
H686 H 0.31252 0.85378 0.49614 0.0
H687 H 0.31083 0.87602 0.52875 0.0
H688 H 0.36308 0.85347 0.64398 0.0
H689 H 0.36016 0.90847 0.71164 0.0
H690 H 0.37092 0.8661 0.46343 0.0
H691 H 0.34284 0.84906 0.47216 0.0
H692 H 0.36068 0.84369 0.52343 0.0
H693 H 0.36469 0.93183 0.55251 0.0
H694 H 0.35038 0.92755 0.63519 0.0
H695 H 0.33653 0.91441 0.55427 0.0
C696 C 0.46833 0.36937 0.83295 0.0
C697 C 0.48593 0.36772 0.85444 0.0
C698 C 0.4612 0.36544 0.76214 0.0
C699 C 0.47257 0.36072 0.71101 0.0
C700 C 0.49109 0.36022 0.73141 0.0
C701 C 0.49748 0.36359 0.8032 0.0
C702 C 0.4414 0.36616 0.74221 0.0
C703 C 0.50406 0.35604 0.67754 0.0
C704 C 0.445 0.33258 0.53945 0.0
C705 C 0.4516 0.34982 0.49291 0.0
C706 C 0.45147 0.33591 0.61127 0.0
C707 C 0.46536 0.35687 0.63574 0.0
C708 C 0.47225 0.37427 0.58851 0.0
C709 C 0.46503 0.37054 0.51791 0.0
C710 C 0.44352 0.31706 0.66089 0.0
C711 C 0.48758 0.39677 0.61203 0.0
H712 H 0.46003 0.37371 0.87138 0.0
H713 H 0.51129 0.3626 0.81945 0.0
H714 H 0.44533 0.37885 0.70215 0.0
H715 H 0.42961 0.35087 0.71734 0.0
H716 H 0.4339 0.36917 0.78914 0.0
H717 H 0.51834 0.35671 0.70189 0.0
H718 H 0.49416 0.34013 0.65308 0.0
H719 H 0.50929 0.36791 0.63375 0.0
H720 H 0.43476 0.31658 0.51974 0.0
H721 H 0.47057 0.38389 0.48148 0.0
H722 H 0.43535 0.3193 0.70742 0.0
H723 H 0.45713 0.31581 0.68192 0.0
H724 H 0.43231 0.30189 0.63396 0.0
H725 H 0.48056 0.40139 0.65628 0.0
H726 H 0.49179 0.40843 0.56786 0.0
H727 H 0.50242 0.39785 0.63264 0.0
C728 C 0.12233 0.49177 0.96584 0.0
C729 C 0.12699 0.48264 0.02379 0.0
C730 C 0.12063 0.48366 0.89666 0.0
C731 C 0.12362 0.46602 0.88579 0.0
C732 C 0.12918 0.45732 0.94383 0.0
C733 C 0.13117 0.46602 0.01208 0.0
C734 C 0.11521 0.49369 0.83548 0.0
C735 C 0.13251 0.43854 0.93418 0.0
C736 C 0.09618 0.43521 0.71895 0.0
C737 C 0.11288 0.44415 0.66942 0.0
C738 C 0.09975 0.44114 0.79111 0.0
C739 C 0.12044 0.45651 0.81367 0.0
C740 C 0.13764 0.46426 0.76514 0.0
C741 C 0.13368 0.45782 0.69357 0.0
C742 C 0.08113 0.43209 0.84204 0.0
C743 C 0.15993 0.48069 0.78719 0.0
H744 H 0.11952 0.5049 0.97494 0.0
H745 H 0.13578 0.45964 0.05657 0.0
H746 H 0.12726 0.49841 0.79243 0.0
H747 H 0.09961 0.48197 0.81232 0.0
H748 H 0.11443 0.50794 0.85244 0.0
H749 H 0.13738 0.43409 0.98461 0.0
H750 H 0.11757 0.42463 0.91494 0.0
H751 H 0.14484 0.44212 0.89303 0.0
H752 H 0.08012 0.42443 0.70076 0.0
H753 H 0.14673 0.4647 0.65572 0.0
H754 H 0.07723 0.44459 0.85615 0.0
H755 H 0.08521 0.42685 0.89235 0.0
H756 H 0.06674 0.4184 0.81852 0.0
H757 H 0.16072 0.49621 0.79511 0.0
H758 H 0.17191 0.48276 0.74625 0.0
H759 H 0.16429 0.47631 0.83865 0.0
C760 C 0.67684 0.1168 0.89457 0.0
C761 C 0.65993 0.11017 0.8466 0.0
C762 C 0.6742 0.12031 0.96682 0.0
C763 C 0.65442 0.11766 0.99011 0.0
C764 C 0.63765 0.11175 0.94078 0.0
C765 C 0.64056 0.10787 0.86981 0.0
C766 C 0.69231 0.12638 0.01846 0.0
C767 C 0.61649 0.1092 0.96296 0.0
C768 C 0.6366 0.10409 0.1823 0.0
C769 C 0.6403 0.12369 0.20856 0.0
C770 C 0.64173 0.10207 0.11171 0.0
C771 C 0.6507 0.1201 0.06647 0.0
C772 C 0.65442 0.13995 0.09273 0.0
C773 C 0.64903 0.14148 0.16361 0.0
C774 C 0.63715 0.08054 0.08514 0.0
C775 C 0.66383 0.15946 0.04573 0.0
H776 H 0.69184 0.1187 0.876 0.0
H777 H 0.62765 0.10324 0.83195 0.0
H778 H 0.69619 0.14139 0.04627 0.0
H779 H 0.68748 0.1139 0.06 0.0
H780 H 0.70686 0.12847 0.99145 0.0
H781 H 0.60553 0.10537 0.9169 0.0
H782 H 0.6088 0.0963 0.00307 0.0
H783 H 0.61885 0.12403 0.98831 0.0
H784 H 0.62944 0.09025 0.21681 0.0
H785 H 0.65194 0.15665 0.18426 0.0
H786 H 0.65175 0.08168 0.06198 0.0
H787 H 0.62504 0.07503 0.04202 0.0
H788 H 0.63119 0.0684 0.12824 0.0
H789 H 0.67914 0.16235 0.02279 0.0
H790 H 0.66664 0.1739 0.07531 0.0
H791 H 0.65298 0.15691 0.0003 0.0
C792 C 0.48129 0.60909 0.89646 0.0
C793 C 0.48082 0.60704 0.82172 0.0
C794 C 0.465 0.59373 0.93922 0.0
C795 C 0.44791 0.57571 0.90662 0.0
C796 C 0.44713 0.57367 0.83119 0.0
C797 C 0.46355 0.58944 0.78955 0.0
C798 C 0.46634 0.5966 0.01938 0.0
C799 C 0.42924 0.55454 0.79461 0.0
C800 C 0.41847 0.52531 0.01676 0.0
C801 C 0.39977 0.52537 0.03396 0.0
C802 C 0.43436 0.54172 0.97575 0.0
C803 C 0.43137 0.55853 0.95165 0.0
C804 C 0.41255 0.55877 0.97008 0.0
C805 C 0.39686 0.54204 0.01091 0.0
C806 C 0.45417 0.54087 0.95716 0.0
C807 C 0.40892 0.57653 0.94593 0.0
H808 H 0.49451 0.6227 0.9219 0.0
H809 H 0.4631 0.58772 0.73192 0.0
H810 H 0.45139 0.5952 0.04034 0.0
H811 H 0.4683 0.5839 0.04487 0.0
H812 H 0.47986 0.61225 0.03575 0.0
H813 H 0.43059 0.55567 0.73543 0.0
H814 H 0.42923 0.53992 0.81186 0.0
H815 H 0.41369 0.55274 0.81035 0.0
H816 H 0.42045 0.51218 0.03439 0.0
H817 H 0.3822 0.54183 0.02408 0.0
H818 H 0.46847 0.5554 0.97675 0.0
H819 H 0.45566 0.54043 0.89824 0.0
H820 H 0.45407 0.52676 0.98052 0.0
H821 H 0.42221 0.59206 0.96413 0.0
H822 H 0.39375 0.57469 0.96667 0.0
H823 H 0.40862 0.57699 0.88668 0.0
C824 C 0.88571 0.39907 0.10524 0.0
C825 C 0.87634 0.39421 0.17336 0.0
C826 C 0.88511 0.41457 0.06227 0.0
C827 C 0.87441 0.4251 0.08724 0.0
C828 C 0.86422 0.4197 0.15483 0.0
C829 C 0.86558 0.40452 0.1976 0.0
C830 C 0.89662 0.42021 0.99138 0.0
C831 C 0.85218 0.4302 0.18242 0.0
C832 C 0.89191 0.48081 0.02159 0.0
C833 C 0.8771 0.477 0.96746 0.0
C834 C 0.89146 0.464 0.05971 0.0
C835 C 0.87529 0.4429 0.04515 0.0
C836 C 0.86017 0.43894 0.99068 0.0
C837 C 0.8615 0.45609 0.9514 0.0
C838 C 0.90834 0.46887 0.11552 0.0
C839 C 0.84231 0.41671 0.97526 0.0
H840 H 0.89411 0.39119 0.08624 0.0
H841 H 0.85812 0.40064 0.24984 0.0
H842 H 0.88549 0.41814 0.94747 0.0
H843 H 0.9093 0.43718 0.9916 0.0
H844 H 0.90399 0.41033 0.97944 0.0
H845 H 0.84331 0.42266 0.23235 0.0
H846 H 0.86343 0.44724 0.19339 0.0
H847 H 0.84077 0.42944 0.14144 0.0
H848 H 0.90406 0.49703 0.03354 0.0
H849 H 0.84994 0.45323 0.90993 0.0
H850 H 0.91645 0.45965 0.10441 0.0
H851 H 0.9009 0.46401 0.16909 0.0
H852 H 0.9205 0.48603 0.11735 0.0
H853 H 0.84884 0.40638 0.95963 0.0
H854 H 0.83168 0.41637 0.93193 0.0
H855 H 0.83269 0.40977 0.0243 0.0
C856 C 0.40697 0.86693 0.12623 0.0
C857 C 0.39792 0.87906 0.14871 0.0
C858 C 0.42256 0.86586 0.16765 0.0
C859 C 0.42968 0.87771 0.23191 0.0
C860 C 0.42068 0.8901 0.25455 0.0
C861 C 0.40471 0.89038 0.2132 0.0
C862 C 0.43136 0.852 0.14282 0.0
C863 C 0.42818 0.9034 0.32172 0.0
C864 C 0.45916 0.86471 0.37331 0.0
C865 C 0.48037 0.87874 0.3548 0.0
C866 C 0.44243 0.86378 0.33264 0.0
C867 C 0.44712 0.87783 0.27407 0.0
C868 C 0.46857 0.89229 0.25617 0.0
C869 C 0.48492 0.89227 0.29593 0.0
C870 C 0.41978 0.84761 0.35171 0.0
C871 C 0.47428 0.90802 0.19574 0.0
H872 H 0.4016 0.85797 0.07684 0.0
H873 H 0.39782 0.89985 0.23076 0.0
H874 H 0.44856 0.86195 0.13081 0.0
H875 H 0.42975 0.84079 0.18591 0.0
H876 H 0.42316 0.84273 0.09422 0.0
H877 H 0.42009 0.91278 0.33027 0.0
H878 H 0.42516 0.89304 0.36893 0.0
H879 H 0.44559 0.9145 0.3189 0.0
H880 H 0.45569 0.85413 0.41851 0.0
H881 H 0.50136 0.90325 0.28197 0.0
H882 H 0.41154 0.83767 0.30435 0.0
H883 H 0.41098 0.85578 0.36768 0.0
H884 H 0.41889 0.83704 0.39612 0.0
H885 H 0.46822 0.89947 0.14438 0.0
H886 H 0.49172 0.9188 0.19082 0.0
H887 H 0.46662 0.91779 0.20428 0.0
C888 C 0.51449 0.40971 0.36354 0.0
C889 C 0.51869 0.39686 0.31853 0.0
C890 C 0.53043 0.42504 0.40733 0.0
C891 C 0.5508 0.42691 0.40812 0.0
C892 C 0.55488 0.41341 0.36436 0.0
C893 C 0.53884 0.39878 0.3188 0.0
C894 C 0.52564 0.43961 0.45112 0.0
C895 C 0.57614 0.41439 0.36592 0.0
C896 C 0.59765 0.48033 0.45857 0.0
C897 C 0.60032 0.47763 0.53146 0.0
C898 C 0.58171 0.46392 0.41804 0.0
C899 C 0.56822 0.44407 0.45067 0.0
C900 C 0.57096 0.441 0.5239 0.0
C901 C 0.5869 0.45792 0.56372 0.0
C902 C 0.57905 0.46802 0.34053 0.0
C903 C 0.55707 0.41988 0.56003 0.0
H904 H 0.49876 0.40799 0.36342 0.0
H905 H 0.54182 0.38843 0.28499 0.0
H906 H 0.52903 0.43872 0.5084 0.0
H907 H 0.5361 0.45631 0.43373 0.0
H908 H 0.50881 0.43567 0.44582 0.0
H909 H 0.57613 0.40157 0.33351 0.0
H910 H 0.58868 0.42995 0.34504 0.0
H911 H 0.58048 0.41304 0.42179 0.0
H912 H 0.60783 0.49552 0.43306 0.0
H913 H 0.58893 0.45568 0.61985 0.0
H914 H 0.56269 0.46507 0.33132 0.0
H915 H 0.58126 0.45694 0.3056 0.0
H916 H 0.59055 0.48455 0.32382 0.0
H917 H 0.54021 0.41593 0.55878 0.0
H918 H 0.56173 0.41984 0.61656 0.0
H919 H 0.558 0.40709 0.53071 0.0
C920 C 0.14012 0.5442 0.46629 0.0
C921 C 0.12573 0.52302 0.48411 0.0
C922 C 0.14115 0.56097 0.5069 0.0
C923 C 0.12687 0.55637 0.5647 0.0
C924 C 0.11208 0.53498 0.58194 0.0
C925 C 0.11197 0.51857 0.54225 0.0
C926 C 0.15764 0.58357 0.48855 0.0
C927 C 0.0961 0.52939 0.64154 0.0
C928 C 0.13657 0.59574 0.71391 0.0
C929 C 0.12449 0.60476 0.69063 0.0
C930 C 0.13824 0.5806 0.67191 0.0
C931 C 0.12696 0.57384 0.60646 0.0
C932 C 0.11477 0.58296 0.58277 0.0
C933 C 0.11396 0.59853 0.62463 0.0
C934 C 0.15201 0.5718 0.69764 0.0
C935 C 0.10203 0.57579 0.51437 0.0
H936 H 0.15089 0.5476 0.42168 0.0
H937 H 0.10071 0.50217 0.55566 0.0
H938 H 0.14976 0.59264 0.47244 0.0
H939 H 0.16749 0.59158 0.5363 0.0
H940 H 0.16827 0.58438 0.44447 0.0
H941 H 0.08512 0.51197 0.64615 0.0
H942 H 0.10444 0.53532 0.69329 0.0
H943 H 0.08653 0.53722 0.63224 0.0
H944 H 0.14495 0.60075 0.76445 0.0
H945 H 0.10455 0.60544 0.60651 0.0
H946 H 0.16318 0.5731 0.6548 0.0
H947 H 0.14195 0.55469 0.71063 0.0
H948 H 0.16135 0.5802 0.74593 0.0
H949 H 0.11255 0.5779 0.46846 0.0
H950 H 0.09359 0.5847 0.50315 0.0
H951 H 0.09011 0.5586 0.51788 0.0
C952 C 0.61457 0.13578 0.74444 0.0
C953 C 0.60885 0.12628 0.6767 0.0
C954 C 0.59952 0.13674 0.789 0.0
C955 C 0.57813 0.12739 0.76608 0.0
C956 C 0.57223 0.11749 0.69809 0.0
C957 C 0.58776 0.11741 0.65362 0.0
C958 C 0.6066 0.14809 0.8599 0.0
C959 C 0.54939 0.10646 0.67313 0.0
C960 C 0.53442 0.11186 0.9046 0.0
C961 C 0.52821 0.12693 0.89133 0.0
C962 C 0.5508 0.11187 0.86461 0.0
C963 C 0.56181 0.12795 0.81272 0.0
C964 C 0.55637 0.14397 0.80251 0.0
C965 C 0.53929 0.14296 0.84081 0.0
C966 C 0.55584 0.09431 0.87687 0.0
C967 C 0.56815 0.16179 0.74961 0.0
H968 H 0.63091 0.14268 0.76229 0.0
H969 H 0.58327 0.10974 0.60179 0.0
H970 H 0.60447 0.16219 0.85954 0.0
H971 H 0.59666 0.1376 0.90387 0.0
H972 H 0.62354 0.15342 0.87166 0.0
H973 H 0.54728 0.09869 0.62027 0.0
H974 H 0.53911 0.09422 0.71273 0.0
H975 H 0.54373 0.11806 0.66916 0.0
H976 H 0.52566 0.09936 0.9433 0.0
H977 H 0.53439 0.15459 0.83071 0.0
H978 H 0.57053 0.10057 0.9092 0.0
H979 H 0.5586 0.0884 0.82558 0.0
H980 H 0.5429 0.08069 0.90626 0.0
H981 H 0.58557 0.16929 0.758 0.0
H982 H 0.56357 0.17423 0.75402 0.0
H983 H 0.56472 0.15537 0.69441 0.0
C984 C 0.268 0.46808 0.15514 0.0
C985 C 0.27999 0.46358 0.20329 0.0
C986 C 0.24913 0.46729 0.17689 0.0
C987 C 0.24234 0.46223 0.24879 0.0
C988 C 0.25427 0.45742 0.29739 0.0
C989 C 0.27288 0.45798 0.27382 0.0
C990 C 0.2367 0.47232 0.12336 0.0
C991 C 0.24766 0.45215 0.37461 0.0
C992 C 0.20701 0.48277 0.31948 0.0
C993 C 0.18696 0.46449 0.31639 0.0
C994 C 0.22525 0.48215 0.29883 0.0
C995 C 0.22321 0.46282 0.27378 0.0
C996 C 0.20291 0.44423 0.27144 0.0
C997 C 0.18496 0.44528 0.29328 0.0
C998 C 0.24665 0.50223 0.30296 0.0
C999 C 0.20011 0.4234 0.2444 0.0
H1000 H 0.27364 0.47272 0.10088 0.0
H1001 H 0.28199 0.45419 0.31083 0.0
H1002 H 0.21989 0.45928 0.12198 0.0
H1003 H 0.23668 0.48699 0.13966 0.0
H1004 H 0.24342 0.47465 0.06858 0.0
H1005 H 0.25849 0.44839 0.40517 0.0
H1006 H 0.2475 0.46579 0.40065 0.0
H1007 H 0.23128 0.43836 0.37794 0.0
H1008 H 0.20834 0.49758 0.3375 0.0
H1009 H 0.1693 0.43123 0.2908 0.0
H1010 H 0.25366 0.50682 0.24872 0.0
H1011 H 0.25774 0.49946 0.33593 0.0
H1012 H 0.24556 0.51572 0.32625 0.0
H1013 H 0.20553 0.42521 0.18807 0.0
H1014 H 0.1833 0.41035 0.24724 0.0
H1015 H 0.21007 0.41877 0.27603 0.0
C1016 C 0.80296 0.26425 0.31892 0.0
C1017 C 0.81901 0.27753 0.3666 0.0
C1018 C 0.78501 0.24558 0.34299 0.0
C1019 C 0.78304 0.24028 0.41656 0.0
C1020 C 0.79942 0.25349 0.46463 0.0
C1021 C 0.81728 0.27187 0.43891 0.0
C1022 C 0.76792 0.23182 0.29005 0.0
C1023 C 0.79785 0.24847 0.54349 0.0
C1024 C 0.72727 0.20557 0.48931 0.0
C1025 C 0.72599 0.18574 0.49307 0.0
C1026 C 0.74585 0.22352 0.46511 0.0
C1027 C 0.76345 0.22144 0.4438 0.0
C1028 C 0.76226 0.2014 0.44844 0.0
C1029 C 0.7435 0.18374 0.47347 0.0
C1030 C 0.74657 0.24464 0.46166 0.0
C1031 C 0.78063 0.19856 0.42573 0.0
H1032 H 0.80414 0.26875 0.26317 0.0
H1033 H 0.82987 0.28196 0.47562 0.0
H1034 H 0.76453 0.21516 0.29357 0.0
H1035 H 0.75296 0.23172 0.30307 0.0
H1036 H 0.77247 0.23746 0.23417 0.0
H1037 H 0.81221 0.26012 0.57344 0.0
H1038 H 0.78376 0.24845 0.56652 0.0
H1039 H 0.79561 0.23235 0.55173 0.0
H1040 H 0.71361 0.20694 0.50468 0.0
H1041 H 0.74229 0.16827 0.47615 0.0
H1042 H 0.74917 0.25045 0.40569 0.0
H1043 H 0.76013 0.25664 0.49377 0.0
H1044 H 0.73169 0.24362 0.48172 0.0
H1045 H 0.78434 0.20289 0.36855 0.0
H1046 H 0.7772 0.18197 0.43322 0.0
H1047 H 0.79506 0.20935 0.45685 0.0
C1048 C 0.55318 0.82043 0.59036 0.0
C1049 C 0.53902 0.81829 0.53601 0.0
C1050 C 0.55459 0.80283 0.61374 0.0
C1051 C 0.54109 0.78262 0.58305 0.0
C1052 C 0.52675 0.78048 0.52795 0.0
C1053 C 0.52605 0.79846 0.50453 0.0
C1054 C 0.57037 0.80581 0.67146 0.0
C1055 C 0.51183 0.75913 0.49492 0.0
C1056 C 0.55386 0.73808 0.59631 0.0
C1057 C 0.54092 0.72627 0.65341 0.0
C1058 C 0.55464 0.75692 0.57434 0.0
C1059 C 0.54169 0.76362 0.60923 0.0
C1060 C 0.52873 0.75173 0.66755 0.0
C1061 C 0.52868 0.73324 0.68949 0.0
C1062 C 0.56901 0.76942 0.51306 0.0
C1063 C 0.51437 0.75813 0.70506 0.0
H1064 H 0.5631 0.8359 0.61453 0.0
H1065 H 0.515 0.79698 0.46289 0.0
H1066 H 0.56186 0.79643 0.71942 0.0
H1067 H 0.58092 0.79982 0.65276 0.0
H1068 H 0.58038 0.82273 0.68733 0.0
H1069 H 0.50156 0.76019 0.45298 0.0
H1070 H 0.52103 0.75228 0.47079 0.0
H1071 H 0.5015 0.74792 0.53689 0.0
H1072 H 0.56321 0.73245 0.56856 0.0
H1073 H 0.51854 0.7238 0.73319 0.0
H1074 H 0.57943 0.78625 0.52902 0.0
H1075 H 0.55931 0.76931 0.4671 0.0
H1076 H 0.57916 0.76285 0.49511 0.0
H1077 H 0.5238 0.77458 0.72581 0.0
H1078 H 0.50558 0.74736 0.75024 0.0
H1079 H 0.50267 0.75795 0.66649 0.0
C1080 C 0.798 0.51794 0.76294 0.0
C1081 C 0.81296 0.53332 0.80922 0.0
C1082 C 0.77993 0.51867 0.74103 0.0
C1083 C 0.77561 0.53398 0.77138 0.0
C1084 C 0.79005 0.54882 0.82153 0.0
C1085 C 0.80893 0.54881 0.83761 0.0
C1086 C 0.76569 0.50298 0.68513 0.0
C1087 C 0.78587 0.56483 0.85863 0.0
C1088 C 0.73817 0.54981 0.68475 0.0
C1089 C 0.71833 0.53389 0.70962 0.0
C1090 C 0.75689 0.5497 0.70261 0.0
C1091 C 0.75592 0.53423 0.75108 0.0
C1092 C 0.73597 0.51859 0.7785 0.0
C1093 C 0.71741 0.51806 0.7548 0.0
C1094 C 0.77754 0.56615 0.669 0.0
C1095 C 0.73387 0.50225 0.8328 0.0
H1096 H 0.80051 0.50539 0.74271 0.0
H1097 H 0.8205 0.56097 0.87266 0.0
H1098 H 0.75328 0.48841 0.71191 0.0
H1099 H 0.75775 0.50954 0.65145 0.0
H1100 H 0.77483 0.49818 0.64962 0.0
H1101 H 0.79293 0.56842 0.91308 0.0
H1102 H 0.79354 0.57992 0.82801 0.0
H1103 H 0.76863 0.55925 0.86336 0.0
H1104 H 0.73912 0.56233 0.65077 0.0
H1105 H 0.70212 0.50524 0.77245 0.0
H1106 H 0.7884 0.55979 0.65925 0.0
H1107 H 0.78564 0.58002 0.70526 0.0
H1108 H 0.77473 0.57193 0.61742 0.0
H1109 H 0.73081 0.48756 0.80465 0.0
H1110 H 0.72013 0.49791 0.86885 0.0
H1111 H 0.74837 0.50793 0.86605 0.0
C1112 C 0.25953 0.81749 0.97315 0.0
C1113 C 0.27655 0.81512 -0.00384 0.0
C1114 C 0.24028 0.79974 0.95183 0.0
C1115 C 0.23812 0.77926 0.95444 0.0
C1116 C 0.25514 0.77682 0.98007 0.0
C1117 C 0.27424 0.79486 0.00029 0.0
C1118 C 0.22256 0.80297 0.92436 0.0
C1119 C 0.25337 0.75523 0.98446 0.0
C1120 C 0.18346 0.72978 0.95052 0.0
C1121 C 0.18239 0.72288 0.87991 0.0
C1122 C 0.20134 0.74834 0.97531 0.0
C1123 C 0.2184 0.7604 0.92794 0.0
C1124 C 0.21706 0.75389 0.85583 0.0
C1125 C 0.19908 0.73512 0.83276 0.0
C1126 C 0.20222 0.75469 0.05262 0.0
C1127 C 0.23486 0.76644 0.80355 0.0
H1128 H 0.26154 0.83329 0.96978 0.0
H1129 H 0.28755 0.79321 0.01825 0.0
H1130 H 0.21936 0.79811 0.86742 0.0
H1131 H 0.20768 0.7928 0.95443 0.0
H1132 H 0.22643 0.81979 0.92879 0.0
H1133 H 0.26764 0.75597 0.00917 0.0
H1134 H 0.23916 0.74421 0.01619 0.0
H1135 H 0.25128 0.74838 0.93008 0.0
H1136 H 0.17038 0.72046 0.98671 0.0
H1137 H 0.19837 0.72968 0.77836 0.0
H1138 H 0.20528 0.77123 0.05628 0.0
H1139 H 0.21558 0.75429 0.07991 0.0
H1140 H 0.18727 0.74404 0.08176 0.0
H1141 H 0.23882 0.7833 0.80281 0.0
H1142 H 0.23075 0.75999 0.74837 0.0
H1143 H 0.24937 0.7662 0.82064 0.0
C1144 C 0.44834 0.25828 0.17867 0.0
C1145 C 0.4653 0.27813 0.15848 0.0
C1146 C 0.44844 0.23945 0.16256 0.0
C1147 C 0.4652 0.24042 0.12067 0.0
C1148 C 0.48228 0.26049 0.09971 0.0
C1149 C 0.48259 0.27902 0.12205 0.0
C1150 C 0.43041 0.21872 0.19026 0.0
C1151 C 0.50029 0.26274 0.05304 0.0
C1152 C 0.4804 0.19763 0.10545 0.0
C1153 C 0.46628 0.1842 0.05304 0.0
C1154 C 0.47926 0.21512 0.13128 0.0
C1155 C 0.46506 0.22066 0.09881 0.0
C1156 C 0.45144 0.20773 0.04321 0.0
C1157 C 0.45164 0.1892 0.02314 0.0
C1158 C 0.49344 0.22744 0.19321 0.0
C1159 C 0.43663 0.21324 0.00413 0.0
H1160 H 0.43484 0.25736 0.20667 0.0
H1161 H 0.49626 0.29431 0.10914 0.0
H1162 H 0.41667 0.21302 0.15337 0.0
H1163 H 0.43485 0.20621 0.19521 0.0
H1164 H 0.42503 0.22103 0.24341 0.0
H1165 H 0.50684 0.27739 0.01999 0.0
H1166 H 0.51337 0.26416 0.08744 0.0
H1167 H 0.49525 0.24895 0.01676 0.0
H1168 H 0.49232 0.1944 0.12727 0.0
H1169 H 0.44039 0.17875 0.98347 0.0
H1170 H 0.48763 0.23679 0.22267 0.0
H1171 H 0.5097 0.2384 0.17302 0.0
H1172 H 0.49476 0.21646 0.23154 0.0
H1173 H 0.42112 0.20587 0.03227 0.0
H1174 H 0.43359 0.20685 0.94876 0.0
H1175 H 0.44304 0.23066 0.0014 0.0
C1176 C 0.36623 0.41187 0.09553 0.0
C1177 C 0.37318 0.42953 0.14085 0.0
C1178 C 0.37511 0.3986 0.09982 0.0
C1179 C 0.39149 0.40328 0.14991 0.0
C1180 C 0.39827 0.42083 0.19663 0.0
C1181 C 0.38894 0.43363 0.19187 0.0
C1182 C 0.36727 0.37982 0.04992 0.0
C1183 C 0.41584 0.42646 0.25037 0.0
C1184 C 0.40775 0.36353 0.2093 0.0
C1185 C 0.4265 0.37022 0.16991 0.0
C1186 C 0.3955 0.3734 0.20055 0.0
C1187 C 0.40231 0.39051 0.15193 0.0
C1188 C 0.42065 0.39668 0.10965 0.0
C1189 C 0.43244 0.38637 0.11882 0.0
C1190 C 0.37581 0.36614 0.24565 0.0
C1191 C 0.4285 0.41495 0.0575 0.0
H1192 H 0.35397 0.40851 0.05624 0.0
H1193 H 0.39444 0.44724 0.22706 0.0
H1194 H 0.38025 0.38214 0.0132 0.0
H1195 H 0.36258 0.36509 0.08081 0.0
H1196 H 0.35347 0.37752 0.01741 0.0
H1197 H 0.41895 0.44036 0.28381 0.0
H1198 H 0.4117 0.41274 0.28607 0.0
H1199 H 0.43075 0.43016 0.22213 0.0
H1200 H 0.40293 0.35093 0.24843 0.0
H1201 H 0.44685 0.39162 0.0879 0.0
H1202 H 0.36224 0.36379 0.21192 0.0
H1203 H 0.37866 0.37856 0.28566 0.0
H1204 H 0.37129 0.35109 0.27445 0.0
H1205 H 0.41549 0.41276 0.02116 0.0
H1206 H 0.44203 0.41667 0.02472 0.0
H1207 H 0.43375 0.42999 0.08726 0.0
C1208 C 0.95809 0.36574 0.26987 0.0
C1209 C 0.94612 0.372 0.31174 0.0
C1210 C 0.98027 0.37559 0.27763 0.0
C1211 C 0.99072 0.39222 0.32793 0.0
C1212 C 0.97867 0.39821 0.37164 0.0
C1213 C 0.95654 0.38797 0.36328 0.0
C1214 C 0.99257 0.3686 0.23076 0.0
C1215 C 0.98925 0.41596 0.42565 0.0
C1216 C 0.0471 0.41106 0.39119 0.0
C1217 C 0.05878 0.42953 0.35019 0.0
C1218 C 0.025 0.39826 0.38263 0.0
C1219 C 0.01433 0.40422 0.3325 0.0
C1220 C 0.0261 0.42248 0.28951 0.0
C1221 C 0.04819 0.43484 0.29858 0.0
C1222 C 0.013 0.37872 0.42869 0.0
C1223 C 0.01528 0.42945 0.23578 0.0
H1224 H 0.95019 0.35334 0.23017 0.0
H1225 H 0.94746 0.39291 0.39602 0.0
H1226 H 0.00301 0.38169 0.19403 0.0
H1227 H 0.003 0.36492 0.26394 0.0
H1228 H 0.98195 0.35437 0.1983 0.0
H1229 H 0.97754 0.41813 0.4574 0.0
H1230 H 0.99917 0.41271 0.46288 0.0
H1231 H 0.99997 0.4311 0.39777 0.0
H1232 H 0.05516 0.40674 0.43086 0.0
H1233 H 0.05705 0.44907 0.2666 0.0
H1234 H 0.00276 0.36468 0.39503 0.0
H1235 H 0.0024 0.38097 0.46594 0.0
H1236 H 0.02382 0.37526 0.46059 0.0
H1237 H 0.00547 0.41626 0.19846 0.0
H1238 H 0.02682 0.44344 0.20412 0.0
H1239 H 0.00441 0.43362 0.26394 0.0
C1240 C 0.63915 0.04589 0.57101 0.0
C1241 C 0.63217 0.05761 0.53108 0.0
C1242 C 0.62922 0.02369 0.56422 0.0
C1243 C 0.61174 0.01298 0.5172 0.0
C1244 C 0.60502 0.02478 0.4753 0.0
C1245 C 0.61543 0.04695 0.48232 0.0
C1246 C 0.63705 0.01166 0.60879 0.0
C1247 C 0.58631 0.01392 0.42497 0.0
C1248 C 0.59152 0.95642 0.454 0.0
C1249 C 0.57362 0.94498 0.49783 0.0
C1250 C 0.60466 0.97849 0.46177 0.0
C1251 C 0.59967 0.98937 0.51407 0.0
C1252 C 0.58212 0.97782 0.56026 0.0
C1253 C 0.56939 0.95575 0.55185 0.0
C1254 C 0.62345 0.99024 0.41234 0.0
C1255 C 0.57622 0.98887 0.61653 0.0
H1256 H 0.65216 0.05401 0.6085 0.0
H1257 H 0.6099 0.05584 0.45127 0.0
H1258 H 0.6247 0.00155 0.64827 0.0
H1259 H 0.63998 0.00094 0.57442 0.0
H1260 H 0.65192 0.02246 0.63808 0.0
H1261 H 0.58355 0.02544 0.39445 0.0
H1262 H 0.58887 0.0038 0.3865 0.0
H1263 H 0.5717 0.00335 0.45576 0.0
H1264 H 0.59505 0.94823 0.41253 0.0
H1265 H 0.55566 0.94706 0.5862 0.0
H1266 H 0.63801 0.00071 0.44347 0.0
H1267 H 0.62055 0.00056 0.37586 0.0
H1268 H 0.62643 0.97925 0.37952 0.0
H1269 H 0.59012 0.99889 0.65103 0.0
H1270 H 0.5629 0.97747 0.65093 0.0
H1271 H 0.57145 0.99956 0.59034 0.0
C1272 C 0.6349 0.59056 0.60579 0.0
C1273 C 0.62743 0.57276 0.65076 0.0
C1274 C 0.62595 0.60379 0.60801 0.0
C1275 C 0.60901 0.59898 0.65581 0.0
C1276 C 0.6017 0.5813 0.70221 0.0
C1277 C 0.61103 0.56848 0.6993 0.0
C1278 C 0.63431 0.62267 0.55835 0.0
C1279 C 0.58357 0.57555 0.75369 0.0
C1280 C 0.59251 0.63865 0.71349 0.0
C1281 C 0.57402 0.63211 0.67277 0.0
C1282 C 0.60481 0.62881 0.70557 0.0
C1283 C 0.59833 0.61189 0.65635 0.0
C1284 C 0.58031 0.60594 0.61254 0.0
C1285 C 0.56844 0.61621 0.62099 0.0
C1286 C 0.62412 0.63581 0.75243 0.0
C1287 C 0.57284 0.5879 0.55962 0.0
H1288 H 0.6476 0.59402 0.56822 0.0
H1289 H 0.60501 0.55469 0.73386 0.0
H1290 H 0.62167 0.6205 0.52024 0.0
H1291 H 0.6388 0.63736 0.58925 0.0
H1292 H 0.64836 0.62495 0.52738 0.0
H1293 H 0.58008 0.56154 0.78718 0.0
H1294 H 0.58738 0.58917 0.78947 0.0
H1295 H 0.56899 0.57198 0.72357 0.0
H1296 H 0.59709 0.65107 0.75312 0.0
H1297 H 0.55425 0.61112 0.58902 0.0
H1298 H 0.63794 0.63818 0.71999 0.0
H1299 H 0.62089 0.62324 0.79229 0.0
H1300 H 0.6285 0.65079 0.78149 0.0
H1301 H 0.58618 0.59009 0.52495 0.0
H1302 H 0.55974 0.58652 0.52518 0.0
H1303 H 0.56709 0.5727 0.58887 0.0
C1304 C 0.04479 0.63708 0.78582 0.0
C1305 C 0.05619 0.63016 0.82781 0.0
C1306 C 0.02262 0.62768 0.79237 0.0
C1307 C 0.0116 0.6108 0.84138 0.0
C1308 C 0.0231 0.60434 0.88592 0.0
C1309 C 0.04526 0.61419 0.87893 0.0
C1310 C 0.01092 0.63523 0.74482 0.0
C1311 C 0.01191 0.58629 0.93849 0.0
C1312 C 0.95405 0.59056 0.89425 0.0
C1313 C 0.94333 0.57257 0.85039 0.0
C1314 C 0.97625 0.60369 0.89016 0.0
C1315 C 0.98796 0.59854 0.84171 0.0
C1316 C 0.97716 0.58076 0.79597 0.0
C1317 C 0.95501 0.56806 0.80066 0.0
C1318 C 0.98721 0.62271 0.93903 0.0
C1319 C 0.98909 0.57461 0.74392 0.0
H1320 H 0.05311 0.64954 0.74664 0.0
H1321 H 0.0539 0.60877 0.91184 0.0
H1322 H 0.00132 0.62273 0.70506 0.0
H1323 H 0.99976 0.63814 0.77681 0.0
H1324 H 0.02195 0.65003 0.71564 0.0
H1325 H 0.02325 0.58417 0.97257 0.0
H1326 H 0.00124 0.58908 0.97358 0.0
H1327 H 0.00186 0.57125 0.90904 0.0
H1328 H 0.94515 0.59422 0.9326 0.0
H1329 H 0.94694 0.55413 0.76689 0.0
H1330 H 0.99792 0.63716 0.90781 0.0
H1331 H 0.99722 0.62017 0.97811 0.0
H1332 H 0.97571 0.62565 0.96895 0.0
H1333 H 0.99927 0.58822 0.70857 0.0
H1334 H 0.97824 0.56085 0.71002 0.0
H1335 H 0.99972 0.57044 0.7737 0.0
C1336 C 0.42965 0.04328 0.02841 0.0
C1337 C 0.42875 0.05573 0.97261 0.0
C1338 C 0.41664 0.02115 0.02855 0.0
C1339 C 0.40208 0.01109 0.97192 0.0
C1340 C 0.40051 0.02352 0.91652 0.0
C1341 C 0.41398 0.04573 0.91723 0.0
C1342 C 0.41896 0.00849 0.08849 0.0
C1343 C 0.38488 0.01334 0.85599 0.0
C1344 C 0.38767 0.95365 0.94817 0.0
C1345 C 0.36958 0.94316 0.99167 0.0
C1346 C 0.39776 0.97571 0.9377 0.0
C1347 C 0.38929 0.98747 0.97029 0.0
C1348 C 0.37009 0.97671 0.00959 0.0
C1349 C 0.3606 0.9547 0.02054 0.0
C1350 C 0.41836 0.98659 0.89624 0.0
C1351 C 0.36027 0.9886 0.04367 0.0
H1352 H 0.44098 0.05076 0.07148 0.0
H1353 H 0.41311 0.05521 0.87404 0.0
H1354 H 0.40348 0.99876 0.11584 0.0
H1355 H 0.42384 0.99739 0.0664 0.0
H1356 H 0.43091 0.01879 0.12888 0.0
H1357 H 0.3844 0.02531 0.82027 0.0
H1358 H 0.3893 0.00333 0.82368 0.0
H1359 H 0.36868 0.00275 0.87743 0.0
H1360 H 0.39469 0.94483 0.92555 0.0
H1361 H 0.34644 0.94663 0.05339 0.0
H1362 H 0.43172 0.99604 0.93349 0.0
H1363 H 0.41808 0.99777 0.85647 0.0
H1364 H 0.42159 0.97506 0.86795 0.0
H1365 H 0.36994 0.99767 0.09046 0.0
H1366 H 0.34375 0.97771 0.06212 0.0
H1367 H 0.36009 1.00022 0.00554 0.0
loop_
_geom_bond_atom_site_label_1
_geom_bond_atom_site_label_2
_geom_bond_distance
_geom_bond_site_symmetry_2
_ccdc_geom_bond_type
Co0 O3 1.970 . S
Co0 N17 1.989 . S
Co0 O25 1.967 . S
Co0 O32 1.920 1_554 S
Co1 O4 1.966 . S
Co1 N10 2.022 . S
Co1 N18 1.993 . S
Co1 O26 1.941 . S
C2 O3 1.258 . S
C2 O4 1.263 . S
O3 Co0 1.970 . S
O3 C2 1.258 . S
O4 Co1 1.966 . S
O4 C2 1.263 . S
C5 O6 1.235 . S
C5 O32 1.289 . S
O6 C5 1.235 . S
C7 C9 1.400 . S
C7 N10 1.351 . S
C7 C12 1.501 . S
C8 C9 1.387 . S
C8 N11 1.341 . S
C9 C7 1.400 . S
C9 C8 1.387 . S
N10 Co1 2.022 . S
N10 C7 1.351 . S
N10 N11 1.365 . S
N11 C8 1.341 . S
N11 N10 1.365 . S
N11 H31 0.862 . S
C12 C7 1.501 . S
C12 H13 0.961 . S
C12 H14 0.961 . S
C12 H15 0.960 . S
H13 C12 0.961 . S
H14 C12 0.961 . S
H15 C12 0.960 . S
C16 N17 1.342 . S
C16 C20 1.401 . S
C16 C21 1.499 . S
N17 Co0 1.989 . S
N17 C16 1.342 . S
N17 N18 1.388 . S
N18 Co1 1.993 . S
N18 N17 1.388 . S
N18 C19 1.346 . S
C19 N18 1.346 . S
C19 C20 1.396 . S
C19 C29 1.510 . S
C20 C16 1.401 . S
C20 C19 1.396 . S
C21 C16 1.499 . S
C21 H22 0.959 1_554 S
C21 H23 0.960 . S
C21 H24 0.961 . S
H22 C21 0.959 1_556 S
H23 C21 0.960 . S
H24 C21 0.961 . S
O25 Co0 1.967 . S
O25 C33 1.258 . S
O26 Co1 1.941 . S
O26 C33 1.266 . S
H27 C29 0.959 . S
H28 C29 0.961 . S
C29 C19 1.510 . S
C29 H27 0.959 . S
C29 H28 0.961 . S
C29 H30 0.960 . S
H30 C29 0.960 . S
H31 N11 0.862 . S
O32 Co0 1.920 1_556 S
O32 C5 1.289 . S
C33 O25 1.258 . S
C33 O26 1.266 . S
Co34 O37 1.970 . S
Co34 N51 1.989 . S
Co34 O59 1.967 . S
Co34 O66 1.920 . S
Co35 O38 1.966 . S
Co35 N44 2.022 . S
Co35 N52 1.993 . S
Co35 O60 1.941 . S
C36 O37 1.258 . S
C36 O38 1.263 . S
O37 Co34 1.970 . S
O37 C36 1.258 . S
O38 Co35 1.966 . S
O38 C36 1.263 . S
C39 O40 1.235 . S
C39 O66 1.289 . S
O40 C39 1.235 . S
C41 C43 1.400 . S
C41 N44 1.351 . S
C41 C46 1.501 . S
C42 C43 1.387 . S
C42 N45 1.341 . S
C43 C41 1.400 . S
C43 C42 1.387 . S
N44 Co35 2.022 . S
N44 C41 1.351 . S
N44 N45 1.365 . S
N45 C42 1.341 . S
N45 N44 1.365 . S
N45 H65 0.862 . S
C46 C41 1.501 . S
C46 H47 0.961 . S
C46 H48 0.961 . S
C46 H49 0.960 . S
H47 C46 0.961 . S
H48 C46 0.961 . S
H49 C46 0.960 . S
C50 N51 1.342 . S
C50 C54 1.401 . S
C50 C55 1.499 . S
N51 Co34 1.989 . S
N51 C50 1.342 . S
N51 N52 1.388 . S
N52 Co35 1.993 . S
N52 N51 1.388 . S
N52 C53 1.346 . S
C53 N52 1.346 . S
C53 C54 1.396 . S
C53 C63 1.510 . S
C54 C50 1.401 . S
C54 C53 1.396 . S
C55 C50 1.499 . S
C55 H56 0.959 . S
C55 H57 0.960 . S
C55 H58 0.961 . S
H56 C55 0.959 . S
H57 C55 0.960 . S
H58 C55 0.961 . S
O59 Co34 1.967 . S
O59 C67 1.258 . S
O60 Co35 1.941 . S
O60 C67 1.266 . S
H61 C63 0.959 . S
H62 C63 0.961 . S
C63 C53 1.510 . S
C63 H61 0.959 . S
C63 H62 0.961 . S
C63 H64 0.960 . S
H64 C63 0.960 . S
H65 N45 0.862 . S
O66 Co34 1.920 . S
O66 C39 1.289 . S
C67 O59 1.258 . S
C67 O60 1.266 . S
Co68 O71 1.970 . S
Co68 N85 1.989 . S
Co68 O93 1.967 . S
Co68 O100 1.920 . S
Co69 O72 1.966 . S
Co69 N78 2.022 . S
Co69 N86 1.993 . S
Co69 O94 1.941 . S
C70 O71 1.258 . S
C70 O72 1.263 . S
O71 Co68 1.970 . S
O71 C70 1.258 . S
O72 Co69 1.966 . S
O72 C70 1.263 . S
C73 O74 1.235 . S
C73 O100 1.289 . S
O74 C73 1.235 . S
C75 C77 1.400 . S
C75 N78 1.351 . S
C75 C80 1.501 . S
C76 C77 1.387 . S
C76 N79 1.341 . S
C77 C75 1.400 . S
C77 C76 1.387 . S
N78 Co69 2.022 . S
N78 C75 1.351 . S
N78 N79 1.365 . S
N79 C76 1.341 . S
N79 N78 1.365 . S
N79 H99 0.862 . S
C80 C75 1.501 . S
C80 H81 0.961 . S
C80 H82 0.961 . S
C80 H83 0.960 . S
H81 C80 0.961 . S
H82 C80 0.961 . S
H83 C80 0.960 . S
C84 N85 1.342 . S
C84 C88 1.401 . S
C84 C89 1.499 . S
N85 Co68 1.989 . S
N85 C84 1.342 . S
N85 N86 1.388 . S
N86 Co69 1.993 . S
N86 N85 1.388 . S
N86 C87 1.346 . S
C87 N86 1.346 . S
C87 C88 1.396 . S
C87 C97 1.510 . S
C88 C84 1.401 . S
C88 C87 1.396 . S
C89 C84 1.499 . S
C89 H90 0.959 . S
C89 H91 0.960 . S
C89 H92 0.961 . S
H90 C89 0.959 . S
H91 C89 0.960 . S
H92 C89 0.961 . S
O93 Co68 1.967 . S
O93 C101 1.258 . S
O94 Co69 1.941 . S
O94 C101 1.266 . S
H95 C97 0.959 . S
H96 C97 0.961 . S
C97 C87 1.510 . S
C97 H95 0.959 . S
C97 H96 0.961 . S
C97 H98 0.960 . S
H98 C97 0.960 . S
H99 N79 0.862 . S
O100 Co68 1.920 . S
O100 C73 1.289 . S
C101 O93 1.258 . S
C101 O94 1.266 . S
Co102 O105 1.970 . S
Co102 N119 1.989 . S
Co102 O127 1.967 . S
Co102 O134 1.920 . S
Co103 O106 1.966 . S
Co103 N112 2.022 . S
Co103 N120 1.993 . S
Co103 O128 1.941 . S
C104 O105 1.258 . S
C104 O106 1.263 . S
O105 Co102 1.970 . S
O105 C104 1.258 . S
O106 Co103 1.966 . S
O106 C104 1.263 . S
C107 O108 1.235 . S
C107 O134 1.289 . S
O108 C107 1.235 . S
C109 C111 1.400 . S
C109 N112 1.351 . S
C109 C114 1.501 . S
C110 C111 1.387 . S
C110 N113 1.341 . S
C111 C109 1.400 . S
C111 C110 1.387 . S
N112 Co103 2.022 . S
N112 C109 1.351 . S
N112 N113 1.365 . S
N113 C110 1.341 . S
N113 N112 1.365 . S
N113 H133 0.862 . S
C114 C109 1.501 . S
C114 H115 0.961 . S
C114 H116 0.961 . S
C114 H117 0.960 . S
H115 C114 0.961 . S
H116 C114 0.961 . S
H117 C114 0.960 . S
C118 N119 1.342 . S
C118 C122 1.401 . S
C118 C123 1.499 . S
N119 Co102 1.989 . S
N119 C118 1.342 . S
N119 N120 1.388 . S
N120 Co103 1.993 . S
N120 N119 1.388 . S
N120 C121 1.346 . S
C121 N120 1.346 . S
C121 C122 1.396 . S
C121 C131 1.510 . S
C122 C118 1.401 . S
C122 C121 1.396 . S
C123 C118 1.499 . S
C123 H124 0.959 . S
C123 H125 0.960 . S
C123 H126 0.961 . S
H124 C123 0.959 . S
H125 C123 0.960 . S
H126 C123 0.961 . S
O127 Co102 1.967 . S
O127 C135 1.258 . S
O128 Co103 1.941 . S
O128 C135 1.266 . S
H129 C131 0.959 . S
H130 C131 0.961 . S
C131 C121 1.510 . S
C131 H129 0.959 . S
C131 H130 0.961 . S
C131 H132 0.960 . S
H132 C131 0.960 . S
H133 N113 0.862 . S
O134 Co102 1.920 . S
O134 C107 1.289 . S
C135 O127 1.258 . S
C135 O128 1.266 . S
Co136 O139 1.970 . S
Co136 N153 1.989 . S
Co136 O161 1.967 . S
Co136 O168 1.920 . S
Co137 O140 1.966 . S
Co137 N146 2.022 . S
Co137 N154 1.993 . S
Co137 O162 1.941 . S
C138 O139 1.258 . S
C138 O140 1.263 . S
O139 Co136 1.970 . S
O139 C138 1.258 . S
O140 Co137 1.966 . S
O140 C138 1.263 . S
C141 O142 1.235 . S
C141 O168 1.289 . S
O142 C141 1.235 . S
C143 C145 1.400 . S
C143 N146 1.351 1_554 S
C143 C148 1.501 . S
C144 C145 1.387 . S
C144 N147 1.341 . S
C145 C143 1.400 . S
C145 C144 1.387 . S
N146 Co137 2.022 . S
N146 C143 1.351 1_556 S
N146 N147 1.365 1_556 S
N147 C144 1.341 . S
N147 N146 1.365 1_554 S
N147 H167 0.862 . S
C148 C143 1.501 . S
C148 H149 0.961 1_554 S
C148 H150 0.961 . S
C148 H151 0.960 . S
H149 C148 0.961 1_556 S
H150 C148 0.961 . S
H151 C148 0.960 . S
C152 N153 1.342 . S
C152 C156 1.401 . S
C152 C157 1.499 . S
N153 Co136 1.989 . S
N153 C152 1.342 . S
N153 N154 1.388 . S
N154 Co137 1.993 . S
N154 N153 1.388 . S
N154 C155 1.346 . S
C155 N154 1.346 . S
C155 C156 1.396 . S
C155 C165 1.510 . S
C156 C152 1.401 . S
C156 C155 1.396 . S
C157 C152 1.499 . S
C157 H158 0.959 . S
C157 H159 0.960 . S
C157 H160 0.961 . S
H158 C157 0.959 . S
H159 C157 0.960 . S
H160 C157 0.961 . S
O161 Co136 1.967 . S
O161 C169 1.258 . S
O162 Co137 1.941 . S
O162 C169 1.266 . S
H163 C165 0.959 . S
H164 C165 0.961 . S
C165 C155 1.510 . S
C165 H163 0.959 . S
C165 H164 0.961 . S
C165 H166 0.960 . S
H166 C165 0.960 . S
H167 N147 0.862 . S
O168 Co136 1.920 . S
O168 C141 1.289 . S
C169 O161 1.258 . S
C169 O162 1.266 . S
Co170 O173 1.970 . S
Co170 N187 1.989 . S
Co170 O195 1.967 . S
Co170 O202 1.920 . S
Co171 O174 1.966 . S
Co171 N180 2.022 . S
Co171 N188 1.993 . S
Co171 O196 1.941 . S
C172 O173 1.258 . S
C172 O174 1.263 1_556 S
O173 Co170 1.970 . S
O173 C172 1.258 . S
O174 Co171 1.966 . S
O174 C172 1.263 1_554 S
C175 O176 1.235 . S
C175 O202 1.289 . S
O176 C175 1.235 . S
C177 C179 1.400 . S
C177 N180 1.351 . S
C177 C182 1.501 . S
C178 C179 1.387 . S
C178 N181 1.341 . S
C179 C177 1.400 . S
C179 C178 1.387 . S
N180 Co171 2.022 . S
N180 C177 1.351 . S
N180 N181 1.365 . S
N181 C178 1.341 . S
N181 N180 1.365 . S
N181 H201 0.862 . S
C182 C177 1.501 . S
C182 H183 0.961 . S
C182 H184 0.961 . S
C182 H185 0.960 . S
H183 C182 0.961 . S
H184 C182 0.961 . S
H185 C182 0.960 . S
C186 N187 1.342 . S
C186 C190 1.401 1_556 S
C186 C191 1.499 . S
N187 Co170 1.989 . S
N187 C186 1.342 . S
N187 N188 1.388 1_556 S
N188 Co171 1.993 . S
N188 N187 1.388 1_554 S
N188 C189 1.346 . S
C189 N188 1.346 . S
C189 C190 1.396 . S
C189 C199 1.510 . S
C190 C186 1.401 1_554 S
C190 C189 1.396 . S
C191 C186 1.499 . S
C191 H192 0.959 . S
C191 H193 0.960 . S
C191 H194 0.961 . S
H192 C191 0.959 . S
H193 C191 0.960 . S
H194 C191 0.961 . S
O195 Co170 1.967 . S
O195 C203 1.258 . S
O196 Co171 1.941 . S
O196 C203 1.266 1_554 S
H197 C199 0.959 . S
H198 C199 0.961 . S
C199 C189 1.510 . S
C199 H197 0.959 . S
C199 H198 0.961 . S
C199 H200 0.960 . S
H200 C199 0.960 . S
H201 N181 0.862 . S
O202 Co170 1.920 . S
O202 C175 1.289 . S
C203 O195 1.258 . S
C203 O196 1.266 1_556 S
Co204 O207 1.970 . S
Co204 N221 1.989 . S
Co204 O229 1.967 . S
Co204 O236 1.920 . S
Co205 O208 1.966 . S
Co205 N214 2.022 . S
Co205 N222 1.993 . S
Co205 O230 1.941 . S
C206 O207 1.258 . S
C206 O208 1.263 . S
O207 Co204 1.970 . S
O207 C206 1.258 . S
O208 Co205 1.966 . S
O208 C206 1.263 . S
C209 O210 1.235 . S
C209 O236 1.289 . S
O210 C209 1.235 . S
C211 C213 1.400 . S
C211 N214 1.351 . S
C211 C216 1.501 . S
C212 C213 1.387 . S
C212 N215 1.341 . S
C213 C211 1.400 . S
C213 C212 1.387 . S
N214 Co205 2.022 . S
N214 C211 1.351 . S
N214 N215 1.365 . S
N215 C212 1.341 . S
N215 N214 1.365 . S
N215 H235 0.862 . S
C216 C211 1.501 . S
C216 H217 0.961 . S
C216 H218 0.961 . S
C216 H219 0.960 . S
H217 C216 0.961 . S
H218 C216 0.961 . S
H219 C216 0.960 . S
C220 N221 1.342 . S
C220 C224 1.401 . S
C220 C225 1.499 . S
N221 Co204 1.989 . S
N221 C220 1.342 . S
N221 N222 1.388 . S
N222 Co205 1.993 . S
N222 N221 1.388 . S
N222 C223 1.346 . S
C223 N222 1.346 . S
C223 C224 1.396 . S
C223 C233 1.510 . S
C224 C220 1.401 . S
C224 C223 1.396 . S
C225 C220 1.499 . S
C225 H226 0.959 . S
C225 H227 0.960 . S
C225 H228 0.961 . S
H226 C225 0.959 . S
H227 C225 0.960 . S
H228 C225 0.961 . S
O229 Co204 1.967 . S
O229 C237 1.258 . S
O230 Co205 1.941 . S
O230 C237 1.266 . S
H231 C233 0.959 . S
H232 C233 0.961 . S
C233 C223 1.510 . S
C233 H231 0.959 . S
C233 H232 0.961 . S
C233 H234 0.960 . S
H234 C233 0.960 . S
H235 N215 0.862 . S
O236 Co204 1.920 . S
O236 C209 1.289 . S
C237 O229 1.258 . S
C237 O230 1.266 . S
Co238 O241 1.970 . S
Co238 N255 1.989 . S
Co238 O263 1.967 . S
Co238 O270 1.920 1_556 S
Co239 O242 1.966 . S
Co239 N248 2.022 . S
Co239 N256 1.993 . S
Co239 O264 1.941 . S
C240 O241 1.258 . S
C240 O242 1.263 . S
O241 Co238 1.970 . S
O241 C240 1.258 . S
O242 Co239 1.966 . S
O242 C240 1.263 . S
C243 O244 1.235 . S
C243 O270 1.289 . S
O244 C243 1.235 . S
C245 C247 1.400 . S
C245 N248 1.351 . S
C245 C250 1.501 . S
C246 C247 1.387 . S
C246 N249 1.341 . S
C247 C245 1.400 . S
C247 C246 1.387 . S
N248 Co239 2.022 . S
N248 C245 1.351 . S
N248 N249 1.365 . S
N249 C246 1.341 . S
N249 N248 1.365 . S
N249 H269 0.862 . S
C250 C245 1.501 . S
C250 H251 0.961 . S
C250 H252 0.961 . S
C250 H253 0.960 . S
H251 C250 0.961 . S
H252 C250 0.961 . S
H253 C250 0.960 . S
C254 N255 1.342 . S
C254 C258 1.401 . S
C254 C259 1.499 . S
N255 Co238 1.989 . S
N255 C254 1.342 . S
N255 N256 1.388 . S
N256 Co239 1.993 . S
N256 N255 1.388 . S
N256 C257 1.346 . S
C257 N256 1.346 . S
C257 C258 1.396 . S
C257 C267 1.510 . S
C258 C254 1.401 . S
C258 C257 1.396 . S
C259 C254 1.499 . S
C259 H260 0.959 1_556 S
C259 H261 0.960 . S
C259 H262 0.961 1_556 S
H260 C259 0.959 1_554 S
H261 C259 0.960 . S
H262 C259 0.961 1_554 S
O263 Co238 1.967 . S
O263 C271 1.258 . S
O264 Co239 1.941 . S
O264 C271 1.266 . S
H265 C267 0.959 . S
H266 C267 0.961 . S
C267 C257 1.510 . S
C267 H265 0.959 . S
C267 H266 0.961 . S
C267 H268 0.960 . S
H268 C267 0.960 . S
H269 N249 0.862 . S
O270 Co238 1.920 1_554 S
O270 C243 1.289 . S
C271 O263 1.258 . S
C271 O264 1.266 . S
Co272 O275 1.970 . S
Co272 N289 1.989 . S
Co272 O297 1.967 . S
Co272 O304 1.920 . S
Co273 O276 1.966 . S
Co273 N282 2.022 . S
Co273 N290 1.993 1_556 S
Co273 O298 1.941 1_556 S
C274 O275 1.258 . S
C274 O276 1.263 1_554 S
O275 Co272 1.970 . S
O275 C274 1.258 . S
O276 Co273 1.966 . S
O276 C274 1.263 1_556 S
C277 O278 1.235 . S
C277 O304 1.289 . S
O278 C277 1.235 . S
C279 C281 1.400 . S
C279 N282 1.351 . S
C279 C284 1.501 . S
C280 C281 1.387 . S
C280 N283 1.341 . S
C281 C279 1.400 . S
C281 C280 1.387 . S
N282 Co273 2.022 . S
N282 C279 1.351 . S
N282 N283 1.365 . S
N283 C280 1.341 . S
N283 N282 1.365 . S
N283 H303 0.862 . S
C284 C279 1.501 . S
C284 H285 0.961 . S
C284 H286 0.961 . S
C284 H287 0.960 . S
H285 C284 0.961 . S
H286 C284 0.961 . S
H287 C284 0.960 . S
C288 N289 1.342 . S
C288 C292 1.401 . S
C288 C293 1.499 . S
N289 Co272 1.989 . S
N289 C288 1.342 . S
N289 N290 1.388 . S
N290 Co273 1.993 1_554 S
N290 N289 1.388 . S
N290 C291 1.346 1_554 S
C291 N290 1.346 1_556 S
C291 C292 1.396 1_556 S
C291 C301 1.510 . S
C292 C288 1.401 . S
C292 C291 1.396 1_554 S
C293 C288 1.499 . S
C293 H294 0.959 . S
C293 H295 0.960 . S
C293 H296 0.961 . S
H294 C293 0.959 . S
H295 C293 0.960 . S
H296 C293 0.961 . S
O297 Co272 1.967 . S
O297 C305 1.258 . S
O298 Co273 1.941 1_554 S
O298 C305 1.266 . S
H299 C301 0.959 . S
H300 C301 0.961 . S
C301 C291 1.510 . S
C301 H299 0.959 . S
C301 H300 0.961 . S
C301 H302 0.960 . S
H302 C301 0.960 . S
H303 N283 0.862 . S
O304 Co272 1.920 . S
O304 C277 1.289 . S
C305 O297 1.258 . S
C305 O298 1.266 . S
Co306 O309 1.970 . S
Co306 N323 1.989 . S
Co306 O331 1.967 . S
Co306 O338 1.920 . S
Co307 O310 1.966 . S
Co307 N316 2.022 . S
Co307 N324 1.993 . S
Co307 O332 1.941 . S
C308 O309 1.258 . S
C308 O310 1.263 . S
O309 Co306 1.970 . S
O309 C308 1.258 . S
O310 Co307 1.966 . S
O310 C308 1.263 . S
C311 O312 1.235 . S
C311 O338 1.289 . S
O312 C311 1.235 . S
C313 C315 1.400 . S
C313 N316 1.351 1_556 S
C313 C318 1.501 . S
C314 C315 1.387 . S
C314 N317 1.341 . S
C315 C313 1.400 . S
C315 C314 1.387 . S
N316 Co307 2.022 . S
N316 C313 1.351 1_554 S
N316 N317 1.365 1_554 S
N317 C314 1.341 . S
N317 N316 1.365 1_556 S
N317 H337 0.862 1_556 S
C318 C313 1.501 . S
C318 H319 0.961 1_556 S
C318 H320 0.961 . S
C318 H321 0.960 . S
H319 C318 0.961 1_554 S
H320 C318 0.961 . S
H321 C318 0.960 . S
C322 N323 1.342 . S
C322 C326 1.401 . S
C322 C327 1.499 . S
N323 Co306 1.989 . S
N323 C322 1.342 . S
N323 N324 1.388 . S
N324 Co307 1.993 . S
N324 N323 1.388 . S
N324 C325 1.346 . S
C325 N324 1.346 . S
C325 C326 1.396 . S
C325 C335 1.510 . S
C326 C322 1.401 . S
C326 C325 1.396 . S
C327 C322 1.499 . S
C327 H328 0.959 . S
C327 H329 0.960 . S
C327 H330 0.961 . S
H328 C327 0.959 . S
H329 C327 0.960 . S
H330 C327 0.961 . S
O331 Co306 1.967 . S
O331 C339 1.258 . S
O332 Co307 1.941 . S
O332 C339 1.266 . S
H333 C335 0.959 . S
H334 C335 0.961 . S
C335 C325 1.510 . S
C335 H333 0.959 . S
C335 H334 0.961 . S
C335 H336 0.960 . S
H336 C335 0.960 . S
H337 N317 0.862 1_554 S
O338 Co306 1.920 . S
O338 C311 1.289 . S
C339 O331 1.258 . S
C339 O332 1.266 . S
Co340 O343 1.970 . S
Co340 N357 1.989 . S
Co340 O365 1.967 . S
Co340 O372 1.920 . S
Co341 O344 1.966 . S
Co341 N350 2.022 . S
Co341 N358 1.993 . S
Co341 O366 1.941 . S
C342 O343 1.258 . S
C342 O344 1.263 . S
O343 Co340 1.970 . S
O343 C342 1.258 . S
O344 Co341 1.966 . S
O344 C342 1.263 . S
C345 O346 1.235 . S
C345 O372 1.289 . S
O346 C345 1.235 . S
C347 C349 1.400 . S
C347 N350 1.351 . S
C347 C352 1.501 . S
C348 C349 1.387 . S
C348 N351 1.341 . S
C349 C347 1.400 . S
C349 C348 1.387 . S
N350 Co341 2.022 . S
N350 C347 1.351 . S
N350 N351 1.365 . S
N351 C348 1.341 . S
N351 N350 1.365 . S
N351 H371 0.862 . S
C352 C347 1.501 . S
C352 H353 0.961 . S
C352 H354 0.961 . S
C352 H355 0.960 . S
H353 C352 0.961 . S
H354 C352 0.961 . S
H355 C352 0.960 . S
C356 N357 1.342 . S
C356 C360 1.401 . S
C356 C361 1.499 . S
N357 Co340 1.989 . S
N357 C356 1.342 . S
N357 N358 1.388 . S
N358 Co341 1.993 . S
N358 N357 1.388 . S
N358 C359 1.346 . S
C359 N358 1.346 . S
C359 C360 1.396 . S
C359 C369 1.510 . S
C360 C356 1.401 . S
C360 C359 1.396 . S
C361 C356 1.499 . S
C361 H362 0.959 . S
C361 H363 0.960 . S
C361 H364 0.961 . S
H362 C361 0.959 . S
H363 C361 0.960 . S
H364 C361 0.961 . S
O365 Co340 1.967 . S
O365 C373 1.258 . S
O366 Co341 1.941 . S
O366 C373 1.266 . S
H367 C369 0.959 . S
H368 C369 0.961 . S
C369 C359 1.510 . S
C369 H367 0.959 . S
C369 H368 0.961 . S
C369 H370 0.960 . S
H370 C369 0.960 . S
H371 N351 0.862 . S
O372 Co340 1.920 . S
O372 C345 1.289 . S
C373 O365 1.258 . S
C373 O366 1.266 . S
Co374 O377 1.970 . S
Co374 N391 1.989 . S
Co374 O399 1.967 . S
Co374 O406 1.920 . S
Co375 O378 1.966 . S
Co375 N384 2.022 . S
Co375 N392 1.993 . S
Co375 O400 1.941 . S
C376 O377 1.258 . S
C376 O378 1.263 . S
O377 Co374 1.970 . S
O377 C376 1.258 . S
O378 Co375 1.966 . S
O378 C376 1.263 . S
C379 O380 1.235 . S
C379 O406 1.289 . S
O380 C379 1.235 . S
C381 C383 1.400 . S
C381 N384 1.351 . S
C381 C386 1.501 . S
C382 C383 1.387 . S
C382 N385 1.341 . S
C383 C381 1.400 . S
C383 C382 1.387 . S
N384 Co375 2.022 . S
N384 C381 1.351 . S
N384 N385 1.365 . S
N385 C382 1.341 . S
N385 N384 1.365 . S
N385 H405 0.862 . S
C386 C381 1.501 . S
C386 H387 0.961 . S
C386 H388 0.961 . S
C386 H389 0.960 . S
H387 C386 0.961 . S
H388 C386 0.961 . S
H389 C386 0.960 . S
C390 N391 1.342 . S
C390 C394 1.401 . S
C390 C395 1.499 . S
N391 Co374 1.989 . S
N391 C390 1.342 . S
N391 N392 1.388 . S
N392 Co375 1.993 . S
N392 N391 1.388 . S
N392 C393 1.346 . S
C393 N392 1.346 . S
C393 C394 1.396 . S
C393 C403 1.510 . S
C394 C390 1.401 . S
C394 C393 1.396 . S
C395 C390 1.499 . S
C395 H396 0.959 . S
C395 H397 0.960 . S
C395 H398 0.961 . S
H396 C395 0.959 . S
H397 C395 0.960 . S
H398 C395 0.961 . S
O399 Co374 1.967 . S
O399 C407 1.258 . S
O400 Co375 1.941 . S
O400 C407 1.266 . S
H401 C403 0.959 . S
H402 C403 0.961 . S
C403 C393 1.510 . S
C403 H401 0.959 . S
C403 H402 0.961 . S
C403 H404 0.960 . S
H404 C403 0.960 . S
H405 N385 0.862 . S
O406 Co374 1.920 . S
O406 C379 1.289 . S
C407 O399 1.258 . S
C407 O400 1.266 . S
C408 C409 1.391 . S
C408 C410 1.394 . S
C408 H424 0.931 . S
C409 C408 1.391 . S
C409 C413 1.376 . S
C410 C408 1.394 . S
C410 C411 1.369 . S
C410 C414 1.531 . S
C411 C410 1.369 . S
C411 C412 1.410 . S
C411 C419 1.503 . S
C412 C411 1.410 . S
C412 C413 1.392 . S
C412 C415 1.511 . S
C413 C409 1.376 . S
C413 C412 1.392 . S
C413 H425 0.929 . S
C414 C410 1.531 . S
C414 H426 0.960 . S
C414 H427 0.962 . S
C414 H428 0.960 . S
C415 C412 1.511 . S
C415 H429 0.961 . S
C415 H430 0.961 . S
C415 H431 0.961 . S
C416 C417 1.370 . S
C416 C418 1.363 . S
C416 H432 0.931 . S
C417 C416 1.370 . S
C417 C421 1.408 . S
C418 C416 1.363 . S
C418 C419 1.370 . S
C418 C422 1.524 . S
C419 C411 1.503 . S
C419 C418 1.370 . S
C419 C420 1.403 . S
C420 C419 1.403 . S
C420 C421 1.404 . S
C420 C423 1.539 . S
C421 C417 1.408 . S
C421 C420 1.404 . S
C421 H433 0.930 . S
C422 C418 1.524 . S
C422 H434 0.956 . S
C422 H435 0.961 . S
C422 H436 0.961 . S
C423 C420 1.539 . S
C423 H437 0.958 . S
C423 H438 0.961 . S
C423 H439 0.960 . S
H424 C408 0.931 . S
H425 C413 0.929 . S
H426 C414 0.960 . S
H427 C414 0.962 . S
H428 C414 0.960 . S
H429 C415 0.961 . S
H430 C415 0.961 . S
H431 C415 0.961 . S
H432 C416 0.931 . S
H433 C421 0.930 . S
H434 C422 0.956 . S
H435 C422 0.961 . S
H436 C422 0.961 . S
H437 C423 0.958 . S
H438 C423 0.961 . S
H439 C423 0.960 . S
C440 C441 1.391 . S
C440 C442 1.394 1_554 S
C440 H456 0.931 . S
C441 C440 1.391 . S
C441 C445 1.376 1_554 S
C442 C440 1.394 1_556 S
C442 C443 1.369 . S
C442 C446 1.531 . S
C443 C442 1.369 . S
C443 C444 1.410 . S
C443 C451 1.503 . S
C444 C443 1.410 . S
C444 C445 1.392 . S
C444 C447 1.511 . S
C445 C441 1.376 1_556 S
C445 C444 1.392 . S
C445 H457 0.929 1_556 S
C446 C442 1.531 . S
C446 H458 0.960 . S
C446 H459 0.962 . S
C446 H460 0.960 . S
C447 C444 1.511 . S
C447 H461 0.961 . S
C447 H462 0.961 . S
C447 H463 0.961 . S
C448 C449 1.370 . S
C448 C450 1.363 . S
C448 H464 0.931 . S
C449 C448 1.370 . S
C449 C453 1.408 . S
C450 C448 1.363 . S
C450 C451 1.370 . S
C450 C454 1.524 . S
C451 C443 1.503 . S
C451 C450 1.370 . S
C451 C452 1.403 . S
C452 C451 1.403 . S
C452 C453 1.404 . S
C452 C455 1.539 . S
C453 C449 1.408 . S
C453 C452 1.404 . S
C453 H465 0.930 . S
C454 C450 1.524 . S
C454 H466 0.956 . S
C454 H467 0.961 . S
C454 H468 0.961 . S
C455 C452 1.539 . S
C455 H469 0.958 . S
C455 H470 0.961 . S
C455 H471 0.960 . S
H456 C440 0.931 . S
H457 C445 0.929 1_554 S
H458 C446 0.960 . S
H459 C446 0.962 . S
H460 C446 0.960 . S
H461 C447 0.961 . S
H462 C447 0.961 . S
H463 C447 0.961 . S
H464 C448 0.931 . S
H465 C453 0.930 . S
H466 C454 0.956 . S
H467 C454 0.961 . S
H468 C454 0.961 . S
H469 C455 0.958 . S
H470 C455 0.961 . S
H471 C455 0.960 . S
C472 C473 1.391 . S
C472 C474 1.394 . S
C472 H488 0.931 . S
C473 C472 1.391 . S
C473 C477 1.376 . S
C474 C472 1.394 . S
C474 C475 1.369 . S
C474 C478 1.531 . S
C475 C474 1.369 . S
C475 C476 1.410 . S
C475 C483 1.503 1_554 S
C476 C475 1.410 . S
C476 C477 1.392 . S
C476 C479 1.511 . S
C477 C473 1.376 . S
C477 C476 1.392 . S
C477 H489 0.929 . S
C478 C474 1.531 . S
C478 H490 0.960 1_554 S
C478 H491 0.962 . S
C478 H492 0.960 . S
C479 C476 1.511 . S
C479 H493 0.961 . S
C479 H494 0.961 . S
C479 H495 0.961 . S
C480 C481 1.370 . S
C480 C482 1.363 . S
C480 H496 0.931 . S
C481 C480 1.370 . S
C481 C485 1.408 . S
C482 C480 1.363 . S
C482 C483 1.370 . S
C482 C486 1.524 . S
C483 C475 1.503 1_556 S
C483 C482 1.370 . S
C483 C484 1.403 . S
C484 C483 1.403 . S
C484 C485 1.404 . S
C484 C487 1.539 . S
C485 C481 1.408 . S
C485 C484 1.404 . S
C485 H497 0.930 . S
C486 C482 1.524 . S
C486 H498 0.956 1_556 S
C486 H499 0.961 1_556 S
C486 H500 0.961 . S
C487 C484 1.539 . S
C487 H501 0.958 . S
C487 H502 0.961 . S
C487 H503 0.960 1_556 S
H488 C472 0.931 . S
H489 C477 0.929 . S
H490 C478 0.960 1_556 S
H491 C478 0.962 . S
H492 C478 0.960 . S
H493 C479 0.961 . S
H494 C479 0.961 . S
H495 C479 0.961 . S
H496 C480 0.931 . S
H497 C485 0.930 . S
H498 C486 0.956 1_554 S
H499 C486 0.961 1_554 S
H500 C486 0.961 . S
H501 C487 0.958 . S
H502 C487 0.961 . S
H503 C487 0.960 1_554 S
C504 C505 1.386 1_554 S
C504 C506 1.394 . S
C504 H520 0.931 1_554 S
C505 C504 1.386 1_556 S
C505 C509 1.365 1_556 S
C506 C504 1.394 . S
C506 C507 1.369 . S
C506 C510 1.531 . S
C507 C506 1.369 . S
C507 C508 1.410 . S
C507 C515 1.503 . S
C508 C507 1.410 . S
C508 C509 1.392 . S
C508 C511 1.511 . S
C509 C505 1.365 1_554 S
C509 C508 1.392 . S
C509 H521 0.929 . S
C510 C506 1.531 . S
C510 H522 0.960 . S
C510 H523 0.962 . S
C510 H524 0.960 . S
C511 C508 1.511 . S
C511 H525 0.961 . S
C511 H526 0.961 . S
C511 H527 0.961 . S
C512 C513 1.370 . S
C512 C514 1.363 . S
C512 H528 0.931 . S
C513 C512 1.370 . S
C513 C517 1.408 . S
C514 C512 1.363 . S
C514 C515 1.370 . S
C514 C518 1.524 . S
C515 C507 1.503 . S
C515 C514 1.370 . S
C515 C516 1.403 . S
C516 C515 1.403 . S
C516 C517 1.404 . S
C516 C519 1.539 . S
C517 C513 1.408 . S
C517 C516 1.404 . S
C517 H529 0.930 . S
C518 C514 1.524 . S
C518 H530 0.956 . S
C518 H531 0.961 . S
C518 H532 0.961 . S
C519 C516 1.539 . S
C519 H533 0.958 . S
C519 H534 0.961 . S
C519 H535 0.960 . S
H520 C504 0.931 1_556 S
H521 C509 0.929 . S
H522 C510 0.960 . S
H523 C510 0.962 . S
H524 C510 0.960 . S
H525 C511 0.961 . S
H526 C511 0.961 . S
H527 C511 0.961 . S
H528 C512 0.931 . S
H529 C517 0.930 . S
H530 C518 0.956 . S
H531 C518 0.961 . S
H532 C518 0.961 . S
H533 C519 0.958 . S
H534 C519 0.961 . S
H535 C519 0.960 . S
C536 C537 1.391 . S
C536 C538 1.394 . S
C536 H552 0.931 . S
C537 C536 1.391 . S
C537 C541 1.376 . S
C538 C536 1.394 . S
C538 C539 1.369 . S
C538 C542 1.531 . S
C539 C538 1.369 . S
C539 C540 1.410 . S
C539 C547 1.503 . S
C540 C539 1.410 . S
C540 C541 1.392 . S
C540 C543 1.511 . S
C541 C537 1.376 . S
C541 C540 1.392 . S
C541 H553 0.929 . S
C542 C538 1.531 . S
C542 H554 0.960 . S
C542 H555 0.962 . S
C542 H556 0.960 . S
C543 C540 1.511 . S
C543 H557 0.961 . S
C543 H558 0.961 . S
C543 H559 0.961 . S
C544 C545 1.370 . S
C544 C546 1.363 . S
C544 H560 0.931 . S
C545 C544 1.370 . S
C545 C549 1.408 . S
C546 C544 1.363 . S
C546 C547 1.370 . S
C546 C550 1.524 . S
C547 C539 1.503 . S
C547 C546 1.370 . S
C547 C548 1.403 . S
C548 C547 1.403 . S
C548 C549 1.404 . S
C548 C551 1.539 . S
C549 C545 1.408 . S
C549 C548 1.404 . S
C549 H561 0.930 . S
C550 C546 1.524 . S
C550 H562 0.956 . S
C550 H563 0.961 . S
C550 H564 0.961 . S
C551 C548 1.539 . S
C551 H565 0.958 . S
C551 H566 0.961 . S
C551 H567 0.960 . S
H552 C536 0.931 . S
H553 C541 0.929 . S
H554 C542 0.960 . S
H555 C542 0.962 . S
H556 C542 0.960 . S
H557 C543 0.961 . S
H558 C543 0.961 . S
H559 C543 0.961 . S
H560 C544 0.931 . S
H561 C549 0.930 . S
H562 C550 0.956 . S
H563 C550 0.961 . S
H564 C550 0.961 . S
H565 C551 0.958 . S
H566 C551 0.961 . S
H567 C551 0.960 . S
C568 C569 1.391 . S
C568 C570 1.394 . S
C568 H584 0.931 . S
C569 C568 1.391 . S
C569 C573 1.376 . S
C570 C568 1.394 . S
C570 C571 1.369 . S
C570 C574 1.531 . S
C571 C570 1.369 . S
C571 C572 1.410 . S
C571 C579 1.503 . S
C572 C571 1.410 . S
C572 C573 1.392 . S
C572 C575 1.511 . S
C573 C569 1.376 . S
C573 C572 1.392 . S
C573 H585 0.929 . S
C574 C570 1.531 . S
C574 H586 0.960 . S
C574 H587 0.962 . S
C574 H588 0.960 . S
C575 C572 1.511 . S
C575 H589 0.961 . S
C575 H590 0.961 . S
C575 H591 0.961 . S
C576 C577 1.370 . S
C576 C578 1.363 . S
C576 H592 0.931 . S
C577 C576 1.370 . S
C577 C581 1.408 . S
C578 C576 1.363 . S
C578 C579 1.370 . S
C578 C582 1.524 . S
C579 C571 1.503 . S
C579 C578 1.370 . S
C579 C580 1.403 . S
C580 C579 1.403 . S
C580 C581 1.404 . S
C580 C583 1.539 . S
C581 C577 1.408 . S
C581 C580 1.404 . S
C581 H593 0.930 . S
C582 C578 1.524 . S
C582 H594 0.956 . S
C582 H595 0.961 . S
C582 H596 0.961 . S
C583 C580 1.539 . S
C583 H597 0.958 . S
C583 H598 0.961 . S
C583 H599 0.960 . S
H584 C568 0.931 . S
H585 C573 0.929 . S
H586 C574 0.960 . S
H587 C574 0.962 . S
H588 C574 0.960 . S
H589 C575 0.961 . S
H590 C575 0.961 . S
H591 C575 0.961 . S
H592 C576 0.931 . S
H593 C581 0.930 . S
H594 C582 0.956 . S
H595 C582 0.961 . S
H596 C582 0.961 . S
H597 C583 0.958 . S
H598 C583 0.961 . S
H599 C583 0.960 . S
C600 C601 1.391 . S
C600 C602 1.394 . S
C600 H616 0.931 . S
C601 C600 1.391 . S
C601 C605 1.376 . S
C602 C600 1.394 . S
C602 C603 1.369 . S
C602 C606 1.531 . S
C603 C602 1.369 . S
C603 C604 1.410 . S
C603 C611 1.503 . S
C604 C603 1.410 . S
C604 C605 1.392 . S
C604 C607 1.511 . S
C605 C601 1.376 . S
C605 C604 1.392 . S
C605 H617 0.929 . S
C606 C602 1.531 . S
C606 H618 0.960 . S
C606 H619 0.962 . S
C606 H620 0.960 . S
C607 C604 1.511 . S
C607 H621 0.961 . S
C607 H622 0.961 . S
C607 H623 0.961 . S
C608 C609 1.370 1_554 S
C608 C610 1.363 . S
C608 H624 0.931 1_554 S
C609 C608 1.370 1_556 S
C609 C613 1.408 1_556 S
C610 C608 1.363 . S
C610 C611 1.370 . S
C610 C614 1.524 . S
C611 C603 1.503 . S
C611 C610 1.370 . S
C611 C612 1.403 . S
C612 C611 1.403 . S
C612 C613 1.404 . S
C612 C615 1.539 . S
C613 C609 1.408 1_554 S
C613 C612 1.404 . S
C613 H625 0.930 . S
C614 C610 1.524 . S
C614 H626 0.956 . S
C614 H627 0.961 . S
C614 H628 0.961 . S
C615 C612 1.539 . S
C615 H629 0.958 . S
C615 H630 0.961 . S
C615 H631 0.960 . S
H616 C600 0.931 . S
H617 C605 0.929 . S
H618 C606 0.960 . S
H619 C606 0.962 . S
H620 C606 0.960 . S
H621 C607 0.961 . S
H622 C607 0.961 . S
H623 C607 0.961 . S
H624 C608 0.931 1_556 S
H625 C613 0.930 . S
H626 C614 0.956 . S
H627 C614 0.961 . S
H628 C614 0.961 . S
H629 C615 0.958 . S
H630 C615 0.961 . S
H631 C615 0.960 . S
C632 C633 1.391 . S
C632 C634 1.394 . S
C632 H648 0.931 . S
C633 C632 1.391 . S
C633 C637 1.376 . S
C634 C632 1.394 . S
C634 C635 1.369 . S
C634 C638 1.531 . S
C635 C634 1.369 . S
C635 C636 1.410 . S
C635 C643 1.503 . S
C636 C635 1.410 . S
C636 C637 1.392 . S
C636 C639 1.511 . S
C637 C633 1.376 . S
C637 C636 1.392 . S
C637 H649 0.929 . S
C638 C634 1.531 . S
C638 H650 0.960 . S
C638 H651 0.962 . S
C638 H652 0.960 . S
C639 C636 1.511 . S
C639 H653 0.961 . S
C639 H654 0.961 . S
C639 H655 0.961 . S
C640 C641 1.370 . S
C640 C642 1.363 . S
C640 H656 0.931 . S
C641 C640 1.370 . S
C641 C645 1.408 . S
C642 C640 1.363 . S
C642 C643 1.370 . S
C642 C646 1.524 . S
C643 C635 1.503 . S
C643 C642 1.370 . S
C643 C644 1.403 . S
C644 C643 1.403 . S
C644 C645 1.404 . S
C644 C647 1.539 . S
C645 C641 1.408 . S
C645 C644 1.404 . S
C645 H657 0.930 . S
C646 C642 1.524 . S
C646 H658 0.956 . S
C646 H659 0.961 . S
C646 H660 0.961 . S
C647 C644 1.539 . S
C647 H661 0.958 . S
C647 H662 0.961 . S
C647 H663 0.960 . S
H648 C632 0.931 . S
H649 C637 0.929 . S
H650 C638 0.960 . S
H651 C638 0.962 . S
H652 C638 0.960 . S
H653 C639 0.961 . S
H654 C639 0.961 . S
H655 C639 0.961 . S
H656 C640 0.931 . S
H657 C645 0.930 . S
H658 C646 0.956 . S
H659 C646 0.961 . S
H660 C646 0.961 . S
H661 C647 0.958 . S
H662 C647 0.961 . S
H663 C647 0.960 . S
C664 C665 1.391 . S
C664 C666 1.394 . S
C664 H680 0.931 . S
C665 C664 1.391 . S
C665 C669 1.376 . S
C666 C664 1.394 . S
C666 C667 1.369 . S
C666 C670 1.531 . S
C667 C666 1.369 . S
C667 C668 1.410 . S
C667 C675 1.503 . S
C668 C667 1.410 . S
C668 C669 1.392 . S
C668 C671 1.511 . S
C669 C665 1.376 . S
C669 C668 1.392 . S
C669 H681 0.929 . S
C670 C666 1.531 . S
C670 H682 0.960 . S
C670 H683 0.962 . S
C670 H684 0.960 . S
C671 C668 1.511 . S
C671 H685 0.961 . S
C671 H686 0.961 . S
C671 H687 0.961 . S
C672 C673 1.370 . S
C672 C674 1.363 . S
C672 H688 0.931 . S
C673 C672 1.370 . S
C673 C677 1.408 . S
C674 C672 1.363 . S
C674 C675 1.370 . S
C674 C678 1.524 . S
C675 C667 1.503 . S
C675 C674 1.370 . S
C675 C676 1.403 . S
C676 C675 1.403 . S
C676 C677 1.404 . S
C676 C679 1.539 . S
C677 C673 1.408 . S
C677 C676 1.404 . S
C677 H689 0.930 . S
C678 C674 1.524 . S
C678 H690 0.956 . S
C678 H691 0.961 . S
C678 H692 0.961 . S
C679 C676 1.539 . S
C679 H693 0.958 . S
C679 H694 0.961 . S
C679 H695 0.960 . S
H680 C664 0.931 . S
H681 C669 0.929 . S
H682 C670 0.960 . S
H683 C670 0.962 . S
H684 C670 0.960 . S
H685 C671 0.961 . S
H686 C671 0.961 . S
H687 C671 0.961 . S
H688 C672 0.931 . S
H689 C677 0.930 . S
H690 C678 0.956 . S
H691 C678 0.961 . S
H692 C678 0.961 . S
H693 C679 0.958 . S
H694 C679 0.961 . S
H695 C679 0.960 . S
C696 C697 1.391 . S
C696 C698 1.394 . S
C696 H712 0.931 . S
C697 C696 1.391 . S
C697 C701 1.376 . S
C698 C696 1.394 . S
C698 C699 1.369 . S
C698 C702 1.531 . S
C699 C698 1.369 . S
C699 C700 1.410 . S
C699 C707 1.503 . S
C700 C699 1.410 . S
C700 C701 1.392 . S
C700 C703 1.511 . S
C701 C697 1.376 . S
C701 C700 1.392 . S
C701 H713 0.929 . S
C702 C698 1.531 . S
C702 H714 0.960 . S
C702 H715 0.962 . S
C702 H716 0.960 . S
C703 C700 1.511 . S
C703 H717 0.961 . S
C703 H718 0.961 . S
C703 H719 0.961 . S
C704 C705 1.370 . S
C704 C706 1.363 . S
C704 H720 0.931 . S
C705 C704 1.370 . S
C705 C709 1.408 . S
C706 C704 1.363 . S
C706 C707 1.370 . S
C706 C710 1.524 . S
C707 C699 1.503 . S
C707 C706 1.370 . S
C707 C708 1.403 . S
C708 C707 1.403 . S
C708 C709 1.404 . S
C708 C711 1.539 . S
C709 C705 1.408 . S
C709 C708 1.404 . S
C709 H721 0.930 . S
C710 C706 1.524 . S
C710 H722 0.956 . S
C710 H723 0.961 . S
C710 H724 0.961 . S
C711 C708 1.539 . S
C711 H725 0.958 . S
C711 H726 0.961 . S
C711 H727 0.960 . S
H712 C696 0.931 . S
H713 C701 0.929 . S
H714 C702 0.960 . S
H715 C702 0.962 . S
H716 C702 0.960 . S
H717 C703 0.961 . S
H718 C703 0.961 . S
H719 C703 0.961 . S
H720 C704 0.931 . S
H721 C709 0.930 . S
H722 C710 0.956 . S
H723 C710 0.961 . S
H724 C710 0.961 . S
H725 C711 0.958 . S
H726 C711 0.961 . S
H727 C711 0.960 . S
C728 C729 1.391 1_556 S
C728 C730 1.394 . S
C728 H744 0.931 . S
C729 C728 1.391 1_554 S
C729 C733 1.376 . S
C730 C728 1.394 . S
C730 C731 1.369 . S
C730 C734 1.531 . S
C731 C730 1.369 . S
C731 C732 1.410 . S
C731 C739 1.503 . S
C732 C731 1.410 . S
C732 C733 1.392 1_556 S
C732 C735 1.511 . S
C733 C729 1.376 . S
C733 C732 1.392 1_554 S
C733 H745 0.929 . S
C734 C730 1.531 . S
C734 H746 0.960 . S
C734 H747 0.962 . S
C734 H748 0.960 . S
C735 C732 1.511 . S
C735 H749 0.961 . S
C735 H750 0.961 . S
C735 H751 0.961 . S
C736 C737 1.370 . S
C736 C738 1.363 . S
C736 H752 0.931 . S
C737 C736 1.370 . S
C737 C741 1.408 . S
C738 C736 1.363 . S
C738 C739 1.370 . S
C738 C742 1.524 . S
C739 C731 1.503 . S
C739 C738 1.370 . S
C739 C740 1.403 . S
C740 C739 1.403 . S
C740 C741 1.404 . S
C740 C743 1.539 . S
C741 C737 1.408 . S
C741 C740 1.404 . S
C741 H753 0.930 . S
C742 C738 1.524 . S
C742 H754 0.956 . S
C742 H755 0.961 . S
C742 H756 0.961 . S
C743 C740 1.539 . S
C743 H757 0.958 . S
C743 H758 0.961 . S
C743 H759 0.960 . S
H744 C728 0.931 . S
H745 C733 0.929 . S
H746 C734 0.960 . S
H747 C734 0.962 . S
H748 C734 0.960 . S
H749 C735 0.961 . S
H750 C735 0.961 . S
H751 C735 0.961 . S
H752 C736 0.931 . S
H753 C741 0.930 . S
H754 C742 0.956 . S
H755 C742 0.961 . S
H756 C742 0.961 . S
H757 C743 0.958 . S
H758 C743 0.961 . S
H759 C743 0.960 . S
C760 C761 1.391 . S
C760 C762 1.394 . S
C760 H776 0.931 . S
C761 C760 1.391 . S
C761 C765 1.376 . S
C762 C760 1.394 . S
C762 C763 1.369 . S
C762 C766 1.531 1_556 S
C763 C762 1.369 . S
C763 C764 1.410 . S
C763 C771 1.503 1_556 S
C764 C763 1.410 . S
C764 C765 1.392 . S
C764 C767 1.511 . S
C765 C761 1.376 . S
C765 C764 1.392 . S
C765 H777 0.929 . S
C766 C762 1.531 1_554 S
C766 H778 0.960 . S
C766 H779 0.962 . S
C766 H780 0.960 1_554 S
C767 C764 1.511 . S
C767 H781 0.961 . S
C767 H782 0.961 . S
C767 H783 0.961 . S
C768 C769 1.370 . S
C768 C770 1.363 . S
C768 H784 0.931 . S
C769 C768 1.370 . S
C769 C773 1.408 . S
C770 C768 1.363 . S
C770 C771 1.370 . S
C770 C774 1.524 . S
C771 C763 1.503 1_554 S
C771 C770 1.370 . S
C771 C772 1.403 . S
C772 C771 1.403 . S
C772 C773 1.404 . S
C772 C775 1.539 . S
C773 C769 1.408 . S
C773 C772 1.404 . S
C773 H785 0.930 . S
C774 C770 1.524 . S
C774 H786 0.956 . S
C774 H787 0.961 1_554 S
C774 H788 0.961 . S
C775 C772 1.539 . S
C775 H789 0.958 . S
C775 H790 0.961 . S
C775 H791 0.960 . S
H776 C760 0.931 . S
H777 C765 0.929 . S
H778 C766 0.960 . S
H779 C766 0.962 . S
H780 C766 0.960 1_556 S
H781 C767 0.961 . S
H782 C767 0.961 . S
H783 C767 0.961 . S
H784 C768 0.931 . S
H785 C773 0.930 . S
H786 C774 0.956 . S
H787 C774 0.961 1_556 S
H788 C774 0.961 . S
H789 C775 0.958 . S
H790 C775 0.961 . S
H791 C775 0.960 . S
C792 C793 1.391 . S
C792 C794 1.394 . S
C792 H808 0.931 . S
C793 C792 1.391 . S
C793 C797 1.376 . S
C794 C792 1.394 . S
C794 C795 1.369 . S
C794 C798 1.531 . S
C795 C794 1.369 . S
C795 C796 1.410 . S
C795 C803 1.503 . S
C796 C795 1.410 . S
C796 C797 1.392 . S
C796 C799 1.511 . S
C797 C793 1.376 . S
C797 C796 1.392 . S
C797 H809 0.929 . S
C798 C794 1.531 . S
C798 H810 0.960 1_556 S
C798 H811 0.962 1_556 S
C798 H812 0.960 1_556 S
C799 C796 1.511 . S
C799 H813 0.961 . S
C799 H814 0.961 . S
C799 H815 0.961 . S
C800 C801 1.370 . S
C800 C802 1.363 1_554 S
C800 H816 0.931 . S
C801 C800 1.370 . S
C801 C805 1.408 . S
C802 C800 1.363 1_556 S
C802 C803 1.370 . S
C802 C806 1.524 . S
C803 C795 1.503 . S
C803 C802 1.370 . S
C803 C804 1.403 . S
C804 C803 1.403 . S
C804 C805 1.404 1_556 S
C804 C807 1.539 . S
C805 C801 1.408 . S
C805 C804 1.404 1_554 S
C805 H817 0.930 . S
C806 C802 1.524 . S
C806 H818 0.956 . S
C806 H819 0.961 . S
C806 H820 0.961 . S
C807 C804 1.539 . S
C807 H821 0.958 . S
C807 H822 0.961 . S
C807 H823 0.960 . S
H808 C792 0.931 . S
H809 C797 0.929 . S
H810 C798 0.960 1_554 S
H811 C798 0.962 1_554 S
H812 C798 0.960 1_554 S
H813 C799 0.961 . S
H814 C799 0.961 . S
H815 C799 0.961 . S
H816 C800 0.931 . S
H817 C805 0.930 . S
H818 C806 0.956 . S
H819 C806 0.961 . S
H820 C806 0.961 . S
H821 C807 0.958 . S
H822 C807 0.961 . S
H823 C807 0.960 . S
C824 C825 1.391 . S
C824 C826 1.394 . S
C824 H840 0.931 . S
C825 C824 1.391 . S
C825 C829 1.376 . S
C826 C824 1.394 . S
C826 C827 1.369 . S
C826 C830 1.531 . S
C827 C826 1.369 . S
C827 C828 1.410 . S
C827 C835 1.503 . S
C828 C827 1.410 . S
C828 C829 1.392 . S
C828 C831 1.511 . S
C829 C825 1.376 . S
C829 C828 1.392 . S
C829 H841 0.929 . S
C830 C826 1.531 . S
C830 H842 0.960 1_554 S
C830 H843 0.962 . S
C830 H844 0.960 . S
C831 C828 1.511 . S
C831 H845 0.961 . S
C831 H846 0.961 . S
C831 H847 0.961 . S
C832 C833 1.370 1_554 S
C832 C834 1.363 . S
C832 H848 0.931 1_554 S
C833 C832 1.370 1_556 S
C833 C837 1.408 . S
C834 C832 1.363 . S
C834 C835 1.370 . S
C834 C838 1.524 . S
C835 C827 1.503 . S
C835 C834 1.370 . S
C835 C836 1.403 . S
C836 C835 1.403 . S
C836 C837 1.404 1_554 S
C836 C839 1.539 . S
C837 C833 1.408 . S
C837 C836 1.404 1_556 S
C837 H849 0.930 . S
C838 C834 1.524 . S
C838 H850 0.956 . S
C838 H851 0.961 . S
C838 H852 0.961 . S
C839 C836 1.539 . S
C839 H853 0.949 1_554 S
C839 H854 0.961 . S
C839 H855 0.960 . S
H840 C824 0.931 . S
H841 C829 0.929 . S
H842 C830 0.960 1_556 S
H843 C830 0.962 . S
H844 C830 0.960 . S
H845 C831 0.961 . S
H846 C831 0.961 . S
H847 C831 0.961 . S
H848 C832 0.931 1_556 S
H849 C837 0.930 . S
H850 C838 0.956 . S
H851 C838 0.961 . S
H852 C838 0.961 . S
H853 C839 0.949 1_556 S
H854 C839 0.961 . S
H855 C839 0.960 . S
C856 C857 1.391 . S
C856 C858 1.394 . S
C856 H872 0.931 . S
C857 C856 1.391 . S
C857 C861 1.376 . S
C858 C856 1.394 . S
C858 C859 1.369 . S
C858 C862 1.531 . S
C859 C858 1.369 . S
C859 C860 1.410 . S
C859 C867 1.503 . S
C860 C859 1.410 . S
C860 C861 1.392 . S
C860 C863 1.511 . S
C861 C857 1.376 . S
C861 C860 1.392 . S
C861 H873 0.929 . S
C862 C858 1.531 . S
C862 H874 0.960 . S
C862 H875 0.962 . S
C862 H876 0.960 . S
C863 C860 1.511 . S
C863 H877 0.961 . S
C863 H878 0.961 . S
C863 H879 0.961 . S
C864 C865 1.370 . S
C864 C866 1.363 . S
C864 H880 0.931 . S
C865 C864 1.370 . S
C865 C869 1.408 . S
C866 C864 1.363 . S
C866 C867 1.370 . S
C866 C870 1.524 . S
C867 C859 1.503 . S
C867 C866 1.370 . S
C867 C868 1.403 . S
C868 C867 1.403 . S
C868 C869 1.404 . S
C868 C871 1.539 . S
C869 C865 1.408 . S
C869 C868 1.404 . S
C869 H881 0.930 . S
C870 C866 1.524 . S
C870 H882 0.956 . S
C870 H883 0.961 . S
C870 H884 0.961 . S
C871 C868 1.539 . S
C871 H885 0.958 . S
C871 H886 0.961 . S
C871 H887 0.960 . S
H872 C856 0.931 . S
H873 C861 0.929 . S
H874 C862 0.960 . S
H875 C862 0.962 . S
H876 C862 0.960 . S
H877 C863 0.961 . S
H878 C863 0.961 . S
H879 C863 0.961 . S
H880 C864 0.931 . S
H881 C869 0.930 . S
H882 C870 0.956 . S
H883 C870 0.961 . S
H884 C870 0.961 . S
H885 C871 0.958 . S
H886 C871 0.961 . S
H887 C871 0.960 . S
C888 C889 1.391 . S
C888 C890 1.394 . S
C888 H904 0.931 . S
C889 C888 1.391 . S
C889 C893 1.376 . S
C890 C888 1.394 . S
C890 C891 1.369 . S
C890 C894 1.531 . S
C891 C890 1.369 . S
C891 C892 1.410 . S
C891 C899 1.503 . S
C892 C891 1.410 . S
C892 C893 1.392 . S
C892 C895 1.511 . S
C893 C889 1.376 . S
C893 C892 1.392 . S
C893 H905 0.929 . S
C894 C890 1.531 . S
C894 H906 0.960 . S
C894 H907 0.962 . S
C894 H908 0.960 . S
C895 C892 1.511 . S
C895 H909 0.961 . S
C895 H910 0.961 . S
C895 H911 0.961 . S
C896 C897 1.370 . S
C896 C898 1.363 . S
C896 H912 0.931 . S
C897 C896 1.370 . S
C897 C901 1.408 . S
C898 C896 1.363 . S
C898 C899 1.370 . S
C898 C902 1.524 . S
C899 C891 1.503 . S
C899 C898 1.370 . S
C899 C900 1.403 . S
C900 C899 1.403 . S
C900 C901 1.404 . S
C900 C903 1.539 . S
C901 C897 1.408 . S
C901 C900 1.404 . S
C901 H913 0.930 . S
C902 C898 1.524 . S
C902 H914 0.956 . S
C902 H915 0.961 . S
C902 H916 0.961 . S
C903 C900 1.539 . S
C903 H917 0.958 . S
C903 H918 0.961 . S
C903 H919 0.960 . S
H904 C888 0.931 . S
H905 C893 0.929 . S
H906 C894 0.960 . S
H907 C894 0.962 . S
H908 C894 0.960 . S
H909 C895 0.961 . S
H910 C895 0.961 . S
H911 C895 0.961 . S
H912 C896 0.931 . S
H913 C901 0.930 . S
H914 C902 0.956 . S
H915 C902 0.961 . S
H916 C902 0.961 . S
H917 C903 0.958 . S
H918 C903 0.961 . S
H919 C903 0.960 . S
C920 C921 1.391 . S
C920 C922 1.394 . S
C920 H936 0.931 . S
C921 C920 1.391 . S
C921 C925 1.376 . S
C922 C920 1.394 . S
C922 C923 1.369 . S
C922 C926 1.531 . S
C923 C922 1.369 . S
C923 C924 1.410 . S
C923 C931 1.503 . S
C924 C923 1.410 . S
C924 C925 1.392 . S
C924 C927 1.511 . S
C925 C921 1.376 . S
C925 C924 1.392 . S
C925 H937 0.929 . S
C926 C922 1.531 . S
C926 H938 0.960 . S
C926 H939 0.962 . S
C926 H940 0.960 . S
C927 C924 1.511 . S
C927 H941 0.961 . S
C927 H942 0.961 . S
C927 H943 0.961 . S
C928 C929 1.370 . S
C928 C930 1.363 . S
C928 H944 0.931 . S
C929 C928 1.370 . S
C929 C933 1.408 . S
C930 C928 1.363 . S
C930 C931 1.370 . S
C930 C934 1.524 . S
C931 C923 1.503 . S
C931 C930 1.370 . S
C931 C932 1.403 . S
C932 C931 1.403 . S
C932 C933 1.404 . S
C932 C935 1.539 . S
C933 C929 1.408 . S
C933 C932 1.404 . S
C933 H945 0.930 . S
C934 C930 1.524 . S
C934 H946 0.956 . S
C934 H947 0.961 . S
C934 H948 0.961 . S
C935 C932 1.539 . S
C935 H949 0.958 . S
C935 H950 0.961 . S
C935 H951 0.960 . S
H936 C920 0.931 . S
H937 C925 0.929 . S
H938 C926 0.960 . S
H939 C926 0.962 . S
H940 C926 0.960 . S
H941 C927 0.961 . S
H942 C927 0.961 . S
H943 C927 0.961 . S
H944 C928 0.931 . S
H945 C933 0.930 . S
H946 C934 0.956 . S
H947 C934 0.961 . S
H948 C934 0.961 . S
H949 C935 0.958 . S
H950 C935 0.961 . S
H951 C935 0.960 . S
C952 C953 1.391 . S
C952 C954 1.394 . S
C952 H968 0.931 . S
C953 C952 1.391 . S
C953 C957 1.376 . S
C954 C952 1.394 . S
C954 C955 1.369 . S
C954 C958 1.531 . S
C955 C954 1.369 . S
C955 C956 1.410 . S
C955 C963 1.503 . S
C956 C955 1.410 . S
C956 C957 1.392 . S
C956 C959 1.511 . S
C957 C953 1.376 . S
C957 C956 1.392 . S
C957 H969 0.929 . S
C958 C954 1.531 . S
C958 H970 0.960 . S
C958 H971 0.962 . S
C958 H972 0.960 . S
C959 C956 1.511 . S
C959 H973 0.961 . S
C959 H974 0.961 . S
C959 H975 0.961 . S
C960 C961 1.370 . S
C960 C962 1.363 . S
C960 H976 0.931 . S
C961 C960 1.370 . S
C961 C965 1.408 . S
C962 C960 1.363 . S
C962 C963 1.370 . S
C962 C966 1.524 . S
C963 C955 1.503 . S
C963 C962 1.370 . S
C963 C964 1.403 . S
C964 C963 1.403 . S
C964 C965 1.404 . S
C964 C967 1.539 . S
C965 C961 1.408 . S
C965 C964 1.404 . S
C965 H977 0.930 . S
C966 C962 1.524 . S
C966 H978 0.956 . S
C966 H979 0.961 . S
C966 H980 0.961 . S
C967 C964 1.539 . S
C967 H981 0.958 . S
C967 H982 0.961 . S
C967 H983 0.960 . S
H968 C952 0.931 . S
H969 C957 0.929 . S
H970 C958 0.960 . S
H971 C958 0.962 . S
H972 C958 0.960 . S
H973 C959 0.961 . S
H974 C959 0.961 . S
H975 C959 0.961 . S
H976 C960 0.931 . S
H977 C965 0.930 . S
H978 C966 0.956 . S
H979 C966 0.961 . S
H980 C966 0.961 . S
H981 C967 0.958 . S
H982 C967 0.961 . S
H983 C967 0.960 . S
C984 C985 1.391 . S
C984 C986 1.394 . S
C984 H1000 0.931 . S
C985 C984 1.391 . S
C985 C989 1.376 . S
C986 C984 1.394 . S
C986 C987 1.369 . S
C986 C990 1.531 . S
C987 C986 1.369 . S
C987 C988 1.410 . S
C987 C995 1.503 . S
C988 C987 1.410 . S
C988 C989 1.392 . S
C988 C991 1.511 . S
C989 C985 1.376 . S
C989 C988 1.392 . S
C989 H1001 0.929 . S
C990 C986 1.531 . S
C990 H1002 0.960 . S
C990 H1003 0.962 . S
C990 H1004 0.960 . S
C991 C988 1.511 . S
C991 H1005 0.961 . S
C991 H1006 0.961 . S
C991 H1007 0.961 . S
C992 C993 1.370 . S
C992 C994 1.363 . S
C992 H1008 0.931 . S
C993 C992 1.370 . S
C993 C997 1.408 . S
C994 C992 1.363 . S
C994 C995 1.370 . S
C994 C998 1.524 . S
C995 C987 1.503 . S
C995 C994 1.370 . S
C995 C996 1.403 . S
C996 C995 1.403 . S
C996 C997 1.404 . S
C996 C999 1.539 . S
C997 C993 1.408 . S
C997 C996 1.404 . S
C997 H1009 0.930 . S
C998 C994 1.524 . S
C998 H1010 0.956 . S
C998 H1011 0.961 . S
C998 H1012 0.961 . S
C999 C996 1.539 . S
C999 H1013 0.958 . S
C999 H1014 0.961 . S
C999 H1015 0.960 . S
H1000 C984 0.931 . S
H1001 C989 0.929 . S
H1002 C990 0.960 . S
H1003 C990 0.962 . S
H1004 C990 0.960 . S
H1005 C991 0.961 . S
H1006 C991 0.961 . S
H1007 C991 0.961 . S
H1008 C992 0.931 . S
H1009 C997 0.930 . S
H1010 C998 0.956 . S
H1011 C998 0.961 . S
H1012 C998 0.961 . S
H1013 C999 0.958 . S
H1014 C999 0.961 . S
H1015 C999 0.960 . S
C1016 C1017 1.391 . S
C1016 C1018 1.394 . S
C1016 H1032 0.931 . S
C1017 C1016 1.391 . S
C1017 C1021 1.376 . S
C1018 C1016 1.394 . S
C1018 C1019 1.369 . S
C1018 C1022 1.531 . S
C1019 C1018 1.369 . S
C1019 C1020 1.410 . S
C1019 C1027 1.503 . S
C1020 C1019 1.410 . S
C1020 C1021 1.392 . S
C1020 C1023 1.511 . S
C1021 C1017 1.376 . S
C1021 C1020 1.392 . S
C1021 H1033 0.929 . S
C1022 C1018 1.531 . S
C1022 H1034 0.960 . S
C1022 H1035 0.962 . S
C1022 H1036 0.960 . S
C1023 C1020 1.511 . S
C1023 H1037 0.961 . S
C1023 H1038 0.961 . S
C1023 H1039 0.961 . S
C1024 C1025 1.370 . S
C1024 C1026 1.363 . S
C1024 H1040 0.931 . S
C1025 C1024 1.370 . S
C1025 C1029 1.408 . S
C1026 C1024 1.363 . S
C1026 C1027 1.370 . S
C1026 C1030 1.524 . S
C1027 C1019 1.503 . S
C1027 C1026 1.370 . S
C1027 C1028 1.403 . S
C1028 C1027 1.403 . S
C1028 C1029 1.404 . S
C1028 C1031 1.539 . S
C1029 C1025 1.408 . S
C1029 C1028 1.404 . S
C1029 H1041 0.930 . S
C1030 C1026 1.524 . S
C1030 H1042 0.956 . S
C1030 H1043 0.961 . S
C1030 H1044 0.961 . S
C1031 C1028 1.539 . S
C1031 H1045 0.958 . S
C1031 H1046 0.961 . S
C1031 H1047 0.960 . S
H1032 C1016 0.931 . S
H1033 C1021 0.929 . S
H1034 C1022 0.960 . S
H1035 C1022 0.962 . S
H1036 C1022 0.960 . S
H1037 C1023 0.961 . S
H1038 C1023 0.961 . S
H1039 C1023 0.961 . S
H1040 C1024 0.931 . S
H1041 C1029 0.930 . S
H1042 C1030 0.956 . S
H1043 C1030 0.961 . S
H1044 C1030 0.961 . S
H1045 C1031 0.958 . S
H1046 C1031 0.961 . S
H1047 C1031 0.960 . S
C1048 C1049 1.391 . S
C1048 C1050 1.394 . S
C1048 H1064 0.931 . S
C1049 C1048 1.391 . S
C1049 C1053 1.376 . S
C1050 C1048 1.394 . S
C1050 C1051 1.369 . S
C1050 C1054 1.531 . S
C1051 C1050 1.369 . S
C1051 C1052 1.410 . S
C1051 C1059 1.503 . S
C1052 C1051 1.410 . S
C1052 C1053 1.392 . S
C1052 C1055 1.511 . S
C1053 C1049 1.376 . S
C1053 C1052 1.392 . S
C1053 H1065 0.929 . S
C1054 C1050 1.531 . S
C1054 H1066 0.960 . S
C1054 H1067 0.962 . S
C1054 H1068 0.960 . S
C1055 C1052 1.511 . S
C1055 H1069 0.961 . S
C1055 H1070 0.961 . S
C1055 H1071 0.961 . S
C1056 C1057 1.370 . S
C1056 C1058 1.363 . S
C1056 H1072 0.931 . S
C1057 C1056 1.370 . S
C1057 C1061 1.408 . S
C1058 C1056 1.363 . S
C1058 C1059 1.370 . S
C1058 C1062 1.524 . S
C1059 C1051 1.503 . S
C1059 C1058 1.370 . S
C1059 C1060 1.403 . S
C1060 C1059 1.403 . S
C1060 C1061 1.404 . S
C1060 C1063 1.539 . S
C1061 C1057 1.408 . S
C1061 C1060 1.404 . S
C1061 H1073 0.930 . S
C1062 C1058 1.524 . S
C1062 H1074 0.956 . S
C1062 H1075 0.961 . S
C1062 H1076 0.961 . S
C1063 C1060 1.539 . S
C1063 H1077 0.958 . S
C1063 H1078 0.961 . S
C1063 H1079 0.960 . S
H1064 C1048 0.931 . S
H1065 C1053 0.929 . S
H1066 C1054 0.960 . S
H1067 C1054 0.962 . S
H1068 C1054 0.960 . S
H1069 C1055 0.961 . S
H1070 C1055 0.961 . S
H1071 C1055 0.961 . S
H1072 C1056 0.931 . S
H1073 C1061 0.930 . S
H1074 C1062 0.956 . S
H1075 C1062 0.961 . S
H1076 C1062 0.961 . S
H1077 C1063 0.958 . S
H1078 C1063 0.961 . S
H1079 C1063 0.960 . S
C1080 C1081 1.391 . S
C1080 C1082 1.394 . S
C1080 H1096 0.931 . S
C1081 C1080 1.391 . S
C1081 C1085 1.376 . S
C1082 C1080 1.394 . S
C1082 C1083 1.369 . S
C1082 C1086 1.531 . S
C1083 C1082 1.369 . S
C1083 C1084 1.410 . S
C1083 C1091 1.503 . S
C1084 C1083 1.410 . S
C1084 C1085 1.392 . S
C1084 C1087 1.511 . S
C1085 C1081 1.376 . S
C1085 C1084 1.392 . S
C1085 H1097 0.929 . S
C1086 C1082 1.531 . S
C1086 H1098 0.960 . S
C1086 H1099 0.962 . S
C1086 H1100 0.960 . S
C1087 C1084 1.511 . S
C1087 H1101 0.961 . S
C1087 H1102 0.961 . S
C1087 H1103 0.961 . S
C1088 C1089 1.370 . S
C1088 C1090 1.363 . S
C1088 H1104 0.931 . S
C1089 C1088 1.370 . S
C1089 C1093 1.408 . S
C1090 C1088 1.363 . S
C1090 C1091 1.370 . S
C1090 C1094 1.524 . S
C1091 C1083 1.503 . S
C1091 C1090 1.370 . S
C1091 C1092 1.403 . S
C1092 C1091 1.403 . S
C1092 C1093 1.404 . S
C1092 C1095 1.539 . S
C1093 C1089 1.408 . S
C1093 C1092 1.404 . S
C1093 H1105 0.930 . S
C1094 C1090 1.524 . S
C1094 H1106 0.956 . S
C1094 H1107 0.961 . S
C1094 H1108 0.961 . S
C1095 C1092 1.539 . S
C1095 H1109 0.958 . S
C1095 H1110 0.961 . S
C1095 H1111 0.960 . S
H1096 C1080 0.931 . S
H1097 C1085 0.929 . S
H1098 C1086 0.960 . S
H1099 C1086 0.962 . S
H1100 C1086 0.960 . S
H1101 C1087 0.961 . S
H1102 C1087 0.961 . S
H1103 C1087 0.961 . S
H1104 C1088 0.931 . S
H1105 C1093 0.930 . S
H1106 C1094 0.956 . S
H1107 C1094 0.961 . S
H1108 C1094 0.961 . S
H1109 C1095 0.958 . S
H1110 C1095 0.961 . S
H1111 C1095 0.960 . S
C1112 C1113 1.391 . S
C1112 C1114 1.394 . S
C1112 H1128 0.931 . S
C1113 C1112 1.391 . S
C1113 C1117 1.376 . S
C1114 C1112 1.394 . S
C1114 C1115 1.369 . S
C1114 C1118 1.531 . S
C1115 C1114 1.369 . S
C1115 C1116 1.410 . S
C1115 C1123 1.503 . S
C1116 C1115 1.410 . S
C1116 C1117 1.392 . S
C1116 C1119 1.511 . S
C1117 C1113 1.376 . S
C1117 C1116 1.392 . S
C1117 H1129 0.929 1_556 S
C1118 C1114 1.531 . S
C1118 H1130 0.960 . S
C1118 H1131 0.962 . S
C1118 H1132 0.960 . S
C1119 C1116 1.511 . S
C1119 H1133 0.959 1_556 S
C1119 H1134 0.961 . S
C1119 H1135 0.961 . S
C1120 C1121 1.370 . S
C1120 C1122 1.363 . S
C1120 H1136 0.931 . S
C1121 C1120 1.370 . S
C1121 C1125 1.408 . S
C1122 C1120 1.363 . S
C1122 C1123 1.370 . S
C1122 C1126 1.524 1_556 S
C1123 C1115 1.503 . S
C1123 C1122 1.370 . S
C1123 C1124 1.403 . S
C1124 C1123 1.403 . S
C1124 C1125 1.404 . S
C1124 C1127 1.539 . S
C1125 C1121 1.408 . S
C1125 C1124 1.404 . S
C1125 H1137 0.930 . S
C1126 C1122 1.524 1_554 S
C1126 H1138 0.956 . S
C1126 H1139 0.961 . S
C1126 H1140 0.961 . S
C1127 C1124 1.539 . S
C1127 H1141 0.958 . S
C1127 H1142 0.961 . S
C1127 H1143 0.960 . S
H1128 C1112 0.931 . S
H1129 C1117 0.929 1_554 S
H1130 C1118 0.960 . S
H1131 C1118 0.962 . S
H1132 C1118 0.960 . S
H1133 C1119 0.959 1_554 S
H1134 C1119 0.961 . S
H1135 C1119 0.961 . S
H1136 C1120 0.931 . S
H1137 C1125 0.930 . S
H1138 C1126 0.956 . S
H1139 C1126 0.961 . S
H1140 C1126 0.961 . S
H1141 C1127 0.958 . S
H1142 C1127 0.961 . S
H1143 C1127 0.960 . S
C1144 C1145 1.391 . S
C1144 C1146 1.394 . S
C1144 H1160 0.931 . S
C1145 C1144 1.391 . S
C1145 C1149 1.376 . S
C1146 C1144 1.394 . S
C1146 C1147 1.369 . S
C1146 C1150 1.531 . S
C1147 C1146 1.369 . S
C1147 C1148 1.410 . S
C1147 C1155 1.503 . S
C1148 C1147 1.410 . S
C1148 C1149 1.392 . S
C1148 C1151 1.511 . S
C1149 C1145 1.376 . S
C1149 C1148 1.392 . S
C1149 H1161 0.929 . S
C1150 C1146 1.531 . S
C1150 H1162 0.960 . S
C1150 H1163 0.962 . S
C1150 H1164 0.960 . S
C1151 C1148 1.511 . S
C1151 H1165 0.961 . S
C1151 H1166 0.961 . S
C1151 H1167 0.961 1_554 S
C1152 C1153 1.370 . S
C1152 C1154 1.363 . S
C1152 H1168 0.931 . S
C1153 C1152 1.370 . S
C1153 C1157 1.408 1_554 S
C1154 C1152 1.363 . S
C1154 C1155 1.370 . S
C1154 C1158 1.524 . S
C1155 C1147 1.503 . S
C1155 C1154 1.370 . S
C1155 C1156 1.403 . S
C1156 C1155 1.403 . S
C1156 C1157 1.404 1_554 S
C1156 C1159 1.539 1_554 S
C1157 C1153 1.408 1_556 S
C1157 C1156 1.404 1_556 S
C1157 H1169 0.930 . S
C1158 C1154 1.524 . S
C1158 H1170 0.956 . S
C1158 H1171 0.961 . S
C1158 H1172 0.961 . S
C1159 C1156 1.539 1_556 S
C1159 H1173 0.958 . S
C1159 H1174 0.961 . S
C1159 H1175 0.960 . S
H1160 C1144 0.931 . S
H1161 C1149 0.929 . S
H1162 C1150 0.960 . S
H1163 C1150 0.962 . S
H1164 C1150 0.960 . S
H1165 C1151 0.961 . S
H1166 C1151 0.961 . S
H1167 C1151 0.961 1_556 S
H1168 C1152 0.931 . S
H1169 C1157 0.930 . S
H1170 C1158 0.956 . S
H1171 C1158 0.961 . S
H1172 C1158 0.961 . S
H1173 C1159 0.958 . S
H1174 C1159 0.961 . S
H1175 C1159 0.960 . S
C1176 C1177 1.391 . S
C1176 C1178 1.394 . S
C1176 H1192 0.931 . S
C1177 C1176 1.391 . S
C1177 C1181 1.376 . S
C1178 C1176 1.394 . S
C1178 C1179 1.369 . S
C1178 C1182 1.531 . S
C1179 C1178 1.369 . S
C1179 C1180 1.410 . S
C1179 C1187 1.503 . S
C1180 C1179 1.410 . S
C1180 C1181 1.392 . S
C1180 C1183 1.511 . S
C1181 C1177 1.376 . S
C1181 C1180 1.392 . S
C1181 H1193 0.929 . S
C1182 C1178 1.531 . S
C1182 H1194 0.960 . S
C1182 H1195 0.962 . S
C1182 H1196 0.960 . S
C1183 C1180 1.511 . S
C1183 H1197 0.961 . S
C1183 H1198 0.961 . S
C1183 H1199 0.961 . S
C1184 C1185 1.370 . S
C1184 C1186 1.363 . S
C1184 H1200 0.931 . S
C1185 C1184 1.370 . S
C1185 C1189 1.408 . S
C1186 C1184 1.363 . S
C1186 C1187 1.370 . S
C1186 C1190 1.524 . S
C1187 C1179 1.503 . S
C1187 C1186 1.370 . S
C1187 C1188 1.403 . S
C1188 C1187 1.403 . S
C1188 C1189 1.404 . S
C1188 C1191 1.539 . S
C1189 C1185 1.408 . S
C1189 C1188 1.404 . S
C1189 H1201 0.930 . S
C1190 C1186 1.524 . S
C1190 H1202 0.956 . S
C1190 H1203 0.961 . S
C1190 H1204 0.961 . S
C1191 C1188 1.539 . S
C1191 H1205 0.958 . S
C1191 H1206 0.961 . S
C1191 H1207 0.960 . S
H1192 C1176 0.931 . S
H1193 C1181 0.929 . S
H1194 C1182 0.960 . S
H1195 C1182 0.962 . S
H1196 C1182 0.960 . S
H1197 C1183 0.961 . S
H1198 C1183 0.961 . S
H1199 C1183 0.961 . S
H1200 C1184 0.931 . S
H1201 C1189 0.930 . S
H1202 C1190 0.956 . S
H1203 C1190 0.961 . S
H1204 C1190 0.961 . S
H1205 C1191 0.958 . S
H1206 C1191 0.961 . S
H1207 C1191 0.960 . S
C1208 C1209 1.391 . S
C1208 C1210 1.394 . S
C1208 H1224 0.931 . S
C1209 C1208 1.391 . S
C1209 C1213 1.376 . S
C1210 C1208 1.394 . S
C1210 C1211 1.369 . S
C1210 C1214 1.531 . S
C1211 C1210 1.369 . S
C1211 C1212 1.410 . S
C1211 C1219 1.503 1_655 S
C1212 C1211 1.410 . S
C1212 C1213 1.392 . S
C1212 C1215 1.511 . S
C1213 C1209 1.376 . S
C1213 C1212 1.392 . S
C1213 H1225 0.929 . S
C1214 C1210 1.531 . S
C1214 H1226 0.960 1_655 S
C1214 H1227 0.962 . S
C1214 H1228 0.960 . S
C1215 C1212 1.511 . S
C1215 H1229 0.961 . S
C1215 H1230 0.961 . S
C1215 H1231 0.961 . S
C1216 C1217 1.370 . S
C1216 C1218 1.363 . S
C1216 H1232 0.931 . S
C1217 C1216 1.370 . S
C1217 C1221 1.408 . S
C1218 C1216 1.363 . S
C1218 C1219 1.370 . S
C1218 C1222 1.524 . S
C1219 C1211 1.503 1_455 S
C1219 C1218 1.370 . S
C1219 C1220 1.403 . S
C1220 C1219 1.403 . S
C1220 C1221 1.404 . S
C1220 C1223 1.539 . S
C1221 C1217 1.408 . S
C1221 C1220 1.404 . S
C1221 H1233 0.930 . S
C1222 C1218 1.524 . S
C1222 H1234 0.956 1_455 S
C1222 H1235 0.961 1_455 S
C1222 H1236 0.961 . S
C1223 C1220 1.539 . S
C1223 H1237 0.958 . S
C1223 H1238 0.961 . S
C1223 H1239 0.960 . S
H1224 C1208 0.931 . S
H1225 C1213 0.929 . S
H1226 C1214 0.960 1_455 S
H1227 C1214 0.962 . S
H1228 C1214 0.960 . S
H1229 C1215 0.961 . S
H1230 C1215 0.961 . S
H1231 C1215 0.961 . S
H1232 C1216 0.931 . S
H1233 C1221 0.930 . S
H1234 C1222 0.956 1_655 S
H1235 C1222 0.961 1_655 S
H1236 C1222 0.961 . S
H1237 C1223 0.958 . S
H1238 C1223 0.961 . S
H1239 C1223 0.960 . S
C1240 C1241 1.391 . S
C1240 C1242 1.394 . S
C1240 H1256 0.931 . S
C1241 C1240 1.391 . S
C1241 C1245 1.376 . S
C1242 C1240 1.394 . S
C1242 C1243 1.369 . S
C1242 C1246 1.531 . S
C1243 C1242 1.369 . S
C1243 C1244 1.410 . S
C1243 C1251 1.503 1_545 S
C1244 C1243 1.410 . S
C1244 C1245 1.392 . S
C1244 C1247 1.511 . S
C1245 C1241 1.376 . S
C1245 C1244 1.392 . S
C1245 H1257 0.929 . S
C1246 C1242 1.531 . S
C1246 H1258 0.960 1_545 S
C1246 H1259 0.962 . S
C1246 H1260 0.960 . S
C1247 C1244 1.511 . S
C1247 H1261 0.961 . S
C1247 H1262 0.961 1_545 S
C1247 H1263 0.961 . S
C1248 C1249 1.370 . S
C1248 C1250 1.363 . S
C1248 H1264 0.931 . S
C1249 C1248 1.370 . S
C1249 C1253 1.408 . S
C1250 C1248 1.363 . S
C1250 C1251 1.370 . S
C1250 C1254 1.524 . S
C1251 C1243 1.503 1_565 S
C1251 C1250 1.370 . S
C1251 C1252 1.403 . S
C1252 C1251 1.403 . S
C1252 C1253 1.404 . S
C1252 C1255 1.539 . S
C1253 C1249 1.408 . S
C1253 C1252 1.404 . S
C1253 H1265 0.930 . S
C1254 C1250 1.524 . S
C1254 H1266 0.956 1_565 S
C1254 H1267 0.961 1_565 S
C1254 H1268 0.961 . S
C1255 C1252 1.539 . S
C1255 H1269 0.958 . S
C1255 H1270 0.961 . S
C1255 H1271 0.960 . S
H1256 C1240 0.931 . S
H1257 C1245 0.929 . S
H1258 C1246 0.960 1_565 S
H1259 C1246 0.962 . S
H1260 C1246 0.960 . S
H1261 C1247 0.961 . S
H1262 C1247 0.961 1_565 S
H1263 C1247 0.961 . S
H1264 C1248 0.931 . S
H1265 C1253 0.930 . S
H1266 C1254 0.956 1_545 S
H1267 C1254 0.961 1_545 S
H1268 C1254 0.961 . S
H1269 C1255 0.958 . S
H1270 C1255 0.961 . S
H1271 C1255 0.960 . S
C1272 C1273 1.391 . S
C1272 C1274 1.394 . S
C1272 H1288 0.931 . S
C1273 C1272 1.391 . S
C1273 C1277 1.376 . S
C1274 C1272 1.394 . S
C1274 C1275 1.369 . S
C1274 C1278 1.531 . S
C1275 C1274 1.369 . S
C1275 C1276 1.410 . S
C1275 C1283 1.503 . S
C1276 C1275 1.410 . S
C1276 C1277 1.392 . S
C1276 C1279 1.511 . S
C1277 C1273 1.376 . S
C1277 C1276 1.392 . S
C1277 H1289 0.929 . S
C1278 C1274 1.531 . S
C1278 H1290 0.960 . S
C1278 H1291 0.962 . S
C1278 H1292 0.960 . S
C1279 C1276 1.511 . S
C1279 H1293 0.961 . S
C1279 H1294 0.961 . S
C1279 H1295 0.961 . S
C1280 C1281 1.370 . S
C1280 C1282 1.363 . S
C1280 H1296 0.931 . S
C1281 C1280 1.370 . S
C1281 C1285 1.408 . S
C1282 C1280 1.363 . S
C1282 C1283 1.370 . S
C1282 C1286 1.524 . S
C1283 C1275 1.503 . S
C1283 C1282 1.370 . S
C1283 C1284 1.403 . S
C1284 C1283 1.403 . S
C1284 C1285 1.404 . S
C1284 C1287 1.539 . S
C1285 C1281 1.408 . S
C1285 C1284 1.404 . S
C1285 H1297 0.930 . S
C1286 C1282 1.524 . S
C1286 H1298 0.956 . S
C1286 H1299 0.961 . S
C1286 H1300 0.961 . S
C1287 C1284 1.539 . S
C1287 H1301 0.958 . S
C1287 H1302 0.961 . S
C1287 H1303 0.960 . S
H1288 C1272 0.931 . S
H1289 C1277 0.929 . S
H1290 C1278 0.960 . S
H1291 C1278 0.962 . S
H1292 C1278 0.960 . S
H1293 C1279 0.961 . S
H1294 C1279 0.961 . S
H1295 C1279 0.961 . S
H1296 C1280 0.931 . S
H1297 C1285 0.930 . S
H1298 C1286 0.956 . S
H1299 C1286 0.961 . S
H1300 C1286 0.961 . S
H1301 C1287 0.958 . S
H1302 C1287 0.961 . S
H1303 C1287 0.960 . S
C1304 C1305 1.391 . S
C1304 C1306 1.394 . S
C1304 H1320 0.931 . S
C1305 C1304 1.391 . S
C1305 C1309 1.376 . S
C1306 C1304 1.394 . S
C1306 C1307 1.369 . S
C1306 C1310 1.531 . S
C1307 C1306 1.369 . S
C1307 C1308 1.410 . S
C1307 C1315 1.503 1_455 S
C1308 C1307 1.410 . S
C1308 C1309 1.392 . S
C1308 C1311 1.511 . S
C1309 C1305 1.376 . S
C1309 C1308 1.392 . S
C1309 H1321 0.929 . S
C1310 C1306 1.531 . S
C1310 H1322 0.960 1_455 S
C1310 H1323 0.962 . S
C1310 H1324 0.960 . S
C1311 C1308 1.511 . S
C1311 H1325 0.961 . S
C1311 H1326 0.972 . S
C1311 H1327 0.961 . S
C1312 C1313 1.370 . S
C1312 C1314 1.363 . S
C1312 H1328 0.931 . S
C1313 C1312 1.370 . S
C1313 C1317 1.408 . S
C1314 C1312 1.363 . S
C1314 C1315 1.370 . S
C1314 C1318 1.524 . S
C1315 C1307 1.503 1_655 S
C1315 C1314 1.370 . S
C1315 C1316 1.403 . S
C1316 C1315 1.403 . S
C1316 C1317 1.404 . S
C1316 C1319 1.539 . S
C1317 C1313 1.408 . S
C1317 C1316 1.404 . S
C1317 H1329 0.930 . S
C1318 C1314 1.524 . S
C1318 H1330 0.956 1_655 S
C1318 H1331 0.961 1_655 S
C1318 H1332 0.961 1_556 S
C1319 C1316 1.539 . S
C1319 H1333 0.958 . S
C1319 H1334 0.961 . S
C1319 H1335 0.960 . S
H1320 C1304 0.931 . S
H1321 C1309 0.929 . S
H1322 C1310 0.960 1_655 S
H1323 C1310 0.962 . S
H1324 C1310 0.960 . S
H1325 C1311 0.961 . S
H1326 C1311 0.972 . S
H1327 C1311 0.961 . S
H1328 C1312 0.931 . S
H1329 C1317 0.930 . S
H1330 C1318 0.956 1_455 S
H1331 C1318 0.961 1_455 S
H1332 C1318 0.961 1_554 S
H1333 C1319 0.958 . S
H1334 C1319 0.961 . S
H1335 C1319 0.960 . S
C1336 C1337 1.391 1_554 S
C1336 C1338 1.394 . S
C1336 H1352 0.931 . S
C1337 C1336 1.391 1_556 S
C1337 C1341 1.376 . S
C1338 C1336 1.394 . S
C1338 C1339 1.369 . S
C1338 C1342 1.531 . S
C1339 C1338 1.369 . S
C1339 C1340 1.410 1_554 S
C1339 C1347 1.503 1_545 S
C1340 C1339 1.410 1_556 S
C1340 C1341 1.392 . S
C1340 C1343 1.511 . S
C1341 C1337 1.376 . S
C1341 C1340 1.392 . S
C1341 H1353 0.929 . S
C1342 C1338 1.531 . S
C1342 H1354 0.960 . S
C1342 H1355 0.962 . S
C1342 H1356 0.960 . S
C1343 C1340 1.511 . S
C1343 H1357 0.961 . S
C1343 H1358 0.961 1_545 S
C1343 H1359 0.961 . S
C1344 C1345 1.370 . S
C1344 C1346 1.363 . S
C1344 H1360 0.931 . S
C1345 C1344 1.370 . S
C1345 C1349 1.408 . S
C1346 C1344 1.363 . S
C1346 C1347 1.370 . S
C1346 C1350 1.524 . S
C1347 C1339 1.503 1_565 S
C1347 C1346 1.370 . S
C1347 C1348 1.403 . S
C1348 C1347 1.403 . S
C1348 C1349 1.404 . S
C1348 C1351 1.539 . S
C1349 C1345 1.408 . S
C1349 C1348 1.404 . S
C1349 H1361 0.930 . S
C1350 C1346 1.524 . S
C1350 H1362 0.930 1_565 S
C1350 H1363 0.971 1_554 S
C1350 H1364 0.961 . S
C1351 C1348 1.539 . S
C1351 H1365 0.958 . S
C1351 H1366 0.961 1_554 S
C1351 H1367 0.960 1_554 S
H1352 C1336 0.931 . S
H1353 C1341 0.929 . S
H1354 C1342 0.960 . S
H1355 C1342 0.962 . S
H1356 C1342 0.960 . S
H1357 C1343 0.961 . S
H1358 C1343 0.961 1_565 S
H1359 C1343 0.961 . S
H1360 C1344 0.931 . S
H1361 C1349 0.930 . S
H1362 C1350 0.930 1_545 S
H1363 C1350 0.971 1_556 S
H1364 C1350 0.961 . S
H1365 C1351 0.958 . S
H1366 C1351 0.961 1_556 S
H1367 C1351 0.960 1_556 S
C409 C9 1.091 . S
C417 C5 1.068 . S
C441 C39 1.050 . S
C449 C43 1.074 . S
C473 C73 1.074 . S
C481 C77 1.055 . S
C505 C111 1.108 . S
C513 C107 1.071 . S
C537 C145 1.084 . S
C545 C141 1.079 . S
C569 C175 1.079 . S
C577 C179 1.056 . S
C601 C213 1.073 . S
C609 C209 1.081 . S
C633 C247 1.035 . S
C641 C243 1.071 . S
C665 C277 1.072 . S
C673 C281 1.079 . S
C697 C315 1.066 . S
C705 C311 1.060 . S
C729 C349 1.037 . S
C737 C345 1.074 . S
C761 C379 1.075 . S
C769 C383 1.055 . S
C793 C237 1.611 . S
C801 C33 1.608 . S
C825 C67 1.602 . S
C833 C271 1.612 . S
C857 C305 1.605 . S
C865 C101 1.605 . S
C889 C339 1.581 . S
C897 C135 1.618 . S
C921 C373 1.622 . S
C929 C169 1.600 . S
C953 C407 1.622 . S
C961 C203 1.603 . S
C985 C20 1.565 . S
C993 C360 1.571 . S
C1017 C54 1.567 . S
C1025 C394 1.570 . S
C1049 C88 1.560 . S
C1057 C224 1.576 . S
C1081 C258 1.576 . S
C1089 C122 1.569 . S
C1113 C292 1.555 1_556 S
C1121 C156 1.577 . S
C1145 C326 1.553 . S
C1153 C190 1.576 . S
C1177 C2 1.556 . S
C1185 C308 1.558 . S
C1209 C36 1.556 . S
C1217 C342 1.558 . S
C1241 C376 1.559 . S
C1249 C70 1.558 . S
C1273 C104 1.556 . S
C1281 C206 1.558 . S
C1305 C138 1.558 . S
C1313 C240 1.558 . S
C1337 C172 1.560 . S
C1345 C274 1.562 . S
