# Generated by pormake.
# Topology umo, (4)-cn, num edge types: 1
# Building blocks:
#     Node 0, Type 0, BuildingBlock: CEKHIL_clean_sbu_0, # of connection points: 4
#     Node 1, Type 0, BuildingBlock: CEKHIL_clean_sbu_0, # of connection points: 4
#     Node 2, Type 0, BuildingBlock: CEKHIL_clean_sbu_0, # of connection points: 4
#     Node 3, Type 0, BuildingBlock: CEKHIL_clean_sbu_0, # of connection points: 4
#     Node 4, Type 0, BuildingBlock: CEKHIL_clean_sbu_0, # of connection points: 4
#     Node 5, Type 0, BuildingBlock: CEKHIL_clean_sbu_0, # of connection points: 4
#     Node 6, Type 0, BuildingBlock: CEKHIL_clean_sbu_0, # of connection points: 4
#     Node 7, Type 0, BuildingBlock: CEKHIL_clean_sbu_0, # of connection points: 4
#     Node 8, Type 0, BuildingBlock: CEKHIL_clean_sbu_0, # of connection points: 4
#     Node 9, Type 0, BuildingBlock: CEKHIL_clean_sbu_0, # of connection points: 4
#     Node 10, Type 0, BuildingBlock: CEKHIL_clean_sbu_0, # of connection points: 4
#     Node 11, Type 0, BuildingBlock: CEKHIL_clean_sbu_0, # of connection points: 4
#     Edge 12, Type (0, 0), BuildingBlock: OJICUG_clean_linker_0, # of connection points: 2
#     Edge 13, Type (0, 0), BuildingBlock: OJICUG_clean_linker_0, # of connection points: 2
#     Edge 14, Type (0, 0), BuildingBlock: OJICUG_clean_linker_0, # of connection points: 2
#     Edge 15, Type (0, 0), BuildingBlock: OJICUG_clean_linker_0, # of connection points: 2
#     Edge 16, Type (0, 0), BuildingBlock: OJICUG_clean_linker_0, # of connection points: 2
#     Edge 17, Type (0, 0), BuildingBlock: OJICUG_clean_linker_0, # of connection points: 2
#     Edge 18, Type (0, 0), BuildingBlock: OJICUG_clean_linker_0, # of connection points: 2
#     Edge 19, Type (0, 0), BuildingBlock: OJICUG_clean_linker_0, # of connection points: 2
#     Edge 20, Type (0, 0), BuildingBlock: OJICUG_clean_linker_0, # of connection points: 2
#     Edge 21, Type (0, 0), BuildingBlock: OJICUG_clean_linker_0, # of connection points: 2
#     Edge 22, Type (0, 0), BuildingBlock: OJICUG_clean_linker_0, # of connection points: 2
#     Edge 23, Type (0, 0), BuildingBlock: OJICUG_clean_linker_0, # of connection points: 2
#     Edge 24, Type (0, 0), BuildingBlock: OJICUG_clean_linker_0, # of connection points: 2
#     Edge 25, Type (0, 0), BuildingBlock: OJICUG_clean_linker_0, # of connection points: 2
#     Edge 26, Type (0, 0), BuildingBlock: OJICUG_clean_linker_0, # of connection points: 2
#     Edge 27, Type (0, 0), BuildingBlock: OJICUG_clean_linker_0, # of connection points: 2
#     Edge 28, Type (0, 0), BuildingBlock: OJICUG_clean_linker_0, # of connection points: 2
#     Edge 29, Type (0, 0), BuildingBlock: OJICUG_clean_linker_0, # of connection points: 2
#     Edge 30, Type (0, 0), BuildingBlock: OJICUG_clean_linker_0, # of connection points: 2
#     Edge 31, Type (0, 0), BuildingBlock: OJICUG_clean_linker_0, # of connection points: 2
#     Edge 32, Type (0, 0), BuildingBlock: OJICUG_clean_linker_0, # of connection points: 2
#     Edge 33, Type (0, 0), BuildingBlock: OJICUG_clean_linker_0, # of connection points: 2
#     Edge 34, Type (0, 0), BuildingBlock: OJICUG_clean_linker_0, # of connection points: 2
#     Edge 35, Type (0, 0), BuildingBlock: OJICUG_clean_linker_0, # of connection points: 2
# Relax obj value: 0.181
# Max RMSD: 0.260
# Mean RMSD: 0.260
data_MOF--net-umo--node1-CEKHIL_clean_sbu_0--edge1-OJICUG_clean_linker_0
_symmetry_space_group_name_H-M    P1
_symmetry_Int_Tables_number       1
_symmetry_cell_setting            triclinic
loop_
_symmetry_equiv_pos_as_xyz
'x, y, z'
_cell_length_a     35.291098
_cell_length_b     35.327915
_cell_length_c     25.58329
_cell_angle_alpha  90.021614
_cell_angle_beta   90.053573
_cell_angle_gamma 119.87114
loop_
_atom_site_label
_atom_site_type_symbol
_atom_site_fract_x
_atom_site_fract_y
_atom_site_fract_z
_atom_type_partial_charge
Co0 Co 0.16012 0.54263 0.37805 0.0
O1 O 0.10508 0.50211 0.34834 0.0
O2 O 0.12731 0.57208 0.36347 0.0
C3 C 0.20172 0.52374 0.32738 0.0
O4 O 0.21463 0.59338 0.40791 0.0
Co5 Co 0.20719 0.50315 0.44031 0.0
O6 O 0.24523 0.56488 0.46053 0.0
C7 C 0.14531 0.52212 0.49565 0.0
C8 C 0.09715 0.53418 0.34657 0.0
C9 C 0.24217 0.59706 0.44319 0.0
O10 O 0.13505 0.53175 0.45134 0.0
O11 O 0.17189 0.50749 0.49974 0.0
O12 O 0.18864 0.54984 0.31025 0.0
O13 O 0.18473 0.50539 0.37182 0.0
Co14 Co 0.64006 0.16244 0.56021 0.0
O15 O 0.63685 0.10683 0.56093 0.0
O16 O 0.58048 0.11715 0.54784 0.0
C17 C 0.69901 0.1962 0.50526 0.0
O18 O 0.63163 0.21473 0.55514 0.0
Co19 Co 0.72123 0.24287 0.60617 0.0
O20 O 0.6985 0.27361 0.56288 0.0
C21 C 0.64619 0.18799 0.67606 0.0
C22 C 0.59576 0.09043 0.54958 0.0
C23 C 0.658 0.2559 0.55199 0.0
O24 O 0.62763 0.16017 0.63862 0.0
O25 O 0.68396 0.22209 0.67107 0.0
O26 O 0.65998 0.17101 0.48745 0.0
O27 O 0.70215 0.19606 0.55586 0.0
Co28 Co 0.45205 0.60902 0.71027 0.0
O29 O 0.49216 0.58855 0.69846 0.0
O30 O 0.42012 0.54583 0.70264 0.0
C31 C 0.48046 0.66578 0.6524 0.0
O32 O 0.40205 0.6206 0.72305 0.0
Co33 Co 0.49324 0.7001 0.76304 0.0
O34 O 0.43316 0.68968 0.75346 0.0
C35 C 0.46559 0.62337 0.82992 0.0
C36 C 0.45856 0.54954 0.69792 0.0
C37 C 0.39976 0.65372 0.74007 0.0
O38 O 0.45354 0.60005 0.78818 0.0
O39 O 0.48531 0.66516 0.82882 0.0
O40 O 0.45482 0.62603 0.63682 0.0
O41 O 0.49325 0.66887 0.70062 0.0
Co42 Co 0.83328 0.43914 0.87513 0.0
O43 O 0.89052 0.47696 0.84841 0.0
O44 O 0.8628 0.40601 0.86294 0.0
C45 C 0.79654 0.46267 0.82232 0.0
O46 O 0.77578 0.39083 0.90255 0.0
Co47 Co 0.79008 0.48473 0.93427 0.0
O48 O 0.74752 0.42351 0.9522 0.0
C49 C 0.84544 0.45887 0.99321 0.0
C50 C 0.89557 0.44304 0.84788 0.0
C51 C 0.748 0.38964 0.93593 0.0
O52 O 0.85545 0.44772 0.94976 0.0
O53 O 0.82165 0.47682 0.99552 0.0
O54 O 0.80764 0.43489 0.80566 0.0
O55 O 0.81299 0.47967 0.86747 0.0
Co56 Co 0.33871 0.82887 0.06127 0.0
O57 O 0.34301 0.88401 0.04804 0.0
O58 O 0.39934 0.87265 0.04914 0.0
C59 C 0.28212 0.78924 1.00405 0.0
O60 O 0.34528 0.77602 0.0732 0.0
Co61 Co 0.25168 0.75915 0.11295 0.0
O62 O 0.28404 0.72694 0.11524 0.0
C63 C 0.32841 0.81619 0.18005 0.0
C64 C 0.3845 0.89934 0.04128 0.0
C65 C 0.32256 0.74012 0.0982 0.0
O66 O 0.34831 0.84013 0.13998 0.0
O67 O 0.28918 0.78403 0.17735 0.0
O68 O 0.32207 0.81173 0.98806 0.0
O69 O 0.27682 0.79596 0.05266 0.0
Co70 Co 0.54077 0.38317 0.22126 0.0
O71 O 0.50272 0.40304 0.19747 0.0
O72 O 0.57458 0.44536 0.20645 0.0
C73 C 0.5136 0.32295 0.16896 0.0
O74 O 0.58902 0.37166 0.24428 0.0
Co75 Co 0.49672 0.29755 0.28329 0.0
O76 O 0.55594 0.30503 0.28142 0.0
C77 C 0.52434 0.37929 0.34032 0.0
C78 C 0.53704 0.44126 0.19338 0.0
C79 C 0.59012 0.33967 0.26686 0.0
O80 O 0.53606 0.39894 0.2961 0.0
O81 O 0.50526 0.33765 0.34417 0.0
O82 O 0.54172 0.36129 0.15181 0.0
O83 O 0.49802 0.32272 0.21516 0.0
Co84 Co 0.46537 0.83972 0.46874 0.0
O85 O 0.51933 0.8933 0.46233 0.0
O86 O 0.45636 0.8879 0.48598 0.0
C87 C 0.49198 0.80351 0.51748 0.0
O88 O 0.40418 0.78987 0.48107 0.0
Co89 Co 0.45568 0.75624 0.41805 0.0
O90 O 0.41032 0.73002 0.47283 0.0
C91 C 0.4325 0.81287 0.35604 0.0
C92 C 0.49823 0.91235 0.47875 0.0
C93 C 0.38943 0.74891 0.4874 0.0
O94 O 0.44835 0.84194 0.39261 0.0
O95 O 0.43267 0.77673 0.35871 0.0
O96 O 0.48251 0.83105 0.53856 0.0
O97 O 0.49051 0.8028 0.46664 0.0
Co98 Co 0.60197 0.44989 0.64943 0.0
O99 O 0.58416 0.48893 0.67639 0.0
O100 O 0.53923 0.41837 0.66174 0.0
C101 C 0.6618 0.4713 0.70202 0.0
O102 O 0.61087 0.40125 0.62167 0.0
Co103 Co 0.69025 0.49623 0.58957 0.0
O104 O 0.67452 0.43498 0.57711 0.0
C105 C 0.60883 0.46954 0.53121 0.0
C106 C 0.54478 0.45599 0.67695 0.0
C107 C 0.63995 0.40071 0.59181 0.0
O108 O 0.58835 0.45887 0.57503 0.0
O109 O 0.6505 0.48749 0.52827 0.0
O110 O 0.62274 0.4446 0.71874 0.0
O111 O 0.66281 0.4891 0.65726 0.0
Co112 Co 0.13771 0.59305 0.80913 0.0
O113 O 0.07683 0.57043 0.81973 0.0
O114 O 0.10903 0.5301 0.81894 0.0
C115 C 0.16282 0.65081 0.86543 0.0
O116 O 0.20061 0.60802 0.7982 0.0
Co117 Co 0.18254 0.68231 0.75274 0.0
O118 O 0.23482 0.67759 0.76899 0.0
C119 C 0.13746 0.60334 0.6886 0.0
C120 C 0.0733 0.53223 0.82224 0.0
C121 C 0.23509 0.64317 0.78345 0.0
O122 O 0.12797 0.58158 0.73141 0.0
O123 O 0.1571 0.64514 0.68789 0.0
O124 O 0.15049 0.61175 0.88216 0.0
O125 O 0.15317 0.65238 0.81668 0.0
Co126 Co 0.51782 0.15187 0.97237 0.0
O127 O 0.4638 0.09851 0.96504 0.0
O128 O 0.52734 0.10286 0.98262 0.0
C129 C 0.4927 0.18543 0.02808 0.0
O130 O 0.57939 0.20166 0.98325 0.0
Co131 Co 0.52437 0.23742 0.93174 0.0
O132 O 0.57322 0.26184 0.98254 0.0
C133 C 0.54584 0.18438 0.86007 0.0
C134 C 0.4853 0.07864 0.97629 0.0
C135 C 0.59501 0.24263 0.99113 0.0
O136 O 0.53205 0.15355 0.89447 0.0
O137 O 0.54455 0.21963 0.86736 0.0
O138 O 0.50324 0.15737 0.045 0.0
O139 O 0.49232 0.18815 0.97748 0.0
Co140 Co 0.39514 0.5463 0.14847 0.0
O141 O 0.4098 0.50127 0.15205 0.0
O142 O 0.45735 0.57215 0.16084 0.0
C143 C 0.33517 0.51667 0.20188 0.0
O144 O 0.39028 0.60058 0.14623 0.0
Co145 Co 0.30721 0.51872 0.09097 0.0
O146 O 0.32319 0.57874 0.11243 0.0
C147 C 0.38543 0.54434 0.02774 0.0
C148 C 0.44989 0.53223 0.15846 0.0
C149 C 0.35954 0.60758 0.1318 0.0
O150 O 0.40753 0.5531 0.07044 0.0
O151 O 0.3437 0.52638 0.02703 0.0
O152 O 0.37439 0.53631 0.22123 0.0
O153 O 0.33392 0.50928 0.15204 0.0
Co154 Co 0.85055 0.38611 0.30873 0.0
O155 O 0.9108 0.40345 0.31247 0.0
O156 O 0.88456 0.44894 0.31844 0.0
C157 C 0.82429 0.32839 0.36483 0.0
O158 O 0.78939 0.37718 0.30572 0.0
Co159 Co 0.79409 0.29719 0.2539 0.0
O160 O 0.74709 0.30672 0.28154 0.0
C161 C 0.843 0.37441 0.18819 0.0
C162 C 0.91817 0.44309 0.3167 0.0
C163 C 0.75196 0.34321 0.29703 0.0
O164 O 0.85565 0.39671 0.23063 0.0
O165 O 0.82023 0.33264 0.18814 0.0
O166 O 0.84164 0.36811 0.38202 0.0
O167 O 0.82993 0.32554 0.31503 0.0
C168 C 0.29505 0.64335 0.51145 0.0
C169 C 0.27196 0.64024 0.46532 0.0
H170 H 0.35142 0.68379 0.5576 0.0
C171 C 0.27992 0.67852 0.43943 0.0
H172 H 0.28826 0.61454 0.53366 0.0
C173 C 0.31527 0.71849 0.45456 0.0
C174 C 0.34294 0.71988 0.49488 0.0
H175 H 0.26168 0.67717 0.40472 0.0
H176 H 0.32464 0.74668 0.42981 0.0
C177 C 0.3304 0.68312 0.52625 0.0
C178 C 0.61102 0.28286 0.58718 0.0
C179 C 0.64043 0.28527 0.54858 0.0
H180 H 0.58818 0.31866 0.63228 0.0
C181 C 0.66247 0.3227 0.51787 0.0
H182 H 0.59415 0.25416 0.61167 0.0
C183 C 0.65917 0.35927 0.52959 0.0
C184 C 0.6344 0.35904 0.5728 0.0
H185 H 0.68527 0.32494 0.48799 0.0
H186 H 0.67864 0.3887 0.50707 0.0
C187 C 0.60808 0.31983 0.59943 0.0
C188 C 0.27847 0.60599 0.7652 0.0
C189 C 0.27688 0.64394 0.77756 0.0
H190 H 0.31882 0.57927 0.74213 0.0
C191 C 0.31555 0.68447 0.77689 0.0
H192 H 0.24892 0.57441 0.76464 0.0
C193 C 0.35485 0.68739 0.76297 0.0
C194 C 0.35676 0.64978 0.74978 0.0
H195 H 0.31537 0.71432 0.78617 0.0
H196 H 0.38385 0.71941 0.7627 0.0
C197 C 0.31823 0.60891 0.75128 0.0
C198 C 0.69507 0.34728 1.00579 0.0
C199 C 0.71555 0.34763 0.95851 0.0
H200 H 0.64014 0.31099 0.05567 0.0
C201 C 0.70303 0.3081 0.93265 0.0
H202 H 0.70527 0.37703 0.02783 0.0
C203 C 0.6664 0.2699 0.94982 0.0
C204 C 0.64214 0.27137 0.99252 0.0
H205 H 0.71903 0.30734 0.89687 0.0
H206 H 0.6539 0.2409 0.92567 0.0
C207 C 0.65853 0.30933 0.02269 0.0
C208 C 0.33 0.69077 0.16002 0.0
C209 C 0.34246 0.71396 0.11265 0.0
H210 H 0.3279 0.6386 0.20451 0.0
C211 C 0.3713 0.7095 0.07905 0.0
H212 H 0.30887 0.69484 0.18739 0.0
C213 C 0.38287 0.67783 0.08963 0.0
C214 C 0.36599 0.65126 0.134 0.0
H215 H 0.38175 0.72764 0.04277 0.0
H216 H 0.40103 0.67102 0.06058 0.0
C217 C 0.34164 0.65942 0.17057 0.0
C218 C 0.71195 0.38311 0.27837 0.0
C219 C 0.7123 0.34646 0.29892 0.0
H220 H 0.67254 0.40952 0.25083 0.0
C221 C 0.67287 0.30926 0.31222 0.0
H222 H 0.74214 0.41194 0.26724 0.0
C223 C 0.63343 0.30756 0.30235 0.0
C224 C 0.63255 0.34308 0.27879 0.0
H225 H 0.67248 0.28064 0.32819 0.0
H226 H 0.60361 0.27778 0.31196 0.0
C227 C 0.67219 0.38138 0.26817 0.0
C228 C 0.12988 0.53823 0.63935 0.0
C229 C 0.13091 0.5787 0.63869 0.0
H230 H 0.13378 0.48861 0.595 0.0
C231 C 0.13064 0.5969 0.58994 0.0
H232 H 0.13038 0.52322 0.67606 0.0
C233 C 0.13124 0.57615 0.54329 0.0
C234 C 0.13338 0.5373 0.54414 0.0
H235 H 0.13151 0.62794 0.58783 0.0
H236 H 0.13313 0.59226 0.50656 0.0
C237 C 0.13178 0.51819 0.5928 0.0
C238 C 0.63168 0.22264 0.7532 0.0
C239 C 0.62097 0.1844 0.7249 0.0
H240 H 0.6163 0.2524 0.81611 0.0
C241 C 0.58457 0.14497 0.74176 0.0
H242 H 0.65896 0.2538 0.7415 0.0
C243 C 0.56001 0.14408 0.786 0.0
C244 C 0.57035 0.18288 0.813 0.0
H245 H 0.5751 0.1149 0.72083 0.0
H246 H 0.53251 0.11334 0.79836 0.0
C247 C 0.60667 0.22195 0.7959 0.0
C248 C 0.4495 0.60082 0.97641 0.0
C249 C 0.40967 0.56095 0.97764 0.0
H250 H 0.49831 0.65227 0.92902 0.0
C251 C 0.39118 0.54005 0.93007 0.0
H252 H 0.46441 0.61805 1.01237 0.0
C253 C 0.41122 0.55911 0.88244 0.0
C254 C 0.44965 0.60028 0.88095 0.0
H255 H 0.36055 0.50944 0.9296 0.0
H256 H 0.39511 0.54258 0.84659 0.0
C257 C 0.46891 0.62057 0.92863 0.0
C258 C 0.85506 0.44075 0.138 0.0
C259 C 0.85089 0.39889 0.13802 0.0
H260 H 0.85645 0.49257 0.09254 0.0
C261 C 0.85053 0.37982 0.08968 0.0
H262 H 0.85518 0.45643 0.17445 0.0
C263 C 0.85268 0.40134 0.04265 0.0
C264 C 0.85397 0.44192 0.04266 0.0
H265 H 0.84738 0.34774 0.08816 0.0
H266 H 0.85042 0.38475 1.00617 0.0
C267 C 0.85589 0.46166 0.091 0.0
C268 C 0.39583 0.85579 0.23929 0.0
C269 C 0.35398 0.81979 0.2288 0.0
H270 H 0.45345 0.88275 0.28843 0.0
C271 C 0.33853 0.78332 0.26218 0.0
H272 H 0.40916 0.88429 0.21432 0.0
C273 C 0.36435 0.78189 0.30281 0.0
C274 C 0.40627 0.81724 0.31286 0.0
H275 H 0.30695 0.7546 0.25562 0.0
H276 H 0.35138 0.75263 0.32651 0.0
C277 C 0.42137 0.85485 0.28154 0.0
C278 C 0.52172 0.38993 0.43782 0.0
C279 C 0.54048 0.40656 0.38875 0.0
H280 H 0.52767 0.39769 0.521 0.0
C281 C 0.57908 0.44763 0.38703 0.0
H282 H 0.49221 0.35846 0.44075 0.0
C283 C 0.60012 0.46974 0.43315 0.0
C284 C 0.58248 0.45208 0.48231 0.0
H285 H 0.59481 0.46143 0.35003 0.0
H286 H 0.6312 0.49973 0.43033 0.0
C287 C 0.54209 0.41269 0.4839 0.0
C288 C 0.9911 0.47648 0.27785 0.0
C289 C 0.96344 0.4789 0.31532 0.0
H290 H 0.05657 0.49387 0.25821 0.0
C291 C 0.98135 0.50885 0.35664 0.0
H292 H 0.97776 0.45363 0.24557 0.0
C293 C 0.02683 0.53228 0.36368 0.0
C294 C 0.054 0.52548 0.32944 0.0
H295 H 0.96036 0.51075 0.38615 0.0
H296 H 0.04018 0.55175 0.39871 0.0
C297 C 0.03609 0.49955 0.28492 0.0
C298 C 0.56776 0.97914 0.50072 0.0
C299 C 0.52222 0.9585 0.49481 0.0
H300 H 0.62621 0.03631 0.5239 0.0
C301 C 0.50041 0.9813 0.50815 0.0
H302 H 0.58552 0.96234 0.49133 0.0
C303 C 0.52404 0.02428 0.5267 0.0
C304 C 0.56958 0.04453 0.5331 0.0
H305 H 0.46525 0.96596 0.5043 0.0
H306 H 0.50676 0.04154 0.53615 0.0
C307 C 0.59108 0.02146 0.52003 0.0
C308 C 0.49081 0.51036 0.74114 0.0
C309 C 0.46587 0.51219 0.69957 0.0
H310 H 0.53487 0.48913 0.76677 0.0
C311 C 0.45849 0.48582 0.65542 0.0
H312 H 0.49717 0.53085 0.77531 0.0
C313 C 0.47985 0.46143 0.65077 0.0
C314 C 0.50879 0.46374 0.69009 0.0
H315 H 0.43998 0.4875 0.62258 0.0
H316 H 0.47765 0.44497 0.6142 0.0
C317 C 0.5122 0.48639 0.73639 0.0
C318 C 0.00203 0.48959 0.78017 0.0
C319 C 0.02941 0.49392 0.82226 0.0
H320 H 0.93657 0.46861 0.75546 0.0
C321 C 0.01104 0.47117 0.86879 0.0
H322 H 0.01569 0.50751 0.74423 0.0
C323 C 0.96551 0.44835 0.87498 0.0
C324 C 0.93849 0.44875 0.83485 0.0
H325 H 0.03168 0.47503 0.90206 0.0
H326 H 0.95189 0.43495 0.91297 0.0
C327 C 0.95684 0.46739 0.78653 0.0
C328 C 0.48245 0.00972 1.00813 0.0
C329 C 0.46142 0.03137 0.98745 0.0
H330 H 0.47447 0.9503 0.0417 0.0
C331 C 0.41577 0.00844 0.98229 0.0
H332 H 0.51764 0.02668 1.01268 0.0
C333 C 0.39141 0.96564 0.99957 0.0
C334 C 0.41198 0.94428 0.02193 0.0
H335 H 0.39847 0.02396 0.96632 0.0
H336 H 0.35618 0.94939 0.99569 0.0
C337 C 0.45783 0.96623 0.025 0.0
C338 C 0.51332 0.53241 0.20224 0.0
C339 C 0.4848 0.5213 0.15945 0.0
H340 H 0.55438 0.51521 0.2465 0.0
C341 C 0.48377 0.49212 0.12165 0.0
H342 H 0.51419 0.55471 0.23192 0.0
C343 C 0.50703 0.4704 0.12942 0.0
C344 C 0.5313 0.4773 0.1753 0.0
H345 H 0.46207 0.48337 0.08824 0.0
H346 H 0.50227 0.4448 0.1023 0.0
C347 C 0.53652 0.51019 0.21031 0.0
C348 C 0.26627 0.51151 0.31956 0.0
C349 C 0.23243 0.51538 0.29598 0.0
H350 H 0.32556 0.50946 0.30817 0.0
C351 C 0.23035 0.51535 0.24094 0.0
H352 H 0.26898 0.51179 0.36175 0.0
C353 C 0.26189 0.51262 0.21017 0.0
C354 C 0.29731 0.5115 0.23364 0.0
H355 H 0.2046 0.51822 0.22155 0.0
H356 H 0.25961 0.51355 0.16806 0.0
C357 C 0.29869 0.51028 0.28875 0.0
C358 C 0.80091 0.29676 0.45466 0.0
C359 C 0.79601 0.29112 0.39998 0.0
H360 H 0.77524 0.27109 0.53073 0.0
C361 C 0.76126 0.25197 0.38063 0.0
H362 H 0.82743 0.32649 0.471 0.0
C363 C 0.73067 0.2206 0.41507 0.0
C364 C 0.73464 0.2271 0.46973 0.0
H365 H 0.75645 0.24646 0.33892 0.0
H366 H 0.70319 0.19161 0.39875 0.0
C367 C 0.77097 0.26499 0.48907 0.0
C368 C 0.48603 0.69783 0.56304 0.0
C369 C 0.4899 0.7035 0.61777 0.0
H370 H 0.4853 0.72517 0.48822 0.0
C371 C 0.49882 0.74393 0.63838 0.0
H372 H 0.47935 0.6671 0.54579 0.0
C373 C 0.50118 0.77686 0.60536 0.0
C374 C 0.49561 0.7706 0.55075 0.0
H375 H 0.50186 0.74941 0.68021 0.0
H376 H 0.50619 0.80694 0.62288 0.0
C377 C 0.48948 0.73115 0.52991 0.0
C378 C 0.76655 0.47107 0.73651 0.0
C379 C 0.76604 0.47189 0.79164 0.0
H380 H 0.73518 0.47214 0.66468 0.0
C381 C 0.73353 0.47723 0.81642 0.0
H382 H 0.79114 0.46684 0.71624 0.0
C383 C 0.70081 0.47899 0.78684 0.0
C384 C 0.70071 0.4771 0.73177 0.0
H385 H 0.73192 0.47752 0.85868 0.0
H386 H 0.67476 0.48064 0.80718 0.0
C387 C 0.7347 0.47438 0.70687 0.0
C388 C 0.25133 0.76203 0.91427 0.0
C389 C 0.24735 0.7565 0.96903 0.0
H390 H 0.22696 0.73394 0.8384 0.0
C391 C 0.21253 0.71777 0.98889 0.0
H392 H 0.27784 0.79158 0.89767 0.0
C393 C 0.18407 0.68437 0.95482 0.0
C394 C 0.18892 0.68928 0.90005 0.0
H395 H 0.20867 0.71229 0.03068 0.0
H396 H 0.15884 0.65403 0.97147 0.0
C397 C 0.2221 0.7291 0.88018 0.0
C398 C 0.49436 0.24453 0.15405 0.0
C399 C 0.49991 0.28413 0.13472 0.0
H400 H 0.48809 0.18234 0.13537 0.0
C401 C 0.49832 0.28897 0.08021 0.0
H402 H 0.4959 0.23998 0.19571 0.0
C403 C 0.49313 0.25588 0.04566 0.0
C404 C 0.49062 0.21743 0.0646 0.0
H405 H 0.50249 0.31916 0.06405 0.0
H406 H 0.49333 0.26145 1.00402 0.0
C407 C 0.49017 0.21168 0.11932 0.0
loop_
_geom_bond_atom_site_label_1
_geom_bond_atom_site_label_2
_geom_bond_distance
_geom_bond_site_symmetry_2
_ccdc_geom_bond_type
Co0 O1 2.216 . S
Co0 O2 2.091 . S
Co0 O4 2.004 . S
Co0 O10 2.021 . S
Co0 O12 2.137 . S
Co0 O13 2.244 . S
O1 Co0 2.216 . S
O1 C8 1.247 . S
O2 Co0 2.091 . S
O2 C8 1.261 . S
C3 O12 1.247 . S
C3 O13 1.272 . S
O4 Co0 2.004 . S
O4 C9 1.259 . S
Co5 O6 2.061 . S
Co5 O11 2.052 . S
Co5 O13 2.135 . S
O6 Co5 2.061 . S
O6 C9 1.235 . S
C7 O10 1.238 . S
C7 O11 1.241 . S
C8 O1 1.247 . S
C8 O2 1.261 . S
C9 O4 1.259 . S
C9 O6 1.235 . S
O10 Co0 2.021 . S
O10 C7 1.238 . S
O11 Co5 2.052 . S
O11 C7 1.241 . S
O12 Co0 2.137 . S
O12 C3 1.247 . S
O13 Co0 2.244 . S
O13 C3 1.272 . S
O13 Co5 2.135 . S
Co14 O15 2.216 . S
Co14 O16 2.091 . S
Co14 O18 2.004 . S
Co14 O24 2.021 . S
Co14 O26 2.137 . S
Co14 O27 2.244 . S
O15 Co14 2.216 . S
O15 C22 1.247 . S
O16 Co14 2.091 . S
O16 C22 1.261 . S
C17 O26 1.247 . S
C17 O27 1.272 . S
O18 Co14 2.004 . S
O18 C23 1.259 . S
Co19 O20 2.061 . S
Co19 O25 2.052 . S
Co19 O27 2.135 . S
O20 Co19 2.061 . S
O20 C23 1.235 . S
C21 O24 1.238 . S
C21 O25 1.241 . S
C22 O15 1.247 . S
C22 O16 1.261 . S
C23 O18 1.259 . S
C23 O20 1.235 . S
O24 Co14 2.021 . S
O24 C21 1.238 . S
O25 Co19 2.052 . S
O25 C21 1.241 . S
O26 Co14 2.137 . S
O26 C17 1.247 . S
O27 Co14 2.244 . S
O27 C17 1.272 . S
O27 Co19 2.135 . S
Co28 O29 2.216 . S
Co28 O30 2.091 . S
Co28 O32 2.004 . S
Co28 O38 2.021 . S
Co28 O40 2.137 . S
Co28 O41 2.244 . S
O29 Co28 2.216 . S
O29 C36 1.247 . S
O30 Co28 2.091 . S
O30 C36 1.261 . S
C31 O40 1.247 . S
C31 O41 1.272 . S
O32 Co28 2.004 . S
O32 C37 1.259 . S
Co33 O34 2.061 . S
Co33 O39 2.052 . S
Co33 O41 2.135 . S
O34 Co33 2.061 . S
O34 C37 1.235 . S
C35 O38 1.238 . S
C35 O39 1.241 . S
C36 O29 1.247 . S
C36 O30 1.261 . S
C37 O32 1.259 . S
C37 O34 1.235 . S
O38 Co28 2.021 . S
O38 C35 1.238 . S
O39 Co33 2.052 . S
O39 C35 1.241 . S
O40 Co28 2.137 . S
O40 C31 1.247 . S
O41 Co28 2.244 . S
O41 C31 1.272 . S
O41 Co33 2.135 . S
Co42 O43 2.216 . S
Co42 O44 2.091 . S
Co42 O46 2.004 . S
Co42 O52 2.021 . S
Co42 O54 2.137 . S
Co42 O55 2.244 . S
O43 Co42 2.216 . S
O43 C50 1.247 . S
O44 Co42 2.091 . S
O44 C50 1.261 . S
C45 O54 1.247 . S
C45 O55 1.272 . S
O46 Co42 2.004 . S
O46 C51 1.259 . S
Co47 O48 2.061 . S
Co47 O53 2.052 . S
Co47 O55 2.135 . S
O48 Co47 2.061 . S
O48 C51 1.235 . S
C49 O52 1.238 . S
C49 O53 1.241 . S
C50 O43 1.247 . S
C50 O44 1.261 . S
C51 O46 1.259 . S
C51 O48 1.235 . S
O52 Co42 2.021 . S
O52 C49 1.238 . S
O53 Co47 2.052 . S
O53 C49 1.241 . S
O54 Co42 2.137 . S
O54 C45 1.247 . S
O55 Co42 2.244 . S
O55 C45 1.272 . S
O55 Co47 2.135 . S
Co56 O57 2.216 . S
Co56 O58 2.091 . S
Co56 O60 2.004 . S
Co56 O66 2.021 . S
Co56 O68 2.137 1_554 S
Co56 O69 2.244 . S
O57 Co56 2.216 . S
O57 C64 1.247 . S
O58 Co56 2.091 . S
O58 C64 1.261 . S
C59 O68 1.247 1_554 S
C59 O69 1.272 . S
O60 Co56 2.004 . S
O60 C65 1.259 . S
Co61 O62 2.061 . S
Co61 O67 2.052 . S
Co61 O69 2.135 . S
O62 Co61 2.061 . S
O62 C65 1.235 . S
C63 O66 1.238 . S
C63 O67 1.241 . S
C64 O57 1.247 . S
C64 O58 1.261 . S
C65 O60 1.259 . S
C65 O62 1.235 . S
O66 Co56 2.021 . S
O66 C63 1.238 . S
O67 Co61 2.052 . S
O67 C63 1.241 . S
O68 Co56 2.137 1_556 S
O68 C59 1.247 1_556 S
O69 Co56 2.244 . S
O69 C59 1.272 . S
O69 Co61 2.135 . S
Co70 O71 2.216 . S
Co70 O72 2.091 . S
Co70 O74 2.004 . S
Co70 O80 2.021 . S
Co70 O82 2.137 . S
Co70 O83 2.244 . S
O71 Co70 2.216 . S
O71 C78 1.247 . S
O72 Co70 2.091 . S
O72 C78 1.261 . S
C73 O82 1.247 . S
C73 O83 1.272 . S
O74 Co70 2.004 . S
O74 C79 1.259 . S
Co75 O76 2.061 . S
Co75 O81 2.052 . S
Co75 O83 2.135 . S
O76 Co75 2.061 . S
O76 C79 1.235 . S
C77 O80 1.238 . S
C77 O81 1.241 . S
C78 O71 1.247 . S
C78 O72 1.261 . S
C79 O74 1.259 . S
C79 O76 1.235 . S
O80 Co70 2.021 . S
O80 C77 1.238 . S
O81 Co75 2.052 . S
O81 C77 1.241 . S
O82 Co70 2.137 . S
O82 C73 1.247 . S
O83 Co70 2.244 . S
O83 C73 1.272 . S
O83 Co75 2.135 . S
Co84 O85 2.216 . S
Co84 O86 2.091 . S
Co84 O88 2.004 . S
Co84 O94 2.021 . S
Co84 O96 2.137 . S
Co84 O97 2.244 . S
O85 Co84 2.216 . S
O85 C92 1.247 . S
O86 Co84 2.091 . S
O86 C92 1.261 . S
C87 O96 1.247 . S
C87 O97 1.272 . S
O88 Co84 2.004 . S
O88 C93 1.259 . S
Co89 O90 2.061 . S
Co89 O95 2.052 . S
Co89 O97 2.135 . S
O90 Co89 2.061 . S
O90 C93 1.235 . S
C91 O94 1.238 . S
C91 O95 1.241 . S
C92 O85 1.247 . S
C92 O86 1.261 . S
C93 O88 1.259 . S
C93 O90 1.235 . S
O94 Co84 2.021 . S
O94 C91 1.238 . S
O95 Co89 2.052 . S
O95 C91 1.241 . S
O96 Co84 2.137 . S
O96 C87 1.247 . S
O97 Co84 2.244 . S
O97 C87 1.272 . S
O97 Co89 2.135 . S
Co98 O99 2.216 . S
Co98 O100 2.091 . S
Co98 O102 2.004 . S
Co98 O108 2.021 . S
Co98 O110 2.137 . S
Co98 O111 2.244 . S
O99 Co98 2.216 . S
O99 C106 1.247 . S
O100 Co98 2.091 . S
O100 C106 1.261 . S
C101 O110 1.247 . S
C101 O111 1.272 . S
O102 Co98 2.004 . S
O102 C107 1.259 . S
Co103 O104 2.061 . S
Co103 O109 2.052 . S
Co103 O111 2.135 . S
O104 Co103 2.061 . S
O104 C107 1.235 . S
C105 O108 1.238 . S
C105 O109 1.241 . S
C106 O99 1.247 . S
C106 O100 1.261 . S
C107 O102 1.259 . S
C107 O104 1.235 . S
O108 Co98 2.021 . S
O108 C105 1.238 . S
O109 Co103 2.052 . S
O109 C105 1.241 . S
O110 Co98 2.137 . S
O110 C101 1.247 . S
O111 Co98 2.244 . S
O111 C101 1.272 . S
O111 Co103 2.135 . S
Co112 O113 2.216 . S
Co112 O114 2.091 . S
Co112 O116 2.004 . S
Co112 O122 2.021 . S
Co112 O124 2.137 . S
Co112 O125 2.244 . S
O113 Co112 2.216 . S
O113 C120 1.247 . S
O114 Co112 2.091 . S
O114 C120 1.261 . S
C115 O124 1.247 . S
C115 O125 1.272 . S
O116 Co112 2.004 . S
O116 C121 1.259 . S
Co117 O118 2.061 . S
Co117 O123 2.052 . S
Co117 O125 2.135 . S
O118 Co117 2.061 . S
O118 C121 1.235 . S
C119 O122 1.238 . S
C119 O123 1.241 . S
C120 O113 1.247 . S
C120 O114 1.261 . S
C121 O116 1.259 . S
C121 O118 1.235 . S
O122 Co112 2.021 . S
O122 C119 1.238 . S
O123 Co117 2.052 . S
O123 C119 1.241 . S
O124 Co112 2.137 . S
O124 C115 1.247 . S
O125 Co112 2.244 . S
O125 C115 1.272 . S
O125 Co117 2.135 . S
Co126 O127 2.216 . S
Co126 O128 2.091 . S
Co126 O130 2.004 . S
Co126 O136 2.021 . S
Co126 O138 2.137 1_556 S
Co126 O139 2.244 . S
O127 Co126 2.216 . S
O127 C134 1.247 . S
O128 Co126 2.091 . S
O128 C134 1.261 . S
C129 O138 1.247 1_556 S
C129 O139 1.272 . S
O130 Co126 2.004 . S
O130 C135 1.259 . S
Co131 O132 2.061 . S
Co131 O137 2.052 . S
Co131 O139 2.135 . S
O132 Co131 2.061 . S
O132 C135 1.235 . S
C133 O136 1.238 . S
C133 O137 1.241 . S
C134 O127 1.247 . S
C134 O128 1.261 . S
C135 O130 1.259 . S
C135 O132 1.235 . S
O136 Co126 2.021 . S
O136 C133 1.238 . S
O137 Co131 2.052 . S
O137 C133 1.241 . S
O138 Co126 2.137 1_554 S
O138 C129 1.247 1_554 S
O139 Co126 2.244 . S
O139 C129 1.272 . S
O139 Co131 2.135 . S
Co140 O141 2.216 . S
Co140 O142 2.091 . S
Co140 O144 2.004 . S
Co140 O150 2.021 . S
Co140 O152 2.137 . S
Co140 O153 2.244 . S
O141 Co140 2.216 . S
O141 C148 1.247 . S
O142 Co140 2.091 . S
O142 C148 1.261 . S
C143 O152 1.247 . S
C143 O153 1.272 . S
O144 Co140 2.004 . S
O144 C149 1.259 . S
Co145 O146 2.061 . S
Co145 O151 2.052 . S
Co145 O153 2.135 . S
O146 Co145 2.061 . S
O146 C149 1.235 . S
C147 O150 1.238 . S
C147 O151 1.241 . S
C148 O141 1.247 . S
C148 O142 1.261 . S
C149 O144 1.259 . S
C149 O146 1.235 . S
O150 Co140 2.021 . S
O150 C147 1.238 . S
O151 Co145 2.052 . S
O151 C147 1.241 . S
O152 Co140 2.137 . S
O152 C143 1.247 . S
O153 Co140 2.244 . S
O153 C143 1.272 . S
O153 Co145 2.135 . S
Co154 O155 2.216 . S
Co154 O156 2.091 . S
Co154 O158 2.004 . S
Co154 O164 2.021 . S
Co154 O166 2.137 . S
Co154 O167 2.244 . S
O155 Co154 2.216 . S
O155 C162 1.247 . S
O156 Co154 2.091 . S
O156 C162 1.261 . S
C157 O166 1.247 . S
C157 O167 1.272 . S
O158 Co154 2.004 . S
O158 C163 1.259 . S
Co159 O160 2.061 . S
Co159 O165 2.052 . S
Co159 O167 2.135 . S
O160 Co159 2.061 . S
O160 C163 1.235 . S
C161 O164 1.238 . S
C161 O165 1.241 . S
C162 O155 1.247 . S
C162 O156 1.261 . S
C163 O158 1.259 . S
C163 O160 1.235 . S
O164 Co154 2.021 . S
O164 C161 1.238 . S
O165 Co159 2.052 . S
O165 C161 1.241 . S
O166 Co154 2.137 . S
O166 C157 1.247 . S
O167 Co154 2.244 . S
O167 C157 1.272 . S
O167 Co159 2.135 . S
C168 C169 1.387 . S
C168 H172 0.950 . S
C168 C177 1.390 . S
C169 C168 1.387 . S
C169 C171 1.387 . S
H170 C177 0.950 . S
C171 C169 1.387 . S
C171 C173 1.390 . S
C171 H175 0.950 . S
H172 C168 0.950 . S
C173 C171 1.390 . S
C173 C174 1.387 . S
C173 H176 0.950 . S
C174 C173 1.387 . S
C174 C177 1.387 . S
H175 C171 0.950 . S
H176 C173 0.950 . S
C177 C168 1.390 . S
C177 H170 0.950 . S
C177 C174 1.387 . S
C178 C179 1.387 . S
C178 H182 0.950 . S
C178 C187 1.390 . S
C179 C178 1.387 . S
C179 C181 1.387 . S
H180 C187 0.950 . S
C181 C179 1.387 . S
C181 C183 1.390 . S
C181 H185 0.950 . S
H182 C178 0.950 . S
C183 C181 1.390 . S
C183 C184 1.387 . S
C183 H186 0.950 . S
C184 C183 1.387 . S
C184 C187 1.387 . S
H185 C181 0.950 . S
H186 C183 0.950 . S
C187 C178 1.390 . S
C187 H180 0.950 . S
C187 C184 1.387 . S
C188 C189 1.387 . S
C188 H192 0.950 . S
C188 C197 1.390 . S
C189 C188 1.387 . S
C189 C191 1.387 . S
H190 C197 0.950 . S
C191 C189 1.387 . S
C191 C193 1.390 . S
C191 H195 0.950 . S
H192 C188 0.950 . S
C193 C191 1.390 . S
C193 C194 1.387 . S
C193 H196 0.950 . S
C194 C193 1.387 . S
C194 C197 1.387 . S
H195 C191 0.950 . S
H196 C193 0.950 . S
C197 C188 1.390 . S
C197 H190 0.950 . S
C197 C194 1.387 . S
C198 C199 1.387 . S
C198 H202 0.950 . S
C198 C207 1.390 . S
C199 C198 1.387 . S
C199 C201 1.387 . S
H200 C207 0.950 . S
C201 C199 1.387 . S
C201 C203 1.390 . S
C201 H205 0.950 . S
H202 C198 0.950 . S
C203 C201 1.390 . S
C203 C204 1.387 . S
C203 H206 0.950 . S
C204 C203 1.387 . S
C204 C207 1.387 . S
H205 C201 0.950 . S
H206 C203 0.950 . S
C207 C198 1.390 . S
C207 H200 0.950 . S
C207 C204 1.387 . S
C208 C209 1.387 . S
C208 H212 0.950 . S
C208 C217 1.390 . S
C209 C208 1.387 . S
C209 C211 1.387 . S
H210 C217 0.950 . S
C211 C209 1.387 . S
C211 C213 1.390 . S
C211 H215 0.950 . S
H212 C208 0.950 . S
C213 C211 1.390 . S
C213 C214 1.387 . S
C213 H216 0.950 . S
C214 C213 1.387 . S
C214 C217 1.387 . S
H215 C211 0.950 . S
H216 C213 0.950 . S
C217 C208 1.390 . S
C217 H210 0.950 . S
C217 C214 1.387 . S
C218 C219 1.387 . S
C218 H222 0.950 . S
C218 C227 1.390 . S
C219 C218 1.387 . S
C219 C221 1.387 . S
H220 C227 0.950 . S
C221 C219 1.387 . S
C221 C223 1.390 . S
C221 H225 0.950 . S
H222 C218 0.950 . S
C223 C221 1.390 . S
C223 C224 1.387 . S
C223 H226 0.950 . S
C224 C223 1.387 . S
C224 C227 1.387 . S
H225 C221 0.950 . S
H226 C223 0.950 . S
C227 C218 1.390 . S
C227 H220 0.950 . S
C227 C224 1.387 . S
C228 C229 1.387 . S
C228 H232 0.950 . S
C228 C237 1.390 . S
C229 C228 1.387 . S
C229 C231 1.387 . S
H230 C237 0.950 . S
C231 C229 1.387 . S
C231 C233 1.390 . S
C231 H235 0.950 . S
H232 C228 0.950 . S
C233 C231 1.390 . S
C233 C234 1.387 . S
C233 H236 0.950 . S
C234 C233 1.387 . S
C234 C237 1.387 . S
H235 C231 0.950 . S
H236 C233 0.950 . S
C237 C228 1.390 . S
C237 H230 0.950 . S
C237 C234 1.387 . S
C238 C239 1.387 . S
C238 H242 0.950 . S
C238 C247 1.390 . S
C239 C238 1.387 . S
C239 C241 1.387 . S
H240 C247 0.950 . S
C241 C239 1.387 . S
C241 C243 1.390 . S
C241 H245 0.950 . S
H242 C238 0.950 . S
C243 C241 1.390 . S
C243 C244 1.387 . S
C243 H246 0.950 . S
C244 C243 1.387 . S
C244 C247 1.387 . S
H245 C241 0.950 . S
H246 C243 0.950 . S
C247 C238 1.390 . S
C247 H240 0.950 . S
C247 C244 1.387 . S
C248 C249 1.387 . S
C248 H252 0.950 1_556 S
C248 C257 1.390 . S
C249 C248 1.387 . S
C249 C251 1.387 . S
H250 C257 0.950 . S
C251 C249 1.387 . S
C251 C253 1.390 . S
C251 H255 0.950 . S
H252 C248 0.950 1_554 S
C253 C251 1.390 . S
C253 C254 1.387 . S
C253 H256 0.950 . S
C254 C253 1.387 . S
C254 C257 1.387 . S
H255 C251 0.950 . S
H256 C253 0.950 . S
C257 C248 1.390 . S
C257 H250 0.950 . S
C257 C254 1.387 . S
C258 C259 1.387 . S
C258 H262 0.950 . S
C258 C267 1.390 . S
C259 C258 1.387 . S
C259 C261 1.387 . S
H260 C267 0.950 . S
C261 C259 1.387 . S
C261 C263 1.390 . S
C261 H265 0.950 . S
H262 C258 0.950 . S
C263 C261 1.390 . S
C263 C264 1.387 . S
C263 H266 0.950 . S
C264 C263 1.387 . S
C264 C267 1.387 . S
H265 C261 0.950 . S
H266 C263 0.950 . S
C267 C258 1.390 . S
C267 H260 0.950 . S
C267 C264 1.387 . S
C268 C269 1.387 . S
C268 H272 0.950 . S
C268 C277 1.390 . S
C269 C268 1.387 . S
C269 C271 1.387 . S
H270 C277 0.950 . S
C271 C269 1.387 . S
C271 C273 1.390 . S
C271 H275 0.950 . S
H272 C268 0.950 . S
C273 C271 1.390 . S
C273 C274 1.387 . S
C273 H276 0.950 . S
C274 C273 1.387 . S
C274 C277 1.387 . S
H275 C271 0.950 . S
H276 C273 0.950 . S
C277 C268 1.390 . S
C277 H270 0.950 . S
C277 C274 1.387 . S
C278 C279 1.387 . S
C278 H282 0.950 . S
C278 C287 1.390 . S
C279 C278 1.387 . S
C279 C281 1.387 . S
H280 C287 0.950 . S
C281 C279 1.387 . S
C281 C283 1.390 . S
C281 H285 0.950 . S
H282 C278 0.950 . S
C283 C281 1.390 . S
C283 C284 1.387 . S
C283 H286 0.950 . S
C284 C283 1.387 . S
C284 C287 1.387 . S
H285 C281 0.950 . S
H286 C283 0.950 . S
C287 C278 1.390 . S
C287 H280 0.950 . S
C287 C284 1.387 . S
C288 C289 1.387 . S
C288 H292 0.950 . S
C288 C297 1.390 1_655 S
C289 C288 1.387 . S
C289 C291 1.387 . S
H290 C297 0.950 . S
C291 C289 1.387 . S
C291 C293 1.390 1_655 S
C291 H295 0.950 . S
H292 C288 0.950 . S
C293 C291 1.390 1_455 S
C293 C294 1.387 . S
C293 H296 0.950 . S
C294 C293 1.387 . S
C294 C297 1.387 . S
H295 C291 0.950 . S
H296 C293 0.950 . S
C297 C288 1.390 1_455 S
C297 H290 0.950 . S
C297 C294 1.387 . S
C298 C299 1.387 . S
C298 H302 0.950 . S
C298 C307 1.390 1_565 S
C299 C298 1.387 . S
C299 C301 1.387 . S
H300 C307 0.950 . S
C301 C299 1.387 . S
C301 C303 1.390 1_565 S
C301 H305 0.950 . S
H302 C298 0.950 . S
C303 C301 1.390 1_545 S
C303 C304 1.387 . S
C303 H306 0.950 . S
C304 C303 1.387 . S
C304 C307 1.387 . S
H305 C301 0.950 . S
H306 C303 0.950 . S
C307 C298 1.390 1_545 S
C307 H300 0.950 . S
C307 C304 1.387 . S
C308 C309 1.387 . S
C308 H312 0.950 . S
C308 C317 1.390 . S
C309 C308 1.387 . S
C309 C311 1.387 . S
H310 C317 0.950 . S
C311 C309 1.387 . S
C311 C313 1.390 . S
C311 H315 0.950 . S
H312 C308 0.950 . S
C313 C311 1.390 . S
C313 C314 1.387 . S
C313 H316 0.950 . S
C314 C313 1.387 . S
C314 C317 1.387 . S
H315 C311 0.950 . S
H316 C313 0.950 . S
C317 C308 1.390 . S
C317 H310 0.950 . S
C317 C314 1.387 . S
C318 C319 1.387 . S
C318 H322 0.950 . S
C318 C327 1.390 1_455 S
C319 C318 1.387 . S
C319 C321 1.387 . S
H320 C327 0.950 . S
C321 C319 1.387 . S
C321 C323 1.390 1_455 S
C321 H325 0.950 . S
H322 C318 0.950 . S
C323 C321 1.390 1_655 S
C323 C324 1.387 . S
C323 H326 0.950 . S
C324 C323 1.387 . S
C324 C327 1.387 . S
H325 C321 0.950 . S
H326 C323 0.950 . S
C327 C318 1.390 1_655 S
C327 H320 0.950 . S
C327 C324 1.387 . S
C328 C329 1.387 . S
C328 H332 0.950 . S
C328 C337 1.390 1_546 S
C329 C328 1.387 . S
C329 C331 1.387 . S
H330 C337 0.950 . S
C331 C329 1.387 . S
C331 C333 1.390 1_546 S
C331 H335 0.950 . S
H332 C328 0.950 . S
C333 C331 1.390 1_564 S
C333 C334 1.387 . S
C333 H336 0.950 . S
C334 C333 1.387 . S
C334 C337 1.387 . S
H335 C331 0.950 . S
H336 C333 0.950 . S
C337 C328 1.390 1_564 S
C337 H330 0.950 . S
C337 C334 1.387 . S
C338 C339 1.387 . S
C338 H342 0.950 . S
C338 C347 1.390 . S
C339 C338 1.387 . S
C339 C341 1.387 . S
H340 C347 0.950 . S
C341 C339 1.387 . S
C341 C343 1.390 . S
C341 H345 0.950 . S
H342 C338 0.950 . S
C343 C341 1.390 . S
C343 C344 1.387 . S
C343 H346 0.950 . S
C344 C343 1.387 . S
C344 C347 1.387 . S
H345 C341 0.950 . S
H346 C343 0.950 . S
C347 C338 1.390 . S
C347 H340 0.950 . S
C347 C344 1.387 . S
C348 C349 1.387 . S
C348 H352 0.950 . S
C348 C357 1.390 . S
C349 C348 1.387 . S
C349 C351 1.387 . S
H350 C357 0.950 . S
C351 C349 1.387 . S
C351 C353 1.390 . S
C351 H355 0.950 . S
H352 C348 0.950 . S
C353 C351 1.390 . S
C353 C354 1.387 . S
C353 H356 0.950 . S
C354 C353 1.387 . S
C354 C357 1.387 . S
H355 C351 0.950 . S
H356 C353 0.950 . S
C357 C348 1.390 . S
C357 H350 0.950 . S
C357 C354 1.387 . S
C358 C359 1.387 . S
C358 H362 0.950 . S
C358 C367 1.390 . S
C359 C358 1.387 . S
C359 C361 1.387 . S
H360 C367 0.950 . S
C361 C359 1.387 . S
C361 C363 1.390 . S
C361 H365 0.950 . S
H362 C358 0.950 . S
C363 C361 1.390 . S
C363 C364 1.387 . S
C363 H366 0.950 . S
C364 C363 1.387 . S
C364 C367 1.387 . S
H365 C361 0.950 . S
H366 C363 0.950 . S
C367 C358 1.390 . S
C367 H360 0.950 . S
C367 C364 1.387 . S
C368 C369 1.387 . S
C368 H372 0.950 . S
C368 C377 1.390 . S
C369 C368 1.387 . S
C369 C371 1.387 . S
H370 C377 0.950 . S
C371 C369 1.387 . S
C371 C373 1.390 . S
C371 H375 0.950 . S
H372 C368 0.950 . S
C373 C371 1.390 . S
C373 C374 1.387 . S
C373 H376 0.950 . S
C374 C373 1.387 . S
C374 C377 1.387 . S
H375 C371 0.950 . S
H376 C373 0.950 . S
C377 C368 1.390 . S
C377 H370 0.950 . S
C377 C374 1.387 . S
C378 C379 1.387 . S
C378 H382 0.950 . S
C378 C387 1.390 . S
C379 C378 1.387 . S
C379 C381 1.387 . S
H380 C387 0.950 . S
C381 C379 1.387 . S
C381 C383 1.390 . S
C381 H385 0.950 . S
H382 C378 0.950 . S
C383 C381 1.390 . S
C383 C384 1.387 . S
C383 H386 0.950 . S
C384 C383 1.387 . S
C384 C387 1.387 . S
H385 C381 0.950 . S
H386 C383 0.950 . S
C387 C378 1.390 . S
C387 H380 0.950 . S
C387 C384 1.387 . S
C388 C389 1.387 . S
C388 H392 0.950 . S
C388 C397 1.390 . S
C389 C388 1.387 . S
C389 C391 1.387 . S
H390 C397 0.950 . S
C391 C389 1.387 . S
C391 C393 1.390 . S
C391 H395 0.950 . S
H392 C388 0.950 . S
C393 C391 1.390 . S
C393 C394 1.387 . S
C393 H396 0.950 . S
C394 C393 1.387 . S
C394 C397 1.387 . S
H395 C391 0.950 . S
H396 C393 0.950 . S
C397 C388 1.390 . S
C397 H390 0.950 . S
C397 C394 1.387 . S
C398 C399 1.387 . S
C398 H402 0.950 . S
C398 C407 1.390 . S
C399 C398 1.387 . S
C399 C401 1.387 . S
H400 C407 0.950 . S
C401 C399 1.387 . S
C401 C403 1.390 . S
C401 H405 0.950 . S
H402 C398 0.950 . S
C403 C401 1.390 . S
C403 C404 1.387 . S
C403 H406 0.950 . S
C404 C403 1.387 . S
C404 C407 1.387 . S
H405 C401 0.950 . S
H406 C403 0.950 . S
C407 C398 1.390 . S
C407 H400 0.950 . S
C407 C404 1.387 . S
C169 C9 0.994 . S
C174 C93 0.992 . S
C179 C23 0.996 . S
C184 C107 0.993 . S
C189 C121 0.996 . S
C194 C37 0.996 . S
C199 C51 0.995 . S
C204 C135 0.992 . S
C209 C65 0.994 . S
C214 C149 0.993 . S
C219 C163 0.996 . S
C224 C79 0.996 . S
C229 C119 1.676 . S
C234 C7 1.678 . S
C239 C21 1.678 . S
C244 C133 1.678 . S
C249 C147 1.675 1_556 S
C254 C35 1.678 . S
C259 C161 1.678 . S
C264 C49 1.678 1_554 S
C269 C63 1.674 . S
C274 C91 1.674 . S
C279 C77 1.678 . S
C284 C105 1.676 . S
C289 C162 1.407 . S
C294 C8 1.407 . S
C299 C92 1.406 . S
C304 C22 1.406 . S
C309 C36 1.406 . S
C314 C106 1.406 . S
C319 C120 1.406 . S
C324 C50 1.406 . S
C329 C134 1.407 . S
C334 C64 1.407 . S
C339 C148 1.406 . S
C344 C78 1.406 . S
C349 C3 1.579 . S
C354 C143 1.579 . S
C359 C157 1.580 . S
C364 C17 1.578 . S
C369 C31 1.582 . S
C374 C87 1.580 . S
C379 C45 1.579 . S
C384 C101 1.579 . S
C389 C59 1.581 1_556 S
C394 C115 1.579 . S
C399 C73 1.579 . S
C404 C129 1.581 1_554 S
