# Generated by pormake.
# Topology ubt, (5)-cn, num edge types: 1
# Building blocks:
#     Node 0, Type 0, BuildingBlock: XOMCOT_clean_sbu_1, # of connection points: 5
#     Node 1, Type 0, BuildingBlock: XOMCOT_clean_sbu_1, # of connection points: 5
#     Node 2, Type 0, BuildingBlock: XOMCOT_clean_sbu_1, # of connection points: 5
#     Node 3, Type 0, BuildingBlock: XOMCOT_clean_sbu_1, # of connection points: 5
#     Node 4, Type 0, BuildingBlock: XOMCOT_clean_sbu_1, # of connection points: 5
#     Node 5, Type 0, BuildingBlock: XOMCOT_clean_sbu_1, # of connection points: 5
#     Node 6, Type 0, BuildingBlock: XOMCOT_clean_sbu_1, # of connection points: 5
#     Node 7, Type 0, BuildingBlock: XOMCOT_clean_sbu_1, # of connection points: 5
#     Node 8, Type 0, BuildingBlock: XOMCOT_clean_sbu_1, # of connection points: 5
#     Node 9, Type 0, BuildingBlock: XOMCOT_clean_sbu_1, # of connection points: 5
#     Node 10, Type 0, BuildingBlock: XOMCOT_clean_sbu_1, # of connection points: 5
#     Node 11, Type 0, BuildingBlock: XOMCOT_clean_sbu_1, # of connection points: 5
#     Node 12, Type 0, BuildingBlock: XOMCOT_clean_sbu_1, # of connection points: 5
#     Node 13, Type 0, BuildingBlock: XOMCOT_clean_sbu_1, # of connection points: 5
#     Node 14, Type 0, BuildingBlock: XOMCOT_clean_sbu_1, # of connection points: 5
#     Node 15, Type 0, BuildingBlock: XOMCOT_clean_sbu_1, # of connection points: 5
#     Node 16, Type 0, BuildingBlock: XOMCOT_clean_sbu_1, # of connection points: 5
#     Node 17, Type 0, BuildingBlock: XOMCOT_clean_sbu_1, # of connection points: 5
#     Node 18, Type 0, BuildingBlock: XOMCOT_clean_sbu_1, # of connection points: 5
#     Node 19, Type 0, BuildingBlock: XOMCOT_clean_sbu_1, # of connection points: 5
#     Node 20, Type 0, BuildingBlock: XOMCOT_clean_sbu_1, # of connection points: 5
#     Node 21, Type 0, BuildingBlock: XOMCOT_clean_sbu_1, # of connection points: 5
#     Node 22, Type 0, BuildingBlock: XOMCOT_clean_sbu_1, # of connection points: 5
#     Node 23, Type 0, BuildingBlock: XOMCOT_clean_sbu_1, # of connection points: 5
#     Node 24, Type 0, BuildingBlock: XOMCOT_clean_sbu_1, # of connection points: 5
#     Node 25, Type 0, BuildingBlock: XOMCOT_clean_sbu_1, # of connection points: 5
#     Node 26, Type 0, BuildingBlock: XOMCOT_clean_sbu_1, # of connection points: 5
#     Node 27, Type 0, BuildingBlock: XOMCOT_clean_sbu_1, # of connection points: 5
#     Node 28, Type 0, BuildingBlock: XOMCOT_clean_sbu_1, # of connection points: 5
#     Node 29, Type 0, BuildingBlock: XOMCOT_clean_sbu_1, # of connection points: 5
#     Node 30, Type 0, BuildingBlock: XOMCOT_clean_sbu_1, # of connection points: 5
#     Node 31, Type 0, BuildingBlock: XOMCOT_clean_sbu_1, # of connection points: 5
#     Node 32, Type 0, BuildingBlock: XOMCOT_clean_sbu_1, # of connection points: 5
#     Node 33, Type 0, BuildingBlock: XOMCOT_clean_sbu_1, # of connection points: 5
#     Node 34, Type 0, BuildingBlock: XOMCOT_clean_sbu_1, # of connection points: 5
#     Node 35, Type 0, BuildingBlock: XOMCOT_clean_sbu_1, # of connection points: 5
#     Node 36, Type 0, BuildingBlock: XOMCOT_clean_sbu_1, # of connection points: 5
#     Node 37, Type 0, BuildingBlock: XOMCOT_clean_sbu_1, # of connection points: 5
#     Node 38, Type 0, BuildingBlock: XOMCOT_clean_sbu_1, # of connection points: 5
#     Node 39, Type 0, BuildingBlock: XOMCOT_clean_sbu_1, # of connection points: 5
#     Node 40, Type 0, BuildingBlock: XOMCOT_clean_sbu_1, # of connection points: 5
#     Node 41, Type 0, BuildingBlock: XOMCOT_clean_sbu_1, # of connection points: 5
#     Node 42, Type 0, BuildingBlock: XOMCOT_clean_sbu_1, # of connection points: 5
#     Node 43, Type 0, BuildingBlock: XOMCOT_clean_sbu_1, # of connection points: 5
#     Node 44, Type 0, BuildingBlock: XOMCOT_clean_sbu_1, # of connection points: 5
#     Node 45, Type 0, BuildingBlock: XOMCOT_clean_sbu_1, # of connection points: 5
#     Node 46, Type 0, BuildingBlock: XOMCOT_clean_sbu_1, # of connection points: 5
#     Node 47, Type 0, BuildingBlock: XOMCOT_clean_sbu_1, # of connection points: 5
#     Edge 48, Type (0, 0), BuildingBlock: KIFKEQ_clean_linker_1, # of connection points: 2
#     Edge 49, Type (0, 0), BuildingBlock: KIFKEQ_clean_linker_1, # of connection points: 2
#     Edge 50, Type (0, 0), BuildingBlock: KIFKEQ_clean_linker_1, # of connection points: 2
#     Edge 51, Type (0, 0), BuildingBlock: KIFKEQ_clean_linker_1, # of connection points: 2
#     Edge 52, Type (0, 0), BuildingBlock: KIFKEQ_clean_linker_1, # of connection points: 2
#     Edge 53, Type (0, 0), BuildingBlock: KIFKEQ_clean_linker_1, # of connection points: 2
#     Edge 54, Type (0, 0), BuildingBlock: KIFKEQ_clean_linker_1, # of connection points: 2
#     Edge 55, Type (0, 0), BuildingBlock: KIFKEQ_clean_linker_1, # of connection points: 2
#     Edge 56, Type (0, 0), BuildingBlock: KIFKEQ_clean_linker_1, # of connection points: 2
#     Edge 57, Type (0, 0), BuildingBlock: KIFKEQ_clean_linker_1, # of connection points: 2
#     Edge 58, Type (0, 0), BuildingBlock: KIFKEQ_clean_linker_1, # of connection points: 2
#     Edge 59, Type (0, 0), BuildingBlock: KIFKEQ_clean_linker_1, # of connection points: 2
#     Edge 60, Type (0, 0), BuildingBlock: KIFKEQ_clean_linker_1, # of connection points: 2
#     Edge 61, Type (0, 0), BuildingBlock: KIFKEQ_clean_linker_1, # of connection points: 2
#     Edge 62, Type (0, 0), BuildingBlock: KIFKEQ_clean_linker_1, # of connection points: 2
#     Edge 63, Type (0, 0), BuildingBlock: KIFKEQ_clean_linker_1, # of connection points: 2
#     Edge 64, Type (0, 0), BuildingBlock: KIFKEQ_clean_linker_1, # of connection points: 2
#     Edge 65, Type (0, 0), BuildingBlock: KIFKEQ_clean_linker_1, # of connection points: 2
#     Edge 66, Type (0, 0), BuildingBlock: KIFKEQ_clean_linker_1, # of connection points: 2
#     Edge 67, Type (0, 0), BuildingBlock: KIFKEQ_clean_linker_1, # of connection points: 2
#     Edge 68, Type (0, 0), BuildingBlock: KIFKEQ_clean_linker_1, # of connection points: 2
#     Edge 69, Type (0, 0), BuildingBlock: KIFKEQ_clean_linker_1, # of connection points: 2
#     Edge 70, Type (0, 0), BuildingBlock: KIFKEQ_clean_linker_1, # of connection points: 2
#     Edge 71, Type (0, 0), BuildingBlock: KIFKEQ_clean_linker_1, # of connection points: 2
#     Edge 72, Type (0, 0), BuildingBlock: KIFKEQ_clean_linker_1, # of connection points: 2
#     Edge 73, Type (0, 0), BuildingBlock: KIFKEQ_clean_linker_1, # of connection points: 2
#     Edge 74, Type (0, 0), BuildingBlock: KIFKEQ_clean_linker_1, # of connection points: 2
#     Edge 75, Type (0, 0), BuildingBlock: KIFKEQ_clean_linker_1, # of connection points: 2
#     Edge 76, Type (0, 0), BuildingBlock: KIFKEQ_clean_linker_1, # of connection points: 2
#     Edge 77, Type (0, 0), BuildingBlock: KIFKEQ_clean_linker_1, # of connection points: 2
#     Edge 78, Type (0, 0), BuildingBlock: KIFKEQ_clean_linker_1, # of connection points: 2
#     Edge 79, Type (0, 0), BuildingBlock: KIFKEQ_clean_linker_1, # of connection points: 2
#     Edge 80, Type (0, 0), BuildingBlock: KIFKEQ_clean_linker_1, # of connection points: 2
#     Edge 81, Type (0, 0), BuildingBlock: KIFKEQ_clean_linker_1, # of connection points: 2
#     Edge 82, Type (0, 0), BuildingBlock: KIFKEQ_clean_linker_1, # of connection points: 2
#     Edge 83, Type (0, 0), BuildingBlock: KIFKEQ_clean_linker_1, # of connection points: 2
#     Edge 84, Type (0, 0), BuildingBlock: KIFKEQ_clean_linker_1, # of connection points: 2
#     Edge 85, Type (0, 0), BuildingBlock: KIFKEQ_clean_linker_1, # of connection points: 2
#     Edge 86, Type (0, 0), BuildingBlock: KIFKEQ_clean_linker_1, # of connection points: 2
#     Edge 87, Type (0, 0), BuildingBlock: KIFKEQ_clean_linker_1, # of connection points: 2
#     Edge 88, Type (0, 0), BuildingBlock: KIFKEQ_clean_linker_1, # of connection points: 2
#     Edge 89, Type (0, 0), BuildingBlock: KIFKEQ_clean_linker_1, # of connection points: 2
#     Edge 90, Type (0, 0), BuildingBlock: KIFKEQ_clean_linker_1, # of connection points: 2
#     Edge 91, Type (0, 0), BuildingBlock: KIFKEQ_clean_linker_1, # of connection points: 2
#     Edge 92, Type (0, 0), BuildingBlock: KIFKEQ_clean_linker_1, # of connection points: 2
#     Edge 93, Type (0, 0), BuildingBlock: KIFKEQ_clean_linker_1, # of connection points: 2
#     Edge 94, Type (0, 0), BuildingBlock: KIFKEQ_clean_linker_1, # of connection points: 2
#     Edge 95, Type (0, 0), BuildingBlock: KIFKEQ_clean_linker_1, # of connection points: 2
#     Edge 96, Type (0, 0), BuildingBlock: KIFKEQ_clean_linker_1, # of connection points: 2
#     Edge 97, Type (0, 0), BuildingBlock: KIFKEQ_clean_linker_1, # of connection points: 2
#     Edge 98, Type (0, 0), BuildingBlock: KIFKEQ_clean_linker_1, # of connection points: 2
#     Edge 99, Type (0, 0), BuildingBlock: KIFKEQ_clean_linker_1, # of connection points: 2
#     Edge 100, Type (0, 0), BuildingBlock: KIFKEQ_clean_linker_1, # of connection points: 2
#     Edge 101, Type (0, 0), BuildingBlock: KIFKEQ_clean_linker_1, # of connection points: 2
#     Edge 102, Type (0, 0), BuildingBlock: KIFKEQ_clean_linker_1, # of connection points: 2
#     Edge 103, Type (0, 0), BuildingBlock: KIFKEQ_clean_linker_1, # of connection points: 2
#     Edge 104, Type (0, 0), BuildingBlock: KIFKEQ_clean_linker_1, # of connection points: 2
#     Edge 105, Type (0, 0), BuildingBlock: KIFKEQ_clean_linker_1, # of connection points: 2
#     Edge 106, Type (0, 0), BuildingBlock: KIFKEQ_clean_linker_1, # of connection points: 2
#     Edge 107, Type (0, 0), BuildingBlock: KIFKEQ_clean_linker_1, # of connection points: 2
#     Edge 108, Type (0, 0), BuildingBlock: KIFKEQ_clean_linker_1, # of connection points: 2
#     Edge 109, Type (0, 0), BuildingBlock: KIFKEQ_clean_linker_1, # of connection points: 2
#     Edge 110, Type (0, 0), BuildingBlock: KIFKEQ_clean_linker_1, # of connection points: 2
#     Edge 111, Type (0, 0), BuildingBlock: KIFKEQ_clean_linker_1, # of connection points: 2
#     Edge 112, Type (0, 0), BuildingBlock: KIFKEQ_clean_linker_1, # of connection points: 2
#     Edge 113, Type (0, 0), BuildingBlock: KIFKEQ_clean_linker_1, # of connection points: 2
#     Edge 114, Type (0, 0), BuildingBlock: KIFKEQ_clean_linker_1, # of connection points: 2
#     Edge 115, Type (0, 0), BuildingBlock: KIFKEQ_clean_linker_1, # of connection points: 2
#     Edge 116, Type (0, 0), BuildingBlock: KIFKEQ_clean_linker_1, # of connection points: 2
#     Edge 117, Type (0, 0), BuildingBlock: KIFKEQ_clean_linker_1, # of connection points: 2
#     Edge 118, Type (0, 0), BuildingBlock: KIFKEQ_clean_linker_1, # of connection points: 2
#     Edge 119, Type (0, 0), BuildingBlock: KIFKEQ_clean_linker_1, # of connection points: 2
#     Edge 120, Type (0, 0), BuildingBlock: KIFKEQ_clean_linker_1, # of connection points: 2
#     Edge 121, Type (0, 0), BuildingBlock: KIFKEQ_clean_linker_1, # of connection points: 2
#     Edge 122, Type (0, 0), BuildingBlock: KIFKEQ_clean_linker_1, # of connection points: 2
#     Edge 123, Type (0, 0), BuildingBlock: KIFKEQ_clean_linker_1, # of connection points: 2
#     Edge 124, Type (0, 0), BuildingBlock: KIFKEQ_clean_linker_1, # of connection points: 2
#     Edge 125, Type (0, 0), BuildingBlock: KIFKEQ_clean_linker_1, # of connection points: 2
#     Edge 126, Type (0, 0), BuildingBlock: KIFKEQ_clean_linker_1, # of connection points: 2
#     Edge 127, Type (0, 0), BuildingBlock: KIFKEQ_clean_linker_1, # of connection points: 2
#     Edge 128, Type (0, 0), BuildingBlock: KIFKEQ_clean_linker_1, # of connection points: 2
#     Edge 129, Type (0, 0), BuildingBlock: KIFKEQ_clean_linker_1, # of connection points: 2
#     Edge 130, Type (0, 0), BuildingBlock: KIFKEQ_clean_linker_1, # of connection points: 2
#     Edge 131, Type (0, 0), BuildingBlock: KIFKEQ_clean_linker_1, # of connection points: 2
#     Edge 132, Type (0, 0), BuildingBlock: KIFKEQ_clean_linker_1, # of connection points: 2
#     Edge 133, Type (0, 0), BuildingBlock: KIFKEQ_clean_linker_1, # of connection points: 2
#     Edge 134, Type (0, 0), BuildingBlock: KIFKEQ_clean_linker_1, # of connection points: 2
#     Edge 135, Type (0, 0), BuildingBlock: KIFKEQ_clean_linker_1, # of connection points: 2
#     Edge 136, Type (0, 0), BuildingBlock: KIFKEQ_clean_linker_1, # of connection points: 2
#     Edge 137, Type (0, 0), BuildingBlock: KIFKEQ_clean_linker_1, # of connection points: 2
#     Edge 138, Type (0, 0), BuildingBlock: KIFKEQ_clean_linker_1, # of connection points: 2
#     Edge 139, Type (0, 0), BuildingBlock: KIFKEQ_clean_linker_1, # of connection points: 2
#     Edge 140, Type (0, 0), BuildingBlock: KIFKEQ_clean_linker_1, # of connection points: 2
#     Edge 141, Type (0, 0), BuildingBlock: KIFKEQ_clean_linker_1, # of connection points: 2
#     Edge 142, Type (0, 0), BuildingBlock: KIFKEQ_clean_linker_1, # of connection points: 2
#     Edge 143, Type (0, 0), BuildingBlock: KIFKEQ_clean_linker_1, # of connection points: 2
#     Edge 144, Type (0, 0), BuildingBlock: KIFKEQ_clean_linker_1, # of connection points: 2
#     Edge 145, Type (0, 0), BuildingBlock: KIFKEQ_clean_linker_1, # of connection points: 2
#     Edge 146, Type (0, 0), BuildingBlock: KIFKEQ_clean_linker_1, # of connection points: 2
#     Edge 147, Type (0, 0), BuildingBlock: KIFKEQ_clean_linker_1, # of connection points: 2
#     Edge 148, Type (0, 0), BuildingBlock: KIFKEQ_clean_linker_1, # of connection points: 2
#     Edge 149, Type (0, 0), BuildingBlock: KIFKEQ_clean_linker_1, # of connection points: 2
#     Edge 150, Type (0, 0), BuildingBlock: KIFKEQ_clean_linker_1, # of connection points: 2
#     Edge 151, Type (0, 0), BuildingBlock: KIFKEQ_clean_linker_1, # of connection points: 2
#     Edge 152, Type (0, 0), BuildingBlock: KIFKEQ_clean_linker_1, # of connection points: 2
#     Edge 153, Type (0, 0), BuildingBlock: KIFKEQ_clean_linker_1, # of connection points: 2
#     Edge 154, Type (0, 0), BuildingBlock: KIFKEQ_clean_linker_1, # of connection points: 2
#     Edge 155, Type (0, 0), BuildingBlock: KIFKEQ_clean_linker_1, # of connection points: 2
#     Edge 156, Type (0, 0), BuildingBlock: KIFKEQ_clean_linker_1, # of connection points: 2
#     Edge 157, Type (0, 0), BuildingBlock: KIFKEQ_clean_linker_1, # of connection points: 2
#     Edge 158, Type (0, 0), BuildingBlock: KIFKEQ_clean_linker_1, # of connection points: 2
#     Edge 159, Type (0, 0), BuildingBlock: KIFKEQ_clean_linker_1, # of connection points: 2
#     Edge 160, Type (0, 0), BuildingBlock: KIFKEQ_clean_linker_1, # of connection points: 2
#     Edge 161, Type (0, 0), BuildingBlock: KIFKEQ_clean_linker_1, # of connection points: 2
#     Edge 162, Type (0, 0), BuildingBlock: KIFKEQ_clean_linker_1, # of connection points: 2
#     Edge 163, Type (0, 0), BuildingBlock: KIFKEQ_clean_linker_1, # of connection points: 2
#     Edge 164, Type (0, 0), BuildingBlock: KIFKEQ_clean_linker_1, # of connection points: 2
#     Edge 165, Type (0, 0), BuildingBlock: KIFKEQ_clean_linker_1, # of connection points: 2
#     Edge 166, Type (0, 0), BuildingBlock: KIFKEQ_clean_linker_1, # of connection points: 2
#     Edge 167, Type (0, 0), BuildingBlock: KIFKEQ_clean_linker_1, # of connection points: 2
# Relax obj value: 0.234
# Max RMSD: 0.185
# Mean RMSD: 0.180
data_MOF--net-ubt--node1-XOMCOT_clean_sbu_1--edge1-KIFKEQ_clean_linker_1
_symmetry_space_group_name_H-M    P1
_symmetry_Int_Tables_number       1
_symmetry_cell_setting            triclinic
loop_
_symmetry_equiv_pos_as_xyz
'x, y, z'
_cell_length_a     72.346299
_cell_length_b     72.664838
_cell_length_c     72.340316
_cell_angle_alpha  89.953343
_cell_angle_beta   90.442051
_cell_angle_gamma 91.411196
loop_
_atom_site_label
_atom_site_type_symbol
_atom_site_fract_x
_atom_site_fract_y
_atom_site_fract_z
_atom_type_partial_charge
C0 C 0.99484 0.19642 0.16453 0.0
C1 C 0.97971 0.19723 0.15277 0.0
N2 N 0.9784 0.18126 0.14335 0.0
N3 N 0.00274 0.1799 0.16255 0.0
C4 C 0.99235 0.17106 0.14964 0.0
H5 H 0.99993 0.20728 0.17357 0.0
Co6 Co 0.02389 0.16966 0.17266 0.0
C7 C 0.00885 0.1366 0.19161 0.0
O8 O 0.02007 0.13986 0.20567 0.0
N9 N 0.0452 0.15834 0.18218 0.0
C10 C 0.07139 0.14955 0.19556 0.0
C11 C 0.05851 0.16317 0.19462 0.0
C12 C 0.05048 0.14182 0.17576 0.0
N13 N 0.0663 0.13618 0.18358 0.0
O14 O 0.03067 0.16149 0.14852 0.0
H15 H 0.05924 0.17572 0.20255 0.0
H16 H 0.04261 0.13385 0.16567 0.0
O17 O 0.0092 0.14733 0.17762 0.0
C18 C 0.0386 0.17574 0.14159 0.0
O19 O 0.03912 0.19094 0.15144 0.0
N20 N 0.01864 0.18035 0.19549 0.0
C21 C 0.0141 0.20515 0.2245 0.0
C22 C 0.00165 0.19012 0.22205 0.0
C23 C 0.00401 0.17793 0.20718 0.0
C24 C 0.0304 0.1951 0.19753 0.0
C25 C 0.02882 0.20719 0.21217 0.0
H26 H 0.99364 0.16728 0.20459 0.0
H27 H 0.04109 0.19764 0.18742 0.0
H28 H 0.99514 0.15734 0.14471 0.0
H29 H 0.97082 0.20885 0.15081 0.0
H30 H 0.08371 0.14965 0.20415 0.0
H31 H 0.98978 0.18833 0.23095 0.0
H32 H 0.03891 0.21839 0.21346 0.0
C33 C 0.88981 0.01805 0.2174 0.0
C34 C 0.90332 0.03119 0.22112 0.0
N35 N 0.90768 0.03983 0.2052 0.0
N36 N 0.88558 0.01844 0.19921 0.0
C37 C 0.8967 0.03187 0.19214 0.0
H38 H 0.88417 0.00821 0.22718 0.0
Co39 Co 0.87107 0.0011 0.1865 0.0
C40 C 0.85197 0.02136 0.15638 0.0
O41 O 0.83755 0.01014 0.15784 0.0
N42 N 0.85681 0.98302 0.17344 0.0
C43 C 0.83585 0.96201 0.16399 0.0
C44 C 0.84081 0.97405 0.17788 0.0
C45 C 0.86122 0.97598 0.15675 0.0
N46 N 0.84875 0.96323 0.15077 0.0
O47 O 0.8927 0.99334 0.17382 0.0
H48 H 0.83289 0.97601 0.19024 0.0
H49 H 0.87319 0.98034 0.14886 0.0
O50 O 0.86587 0.01953 0.16724 0.0
C51 C 0.89847 0.9797 0.18312 0.0
O52 O 0.88982 0.97512 0.1984 0.0
N53 N 0.85065 0.00716 0.20092 0.0
C54 C 0.82136 0.00792 0.22587 0.0
C55 C 0.82301 0.02121 0.21174 0.0
C56 C 0.838 0.02075 0.19948 0.0
C57 C 0.84977 0.99495 0.21519 0.0
C58 C 0.8352 0.99486 0.22753 0.0
H59 H 0.83929 0.03123 0.18897 0.0
H60 H 0.86007 0.98448 0.21637 0.0
H61 H 0.89766 0.0349 0.17753 0.0
H62 H 0.90984 0.03381 0.23441 0.0
H63 H 0.82384 0.95281 0.16378 0.0
H64 H 0.81292 0.03188 0.21026 0.0
H65 H 0.83457 0.98414 0.23794 0.0
C66 C 0.00537 0.85882 0.19907 0.0
C67 C 0.99299 0.87254 0.20229 0.0
N68 N 0.98866 0.88034 0.18597 0.0
N69 N 0.00854 0.8578 0.18076 0.0
C70 C 0.99829 0.87119 0.17319 0.0
H71 H 0.01175 0.8503 0.20946 0.0
Co72 Co 0.02433 0.84265 0.16799 0.0
C73 C 0.00155 0.8264 0.13779 0.0
O74 O 0.01041 0.81092 0.13954 0.0
N75 N 0.04081 0.82786 0.15444 0.0
C76 C 0.06271 0.80911 0.14486 0.0
C77 C 0.05082 0.81303 0.15905 0.0
C78 C 0.04684 0.83246 0.13733 0.0
N79 N 0.06031 0.82151 0.13128 0.0
O80 O 0.03512 0.8641 0.15677 0.0
H81 H 0.05027 0.80579 0.17204 0.0
H82 H 0.04164 0.84397 0.12955 0.0
O83 O 0.00578 0.84006 0.14827 0.0
C84 C 0.05064 0.86752 0.1646 0.0
O85 O 0.05644 0.85635 0.17758 0.0
N86 N 0.01475 0.82226 0.18113 0.0
C87 C 0.0031 0.79778 0.20874 0.0
C88 C 0.99118 0.80229 0.1941 0.0
C89 C 0.99715 0.81493 0.18059 0.0
C90 C 0.02637 0.81799 0.19531 0.0
C91 C 0.02097 0.80563 0.20905 0.0
H92 H 0.98723 0.81955 0.1705 0.0
H93 H 0.03975 0.82489 0.19636 0.0
H94 H 0.99787 0.87414 0.15853 0.0
H95 H 0.98784 0.8767 0.21563 0.0
H96 H 0.07296 0.79851 0.14499 0.0
H97 H 0.9771 0.79687 0.19366 0.0
H98 H 0.03062 0.8026 0.2201 0.0
C99 C 0.16357 0.98673 0.1921 0.0
C100 C 0.15118 0.97216 0.19432 0.0
N101 N 0.14377 0.96801 0.17765 0.0
N102 N 0.16381 0.99166 0.17412 0.0
C103 C 0.15164 0.98 0.16573 0.0
H104 H 0.17128 0.99373 0.20298 0.0
Co105 Co 0.17505 0.01192 0.16278 0.0
C106 C 0.19057 0.99602 0.1284 0.0
O107 O 0.2053 0.00691 0.12965 0.0
N108 N 0.18575 0.0326 0.1508 0.0
C109 C 0.20044 0.05864 0.14275 0.0
C110 C 0.1987 0.04529 0.15614 0.0
C111 C 0.17973 0.0388 0.13422 0.0
N112 N 0.18842 0.05455 0.12898 0.0
O113 O 0.15135 0.01998 0.15477 0.0
H114 H 0.20621 0.04544 0.16905 0.0
H115 H 0.16912 0.03178 0.12608 0.0
O116 O 0.1779 0.997 0.14054 0.0
C117 C 0.1436 0.02735 0.16858 0.0
O118 O 0.15199 0.02686 0.18475 0.0
N119 N 0.19785 0.00513 0.1728 0.0
C120 C 0.22972 0.99944 0.19366 0.0
C121 C 0.22481 0.98742 0.17914 0.0
C122 C 0.2086 0.99044 0.16887 0.0
C123 C 0.20175 0.01583 0.18782 0.0
C124 C 0.21784 0.01361 0.19809 0.0
H125 H 0.20455 0.9807 0.15825 0.0
H126 H 0.19225 0.02638 0.19175 0.0
H127 H 0.14778 0.98099 0.15129 0.0
H128 H 0.14765 0.96538 0.20719 0.0
H129 H 0.20945 0.07074 0.14342 0.0
H130 H 0.23333 0.97584 0.17587 0.0
H131 H 0.22073 0.02264 0.20973 0.0
C132 C 0.01668 0.87643 0.82171 0.0
C133 C 0.02966 0.8894 0.81633 0.0
N134 N 0.03841 0.89588 0.83156 0.0
N135 N 0.01722 0.87466 0.84028 0.0
C136 C 0.03068 0.88668 0.8459 0.0
H137 H 0.00686 0.86945 0.81266 0.0
Co138 Co 1.00019 0.86114 0.85445 0.0
C139 C 0.02218 0.84421 0.88468 0.0
O140 O 0.0112 0.82955 0.88412 0.0
N141 N 0.98249 0.84787 0.86878 0.0
C142 C 0.96062 0.82838 0.879 0.0
C143 C 0.97179 0.83294 0.86441 0.0
C144 C 0.97723 0.85219 0.88617 0.0
N145 N 0.96405 0.84048 0.89272 0.0
O146 O 0.99246 0.88344 0.86589 0.0
H147 H 0.97171 0.82556 0.85152 0.0
H148 H 0.98322 0.86355 0.89402 0.0
O149 O 0.01939 0.85756 0.87351 0.0
C150 C 0.98166 0.89129 0.85451 0.0
O151 O 0.97876 0.8837 0.83823 0.0
N152 N 0.00626 0.83989 0.84131 0.0
C153 C 0.00946 0.81068 0.81656 0.0
C154 C 0.02297 0.81394 0.83036 0.0
C155 C 0.02129 0.8289 0.84247 0.0
C156 C 0.99368 0.83742 0.8274 0.0
C157 C 0.99474 0.82278 0.81521 0.0
H158 H 0.03221 0.83175 0.85236 0.0
H159 H 0.98231 0.84676 0.82614 0.0
H160 H 0.03397 0.88945 0.86027 0.0
H161 H 0.03214 0.89409 0.80234 0.0
H162 H 0.95047 0.8172 0.87932 0.0
H163 H 0.0349 0.80529 0.83152 0.0
H164 H 0.98388 0.82087 0.80496 0.0
C165 C 0.19654 0.99195 0.85807 0.0
C166 C 0.19981 0.97732 0.86969 0.0
N167 N 0.18418 0.97328 0.8791 0.0
N168 N 0.17889 0.99706 0.86006 0.0
C169 C 0.17174 0.98535 0.87278 0.0
H170 H 0.2066 0.99874 0.84927 0.0
Co171 Co 0.16626 0.01706 0.85025 0.0
C172 C 0.13452 0.99854 0.83111 0.0
O173 O 0.1359 0.00962 0.81679 0.0
N174 N 0.15267 0.03704 0.84083 0.0
C175 C 0.14194 0.06201 0.82686 0.0
C176 C 0.15648 0.05023 0.82809 0.0
C177 C 0.13568 0.04128 0.84707 0.0
N178 N 0.1289 0.05638 0.83889 0.0
O179 O 0.1564 0.02209 0.87405 0.0
H180 H 0.16894 0.05162 0.8201 0.0
H181 H 0.12824 0.03323 0.85731 0.0
O182 O 0.14583 0.00029 0.84462 0.0
C183 C 0.16903 0.02881 0.88457 0.0
O184 O 0.18616 0.02942 0.87866 0.0
N185 N 0.17809 0.01377 0.82766 0.0
C186 C 0.20372 0.01407 0.79891 0.0
C187 C 0.18973 0.00024 0.79989 0.0
C188 C 0.17705 0.00021 0.81459 0.0
C189 C 0.19192 0.02675 0.82717 0.0
C190 C 0.20432 0.02761 0.8127 0.0
H191 H 0.16706 0.989 0.81581 0.0
H192 H 0.19318 0.03674 0.83823 0.0
H193 H 0.15785 0.98643 0.87801 0.0
H194 H 0.21288 0.97058 0.87132 0.0
H195 H 0.1412 0.07401 0.81803 0.0
H196 H 0.189 0.9892 0.78985 0.0
H197 H 0.21445 0.03882 0.81258 0.0
C198 C 0.97871 0.14492 0.82336 0.0
C199 C 0.96529 0.13158 0.8202 0.0
N200 N 0.95889 0.1257 0.83665 0.0
N201 N 0.9808 0.14746 0.84174 0.0
C202 C 0.96846 0.13555 0.8495 0.0
H203 H 0.98701 0.15169 0.8129 0.0
Co204 Co 0.99936 0.1618 0.85311 0.0
C205 C 0.98169 0.1786 0.88562 0.0
O206 O 0.99145 0.19382 0.8828 0.0
N207 N 0.01865 0.1759 0.86469 0.0
C208 C 0.04132 0.19603 0.87183 0.0
C209 C 0.02781 0.19136 0.85911 0.0
C210 C 0.02705 0.1715 0.88088 0.0
N211 N 0.04088 0.1835 0.88552 0.0
O212 O 0.00964 0.13996 0.86339 0.0
H213 H 0.02521 0.19896 0.84662 0.0
H214 H 0.02294 0.15978 0.88925 0.0
O215 O 0.98343 0.16494 0.87469 0.0
C216 C 0.01895 0.13259 0.8506 0.0
O217 O 0.01924 0.14042 0.83423 0.0
N218 N 0.99032 0.18252 0.84076 0.0
C219 C 0.97973 0.20855 0.81455 0.0
C220 C 0.9691 0.20546 0.83048 0.0
C221 C 0.97442 0.19198 0.8433 0.0
C222 C 1.0005 0.18526 0.82521 0.0
C223 C 0.99565 0.1983 0.81212 0.0
H224 H 0.96536 0.18874 0.85469 0.0
H225 H 0.01249 0.17699 0.82289 0.0
H226 H 0.96727 0.13338 0.86425 0.0
H227 H 0.96088 0.12628 0.80686 0.0
H228 H 0.05101 0.20757 0.87079 0.0
H229 H 0.95647 0.21283 0.83261 0.0
H230 H 0.00431 0.20023 0.80009 0.0
C231 C 0.8028 0.02633 0.88337 0.0
C232 C 0.79922 0.04036 0.8955 0.0
N233 N 0.81546 0.04702 0.90222 0.0
N234 N 0.82123 0.02413 0.8825 0.0
C235 C 0.82857 0.03706 0.894 0.0
H236 H 0.79255 0.01759 0.87656 0.0
Co237 Co 0.83365 0.00474 0.87161 0.0
C238 C 0.864 0.02309 0.85085 0.0
O239 O 0.86143 0.01156 0.83703 0.0
N240 N 0.84667 0.98501 0.8612 0.0
C241 C 0.85593 0.9598 0.84679 0.0
C242 C 0.84141 0.97133 0.84946 0.0
C243 C 0.86441 0.98116 0.86562 0.0
N244 N 0.87038 0.96599 0.85701 0.0
O245 O 0.84552 0.99956 0.89469 0.0
H246 H 0.82792 0.96935 0.84329 0.0
H247 H 0.87293 0.98953 0.87485 0.0
O248 O 0.85369 0.02191 0.86508 0.0
C249 C 0.83493 0.99285 0.90709 0.0
O250 O 0.817 0.99228 0.90408 0.0
N251 N 0.82036 0.00859 0.84948 0.0
C252 C 0.79596 0.00942 0.81928 0.0
C253 C 0.80984 0.02316 0.82158 0.0
C254 C 0.82173 0.0227 0.83702 0.0
C255 C 0.80624 0.99595 0.84805 0.0
C256 C 0.79425 0.99578 0.83292 0.0
H257 H 0.8316 0.03389 0.83907 0.0
H258 H 0.80447 0.98564 0.85873 0.0
H259 H 0.84316 0.03817 0.89739 0.0
H260 H 0.7857 0.04481 0.89965 0.0
H261 H 0.85571 0.94755 0.83828 0.0
H262 H 0.81121 0.03441 0.81183 0.0
H263 H 0.78382 0.98488 0.83195 0.0
C264 C 0.19737 0.15997 0.97912 0.0
C265 C 0.19914 0.14644 0.96594 0.0
N266 N 0.18292 0.13694 0.96461 0.0
N267 N 0.18009 0.15895 0.98595 0.0
C268 C 0.17168 0.14491 0.97681 0.0
H269 H 0.20814 0.16946 0.98384 0.0
Co270 Co 0.16927 0.1712 0.00536 0.0
C271 C 0.13443 0.185 0.98915 0.0
O272 O 0.13638 0.20028 0.99873 0.0
N273 N 0.15758 0.18314 0.0252 0.0
C274 C 0.14628 0.20253 0.04596 0.0
C275 C 0.15983 0.20003 0.03298 0.0
C276 C 0.14269 0.1757 0.03395 0.0
N277 N 0.1357 0.18712 0.04651 0.0
O278 O 0.16177 0.14791 0.01572 0.0
H279 H 0.16997 0.21042 0.02912 0.0
H280 H 0.13631 0.16252 0.03051 0.0
O281 O 0.14655 0.17257 0.99057 0.0
C282 C 0.17574 0.14072 0.02344 0.0
O283 O 0.19189 0.14932 0.02226 0.0
N284 N 0.17903 0.1934 0.99624 0.0
C285 C 0.2013 0.22336 0.98589 0.0
C286 C 0.18649 0.21745 0.97452 0.0
C287 C 0.17547 0.20221 0.97994 0.0
C288 C 0.19404 0.1984 0.0067 0.0
C289 C 0.20505 0.21357 0.00206 0.0
H290 H 0.16465 0.19718 0.97075 0.0
H291 H 0.1974 0.19045 0.01888 0.0
H292 H 0.15784 0.13995 0.97993 0.0
H293 H 0.21155 0.1436 0.9583 0.0
H294 H 0.14417 0.21477 0.05411 0.0
H295 H 0.1836 0.22444 0.96163 0.0
H296 H 0.21672 0.21739 0.01086 0.0
C297 C 0.20569 0.86636 0.02374 0.0
C298 C 0.20985 0.8792 0.03717 0.0
N299 N 0.19406 0.88713 0.04244 0.0
N300 N 0.18732 0.86601 0.02053 0.0
C301 C 0.1806 0.8788 0.0321 0.0
H302 H 0.21557 0.85841 0.01622 0.0
Co303 Co 0.17471 0.85301 0.00181 0.0
C304 C 0.14236 0.83565 0.02006 0.0
O305 O 0.14437 0.82105 0.00963 0.0
N306 N 0.16161 0.8405 0.98243 0.0
C307 C 0.15205 0.823 0.95874 0.0
C308 C 0.16597 0.82617 0.9715 0.0
C309 C 0.14496 0.84578 0.97579 0.0
N310 N 0.13883 0.8354 0.9614 0.0
O311 O 0.16539 0.87564 0.99248 0.0
H312 H 0.17845 0.81842 0.9723 0.0
H313 H 0.13731 0.85696 0.98161 0.0
O314 O 0.15352 0.84948 0.01832 0.0
C315 C 0.17821 0.88397 0.98356 0.0
O316 O 0.19471 0.87682 0.98327 0.0
N317 N 0.18599 0.8313 0.01003 0.0
C318 C 0.21051 0.80393 0.0208 0.0
C319 C 0.19585 0.80886 0.03229 0.0
C320 C 0.18392 0.82284 0.02681 0.0
C321 C 0.20046 0.82702 0.99903 0.0
C322 C 0.21255 0.81317 0.00388 0.0
H323 H 0.17378 0.82744 0.03652 0.0
H324 H 0.20294 0.83486 0.98653 0.0
H325 H 0.16616 0.88225 0.03245 0.0
H326 H 0.22363 0.88298 0.04196 0.0
H327 H 0.15194 0.8126 0.94803 0.0
H328 H 0.19409 0.80258 0.04576 0.0
H329 H 0.22358 0.80995 0.99447 0.0
C330 C 0.86817 0.19553 0.00719 0.0
C331 C 0.87933 0.19948 0.99233 0.0
N332 N 0.88495 0.18352 0.985 0.0
N333 N 0.86658 0.17712 0.00923 0.0
C334 C 0.87701 0.17018 0.99557 0.0
H335 H 0.86213 0.20549 0.01627 0.0
Co336 Co 0.8545 0.16436 0.02833 0.0
C337 C 0.83293 0.13498 0.00908 0.0
O338 O 0.81895 0.13752 0.0202 0.0
N339 N 0.84263 0.15099 0.04798 0.0
C340 C 0.82428 0.14111 0.0708 0.0
C341 C 0.82699 0.15434 0.05747 0.0
C342 C 0.8489 0.13534 0.05588 0.0
N343 N 0.83812 0.12916 0.06986 0.0
O344 O 0.87707 0.15282 0.03448 0.0
H345 H 0.81768 0.16543 0.05498 0.0
H346 H 0.86105 0.12834 0.0513 0.0
O347 O 0.84771 0.14482 0.0109 0.0
C348 C 0.88639 0.16435 0.04424 0.0
O349 O 0.87982 0.18083 0.04682 0.0
N350 N 0.83326 0.17793 0.02359 0.0
C351 C 0.8059 0.20434 0.0211 0.0
C352 C 0.80751 0.19078 0.00734 0.0
C353 C 0.82157 0.17782 0.00867 0.0
C354 C 0.83232 0.19144 0.03655 0.0
C355 C 0.81856 0.2044 0.03587 0.0
H356 H 0.82335 0.16823 0.99747 0.0
H357 H 0.84231 0.19193 0.04775 0.0
H358 H 0.87897 0.15559 0.99366 0.0
H359 H 0.88356 0.21313 0.9878 0.0
H360 H 0.81303 0.14054 0.08057 0.0
H361 H 0.79843 0.19059 0.99536 0.0
H362 H 0.81792 0.21441 0.04691 0.0
C363 C 0.82188 0.8616 0.99994 0.0
C364 C 0.81994 0.87604 0.98779 0.0
N365 N 0.83601 0.88576 0.98753 0.0
N366 N 0.83923 0.86209 0.00695 0.0
C367 C 0.8474 0.87711 0.99928 0.0
H368 H 0.8113 0.85143 0.00336 0.0
Co369 Co 0.85049 0.84631 0.02357 0.0
C370 C 0.88398 0.83429 0.00444 0.0
O371 O 0.88158 0.81774 0.0115 0.0
N372 N 0.86239 0.8309 0.04086 0.0
C373 C 0.87094 0.81026 0.06185 0.0
C374 C 0.85734 0.81504 0.04944 0.0
C375 C 0.87903 0.83543 0.04848 0.0
N376 N 0.88459 0.82318 0.06126 0.0
O377 O 0.85916 0.86716 0.03738 0.0
H378 H 0.84457 0.80737 0.04725 0.0
H379 H 0.88707 0.8475 0.04445 0.0
O380 O 0.87253 0.84686 0.00812 0.0
C381 C 0.8468 0.86991 0.04942 0.0
O382 O 0.83214 0.85885 0.04952 0.0
N383 N 0.83976 0.82619 0.01084 0.0
C384 C 0.81359 0.80351 0.99293 0.0
C385 C 0.82953 0.80972 0.98363 0.0
C386 C 0.84236 0.8214 0.99276 0.0
C387 C 0.82453 0.8199 0.02004 0.0
C388 C 0.81149 0.80834 0.01151 0.0
H389 H 0.85342 0.82764 0.98483 0.0
H390 H 0.8218 0.82496 0.03377 0.0
H391 H 0.86155 0.88153 0.00209 0.0
H392 H 0.80763 0.87934 0.97998 0.0
H393 H 0.87054 0.79841 0.07091 0.0
H394 H 0.83142 0.80658 0.96914 0.0
H395 H 0.79941 0.80386 0.01922 0.0
C396 C 0.99158 0.70807 0.65457 0.0
C397 C 0.97817 0.71106 0.64134 0.0
N398 N 0.97242 0.69461 0.63458 0.0
N399 N 0.9943 0.68982 0.65587 0.0
C400 C 0.98226 0.68201 0.64372 0.0
H401 H 0.99987 0.71855 0.66157 0.0
Co402 Co 0.01395 0.67783 0.66666 0.0
C403 C 0.99605 0.64592 0.68547 0.0
O404 O 0.0073 0.64815 0.69969 0.0
N405 N 0.03398 0.66512 0.67691 0.0
C406 C 0.0596 0.6554 0.69068 0.0
C407 C 0.04763 0.66976 0.68905 0.0
C408 C 0.0382 0.64799 0.67128 0.0
N409 N 0.05364 0.64179 0.67938 0.0
O410 O 0.02034 0.66811 0.64302 0.0
H411 H 0.04935 0.68274 0.6961 0.0
H412 H 0.02995 0.64011 0.66142 0.0
O413 O 0.99737 0.65676 0.6716 0.0
C414 C 0.02773 0.68038 0.63269 0.0
O415 O 0.02857 0.69751 0.63848 0.0
N416 N 0.0089 0.68926 0.68923 0.0
C417 C 0.00645 0.7107 0.72096 0.0
C418 C 0.99263 0.69742 0.71674 0.0
C419 C 0.994 0.68691 0.70057 0.0
C420 C 0.02133 0.7033 0.69232 0.0
C421 C 0.02071 0.71382 0.70833 0.0
H422 H 0.98294 0.67726 0.69708 0.0
H423 H 0.03204 0.70615 0.68229 0.0
H424 H 0.98208 0.66751 0.64024 0.0
H425 H 0.97383 0.7243 0.63624 0.0
H426 H 0.07202 0.65523 0.69912 0.0
H427 H 0.98095 0.69521 0.72583 0.0
H428 H 0.03112 0.72457 0.71062 0.0
C429 C 0.86613 0.53807 0.70691 0.0
C430 C 0.8789 0.55173 0.71138 0.0
N431 N 0.88675 0.55786 0.69565 0.0
N432 N 0.866 0.53555 0.68842 0.0
C433 C 0.87865 0.54791 0.68196 0.0
H434 H 0.85832 0.52978 0.71665 0.0
Co435 Co 0.85468 0.51639 0.67495 0.0
C436 C 0.84004 0.53446 0.64076 0.0
O437 O 0.82617 0.52249 0.63983 0.0
N438 N 0.84358 0.49676 0.66108 0.0
C439 C 0.8244 0.47545 0.64882 0.0
C440 C 0.82644 0.48885 0.66212 0.0
C441 C 0.85162 0.48768 0.64702 0.0
N442 N 0.8403 0.47474 0.63945 0.0
O443 O 0.87865 0.50906 0.66672 0.0
H444 H 0.81568 0.49268 0.67149 0.0
H445 H 0.86535 0.49074 0.64193 0.0
O446 O 0.85183 0.53345 0.65397 0.0
C447 C 0.88575 0.50002 0.68002 0.0
O448 O 0.87668 0.49882 0.69565 0.0
N449 N 0.83191 0.52189 0.68546 0.0
C450 C 0.79953 0.52205 0.70631 0.0
C451 C 0.80227 0.53467 0.6917 0.0
C452 C 0.81878 0.53453 0.6815 0.0
C453 C 0.82969 0.51013 0.69998 0.0
C454 C 0.81365 0.5098 0.71036 0.0
H455 H 0.82089 0.54446 0.67057 0.0
H456 H 0.84031 0.50035 0.70305 0.0
H457 H 0.88286 0.54863 0.66765 0.0
H458 H 0.88264 0.55632 0.72518 0.0
H459 H 0.81225 0.46678 0.64632 0.0
H460 H 0.79186 0.54461 0.68831 0.0
H461 H 0.81221 0.49959 0.72119 0.0
C462 C 0.98352 0.37193 0.70825 0.0
C463 C 0.9719 0.38645 0.71067 0.0
N464 N 0.96689 0.39286 0.69388 0.0
N465 N 0.98568 0.36905 0.69003 0.0
C466 C 0.97539 0.38194 0.68165 0.0
H467 H 0.99067 0.36459 0.71905 0.0
Co468 Co 0.00248 0.35413 0.67851 0.0
C469 C 0.98128 0.33419 0.64999 0.0
O470 O 0.98989 0.31919 0.65485 0.0
N471 N 0.02011 0.33969 0.66604 0.0
C472 C 0.04366 0.32266 0.65708 0.0
C473 C 0.03172 0.3263 0.6713 0.0
C474 C 0.02532 0.34373 0.64852 0.0
N475 N 0.03971 0.33385 0.64283 0.0
O476 O 0.01235 0.37533 0.66631 0.0
H477 H 0.03231 0.31994 0.68474 0.0
H478 H 0.01887 0.35415 0.64014 0.0
O479 O 0.98482 0.34935 0.65842 0.0
C480 C 0.02693 0.38028 0.67508 0.0
O481 O 0.03209 0.3707 0.68955 0.0
N482 N 0.99363 0.33396 0.69256 0.0
C483 C 0.98397 0.30657 0.71801 0.0
C484 C 0.97099 0.31263 0.705 0.0
C485 C 0.97603 0.32661 0.69249 0.0
C486 C 0.0057 0.32935 0.70623 0.0
C487 C 0.0014 0.31534 0.71873 0.0
H488 H 0.96567 0.33174 0.68312 0.0
H489 H 0.01879 0.33676 0.70752 0.0
H490 H 0.97483 0.3837 0.66681 0.0
H491 H 0.96832 0.39245 0.72381 0.0
H492 H 0.05498 0.3132 0.65757 0.0
H493 H 0.95716 0.30658 0.70446 0.0
H494 H 0.01152 0.31162 0.72911 0.0
C495 C 0.14598 0.49316 0.69802 0.0
C496 C 0.1325 0.47968 0.7006 0.0
N497 N 0.1254 0.47504 0.68393 0.0
N498 N 0.14726 0.49691 0.6798 0.0
C499 C 0.13459 0.48564 0.67164 0.0
H500 H 0.15373 0.50026 0.7088 0.0
Co501 Co 0.16041 0.51546 0.66755 0.0
C502 C 0.17641 0.49631 0.63508 0.0
O503 O 0.19134 0.50696 0.63542 0.0
N504 N 0.17336 0.53429 0.65467 0.0
C505 C 0.19363 0.55526 0.64406 0.0
C506 C 0.18984 0.54295 0.65803 0.0
C507 C 0.16748 0.54174 0.63857 0.0
N508 N 0.1795 0.55446 0.6319 0.0
O509 O 0.13773 0.52392 0.65726 0.0
H510 H 0.19894 0.54044 0.66958 0.0
H511 H 0.15489 0.53751 0.63144 0.0
O512 O 0.16376 0.49852 0.64703 0.0
C513 C 0.12957 0.53256 0.67002 0.0
O514 O 0.13724 0.53334 0.68653 0.0
N515 N 0.18181 0.50851 0.67979 0.0
C516 C 0.21011 0.503 0.70532 0.0
C517 C 0.20755 0.49097 0.69024 0.0
C518 C 0.193 0.49381 0.67766 0.0
C519 C 0.184 0.52001 0.69452 0.0
C520 C 0.19819 0.51774 0.70719 0.0
H521 H 0.19047 0.48394 0.66674 0.0
H522 H 0.17459 0.5312 0.69628 0.0
H523 H 0.13135 0.48603 0.65702 0.0
H524 H 0.12802 0.47402 0.71372 0.0
H525 H 0.20577 0.56419 0.64298 0.0
H526 H 0.21626 0.47918 0.68857 0.0
H527 H 0.19972 0.52748 0.71846 0.0
C528 C 0.01996 0.37261 0.325 0.0
C529 C 0.03432 0.38459 0.32088 0.0
N530 N 0.04187 0.39072 0.33686 0.0
N531 N 0.01842 0.37113 0.34353 0.0
C532 C 0.03204 0.38232 0.35039 0.0
H533 H 0.01072 0.36609 0.31506 0.0
Co534 Co 0.99926 0.35885 0.35611 0.0
C535 C 0.01743 0.34074 0.3881 0.0
O536 O 0.00556 0.3268 0.38701 0.0
N537 N 0.97952 0.3469 0.3689 0.0
C538 C 0.95542 0.3292 0.37729 0.0
C539 C 0.96797 0.33289 0.36361 0.0
C540 C 0.97334 0.35157 0.38588 0.0
N541 N 0.9588 0.34093 0.39132 0.0
O542 O 0.99222 0.38159 0.36702 0.0
H543 H 0.96822 0.32559 0.35069 0.0
H544 H 0.97966 0.36234 0.3943 0.0
O545 O 0.01643 0.35401 0.37654 0.0
C546 C 0.98325 0.39063 0.35497 0.0
O547 O 0.98198 0.38407 0.33807 0.0
N548 N 0.00483 0.33717 0.34351 0.0
C549 C 0.00768 0.30758 0.3191 0.0
C550 C 0.02036 0.30999 0.33383 0.0
C551 C 0.01883 0.32508 0.34583 0.0
C552 C 0.99313 0.3355 0.32876 0.0
C553 C 0.99392 0.32065 0.31681 0.0
H554 H 0.02912 0.32718 0.35654 0.0
H555 H 0.98263 0.34566 0.32665 0.0
H556 H 0.03403 0.38506 0.36498 0.0
H557 H 0.0386 0.38883 0.30718 0.0
H558 H 0.94443 0.31883 0.37678 0.0
H559 H 0.03161 0.30061 0.3358 0.0
H560 H 0.98361 0.31945 0.30592 0.0
C561 C 0.20519 0.48501 0.37769 0.0
C562 C 0.20854 0.47135 0.3904 0.0
N563 N 0.1922 0.46507 0.39696 0.0
N564 N 0.18679 0.48737 0.37628 0.0
C565 C 0.17925 0.4749 0.38809 0.0
H566 H 0.2156 0.49337 0.3708 0.0
Co567 Co 0.17448 0.5065 0.36435 0.0
C568 C 0.14419 0.48721 0.3438 0.0
O569 O 0.14684 0.49797 0.32939 0.0
N570 N 0.16149 0.52586 0.35283 0.0
C571 C 0.1523 0.55015 0.33665 0.0
C572 C 0.16666 0.53855 0.34004 0.0
C573 C 0.14392 0.53033 0.35705 0.0
N574 N 0.138 0.54499 0.34739 0.0
O575 O 0.16282 0.51266 0.38702 0.0
H576 H 0.17995 0.53973 0.3335 0.0
H577 H 0.13547 0.52276 0.36687 0.0
O578 O 0.15446 0.48915 0.35812 0.0
C579 C 0.17457 0.52079 0.39759 0.0
O580 O 0.19195 0.52181 0.39249 0.0
N581 N 0.18802 0.50205 0.34278 0.0
C582 C 0.21447 0.50128 0.31472 0.0
C583 C 0.2003 0.48765 0.31571 0.0
C584 C 0.18729 0.48811 0.33011 0.0
C585 C 0.20214 0.51476 0.34241 0.0
C586 C 0.21508 0.51498 0.32836 0.0
H587 H 0.17711 0.47706 0.33126 0.0
H588 H 0.20313 0.52511 0.35314 0.0
H589 H 0.16463 0.47398 0.39114 0.0
H590 H 0.22198 0.46688 0.39498 0.0
H591 H 0.15254 0.56173 0.32722 0.0
H592 H 0.19959 0.47646 0.30584 0.0
H593 H 0.22549 0.52594 0.32827 0.0
C594 C 0.9839 0.63802 0.31429 0.0
C595 C 0.96952 0.62562 0.31154 0.0
N596 N 0.96523 0.61777 0.3279 0.0
N597 N 0.98859 0.63824 0.33235 0.0
C598 C 0.97702 0.62573 0.34029 0.0
H599 H 0.99071 0.64602 0.30363 0.0
Co600 Co 0.00812 0.65153 0.3434 0.0
C601 C 0.99141 0.66983 0.37579 0.0
O602 O 0.00219 0.68438 0.37301 0.0
N603 N 0.02824 0.6645 0.35471 0.0
C604 C 0.05277 0.68252 0.36129 0.0
C605 C 0.03993 0.67766 0.348 0.0
C606 C 0.03473 0.66133 0.37203 0.0
N607 N 0.04946 0.67227 0.37644 0.0
O608 O 0.01722 0.62932 0.35418 0.0
H609 H 0.03968 0.68344 0.3343 0.0
H610 H 0.02847 0.65142 0.38139 0.0
O611 O 0.99232 0.65598 0.36495 0.0
C612 C 0.02548 0.62005 0.34193 0.0
O613 O 0.02497 0.62584 0.32472 0.0
N614 N 1.00034 0.6728 0.33095 0.0
C615 C 0.9934 0.70221 0.30734 0.0
C616 C 0.98151 0.69825 0.32214 0.0
C617 C 0.98513 0.68323 0.33377 0.0
C618 C 0.01089 0.67562 0.31565 0.0
C619 C 0.00799 0.69046 0.30396 0.0
H620 H 0.97554 0.67991 0.34469 0.0
H621 H 0.02191 0.66629 0.31268 0.0
H622 H 0.97775 0.6221 0.35478 0.0
H623 H 0.96289 0.6226 0.2984 0.0
H624 H 0.06392 0.6926 0.35976 0.0
H625 H 0.96972 0.70674 0.32478 0.0
H626 H 0.01707 0.6927 0.29228 0.0
C627 C 0.80602 0.52949 0.37339 0.0
C628 C 0.80366 0.54492 0.3841 0.0
N629 N 0.82014 0.54998 0.39164 0.0
N630 N 0.82393 0.52486 0.37409 0.0
C631 C 0.83217 0.53766 0.38511 0.0
H632 H 0.79517 0.52158 0.3665 0.0
Co633 Co 0.83499 0.50351 0.36573 0.0
C634 C 0.86848 0.51744 0.34598 0.0
O635 O 0.86691 0.50435 0.3335 0.0
N636 N 0.84664 0.4819 0.35793 0.0
C637 C 0.85478 0.45514 0.34581 0.0
C638 C 0.84096 0.46774 0.34698 0.0
C639 C 0.8638 0.47721 0.36356 0.0
N640 N 0.86913 0.46115 0.35628 0.0
O641 O 0.84516 0.4995 0.38983 0.0
H642 H 0.82772 0.46631 0.34015 0.0
H643 H 0.87253 0.48579 0.3724 0.0
O644 O 0.8566 0.51844 0.35888 0.0
C645 C 0.83327 0.49486 0.40196 0.0
O646 O 0.81562 0.49536 0.39766 0.0
N647 N 0.82333 0.50638 0.34265 0.0
C648 C 0.80057 0.50642 0.31119 0.0
C649 C 0.81574 0.51884 0.31282 0.0
C650 C 0.82686 0.51877 0.32883 0.0
C651 C 0.80812 0.49503 0.34168 0.0
C652 C 0.79692 0.49442 0.32599 0.0
H653 H 0.83788 0.52896 0.3302 0.0
H654 H 0.80488 0.48605 0.35322 0.0
H655 H 0.84663 0.53731 0.38893 0.0
H656 H 0.79056 0.55114 0.38697 0.0
H657 H 0.85426 0.44248 0.33792 0.0
H658 H 0.81872 0.52885 0.30209 0.0
H659 H 0.78554 0.48448 0.32554 0.0
C660 C 0.19525 0.65925 0.48302 0.0
C661 C 0.19789 0.64468 0.4712 0.0
N662 N 0.18195 0.63466 0.47006 0.0
N663 N 0.17772 0.6584 0.48917 0.0
C664 C 0.17003 0.64336 0.48104 0.0
H665 H 0.20558 0.66942 0.48728 0.0
Co666 Co 0.16597 0.67212 0.50692 0.0
C667 C 0.13171 0.68359 0.48811 0.0
O668 O 0.13339 0.69986 0.49595 0.0
N669 N 0.15352 0.68521 0.52536 0.0
C670 C 0.14569 0.7003 0.55084 0.0
C671 C 0.15917 0.69821 0.5377 0.0
C672 C 0.13663 0.6797 0.53142 0.0
N673 N 0.13156 0.68862 0.54677 0.0
O674 O 0.15896 0.64987 0.5193 0.0
H675 H 0.17252 0.70509 0.53807 0.0
H676 H 0.12863 0.66843 0.52534 0.0
O677 O 0.14369 0.67137 0.49146 0.0
C678 C 0.17236 0.64714 0.53042 0.0
O679 O 0.18645 0.65892 0.53025 0.0
N680 N 0.17514 0.69374 0.49581 0.0
C681 C 0.19689 0.72271 0.48211 0.0
C682 C 0.18275 0.71477 0.47115 0.0
C683 C 0.172 0.70008 0.47827 0.0
C684 C 0.18955 0.70073 0.506 0.0
C685 C 0.20022 0.71552 0.49969 0.0
H686 H 0.16194 0.69329 0.46935 0.0
H687 H 0.19339 0.69416 0.51881 0.0
H688 H 0.15617 0.63833 0.48401 0.0
H689 H 0.21065 0.64154 0.46432 0.0
H690 H 0.14649 0.70925 0.5628 0.0
H691 H 0.18033 0.7196 0.4572 0.0
H692 H 0.21159 0.72076 0.50816 0.0
C693 C 0.14557 0.31465 0.49502 0.0
C694 C 0.13339 0.31156 0.4806 0.0
N695 N 0.12448 0.32728 0.47703 0.0
N696 N 0.14456 0.33232 0.5005 0.0
C697 C 0.13164 0.33965 0.48927 0.0
H698 H 0.15425 0.30447 0.50131 0.0
Co699 Co 0.15661 0.34411 0.52047 0.0
C700 C 0.17646 0.37555 0.50281 0.0
O701 O 0.19074 0.37289 0.51375 0.0
N702 N 0.16826 0.35648 0.54069 0.0
C703 C 0.18469 0.36492 0.5656 0.0
C704 C 0.18072 0.35086 0.55342 0.0
C705 C 0.16464 0.37395 0.54584 0.0
N706 N 0.17457 0.37947 0.56081 0.0
O707 O 0.13361 0.35413 0.52812 0.0
H708 H 0.18663 0.33743 0.55429 0.0
H709 H 0.15509 0.38261 0.53848 0.0
O710 O 0.16203 0.36513 0.50419 0.0
C711 C 0.12465 0.3411 0.53616 0.0
O712 O 0.13171 0.3246 0.53631 0.0
N713 N 0.1785 0.33201 0.51452 0.0
C714 C 0.20749 0.30754 0.51072 0.0
C715 C 0.20523 0.32205 0.49804 0.0
C716 C 0.19035 0.334 0.49998 0.0
C717 C 0.18003 0.31746 0.52623 0.0
C718 C 0.19459 0.30546 0.52495 0.0
H719 H 0.18814 0.34431 0.48951 0.0
H720 H 0.16976 0.31524 0.53684 0.0
H721 H 0.12706 0.35364 0.49063 0.0
H722 H 0.1312 0.29859 0.4735 0.0
H723 H 0.19404 0.36432 0.57732 0.0
H724 H 0.21446 0.32378 0.48643 0.0
H725 H 0.19562 0.29459 0.53512 0.0
C726 C 0.86803 0.70255 0.48406 0.0
C727 C 0.88031 0.70459 0.46976 0.0
N728 N 0.88867 0.68842 0.46706 0.0
N729 N 0.86836 0.6851 0.49034 0.0
C730 C 0.88108 0.67684 0.47974 0.0
H731 H 0.85968 0.71329 0.48971 0.0
Co732 Co 0.85553 0.67481 0.51051 0.0
C733 C 0.83683 0.64176 0.49495 0.0
O734 O 0.82239 0.64493 0.50527 0.0
N735 N 0.84311 0.66388 0.53115 0.0
C736 C 0.8249 0.65679 0.555 0.0
C737 C 0.8285 0.66933 0.54118 0.0
C738 C 0.84812 0.64796 0.53944 0.0
N739 N 0.83727 0.64332 0.55394 0.0
O740 O 0.87833 0.66612 0.5203 0.0
H741 H 0.82068 0.68155 0.53889 0.0
H742 H 0.85935 0.63967 0.53466 0.0
O743 O 0.85104 0.65253 0.49594 0.0
C744 C 0.8848 0.68026 0.52882 0.0
O745 O 0.87546 0.69553 0.52791 0.0
N746 N 0.83385 0.68599 0.502 0.0
C747 C 0.80699 0.71108 0.49153 0.0
C748 C 0.80981 0.69516 0.48097 0.0
C749 C 0.82369 0.68293 0.48623 0.0
C750 C 0.8314 0.70156 0.51207 0.0
C751 C 0.81794 0.71404 0.50733 0.0
H752 H 0.82672 0.67163 0.47716 0.0
H753 H 0.84029 0.70447 0.52384 0.0
H754 H 0.88513 0.66275 0.4818 0.0
H755 H 0.8829 0.71716 0.46209 0.0
H756 H 0.81412 0.65769 0.56523 0.0
H757 H 0.80193 0.69261 0.46841 0.0
H758 H 0.81626 0.72604 0.51597 0.0
C759 C 0.81313 0.36743 0.50209 0.0
C760 C 0.81039 0.38271 0.49128 0.0
N761 N 0.82686 0.39143 0.4887 0.0
N762 N 0.83128 0.36636 0.5061 0.0
C763 C 0.83925 0.38116 0.49786 0.0
H764 H 0.80251 0.35792 0.50696 0.0
Co765 Co 0.84293 0.34979 0.52136 0.0
C766 C 0.87549 0.33744 0.50093 0.0
O767 O 0.87274 0.32085 0.50776 0.0
N768 N 0.85516 0.3333 0.53748 0.0
C769 C 0.86426 0.31065 0.55609 0.0
C770 C 0.85094 0.31609 0.54363 0.0
C771 C 0.87115 0.33781 0.54638 0.0
N772 N 0.87679 0.32449 0.55786 0.0
O773 O 0.853 0.37021 0.53507 0.0
H774 H 0.83896 0.30785 0.53969 0.0
H775 H 0.87865 0.35073 0.54455 0.0
O776 O 0.8644 0.35026 0.50494 0.0
C777 C 0.84583 0.37234 0.5509 0.0
O778 O 0.8334 0.36023 0.55674 0.0
N779 N 0.83113 0.33044 0.50837 0.0
C780 C 0.80548 0.307 0.49064 0.0
C781 C 0.82089 0.31413 0.4811 0.0
C782 C 0.83341 0.32616 0.49013 0.0
C783 C 0.81616 0.32373 0.51771 0.0
C784 C 0.80338 0.31177 0.50927 0.0
H785 H 0.84416 0.3328 0.48209 0.0
H786 H 0.81381 0.32825 0.53172 0.0
H787 H 0.85382 0.38464 0.4992 0.0
H788 H 0.79721 0.38702 0.48586 0.0
H789 H 0.86437 0.29784 0.56374 0.0
H790 H 0.82274 0.31118 0.46657 0.0
H791 H 0.79174 0.30659 0.51722 0.0
C792 C 0.48638 0.20934 0.64457 0.0
C793 C 0.47064 0.21252 0.63427 0.0
N794 N 0.46699 0.19765 0.62355 0.0
N795 N 0.49258 0.19252 0.6404 0.0
C796 C 0.48051 0.18579 0.62763 0.0
H797 H 0.49309 0.21886 0.65411 0.0
Co798 Co 0.51396 0.18068 0.64795 0.0
C799 C 0.49913 0.1453 0.66293 0.0
O800 O 0.51151 0.14592 0.67633 0.0
N801 N 0.53565 0.16821 0.65465 0.0
C802 C 0.56414 0.16014 0.66275 0.0
C803 C 0.55139 0.17389 0.66338 0.0
C804 C 0.53953 0.15117 0.64842 0.0
N805 N 0.55656 0.14584 0.65339 0.0
O806 O 0.51951 0.17526 0.62284 0.0
H807 H 0.55398 0.18728 0.66938 0.0
H808 H 0.53015 0.14292 0.63993 0.0
O809 O 0.49895 0.15809 0.65079 0.0
C810 C 0.52782 0.18969 0.61678 0.0
O811 O 0.52819 0.20444 0.62731 0.0
N812 N 0.50987 0.18814 0.67245 0.0
C813 C 0.50803 0.2047 0.70713 0.0
C814 C 0.49472 0.19133 0.70171 0.0
C815 C 0.49579 0.18327 0.68412 0.0
C816 C 0.5218 0.2022 0.67704 0.0
C817 C 0.52151 0.21027 0.69444 0.0
H818 H 0.48501 0.17365 0.6798 0.0
H819 H 0.53143 0.20749 0.66688 0.0
H820 H 0.48217 0.17269 0.62083 0.0
H821 H 0.46271 0.22494 0.6345 0.0
H822 H 0.57789 0.16061 0.66877 0.0
H823 H 0.48358 0.18729 0.71089 0.0
H824 H 0.53137 0.22128 0.6977 0.0
C825 C 0.36891 0.04164 0.69562 0.0
C826 C 0.38134 0.05612 0.69781 0.0
N827 N 0.39014 0.05893 0.68165 0.0
N828 N 0.36973 0.03536 0.67811 0.0
C829 C 0.3827 0.04625 0.66995 0.0
H830 H 0.36033 0.0358 0.70639 0.0
Co831 Co 0.35792 0.01474 0.66726 0.0
C832 C 0.33962 0.0299 0.63349 0.0
O833 O 0.32624 0.01737 0.6342 0.0
N834 N 0.34632 0.99389 0.6559 0.0
C835 C 0.32757 0.97034 0.64803 0.0
C836 C 0.33083 0.98418 0.66058 0.0
C837 C 0.35217 0.98544 0.64036 0.0
N838 N 0.341 0.97115 0.63531 0.0
O839 O 0.381 0.00749 0.65696 0.0
H840 H 0.32199 0.98687 0.67213 0.0
H841 H 0.36409 0.98998 0.6325 0.0
O842 O 0.35241 0.03012 0.64578 0.0
C843 C 0.39131 0.00107 0.66967 0.0
O844 O 0.38592 0.00223 0.68692 0.0
N845 N 0.33614 0.0203 0.67954 0.0
C846 C 0.30646 0.02176 0.70397 0.0
C847 C 0.3072 0.0332 0.68821 0.0
C848 C 0.32233 0.03235 0.67613 0.0
C849 C 0.33592 0.00973 0.69507 0.0
C850 C 0.32115 0.0099 0.70713 0.0
H851 H 0.32296 0.04143 0.66432 0.0
H852 H 0.34717 0.00051 0.69768 0.0
H853 H 0.38726 0.04422 0.6559 0.0
H854 H 0.38391 0.0637 0.71047 0.0
H855 H 0.31626 0.96032 0.64835 0.0
H856 H 0.29638 0.04286 0.68539 0.0
H857 H 0.32123 0.00045 0.71871 0.0
C858 C 0.47995 0.87011 0.70617 0.0
C859 C 0.46856 0.885 0.70695 0.0
N860 N 0.46699 0.89217 0.68981 0.0
N861 N 0.48539 0.86778 0.68858 0.0
C862 C 0.47727 0.88136 0.67897 0.0
H863 H 0.48441 0.86193 0.71778 0.0
Co864 Co 0.50261 0.85189 0.67913 0.0
C865 C 0.48395 0.83323 0.64774 0.0
O866 O 0.49245 0.81805 0.65214 0.0
N867 N 0.52064 0.83633 0.6689 0.0
C868 C 0.54316 0.81682 0.66318 0.0
C869 C 0.52975 0.82168 0.67554 0.0
C870 C 0.52873 0.83986 0.6524 0.0
N871 N 0.54262 0.82842 0.64865 0.0
O872 O 0.51488 0.87255 0.66787 0.0
H873 H 0.5274 0.81505 0.68867 0.0
H874 H 0.52492 0.85118 0.64358 0.0
O875 O 0.48674 0.8478 0.65741 0.0
C876 C 0.52931 0.8766 0.67735 0.0
O877 O 0.53324 0.86654 0.6919 0.0
N878 N 0.49137 0.83238 0.69232 0.0
C879 C 0.47701 0.80791 0.71872 0.0
C880 C 0.4667 0.81229 0.70284 0.0
C881 C 0.47398 0.82491 0.68996 0.0
C882 C 0.50121 0.82871 0.70795 0.0
C883 C 0.49452 0.81631 0.72109 0.0
H884 H 0.46527 0.82918 0.67865 0.0
H885 H 0.51434 0.83579 0.71036 0.0
H886 H 0.47971 0.88382 0.66444 0.0
H887 H 0.46227 0.89028 0.71931 0.0
H888 H 0.55274 0.80576 0.665 0.0
H889 H 0.45288 0.80656 0.70075 0.0
H890 H 0.50303 0.81342 0.73307 0.0
C891 C 0.64107 0.99812 0.69896 0.0
C892 C 0.62756 0.9847 0.70171 0.0
N893 N 0.62266 0.97768 0.6851 0.0
N894 N 0.64456 0.99948 0.68071 0.0
C895 C 0.63314 0.98684 0.67268 0.0
H896 H 0.64733 0.00681 0.70952 0.0
Co897 Co 0.65889 0.01684 0.66804 0.0
C898 C 0.67793 0.99499 0.63902 0.0
O899 O 0.69258 0.00602 0.63964 0.0
N900 N 0.67305 0.03453 0.6547 0.0
C901 C 0.69368 0.05542 0.64458 0.0
C902 C 0.68895 0.04386 0.65894 0.0
C903 C 0.66854 0.04074 0.63763 0.0
N904 N 0.68074 0.05347 0.63125 0.0
O905 O 0.63724 0.02418 0.65466 0.0
H906 H 0.69689 0.04251 0.67151 0.0
H907 H 0.65669 0.03577 0.62974 0.0
O908 O 0.66424 0.99794 0.6496 0.0
C909 C 0.62696 0.03374 0.66498 0.0
O910 O 0.63156 0.03575 0.68248 0.0
N911 N 0.67916 0.0112 0.68307 0.0
C912 C 0.70541 0.00815 0.71138 0.0
C913 C 0.70404 0.99486 0.69724 0.0
C914 C 0.69056 0.9965 0.68324 0.0
C915 C 0.68011 0.02391 0.69687 0.0
C916 C 0.69326 0.02286 0.71089 0.0
H917 H 0.68904 0.98575 0.67303 0.0
H918 H 0.67056 0.03513 0.69682 0.0
H919 H 0.63174 0.98514 0.65788 0.0
H920 H 0.62159 0.98065 0.71482 0.0
H921 H 0.7055 0.06483 0.64416 0.0
H922 H 0.71287 0.98304 0.69732 0.0
H923 H 0.69384 0.03359 0.72127 0.0
C924 C 0.52377 0.85524 0.32628 0.0
C925 C 0.53698 0.86795 0.32062 0.0
N926 N 0.54635 0.8741 0.33566 0.0
N927 N 0.5248 0.8534 0.34481 0.0
C928 C 0.53872 0.86502 0.35011 0.0
H929 H 0.5136 0.84829 0.31755 0.0
Co930 Co 0.5083 0.84033 0.35997 0.0
C931 C 0.53412 0.82126 0.38529 0.0
O932 O 0.52639 0.80527 0.38109 0.0
N933 N 0.49139 0.82724 0.37589 0.0
C934 C 0.47545 0.80543 0.39122 0.0
C935 C 0.48756 0.80891 0.37707 0.0
C936 C 0.48108 0.83448 0.38957 0.0
N937 N 0.47138 0.82156 0.39903 0.0
O938 O 0.50265 0.86295 0.37194 0.0
H939 H 0.49351 0.79837 0.36863 0.0
H940 H 0.48105 0.84889 0.39314 0.0
O941 O 0.52839 0.83592 0.37762 0.0
C942 C 0.49116 0.87039 0.36095 0.0
O943 O 0.48627 0.8616 0.34575 0.0
N944 N 0.51222 0.8192 0.34588 0.0
C945 C 0.51273 0.79259 0.31806 0.0
C946 C 0.52901 0.79755 0.32782 0.0
C947 C 0.52854 0.81122 0.34154 0.0
C948 C 0.49651 0.81478 0.33621 0.0
C949 C 0.49632 0.80123 0.32271 0.0
H950 H 0.5413 0.81594 0.34802 0.0
H951 H 0.48396 0.82208 0.33893 0.0
H952 H 0.54248 0.86754 0.36442 0.0
H953 H 0.53928 0.87257 0.30658 0.0
H954 H 0.47008 0.79207 0.39549 0.0
H955 H 0.5421 0.79161 0.32427 0.0
H956 H 0.48341 0.79789 0.31567 0.0
C957 C 0.70195 0.97431 0.37402 0.0
C958 C 0.70512 0.96065 0.38674 0.0
N959 N 0.68912 0.95647 0.39543 0.0
N960 N 0.68396 0.97871 0.37448 0.0
C961 C 0.67651 0.96753 0.38756 0.0
H962 H 0.7123 0.9809 0.36542 0.0
Co963 Co 0.67169 0.99753 0.36186 0.0
C964 C 0.64249 0.977 0.34079 0.0
O965 O 0.64513 0.98748 0.32619 0.0
N966 N 0.65869 0.01647 0.34928 0.0
C967 C 0.64931 0.03823 0.32979 0.0
C968 C 0.66219 0.02502 0.33297 0.0
C969 C 0.64318 0.02461 0.35535 0.0
N970 N 0.63741 0.03806 0.34397 0.0
O971 O 0.65939 0.00389 0.38424 0.0
H972 H 0.67311 0.02187 0.32352 0.0
H973 H 0.63623 0.02091 0.36802 0.0
O974 O 0.65229 0.97967 0.35533 0.0
C975 C 0.67109 0.01234 0.39466 0.0
O976 O 0.68845 0.01346 0.38949 0.0
N977 N 0.68604 0.99321 0.34102 0.0
C978 C 0.71416 0.99352 0.31478 0.0
C979 C 0.70055 0.97929 0.31492 0.0
C980 C 0.68661 0.97924 0.32843 0.0
C981 C 0.69941 0.00672 0.34128 0.0
C982 C 0.71321 0.00741 0.32812 0.0
H983 H 0.67677 0.96784 0.32906 0.0
H984 H 0.69909 0.0173 0.35177 0.0
H985 H 0.66224 0.96819 0.3918 0.0
H986 H 0.71836 0.95458 0.38953 0.0
H987 H 0.64871 0.04715 0.31783 0.0
H988 H 0.701 0.96807 0.30511 0.0
H989 H 0.72309 0.01884 0.3285 0.0
C990 C 0.49701 0.13271 0.31079 0.0
C991 C 0.4849 0.11831 0.30703 0.0
N992 N 0.47624 0.11359 0.32281 0.0
N993 N 0.49592 0.1371 0.32884 0.0
C994 C 0.48313 0.12522 0.33583 0.0
H995 H 0.50666 0.13895 0.30118 0.0
Co996 Co 0.51219 0.15309 0.34094 0.0
C997 C 0.49166 0.17004 0.37153 0.0
O998 O 0.50107 0.18547 0.36872 0.0
N999 N 0.52958 0.16888 0.35322 0.0
C1000 C 0.55178 0.18942 0.36064 0.0
C1001 C 0.53912 0.18399 0.34733 0.0
C1002 C 0.5368 0.16551 0.37019 0.0
N1003 N 0.55039 0.17767 0.37497 0.0
O1004 O 0.52286 0.13246 0.35309 0.0
H1005 H 0.53762 0.19054 0.33406 0.0
H1006 H 0.53225 0.15416 0.37885 0.0
O1007 O 0.49438 0.15609 0.36117 0.0
C1008 C 0.53762 0.12855 0.34464 0.0
O1009 O 0.54251 0.13844 0.33019 0.0
N1010 N 0.50264 0.17265 0.3271 0.0
C1011 C 0.49219 0.19866 0.30081 0.0
C1012 C 0.48076 0.19451 0.31594 0.0
C1013 C 0.48604 0.18107 0.32875 0.0
C1014 C 0.51344 0.17605 0.3121 0.0
C1015 C 0.50866 0.18912 0.29897 0.0
H1016 H 0.47649 0.17719 0.33952 0.0
H1017 H 0.52603 0.16852 0.31039 0.0
H1018 H 0.47983 0.12427 0.35037 0.0
H1019 H 0.48301 0.11148 0.29383 0.0
H1020 H 0.56177 0.20068 0.35946 0.0
H1021 H 0.46765 0.20119 0.31754 0.0
H1022 H 0.51792 0.19183 0.28754 0.0
C1023 C 0.32341 0.01946 0.36159 0.0
C1024 C 0.32142 0.03489 0.37246 0.0
N1025 N 0.33759 0.03838 0.3813 0.0
N1026 N 0.34082 0.01347 0.36352 0.0
C1027 C 0.34908 0.02536 0.37547 0.0
H1028 H 0.31268 0.01269 0.35341 0.0
Co1029 Co 0.352 0.99238 0.35488 0.0
C1030 C 0.38542 0.00738 0.33606 0.0
O1031 O 0.38349 0.99526 0.32266 0.0
N1032 N 0.36408 0.97115 0.34677 0.0
C1033 C 0.37351 0.94489 0.33452 0.0
C1034 C 0.35948 0.95735 0.33492 0.0
C1035 C 0.38085 0.96652 0.35347 0.0
N1036 N 0.38689 0.95071 0.3463 0.0
O1037 O 0.36112 0.98752 0.37925 0.0
H1038 H 0.34681 0.95603 0.32704 0.0
H1039 H 0.38875 0.97487 0.36324 0.0
O1040 O 0.37383 0.00745 0.34927 0.0
C1041 C 0.34843 0.98255 0.39041 0.0
O1042 O 0.33111 0.98285 0.38485 0.0
N1043 N 0.34115 0.99604 0.33157 0.0
C1044 C 0.31933 0.99733 0.29953 0.0
C1045 C 0.33388 0.01025 0.30249 0.0
C1046 C 0.34448 0.00956 0.31881 0.0
C1047 C 0.32639 0.98426 0.32944 0.0
C1048 C 0.31569 0.98427 0.31341 0.0
H1049 H 0.35491 0.02016 0.32129 0.0
H1050 H 0.32311 0.97448 0.34029 0.0
H1051 H 0.36322 0.02412 0.38023 0.0
H1052 H 0.30884 0.0424 0.37436 0.0
H1053 H 0.3737 0.93237 0.32644 0.0
H1054 H 0.33675 0.02108 0.29255 0.0
H1055 H 0.30471 0.97397 0.31195 0.0
C1056 C 0.7013 0.1493 0.47841 0.0
C1057 C 0.70272 0.13382 0.46755 0.0
N1058 N 0.68595 0.12528 0.4666 0.0
N1059 N 0.6837 0.15052 0.48414 0.0
C1060 C 0.67475 0.13577 0.47673 0.0
H1061 H 0.71249 0.15867 0.48232 0.0
Co1062 Co 0.67313 0.16642 0.50081 0.0
C1063 C 0.64003 0.18007 0.48159 0.0
O1064 O 0.64328 0.19637 0.48894 0.0
N1065 N 0.66168 0.18197 0.51805 0.0
C1066 C 0.65115 0.20463 0.53557 0.0
C1067 C 0.66533 0.19927 0.52429 0.0
C1068 C 0.64545 0.17714 0.52608 0.0
N1069 N 0.63879 0.19058 0.53666 0.0
O1070 O 0.66422 0.14547 0.51451 0.0
H1071 H 0.67703 0.2079 0.52048 0.0
H1072 H 0.63798 0.16432 0.52339 0.0
O1073 O 0.65092 0.16688 0.48508 0.0
C1074 C 0.67717 0.14287 0.5262 0.0
O1075 O 0.69187 0.15384 0.52556 0.0
N1076 N 0.68445 0.18639 0.48866 0.0
C1077 C 0.70956 0.21224 0.47432 0.0
C1078 C 0.69392 0.20662 0.46397 0.0
C1079 C 0.68167 0.1932 0.47125 0.0
C1080 C 0.69971 0.19166 0.49862 0.0
C1081 C 0.71228 0.20463 0.49185 0.0
H1082 H 0.67053 0.18788 0.46264 0.0
H1083 H 0.70226 0.18549 0.51197 0.0
H1084 H 0.66043 0.13229 0.4796 0.0
H1085 H 0.71522 0.12909 0.46117 0.0
H1086 H 0.64989 0.21787 0.54224 0.0
H1087 H 0.69161 0.212 0.4502 0.0
H1088 H 0.72414 0.20864 0.5003 0.0
C1089 C 0.64942 0.80878 0.50773 0.0
C1090 C 0.63709 0.80389 0.49392 0.0
N1091 N 0.63043 0.81939 0.48642 0.0
N1092 N 0.65059 0.82728 0.50891 0.0
C1093 C 0.63883 0.83337 0.49578 0.0
H1094 H 0.65683 0.79943 0.51656 0.0
Co1095 Co 0.66436 0.84071 0.52632 0.0
C1096 C 0.67821 0.87374 0.50663 0.0
O1097 O 0.69381 0.87258 0.51592 0.0
N1098 N 0.67783 0.85456 0.5445 0.0
C1099 C 0.6972 0.86519 0.56633 0.0
C1100 C 0.69334 0.85096 0.55426 0.0
C1101 C 0.6725 0.87103 0.55118 0.0
N1102 N 0.68406 0.87787 0.56439 0.0
O1103 O 0.64182 0.84826 0.53749 0.0
H1104 H 0.70152 0.83885 0.55304 0.0
H1105 H 0.66045 0.87806 0.54612 0.0
O1106 O 0.66512 0.86191 0.50943 0.0
C1107 C 0.63801 0.83522 0.54877 0.0
O1108 O 0.64944 0.82146 0.54982 0.0
N1109 N 0.68592 0.83078 0.51639 0.0
C1110 C 0.71158 0.80608 0.50276 0.0
C1111 C 0.70566 0.82086 0.49186 0.0
C1112 C 0.69249 0.83289 0.49881 0.0
C1113 C 0.69157 0.81647 0.52701 0.0
C1114 C 0.7046 0.80427 0.52069 0.0
H1115 H 0.68676 0.84295 0.48956 0.0
H1116 H 0.68516 0.81394 0.54026 0.0
H1117 H 0.63597 0.84775 0.49356 0.0
H1118 H 0.6333 0.78999 0.48975 0.0
H1119 H 0.70865 0.8659 0.57603 0.0
H1120 H 0.71032 0.82247 0.47774 0.0
H1121 H 0.70873 0.79313 0.52966 0.0
C1122 C 0.31586 0.15085 0.51866 0.0
C1123 C 0.31207 0.13875 0.53284 0.0
N1124 N 0.328 0.13112 0.53842 0.0
N1125 N 0.33417 0.15114 0.51535 0.0
C1126 C 0.34117 0.13896 0.52755 0.0
H1127 H 0.30579 0.15864 0.51106 0.0
Co1128 Co 0.34708 0.16385 0.49678 0.0
C1129 C 0.37792 0.1834 0.5163 0.0
O1130 O 0.37689 0.19719 0.50462 0.0
N1131 N 0.36058 0.17621 0.4776 0.0
C1132 C 0.37017 0.19414 0.45433 0.0
C1133 C 0.35661 0.19118 0.46727 0.0
C1134 C 0.37683 0.17053 0.47057 0.0
N1135 N 0.38286 0.18106 0.45634 0.0
O1136 O 0.35824 0.1414 0.48978 0.0
H1137 H 0.34472 0.19966 0.46869 0.0
H1138 H 0.38425 0.1589 0.47588 0.0
O1139 O 0.36681 0.16953 0.51464 0.0
C1140 C 0.34776 0.13501 0.47698 0.0
O1141 O 0.33267 0.14384 0.47277 0.0
N1142 N 0.33399 0.18514 0.50225 0.0
C1143 C 0.30817 0.21294 0.50571 0.0
C1144 C 0.32237 0.21096 0.51896 0.0
C1145 C 0.33507 0.19673 0.51711 0.0
C1146 C 0.31998 0.1866 0.4897 0.0
C1147 C 0.3073 0.20056 0.49088 0.0
H1148 H 0.34522 0.19474 0.52789 0.0
H1149 H 0.31882 0.17687 0.47844 0.0
H1150 H 0.35561 0.13548 0.52792 0.0
H1151 H 0.29849 0.13577 0.53841 0.0
H1152 H 0.37039 0.20488 0.44396 0.0
H1153 H 0.32326 0.21989 0.53092 0.0
H1154 H 0.29684 0.20154 0.48016 0.0
C1155 C 0.31764 0.86164 0.49604 0.0
C1156 C 0.31619 0.87619 0.484 0.0
N1157 N 0.33317 0.88398 0.48174 0.0
N1158 N 0.33547 0.86009 0.50115 0.0
C1159 C 0.34456 0.87388 0.49231 0.0
H1160 H 0.30635 0.85301 0.501 0.0
Co1161 Co 0.34552 0.84431 0.51835 0.0
C1162 C 0.37699 0.82786 0.49978 0.0
O1163 O 0.37189 0.81206 0.50726 0.0
N1164 N 0.35617 0.82887 0.53641 0.0
C1165 C 0.36265 0.80994 0.5597 0.0
C1166 C 0.34977 0.81433 0.54636 0.0
C1167 C 0.37295 0.83287 0.54396 0.0
N1168 N 0.37717 0.82179 0.55825 0.0
O1169 O 0.35572 0.86523 0.53124 0.0
H1170 H 0.3364 0.80763 0.54477 0.0
H1171 H 0.38182 0.84405 0.53917 0.0
O1172 O 0.36768 0.84224 0.50302 0.0
C1173 C 0.34402 0.86871 0.54375 0.0
O1174 O 0.32909 0.85809 0.54483 0.0
N1175 N 0.33322 0.82449 0.50645 0.0
C1176 C 0.30586 0.80256 0.48954 0.0
C1177 C 0.32185 0.8077 0.47985 0.0
C1178 C 0.33526 0.81911 0.48845 0.0
C1179 C 0.3177 0.81943 0.51592 0.0
C1180 C 0.30398 0.80832 0.50783 0.0
H1181 H 0.34641 0.82465 0.48016 0.0
H1182 H 0.3153 0.82522 0.52942 0.0
H1183 H 0.35916 0.87685 0.49426 0.0
H1184 H 0.30354 0.88069 0.47756 0.0
H1185 H 0.361 0.79942 0.57019 0.0
H1186 H 0.32337 0.80395 0.46546 0.0
H1187 H 0.29155 0.80496 0.51553 0.0
C1188 C 0.4849 0.70246 0.14777 0.0
C1189 C 0.46892 0.70469 0.13765 0.0
N1190 N 0.46537 0.68915 0.12794 0.0
N1191 N 0.49138 0.68552 0.14457 0.0
C1192 C 0.47916 0.67776 0.13252 0.0
H1193 H 0.49157 0.71278 0.15645 0.0
Co1194 Co 0.51336 0.67491 0.15257 0.0
C1195 C 0.5004 0.64012 0.17072 0.0
O1196 O 0.51376 0.64144 0.1831 0.0
N1197 N 0.53552 0.66375 0.16001 0.0
C1198 C 0.56281 0.65633 0.17192 0.0
C1199 C 0.54956 0.66956 0.17118 0.0
C1200 C 0.54093 0.64716 0.15379 0.0
N1201 N 0.55733 0.64224 0.16097 0.0
O1202 O 0.51814 0.66681 0.12799 0.0
H1203 H 0.55046 0.6825 0.17842 0.0
H1204 H 0.53264 0.63853 0.14459 0.0
O1205 O 0.49902 0.65244 0.15819 0.0
C1206 C 0.52389 0.68041 0.11828 0.0
O1207 O 0.52285 0.69706 0.12522 0.0
N1208 N 0.51001 0.68496 0.17616 0.0
C1209 C 0.50902 0.70658 0.20801 0.0
C1210 C 0.49757 0.69074 0.20625 0.0
C1211 C 0.49802 0.68023 0.18997 0.0
C1212 C 0.52059 0.70065 0.17745 0.0
C1213 C 0.52062 0.71142 0.19329 0.0
H1214 H 0.48839 0.66877 0.1884 0.0
H1215 H 0.52924 0.70477 0.16595 0.0
H1216 H 0.48092 0.66428 0.12656 0.0
H1217 H 0.46079 0.71699 0.13727 0.0
H1218 H 0.57555 0.65707 0.17986 0.0
H1219 H 0.48798 0.68686 0.21707 0.0
H1220 H 0.52971 0.72347 0.19393 0.0
C1221 C 0.37796 0.52813 0.20877 0.0
C1222 C 0.38976 0.54314 0.21094 0.0
N1223 N 0.39758 0.54706 0.19448 0.0
N1224 N 0.3782 0.52264 0.19097 0.0
C1225 C 0.39022 0.53445 0.18265 0.0
H1226 H 0.37012 0.52141 0.21961 0.0
Co1227 Co 0.36672 0.50211 0.17985 0.0
C1228 C 0.34581 0.51791 0.14843 0.0
O1229 O 0.33212 0.50614 0.15156 0.0
N1230 N 0.35548 0.48119 0.16802 0.0
C1231 C 0.33789 0.457 0.15946 0.0
C1232 C 0.33994 0.4712 0.17188 0.0
C1233 C 0.36233 0.47278 0.15291 0.0
N1234 N 0.35209 0.45793 0.14757 0.0
O1235 O 0.39 0.49575 0.16919 0.0
H1236 H 0.33025 0.47395 0.18271 0.0
H1237 H 0.37477 0.47734 0.14595 0.0
O1238 O 0.3603 0.51768 0.15865 0.0
C1239 C 0.39878 0.48723 0.18181 0.0
O1240 O 0.39154 0.4864 0.19841 0.0
N1241 N 0.3449 0.50685 0.19281 0.0
C1242 C 0.31591 0.5081 0.21818 0.0
C1243 C 0.31721 0.52091 0.20356 0.0
C1244 C 0.33206 0.52024 0.19111 0.0
C1245 C 0.34427 0.49501 0.20739 0.0
C1246 C 0.32978 0.49506 0.21985 0.0
H1247 H 0.33335 0.53064 0.1805 0.0
H1248 H 0.35496 0.48498 0.20899 0.0
H1249 H 0.3941 0.53321 0.1683 0.0
H1250 H 0.39252 0.55039 0.22376 0.0
H1251 H 0.32664 0.44691 0.15917 0.0
H1252 H 0.30714 0.5316 0.20203 0.0
H1253 H 0.32945 0.48471 0.23063 0.0
C1254 C 0.50323 0.36352 0.19552 0.0
C1255 C 0.49261 0.37869 0.1984 0.0
N1256 N 0.48569 0.38408 0.18198 0.0
N1257 N 0.50298 0.35936 0.17737 0.0
C1258 C 0.49209 0.37209 0.16946 0.0
H1259 H 0.51163 0.35677 0.20579 0.0
Co1260 Co 0.51926 0.34382 0.16589 0.0
C1261 C 0.49809 0.32445 0.13695 0.0
O1262 O 0.50687 0.30949 0.14157 0.0
N1263 N 0.53661 0.3287 0.15374 0.0
C1264 C 0.55966 0.31045 0.14601 0.0
C1265 C 0.54713 0.31464 0.15953 0.0
C1266 C 0.54302 0.33255 0.13657 0.0
N1267 N 0.55718 0.32191 0.13163 0.0
O1268 O 0.52989 0.36478 0.15387 0.0
H1269 H 0.54656 0.30818 0.17293 0.0
H1270 H 0.53763 0.34339 0.12797 0.0
O1271 O 0.50157 0.33952 0.1456 0.0
C1272 C 0.54489 0.36894 0.16236 0.0
O1273 O 0.55024 0.35853 0.17617 0.0
N1274 N 0.50956 0.32404 0.17991 0.0
C1275 C 0.49776 0.29866 0.20667 0.0
C1276 C 0.48586 0.30384 0.19225 0.0
C1277 C 0.49187 0.31695 0.17926 0.0
C1278 C 0.52087 0.31981 0.19435 0.0
C1279 C 0.51544 0.30694 0.20762 0.0
H1280 H 0.48202 0.32185 0.16923 0.0
H1281 H 0.53418 0.32681 0.19574 0.0
H1282 H 0.49022 0.37352 0.15467 0.0
H1283 H 0.4908 0.38574 0.21141 0.0
H1284 H 0.5704 0.30039 0.14714 0.0
H1285 H 0.47184 0.29832 0.19141 0.0
H1286 H 0.52506 0.30356 0.21859 0.0
C1287 C 0.64988 0.49514 0.19028 0.0
C1288 C 0.63724 0.48083 0.19281 0.0
N1289 N 0.63184 0.47462 0.17602 0.0
N1290 N 0.65227 0.49782 0.17199 0.0
C1291 C 0.64109 0.48516 0.16375 0.0
H1292 H 0.65644 0.50337 0.20103 0.0
Co1293 Co 0.66531 0.51607 0.15929 0.0
C1294 C 0.68424 0.49543 0.1296 0.0
O1295 O 0.69919 0.50587 0.13162 0.0
N1296 N 0.67819 0.53458 0.14571 0.0
C1297 C 0.69842 0.5549 0.13375 0.0
C1298 C 0.69492 0.54307 0.14823 0.0
C1299 C 0.67197 0.54158 0.12953 0.0
N1300 N 0.68388 0.55394 0.12212 0.0
O1301 O 0.64261 0.52322 0.14767 0.0
H1302 H 0.70446 0.54062 0.15944 0.0
H1303 H 0.6592 0.5373 0.12278 0.0
O1304 O 0.67021 0.49816 0.13977 0.0
C1305 C 0.63394 0.53263 0.15952 0.0
O1306 O 0.64108 0.53451 0.17619 0.0
N1307 N 0.68644 0.51058 0.173 0.0
C1308 C 0.71288 0.50697 0.20104 0.0
C1309 C 0.71052 0.49327 0.18739 0.0
C1310 C 0.69694 0.49522 0.17353 0.0
C1311 C 0.68841 0.52372 0.18631 0.0
C1312 C 0.70178 0.52246 0.20006 0.0
H1313 H 0.69438 0.4841 0.16387 0.0
H1314 H 0.67939 0.53538 0.18617 0.0
H1315 H 0.63904 0.48429 0.14894 0.0
H1316 H 0.63231 0.47551 0.20591 0.0
H1317 H 0.71066 0.56358 0.13193 0.0
H1318 H 0.71849 0.48086 0.18789 0.0
H1319 H 0.70315 0.53352 0.21004 0.0
C1320 C 0.52543 0.36181 0.81586 0.0
C1321 C 0.53806 0.37547 0.81131 0.0
N1322 N 0.54461 0.38315 0.82704 0.0
N1323 N 0.52394 0.36088 0.83444 0.0
C1324 C 0.53598 0.37397 0.84086 0.0
H1325 H 0.51697 0.35401 0.80615 0.0
Co1326 Co 0.50557 0.34807 0.84783 0.0
C1327 C 0.52586 0.33012 0.87859 0.0
O1328 O 0.5144 0.31583 0.87837 0.0
N1329 N 0.48667 0.33538 0.86162 0.0
C1330 C 0.46571 0.3149 0.87196 0.0
C1331 C 0.47881 0.3185 0.85878 0.0
C1332 C 0.47798 0.34156 0.87693 0.0
N1333 N 0.46505 0.32945 0.88338 0.0
O1334 O 0.49932 0.37055 0.85964 0.0
H1335 H 0.48257 0.3088 0.84828 0.0
H1336 H 0.48112 0.35469 0.88334 0.0
O1337 O 0.52382 0.34318 0.867 0.0
C1338 C 0.49096 0.38084 0.84822 0.0
O1339 O 0.48857 0.37516 0.83111 0.0
N1340 N 0.51047 0.32683 0.83435 0.0
C1341 C 0.51209 0.29797 0.80897 0.0
C1342 C 0.52579 0.3003 0.82277 0.0
C1343 C 0.52485 0.31504 0.83529 0.0
C1344 C 0.49751 0.3251 0.82068 0.0
C1345 C 0.49781 0.31066 0.80817 0.0
H1346 H 0.5358 0.31711 0.84535 0.0
H1347 H 0.48654 0.33493 0.81983 0.0
H1348 H 0.53723 0.37773 0.8553 0.0
H1349 H 0.54152 0.38002 0.79747 0.0
H1350 H 0.45769 0.30221 0.87324 0.0
H1351 H 0.53733 0.29112 0.82363 0.0
H1352 H 0.48674 0.30941 0.79805 0.0
C1353 C 0.69131 0.48945 0.85632 0.0
C1354 C 0.69407 0.47518 0.86857 0.0
N1355 N 0.67826 0.47206 0.87795 0.0
N1356 N 0.67378 0.4951 0.85788 0.0
C1357 C 0.66624 0.48425 0.87112 0.0
H1358 H 0.70157 0.49556 0.84726 0.0
Co1359 Co 0.66156 0.51464 0.84686 0.0
C1360 C 0.62795 0.49638 0.83081 0.0
O1361 O 0.62884 0.50713 0.81621 0.0
N1362 N 0.64848 0.53437 0.83636 0.0
C1363 C 0.63862 0.55865 0.82066 0.0
C1364 C 0.65245 0.54613 0.82236 0.0
C1365 C 0.63215 0.54024 0.84294 0.0
N1366 N 0.62586 0.55495 0.83366 0.0
O1367 O 0.65376 0.52245 0.87078 0.0
H1368 H 0.66462 0.54613 0.81389 0.0
H1369 H 0.62492 0.53371 0.85433 0.0
O1370 O 0.63998 0.49825 0.84372 0.0
C1371 C 0.66783 0.5313 0.87719 0.0
O1372 O 0.68294 0.53204 0.86721 0.0
N1373 N 0.67177 0.50854 0.8239 0.0
C1374 C 0.69274 0.506 0.79189 0.0
C1375 C 0.67873 0.49281 0.79563 0.0
C1376 C 0.66837 0.49426 0.81196 0.0
C1377 C 0.6864 0.52034 0.82105 0.0
C1378 C 0.6967 0.51965 0.80498 0.0
H1379 H 0.65801 0.48378 0.81502 0.0
H1380 H 0.68971 0.53084 0.8312 0.0
H1381 H 0.65216 0.48546 0.87583 0.0
H1382 H 0.70688 0.46809 0.87081 0.0
H1383 H 0.63833 0.56997 0.81094 0.0
H1384 H 0.67585 0.48161 0.78609 0.0
H1385 H 0.70788 0.52963 0.8029 0.0
C1386 C 0.48373 0.64721 0.81975 0.0
C1387 C 0.47187 0.63288 0.81505 0.0
N1388 N 0.46354 0.62675 0.83054 0.0
N1389 N 0.48282 0.65016 0.83811 0.0
C1390 C 0.47041 0.63746 0.84433 0.0
H1391 H 0.49292 0.65458 0.81047 0.0
Co1392 Co 0.4982 0.66634 0.85113 0.0
C1393 C 0.47716 0.6783 0.88384 0.0
O1394 O 0.48516 0.69465 0.88235 0.0
N1395 N 0.51464 0.68248 0.86431 0.0
C1396 C 0.53504 0.70445 0.87262 0.0
C1397 C 0.52186 0.6992 0.85977 0.0
C1398 C 0.52365 0.67805 0.88013 0.0
N1399 N 0.53628 0.69104 0.88539 0.0
O1400 O 0.51153 0.64568 0.86041 0.0
H1401 H 0.51842 0.70709 0.84766 0.0
H1402 H 0.52116 0.6653 0.88752 0.0
O1403 O 0.48098 0.6657 0.8722 0.0
C1404 C 0.52531 0.64467 0.84959 0.0
O1405 O 0.52671 0.65671 0.83607 0.0
N1406 N 0.48637 0.68602 0.83957 0.0
C1407 C 0.47245 0.71127 0.81422 0.0
C1408 C 0.46198 0.70577 0.82964 0.0
C1409 C 0.46904 0.6927 0.84201 0.0
C1410 C 0.49645 0.69114 0.82452 0.0
C1411 C 0.48993 0.70384 0.81188 0.0
H1412 H 0.46027 0.68753 0.85292 0.0
H1413 H 0.50972 0.68508 0.82221 0.0
H1414 H 0.4672 0.63543 0.85878 0.0
H1415 H 0.46978 0.6272 0.80134 0.0
H1416 H 0.54363 0.71684 0.87206 0.0
H1417 H 0.44823 0.71095 0.83168 0.0
H1418 H 0.49853 0.70773 0.80026 0.0
C1419 C 0.3151 0.50909 0.8727 0.0
C1420 C 0.31094 0.5209 0.88687 0.0
N1421 N 0.32667 0.52975 0.89224 0.0
N1422 N 0.33334 0.51059 0.86919 0.0
C1423 C 0.33998 0.52334 0.88123 0.0
H1424 H 0.30571 0.49913 0.86633 0.0
Co1425 Co 0.34743 0.49455 0.85586 0.0
C1426 C 0.37501 0.51795 0.83651 0.0
O1427 O 0.37309 0.50756 0.82172 0.0
N1428 N 0.3622 0.47782 0.84301 0.0
C1429 C 0.37263 0.45246 0.82983 0.0
C1430 C 0.35763 0.46353 0.83174 0.0
C1431 C 0.38016 0.47521 0.84738 0.0
N1432 N 0.3867 0.45982 0.8398 0.0
O1433 O 0.36 0.48844 0.87816 0.0
H1434 H 0.34405 0.46023 0.82632 0.0
H1435 H 0.38784 0.48356 0.85734 0.0
O1436 O 0.36535 0.51441 0.85085 0.0
C1437 C 0.35326 0.47309 0.88366 0.0
O1438 O 0.34025 0.46483 0.87371 0.0
N1439 N 0.33325 0.49927 0.83474 0.0
C1440 C 0.30737 0.50051 0.80601 0.0
C1441 C 0.31982 0.51538 0.80915 0.0
C1442 C 0.3325 0.51464 0.8239 0.0
C1443 C 0.32052 0.48536 0.83253 0.0
C1444 C 0.30789 0.4854 0.81802 0.0
H1445 H 0.34122 0.52656 0.8268 0.0
H1446 H 0.32027 0.47398 0.84217 0.0
H1447 H 0.35456 0.5266 0.88306 0.0
H1448 H 0.29759 0.52221 0.89332 0.0
H1449 H 0.37284 0.43942 0.82261 0.0
H1450 H 0.3194 0.52765 0.80068 0.0
H1451 H 0.2986 0.4736 0.81631 0.0
C1452 C 0.69944 0.65708 0.98 0.0
C1453 C 0.70183 0.64234 0.96835 0.0
N1454 N 0.68499 0.63581 0.96316 0.0
N1455 N 0.68119 0.65965 0.98211 0.0
C1456 C 0.67277 0.64657 0.97159 0.0
H1457 H 0.71024 0.66452 0.9875 0.0
Co1458 Co 0.66975 0.67332 1.00005 0.0
C1459 C 0.63727 0.68882 0.98172 0.0
O1460 O 0.64105 0.70443 0.99029 0.0
N1461 N 0.65751 0.68643 0.01872 0.0
C1462 C 0.64767 0.70392 0.04175 0.0
C1463 C 0.66184 0.70114 0.02948 0.0
C1464 C 0.64075 0.68059 0.02484 0.0
N1465 N 0.63445 0.69086 0.03881 0.0
O1466 O 0.66115 0.65079 0.01116 0.0
H1467 H 0.67444 0.70935 0.02885 0.0
H1468 H 0.63313 0.66904 0.01886 0.0
O1469 O 0.64777 0.67509 0.98411 0.0
C1470 C 0.67443 0.64739 0.02226 0.0
O1471 O 0.68853 0.65913 0.02288 0.0
N1472 N 0.6809 0.69469 0.99033 0.0
C1473 C 0.70784 0.71957 0.97752 0.0
C1474 C 0.69258 0.71465 0.9663 0.0
C1475 C 0.67937 0.70175 0.97285 0.0
C1476 C 0.69558 0.69961 0.00128 0.0
C1477 C 0.70898 0.71217 0.99531 0.0
H1478 H 0.66876 0.69662 0.96347 0.0
H1479 H 0.69751 0.69288 0.01445 0.0
H1480 H 0.65799 0.64385 0.9715 0.0
H1481 H 0.71484 0.63631 0.96472 0.0
H1482 H 0.64735 0.71449 0.05227 0.0
H1483 H 0.69149 0.71985 0.95231 0.0
H1484 H 0.72058 0.71555 0.00436 0.0
C1485 C 0.70302 0.3708 0.01966 0.0
C1486 C 0.70691 0.38375 0.03306 0.0
N1487 N 0.69087 0.38903 0.04053 0.0
N1488 N 0.68461 0.36767 0.01873 0.0
C1489 C 0.67754 0.3791 0.0315 0.0
H1490 H 0.713 0.36457 0.01073 0.0
Co1491 Co 0.67224 0.35272 0.00143 0.0
C1492 C 0.64161 0.33396 0.02169 0.0
O1493 O 0.64373 0.31923 0.01147 0.0
N1494 N 0.65954 0.33803 0.98336 0.0
C1495 C 0.65129 0.31812 0.96118 0.0
C1496 C 0.6649 0.32319 0.97365 0.0
C1497 C 0.64257 0.34162 0.97636 0.0
N1498 N 0.63726 0.32978 0.96285 0.0
O1499 O 0.66051 0.37403 0.99166 0.0
H1500 H 0.67789 0.3164 0.97503 0.0
H1501 H 0.63419 0.35275 0.98117 0.0
O1502 O 0.65218 0.34813 0.01924 0.0
C1503 C 0.67021 0.37856 0.97765 0.0
O1504 O 0.68491 0.36901 0.97397 0.0
N1505 N 0.68589 0.33253 0.0096 0.0
C1506 C 0.71135 0.30484 0.01583 0.0
C1507 C 0.69672 0.30749 0.02819 0.0
C1508 C 0.68427 0.32173 0.02501 0.0
C1509 C 0.70052 0.33063 0.9981 0.0
C1510 C 0.71312 0.31676 1.0007 0.0
H1511 H 0.6737 0.32416 0.03509 0.0
H1512 H 0.70212 0.33977 0.98639 0.0
H1513 H 0.66288 0.38036 0.03384 0.0
H1514 H 0.72049 0.3894 0.03644 0.0
H1515 H 0.65197 0.30703 0.95125 0.0
H1516 H 0.69518 0.29895 0.04038 0.0
H1517 H 0.72406 0.31529 0.99071 0.0
C1518 C 0.30831 0.63594 0.03519 0.0
C1519 C 0.3064 0.6231 0.04908 0.0
N1520 N 0.32338 0.61785 0.05432 0.0
N1521 N 0.32643 0.63878 0.03164 0.0
C1522 C 0.33528 0.62758 0.04357 0.0
H1523 H 0.29714 0.64207 0.02754 0.0
Co1524 Co 0.33645 0.65206 0.01177 0.0
C1525 C 0.36991 0.67103 0.02705 0.0
O1526 O 0.36708 0.68523 0.01622 0.0
N1527 N 0.34688 0.66487 0.99123 0.0
C1528 C 0.35266 0.68285 0.96688 0.0
C1529 C 0.34025 0.67859 0.98063 0.0
C1530 C 0.36327 0.66093 0.98331 0.0
N1531 N 0.36718 0.67173 0.96855 0.0
O1532 O 0.34614 0.62981 0.00222 0.0
H1533 H 0.32723 0.6852 0.98238 0.0
H1534 H 0.37239 0.65051 0.98855 0.0
O1535 O 0.35873 0.65714 0.02655 0.0
C1536 C 0.33269 0.62268 0.99299 0.0
O1537 O 0.31691 0.63128 0.99275 0.0
N1538 N 0.32455 0.67324 0.02017 0.0
C1539 C 0.30014 0.70107 0.02932 0.0
C1540 C 0.31641 0.69855 0.0397 0.0
C1541 C 0.32831 0.68425 0.03512 0.0
C1542 C 0.30847 0.67512 0.01052 0.0
C1543 C 0.29631 0.68903 0.01459 0.0
H1544 H 0.34009 0.68182 0.04393 0.0
H1545 H 0.30512 0.66569 0.99937 0.0
H1546 H 0.35007 0.62569 0.04355 0.0
H1547 H 0.2935 0.61764 0.05455 0.0
H1548 H 0.35091 0.69318 0.95625 0.0
H1549 H 0.31966 0.70719 0.05153 0.0
H1550 H 0.28405 0.69039 0.00606 0.0
C1551 C 0.32633 0.36831 0.00338 0.0
C1552 C 0.32542 0.38379 0.99241 0.0
N1553 N 0.34277 0.38881 0.98748 0.0
N1554 N 0.34415 0.36358 0.00514 0.0
C1555 C 0.35378 0.3764 0.99551 0.0
H1556 H 0.31478 0.36107 0.00973 0.0
Co1557 Co 0.35452 0.34509 0.01894 0.0
C1558 C 0.38269 0.3289 0.99481 0.0
O1559 O 0.37796 0.31254 0.00125 0.0
N1560 N 0.36568 0.3267 0.03348 0.0
C1561 C 0.37286 0.3042 0.05297 0.0
C1562 C 0.35923 0.31115 0.04171 0.0
C1563 C 0.38324 0.32866 0.03982 0.0
N1564 N 0.38796 0.31538 0.05186 0.0
O1565 O 0.36813 0.36361 0.03248 0.0
H1566 H 0.3454 0.30541 0.04034 0.0
H1567 H 0.39212 0.34028 0.03628 0.0
O1568 O 0.37436 0.34308 1.00062 0.0
C1569 C 0.36051 0.3655 0.04814 0.0
O1570 O 0.34621 0.35485 0.05231 0.0
N1571 N 0.33907 0.32781 0.00675 0.0
C1572 C 0.30881 0.30815 0.99204 0.0
C1573 C 0.3241 0.31258 0.98096 0.0
C1574 C 0.33898 0.32293 0.98848 0.0
C1575 C 0.32422 0.32362 0.01754 0.0
C1576 C 0.30906 0.31368 0.01056 0.0
H1577 H 0.34976 0.32777 0.97934 0.0
H1578 H 0.32385 0.32873 0.03157 0.0
H1579 H 0.36871 0.37687 0.99481 0.0
H1580 H 0.31294 0.39062 0.98819 0.0
H1581 H 0.37148 0.29214 0.06167 0.0
H1582 H 0.32411 0.30892 0.96645 0.0
H1583 H 0.29741 0.31068 0.01949 0.0
H1584 H 1.00015 0.3082 0.28203 0.0
H1585 H 0.01776 0.27165 0.32558 0.0
H1586 H 0.99912 0.28296 0.26055 0.0
H1587 H 0.01856 0.24639 0.30328 0.0
H1588 H 0.00298 0.20105 0.26081 0.0
H1589 H 0.00088 0.22528 0.28427 0.0
H1590 H 0.01878 0.26564 0.2438 0.0
H1591 H 0.01923 0.24212 0.22048 0.0
C1592 C 0.00385 0.29475 0.2871 0.0
C1593 C 0.00879 0.29203 0.30572 0.0
C1594 C 0.0036 0.28022 0.27458 0.0
C1595 C 0.00894 0.26255 0.28002 0.0
C1596 C 0.01415 0.25975 0.2986 0.0
C1597 C 0.01401 0.27433 0.31133 0.0
C1598 C 0.00609 0.21519 0.25695 0.0
C1599 C 0.0115 0.21957 0.23881 0.0
C1600 C 0.00517 0.22904 0.27044 0.0
C1601 C 0.00967 0.24751 0.26602 0.0
C1602 C 0.01485 0.25174 0.24779 0.0
C1603 C 0.01544 0.23809 0.23439 0.0
H1604 H 0.78457 0.01438 0.21856 0.0
H1605 H 0.82192 0.99942 0.26266 0.0
H1606 H 0.75845 0.01044 0.2396 0.0
H1607 H 0.79609 0.99392 0.28293 0.0
H1608 H 0.75007 0.00343 0.32186 0.0
H1609 H 0.77479 0.00854 0.30022 0.0
H1610 H 0.73943 0.98858 0.25572 0.0
H1611 H 0.71383 0.98497 0.27753 0.0
C1612 C 0.78724 0.01032 0.23272 0.0
C1613 C 0.8054 0.00712 0.23882 0.0
C1614 C 0.77222 0.00772 0.24471 0.0
C1615 C 0.77503 0.00176 0.26304 0.0
C1616 C 0.79324 0.9988 0.26908 0.0
C1617 C 0.80816 0.0017 0.25728 0.0
C1618 C 0.74739 0.00031 0.30743 0.0
C1619 C 0.72978 0.99408 0.30144 0.0
C1620 C 0.76177 0.00297 0.29497 0.0
C1621 C 0.75928 0.99895 0.2761 0.0
C1622 C 0.74183 0.99212 0.27009 0.0
C1623 C 0.72722 0.98974 0.28263 0.0
H1624 H 0.96349 0.71133 0.28594 0.0
H1625 H 0.01874 0.72933 0.30128 0.0
H1626 H 0.96226 0.73611 0.26276 0.0
H1627 H 0.01764 0.75385 0.27839 0.0
H1628 H 0.00786 0.804 0.24556 0.0
H1629 H 0.00209 0.78266 0.27096 0.0
H1630 H 0.97877 0.74282 0.23255 0.0
H1631 H 0.98451 0.76437 0.20699 0.0
C1632 C 0.97517 0.72083 0.28459 0.0
C1633 C 0.9912 0.71853 0.29535 0.0
C1634 C 0.97456 0.73487 0.27126 0.0
C1635 C 0.98985 0.74695 0.26875 0.0
C1636 C 0.00553 0.74497 0.28011 0.0
C1637 C 0.00621 0.7309 0.29318 0.0
C1638 C 0.00137 0.79074 0.24254 0.0
C1639 C 0.997 0.78569 0.22424 0.0
C1640 C 0.99803 0.77854 0.25709 0.0
C1641 C 0.99024 0.76095 0.25373 0.0
C1642 C 0.98472 0.75631 0.23559 0.0
C1643 C 0.98805 0.76861 0.22095 0.0
H1644 H 0.28217 0.9895 0.29634 0.0
H1645 H 0.32982 0.00567 0.26384 0.0
H1646 H 0.26341 0.98766 0.26843 0.0
H1647 H 0.31051 0.00467 0.23585 0.0
H1648 H 0.25762 0.02431 0.2002 0.0
H1649 H 0.28144 0.02282 0.22436 0.0
H1650 H 0.26232 0.96785 0.23831 0.0
H1651 H 0.23863 0.96929 0.21393 0.0
C1652 C 0.28876 0.99248 0.28326 0.0
C1653 C 0.30768 0.99746 0.28242 0.0
C1654 C 0.27794 0.99145 0.26724 0.0
C1655 C 0.28559 0.99572 0.24997 0.0
C1656 C 0.30432 0.00121 0.24903 0.0
C1657 C 0.3153 0.00194 0.26508 0.0
C1658 C 0.25892 0.01173 0.2081 0.0
C1659 C 0.24637 0.9969 0.20527 0.0
C1660 C 0.27252 0.01087 0.22187 0.0
C1661 C 0.27358 0.99529 0.23327 0.0
C1662 C 0.26169 0.98006 0.22976 0.0
C1663 C 0.24827 0.98081 0.21575 0.0
H1664 H 0.00073 0.81048 0.77974 0.0
H1665 H 0.02033 0.77525 0.82352 0.0
H1666 H 0.99869 0.78426 0.75895 0.0
H1667 H 0.01895 0.74898 0.80221 0.0
H1668 H 0.03389 0.7168 0.7463 0.0
H1669 H 0.03477 0.73981 0.77103 0.0
H1670 H 0.97866 0.75412 0.75772 0.0
H1671 H 0.97775 0.731 0.73306 0.0
C1672 C 0.00455 0.79713 0.78499 0.0
C1673 C 0.01038 0.79494 0.80345 0.0
C1674 C 0.00337 0.78211 0.77304 0.0
C1675 C 0.00831 0.76456 0.7791 0.0
C1676 C 0.01494 0.76239 0.79726 0.0
C1677 C 0.01587 0.77744 0.80939 0.0
C1678 C 0.02164 0.72464 0.74895 0.0
C1679 C 0.00577 0.72224 0.73777 0.0
C1680 C 0.02213 0.73771 0.76311 0.0
C1681 C 0.00686 0.74882 0.76613 0.0
C1682 C 0.99067 0.7458 0.75554 0.0
C1683 C 0.99009 0.73252 0.74155 0.0
H1684 H 0.3083 0.01727 0.74142 0.0
H1685 H 0.26915 0.02663 0.69718 0.0
H1686 H 0.28344 0.01332 0.76288 0.0
H1687 H 0.24389 0.02482 0.71947 0.0
H1688 H 0.24002 0.02465 0.80294 0.0
H1689 H 0.26308 0.02869 0.77965 0.0
H1690 H 0.22526 0.00585 0.73861 0.0
H1691 H 0.201 0.00389 0.762 0.0
C1692 C 0.29433 0.01863 0.73621 0.0
C1693 C 0.29085 0.02192 0.71736 0.0
C1694 C 0.27993 0.01675 0.74874 0.0
C1695 C 0.26145 0.01891 0.74313 0.0
C1696 C 0.25788 0.02279 0.72435 0.0
C1697 C 0.27241 0.02418 0.71159 0.0
C1698 C 0.23629 0.02086 0.78891 0.0
C1699 C 0.21835 0.01433 0.78441 0.0
C1700 C 0.24983 0.02278 0.77547 0.0
C1701 C 0.2463 0.01743 0.75708 0.0
C1702 C 0.2285 0.01038 0.75254 0.0
C1703 C 0.21464 0.00894 0.76603 0.0
H1704 H 0.95457 0.3027 0.74161 0.0
H1705 H 0.00406 0.27615 0.72378 0.0
H1706 H 0.94949 0.27834 0.76483 0.0
H1707 H 0.99901 0.25197 0.74666 0.0
H1708 H 0.97839 0.203 0.77741 0.0
H1709 H 0.97604 0.22619 0.75321 0.0
H1710 H 0.96707 0.26782 0.79449 0.0
H1711 H 0.96955 0.24447 0.8189 0.0
C1712 C 0.96417 0.29152 0.7425 0.0
C1713 C 0.97971 0.29125 0.73095 0.0
C1714 C 0.96135 0.2777 0.75582 0.0
C1715 C 0.97381 0.26323 0.7575 0.0
C1716 C 0.98904 0.2628 0.74557 0.0
C1717 C 0.992 0.27669 0.73253 0.0
C1718 C 0.97567 0.21706 0.78133 0.0
C1719 C 0.97452 0.22201 0.80006 0.0
C1720 C 0.97431 0.23032 0.76747 0.0
C1721 C 0.97169 0.24885 0.77199 0.0
C1722 C 0.96907 0.25362 0.79062 0.0
C1723 C 0.97048 0.24028 0.80458 0.0
H1724 H 0.80314 0.01859 0.78298 0.0
H1725 H 0.75908 2e-05 0.81898 0.0
H1726 H 0.78164 0.01757 0.75672 0.0
H1727 H 0.73817 0.99776 0.79282 0.0
H1728 H 0.69949 0.01561 0.74777 0.0
H1729 H 0.72166 0.01657 0.77294 0.0
H1730 H 0.764 0.99747 0.73628 0.0
H1731 H 0.74179 0.99764 0.71053 0.0
C1732 C 0.78891 0.01429 0.78532 0.0
C1733 C 0.78293 0.00934 0.80316 0.0
C1734 C 0.77664 0.01342 0.77021 0.0
C1735 C 0.75811 0.00756 0.77257 0.0
C1736 C 0.75222 0.0026 0.79041 0.0
C1737 C 0.76436 0.00365 0.80546 0.0
C1738 C 0.71356 0.01176 0.74495 0.0
C1739 C 0.71888 0.00677 0.72701 0.0
C1740 C 0.72628 0.01206 0.75952 0.0
C1741 C 0.7447 0.00707 0.75675 0.0
C1742 C 0.75 0.00164 0.73889 0.0
C1743 C 0.73721 0.00148 0.72418 0.0
H1744 H 0.22354 0.22772 0.95571 0.0
H1745 H 0.20723 0.25408 0.00618 0.0
H1746 H 0.24871 0.25075 0.95205 0.0
H1747 H 0.2322 0.27678 0.00284 0.0
H1748 H 0.27361 0.32002 0.99261 0.0
H1749 H 0.24537 0.30219 0.98585 0.0
H1750 H 0.2781 0.25634 0.96875 0.0
H1751 H 0.3064 0.27457 0.97502 0.0
C1752 C 0.22502 0.23879 0.96567 0.0
C1753 C 0.21349 0.23926 0.98118 0.0
C1754 C 0.23952 0.25182 0.96372 0.0
C1755 C 0.24255 0.26558 0.97718 0.0
C1756 C 0.23018 0.2666 0.99204 0.0
C1757 C 0.21588 0.25356 0.99403 0.0
C1758 C 0.27471 0.30627 0.987 0.0
C1759 C 0.29211 0.29853 0.98455 0.0
C1760 C 0.25856 0.29603 0.98319 0.0
C1761 C 0.25945 0.27771 0.97709 0.0
C1762 C 0.2769 0.27045 0.97333 0.0
C1763 C 0.29312 0.28082 0.97697 0.0
H1764 H 0.20389 0.77142 0.03946 0.0
H1765 H 0.24794 0.80427 0.0151 0.0
H1766 H 0.22573 0.74725 0.0463 0.0
H1767 H 0.26938 0.77976 0.02077 0.0
H1768 H 0.30827 0.73691 0.03925 0.0
H1769 H 0.28686 0.76225 0.04159 0.0
H1770 H 0.24113 0.72456 0.02974 0.0
H1771 H 0.26231 0.69928 0.02857 0.0
C1772 C 0.21823 0.77357 0.03567 0.0
C1773 C 0.22402 0.7897 0.02641 0.0
C1774 C 0.23075 0.75959 0.0394 0.0
C1775 C 0.24936 0.76135 0.0339 0.0
C1776 C 0.25527 0.77786 0.02538 0.0
C1777 C 0.24282 0.79185 0.0218 0.0
C1778 C 0.2936 0.73399 0.03763 0.0
C1779 C 0.28708 0.7161 0.03338 0.0
C1780 C 0.2813 0.74857 0.03873 0.0
C1781 C 0.26221 0.7456 0.03555 0.0
C1782 C 0.25566 0.72749 0.03239 0.0
C1783 C 0.26789 0.71296 0.03143 0.0
H1784 H 0.76956 0.20114 0.00945 0.0
H1785 H 0.81016 0.24063 0.03036 0.0
H1786 H 0.74641 0.22515 0.00896 0.0
H1787 H 0.78699 0.26399 0.03112 0.0
H1788 H 0.70507 0.26888 0.02665 0.0
H1789 H 0.72755 0.24425 0.02824 0.0
H1790 H 0.7706 0.28276 0.01112 0.0
H1791 H 0.74861 0.30728 0.01069 0.0
C1792 C 0.77356 0.21489 0.01394 0.0
C1793 C 0.79173 0.21887 0.02005 0.0
C1794 C 0.76022 0.22859 0.01394 0.0
C1795 C 0.76477 0.24655 0.02005 0.0
C1796 C 0.78296 0.25044 0.02608 0.0
C1797 C 0.79625 0.23689 0.02589 0.0
C1798 C 0.71942 0.27209 0.0236 0.0
C1799 C 0.725 0.29003 0.01843 0.0
C1800 C 0.73226 0.25793 0.02422 0.0
C1801 C 0.75093 0.26144 0.01972 0.0
C1802 C 0.75645 0.27949 0.01491 0.0
C1803 C 0.74374 0.29357 0.01444 0.0
H1804 H 0.70645 0.75449 0.96329 0.0
H1805 H 0.74415 0.71155 0.97745 0.0
H1806 H 0.73267 0.77623 0.95987 0.0
H1807 H 0.77016 0.73309 0.97468 0.0
H1808 H 0.81607 0.77351 0.97005 0.0
H1809 H 0.79049 0.75382 0.95859 0.0
H1810 H 0.75147 0.79032 0.98345 0.0
H1811 H 0.77683 0.81009 0.99414 0.0
C1812 C 0.72037 0.74961 0.96515 0.0
C1813 C 0.72332 0.73149 0.97093 0.0
C1814 C 0.73538 0.76205 0.96337 0.0
C1815 C 0.75355 0.75652 0.96735 0.0
C1816 C 0.75647 0.7379 0.9714 0.0
C1817 C 0.74153 0.72555 0.97316 0.0
C1818 C 0.80199 0.77749 0.9726 0.0
C1819 C 0.79844 0.79306 0.98336 0.0
C1820 C 0.78734 0.76619 0.96615 0.0
C1821 C 0.76888 0.77032 0.97029 0.0
C1822 C 0.76542 0.7867 0.97983 0.0
C1823 C 0.78 0.79793 0.98624 0.0
H1824 H 0.71779 0.48039 0.78261 0.0
H1825 H 0.69452 0.53141 0.76441 0.0
H1826 H 0.74253 0.48416 0.75981 0.0
H1827 H 0.71906 0.53511 0.74142 0.0
H1828 H 0.76344 0.52545 0.69429 0.0
H1829 H 0.73516 0.51994 0.7123 0.0
H1830 H 0.76827 0.51006 0.76098 0.0
H1831 H 0.79625 0.51627 0.74347 0.0
C1832 C 0.71759 0.49201 0.77323 0.0
C1833 C 0.70426 0.50554 0.77511 0.0
C1834 C 0.7318 0.49429 0.76034 0.0
C1835 C 0.73277 0.51003 0.74899 0.0
C1836 C 0.71859 0.52283 0.74991 0.0
C1837 C 0.70455 0.52069 0.763 0.0
C1838 C 0.76465 0.52244 0.7089 0.0
C1839 C 0.78217 0.52102 0.71733 0.0
C1840 C 0.74848 0.51911 0.71914 0.0
C1841 C 0.74958 0.51408 0.73789 0.0
C1842 C 0.76702 0.51336 0.74642 0.0
C1843 C 0.78306 0.51696 0.73635 0.0
H1844 H 0.24661 0.49443 0.70059 0.0
H1845 H 0.20618 0.50559 0.74247 0.0
H1846 H 0.2707 0.49309 0.72459 0.0
H1847 H 0.23004 0.50539 0.76602 0.0
H1848 H 0.27163 0.4877 0.80722 0.0
H1849 H 0.24925 0.48575 0.78232 0.0
H1850 H 0.2881 0.51307 0.7457 0.0
H1851 H 0.31127 0.51375 0.77054 0.0
C1852 C 0.24287 0.49645 0.7149 0.0
C1853 C 0.22456 0.50026 0.71964 0.0
C1854 C 0.25667 0.49596 0.7286 0.0
C1855 C 0.25235 0.49922 0.74725 0.0
C1856 C 0.23391 0.50256 0.75189 0.0
C1857 C 0.22021 0.50289 0.73832 0.0
C1858 C 0.27561 0.49304 0.7938 0.0
C1859 C 0.29337 0.50072 0.79087 0.0
C1860 C 0.26262 0.49215 0.77954 0.0
C1861 C 0.2668 0.49933 0.76198 0.0
C1862 C 0.2845 0.5072 0.759 0.0
C1863 C 0.29767 0.50787 0.77331 0.0
H1864 H 0.2789 0.51544 0.21274 0.0
H1865 H 0.31827 0.50097 0.25521 0.0
H1866 H 0.25407 0.51368 0.23554 0.0
H1867 H 0.29365 0.49761 0.27725 0.0
H1868 H 0.2511 0.51067 0.31868 0.0
H1869 H 0.27427 0.51405 0.29515 0.0
H1870 H 0.23515 0.49372 0.25406 0.0
H1871 H 0.21115 0.49191 0.27773 0.0
C1872 C 0.28229 0.5119 0.22688 0.0
C1873 C 0.30065 0.5082 0.23201 0.0
C1874 C 0.268 0.51058 0.23991 0.0
C1875 C 0.27171 0.50546 0.25835 0.0
C1876 C 0.29011 0.50192 0.26337 0.0
C1877 C 0.30432 0.50353 0.25053 0.0
C1878 C 0.24721 0.50718 0.30461 0.0
C1879 C 0.22904 0.50129 0.30016 0.0
C1880 C 0.26072 0.50881 0.29104 0.0
C1881 C 0.25678 0.50407 0.27256 0.0
C1882 C 0.23871 0.49775 0.26807 0.0
C1883 C 0.22499 0.49642 0.28171 0.0
H1884 H 0.76311 0.50001 0.31009 0.0
H1885 H 0.8096 0.51224 0.27455 0.0
H1886 H 0.74296 0.49763 0.28346 0.0
H1887 H 0.78885 0.51144 0.24771 0.0
H1888 H 0.7483 0.49352 0.20129 0.0
H1889 H 0.76992 0.49251 0.22753 0.0
H1890 H 0.72867 0.51646 0.26245 0.0
H1891 H 0.707 0.51615 0.23697 0.0
C1892 C 0.76912 0.50219 0.29658 0.0
C1893 C 0.78813 0.50615 0.29459 0.0
C1894 C 0.7574 0.50113 0.28122 0.0
C1895 C 0.76415 0.5045 0.26332 0.0
C1896 C 0.78316 0.50857 0.26124 0.0
C1897 C 0.79502 0.50933 0.27668 0.0
C1898 C 0.74382 0.49824 0.21468 0.0
C1899 C 0.72597 0.5051 0.21692 0.0
C1900 C 0.75628 0.49792 0.22967 0.0
C1901 C 0.75112 0.50444 0.2472 0.0
C1902 C 0.73316 0.51103 0.24935 0.0
C1903 C 0.72075 0.51113 0.23455 0.0
H1904 H 0.22237 0.72071 0.45471 0.0
H1905 H 0.20046 0.75723 0.49553 0.0
H1906 H 0.2488 0.74203 0.45013 0.0
H1907 H 0.22664 0.77838 0.49125 0.0
H1908 H 0.27264 0.8165 0.48095 0.0
H1909 H 0.24444 0.79933 0.47229 0.0
H1910 H 0.27534 0.74921 0.47047 0.0
H1911 H 0.30363 0.76668 0.47857 0.0
C1912 C 0.22288 0.73366 0.46213 0.0
C1913 C 0.20942 0.7375 0.47536 0.0
C1914 C 0.23808 0.74573 0.45971 0.0
C1915 C 0.23993 0.76185 0.47042 0.0
C1916 C 0.2256 0.76626 0.48257 0.0
C1917 C 0.21057 0.75416 0.48507 0.0
C1918 C 0.27341 0.8019 0.47812 0.0
C1919 C 0.29014 0.7928 0.48048 0.0
C1920 C 0.2573 0.79205 0.47327 0.0
C1921 C 0.25755 0.77285 0.47096 0.0
C1922 C 0.27465 0.764 0.47198 0.0
C1923 C 0.29085 0.77393 0.47669 0.0
H1924 H 0.27137 0.20906 0.49776 0.0
H1925 H 0.31213 0.24902 0.5174 0.0
H1926 H 0.24816 0.23232 0.49744 0.0
H1927 H 0.28823 0.27232 0.51847 0.0
H1928 H 0.2439 0.31384 0.50081 0.0
H1929 H 0.26864 0.29144 0.49979 0.0
H1930 H 0.22994 0.24872 0.51725 0.0
H1931 H 0.20532 0.27049 0.51687 0.0
C1932 C 0.27541 0.22285 0.50208 0.0
C1933 C 0.29376 0.22717 0.50736 0.0
C1934 C 0.26194 0.23621 0.50218 0.0
C1935 C 0.2662 0.25428 0.50802 0.0
C1936 C 0.28448 0.25861 0.51366 0.0
C1937 C 0.29813 0.24519 0.51333 0.0
C1938 C 0.24067 0.29958 0.5041 0.0
C1939 C 0.2226 0.29405 0.50906 0.0
C1940 C 0.25491 0.28679 0.5038 0.0
C1941 C 0.25137 0.26821 0.50846 0.0
C1942 C 0.23326 0.26278 0.51328 0.0
C1943 C 0.21909 0.27542 0.51335 0.0
H1944 H 0.74278 0.8112 0.48166 0.0
H1945 H 0.70878 0.76882 0.50723 0.0
H1946 H 0.7651 0.78805 0.47298 0.0
H1947 H 0.73132 0.74599 0.4995 0.0
H1948 H 0.81142 0.74843 0.49134 0.0
H1949 H 0.7875 0.77116 0.48944 0.0
H1950 H 0.74693 0.72805 0.47747 0.0
H1951 H 0.77098 0.70509 0.48031 0.0
C1952 C 0.73997 0.79694 0.48525 0.0
C1953 C 0.72421 0.79194 0.4955 0.0
C1954 C 0.75283 0.78367 0.48042 0.0
C1955 C 0.75019 0.76512 0.48573 0.0
C1956 C 0.73385 0.76004 0.49501 0.0
C1957 C 0.72102 0.77324 0.49975 0.0
C1958 C 0.79741 0.7438 0.48814 0.0
C1959 C 0.79301 0.72491 0.48642 0.0
C1960 C 0.78368 0.7569 0.4868 0.0
C1961 C 0.76515 0.75149 0.48356 0.0
C1962 C 0.76099 0.73269 0.48038 0.0
C1963 C 0.77478 0.71953 0.48179 0.0
H1964 H 0.81062 0.27846 0.4665 0.0
H1965 H 0.76802 0.30883 0.4936 0.0
H1966 H 0.78717 0.25657 0.45474 0.0
H1967 H 0.74482 0.28668 0.48268 0.0
H1968 H 0.70366 0.2471 0.46165 0.0
H1969 H 0.7271 0.27183 0.45872 0.0
H1970 H 0.7699 0.23278 0.47001 0.0
H1971 H 0.74662 0.20828 0.47227 0.0
C1972 C 0.79623 0.28062 0.46971 0.0
C1973 C 0.79122 0.29512 0.48134 0.0
C1974 C 0.7828 0.26802 0.46307 0.0
C1975 C 0.76409 0.26969 0.46793 0.0
C1976 C 0.75901 0.28496 0.47848 0.0
C1977 C 0.77239 0.29753 0.48505 0.0
C1978 C 0.71814 0.24379 0.46276 0.0
C1979 C 0.72337 0.22591 0.46745 0.0
C1980 C 0.73156 0.25794 0.4613 0.0
C1981 C 0.75039 0.2544 0.46452 0.0
C1982 C 0.75562 0.2361 0.46736 0.0
C1983 C 0.74225 0.22203 0.46879 0.0
H1984 H 0.53578 0.20903 0.7325 0.0
H1985 H 0.47891 0.22249 0.72191 0.0
H1986 H 0.53661 0.22991 0.7591 0.0
H1987 H 0.4798 0.24354 0.74838 0.0
H1988 H 0.50251 0.29932 0.77235 0.0
H1989 H 0.49995 0.2741 0.75045 0.0
H1990 H 0.5208 0.2368 0.79159 0.0
H1991 H 0.52259 0.26203 0.81414 0.0
C1992 C 0.52334 0.21615 0.73617 0.0
C1993 C 0.50729 0.21423 0.72518 0.0
C1994 C 0.52381 0.22803 0.75138 0.0
C1995 C 0.50833 0.23843 0.75564 0.0
C1996 C 0.49195 0.23574 0.74527 0.0
C1997 C 0.49139 0.22362 0.73025 0.0
C1998 C 0.50628 0.28573 0.77696 0.0
C1999 C 0.51242 0.28271 0.79521 0.0
C2000 C 0.50482 0.27128 0.76434 0.0
C2001 C 0.50982 0.25346 0.76945 0.0
C2002 C 0.51672 0.25043 0.78739 0.0
C2003 C 0.51788 0.2649 0.80021 0.0
H2004 H 0.45791 0.7752 0.71337 0.0
H2005 H 0.47975 0.811 0.75631 0.0
H2006 H 0.45014 0.75191 0.7366 0.0
H2007 H 0.47296 0.78751 0.7793 0.0
H2008 H 0.45701 0.74487 0.82 0.0
H2009 H 0.45195 0.76886 0.79681 0.0
H2010 H 0.4686 0.73149 0.7539 0.0
H2011 H 0.47287 0.7076 0.77686 0.0
C2012 C 0.4608 0.77822 0.72778 0.0
C2013 C 0.46982 0.7948 0.73293 0.0
C2014 C 0.45651 0.7648 0.7411 0.0
C2015 C 0.46117 0.76766 0.75984 0.0
C2016 C 0.46903 0.78478 0.76507 0.0
C2017 C 0.47322 0.79818 0.75181 0.0
C2018 C 0.459 0.7417 0.80553 0.0
C2019 C 0.46563 0.7245 0.80025 0.0
C2020 C 0.4563 0.75547 0.79226 0.0
C2021 C 0.46016 0.75226 0.77347 0.0
C2022 C 0.46536 0.73453 0.76815 0.0
C2023 C 0.46801 0.72084 0.78136 0.0
H2024 H 0.49463 0.79603 0.28516 0.0
H2025 H 0.53083 0.75977 0.31489 0.0
H2026 H 0.4927 0.77445 0.25975 0.0
H2027 H 0.52968 0.73834 0.28868 0.0
H2028 H 0.50961 0.74405 0.20893 0.0
H2029 H 0.51166 0.76407 0.23563 0.0
H2030 H 0.50886 0.71671 0.27176 0.0
H2031 H 0.50773 0.69641 0.24467 0.0
C2032 C 0.50219 0.78339 0.2863 0.0
C2033 C 0.51273 0.77956 0.3022 0.0
C2034 C 0.50127 0.77109 0.27157 0.0
C2035 C 0.51109 0.75465 0.2721 0.0
C2036 C 0.52179 0.75079 0.28792 0.0
C2037 C 0.52265 0.76316 0.30281 0.0
C2038 C 0.50958 0.73783 0.22254 0.0
C2039 C 0.50867 0.7186 0.22464 0.0
C2040 C 0.51055 0.74935 0.2379 0.0
C2041 C 0.51038 0.74203 0.25589 0.0
C2042 C 0.50922 0.72278 0.25809 0.0
C2043 C 0.50832 0.71117 0.2426 0.0
H2044 H 0.49451 0.19621 0.26328 0.0
H2045 H 0.47914 0.23319 0.30692 0.0
H2046 H 0.49172 0.22089 0.2408 0.0
H2047 H 0.47573 0.25791 0.28424 0.0
H2048 H 0.50369 0.30025 0.244 0.0
H2049 H 0.49797 0.2761 0.26668 0.0
H2050 H 0.4722 0.24202 0.22437 0.0
H2051 H 0.47859 0.26605 0.20145 0.0
C2052 C 0.49023 0.20958 0.26802 0.0
C2053 C 0.48734 0.21285 0.28691 0.0
C2054 C 0.48842 0.2237 0.25508 0.0
C2055 C 0.48365 0.24146 0.26071 0.0
C2056 C 0.47968 0.24445 0.27949 0.0
C2057 C 0.48146 0.23027 0.29246 0.0
C2058 C 0.49674 0.28762 0.23953 0.0
C2059 C 0.49191 0.28493 0.22085 0.0
C2060 C 0.49322 0.27386 0.25261 0.0
C2061 C 0.48473 0.25704 0.24734 0.0
C2062 C 0.47899 0.25472 0.22883 0.0
C2063 C 0.48251 0.26854 0.21573 0.0
H2064 H 0.1162 0.03061 0.19318 0.0
H2065 H 0.1352 0.05093 0.14041 0.0
H2066 H 0.09482 0.05587 0.19526 0.0
H2067 H 0.11399 0.07664 0.14263 0.0
H2068 H 0.06635 0.11716 0.15131 0.0
H2069 H 0.08166 0.08815 0.14528 0.0
H2070 H 0.10299 0.08834 0.20122 0.0
H2071 H 0.08736 0.11695 0.20734 0.0
C2072 C 0.11538 0.04024 0.18177 0.0
C2073 C 0.12736 0.03896 0.1667 0.0
C2074 C 0.1033 0.05479 0.18304 0.0
C2075 C 0.10311 0.0685 0.16936 0.0
C2076 C 0.11387 0.06629 0.15341 0.0
C2077 C 0.12592 0.05154 0.15206 0.0
C2078 C 0.07415 0.11087 0.16236 0.0
C2079 C 0.07559 0.11929 0.17986 0.0
C2080 C 0.08301 0.09435 0.15885 0.0
C2081 C 0.09333 0.08586 0.17282 0.0
C2082 C 0.09483 0.09436 0.19026 0.0
C2083 C 0.08609 0.11088 0.19372 0.0
H2084 H 0.90811 0.06846 0.18126 0.0
H2085 H 0.94073 0.04124 0.22273 0.0
H2086 H 0.93279 0.09172 0.17741 0.0
H2087 H 0.96568 0.06382 0.21847 0.0
H2088 H 0.99827 0.11749 0.22232 0.0
H2089 H 0.97378 0.09426 0.22505 0.0
H2090 H 0.9628 0.09827 0.16635 0.0
H2091 H 0.98685 0.12228 0.16385 0.0
C2092 C 0.92066 0.06738 0.1894 0.0
C2093 C 0.92242 0.05321 0.20245 0.0
C2094 C 0.93487 0.08063 0.18715 0.0
C2095 C 0.95128 0.07982 0.19773 0.0
C2096 C 0.95312 0.06527 0.21042 0.0
C2097 C 0.93883 0.05225 0.21286 0.0
C2098 C 0.99071 0.11336 0.20996 0.0
C2099 C 0.99456 0.12171 0.19286 0.0
C2100 C 0.97667 0.09992 0.2115 0.0
C2101 C 0.96627 0.09421 0.19591 0.0
C2102 C 0.97028 0.10246 0.17872 0.0
C2103 C 0.98419 0.11613 0.17725 0.0
H2104 H 0.9355 0.98553 0.17719 0.0
H2105 H 0.89151 0.9445 0.17427 0.0
H2106 H 0.95841 0.96113 0.17486 0.0
H2107 H 0.91414 0.92028 0.17195 0.0
H2108 H 0.95724 0.88666 0.20438 0.0
H2109 H 0.93576 0.91151 0.19902 0.0
H2110 H 0.97025 0.93262 0.15503 0.0
H2111 H 0.99183 0.90752 0.16039 0.0
C2112 C 0.93079 0.97139 0.17525 0.0
C2113 C 0.91186 0.96677 0.17585 0.0
C2114 C 0.94383 0.95745 0.17403 0.0
C2115 C 0.93799 0.93883 0.17358 0.0
C2116 C 0.919 0.93449 0.17257 0.0
C2117 C 0.90608 0.94833 0.17374 0.0
C2118 C 0.96026 0.89663 0.19362 0.0
C2119 C 0.97616 0.89515 0.1828 0.0
C2120 C 0.94791 0.91074 0.19042 0.0
C2121 C 0.95128 0.92387 0.17649 0.0
C2122 C 0.96733 0.92263 0.16581 0.0
C2123 C 0.97957 0.90826 0.16881 0.0
H2124 H 0.14031 0.94795 0.14641 0.0
H2125 H 0.11469 0.95806 0.19899 0.0
H2126 H 0.11589 0.92518 0.1389 0.0
H2127 H 0.09021 0.93535 0.19146 0.0
H2128 H 0.04145 0.90351 0.16641 0.0
H2129 H 0.06341 0.92989 0.16717 0.0
H2130 H 0.10792 0.89367 0.15416 0.0
H2131 H 0.0861 0.86745 0.15383 0.0
C2132 C 0.12936 0.94538 0.15627 0.0
C2133 C 0.12942 0.95462 0.17334 0.0
C2134 C 0.11543 0.9324 0.15198 0.0
C2135 C 0.10112 0.92867 0.16453 0.0
C2136 C 0.10096 0.93818 0.18143 0.0
C2137 C 0.11507 0.95095 0.18586 0.0
C2138 C 0.05582 0.90141 0.16308 0.0
C2139 C 0.06221 0.88364 0.15995 0.0
C2140 C 0.06837 0.91639 0.16371 0.0
C2141 C 0.08733 0.91373 0.16085 0.0
C2142 C 0.09337 0.8961 0.15629 0.0
C2143 C 0.08093 0.88114 0.15607 0.0
H2144 H 0.03879 0.9265 0.81056 0.0
H2145 H 0.06822 0.89905 0.85421 0.0
H2146 H 0.06165 0.95157 0.811 0.0
H2147 H 0.09181 0.92374 0.8542 0.0
H2148 H 0.1223 0.97893 0.86101 0.0
H2149 H 0.0987 0.95448 0.86172 0.0
H2150 H 0.09175 0.95921 0.80247 0.0
H2151 H 0.11465 0.98429 0.802 0.0
C2152 C 0.05034 0.92577 0.82011 0.0
C2153 C 0.05184 0.9108 0.83226 0.0
C2154 C 0.06354 0.9401 0.82032 0.0
C2155 C 0.0788 0.9397 0.83248 0.0
C2156 C 0.08017 0.92473 0.8448 0.0
C2157 C 0.06673 0.91051 0.84479 0.0
C2158 C 0.11566 0.97477 0.84815 0.0
C2159 C 0.12026 0.98361 0.83145 0.0
C2160 C 0.1022 0.96063 0.84852 0.0
C2161 C 0.0932 0.95478 0.83216 0.0
C2162 C 0.09802 0.96355 0.81543 0.0
C2163 C 0.11126 0.97789 0.81512 0.0
H2164 H 0.02163 0.10347 0.82809 0.0
H2165 H 0.04327 0.12641 0.87903 0.0
H2166 H 0.04688 0.08195 0.82719 0.0
H2167 H 0.06904 0.10504 0.87796 0.0
H2168 H 0.11015 0.05714 0.87128 0.0
H2169 H 0.08081 0.07228 0.87707 0.0
H2170 H 0.07927 0.09021 0.82014 0.0
H2171 H 0.10817 0.07493 0.81437 0.0
C2172 C 0.03154 0.10348 0.8394 0.0
C2173 C 0.03061 0.11656 0.85359 0.0
C2174 C 0.04609 0.0913 0.8388 0.0
C2175 C 0.06019 0.09213 0.85224 0.0
C2176 C 0.05837 0.10409 0.86741 0.0
C2177 C 0.0436 0.11625 0.86809 0.0
C2178 C 0.10338 0.06414 0.85999 0.0
C2179 C 0.11146 0.06485 0.84235 0.0
C2180 C 0.08668 0.0729 0.86335 0.0
C2181 C 0.07764 0.08228 0.84904 0.0
C2182 C 0.0857 0.08282 0.8314 0.0
C2183 C 0.10239 0.07426 0.82812 0.0
H2184 H 0.93231 0.12362 0.86268 0.0
H2185 H 0.95626 0.09395 0.81759 0.0
H2186 H 0.90909 0.09889 0.86659 0.0
H2187 H 0.93388 0.06885 0.8219 0.0
H2188 H 0.87925 0.04407 0.87873 0.0
H2189 H 0.90282 0.06852 0.87613 0.0
H2190 H 0.90302 0.06121 0.81679 0.0
H2191 H 0.88033 0.03624 0.81959 0.0
C2192 C 0.9327 0.11166 0.85379 0.0
C2193 C 0.94586 0.11075 0.8397 0.0
C2194 C 0.91948 0.09743 0.85604 0.0
C2195 C 0.91939 0.08185 0.84444 0.0
C2196 C 0.93306 0.0808 0.83076 0.0
C2197 C 0.94599 0.09514 0.82831 0.0
C2198 C 0.88443 0.04769 0.86516 0.0
C2199 C 0.87805 0.03814 0.84937 0.0
C2200 C 0.89786 0.0618 0.86363 0.0
C2201 C 0.90501 0.06688 0.84625 0.0
C2202 C 0.8983 0.05745 0.83047 0.0
C2203 C 0.88514 0.04317 0.83204 0.0
H2204 H 0.8881 0.94798 0.83017 0.0
H2205 H 0.8934 0.96578 0.8869 0.0
H2206 H 0.91789 0.93335 0.83238 0.0
H2207 H 0.9236 0.95117 0.88912 0.0
H2208 H 0.96151 0.89698 0.8858 0.0
H2209 H 0.93575 0.91825 0.88822 0.0
H2210 H 0.95096 0.94237 0.83575 0.0
H2211 H 0.97621 0.92098 0.83323 0.0
C2212 C 0.89567 0.94879 0.84312 0.0
C2213 C 0.88837 0.95798 0.85835 0.0
C2214 C 0.91286 0.94059 0.84435 0.0
C2215 C 0.9232 0.94127 0.86089 0.0
C2216 C 0.91595 0.95047 0.8762 0.0
C2217 C 0.89875 0.9589 0.87489 0.0
C2218 C 0.95974 0.90737 0.87523 0.0
C2219 C 0.97071 0.90737 0.8593 0.0
C2220 C 0.94496 0.91947 0.87654 0.0
C2221 C 0.94109 0.93167 0.86194 0.0
C2222 C 0.95334 0.93285 0.847 0.0
C2223 C 0.9679 0.92074 0.84563 0.0
H2224 H 0.15659 0.05624 0.10886 0.0
H2225 H 0.21307 0.0768 0.11147 0.0
H2226 H 0.15146 0.07428 0.08079 0.0
H2227 H 0.20781 0.0952 0.084 0.0
H2228 H 0.20115 0.11451 0.02711 0.0
H2229 H 0.20275 0.09119 0.05118 0.0
H2230 H 0.14926 0.10697 0.07109 0.0
H2231 H 0.14746 0.13008 0.04642 0.0
C2232 C 0.16794 0.0645 0.10339 0.0
C2233 C 0.18528 0.06504 0.11238 0.0
C2234 C 0.16493 0.07495 0.08742 0.0
C2235 C 0.17926 0.08604 0.08005 0.0
C2236 C 0.19656 0.08654 0.08908 0.0
C2237 C 0.19953 0.07617 0.105 0.0
C2238 C 0.18952 0.11266 0.03635 0.0
C2239 C 0.17426 0.12414 0.03506 0.0
C2240 C 0.1905 0.09942 0.05022 0.0
C2241 C 0.17636 0.09756 0.06334 0.0
C2242 C 0.16038 0.10808 0.06119 0.0
C2243 C 0.15931 0.12126 0.04707 0.0
H2244 H 0.92268 0.17205 0.03893 0.0
H2245 H 0.88405 0.14679 0.07688 0.0
H2246 H 0.94629 0.17339 0.0634 0.0
H2247 H 0.90746 0.14841 0.10149 0.0
H2248 H 0.94205 0.1886 0.14103 0.0
H2249 H 0.92063 0.17947 0.11602 0.0
H2250 H 0.9652 0.15369 0.08729 0.0
H2251 H 0.9865 0.16266 0.11234 0.0
C2252 C 0.9196 0.16598 0.05228 0.0
C2253 C 0.90182 0.15891 0.05601 0.0
C2254 C 0.93299 0.1669 0.0663 0.0
C2255 C 0.92856 0.1612 0.08434 0.0
C2256 C 0.91114 0.15298 0.08771 0.0
C2257 C 0.89788 0.15177 0.0736 0.0
C2258 C 0.94718 0.18098 0.12937 0.0
C2259 C 0.96584 0.17628 0.1286 0.0
C2260 C 0.93496 0.17559 0.11519 0.0
C2261 C 0.94129 0.16571 0.09987 0.0
C2262 C 0.95999 0.16119 0.09901 0.0
C2263 C 0.97211 0.16628 0.11333 0.0
H2264 H 0.82424 0.87512 0.07843 0.0
H2265 H 0.87289 0.89819 0.05192 0.0
H2266 H 0.82567 0.8993 0.10128 0.0
H2267 H 0.87408 0.92306 0.07494 0.0
H2268 H 0.87915 0.94971 0.13459 0.0
H2269 H 0.87971 0.92838 0.1084 0.0
H2270 H 0.82033 0.93168 0.10312 0.0
H2271 H 0.81985 0.95249 0.12949 0.0
C2272 C 0.83521 0.88547 0.07738 0.0
C2273 C 0.8484 0.8848 0.06326 0.0
C2274 C 0.83594 0.89946 0.09045 0.0
C2275 C 0.84978 0.91331 0.08975 0.0
C2276 C 0.86323 0.91256 0.07582 0.0
C2277 C 0.86254 0.89839 0.06264 0.0
C2278 C 0.8663 0.94604 0.12759 0.0
C2279 C 0.84941 0.95247 0.13416 0.0
C2280 C 0.86661 0.9339 0.11259 0.0
C2281 C 0.85003 0.92811 0.10388 0.0
C2282 C 0.8333 0.93549 0.10984 0.0
C2283 C 0.83298 0.94741 0.1249 0.0
H2284 H 0.11583 0.80913 0.02633 0.0
H2285 H 0.13842 0.86013 0.0486 0.0
H2286 H 0.09525 0.80617 0.05265 0.0
H2287 H 0.118 0.85696 0.07521 0.0
H2288 H 0.06731 0.85332 0.11255 0.0
H2289 H 0.08595 0.85738 0.0849 0.0
H2290 H 0.09752 0.79934 0.08525 0.0
H2291 H 0.07825 0.79517 0.11251 0.0
C2292 C 0.11638 0.81976 0.03682 0.0
C2293 C 0.12885 0.83484 0.03537 0.0
C2294 C 0.10464 0.81798 0.052 0.0
C2295 C 0.10507 0.83121 0.06617 0.0
C2296 C 0.11719 0.84658 0.06448 0.0
C2297 C 0.12894 0.84839 0.04924 0.0
C2298 C 0.07356 0.84135 0.10658 0.0
C2299 C 0.07114 0.82386 0.11471 0.0
C2300 C 0.08448 0.84374 0.09084 0.0
C2301 C 0.09325 0.8287 0.08281 0.0
C2302 C 0.09078 0.8112 0.09091 0.0
C2303 C 0.07988 0.80882 0.10667 0.0
H2304 H 0.15048 0.88831 0.95827 0.0
H2305 H 0.19921 0.91494 0.98155 0.0
H2306 H 0.15062 0.91066 0.93291 0.0
H2307 H 0.19893 0.93782 0.95696 0.0
H2308 H 0.21111 0.95683 0.89925 0.0
H2309 H 0.20718 0.93676 0.92563 0.0
H2310 H 0.14787 0.94121 0.92118 0.0
H2311 H 0.15171 0.96041 0.8939 0.0
C2312 C 0.16073 0.89944 0.95834 0.0
C2313 C 0.17484 0.9 0.97176 0.0
C2314 C 0.16091 0.9122 0.94379 0.0
C2315 C 0.17509 0.9258 0.9426 0.0
C2316 C 0.18818 0.92719 0.95705 0.0
C2317 C 0.18819 0.91428 0.97131 0.0
C2318 C 0.19719 0.95342 0.90361 0.0
C2319 C 0.18177 0.96052 0.89434 0.0
C2320 C 0.19492 0.94208 0.91906 0.0
C2321 C 0.17719 0.93764 0.92586 0.0
C2322 C 0.16173 0.94435 0.91639 0.0
C2323 C 0.16398 0.95558 0.90079 0.0
H2324 H 0.10517 0.20754 0.98456 0.0
H2325 H 0.1292 0.15841 0.9625 0.0
H2326 H 0.08139 0.20618 0.96063 0.0
H2327 H 0.10553 0.15728 0.93822 0.0
H2328 H 0.05111 0.15335 0.90504 0.0
H2329 H 0.07252 0.15258 0.93135 0.0
H2330 H 0.08017 0.21162 0.92784 0.0
H2331 H 0.0584 0.21243 0.90214 0.0
C2332 C 0.10537 0.19641 0.97462 0.0
C2333 C 0.1192 0.18318 0.97537 0.0
C2334 C 0.09176 0.19569 0.96082 0.0
C2335 C 0.09165 0.18175 0.94734 0.0
C2336 C 0.10511 0.16813 0.94845 0.0
C2337 C 0.11874 0.16883 0.96232 0.0
C2338 C 0.05717 0.16617 0.91007 0.0
C2339 C 0.05303 0.18296 0.90144 0.0
C2340 C 0.0696 0.16571 0.92502 0.0
C2341 C 0.07807 0.18204 0.93174 0.0
C2342 C 0.07374 0.1988 0.92321 0.0
C2343 C 0.0614 0.19925 0.9083 0.0
H2344 H 0.84296 0.07263 0.9061 0.0
H2345 H 0.79418 0.05012 0.93243 0.0
H2346 H 0.84744 0.09438 0.93162 0.0
H2347 H 0.79898 0.07098 0.95834 0.0
H2348 H 0.86007 0.1196 0.98834 0.0
H2349 H 0.85618 0.09819 0.96254 0.0
H2350 H 0.79679 0.10111 0.96768 0.0
H2351 H 0.8008 0.12153 0.99399 0.0
C2352 C 0.83329 0.0723 0.91745 0.0
C2353 C 0.81811 0.05989 0.9172 0.0
C2354 C 0.83589 0.08465 0.93216 0.0
C2355 C 0.82354 0.08461 0.94715 0.0
C2356 C 0.80853 0.07189 0.94691 0.0
C2357 C 0.80576 0.05983 0.93207 0.0
C2358 C 0.84621 0.11554 0.98397 0.0
C2359 C 0.83075 0.1221 0.99332 0.0
C2360 C 0.84394 0.10337 0.96905 0.0
C2361 C 0.82614 0.09773 0.96294 0.0
C2362 C 0.81073 0.10465 0.97219 0.0
C2363 C 0.81301 0.1165 0.98727 0.0
H2364 H 0.95021 0.81115 0.91136 0.0
H2365 H 0.95759 0.87021 0.91431 0.0
H2366 H 0.93279 0.81133 0.93985 0.0
H2367 H 0.94059 0.87038 0.94347 0.0
H2368 H 0.88708 0.86259 0.97947 0.0
H2369 H 0.90873 0.86528 0.95382 0.0
H2370 H 0.9356 0.81609 0.97249 0.0
H2371 H 0.91369 0.81313 0.99773 0.0
C2372 C 0.9482 0.82419 0.91818 0.0
C2373 C 0.95514 0.84068 0.91047 0.0
C2374 C 0.93841 0.82428 0.93469 0.0
C2375 C 0.93532 0.84087 0.94402 0.0
C2376 C 0.94261 0.85738 0.93656 0.0
C2377 C 0.9525 0.85727 0.91997 0.0
C2378 C 0.89778 0.85251 0.97823 0.0
C2379 C 0.89851 0.83749 0.99045 0.0
C2380 C 0.91025 0.8541 0.96357 0.0
C2381 C 0.92375 0.84076 0.96094 0.0
C2382 C 0.92511 0.82637 0.97386 0.0
C2383 C 0.91259 0.82471 0.98837 0.0
H2384 H 0.04964 0.146 0.12096 0.0
H2385 H 0.05048 0.20545 0.12246 0.0
H2386 H 0.07056 0.14712 0.09442 0.0
H2387 H 0.07183 0.20664 0.09725 0.0
H2388 H 0.106 0.20838 0.04793 0.0
H2389 H 0.07849 0.2033 0.06673 0.0
H2390 H 0.10198 0.15353 0.08875 0.0
H2391 H 0.12872 0.15813 0.06863 0.0
C2392 C 0.05406 0.15925 0.11546 0.0
C2393 C 0.04859 0.17561 0.12389 0.0
C2394 C 0.06621 0.15993 0.10041 0.0
C2395 C 0.0731 0.17698 0.09368 0.0
C2396 C 0.06671 0.19323 0.10165 0.0
C2397 C 0.05454 0.19255 0.11639 0.0
C2398 C 0.10506 0.19633 0.05674 0.0
C2399 C 0.11942 0.18382 0.05725 0.0
C2400 C 0.08938 0.19338 0.06756 0.0
C2401 C 0.08808 0.17818 0.07965 0.0
C2402 C 0.1023 0.16529 0.07955 0.0
C2403 C 0.11773 0.16799 0.06825 0.0
H2404 H 0.03136 0.81821 0.91011 0.0
H2405 H 0.05069 0.87 0.88705 0.0
H2406 H 0.05915 0.81682 0.92908 0.0
H2407 H 0.0788 0.86845 0.90599 0.0
H2408 H 0.11927 0.8665 0.95596 0.0
H2409 H 0.09068 0.86949 0.93808 0.0
H2410 H 0.09172 0.81166 0.92452 0.0
H2411 H 0.11985 0.80858 0.94277 0.0
C2412 C 0.04153 0.82934 0.90907 0.0
C2413 C 0.03878 0.84418 0.89693 0.0
C2414 C 0.05756 0.82848 0.91991 0.0
C2415 C 0.07134 0.84241 0.91895 0.0
C2416 C 0.06842 0.85753 0.90717 0.0
C2417 C 0.05233 0.85839 0.89625 0.0
C2418 C 0.11329 0.85439 0.94932 0.0
C2419 C 0.12188 0.83728 0.95088 0.0
C2420 C 0.097 0.85615 0.93889 0.0
C2421 C 0.08883 0.84081 0.92988 0.0
C2422 C 0.09746 0.82373 0.93145 0.0
C2423 C 0.11374 0.82199 0.94178 0.0
H2424 H 0.20736 0.11248 0.95161 0.0
H2425 H 0.14903 0.12365 0.95409 0.0
H2426 H 0.20032 0.08401 0.93529 0.0
H2427 H 0.1419 0.09454 0.93873 0.0
H2428 H 0.14281 0.05469 0.88742 0.0
H2429 H 0.14421 0.08046 0.90899 0.0
H2430 H 0.18761 0.05384 0.93965 0.0
H2431 H 0.18673 0.02861 0.91746 0.0
C2432 C 0.19304 0.10889 0.94871 0.0
C2433 C 0.1788 0.12039 0.95425 0.0
C2434 C 0.18894 0.09234 0.93965 0.0
C2435 C 0.17049 0.08678 0.93601 0.0
C2436 C 0.15624 0.09837 0.94135 0.0
C2437 C 0.16035 0.11501 0.9503 0.0
C2438 C 0.15205 0.05404 0.89924 0.0
C2439 C 0.16474 0.03983 0.90083 0.0
C2440 C 0.15297 0.06885 0.91156 0.0
C2441 C 0.16644 0.06946 0.92572 0.0
C2442 C 0.17753 0.05407 0.92852 0.0
C2443 C 0.17683 0.03948 0.91604 0.0
H2444 H 0.9582 0.14993 0.89562 0.0
H2445 H 0.97303 0.20633 0.90914 0.0
H2446 H 0.9341 0.15013 0.91923 0.0
H2447 H 0.9492 0.20643 0.9326 0.0
H2448 H 0.8921 0.20795 0.95746 0.0
H2449 H 0.91523 0.20579 0.93342 0.0
H2450 H 0.93007 0.15221 0.95365 0.0
H2451 H 0.90699 0.15442 0.97798 0.0
C2452 C 0.9564 0.16232 0.90365 0.0
C2453 C 0.96753 0.17814 0.9004 0.0
C2454 C 0.94263 0.16241 0.91722 0.0
C2455 C 0.93961 0.17835 0.92769 0.0
C2456 C 0.95093 0.19403 0.92457 0.0
C2457 C 0.9647 0.19392 0.91116 0.0
C2458 C 0.90032 0.19573 0.95692 0.0
C2459 C 0.89776 0.18148 0.9699 0.0
C2460 C 0.9136 0.19449 0.94308 0.0
C2461 C 0.92466 0.17892 0.94173 0.0
C2462 C 0.9217 0.16435 0.95425 0.0
C2463 C 0.90843 0.16562 0.96821 0.0
H2464 H 0.82752 0.89159 0.95183 0.0
H2465 H 0.85372 0.9166 0.99963 0.0
H2466 H 0.83326 0.91992 0.93411 0.0
H2467 H 0.85894 0.94528 0.98204 0.0
H2468 H 0.82236 0.99057 0.94216 0.0
H2469 H 0.82749 0.96514 0.96368 0.0
H2470 H 0.86739 0.94275 0.92644 0.0
H2471 H 0.86279 0.96855 0.90519 0.0
C2472 C 0.83457 0.90316 0.95845 0.0
C2473 C 0.84014 0.90206 0.97701 0.0
C2474 C 0.838 0.91922 0.94834 0.0
C2475 C 0.84669 0.93456 0.95677 0.0
C2476 C 0.85242 0.93348 0.97529 0.0
C2477 C 0.84942 0.91719 0.98528 0.0
C2478 C 0.83287 0.98069 0.93903 0.0
C2479 C 0.84225 0.98149 0.92213 0.0
C2480 C 0.83577 0.96618 0.95129 0.0
C2481 C 0.84776 0.95209 0.94657 0.0
C2482 C 0.85818 0.9536 0.93034 0.0
C2483 C 0.85563 0.96839 0.91828 0.0
H2484 H 0.975 0.85267 0.13626 0.0
H2485 H 0.99087 0.80137 0.11151 0.0
H2486 H 0.94669 0.85208 0.11772 0.0
H2487 H 0.96288 0.80103 0.09265 0.0
H2488 H 0.90188 0.79473 0.07785 0.0
H2489 H 0.93025 0.79618 0.09612 0.0
H2490 H 0.9346 0.85487 0.08689 0.0
H2491 H 0.90576 0.85358 0.06945 0.0
C2492 C 0.97258 0.84141 0.12668 0.0
C2493 C 0.98516 0.82703 0.12543 0.0
C2494 C 0.95636 0.84108 0.11601 0.0
C2495 C 0.9524 0.82642 0.10377 0.0
C2496 C 0.96526 0.81233 0.1022 0.0
C2497 C 0.9814 0.8126 0.11292 0.0
C2498 C 0.90875 0.80798 0.07986 0.0
C2499 C 0.90147 0.82401 0.07207 0.0
C2500 C 0.92519 0.80878 0.09016 0.0
C2501 C 0.93482 0.82563 0.0929 0.0
C2502 C 0.9275 0.84168 0.0852 0.0
C2503 C 0.91104 0.84089 0.07496 0.0
H2504 H 0.16558 0.911 0.04515 0.0
H2505 H 0.21874 0.89816 0.06896 0.0
H2506 H 0.16387 0.9376 0.06556 0.0
H2507 H 0.21713 0.92493 0.08889 0.0
H2508 H 0.21805 0.98558 0.10524 0.0
H2509 H 0.21802 0.95919 0.08447 0.0
H2510 H 0.16177 0.94547 0.0997 0.0
H2511 H 0.16173 0.97195 0.12054 0.0
C2512 C 0.17684 0.91366 0.05477 0.0
C2513 C 0.19241 0.90238 0.05516 0.0
C2514 C 0.17585 0.92899 0.06645 0.0
C2515 C 0.19047 0.93349 0.07867 0.0
C2516 C 0.20581 0.92204 0.07935 0.0
C2517 C 0.20673 0.90666 0.06785 0.0
C2518 C 0.2056 0.97706 0.10408 0.0
C2519 C 0.18992 0.98087 0.11464 0.0
C2520 C 0.20564 0.96185 0.09226 0.0
C2521 C 0.18995 0.95016 0.09057 0.0
C2522 C 0.17405 0.95427 0.10066 0.0
C2523 C 0.17406 0.96941 0.11264 0.0
H2524 H 0.87605 0.05113 0.15274 0.0
H2525 H 0.82636 0.02629 0.12921 0.0
H2526 H 0.87342 0.07705 0.13128 0.0
H2527 H 0.82398 0.05177 0.10771 0.0
H2528 H 0.81181 0.10943 0.08821 0.0
H2529 H 0.81623 0.0836 0.10891 0.0
H2530 H 0.87497 0.08632 0.09864 0.0
H2531 H 0.8706 0.11281 0.07836 0.0
C2532 C 0.86468 0.05111 0.14291 0.0
C2533 C 0.85132 0.03671 0.14284 0.0
C2534 C 0.86321 0.06592 0.13055 0.0
C2535 C 0.84837 0.06662 0.11788 0.0
C2536 C 0.83536 0.05193 0.11753 0.0
C2537 C 0.83679 0.03723 0.12985 0.0
C2538 C 0.8257 0.10468 0.09043 0.0
C2539 C 0.84083 0.1133 0.08159 0.0
C2540 C 0.82823 0.08967 0.10218 0.0
C2541 C 0.84596 0.08277 0.1054 0.0
C2542 C 0.86114 0.09136 0.09658 0.0
C2543 C 0.8586 0.10642 0.08477 0.0
H2544 H 0.10036 0.53528 0.69242 0.0
H2545 H 0.12258 0.5553 0.6408 0.0
H2546 H 0.07861 0.56033 0.69278 0.0
H2547 H 0.10098 0.58081 0.64131 0.0
H2548 H 0.05338 0.62199 0.6476 0.0
H2549 H 0.068 0.59241 0.64243 0.0
H2550 H 0.08789 0.59293 0.69888 0.0
H2551 H 0.07312 0.62219 0.70407 0.0
C2552 C 0.10012 0.54475 0.68083 0.0
C2553 C 0.11314 0.54354 0.66666 0.0
C2554 C 0.08782 0.55916 0.68112 0.0
C2555 C 0.08848 0.57276 0.66735 0.0
C2556 C 0.10022 0.5705 0.65213 0.0
C2557 C 0.1125 0.55589 0.65177 0.0
C2558 C 0.06071 0.61565 0.65893 0.0
C2559 C 0.0621 0.62437 0.67627 0.0
C2560 C 0.06914 0.5988 0.65592 0.0
C2561 C 0.07888 0.59028 0.67029 0.0
C2562 C 0.08018 0.599 0.68762 0.0
C2563 C 0.07193 0.61587 0.69056 0.0
H2564 H 0.97571 0.6308 0.65701 0.0
H2565 H 0.98091 0.6309 0.71648 0.0
H2566 H 0.94964 0.60897 0.65908 0.0
H2567 H 0.95428 0.61013 0.71875 0.0
H2568 H 0.9166 0.56002 0.71811 0.0
H2569 H 0.94353 0.58044 0.715 0.0
H2570 H 0.91873 0.60504 0.66657 0.0
H2571 H 0.8923 0.58364 0.66927 0.0
C2572 C 0.9712 0.62621 0.67053 0.0
C2573 C 0.98045 0.63243 0.68657 0.0
C2574 C 0.95612 0.61381 0.67177 0.0
C2575 C 0.9497 0.60764 0.68911 0.0
C2576 C 0.95897 0.61409 0.70512 0.0
C2577 C 0.97425 0.62614 0.70384 0.0
C2578 C 0.91694 0.56988 0.70687 0.0
C2579 C 0.90236 0.57039 0.69401 0.0
C2580 C 0.93235 0.58169 0.70509 0.0
C2581 C 0.93341 0.59464 0.6906 0.0
C2582 C 0.91869 0.59511 0.67773 0.0
C2583 C 0.90344 0.58298 0.67932 0.0
H2584 H 0.9422 0.40894 0.71631 0.0
H2585 H 0.96741 0.41384 0.66249 0.0
H2586 H 0.92557 0.43702 0.71062 0.0
H2587 H 0.95038 0.4419 0.65672 0.0
H2588 H 0.89588 0.4785 0.65069 0.0
H2589 H 0.91728 0.45283 0.65254 0.0
H2590 H 0.93371 0.47019 0.70746 0.0
H2591 H 0.91221 0.49537 0.70571 0.0
C2592 C 0.94432 0.41601 0.70331 0.0
C2593 C 0.95633 0.40908 0.68998 0.0
C2594 C 0.93477 0.43216 0.70003 0.0
C2595 C 0.93687 0.44184 0.68331 0.0
C2596 C 0.94847 0.43474 0.66972 0.0
C2597 C 0.95817 0.41858 0.67305 0.0
C2598 C 0.90458 0.47717 0.66284 0.0
C2599 C 0.90233 0.48879 0.67812 0.0
C2600 C 0.91674 0.46242 0.66396 0.0
C2601 C 0.92679 0.45922 0.68036 0.0
C2602 C 0.92579 0.472 0.69484 0.0
C2603 C 0.91364 0.48654 0.69376 0.0
H2604 H 0.12049 0.45447 0.65314 0.0
H2605 H 0.09571 0.4677 0.70542 0.0
H2606 H 0.09449 0.43346 0.64606 0.0
H2607 H 0.06985 0.44653 0.69848 0.0
H2608 H 0.01958 0.41659 0.67711 0.0
H2609 H 0.04279 0.44182 0.67624 0.0
H2610 H 0.08428 0.40325 0.66027 0.0
H2611 H 0.06113 0.37824 0.6613 0.0
C2612 C 0.1094 0.45298 0.66304 0.0
C2613 C 0.11014 0.46261 0.67988 0.0
C2614 C 0.09457 0.44096 0.659 0.0
C2615 C 0.0801 0.4385 0.67165 0.0
C2616 C 0.08068 0.44839 0.68834 0.0
C2617 C 0.0956 0.46026 0.69246 0.0
C2618 C 0.03352 0.41377 0.67271 0.0
C2619 C 0.03872 0.3957 0.66912 0.0
C2620 C 0.04679 0.42808 0.67242 0.0
C2621 C 0.06534 0.42441 0.66838 0.0
C2622 C 0.07008 0.40649 0.6633 0.0
C2623 C 0.05689 0.39221 0.66384 0.0
H2624 H 0.04665 0.42095 0.31572 0.0
H2625 H 0.06938 0.39215 0.36243 0.0
H2626 H 0.07118 0.44427 0.31811 0.0
H2627 H 0.0947 0.41507 0.36446 0.0
H2628 H 0.12659 0.4729 0.31343 0.0
H2629 H 0.10234 0.4492 0.31231 0.0
H2630 H 0.10364 0.44545 0.37198 0.0
H2631 H 0.12868 0.46855 0.37293 0.0
C2632 C 0.0571 0.41953 0.32639 0.0
C2633 C 0.05623 0.40468 0.33879 0.0
C2634 C 0.07127 0.43285 0.32773 0.0
C2635 C 0.08521 0.43152 0.34131 0.0
C2636 C 0.08416 0.41673 0.35393 0.0
C2637 C 0.06972 0.40353 0.35276 0.0
C2638 C 0.12172 0.46699 0.32631 0.0
C2639 C 0.1295 0.47266 0.34326 0.0
C2640 C 0.10768 0.45345 0.3257 0.0
C2641 C 0.10076 0.44545 0.34208 0.0
C2642 C 0.10869 0.45107 0.35906 0.0
C2643 C 0.12299 0.46442 0.35963 0.0
H2644 H 0.1203 0.56193 0.31947 0.0
H2645 H 0.11533 0.54736 0.37709 0.0
H2646 H 0.09096 0.57739 0.32068 0.0
H2647 H 0.08547 0.56269 0.37828 0.0
H2648 H 0.04708 0.61575 0.37298 0.0
H2649 H 0.07328 0.59506 0.37596 0.0
H2650 H 0.05804 0.56972 0.32387 0.0
H2651 H 0.03234 0.59051 0.32077 0.0
C2652 C 0.1129 0.562 0.33241 0.0
C2653 C 0.12018 0.55345 0.34817 0.0
C2654 C 0.09594 0.57068 0.33307 0.0
C2655 C 0.08575 0.57113 0.34955 0.0
C2656 C 0.09299 0.56258 0.36539 0.0
C2657 C 0.10998 0.55369 0.36467 0.0
C2658 C 0.04903 0.60533 0.36252 0.0
C2659 C 0.03782 0.60481 0.34656 0.0
C2660 C 0.06405 0.59353 0.36417 0.0
C2661 C 0.06798 0.58104 0.34993 0.0
C2662 C 0.05568 0.57949 0.33485 0.0
C2663 C 0.04087 0.5913 0.33314 0.0
H2664 H 0.94935 0.60802 0.36062 0.0
H2665 H 0.95008 0.59419 0.30252 0.0
H2666 H 0.92685 0.58311 0.36593 0.0
H2667 H 0.92693 0.5702 0.30763 0.0
H2668 H 0.89906 0.51678 0.32419 0.0
H2669 H 0.92306 0.54057 0.32082 0.0
H2670 H 0.89516 0.5745 0.36039 0.0
H2671 H 0.87149 0.55038 0.36422 0.0
C2672 C 0.94476 0.59973 0.34897 0.0
C2673 C 0.95163 0.60322 0.33113 0.0
C2674 C 0.93166 0.58556 0.35198 0.0
C2675 C 0.92506 0.57457 0.33722 0.0
C2676 C 0.93189 0.57814 0.3194 0.0
C2677 C 0.94503 0.59218 0.31642 0.0
C2678 C 0.89808 0.52929 0.33222 0.0
C2679 C 0.88332 0.53172 0.3444 0.0
C2680 C 0.9118 0.543 0.33022 0.0
C2681 C 0.91099 0.55957 0.3402 0.0
C2682 C 0.89636 0.56185 0.35263 0.0
C2683 C 0.88272 0.54805 0.35475 0.0
H2684 H 0.9626 0.39507 0.38619 0.0
H2685 H 0.97649 0.42028 0.33392 0.0
H2686 H 0.93572 0.41491 0.38857 0.0
H2687 H 0.94999 0.44014 0.33637 0.0
H2688 H 0.88684 0.44182 0.33039 0.0
H2689 H 0.91708 0.42812 0.33309 0.0
H2690 H 0.92239 0.44812 0.38911 0.0
H2691 H 0.89176 0.46186 0.3864 0.0
C2692 C 0.96039 0.40541 0.37567 0.0
C2693 C 0.97146 0.40609 0.3598 0.0
C2694 C 0.94497 0.41668 0.37696 0.0
C2695 C 0.94057 0.42872 0.36242 0.0
C2696 C 0.95285 0.4307 0.34758 0.0
C2697 C 0.96809 0.41945 0.34625 0.0
C2698 C 0.89437 0.44321 0.34332 0.0
C2699 C 0.88693 0.45288 0.35817 0.0
C2700 C 0.9118 0.43557 0.34481 0.0
C2701 C 0.92219 0.43728 0.36124 0.0
C2702 C 0.91469 0.44669 0.37627 0.0
C2703 C 0.89726 0.4546 0.37468 0.0
H2704 H 0.14659 0.61882 0.53487 0.0
H2705 H 0.19845 0.6409 0.55639 0.0
H2706 H 0.14769 0.59382 0.55773 0.0
H2707 H 0.19925 0.6167 0.57913 0.0
H2708 H 0.20661 0.56443 0.60844 0.0
H2709 H 0.20402 0.58452 0.58161 0.0
H2710 H 0.14541 0.589 0.59129 0.0
H2711 H 0.14805 0.56831 0.61784 0.0
C2712 C 0.15817 0.61833 0.54441 0.0
C2713 C 0.17246 0.63176 0.54376 0.0
C2714 C 0.15878 0.6041 0.55752 0.0
C2715 C 0.17369 0.60314 0.5701 0.0
C2716 C 0.18782 0.61668 0.56937 0.0
C2717 C 0.18726 0.63072 0.55636 0.0
C2718 C 0.19319 0.56964 0.60472 0.0
C2719 C 0.17759 0.56509 0.6153 0.0
C2720 C 0.19167 0.58113 0.58939 0.0
C2721 C 0.17455 0.58862 0.5845 0.0
C2722 C 0.15876 0.58337 0.5946 0.0
C2723 C 0.16026 0.57162 0.60983 0.0
H2724 H 0.90562 0.70964 0.53907 0.0
H2725 H 0.90081 0.65073 0.54627 0.0
H2726 H 0.92829 0.71162 0.56353 0.0
H2727 H 0.92469 0.65251 0.5706 0.0
H2728 H 0.94594 0.66833 0.62973 0.0
H2729 H 0.92732 0.66268 0.6018 0.0
H2730 H 0.95781 0.70642 0.57398 0.0
H2731 H 0.97535 0.7126 0.60225 0.0
C2732 C 0.90981 0.69698 0.54563 0.0
C2733 C 0.90132 0.68005 0.54088 0.0
C2734 C 0.92303 0.69809 0.55963 0.0
C2735 C 0.92839 0.68224 0.5692 0.0
C2736 C 0.92068 0.66504 0.56371 0.0
C2737 C 0.90722 0.66395 0.54963 0.0
C2738 C 0.94843 0.67673 0.61759 0.0
C2739 C 0.9616 0.69122 0.61817 0.0
C2740 C 0.93801 0.67336 0.60151 0.0
C2741 C 0.94088 0.6842 0.5856 0.0
C2742 C 0.95478 0.69813 0.58607 0.0
C2743 C 0.96483 0.70174 0.60225 0.0
H2744 H 0.81853 0.46579 0.61038 0.0
H2745 H 0.87133 0.45536 0.63583 0.0
H2746 H 0.82438 0.44236 0.58687 0.0
H2747 H 0.87699 0.43148 0.61262 0.0
H2748 H 0.85131 0.37264 0.58789 0.0
H2749 H 0.85386 0.39967 0.60802 0.0
H2750 H 0.85212 0.43518 0.56024 0.0
H2751 H 0.85027 0.40802 0.53996 0.0
C2752 C 0.83145 0.45858 0.61076 0.0
C2753 C 0.84448 0.46224 0.62482 0.0
C2754 C 0.83486 0.44535 0.5973 0.0
C2755 C 0.85117 0.4353 0.59797 0.0
C2756 C 0.8644 0.43922 0.6118 0.0
C2757 C 0.86118 0.4528 0.62499 0.0
C2758 C 0.85199 0.38623 0.5817 0.0
C2759 C 0.85058 0.38837 0.56247 0.0
C2760 C 0.85351 0.40162 0.59317 0.0
C2761 C 0.85316 0.41938 0.58559 0.0
C2762 C 0.8525 0.42156 0.5663 0.0
C2763 C 0.8515 0.4061 0.55477 0.0
H2764 H 0.09515 0.31809 0.53917 0.0
H2765 H 0.1175 0.36999 0.55919 0.0
H2766 H 0.07225 0.31773 0.56365 0.0
H2767 H 0.09473 0.36949 0.58418 0.0
H2768 H 0.04433 0.36527 0.62284 0.0
H2769 H 0.06203 0.36931 0.59442 0.0
H2770 H 0.07657 0.31204 0.59652 0.0
H2771 H 0.0585 0.30793 0.62455 0.0
C2772 C 0.09481 0.32968 0.54858 0.0
C2773 C 0.10807 0.34404 0.54736 0.0
C2774 C 0.08184 0.32937 0.56273 0.0
C2775 C 0.08198 0.34332 0.57616 0.0
C2776 C 0.09427 0.35852 0.57405 0.0
C2777 C 0.10723 0.3589 0.55969 0.0
C2778 C 0.05106 0.35348 0.61705 0.0
C2779 C 0.04988 0.3362 0.62588 0.0
C2780 C 0.06135 0.35586 0.60087 0.0
C2781 C 0.07058 0.34099 0.59309 0.0
C2782 C 0.06935 0.32373 0.60193 0.0
C2783 C 0.05917 0.32138 0.61812 0.0
H2784 H 0.20804 0.39079 0.48873 0.0
H2785 H 0.1487 0.39061 0.48205 0.0
H2786 H 0.21135 0.41192 0.463 0.0
H2787 H 0.15186 0.41279 0.45679 0.0
H2788 H 0.16479 0.43934 0.40057 0.0
H2789 H 0.16047 0.41759 0.42611 0.0
H2790 H 0.20831 0.44193 0.45384 0.0
H2791 H 0.21298 0.46273 0.4279 0.0
C2792 C 0.19564 0.39553 0.48193 0.0
C2793 C 0.1781 0.38909 0.48752 0.0
C2794 C 0.19752 0.40782 0.46717 0.0
C2795 C 0.18188 0.41436 0.45775 0.0
C2796 C 0.16427 0.40794 0.46344 0.0
C2797 C 0.16242 0.39533 0.47805 0.0
C2798 C 0.17434 0.4399 0.41216 0.0
C2799 C 0.18936 0.45251 0.41216 0.0
C2800 C 0.17184 0.42754 0.42689 0.0
C2801 C 0.18411 0.42777 0.44214 0.0
C2802 C 0.19885 0.44083 0.44221 0.0
C2803 C 0.20153 0.45286 0.42736 0.0
H2804 H 0.05483 0.64451 0.40093 0.0
H2805 H 0.06698 0.70213 0.39108 0.0
H2806 H 0.07288 0.64613 0.42971 0.0
H2807 H 0.0853 0.70366 0.41935 0.0
H2808 H 0.10358 0.70607 0.47845 0.0
H2809 H 0.08188 0.70237 0.45276 0.0
H2810 H 0.10573 0.65022 0.43919 0.0
H2811 H 0.12732 0.65375 0.46514 0.0
C2812 C 0.06124 0.65753 0.40497 0.0
C2813 C 0.05955 0.67318 0.39369 0.0
C2814 C 0.07169 0.65842 0.42135 0.0
C2815 C 0.08049 0.67504 0.42684 0.0
C2816 C 0.07852 0.69071 0.41567 0.0
C2817 C 0.0682 0.68978 0.39932 0.0
C2818 C 0.1041 0.69371 0.47012 0.0
C2819 C 0.11732 0.6803 0.47374 0.0
C2820 C 0.0917 0.69163 0.45535 0.0
C2821 C 0.09223 0.67611 0.44379 0.0
C2822 C 0.10489 0.66228 0.4479 0.0
C2823 C 0.11732 0.66436 0.46272 0.0
H2824 H 0.8065 0.62075 0.48536 0.0
H2825 H 0.86375 0.63095 0.471 0.0
H2826 H 0.80322 0.59911 0.45981 0.0
H2827 H 0.86037 0.60915 0.44536 0.0
H2828 H 0.84957 0.55278 0.4155 0.0
H2829 H 0.85432 0.57506 0.44017 0.0
H2830 H 0.80336 0.601 0.42509 0.0
H2831 H 0.79868 0.57901 0.40001 0.0
C2832 C 0.81844 0.6183 0.47684 0.0
C2833 C 0.83539 0.62761 0.48024 0.0
C2834 C 0.81649 0.606 0.46209 0.0
C2835 C 0.83148 0.60256 0.45048 0.0
C2836 C 0.84859 0.61149 0.45412 0.0
C2837 C 0.85051 0.62398 0.46879 0.0
C2838 C 0.83947 0.56336 0.41709 0.0
C2839 C 0.82362 0.5639 0.40564 0.0
C2840 C 0.84222 0.57614 0.43135 0.0
C2841 C 0.82915 0.58968 0.43466 0.0
C2842 C 0.81353 0.59051 0.42305 0.0
C2843 C 0.81085 0.57786 0.40867 0.0
H2844 H 0.87945 0.36577 0.47594 0.0
H2845 H 0.9047 0.31567 0.4945 0.0
H2846 H 0.90155 0.36792 0.4505 0.0
H2847 H 0.92688 0.31805 0.46951 0.0
H2848 H 0.94211 0.31238 0.40882 0.0
H2849 H 0.92354 0.31336 0.43656 0.0
H2850 H 0.93448 0.37192 0.44104 0.0
H2851 H 0.95281 0.37096 0.41266 0.0
C2852 C 0.88992 0.35542 0.47479 0.0
C2853 C 0.89015 0.34038 0.48703 0.0
C2854 C 0.90261 0.35669 0.46027 0.0
C2855 C 0.91578 0.34299 0.45781 0.0
C2856 C 0.91663 0.32859 0.47075 0.0
C2857 C 0.90394 0.32727 0.48512 0.0
C2858 C 0.94053 0.32549 0.41565 0.0
C2859 C 0.94883 0.34161 0.40847 0.0
C2860 C 0.93006 0.32603 0.43171 0.0
C2861 C 0.9276 0.34271 0.44109 0.0
C2862 C 0.93606 0.35887 0.43407 0.0
C2863 C 0.94668 0.3583 0.41795 0.0
H2864 H 0.09708 0.68129 0.53397 0.0
H2865 H 0.12968 0.68664 0.58393 0.0
H2866 H 0.06936 0.67465 0.55247 0.0
H2867 H 0.10215 0.6797 0.60239 0.0
H2868 H 0.0526 0.65314 0.62978 0.0
H2869 H 0.07737 0.65194 0.60685 0.0
H2870 H 0.0527 0.69649 0.5767 0.0
H2871 H 0.02832 0.69799 0.59984 0.0
C2872 C 0.09828 0.68087 0.5489 0.0
C2873 C 0.11539 0.68465 0.5576 0.0
C2874 C 0.08252 0.67704 0.55942 0.0
C2875 C 0.08373 0.67646 0.57879 0.0
C2876 C 0.10094 0.6798 0.58745 0.0
C2877 C 0.11659 0.68402 0.57695 0.0
C2878 C 0.0521 0.66212 0.61783 0.0
C2879 C 0.03862 0.67561 0.61643 0.0
C2880 C 0.06633 0.66157 0.60486 0.0
C2881 C 0.06694 0.67423 0.59016 0.0
C2882 C 0.05246 0.68653 0.58786 0.0
C2883 C 0.03852 0.68737 0.60104 0.0
H2884 H 0.02073 0.31752 0.41745 0.0
H2885 H 0.04909 0.36242 0.38952 0.0
H2886 H 0.04648 0.31515 0.439 0.0
H2887 H 0.07525 0.35969 0.41084 0.0
H2888 H 0.11199 0.35968 0.46318 0.0
H2889 H 0.08584 0.36385 0.44227 0.0
H2890 H 0.07731 0.30487 0.4394 0.0
H2891 H 0.10261 0.30073 0.46092 0.0
C2892 C 0.03251 0.32687 0.41587 0.0
C2893 C 0.03287 0.34009 0.40169 0.0
C2894 C 0.04737 0.32543 0.42818 0.0
C2895 C 0.06312 0.33706 0.42657 0.0
C2896 C 0.06332 0.35059 0.41261 0.0
C2897 C 0.04834 0.35212 0.40034 0.0
C2898 C 0.10445 0.34759 0.45826 0.0
C2899 C 0.1095 0.32985 0.46394 0.0
C2900 C 0.08954 0.34999 0.44606 0.0
C2901 C 0.07932 0.33471 0.4392 0.0
C2902 C 0.08459 0.317 0.44464 0.0
C2903 C 0.09938 0.31461 0.45685 0.0
H2904 H 0.14883 0.61982 0.45901 0.0
H2905 H 0.20747 0.60985 0.46021 0.0
H2906 H 0.14307 0.58961 0.44526 0.0
H2907 H 0.20183 0.58021 0.4456 0.0
H2908 H 0.19019 0.52332 0.43141 0.0
H2909 H 0.18939 0.55011 0.4516 0.0
H2910 H 0.14738 0.57355 0.41654 0.0
H2911 H 0.14769 0.54625 0.3969 0.0
C2912 C 0.16051 0.61121 0.45639 0.0
C2913 C 0.17864 0.61728 0.46086 0.0
C2914 C 0.15719 0.59393 0.44837 0.0
C2915 C 0.17194 0.58234 0.44456 0.0
C2916 C 0.19007 0.58855 0.44878 0.0
C2917 C 0.19337 0.60575 0.45686 0.0
C2918 C 0.1802 0.53384 0.42858 0.0
C2919 C 0.169 0.53281 0.4127 0.0
C2920 C 0.17994 0.54933 0.43992 0.0
C2921 C 0.16878 0.56425 0.43533 0.0
C2922 C 0.15618 0.56234 0.42048 0.0
C2923 C 0.15622 0.54664 0.40928 0.0
H2924 H 0.89997 0.655 0.45474 0.0
H2925 H 0.91113 0.71351 0.44981 0.0
H2926 H 0.92535 0.64914 0.43367 0.0
H2927 H 0.93557 0.7077 0.42819 0.0
H2928 H 0.99029 0.69344 0.40488 0.0
H2929 H 0.96591 0.69667 0.42744 0.0
H2930 H 0.93513 0.65161 0.4019 0.0
H2931 H 0.96003 0.64798 0.37957 0.0
C2932 C 0.90775 0.66663 0.44922 0.0
C2933 C 0.90337 0.68476 0.45416 0.0
C2934 C 0.92221 0.66326 0.43694 0.0
C2935 C 0.93268 0.67792 0.42927 0.0
C2936 C 0.92812 0.696 0.43405 0.0
C2937 C 0.9138 0.69936 0.44633 0.0
C2938 C 0.97839 0.68412 0.40412 0.0
C2939 C 0.97706 0.67055 0.39031 0.0
C2940 C 0.9643 0.68606 0.41701 0.0
C2941 C 0.94832 0.67463 0.41637 0.0
C2942 C 0.94725 0.66061 0.40292 0.0
C2943 C 0.9615 0.65856 0.39007 0.0
H2944 H 0.80192 0.41716 0.47912 0.0
H2945 H 0.85995 0.40469 0.47581 0.0
H2946 H 0.80737 0.44472 0.46119 0.0
H2947 H 0.86564 0.43314 0.45886 0.0
H2948 H 0.85939 0.46877 0.4051 0.0
H2949 H 0.86038 0.44519 0.42901 0.0
H2950 H 0.81997 0.47461 0.46048 0.0
H2951 H 0.81824 0.49748 0.4359 0.0
C2952 C 0.81589 0.4203 0.47473 0.0
C2953 C 0.83041 0.40844 0.47885 0.0
C2954 C 0.81912 0.43643 0.4647 0.0
C2955 C 0.83701 0.44135 0.45867 0.0
C2956 C 0.85166 0.42976 0.46316 0.0
C2957 C 0.84839 0.41347 0.47307 0.0
C2958 C 0.85124 0.47048 0.41746 0.0
C2959 C 0.8386 0.48476 0.41867 0.0
C2960 C 0.85175 0.45694 0.43119 0.0
C2961 C 0.83983 0.45768 0.44647 0.0
C2962 C 0.82884 0.47324 0.44859 0.0
C2963 C 0.82802 0.48649 0.43468 0.0
H2964 H 0.9013 0.29824 0.56582 0.0
H2965 H 0.88638 0.35376 0.5788 0.0
H2966 H 0.92752 0.3008 0.58722 0.0
H2967 H 0.91174 0.35619 0.60103 0.0
H2968 H 0.96793 0.36172 0.62831 0.0
H2969 H 0.94337 0.35932 0.60508 0.0
H2970 H 0.93567 0.3015 0.6181 0.0
H2971 H 0.96091 0.30378 0.64032 0.0
C2972 C 0.9036 0.31091 0.57347 0.0
C2973 C 0.89199 0.32582 0.57068 0.0
C2974 C 0.91852 0.31241 0.58582 0.0
C2975 C 0.92186 0.32873 0.59598 0.0
C2976 C 0.90999 0.34356 0.59321 0.0
C2977 C 0.89536 0.34217 0.58057 0.0
C2978 C 0.96099 0.34852 0.62607 0.0
C2979 C 0.96635 0.33294 0.63602 0.0
C2980 C 0.94681 0.34712 0.61285 0.0
C2981 C 0.9374 0.33019 0.60962 0.0
C2982 C 0.94279 0.31467 0.61979 0.0
C2983 C 0.95721 0.316 0.63267 0.0
H2984 H 0.14809 0.47079 0.63122 0.0
H2985 H 0.20203 0.48574 0.60986 0.0
H2986 H 0.14728 0.44332 0.61188 0.0
H2987 H 0.20108 0.4584 0.59035 0.0
H2988 H 0.20304 0.39611 0.57916 0.0
H2989 H 0.20279 0.4252 0.5958 0.0
H2990 H 0.14587 0.43238 0.57946 0.0
H2991 H 0.14602 0.4029 0.56312 0.0
C2992 C 0.1597 0.46834 0.62227 0.0
C2993 C 0.1752 0.48042 0.62223 0.0
C2994 C 0.15917 0.45263 0.61109 0.0
C2995 C 0.17416 0.4486 0.59965 0.0
C2996 C 0.18942 0.46096 0.59921 0.0
C2997 C 0.18992 0.4767 0.61034 0.0
C2998 C 0.19045 0.40384 0.57917 0.0
C2999 C 0.17452 0.39713 0.5699 0.0
C3000 C 0.19036 0.42063 0.58853 0.0
C3001 C 0.17432 0.43114 0.58893 0.0
C3002 C 0.15841 0.42455 0.57951 0.0
C3003 C 0.15854 0.40776 0.57001 0.0
H3004 H 0.80907 0.62595 0.57174 0.0
H3005 H 0.868 0.6244 0.56325 0.0
H3006 H 0.81076 0.59965 0.59245 0.0
H3007 H 0.86967 0.59764 0.58381 0.0
H3008 H 0.86572 0.56307 0.63866 0.0
H3009 H 0.86582 0.58914 0.61715 0.0
H3010 H 0.8165 0.56674 0.59075 0.0
H3011 H 0.81628 0.54095 0.61215 0.0
C3012 C 0.82242 0.62001 0.57431 0.0
C3013 C 0.83839 0.62734 0.56582 0.0
C3014 C 0.82337 0.60478 0.58606 0.0
C3015 C 0.84035 0.59645 0.58976 0.0
C3016 C 0.85639 0.60379 0.58134 0.0
C3017 C 0.8554 0.619 0.56942 0.0
C3018 C 0.85496 0.56367 0.6282 0.0
C3019 C 0.84093 0.54993 0.62726 0.0
C3020 C 0.85507 0.57858 0.61582 0.0
C3021 C 0.84108 0.58013 0.6023 0.0
C3022 C 0.82731 0.56617 0.60116 0.0
C3023 C 0.82725 0.5513 0.61343 0.0
H3024 H 0.53881 0.1127 0.65312 0.0
H3025 H 0.59242 0.1391 0.64648 0.0
H3026 H 0.5529 0.08249 0.65086 0.0
H3027 H 0.60651 0.10892 0.64409 0.0
H3028 H 0.62604 0.05186 0.6319 0.0
H3029 H 0.60675 0.07831 0.62464 0.0
H3030 H 0.57557 0.06819 0.67443 0.0
H3031 H 0.59519 0.04238 0.68188 0.0
C3032 C 0.55354 0.11203 0.65077 0.0
C3033 C 0.56457 0.12821 0.65013 0.0
C3034 C 0.56158 0.09477 0.6495 0.0
C3035 C 0.58076 0.09338 0.64722 0.0
C3036 C 0.59166 0.10959 0.64561 0.0
C3037 C 0.58365 0.12683 0.64721 0.0
C3038 C 0.61471 0.05501 0.64092 0.0
C3039 C 0.61221 0.0453 0.65752 0.0
C3040 C 0.60375 0.07015 0.63685 0.0
C3041 C 0.5898 0.07538 0.64909 0.0
C3042 C 0.58616 0.06445 0.66471 0.0
C3043 C 0.59738 0.04967 0.66898 0.0
H3044 H 0.40149 0.07242 0.64843 0.0
H3045 H 0.41405 0.07384 0.70691 0.0
H3046 H 0.42853 0.09221 0.6425 0.0
H3047 H 0.44042 0.09421 0.70109 0.0
H3048 H 0.49695 0.11457 0.68451 0.0
H3049 H 0.47074 0.09326 0.688 0.0
H3050 H 0.4403 0.12346 0.64679 0.0
H3051 H 0.46676 0.14455 0.64296 0.0
C3052 C 0.40996 0.07695 0.66003 0.0
C3053 C 0.40556 0.07143 0.67815 0.0
C3054 C 0.42537 0.08845 0.65664 0.0
C3055 C 0.43675 0.09471 0.6713 0.0
C3056 C 0.43217 0.0894 0.68942 0.0
C3057 C 0.41683 0.0779 0.6928 0.0
C3058 C 0.48474 0.11658 0.67606 0.0
C3059 C 0.48391 0.13134 0.66356 0.0
C3060 C 0.46964 0.10443 0.67816 0.0
C3061 C 0.45329 0.10679 0.66788 0.0
C3062 C 0.4527 0.12116 0.65485 0.0
C3063 C 0.46787 0.13329 0.65269 0.0
H3064 H 0.45563 0.90205 0.65526 0.0
H3065 H 0.45758 0.92046 0.71206 0.0
H3066 H 0.44102 0.93061 0.64624 0.0
H3067 H 0.44217 0.94832 0.70326 0.0
H3068 H 0.42509 0.00223 0.68568 0.0
H3069 H 0.44626 0.97673 0.68774 0.0
H3070 H 0.41207 0.9458 0.64889 0.0
H3071 H 0.39149 0.97182 0.64627 0.0
C3072 C 0.45302 0.91215 0.66584 0.0
C3073 C 0.45785 0.90885 0.68443 0.0
C3074 C 0.4445 0.9285 0.66066 0.0
C3075 C 0.44057 0.94192 0.67395 0.0
C3076 C 0.44536 0.93855 0.69252 0.0
C3077 C 0.45393 0.92231 0.69767 0.0
C3078 C 0.42262 0.99027 0.67697 0.0
C3079 C 0.40677 0.98896 0.66575 0.0
C3080 C 0.43455 0.97552 0.67837 0.0
C3081 C 0.43057 0.95895 0.66895 0.0
C3082 C 0.4156 0.95832 0.65636 0.0
C3083 C 0.40384 0.97328 0.65472 0.0
H3084 H 0.52094 0.91233 0.67039 0.0
H3085 H 0.5662 0.87494 0.67422 0.0
H3086 H 0.54316 0.93851 0.66931 0.0
H3087 H 0.5883 0.90083 0.67269 0.0
H3088 H 0.62306 0.9519 0.65833 0.0
H3089 H 0.59919 0.92826 0.65185 0.0
H3090 H 0.56612 0.94934 0.69613 0.0
H3091 H 0.59005 0.97292 0.70265 0.0
C3092 C 0.53562 0.90974 0.67034 0.0
C3093 C 0.542 0.89178 0.67236 0.0
C3094 C 0.54828 0.92464 0.66989 0.0
C3095 C 0.56739 0.92162 0.671 0.0
C3096 C 0.57366 0.90351 0.67168 0.0
C3097 C 0.56106 0.88874 0.67258 0.0
C3098 C 0.6106 0.95157 0.66653 0.0
C3099 C 0.60842 0.96409 0.68109 0.0
C3100 C 0.59699 0.93809 0.66282 0.0
C3101 C 0.58081 0.93711 0.67341 0.0
C3102 C 0.57838 0.94997 0.68762 0.0
C3103 C 0.59214 0.96326 0.69152 0.0
H3104 H 0.54884 0.90417 0.31373 0.0
H3105 H 0.57543 0.87687 0.35931 0.0
H3106 H 0.57197 0.929 0.31524 0.0
H3107 H 0.59914 0.90135 0.36051 0.0
H3108 H 0.6253 0.96221 0.31032 0.0
H3109 H 0.60273 0.93688 0.30904 0.0
H3110 H 0.60509 0.9322 0.36861 0.0
H3111 H 0.62837 0.957 0.36973 0.0
C3112 C 0.55983 0.90336 0.3239 0.0
C3113 C 0.56036 0.88854 0.33636 0.0
C3114 C 0.57318 0.91758 0.32477 0.0
C3115 C 0.58759 0.91725 0.33795 0.0
C3116 C 0.58813 0.90232 0.35036 0.0
C3117 C 0.5746 0.88821 0.34965 0.0
C3118 C 0.62101 0.95576 0.32315 0.0
C3119 C 0.62861 0.96166 0.34012 0.0
C3120 C 0.60794 0.94127 0.32244 0.0
C3121 C 0.6019 0.93244 0.33873 0.0
C3122 C 0.60956 0.93839 0.35573 0.0
C3123 C 0.62283 0.95274 0.3564 0.0
H3124 H 0.60594 0.03181 0.3637 0.0
H3125 H 0.63502 0.07278 0.33096 0.0
H3126 H 0.58094 0.05338 0.36864 0.0
H3127 H 0.61004 0.09389 0.33534 0.0
H3128 H 0.57253 0.13492 0.35605 0.0
H3129 H 0.59663 0.11225 0.35948 0.0
H3130 H 0.55606 0.06848 0.35038 0.0
H3131 H 0.5318 0.0914 0.34754 0.0
C3132 C 0.60705 0.04539 0.35762 0.0
C3133 C 0.62248 0.05053 0.34687 0.0
C3134 C 0.59268 0.05769 0.36035 0.0
C3135 C 0.59358 0.07542 0.35255 0.0
C3136 C 0.60904 0.08048 0.34186 0.0
C3137 C 0.62327 0.06824 0.33909 0.0
C3138 C 0.56873 0.1204 0.3554 0.0
C3139 C 0.55045 0.11479 0.35155 0.0
C3140 C 0.58251 0.10744 0.35717 0.0
C3141 C 0.57834 0.08859 0.35474 0.0
C3142 C 0.55972 0.08289 0.35235 0.0
C3143 C 0.54583 0.09595 0.35077 0.0
H3144 H 0.44674 0.11169 0.34547 0.0
H3145 H 0.47782 0.0804 0.30638 0.0
H3146 H 0.42497 0.08569 0.34911 0.0
H3147 H 0.45676 0.05415 0.31049 0.0
H3148 H 0.40507 0.01801 0.3057 0.0
H3149 H 0.42698 0.04371 0.30297 0.0
H3150 H 0.42036 0.05586 0.36103 0.0
H3151 H 0.39769 0.03061 0.36347 0.0
C3152 C 0.44899 0.09914 0.33783 0.0
C3153 C 0.46379 0.0981 0.32549 0.0
C3154 C 0.43661 0.08419 0.33996 0.0
C3155 C 0.43898 0.06776 0.33001 0.0
C3156 C 0.45414 0.06667 0.31803 0.0
C3157 C 0.46629 0.08169 0.31569 0.0
C3158 C 0.40837 0.0261 0.3179 0.0
C3159 C 0.39966 0.02227 0.33479 0.0
C3160 C 0.42104 0.04083 0.31638 0.0
C3161 C 0.42556 0.05194 0.33179 0.0
C3162 C 0.41703 0.04786 0.34878 0.0
C3163 C 0.40413 0.03328 0.35023 0.0
H3164 H 0.4926 0.90028 0.33932 0.0
H3165 H 0.46868 0.87906 0.38966 0.0
H3166 H 0.46902 0.92365 0.3377 0.0
H3167 H 0.44474 0.90224 0.3879 0.0
H3168 H 0.40543 0.95079 0.37901 0.0
H3169 H 0.43458 0.93562 0.38592 0.0
H3170 H 0.43616 0.91572 0.32972 0.0
H3171 H 0.40729 0.93095 0.32285 0.0
C3172 C 0.48276 0.90119 0.35049 0.0
C3173 C 0.48241 0.88797 0.36462 0.0
C3174 C 0.46914 0.91439 0.34944 0.0
C3175 C 0.45479 0.91443 0.3624 0.0
C3176 C 0.45564 0.90251 0.37771 0.0
C3177 C 0.46941 0.88931 0.37881 0.0
C3178 C 0.41216 0.94334 0.36812 0.0
C3179 C 0.4041 0.94201 0.35038 0.0
C3180 C 0.42877 0.93462 0.3721 0.0
C3181 C 0.43776 0.92469 0.35832 0.0
C3182 C 0.42975 0.92357 0.34055 0.0
C3183 C 0.4131 0.93207 0.33666 0.0
H3184 H 0.64971 0.0647 0.61391 0.0
H3185 H 0.70916 0.06536 0.61014 0.0
H3186 H 0.6479 0.08476 0.58692 0.0
H3187 H 0.70748 0.08501 0.58288 0.0
H3188 H 0.70001 0.14003 0.55562 0.0
H3189 H 0.70019 0.1167 0.5793 0.0
H3190 H 0.65295 0.08931 0.55356 0.0
H3191 H 0.65248 0.11338 0.52963 0.0
C3192 C 0.66236 0.06881 0.60706 0.0
C3193 C 0.67959 0.06368 0.61425 0.0
C3194 C 0.66133 0.08027 0.59156 0.0
C3195 C 0.67755 0.0867 0.5829 0.0
C3196 C 0.69473 0.08067 0.58951 0.0
C3197 C 0.69574 0.06942 0.6051 0.0
C3198 C 0.68963 0.12904 0.55485 0.0
C3199 C 0.6763 0.12848 0.54063 0.0
C3200 C 0.68986 0.11552 0.56842 0.0
C3201 C 0.67684 0.1009 0.56814 0.0
C3202 C 0.6632 0.10041 0.55412 0.0
C3203 C 0.66292 0.11414 0.54043 0.0
H3204 H 0.45317 0.16552 0.60923 0.0
H3205 H 0.44854 0.22459 0.60556 0.0
H3206 H 0.43161 0.16177 0.58349 0.0
H3207 H 0.42623 0.22078 0.58048 0.0
H3208 H 0.4053 0.20925 0.52213 0.0
H3209 H 0.42598 0.21241 0.54864 0.0
H3210 H 0.40012 0.16436 0.57363 0.0
H3211 H 0.3797 0.1609 0.54675 0.0
C3212 C 0.44752 0.17773 0.60302 0.0
C3213 C 0.45287 0.19539 0.6094 0.0
C3214 C 0.43493 0.17555 0.58836 0.0
C3215 C 0.42725 0.19097 0.57974 0.0
C3216 C 0.43212 0.2086 0.58653 0.0
C3217 C 0.44477 0.21078 0.60113 0.0
C3218 C 0.40402 0.19932 0.53325 0.0
C3219 C 0.39083 0.18483 0.5323 0.0
C3220 C 0.41581 0.20122 0.54856 0.0
C3221 C 0.41465 0.18875 0.56341 0.0
C3222 C 0.40154 0.17413 0.56239 0.0
C3223 C 0.38979 0.17217 0.54699 0.0
H3224 H 0.32535 0.87333 0.57542 0.0
H3225 H 0.36793 0.89894 0.54184 0.0
H3226 H 0.32618 0.89957 0.59595 0.0
H3227 H 0.36861 0.92576 0.5627 0.0
H3228 H 0.37285 0.95938 0.62012 0.0
H3229 H 0.37558 0.93527 0.59661 0.0
H3230 H 0.31605 0.93163 0.59192 0.0
H3231 H 0.3134 0.95537 0.61536 0.0
C3232 C 0.33493 0.88461 0.5724 0.0
C3233 C 0.34638 0.88419 0.55684 0.0
C3234 C 0.33533 0.89971 0.58416 0.0
C3235 C 0.34712 0.9149 0.58068 0.0
C3236 C 0.35929 0.91424 0.56562 0.0
C3237 C 0.35891 0.89895 0.55372 0.0
C3238 C 0.36041 0.9536 0.61381 0.0
C3239 C 0.34289 0.95893 0.61984 0.0
C3240 C 0.36197 0.93985 0.60035 0.0
C3241 C 0.34602 0.93133 0.59273 0.0
C3242 C 0.32859 0.93762 0.5979 0.0
C3243 C 0.32705 0.95118 0.61133 0.0
H3244 H 0.62342 0.80564 0.56639 0.0
H3245 H 0.61589 0.86401 0.55902 0.0
H3246 H 0.59947 0.80466 0.58957 0.0
H3247 H 0.59151 0.86296 0.58265 0.0
H3248 H 0.53723 0.84528 0.61536 0.0
H3249 H 0.55922 0.8482 0.59002 0.0
H3250 H 0.59881 0.81746 0.62161 0.0
H3251 H 0.57721 0.81486 0.64702 0.0
C3252 C 0.61656 0.81831 0.56966 0.0
C3253 C 0.62174 0.83498 0.56105 0.0
C3254 C 0.60285 0.81772 0.58302 0.0
C3255 C 0.59387 0.83377 0.58818 0.0
C3256 C 0.59827 0.85036 0.57894 0.0
C3257 C 0.61217 0.85098 0.56544 0.0
C3258 C 0.55067 0.83928 0.61703 0.0
C3259 C 0.55532 0.82972 0.63333 0.0
C3260 C 0.56326 0.84099 0.60247 0.0
C3261 C 0.58067 0.83299 0.6038 0.0
C3262 C 0.58536 0.82354 0.62007 0.0
C3263 C 0.57289 0.82196 0.63464 0.0
H3264 H 0.65562 0.87239 0.4759 0.0
H3265 H 0.6987 0.90521 0.50247 0.0
H3266 H 0.65733 0.89245 0.44876 0.0
H3267 H 0.70002 0.92552 0.47579 0.0
H3268 H 0.71562 0.94345 0.41853 0.0
H3269 H 0.71135 0.92382 0.4452 0.0
H3270 H 0.6523 0.92265 0.4358 0.0
H3271 H 0.65665 0.94162 0.40828 0.0
C3272 C 0.66517 0.8841 0.4761 0.0
C3273 C 0.67715 0.88713 0.49125 0.0
C3274 C 0.66615 0.89562 0.46055 0.0
C3275 C 0.67905 0.91045 0.45991 0.0
C3276 C 0.6903 0.91394 0.47553 0.0
C3277 C 0.68945 0.90237 0.49092 0.0
C3278 C 0.70171 0.93887 0.42185 0.0
C3279 C 0.6865 0.94428 0.41109 0.0
C3280 C 0.69923 0.92777 0.43743 0.0
C3281 C 0.68145 0.92184 0.44289 0.0
C3282 C 0.66621 0.92693 0.432 0.0
C3283 C 0.6687 0.938 0.41629 0.0
H3284 H 0.61168 0.20317 0.47529 0.0
H3285 H 0.63461 0.15227 0.45628 0.0
H3286 H 0.58878 0.20171 0.45055 0.0
H3287 H 0.61187 0.15103 0.4311 0.0
H3288 H 0.55911 0.14788 0.39574 0.0
H3289 H 0.57931 0.14735 0.42288 0.0
H3290 H 0.58905 0.20603 0.41767 0.0
H3291 H 0.56828 0.20665 0.3911 0.0
C3292 C 0.6118 0.19162 0.46584 0.0
C3293 C 0.62507 0.17793 0.46764 0.0
C3294 C 0.59872 0.19084 0.45157 0.0
C3295 C 0.59865 0.17641 0.43865 0.0
C3296 C 0.61147 0.16229 0.44088 0.0
C3297 C 0.62453 0.16302 0.45527 0.0
C3298 C 0.56531 0.16071 0.40058 0.0
C3299 C 0.56199 0.17734 0.39128 0.0
C3300 C 0.57709 0.16036 0.416 0.0
C3301 C 0.58579 0.17664 0.4225 0.0
C3302 C 0.58238 0.19326 0.41323 0.0
C3303 C 0.57062 0.19361 0.39784 0.0
H3304 H 0.35013 0.09824 0.48395 0.0
H3305 H 0.35662 0.13941 0.4414 0.0
H3306 H 0.35004 0.07398 0.4603 0.0
H3307 H 0.35671 0.1154 0.41783 0.0
H3308 H 0.32342 0.07233 0.38357 0.0
H3309 H 0.33002 0.09547 0.40736 0.0
H3310 H 0.36736 0.05846 0.43451 0.0
H3311 H 0.36052 0.03523 0.41086 0.0
C3312 C 0.35232 0.10198 0.46962 0.0
C3313 C 0.3535 0.12053 0.46437 0.0
C3314 C 0.35215 0.08818 0.45608 0.0
C3315 C 0.353 0.09287 0.43721 0.0
C3316 C 0.35566 0.11141 0.43223 0.0
C3317 C 0.35584 0.12512 0.44569 0.0
C3318 C 0.33299 0.06916 0.39463 0.0
C3319 C 0.34152 0.05205 0.39528 0.0
C3320 C 0.33694 0.08244 0.40814 0.0
C3321 C 0.34938 0.07882 0.42268 0.0
C3322 C 0.35777 0.06163 0.42345 0.0
C3323 C 0.35395 0.04841 0.40983 0.0
H3324 H 0.39314 0.79846 0.48409 0.0
H3325 H 0.39453 0.85793 0.48392 0.0
H3326 H 0.41654 0.79826 0.46047 0.0
H3327 H 0.41891 0.8578 0.46063 0.0
H3328 H 0.44711 0.84883 0.40388 0.0
H3329 H 0.42497 0.85156 0.4291 0.0
H3330 H 0.44776 0.80339 0.45505 0.0
H3331 H 0.46902 0.80032 0.42941 0.0
C3332 C 0.39868 0.81155 0.47922 0.0
C3333 C 0.392 0.82821 0.48597 0.0
C3334 C 0.41228 0.81145 0.46569 0.0
C3335 C 0.41989 0.82801 0.45869 0.0
C3336 C 0.41329 0.84476 0.46554 0.0
C3337 C 0.39941 0.84485 0.47898 0.0
C3338 C 0.44736 0.83896 0.4151 0.0
C3339 C 0.45952 0.8242 0.41462 0.0
C3340 C 0.43476 0.84054 0.4296 0.0
C3341 C 0.43431 0.82753 0.44406 0.0
C3342 C 0.44722 0.81334 0.44392 0.0
C3343 C 0.4595 0.81159 0.42929 0.0
H3344 H 0.62493 0.16301 0.55748 0.0
H3345 H 0.61319 0.21683 0.53612 0.0
H3346 H 0.59549 0.16213 0.5737 0.0
H3347 H 0.58309 0.21569 0.55113 0.0
H3348 H 0.54545 0.21892 0.60113 0.0
H3349 H 0.57085 0.2186 0.57987 0.0
H3350 H 0.56339 0.15966 0.57351 0.0
H3351 H 0.53842 0.15992 0.59611 0.0
C3352 C 0.61582 0.17455 0.55614 0.0
C3353 C 0.62133 0.19012 0.54593 0.0
C3354 C 0.59883 0.174 0.5652 0.0
C3355 C 0.58676 0.18886 0.56386 0.0
C3356 C 0.59213 0.20416 0.55296 0.0
C3357 C 0.60934 0.20488 0.54432 0.0
C3358 C 0.54901 0.20587 0.59503 0.0
C3359 C 0.54009 0.1894 0.60054 0.0
C3360 C 0.56359 0.20571 0.58261 0.0
C3361 C 0.56948 0.18908 0.57501 0.0
C3362 C 0.55959 0.1727 0.57943 0.0
C3363 C 0.54508 0.17284 0.59217 0.0
H3364 H 0.54896 0.85151 0.40337 0.0
H3365 H 0.55375 0.79258 0.39846 0.0
H3366 H 0.57245 0.85184 0.42791 0.0
H3367 H 0.57748 0.79297 0.42232 0.0
H3368 H 0.60228 0.79526 0.47947 0.0
H3369 H 0.57946 0.79666 0.45474 0.0
H3370 H 0.60464 0.84765 0.43548 0.0
H3371 H 0.62733 0.84637 0.46069 0.0
C3372 C 0.55517 0.83868 0.40737 0.0
C3373 C 0.54933 0.822 0.39912 0.0
C3374 C 0.56868 0.83887 0.42139 0.0
C3375 C 0.5767 0.82239 0.42732 0.0
C3376 C 0.57128 0.80586 0.41851 0.0
C3377 C 0.55772 0.80565 0.4047 0.0
C3378 C 0.60302 0.80671 0.46991 0.0
C3379 C 0.61671 0.82061 0.47195 0.0
C3380 C 0.58995 0.80752 0.45566 0.0
C3381 C 0.59031 0.82215 0.44291 0.0
C3382 C 0.60384 0.83626 0.44512 0.0
C3383 C 0.61686 0.83552 0.45953 0.0
H3384 H 0.65181 0.1129 0.45563 0.0
H3385 H 0.70915 0.09772 0.45843 0.0
H3386 H 0.64365 0.08293 0.44244 0.0
H3387 H 0.70117 0.06829 0.44439 0.0
H3388 H 0.68545 0.01279 0.42908 0.0
H3389 H 0.68612 0.0393 0.44973 0.0
H3390 H 0.64717 0.06647 0.41395 0.0
H3391 H 0.64596 0.03957 0.3939 0.0
C3392 C 0.66269 0.10319 0.45352 0.0
C3393 C 0.68118 0.10778 0.45817 0.0
C3394 C 0.65799 0.08603 0.44582 0.0
C3395 C 0.67168 0.07307 0.44254 0.0
C3396 C 0.69016 0.07772 0.44714 0.0
C3397 C 0.69483 0.0948 0.45488 0.0
C3398 C 0.67634 0.02408 0.42621 0.0
C3399 C 0.66562 0.02416 0.40999 0.0
C3400 C 0.67696 0.03941 0.43782 0.0
C3401 C 0.66719 0.05527 0.43317 0.0
C3402 C 0.6549 0.05452 0.41798 0.0
C3403 C 0.65407 0.03901 0.40651 0.0
H3404 H 0.46307 0.14467 0.37587 0.0
H3405 H 0.48648 0.19501 0.39881 0.0
H3406 H 0.43707 0.14649 0.39724 0.0
H3407 H 0.46094 0.19659 0.42025 0.0
H3408 H 0.40225 0.20747 0.43792 0.0
H3409 H 0.42875 0.20347 0.41807 0.0
H3410 H 0.42739 0.14514 0.42973 0.0
H3411 H 0.40024 0.14909 0.44915 0.0
C3412 C 0.46281 0.15596 0.38562 0.0
C3413 C 0.47674 0.1698 0.38548 0.0
C3414 C 0.44794 0.15698 0.39791 0.0
C3415 C 0.44676 0.17184 0.41031 0.0
C3416 C 0.46113 0.18521 0.41061 0.0
C3417 C 0.47586 0.18424 0.39834 0.0
C3418 C 0.40749 0.19377 0.4362 0.0
C3419 C 0.39908 0.17863 0.44517 0.0
C3420 C 0.42286 0.19148 0.42495 0.0
C3421 C 0.43033 0.17399 0.42237 0.0
C3422 C 0.42195 0.15879 0.43133 0.0
C3423 C 0.40652 0.16109 0.44265 0.0
H3424 H 0.36736 0.89478 0.46963 0.0
H3425 H 0.31003 0.91027 0.46949 0.0
H3426 H 0.37524 0.92198 0.45143 0.0
H3427 H 0.31766 0.93655 0.4504 0.0
H3428 H 0.33235 0.98755 0.42348 0.0
H3429 H 0.33193 0.96577 0.44912 0.0
H3430 H 0.37176 0.93278 0.42069 0.0
H3431 H 0.37292 0.9553 0.39568 0.0
C3432 C 0.35642 0.90396 0.46585 0.0
C3433 C 0.33799 0.90017 0.47105 0.0
C3434 C 0.36095 0.91952 0.45525 0.0
C3435 C 0.34715 0.93158 0.44949 0.0
C3436 C 0.32879 0.92787 0.45489 0.0
C3437 C 0.3243 0.91248 0.4656 0.0
C3438 C 0.34156 0.97601 0.42317 0.0
C3439 C 0.35261 0.97298 0.40772 0.0
C3440 C 0.34114 0.96338 0.43768 0.0
C3441 C 0.35133 0.94717 0.4367 0.0
C3442 C 0.36373 0.94508 0.42197 0.0
C3443 C 0.36447 0.958 0.40763 0.0
H3444 H 0.39221 0.79513 0.57946 0.0
H3445 H 0.39807 0.85268 0.565 0.0
H3446 H 0.41842 0.79848 0.60067 0.0
H3447 H 0.42472 0.85578 0.58545 0.0
H3448 H 0.45802 0.85906 0.63989 0.0
H3449 H 0.43236 0.85634 0.61789 0.0
H3450 H 0.45149 0.80316 0.60076 0.0
H3451 H 0.4768 0.80568 0.623 0.0
C3452 C 0.39911 0.80846 0.58073 0.0
C3453 C 0.39302 0.82358 0.57042 0.0
C3454 C 0.41428 0.81035 0.59274 0.0
C3455 C 0.42374 0.8274 0.59473 0.0
C3456 C 0.41767 0.8425 0.5844 0.0
C3457 C 0.4025 0.84062 0.57243 0.0
C3458 C 0.45683 0.84687 0.6313 0.0
C3459 C 0.46939 0.83254 0.63327 0.0
C3460 C 0.44214 0.84532 0.61865 0.0
C3461 C 0.43976 0.82945 0.60764 0.0
C3462 C 0.45267 0.81539 0.60927 0.0
C3463 C 0.46728 0.81691 0.62195 0.0
H3464 H 0.65312 0.89744 0.57077 0.0
H3465 H 0.71203 0.89745 0.5809 0.0
H3466 H 0.65107 0.92628 0.58783 0.0
H3467 H 0.70988 0.92573 0.59853 0.0
H3468 H 0.70377 0.98566 0.61354 0.0
H3469 H 0.70466 0.95792 0.59478 0.0
H3470 H 0.65335 0.93851 0.61894 0.0
H3471 H 0.65225 0.96651 0.63744 0.0
C3472 C 0.66565 0.90358 0.57656 0.0
C3473 C 0.68275 0.89502 0.57441 0.0
C3474 C 0.66444 0.92003 0.58654 0.0
C3475 C 0.68031 0.9284 0.59459 0.0
C3476 C 0.69739 0.91987 0.59235 0.0
C3477 C 0.69859 0.90345 0.5824 0.0
C3478 C 0.69262 0.97553 0.61483 0.0
C3479 C 0.67797 0.97834 0.62709 0.0
C3480 C 0.69319 0.95953 0.60412 0.0
C3481 C 0.67915 0.94584 0.6054 0.0
C3482 C 0.66431 0.94881 0.61742 0.0
C3483 C 0.66372 0.96485 0.62812 0.0
H3484 H 0.35993 0.12072 0.55549 0.0
H3485 H 0.30113 0.10871 0.55308 0.0
H3486 H 0.36358 0.09598 0.57782 0.0
H3487 H 0.30466 0.08488 0.57606 0.0
H3488 H 0.31774 0.03074 0.60264 0.0
H3489 H 0.31581 0.05494 0.57956 0.0
H3490 H 0.35782 0.08678 0.60899 0.0
H3491 H 0.36021 0.06213 0.63179 0.0
C3492 C 0.34775 0.11291 0.55966 0.0
C3493 C 0.33022 0.11684 0.55223 0.0
C3494 C 0.34983 0.0988 0.5727 0.0
C3495 C 0.33444 0.08827 0.57875 0.0
C3496 C 0.31692 0.09239 0.57152 0.0
C3497 C 0.31485 0.10636 0.55844 0.0
C3498 C 0.32662 0.04286 0.60418 0.0
C3499 C 0.33906 0.04451 0.61914 0.0
C3500 C 0.32543 0.05685 0.59098 0.0
C3501 C 0.33649 0.07301 0.59244 0.0
C3502 C 0.34919 0.07451 0.60726 0.0
C3503 C 0.3505 0.0604 0.62041 0.0
H3504 H 0.57782 0.62465 0.18635 0.0
H3505 H 0.55729 0.62069 0.13028 0.0
H3506 H 0.593 0.5954 0.18285 0.0
H3507 H 0.57251 0.59101 0.12677 0.0
H3508 H 0.62767 0.55336 0.12851 0.0
H3509 H 0.60632 0.57911 0.12676 0.0
H3510 H 0.58271 0.56238 0.17896 0.0
H3511 H 0.60417 0.53714 0.18083 0.0
C3512 C 0.57663 0.61754 0.17323 0.0
C3513 C 0.56639 0.62498 0.1586 0.0
C3514 C 0.58512 0.60066 0.17128 0.0
C3515 C 0.58372 0.59079 0.1546 0.0
C3516 C 0.57373 0.59829 0.13979 0.0
C3517 C 0.56498 0.61518 0.14184 0.0
C3518 C 0.61739 0.55482 0.13918 0.0
C3519 C 0.61763 0.54347 0.15489 0.0
C3520 C 0.60524 0.56957 0.13824 0.0
C3521 C 0.5932 0.57298 0.15298 0.0
C3522 C 0.59213 0.56032 0.16762 0.0
C3523 C 0.60429 0.54578 0.16861 0.0
H3524 H 0.4212 0.56365 0.2191 0.0
H3525 H 0.40677 0.56173 0.16103 0.0
H3526 H 0.44571 0.58603 0.21258 0.0
H3527 H 0.43199 0.58346 0.1544 0.0
H3528 H 0.46702 0.63738 0.15255 0.0
H3529 H 0.44189 0.61508 0.158 0.0
H3530 H 0.47553 0.58779 0.19878 0.0
H3531 H 0.50038 0.61035 0.19372 0.0
C3532 C 0.42316 0.56799 0.20493 0.0
C3533 C 0.41191 0.56075 0.19062 0.0
C3534 C 0.43746 0.58069 0.20115 0.0
C3535 C 0.44101 0.58646 0.18292 0.0
C3536 C 0.42962 0.57943 0.16861 0.0
C3537 C 0.41525 0.56677 0.17241 0.0
C3538 C 0.46909 0.62654 0.16259 0.0
C3539 C 0.48569 0.62572 0.17279 0.0
C3540 C 0.45469 0.6137 0.16568 0.0
C3541 C 0.45658 0.59969 0.17897 0.0
C3542 C 0.4734 0.59861 0.18875 0.0
C3543 C 0.48774 0.61148 0.18574 0.0
H3544 H 0.4936 0.41756 0.19617 0.0
H3545 H 0.45607 0.38833 0.15946 0.0
H3546 H 0.47593 0.44541 0.19235 0.0
H3547 H 0.43754 0.41599 0.15626 0.0
H3548 H 0.40942 0.47065 0.14932 0.0
H3549 H 0.43312 0.44722 0.14627 0.0
H3550 H 0.44782 0.45479 0.20388 0.0
H3551 H 0.42495 0.47822 0.20658 0.0
C3552 C 0.48146 0.41715 0.18732 0.0
C3553 C 0.47595 0.40076 0.1784 0.0
C3554 C 0.47128 0.43308 0.18512 0.0
C3555 C 0.45501 0.43295 0.17429 0.0
C3556 C 0.45002 0.41672 0.16461 0.0
C3557 C 0.4605 0.40082 0.16653 0.0
C3558 C 0.41818 0.46765 0.16109 0.0
C3559 C 0.41532 0.47623 0.1782 0.0
C3560 C 0.43159 0.45406 0.15945 0.0
C3561 C 0.4424 0.44894 0.17485 0.0
C3562 C 0.44009 0.45842 0.19159 0.0
C3563 C 0.42682 0.47186 0.1932 0.0
H3564 H 0.60082 0.46555 0.19497 0.0
H3565 H 0.63259 0.4515 0.14696 0.0
H3566 H 0.5781 0.44117 0.18718 0.0
H3567 H 0.60989 0.42726 0.13912 0.0
H3568 H 0.58131 0.37003 0.15557 0.0
H3569 H 0.60172 0.39727 0.15607 0.0
H3570 H 0.55432 0.43186 0.16122 0.0
H3571 H 0.53381 0.40437 0.16036 0.0
C3572 C 0.60291 0.45725 0.18278 0.0
C3573 C 0.61847 0.46031 0.17162 0.0
C3574 C 0.58981 0.44353 0.17816 0.0
C3575 C 0.59221 0.43249 0.16246 0.0
C3576 C 0.60771 0.43564 0.15125 0.0
C3577 C 0.62065 0.44949 0.15573 0.0
C3578 C 0.57528 0.38352 0.15614 0.0
C3579 C 0.55612 0.38528 0.15779 0.0
C3580 C 0.58691 0.39907 0.15646 0.0
C3581 C 0.57956 0.41661 0.15884 0.0
C3582 C 0.56027 0.41844 0.15947 0.0
C3583 C 0.54857 0.40283 0.15876 0.0
H3584 H 0.54195 0.41366 0.80619 0.0
H3585 H 0.57239 0.39013 0.85144 0.0
H3586 H 0.5609 0.44167 0.80818 0.0
H3587 H 0.59235 0.4178 0.85293 0.0
H3588 H 0.61677 0.47566 0.86055 0.0
H3589 H 0.5958 0.44883 0.86055 0.0
H3590 H 0.58964 0.4536 0.80121 0.0
H3591 H 0.60959 0.48088 0.8015 0.0
C3592 C 0.55295 0.41445 0.81641 0.0
C3593 C 0.55588 0.3997 0.82852 0.0
C3594 C 0.56393 0.43049 0.81753 0.0
C3595 C 0.57847 0.43208 0.83055 0.0
C3596 C 0.58121 0.4173 0.84286 0.0
C3597 C 0.5699 0.40137 0.84197 0.0
C3598 C 0.61073 0.47103 0.84756 0.0
C3599 C 0.61472 0.48049 0.83105 0.0
C3600 C 0.59883 0.45552 0.84751 0.0
C3601 C 0.59087 0.44889 0.83088 0.0
C3602 C 0.59501 0.45842 0.81439 0.0
C3603 C 0.6066 0.47408 0.81451 0.0
H3604 H 0.60852 0.55907 0.86666 0.0
H3605 H 0.60606 0.57434 0.80899 0.0
H3606 H 0.5829 0.57958 0.87314 0.0
H3607 H 0.58085 0.59483 0.81551 0.0
H3608 H 0.56016 0.64812 0.8373 0.0
H3609 H 0.58316 0.6246 0.83507 0.0
H3610 H 0.54698 0.58618 0.86362 0.0
H3611 H 0.52345 0.61013 0.86588 0.0
C3612 C 0.60233 0.56652 0.85533 0.0
C3613 C 0.60954 0.56532 0.83734 0.0
C3614 C 0.58768 0.57823 0.85906 0.0
C3615 C 0.58012 0.58895 0.84487 0.0
C3616 C 0.58667 0.58695 0.82677 0.0
C3617 C 0.60117 0.57529 0.82305 0.0
C3618 C 0.55706 0.63473 0.84328 0.0
C3619 C 0.53986 0.63085 0.85147 0.0
C3620 C 0.57025 0.62125 0.84195 0.0
C3621 C 0.56667 0.60348 0.84877 0.0
C3622 C 0.54999 0.59979 0.85814 0.0
C3623 C 0.5366 0.61344 0.85947 0.0
H3624 H 0.43505 0.62258 0.85433 0.0
H3625 H 0.4639 0.5955 0.81048 0.0
H3626 H 0.4132 0.59645 0.85619 0.0
H3627 H 0.44264 0.56918 0.81265 0.0
H3628 H 0.39104 0.53389 0.80638 0.0
H3629 H 0.412 0.56047 0.80544 0.0
H3630 H 0.40934 0.56503 0.86495 0.0
H3631 H 0.38763 0.53879 0.86576 0.0
C3632 C 0.4368 0.61094 0.84523 0.0
C3633 C 0.45102 0.61114 0.83212 0.0
C3634 C 0.42434 0.59593 0.84632 0.0
C3635 C 0.42601 0.58071 0.83446 0.0
C3636 C 0.44057 0.58082 0.82168 0.0
C3637 C 0.45282 0.59589 0.82044 0.0
C3638 C 0.39491 0.54056 0.81928 0.0
C3639 C 0.38774 0.53418 0.83615 0.0
C3640 C 0.40706 0.55576 0.81876 0.0
C3641 C 0.41257 0.56485 0.83514 0.0
C3642 C 0.40526 0.55853 0.85204 0.0
C3643 C 0.3929 0.54341 0.85253 0.0
H3644 H 0.42046 0.47602 0.84363 0.0
H3645 H 0.39071 0.42407 0.84808 0.0
H3646 H 0.44941 0.46075 0.85173 0.0
H3647 H 0.41932 0.40889 0.85632 0.0
H3648 H 0.46952 0.38545 0.8786 0.0
H3649 H 0.44538 0.40831 0.88122 0.0
H3650 H 0.46644 0.43605 0.83266 0.0
H3651 H 0.49025 0.41307 0.8299 0.0
C3652 C 0.42016 0.46139 0.84652 0.0
C3653 C 0.40356 0.45109 0.8449 0.0
C3654 C 0.4366 0.45272 0.85123 0.0
C3655 C 0.43651 0.43372 0.85484 0.0
C3656 C 0.41973 0.42361 0.85391 0.0
C3657 C 0.40344 0.4322 0.84887 0.0
C3658 C 0.46948 0.39691 0.86904 0.0
C3659 C 0.48153 0.3975 0.85395 0.0
C3660 C 0.45562 0.4099 0.87045 0.0
C3661 C 0.45394 0.42374 0.85698 0.0
C3662 C 0.46746 0.42557 0.84326 0.0
C3663 C 0.48106 0.41242 0.84166 0.0
H3664 H 0.70953 0.56131 0.09629 0.0
H3665 H 0.65249 0.56944 0.11016 0.0
H3666 H 0.70604 0.58069 0.069 0.0
H3667 H 0.64902 0.58959 0.08333 0.0
H3668 H 0.64718 0.62055 0.02803 0.0
H3669 H 0.6486 0.59469 0.04996 0.0
H3670 H 0.70369 0.61282 0.06633 0.0
H3671 H 0.70255 0.63765 0.04451 0.0
C3672 C 0.69625 0.5673 0.09342 0.0
C3673 C 0.68137 0.56417 0.10536 0.0
C3674 C 0.69419 0.57839 0.07784 0.0
C3675 C 0.67732 0.58699 0.07415 0.0
C3676 C 0.66215 0.58309 0.08565 0.0
C3677 C 0.66414 0.57167 0.10107 0.0
C3678 C 0.65961 0.61875 0.0362 0.0
C3679 C 0.67471 0.63115 0.03454 0.0
C3680 C 0.66042 0.60404 0.04879 0.0
C3681 C 0.67635 0.60156 0.05978 0.0
C3682 C 0.69139 0.61393 0.05782 0.0
C3683 C 0.69062 0.6284 0.04536 0.0
H3684 H 0.44611 0.7149 0.10912 0.0
H3685 H 0.45198 0.65615 0.1152 0.0
H3686 H 0.42304 0.70967 0.08509 0.0
H3687 H 0.42955 0.65095 0.09037 0.0
H3688 H 0.3746 0.64896 0.05744 0.0
H3689 H 0.39733 0.65296 0.08231 0.0
H3690 H 0.4214 0.69984 0.05367 0.0
H3691 H 0.39841 0.69616 0.02917 0.0
C3692 C 0.44248 0.70085 0.10543 0.0
C3693 C 0.45107 0.68598 0.11415 0.0
C3694 C 0.42939 0.69784 0.0914 0.0
C3695 C 0.42457 0.67988 0.08558 0.0
C3696 C 0.43285 0.66497 0.09453 0.0
C3697 C 0.44591 0.66798 0.10865 0.0
C3698 C 0.38484 0.66002 0.0564 0.0
C3699 C 0.38462 0.67231 0.04137 0.0
C3700 C 0.39791 0.6623 0.07065 0.0
C3701 C 0.41111 0.67685 0.07012 0.0
C3702 C 0.41119 0.68875 0.05478 0.0
C3703 C 0.39808 0.68656 0.04063 0.0
H3704 H 0.33995 0.42249 0.14467 0.0
H3705 H 0.37337 0.46415 0.11712 0.0
H3706 H 0.34627 0.40095 0.12021 0.0
H3707 H 0.38051 0.44209 0.09293 0.0
H3708 H 0.36486 0.40247 0.04274 0.0
H3709 H 0.36562 0.42585 0.06717 0.0
H3710 H 0.37045 0.38294 0.10825 0.0
H3711 H 0.36878 0.3598 0.08391 0.0
C3712 C 0.34867 0.42711 0.13342 0.0
C3713 C 0.35605 0.44515 0.13293 0.0
C3714 C 0.35259 0.41459 0.11949 0.0
C3715 C 0.36415 0.41968 0.1047 0.0
C3716 C 0.37156 0.43773 0.10412 0.0
C3717 C 0.36757 0.45033 0.11809 0.0
C3718 C 0.36671 0.39821 0.05698 0.0
C3719 C 0.36668 0.37946 0.06159 0.0
C3720 C 0.36709 0.41154 0.07098 0.0
C3721 C 0.36761 0.40622 0.08971 0.0
C3722 C 0.36946 0.38748 0.09402 0.0
C3723 C 0.36875 0.37423 0.08011 0.0
H3724 H 0.57709 0.29549 0.11515 0.0
H3725 H 0.56359 0.35293 0.11139 0.0
H3726 H 0.59731 0.29904 0.08852 0.0
H3727 H 0.58325 0.35633 0.08435 0.0
H3728 H 0.63644 0.35949 0.04914 0.0
H3729 H 0.6157 0.35679 0.07559 0.0
H3730 H 0.59575 0.3039 0.05555 0.0
H3731 H 0.61659 0.30642 0.02944 0.0
C3732 C 0.57837 0.30885 0.10861 0.0
C3733 C 0.56861 0.32386 0.1154 0.0
C3734 C 0.58984 0.31087 0.09321 0.0
C3735 C 0.59188 0.32798 0.08421 0.0
C3736 C 0.58213 0.343 0.09101 0.0
C3737 C 0.57063 0.34097 0.10639 0.0
C3738 C 0.62755 0.34735 0.05034 0.0
C3739 C 0.62828 0.33314 0.0372 0.0
C3740 C 0.61561 0.34582 0.06547 0.0
C3741 C 0.60413 0.33005 0.0678 0.0
C3742 C 0.60463 0.31607 0.05442 0.0
C3743 C 0.61653 0.31758 0.03935 0.0
H3744 H 0.66487 0.41537 0.98298 0.0
H3745 H 0.66418 0.37271 0.94158 0.0
H3746 H 0.66471 0.43884 0.95847 0.0
H3747 H 0.6637 0.39587 0.91721 0.0
H3748 H 0.6945 0.43926 0.88269 0.0
H3749 H 0.6888 0.417 0.90732 0.0
H3750 H 0.64846 0.45267 0.93109 0.0
H3751 H 0.6545 0.47519 0.90662 0.0
C3752 C 0.66393 0.41106 0.96866 0.0
C3753 C 0.66453 0.39235 0.96405 0.0
C3754 C 0.66396 0.42444 0.95464 0.0
C3755 C 0.66463 0.41918 0.93591 0.0
C3756 C 0.66365 0.40037 0.93148 0.0
C3757 C 0.66371 0.38712 0.9454 0.0
C3758 C 0.6845 0.44241 0.89321 0.0
C3759 C 0.67492 0.45895 0.89261 0.0
C3760 C 0.68105 0.42957 0.90722 0.0
C3761 C 0.66799 0.43298 0.92105 0.0
C3762 C 0.65857 0.44964 0.92063 0.0
C3763 C 0.66193 0.46245 0.90651 0.0
H3764 H 0.63 0.66316 0.95461 0.0
H3765 H 0.60848 0.71206 0.97965 0.0
H3766 H 0.60477 0.66313 0.93193 0.0
H3767 H 0.58304 0.71169 0.95755 0.0
H3768 H 0.55429 0.71962 0.90229 0.0
H3769 H 0.57823 0.71809 0.92586 0.0
H3770 H 0.57212 0.65879 0.92685 0.0
H3771 H 0.54884 0.66027 0.90244 0.0
C3772 C 0.61975 0.67374 0.95542 0.0
C3773 C 0.62134 0.68772 0.96879 0.0
C3774 C 0.60523 0.67369 0.94248 0.0
C3775 C 0.59193 0.68753 0.94276 0.0
C3776 C 0.59324 0.70109 0.95659 0.0
C3777 C 0.6078 0.70124 0.96936 0.0
C3778 C 0.55809 0.70623 0.90741 0.0
C3779 C 0.54958 0.69009 0.90035 0.0
C3780 C 0.5717 0.70535 0.92115 0.0
C3781 C 0.57712 0.68831 0.92836 0.0
C3782 C 0.56845 0.67215 0.9215 0.0
C3783 C 0.55487 0.67302 0.90766 0.0
H3784 H 0.3505 0.55874 0.89583 0.0
H3785 H 0.3095 0.52623 0.92506 0.0
H3786 H 0.35438 0.5789 0.92273 0.0
H3787 H 0.31376 0.54578 0.95215 0.0
H3788 H 0.30475 0.59991 0.98245 0.0
H3789 H 0.30515 0.57586 0.95949 0.0
H3790 H 0.36442 0.58315 0.95459 0.0
H3791 H 0.36383 0.60807 0.97753 0.0
C3792 C 0.34249 0.55582 0.90812 0.0
C3793 C 0.3294 0.54123 0.90826 0.0
C3794 C 0.34483 0.56723 0.92359 0.0
C3795 C 0.33427 0.56408 0.93959 0.0
C3796 C 0.32181 0.5489 0.93993 0.0
C3797 C 0.31929 0.53772 0.92441 0.0
C3798 C 0.31795 0.59624 0.9767 0.0
C3799 C 0.33425 0.60594 0.98167 0.0
C3800 C 0.3182 0.58228 0.96359 0.0
C3801 C 0.33481 0.57752 0.9551 0.0
C3802 C 0.35135 0.58663 0.96072 0.0
C3803 C 0.35108 0.60072 0.97399 0.0
H3804 H 0.43272 0.31089 0.88969 0.0
H3805 H 0.46984 0.35232 0.91316 0.0
H3806 H 0.41371 0.31198 0.91709 0.0
H3807 H 0.45026 0.35369 0.94056 0.0
H3808 H 0.39615 0.36016 0.97737 0.0
H3809 H 0.41653 0.36175 0.9504 0.0
H3810 H 0.41943 0.3025 0.95036 0.0
H3811 H 0.39934 0.30083 0.97708 0.0
C3812 C 0.43695 0.32019 0.90068 0.0
C3813 C 0.45312 0.33124 0.89922 0.0
C3814 C 0.42594 0.32086 0.91639 0.0
C3815 C 0.43062 0.33275 0.93106 0.0
C3816 C 0.44632 0.34441 0.92943 0.0
C3817 C 0.45751 0.34362 0.91369 0.0
C3818 C 0.40127 0.3475 0.97168 0.0
C3819 C 0.39599 0.33036 0.97933 0.0
C3820 C 0.41297 0.34843 0.95629 0.0
C3821 C 0.4194 0.33224 0.94818 0.0
C3822 C 0.41447 0.3152 0.95614 0.0
C3823 C 0.403 0.31427 0.97154 0.0
H3824 H 0.52788 0.70362 0.08934 0.0
H3825 H 0.54738 0.65234 0.11136 0.0
H3826 H 0.55353 0.70484 0.06773 0.0
H3827 H 0.57345 0.65377 0.09008 0.0
H3828 H 0.61503 0.65868 0.04306 0.0
H3829 H 0.58567 0.65402 0.05884 0.0
H3830 H 0.58591 0.71173 0.0732 0.0
H3831 H 0.61485 0.71652 0.05676 0.0
C3832 C 0.53742 0.69235 0.08919 0.0
C3833 C 0.53573 0.67795 0.10205 0.0
C3834 C 0.55224 0.69317 0.07699 0.0
C3835 C 0.56582 0.67969 0.07754 0.0
C3836 C 0.56324 0.6644 0.0893 0.0
C3837 C 0.54824 0.6635 0.10144 0.0
C3838 C 0.60869 0.67044 0.04933 0.0
C3839 C 0.61727 0.68804 0.04852 0.0
C3840 C 0.59193 0.66771 0.05854 0.0
C3841 C 0.58333 0.6825 0.06714 0.0
C3842 C 0.59195 0.70007 0.0664 0.0
C3843 C 0.6087 0.7028 0.0572 0.0
H3844 H 0.61666 0.35941 0.95436 0.0
H3845 H 0.6201 0.30077 0.94598 0.0
H3846 H 0.58902 0.35987 0.93482 0.0
H3847 H 0.59296 0.30132 0.92593 0.0
H3848 H 0.53371 0.30521 0.90566 0.0
H3849 H 0.55996 0.30557 0.92691 0.0
H3850 H 0.58035 0.35628 0.90236 0.0
H3851 H 0.55385 0.35612 0.8813 0.0
C3852 C 0.61146 0.3466 0.94847 0.0
C3853 C 0.6206 0.33004 0.95176 0.0
C3854 C 0.59575 0.3469 0.93707 0.0
C3855 C 0.58878 0.33064 0.92877 0.0
C3856 C 0.59781 0.31407 0.93225 0.0
C3857 C 0.61351 0.31378 0.9436 0.0
C3858 C 0.54375 0.31647 0.9048 0.0
C3859 C 0.54169 0.3306 0.89172 0.0
C3860 C 0.55887 0.31663 0.91694 0.0
C3861 C 0.57232 0.33091 0.9163 0.0
C3862 C 0.57014 0.34518 0.90338 0.0
C3863 C 0.555 0.34503 0.89122 0.0
H3864 H 0.63833 0.54772 0.89386 0.0
H3865 H 0.69711 0.5399 0.89877 0.0
H3866 H 0.64038 0.57126 0.91817 0.0
H3867 H 0.69942 0.5636 0.92199 0.0
H3868 H 0.70139 0.60325 0.96763 0.0
H3869 H 0.69412 0.57465 0.95126 0.0
H3870 H 0.65164 0.60215 0.92004 0.0
H3871 H 0.65835 0.6304 0.93742 0.0
C3872 C 0.65156 0.55071 0.90046 0.0
C3873 C 0.66758 0.54214 0.89438 0.0
C3874 C 0.65282 0.56436 0.91417 0.0
C3875 C 0.67012 0.56958 0.92194 0.0
C3876 C 0.68582 0.55993 0.91663 0.0
C3877 C 0.68453 0.54637 0.90312 0.0
C3878 C 0.69051 0.60307 0.95726 0.0
C3879 C 0.68067 0.61902 0.95344 0.0
C3880 C 0.68628 0.58671 0.94788 0.0
C3881 C 0.67243 0.58606 0.93407 0.0
C3882 C 0.66221 0.60198 0.9307 0.0
C3883 C 0.66619 0.61824 0.94044 0.0
H3884 H 0.38202 0.70059 0.94968 0.0
H3885 H 0.38939 0.64293 0.96125 0.0
H3886 H 0.40895 0.70079 0.92983 0.0
H3887 H 0.41687 0.64324 0.94163 0.0
H3888 H 0.45236 0.64902 0.8874 0.0
H3889 H 0.42614 0.64651 0.90859 0.0
H3890 H 0.44225 0.69884 0.93281 0.0
H3891 H 0.46808 0.70147 0.91168 0.0
C3892 C 0.38937 0.68792 0.94797 0.0
C3893 C 0.38347 0.67174 0.95708 0.0
C3894 C 0.40498 0.68808 0.93672 0.0
C3895 C 0.41519 0.67206 0.9342 0.0
C3896 C 0.40928 0.6558 0.94321 0.0
C3897 C 0.39364 0.65567 0.9546 0.0
C3898 C 0.45039 0.65989 0.89737 0.0
C3899 C 0.46224 0.67554 0.89767 0.0
C3900 C 0.43539 0.65843 0.90956 0.0
C3901 C 0.43193 0.6726 0.92225 0.0
C3902 C 0.44423 0.68786 0.92296 0.0
C3903 C 0.45914 0.68931 0.91086 0.0
H3904 H 0.36544 0.43871 0.88649 0.0
H3905 H 0.35378 0.48695 0.91862 0.0
H3906 H 0.3672 0.42043 0.9146 0.0
H3907 H 0.35544 0.46858 0.94712 0.0
H3908 H 0.32473 0.42043 0.98057 0.0
H3909 H 0.3329 0.44379 0.9576 0.0
H3910 H 0.38234 0.4145 0.94451 0.0
H3911 H 0.37389 0.39086 0.96686 0.0
C3912 C 0.36393 0.44548 0.89972 0.0
C3913 C 0.35953 0.46411 0.90057 0.0
C3914 C 0.36497 0.43506 0.91582 0.0
C3915 C 0.3613 0.44306 0.93305 0.0
C3916 C 0.3582 0.46208 0.93399 0.0
C3917 C 0.35745 0.47261 0.91779 0.0
C3918 C 0.33738 0.41903 0.97287 0.0
C3919 C 0.34849 0.40363 0.9754 0.0
C3920 C 0.34223 0.43258 0.95994 0.0
C3921 C 0.35826 0.43094 0.94926 0.0
C3922 C 0.36986 0.41606 0.95249 0.0
C3923 C 0.36503 0.40255 0.96539 0.0
H3924 H 0.47975 0.35237 0.11975 0.0
H3925 H 0.48128 0.29308 0.124 0.0
H3926 H 0.45346 0.3494 0.09827 0.0
H3927 H 0.45501 0.29023 0.10284 0.0
H3928 H 0.39335 0.2972 0.08437 0.0
H3929 H 0.42059 0.29919 0.10434 0.0
H3930 H 0.4476 0.33553 0.06526 0.0
H3931 H 0.42081 0.33304 0.04485 0.0
C3932 C 0.47453 0.33875 0.11607 0.0
C3933 C 0.48261 0.32298 0.12353 0.0
C3934 C 0.45956 0.33705 0.10377 0.0
C3935 C 0.45224 0.31958 0.09898 0.0
C3936 C 0.46032 0.30385 0.10642 0.0
C3937 C 0.47543 0.30552 0.11845 0.0
C3938 C 0.40515 0.30535 0.07978 0.0
C3939 C 0.40464 0.31512 0.06299 0.0
C3940 C 0.42073 0.30656 0.09131 0.0
C3941 C 0.43606 0.3177 0.08641 0.0
C3942 C 0.43581 0.32711 0.0695 0.0
C3943 C 0.42038 0.32569 0.05784 0.0
H3944 H 0.71594 0.40015 0.06646 0.0
H3945 H 0.66088 0.41033 0.04604 0.0
H3946 H 0.71353 0.42555 0.08806 0.0
H3947 H 0.65843 0.43583 0.06785 0.0
H3948 H 0.65619 0.47019 0.12209 0.0
H3949 H 0.65694 0.44381 0.10114 0.0
H3950 H 0.71295 0.45899 0.08619 0.0
H3951 H 0.71232 0.48507 0.10718 0.0
C3952 C 0.70333 0.40784 0.0665 0.0
C3953 C 0.68871 0.40326 0.05428 0.0
C3954 C 0.70194 0.42244 0.07892 0.0
C3955 C 0.68588 0.43291 0.07955 0.0
C3956 C 0.67097 0.42799 0.0678 0.0
C3957 C 0.67237 0.41334 0.0553 0.0
C3958 C 0.66865 0.46791 0.1143 0.0
C3959 C 0.68423 0.47974 0.11641 0.0
C3960 C 0.66904 0.45283 0.10223 0.0
C3961 C 0.68505 0.44918 0.09207 0.0
C3962 C 0.7005 0.46117 0.09404 0.0
C3963 C 0.70009 0.47623 0.10602 0.0
H3964 H 0.31354 0.52942 0.13341 0.0
H3965 H 0.37251 0.53983 0.13192 0.0
H3966 H 0.3089 0.55368 0.11104 0.0
H3967 H 0.36803 0.56363 0.10849 0.0
H3968 H 0.35175 0.61723 0.07895 0.0
H3969 H 0.35788 0.59323 0.10182 0.0
H3970 H 0.3113 0.56117 0.0804 0.0
H3971 H 0.3048 0.58557 0.05851 0.0
C3972 C 0.32559 0.53673 0.12806 0.0
C3973 C 0.34341 0.53257 0.13437 0.0
C3974 C 0.32294 0.55064 0.11504 0.0
C3975 C 0.33807 0.56062 0.10758 0.0
C3976 C 0.35597 0.55646 0.11397 0.0
C3977 C 0.35859 0.54271 0.12732 0.0
C3978 C 0.3429 0.60499 0.07924 0.0
C3979 C 0.32765 0.60336 0.06718 0.0
C3980 C 0.34644 0.59116 0.09227 0.0
C3981 C 0.33498 0.57519 0.09327 0.0
C3982 C 0.32013 0.57341 0.08062 0.0
C3983 C 0.31641 0.58737 0.06793 0.0
loop_
_geom_bond_atom_site_label_1
_geom_bond_atom_site_label_2
_geom_bond_distance
_geom_bond_site_symmetry_2
_ccdc_geom_bond_type
C0 C1 1.351 . S
C0 N3 1.368 . S
C0 H5 0.931 1_655 S
C1 C0 1.351 . S
C1 N2 1.373 . S
C1 H29 0.930 . S
N2 C1 1.373 . S
N2 C4 1.340 . S
N3 C0 1.368 . S
N3 C4 1.321 . S
N3 Co6 2.135 1_655 S
C4 N2 1.340 . S
C4 N3 1.321 . S
C4 H28 0.930 . S
H5 C0 0.931 1_455 S
Co6 N3 2.135 1_455 S
Co6 N9 2.121 . S
Co6 O14 2.055 . S
Co6 O17 2.039 1_455 S
Co6 N20 2.140 . S
C7 O8 1.227 . S
C7 O17 1.265 . S
O8 C7 1.227 . S
N9 Co6 2.121 . S
N9 C11 1.375 . S
N9 C12 1.313 . S
C10 C11 1.338 . S
C10 N13 1.377 . S
C10 H30 0.930 . S
C11 N9 1.375 . S
C11 C10 1.338 . S
C11 H15 0.931 . S
C12 N9 1.313 . S
C12 N13 1.344 . S
C12 H16 0.930 . S
N13 C10 1.377 . S
N13 C12 1.344 . S
O14 Co6 2.055 . S
O14 C18 1.253 . S
H15 C11 0.931 . S
H16 C12 0.930 . S
O17 Co6 2.039 1_655 S
O17 C7 1.265 . S
C18 O14 1.253 . S
C18 O19 1.227 . S
O19 C18 1.227 . S
N20 Co6 2.140 . S
N20 C23 1.346 1_455 S
N20 C24 1.345 . S
C21 C22 1.387 1_455 S
C21 C25 1.391 . S
C22 C21 1.387 1_655 S
C22 C23 1.369 . S
C22 H31 0.929 . S
C23 N20 1.346 1_655 S
C23 C22 1.369 . S
C23 H26 0.928 . S
C24 N20 1.345 . S
C24 C25 1.371 . S
C24 H27 0.931 . S
C25 C21 1.391 . S
C25 C24 1.371 . S
C25 H32 0.930 . S
H26 C23 0.928 . S
H27 C24 0.931 . S
H28 C4 0.930 . S
H29 C1 0.930 . S
H30 C10 0.930 . S
H31 C22 0.929 . S
H32 C25 0.930 . S
C33 C34 1.351 . S
C33 N36 1.368 . S
C33 H38 0.931 . S
C34 C33 1.351 . S
C34 N35 1.373 . S
C34 H62 0.930 . S
N35 C34 1.373 . S
N35 C37 1.340 . S
N36 C33 1.368 . S
N36 C37 1.321 . S
N36 Co39 2.135 . S
C37 N35 1.340 . S
C37 N36 1.321 . S
C37 H61 0.930 . S
H38 C33 0.931 . S
Co39 N36 2.135 . S
Co39 N42 2.121 1_545 S
Co39 O47 2.055 1_545 S
Co39 O50 2.039 . S
Co39 N53 2.140 . S
C40 O41 1.227 . S
C40 O50 1.265 . S
O41 C40 1.227 . S
N42 Co39 2.121 1_565 S
N42 C44 1.375 . S
N42 C45 1.313 . S
C43 C44 1.338 . S
C43 N46 1.377 . S
C43 H63 0.930 . S
C44 N42 1.375 . S
C44 C43 1.338 . S
C44 H48 0.931 1_565 S
C45 N42 1.313 . S
C45 N46 1.344 . S
C45 H49 0.930 . S
N46 C43 1.377 . S
N46 C45 1.344 . S
O47 Co39 2.055 1_565 S
O47 C51 1.253 . S
H48 C44 0.931 1_545 S
H49 C45 0.930 . S
O50 Co39 2.039 . S
O50 C40 1.265 . S
C51 O47 1.253 . S
C51 O52 1.227 . S
O52 C51 1.227 . S
N53 Co39 2.140 . S
N53 C56 1.346 . S
N53 C57 1.345 1_545 S
C54 C55 1.387 . S
C54 C58 1.391 1_545 S
C55 C54 1.387 . S
C55 C56 1.369 . S
C55 H64 0.929 . S
C56 N53 1.346 . S
C56 C55 1.369 . S
C56 H59 0.928 . S
C57 N53 1.345 1_565 S
C57 C58 1.371 . S
C57 H60 0.931 . S
C58 C54 1.391 1_565 S
C58 C57 1.371 . S
C58 H65 0.930 . S
H59 C56 0.928 . S
H60 C57 0.931 . S
H61 C37 0.930 . S
H62 C34 0.930 . S
H63 C43 0.930 . S
H64 C55 0.929 . S
H65 C58 0.930 . S
C66 C67 1.351 . S
C66 N69 1.368 . S
C66 H71 0.931 1_655 S
C67 C66 1.351 . S
C67 N68 1.373 . S
C67 H95 0.930 . S
N68 C67 1.373 . S
N68 C70 1.340 . S
N69 C66 1.368 . S
N69 C70 1.321 . S
N69 Co72 2.135 1_655 S
C70 N68 1.340 . S
C70 N69 1.321 . S
C70 H94 0.930 . S
H71 C66 0.931 1_455 S
Co72 N69 2.135 1_455 S
Co72 N75 2.121 . S
Co72 O80 2.055 . S
Co72 O83 2.039 1_455 S
Co72 N86 2.140 . S
C73 O74 1.227 . S
C73 O83 1.265 . S
O74 C73 1.227 . S
N75 Co72 2.121 . S
N75 C77 1.375 . S
N75 C78 1.313 . S
C76 C77 1.338 . S
C76 N79 1.377 . S
C76 H96 0.930 . S
C77 N75 1.375 . S
C77 C76 1.338 . S
C77 H81 0.931 . S
C78 N75 1.313 . S
C78 N79 1.344 . S
C78 H82 0.930 . S
N79 C76 1.377 . S
N79 C78 1.344 . S
O80 Co72 2.055 . S
O80 C84 1.253 . S
H81 C77 0.931 . S
H82 C78 0.930 . S
O83 Co72 2.039 1_655 S
O83 C73 1.265 . S
C84 O80 1.253 . S
C84 O85 1.227 . S
O85 C84 1.227 . S
N86 Co72 2.140 . S
N86 C89 1.346 1_455 S
N86 C90 1.345 . S
C87 C88 1.387 1_455 S
C87 C91 1.391 . S
C88 C87 1.387 1_655 S
C88 C89 1.369 . S
C88 H97 0.929 . S
C89 N86 1.346 1_655 S
C89 C88 1.369 . S
C89 H92 0.928 . S
C90 N86 1.345 . S
C90 C91 1.371 . S
C90 H93 0.931 . S
C91 C87 1.391 . S
C91 C90 1.371 . S
C91 H98 0.930 . S
H92 C89 0.928 . S
H93 C90 0.931 . S
H94 C70 0.930 . S
H95 C67 0.930 . S
H96 C76 0.930 . S
H97 C88 0.929 . S
H98 C91 0.930 . S
C99 C100 1.351 . S
C99 N102 1.368 . S
C99 H104 0.931 1_565 S
C100 C99 1.351 . S
C100 N101 1.373 . S
C100 H128 0.930 . S
N101 C100 1.373 . S
N101 C103 1.340 . S
N102 C99 1.368 . S
N102 C103 1.321 . S
N102 Co105 2.135 1_565 S
C103 N101 1.340 . S
C103 N102 1.321 . S
C103 H127 0.930 . S
H104 C99 0.931 1_545 S
Co105 N102 2.135 1_545 S
Co105 N108 2.121 . S
Co105 O113 2.055 . S
Co105 O116 2.039 1_545 S
Co105 N119 2.140 . S
C106 O107 1.227 . S
C106 O116 1.265 . S
O107 C106 1.227 . S
N108 Co105 2.121 . S
N108 C110 1.375 . S
N108 C111 1.313 . S
C109 C110 1.338 . S
C109 N112 1.377 . S
C109 H129 0.930 . S
C110 N108 1.375 . S
C110 C109 1.338 . S
C110 H114 0.931 . S
C111 N108 1.313 . S
C111 N112 1.344 . S
C111 H115 0.930 . S
N112 C109 1.377 . S
N112 C111 1.344 . S
O113 Co105 2.055 . S
O113 C117 1.253 . S
H114 C110 0.931 . S
H115 C111 0.930 . S
O116 Co105 2.039 1_565 S
O116 C106 1.265 . S
C117 O113 1.253 . S
C117 O118 1.227 . S
O118 C117 1.227 . S
N119 Co105 2.140 . S
N119 C122 1.346 1_545 S
N119 C123 1.345 . S
C120 C121 1.387 1_545 S
C120 C124 1.391 . S
C121 C120 1.387 1_565 S
C121 C122 1.369 . S
C121 H130 0.929 . S
C122 N119 1.346 1_565 S
C122 C121 1.369 . S
C122 H125 0.928 . S
C123 N119 1.345 . S
C123 C124 1.371 . S
C123 H126 0.931 . S
C124 C120 1.391 . S
C124 C123 1.371 . S
C124 H131 0.930 . S
H125 C122 0.928 . S
H126 C123 0.931 . S
H127 C103 0.930 . S
H128 C100 0.930 . S
H129 C109 0.930 . S
H130 C121 0.929 . S
H131 C124 0.930 . S
C132 C133 1.351 . S
C132 N135 1.368 . S
C132 H137 0.931 . S
C133 C132 1.351 . S
C133 N134 1.373 . S
C133 H161 0.930 . S
N134 C133 1.373 . S
N134 C136 1.340 . S
N135 C132 1.368 . S
N135 C136 1.321 . S
N135 Co138 2.135 . S
C136 N134 1.340 . S
C136 N135 1.321 . S
C136 H160 0.930 . S
H137 C132 0.931 . S
Co138 N135 2.135 . S
Co138 N141 2.121 1_455 S
Co138 O146 2.055 1_455 S
Co138 O149 2.039 . S
Co138 N152 2.140 . S
C139 O140 1.227 . S
C139 O149 1.265 . S
O140 C139 1.227 . S
N141 Co138 2.121 1_655 S
N141 C143 1.375 . S
N141 C144 1.313 . S
C142 C143 1.338 . S
C142 N145 1.377 . S
C142 H162 0.930 . S
C143 N141 1.375 . S
C143 C142 1.338 . S
C143 H147 0.931 1_655 S
C144 N141 1.313 . S
C144 N145 1.344 . S
C144 H148 0.930 . S
N145 C142 1.377 . S
N145 C144 1.344 . S
O146 Co138 2.055 1_655 S
O146 C150 1.253 . S
H147 C143 0.931 1_455 S
H148 C144 0.930 . S
O149 Co138 2.039 . S
O149 C139 1.265 . S
C150 O146 1.253 . S
C150 O151 1.227 . S
O151 C150 1.227 . S
N152 Co138 2.140 . S
N152 C155 1.346 . S
N152 C156 1.345 1_455 S
C153 C154 1.387 . S
C153 C157 1.391 1_455 S
C154 C153 1.387 . S
C154 C155 1.369 . S
C154 H163 0.929 . S
C155 N152 1.346 . S
C155 C154 1.369 . S
C155 H158 0.928 . S
C156 N152 1.345 1_655 S
C156 C157 1.371 . S
C156 H159 0.931 . S
C157 C153 1.391 1_655 S
C157 C156 1.371 . S
C157 H164 0.930 . S
H158 C155 0.928 . S
H159 C156 0.931 . S
H160 C136 0.930 . S
H161 C133 0.930 . S
H162 C142 0.930 . S
H163 C154 0.929 . S
H164 C157 0.930 . S
C165 C166 1.393 . S
C165 N168 1.382 . S
C165 H170 0.883 1_565 S
C166 C165 1.393 . S
C166 N167 1.373 . S
C166 H194 0.930 . S
N167 C166 1.373 . S
N167 C169 1.340 . S
N168 C165 1.382 . S
N168 C169 1.321 . S
N168 Co171 2.135 1_565 S
C169 N167 1.340 . S
C169 N168 1.321 . S
C169 H193 0.930 . S
H170 C165 0.883 1_545 S
Co171 N168 2.135 1_545 S
Co171 N174 2.121 . S
Co171 O179 2.055 . S
Co171 O182 2.039 1_545 S
Co171 N185 2.140 . S
C172 O173 1.227 . S
C172 O182 1.265 . S
O173 C172 1.227 . S
N174 Co171 2.121 . S
N174 C176 1.375 . S
N174 C177 1.313 . S
C175 C176 1.338 . S
C175 N178 1.377 . S
C175 H195 0.930 . S
C176 N174 1.375 . S
C176 C175 1.338 . S
C176 H180 0.931 . S
C177 N174 1.313 . S
C177 N178 1.344 . S
C177 H181 0.930 . S
N178 C175 1.377 . S
N178 C177 1.344 . S
O179 Co171 2.055 . S
O179 C183 1.253 . S
H180 C176 0.931 . S
H181 C177 0.930 . S
O182 Co171 2.039 1_565 S
O182 C172 1.265 . S
C183 O179 1.253 . S
C183 O184 1.227 . S
O184 C183 1.227 . S
N185 Co171 2.140 . S
N185 C188 1.346 1_545 S
N185 C189 1.345 . S
C186 C187 1.387 1_545 S
C186 C190 1.391 . S
C187 C186 1.387 1_565 S
C187 C188 1.369 . S
C187 H196 0.929 . S
C188 N185 1.346 1_565 S
C188 C187 1.369 . S
C188 H191 0.928 . S
C189 N185 1.345 . S
C189 C190 1.371 . S
C189 H192 0.931 . S
C190 C186 1.391 . S
C190 C189 1.371 . S
C190 H197 0.930 . S
H191 C188 0.928 . S
H192 C189 0.931 . S
H193 C169 0.930 . S
H194 C166 0.930 . S
H195 C175 0.930 . S
H196 C187 0.929 . S
H197 C190 0.930 . S
C198 C199 1.351 . S
C198 N201 1.368 . S
C198 H203 0.931 1_655 S
C199 C198 1.351 . S
C199 N200 1.373 . S
C199 H227 0.930 . S
N200 C199 1.373 . S
N200 C202 1.340 . S
N201 C198 1.368 . S
N201 C202 1.321 . S
N201 Co204 2.135 1_655 S
C202 N200 1.340 . S
C202 N201 1.321 . S
C202 H226 0.930 . S
H203 C198 0.931 1_455 S
Co204 N201 2.135 1_455 S
Co204 N207 2.121 . S
Co204 O212 2.055 . S
Co204 O215 2.039 1_455 S
Co204 N218 2.140 . S
C205 O206 1.227 . S
C205 O215 1.265 . S
O206 C205 1.227 . S
N207 Co204 2.121 . S
N207 C209 1.375 . S
N207 C210 1.313 . S
C208 C209 1.338 . S
C208 N211 1.377 . S
C208 H228 0.930 . S
C209 N207 1.375 . S
C209 C208 1.338 . S
C209 H213 0.931 . S
C210 N207 1.313 . S
C210 N211 1.344 . S
C210 H214 0.930 . S
N211 C208 1.377 . S
N211 C210 1.344 . S
O212 Co204 2.055 . S
O212 C216 1.253 . S
H213 C209 0.931 . S
H214 C210 0.930 . S
O215 Co204 2.039 1_655 S
O215 C205 1.265 . S
C216 O212 1.253 . S
C216 O217 1.227 . S
O217 C216 1.227 . S
N218 Co204 2.140 . S
N218 C221 1.346 1_455 S
N218 C222 1.345 . S
C219 C220 1.387 1_455 S
C219 C223 1.391 . S
C220 C219 1.387 1_655 S
C220 C221 1.369 . S
C220 H229 0.929 . S
C221 N218 1.346 1_655 S
C221 C220 1.369 . S
C221 H224 0.928 . S
C222 N218 1.345 . S
C222 C223 1.371 . S
C222 H225 0.931 . S
C223 C219 1.391 . S
C223 C222 1.371 . S
C223 H230 0.930 . S
H224 C221 0.928 . S
H225 C222 0.931 . S
H226 C202 0.930 . S
H227 C199 0.930 . S
H228 C208 0.930 . S
H229 C220 0.929 . S
H230 C223 0.930 . S
C231 C232 1.351 . S
C231 N234 1.368 . S
C231 H236 0.931 . S
C232 C231 1.351 . S
C232 N233 1.373 . S
C232 H260 0.930 . S
N233 C232 1.373 . S
N233 C235 1.340 . S
N234 C231 1.368 . S
N234 C235 1.321 . S
N234 Co237 2.135 . S
C235 N233 1.340 . S
C235 N234 1.321 . S
C235 H259 0.930 . S
H236 C231 0.931 . S
Co237 N234 2.135 . S
Co237 N240 2.121 1_545 S
Co237 O245 2.055 1_545 S
Co237 O248 2.039 . S
Co237 N251 2.140 . S
C238 O239 1.227 . S
C238 O248 1.265 . S
O239 C238 1.227 . S
N240 Co237 2.121 1_565 S
N240 C242 1.375 . S
N240 C243 1.313 . S
C241 C242 1.338 . S
C241 N244 1.377 . S
C241 H261 0.930 . S
C242 N240 1.375 . S
C242 C241 1.338 . S
C242 H246 0.931 1_565 S
C243 N240 1.313 . S
C243 N244 1.344 . S
C243 H247 0.930 . S
N244 C241 1.377 . S
N244 C243 1.344 . S
O245 Co237 2.055 1_565 S
O245 C249 1.253 . S
H246 C242 0.931 1_545 S
H247 C243 0.930 . S
O248 Co237 2.039 . S
O248 C238 1.265 . S
C249 O245 1.253 . S
C249 O250 1.227 . S
O250 C249 1.227 . S
N251 Co237 2.140 . S
N251 C254 1.346 . S
N251 C255 1.345 1_545 S
C252 C253 1.387 . S
C252 C256 1.391 1_545 S
C253 C252 1.387 . S
C253 C254 1.369 . S
C253 H262 0.929 . S
C254 N251 1.346 . S
C254 C253 1.369 . S
C254 H257 0.928 . S
C255 N251 1.345 1_565 S
C255 C256 1.371 . S
C255 H258 0.931 . S
C256 C252 1.391 1_565 S
C256 C255 1.371 . S
C256 H263 0.930 . S
H257 C254 0.928 . S
H258 C255 0.931 . S
H259 C235 0.930 . S
H260 C232 0.930 . S
H261 C241 0.930 . S
H262 C253 0.929 . S
H263 C256 0.930 . S
C264 C265 1.351 . S
C264 N267 1.368 . S
C264 H269 0.931 1_556 S
C265 C264 1.351 . S
C265 N266 1.373 . S
C265 H293 0.930 . S
N266 C265 1.373 . S
N266 C268 1.340 . S
N267 C264 1.368 . S
N267 C268 1.321 . S
N267 Co270 2.135 1_556 S
C268 N266 1.340 . S
C268 N267 1.321 . S
C268 H292 0.930 . S
H269 C264 0.931 1_554 S
Co270 N267 2.135 1_554 S
Co270 N273 2.121 . S
Co270 O278 2.055 . S
Co270 O281 2.039 1_554 S
Co270 N284 2.140 . S
C271 O272 1.227 . S
C271 O281 1.265 . S
O272 C271 1.227 . S
N273 Co270 2.121 . S
N273 C275 1.375 . S
N273 C276 1.313 . S
C274 C275 1.338 . S
C274 N277 1.377 . S
C274 H294 0.930 . S
C275 N273 1.375 . S
C275 C274 1.338 . S
C275 H279 0.931 . S
C276 N273 1.313 . S
C276 N277 1.344 . S
C276 H280 0.930 . S
N277 C274 1.377 . S
N277 C276 1.344 . S
O278 Co270 2.055 . S
O278 C282 1.253 . S
H279 C275 0.931 . S
H280 C276 0.930 . S
O281 Co270 2.039 1_556 S
O281 C271 1.265 . S
C282 O278 1.253 . S
C282 O283 1.227 . S
O283 C282 1.227 . S
N284 Co270 2.140 . S
N284 C287 1.346 1_554 S
N284 C288 1.345 . S
C285 C286 1.387 1_554 S
C285 C289 1.391 . S
C286 C285 1.387 1_556 S
C286 C287 1.369 . S
C286 H295 0.929 . S
C287 N284 1.346 1_556 S
C287 C286 1.369 . S
C287 H290 0.928 . S
C288 N284 1.345 . S
C288 C289 1.371 . S
C288 H291 0.931 . S
C289 C285 1.391 . S
C289 C288 1.371 . S
C289 H296 0.930 . S
H290 C287 0.928 . S
H291 C288 0.931 . S
H292 C268 0.930 . S
H293 C265 0.930 . S
H294 C274 0.930 . S
H295 C286 0.929 . S
H296 C289 0.930 . S
C297 C298 1.351 . S
C297 N300 1.368 . S
C297 H302 0.931 . S
C298 C297 1.351 . S
C298 N299 1.373 . S
C298 H326 0.930 . S
N299 C298 1.373 . S
N299 C301 1.340 . S
N300 C297 1.368 . S
N300 C301 1.321 . S
N300 Co303 2.135 . S
C301 N299 1.340 . S
C301 N300 1.321 . S
C301 H325 0.930 . S
H302 C297 0.931 . S
Co303 N300 2.135 . S
Co303 N306 2.121 1_554 S
Co303 O311 2.055 1_554 S
Co303 O314 2.039 . S
Co303 N317 2.140 . S
C304 O305 1.227 . S
C304 O314 1.265 . S
O305 C304 1.227 . S
N306 Co303 2.121 1_556 S
N306 C308 1.375 . S
N306 C309 1.313 . S
C307 C308 1.338 . S
C307 N310 1.377 . S
C307 H327 0.930 . S
C308 N306 1.375 . S
C308 C307 1.338 . S
C308 H312 0.931 1_556 S
C309 N306 1.313 . S
C309 N310 1.344 . S
C309 H313 0.930 . S
N310 C307 1.377 . S
N310 C309 1.344 . S
O311 Co303 2.055 1_556 S
O311 C315 1.253 . S
H312 C308 0.931 1_554 S
H313 C309 0.930 . S
O314 Co303 2.039 . S
O314 C304 1.265 . S
C315 O311 1.253 . S
C315 O316 1.227 . S
O316 C315 1.227 . S
N317 Co303 2.140 . S
N317 C320 1.346 . S
N317 C321 1.345 1_554 S
C318 C319 1.387 . S
C318 C322 1.391 1_554 S
C319 C318 1.387 . S
C319 C320 1.369 . S
C319 H328 0.929 . S
C320 N317 1.346 . S
C320 C319 1.369 . S
C320 H323 0.928 . S
C321 N317 1.345 1_556 S
C321 C322 1.371 . S
C321 H324 0.931 . S
C322 C318 1.391 1_556 S
C322 C321 1.371 . S
C322 H329 0.930 . S
H323 C320 0.928 . S
H324 C321 0.931 . S
H325 C301 0.930 . S
H326 C298 0.930 . S
H327 C307 0.930 . S
H328 C319 0.929 . S
H329 C322 0.930 . S
C330 C331 1.351 1_554 S
C330 N333 1.368 1_554 S
C330 H335 0.931 . S
C331 C330 1.351 1_556 S
C331 N332 1.373 . S
C331 H359 0.930 . S
N332 C331 1.373 . S
N332 C334 1.340 . S
N333 C330 1.368 1_556 S
N333 C334 1.321 . S
N333 Co336 2.135 1_556 S
C334 N332 1.340 . S
C334 N333 1.321 . S
C334 H358 0.930 . S
H335 C330 0.931 . S
Co336 N333 2.135 1_554 S
Co336 N339 2.121 . S
Co336 O344 2.055 . S
Co336 O347 2.039 1_554 S
Co336 N350 2.140 . S
C337 O338 1.227 . S
C337 O347 1.265 . S
O338 C337 1.227 . S
N339 Co336 2.121 . S
N339 C341 1.375 . S
N339 C342 1.313 . S
C340 C341 1.338 . S
C340 N343 1.377 . S
C340 H360 0.930 . S
C341 N339 1.375 . S
C341 C340 1.338 . S
C341 H345 0.931 . S
C342 N339 1.313 . S
C342 N343 1.344 . S
C342 H346 0.930 . S
N343 C340 1.377 . S
N343 C342 1.344 . S
O344 Co336 2.055 . S
O344 C348 1.253 . S
H345 C341 0.931 . S
H346 C342 0.930 . S
O347 Co336 2.039 1_556 S
O347 C337 1.265 . S
C348 O344 1.253 . S
C348 O349 1.227 . S
O349 C348 1.227 . S
N350 Co336 2.140 . S
N350 C353 1.346 1_554 S
N350 C354 1.345 . S
C351 C352 1.387 1_554 S
C351 C355 1.391 . S
C352 C351 1.387 1_556 S
C352 C353 1.369 . S
C352 H361 0.929 . S
C353 N350 1.346 1_556 S
C353 C352 1.369 . S
C353 H356 0.928 . S
C354 N350 1.345 . S
C354 C355 1.371 . S
C354 H357 0.931 . S
C355 C351 1.391 . S
C355 C354 1.371 . S
C355 H362 0.930 . S
H356 C353 0.928 . S
H357 C354 0.931 . S
H358 C334 0.930 . S
H359 C331 0.930 . S
H360 C340 0.930 . S
H361 C352 0.929 . S
H362 C355 0.930 . S
C363 C364 1.351 . S
C363 N366 1.368 . S
C363 H368 0.931 1_556 S
C364 C363 1.351 . S
C364 N365 1.373 . S
C364 H392 0.930 . S
N365 C364 1.373 . S
N365 C367 1.340 . S
N366 C363 1.368 . S
N366 C367 1.321 . S
N366 Co369 2.135 1_556 S
C367 N365 1.340 . S
C367 N366 1.321 . S
C367 H391 0.930 . S
H368 C363 0.931 1_554 S
Co369 N366 2.135 1_554 S
Co369 N372 2.121 . S
Co369 O377 2.055 . S
Co369 O380 2.039 1_554 S
Co369 N383 2.140 . S
C370 O371 1.227 . S
C370 O380 1.265 . S
O371 C370 1.227 . S
N372 Co369 2.121 . S
N372 C374 1.375 . S
N372 C375 1.313 . S
C373 C374 1.338 . S
C373 N376 1.377 . S
C373 H393 0.930 . S
C374 N372 1.375 . S
C374 C373 1.338 . S
C374 H378 0.931 . S
C375 N372 1.313 . S
C375 N376 1.344 . S
C375 H379 0.930 . S
N376 C373 1.377 . S
N376 C375 1.344 . S
O377 Co369 2.055 . S
O377 C381 1.253 . S
H378 C374 0.931 . S
H379 C375 0.930 . S
O380 Co369 2.039 1_556 S
O380 C370 1.265 . S
C381 O377 1.253 . S
C381 O382 1.227 . S
O382 C381 1.227 . S
N383 Co369 2.140 . S
N383 C386 1.346 1_554 S
N383 C387 1.345 . S
C384 C385 1.387 1_554 S
C384 C388 1.391 . S
C385 C384 1.387 1_556 S
C385 C386 1.369 . S
C385 H394 0.929 . S
C386 N383 1.346 1_556 S
C386 C385 1.369 . S
C386 H389 0.928 . S
C387 N383 1.345 . S
C387 C388 1.371 . S
C387 H390 0.931 . S
C388 C384 1.391 . S
C388 C387 1.371 . S
C388 H395 0.930 . S
H389 C386 0.928 . S
H390 C387 0.931 . S
H391 C367 0.930 . S
H392 C364 0.930 . S
H393 C373 0.930 . S
H394 C385 0.929 . S
H395 C388 0.930 . S
C396 C397 1.351 . S
C396 N399 1.368 . S
C396 H401 0.931 1_655 S
C397 C396 1.351 . S
C397 N398 1.373 . S
C397 H425 0.930 . S
N398 C397 1.373 . S
N398 C400 1.340 . S
N399 C396 1.368 . S
N399 C400 1.321 . S
N399 Co402 2.135 1_655 S
C400 N398 1.340 . S
C400 N399 1.321 . S
C400 H424 0.930 . S
H401 C396 0.931 1_455 S
Co402 N399 2.135 1_455 S
Co402 N405 2.121 . S
Co402 O410 2.055 . S
Co402 O413 2.039 1_455 S
Co402 N416 2.140 . S
C403 O404 1.227 . S
C403 O413 1.265 . S
O404 C403 1.227 . S
N405 Co402 2.121 . S
N405 C407 1.375 . S
N405 C408 1.313 . S
C406 C407 1.338 . S
C406 N409 1.377 . S
C406 H426 0.930 . S
C407 N405 1.375 . S
C407 C406 1.338 . S
C407 H411 0.931 . S
C408 N405 1.313 . S
C408 N409 1.344 . S
C408 H412 0.930 . S
N409 C406 1.377 . S
N409 C408 1.344 . S
O410 Co402 2.055 . S
O410 C414 1.253 . S
H411 C407 0.931 . S
H412 C408 0.930 . S
O413 Co402 2.039 1_655 S
O413 C403 1.265 . S
C414 O410 1.253 . S
C414 O415 1.227 . S
O415 C414 1.227 . S
N416 Co402 2.140 . S
N416 C419 1.346 1_455 S
N416 C420 1.345 . S
C417 C418 1.387 1_455 S
C417 C421 1.391 . S
C418 C417 1.387 1_655 S
C418 C419 1.369 . S
C418 H427 0.929 . S
C419 N416 1.346 1_655 S
C419 C418 1.369 . S
C419 H422 0.928 . S
C420 N416 1.345 . S
C420 C421 1.371 . S
C420 H423 0.931 . S
C421 C417 1.391 . S
C421 C420 1.371 . S
C421 H428 0.930 . S
H422 C419 0.928 . S
H423 C420 0.931 . S
H424 C400 0.930 . S
H425 C397 0.930 . S
H426 C406 0.930 . S
H427 C418 0.929 . S
H428 C421 0.930 . S
C429 C430 1.351 . S
C429 N432 1.368 . S
C429 H434 0.931 . S
C430 C429 1.351 . S
C430 N431 1.373 . S
C430 H458 0.930 . S
N431 C430 1.373 . S
N431 C433 1.340 . S
N432 C429 1.368 . S
N432 C433 1.321 . S
N432 Co435 2.135 . S
C433 N431 1.340 . S
C433 N432 1.321 . S
C433 H457 0.930 . S
H434 C429 0.931 . S
Co435 N432 2.135 . S
Co435 N438 2.121 . S
Co435 O443 2.055 . S
Co435 O446 2.039 . S
Co435 N449 2.140 . S
C436 O437 1.227 . S
C436 O446 1.265 . S
O437 C436 1.227 . S
N438 Co435 2.121 . S
N438 C440 1.375 . S
N438 C441 1.313 . S
C439 C440 1.338 . S
C439 N442 1.377 . S
C439 H459 0.930 . S
C440 N438 1.375 . S
C440 C439 1.338 . S
C440 H444 0.931 . S
C441 N438 1.313 . S
C441 N442 1.344 . S
C441 H445 0.930 . S
N442 C439 1.377 . S
N442 C441 1.344 . S
O443 Co435 2.055 . S
O443 C447 1.253 . S
H444 C440 0.931 . S
H445 C441 0.930 . S
O446 Co435 2.039 . S
O446 C436 1.265 . S
C447 O443 1.253 . S
C447 O448 1.227 . S
O448 C447 1.227 . S
N449 Co435 2.140 . S
N449 C452 1.346 . S
N449 C453 1.345 . S
C450 C451 1.387 . S
C450 C454 1.391 . S
C451 C450 1.387 . S
C451 C452 1.369 . S
C451 H460 0.929 . S
C452 N449 1.346 . S
C452 C451 1.369 . S
C452 H455 0.928 . S
C453 N449 1.345 . S
C453 C454 1.371 . S
C453 H456 0.931 . S
C454 C450 1.391 . S
C454 C453 1.371 . S
C454 H461 0.930 . S
H455 C452 0.928 . S
H456 C453 0.931 . S
H457 C433 0.930 . S
H458 C430 0.930 . S
H459 C439 0.930 . S
H460 C451 0.929 . S
H461 C454 0.930 . S
C462 C463 1.351 . S
C462 N465 1.368 . S
C462 H467 0.931 1_655 S
C463 C462 1.351 . S
C463 N464 1.373 . S
C463 H491 0.930 . S
N464 C463 1.373 . S
N464 C466 1.340 . S
N465 C462 1.368 . S
N465 C466 1.321 . S
N465 Co468 2.135 1_655 S
C466 N464 1.340 . S
C466 N465 1.321 . S
C466 H490 0.930 . S
H467 C462 0.931 1_455 S
Co468 N465 2.135 1_455 S
Co468 N471 2.121 . S
Co468 O476 2.055 . S
Co468 O479 2.039 1_455 S
Co468 N482 2.140 . S
C469 O470 1.227 . S
C469 O479 1.265 . S
O470 C469 1.227 . S
N471 Co468 2.121 . S
N471 C473 1.375 . S
N471 C474 1.313 . S
C472 C473 1.338 . S
C472 N475 1.377 . S
C472 H492 0.930 . S
C473 N471 1.375 . S
C473 C472 1.338 . S
C473 H477 0.931 . S
C474 N471 1.313 . S
C474 N475 1.344 . S
C474 H478 0.930 . S
N475 C472 1.377 . S
N475 C474 1.344 . S
O476 Co468 2.055 . S
O476 C480 1.253 . S
H477 C473 0.931 . S
H478 C474 0.930 . S
O479 Co468 2.039 1_655 S
O479 C469 1.265 . S
C480 O476 1.253 . S
C480 O481 1.227 . S
O481 C480 1.227 . S
N482 Co468 2.140 . S
N482 C485 1.346 1_455 S
N482 C486 1.345 . S
C483 C484 1.387 1_455 S
C483 C487 1.391 . S
C484 C483 1.387 1_655 S
C484 C485 1.369 . S
C484 H493 0.929 . S
C485 N482 1.346 1_655 S
C485 C484 1.369 . S
C485 H488 0.928 . S
C486 N482 1.345 . S
C486 C487 1.371 . S
C486 H489 0.931 . S
C487 C483 1.391 . S
C487 C486 1.371 . S
C487 H494 0.930 . S
H488 C485 0.928 . S
H489 C486 0.931 . S
H490 C466 0.930 . S
H491 C463 0.930 . S
H492 C472 0.930 . S
H493 C484 0.929 . S
H494 C487 0.930 . S
C495 C496 1.351 . S
C495 N498 1.368 . S
C495 H500 0.931 . S
C496 C495 1.351 . S
C496 N497 1.373 . S
C496 H524 0.930 . S
N497 C496 1.373 . S
N497 C499 1.340 . S
N498 C495 1.368 . S
N498 C499 1.321 . S
N498 Co501 2.135 . S
C499 N497 1.340 . S
C499 N498 1.321 . S
C499 H523 0.930 . S
H500 C495 0.931 . S
Co501 N498 2.135 . S
Co501 N504 2.121 . S
Co501 O509 2.055 . S
Co501 O512 2.039 . S
Co501 N515 2.140 . S
C502 O503 1.227 . S
C502 O512 1.265 . S
O503 C502 1.227 . S
N504 Co501 2.121 . S
N504 C506 1.375 . S
N504 C507 1.313 . S
C505 C506 1.338 . S
C505 N508 1.377 . S
C505 H525 0.930 . S
C506 N504 1.375 . S
C506 C505 1.338 . S
C506 H510 0.931 . S
C507 N504 1.313 . S
C507 N508 1.344 . S
C507 H511 0.930 . S
N508 C505 1.377 . S
N508 C507 1.344 . S
O509 Co501 2.055 . S
O509 C513 1.253 . S
H510 C506 0.931 . S
H511 C507 0.930 . S
O512 Co501 2.039 . S
O512 C502 1.265 . S
C513 O509 1.253 . S
C513 O514 1.227 . S
O514 C513 1.227 . S
N515 Co501 2.140 . S
N515 C518 1.346 . S
N515 C519 1.345 . S
C516 C517 1.387 . S
C516 C520 1.391 . S
C517 C516 1.387 . S
C517 C518 1.369 . S
C517 H526 0.929 . S
C518 N515 1.346 . S
C518 C517 1.369 . S
C518 H521 0.928 . S
C519 N515 1.345 . S
C519 C520 1.371 . S
C519 H522 0.931 . S
C520 C516 1.391 . S
C520 C519 1.371 . S
C520 H527 0.930 . S
H521 C518 0.928 . S
H522 C519 0.931 . S
H523 C499 0.930 . S
H524 C496 0.930 . S
H525 C505 0.930 . S
H526 C517 0.929 . S
H527 C520 0.930 . S
C528 C529 1.351 . S
C528 N531 1.368 . S
C528 H533 0.931 . S
C529 C528 1.351 . S
C529 N530 1.373 . S
C529 H557 0.930 . S
N530 C529 1.373 . S
N530 C532 1.340 . S
N531 C528 1.368 . S
N531 C532 1.321 . S
N531 Co534 2.135 . S
C532 N530 1.340 . S
C532 N531 1.321 . S
C532 H556 0.930 . S
H533 C528 0.931 . S
Co534 N531 2.135 . S
Co534 N537 2.121 1_455 S
Co534 O542 2.055 1_455 S
Co534 O545 2.039 . S
Co534 N548 2.140 . S
C535 O536 1.227 . S
C535 O545 1.265 . S
O536 C535 1.227 . S
N537 Co534 2.121 1_655 S
N537 C539 1.375 . S
N537 C540 1.313 . S
C538 C539 1.338 . S
C538 N541 1.377 . S
C538 H558 0.930 . S
C539 N537 1.375 . S
C539 C538 1.338 . S
C539 H543 0.931 1_655 S
C540 N537 1.313 . S
C540 N541 1.344 . S
C540 H544 0.930 . S
N541 C538 1.377 . S
N541 C540 1.344 . S
O542 Co534 2.055 1_655 S
O542 C546 1.253 . S
H543 C539 0.931 1_455 S
H544 C540 0.930 . S
O545 Co534 2.039 . S
O545 C535 1.265 . S
C546 O542 1.253 . S
C546 O547 1.227 . S
O547 C546 1.227 . S
N548 Co534 2.140 . S
N548 C551 1.346 . S
N548 C552 1.345 1_455 S
C549 C550 1.387 . S
C549 C553 1.391 1_455 S
C550 C549 1.387 . S
C550 C551 1.369 . S
C550 H559 0.929 . S
C551 N548 1.346 . S
C551 C550 1.369 . S
C551 H554 0.928 . S
C552 N548 1.345 1_655 S
C552 C553 1.371 . S
C552 H555 0.931 . S
C553 C549 1.391 1_655 S
C553 C552 1.371 . S
C553 H560 0.930 . S
H554 C551 0.928 . S
H555 C552 0.931 . S
H556 C532 0.930 . S
H557 C529 0.930 . S
H558 C538 0.930 . S
H559 C550 0.929 . S
H560 C553 0.930 . S
C561 C562 1.351 . S
C561 N564 1.368 . S
C561 H566 0.931 . S
C562 C561 1.351 . S
C562 N563 1.373 . S
C562 H590 0.930 . S
N563 C562 1.373 . S
N563 C565 1.340 . S
N564 C561 1.368 . S
N564 C565 1.321 . S
N564 Co567 2.135 . S
C565 N563 1.340 . S
C565 N564 1.321 . S
C565 H589 0.930 . S
H566 C561 0.931 . S
Co567 N564 2.135 . S
Co567 N570 2.121 . S
Co567 O575 2.055 . S
Co567 O578 2.039 . S
Co567 N581 2.140 . S
C568 O569 1.227 . S
C568 O578 1.265 . S
O569 C568 1.227 . S
N570 Co567 2.121 . S
N570 C572 1.375 . S
N570 C573 1.313 . S
C571 C572 1.338 . S
C571 N574 1.377 . S
C571 H591 0.930 . S
C572 N570 1.375 . S
C572 C571 1.338 . S
C572 H576 0.931 . S
C573 N570 1.313 . S
C573 N574 1.344 . S
C573 H577 0.930 . S
N574 C571 1.377 . S
N574 C573 1.344 . S
O575 Co567 2.055 . S
O575 C579 1.253 . S
H576 C572 0.931 . S
H577 C573 0.930 . S
O578 Co567 2.039 . S
O578 C568 1.265 . S
C579 O575 1.253 . S
C579 O580 1.227 . S
O580 C579 1.227 . S
N581 Co567 2.140 . S
N581 C584 1.346 . S
N581 C585 1.345 . S
C582 C583 1.387 . S
C582 C586 1.391 . S
C583 C582 1.387 . S
C583 C584 1.369 . S
C583 H592 0.929 . S
C584 N581 1.346 . S
C584 C583 1.369 . S
C584 H587 0.928 . S
C585 N581 1.345 . S
C585 C586 1.371 . S
C585 H588 0.931 . S
C586 C582 1.391 . S
C586 C585 1.371 . S
C586 H593 0.930 . S
H587 C584 0.928 . S
H588 C585 0.931 . S
H589 C565 0.930 . S
H590 C562 0.930 . S
H591 C571 0.930 . S
H592 C583 0.929 . S
H593 C586 0.930 . S
C594 C595 1.351 . S
C594 N597 1.368 . S
C594 H599 0.931 1_655 S
C595 C594 1.351 . S
C595 N596 1.373 . S
C595 H623 0.930 . S
N596 C595 1.373 . S
N596 C598 1.340 . S
N597 C594 1.368 . S
N597 C598 1.321 . S
N597 Co600 2.135 1_655 S
C598 N596 1.340 . S
C598 N597 1.321 . S
C598 H622 0.930 . S
H599 C594 0.931 1_455 S
Co600 N597 2.135 1_455 S
Co600 N603 2.121 . S
Co600 O608 2.055 . S
Co600 O611 2.039 1_455 S
Co600 N614 2.140 . S
C601 O602 1.227 . S
C601 O611 1.265 . S
O602 C601 1.227 . S
N603 Co600 2.121 . S
N603 C605 1.375 . S
N603 C606 1.313 . S
C604 C605 1.338 . S
C604 N607 1.377 . S
C604 H624 0.930 . S
C605 N603 1.375 . S
C605 C604 1.338 . S
C605 H609 0.931 . S
C606 N603 1.313 . S
C606 N607 1.344 . S
C606 H610 0.930 . S
N607 C604 1.377 . S
N607 C606 1.344 . S
O608 Co600 2.055 . S
O608 C612 1.253 . S
H609 C605 0.931 . S
H610 C606 0.930 . S
O611 Co600 2.039 1_655 S
O611 C601 1.265 . S
C612 O608 1.253 . S
C612 O613 1.227 . S
O613 C612 1.227 . S
N614 Co600 2.140 . S
N614 C617 1.346 1_455 S
N614 C618 1.345 . S
C615 C616 1.387 1_455 S
C615 C619 1.391 . S
C616 C615 1.387 1_655 S
C616 C617 1.369 . S
C616 H625 0.929 . S
C617 N614 1.346 1_655 S
C617 C616 1.369 . S
C617 H620 0.928 . S
C618 N614 1.345 . S
C618 C619 1.371 . S
C618 H621 0.931 . S
C619 C615 1.391 . S
C619 C618 1.371 . S
C619 H626 0.930 . S
H620 C617 0.928 . S
H621 C618 0.931 . S
H622 C598 0.930 . S
H623 C595 0.930 . S
H624 C604 0.930 . S
H625 C616 0.929 . S
H626 C619 0.930 . S
C627 C628 1.351 . S
C627 N630 1.368 . S
C627 H632 0.931 . S
C628 C627 1.351 . S
C628 N629 1.373 . S
C628 H656 0.930 . S
N629 C628 1.373 . S
N629 C631 1.340 . S
N630 C627 1.368 . S
N630 C631 1.321 . S
N630 Co633 2.135 . S
C631 N629 1.340 . S
C631 N630 1.321 . S
C631 H655 0.930 . S
H632 C627 0.931 . S
Co633 N630 2.135 . S
Co633 N636 2.121 . S
Co633 O641 2.055 . S
Co633 O644 2.039 . S
Co633 N647 2.140 . S
C634 O635 1.227 . S
C634 O644 1.265 . S
O635 C634 1.227 . S
N636 Co633 2.121 . S
N636 C638 1.375 . S
N636 C639 1.313 . S
C637 C638 1.338 . S
C637 N640 1.377 . S
C637 H657 0.930 . S
C638 N636 1.375 . S
C638 C637 1.338 . S
C638 H642 0.931 . S
C639 N636 1.313 . S
C639 N640 1.344 . S
C639 H643 0.930 . S
N640 C637 1.377 . S
N640 C639 1.344 . S
O641 Co633 2.055 . S
O641 C645 1.253 . S
H642 C638 0.931 . S
H643 C639 0.930 . S
O644 Co633 2.039 . S
O644 C634 1.265 . S
C645 O641 1.253 . S
C645 O646 1.227 . S
O646 C645 1.227 . S
N647 Co633 2.140 . S
N647 C650 1.346 . S
N647 C651 1.345 . S
C648 C649 1.387 . S
C648 C652 1.391 . S
C649 C648 1.387 . S
C649 C650 1.369 . S
C649 H658 0.929 . S
C650 N647 1.346 . S
C650 C649 1.369 . S
C650 H653 0.928 . S
C651 N647 1.345 . S
C651 C652 1.371 . S
C651 H654 0.931 . S
C652 C648 1.391 . S
C652 C651 1.371 . S
C652 H659 0.930 . S
H653 C650 0.928 . S
H654 C651 0.931 . S
H655 C631 0.930 . S
H656 C628 0.930 . S
H657 C637 0.930 . S
H658 C649 0.929 . S
H659 C652 0.930 . S
C660 C661 1.351 . S
C660 N663 1.368 . S
C660 H665 0.931 . S
C661 C660 1.351 . S
C661 N662 1.373 . S
C661 H689 0.930 . S
N662 C661 1.373 . S
N662 C664 1.340 . S
N663 C660 1.368 . S
N663 C664 1.321 . S
N663 Co666 2.135 . S
C664 N662 1.340 . S
C664 N663 1.321 . S
C664 H688 0.930 . S
H665 C660 0.931 . S
Co666 N663 2.135 . S
Co666 N669 2.121 . S
Co666 O674 2.055 . S
Co666 O677 2.039 . S
Co666 N680 2.140 . S
C667 O668 1.227 . S
C667 O677 1.265 . S
O668 C667 1.227 . S
N669 Co666 2.121 . S
N669 C671 1.375 . S
N669 C672 1.313 . S
C670 C671 1.338 . S
C670 N673 1.377 . S
C670 H690 0.930 . S
C671 N669 1.375 . S
C671 C670 1.338 . S
C671 H675 0.931 . S
C672 N669 1.313 . S
C672 N673 1.344 . S
C672 H676 0.930 . S
N673 C670 1.377 . S
N673 C672 1.344 . S
O674 Co666 2.055 . S
O674 C678 1.253 . S
H675 C671 0.931 . S
H676 C672 0.930 . S
O677 Co666 2.039 . S
O677 C667 1.265 . S
C678 O674 1.253 . S
C678 O679 1.227 . S
O679 C678 1.227 . S
N680 Co666 2.140 . S
N680 C683 1.346 . S
N680 C684 1.345 . S
C681 C682 1.387 . S
C681 C685 1.391 . S
C682 C681 1.387 . S
C682 C683 1.369 . S
C682 H691 0.929 . S
C683 N680 1.346 . S
C683 C682 1.369 . S
C683 H686 0.928 . S
C684 N680 1.345 . S
C684 C685 1.371 . S
C684 H687 0.931 . S
C685 C681 1.391 . S
C685 C684 1.371 . S
C685 H692 0.930 . S
H686 C683 0.928 . S
H687 C684 0.931 . S
H688 C664 0.930 . S
H689 C661 0.930 . S
H690 C670 0.930 . S
H691 C682 0.929 . S
H692 C685 0.930 . S
C693 C694 1.351 . S
C693 N696 1.368 . S
C693 H698 0.931 . S
C694 C693 1.351 . S
C694 N695 1.373 . S
C694 H722 0.930 . S
N695 C694 1.373 . S
N695 C697 1.340 . S
N696 C693 1.368 . S
N696 C697 1.321 . S
N696 Co699 2.135 . S
C697 N695 1.340 . S
C697 N696 1.321 . S
C697 H721 0.930 . S
H698 C693 0.931 . S
Co699 N696 2.135 . S
Co699 N702 2.121 . S
Co699 O707 2.055 . S
Co699 O710 2.039 . S
Co699 N713 2.140 . S
C700 O701 1.227 . S
C700 O710 1.265 . S
O701 C700 1.227 . S
N702 Co699 2.121 . S
N702 C704 1.375 . S
N702 C705 1.313 . S
C703 C704 1.338 . S
C703 N706 1.377 . S
C703 H723 0.930 . S
C704 N702 1.375 . S
C704 C703 1.338 . S
C704 H708 0.931 . S
C705 N702 1.313 . S
C705 N706 1.344 . S
C705 H709 0.930 . S
N706 C703 1.377 . S
N706 C705 1.344 . S
O707 Co699 2.055 . S
O707 C711 1.253 . S
H708 C704 0.931 . S
H709 C705 0.930 . S
O710 Co699 2.039 . S
O710 C700 1.265 . S
C711 O707 1.253 . S
C711 O712 1.227 . S
O712 C711 1.227 . S
N713 Co699 2.140 . S
N713 C716 1.346 . S
N713 C717 1.345 . S
C714 C715 1.387 . S
C714 C718 1.391 . S
C715 C714 1.387 . S
C715 C716 1.369 . S
C715 H724 0.929 . S
C716 N713 1.346 . S
C716 C715 1.369 . S
C716 H719 0.928 . S
C717 N713 1.345 . S
C717 C718 1.371 . S
C717 H720 0.931 . S
C718 C714 1.391 . S
C718 C717 1.371 . S
C718 H725 0.930 . S
H719 C716 0.928 . S
H720 C717 0.931 . S
H721 C697 0.930 . S
H722 C694 0.930 . S
H723 C703 0.930 . S
H724 C715 0.929 . S
H725 C718 0.930 . S
C726 C727 1.351 . S
C726 N729 1.368 . S
C726 H731 0.931 . S
C727 C726 1.351 . S
C727 N728 1.373 . S
C727 H755 0.930 . S
N728 C727 1.373 . S
N728 C730 1.340 . S
N729 C726 1.368 . S
N729 C730 1.321 . S
N729 Co732 2.135 . S
C730 N728 1.340 . S
C730 N729 1.321 . S
C730 H754 0.930 . S
H731 C726 0.931 . S
Co732 N729 2.135 . S
Co732 N735 2.121 . S
Co732 O740 2.055 . S
Co732 O743 2.039 . S
Co732 N746 2.140 . S
C733 O734 1.227 . S
C733 O743 1.265 . S
O734 C733 1.227 . S
N735 Co732 2.121 . S
N735 C737 1.375 . S
N735 C738 1.313 . S
C736 C737 1.338 . S
C736 N739 1.377 . S
C736 H756 0.930 . S
C737 N735 1.375 . S
C737 C736 1.338 . S
C737 H741 0.931 . S
C738 N735 1.313 . S
C738 N739 1.344 . S
C738 H742 0.930 . S
N739 C736 1.377 . S
N739 C738 1.344 . S
O740 Co732 2.055 . S
O740 C744 1.253 . S
H741 C737 0.931 . S
H742 C738 0.930 . S
O743 Co732 2.039 . S
O743 C733 1.265 . S
C744 O740 1.253 . S
C744 O745 1.227 . S
O745 C744 1.227 . S
N746 Co732 2.140 . S
N746 C749 1.346 . S
N746 C750 1.345 . S
C747 C748 1.387 . S
C747 C751 1.391 . S
C748 C747 1.387 . S
C748 C749 1.369 . S
C748 H757 0.929 . S
C749 N746 1.346 . S
C749 C748 1.369 . S
C749 H752 0.928 . S
C750 N746 1.345 . S
C750 C751 1.371 . S
C750 H753 0.931 . S
C751 C747 1.391 . S
C751 C750 1.371 . S
C751 H758 0.930 . S
H752 C749 0.928 . S
H753 C750 0.931 . S
H754 C730 0.930 . S
H755 C727 0.930 . S
H756 C736 0.930 . S
H757 C748 0.929 . S
H758 C751 0.930 . S
C759 C760 1.351 . S
C759 N762 1.368 . S
C759 H764 0.931 . S
C760 C759 1.351 . S
C760 N761 1.373 . S
C760 H788 0.930 . S
N761 C760 1.373 . S
N761 C763 1.340 . S
N762 C759 1.368 . S
N762 C763 1.321 . S
N762 Co765 2.135 . S
C763 N761 1.340 . S
C763 N762 1.321 . S
C763 H787 0.930 . S
H764 C759 0.931 . S
Co765 N762 2.135 . S
Co765 N768 2.121 . S
Co765 O773 2.055 . S
Co765 O776 2.039 . S
Co765 N779 2.140 . S
C766 O767 1.227 . S
C766 O776 1.265 . S
O767 C766 1.227 . S
N768 Co765 2.121 . S
N768 C770 1.375 . S
N768 C771 1.313 . S
C769 C770 1.338 . S
C769 N772 1.377 . S
C769 H789 0.930 . S
C770 N768 1.375 . S
C770 C769 1.338 . S
C770 H774 0.931 . S
C771 N768 1.313 . S
C771 N772 1.344 . S
C771 H775 0.930 . S
N772 C769 1.377 . S
N772 C771 1.344 . S
O773 Co765 2.055 . S
O773 C777 1.253 . S
H774 C770 0.931 . S
H775 C771 0.930 . S
O776 Co765 2.039 . S
O776 C766 1.265 . S
C777 O773 1.253 . S
C777 O778 1.227 . S
O778 C777 1.227 . S
N779 Co765 2.140 . S
N779 C782 1.346 . S
N779 C783 1.345 . S
C780 C781 1.387 . S
C780 C784 1.391 . S
C781 C780 1.387 . S
C781 C782 1.369 . S
C781 H790 0.929 . S
C782 N779 1.346 . S
C782 C781 1.369 . S
C782 H785 0.928 . S
C783 N779 1.345 . S
C783 C784 1.371 . S
C783 H786 0.931 . S
C784 C780 1.391 . S
C784 C783 1.371 . S
C784 H791 0.930 . S
H785 C782 0.928 . S
H786 C783 0.931 . S
H787 C763 0.930 . S
H788 C760 0.930 . S
H789 C769 0.930 . S
H790 C781 0.929 . S
H791 C784 0.930 . S
C792 C793 1.351 . S
C792 N795 1.368 . S
C792 H797 0.931 . S
C793 C792 1.351 . S
C793 N794 1.373 . S
C793 H821 0.930 . S
N794 C793 1.373 . S
N794 C796 1.340 . S
N795 C792 1.368 . S
N795 C796 1.321 . S
N795 Co798 2.135 . S
C796 N794 1.340 . S
C796 N795 1.321 . S
C796 H820 0.930 . S
H797 C792 0.931 . S
Co798 N795 2.135 . S
Co798 N801 2.121 . S
Co798 O806 2.055 . S
Co798 O809 2.039 . S
Co798 N812 2.140 . S
C799 O800 1.227 . S
C799 O809 1.265 . S
O800 C799 1.227 . S
N801 Co798 2.121 . S
N801 C803 1.375 . S
N801 C804 1.313 . S
C802 C803 1.338 . S
C802 N805 1.377 . S
C802 H822 0.930 . S
C803 N801 1.375 . S
C803 C802 1.338 . S
C803 H807 0.931 . S
C804 N801 1.313 . S
C804 N805 1.344 . S
C804 H808 0.930 . S
N805 C802 1.377 . S
N805 C804 1.344 . S
O806 Co798 2.055 . S
O806 C810 1.253 . S
H807 C803 0.931 . S
H808 C804 0.930 . S
O809 Co798 2.039 . S
O809 C799 1.265 . S
C810 O806 1.253 . S
C810 O811 1.227 . S
O811 C810 1.227 . S
N812 Co798 2.140 . S
N812 C815 1.346 . S
N812 C816 1.345 . S
C813 C814 1.387 . S
C813 C817 1.391 . S
C814 C813 1.387 . S
C814 C815 1.369 . S
C814 H823 0.929 . S
C815 N812 1.346 . S
C815 C814 1.369 . S
C815 H818 0.928 . S
C816 N812 1.345 . S
C816 C817 1.371 . S
C816 H819 0.931 . S
C817 C813 1.391 . S
C817 C816 1.371 . S
C817 H824 0.930 . S
H818 C815 0.928 . S
H819 C816 0.931 . S
H820 C796 0.930 . S
H821 C793 0.930 . S
H822 C802 0.930 . S
H823 C814 0.929 . S
H824 C817 0.930 . S
C825 C826 1.351 . S
C825 N828 1.368 . S
C825 H830 0.931 . S
C826 C825 1.351 . S
C826 N827 1.373 . S
C826 H854 0.930 . S
N827 C826 1.373 . S
N827 C829 1.340 . S
N828 C825 1.368 . S
N828 C829 1.321 . S
N828 Co831 2.135 . S
C829 N827 1.340 . S
C829 N828 1.321 . S
C829 H853 0.930 . S
H830 C825 0.931 . S
Co831 N828 2.135 . S
Co831 N834 2.121 1_545 S
Co831 O839 2.055 1_545 S
Co831 O842 2.039 . S
Co831 N845 2.140 . S
C832 O833 1.227 . S
C832 O842 1.265 . S
O833 C832 1.227 . S
N834 Co831 2.121 1_565 S
N834 C836 1.375 . S
N834 C837 1.313 . S
C835 C836 1.338 . S
C835 N838 1.377 . S
C835 H855 0.930 . S
C836 N834 1.375 . S
C836 C835 1.338 . S
C836 H840 0.931 1_565 S
C837 N834 1.313 . S
C837 N838 1.344 . S
C837 H841 0.930 . S
N838 C835 1.377 . S
N838 C837 1.344 . S
O839 Co831 2.055 1_565 S
O839 C843 1.253 . S
H840 C836 0.931 1_545 S
H841 C837 0.930 . S
O842 Co831 2.039 . S
O842 C832 1.265 . S
C843 O839 1.253 . S
C843 O844 1.227 . S
O844 C843 1.227 . S
N845 Co831 2.140 . S
N845 C848 1.346 . S
N845 C849 1.345 1_545 S
C846 C847 1.387 . S
C846 C850 1.391 1_545 S
C847 C846 1.387 . S
C847 C848 1.369 . S
C847 H856 0.929 . S
C848 N845 1.346 . S
C848 C847 1.369 . S
C848 H851 0.928 . S
C849 N845 1.345 1_565 S
C849 C850 1.371 . S
C849 H852 0.931 . S
C850 C846 1.391 1_565 S
C850 C849 1.371 . S
C850 H857 0.930 . S
H851 C848 0.928 . S
H852 C849 0.931 . S
H853 C829 0.930 . S
H854 C826 0.930 . S
H855 C835 0.930 . S
H856 C847 0.929 . S
H857 C850 0.930 . S
C858 C859 1.351 . S
C858 N861 1.368 . S
C858 H863 0.931 . S
C859 C858 1.351 . S
C859 N860 1.373 . S
C859 H887 0.930 . S
N860 C859 1.373 . S
N860 C862 1.340 . S
N861 C858 1.368 . S
N861 C862 1.321 . S
N861 Co864 2.135 . S
C862 N860 1.340 . S
C862 N861 1.321 . S
C862 H886 0.930 . S
H863 C858 0.931 . S
Co864 N861 2.135 . S
Co864 N867 2.121 . S
Co864 O872 2.055 . S
Co864 O875 2.039 . S
Co864 N878 2.140 . S
C865 O866 1.227 . S
C865 O875 1.265 . S
O866 C865 1.227 . S
N867 Co864 2.121 . S
N867 C869 1.375 . S
N867 C870 1.313 . S
C868 C869 1.338 . S
C868 N871 1.377 . S
C868 H888 0.930 . S
C869 N867 1.375 . S
C869 C868 1.338 . S
C869 H873 0.931 . S
C870 N867 1.313 . S
C870 N871 1.344 . S
C870 H874 0.930 . S
N871 C868 1.377 . S
N871 C870 1.344 . S
O872 Co864 2.055 . S
O872 C876 1.253 . S
H873 C869 0.931 . S
H874 C870 0.930 . S
O875 Co864 2.039 . S
O875 C865 1.265 . S
C876 O872 1.253 . S
C876 O877 1.227 . S
O877 C876 1.227 . S
N878 Co864 2.140 . S
N878 C881 1.346 . S
N878 C882 1.345 . S
C879 C880 1.387 . S
C879 C883 1.391 . S
C880 C879 1.387 . S
C880 C881 1.369 . S
C880 H889 0.929 . S
C881 N878 1.346 . S
C881 C880 1.369 . S
C881 H884 0.928 . S
C882 N878 1.345 . S
C882 C883 1.371 . S
C882 H885 0.931 . S
C883 C879 1.391 . S
C883 C882 1.371 . S
C883 H890 0.930 . S
H884 C881 0.928 . S
H885 C882 0.931 . S
H886 C862 0.930 . S
H887 C859 0.930 . S
H888 C868 0.930 . S
H889 C880 0.929 . S
H890 C883 0.930 . S
C891 C892 1.351 . S
C891 N894 1.368 . S
C891 H896 0.931 1_565 S
C892 C891 1.351 . S
C892 N893 1.373 . S
C892 H920 0.930 . S
N893 C892 1.373 . S
N893 C895 1.340 . S
N894 C891 1.368 . S
N894 C895 1.321 . S
N894 Co897 2.135 1_565 S
C895 N893 1.340 . S
C895 N894 1.321 . S
C895 H919 0.930 . S
H896 C891 0.931 1_545 S
Co897 N894 2.135 1_545 S
Co897 N900 2.121 . S
Co897 O905 2.055 . S
Co897 O908 2.039 1_545 S
Co897 N911 2.140 . S
C898 O899 1.227 . S
C898 O908 1.265 . S
O899 C898 1.227 . S
N900 Co897 2.121 . S
N900 C902 1.375 . S
N900 C903 1.313 . S
C901 C902 1.338 . S
C901 N904 1.377 . S
C901 H921 0.930 . S
C902 N900 1.375 . S
C902 C901 1.338 . S
C902 H906 0.931 . S
C903 N900 1.313 . S
C903 N904 1.344 . S
C903 H907 0.930 . S
N904 C901 1.377 . S
N904 C903 1.344 . S
O905 Co897 2.055 . S
O905 C909 1.253 . S
H906 C902 0.931 . S
H907 C903 0.930 . S
O908 Co897 2.039 1_565 S
O908 C898 1.265 . S
C909 O905 1.253 . S
C909 O910 1.227 . S
O910 C909 1.227 . S
N911 Co897 2.140 . S
N911 C914 1.346 1_545 S
N911 C915 1.345 . S
C912 C913 1.387 1_545 S
C912 C916 1.391 . S
C913 C912 1.387 1_565 S
C913 C914 1.369 . S
C913 H922 0.929 . S
C914 N911 1.346 1_565 S
C914 C913 1.369 . S
C914 H917 0.928 . S
C915 N911 1.345 . S
C915 C916 1.371 . S
C915 H918 0.931 . S
C916 C912 1.391 . S
C916 C915 1.371 . S
C916 H923 0.930 . S
H917 C914 0.928 . S
H918 C915 0.931 . S
H919 C895 0.930 . S
H920 C892 0.930 . S
H921 C901 0.930 . S
H922 C913 0.929 . S
H923 C916 0.930 . S
C924 C925 1.351 . S
C924 N927 1.368 . S
C924 H929 0.931 . S
C925 C924 1.351 . S
C925 N926 1.373 . S
C925 H953 0.930 . S
N926 C925 1.373 . S
N926 C928 1.340 . S
N927 C924 1.368 . S
N927 C928 1.321 . S
N927 Co930 2.135 . S
C928 N926 1.340 . S
C928 N927 1.321 . S
C928 H952 0.930 . S
H929 C924 0.931 . S
Co930 N927 2.135 . S
Co930 N933 2.121 . S
Co930 O938 2.055 . S
Co930 O941 2.039 . S
Co930 N944 2.140 . S
C931 O932 1.227 . S
C931 O941 1.265 . S
O932 C931 1.227 . S
N933 Co930 2.121 . S
N933 C935 1.375 . S
N933 C936 1.313 . S
C934 C935 1.338 . S
C934 N937 1.377 . S
C934 H954 0.930 . S
C935 N933 1.375 . S
C935 C934 1.338 . S
C935 H939 0.931 . S
C936 N933 1.313 . S
C936 N937 1.344 . S
C936 H940 0.930 . S
N937 C934 1.377 . S
N937 C936 1.344 . S
O938 Co930 2.055 . S
O938 C942 1.253 . S
H939 C935 0.931 . S
H940 C936 0.930 . S
O941 Co930 2.039 . S
O941 C931 1.265 . S
C942 O938 1.253 . S
C942 O943 1.227 . S
O943 C942 1.227 . S
N944 Co930 2.140 . S
N944 C947 1.346 . S
N944 C948 1.345 . S
C945 C946 1.387 . S
C945 C949 1.391 . S
C946 C945 1.387 . S
C946 C947 1.369 . S
C946 H955 0.929 . S
C947 N944 1.346 . S
C947 C946 1.369 . S
C947 H950 0.928 . S
C948 N944 1.345 . S
C948 C949 1.371 . S
C948 H951 0.931 . S
C949 C945 1.391 . S
C949 C948 1.371 . S
C949 H956 0.930 . S
H950 C947 0.928 . S
H951 C948 0.931 . S
H952 C928 0.930 . S
H953 C925 0.930 . S
H954 C934 0.930 . S
H955 C946 0.929 . S
H956 C949 0.930 . S
C957 C958 1.351 . S
C957 N960 1.368 . S
C957 H962 0.931 1_565 S
C958 C957 1.351 . S
C958 N959 1.373 . S
C958 H986 0.930 . S
N959 C958 1.373 . S
N959 C961 1.340 . S
N960 C957 1.368 . S
N960 C961 1.321 . S
N960 Co963 2.135 1_565 S
C961 N959 1.340 . S
C961 N960 1.321 . S
C961 H985 0.930 . S
H962 C957 0.931 1_545 S
Co963 N960 2.135 1_545 S
Co963 N966 2.121 . S
Co963 O971 2.055 . S
Co963 O974 2.039 1_545 S
Co963 N977 2.140 . S
C964 O965 1.227 . S
C964 O974 1.265 . S
O965 C964 1.227 . S
N966 Co963 2.121 . S
N966 C968 1.375 . S
N966 C969 1.313 . S
C967 C968 1.338 . S
C967 N970 1.377 . S
C967 H987 0.930 . S
C968 N966 1.375 . S
C968 C967 1.338 . S
C968 H972 0.931 . S
C969 N966 1.313 . S
C969 N970 1.344 . S
C969 H973 0.930 . S
N970 C967 1.377 . S
N970 C969 1.344 . S
O971 Co963 2.055 . S
O971 C975 1.253 . S
H972 C968 0.931 . S
H973 C969 0.930 . S
O974 Co963 2.039 1_565 S
O974 C964 1.265 . S
C975 O971 1.253 . S
C975 O976 1.227 . S
O976 C975 1.227 . S
N977 Co963 2.140 . S
N977 C980 1.346 1_545 S
N977 C981 1.345 . S
C978 C979 1.387 1_545 S
C978 C982 1.391 . S
C979 C978 1.387 1_565 S
C979 C980 1.369 . S
C979 H988 0.929 . S
C980 N977 1.346 1_565 S
C980 C979 1.369 . S
C980 H983 0.928 . S
C981 N977 1.345 . S
C981 C982 1.371 . S
C981 H984 0.931 . S
C982 C978 1.391 . S
C982 C981 1.371 . S
C982 H989 0.930 . S
H983 C980 0.928 . S
H984 C981 0.931 . S
H985 C961 0.930 . S
H986 C958 0.930 . S
H987 C967 0.930 . S
H988 C979 0.929 . S
H989 C982 0.930 . S
C990 C991 1.351 . S
C990 N993 1.368 . S
C990 H995 0.931 . S
C991 C990 1.351 . S
C991 N992 1.373 . S
C991 H1019 0.930 . S
N992 C991 1.373 . S
N992 C994 1.340 . S
N993 C990 1.368 . S
N993 C994 1.321 . S
N993 Co996 2.135 . S
C994 N992 1.340 . S
C994 N993 1.321 . S
C994 H1018 0.930 . S
H995 C990 0.931 . S
Co996 N993 2.135 . S
Co996 N999 2.121 . S
Co996 O1004 2.055 . S
Co996 O1007 2.039 . S
Co996 N1010 2.140 . S
C997 O998 1.227 . S
C997 O1007 1.265 . S
O998 C997 1.227 . S
N999 Co996 2.121 . S
N999 C1001 1.375 . S
N999 C1002 1.313 . S
C1000 C1001 1.338 . S
C1000 N1003 1.377 . S
C1000 H1020 0.930 . S
C1001 N999 1.375 . S
C1001 C1000 1.338 . S
C1001 H1005 0.931 . S
C1002 N999 1.313 . S
C1002 N1003 1.344 . S
C1002 H1006 0.930 . S
N1003 C1000 1.377 . S
N1003 C1002 1.344 . S
O1004 Co996 2.055 . S
O1004 C1008 1.253 . S
H1005 C1001 0.931 . S
H1006 C1002 0.930 . S
O1007 Co996 2.039 . S
O1007 C997 1.265 . S
C1008 O1004 1.253 . S
C1008 O1009 1.227 . S
O1009 C1008 1.227 . S
N1010 Co996 2.140 . S
N1010 C1013 1.346 . S
N1010 C1014 1.345 . S
C1011 C1012 1.387 . S
C1011 C1015 1.391 . S
C1012 C1011 1.387 . S
C1012 C1013 1.369 . S
C1012 H1021 0.929 . S
C1013 N1010 1.346 . S
C1013 C1012 1.369 . S
C1013 H1016 0.928 . S
C1014 N1010 1.345 . S
C1014 C1015 1.371 . S
C1014 H1017 0.931 . S
C1015 C1011 1.391 . S
C1015 C1014 1.371 . S
C1015 H1022 0.930 . S
H1016 C1013 0.928 . S
H1017 C1014 0.931 . S
H1018 C994 0.930 . S
H1019 C991 0.930 . S
H1020 C1000 0.930 . S
H1021 C1012 0.929 . S
H1022 C1015 0.930 . S
C1023 C1024 1.351 . S
C1023 N1026 1.368 . S
C1023 H1028 0.931 . S
C1024 C1023 1.351 . S
C1024 N1025 1.373 . S
C1024 H1052 0.930 . S
N1025 C1024 1.373 . S
N1025 C1027 1.340 . S
N1026 C1023 1.368 . S
N1026 C1027 1.321 . S
N1026 Co1029 2.135 . S
C1027 N1025 1.340 . S
C1027 N1026 1.321 . S
C1027 H1051 0.930 . S
H1028 C1023 0.931 . S
Co1029 N1026 2.135 . S
Co1029 N1032 2.121 1_545 S
Co1029 O1037 2.055 1_545 S
Co1029 O1040 2.039 . S
Co1029 N1043 2.140 . S
C1030 O1031 1.227 . S
C1030 O1040 1.265 . S
O1031 C1030 1.227 . S
N1032 Co1029 2.121 1_565 S
N1032 C1034 1.375 . S
N1032 C1035 1.313 . S
C1033 C1034 1.338 . S
C1033 N1036 1.377 . S
C1033 H1053 0.930 . S
C1034 N1032 1.375 . S
C1034 C1033 1.338 . S
C1034 H1038 0.931 1_565 S
C1035 N1032 1.313 . S
C1035 N1036 1.344 . S
C1035 H1039 0.930 . S
N1036 C1033 1.377 . S
N1036 C1035 1.344 . S
O1037 Co1029 2.055 1_565 S
O1037 C1041 1.253 . S
H1038 C1034 0.931 1_545 S
H1039 C1035 0.930 . S
O1040 Co1029 2.039 . S
O1040 C1030 1.265 . S
C1041 O1037 1.253 . S
C1041 O1042 1.227 . S
O1042 C1041 1.227 . S
N1043 Co1029 2.140 . S
N1043 C1046 1.346 . S
N1043 C1047 1.345 1_545 S
C1044 C1045 1.387 . S
C1044 C1048 1.391 1_545 S
C1045 C1044 1.387 . S
C1045 C1046 1.369 . S
C1045 H1054 0.929 . S
C1046 N1043 1.346 . S
C1046 C1045 1.369 . S
C1046 H1049 0.928 . S
C1047 N1043 1.345 1_565 S
C1047 C1048 1.371 . S
C1047 H1050 0.931 . S
C1048 C1044 1.391 1_565 S
C1048 C1047 1.371 . S
C1048 H1055 0.930 . S
H1049 C1046 0.928 . S
H1050 C1047 0.931 . S
H1051 C1027 0.930 . S
H1052 C1024 0.930 . S
H1053 C1033 0.930 . S
H1054 C1045 0.929 . S
H1055 C1048 0.930 . S
C1056 C1057 1.351 . S
C1056 N1059 1.368 . S
C1056 H1061 0.931 . S
C1057 C1056 1.351 . S
C1057 N1058 1.373 . S
C1057 H1085 0.930 . S
N1058 C1057 1.373 . S
N1058 C1060 1.340 . S
N1059 C1056 1.368 . S
N1059 C1060 1.321 . S
N1059 Co1062 2.135 . S
C1060 N1058 1.340 . S
C1060 N1059 1.321 . S
C1060 H1084 0.930 . S
H1061 C1056 0.931 . S
Co1062 N1059 2.135 . S
Co1062 N1065 2.121 . S
Co1062 O1070 2.055 . S
Co1062 O1073 2.039 . S
Co1062 N1076 2.140 . S
C1063 O1064 1.227 . S
C1063 O1073 1.265 . S
O1064 C1063 1.227 . S
N1065 Co1062 2.121 . S
N1065 C1067 1.375 . S
N1065 C1068 1.313 . S
C1066 C1067 1.338 . S
C1066 N1069 1.377 . S
C1066 H1086 0.930 . S
C1067 N1065 1.375 . S
C1067 C1066 1.338 . S
C1067 H1071 0.931 . S
C1068 N1065 1.313 . S
C1068 N1069 1.344 . S
C1068 H1072 0.930 . S
N1069 C1066 1.377 . S
N1069 C1068 1.344 . S
O1070 Co1062 2.055 . S
O1070 C1074 1.253 . S
H1071 C1067 0.931 . S
H1072 C1068 0.930 . S
O1073 Co1062 2.039 . S
O1073 C1063 1.265 . S
C1074 O1070 1.253 . S
C1074 O1075 1.227 . S
O1075 C1074 1.227 . S
N1076 Co1062 2.140 . S
N1076 C1079 1.346 . S
N1076 C1080 1.345 . S
C1077 C1078 1.387 . S
C1077 C1081 1.391 . S
C1078 C1077 1.387 . S
C1078 C1079 1.369 . S
C1078 H1087 0.929 . S
C1079 N1076 1.346 . S
C1079 C1078 1.369 . S
C1079 H1082 0.928 . S
C1080 N1076 1.345 . S
C1080 C1081 1.371 . S
C1080 H1083 0.931 . S
C1081 C1077 1.391 . S
C1081 C1080 1.371 . S
C1081 H1088 0.930 . S
H1082 C1079 0.928 . S
H1083 C1080 0.931 . S
H1084 C1060 0.930 . S
H1085 C1057 0.930 . S
H1086 C1066 0.930 . S
H1087 C1078 0.929 . S
H1088 C1081 0.930 . S
C1089 C1090 1.351 . S
C1089 N1092 1.368 . S
C1089 H1094 0.931 . S
C1090 C1089 1.351 . S
C1090 N1091 1.373 . S
C1090 H1118 0.930 . S
N1091 C1090 1.373 . S
N1091 C1093 1.340 . S
N1092 C1089 1.368 . S
N1092 C1093 1.321 . S
N1092 Co1095 2.135 . S
C1093 N1091 1.340 . S
C1093 N1092 1.321 . S
C1093 H1117 0.930 . S
H1094 C1089 0.931 . S
Co1095 N1092 2.135 . S
Co1095 N1098 2.121 . S
Co1095 O1103 2.055 . S
Co1095 O1106 2.039 . S
Co1095 N1109 2.140 . S
C1096 O1097 1.227 . S
C1096 O1106 1.265 . S
O1097 C1096 1.227 . S
N1098 Co1095 2.121 . S
N1098 C1100 1.375 . S
N1098 C1101 1.313 . S
C1099 C1100 1.338 . S
C1099 N1102 1.377 . S
C1099 H1119 0.930 . S
C1100 N1098 1.375 . S
C1100 C1099 1.338 . S
C1100 H1104 0.931 . S
C1101 N1098 1.313 . S
C1101 N1102 1.344 . S
C1101 H1105 0.930 . S
N1102 C1099 1.377 . S
N1102 C1101 1.344 . S
O1103 Co1095 2.055 . S
O1103 C1107 1.253 . S
H1104 C1100 0.931 . S
H1105 C1101 0.930 . S
O1106 Co1095 2.039 . S
O1106 C1096 1.265 . S
C1107 O1103 1.253 . S
C1107 O1108 1.227 . S
O1108 C1107 1.227 . S
N1109 Co1095 2.140 . S
N1109 C1112 1.346 . S
N1109 C1113 1.345 . S
C1110 C1111 1.387 . S
C1110 C1114 1.391 . S
C1111 C1110 1.387 . S
C1111 C1112 1.369 . S
C1111 H1120 0.929 . S
C1112 N1109 1.346 . S
C1112 C1111 1.369 . S
C1112 H1115 0.928 . S
C1113 N1109 1.345 . S
C1113 C1114 1.371 . S
C1113 H1116 0.931 . S
C1114 C1110 1.391 . S
C1114 C1113 1.371 . S
C1114 H1121 0.930 . S
H1115 C1112 0.928 . S
H1116 C1113 0.931 . S
H1117 C1093 0.930 . S
H1118 C1090 0.930 . S
H1119 C1099 0.930 . S
H1120 C1111 0.929 . S
H1121 C1114 0.930 . S
C1122 C1123 1.351 . S
C1122 N1125 1.368 . S
C1122 H1127 0.931 . S
C1123 C1122 1.351 . S
C1123 N1124 1.373 . S
C1123 H1151 0.930 . S
N1124 C1123 1.373 . S
N1124 C1126 1.340 . S
N1125 C1122 1.368 . S
N1125 C1126 1.321 . S
N1125 Co1128 2.135 . S
C1126 N1124 1.340 . S
C1126 N1125 1.321 . S
C1126 H1150 0.930 . S
H1127 C1122 0.931 . S
Co1128 N1125 2.135 . S
Co1128 N1131 2.121 . S
Co1128 O1136 2.055 . S
Co1128 O1139 2.039 . S
Co1128 N1142 2.140 . S
C1129 O1130 1.227 . S
C1129 O1139 1.265 . S
O1130 C1129 1.227 . S
N1131 Co1128 2.121 . S
N1131 C1133 1.375 . S
N1131 C1134 1.313 . S
C1132 C1133 1.338 . S
C1132 N1135 1.377 . S
C1132 H1152 0.930 . S
C1133 N1131 1.375 . S
C1133 C1132 1.338 . S
C1133 H1137 0.931 . S
C1134 N1131 1.313 . S
C1134 N1135 1.344 . S
C1134 H1138 0.930 . S
N1135 C1132 1.377 . S
N1135 C1134 1.344 . S
O1136 Co1128 2.055 . S
O1136 C1140 1.253 . S
H1137 C1133 0.931 . S
H1138 C1134 0.930 . S
O1139 Co1128 2.039 . S
O1139 C1129 1.265 . S
C1140 O1136 1.253 . S
C1140 O1141 1.227 . S
O1141 C1140 1.227 . S
N1142 Co1128 2.140 . S
N1142 C1145 1.346 . S
N1142 C1146 1.345 . S
C1143 C1144 1.387 . S
C1143 C1147 1.391 . S
C1144 C1143 1.387 . S
C1144 C1145 1.369 . S
C1144 H1153 0.929 . S
C1145 N1142 1.346 . S
C1145 C1144 1.369 . S
C1145 H1148 0.928 . S
C1146 N1142 1.345 . S
C1146 C1147 1.371 . S
C1146 H1149 0.931 . S
C1147 C1143 1.391 . S
C1147 C1146 1.371 . S
C1147 H1154 0.930 . S
H1148 C1145 0.928 . S
H1149 C1146 0.931 . S
H1150 C1126 0.930 . S
H1151 C1123 0.930 . S
H1152 C1132 0.930 . S
H1153 C1144 0.929 . S
H1154 C1147 0.930 . S
C1155 C1156 1.351 . S
C1155 N1158 1.368 . S
C1155 H1160 0.931 . S
C1156 C1155 1.351 . S
C1156 N1157 1.373 . S
C1156 H1184 0.930 . S
N1157 C1156 1.373 . S
N1157 C1159 1.340 . S
N1158 C1155 1.368 . S
N1158 C1159 1.321 . S
N1158 Co1161 2.135 . S
C1159 N1157 1.340 . S
C1159 N1158 1.321 . S
C1159 H1183 0.930 . S
H1160 C1155 0.931 . S
Co1161 N1158 2.135 . S
Co1161 N1164 2.121 . S
Co1161 O1169 2.055 . S
Co1161 O1172 2.039 . S
Co1161 N1175 2.140 . S
C1162 O1163 1.227 . S
C1162 O1172 1.265 . S
O1163 C1162 1.227 . S
N1164 Co1161 2.121 . S
N1164 C1166 1.375 . S
N1164 C1167 1.313 . S
C1165 C1166 1.338 . S
C1165 N1168 1.377 . S
C1165 H1185 0.930 . S
C1166 N1164 1.375 . S
C1166 C1165 1.338 . S
C1166 H1170 0.931 . S
C1167 N1164 1.313 . S
C1167 N1168 1.344 . S
C1167 H1171 0.930 . S
N1168 C1165 1.377 . S
N1168 C1167 1.344 . S
O1169 Co1161 2.055 . S
O1169 C1173 1.253 . S
H1170 C1166 0.931 . S
H1171 C1167 0.930 . S
O1172 Co1161 2.039 . S
O1172 C1162 1.265 . S
C1173 O1169 1.253 . S
C1173 O1174 1.227 . S
O1174 C1173 1.227 . S
N1175 Co1161 2.140 . S
N1175 C1178 1.346 . S
N1175 C1179 1.345 . S
C1176 C1177 1.387 . S
C1176 C1180 1.391 . S
C1177 C1176 1.387 . S
C1177 C1178 1.369 . S
C1177 H1186 0.929 . S
C1178 N1175 1.346 . S
C1178 C1177 1.369 . S
C1178 H1181 0.928 . S
C1179 N1175 1.345 . S
C1179 C1180 1.371 . S
C1179 H1182 0.931 . S
C1180 C1176 1.391 . S
C1180 C1179 1.371 . S
C1180 H1187 0.930 . S
H1181 C1178 0.928 . S
H1182 C1179 0.931 . S
H1183 C1159 0.930 . S
H1184 C1156 0.930 . S
H1185 C1165 0.930 . S
H1186 C1177 0.929 . S
H1187 C1180 0.930 . S
C1188 C1189 1.351 . S
C1188 N1191 1.368 . S
C1188 H1193 0.931 . S
C1189 C1188 1.351 . S
C1189 N1190 1.373 . S
C1189 H1217 0.930 . S
N1190 C1189 1.373 . S
N1190 C1192 1.340 . S
N1191 C1188 1.368 . S
N1191 C1192 1.321 . S
N1191 Co1194 2.135 . S
C1192 N1190 1.340 . S
C1192 N1191 1.321 . S
C1192 H1216 0.930 . S
H1193 C1188 0.931 . S
Co1194 N1191 2.135 . S
Co1194 N1197 2.121 . S
Co1194 O1202 2.055 . S
Co1194 O1205 2.039 . S
Co1194 N1208 2.140 . S
C1195 O1196 1.227 . S
C1195 O1205 1.265 . S
O1196 C1195 1.227 . S
N1197 Co1194 2.121 . S
N1197 C1199 1.375 . S
N1197 C1200 1.313 . S
C1198 C1199 1.338 . S
C1198 N1201 1.377 . S
C1198 H1218 0.930 . S
C1199 N1197 1.375 . S
C1199 C1198 1.338 . S
C1199 H1203 0.931 . S
C1200 N1197 1.313 . S
C1200 N1201 1.344 . S
C1200 H1204 0.930 . S
N1201 C1198 1.377 . S
N1201 C1200 1.344 . S
O1202 Co1194 2.055 . S
O1202 C1206 1.253 . S
H1203 C1199 0.931 . S
H1204 C1200 0.930 . S
O1205 Co1194 2.039 . S
O1205 C1195 1.265 . S
C1206 O1202 1.253 . S
C1206 O1207 1.227 . S
O1207 C1206 1.227 . S
N1208 Co1194 2.140 . S
N1208 C1211 1.346 . S
N1208 C1212 1.345 . S
C1209 C1210 1.387 . S
C1209 C1213 1.391 . S
C1210 C1209 1.387 . S
C1210 C1211 1.369 . S
C1210 H1219 0.929 . S
C1211 N1208 1.346 . S
C1211 C1210 1.369 . S
C1211 H1214 0.928 . S
C1212 N1208 1.345 . S
C1212 C1213 1.371 . S
C1212 H1215 0.931 . S
C1213 C1209 1.391 . S
C1213 C1212 1.371 . S
C1213 H1220 0.930 . S
H1214 C1211 0.928 . S
H1215 C1212 0.931 . S
H1216 C1192 0.930 . S
H1217 C1189 0.930 . S
H1218 C1198 0.930 . S
H1219 C1210 0.929 . S
H1220 C1213 0.930 . S
C1221 C1222 1.351 . S
C1221 N1224 1.368 . S
C1221 H1226 0.931 . S
C1222 C1221 1.351 . S
C1222 N1223 1.373 . S
C1222 H1250 0.930 . S
N1223 C1222 1.373 . S
N1223 C1225 1.340 . S
N1224 C1221 1.368 . S
N1224 C1225 1.321 . S
N1224 Co1227 2.135 . S
C1225 N1223 1.340 . S
C1225 N1224 1.321 . S
C1225 H1249 0.930 . S
H1226 C1221 0.931 . S
Co1227 N1224 2.135 . S
Co1227 N1230 2.121 . S
Co1227 O1235 2.055 . S
Co1227 O1238 2.039 . S
Co1227 N1241 2.140 . S
C1228 O1229 1.227 . S
C1228 O1238 1.265 . S
O1229 C1228 1.227 . S
N1230 Co1227 2.121 . S
N1230 C1232 1.375 . S
N1230 C1233 1.313 . S
C1231 C1232 1.338 . S
C1231 N1234 1.377 . S
C1231 H1251 0.930 . S
C1232 N1230 1.375 . S
C1232 C1231 1.338 . S
C1232 H1236 0.931 . S
C1233 N1230 1.313 . S
C1233 N1234 1.344 . S
C1233 H1237 0.930 . S
N1234 C1231 1.377 . S
N1234 C1233 1.344 . S
O1235 Co1227 2.055 . S
O1235 C1239 1.253 . S
H1236 C1232 0.931 . S
H1237 C1233 0.930 . S
O1238 Co1227 2.039 . S
O1238 C1228 1.265 . S
C1239 O1235 1.253 . S
C1239 O1240 1.227 . S
O1240 C1239 1.227 . S
N1241 Co1227 2.140 . S
N1241 C1244 1.346 . S
N1241 C1245 1.345 . S
C1242 C1243 1.387 . S
C1242 C1246 1.391 . S
C1243 C1242 1.387 . S
C1243 C1244 1.369 . S
C1243 H1252 0.929 . S
C1244 N1241 1.346 . S
C1244 C1243 1.369 . S
C1244 H1247 0.928 . S
C1245 N1241 1.345 . S
C1245 C1246 1.371 . S
C1245 H1248 0.931 . S
C1246 C1242 1.391 . S
C1246 C1245 1.371 . S
C1246 H1253 0.930 . S
H1247 C1244 0.928 . S
H1248 C1245 0.931 . S
H1249 C1225 0.930 . S
H1250 C1222 0.930 . S
H1251 C1231 0.930 . S
H1252 C1243 0.929 . S
H1253 C1246 0.930 . S
C1254 C1255 1.351 . S
C1254 N1257 1.368 . S
C1254 H1259 0.931 . S
C1255 C1254 1.351 . S
C1255 N1256 1.373 . S
C1255 H1283 0.930 . S
N1256 C1255 1.373 . S
N1256 C1258 1.340 . S
N1257 C1254 1.368 . S
N1257 C1258 1.321 . S
N1257 Co1260 2.135 . S
C1258 N1256 1.340 . S
C1258 N1257 1.321 . S
C1258 H1282 0.930 . S
H1259 C1254 0.931 . S
Co1260 N1257 2.135 . S
Co1260 N1263 2.121 . S
Co1260 O1268 2.055 . S
Co1260 O1271 2.039 . S
Co1260 N1274 2.140 . S
C1261 O1262 1.227 . S
C1261 O1271 1.265 . S
O1262 C1261 1.227 . S
N1263 Co1260 2.121 . S
N1263 C1265 1.375 . S
N1263 C1266 1.313 . S
C1264 C1265 1.338 . S
C1264 N1267 1.377 . S
C1264 H1284 0.930 . S
C1265 N1263 1.375 . S
C1265 C1264 1.338 . S
C1265 H1269 0.931 . S
C1266 N1263 1.313 . S
C1266 N1267 1.344 . S
C1266 H1270 0.930 . S
N1267 C1264 1.377 . S
N1267 C1266 1.344 . S
O1268 Co1260 2.055 . S
O1268 C1272 1.253 . S
H1269 C1265 0.931 . S
H1270 C1266 0.930 . S
O1271 Co1260 2.039 . S
O1271 C1261 1.265 . S
C1272 O1268 1.253 . S
C1272 O1273 1.227 . S
O1273 C1272 1.227 . S
N1274 Co1260 2.140 . S
N1274 C1277 1.346 . S
N1274 C1278 1.345 . S
C1275 C1276 1.387 . S
C1275 C1279 1.391 . S
C1276 C1275 1.387 . S
C1276 C1277 1.369 . S
C1276 H1285 0.929 . S
C1277 N1274 1.346 . S
C1277 C1276 1.369 . S
C1277 H1280 0.928 . S
C1278 N1274 1.345 . S
C1278 C1279 1.371 . S
C1278 H1281 0.931 . S
C1279 C1275 1.391 . S
C1279 C1278 1.371 . S
C1279 H1286 0.930 . S
H1280 C1277 0.928 . S
H1281 C1278 0.931 . S
H1282 C1258 0.930 . S
H1283 C1255 0.930 . S
H1284 C1264 0.930 . S
H1285 C1276 0.929 . S
H1286 C1279 0.930 . S
C1287 C1288 1.351 . S
C1287 N1290 1.368 . S
C1287 H1292 0.931 . S
C1288 C1287 1.351 . S
C1288 N1289 1.373 . S
C1288 H1316 0.930 . S
N1289 C1288 1.373 . S
N1289 C1291 1.340 . S
N1290 C1287 1.368 . S
N1290 C1291 1.321 . S
N1290 Co1293 2.135 . S
C1291 N1289 1.340 . S
C1291 N1290 1.321 . S
C1291 H1315 0.930 . S
H1292 C1287 0.931 . S
Co1293 N1290 2.135 . S
Co1293 N1296 2.121 . S
Co1293 O1301 2.055 . S
Co1293 O1304 2.039 . S
Co1293 N1307 2.140 . S
C1294 O1295 1.227 . S
C1294 O1304 1.265 . S
O1295 C1294 1.227 . S
N1296 Co1293 2.121 . S
N1296 C1298 1.375 . S
N1296 C1299 1.313 . S
C1297 C1298 1.338 . S
C1297 N1300 1.377 . S
C1297 H1317 0.930 . S
C1298 N1296 1.375 . S
C1298 C1297 1.338 . S
C1298 H1302 0.931 . S
C1299 N1296 1.313 . S
C1299 N1300 1.344 . S
C1299 H1303 0.930 . S
N1300 C1297 1.377 . S
N1300 C1299 1.344 . S
O1301 Co1293 2.055 . S
O1301 C1305 1.253 . S
H1302 C1298 0.931 . S
H1303 C1299 0.930 . S
O1304 Co1293 2.039 . S
O1304 C1294 1.265 . S
C1305 O1301 1.253 . S
C1305 O1306 1.227 . S
O1306 C1305 1.227 . S
N1307 Co1293 2.140 . S
N1307 C1310 1.346 . S
N1307 C1311 1.345 . S
C1308 C1309 1.387 . S
C1308 C1312 1.391 . S
C1309 C1308 1.387 . S
C1309 C1310 1.369 . S
C1309 H1318 0.929 . S
C1310 N1307 1.346 . S
C1310 C1309 1.369 . S
C1310 H1313 0.928 . S
C1311 N1307 1.345 . S
C1311 C1312 1.371 . S
C1311 H1314 0.931 . S
C1312 C1308 1.391 . S
C1312 C1311 1.371 . S
C1312 H1319 0.930 . S
H1313 C1310 0.928 . S
H1314 C1311 0.931 . S
H1315 C1291 0.930 . S
H1316 C1288 0.930 . S
H1317 C1297 0.930 . S
H1318 C1309 0.929 . S
H1319 C1312 0.930 . S
C1320 C1321 1.351 . S
C1320 N1323 1.368 . S
C1320 H1325 0.931 . S
C1321 C1320 1.351 . S
C1321 N1322 1.373 . S
C1321 H1349 0.930 . S
N1322 C1321 1.373 . S
N1322 C1324 1.340 . S
N1323 C1320 1.368 . S
N1323 C1324 1.321 . S
N1323 Co1326 2.135 . S
C1324 N1322 1.340 . S
C1324 N1323 1.321 . S
C1324 H1348 0.930 . S
H1325 C1320 0.931 . S
Co1326 N1323 2.135 . S
Co1326 N1329 2.121 . S
Co1326 O1334 2.055 . S
Co1326 O1337 2.039 . S
Co1326 N1340 2.140 . S
C1327 O1328 1.227 . S
C1327 O1337 1.265 . S
O1328 C1327 1.227 . S
N1329 Co1326 2.121 . S
N1329 C1331 1.375 . S
N1329 C1332 1.313 . S
C1330 C1331 1.338 . S
C1330 N1333 1.377 . S
C1330 H1350 0.930 . S
C1331 N1329 1.375 . S
C1331 C1330 1.338 . S
C1331 H1335 0.931 . S
C1332 N1329 1.313 . S
C1332 N1333 1.344 . S
C1332 H1336 0.930 . S
N1333 C1330 1.377 . S
N1333 C1332 1.344 . S
O1334 Co1326 2.055 . S
O1334 C1338 1.253 . S
H1335 C1331 0.931 . S
H1336 C1332 0.930 . S
O1337 Co1326 2.039 . S
O1337 C1327 1.265 . S
C1338 O1334 1.253 . S
C1338 O1339 1.227 . S
O1339 C1338 1.227 . S
N1340 Co1326 2.140 . S
N1340 C1343 1.346 . S
N1340 C1344 1.345 . S
C1341 C1342 1.387 . S
C1341 C1345 1.391 . S
C1342 C1341 1.387 . S
C1342 C1343 1.369 . S
C1342 H1351 0.929 . S
C1343 N1340 1.346 . S
C1343 C1342 1.369 . S
C1343 H1346 0.928 . S
C1344 N1340 1.345 . S
C1344 C1345 1.371 . S
C1344 H1347 0.931 . S
C1345 C1341 1.391 . S
C1345 C1344 1.371 . S
C1345 H1352 0.930 . S
H1346 C1343 0.928 . S
H1347 C1344 0.931 . S
H1348 C1324 0.930 . S
H1349 C1321 0.930 . S
H1350 C1330 0.930 . S
H1351 C1342 0.929 . S
H1352 C1345 0.930 . S
C1353 C1354 1.351 . S
C1353 N1356 1.368 . S
C1353 H1358 0.931 . S
C1354 C1353 1.351 . S
C1354 N1355 1.373 . S
C1354 H1382 0.930 . S
N1355 C1354 1.373 . S
N1355 C1357 1.340 . S
N1356 C1353 1.368 . S
N1356 C1357 1.321 . S
N1356 Co1359 2.135 . S
C1357 N1355 1.340 . S
C1357 N1356 1.321 . S
C1357 H1381 0.930 . S
H1358 C1353 0.931 . S
Co1359 N1356 2.135 . S
Co1359 N1362 2.121 . S
Co1359 O1367 2.055 . S
Co1359 O1370 2.039 . S
Co1359 N1373 2.140 . S
C1360 O1361 1.227 . S
C1360 O1370 1.265 . S
O1361 C1360 1.227 . S
N1362 Co1359 2.121 . S
N1362 C1364 1.375 . S
N1362 C1365 1.313 . S
C1363 C1364 1.338 . S
C1363 N1366 1.377 . S
C1363 H1383 0.930 . S
C1364 N1362 1.375 . S
C1364 C1363 1.338 . S
C1364 H1368 0.931 . S
C1365 N1362 1.313 . S
C1365 N1366 1.344 . S
C1365 H1369 0.930 . S
N1366 C1363 1.377 . S
N1366 C1365 1.344 . S
O1367 Co1359 2.055 . S
O1367 C1371 1.253 . S
H1368 C1364 0.931 . S
H1369 C1365 0.930 . S
O1370 Co1359 2.039 . S
O1370 C1360 1.265 . S
C1371 O1367 1.253 . S
C1371 O1372 1.227 . S
O1372 C1371 1.227 . S
N1373 Co1359 2.140 . S
N1373 C1376 1.346 . S
N1373 C1377 1.345 . S
C1374 C1375 1.387 . S
C1374 C1378 1.391 . S
C1375 C1374 1.387 . S
C1375 C1376 1.369 . S
C1375 H1384 0.929 . S
C1376 N1373 1.346 . S
C1376 C1375 1.369 . S
C1376 H1379 0.928 . S
C1377 N1373 1.345 . S
C1377 C1378 1.371 . S
C1377 H1380 0.931 . S
C1378 C1374 1.391 . S
C1378 C1377 1.371 . S
C1378 H1385 0.930 . S
H1379 C1376 0.928 . S
H1380 C1377 0.931 . S
H1381 C1357 0.930 . S
H1382 C1354 0.930 . S
H1383 C1363 0.930 . S
H1384 C1375 0.929 . S
H1385 C1378 0.930 . S
C1386 C1387 1.351 . S
C1386 N1389 1.368 . S
C1386 H1391 0.931 . S
C1387 C1386 1.351 . S
C1387 N1388 1.373 . S
C1387 H1415 0.930 . S
N1388 C1387 1.373 . S
N1388 C1390 1.340 . S
N1389 C1386 1.368 . S
N1389 C1390 1.321 . S
N1389 Co1392 2.135 . S
C1390 N1388 1.340 . S
C1390 N1389 1.321 . S
C1390 H1414 0.930 . S
H1391 C1386 0.931 . S
Co1392 N1389 2.135 . S
Co1392 N1395 2.121 . S
Co1392 O1400 2.055 . S
Co1392 O1403 2.039 . S
Co1392 N1406 2.140 . S
C1393 O1394 1.227 . S
C1393 O1403 1.265 . S
O1394 C1393 1.227 . S
N1395 Co1392 2.121 . S
N1395 C1397 1.375 . S
N1395 C1398 1.313 . S
C1396 C1397 1.338 . S
C1396 N1399 1.377 . S
C1396 H1416 0.930 . S
C1397 N1395 1.375 . S
C1397 C1396 1.338 . S
C1397 H1401 0.931 . S
C1398 N1395 1.313 . S
C1398 N1399 1.344 . S
C1398 H1402 0.930 . S
N1399 C1396 1.377 . S
N1399 C1398 1.344 . S
O1400 Co1392 2.055 . S
O1400 C1404 1.253 . S
H1401 C1397 0.931 . S
H1402 C1398 0.930 . S
O1403 Co1392 2.039 . S
O1403 C1393 1.265 . S
C1404 O1400 1.253 . S
C1404 O1405 1.227 . S
O1405 C1404 1.227 . S
N1406 Co1392 2.140 . S
N1406 C1409 1.346 . S
N1406 C1410 1.345 . S
C1407 C1408 1.387 . S
C1407 C1411 1.391 . S
C1408 C1407 1.387 . S
C1408 C1409 1.369 . S
C1408 H1417 0.929 . S
C1409 N1406 1.346 . S
C1409 C1408 1.369 . S
C1409 H1412 0.928 . S
C1410 N1406 1.345 . S
C1410 C1411 1.371 . S
C1410 H1413 0.931 . S
C1411 C1407 1.391 . S
C1411 C1410 1.371 . S
C1411 H1418 0.930 . S
H1412 C1409 0.928 . S
H1413 C1410 0.931 . S
H1414 C1390 0.930 . S
H1415 C1387 0.930 . S
H1416 C1396 0.930 . S
H1417 C1408 0.929 . S
H1418 C1411 0.930 . S
C1419 C1420 1.351 . S
C1419 N1422 1.368 . S
C1419 H1424 0.931 . S
C1420 C1419 1.351 . S
C1420 N1421 1.373 . S
C1420 H1448 0.930 . S
N1421 C1420 1.373 . S
N1421 C1423 1.340 . S
N1422 C1419 1.368 . S
N1422 C1423 1.321 . S
N1422 Co1425 2.135 . S
C1423 N1421 1.340 . S
C1423 N1422 1.321 . S
C1423 H1447 0.930 . S
H1424 C1419 0.931 . S
Co1425 N1422 2.135 . S
Co1425 N1428 2.121 . S
Co1425 O1433 2.055 . S
Co1425 O1436 2.039 . S
Co1425 N1439 2.140 . S
C1426 O1427 1.227 . S
C1426 O1436 1.265 . S
O1427 C1426 1.227 . S
N1428 Co1425 2.121 . S
N1428 C1430 1.375 . S
N1428 C1431 1.313 . S
C1429 C1430 1.338 . S
C1429 N1432 1.377 . S
C1429 H1449 0.930 . S
C1430 N1428 1.375 . S
C1430 C1429 1.338 . S
C1430 H1434 0.931 . S
C1431 N1428 1.313 . S
C1431 N1432 1.344 . S
C1431 H1435 0.930 . S
N1432 C1429 1.377 . S
N1432 C1431 1.344 . S
O1433 Co1425 2.055 . S
O1433 C1437 1.253 . S
H1434 C1430 0.931 . S
H1435 C1431 0.930 . S
O1436 Co1425 2.039 . S
O1436 C1426 1.265 . S
C1437 O1433 1.253 . S
C1437 O1438 1.227 . S
O1438 C1437 1.227 . S
N1439 Co1425 2.140 . S
N1439 C1442 1.346 . S
N1439 C1443 1.345 . S
C1440 C1441 1.387 . S
C1440 C1444 1.391 . S
C1441 C1440 1.387 . S
C1441 C1442 1.369 . S
C1441 H1450 0.929 . S
C1442 N1439 1.346 . S
C1442 C1441 1.369 . S
C1442 H1445 0.928 . S
C1443 N1439 1.345 . S
C1443 C1444 1.371 . S
C1443 H1446 0.931 . S
C1444 C1440 1.391 . S
C1444 C1443 1.371 . S
C1444 H1451 0.930 . S
H1445 C1442 0.928 . S
H1446 C1443 0.931 . S
H1447 C1423 0.930 . S
H1448 C1420 0.930 . S
H1449 C1429 0.930 . S
H1450 C1441 0.929 . S
H1451 C1444 0.930 . S
C1452 C1453 1.351 . S
C1452 N1455 1.368 . S
C1452 H1457 0.931 1_556 S
C1453 C1452 1.351 . S
C1453 N1454 1.373 . S
C1453 H1481 0.930 . S
N1454 C1453 1.373 . S
N1454 C1456 1.340 . S
N1455 C1452 1.368 . S
N1455 C1456 1.321 . S
N1455 Co1458 2.135 1_556 S
C1456 N1454 1.340 . S
C1456 N1455 1.321 . S
C1456 H1480 0.930 . S
H1457 C1452 0.931 1_554 S
Co1458 N1455 2.135 1_554 S
Co1458 N1461 2.121 . S
Co1458 O1466 2.055 . S
Co1458 O1469 2.039 1_554 S
Co1458 N1472 2.140 . S
C1459 O1460 1.227 . S
C1459 O1469 1.265 . S
O1460 C1459 1.227 . S
N1461 Co1458 2.121 . S
N1461 C1463 1.375 . S
N1461 C1464 1.313 . S
C1462 C1463 1.338 . S
C1462 N1465 1.377 . S
C1462 H1482 0.930 . S
C1463 N1461 1.375 . S
C1463 C1462 1.338 . S
C1463 H1467 0.931 . S
C1464 N1461 1.313 . S
C1464 N1465 1.344 . S
C1464 H1468 0.930 . S
N1465 C1462 1.377 . S
N1465 C1464 1.344 . S
O1466 Co1458 2.055 . S
O1466 C1470 1.253 . S
H1467 C1463 0.931 . S
H1468 C1464 0.930 . S
O1469 Co1458 2.039 1_556 S
O1469 C1459 1.265 . S
C1470 O1466 1.253 . S
C1470 O1471 1.227 . S
O1471 C1470 1.227 . S
N1472 Co1458 2.140 . S
N1472 C1475 1.346 1_554 S
N1472 C1476 1.345 . S
C1473 C1474 1.387 1_554 S
C1473 C1477 1.391 . S
C1474 C1473 1.387 1_556 S
C1474 C1475 1.369 . S
C1474 H1483 0.929 . S
C1475 N1472 1.346 1_556 S
C1475 C1474 1.369 . S
C1475 H1478 0.928 . S
C1476 N1472 1.345 . S
C1476 C1477 1.371 . S
C1476 H1479 0.931 . S
C1477 C1473 1.391 . S
C1477 C1476 1.371 . S
C1477 H1484 0.930 . S
H1478 C1475 0.928 . S
H1479 C1476 0.931 . S
H1480 C1456 0.930 . S
H1481 C1453 0.930 . S
H1482 C1462 0.930 . S
H1483 C1474 0.929 . S
H1484 C1477 0.930 . S
C1485 C1486 1.351 . S
C1485 N1488 1.368 . S
C1485 H1490 0.931 . S
C1486 C1485 1.351 . S
C1486 N1487 1.373 . S
C1486 H1514 0.930 . S
N1487 C1486 1.373 . S
N1487 C1489 1.340 . S
N1488 C1485 1.368 . S
N1488 C1489 1.321 . S
N1488 Co1491 2.135 . S
C1489 N1487 1.340 . S
C1489 N1488 1.321 . S
C1489 H1513 0.930 . S
H1490 C1485 0.931 . S
Co1491 N1488 2.135 . S
Co1491 N1494 2.121 1_554 S
Co1491 O1499 2.055 1_554 S
Co1491 O1502 2.039 . S
Co1491 N1505 2.140 . S
C1492 O1493 1.227 . S
C1492 O1502 1.265 . S
O1493 C1492 1.227 . S
N1494 Co1491 2.121 1_556 S
N1494 C1496 1.375 . S
N1494 C1497 1.313 . S
C1495 C1496 1.338 . S
C1495 N1498 1.377 . S
C1495 H1515 0.930 . S
C1496 N1494 1.375 . S
C1496 C1495 1.338 . S
C1496 H1500 0.931 1_556 S
C1497 N1494 1.313 . S
C1497 N1498 1.344 . S
C1497 H1501 0.930 . S
N1498 C1495 1.377 . S
N1498 C1497 1.344 . S
O1499 Co1491 2.055 1_556 S
O1499 C1503 1.253 . S
H1500 C1496 0.931 1_554 S
H1501 C1497 0.930 . S
O1502 Co1491 2.039 . S
O1502 C1492 1.265 . S
C1503 O1499 1.253 . S
C1503 O1504 1.227 . S
O1504 C1503 1.227 . S
N1505 Co1491 2.140 . S
N1505 C1508 1.346 . S
N1505 C1509 1.345 1_554 S
C1506 C1507 1.387 . S
C1506 C1510 1.391 1_554 S
C1507 C1506 1.387 . S
C1507 C1508 1.369 . S
C1507 H1516 0.929 . S
C1508 N1505 1.346 . S
C1508 C1507 1.369 . S
C1508 H1511 0.928 . S
C1509 N1505 1.345 1_556 S
C1509 C1510 1.371 . S
C1509 H1512 0.931 . S
C1510 C1506 1.391 1_556 S
C1510 C1509 1.371 . S
C1510 H1517 0.930 . S
H1511 C1508 0.928 . S
H1512 C1509 0.931 . S
H1513 C1489 0.930 . S
H1514 C1486 0.930 . S
H1515 C1495 0.930 . S
H1516 C1507 0.929 . S
H1517 C1510 0.930 . S
C1518 C1519 1.351 . S
C1518 N1521 1.368 . S
C1518 H1523 0.931 . S
C1519 C1518 1.351 . S
C1519 N1520 1.373 . S
C1519 H1547 0.930 . S
N1520 C1519 1.373 . S
N1520 C1522 1.340 . S
N1521 C1518 1.368 . S
N1521 C1522 1.321 . S
N1521 Co1524 2.135 . S
C1522 N1520 1.340 . S
C1522 N1521 1.321 . S
C1522 H1546 0.930 . S
H1523 C1518 0.931 . S
Co1524 N1521 2.135 . S
Co1524 N1527 2.121 1_554 S
Co1524 O1532 2.055 1_554 S
Co1524 O1535 2.039 . S
Co1524 N1538 2.140 . S
C1525 O1526 1.227 . S
C1525 O1535 1.265 . S
O1526 C1525 1.227 . S
N1527 Co1524 2.121 1_556 S
N1527 C1529 1.375 . S
N1527 C1530 1.313 . S
C1528 C1529 1.338 . S
C1528 N1531 1.377 . S
C1528 H1548 0.930 . S
C1529 N1527 1.375 . S
C1529 C1528 1.338 . S
C1529 H1533 0.931 1_556 S
C1530 N1527 1.313 . S
C1530 N1531 1.344 . S
C1530 H1534 0.930 . S
N1531 C1528 1.377 . S
N1531 C1530 1.344 . S
O1532 Co1524 2.055 1_556 S
O1532 C1536 1.253 . S
H1533 C1529 0.931 1_554 S
H1534 C1530 0.930 . S
O1535 Co1524 2.039 . S
O1535 C1525 1.265 . S
C1536 O1532 1.253 . S
C1536 O1537 1.227 . S
O1537 C1536 1.227 . S
N1538 Co1524 2.140 . S
N1538 C1541 1.346 . S
N1538 C1542 1.345 1_554 S
C1539 C1540 1.387 . S
C1539 C1543 1.391 1_554 S
C1540 C1539 1.387 . S
C1540 C1541 1.369 . S
C1540 H1549 0.929 . S
C1541 N1538 1.346 . S
C1541 C1540 1.369 . S
C1541 H1544 0.928 . S
C1542 N1538 1.345 1_556 S
C1542 C1543 1.371 . S
C1542 H1545 0.931 . S
C1543 C1539 1.391 1_556 S
C1543 C1542 1.371 . S
C1543 H1550 0.930 . S
H1544 C1541 0.928 . S
H1545 C1542 0.931 . S
H1546 C1522 0.930 . S
H1547 C1519 0.930 . S
H1548 C1528 0.930 . S
H1549 C1540 0.929 . S
H1550 C1543 0.930 . S
C1551 C1552 1.351 . S
C1551 N1554 1.368 . S
C1551 H1556 0.931 1_556 S
C1552 C1551 1.351 . S
C1552 N1553 1.373 . S
C1552 H1580 0.930 . S
N1553 C1552 1.373 . S
N1553 C1555 1.340 . S
N1554 C1551 1.368 . S
N1554 C1555 1.321 . S
N1554 Co1557 2.135 1_556 S
C1555 N1553 1.340 . S
C1555 N1554 1.321 . S
C1555 H1579 0.930 . S
H1556 C1551 0.931 1_554 S
Co1557 N1554 2.135 1_554 S
Co1557 N1560 2.121 . S
Co1557 O1565 2.055 . S
Co1557 O1568 2.039 1_554 S
Co1557 N1571 2.140 . S
C1558 O1559 1.227 . S
C1558 O1568 1.265 . S
O1559 C1558 1.227 . S
N1560 Co1557 2.121 . S
N1560 C1562 1.375 . S
N1560 C1563 1.313 . S
C1561 C1562 1.338 . S
C1561 N1564 1.377 . S
C1561 H1581 0.930 . S
C1562 N1560 1.375 . S
C1562 C1561 1.338 . S
C1562 H1566 0.931 . S
C1563 N1560 1.313 . S
C1563 N1564 1.344 . S
C1563 H1567 0.930 . S
N1564 C1561 1.377 . S
N1564 C1563 1.344 . S
O1565 Co1557 2.055 . S
O1565 C1569 1.253 . S
H1566 C1562 0.931 . S
H1567 C1563 0.930 . S
O1568 Co1557 2.039 1_556 S
O1568 C1558 1.265 . S
C1569 O1565 1.253 . S
C1569 O1570 1.227 . S
O1570 C1569 1.227 . S
N1571 Co1557 2.140 . S
N1571 C1574 1.346 1_554 S
N1571 C1575 1.345 . S
C1572 C1573 1.387 1_554 S
C1572 C1576 1.391 . S
C1573 C1572 1.387 1_556 S
C1573 C1574 1.369 . S
C1573 H1582 0.929 . S
C1574 N1571 1.346 1_556 S
C1574 C1573 1.369 . S
C1574 H1577 0.928 . S
C1575 N1571 1.345 . S
C1575 C1576 1.371 . S
C1575 H1578 0.931 . S
C1576 C1572 1.391 . S
C1576 C1575 1.371 . S
C1576 H1583 0.930 . S
H1577 C1574 0.928 . S
H1578 C1575 0.931 . S
H1579 C1555 0.930 . S
H1580 C1552 0.930 . S
H1581 C1561 0.930 . S
H1582 C1573 0.929 . S
H1583 C1576 0.930 . S
H1584 C1592 0.950 . S
H1585 C1597 0.955 . S
H1586 C1594 0.950 . S
H1587 C1596 0.948 . S
H1588 C1598 0.950 . S
H1589 C1600 0.950 . S
H1590 C1602 0.950 . S
H1591 C1603 0.950 . S
C1592 H1584 0.950 . S
C1592 C1593 1.386 . S
C1592 C1594 1.391 . S
C1593 C1592 1.386 . S
C1593 C1597 1.387 1_455 S
C1594 H1586 0.950 . S
C1594 C1592 1.391 . S
C1594 C1595 1.400 . S
C1595 C1594 1.400 . S
C1595 C1596 1.401 1_455 S
C1595 C1601 1.491 . S
C1596 H1587 0.948 . S
C1596 C1595 1.401 1_655 S
C1596 C1597 1.390 . S
C1597 H1585 0.955 . S
C1597 C1593 1.387 1_655 S
C1597 C1596 1.390 . S
C1598 H1588 0.950 . S
C1598 C1599 1.386 1_655 S
C1598 C1600 1.391 . S
C1599 C1598 1.386 1_455 S
C1599 C1603 1.393 . S
C1600 H1589 0.950 . S
C1600 C1598 1.391 . S
C1600 C1601 1.400 1_655 S
C1601 C1595 1.491 . S
C1601 C1600 1.400 1_455 S
C1601 C1602 1.398 . S
C1602 H1590 0.950 . S
C1602 C1601 1.398 . S
C1602 C1603 1.391 . S
C1603 H1591 0.950 . S
C1603 C1599 1.393 . S
C1603 C1602 1.391 . S
H1604 C1612 0.950 . S
H1605 C1617 0.950 . S
H1606 C1614 0.950 . S
H1607 C1616 0.950 . S
H1608 C1618 0.950 . S
H1609 C1620 0.950 . S
H1610 C1622 0.950 . S
H1611 C1623 0.950 . S
C1612 H1604 0.950 . S
C1612 C1613 1.386 . S
C1612 C1614 1.391 . S
C1613 C1612 1.386 . S
C1613 C1617 1.393 1_545 S
C1614 H1606 0.950 . S
C1614 C1612 1.391 . S
C1614 C1615 1.400 . S
C1615 C1614 1.400 . S
C1615 C1616 1.398 1_545 S
C1615 C1621 1.491 . S
C1616 H1607 0.950 . S
C1616 C1615 1.398 1_565 S
C1616 C1617 1.391 . S
C1617 H1605 0.950 . S
C1617 C1613 1.393 1_565 S
C1617 C1616 1.391 . S
C1618 H1608 0.950 . S
C1618 C1619 1.386 1_565 S
C1618 C1620 1.391 . S
C1619 C1618 1.386 1_545 S
C1619 C1623 1.393 . S
C1620 H1609 0.950 . S
C1620 C1618 1.391 . S
C1620 C1621 1.400 1_565 S
C1621 C1615 1.491 . S
C1621 C1620 1.400 1_545 S
C1621 C1622 1.398 . S
C1622 H1610 0.950 . S
C1622 C1621 1.398 . S
C1622 C1623 1.391 . S
C1623 H1611 0.950 . S
C1623 C1619 1.393 . S
C1623 C1622 1.391 . S
H1624 C1632 0.950 . S
H1625 C1637 0.950 . S
H1626 C1634 0.950 . S
H1627 C1636 0.950 . S
H1628 C1638 0.950 . S
H1629 C1640 0.950 . S
H1630 C1642 0.950 . S
H1631 C1643 0.950 . S
C1632 H1624 0.950 . S
C1632 C1633 1.386 . S
C1632 C1634 1.391 . S
C1633 C1632 1.386 . S
C1633 C1637 1.393 . S
C1634 H1626 0.950 . S
C1634 C1632 1.391 . S
C1634 C1635 1.400 . S
C1635 C1634 1.400 . S
C1635 C1636 1.398 . S
C1635 C1641 1.491 . S
C1636 H1627 0.950 . S
C1636 C1635 1.398 . S
C1636 C1637 1.391 . S
C1637 H1625 0.950 . S
C1637 C1633 1.393 . S
C1637 C1636 1.391 . S
C1638 H1628 0.950 . S
C1638 C1639 1.386 . S
C1638 C1640 1.391 . S
C1639 C1638 1.386 . S
C1639 C1643 1.393 . S
C1640 H1629 0.950 . S
C1640 C1638 1.391 . S
C1640 C1641 1.400 . S
C1641 C1635 1.491 . S
C1641 C1640 1.400 . S
C1641 C1642 1.398 . S
C1642 H1630 0.950 . S
C1642 C1641 1.398 . S
C1642 C1643 1.391 . S
C1643 H1631 0.950 . S
C1643 C1639 1.393 . S
C1643 C1642 1.391 . S
H1644 C1652 0.942 1_565 S
H1645 C1657 0.950 . S
H1646 C1654 0.950 1_565 S
H1647 C1656 0.950 . S
H1648 C1658 0.950 . S
H1649 C1660 0.950 . S
H1650 C1662 0.947 1_565 S
H1651 C1663 0.945 1_565 S
C1652 H1644 0.942 1_545 S
C1652 C1653 1.386 . S
C1652 C1654 1.391 . S
C1653 C1652 1.386 . S
C1653 C1657 1.393 . S
C1654 H1646 0.950 1_545 S
C1654 C1652 1.391 . S
C1654 C1655 1.400 . S
C1655 C1654 1.400 . S
C1655 C1656 1.398 . S
C1655 C1661 1.491 . S
C1656 H1647 0.950 . S
C1656 C1655 1.398 . S
C1656 C1657 1.391 . S
C1657 H1645 0.950 . S
C1657 C1653 1.393 . S
C1657 C1656 1.391 . S
C1658 H1648 0.950 . S
C1658 C1659 1.386 . S
C1658 C1660 1.391 . S
C1659 C1658 1.386 . S
C1659 C1663 1.398 . S
C1660 H1649 0.950 . S
C1660 C1658 1.391 . S
C1660 C1661 1.400 . S
C1661 C1655 1.491 . S
C1661 C1660 1.400 . S
C1661 C1662 1.401 . S
C1662 H1650 0.947 1_545 S
C1662 C1661 1.401 . S
C1662 C1663 1.390 . S
C1663 H1651 0.945 1_545 S
C1663 C1659 1.398 . S
C1663 C1662 1.390 . S
H1664 C1672 0.950 . S
H1665 C1677 0.950 . S
H1666 C1674 0.950 . S
H1667 C1676 0.950 . S
H1668 C1678 0.950 . S
H1669 C1680 0.950 . S
H1670 C1682 0.950 . S
H1671 C1683 0.950 . S
C1672 H1664 0.950 . S
C1672 C1673 1.386 . S
C1672 C1674 1.391 . S
C1673 C1672 1.386 . S
C1673 C1677 1.393 . S
C1674 H1666 0.950 . S
C1674 C1672 1.391 . S
C1674 C1675 1.400 . S
C1675 C1674 1.400 . S
C1675 C1676 1.398 . S
C1675 C1681 1.491 . S
C1676 H1667 0.950 . S
C1676 C1675 1.398 . S
C1676 C1677 1.391 . S
C1677 H1665 0.950 . S
C1677 C1673 1.393 . S
C1677 C1676 1.391 . S
C1678 H1668 0.950 . S
C1678 C1679 1.386 . S
C1678 C1680 1.391 . S
C1679 C1678 1.386 . S
C1679 C1683 1.393 . S
C1680 H1669 0.950 . S
C1680 C1678 1.391 . S
C1680 C1681 1.400 . S
C1681 C1675 1.491 . S
C1681 C1680 1.400 . S
C1681 C1682 1.398 . S
C1682 H1670 0.950 . S
C1682 C1681 1.398 . S
C1682 C1683 1.391 . S
C1683 H1671 0.950 . S
C1683 C1679 1.393 . S
C1683 C1682 1.391 . S
H1684 C1692 0.950 . S
H1685 C1697 0.950 . S
H1686 C1694 0.950 . S
H1687 C1696 0.950 . S
H1688 C1698 0.950 . S
H1689 C1700 0.950 . S
H1690 C1702 0.950 . S
H1691 C1703 0.950 . S
C1692 H1684 0.950 . S
C1692 C1693 1.386 1_565 S
C1692 C1694 1.391 . S
C1693 C1692 1.386 1_545 S
C1693 C1697 1.393 . S
C1694 H1686 0.950 . S
C1694 C1692 1.391 . S
C1694 C1695 1.400 1_565 S
C1695 C1694 1.400 1_545 S
C1695 C1696 1.398 . S
C1695 C1701 1.491 . S
C1696 H1687 0.950 . S
C1696 C1695 1.398 . S
C1696 C1697 1.391 . S
C1697 H1685 0.950 . S
C1697 C1693 1.393 . S
C1697 C1696 1.391 . S
C1698 H1688 0.950 . S
C1698 C1699 1.386 . S
C1698 C1700 1.391 . S
C1699 C1698 1.386 . S
C1699 C1703 1.393 1_545 S
C1700 H1689 0.950 . S
C1700 C1698 1.391 . S
C1700 C1701 1.400 . S
C1701 C1695 1.491 . S
C1701 C1700 1.400 . S
C1701 C1702 1.398 1_545 S
C1702 H1690 0.950 . S
C1702 C1701 1.398 1_565 S
C1702 C1703 1.391 . S
C1703 H1691 0.950 . S
C1703 C1699 1.393 1_565 S
C1703 C1702 1.391 . S
H1704 C1712 0.962 . S
H1705 C1717 0.950 . S
H1706 C1714 0.950 . S
H1707 C1716 0.950 . S
H1708 C1718 0.950 . S
H1709 C1720 0.950 . S
H1710 C1722 0.958 . S
H1711 C1723 0.950 . S
C1712 H1704 0.962 . S
C1712 C1713 1.376 1_655 S
C1712 C1714 1.393 . S
C1713 C1712 1.376 1_455 S
C1713 C1717 1.393 . S
C1714 H1706 0.950 . S
C1714 C1712 1.393 . S
C1714 C1715 1.400 1_655 S
C1715 C1714 1.400 1_455 S
C1715 C1716 1.398 . S
C1715 C1721 1.491 . S
C1716 H1707 0.950 . S
C1716 C1715 1.398 . S
C1716 C1717 1.391 . S
C1717 H1705 0.950 . S
C1717 C1713 1.393 . S
C1717 C1716 1.391 . S
C1718 H1708 0.950 . S
C1718 C1719 1.386 . S
C1718 C1720 1.391 . S
C1719 C1718 1.386 . S
C1719 C1723 1.393 1_455 S
C1720 H1709 0.950 . S
C1720 C1718 1.391 . S
C1720 C1721 1.400 . S
C1721 C1715 1.491 . S
C1721 C1720 1.400 . S
C1721 C1722 1.391 1_455 S
C1722 H1710 0.958 . S
C1722 C1721 1.391 1_655 S
C1722 C1723 1.393 . S
C1723 H1711 0.950 . S
C1723 C1719 1.393 1_655 S
C1723 C1722 1.393 . S
H1724 C1732 0.950 . S
H1725 C1737 0.950 . S
H1726 C1734 0.950 . S
H1727 C1736 0.950 . S
H1728 C1738 0.950 . S
H1729 C1740 0.950 . S
H1730 C1742 0.950 . S
H1731 C1743 0.950 . S
C1732 H1724 0.950 . S
C1732 C1733 1.386 . S
C1732 C1734 1.391 . S
C1733 C1732 1.386 . S
C1733 C1737 1.393 1_545 S
C1734 H1726 0.950 . S
C1734 C1732 1.391 . S
C1734 C1735 1.400 . S
C1735 C1734 1.400 . S
C1735 C1736 1.398 1_545 S
C1735 C1741 1.491 . S
C1736 H1727 0.950 . S
C1736 C1735 1.398 1_565 S
C1736 C1737 1.391 . S
C1737 H1725 0.950 . S
C1737 C1733 1.393 1_565 S
C1737 C1736 1.391 . S
C1738 H1728 0.950 . S
C1738 C1739 1.386 1_565 S
C1738 C1740 1.391 . S
C1739 C1738 1.386 1_545 S
C1739 C1743 1.393 . S
C1740 H1729 0.950 . S
C1740 C1738 1.391 . S
C1740 C1741 1.400 1_565 S
C1741 C1735 1.491 . S
C1741 C1740 1.400 1_545 S
C1741 C1742 1.398 . S
C1742 H1730 0.950 . S
C1742 C1741 1.398 . S
C1742 C1743 1.391 . S
C1743 H1731 0.950 . S
C1743 C1739 1.393 . S
C1743 C1742 1.391 . S
H1744 C1752 0.950 . S
H1745 C1757 0.950 . S
H1746 C1754 0.950 . S
H1747 C1756 0.950 . S
H1748 C1758 0.950 . S
H1749 C1760 0.950 . S
H1750 C1762 0.950 . S
H1751 C1763 0.950 . S
C1752 H1744 0.950 . S
C1752 C1753 1.386 . S
C1752 C1754 1.391 . S
C1753 C1752 1.386 . S
C1753 C1757 1.393 . S
C1754 H1746 0.950 . S
C1754 C1752 1.391 . S
C1754 C1755 1.400 . S
C1755 C1754 1.400 . S
C1755 C1756 1.398 . S
C1755 C1761 1.491 . S
C1756 H1747 0.950 . S
C1756 C1755 1.398 . S
C1756 C1757 1.391 . S
C1757 H1745 0.950 . S
C1757 C1753 1.393 . S
C1757 C1756 1.391 . S
C1758 H1748 0.950 . S
C1758 C1759 1.386 . S
C1758 C1760 1.391 . S
C1759 C1758 1.386 . S
C1759 C1763 1.393 . S
C1760 H1749 0.950 . S
C1760 C1758 1.391 . S
C1760 C1761 1.400 . S
C1761 C1755 1.491 . S
C1761 C1760 1.400 . S
C1761 C1762 1.398 . S
C1762 H1750 0.950 . S
C1762 C1761 1.398 . S
C1762 C1763 1.391 . S
C1763 H1751 0.950 . S
C1763 C1759 1.393 . S
C1763 C1762 1.391 . S
H1764 C1772 0.950 . S
H1765 C1777 0.938 1_556 S
H1766 C1774 0.950 . S
H1767 C1776 0.917 1_556 S
H1768 C1778 0.950 1_556 S
H1769 C1780 0.950 1_556 S
H1770 C1782 0.950 . S
H1771 C1783 0.950 . S
C1772 H1764 0.950 . S
C1772 C1773 1.386 . S
C1772 C1774 1.391 . S
C1773 C1772 1.386 . S
C1773 C1777 1.404 . S
C1774 H1766 0.950 . S
C1774 C1772 1.391 . S
C1774 C1775 1.400 . S
C1775 C1774 1.400 . S
C1775 C1776 1.434 . S
C1775 C1781 1.491 . S
C1776 H1767 0.917 1_554 S
C1776 C1775 1.434 . S
C1776 C1777 1.390 . S
C1777 H1765 0.938 1_554 S
C1777 C1773 1.404 . S
C1777 C1776 1.390 . S
C1778 H1768 0.950 1_554 S
C1778 C1779 1.386 . S
C1778 C1780 1.391 . S
C1779 C1778 1.386 . S
C1779 C1783 1.393 . S
C1780 H1769 0.950 1_554 S
C1780 C1778 1.391 . S
C1780 C1781 1.400 . S
C1781 C1775 1.491 . S
C1781 C1780 1.400 . S
C1781 C1782 1.398 . S
C1782 H1770 0.950 . S
C1782 C1781 1.398 . S
C1782 C1783 1.391 . S
C1783 H1771 0.950 . S
C1783 C1779 1.393 . S
C1783 C1782 1.391 . S
H1784 C1792 0.950 . S
H1785 C1797 0.950 . S
H1786 C1794 0.950 . S
H1787 C1796 0.950 . S
H1788 C1798 0.950 . S
H1789 C1800 0.950 . S
H1790 C1802 0.950 . S
H1791 C1803 0.950 . S
C1792 H1784 0.950 . S
C1792 C1793 1.386 1_556 S
C1792 C1794 1.391 . S
C1793 C1792 1.386 1_554 S
C1793 C1797 1.393 . S
C1794 H1786 0.950 . S
C1794 C1792 1.391 . S
C1794 C1795 1.400 1_556 S
C1795 C1794 1.400 1_554 S
C1795 C1796 1.398 . S
C1795 C1801 1.491 . S
C1796 H1787 0.950 . S
C1796 C1795 1.398 . S
C1796 C1797 1.391 . S
C1797 H1785 0.950 . S
C1797 C1793 1.393 . S
C1797 C1796 1.391 . S
C1798 H1788 0.950 . S
C1798 C1799 1.386 . S
C1798 C1800 1.391 . S
C1799 C1798 1.386 . S
C1799 C1803 1.393 1_554 S
C1800 H1789 0.950 . S
C1800 C1798 1.391 . S
C1800 C1801 1.400 . S
C1801 C1795 1.491 . S
C1801 C1800 1.400 . S
C1801 C1802 1.398 1_554 S
C1802 H1790 0.950 . S
C1802 C1801 1.398 1_556 S
C1802 C1803 1.391 . S
C1803 H1791 0.950 . S
C1803 C1799 1.393 1_556 S
C1803 C1802 1.391 . S
H1804 C1812 0.950 . S
H1805 C1817 0.950 . S
H1806 C1814 0.950 . S
H1807 C1816 0.950 . S
H1808 C1818 0.950 . S
H1809 C1820 0.950 . S
H1810 C1822 0.950 . S
H1811 C1823 0.950 . S
C1812 H1804 0.950 . S
C1812 C1813 1.386 . S
C1812 C1814 1.391 . S
C1813 C1812 1.386 . S
C1813 C1817 1.393 1_554 S
C1814 H1806 0.950 . S
C1814 C1812 1.391 . S
C1814 C1815 1.400 . S
C1815 C1814 1.400 . S
C1815 C1816 1.398 1_554 S
C1815 C1821 1.491 . S
C1816 H1807 0.950 . S
C1816 C1815 1.398 1_556 S
C1816 C1817 1.391 . S
C1817 H1805 0.950 . S
C1817 C1813 1.393 1_556 S
C1817 C1816 1.391 . S
C1818 H1808 0.950 . S
C1818 C1819 1.386 1_556 S
C1818 C1820 1.391 . S
C1819 C1818 1.386 1_554 S
C1819 C1823 1.393 . S
C1820 H1809 0.950 . S
C1820 C1818 1.391 . S
C1820 C1821 1.400 1_556 S
C1821 C1815 1.491 . S
C1821 C1820 1.400 1_554 S
C1821 C1822 1.398 . S
C1822 H1810 0.950 . S
C1822 C1821 1.398 . S
C1822 C1823 1.391 . S
C1823 H1811 0.950 . S
C1823 C1819 1.393 . S
C1823 C1822 1.391 . S
H1824 C1832 0.950 . S
H1825 C1837 0.950 . S
H1826 C1834 0.950 . S
H1827 C1836 0.950 . S
H1828 C1838 0.950 . S
H1829 C1840 0.950 . S
H1830 C1842 0.950 . S
H1831 C1843 0.950 . S
C1832 H1824 0.950 . S
C1832 C1833 1.386 . S
C1832 C1834 1.391 . S
C1833 C1832 1.386 . S
C1833 C1837 1.393 . S
C1834 H1826 0.950 . S
C1834 C1832 1.391 . S
C1834 C1835 1.400 . S
C1835 C1834 1.400 . S
C1835 C1836 1.398 . S
C1835 C1841 1.491 . S
C1836 H1827 0.950 . S
C1836 C1835 1.398 . S
C1836 C1837 1.391 . S
C1837 H1825 0.950 . S
C1837 C1833 1.393 . S
C1837 C1836 1.391 . S
C1838 H1828 0.950 . S
C1838 C1839 1.386 . S
C1838 C1840 1.391 . S
C1839 C1838 1.386 . S
C1839 C1843 1.393 . S
C1840 H1829 0.950 . S
C1840 C1838 1.391 . S
C1840 C1841 1.400 . S
C1841 C1835 1.491 . S
C1841 C1840 1.400 . S
C1841 C1842 1.398 . S
C1842 H1830 0.950 . S
C1842 C1841 1.398 . S
C1842 C1843 1.391 . S
C1843 H1831 0.950 . S
C1843 C1839 1.393 . S
C1843 C1842 1.391 . S
H1844 C1852 0.950 . S
H1845 C1857 0.950 . S
H1846 C1854 0.950 . S
H1847 C1856 0.950 . S
H1848 C1858 0.950 . S
H1849 C1860 0.950 . S
H1850 C1862 0.950 . S
H1851 C1863 0.950 . S
C1852 H1844 0.950 . S
C1852 C1853 1.386 . S
C1852 C1854 1.391 . S
C1853 C1852 1.386 . S
C1853 C1857 1.393 . S
C1854 H1846 0.950 . S
C1854 C1852 1.391 . S
C1854 C1855 1.400 . S
C1855 C1854 1.400 . S
C1855 C1856 1.398 . S
C1855 C1861 1.491 . S
C1856 H1847 0.950 . S
C1856 C1855 1.398 . S
C1856 C1857 1.391 . S
C1857 H1845 0.950 . S
C1857 C1853 1.393 . S
C1857 C1856 1.391 . S
C1858 H1848 0.950 . S
C1858 C1859 1.386 . S
C1858 C1860 1.391 . S
C1859 C1858 1.386 . S
C1859 C1863 1.393 . S
C1860 H1849 0.950 . S
C1860 C1858 1.391 . S
C1860 C1861 1.400 . S
C1861 C1855 1.491 . S
C1861 C1860 1.400 . S
C1861 C1862 1.398 . S
C1862 H1850 0.950 . S
C1862 C1861 1.398 . S
C1862 C1863 1.391 . S
C1863 H1851 0.950 . S
C1863 C1859 1.393 . S
C1863 C1862 1.391 . S
H1864 C1872 0.950 . S
H1865 C1877 0.950 . S
H1866 C1874 0.950 . S
H1867 C1876 0.950 . S
H1868 C1878 0.950 . S
H1869 C1880 0.950 . S
H1870 C1882 0.950 . S
H1871 C1883 0.950 . S
C1872 H1864 0.950 . S
C1872 C1873 1.386 . S
C1872 C1874 1.391 . S
C1873 C1872 1.386 . S
C1873 C1877 1.393 . S
C1874 H1866 0.950 . S
C1874 C1872 1.391 . S
C1874 C1875 1.400 . S
C1875 C1874 1.400 . S
C1875 C1876 1.398 . S
C1875 C1881 1.491 . S
C1876 H1867 0.950 . S
C1876 C1875 1.398 . S
C1876 C1877 1.391 . S
C1877 H1865 0.950 . S
C1877 C1873 1.393 . S
C1877 C1876 1.391 . S
C1878 H1868 0.950 . S
C1878 C1879 1.386 . S
C1878 C1880 1.391 . S
C1879 C1878 1.386 . S
C1879 C1883 1.393 . S
C1880 H1869 0.950 . S
C1880 C1878 1.391 . S
C1880 C1881 1.400 . S
C1881 C1875 1.491 . S
C1881 C1880 1.400 . S
C1881 C1882 1.398 . S
C1882 H1870 0.950 . S
C1882 C1881 1.398 . S
C1882 C1883 1.391 . S
C1883 H1871 0.950 . S
C1883 C1879 1.393 . S
C1883 C1882 1.391 . S
H1884 C1892 0.950 . S
H1885 C1897 0.950 . S
H1886 C1894 0.950 . S
H1887 C1896 0.950 . S
H1888 C1898 0.950 . S
H1889 C1900 0.950 . S
H1890 C1902 0.950 . S
H1891 C1903 0.950 . S
C1892 H1884 0.950 . S
C1892 C1893 1.386 . S
C1892 C1894 1.391 . S
C1893 C1892 1.386 . S
C1893 C1897 1.393 . S
C1894 H1886 0.950 . S
C1894 C1892 1.391 . S
C1894 C1895 1.400 . S
C1895 C1894 1.400 . S
C1895 C1896 1.398 . S
C1895 C1901 1.491 . S
C1896 H1887 0.950 . S
C1896 C1895 1.398 . S
C1896 C1897 1.391 . S
C1897 H1885 0.950 . S
C1897 C1893 1.393 . S
C1897 C1896 1.391 . S
C1898 H1888 0.950 . S
C1898 C1899 1.386 . S
C1898 C1900 1.391 . S
C1899 C1898 1.386 . S
C1899 C1903 1.393 . S
C1900 H1889 0.950 . S
C1900 C1898 1.391 . S
C1900 C1901 1.400 . S
C1901 C1895 1.491 . S
C1901 C1900 1.400 . S
C1901 C1902 1.398 . S
C1902 H1890 0.950 . S
C1902 C1901 1.398 . S
C1902 C1903 1.391 . S
C1903 H1891 0.950 . S
C1903 C1899 1.393 . S
C1903 C1902 1.391 . S
H1904 C1912 0.950 . S
H1905 C1917 0.950 . S
H1906 C1914 0.950 . S
H1907 C1916 0.950 . S
H1908 C1918 0.950 . S
H1909 C1920 0.950 . S
H1910 C1922 0.950 . S
H1911 C1923 0.950 . S
C1912 H1904 0.950 . S
C1912 C1913 1.386 . S
C1912 C1914 1.391 . S
C1913 C1912 1.386 . S
C1913 C1917 1.393 . S
C1914 H1906 0.950 . S
C1914 C1912 1.391 . S
C1914 C1915 1.400 . S
C1915 C1914 1.400 . S
C1915 C1916 1.398 . S
C1915 C1921 1.491 . S
C1916 H1907 0.950 . S
C1916 C1915 1.398 . S
C1916 C1917 1.391 . S
C1917 H1905 0.950 . S
C1917 C1913 1.393 . S
C1917 C1916 1.391 . S
C1918 H1908 0.950 . S
C1918 C1919 1.386 . S
C1918 C1920 1.391 . S
C1919 C1918 1.386 . S
C1919 C1923 1.393 . S
C1920 H1909 0.950 . S
C1920 C1918 1.391 . S
C1920 C1921 1.400 . S
C1921 C1915 1.491 . S
C1921 C1920 1.400 . S
C1921 C1922 1.398 . S
C1922 H1910 0.950 . S
C1922 C1921 1.398 . S
C1922 C1923 1.391 . S
C1923 H1911 0.950 . S
C1923 C1919 1.393 . S
C1923 C1922 1.391 . S
H1924 C1932 0.950 . S
H1925 C1937 0.950 . S
H1926 C1934 0.950 . S
H1927 C1936 0.950 . S
H1928 C1938 0.950 . S
H1929 C1940 0.950 . S
H1930 C1942 0.950 . S
H1931 C1943 0.950 . S
C1932 H1924 0.950 . S
C1932 C1933 1.386 . S
C1932 C1934 1.391 . S
C1933 C1932 1.386 . S
C1933 C1937 1.393 . S
C1934 H1926 0.950 . S
C1934 C1932 1.391 . S
C1934 C1935 1.400 . S
C1935 C1934 1.400 . S
C1935 C1936 1.398 . S
C1935 C1941 1.491 . S
C1936 H1927 0.950 . S
C1936 C1935 1.398 . S
C1936 C1937 1.391 . S
C1937 H1925 0.950 . S
C1937 C1933 1.393 . S
C1937 C1936 1.391 . S
C1938 H1928 0.950 . S
C1938 C1939 1.386 . S
C1938 C1940 1.391 . S
C1939 C1938 1.386 . S
C1939 C1943 1.393 . S
C1940 H1929 0.950 . S
C1940 C1938 1.391 . S
C1940 C1941 1.400 . S
C1941 C1935 1.491 . S
C1941 C1940 1.400 . S
C1941 C1942 1.398 . S
C1942 H1930 0.950 . S
C1942 C1941 1.398 . S
C1942 C1943 1.391 . S
C1943 H1931 0.950 . S
C1943 C1939 1.393 . S
C1943 C1942 1.391 . S
H1944 C1952 0.950 . S
H1945 C1957 0.950 . S
H1946 C1954 0.950 . S
H1947 C1956 0.950 . S
H1948 C1958 0.950 . S
H1949 C1960 0.950 . S
H1950 C1962 0.950 . S
H1951 C1963 0.950 . S
C1952 H1944 0.950 . S
C1952 C1953 1.386 . S
C1952 C1954 1.391 . S
C1953 C1952 1.386 . S
C1953 C1957 1.393 . S
C1954 H1946 0.950 . S
C1954 C1952 1.391 . S
C1954 C1955 1.400 . S
C1955 C1954 1.400 . S
C1955 C1956 1.398 . S
C1955 C1961 1.491 . S
C1956 H1947 0.950 . S
C1956 C1955 1.398 . S
C1956 C1957 1.391 . S
C1957 H1945 0.950 . S
C1957 C1953 1.393 . S
C1957 C1956 1.391 . S
C1958 H1948 0.950 . S
C1958 C1959 1.386 . S
C1958 C1960 1.391 . S
C1959 C1958 1.386 . S
C1959 C1963 1.393 . S
C1960 H1949 0.950 . S
C1960 C1958 1.391 . S
C1960 C1961 1.400 . S
C1961 C1955 1.491 . S
C1961 C1960 1.400 . S
C1961 C1962 1.398 . S
C1962 H1950 0.950 . S
C1962 C1961 1.398 . S
C1962 C1963 1.391 . S
C1963 H1951 0.950 . S
C1963 C1959 1.393 . S
C1963 C1962 1.391 . S
H1964 C1972 0.950 . S
H1965 C1977 0.950 . S
H1966 C1974 0.950 . S
H1967 C1976 0.950 . S
H1968 C1978 0.950 . S
H1969 C1980 0.950 . S
H1970 C1982 0.950 . S
H1971 C1983 0.950 . S
C1972 H1964 0.950 . S
C1972 C1973 1.386 . S
C1972 C1974 1.391 . S
C1973 C1972 1.386 . S
C1973 C1977 1.393 . S
C1974 H1966 0.950 . S
C1974 C1972 1.391 . S
C1974 C1975 1.400 . S
C1975 C1974 1.400 . S
C1975 C1976 1.398 . S
C1975 C1981 1.491 . S
C1976 H1967 0.950 . S
C1976 C1975 1.398 . S
C1976 C1977 1.391 . S
C1977 H1965 0.950 . S
C1977 C1973 1.393 . S
C1977 C1976 1.391 . S
C1978 H1968 0.950 . S
C1978 C1979 1.386 . S
C1978 C1980 1.391 . S
C1979 C1978 1.386 . S
C1979 C1983 1.393 . S
C1980 H1969 0.950 . S
C1980 C1978 1.391 . S
C1980 C1981 1.400 . S
C1981 C1975 1.491 . S
C1981 C1980 1.400 . S
C1981 C1982 1.398 . S
C1982 H1970 0.950 . S
C1982 C1981 1.398 . S
C1982 C1983 1.391 . S
C1983 H1971 0.950 . S
C1983 C1979 1.393 . S
C1983 C1982 1.391 . S
H1984 C1992 0.950 . S
H1985 C1997 0.950 . S
H1986 C1994 0.950 . S
H1987 C1996 0.950 . S
H1988 C1998 0.950 . S
H1989 C2000 0.950 . S
H1990 C2002 0.950 . S
H1991 C2003 0.950 . S
C1992 H1984 0.950 . S
C1992 C1993 1.386 . S
C1992 C1994 1.391 . S
C1993 C1992 1.386 . S
C1993 C1997 1.393 . S
C1994 H1986 0.950 . S
C1994 C1992 1.391 . S
C1994 C1995 1.400 . S
C1995 C1994 1.400 . S
C1995 C1996 1.398 . S
C1995 C2001 1.491 . S
C1996 H1987 0.950 . S
C1996 C1995 1.398 . S
C1996 C1997 1.391 . S
C1997 H1985 0.950 . S
C1997 C1993 1.393 . S
C1997 C1996 1.391 . S
C1998 H1988 0.950 . S
C1998 C1999 1.386 . S
C1998 C2000 1.391 . S
C1999 C1998 1.386 . S
C1999 C2003 1.393 . S
C2000 H1989 0.950 . S
C2000 C1998 1.391 . S
C2000 C2001 1.400 . S
C2001 C1995 1.491 . S
C2001 C2000 1.400 . S
C2001 C2002 1.398 . S
C2002 H1990 0.950 . S
C2002 C2001 1.398 . S
C2002 C2003 1.391 . S
C2003 H1991 0.950 . S
C2003 C1999 1.393 . S
C2003 C2002 1.391 . S
H2004 C2012 0.950 . S
H2005 C2017 0.950 . S
H2006 C2014 0.950 . S
H2007 C2016 0.950 . S
H2008 C2018 0.950 . S
H2009 C2020 0.950 . S
H2010 C2022 0.950 . S
H2011 C2023 0.950 . S
C2012 H2004 0.950 . S
C2012 C2013 1.386 . S
C2012 C2014 1.391 . S
C2013 C2012 1.386 . S
C2013 C2017 1.393 . S
C2014 H2006 0.950 . S
C2014 C2012 1.391 . S
C2014 C2015 1.400 . S
C2015 C2014 1.400 . S
C2015 C2016 1.398 . S
C2015 C2021 1.491 . S
C2016 H2007 0.950 . S
C2016 C2015 1.398 . S
C2016 C2017 1.391 . S
C2017 H2005 0.950 . S
C2017 C2013 1.393 . S
C2017 C2016 1.391 . S
C2018 H2008 0.950 . S
C2018 C2019 1.386 . S
C2018 C2020 1.391 . S
C2019 C2018 1.386 . S
C2019 C2023 1.393 . S
C2020 H2009 0.950 . S
C2020 C2018 1.391 . S
C2020 C2021 1.400 . S
C2021 C2015 1.491 . S
C2021 C2020 1.400 . S
C2021 C2022 1.398 . S
C2022 H2010 0.950 . S
C2022 C2021 1.398 . S
C2022 C2023 1.391 . S
C2023 H2011 0.950 . S
C2023 C2019 1.393 . S
C2023 C2022 1.391 . S
H2024 C2032 0.950 . S
H2025 C2037 0.950 . S
H2026 C2034 0.950 . S
H2027 C2036 0.950 . S
H2028 C2038 0.950 . S
H2029 C2040 0.950 . S
H2030 C2042 0.950 . S
H2031 C2043 0.950 . S
C2032 H2024 0.950 . S
C2032 C2033 1.386 . S
C2032 C2034 1.391 . S
C2033 C2032 1.386 . S
C2033 C2037 1.393 . S
C2034 H2026 0.950 . S
C2034 C2032 1.391 . S
C2034 C2035 1.400 . S
C2035 C2034 1.400 . S
C2035 C2036 1.398 . S
C2035 C2041 1.491 . S
C2036 H2027 0.950 . S
C2036 C2035 1.398 . S
C2036 C2037 1.391 . S
C2037 H2025 0.950 . S
C2037 C2033 1.393 . S
C2037 C2036 1.391 . S
C2038 H2028 0.950 . S
C2038 C2039 1.386 . S
C2038 C2040 1.391 . S
C2039 C2038 1.386 . S
C2039 C2043 1.393 . S
C2040 H2029 0.950 . S
C2040 C2038 1.391 . S
C2040 C2041 1.400 . S
C2041 C2035 1.491 . S
C2041 C2040 1.400 . S
C2041 C2042 1.398 . S
C2042 H2030 0.950 . S
C2042 C2041 1.398 . S
C2042 C2043 1.391 . S
C2043 H2031 0.950 . S
C2043 C2039 1.393 . S
C2043 C2042 1.391 . S
H2044 C2052 0.950 . S
H2045 C2057 0.950 . S
H2046 C2054 0.950 . S
H2047 C2056 0.950 . S
H2048 C2058 0.950 . S
H2049 C2060 0.950 . S
H2050 C2062 0.950 . S
H2051 C2063 0.950 . S
C2052 H2044 0.950 . S
C2052 C2053 1.386 . S
C2052 C2054 1.391 . S
C2053 C2052 1.386 . S
C2053 C2057 1.393 . S
C2054 H2046 0.950 . S
C2054 C2052 1.391 . S
C2054 C2055 1.400 . S
C2055 C2054 1.400 . S
C2055 C2056 1.398 . S
C2055 C2061 1.491 . S
C2056 H2047 0.950 . S
C2056 C2055 1.398 . S
C2056 C2057 1.391 . S
C2057 H2045 0.950 . S
C2057 C2053 1.393 . S
C2057 C2056 1.391 . S
C2058 H2048 0.950 . S
C2058 C2059 1.386 . S
C2058 C2060 1.391 . S
C2059 C2058 1.386 . S
C2059 C2063 1.393 . S
C2060 H2049 0.950 . S
C2060 C2058 1.391 . S
C2060 C2061 1.400 . S
C2061 C2055 1.491 . S
C2061 C2060 1.400 . S
C2061 C2062 1.398 . S
C2062 H2050 0.950 . S
C2062 C2061 1.398 . S
C2062 C2063 1.391 . S
C2063 H2051 0.950 . S
C2063 C2059 1.393 . S
C2063 C2062 1.391 . S
H2064 C2072 0.950 . S
H2065 C2077 0.950 . S
H2066 C2074 0.950 . S
H2067 C2076 0.950 . S
H2068 C2078 0.950 . S
H2069 C2080 0.950 . S
H2070 C2082 0.950 . S
H2071 C2083 0.950 . S
C2072 H2064 0.950 . S
C2072 C2073 1.386 . S
C2072 C2074 1.391 . S
C2073 C2072 1.386 . S
C2073 C2077 1.393 . S
C2074 H2066 0.950 . S
C2074 C2072 1.391 . S
C2074 C2075 1.400 . S
C2075 C2074 1.400 . S
C2075 C2076 1.398 . S
C2075 C2081 1.491 . S
C2076 H2067 0.950 . S
C2076 C2075 1.398 . S
C2076 C2077 1.391 . S
C2077 H2065 0.950 . S
C2077 C2073 1.393 . S
C2077 C2076 1.391 . S
C2078 H2068 0.950 . S
C2078 C2079 1.386 . S
C2078 C2080 1.391 . S
C2079 C2078 1.386 . S
C2079 C2083 1.393 . S
C2080 H2069 0.950 . S
C2080 C2078 1.391 . S
C2080 C2081 1.400 . S
C2081 C2075 1.491 . S
C2081 C2080 1.400 . S
C2081 C2082 1.398 . S
C2082 H2070 0.950 . S
C2082 C2081 1.398 . S
C2082 C2083 1.391 . S
C2083 H2071 0.950 . S
C2083 C2079 1.393 . S
C2083 C2082 1.391 . S
H2084 C2092 0.950 . S
H2085 C2097 0.950 . S
H2086 C2094 0.950 . S
H2087 C2096 0.950 . S
H2088 C2098 0.950 . S
H2089 C2100 0.950 . S
H2090 C2102 0.950 . S
H2091 C2103 0.950 . S
C2092 H2084 0.950 . S
C2092 C2093 1.386 . S
C2092 C2094 1.391 . S
C2093 C2092 1.386 . S
C2093 C2097 1.393 . S
C2094 H2086 0.950 . S
C2094 C2092 1.391 . S
C2094 C2095 1.400 . S
C2095 C2094 1.400 . S
C2095 C2096 1.398 . S
C2095 C2101 1.491 . S
C2096 H2087 0.950 . S
C2096 C2095 1.398 . S
C2096 C2097 1.391 . S
C2097 H2085 0.950 . S
C2097 C2093 1.393 . S
C2097 C2096 1.391 . S
C2098 H2088 0.950 . S
C2098 C2099 1.386 . S
C2098 C2100 1.391 . S
C2099 C2098 1.386 . S
C2099 C2103 1.393 . S
C2100 H2089 0.950 . S
C2100 C2098 1.391 . S
C2100 C2101 1.400 . S
C2101 C2095 1.491 . S
C2101 C2100 1.400 . S
C2101 C2102 1.398 . S
C2102 H2090 0.950 . S
C2102 C2101 1.398 . S
C2102 C2103 1.391 . S
C2103 H2091 0.950 . S
C2103 C2099 1.393 . S
C2103 C2102 1.391 . S
H2104 C2112 0.950 . S
H2105 C2117 0.950 . S
H2106 C2114 0.950 . S
H2107 C2116 0.950 . S
H2108 C2118 0.950 . S
H2109 C2120 0.950 . S
H2110 C2122 0.950 . S
H2111 C2123 0.950 . S
C2112 H2104 0.950 . S
C2112 C2113 1.386 . S
C2112 C2114 1.391 . S
C2113 C2112 1.386 . S
C2113 C2117 1.393 . S
C2114 H2106 0.950 . S
C2114 C2112 1.391 . S
C2114 C2115 1.400 . S
C2115 C2114 1.400 . S
C2115 C2116 1.398 . S
C2115 C2121 1.491 . S
C2116 H2107 0.950 . S
C2116 C2115 1.398 . S
C2116 C2117 1.391 . S
C2117 H2105 0.950 . S
C2117 C2113 1.393 . S
C2117 C2116 1.391 . S
C2118 H2108 0.950 . S
C2118 C2119 1.386 . S
C2118 C2120 1.391 . S
C2119 C2118 1.386 . S
C2119 C2123 1.393 . S
C2120 H2109 0.950 . S
C2120 C2118 1.391 . S
C2120 C2121 1.400 . S
C2121 C2115 1.491 . S
C2121 C2120 1.400 . S
C2121 C2122 1.398 . S
C2122 H2110 0.950 . S
C2122 C2121 1.398 . S
C2122 C2123 1.391 . S
C2123 H2111 0.950 . S
C2123 C2119 1.393 . S
C2123 C2122 1.391 . S
H2124 C2132 0.950 . S
H2125 C2137 0.950 . S
H2126 C2134 0.950 . S
H2127 C2136 0.950 . S
H2128 C2138 0.950 . S
H2129 C2140 0.950 . S
H2130 C2142 0.950 . S
H2131 C2143 0.950 . S
C2132 H2124 0.950 . S
C2132 C2133 1.386 . S
C2132 C2134 1.391 . S
C2133 C2132 1.386 . S
C2133 C2137 1.393 . S
C2134 H2126 0.950 . S
C2134 C2132 1.391 . S
C2134 C2135 1.400 . S
C2135 C2134 1.400 . S
C2135 C2136 1.398 . S
C2135 C2141 1.491 . S
C2136 H2127 0.950 . S
C2136 C2135 1.398 . S
C2136 C2137 1.391 . S
C2137 H2125 0.950 . S
C2137 C2133 1.393 . S
C2137 C2136 1.391 . S
C2138 H2128 0.950 . S
C2138 C2139 1.386 . S
C2138 C2140 1.391 . S
C2139 C2138 1.386 . S
C2139 C2143 1.393 . S
C2140 H2129 0.950 . S
C2140 C2138 1.391 . S
C2140 C2141 1.400 . S
C2141 C2135 1.491 . S
C2141 C2140 1.400 . S
C2141 C2142 1.398 . S
C2142 H2130 0.950 . S
C2142 C2141 1.398 . S
C2142 C2143 1.391 . S
C2143 H2131 0.950 . S
C2143 C2139 1.393 . S
C2143 C2142 1.391 . S
H2144 C2152 0.950 . S
H2145 C2157 0.950 . S
H2146 C2154 0.950 . S
H2147 C2156 0.950 . S
H2148 C2158 0.950 . S
H2149 C2160 0.950 . S
H2150 C2162 0.950 . S
H2151 C2163 0.950 . S
C2152 H2144 0.950 . S
C2152 C2153 1.386 . S
C2152 C2154 1.391 . S
C2153 C2152 1.386 . S
C2153 C2157 1.393 . S
C2154 H2146 0.950 . S
C2154 C2152 1.391 . S
C2154 C2155 1.400 . S
C2155 C2154 1.400 . S
C2155 C2156 1.398 . S
C2155 C2161 1.491 . S
C2156 H2147 0.950 . S
C2156 C2155 1.398 . S
C2156 C2157 1.391 . S
C2157 H2145 0.950 . S
C2157 C2153 1.393 . S
C2157 C2156 1.391 . S
C2158 H2148 0.950 . S
C2158 C2159 1.386 . S
C2158 C2160 1.391 . S
C2159 C2158 1.386 . S
C2159 C2163 1.393 . S
C2160 H2149 0.950 . S
C2160 C2158 1.391 . S
C2160 C2161 1.400 . S
C2161 C2155 1.491 . S
C2161 C2160 1.400 . S
C2161 C2162 1.398 . S
C2162 H2150 0.950 . S
C2162 C2161 1.398 . S
C2162 C2163 1.391 . S
C2163 H2151 0.950 . S
C2163 C2159 1.393 . S
C2163 C2162 1.391 . S
H2164 C2172 0.950 . S
H2165 C2177 0.950 . S
H2166 C2174 0.950 . S
H2167 C2176 0.950 . S
H2168 C2178 0.950 . S
H2169 C2180 0.950 . S
H2170 C2182 0.950 . S
H2171 C2183 0.950 . S
C2172 H2164 0.950 . S
C2172 C2173 1.386 . S
C2172 C2174 1.391 . S
C2173 C2172 1.386 . S
C2173 C2177 1.393 . S
C2174 H2166 0.950 . S
C2174 C2172 1.391 . S
C2174 C2175 1.400 . S
C2175 C2174 1.400 . S
C2175 C2176 1.398 . S
C2175 C2181 1.491 . S
C2176 H2167 0.950 . S
C2176 C2175 1.398 . S
C2176 C2177 1.391 . S
C2177 H2165 0.950 . S
C2177 C2173 1.393 . S
C2177 C2176 1.391 . S
C2178 H2168 0.950 . S
C2178 C2179 1.386 . S
C2178 C2180 1.391 . S
C2179 C2178 1.386 . S
C2179 C2183 1.393 . S
C2180 H2169 0.950 . S
C2180 C2178 1.391 . S
C2180 C2181 1.400 . S
C2181 C2175 1.491 . S
C2181 C2180 1.400 . S
C2181 C2182 1.398 . S
C2182 H2170 0.950 . S
C2182 C2181 1.398 . S
C2182 C2183 1.391 . S
C2183 H2171 0.950 . S
C2183 C2179 1.393 . S
C2183 C2182 1.391 . S
H2184 C2192 0.950 . S
H2185 C2197 0.950 . S
H2186 C2194 0.950 . S
H2187 C2196 0.950 . S
H2188 C2198 0.950 . S
H2189 C2200 0.950 . S
H2190 C2202 0.950 . S
H2191 C2203 0.950 . S
C2192 H2184 0.950 . S
C2192 C2193 1.386 . S
C2192 C2194 1.391 . S
C2193 C2192 1.386 . S
C2193 C2197 1.393 . S
C2194 H2186 0.950 . S
C2194 C2192 1.391 . S
C2194 C2195 1.400 . S
C2195 C2194 1.400 . S
C2195 C2196 1.398 . S
C2195 C2201 1.491 . S
C2196 H2187 0.950 . S
C2196 C2195 1.398 . S
C2196 C2197 1.391 . S
C2197 H2185 0.950 . S
C2197 C2193 1.393 . S
C2197 C2196 1.391 . S
C2198 H2188 0.950 . S
C2198 C2199 1.386 . S
C2198 C2200 1.391 . S
C2199 C2198 1.386 . S
C2199 C2203 1.393 . S
C2200 H2189 0.950 . S
C2200 C2198 1.391 . S
C2200 C2201 1.400 . S
C2201 C2195 1.491 . S
C2201 C2200 1.400 . S
C2201 C2202 1.398 . S
C2202 H2190 0.950 . S
C2202 C2201 1.398 . S
C2202 C2203 1.391 . S
C2203 H2191 0.950 . S
C2203 C2199 1.393 . S
C2203 C2202 1.391 . S
H2204 C2212 0.950 . S
H2205 C2217 0.950 . S
H2206 C2214 0.950 . S
H2207 C2216 0.950 . S
H2208 C2218 0.950 . S
H2209 C2220 0.950 . S
H2210 C2222 0.950 . S
H2211 C2223 0.950 . S
C2212 H2204 0.950 . S
C2212 C2213 1.386 . S
C2212 C2214 1.391 . S
C2213 C2212 1.386 . S
C2213 C2217 1.393 . S
C2214 H2206 0.950 . S
C2214 C2212 1.391 . S
C2214 C2215 1.400 . S
C2215 C2214 1.400 . S
C2215 C2216 1.398 . S
C2215 C2221 1.491 . S
C2216 H2207 0.950 . S
C2216 C2215 1.398 . S
C2216 C2217 1.391 . S
C2217 H2205 0.950 . S
C2217 C2213 1.393 . S
C2217 C2216 1.391 . S
C2218 H2208 0.950 . S
C2218 C2219 1.386 . S
C2218 C2220 1.391 . S
C2219 C2218 1.386 . S
C2219 C2223 1.393 . S
C2220 H2209 0.950 . S
C2220 C2218 1.391 . S
C2220 C2221 1.400 . S
C2221 C2215 1.491 . S
C2221 C2220 1.400 . S
C2221 C2222 1.398 . S
C2222 H2210 0.950 . S
C2222 C2221 1.398 . S
C2222 C2223 1.391 . S
C2223 H2211 0.950 . S
C2223 C2219 1.393 . S
C2223 C2222 1.391 . S
H2224 C2232 0.950 . S
H2225 C2237 0.950 . S
H2226 C2234 0.950 . S
H2227 C2236 0.950 . S
H2228 C2238 0.950 . S
H2229 C2240 0.950 . S
H2230 C2242 0.950 . S
H2231 C2243 0.950 . S
C2232 H2224 0.950 . S
C2232 C2233 1.386 . S
C2232 C2234 1.391 . S
C2233 C2232 1.386 . S
C2233 C2237 1.393 . S
C2234 H2226 0.950 . S
C2234 C2232 1.391 . S
C2234 C2235 1.400 . S
C2235 C2234 1.400 . S
C2235 C2236 1.398 . S
C2235 C2241 1.491 . S
C2236 H2227 0.950 . S
C2236 C2235 1.398 . S
C2236 C2237 1.391 . S
C2237 H2225 0.950 . S
C2237 C2233 1.393 . S
C2237 C2236 1.391 . S
C2238 H2228 0.950 . S
C2238 C2239 1.386 . S
C2238 C2240 1.391 . S
C2239 C2238 1.386 . S
C2239 C2243 1.393 . S
C2240 H2229 0.950 . S
C2240 C2238 1.391 . S
C2240 C2241 1.400 . S
C2241 C2235 1.491 . S
C2241 C2240 1.400 . S
C2241 C2242 1.398 . S
C2242 H2230 0.950 . S
C2242 C2241 1.398 . S
C2242 C2243 1.391 . S
C2243 H2231 0.950 . S
C2243 C2239 1.393 . S
C2243 C2242 1.391 . S
H2244 C2252 0.950 . S
H2245 C2257 0.950 . S
H2246 C2254 0.950 . S
H2247 C2256 0.950 . S
H2248 C2258 0.950 . S
H2249 C2260 0.950 . S
H2250 C2262 0.950 . S
H2251 C2263 0.950 . S
C2252 H2244 0.950 . S
C2252 C2253 1.386 . S
C2252 C2254 1.391 . S
C2253 C2252 1.386 . S
C2253 C2257 1.393 . S
C2254 H2246 0.950 . S
C2254 C2252 1.391 . S
C2254 C2255 1.400 . S
C2255 C2254 1.400 . S
C2255 C2256 1.398 . S
C2255 C2261 1.491 . S
C2256 H2247 0.950 . S
C2256 C2255 1.398 . S
C2256 C2257 1.391 . S
C2257 H2245 0.950 . S
C2257 C2253 1.393 . S
C2257 C2256 1.391 . S
C2258 H2248 0.950 . S
C2258 C2259 1.386 . S
C2258 C2260 1.391 . S
C2259 C2258 1.386 . S
C2259 C2263 1.393 . S
C2260 H2249 0.950 . S
C2260 C2258 1.391 . S
C2260 C2261 1.400 . S
C2261 C2255 1.491 . S
C2261 C2260 1.400 . S
C2261 C2262 1.398 . S
C2262 H2250 0.950 . S
C2262 C2261 1.398 . S
C2262 C2263 1.391 . S
C2263 H2251 0.950 . S
C2263 C2259 1.393 . S
C2263 C2262 1.391 . S
H2264 C2272 0.950 . S
H2265 C2277 0.950 . S
H2266 C2274 0.950 . S
H2267 C2276 0.950 . S
H2268 C2278 0.950 . S
H2269 C2280 0.950 . S
H2270 C2282 0.950 . S
H2271 C2283 0.950 . S
C2272 H2264 0.950 . S
C2272 C2273 1.386 . S
C2272 C2274 1.391 . S
C2273 C2272 1.386 . S
C2273 C2277 1.393 . S
C2274 H2266 0.950 . S
C2274 C2272 1.391 . S
C2274 C2275 1.400 . S
C2275 C2274 1.400 . S
C2275 C2276 1.398 . S
C2275 C2281 1.491 . S
C2276 H2267 0.950 . S
C2276 C2275 1.398 . S
C2276 C2277 1.391 . S
C2277 H2265 0.950 . S
C2277 C2273 1.393 . S
C2277 C2276 1.391 . S
C2278 H2268 0.950 . S
C2278 C2279 1.386 . S
C2278 C2280 1.391 . S
C2279 C2278 1.386 . S
C2279 C2283 1.393 . S
C2280 H2269 0.950 . S
C2280 C2278 1.391 . S
C2280 C2281 1.400 . S
C2281 C2275 1.491 . S
C2281 C2280 1.400 . S
C2281 C2282 1.398 . S
C2282 H2270 0.950 . S
C2282 C2281 1.398 . S
C2282 C2283 1.391 . S
C2283 H2271 0.950 . S
C2283 C2279 1.393 . S
C2283 C2282 1.391 . S
H2284 C2292 0.950 . S
H2285 C2297 0.950 . S
H2286 C2294 0.950 . S
H2287 C2296 0.950 . S
H2288 C2298 0.950 . S
H2289 C2300 0.950 . S
H2290 C2302 0.950 . S
H2291 C2303 0.950 . S
C2292 H2284 0.950 . S
C2292 C2293 1.386 . S
C2292 C2294 1.391 . S
C2293 C2292 1.386 . S
C2293 C2297 1.393 . S
C2294 H2286 0.950 . S
C2294 C2292 1.391 . S
C2294 C2295 1.400 . S
C2295 C2294 1.400 . S
C2295 C2296 1.398 . S
C2295 C2301 1.491 . S
C2296 H2287 0.950 . S
C2296 C2295 1.398 . S
C2296 C2297 1.391 . S
C2297 H2285 0.950 . S
C2297 C2293 1.393 . S
C2297 C2296 1.391 . S
C2298 H2288 0.950 . S
C2298 C2299 1.386 . S
C2298 C2300 1.391 . S
C2299 C2298 1.386 . S
C2299 C2303 1.393 . S
C2300 H2289 0.950 . S
C2300 C2298 1.391 . S
C2300 C2301 1.400 . S
C2301 C2295 1.491 . S
C2301 C2300 1.400 . S
C2301 C2302 1.398 . S
C2302 H2290 0.950 . S
C2302 C2301 1.398 . S
C2302 C2303 1.391 . S
C2303 H2291 0.950 . S
C2303 C2299 1.393 . S
C2303 C2302 1.391 . S
H2304 C2312 0.950 . S
H2305 C2317 0.950 . S
H2306 C2314 0.950 . S
H2307 C2316 0.950 . S
H2308 C2318 0.950 . S
H2309 C2320 0.950 . S
H2310 C2322 0.950 . S
H2311 C2323 0.950 . S
C2312 H2304 0.950 . S
C2312 C2313 1.386 . S
C2312 C2314 1.391 . S
C2313 C2312 1.386 . S
C2313 C2317 1.393 . S
C2314 H2306 0.950 . S
C2314 C2312 1.391 . S
C2314 C2315 1.400 . S
C2315 C2314 1.400 . S
C2315 C2316 1.398 . S
C2315 C2321 1.491 . S
C2316 H2307 0.950 . S
C2316 C2315 1.398 . S
C2316 C2317 1.391 . S
C2317 H2305 0.950 . S
C2317 C2313 1.393 . S
C2317 C2316 1.391 . S
C2318 H2308 0.950 . S
C2318 C2319 1.386 . S
C2318 C2320 1.391 . S
C2319 C2318 1.386 . S
C2319 C2323 1.393 . S
C2320 H2309 0.950 . S
C2320 C2318 1.391 . S
C2320 C2321 1.400 . S
C2321 C2315 1.491 . S
C2321 C2320 1.400 . S
C2321 C2322 1.398 . S
C2322 H2310 0.950 . S
C2322 C2321 1.398 . S
C2322 C2323 1.391 . S
C2323 H2311 0.950 . S
C2323 C2319 1.393 . S
C2323 C2322 1.391 . S
H2324 C2332 0.950 . S
H2325 C2337 0.950 . S
H2326 C2334 0.950 . S
H2327 C2336 0.950 . S
H2328 C2338 0.950 . S
H2329 C2340 0.950 . S
H2330 C2342 0.950 . S
H2331 C2343 0.950 . S
C2332 H2324 0.950 . S
C2332 C2333 1.386 . S
C2332 C2334 1.391 . S
C2333 C2332 1.386 . S
C2333 C2337 1.393 . S
C2334 H2326 0.950 . S
C2334 C2332 1.391 . S
C2334 C2335 1.400 . S
C2335 C2334 1.400 . S
C2335 C2336 1.398 . S
C2335 C2341 1.491 . S
C2336 H2327 0.950 . S
C2336 C2335 1.398 . S
C2336 C2337 1.391 . S
C2337 H2325 0.950 . S
C2337 C2333 1.393 . S
C2337 C2336 1.391 . S
C2338 H2328 0.950 . S
C2338 C2339 1.386 . S
C2338 C2340 1.391 . S
C2339 C2338 1.386 . S
C2339 C2343 1.393 . S
C2340 H2329 0.950 . S
C2340 C2338 1.391 . S
C2340 C2341 1.400 . S
C2341 C2335 1.491 . S
C2341 C2340 1.400 . S
C2341 C2342 1.398 . S
C2342 H2330 0.950 . S
C2342 C2341 1.398 . S
C2342 C2343 1.391 . S
C2343 H2331 0.950 . S
C2343 C2339 1.393 . S
C2343 C2342 1.391 . S
H2344 C2352 0.950 . S
H2345 C2357 0.950 . S
H2346 C2354 0.950 . S
H2347 C2356 0.950 . S
H2348 C2358 0.950 . S
H2349 C2360 0.950 . S
H2350 C2362 0.950 . S
H2351 C2363 0.950 . S
C2352 H2344 0.950 . S
C2352 C2353 1.386 . S
C2352 C2354 1.391 . S
C2353 C2352 1.386 . S
C2353 C2357 1.393 . S
C2354 H2346 0.950 . S
C2354 C2352 1.391 . S
C2354 C2355 1.400 . S
C2355 C2354 1.400 . S
C2355 C2356 1.398 . S
C2355 C2361 1.491 . S
C2356 H2347 0.950 . S
C2356 C2355 1.398 . S
C2356 C2357 1.391 . S
C2357 H2345 0.950 . S
C2357 C2353 1.393 . S
C2357 C2356 1.391 . S
C2358 H2348 0.950 . S
C2358 C2359 1.386 . S
C2358 C2360 1.391 . S
C2359 C2358 1.386 . S
C2359 C2363 1.393 . S
C2360 H2349 0.950 . S
C2360 C2358 1.391 . S
C2360 C2361 1.400 . S
C2361 C2355 1.491 . S
C2361 C2360 1.400 . S
C2361 C2362 1.398 . S
C2362 H2350 0.950 . S
C2362 C2361 1.398 . S
C2362 C2363 1.391 . S
C2363 H2351 0.950 . S
C2363 C2359 1.393 . S
C2363 C2362 1.391 . S
H2364 C2372 0.950 . S
H2365 C2377 0.950 . S
H2366 C2374 0.950 . S
H2367 C2376 0.950 . S
H2368 C2378 0.950 . S
H2369 C2380 0.950 . S
H2370 C2382 0.950 . S
H2371 C2383 0.950 . S
C2372 H2364 0.950 . S
C2372 C2373 1.386 . S
C2372 C2374 1.391 . S
C2373 C2372 1.386 . S
C2373 C2377 1.393 . S
C2374 H2366 0.950 . S
C2374 C2372 1.391 . S
C2374 C2375 1.400 . S
C2375 C2374 1.400 . S
C2375 C2376 1.398 . S
C2375 C2381 1.491 . S
C2376 H2367 0.950 . S
C2376 C2375 1.398 . S
C2376 C2377 1.391 . S
C2377 H2365 0.950 . S
C2377 C2373 1.393 . S
C2377 C2376 1.391 . S
C2378 H2368 0.950 . S
C2378 C2379 1.386 . S
C2378 C2380 1.391 . S
C2379 C2378 1.386 . S
C2379 C2383 1.393 . S
C2380 H2369 0.950 . S
C2380 C2378 1.391 . S
C2380 C2381 1.400 . S
C2381 C2375 1.491 . S
C2381 C2380 1.400 . S
C2381 C2382 1.398 . S
C2382 H2370 0.950 . S
C2382 C2381 1.398 . S
C2382 C2383 1.391 . S
C2383 H2371 0.950 . S
C2383 C2379 1.393 . S
C2383 C2382 1.391 . S
H2384 C2392 0.950 . S
H2385 C2397 0.950 . S
H2386 C2394 0.950 . S
H2387 C2396 0.950 . S
H2388 C2398 0.950 . S
H2389 C2400 0.950 . S
H2390 C2402 0.950 . S
H2391 C2403 0.950 . S
C2392 H2384 0.950 . S
C2392 C2393 1.386 . S
C2392 C2394 1.391 . S
C2393 C2392 1.386 . S
C2393 C2397 1.393 . S
C2394 H2386 0.950 . S
C2394 C2392 1.391 . S
C2394 C2395 1.400 . S
C2395 C2394 1.400 . S
C2395 C2396 1.398 . S
C2395 C2401 1.491 . S
C2396 H2387 0.950 . S
C2396 C2395 1.398 . S
C2396 C2397 1.391 . S
C2397 H2385 0.950 . S
C2397 C2393 1.393 . S
C2397 C2396 1.391 . S
C2398 H2388 0.950 . S
C2398 C2399 1.386 . S
C2398 C2400 1.391 . S
C2399 C2398 1.386 . S
C2399 C2403 1.393 . S
C2400 H2389 0.950 . S
C2400 C2398 1.391 . S
C2400 C2401 1.400 . S
C2401 C2395 1.491 . S
C2401 C2400 1.400 . S
C2401 C2402 1.398 . S
C2402 H2390 0.950 . S
C2402 C2401 1.398 . S
C2402 C2403 1.391 . S
C2403 H2391 0.950 . S
C2403 C2399 1.393 . S
C2403 C2402 1.391 . S
H2404 C2412 0.950 . S
H2405 C2417 0.950 . S
H2406 C2414 0.950 . S
H2407 C2416 0.950 . S
H2408 C2418 0.950 . S
H2409 C2420 0.950 . S
H2410 C2422 0.950 . S
H2411 C2423 0.950 . S
C2412 H2404 0.950 . S
C2412 C2413 1.386 . S
C2412 C2414 1.391 . S
C2413 C2412 1.386 . S
C2413 C2417 1.393 . S
C2414 H2406 0.950 . S
C2414 C2412 1.391 . S
C2414 C2415 1.400 . S
C2415 C2414 1.400 . S
C2415 C2416 1.398 . S
C2415 C2421 1.491 . S
C2416 H2407 0.950 . S
C2416 C2415 1.398 . S
C2416 C2417 1.391 . S
C2417 H2405 0.950 . S
C2417 C2413 1.393 . S
C2417 C2416 1.391 . S
C2418 H2408 0.950 . S
C2418 C2419 1.386 . S
C2418 C2420 1.391 . S
C2419 C2418 1.386 . S
C2419 C2423 1.393 . S
C2420 H2409 0.950 . S
C2420 C2418 1.391 . S
C2420 C2421 1.400 . S
C2421 C2415 1.491 . S
C2421 C2420 1.400 . S
C2421 C2422 1.398 . S
C2422 H2410 0.950 . S
C2422 C2421 1.398 . S
C2422 C2423 1.391 . S
C2423 H2411 0.950 . S
C2423 C2419 1.393 . S
C2423 C2422 1.391 . S
H2424 C2432 0.950 . S
H2425 C2437 0.950 . S
H2426 C2434 0.950 . S
H2427 C2436 0.950 . S
H2428 C2438 0.950 . S
H2429 C2440 0.950 . S
H2430 C2442 0.950 . S
H2431 C2443 0.950 . S
C2432 H2424 0.950 . S
C2432 C2433 1.386 . S
C2432 C2434 1.391 . S
C2433 C2432 1.386 . S
C2433 C2437 1.393 . S
C2434 H2426 0.950 . S
C2434 C2432 1.391 . S
C2434 C2435 1.400 . S
C2435 C2434 1.400 . S
C2435 C2436 1.398 . S
C2435 C2441 1.491 . S
C2436 H2427 0.950 . S
C2436 C2435 1.398 . S
C2436 C2437 1.391 . S
C2437 H2425 0.950 . S
C2437 C2433 1.393 . S
C2437 C2436 1.391 . S
C2438 H2428 0.950 . S
C2438 C2439 1.386 . S
C2438 C2440 1.391 . S
C2439 C2438 1.386 . S
C2439 C2443 1.393 . S
C2440 H2429 0.950 . S
C2440 C2438 1.391 . S
C2440 C2441 1.400 . S
C2441 C2435 1.491 . S
C2441 C2440 1.400 . S
C2441 C2442 1.398 . S
C2442 H2430 0.950 . S
C2442 C2441 1.398 . S
C2442 C2443 1.391 . S
C2443 H2431 0.950 . S
C2443 C2439 1.393 . S
C2443 C2442 1.391 . S
H2444 C2452 0.950 . S
H2445 C2457 0.950 . S
H2446 C2454 0.950 . S
H2447 C2456 0.950 . S
H2448 C2458 0.950 . S
H2449 C2460 0.950 . S
H2450 C2462 0.950 . S
H2451 C2463 0.950 . S
C2452 H2444 0.950 . S
C2452 C2453 1.386 . S
C2452 C2454 1.391 . S
C2453 C2452 1.386 . S
C2453 C2457 1.393 . S
C2454 H2446 0.950 . S
C2454 C2452 1.391 . S
C2454 C2455 1.400 . S
C2455 C2454 1.400 . S
C2455 C2456 1.398 . S
C2455 C2461 1.491 . S
C2456 H2447 0.950 . S
C2456 C2455 1.398 . S
C2456 C2457 1.391 . S
C2457 H2445 0.950 . S
C2457 C2453 1.393 . S
C2457 C2456 1.391 . S
C2458 H2448 0.950 . S
C2458 C2459 1.386 . S
C2458 C2460 1.391 . S
C2459 C2458 1.386 . S
C2459 C2463 1.393 . S
C2460 H2449 0.950 . S
C2460 C2458 1.391 . S
C2460 C2461 1.400 . S
C2461 C2455 1.491 . S
C2461 C2460 1.400 . S
C2461 C2462 1.398 . S
C2462 H2450 0.950 . S
C2462 C2461 1.398 . S
C2462 C2463 1.391 . S
C2463 H2451 0.950 . S
C2463 C2459 1.393 . S
C2463 C2462 1.391 . S
H2464 C2472 0.950 . S
H2465 C2477 0.950 . S
H2466 C2474 0.950 . S
H2467 C2476 0.950 . S
H2468 C2478 0.950 . S
H2469 C2480 0.950 . S
H2470 C2482 0.950 . S
H2471 C2483 0.950 . S
C2472 H2464 0.950 . S
C2472 C2473 1.386 . S
C2472 C2474 1.391 . S
C2473 C2472 1.386 . S
C2473 C2477 1.393 . S
C2474 H2466 0.950 . S
C2474 C2472 1.391 . S
C2474 C2475 1.400 . S
C2475 C2474 1.400 . S
C2475 C2476 1.398 . S
C2475 C2481 1.491 . S
C2476 H2467 0.950 . S
C2476 C2475 1.398 . S
C2476 C2477 1.391 . S
C2477 H2465 0.950 . S
C2477 C2473 1.393 . S
C2477 C2476 1.391 . S
C2478 H2468 0.950 . S
C2478 C2479 1.386 . S
C2478 C2480 1.391 . S
C2479 C2478 1.386 . S
C2479 C2483 1.393 . S
C2480 H2469 0.950 . S
C2480 C2478 1.391 . S
C2480 C2481 1.400 . S
C2481 C2475 1.491 . S
C2481 C2480 1.400 . S
C2481 C2482 1.398 . S
C2482 H2470 0.950 . S
C2482 C2481 1.398 . S
C2482 C2483 1.391 . S
C2483 H2471 0.950 . S
C2483 C2479 1.393 . S
C2483 C2482 1.391 . S
H2484 C2492 0.950 . S
H2485 C2497 0.950 . S
H2486 C2494 0.950 . S
H2487 C2496 0.950 . S
H2488 C2498 0.950 . S
H2489 C2500 0.950 . S
H2490 C2502 0.950 . S
H2491 C2503 0.950 . S
C2492 H2484 0.950 . S
C2492 C2493 1.386 . S
C2492 C2494 1.391 . S
C2493 C2492 1.386 . S
C2493 C2497 1.393 . S
C2494 H2486 0.950 . S
C2494 C2492 1.391 . S
C2494 C2495 1.400 . S
C2495 C2494 1.400 . S
C2495 C2496 1.398 . S
C2495 C2501 1.491 . S
C2496 H2487 0.950 . S
C2496 C2495 1.398 . S
C2496 C2497 1.391 . S
C2497 H2485 0.950 . S
C2497 C2493 1.393 . S
C2497 C2496 1.391 . S
C2498 H2488 0.950 . S
C2498 C2499 1.386 . S
C2498 C2500 1.391 . S
C2499 C2498 1.386 . S
C2499 C2503 1.393 . S
C2500 H2489 0.950 . S
C2500 C2498 1.391 . S
C2500 C2501 1.400 . S
C2501 C2495 1.491 . S
C2501 C2500 1.400 . S
C2501 C2502 1.398 . S
C2502 H2490 0.950 . S
C2502 C2501 1.398 . S
C2502 C2503 1.391 . S
C2503 H2491 0.950 . S
C2503 C2499 1.393 . S
C2503 C2502 1.391 . S
H2504 C2512 0.950 . S
H2505 C2517 0.950 . S
H2506 C2514 0.950 . S
H2507 C2516 0.950 . S
H2508 C2518 0.950 . S
H2509 C2520 0.950 . S
H2510 C2522 0.950 . S
H2511 C2523 0.950 . S
C2512 H2504 0.950 . S
C2512 C2513 1.386 . S
C2512 C2514 1.391 . S
C2513 C2512 1.386 . S
C2513 C2517 1.393 . S
C2514 H2506 0.950 . S
C2514 C2512 1.391 . S
C2514 C2515 1.400 . S
C2515 C2514 1.400 . S
C2515 C2516 1.398 . S
C2515 C2521 1.491 . S
C2516 H2507 0.950 . S
C2516 C2515 1.398 . S
C2516 C2517 1.391 . S
C2517 H2505 0.950 . S
C2517 C2513 1.393 . S
C2517 C2516 1.391 . S
C2518 H2508 0.950 . S
C2518 C2519 1.386 . S
C2518 C2520 1.391 . S
C2519 C2518 1.386 . S
C2519 C2523 1.393 . S
C2520 H2509 0.950 . S
C2520 C2518 1.391 . S
C2520 C2521 1.400 . S
C2521 C2515 1.491 . S
C2521 C2520 1.400 . S
C2521 C2522 1.398 . S
C2522 H2510 0.950 . S
C2522 C2521 1.398 . S
C2522 C2523 1.391 . S
C2523 H2511 0.950 . S
C2523 C2519 1.393 . S
C2523 C2522 1.391 . S
H2524 C2532 0.950 . S
H2525 C2537 0.950 . S
H2526 C2534 0.950 . S
H2527 C2536 0.950 . S
H2528 C2538 0.950 . S
H2529 C2540 0.950 . S
H2530 C2542 0.950 . S
H2531 C2543 0.950 . S
C2532 H2524 0.950 . S
C2532 C2533 1.386 . S
C2532 C2534 1.391 . S
C2533 C2532 1.386 . S
C2533 C2537 1.393 . S
C2534 H2526 0.950 . S
C2534 C2532 1.391 . S
C2534 C2535 1.400 . S
C2535 C2534 1.400 . S
C2535 C2536 1.398 . S
C2535 C2541 1.491 . S
C2536 H2527 0.950 . S
C2536 C2535 1.398 . S
C2536 C2537 1.391 . S
C2537 H2525 0.950 . S
C2537 C2533 1.393 . S
C2537 C2536 1.391 . S
C2538 H2528 0.950 . S
C2538 C2539 1.386 . S
C2538 C2540 1.391 . S
C2539 C2538 1.386 . S
C2539 C2543 1.393 . S
C2540 H2529 0.950 . S
C2540 C2538 1.391 . S
C2540 C2541 1.400 . S
C2541 C2535 1.491 . S
C2541 C2540 1.400 . S
C2541 C2542 1.398 . S
C2542 H2530 0.950 . S
C2542 C2541 1.398 . S
C2542 C2543 1.391 . S
C2543 H2531 0.950 . S
C2543 C2539 1.393 . S
C2543 C2542 1.391 . S
H2544 C2552 0.950 . S
H2545 C2557 0.950 . S
H2546 C2554 0.950 . S
H2547 C2556 0.950 . S
H2548 C2558 0.950 . S
H2549 C2560 0.950 . S
H2550 C2562 0.950 . S
H2551 C2563 0.950 . S
C2552 H2544 0.950 . S
C2552 C2553 1.386 . S
C2552 C2554 1.391 . S
C2553 C2552 1.386 . S
C2553 C2557 1.393 . S
C2554 H2546 0.950 . S
C2554 C2552 1.391 . S
C2554 C2555 1.400 . S
C2555 C2554 1.400 . S
C2555 C2556 1.398 . S
C2555 C2561 1.491 . S
C2556 H2547 0.950 . S
C2556 C2555 1.398 . S
C2556 C2557 1.391 . S
C2557 H2545 0.950 . S
C2557 C2553 1.393 . S
C2557 C2556 1.391 . S
C2558 H2548 0.950 . S
C2558 C2559 1.386 . S
C2558 C2560 1.391 . S
C2559 C2558 1.386 . S
C2559 C2563 1.393 . S
C2560 H2549 0.950 . S
C2560 C2558 1.391 . S
C2560 C2561 1.400 . S
C2561 C2555 1.491 . S
C2561 C2560 1.400 . S
C2561 C2562 1.398 . S
C2562 H2550 0.950 . S
C2562 C2561 1.398 . S
C2562 C2563 1.391 . S
C2563 H2551 0.950 . S
C2563 C2559 1.393 . S
C2563 C2562 1.391 . S
H2564 C2572 0.950 . S
H2565 C2577 0.950 . S
H2566 C2574 0.950 . S
H2567 C2576 0.950 . S
H2568 C2578 0.950 . S
H2569 C2580 0.950 . S
H2570 C2582 0.950 . S
H2571 C2583 0.950 . S
C2572 H2564 0.950 . S
C2572 C2573 1.386 . S
C2572 C2574 1.391 . S
C2573 C2572 1.386 . S
C2573 C2577 1.393 . S
C2574 H2566 0.950 . S
C2574 C2572 1.391 . S
C2574 C2575 1.400 . S
C2575 C2574 1.400 . S
C2575 C2576 1.398 . S
C2575 C2581 1.491 . S
C2576 H2567 0.950 . S
C2576 C2575 1.398 . S
C2576 C2577 1.391 . S
C2577 H2565 0.950 . S
C2577 C2573 1.393 . S
C2577 C2576 1.391 . S
C2578 H2568 0.950 . S
C2578 C2579 1.386 . S
C2578 C2580 1.391 . S
C2579 C2578 1.386 . S
C2579 C2583 1.393 . S
C2580 H2569 0.950 . S
C2580 C2578 1.391 . S
C2580 C2581 1.400 . S
C2581 C2575 1.491 . S
C2581 C2580 1.400 . S
C2581 C2582 1.398 . S
C2582 H2570 0.950 . S
C2582 C2581 1.398 . S
C2582 C2583 1.391 . S
C2583 H2571 0.950 . S
C2583 C2579 1.393 . S
C2583 C2582 1.391 . S
H2584 C2592 0.950 . S
H2585 C2597 0.950 . S
H2586 C2594 0.950 . S
H2587 C2596 0.950 . S
H2588 C2598 0.950 . S
H2589 C2600 0.950 . S
H2590 C2602 0.950 . S
H2591 C2603 0.950 . S
C2592 H2584 0.950 . S
C2592 C2593 1.386 . S
C2592 C2594 1.391 . S
C2593 C2592 1.386 . S
C2593 C2597 1.393 . S
C2594 H2586 0.950 . S
C2594 C2592 1.391 . S
C2594 C2595 1.400 . S
C2595 C2594 1.400 . S
C2595 C2596 1.398 . S
C2595 C2601 1.491 . S
C2596 H2587 0.950 . S
C2596 C2595 1.398 . S
C2596 C2597 1.391 . S
C2597 H2585 0.950 . S
C2597 C2593 1.393 . S
C2597 C2596 1.391 . S
C2598 H2588 0.950 . S
C2598 C2599 1.386 . S
C2598 C2600 1.391 . S
C2599 C2598 1.386 . S
C2599 C2603 1.393 . S
C2600 H2589 0.950 . S
C2600 C2598 1.391 . S
C2600 C2601 1.400 . S
C2601 C2595 1.491 . S
C2601 C2600 1.400 . S
C2601 C2602 1.398 . S
C2602 H2590 0.950 . S
C2602 C2601 1.398 . S
C2602 C2603 1.391 . S
C2603 H2591 0.950 . S
C2603 C2599 1.393 . S
C2603 C2602 1.391 . S
H2604 C2612 0.950 . S
H2605 C2617 0.950 . S
H2606 C2614 0.950 . S
H2607 C2616 0.950 . S
H2608 C2618 0.950 . S
H2609 C2620 0.950 . S
H2610 C2622 0.950 . S
H2611 C2623 0.950 . S
C2612 H2604 0.950 . S
C2612 C2613 1.386 . S
C2612 C2614 1.391 . S
C2613 C2612 1.386 . S
C2613 C2617 1.393 . S
C2614 H2606 0.950 . S
C2614 C2612 1.391 . S
C2614 C2615 1.400 . S
C2615 C2614 1.400 . S
C2615 C2616 1.398 . S
C2615 C2621 1.491 . S
C2616 H2607 0.950 . S
C2616 C2615 1.398 . S
C2616 C2617 1.391 . S
C2617 H2605 0.950 . S
C2617 C2613 1.393 . S
C2617 C2616 1.391 . S
C2618 H2608 0.950 . S
C2618 C2619 1.386 . S
C2618 C2620 1.391 . S
C2619 C2618 1.386 . S
C2619 C2623 1.393 . S
C2620 H2609 0.950 . S
C2620 C2618 1.391 . S
C2620 C2621 1.400 . S
C2621 C2615 1.491 . S
C2621 C2620 1.400 . S
C2621 C2622 1.398 . S
C2622 H2610 0.950 . S
C2622 C2621 1.398 . S
C2622 C2623 1.391 . S
C2623 H2611 0.950 . S
C2623 C2619 1.393 . S
C2623 C2622 1.391 . S
H2624 C2632 0.950 . S
H2625 C2637 0.950 . S
H2626 C2634 0.950 . S
H2627 C2636 0.950 . S
H2628 C2638 0.950 . S
H2629 C2640 0.950 . S
H2630 C2642 0.950 . S
H2631 C2643 0.950 . S
C2632 H2624 0.950 . S
C2632 C2633 1.386 . S
C2632 C2634 1.391 . S
C2633 C2632 1.386 . S
C2633 C2637 1.393 . S
C2634 H2626 0.950 . S
C2634 C2632 1.391 . S
C2634 C2635 1.400 . S
C2635 C2634 1.400 . S
C2635 C2636 1.398 . S
C2635 C2641 1.491 . S
C2636 H2627 0.950 . S
C2636 C2635 1.398 . S
C2636 C2637 1.391 . S
C2637 H2625 0.950 . S
C2637 C2633 1.393 . S
C2637 C2636 1.391 . S
C2638 H2628 0.950 . S
C2638 C2639 1.386 . S
C2638 C2640 1.391 . S
C2639 C2638 1.386 . S
C2639 C2643 1.393 . S
C2640 H2629 0.950 . S
C2640 C2638 1.391 . S
C2640 C2641 1.400 . S
C2641 C2635 1.491 . S
C2641 C2640 1.400 . S
C2641 C2642 1.398 . S
C2642 H2630 0.950 . S
C2642 C2641 1.398 . S
C2642 C2643 1.391 . S
C2643 H2631 0.950 . S
C2643 C2639 1.393 . S
C2643 C2642 1.391 . S
H2644 C2652 0.950 . S
H2645 C2657 0.950 . S
H2646 C2654 0.950 . S
H2647 C2656 0.950 . S
H2648 C2658 0.950 . S
H2649 C2660 0.950 . S
H2650 C2662 0.950 . S
H2651 C2663 0.950 . S
C2652 H2644 0.950 . S
C2652 C2653 1.386 . S
C2652 C2654 1.391 . S
C2653 C2652 1.386 . S
C2653 C2657 1.393 . S
C2654 H2646 0.950 . S
C2654 C2652 1.391 . S
C2654 C2655 1.400 . S
C2655 C2654 1.400 . S
C2655 C2656 1.398 . S
C2655 C2661 1.491 . S
C2656 H2647 0.950 . S
C2656 C2655 1.398 . S
C2656 C2657 1.391 . S
C2657 H2645 0.950 . S
C2657 C2653 1.393 . S
C2657 C2656 1.391 . S
C2658 H2648 0.950 . S
C2658 C2659 1.386 . S
C2658 C2660 1.391 . S
C2659 C2658 1.386 . S
C2659 C2663 1.393 . S
C2660 H2649 0.950 . S
C2660 C2658 1.391 . S
C2660 C2661 1.400 . S
C2661 C2655 1.491 . S
C2661 C2660 1.400 . S
C2661 C2662 1.398 . S
C2662 H2650 0.950 . S
C2662 C2661 1.398 . S
C2662 C2663 1.391 . S
C2663 H2651 0.950 . S
C2663 C2659 1.393 . S
C2663 C2662 1.391 . S
H2664 C2672 0.950 . S
H2665 C2677 0.950 . S
H2666 C2674 0.950 . S
H2667 C2676 0.950 . S
H2668 C2678 0.950 . S
H2669 C2680 0.950 . S
H2670 C2682 0.950 . S
H2671 C2683 0.950 . S
C2672 H2664 0.950 . S
C2672 C2673 1.386 . S
C2672 C2674 1.391 . S
C2673 C2672 1.386 . S
C2673 C2677 1.393 . S
C2674 H2666 0.950 . S
C2674 C2672 1.391 . S
C2674 C2675 1.400 . S
C2675 C2674 1.400 . S
C2675 C2676 1.398 . S
C2675 C2681 1.491 . S
C2676 H2667 0.950 . S
C2676 C2675 1.398 . S
C2676 C2677 1.391 . S
C2677 H2665 0.950 . S
C2677 C2673 1.393 . S
C2677 C2676 1.391 . S
C2678 H2668 0.950 . S
C2678 C2679 1.386 . S
C2678 C2680 1.391 . S
C2679 C2678 1.386 . S
C2679 C2683 1.393 . S
C2680 H2669 0.950 . S
C2680 C2678 1.391 . S
C2680 C2681 1.400 . S
C2681 C2675 1.491 . S
C2681 C2680 1.400 . S
C2681 C2682 1.398 . S
C2682 H2670 0.950 . S
C2682 C2681 1.398 . S
C2682 C2683 1.391 . S
C2683 H2671 0.950 . S
C2683 C2679 1.393 . S
C2683 C2682 1.391 . S
H2684 C2692 0.950 . S
H2685 C2697 0.950 . S
H2686 C2694 0.950 . S
H2687 C2696 0.950 . S
H2688 C2698 0.950 . S
H2689 C2700 0.950 . S
H2690 C2702 0.950 . S
H2691 C2703 0.950 . S
C2692 H2684 0.950 . S
C2692 C2693 1.386 . S
C2692 C2694 1.391 . S
C2693 C2692 1.386 . S
C2693 C2697 1.393 . S
C2694 H2686 0.950 . S
C2694 C2692 1.391 . S
C2694 C2695 1.400 . S
C2695 C2694 1.400 . S
C2695 C2696 1.398 . S
C2695 C2701 1.491 . S
C2696 H2687 0.950 . S
C2696 C2695 1.398 . S
C2696 C2697 1.391 . S
C2697 H2685 0.950 . S
C2697 C2693 1.393 . S
C2697 C2696 1.391 . S
C2698 H2688 0.950 . S
C2698 C2699 1.386 . S
C2698 C2700 1.391 . S
C2699 C2698 1.386 . S
C2699 C2703 1.393 . S
C2700 H2689 0.950 . S
C2700 C2698 1.391 . S
C2700 C2701 1.400 . S
C2701 C2695 1.491 . S
C2701 C2700 1.400 . S
C2701 C2702 1.398 . S
C2702 H2690 0.950 . S
C2702 C2701 1.398 . S
C2702 C2703 1.391 . S
C2703 H2691 0.950 . S
C2703 C2699 1.393 . S
C2703 C2702 1.391 . S
H2704 C2712 0.950 . S
H2705 C2717 0.950 . S
H2706 C2714 0.950 . S
H2707 C2716 0.950 . S
H2708 C2718 0.950 . S
H2709 C2720 0.950 . S
H2710 C2722 0.950 . S
H2711 C2723 0.950 . S
C2712 H2704 0.950 . S
C2712 C2713 1.386 . S
C2712 C2714 1.391 . S
C2713 C2712 1.386 . S
C2713 C2717 1.393 . S
C2714 H2706 0.950 . S
C2714 C2712 1.391 . S
C2714 C2715 1.400 . S
C2715 C2714 1.400 . S
C2715 C2716 1.398 . S
C2715 C2721 1.491 . S
C2716 H2707 0.950 . S
C2716 C2715 1.398 . S
C2716 C2717 1.391 . S
C2717 H2705 0.950 . S
C2717 C2713 1.393 . S
C2717 C2716 1.391 . S
C2718 H2708 0.950 . S
C2718 C2719 1.386 . S
C2718 C2720 1.391 . S
C2719 C2718 1.386 . S
C2719 C2723 1.393 . S
C2720 H2709 0.950 . S
C2720 C2718 1.391 . S
C2720 C2721 1.400 . S
C2721 C2715 1.491 . S
C2721 C2720 1.400 . S
C2721 C2722 1.398 . S
C2722 H2710 0.950 . S
C2722 C2721 1.398 . S
C2722 C2723 1.391 . S
C2723 H2711 0.950 . S
C2723 C2719 1.393 . S
C2723 C2722 1.391 . S
H2724 C2732 0.950 . S
H2725 C2737 0.950 . S
H2726 C2734 0.950 . S
H2727 C2736 0.950 . S
H2728 C2738 0.950 . S
H2729 C2740 0.950 . S
H2730 C2742 0.950 . S
H2731 C2743 0.950 . S
C2732 H2724 0.950 . S
C2732 C2733 1.386 . S
C2732 C2734 1.391 . S
C2733 C2732 1.386 . S
C2733 C2737 1.393 . S
C2734 H2726 0.950 . S
C2734 C2732 1.391 . S
C2734 C2735 1.400 . S
C2735 C2734 1.400 . S
C2735 C2736 1.398 . S
C2735 C2741 1.491 . S
C2736 H2727 0.950 . S
C2736 C2735 1.398 . S
C2736 C2737 1.391 . S
C2737 H2725 0.950 . S
C2737 C2733 1.393 . S
C2737 C2736 1.391 . S
C2738 H2728 0.950 . S
C2738 C2739 1.386 . S
C2738 C2740 1.391 . S
C2739 C2738 1.386 . S
C2739 C2743 1.393 . S
C2740 H2729 0.950 . S
C2740 C2738 1.391 . S
C2740 C2741 1.400 . S
C2741 C2735 1.491 . S
C2741 C2740 1.400 . S
C2741 C2742 1.398 . S
C2742 H2730 0.950 . S
C2742 C2741 1.398 . S
C2742 C2743 1.391 . S
C2743 H2731 0.950 . S
C2743 C2739 1.393 . S
C2743 C2742 1.391 . S
H2744 C2752 0.950 . S
H2745 C2757 0.950 . S
H2746 C2754 0.950 . S
H2747 C2756 0.950 . S
H2748 C2758 0.950 . S
H2749 C2760 0.950 . S
H2750 C2762 0.950 . S
H2751 C2763 0.950 . S
C2752 H2744 0.950 . S
C2752 C2753 1.386 . S
C2752 C2754 1.391 . S
C2753 C2752 1.386 . S
C2753 C2757 1.393 . S
C2754 H2746 0.950 . S
C2754 C2752 1.391 . S
C2754 C2755 1.400 . S
C2755 C2754 1.400 . S
C2755 C2756 1.398 . S
C2755 C2761 1.491 . S
C2756 H2747 0.950 . S
C2756 C2755 1.398 . S
C2756 C2757 1.391 . S
C2757 H2745 0.950 . S
C2757 C2753 1.393 . S
C2757 C2756 1.391 . S
C2758 H2748 0.950 . S
C2758 C2759 1.386 . S
C2758 C2760 1.391 . S
C2759 C2758 1.386 . S
C2759 C2763 1.393 . S
C2760 H2749 0.950 . S
C2760 C2758 1.391 . S
C2760 C2761 1.400 . S
C2761 C2755 1.491 . S
C2761 C2760 1.400 . S
C2761 C2762 1.398 . S
C2762 H2750 0.950 . S
C2762 C2761 1.398 . S
C2762 C2763 1.391 . S
C2763 H2751 0.950 . S
C2763 C2759 1.393 . S
C2763 C2762 1.391 . S
H2764 C2772 0.950 . S
H2765 C2777 0.950 . S
H2766 C2774 0.950 . S
H2767 C2776 0.950 . S
H2768 C2778 0.950 . S
H2769 C2780 0.950 . S
H2770 C2782 0.950 . S
H2771 C2783 0.950 . S
C2772 H2764 0.950 . S
C2772 C2773 1.386 . S
C2772 C2774 1.391 . S
C2773 C2772 1.386 . S
C2773 C2777 1.393 . S
C2774 H2766 0.950 . S
C2774 C2772 1.391 . S
C2774 C2775 1.400 . S
C2775 C2774 1.400 . S
C2775 C2776 1.398 . S
C2775 C2781 1.491 . S
C2776 H2767 0.950 . S
C2776 C2775 1.398 . S
C2776 C2777 1.391 . S
C2777 H2765 0.950 . S
C2777 C2773 1.393 . S
C2777 C2776 1.391 . S
C2778 H2768 0.950 . S
C2778 C2779 1.386 . S
C2778 C2780 1.391 . S
C2779 C2778 1.386 . S
C2779 C2783 1.393 . S
C2780 H2769 0.950 . S
C2780 C2778 1.391 . S
C2780 C2781 1.400 . S
C2781 C2775 1.491 . S
C2781 C2780 1.400 . S
C2781 C2782 1.398 . S
C2782 H2770 0.950 . S
C2782 C2781 1.398 . S
C2782 C2783 1.391 . S
C2783 H2771 0.950 . S
C2783 C2779 1.393 . S
C2783 C2782 1.391 . S
H2784 C2792 0.950 . S
H2785 C2797 0.950 . S
H2786 C2794 0.950 . S
H2787 C2796 0.950 . S
H2788 C2798 0.950 . S
H2789 C2800 0.950 . S
H2790 C2802 0.950 . S
H2791 C2803 0.950 . S
C2792 H2784 0.950 . S
C2792 C2793 1.386 . S
C2792 C2794 1.391 . S
C2793 C2792 1.386 . S
C2793 C2797 1.393 . S
C2794 H2786 0.950 . S
C2794 C2792 1.391 . S
C2794 C2795 1.400 . S
C2795 C2794 1.400 . S
C2795 C2796 1.398 . S
C2795 C2801 1.491 . S
C2796 H2787 0.950 . S
C2796 C2795 1.398 . S
C2796 C2797 1.391 . S
C2797 H2785 0.950 . S
C2797 C2793 1.393 . S
C2797 C2796 1.391 . S
C2798 H2788 0.950 . S
C2798 C2799 1.386 . S
C2798 C2800 1.391 . S
C2799 C2798 1.386 . S
C2799 C2803 1.393 . S
C2800 H2789 0.950 . S
C2800 C2798 1.391 . S
C2800 C2801 1.400 . S
C2801 C2795 1.491 . S
C2801 C2800 1.400 . S
C2801 C2802 1.398 . S
C2802 H2790 0.950 . S
C2802 C2801 1.398 . S
C2802 C2803 1.391 . S
C2803 H2791 0.950 . S
C2803 C2799 1.393 . S
C2803 C2802 1.391 . S
H2804 C2812 0.950 . S
H2805 C2817 0.950 . S
H2806 C2814 0.950 . S
H2807 C2816 0.950 . S
H2808 C2818 0.950 . S
H2809 C2820 0.950 . S
H2810 C2822 0.950 . S
H2811 C2823 0.950 . S
C2812 H2804 0.950 . S
C2812 C2813 1.386 . S
C2812 C2814 1.391 . S
C2813 C2812 1.386 . S
C2813 C2817 1.393 . S
C2814 H2806 0.950 . S
C2814 C2812 1.391 . S
C2814 C2815 1.400 . S
C2815 C2814 1.400 . S
C2815 C2816 1.398 . S
C2815 C2821 1.491 . S
C2816 H2807 0.950 . S
C2816 C2815 1.398 . S
C2816 C2817 1.391 . S
C2817 H2805 0.950 . S
C2817 C2813 1.393 . S
C2817 C2816 1.391 . S
C2818 H2808 0.950 . S
C2818 C2819 1.386 . S
C2818 C2820 1.391 . S
C2819 C2818 1.386 . S
C2819 C2823 1.393 . S
C2820 H2809 0.950 . S
C2820 C2818 1.391 . S
C2820 C2821 1.400 . S
C2821 C2815 1.491 . S
C2821 C2820 1.400 . S
C2821 C2822 1.398 . S
C2822 H2810 0.950 . S
C2822 C2821 1.398 . S
C2822 C2823 1.391 . S
C2823 H2811 0.950 . S
C2823 C2819 1.393 . S
C2823 C2822 1.391 . S
H2824 C2832 0.950 . S
H2825 C2837 0.950 . S
H2826 C2834 0.950 . S
H2827 C2836 0.950 . S
H2828 C2838 0.950 . S
H2829 C2840 0.950 . S
H2830 C2842 0.950 . S
H2831 C2843 0.950 . S
C2832 H2824 0.950 . S
C2832 C2833 1.386 . S
C2832 C2834 1.391 . S
C2833 C2832 1.386 . S
C2833 C2837 1.393 . S
C2834 H2826 0.950 . S
C2834 C2832 1.391 . S
C2834 C2835 1.400 . S
C2835 C2834 1.400 . S
C2835 C2836 1.398 . S
C2835 C2841 1.491 . S
C2836 H2827 0.950 . S
C2836 C2835 1.398 . S
C2836 C2837 1.391 . S
C2837 H2825 0.950 . S
C2837 C2833 1.393 . S
C2837 C2836 1.391 . S
C2838 H2828 0.950 . S
C2838 C2839 1.386 . S
C2838 C2840 1.391 . S
C2839 C2838 1.386 . S
C2839 C2843 1.393 . S
C2840 H2829 0.950 . S
C2840 C2838 1.391 . S
C2840 C2841 1.400 . S
C2841 C2835 1.491 . S
C2841 C2840 1.400 . S
C2841 C2842 1.398 . S
C2842 H2830 0.950 . S
C2842 C2841 1.398 . S
C2842 C2843 1.391 . S
C2843 H2831 0.950 . S
C2843 C2839 1.393 . S
C2843 C2842 1.391 . S
H2844 C2852 0.950 . S
H2845 C2857 0.950 . S
H2846 C2854 0.950 . S
H2847 C2856 0.950 . S
H2848 C2858 0.950 . S
H2849 C2860 0.950 . S
H2850 C2862 0.950 . S
H2851 C2863 0.950 . S
C2852 H2844 0.950 . S
C2852 C2853 1.386 . S
C2852 C2854 1.391 . S
C2853 C2852 1.386 . S
C2853 C2857 1.393 . S
C2854 H2846 0.950 . S
C2854 C2852 1.391 . S
C2854 C2855 1.400 . S
C2855 C2854 1.400 . S
C2855 C2856 1.398 . S
C2855 C2861 1.491 . S
C2856 H2847 0.950 . S
C2856 C2855 1.398 . S
C2856 C2857 1.391 . S
C2857 H2845 0.950 . S
C2857 C2853 1.393 . S
C2857 C2856 1.391 . S
C2858 H2848 0.950 . S
C2858 C2859 1.386 . S
C2858 C2860 1.391 . S
C2859 C2858 1.386 . S
C2859 C2863 1.393 . S
C2860 H2849 0.950 . S
C2860 C2858 1.391 . S
C2860 C2861 1.400 . S
C2861 C2855 1.491 . S
C2861 C2860 1.400 . S
C2861 C2862 1.398 . S
C2862 H2850 0.950 . S
C2862 C2861 1.398 . S
C2862 C2863 1.391 . S
C2863 H2851 0.950 . S
C2863 C2859 1.393 . S
C2863 C2862 1.391 . S
H2864 C2872 0.950 . S
H2865 C2877 0.950 . S
H2866 C2874 0.950 . S
H2867 C2876 0.950 . S
H2868 C2878 0.950 . S
H2869 C2880 0.950 . S
H2870 C2882 0.950 . S
H2871 C2883 0.950 . S
C2872 H2864 0.950 . S
C2872 C2873 1.386 . S
C2872 C2874 1.391 . S
C2873 C2872 1.386 . S
C2873 C2877 1.393 . S
C2874 H2866 0.950 . S
C2874 C2872 1.391 . S
C2874 C2875 1.400 . S
C2875 C2874 1.400 . S
C2875 C2876 1.398 . S
C2875 C2881 1.491 . S
C2876 H2867 0.950 . S
C2876 C2875 1.398 . S
C2876 C2877 1.391 . S
C2877 H2865 0.950 . S
C2877 C2873 1.393 . S
C2877 C2876 1.391 . S
C2878 H2868 0.950 . S
C2878 C2879 1.386 . S
C2878 C2880 1.391 . S
C2879 C2878 1.386 . S
C2879 C2883 1.393 . S
C2880 H2869 0.950 . S
C2880 C2878 1.391 . S
C2880 C2881 1.400 . S
C2881 C2875 1.491 . S
C2881 C2880 1.400 . S
C2881 C2882 1.398 . S
C2882 H2870 0.950 . S
C2882 C2881 1.398 . S
C2882 C2883 1.391 . S
C2883 H2871 0.950 . S
C2883 C2879 1.393 . S
C2883 C2882 1.391 . S
H2884 C2892 0.950 . S
H2885 C2897 0.950 . S
H2886 C2894 0.950 . S
H2887 C2896 0.950 . S
H2888 C2898 0.950 . S
H2889 C2900 0.950 . S
H2890 C2902 0.950 . S
H2891 C2903 0.950 . S
C2892 H2884 0.950 . S
C2892 C2893 1.386 . S
C2892 C2894 1.391 . S
C2893 C2892 1.386 . S
C2893 C2897 1.393 . S
C2894 H2886 0.950 . S
C2894 C2892 1.391 . S
C2894 C2895 1.400 . S
C2895 C2894 1.400 . S
C2895 C2896 1.398 . S
C2895 C2901 1.491 . S
C2896 H2887 0.950 . S
C2896 C2895 1.398 . S
C2896 C2897 1.391 . S
C2897 H2885 0.950 . S
C2897 C2893 1.393 . S
C2897 C2896 1.391 . S
C2898 H2888 0.950 . S
C2898 C2899 1.386 . S
C2898 C2900 1.391 . S
C2899 C2898 1.386 . S
C2899 C2903 1.393 . S
C2900 H2889 0.950 . S
C2900 C2898 1.391 . S
C2900 C2901 1.400 . S
C2901 C2895 1.491 . S
C2901 C2900 1.400 . S
C2901 C2902 1.398 . S
C2902 H2890 0.950 . S
C2902 C2901 1.398 . S
C2902 C2903 1.391 . S
C2903 H2891 0.950 . S
C2903 C2899 1.393 . S
C2903 C2902 1.391 . S
H2904 C2912 0.950 . S
H2905 C2917 0.950 . S
H2906 C2914 0.950 . S
H2907 C2916 0.950 . S
H2908 C2918 0.950 . S
H2909 C2920 0.950 . S
H2910 C2922 0.950 . S
H2911 C2923 0.950 . S
C2912 H2904 0.950 . S
C2912 C2913 1.386 . S
C2912 C2914 1.391 . S
C2913 C2912 1.386 . S
C2913 C2917 1.393 . S
C2914 H2906 0.950 . S
C2914 C2912 1.391 . S
C2914 C2915 1.400 . S
C2915 C2914 1.400 . S
C2915 C2916 1.398 . S
C2915 C2921 1.491 . S
C2916 H2907 0.950 . S
C2916 C2915 1.398 . S
C2916 C2917 1.391 . S
C2917 H2905 0.950 . S
C2917 C2913 1.393 . S
C2917 C2916 1.391 . S
C2918 H2908 0.950 . S
C2918 C2919 1.386 . S
C2918 C2920 1.391 . S
C2919 C2918 1.386 . S
C2919 C2923 1.393 . S
C2920 H2909 0.950 . S
C2920 C2918 1.391 . S
C2920 C2921 1.400 . S
C2921 C2915 1.491 . S
C2921 C2920 1.400 . S
C2921 C2922 1.398 . S
C2922 H2910 0.950 . S
C2922 C2921 1.398 . S
C2922 C2923 1.391 . S
C2923 H2911 0.950 . S
C2923 C2919 1.393 . S
C2923 C2922 1.391 . S
H2924 C2932 0.950 . S
H2925 C2937 0.950 . S
H2926 C2934 0.950 . S
H2927 C2936 0.950 . S
H2928 C2938 0.950 . S
H2929 C2940 0.950 . S
H2930 C2942 0.950 . S
H2931 C2943 0.950 . S
C2932 H2924 0.950 . S
C2932 C2933 1.386 . S
C2932 C2934 1.391 . S
C2933 C2932 1.386 . S
C2933 C2937 1.393 . S
C2934 H2926 0.950 . S
C2934 C2932 1.391 . S
C2934 C2935 1.400 . S
C2935 C2934 1.400 . S
C2935 C2936 1.398 . S
C2935 C2941 1.491 . S
C2936 H2927 0.950 . S
C2936 C2935 1.398 . S
C2936 C2937 1.391 . S
C2937 H2925 0.950 . S
C2937 C2933 1.393 . S
C2937 C2936 1.391 . S
C2938 H2928 0.950 . S
C2938 C2939 1.386 . S
C2938 C2940 1.391 . S
C2939 C2938 1.386 . S
C2939 C2943 1.393 . S
C2940 H2929 0.950 . S
C2940 C2938 1.391 . S
C2940 C2941 1.400 . S
C2941 C2935 1.491 . S
C2941 C2940 1.400 . S
C2941 C2942 1.398 . S
C2942 H2930 0.950 . S
C2942 C2941 1.398 . S
C2942 C2943 1.391 . S
C2943 H2931 0.950 . S
C2943 C2939 1.393 . S
C2943 C2942 1.391 . S
H2944 C2952 0.950 . S
H2945 C2957 0.950 . S
H2946 C2954 0.950 . S
H2947 C2956 0.950 . S
H2948 C2958 0.950 . S
H2949 C2960 0.950 . S
H2950 C2962 0.950 . S
H2951 C2963 0.950 . S
C2952 H2944 0.950 . S
C2952 C2953 1.386 . S
C2952 C2954 1.391 . S
C2953 C2952 1.386 . S
C2953 C2957 1.393 . S
C2954 H2946 0.950 . S
C2954 C2952 1.391 . S
C2954 C2955 1.400 . S
C2955 C2954 1.400 . S
C2955 C2956 1.398 . S
C2955 C2961 1.491 . S
C2956 H2947 0.950 . S
C2956 C2955 1.398 . S
C2956 C2957 1.391 . S
C2957 H2945 0.950 . S
C2957 C2953 1.393 . S
C2957 C2956 1.391 . S
C2958 H2948 0.950 . S
C2958 C2959 1.386 . S
C2958 C2960 1.391 . S
C2959 C2958 1.386 . S
C2959 C2963 1.393 . S
C2960 H2949 0.950 . S
C2960 C2958 1.391 . S
C2960 C2961 1.400 . S
C2961 C2955 1.491 . S
C2961 C2960 1.400 . S
C2961 C2962 1.398 . S
C2962 H2950 0.950 . S
C2962 C2961 1.398 . S
C2962 C2963 1.391 . S
C2963 H2951 0.950 . S
C2963 C2959 1.393 . S
C2963 C2962 1.391 . S
H2964 C2972 0.950 . S
H2965 C2977 0.950 . S
H2966 C2974 0.950 . S
H2967 C2976 0.950 . S
H2968 C2978 0.950 . S
H2969 C2980 0.950 . S
H2970 C2982 0.950 . S
H2971 C2983 0.950 . S
C2972 H2964 0.950 . S
C2972 C2973 1.386 . S
C2972 C2974 1.391 . S
C2973 C2972 1.386 . S
C2973 C2977 1.393 . S
C2974 H2966 0.950 . S
C2974 C2972 1.391 . S
C2974 C2975 1.400 . S
C2975 C2974 1.400 . S
C2975 C2976 1.398 . S
C2975 C2981 1.491 . S
C2976 H2967 0.950 . S
C2976 C2975 1.398 . S
C2976 C2977 1.391 . S
C2977 H2965 0.950 . S
C2977 C2973 1.393 . S
C2977 C2976 1.391 . S
C2978 H2968 0.950 . S
C2978 C2979 1.386 . S
C2978 C2980 1.391 . S
C2979 C2978 1.386 . S
C2979 C2983 1.393 . S
C2980 H2969 0.950 . S
C2980 C2978 1.391 . S
C2980 C2981 1.400 . S
C2981 C2975 1.491 . S
C2981 C2980 1.400 . S
C2981 C2982 1.398 . S
C2982 H2970 0.950 . S
C2982 C2981 1.398 . S
C2982 C2983 1.391 . S
C2983 H2971 0.950 . S
C2983 C2979 1.393 . S
C2983 C2982 1.391 . S
H2984 C2992 0.950 . S
H2985 C2997 0.950 . S
H2986 C2994 0.950 . S
H2987 C2996 0.950 . S
H2988 C2998 0.950 . S
H2989 C3000 0.950 . S
H2990 C3002 0.950 . S
H2991 C3003 0.950 . S
C2992 H2984 0.950 . S
C2992 C2993 1.386 . S
C2992 C2994 1.391 . S
C2993 C2992 1.386 . S
C2993 C2997 1.393 . S
C2994 H2986 0.950 . S
C2994 C2992 1.391 . S
C2994 C2995 1.400 . S
C2995 C2994 1.400 . S
C2995 C2996 1.398 . S
C2995 C3001 1.491 . S
C2996 H2987 0.950 . S
C2996 C2995 1.398 . S
C2996 C2997 1.391 . S
C2997 H2985 0.950 . S
C2997 C2993 1.393 . S
C2997 C2996 1.391 . S
C2998 H2988 0.950 . S
C2998 C2999 1.386 . S
C2998 C3000 1.391 . S
C2999 C2998 1.386 . S
C2999 C3003 1.393 . S
C3000 H2989 0.950 . S
C3000 C2998 1.391 . S
C3000 C3001 1.400 . S
C3001 C2995 1.491 . S
C3001 C3000 1.400 . S
C3001 C3002 1.398 . S
C3002 H2990 0.950 . S
C3002 C3001 1.398 . S
C3002 C3003 1.391 . S
C3003 H2991 0.950 . S
C3003 C2999 1.393 . S
C3003 C3002 1.391 . S
H3004 C3012 0.950 . S
H3005 C3017 0.950 . S
H3006 C3014 0.950 . S
H3007 C3016 0.950 . S
H3008 C3018 0.950 . S
H3009 C3020 0.950 . S
H3010 C3022 0.950 . S
H3011 C3023 0.950 . S
C3012 H3004 0.950 . S
C3012 C3013 1.386 . S
C3012 C3014 1.391 . S
C3013 C3012 1.386 . S
C3013 C3017 1.393 . S
C3014 H3006 0.950 . S
C3014 C3012 1.391 . S
C3014 C3015 1.400 . S
C3015 C3014 1.400 . S
C3015 C3016 1.398 . S
C3015 C3021 1.491 . S
C3016 H3007 0.950 . S
C3016 C3015 1.398 . S
C3016 C3017 1.391 . S
C3017 H3005 0.950 . S
C3017 C3013 1.393 . S
C3017 C3016 1.391 . S
C3018 H3008 0.950 . S
C3018 C3019 1.386 . S
C3018 C3020 1.391 . S
C3019 C3018 1.386 . S
C3019 C3023 1.393 . S
C3020 H3009 0.950 . S
C3020 C3018 1.391 . S
C3020 C3021 1.400 . S
C3021 C3015 1.491 . S
C3021 C3020 1.400 . S
C3021 C3022 1.398 . S
C3022 H3010 0.950 . S
C3022 C3021 1.398 . S
C3022 C3023 1.391 . S
C3023 H3011 0.950 . S
C3023 C3019 1.393 . S
C3023 C3022 1.391 . S
H3024 C3032 0.950 . S
H3025 C3037 0.950 . S
H3026 C3034 0.950 . S
H3027 C3036 0.950 . S
H3028 C3038 0.950 . S
H3029 C3040 0.950 . S
H3030 C3042 0.950 . S
H3031 C3043 0.950 . S
C3032 H3024 0.950 . S
C3032 C3033 1.386 . S
C3032 C3034 1.391 . S
C3033 C3032 1.386 . S
C3033 C3037 1.393 . S
C3034 H3026 0.950 . S
C3034 C3032 1.391 . S
C3034 C3035 1.400 . S
C3035 C3034 1.400 . S
C3035 C3036 1.398 . S
C3035 C3041 1.491 . S
C3036 H3027 0.950 . S
C3036 C3035 1.398 . S
C3036 C3037 1.391 . S
C3037 H3025 0.950 . S
C3037 C3033 1.393 . S
C3037 C3036 1.391 . S
C3038 H3028 0.950 . S
C3038 C3039 1.386 . S
C3038 C3040 1.391 . S
C3039 C3038 1.386 . S
C3039 C3043 1.393 . S
C3040 H3029 0.950 . S
C3040 C3038 1.391 . S
C3040 C3041 1.400 . S
C3041 C3035 1.491 . S
C3041 C3040 1.400 . S
C3041 C3042 1.398 . S
C3042 H3030 0.950 . S
C3042 C3041 1.398 . S
C3042 C3043 1.391 . S
C3043 H3031 0.950 . S
C3043 C3039 1.393 . S
C3043 C3042 1.391 . S
H3044 C3052 0.950 . S
H3045 C3057 0.950 . S
H3046 C3054 0.950 . S
H3047 C3056 0.950 . S
H3048 C3058 0.950 . S
H3049 C3060 0.950 . S
H3050 C3062 0.950 . S
H3051 C3063 0.950 . S
C3052 H3044 0.950 . S
C3052 C3053 1.386 . S
C3052 C3054 1.391 . S
C3053 C3052 1.386 . S
C3053 C3057 1.393 . S
C3054 H3046 0.950 . S
C3054 C3052 1.391 . S
C3054 C3055 1.400 . S
C3055 C3054 1.400 . S
C3055 C3056 1.398 . S
C3055 C3061 1.491 . S
C3056 H3047 0.950 . S
C3056 C3055 1.398 . S
C3056 C3057 1.391 . S
C3057 H3045 0.950 . S
C3057 C3053 1.393 . S
C3057 C3056 1.391 . S
C3058 H3048 0.950 . S
C3058 C3059 1.386 . S
C3058 C3060 1.391 . S
C3059 C3058 1.386 . S
C3059 C3063 1.393 . S
C3060 H3049 0.950 . S
C3060 C3058 1.391 . S
C3060 C3061 1.400 . S
C3061 C3055 1.491 . S
C3061 C3060 1.400 . S
C3061 C3062 1.398 . S
C3062 H3050 0.950 . S
C3062 C3061 1.398 . S
C3062 C3063 1.391 . S
C3063 H3051 0.950 . S
C3063 C3059 1.393 . S
C3063 C3062 1.391 . S
H3064 C3072 0.950 . S
H3065 C3077 0.950 . S
H3066 C3074 0.950 . S
H3067 C3076 0.950 . S
H3068 C3078 0.950 . S
H3069 C3080 0.950 . S
H3070 C3082 0.950 . S
H3071 C3083 0.950 . S
C3072 H3064 0.950 . S
C3072 C3073 1.386 . S
C3072 C3074 1.391 . S
C3073 C3072 1.386 . S
C3073 C3077 1.393 . S
C3074 H3066 0.950 . S
C3074 C3072 1.391 . S
C3074 C3075 1.400 . S
C3075 C3074 1.400 . S
C3075 C3076 1.398 . S
C3075 C3081 1.491 . S
C3076 H3067 0.950 . S
C3076 C3075 1.398 . S
C3076 C3077 1.391 . S
C3077 H3065 0.950 . S
C3077 C3073 1.393 . S
C3077 C3076 1.391 . S
C3078 H3068 0.950 . S
C3078 C3079 1.386 . S
C3078 C3080 1.391 . S
C3079 C3078 1.386 . S
C3079 C3083 1.393 . S
C3080 H3069 0.950 . S
C3080 C3078 1.391 . S
C3080 C3081 1.400 . S
C3081 C3075 1.491 . S
C3081 C3080 1.400 . S
C3081 C3082 1.398 . S
C3082 H3070 0.950 . S
C3082 C3081 1.398 . S
C3082 C3083 1.391 . S
C3083 H3071 0.950 . S
C3083 C3079 1.393 . S
C3083 C3082 1.391 . S
H3084 C3092 0.950 . S
H3085 C3097 0.950 . S
H3086 C3094 0.950 . S
H3087 C3096 0.950 . S
H3088 C3098 0.950 . S
H3089 C3100 0.950 . S
H3090 C3102 0.950 . S
H3091 C3103 0.950 . S
C3092 H3084 0.950 . S
C3092 C3093 1.386 . S
C3092 C3094 1.391 . S
C3093 C3092 1.386 . S
C3093 C3097 1.393 . S
C3094 H3086 0.950 . S
C3094 C3092 1.391 . S
C3094 C3095 1.400 . S
C3095 C3094 1.400 . S
C3095 C3096 1.398 . S
C3095 C3101 1.491 . S
C3096 H3087 0.950 . S
C3096 C3095 1.398 . S
C3096 C3097 1.391 . S
C3097 H3085 0.950 . S
C3097 C3093 1.393 . S
C3097 C3096 1.391 . S
C3098 H3088 0.950 . S
C3098 C3099 1.386 . S
C3098 C3100 1.391 . S
C3099 C3098 1.386 . S
C3099 C3103 1.393 . S
C3100 H3089 0.950 . S
C3100 C3098 1.391 . S
C3100 C3101 1.400 . S
C3101 C3095 1.491 . S
C3101 C3100 1.400 . S
C3101 C3102 1.398 . S
C3102 H3090 0.950 . S
C3102 C3101 1.398 . S
C3102 C3103 1.391 . S
C3103 H3091 0.950 . S
C3103 C3099 1.393 . S
C3103 C3102 1.391 . S
H3104 C3112 0.950 . S
H3105 C3117 0.950 . S
H3106 C3114 0.950 . S
H3107 C3116 0.950 . S
H3108 C3118 0.950 . S
H3109 C3120 0.950 . S
H3110 C3122 0.950 . S
H3111 C3123 0.950 . S
C3112 H3104 0.950 . S
C3112 C3113 1.386 . S
C3112 C3114 1.391 . S
C3113 C3112 1.386 . S
C3113 C3117 1.393 . S
C3114 H3106 0.950 . S
C3114 C3112 1.391 . S
C3114 C3115 1.400 . S
C3115 C3114 1.400 . S
C3115 C3116 1.398 . S
C3115 C3121 1.491 . S
C3116 H3107 0.950 . S
C3116 C3115 1.398 . S
C3116 C3117 1.391 . S
C3117 H3105 0.950 . S
C3117 C3113 1.393 . S
C3117 C3116 1.391 . S
C3118 H3108 0.950 . S
C3118 C3119 1.386 . S
C3118 C3120 1.391 . S
C3119 C3118 1.386 . S
C3119 C3123 1.393 . S
C3120 H3109 0.950 . S
C3120 C3118 1.391 . S
C3120 C3121 1.400 . S
C3121 C3115 1.491 . S
C3121 C3120 1.400 . S
C3121 C3122 1.398 . S
C3122 H3110 0.950 . S
C3122 C3121 1.398 . S
C3122 C3123 1.391 . S
C3123 H3111 0.950 . S
C3123 C3119 1.393 . S
C3123 C3122 1.391 . S
H3124 C3132 0.950 . S
H3125 C3137 0.950 . S
H3126 C3134 0.950 . S
H3127 C3136 0.950 . S
H3128 C3138 0.950 . S
H3129 C3140 0.950 . S
H3130 C3142 0.950 . S
H3131 C3143 0.950 . S
C3132 H3124 0.950 . S
C3132 C3133 1.386 . S
C3132 C3134 1.391 . S
C3133 C3132 1.386 . S
C3133 C3137 1.393 . S
C3134 H3126 0.950 . S
C3134 C3132 1.391 . S
C3134 C3135 1.400 . S
C3135 C3134 1.400 . S
C3135 C3136 1.398 . S
C3135 C3141 1.491 . S
C3136 H3127 0.950 . S
C3136 C3135 1.398 . S
C3136 C3137 1.391 . S
C3137 H3125 0.950 . S
C3137 C3133 1.393 . S
C3137 C3136 1.391 . S
C3138 H3128 0.950 . S
C3138 C3139 1.386 . S
C3138 C3140 1.391 . S
C3139 C3138 1.386 . S
C3139 C3143 1.393 . S
C3140 H3129 0.950 . S
C3140 C3138 1.391 . S
C3140 C3141 1.400 . S
C3141 C3135 1.491 . S
C3141 C3140 1.400 . S
C3141 C3142 1.398 . S
C3142 H3130 0.950 . S
C3142 C3141 1.398 . S
C3142 C3143 1.391 . S
C3143 H3131 0.950 . S
C3143 C3139 1.393 . S
C3143 C3142 1.391 . S
H3144 C3152 0.950 . S
H3145 C3157 0.950 . S
H3146 C3154 0.950 . S
H3147 C3156 0.950 . S
H3148 C3158 0.950 . S
H3149 C3160 0.950 . S
H3150 C3162 0.950 . S
H3151 C3163 0.950 . S
C3152 H3144 0.950 . S
C3152 C3153 1.386 . S
C3152 C3154 1.391 . S
C3153 C3152 1.386 . S
C3153 C3157 1.393 . S
C3154 H3146 0.950 . S
C3154 C3152 1.391 . S
C3154 C3155 1.400 . S
C3155 C3154 1.400 . S
C3155 C3156 1.398 . S
C3155 C3161 1.491 . S
C3156 H3147 0.950 . S
C3156 C3155 1.398 . S
C3156 C3157 1.391 . S
C3157 H3145 0.950 . S
C3157 C3153 1.393 . S
C3157 C3156 1.391 . S
C3158 H3148 0.950 . S
C3158 C3159 1.386 . S
C3158 C3160 1.391 . S
C3159 C3158 1.386 . S
C3159 C3163 1.393 . S
C3160 H3149 0.950 . S
C3160 C3158 1.391 . S
C3160 C3161 1.400 . S
C3161 C3155 1.491 . S
C3161 C3160 1.400 . S
C3161 C3162 1.398 . S
C3162 H3150 0.950 . S
C3162 C3161 1.398 . S
C3162 C3163 1.391 . S
C3163 H3151 0.950 . S
C3163 C3159 1.393 . S
C3163 C3162 1.391 . S
H3164 C3172 0.950 . S
H3165 C3177 0.950 . S
H3166 C3174 0.950 . S
H3167 C3176 0.950 . S
H3168 C3178 0.950 . S
H3169 C3180 0.950 . S
H3170 C3182 0.950 . S
H3171 C3183 0.950 . S
C3172 H3164 0.950 . S
C3172 C3173 1.386 . S
C3172 C3174 1.391 . S
C3173 C3172 1.386 . S
C3173 C3177 1.393 . S
C3174 H3166 0.950 . S
C3174 C3172 1.391 . S
C3174 C3175 1.400 . S
C3175 C3174 1.400 . S
C3175 C3176 1.398 . S
C3175 C3181 1.491 . S
C3176 H3167 0.950 . S
C3176 C3175 1.398 . S
C3176 C3177 1.391 . S
C3177 H3165 0.950 . S
C3177 C3173 1.393 . S
C3177 C3176 1.391 . S
C3178 H3168 0.950 . S
C3178 C3179 1.386 . S
C3178 C3180 1.391 . S
C3179 C3178 1.386 . S
C3179 C3183 1.393 . S
C3180 H3169 0.950 . S
C3180 C3178 1.391 . S
C3180 C3181 1.400 . S
C3181 C3175 1.491 . S
C3181 C3180 1.400 . S
C3181 C3182 1.398 . S
C3182 H3170 0.950 . S
C3182 C3181 1.398 . S
C3182 C3183 1.391 . S
C3183 H3171 0.950 . S
C3183 C3179 1.393 . S
C3183 C3182 1.391 . S
H3184 C3192 0.950 . S
H3185 C3197 0.950 . S
H3186 C3194 0.950 . S
H3187 C3196 0.950 . S
H3188 C3198 0.950 . S
H3189 C3200 0.950 . S
H3190 C3202 0.950 . S
H3191 C3203 0.950 . S
C3192 H3184 0.950 . S
C3192 C3193 1.386 . S
C3192 C3194 1.391 . S
C3193 C3192 1.386 . S
C3193 C3197 1.393 . S
C3194 H3186 0.950 . S
C3194 C3192 1.391 . S
C3194 C3195 1.400 . S
C3195 C3194 1.400 . S
C3195 C3196 1.398 . S
C3195 C3201 1.491 . S
C3196 H3187 0.950 . S
C3196 C3195 1.398 . S
C3196 C3197 1.391 . S
C3197 H3185 0.950 . S
C3197 C3193 1.393 . S
C3197 C3196 1.391 . S
C3198 H3188 0.950 . S
C3198 C3199 1.386 . S
C3198 C3200 1.391 . S
C3199 C3198 1.386 . S
C3199 C3203 1.393 . S
C3200 H3189 0.950 . S
C3200 C3198 1.391 . S
C3200 C3201 1.400 . S
C3201 C3195 1.491 . S
C3201 C3200 1.400 . S
C3201 C3202 1.398 . S
C3202 H3190 0.950 . S
C3202 C3201 1.398 . S
C3202 C3203 1.391 . S
C3203 H3191 0.950 . S
C3203 C3199 1.393 . S
C3203 C3202 1.391 . S
H3204 C3212 0.950 . S
H3205 C3217 0.950 . S
H3206 C3214 0.950 . S
H3207 C3216 0.950 . S
H3208 C3218 0.950 . S
H3209 C3220 0.950 . S
H3210 C3222 0.950 . S
H3211 C3223 0.950 . S
C3212 H3204 0.950 . S
C3212 C3213 1.386 . S
C3212 C3214 1.391 . S
C3213 C3212 1.386 . S
C3213 C3217 1.393 . S
C3214 H3206 0.950 . S
C3214 C3212 1.391 . S
C3214 C3215 1.400 . S
C3215 C3214 1.400 . S
C3215 C3216 1.398 . S
C3215 C3221 1.491 . S
C3216 H3207 0.950 . S
C3216 C3215 1.398 . S
C3216 C3217 1.391 . S
C3217 H3205 0.950 . S
C3217 C3213 1.393 . S
C3217 C3216 1.391 . S
C3218 H3208 0.950 . S
C3218 C3219 1.386 . S
C3218 C3220 1.391 . S
C3219 C3218 1.386 . S
C3219 C3223 1.393 . S
C3220 H3209 0.950 . S
C3220 C3218 1.391 . S
C3220 C3221 1.400 . S
C3221 C3215 1.491 . S
C3221 C3220 1.400 . S
C3221 C3222 1.398 . S
C3222 H3210 0.950 . S
C3222 C3221 1.398 . S
C3222 C3223 1.391 . S
C3223 H3211 0.950 . S
C3223 C3219 1.393 . S
C3223 C3222 1.391 . S
H3224 C3232 0.950 . S
H3225 C3237 0.950 . S
H3226 C3234 0.950 . S
H3227 C3236 0.950 . S
H3228 C3238 0.950 . S
H3229 C3240 0.950 . S
H3230 C3242 0.950 . S
H3231 C3243 0.950 . S
C3232 H3224 0.950 . S
C3232 C3233 1.386 . S
C3232 C3234 1.391 . S
C3233 C3232 1.386 . S
C3233 C3237 1.393 . S
C3234 H3226 0.950 . S
C3234 C3232 1.391 . S
C3234 C3235 1.400 . S
C3235 C3234 1.400 . S
C3235 C3236 1.398 . S
C3235 C3241 1.491 . S
C3236 H3227 0.950 . S
C3236 C3235 1.398 . S
C3236 C3237 1.391 . S
C3237 H3225 0.950 . S
C3237 C3233 1.393 . S
C3237 C3236 1.391 . S
C3238 H3228 0.950 . S
C3238 C3239 1.386 . S
C3238 C3240 1.391 . S
C3239 C3238 1.386 . S
C3239 C3243 1.393 . S
C3240 H3229 0.950 . S
C3240 C3238 1.391 . S
C3240 C3241 1.400 . S
C3241 C3235 1.491 . S
C3241 C3240 1.400 . S
C3241 C3242 1.398 . S
C3242 H3230 0.950 . S
C3242 C3241 1.398 . S
C3242 C3243 1.391 . S
C3243 H3231 0.950 . S
C3243 C3239 1.393 . S
C3243 C3242 1.391 . S
H3244 C3252 0.950 . S
H3245 C3257 0.950 . S
H3246 C3254 0.950 . S
H3247 C3256 0.950 . S
H3248 C3258 0.950 . S
H3249 C3260 0.950 . S
H3250 C3262 0.950 . S
H3251 C3263 0.950 . S
C3252 H3244 0.950 . S
C3252 C3253 1.386 . S
C3252 C3254 1.391 . S
C3253 C3252 1.386 . S
C3253 C3257 1.393 . S
C3254 H3246 0.950 . S
C3254 C3252 1.391 . S
C3254 C3255 1.400 . S
C3255 C3254 1.400 . S
C3255 C3256 1.398 . S
C3255 C3261 1.491 . S
C3256 H3247 0.950 . S
C3256 C3255 1.398 . S
C3256 C3257 1.391 . S
C3257 H3245 0.950 . S
C3257 C3253 1.393 . S
C3257 C3256 1.391 . S
C3258 H3248 0.950 . S
C3258 C3259 1.386 . S
C3258 C3260 1.391 . S
C3259 C3258 1.386 . S
C3259 C3263 1.393 . S
C3260 H3249 0.950 . S
C3260 C3258 1.391 . S
C3260 C3261 1.400 . S
C3261 C3255 1.491 . S
C3261 C3260 1.400 . S
C3261 C3262 1.398 . S
C3262 H3250 0.950 . S
C3262 C3261 1.398 . S
C3262 C3263 1.391 . S
C3263 H3251 0.950 . S
C3263 C3259 1.393 . S
C3263 C3262 1.391 . S
H3264 C3272 0.950 . S
H3265 C3277 0.950 . S
H3266 C3274 0.950 . S
H3267 C3276 0.950 . S
H3268 C3278 0.950 . S
H3269 C3280 0.950 . S
H3270 C3282 0.950 . S
H3271 C3283 0.950 . S
C3272 H3264 0.950 . S
C3272 C3273 1.386 . S
C3272 C3274 1.391 . S
C3273 C3272 1.386 . S
C3273 C3277 1.393 . S
C3274 H3266 0.950 . S
C3274 C3272 1.391 . S
C3274 C3275 1.400 . S
C3275 C3274 1.400 . S
C3275 C3276 1.398 . S
C3275 C3281 1.491 . S
C3276 H3267 0.950 . S
C3276 C3275 1.398 . S
C3276 C3277 1.391 . S
C3277 H3265 0.950 . S
C3277 C3273 1.393 . S
C3277 C3276 1.391 . S
C3278 H3268 0.950 . S
C3278 C3279 1.386 . S
C3278 C3280 1.391 . S
C3279 C3278 1.386 . S
C3279 C3283 1.393 . S
C3280 H3269 0.950 . S
C3280 C3278 1.391 . S
C3280 C3281 1.400 . S
C3281 C3275 1.491 . S
C3281 C3280 1.400 . S
C3281 C3282 1.398 . S
C3282 H3270 0.950 . S
C3282 C3281 1.398 . S
C3282 C3283 1.391 . S
C3283 H3271 0.950 . S
C3283 C3279 1.393 . S
C3283 C3282 1.391 . S
H3284 C3292 0.950 . S
H3285 C3297 0.950 . S
H3286 C3294 0.950 . S
H3287 C3296 0.950 . S
H3288 C3298 0.950 . S
H3289 C3300 0.950 . S
H3290 C3302 0.950 . S
H3291 C3303 0.950 . S
C3292 H3284 0.950 . S
C3292 C3293 1.386 . S
C3292 C3294 1.391 . S
C3293 C3292 1.386 . S
C3293 C3297 1.393 . S
C3294 H3286 0.950 . S
C3294 C3292 1.391 . S
C3294 C3295 1.400 . S
C3295 C3294 1.400 . S
C3295 C3296 1.398 . S
C3295 C3301 1.491 . S
C3296 H3287 0.950 . S
C3296 C3295 1.398 . S
C3296 C3297 1.391 . S
C3297 H3285 0.950 . S
C3297 C3293 1.393 . S
C3297 C3296 1.391 . S
C3298 H3288 0.950 . S
C3298 C3299 1.386 . S
C3298 C3300 1.391 . S
C3299 C3298 1.386 . S
C3299 C3303 1.393 . S
C3300 H3289 0.950 . S
C3300 C3298 1.391 . S
C3300 C3301 1.400 . S
C3301 C3295 1.491 . S
C3301 C3300 1.400 . S
C3301 C3302 1.398 . S
C3302 H3290 0.950 . S
C3302 C3301 1.398 . S
C3302 C3303 1.391 . S
C3303 H3291 0.950 . S
C3303 C3299 1.393 . S
C3303 C3302 1.391 . S
H3304 C3312 0.950 . S
H3305 C3317 0.950 . S
H3306 C3314 0.950 . S
H3307 C3316 0.950 . S
H3308 C3318 0.950 . S
H3309 C3320 0.950 . S
H3310 C3322 0.950 . S
H3311 C3323 0.950 . S
C3312 H3304 0.950 . S
C3312 C3313 1.386 . S
C3312 C3314 1.391 . S
C3313 C3312 1.386 . S
C3313 C3317 1.393 . S
C3314 H3306 0.950 . S
C3314 C3312 1.391 . S
C3314 C3315 1.400 . S
C3315 C3314 1.400 . S
C3315 C3316 1.398 . S
C3315 C3321 1.491 . S
C3316 H3307 0.950 . S
C3316 C3315 1.398 . S
C3316 C3317 1.391 . S
C3317 H3305 0.950 . S
C3317 C3313 1.393 . S
C3317 C3316 1.391 . S
C3318 H3308 0.950 . S
C3318 C3319 1.386 . S
C3318 C3320 1.391 . S
C3319 C3318 1.386 . S
C3319 C3323 1.393 . S
C3320 H3309 0.950 . S
C3320 C3318 1.391 . S
C3320 C3321 1.400 . S
C3321 C3315 1.491 . S
C3321 C3320 1.400 . S
C3321 C3322 1.398 . S
C3322 H3310 0.950 . S
C3322 C3321 1.398 . S
C3322 C3323 1.391 . S
C3323 H3311 0.950 . S
C3323 C3319 1.393 . S
C3323 C3322 1.391 . S
H3324 C3332 0.950 . S
H3325 C3337 0.950 . S
H3326 C3334 0.950 . S
H3327 C3336 0.950 . S
H3328 C3338 0.950 . S
H3329 C3340 0.950 . S
H3330 C3342 0.950 . S
H3331 C3343 0.950 . S
C3332 H3324 0.950 . S
C3332 C3333 1.386 . S
C3332 C3334 1.391 . S
C3333 C3332 1.386 . S
C3333 C3337 1.393 . S
C3334 H3326 0.950 . S
C3334 C3332 1.391 . S
C3334 C3335 1.400 . S
C3335 C3334 1.400 . S
C3335 C3336 1.398 . S
C3335 C3341 1.491 . S
C3336 H3327 0.950 . S
C3336 C3335 1.398 . S
C3336 C3337 1.391 . S
C3337 H3325 0.950 . S
C3337 C3333 1.393 . S
C3337 C3336 1.391 . S
C3338 H3328 0.950 . S
C3338 C3339 1.386 . S
C3338 C3340 1.391 . S
C3339 C3338 1.386 . S
C3339 C3343 1.393 . S
C3340 H3329 0.950 . S
C3340 C3338 1.391 . S
C3340 C3341 1.400 . S
C3341 C3335 1.491 . S
C3341 C3340 1.400 . S
C3341 C3342 1.398 . S
C3342 H3330 0.950 . S
C3342 C3341 1.398 . S
C3342 C3343 1.391 . S
C3343 H3331 0.950 . S
C3343 C3339 1.393 . S
C3343 C3342 1.391 . S
H3344 C3352 0.950 . S
H3345 C3357 0.950 . S
H3346 C3354 0.950 . S
H3347 C3356 0.950 . S
H3348 C3358 0.950 . S
H3349 C3360 0.950 . S
H3350 C3362 0.950 . S
H3351 C3363 0.950 . S
C3352 H3344 0.950 . S
C3352 C3353 1.386 . S
C3352 C3354 1.391 . S
C3353 C3352 1.386 . S
C3353 C3357 1.393 . S
C3354 H3346 0.950 . S
C3354 C3352 1.391 . S
C3354 C3355 1.400 . S
C3355 C3354 1.400 . S
C3355 C3356 1.398 . S
C3355 C3361 1.491 . S
C3356 H3347 0.950 . S
C3356 C3355 1.398 . S
C3356 C3357 1.391 . S
C3357 H3345 0.950 . S
C3357 C3353 1.393 . S
C3357 C3356 1.391 . S
C3358 H3348 0.950 . S
C3358 C3359 1.386 . S
C3358 C3360 1.391 . S
C3359 C3358 1.386 . S
C3359 C3363 1.393 . S
C3360 H3349 0.950 . S
C3360 C3358 1.391 . S
C3360 C3361 1.400 . S
C3361 C3355 1.491 . S
C3361 C3360 1.400 . S
C3361 C3362 1.398 . S
C3362 H3350 0.950 . S
C3362 C3361 1.398 . S
C3362 C3363 1.391 . S
C3363 H3351 0.950 . S
C3363 C3359 1.393 . S
C3363 C3362 1.391 . S
H3364 C3372 0.950 . S
H3365 C3377 0.950 . S
H3366 C3374 0.950 . S
H3367 C3376 0.950 . S
H3368 C3378 0.950 . S
H3369 C3380 0.950 . S
H3370 C3382 0.950 . S
H3371 C3383 0.950 . S
C3372 H3364 0.950 . S
C3372 C3373 1.386 . S
C3372 C3374 1.391 . S
C3373 C3372 1.386 . S
C3373 C3377 1.393 . S
C3374 H3366 0.950 . S
C3374 C3372 1.391 . S
C3374 C3375 1.400 . S
C3375 C3374 1.400 . S
C3375 C3376 1.398 . S
C3375 C3381 1.491 . S
C3376 H3367 0.950 . S
C3376 C3375 1.398 . S
C3376 C3377 1.391 . S
C3377 H3365 0.950 . S
C3377 C3373 1.393 . S
C3377 C3376 1.391 . S
C3378 H3368 0.950 . S
C3378 C3379 1.386 . S
C3378 C3380 1.391 . S
C3379 C3378 1.386 . S
C3379 C3383 1.393 . S
C3380 H3369 0.950 . S
C3380 C3378 1.391 . S
C3380 C3381 1.400 . S
C3381 C3375 1.491 . S
C3381 C3380 1.400 . S
C3381 C3382 1.398 . S
C3382 H3370 0.950 . S
C3382 C3381 1.398 . S
C3382 C3383 1.391 . S
C3383 H3371 0.950 . S
C3383 C3379 1.393 . S
C3383 C3382 1.391 . S
H3384 C3392 0.950 . S
H3385 C3397 0.950 . S
H3386 C3394 0.950 . S
H3387 C3396 0.950 . S
H3388 C3398 0.950 . S
H3389 C3400 0.950 . S
H3390 C3402 0.950 . S
H3391 C3403 0.950 . S
C3392 H3384 0.950 . S
C3392 C3393 1.386 . S
C3392 C3394 1.391 . S
C3393 C3392 1.386 . S
C3393 C3397 1.393 . S
C3394 H3386 0.950 . S
C3394 C3392 1.391 . S
C3394 C3395 1.400 . S
C3395 C3394 1.400 . S
C3395 C3396 1.398 . S
C3395 C3401 1.491 . S
C3396 H3387 0.950 . S
C3396 C3395 1.398 . S
C3396 C3397 1.391 . S
C3397 H3385 0.950 . S
C3397 C3393 1.393 . S
C3397 C3396 1.391 . S
C3398 H3388 0.950 . S
C3398 C3399 1.386 . S
C3398 C3400 1.391 . S
C3399 C3398 1.386 . S
C3399 C3403 1.393 . S
C3400 H3389 0.950 . S
C3400 C3398 1.391 . S
C3400 C3401 1.400 . S
C3401 C3395 1.491 . S
C3401 C3400 1.400 . S
C3401 C3402 1.398 . S
C3402 H3390 0.950 . S
C3402 C3401 1.398 . S
C3402 C3403 1.391 . S
C3403 H3391 0.950 . S
C3403 C3399 1.393 . S
C3403 C3402 1.391 . S
H3404 C3412 0.950 . S
H3405 C3417 0.950 . S
H3406 C3414 0.950 . S
H3407 C3416 0.950 . S
H3408 C3418 0.950 . S
H3409 C3420 0.950 . S
H3410 C3422 0.950 . S
H3411 C3423 0.950 . S
C3412 H3404 0.950 . S
C3412 C3413 1.386 . S
C3412 C3414 1.391 . S
C3413 C3412 1.386 . S
C3413 C3417 1.393 . S
C3414 H3406 0.950 . S
C3414 C3412 1.391 . S
C3414 C3415 1.400 . S
C3415 C3414 1.400 . S
C3415 C3416 1.398 . S
C3415 C3421 1.491 . S
C3416 H3407 0.950 . S
C3416 C3415 1.398 . S
C3416 C3417 1.391 . S
C3417 H3405 0.950 . S
C3417 C3413 1.393 . S
C3417 C3416 1.391 . S
C3418 H3408 0.950 . S
C3418 C3419 1.386 . S
C3418 C3420 1.391 . S
C3419 C3418 1.386 . S
C3419 C3423 1.393 . S
C3420 H3409 0.950 . S
C3420 C3418 1.391 . S
C3420 C3421 1.400 . S
C3421 C3415 1.491 . S
C3421 C3420 1.400 . S
C3421 C3422 1.398 . S
C3422 H3410 0.950 . S
C3422 C3421 1.398 . S
C3422 C3423 1.391 . S
C3423 H3411 0.950 . S
C3423 C3419 1.393 . S
C3423 C3422 1.391 . S
H3424 C3432 0.950 . S
H3425 C3437 0.950 . S
H3426 C3434 0.950 . S
H3427 C3436 0.950 . S
H3428 C3438 0.950 . S
H3429 C3440 0.950 . S
H3430 C3442 0.950 . S
H3431 C3443 0.950 . S
C3432 H3424 0.950 . S
C3432 C3433 1.386 . S
C3432 C3434 1.391 . S
C3433 C3432 1.386 . S
C3433 C3437 1.393 . S
C3434 H3426 0.950 . S
C3434 C3432 1.391 . S
C3434 C3435 1.400 . S
C3435 C3434 1.400 . S
C3435 C3436 1.398 . S
C3435 C3441 1.491 . S
C3436 H3427 0.950 . S
C3436 C3435 1.398 . S
C3436 C3437 1.391 . S
C3437 H3425 0.950 . S
C3437 C3433 1.393 . S
C3437 C3436 1.391 . S
C3438 H3428 0.950 . S
C3438 C3439 1.386 . S
C3438 C3440 1.391 . S
C3439 C3438 1.386 . S
C3439 C3443 1.393 . S
C3440 H3429 0.950 . S
C3440 C3438 1.391 . S
C3440 C3441 1.400 . S
C3441 C3435 1.491 . S
C3441 C3440 1.400 . S
C3441 C3442 1.398 . S
C3442 H3430 0.950 . S
C3442 C3441 1.398 . S
C3442 C3443 1.391 . S
C3443 H3431 0.950 . S
C3443 C3439 1.393 . S
C3443 C3442 1.391 . S
H3444 C3452 0.950 . S
H3445 C3457 0.950 . S
H3446 C3454 0.950 . S
H3447 C3456 0.950 . S
H3448 C3458 0.950 . S
H3449 C3460 0.950 . S
H3450 C3462 0.950 . S
H3451 C3463 0.950 . S
C3452 H3444 0.950 . S
C3452 C3453 1.386 . S
C3452 C3454 1.391 . S
C3453 C3452 1.386 . S
C3453 C3457 1.393 . S
C3454 H3446 0.950 . S
C3454 C3452 1.391 . S
C3454 C3455 1.400 . S
C3455 C3454 1.400 . S
C3455 C3456 1.398 . S
C3455 C3461 1.491 . S
C3456 H3447 0.950 . S
C3456 C3455 1.398 . S
C3456 C3457 1.391 . S
C3457 H3445 0.950 . S
C3457 C3453 1.393 . S
C3457 C3456 1.391 . S
C3458 H3448 0.950 . S
C3458 C3459 1.386 . S
C3458 C3460 1.391 . S
C3459 C3458 1.386 . S
C3459 C3463 1.393 . S
C3460 H3449 0.950 . S
C3460 C3458 1.391 . S
C3460 C3461 1.400 . S
C3461 C3455 1.491 . S
C3461 C3460 1.400 . S
C3461 C3462 1.398 . S
C3462 H3450 0.950 . S
C3462 C3461 1.398 . S
C3462 C3463 1.391 . S
C3463 H3451 0.950 . S
C3463 C3459 1.393 . S
C3463 C3462 1.391 . S
H3464 C3472 0.950 . S
H3465 C3477 0.950 . S
H3466 C3474 0.950 . S
H3467 C3476 0.950 . S
H3468 C3478 0.950 . S
H3469 C3480 0.950 . S
H3470 C3482 0.950 . S
H3471 C3483 0.950 . S
C3472 H3464 0.950 . S
C3472 C3473 1.386 . S
C3472 C3474 1.391 . S
C3473 C3472 1.386 . S
C3473 C3477 1.393 . S
C3474 H3466 0.950 . S
C3474 C3472 1.391 . S
C3474 C3475 1.400 . S
C3475 C3474 1.400 . S
C3475 C3476 1.398 . S
C3475 C3481 1.491 . S
C3476 H3467 0.950 . S
C3476 C3475 1.398 . S
C3476 C3477 1.391 . S
C3477 H3465 0.950 . S
C3477 C3473 1.393 . S
C3477 C3476 1.391 . S
C3478 H3468 0.950 . S
C3478 C3479 1.386 . S
C3478 C3480 1.391 . S
C3479 C3478 1.386 . S
C3479 C3483 1.393 . S
C3480 H3469 0.950 . S
C3480 C3478 1.391 . S
C3480 C3481 1.400 . S
C3481 C3475 1.491 . S
C3481 C3480 1.400 . S
C3481 C3482 1.398 . S
C3482 H3470 0.950 . S
C3482 C3481 1.398 . S
C3482 C3483 1.391 . S
C3483 H3471 0.950 . S
C3483 C3479 1.393 . S
C3483 C3482 1.391 . S
H3484 C3492 0.950 . S
H3485 C3497 0.950 . S
H3486 C3494 0.950 . S
H3487 C3496 0.950 . S
H3488 C3498 0.950 . S
H3489 C3500 0.950 . S
H3490 C3502 0.950 . S
H3491 C3503 0.950 . S
C3492 H3484 0.950 . S
C3492 C3493 1.386 . S
C3492 C3494 1.391 . S
C3493 C3492 1.386 . S
C3493 C3497 1.393 . S
C3494 H3486 0.950 . S
C3494 C3492 1.391 . S
C3494 C3495 1.400 . S
C3495 C3494 1.400 . S
C3495 C3496 1.398 . S
C3495 C3501 1.491 . S
C3496 H3487 0.950 . S
C3496 C3495 1.398 . S
C3496 C3497 1.391 . S
C3497 H3485 0.950 . S
C3497 C3493 1.393 . S
C3497 C3496 1.391 . S
C3498 H3488 0.950 . S
C3498 C3499 1.386 . S
C3498 C3500 1.391 . S
C3499 C3498 1.386 . S
C3499 C3503 1.393 . S
C3500 H3489 0.950 . S
C3500 C3498 1.391 . S
C3500 C3501 1.400 . S
C3501 C3495 1.491 . S
C3501 C3500 1.400 . S
C3501 C3502 1.398 . S
C3502 H3490 0.950 . S
C3502 C3501 1.398 . S
C3502 C3503 1.391 . S
C3503 H3491 0.950 . S
C3503 C3499 1.393 . S
C3503 C3502 1.391 . S
H3504 C3512 0.950 . S
H3505 C3517 0.950 . S
H3506 C3514 0.950 . S
H3507 C3516 0.950 . S
H3508 C3518 0.950 . S
H3509 C3520 0.950 . S
H3510 C3522 0.950 . S
H3511 C3523 0.950 . S
C3512 H3504 0.950 . S
C3512 C3513 1.386 . S
C3512 C3514 1.391 . S
C3513 C3512 1.386 . S
C3513 C3517 1.393 . S
C3514 H3506 0.950 . S
C3514 C3512 1.391 . S
C3514 C3515 1.400 . S
C3515 C3514 1.400 . S
C3515 C3516 1.398 . S
C3515 C3521 1.491 . S
C3516 H3507 0.950 . S
C3516 C3515 1.398 . S
C3516 C3517 1.391 . S
C3517 H3505 0.950 . S
C3517 C3513 1.393 . S
C3517 C3516 1.391 . S
C3518 H3508 0.950 . S
C3518 C3519 1.386 . S
C3518 C3520 1.391 . S
C3519 C3518 1.386 . S
C3519 C3523 1.393 . S
C3520 H3509 0.950 . S
C3520 C3518 1.391 . S
C3520 C3521 1.400 . S
C3521 C3515 1.491 . S
C3521 C3520 1.400 . S
C3521 C3522 1.398 . S
C3522 H3510 0.950 . S
C3522 C3521 1.398 . S
C3522 C3523 1.391 . S
C3523 H3511 0.950 . S
C3523 C3519 1.393 . S
C3523 C3522 1.391 . S
H3524 C3532 0.950 . S
H3525 C3537 0.950 . S
H3526 C3534 0.950 . S
H3527 C3536 0.950 . S
H3528 C3538 0.950 . S
H3529 C3540 0.950 . S
H3530 C3542 0.950 . S
H3531 C3543 0.950 . S
C3532 H3524 0.950 . S
C3532 C3533 1.386 . S
C3532 C3534 1.391 . S
C3533 C3532 1.386 . S
C3533 C3537 1.393 . S
C3534 H3526 0.950 . S
C3534 C3532 1.391 . S
C3534 C3535 1.400 . S
C3535 C3534 1.400 . S
C3535 C3536 1.398 . S
C3535 C3541 1.491 . S
C3536 H3527 0.950 . S
C3536 C3535 1.398 . S
C3536 C3537 1.391 . S
C3537 H3525 0.950 . S
C3537 C3533 1.393 . S
C3537 C3536 1.391 . S
C3538 H3528 0.950 . S
C3538 C3539 1.386 . S
C3538 C3540 1.391 . S
C3539 C3538 1.386 . S
C3539 C3543 1.393 . S
C3540 H3529 0.950 . S
C3540 C3538 1.391 . S
C3540 C3541 1.400 . S
C3541 C3535 1.491 . S
C3541 C3540 1.400 . S
C3541 C3542 1.398 . S
C3542 H3530 0.950 . S
C3542 C3541 1.398 . S
C3542 C3543 1.391 . S
C3543 H3531 0.950 . S
C3543 C3539 1.393 . S
C3543 C3542 1.391 . S
H3544 C3552 0.950 . S
H3545 C3557 0.950 . S
H3546 C3554 0.950 . S
H3547 C3556 0.950 . S
H3548 C3558 0.950 . S
H3549 C3560 0.950 . S
H3550 C3562 0.950 . S
H3551 C3563 0.950 . S
C3552 H3544 0.950 . S
C3552 C3553 1.386 . S
C3552 C3554 1.391 . S
C3553 C3552 1.386 . S
C3553 C3557 1.393 . S
C3554 H3546 0.950 . S
C3554 C3552 1.391 . S
C3554 C3555 1.400 . S
C3555 C3554 1.400 . S
C3555 C3556 1.398 . S
C3555 C3561 1.491 . S
C3556 H3547 0.950 . S
C3556 C3555 1.398 . S
C3556 C3557 1.391 . S
C3557 H3545 0.950 . S
C3557 C3553 1.393 . S
C3557 C3556 1.391 . S
C3558 H3548 0.950 . S
C3558 C3559 1.386 . S
C3558 C3560 1.391 . S
C3559 C3558 1.386 . S
C3559 C3563 1.393 . S
C3560 H3549 0.950 . S
C3560 C3558 1.391 . S
C3560 C3561 1.400 . S
C3561 C3555 1.491 . S
C3561 C3560 1.400 . S
C3561 C3562 1.398 . S
C3562 H3550 0.950 . S
C3562 C3561 1.398 . S
C3562 C3563 1.391 . S
C3563 H3551 0.950 . S
C3563 C3559 1.393 . S
C3563 C3562 1.391 . S
H3564 C3572 0.950 . S
H3565 C3577 0.950 . S
H3566 C3574 0.950 . S
H3567 C3576 0.950 . S
H3568 C3578 0.950 . S
H3569 C3580 0.950 . S
H3570 C3582 0.950 . S
H3571 C3583 0.950 . S
C3572 H3564 0.950 . S
C3572 C3573 1.386 . S
C3572 C3574 1.391 . S
C3573 C3572 1.386 . S
C3573 C3577 1.393 . S
C3574 H3566 0.950 . S
C3574 C3572 1.391 . S
C3574 C3575 1.400 . S
C3575 C3574 1.400 . S
C3575 C3576 1.398 . S
C3575 C3581 1.491 . S
C3576 H3567 0.950 . S
C3576 C3575 1.398 . S
C3576 C3577 1.391 . S
C3577 H3565 0.950 . S
C3577 C3573 1.393 . S
C3577 C3576 1.391 . S
C3578 H3568 0.950 . S
C3578 C3579 1.386 . S
C3578 C3580 1.391 . S
C3579 C3578 1.386 . S
C3579 C3583 1.393 . S
C3580 H3569 0.950 . S
C3580 C3578 1.391 . S
C3580 C3581 1.400 . S
C3581 C3575 1.491 . S
C3581 C3580 1.400 . S
C3581 C3582 1.398 . S
C3582 H3570 0.950 . S
C3582 C3581 1.398 . S
C3582 C3583 1.391 . S
C3583 H3571 0.950 . S
C3583 C3579 1.393 . S
C3583 C3582 1.391 . S
H3584 C3592 0.950 . S
H3585 C3597 0.950 . S
H3586 C3594 0.950 . S
H3587 C3596 0.950 . S
H3588 C3598 0.950 . S
H3589 C3600 0.950 . S
H3590 C3602 0.950 . S
H3591 C3603 0.950 . S
C3592 H3584 0.950 . S
C3592 C3593 1.386 . S
C3592 C3594 1.391 . S
C3593 C3592 1.386 . S
C3593 C3597 1.393 . S
C3594 H3586 0.950 . S
C3594 C3592 1.391 . S
C3594 C3595 1.400 . S
C3595 C3594 1.400 . S
C3595 C3596 1.398 . S
C3595 C3601 1.491 . S
C3596 H3587 0.950 . S
C3596 C3595 1.398 . S
C3596 C3597 1.391 . S
C3597 H3585 0.950 . S
C3597 C3593 1.393 . S
C3597 C3596 1.391 . S
C3598 H3588 0.950 . S
C3598 C3599 1.386 . S
C3598 C3600 1.391 . S
C3599 C3598 1.386 . S
C3599 C3603 1.393 . S
C3600 H3589 0.950 . S
C3600 C3598 1.391 . S
C3600 C3601 1.400 . S
C3601 C3595 1.491 . S
C3601 C3600 1.400 . S
C3601 C3602 1.398 . S
C3602 H3590 0.950 . S
C3602 C3601 1.398 . S
C3602 C3603 1.391 . S
C3603 H3591 0.950 . S
C3603 C3599 1.393 . S
C3603 C3602 1.391 . S
H3604 C3612 0.950 . S
H3605 C3617 0.950 . S
H3606 C3614 0.950 . S
H3607 C3616 0.950 . S
H3608 C3618 0.950 . S
H3609 C3620 0.950 . S
H3610 C3622 0.950 . S
H3611 C3623 0.950 . S
C3612 H3604 0.950 . S
C3612 C3613 1.386 . S
C3612 C3614 1.391 . S
C3613 C3612 1.386 . S
C3613 C3617 1.393 . S
C3614 H3606 0.950 . S
C3614 C3612 1.391 . S
C3614 C3615 1.400 . S
C3615 C3614 1.400 . S
C3615 C3616 1.398 . S
C3615 C3621 1.491 . S
C3616 H3607 0.950 . S
C3616 C3615 1.398 . S
C3616 C3617 1.391 . S
C3617 H3605 0.950 . S
C3617 C3613 1.393 . S
C3617 C3616 1.391 . S
C3618 H3608 0.950 . S
C3618 C3619 1.386 . S
C3618 C3620 1.391 . S
C3619 C3618 1.386 . S
C3619 C3623 1.393 . S
C3620 H3609 0.950 . S
C3620 C3618 1.391 . S
C3620 C3621 1.400 . S
C3621 C3615 1.491 . S
C3621 C3620 1.400 . S
C3621 C3622 1.398 . S
C3622 H3610 0.950 . S
C3622 C3621 1.398 . S
C3622 C3623 1.391 . S
C3623 H3611 0.950 . S
C3623 C3619 1.393 . S
C3623 C3622 1.391 . S
H3624 C3632 0.950 . S
H3625 C3637 0.950 . S
H3626 C3634 0.950 . S
H3627 C3636 0.950 . S
H3628 C3638 0.950 . S
H3629 C3640 0.950 . S
H3630 C3642 0.950 . S
H3631 C3643 0.950 . S
C3632 H3624 0.950 . S
C3632 C3633 1.386 . S
C3632 C3634 1.391 . S
C3633 C3632 1.386 . S
C3633 C3637 1.393 . S
C3634 H3626 0.950 . S
C3634 C3632 1.391 . S
C3634 C3635 1.400 . S
C3635 C3634 1.400 . S
C3635 C3636 1.398 . S
C3635 C3641 1.491 . S
C3636 H3627 0.950 . S
C3636 C3635 1.398 . S
C3636 C3637 1.391 . S
C3637 H3625 0.950 . S
C3637 C3633 1.393 . S
C3637 C3636 1.391 . S
C3638 H3628 0.950 . S
C3638 C3639 1.386 . S
C3638 C3640 1.391 . S
C3639 C3638 1.386 . S
C3639 C3643 1.393 . S
C3640 H3629 0.950 . S
C3640 C3638 1.391 . S
C3640 C3641 1.400 . S
C3641 C3635 1.491 . S
C3641 C3640 1.400 . S
C3641 C3642 1.398 . S
C3642 H3630 0.950 . S
C3642 C3641 1.398 . S
C3642 C3643 1.391 . S
C3643 H3631 0.950 . S
C3643 C3639 1.393 . S
C3643 C3642 1.391 . S
H3644 C3652 0.950 . S
H3645 C3657 0.950 . S
H3646 C3654 0.950 . S
H3647 C3656 0.950 . S
H3648 C3658 0.950 . S
H3649 C3660 0.950 . S
H3650 C3662 0.950 . S
H3651 C3663 0.950 . S
C3652 H3644 0.950 . S
C3652 C3653 1.386 . S
C3652 C3654 1.391 . S
C3653 C3652 1.386 . S
C3653 C3657 1.393 . S
C3654 H3646 0.950 . S
C3654 C3652 1.391 . S
C3654 C3655 1.400 . S
C3655 C3654 1.400 . S
C3655 C3656 1.398 . S
C3655 C3661 1.491 . S
C3656 H3647 0.950 . S
C3656 C3655 1.398 . S
C3656 C3657 1.391 . S
C3657 H3645 0.950 . S
C3657 C3653 1.393 . S
C3657 C3656 1.391 . S
C3658 H3648 0.950 . S
C3658 C3659 1.386 . S
C3658 C3660 1.391 . S
C3659 C3658 1.386 . S
C3659 C3663 1.393 . S
C3660 H3649 0.950 . S
C3660 C3658 1.391 . S
C3660 C3661 1.400 . S
C3661 C3655 1.491 . S
C3661 C3660 1.400 . S
C3661 C3662 1.398 . S
C3662 H3650 0.950 . S
C3662 C3661 1.398 . S
C3662 C3663 1.391 . S
C3663 H3651 0.950 . S
C3663 C3659 1.393 . S
C3663 C3662 1.391 . S
H3664 C3672 0.950 . S
H3665 C3677 0.950 . S
H3666 C3674 0.950 . S
H3667 C3676 0.950 . S
H3668 C3678 0.950 . S
H3669 C3680 0.950 . S
H3670 C3682 0.950 . S
H3671 C3683 0.950 . S
C3672 H3664 0.950 . S
C3672 C3673 1.386 . S
C3672 C3674 1.391 . S
C3673 C3672 1.386 . S
C3673 C3677 1.393 . S
C3674 H3666 0.950 . S
C3674 C3672 1.391 . S
C3674 C3675 1.400 . S
C3675 C3674 1.400 . S
C3675 C3676 1.398 . S
C3675 C3681 1.491 . S
C3676 H3667 0.950 . S
C3676 C3675 1.398 . S
C3676 C3677 1.391 . S
C3677 H3665 0.950 . S
C3677 C3673 1.393 . S
C3677 C3676 1.391 . S
C3678 H3668 0.950 . S
C3678 C3679 1.386 . S
C3678 C3680 1.391 . S
C3679 C3678 1.386 . S
C3679 C3683 1.393 . S
C3680 H3669 0.950 . S
C3680 C3678 1.391 . S
C3680 C3681 1.400 . S
C3681 C3675 1.491 . S
C3681 C3680 1.400 . S
C3681 C3682 1.398 . S
C3682 H3670 0.950 . S
C3682 C3681 1.398 . S
C3682 C3683 1.391 . S
C3683 H3671 0.950 . S
C3683 C3679 1.393 . S
C3683 C3682 1.391 . S
H3684 C3692 0.950 . S
H3685 C3697 0.950 . S
H3686 C3694 0.950 . S
H3687 C3696 0.950 . S
H3688 C3698 0.950 . S
H3689 C3700 0.950 . S
H3690 C3702 0.950 . S
H3691 C3703 0.950 . S
C3692 H3684 0.950 . S
C3692 C3693 1.386 . S
C3692 C3694 1.391 . S
C3693 C3692 1.386 . S
C3693 C3697 1.393 . S
C3694 H3686 0.950 . S
C3694 C3692 1.391 . S
C3694 C3695 1.400 . S
C3695 C3694 1.400 . S
C3695 C3696 1.398 . S
C3695 C3701 1.491 . S
C3696 H3687 0.950 . S
C3696 C3695 1.398 . S
C3696 C3697 1.391 . S
C3697 H3685 0.950 . S
C3697 C3693 1.393 . S
C3697 C3696 1.391 . S
C3698 H3688 0.950 . S
C3698 C3699 1.386 . S
C3698 C3700 1.391 . S
C3699 C3698 1.386 . S
C3699 C3703 1.393 . S
C3700 H3689 0.950 . S
C3700 C3698 1.391 . S
C3700 C3701 1.400 . S
C3701 C3695 1.491 . S
C3701 C3700 1.400 . S
C3701 C3702 1.398 . S
C3702 H3690 0.950 . S
C3702 C3701 1.398 . S
C3702 C3703 1.391 . S
C3703 H3691 0.950 . S
C3703 C3699 1.393 . S
C3703 C3702 1.391 . S
H3704 C3712 0.950 . S
H3705 C3717 0.950 . S
H3706 C3714 0.950 . S
H3707 C3716 0.950 . S
H3708 C3718 0.950 . S
H3709 C3720 0.950 . S
H3710 C3722 0.950 . S
H3711 C3723 0.950 . S
C3712 H3704 0.950 . S
C3712 C3713 1.386 . S
C3712 C3714 1.391 . S
C3713 C3712 1.386 . S
C3713 C3717 1.393 . S
C3714 H3706 0.950 . S
C3714 C3712 1.391 . S
C3714 C3715 1.400 . S
C3715 C3714 1.400 . S
C3715 C3716 1.398 . S
C3715 C3721 1.491 . S
C3716 H3707 0.950 . S
C3716 C3715 1.398 . S
C3716 C3717 1.391 . S
C3717 H3705 0.950 . S
C3717 C3713 1.393 . S
C3717 C3716 1.391 . S
C3718 H3708 0.950 . S
C3718 C3719 1.386 . S
C3718 C3720 1.391 . S
C3719 C3718 1.386 . S
C3719 C3723 1.393 . S
C3720 H3709 0.950 . S
C3720 C3718 1.391 . S
C3720 C3721 1.400 . S
C3721 C3715 1.491 . S
C3721 C3720 1.400 . S
C3721 C3722 1.398 . S
C3722 H3710 0.950 . S
C3722 C3721 1.398 . S
C3722 C3723 1.391 . S
C3723 H3711 0.950 . S
C3723 C3719 1.393 . S
C3723 C3722 1.391 . S
H3724 C3732 0.950 . S
H3725 C3737 0.950 . S
H3726 C3734 0.950 . S
H3727 C3736 0.950 . S
H3728 C3738 0.950 . S
H3729 C3740 0.950 . S
H3730 C3742 0.950 . S
H3731 C3743 0.950 . S
C3732 H3724 0.950 . S
C3732 C3733 1.386 . S
C3732 C3734 1.391 . S
C3733 C3732 1.386 . S
C3733 C3737 1.393 . S
C3734 H3726 0.950 . S
C3734 C3732 1.391 . S
C3734 C3735 1.400 . S
C3735 C3734 1.400 . S
C3735 C3736 1.398 . S
C3735 C3741 1.491 . S
C3736 H3727 0.950 . S
C3736 C3735 1.398 . S
C3736 C3737 1.391 . S
C3737 H3725 0.950 . S
C3737 C3733 1.393 . S
C3737 C3736 1.391 . S
C3738 H3728 0.950 . S
C3738 C3739 1.386 . S
C3738 C3740 1.391 . S
C3739 C3738 1.386 . S
C3739 C3743 1.393 . S
C3740 H3729 0.950 . S
C3740 C3738 1.391 . S
C3740 C3741 1.400 . S
C3741 C3735 1.491 . S
C3741 C3740 1.400 . S
C3741 C3742 1.398 . S
C3742 H3730 0.950 . S
C3742 C3741 1.398 . S
C3742 C3743 1.391 . S
C3743 H3731 0.950 . S
C3743 C3739 1.393 . S
C3743 C3742 1.391 . S
H3744 C3752 0.950 . S
H3745 C3757 0.950 . S
H3746 C3754 0.950 . S
H3747 C3756 0.950 . S
H3748 C3758 0.950 . S
H3749 C3760 0.950 . S
H3750 C3762 0.950 . S
H3751 C3763 0.950 . S
C3752 H3744 0.950 . S
C3752 C3753 1.386 . S
C3752 C3754 1.391 . S
C3753 C3752 1.386 . S
C3753 C3757 1.393 . S
C3754 H3746 0.950 . S
C3754 C3752 1.391 . S
C3754 C3755 1.400 . S
C3755 C3754 1.400 . S
C3755 C3756 1.398 . S
C3755 C3761 1.491 . S
C3756 H3747 0.950 . S
C3756 C3755 1.398 . S
C3756 C3757 1.391 . S
C3757 H3745 0.950 . S
C3757 C3753 1.393 . S
C3757 C3756 1.391 . S
C3758 H3748 0.950 . S
C3758 C3759 1.386 . S
C3758 C3760 1.391 . S
C3759 C3758 1.386 . S
C3759 C3763 1.393 . S
C3760 H3749 0.950 . S
C3760 C3758 1.391 . S
C3760 C3761 1.400 . S
C3761 C3755 1.491 . S
C3761 C3760 1.400 . S
C3761 C3762 1.398 . S
C3762 H3750 0.950 . S
C3762 C3761 1.398 . S
C3762 C3763 1.391 . S
C3763 H3751 0.950 . S
C3763 C3759 1.393 . S
C3763 C3762 1.391 . S
H3764 C3772 0.950 . S
H3765 C3777 0.950 . S
H3766 C3774 0.950 . S
H3767 C3776 0.950 . S
H3768 C3778 0.950 . S
H3769 C3780 0.950 . S
H3770 C3782 0.950 . S
H3771 C3783 0.950 . S
C3772 H3764 0.950 . S
C3772 C3773 1.386 . S
C3772 C3774 1.391 . S
C3773 C3772 1.386 . S
C3773 C3777 1.393 . S
C3774 H3766 0.950 . S
C3774 C3772 1.391 . S
C3774 C3775 1.400 . S
C3775 C3774 1.400 . S
C3775 C3776 1.398 . S
C3775 C3781 1.491 . S
C3776 H3767 0.950 . S
C3776 C3775 1.398 . S
C3776 C3777 1.391 . S
C3777 H3765 0.950 . S
C3777 C3773 1.393 . S
C3777 C3776 1.391 . S
C3778 H3768 0.950 . S
C3778 C3779 1.386 . S
C3778 C3780 1.391 . S
C3779 C3778 1.386 . S
C3779 C3783 1.393 . S
C3780 H3769 0.950 . S
C3780 C3778 1.391 . S
C3780 C3781 1.400 . S
C3781 C3775 1.491 . S
C3781 C3780 1.400 . S
C3781 C3782 1.398 . S
C3782 H3770 0.950 . S
C3782 C3781 1.398 . S
C3782 C3783 1.391 . S
C3783 H3771 0.950 . S
C3783 C3779 1.393 . S
C3783 C3782 1.391 . S
H3784 C3792 0.950 . S
H3785 C3797 0.950 . S
H3786 C3794 0.950 . S
H3787 C3796 0.950 . S
H3788 C3798 0.950 . S
H3789 C3800 0.950 . S
H3790 C3802 0.950 . S
H3791 C3803 0.950 . S
C3792 H3784 0.950 . S
C3792 C3793 1.386 . S
C3792 C3794 1.391 . S
C3793 C3792 1.386 . S
C3793 C3797 1.393 . S
C3794 H3786 0.950 . S
C3794 C3792 1.391 . S
C3794 C3795 1.400 . S
C3795 C3794 1.400 . S
C3795 C3796 1.398 . S
C3795 C3801 1.491 . S
C3796 H3787 0.950 . S
C3796 C3795 1.398 . S
C3796 C3797 1.391 . S
C3797 H3785 0.950 . S
C3797 C3793 1.393 . S
C3797 C3796 1.391 . S
C3798 H3788 0.950 . S
C3798 C3799 1.386 . S
C3798 C3800 1.391 . S
C3799 C3798 1.386 . S
C3799 C3803 1.393 . S
C3800 H3789 0.950 . S
C3800 C3798 1.391 . S
C3800 C3801 1.400 . S
C3801 C3795 1.491 . S
C3801 C3800 1.400 . S
C3801 C3802 1.398 . S
C3802 H3790 0.950 . S
C3802 C3801 1.398 . S
C3802 C3803 1.391 . S
C3803 H3791 0.950 . S
C3803 C3799 1.393 . S
C3803 C3802 1.391 . S
H3804 C3812 0.950 . S
H3805 C3817 0.950 . S
H3806 C3814 0.950 . S
H3807 C3816 0.950 . S
H3808 C3818 0.950 . S
H3809 C3820 0.950 . S
H3810 C3822 0.950 . S
H3811 C3823 0.950 . S
C3812 H3804 0.950 . S
C3812 C3813 1.386 . S
C3812 C3814 1.391 . S
C3813 C3812 1.386 . S
C3813 C3817 1.393 . S
C3814 H3806 0.950 . S
C3814 C3812 1.391 . S
C3814 C3815 1.400 . S
C3815 C3814 1.400 . S
C3815 C3816 1.398 . S
C3815 C3821 1.491 . S
C3816 H3807 0.950 . S
C3816 C3815 1.398 . S
C3816 C3817 1.391 . S
C3817 H3805 0.950 . S
C3817 C3813 1.393 . S
C3817 C3816 1.391 . S
C3818 H3808 0.950 . S
C3818 C3819 1.386 . S
C3818 C3820 1.391 . S
C3819 C3818 1.386 . S
C3819 C3823 1.393 . S
C3820 H3809 0.950 . S
C3820 C3818 1.391 . S
C3820 C3821 1.400 . S
C3821 C3815 1.491 . S
C3821 C3820 1.400 . S
C3821 C3822 1.398 . S
C3822 H3810 0.950 . S
C3822 C3821 1.398 . S
C3822 C3823 1.391 . S
C3823 H3811 0.950 . S
C3823 C3819 1.393 . S
C3823 C3822 1.391 . S
H3824 C3832 0.950 . S
H3825 C3837 0.950 . S
H3826 C3834 0.950 . S
H3827 C3836 0.950 . S
H3828 C3838 0.950 . S
H3829 C3840 0.950 . S
H3830 C3842 0.950 . S
H3831 C3843 0.950 . S
C3832 H3824 0.950 . S
C3832 C3833 1.386 . S
C3832 C3834 1.391 . S
C3833 C3832 1.386 . S
C3833 C3837 1.393 . S
C3834 H3826 0.950 . S
C3834 C3832 1.391 . S
C3834 C3835 1.400 . S
C3835 C3834 1.400 . S
C3835 C3836 1.398 . S
C3835 C3841 1.491 . S
C3836 H3827 0.950 . S
C3836 C3835 1.398 . S
C3836 C3837 1.391 . S
C3837 H3825 0.950 . S
C3837 C3833 1.393 . S
C3837 C3836 1.391 . S
C3838 H3828 0.950 . S
C3838 C3839 1.386 . S
C3838 C3840 1.391 . S
C3839 C3838 1.386 . S
C3839 C3843 1.393 . S
C3840 H3829 0.950 . S
C3840 C3838 1.391 . S
C3840 C3841 1.400 . S
C3841 C3835 1.491 . S
C3841 C3840 1.400 . S
C3841 C3842 1.398 . S
C3842 H3830 0.950 . S
C3842 C3841 1.398 . S
C3842 C3843 1.391 . S
C3843 H3831 0.950 . S
C3843 C3839 1.393 . S
C3843 C3842 1.391 . S
H3844 C3852 0.950 . S
H3845 C3857 0.950 . S
H3846 C3854 0.950 . S
H3847 C3856 0.950 . S
H3848 C3858 0.950 . S
H3849 C3860 0.950 . S
H3850 C3862 0.950 . S
H3851 C3863 0.950 . S
C3852 H3844 0.950 . S
C3852 C3853 1.386 . S
C3852 C3854 1.391 . S
C3853 C3852 1.386 . S
C3853 C3857 1.393 . S
C3854 H3846 0.950 . S
C3854 C3852 1.391 . S
C3854 C3855 1.400 . S
C3855 C3854 1.400 . S
C3855 C3856 1.398 . S
C3855 C3861 1.491 . S
C3856 H3847 0.950 . S
C3856 C3855 1.398 . S
C3856 C3857 1.391 . S
C3857 H3845 0.950 . S
C3857 C3853 1.393 . S
C3857 C3856 1.391 . S
C3858 H3848 0.950 . S
C3858 C3859 1.386 . S
C3858 C3860 1.391 . S
C3859 C3858 1.386 . S
C3859 C3863 1.393 . S
C3860 H3849 0.950 . S
C3860 C3858 1.391 . S
C3860 C3861 1.400 . S
C3861 C3855 1.491 . S
C3861 C3860 1.400 . S
C3861 C3862 1.398 . S
C3862 H3850 0.950 . S
C3862 C3861 1.398 . S
C3862 C3863 1.391 . S
C3863 H3851 0.950 . S
C3863 C3859 1.393 . S
C3863 C3862 1.391 . S
H3864 C3872 0.950 . S
H3865 C3877 0.950 . S
H3866 C3874 0.950 . S
H3867 C3876 0.950 . S
H3868 C3878 0.950 . S
H3869 C3880 0.950 . S
H3870 C3882 0.950 . S
H3871 C3883 0.950 . S
C3872 H3864 0.950 . S
C3872 C3873 1.386 . S
C3872 C3874 1.391 . S
C3873 C3872 1.386 . S
C3873 C3877 1.393 . S
C3874 H3866 0.950 . S
C3874 C3872 1.391 . S
C3874 C3875 1.400 . S
C3875 C3874 1.400 . S
C3875 C3876 1.398 . S
C3875 C3881 1.491 . S
C3876 H3867 0.950 . S
C3876 C3875 1.398 . S
C3876 C3877 1.391 . S
C3877 H3865 0.950 . S
C3877 C3873 1.393 . S
C3877 C3876 1.391 . S
C3878 H3868 0.950 . S
C3878 C3879 1.386 . S
C3878 C3880 1.391 . S
C3879 C3878 1.386 . S
C3879 C3883 1.393 . S
C3880 H3869 0.950 . S
C3880 C3878 1.391 . S
C3880 C3881 1.400 . S
C3881 C3875 1.491 . S
C3881 C3880 1.400 . S
C3881 C3882 1.398 . S
C3882 H3870 0.950 . S
C3882 C3881 1.398 . S
C3882 C3883 1.391 . S
C3883 H3871 0.950 . S
C3883 C3879 1.393 . S
C3883 C3882 1.391 . S
H3884 C3892 0.950 . S
H3885 C3897 0.950 . S
H3886 C3894 0.950 . S
H3887 C3896 0.950 . S
H3888 C3898 0.950 . S
H3889 C3900 0.950 . S
H3890 C3902 0.950 . S
H3891 C3903 0.950 . S
C3892 H3884 0.950 . S
C3892 C3893 1.386 . S
C3892 C3894 1.391 . S
C3893 C3892 1.386 . S
C3893 C3897 1.393 . S
C3894 H3886 0.950 . S
C3894 C3892 1.391 . S
C3894 C3895 1.400 . S
C3895 C3894 1.400 . S
C3895 C3896 1.398 . S
C3895 C3901 1.491 . S
C3896 H3887 0.950 . S
C3896 C3895 1.398 . S
C3896 C3897 1.391 . S
C3897 H3885 0.950 . S
C3897 C3893 1.393 . S
C3897 C3896 1.391 . S
C3898 H3888 0.950 . S
C3898 C3899 1.386 . S
C3898 C3900 1.391 . S
C3899 C3898 1.386 . S
C3899 C3903 1.393 . S
C3900 H3889 0.950 . S
C3900 C3898 1.391 . S
C3900 C3901 1.400 . S
C3901 C3895 1.491 . S
C3901 C3900 1.400 . S
C3901 C3902 1.398 . S
C3902 H3890 0.950 . S
C3902 C3901 1.398 . S
C3902 C3903 1.391 . S
C3903 H3891 0.950 . S
C3903 C3899 1.393 . S
C3903 C3902 1.391 . S
H3904 C3912 0.950 . S
H3905 C3917 0.950 . S
H3906 C3914 0.950 . S
H3907 C3916 0.950 . S
H3908 C3918 0.950 . S
H3909 C3920 0.950 . S
H3910 C3922 0.950 . S
H3911 C3923 0.950 . S
C3912 H3904 0.950 . S
C3912 C3913 1.386 . S
C3912 C3914 1.391 . S
C3913 C3912 1.386 . S
C3913 C3917 1.393 . S
C3914 H3906 0.950 . S
C3914 C3912 1.391 . S
C3914 C3915 1.400 . S
C3915 C3914 1.400 . S
C3915 C3916 1.398 . S
C3915 C3921 1.491 . S
C3916 H3907 0.950 . S
C3916 C3915 1.398 . S
C3916 C3917 1.391 . S
C3917 H3905 0.950 . S
C3917 C3913 1.393 . S
C3917 C3916 1.391 . S
C3918 H3908 0.950 . S
C3918 C3919 1.386 . S
C3918 C3920 1.391 . S
C3919 C3918 1.386 . S
C3919 C3923 1.393 . S
C3920 H3909 0.950 . S
C3920 C3918 1.391 . S
C3920 C3921 1.400 . S
C3921 C3915 1.491 . S
C3921 C3920 1.400 . S
C3921 C3922 1.398 . S
C3922 H3910 0.950 . S
C3922 C3921 1.398 . S
C3922 C3923 1.391 . S
C3923 H3911 0.950 . S
C3923 C3919 1.393 . S
C3923 C3922 1.391 . S
H3924 C3932 0.950 . S
H3925 C3937 0.950 . S
H3926 C3934 0.950 . S
H3927 C3936 0.950 . S
H3928 C3938 0.950 . S
H3929 C3940 0.950 . S
H3930 C3942 0.950 . S
H3931 C3943 0.950 . S
C3932 H3924 0.950 . S
C3932 C3933 1.386 . S
C3932 C3934 1.391 . S
C3933 C3932 1.386 . S
C3933 C3937 1.393 . S
C3934 H3926 0.950 . S
C3934 C3932 1.391 . S
C3934 C3935 1.400 . S
C3935 C3934 1.400 . S
C3935 C3936 1.398 . S
C3935 C3941 1.491 . S
C3936 H3927 0.950 . S
C3936 C3935 1.398 . S
C3936 C3937 1.391 . S
C3937 H3925 0.950 . S
C3937 C3933 1.393 . S
C3937 C3936 1.391 . S
C3938 H3928 0.950 . S
C3938 C3939 1.386 . S
C3938 C3940 1.391 . S
C3939 C3938 1.386 . S
C3939 C3943 1.393 . S
C3940 H3929 0.950 . S
C3940 C3938 1.391 . S
C3940 C3941 1.400 . S
C3941 C3935 1.491 . S
C3941 C3940 1.400 . S
C3941 C3942 1.398 . S
C3942 H3930 0.950 . S
C3942 C3941 1.398 . S
C3942 C3943 1.391 . S
C3943 H3931 0.950 . S
C3943 C3939 1.393 . S
C3943 C3942 1.391 . S
H3944 C3952 0.950 . S
H3945 C3957 0.950 . S
H3946 C3954 0.950 . S
H3947 C3956 0.950 . S
H3948 C3958 0.950 . S
H3949 C3960 0.950 . S
H3950 C3962 0.950 . S
H3951 C3963 0.950 . S
C3952 H3944 0.950 . S
C3952 C3953 1.386 . S
C3952 C3954 1.391 . S
C3953 C3952 1.386 . S
C3953 C3957 1.393 . S
C3954 H3946 0.950 . S
C3954 C3952 1.391 . S
C3954 C3955 1.400 . S
C3955 C3954 1.400 . S
C3955 C3956 1.398 . S
C3955 C3961 1.491 . S
C3956 H3947 0.950 . S
C3956 C3955 1.398 . S
C3956 C3957 1.391 . S
C3957 H3945 0.950 . S
C3957 C3953 1.393 . S
C3957 C3956 1.391 . S
C3958 H3948 0.950 . S
C3958 C3959 1.386 . S
C3958 C3960 1.391 . S
C3959 C3958 1.386 . S
C3959 C3963 1.393 . S
C3960 H3949 0.950 . S
C3960 C3958 1.391 . S
C3960 C3961 1.400 . S
C3961 C3955 1.491 . S
C3961 C3960 1.400 . S
C3961 C3962 1.398 . S
C3962 H3950 0.950 . S
C3962 C3961 1.398 . S
C3962 C3963 1.391 . S
C3963 H3951 0.950 . S
C3963 C3959 1.393 . S
C3963 C3962 1.391 . S
H3964 C3972 0.950 . S
H3965 C3977 0.950 . S
H3966 C3974 0.950 . S
H3967 C3976 0.950 . S
H3968 C3978 0.950 . S
H3969 C3980 0.950 . S
H3970 C3982 0.950 . S
H3971 C3983 0.950 . S
C3972 H3964 0.950 . S
C3972 C3973 1.386 . S
C3972 C3974 1.391 . S
C3973 C3972 1.386 . S
C3973 C3977 1.393 . S
C3974 H3966 0.950 . S
C3974 C3972 1.391 . S
C3974 C3975 1.400 . S
C3975 C3974 1.400 . S
C3975 C3976 1.398 . S
C3975 C3981 1.491 . S
C3976 H3967 0.950 . S
C3976 C3975 1.398 . S
C3976 C3977 1.391 . S
C3977 H3965 0.950 . S
C3977 C3973 1.393 . S
C3977 C3976 1.391 . S
C3978 H3968 0.950 . S
C3978 C3979 1.386 . S
C3978 C3980 1.391 . S
C3979 C3978 1.386 . S
C3979 C3983 1.393 . S
C3980 H3969 0.950 . S
C3980 C3978 1.391 . S
C3980 C3981 1.400 . S
C3981 C3975 1.491 . S
C3981 C3980 1.400 . S
C3981 C3982 1.398 . S
C3982 H3970 0.950 . S
C3982 C3981 1.398 . S
C3982 C3983 1.391 . S
C3983 H3971 0.950 . S
C3983 C3979 1.393 . S
C3983 C3982 1.391 . S
C1593 C549 0.854 . S
C1599 C21 0.853 . S
C1613 C54 0.837 . S
C1619 C978 0.837 . S
C1633 C615 0.836 . S
C1639 C87 0.834 . S
C1653 C1044 0.750 . S
C1659 C120 0.751 . S
C1673 C153 0.861 . S
C1679 C417 0.861 . S
C1693 C846 0.886 . S
C1699 C186 0.887 . S
C1713 C483 0.834 . S
C1719 C219 0.831 . S
C1733 C252 0.819 . S
C1739 C912 0.820 . S
C1753 C285 0.729 . S
C1759 C1572 0.726 . S
C1773 C318 0.962 . S
C1779 C1539 0.964 . S
C1793 C351 0.959 . S
C1799 C1506 0.959 . S
C1813 C1473 0.733 . S
C1819 C384 0.735 . S
C1833 C1374 0.840 . S
C1839 C450 0.840 . S
C1853 C516 0.753 . S
C1859 C1440 0.753 . S
C1873 C1242 0.885 . S
C1879 C582 0.885 . S
C1893 C648 0.815 . S
C1899 C1308 0.814 . S
C1913 C681 0.727 . S
C1919 C1176 0.727 . S
C1933 C1143 0.960 . S
C1939 C714 0.960 . S
C1953 C1110 0.960 . S
C1959 C747 0.960 . S
C1973 C780 0.733 . S
C1979 C1077 0.734 . S
C1993 C813 0.830 . S
C1999 C1341 0.830 . S
C2013 C879 0.859 . S
C2019 C1407 0.859 . S
C2033 C945 0.825 . S
C2039 C1209 0.826 . S
C2053 C1011 0.858 . S
C2059 C1275 0.856 . S
C2073 C117 1.608 . S
C2079 N13 1.503 . S
C2093 N35 1.459 . S
C2099 C7 1.576 . S
C2113 C51 1.603 . S
C2119 N68 1.465 . S
C2133 N101 1.454 . S
C2139 C84 1.583 . S
C2153 N134 1.457 . S
C2159 C172 1.587 . S
C2173 C216 1.680 . S
C2179 N178 1.574 . S
C2193 N200 1.486 . S
C2199 C238 1.613 . S
C2213 N244 1.545 . S
C2219 C150 1.648 . S
C2233 N112 1.501 . S
C2239 C282 1.587 . S
C2253 C348 1.621 . S
C2259 N2 1.485 . S
C2273 C381 1.624 . S
C2279 N46 1.517 . S
C2293 C304 1.605 . S
C2299 N79 1.518 . S
C2313 C315 1.658 . S
C2319 N167 1.535 . S
C2333 C271 1.562 . S
C2339 N211 1.477 . S
C2353 N233 1.530 . S
C2359 C337 1.650 . S
C2373 N145 1.458 . S
C2379 C370 1.545 . S
C2393 C18 1.590 . S
C2399 N277 1.509 . S
C2413 C139 1.658 . S
C2419 N310 1.568 . S
C2433 N266 1.405 . S
C2439 C183 1.542 . S
C2453 C205 1.645 . S
C2459 N332 1.534 . S
C2473 N365 1.433 . S
C2479 C249 1.573 . S
C2493 C73 1.569 . S
C2499 N376 1.502 . S
C2513 N299 1.479 . S
C2519 C106 1.593 . S
C2533 C40 1.697 . S
C2539 N343 1.617 . S
C2553 C513 1.574 . S
C2559 N409 1.471 . S
C2573 C403 1.577 . S
C2579 N431 1.461 . S
C2593 N464 1.422 . S
C2599 C447 1.570 . S
C2613 N497 1.433 . S
C2619 C480 1.555 . S
C2633 N530 1.494 . S
C2639 C568 1.623 . S
C2653 N574 1.614 . S
C2659 C612 1.712 . S
C2673 N596 1.496 . S
C2679 C634 1.616 . S
C2693 C546 1.689 . S
C2699 N640 1.603 . S
C2713 C678 1.569 . S
C2719 N508 1.485 . S
C2733 C744 1.626 . S
C2739 N398 1.477 . S
C2753 N442 1.535 . S
C2759 C777 1.631 . S
C2773 C711 1.637 . S
C2779 N475 1.536 . S
C2793 C700 1.620 . S
C2799 N563 1.491 . S
C2813 N607 1.492 . S
C2819 C667 1.565 . S
C2833 C733 1.640 . S
C2839 N629 1.522 . S
C2853 C766 1.576 . S
C2859 N541 1.505 . S
C2873 N673 1.503 . S
C2879 C414 1.585 . S
C2893 C535 1.632 . S
C2899 N695 1.497 . S
C2913 N662 1.416 . S
C2919 C579 1.548 . S
C2933 N728 1.518 . S
C2939 C601 1.643 . S
C2953 N761 1.440 . S
C2959 C645 1.578 . S
C2973 N772 1.476 . S
C2979 C469 1.553 . S
C2993 C502 1.618 . S
C2999 N706 1.542 . S
C3013 N739 1.591 . S
C3019 C436 1.680 . S
C3033 N805 1.530 . S
C3039 C909 1.618 . S
C3053 N827 1.475 . S
C3059 C799 1.593 . S
C3073 N860 1.495 . S
C3079 C843 1.631 . S
C3093 C876 1.533 . S
C3099 N893 1.394 . S
C3113 N926 1.513 . S
C3119 C964 1.640 . S
C3133 N970 1.584 . S
C3139 C1008 1.678 . S
C3153 N992 1.473 . S
C3159 C1030 1.599 . S
C3173 C942 1.627 . S
C3179 N1036 1.529 . S
C3193 N904 1.476 . S
C3199 C1074 1.560 . S
C3213 N794 1.509 . S
C3219 C1129 1.625 . S
C3233 C1173 1.640 . S
C3239 N838 1.532 . S
C3253 C1107 1.670 . S
C3259 N871 1.577 . S
C3273 C1096 1.588 . S
C3279 N959 1.481 . S
C3293 C1063 1.550 . S
C3299 N1003 1.464 . S
C3313 C1140 1.632 . S
C3319 N1025 1.504 . S
C3333 C1162 1.585 . S
C3339 N937 1.499 . S
C3353 N1069 1.496 . S
C3359 C810 1.575 . S
C3373 C931 1.602 . S
C3379 N1091 1.476 . S
C3393 N1058 1.434 . S
C3399 C975 1.569 . S
C3413 C997 1.649 . S
C3419 N1135 1.573 . S
C3433 N1157 1.459 . S
C3439 C1041 1.588 . S
C3453 N1168 1.450 . S
C3459 C865 1.534 . S
C3473 N1102 1.590 . S
C3479 C898 1.666 . S
C3493 N1124 1.580 . S
C3499 C832 1.698 . S
C3513 N1201 1.541 . S
C3519 C1305 1.645 . S
C3533 N1223 1.450 . S
C3539 C1195 1.585 . S
C3553 N1256 1.502 . S
C3559 C1239 1.652 . S
C3573 N1289 1.429 . S
C3579 C1272 1.564 . S
C3593 N1322 1.472 . S
C3599 C1360 1.603 . S
C3613 N1366 1.564 . S
C3619 C1404 1.653 . S
C3633 N1388 1.482 . S
C3639 C1426 1.604 . S
C3653 N1432 1.514 . S
C3659 C1338 1.599 . S
C3673 N1300 1.463 . S
C3679 C1470 1.568 . S
C3693 N1190 1.473 . S
C3699 C1525 1.607 . S
C3713 N1234 1.535 . S
C3719 C1569 1.640 . S
C3733 N1267 1.563 . S
C3739 C1492 1.639 . S
C3753 C1503 1.608 . S
C3759 N1355 1.478 . S
C3773 C1459 1.566 . S
C3779 N1399 1.497 . S
C3793 N1421 1.523 . S
C3799 C1536 1.645 . S
C3813 N1333 1.493 . S
C3819 C1558 1.572 . S
C3833 C1206 1.575 . S
C3839 N1465 1.488 . S
C3853 N1498 1.546 . S
C3859 C1327 1.625 . S
C3873 C1371 1.571 . S
C3879 N1454 1.451 . S
C3893 N1531 1.560 . S
C3899 C1393 1.636 . S
C3913 C1437 1.584 . S
C3919 N1553 1.459 . S
C3933 C1261 1.544 . S
C3939 N1564 1.465 . S
C3953 N1487 1.494 . S
C3959 C1294 1.631 . S
C3973 C1228 1.698 . S
C3979 N1520 1.566 . S
