# Generated by pormake.
# Topology ukm, (4)-cn, num edge types: 1
# Building blocks:
#     Node 0, Type 0, BuildingBlock: NAHDIM_clean_sbu_0, # of connection points: 4
#     Node 1, Type 0, BuildingBlock: NAHDIM_clean_sbu_0, # of connection points: 4
#     Node 2, Type 0, BuildingBlock: NAHDIM_clean_sbu_0, # of connection points: 4
#     Node 3, Type 0, BuildingBlock: NAHDIM_clean_sbu_0, # of connection points: 4
#     Node 4, Type 0, BuildingBlock: NAHDIM_clean_sbu_0, # of connection points: 4
#     Node 5, Type 0, BuildingBlock: NAHDIM_clean_sbu_0, # of connection points: 4
#     Node 6, Type 0, BuildingBlock: NAHDIM_clean_sbu_0, # of connection points: 4
#     Node 7, Type 0, BuildingBlock: NAHDIM_clean_sbu_0, # of connection points: 4
#     Node 8, Type 0, BuildingBlock: NAHDIM_clean_sbu_0, # of connection points: 4
#     Node 9, Type 0, BuildingBlock: NAHDIM_clean_sbu_0, # of connection points: 4
#     Node 10, Type 0, BuildingBlock: NAHDIM_clean_sbu_0, # of connection points: 4
#     Node 11, Type 0, BuildingBlock: NAHDIM_clean_sbu_0, # of connection points: 4
#     Node 12, Type 0, BuildingBlock: NAHDIM_clean_sbu_0, # of connection points: 4
#     Node 13, Type 0, BuildingBlock: NAHDIM_clean_sbu_0, # of connection points: 4
#     Node 14, Type 0, BuildingBlock: NAHDIM_clean_sbu_0, # of connection points: 4
#     Node 15, Type 0, BuildingBlock: NAHDIM_clean_sbu_0, # of connection points: 4
#     Node 16, Type 0, BuildingBlock: NAHDIM_clean_sbu_0, # of connection points: 4
#     Node 17, Type 0, BuildingBlock: NAHDIM_clean_sbu_0, # of connection points: 4
#     Node 18, Type 0, BuildingBlock: NAHDIM_clean_sbu_0, # of connection points: 4
#     Node 19, Type 0, BuildingBlock: NAHDIM_clean_sbu_0, # of connection points: 4
#     Node 20, Type 0, BuildingBlock: NAHDIM_clean_sbu_0, # of connection points: 4
#     Node 21, Type 0, BuildingBlock: NAHDIM_clean_sbu_0, # of connection points: 4
#     Node 22, Type 0, BuildingBlock: NAHDIM_clean_sbu_0, # of connection points: 4
#     Node 23, Type 0, BuildingBlock: NAHDIM_clean_sbu_0, # of connection points: 4
#     Node 24, Type 0, BuildingBlock: NAHDIM_clean_sbu_0, # of connection points: 4
#     Node 25, Type 0, BuildingBlock: NAHDIM_clean_sbu_0, # of connection points: 4
#     Node 26, Type 0, BuildingBlock: NAHDIM_clean_sbu_0, # of connection points: 4
#     Node 27, Type 0, BuildingBlock: NAHDIM_clean_sbu_0, # of connection points: 4
#     Node 28, Type 0, BuildingBlock: NAHDIM_clean_sbu_0, # of connection points: 4
#     Node 29, Type 0, BuildingBlock: NAHDIM_clean_sbu_0, # of connection points: 4
#     Node 30, Type 0, BuildingBlock: NAHDIM_clean_sbu_0, # of connection points: 4
#     Node 31, Type 0, BuildingBlock: NAHDIM_clean_sbu_0, # of connection points: 4
#     Edge 32, Type (0, 0), None
#     Edge 33, Type (0, 0), None
#     Edge 34, Type (0, 0), None
#     Edge 35, Type (0, 0), None
#     Edge 36, Type (0, 0), None
#     Edge 37, Type (0, 0), None
#     Edge 38, Type (0, 0), None
#     Edge 39, Type (0, 0), None
#     Edge 40, Type (0, 0), None
#     Edge 41, Type (0, 0), None
#     Edge 42, Type (0, 0), None
#     Edge 43, Type (0, 0), None
#     Edge 44, Type (0, 0), None
#     Edge 45, Type (0, 0), None
#     Edge 46, Type (0, 0), None
#     Edge 47, Type (0, 0), None
#     Edge 48, Type (0, 0), None
#     Edge 49, Type (0, 0), None
#     Edge 50, Type (0, 0), None
#     Edge 51, Type (0, 0), None
#     Edge 52, Type (0, 0), None
#     Edge 53, Type (0, 0), None
#     Edge 54, Type (0, 0), None
#     Edge 55, Type (0, 0), None
#     Edge 56, Type (0, 0), None
#     Edge 57, Type (0, 0), None
#     Edge 58, Type (0, 0), None
#     Edge 59, Type (0, 0), None
#     Edge 60, Type (0, 0), None
#     Edge 61, Type (0, 0), None
#     Edge 62, Type (0, 0), None
#     Edge 63, Type (0, 0), None
#     Edge 64, Type (0, 0), None
#     Edge 65, Type (0, 0), None
#     Edge 66, Type (0, 0), None
#     Edge 67, Type (0, 0), None
#     Edge 68, Type (0, 0), None
#     Edge 69, Type (0, 0), None
#     Edge 70, Type (0, 0), None
#     Edge 71, Type (0, 0), None
#     Edge 72, Type (0, 0), None
#     Edge 73, Type (0, 0), None
#     Edge 74, Type (0, 0), None
#     Edge 75, Type (0, 0), None
#     Edge 76, Type (0, 0), None
#     Edge 77, Type (0, 0), None
#     Edge 78, Type (0, 0), None
#     Edge 79, Type (0, 0), None
#     Edge 80, Type (0, 0), None
#     Edge 81, Type (0, 0), None
#     Edge 82, Type (0, 0), None
#     Edge 83, Type (0, 0), None
#     Edge 84, Type (0, 0), None
#     Edge 85, Type (0, 0), None
#     Edge 86, Type (0, 0), None
#     Edge 87, Type (0, 0), None
#     Edge 88, Type (0, 0), None
#     Edge 89, Type (0, 0), None
#     Edge 90, Type (0, 0), None
#     Edge 91, Type (0, 0), None
#     Edge 92, Type (0, 0), None
#     Edge 93, Type (0, 0), None
#     Edge 94, Type (0, 0), None
#     Edge 95, Type (0, 0), None
# Relax obj value: 0.260
# Max RMSD: 0.216
# Mean RMSD: 0.216
data_MOF--net-ukm--node1-NAHDIM_clean_sbu_0--edge1-none
_symmetry_space_group_name_H-M    P1
_symmetry_Int_Tables_number       1
_symmetry_cell_setting            triclinic
loop_
_symmetry_equiv_pos_as_xyz
'x, y, z'
_cell_length_a     12.217371
_cell_length_b     49.633021
_cell_length_c     17.954338
_cell_angle_alpha  89.979521
_cell_angle_beta   90.000285
_cell_angle_gamma 89.998285
loop_
_atom_site_label
_atom_site_type_symbol
_atom_site_fract_x
_atom_site_fract_y
_atom_site_fract_z
_atom_type_partial_charge
C0 C 0.01177 0.2527 0.2245 0.0
O1 O 0.11088 0.25406 0.19648 0.0
O2 O 0.21037 0.29006 0.33822 0.0
Zn3 Zn 0.08301 0.30234 0.27422 0.0
O4 O 0.12435 0.30961 0.16812 0.0
C5 C 0.11631 0.3528 0.32336 0.0
O6 O 0.20995 0.34367 0.29792 0.0
O7 O 0.9764 0.27181 0.26548 0.0
C8 C 0.09538 0.33026 0.13124 0.0
O9 O 0.04264 0.35009 0.16352 0.0
C10 C 0.30704 0.28631 0.31451 0.0
O11 O 0.32724 0.28821 0.24286 0.0
O12 O 0.03204 0.33776 0.31958 0.0
C13 C 0.19314 0.97935 0.22449 0.0
O14 O 0.09406 0.97797 0.19643 0.0
O15 O -0.00546 0.94198 0.33814 0.0
Zn16 Zn 0.12198 0.92972 0.27423 0.0
O17 O 0.0808 0.92241 0.16813 0.0
C18 C 0.08875 0.87926 0.32332 0.0
O19 O -0.00486 0.88837 0.29775 0.0
O20 O 0.22854 0.96024 0.2655 0.0
C21 C 0.11062 0.90182 0.13133 0.0
O22 O 0.16418 0.88214 0.16368 0.0
C23 C 0.89788 0.94574 0.31442 0.0
O24 O 0.87768 0.94384 0.24277 0.0
O25 O 0.17297 0.89432 0.31969 0.0
C26 C 0.01177 0.97935 0.95792 0.0
O27 O 0.11089 0.97799 -0.01406 0.0
O28 O 0.21036 0.942 0.84418 0.0
Zn29 Zn 0.08301 0.92972 0.90819 0.0
O30 O 0.12437 0.92244 0.01429 0.0
C31 C 0.11631 0.87926 0.85906 0.0
O32 O 0.20995 0.88838 0.88449 0.0
O33 O 0.9764 0.96025 0.91694 0.0
C34 C 0.09541 0.90179 0.05116 0.0
O35 O 0.04264 0.88197 0.0189 0.0
C36 C 0.30703 0.94575 0.86788 0.0
O37 O 0.32723 0.94385 0.93953 0.0
O38 O 0.03204 0.8943 0.86283 0.0
C39 C 0.19314 0.25271 0.95793 0.0
O40 O 0.09405 0.25409 -0.01401 0.0
O41 O -0.00546 0.29008 0.84426 0.0
Zn42 Zn 0.12198 0.30234 0.90818 0.0
O43 O 0.08078 0.30965 0.01427 0.0
C44 C 0.08874 0.3528 0.85909 0.0
O45 O -0.00486 0.34369 0.88465 0.0
O46 O 0.22854 0.27181 0.91692 0.0
C47 C 0.11059 0.33023 0.05108 0.0
O48 O 0.16417 0.34992 0.01874 0.0
C49 C 0.89789 0.28632 0.86798 0.0
O50 O 0.87769 0.28821 0.93963 0.0
O51 O 0.17297 0.33774 0.86273 0.0
C52 C 0.9431 0.72935 0.70792 0.0
O53 O 0.84399 0.72799 0.73595 0.0
O54 O 0.7445 0.692 0.5942 0.0
Zn55 Zn 0.87186 0.67972 0.6582 0.0
O56 O 0.83053 0.67244 0.7643 0.0
C57 C 0.83856 0.62926 0.60906 0.0
O58 O 0.74492 0.63839 0.6345 0.0
O59 O -0.02153 0.71025 0.66694 0.0
C60 C 0.8595 0.65179 0.80118 0.0
O61 O 0.91223 0.63197 0.7689 0.0
C62 C 0.64784 0.69575 0.61791 0.0
O63 O 0.62763 0.69384 0.68956 0.0
O64 O 0.92283 0.6443 0.61284 0.0
C65 C 0.76173 0.00271 0.70793 0.0
O66 O 0.86081 0.00409 0.73599 0.0
O67 O 0.96034 0.04007 0.59428 0.0
Zn68 Zn 0.83289 0.05234 0.65819 0.0
O69 O 0.87407 0.05965 0.76429 0.0
C70 C 0.86613 0.1028 0.6091 0.0
O71 O 0.95973 0.09369 0.63467 0.0
O72 O 0.72634 0.02181 0.66692 0.0
C73 C 0.84425 0.08023 0.80109 0.0
O74 O 0.79069 0.09992 0.76874 0.0
C75 C 0.05699 0.03632 0.618 0.0
O76 O 0.07719 0.03821 0.68965 0.0
O77 O 0.78191 0.08774 0.61273 0.0
C78 C 0.9431 0.0027 -0.0255 0.0
O79 O 0.84399 0.00406 0.94648 0.0
O80 O 0.74451 0.04006 0.08824 0.0
Zn81 Zn 0.87186 0.05234 0.02423 0.0
O82 O 0.8305 0.05961 0.91813 0.0
C83 C 0.83856 0.1028 0.07337 0.0
O84 O 0.74492 0.09367 0.04793 0.0
O85 O -0.02153 0.02181 0.01548 0.0
C86 C 0.85946 0.08026 0.88126 0.0
O87 O 0.91223 0.10009 0.91353 0.0
C88 C 0.64784 0.03631 0.06454 0.0
O89 O 0.62764 0.03821 -0.00711 0.0
O90 O 0.92283 0.08776 0.06959 0.0
C91 C 0.76173 0.72935 -0.02551 0.0
O92 O 0.86082 0.72797 0.94643 0.0
O93 O 0.96033 0.69198 0.08816 0.0
Zn94 Zn 0.83289 0.67972 0.02424 0.0
O95 O 0.87409 0.67241 0.91815 0.0
C96 C 0.86613 0.62926 0.07333 0.0
O97 O 0.95973 0.63836 0.04777 0.0
O98 O 0.72634 0.71024 0.01551 0.0
C99 C 0.84429 0.65182 0.88134 0.0
O100 O 0.79071 0.63214 0.91368 0.0
C101 C 0.05698 0.69574 0.06444 0.0
O102 O 0.07718 0.69385 -0.00721 0.0
O103 O 0.78191 0.64432 0.06969 0.0
C104 C 0.01177 0.7527 0.7245 0.0
O105 O 0.11088 0.75406 0.69648 0.0
O106 O 0.21037 0.79006 0.83822 0.0
Zn107 Zn 0.08301 0.80234 0.77422 0.0
O108 O 0.12434 0.80961 0.66812 0.0
C109 C 0.11631 0.85279 0.82337 0.0
O110 O 0.20995 0.84367 0.79792 0.0
O111 O 0.9764 0.77181 0.76548 0.0
C112 C 0.09538 0.83026 0.63124 0.0
O113 O 0.04267 0.8501 0.66353 0.0
C114 C 0.30704 0.78631 0.81451 0.0
O115 O 0.32724 0.78821 0.74286 0.0
O116 O 0.03204 0.83776 0.81959 0.0
C117 C 0.19314 0.47935 0.72449 0.0
O118 O 0.09406 0.47797 0.69643 0.0
O119 O -0.00546 0.44198 0.83814 0.0
Zn120 Zn 0.12198 0.42972 0.77423 0.0
O121 O 0.08081 0.42241 0.66813 0.0
C122 C 0.08874 0.37926 0.82333 0.0
O123 O -0.00486 0.38837 0.79776 0.0
O124 O 0.22854 0.46024 0.7655 0.0
C125 C 0.11062 0.40182 0.63133 0.0
O126 O 0.16416 0.38213 0.66368 0.0
C127 C 0.89788 0.44574 0.81442 0.0
O128 O 0.87768 0.44384 0.74277 0.0
O129 O 0.17297 0.39432 0.81969 0.0
C130 C 0.01177 0.47935 0.45792 0.0
O131 O 0.11089 0.47799 0.48594 0.0
O132 O 0.21036 0.442 0.34418 0.0
Zn133 Zn 0.08301 0.42972 0.40819 0.0
O134 O 0.12437 0.42244 0.51429 0.0
C135 C 0.11631 0.37926 0.35904 0.0
O136 O 0.20996 0.38838 0.38449 0.0
O137 O 0.9764 0.46025 0.41694 0.0
C138 C 0.09542 0.40179 0.55116 0.0
O139 O 0.04266 0.38197 0.51889 0.0
C140 C 0.30703 0.44575 0.36788 0.0
O141 O 0.32724 0.44385 0.43953 0.0
O142 O 0.03204 0.3943 0.36283 0.0
C143 C 0.19314 0.75271 0.45792 0.0
O144 O 0.09405 0.75409 0.48598 0.0
O145 O -0.00546 0.79008 0.34426 0.0
Zn146 Zn 0.12198 0.80234 0.40818 0.0
O147 O 0.08079 0.80965 0.51427 0.0
C148 C 0.08874 0.8528 0.35908 0.0
O149 O -0.00486 0.84369 0.38465 0.0
O150 O 0.22854 0.77181 0.41691 0.0
C151 C 0.11058 0.83024 0.55108 0.0
O152 O 0.16414 0.84992 0.51873 0.0
C153 C 0.89789 0.78631 0.36798 0.0
O154 O 0.87769 0.78821 0.43963 0.0
O155 O 0.17297 0.83774 0.36273 0.0
C156 C 0.9431 0.22936 0.20792 0.0
O157 O 0.84399 0.22799 0.23594 0.0
O158 O 0.7445 0.192 0.0942 0.0
Zn159 Zn 0.87187 0.17972 0.1582 0.0
O160 O 0.83054 0.17244 0.2643 0.0
C161 C 0.83856 0.12926 0.10905 0.0
O162 O 0.74492 0.13839 0.1345 0.0
O163 O -0.02153 0.21025 0.16694 0.0
C164 C 0.85949 0.15179 0.30118 0.0
O165 O 0.9122 0.13196 0.26889 0.0
C166 C 0.64783 0.19575 0.11791 0.0
O167 O 0.62763 0.19384 0.18956 0.0
O168 O 0.92284 0.1443 0.11283 0.0
C169 C 0.76173 0.50271 0.20793 0.0
O170 O 0.86081 0.50409 0.23599 0.0
O171 O 0.96034 0.54007 0.09428 0.0
Zn172 Zn 0.83289 0.55234 0.15819 0.0
O173 O 0.87406 0.55965 0.26429 0.0
C174 C 0.86613 0.6028 0.10909 0.0
O175 O 0.95973 0.59369 0.13466 0.0
O176 O 0.72633 0.52181 0.16692 0.0
C177 C 0.84425 0.58023 0.30109 0.0
O178 O 0.79071 0.59992 0.26874 0.0
C179 C 0.05699 0.53632 0.118 0.0
O180 O 0.07719 0.53821 0.18965 0.0
O181 O 0.78191 0.58774 0.11273 0.0
C182 C 0.9431 0.5027 0.4745 0.0
O183 O 0.84399 0.50406 0.44648 0.0
O184 O 0.74451 0.54006 0.58824 0.0
Zn185 Zn 0.87186 0.55234 0.52423 0.0
O186 O 0.83051 0.55961 0.41813 0.0
C187 C 0.83856 0.60279 0.57338 0.0
O188 O 0.74492 0.59367 0.54794 0.0
O189 O -0.02153 0.52181 0.51548 0.0
C190 C 0.85945 0.58026 0.38126 0.0
O191 O 0.91221 0.60009 0.41353 0.0
C192 C 0.64784 0.53631 0.56454 0.0
O193 O 0.62764 0.53821 0.49289 0.0
O194 O 0.92283 0.58776 0.56959 0.0
C195 C 0.76173 0.22935 0.4745 0.0
O196 O 0.86082 0.22797 0.44644 0.0
O197 O 0.96033 0.19198 0.58816 0.0
Zn198 Zn 0.83289 0.17972 0.52424 0.0
O199 O 0.87408 0.17241 0.41815 0.0
C200 C 0.86613 0.12926 0.57335 0.0
O201 O 0.95974 0.13837 0.54778 0.0
O202 O 0.72633 0.21024 0.51551 0.0
C203 C 0.84429 0.15182 0.38134 0.0
O204 O 0.79073 0.13213 0.41369 0.0
C205 C 0.05698 0.19574 0.56444 0.0
O206 O 0.07718 0.19385 0.49279 0.0
O207 O 0.7819 0.14432 0.5697 0.0
C208 C 0.51177 0.2527 0.7245 0.0
O209 O 0.61088 0.25406 0.69647 0.0
O210 O 0.71038 0.29006 0.83822 0.0
Zn211 Zn 0.58301 0.30234 0.77422 0.0
O212 O 0.62434 0.30961 0.66812 0.0
C213 C 0.61631 0.3528 0.82336 0.0
O214 O 0.70996 0.34367 0.79792 0.0
O215 O 0.47641 0.27181 0.76548 0.0
C216 C 0.59538 0.33026 0.63124 0.0
O217 O 0.54266 0.35009 0.66353 0.0
C218 C 0.80704 0.28631 0.8145 0.0
O219 O 0.82726 0.28821 0.74285 0.0
O220 O 0.53204 0.33776 0.81958 0.0
C221 C 0.69314 0.97935 0.7245 0.0
O222 O 0.59405 0.97797 0.69643 0.0
O223 O 0.49453 0.94198 0.83814 0.0
Zn224 Zn 0.62198 0.92972 0.77423 0.0
O225 O 0.58081 0.92241 0.66813 0.0
C226 C 0.58874 0.87926 0.82332 0.0
O227 O 0.49514 0.88837 0.79775 0.0
O228 O 0.72853 0.96024 0.76551 0.0
C229 C 0.61062 0.90182 0.63133 0.0
O230 O 0.66417 0.88214 0.66368 0.0
C231 C 0.39788 0.94574 0.8144 0.0
O232 O 0.37766 0.94385 0.74276 0.0
O233 O 0.67296 0.89432 0.81969 0.0
C234 C 0.51177 0.97935 0.45792 0.0
O235 O 0.61088 0.97799 0.48594 0.0
O236 O 0.71037 0.942 0.34418 0.0
Zn237 Zn 0.58301 0.92972 0.40819 0.0
O238 O 0.62437 0.92244 0.51429 0.0
C239 C 0.61631 0.87926 0.35906 0.0
O240 O 0.70996 0.88838 0.38449 0.0
O241 O 0.47641 0.96025 0.41694 0.0
C242 C 0.59542 0.90179 0.55116 0.0
O243 O 0.54266 0.88197 0.51889 0.0
C244 C 0.80703 0.94575 0.3679 0.0
O245 O 0.82725 0.94385 0.43955 0.0
O246 O 0.53204 0.8943 0.36283 0.0
C247 C 0.69313 0.25271 0.45792 0.0
O248 O 0.59405 0.25409 0.48598 0.0
O249 O 0.49453 0.29008 0.34427 0.0
Zn250 Zn 0.62198 0.30234 0.40818 0.0
O251 O 0.58079 0.30965 0.51427 0.0
C252 C 0.58874 0.3528 0.35909 0.0
O253 O 0.49514 0.34369 0.38465 0.0
O254 O 0.72853 0.27181 0.41691 0.0
C255 C 0.61059 0.33023 0.55108 0.0
O256 O 0.66415 0.34992 0.51873 0.0
C257 C 0.39789 0.28631 0.368 0.0
O258 O 0.37767 0.2882 0.43964 0.0
O259 O 0.67296 0.33774 0.36273 0.0
C260 C 0.4431 0.72935 0.20792 0.0
O261 O 0.34399 0.72799 0.23595 0.0
O262 O 0.24449 0.692 0.09421 0.0
Zn263 Zn 0.37186 0.67972 0.1582 0.0
O264 O 0.33053 0.67244 0.2643 0.0
C265 C 0.33856 0.62926 0.10906 0.0
O266 O 0.24491 0.63839 0.1345 0.0
O267 O 0.47846 0.71025 0.16694 0.0
C268 C 0.35949 0.65179 0.30118 0.0
O269 O 0.41221 0.63196 0.2689 0.0
C270 C 0.14783 0.69575 0.11792 0.0
O271 O 0.12761 0.69385 0.18957 0.0
O272 O 0.42283 0.6443 0.11284 0.0
C273 C 0.26174 0.00271 0.20792 0.0
O274 O 0.36082 0.00409 0.23599 0.0
O275 O 0.46035 0.04007 0.09429 0.0
Zn276 Zn 0.33289 0.05234 0.15819 0.0
O277 O 0.37406 0.05965 0.26429 0.0
C278 C 0.36613 0.1028 0.1091 0.0
O279 O 0.45973 0.09369 0.13467 0.0
O280 O 0.22634 0.02181 0.16691 0.0
C281 C 0.34425 0.08023 0.30109 0.0
O282 O 0.2907 0.09992 0.26874 0.0
C283 C 0.55699 0.03631 0.11802 0.0
O284 O 0.57721 0.03821 0.18966 0.0
O285 O 0.28191 0.08774 0.11273 0.0
C286 C 0.4431 0.0027 0.4745 0.0
O287 O 0.34399 0.00406 0.44648 0.0
O288 O 0.2445 0.04006 0.58824 0.0
Zn289 Zn 0.37186 0.05234 0.52423 0.0
O290 O 0.3305 0.05961 0.41813 0.0
C291 C 0.33856 0.1028 0.57337 0.0
O292 O 0.24491 0.09367 0.54793 0.0
O293 O 0.47846 0.02181 0.51548 0.0
C294 C 0.35945 0.08026 0.38126 0.0
O295 O 0.41221 0.10009 0.41353 0.0
C296 C 0.14784 0.03631 0.56452 0.0
O297 O 0.12762 0.0382 0.49287 0.0
O298 O 0.42283 0.08776 0.56959 0.0
C299 C 0.26174 0.72935 0.4745 0.0
O300 O 0.36082 0.72797 0.44644 0.0
O301 O 0.46034 0.69198 0.58816 0.0
Zn302 Zn 0.3329 0.67972 0.52424 0.0
O303 O 0.37408 0.67241 0.41815 0.0
C304 C 0.36613 0.62926 0.57333 0.0
O305 O 0.45974 0.63836 0.54777 0.0
O306 O 0.22634 0.71024 0.51551 0.0
C307 C 0.34429 0.65182 0.38134 0.0
O308 O 0.29072 0.63214 0.41369 0.0
C309 C 0.55699 0.69574 0.56443 0.0
O310 O 0.5772 0.69385 0.49278 0.0
O311 O 0.28191 0.64432 0.56969 0.0
C312 C 0.51177 0.7527 0.2245 0.0
O313 O 0.61088 0.75406 0.19647 0.0
O314 O 0.71038 0.79006 0.33821 0.0
Zn315 Zn 0.58301 0.80234 0.27422 0.0
O316 O 0.62433 0.80961 0.16811 0.0
C317 C 0.61631 0.85279 0.32337 0.0
O318 O 0.70996 0.84367 0.29792 0.0
O319 O 0.47641 0.77181 0.26548 0.0
C320 C 0.59539 0.83026 0.13124 0.0
O321 O 0.54269 0.8501 0.16353 0.0
C322 C 0.80704 0.78631 0.3145 0.0
O323 O 0.82726 0.78821 0.24285 0.0
O324 O 0.53204 0.83776 0.31959 0.0
C325 C 0.69314 0.47935 0.2245 0.0
O326 O 0.59405 0.47797 0.19643 0.0
O327 O 0.49453 0.44198 0.33813 0.0
Zn328 Zn 0.62198 0.42972 0.27423 0.0
O329 O 0.58082 0.42241 0.16813 0.0
C330 C 0.58874 0.37926 0.32333 0.0
O331 O 0.49514 0.38837 0.29776 0.0
O332 O 0.72853 0.46024 0.26551 0.0
C333 C 0.61062 0.40182 0.13133 0.0
O334 O 0.66415 0.38213 0.16369 0.0
C335 C 0.39788 0.44574 0.3144 0.0
O336 O 0.37766 0.44385 0.24276 0.0
O337 O 0.67296 0.39432 0.31969 0.0
C338 C 0.51177 0.47935 0.95792 0.0
O339 O 0.61088 0.47799 -0.01406 0.0
O340 O 0.71037 0.442 0.84419 0.0
Zn341 Zn 0.58301 0.42972 0.90819 0.0
O342 O 0.62436 0.42244 0.01429 0.0
C343 C 0.61632 0.37926 0.85904 0.0
O344 O 0.70996 0.38839 0.88448 0.0
O345 O 0.47641 0.46025 0.91694 0.0
C346 C 0.59542 0.40179 0.05116 0.0
O347 O 0.54268 0.38196 0.01889 0.0
C348 C 0.80703 0.44575 0.8679 0.0
O349 O 0.82726 0.44385 0.93955 0.0
O350 O 0.53204 0.3943 0.86283 0.0
C351 C 0.69314 0.75271 0.95792 0.0
O352 O 0.59405 0.75409 -0.01402 0.0
O353 O 0.49453 0.79008 0.84427 0.0
Zn354 Zn 0.62198 0.80234 0.90818 0.0
O355 O 0.5808 0.80965 0.01428 0.0
C356 C 0.58874 0.8528 0.85907 0.0
O357 O 0.49513 0.84369 0.88465 0.0
O358 O 0.72853 0.77181 0.91691 0.0
C359 C 0.61058 0.83024 0.05108 0.0
O360 O 0.66413 0.84993 0.01873 0.0
C361 C 0.39789 0.78631 0.868 0.0
O362 O 0.37767 0.78821 0.93964 0.0
O363 O 0.67296 0.83774 0.86272 0.0
C364 C 0.4431 0.22936 0.70792 0.0
O365 O 0.34399 0.22799 0.73595 0.0
O366 O 0.24449 0.192 0.59421 0.0
Zn367 Zn 0.37186 0.17972 0.6582 0.0
O368 O 0.33054 0.17244 0.76431 0.0
C369 C 0.33856 0.12926 0.60905 0.0
O370 O 0.24491 0.13839 0.6345 0.0
O371 O 0.47846 0.21025 0.66694 0.0
C372 C 0.35949 0.15179 0.80118 0.0
O373 O 0.41218 0.13196 0.76889 0.0
C374 C 0.14783 0.19575 0.61792 0.0
O375 O 0.12761 0.19385 0.68957 0.0
O376 O 0.42283 0.1443 0.61283 0.0
C377 C 0.26174 0.50271 0.70792 0.0
O378 O 0.36082 0.50409 0.73599 0.0
O379 O 0.46035 0.54007 0.59429 0.0
Zn380 Zn 0.33289 0.55234 0.65819 0.0
O381 O 0.37405 0.55965 0.76429 0.0
C382 C 0.36613 0.6028 0.60909 0.0
O383 O 0.45974 0.59369 0.63466 0.0
O384 O 0.22634 0.52181 0.66691 0.0
C385 C 0.34425 0.58023 0.80109 0.0
O386 O 0.29073 0.59993 0.76873 0.0
C387 C 0.55699 0.53631 0.61802 0.0
O388 O 0.57721 0.53821 0.68967 0.0
O389 O 0.28191 0.58774 0.61273 0.0
C390 C 0.4431 0.5027 -0.0255 0.0
O391 O 0.34399 0.50406 0.94648 0.0
O392 O 0.2445 0.54006 0.08823 0.0
Zn393 Zn 0.37186 0.55234 0.02423 0.0
O394 O 0.33051 0.55961 0.91813 0.0
C395 C 0.33856 0.60279 0.07338 0.0
O396 O 0.24491 0.59367 0.04794 0.0
O397 O 0.47846 0.52181 0.01548 0.0
C398 C 0.35945 0.58027 0.88126 0.0
O399 O 0.41218 0.60009 0.91353 0.0
C400 C 0.14784 0.53631 0.06452 0.0
O401 O 0.12761 0.5382 -0.00713 0.0
O402 O 0.42283 0.58776 0.06959 0.0
C403 C 0.26174 0.22935 -0.0255 0.0
O404 O 0.36082 0.22797 0.94644 0.0
O405 O 0.46034 0.19198 0.08815 0.0
Zn406 Zn 0.33289 0.17972 0.02424 0.0
O407 O 0.37407 0.17241 0.91815 0.0
C408 C 0.36613 0.12926 0.07335 0.0
O409 O 0.45974 0.13837 0.04777 0.0
O410 O 0.22634 0.21024 0.01551 0.0
C411 C 0.34429 0.15182 0.88134 0.0
O412 O 0.29074 0.13213 0.91369 0.0
C413 C 0.55699 0.19574 0.06442 0.0
O414 O 0.5772 0.19385 -0.00722 0.0
O415 O 0.28191 0.14432 0.0697 0.0
loop_
_geom_bond_atom_site_label_1
_geom_bond_atom_site_label_2
_geom_bond_distance
_geom_bond_site_symmetry_2
_ccdc_geom_bond_type
C0 O1 1.160 1_655 S
C0 O7 1.185 . S
O1 C0 1.160 1_455 S
O2 Zn3 1.899 . S
O2 C10 1.284 . S
Zn3 O2 1.899 . S
Zn3 O4 2.032 . S
Zn3 O7 2.086 1_455 S
Zn3 O12 1.977 . S
O4 Zn3 2.032 . S
O4 C8 1.278 . S
C5 O6 1.203 . S
C5 O12 1.267 . S
O6 C5 1.203 . S
O7 C0 1.185 . S
O7 Zn3 2.086 1_655 S
C8 O4 1.278 . S
C8 O9 1.211 . S
O9 C8 1.211 . S
C10 O2 1.284 . S
C10 O11 1.273 . S
O11 C10 1.273 . S
O12 Zn3 1.977 . S
O12 C5 1.267 . S
C13 O14 1.160 . S
C13 O20 1.185 . S
O14 C13 1.160 . S
O15 Zn16 1.899 . S
O15 C23 1.284 1_455 S
Zn16 O15 1.899 . S
Zn16 O17 2.032 . S
Zn16 O20 2.086 . S
Zn16 O25 1.977 . S
O17 Zn16 2.032 . S
O17 C21 1.278 . S
C18 O19 1.203 . S
C18 O25 1.267 . S
O19 C18 1.203 . S
O20 C13 1.185 . S
O20 Zn16 2.086 . S
C21 O17 1.278 . S
C21 O22 1.211 . S
O22 C21 1.211 . S
C23 O15 1.284 1_655 S
C23 O24 1.273 . S
O24 C23 1.273 . S
O25 Zn16 1.977 . S
O25 C18 1.267 . S
C26 O27 1.160 1_655 S
C26 O33 1.185 . S
O27 C26 1.160 1_455 S
O28 Zn29 1.899 . S
O28 C36 1.284 . S
Zn29 O28 1.899 . S
Zn29 O30 2.032 1_556 S
Zn29 O33 2.086 1_455 S
Zn29 O38 1.977 . S
O30 Zn29 2.032 1_554 S
O30 C34 1.278 . S
C31 O32 1.203 . S
C31 O38 1.267 . S
O32 C31 1.203 . S
O33 C26 1.185 . S
O33 Zn29 2.086 1_655 S
C34 O30 1.278 . S
C34 O35 1.211 . S
O35 C34 1.211 . S
C36 O28 1.284 . S
C36 O37 1.273 . S
O37 C36 1.273 . S
O38 Zn29 1.977 . S
O38 C31 1.267 . S
C39 O40 1.160 . S
C39 O46 1.185 . S
O40 C39 1.160 . S
O41 Zn42 1.899 . S
O41 C49 1.284 1_455 S
Zn42 O41 1.899 . S
Zn42 O43 2.032 1_556 S
Zn42 O46 2.086 . S
Zn42 O51 1.977 . S
O43 Zn42 2.032 1_554 S
O43 C47 1.278 . S
C44 O45 1.203 . S
C44 O51 1.267 . S
O45 C44 1.203 . S
O46 C39 1.185 . S
O46 Zn42 2.086 . S
C47 O43 1.278 . S
C47 O48 1.211 . S
O48 C47 1.211 . S
C49 O41 1.284 1_655 S
C49 O50 1.273 . S
O50 C49 1.273 . S
O51 Zn42 1.977 . S
O51 C44 1.267 . S
C52 O53 1.160 1_455 S
C52 O59 1.185 . S
O53 C52 1.160 1_655 S
O54 Zn55 1.899 . S
O54 C62 1.284 . S
Zn55 O54 1.899 . S
Zn55 O56 2.032 . S
Zn55 O59 2.086 1_655 S
Zn55 O64 1.977 . S
O56 Zn55 2.032 . S
O56 C60 1.278 . S
C57 O58 1.203 . S
C57 O64 1.267 . S
O58 C57 1.203 . S
O59 C52 1.185 . S
O59 Zn55 2.086 1_455 S
C60 O56 1.278 . S
C60 O61 1.211 . S
O61 C60 1.211 . S
C62 O54 1.284 . S
C62 O63 1.273 . S
O63 C62 1.273 . S
O64 Zn55 1.977 . S
O64 C57 1.267 . S
C65 O66 1.160 . S
C65 O72 1.185 . S
O66 C65 1.160 . S
O67 Zn68 1.899 . S
O67 C75 1.284 1_655 S
Zn68 O67 1.899 . S
Zn68 O69 2.032 . S
Zn68 O72 2.086 . S
Zn68 O77 1.977 . S
O69 Zn68 2.032 . S
O69 C73 1.278 . S
C70 O71 1.203 . S
C70 O77 1.267 . S
O71 C70 1.203 . S
O72 C65 1.185 . S
O72 Zn68 2.086 . S
C73 O69 1.278 . S
C73 O74 1.211 . S
O74 C73 1.211 . S
C75 O67 1.284 1_455 S
C75 O76 1.273 . S
O76 C75 1.273 . S
O77 Zn68 1.977 . S
O77 C70 1.267 . S
C78 O79 1.160 1_455 S
C78 O85 1.185 . S
O79 C78 1.160 1_655 S
O80 Zn81 1.899 . S
O80 C88 1.284 . S
Zn81 O80 1.899 . S
Zn81 O82 2.032 1_554 S
Zn81 O85 2.086 1_655 S
Zn81 O90 1.977 . S
O82 Zn81 2.032 1_556 S
O82 C86 1.278 . S
C83 O84 1.203 . S
C83 O90 1.267 . S
O84 C83 1.203 . S
O85 C78 1.185 . S
O85 Zn81 2.086 1_455 S
C86 O82 1.278 . S
C86 O87 1.211 . S
O87 C86 1.211 . S
C88 O80 1.284 . S
C88 O89 1.273 . S
O89 C88 1.273 . S
O90 Zn81 1.977 . S
O90 C83 1.267 . S
C91 O92 1.160 . S
C91 O98 1.185 . S
O92 C91 1.160 . S
O93 Zn94 1.899 . S
O93 C101 1.284 1_655 S
Zn94 O93 1.899 . S
Zn94 O95 2.032 1_554 S
Zn94 O98 2.086 . S
Zn94 O103 1.977 . S
O95 Zn94 2.032 1_556 S
O95 C99 1.278 . S
C96 O97 1.203 . S
C96 O103 1.267 . S
O97 C96 1.203 . S
O98 C91 1.185 . S
O98 Zn94 2.086 . S
C99 O95 1.278 . S
C99 O100 1.211 . S
O100 C99 1.211 . S
C101 O93 1.284 1_455 S
C101 O102 1.273 . S
O102 C101 1.273 . S
O103 Zn94 1.977 . S
O103 C96 1.267 . S
C104 O105 1.160 1_655 S
C104 O111 1.185 . S
O105 C104 1.160 1_455 S
O106 Zn107 1.899 . S
O106 C114 1.284 . S
Zn107 O106 1.899 . S
Zn107 O108 2.032 . S
Zn107 O111 2.086 1_455 S
Zn107 O116 1.977 . S
O108 Zn107 2.032 . S
O108 C112 1.278 . S
C109 O110 1.203 . S
C109 O116 1.267 . S
O110 C109 1.203 . S
O111 C104 1.185 . S
O111 Zn107 2.086 1_655 S
C112 O108 1.278 . S
C112 O113 1.211 . S
O113 C112 1.211 . S
C114 O106 1.284 . S
C114 O115 1.273 . S
O115 C114 1.273 . S
O116 Zn107 1.977 . S
O116 C109 1.267 . S
C117 O118 1.160 . S
C117 O124 1.185 . S
O118 C117 1.160 . S
O119 Zn120 1.899 . S
O119 C127 1.284 1_455 S
Zn120 O119 1.899 . S
Zn120 O121 2.032 . S
Zn120 O124 2.086 . S
Zn120 O129 1.977 . S
O121 Zn120 2.032 . S
O121 C125 1.278 . S
C122 O123 1.203 . S
C122 O129 1.267 . S
O123 C122 1.203 . S
O124 C117 1.185 . S
O124 Zn120 2.086 . S
C125 O121 1.278 . S
C125 O126 1.211 . S
O126 C125 1.211 . S
C127 O119 1.284 1_655 S
C127 O128 1.273 . S
O128 C127 1.273 . S
O129 Zn120 1.977 . S
O129 C122 1.267 . S
C130 O131 1.160 1_655 S
C130 O137 1.185 . S
O131 C130 1.160 1_455 S
O132 Zn133 1.899 . S
O132 C140 1.284 . S
Zn133 O132 1.899 . S
Zn133 O134 2.032 . S
Zn133 O137 2.086 1_455 S
Zn133 O142 1.977 . S
O134 Zn133 2.032 . S
O134 C138 1.278 . S
C135 O136 1.203 . S
C135 O142 1.267 . S
O136 C135 1.203 . S
O137 C130 1.185 . S
O137 Zn133 2.086 1_655 S
C138 O134 1.278 . S
C138 O139 1.211 . S
O139 C138 1.211 . S
C140 O132 1.284 . S
C140 O141 1.273 . S
O141 C140 1.273 . S
O142 Zn133 1.977 . S
O142 C135 1.267 . S
C143 O144 1.160 . S
C143 O150 1.185 . S
O144 C143 1.160 . S
O145 Zn146 1.899 . S
O145 C153 1.284 1_455 S
Zn146 O145 1.899 . S
Zn146 O147 2.032 . S
Zn146 O150 2.086 . S
Zn146 O155 1.977 . S
O147 Zn146 2.032 . S
O147 C151 1.278 . S
C148 O149 1.203 . S
C148 O155 1.267 . S
O149 C148 1.203 . S
O150 C143 1.185 . S
O150 Zn146 2.086 . S
C151 O147 1.278 . S
C151 O152 1.211 . S
O152 C151 1.211 . S
C153 O145 1.284 1_655 S
C153 O154 1.273 . S
O154 C153 1.273 . S
O155 Zn146 1.977 . S
O155 C148 1.267 . S
C156 O157 1.160 1_455 S
C156 O163 1.185 . S
O157 C156 1.160 1_655 S
O158 Zn159 1.899 . S
O158 C166 1.284 . S
Zn159 O158 1.899 . S
Zn159 O160 2.032 . S
Zn159 O163 2.086 1_655 S
Zn159 O168 1.977 . S
O160 Zn159 2.032 . S
O160 C164 1.278 . S
C161 O162 1.203 . S
C161 O168 1.267 . S
O162 C161 1.203 . S
O163 C156 1.185 . S
O163 Zn159 2.086 1_455 S
C164 O160 1.278 . S
C164 O165 1.211 . S
O165 C164 1.211 . S
C166 O158 1.284 . S
C166 O167 1.273 . S
O167 C166 1.273 . S
O168 Zn159 1.977 . S
O168 C161 1.267 . S
C169 O170 1.160 . S
C169 O176 1.185 . S
O170 C169 1.160 . S
O171 Zn172 1.899 . S
O171 C179 1.284 1_655 S
Zn172 O171 1.899 . S
Zn172 O173 2.032 . S
Zn172 O176 2.086 . S
Zn172 O181 1.977 . S
O173 Zn172 2.032 . S
O173 C177 1.278 . S
C174 O175 1.203 . S
C174 O181 1.267 . S
O175 C174 1.203 . S
O176 C169 1.185 . S
O176 Zn172 2.086 . S
C177 O173 1.278 . S
C177 O178 1.211 . S
O178 C177 1.211 . S
C179 O171 1.284 1_455 S
C179 O180 1.273 . S
O180 C179 1.273 . S
O181 Zn172 1.977 . S
O181 C174 1.267 . S
C182 O183 1.160 1_455 S
C182 O189 1.185 . S
O183 C182 1.160 1_655 S
O184 Zn185 1.899 . S
O184 C192 1.284 . S
Zn185 O184 1.899 . S
Zn185 O186 2.032 . S
Zn185 O189 2.086 1_655 S
Zn185 O194 1.977 . S
O186 Zn185 2.032 . S
O186 C190 1.278 . S
C187 O188 1.203 . S
C187 O194 1.267 . S
O188 C187 1.203 . S
O189 C182 1.185 . S
O189 Zn185 2.086 1_455 S
C190 O186 1.278 . S
C190 O191 1.211 . S
O191 C190 1.211 . S
C192 O184 1.284 . S
C192 O193 1.273 . S
O193 C192 1.273 . S
O194 Zn185 1.977 . S
O194 C187 1.267 . S
C195 O196 1.160 . S
C195 O202 1.185 . S
O196 C195 1.160 . S
O197 Zn198 1.899 . S
O197 C205 1.284 1_655 S
Zn198 O197 1.899 . S
Zn198 O199 2.032 . S
Zn198 O202 2.086 . S
Zn198 O207 1.977 . S
O199 Zn198 2.032 . S
O199 C203 1.278 . S
C200 O201 1.203 . S
C200 O207 1.267 . S
O201 C200 1.203 . S
O202 C195 1.185 . S
O202 Zn198 2.086 . S
C203 O199 1.278 . S
C203 O204 1.211 . S
O204 C203 1.211 . S
C205 O197 1.284 1_455 S
C205 O206 1.273 . S
O206 C205 1.273 . S
O207 Zn198 1.977 . S
O207 C200 1.267 . S
C208 O209 1.160 . S
C208 O215 1.185 . S
O209 C208 1.160 . S
O210 Zn211 1.899 . S
O210 C218 1.284 . S
Zn211 O210 1.899 . S
Zn211 O212 2.032 . S
Zn211 O215 2.086 . S
Zn211 O220 1.977 . S
O212 Zn211 2.032 . S
O212 C216 1.278 . S
C213 O214 1.203 . S
C213 O220 1.267 . S
O214 C213 1.203 . S
O215 C208 1.185 . S
O215 Zn211 2.086 . S
C216 O212 1.278 . S
C216 O217 1.211 . S
O217 C216 1.211 . S
C218 O210 1.284 . S
C218 O219 1.273 . S
O219 C218 1.273 . S
O220 Zn211 1.977 . S
O220 C213 1.267 . S
C221 O222 1.160 . S
C221 O228 1.185 . S
O222 C221 1.160 . S
O223 Zn224 1.899 . S
O223 C231 1.284 . S
Zn224 O223 1.899 . S
Zn224 O225 2.032 . S
Zn224 O228 2.086 . S
Zn224 O233 1.977 . S
O225 Zn224 2.032 . S
O225 C229 1.278 . S
C226 O227 1.203 . S
C226 O233 1.267 . S
O227 C226 1.203 . S
O228 C221 1.185 . S
O228 Zn224 2.086 . S
C229 O225 1.278 . S
C229 O230 1.211 . S
O230 C229 1.211 . S
C231 O223 1.284 . S
C231 O232 1.273 . S
O232 C231 1.273 . S
O233 Zn224 1.977 . S
O233 C226 1.267 . S
C234 O235 1.160 . S
C234 O241 1.185 . S
O235 C234 1.160 . S
O236 Zn237 1.899 . S
O236 C244 1.284 . S
Zn237 O236 1.899 . S
Zn237 O238 2.032 . S
Zn237 O241 2.086 . S
Zn237 O246 1.977 . S
O238 Zn237 2.032 . S
O238 C242 1.278 . S
C239 O240 1.203 . S
C239 O246 1.267 . S
O240 C239 1.203 . S
O241 C234 1.185 . S
O241 Zn237 2.086 . S
C242 O238 1.278 . S
C242 O243 1.211 . S
O243 C242 1.211 . S
C244 O236 1.284 . S
C244 O245 1.273 . S
O245 C244 1.273 . S
O246 Zn237 1.977 . S
O246 C239 1.267 . S
C247 O248 1.160 . S
C247 O254 1.185 . S
O248 C247 1.160 . S
O249 Zn250 1.899 . S
O249 C257 1.284 . S
Zn250 O249 1.899 . S
Zn250 O251 2.032 . S
Zn250 O254 2.086 . S
Zn250 O259 1.977 . S
O251 Zn250 2.032 . S
O251 C255 1.278 . S
C252 O253 1.203 . S
C252 O259 1.267 . S
O253 C252 1.203 . S
O254 C247 1.185 . S
O254 Zn250 2.086 . S
C255 O251 1.278 . S
C255 O256 1.211 . S
O256 C255 1.211 . S
C257 O249 1.284 . S
C257 O258 1.273 . S
O258 C257 1.273 . S
O259 Zn250 1.977 . S
O259 C252 1.267 . S
C260 O261 1.160 . S
C260 O267 1.185 . S
O261 C260 1.160 . S
O262 Zn263 1.899 . S
O262 C270 1.284 . S
Zn263 O262 1.899 . S
Zn263 O264 2.032 . S
Zn263 O267 2.086 . S
Zn263 O272 1.977 . S
O264 Zn263 2.032 . S
O264 C268 1.278 . S
C265 O266 1.203 . S
C265 O272 1.267 . S
O266 C265 1.203 . S
O267 C260 1.185 . S
O267 Zn263 2.086 . S
C268 O264 1.278 . S
C268 O269 1.211 . S
O269 C268 1.211 . S
C270 O262 1.284 . S
C270 O271 1.273 . S
O271 C270 1.273 . S
O272 Zn263 1.977 . S
O272 C265 1.267 . S
C273 O274 1.160 . S
C273 O280 1.185 . S
O274 C273 1.160 . S
O275 Zn276 1.899 . S
O275 C283 1.284 . S
Zn276 O275 1.899 . S
Zn276 O277 2.032 . S
Zn276 O280 2.086 . S
Zn276 O285 1.977 . S
O277 Zn276 2.032 . S
O277 C281 1.278 . S
C278 O279 1.203 . S
C278 O285 1.267 . S
O279 C278 1.203 . S
O280 C273 1.185 . S
O280 Zn276 2.086 . S
C281 O277 1.278 . S
C281 O282 1.211 . S
O282 C281 1.211 . S
C283 O275 1.284 . S
C283 O284 1.273 . S
O284 C283 1.273 . S
O285 Zn276 1.977 . S
O285 C278 1.267 . S
C286 O287 1.160 . S
C286 O293 1.185 . S
O287 C286 1.160 . S
O288 Zn289 1.899 . S
O288 C296 1.284 . S
Zn289 O288 1.899 . S
Zn289 O290 2.032 . S
Zn289 O293 2.086 . S
Zn289 O298 1.977 . S
O290 Zn289 2.032 . S
O290 C294 1.278 . S
C291 O292 1.203 . S
C291 O298 1.267 . S
O292 C291 1.203 . S
O293 C286 1.185 . S
O293 Zn289 2.086 . S
C294 O290 1.278 . S
C294 O295 1.211 . S
O295 C294 1.211 . S
C296 O288 1.284 . S
C296 O297 1.273 . S
O297 C296 1.273 . S
O298 Zn289 1.977 . S
O298 C291 1.267 . S
C299 O300 1.160 . S
C299 O306 1.185 . S
O300 C299 1.160 . S
O301 Zn302 1.899 . S
O301 C309 1.284 . S
Zn302 O301 1.899 . S
Zn302 O303 2.032 . S
Zn302 O306 2.086 . S
Zn302 O311 1.977 . S
O303 Zn302 2.032 . S
O303 C307 1.278 . S
C304 O305 1.203 . S
C304 O311 1.267 . S
O305 C304 1.203 . S
O306 C299 1.185 . S
O306 Zn302 2.086 . S
C307 O303 1.278 . S
C307 O308 1.211 . S
O308 C307 1.211 . S
C309 O301 1.284 . S
C309 O310 1.273 . S
O310 C309 1.273 . S
O311 Zn302 1.977 . S
O311 C304 1.267 . S
C312 O313 1.160 . S
C312 O319 1.185 . S
O313 C312 1.160 . S
O314 Zn315 1.899 . S
O314 C322 1.284 . S
Zn315 O314 1.899 . S
Zn315 O316 2.032 . S
Zn315 O319 2.086 . S
Zn315 O324 1.977 . S
O316 Zn315 2.032 . S
O316 C320 1.278 . S
C317 O318 1.203 . S
C317 O324 1.267 . S
O318 C317 1.203 . S
O319 C312 1.185 . S
O319 Zn315 2.086 . S
C320 O316 1.278 . S
C320 O321 1.211 . S
O321 C320 1.211 . S
C322 O314 1.284 . S
C322 O323 1.273 . S
O323 C322 1.273 . S
O324 Zn315 1.977 . S
O324 C317 1.267 . S
C325 O326 1.160 . S
C325 O332 1.185 . S
O326 C325 1.160 . S
O327 Zn328 1.899 . S
O327 C335 1.284 . S
Zn328 O327 1.899 . S
Zn328 O329 2.032 . S
Zn328 O332 2.086 . S
Zn328 O337 1.977 . S
O329 Zn328 2.032 . S
O329 C333 1.278 . S
C330 O331 1.203 . S
C330 O337 1.267 . S
O331 C330 1.203 . S
O332 C325 1.185 . S
O332 Zn328 2.086 . S
C333 O329 1.278 . S
C333 O334 1.211 . S
O334 C333 1.211 . S
C335 O327 1.284 . S
C335 O336 1.273 . S
O336 C335 1.273 . S
O337 Zn328 1.977 . S
O337 C330 1.267 . S
C338 O339 1.160 . S
C338 O345 1.185 . S
O339 C338 1.160 . S
O340 Zn341 1.899 . S
O340 C348 1.284 . S
Zn341 O340 1.899 . S
Zn341 O342 2.032 1_556 S
Zn341 O345 2.086 . S
Zn341 O350 1.977 . S
O342 Zn341 2.032 1_554 S
O342 C346 1.278 . S
C343 O344 1.203 . S
C343 O350 1.267 . S
O344 C343 1.203 . S
O345 C338 1.185 . S
O345 Zn341 2.086 . S
C346 O342 1.278 . S
C346 O347 1.211 . S
O347 C346 1.211 . S
C348 O340 1.284 . S
C348 O349 1.273 . S
O349 C348 1.273 . S
O350 Zn341 1.977 . S
O350 C343 1.267 . S
C351 O352 1.160 . S
C351 O358 1.185 . S
O352 C351 1.160 . S
O353 Zn354 1.899 . S
O353 C361 1.284 . S
Zn354 O353 1.899 . S
Zn354 O355 2.032 1_556 S
Zn354 O358 2.086 . S
Zn354 O363 1.977 . S
O355 Zn354 2.032 1_554 S
O355 C359 1.278 . S
C356 O357 1.203 . S
C356 O363 1.267 . S
O357 C356 1.203 . S
O358 C351 1.185 . S
O358 Zn354 2.086 . S
C359 O355 1.278 . S
C359 O360 1.211 . S
O360 C359 1.211 . S
C361 O353 1.284 . S
C361 O362 1.273 . S
O362 C361 1.273 . S
O363 Zn354 1.977 . S
O363 C356 1.267 . S
C364 O365 1.160 . S
C364 O371 1.185 . S
O365 C364 1.160 . S
O366 Zn367 1.899 . S
O366 C374 1.284 . S
Zn367 O366 1.899 . S
Zn367 O368 2.032 . S
Zn367 O371 2.086 . S
Zn367 O376 1.977 . S
O368 Zn367 2.032 . S
O368 C372 1.278 . S
C369 O370 1.203 . S
C369 O376 1.267 . S
O370 C369 1.203 . S
O371 C364 1.185 . S
O371 Zn367 2.086 . S
C372 O368 1.278 . S
C372 O373 1.211 . S
O373 C372 1.211 . S
C374 O366 1.284 . S
C374 O375 1.273 . S
O375 C374 1.273 . S
O376 Zn367 1.977 . S
O376 C369 1.267 . S
C377 O378 1.160 . S
C377 O384 1.185 . S
O378 C377 1.160 . S
O379 Zn380 1.899 . S
O379 C387 1.284 . S
Zn380 O379 1.899 . S
Zn380 O381 2.032 . S
Zn380 O384 2.086 . S
Zn380 O389 1.977 . S
O381 Zn380 2.032 . S
O381 C385 1.278 . S
C382 O383 1.203 . S
C382 O389 1.267 . S
O383 C382 1.203 . S
O384 C377 1.185 . S
O384 Zn380 2.086 . S
C385 O381 1.278 . S
C385 O386 1.211 . S
O386 C385 1.211 . S
C387 O379 1.284 . S
C387 O388 1.273 . S
O388 C387 1.273 . S
O389 Zn380 1.977 . S
O389 C382 1.267 . S
C390 O391 1.160 . S
C390 O397 1.185 . S
O391 C390 1.160 . S
O392 Zn393 1.899 . S
O392 C400 1.284 . S
Zn393 O392 1.899 . S
Zn393 O394 2.032 1_554 S
Zn393 O397 2.086 . S
Zn393 O402 1.977 . S
O394 Zn393 2.032 1_556 S
O394 C398 1.278 . S
C395 O396 1.203 . S
C395 O402 1.267 . S
O396 C395 1.203 . S
O397 C390 1.185 . S
O397 Zn393 2.086 . S
C398 O394 1.278 . S
C398 O399 1.211 . S
O399 C398 1.211 . S
C400 O392 1.284 . S
C400 O401 1.273 . S
O401 C400 1.273 . S
O402 Zn393 1.977 . S
O402 C395 1.267 . S
C403 O404 1.160 . S
C403 O410 1.185 . S
O404 C403 1.160 . S
O405 Zn406 1.899 . S
O405 C413 1.284 . S
Zn406 O405 1.899 . S
Zn406 O407 2.032 1_554 S
Zn406 O410 2.086 . S
Zn406 O415 1.977 . S
O407 Zn406 2.032 1_556 S
O407 C411 1.278 . S
C408 O409 1.203 . S
C408 O415 1.267 . S
O409 C408 1.203 . S
O410 C403 1.185 . S
O410 Zn406 2.086 . S
C411 O407 1.278 . S
C411 O412 1.211 . S
O412 C411 1.211 . S
C413 O405 1.284 . S
C413 O414 1.273 . S
O414 C413 1.273 . S
O415 Zn406 1.977 . S
O415 C408 1.267 . S
C135 C5 0.980 . S
C18 C148 0.978 . S
C31 C109 0.980 . S
C122 C44 0.978 . S
C187 C57 0.980 . S
C70 C200 0.978 . S
C161 C83 0.980 . S
C174 C96 0.978 . S
C343 C213 0.980 . S
C356 C226 0.978 . S
C317 C239 0.980 . S
C252 C330 0.978 . S
C395 C265 0.980 . S
C408 C278 0.978 . S
C291 C369 0.980 . S
C304 C382 0.978 . S
C257 C10 1.564 . S
C23 C244 1.564 . S
C231 C36 1.564 . S
C218 C49 1.564 . S
C62 C309 1.564 . S
C75 C296 1.564 . S
C283 C88 1.564 . S
C101 C270 1.564 . S
C361 C114 1.564 . S
C348 C127 1.564 . S
C335 C140 1.564 . S
C322 C153 1.564 . S
C166 C413 1.564 . S
C400 C179 1.564 . S
C192 C387 1.564 . S
C205 C374 1.564 . S
C156 C0 2.613 1_455 S
C13 C273 2.607 1_565 S
C78 C26 2.613 1_444 S
C403 C39 2.607 1_554 S
C52 C104 2.613 1_455 S
C221 C65 2.607 1_565 S
C351 C91 2.607 1_556 S
C377 C117 2.607 . S
C130 C182 2.613 1_655 S
C299 C143 2.607 . S
C325 C169 2.607 . S
C195 C247 2.607 . S
C208 C364 2.613 . S
C286 C234 2.613 1_545 S
C312 C260 2.613 . S
C338 C390 2.613 1_556 S
C8 C47 0.838 . S
C34 C21 0.838 . S
C60 C99 0.838 . S
C73 C86 0.838 . S
C112 C151 0.838 . S
C125 C138 0.838 . S
C164 C203 0.838 . S
C190 C177 0.838 . S
C255 C216 0.838 . S
C242 C229 0.838 . S
C307 C268 0.838 . S
C294 C281 0.838 . S
C359 C320 0.838 . S
C346 C333 0.838 . S
C372 C411 0.838 . S
C398 C385 0.838 . S
