# Generated by pormake.
# Topology uob, (4)-cn, num edge types: 1
# Building blocks:
#     Node 0, Type 0, BuildingBlock: KUFVIS_clean_sbu_0, # of connection points: 4
#     Node 1, Type 0, BuildingBlock: KUFVIS_clean_sbu_0, # of connection points: 4
#     Node 2, Type 0, BuildingBlock: KUFVIS_clean_sbu_0, # of connection points: 4
#     Node 3, Type 0, BuildingBlock: KUFVIS_clean_sbu_0, # of connection points: 4
#     Node 4, Type 0, BuildingBlock: KUFVIS_clean_sbu_0, # of connection points: 4
#     Node 5, Type 0, BuildingBlock: KUFVIS_clean_sbu_0, # of connection points: 4
#     Node 6, Type 0, BuildingBlock: KUFVIS_clean_sbu_0, # of connection points: 4
#     Node 7, Type 0, BuildingBlock: KUFVIS_clean_sbu_0, # of connection points: 4
#     Node 8, Type 0, BuildingBlock: KUFVIS_clean_sbu_0, # of connection points: 4
#     Node 9, Type 0, BuildingBlock: KUFVIS_clean_sbu_0, # of connection points: 4
#     Node 10, Type 0, BuildingBlock: KUFVIS_clean_sbu_0, # of connection points: 4
#     Node 11, Type 0, BuildingBlock: KUFVIS_clean_sbu_0, # of connection points: 4
#     Node 12, Type 0, BuildingBlock: KUFVIS_clean_sbu_0, # of connection points: 4
#     Node 13, Type 0, BuildingBlock: KUFVIS_clean_sbu_0, # of connection points: 4
#     Node 14, Type 0, BuildingBlock: KUFVIS_clean_sbu_0, # of connection points: 4
#     Node 15, Type 0, BuildingBlock: KUFVIS_clean_sbu_0, # of connection points: 4
#     Edge 16, Type (0, 0), BuildingBlock: OJICUG_clean_linker_0, # of connection points: 2
#     Edge 17, Type (0, 0), BuildingBlock: OJICUG_clean_linker_0, # of connection points: 2
#     Edge 18, Type (0, 0), BuildingBlock: OJICUG_clean_linker_0, # of connection points: 2
#     Edge 19, Type (0, 0), BuildingBlock: OJICUG_clean_linker_0, # of connection points: 2
#     Edge 20, Type (0, 0), BuildingBlock: OJICUG_clean_linker_0, # of connection points: 2
#     Edge 21, Type (0, 0), BuildingBlock: OJICUG_clean_linker_0, # of connection points: 2
#     Edge 22, Type (0, 0), BuildingBlock: OJICUG_clean_linker_0, # of connection points: 2
#     Edge 23, Type (0, 0), BuildingBlock: OJICUG_clean_linker_0, # of connection points: 2
#     Edge 24, Type (0, 0), BuildingBlock: OJICUG_clean_linker_0, # of connection points: 2
#     Edge 25, Type (0, 0), BuildingBlock: OJICUG_clean_linker_0, # of connection points: 2
#     Edge 26, Type (0, 0), BuildingBlock: OJICUG_clean_linker_0, # of connection points: 2
#     Edge 27, Type (0, 0), BuildingBlock: OJICUG_clean_linker_0, # of connection points: 2
#     Edge 28, Type (0, 0), BuildingBlock: OJICUG_clean_linker_0, # of connection points: 2
#     Edge 29, Type (0, 0), BuildingBlock: OJICUG_clean_linker_0, # of connection points: 2
#     Edge 30, Type (0, 0), BuildingBlock: OJICUG_clean_linker_0, # of connection points: 2
#     Edge 31, Type (0, 0), BuildingBlock: OJICUG_clean_linker_0, # of connection points: 2
#     Edge 32, Type (0, 0), BuildingBlock: OJICUG_clean_linker_0, # of connection points: 2
#     Edge 33, Type (0, 0), BuildingBlock: OJICUG_clean_linker_0, # of connection points: 2
#     Edge 34, Type (0, 0), BuildingBlock: OJICUG_clean_linker_0, # of connection points: 2
#     Edge 35, Type (0, 0), BuildingBlock: OJICUG_clean_linker_0, # of connection points: 2
#     Edge 36, Type (0, 0), BuildingBlock: OJICUG_clean_linker_0, # of connection points: 2
#     Edge 37, Type (0, 0), BuildingBlock: OJICUG_clean_linker_0, # of connection points: 2
#     Edge 38, Type (0, 0), BuildingBlock: OJICUG_clean_linker_0, # of connection points: 2
#     Edge 39, Type (0, 0), BuildingBlock: OJICUG_clean_linker_0, # of connection points: 2
#     Edge 40, Type (0, 0), BuildingBlock: OJICUG_clean_linker_0, # of connection points: 2
#     Edge 41, Type (0, 0), BuildingBlock: OJICUG_clean_linker_0, # of connection points: 2
#     Edge 42, Type (0, 0), BuildingBlock: OJICUG_clean_linker_0, # of connection points: 2
#     Edge 43, Type (0, 0), BuildingBlock: OJICUG_clean_linker_0, # of connection points: 2
#     Edge 44, Type (0, 0), BuildingBlock: OJICUG_clean_linker_0, # of connection points: 2
#     Edge 45, Type (0, 0), BuildingBlock: OJICUG_clean_linker_0, # of connection points: 2
#     Edge 46, Type (0, 0), BuildingBlock: OJICUG_clean_linker_0, # of connection points: 2
#     Edge 47, Type (0, 0), BuildingBlock: OJICUG_clean_linker_0, # of connection points: 2
# Relax obj value: 0.182
# Max RMSD: 0.227
# Mean RMSD: 0.227
data_MOF--net-uob--node1-KUFVIS_clean_sbu_0--edge1-OJICUG_clean_linker_0
_symmetry_space_group_name_H-M    P1
_symmetry_Int_Tables_number       1
_symmetry_cell_setting            triclinic
loop_
_symmetry_equiv_pos_as_xyz
'x, y, z'
_cell_length_a     39.277298
_cell_length_b     39.267378
_cell_length_c     19.262728
_cell_angle_alpha  89.942852
_cell_angle_beta   89.981949
_cell_angle_gamma 89.921173
loop_
_atom_site_label
_atom_site_type_symbol
_atom_site_fract_x
_atom_site_fract_y
_atom_site_fract_z
_atom_type_partial_charge
Mn0 Mn 0.15172 0.06525 0.27801 0.0
Mn1 Mn 0.09099 0.12544 0.27799 0.0
C2 C 0.12138 0.07593 0.37666 0.0
C3 C 0.21007 0.05799 0.31153 0.0
C4 C 0.07769 0.05325 0.22936 0.0
O5 O 0.16082 0.08924 0.18588 0.0
O6 O 0.11803 0.12723 0.19113 0.0
C7 C 0.13895 0.18329 0.28785 0.0
N8 N 0.11223 0.16538 0.31425 0.0
C9 C 0.10945 0.20171 0.41447 0.0
C10 C 0.13677 0.22071 0.38817 0.0
C11 C 0.15159 0.21144 0.32456 0.0
C12 C 0.09788 0.174 0.37552 0.0
H13 H 0.15066 0.17606 0.23933 0.0
C14 C 0.14318 0.11341 0.15963 0.0
O15 O 0.19465 0.03438 0.27621 0.0
O16 O 0.19305 0.08542 0.31914 0.0
N17 N 0.0627 0.12711 0.35876 0.0
C18 C 0.03551 0.10715 0.37523 0.0
C19 C 0.01745 0.11341 0.4369 0.0
C20 C 0.02733 0.14031 0.48049 0.0
C21 C 0.05468 0.16119 0.46117 0.0
C22 C 0.07141 0.15398 0.39871 0.0
H23 H 0.02796 0.08635 0.34205 0.0
O24 O 0.13824 0.048 0.37043 0.0
O25 O 0.12408 0.09768 0.32621 0.0
O26 O 0.10846 0.04164 0.23617 0.0
O27 O 0.06896 0.08395 0.24356 0.0
C28 C 0.06598 0.18888 0.50135 0.0
C29 C 0.0934 0.20906 0.47805 0.0
H30 H 0.14665 0.24238 0.41648 0.0
H31 H 0.17279 0.22587 0.30403 0.0
H32 H 0.99618 0.09736 0.45109 0.0
H33 H 0.0136 0.14483 0.52839 0.0
H34 H 0.05375 0.19483 0.55016 0.0
H35 H 0.102 0.23023 0.50912 0.0
Mn36 Mn 0.95498 0.63186 0.54126 0.0
Mn37 Mn 0.89654 0.56966 0.5482 0.0
C38 C 0.94576 0.60284 0.64233 0.0
C39 C 0.9623 0.69049 0.56945 0.0
C40 C 0.96753 0.55875 0.48963 0.0
O41 O 0.92833 0.63959 0.45176 0.0
O42 O 0.88975 0.59745 0.46306 0.0
C43 C 0.83634 0.6138 0.56996 0.0
N44 N 0.85697 0.58808 0.59206 0.0
C45 C 0.82392 0.58078 0.69614 0.0
C46 C 0.80216 0.60702 0.67432 0.0
C47 C 0.80845 0.62365 0.611 0.0
C48 C 0.85128 0.57207 0.65313 0.0
H49 H 0.84119 0.62675 0.52148 0.0
C50 C 0.90276 0.62254 0.42973 0.0
O51 O 0.98529 0.67462 0.53303 0.0
O52 O 0.93533 0.67343 0.58232 0.0
N53 N 0.90025 0.54101 0.62836 0.0
C54 C 0.92367 0.51625 0.6421 0.0
C55 C 0.92111 0.49731 0.70378 0.0
C56 C 0.89439 0.50387 0.75041 0.0
C57 C 0.87031 0.5291 0.7346 0.0
C58 C 0.87403 0.54698 0.67211 0.0
H59 H 0.94431 0.51117 0.60658 0.0
O60 O 0.97381 0.61928 0.63332 0.0
O61 O 0.92396 0.60424 0.59202 0.0
O62 O 0.97894 0.58934 0.49805 0.0
O63 O 0.93726 0.54961 0.50561 0.0
C64 C 0.84277 0.53726 0.7784 0.0
C65 C 0.81964 0.56306 0.75908 0.0
H66 H 0.78065 0.6147 0.7059 0.0
H67 H 0.79187 0.64404 0.59391 0.0
H68 H 0.93977 0.47784 0.71552 0.0
H69 H 0.89263 0.4894 0.79818 0.0
H70 H 0.83915 0.52389 0.82706 0.0
H71 H 0.79858 0.56903 0.79283 0.0
Mn72 Mn 0.37567 0.4574 0.78018 0.0
Mn73 Mn 0.43847 0.39932 0.78223 0.0
C74 C 0.40638 0.4486 0.87906 0.0
C75 C 0.31722 0.46318 0.81259 0.0
C76 C 0.44855 0.47118 0.7278 0.0
O77 O 0.36756 0.43204 0.68926 0.0
O78 O 0.4105 0.39421 0.69705 0.0
C79 C 0.3932 0.3399 0.80193 0.0
N80 N 0.41959 0.3595 0.82429 0.0
C81 C 0.42437 0.32705 0.92987 0.0
C82 C 0.39745 0.30632 0.90772 0.0
C83 C 0.38185 0.31275 0.84339 0.0
C84 C 0.43485 0.35346 0.886 0.0
H85 H 0.38073 0.34516 0.75312 0.0
C86 C 0.38528 0.40749 0.66469 0.0
O87 O 0.33201 0.48689 0.77626 0.0
O88 O 0.33504 0.43638 0.8224 0.0
N89 N 0.46771 0.40122 0.86149 0.0
C90 C 0.49386 0.42309 0.87444 0.0
C91 C 0.51269 0.41965 0.93603 0.0
C92 C 0.50443 0.39377 0.98353 0.0
C93 C 0.47793 0.3711 0.96817 0.0
C94 C 0.46066 0.37525 0.9052 0.0
H95 H 0.50005 0.44323 0.83845 0.0
O96 O 0.38864 0.47596 0.87189 0.0
O97 O 0.40453 0.42656 0.8291 0.0
O98 O 0.41774 0.48214 0.73673 0.0
O99 O 0.45824 0.44078 0.74212 0.0
C100 C 0.46767 0.34486 0.0133 0.0
C101 C 0.4408 0.32295 -0.00568 0.0
H102 H 0.38842 0.28555 0.93986 0.0
H103 H 0.3609 0.29701 0.82612 0.0
H104 H 0.5332 0.43716 0.9473 0.0
H105 H 0.51855 0.39158 0.03162 0.0
H106 H 0.48004 0.34166 0.063 0.0
H107 H 0.43274 0.30322 0.0298 0.0
Mn108 Mn 0.56478 0.89393 0.04674 0.0
Mn109 Mn 0.6222 0.95701 0.05337 0.0
C110 C 0.57446 0.92234 0.14857 0.0
C111 C 0.55848 0.83503 0.0739 0.0
C112 C 0.55076 0.96683 -0.00433 0.0
O113 O 0.59126 0.88711 0.95649 0.0
O114 O 0.62985 0.92923 0.9685 0.0
C115 C 0.68345 0.91441 0.076 0.0
N116 N 0.66213 0.93962 0.09771 0.0
C117 C 0.69488 0.94802 0.2018 0.0
C118 C 0.71735 0.92232 0.18036 0.0
C119 C 0.71154 0.90538 0.11725 0.0
C120 C 0.66732 0.95588 0.15863 0.0
H121 H 0.679 0.90125 0.02765 0.0
C122 C 0.61699 0.90416 0.93493 0.0
O123 O 0.53506 0.85079 0.03838 0.0
O124 O 0.58529 0.85241 0.08642 0.0
N125 N 0.61754 0.98555 0.13338 0.0
C126 C 0.59336 1.00957 0.14692 0.0
C127 C 0.59534 0.02867 0.20836 0.0
C128 C 0.62222 0.02301 0.25506 0.0
C129 C 0.64705 0.99847 0.23955 0.0
C130 C 0.64387 0.98036 0.17728 0.0
H131 H 0.57262 0.01404 0.11129 0.0
O132 O 0.54649 0.90573 0.13987 0.0
O133 O 0.59567 0.92172 0.09718 0.0
O134 O 0.53972 0.93618 0.00501 0.0
O135 O 0.58111 0.97623 0.01031 0.0
C136 C 0.67482 0.99124 0.28339 0.0
C137 C 0.69869 0.96605 0.26446 0.0
H138 H 0.73904 0.91529 0.21207 0.0
H139 H 0.72867 0.8854 0.10048 0.0
H140 H 0.57614 0.04765 0.21972 0.0
H141 H 0.62354 0.03764 0.30263 0.0
H142 H 0.67807 1.00486 0.33181 0.0
H143 H 0.71994 0.96083 0.29828 0.0
Mn144 Mn 0.1334 0.45315 0.00161 0.0
Mn145 Mn 0.07139 0.39452 -0.0055 0.0
C146 C 0.10449 0.44395 0.90052 0.0
C147 C 0.19196 0.46083 0.97332 0.0
C148 C 0.06024 0.46542 0.05324 0.0
O149 O 0.14119 0.42639 0.091 0.0
O150 O 0.09909 0.38778 0.07973 0.0
C151 C 0.11576 0.33447 0.97291 0.0
N152 N 0.09 0.35502 0.95071 0.0
C153 C 0.08301 0.32203 0.84658 0.0
C154 C 0.10928 0.30034 0.86851 0.0
C155 C 0.12578 0.30664 0.93191 0.0
C156 C 0.07412 0.34932 0.88958 0.0
H157 H 0.12861 0.33933 0.02145 0.0
C158 C 0.12414 0.40079 0.11304 0.0
O159 O 0.17596 0.48368 0.0099 0.0
O160 O 0.17506 0.43376 0.96043 0.0
N161 N 0.04285 0.39818 0.91424 0.0
C162 C 0.01806 0.42154 0.90038 0.0
C163 C 0.99923 0.41895 0.83863 0.0
C164 C 1.00595 0.39227 0.79203 0.0
C165 C 0.03123 0.36826 0.80794 0.0
C166 C 0.04898 0.372 0.87051 0.0
H167 H 0.01286 0.44215 0.93588 0.0
O168 O 0.12078 0.47207 0.90964 0.0
O169 O 0.10594 0.42208 0.95078 0.0
O170 O 0.09081 0.4769 0.04496 0.0
O171 O 0.05115 0.43516 0.03702 0.0
C172 C 0.03956 0.34078 0.76416 0.0
C173 C 0.06542 0.31773 0.78355 0.0
H174 H 0.11709 0.27888 0.83694 0.0
H175 H 0.14619 0.29012 0.94907 0.0
H176 H 0.97973 0.43757 0.8268 0.0
H177 H 0.99157 0.3905 0.74419 0.0
H178 H 0.02628 0.33715 0.71544 0.0
H179 H 0.07157 0.29673 0.74977 0.0
Mn180 Mn 0.56658 0.6505 0.26419 0.0
Mn181 Mn 0.62608 0.589 0.26438 0.0
C182 C 0.57689 0.61992 0.16593 0.0
C183 C 0.5592 0.70878 0.23194 0.0
C184 C 0.55398 0.57703 0.31517 0.0
O185 O 0.59101 0.65942 0.35586 0.0
O186 O 0.62913 0.61669 0.35018 0.0
C187 C 0.68476 0.63569 0.2503 0.0
N188 N 0.6661 0.60909 0.22571 0.0
C189 C 0.70142 0.60471 0.12412 0.0
C190 C 0.72119 0.63188 0.14856 0.0
C191 C 0.71281 0.64743 0.21196 0.0
C192 C 0.6739 0.59401 0.16471 0.0
H193 H 0.67818 0.64797 0.29861 0.0
C194 C 0.61543 0.64193 0.38163 0.0
O195 O 0.53575 0.6932 0.26759 0.0
O196 O 0.58658 0.6918 0.22255 0.0
N197 N 0.62636 0.56009 0.18449 0.0
C198 C 0.60545 0.53343 0.16944 0.0
C199 C 0.61068 0.51481 0.10812 0.0
C200 C 0.63749 0.52362 0.06329 0.0
C201 C 0.65926 0.55052 0.08099 0.0
C202 C 0.6531 0.56781 0.14327 0.0
H203 H 0.58469 0.52671 0.20351 0.0
O204 O 0.54906 0.637 0.17211 0.0
O205 O 0.59863 0.62242 0.21635 0.0
O206 O 0.54259 0.60776 0.30698 0.0
O207 O 0.58458 0.56794 0.30126 0.0
C208 C 0.68678 0.56092 0.03922 0.0
C209 C 0.70777 0.58805 0.06075 0.0
H210 H 0.74276 0.64109 0.11895 0.0
H211 H 0.72783 0.66853 0.23103 0.0
H212 H 0.5939 0.49393 0.09512 0.0
H213 H 0.6412 0.5095 0.01561 0.0
H214 H 0.69193 0.54827 -0.00954 0.0
H215 H 0.72873 0.59599 0.02836 0.0
Mn216 Mn 0.39783 0.06961 0.48595 0.0
Mn217 Mn 0.4628 0.12811 0.4908 0.0
C218 C 0.40503 0.11545 0.40284 0.0
C219 C 0.33707 0.05814 0.46357 0.0
C220 C 0.46744 0.05601 0.55159 0.0
O221 O 0.38837 0.10042 0.57072 0.0
O222 O 0.43298 0.13648 0.57126 0.0
C223 C 0.42593 0.193 0.46669 0.0
N224 N 0.44974 0.1698 0.44638 0.0
C225 C 0.46238 0.20203 0.34323 0.0
C226 C 0.43806 0.22631 0.36314 0.0
C227 C 0.41977 0.22177 0.42514 0.0
C228 C 0.46766 0.17406 0.38704 0.0
H229 H 0.41159 0.18942 0.51398 0.0
C230 C 0.40562 0.12469 0.59792 0.0
O231 O 0.35492 0.03872 0.50373 0.0
O232 O 0.35333 0.08425 0.44086 0.0
N233 N 0.49294 0.12203 0.41375 0.0
C234 C 0.51437 0.09552 0.40034 0.0
C235 C 0.53402 0.09576 0.33946 0.0
C236 C 0.53139 0.1232 0.29292 0.0
C237 C 0.50926 0.15027 0.30795 0.0
C238 C 0.49057 0.1488 0.36983 0.0
H239 H 0.51625 0.07418 0.4355 0.0
O240 O 0.37529 0.10396 0.41861 0.0
O241 O 0.42832 0.10298 0.44131 0.0
O242 O 0.43679 0.04544 0.54015 0.0
O243 O 0.47819 0.08569 0.5349 0.0
C244 C 0.50456 0.17835 0.2634 0.0
C245 C 0.48122 0.20423 0.28116 0.0
H246 H 0.43307 0.24842 0.33106 0.0
H247 H 0.40085 0.24032 0.4407 0.0
H248 H 0.55101 0.07476 0.32828 0.0
H249 H 0.54634 0.12313 0.24565 0.0
H250 H 0.51858 0.18018 0.2151 0.0
H251 H 0.47784 0.22561 0.2465 0.0
Mn252 Mn 0.95666 0.87419 0.76265 0.0
Mn253 Mn 0.89781 0.93626 0.76065 0.0
C254 C 0.94764 0.905 0.66396 0.0
C255 C 0.96318 0.81584 0.7298 0.0
C256 C 0.96938 0.94723 0.81529 0.0
O257 O 0.93132 0.86554 0.85339 0.0
O258 O 0.89321 0.90826 0.84602 0.0
C259 C 0.83896 0.89024 0.74172 0.0
N260 N 0.85819 0.91685 0.71903 0.0
C261 C 0.82505 0.92169 0.61448 0.0
C262 C 0.80469 0.89452 0.63696 0.0
C263 C 0.81167 0.87875 0.70091 0.0
C264 C 0.8517 0.93219 0.65759 0.0
H265 H 0.84457 0.87772 0.79033 0.0
C266 C 0.90673 0.88311 0.87825 0.0
O267 O 0.98666 0.83083 0.76632 0.0
O268 O 0.93623 0.83339 0.72002 0.0
N269 N 0.89919 0.96553 0.68125 0.0
C270 C 0.92075 0.9919 0.6679 0.0
C271 C 0.91685 1.01079 0.60644 0.0
C272 C 0.89079 1.00242 0.55956 0.0
C273 C 0.86842 0.9757 0.57534 0.0
C274 C 0.87313 0.95826 0.63803 0.0
H275 H 0.941 0.99822 0.70345 0.0
O276 O 0.97522 0.88762 0.67118 0.0
O277 O 0.9255 0.90273 0.71371 0.0
O278 O 0.98072 0.91652 0.8066 0.0
O279 O 0.93897 0.9566 0.80043 0.0
C280 C 0.84183 0.96549 0.53107 0.0
C281 C 0.82027 0.93842 0.55053 0.0
H282 H 0.78377 0.88545 0.60538 0.0
H283 H 0.7962 0.85764 0.71844 0.0
H284 H 0.93412 0.03147 0.59485 0.0
H285 H 0.88818 0.01666 0.51166 0.0
H286 H 0.83798 0.97815 0.48179 0.0
H287 H 0.80018 0.93049 0.51593 0.0
Mn288 Mn 0.63385 0.57633 0.78726 0.0
Mn289 Mn 0.57154 0.63499 0.79226 0.0
C290 C 0.6041 0.58542 0.88731 0.0
C291 C 0.69232 0.5686 0.81633 0.0
C292 C 0.56083 0.56385 0.73472 0.0
O293 O 0.64184 0.60262 0.69731 0.0
O294 O 0.59948 0.6411 0.70718 0.0
C295 C 0.61605 0.69484 0.81333 0.0
N296 N 0.59008 0.67462 0.83548 0.0
C297 C 0.58316 0.70786 0.93936 0.0
C298 C 0.60966 0.72922 0.91746 0.0
C299 C 0.6262 0.72264 0.85418 0.0
C300 C 0.5741 0.68063 0.89642 0.0
H301 H 0.62899 0.68971 0.76498 0.0
C302 C 0.62457 0.62788 0.67423 0.0
O303 O 0.67644 0.54572 0.77976 0.0
O304 O 0.67539 0.59576 0.82884 0.0
N305 N 0.54253 0.63203 0.87194 0.0
C306 C 0.51725 0.60921 0.88534 0.0
C307 C 0.49815 0.61225 0.94669 0.0
C308 C 0.5051 0.63881 -0.00665 0.0
C309 C 0.53079 0.66237 0.97774 0.0
C310 C 0.54871 0.65828 0.91543 0.0
H311 H 0.5119 0.58865 0.84985 0.0
O312 O 0.62097 0.55754 0.87904 0.0
O313 O 0.60584 0.60745 0.83731 0.0
O314 O 0.59144 0.55245 0.74354 0.0
O315 O 0.55153 0.59415 0.7504 0.0
C316 C 0.53939 0.6897 0.02163 0.0
C317 C 0.56556 0.71237 0.00238 0.0
H318 H 0.61761 0.75062 0.94895 0.0
H319 H 0.64678 0.73891 0.83706 0.0
H320 H 0.47829 0.59401 0.95823 0.0
H321 H 0.49057 0.64088 0.04097 0.0
H322 H 0.52611 0.69346 0.07031 0.0
H323 H 0.57199 0.73323 0.03631 0.0
Mn324 Mn 0.4458 0.15641 0.01483 0.0
Mn325 Mn 0.38498 0.09663 0.01525 0.0
C326 C 0.43025 0.1306 0.11612 0.0
C327 C 0.45467 0.21442 0.04751 0.0
C328 C 0.4586 0.08099 0.97899 0.0
O329 O 0.42523 0.16302 0.91849 0.0
O330 O 0.38668 0.12059 0.92407 0.0
C331 C 0.32617 0.1438 0.00819 0.0
N332 N 0.34358 0.11874 0.04191 0.0
C333 C 0.30363 0.11939 0.13675 0.0
C334 C 0.28516 0.14505 0.1028 0.0
C335 C 0.29648 0.15728 0.03823 0.0
C336 C 0.33286 0.10673 0.104 0.0
H337 H 0.33495 0.15351 0.95888 0.0
C338 C 0.402 0.14451 0.89112 0.0
O339 O 0.4787 0.19753 0.01629 0.0
O340 O 0.42572 0.19968 0.04774 0.0
N341 N 0.38065 0.07171 0.10023 0.0
C342 C 0.401 0.04645 0.12554 0.0
C343 C 0.39329 0.03156 0.18999 0.0
C344 C 0.36463 0.04262 0.22738 0.0
C345 C 0.34361 0.06803 0.19935 0.0
C346 C 0.35238 0.0817 0.13465 0.0
H347 H 0.42325 0.03812 0.09734 0.0
O348 O 0.45925 0.1454 0.11061 0.0
O349 O 0.41045 0.13182 0.0623 0.0
O350 O 0.47017 0.11177 0.98265 0.0
O351 O 0.42748 0.0731 -0.00942 0.0
C352 C 0.31446 0.08052 0.23335 0.0
C353 C 0.2944 0.10611 0.2021 0.0
H354 H 0.26235 0.15564 0.12594 0.0
H355 H 0.28244 0.17718 0.01183 0.0
H356 H 0.40957 1.01185 0.21107 0.0
H357 H 0.35896 0.03137 0.27745 0.0
H358 H 0.3074 0.07064 0.28365 0.0
H359 H 0.27201 0.11547 0.22889 0.0
Mn360 Mn 0.89031 0.94919 0.2856 0.0
Mn361 Mn 0.95253 0.89034 0.28837 0.0
C362 C 0.92015 0.93922 0.38517 0.0
C363 C 0.8317 0.95655 0.31468 0.0
C364 C 0.96345 0.96204 0.23353 0.0
O365 O 0.88229 0.92375 0.19469 0.0
O366 O 0.92435 0.88487 0.20346 0.0
C367 C 0.90801 0.83037 0.30829 0.0
N368 N 0.93403 0.85042 0.33073 0.0
C369 C 0.94111 0.81645 0.43372 0.0
C370 C 0.91456 0.79527 0.4115 0.0
C371 C 0.89792 0.80229 0.34853 0.0
C372 C 0.95013 0.84396 0.39137 0.0
H373 H 0.89499 0.83585 0.26018 0.0
C374 C 0.89929 0.89845 0.17099 0.0
O375 O 0.84765 0.97982 0.27917 0.0
O376 O 0.84866 0.92932 0.32644 0.0
N377 N 0.98174 0.89267 0.3678 0.0
C378 C 1.00712 0.91533 0.3815 0.0
C379 C 0.02631 0.91185 0.44262 0.0
C380 C 0.01937 0.88501 0.48873 0.0
C381 C 0.99361 0.8616 0.47277 0.0
C382 C 0.97559 0.86614 0.4107 0.0
H383 H 0.01246 0.93611 0.34646 0.0
O384 O 0.90315 0.9671 0.37799 0.0
O385 O 0.91836 0.9176 0.33452 0.0
O386 O 0.93288 0.97349 0.24296 0.0
O387 O 0.97255 0.93147 0.24753 0.0
C388 C 0.98502 0.83401 0.51609 0.0
C389 C 0.9588 0.81149 0.49649 0.0
H390 H 0.90664 0.77365 0.44253 0.0
H391 H 0.87729 0.78616 0.33117 0.0
H392 H 0.04624 0.92996 0.45441 0.0
H393 H 0.03397 0.8826 0.53618 0.0
H394 H 0.99836 0.82991 0.5646 0.0
H395 H 0.95242 0.79042 0.52995 0.0
Mn396 Mn 0.07461 0.37206 0.52603 0.0
Mn397 Mn 0.13337 0.43409 0.5224 0.0
C398 C 0.08546 0.403 0.62328 0.0
C399 C 0.0684 0.31378 0.55991 0.0
C400 C 0.06033 0.44587 0.47795 0.0
O401 O 0.09759 0.36327 0.43281 0.0
O402 O 0.13418 0.40721 0.43551 0.0
C403 C 0.19251 0.38738 0.5276 0.0
N404 N 0.17436 0.41355 0.55567 0.0
C405 C 0.21289 0.41748 0.65225 0.0
C406 C 0.23213 0.39072 0.62422 0.0
C407 C 0.22186 0.37557 0.56163 0.0
C408 C 0.1839 0.42815 0.61607 0.0
H409 H 0.18462 0.37552 0.4797 0.0
C410 C 0.12066 0.38169 0.40495 0.0
O411 O 0.04426 0.329 0.52547 0.0
O412 O 0.09576 0.33098 0.56656 0.0
N413 N 0.13593 0.46239 0.60298 0.0
C414 C 0.11587 0.48936 0.62064 0.0
C415 C 0.12291 0.50757 0.6817 0.0
C416 C 0.15083 0.49824 0.72317 0.0
C417 C 0.17192 0.47128 0.70231 0.0
C418 C 0.16373 0.45419 0.64081 0.0
H419 H 0.09436 0.49657 0.58893 0.0
O420 O 0.05801 0.38534 0.61863 0.0
O421 O 0.10701 0.40051 0.57239 0.0
O422 O 0.04963 0.41483 0.48497 0.0
O423 O 0.09091 0.45534 0.49093 0.0
C424 C 0.20091 0.46086 0.73975 0.0
C425 C 0.22137 0.43398 0.7147 0.0
H426 H 0.2548 0.38156 0.65035 0.0
H427 H 0.2365 0.35483 0.53974 0.0
H428 H 0.10675 0.52861 0.69696 0.0
H429 H 0.15606 0.51218 0.77047 0.0
H430 H 0.20776 0.47351 0.78756 0.0
H431 H 0.24371 0.42624 0.74337 0.0
Mn432 Mn 0.65188 0.94704 0.52102 0.0
Mn433 Mn 0.58989 0.88818 0.52562 0.0
C434 C 0.62086 0.9359 0.42387 0.0
C435 C 0.70988 0.95388 0.486 0.0
C436 C 0.57787 0.96135 0.56798 0.0
O437 O 0.6606 0.92471 0.61511 0.0
O438 O 0.6163 0.88857 0.61316 0.0
C439 C 0.6369 0.8292 0.5241 0.0
N440 N 0.61084 0.84697 0.49458 0.0
C441 C 0.6073 0.80719 0.40006 0.0
C442 C 0.63397 0.78834 0.42959 0.0
C443 C 0.64887 0.79944 0.49186 0.0
C444 C 0.59651 0.83667 0.43443 0.0
H445 H 0.64851 0.83769 0.57183 0.0
C446 C 0.64165 0.90232 0.64386 0.0
O447 O 0.69456 0.97787 0.52065 0.0
O448 O 0.69317 0.92611 0.48086 0.0
N449 N 0.5619 0.88452 0.4448 0.0
C450 C 0.53464 0.904 0.42622 0.0
C451 C 0.51662 0.89613 0.36534 0.0
C452 C 0.52633 0.86788 0.32523 0.0
C453 C 0.55346 0.8473 0.34729 0.0
C454 C 0.57044 0.8564 0.40835 0.0
H455 H 0.52711 0.92571 0.45698 0.0
O456 O 0.63863 0.96327 0.4282 0.0
O457 O 0.62341 0.91435 0.47488 0.0
O458 O 0.60898 0.97195 0.56153 0.0
O459 O 0.56832 0.9308 0.55488 0.0
C460 C 0.56402 0.81786 0.31162 0.0
C461 C 0.59091 0.7978 0.33799 0.0
H462 H 0.64321 0.76532 0.40493 0.0
H463 H 0.66952 0.78509 0.51493 0.0
H464 H 0.4954 0.91187 0.34925 0.0
H465 H 0.51248 0.86195 0.27815 0.0
H466 H 0.55137 0.81035 0.26428 0.0
H467 H 0.59868 0.77503 0.31067 0.0
Mn468 Mn 0.07589 0.13147 0.75497 0.0
Mn469 Mn 0.13301 0.06771 0.75107 0.0
C470 C 0.0847 0.10139 0.65507 0.0
C471 C 0.0692 0.19004 0.72602 0.0
C472 C 0.06188 0.05939 0.81045 0.0
O473 O 0.10242 0.13885 0.84485 0.0
O474 O 0.14102 0.09653 0.83419 0.0
C475 C 0.19468 0.10904 0.7251 0.0
N476 N 0.17296 0.08388 0.70517 0.0
C477 C 0.20586 0.07268 0.60235 0.0
C478 C 0.22874 0.09831 0.62193 0.0
C479 C 0.22305 0.11664 0.68348 0.0
C480 C 0.17802 0.06631 0.64572 0.0
H481 H 0.19035 0.12316 0.77238 0.0
C482 C 0.12795 0.1217 0.86722 0.0
O483 O 0.04609 0.17452 0.76276 0.0
O484 O 0.09608 0.17267 0.71319 0.0
N485 N 0.12789 0.03789 0.67319 0.0
C486 C 0.10345 0.01394 0.6616 0.0
C487 C 0.10516 0.9937 0.60162 0.0
C488 C 0.13211 0.99809 0.55454 0.0
C489 C 0.15725 0.02249 0.56821 0.0
C490 C 0.15427 0.04184 0.62896 0.0
H491 H 0.08264 1.01047 0.69748 0.0
O492 O 0.05713 0.11883 0.66296 0.0
O493 O 0.10646 0.10262 0.70551 0.0
O494 O 0.05083 0.0899 0.79916 0.0
O495 O 0.09211 0.0496 0.79596 0.0
C496 C 0.18522 0.02831 0.52408 0.0
C497 C 0.20955 0.05323 0.54145 0.0
H498 H 0.25067 0.1042 0.58999 0.0
H499 H 0.24052 0.13655 0.69884 0.0
H500 H 0.08569 0.97486 0.59158 0.0
H501 H 0.13327 0.98256 0.50815 0.0
H502 H 0.18834 0.0137 0.47682 0.0
H503 H 0.23114 0.05705 0.5079 0.0
Mn504 Mn 0.8739 0.57285 0.01718 0.0
Mn505 Mn 0.93616 0.63136 0.02032 0.0
C506 C 0.90492 0.58348 0.91977 0.0
C507 C 0.81563 0.56698 0.98323 0.0
C508 C 0.94754 0.5583 0.06545 0.0
O509 O 0.8652 0.59596 0.11026 0.0
O510 O 0.90918 0.63248 0.10716 0.0
C511 C 0.88974 0.69072 0.01425 0.0
N512 N 0.91587 0.67238 -0.01351 0.0
C513 C 0.92001 0.71058 0.88928 0.0
C514 C 0.8933 0.73002 0.91699 0.0
C515 C 0.87808 0.72001 0.97974 0.0
C516 C 0.93055 0.68167 0.92595 0.0
H517 H 0.87782 0.68301 0.06225 0.0
C518 C 0.88364 0.61905 0.13789 0.0
O519 O 0.83064 0.54276 0.01781 0.0
O520 O 0.833 0.59424 0.97656 0.0
N521 N 0.96455 0.63358 0.93977 0.0
C522 C 0.99144 0.61333 0.92242 0.0
C523 C 1.00973 0.62012 0.86128 0.0
C524 C 1.00055 0.64797 0.81938 0.0
C525 C 0.97367 0.66923 0.8399 0.0
C526 C 0.95652 0.66131 0.90153 0.0
H527 H 0.99852 0.59188 0.95445 0.0
O528 O 0.88713 0.55611 0.92463 0.0
O529 O 0.90251 0.60506 0.97056 0.0
O530 O 0.91648 0.54769 0.05836 0.0
O531 O 0.95714 0.58884 0.05234 0.0
C532 C 0.96338 0.69813 0.80196 0.0
C533 C 0.93657 0.71878 0.82668 0.0
H534 H 0.88425 0.75263 0.89047 0.0
H535 H 0.85737 0.73479 0.00137 0.0
H536 H 0.03071 0.60382 0.84628 0.0
H537 H 0.01454 0.65299 0.772 0.0
H538 H 0.97606 0.70477 0.75401 0.0
H539 H 0.92891 0.74104 0.79762 0.0
Mn540 Mn 0.45053 0.39029 0.25715 0.0
Mn541 Mn 0.39101 0.45192 0.25456 0.0
C542 C 0.4403 0.4202 0.15772 0.0
C543 C 0.4592 0.33199 0.22835 0.0
C544 C 0.46246 0.46344 0.30972 0.0
O545 O 0.42509 0.38183 0.34804 0.0
O546 O 0.38587 0.42359 0.33943 0.0
C547 C 0.33161 0.40668 0.23458 0.0
N548 N 0.35133 0.43301 0.21223 0.0
C549 C 0.31734 0.43979 0.10926 0.0
C550 C 0.2965 0.41292 0.13139 0.0
C551 C 0.3037 0.39628 0.19431 0.0
C552 C 0.34469 0.44911 0.15164 0.0
H553 H 0.33724 0.39365 0.28263 0.0
C554 C 0.39969 0.39864 0.37187 0.0
O555 O 0.48201 0.34839 0.26413 0.0
O556 O 0.4316 0.3483 0.21615 0.0
N557 N 0.39301 0.48126 0.17522 0.0
C558 C 0.41535 0.50695 0.16158 0.0
C559 C 0.41164 0.52621 0.10056 0.0
C560 C 0.38491 0.519 0.05445 0.0
C561 C 0.36183 0.49292 0.07035 0.0
C562 C 0.36656 0.47487 0.13236 0.0
H563 H 0.43605 0.51248 0.1966 0.0
O564 O 0.46838 0.40354 0.16488 0.0
O565 O 0.41863 0.41805 0.20831 0.0
O566 O 0.47417 0.43299 0.30019 0.0
O567 O 0.43189 0.47235 0.29543 0.0
C568 C 0.33439 0.48403 0.027 0.0
C569 C 0.31221 0.45748 0.04652 0.0
H570 H 0.27502 0.40476 0.10033 0.0
H571 H 0.28783 0.37541 0.2116 0.0
H572 H 0.4295 0.54637 0.08882 0.0
H573 H 0.38234 0.53364 0.00705 0.0
H574 H 0.33015 0.49737 0.97852 0.0
H575 H 0.29127 0.45085 0.013 0.0
C576 C 0.28288 0.08329 0.42837 0.0
C577 C 0.30167 0.05329 0.43803 0.0
H578 H 0.24174 0.10842 0.37936 0.0
C579 C 0.29017 0.02333 0.405 0.0
H580 H 0.29123 0.107 0.4516 0.0
C581 C 0.26058 0.02395 0.36245 0.0
C582 C 0.24274 0.05472 0.35122 0.0
H583 H 0.30485 1.00007 0.40913 0.0
H584 H 0.25207 1.00071 0.3378 0.0
C585 C 0.2545 0.08412 0.38546 0.0
C586 C 0.9354 0.76843 0.66783 0.0
C587 C 0.96595 0.78262 0.69231 0.0
H588 H 0.91077 0.73032 0.60837 0.0
C589 C 0.99687 0.76752 0.67086 0.0
H590 H 0.91099 0.77927 0.68203 0.0
C591 C 0.99672 0.73851 0.62676 0.0
C592 C 0.96566 0.72448 0.60347 0.0
H593 H 0.02091 0.77829 0.68722 0.0
H594 H 0.02061 0.72654 0.61285 0.0
C595 C 0.93526 0.74022 0.62454 0.0
C596 C 0.26869 0.49629 0.87204 0.0
C597 C 0.28393 0.46555 0.84995 0.0
H598 H 0.22766 0.51953 0.93072 0.0
C599 C 0.26989 0.43479 0.87381 0.0
H600 H 0.27936 0.52048 0.85617 0.0
C601 C 0.24169 0.43428 0.91717 0.0
C602 C 0.22585 0.4645 0.939 0.0
H603 H 0.28086 0.41051 0.8591 0.0
H604 H 0.23191 0.40965 0.93289 0.0
C605 C 0.2397 0.49577 0.91624 0.0
C606 C 0.58626 0.7857 0.12936 0.0
C607 C 0.55567 0.80086 0.10757 0.0
H608 H 0.61095 0.74688 0.18695 0.0
C609 C 0.52476 0.78598 0.12955 0.0
H610 H 0.61065 0.79624 0.1142 0.0
C611 C 0.52493 0.75665 0.17289 0.0
C612 C 0.55601 0.74216 0.19509 0.0
H613 H 0.50071 0.79744 0.11504 0.0
H614 H 0.50101 0.7452 0.18812 0.0
C615 C 0.58642 0.75726 0.17214 0.0
C616 C 0.7388 0.5339 0.87805 0.0
C617 C 0.72612 0.56487 0.85098 0.0
H618 H 0.77688 0.5097 0.94313 0.0
C619 C 0.74269 0.59513 0.86966 0.0
H620 H 0.7261 0.51016 0.86611 0.0
C621 C 0.77023 0.59501 0.91482 0.0
C622 C 0.78306 0.56453 0.94315 0.0
H623 H 0.73374 0.61953 0.85058 0.0
H624 H 0.7816 0.61936 0.92733 0.0
C625 C 0.76723 0.53372 0.9237 0.0
C626 C 0.43352 0.27879 0.18708 0.0
C627 C 0.46325 0.29805 0.19476 0.0
H628 H 0.40747 0.23931 0.135 0.0
C629 C 0.49209 0.28872 0.15514 0.0
H630 H 0.41078 0.28522 0.21621 0.0
C631 C 0.49024 0.26164 0.10633 0.0
C632 C 0.45941 0.2439 0.09615 0.0
H633 H 0.51519 0.30362 0.15853 0.0
H634 H 0.51243 0.25528 0.07563 0.0
C635 C 0.43156 0.25256 0.13891 0.0
C636 C 0.78598 0.98972 0.3816 0.0
C637 C 0.79767 0.95977 0.34867 0.0
H638 H 0.74932 1.01184 0.45278 0.0
C639 C 0.78022 0.92931 0.36185 0.0
H640 H 0.79939 0.0135 0.37398 0.0
C641 C 0.75311 0.92808 0.40816 0.0
C642 C 0.74151 0.95744 0.44295 0.0
H643 H 0.78845 0.90568 0.33809 0.0
H644 H 0.74121 0.90355 0.41652 0.0
C645 C 0.75794 0.98859 0.42825 0.0
C646 C 0.03485 0.26573 0.62006 0.0
C647 C 0.06577 0.28112 0.59974 0.0
H648 H 1.01105 0.2249 0.67825 0.0
C649 C 0.09622 0.26776 0.62703 0.0
H650 H 1.01086 0.27582 0.60151 0.0
C651 C 0.09623 0.24006 0.67192 0.0
C652 C 0.06584 0.22394 0.69149 0.0
H653 H 0.12064 0.2788 0.61384 0.0
H654 H 0.12061 0.23066 0.69011 0.0
C655 C 0.0349 0.23721 0.66556 0.0
C656 C 0.0536 0.99458 0.20897 0.0
C657 C 0.04888 0.02987 0.21296 0.0
H658 H 0.03039 0.94557 0.20964 0.0
C659 C 0.01517 0.0427 0.21076 0.0
H660 H 0.07896 0.98372 0.20976 0.0
C661 C 0.98706 0.02083 0.21222 0.0
C662 C 0.99185 0.98551 0.21469 0.0
H663 H 1.01027 0.06984 0.2124 0.0
H664 H 0.96174 0.03168 0.21562 0.0
C665 C 0.02547 0.97271 0.20918 0.0
C666 C 0.02592 0.5358 0.46183 0.0
C667 C 0.99086 0.5305 0.46915 0.0
H668 H 0.07522 0.51328 0.45618 0.0
C669 C 0.97849 0.49667 0.46627 0.0
H670 H 0.03639 0.56129 0.46295 0.0
C671 C 1.0008 0.46886 0.46384 0.0
C672 C 0.03604 0.47415 0.46307 0.0
H673 H 0.95152 0.49138 0.4705 0.0
H674 H 0.99044 0.44336 0.46689 0.0
C675 C 0.04818 0.508 0.45822 0.0
C676 C 0.47115 0.5305 0.70963 0.0
C677 C 0.47654 0.49525 0.71003 0.0
H678 H 0.4935 0.57983 0.71467 0.0
C679 C 0.51039 0.48308 0.70469 0.0
H680 H 0.44563 0.54088 0.7129 0.0
C681 C 0.53812 0.50538 0.70746 0.0
C682 C 0.53272 0.54047 0.71422 0.0
H683 H 0.51573 0.45602 0.70339 0.0
H684 H 0.56364 0.49491 0.70866 0.0
C685 C 0.49887 0.55283 0.71107 0.0
C686 C 0.53961 0.0284 0.96725 0.0
C687 C 0.52704 0.99487 0.97556 0.0
H688 H 0.52827 0.08179 0.96201 0.0
C689 C 0.49172 0.98994 0.97418 0.0
H690 H 0.56673 0.03338 0.96708 0.0
C691 C 0.46965 0.01793 0.97025 0.0
C692 C 0.48227 0.05168 0.96838 0.0
H693 H 0.48104 0.96469 0.98004 0.0
H694 H 0.44255 0.01302 0.97254 0.0
C695 C 0.51756 0.05641 0.96418 0.0
C696 C 0.0373 0.52369 0.08199 0.0
C697 C 0.03197 0.48867 0.07391 0.0
H698 H 0.01485 0.57301 0.08841 0.0
C699 C 0.99814 0.47633 0.07632 0.0
H700 H 0.06281 0.53414 0.08128 0.0
C701 C 0.97036 0.49867 0.079 0.0
C702 C 0.9757 0.5339 0.08045 0.0
H703 H 0.99282 0.44938 0.07152 0.0
H704 H 0.94486 0.48836 0.0755 0.0
C705 C 1.00954 0.54598 0.08583 0.0
C706 C 0.47301 0.52553 0.33312 0.0
C707 C 0.48572 0.49183 0.32923 0.0
H708 H 0.48431 0.57894 0.33162 0.0
C709 C 0.52094 0.48685 0.33427 0.0
H710 H 0.44592 0.53058 0.33076 0.0
C711 C 0.54293 0.51484 0.33641 0.0
C712 C 0.53032 0.54858 0.33223 0.0
H713 H 0.5317 0.46145 0.33235 0.0
H714 H 0.57005 0.5098 0.33658 0.0
C715 C 0.49502 0.55354 0.33399 0.0
C716 C 0.48833 0.99694 0.57957 0.0
C717 C 0.4944 0.032 0.57546 0.0
H718 H 0.50986 0.94717 0.58293 0.0
C719 C 0.52829 0.0437 0.58293 0.0
H720 H 0.46274 0.98695 0.57489 0.0
C721 C 0.55562 0.02088 0.58574 0.0
C722 C 0.54974 0.98577 0.58257 0.0
H723 H 0.53411 0.07064 0.58148 0.0
H724 H 0.58133 0.03083 0.58596 0.0
C725 C 0.51564 0.97412 0.58372 0.0
C726 C 1.00297 0.03709 0.8347 0.0
C727 C 0.03816 0.03166 0.83154 0.0
H728 H 0.95362 0.01467 0.83501 0.0
C729 C 0.05046 0.99788 0.83774 0.0
H730 H 0.99252 0.06257 0.83105 0.0
C731 C 0.02817 0.97012 0.83811 0.0
C732 C 0.993 0.97546 0.83382 0.0
H733 H 0.07752 0.99253 0.83707 0.0
H734 H 0.03864 0.9446 0.83712 0.0
C735 C 0.98067 1.00934 0.83659 0.0
C736 C 0.07591 0.07005 0.54586 0.0
C737 C 0.09486 0.09322 0.58501 0.0
H738 H 0.07059 0.04556 0.44711 0.0
C739 C 0.12061 0.11259 0.55395 0.0
H740 H 0.05533 0.05571 0.56926 0.0
C741 C 0.12776 0.10843 0.48392 0.0
C742 C 0.10934 0.0847 0.44509 0.0
H743 H 0.13474 0.13127 0.5836 0.0
H744 H 0.14819 0.12299 0.46052 0.0
C745 C 0.08409 0.06481 0.47647 0.0
C746 C 0.9527 0.57361 0.75456 0.0
C747 C 0.93513 0.59689 0.71296 0.0
H748 H 0.95577 0.55047 0.85509 0.0
C749 C 0.9102 0.61821 0.74157 0.0
H750 H 0.97268 0.55777 0.73301 0.0
C751 C 0.9022 0.61563 0.81151 0.0
C752 C 0.91892 0.59152 0.85264 0.0
H753 H 0.8972 0.637 0.70992 0.0
H754 H 0.88216 0.63147 0.83287 0.0
C755 C 0.94363 0.56999 0.82389 0.0
C756 C 0.44922 0.45364 0.05121 0.0
C757 C 0.43031 0.42954 0.08822 0.0
H758 H 0.45532 0.47949 0.95396 0.0
C759 C 0.40517 0.41027 0.05511 0.0
H760 H 0.46935 0.46793 0.07624 0.0
C761 C 0.39866 0.41538 0.9851 0.0
C762 C 0.41721 0.43984 0.9483 0.0
H763 H 0.39113 0.39086 0.08306 0.0
H764 H 0.37879 0.40075 0.95999 0.0
C765 C 0.44174 0.45972 0.98178 0.0
C766 C 0.5802 0.95124 0.33266 0.0
C767 C 0.60507 0.92878 0.3579 0.0
H768 H 0.5498 0.96585 0.24508 0.0
C769 C 0.62056 0.90524 0.31364 0.0
H770 H 0.56904 0.97039 0.36621 0.0
C771 C 0.61125 0.90423 0.24416 0.0
C772 C 0.58623 0.92655 0.21907 0.0
H773 H 0.64076 0.88873 0.33213 0.0
H774 H 0.6234 0.88594 0.21006 0.0
C775 C 0.56983 0.94922 0.26381 0.0
C776 C 0.07197 0.44184 0.71884 0.0
C777 C 0.09353 0.41711 0.69023 0.0
H778 H 0.05959 0.47089 0.80959 0.0
C779 C 0.11761 0.40044 0.73146 0.0
H780 H 0.05247 0.45395 0.68756 0.0
C781 C 0.1201 0.40847 0.80138 0.0
C782 C 0.0987 0.43336 0.82986 0.0
H783 H 0.13347 0.38038 0.71022 0.0
H784 H 0.13885 0.39548 0.83312 0.0
C785 C 0.07548 0.45093 0.78814 0.0
C786 C 0.56608 0.58366 0.06455 0.0
C787 C 0.58597 0.60842 0.09736 0.0
H788 H 0.55738 0.5559 0.97048 0.0
C789 C 0.61034 0.62681 0.06002 0.0
H790 H 0.54642 0.57016 0.09282 0.0
C791 C 0.61507 0.62019 -0.01003 0.0
C792 C 0.59555 0.59506 0.95739 0.0
H793 H 0.62498 0.64683 0.08461 0.0
H794 H 0.63424 0.63428 0.96145 0.0
C795 C 0.57182 0.57605 -0.00491 0.0
C796 C 0.43597 0.10013 0.29669 0.0
C797 C 0.41147 0.12064 0.32925 0.0
H798 H 0.46067 0.08709 0.20174 0.0
C799 C 0.38964 0.14094 0.28916 0.0
H800 H 0.45173 0.08269 0.3261 0.0
C801 C 0.39367 0.14206 0.21724 0.0
C802 C 0.41915 0.12243 0.18558 0.0
H803 H 0.36979 0.15595 0.31347 0.0
H804 H 0.378 0.15921 0.1868 0.0
C805 C 0.44031 0.10165 0.22556 0.0
C806 C 0.91476 0.89739 0.5576 0.0
C807 C 0.93898 0.91601 0.59479 0.0
H808 H 0.89074 0.88982 0.45924 0.0
C809 C 0.95886 0.9407 0.56168 0.0
H810 H 0.90014 0.8774 0.58244 0.0
C811 C 0.95305 0.94823 0.49218 0.0
C812 C 0.92925 0.9292 0.45476 0.0
H813 H 0.97845 0.95434 0.58981 0.0
H814 H 0.96734 0.96846 0.46741 0.0
C815 C 0.90995 0.90393 0.48753 0.0
C816 C 0.12301 0.15018 0.98345 0.0
C817 C 0.13977 0.12699 0.93976 0.0
H818 H 0.1118 0.16481 0.08766 0.0
C819 C 0.16392 0.10462 0.96927 0.0
H820 H 0.10475 0.16819 0.96268 0.0
C821 C 0.16777 0.10238 0.04134 0.0
C822 C 0.14773 0.12263 0.08535 0.0
H823 H 0.17792 0.08679 0.93721 0.0
H824 H 0.18437 0.08288 0.06237 0.0
C825 C 0.12706 0.14812 0.05543 0.0
C826 C 0.90574 0.65285 0.31506 0.0
C827 C 0.89024 0.62845 0.35792 0.0
H828 H 0.91476 0.66984 0.21141 0.0
C829 C 0.86615 0.60614 0.32834 0.0
H830 H 0.92385 0.67088 0.33606 0.0
C831 C 0.86107 0.60533 0.25649 0.0
C832 C 0.87983 0.62694 0.21285 0.0
H833 H 0.85311 0.5874 0.35988 0.0
H834 H 0.84464 0.58587 0.23503 0.0
C835 C 0.90045 0.6522 0.24334 0.0
C836 C 0.35969 0.41647 0.54654 0.0
C837 C 0.38098 0.39756 0.59069 0.0
H838 H 0.34826 0.43101 0.4423 0.0
C839 C 0.40301 0.37322 0.56088 0.0
H840 H 0.34204 0.43504 0.56743 0.0
C841 C 0.40693 0.37112 0.48882 0.0
C842 C 0.38869 0.39311 0.44494 0.0
H843 H 0.41936 0.3576 0.59315 0.0
H844 H 0.42614 0.35413 0.46808 0.0
C845 C 0.36342 0.41418 0.47446 0.0
C846 C 0.66122 0.91934 0.76288 0.0
C847 C 0.64416 0.89614 0.71981 0.0
H848 H 0.66634 0.93984 0.86499 0.0
C849 C 0.62343 0.87112 0.75099 0.0
H850 H 0.67754 0.93879 0.74093 0.0
C851 C 0.61651 0.87199 0.82216 0.0
C852 C 0.63046 0.89768 0.86397 0.0
H853 H 0.61034 0.85238 0.7196 0.0
H854 H 0.5985 0.85389 0.84337 0.0
C855 C 0.6545 0.92005 0.83423 0.0
C856 C 0.15382 0.39836 0.29932 0.0
C857 C 0.12847 0.37785 0.32995 0.0
H858 H 0.17259 0.42167 0.20647 0.0
C859 C 0.10676 0.3592 0.28645 0.0
H860 H 0.17154 0.41257 0.33115 0.0
C861 C 0.10759 0.36427 0.21459 0.0
C862 C 0.13 0.38825 0.18486 0.0
H863 H 0.08723 0.34286 0.30805 0.0
H864 H 0.08877 0.35132 0.18317 0.0
C865 C 0.15448 0.40364 0.22759 0.0
C866 C 0.6075 0.66353 0.57168 0.0
C867 C 0.62969 0.63925 0.60131 0.0
H868 H 0.58573 0.68388 0.47856 0.0
C869 C 0.65255 0.62204 0.55759 0.0
H870 H 0.58996 0.67787 0.60375 0.0
C871 C 0.65032 0.62585 0.48557 0.0
C872 C 0.62499 0.6467 0.45564 0.0
H873 H 0.67041 0.60366 0.57844 0.0
H874 H 0.66672 0.61026 0.45338 0.0
C875 C 0.6051 0.66714 0.49959 0.0
C876 C 0.37388 0.11866 0.71075 0.0
C877 C 0.39717 0.13661 0.66928 0.0
H878 H 0.3565 0.10766 0.81343 0.0
C879 C 0.41681 0.16245 0.70056 0.0
H880 H 0.35805 0.09889 0.68861 0.0
C881 C 0.41623 0.16732 0.77252 0.0
C882 C 0.3958 0.14662 0.81492 0.0
H883 H 0.4346 0.17735 0.67018 0.0
H884 H 0.43361 0.1856 0.79511 0.0
C885 C 0.37314 0.12368 0.7827 0.0
C886 C 0.91484 0.86208 0.0686 0.0
C887 C 0.89363 0.88719 0.09818 0.0
H888 H 0.93538 0.84055 0.9755 0.0
C889 C 0.87112 0.90495 0.05457 0.0
H890 H 0.93207 0.84729 0.1006 0.0
C891 C 0.87278 0.90072 0.98256 0.0
C892 C 0.89721 0.87887 0.95251 0.0
H893 H 0.85399 0.92401 0.07542 0.0
H894 H 0.85676 0.91673 0.9504 0.0
C895 C 0.91669 0.85803 -0.00346 0.0
loop_
_geom_bond_atom_site_label_1
_geom_bond_atom_site_label_2
_geom_bond_distance
_geom_bond_site_symmetry_2
_ccdc_geom_bond_type
Mn0 O5 2.095 . S
Mn0 O15 2.162 . S
Mn0 O16 2.297 . S
Mn0 O24 2.385 . S
Mn0 O25 2.209 . S
Mn0 O26 2.094 . S
Mn1 O6 2.121 . S
Mn1 N8 2.257 . S
Mn1 N17 2.282 . S
Mn1 O25 2.215 . S
Mn1 O27 2.117 . S
C2 O24 1.234 . S
C2 O25 1.283 . S
C3 O15 1.281 . S
C3 O16 1.236 . S
C4 O26 1.240 . S
C4 O27 1.264 . S
O5 Mn0 2.095 . S
O5 C14 1.250 . S
O6 Mn1 2.121 . S
O6 C14 1.258 . S
C7 N8 1.326 . S
C7 C11 1.460 . S
C7 H13 0.929 . S
N8 Mn1 2.257 . S
N8 C7 1.326 . S
N8 C12 1.362 . S
C9 C10 1.258 . S
C9 C12 1.431 . S
C9 C29 1.449 1_455 S
C10 C9 1.258 . S
C10 C11 1.477 . S
C10 H30 0.931 . S
C11 C7 1.460 . S
C11 C10 1.477 . S
C11 H31 0.930 . S
C12 N8 1.362 . S
C12 C9 1.431 . S
C12 C22 1.476 . S
H13 C7 0.929 . S
C14 O5 1.250 . S
C14 O6 1.258 . S
O15 Mn0 2.162 . S
O15 C3 1.281 . S
O16 Mn0 2.297 . S
O16 C3 1.236 . S
N17 Mn1 2.282 . S
N17 C18 1.328 . S
N17 C22 1.318 . S
C18 N17 1.328 . S
C18 C19 1.457 1_455 S
C18 H23 0.929 . S
C19 C18 1.457 1_655 S
C19 C20 1.291 . S
C19 H32 0.931 . S
C20 C19 1.291 . S
C20 C21 1.373 . S
C20 H33 0.929 . S
C21 C20 1.373 . S
C21 C22 1.396 1_655 S
C21 C28 1.403 . S
C22 C12 1.476 . S
C22 N17 1.318 . S
C22 C21 1.396 1_455 S
H23 C18 0.929 . S
O24 Mn0 2.385 . S
O24 C2 1.234 . S
O25 Mn0 2.209 . S
O25 Mn1 2.215 . S
O25 C2 1.283 . S
O26 Mn0 2.094 . S
O26 C4 1.240 . S
O27 Mn1 2.117 . S
O27 C4 1.264 . S
C28 C21 1.403 . S
C28 C29 1.399 . S
C28 H34 0.929 . S
C29 C9 1.449 1_655 S
C29 C28 1.399 . S
C29 H35 0.930 . S
H30 C10 0.931 . S
H31 C11 0.930 . S
H32 C19 0.931 . S
H33 C20 0.929 . S
H34 C28 0.929 . S
H35 C29 0.930 . S
Mn36 O41 2.095 . S
Mn36 O51 2.162 . S
Mn36 O52 2.297 . S
Mn36 O60 2.385 . S
Mn36 O61 2.209 . S
Mn36 O62 2.094 . S
Mn37 O42 2.121 . S
Mn37 N44 2.257 . S
Mn37 N53 2.282 . S
Mn37 O61 2.215 . S
Mn37 O63 2.117 . S
C38 O60 1.234 . S
C38 O61 1.283 . S
C39 O51 1.281 . S
C39 O52 1.236 . S
C40 O62 1.240 . S
C40 O63 1.264 . S
O41 Mn36 2.095 . S
O41 C50 1.250 . S
O42 Mn37 2.121 . S
O42 C50 1.258 . S
C43 N44 1.326 . S
C43 C47 1.460 . S
C43 H49 0.929 . S
N44 Mn37 2.257 . S
N44 C43 1.326 . S
N44 C48 1.362 . S
C45 C46 1.258 . S
C45 C48 1.431 . S
C45 C65 1.449 . S
C46 C45 1.258 . S
C46 C47 1.477 . S
C46 H66 0.931 . S
C47 C43 1.460 . S
C47 C46 1.477 . S
C47 H67 0.930 . S
C48 N44 1.362 . S
C48 C45 1.431 . S
C48 C58 1.476 . S
H49 C43 0.929 . S
C50 O41 1.250 . S
C50 O42 1.258 . S
O51 Mn36 2.162 . S
O51 C39 1.281 . S
O52 Mn36 2.297 . S
O52 C39 1.236 . S
N53 Mn37 2.282 . S
N53 C54 1.328 . S
N53 C58 1.318 . S
C54 N53 1.328 . S
C54 C55 1.457 . S
C54 H59 0.929 . S
C55 C54 1.457 . S
C55 C56 1.291 . S
C55 H68 0.931 . S
C56 C55 1.291 . S
C56 C57 1.373 . S
C56 H69 0.929 . S
C57 C56 1.373 . S
C57 C58 1.396 . S
C57 C64 1.403 . S
C58 C48 1.476 . S
C58 N53 1.318 . S
C58 C57 1.396 . S
H59 C54 0.929 . S
O60 Mn36 2.385 . S
O60 C38 1.234 . S
O61 Mn36 2.209 . S
O61 Mn37 2.215 . S
O61 C38 1.283 . S
O62 Mn36 2.094 . S
O62 C40 1.240 . S
O63 Mn37 2.117 . S
O63 C40 1.264 . S
C64 C57 1.403 . S
C64 C65 1.399 . S
C64 H70 0.929 . S
C65 C45 1.449 . S
C65 C64 1.399 . S
C65 H71 0.930 . S
H66 C46 0.931 . S
H67 C47 0.930 . S
H68 C55 0.931 . S
H69 C56 0.929 . S
H70 C64 0.929 . S
H71 C65 0.930 . S
Mn72 O77 2.095 . S
Mn72 O87 2.162 . S
Mn72 O88 2.297 . S
Mn72 O96 2.385 . S
Mn72 O97 2.209 . S
Mn72 O98 2.094 . S
Mn73 O78 2.121 . S
Mn73 N80 2.257 . S
Mn73 N89 2.282 . S
Mn73 O97 2.215 . S
Mn73 O99 2.117 . S
C74 O96 1.234 . S
C74 O97 1.283 . S
C75 O87 1.281 . S
C75 O88 1.236 . S
C76 O98 1.240 . S
C76 O99 1.264 . S
O77 Mn72 2.095 . S
O77 C86 1.250 . S
O78 Mn73 2.121 . S
O78 C86 1.258 . S
C79 N80 1.326 . S
C79 C83 1.460 . S
C79 H85 0.929 . S
N80 Mn73 2.257 . S
N80 C79 1.326 . S
N80 C84 1.362 . S
C81 C82 1.258 . S
C81 C84 1.431 . S
C81 C101 1.449 . S
C82 C81 1.258 . S
C82 C83 1.477 . S
C82 H102 0.931 . S
C83 C79 1.460 . S
C83 C82 1.477 . S
C83 H103 0.930 . S
C84 N80 1.362 . S
C84 C81 1.431 . S
C84 C94 1.476 . S
H85 C79 0.929 . S
C86 O77 1.250 . S
C86 O78 1.258 . S
O87 Mn72 2.162 . S
O87 C75 1.281 . S
O88 Mn72 2.297 . S
O88 C75 1.236 . S
N89 Mn73 2.282 . S
N89 C90 1.328 . S
N89 C94 1.318 . S
C90 N89 1.328 . S
C90 C91 1.457 1_556 S
C90 H95 0.929 . S
C91 C90 1.457 1_554 S
C91 C92 1.291 . S
C91 H104 0.931 . S
C92 C91 1.291 . S
C92 C93 1.373 1_554 S
C92 H105 0.929 . S
C93 C92 1.373 1_556 S
C93 C94 1.396 . S
C93 C100 1.403 1_556 S
C94 C84 1.476 . S
C94 N89 1.318 . S
C94 C93 1.396 . S
H95 C90 0.929 . S
O96 Mn72 2.385 . S
O96 C74 1.234 . S
O97 Mn72 2.209 . S
O97 Mn73 2.215 . S
O97 C74 1.283 . S
O98 Mn72 2.094 . S
O98 C76 1.240 . S
O99 Mn73 2.117 . S
O99 C76 1.264 . S
C100 C93 1.403 1_554 S
C100 C101 1.399 1_554 S
C100 H106 0.929 . S
C101 C81 1.449 . S
C101 C100 1.399 1_556 S
C101 H107 0.930 . S
H102 C82 0.931 . S
H103 C83 0.930 . S
H104 C91 0.931 . S
H105 C92 0.929 . S
H106 C100 0.929 . S
H107 C101 0.930 . S
Mn108 O113 2.095 1_554 S
Mn108 O123 2.162 . S
Mn108 O124 2.297 . S
Mn108 O132 2.385 . S
Mn108 O133 2.209 . S
Mn108 O134 2.094 . S
Mn109 O114 2.121 1_554 S
Mn109 N116 2.257 . S
Mn109 N125 2.282 . S
Mn109 O133 2.215 . S
Mn109 O135 2.117 . S
C110 O132 1.234 . S
C110 O133 1.283 . S
C111 O123 1.281 . S
C111 O124 1.236 . S
C112 O134 1.240 . S
C112 O135 1.264 . S
O113 Mn108 2.095 1_556 S
O113 C122 1.250 . S
O114 Mn109 2.121 1_556 S
O114 C122 1.258 . S
C115 N116 1.326 . S
C115 C119 1.460 . S
C115 H121 0.929 1_554 S
N116 Mn109 2.257 . S
N116 C115 1.326 . S
N116 C120 1.362 . S
C117 C118 1.258 . S
C117 C120 1.431 . S
C117 C137 1.449 1_565 S
C118 C117 1.258 . S
C118 C119 1.477 . S
C118 H138 0.931 . S
C119 C115 1.460 . S
C119 C118 1.477 . S
C119 H139 0.930 . S
C120 N116 1.362 . S
C120 C117 1.431 . S
C120 C130 1.476 . S
H121 C115 0.929 1_556 S
C122 O113 1.250 . S
C122 O114 1.258 . S
O123 Mn108 2.162 . S
O123 C111 1.281 . S
O124 Mn108 2.297 . S
O124 C111 1.236 . S
N125 Mn109 2.282 . S
N125 C126 1.328 . S
N125 C130 1.318 . S
C126 N125 1.328 . S
C126 C127 1.457 1_565 S
C126 H131 0.929 . S
C127 C126 1.457 1_545 S
C127 C128 1.291 . S
C127 H140 0.931 . S
C128 C127 1.291 . S
C128 C129 1.373 . S
C128 H141 0.929 . S
C129 C128 1.373 . S
C129 C130 1.396 1_545 S
C129 C136 1.403 . S
C130 C120 1.476 . S
C130 N125 1.318 . S
C130 C129 1.396 1_565 S
H131 C126 0.929 . S
O132 Mn108 2.385 . S
O132 C110 1.234 . S
O133 Mn108 2.209 . S
O133 Mn109 2.215 . S
O133 C110 1.283 . S
O134 Mn108 2.094 . S
O134 C112 1.240 . S
O135 Mn109 2.117 . S
O135 C112 1.264 . S
C136 C129 1.403 . S
C136 C137 1.399 . S
C136 H142 0.929 . S
C137 C117 1.449 1_545 S
C137 C136 1.399 . S
C137 H143 0.930 . S
H138 C118 0.931 . S
H139 C119 0.930 . S
H140 C127 0.931 . S
H141 C128 0.929 . S
H142 C136 0.929 . S
H143 C137 0.930 . S
Mn144 O149 2.092 1_556 S
Mn144 O159 2.162 . S
Mn144 O160 2.297 . S
Mn144 O168 2.389 . S
Mn144 O169 2.210 . S
Mn144 O170 2.094 1_556 S
Mn145 O150 2.121 . S
Mn145 N152 2.257 1_554 S
Mn145 N161 2.282 1_554 S
Mn145 O169 2.215 1_554 S
Mn145 O171 2.117 . S
C146 O168 1.234 . S
C146 O169 1.283 . S
C147 O159 1.281 . S
C147 O160 1.236 . S
C148 O170 1.240 . S
C148 O171 1.264 . S
O149 Mn144 2.092 1_554 S
O149 C158 1.250 . S
O150 Mn145 2.121 . S
O150 C158 1.258 . S
C151 N152 1.326 1_554 S
C151 C155 1.460 . S
C151 H157 0.929 . S
N152 Mn145 2.257 1_556 S
N152 C151 1.326 1_556 S
N152 C156 1.362 . S
C153 C154 1.258 . S
C153 C156 1.431 . S
C153 C173 1.449 1_455 S
C154 C153 1.258 . S
C154 C155 1.477 1_556 S
C154 H174 0.931 . S
C155 C151 1.460 . S
C155 C154 1.477 1_554 S
C155 H175 0.930 . S
C156 N152 1.362 . S
C156 C153 1.431 . S
C156 C166 1.476 . S
H157 C151 0.929 . S
C158 O149 1.250 . S
C158 O150 1.258 . S
O159 Mn144 2.162 . S
O159 C147 1.281 . S
O160 Mn144 2.297 . S
O160 C147 1.236 . S
N161 Mn145 2.282 1_556 S
N161 C162 1.328 . S
N161 C166 1.318 . S
C162 N161 1.328 . S
C162 C163 1.457 1_455 S
C162 H167 0.929 . S
C163 C162 1.457 1_655 S
C163 C164 1.291 . S
C163 H176 0.931 . S
C164 C163 1.291 . S
C164 C165 1.373 . S
C164 H177 0.929 . S
C165 C164 1.373 . S
C165 C166 1.396 1_655 S
C165 C172 1.403 . S
C166 C156 1.476 . S
C166 N161 1.318 . S
C166 C165 1.396 1_455 S
H167 C162 0.929 . S
O168 Mn144 2.389 . S
O168 C146 1.234 . S
O169 Mn144 2.210 . S
O169 Mn145 2.215 1_556 S
O169 C146 1.283 . S
O170 Mn144 2.094 1_554 S
O170 C148 1.240 . S
O171 Mn145 2.117 . S
O171 C148 1.264 . S
C172 C165 1.403 . S
C172 C173 1.399 . S
C172 H178 0.929 . S
C173 C153 1.449 1_655 S
C173 C172 1.399 . S
C173 H179 0.930 . S
H174 C154 0.931 . S
H175 C155 0.930 . S
H176 C163 0.931 . S
H177 C164 0.929 . S
H178 C172 0.929 . S
H179 C173 0.930 . S
Mn180 O185 2.095 . S
Mn180 O195 2.162 . S
Mn180 O196 2.297 . S
Mn180 O204 2.385 . S
Mn180 O205 2.209 . S
Mn180 O206 2.094 . S
Mn181 O186 2.121 . S
Mn181 N188 2.257 . S
Mn181 N197 2.282 . S
Mn181 O205 2.215 . S
Mn181 O207 2.117 . S
C182 O204 1.234 . S
C182 O205 1.283 . S
C183 O195 1.281 . S
C183 O196 1.236 . S
C184 O206 1.240 . S
C184 O207 1.264 . S
O185 Mn180 2.095 . S
O185 C194 1.250 . S
O186 Mn181 2.121 . S
O186 C194 1.258 . S
C187 N188 1.326 . S
C187 C191 1.460 . S
C187 H193 0.929 . S
N188 Mn181 2.257 . S
N188 C187 1.326 . S
N188 C192 1.362 . S
C189 C190 1.258 . S
C189 C192 1.431 . S
C189 C209 1.449 . S
C190 C189 1.258 . S
C190 C191 1.477 . S
C190 H210 0.931 . S
C191 C187 1.460 . S
C191 C190 1.477 . S
C191 H211 0.930 . S
C192 N188 1.362 . S
C192 C189 1.431 . S
C192 C202 1.476 . S
H193 C187 0.929 . S
C194 O185 1.250 . S
C194 O186 1.258 . S
O195 Mn180 2.162 . S
O195 C183 1.281 . S
O196 Mn180 2.297 . S
O196 C183 1.236 . S
N197 Mn181 2.282 . S
N197 C198 1.328 . S
N197 C202 1.318 . S
C198 N197 1.328 . S
C198 C199 1.457 . S
C198 H203 0.929 . S
C199 C198 1.457 . S
C199 C200 1.291 . S
C199 H212 0.931 . S
C200 C199 1.291 . S
C200 C201 1.373 . S
C200 H213 0.929 1_554 S
C201 C200 1.373 . S
C201 C202 1.396 . S
C201 C208 1.403 . S
C202 C192 1.476 . S
C202 N197 1.318 . S
C202 C201 1.396 . S
H203 C198 0.929 . S
O204 Mn180 2.385 . S
O204 C182 1.234 . S
O205 Mn180 2.209 . S
O205 Mn181 2.215 . S
O205 C182 1.283 . S
O206 Mn180 2.094 . S
O206 C184 1.240 . S
O207 Mn181 2.117 . S
O207 C184 1.264 . S
C208 C201 1.403 . S
C208 C209 1.399 . S
C208 H214 0.929 . S
C209 C189 1.449 . S
C209 C208 1.399 . S
C209 H215 0.930 . S
H210 C190 0.931 . S
H211 C191 0.930 . S
H212 C199 0.931 . S
H213 C200 0.929 1_556 S
H214 C208 0.929 . S
H215 C209 0.930 . S
Mn216 O221 2.095 . S
Mn216 O231 2.162 . S
Mn216 O232 2.297 . S
Mn216 O240 2.385 . S
Mn216 O241 2.209 . S
Mn216 O242 2.094 . S
Mn217 O222 2.121 . S
Mn217 N224 2.257 . S
Mn217 N233 2.282 . S
Mn217 O241 2.215 . S
Mn217 O243 2.117 . S
C218 O240 1.234 . S
C218 O241 1.283 . S
C219 O231 1.281 . S
C219 O232 1.236 . S
C220 O242 1.240 . S
C220 O243 1.264 . S
O221 Mn216 2.095 . S
O221 C230 1.250 . S
O222 Mn217 2.121 . S
O222 C230 1.258 . S
C223 N224 1.326 . S
C223 C227 1.460 . S
C223 H229 0.929 . S
N224 Mn217 2.257 . S
N224 C223 1.326 . S
N224 C228 1.362 . S
C225 C226 1.258 . S
C225 C228 1.431 . S
C225 C245 1.449 . S
C226 C225 1.258 . S
C226 C227 1.477 . S
C226 H246 0.931 . S
C227 C223 1.460 . S
C227 C226 1.477 . S
C227 H247 0.930 . S
C228 N224 1.362 . S
C228 C225 1.431 . S
C228 C238 1.476 . S
H229 C223 0.929 . S
C230 O221 1.250 . S
C230 O222 1.258 . S
O231 Mn216 2.162 . S
O231 C219 1.281 . S
O232 Mn216 2.297 . S
O232 C219 1.236 . S
N233 Mn217 2.282 . S
N233 C234 1.328 . S
N233 C238 1.318 . S
C234 N233 1.328 . S
C234 C235 1.457 . S
C234 H239 0.929 . S
C235 C234 1.457 . S
C235 C236 1.291 . S
C235 H248 0.931 . S
C236 C235 1.291 . S
C236 C237 1.373 . S
C236 H249 0.929 . S
C237 C236 1.373 . S
C237 C238 1.396 . S
C237 C244 1.403 . S
C238 C228 1.476 . S
C238 N233 1.318 . S
C238 C237 1.396 . S
H239 C234 0.929 . S
O240 Mn216 2.385 . S
O240 C218 1.234 . S
O241 Mn216 2.209 . S
O241 Mn217 2.215 . S
O241 C218 1.283 . S
O242 Mn216 2.094 . S
O242 C220 1.240 . S
O243 Mn217 2.117 . S
O243 C220 1.264 . S
C244 C237 1.403 . S
C244 C245 1.399 . S
C244 H250 0.929 . S
C245 C225 1.449 . S
C245 C244 1.399 . S
C245 H251 0.930 . S
H246 C226 0.931 . S
H247 C227 0.930 . S
H248 C235 0.931 . S
H249 C236 0.929 . S
H250 C244 0.929 . S
H251 C245 0.930 . S
Mn252 O257 2.095 . S
Mn252 O267 2.162 . S
Mn252 O268 2.297 . S
Mn252 O276 2.385 . S
Mn252 O277 2.209 . S
Mn252 O278 2.094 . S
Mn253 O258 2.121 . S
Mn253 N260 2.257 . S
Mn253 N269 2.282 . S
Mn253 O277 2.215 . S
Mn253 O279 2.117 . S
C254 O276 1.234 . S
C254 O277 1.283 . S
C255 O267 1.281 . S
C255 O268 1.236 . S
C256 O278 1.240 . S
C256 O279 1.264 . S
O257 Mn252 2.095 . S
O257 C266 1.250 . S
O258 Mn253 2.121 . S
O258 C266 1.258 . S
C259 N260 1.326 . S
C259 C263 1.460 . S
C259 H265 0.929 . S
N260 Mn253 2.257 . S
N260 C259 1.326 . S
N260 C264 1.362 . S
C261 C262 1.258 . S
C261 C264 1.431 . S
C261 C281 1.449 1_565 S
C262 C261 1.258 . S
C262 C263 1.477 . S
C262 H282 0.931 . S
C263 C259 1.460 . S
C263 C262 1.477 . S
C263 H283 0.930 . S
C264 N260 1.362 . S
C264 C261 1.431 . S
C264 C274 1.476 . S
H265 C259 0.929 . S
C266 O257 1.250 . S
C266 O258 1.258 . S
O267 Mn252 2.162 . S
O267 C255 1.281 . S
O268 Mn252 2.297 . S
O268 C255 1.236 . S
N269 Mn253 2.282 . S
N269 C270 1.328 . S
N269 C274 1.318 . S
C270 N269 1.328 . S
C270 C271 1.457 1_565 S
C270 H275 0.929 . S
C271 C270 1.457 1_545 S
C271 C272 1.291 . S
C271 H284 0.931 . S
C272 C271 1.291 . S
C272 C273 1.373 . S
C272 H285 0.929 . S
C273 C272 1.373 . S
C273 C274 1.396 1_545 S
C273 C280 1.403 . S
C274 C264 1.476 . S
C274 N269 1.318 . S
C274 C273 1.396 1_565 S
H275 C270 0.929 . S
O276 Mn252 2.385 . S
O276 C254 1.234 . S
O277 Mn252 2.209 . S
O277 Mn253 2.215 . S
O277 C254 1.283 . S
O278 Mn252 2.094 . S
O278 C256 1.240 . S
O279 Mn253 2.117 . S
O279 C256 1.264 . S
C280 C273 1.403 . S
C280 C281 1.399 . S
C280 H286 0.929 . S
C281 C261 1.449 1_545 S
C281 C280 1.399 . S
C281 H287 0.930 . S
H282 C262 0.931 . S
H283 C263 0.930 . S
H284 C271 0.931 . S
H285 C272 0.929 . S
H286 C280 0.929 . S
H287 C281 0.930 . S
Mn288 O293 2.095 . S
Mn288 O303 2.162 . S
Mn288 O304 2.297 . S
Mn288 O312 2.385 . S
Mn288 O313 2.209 . S
Mn288 O314 2.094 . S
Mn289 O294 2.121 . S
Mn289 N296 2.257 . S
Mn289 N305 2.282 . S
Mn289 O313 2.215 . S
Mn289 O315 2.117 . S
C290 O312 1.234 . S
C290 O313 1.283 . S
C291 O303 1.281 . S
C291 O304 1.236 . S
C292 O314 1.240 . S
C292 O315 1.264 . S
O293 Mn288 2.095 . S
O293 C302 1.250 . S
O294 Mn289 2.121 . S
O294 C302 1.258 . S
C295 N296 1.326 . S
C295 C299 1.460 . S
C295 H301 0.929 . S
N296 Mn289 2.257 . S
N296 C295 1.326 . S
N296 C300 1.362 . S
C297 C298 1.258 . S
C297 C300 1.431 . S
C297 C317 1.449 . S
C298 C297 1.258 . S
C298 C299 1.477 . S
C298 H318 0.931 . S
C299 C295 1.460 . S
C299 C298 1.477 . S
C299 H319 0.930 . S
C300 N296 1.362 . S
C300 C297 1.431 . S
C300 C310 1.476 . S
H301 C295 0.929 . S
C302 O293 1.250 . S
C302 O294 1.258 . S
O303 Mn288 2.162 . S
O303 C291 1.281 . S
O304 Mn288 2.297 . S
O304 C291 1.236 . S
N305 Mn289 2.282 . S
N305 C306 1.328 . S
N305 C310 1.318 . S
C306 N305 1.328 . S
C306 C307 1.457 1_556 S
C306 H311 0.929 . S
C307 C306 1.457 1_554 S
C307 C308 1.291 . S
C307 H320 0.931 . S
C308 C307 1.291 . S
C308 C309 1.373 1_554 S
C308 H321 0.929 . S
C309 C308 1.373 1_556 S
C309 C310 1.396 . S
C309 C316 1.403 1_556 S
C310 C300 1.476 . S
C310 N305 1.318 . S
C310 C309 1.396 . S
H311 C306 0.929 . S
O312 Mn288 2.385 . S
O312 C290 1.234 . S
O313 Mn288 2.209 . S
O313 Mn289 2.215 . S
O313 C290 1.283 . S
O314 Mn288 2.094 . S
O314 C292 1.240 . S
O315 Mn289 2.117 . S
O315 C292 1.264 . S
C316 C309 1.403 1_554 S
C316 C317 1.399 1_554 S
C316 H322 0.929 . S
C317 C297 1.449 . S
C317 C316 1.399 1_556 S
C317 H323 0.930 . S
H318 C298 0.931 . S
H319 C299 0.930 . S
H320 C307 0.931 . S
H321 C308 0.929 . S
H322 C316 0.929 . S
H323 C317 0.930 . S
Mn324 O329 2.095 1_554 S
Mn324 O339 2.162 . S
Mn324 O340 2.297 . S
Mn324 O348 2.385 . S
Mn324 O349 2.209 . S
Mn324 O350 2.094 . S
Mn325 O330 2.121 1_554 S
Mn325 N332 2.257 . S
Mn325 N341 2.282 . S
Mn325 O349 2.215 . S
Mn325 O351 2.117 . S
C326 O348 1.234 . S
C326 O349 1.283 . S
C327 O339 1.281 . S
C327 O340 1.236 . S
C328 O350 1.240 . S
C328 O351 1.264 . S
O329 Mn324 2.095 1_556 S
O329 C338 1.250 . S
O330 Mn325 2.121 1_556 S
O330 C338 1.258 . S
C331 N332 1.326 . S
C331 C335 1.460 . S
C331 H337 0.929 1_554 S
N332 Mn325 2.257 . S
N332 C331 1.326 . S
N332 C336 1.362 . S
C333 C334 1.258 . S
C333 C336 1.431 . S
C333 C353 1.449 1_545 S
C334 C333 1.258 . S
C334 C335 1.477 . S
C334 H354 0.931 . S
C335 C331 1.460 . S
C335 C334 1.477 . S
C335 H355 0.930 . S
C336 N332 1.362 . S
C336 C333 1.431 . S
C336 C346 1.476 . S
H337 C331 0.929 1_556 S
C338 O329 1.250 . S
C338 O330 1.258 . S
O339 Mn324 2.162 . S
O339 C327 1.281 . S
O340 Mn324 2.297 . S
O340 C327 1.236 . S
N341 Mn325 2.282 . S
N341 C342 1.328 . S
N341 C346 1.318 . S
C342 N341 1.328 . S
C342 C343 1.457 1_545 S
C342 H347 0.929 . S
C343 C342 1.457 1_565 S
C343 C344 1.291 . S
C343 H356 0.931 . S
C344 C343 1.291 . S
C344 C345 1.373 . S
C344 H357 0.929 . S
C345 C344 1.373 . S
C345 C346 1.396 1_565 S
C345 C352 1.403 . S
C346 C336 1.476 . S
C346 N341 1.318 . S
C346 C345 1.396 1_545 S
H347 C342 0.929 . S
O348 Mn324 2.385 . S
O348 C326 1.234 . S
O349 Mn324 2.209 . S
O349 Mn325 2.215 . S
O349 C326 1.283 . S
O350 Mn324 2.094 . S
O350 C328 1.240 . S
O351 Mn325 2.117 . S
O351 C328 1.264 . S
C352 C345 1.403 . S
C352 C353 1.399 . S
C352 H358 0.929 . S
C353 C333 1.449 1_565 S
C353 C352 1.399 . S
C353 H359 0.930 . S
H354 C334 0.931 . S
H355 C335 0.930 . S
H356 C343 0.931 . S
H357 C344 0.929 . S
H358 C352 0.929 . S
H359 C353 0.930 . S
Mn360 O365 2.095 . S
Mn360 O375 2.162 . S
Mn360 O376 2.297 . S
Mn360 O384 2.385 . S
Mn360 O385 2.209 . S
Mn360 O386 2.094 . S
Mn361 O366 2.121 . S
Mn361 N368 2.257 . S
Mn361 N377 2.282 . S
Mn361 O385 2.215 . S
Mn361 O387 2.117 . S
C362 O384 1.234 . S
C362 O385 1.283 . S
C363 O375 1.281 . S
C363 O376 1.236 . S
C364 O386 1.240 . S
C364 O387 1.264 . S
O365 Mn360 2.095 . S
O365 C374 1.250 . S
O366 Mn361 2.121 . S
O366 C374 1.258 . S
C367 N368 1.326 . S
C367 C371 1.460 . S
C367 H373 0.929 . S
N368 Mn361 2.257 . S
N368 C367 1.326 . S
N368 C372 1.362 . S
C369 C370 1.258 . S
C369 C372 1.431 . S
C369 C389 1.449 1_655 S
C370 C369 1.258 . S
C370 C371 1.477 . S
C370 H390 0.931 . S
C371 C367 1.460 . S
C371 C370 1.477 . S
C371 H391 0.930 . S
C372 N368 1.362 . S
C372 C369 1.431 . S
C372 C382 1.476 . S
H373 C367 0.929 . S
C374 O365 1.250 . S
C374 O366 1.258 . S
O375 Mn360 2.162 . S
O375 C363 1.281 . S
O376 Mn360 2.297 . S
O376 C363 1.236 . S
N377 Mn361 2.282 . S
N377 C378 1.328 . S
N377 C382 1.318 . S
C378 N377 1.328 . S
C378 C379 1.457 1_655 S
C378 H383 0.929 . S
C379 C378 1.457 1_455 S
C379 C380 1.291 . S
C379 H392 0.931 . S
C380 C379 1.291 . S
C380 C381 1.373 . S
C380 H393 0.929 . S
C381 C380 1.373 . S
C381 C382 1.396 1_455 S
C381 C388 1.403 . S
C382 C372 1.476 . S
C382 N377 1.318 . S
C382 C381 1.396 1_655 S
H383 C378 0.929 . S
O384 Mn360 2.385 . S
O384 C362 1.234 . S
O385 Mn360 2.209 . S
O385 Mn361 2.215 . S
O385 C362 1.283 . S
O386 Mn360 2.094 . S
O386 C364 1.240 . S
O387 Mn361 2.117 . S
O387 C364 1.264 . S
C388 C381 1.403 . S
C388 C389 1.399 . S
C388 H394 0.929 . S
C389 C369 1.449 1_455 S
C389 C388 1.399 . S
C389 H395 0.930 . S
H390 C370 0.931 . S
H391 C371 0.930 . S
H392 C379 0.931 . S
H393 C380 0.929 . S
H394 C388 0.929 . S
H395 C389 0.930 . S
Mn396 O401 2.095 . S
Mn396 O411 2.162 . S
Mn396 O412 2.297 . S
Mn396 O420 2.385 . S
Mn396 O421 2.209 . S
Mn396 O422 2.094 . S
Mn397 O402 2.121 . S
Mn397 N404 2.257 . S
Mn397 N413 2.282 . S
Mn397 O421 2.215 . S
Mn397 O423 2.117 . S
C398 O420 1.234 . S
C398 O421 1.283 . S
C399 O411 1.281 . S
C399 O412 1.236 . S
C400 O422 1.240 . S
C400 O423 1.264 . S
O401 Mn396 2.095 . S
O401 C410 1.250 . S
O402 Mn397 2.121 . S
O402 C410 1.258 . S
C403 N404 1.326 . S
C403 C407 1.460 . S
C403 H409 0.929 . S
N404 Mn397 2.257 . S
N404 C403 1.326 . S
N404 C408 1.362 . S
C405 C406 1.258 . S
C405 C408 1.431 . S
C405 C425 1.449 . S
C406 C405 1.258 . S
C406 C407 1.477 . S
C406 H426 0.931 . S
C407 C403 1.460 . S
C407 C406 1.477 . S
C407 H427 0.930 . S
C408 N404 1.362 . S
C408 C405 1.431 . S
C408 C418 1.476 . S
H409 C403 0.929 . S
C410 O401 1.250 . S
C410 O402 1.258 . S
O411 Mn396 2.162 . S
O411 C399 1.281 . S
O412 Mn396 2.297 . S
O412 C399 1.236 . S
N413 Mn397 2.282 . S
N413 C414 1.328 . S
N413 C418 1.318 . S
C414 N413 1.328 . S
C414 C415 1.457 . S
C414 H419 0.929 . S
C415 C414 1.457 . S
C415 C416 1.291 . S
C415 H428 0.931 . S
C416 C415 1.291 . S
C416 C417 1.373 . S
C416 H429 0.929 . S
C417 C416 1.373 . S
C417 C418 1.396 . S
C417 C424 1.403 . S
C418 C408 1.476 . S
C418 N413 1.318 . S
C418 C417 1.396 . S
H419 C414 0.929 . S
O420 Mn396 2.385 . S
O420 C398 1.234 . S
O421 Mn396 2.209 . S
O421 Mn397 2.215 . S
O421 C398 1.283 . S
O422 Mn396 2.094 . S
O422 C400 1.240 . S
O423 Mn397 2.117 . S
O423 C400 1.264 . S
C424 C417 1.403 . S
C424 C425 1.399 . S
C424 H430 0.929 . S
C425 C405 1.449 . S
C425 C424 1.399 . S
C425 H431 0.930 . S
H426 C406 0.931 . S
H427 C407 0.930 . S
H428 C415 0.931 . S
H429 C416 0.929 . S
H430 C424 0.929 . S
H431 C425 0.930 . S
Mn432 O437 2.095 . S
Mn432 O447 2.162 . S
Mn432 O448 2.297 . S
Mn432 O456 2.385 . S
Mn432 O457 2.209 . S
Mn432 O458 2.094 . S
Mn433 O438 2.121 . S
Mn433 N440 2.257 . S
Mn433 N449 2.282 . S
Mn433 O457 2.215 . S
Mn433 O459 2.117 . S
C434 O456 1.234 . S
C434 O457 1.283 . S
C435 O447 1.281 . S
C435 O448 1.236 . S
C436 O458 1.240 . S
C436 O459 1.264 . S
O437 Mn432 2.095 . S
O437 C446 1.250 . S
O438 Mn433 2.121 . S
O438 C446 1.258 . S
C439 N440 1.326 . S
C439 C443 1.460 . S
C439 H445 0.929 . S
N440 Mn433 2.257 . S
N440 C439 1.326 . S
N440 C444 1.362 . S
C441 C442 1.258 . S
C441 C444 1.431 . S
C441 C461 1.449 . S
C442 C441 1.258 . S
C442 C443 1.477 . S
C442 H462 0.931 . S
C443 C439 1.460 . S
C443 C442 1.477 . S
C443 H463 0.930 . S
C444 N440 1.362 . S
C444 C441 1.431 . S
C444 C454 1.476 . S
H445 C439 0.929 . S
C446 O437 1.250 . S
C446 O438 1.258 . S
O447 Mn432 2.162 . S
O447 C435 1.281 . S
O448 Mn432 2.297 . S
O448 C435 1.236 . S
N449 Mn433 2.282 . S
N449 C450 1.328 . S
N449 C454 1.318 . S
C450 N449 1.328 . S
C450 C451 1.457 . S
C450 H455 0.929 . S
C451 C450 1.457 . S
C451 C452 1.291 . S
C451 H464 0.931 . S
C452 C451 1.291 . S
C452 C453 1.373 . S
C452 H465 0.929 . S
C453 C452 1.373 . S
C453 C454 1.396 . S
C453 C460 1.403 . S
C454 C444 1.476 . S
C454 N449 1.318 . S
C454 C453 1.396 . S
H455 C450 0.929 . S
O456 Mn432 2.385 . S
O456 C434 1.234 . S
O457 Mn432 2.209 . S
O457 Mn433 2.215 . S
O457 C434 1.283 . S
O458 Mn432 2.094 . S
O458 C436 1.240 . S
O459 Mn433 2.117 . S
O459 C436 1.264 . S
C460 C453 1.403 . S
C460 C461 1.399 . S
C460 H466 0.929 . S
C461 C441 1.449 . S
C461 C460 1.399 . S
C461 H467 0.930 . S
H462 C442 0.931 . S
H463 C443 0.930 . S
H464 C451 0.931 . S
H465 C452 0.929 . S
H466 C460 0.929 . S
H467 C461 0.930 . S
Mn468 O473 2.095 . S
Mn468 O483 2.162 . S
Mn468 O484 2.297 . S
Mn468 O492 2.385 . S
Mn468 O493 2.209 . S
Mn468 O494 2.094 . S
Mn469 O474 2.121 . S
Mn469 N476 2.257 . S
Mn469 N485 2.282 . S
Mn469 O493 2.215 . S
Mn469 O495 2.117 . S
C470 O492 1.234 . S
C470 O493 1.283 . S
C471 O483 1.281 . S
C471 O484 1.236 . S
C472 O494 1.240 . S
C472 O495 1.264 . S
O473 Mn468 2.095 . S
O473 C482 1.250 . S
O474 Mn469 2.121 . S
O474 C482 1.258 . S
C475 N476 1.326 . S
C475 C479 1.460 . S
C475 H481 0.929 . S
N476 Mn469 2.257 . S
N476 C475 1.326 . S
N476 C480 1.362 . S
C477 C478 1.258 . S
C477 C480 1.431 . S
C477 C497 1.449 1_545 S
C478 C477 1.258 . S
C478 C479 1.477 . S
C478 H498 0.931 . S
C479 C475 1.460 . S
C479 C478 1.477 . S
C479 H499 0.930 . S
C480 N476 1.362 . S
C480 C477 1.431 . S
C480 C490 1.476 . S
H481 C475 0.929 . S
C482 O473 1.250 . S
C482 O474 1.258 . S
O483 Mn468 2.162 . S
O483 C471 1.281 . S
O484 Mn468 2.297 . S
O484 C471 1.236 . S
N485 Mn469 2.282 . S
N485 C486 1.328 . S
N485 C490 1.318 . S
C486 N485 1.328 . S
C486 C487 1.457 1_545 S
C486 H491 0.929 . S
C487 C486 1.457 1_565 S
C487 C488 1.291 . S
C487 H500 0.931 . S
C488 C487 1.291 . S
C488 C489 1.373 . S
C488 H501 0.929 . S
C489 C488 1.373 . S
C489 C490 1.396 1_565 S
C489 C496 1.403 . S
C490 C480 1.476 . S
C490 N485 1.318 . S
C490 C489 1.396 1_545 S
H491 C486 0.929 . S
O492 Mn468 2.385 . S
O492 C470 1.234 . S
O493 Mn468 2.209 . S
O493 Mn469 2.215 . S
O493 C470 1.283 . S
O494 Mn468 2.094 . S
O494 C472 1.240 . S
O495 Mn469 2.117 . S
O495 C472 1.264 . S
C496 C489 1.403 . S
C496 C497 1.399 . S
C496 H502 0.929 . S
C497 C477 1.449 1_565 S
C497 C496 1.399 . S
C497 H503 0.930 . S
H498 C478 0.931 . S
H499 C479 0.930 . S
H500 C487 0.931 . S
H501 C488 0.929 . S
H502 C496 0.929 . S
H503 C497 0.930 . S
Mn504 O509 2.092 1_556 S
Mn504 O519 2.162 . S
Mn504 O520 2.297 . S
Mn504 O528 2.389 . S
Mn504 O529 2.210 . S
Mn504 O530 2.094 1_556 S
Mn505 O510 2.121 . S
Mn505 N512 2.257 1_554 S
Mn505 N521 2.282 1_554 S
Mn505 O529 2.215 1_554 S
Mn505 O531 2.117 . S
C506 O528 1.234 . S
C506 O529 1.283 . S
C507 O519 1.281 . S
C507 O520 1.236 . S
C508 O530 1.240 . S
C508 O531 1.264 . S
O509 Mn504 2.092 1_554 S
O509 C518 1.250 . S
O510 Mn505 2.121 . S
O510 C518 1.258 . S
C511 N512 1.326 1_554 S
C511 C515 1.460 . S
C511 H517 0.929 . S
N512 Mn505 2.257 1_556 S
N512 C511 1.326 1_556 S
N512 C516 1.362 . S
C513 C514 1.258 . S
C513 C516 1.431 . S
C513 C533 1.449 1_655 S
C514 C513 1.258 . S
C514 C515 1.477 1_556 S
C514 H534 0.931 . S
C515 C511 1.460 . S
C515 C514 1.477 1_554 S
C515 H535 0.930 . S
C516 N512 1.362 . S
C516 C513 1.431 . S
C516 C526 1.476 . S
H517 C511 0.929 . S
C518 O509 1.250 . S
C518 O510 1.258 . S
O519 Mn504 2.162 . S
O519 C507 1.281 . S
O520 Mn504 2.297 . S
O520 C507 1.236 . S
N521 Mn505 2.282 1_556 S
N521 C522 1.328 . S
N521 C526 1.318 . S
C522 N521 1.328 . S
C522 C523 1.457 1_655 S
C522 H527 0.929 . S
C523 C522 1.457 1_455 S
C523 C524 1.291 . S
C523 H536 0.931 . S
C524 C523 1.291 . S
C524 C525 1.373 . S
C524 H537 0.929 . S
C525 C524 1.373 . S
C525 C526 1.396 1_455 S
C525 C532 1.403 . S
C526 C516 1.476 . S
C526 N521 1.318 . S
C526 C525 1.396 1_655 S
H527 C522 0.929 . S
O528 Mn504 2.389 . S
O528 C506 1.234 . S
O529 Mn504 2.210 . S
O529 Mn505 2.215 1_556 S
O529 C506 1.283 . S
O530 Mn504 2.094 1_554 S
O530 C508 1.240 . S
O531 Mn505 2.117 . S
O531 C508 1.264 . S
C532 C525 1.403 . S
C532 C533 1.399 . S
C532 H538 0.929 . S
C533 C513 1.449 1_455 S
C533 C532 1.399 . S
C533 H539 0.930 . S
H534 C514 0.931 . S
H535 C515 0.930 . S
H536 C523 0.931 . S
H537 C524 0.929 . S
H538 C532 0.929 . S
H539 C533 0.930 . S
Mn540 O545 2.095 . S
Mn540 O555 2.162 . S
Mn540 O556 2.297 . S
Mn540 O564 2.385 . S
Mn540 O565 2.209 . S
Mn540 O566 2.094 . S
Mn541 O546 2.121 . S
Mn541 N548 2.257 . S
Mn541 N557 2.282 . S
Mn541 O565 2.215 . S
Mn541 O567 2.117 . S
C542 O564 1.234 . S
C542 O565 1.283 . S
C543 O555 1.281 . S
C543 O556 1.236 . S
C544 O566 1.240 . S
C544 O567 1.264 . S
O545 Mn540 2.095 . S
O545 C554 1.250 . S
O546 Mn541 2.121 . S
O546 C554 1.258 . S
C547 N548 1.326 . S
C547 C551 1.460 . S
C547 H553 0.929 . S
N548 Mn541 2.257 . S
N548 C547 1.326 . S
N548 C552 1.362 . S
C549 C550 1.258 . S
C549 C552 1.431 . S
C549 C569 1.449 . S
C550 C549 1.258 . S
C550 C551 1.477 . S
C550 H570 0.931 . S
C551 C547 1.460 . S
C551 C550 1.477 . S
C551 H571 0.930 . S
C552 N548 1.362 . S
C552 C549 1.431 . S
C552 C562 1.476 . S
H553 C547 0.929 . S
C554 O545 1.250 . S
C554 O546 1.258 . S
O555 Mn540 2.162 . S
O555 C543 1.281 . S
O556 Mn540 2.297 . S
O556 C543 1.236 . S
N557 Mn541 2.282 . S
N557 C558 1.328 . S
N557 C562 1.318 . S
C558 N557 1.328 . S
C558 C559 1.457 . S
C558 H563 0.929 . S
C559 C558 1.457 . S
C559 C560 1.291 . S
C559 H572 0.931 . S
C560 C559 1.291 . S
C560 C561 1.373 . S
C560 H573 0.929 1_554 S
C561 C560 1.373 . S
C561 C562 1.396 . S
C561 C568 1.403 . S
C562 C552 1.476 . S
C562 N557 1.318 . S
C562 C561 1.396 . S
H563 C558 0.929 . S
O564 Mn540 2.385 . S
O564 C542 1.234 . S
O565 Mn540 2.209 . S
O565 Mn541 2.215 . S
O565 C542 1.283 . S
O566 Mn540 2.094 . S
O566 C544 1.240 . S
O567 Mn541 2.117 . S
O567 C544 1.264 . S
C568 C561 1.403 . S
C568 C569 1.399 . S
C568 H574 0.929 . S
C569 C549 1.449 . S
C569 C568 1.399 . S
C569 H575 0.930 . S
H570 C550 0.931 . S
H571 C551 0.930 . S
H572 C559 0.931 . S
H573 C560 0.929 1_556 S
H574 C568 0.929 . S
H575 C569 0.930 . S
C576 C577 1.387 . S
C576 H580 0.950 . S
C576 C585 1.390 . S
C577 C576 1.387 . S
C577 C579 1.387 . S
H578 C585 0.950 . S
C579 C577 1.387 . S
C579 C581 1.390 . S
C579 H583 0.950 . S
H580 C576 0.950 . S
C581 C579 1.390 . S
C581 C582 1.387 . S
C581 H584 0.950 . S
C582 C581 1.387 . S
C582 C585 1.387 . S
H583 C579 0.950 . S
H584 C581 0.950 . S
C585 C576 1.390 . S
C585 H578 0.950 . S
C585 C582 1.387 . S
C586 C587 1.387 . S
C586 H590 0.950 . S
C586 C595 1.390 . S
C587 C586 1.387 . S
C587 C589 1.387 . S
H588 C595 0.950 . S
C589 C587 1.387 . S
C589 C591 1.390 . S
C589 H593 0.950 . S
H590 C586 0.950 . S
C591 C589 1.390 . S
C591 C592 1.387 . S
C591 H594 0.950 . S
C592 C591 1.387 . S
C592 C595 1.387 . S
H593 C589 0.950 . S
H594 C591 0.950 . S
C595 C586 1.390 . S
C595 H588 0.950 . S
C595 C592 1.387 . S
C596 C597 1.387 . S
C596 H600 0.950 . S
C596 C605 1.390 . S
C597 C596 1.387 . S
C597 C599 1.387 . S
H598 C605 0.950 . S
C599 C597 1.387 . S
C599 C601 1.390 . S
C599 H603 0.950 . S
H600 C596 0.950 . S
C601 C599 1.390 . S
C601 C602 1.387 . S
C601 H604 0.950 . S
C602 C601 1.387 . S
C602 C605 1.387 . S
H603 C599 0.950 . S
H604 C601 0.950 . S
C605 C596 1.390 . S
C605 H598 0.950 . S
C605 C602 1.387 . S
C606 C607 1.387 . S
C606 H610 0.950 . S
C606 C615 1.390 . S
C607 C606 1.387 . S
C607 C609 1.387 . S
H608 C615 0.950 . S
C609 C607 1.387 . S
C609 C611 1.390 . S
C609 H613 0.950 . S
H610 C606 0.950 . S
C611 C609 1.390 . S
C611 C612 1.387 . S
C611 H614 0.950 . S
C612 C611 1.387 . S
C612 C615 1.387 . S
H613 C609 0.950 . S
H614 C611 0.950 . S
C615 C606 1.390 . S
C615 H608 0.950 . S
C615 C612 1.387 . S
C616 C617 1.387 . S
C616 H620 0.950 . S
C616 C625 1.390 . S
C617 C616 1.387 . S
C617 C619 1.387 . S
H618 C625 0.950 . S
C619 C617 1.387 . S
C619 C621 1.390 . S
C619 H623 0.950 . S
H620 C616 0.950 . S
C621 C619 1.390 . S
C621 C622 1.387 . S
C621 H624 0.950 . S
C622 C621 1.387 . S
C622 C625 1.387 . S
H623 C619 0.950 . S
H624 C621 0.950 . S
C625 C616 1.390 . S
C625 H618 0.950 . S
C625 C622 1.387 . S
C626 C627 1.387 . S
C626 H630 0.950 . S
C626 C635 1.390 . S
C627 C626 1.387 . S
C627 C629 1.387 . S
H628 C635 0.950 . S
C629 C627 1.387 . S
C629 C631 1.390 . S
C629 H633 0.950 . S
H630 C626 0.950 . S
C631 C629 1.390 . S
C631 C632 1.387 . S
C631 H634 0.950 . S
C632 C631 1.387 . S
C632 C635 1.387 . S
H633 C629 0.950 . S
H634 C631 0.950 . S
C635 C626 1.390 . S
C635 H628 0.950 . S
C635 C632 1.387 . S
C636 C637 1.387 . S
C636 H640 0.950 . S
C636 C645 1.390 . S
C637 C636 1.387 . S
C637 C639 1.387 . S
H638 C645 0.950 . S
C639 C637 1.387 . S
C639 C641 1.390 . S
C639 H643 0.950 . S
H640 C636 0.950 . S
C641 C639 1.390 . S
C641 C642 1.387 . S
C641 H644 0.950 . S
C642 C641 1.387 . S
C642 C645 1.387 . S
H643 C639 0.950 . S
H644 C641 0.950 . S
C645 C636 1.390 . S
C645 H638 0.950 . S
C645 C642 1.387 . S
C646 C647 1.387 . S
C646 H650 0.950 . S
C646 C655 1.390 . S
C647 C646 1.387 . S
C647 C649 1.387 . S
H648 C655 0.950 . S
C649 C647 1.387 . S
C649 C651 1.390 . S
C649 H653 0.950 . S
H650 C646 0.950 . S
C651 C649 1.390 . S
C651 C652 1.387 . S
C651 H654 0.950 . S
C652 C651 1.387 . S
C652 C655 1.387 . S
H653 C649 0.950 . S
H654 C651 0.950 . S
C655 C646 1.390 . S
C655 H648 0.950 . S
C655 C652 1.387 . S
C656 C657 1.387 . S
C656 H660 0.950 . S
C656 C665 1.390 1_445 S
C657 C656 1.387 . S
C657 C659 1.387 . S
H658 C665 0.950 . S
C659 C657 1.387 . S
C659 C661 1.390 1_445 S
C659 H663 0.950 . S
H660 C656 0.950 . S
C661 C659 1.390 1_665 S
C661 C662 1.387 . S
C661 H664 0.950 . S
C662 C661 1.387 . S
C662 C665 1.387 . S
H663 C659 0.950 . S
H664 C661 0.950 . S
C665 C656 1.390 1_665 S
C665 H658 0.950 . S
C665 C662 1.387 . S
C666 C667 1.387 . S
C666 H670 0.950 . S
C666 C675 1.390 1_655 S
C667 C666 1.387 . S
C667 C669 1.387 . S
H668 C675 0.950 . S
C669 C667 1.387 . S
C669 C671 1.390 1_655 S
C669 H673 0.950 . S
H670 C666 0.950 . S
C671 C669 1.390 1_455 S
C671 C672 1.387 . S
C671 H674 0.950 . S
C672 C671 1.387 . S
C672 C675 1.387 . S
H673 C669 0.950 . S
H674 C671 0.950 . S
C675 C666 1.390 1_455 S
C675 H668 0.950 . S
C675 C672 1.387 . S
C676 C677 1.387 . S
C676 H680 0.950 . S
C676 C685 1.390 . S
C677 C676 1.387 . S
C677 C679 1.387 . S
H678 C685 0.950 . S
C679 C677 1.387 . S
C679 C681 1.390 . S
C679 H683 0.950 . S
H680 C676 0.950 . S
C681 C679 1.390 . S
C681 C682 1.387 . S
C681 H684 0.950 . S
C682 C681 1.387 . S
C682 C685 1.387 . S
H683 C679 0.950 . S
H684 C681 0.950 . S
C685 C676 1.390 . S
C685 H678 0.950 . S
C685 C682 1.387 . S
C686 C687 1.387 1_556 S
C686 H690 0.950 . S
C686 C695 1.390 1_565 S
C687 C686 1.387 1_554 S
C687 C689 1.387 . S
H688 C695 0.950 . S
C689 C687 1.387 . S
C689 C691 1.390 1_565 S
C689 H693 0.950 . S
H690 C686 0.950 . S
C691 C689 1.390 1_545 S
C691 C692 1.387 . S
C691 H694 0.950 . S
C692 C691 1.387 . S
C692 C695 1.387 1_554 S
H693 C689 0.950 . S
H694 C691 0.950 . S
C695 C686 1.390 1_545 S
C695 H688 0.950 . S
C695 C692 1.387 1_556 S
C696 C697 1.387 . S
C696 H700 0.950 . S
C696 C705 1.390 1_455 S
C697 C696 1.387 . S
C697 C699 1.387 1_554 S
H698 C705 0.950 . S
C699 C697 1.387 1_556 S
C699 C701 1.390 1_455 S
C699 H703 0.950 . S
H700 C696 0.950 . S
C701 C699 1.390 1_655 S
C701 C702 1.387 1_556 S
C701 H704 0.950 . S
C702 C701 1.387 1_554 S
C702 C705 1.387 . S
H703 C699 0.950 . S
H704 C701 0.950 . S
C705 C696 1.390 1_655 S
C705 H698 0.950 . S
C705 C702 1.387 . S
C706 C707 1.387 . S
C706 H710 0.950 . S
C706 C715 1.390 . S
C707 C706 1.387 . S
C707 C709 1.387 . S
H708 C715 0.950 . S
C709 C707 1.387 . S
C709 C711 1.390 . S
C709 H713 0.950 . S
H710 C706 0.950 . S
C711 C709 1.390 . S
C711 C712 1.387 . S
C711 H714 0.950 . S
C712 C711 1.387 . S
C712 C715 1.387 . S
H713 C709 0.950 . S
H714 C711 0.950 . S
C715 C706 1.390 . S
C715 H708 0.950 . S
C715 C712 1.387 . S
C716 C717 1.387 . S
C716 H720 0.950 . S
C716 C725 1.390 1_545 S
C717 C716 1.387 . S
C717 C719 1.387 . S
H718 C725 0.950 . S
C719 C717 1.387 . S
C719 C721 1.390 1_545 S
C719 H723 0.950 . S
H720 C716 0.950 . S
C721 C719 1.390 1_565 S
C721 C722 1.387 . S
C721 H724 0.950 . S
C722 C721 1.387 . S
C722 C725 1.387 . S
H723 C719 0.950 . S
H724 C721 0.950 . S
C725 C716 1.390 1_565 S
C725 H718 0.950 . S
C725 C722 1.387 . S
C726 C727 1.387 . S
C726 H730 0.950 . S
C726 C735 1.390 1_445 S
C727 C726 1.387 . S
C727 C729 1.387 . S
H728 C735 0.950 . S
C729 C727 1.387 . S
C729 C731 1.390 1_445 S
C729 H733 0.950 . S
H730 C726 0.950 . S
C731 C729 1.390 1_665 S
C731 C732 1.387 . S
C731 H734 0.950 . S
C732 C731 1.387 . S
C732 C735 1.387 . S
H733 C729 0.950 . S
H734 C731 0.950 . S
C735 C726 1.390 1_665 S
C735 H728 0.950 . S
C735 C732 1.387 . S
C736 C737 1.387 . S
C736 H740 0.950 . S
C736 C745 1.390 . S
C737 C736 1.387 . S
C737 C739 1.387 . S
H738 C745 0.950 . S
C739 C737 1.387 . S
C739 C741 1.390 . S
C739 H743 0.950 . S
H740 C736 0.950 . S
C741 C739 1.390 . S
C741 C742 1.387 . S
C741 H744 0.950 . S
C742 C741 1.387 . S
C742 C745 1.387 . S
H743 C739 0.950 . S
H744 C741 0.950 . S
C745 C736 1.390 . S
C745 H738 0.950 . S
C745 C742 1.387 . S
C746 C747 1.387 . S
C746 H750 0.950 . S
C746 C755 1.390 . S
C747 C746 1.387 . S
C747 C749 1.387 . S
H748 C755 0.950 . S
C749 C747 1.387 . S
C749 C751 1.390 . S
C749 H753 0.950 . S
H750 C746 0.950 . S
C751 C749 1.390 . S
C751 C752 1.387 . S
C751 H754 0.950 . S
C752 C751 1.387 . S
C752 C755 1.387 . S
H753 C749 0.950 . S
H754 C751 0.950 . S
C755 C746 1.390 . S
C755 H748 0.950 . S
C755 C752 1.387 . S
C756 C757 1.387 . S
C756 H760 0.950 . S
C756 C765 1.390 1_554 S
C757 C756 1.387 . S
C757 C759 1.387 . S
H758 C765 0.950 . S
C759 C757 1.387 . S
C759 C761 1.390 . S
C759 H763 0.950 . S
H760 C756 0.950 . S
C761 C759 1.390 . S
C761 C762 1.387 1_554 S
C761 H764 0.950 1_554 S
C762 C761 1.387 1_556 S
C762 C765 1.387 . S
H763 C759 0.950 . S
H764 C761 0.950 1_556 S
C765 C756 1.390 1_556 S
C765 H758 0.950 . S
C765 C762 1.387 . S
C766 C767 1.387 . S
C766 H770 0.950 . S
C766 C775 1.390 . S
C767 C766 1.387 . S
C767 C769 1.387 . S
H768 C775 0.950 . S
C769 C767 1.387 . S
C769 C771 1.390 . S
C769 H773 0.950 . S
H770 C766 0.950 . S
C771 C769 1.390 . S
C771 C772 1.387 . S
C771 H774 0.950 . S
C772 C771 1.387 . S
C772 C775 1.387 . S
H773 C769 0.950 . S
H774 C771 0.950 . S
C775 C766 1.390 . S
C775 H768 0.950 . S
C775 C772 1.387 . S
C776 C777 1.387 . S
C776 H780 0.950 . S
C776 C785 1.390 . S
C777 C776 1.387 . S
C777 C779 1.387 . S
H778 C785 0.950 . S
C779 C777 1.387 . S
C779 C781 1.390 . S
C779 H783 0.950 . S
H780 C776 0.950 . S
C781 C779 1.390 . S
C781 C782 1.387 . S
C781 H784 0.950 . S
C782 C781 1.387 . S
C782 C785 1.387 . S
H783 C779 0.950 . S
H784 C781 0.950 . S
C785 C776 1.390 . S
C785 H778 0.950 . S
C785 C782 1.387 . S
C786 C787 1.387 . S
C786 H790 0.950 . S
C786 C795 1.390 1_554 S
C787 C786 1.387 . S
C787 C789 1.387 . S
H788 C795 0.950 . S
C789 C787 1.387 . S
C789 C791 1.390 . S
C789 H793 0.950 . S
H790 C786 0.950 . S
C791 C789 1.390 . S
C791 C792 1.387 1_554 S
C791 H794 0.950 . S
C792 C791 1.387 1_556 S
C792 C795 1.387 . S
H793 C789 0.950 . S
H794 C791 0.950 . S
C795 C786 1.390 1_556 S
C795 H788 0.950 . S
C795 C792 1.387 . S
C796 C797 1.387 . S
C796 H800 0.950 . S
C796 C805 1.390 . S
C797 C796 1.387 . S
C797 C799 1.387 . S
H798 C805 0.950 . S
C799 C797 1.387 . S
C799 C801 1.390 . S
C799 H803 0.950 . S
H800 C796 0.950 . S
C801 C799 1.390 . S
C801 C802 1.387 . S
C801 H804 0.950 . S
C802 C801 1.387 . S
C802 C805 1.387 . S
H803 C799 0.950 . S
H804 C801 0.950 . S
C805 C796 1.390 . S
C805 H798 0.950 . S
C805 C802 1.387 . S
C806 C807 1.387 . S
C806 H810 0.950 . S
C806 C815 1.390 . S
C807 C806 1.387 . S
C807 C809 1.387 . S
H808 C815 0.950 . S
C809 C807 1.387 . S
C809 C811 1.390 . S
C809 H813 0.950 . S
H810 C806 0.950 . S
C811 C809 1.390 . S
C811 C812 1.387 . S
C811 H814 0.950 . S
C812 C811 1.387 . S
C812 C815 1.387 . S
H813 C809 0.950 . S
H814 C811 0.950 . S
C815 C806 1.390 . S
C815 H808 0.950 . S
C815 C812 1.387 . S
C816 C817 1.387 . S
C816 H820 0.950 . S
C816 C825 1.390 1_556 S
C817 C816 1.387 . S
C817 C819 1.389 . S
H818 C825 0.950 . S
C819 C817 1.389 . S
C819 C821 1.388 1_556 S
C819 H823 0.951 . S
H820 C816 0.950 . S
C821 C819 1.388 1_554 S
C821 C822 1.387 . S
C821 H824 0.950 . S
C822 C821 1.387 . S
C822 C825 1.387 . S
H823 C819 0.951 . S
H824 C821 0.950 . S
C825 C816 1.390 1_554 S
C825 H818 0.950 . S
C825 C822 1.387 . S
C826 C827 1.387 . S
C826 H830 0.950 . S
C826 C835 1.390 . S
C827 C826 1.387 . S
C827 C829 1.387 . S
H828 C835 0.950 . S
C829 C827 1.387 . S
C829 C831 1.390 . S
C829 H833 0.950 . S
H830 C826 0.950 . S
C831 C829 1.390 . S
C831 C832 1.387 . S
C831 H834 0.950 . S
C832 C831 1.387 . S
C832 C835 1.387 . S
H833 C829 0.950 . S
H834 C831 0.950 . S
C835 C826 1.390 . S
C835 H828 0.950 . S
C835 C832 1.387 . S
C836 C837 1.387 . S
C836 H840 0.950 . S
C836 C845 1.390 . S
C837 C836 1.387 . S
C837 C839 1.387 . S
H838 C845 0.950 . S
C839 C837 1.387 . S
C839 C841 1.390 . S
C839 H843 0.950 . S
H840 C836 0.950 . S
C841 C839 1.390 . S
C841 C842 1.387 . S
C841 H844 0.950 . S
C842 C841 1.387 . S
C842 C845 1.387 . S
H843 C839 0.950 . S
H844 C841 0.950 . S
C845 C836 1.390 . S
C845 H838 0.950 . S
C845 C842 1.387 . S
C846 C847 1.387 . S
C846 H850 0.950 . S
C846 C855 1.390 . S
C847 C846 1.387 . S
C847 C849 1.387 . S
H848 C855 0.950 . S
C849 C847 1.387 . S
C849 C851 1.390 . S
C849 H853 0.950 . S
H850 C846 0.950 . S
C851 C849 1.390 . S
C851 C852 1.387 . S
C851 H854 0.950 . S
C852 C851 1.387 . S
C852 C855 1.387 . S
H853 C849 0.950 . S
H854 C851 0.950 . S
C855 C846 1.390 . S
C855 H848 0.950 . S
C855 C852 1.387 . S
C856 C857 1.387 . S
C856 H860 0.950 . S
C856 C865 1.390 . S
C857 C856 1.387 . S
C857 C859 1.387 . S
H858 C865 0.950 . S
C859 C857 1.387 . S
C859 C861 1.390 . S
C859 H863 0.950 . S
H860 C856 0.950 . S
C861 C859 1.390 . S
C861 C862 1.387 . S
C861 H864 0.950 . S
C862 C861 1.387 . S
C862 C865 1.387 . S
H863 C859 0.950 . S
H864 C861 0.950 . S
C865 C856 1.390 . S
C865 H858 0.950 . S
C865 C862 1.387 . S
C866 C867 1.387 . S
C866 H870 0.950 . S
C866 C875 1.390 . S
C867 C866 1.387 . S
C867 C869 1.387 . S
H868 C875 0.950 . S
C869 C867 1.387 . S
C869 C871 1.390 . S
C869 H873 0.950 . S
H870 C866 0.950 . S
C871 C869 1.390 . S
C871 C872 1.387 . S
C871 H874 0.950 . S
C872 C871 1.387 . S
C872 C875 1.387 . S
H873 C869 0.950 . S
H874 C871 0.950 . S
C875 C866 1.390 . S
C875 H868 0.950 . S
C875 C872 1.387 . S
C876 C877 1.387 . S
C876 H880 0.950 . S
C876 C885 1.390 . S
C877 C876 1.387 . S
C877 C879 1.387 . S
H878 C885 0.950 . S
C879 C877 1.387 . S
C879 C881 1.390 . S
C879 H883 0.950 . S
H880 C876 0.950 . S
C881 C879 1.390 . S
C881 C882 1.387 . S
C881 H884 0.950 . S
C882 C881 1.387 . S
C882 C885 1.387 . S
H883 C879 0.950 . S
H884 C881 0.950 . S
C885 C876 1.390 . S
C885 H878 0.950 . S
C885 C882 1.387 . S
C886 C887 1.387 . S
C886 H890 0.950 . S
C886 C895 1.390 1_554 S
C887 C886 1.387 . S
C887 C889 1.387 . S
H888 C895 0.950 . S
C889 C887 1.387 . S
C889 C891 1.382 1_554 S
C889 H893 0.950 . S
H890 C886 0.950 . S
C891 C889 1.382 1_556 S
C891 C892 1.392 . S
C891 H894 0.954 . S
C892 C891 1.392 . S
C892 C895 1.387 . S
H893 C889 0.950 . S
H894 C891 0.954 . S
C895 C886 1.390 1_556 S
C895 H888 0.950 . S
C895 C892 1.387 . S
C577 C219 1.515 . S
C582 C3 1.515 . S
C587 C255 1.516 . S
C592 C39 1.516 . S
C597 C75 1.513 . S
C602 C147 1.513 . S
C607 C111 1.515 . S
C612 C183 1.515 . S
C617 C291 1.513 . S
C622 C507 1.513 . S
C627 C543 1.515 . S
C632 C327 1.515 . S
C637 C363 1.513 . S
C642 C435 1.513 . S
C647 C399 1.513 . S
C652 C471 1.513 . S
C657 C4 1.443 . S
C662 C364 1.443 . S
C667 C40 1.447 . S
C672 C400 1.447 . S
C677 C76 1.447 . S
C682 C292 1.447 . S
C687 C112 1.443 . S
C692 C328 1.443 . S
C697 C148 1.443 . S
C702 C508 1.443 . S
C707 C544 1.443 . S
C712 C184 1.443 . S
C717 C220 1.443 . S
C722 C436 1.443 . S
C727 C472 1.447 . S
C732 C256 1.447 . S
C737 C470 0.846 . S
C742 C2 0.843 . S
C747 C38 0.846 . S
C752 C506 0.844 . S
C757 C542 0.846 . S
C762 C74 0.844 . S
C767 C434 0.843 . S
C772 C110 0.845 . S
C777 C398 0.844 . S
C782 C146 0.841 . S
C787 C182 0.843 . S
C792 C290 0.840 . S
C797 C218 0.842 . S
C802 C326 0.844 . S
C807 C254 0.837 . S
C812 C362 0.840 . S
C817 C482 1.498 . S
C822 C14 1.495 . S
C827 C50 1.498 . S
C832 C518 1.496 . S
C837 C86 1.498 . S
C842 C554 1.496 . S
C847 C446 1.498 . S
C852 C122 1.497 . S
C857 C410 1.497 . S
C862 C158 1.497 . S
C867 C302 1.495 . S
C872 C194 1.498 . S
C877 C230 1.499 . S
C882 C338 1.496 . S
C887 C374 1.496 . S
C892 C266 1.498 . S
