# Generated by pormake.
# Topology umx, (4)-cn, num edge types: 1
# Building blocks:
#     Node 0, Type 0, BuildingBlock: QUQFOY_clean_sbu_3, # of connection points: 4
#     Node 1, Type 0, BuildingBlock: QUQFOY_clean_sbu_3, # of connection points: 4
#     Node 2, Type 0, BuildingBlock: QUQFOY_clean_sbu_3, # of connection points: 4
#     Node 3, Type 0, BuildingBlock: QUQFOY_clean_sbu_3, # of connection points: 4
#     Node 4, Type 0, BuildingBlock: QUQFOY_clean_sbu_3, # of connection points: 4
#     Node 5, Type 0, BuildingBlock: QUQFOY_clean_sbu_3, # of connection points: 4
#     Node 6, Type 0, BuildingBlock: QUQFOY_clean_sbu_3, # of connection points: 4
#     Node 7, Type 0, BuildingBlock: QUQFOY_clean_sbu_3, # of connection points: 4
#     Edge 8, Type (0, 0), BuildingBlock: KIFKEQ_clean_linker_1, # of connection points: 2
#     Edge 9, Type (0, 0), BuildingBlock: KIFKEQ_clean_linker_1, # of connection points: 2
#     Edge 10, Type (0, 0), BuildingBlock: KIFKEQ_clean_linker_1, # of connection points: 2
#     Edge 11, Type (0, 0), BuildingBlock: KIFKEQ_clean_linker_1, # of connection points: 2
#     Edge 12, Type (0, 0), BuildingBlock: KIFKEQ_clean_linker_1, # of connection points: 2
#     Edge 13, Type (0, 0), BuildingBlock: KIFKEQ_clean_linker_1, # of connection points: 2
#     Edge 14, Type (0, 0), BuildingBlock: KIFKEQ_clean_linker_1, # of connection points: 2
#     Edge 15, Type (0, 0), BuildingBlock: KIFKEQ_clean_linker_1, # of connection points: 2
#     Edge 16, Type (0, 0), BuildingBlock: KIFKEQ_clean_linker_1, # of connection points: 2
#     Edge 17, Type (0, 0), BuildingBlock: KIFKEQ_clean_linker_1, # of connection points: 2
#     Edge 18, Type (0, 0), BuildingBlock: KIFKEQ_clean_linker_1, # of connection points: 2
#     Edge 19, Type (0, 0), BuildingBlock: KIFKEQ_clean_linker_1, # of connection points: 2
#     Edge 20, Type (0, 0), BuildingBlock: KIFKEQ_clean_linker_1, # of connection points: 2
#     Edge 21, Type (0, 0), BuildingBlock: KIFKEQ_clean_linker_1, # of connection points: 2
#     Edge 22, Type (0, 0), BuildingBlock: KIFKEQ_clean_linker_1, # of connection points: 2
#     Edge 23, Type (0, 0), BuildingBlock: KIFKEQ_clean_linker_1, # of connection points: 2
# Relax obj value: 0.078
# Max RMSD: 0.191
# Mean RMSD: 0.191
data_MOF--net-umx--node1-QUQFOY_clean_sbu_3--edge1-KIFKEQ_clean_linker_1
_symmetry_space_group_name_H-M    P1
_symmetry_Int_Tables_number       1
_symmetry_cell_setting            triclinic
loop_
_symmetry_equiv_pos_as_xyz
'x, y, z'
_cell_length_a     42.126617
_cell_length_b     42.056299
_cell_length_c     30.218102
_cell_angle_alpha  89.78479
_cell_angle_beta   90.027037
_cell_angle_gamma 90.072798
loop_
_atom_site_label
_atom_site_type_symbol
_atom_site_fract_x
_atom_site_fract_y
_atom_site_fract_z
_atom_type_partial_charge
C0 C 0.18826 0.46913 0.89786 0.0
O1 O 0.18895 0.49421 0.9211 0.0
Cd2 Cd 0.17233 0.49372 -0.00245 0.0
O3 O 0.18085 0.44259 0.91547 0.0
Cd4 Cd 0.16699 0.41927 -0.01146 0.0
C5 C 0.09807 0.46067 -0.01595 0.0
O6 O 0.19822 0.45276 0.04033 0.0
O7 O 0.16287 0.42093 0.06781 0.0
O8 O 0.20626 0.38084 0.96501 0.0
C9 C 0.18494 0.44083 0.07443 0.0
O10 O 0.1155 0.48472 -0.00791 0.0
C11 C 0.19121 0.35626 -0.02255 0.0
O12 O 0.1102 0.43306 -0.02061 0.0
O13 O 0.1639 0.36056 -0.00565 0.0
C14 C 0.48182 0.18848 0.40314 0.0
O15 O 0.45721 0.1905 0.4272 0.0
Cd16 Cd 0.45891 0.17327 0.50374 0.0
O17 O 0.50835 0.18102 0.42042 0.0
Cd18 Cd 0.53314 0.17079 0.49329 0.0
C19 C 0.49505 0.10002 0.49124 0.0
O20 O 0.49904 0.2001 0.54585 0.0
O21 O 0.53203 0.16554 0.57269 0.0
O22 O 0.56546 0.21522 0.47198 0.0
C23 C 0.51146 0.18692 0.57969 0.0
O24 O 0.4707 0.11671 0.50027 0.0
C25 C 0.5923 0.20283 0.47993 0.0
O26 O 0.52196 0.11324 0.48432 0.0
O27 O 0.59231 0.17405 0.49328 0.0
C28 C 0.77089 0.49379 0.90192 0.0
O29 O 0.77013 0.46863 0.92522 0.0
Cd30 Cd 0.78715 0.46869 0.00146 0.0
O31 O 0.77859 0.5202 0.91939 0.0
Cd32 Cd 0.79302 0.5428 -0.00752 0.0
C33 C 0.8616 0.50102 -0.01281 0.0
O34 O 0.76146 0.50945 0.0444 0.0
O35 O 0.7976 0.54038 0.07164 0.0
O36 O 0.75415 0.58196 0.96946 0.0
C37 C 0.77501 0.52106 0.07839 0.0
O38 O 0.84406 0.47707 -0.00446 0.0
C39 C 0.76935 0.60618 -0.01734 0.0
O40 O 0.84963 0.52872 -0.01741 0.0
O41 O 0.79661 0.60137 -0.00053 0.0
C42 C 0.47901 0.76843 0.4111 0.0
O43 O 0.50407 0.7707 0.43424 0.0
Cd44 Cd 0.50389 0.7882 0.5103 0.0
O45 O 0.45203 0.77405 0.42833 0.0
Cd46 Cd 0.42979 0.78962 0.50109 0.0
C47 C 0.46815 0.86083 0.49624 0.0
O48 O 0.4645 0.76249 0.5552 0.0
O49 O 0.43333 0.79954 0.57949 0.0
O50 O 0.39394 0.74523 0.50253 0.0
C51 C 0.45287 0.7774 0.58802 0.0
O52 O 0.49266 0.84455 0.50589 0.0
C53 C 0.36832 0.76082 0.49961 0.0
O54 O 0.4414 0.8472 0.48973 0.0
O55 O 0.37057 0.79088 0.49561 0.0
C56 C 0.18853 0.47911 0.56462 0.0
O57 O 0.18728 0.45444 0.54058 0.0
Cd58 Cd 0.17131 0.4577 0.46363 0.0
O59 O 0.18321 0.50638 0.54787 0.0
Cd60 Cd 0.17115 0.53239 0.47631 0.0
C61 C 0.09944 0.4953 0.47843 0.0
O62 O 0.19907 0.49819 0.42265 0.0
O63 O 0.1658 0.5329 0.39687 0.0
O64 O 0.2164 0.56383 0.49598 0.0
C65 C 0.18634 0.51159 0.3892 0.0
O66 O 0.1154 0.47078 0.46786 0.0
C67 C 0.20392 0.59103 0.49107 0.0
O68 O 0.11338 0.52172 0.48636 0.0
O69 O 0.17478 0.59166 0.47971 0.0
C70 C 0.46649 0.18838 0.07004 0.0
O71 O 0.49118 0.19158 0.04634 0.0
Cd72 Cd 0.49108 0.1741 0.97013 0.0
O73 O 0.44057 0.17925 0.05255 0.0
Cd74 Cd 0.41744 0.16652 -0.02058 0.0
C75 C 0.46007 0.09861 -0.01639 0.0
O76 O 0.44981 0.19891 0.92737 0.0
O77 O 0.4199 0.16192 0.90015 0.0
O78 O 0.3788 0.20527 0.00371 0.0
C79 C 0.43866 0.18499 0.89338 0.0
O80 O 0.48344 0.11668 -0.02572 0.0
C81 C 0.3544 0.19031 -0.00936 0.0
O82 O 0.43244 0.11021 -0.01005 0.0
O83 O 0.35888 0.1632 -0.02682 0.0
C84 C 0.77103 0.48463 0.56898 0.0
O85 O 0.77223 0.50932 0.54473 0.0
Cd86 Cd 0.78806 0.50633 0.46782 0.0
O87 O 0.77657 0.45739 0.55256 0.0
Cd88 Cd 0.78924 0.4318 0.48119 0.0
C89 C 0.86048 0.46977 0.48216 0.0
O90 O 0.76035 0.46565 0.42749 0.0
O91 O 0.79417 0.43163 0.40179 0.0
O92 O 0.74513 0.39887 0.50204 0.0
C93 C 0.7731 0.45243 0.39408 0.0
O94 O 0.84419 0.49408 0.47142 0.0
C95 C 0.75802 0.37212 0.49511 0.0
O96 O 0.84688 0.44323 0.49066 0.0
O97 O 0.7869 0.37248 0.48263 0.0
C98 C 0.48991 0.77023 0.07855 0.0
O99 O 0.46522 0.77063 0.05445 0.0
Cd100 Cd 0.46692 0.78652 -0.02257 0.0
O101 O 0.51686 0.77721 0.0621 0.0
Cd102 Cd 0.54119 0.79252 -0.00949 0.0
C103 C 0.49902 0.86124 -0.00975 0.0
O104 O 0.50904 0.76079 0.93775 0.0
O105 O 0.54093 0.79642 0.9111 0.0
O106 O 0.58027 0.75405 0.01521 0.0
C107 C 0.52137 0.77414 0.90398 0.0
O108 O 0.47575 0.8435 -0.02044 0.0
C109 C 0.60453 0.76959 0.00286 0.0
O110 O 0.52611 0.84921 -0.00064 0.0
O111 O 0.59973 0.79689 -0.01411 0.0
H112 H 0.2141 0.49569 0.10225 0.0
H113 H 0.1739 0.40746 0.14981 0.0
H114 H 0.22121 0.51336 0.17899 0.0
H115 H 0.18117 0.42489 0.22587 0.0
H116 H 0.21535 0.45711 0.36035 0.0
H117 H 0.2221 0.43983 0.28353 0.0
H118 H 0.18051 0.52775 0.23766 0.0
H119 H 0.17364 0.5449 0.31398 0.0
C120 C 0.20736 0.47988 0.12904 0.0
C121 C 0.19322 0.45033 0.12009 0.0
C122 C 0.2113 0.49001 0.17286 0.0
C123 C 0.20171 0.4705 0.2084 0.0
C124 C 0.1891 0.44032 0.19928 0.0
C125 C 0.18471 0.43045 0.15566 0.0
C126 C 0.2081 0.47289 0.33381 0.0
C127 C 0.1937 0.50221 0.34318 0.0
C128 C 0.21189 0.46299 0.2899 0.0
C129 C 0.2018 0.48245 0.25461 0.0
C130 C 0.18882 0.51239 0.26407 0.0
C131 C 0.18464 0.52207 0.30784 0.0
H132 H 0.45654 0.21561 0.60734 0.0
H133 H 0.54429 0.17523 0.65539 0.0
H134 H 0.43842 0.22235 0.68388 0.0
H135 H 0.5264 0.18222 0.73141 0.0
H136 H 0.49251 0.21608 0.86583 0.0
H137 H 0.51051 0.2236 0.78923 0.0
H138 H 0.42401 0.18036 0.74179 0.0
H139 H 0.40628 0.17259 0.81779 0.0
C140 C 0.47215 0.20872 0.6342 0.0
C141 C 0.50168 0.19463 0.62542 0.0
C142 C 0.46177 0.2125 0.67792 0.0
C143 C 0.48102 0.2028 0.71358 0.0
C144 C 0.51119 0.19023 0.70469 0.0
C145 C 0.52131 0.18598 0.66112 0.0
C146 C 0.47718 0.20873 0.83895 0.0
C147 C 0.44813 0.19352 0.84773 0.0
C148 C 0.4875 0.21292 0.79521 0.0
C149 C 0.46865 0.20254 0.75958 0.0
C150 C 0.4389 0.18889 0.76848 0.0
C151 C 0.42887 0.18422 0.81205 0.0
H152 H 0.78483 0.41848 0.31958 0.0
H153 H 0.74393 0.50678 0.36444 0.0
H154 H 0.77761 0.43519 0.24297 0.0
H155 H 0.73686 0.52366 0.28728 0.0
H156 H 0.78619 0.5547 0.15312 0.0
H157 H 0.77822 0.53784 0.22946 0.0
H158 H 0.73689 0.44981 0.18403 0.0
H159 H 0.74468 0.46692 0.107 0.0
C160 C 0.7739 0.44132 0.31303 0.0
C161 C 0.76523 0.46147 0.34801 0.0
C162 C 0.76951 0.45075 0.26911 0.0
C163 C 0.75672 0.48074 0.25913 0.0
C164 C 0.74691 0.50046 0.29407 0.0
C165 C 0.75088 0.49079 0.33816 0.0
C166 C 0.77494 0.53194 0.15935 0.0
C167 C 0.76629 0.51198 0.12412 0.0
C168 C 0.77014 0.52241 0.20312 0.0
C169 C 0.75698 0.4925 0.21273 0.0
C170 C 0.7472 0.47296 0.17751 0.0
C171 C 0.75155 0.48276 0.13352 0.0
H172 H 0.46564 0.74766 0.87481 0.0
H173 H 0.55614 0.7835 0.82966 0.0
H174 H 0.4483 0.74211 0.79762 0.0
H175 H 0.53906 0.77762 0.75306 0.0
H176 H 0.50507 0.74479 0.61774 0.0
H177 H 0.52164 0.73694 0.69484 0.0
H178 H 0.43739 0.78557 0.73937 0.0
H179 H 0.42104 0.79371 0.66277 0.0
C180 C 0.48201 0.75367 0.84844 0.0
C181 C 0.51212 0.76623 0.85815 0.0
C182 C 0.47208 0.75064 0.80438 0.0
C183 C 0.49234 0.7595 0.7694 0.0
C184 C 0.52305 0.77034 0.77926 0.0
C185 C 0.53273 0.7739 0.82313 0.0
C186 C 0.48996 0.75345 0.64406 0.0
C187 C 0.46193 0.77012 0.63425 0.0
C188 C 0.49944 0.749 0.68809 0.0
C189 C 0.48075 0.76059 0.72305 0.0
C190 C 0.45208 0.77606 0.71317 0.0
C191 C 0.44289 0.78097 0.66927 0.0
H192 H 0.74728 0.43927 0.62459 0.0
H193 H 0.7818 0.53592 0.62217 0.0
H194 H 0.74171 0.44192 0.70464 0.0
H195 H 0.77819 0.53814 0.70245 0.0
H196 H 0.75343 0.54219 0.84643 0.0
H197 H 0.74799 0.54059 0.76622 0.0
H198 H 0.77222 0.44064 0.76796 0.0
H199 H 0.7757 0.44204 0.84814 0.0
C200 C 0.7537 0.46112 0.64127 0.0
C201 C 0.76508 0.48736 0.61711 0.0
C202 C 0.75078 0.46259 0.68731 0.0
C203 C 0.75987 0.49011 0.71056 0.0
C204 C 0.77045 0.51666 0.68603 0.0
C205 C 0.77272 0.51539 0.63986 0.0
C206 C 0.75716 0.51981 0.8296 0.0
C207 C 0.76503 0.49225 0.85362 0.0
C208 C 0.75432 0.51891 0.78347 0.0
C209 C 0.75993 0.49056 0.76008 0.0
C210 C 0.76712 0.46285 0.78447 0.0
C211 C 0.76932 0.46363 0.83063 0.0
H212 H 0.43794 0.77723 0.13165 0.0
H213 H 0.53631 0.74874 0.13412 0.0
H214 H 0.43555 0.77263 0.21183 0.0
H215 H 0.53361 0.74219 0.2141 0.0
H216 H 0.53065 0.77604 0.35762 0.0
H217 H 0.53272 0.7725 0.27755 0.0
H218 H 0.43469 0.74174 0.27542 0.0
H219 H 0.43229 0.74716 0.3556 0.0
C220 C 0.45887 0.76926 0.14931 0.0
C221 C 0.48738 0.76363 0.12661 0.0
C222 C 0.4575 0.76641 0.19543 0.0
C223 C 0.48447 0.75725 0.21997 0.0
C224 C 0.51256 0.75012 0.19676 0.0
C225 C 0.51408 0.75361 0.15076 0.0
C226 C 0.50965 0.76816 0.34009 0.0
C227 C 0.48126 0.76208 0.36298 0.0
C228 C 0.51084 0.76593 0.29397 0.0
C229 C 0.48381 0.75697 0.26948 0.0
C230 C 0.4558 0.74946 0.29277 0.0
C231 C 0.45447 0.75228 0.33887 0.0
H232 H 0.18288 0.521 0.8438 0.0
H233 H 0.20597 0.42105 0.84256 0.0
H234 H 0.18629 0.52266 0.76357 0.0
H235 H 0.21131 0.42291 0.76234 0.0
H236 H 0.17783 0.42765 0.61813 0.0
H237 H 0.18114 0.42531 0.69845 0.0
H238 H 0.2169 0.52179 0.70032 0.0
H239 H 0.21167 0.52454 0.6202 0.0
C240 C 0.1894 0.49951 0.82638 0.0
C241 C 0.19396 0.47087 0.84952 0.0
C242 C 0.19156 0.50045 0.7802 0.0
C243 C 0.19896 0.47287 0.75594 0.0
C244 C 0.20481 0.44449 0.77948 0.0
C245 C 0.20202 0.44345 0.82561 0.0
C246 C 0.18669 0.44822 0.63575 0.0
C247 C 0.19425 0.47634 0.61286 0.0
C248 C 0.18878 0.44688 0.68195 0.0
C249 C 0.19909 0.47346 0.70641 0.0
C250 C 0.20805 0.50109 0.68305 0.0
C251 C 0.20533 0.50262 0.63697 0.0
H252 H 0.52836 0.17915 0.34167 0.0
H253 H 0.43059 0.20869 0.35434 0.0
H254 H 0.5242 0.18288 0.26171 0.0
H255 H 0.42672 0.21353 0.27402 0.0
H256 H 0.42033 0.17613 0.13126 0.0
H257 H 0.42406 0.17983 0.21126 0.0
H258 H 0.51944 0.21686 0.19923 0.0
H259 H 0.51607 0.21206 0.11894 0.0
C260 C 0.50606 0.18691 0.32744 0.0
C261 C 0.47973 0.1934 0.35454 0.0
C262 C 0.50374 0.18929 0.28142 0.0
C263 C 0.4751 0.19845 0.26117 0.0
C264 C 0.44901 0.20588 0.28836 0.0
C265 C 0.45127 0.20329 0.33448 0.0
C266 C 0.44205 0.18531 0.14557 0.0
C267 C 0.468 0.19356 0.11858 0.0
C268 C 0.44411 0.18765 0.19161 0.0
C269 C 0.47211 0.19853 0.21195 0.0
C270 C 0.4977 0.20783 0.18483 0.0
C271 C 0.49571 0.20527 0.13873 0.0
H272 H 0.89154 0.44661 0.963 0.0
H273 H 0.90977 0.5436 0.00182 0.0
H274 H 0.9482 0.43665 0.95844 0.0
H275 H 0.96671 0.53329 -0.00013 0.0
H276 H 0.06761 0.51469 0.95902 0.0
H277 H 0.01086 0.5245 0.95607 0.0
H278 H -0.00669 0.42819 0.00066 0.0
H279 H 0.05031 0.418 0.00098 0.0
C280 C 0.90776 0.46579 0.97087 0.0
C281 C 0.89621 0.4959 -0.01716 0.0
C282 C 0.94035 0.46 0.96862 0.0
C283 C 0.96235 0.48399 -0.02086 0.0
C284 C 0.95068 0.51427 -0.00923 0.0
C285 C 0.91799 0.52024 -0.00786 0.0
C286 C 0.05157 0.49554 0.96789 0.0
C287 C 0.0634 0.46557 -0.01968 0.0
C288 C 0.01895 0.50125 0.96658 0.0
C289 C -0.0028 0.47733 -0.02145 0.0
C290 C 0.00913 0.44714 -0.0095 0.0
C291 C 0.04186 0.44125 -0.00907 0.0
H292 H 0.42392 0.90493 0.46871 0.0
H293 H 0.52041 0.89633 0.51591 0.0
H294 H 0.43067 0.96258 0.46345 0.0
H295 H 0.52678 0.95351 0.5119 0.0
H296 H 0.53892 0.05529 0.46538 0.0
H297 H 0.5319 -0.00235 0.46253 0.0
H298 H 0.43584 0.00791 0.51046 0.0
H299 H 0.44248 0.06516 0.51206 0.0
C300 C 0.44648 0.91528 0.47809 0.0
C301 C 0.47155 0.89592 0.49276 0.0
C302 C 0.45036 0.94835 0.47523 0.0
C303 C 0.47934 0.96278 0.48718 0.0
C304 C 0.50435 0.9433 0.50162 0.0
C305 C 0.50054 0.91039 0.50427 0.0
C306 C 0.5163 0.04521 0.47516 0.0
C307 C 0.49135 0.06493 0.48904 0.0
C308 C 0.51227 0.01215 0.47369 0.0
C309 C 0.48326 -0.00197 0.4863 0.0
C310 C 0.4583 0.01785 0.49979 0.0
C311 C 0.46226 0.0508 0.50105 0.0
H312 H 0.06362 0.44331 0.45834 0.0
H313 H 0.05569 0.53977 0.50596 0.0
H314 H 0.00652 0.43721 0.46233 0.0
H315 H -0.00191 0.53329 0.51104 0.0
H316 H 0.8957 0.52211 0.46111 0.0
H317 H 0.95286 0.52842 0.46319 0.0
H318 H 0.96247 0.43224 0.51212 0.0
H319 H 0.90485 0.42555 0.50893 0.0
C320 C 0.04973 0.46324 0.47001 0.0
C321 C 0.06438 0.49215 0.48167 0.0
C322 C 0.01686 0.45957 0.47266 0.0
C323 C -0.00241 0.48465 0.48718 0.0
C324 C 0.01218 0.51355 0.49923 0.0
C325 C 0.04521 0.51727 0.49646 0.0
C326 C 0.90988 0.50221 0.47245 0.0
C327 C 0.89555 0.4732 0.48466 0.0
C328 C 0.94278 0.506 0.47399 0.0
C329 C 0.96239 0.48092 0.48791 0.0
C330 C 0.94811 0.45196 0.50069 0.0
C331 C 0.91506 0.44813 0.49902 0.0
H332 H 0.54038 0.90806 0.01751 0.0
H333 H 0.44563 0.89359 0.96637 0.0
H334 H 0.5308 0.96538 0.01943 0.0
H335 H 0.43648 0.95044 0.96717 0.0
H336 H 0.41828 0.0519 0.00972 0.0
H337 H 0.42819 -0.00517 0.01501 0.0
H338 H 0.52438 0.00964 0.96973 0.0
H339 H 0.51482 0.06648 0.96563 0.0
C340 C 0.51759 0.91705 0.00658 0.0
C341 C 0.49383 0.89614 -0.00821 0.0
C342 C 0.51212 0.94991 0.00751 0.0
C343 C 0.4828 0.96259 -0.00646 0.0
C344 C 0.4591 0.94159 -0.02106 0.0
C345 C 0.46451 0.90887 -0.02183 0.0
C346 C 0.44155 0.04297 0.00101 0.0
C347 C 0.46567 0.06383 -0.01287 0.0
C348 C 0.44723 0.01022 0.00388 0.0
C349 C 0.47712 -0.00244 -0.00726 0.0
C350 C 0.50126 0.01851 -0.02076 0.0
C351 C 0.49564 0.05118 -0.02345 0.0
H352 H 0.18505 0.30708 0.03611 0.0
H353 H 0.23273 0.33503 0.91567 0.0
H354 H 0.21874 0.25952 0.04072 0.0
H355 H 0.26542 0.28708 0.91946 0.0
H356 H 0.30678 0.18637 0.92965 0.0
H357 H 0.25994 0.22097 0.92459 0.0
H358 H 0.28465 0.26348 0.04967 0.0
H359 H 0.33194 0.22992 0.05395 0.0
C360 C 0.20194 0.30248 0.00989 0.0
C361 C 0.20643 0.3247 -0.02439 0.0
C362 C 0.2212 0.2754 0.01261 0.0
C363 C 0.24449 0.2697 -0.01966 0.0
C364 C 0.24738 0.29079 0.94445 0.0
C365 C 0.2288 0.31824 0.9424 0.0
C366 C 0.30165 0.20249 0.95659 0.0
C367 C 0.32292 0.2056 -0.00785 0.0
C368 C 0.27499 0.22228 0.95361 0.0
C369 C 0.26876 0.24471 -0.01317 0.0
C370 C 0.28878 0.24612 0.02391 0.0
C371 C 0.31585 0.22703 0.02626 0.0
H372 H 0.69927 0.36613 0.53047 0.0
H373 H 0.77281 0.31164 0.46618 0.0
H374 H 0.6633 0.32118 0.52501 0.0
H375 H 0.7362 0.26604 0.46105 0.0
H376 H 0.65255 0.18957 0.51121 0.0
H377 H 0.69732 0.22716 0.51641 0.0
H378 H 0.64185 0.29809 0.44796 0.0
H379 H 0.59773 0.26114 0.44243 0.0
C380 C 0.70797 0.34437 0.51574 0.0
C381 C 0.7388 0.34264 0.49817 0.0
C382 C 0.6873 0.31864 0.51261 0.0
C383 C 0.69687 0.2904 0.49202 0.0
C384 C 0.72832 0.28765 0.47702 0.0
C385 C 0.74918 0.31369 0.47996 0.0
C386 C 0.65027 0.21297 0.49646 0.0
C387 C 0.62144 0.22254 0.47698 0.0
C388 C 0.67584 0.23439 0.49945 0.0
C389 C 0.67272 0.26559 0.48319 0.0
C390 C 0.64466 0.27431 0.46133 0.0
C391 C 0.6194 0.25307 0.45816 0.0
H392 H 0.77492 0.65326 0.04408 0.0
H393 H 0.72844 0.62949 0.92124 0.0
H394 H 0.74081 0.70032 0.05107 0.0
H395 H 0.69534 0.67701 0.92742 0.0
H396 H 0.65277 0.77667 0.94342 0.0
H397 H 0.70014 0.74299 0.93709 0.0
H398 H 0.67474 0.69512 0.05853 0.0
H399 H 0.62694 0.72782 0.06404 0.0
C400 C 0.75824 0.65874 0.01785 0.0
C401 C 0.75419 0.63779 -0.01783 0.0
C402 C 0.73873 0.68553 0.02194 0.0
C403 C 0.71563 0.69222 -0.01031 0.0
C404 C 0.71323 0.67252 0.95245 0.0
C405 C 0.73205 0.64532 0.949 0.0
C406 C 0.65784 0.75957 0.96936 0.0
C407 C 0.63623 0.75472 0.00416 0.0
C408 C 0.68481 0.7403 0.96564 0.0
C409 C 0.69101 0.71663 -0.00259 0.0
C410 C 0.67063 0.71345 0.0339 0.0
C411 C 0.64327 0.73205 0.03695 0.0
H412 H 0.31785 0.7599 0.44197 0.0
H413 H 0.35095 0.72321 0.56711 0.0
H414 H 0.27326 0.72207 0.44374 0.0
H415 H 0.30605 0.68683 0.57028 0.0
H416 H 0.26368 0.59395 0.52344 0.0
H417 H 0.29834 0.63947 0.5288 0.0
H418 H 0.22394 0.70016 0.47808 0.0
H419 H 0.18883 0.65358 0.47168 0.0
C420 C 0.31489 0.74449 0.47048 0.0
C421 C 0.3378 0.74406 0.50421 0.0
C422 C 0.2894 0.72289 0.47161 0.0
C423 C 0.28648 0.70091 0.50671 0.0
C424 C 0.30805 0.70275 0.54215 0.0
C425 C 0.33364 0.72373 0.54057 0.0
C426 C 0.25442 0.61695 0.5137 0.0
C427 C 0.22343 0.62007 0.49713 0.0
C428 C 0.27431 0.64325 0.51715 0.0
C429 C 0.26388 0.67366 0.50437 0.0
C430 C 0.23271 0.67705 0.48814 0.0
C431 C 0.21257 0.65046 0.48473 0.0
loop_
_geom_bond_atom_site_label_1
_geom_bond_atom_site_label_2
_geom_bond_distance
_geom_bond_site_symmetry_2
_ccdc_geom_bond_type
C0 O1 1.306 . S
C0 O3 1.160 . S
O1 C0 1.306 . S
O1 Cd2 2.228 1_556 S
Cd2 O1 2.228 1_554 S
Cd2 O6 2.273 . S
Cd2 O10 2.277 . S
O3 C0 1.160 . S
O3 Cd4 2.203 1_556 S
Cd4 O3 2.203 1_554 S
Cd4 O6 2.411 . S
Cd4 O7 2.333 . S
Cd4 O8 2.352 . S
Cd4 O12 2.277 . S
Cd4 O13 2.356 . S
C5 O10 1.209 . S
C5 O12 1.226 . S
O6 Cd2 2.273 . S
O6 Cd4 2.411 . S
O6 C9 1.320 . S
O7 Cd4 2.333 . S
O7 C9 1.214 . S
O8 Cd4 2.352 . S
O8 C11 1.258 . S
C9 O6 1.320 . S
C9 O7 1.214 . S
O10 Cd2 2.277 . S
O10 C5 1.209 . S
C11 O8 1.258 . S
C11 O13 1.282 . S
O12 Cd4 2.277 . S
O12 C5 1.226 . S
O13 Cd4 2.356 . S
O13 C11 1.282 . S
C14 O15 1.306 . S
C14 O17 1.160 . S
O15 C14 1.306 . S
O15 Cd16 2.228 . S
Cd16 O15 2.228 . S
Cd16 O20 2.273 . S
Cd16 O24 2.277 . S
O17 C14 1.160 . S
O17 Cd18 2.203 . S
Cd18 O17 2.203 . S
Cd18 O20 2.411 . S
Cd18 O21 2.333 . S
Cd18 O22 2.352 . S
Cd18 O26 2.277 . S
Cd18 O27 2.356 . S
C19 O24 1.209 . S
C19 O26 1.226 . S
O20 Cd16 2.273 . S
O20 Cd18 2.411 . S
O20 C23 1.320 . S
O21 Cd18 2.333 . S
O21 C23 1.214 . S
O22 Cd18 2.352 . S
O22 C25 1.258 . S
C23 O20 1.320 . S
C23 O21 1.214 . S
O24 Cd16 2.277 . S
O24 C19 1.209 . S
C25 O22 1.258 . S
C25 O27 1.282 . S
O26 Cd18 2.277 . S
O26 C19 1.226 . S
O27 Cd18 2.356 . S
O27 C25 1.282 . S
C28 O29 1.306 . S
C28 O31 1.160 . S
O29 C28 1.306 . S
O29 Cd30 2.228 1_556 S
Cd30 O29 2.228 1_554 S
Cd30 O34 2.273 . S
Cd30 O38 2.277 . S
O31 C28 1.160 . S
O31 Cd32 2.203 1_556 S
Cd32 O31 2.203 1_554 S
Cd32 O34 2.411 . S
Cd32 O35 2.333 . S
Cd32 O36 2.352 . S
Cd32 O40 2.277 . S
Cd32 O41 2.356 . S
C33 O38 1.209 . S
C33 O40 1.226 . S
O34 Cd30 2.273 . S
O34 Cd32 2.411 . S
O34 C37 1.320 . S
O35 Cd32 2.333 . S
O35 C37 1.214 . S
O36 Cd32 2.352 . S
O36 C39 1.258 . S
C37 O34 1.320 . S
C37 O35 1.214 . S
O38 Cd30 2.277 . S
O38 C33 1.209 . S
C39 O36 1.258 . S
C39 O41 1.282 . S
O40 Cd32 2.277 . S
O40 C33 1.226 . S
O41 Cd32 2.356 . S
O41 C39 1.282 . S
C42 O43 1.306 . S
C42 O45 1.160 . S
O43 C42 1.306 . S
O43 Cd44 2.228 . S
Cd44 O43 2.228 . S
Cd44 O48 2.273 . S
Cd44 O52 2.277 . S
O45 C42 1.160 . S
O45 Cd46 2.203 . S
Cd46 O45 2.203 . S
Cd46 O48 2.411 . S
Cd46 O49 2.333 . S
Cd46 O50 2.352 . S
Cd46 O54 2.277 . S
Cd46 O55 2.356 . S
C47 O52 1.209 . S
C47 O54 1.226 . S
O48 Cd44 2.273 . S
O48 Cd46 2.411 . S
O48 C51 1.320 . S
O49 Cd46 2.333 . S
O49 C51 1.214 . S
O50 Cd46 2.352 . S
O50 C53 1.258 . S
C51 O48 1.320 . S
C51 O49 1.214 . S
O52 Cd44 2.277 . S
O52 C47 1.209 . S
C53 O50 1.258 . S
C53 O55 1.282 . S
O54 Cd46 2.277 . S
O54 C47 1.226 . S
O55 Cd46 2.356 . S
O55 C53 1.282 . S
C56 O57 1.306 . S
C56 O59 1.160 . S
O57 C56 1.306 . S
O57 Cd58 2.228 . S
Cd58 O57 2.228 . S
Cd58 O62 2.273 . S
Cd58 O66 2.277 . S
O59 C56 1.160 . S
O59 Cd60 2.203 . S
Cd60 O59 2.203 . S
Cd60 O62 2.411 . S
Cd60 O63 2.333 . S
Cd60 O64 2.352 . S
Cd60 O68 2.277 . S
Cd60 O69 2.356 . S
C61 O66 1.209 . S
C61 O68 1.226 . S
O62 Cd58 2.273 . S
O62 Cd60 2.411 . S
O62 C65 1.320 . S
O63 Cd60 2.333 . S
O63 C65 1.214 . S
O64 Cd60 2.352 . S
O64 C67 1.258 . S
C65 O62 1.320 . S
C65 O63 1.214 . S
O66 Cd58 2.277 . S
O66 C61 1.209 . S
C67 O64 1.258 . S
C67 O69 1.282 . S
O68 Cd60 2.277 . S
O68 C61 1.226 . S
O69 Cd60 2.356 . S
O69 C67 1.282 . S
C70 O71 1.306 . S
C70 O73 1.160 . S
O71 C70 1.306 . S
O71 Cd72 2.228 . S
Cd72 O71 2.228 . S
Cd72 O76 2.273 1_554 S
Cd72 O80 2.277 . S
O73 C70 1.160 . S
O73 Cd74 2.203 . S
Cd74 O73 2.203 . S
Cd74 O76 2.411 1_554 S
Cd74 O77 2.333 1_554 S
Cd74 O78 2.352 . S
Cd74 O82 2.277 . S
Cd74 O83 2.356 . S
C75 O80 1.209 . S
C75 O82 1.226 . S
O76 Cd72 2.273 1_556 S
O76 Cd74 2.411 1_556 S
O76 C79 1.320 . S
O77 Cd74 2.333 1_556 S
O77 C79 1.214 . S
O78 Cd74 2.352 . S
O78 C81 1.258 . S
C79 O76 1.320 . S
C79 O77 1.214 . S
O80 Cd72 2.277 . S
O80 C75 1.209 . S
C81 O78 1.258 . S
C81 O83 1.282 . S
O82 Cd74 2.277 . S
O82 C75 1.226 . S
O83 Cd74 2.356 . S
O83 C81 1.282 . S
C84 O85 1.306 . S
C84 O87 1.160 . S
O85 C84 1.306 . S
O85 Cd86 2.228 . S
Cd86 O85 2.228 . S
Cd86 O90 2.273 . S
Cd86 O94 2.277 . S
O87 C84 1.160 . S
O87 Cd88 2.203 . S
Cd88 O87 2.203 . S
Cd88 O90 2.411 . S
Cd88 O91 2.333 . S
Cd88 O92 2.352 . S
Cd88 O96 2.277 . S
Cd88 O97 2.356 . S
C89 O94 1.209 . S
C89 O96 1.226 . S
O90 Cd86 2.273 . S
O90 Cd88 2.411 . S
O90 C93 1.320 . S
O91 Cd88 2.333 . S
O91 C93 1.214 . S
O92 Cd88 2.352 . S
O92 C95 1.258 . S
C93 O90 1.320 . S
C93 O91 1.214 . S
O94 Cd86 2.277 . S
O94 C89 1.209 . S
C95 O92 1.258 . S
C95 O97 1.282 . S
O96 Cd88 2.277 . S
O96 C89 1.226 . S
O97 Cd88 2.356 . S
O97 C95 1.282 . S
C98 O99 1.306 . S
C98 O101 1.160 . S
O99 C98 1.306 . S
O99 Cd100 2.228 . S
Cd100 O99 2.228 . S
Cd100 O104 2.273 1_554 S
Cd100 O108 2.277 . S
O101 C98 1.160 . S
O101 Cd102 2.203 . S
Cd102 O101 2.203 . S
Cd102 O104 2.411 1_554 S
Cd102 O105 2.333 1_554 S
Cd102 O106 2.352 . S
Cd102 O110 2.277 . S
Cd102 O111 2.356 . S
C103 O108 1.209 . S
C103 O110 1.226 . S
O104 Cd100 2.273 1_556 S
O104 Cd102 2.411 1_556 S
O104 C107 1.320 . S
O105 Cd102 2.333 1_556 S
O105 C107 1.214 . S
O106 Cd102 2.352 . S
O106 C109 1.258 . S
C107 O104 1.320 . S
C107 O105 1.214 . S
O108 Cd100 2.277 . S
O108 C103 1.209 . S
C109 O106 1.258 . S
C109 O111 1.282 . S
O110 Cd102 2.277 . S
O110 C103 1.226 . S
O111 Cd102 2.356 . S
O111 C109 1.282 . S
H112 C120 0.950 . S
H113 C125 0.950 . S
H114 C122 0.950 . S
H115 C124 0.950 . S
H116 C126 0.950 . S
H117 C128 0.950 . S
H118 C130 0.950 . S
H119 C131 0.950 . S
C120 H112 0.950 . S
C120 C121 1.386 . S
C120 C122 1.391 . S
C121 C120 1.386 . S
C121 C125 1.393 . S
C122 H114 0.950 . S
C122 C120 1.391 . S
C122 C123 1.400 . S
C123 C122 1.400 . S
C123 C124 1.398 . S
C123 C129 1.491 . S
C124 H115 0.950 . S
C124 C123 1.398 . S
C124 C125 1.391 . S
C125 H113 0.950 . S
C125 C121 1.393 . S
C125 C124 1.391 . S
C126 H116 0.950 . S
C126 C127 1.386 . S
C126 C128 1.391 . S
C127 C126 1.386 . S
C127 C131 1.393 . S
C128 H117 0.950 . S
C128 C126 1.391 . S
C128 C129 1.400 . S
C129 C123 1.491 . S
C129 C128 1.400 . S
C129 C130 1.398 . S
C130 H118 0.950 . S
C130 C129 1.398 . S
C130 C131 1.391 . S
C131 H119 0.950 . S
C131 C127 1.393 . S
C131 C130 1.391 . S
H132 C140 0.950 . S
H133 C145 0.950 . S
H134 C142 0.950 . S
H135 C144 0.950 . S
H136 C146 0.950 . S
H137 C148 0.950 . S
H138 C150 0.950 . S
H139 C151 0.950 . S
C140 H132 0.950 . S
C140 C141 1.386 . S
C140 C142 1.391 . S
C141 C140 1.386 . S
C141 C145 1.393 . S
C142 H134 0.950 . S
C142 C140 1.391 . S
C142 C143 1.400 . S
C143 C142 1.400 . S
C143 C144 1.398 . S
C143 C149 1.491 . S
C144 H135 0.950 . S
C144 C143 1.398 . S
C144 C145 1.391 . S
C145 H133 0.950 . S
C145 C141 1.393 . S
C145 C144 1.391 . S
C146 H136 0.950 . S
C146 C147 1.386 . S
C146 C148 1.391 . S
C147 C146 1.386 . S
C147 C151 1.393 . S
C148 H137 0.950 . S
C148 C146 1.391 . S
C148 C149 1.400 . S
C149 C143 1.491 . S
C149 C148 1.400 . S
C149 C150 1.398 . S
C150 H138 0.950 . S
C150 C149 1.398 . S
C150 C151 1.391 . S
C151 H139 0.950 . S
C151 C147 1.393 . S
C151 C150 1.391 . S
H152 C160 0.950 . S
H153 C165 0.950 . S
H154 C162 0.950 . S
H155 C164 0.950 . S
H156 C166 0.950 . S
H157 C168 0.950 . S
H158 C170 0.950 . S
H159 C171 0.950 . S
C160 H152 0.950 . S
C160 C161 1.386 . S
C160 C162 1.391 . S
C161 C160 1.386 . S
C161 C165 1.393 . S
C162 H154 0.950 . S
C162 C160 1.391 . S
C162 C163 1.400 . S
C163 C162 1.400 . S
C163 C164 1.398 . S
C163 C169 1.491 . S
C164 H155 0.950 . S
C164 C163 1.398 . S
C164 C165 1.391 . S
C165 H153 0.950 . S
C165 C161 1.393 . S
C165 C164 1.391 . S
C166 H156 0.950 . S
C166 C167 1.386 . S
C166 C168 1.391 . S
C167 C166 1.386 . S
C167 C171 1.393 . S
C168 H157 0.950 . S
C168 C166 1.391 . S
C168 C169 1.400 . S
C169 C163 1.491 . S
C169 C168 1.400 . S
C169 C170 1.398 . S
C170 H158 0.950 . S
C170 C169 1.398 . S
C170 C171 1.391 . S
C171 H159 0.950 . S
C171 C167 1.393 . S
C171 C170 1.391 . S
H172 C180 0.950 . S
H173 C185 0.950 . S
H174 C182 0.950 . S
H175 C184 0.950 . S
H176 C186 0.950 . S
H177 C188 0.950 . S
H178 C190 0.950 . S
H179 C191 0.950 . S
C180 H172 0.950 . S
C180 C181 1.386 . S
C180 C182 1.391 . S
C181 C180 1.386 . S
C181 C185 1.393 . S
C182 H174 0.950 . S
C182 C180 1.391 . S
C182 C183 1.400 . S
C183 C182 1.400 . S
C183 C184 1.398 . S
C183 C189 1.491 . S
C184 H175 0.950 . S
C184 C183 1.398 . S
C184 C185 1.391 . S
C185 H173 0.950 . S
C185 C181 1.393 . S
C185 C184 1.391 . S
C186 H176 0.950 . S
C186 C187 1.386 . S
C186 C188 1.391 . S
C187 C186 1.386 . S
C187 C191 1.393 . S
C188 H177 0.950 . S
C188 C186 1.391 . S
C188 C189 1.400 . S
C189 C183 1.491 . S
C189 C188 1.400 . S
C189 C190 1.398 . S
C190 H178 0.950 . S
C190 C189 1.398 . S
C190 C191 1.391 . S
C191 H179 0.950 . S
C191 C187 1.393 . S
C191 C190 1.391 . S
H192 C200 0.950 . S
H193 C205 0.950 . S
H194 C202 0.950 . S
H195 C204 0.950 . S
H196 C206 0.950 . S
H197 C208 0.950 . S
H198 C210 0.950 . S
H199 C211 0.950 . S
C200 H192 0.950 . S
C200 C201 1.386 . S
C200 C202 1.391 . S
C201 C200 1.386 . S
C201 C205 1.393 . S
C202 H194 0.950 . S
C202 C200 1.391 . S
C202 C203 1.400 . S
C203 C202 1.400 . S
C203 C204 1.398 . S
C203 C209 1.491 . S
C204 H195 0.950 . S
C204 C203 1.398 . S
C204 C205 1.391 . S
C205 H193 0.950 . S
C205 C201 1.393 . S
C205 C204 1.391 . S
C206 H196 0.950 . S
C206 C207 1.386 . S
C206 C208 1.391 . S
C207 C206 1.386 . S
C207 C211 1.393 . S
C208 H197 0.950 . S
C208 C206 1.391 . S
C208 C209 1.400 . S
C209 C203 1.491 . S
C209 C208 1.400 . S
C209 C210 1.398 . S
C210 H198 0.950 . S
C210 C209 1.398 . S
C210 C211 1.391 . S
C211 H199 0.950 . S
C211 C207 1.393 . S
C211 C210 1.391 . S
H212 C220 0.950 . S
H213 C225 0.950 . S
H214 C222 0.950 . S
H215 C224 0.950 . S
H216 C226 0.950 . S
H217 C228 0.950 . S
H218 C230 0.950 . S
H219 C231 0.950 . S
C220 H212 0.950 . S
C220 C221 1.386 . S
C220 C222 1.391 . S
C221 C220 1.386 . S
C221 C225 1.393 . S
C222 H214 0.950 . S
C222 C220 1.391 . S
C222 C223 1.400 . S
C223 C222 1.400 . S
C223 C224 1.398 . S
C223 C229 1.491 . S
C224 H215 0.950 . S
C224 C223 1.398 . S
C224 C225 1.391 . S
C225 H213 0.950 . S
C225 C221 1.393 . S
C225 C224 1.391 . S
C226 H216 0.950 . S
C226 C227 1.386 . S
C226 C228 1.391 . S
C227 C226 1.386 . S
C227 C231 1.393 . S
C228 H217 0.950 . S
C228 C226 1.391 . S
C228 C229 1.400 . S
C229 C223 1.491 . S
C229 C228 1.400 . S
C229 C230 1.398 . S
C230 H218 0.950 . S
C230 C229 1.398 . S
C230 C231 1.391 . S
C231 H219 0.950 . S
C231 C227 1.393 . S
C231 C230 1.391 . S
H232 C240 0.950 . S
H233 C245 0.950 . S
H234 C242 0.950 . S
H235 C244 0.950 . S
H236 C246 0.950 . S
H237 C248 0.950 . S
H238 C250 0.950 . S
H239 C251 0.950 . S
C240 H232 0.950 . S
C240 C241 1.386 . S
C240 C242 1.391 . S
C241 C240 1.386 . S
C241 C245 1.393 . S
C242 H234 0.950 . S
C242 C240 1.391 . S
C242 C243 1.400 . S
C243 C242 1.400 . S
C243 C244 1.398 . S
C243 C249 1.491 . S
C244 H235 0.950 . S
C244 C243 1.398 . S
C244 C245 1.391 . S
C245 H233 0.950 . S
C245 C241 1.393 . S
C245 C244 1.391 . S
C246 H236 0.950 . S
C246 C247 1.386 . S
C246 C248 1.391 . S
C247 C246 1.386 . S
C247 C251 1.393 . S
C248 H237 0.950 . S
C248 C246 1.391 . S
C248 C249 1.400 . S
C249 C243 1.491 . S
C249 C248 1.400 . S
C249 C250 1.398 . S
C250 H238 0.950 . S
C250 C249 1.398 . S
C250 C251 1.391 . S
C251 H239 0.950 . S
C251 C247 1.393 . S
C251 C250 1.391 . S
H252 C260 0.950 . S
H253 C265 0.950 . S
H254 C262 0.950 . S
H255 C264 0.950 . S
H256 C266 0.950 . S
H257 C268 0.950 . S
H258 C270 0.950 . S
H259 C271 0.950 . S
C260 H252 0.950 . S
C260 C261 1.386 . S
C260 C262 1.391 . S
C261 C260 1.386 . S
C261 C265 1.393 . S
C262 H254 0.950 . S
C262 C260 1.391 . S
C262 C263 1.400 . S
C263 C262 1.400 . S
C263 C264 1.398 . S
C263 C269 1.491 . S
C264 H255 0.950 . S
C264 C263 1.398 . S
C264 C265 1.391 . S
C265 H253 0.950 . S
C265 C261 1.393 . S
C265 C264 1.391 . S
C266 H256 0.950 . S
C266 C267 1.386 . S
C266 C268 1.391 . S
C267 C266 1.386 . S
C267 C271 1.393 . S
C268 H257 0.950 . S
C268 C266 1.391 . S
C268 C269 1.400 . S
C269 C263 1.491 . S
C269 C268 1.400 . S
C269 C270 1.398 . S
C270 H258 0.950 . S
C270 C269 1.398 . S
C270 C271 1.391 . S
C271 H259 0.950 . S
C271 C267 1.393 . S
C271 C270 1.391 . S
H272 C280 0.950 . S
H273 C285 0.950 . S
H274 C282 0.950 . S
H275 C284 0.950 . S
H276 C286 0.950 . S
H277 C288 0.950 . S
H278 C290 0.950 1_556 S
H279 C291 0.950 1_556 S
C280 H272 0.950 . S
C280 C281 1.386 1_556 S
C280 C282 1.391 . S
C281 C280 1.386 1_554 S
C281 C285 1.393 . S
C282 H274 0.950 . S
C282 C280 1.391 . S
C282 C283 1.400 1_556 S
C283 C282 1.400 1_554 S
C283 C284 1.398 . S
C283 C289 1.491 1_655 S
C284 H275 0.950 . S
C284 C283 1.398 . S
C284 C285 1.391 . S
C285 H273 0.950 . S
C285 C281 1.393 . S
C285 C284 1.391 . S
C286 H276 0.950 . S
C286 C287 1.386 . S
C286 C288 1.391 . S
C287 C286 1.386 . S
C287 C291 1.393 . S
C288 H277 0.950 . S
C288 C286 1.391 . S
C288 C289 1.400 . S
C289 C283 1.491 1_455 S
C289 C288 1.400 . S
C289 C290 1.398 . S
C290 H278 0.950 1_554 S
C290 C289 1.398 . S
C290 C291 1.391 . S
C291 H279 0.950 1_554 S
C291 C287 1.393 . S
C291 C290 1.391 . S
H292 C300 0.950 . S
H293 C305 0.950 . S
H294 C302 0.950 . S
H295 C304 0.950 . S
H296 C306 0.950 . S
H297 C308 0.950 . S
H298 C310 0.950 . S
H299 C311 0.950 . S
C300 H292 0.950 . S
C300 C301 1.386 . S
C300 C302 1.391 . S
C301 C300 1.386 . S
C301 C305 1.393 . S
C302 H294 0.950 . S
C302 C300 1.391 . S
C302 C303 1.400 . S
C303 C302 1.400 . S
C303 C304 1.398 . S
C303 C309 1.491 1_565 S
C304 H295 0.950 . S
C304 C303 1.398 . S
C304 C305 1.391 . S
C305 H293 0.950 . S
C305 C301 1.393 . S
C305 C304 1.391 . S
C306 H296 0.950 . S
C306 C307 1.386 . S
C306 C308 1.391 . S
C307 C306 1.386 . S
C307 C311 1.393 . S
C308 H297 0.950 . S
C308 C306 1.391 . S
C308 C309 1.400 . S
C309 C303 1.491 1_545 S
C309 C308 1.400 . S
C309 C310 1.398 . S
C310 H298 0.950 . S
C310 C309 1.398 . S
C310 C311 1.391 . S
C311 H299 0.950 . S
C311 C307 1.393 . S
C311 C310 1.391 . S
H312 C320 0.950 . S
H313 C325 0.950 . S
H314 C322 0.950 . S
H315 C324 0.950 . S
H316 C326 0.950 . S
H317 C328 0.950 . S
H318 C330 0.950 . S
H319 C331 0.950 . S
C320 H312 0.950 . S
C320 C321 1.386 . S
C320 C322 1.391 . S
C321 C320 1.386 . S
C321 C325 1.393 . S
C322 H314 0.950 . S
C322 C320 1.391 . S
C322 C323 1.400 . S
C323 C322 1.400 . S
C323 C324 1.398 . S
C323 C329 1.491 1_455 S
C324 H315 0.950 . S
C324 C323 1.398 . S
C324 C325 1.391 . S
C325 H313 0.950 . S
C325 C321 1.393 . S
C325 C324 1.391 . S
C326 H316 0.950 . S
C326 C327 1.386 . S
C326 C328 1.391 . S
C327 C326 1.386 . S
C327 C331 1.393 . S
C328 H317 0.950 . S
C328 C326 1.391 . S
C328 C329 1.400 . S
C329 C323 1.491 1_655 S
C329 C328 1.400 . S
C329 C330 1.398 . S
C330 H318 0.950 . S
C330 C329 1.398 . S
C330 C331 1.391 . S
C331 H319 0.950 . S
C331 C327 1.393 . S
C331 C330 1.391 . S
H332 C340 0.950 . S
H333 C345 0.950 . S
H334 C342 0.950 . S
H335 C344 0.950 . S
H336 C346 0.950 . S
H337 C348 0.950 . S
H338 C350 0.950 . S
H339 C351 0.950 . S
C340 H332 0.950 . S
C340 C341 1.386 . S
C340 C342 1.391 . S
C341 C340 1.386 . S
C341 C345 1.393 1_554 S
C342 H334 0.950 . S
C342 C340 1.391 . S
C342 C343 1.400 . S
C343 C342 1.400 . S
C343 C344 1.398 1_554 S
C343 C349 1.491 1_565 S
C344 H335 0.950 . S
C344 C343 1.398 1_556 S
C344 C345 1.391 . S
C345 H333 0.950 . S
C345 C341 1.393 1_556 S
C345 C344 1.391 . S
C346 H336 0.950 . S
C346 C347 1.386 1_556 S
C346 C348 1.391 . S
C347 C346 1.386 1_554 S
C347 C351 1.393 . S
C348 H337 0.950 . S
C348 C346 1.391 . S
C348 C349 1.400 1_556 S
C349 C343 1.491 1_545 S
C349 C348 1.400 1_554 S
C349 C350 1.398 . S
C350 H338 0.950 . S
C350 C349 1.398 . S
C350 C351 1.391 . S
C351 H339 0.950 . S
C351 C347 1.393 . S
C351 C350 1.391 . S
H352 C360 0.950 . S
H353 C365 0.950 . S
H354 C362 0.950 . S
H355 C364 0.950 . S
H356 C366 0.950 . S
H357 C368 0.950 . S
H358 C370 0.950 . S
H359 C371 0.950 . S
C360 H352 0.950 . S
C360 C361 1.386 . S
C360 C362 1.391 . S
C361 C360 1.386 . S
C361 C365 1.393 1_554 S
C362 H354 0.950 . S
C362 C360 1.391 . S
C362 C363 1.400 . S
C363 C362 1.400 . S
C363 C364 1.398 1_554 S
C363 C369 1.491 . S
C364 H355 0.950 . S
C364 C363 1.398 1_556 S
C364 C365 1.391 . S
C365 H353 0.950 . S
C365 C361 1.393 1_556 S
C365 C364 1.391 . S
C366 H356 0.950 . S
C366 C367 1.386 1_556 S
C366 C368 1.391 . S
C367 C366 1.386 1_554 S
C367 C371 1.393 . S
C368 H357 0.950 . S
C368 C366 1.391 . S
C368 C369 1.400 1_556 S
C369 C363 1.491 . S
C369 C368 1.400 1_554 S
C369 C370 1.398 . S
C370 H358 0.950 . S
C370 C369 1.398 . S
C370 C371 1.391 . S
C371 H359 0.950 . S
C371 C367 1.393 . S
C371 C370 1.391 . S
H372 C380 0.950 . S
H373 C385 0.950 . S
H374 C382 0.950 . S
H375 C384 0.950 . S
H376 C386 0.950 . S
H377 C388 0.950 . S
H378 C390 0.950 . S
H379 C391 0.950 . S
C380 H372 0.950 . S
C380 C381 1.386 . S
C380 C382 1.391 . S
C381 C380 1.386 . S
C381 C385 1.393 . S
C382 H374 0.950 . S
C382 C380 1.391 . S
C382 C383 1.400 . S
C383 C382 1.400 . S
C383 C384 1.398 . S
C383 C389 1.491 . S
C384 H375 0.950 . S
C384 C383 1.398 . S
C384 C385 1.391 . S
C385 H373 0.950 . S
C385 C381 1.393 . S
C385 C384 1.391 . S
C386 H376 0.950 . S
C386 C387 1.386 . S
C386 C388 1.391 . S
C387 C386 1.386 . S
C387 C391 1.393 . S
C388 H377 0.950 . S
C388 C386 1.391 . S
C388 C389 1.400 . S
C389 C383 1.491 . S
C389 C388 1.400 . S
C389 C390 1.398 . S
C390 H378 0.950 . S
C390 C389 1.398 . S
C390 C391 1.391 . S
C391 H379 0.950 . S
C391 C387 1.393 . S
C391 C390 1.391 . S
H392 C400 0.950 . S
H393 C405 0.950 . S
H394 C402 0.950 . S
H395 C404 0.950 . S
H396 C406 0.950 . S
H397 C408 0.950 . S
H398 C410 0.950 . S
H399 C411 0.950 . S
C400 H392 0.950 . S
C400 C401 1.386 . S
C400 C402 1.391 . S
C401 C400 1.386 . S
C401 C405 1.393 1_554 S
C402 H394 0.950 . S
C402 C400 1.391 . S
C402 C403 1.400 . S
C403 C402 1.400 . S
C403 C404 1.398 1_554 S
C403 C409 1.491 . S
C404 H395 0.950 . S
C404 C403 1.398 1_556 S
C404 C405 1.391 . S
C405 H393 0.950 . S
C405 C401 1.393 1_556 S
C405 C404 1.391 . S
C406 H396 0.950 . S
C406 C407 1.386 1_556 S
C406 C408 1.391 . S
C407 C406 1.386 1_554 S
C407 C411 1.393 . S
C408 H397 0.950 . S
C408 C406 1.391 . S
C408 C409 1.400 1_556 S
C409 C403 1.491 . S
C409 C408 1.400 1_554 S
C409 C410 1.398 . S
C410 H398 0.950 . S
C410 C409 1.398 . S
C410 C411 1.391 . S
C411 H399 0.950 . S
C411 C407 1.393 . S
C411 C410 1.391 . S
H412 C420 0.950 . S
H413 C425 0.950 . S
H414 C422 0.950 . S
H415 C424 0.950 . S
H416 C426 0.950 . S
H417 C428 0.950 . S
H418 C430 0.950 . S
H419 C431 0.950 . S
C420 H412 0.950 . S
C420 C421 1.386 . S
C420 C422 1.391 . S
C421 C420 1.386 . S
C421 C425 1.393 . S
C422 H414 0.950 . S
C422 C420 1.391 . S
C422 C423 1.400 . S
C423 C422 1.400 . S
C423 C424 1.398 . S
C423 C429 1.491 . S
C424 H415 0.950 . S
C424 C423 1.398 . S
C424 C425 1.391 . S
C425 H413 0.950 . S
C425 C421 1.393 . S
C425 C424 1.391 . S
C426 H416 0.950 . S
C426 C427 1.386 . S
C426 C428 1.391 . S
C427 C426 1.386 . S
C427 C431 1.393 . S
C428 H417 0.950 . S
C428 C426 1.391 . S
C428 C429 1.400 . S
C429 C423 1.491 . S
C429 C428 1.400 . S
C429 C430 1.398 . S
C430 H418 0.950 . S
C430 C429 1.398 . S
C430 C431 1.391 . S
C431 H419 0.950 . S
C431 C427 1.393 . S
C431 C430 1.391 . S
C121 C9 1.274 . S
C127 C65 1.275 . S
C141 C23 1.276 . S
C147 C79 1.274 . S
C161 C93 1.298 . S
C167 C37 1.291 . S
C181 C107 1.274 . S
C187 C51 1.276 . S
C201 C84 1.208 . S
C207 C28 1.221 . S
C221 C98 1.214 . S
C227 C42 1.211 . S
C241 C0 1.217 . S
C247 C56 1.209 . S
C261 C14 1.210 . S
C267 C70 1.226 . S
C281 C33 1.362 . S
C287 C5 1.362 . S
C301 C47 1.351 . S
C307 C19 1.351 . S
C321 C61 1.366 . S
C327 C89 1.366 . S
C341 C103 1.365 . S
C347 C75 1.365 . S
C361 C11 1.339 . S
C367 C81 1.338 . S
C381 C95 1.338 . S
C387 C25 1.337 . S
C401 C39 1.339 . S
C407 C109 1.338 . S
C421 C53 1.338 . S
C427 C67 1.339 . S
