# Generated by pormake.
# Topology snk, (6)-cn, num edge types: 1
# Building blocks:
#     Node 0, Type 0, BuildingBlock: VOLQOD_clean_sbu_1, # of connection points: 6
#     Node 1, Type 0, BuildingBlock: VOLQOD_clean_sbu_1, # of connection points: 6
#     Node 2, Type 0, BuildingBlock: VOLQOD_clean_sbu_1, # of connection points: 6
#     Node 3, Type 0, BuildingBlock: VOLQOD_clean_sbu_1, # of connection points: 6
#     Node 4, Type 0, BuildingBlock: VOLQOD_clean_sbu_1, # of connection points: 6
#     Node 5, Type 0, BuildingBlock: VOLQOD_clean_sbu_1, # of connection points: 6
#     Node 6, Type 0, BuildingBlock: VOLQOD_clean_sbu_1, # of connection points: 6
#     Node 7, Type 0, BuildingBlock: VOLQOD_clean_sbu_1, # of connection points: 6
#     Edge 8, Type (0, 0), BuildingBlock: XUDNAN_clean_linker_2, # of connection points: 2
#     Edge 9, Type (0, 0), BuildingBlock: XUDNAN_clean_linker_2, # of connection points: 2
#     Edge 10, Type (0, 0), BuildingBlock: XUDNAN_clean_linker_2, # of connection points: 2
#     Edge 11, Type (0, 0), BuildingBlock: XUDNAN_clean_linker_2, # of connection points: 2
#     Edge 12, Type (0, 0), BuildingBlock: XUDNAN_clean_linker_2, # of connection points: 2
#     Edge 13, Type (0, 0), BuildingBlock: XUDNAN_clean_linker_2, # of connection points: 2
#     Edge 14, Type (0, 0), BuildingBlock: XUDNAN_clean_linker_2, # of connection points: 2
#     Edge 15, Type (0, 0), BuildingBlock: XUDNAN_clean_linker_2, # of connection points: 2
#     Edge 16, Type (0, 0), BuildingBlock: XUDNAN_clean_linker_2, # of connection points: 2
#     Edge 17, Type (0, 0), BuildingBlock: XUDNAN_clean_linker_2, # of connection points: 2
#     Edge 18, Type (0, 0), BuildingBlock: XUDNAN_clean_linker_2, # of connection points: 2
#     Edge 19, Type (0, 0), BuildingBlock: XUDNAN_clean_linker_2, # of connection points: 2
#     Edge 20, Type (0, 0), BuildingBlock: XUDNAN_clean_linker_2, # of connection points: 2
#     Edge 21, Type (0, 0), BuildingBlock: XUDNAN_clean_linker_2, # of connection points: 2
#     Edge 22, Type (0, 0), BuildingBlock: XUDNAN_clean_linker_2, # of connection points: 2
#     Edge 23, Type (0, 0), BuildingBlock: XUDNAN_clean_linker_2, # of connection points: 2
#     Edge 24, Type (0, 0), BuildingBlock: XUDNAN_clean_linker_2, # of connection points: 2
#     Edge 25, Type (0, 0), BuildingBlock: XUDNAN_clean_linker_2, # of connection points: 2
#     Edge 26, Type (0, 0), BuildingBlock: XUDNAN_clean_linker_2, # of connection points: 2
#     Edge 27, Type (0, 0), BuildingBlock: XUDNAN_clean_linker_2, # of connection points: 2
#     Edge 28, Type (0, 0), BuildingBlock: XUDNAN_clean_linker_2, # of connection points: 2
#     Edge 29, Type (0, 0), BuildingBlock: XUDNAN_clean_linker_2, # of connection points: 2
#     Edge 30, Type (0, 0), BuildingBlock: XUDNAN_clean_linker_2, # of connection points: 2
#     Edge 31, Type (0, 0), BuildingBlock: XUDNAN_clean_linker_2, # of connection points: 2
# Relax obj value: 0.177
# Max RMSD: 0.167
# Mean RMSD: 0.167
data_MOF--net-snk--node1-VOLQOD_clean_sbu_1--edge1-XUDNAN_clean_linker_2
_symmetry_space_group_name_H-M    P1
_symmetry_Int_Tables_number       1
_symmetry_cell_setting            triclinic
loop_
_symmetry_equiv_pos_as_xyz
'x, y, z'
_cell_length_a     46.519598
_cell_length_b     46.603181
_cell_length_c     16.14164
_cell_angle_alpha  90.159939
_cell_angle_beta   90.076338
_cell_angle_gamma 90.030907
loop_
_atom_site_label
_atom_site_type_symbol
_atom_site_fract_x
_atom_site_fract_y
_atom_site_fract_z
_atom_type_partial_charge
O0 O 0.05084 0.0175 0.47006 0.0
Zn1 Zn 0.01687 0.03794 0.41626 0.0
O2 O 0.01074 0.07664 0.46286 0.0
Zn3 Zn 0.9732 0.07986 0.5176 0.0
Zn4 Zn 0.04173 0.085 0.53699 0.0
Zn5 Zn 0.01317 0.1059 0.38022 0.0
O6 O 0.94752 0.10966 0.46232 0.0
O7 O 0.97555 0.12443 0.36001 0.0
O8 O 0.9815 0.01395 0.43405 0.0
O9 O 0.95295 0.04206 0.5095 0.0
O10 O 0.97791 0.0895 0.63917 0.0
O11 O 0.02547 0.09403 0.64408 0.0
O12 O 0.06565 0.11876 0.50803 0.0
O13 O 0.02503 0.04022 0.2937 0.0
O14 O 0.04155 0.1372 0.40319 0.0
O15 O 0.02569 0.0877 0.27813 0.0
C16 C 0.06912 0.02658 0.52288 0.0
C17 C 0.95164 0.12489 0.39789 0.0
C18 C 0.001 0.09532 0.67815 0.0
C19 C 0.95822 0.01824 0.47375 0.0
C20 C 0.06203 0.13845 0.45506 0.0
C21 C 0.02934 0.06252 0.25017 0.0
O22 O 0.06768 0.05189 0.55176 0.0
O23 O 0.32368 0.83822 0.73064 0.0
Zn24 Zn 0.29609 0.80724 0.69432 0.0
O25 O 0.25619 0.81582 0.72408 0.0
Zn26 Zn 0.24092 0.78534 0.79493 0.0
Zn27 Zn 0.25587 0.85238 0.77935 0.0
Zn28 Zn 0.23175 0.82008 0.62866 0.0
O29 O 0.20413 0.76774 0.74895 0.0
O30 O 0.20045 0.79143 0.63026 0.0
O31 O 0.30884 0.77002 0.74404 0.0
O32 O 0.27001 0.75371 0.8085 0.0
O33 O 0.23625 0.80058 0.91053 0.0
O34 O 0.24883 0.84627 0.89676 0.0
O35 O 0.22718 0.87972 0.73527 0.0
O36 O 0.30003 0.80441 0.57187 0.0
O37 O 0.21224 0.85888 0.6197 0.0
O38 O 0.25519 0.81285 0.52914 0.0
C39 C 0.31915 0.86318 0.75985 0.0
C40 C 0.19136 0.77255 0.68041 0.0
C41 C 0.24175 0.82514 0.94158 0.0
C42 C 0.29618 0.75096 0.78696 0.0
C43 C 0.21207 0.88002 0.66977 0.0
C44 C 0.28137 0.8068 0.5149 0.0
O45 O 0.2939 0.87168 0.77678 0.0
O46 O 0.45188 0.13965 -0.00316 0.0
Zn47 Zn 0.48981 0.12309 0.95906 0.0
O48 O 0.49129 0.08197 -0.01337 0.0
Zn49 Zn 0.52122 0.07374 0.06624 0.0
Zn50 Zn 0.45441 0.06994 0.03086 0.0
Zn51 Zn 0.49986 0.05924 0.8912 0.0
O52 O 0.55169 0.04609 0.02656 0.0
O53 O 0.53822 0.04086 0.89576 0.0
O54 O 0.52184 0.14525 0.01826 0.0
O55 O 0.54094 0.10996 0.09264 0.0
O56 O 0.50486 0.0626 0.17523 0.0
O57 O 0.45792 0.06599 0.15349 0.0
O58 O 0.43995 0.03323 0.97814 0.0
O59 O 0.4911 0.12853 0.83437 0.0
O60 O 0.47202 0.02719 0.87793 0.0
O61 O 0.49832 0.08353 0.79226 0.0
C62 C 0.42784 0.12814 0.01486 0.0
C63 C 0.55586 0.03609 0.95413 0.0
C64 C 0.4792 0.06327 0.20229 0.0
C65 C 0.53975 0.13621 0.07218 0.0
C66 C 0.4497 0.01908 0.9166 0.0
C67 C 0.49486 0.11002 0.77716 0.0
O68 O 0.42509 0.10104 0.02062 0.0
O69 O 0.18752 0.3044 0.24241 0.0
Zn70 Zn 0.20671 0.33603 0.17813 0.0
O71 O 0.24627 0.34166 0.21278 0.0
Zn72 Zn 0.24915 0.37965 0.25792 0.0
Zn73 Zn 0.2566 0.31454 0.29726 0.0
Zn74 Zn 0.27362 0.33748 0.12459 0.0
O75 O 0.28607 0.39766 0.22567 0.0
O76 O 0.30241 0.36998 0.12371 0.0
O77 O 0.18354 0.37189 0.19422 0.0
O78 O 0.21557 0.40484 0.23108 0.0
O79 O 0.24819 0.37624 0.37905 0.0
O80 O 0.26969 0.33444 0.39959 0.0
O81 O 0.28489 0.28505 0.25825 0.0
O82 O 0.20545 0.3284 0.05713 0.0
O83 O 0.29589 0.30077 0.13277 0.0
O84 O 0.25136 0.33496 0.02086 0.0
C85 C 0.19644 0.29004 0.30436 0.0
C86 C 0.30485 0.39179 0.171 0.0
C87 C 0.25897 0.35768 0.42724 0.0
C88 C 0.19005 0.39774 0.21149 0.0
C89 C 0.29824 0.28225 0.19003 0.0
C90 C 0.22516 0.32998 0.00288 0.0
O91 O 0.22196 0.29269 0.33143 0.0
O92 O 0.80032 0.35952 0.3651 0.0
Zn93 Zn 0.78179 0.3285 0.2961 0.0
O94 O 0.74225 0.32169 0.32955 0.0
Zn95 Zn 0.73989 0.28375 0.37599 0.0
Zn96 Zn 0.73051 0.34986 0.41111 0.0
Zn97 Zn 0.716 0.32397 0.23831 0.0
O98 O 0.70413 0.26359 0.33865 0.0
O99 O 0.68957 0.28991 0.23206 0.0
O100 O 0.80511 0.29257 0.30489 0.0
O101 O 0.77448 0.25947 0.34922 0.0
O102 O 0.73983 0.28824 0.49727 0.0
O103 O 0.71903 0.33065 0.51632 0.0
O104 O 0.70081 0.37758 0.36775 0.0
O105 O 0.78357 0.33817 0.17592 0.0
O106 O 0.69191 0.35918 0.24361 0.0
O107 O 0.7387 0.32801 0.13636 0.0
C108 C 0.79025 0.37563 0.42198 0.0
C109 C 0.68686 0.26813 0.27884 0.0
C110 C 0.72953 0.30742 0.54475 0.0
C111 C 0.79929 0.26673 0.32368 0.0
C112 C 0.68802 0.37851 0.29804 0.0
C113 C 0.76445 0.33527 0.12022 0.0
O114 O 0.76408 0.37402 0.44399 0.0
O115 O 0.6794 0.81282 0.68613 0.0
Zn116 Zn 0.70288 0.84688 0.65143 0.0
O117 O 0.74284 0.84003 0.67969 0.0
Zn118 Zn 0.7585 0.87347 0.73495 0.0
Zn119 Zn 0.74732 0.80613 0.74797 0.0
Zn120 Zn 0.76353 0.83336 0.58054 0.0
O121 O 0.79226 0.89036 0.67446 0.0
O122 O 0.7911 0.86506 0.55781 0.0
O123 O 0.68806 0.88242 0.70819 0.0
O124 O 0.72844 0.90367 0.74894 0.0
O125 O 0.76739 0.86443 0.8526 0.0
O126 O 0.75107 0.81976 0.86443 0.0
O127 O 0.78172 0.78136 0.71455 0.0
O128 O 0.69787 0.85164 0.52812 0.0
O129 O 0.78818 0.79931 0.58898 0.0
O130 O 0.73752 0.82967 0.48477 0.0
C131 C 0.68549 0.78891 0.72011 0.0
C132 C 0.80158 0.88518 0.60177 0.0
C133 C 0.75974 0.84318 0.89671 0.0
C134 C 0.70124 0.90351 0.74129 0.0
C135 C 0.7948 0.78154 0.6452 0.0
C136 C 0.71293 0.84044 0.47081 0.0
O137 O 0.71094 0.78298 0.74388 0.0
O138 O 0.55401 0.51731 -0.00227 0.0
Zn139 Zn 0.51812 0.53343 0.94603 0.0
O140 O 0.51428 0.57395 0.97747 0.0
Zn141 Zn 0.48413 0.57898 0.05763 0.0
Zn142 Zn 0.55088 0.58761 0.02162 0.0
Zn143 Zn 0.50353 0.59655 0.88391 0.0
O144 O 0.45258 0.6061 0.02327 0.0
O145 O 0.46454 0.614 0.89263 0.0
O146 O 0.48477 0.50972 -0.00993 0.0
O147 O 0.46558 0.54158 0.07659 0.0
O148 O 0.50056 0.58965 0.1662 0.0
O149 O 0.54706 0.59625 0.14254 0.0
O150 O 0.56598 0.62203 0.95954 0.0
O151 O 0.52128 0.52952 0.82163 0.0
O152 O 0.53121 0.62858 0.86715 0.0
O153 O 0.50522 0.57256 0.78382 0.0
C154 C 0.57719 0.52898 0.02304 0.0
C155 C 0.44727 0.6171 0.95287 0.0
C156 C 0.52583 0.59502 0.19193 0.0
C157 C 0.46682 0.51642 0.04649 0.0
C158 C 0.55499 0.63603 0.89961 0.0
C159 C 0.51358 0.54734 0.76622 0.0
O160 O 0.58011 0.55613 0.02513 0.0
O161 O 0.95757 0.63225 0.48902 0.0
Zn162 Zn 0.99075 0.60777 0.45654 0.0
O163 O 0.99107 0.57402 0.5227 0.0
Zn164 Zn 0.02982 0.56755 0.56198 0.0
Zn165 Zn 0.96196 0.5754 0.60655 0.0
Zn166 Zn 0.98036 0.54354 0.45171 0.0
O167 O 0.0509 0.53947 0.48671 0.0
O168 O 0.01483 0.52343 0.4093 0.0
O169 O 0.02566 0.63145 0.47889 0.0
O170 O 0.05184 0.60484 0.56423 0.0
O171 O 0.02717 0.55338 0.67854 0.0
O172 O 0.98214 0.56642 0.71131 0.0
O173 O 0.93216 0.54382 0.5939 0.0
O174 O 0.98902 0.59647 0.33686 0.0
O175 O 0.95403 0.51566 0.50324 0.0
O176 O 0.96046 0.55914 0.35399 0.0
C177 C 0.94127 0.63346 0.55233 0.0
C178 C 0.04139 0.52385 0.42765 0.0
C179 C 0.00669 0.55621 0.73024 0.0
C180 C 0.04753 0.62819 0.52534 0.0
C181 C 0.93389 0.52014 0.55463 0.0
C182 C 0.97317 0.57674 0.30679 0.0
O183 O 0.94158 0.6139 0.60753 0.0
H184 H 0.06613 0.18037 0.33692 0.0
H185 H 0.10424 0.15093 0.56742 0.0
H186 H 0.14031 0.18951 0.55926 0.0
H187 H 0.13057 0.19529 0.23609 0.0
H188 H 0.11782 0.22683 0.18316 0.0
H189 H 0.09294 0.19899 0.21144 0.0
H190 H 0.06215 0.236 0.29218 0.0
H191 H 0.08693 0.26404 0.26388 0.0
H192 H 0.07874 0.25776 0.37143 0.0
H193 H 0.17441 0.22804 0.52085 0.0
H194 H 0.20483 0.26448 0.45426 0.0
H195 H 0.14473 0.26911 0.24836 0.0
C196 C 0.08174 0.18234 0.38644 0.0
C197 C 0.08236 0.16268 0.45284 0.0
C198 C 0.10337 0.16574 0.51588 0.0
C199 C 0.12387 0.18765 0.51205 0.0
C200 C 0.12295 0.20635 0.44507 0.0
C201 C 0.10241 0.20404 0.38353 0.0
C202 C 0.10738 0.22575 0.31549 0.0
C203 C 0.11249 0.21081 0.23162 0.0
C204 C 0.08231 0.24716 0.31049 0.0
C205 C 0.13443 0.24005 0.34734 0.0
C206 C 0.14282 0.22872 0.42261 0.0
C207 C 0.16793 0.23733 0.46237 0.0
C208 C 0.18512 0.25793 0.42376 0.0
C209 C 0.17714 0.2696 0.34603 0.0
C210 C 0.15124 0.26078 0.30808 0.0
H211 H 0.0828 0.9712 0.47323 0.0
H212 H 0.10916 0.03991 0.63975 0.0
H213 H 0.14889 0.01026 0.69021 0.0
H214 H 0.09837 0.91323 0.61298 0.0
H215 H 0.11181 0.88945 0.53375 0.0
H216 H 0.08532 0.91617 0.50812 0.0
H217 H 0.11894 0.93631 0.39439 0.0
H218 H 0.14559 0.90969 0.41988 0.0
H219 H 0.15494 0.94723 0.42152 0.0
H220 H 0.18486 0.97407 0.72566 0.0
H221 H 0.21571 0.93196 0.746 0.0
H222 H 0.16758 0.88565 0.55719 0.0
C223 C 0.09696 0.97998 0.52019 0.0
C224 C 0.09278 0.00796 0.55226 0.0
C225 C 0.11182 0.01862 0.61382 0.0
C226 C 0.13455 0.00196 0.64303 0.0
C227 C 0.13813 0.97464 0.61017 0.0
C228 C 0.11998 0.96357 0.55026 0.0
C229 C 0.12875 0.93324 0.52684 0.0
C230 C 0.10463 0.91176 0.54663 0.0
C231 C 0.13758 0.93153 0.43521 0.0
C232 C 0.15445 0.92911 0.58361 0.0
C233 C 0.15938 0.95339 0.63077 0.0
C234 C 0.18134 0.9549 0.68903 0.0
C235 C 0.19871 0.9308 0.70018 0.0
C236 C 0.19408 0.90547 0.65322 0.0
C237 C 0.17177 0.90476 0.59356 0.0
H238 H 0.31863 0.91139 0.85599 0.0
H239 H 0.37451 0.85902 0.70223 0.0
H240 H 0.41462 0.89267 0.7293 0.0
H241 H 0.34542 0.97924 0.7943 0.0
H242 H 0.34256 0.99508 0.89596 0.0
H243 H 0.31863 0.9665 0.86597 0.0
H244 H 0.33454 0.93704 -0.00591 0.0
H245 H 0.35853 0.96555 0.02454 0.0
H246 H 0.37218 0.9297 0.01007 0.0
H247 H 0.44761 0.93323 0.76765 0.0
H248 H 0.47198 0.97685 0.81842 0.0
H249 H 0.39463 0.00164 0.9509 0.0
C250 C 0.33929 0.90693 0.82789 0.0
C251 C 0.34346 0.88269 0.77656 0.0
C252 C 0.37089 0.87748 0.74176 0.0
C253 C 0.39374 0.89645 0.75675 0.0
C254 C 0.38879 0.92023 0.80733 0.0
C255 C 0.36231 0.92539 0.84284 0.0
C256 C 0.36251 0.9525 0.89461 0.0
C257 C 0.34101 0.97463 0.86064 0.0
C258 C 0.3566 0.94578 -0.01374 0.0
C259 C 0.3932 0.9621 0.88168 0.0
C260 C 0.40798 0.94321 0.83111 0.0
C261 C 0.43634 0.94806 0.80782 0.0
C262 C 0.44993 0.97295 0.83678 0.0
C263 C 0.43519 0.99259 0.88883 0.0
C264 C 0.40653 0.98689 0.91196 0.0
H265 H 0.41921 0.18517 -0.02066 0.0
H266 H 0.38212 0.11281 0.11038 0.0
H267 H 0.34503 0.14453 0.16922 0.0
H268 H 0.40924 0.23704 0.13512 0.0
H269 H 0.39947 0.26581 0.0662 0.0
H270 H 0.42245 0.23733 0.03015 0.0
H271 H 0.38731 0.22671 0.90914 0.0
H272 H 0.36441 0.25545 0.94412 0.0
H273 H 0.34996 0.21983 0.93121 0.0
H274 H 0.31525 0.18456 0.2251 0.0
H275 H 0.28987 0.22961 0.2589 0.0
H276 H 0.34403 0.27556 0.08514 0.0
C277 C 0.40301 0.17595 0.01937 0.0
C278 C 0.40356 0.14654 0.04028 0.0
C279 C 0.382 0.13523 0.0929 0.0
C280 C 0.36093 0.1531 0.12711 0.0
C281 C 0.36143 0.1821 0.10698 0.0
C282 C 0.38147 0.19339 0.05297 0.0
C283 C 0.37705 0.22533 0.04148 0.0
C284 C 0.40364 0.24237 0.06996 0.0
C285 C 0.36921 0.23223 0.95112 0.0
C286 C 0.35179 0.23026 0.09883 0.0
C287 C 0.34332 0.20507 0.13658 0.0
C288 C 0.32137 0.20438 0.19511 0.0
C289 C 0.30727 0.23008 0.21438 0.0
C290 C 0.31495 0.25595 0.17433 0.0
C291 C 0.33757 0.256 0.11609 0.0
H292 H 0.91399 0.0138 0.58403 0.0
H293 H 0.95405 0.97034 0.3757 0.0
H294 H 0.91753 0.93194 0.38422 0.0
H295 H 0.89747 0.95023 0.69867 0.0
H296 H 0.86384 0.96393 0.73746 0.0
H297 H 0.89267 0.98829 0.71337 0.0
H298 H 0.85894 0.0163 0.61446 0.0
H299 H 0.83001 0.99198 0.6381 0.0
H300 H 0.84076 -0.00259 0.53204 0.0
H301 H 0.87637 0.89896 0.41401 0.0
H302 H 0.83494 0.87188 0.46795 0.0
H303 H 0.82295 0.93627 0.65997 0.0
C304 C 0.91504 0.99629 0.53988 0.0
C305 C 0.93673 0.99509 0.47888 0.0
C306 C 0.9376 0.97163 0.42298 0.0
C307 C 0.91693 0.9498 0.42715 0.0
C308 C 0.8958 0.95172 0.48796 0.0
C309 C 0.89483 0.97423 0.54372 0.0
C310 C 0.8704 0.97081 0.60462 0.0
C311 C 0.88178 0.96815 0.6938 0.0
C312 C 0.84875 0.9956 0.59678 0.0
C313 C 0.85769 0.94285 0.57426 0.0
C314 C 0.87252 0.93231 0.50655 0.0
C315 C 0.86462 0.90693 0.46711 0.0
C316 C 0.841 0.89178 0.49812 0.0
C317 C 0.82576 0.90197 0.5683 0.0
C318 C 0.83426 0.92788 0.60654 0.0
H319 H 0.89816 0.13607 0.46554 0.0
H320 H 0.9543 0.15873 0.26074 0.0
H321 H 0.91936 0.19461 0.21416 0.0
H322 H 0.82971 0.14623 0.35014 0.0
H323 H 0.81152 0.16103 0.43904 0.0
H324 H 0.83973 0.13498 0.45295 0.0
H325 H 0.86679 0.17036 0.54954 0.0
H326 H 0.83878 0.19653 0.53569 0.0
H327 H 0.87552 0.20575 0.5124 0.0
H328 H 0.88199 0.23154 0.19826 0.0
H329 H 0.84201 0.26605 0.20952 0.0
H330 H 0.80813 0.21896 0.41946 0.0
C331 C 0.90285 0.14823 0.41012 0.0
C332 C 0.92907 0.14455 0.36712 0.0
C333 C 0.93446 0.16109 0.29512 0.0
C334 C 0.9147 0.18154 0.2678 0.0
C335 C 0.88942 0.18505 0.31242 0.0
C336 C 0.88318 0.16872 0.38144 0.0
C337 C 0.85491 0.17793 0.41992 0.0
C338 C 0.83265 0.15359 0.4152 0.0
C339 C 0.85928 0.18826 0.50969 0.0
C340 C 0.84684 0.20253 0.36317 0.0
C341 C 0.86707 0.20613 0.30147 0.0
C342 C 0.86568 0.22868 0.24524 0.0
C343 C 0.84302 0.24823 0.25239 0.0
C344 C 0.82196 0.24493 0.3148 0.0
C345 C 0.82369 0.22157 0.37017 0.0
H346 H 0.65228 0.26357 0.14093 0.0
H347 H 0.66775 0.22661 0.38385 0.0
H348 H 0.62876 0.19189 0.35991 0.0
H349 H 0.57376 0.25433 0.1402 0.0
H350 H 0.57248 0.24498 0.03182 0.0
H351 H 0.60013 0.26874 0.06989 0.0
H352 H 0.63923 0.23524 0.00899 0.0
H353 H 0.61176 0.21143 0.97066 0.0
H354 H 0.6396 0.19788 0.03774 0.0
H355 H 0.59101 0.1598 0.30884 0.0
H356 H 0.55682 0.13011 0.23072 0.0
H357 H 0.56477 0.18686 0.01891 0.0
C358 C 0.64721 0.24839 0.18946 0.0
C359 C 0.66301 0.24784 0.2644 0.0
C360 C 0.656 0.22741 0.32592 0.0
C361 C 0.63378 0.2077 0.31315 0.0
C362 C 0.61878 0.20871 0.23859 0.0
C363 C 0.62513 0.2284 0.17756 0.0
C364 C 0.60671 0.22352 0.10112 0.0
C365 C 0.5871 0.24944 0.08482 0.0
C366 C 0.62545 0.2166 0.02516 0.0
C367 C 0.58947 0.1976 0.12835 0.0
C368 C 0.59671 0.18975 0.20829 0.0
C369 C 0.58499 0.16579 0.24645 0.0
C370 C 0.56571 0.14901 0.20129 0.0
C371 C 0.5583 0.15618 0.11867 0.0
C372 C 0.56987 0.18113 0.08221 0.0
H373 H 0.64627 0.92011 0.70401 0.0
H374 H 0.71844 0.93946 0.86558 0.0
H375 H 0.68919 0.97572 0.93854 0.0
H376 H 0.62068 0.99392 0.68747 0.0
H377 H 0.58341 0.98333 0.68597 0.0
H378 H 0.61045 0.95953 0.64529 0.0
H379 H 0.59284 0.91946 0.74419 0.0
H380 H 0.56595 0.94322 0.78571 0.0
H381 H 0.59147 0.92634 0.85409 0.0
H382 H 0.65077 0.00731 0.00057 0.0
H383 H 0.60745 0.03557 0.03699 0.0
H384 H 0.56173 0.99688 0.83037 0.0
C385 C 0.65599 0.93218 0.75418 0.0
C386 C 0.68458 0.92703 0.77911 0.0
C387 C 0.69662 0.94328 0.84495 0.0
C388 C 0.68014 0.96379 0.88711 0.0
C389 C 0.65185 0.96804 0.86184 0.0
C390 C 0.64003 0.95303 0.79606 0.0
C391 C 0.6092 0.96177 0.78085 0.0
C392 C 0.60575 0.97546 0.6948 0.0
C393 C 0.58866 0.93617 0.7919 0.0
C394 C 0.60542 0.98369 0.84914 0.0
C395 C 0.63015 0.9869 0.89567 0.0
C396 C 0.63136 0.00524 0.96403 0.0
C397 C 0.60667 0.02105 -0.01546 0.0
C398 C 0.58142 0.01853 0.9361 0.0
C399 C 0.58088 -0.00049 0.86792 0.0
H400 H 0.61054 0.65345 0.92971 0.0
H401 H 0.53353 0.67539 0.79101 0.0
H402 H 0.55872 0.71659 0.7295 0.0
H403 H 0.63322 0.72613 0.97273 0.0
H404 H 0.6709 0.71825 0.96025 0.0
H405 H 0.64663 0.69068 -0.00502 0.0
H406 H 0.66301 0.65785 0.87403 0.0
H407 H 0.68723 0.68537 0.83868 0.0
H408 H 0.6606 0.67079 0.76909 0.0
H409 H 0.59183 0.75531 0.68313 0.0
H410 H 0.63125 0.78925 0.65434 0.0
H411 H 0.68705 0.74158 0.82042 0.0
C412 C 0.59892 0.66702 0.88684 0.0
C413 C 0.57006 0.6612 0.86531 0.0
C414 C 0.55568 0.67936 0.80839 0.0
C415 C 0.56976 0.70285 0.77308 0.0
C416 C 0.59824 0.70782 0.79506 0.0
C417 C 0.61271 0.69048 0.85052 0.0
C418 C 0.64341 0.70041 0.86254 0.0
C419 C 0.64885 0.70941 0.95299 0.0
C420 C 0.66482 0.67722 0.83438 0.0
C421 C 0.64387 0.72603 0.80516 0.0
C422 C 0.61757 0.72997 0.76709 0.0
C423 C 0.61258 0.75246 0.71237 0.0
C424 C 0.63509 0.77161 0.69647 0.0
C425 C 0.66224 0.768 0.73487 0.0
C426 C 0.66663 0.74478 0.78951 0.0
H427 H 0.64728 0.38262 0.17658 0.0
H428 H 0.69209 0.43247 0.36418 0.0
H429 H 0.67038 0.47682 0.30865 0.0
H430 H 0.65447 0.43177 0.01224 0.0
H431 H 0.61913 0.42561 0.96982 0.0
H432 H 0.63713 0.39751 0.02596 0.0
H433 H 0.59398 0.39334 0.12671 0.0
H434 H 0.57556 0.42097 0.06974 0.0
H435 H 0.58121 0.42496 0.17968 0.0
H436 H 0.64708 0.51583 0.22565 0.0
H437 H 0.61696 0.54646 0.13681 0.0
H438 H 0.58562 0.47088 0.00702 0.0
C439 C 0.65217 0.40282 0.20682 0.0
C440 C 0.67137 0.40416 0.27462 0.0
C441 C 0.67723 0.43095 0.31263 0.0
C442 C 0.66524 0.45626 0.28102 0.0
C443 C 0.64721 0.45427 0.21223 0.0
C444 C 0.64014 0.42819 0.17681 0.0
C445 C 0.6198 0.43188 0.10433 0.0
C446 C 0.63346 0.42105 0.02332 0.0
C447 C 0.59092 0.41691 0.12116 0.0
C448 C 0.61666 0.46419 0.10417 0.0
C449 C 0.633 0.47669 0.16609 0.0
C450 C 0.63402 0.50629 0.17736 0.0
C451 C 0.61703 0.52352 0.12594 0.0
C452 C 0.59895 0.51105 0.06484 0.0
C453 C 0.59924 0.48102 0.05305 0.0
H454 H 0.93149 0.46841 0.4761 0.0
H455 H 0.88424 0.52278 0.64721 0.0
H456 H 0.84358 0.48857 0.64279 0.0
H457 H 0.87484 0.45316 0.34786 0.0
H458 H 0.88511 0.41663 0.32601 0.0
H459 H 0.91209 0.44263 0.3532 0.0
H460 H 0.9293 0.41047 0.47428 0.0
H461 H 0.90253 0.38412 0.44692 0.0
H462 H 0.90376 0.39848 0.55066 0.0
H463 H 0.80628 0.45139 0.60653 0.0
H464 H 0.77549 0.41424 0.54316 0.0
H465 H 0.84748 0.38535 0.39352 0.0
C466 C 0.91292 0.4729 0.51435 0.0
C467 C 0.91106 0.49827 0.56215 0.0
C468 C 0.88619 0.50341 0.61045 0.0
C469 C 0.86302 0.48409 0.60838 0.0
C470 C 0.86526 0.45977 0.55824 0.0
C471 C 0.88971 0.45405 0.51266 0.0
C472 C 0.88596 0.42792 0.45799 0.0
C473 C 0.88971 0.43556 0.36585 0.0
C474 C 0.90661 0.40382 0.48406 0.0
C475 C 0.85518 0.42032 0.47766 0.0
C476 C 0.84372 0.43865 0.53649 0.0
C477 C 0.81514 0.4367 0.56125 0.0
C478 C 0.79781 0.41559 0.52455 0.0
C479 C 0.80907 0.39688 0.46315 0.0
C480 C 0.83824 0.39919 0.44041 0.0
H481 H 0.80854 0.72865 0.71473 0.0
H482 H 0.83803 0.79284 0.53926 0.0
H483 H 0.87918 0.76268 0.5035 0.0
H484 H 0.88078 0.7057 0.78299 0.0
H485 H 0.87105 0.66833 0.78949 0.0
H486 H 0.84432 0.69566 0.80715 0.0
H487 H 0.81222 0.67321 0.69286 0.0
H488 H 0.83887 0.64589 0.67466 0.0
H489 H 0.82669 0.66807 0.59031 0.0
H490 H 0.91502 0.72608 0.47909 0.0
H491 H 0.94561 0.68352 0.46799 0.0
H492 H 0.8949 0.64114 0.65798 0.0
C493 C 0.82391 0.73638 0.66966 0.0
C494 C 0.81995 0.76302 0.62949 0.0
C495 C 0.84036 0.77238 0.57023 0.0
C496 C 0.86397 0.75549 0.54967 0.0
C497 C 0.86703 0.72922 0.58882 0.0
C498 C 0.84779 0.71954 0.64764 0.0
C499 C 0.856 0.68967 0.67687 0.0
C500 C 0.86349 0.68987 0.76965 0.0
C501 C 0.83201 0.66793 0.65749 0.0
C502 C 0.88249 0.68419 0.62413 0.0
C503 C 0.88834 0.7075 0.57436 0.0
C504 C 0.91088 0.70768 0.51805 0.0
C505 C 0.92806 0.68328 0.512 0.0
C506 C 0.92267 0.65892 0.562 0.0
C507 C 0.89965 0.65949 0.61935 0.0
H508 H 0.34205 0.39932 0.03994 0.0
H509 H 0.32655 0.42431 0.29554 0.0
H510 H 0.37012 0.45403 0.29403 0.0
H511 H 0.42145 0.39852 0.05151 0.0
H512 H 0.42577 0.41385 0.94987 0.0
H513 H 0.39492 0.39177 0.9723 0.0
H514 H 0.36103 0.43284 0.92606 0.0
H515 H 0.39172 0.45492 0.90303 0.0
H516 H 0.36452 0.46775 0.97341 0.0
H517 H 0.41227 0.48304 0.26489 0.0
H518 H 0.44988 0.51367 0.20552 0.0
H519 H 0.43924 0.47164 0.96702 0.0
C520 C 0.34811 0.4108 0.09572 0.0
C521 C 0.331 0.40952 0.16788 0.0
C522 C 0.33926 0.42514 0.2394 0.0
C523 C 0.36412 0.44186 0.23951 0.0
C524 C 0.38046 0.44281 0.16756 0.0
C525 C 0.37282 0.42798 0.09664 0.0
C526 C 0.39303 0.43496 0.02576 0.0
C527 C 0.40979 0.40817 -0.00174 0.0
C528 C 0.37659 0.44842 0.95278 0.0
C529 C 0.41264 0.4566 0.06768 0.0
C530 C 0.40514 0.46027 0.1499 0.0
C531 C 0.4186 0.48023 0.2009 0.0
C532 C 0.43983 0.49757 0.1665 0.0
C533 C 0.44735 0.49491 0.08187 0.0
C534 C 0.43415 0.47368 0.03221 0.0
H535 H 0.43572 0.65416 0.82671 0.0
H536 H 0.3988 0.61779 0.04991 0.0
H537 H 0.35422 0.64553 0.02585 0.0
H538 H 0.40822 0.72417 0.85571 0.0
H539 H 0.4021 0.73043 0.74696 0.0
H540 H 0.43004 0.70623 0.77926 0.0
H541 H 0.40753 0.66589 0.68918 0.0
H542 H 0.37938 0.68995 0.65692 0.0
H543 H 0.3704 0.65615 0.70435 0.0
H544 H 0.314 0.67795 0.97775 0.0
H545 H 0.28308 0.71549 0.91673 0.0
H546 H 0.3476 0.73128 0.72815 0.0
C547 C 0.41819 0.65179 0.87027 0.0
C548 C 0.42063 0.6337 0.93993 0.0
C549 C 0.39737 0.63156 -0.00388 0.0
C550 C 0.37193 0.64708 -0.01729 0.0
C551 C 0.37026 0.66468 0.91316 0.0
C552 C 0.39289 0.66726 0.85832 0.0
C553 C 0.38643 0.68882 0.79102 0.0
C554 C 0.40797 0.71389 0.79345 0.0
C555 C 0.3859 0.67433 0.7053 0.0
C556 C 0.35672 0.69828 0.81704 0.0
C557 C 0.34755 0.68383 0.88686 0.0
C558 C 0.32092 0.68934 0.92294 0.0
C559 C 0.30348 0.7106 0.88764 0.0
C560 C 0.31296 0.7263 0.81773 0.0
C561 C 0.33976 0.71967 0.78158 0.0
H562 H 0.17493 0.7188 0.73402 0.0
H563 H 0.15095 0.78797 0.5678 0.0
H564 H 0.11159 0.75851 0.51199 0.0
H565 H 0.16282 0.66231 0.59162 0.0
H566 H 0.14816 0.63756 0.66609 0.0
H567 H 0.17338 0.66464 0.69895 0.0
H568 H 0.13691 0.68342 0.80747 0.0
H569 H 0.1117 0.65616 0.77566 0.0
H570 H 0.10124 0.69339 0.77464 0.0
H571 H 0.07702 0.72154 0.46802 0.0
H572 H 0.04669 0.6792 0.44293 0.0
H573 H 0.0925 0.63307 0.63604 0.0
C574 C 0.16101 0.72788 0.68711 0.0
C575 C 0.16598 0.75566 0.65528 0.0
C576 C 0.14761 0.76669 0.5929 0.0
C577 C 0.12517 0.75016 0.56076 0.0
C578 C 0.12132 0.72263 0.59163 0.0
C579 C 0.13847 0.71155 0.65377 0.0
C580 C 0.13006 0.68087 0.67338 0.0
C581 C 0.1551 0.66013 0.65647 0.0
C582 C 0.11933 0.67832 0.76312 0.0
C583 C 0.1058 0.6765 0.61181 0.0
C584 C 0.10116 0.70095 0.56558 0.0
C585 C 0.08024 0.70228 0.50412 0.0
C586 C 0.06318 0.67805 0.49022 0.0
C587 C 0.06717 0.65278 0.53751 0.0
C588 C 0.08897 0.652 0.59867 0.0
H589 H 0.18773 0.44418 0.31453 0.0
H590 H 0.13946 0.39819 0.12616 0.0
H591 H 0.09752 0.42937 0.15227 0.0
H592 H 0.13257 0.44818 0.45516 0.0
H593 H 0.14094 0.48341 0.49475 0.0
H594 H 0.16895 0.46145 0.45143 0.0
H595 H 0.18194 0.50172 0.34759 0.0
H596 H 0.15416 0.52403 0.39138 0.0
H597 H 0.15434 0.51648 0.2818 0.0
H598 H 0.05969 0.46107 0.20886 0.0
H599 H 0.02771 0.49157 0.29194 0.0
H600 H 0.09978 0.51612 0.44859 0.0
C601 C 0.16866 0.44139 0.27678 0.0
C602 C 0.16685 0.4191 0.21752 0.0
C603 C 0.14125 0.41533 0.17135 0.0
C604 C 0.1174 0.43296 0.18561 0.0
C605 C 0.11953 0.45411 0.24648 0.0
C606 C 0.14451 0.45852 0.29117 0.0
C607 C 0.1401 0.48057 0.35918 0.0
C608 C 0.14598 0.46761 0.44518 0.0
C609 C 0.15874 0.50729 0.34405 0.0
C610 C 0.10851 0.48717 0.34736 0.0
C611 C 0.09725 0.47199 0.28115 0.0
C612 C 0.06829 0.47334 0.26024 0.0
C613 C 0.05028 0.49063 0.30834 0.0
C614 C 0.0612 0.50621 0.3772 0.0
C615 C 0.0908 0.50458 0.3963 0.0
H616 H 0.9721 0.06451 0.79495 0.0
H617 H 0.03289 0.13406 0.76004 0.0
H618 H 0.0515 0.12683 0.90105 0.0
H619 H 0.9587 0.08107 0.0214 0.0
H620 H 0.95475 0.04348 0.04479 0.0
H621 H 0.94442 0.0568 0.9445 0.0
H622 H 0.97804 0.01882 0.87797 0.0
H623 H 0.98988 0.0067 0.97822 0.0
H624 H 0.0158 0.019 0.90336 0.0
H625 H 0.06925 0.10704 0.03067 0.0
H626 H 0.07261 0.08926 0.17362 0.0
H627 H -0.00137 0.03446 0.13181 0.0
C628 C 0.98818 0.07918 0.81891 0.0
C629 C 0.00133 0.09968 0.76738 0.0
C630 C 0.02269 0.11826 0.79946 0.0
C631 C 0.03373 0.11398 0.87859 0.0
C632 C 0.02251 0.09155 0.92483 0.0
C633 C -0.00079 0.07549 0.89869 0.0
C634 C 0.99095 0.05333 0.96282 0.0
C635 C 0.96041 0.05902 -0.00464 0.0
C636 C 0.99385 0.02265 0.92847 0.0
C637 C 0.01357 0.05935 0.02815 0.0
C638 C 0.03206 0.08086 0.00311 0.0
C639 C 0.05472 0.09048 0.05188 0.0
C640 C 0.05681 0.07989 0.13217 0.0
C641 C 0.0359 0.06061 0.16253 0.0
C642 C 0.01518 0.04873 0.10881 0.0
H643 H 0.26446 0.76928 0.39822 0.0
H644 H 0.31488 0.84597 0.44113 0.0
H645 H 0.31144 0.85814 0.29279 0.0
H646 H 0.29269 0.75604 0.17351 0.0
H647 H 0.25775 0.74283 0.14377 0.0
H648 H 0.27112 0.73653 0.247 0.0
H649 H 0.22471 0.75964 0.3051 0.0
H650 H 0.21187 0.7677 0.20277 0.0
H651 H 0.21599 0.79613 0.27782 0.0
H652 H 0.29043 0.86882 0.15707 0.0
H653 H 0.26688 0.87034 0.02133 0.0
H654 H 0.23216 0.78483 0.06209 0.0
C655 C 0.27635 0.78751 0.37472 0.0
C656 C 0.29023 0.8066 0.42913 0.0
C657 C 0.30479 0.83093 0.39881 0.0
C658 C 0.30266 0.8381 0.31515 0.0
C659 C 0.28659 0.82015 0.26381 0.0
C660 C 0.27488 0.79459 0.29118 0.0
C661 C 0.25657 0.78052 0.22507 0.0
C662 C 0.27036 0.75232 0.19556 0.0
C663 C 0.22546 0.77574 0.25453 0.0
C664 C 0.25802 0.80326 0.15896 0.0
C665 C 0.27536 0.82591 0.18279 0.0
C666 C 0.27778 0.85072 0.13597 0.0
C667 C 0.26382 0.85152 0.05957 0.0
C668 C 0.24809 0.8274 0.03039 0.0
C669 C 0.2443 0.80343 0.08224 0.0
H670 H 0.53254 0.09947 0.65526 0.0
H671 H 0.44781 0.13354 0.70545 0.0
H672 H 0.43401 0.12527 0.5592 0.0
H673 H 0.5371 0.12546 0.4301 0.0
H674 H 0.55628 0.09331 0.40196 0.0
H675 H 0.56089 0.10868 0.50368 0.0
H676 H 0.54706 0.0595 0.56689 0.0
H677 H 0.54074 0.04438 0.46596 0.0
H678 H 0.51256 0.04393 0.5425 0.0
H679 H 0.42672 0.10354 0.41784 0.0
H680 H 0.42977 0.08099 0.27971 0.0
H681 H 0.51954 0.06053 0.32509 0.0
C682 C 0.51173 0.10683 0.63383 0.0
C683 C 0.49133 0.11757 0.69018 0.0
C684 C 0.46388 0.12604 0.66195 0.0
C685 C 0.45577 0.12099 0.57947 0.0
C686 C 0.47567 0.10801 0.52682 0.0
C687 C 0.50348 0.10208 0.552 0.0
C688 C 0.52005 0.08607 0.48601 0.0
C689 C 0.54505 0.10448 0.45349 0.0
C690 C 0.5307 0.05675 0.51729 0.0
C691 C 0.49682 0.08259 0.42151 0.0
C692 C 0.47142 0.09542 0.44584 0.0
C693 C 0.44668 0.09397 0.39734 0.0
C694 C 0.44852 0.08065 0.31955 0.0
C695 C 0.47496 0.06906 0.2913 0.0
C696 C 0.49902 0.06917 0.34461 0.0
H697 H 0.25163 0.29985 0.88395 0.0
H698 H 0.18373 0.36148 0.92861 0.0
H699 H 0.18389 0.37457 0.78029 0.0
H700 H 0.29178 0.3397 0.76437 0.0
H701 H 0.30326 0.31303 0.69043 0.0
H702 H 0.29311 0.30236 0.79316 0.0
H703 H 0.2545 0.26739 0.73598 0.0
H704 H 0.26561 0.27661 0.63249 0.0
H705 H 0.22843 0.28014 0.66199 0.0
H706 H 0.1998 0.38876 0.63957 0.0
H707 H 0.22142 0.39474 0.50163 0.0
H708 H 0.27898 0.32328 0.55053 0.0
C709 C 0.23577 0.31492 0.86111 0.0
C710 C 0.21758 0.32965 0.91588 0.0
C711 C 0.1974 0.34974 0.88608 0.0
C712 C 0.19757 0.35745 0.80247 0.0
C713 C 0.21757 0.34423 0.75082 0.0
C714 C 0.23551 0.32254 0.77814 0.0
C715 C 0.25677 0.31358 0.71254 0.0
C716 C 0.28806 0.31742 0.74196 0.0
C717 C 0.25096 0.2826 0.68403 0.0
C718 C 0.2492 0.33485 0.64604 0.0
C719 C 0.22653 0.35226 0.66905 0.0
C720 C 0.217 0.37472 0.61969 0.0
C721 C 0.2298 0.37825 0.54217 0.0
C722 C 0.2517 0.35923 0.51527 0.0
C723 C 0.26215 0.33799 0.56921 0.0
H724 H 0.73766 0.3658 0.0029 0.0
H725 H 0.80666 0.30524 0.04475 0.0
H726 H 0.80634 0.29243 0.89605 0.0
H727 H 0.69789 0.32568 0.88284 0.0
H728 H 0.68578 0.35217 0.80952 0.0
H729 H 0.69607 0.363 0.91224 0.0
H730 H 0.73395 0.39853 0.85507 0.0
H731 H 0.72268 0.38917 0.75159 0.0
H732 H 0.76 0.38621 0.78043 0.0
H733 H 0.78992 0.27779 0.75603 0.0
H734 H 0.76778 0.27115 0.6189 0.0
H735 H 0.70975 0.34223 0.66846 0.0
C736 C 0.75379 0.35116 -0.02069 0.0
C737 C 0.77236 0.33661 0.03351 0.0
C738 C 0.79277 0.31692 0.00274 0.0
C739 C 0.79249 0.30933 0.91887 0.0
C740 C 0.77212 0.32229 0.86784 0.0
C741 C 0.75395 0.34368 0.89597 0.0
C742 C 0.73234 0.35232 0.83079 0.0
C743 C 0.7012 0.34801 0.86072 0.0
C744 C 0.73757 0.3834 0.80278 0.0
C745 C 0.73999 0.33119 0.7636 0.0
C746 C 0.76297 0.3141 0.78606 0.0
C747 C 0.77251 0.29162 0.73652 0.0
C748 C 0.7594 0.28771 0.65941 0.0
C749 C 0.73719 0.30641 0.63281 0.0
C750 C 0.72681 0.32776 0.68687 0.0
H751 H 0.71455 0.80024 0.35118 0.0
H752 H 0.69782 0.89027 0.39683 0.0
H753 H 0.70638 0.90075 0.24894 0.0
H754 H 0.771 0.80783 0.23319 0.0
H755 H 0.76434 0.77981 0.1584 0.0
H756 H 0.74925 0.77725 0.2605 0.0
H757 H 0.69769 0.77284 0.20114 0.0
H758 H 0.71263 0.77372 0.09821 0.0
H759 H 0.68503 0.79892 0.12735 0.0
H760 H 0.7288 0.90275 0.10903 0.0
H761 H 0.75105 0.89486 0.97253 0.0
H762 H 0.75231 0.80302 0.01771 0.0
C763 C 0.71095 0.82182 0.32859 0.0
C764 C 0.7053 0.84446 0.38405 0.0
C765 C 0.70152 0.87266 0.3542 0.0
C766 C 0.70671 0.87881 0.27068 0.0
C767 C 0.71485 0.85631 0.21868 0.0
C768 C 0.71574 0.82816 0.24555 0.0
C769 C 0.72759 0.80833 0.17966 0.0
C770 C 0.75464 0.79239 0.20982 0.0
C771 C 0.70435 0.78721 0.14979 0.0
C772 C 0.73489 0.82993 0.11357 0.0
C773 C 0.72738 0.85745 0.13715 0.0
C774 C 0.73403 0.88121 0.08883 0.0
C775 C 0.74722 0.87653 0.01214 0.0
C776 C 0.75339 0.84827 -0.01537 0.0
C777 C 0.74776 0.82482 0.03708 0.0
H778 H 0.476 0.55662 0.64337 0.0
H779 H 0.5629 0.52851 0.69427 0.0
H780 H 0.57656 0.53914 0.54929 0.0
H781 H 0.47342 0.53262 0.41872 0.0
H782 H 0.45219 0.56364 0.3925 0.0
H783 H 0.44875 0.54754 0.49332 0.0
H784 H 0.45961 0.59721 0.5591 0.0
H785 H 0.46482 0.61313 0.45891 0.0
H786 H 0.49303 0.615 0.53543 0.0
H787 H 0.58223 0.56124 0.40733 0.0
H788 H 0.577 0.5823 0.26796 0.0
H789 H 0.48646 0.59766 0.31594 0.0
C790 C 0.49745 0.55121 0.6224 0.0
C791 C 0.51837 0.54145 0.67859 0.0
C792 C 0.5465 0.53532 0.65085 0.0
C793 C 0.55451 0.54175 0.56921 0.0
C794 C 0.53389 0.55382 0.51706 0.0
C795 C 0.50567 0.55752 0.54176 0.0
C796 C 0.48808 0.57273 0.47673 0.0
C797 C 0.46421 0.55295 0.44331 0.0
C798 C 0.47568 0.60119 0.50958 0.0
C799 C 0.51099 0.57794 0.41264 0.0
C800 C 0.53727 0.56693 0.43669 0.0
C801 C 0.56166 0.56958 0.38734 0.0
C802 C 0.55858 0.58207 0.30891 0.0
C803 C 0.53127 0.59159 0.28112 0.0
C804 C 0.5076 0.59064 0.33543 0.0
H805 H 0.03378 0.5856 0.85044 0.0
H806 H 0.98449 0.50886 0.79874 0.0
H807 H 0.97405 0.50339 0.94757 0.0
H808 H 0.05947 0.56329 0.07053 0.0
H809 H 0.05559 0.59984 0.10548 0.0
H810 H 0.06653 0.5925 0.00043 0.0
H811 H 0.02437 0.62399 0.94866 0.0
H812 H 0.01232 0.63029 0.05277 0.0
H813 H 0.98808 0.61484 0.97769 0.0
H814 H 0.9586 0.51328 0.08911 0.0
H815 H 0.94691 0.53211 0.22722 0.0
H816 H 0.00591 0.60323 0.18866 0.0
C817 C 0.0225 0.56667 0.87183 0.0
C818 C 0.0105 0.54716 0.81513 0.0
C819 C 0.99442 0.5234 0.84283 0.0
C820 C 0.98827 0.52029 0.92684 0.0
C821 C -0.00148 0.54114 -0.01879 0.0
C822 C 0.01606 0.56344 0.95557 0.0
C823 C 0.02084 0.58504 0.02433 0.0
C824 C 0.05249 0.58516 0.05185 0.0
C825 C 0.01079 0.6153 -0.00071 0.0
C826 C 0.00169 0.57243 0.09024 0.0
C827 C 0.98929 0.547 0.06434 0.0
C828 C 0.96889 0.53265 0.11144 0.0
C829 C 0.96208 0.5438 0.18924 0.0
C830 C 0.97573 0.56902 0.21897 0.0
C831 C 0.99526 0.58383 0.16786 0.0
loop_
_geom_bond_atom_site_label_1
_geom_bond_atom_site_label_2
_geom_bond_distance
_geom_bond_site_symmetry_2
_ccdc_geom_bond_type
O0 Zn1 1.953 1_465 S
O0 C16 1.225 1_565 S
Zn1 O0 1.953 1_645 S
Zn1 O2 1.949 1_655 S
Zn1 O8 1.919 . S
Zn1 O13 1.924 1_655 S
O2 Zn1 1.949 1_455 S
O2 Zn3 1.923 1_455 S
O2 Zn4 1.950 . S
O2 Zn5 1.945 1_455 S
Zn3 O2 1.923 1_655 S
Zn3 O6 1.933 . S
Zn3 O9 1.941 . S
Zn3 O10 1.965 . S
Zn4 O2 1.950 . S
Zn4 O11 1.938 . S
Zn4 O12 1.906 . S
Zn4 O22 1.953 . S
Zn5 O2 1.945 1_655 S
Zn5 O7 1.932 . S
Zn5 O14 1.977 1_655 S
Zn5 O15 1.910 1_655 S
O6 Zn3 1.933 . S
O6 C17 1.226 . S
O7 Zn5 1.932 . S
O7 C17 1.307 . S
O8 Zn1 1.919 . S
O8 C19 1.253 . S
O9 Zn3 1.941 . S
O9 C19 1.283 . S
O10 Zn3 1.965 . S
O10 C18 1.303 1_655 S
O11 Zn4 1.938 . S
O11 C18 1.247 . S
O12 Zn4 1.906 . S
O12 C20 1.304 . S
O13 Zn1 1.924 1_455 S
O13 C21 1.311 . S
O14 Zn5 1.977 1_455 S
O14 C20 1.272 . S
O15 Zn5 1.910 1_455 S
O15 C21 1.231 . S
C16 O0 1.225 1_545 S
C16 O22 1.298 . S
C17 O6 1.226 . S
C17 O7 1.307 . S
C18 O10 1.303 1_455 S
C18 O11 1.247 . S
C19 O8 1.253 . S
C19 O9 1.283 . S
C20 O12 1.304 . S
C20 O14 1.272 . S
C21 O13 1.311 . S
C21 O15 1.231 . S
O22 Zn4 1.953 . S
O22 C16 1.298 . S
O23 Zn24 1.953 . S
O23 C39 1.225 . S
Zn24 O23 1.953 . S
Zn24 O25 1.949 . S
Zn24 O31 1.919 . S
Zn24 O36 1.924 . S
O25 Zn24 1.949 . S
O25 Zn26 1.923 . S
O25 Zn27 1.950 . S
O25 Zn28 1.945 . S
Zn26 O25 1.923 . S
Zn26 O29 1.933 . S
Zn26 O32 1.941 . S
Zn26 O33 1.965 . S
Zn27 O25 1.950 . S
Zn27 O34 1.938 . S
Zn27 O35 1.906 . S
Zn27 O45 1.953 . S
Zn28 O25 1.945 . S
Zn28 O30 1.932 . S
Zn28 O37 1.977 . S
Zn28 O38 1.910 . S
O29 Zn26 1.933 . S
O29 C40 1.226 . S
O30 Zn28 1.932 . S
O30 C40 1.307 . S
O31 Zn24 1.919 . S
O31 C42 1.253 . S
O32 Zn26 1.941 . S
O32 C42 1.283 . S
O33 Zn26 1.965 . S
O33 C41 1.303 . S
O34 Zn27 1.938 . S
O34 C41 1.247 . S
O35 Zn27 1.906 . S
O35 C43 1.304 . S
O36 Zn24 1.924 . S
O36 C44 1.311 . S
O37 Zn28 1.977 . S
O37 C43 1.272 . S
O38 Zn28 1.910 . S
O38 C44 1.231 . S
C39 O23 1.225 . S
C39 O45 1.298 . S
C40 O29 1.226 . S
C40 O30 1.307 . S
C41 O33 1.303 . S
C41 O34 1.247 . S
C42 O31 1.253 . S
C42 O32 1.283 . S
C43 O35 1.304 . S
C43 O37 1.272 . S
C44 O36 1.311 . S
C44 O38 1.231 . S
O45 Zn27 1.953 . S
O45 C39 1.298 . S
O46 Zn47 1.953 1_554 S
O46 C62 1.225 . S
Zn47 O46 1.953 1_556 S
Zn47 O48 1.949 1_556 S
Zn47 O54 1.919 1_556 S
Zn47 O59 1.924 . S
O48 Zn47 1.949 1_554 S
O48 Zn49 1.923 . S
O48 Zn50 1.950 . S
O48 Zn51 1.945 1_554 S
Zn49 O48 1.923 . S
Zn49 O52 1.933 . S
Zn49 O55 1.941 . S
Zn49 O56 1.965 . S
Zn50 O48 1.950 . S
Zn50 O57 1.938 . S
Zn50 O58 1.906 . S
Zn50 O68 1.953 . S
Zn51 O48 1.945 1_556 S
Zn51 O53 1.932 . S
Zn51 O60 1.977 . S
Zn51 O61 1.910 . S
O52 Zn49 1.933 . S
O52 C63 1.226 1_554 S
O53 Zn51 1.932 . S
O53 C63 1.307 . S
O54 Zn47 1.919 1_554 S
O54 C65 1.253 . S
O55 Zn49 1.941 . S
O55 C65 1.283 . S
O56 Zn49 1.965 . S
O56 C64 1.303 . S
O57 Zn50 1.938 . S
O57 C64 1.247 . S
O58 Zn50 1.906 . S
O58 C66 1.304 1_554 S
O59 Zn47 1.924 . S
O59 C67 1.311 . S
O60 Zn51 1.977 . S
O60 C66 1.272 . S
O61 Zn51 1.910 . S
O61 C67 1.231 . S
C62 O46 1.225 . S
C62 O68 1.298 . S
C63 O52 1.226 1_556 S
C63 O53 1.307 . S
C64 O56 1.303 . S
C64 O57 1.247 . S
C65 O54 1.253 . S
C65 O55 1.283 . S
C66 O58 1.304 1_556 S
C66 O60 1.272 . S
C67 O59 1.311 . S
C67 O61 1.231 . S
O68 Zn50 1.953 . S
O68 C62 1.298 . S
O69 Zn70 1.953 . S
O69 C85 1.225 . S
Zn70 O69 1.953 . S
Zn70 O71 1.949 . S
Zn70 O77 1.919 . S
Zn70 O82 1.924 . S
O71 Zn70 1.949 . S
O71 Zn72 1.923 . S
O71 Zn73 1.950 . S
O71 Zn74 1.945 . S
Zn72 O71 1.923 . S
Zn72 O75 1.933 . S
Zn72 O78 1.941 . S
Zn72 O79 1.965 . S
Zn73 O71 1.950 . S
Zn73 O80 1.938 . S
Zn73 O81 1.906 . S
Zn73 O91 1.953 . S
Zn74 O71 1.945 . S
Zn74 O76 1.932 . S
Zn74 O83 1.977 . S
Zn74 O84 1.910 . S
O75 Zn72 1.933 . S
O75 C86 1.226 . S
O76 Zn74 1.932 . S
O76 C86 1.307 . S
O77 Zn70 1.919 . S
O77 C88 1.253 . S
O78 Zn72 1.941 . S
O78 C88 1.283 . S
O79 Zn72 1.965 . S
O79 C87 1.303 . S
O80 Zn73 1.938 . S
O80 C87 1.247 . S
O81 Zn73 1.906 . S
O81 C89 1.304 . S
O82 Zn70 1.924 . S
O82 C90 1.311 . S
O83 Zn74 1.977 . S
O83 C89 1.272 . S
O84 Zn74 1.910 . S
O84 C90 1.231 . S
C85 O69 1.225 . S
C85 O91 1.298 . S
C86 O75 1.226 . S
C86 O76 1.307 . S
C87 O79 1.303 . S
C87 O80 1.247 . S
C88 O77 1.253 . S
C88 O78 1.283 . S
C89 O81 1.304 . S
C89 O83 1.272 . S
C90 O82 1.311 . S
C90 O84 1.231 . S
O91 Zn73 1.953 . S
O91 C85 1.298 . S
O92 Zn93 1.953 . S
O92 C108 1.225 . S
Zn93 O92 1.953 . S
Zn93 O94 1.949 . S
Zn93 O100 1.919 . S
Zn93 O105 1.924 . S
O94 Zn93 1.949 . S
O94 Zn95 1.923 . S
O94 Zn96 1.950 . S
O94 Zn97 1.945 . S
Zn95 O94 1.923 . S
Zn95 O98 1.933 . S
Zn95 O101 1.941 . S
Zn95 O102 1.965 . S
Zn96 O94 1.950 . S
Zn96 O103 1.938 . S
Zn96 O104 1.906 . S
Zn96 O114 1.953 . S
Zn97 O94 1.945 . S
Zn97 O99 1.932 . S
Zn97 O106 1.977 . S
Zn97 O107 1.910 . S
O98 Zn95 1.933 . S
O98 C109 1.226 . S
O99 Zn97 1.932 . S
O99 C109 1.307 . S
O100 Zn93 1.919 . S
O100 C111 1.253 . S
O101 Zn95 1.941 . S
O101 C111 1.283 . S
O102 Zn95 1.965 . S
O102 C110 1.303 . S
O103 Zn96 1.938 . S
O103 C110 1.247 . S
O104 Zn96 1.906 . S
O104 C112 1.304 . S
O105 Zn93 1.924 . S
O105 C113 1.311 . S
O106 Zn97 1.977 . S
O106 C112 1.272 . S
O107 Zn97 1.910 . S
O107 C113 1.231 . S
C108 O92 1.225 . S
C108 O114 1.298 . S
C109 O98 1.226 . S
C109 O99 1.307 . S
C110 O102 1.303 . S
C110 O103 1.247 . S
C111 O100 1.253 . S
C111 O101 1.283 . S
C112 O104 1.304 . S
C112 O106 1.272 . S
C113 O105 1.311 . S
C113 O107 1.231 . S
O114 Zn96 1.953 . S
O114 C108 1.298 . S
O115 Zn116 1.953 . S
O115 C131 1.225 . S
Zn116 O115 1.953 . S
Zn116 O117 1.949 . S
Zn116 O123 1.919 . S
Zn116 O128 1.924 . S
O117 Zn116 1.949 . S
O117 Zn118 1.923 . S
O117 Zn119 1.950 . S
O117 Zn120 1.945 . S
Zn118 O117 1.923 . S
Zn118 O121 1.933 . S
Zn118 O124 1.941 . S
Zn118 O125 1.965 . S
Zn119 O117 1.950 . S
Zn119 O126 1.938 . S
Zn119 O127 1.906 . S
Zn119 O137 1.953 . S
Zn120 O117 1.945 . S
Zn120 O122 1.932 . S
Zn120 O129 1.977 . S
Zn120 O130 1.910 . S
O121 Zn118 1.933 . S
O121 C132 1.226 . S
O122 Zn120 1.932 . S
O122 C132 1.307 . S
O123 Zn116 1.919 . S
O123 C134 1.253 . S
O124 Zn118 1.941 . S
O124 C134 1.283 . S
O125 Zn118 1.965 . S
O125 C133 1.303 . S
O126 Zn119 1.938 . S
O126 C133 1.247 . S
O127 Zn119 1.906 . S
O127 C135 1.304 . S
O128 Zn116 1.924 . S
O128 C136 1.311 . S
O129 Zn120 1.977 . S
O129 C135 1.272 . S
O130 Zn120 1.910 . S
O130 C136 1.231 . S
C131 O115 1.225 . S
C131 O137 1.298 . S
C132 O121 1.226 . S
C132 O122 1.307 . S
C133 O125 1.303 . S
C133 O126 1.247 . S
C134 O123 1.253 . S
C134 O124 1.283 . S
C135 O127 1.304 . S
C135 O129 1.272 . S
C136 O128 1.311 . S
C136 O130 1.231 . S
O137 Zn119 1.953 . S
O137 C131 1.298 . S
O138 Zn139 1.953 1_554 S
O138 C154 1.225 . S
Zn139 O138 1.953 1_556 S
Zn139 O140 1.949 1_556 S
Zn139 O146 1.919 1_556 S
Zn139 O151 1.924 . S
O140 Zn139 1.949 1_554 S
O140 Zn141 1.923 . S
O140 Zn142 1.950 . S
O140 Zn143 1.945 1_554 S
Zn141 O140 1.923 . S
Zn141 O144 1.933 . S
Zn141 O147 1.941 . S
Zn141 O148 1.965 . S
Zn142 O140 1.950 . S
Zn142 O149 1.938 . S
Zn142 O150 1.906 . S
Zn142 O160 1.953 . S
Zn143 O140 1.945 1_556 S
Zn143 O145 1.932 . S
Zn143 O152 1.977 . S
Zn143 O153 1.910 . S
O144 Zn141 1.933 . S
O144 C155 1.226 1_554 S
O145 Zn143 1.932 . S
O145 C155 1.307 . S
O146 Zn139 1.919 1_554 S
O146 C157 1.253 . S
O147 Zn141 1.941 . S
O147 C157 1.283 . S
O148 Zn141 1.965 . S
O148 C156 1.303 . S
O149 Zn142 1.938 . S
O149 C156 1.247 . S
O150 Zn142 1.906 . S
O150 C158 1.304 1_554 S
O151 Zn139 1.924 . S
O151 C159 1.311 . S
O152 Zn143 1.977 . S
O152 C158 1.272 . S
O153 Zn143 1.910 . S
O153 C159 1.231 . S
C154 O138 1.225 . S
C154 O160 1.298 . S
C155 O144 1.226 1_556 S
C155 O145 1.307 . S
C156 O148 1.303 . S
C156 O149 1.247 . S
C157 O146 1.253 . S
C157 O147 1.283 . S
C158 O150 1.304 1_556 S
C158 O152 1.272 . S
C159 O151 1.311 . S
C159 O153 1.231 . S
O160 Zn142 1.953 . S
O160 C154 1.298 . S
O161 Zn162 1.953 1_655 S
O161 C177 1.225 . S
Zn162 O161 1.953 1_455 S
Zn162 O163 1.949 . S
Zn162 O169 1.919 . S
Zn162 O174 1.924 . S
O163 Zn162 1.949 . S
O163 Zn164 1.923 . S
O163 Zn165 1.950 1_455 S
O163 Zn166 1.945 . S
Zn164 O163 1.923 . S
Zn164 O167 1.933 . S
Zn164 O170 1.941 . S
Zn164 O171 1.965 . S
Zn165 O163 1.950 1_655 S
Zn165 O172 1.938 . S
Zn165 O173 1.906 . S
Zn165 O183 1.953 . S
Zn166 O163 1.945 . S
Zn166 O168 1.932 . S
Zn166 O175 1.977 1_455 S
Zn166 O176 1.910 . S
O167 Zn164 1.933 . S
O167 C178 1.226 . S
O168 Zn166 1.932 . S
O168 C178 1.307 . S
O169 Zn162 1.919 . S
O169 C180 1.253 . S
O170 Zn164 1.941 . S
O170 C180 1.283 . S
O171 Zn164 1.965 . S
O171 C179 1.303 1_455 S
O172 Zn165 1.938 . S
O172 C179 1.247 . S
O173 Zn165 1.906 . S
O173 C181 1.304 . S
O174 Zn162 1.924 . S
O174 C182 1.311 1_455 S
O175 Zn166 1.977 1_655 S
O175 C181 1.272 . S
O176 Zn166 1.910 . S
O176 C182 1.231 1_455 S
C177 O161 1.225 . S
C177 O183 1.298 . S
C178 O167 1.226 . S
C178 O168 1.307 . S
C179 O171 1.303 1_655 S
C179 O172 1.247 . S
C180 O169 1.253 . S
C180 O170 1.283 . S
C181 O173 1.304 . S
C181 O175 1.272 . S
C182 O174 1.311 1_655 S
C182 O176 1.231 1_655 S
O183 Zn165 1.953 . S
O183 C177 1.298 . S
H184 C196 0.930 . S
H185 C198 0.930 . S
H186 C199 0.930 . S
H187 C203 0.959 . S
H188 C203 0.959 . S
H189 C203 0.961 . S
H190 C204 0.960 . S
H191 C204 0.961 . S
H192 C204 0.959 . S
H193 C207 0.929 . S
H194 C208 0.931 . S
H195 C210 0.930 . S
C196 H184 0.930 . S
C196 C197 1.399 . S
C196 C201 1.399 . S
C197 C196 1.399 . S
C197 C198 1.376 . S
C198 H185 0.930 . S
C198 C197 1.376 . S
C198 C199 1.388 . S
C199 H186 0.930 . S
C199 C198 1.388 . S
C199 C200 1.390 . S
C200 C199 1.390 . S
C200 C201 1.394 . S
C200 C206 1.465 . S
C201 C196 1.399 . S
C201 C200 1.394 . S
C201 C202 1.516 . S
C202 C201 1.516 . S
C202 C203 1.502 . S
C202 C204 1.561 . S
C202 C205 1.526 . S
C203 H187 0.959 . S
C203 H188 0.959 . S
C203 H189 0.961 . S
C203 C202 1.502 . S
C204 H190 0.960 . S
C204 H191 0.961 . S
C204 H192 0.959 . S
C204 C202 1.561 . S
C205 C202 1.526 . S
C205 C206 1.396 . S
C205 C210 1.390 . S
C206 C200 1.465 . S
C206 C205 1.396 . S
C206 C207 1.399 . S
C207 H193 0.929 . S
C207 C206 1.399 . S
C207 C208 1.385 . S
C208 H194 0.931 . S
C208 C207 1.385 . S
C208 C209 1.389 . S
C209 C208 1.389 . S
C209 C210 1.387 . S
C210 H195 0.930 . S
C210 C205 1.390 . S
C210 C209 1.387 . S
H211 C223 0.930 . S
H212 C225 0.929 1_545 S
H213 C226 0.930 . S
H214 C230 0.959 . S
H215 C230 0.959 . S
H216 C230 0.961 . S
H217 C231 0.960 . S
H218 C231 0.961 . S
H219 C231 0.959 . S
H220 C234 0.929 . S
H221 C235 0.931 . S
H222 C237 0.930 . S
C223 H211 0.930 . S
C223 C224 1.399 . S
C223 C228 1.399 . S
C224 C223 1.399 . S
C224 C225 1.377 . S
C225 H212 0.929 1_565 S
C225 C224 1.377 . S
C225 C226 1.389 . S
C226 H213 0.930 . S
C226 C225 1.389 . S
C226 C227 1.390 . S
C227 C226 1.390 . S
C227 C228 1.394 . S
C227 C233 1.465 . S
C228 C223 1.399 . S
C228 C227 1.394 . S
C228 C229 1.516 . S
C229 C228 1.516 . S
C229 C230 1.502 . S
C229 C231 1.561 . S
C229 C232 1.526 . S
C230 H214 0.959 . S
C230 H215 0.959 . S
C230 H216 0.961 . S
C230 C229 1.502 . S
C231 H217 0.960 . S
C231 H218 0.961 . S
C231 H219 0.959 . S
C231 C229 1.561 . S
C232 C229 1.526 . S
C232 C233 1.396 . S
C232 C237 1.390 . S
C233 C227 1.465 . S
C233 C232 1.396 . S
C233 C234 1.399 . S
C234 H220 0.929 . S
C234 C233 1.399 . S
C234 C235 1.385 . S
C235 H221 0.931 . S
C235 C234 1.385 . S
C235 C236 1.389 . S
C236 C235 1.389 . S
C236 C237 1.387 . S
C237 H222 0.930 . S
C237 C232 1.390 . S
C237 C236 1.387 . S
H238 C250 0.930 . S
H239 C252 0.930 . S
H240 C253 0.930 . S
H241 C257 0.959 . S
H242 C257 0.959 1_554 S
H243 C257 0.961 . S
H244 C258 0.960 . S
H245 C258 0.961 . S
H246 C258 0.959 . S
H247 C261 0.929 . S
H248 C262 0.931 . S
H249 C264 0.930 1_554 S
C250 H238 0.930 . S
C250 C251 1.399 . S
C250 C255 1.399 . S
C251 C250 1.399 . S
C251 C252 1.376 . S
C252 H239 0.930 . S
C252 C251 1.376 . S
C252 C253 1.388 . S
C253 H240 0.930 . S
C253 C252 1.388 . S
C253 C254 1.390 . S
C254 C253 1.390 . S
C254 C255 1.394 . S
C254 C260 1.465 . S
C255 C250 1.399 . S
C255 C254 1.394 . S
C255 C256 1.516 . S
C256 C255 1.516 . S
C256 C257 1.502 . S
C256 C258 1.561 1_556 S
C256 C259 1.526 . S
C257 H241 0.959 . S
C257 H242 0.959 1_556 S
C257 H243 0.961 . S
C257 C256 1.502 . S
C258 H244 0.960 . S
C258 H245 0.961 . S
C258 H246 0.959 . S
C258 C256 1.561 1_554 S
C259 C256 1.526 . S
C259 C260 1.396 . S
C259 C264 1.390 1_565 S
C260 C254 1.465 . S
C260 C259 1.396 . S
C260 C261 1.399 . S
C261 H247 0.929 . S
C261 C260 1.399 . S
C261 C262 1.385 1_565 S
C262 H248 0.931 . S
C262 C261 1.385 1_545 S
C262 C263 1.389 . S
C263 C262 1.389 . S
C263 C264 1.387 . S
C264 H249 0.930 1_556 S
C264 C259 1.390 1_545 S
C264 C263 1.387 . S
H265 C277 0.930 . S
H266 C279 0.930 . S
H267 C280 0.930 . S
H268 C284 0.959 . S
H269 C284 0.959 . S
H270 C284 0.961 . S
H271 C285 0.960 . S
H272 C285 0.961 . S
H273 C285 0.959 . S
H274 C288 0.929 . S
H275 C289 0.931 . S
H276 C291 0.930 . S
C277 H265 0.930 . S
C277 C278 1.399 . S
C277 C282 1.399 . S
C278 C277 1.399 . S
C278 C279 1.376 . S
C279 H266 0.930 . S
C279 C278 1.376 . S
C279 C280 1.388 . S
C280 H267 0.930 . S
C280 C279 1.388 . S
C280 C281 1.390 . S
C281 C280 1.390 . S
C281 C282 1.394 . S
C281 C287 1.465 . S
C282 C277 1.399 . S
C282 C281 1.394 . S
C282 C283 1.516 . S
C283 C282 1.516 . S
C283 C284 1.502 . S
C283 C285 1.561 1_554 S
C283 C286 1.526 . S
C284 H268 0.959 . S
C284 H269 0.959 . S
C284 H270 0.961 . S
C284 C283 1.502 . S
C285 H271 0.960 . S
C285 H272 0.961 . S
C285 H273 0.959 . S
C285 C283 1.561 1_556 S
C286 C283 1.526 . S
C286 C287 1.396 . S
C286 C291 1.390 . S
C287 C281 1.465 . S
C287 C286 1.396 . S
C287 C288 1.399 . S
C288 H274 0.929 . S
C288 C287 1.399 . S
C288 C289 1.385 . S
C289 H275 0.931 . S
C289 C288 1.385 . S
C289 C290 1.389 . S
C290 C289 1.389 . S
C290 C291 1.387 . S
C291 H276 0.930 . S
C291 C286 1.390 . S
C291 C290 1.387 . S
H292 C304 0.930 . S
H293 C306 0.930 . S
H294 C307 0.930 . S
H295 C311 0.959 . S
H296 C311 0.959 . S
H297 C311 0.961 . S
H298 C312 0.960 1_545 S
H299 C312 0.961 . S
H300 C312 0.959 . S
H301 C315 0.929 . S
H302 C316 0.931 . S
H303 C318 0.930 . S
C304 H292 0.930 . S
C304 C305 1.404 . S
C304 C309 1.399 . S
C305 C304 1.404 . S
C305 C306 1.382 . S
C306 H293 0.930 . S
C306 C305 1.382 . S
C306 C307 1.388 . S
C307 H294 0.930 . S
C307 C306 1.388 . S
C307 C308 1.390 . S
C308 C307 1.390 . S
C308 C309 1.394 . S
C308 C314 1.465 . S
C309 C304 1.399 . S
C309 C308 1.394 . S
C309 C310 1.516 . S
C310 C309 1.516 . S
C310 C311 1.502 . S
C310 C312 1.561 . S
C310 C313 1.526 . S
C311 H295 0.959 . S
C311 H296 0.959 . S
C311 H297 0.961 . S
C311 C310 1.502 . S
C312 H298 0.960 1_565 S
C312 H299 0.961 . S
C312 H300 0.959 . S
C312 C310 1.561 . S
C313 C310 1.526 . S
C313 C314 1.396 . S
C313 C318 1.390 . S
C314 C308 1.465 . S
C314 C313 1.396 . S
C314 C315 1.399 . S
C315 H301 0.929 . S
C315 C314 1.399 . S
C315 C316 1.385 . S
C316 H302 0.931 . S
C316 C315 1.385 . S
C316 C317 1.389 . S
C317 C316 1.389 . S
C317 C318 1.387 . S
C318 H303 0.930 . S
C318 C313 1.390 . S
C318 C317 1.387 . S
H319 C331 0.930 . S
H320 C333 0.930 . S
H321 C334 0.930 . S
H322 C338 0.959 . S
H323 C338 0.959 . S
H324 C338 0.961 . S
H325 C339 0.960 . S
H326 C339 0.961 . S
H327 C339 0.959 . S
H328 C342 0.929 . S
H329 C343 0.931 . S
H330 C345 0.930 . S
C331 H319 0.930 . S
C331 C332 1.399 . S
C331 C336 1.399 . S
C332 C331 1.399 . S
C332 C333 1.376 . S
C333 H320 0.930 . S
C333 C332 1.376 . S
C333 C334 1.388 . S
C334 H321 0.930 . S
C334 C333 1.388 . S
C334 C335 1.390 . S
C335 C334 1.390 . S
C335 C336 1.394 . S
C335 C341 1.465 . S
C336 C331 1.399 . S
C336 C335 1.394 . S
C336 C337 1.516 . S
C337 C336 1.516 . S
C337 C338 1.502 . S
C337 C339 1.561 . S
C337 C340 1.526 . S
C338 H322 0.959 . S
C338 H323 0.959 . S
C338 H324 0.961 . S
C338 C337 1.502 . S
C339 H325 0.960 . S
C339 H326 0.961 . S
C339 H327 0.959 . S
C339 C337 1.561 . S
C340 C337 1.526 . S
C340 C341 1.396 . S
C340 C345 1.390 . S
C341 C335 1.465 . S
C341 C340 1.396 . S
C341 C342 1.399 . S
C342 H328 0.929 . S
C342 C341 1.399 . S
C342 C343 1.385 . S
C343 H329 0.931 . S
C343 C342 1.385 . S
C343 C344 1.389 . S
C344 C343 1.389 . S
C344 C345 1.387 . S
C345 H330 0.930 . S
C345 C340 1.390 . S
C345 C344 1.387 . S
H346 C358 0.930 . S
H347 C360 0.930 . S
H348 C361 0.930 . S
H349 C365 0.959 . S
H350 C365 0.959 . S
H351 C365 0.961 . S
H352 C366 0.960 . S
H353 C366 0.961 . S
H354 C366 0.959 . S
H355 C369 0.929 . S
H356 C370 0.931 . S
H357 C372 0.930 . S
C358 H346 0.930 . S
C358 C359 1.399 . S
C358 C363 1.399 . S
C359 C358 1.399 . S
C359 C360 1.376 . S
C360 H347 0.930 . S
C360 C359 1.376 . S
C360 C361 1.388 . S
C361 H348 0.930 . S
C361 C360 1.388 . S
C361 C362 1.390 . S
C362 C361 1.390 . S
C362 C363 1.394 . S
C362 C368 1.465 . S
C363 C358 1.399 . S
C363 C362 1.394 . S
C363 C364 1.516 . S
C364 C363 1.516 . S
C364 C365 1.502 . S
C364 C366 1.561 1_554 S
C364 C367 1.526 . S
C365 H349 0.959 . S
C365 H350 0.959 . S
C365 H351 0.961 . S
C365 C364 1.502 . S
C366 H352 0.960 . S
C366 H353 0.961 . S
C366 H354 0.959 . S
C366 C364 1.561 1_556 S
C367 C364 1.526 . S
C367 C368 1.396 . S
C367 C372 1.390 . S
C368 C362 1.465 . S
C368 C367 1.396 . S
C368 C369 1.399 . S
C369 H355 0.929 . S
C369 C368 1.399 . S
C369 C370 1.385 . S
C370 H356 0.931 . S
C370 C369 1.385 . S
C370 C371 1.389 . S
C371 C370 1.389 . S
C371 C372 1.387 . S
C372 H357 0.930 . S
C372 C367 1.390 . S
C372 C371 1.387 . S
H373 C385 0.930 . S
H374 C387 0.930 . S
H375 C388 0.930 1_554 S
H376 C392 0.959 1_545 S
H377 C392 0.959 1_545 S
H378 C392 0.961 . S
H379 C393 0.960 . S
H380 C393 0.961 . S
H381 C393 0.959 . S
H382 C396 0.929 . S
H383 C397 0.931 . S
H384 C399 0.930 . S
C385 H373 0.930 . S
C385 C386 1.399 . S
C385 C390 1.399 . S
C386 C385 1.399 . S
C386 C387 1.376 . S
C387 H374 0.930 . S
C387 C386 1.376 . S
C387 C388 1.388 . S
C388 H375 0.930 1_556 S
C388 C387 1.388 . S
C388 C389 1.390 . S
C389 C388 1.390 . S
C389 C390 1.394 . S
C389 C395 1.465 . S
C390 C385 1.399 . S
C390 C389 1.394 . S
C390 C391 1.516 . S
C391 C390 1.516 . S
C391 C392 1.502 . S
C391 C393 1.561 . S
C391 C394 1.526 . S
C392 H376 0.959 1_565 S
C392 H377 0.959 1_565 S
C392 H378 0.961 . S
C392 C391 1.502 . S
C393 H379 0.960 . S
C393 H380 0.961 . S
C393 H381 0.959 . S
C393 C391 1.561 . S
C394 C391 1.526 . S
C394 C395 1.396 . S
C394 C399 1.390 1_565 S
C395 C389 1.465 . S
C395 C394 1.396 . S
C395 C396 1.399 1_556 S
C396 H382 0.929 . S
C396 C395 1.399 1_554 S
C396 C397 1.385 1_565 S
C397 H383 0.931 . S
C397 C396 1.385 1_545 S
C397 C398 1.389 1_554 S
C398 C397 1.389 1_556 S
C398 C399 1.387 . S
C399 H384 0.930 . S
C399 C394 1.390 1_545 S
C399 C398 1.387 . S
H400 C412 0.930 . S
H401 C414 0.930 . S
H402 C415 0.930 1_554 S
H403 C419 0.959 . S
H404 C419 0.959 . S
H405 C419 0.961 . S
H406 C420 0.960 . S
H407 C420 0.961 . S
H408 C420 0.959 . S
H409 C423 0.929 . S
H410 C424 0.931 . S
H411 C426 0.930 . S
C412 H400 0.930 . S
C412 C413 1.399 . S
C412 C417 1.399 . S
C413 C412 1.399 . S
C413 C414 1.376 1_556 S
C414 H401 0.930 . S
C414 C413 1.376 1_554 S
C414 C415 1.388 1_554 S
C415 H402 0.930 1_556 S
C415 C414 1.388 1_556 S
C415 C416 1.390 . S
C416 C415 1.390 . S
C416 C417 1.394 . S
C416 C422 1.465 . S
C417 C412 1.399 . S
C417 C416 1.394 . S
C417 C418 1.516 . S
C418 C417 1.516 . S
C418 C419 1.502 . S
C418 C420 1.561 . S
C418 C421 1.526 . S
C419 H403 0.959 . S
C419 H404 0.959 . S
C419 H405 0.961 . S
C419 C418 1.502 . S
C420 H406 0.960 . S
C420 H407 0.961 . S
C420 H408 0.959 . S
C420 C418 1.561 . S
C421 C418 1.526 . S
C421 C422 1.396 . S
C421 C426 1.390 . S
C422 C416 1.465 . S
C422 C421 1.396 . S
C422 C423 1.399 . S
C423 H409 0.929 . S
C423 C422 1.399 . S
C423 C424 1.385 . S
C424 H410 0.931 . S
C424 C423 1.385 . S
C424 C425 1.389 . S
C425 C424 1.389 . S
C425 C426 1.387 . S
C426 H411 0.930 . S
C426 C421 1.390 . S
C426 C425 1.387 . S
H427 C439 0.930 . S
H428 C441 0.930 . S
H429 C442 0.930 . S
H430 C446 0.959 . S
H431 C446 0.959 . S
H432 C446 0.961 . S
H433 C447 0.960 . S
H434 C447 0.961 1_556 S
H435 C447 0.959 . S
H436 C450 0.929 . S
H437 C451 0.931 . S
H438 C453 0.930 1_556 S
C439 H427 0.930 . S
C439 C440 1.399 . S
C439 C444 1.399 . S
C440 C439 1.399 . S
C440 C441 1.376 . S
C441 H428 0.930 . S
C441 C440 1.376 . S
C441 C442 1.388 . S
C442 H429 0.930 . S
C442 C441 1.388 . S
C442 C443 1.390 . S
C443 C442 1.390 . S
C443 C444 1.394 . S
C443 C449 1.465 . S
C444 C439 1.399 . S
C444 C443 1.394 . S
C444 C445 1.516 . S
C445 C444 1.516 . S
C445 C446 1.502 1_554 S
C445 C447 1.561 . S
C445 C448 1.526 . S
C446 H430 0.959 . S
C446 H431 0.959 . S
C446 H432 0.961 . S
C446 C445 1.502 1_556 S
C447 H433 0.960 . S
C447 H434 0.961 1_554 S
C447 H435 0.959 . S
C447 C445 1.561 . S
C448 C445 1.526 . S
C448 C449 1.396 . S
C448 C453 1.390 . S
C449 C443 1.465 . S
C449 C448 1.396 . S
C449 C450 1.399 . S
C450 H436 0.929 . S
C450 C449 1.399 . S
C450 C451 1.385 . S
C451 H437 0.931 . S
C451 C450 1.385 . S
C451 C452 1.389 . S
C452 C451 1.389 . S
C452 C453 1.387 . S
C453 H438 0.930 1_554 S
C453 C448 1.390 . S
C453 C452 1.387 . S
H454 C466 0.930 . S
H455 C468 0.930 . S
H456 C469 0.930 . S
H457 C473 0.959 . S
H458 C473 0.959 . S
H459 C473 0.961 . S
H460 C474 0.960 . S
H461 C474 0.961 . S
H462 C474 0.959 . S
H463 C477 0.929 . S
H464 C478 0.931 . S
H465 C480 0.930 . S
C466 H454 0.930 . S
C466 C467 1.399 . S
C466 C471 1.399 . S
C467 C466 1.399 . S
C467 C468 1.376 . S
C468 H455 0.930 . S
C468 C467 1.376 . S
C468 C469 1.388 . S
C469 H456 0.930 . S
C469 C468 1.388 . S
C469 C470 1.390 . S
C470 C469 1.390 . S
C470 C471 1.394 . S
C470 C476 1.465 . S
C471 C466 1.399 . S
C471 C470 1.394 . S
C471 C472 1.516 . S
C472 C471 1.516 . S
C472 C473 1.502 . S
C472 C474 1.561 . S
C472 C475 1.526 . S
C473 H457 0.959 . S
C473 H458 0.959 . S
C473 H459 0.961 . S
C473 C472 1.502 . S
C474 H460 0.960 . S
C474 H461 0.961 . S
C474 H462 0.959 . S
C474 C472 1.561 . S
C475 C472 1.526 . S
C475 C476 1.396 . S
C475 C480 1.390 . S
C476 C470 1.465 . S
C476 C475 1.396 . S
C476 C477 1.399 . S
C477 H463 0.929 . S
C477 C476 1.399 . S
C477 C478 1.385 . S
C478 H464 0.931 . S
C478 C477 1.385 . S
C478 C479 1.389 . S
C479 C478 1.389 . S
C479 C480 1.387 . S
C480 H465 0.930 . S
C480 C475 1.390 . S
C480 C479 1.387 . S
H481 C493 0.930 . S
H482 C495 0.930 . S
H483 C496 0.930 . S
H484 C500 0.959 . S
H485 C500 0.959 . S
H486 C500 0.961 . S
H487 C501 0.960 . S
H488 C501 0.961 . S
H489 C501 0.959 . S
H490 C504 0.929 . S
H491 C505 0.931 . S
H492 C507 0.930 . S
C493 H481 0.930 . S
C493 C494 1.399 . S
C493 C498 1.399 . S
C494 C493 1.399 . S
C494 C495 1.376 . S
C495 H482 0.930 . S
C495 C494 1.376 . S
C495 C496 1.388 . S
C496 H483 0.930 . S
C496 C495 1.388 . S
C496 C497 1.390 . S
C497 C496 1.390 . S
C497 C498 1.394 . S
C497 C503 1.465 . S
C498 C493 1.399 . S
C498 C497 1.394 . S
C498 C499 1.516 . S
C499 C498 1.516 . S
C499 C500 1.502 . S
C499 C501 1.561 . S
C499 C502 1.526 . S
C500 H484 0.959 . S
C500 H485 0.959 . S
C500 H486 0.961 . S
C500 C499 1.502 . S
C501 H487 0.960 . S
C501 H488 0.961 . S
C501 H489 0.959 . S
C501 C499 1.561 . S
C502 C499 1.526 . S
C502 C503 1.396 . S
C502 C507 1.390 . S
C503 C497 1.465 . S
C503 C502 1.396 . S
C503 C504 1.399 . S
C504 H490 0.929 . S
C504 C503 1.399 . S
C504 C505 1.385 . S
C505 H491 0.931 . S
C505 C504 1.385 . S
C505 C506 1.389 . S
C506 C505 1.389 . S
C506 C507 1.387 . S
C507 H492 0.930 . S
C507 C502 1.390 . S
C507 C506 1.387 . S
H508 C520 0.930 . S
H509 C522 0.930 . S
H510 C523 0.930 . S
H511 C527 0.959 . S
H512 C527 0.959 . S
H513 C527 0.961 . S
H514 C528 0.960 . S
H515 C528 0.961 . S
H516 C528 0.959 . S
H517 C531 0.929 . S
H518 C532 0.931 . S
H519 C534 0.930 . S
C520 H508 0.930 . S
C520 C521 1.399 . S
C520 C525 1.399 . S
C521 C520 1.399 . S
C521 C522 1.376 . S
C522 H509 0.930 . S
C522 C521 1.376 . S
C522 C523 1.388 . S
C523 H510 0.930 . S
C523 C522 1.388 . S
C523 C524 1.390 . S
C524 C523 1.390 . S
C524 C525 1.394 . S
C524 C530 1.465 . S
C525 C520 1.399 . S
C525 C524 1.394 . S
C525 C526 1.516 . S
C526 C525 1.516 . S
C526 C527 1.502 . S
C526 C528 1.561 1_554 S
C526 C529 1.526 . S
C527 H511 0.959 . S
C527 H512 0.959 . S
C527 H513 0.961 . S
C527 C526 1.502 . S
C528 H514 0.960 . S
C528 H515 0.961 . S
C528 H516 0.959 . S
C528 C526 1.561 1_556 S
C529 C526 1.526 . S
C529 C530 1.396 . S
C529 C534 1.390 . S
C530 C524 1.465 . S
C530 C529 1.396 . S
C530 C531 1.399 . S
C531 H517 0.929 . S
C531 C530 1.399 . S
C531 C532 1.385 . S
C532 H518 0.931 . S
C532 C531 1.385 . S
C532 C533 1.389 . S
C533 C532 1.389 . S
C533 C534 1.387 . S
C534 H519 0.930 . S
C534 C529 1.390 . S
C534 C533 1.387 . S
H535 C547 0.930 . S
H536 C549 0.930 . S
H537 C550 0.930 . S
H538 C554 0.959 . S
H539 C554 0.959 . S
H540 C554 0.961 . S
H541 C555 0.960 . S
H542 C555 0.961 . S
H543 C555 0.959 . S
H544 C558 0.929 1_554 S
H545 C559 0.931 . S
H546 C561 0.930 . S
C547 H535 0.930 . S
C547 C548 1.399 . S
C547 C552 1.399 . S
C548 C547 1.399 . S
C548 C549 1.376 1_556 S
C549 H536 0.930 . S
C549 C548 1.376 1_554 S
C549 C550 1.388 . S
C550 H537 0.930 . S
C550 C549 1.388 . S
C550 C551 1.390 1_554 S
C551 C550 1.390 1_556 S
C551 C552 1.394 . S
C551 C557 1.465 . S
C552 C547 1.399 . S
C552 C551 1.394 . S
C552 C553 1.516 . S
C553 C552 1.516 . S
C553 C554 1.502 . S
C553 C555 1.561 . S
C553 C556 1.526 . S
C554 H538 0.959 . S
C554 H539 0.959 . S
C554 H540 0.961 . S
C554 C553 1.502 . S
C555 H541 0.960 . S
C555 H542 0.961 . S
C555 H543 0.959 . S
C555 C553 1.561 . S
C556 C553 1.526 . S
C556 C557 1.396 . S
C556 C561 1.390 . S
C557 C551 1.465 . S
C557 C556 1.396 . S
C557 C558 1.399 . S
C558 H544 0.929 1_556 S
C558 C557 1.399 . S
C558 C559 1.385 . S
C559 H545 0.931 . S
C559 C558 1.385 . S
C559 C560 1.389 . S
C560 C559 1.389 . S
C560 C561 1.387 . S
C561 H546 0.930 . S
C561 C556 1.390 . S
C561 C560 1.387 . S
H562 C574 0.930 . S
H563 C576 0.930 . S
H564 C577 0.930 . S
H565 C581 0.959 . S
H566 C581 0.959 . S
H567 C581 0.961 . S
H568 C582 0.960 . S
H569 C582 0.961 . S
H570 C582 0.959 . S
H571 C585 0.929 . S
H572 C586 0.931 . S
H573 C588 0.930 . S
C574 H562 0.930 . S
C574 C575 1.399 . S
C574 C579 1.399 . S
C575 C574 1.399 . S
C575 C576 1.376 . S
C576 H563 0.930 . S
C576 C575 1.376 . S
C576 C577 1.388 . S
C577 H564 0.930 . S
C577 C576 1.388 . S
C577 C578 1.390 . S
C578 C577 1.390 . S
C578 C579 1.394 . S
C578 C584 1.465 . S
C579 C574 1.399 . S
C579 C578 1.394 . S
C579 C580 1.516 . S
C580 C579 1.516 . S
C580 C581 1.502 . S
C580 C582 1.561 . S
C580 C583 1.526 . S
C581 H565 0.959 . S
C581 H566 0.959 . S
C581 H567 0.961 . S
C581 C580 1.502 . S
C582 H568 0.960 . S
C582 H569 0.961 . S
C582 H570 0.959 . S
C582 C580 1.561 . S
C583 C580 1.526 . S
C583 C584 1.396 . S
C583 C588 1.390 . S
C584 C578 1.465 . S
C584 C583 1.396 . S
C584 C585 1.399 . S
C585 H571 0.929 . S
C585 C584 1.399 . S
C585 C586 1.385 . S
C586 H572 0.931 . S
C586 C585 1.385 . S
C586 C587 1.389 . S
C587 C586 1.389 . S
C587 C588 1.387 . S
C588 H573 0.930 . S
C588 C583 1.390 . S
C588 C587 1.387 . S
H589 C601 0.930 . S
H590 C603 0.930 . S
H591 C604 0.930 . S
H592 C608 0.959 . S
H593 C608 0.959 . S
H594 C608 0.961 . S
H595 C609 0.960 . S
H596 C609 0.961 . S
H597 C609 0.959 . S
H598 C612 0.929 . S
H599 C613 0.931 . S
H600 C615 0.930 . S
C601 H589 0.930 . S
C601 C602 1.399 . S
C601 C606 1.399 . S
C602 C601 1.399 . S
C602 C603 1.376 . S
C603 H590 0.930 . S
C603 C602 1.376 . S
C603 C604 1.388 . S
C604 H591 0.930 . S
C604 C603 1.388 . S
C604 C605 1.390 . S
C605 C604 1.390 . S
C605 C606 1.394 . S
C605 C611 1.465 . S
C606 C601 1.399 . S
C606 C605 1.394 . S
C606 C607 1.516 . S
C607 C606 1.516 . S
C607 C608 1.502 . S
C607 C609 1.561 . S
C607 C610 1.526 . S
C608 H592 0.959 . S
C608 H593 0.959 . S
C608 H594 0.961 . S
C608 C607 1.502 . S
C609 H595 0.960 . S
C609 H596 0.961 . S
C609 H597 0.959 . S
C609 C607 1.561 . S
C610 C607 1.526 . S
C610 C611 1.396 . S
C610 C615 1.390 . S
C611 C605 1.465 . S
C611 C610 1.396 . S
C611 C612 1.399 . S
C612 H598 0.929 . S
C612 C611 1.399 . S
C612 C613 1.385 . S
C613 H599 0.931 . S
C613 C612 1.385 . S
C613 C614 1.389 . S
C614 C613 1.389 . S
C614 C615 1.387 . S
C615 H600 0.930 . S
C615 C610 1.390 . S
C615 C614 1.387 . S
H616 C628 0.930 1_655 S
H617 C630 0.930 . S
H618 C631 0.930 . S
H619 C635 0.959 1_554 S
H620 C635 0.959 1_564 S
H621 C635 0.961 1_565 S
H622 C636 0.960 . S
H623 C636 0.961 1_554 S
H624 C636 0.959 . S
H625 C639 0.929 . S
H626 C640 0.931 . S
H627 C642 0.930 1_655 S
C628 H616 0.930 1_455 S
C628 C629 1.399 . S
C628 C633 1.399 . S
C629 C628 1.399 . S
C629 C630 1.376 . S
C630 H617 0.930 . S
C630 C629 1.376 . S
C630 C631 1.388 . S
C631 H618 0.930 . S
C631 C630 1.388 . S
C631 C632 1.390 . S
C632 C631 1.390 . S
C632 C633 1.394 . S
C632 C638 1.465 1_556 S
C633 C628 1.399 . S
C633 C632 1.394 . S
C633 C634 1.516 . S
C634 C633 1.516 . S
C634 C635 1.502 1_455 S
C634 C636 1.561 1_545 S
C634 C637 1.526 1_556 S
C635 H619 0.959 1_556 S
C635 H620 0.959 1_546 S
C635 H621 0.961 1_545 S
C635 C634 1.502 1_655 S
C636 H622 0.960 . S
C636 H623 0.961 1_556 S
C636 H624 0.959 . S
C636 C634 1.561 1_565 S
C637 C634 1.526 1_554 S
C637 C638 1.396 . S
C637 C642 1.390 . S
C638 C632 1.465 1_554 S
C638 C637 1.396 . S
C638 C639 1.399 . S
C639 H625 0.929 . S
C639 C638 1.399 . S
C639 C640 1.385 . S
C640 H626 0.931 . S
C640 C639 1.385 . S
C640 C641 1.389 . S
C641 C640 1.389 . S
C641 C642 1.387 . S
C642 H627 0.930 1_455 S
C642 C637 1.390 . S
C642 C641 1.387 . S
H643 C655 0.930 . S
H644 C657 0.930 . S
H645 C658 0.930 . S
H646 C662 0.959 . S
H647 C662 0.959 . S
H648 C662 0.961 . S
H649 C663 0.960 . S
H650 C663 0.961 . S
H651 C663 0.959 . S
H652 C666 0.929 . S
H653 C667 0.931 . S
H654 C669 0.930 . S
C655 H643 0.930 . S
C655 C656 1.399 . S
C655 C660 1.399 . S
C656 C655 1.399 . S
C656 C657 1.376 . S
C657 H644 0.930 . S
C657 C656 1.376 . S
C657 C658 1.388 . S
C658 H645 0.930 . S
C658 C657 1.388 . S
C658 C659 1.390 . S
C659 C658 1.390 . S
C659 C660 1.394 . S
C659 C665 1.465 . S
C660 C655 1.399 . S
C660 C659 1.394 . S
C660 C661 1.516 . S
C661 C660 1.516 . S
C661 C662 1.502 . S
C661 C663 1.561 . S
C661 C664 1.526 . S
C662 H646 0.959 . S
C662 H647 0.959 . S
C662 H648 0.961 . S
C662 C661 1.502 . S
C663 H649 0.960 . S
C663 H650 0.961 . S
C663 H651 0.959 . S
C663 C661 1.561 . S
C664 C661 1.526 . S
C664 C665 1.396 . S
C664 C669 1.390 . S
C665 C659 1.465 . S
C665 C664 1.396 . S
C665 C666 1.399 . S
C666 H652 0.929 . S
C666 C665 1.399 . S
C666 C667 1.385 . S
C667 H653 0.931 . S
C667 C666 1.385 . S
C667 C668 1.389 . S
C668 C667 1.389 . S
C668 C669 1.387 . S
C669 H654 0.930 . S
C669 C664 1.390 . S
C669 C668 1.387 . S
H670 C682 0.930 . S
H671 C684 0.930 . S
H672 C685 0.930 . S
H673 C689 0.959 . S
H674 C689 0.959 . S
H675 C689 0.961 . S
H676 C690 0.960 . S
H677 C690 0.961 . S
H678 C690 0.959 . S
H679 C693 0.929 . S
H680 C694 0.931 . S
H681 C696 0.930 . S
C682 H670 0.930 . S
C682 C683 1.399 . S
C682 C687 1.399 . S
C683 C682 1.399 . S
C683 C684 1.376 . S
C684 H671 0.930 . S
C684 C683 1.376 . S
C684 C685 1.388 . S
C685 H672 0.930 . S
C685 C684 1.388 . S
C685 C686 1.390 . S
C686 C685 1.390 . S
C686 C687 1.394 . S
C686 C692 1.465 . S
C687 C682 1.399 . S
C687 C686 1.394 . S
C687 C688 1.516 . S
C688 C687 1.516 . S
C688 C689 1.502 . S
C688 C690 1.561 . S
C688 C691 1.526 . S
C689 H673 0.959 . S
C689 H674 0.959 . S
C689 H675 0.961 . S
C689 C688 1.502 . S
C690 H676 0.960 . S
C690 H677 0.961 . S
C690 H678 0.959 . S
C690 C688 1.561 . S
C691 C688 1.526 . S
C691 C692 1.396 . S
C691 C696 1.390 . S
C692 C686 1.465 . S
C692 C691 1.396 . S
C692 C693 1.399 . S
C693 H679 0.929 . S
C693 C692 1.399 . S
C693 C694 1.385 . S
C694 H680 0.931 . S
C694 C693 1.385 . S
C694 C695 1.389 . S
C695 C694 1.389 . S
C695 C696 1.387 . S
C696 H681 0.930 . S
C696 C691 1.390 . S
C696 C695 1.387 . S
H697 C709 0.930 . S
H698 C711 0.930 . S
H699 C712 0.930 . S
H700 C716 0.959 . S
H701 C716 0.959 . S
H702 C716 0.961 . S
H703 C717 0.960 . S
H704 C717 0.961 . S
H705 C717 0.959 . S
H706 C720 0.929 . S
H707 C721 0.931 . S
H708 C723 0.930 . S
C709 H697 0.930 . S
C709 C710 1.399 . S
C709 C714 1.399 . S
C710 C709 1.399 . S
C710 C711 1.376 . S
C711 H698 0.930 . S
C711 C710 1.376 . S
C711 C712 1.388 . S
C712 H699 0.930 . S
C712 C711 1.388 . S
C712 C713 1.390 . S
C713 C712 1.390 . S
C713 C714 1.394 . S
C713 C719 1.465 . S
C714 C709 1.399 . S
C714 C713 1.394 . S
C714 C715 1.516 . S
C715 C714 1.516 . S
C715 C716 1.502 . S
C715 C717 1.561 . S
C715 C718 1.526 . S
C716 H700 0.959 . S
C716 H701 0.959 . S
C716 H702 0.961 . S
C716 C715 1.502 . S
C717 H703 0.960 . S
C717 H704 0.961 . S
C717 H705 0.959 . S
C717 C715 1.561 . S
C718 C715 1.526 . S
C718 C719 1.396 . S
C718 C723 1.390 . S
C719 C713 1.465 . S
C719 C718 1.396 . S
C719 C720 1.399 . S
C720 H706 0.929 . S
C720 C719 1.399 . S
C720 C721 1.385 . S
C721 H707 0.931 . S
C721 C720 1.385 . S
C721 C722 1.389 . S
C722 C721 1.389 . S
C722 C723 1.387 . S
C723 H708 0.930 . S
C723 C718 1.390 . S
C723 C722 1.387 . S
H724 C736 0.930 . S
H725 C738 0.930 . S
H726 C739 0.930 . S
H727 C743 0.959 . S
H728 C743 0.959 . S
H729 C743 0.961 . S
H730 C744 0.960 . S
H731 C744 0.961 . S
H732 C744 0.959 . S
H733 C747 0.929 . S
H734 C748 0.931 . S
H735 C750 0.930 . S
C736 H724 0.930 . S
C736 C737 1.399 . S
C736 C741 1.399 . S
C737 C736 1.399 . S
C737 C738 1.376 . S
C738 H725 0.930 . S
C738 C737 1.376 . S
C738 C739 1.388 . S
C739 H726 0.930 . S
C739 C738 1.388 . S
C739 C740 1.390 . S
C740 C739 1.390 . S
C740 C741 1.394 . S
C740 C746 1.465 . S
C741 C736 1.399 . S
C741 C740 1.394 . S
C741 C742 1.516 . S
C742 C741 1.516 . S
C742 C743 1.502 . S
C742 C744 1.561 . S
C742 C745 1.526 . S
C743 H727 0.959 . S
C743 H728 0.959 . S
C743 H729 0.961 . S
C743 C742 1.502 . S
C744 H730 0.960 . S
C744 H731 0.961 . S
C744 H732 0.959 . S
C744 C742 1.561 . S
C745 C742 1.526 . S
C745 C746 1.396 . S
C745 C750 1.390 . S
C746 C740 1.465 . S
C746 C745 1.396 . S
C746 C747 1.399 . S
C747 H733 0.929 . S
C747 C746 1.399 . S
C747 C748 1.385 . S
C748 H734 0.931 . S
C748 C747 1.385 . S
C748 C749 1.389 . S
C749 C748 1.389 . S
C749 C750 1.387 . S
C750 H735 0.930 . S
C750 C745 1.390 . S
C750 C749 1.387 . S
H751 C763 0.930 . S
H752 C765 0.930 . S
H753 C766 0.930 . S
H754 C770 0.959 . S
H755 C770 0.959 . S
H756 C770 0.961 . S
H757 C771 0.960 . S
H758 C771 0.961 . S
H759 C771 0.959 . S
H760 C774 0.929 . S
H761 C775 0.931 . S
H762 C777 0.930 . S
C763 H751 0.930 . S
C763 C764 1.399 . S
C763 C768 1.399 . S
C764 C763 1.399 . S
C764 C765 1.376 . S
C765 H752 0.930 . S
C765 C764 1.376 . S
C765 C766 1.388 . S
C766 H753 0.930 . S
C766 C765 1.388 . S
C766 C767 1.390 . S
C767 C766 1.390 . S
C767 C768 1.394 . S
C767 C773 1.465 . S
C768 C763 1.399 . S
C768 C767 1.394 . S
C768 C769 1.516 . S
C769 C768 1.516 . S
C769 C770 1.502 . S
C769 C771 1.561 . S
C769 C772 1.526 . S
C770 H754 0.959 . S
C770 H755 0.959 . S
C770 H756 0.961 . S
C770 C769 1.502 . S
C771 H757 0.960 . S
C771 H758 0.961 . S
C771 H759 0.959 . S
C771 C769 1.561 . S
C772 C769 1.526 . S
C772 C773 1.396 . S
C772 C777 1.390 . S
C773 C767 1.465 . S
C773 C772 1.396 . S
C773 C774 1.399 . S
C774 H760 0.929 . S
C774 C773 1.399 . S
C774 C775 1.385 . S
C775 H761 0.931 . S
C775 C774 1.385 . S
C775 C776 1.389 . S
C776 C775 1.389 . S
C776 C777 1.387 . S
C777 H762 0.930 . S
C777 C772 1.390 . S
C777 C776 1.387 . S
H778 C790 0.930 . S
H779 C792 0.930 . S
H780 C793 0.930 . S
H781 C797 0.959 . S
H782 C797 0.959 . S
H783 C797 0.961 . S
H784 C798 0.960 . S
H785 C798 0.961 . S
H786 C798 0.959 . S
H787 C801 0.929 . S
H788 C802 0.931 . S
H789 C804 0.930 . S
C790 H778 0.930 . S
C790 C791 1.399 . S
C790 C795 1.399 . S
C791 C790 1.399 . S
C791 C792 1.376 . S
C792 H779 0.930 . S
C792 C791 1.376 . S
C792 C793 1.388 . S
C793 H780 0.930 . S
C793 C792 1.388 . S
C793 C794 1.390 . S
C794 C793 1.390 . S
C794 C795 1.394 . S
C794 C800 1.465 . S
C795 C790 1.399 . S
C795 C794 1.394 . S
C795 C796 1.516 . S
C796 C795 1.516 . S
C796 C797 1.502 . S
C796 C798 1.561 . S
C796 C799 1.526 . S
C797 H781 0.959 . S
C797 H782 0.959 . S
C797 H783 0.961 . S
C797 C796 1.502 . S
C798 H784 0.960 . S
C798 H785 0.961 . S
C798 H786 0.959 . S
C798 C796 1.561 . S
C799 C796 1.526 . S
C799 C800 1.396 . S
C799 C804 1.390 . S
C800 C794 1.465 . S
C800 C799 1.396 . S
C800 C801 1.399 . S
C801 H787 0.929 . S
C801 C800 1.399 . S
C801 C802 1.385 . S
C802 H788 0.931 . S
C802 C801 1.385 . S
C802 C803 1.389 . S
C803 C802 1.389 . S
C803 C804 1.387 . S
C804 H789 0.930 . S
C804 C799 1.390 . S
C804 C803 1.387 . S
H805 C817 0.932 . S
H806 C819 0.930 . S
H807 C820 0.930 . S
H808 C824 0.959 1_554 S
H809 C824 0.959 1_554 S
H810 C824 0.961 . S
H811 C825 0.960 . S
H812 C825 0.961 1_554 S
H813 C825 0.959 . S
H814 C828 0.929 . S
H815 C829 0.931 . S
H816 C831 0.930 1_455 S
C817 H805 0.932 . S
C817 C818 1.398 1_455 S
C817 C822 1.398 1_455 S
C818 C817 1.398 1_655 S
C818 C819 1.376 . S
C819 H806 0.930 . S
C819 C818 1.376 . S
C819 C820 1.388 . S
C820 H807 0.930 . S
C820 C819 1.388 . S
C820 C821 1.390 . S
C821 C820 1.390 . S
C821 C822 1.394 . S
C821 C827 1.465 1_556 S
C822 C817 1.398 1_655 S
C822 C821 1.394 . S
C822 C823 1.516 1_655 S
C823 C822 1.516 1_455 S
C823 C824 1.502 . S
C823 C825 1.561 1_455 S
C823 C826 1.526 1_456 S
C824 H808 0.959 1_556 S
C824 H809 0.959 1_556 S
C824 H810 0.961 . S
C824 C823 1.502 . S
C825 H811 0.960 . S
C825 H812 0.961 1_556 S
C825 H813 0.959 . S
C825 C823 1.561 1_655 S
C826 C823 1.526 1_654 S
C826 C827 1.396 . S
C826 C831 1.390 . S
C827 C821 1.465 1_554 S
C827 C826 1.396 . S
C827 C828 1.399 . S
C828 H814 0.929 . S
C828 C827 1.399 . S
C828 C829 1.385 . S
C829 H815 0.931 . S
C829 C828 1.385 . S
C829 C830 1.389 . S
C830 C829 1.389 . S
C830 C831 1.387 . S
C831 H816 0.930 1_655 S
C831 C826 1.390 . S
C831 C830 1.387 . S
C197 C20 1.526 . S
C209 C85 1.512 . S
C224 C16 1.532 1_565 S
C236 C43 1.468 . S
C251 C39 1.537 . S
C263 C66 1.489 . S
C278 C62 1.524 . S
C290 C89 1.481 . S
C305 C19 1.510 1_565 S
C317 C132 1.519 . S
C332 C17 1.513 . S
C344 C111 1.488 . S
C359 C109 1.540 . S
C371 C65 1.493 . S
C386 C134 1.447 . S
C398 C63 1.540 . S
C413 C158 1.524 . S
C425 C131 1.519 . S
C440 C112 1.523 . S
C452 C154 1.512 . S
C467 C181 1.527 . S
C479 C108 1.513 . S
C494 C135 1.464 . S
C506 C177 1.541 . S
C521 C86 1.540 . S
C533 C157 1.493 . S
C548 C155 1.543 . S
C560 C42 1.460 . S
C575 C40 1.513 . S
C587 C180 1.502 . S
C602 C88 1.519 . S
C614 C178 1.523 . S
C629 C18 0.984 . S
C641 C21 0.938 . S
C656 C44 0.951 . S
C668 C41 0.988 1_554 S
C683 C67 1.026 . S
C695 C64 1.011 . S
C710 C90 0.962 1_556 S
C722 C87 0.999 . S
C737 C113 0.969 1_556 S
C749 C110 1.001 . S
C764 C136 0.977 . S
C776 C133 1.003 1_554 S
C791 C159 1.026 . S
C803 C156 1.011 . S
C818 C179 0.984 . S
C830 C182 0.938 . S
