# Generated by pormake.
# Topology pcl, (4)-cn, num edge types: 1
# Building blocks:
#     Node 0, Type 0, BuildingBlock: ICAMEG_clean_sbu_1, # of connection points: 4
#     Node 1, Type 0, BuildingBlock: ICAMEG_clean_sbu_1, # of connection points: 4
#     Node 2, Type 0, BuildingBlock: ICAMEG_clean_sbu_1, # of connection points: 4
#     Node 3, Type 0, BuildingBlock: ICAMEG_clean_sbu_1, # of connection points: 4
#     Node 4, Type 0, BuildingBlock: ICAMEG_clean_sbu_1, # of connection points: 4
#     Node 5, Type 0, BuildingBlock: ICAMEG_clean_sbu_1, # of connection points: 4
#     Node 6, Type 0, BuildingBlock: ICAMEG_clean_sbu_1, # of connection points: 4
#     Node 7, Type 0, BuildingBlock: ICAMEG_clean_sbu_1, # of connection points: 4
#     Node 8, Type 0, BuildingBlock: ICAMEG_clean_sbu_1, # of connection points: 4
#     Node 9, Type 0, BuildingBlock: ICAMEG_clean_sbu_1, # of connection points: 4
#     Node 10, Type 0, BuildingBlock: ICAMEG_clean_sbu_1, # of connection points: 4
#     Node 11, Type 0, BuildingBlock: ICAMEG_clean_sbu_1, # of connection points: 4
#     Node 12, Type 0, BuildingBlock: ICAMEG_clean_sbu_1, # of connection points: 4
#     Node 13, Type 0, BuildingBlock: ICAMEG_clean_sbu_1, # of connection points: 4
#     Node 14, Type 0, BuildingBlock: ICAMEG_clean_sbu_1, # of connection points: 4
#     Node 15, Type 0, BuildingBlock: ICAMEG_clean_sbu_1, # of connection points: 4
#     Edge 16, Type (0, 0), BuildingBlock: OJICUG_clean_linker_0, # of connection points: 2
#     Edge 17, Type (0, 0), BuildingBlock: OJICUG_clean_linker_0, # of connection points: 2
#     Edge 18, Type (0, 0), BuildingBlock: OJICUG_clean_linker_0, # of connection points: 2
#     Edge 19, Type (0, 0), BuildingBlock: OJICUG_clean_linker_0, # of connection points: 2
#     Edge 20, Type (0, 0), BuildingBlock: OJICUG_clean_linker_0, # of connection points: 2
#     Edge 21, Type (0, 0), BuildingBlock: OJICUG_clean_linker_0, # of connection points: 2
#     Edge 22, Type (0, 0), BuildingBlock: OJICUG_clean_linker_0, # of connection points: 2
#     Edge 23, Type (0, 0), BuildingBlock: OJICUG_clean_linker_0, # of connection points: 2
#     Edge 24, Type (0, 0), BuildingBlock: OJICUG_clean_linker_0, # of connection points: 2
#     Edge 25, Type (0, 0), BuildingBlock: OJICUG_clean_linker_0, # of connection points: 2
#     Edge 26, Type (0, 0), BuildingBlock: OJICUG_clean_linker_0, # of connection points: 2
#     Edge 27, Type (0, 0), BuildingBlock: OJICUG_clean_linker_0, # of connection points: 2
#     Edge 28, Type (0, 0), BuildingBlock: OJICUG_clean_linker_0, # of connection points: 2
#     Edge 29, Type (0, 0), BuildingBlock: OJICUG_clean_linker_0, # of connection points: 2
#     Edge 30, Type (0, 0), BuildingBlock: OJICUG_clean_linker_0, # of connection points: 2
#     Edge 31, Type (0, 0), BuildingBlock: OJICUG_clean_linker_0, # of connection points: 2
#     Edge 32, Type (0, 0), BuildingBlock: OJICUG_clean_linker_0, # of connection points: 2
#     Edge 33, Type (0, 0), BuildingBlock: OJICUG_clean_linker_0, # of connection points: 2
#     Edge 34, Type (0, 0), BuildingBlock: OJICUG_clean_linker_0, # of connection points: 2
#     Edge 35, Type (0, 0), BuildingBlock: OJICUG_clean_linker_0, # of connection points: 2
#     Edge 36, Type (0, 0), BuildingBlock: OJICUG_clean_linker_0, # of connection points: 2
#     Edge 37, Type (0, 0), BuildingBlock: OJICUG_clean_linker_0, # of connection points: 2
#     Edge 38, Type (0, 0), BuildingBlock: OJICUG_clean_linker_0, # of connection points: 2
#     Edge 39, Type (0, 0), BuildingBlock: OJICUG_clean_linker_0, # of connection points: 2
#     Edge 40, Type (0, 0), BuildingBlock: OJICUG_clean_linker_0, # of connection points: 2
#     Edge 41, Type (0, 0), BuildingBlock: OJICUG_clean_linker_0, # of connection points: 2
#     Edge 42, Type (0, 0), BuildingBlock: OJICUG_clean_linker_0, # of connection points: 2
#     Edge 43, Type (0, 0), BuildingBlock: OJICUG_clean_linker_0, # of connection points: 2
#     Edge 44, Type (0, 0), BuildingBlock: OJICUG_clean_linker_0, # of connection points: 2
#     Edge 45, Type (0, 0), BuildingBlock: OJICUG_clean_linker_0, # of connection points: 2
#     Edge 46, Type (0, 0), BuildingBlock: OJICUG_clean_linker_0, # of connection points: 2
#     Edge 47, Type (0, 0), BuildingBlock: OJICUG_clean_linker_0, # of connection points: 2
# Relax obj value: 0.093
# Max RMSD: 0.121
# Mean RMSD: 0.116
data_MOF--net-pcl--node1-ICAMEG_clean_sbu_1--edge1-OJICUG_clean_linker_0
_symmetry_space_group_name_H-M    P1
_symmetry_Int_Tables_number       1
_symmetry_cell_setting            triclinic
loop_
_symmetry_equiv_pos_as_xyz
'x, y, z'
_cell_length_a     40.932351
_cell_length_b     32.294747
_cell_length_c     35.045663
_cell_angle_alpha  89.909446
_cell_angle_beta   90.068458
_cell_angle_gamma 89.971475
loop_
_atom_site_label
_atom_site_type_symbol
_atom_site_fract_x
_atom_site_fract_y
_atom_site_fract_z
_atom_type_partial_charge
Co0 Co 0.13843 0.39012 0.12617 0.0
Co1 Co 0.13726 0.29031 0.0912 0.0
O2 O 0.15535 0.34685 0.09193 0.0
C3 C 0.13788 0.43182 0.05122 0.0
O4 O 0.12546 0.39776 0.03687 0.0
C5 C 0.21046 0.2801 0.0796 0.0
O6 O 0.21531 0.3196 0.08605 0.0
O7 O 0.14455 0.28505 0.14752 0.0
O8 O 0.13027 0.3487 0.16706 0.0
H9 H 0.06495 0.17592 0.13917 0.0
H10 H 0.20307 0.40473 0.09048 0.0
O11 O 0.14567 0.43345 0.0863 0.0
H12 H 0.22349 0.40448 0.22921 0.0
H13 H 0.13605 0.53204 0.18555 0.0
H14 H 0.08197 0.39585 0.17894 0.0
H15 H 0.16786 0.39427 0.20405 0.0
H16 H 0.15841 0.47669 0.1448 0.0
O17 O 0.1818 0.26476 0.08183 0.0
H18 H 0.08821 0.24637 0.13828 0.0
H19 H 0.14828 0.21446 0.04402 0.0
H20 H 0.05903 0.45017 0.22038 0.0
H21 H 0.25913 0.41557 0.11446 0.0
H22 H 0.08583 0.51904 0.22341 0.0
H23 H 0.26963 0.41533 0.18429 0.0
O24 O 0.09352 0.38158 0.10665 0.0
H25 H 0.16814 0.33051 0.95703 0.0
H26 H 0.08234 0.27011 0.03836 0.0
H27 H 0.07245 0.27793 0.96941 0.0
H28 H 0.11562 0.30814 0.92813 0.0
H29 H 0.17672 0.32284 0.0261 0.0
H30 H 0.12596 0.14357 0.0442 0.0
H31 H 0.08386 0.12395 0.0919 0.0
O32 O 0.09167 0.31259 0.09961 0.0
C33 C 0.13656 0.31072 0.17352 0.0
C34 C 0.08323 0.18412 0.11818 0.0
C35 C 0.1175 0.16594 0.06492 0.0
N36 N 0.11942 0.23462 0.091 0.0
C37 C 0.09642 0.22399 0.11747 0.0
C38 C 0.13014 0.20611 0.06506 0.0
C39 C 0.09387 0.15497 0.09168 0.0
C40 C 0.20745 0.4048 0.1209 0.0
N41 N 0.18227 0.3986 0.14577 0.0
C42 C 0.23924 0.41085 0.13431 0.0
C43 C 0.24512 0.41066 0.1735 0.0
C44 C 0.21927 0.40451 0.19871 0.0
C45 C 0.18782 0.39851 0.18426 0.0
C46 C 0.12407 0.5022 0.18433 0.0
C47 C 0.09407 0.42553 0.18053 0.0
C48 C 0.1366 0.47074 0.16128 0.0
N49 N 0.12159 0.43299 0.15957 0.0
C50 C 0.08087 0.45623 0.20392 0.0
C51 C 0.09594 0.49486 0.20564 0.0
C52 C 0.07779 0.34807 0.10146 0.0
C53 C 0.14921 0.31705 0.97466 0.0
C54 C 0.10119 0.28346 0.02073 0.0
C55 C 0.09549 0.28769 0.98162 0.0
C56 C 0.11972 0.3046 0.95848 0.0
N57 N 0.13026 0.29551 0.03645 0.0
C58 C 0.15405 0.31229 0.01388 0.0
Co59 Co 0.88104 0.62139 0.62048 0.0
Co60 Co 0.88667 0.72185 0.58447 0.0
O61 O 0.86741 0.66576 0.58518 0.0
C62 C 0.89012 0.58187 0.54505 0.0
O63 O 0.90249 0.61677 0.53237 0.0
C64 C 0.8134 0.73469 0.57655 0.0
O65 O 0.80806 0.6955 0.58398 0.0
O66 O 0.88196 0.72705 0.64134 0.0
O67 O 0.88328 0.66141 0.66302 0.0
H68 H 0.96353 0.83256 0.62995 0.0
H69 H 0.82154 0.60704 0.57401 0.0
O70 O 0.87926 0.5793 0.57891 0.0
H71 H 0.78474 0.60152 0.70787 0.0
H72 H 0.88025 0.47655 0.67369 0.0
H73 H 0.93071 0.61489 0.6819 0.0
H74 H 0.84269 0.61367 0.69253 0.0
H75 H 0.86045 0.53382 0.63322 0.0
O76 O 0.84241 0.74917 0.5773 0.0
H77 H 0.93859 0.76303 0.62941 0.0
H78 H 0.87564 0.79898 0.53874 0.0
H79 H 0.95108 0.55852 0.72316 0.0
H80 H 0.76338 0.59409 0.5881 0.0
H81 H 0.92638 0.48845 0.71833 0.0
H82 H 0.74463 0.5915 0.65544 0.0
O83 O 0.928 0.63103 0.60868 0.0
H84 H 0.85044 0.68325 0.45177 0.0
H85 H 0.93967 0.74185 0.52918 0.0
H86 H 0.94703 0.73418 0.4598 0.0
H87 H 0.90213 0.70483 0.42052 0.0
H88 H 0.84435 0.69082 0.52119 0.0
H89 H 0.89963 0.86899 0.53863 0.0
H90 H 0.94403 0.8861 0.58433 0.0
O91 O 0.93162 0.69757 0.59031 0.0
C92 C 0.88224 0.70029 0.66822 0.0
C93 C 0.94426 0.82544 0.60983 0.0
C94 C 0.90836 0.84591 0.55862 0.0
N95 N 0.90584 0.77684 0.58393 0.0
C96 C 0.93012 0.7861 0.60931 0.0
C97 C 0.89478 0.80625 0.55893 0.0
C98 C 0.93328 0.85548 0.58425 0.0
C99 C 0.8136 0.60556 0.60338 0.0
N100 N 0.83545 0.61131 0.63237 0.0
C101 C 0.78062 0.5984 0.61119 0.0
C102 C 0.77011 0.59701 0.64898 0.0
C103 C 0.79258 0.6027 0.67841 0.0
C104 C 0.82535 0.60981 0.66952 0.0
C105 C 0.89138 0.50685 0.67578 0.0
C106 C 0.91939 0.58471 0.68026 0.0
C107 C 0.88028 0.53941 0.65294 0.0
N108 N 0.89447 0.57765 0.65512 0.0
C109 C 0.93113 0.55287 0.70355 0.0
C110 C 0.91719 0.51361 0.70094 0.0
C111 C 0.94446 0.66254 0.59827 0.0
C112 C 0.87012 0.69628 0.46854 0.0
C113 C 0.92008 0.72887 0.51239 0.0
C114 C 0.92435 0.72473 0.47305 0.0
C115 C 0.89915 0.70831 0.45103 0.0
N116 N 0.89149 0.71718 0.52941 0.0
C117 C 0.86673 0.70093 0.50795 0.0
Co118 Co 0.13831 0.62186 0.88463 0.0
Co119 Co 0.13728 0.72188 0.91964 0.0
O120 O 0.15553 0.66535 0.91843 0.0
C121 C 0.13834 0.5806 0.95981 0.0
O122 O 0.12621 0.61483 0.97416 0.0
C123 C 0.21068 0.73222 0.92719 0.0
O124 O 0.21532 0.69312 0.91881 0.0
O125 O 0.14287 0.72711 0.86301 0.0
O126 O 0.12979 0.66299 0.84363 0.0
H127 H 0.0632 0.83578 0.87409 0.0
H128 H 0.20322 0.60693 0.91978 0.0
O129 O 0.14585 0.57877 0.92467 0.0
H130 H 0.22248 0.60696 0.78088 0.0
H131 H 0.13543 0.47957 0.82602 0.0
H132 H 0.08145 0.6159 0.83232 0.0
H133 H 0.16709 0.6175 0.80651 0.0
H134 H 0.15809 0.53512 0.86634 0.0
O135 O 0.18194 0.74749 0.92731 0.0
H136 H 0.0867 0.76542 0.87436 0.0
H137 H 0.1495 0.798 0.96611 0.0
H138 H 0.05821 0.5614 0.79129 0.0
H139 H 0.25902 0.59564 0.89533 0.0
H140 H 0.08498 0.49246 0.78839 0.0
H141 H 0.26895 0.59582 0.82542 0.0
O142 O 0.09362 0.63056 0.90456 0.0
H143 H 0.17256 0.6818 0.05236 0.0
H144 H 0.08421 0.74252 0.97476 0.0
H145 H 0.07655 0.73455 0.04408 0.0
H146 H 0.12102 0.70416 0.08346 0.0
H147 H 0.1789 0.68962 0.98295 0.0
H148 H 0.12695 0.86881 0.96651 0.0
H149 H 0.08336 0.88803 0.9204 0.0
O150 O 0.09155 0.69938 0.91319 0.0
C151 C 0.13519 0.70114 0.83711 0.0
C152 C 0.08212 0.82774 0.89439 0.0
C153 C 0.11794 0.8463 0.94622 0.0
N154 N 0.11928 0.7775 0.92036 0.0
C155 C 0.09545 0.78792 0.89475 0.0
C156 C 0.1307 0.80618 0.94575 0.0
C157 C 0.09347 0.85706 0.92036 0.0
C158 C 0.20733 0.60675 0.88933 0.0
N159 N 0.18196 0.61315 0.86467 0.0
C160 C 0.23899 0.60049 0.87564 0.0
C161 C 0.24455 0.60064 0.83641 0.0
C162 C 0.21851 0.60697 0.81142 0.0
C163 C 0.1872 0.61317 0.82613 0.0
C164 C 0.12347 0.50944 0.82718 0.0
C165 C 0.09352 0.58619 0.8308 0.0
C166 C 0.13617 0.54101 0.84999 0.0
N167 N 0.12117 0.5788 0.85161 0.0
C168 C 0.08015 0.55538 0.80764 0.0
C169 C 0.0952 0.51671 0.80601 0.0
C170 C 0.07791 0.66381 0.91109 0.0
C171 C 0.15306 0.69527 0.03555 0.0
C172 C 0.10356 0.72898 0.99157 0.0
C173 C 0.09915 0.72472 0.03089 0.0
C174 C 0.12411 0.70772 0.05297 0.0
N175 N 0.13205 0.71681 0.97463 0.0
C176 C 0.1566 0.70005 0.99615 0.0
Co177 Co 0.88419 0.39253 0.37815 0.0
Co178 Co 0.88701 0.29312 0.41679 0.0
O179 O 0.86909 0.34988 0.41442 0.0
C180 C 0.89228 0.43405 0.45272 0.0
O181 O 0.90429 0.3993 0.46627 0.0
C182 C 0.81365 0.2837 0.42844 0.0
O183 O 0.80905 0.32329 0.42209 0.0
O184 O 0.88138 0.28632 0.36013 0.0
O185 O 0.88655 0.35094 0.33669 0.0
H186 H 0.96052 0.17785 0.37354 0.0
H187 H 0.82393 0.40963 0.42224 0.0
O188 O 0.88218 0.43608 0.41847 0.0
H189 H 0.79026 0.41292 0.2871 0.0
H190 H 0.88693 0.53512 0.31984 0.0
H191 H 0.93519 0.39519 0.31826 0.0
H192 H 0.84763 0.39958 0.30466 0.0
H193 H 0.86565 0.48034 0.36214 0.0
O194 O 0.84213 0.26789 0.42534 0.0
H195 H 0.93739 0.24841 0.37253 0.0
H196 H 0.8744 0.21786 0.46462 0.0
H197 H 0.95699 0.44896 0.27521 0.0
H198 H 0.76631 0.42368 0.40594 0.0
H199 H 0.9333 0.51973 0.27647 0.0
H200 H 0.74913 0.42519 0.33794 0.0
O201 O 0.9306 0.38198 0.39187 0.0
H202 H 0.8542 0.33885 0.5489 0.0
H203 H 0.93967 0.27132 0.47213 0.0
H204 H 0.9482 0.28062 0.54113 0.0
H205 H 0.90518 0.31442 0.58012 0.0
H206 H 0.84698 0.32969 0.47988 0.0
H207 H 0.89654 0.14688 0.46627 0.0
H208 H 0.94007 0.12654 0.42065 0.0
O209 O 0.93262 0.31526 0.40995 0.0
C210 C 0.88358 0.31203 0.3325 0.0
C211 C 0.94164 0.18639 0.39364 0.0
C212 C 0.90568 0.16898 0.44563 0.0
N213 N 0.90474 0.23736 0.41863 0.0
C214 C 0.92852 0.22632 0.39328 0.0
C215 C 0.89314 0.20919 0.44444 0.0
C216 C 0.93012 0.15759 0.42005 0.0
C217 C 0.81666 0.41051 0.3926 0.0
N218 N 0.83907 0.40352 0.36449 0.0
C219 C 0.78399 0.41836 0.38353 0.0
C220 C 0.77436 0.41915 0.34538 0.0
C221 C 0.79741 0.41221 0.31685 0.0
C222 C 0.82984 0.40443 0.32699 0.0
C223 C 0.8976 0.50446 0.31924 0.0
C224 C 0.92435 0.42572 0.31846 0.0
C225 C 0.88566 0.47331 0.34312 0.0
N226 N 0.89917 0.43459 0.34267 0.0
C227 C 0.93691 0.45609 0.29416 0.0
C228 C 0.92358 0.49578 0.29486 0.0
C229 C 0.94631 0.3499 0.40248 0.0
C230 C 0.87304 0.32382 0.53227 0.0
C231 C 0.92088 0.28624 0.48875 0.0
C232 C 0.92582 0.29129 0.5279 0.0
C233 C 0.90167 0.31021 0.54976 0.0
N234 N 0.89265 0.29941 0.47171 0.0
C235 C 0.86896 0.31819 0.49304 0.0
Co236 Co 0.8744 0.63132 0.88973 0.0
Co237 Co 0.87889 0.67912 0.97815 0.0
O238 O 0.86187 0.67463 0.92594 0.0
C239 C 0.89841 0.68441 0.82586 0.0
O240 O 0.92805 0.67139 0.8337 0.0
C241 C 0.81652 0.68069 0.02297 0.0
O242 O 0.82569 0.6468 0.04076 0.0
O243 O 0.86967 0.61887 0.98795 0.0
O244 O 0.874 0.58838 0.93066 0.0
H245 H 0.94426 0.63255 0.09175 0.0
H246 H 0.81726 0.6847 0.87286 0.0
O247 O 0.87448 0.67363 0.8471 0.0
H248 H 0.77426 0.5421 0.87511 0.0
H249 H 0.86961 0.55497 0.76444 0.0
H250 H 0.92118 0.56143 0.89154 0.0
H251 H 0.83274 0.55548 0.88661 0.0
H252 H 0.8545 0.60994 0.80995 0.0
O253 O 0.83385 0.69544 0.99593 0.0
H254 H 0.92348 0.62869 0.02574 0.0
H255 H 0.86908 0.73924 0.04218 0.0
H256 H 0.93671 0.50571 0.84715 0.0
H257 H 0.75863 0.67268 0.86081 0.0
H258 H 0.91051 0.50181 0.78349 0.0
H259 H 0.73679 0.60094 0.86192 0.0
O260 O 0.92141 0.64154 0.90037 0.0
H261 H 0.85318 0.82172 0.92874 0.0
H262 H 0.93534 0.7351 0.99387 0.0
H263 H 0.94769 0.80844 0.98058 0.0
H264 H 0.90636 0.85235 0.94792 0.0
H265 H 0.84207 0.74806 0.94208 0.0
H266 H 0.88913 0.74419 0.1084 0.0
H267 H 0.92705 0.69061 0.13357 0.0
O268 O 0.92432 0.66542 0.96059 0.0
C269 C 0.87079 0.58664 0.96677 0.0
C270 C 0.92778 0.65611 0.0811 0.0
C271 C 0.89681 0.71874 0.09046 0.0
N272 N 0.89513 0.68371 0.03009 0.0
C273 C 0.91597 0.65411 0.04374 0.0
C274 C 0.88549 0.71573 0.05296 0.0
C275 C 0.91809 0.68868 0.10456 0.0
C276 C 0.80796 0.65338 0.87316 0.0
N277 N 0.82844 0.62083 0.88019 0.0
C278 C 0.77473 0.64677 0.86643 0.0
C279 C 0.76248 0.60652 0.86709 0.0
C280 C 0.78349 0.57349 0.87451 0.0
C281 C 0.81657 0.58128 0.88113 0.0
C282 C 0.88106 0.55619 0.79229 0.0
C283 C 0.9098 0.56013 0.86373 0.0
C284 C 0.87269 0.58733 0.81811 0.0
N285 N 0.88684 0.58878 0.85345 0.0
C286 C 0.91871 0.52852 0.83871 0.0
C287 C 0.90407 0.52648 0.80287 0.0
C288 C 0.93753 0.65342 0.92948 0.0
C289 C 0.87141 0.8029 0.94293 0.0
C290 C 0.91744 0.75385 0.97918 0.0
C291 C 0.92447 0.79543 0.97196 0.0
C292 C 0.90126 0.82006 0.95368 0.0
N293 N 0.88813 0.73719 0.96852 0.0
C294 C 0.86525 0.76117 0.9506 0.0
Co295 Co 0.15038 0.38887 0.38569 0.0
Co296 Co 0.14552 0.33349 0.47069 0.0
O297 O 0.16294 0.34238 0.41894 0.0
C298 C 0.14905 0.3134 0.33299 0.0
O299 O 0.1589 0.28699 0.35902 0.0
C300 C 0.20723 0.33154 0.51698 0.0
O301 O 0.19674 0.36394 0.53595 0.0
O302 O 0.15342 0.393 0.48453 0.0
O303 O 0.15298 0.42804 0.42927 0.0
H304 H 0.07746 0.36895 0.58522 0.0
H305 H 0.20757 0.33552 0.36605 0.0
O306 O 0.1462 0.35191 0.34007 0.0
H307 H 0.25067 0.47776 0.37175 0.0
H308 H 0.15194 0.47327 0.26467 0.0
H309 H 0.10535 0.46029 0.39387 0.0
H310 H 0.1925 0.46402 0.38445 0.0
H311 H 0.16793 0.41534 0.3066 0.0
O312 O 0.19076 0.3175 0.48883 0.0
H313 H 0.09923 0.37872 0.52021 0.0
H314 H 0.15563 0.26889 0.53098 0.0
H315 H 0.08899 0.51904 0.35302 0.0
H316 H 0.26572 0.3479 0.35265 0.0
H317 H 0.11251 0.52598 0.28807 0.0
H318 H 0.28771 0.41949 0.35545 0.0
O319 O 0.10324 0.37877 0.39579 0.0
H320 H 0.17605 0.19471 0.41652 0.0
H321 H 0.0894 0.27523 0.47974 0.0
H322 H 0.07894 0.20259 0.46206 0.0
H323 H 0.12255 0.16172 0.43035 0.0
H324 H 0.18515 0.26774 0.43396 0.0
H325 H 0.13461 0.25803 0.59614 0.0
H326 H 0.09518 0.30825 0.62365 0.0
O327 O 0.10003 0.34729 0.45292 0.0
C328 C 0.15457 0.42676 0.4655 0.0
C329 C 0.0946 0.34683 0.57354 0.0
C330 C 0.12669 0.28459 0.57968 0.0
N331 N 0.12864 0.3244 0.52179 0.0
C332 C 0.10697 0.35217 0.53674 0.0
C333 C 0.13856 0.29095 0.54279 0.0
C334 C 0.10456 0.31278 0.59509 0.0
C335 C 0.21669 0.36677 0.36683 0.0
N336 N 0.19635 0.399 0.37533 0.0
C337 C 0.24978 0.3736 0.35945 0.0
C338 C 0.26212 0.41375 0.36109 0.0
C339 C 0.24136 0.44644 0.37025 0.0
C340 C 0.20842 0.43843 0.37746 0.0
C341 C 0.14164 0.47073 0.29301 0.0
C342 C 0.11579 0.46319 0.36567 0.0
C343 C 0.15053 0.43792 0.31686 0.0
N344 N 0.13785 0.43469 0.35283 0.0
C345 C 0.10635 0.49643 0.34262 0.0
C346 C 0.11949 0.50023 0.30612 0.0
C347 C 0.08687 0.36306 0.42313 0.0
C348 C 0.15683 0.21221 0.43025 0.0
C349 C 0.10822 0.25794 0.46529 0.0
C350 C 0.10229 0.21667 0.45567 0.0
C351 C 0.12679 0.19374 0.43796 0.0
N352 N 0.13767 0.27594 0.45745 0.0
C353 C 0.16186 0.25356 0.44028 0.0
Co354 Co 0.87101 0.37765 0.11301 0.0
Co355 Co 0.88344 0.33017 0.02535 0.0
O356 O 0.86228 0.33361 0.07562 0.0
C357 C 0.89004 0.31297 0.17154 0.0
O358 O 0.91818 0.30688 0.15453 0.0
C359 C 0.81223 0.32769 1.00485 0.0
O360 O 0.80689 0.35834 0.02862 0.0
O361 O 0.87406 0.39009 0.01454 0.0
O362 O 0.87285 0.42044 0.072 0.0
H363 H 0.95877 0.37905 0.92164 0.0
H364 H 0.81419 0.32211 0.12357 0.0
O365 O 0.86849 0.33643 0.15636 0.0
H366 H 0.76785 0.46278 0.11482 0.0
H367 H 0.85417 0.45373 0.23692 0.0
H368 H 0.91571 0.4498 0.11607 0.0
H369 H 0.82737 0.45184 0.11086 0.0
H370 H 0.84456 0.39797 0.19026 0.0
O371 O 0.84106 0.31367 1.0005 0.0
H372 H 0.9323 0.38138 0.98481 0.0
H373 H 0.87898 0.27212 0.95906 0.0
H374 H 0.92554 0.50661 0.16157 0.0
H375 H 0.75452 0.33168 0.12798 0.0
H376 H 0.89408 0.50934 0.22198 0.0
H377 H 0.73099 0.40243 0.12353 0.0
O378 O 0.91919 0.36937 0.10818 0.0
H379 H 0.85536 0.1865 0.06966 0.0
H380 H 0.94161 0.2754 0.01561 0.0
H381 H 0.95356 0.20198 0.02918 0.0
H382 H 0.9102 0.15694 0.0563 0.0
H383 H 0.84462 0.26025 0.05604 0.0
H384 H 0.90462 0.26884 0.89551 0.0
H385 H 0.94494 0.32248 0.87649 0.0
O386 O 0.92665 0.34442 0.0488 0.0
C387 C 0.87246 0.42222 0.03572 0.0
C388 C 0.94132 0.35543 0.92964 0.0
C389 C 0.91088 0.29362 0.91494 0.0
N390 N 0.90426 0.32682 0.97571 0.0
C391 C 0.92632 0.35652 0.9654 0.0
C392 C 0.89634 0.29573 0.95093 0.0
C393 C 0.93351 0.32371 0.9043 0.0
C394 C 0.80414 0.35302 0.12189 0.0
N395 N 0.82425 0.38637 0.11713 0.0
C396 C 0.77033 0.35823 0.12428 0.0
C397 C 0.75714 0.39793 0.12173 0.0
C398 C 0.77781 0.4318 0.11681 0.0
C399 C 0.8115 0.4254 0.11448 0.0
C400 C 0.86775 0.45312 0.21044 0.0
C401 C 0.90208 0.45061 0.14245 0.0
C402 C 0.86255 0.42149 0.18398 0.0
N403 N 0.87935 0.42081 0.15027 0.0
C404 C 0.9078 0.48281 0.16814 0.0
C405 C 0.89029 0.48417 0.20217 0.0
C406 C 0.93745 0.35721 0.08088 0.0
C407 C 0.87447 0.20582 0.05792 0.0
C408 C 0.92276 0.25612 0.02783 0.0
C409 C 0.9296 0.21451 0.03525 0.0
C410 C 0.90525 0.18926 0.05043 0.0
N411 N 0.89255 0.27217 0.03533 0.0
C412 C 0.86853 0.24759 0.05014 0.0
Co413 Co 0.14795 0.62307 0.62434 0.0
Co414 Co 0.14519 0.67818 0.53911 0.0
O415 O 0.1614 0.66942 0.59146 0.0
C416 C 0.14654 0.69844 0.67737 0.0
O417 O 0.15728 0.72478 0.65179 0.0
C418 C 0.20784 0.68081 0.49497 0.0
O419 O 0.19809 0.64816 0.47582 0.0
O420 O 0.15387 0.61878 0.52559 0.0
O421 O 0.15103 0.58384 0.5808 0.0
H422 H 0.08035 0.64207 0.42204 0.0
H423 H 0.20526 0.6757 0.64532 0.0
O424 O 0.14326 0.66006 0.66991 0.0
H425 H 0.24734 0.53288 0.64088 0.0
H426 H 0.147 0.53867 0.74533 0.0
H427 H 0.1025 0.55227 0.61505 0.0
H428 H 0.18949 0.54739 0.62672 0.0
H429 H 0.16409 0.59633 0.70379 0.0
O430 O 0.19068 0.69469 0.52257 0.0
H431 H 0.10062 0.63239 0.48778 0.0
H432 H 0.15608 0.74313 0.47938 0.0
H433 H 0.08495 0.49384 0.65556 0.0
H434 H 0.26307 0.66255 0.66019 0.0
H435 H 0.10738 0.48663 0.72108 0.0
H436 H 0.28455 0.59067 0.65804 0.0
O437 O 0.10106 0.63373 0.61292 0.0
H438 H 0.17342 0.81721 0.59437 0.0
H439 H 0.08873 0.73578 0.52844 0.0
H440 H 0.07735 0.80828 0.54582 0.0
H441 H 0.11996 0.84961 0.57889 0.0
H442 H 0.18346 0.74432 0.57716 0.0
H443 H 0.13655 0.75391 0.41352 0.0
H444 H 0.09835 0.70319 0.38445 0.0
O445 O 0.09944 0.66377 0.55506 0.0
C446 C 0.15397 0.58503 0.54469 0.0
C447 C 0.09697 0.66441 0.4344 0.0
C448 C 0.12853 0.72716 0.42961 0.0
N449 N 0.12949 0.68715 0.48742 0.0
C450 C 0.1085 0.65911 0.47162 0.0
C451 C 0.13955 0.72085 0.4669 0.0
C452 C 0.10709 0.69869 0.41332 0.0
C453 C 0.21413 0.64433 0.64483 0.0
N454 N 0.19368 0.61236 0.63589 0.0
C455 C 0.24704 0.63706 0.65304 0.0
C456 C 0.2591 0.59674 0.65176 0.0
C457 C 0.23824 0.56432 0.64213 0.0
C458 C 0.20548 0.57277 0.63409 0.0
C459 C 0.13712 0.54136 0.71677 0.0
C460 C 0.11246 0.54924 0.6435 0.0
C461 C 0.14666 0.57401 0.69312 0.0
N462 N 0.13455 0.57742 0.65685 0.0
C463 C 0.10236 0.51618 0.66635 0.0
C464 C 0.11489 0.51221 0.70317 0.0
C465 C 0.08545 0.64865 0.58455 0.0
C466 C 0.15463 0.79951 0.58003 0.0
C467 C 0.10713 0.75327 0.54343 0.0
C468 C 0.10068 0.79446 0.55291 0.0
C469 C 0.12462 0.81766 0.57138 0.0
N470 N 0.13657 0.73561 0.55214 0.0
C471 C 0.1602 0.75824 0.57011 0.0
Co472 Co 0.63843 0.89189 0.12761 0.0
Co473 Co 0.63791 0.79179 0.09325 0.0
O474 O 0.6561 0.84835 0.09415 0.0
C475 C 0.63968 0.93392 0.0527 0.0
O476 O 0.62772 0.89995 0.03762 0.0
C477 C 0.71131 0.78121 0.0842 0.0
O478 O 0.71614 0.82064 0.09098 0.0
O479 O 0.64385 0.78702 0.14989 0.0
O480 O 0.62908 0.8508 0.16838 0.0
H481 H 0.56419 0.6782 0.13984 0.0
H482 H 0.70399 0.90602 0.0942 0.0
O483 O 0.64679 0.93514 0.08799 0.0
H484 H 0.72084 0.9063 0.23358 0.0
H485 H 0.63489 0.03402 0.18654 0.0
H486 H 0.58063 0.89805 0.17834 0.0
H487 H 0.66584 0.89633 0.20652 0.0
H488 H 0.65815 0.97846 0.14673 0.0
O489 O 0.68257 0.76602 0.0855 0.0
H490 H 0.58761 0.74857 0.13902 0.0
H491 H 0.64995 0.71532 0.04719 0.0
H492 H 0.55679 0.95257 0.21885 0.0
H493 H 0.75946 0.91665 0.12009 0.0
H494 H 0.58372 0.02131 0.22272 0.0
H495 H 0.76815 0.91666 0.19025 0.0
O496 O 0.5941 0.88336 0.10646 0.0
H497 H 0.67199 0.83144 0.96003 0.0
H498 H 0.58461 0.77039 0.03856 0.0
H499 H 0.57642 0.77778 0.96927 0.0
H500 H 0.6204 0.80832 0.9294 0.0
H501 H 0.67885 0.82421 0.02941 0.0
H502 H 0.62747 0.6445 0.04734 0.0
H503 H 0.58415 0.62561 0.09377 0.0
O504 O 0.59214 0.8143 0.09977 0.0
C505 C 0.63529 0.81296 0.17542 0.0
C506 C 0.58299 0.6861 0.1194 0.0
C507 C 0.61855 0.66716 0.06753 0.0
N508 N 0.61996 0.73615 0.09295 0.0
C509 C 0.59628 0.72592 0.11873 0.0
C510 C 0.63127 0.70728 0.06769 0.0
C511 C 0.59423 0.65659 0.09357 0.0
C512 C 0.70759 0.90622 0.12475 0.0
N513 N 0.68176 0.90029 0.14875 0.0
C514 C 0.73905 0.91214 0.13925 0.0
C515 C 0.74392 0.91209 0.17863 0.0
C516 C 0.7174 0.90622 0.20295 0.0
C517 C 0.68632 0.90035 0.18742 0.0
C518 C 0.62286 1.00424 0.18495 0.0
C519 C 0.59276 0.92769 0.18027 0.0
C520 C 0.63589 0.97266 0.16242 0.0
N521 N 0.62082 0.93497 0.16026 0.0
C522 C 0.57906 0.9585 0.20314 0.0
C523 C 0.59418 0.99707 0.2053 0.0
C524 C 0.57843 0.84992 0.10071 0.0
C525 C 0.65271 0.81788 0.97705 0.0
C526 C 0.60377 0.78396 0.02156 0.0
C527 C 0.59905 0.78791 0.98225 0.0
C528 C 0.62374 0.805 0.9599 0.0
N529 N 0.6323 0.79649 0.03824 0.0
C530 C 0.65656 0.8134 0.01645 0.0
Co531 Co 0.38647 0.12545 0.62861 0.0
Co532 Co 0.38717 0.22511 0.59272 0.0
O533 O 0.36952 0.16833 0.59383 0.0
C534 C 0.38848 0.08341 0.55416 0.0
O535 O 0.40087 0.11754 0.53985 0.0
C536 C 0.31388 0.23395 0.57988 0.0
O537 O 0.30953 0.1943 0.58607 0.0
O538 O 0.37986 0.23058 0.64911 0.0
O539 O 0.39397 0.16704 0.6693 0.0
H540 H 0.45851 0.34061 0.6402 0.0
H541 H 0.32228 0.10977 0.59209 0.0
O542 O 0.37996 0.08192 0.58898 0.0
H543 H 0.30064 0.11037 0.73051 0.0
H544 H 0.38992 0.9835 0.68829 0.0
H545 H 0.44247 0.1207 0.68228 0.0
H546 H 0.35641 0.12121 0.7061 0.0
H547 H 0.3671 0.03864 0.6474 0.0
O548 O 0.34229 0.24996 0.58297 0.0
H549 H 0.43592 0.26981 0.63956 0.0
H550 H 0.37537 0.30072 0.54518 0.0
H551 H 0.46584 0.06662 0.72387 0.0
H552 H 0.2661 0.09831 0.61531 0.0
H553 H 0.43988 0.99722 0.72652 0.0
H554 H 0.25499 0.09873 0.68498 0.0
O555 O 0.43139 0.1345 0.60964 0.0
H556 H 0.35727 0.18289 0.45872 0.0
H557 H 0.44165 0.24668 0.53991 0.0
H558 H 0.45184 0.23862 0.4711 0.0
H559 H 0.40938 0.2067 0.42989 0.0
H560 H 0.3484 0.19082 0.52764 0.0
H561 H 0.39702 0.37195 0.54511 0.0
H562 H 0.43903 0.39224 0.59274 0.0
O563 O 0.43309 0.20339 0.60119 0.0
C564 C 0.38766 0.20502 0.6754 0.0
C565 C 0.44028 0.33211 0.61924 0.0
C566 C 0.40573 0.34972 0.56591 0.0
N567 N 0.40452 0.28104 0.59224 0.0
C568 C 0.42747 0.29204 0.61867 0.0
C569 C 0.39347 0.30937 0.5662 0.0
C570 C 0.42931 0.36108 0.59263 0.0
C571 C 0.31763 0.10979 0.62244 0.0
N572 N 0.34254 0.11645 0.64764 0.0
C573 C 0.28578 0.10339 0.63543 0.0
C574 C 0.27955 0.10367 0.67452 0.0
C575 C 0.30513 0.11027 0.70007 0.0
C576 C 0.33665 0.11662 0.68605 0.0
C577 C 0.40156 0.01357 0.6872 0.0
C578 C 0.43069 0.0908 0.68375 0.0
C579 C 0.38876 0.04491 0.66409 0.0
N580 N 0.40339 0.08292 0.6625 0.0
C581 C 0.44414 0.06023 0.70723 0.0
C582 C 0.42954 0.02131 0.70873 0.0
C583 C 0.44701 0.16794 0.60362 0.0
C584 C 0.37588 0.19712 0.47632 0.0
C585 C 0.4231 0.2326 0.52231 0.0
C586 C 0.42898 0.22823 0.48328 0.0
C587 C 0.40515 0.21037 0.46018 0.0
N588 N 0.39425 0.21977 0.538 0.0
C589 C 0.37086 0.20203 0.51547 0.0
Co590 Co 0.63992 0.12683 0.88921 0.0
Co591 Co 0.63323 0.22612 0.92312 0.0
O592 O 0.65387 0.17113 0.92395 0.0
C593 C 0.63881 0.08459 0.96398 0.0
O594 O 0.62445 0.11757 0.97802 0.0
C595 C 0.705 0.24567 0.92603 0.0
O596 O 0.71044 0.21723 0.90006 0.0
O597 O 0.64325 0.23192 0.86726 0.0
O598 O 0.63114 0.16754 0.84776 0.0
H599 H 0.5596 0.3365 0.86982 0.0
H600 H 0.70401 0.11977 0.92791 0.0
O601 O 0.64801 0.08404 0.92936 0.0
H602 H 0.72872 0.11826 0.7902 0.0
H603 H 0.64536 0.98465 0.83072 0.0
H604 H 0.58517 0.11687 0.83442 0.0
H605 H 0.67181 0.12317 0.81269 0.0
H606 H 0.6644 0.04192 0.87155 0.0
O607 O 0.67594 0.25306 0.93698 0.0
H608 H 0.58554 0.26757 0.8722 0.0
H609 H 0.63826 0.3019 0.9717 0.0
H610 H 0.56552 0.06059 0.79284 0.0
H611 H 0.76134 0.11442 0.90666 0.0
H612 H 0.59538 0.99366 0.79135 0.0
H613 H 0.77397 0.11376 0.83735 0.0
O614 O 0.59413 0.13233 0.90701 0.0
H615 H 0.66038 0.18946 0.05889 0.0
H616 H 0.57455 0.24076 0.97215 0.0
H617 H 0.56204 0.23126 0.04036 0.0
H618 H 0.6052 0.20553 0.08431 0.0
H619 H 0.67161 0.19881 0.9903 0.0
H620 H 0.61317 0.3713 0.97016 0.0
H621 H 0.5734 0.38892 0.91906 0.0
O622 O 0.58914 0.20131 0.91108 0.0
C623 C 0.6368 0.20564 0.8411 0.0
C624 C 0.57685 0.32916 0.89228 0.0
C625 C 0.60695 0.34872 0.94856 0.0
N626 N 0.61328 0.28064 0.92213 0.0
C627 C 0.59156 0.29016 0.89381 0.0
C628 C 0.62118 0.30941 0.94919 0.0
C629 C 0.58462 0.35857 0.91989 0.0
C630 C 0.70934 0.11913 0.89772 0.0
N631 N 0.68463 0.12166 0.87161 0.0
C632 C 0.74183 0.11625 0.88585 0.0
C633 C 0.7489 0.11595 0.84695 0.0
C634 C 0.72354 0.11851 0.82048 0.0
C635 C 0.69136 0.1214 0.8334 0.0
C636 C 0.63206 0.01361 0.83128 0.0
C637 C 0.5986 0.08808 0.83345 0.0
C638 C 0.64271 0.04615 0.85436 0.0
N639 N 0.62597 0.08277 0.8553 0.0
C640 C 0.58726 0.05625 0.80999 0.0
C641 C 0.60404 0.01871 0.80914 0.0
C642 C 0.57683 0.16492 0.91028 0.0
C643 C 0.64137 0.20069 0.04004 0.0
C644 C 0.5933 0.22911 0.99094 0.0
C645 C 0.58616 0.22403 0.02962 0.0
C646 C 0.61039 0.20965 0.05427 0.0
N647 N 0.62369 0.22012 0.97714 0.0
C648 C 0.64761 0.20618 1.00118 0.0
Co649 Co 0.3808 0.89359 0.38869 0.0
Co650 Co 0.38666 0.7939 0.4263 0.0
O651 O 0.36699 0.84973 0.42434 0.0
C652 C 0.38745 0.93441 0.46374 0.0
O653 O 0.40005 0.89998 0.47723 0.0
C654 C 0.31344 0.78075 0.4337 0.0
O655 O 0.30799 0.8197 0.42531 0.0
O656 O 0.38231 0.78753 0.36948 0.0
O657 O 0.38453 0.8528 0.34697 0.0
H658 H 0.46452 0.68303 0.38361 0.0
H659 H 0.32008 0.90794 0.43286 0.0
O660 O 0.37751 0.93636 0.42944 0.0
H661 H 0.28632 0.90982 0.29774 0.0
H662 H 0.37933 0.03724 0.33275 0.0
H663 H 0.43162 0.89972 0.32868 0.0
H664 H 0.34401 0.89899 0.31526 0.0
H665 H 0.3595 0.98054 0.37381 0.0
O666 O 0.3425 0.76638 0.4335 0.0
H667 H 0.43913 0.75233 0.38269 0.0
H668 H 0.37582 0.7176 0.47321 0.0
H669 H 0.45202 0.95549 0.28684 0.0
H670 H 0.26214 0.9196 0.41657 0.0
H671 H 0.42638 0.02515 0.28958 0.0
H672 H 0.24491 0.92036 0.34858 0.0
O673 O 0.42756 0.88505 0.40218 0.0
H674 H 0.34933 0.83472 0.55795 0.0
H675 H 0.43942 0.7755 0.4825 0.0
H676 H 0.44629 0.78455 0.55183 0.0
H677 H 0.40096 0.81421 0.59012 0.0
H678 H 0.34374 0.82582 0.4886 0.0
H679 H 0.40025 0.64782 0.47478 0.0
H680 H 0.44505 0.63022 0.42989 0.0
O681 O 0.43153 0.81851 0.42055 0.0
C682 C 0.38339 0.81385 0.34227 0.0
C683 C 0.44507 0.69037 0.40338 0.0
C684 C 0.40896 0.67058 0.4545 0.0
N685 N 0.40617 0.73912 0.428 0.0
C686 C 0.43067 0.72959 0.40307 0.0
C687 C 0.39514 0.71011 0.45337 0.0
C688 C 0.43412 0.66074 0.42933 0.0
C689 C 0.3128 0.90861 0.40321 0.0
N690 N 0.33538 0.90255 0.3751 0.0
C691 C 0.27995 0.91505 0.39416 0.0
C692 C 0.27029 0.91541 0.35601 0.0
C693 C 0.29349 0.90943 0.32747 0.0
C694 C 0.32612 0.90306 0.3376 0.0
C695 C 0.39087 1.00711 0.33158 0.0
C696 C 0.41991 0.92971 0.32942 0.0
C697 C 0.37976 0.97488 0.35477 0.0
N698 N 0.39445 0.93687 0.35372 0.0
C699 C 0.43167 0.96121 0.3058 0.0
C700 C 0.4172 1.00025 0.30724 0.0
C701 C 0.44417 0.85373 0.41287 0.0
C702 C 0.3692 0.82156 0.54162 0.0
C703 C 0.41965 0.78863 0.49886 0.0
C704 C 0.42364 0.79354 0.53817 0.0
C705 C 0.39819 0.81014 0.55964 0.0
N706 N 0.3911 0.79974 0.48132 0.0
C707 C 0.36609 0.81615 0.50224 0.0
Co708 Co 0.37339 0.12366 0.88687 0.0
Co709 Co 0.37748 0.17784 0.97248 0.0
O710 O 0.36055 0.1697 0.92038 0.0
C711 C 0.37455 0.19986 0.83469 0.0
O712 O 0.36427 0.22574 0.86085 0.0
C713 C 0.31565 0.17976 0.01816 0.0
O714 O 0.32596 0.14736 0.0374 0.0
O715 O 0.36955 0.11805 0.98572 0.0
O716 O 0.37059 0.08394 0.9301 0.0
H717 H 0.44472 0.14065 0.08751 0.0
H718 H 0.31612 0.17718 0.86725 0.0
O719 O 0.3778 0.16129 0.84152 0.0
H720 H 0.27328 0.03476 0.87121 0.0
H721 H 0.37189 0.04032 0.76549 0.0
H722 H 0.41832 0.05206 0.89496 0.0
H723 H 0.33136 0.04847 0.88452 0.0
H724 H 0.35626 0.09821 0.80742 0.0
O725 O 0.33219 0.19355 0.99001 0.0
H726 H 0.42339 0.13187 0.02215 0.0
H727 H 0.36697 0.24159 0.03331 0.0
H728 H 0.43438 0.99338 0.85408 0.0
H729 H 0.25808 0.16484 0.85323 0.0
H730 H 0.41086 0.98699 0.78904 0.0
H731 H 0.2362 0.09315 0.85514 0.0
O732 O 0.42051 0.13359 0.89767 0.0
H733 H 0.34754 0.31743 0.91912 0.0
H734 H 0.43344 0.23592 0.98326 0.0
H735 H 0.44403 0.3089 0.96664 0.0
H736 H 0.40082 0.35025 0.93446 0.0
H737 H 0.33826 0.24411 0.93557 0.0
H738 H 0.38756 0.25145 0.09882 0.0
H739 H 0.42677 0.20078 0.12631 0.0
O740 O 0.42297 0.16458 0.95513 0.0
C741 C 0.36875 0.08458 0.96631 0.0
C742 C 0.42766 0.16295 0.07584 0.0
C743 C 0.39556 0.22512 0.0822 0.0
N744 N 0.39397 0.18616 0.02391 0.0
C745 C 0.41552 0.15816 0.03884 0.0
C746 C 0.38393 0.21932 0.04511 0.0
C747 C 0.41757 0.19669 0.0976 0.0
C748 C 0.30709 0.14589 0.86761 0.0
N749 N 0.32746 0.1136 0.87595 0.0
C750 C 0.27404 0.13908 0.85989 0.0
C751 C 0.26176 0.09888 0.86105 0.0
C752 C 0.28254 0.06612 0.87006 0.0
C753 C 0.31545 0.07412 0.87763 0.0
C754 C 0.3822 0.04262 0.79387 0.0
C755 C 0.40797 0.04948 0.86667 0.0
C756 C 0.37351 0.07541 0.81772 0.0
N757 N 0.3861 0.07827 0.85378 0.0
C758 C 0.41722 0.01625 0.84362 0.0
C759 C 0.40409 0.01277 0.80706 0.0
C760 C 0.43638 0.14918 0.92547 0.0
C761 C 0.36659 0.29973 0.93306 0.0
C762 C 0.41474 0.25349 0.96868 0.0
C763 C 0.42077 0.29491 0.95962 0.0
C764 C 0.3965 0.31811 0.94164 0.0
N765 N 0.38542 0.23558 0.95997 0.0
C766 C 0.36146 0.25821 0.94253 0.0
Co767 Co 0.64739 0.89441 0.38779 0.0
Co768 Co 0.64493 0.83991 0.47329 0.0
O769 O 0.66098 0.84831 0.42091 0.0
C770 C 0.64658 0.81864 0.33521 0.0
O771 O 0.65754 0.79271 0.36105 0.0
C772 C 0.7078 0.83649 0.51725 0.0
O773 O 0.69838 0.86914 0.53662 0.0
O774 O 0.65396 0.89933 0.48653 0.0
O775 O 0.65027 0.93398 0.4312 0.0
H776 H 0.58082 0.87714 0.59045 0.0
H777 H 0.70506 0.84205 0.36743 0.0
O778 O 0.64292 0.85706 0.34236 0.0
H779 H 0.7463 0.98523 0.37112 0.0
H780 H 0.64618 0.97805 0.26638 0.0
H781 H 0.60159 0.96498 0.39652 0.0
H782 H 0.68853 0.97037 0.38512 0.0
H783 H 0.66349 0.92076 0.30829 0.0
O784 O 0.6904 0.823 0.48964 0.0
H785 H 0.60083 0.88633 0.52461 0.0
H786 H 0.65579 0.77512 0.53325 0.0
H787 H 0.58378 0.02301 0.35561 0.0
H788 H 0.76279 0.85554 0.35271 0.0
H789 H 0.60624 0.02995 0.29014 0.0
H790 H 0.78386 0.92761 0.35448 0.0
O791 O 0.60056 0.88349 0.39909 0.0
H792 H 0.67224 0.70038 0.41846 0.0
H793 H 0.58832 0.78276 0.48457 0.0
H794 H 0.57652 0.71029 0.46752 0.0
H795 H 0.61875 0.66847 0.43435 0.0
H796 H 0.68269 0.77326 0.43532 0.0
H797 H 0.63651 0.76482 0.59921 0.0
H798 H 0.5987 0.81603 0.62822 0.0
O799 O 0.5991 0.85459 0.45745 0.0
C800 C 0.65365 0.93301 0.46729 0.0
C801 C 0.59727 0.85459 0.57812 0.0
C802 C 0.62854 0.79158 0.58305 0.0
N803 N 0.62943 0.83131 0.52508 0.0
C804 C 0.60865 0.85961 0.54084 0.0
C805 C 0.63942 0.79761 0.5457 0.0
C806 C 0.60732 0.82031 0.5993 0.0
C807 C 0.71373 0.87349 0.36773 0.0
N808 N 0.69308 0.90536 0.37638 0.0
C809 C 0.74661 0.88096 0.35961 0.0
C810 C 0.75843 0.92138 0.36069 0.0
C811 C 0.73738 0.9537 0.37003 0.0
C812 C 0.70466 0.94505 0.37798 0.0
C813 C 0.63627 0.97547 0.2949 0.0
C814 C 0.61156 0.96789 0.3681 0.0
C815 C 0.64594 0.94303 0.31876 0.0
N816 N 0.63381 0.93977 0.35499 0.0
C817 C 0.60131 1.00073 0.34502 0.0
C818 C 0.61387 1.00454 0.30823 0.0
C819 C 0.58503 0.86909 0.42769 0.0
C820 C 0.65361 0.71829 0.43282 0.0
C821 C 0.60654 0.76507 0.4695 0.0
C822 C 0.59986 0.72389 0.46023 0.0
C823 C 0.62358 0.70042 0.44171 0.0
N824 N 0.63598 0.78248 0.46053 0.0
C825 C 0.65941 0.75957 0.44254 0.0
Co826 Co 0.37456 0.88184 0.12046 0.0
Co827 Co 0.37957 0.83123 0.03336 0.0
O828 O 0.36241 0.83731 0.08527 0.0
C829 C 0.39974 0.83072 0.18514 0.0
O830 O 0.42902 0.84494 0.17738 0.0
C831 C 0.31734 0.82993 0.98838 0.0
O832 O 0.32684 0.86357 0.97048 0.0
O833 O 0.37058 0.89115 0.02218 0.0
O834 O 0.37316 0.9238 0.07862 0.0
H835 H 0.44551 0.87421 0.91922 0.0
H836 H 0.31832 0.82755 0.1388 0.0
O837 O 0.37556 0.84043 0.16379 0.0
H838 H 0.2732 0.96908 0.13397 0.0
H839 H 0.36952 0.96059 0.24441 0.0
H840 H 0.42019 0.95283 0.11702 0.0
H841 H 0.33178 0.95674 0.12231 0.0
H842 H 0.35491 0.90439 0.19996 0.0
O843 O 0.33454 0.81495 0.0155 0.0
H844 H 0.42454 0.88002 0.98498 0.0
H845 H 0.36969 0.76952 0.97068 0.0
H846 H 0.43522 0.00978 0.16036 0.0
H847 H 0.25962 0.83855 0.15104 0.0
H848 H 0.40948 0.01429 0.22419 0.0
H849 H 0.2367 0.90974 0.14864 0.0
O850 O 0.42172 0.87249 0.10983 0.0
H851 H 0.35297 0.69016 0.08557 0.0
H852 H 0.436 0.77453 0.01975 0.0
H853 H 0.44798 0.70148 0.03485 0.0
H854 H 0.40621 0.6587 0.06786 0.0
H855 H 0.34223 0.76352 0.07041 0.0
H856 H 0.38993 0.76261 0.90474 0.0
H857 H 0.42817 0.81517 0.87863 0.0
O858 O 0.42493 0.84508 0.05096 0.0
C859 C 0.37047 0.9241 0.04239 0.0
C860 C 0.4289 0.85107 0.9303 0.0
C861 C 0.39768 0.78846 0.92215 0.0
N862 N 0.39598 0.82512 0.98168 0.0
C863 C 0.41698 0.85417 0.96751 0.0
C864 C 0.38625 0.79258 0.95949 0.0
C865 C 0.41914 0.81796 0.90753 0.0
C866 C 0.30856 0.85864 0.13793 0.0
N867 N 0.3285 0.89147 0.13008 0.0
C868 C 0.27529 0.86467 0.14478 0.0
C869 C 0.26244 0.90461 0.14339 0.0
C870 C 0.2829 0.93792 0.13513 0.0
C871 C 0.31604 0.93072 0.12843 0.0
C872 C 0.38076 0.95911 0.2165 0.0
C873 C 0.40898 0.95444 0.14488 0.0
C874 C 0.37266 0.92729 0.19126 0.0
N875 N 0.38655 0.92547 0.15583 0.0
C876 C 0.41762 0.98673 0.16931 0.0
C877 C 0.40325 0.98913 0.20525 0.0
C878 C 0.43798 0.85903 0.08146 0.0
C879 C 0.37138 0.70849 0.07121 0.0
C880 C 0.41789 0.75628 0.03456 0.0
C881 C 0.42472 0.71485 0.04281 0.0
C882 C 0.40126 0.69086 0.06129 0.0
N883 N 0.38854 0.77338 0.04439 0.0
C884 C 0.36542 0.75004 0.06251 0.0
Co885 Co 0.65062 0.12915 0.62614 0.0
Co886 Co 0.64738 0.18535 0.54131 0.0
O887 O 0.66414 0.17572 0.59342 0.0
C888 C 0.65007 0.20368 0.68074 0.0
O889 O 0.66126 0.23053 0.65586 0.0
C890 C 0.7089 0.18608 0.49507 0.0
O891 O 0.69769 0.15417 0.47593 0.0
O892 O 0.65432 0.12558 0.52725 0.0
O893 O 0.65346 0.09032 0.58235 0.0
H894 H 0.57969 0.15208 0.42573 0.0
H895 H 0.7083 0.18129 0.64686 0.0
O896 O 0.64616 0.16564 0.6722 0.0
H897 H 0.74969 0.03819 0.64173 0.0
H898 H 0.64989 0.04324 0.74623 0.0
H899 H 0.60493 0.05869 0.61636 0.0
H900 H 0.69186 0.05317 0.62801 0.0
H901 H 0.66693 0.10139 0.70528 0.0
O902 O 0.69298 0.20012 0.52364 0.0
H903 H 0.60083 0.14151 0.49098 0.0
H904 H 0.65874 0.25011 0.48141 0.0
H905 H 0.58732 0.99989 0.65633 0.0
H906 H 0.7661 0.16768 0.66132 0.0
H907 H 0.60996 0.99173 0.72165 0.0
H908 H 0.78725 0.09565 0.65882 0.0
O909 O 0.60369 0.1401 0.615 0.0
H910 H 0.67962 0.32251 0.59747 0.0
H911 H 0.59257 0.24547 0.53117 0.0
H912 H 0.58322 0.31827 0.54923 0.0
H913 H 0.62702 0.35737 0.5825 0.0
H914 H 0.68763 0.24939 0.57954 0.0
H915 H 0.63836 0.26175 0.41603 0.0
H916 H 0.5985 0.21255 0.38779 0.0
O917 O 0.60158 0.17299 0.5584 0.0
C918 C 0.65514 0.0917 0.54616 0.0
C919 C 0.59704 0.17375 0.43773 0.0
C920 C 0.62998 0.23528 0.43227 0.0
N921 N 0.63099 0.19513 0.49 0.0
C922 C 0.60907 0.16795 0.47466 0.0
C923 C 0.64148 0.22849 0.46929 0.0
C924 C 0.60761 0.20767 0.41645 0.0
C925 C 0.717 0.14986 0.64627 0.0
N926 N 0.69636 0.11807 0.63739 0.0
C927 C 0.74992 0.14233 0.65422 0.0
C928 C 0.76179 0.10193 0.65274 0.0
C929 C 0.74074 0.0697 0.64315 0.0
C930 C 0.70798 0.07841 0.63536 0.0
C931 C 0.63987 0.04636 0.71778 0.0
C932 C 0.61496 0.0553 0.64474 0.0
C933 C 0.64939 0.0793 0.69446 0.0
N934 N 0.63716 0.08322 0.6583 0.0
C935 C 0.60483 0.022 0.66728 0.0
C936 C 0.61748 0.01751 0.70399 0.0
C937 C 0.58793 0.15688 0.58763 0.0
C938 C 0.66031 0.30579 0.58306 0.0
C939 C 0.61149 0.26203 0.54625 0.0
C940 C 0.60618 0.30337 0.5561 0.0
C941 C 0.63079 0.32531 0.57469 0.0
N942 N 0.64044 0.24301 0.5547 0.0
C943 C 0.66473 0.2644 0.57277 0.0
C944 C 0.02431 0.38633 0.10785 0.0
C945 C 0.04167 0.35038 0.09732 0.0
H946 H 0.97749 0.41642 0.11159 0.0
C947 C 0.0241 0.31665 0.08252 0.0
H948 H 0.03697 0.41279 0.11973 0.0
C949 C 0.99035 0.31923 0.07714 0.0
C950 C 0.97312 0.35515 0.08726 0.0
H951 H 0.03637 0.28823 0.07473 0.0
H952 H 0.97766 0.29269 0.06566 0.0
C953 C 0.99028 0.38846 0.10333 0.0
C954 C 0.99796 0.63022 0.61747 0.0
C955 C 0.98039 0.65804 0.59433 0.0
H956 H 0.04486 0.60571 0.63293 0.0
C957 C 0.99748 0.68132 0.56699 0.0
H958 H 0.98549 0.61171 0.63875 0.0
C959 C 0.0313 0.67712 0.56293 0.0
C960 C 0.04915 0.65038 0.58685 0.0
H961 H 0.98472 0.70253 0.54832 0.0
H962 H 0.04343 0.69548 0.54139 0.0
C963 C 0.032 0.6268 0.61411 0.0
C964 C 0.99085 0.68935 0.94024 0.0
C965 C 0.97351 0.65513 0.92616 0.0
H966 H 0.03698 0.71976 0.94534 0.0
C967 C 0.99066 0.62379 0.90698 0.0
H968 H 0.97824 0.7144 0.95436 0.0
C969 C 0.02459 0.62632 0.90258 0.0
C970 C 0.04197 0.66089 0.91624 0.0
H971 H 0.97785 0.59719 0.89559 0.0
H972 H 0.0371 0.60146 0.88791 0.0
C973 C 0.0246 0.69251 0.93484 0.0
C974 C 0.03236 0.3321 0.43987 0.0
C975 C 0.05069 0.36111 0.41899 0.0
H976 H 0.98564 0.30498 0.45026 0.0
C977 C 0.03424 0.38672 0.39267 0.0
H978 H 0.044 0.31192 0.46041 0.0
C979 C 1.00037 0.38331 0.38745 0.0
C980 C 0.98225 0.35351 0.40771 0.0
H981 H 0.04752 0.40949 0.3761 0.0
H982 H 0.98846 0.40361 0.36711 0.0
C983 C 0.99873 0.32795 0.4339 0.0
C984 C 0.49105 0.88995 0.10287 0.0
C985 C 0.47397 0.8576 0.08506 0.0
H986 H 0.53747 0.91338 0.12101 0.0
C987 C 0.49139 0.82273 0.07255 0.0
H988 H 0.47817 0.91708 0.11304 0.0
C989 C 0.52515 0.81995 0.07813 0.0
C990 C 0.54247 0.85255 0.09533 0.0
H991 H 0.47882 0.79694 0.05952 0.0
H992 H 0.53757 0.79218 0.06892 0.0
C993 C 0.52501 0.88775 0.10743 0.0
C994 C 0.53422 0.12745 0.60896 0.0
C995 C 0.55184 0.15915 0.59079 0.0
H996 H 0.48743 0.10496 0.62663 0.0
C997 C 0.53476 0.19395 0.57716 0.0
H998 H 0.5467 0.10032 0.61991 0.0
C999 C 0.50091 0.19723 0.58194 0.0
C1000 C 0.48313 0.16523 0.59949 0.0
H1001 H 0.54762 0.21923 0.56367 0.0
H1002 H 0.48874 0.22481 0.57168 0.0
C1003 C 0.50023 0.13018 0.6128 0.0
C1004 C 0.52512 0.12262 0.90565 0.0
C1005 C 0.54076 0.16055 0.91354 0.0
H1006 H 0.47962 0.08942 0.90272 0.0
C1007 C 0.5215 0.19439 0.925 0.0
H1008 H 0.53909 0.09599 0.89637 0.0
C1009 C 0.48779 0.19017 0.92963 0.0
C1010 C 0.47226 0.15239 0.92191 0.0
H1011 H 0.53237 0.22431 0.9305 0.0
H1012 H 0.47377 0.21693 0.93824 0.0
C1013 C 0.49112 0.11877 0.90928 0.0
C1014 C 0.49754 0.88647 0.39404 0.0
C1015 C 0.48005 0.85868 0.41724 0.0
H1016 H 0.54433 0.91126 0.37878 0.0
C1017 C 0.49717 0.8359 0.44497 0.0
H1018 H 0.48505 0.90462 0.37248 0.0
C1019 C 0.53094 0.84052 0.44933 0.0
C1020 C 0.54872 0.86714 0.42529 0.0
H1021 H 0.48445 0.81474 0.46369 0.0
H1022 H 0.54309 0.82253 0.47115 0.0
C1023 C 0.53153 0.89027 0.39769 0.0
C1024 C 0.11044 0.31508 0.23667 0.0
C1025 C 0.13526 0.29815 0.21391 0.0
H1026 H 0.09548 0.33256 0.29273 0.0
C1027 C 0.16181 0.27818 0.23159 0.0
H1028 H 0.0897 0.33055 0.22371 0.0
C1029 C 0.16502 0.27912 0.27155 0.0
C1030 C 0.14175 0.30014 0.29375 0.0
H1031 H 0.18144 0.26543 0.21456 0.0
H1032 H 0.18701 0.26691 0.28461 0.0
C1033 C 0.11374 0.31625 0.27614 0.0
C1034 C 0.91367 0.72113 0.72517 0.0
C1035 C 0.88322 0.71326 0.70833 0.0
H1036 H 0.94237 0.71858 0.77624 0.0
C1037 C 0.85642 0.70402 0.73177 0.0
H1038 H 0.93483 0.72727 0.70749 0.0
C1039 C 0.8606 0.69906 0.77115 0.0
C1040 C 0.89189 0.70225 0.78753 0.0
H1041 H 0.83289 0.69683 0.71921 0.0
H1042 H 0.83994 0.6888 0.78798 0.0
C1043 C 0.918 0.71562 0.76449 0.0
C1044 C 0.15945 0.73415 0.77874 0.0
C1045 C 0.13338 0.71357 0.79668 0.0
H1046 H 0.18408 0.74595 0.72553 0.0
C1047 C 0.10872 0.69589 0.77412 0.0
H1048 H 0.17897 0.7475 0.7956 0.0
C1049 C 0.11177 0.69464 0.73462 0.0
C1050 C 0.13938 0.71143 0.71675 0.0
H1051 H 0.08832 0.67994 0.78726 0.0
H1052 H 0.09365 0.67784 0.71821 0.0
C1053 C 0.16241 0.73316 0.73876 0.0
C1054 C 0.85617 0.30915 0.23104 0.0
C1055 C 0.88577 0.30064 0.21218 0.0
H1056 H 0.83222 0.31834 0.28473 0.0
C1057 C 0.91256 0.28673 0.23402 0.0
H1058 H 0.83498 0.31973 0.21525 0.0
C1059 C 0.91073 0.28553 0.274 0.0
C1060 C 0.88203 0.29777 0.29269 0.0
H1061 H 0.93575 0.27996 0.22054 0.0
H1062 H 0.93256 0.27854 0.29031 0.0
C1063 C 0.85443 0.30799 0.27087 0.0
C1064 C 0.66278 0.78315 0.27433 0.0
C1065 C 0.63959 0.80507 0.29593 0.0
H1066 H 0.67944 0.76785 0.21779 0.0
C1067 C 0.61184 0.82115 0.27773 0.0
H1068 H 0.68455 0.77086 0.28784 0.0
C1069 C 0.60873 0.81895 0.23826 0.0
C1070 C 0.63353 0.80112 0.21603 0.0
H1071 H 0.59359 0.83805 0.29382 0.0
H1072 H 0.58819 0.83438 0.22483 0.0
C1073 C 0.6598 0.78127 0.23437 0.0
C1074 C 0.3581 0.23436 0.77334 0.0
C1075 C 0.38173 0.21385 0.79559 0.0
H1076 H 0.34164 0.24829 0.71633 0.0
C1077 C 0.41021 0.19913 0.7781 0.0
H1078 H 0.33576 0.24548 0.7863 0.0
C1079 C 0.41374 0.20124 0.73867 0.0
C1080 C 0.38866 0.21759 0.7158 0.0
H1081 H 0.42874 0.18322 0.7947 0.0
H1082 H 0.4349 0.18674 0.72576 0.0
C1083 C 0.36152 0.23613 0.73343 0.0
C1084 C 0.61162 0.19963 0.7774 0.0
C1085 C 0.63579 0.21769 0.80045 0.0
H1086 H 0.59729 0.18158 0.72123 0.0
C1087 C 0.662 0.23845 0.78293 0.0
H1088 H 0.59114 0.18349 0.79016 0.0
C1089 C 0.66543 0.23757 0.74295 0.0
C1090 C 0.64277 0.21571 0.72045 0.0
H1091 H 0.68119 0.25204 0.80013 0.0
H1092 H 0.68711 0.25076 0.73007 0.0
C1093 C 0.61515 0.19846 0.73794 0.0
C1094 C 0.42013 0.80046 0.2466 0.0
C1095 C 0.39368 0.81239 0.22334 0.0
H1096 H 0.43707 0.78966 0.30371 0.0
C1097 C 0.36219 0.81352 0.23938 0.0
H1098 H 0.44466 0.79906 0.2351 0.0
C1099 C 0.35796 0.80798 0.27867 0.0
C1100 C 0.38497 0.80035 0.30238 0.0
H1101 H 0.34127 0.82263 0.22236 0.0
H1102 H 0.33412 0.81374 0.291 0.0
C1103 C 0.41578 0.79448 0.28583 0.0
C1104 C 0.26287 0.18655 0.0546 0.0
C1105 C 0.28797 0.20478 0.03298 0.0
H1106 H 0.2183 0.196 0.0858 0.0
C1107 C 0.2875 0.24792 0.02734 0.0
H1108 H 0.26265 0.15344 0.05956 0.0
C1109 C 0.26284 0.27235 0.04337 0.0
C1110 C 0.23751 0.25416 0.0646 0.0
H1111 H 0.30664 0.26303 0.01117 0.0
H1112 H 0.26329 0.30548 0.03853 0.0
C1113 C 0.23759 0.21092 0.06972 0.0
C1114 C 0.7602 0.74314 0.54191 0.0
C1115 C 0.78633 0.76107 0.56201 0.0
H1116 H 0.71564 0.75294 0.51106 0.0
C1117 C 0.78695 0.80437 0.56642 0.0
H1118 H 0.75918 0.70996 0.5376 0.0
C1119 C 0.76156 0.82905 0.55182 0.0
C1120 C 0.73562 0.81107 0.53136 0.0
H1121 H 0.80686 0.8191 0.58159 0.0
H1122 H 0.76234 0.86222 0.55627 0.0
C1123 C 0.73541 0.76786 0.52634 0.0
C1124 C 0.28952 0.76208 0.97688 0.0
C1125 C 0.2895 0.80548 0.97332 0.0
H1126 H 0.26521 0.705 0.96415 0.0
C1127 C 0.26357 0.82465 0.95376 0.0
H1128 H 0.3093 0.74631 0.99145 0.0
C1129 C 0.2379 0.80093 0.9387 0.0
C1130 C 0.23824 0.75747 0.94181 0.0
H1131 H 0.26297 0.858 0.95047 0.0
H1132 H 0.21794 0.81653 0.92433 0.0
C1133 C 0.26442 0.73835 0.96088 0.0
C1134 C 0.73798 0.25352 0.48465 0.0
C1135 C 0.7367 0.21037 0.47938 0.0
H1136 H 0.76257 0.31043 0.4718 0.0
C1137 C 0.76087 0.19146 0.45682 0.0
H1138 H 0.71958 0.26917 0.50151 0.0
C1139 C 0.78596 0.21513 0.44031 0.0
C1140 C 0.78676 0.2584 0.44492 0.0
H1141 H 0.76046 0.15833 0.45209 0.0
H1142 H 0.80449 0.19965 0.42352 0.0
C1143 C 0.76243 0.27727 0.46723 0.0
C1144 C 0.76469 0.77358 0.04999 0.0
C1145 C 0.73854 0.75523 0.06966 0.0
H1146 H 0.80914 0.76442 0.019 0.0
C1147 C 0.73789 0.71182 0.07341 0.0
H1148 H 0.76575 0.80685 0.04621 0.0
C1149 C 0.76317 0.68741 0.05834 0.0
C1150 C 0.78905 0.70582 0.03816 0.0
H1151 H 0.71796 0.69676 0.08826 0.0
H1152 H 0.76229 0.65414 0.0621 0.0
C1153 C 0.78939 0.74917 0.03403 0.0
C1154 C 0.2858 0.30251 0.56901 0.0
C1155 C 0.28658 0.25926 0.56425 0.0
H1156 H 0.25987 0.35929 0.55829 0.0
C1157 C 0.26159 0.24037 0.54291 0.0
H1158 H 0.30479 0.318 0.58512 0.0
C1159 C 0.23655 0.26409 0.52656 0.0
C1160 C 0.23535 0.30722 0.53193 0.0
H1161 H 0.26164 0.20721 0.53831 0.0
H1162 H 0.21767 0.24844 0.5104 0.0
C1163 C 0.26017 0.32616 0.55355 0.0
C1164 C 0.75219 0.31924 0.99073 0.0
C1165 C 0.78478 0.308 0.98357 0.0
H1166 H 0.70167 0.30862 0.97831 0.0
C1167 C 0.79094 0.2769 0.95631 0.0
H1168 H 0.74648 0.34295 0.0115 0.0
C1169 C 0.7652 0.25722 0.93709 0.0
C1170 C 0.73259 0.26797 0.94472 0.0
H1171 H 0.81571 0.26742 0.94993 0.0
H1172 H 0.7709 0.23313 0.91668 0.0
C1173 C 0.72646 0.29944 0.97163 0.0
C1174 C 0.26148 0.68722 0.46019 0.0
C1175 C 0.23573 0.70575 0.48051 0.0
H1176 H 0.30664 0.6963 0.43002 0.0
C1177 C 0.23573 0.74903 0.48494 0.0
H1178 H 0.26209 0.65397 0.4562 0.0
C1179 C 0.26051 0.77328 0.46886 0.0
C1180 C 0.28642 0.7548 0.44884 0.0
H1181 H 0.21611 0.76435 0.50012 0.0
H1182 H 0.25964 0.80655 0.47268 0.0
C1183 C 0.28688 0.71144 0.44509 0.0
C1184 C 0.1408 0.50349 0.96577 0.0
C1185 C 0.14047 0.54267 0.9833 0.0
H1186 H 0.13986 0.43763 0.97352 0.0
C1187 C 0.14074 0.54503 0.02327 0.0
H1188 H 0.14044 0.50067 0.93497 0.0
C1189 C 0.14095 0.5089 0.04528 0.0
C1190 C 0.14021 0.46973 0.02774 0.0
H1191 H 0.14058 0.57478 0.03752 0.0
H1192 H 0.14073 0.51172 0.07608 0.0
C1193 C 0.14032 0.46737 0.98778 0.0
C1194 C 0.89115 0.54706 0.48128 0.0
C1195 C 0.8904 0.54425 0.52119 0.0
H1196 H 0.89179 0.5142 0.42829 0.0
C1197 C 0.89024 0.50487 0.53851 0.0
H1198 H 0.89125 0.57697 0.46723 0.0
C1199 C 0.89116 0.46898 0.51633 0.0
C1200 C 0.89152 0.47177 0.47641 0.0
H1201 H 0.8899 0.50176 0.56928 0.0
H1202 H 0.89122 0.43909 0.53041 0.0
C1203 C 0.89133 0.51113 0.45907 0.0
C1204 C 0.87129 0.46914 0.97803 0.0
C1205 C 0.87061 0.46417 0.01785 0.0
H1206 H 0.87172 0.51113 0.93083 0.0
C1207 C 0.86889 0.50002 0.04077 0.0
H1208 H 0.87263 0.44245 0.95942 0.0
C1209 C 0.86835 0.53964 0.02437 0.0
C1210 C 0.86951 0.54463 0.98456 0.0
H1211 H 0.86834 0.49765 0.07159 0.0
H1212 H 0.8675 0.56636 0.043 0.0
C1213 C 0.87075 0.50875 0.96164 0.0
C1214 C 0.15623 0.46885 0.52605 0.0
C1215 C 0.15658 0.4671 0.48601 0.0
H1216 H 0.1553 0.50697 0.57581 0.0
C1217 C 0.15747 0.50469 0.46542 0.0
H1218 H 0.15546 0.44073 0.5429 0.0
C1219 C 0.15733 0.54289 0.48429 0.0
C1220 C 0.1563 0.54464 0.52431 0.0
H1221 H 0.15773 0.50479 0.43452 0.0
H1222 H 0.15741 0.57101 0.46741 0.0
C1223 C 0.15611 0.50705 0.54492 0.0
C1224 C 0.64331 0.00752 0.96867 0.0
C1225 C 0.64136 0.04628 0.98688 0.0
H1226 H 0.64389 0.94148 0.97522 0.0
C1227 C 0.64034 0.04776 0.02685 0.0
H1228 H 0.64394 1.00539 0.93784 0.0
C1229 C 0.64092 0.01118 0.0482 0.0
C1230 C 0.64178 0.97238 0.02996 0.0
H1231 H 0.63889 0.07716 0.0416 0.0
H1232 H 0.63966 0.0133 0.07901 0.0
C1233 C 0.64315 0.97091 0.99 0.0
C1234 C 0.38592 0.01141 0.46935 0.0
C1235 C 0.38663 0.97231 0.48715 0.0
H1236 H 0.38633 0.07729 0.47664 0.0
C1237 C 0.38712 0.97005 0.5271 0.0
H1238 H 0.38571 0.01411 0.43854 0.0
C1239 C 0.38687 1.00627 0.54886 0.0
C1240 C 0.38686 0.04537 0.53102 0.0
H1241 H 0.38758 0.94034 0.5415 0.0
H1242 H 0.38745 1.00363 0.57967 0.0
C1243 C 0.38639 0.0476 0.49108 0.0
C1244 C 0.36669 0.96806 0.98309 0.0
C1245 C 0.36811 0.96519 0.02305 0.0
H1246 H 0.36557 1.00738 0.9341 0.0
C1247 C 0.36835 1.00221 0.04442 0.0
H1248 H 0.36652 0.94043 0.96561 0.0
C1249 C 0.36782 0.04096 0.02627 0.0
C1250 C 0.36704 0.04377 0.98626 0.0
H1251 H 0.36945 1.0014 0.07529 0.0
H1252 H 0.36863 0.06866 0.04363 0.0
C1253 C 0.36615 1.00672 0.96499 0.0
C1254 C 0.65613 0.0494 0.48558 0.0
C1255 C 0.65687 0.05129 0.52562 0.0
H1256 H 0.65465 0.01106 0.43592 0.0
C1257 C 0.65787 0.01372 0.54626 0.0
H1258 H 0.65525 0.07748 0.46867 0.0
C1259 C 0.6575 0.97546 0.5275 0.0
C1260 C 0.65611 0.97354 0.48749 0.0
H1261 H 0.65841 0.01369 0.57715 0.0
H1262 H 0.65773 0.94739 0.54446 0.0
C1263 C 0.65575 0.0111 0.4668 0.0
loop_
_geom_bond_atom_site_label_1
_geom_bond_atom_site_label_2
_geom_bond_distance
_geom_bond_site_symmetry_2
_ccdc_geom_bond_type
Co0 O2 2.143 . S
Co0 O8 2.074 . S
Co0 O11 2.093 . S
Co0 O24 2.097 . S
Co0 N41 2.151 . S
Co0 N49 2.214 . S
Co1 O2 2.160 . S
Co1 O7 2.058 . S
Co1 O17 2.057 . S
Co1 O32 2.037 . S
Co1 N36 2.145 . S
Co1 N57 2.257 . S
O2 Co0 2.143 . S
O2 Co1 2.160 . S
C3 O4 1.278 . S
C3 O11 1.224 . S
O4 C3 1.278 . S
C5 O6 1.245 . S
C5 O17 1.232 . S
O6 C5 1.245 . S
O7 Co1 2.058 . S
O7 C33 1.269 . S
O8 Co0 2.074 . S
O8 C33 1.257 . S
H9 C34 0.930 . S
H10 C40 0.930 . S
O11 Co0 2.093 . S
O11 C3 1.224 . S
H12 C44 0.929 . S
H13 C46 0.930 . S
H14 C47 0.930 . S
H15 C45 0.929 . S
H16 C48 0.928 . S
O17 Co1 2.057 . S
O17 C5 1.232 . S
H18 C37 0.929 . S
H19 C38 0.929 . S
H20 C50 0.931 . S
H21 C42 0.929 . S
H22 C51 0.930 . S
H23 C43 0.931 . S
O24 Co0 2.097 . S
O24 C52 1.214 . S
H25 C53 0.929 . S
H26 C54 0.929 . S
H27 C55 0.930 . S
H28 C56 0.929 . S
H29 C58 0.930 . S
H30 C35 0.930 . S
H31 C39 0.930 . S
O32 Co1 2.037 . S
O32 C52 1.234 . S
C33 O7 1.269 . S
C33 O8 1.257 . S
C34 H9 0.930 . S
C34 C37 1.388 . S
C34 C39 1.418 . S
C35 H30 0.930 . S
C35 C38 1.404 . S
C35 C39 1.353 . S
N36 Co1 2.145 . S
N36 C37 1.397 . S
N36 C38 1.334 . S
C37 H18 0.929 . S
C37 C34 1.388 . S
C37 N36 1.397 . S
C38 H19 0.929 . S
C38 C35 1.404 . S
C38 N36 1.334 . S
C39 H31 0.930 . S
C39 C34 1.418 . S
C39 C35 1.353 . S
C40 H10 0.930 . S
C40 N41 1.330 . S
C40 C42 1.446 . S
N41 Co0 2.151 . S
N41 C40 1.330 . S
N41 C45 1.418 . S
C42 H21 0.929 . S
C42 C40 1.446 . S
C42 C43 1.332 . S
C43 H23 0.931 . S
C43 C42 1.332 . S
C43 C44 1.267 . S
C44 H12 0.929 . S
C44 C43 1.267 . S
C44 C45 1.251 . S
C45 H15 0.929 . S
C45 N41 1.418 . S
C45 C44 1.251 . S
C46 H13 0.930 . S
C46 C48 1.406 . S
C46 C51 1.261 . S
C47 H14 0.930 . S
C47 N49 1.325 . S
C47 C50 1.357 . S
C48 H16 0.928 . S
C48 C46 1.406 . S
C48 N49 1.261 . S
N49 Co0 2.214 . S
N49 C47 1.325 . S
N49 C48 1.261 . S
C50 H20 0.931 . S
C50 C47 1.357 . S
C50 C51 1.312 . S
C51 H22 0.930 . S
C51 C46 1.261 . S
C51 C50 1.312 . S
C52 O24 1.214 . S
C52 O32 1.234 . S
C53 H25 0.929 . S
C53 C56 1.391 . S
C53 C58 1.391 . S
C54 H26 0.929 . S
C54 C55 1.390 1_554 S
C54 N57 1.391 . S
C55 H27 0.930 . S
C55 C54 1.390 1_556 S
C55 C56 1.392 . S
C56 H28 0.929 . S
C56 C53 1.391 . S
C56 C55 1.392 . S
N57 Co1 2.257 . S
N57 C54 1.391 . S
N57 C58 1.388 1_554 S
C58 H29 0.930 . S
C58 C53 1.391 . S
C58 N57 1.388 1_556 S
Co59 O61 2.143 . S
Co59 O67 2.074 . S
Co59 O70 2.093 . S
Co59 O83 2.097 . S
Co59 N100 2.151 . S
Co59 N108 2.214 . S
Co60 O61 2.160 . S
Co60 O66 2.058 . S
Co60 O76 2.057 . S
Co60 O91 2.037 . S
Co60 N95 2.145 . S
Co60 N116 2.257 . S
O61 Co59 2.143 . S
O61 Co60 2.160 . S
C62 O63 1.278 . S
C62 O70 1.224 . S
O63 C62 1.278 . S
C64 O65 1.245 . S
C64 O76 1.232 . S
O65 C64 1.245 . S
O66 Co60 2.058 . S
O66 C92 1.269 . S
O67 Co59 2.074 . S
O67 C92 1.257 . S
H68 C93 0.930 . S
H69 C99 0.930 . S
O70 Co59 2.093 . S
O70 C62 1.224 . S
H71 C103 0.929 . S
H72 C105 0.930 . S
H73 C106 0.930 . S
H74 C104 0.929 . S
H75 C107 0.928 . S
O76 Co60 2.057 . S
O76 C64 1.232 . S
H77 C96 0.929 . S
H78 C97 0.929 . S
H79 C109 0.931 . S
H80 C101 0.929 . S
H81 C110 0.930 . S
H82 C102 0.931 . S
O83 Co59 2.097 . S
O83 C111 1.214 . S
H84 C112 0.929 . S
H85 C113 0.929 . S
H86 C114 0.930 . S
H87 C115 0.929 . S
H88 C117 0.930 . S
H89 C94 0.930 . S
H90 C98 0.930 . S
O91 Co60 2.037 . S
O91 C111 1.234 . S
C92 O66 1.269 . S
C92 O67 1.257 . S
C93 H68 0.930 . S
C93 C96 1.388 . S
C93 C98 1.418 . S
C94 H89 0.930 . S
C94 C97 1.404 . S
C94 C98 1.353 . S
N95 Co60 2.145 . S
N95 C96 1.397 . S
N95 C97 1.334 . S
C96 H77 0.929 . S
C96 C93 1.388 . S
C96 N95 1.397 . S
C97 H78 0.929 . S
C97 C94 1.404 . S
C97 N95 1.334 . S
C98 H90 0.930 . S
C98 C93 1.418 . S
C98 C94 1.353 . S
C99 H69 0.930 . S
C99 N100 1.330 . S
C99 C101 1.446 . S
N100 Co59 2.151 . S
N100 C99 1.330 . S
N100 C104 1.418 . S
C101 H80 0.929 . S
C101 C99 1.446 . S
C101 C102 1.332 . S
C102 H82 0.931 . S
C102 C101 1.332 . S
C102 C103 1.267 . S
C103 H71 0.929 . S
C103 C102 1.267 . S
C103 C104 1.251 . S
C104 H74 0.929 . S
C104 N100 1.418 . S
C104 C103 1.251 . S
C105 H72 0.930 . S
C105 C107 1.406 . S
C105 C110 1.261 . S
C106 H73 0.930 . S
C106 N108 1.325 . S
C106 C109 1.357 . S
C107 H75 0.928 . S
C107 C105 1.406 . S
C107 N108 1.261 . S
N108 Co59 2.214 . S
N108 C106 1.325 . S
N108 C107 1.261 . S
C109 H79 0.931 . S
C109 C106 1.357 . S
C109 C110 1.312 . S
C110 H81 0.930 . S
C110 C105 1.261 . S
C110 C109 1.312 . S
C111 O83 1.214 . S
C111 O91 1.234 . S
C112 H84 0.929 . S
C112 C115 1.391 . S
C112 C117 1.391 . S
C113 H85 0.929 . S
C113 C114 1.390 . S
C113 N116 1.391 . S
C114 H86 0.930 . S
C114 C113 1.390 . S
C114 C115 1.392 . S
C115 H87 0.929 . S
C115 C112 1.391 . S
C115 C114 1.392 . S
N116 Co60 2.257 . S
N116 C113 1.391 . S
N116 C117 1.388 . S
C117 H88 0.930 . S
C117 C112 1.391 . S
C117 N116 1.388 . S
Co118 O120 2.143 . S
Co118 O126 2.074 . S
Co118 O129 2.093 . S
Co118 O142 2.097 . S
Co118 N159 2.151 . S
Co118 N167 2.214 . S
Co119 O120 2.160 . S
Co119 O125 2.058 . S
Co119 O135 2.057 . S
Co119 O150 2.037 . S
Co119 N154 2.145 . S
Co119 N175 2.257 . S
O120 Co118 2.143 . S
O120 Co119 2.160 . S
C121 O122 1.278 . S
C121 O129 1.224 . S
O122 C121 1.278 . S
C123 O124 1.245 . S
C123 O135 1.232 . S
O124 C123 1.245 . S
O125 Co119 2.058 . S
O125 C151 1.269 . S
O126 Co118 2.074 . S
O126 C151 1.257 . S
H127 C152 0.930 . S
H128 C158 0.930 . S
O129 Co118 2.093 . S
O129 C121 1.224 . S
H130 C162 0.929 . S
H131 C164 0.930 . S
H132 C165 0.930 . S
H133 C163 0.929 . S
H134 C166 0.928 . S
O135 Co119 2.057 . S
O135 C123 1.232 . S
H136 C155 0.929 . S
H137 C156 0.929 . S
H138 C168 0.931 . S
H139 C160 0.929 . S
H140 C169 0.930 . S
H141 C161 0.931 . S
O142 Co118 2.097 . S
O142 C170 1.214 . S
H143 C171 0.929 . S
H144 C172 0.929 . S
H145 C173 0.930 . S
H146 C174 0.929 . S
H147 C176 0.930 . S
H148 C153 0.930 . S
H149 C157 0.930 . S
O150 Co119 2.037 . S
O150 C170 1.234 . S
C151 O125 1.269 . S
C151 O126 1.257 . S
C152 H127 0.930 . S
C152 C155 1.388 . S
C152 C157 1.418 . S
C153 H148 0.930 . S
C153 C156 1.404 . S
C153 C157 1.353 . S
N154 Co119 2.145 . S
N154 C155 1.397 . S
N154 C156 1.334 . S
C155 H136 0.929 . S
C155 C152 1.388 . S
C155 N154 1.397 . S
C156 H137 0.929 . S
C156 C153 1.404 . S
C156 N154 1.334 . S
C157 H149 0.930 . S
C157 C152 1.418 . S
C157 C153 1.353 . S
C158 H128 0.930 . S
C158 N159 1.330 . S
C158 C160 1.446 . S
N159 Co118 2.151 . S
N159 C158 1.330 . S
N159 C163 1.418 . S
C160 H139 0.929 . S
C160 C158 1.446 . S
C160 C161 1.332 . S
C161 H141 0.931 . S
C161 C160 1.332 . S
C161 C162 1.267 . S
C162 H130 0.929 . S
C162 C161 1.267 . S
C162 C163 1.251 . S
C163 H133 0.929 . S
C163 N159 1.418 . S
C163 C162 1.251 . S
C164 H131 0.930 . S
C164 C166 1.406 . S
C164 C169 1.261 . S
C165 H132 0.930 . S
C165 N167 1.325 . S
C165 C168 1.357 . S
C166 H134 0.928 . S
C166 C164 1.406 . S
C166 N167 1.261 . S
N167 Co118 2.214 . S
N167 C165 1.325 . S
N167 C166 1.261 . S
C168 H138 0.931 . S
C168 C165 1.357 . S
C168 C169 1.312 . S
C169 H140 0.930 . S
C169 C164 1.261 . S
C169 C168 1.312 . S
C170 O142 1.214 . S
C170 O150 1.234 . S
C171 H143 0.929 . S
C171 C174 1.391 . S
C171 C176 1.391 . S
C172 H144 0.929 . S
C172 C173 1.390 1_556 S
C172 N175 1.391 . S
C173 H145 0.930 . S
C173 C172 1.390 1_554 S
C173 C174 1.392 . S
C174 H146 0.929 . S
C174 C171 1.391 . S
C174 C173 1.392 . S
N175 Co119 2.257 . S
N175 C172 1.391 . S
N175 C176 1.388 1_556 S
C176 H147 0.930 . S
C176 C171 1.391 . S
C176 N175 1.388 1_554 S
Co177 O179 2.143 . S
Co177 O185 2.074 . S
Co177 O188 2.093 . S
Co177 O201 2.097 . S
Co177 N218 2.151 . S
Co177 N226 2.214 . S
Co178 O179 2.160 . S
Co178 O184 2.058 . S
Co178 O194 2.057 . S
Co178 O209 2.037 . S
Co178 N213 2.145 . S
Co178 N234 2.257 . S
O179 Co177 2.143 . S
O179 Co178 2.160 . S
C180 O181 1.278 . S
C180 O188 1.224 . S
O181 C180 1.278 . S
C182 O183 1.245 . S
C182 O194 1.232 . S
O183 C182 1.245 . S
O184 Co178 2.058 . S
O184 C210 1.269 . S
O185 Co177 2.074 . S
O185 C210 1.257 . S
H186 C211 0.930 . S
H187 C217 0.930 . S
O188 Co177 2.093 . S
O188 C180 1.224 . S
H189 C221 0.929 . S
H190 C223 0.930 . S
H191 C224 0.930 . S
H192 C222 0.929 . S
H193 C225 0.928 . S
O194 Co178 2.057 . S
O194 C182 1.232 . S
H195 C214 0.929 . S
H196 C215 0.929 . S
H197 C227 0.931 . S
H198 C219 0.929 . S
H199 C228 0.930 . S
H200 C220 0.931 . S
O201 Co177 2.097 . S
O201 C229 1.214 . S
H202 C230 0.929 . S
H203 C231 0.929 . S
H204 C232 0.930 . S
H205 C233 0.929 . S
H206 C235 0.930 . S
H207 C212 0.930 . S
H208 C216 0.930 . S
O209 Co178 2.037 . S
O209 C229 1.234 . S
C210 O184 1.269 . S
C210 O185 1.257 . S
C211 H186 0.930 . S
C211 C214 1.388 . S
C211 C216 1.418 . S
C212 H207 0.930 . S
C212 C215 1.404 . S
C212 C216 1.353 . S
N213 Co178 2.145 . S
N213 C214 1.397 . S
N213 C215 1.334 . S
C214 H195 0.929 . S
C214 C211 1.388 . S
C214 N213 1.397 . S
C215 H196 0.929 . S
C215 C212 1.404 . S
C215 N213 1.334 . S
C216 H208 0.930 . S
C216 C211 1.418 . S
C216 C212 1.353 . S
C217 H187 0.930 . S
C217 N218 1.330 . S
C217 C219 1.446 . S
N218 Co177 2.151 . S
N218 C217 1.330 . S
N218 C222 1.418 . S
C219 H198 0.929 . S
C219 C217 1.446 . S
C219 C220 1.332 . S
C220 H200 0.931 . S
C220 C219 1.332 . S
C220 C221 1.267 . S
C221 H189 0.929 . S
C221 C220 1.267 . S
C221 C222 1.251 . S
C222 H192 0.929 . S
C222 N218 1.418 . S
C222 C221 1.251 . S
C223 H190 0.930 . S
C223 C225 1.406 . S
C223 C228 1.261 . S
C224 H191 0.930 . S
C224 N226 1.325 . S
C224 C227 1.357 . S
C225 H193 0.928 . S
C225 C223 1.406 . S
C225 N226 1.261 . S
N226 Co177 2.214 . S
N226 C224 1.325 . S
N226 C225 1.261 . S
C227 H197 0.931 . S
C227 C224 1.357 . S
C227 C228 1.312 . S
C228 H199 0.930 . S
C228 C223 1.261 . S
C228 C227 1.312 . S
C229 O201 1.214 . S
C229 O209 1.234 . S
C230 H202 0.929 . S
C230 C233 1.391 . S
C230 C235 1.391 . S
C231 H203 0.929 . S
C231 C232 1.390 . S
C231 N234 1.391 . S
C232 H204 0.930 . S
C232 C231 1.390 . S
C232 C233 1.392 . S
C233 H205 0.929 . S
C233 C230 1.391 . S
C233 C232 1.392 . S
N234 Co178 2.257 . S
N234 C231 1.391 . S
N234 C235 1.388 . S
C235 H206 0.930 . S
C235 C230 1.391 . S
C235 N234 1.388 . S
Co236 O238 2.143 . S
Co236 O244 2.074 . S
Co236 O247 2.093 . S
Co236 O260 2.097 . S
Co236 N277 2.151 . S
Co236 N285 2.214 . S
Co237 O238 2.160 . S
Co237 O243 2.058 . S
Co237 O253 2.057 . S
Co237 O268 2.037 . S
Co237 N272 2.145 1_556 S
Co237 N293 2.257 . S
O238 Co236 2.143 . S
O238 Co237 2.160 . S
C239 O240 1.278 . S
C239 O247 1.224 . S
O240 C239 1.278 . S
C241 O242 1.245 . S
C241 O253 1.232 . S
O242 C241 1.245 . S
O243 Co237 2.058 . S
O243 C269 1.269 . S
O244 Co236 2.074 . S
O244 C269 1.257 . S
H245 C270 0.930 . S
H246 C276 0.930 . S
O247 Co236 2.093 . S
O247 C239 1.224 . S
H248 C280 0.929 . S
H249 C282 0.930 . S
H250 C283 0.930 . S
H251 C281 0.929 . S
H252 C284 0.928 . S
O253 Co237 2.057 . S
O253 C241 1.232 . S
H254 C273 0.929 . S
H255 C274 0.929 . S
H256 C286 0.931 . S
H257 C278 0.929 . S
H258 C287 0.930 . S
H259 C279 0.931 . S
O260 Co236 2.097 . S
O260 C288 1.214 . S
H261 C289 0.929 . S
H262 C290 0.929 . S
H263 C291 0.930 . S
H264 C292 0.929 . S
H265 C294 0.930 . S
H266 C271 0.930 . S
H267 C275 0.930 . S
O268 Co237 2.037 . S
O268 C288 1.234 . S
C269 O243 1.269 . S
C269 O244 1.257 . S
C270 H245 0.930 . S
C270 C273 1.388 . S
C270 C275 1.418 . S
C271 H266 0.930 . S
C271 C274 1.404 . S
C271 C275 1.353 . S
N272 Co237 2.145 1_554 S
N272 C273 1.397 . S
N272 C274 1.334 . S
C273 H254 0.929 . S
C273 C270 1.388 . S
C273 N272 1.397 . S
C274 H255 0.929 . S
C274 C271 1.404 . S
C274 N272 1.334 . S
C275 H267 0.930 . S
C275 C270 1.418 . S
C275 C271 1.353 . S
C276 H246 0.930 . S
C276 N277 1.330 . S
C276 C278 1.446 . S
N277 Co236 2.151 . S
N277 C276 1.330 . S
N277 C281 1.418 . S
C278 H257 0.929 . S
C278 C276 1.446 . S
C278 C279 1.332 . S
C279 H259 0.931 . S
C279 C278 1.332 . S
C279 C280 1.267 . S
C280 H248 0.929 . S
C280 C279 1.267 . S
C280 C281 1.251 . S
C281 H251 0.929 . S
C281 N277 1.418 . S
C281 C280 1.251 . S
C282 H249 0.930 . S
C282 C284 1.406 . S
C282 C287 1.261 . S
C283 H250 0.930 . S
C283 N285 1.325 . S
C283 C286 1.357 . S
C284 H252 0.928 . S
C284 C282 1.406 . S
C284 N285 1.261 . S
N285 Co236 2.214 . S
N285 C283 1.325 . S
N285 C284 1.261 . S
C286 H256 0.931 . S
C286 C283 1.357 . S
C286 C287 1.312 . S
C287 H258 0.930 . S
C287 C282 1.261 . S
C287 C286 1.312 . S
C288 O260 1.214 . S
C288 O268 1.234 . S
C289 H261 0.929 . S
C289 C292 1.391 . S
C289 C294 1.391 . S
C290 H262 0.929 . S
C290 C291 1.390 . S
C290 N293 1.391 . S
C291 H263 0.930 . S
C291 C290 1.390 . S
C291 C292 1.392 . S
C292 H264 0.929 . S
C292 C289 1.391 . S
C292 C291 1.392 . S
N293 Co237 2.257 . S
N293 C290 1.391 . S
N293 C294 1.388 . S
C294 H265 0.930 . S
C294 C289 1.391 . S
C294 N293 1.388 . S
Co295 O297 2.143 . S
Co295 O303 2.074 . S
Co295 O306 2.093 . S
Co295 O319 2.097 . S
Co295 N336 2.151 . S
Co295 N344 2.214 . S
Co296 O297 2.160 . S
Co296 O302 2.058 . S
Co296 O312 2.057 . S
Co296 O327 2.037 . S
Co296 N331 2.145 . S
Co296 N352 2.257 . S
O297 Co295 2.143 . S
O297 Co296 2.160 . S
C298 O299 1.278 . S
C298 O306 1.224 . S
O299 C298 1.278 . S
C300 O301 1.245 . S
C300 O312 1.232 . S
O301 C300 1.245 . S
O302 Co296 2.058 . S
O302 C328 1.269 . S
O303 Co295 2.074 . S
O303 C328 1.257 . S
H304 C329 0.930 . S
H305 C335 0.930 . S
O306 Co295 2.093 . S
O306 C298 1.224 . S
H307 C339 0.929 . S
H308 C341 0.930 . S
H309 C342 0.930 . S
H310 C340 0.929 . S
H311 C343 0.928 . S
O312 Co296 2.057 . S
O312 C300 1.232 . S
H313 C332 0.929 . S
H314 C333 0.929 . S
H315 C345 0.931 . S
H316 C337 0.929 . S
H317 C346 0.930 . S
H318 C338 0.931 . S
O319 Co295 2.097 . S
O319 C347 1.214 . S
H320 C348 0.929 . S
H321 C349 0.929 . S
H322 C350 0.930 . S
H323 C351 0.929 . S
H324 C353 0.930 . S
H325 C330 0.930 . S
H326 C334 0.930 . S
O327 Co296 2.037 . S
O327 C347 1.234 . S
C328 O302 1.269 . S
C328 O303 1.257 . S
C329 H304 0.930 . S
C329 C332 1.388 . S
C329 C334 1.418 . S
C330 H325 0.930 . S
C330 C333 1.404 . S
C330 C334 1.353 . S
N331 Co296 2.145 . S
N331 C332 1.397 . S
N331 C333 1.334 . S
C332 H313 0.929 . S
C332 C329 1.388 . S
C332 N331 1.397 . S
C333 H314 0.929 . S
C333 C330 1.404 . S
C333 N331 1.334 . S
C334 H326 0.930 . S
C334 C329 1.418 . S
C334 C330 1.353 . S
C335 H305 0.930 . S
C335 N336 1.330 . S
C335 C337 1.446 . S
N336 Co295 2.151 . S
N336 C335 1.330 . S
N336 C340 1.418 . S
C337 H316 0.929 . S
C337 C335 1.446 . S
C337 C338 1.332 . S
C338 H318 0.931 . S
C338 C337 1.332 . S
C338 C339 1.267 . S
C339 H307 0.929 . S
C339 C338 1.267 . S
C339 C340 1.251 . S
C340 H310 0.929 . S
C340 N336 1.418 . S
C340 C339 1.251 . S
C341 H308 0.930 . S
C341 C343 1.406 . S
C341 C346 1.261 . S
C342 H309 0.930 . S
C342 N344 1.325 . S
C342 C345 1.357 . S
C343 H311 0.928 . S
C343 C341 1.406 . S
C343 N344 1.261 . S
N344 Co295 2.214 . S
N344 C342 1.325 . S
N344 C343 1.261 . S
C345 H315 0.931 . S
C345 C342 1.357 . S
C345 C346 1.312 . S
C346 H317 0.930 . S
C346 C341 1.261 . S
C346 C345 1.312 . S
C347 O319 1.214 . S
C347 O327 1.234 . S
C348 H320 0.929 . S
C348 C351 1.391 . S
C348 C353 1.391 . S
C349 H321 0.929 . S
C349 C350 1.390 . S
C349 N352 1.391 . S
C350 H322 0.930 . S
C350 C349 1.390 . S
C350 C351 1.392 . S
C351 H323 0.929 . S
C351 C348 1.391 . S
C351 C350 1.392 . S
N352 Co296 2.257 . S
N352 C349 1.391 . S
N352 C353 1.388 . S
C353 H324 0.930 . S
C353 C348 1.391 . S
C353 N352 1.388 . S
Co354 O356 2.143 . S
Co354 O362 2.074 . S
Co354 O365 2.093 . S
Co354 O378 2.097 . S
Co354 N395 2.151 . S
Co354 N403 2.214 . S
Co355 O356 2.160 . S
Co355 O361 2.058 . S
Co355 O371 2.057 . S
Co355 O386 2.037 . S
Co355 N390 2.145 1_554 S
Co355 N411 2.257 . S
O356 Co354 2.143 . S
O356 Co355 2.160 . S
C357 O358 1.278 . S
C357 O365 1.224 . S
O358 C357 1.278 . S
C359 O360 1.245 . S
C359 O371 1.232 . S
O360 C359 1.245 . S
O361 Co355 2.058 . S
O361 C387 1.269 . S
O362 Co354 2.074 . S
O362 C387 1.257 . S
H363 C388 0.930 . S
H364 C394 0.930 . S
O365 Co354 2.093 . S
O365 C357 1.224 . S
H366 C398 0.929 . S
H367 C400 0.930 . S
H368 C401 0.930 . S
H369 C399 0.929 . S
H370 C402 0.928 . S
O371 Co355 2.057 . S
O371 C359 1.232 . S
H372 C391 0.929 . S
H373 C392 0.929 . S
H374 C404 0.931 . S
H375 C396 0.929 . S
H376 C405 0.930 . S
H377 C397 0.931 . S
O378 Co354 2.097 . S
O378 C406 1.214 . S
H379 C407 0.929 . S
H380 C408 0.929 . S
H381 C409 0.930 . S
H382 C410 0.929 . S
H383 C412 0.930 . S
H384 C389 0.930 . S
H385 C393 0.930 . S
O386 Co355 2.037 . S
O386 C406 1.234 . S
C387 O361 1.269 . S
C387 O362 1.257 . S
C388 H363 0.930 . S
C388 C391 1.388 . S
C388 C393 1.418 . S
C389 H384 0.930 . S
C389 C392 1.404 . S
C389 C393 1.353 . S
N390 Co355 2.145 1_556 S
N390 C391 1.397 . S
N390 C392 1.334 . S
C391 H372 0.929 . S
C391 C388 1.388 . S
C391 N390 1.397 . S
C392 H373 0.929 . S
C392 C389 1.404 . S
C392 N390 1.334 . S
C393 H385 0.930 . S
C393 C388 1.418 . S
C393 C389 1.353 . S
C394 H364 0.930 . S
C394 N395 1.330 . S
C394 C396 1.446 . S
N395 Co354 2.151 . S
N395 C394 1.330 . S
N395 C399 1.418 . S
C396 H375 0.929 . S
C396 C394 1.446 . S
C396 C397 1.332 . S
C397 H377 0.931 . S
C397 C396 1.332 . S
C397 C398 1.267 . S
C398 H366 0.929 . S
C398 C397 1.267 . S
C398 C399 1.251 . S
C399 H369 0.929 . S
C399 N395 1.418 . S
C399 C398 1.251 . S
C400 H367 0.930 . S
C400 C402 1.406 . S
C400 C405 1.261 . S
C401 H368 0.930 . S
C401 N403 1.325 . S
C401 C404 1.357 . S
C402 H370 0.928 . S
C402 C400 1.406 . S
C402 N403 1.261 . S
N403 Co354 2.214 . S
N403 C401 1.325 . S
N403 C402 1.261 . S
C404 H374 0.931 . S
C404 C401 1.357 . S
C404 C405 1.312 . S
C405 H376 0.930 . S
C405 C400 1.261 . S
C405 C404 1.312 . S
C406 O378 1.214 . S
C406 O386 1.234 . S
C407 H379 0.929 . S
C407 C410 1.391 . S
C407 C412 1.391 . S
C408 H380 0.929 . S
C408 C409 1.390 . S
C408 N411 1.391 . S
C409 H381 0.930 . S
C409 C408 1.390 . S
C409 C410 1.392 . S
C410 H382 0.929 . S
C410 C407 1.391 . S
C410 C409 1.392 . S
N411 Co355 2.257 . S
N411 C408 1.391 . S
N411 C412 1.388 . S
C412 H383 0.930 . S
C412 C407 1.391 . S
C412 N411 1.388 . S
Co413 O415 2.143 . S
Co413 O421 2.074 . S
Co413 O424 2.093 . S
Co413 O437 2.097 . S
Co413 N454 2.151 . S
Co413 N462 2.214 . S
Co414 O415 2.160 . S
Co414 O420 2.058 . S
Co414 O430 2.057 . S
Co414 O445 2.037 . S
Co414 N449 2.145 . S
Co414 N470 2.257 . S
O415 Co413 2.143 . S
O415 Co414 2.160 . S
C416 O417 1.278 . S
C416 O424 1.224 . S
O417 C416 1.278 . S
C418 O419 1.245 . S
C418 O430 1.232 . S
O419 C418 1.245 . S
O420 Co414 2.058 . S
O420 C446 1.269 . S
O421 Co413 2.074 . S
O421 C446 1.257 . S
H422 C447 0.930 . S
H423 C453 0.930 . S
O424 Co413 2.093 . S
O424 C416 1.224 . S
H425 C457 0.929 . S
H426 C459 0.930 . S
H427 C460 0.930 . S
H428 C458 0.929 . S
H429 C461 0.928 . S
O430 Co414 2.057 . S
O430 C418 1.232 . S
H431 C450 0.929 . S
H432 C451 0.929 . S
H433 C463 0.931 . S
H434 C455 0.929 . S
H435 C464 0.930 . S
H436 C456 0.931 . S
O437 Co413 2.097 . S
O437 C465 1.214 . S
H438 C466 0.929 . S
H439 C467 0.929 . S
H440 C468 0.930 . S
H441 C469 0.929 . S
H442 C471 0.930 . S
H443 C448 0.930 . S
H444 C452 0.930 . S
O445 Co414 2.037 . S
O445 C465 1.234 . S
C446 O420 1.269 . S
C446 O421 1.257 . S
C447 H422 0.930 . S
C447 C450 1.388 . S
C447 C452 1.418 . S
C448 H443 0.930 . S
C448 C451 1.404 . S
C448 C452 1.353 . S
N449 Co414 2.145 . S
N449 C450 1.397 . S
N449 C451 1.334 . S
C450 H431 0.929 . S
C450 C447 1.388 . S
C450 N449 1.397 . S
C451 H432 0.929 . S
C451 C448 1.404 . S
C451 N449 1.334 . S
C452 H444 0.930 . S
C452 C447 1.418 . S
C452 C448 1.353 . S
C453 H423 0.930 . S
C453 N454 1.330 . S
C453 C455 1.446 . S
N454 Co413 2.151 . S
N454 C453 1.330 . S
N454 C458 1.418 . S
C455 H434 0.929 . S
C455 C453 1.446 . S
C455 C456 1.332 . S
C456 H436 0.931 . S
C456 C455 1.332 . S
C456 C457 1.267 . S
C457 H425 0.929 . S
C457 C456 1.267 . S
C457 C458 1.251 . S
C458 H428 0.929 . S
C458 N454 1.418 . S
C458 C457 1.251 . S
C459 H426 0.930 . S
C459 C461 1.406 . S
C459 C464 1.261 . S
C460 H427 0.930 . S
C460 N462 1.325 . S
C460 C463 1.357 . S
C461 H429 0.928 . S
C461 C459 1.406 . S
C461 N462 1.261 . S
N462 Co413 2.214 . S
N462 C460 1.325 . S
N462 C461 1.261 . S
C463 H433 0.931 . S
C463 C460 1.357 . S
C463 C464 1.312 . S
C464 H435 0.930 . S
C464 C459 1.261 . S
C464 C463 1.312 . S
C465 O437 1.214 . S
C465 O445 1.234 . S
C466 H438 0.929 . S
C466 C469 1.391 . S
C466 C471 1.391 . S
C467 H439 0.929 . S
C467 C468 1.390 . S
C467 N470 1.391 . S
C468 H440 0.930 . S
C468 C467 1.390 . S
C468 C469 1.392 . S
C469 H441 0.929 . S
C469 C466 1.391 . S
C469 C468 1.392 . S
N470 Co414 2.257 . S
N470 C467 1.391 . S
N470 C471 1.388 . S
C471 H442 0.930 . S
C471 C466 1.391 . S
C471 N470 1.388 . S
Co472 O474 2.143 . S
Co472 O480 2.074 . S
Co472 O483 2.093 . S
Co472 O496 2.097 . S
Co472 N513 2.151 . S
Co472 N521 2.214 . S
Co473 O474 2.160 . S
Co473 O479 2.058 . S
Co473 O489 2.057 . S
Co473 O504 2.037 . S
Co473 N508 2.145 . S
Co473 N529 2.257 . S
O474 Co472 2.143 . S
O474 Co473 2.160 . S
C475 O476 1.278 . S
C475 O483 1.224 . S
O476 C475 1.278 . S
C477 O478 1.245 . S
C477 O489 1.232 . S
O478 C477 1.245 . S
O479 Co473 2.058 . S
O479 C505 1.269 . S
O480 Co472 2.074 . S
O480 C505 1.257 . S
H481 C506 0.930 . S
H482 C512 0.930 . S
O483 Co472 2.093 . S
O483 C475 1.224 . S
H484 C516 0.929 . S
H485 C518 0.930 1_545 S
H486 C519 0.930 . S
H487 C517 0.929 . S
H488 C520 0.928 . S
O489 Co473 2.057 . S
O489 C477 1.232 . S
H490 C509 0.929 . S
H491 C510 0.929 . S
H492 C522 0.931 . S
H493 C514 0.929 . S
H494 C523 0.930 . S
H495 C515 0.931 . S
O496 Co472 2.097 . S
O496 C524 1.214 . S
H497 C525 0.929 . S
H498 C526 0.929 . S
H499 C527 0.930 . S
H500 C528 0.929 . S
H501 C530 0.930 . S
H502 C507 0.930 . S
H503 C511 0.930 . S
O504 Co473 2.037 . S
O504 C524 1.234 . S
C505 O479 1.269 . S
C505 O480 1.257 . S
C506 H481 0.930 . S
C506 C509 1.388 . S
C506 C511 1.418 . S
C507 H502 0.930 . S
C507 C510 1.404 . S
C507 C511 1.353 . S
N508 Co473 2.145 . S
N508 C509 1.397 . S
N508 C510 1.334 . S
C509 H490 0.929 . S
C509 C506 1.388 . S
C509 N508 1.397 . S
C510 H491 0.929 . S
C510 C507 1.404 . S
C510 N508 1.334 . S
C511 H503 0.930 . S
C511 C506 1.418 . S
C511 C507 1.353 . S
C512 H482 0.930 . S
C512 N513 1.330 . S
C512 C514 1.446 . S
N513 Co472 2.151 . S
N513 C512 1.330 . S
N513 C517 1.418 . S
C514 H493 0.929 . S
C514 C512 1.446 . S
C514 C515 1.332 . S
C515 H495 0.931 . S
C515 C514 1.332 . S
C515 C516 1.267 . S
C516 H484 0.929 . S
C516 C515 1.267 . S
C516 C517 1.251 . S
C517 H487 0.929 . S
C517 N513 1.418 . S
C517 C516 1.251 . S
C518 H485 0.930 1_565 S
C518 C520 1.406 . S
C518 C523 1.261 . S
C519 H486 0.930 . S
C519 N521 1.325 . S
C519 C522 1.357 . S
C520 H488 0.928 . S
C520 C518 1.406 . S
C520 N521 1.261 . S
N521 Co472 2.214 . S
N521 C519 1.325 . S
N521 C520 1.261 . S
C522 H492 0.931 . S
C522 C519 1.357 . S
C522 C523 1.312 . S
C523 H494 0.930 . S
C523 C518 1.261 . S
C523 C522 1.312 . S
C524 O496 1.214 . S
C524 O504 1.234 . S
C525 H497 0.929 . S
C525 C528 1.391 . S
C525 C530 1.391 . S
C526 H498 0.929 . S
C526 C527 1.390 1_554 S
C526 N529 1.391 . S
C527 H499 0.930 . S
C527 C526 1.390 1_556 S
C527 C528 1.392 . S
C528 H500 0.929 . S
C528 C525 1.391 . S
C528 C527 1.392 . S
N529 Co473 2.257 . S
N529 C526 1.391 . S
N529 C530 1.388 1_554 S
C530 H501 0.930 . S
C530 C525 1.391 . S
C530 N529 1.388 1_556 S
Co531 O533 2.143 . S
Co531 O539 2.074 . S
Co531 O542 2.093 . S
Co531 O555 2.097 . S
Co531 N572 2.151 . S
Co531 N580 2.214 . S
Co532 O533 2.160 . S
Co532 O538 2.058 . S
Co532 O548 2.057 . S
Co532 O563 2.037 . S
Co532 N567 2.145 . S
Co532 N588 2.257 . S
O533 Co531 2.143 . S
O533 Co532 2.160 . S
C534 O535 1.278 . S
C534 O542 1.224 . S
O535 C534 1.278 . S
C536 O537 1.245 . S
C536 O548 1.232 . S
O537 C536 1.245 . S
O538 Co532 2.058 . S
O538 C564 1.269 . S
O539 Co531 2.074 . S
O539 C564 1.257 . S
H540 C565 0.930 . S
H541 C571 0.930 . S
O542 Co531 2.093 . S
O542 C534 1.224 . S
H543 C575 0.929 . S
H544 C577 0.930 1_565 S
H545 C578 0.930 . S
H546 C576 0.929 . S
H547 C579 0.928 . S
O548 Co532 2.057 . S
O548 C536 1.232 . S
H549 C568 0.929 . S
H550 C569 0.929 . S
H551 C581 0.931 . S
H552 C573 0.929 . S
H553 C582 0.930 . S
H554 C574 0.931 . S
O555 Co531 2.097 . S
O555 C583 1.214 . S
H556 C584 0.929 . S
H557 C585 0.929 . S
H558 C586 0.930 . S
H559 C587 0.929 . S
H560 C589 0.930 . S
H561 C566 0.930 . S
H562 C570 0.930 . S
O563 Co532 2.037 . S
O563 C583 1.234 . S
C564 O538 1.269 . S
C564 O539 1.257 . S
C565 H540 0.930 . S
C565 C568 1.388 . S
C565 C570 1.418 . S
C566 H561 0.930 . S
C566 C569 1.404 . S
C566 C570 1.353 . S
N567 Co532 2.145 . S
N567 C568 1.397 . S
N567 C569 1.334 . S
C568 H549 0.929 . S
C568 C565 1.388 . S
C568 N567 1.397 . S
C569 H550 0.929 . S
C569 C566 1.404 . S
C569 N567 1.334 . S
C570 H562 0.930 . S
C570 C565 1.418 . S
C570 C566 1.353 . S
C571 H541 0.930 . S
C571 N572 1.330 . S
C571 C573 1.446 . S
N572 Co531 2.151 . S
N572 C571 1.330 . S
N572 C576 1.418 . S
C573 H552 0.929 . S
C573 C571 1.446 . S
C573 C574 1.332 . S
C574 H554 0.931 . S
C574 C573 1.332 . S
C574 C575 1.267 . S
C575 H543 0.929 . S
C575 C574 1.267 . S
C575 C576 1.251 . S
C576 H546 0.929 . S
C576 N572 1.418 . S
C576 C575 1.251 . S
C577 H544 0.930 1_545 S
C577 C579 1.406 . S
C577 C582 1.261 . S
C578 H545 0.930 . S
C578 N580 1.325 . S
C578 C581 1.357 . S
C579 H547 0.928 . S
C579 C577 1.406 . S
C579 N580 1.261 . S
N580 Co531 2.214 . S
N580 C578 1.325 . S
N580 C579 1.261 . S
C581 H551 0.931 . S
C581 C578 1.357 . S
C581 C582 1.312 . S
C582 H553 0.930 . S
C582 C577 1.261 . S
C582 C581 1.312 . S
C583 O555 1.214 . S
C583 O563 1.234 . S
C584 H556 0.929 . S
C584 C587 1.391 . S
C584 C589 1.391 . S
C585 H557 0.929 . S
C585 C586 1.390 . S
C585 N588 1.391 . S
C586 H558 0.930 . S
C586 C585 1.390 . S
C586 C587 1.392 . S
C587 H559 0.929 . S
C587 C584 1.391 . S
C587 C586 1.392 . S
N588 Co532 2.257 . S
N588 C585 1.391 . S
N588 C589 1.388 . S
C589 H560 0.930 . S
C589 C584 1.391 . S
C589 N588 1.388 . S
Co590 O592 2.143 . S
Co590 O598 2.074 . S
Co590 O601 2.093 . S
Co590 O614 2.097 . S
Co590 N631 2.151 . S
Co590 N639 2.214 . S
Co591 O592 2.160 . S
Co591 O597 2.058 . S
Co591 O607 2.057 . S
Co591 O622 2.037 . S
Co591 N626 2.145 . S
Co591 N647 2.257 . S
O592 Co590 2.143 . S
O592 Co591 2.160 . S
C593 O594 1.278 . S
C593 O601 1.224 . S
O594 C593 1.278 . S
C595 O596 1.245 . S
C595 O607 1.232 . S
O596 C595 1.245 . S
O597 Co591 2.058 . S
O597 C623 1.269 . S
O598 Co590 2.074 . S
O598 C623 1.257 . S
H599 C624 0.930 . S
H600 C630 0.930 . S
O601 Co590 2.093 . S
O601 C593 1.224 . S
H602 C634 0.929 . S
H603 C636 0.930 1_565 S
H604 C637 0.930 . S
H605 C635 0.929 . S
H606 C638 0.928 . S
O607 Co591 2.057 . S
O607 C595 1.232 . S
H608 C627 0.929 . S
H609 C628 0.929 . S
H610 C640 0.931 . S
H611 C632 0.929 . S
H612 C641 0.930 . S
H613 C633 0.931 . S
O614 Co590 2.097 . S
O614 C642 1.214 . S
H615 C643 0.929 . S
H616 C644 0.929 . S
H617 C645 0.930 . S
H618 C646 0.929 . S
H619 C648 0.930 . S
H620 C625 0.930 . S
H621 C629 0.930 . S
O622 Co591 2.037 . S
O622 C642 1.234 . S
C623 O597 1.269 . S
C623 O598 1.257 . S
C624 H599 0.930 . S
C624 C627 1.388 . S
C624 C629 1.418 . S
C625 H620 0.930 . S
C625 C628 1.404 . S
C625 C629 1.353 . S
N626 Co591 2.145 . S
N626 C627 1.397 . S
N626 C628 1.334 . S
C627 H608 0.929 . S
C627 C624 1.388 . S
C627 N626 1.397 . S
C628 H609 0.929 . S
C628 C625 1.404 . S
C628 N626 1.334 . S
C629 H621 0.930 . S
C629 C624 1.418 . S
C629 C625 1.353 . S
C630 H600 0.930 . S
C630 N631 1.330 . S
C630 C632 1.446 . S
N631 Co590 2.151 . S
N631 C630 1.330 . S
N631 C635 1.418 . S
C632 H611 0.929 . S
C632 C630 1.446 . S
C632 C633 1.332 . S
C633 H613 0.931 . S
C633 C632 1.332 . S
C633 C634 1.267 . S
C634 H602 0.929 . S
C634 C633 1.267 . S
C634 C635 1.251 . S
C635 H605 0.929 . S
C635 N631 1.418 . S
C635 C634 1.251 . S
C636 H603 0.930 1_545 S
C636 C638 1.406 . S
C636 C641 1.261 . S
C637 H604 0.930 . S
C637 N639 1.325 . S
C637 C640 1.357 . S
C638 H606 0.928 . S
C638 C636 1.406 . S
C638 N639 1.261 . S
N639 Co590 2.214 . S
N639 C637 1.325 . S
N639 C638 1.261 . S
C640 H610 0.931 . S
C640 C637 1.357 . S
C640 C641 1.312 . S
C641 H612 0.930 . S
C641 C636 1.261 . S
C641 C640 1.312 . S
C642 O614 1.214 . S
C642 O622 1.234 . S
C643 H615 0.929 . S
C643 C646 1.391 . S
C643 C648 1.391 . S
C644 H616 0.929 . S
C644 C645 1.390 1_556 S
C644 N647 1.391 . S
C645 H617 0.930 . S
C645 C644 1.390 1_554 S
C645 C646 1.392 . S
C646 H618 0.929 . S
C646 C643 1.391 . S
C646 C645 1.392 . S
N647 Co591 2.257 . S
N647 C644 1.391 . S
N647 C648 1.388 1_556 S
C648 H619 0.930 . S
C648 C643 1.391 . S
C648 N647 1.388 1_554 S
Co649 O651 2.143 . S
Co649 O657 2.074 . S
Co649 O660 2.093 . S
Co649 O673 2.097 . S
Co649 N690 2.151 . S
Co649 N698 2.214 . S
Co650 O651 2.160 . S
Co650 O656 2.058 . S
Co650 O666 2.057 . S
Co650 O681 2.037 . S
Co650 N685 2.145 . S
Co650 N706 2.257 . S
O651 Co649 2.143 . S
O651 Co650 2.160 . S
C652 O653 1.278 . S
C652 O660 1.224 . S
O653 C652 1.278 . S
C654 O655 1.245 . S
C654 O666 1.232 . S
O655 C654 1.245 . S
O656 Co650 2.058 . S
O656 C682 1.269 . S
O657 Co649 2.074 . S
O657 C682 1.257 . S
H658 C683 0.930 . S
H659 C689 0.930 . S
O660 Co649 2.093 . S
O660 C652 1.224 . S
H661 C693 0.929 . S
H662 C695 0.930 1_545 S
H663 C696 0.930 . S
H664 C694 0.929 . S
H665 C697 0.928 . S
O666 Co650 2.057 . S
O666 C654 1.232 . S
H667 C686 0.929 . S
H668 C687 0.929 . S
H669 C699 0.931 . S
H670 C691 0.929 . S
H671 C700 0.930 . S
H672 C692 0.931 . S
O673 Co649 2.097 . S
O673 C701 1.214 . S
H674 C702 0.929 . S
H675 C703 0.929 . S
H676 C704 0.930 . S
H677 C705 0.929 . S
H678 C707 0.930 . S
H679 C684 0.930 . S
H680 C688 0.930 . S
O681 Co650 2.037 . S
O681 C701 1.234 . S
C682 O656 1.269 . S
C682 O657 1.257 . S
C683 H658 0.930 . S
C683 C686 1.388 . S
C683 C688 1.418 . S
C684 H679 0.930 . S
C684 C687 1.404 . S
C684 C688 1.353 . S
N685 Co650 2.145 . S
N685 C686 1.397 . S
N685 C687 1.334 . S
C686 H667 0.929 . S
C686 C683 1.388 . S
C686 N685 1.397 . S
C687 H668 0.929 . S
C687 C684 1.404 . S
C687 N685 1.334 . S
C688 H680 0.930 . S
C688 C683 1.418 . S
C688 C684 1.353 . S
C689 H659 0.930 . S
C689 N690 1.330 . S
C689 C691 1.446 . S
N690 Co649 2.151 . S
N690 C689 1.330 . S
N690 C694 1.418 . S
C691 H670 0.929 . S
C691 C689 1.446 . S
C691 C692 1.332 . S
C692 H672 0.931 . S
C692 C691 1.332 . S
C692 C693 1.267 . S
C693 H661 0.929 . S
C693 C692 1.267 . S
C693 C694 1.251 . S
C694 H664 0.929 . S
C694 N690 1.418 . S
C694 C693 1.251 . S
C695 H662 0.930 1_565 S
C695 C697 1.406 . S
C695 C700 1.261 . S
C696 H663 0.930 . S
C696 N698 1.325 . S
C696 C699 1.357 . S
C697 H665 0.928 . S
C697 C695 1.406 . S
C697 N698 1.261 . S
N698 Co649 2.214 . S
N698 C696 1.325 . S
N698 C697 1.261 . S
C699 H669 0.931 . S
C699 C696 1.357 . S
C699 C700 1.312 . S
C700 H671 0.930 . S
C700 C695 1.261 . S
C700 C699 1.312 . S
C701 O673 1.214 . S
C701 O681 1.234 . S
C702 H674 0.929 . S
C702 C705 1.391 . S
C702 C707 1.391 . S
C703 H675 0.929 . S
C703 C704 1.390 . S
C703 N706 1.391 . S
C704 H676 0.930 . S
C704 C703 1.390 . S
C704 C705 1.392 . S
C705 H677 0.929 . S
C705 C702 1.391 . S
C705 C704 1.392 . S
N706 Co650 2.257 . S
N706 C703 1.391 . S
N706 C707 1.388 . S
C707 H678 0.930 . S
C707 C702 1.391 . S
C707 N706 1.388 . S
Co708 O710 2.143 . S
Co708 O716 2.074 . S
Co708 O719 2.093 . S
Co708 O732 2.097 . S
Co708 N749 2.151 . S
Co708 N757 2.214 . S
Co709 O710 2.160 . S
Co709 O715 2.058 . S
Co709 O725 2.057 . S
Co709 O740 2.037 . S
Co709 N744 2.145 1_556 S
Co709 N765 2.257 . S
O710 Co708 2.143 . S
O710 Co709 2.160 . S
C711 O712 1.278 . S
C711 O719 1.224 . S
O712 C711 1.278 . S
C713 O714 1.245 . S
C713 O725 1.232 . S
O714 C713 1.245 . S
O715 Co709 2.058 . S
O715 C741 1.269 . S
O716 Co708 2.074 . S
O716 C741 1.257 . S
H717 C742 0.930 . S
H718 C748 0.930 . S
O719 Co708 2.093 . S
O719 C711 1.224 . S
H720 C752 0.929 1_565 S
H721 C754 0.930 1_565 S
H722 C755 0.930 . S
H723 C753 0.929 . S
H724 C756 0.928 . S
O725 Co709 2.057 . S
O725 C713 1.232 . S
H726 C745 0.929 . S
H727 C746 0.929 . S
H728 C758 0.931 . S
H729 C750 0.929 . S
H730 C759 0.945 . S
H731 C751 0.931 . S
O732 Co708 2.097 . S
O732 C760 1.214 . S
H733 C761 0.929 . S
H734 C762 0.929 . S
H735 C763 0.930 . S
H736 C764 0.929 . S
H737 C766 0.930 . S
H738 C743 0.930 . S
H739 C747 0.930 . S
O740 Co709 2.037 . S
O740 C760 1.234 . S
C741 O715 1.269 . S
C741 O716 1.257 . S
C742 H717 0.930 . S
C742 C745 1.388 . S
C742 C747 1.418 . S
C743 H738 0.930 . S
C743 C746 1.404 . S
C743 C747 1.353 . S
N744 Co709 2.145 1_554 S
N744 C745 1.397 . S
N744 C746 1.334 . S
C745 H726 0.929 . S
C745 C742 1.388 . S
C745 N744 1.397 . S
C746 H727 0.929 . S
C746 C743 1.404 . S
C746 N744 1.334 . S
C747 H739 0.930 . S
C747 C742 1.418 . S
C747 C743 1.353 . S
C748 H718 0.930 . S
C748 N749 1.330 . S
C748 C750 1.446 . S
N749 Co708 2.151 . S
N749 C748 1.330 . S
N749 C753 1.418 . S
C750 H729 0.929 . S
C750 C748 1.446 . S
C750 C751 1.332 . S
C751 H731 0.931 . S
C751 C750 1.332 . S
C751 C752 1.267 . S
C752 H720 0.929 1_545 S
C752 C751 1.267 . S
C752 C753 1.251 . S
C753 H723 0.929 . S
C753 N749 1.418 . S
C753 C752 1.251 . S
C754 H721 0.930 1_545 S
C754 C756 1.406 . S
C754 C759 1.254 1_545 S
C755 H722 0.930 . S
C755 N757 1.325 . S
C755 C758 1.357 . S
C756 H724 0.928 . S
C756 C754 1.406 . S
C756 N757 1.261 . S
N757 Co708 2.214 . S
N757 C755 1.325 . S
N757 C756 1.261 . S
C758 H728 0.931 . S
C758 C755 1.357 . S
C758 C759 1.304 1_545 S
C759 H730 0.945 . S
C759 C754 1.254 1_565 S
C759 C758 1.304 1_565 S
C760 O732 1.214 . S
C760 O740 1.234 . S
C761 H733 0.929 . S
C761 C764 1.391 . S
C761 C766 1.391 . S
C762 H734 0.929 . S
C762 C763 1.390 . S
C762 N765 1.391 . S
C763 H735 0.930 . S
C763 C762 1.390 . S
C763 C764 1.392 . S
C764 H736 0.929 . S
C764 C761 1.391 . S
C764 C763 1.392 . S
N765 Co709 2.257 . S
N765 C762 1.391 . S
N765 C766 1.388 . S
C766 H737 0.930 . S
C766 C761 1.391 . S
C766 N765 1.388 . S
Co767 O769 2.143 . S
Co767 O775 2.074 . S
Co767 O778 2.093 . S
Co767 O791 2.097 . S
Co767 N808 2.151 . S
Co767 N816 2.214 . S
Co768 O769 2.160 . S
Co768 O774 2.058 . S
Co768 O784 2.057 . S
Co768 O799 2.037 . S
Co768 N803 2.145 . S
Co768 N824 2.257 . S
O769 Co767 2.143 . S
O769 Co768 2.160 . S
C770 O771 1.278 . S
C770 O778 1.224 . S
O771 C770 1.278 . S
C772 O773 1.245 . S
C772 O784 1.232 . S
O773 C772 1.245 . S
O774 Co768 2.058 . S
O774 C800 1.269 . S
O775 Co767 2.074 . S
O775 C800 1.257 . S
H776 C801 0.930 . S
H777 C807 0.930 . S
O778 Co767 2.093 . S
O778 C770 1.224 . S
H779 C811 0.929 1_545 S
H780 C813 0.930 1_545 S
H781 C814 0.930 . S
H782 C812 0.929 . S
H783 C815 0.928 . S
O784 Co768 2.057 . S
O784 C772 1.232 . S
H785 C804 0.929 . S
H786 C805 0.929 . S
H787 C817 0.931 . S
H788 C809 0.929 . S
H789 C818 0.945 . S
H790 C810 0.931 . S
O791 Co767 2.097 . S
O791 C819 1.214 . S
H792 C820 0.929 . S
H793 C821 0.929 . S
H794 C822 0.930 . S
H795 C823 0.929 . S
H796 C825 0.930 . S
H797 C802 0.930 . S
H798 C806 0.930 . S
O799 Co768 2.037 . S
O799 C819 1.234 . S
C800 O774 1.269 . S
C800 O775 1.257 . S
C801 H776 0.930 . S
C801 C804 1.388 . S
C801 C806 1.418 . S
C802 H797 0.930 . S
C802 C805 1.404 . S
C802 C806 1.353 . S
N803 Co768 2.145 . S
N803 C804 1.397 . S
N803 C805 1.334 . S
C804 H785 0.929 . S
C804 C801 1.388 . S
C804 N803 1.397 . S
C805 H786 0.929 . S
C805 C802 1.404 . S
C805 N803 1.334 . S
C806 H798 0.930 . S
C806 C801 1.418 . S
C806 C802 1.353 . S
C807 H777 0.930 . S
C807 N808 1.330 . S
C807 C809 1.446 . S
N808 Co767 2.151 . S
N808 C807 1.330 . S
N808 C812 1.418 . S
C809 H788 0.929 . S
C809 C807 1.446 . S
C809 C810 1.332 . S
C810 H790 0.931 . S
C810 C809 1.332 . S
C810 C811 1.267 . S
C811 H779 0.929 1_565 S
C811 C810 1.267 . S
C811 C812 1.251 . S
C812 H782 0.929 . S
C812 N808 1.418 . S
C812 C811 1.251 . S
C813 H780 0.930 1_565 S
C813 C815 1.406 . S
C813 C818 1.254 1_565 S
C814 H781 0.930 . S
C814 N816 1.325 . S
C814 C817 1.357 . S
C815 H783 0.928 . S
C815 C813 1.406 . S
C815 N816 1.261 . S
N816 Co767 2.214 . S
N816 C814 1.325 . S
N816 C815 1.261 . S
C817 H787 0.931 . S
C817 C814 1.357 . S
C817 C818 1.304 1_565 S
C818 H789 0.945 . S
C818 C813 1.254 1_545 S
C818 C817 1.304 1_545 S
C819 O791 1.214 . S
C819 O799 1.234 . S
C820 H792 0.929 . S
C820 C823 1.391 . S
C820 C825 1.391 . S
C821 H793 0.929 . S
C821 C822 1.390 . S
C821 N824 1.391 . S
C822 H794 0.930 . S
C822 C821 1.390 . S
C822 C823 1.392 . S
C823 H795 0.929 . S
C823 C820 1.391 . S
C823 C822 1.392 . S
N824 Co768 2.257 . S
N824 C821 1.391 . S
N824 C825 1.388 . S
C825 H796 0.930 . S
C825 C820 1.391 . S
C825 N824 1.388 . S
Co826 O828 2.143 . S
Co826 O834 2.074 . S
Co826 O837 2.093 . S
Co826 O850 2.097 . S
Co826 N867 2.151 . S
Co826 N875 2.214 . S
Co827 O828 2.160 . S
Co827 O833 2.058 . S
Co827 O843 2.057 . S
Co827 O858 2.037 . S
Co827 N862 2.145 1_554 S
Co827 N883 2.257 . S
O828 Co826 2.143 . S
O828 Co827 2.160 . S
C829 O830 1.278 . S
C829 O837 1.224 . S
O830 C829 1.278 . S
C831 O832 1.245 . S
C831 O843 1.232 . S
O832 C831 1.245 . S
O833 Co827 2.058 . S
O833 C859 1.269 . S
O834 Co826 2.074 . S
O834 C859 1.257 . S
H835 C860 0.930 . S
H836 C866 0.930 . S
O837 Co826 2.093 . S
O837 C829 1.224 . S
H838 C870 0.929 1_545 S
H839 C872 0.930 1_545 S
H840 C873 0.930 . S
H841 C871 0.929 . S
H842 C874 0.928 . S
O843 Co827 2.057 . S
O843 C831 1.232 . S
H844 C863 0.929 . S
H845 C864 0.929 . S
H846 C876 0.931 . S
H847 C868 0.929 . S
H848 C877 0.945 . S
H849 C869 0.931 . S
O850 Co826 2.097 . S
O850 C878 1.214 . S
H851 C879 0.929 . S
H852 C880 0.929 . S
H853 C881 0.930 . S
H854 C882 0.929 . S
H855 C884 0.930 . S
H856 C861 0.930 . S
H857 C865 0.930 . S
O858 Co827 2.037 . S
O858 C878 1.234 . S
C859 O833 1.269 . S
C859 O834 1.257 . S
C860 H835 0.930 . S
C860 C863 1.388 . S
C860 C865 1.418 . S
C861 H856 0.930 . S
C861 C864 1.404 . S
C861 C865 1.353 . S
N862 Co827 2.145 1_556 S
N862 C863 1.397 . S
N862 C864 1.334 . S
C863 H844 0.929 . S
C863 C860 1.388 . S
C863 N862 1.397 . S
C864 H845 0.929 . S
C864 C861 1.404 . S
C864 N862 1.334 . S
C865 H857 0.930 . S
C865 C860 1.418 . S
C865 C861 1.353 . S
C866 H836 0.930 . S
C866 N867 1.330 . S
C866 C868 1.446 . S
N867 Co826 2.151 . S
N867 C866 1.330 . S
N867 C871 1.418 . S
C868 H847 0.929 . S
C868 C866 1.446 . S
C868 C869 1.332 . S
C869 H849 0.931 . S
C869 C868 1.332 . S
C869 C870 1.267 . S
C870 H838 0.929 1_565 S
C870 C869 1.267 . S
C870 C871 1.251 . S
C871 H841 0.929 . S
C871 N867 1.418 . S
C871 C870 1.251 . S
C872 H839 0.930 1_565 S
C872 C874 1.406 . S
C872 C877 1.254 1_565 S
C873 H840 0.930 . S
C873 N875 1.325 . S
C873 C876 1.357 . S
C874 H842 0.928 . S
C874 C872 1.406 . S
C874 N875 1.261 . S
N875 Co826 2.214 . S
N875 C873 1.325 . S
N875 C874 1.261 . S
C876 H846 0.931 . S
C876 C873 1.357 . S
C876 C877 1.304 1_565 S
C877 H848 0.945 . S
C877 C872 1.254 1_545 S
C877 C876 1.304 1_545 S
C878 O850 1.214 . S
C878 O858 1.234 . S
C879 H851 0.929 . S
C879 C882 1.391 . S
C879 C884 1.391 . S
C880 H852 0.929 . S
C880 C881 1.390 . S
C880 N883 1.391 . S
C881 H853 0.930 . S
C881 C880 1.390 . S
C881 C882 1.392 . S
C882 H854 0.929 . S
C882 C879 1.391 . S
C882 C881 1.392 . S
N883 Co827 2.257 . S
N883 C880 1.391 . S
N883 C884 1.388 . S
C884 H855 0.930 . S
C884 C879 1.391 . S
C884 N883 1.388 . S
Co885 O887 2.143 . S
Co885 O893 2.074 . S
Co885 O896 2.093 . S
Co885 O909 2.097 . S
Co885 N926 2.151 . S
Co885 N934 2.214 . S
Co886 O887 2.160 . S
Co886 O892 2.058 . S
Co886 O902 2.057 . S
Co886 O917 2.037 . S
Co886 N921 2.145 . S
Co886 N942 2.257 . S
O887 Co885 2.143 . S
O887 Co886 2.160 . S
C888 O889 1.278 . S
C888 O896 1.224 . S
O889 C888 1.278 . S
C890 O891 1.245 . S
C890 O902 1.232 . S
O891 C890 1.245 . S
O892 Co886 2.058 . S
O892 C918 1.269 . S
O893 Co885 2.074 . S
O893 C918 1.257 . S
H894 C919 0.930 . S
H895 C925 0.930 . S
O896 Co885 2.093 . S
O896 C888 1.224 . S
H897 C929 0.929 1_565 S
H898 C931 0.930 1_565 S
H899 C932 0.930 . S
H900 C930 0.929 . S
H901 C933 0.928 . S
O902 Co886 2.057 . S
O902 C890 1.232 . S
H903 C922 0.929 . S
H904 C923 0.929 . S
H905 C935 0.931 . S
H906 C927 0.929 . S
H907 C936 0.945 . S
H908 C928 0.931 . S
O909 Co885 2.097 . S
O909 C937 1.214 . S
H910 C938 0.929 . S
H911 C939 0.929 . S
H912 C940 0.930 . S
H913 C941 0.929 . S
H914 C943 0.930 . S
H915 C920 0.930 . S
H916 C924 0.930 . S
O917 Co886 2.037 . S
O917 C937 1.234 . S
C918 O892 1.269 . S
C918 O893 1.257 . S
C919 H894 0.930 . S
C919 C922 1.388 . S
C919 C924 1.418 . S
C920 H915 0.930 . S
C920 C923 1.404 . S
C920 C924 1.353 . S
N921 Co886 2.145 . S
N921 C922 1.397 . S
N921 C923 1.334 . S
C922 H903 0.929 . S
C922 C919 1.388 . S
C922 N921 1.397 . S
C923 H904 0.929 . S
C923 C920 1.404 . S
C923 N921 1.334 . S
C924 H916 0.930 . S
C924 C919 1.418 . S
C924 C920 1.353 . S
C925 H895 0.930 . S
C925 N926 1.330 . S
C925 C927 1.446 . S
N926 Co885 2.151 . S
N926 C925 1.330 . S
N926 C930 1.418 . S
C927 H906 0.929 . S
C927 C925 1.446 . S
C927 C928 1.332 . S
C928 H908 0.931 . S
C928 C927 1.332 . S
C928 C929 1.267 . S
C929 H897 0.929 1_545 S
C929 C928 1.267 . S
C929 C930 1.251 . S
C930 H900 0.929 . S
C930 N926 1.418 . S
C930 C929 1.251 . S
C931 H898 0.930 1_545 S
C931 C933 1.406 . S
C931 C936 1.254 1_545 S
C932 H899 0.930 . S
C932 N934 1.325 . S
C932 C935 1.357 . S
C933 H901 0.928 . S
C933 C931 1.406 . S
C933 N934 1.261 . S
N934 Co885 2.214 . S
N934 C932 1.325 . S
N934 C933 1.261 . S
C935 H905 0.931 . S
C935 C932 1.357 . S
C935 C936 1.304 1_545 S
C936 H907 0.945 . S
C936 C931 1.254 1_565 S
C936 C935 1.304 1_565 S
C937 O909 1.214 . S
C937 O917 1.234 . S
C938 H910 0.929 . S
C938 C941 1.391 . S
C938 C943 1.391 . S
C939 H911 0.929 . S
C939 C940 1.390 . S
C939 N942 1.391 . S
C940 H912 0.930 . S
C940 C939 1.390 . S
C940 C941 1.392 . S
C941 H913 0.929 . S
C941 C938 1.391 . S
C941 C940 1.392 . S
N942 Co886 2.257 . S
N942 C939 1.391 . S
N942 C943 1.388 . S
C943 H914 0.930 . S
C943 C938 1.391 . S
C943 N942 1.388 . S
C944 C945 1.387 . S
C944 H948 0.950 . S
C944 C953 1.390 1_455 S
C945 C944 1.387 . S
C945 C947 1.387 . S
H946 C953 0.950 . S
C947 C945 1.387 . S
C947 C949 1.390 1_455 S
C947 H951 0.950 . S
H948 C944 0.950 . S
C949 C947 1.390 1_655 S
C949 C950 1.387 . S
C949 H952 0.950 . S
C950 C949 1.387 . S
C950 C953 1.387 . S
H951 C947 0.950 . S
H952 C949 0.950 . S
C953 C944 1.390 1_655 S
C953 H946 0.950 . S
C953 C950 1.387 . S
C954 C955 1.387 . S
C954 H958 0.950 . S
C954 C963 1.390 1_655 S
C955 C954 1.387 . S
C955 C957 1.387 . S
H956 C963 0.950 . S
C957 C955 1.387 . S
C957 C959 1.390 1_655 S
C957 H961 0.950 . S
H958 C954 0.950 . S
C959 C957 1.390 1_455 S
C959 C960 1.387 . S
C959 H962 0.950 . S
C960 C959 1.387 . S
C960 C963 1.387 . S
H961 C957 0.950 . S
H962 C959 0.950 . S
C963 C954 1.390 1_455 S
C963 H956 0.950 . S
C963 C960 1.387 . S
C964 C965 1.387 . S
C964 H968 0.950 . S
C964 C973 1.390 1_655 S
C965 C964 1.387 . S
C965 C967 1.387 . S
H966 C973 0.950 . S
C967 C965 1.387 . S
C967 C969 1.390 1_655 S
C967 H971 0.950 . S
H968 C964 0.950 . S
C969 C967 1.390 1_455 S
C969 C970 1.387 . S
C969 H972 0.950 . S
C970 C969 1.387 . S
C970 C973 1.387 . S
H971 C967 0.950 . S
H972 C969 0.950 . S
C973 C964 1.390 1_455 S
C973 H966 0.950 . S
C973 C970 1.387 . S
C974 C975 1.387 . S
C974 H978 0.950 . S
C974 C983 1.390 1_455 S
C975 C974 1.387 . S
C975 C977 1.387 . S
H976 C983 0.950 . S
C977 C975 1.387 . S
C977 C979 1.390 1_455 S
C977 H981 0.950 . S
H978 C974 0.950 . S
C979 C977 1.390 1_655 S
C979 C980 1.387 . S
C979 H982 0.950 . S
C980 C979 1.387 . S
C980 C983 1.387 . S
H981 C977 0.950 . S
H982 C979 0.950 . S
C983 C974 1.390 1_655 S
C983 H976 0.950 . S
C983 C980 1.387 . S
C984 C985 1.387 . S
C984 H988 0.950 . S
C984 C993 1.390 . S
C985 C984 1.387 . S
C985 C987 1.387 . S
H986 C993 0.950 . S
C987 C985 1.387 . S
C987 C989 1.390 . S
C987 H991 0.950 . S
H988 C984 0.950 . S
C989 C987 1.390 . S
C989 C990 1.387 . S
C989 H992 0.950 . S
C990 C989 1.387 . S
C990 C993 1.387 . S
H991 C987 0.950 . S
H992 C989 0.950 . S
C993 C984 1.390 . S
C993 H986 0.950 . S
C993 C990 1.387 . S
C994 C995 1.387 . S
C994 H998 0.950 . S
C994 C1003 1.390 . S
C995 C994 1.387 . S
C995 C997 1.387 . S
H996 C1003 0.950 . S
C997 C995 1.387 . S
C997 C999 1.390 . S
C997 H1001 0.950 . S
H998 C994 0.950 . S
C999 C997 1.390 . S
C999 C1000 1.387 . S
C999 H1002 0.950 . S
C1000 C999 1.387 . S
C1000 C1003 1.387 . S
H1001 C997 0.950 . S
H1002 C999 0.950 . S
C1003 C994 1.390 . S
C1003 H996 0.950 . S
C1003 C1000 1.387 . S
C1004 C1005 1.387 . S
C1004 H1008 0.950 . S
C1004 C1013 1.390 . S
C1005 C1004 1.387 . S
C1005 C1007 1.387 . S
H1006 C1013 0.950 . S
C1007 C1005 1.387 . S
C1007 C1009 1.390 . S
C1007 H1011 0.950 . S
H1008 C1004 0.950 . S
C1009 C1007 1.390 . S
C1009 C1010 1.387 . S
C1009 H1012 0.950 . S
C1010 C1009 1.387 . S
C1010 C1013 1.387 . S
H1011 C1007 0.950 . S
H1012 C1009 0.950 . S
C1013 C1004 1.390 . S
C1013 H1006 0.950 . S
C1013 C1010 1.387 . S
C1014 C1015 1.387 . S
C1014 H1018 0.950 . S
C1014 C1023 1.390 . S
C1015 C1014 1.387 . S
C1015 C1017 1.387 . S
H1016 C1023 0.950 . S
C1017 C1015 1.387 . S
C1017 C1019 1.390 . S
C1017 H1021 0.950 . S
H1018 C1014 0.950 . S
C1019 C1017 1.390 . S
C1019 C1020 1.387 . S
C1019 H1022 0.950 . S
C1020 C1019 1.387 . S
C1020 C1023 1.387 . S
H1021 C1017 0.950 . S
H1022 C1019 0.950 . S
C1023 C1014 1.390 . S
C1023 H1016 0.950 . S
C1023 C1020 1.387 . S
C1024 C1025 1.387 . S
C1024 H1028 0.950 . S
C1024 C1033 1.390 . S
C1025 C1024 1.387 . S
C1025 C1027 1.387 . S
H1026 C1033 0.950 . S
C1027 C1025 1.387 . S
C1027 C1029 1.390 . S
C1027 H1031 0.950 . S
H1028 C1024 0.950 . S
C1029 C1027 1.390 . S
C1029 C1030 1.387 . S
C1029 H1032 0.950 . S
C1030 C1029 1.387 . S
C1030 C1033 1.387 . S
H1031 C1027 0.950 . S
H1032 C1029 0.950 . S
C1033 C1024 1.390 . S
C1033 H1026 0.950 . S
C1033 C1030 1.387 . S
C1034 C1035 1.387 . S
C1034 H1038 0.950 . S
C1034 C1043 1.390 . S
C1035 C1034 1.387 . S
C1035 C1037 1.387 . S
H1036 C1043 0.950 . S
C1037 C1035 1.387 . S
C1037 C1039 1.390 . S
C1037 H1041 0.950 . S
H1038 C1034 0.950 . S
C1039 C1037 1.390 . S
C1039 C1040 1.387 . S
C1039 H1042 0.950 . S
C1040 C1039 1.387 . S
C1040 C1043 1.387 . S
H1041 C1037 0.950 . S
H1042 C1039 0.950 . S
C1043 C1034 1.390 . S
C1043 H1036 0.950 . S
C1043 C1040 1.387 . S
C1044 C1045 1.387 . S
C1044 H1048 0.950 . S
C1044 C1053 1.390 . S
C1045 C1044 1.387 . S
C1045 C1047 1.387 . S
H1046 C1053 0.950 . S
C1047 C1045 1.387 . S
C1047 C1049 1.390 . S
C1047 H1051 0.950 . S
H1048 C1044 0.950 . S
C1049 C1047 1.390 . S
C1049 C1050 1.387 . S
C1049 H1052 0.950 . S
C1050 C1049 1.387 . S
C1050 C1053 1.387 . S
H1051 C1047 0.950 . S
H1052 C1049 0.950 . S
C1053 C1044 1.390 . S
C1053 H1046 0.950 . S
C1053 C1050 1.387 . S
C1054 C1055 1.387 . S
C1054 H1058 0.950 . S
C1054 C1063 1.390 . S
C1055 C1054 1.387 . S
C1055 C1057 1.387 . S
H1056 C1063 0.950 . S
C1057 C1055 1.387 . S
C1057 C1059 1.390 . S
C1057 H1061 0.950 . S
H1058 C1054 0.950 . S
C1059 C1057 1.390 . S
C1059 C1060 1.387 . S
C1059 H1062 0.950 . S
C1060 C1059 1.387 . S
C1060 C1063 1.387 . S
H1061 C1057 0.950 . S
H1062 C1059 0.950 . S
C1063 C1054 1.390 . S
C1063 H1056 0.950 . S
C1063 C1060 1.387 . S
C1064 C1065 1.387 . S
C1064 H1068 0.950 . S
C1064 C1073 1.390 . S
C1065 C1064 1.387 . S
C1065 C1067 1.387 . S
H1066 C1073 0.950 . S
C1067 C1065 1.387 . S
C1067 C1069 1.390 . S
C1067 H1071 0.950 . S
H1068 C1064 0.950 . S
C1069 C1067 1.390 . S
C1069 C1070 1.387 . S
C1069 H1072 0.950 . S
C1070 C1069 1.387 . S
C1070 C1073 1.387 . S
H1071 C1067 0.950 . S
H1072 C1069 0.950 . S
C1073 C1064 1.390 . S
C1073 H1066 0.950 . S
C1073 C1070 1.387 . S
C1074 C1075 1.387 . S
C1074 H1078 0.950 . S
C1074 C1083 1.390 . S
C1075 C1074 1.387 . S
C1075 C1077 1.387 . S
H1076 C1083 0.950 . S
C1077 C1075 1.387 . S
C1077 C1079 1.390 . S
C1077 H1081 0.950 . S
H1078 C1074 0.950 . S
C1079 C1077 1.390 . S
C1079 C1080 1.387 . S
C1079 H1082 0.950 . S
C1080 C1079 1.387 . S
C1080 C1083 1.387 . S
H1081 C1077 0.950 . S
H1082 C1079 0.950 . S
C1083 C1074 1.390 . S
C1083 H1076 0.950 . S
C1083 C1080 1.387 . S
C1084 C1085 1.387 . S
C1084 H1088 0.950 . S
C1084 C1093 1.390 . S
C1085 C1084 1.387 . S
C1085 C1087 1.387 . S
H1086 C1093 0.950 . S
C1087 C1085 1.387 . S
C1087 C1089 1.390 . S
C1087 H1091 0.950 . S
H1088 C1084 0.950 . S
C1089 C1087 1.390 . S
C1089 C1090 1.387 . S
C1089 H1092 0.950 . S
C1090 C1089 1.387 . S
C1090 C1093 1.387 . S
H1091 C1087 0.950 . S
H1092 C1089 0.950 . S
C1093 C1084 1.390 . S
C1093 H1086 0.950 . S
C1093 C1090 1.387 . S
C1094 C1095 1.387 . S
C1094 H1098 0.950 . S
C1094 C1103 1.390 . S
C1095 C1094 1.387 . S
C1095 C1097 1.387 . S
H1096 C1103 0.950 . S
C1097 C1095 1.387 . S
C1097 C1099 1.390 . S
C1097 H1101 0.950 . S
H1098 C1094 0.950 . S
C1099 C1097 1.390 . S
C1099 C1100 1.387 . S
C1099 H1102 0.950 . S
C1100 C1099 1.387 . S
C1100 C1103 1.387 . S
H1101 C1097 0.950 . S
H1102 C1099 0.950 . S
C1103 C1094 1.390 . S
C1103 H1096 0.950 . S
C1103 C1100 1.387 . S
C1104 C1105 1.387 1_554 S
C1104 H1108 0.950 . S
C1104 C1113 1.390 . S
C1105 C1104 1.387 1_556 S
C1105 C1107 1.387 . S
H1106 C1113 0.950 . S
C1107 C1105 1.387 . S
C1107 C1109 1.390 1_556 S
C1107 H1111 0.950 . S
H1108 C1104 0.950 . S
C1109 C1107 1.390 1_554 S
C1109 C1110 1.387 . S
C1109 H1112 0.950 . S
C1110 C1109 1.387 . S
C1110 C1113 1.387 . S
H1111 C1107 0.950 . S
H1112 C1109 0.950 . S
C1113 C1104 1.390 . S
C1113 H1106 0.950 . S
C1113 C1110 1.387 . S
C1114 C1115 1.387 . S
C1114 H1118 0.950 . S
C1114 C1123 1.390 . S
C1115 C1114 1.387 . S
C1115 C1117 1.387 . S
H1116 C1123 0.950 . S
C1117 C1115 1.387 . S
C1117 C1119 1.390 . S
C1117 H1121 0.950 . S
H1118 C1114 0.950 . S
C1119 C1117 1.390 . S
C1119 C1120 1.387 . S
C1119 H1122 0.950 . S
C1120 C1119 1.387 . S
C1120 C1123 1.387 . S
H1121 C1117 0.950 . S
H1122 C1119 0.950 . S
C1123 C1114 1.390 . S
C1123 H1116 0.950 . S
C1123 C1120 1.387 . S
C1124 C1125 1.387 . S
C1124 H1128 0.950 . S
C1124 C1133 1.390 1_554 S
C1125 C1124 1.387 . S
C1125 C1127 1.387 1_554 S
H1126 C1133 0.950 . S
C1127 C1125 1.387 1_556 S
C1127 C1129 1.390 . S
C1127 H1131 0.950 . S
H1128 C1124 0.950 . S
C1129 C1127 1.390 . S
C1129 C1130 1.387 . S
C1129 H1132 0.950 . S
C1130 C1129 1.387 . S
C1130 C1133 1.387 . S
H1131 C1127 0.950 . S
H1132 C1129 0.950 . S
C1133 C1124 1.390 1_556 S
C1133 H1126 0.950 . S
C1133 C1130 1.387 . S
C1134 C1135 1.387 . S
C1134 H1138 0.950 . S
C1134 C1143 1.390 . S
C1135 C1134 1.387 . S
C1135 C1137 1.387 . S
H1136 C1143 0.950 . S
C1137 C1135 1.387 . S
C1137 C1139 1.390 . S
C1137 H1141 0.950 . S
H1138 C1134 0.950 . S
C1139 C1137 1.390 . S
C1139 C1140 1.387 . S
C1139 H1142 0.950 . S
C1140 C1139 1.387 . S
C1140 C1143 1.387 . S
H1141 C1137 0.950 . S
H1142 C1139 0.950 . S
C1143 C1134 1.390 . S
C1143 H1136 0.950 . S
C1143 C1140 1.387 . S
C1144 C1145 1.385 . S
C1144 H1148 0.950 1_554 S
C1144 C1153 1.392 1_554 S
C1145 C1144 1.385 . S
C1145 C1147 1.387 . S
H1146 C1153 0.950 . S
C1147 C1145 1.387 . S
C1147 C1149 1.390 . S
C1147 H1151 0.950 . S
H1148 C1144 0.950 1_556 S
C1149 C1147 1.390 . S
C1149 C1150 1.387 1_554 S
C1149 H1152 0.950 . S
C1150 C1149 1.387 1_556 S
C1150 C1153 1.387 . S
H1151 C1147 0.950 . S
H1152 C1149 0.950 . S
C1153 C1144 1.392 1_556 S
C1153 H1146 0.950 . S
C1153 C1150 1.387 . S
C1154 C1155 1.387 . S
C1154 H1158 0.950 . S
C1154 C1163 1.390 . S
C1155 C1154 1.387 . S
C1155 C1157 1.387 . S
H1156 C1163 0.950 . S
C1157 C1155 1.387 . S
C1157 C1159 1.390 . S
C1157 H1161 0.950 . S
H1158 C1154 0.950 . S
C1159 C1157 1.390 . S
C1159 C1160 1.387 . S
C1159 H1162 0.950 . S
C1160 C1159 1.387 . S
C1160 C1163 1.387 . S
H1161 C1157 0.950 . S
H1162 C1159 0.950 . S
C1163 C1154 1.390 . S
C1163 H1156 0.950 . S
C1163 C1160 1.387 . S
C1164 C1165 1.387 . S
C1164 H1168 0.950 . S
C1164 C1173 1.390 . S
C1165 C1164 1.387 . S
C1165 C1167 1.387 1_554 S
H1166 C1173 0.950 . S
C1167 C1165 1.387 1_556 S
C1167 C1169 1.390 . S
C1167 H1171 0.950 . S
H1168 C1164 0.950 . S
C1169 C1167 1.390 . S
C1169 C1170 1.387 . S
C1169 H1172 0.950 . S
C1170 C1169 1.387 . S
C1170 C1173 1.387 1_556 S
H1171 C1167 0.950 . S
H1172 C1169 0.950 . S
C1173 C1164 1.390 . S
C1173 H1166 0.950 . S
C1173 C1170 1.387 1_554 S
C1174 C1175 1.387 . S
C1174 H1178 0.950 . S
C1174 C1183 1.390 . S
C1175 C1174 1.387 . S
C1175 C1177 1.387 . S
H1176 C1183 0.950 . S
C1177 C1175 1.387 . S
C1177 C1179 1.390 . S
C1177 H1181 0.950 . S
H1178 C1174 0.950 . S
C1179 C1177 1.390 . S
C1179 C1180 1.387 . S
C1179 H1182 0.950 . S
C1180 C1179 1.387 . S
C1180 C1183 1.387 . S
H1181 C1177 0.950 . S
H1182 C1179 0.950 . S
C1183 C1174 1.390 . S
C1183 H1176 0.950 . S
C1183 C1180 1.387 . S
C1184 C1185 1.387 . S
C1184 H1188 0.950 . S
C1184 C1193 1.390 1_556 S
C1185 C1184 1.387 . S
C1185 C1187 1.387 . S
H1186 C1193 0.950 . S
C1187 C1185 1.387 . S
C1187 C1189 1.390 1_556 S
C1187 H1191 0.950 . S
H1188 C1184 0.950 . S
C1189 C1187 1.390 1_554 S
C1189 C1190 1.387 . S
C1189 H1192 0.950 . S
C1190 C1189 1.387 . S
C1190 C1193 1.387 . S
H1191 C1187 0.950 . S
H1192 C1189 0.950 . S
C1193 C1184 1.390 1_554 S
C1193 H1186 0.950 . S
C1193 C1190 1.387 . S
C1194 C1195 1.387 . S
C1194 H1198 0.950 . S
C1194 C1203 1.390 . S
C1195 C1194 1.387 . S
C1195 C1197 1.387 . S
H1196 C1203 0.950 . S
C1197 C1195 1.387 . S
C1197 C1199 1.390 . S
C1197 H1201 0.950 . S
H1198 C1194 0.950 . S
C1199 C1197 1.390 . S
C1199 C1200 1.387 . S
C1199 H1202 0.950 . S
C1200 C1199 1.387 . S
C1200 C1203 1.387 . S
H1201 C1197 0.950 . S
H1202 C1199 0.950 . S
C1203 C1194 1.390 . S
C1203 H1196 0.950 . S
C1203 C1200 1.387 . S
C1204 C1205 1.387 . S
C1204 H1208 0.950 . S
C1204 C1213 1.390 1_554 S
C1205 C1204 1.387 . S
C1205 C1207 1.387 . S
H1206 C1213 0.950 . S
C1207 C1205 1.387 . S
C1207 C1209 1.390 1_554 S
C1207 H1211 0.950 . S
H1208 C1204 0.950 . S
C1209 C1207 1.390 1_556 S
C1209 C1210 1.387 . S
C1209 H1212 0.950 . S
C1210 C1209 1.387 . S
C1210 C1213 1.387 . S
H1211 C1207 0.950 . S
H1212 C1209 0.950 . S
C1213 C1204 1.390 1_556 S
C1213 H1206 0.950 . S
C1213 C1210 1.387 . S
C1214 C1215 1.387 . S
C1214 H1218 0.950 . S
C1214 C1223 1.390 . S
C1215 C1214 1.387 . S
C1215 C1217 1.387 . S
H1216 C1223 0.950 . S
C1217 C1215 1.387 . S
C1217 C1219 1.390 . S
C1217 H1221 0.950 . S
H1218 C1214 0.950 . S
C1219 C1217 1.390 . S
C1219 C1220 1.387 . S
C1219 H1222 0.950 . S
C1220 C1219 1.387 . S
C1220 C1223 1.387 . S
H1221 C1217 0.950 . S
H1222 C1219 0.950 . S
C1223 C1214 1.390 . S
C1223 H1216 0.950 . S
C1223 C1220 1.387 . S
C1224 C1225 1.387 . S
C1224 H1228 0.950 . S
C1224 C1233 1.390 1_546 S
C1225 C1224 1.387 . S
C1225 C1227 1.387 . S
H1226 C1233 0.950 . S
C1227 C1225 1.387 . S
C1227 C1229 1.390 1_546 S
C1227 H1231 0.950 . S
H1228 C1224 0.950 . S
C1229 C1227 1.390 1_564 S
C1229 C1230 1.387 . S
C1229 H1232 0.950 . S
C1230 C1229 1.387 . S
C1230 C1233 1.387 . S
H1231 C1227 0.950 . S
H1232 C1229 0.950 . S
C1233 C1224 1.390 1_564 S
C1233 H1226 0.950 . S
C1233 C1230 1.387 . S
C1234 C1235 1.387 . S
C1234 H1238 0.950 . S
C1234 C1243 1.390 1_565 S
C1235 C1234 1.387 . S
C1235 C1237 1.387 . S
H1236 C1243 0.950 . S
C1237 C1235 1.387 . S
C1237 C1239 1.390 1_565 S
C1237 H1241 0.950 . S
H1238 C1234 0.950 . S
C1239 C1237 1.390 1_545 S
C1239 C1240 1.387 . S
C1239 H1242 0.950 . S
C1240 C1239 1.387 . S
C1240 C1243 1.387 . S
H1241 C1237 0.950 . S
H1242 C1239 0.950 . S
C1243 C1234 1.390 1_545 S
C1243 H1236 0.950 . S
C1243 C1240 1.387 . S
C1244 C1245 1.387 . S
C1244 H1248 0.950 . S
C1244 C1253 1.390 1_564 S
C1245 C1244 1.387 . S
C1245 C1247 1.387 . S
H1246 C1253 0.950 . S
C1247 C1245 1.387 . S
C1247 C1249 1.390 1_564 S
C1247 H1251 0.950 . S
H1248 C1244 0.950 . S
C1249 C1247 1.390 1_546 S
C1249 C1250 1.387 . S
C1249 H1252 0.950 . S
C1250 C1249 1.387 . S
C1250 C1253 1.387 . S
H1251 C1247 0.950 . S
H1252 C1249 0.950 . S
C1253 C1244 1.390 1_546 S
C1253 H1246 0.950 . S
C1253 C1250 1.387 . S
C1254 C1255 1.387 . S
C1254 H1258 0.950 . S
C1254 C1263 1.390 1_545 S
C1255 C1254 1.387 . S
C1255 C1257 1.387 . S
H1256 C1263 0.950 . S
C1257 C1255 1.387 . S
C1257 C1259 1.390 1_545 S
C1257 H1261 0.950 . S
H1258 C1254 0.950 . S
C1259 C1257 1.390 1_565 S
C1259 C1260 1.387 . S
C1259 H1262 0.950 . S
C1260 C1259 1.387 . S
C1260 C1263 1.387 . S
H1261 C1257 0.950 . S
H1262 C1259 0.950 . S
C1263 C1254 1.390 1_565 S
C1263 H1256 0.950 . S
C1263 C1260 1.387 . S
C945 C52 1.532 . S
C950 C406 1.539 . S
C955 C111 1.532 . S
C960 C465 1.539 . S
C965 C288 1.538 . S
C970 C170 1.530 . S
C975 C347 1.538 . S
C980 C229 1.530 . S
C985 C878 1.539 . S
C990 C524 1.532 . S
C995 C937 1.539 . S
C1000 C583 1.532 . S
C1005 C642 1.532 . S
C1010 C760 1.539 . S
C1015 C701 1.532 . S
C1020 C819 1.539 . S
C1025 C33 1.593 . S
C1030 C298 1.580 . S
C1035 C92 1.593 . S
C1040 C239 1.581 . S
C1045 C151 1.593 . S
C1050 C416 1.580 . S
C1055 C357 1.579 . S
C1060 C210 1.594 . S
C1065 C770 1.580 . S
C1070 C505 1.593 . S
C1075 C711 1.580 . S
C1080 C564 1.593 . S
C1085 C623 1.593 . S
C1090 C888 1.579 . S
C1095 C829 1.581 . S
C1100 C682 1.593 . S
C1105 C713 1.568 . S
C1110 C5 1.572 . S
C1115 C64 1.571 . S
C1120 C772 1.567 . S
C1125 C831 1.567 . S
C1130 C123 1.571 . S
C1135 C890 1.567 . S
C1140 C182 1.571 . S
C1145 C477 1.571 . S
C1150 C241 1.567 . S
C1155 C536 1.572 . S
C1160 C300 1.568 . S
C1165 C359 1.568 . S
C1170 C595 1.572 . S
C1175 C418 1.568 . S
C1180 C654 1.573 . S
C1185 C121 1.288 . S
C1190 C3 1.288 . S
C1195 C62 1.288 . S
C1200 C180 1.288 . S
C1205 C387 1.900 . S
C1210 C269 1.900 . S
C1215 C328 1.898 . S
C1220 C446 1.898 . S
C1225 C593 1.291 . S
C1230 C475 1.291 . S
C1235 C652 1.291 . S
C1240 C534 1.291 . S
C1245 C859 1.900 . S
C1250 C741 1.900 . S
C1255 C918 1.900 . S
C1260 C800 1.900 . S
