# Generated by pormake.
# Topology smd, (6)-cn, num edge types: 1
# Building blocks:
#     Node 0, Type 0, BuildingBlock: FUNLAD_clean_sbu_0, # of connection points: 6
#     Node 1, Type 0, BuildingBlock: FUNLAD_clean_sbu_0, # of connection points: 6
#     Node 2, Type 0, BuildingBlock: FUNLAD_clean_sbu_0, # of connection points: 6
#     Node 3, Type 0, BuildingBlock: FUNLAD_clean_sbu_0, # of connection points: 6
#     Node 4, Type 0, BuildingBlock: FUNLAD_clean_sbu_0, # of connection points: 6
#     Node 5, Type 0, BuildingBlock: FUNLAD_clean_sbu_0, # of connection points: 6
#     Node 6, Type 0, BuildingBlock: FUNLAD_clean_sbu_0, # of connection points: 6
#     Node 7, Type 0, BuildingBlock: FUNLAD_clean_sbu_0, # of connection points: 6
#     Node 8, Type 0, BuildingBlock: FUNLAD_clean_sbu_0, # of connection points: 6
#     Node 9, Type 0, BuildingBlock: FUNLAD_clean_sbu_0, # of connection points: 6
#     Node 10, Type 0, BuildingBlock: FUNLAD_clean_sbu_0, # of connection points: 6
#     Node 11, Type 0, BuildingBlock: FUNLAD_clean_sbu_0, # of connection points: 6
#     Node 12, Type 0, BuildingBlock: FUNLAD_clean_sbu_0, # of connection points: 6
#     Node 13, Type 0, BuildingBlock: FUNLAD_clean_sbu_0, # of connection points: 6
#     Node 14, Type 0, BuildingBlock: FUNLAD_clean_sbu_0, # of connection points: 6
#     Node 15, Type 0, BuildingBlock: FUNLAD_clean_sbu_0, # of connection points: 6
#     Node 16, Type 0, BuildingBlock: FUNLAD_clean_sbu_0, # of connection points: 6
#     Node 17, Type 0, BuildingBlock: FUNLAD_clean_sbu_0, # of connection points: 6
#     Edge 18, Type (0, 0), BuildingBlock: XIVTED_clean_linker_0, # of connection points: 2
#     Edge 19, Type (0, 0), BuildingBlock: XIVTED_clean_linker_0, # of connection points: 2
#     Edge 20, Type (0, 0), BuildingBlock: XIVTED_clean_linker_0, # of connection points: 2
#     Edge 21, Type (0, 0), BuildingBlock: XIVTED_clean_linker_0, # of connection points: 2
#     Edge 22, Type (0, 0), BuildingBlock: XIVTED_clean_linker_0, # of connection points: 2
#     Edge 23, Type (0, 0), BuildingBlock: XIVTED_clean_linker_0, # of connection points: 2
#     Edge 24, Type (0, 0), BuildingBlock: XIVTED_clean_linker_0, # of connection points: 2
#     Edge 25, Type (0, 0), BuildingBlock: XIVTED_clean_linker_0, # of connection points: 2
#     Edge 26, Type (0, 0), BuildingBlock: XIVTED_clean_linker_0, # of connection points: 2
#     Edge 27, Type (0, 0), BuildingBlock: XIVTED_clean_linker_0, # of connection points: 2
#     Edge 28, Type (0, 0), BuildingBlock: XIVTED_clean_linker_0, # of connection points: 2
#     Edge 29, Type (0, 0), BuildingBlock: XIVTED_clean_linker_0, # of connection points: 2
#     Edge 30, Type (0, 0), BuildingBlock: XIVTED_clean_linker_0, # of connection points: 2
#     Edge 31, Type (0, 0), BuildingBlock: XIVTED_clean_linker_0, # of connection points: 2
#     Edge 32, Type (0, 0), BuildingBlock: XIVTED_clean_linker_0, # of connection points: 2
#     Edge 33, Type (0, 0), BuildingBlock: XIVTED_clean_linker_0, # of connection points: 2
#     Edge 34, Type (0, 0), BuildingBlock: XIVTED_clean_linker_0, # of connection points: 2
#     Edge 35, Type (0, 0), BuildingBlock: XIVTED_clean_linker_0, # of connection points: 2
#     Edge 36, Type (0, 0), BuildingBlock: XIVTED_clean_linker_0, # of connection points: 2
#     Edge 37, Type (0, 0), BuildingBlock: XIVTED_clean_linker_0, # of connection points: 2
#     Edge 38, Type (0, 0), BuildingBlock: XIVTED_clean_linker_0, # of connection points: 2
#     Edge 39, Type (0, 0), BuildingBlock: XIVTED_clean_linker_0, # of connection points: 2
#     Edge 40, Type (0, 0), BuildingBlock: XIVTED_clean_linker_0, # of connection points: 2
#     Edge 41, Type (0, 0), BuildingBlock: XIVTED_clean_linker_0, # of connection points: 2
#     Edge 42, Type (0, 0), BuildingBlock: XIVTED_clean_linker_0, # of connection points: 2
#     Edge 43, Type (0, 0), BuildingBlock: XIVTED_clean_linker_0, # of connection points: 2
#     Edge 44, Type (0, 0), BuildingBlock: XIVTED_clean_linker_0, # of connection points: 2
#     Edge 45, Type (0, 0), BuildingBlock: XIVTED_clean_linker_0, # of connection points: 2
#     Edge 46, Type (0, 0), BuildingBlock: XIVTED_clean_linker_0, # of connection points: 2
#     Edge 47, Type (0, 0), BuildingBlock: XIVTED_clean_linker_0, # of connection points: 2
#     Edge 48, Type (0, 0), BuildingBlock: XIVTED_clean_linker_0, # of connection points: 2
#     Edge 49, Type (0, 0), BuildingBlock: XIVTED_clean_linker_0, # of connection points: 2
#     Edge 50, Type (0, 0), BuildingBlock: XIVTED_clean_linker_0, # of connection points: 2
#     Edge 51, Type (0, 0), BuildingBlock: XIVTED_clean_linker_0, # of connection points: 2
#     Edge 52, Type (0, 0), BuildingBlock: XIVTED_clean_linker_0, # of connection points: 2
#     Edge 53, Type (0, 0), BuildingBlock: XIVTED_clean_linker_0, # of connection points: 2
#     Edge 54, Type (0, 0), BuildingBlock: XIVTED_clean_linker_0, # of connection points: 2
#     Edge 55, Type (0, 0), BuildingBlock: XIVTED_clean_linker_0, # of connection points: 2
#     Edge 56, Type (0, 0), BuildingBlock: XIVTED_clean_linker_0, # of connection points: 2
#     Edge 57, Type (0, 0), BuildingBlock: XIVTED_clean_linker_0, # of connection points: 2
#     Edge 58, Type (0, 0), BuildingBlock: XIVTED_clean_linker_0, # of connection points: 2
#     Edge 59, Type (0, 0), BuildingBlock: XIVTED_clean_linker_0, # of connection points: 2
#     Edge 60, Type (0, 0), BuildingBlock: XIVTED_clean_linker_0, # of connection points: 2
#     Edge 61, Type (0, 0), BuildingBlock: XIVTED_clean_linker_0, # of connection points: 2
#     Edge 62, Type (0, 0), BuildingBlock: XIVTED_clean_linker_0, # of connection points: 2
#     Edge 63, Type (0, 0), BuildingBlock: XIVTED_clean_linker_0, # of connection points: 2
#     Edge 64, Type (0, 0), BuildingBlock: XIVTED_clean_linker_0, # of connection points: 2
#     Edge 65, Type (0, 0), BuildingBlock: XIVTED_clean_linker_0, # of connection points: 2
#     Edge 66, Type (0, 0), BuildingBlock: XIVTED_clean_linker_0, # of connection points: 2
#     Edge 67, Type (0, 0), BuildingBlock: XIVTED_clean_linker_0, # of connection points: 2
#     Edge 68, Type (0, 0), BuildingBlock: XIVTED_clean_linker_0, # of connection points: 2
#     Edge 69, Type (0, 0), BuildingBlock: XIVTED_clean_linker_0, # of connection points: 2
#     Edge 70, Type (0, 0), BuildingBlock: XIVTED_clean_linker_0, # of connection points: 2
#     Edge 71, Type (0, 0), BuildingBlock: XIVTED_clean_linker_0, # of connection points: 2
# Relax obj value: 0.291
# Max RMSD: 0.210
# Mean RMSD: 0.209
data_MOF--net-smd--node1-FUNLAD_clean_sbu_0--edge1-XIVTED_clean_linker_0
_symmetry_space_group_name_H-M    P1
_symmetry_Int_Tables_number       1
_symmetry_cell_setting            triclinic
loop_
_symmetry_equiv_pos_as_xyz
'x, y, z'
_cell_length_a     85.050285
_cell_length_b     85.14537
_cell_length_c     15.257792
_cell_angle_alpha  89.981015
_cell_angle_beta   89.915197
_cell_angle_gamma 119.99974
loop_
_atom_site_label
_atom_site_type_symbol
_atom_site_fract_x
_atom_site_fract_y
_atom_site_fract_z
_atom_type_partial_charge
C0 C 0.04278 0.25265 0.28584 0.0
N1 N 0.07612 0.24489 0.4608 0.0
C2 C 0.07457 0.23025 0.41695 0.0
C3 C 0.08884 0.22647 0.41845 0.0
C4 C 0.10474 0.23788 0.46562 0.0
C5 C 0.10583 0.25287 0.50968 0.0
C6 C 0.09135 0.25605 0.50682 0.0
Zn7 Zn 0.05651 0.25207 0.46136 0.0
C8 C 0.07286 0.29203 0.43753 0.0
N9 N 0.01696 0.26911 0.46986 0.0
C10 C 1.00009 0.26028 0.43322 0.0
C11 C 0.02233 0.28421 0.51956 0.0
C12 C 0.0109 0.29122 0.53274 0.0
C13 C 0.99354 0.28258 0.49563 0.0
C14 C 0.98797 0.26678 0.446 0.0
Zn15 Zn 0.03565 0.26062 0.4619 0.0
O16 O 0.05311 0.24849 0.3274 0.0
C17 C 0.01904 0.22078 0.48091 0.0
O18 O 0.03368 0.25848 0.32664 0.0
H19 H 0.03552 0.29083 0.55043 0.0
H20 H 0.06233 0.22158 0.38059 0.0
H21 H 0.99599 0.24817 0.39479 0.0
O22 O 0.03554 0.22457 0.48173 0.0
O23 O 0.01531 0.23342 0.47285 0.0
H24 H 0.09241 0.26766 0.54098 0.0
O25 O 0.03786 0.26252 0.59666 0.0
O26 O 0.05952 0.25571 0.59646 0.0
O27 O 0.05644 0.28775 0.44883 0.0
O28 O 0.07711 0.27971 0.43817 0.0
C29 C 0.04929 0.25998 0.63785 0.0
H30 H 0.0874 0.21475 0.3836 0.0
H31 H 0.11795 0.26237 0.54485 0.0
H32 H 0.01554 0.30323 0.57291 0.0
H33 H 0.97459 0.25974 0.4168 0.0
C34 C 0.83762 0.82685 0.28331 0.0
N35 N 0.84322 0.86877 0.44859 0.0
C36 C 0.85784 0.88125 0.40196 0.0
C37 C 0.86088 0.89892 0.39146 0.0
C38 C 0.84856 0.90347 0.42832 0.0
C39 C 0.83402 0.89052 0.47833 0.0
C40 C 0.83165 0.87324 0.48804 0.0
Zn41 Zn 0.83607 0.84204 0.45712 0.0
C42 C 0.79651 0.81803 0.417 0.0
N43 N 0.81884 0.78555 0.4772 0.0
C44 C 0.82939 0.778 0.46051 0.0
C45 C 0.80266 0.77598 0.51959 0.0
C46 C 0.79688 0.7586 0.55036 0.0
C47 C 0.80791 0.75085 0.53913 0.0
C48 C 0.82409 0.76047 0.49089 0.0
Zn49 Zn 0.82741 0.81263 0.46066 0.0
O50 O 0.84031 0.84111 0.32299 0.0
C51 C 0.86682 0.83585 0.49611 0.0
O52 O 0.83251 0.81223 0.32614 0.0
H53 H 0.79456 0.78217 0.53445 0.0
H54 H 0.86684 0.87737 0.37096 0.0
H55 H 0.84231 0.78587 0.42763 0.0
O56 O 0.86363 0.84879 0.48312 0.0
O57 O 0.85394 0.81955 0.49085 0.0
H58 H 0.82017 0.8632 0.52517 0.0
O59 O 0.82245 0.81345 0.59438 0.0
O60 O 0.83182 0.84251 0.59265 0.0
O61 O 0.80113 0.80617 0.42852 0.0
O62 O 0.80825 0.83464 0.4282 0.0
C63 C 0.82591 0.8278 0.63491 0.0
H64 H 0.87222 0.90865 0.35228 0.0
H65 H 0.82435 0.89365 0.50831 0.0
H66 H 0.78413 0.75152 0.58561 0.0
H67 H 0.83295 0.7549 0.48075 0.0
C68 C 0.2622 0.0516 0.28581 0.0
N69 N 0.22033 0.0151 0.45051 0.0
C70 C 0.20808 0.01814 0.40736 0.0
C71 C 0.19013 1.00408 0.39707 0.0
C72 C 0.18502 0.98684 0.43042 0.0
C73 C 0.19779 0.98425 0.47655 0.0
C74 C 0.2154 0.99865 0.48638 0.0
Zn75 Zn 0.24705 0.03447 0.45987 0.0
C76 C 0.27136 0.01957 0.41889 0.0
N77 N 0.30333 0.07444 0.47932 0.0
C78 C 0.3109 0.09243 0.46018 0.0
C79 C 0.3129 0.06804 0.52305 0.0
C80 C 0.33035 0.0798 0.55271 0.0
C81 C 0.33816 0.09849 0.53858 0.0
C82 C 0.32852 0.10481 0.48912 0.0
Zn83 Zn 0.27628 0.05578 0.4629 0.0
O84 O 0.24803 0.03987 0.32582 0.0
C85 C 0.25257 0.07116 0.49963 0.0
O86 O 0.27679 0.06129 0.32835 0.0
H87 H 0.3067 0.05383 0.53944 0.0
H88 H 0.21233 0.03134 0.37928 0.0
H89 H 0.30301 0.0973 0.42615 0.0
O90 O 0.24004 0.05486 0.48731 0.0
O91 O 0.26907 0.07523 0.4932 0.0
H92 H 0.22527 0.99656 0.52115 0.0
O93 O 0.27533 0.04997 0.59671 0.0
O94 O 0.24647 0.02943 0.59511 0.0
O95 O 0.28301 0.03611 0.43085 0.0
O96 O 0.25464 0.01436 0.42988 0.0
C97 C 0.26112 0.03867 0.63729 0.0
H98 H 0.18056 0.00646 0.36084 0.0
H99 H 0.19421 0.97112 0.50369 0.0
H100 H 0.33745 0.07432 0.58913 0.0
H101 H 0.33414 0.11916 0.47679 0.0
C102 C 0.04427 0.82512 0.31369 0.0
N103 N 0.08197 0.82274 0.47458 0.0
C104 C 0.09275 0.83006 0.40277 0.0
C105 C 0.10433 0.82388 0.37558 0.0
C106 C 0.10496 0.81011 0.4229 0.0
C107 C 0.09485 0.80378 0.50072 0.0
C108 C 0.08325 0.81027 0.52535 0.0
Zn109 Zn 0.06111 0.8281 0.4885 0.0
C110 C 0.074 0.8672 0.45226 0.0
N111 N 0.0176 0.83946 0.49807 0.0
C112 C 1.0017 0.82704 0.46052 0.0
C113 C 0.01909 0.85415 0.54113 0.0
C114 C 1.00402 0.85655 0.5491 0.0
C115 C 0.98732 0.84355 0.5134 0.0
C116 C 0.98634 0.82879 0.46771 0.0
Zn117 Zn 0.03878 0.83461 0.49058 0.0
O118 O 0.05594 0.82292 0.35489 0.0
C119 C 0.02648 0.79533 0.52941 0.0
O120 O 0.03442 0.82991 0.35514 0.0
H121 H 0.03188 0.86385 0.5706 0.0
H122 H 0.0915 0.83985 0.36274 0.0
H123 H 1.00084 0.81555 0.42595 0.0
O124 O 0.04322 0.80099 0.51707 0.0
O125 O 0.02052 0.80628 0.5201 0.0
H126 H 0.07448 0.80453 0.5818 0.0
O127 O 0.04352 0.83933 0.62453 0.0
O128 O 0.06577 0.83318 0.6234 0.0
O129 O 0.05744 0.86268 0.46348 0.0
O130 O 0.07881 0.85538 0.46029 0.0
C131 C 0.05554 0.83751 0.66519 0.0
H132 H 0.11202 0.82915 0.31549 0.0
H133 H 0.09494 0.79306 0.53853 0.0
H134 H 1.00524 0.86807 0.58505 0.0
H135 H 0.97374 0.81862 0.43823 0.0
C136 C 0.26614 0.25694 0.31112 0.0
N137 N 0.27646 0.30023 0.46879 0.0
C138 C 0.29156 0.30926 0.41796 0.0
C139 C 0.29719 0.32673 0.38871 0.0
C140 C 0.28712 0.33512 0.41044 0.0
C141 C 0.2721 0.32598 0.46668 0.0
C142 C 0.26692 0.30835 0.49512 0.0
Zn143 Zn 0.26749 0.27309 0.48601 0.0
C144 C 0.22734 0.2505 0.46592 0.0
N145 N 0.24964 0.21659 0.49887 0.0
C146 C 0.26026 0.21105 0.45807 0.0
C147 C 0.23518 0.20499 0.54907 0.0
C148 C 0.23136 0.18713 0.56219 0.0
C149 C 0.24271 0.1815 0.52394 0.0
C150 C 0.25707 0.19352 0.47018 0.0
Zn151 Zn 0.2578 0.24345 0.48849 0.0
O152 O 0.26938 0.27123 0.35143 0.0
C153 C 0.29797 0.26613 0.51377 0.0
O154 O 0.26112 0.24239 0.35351 0.0
H155 H 0.22698 0.20973 0.58112 0.0
H156 H 0.29884 0.30261 0.39603 0.0
H157 H 0.27164 0.22044 0.41832 0.0
O158 O 0.29446 0.2788 0.50156 0.0
O159 O 0.28514 0.24978 0.51232 0.0
H160 H 0.25485 0.30091 0.53488 0.0
O161 O 0.25457 0.24499 0.6225 0.0
O162 O 0.26542 0.27452 0.62107 0.0
O163 O 0.23066 0.2375 0.46732 0.0
O164 O 0.24031 0.26675 0.47288 0.0
C165 C 0.25911 0.25967 0.66302 0.0
H166 H 0.30911 0.33341 0.34716 0.0
H167 H 0.26399 0.33201 0.48509 0.0
H168 H 0.22022 0.17812 0.60443 0.0
H169 H 0.26603 0.18951 0.43963 0.0
C170 C 0.83066 0.04733 0.32187 0.0
N171 N 0.78885 0.0123 0.48229 0.0
C172 C 0.77918 0.01896 0.44161 0.0
C173 C 0.76177 0.00739 0.41099 0.0
C174 C 0.75411 0.98861 0.42055 0.0
C175 C 0.76379 0.98196 0.46733 0.0
C176 C 0.78136 0.99416 0.49762 0.0
Zn177 Zn 0.81606 0.03085 0.49653 0.0
C178 C 0.8394 0.01488 0.45959 0.0
N179 N 0.87228 0.07133 0.50319 0.0
C180 C 0.87647 0.08694 0.46034 0.0
C181 C 0.88534 0.06922 0.54405 0.0
C182 C 0.90352 0.08322 0.54181 0.0
C183 C 0.90815 0.09938 0.49668 0.0
C184 C 0.89427 0.10114 0.4566 0.0
Zn185 Zn 0.84546 0.05179 0.49928 0.0
O186 O 0.81636 0.03637 0.36273 0.0
C187 C 0.82162 0.06728 0.54117 0.0
O188 O 0.84539 0.05621 0.36377 0.0
H189 H 0.88168 0.05668 0.57784 0.0
H190 H 0.78531 0.03326 0.4275 0.0
H191 H 0.86595 0.08843 0.42846 0.0
O192 O 0.80971 0.0508 0.52997 0.0
O193 O 0.83822 0.07216 0.52894 0.0
H194 H 0.78931 0.98907 0.529 0.0
O195 O 0.84504 0.04688 0.63348 0.0
O196 O 0.81617 0.0256 0.63092 0.0
O197 O 0.85217 0.03108 0.47237 0.0
O198 O 0.823 0.01119 0.46536 0.0
C199 C 0.8308 0.03521 0.67342 0.0
H200 H 0.75464 0.0131 0.37665 0.0
H201 H 0.75828 0.96752 0.47606 0.0
H202 H 0.91382 0.08134 0.57373 0.0
H203 H 0.89707 0.11349 0.42311 0.0
C204 C 0.70826 0.58748 0.63123 0.0
N205 N 0.74166 0.57903 0.80104 0.0
C206 C 0.73957 0.56488 0.75088 0.0
C207 C 0.75409 0.56168 0.73976 0.0
C208 C 0.77076 0.57334 0.77989 0.0
C209 C 0.77221 0.58726 0.83422 0.0
C210 C 0.75743 0.58984 0.84415 0.0
Zn211 Zn 0.72256 0.58676 0.80684 0.0
C212 C 0.73953 0.62672 0.78083 0.0
N213 N 0.68381 0.60473 0.818 0.0
C214 C 0.66676 0.59598 0.78333 0.0
C215 C 0.68961 0.62 0.86693 0.0
C216 C 0.67842 0.62727 0.88124 0.0
C217 C 0.66088 0.61868 0.84619 0.0
C218 C 0.65489 0.60272 0.79738 0.0
Zn219 Zn 0.70211 0.59581 0.80724 0.0
O220 O 0.71852 0.58324 0.67281 0.0
C221 C 0.68504 0.55592 0.82836 0.0
O222 O 0.69938 0.59355 0.67205 0.0
H223 H 0.70296 0.62656 0.89618 0.0
H224 H 0.72691 0.55651 0.717 0.0
H225 H 0.66234 0.58375 0.74541 0.0
O226 O 0.70148 0.55955 0.82817 0.0
O227 O 0.68143 0.56866 0.82015 0.0
H228 H 0.75882 0.60099 0.88374 0.0
O229 O 0.70506 0.59789 0.94196 0.0
O230 O 0.72621 0.59035 0.94184 0.0
O231 O 0.7232 0.62281 0.79205 0.0
O232 O 0.74344 0.61417 0.78286 0.0
C233 C 0.71629 0.59504 -0.01682 0.0
H234 H 0.75259 0.55084 0.69722 0.0
H235 H 0.78487 0.59639 0.86675 0.0
H236 H 0.68339 0.63942 0.92064 0.0
H237 H 0.64137 0.59573 0.7697 0.0
C238 C 0.50316 0.16122 0.61717 0.0
N239 N 0.51212 0.20379 0.78625 0.0
C240 C 0.52696 0.21625 0.74087 0.0
C241 C 0.53172 0.23459 0.74147 0.0
C242 C 0.52114 0.24 0.78981 0.0
C243 C 0.50587 0.22674 0.835 0.0
C244 C 0.50163 0.20875 0.83248 0.0
Zn245 Zn 0.50368 0.1767 0.79065 0.0
C246 C 0.46348 0.1545 0.76137 0.0
N247 N 0.4838 0.11955 0.80919 0.0
C248 C 0.49372 0.11154 0.7877 0.0
C249 C 0.46799 0.11031 0.85485 0.0
C250 C 0.46203 0.09279 0.88429 0.0
C251 C 0.4725 0.08458 0.86829 0.0
C252 C 0.48823 0.09387 0.81662 0.0
Zn253 Zn 0.49328 0.14688 0.79518 0.0
O254 O 0.50732 0.17591 0.65686 0.0
C255 C 0.53336 0.16873 0.8225 0.0
O256 O 0.49697 0.14644 0.65985 0.0
H257 H 0.4604 0.11685 0.87338 0.0
H258 H 0.53508 0.21198 0.70429 0.0
H259 H 0.50635 0.11914 0.75216 0.0
O260 O 0.53075 0.18211 0.81312 0.0
O261 O 0.51997 0.15267 0.81754 0.0
H262 H 0.4898 0.19869 0.86751 0.0
O263 O 0.48978 0.14774 0.92913 0.0
O264 O 0.49998 0.17696 0.92653 0.0
O265 O 0.46679 0.14169 0.7725 0.0
O266 O 0.47638 0.17081 0.76555 0.0
C267 C 0.49385 0.16228 0.96917 0.0
H268 H 0.54357 0.24441 0.70545 0.0
H269 H 0.49701 0.23015 0.87111 0.0
H270 H 0.44961 0.08597 0.92232 0.0
H271 H 0.49667 0.08796 0.80276 0.0
C272 C 0.93057 0.38497 0.59289 0.0
N273 N 0.88869 0.34941 0.76098 0.0
C274 C 0.87629 0.35189 0.7158 0.0
C275 C 0.85843 0.33754 0.70638 0.0
C276 C 0.85361 0.32059 0.74284 0.0
C277 C 0.8665 0.31861 0.79106 0.0
C278 C 0.88399 0.33327 0.79984 0.0
Zn279 Zn 0.91545 0.36893 0.76887 0.0
C280 C 0.93969 0.35365 0.73349 0.0
N281 N 0.97183 0.409 0.78503 0.0
C282 C 0.97954 0.42698 0.76536 0.0
C283 C 0.98115 0.40263 0.83138 0.0
C284 C 0.99839 0.41438 0.86317 0.0
C285 C 1.00627 0.43307 0.84892 0.0
C286 C 0.99697 0.43937 0.79664 0.0
Zn287 Zn 0.94474 0.39031 0.7683 0.0
O288 O 0.91636 0.3738 0.63453 0.0
C289 C 0.92113 0.40614 0.79612 0.0
O290 O 0.94542 0.39454 0.63364 0.0
H291 H 0.97484 0.38847 0.84885 0.0
H292 H 0.88035 0.36484 0.6853 0.0
H293 H 0.97187 0.43185 0.72941 0.0
O294 O 0.90856 0.38961 0.793 0.0
O295 O 0.93759 0.41014 0.7884 0.0
H296 H 0.89397 0.33159 0.83602 0.0
O297 O 0.94359 0.38577 0.90298 0.0
O298 O 0.91499 0.36447 0.90377 0.0
O299 O 0.95135 0.37022 0.74427 0.0
O300 O 0.92295 0.34862 0.74181 0.0
C301 C 0.92964 0.37434 0.9447 0.0
H302 H 0.84875 0.33943 0.66845 0.0
H303 H 0.86315 0.30571 0.8204 0.0
H304 H 1.00523 0.40891 0.90173 0.0
H305 H 1.00266 0.45373 0.78408 0.0
C306 C 0.71167 0.15878 0.64155 0.0
N307 N 0.7473 0.15381 0.80728 0.0
C308 C 0.74155 0.13769 0.76592 0.0
C309 C 0.75324 0.13097 0.75321 0.0
C310 C 0.77123 0.14096 0.78186 0.0
C311 C 0.77716 0.15778 0.82263 0.0
C312 C 0.76478 0.16395 0.83548 0.0
Zn313 Zn 0.72796 0.16143 0.81677 0.0
C314 C 0.74251 0.20037 0.77998 0.0
N315 N 0.68551 0.17441 0.82257 0.0
C316 C 0.66996 0.16252 0.78052 0.0
C317 C 0.68662 0.18859 0.86908 0.0
C318 C 0.67141 0.19081 0.87676 0.0
C319 C 0.65501 0.17818 0.83699 0.0
C320 C 0.65454 0.16415 0.78694 0.0
Zn321 Zn 0.70598 0.16844 0.81837 0.0
O322 O 0.72316 0.15631 0.68285 0.0
C323 C 0.69207 0.12931 0.85861 0.0
O324 O 0.70201 0.16381 0.6829 0.0
H325 H 0.69911 0.19785 0.90219 0.0
H326 H 0.72783 0.12999 0.74153 0.0
H327 H 0.66933 0.15137 0.74376 0.0
O328 O 0.70879 0.13484 0.84784 0.0
O329 O 0.68634 0.14039 0.84771 0.0
H330 H 0.76915 0.17684 0.86728 0.0
O331 O 0.7104 0.17309 0.95245 0.0
O332 O 0.73249 0.1667 0.95146 0.0
O333 O 0.72603 0.19627 0.79156 0.0
O334 O 0.74689 0.18818 0.78709 0.0
C335 C 0.72234 0.17116 -0.00684 0.0
H336 H 0.74828 0.1181 0.71995 0.0
H337 H 0.79104 0.16587 0.84505 0.0
H338 H 0.67225 0.2018 0.91602 0.0
H339 H 0.64222 0.1543 0.75418 0.0
C340 C 0.93268 0.59132 0.65633 0.0
N341 N 0.94098 0.63383 0.81698 0.0
C342 C 0.95716 0.64283 0.77413 0.0
C343 C 0.96502 0.66121 0.75601 0.0
C344 C 0.95618 0.67065 0.78122 0.0
C345 C 0.93938 0.66115 0.82468 0.0
C346 C 0.93201 0.64258 0.84255 0.0
Zn347 Zn 0.931 0.60644 0.83032 0.0
C348 C 0.8921 0.58451 0.79399 0.0
N349 N 0.91338 0.5499 0.84187 0.0
C350 C 0.9033 0.53893 0.77495 0.0
C351 C 0.91869 0.54334 0.91012 0.0
C352 C 0.91458 0.52528 0.91071 0.0
C353 C 0.90517 0.514 0.83981 0.0
C354 C 0.89913 0.52087 0.77231 0.0
Zn355 Zn 0.92236 0.57704 0.83426 0.0
O356 O 0.9357 0.60558 0.6964 0.0
C357 C 0.96141 0.59966 0.87467 0.0
O358 O 0.92719 0.5767 0.69902 0.0
H359 H 0.92676 0.55231 0.96246 0.0
H360 H 0.96393 0.63568 0.75188 0.0
H361 H 0.8991 0.54437 0.72169 0.0
O362 O 0.95689 0.61157 0.86162 0.0
O363 O 0.9496 0.58302 0.8646 0.0
H364 H 0.91905 0.63514 0.87557 0.0
O365 O 0.91768 0.57791 0.96809 0.0
O366 O 0.92615 0.60692 0.96522 0.0
O367 O 0.89537 0.57161 0.8061 0.0
O368 O 0.90488 0.60083 0.80071 0.0
C369 C 0.9207 0.59225 0.00795 0.0
H370 H 0.97776 0.66788 0.72044 0.0
H371 H 0.93213 0.66799 0.8448 0.0
H372 H 0.91965 0.52051 0.96341 0.0
H373 H 0.89178 0.51252 0.71671 0.0
C374 C 0.49737 0.37939 0.65411 0.0
N375 N 0.45611 0.34448 0.81682 0.0
C376 C 0.44638 0.35059 0.77207 0.0
C377 C 0.42906 0.33862 0.74201 0.0
C378 C 0.42151 0.31998 0.75632 0.0
C379 C 0.43124 0.31392 0.80692 0.0
C380 C 0.44875 0.32653 0.83649 0.0
Zn381 Zn 0.48315 0.36361 0.83072 0.0
C382 C 0.50743 0.34854 0.80164 0.0
N383 N 0.53884 0.40543 0.83314 0.0
C384 C 0.54262 0.42088 0.78972 0.0
C385 C 0.55212 0.40382 0.87471 0.0
C386 C 0.57012 0.41818 0.87279 0.0
C387 C 0.57434 0.4342 0.82744 0.0
C388 C 0.56023 0.43544 0.78646 0.0
Zn389 Zn 0.51227 0.38537 0.82988 0.0
O390 O 0.48351 0.36787 0.69599 0.0
C391 C 0.48756 0.39996 0.86717 0.0
O392 O 0.512 0.38934 0.6949 0.0
H393 H 0.54878 0.3914 0.90895 0.0
H394 H 0.4524 0.36471 0.75441 0.0
H395 H 0.53192 0.42196 0.75723 0.0
O396 O 0.47604 0.38333 0.85671 0.0
O397 O 0.5043 0.40524 0.85724 0.0
H398 H 0.45675 0.32186 0.87106 0.0
O399 O 0.51209 0.38095 0.96436 0.0
O400 O 0.48322 0.35962 0.96526 0.0
O401 O 0.51975 0.36516 0.80556 0.0
O402 O 0.49085 0.34418 0.80905 0.0
C403 C 0.49801 0.36949 0.00598 0.0
H404 H 0.42188 0.3439 0.70466 0.0
H405 H 0.42579 0.2996 0.81945 0.0
H406 H 0.5806 0.41667 0.9053 0.0
H407 H 0.56269 0.44766 0.75278 0.0
C408 C 0.37419 0.91945 0.95819 0.0
N409 N 0.40874 0.9121 0.12559 0.0
C410 C 0.40707 0.89814 0.07518 0.0
C411 C 0.42192 0.89544 0.06391 0.0
C412 C 0.43849 0.90741 0.10414 0.0
C413 C 0.43951 0.92111 0.15873 0.0
C414 C 0.42443 0.92319 0.16877 0.0
Zn415 Zn 0.38936 0.91951 0.13167 0.0
C416 C 0.40623 0.9596 0.1014 0.0
N417 N 0.35088 0.9378 0.14682 0.0
C418 C 0.33353 0.92827 0.1162 0.0
C419 C 0.35679 0.95362 0.19124 0.0
C420 C 0.34536 0.96062 0.20504 0.0
C421 C 0.32747 0.9512 0.17425 0.0
C422 C 0.32142 0.93471 0.13 0.0
Zn423 Zn 0.3693 0.92908 0.13615 0.0
O424 O 0.385 0.91569 -0.00204 0.0
C425 C 0.35214 0.88919 0.16455 0.0
O426 O 0.36529 0.92528 0.00083 0.0
H427 H 0.37041 0.9608 0.21734 0.0
H428 H 0.39448 0.88955 0.04115 0.0
H429 H 0.32904 0.91562 0.08184 0.0
O430 O 0.3683 0.89219 0.15492 0.0
O431 O 0.34901 0.90228 0.1591 0.0
H432 H 0.42553 0.93421 0.2084 0.0
O433 O 0.37353 0.93271 0.27011 0.0
O434 O 0.3933 0.92337 0.26735 0.0
O435 O 0.38996 0.9558 0.11309 0.0
O436 O 0.41014 0.94705 0.10566 0.0
C437 C 0.38436 0.92908 0.31002 0.0
H438 H 0.42074 0.88475 0.02119 0.0
H439 H 0.45207 0.93047 0.19136 0.0
H440 H 0.3504 0.97322 0.24091 0.0
H441 H 0.30765 0.92708 0.10568 0.0
C442 C 0.16853 0.49398 0.96365 0.0
N443 N 0.1768 0.53668 0.12785 0.0
C444 C 0.19121 0.54853 0.07809 0.0
C445 C 0.19472 0.5663 0.06554 0.0
C446 C 0.1831 0.5716 0.10381 0.0
C447 C 0.16886 0.55935 0.15755 0.0
C448 C 0.16598 0.54192 0.16899 0.0
Zn449 Zn 0.16879 0.50984 0.13715 0.0
C450 C 0.12868 0.48705 0.10657 0.0
N451 N 0.1499 0.45302 0.15774 0.0
C452 C 0.15988 0.44516 0.13472 0.0
C453 C 0.13426 0.44367 0.20453 0.0
C454 C 0.12847 0.42612 0.23305 0.0
C455 C 0.13894 0.41799 0.21483 0.0
C456 C 0.15456 0.42748 0.16259 0.0
Zn457 Zn 0.15888 0.48016 0.14165 0.0
O458 O 0.17249 0.5086 0.00342 0.0
C459 C 0.19892 0.50274 0.16955 0.0
O460 O 0.16247 0.47923 0.00634 0.0
H461 H 0.12661 0.45011 0.22389 0.0
H462 H 0.19959 0.54402 0.04583 0.0
H463 H 0.17236 0.45286 0.09818 0.0
O464 O 0.19591 0.51586 0.1604 0.0
O465 O 0.1858 0.48653 0.16423 0.0
H466 H 0.15463 0.53235 0.2084 0.0
O467 O 0.15546 0.4815 0.27558 0.0
O468 O 0.16505 0.51063 0.27281 0.0
O469 O 0.13217 0.47438 0.11855 0.0
O470 O 0.14143 0.50342 0.111 0.0
C471 C 0.1592 0.49597 0.31554 0.0
H472 H 0.20581 0.57549 0.02348 0.0
H473 H 0.15974 0.56309 0.18861 0.0
H474 H 0.11611 0.41917 0.2714 0.0
H475 H 0.163 0.42165 0.14698 0.0
C476 C 0.59403 0.71808 0.95734 0.0
N477 N 0.55322 0.68123 0.12493 0.0
C478 C 0.5405 0.68295 0.0784 0.0
C479 C 0.52301 0.66802 0.06806 0.0
C480 C 0.51885 0.65129 0.10504 0.0
C481 C 0.53202 0.65015 0.15531 0.0
C482 C 0.54914 0.66534 0.16472 0.0
Zn483 Zn 0.57971 0.70135 0.1315 0.0
C484 C 0.60466 0.68714 0.09136 0.0
N485 N 0.63572 0.74227 0.14571 0.0
C486 C 0.64307 0.75983 0.11876 0.0
C487 C 0.64602 0.73642 0.18699 0.0
C488 C 0.66438 0.74811 0.20108 0.0
C489 C 0.6724 0.7662 0.17383 0.0
C490 C 0.66156 0.7722 0.13298 0.0
Zn491 Zn 0.60876 0.72308 0.13443 0.0
O492 O 0.58001 0.70613 -0.00264 0.0
C493 C 0.58439 0.73775 0.17022 0.0
O494 O 0.60854 0.72806 -0.00016 0.0
H495 H 0.63996 0.72261 0.21032 0.0
H496 H 0.54408 0.69572 0.04716 0.0
H497 H 0.63461 0.76428 0.08697 0.0
O498 O 0.57205 0.72135 0.15782 0.0
O499 O 0.60099 0.7421 0.16436 0.0
H500 H 0.55939 0.66425 0.20172 0.0
O501 O 0.60859 0.71784 0.26834 0.0
O502 O 0.57982 0.69697 0.26691 0.0
O503 O 0.6161 0.70377 0.10272 0.0
O504 O 0.5879 0.68168 0.10248 0.0
C505 C 0.59445 0.70641 0.30897 0.0
H506 H 0.51313 0.66932 0.02871 0.0
H507 H 0.5292 0.63749 0.1856 0.0
H508 H 0.67223 0.74308 0.23441 0.0
H509 H 0.66735 0.78614 0.11156 0.0
C510 C 0.37475 0.49059 0.96804 0.0
N511 N 0.40814 0.48223 0.13335 0.0
C512 C 0.4023 0.46647 0.08853 0.0
C513 C 0.41373 0.45944 0.07533 0.0
C514 C 0.43153 0.46878 0.10716 0.0
C515 C 0.43752 0.48522 0.15174 0.0
C516 C 0.42542 0.4917 0.16489 0.0
Zn517 Zn 0.38963 0.49087 0.14292 0.0
C518 C 0.40652 0.53066 0.11413 0.0
N519 N 0.34982 0.50738 0.15044 0.0
C520 C 0.33414 0.49624 0.10734 0.0
C521 C 0.35148 0.52138 0.20044 0.0
C522 C 0.33661 0.52405 0.21149 0.0
C523 C 0.32004 0.51203 0.17147 0.0
C524 C 0.31904 0.4983 0.11716 0.0
Zn525 Zn 0.36928 0.50007 0.14543 0.0
O526 O 0.3857 0.48727 0.00889 0.0
C527 C 0.35269 0.46008 0.17601 0.0
O528 O 0.36552 0.49609 0.00974 0.0
H529 H 0.36406 0.53002 0.23441 0.0
H530 H 0.38875 0.45934 0.06164 0.0
H531 H 0.33307 0.48519 0.068 0.0
O532 O 0.36905 0.4641 0.1652 0.0
O533 O 0.34856 0.47247 0.17143 0.0
H534 H 0.42986 0.50431 0.19949 0.0
O535 O 0.37346 0.50401 0.27915 0.0
O536 O 0.39334 0.49463 0.27834 0.0
O537 O 0.39026 0.52742 0.12216 0.0
O538 O 0.40987 0.51773 0.12072 0.0
C539 C 0.38427 0.5004 0.31993 0.0
H540 H 0.40874 0.44689 0.03915 0.0
H541 H 0.45124 0.49279 0.1768 0.0
H542 H 0.33778 0.53477 0.25401 0.0
H543 H 0.30648 0.48889 0.08464 0.0
C544 C 0.59955 0.92423 0.97119 0.0
N545 N 0.6091 0.96707 0.13221 0.0
C546 C 0.62482 0.97642 0.08601 0.0
C547 C 0.63214 0.9948 0.06934 0.0
C548 C 0.6232 1.00383 0.09948 0.0
C549 C 0.60684 0.99394 0.14601 0.0
C550 C 0.60003 0.97541 0.16233 0.0
Zn551 Zn 0.59972 0.93981 0.14514 0.0
C552 C 0.55988 0.91759 0.11679 0.0
N553 N 0.58156 0.88322 0.15793 0.0
C554 C 0.5923 0.87769 0.11831 0.0
C555 C 0.56684 0.87154 0.20648 0.0
C556 C 0.56289 0.85365 0.21939 0.0
C557 C 0.57437 0.84803 0.18262 0.0
C558 C 0.58899 0.86011 0.13027 0.0
Zn559 Zn 0.58994 0.91016 0.14946 0.0
O560 O 0.60312 0.93868 0.01106 0.0
C561 C 0.62993 0.93267 0.18 0.0
O562 O 0.59385 0.9096 0.01395 0.0
H563 H 0.55854 0.87628 0.23763 0.0
H564 H 0.63164 0.96957 0.06041 0.0
H565 H 0.60389 0.88714 0.07986 0.0
O566 O 0.62638 0.94529 0.16786 0.0
O567 O 0.6172 0.91628 0.17594 0.0
H568 H 0.58745 0.96769 0.19809 0.0
O569 O 0.5861 0.91116 0.2832 0.0
O570 O 0.59615 0.94051 0.28052 0.0
O571 O 0.56294 0.90449 0.12554 0.0
O572 O 0.57295 0.93381 0.12282 0.0
C573 C 0.59008 0.92576 0.3231 0.0
H574 H 0.64457 1.00184 0.03151 0.0
H575 H 0.59955 1.00048 0.17 0.0
H576 H 0.55156 0.84459 0.26058 0.0
H577 H 0.59807 0.85611 0.10094 0.0
C578 C 0.16329 0.71352 0.97353 0.0
N579 N 0.12226 0.67903 0.14087 0.0
C580 C 0.11155 0.6844 0.09977 0.0
C581 C 0.0932 0.67232 0.08735 0.0
C582 C 0.08567 0.65434 0.11598 0.0
C583 C 0.09692 0.64889 0.15697 0.0
C584 C 0.11534 0.66163 0.1696 0.0
Zn585 Zn 0.14924 0.69817 0.14859 0.0
C586 C 0.17288 0.68215 0.11451 0.0
N587 N 0.2054 0.73852 0.15398 0.0
C588 C 0.20963 0.75423 0.11193 0.0
C589 C 0.21811 0.73682 0.20071 0.0
C590 C 0.23574 0.75162 0.20908 0.0
C591 C 0.24007 0.76821 0.16977 0.0
C592 C 0.2269 0.76928 0.11911 0.0
Zn593 Zn 0.17874 0.71872 0.15063 0.0
O594 O 0.14904 0.70249 0.01466 0.0
C595 C 0.15473 0.73455 0.18664 0.0
O596 O 0.17806 0.72266 0.01499 0.0
H597 H 0.21442 0.72419 0.23377 0.0
H598 H 0.11729 0.69807 0.07499 0.0
H599 H 0.19938 0.75531 0.07497 0.0
O600 O 0.14243 0.71822 0.17516 0.0
O601 O 0.17128 0.73882 0.17951 0.0
H602 H 0.12412 0.65758 0.2013 0.0
O603 O 0.17896 0.71437 0.2844 0.0
O604 O 0.14982 0.6941 0.28387 0.0
O605 O 0.18575 0.69838 0.1245 0.0
O606 O 0.15652 0.67853 0.12203 0.0
C607 C 0.16464 0.70329 0.32535 0.0
H608 H 0.08499 0.67692 0.05399 0.0
H609 H 0.09151 0.63507 0.17951 0.0
H610 H 0.2456 0.75036 0.24882 0.0
H611 H 0.22983 0.78181 0.08695 0.0
H612 H 0.13859 0.38837 0.13881 0.0
H613 H 0.07348 0.32198 0.50152 0.0
H614 H 0.12752 0.40693 0.38193 0.0
H615 H 0.10244 0.30519 0.32836 0.0
H616 H 0.09314 0.35329 0.45517 0.0
H617 H 0.1259 0.35786 0.20282 0.0
C618 C 0.13375 0.3861 0.20587 0.0
C619 C 0.13368 0.40008 0.25436 0.0
C620 C 0.09543 0.34284 0.42809 0.0
C621 C 0.11909 0.36541 0.32721 0.0
C622 C 0.08418 0.32497 0.45449 0.0
C623 C 0.08639 0.31106 0.41864 0.0
C624 C 0.1087 0.34681 0.36356 0.0
C625 C 0.10043 0.31562 0.35783 0.0
C626 C 0.12651 0.36872 0.24226 0.0
C627 C 0.1273 0.39642 0.34111 0.0
N628 N 0.11091 0.33314 0.33083 0.0
N629 N 0.12004 0.37942 0.37418 0.0
H630 H 0.77178 0.78436 0.36186 0.0
H631 H 0.68941 0.79871 0.26238 0.0
H632 H 0.77963 0.83833 0.38892 0.0
H633 H 0.69973 0.76056 0.12479 0.0
H634 H 0.72086 0.81388 0.31813 0.0
H635 H 0.74299 0.77477 0.29095 0.0
C636 C 0.76741 0.79423 0.35356 0.0
C637 C 0.77823 0.81224 0.3814 0.0
C638 C 0.71629 0.80245 0.27411 0.0
C639 C 0.74499 0.80119 0.29898 0.0
C640 C 0.69845 0.79389 0.24197 0.0
C641 C 0.69201 0.77827 0.18998 0.0
C642 C 0.72742 0.79508 0.25451 0.0
C643 C 0.70413 0.77242 0.16578 0.0
C644 C 0.75098 0.78875 0.3121 0.0
C645 C 0.7717 0.82433 0.36837 0.0
N646 N 0.72113 0.78063 0.19936 0.0
N647 N 0.75537 0.81856 0.32831 0.0
H648 H 0.25152 0.98249 0.38906 0.0
H649 H 0.33444 0.98491 0.13196 0.0
H650 H 0.3053 0.02913 0.36432 0.0
H651 H 0.29399 0.93539 0.2546 0.0
H652 H 0.31858 1.0002 0.18569 0.0
H653 H 0.26263 0.96391 0.31668 0.0
C654 C 0.26561 0.98878 0.36906 0.0
C655 C 0.2775 0.00739 0.38297 0.0
C656 C 0.31302 0.98593 0.20018 0.0
C657 C 0.28997 0.9865 0.29863 0.0
C658 C 0.322 0.9772 0.16908 0.0
C659 C 0.31562 0.95899 0.19007 0.0
C660 C 0.29756 0.97643 0.25312 0.0
C661 C 0.29932 0.9495 0.23744 0.0
C662 C 0.27188 0.97821 0.32764 0.0
C663 C 0.2956 0.01487 0.35541 0.0
N664 N 0.2909 0.95842 0.26869 0.0
N665 N 0.30119 0.00446 0.31418 0.0
H666 H 0.34786 0.09763 0.70705 0.0
H667 H 0.45242 0.17292 0.65327 0.0
H668 H 0.36853 0.12766 0.46624 0.0
H669 H 0.43225 0.12576 0.81961 0.0
H670 H 0.42106 0.16249 0.60466 0.0
H671 H 0.3781 0.11451 0.77062 0.0
C672 C 0.35879 0.10791 0.66772 0.0
C673 C 0.35582 0.11094 0.58047 0.0
C674 C 0.42357 0.15463 0.65268 0.0
C675 C 0.39047 0.13042 0.65329 0.0
C676 C 0.44136 0.1606 0.68077 0.0
C677 C 0.44483 0.1501 0.74013 0.0
C678 C 0.40929 0.13833 0.68603 0.0
C679 C 0.43013 0.13417 0.7733 0.0
C680 C 0.37602 0.11755 0.70414 0.0
C681 C 0.37033 0.12481 0.53346 0.0
N682 N 0.41303 0.12878 0.74583 0.0
N683 N 0.38718 0.13393 0.57013 0.0
H684 H 0.97443 0.36197 0.70371 0.0
H685 H 0.95906 0.26638 0.56579 0.0
H686 H 0.91934 0.3172 0.68969 0.0
H687 H 1.00179 0.31707 0.46313 0.0
H688 H 0.94369 0.28243 0.62235 0.0
H689 H 0.98498 0.34333 0.63492 0.0
C690 C 0.96449 0.34813 0.68683 0.0
C691 C 0.9459 0.34122 0.70198 0.0
C692 C 0.95623 0.28987 0.58579 0.0
C693 C 0.95808 0.3197 0.62206 0.0
C694 C 0.96491 0.28075 0.5531 0.0
C695 C 0.98179 0.29052 0.51081 0.0
C696 C 0.96473 0.3088 0.57661 0.0
C697 C 0.98892 0.30912 0.4965 0.0
C698 C 0.97056 0.33753 0.64671 0.0
C699 C 0.93378 0.32308 0.67892 0.0
N700 N 0.98052 0.31768 0.53051 0.0
N701 N 0.94009 0.31286 0.63996 0.0
H702 H 0.80792 0.72073 0.47195 0.0
H703 H 0.74054 0.65741 0.83685 0.0
H704 H 0.79599 0.74118 0.70638 0.0
H705 H 0.76944 0.63869 0.67473 0.0
H706 H 0.76089 0.68831 0.78679 0.0
H707 H 0.79458 0.69062 0.54143 0.0
C708 C 0.80278 0.71895 0.53836 0.0
C709 C 0.80263 0.73332 0.58272 0.0
C710 C 0.763 0.67752 0.76296 0.0
C711 C 0.78733 0.69915 0.6617 0.0
C712 C 0.75136 0.65989 0.79145 0.0
C713 C 0.75335 0.64555 0.75977 0.0
C714 C 0.77647 0.68083 0.70049 0.0
C715 C 0.76757 0.64946 0.70097 0.0
C716 C 0.79517 0.70181 0.57786 0.0
C717 C 0.79588 0.73034 0.66879 0.0
N718 N 0.77844 0.66674 0.67184 0.0
N719 N 0.78827 0.71357 0.70484 0.0
H720 H 0.03688 0.77095 0.57326 0.0
H721 H 0.94046 0.68894 0.70606 0.0
H722 H 0.9896 0.77733 0.56496 0.0
H723 H 0.99141 0.69671 0.80427 0.0
H724 H 0.95663 0.71996 0.64563 0.0
H725 H 0.01884 0.74164 0.64267 0.0
C726 C 0.02262 0.76614 0.58533 0.0
C727 C 0.01478 0.7767 0.56331 0.0
C728 C 0.96415 0.71488 0.68149 0.0
C729 C 0.99394 0.74293 0.64408 0.0
C730 C 0.95495 0.69728 0.71642 0.0
C731 C 0.96468 0.69018 0.75898 0.0
C732 C 0.98314 0.72522 0.68882 0.0
C733 C 0.98344 0.7015 0.77029 0.0
C734 C 0.01235 0.74941 0.62582 0.0
C735 C 0.99619 0.76963 0.58091 0.0
N736 N 0.99205 0.71832 0.73447 0.0
N737 N 0.98634 0.7531 0.62026 0.0
H738 H 0.32928 0.29513 0.457 0.0
H739 H 0.39088 0.29094 0.82743 0.0
H740 H 0.30895 0.24781 0.62228 0.0
H741 H 0.41255 0.32052 0.58632 0.0
H742 H 0.36073 0.27437 0.75804 0.0
H743 H 0.35999 0.30481 0.50758 0.0
C744 C 0.33136 0.28668 0.50322 0.0
C745 C 0.31664 0.27068 0.53559 0.0
C746 C 0.37221 0.28427 0.72014 0.0
C747 C 0.35167 0.28184 0.5954 0.0
C748 C 0.38936 0.29367 0.75956 0.0
C749 C 0.40408 0.30738 0.71308 0.0
C750 C 0.3699 0.28883 0.63433 0.0
C751 C 0.40143 0.31039 0.62524 0.0
C752 C 0.34888 0.29216 0.53196 0.0
C753 C 0.32003 0.26019 0.59548 0.0
N754 N 0.38465 0.30144 0.58928 0.0
N755 N 0.33721 0.26613 0.62487 0.0
H756 H 0.80355 0.15587 0.69138 0.0
H757 H 0.78842 0.05836 0.6047 0.0
H758 H 0.76556 0.10829 0.83559 0.0
H759 H 0.84188 0.10458 0.56291 0.0
H760 H 0.77924 0.0779 0.67585 0.0
H761 H 0.81833 0.13912 0.63683 0.0
C762 C 0.79871 0.14211 0.71357 0.0
C763 C 0.78325 0.13331 0.76718 0.0
C764 C 0.79301 0.08383 0.65144 0.0
C765 C 0.79958 0.11416 0.70389 0.0
C766 C 0.79825 0.07269 0.60982 0.0
C767 C 0.81599 0.07982 0.57762 0.0
C768 C 0.80544 0.1024 0.66028 0.0
C769 C 0.82807 0.09854 0.58684 0.0
C770 C 0.80703 0.13256 0.68207 0.0
C771 C 0.77733 0.11546 0.79353 0.0
N772 N 0.82254 0.10928 0.627 0.0
N773 N 0.78531 0.10639 0.76053 0.0
H774 H 0.64092 0.91391 0.28617 0.0
H775 H 0.74519 0.99116 0.25269 0.0
H776 H 0.66123 0.96233 0.12882 0.0
H777 H 0.72357 0.95843 0.48544 0.0
H778 H 0.71537 0.97459 0.18462 0.0
H779 H 0.67204 0.92455 0.33886 0.0
C780 C 0.65197 0.92657 0.26149 0.0
C781 C 0.64858 0.93733 0.20343 0.0
C782 C 0.71715 0.9709 0.25031 0.0
C783 C 0.68389 0.94937 0.26234 0.0
C784 C 0.73414 0.98037 0.28931 0.0
C785 C 0.73671 0.97647 0.37571 0.0
C786 C 0.70253 0.95732 0.29764 0.0
C787 C 0.72207 0.96196 0.41903 0.0
C788 C 0.66963 0.93266 0.29194 0.0
C789 C 0.66327 0.9537 0.17399 0.0
N790 N 0.70545 0.95301 0.37987 0.0
N791 N 0.68026 0.9592 0.20374 0.0
H792 H 0.10053 0.79625 0.25917 0.0
H793 H 0.17354 0.76418 0.29243 0.0
H794 H 0.12983 0.80264 0.49929 0.0
H795 H 0.12399 0.73509 0.1441 0.0
H796 H 0.16275 0.7842 0.34934 0.0
H797 H 0.11431 0.77957 0.1962 0.0
C798 C 0.11007 0.79432 0.29821 0.0
C799 C 0.11412 0.80084 0.38442 0.0
C800 C 0.15438 0.77351 0.30377 0.0
C801 C 0.12994 0.78186 0.31264 0.0
C802 C 0.16056 0.76222 0.27078 0.0
C803 C 0.1496 0.74801 0.2136 0.0
C804 C 0.13738 0.77076 0.27743 0.0
C805 C 0.13281 0.74587 0.18827 0.0
C806 C 0.11782 0.78474 0.26243 0.0
C807 C 0.12636 0.79776 0.43266 0.0
N808 N 0.12724 0.75718 0.22004 0.0
N809 N 0.13395 0.78852 0.39591 0.0
H810 H 0.35102 0.42965 0.11265 0.0
H811 H 0.28889 0.3653 0.48786 0.0
H812 H 0.32402 0.44785 0.2906 0.0
H813 H 0.29658 0.3454 0.24075 0.0
H814 H 0.30135 0.39563 0.42187 0.0
H815 H 0.33134 0.39861 0.16278 0.0
C816 C 0.34073 0.42701 0.16156 0.0
C817 C 0.33907 0.44123 0.19756 0.0
C818 C 0.30003 0.38451 0.38207 0.0
C819 C 0.31678 0.40581 0.25703 0.0
C820 C 0.29293 0.36724 0.41958 0.0
C821 C 0.29214 0.35293 0.37035 0.0
C822 C 0.30645 0.38738 0.29525 0.0
C823 C 0.29749 0.35616 0.28203 0.0
C824 C 0.32948 0.40931 0.19011 0.0
C825 C 0.32557 0.43715 0.26093 0.0
N826 N 0.30465 0.37306 0.24783 0.0
N827 N 0.3151 0.41979 0.29003 0.0
H828 H 0.03723 0.46226 0.78102 0.0
H829 H 0.09719 0.45798 0.16039 0.0
H830 H 0.01455 0.43206 0.0197 0.0
H831 H 0.11816 0.50539 -0.00465 0.0
H832 H 0.06673 0.44815 0.1057 0.0
H833 H 0.06702 0.47882 0.85376 0.0
C834 C 0.03845 0.45937 0.849 0.0
C835 C 0.02356 0.44549 0.89383 0.0
C836 C 0.07792 0.46085 0.08224 0.0
C837 C 0.05733 0.46407 -0.02355 0.0
C838 C 0.09529 0.46643 0.11334 0.0
C839 C 0.11012 0.48249 0.08227 0.0
C840 C 0.07538 0.47115 0.01771 0.0
C841 C 0.10698 0.49295 0.02121 0.0
C842 C 0.05541 0.46876 0.89035 0.0
C843 C 0.02582 0.44229 -0.01806 0.0
N844 N 0.08994 0.48693 -0.01049 0.0
N845 N 0.04242 0.45127 0.01979 0.0
H846 H 0.66927 0.65315 0.8118 0.0
H847 H 0.585 0.65021 0.05829 0.0
H848 H 0.62673 0.60294 0.9196 0.0
H849 H 0.63896 0.69684 0.04173 0.0
H850 H 0.59641 0.63189 -0.01373 0.0
H851 H 0.65372 0.66865 0.86662 0.0
C852 C 0.65645 0.64535 0.84588 0.0
C853 C 0.64935 0.62684 0.86229 0.0
C854 C 0.60564 0.64613 -0.00105 0.0
C855 C 0.63162 0.64452 0.92673 0.0
C856 C 0.5992 0.65655 0.04022 0.0
C857 C 0.61104 0.6751 0.05617 0.0
C858 C 0.62389 0.65447 0.97228 0.0
C859 C 0.62928 0.68263 0.03105 0.0
C860 C 0.64764 0.6542 0.87769 0.0
C861 C 0.6326 0.61727 0.90591 0.0
N862 N 0.63506 0.67235 -0.01003 0.0
N863 N 0.62434 0.62629 0.93786 0.0
H864 H 0.46183 0.07495 0.03714 0.0
H865 H 0.43563 0.97121 -0.0082 0.0
H866 H 0.47154 0.05422 0.79752 0.0
H867 H 0.40771 0.99045 0.15755 0.0
H868 H 0.45557 1.00253 0.93998 0.0
H869 H 0.44913 0.04495 0.10268 0.0
C870 C 0.46134 0.06406 -0.00168 0.0
C871 C 0.46727 0.06695 0.91085 0.0
C872 C 0.44522 0.99984 -0.01144 0.0
C873 C 0.45294 0.03257 -0.01376 0.0
C874 C 0.43397 0.98208 0.01852 0.0
C875 C 0.42002 0.97834 0.07867 0.0
C876 C 0.44265 0.01385 0.0208 0.0
C877 C 0.41824 0.99278 0.11074 0.0
C878 C 0.45415 0.04697 0.03596 0.0
C879 C 0.46692 0.05249 0.86482 0.0
N880 N 0.42942 0.00988 0.08143 0.0
N881 N 0.45962 0.03579 0.90278 0.0
H882 H 0.70205 0.10433 0.8938 0.0
H883 H 0.60671 0.02188 0.02972 0.0
H884 H 0.65533 0.11167 0.90003 0.0
H885 H 0.65813 0.03024 0.12382 0.0
H886 H 0.62231 0.05323 0.97282 0.0
H887 H 0.68419 0.07491 0.9615 0.0
C888 C 0.68795 0.09973 0.90889 0.0
C889 C 0.68023 0.11062 0.89153 0.0
C890 C 0.63004 0.04821 0.00721 0.0
C891 C 0.65958 0.07662 0.97031 0.0
C892 C 0.62118 0.03042 0.04002 0.0
C893 C 0.63125 0.02342 0.08015 0.0
C894 C 0.64901 0.0588 0.01427 0.0
C895 C 0.64993 0.03498 0.09166 0.0
C896 C 0.67777 0.08291 0.94836 0.0
C897 C 0.66181 0.10372 0.91245 0.0
N898 N 0.65822 0.05196 0.05788 0.0
N899 N 0.65203 0.08706 0.95081 0.0
H900 H 0.06943 0.62175 0.02833 0.0
H901 H 0.98582 0.63347 0.92852 0.0
H902 H 0.05775 0.65887 0.16673 0.0
H903 H 0.97858 0.57965 0.90579 0.0
H904 H 0.01458 0.64354 -3e-05 0.0
H905 H 0.03784 0.60559 0.97429 0.0
C906 C 0.06007 0.62613 0.04933 0.0
C907 C 0.06614 0.64176 0.10092 0.0
C908 C 1.00674 0.62949 -0.02029 0.0
C909 C 0.03057 0.6238 0.03858 0.0
C910 C 0.99032 0.62372 0.93788 0.0
C911 C 0.97967 0.60562 0.911 0.0
C912 C 0.01294 0.61727 -0.00583 0.0
C913 C 0.98638 0.59372 0.92553 0.0
C914 C 0.04215 0.61699 0.01826 0.0
C915 C 0.05362 0.64703 0.12599 0.0
N916 N 1.00275 0.59979 0.96587 0.0
N917 N 0.03654 0.63826 0.09345 0.0
H918 H 0.42437 0.43503 0.14976 0.0
H919 H 0.50735 0.43704 0.89594 0.0
H920 H 0.46507 0.48447 0.02758 0.0
H921 H 0.45341 0.39054 0.91792 0.0
H922 H 0.4962 0.4557 0.96676 0.0
H923 H 0.44008 0.41959 0.096 0.0
C924 C 0.43685 0.44269 0.1128 0.0
C925 C 0.44335 0.46093 0.09193 0.0
C926 C 0.48692 0.44142 0.95548 0.0
C927 C 0.46122 0.44331 0.02882 0.0
C928 C 0.49321 0.4308 0.91491 0.0
C929 C 0.4813 0.41219 0.90089 0.0
C930 C 0.46877 0.43319 -0.01646 0.0
C931 C 0.46313 0.40479 0.92708 0.0
C932 C 0.44573 0.43387 0.08163 0.0
C933 C 0.45967 0.47035 0.0447 0.0
N934 N 0.45751 0.41525 0.96761 0.0
N935 N 0.468 0.46135 0.01345 0.0
H936 H 0.11847 0.22631 0.33207 0.0
H937 H 0.21455 0.27104 0.53704 0.0
H938 H 0.12721 0.24281 0.60363 0.0
H939 H 0.19742 0.22176 0.39045 0.0
H940 H 0.1832 0.26469 0.5393 0.0
H941 H 0.14765 0.22682 0.33211 0.0
C942 C 0.1263 0.22971 0.39201 0.0
C943 C 0.12056 0.23496 0.46742 0.0
C944 C 0.18633 0.25528 0.50666 0.0
C945 C 0.1539 0.23601 0.46666 0.0
C946 C 0.20419 0.25895 0.50469 0.0
C947 C 0.20851 0.24689 0.46349 0.0
C948 C 0.17276 0.2397 0.46527 0.0
C949 C 0.19454 0.23133 0.42314 0.0
C950 C 0.14293 0.23006 0.3917 0.0
C951 C 0.13134 0.23929 0.54307 0.0
N952 N 0.17719 0.22824 0.4241 0.0
N953 N 0.14765 0.2401 0.5402 0.0
H954 H 0.87133 0.01427 0.48058 0.0
H955 H 0.82299 0.9091 0.3542 0.0
H956 H 0.816 0.98182 0.39182 0.0
H957 H 0.87667 0.9377 0.46557 0.0
H958 H 0.82265 0.93748 0.34575 0.0
H959 H 0.87579 0.98817 0.45648 0.0
C960 C 0.86021 1.00175 0.45522 0.0
C961 C 0.8432 1.00013 0.43918 0.0
C962 C 0.83462 0.93769 0.37143 0.0
C963 C 0.84822 0.97044 0.41117 0.0
C964 C 0.83481 0.92149 0.376 0.0
C965 C 0.84979 0.92113 0.41143 0.0
C966 C 0.84944 0.95371 0.40368 0.0
C967 C 0.86485 0.93752 0.43801 0.0
C968 C 0.86275 0.98689 0.44163 0.0
C969 C 0.82927 0.98364 0.40625 0.0
N970 N 0.86422 0.95319 0.43478 0.0
N971 N 0.83207 0.96948 0.39379 0.0
H972 H 0.10368 0.87702 0.35276 0.0
H973 H 0.15158 0.9821 0.47491 0.0
H974 H 0.07601 0.89957 0.49746 0.0
H975 H 0.17758 0.95581 0.34835 0.0
H976 H 0.12221 0.95369 0.46315 0.0
H977 H 0.12898 0.90735 0.3281 0.0
C978 C 0.10292 0.88845 0.37894 0.0
C979 C 0.08791 0.88582 0.42846 0.0
C980 C 0.13432 0.95427 0.43687 0.0
C981 C 0.11709 0.92075 0.40178 0.0
C982 C 0.15099 0.97043 0.44329 0.0
C983 C 0.16691 0.97108 0.41343 0.0
C984 C 0.13373 0.93887 0.39975 0.0
C985 C 0.16559 0.95572 0.37313 0.0
C986 C 0.11739 0.90581 0.3648 0.0
C987 C 0.08745 0.9011 0.45939 0.0
N988 N 0.14934 0.94024 0.36803 0.0
N989 N 0.10204 0.91799 0.44683 0.0
H990 H 0.26649 0.17552 0.61333 0.0
H991 H 0.22053 0.07124 0.47462 0.0
H992 H 0.21521 0.14764 0.47862 0.0
H993 H 0.27509 0.10387 0.57292 0.0
H994 H 0.21539 0.09688 0.49934 0.0
H995 H 0.26656 0.14702 0.62594 0.0
C996 C 0.25509 0.16323 0.58768 0.0
C997 C 0.24089 0.16379 0.54447 0.0
C998 C 0.22839 0.09829 0.51622 0.0
C999 C 0.24102 0.13121 0.55638 0.0
C1000 C 0.23132 0.0837 0.50228 0.0
C1001 C 0.24834 0.08555 0.52065 0.0
C1002 C 0.24254 0.11467 0.54954 0.0
C1003 C 0.26185 0.10192 0.55654 0.0
C1004 C 0.25514 0.14699 0.59445 0.0
C1005 C 0.22638 0.14761 0.51238 0.0
N1006 N 0.25868 0.11583 0.56937 0.0
N1007 N 0.22692 0.13192 0.51782 0.0
H1008 H 0.93435 0.11299 0.62598 0.0
H1009 H 0.98645 0.20739 0.40189 0.0
H1010 H 0.92524 0.12073 0.35502 0.0
H1011 H 0.01765 0.19121 0.56259 0.0
H1012 H 0.96145 0.17616 0.40212 0.0
H1013 H 0.96352 0.14166 0.6202 0.0
C1014 C 0.93861 0.12049 0.56497 0.0
C1015 C 0.92713 0.11469 0.49146 0.0
C1016 C 0.97379 0.17942 0.43708 0.0
C1017 C 0.96003 0.14739 0.4854 0.0
C1018 C 0.98799 0.19724 0.43758 0.0
C1019 C 1.00409 0.20183 0.48242 0.0
C1020 C 0.97546 0.16612 0.48349 0.0
C1021 C 1.00543 0.18812 0.52705 0.0
C1022 C 0.95519 0.13682 0.56192 0.0
C1023 C 0.93334 0.12497 0.41414 0.0
N1024 N 0.99113 0.1708 0.52755 0.0
N1025 N 0.94917 0.14097 0.41368 0.0
H1026 H 0.98236 0.87276 0.48614 0.0
H1027 H 0.87553 0.81255 0.57274 0.0
H1028 H 0.95445 0.81688 0.56976 0.0
H1029 H 0.89997 0.86657 0.46442 0.0
H1030 H 0.90546 0.81617 0.59152 0.0
H1031 H 0.95351 0.87289 0.49579 0.0
C1032 C 0.97021 0.86062 0.50746 0.0
C1033 C 0.97066 0.8447 0.52603 0.0
C1034 C 0.9044 0.82733 0.564 0.0
C1035 C 0.93787 0.84475 0.53737 0.0
C1036 C 0.88726 0.82526 0.55321 0.0
C1037 C 0.88524 0.83919 0.5158 0.0
C1038 C 0.91978 0.84339 0.53635 0.0
C1039 C 0.90095 0.85546 0.49313 0.0
C1040 C 0.95378 0.86067 0.51264 0.0
C1041 C 0.95461 0.82933 0.5533 0.0
N1042 N 0.91763 0.85705 0.50275 0.0
N1043 N 0.9389 0.82972 0.55773 0.0
H1044 H 0.88284 0.60789 0.72233 0.0
H1045 H 0.77637 0.54448 0.80311 0.0
H1046 H 0.85947 0.55296 0.81775 0.0
H1047 H 0.80242 0.59995 0.71436 0.0
H1048 H 0.80561 0.54521 0.78985 0.0
H1049 H 0.85257 0.60318 0.69965 0.0
C1050 C 0.87129 0.59477 0.73829 0.0
C1051 C 0.87366 0.58088 0.77326 0.0
C1052 C 0.80483 0.55712 0.77221 0.0
C1053 C 0.83876 0.57539 0.74813 0.0
C1054 C 0.78819 0.55666 0.77944 0.0
C1055 C 0.78719 0.57227 0.76091 0.0
C1056 C 0.82037 0.57326 0.74585 0.0
C1057 C 0.80277 0.58775 0.73053 0.0
C1058 C 0.85395 0.59206 0.72511 0.0
C1059 C 0.85819 0.56407 0.79124 0.0
N1060 N 0.81871 0.58789 0.7246 0.0
N1061 N 0.84132 0.56184 0.77958 0.0
H1062 H 0.48843 0.31511 0.87249 0.0
H1063 H 0.53172 0.26476 0.6543 0.0
H1064 H 0.53693 0.34903 0.72274 0.0
H1065 H 0.51968 0.25875 0.93132 0.0
H1066 H 0.53183 0.29376 0.65686 0.0
H1067 H 0.49605 0.29107 0.87137 0.0
C1068 C 0.50064 0.31745 0.83877 0.0
C1069 C 0.51208 0.33405 0.79754 0.0
C1070 C 0.52957 0.28618 0.7171 0.0
C1071 C 0.52073 0.30652 0.79554 0.0
C1072 C 0.52954 0.26971 0.71589 0.0
C1073 C 0.52522 0.25911 0.79232 0.0
C1074 C 0.52497 0.29175 0.79481 0.0
C1075 C 0.52248 0.26617 0.87028 0.0
C1076 C 0.50503 0.30379 0.83883 0.0
C1077 C 0.52782 0.3364 0.75544 0.0
N1078 N 0.52197 0.28181 0.86909 0.0
N1079 N 0.53163 0.32262 0.75445 0.0
H1080 H 0.74303 0.23266 0.80904 0.0
H1081 H 0.847 0.29004 0.65897 0.0
H1082 H 0.77463 0.21042 0.70064 0.0
H1083 H 0.81989 0.31451 0.79185 0.0
H1084 H 0.81834 0.26155 0.65102 0.0
H1085 H 0.76887 0.26339 0.78332 0.0
C1086 C 0.75528 0.23425 0.77893 0.0
C1087 C 0.75682 0.21901 0.75807 0.0
C1088 C 0.8185 0.27313 0.6813 0.0
C1089 C 0.78615 0.25384 0.72813 0.0
C1090 C 0.83486 0.28939 0.68552 0.0
C1091 C 0.83572 0.30446 0.72671 0.0
C1092 C 0.80287 0.27181 0.7199 0.0
C1093 C 0.81966 0.30307 0.75968 0.0
C1094 C 0.77 0.25174 0.76447 0.0
C1095 C 0.77294 0.22177 0.71909 0.0
N1096 N 0.80385 0.28687 0.75675 0.0
N1097 N 0.78694 0.23878 0.70586 0.0
H1098 H 0.89328 0.48651 0.96148 0.0
H1099 H 0.94074 0.43975 0.72724 0.0
H1100 H 0.91455 0.50108 0.69878 0.0
H1101 H 0.89211 0.40618 0.87677 0.0
H1102 H 0.93425 0.46454 0.73449 0.0
H1103 H 0.89489 0.45848 0.9488 0.0
C1104 C 0.89805 0.48367 0.90094 0.0
C1105 C 0.90377 0.49604 0.83096 0.0
C1106 C 0.92496 0.45173 0.76547 0.0
C1107 C 0.90598 0.46453 0.81705 0.0
C1108 C 0.92871 0.43763 0.76198 0.0
C1109 C 0.91694 0.42094 0.80167 0.0
C1110 C 0.90957 0.44932 0.81076 0.0
C1111 C 0.90146 0.41888 0.8452 0.0
C1112 C 0.89889 0.46773 0.89371 0.0
C1113 C 0.90986 0.49181 0.7539 0.0
N1114 N 0.8983 0.43305 0.84965 0.0
N1115 N 0.91109 0.47656 0.74953 0.0
H1116 H 0.59117 0.45624 0.68722 0.0
H1117 H 0.68419 0.5265 0.90783 0.0
H1118 H 0.60038 0.44801 0.95739 0.0
H1119 H 0.65199 0.54241 0.75327 0.0
H1120 H 0.65863 0.49493 0.90679 0.0
H1121 H 0.61955 0.48514 0.68782 0.0
C1122 C 0.59921 0.46043 0.74657 0.0
C1123 C 0.5931 0.44992 0.82323 0.0
C1124 C 0.65731 0.50544 0.87332 0.0
C1125 C 0.62582 0.48275 0.82312 0.0
C1126 C 0.67179 0.52333 0.87371 0.0
C1127 C 0.67007 0.537 0.83101 0.0
C1128 C 0.64143 0.50131 0.8274 0.0
C1129 C 0.65379 0.53229 0.78767 0.0
C1130 C 0.61541 0.47687 0.74657 0.0
C1131 C 0.6045 0.45574 0.89708 0.0
N1132 N 0.64017 0.5148 0.78624 0.0
N1133 N 0.62032 0.47193 0.89557 0.0
H1134 H 0.64932 0.20718 0.81933 0.0
H1135 H 0.54193 0.14344 0.87486 0.0
H1136 H 0.62215 0.15032 0.88521 0.0
H1137 H 0.56655 0.20008 0.80592 0.0
H1138 H 0.57189 0.14703 0.89194 0.0
H1139 H 0.61994 0.20626 0.82753 0.0
C1140 C 0.63721 0.1946 0.83653 0.0
C1141 C 0.63805 0.17873 0.85032 0.0
C1142 C 0.57085 0.15875 0.87342 0.0
C1143 C 0.60463 0.17755 0.85962 0.0
C1144 C 0.55368 0.15669 0.86347 0.0
C1145 C 0.55171 0.17144 0.83804 0.0
C1146 C 0.58632 0.17567 0.85712 0.0
C1147 C 0.56747 0.18833 0.82527 0.0
C1148 C 0.62049 0.19405 0.84084 0.0
C1149 C 0.62203 0.16277 0.8724 0.0
N1150 N 0.58417 0.18997 0.83417 0.0
N1151 N 0.60602 0.16257 0.87583 0.0
H1152 H 0.52743 0.88545 0.12957 0.0
H1153 H 0.46984 0.93464 0.03908 0.0
H1154 H 0.55014 0.94218 0.0667 0.0
H1155 H 0.44514 0.87922 0.12748 0.0
H1156 H 0.49892 0.93574 0.02708 0.0
H1157 H 0.49686 0.88119 0.11032 0.0
C1158 C 0.526 0.89696 0.11108 0.0
C1159 C 0.54134 0.91424 0.10061 0.0
C1160 C 0.48718 0.92325 0.04852 0.0
C1161 C 0.50658 0.90945 0.07809 0.0
C1162 C 0.47059 0.92263 0.05519 0.0
C1163 C 0.45524 0.9069 0.08531 0.0
C1164 C 0.48853 0.90807 0.07315 0.0
C1165 C 0.45677 0.8916 0.10428 0.0
C1166 C 0.50857 0.89451 0.10016 0.0
C1167 C 0.53872 0.92866 0.07645 0.0
N1168 N 0.47325 0.89263 0.09903 0.0
N1169 N 0.52172 0.92594 0.06638 0.0
H1170 H 0.1496 0.6496 0.04241 0.0
H1171 H 0.21202 0.60587 0.1311 0.0
H1172 H 0.20433 0.68094 0.14045 0.0
H1173 H 0.15728 0.57709 0.03213 0.0
H1174 H 0.21166 0.63453 0.11722 0.0
H1175 H 0.15424 0.624 0.0204 0.0
C1176 C 0.16266 0.6511 0.0591 0.0
C1177 C 0.17652 0.66732 0.09452 0.0
C1178 C 0.19985 0.62196 0.09738 0.0
C1179 C 0.18193 0.63786 0.0702 0.0
C1180 C 0.2001 0.60569 0.10494 0.0
C1181 C 0.18457 0.58922 0.0837 0.0
C1182 C 0.18398 0.62157 0.06809 0.0
C1183 C 0.16942 0.58954 0.05028 0.0
C1184 C 0.16534 0.63646 0.04627 0.0
C1185 C 0.19327 0.66859 0.1135 0.0
N1186 N 0.16946 0.60542 0.04419 0.0
N1187 N 0.19545 0.65392 0.10222 0.0
H1188 H 0.51414 0.61972 0.03987 0.0
H1189 H 0.40724 0.56326 0.13242 0.0
H1190 H 0.48415 0.64504 0.13116 0.0
H1191 H 0.4405 0.54023 0.05909 0.0
H1192 H 0.43387 0.59375 0.11527 0.0
H1193 H 0.48589 0.591 0.02729 0.0
C1194 C 0.5015 0.61918 0.05679 0.0
C1195 C 0.50142 0.63462 0.08775 0.0
C1196 C 0.43522 0.58198 0.10232 0.0
C1197 C 0.46893 0.6017 0.07458 0.0
C1198 C 0.42006 0.56461 0.11196 0.0
C1199 C 0.42172 0.5492 0.09815 0.0
C1200 C 0.45202 0.58382 0.07814 0.0
C1201 C 0.43861 0.55169 0.07159 0.0
C1202 C 0.48535 0.6028 0.04964 0.0
C1203 C 0.48469 0.63334 0.10739 0.0
N1204 N 0.45306 0.56862 0.06288 0.0
N1205 N 0.46906 0.61704 0.10161 0.0
H1206 H 0.55248 0.73775 0.139 0.0
H1207 H 0.5977 0.84206 0.27602 0.0
H1208 H 0.60618 0.77019 0.24729 0.0
H1209 H 0.54712 0.81414 0.13557 0.0
H1210 H 0.59761 0.81353 0.2919 0.0
H1211 H 0.54717 0.76338 0.16037 0.0
C1212 C 0.56302 0.75015 0.16825 0.0
C1213 C 0.57988 0.75198 0.19025 0.0
C1214 C 0.58638 0.81349 0.25837 0.0
C1215 C 0.5739 0.7811 0.21524 0.0
C1216 C 0.58643 0.82976 0.2497 0.0
C1217 C 0.57248 0.83032 0.204 0.0
C1218 C 0.57242 0.79769 0.21972 0.0
C1219 C 0.55811 0.81412 0.17118 0.0
C1220 C 0.56001 0.76475 0.18024 0.0
C1221 C 0.59308 0.76828 0.22807 0.0
N1222 N 0.55856 0.7984 0.17853 0.0
N1223 N 0.58984 0.78219 0.23887 0.0
H1224 H 0.31891 0.88025 0.22797 0.0
H1225 H 0.27461 0.77355 0.14947 0.0
H1226 H 0.35039 0.85625 0.13928 0.0
H1227 H 0.24534 0.80061 0.22583 0.0
H1228 H 0.30327 0.80264 0.16175 0.0
H1229 H 0.29268 0.85021 0.24445 0.0
C1230 C 0.32032 0.8686 0.21214 0.0
C1231 C 0.33681 0.87076 0.1811 0.0
C1232 C 0.29057 0.80212 0.17653 0.0
C1233 C 0.30659 0.83609 0.19921 0.0
C1234 C 0.27428 0.78557 0.16985 0.0
C1235 C 0.25766 0.78484 0.1854 0.0
C1236 C 0.29008 0.81787 0.19959 0.0
C1237 C 0.25787 0.8007 0.21169 0.0
C1238 C 0.3053 0.8514 0.22171 0.0
C1239 C 0.33788 0.85515 0.16298 0.0
N1240 N 0.27377 0.81653 0.21743 0.0
N1241 N 0.32286 0.83841 0.17134 0.0
H1242 H 0.28852 0.48461 0.23419 0.0
H1243 H 0.23147 0.53471 0.15399 0.0
H1244 H 0.31355 0.54042 0.15148 0.0
H1245 H 0.20855 0.47808 0.21972 0.0
H1246 H 0.262 0.53868 0.16991 0.0
H1247 H 0.25959 0.48371 0.24873 0.0
C1248 C 0.28787 0.49673 0.21968 0.0
C1249 C 0.30328 0.51253 0.1905 0.0
C1250 C 0.25026 0.52545 0.18149 0.0
C1251 C 0.27014 0.51161 0.20583 0.0
C1252 C 0.23286 0.52318 0.1725 0.0
C1253 C 0.21746 0.50599 0.18464 0.0
C1254 C 0.25217 0.51045 0.20321 0.0
C1255 C 0.22001 0.49153 0.2087 0.0
C1256 C 0.27136 0.49624 0.22791 0.0
C1257 C 0.30187 0.52797 0.17383 0.0
N1258 N 0.23699 0.49409 0.21677 0.0
N1259 N 0.28546 0.52707 0.1806 0.0
H1260 H 0.06104 0.24155 0.1794 0.0
H1261 H 0.03045 0.27038 0.74396 0.0
H1262 H 0.02442 0.26294 0.17536 0.0
H1263 H 0.06843 0.25064 0.74832 0.0
H1264 H 0.0283 0.268 0.90274 0.0
H1265 H 0.06332 0.24405 0.0206 0.0
C1266 C 0.05336 0.24663 0.14497 0.0
C1267 C 0.04262 0.25217 0.19026 0.0
C1268 C 0.03716 0.26426 0.86902 0.0
C1269 C 0.04531 0.25523 0.00942 0.0
C1270 C 0.03844 0.26567 0.77851 0.0
C1271 C 0.04952 0.26055 0.73335 0.0
C1272 C 0.04699 0.25765 0.91421 0.0
C1273 C 0.05968 0.25466 0.78095 0.0
C1274 C 0.05474 0.24814 0.05446 0.0
C1275 C 0.03291 0.25859 0.14275 0.0
N1276 N 0.05808 0.25326 0.86921 0.0
N1277 N 0.03456 0.26003 0.05454 0.0
H1278 H 0.82637 0.7978 0.17314 0.0
H1279 H 0.83714 0.85673 0.7455 0.0
H1280 H 0.8493 0.85596 0.17449 0.0
H1281 H 0.81433 0.79859 0.74324 0.0
H1282 H 0.84101 0.8566 0.90389 0.0
H1283 H 0.82253 0.79786 0.01457 0.0
C1284 C 0.83085 0.8106 0.13994 0.0
C1285 C 0.83805 0.82688 0.187 0.0
C1286 C 0.83505 0.84386 0.86875 0.0
C1287 C 0.83339 0.82701 0.00641 0.0
C1288 C 0.8327 0.84392 0.77848 0.0
C1289 C 0.82551 0.82767 0.7312 0.0
C1290 C 0.8302 0.82745 0.91171 0.0
C1291 C 0.82002 0.81145 0.77715 0.0
C1292 C 0.82851 0.81061 0.04959 0.0
C1293 C 0.84358 0.84307 0.1408 0.0
N1294 N 0.8226 0.81177 0.86489 0.0
N1295 N 0.84101 0.84271 0.05306 0.0
H1296 H 0.29118 0.06957 0.17479 0.0
H1297 H 0.23223 0.02067 0.74861 0.0
H1298 H 0.23304 0.03381 0.17775 0.0
H1299 H 0.29034 0.05659 0.74496 0.0
H1300 H 0.23237 0.0247 0.90708 0.0
H1301 H 0.29109 0.06557 0.01625 0.0
C1302 C 0.27837 0.06111 0.14194 0.0
C1303 C 0.26211 0.05193 0.18947 0.0
C1304 C 0.24511 0.0316 0.87161 0.0
C1305 C 0.26195 0.04701 0.00888 0.0
C1306 C 0.24505 0.02918 0.78131 0.0
C1307 C 0.26127 0.0384 0.73361 0.0
C1308 C 0.2615 0.04333 0.91418 0.0
C1309 C 0.27749 0.0493 0.77919 0.0
C1310 C 0.27834 0.0587 0.05161 0.0
C1311 C 0.24591 0.04107 0.14369 0.0
N1312 N 0.27717 0.05156 0.86694 0.0
N1313 N 0.24626 0.03882 0.05597 0.0
H1314 H 0.03699 0.84826 0.77204 0.0
H1315 H 0.0633 0.81483 0.20744 0.0
H1316 H 0.07398 0.82737 0.7771 0.0
H1317 H 0.02556 0.83482 0.20123 0.0
H1318 H 0.06698 0.81884 0.04934 0.0
H1319 H 0.03335 0.84424 0.93014 0.0
C1320 C 0.04454 0.84304 0.80661 0.0
C1321 C 0.05573 0.83803 0.76141 0.0
C1322 C 0.05781 0.82224 0.08242 0.0
C1323 C 0.05139 0.83315 0.94204 0.0
C1324 C 0.05558 0.81983 0.17262 0.0
C1325 C 0.04416 0.8246 0.21749 0.0
C1326 C 0.04858 0.82949 0.03689 0.0
C1327 C 0.03451 0.83099 0.16914 0.0
C1328 C 0.04235 0.84064 0.89681 0.0
C1329 C 0.06522 0.83141 0.80945 0.0
N1330 N 0.03704 0.83339 0.08131 0.0
N1331 N 0.06272 0.82902 0.89732 0.0
H1332 H 0.25461 0.22803 0.20054 0.0
H1333 H 0.27151 0.28869 0.77345 0.0
H1334 H 0.2786 0.28633 0.20452 0.0
H1335 H 0.246 0.23023 0.77007 0.0
H1336 H 0.27403 0.2881 0.9324 0.0
H1337 H 0.25224 0.22863 0.04135 0.0
C1338 C 0.25956 0.24095 0.16778 0.0
C1339 C 0.26667 0.25713 0.21539 0.0
C1340 C 0.26781 0.2754 0.8968 0.0
C1341 C 0.2638 0.25791 0.03457 0.0
C1342 C 0.26627 0.27573 0.80627 0.0
C1343 C 0.25866 0.25951 0.75882 0.0
C1344 C 0.26171 0.25873 0.93956 0.0
C1345 C 0.25207 0.24308 0.80429 0.0
C1346 C 0.25809 0.24128 0.07717 0.0
C1347 C 0.27288 0.27352 0.17012 0.0
N1348 N 0.25385 0.24312 0.89234 0.0
N1349 N 0.27121 0.27348 0.08203 0.0
H1350 H 0.85954 0.06593 0.21144 0.0
H1351 H 0.80179 0.01659 0.78339 0.0
H1352 H 0.80163 0.02889 0.21339 0.0
H1353 H 0.85973 0.05345 0.7825 0.0
H1354 H 0.80152 0.02034 0.94188 0.0
H1355 H 0.85972 0.06212 0.05308 0.0
C1356 C 0.84683 0.05721 0.17839 0.0
C1357 C 0.83057 0.04762 0.22559 0.0
C1358 C 0.81431 0.02751 0.907 0.0
C1359 C 0.83073 0.04294 0.04504 0.0
C1360 C 0.81449 0.02525 0.81667 0.0
C1361 C 0.83079 0.03481 0.76973 0.0
C1362 C 0.83053 0.03942 0.95032 0.0
C1363 C 0.84683 0.04589 0.81608 0.0
C1364 C 0.84696 0.05491 0.08812 0.0
C1365 C 0.8145 0.03647 0.17954 0.0
N1366 N 0.84628 0.04799 0.90382 0.0
N1367 N 0.815 0.03434 0.09177 0.0
H1368 H 0.69868 0.60702 0.08838 0.0
H1369 H 0.72538 0.57493 0.52571 0.0
H1370 H 0.7341 0.58424 0.09481 0.0
H1371 H 0.69116 0.59908 0.51961 0.0
H1372 H 0.72811 0.57753 0.36706 0.0
H1373 H 0.69607 0.60454 0.24702 0.0
C1374 C 0.70603 0.60162 0.12337 0.0
C1375 C 0.71651 0.59567 0.07877 0.0
C1376 C 0.71995 0.5822 0.4004 0.0
C1377 C 0.71343 0.59265 0.2596 0.0
C1378 C 0.7183 0.58064 0.49084 0.0
C1379 C 0.70812 0.58693 0.53557 0.0
C1380 C 0.71136 0.59011 0.35477 0.0
C1381 C 0.69918 0.59412 0.48745 0.0
C1382 C 0.70448 0.60015 0.21382 0.0
C1383 C 0.72585 0.58893 0.12697 0.0
N1384 N 0.7011 0.59561 0.39929 0.0
N1385 N 0.72398 0.58748 0.21519 0.0
H1386 H 0.49077 0.13195 0.50819 0.0
H1387 H 0.50599 0.19147 0.07834 0.0
H1388 H 0.51613 0.1904 0.50821 0.0
H1389 H 0.48112 0.13307 0.07772 0.0
H1390 H 0.50911 0.19128 0.23714 0.0
H1391 H 0.48764 0.13211 0.3494 0.0
C1392 C 0.49588 0.14482 0.47466 0.0
C1393 C 0.50359 0.16117 0.52123 0.0
C1394 C 0.50289 0.17851 0.20221 0.0
C1395 C 0.49981 0.16143 0.34056 0.0
C1396 C 0.50099 0.1786 0.11177 0.0
C1397 C 0.49343 0.16228 0.06506 0.0
C1398 C 0.49719 0.16198 0.2457 0.0
C1399 C 0.48716 0.14598 0.11133 0.0
C1400 C 0.49397 0.14489 0.3842 0.0
C1401 C 0.50998 0.17746 0.47476 0.0
N1402 N 0.48929 0.14626 0.19927 0.0
N1403 N 0.50784 0.17717 0.38684 0.0
H1404 H 0.95936 0.3921 0.04903 0.0
H1405 H 0.90085 0.36754 0.48814 0.0
H1406 H 0.90117 0.35674 0.05818 0.0
H1407 H 0.95915 0.4022 0.47962 0.0
H1408 H 0.90064 0.36406 0.32988 0.0
H1409 H 0.9596 0.39553 0.20735 0.0
C1410 C 0.94664 0.38489 0.08456 0.0
C1411 C 0.93018 0.37422 0.04061 0.0
C1412 C 0.91347 0.3725 0.36253 0.0
C1413 C 0.93036 0.37829 0.22129 0.0
C1414 C 0.9136 0.37459 0.45279 0.0
C1415 C 0.93007 0.38508 0.49694 0.0
C1416 C 0.92993 0.38095 0.31628 0.0
C1417 C 0.94615 0.39397 0.44803 0.0
C1418 C 0.94679 0.38694 0.17485 0.0
C1419 C 0.91414 0.36512 0.08967 0.0
N1420 N 0.94569 0.39159 0.36007 0.0
N1421 N 0.91462 0.36748 0.17766 0.0
H1422 H 0.70356 0.18158 0.10041 0.0
H1423 H 0.73053 0.14838 0.5346 0.0
H1424 H 0.74114 0.16139 0.10458 0.0
H1425 H 0.69294 0.16856 0.52991 0.0
H1426 H 0.73405 0.15239 0.37638 0.0
H1427 H 0.70008 0.17757 0.25856 0.0
C1428 C 0.71127 0.17651 0.13479 0.0
C1429 C 0.72258 0.17169 0.08934 0.0
C1430 C 0.72495 0.15584 0.40986 0.0
C1431 C 0.71842 0.1668 0.26996 0.0
C1432 C 0.72283 0.15344 0.50009 0.0
C1433 C 0.71151 0.15827 0.54539 0.0
C1434 C 0.71572 0.16315 0.36479 0.0
C1435 C 0.70183 0.1647 0.49749 0.0
C1436 C 0.70917 0.17411 0.225 0.0
C1437 C 0.73227 0.16526 0.13712 0.0
N1438 N 0.70427 0.16708 0.40964 0.0
N1439 N 0.72986 0.16287 0.225 0.0
H1440 H 0.93213 0.62129 0.11831 0.0
H1441 H 0.92113 0.56227 0.54608 0.0
H1442 H 0.909 0.56311 0.11669 0.0
H1443 H 0.94457 0.62049 0.54765 0.0
H1444 H 0.91722 0.56238 0.38762 0.0
H1445 H 0.93607 0.6212 0.27677 0.0
C1446 C 0.92762 0.60847 0.15143 0.0
C1447 C 0.92032 0.5922 0.1043 0.0
C1448 C 0.92333 0.57514 0.42263 0.0
C1449 C 0.9251 0.59203 0.28482 0.0
C1450 C 0.92571 0.5751 0.51292 0.0
C1451 C 0.93308 0.59138 0.56002 0.0
C1452 C 0.92834 0.59157 0.3795 0.0
C1453 C 0.93872 0.6076 0.51388 0.0
C1454 C 0.93003 0.60844 0.24173 0.0
C1455 C 0.91478 0.57599 0.15043 0.0
N1456 N 0.93612 0.60727 0.42617 0.0
N1457 N 0.9174 0.57634 0.23813 0.0
H1458 H 0.5274 0.38814 0.11173 0.0
H1459 H 0.46798 0.36044 0.54881 0.0
H1460 H 0.46953 0.35091 0.11833 0.0
H1461 H 0.52572 0.39819 0.54157 0.0
H1462 H 0.46819 0.3572 0.39043 0.0
H1463 H 0.52716 0.39138 0.27006 0.0
C1464 C 0.51467 0.38049 0.14665 0.0
C1465 C 0.49843 0.36934 0.10196 0.0
C1466 C 0.48079 0.36627 0.4234 0.0
C1467 C 0.49803 0.37319 0.28261 0.0
C1468 C 0.48067 0.36821 0.51371 0.0
C1469 C 0.4969 0.3795 0.55819 0.0
C1470 C 0.49726 0.37566 0.37755 0.0
C1471 C 0.51293 0.38931 0.50967 0.0
C1472 C 0.51453 0.38243 0.23695 0.0
C1473 C 0.48235 0.35968 0.15033 0.0
N1474 N 0.51272 0.38705 0.42172 0.0
N1475 N 0.48254 0.36193 0.23829 0.0
H1476 H 0.40219 0.91776 0.41899 0.0
H1477 H 0.35648 0.93092 0.84927 0.0
H1478 H 0.36715 0.94098 0.41882 0.0
H1479 H 0.39127 0.90742 0.84922 0.0
H1480 H 0.35971 0.93414 0.69045 0.0
H1481 H 0.39896 0.91454 0.57784 0.0
C1482 C 0.39401 0.92239 0.45252 0.0
C1483 C 0.38481 0.92951 0.40592 0.0
C1484 C 0.36655 0.9282 0.72524 0.0
C1485 C 0.38084 0.92563 0.58664 0.0
C1486 C 0.3646 0.92623 0.81571 0.0
C1487 C 0.37373 0.91902 0.86227 0.0
C1488 C 0.37771 0.92292 0.68154 0.0
C1489 C 0.38409 0.91317 0.81577 0.0
C1490 C 0.39206 0.92043 0.543 0.0
C1491 C 0.37438 0.9353 0.45234 0.0
N1492 N 0.3859 0.91536 0.72781 0.0
N1493 N 0.37259 0.93312 0.54031 0.0
H1494 H 0.15582 0.46481 0.85367 0.0
H1495 H 0.17174 0.52511 0.42561 0.0
H1496 H 0.18192 0.5233 0.85549 0.0
H1497 H 0.14606 0.46665 0.42344 0.0
H1498 H 0.1749 0.52468 0.58442 0.0
H1499 H 0.15269 0.46523 0.69487 0.0
C1500 C 0.16111 0.47774 0.82053 0.0
C1501 C 0.16901 0.49403 0.86763 0.0
C1502 C 0.16849 0.51195 0.54914 0.0
C1503 C 0.16522 0.4946 0.68696 0.0
C1504 C 0.16655 0.51218 0.45871 0.0
C1505 C 0.15876 0.49591 0.41153 0.0
C1506 C 0.16258 0.49533 0.59215 0.0
C1507 C 0.15228 0.47953 0.45739 0.0
C1508 C 0.15919 0.47797 0.73007 0.0
C1509 C 0.17561 0.51041 0.82164 0.0
N1510 N 0.15445 0.47967 0.54527 0.0
N1511 N 0.17345 0.51026 0.73375 0.0
H1512 H 0.62284 0.7374 0.8473 0.0
H1513 H 0.56571 0.68713 0.4193 0.0
H1514 H 0.56522 0.69911 0.84858 0.0
H1515 H 0.62333 0.72544 0.41742 0.0
H1516 H 0.56542 0.69078 0.57776 0.0
H1517 H 0.62319 0.73378 0.68876 0.0
C1518 C 0.61023 0.72845 0.81409 0.0
C1519 C 0.59401 0.71846 0.8611 0.0
C1520 C 0.57815 0.6983 0.54269 0.0
C1521 C 0.59436 0.714 0.68052 0.0
C1522 C 0.57834 0.6961 0.45238 0.0
C1523 C 0.59454 0.70609 0.4052 0.0
C1524 C 0.59426 0.71057 0.58579 0.0
C1525 C 0.61051 0.71755 0.45126 0.0
C1526 C 0.61046 0.72626 0.72375 0.0
C1527 C 0.57806 0.707 0.81489 0.0
N1528 N 0.60994 0.71958 0.53906 0.0
N1529 N 0.57867 0.70499 0.72712 0.0
H1530 H 0.3916 0.4779 0.86163 0.0
H1531 H 0.36761 0.51329 0.42656 0.0
H1532 H 0.35768 0.50237 0.85681 0.0
H1533 H 0.40118 0.48843 0.4311 0.0
H1534 H 0.36443 0.51006 0.58496 0.0
H1535 H 0.39478 0.48113 0.70321 0.0
C1536 C 0.38466 0.48378 0.82704 0.0
C1537 C 0.37447 0.49002 0.87219 0.0
C1538 C 0.37257 0.5054 0.5514 0.0
C1539 C 0.37826 0.49395 0.6915 0.0
C1540 C 0.37448 0.50733 0.46106 0.0
C1541 C 0.38457 0.50098 0.41581 0.0
C1542 C 0.38078 0.49705 0.59652 0.0
C1543 C 0.39325 0.49346 0.4636 0.0
C1544 C 0.38657 0.48571 0.73671 0.0
C1545 C 0.36569 0.49743 0.82435 0.0
N1546 N 0.39104 0.49158 0.55164 0.0
N1547 N 0.3679 0.49931 0.73631 0.0
H1548 H 0.58747 0.8951 0.86147 0.0
H1549 H 0.60239 0.95492 0.43281 0.0
H1550 H 0.61228 0.95348 0.86298 0.0
H1551 H 0.57719 0.89649 0.43148 0.0
H1552 H 0.6056 0.95463 0.59156 0.0
H1553 H 0.58431 0.89538 0.70263 0.0
C1554 C 0.59246 0.90798 0.82823 0.0
C1555 C 0.60001 0.92427 0.87522 0.0
C1556 C 0.59928 0.94187 0.55648 0.0
C1557 C 0.59619 0.92469 0.69457 0.0
C1558 C 0.59732 0.94203 0.46605 0.0
C1559 C 0.58964 0.92573 0.4191 0.0
C1560 C 0.59352 0.92531 0.59974 0.0
C1561 C 0.58331 0.9094 0.46522 0.0
C1562 C 0.59053 0.90813 0.73777 0.0
C1563 C 0.60625 0.94059 0.82917 0.0
N1564 N 0.5855 0.90962 0.55311 0.0
N1565 N 0.60409 0.94037 0.74127 0.0
H1566 H 0.19403 0.72066 0.43249 0.0
H1567 H 0.13388 0.69609 0.86657 0.0
H1568 H 0.13574 0.68578 0.4366 0.0
H1569 H 0.19214 0.73113 0.86219 0.0
H1570 H 0.13422 0.69271 0.7083 0.0
H1571 H 0.19366 0.72407 0.5907 0.0
C1572 C 0.18117 0.71353 0.46686 0.0
C1573 C 0.16486 0.70301 0.42143 0.0
C1574 C 0.14692 0.70122 0.74186 0.0
C1575 C 0.16434 0.70709 0.60202 0.0
C1576 C 0.14673 0.70326 0.83212 0.0
C1577 C 0.16304 0.71381 0.87747 0.0
C1578 C 0.16354 0.70977 0.69686 0.0
C1579 C 0.17927 0.72284 0.82968 0.0
C1580 C 0.18096 0.71559 0.55709 0.0
C1581 C 0.14862 0.69404 0.46915 0.0
N1582 N 0.17912 0.7205 0.74178 0.0
N1583 N 0.14876 0.6964 0.55704 0.0
loop_
_geom_bond_atom_site_label_1
_geom_bond_atom_site_label_2
_geom_bond_distance
_geom_bond_site_symmetry_2
_ccdc_geom_bond_type
C0 O16 1.251 . S
C0 O18 1.254 . S
N1 C2 1.333 . S
N1 C6 1.307 . S
N1 Zn7 2.020 . S
C2 N1 1.333 . S
C2 C3 1.379 . S
C2 H20 0.952 . S
C3 C2 1.379 . S
C3 C4 1.390 . S
C3 H30 0.949 . S
C4 C3 1.390 . S
C4 C5 1.357 . S
C5 C4 1.357 . S
C5 C6 1.370 . S
C5 H31 0.950 . S
C6 N1 1.307 . S
C6 C5 1.370 . S
C6 H24 0.948 . S
Zn7 N1 2.020 . S
Zn7 O16 2.039 . S
Zn7 O22 2.034 . S
Zn7 O26 2.025 . S
Zn7 O28 2.024 . S
C8 O27 1.246 . S
C8 O28 1.249 . S
N9 C10 1.307 1_455 S
N9 C11 1.333 . S
N9 Zn15 2.020 . S
C10 N9 1.307 1_655 S
C10 C14 1.370 . S
C10 H21 0.948 . S
C11 N9 1.333 . S
C11 C12 1.379 1_455 S
C11 H19 0.952 . S
C12 C11 1.379 1_655 S
C12 C13 1.390 . S
C12 H32 0.949 . S
C13 C12 1.390 . S
C13 C14 1.357 . S
C14 C10 1.370 . S
C14 C13 1.357 . S
C14 H33 0.950 . S
Zn15 N9 2.020 . S
Zn15 O18 2.025 . S
Zn15 O23 2.024 . S
Zn15 O25 2.039 . S
Zn15 O27 2.034 . S
O16 C0 1.251 . S
O16 Zn7 2.039 . S
C17 O22 1.246 . S
C17 O23 1.249 . S
O18 C0 1.254 . S
O18 Zn15 2.025 . S
H19 C11 0.952 . S
H20 C2 0.952 . S
H21 C10 0.948 . S
O22 Zn7 2.034 . S
O22 C17 1.246 . S
O23 Zn15 2.024 . S
O23 C17 1.249 . S
H24 C6 0.948 . S
O25 Zn15 2.039 . S
O25 C29 1.251 . S
O26 Zn7 2.025 . S
O26 C29 1.254 . S
O27 C8 1.246 . S
O27 Zn15 2.034 . S
O28 Zn7 2.024 . S
O28 C8 1.249 . S
C29 O25 1.251 . S
C29 O26 1.254 . S
H30 C3 0.949 . S
H31 C5 0.950 . S
H32 C12 0.949 . S
H33 C14 0.950 . S
C34 O50 1.251 . S
C34 O52 1.254 . S
N35 C36 1.333 . S
N35 C40 1.307 . S
N35 Zn41 2.020 . S
C36 N35 1.333 . S
C36 C37 1.379 . S
C36 H54 0.952 . S
C37 C36 1.379 . S
C37 C38 1.390 . S
C37 H64 0.949 . S
C38 C37 1.390 . S
C38 C39 1.357 . S
C39 C38 1.357 . S
C39 C40 1.370 . S
C39 H65 0.950 . S
C40 N35 1.307 . S
C40 C39 1.370 . S
C40 H58 0.948 . S
Zn41 N35 2.020 . S
Zn41 O50 2.039 . S
Zn41 O56 2.034 . S
Zn41 O60 2.025 . S
Zn41 O62 2.024 . S
C42 O61 1.246 . S
C42 O62 1.249 . S
N43 C44 1.307 . S
N43 C45 1.333 . S
N43 Zn49 2.020 . S
C44 N43 1.307 . S
C44 C48 1.370 . S
C44 H55 0.948 . S
C45 N43 1.333 . S
C45 C46 1.379 . S
C45 H53 0.952 . S
C46 C45 1.379 . S
C46 C47 1.390 . S
C46 H66 0.949 . S
C47 C46 1.390 . S
C47 C48 1.357 . S
C48 C44 1.370 . S
C48 C47 1.357 . S
C48 H67 0.950 . S
Zn49 N43 2.020 . S
Zn49 O52 2.025 . S
Zn49 O57 2.024 . S
Zn49 O59 2.039 . S
Zn49 O61 2.034 . S
O50 C34 1.251 . S
O50 Zn41 2.039 . S
C51 O56 1.246 . S
C51 O57 1.249 . S
O52 C34 1.254 . S
O52 Zn49 2.025 . S
H53 C45 0.952 . S
H54 C36 0.952 . S
H55 C44 0.948 . S
O56 Zn41 2.034 . S
O56 C51 1.246 . S
O57 Zn49 2.024 . S
O57 C51 1.249 . S
H58 C40 0.948 . S
O59 Zn49 2.039 . S
O59 C63 1.251 . S
O60 Zn41 2.025 . S
O60 C63 1.254 . S
O61 C42 1.246 . S
O61 Zn49 2.034 . S
O62 Zn41 2.024 . S
O62 C42 1.249 . S
C63 O59 1.251 . S
C63 O60 1.254 . S
H64 C37 0.949 . S
H65 C39 0.950 . S
H66 C46 0.949 . S
H67 C48 0.950 . S
C68 O84 1.251 . S
C68 O86 1.254 . S
N69 C70 1.333 . S
N69 C74 1.307 1_545 S
N69 Zn75 2.020 . S
C70 N69 1.333 . S
C70 C71 1.379 1_545 S
C70 H88 0.952 . S
C71 C70 1.379 1_565 S
C71 C72 1.390 . S
C71 H98 0.949 . S
C72 C71 1.390 . S
C72 C73 1.357 . S
C73 C72 1.357 . S
C73 C74 1.370 . S
C73 H99 0.950 . S
C74 N69 1.307 1_565 S
C74 C73 1.370 . S
C74 H92 0.948 . S
Zn75 N69 2.020 . S
Zn75 O84 2.039 . S
Zn75 O90 2.034 . S
Zn75 O94 2.025 . S
Zn75 O96 2.024 . S
C76 O95 1.246 . S
C76 O96 1.249 . S
N77 C78 1.307 . S
N77 C79 1.333 . S
N77 Zn83 2.020 . S
C78 N77 1.307 . S
C78 C82 1.370 . S
C78 H89 0.948 . S
C79 N77 1.333 . S
C79 C80 1.379 . S
C79 H87 0.952 . S
C80 C79 1.379 . S
C80 C81 1.390 . S
C80 H100 0.949 . S
C81 C80 1.390 . S
C81 C82 1.357 . S
C82 C78 1.370 . S
C82 C81 1.357 . S
C82 H101 0.950 . S
Zn83 N77 2.020 . S
Zn83 O86 2.025 . S
Zn83 O91 2.024 . S
Zn83 O93 2.039 . S
Zn83 O95 2.034 . S
O84 C68 1.251 . S
O84 Zn75 2.039 . S
C85 O90 1.246 . S
C85 O91 1.249 . S
O86 C68 1.254 . S
O86 Zn83 2.025 . S
H87 C79 0.952 . S
H88 C70 0.952 . S
H89 C78 0.948 . S
O90 Zn75 2.034 . S
O90 C85 1.246 . S
O91 Zn83 2.024 . S
O91 C85 1.249 . S
H92 C74 0.948 . S
O93 Zn83 2.039 . S
O93 C97 1.251 . S
O94 Zn75 2.025 . S
O94 C97 1.254 . S
O95 C76 1.246 . S
O95 Zn83 2.034 . S
O96 Zn75 2.024 . S
O96 C76 1.249 . S
C97 O93 1.251 . S
C97 O94 1.254 . S
H98 C71 0.949 . S
H99 C73 0.950 . S
H100 C80 0.949 . S
H101 C82 0.950 . S
C102 O118 1.251 . S
C102 O120 1.254 . S
N103 C104 1.333 . S
N103 C108 1.307 . S
N103 Zn109 2.020 . S
C104 N103 1.333 . S
C104 C105 1.379 . S
C104 H122 0.952 . S
C105 C104 1.379 . S
C105 C106 1.390 . S
C105 H132 0.949 . S
C106 C105 1.390 . S
C106 C107 1.357 . S
C107 C106 1.357 . S
C107 C108 1.370 . S
C107 H133 0.950 . S
C108 N103 1.307 . S
C108 C107 1.370 . S
C108 H126 0.948 . S
Zn109 N103 2.020 . S
Zn109 O118 2.039 . S
Zn109 O124 2.034 . S
Zn109 O128 2.025 . S
Zn109 O130 2.024 . S
C110 O129 1.246 . S
C110 O130 1.249 . S
N111 C112 1.307 1_455 S
N111 C113 1.333 . S
N111 Zn117 2.020 . S
C112 N111 1.307 1_655 S
C112 C116 1.370 . S
C112 H123 0.948 . S
C113 N111 1.333 . S
C113 C114 1.379 1_455 S
C113 H121 0.952 . S
C114 C113 1.379 1_655 S
C114 C115 1.390 . S
C114 H134 0.949 . S
C115 C114 1.390 . S
C115 C116 1.357 . S
C116 C112 1.370 . S
C116 C115 1.357 . S
C116 H135 0.950 . S
Zn117 N111 2.020 . S
Zn117 O120 2.025 . S
Zn117 O125 2.024 . S
Zn117 O127 2.039 . S
Zn117 O129 2.034 . S
O118 C102 1.251 . S
O118 Zn109 2.039 . S
C119 O124 1.246 . S
C119 O125 1.249 . S
O120 C102 1.254 . S
O120 Zn117 2.025 . S
H121 C113 0.952 . S
H122 C104 0.952 . S
H123 C112 0.948 . S
O124 Zn109 2.034 . S
O124 C119 1.246 . S
O125 Zn117 2.024 . S
O125 C119 1.249 . S
H126 C108 0.948 . S
O127 Zn117 2.039 . S
O127 C131 1.251 . S
O128 Zn109 2.025 . S
O128 C131 1.254 . S
O129 C110 1.246 . S
O129 Zn117 2.034 . S
O130 Zn109 2.024 . S
O130 C110 1.249 . S
C131 O127 1.251 . S
C131 O128 1.254 . S
H132 C105 0.949 . S
H133 C107 0.950 . S
H134 C114 0.949 . S
H135 C116 0.950 . S
C136 O152 1.251 . S
C136 O154 1.254 . S
N137 C138 1.333 . S
N137 C142 1.307 . S
N137 Zn143 2.020 . S
C138 N137 1.333 . S
C138 C139 1.379 . S
C138 H156 0.952 . S
C139 C138 1.379 . S
C139 C140 1.390 . S
C139 H166 0.949 . S
C140 C139 1.390 . S
C140 C141 1.357 . S
C141 C140 1.357 . S
C141 C142 1.370 . S
C141 H167 0.950 . S
C142 N137 1.307 . S
C142 C141 1.370 . S
C142 H160 0.948 . S
Zn143 N137 2.020 . S
Zn143 O152 2.039 . S
Zn143 O158 2.034 . S
Zn143 O162 2.025 . S
Zn143 O164 2.024 . S
C144 O163 1.246 . S
C144 O164 1.249 . S
N145 C146 1.307 . S
N145 C147 1.333 . S
N145 Zn151 2.020 . S
C146 N145 1.307 . S
C146 C150 1.370 . S
C146 H157 0.948 . S
C147 N145 1.333 . S
C147 C148 1.379 . S
C147 H155 0.952 . S
C148 C147 1.379 . S
C148 C149 1.390 . S
C148 H168 0.949 . S
C149 C148 1.390 . S
C149 C150 1.357 . S
C150 C146 1.370 . S
C150 C149 1.357 . S
C150 H169 0.950 . S
Zn151 N145 2.020 . S
Zn151 O154 2.025 . S
Zn151 O159 2.024 . S
Zn151 O161 2.039 . S
Zn151 O163 2.034 . S
O152 C136 1.251 . S
O152 Zn143 2.039 . S
C153 O158 1.246 . S
C153 O159 1.249 . S
O154 C136 1.254 . S
O154 Zn151 2.025 . S
H155 C147 0.952 . S
H156 C138 0.952 . S
H157 C146 0.948 . S
O158 Zn143 2.034 . S
O158 C153 1.246 . S
O159 Zn151 2.024 . S
O159 C153 1.249 . S
H160 C142 0.948 . S
O161 Zn151 2.039 . S
O161 C165 1.251 . S
O162 Zn143 2.025 . S
O162 C165 1.254 . S
O163 C144 1.246 . S
O163 Zn151 2.034 . S
O164 Zn143 2.024 . S
O164 C144 1.249 . S
C165 O161 1.251 . S
C165 O162 1.254 . S
H166 C139 0.949 . S
H167 C141 0.950 . S
H168 C148 0.949 . S
H169 C150 0.950 . S
C170 O186 1.251 . S
C170 O188 1.254 . S
N171 C172 1.333 . S
N171 C176 1.307 1_545 S
N171 Zn177 2.020 . S
C172 N171 1.333 . S
C172 C173 1.379 1_545 S
C172 H190 0.952 . S
C173 C172 1.379 1_565 S
C173 C174 1.390 . S
C173 H200 0.949 . S
C174 C173 1.390 . S
C174 C175 1.357 . S
C175 C174 1.357 . S
C175 C176 1.370 . S
C175 H201 0.950 . S
C176 N171 1.307 1_565 S
C176 C175 1.370 . S
C176 H194 0.948 . S
Zn177 N171 2.020 . S
Zn177 O186 2.039 . S
Zn177 O192 2.034 . S
Zn177 O196 2.025 . S
Zn177 O198 2.024 . S
C178 O197 1.246 . S
C178 O198 1.249 . S
N179 C180 1.307 . S
N179 C181 1.333 . S
N179 Zn185 2.020 . S
C180 N179 1.307 . S
C180 C184 1.370 . S
C180 H191 0.948 . S
C181 N179 1.333 . S
C181 C182 1.379 . S
C181 H189 0.952 . S
C182 C181 1.379 . S
C182 C183 1.390 . S
C182 H202 0.949 . S
C183 C182 1.390 . S
C183 C184 1.357 . S
C184 C180 1.370 . S
C184 C183 1.357 . S
C184 H203 0.950 . S
Zn185 N179 2.020 . S
Zn185 O188 2.025 . S
Zn185 O193 2.024 . S
Zn185 O195 2.039 . S
Zn185 O197 2.034 . S
O186 C170 1.251 . S
O186 Zn177 2.039 . S
C187 O192 1.246 . S
C187 O193 1.249 . S
O188 C170 1.254 . S
O188 Zn185 2.025 . S
H189 C181 0.952 . S
H190 C172 0.952 . S
H191 C180 0.948 . S
O192 Zn177 2.034 . S
O192 C187 1.246 . S
O193 Zn185 2.024 . S
O193 C187 1.249 . S
H194 C176 0.948 . S
O195 Zn185 2.039 . S
O195 C199 1.251 . S
O196 Zn177 2.025 . S
O196 C199 1.254 . S
O197 C178 1.246 . S
O197 Zn185 2.034 . S
O198 Zn177 2.024 . S
O198 C178 1.249 . S
C199 O195 1.251 . S
C199 O196 1.254 . S
H200 C173 0.949 . S
H201 C175 0.950 . S
H202 C182 0.949 . S
H203 C184 0.950 . S
C204 O220 1.251 . S
C204 O222 1.254 . S
N205 C206 1.333 . S
N205 C210 1.307 . S
N205 Zn211 2.020 . S
C206 N205 1.333 . S
C206 C207 1.379 . S
C206 H224 0.952 . S
C207 C206 1.379 . S
C207 C208 1.390 . S
C207 H234 0.949 . S
C208 C207 1.390 . S
C208 C209 1.357 . S
C209 C208 1.357 . S
C209 C210 1.370 . S
C209 H235 0.950 . S
C210 N205 1.307 . S
C210 C209 1.370 . S
C210 H228 0.948 . S
Zn211 N205 2.020 . S
Zn211 O220 2.039 . S
Zn211 O226 2.034 . S
Zn211 O230 2.025 . S
Zn211 O232 2.024 . S
C212 O231 1.246 . S
C212 O232 1.249 . S
N213 C214 1.307 . S
N213 C215 1.333 . S
N213 Zn219 2.020 . S
C214 N213 1.307 . S
C214 C218 1.370 . S
C214 H225 0.948 . S
C215 N213 1.333 . S
C215 C216 1.379 . S
C215 H223 0.952 . S
C216 C215 1.379 . S
C216 C217 1.390 . S
C216 H236 0.949 . S
C217 C216 1.390 . S
C217 C218 1.357 . S
C218 C214 1.370 . S
C218 C217 1.357 . S
C218 H237 0.950 . S
Zn219 N213 2.020 . S
Zn219 O222 2.025 . S
Zn219 O227 2.024 . S
Zn219 O229 2.039 . S
Zn219 O231 2.034 . S
O220 C204 1.251 . S
O220 Zn211 2.039 . S
C221 O226 1.246 . S
C221 O227 1.249 . S
O222 C204 1.254 . S
O222 Zn219 2.025 . S
H223 C215 0.952 . S
H224 C206 0.952 . S
H225 C214 0.948 . S
O226 Zn211 2.034 . S
O226 C221 1.246 . S
O227 Zn219 2.024 . S
O227 C221 1.249 . S
H228 C210 0.948 . S
O229 Zn219 2.039 . S
O229 C233 1.251 . S
O230 Zn211 2.025 . S
O230 C233 1.254 . S
O231 C212 1.246 . S
O231 Zn219 2.034 . S
O232 Zn211 2.024 . S
O232 C212 1.249 . S
C233 O229 1.251 . S
C233 O230 1.254 . S
H234 C207 0.949 . S
H235 C209 0.950 . S
H236 C216 0.949 . S
H237 C218 0.950 . S
C238 O254 1.251 . S
C238 O256 1.254 . S
N239 C240 1.333 . S
N239 C244 1.307 . S
N239 Zn245 2.020 . S
C240 N239 1.333 . S
C240 C241 1.379 . S
C240 H258 0.952 . S
C241 C240 1.379 . S
C241 C242 1.390 . S
C241 H268 0.949 . S
C242 C241 1.390 . S
C242 C243 1.357 . S
C243 C242 1.357 . S
C243 C244 1.370 . S
C243 H269 0.950 . S
C244 N239 1.307 . S
C244 C243 1.370 . S
C244 H262 0.948 . S
Zn245 N239 2.020 . S
Zn245 O254 2.039 . S
Zn245 O260 2.034 . S
Zn245 O264 2.025 . S
Zn245 O266 2.024 . S
C246 O265 1.246 . S
C246 O266 1.249 . S
N247 C248 1.307 . S
N247 C249 1.333 . S
N247 Zn253 2.020 . S
C248 N247 1.307 . S
C248 C252 1.370 . S
C248 H259 0.948 . S
C249 N247 1.333 . S
C249 C250 1.379 . S
C249 H257 0.952 . S
C250 C249 1.379 . S
C250 C251 1.390 . S
C250 H270 0.949 . S
C251 C250 1.390 . S
C251 C252 1.357 . S
C252 C248 1.370 . S
C252 C251 1.357 . S
C252 H271 0.950 . S
Zn253 N247 2.020 . S
Zn253 O256 2.025 . S
Zn253 O261 2.024 . S
Zn253 O263 2.039 . S
Zn253 O265 2.034 . S
O254 C238 1.251 . S
O254 Zn245 2.039 . S
C255 O260 1.246 . S
C255 O261 1.249 . S
O256 C238 1.254 . S
O256 Zn253 2.025 . S
H257 C249 0.952 . S
H258 C240 0.952 . S
H259 C248 0.948 . S
O260 Zn245 2.034 . S
O260 C255 1.246 . S
O261 Zn253 2.024 . S
O261 C255 1.249 . S
H262 C244 0.948 . S
O263 Zn253 2.039 . S
O263 C267 1.251 . S
O264 Zn245 2.025 . S
O264 C267 1.254 . S
O265 C246 1.246 . S
O265 Zn253 2.034 . S
O266 Zn245 2.024 . S
O266 C246 1.249 . S
C267 O263 1.251 . S
C267 O264 1.254 . S
H268 C241 0.949 . S
H269 C243 0.950 . S
H270 C250 0.949 . S
H271 C252 0.950 . S
C272 O288 1.251 . S
C272 O290 1.254 . S
N273 C274 1.333 . S
N273 C278 1.307 . S
N273 Zn279 2.020 . S
C274 N273 1.333 . S
C274 C275 1.379 . S
C274 H292 0.952 . S
C275 C274 1.379 . S
C275 C276 1.390 . S
C275 H302 0.949 . S
C276 C275 1.390 . S
C276 C277 1.357 . S
C277 C276 1.357 . S
C277 C278 1.370 . S
C277 H303 0.950 . S
C278 N273 1.307 . S
C278 C277 1.370 . S
C278 H296 0.948 . S
Zn279 N273 2.020 . S
Zn279 O288 2.039 . S
Zn279 O294 2.034 . S
Zn279 O298 2.025 . S
Zn279 O300 2.024 . S
C280 O299 1.246 . S
C280 O300 1.249 . S
N281 C282 1.307 . S
N281 C283 1.333 . S
N281 Zn287 2.020 . S
C282 N281 1.307 . S
C282 C286 1.370 . S
C282 H293 0.948 . S
C283 N281 1.333 . S
C283 C284 1.379 . S
C283 H291 0.952 . S
C284 C283 1.379 . S
C284 C285 1.385 1_655 S
C284 H304 0.949 . S
C285 C284 1.385 1_455 S
C285 C286 1.339 1_455 S
C286 C282 1.370 . S
C286 C285 1.339 1_655 S
C286 H305 0.950 . S
Zn287 N281 2.020 . S
Zn287 O290 2.025 . S
Zn287 O295 2.024 . S
Zn287 O297 2.039 . S
Zn287 O299 2.034 . S
O288 C272 1.251 . S
O288 Zn279 2.039 . S
C289 O294 1.246 . S
C289 O295 1.249 . S
O290 C272 1.254 . S
O290 Zn287 2.025 . S
H291 C283 0.952 . S
H292 C274 0.952 . S
H293 C282 0.948 . S
O294 Zn279 2.034 . S
O294 C289 1.246 . S
O295 Zn287 2.024 . S
O295 C289 1.249 . S
H296 C278 0.948 . S
O297 Zn287 2.039 . S
O297 C301 1.251 . S
O298 Zn279 2.025 . S
O298 C301 1.254 . S
O299 C280 1.246 . S
O299 Zn287 2.034 . S
O300 Zn279 2.024 . S
O300 C280 1.249 . S
C301 O297 1.251 . S
C301 O298 1.254 . S
H302 C275 0.949 . S
H303 C277 0.950 . S
H304 C284 0.949 . S
H305 C286 0.950 . S
C306 O322 1.251 . S
C306 O324 1.254 . S
N307 C308 1.333 . S
N307 C312 1.307 . S
N307 Zn313 2.020 . S
C308 N307 1.333 . S
C308 C309 1.379 . S
C308 H326 0.952 . S
C309 C308 1.379 . S
C309 C310 1.390 . S
C309 H336 0.949 . S
C310 C309 1.390 . S
C310 C311 1.357 . S
C311 C310 1.357 . S
C311 C312 1.370 . S
C311 H337 0.950 . S
C312 N307 1.307 . S
C312 C311 1.370 . S
C312 H330 0.948 . S
Zn313 N307 2.020 . S
Zn313 O322 2.039 . S
Zn313 O328 2.034 . S
Zn313 O332 2.025 . S
Zn313 O334 2.024 . S
C314 O333 1.246 . S
C314 O334 1.249 . S
N315 C316 1.307 . S
N315 C317 1.333 . S
N315 Zn321 2.020 . S
C316 N315 1.307 . S
C316 C320 1.370 . S
C316 H327 0.948 . S
C317 N315 1.333 . S
C317 C318 1.379 . S
C317 H325 0.952 . S
C318 C317 1.379 . S
C318 C319 1.390 . S
C318 H338 0.949 1_556 S
C319 C318 1.390 . S
C319 C320 1.357 . S
C320 C316 1.370 . S
C320 C319 1.357 . S
C320 H339 0.950 . S
Zn321 N315 2.020 . S
Zn321 O324 2.025 . S
Zn321 O329 2.024 . S
Zn321 O331 2.039 . S
Zn321 O333 2.034 . S
O322 C306 1.251 . S
O322 Zn313 2.039 . S
C323 O328 1.246 . S
C323 O329 1.249 . S
O324 C306 1.254 . S
O324 Zn321 2.025 . S
H325 C317 0.952 . S
H326 C308 0.952 . S
H327 C316 0.948 . S
O328 Zn313 2.034 . S
O328 C323 1.246 . S
O329 Zn321 2.024 . S
O329 C323 1.249 . S
H330 C312 0.948 . S
O331 Zn321 2.039 . S
O331 C335 1.251 1_556 S
O332 Zn313 2.025 . S
O332 C335 1.254 1_556 S
O333 C314 1.246 . S
O333 Zn321 2.034 . S
O334 Zn313 2.024 . S
O334 C314 1.249 . S
C335 O331 1.251 1_554 S
C335 O332 1.254 1_554 S
H336 C309 0.949 . S
H337 C311 0.950 . S
H338 C318 0.949 1_554 S
H339 C320 0.950 . S
C340 O356 1.251 . S
C340 O358 1.254 . S
N341 C342 1.333 . S
N341 C346 1.307 . S
N341 Zn347 2.020 . S
C342 N341 1.333 . S
C342 C343 1.379 . S
C342 H360 0.952 . S
C343 C342 1.379 . S
C343 C344 1.390 . S
C343 H370 0.949 . S
C344 C343 1.390 . S
C344 C345 1.357 . S
C345 C344 1.357 . S
C345 C346 1.370 . S
C345 H371 0.950 . S
C346 N341 1.307 . S
C346 C345 1.370 . S
C346 H364 0.948 . S
Zn347 N341 2.020 . S
Zn347 O356 2.039 . S
Zn347 O362 2.034 . S
Zn347 O366 2.025 . S
Zn347 O368 2.024 . S
C348 O367 1.246 . S
C348 O368 1.249 . S
N349 C350 1.307 . S
N349 C351 1.333 . S
N349 Zn355 2.020 . S
C350 N349 1.307 . S
C350 C354 1.370 . S
C350 H361 0.948 . S
C351 N349 1.333 . S
C351 C352 1.379 . S
C351 H359 0.952 . S
C352 C351 1.379 . S
C352 C353 1.390 . S
C352 H372 0.949 1_556 S
C353 C352 1.390 . S
C353 C354 1.357 . S
C354 C350 1.370 . S
C354 C353 1.357 . S
C354 H373 0.950 . S
Zn355 N349 2.020 . S
Zn355 O358 2.025 . S
Zn355 O363 2.024 . S
Zn355 O365 2.039 . S
Zn355 O367 2.034 . S
O356 C340 1.251 . S
O356 Zn347 2.039 . S
C357 O362 1.246 . S
C357 O363 1.249 . S
O358 C340 1.254 . S
O358 Zn355 2.025 . S
H359 C351 0.952 . S
H360 C342 0.952 . S
H361 C350 0.948 . S
O362 Zn347 2.034 . S
O362 C357 1.246 . S
O363 Zn355 2.024 . S
O363 C357 1.249 . S
H364 C346 0.948 . S
O365 Zn355 2.039 . S
O365 C369 1.251 1_556 S
O366 Zn347 2.025 . S
O366 C369 1.254 1_556 S
O367 C348 1.246 . S
O367 Zn355 2.034 . S
O368 Zn347 2.024 . S
O368 C348 1.249 . S
C369 O365 1.251 1_554 S
C369 O366 1.254 1_554 S
H370 C343 0.949 . S
H371 C345 0.950 . S
H372 C352 0.949 1_554 S
H373 C354 0.950 . S
C374 O390 1.251 . S
C374 O392 1.254 . S
N375 C376 1.333 . S
N375 C380 1.307 . S
N375 Zn381 2.020 . S
C376 N375 1.333 . S
C376 C377 1.379 . S
C376 H394 0.952 . S
C377 C376 1.379 . S
C377 C378 1.390 . S
C377 H404 0.949 . S
C378 C377 1.390 . S
C378 C379 1.357 . S
C379 C378 1.357 . S
C379 C380 1.370 . S
C379 H405 0.950 . S
C380 N375 1.307 . S
C380 C379 1.370 . S
C380 H398 0.948 . S
Zn381 N375 2.020 . S
Zn381 O390 2.039 . S
Zn381 O396 2.034 . S
Zn381 O400 2.025 . S
Zn381 O402 2.024 . S
C382 O401 1.246 . S
C382 O402 1.249 . S
N383 C384 1.307 . S
N383 C385 1.333 . S
N383 Zn389 2.020 . S
C384 N383 1.307 . S
C384 C388 1.370 . S
C384 H395 0.948 . S
C385 N383 1.333 . S
C385 C386 1.379 . S
C385 H393 0.952 . S
C386 C385 1.379 . S
C386 C387 1.390 . S
C386 H406 0.949 1_556 S
C387 C386 1.390 . S
C387 C388 1.357 . S
C388 C384 1.370 . S
C388 C387 1.357 . S
C388 H407 0.950 . S
Zn389 N383 2.020 . S
Zn389 O392 2.025 . S
Zn389 O397 2.024 . S
Zn389 O399 2.039 . S
Zn389 O401 2.034 . S
O390 C374 1.251 . S
O390 Zn381 2.039 . S
C391 O396 1.246 . S
C391 O397 1.249 . S
O392 C374 1.254 . S
O392 Zn389 2.025 . S
H393 C385 0.952 . S
H394 C376 0.952 . S
H395 C384 0.948 . S
O396 Zn381 2.034 . S
O396 C391 1.246 . S
O397 Zn389 2.024 . S
O397 C391 1.249 . S
H398 C380 0.948 . S
O399 Zn389 2.039 . S
O399 C403 1.251 1_556 S
O400 Zn381 2.025 . S
O400 C403 1.254 1_556 S
O401 C382 1.246 . S
O401 Zn389 2.034 . S
O402 Zn381 2.024 . S
O402 C382 1.249 . S
C403 O399 1.251 1_554 S
C403 O400 1.254 1_554 S
H404 C377 0.949 . S
H405 C379 0.950 . S
H406 C386 0.949 1_554 S
H407 C388 0.950 . S
C408 O424 1.251 1_556 S
C408 O426 1.254 1_556 S
N409 C410 1.333 . S
N409 C414 1.307 . S
N409 Zn415 2.020 . S
C410 N409 1.333 . S
C410 C411 1.379 . S
C410 H428 0.952 . S
C411 C410 1.379 . S
C411 C412 1.390 . S
C411 H438 0.949 1_554 S
C412 C411 1.390 . S
C412 C413 1.357 . S
C413 C412 1.357 . S
C413 C414 1.370 . S
C413 H439 0.950 . S
C414 N409 1.307 . S
C414 C413 1.370 . S
C414 H432 0.948 . S
Zn415 N409 2.020 . S
Zn415 O424 2.039 . S
Zn415 O430 2.034 . S
Zn415 O434 2.025 . S
Zn415 O436 2.024 . S
C416 O435 1.246 . S
C416 O436 1.249 . S
N417 C418 1.307 . S
N417 C419 1.333 . S
N417 Zn423 2.020 . S
C418 N417 1.307 . S
C418 C422 1.370 . S
C418 H429 0.948 . S
C419 N417 1.333 . S
C419 C420 1.379 . S
C419 H427 0.952 . S
C420 C419 1.379 . S
C420 C421 1.390 . S
C420 H440 0.949 . S
C421 C420 1.390 . S
C421 C422 1.357 . S
C422 C418 1.370 . S
C422 C421 1.357 . S
C422 H441 0.950 . S
Zn423 N417 2.020 . S
Zn423 O426 2.025 . S
Zn423 O431 2.024 . S
Zn423 O433 2.039 . S
Zn423 O435 2.034 . S
O424 C408 1.251 1_554 S
O424 Zn415 2.039 . S
C425 O430 1.246 . S
C425 O431 1.249 . S
O426 C408 1.254 1_554 S
O426 Zn423 2.025 . S
H427 C419 0.952 . S
H428 C410 0.952 . S
H429 C418 0.948 . S
O430 Zn415 2.034 . S
O430 C425 1.246 . S
O431 Zn423 2.024 . S
O431 C425 1.249 . S
H432 C414 0.948 . S
O433 Zn423 2.039 . S
O433 C437 1.251 . S
O434 Zn415 2.025 . S
O434 C437 1.254 . S
O435 C416 1.246 . S
O435 Zn423 2.034 . S
O436 Zn415 2.024 . S
O436 C416 1.249 . S
C437 O433 1.251 . S
C437 O434 1.254 . S
H438 C411 0.949 1_556 S
H439 C413 0.950 . S
H440 C420 0.949 . S
H441 C422 0.950 . S
C442 O458 1.251 1_556 S
C442 O460 1.254 1_556 S
N443 C444 1.333 . S
N443 C448 1.307 . S
N443 Zn449 2.020 . S
C444 N443 1.333 . S
C444 C445 1.379 . S
C444 H462 0.952 . S
C445 C444 1.379 . S
C445 C446 1.390 . S
C445 H472 0.949 1_554 S
C446 C445 1.390 . S
C446 C447 1.357 . S
C447 C446 1.357 . S
C447 C448 1.370 . S
C447 H473 0.950 . S
C448 N443 1.307 . S
C448 C447 1.370 . S
C448 H466 0.948 . S
Zn449 N443 2.020 . S
Zn449 O458 2.039 . S
Zn449 O464 2.034 . S
Zn449 O468 2.025 . S
Zn449 O470 2.024 . S
C450 O469 1.246 . S
C450 O470 1.249 . S
N451 C452 1.307 . S
N451 C453 1.333 . S
N451 Zn457 2.020 . S
C452 N451 1.307 . S
C452 C456 1.370 . S
C452 H463 0.948 . S
C453 N451 1.333 . S
C453 C454 1.379 . S
C453 H461 0.952 . S
C454 C453 1.379 . S
C454 C455 1.390 . S
C454 H474 0.949 . S
C455 C454 1.390 . S
C455 C456 1.357 . S
C456 C452 1.370 . S
C456 C455 1.357 . S
C456 H475 0.950 . S
Zn457 N451 2.020 . S
Zn457 O460 2.025 . S
Zn457 O465 2.024 . S
Zn457 O467 2.039 . S
Zn457 O469 2.034 . S
O458 C442 1.251 1_554 S
O458 Zn449 2.039 . S
C459 O464 1.246 . S
C459 O465 1.249 . S
O460 C442 1.254 1_554 S
O460 Zn457 2.025 . S
H461 C453 0.952 . S
H462 C444 0.952 . S
H463 C452 0.948 . S
O464 Zn449 2.034 . S
O464 C459 1.246 . S
O465 Zn457 2.024 . S
O465 C459 1.249 . S
H466 C448 0.948 . S
O467 Zn457 2.039 . S
O467 C471 1.251 . S
O468 Zn449 2.025 . S
O468 C471 1.254 . S
O469 C450 1.246 . S
O469 Zn457 2.034 . S
O470 Zn449 2.024 . S
O470 C450 1.249 . S
C471 O467 1.251 . S
C471 O468 1.254 . S
H472 C445 0.949 1_556 S
H473 C447 0.950 . S
H474 C454 0.949 . S
H475 C456 0.950 . S
C476 O492 1.251 1_556 S
C476 O494 1.254 1_556 S
N477 C478 1.333 . S
N477 C482 1.307 . S
N477 Zn483 2.020 . S
C478 N477 1.333 . S
C478 C479 1.379 . S
C478 H496 0.952 . S
C479 C478 1.379 . S
C479 C480 1.390 . S
C479 H506 0.949 1_554 S
C480 C479 1.390 . S
C480 C481 1.357 . S
C481 C480 1.357 . S
C481 C482 1.370 . S
C481 H507 0.950 . S
C482 N477 1.307 . S
C482 C481 1.370 . S
C482 H500 0.948 . S
Zn483 N477 2.020 . S
Zn483 O492 2.039 . S
Zn483 O498 2.034 . S
Zn483 O502 2.025 . S
Zn483 O504 2.024 . S
C484 O503 1.246 . S
C484 O504 1.249 . S
N485 C486 1.307 . S
N485 C487 1.333 . S
N485 Zn491 2.020 . S
C486 N485 1.307 . S
C486 C490 1.370 . S
C486 H497 0.948 . S
C487 N485 1.333 . S
C487 C488 1.379 . S
C487 H495 0.952 . S
C488 C487 1.379 . S
C488 C489 1.390 . S
C488 H508 0.949 . S
C489 C488 1.390 . S
C489 C490 1.357 . S
C490 C486 1.370 . S
C490 C489 1.357 . S
C490 H509 0.950 . S
Zn491 N485 2.020 . S
Zn491 O494 2.025 . S
Zn491 O499 2.024 . S
Zn491 O501 2.039 . S
Zn491 O503 2.034 . S
O492 C476 1.251 1_554 S
O492 Zn483 2.039 . S
C493 O498 1.246 . S
C493 O499 1.249 . S
O494 C476 1.254 1_554 S
O494 Zn491 2.025 . S
H495 C487 0.952 . S
H496 C478 0.952 . S
H497 C486 0.948 . S
O498 Zn483 2.034 . S
O498 C493 1.246 . S
O499 Zn491 2.024 . S
O499 C493 1.249 . S
H500 C482 0.948 . S
O501 Zn491 2.039 . S
O501 C505 1.251 . S
O502 Zn483 2.025 . S
O502 C505 1.254 . S
O503 C484 1.246 . S
O503 Zn491 2.034 . S
O504 Zn483 2.024 . S
O504 C484 1.249 . S
C505 O501 1.251 . S
C505 O502 1.254 . S
H506 C479 0.949 1_556 S
H507 C481 0.950 . S
H508 C488 0.949 . S
H509 C490 0.950 . S
C510 O526 1.251 . S
C510 O528 1.254 . S
N511 C512 1.333 . S
N511 C516 1.307 . S
N511 Zn517 2.020 . S
C512 N511 1.333 . S
C512 C513 1.379 . S
C512 H530 0.952 . S
C513 C512 1.379 . S
C513 C514 1.390 . S
C513 H540 0.949 . S
C514 C513 1.390 . S
C514 C515 1.357 . S
C515 C514 1.357 . S
C515 C516 1.370 . S
C515 H541 0.950 . S
C516 N511 1.307 . S
C516 C515 1.370 . S
C516 H534 0.948 . S
Zn517 N511 2.020 . S
Zn517 O526 2.039 . S
Zn517 O532 2.034 . S
Zn517 O536 2.025 . S
Zn517 O538 2.024 . S
C518 O537 1.246 . S
C518 O538 1.249 . S
N519 C520 1.307 . S
N519 C521 1.333 . S
N519 Zn525 2.020 . S
C520 N519 1.307 . S
C520 C524 1.370 . S
C520 H531 0.948 . S
C521 N519 1.333 . S
C521 C522 1.379 . S
C521 H529 0.952 . S
C522 C521 1.379 . S
C522 C523 1.390 . S
C522 H542 0.949 . S
C523 C522 1.390 . S
C523 C524 1.357 . S
C524 C520 1.370 . S
C524 C523 1.357 . S
C524 H543 0.950 . S
Zn525 N519 2.020 . S
Zn525 O528 2.025 . S
Zn525 O533 2.024 . S
Zn525 O535 2.039 . S
Zn525 O537 2.034 . S
O526 C510 1.251 . S
O526 Zn517 2.039 . S
C527 O532 1.246 . S
C527 O533 1.249 . S
O528 C510 1.254 . S
O528 Zn525 2.025 . S
H529 C521 0.952 . S
H530 C512 0.952 . S
H531 C520 0.948 . S
O532 Zn517 2.034 . S
O532 C527 1.246 . S
O533 Zn525 2.024 . S
O533 C527 1.249 . S
H534 C516 0.948 . S
O535 Zn525 2.039 . S
O535 C539 1.251 . S
O536 Zn517 2.025 . S
O536 C539 1.254 . S
O537 C518 1.246 . S
O537 Zn525 2.034 . S
O538 Zn517 2.024 . S
O538 C518 1.249 . S
C539 O535 1.251 . S
C539 O536 1.254 . S
H540 C513 0.949 . S
H541 C515 0.950 . S
H542 C522 0.949 . S
H543 C524 0.950 . S
C544 O560 1.251 . S
C544 O562 1.254 . S
N545 C546 1.333 . S
N545 C550 1.307 . S
N545 Zn551 2.020 . S
C546 N545 1.333 . S
C546 C547 1.379 . S
C546 H564 0.952 . S
C547 C546 1.379 . S
C547 C548 1.390 . S
C547 H574 0.949 . S
C548 C547 1.390 . S
C548 C549 1.357 . S
C549 C548 1.357 . S
C549 C550 1.370 . S
C549 H575 0.950 . S
C550 N545 1.307 . S
C550 C549 1.370 . S
C550 H568 0.948 . S
Zn551 N545 2.020 . S
Zn551 O560 2.039 . S
Zn551 O566 2.034 . S
Zn551 O570 2.025 . S
Zn551 O572 2.024 . S
C552 O571 1.246 . S
C552 O572 1.249 . S
N553 C554 1.307 . S
N553 C555 1.333 . S
N553 Zn559 2.020 . S
C554 N553 1.307 . S
C554 C558 1.370 . S
C554 H565 0.948 . S
C555 N553 1.333 . S
C555 C556 1.379 . S
C555 H563 0.952 . S
C556 C555 1.379 . S
C556 C557 1.390 . S
C556 H576 0.949 . S
C557 C556 1.390 . S
C557 C558 1.357 . S
C558 C554 1.370 . S
C558 C557 1.357 . S
C558 H577 0.950 . S
Zn559 N553 2.020 . S
Zn559 O562 2.025 . S
Zn559 O567 2.024 . S
Zn559 O569 2.039 . S
Zn559 O571 2.034 . S
O560 C544 1.251 . S
O560 Zn551 2.039 . S
C561 O566 1.246 . S
C561 O567 1.249 . S
O562 C544 1.254 . S
O562 Zn559 2.025 . S
H563 C555 0.952 . S
H564 C546 0.952 . S
H565 C554 0.948 . S
O566 Zn551 2.034 . S
O566 C561 1.246 . S
O567 Zn559 2.024 . S
O567 C561 1.249 . S
H568 C550 0.948 . S
O569 Zn559 2.039 . S
O569 C573 1.251 . S
O570 Zn551 2.025 . S
O570 C573 1.254 . S
O571 C552 1.246 . S
O571 Zn559 2.034 . S
O572 Zn551 2.024 . S
O572 C552 1.249 . S
C573 O569 1.251 . S
C573 O570 1.254 . S
H574 C547 0.949 . S
H575 C549 0.950 . S
H576 C556 0.949 . S
H577 C558 0.950 . S
C578 O594 1.251 . S
C578 O596 1.254 . S
N579 C580 1.333 . S
N579 C584 1.307 . S
N579 Zn585 2.020 . S
C580 N579 1.333 . S
C580 C581 1.379 . S
C580 H598 0.952 . S
C581 C580 1.379 . S
C581 C582 1.390 . S
C581 H608 0.949 . S
C582 C581 1.390 . S
C582 C583 1.357 . S
C583 C582 1.357 . S
C583 C584 1.370 . S
C583 H609 0.950 . S
C584 N579 1.307 . S
C584 C583 1.370 . S
C584 H602 0.948 . S
Zn585 N579 2.020 . S
Zn585 O594 2.039 . S
Zn585 O600 2.034 . S
Zn585 O604 2.025 . S
Zn585 O606 2.024 . S
C586 O605 1.246 . S
C586 O606 1.249 . S
N587 C588 1.307 . S
N587 C589 1.333 . S
N587 Zn593 2.020 . S
C588 N587 1.307 . S
C588 C592 1.370 . S
C588 H599 0.948 . S
C589 N587 1.333 . S
C589 C590 1.379 . S
C589 H597 0.952 . S
C590 C589 1.379 . S
C590 C591 1.390 . S
C590 H610 0.949 . S
C591 C590 1.390 . S
C591 C592 1.357 . S
C592 C588 1.370 . S
C592 C591 1.357 . S
C592 H611 0.950 . S
Zn593 N587 2.020 . S
Zn593 O596 2.025 . S
Zn593 O601 2.024 . S
Zn593 O603 2.039 . S
Zn593 O605 2.034 . S
O594 C578 1.251 . S
O594 Zn585 2.039 . S
C595 O600 1.246 . S
C595 O601 1.249 . S
O596 C578 1.254 . S
O596 Zn593 2.025 . S
H597 C589 0.952 . S
H598 C580 0.952 . S
H599 C588 0.948 . S
O600 Zn585 2.034 . S
O600 C595 1.246 . S
O601 Zn593 2.024 . S
O601 C595 1.249 . S
H602 C584 0.948 . S
O603 Zn593 2.039 . S
O603 C607 1.251 . S
O604 Zn585 2.025 . S
O604 C607 1.254 . S
O605 C586 1.246 . S
O605 Zn593 2.034 . S
O606 Zn585 2.024 . S
O606 C586 1.249 . S
C607 O603 1.251 . S
C607 O604 1.254 . S
H608 C581 0.949 . S
H609 C583 0.950 . S
H610 C590 0.949 . S
H611 C592 0.950 . S
H612 C618 0.930 . S
H613 C622 0.930 . S
H614 C627 0.929 . S
H615 C625 0.929 . S
H616 C620 0.929 . S
H617 C626 0.929 . S
C618 H612 0.930 . S
C618 C619 1.367 . S
C618 C626 1.378 . S
C619 C618 1.367 . S
C619 C627 1.433 . S
C620 H616 0.929 . S
C620 C622 1.378 . S
C620 C624 1.350 . S
C621 C624 1.463 . S
C621 C626 1.350 . S
C621 N629 1.427 . S
C622 H613 0.930 . S
C622 C620 1.378 . S
C622 C623 1.367 . S
C623 C622 1.367 . S
C623 C625 1.433 . S
C624 C620 1.350 . S
C624 C621 1.463 . S
C624 N628 1.427 . S
C625 H615 0.929 . S
C625 C623 1.433 . S
C625 N628 1.384 . S
C626 H617 0.929 . S
C626 C618 1.378 . S
C626 C621 1.350 . S
C627 H614 0.929 . S
C627 C619 1.433 . S
C627 N629 1.384 . S
N628 C624 1.427 . S
N628 C625 1.384 . S
N629 C621 1.427 . S
N629 C627 1.384 . S
H630 C636 0.930 . S
H631 C640 0.930 . S
H632 C645 0.929 . S
H633 C643 0.929 . S
H634 C638 0.929 . S
H635 C644 0.929 . S
C636 H630 0.930 . S
C636 C637 1.367 . S
C636 C644 1.378 . S
C637 C636 1.367 . S
C637 C645 1.433 . S
C638 H634 0.929 . S
C638 C640 1.378 . S
C638 C642 1.350 . S
C639 C642 1.463 . S
C639 C644 1.350 . S
C639 N647 1.427 . S
C640 H631 0.930 . S
C640 C638 1.378 . S
C640 C641 1.367 . S
C641 C640 1.367 . S
C641 C643 1.433 . S
C642 C638 1.350 . S
C642 C639 1.463 . S
C642 N646 1.427 . S
C643 H633 0.929 . S
C643 C641 1.433 . S
C643 N646 1.384 . S
C644 H635 0.929 . S
C644 C636 1.378 . S
C644 C639 1.350 . S
C645 H632 0.929 . S
C645 C637 1.433 . S
C645 N647 1.384 . S
N646 C642 1.427 . S
N646 C643 1.384 . S
N647 C639 1.427 . S
N647 C645 1.384 . S
H648 C654 0.930 . S
H649 C658 0.930 . S
H650 C663 0.929 . S
H651 C661 0.929 . S
H652 C656 0.929 . S
H653 C662 0.929 . S
C654 H648 0.930 . S
C654 C655 1.367 1_565 S
C654 C662 1.378 . S
C655 C654 1.367 1_545 S
C655 C663 1.433 . S
C656 H652 0.929 . S
C656 C658 1.378 . S
C656 C660 1.350 . S
C657 C660 1.463 . S
C657 C662 1.350 . S
C657 N665 1.427 . S
C658 H649 0.930 . S
C658 C656 1.378 . S
C658 C659 1.367 . S
C659 C658 1.367 . S
C659 C661 1.433 . S
C660 C656 1.350 . S
C660 C657 1.463 . S
C660 N664 1.427 . S
C661 H651 0.929 . S
C661 C659 1.433 . S
C661 N664 1.384 . S
C662 H653 0.929 . S
C662 C654 1.378 . S
C662 C657 1.350 . S
C663 H650 0.929 . S
C663 C655 1.433 . S
C663 N665 1.384 1_545 S
N664 C660 1.427 . S
N664 C661 1.384 . S
N665 C657 1.427 . S
N665 C663 1.384 1_565 S
H666 C672 0.930 . S
H667 C676 0.930 . S
H668 C681 0.929 . S
H669 C679 0.929 . S
H670 C674 0.929 . S
H671 C680 0.929 . S
C672 H666 0.930 . S
C672 C673 1.367 . S
C672 C680 1.378 . S
C673 C672 1.367 . S
C673 C681 1.433 . S
C674 H670 0.929 . S
C674 C676 1.378 . S
C674 C678 1.350 . S
C675 C678 1.463 . S
C675 C680 1.350 . S
C675 N683 1.427 . S
C676 H667 0.930 . S
C676 C674 1.378 . S
C676 C677 1.367 . S
C677 C676 1.367 . S
C677 C679 1.433 . S
C678 C674 1.350 . S
C678 C675 1.463 . S
C678 N682 1.427 . S
C679 H669 0.929 . S
C679 C677 1.433 . S
C679 N682 1.384 . S
C680 H671 0.929 . S
C680 C672 1.378 . S
C680 C675 1.350 . S
C681 H668 0.929 . S
C681 C673 1.433 . S
C681 N683 1.384 . S
N682 C678 1.427 . S
N682 C679 1.384 . S
N683 C675 1.427 . S
N683 C681 1.384 . S
H684 C690 0.930 . S
H685 C694 0.930 . S
H686 C699 0.929 . S
H687 C697 0.929 . S
H688 C692 0.929 . S
H689 C698 0.929 . S
C690 H684 0.930 . S
C690 C691 1.367 . S
C690 C698 1.378 . S
C691 C690 1.367 . S
C691 C699 1.433 . S
C692 H688 0.929 . S
C692 C694 1.378 . S
C692 C696 1.350 . S
C693 C696 1.463 . S
C693 C698 1.350 . S
C693 N701 1.427 . S
C694 H685 0.930 . S
C694 C692 1.378 . S
C694 C695 1.367 . S
C695 C694 1.367 . S
C695 C697 1.433 . S
C696 C692 1.350 . S
C696 C693 1.463 . S
C696 N700 1.427 . S
C697 H687 0.929 . S
C697 C695 1.433 . S
C697 N700 1.384 . S
C698 H689 0.929 . S
C698 C690 1.378 . S
C698 C693 1.350 . S
C699 H686 0.929 . S
C699 C691 1.433 . S
C699 N701 1.384 . S
N700 C696 1.427 . S
N700 C697 1.384 . S
N701 C693 1.427 . S
N701 C699 1.384 . S
H702 C708 0.930 . S
H703 C712 0.930 . S
H704 C717 0.929 . S
H705 C715 0.929 . S
H706 C710 0.929 . S
H707 C716 0.929 . S
C708 H702 0.930 . S
C708 C709 1.367 . S
C708 C716 1.378 . S
C709 C708 1.367 . S
C709 C717 1.433 . S
C710 H706 0.929 . S
C710 C712 1.378 . S
C710 C714 1.350 . S
C711 C714 1.463 . S
C711 C716 1.350 . S
C711 N719 1.427 . S
C712 H703 0.930 . S
C712 C710 1.378 . S
C712 C713 1.367 . S
C713 C712 1.367 . S
C713 C715 1.433 . S
C714 C710 1.350 . S
C714 C711 1.463 . S
C714 N718 1.427 . S
C715 H705 0.929 . S
C715 C713 1.433 . S
C715 N718 1.384 . S
C716 H707 0.929 . S
C716 C708 1.378 . S
C716 C711 1.350 . S
C717 H704 0.929 . S
C717 C709 1.433 . S
C717 N719 1.384 . S
N718 C714 1.427 . S
N718 C715 1.384 . S
N719 C711 1.427 . S
N719 C717 1.384 . S
H720 C726 0.930 . S
H721 C730 0.930 . S
H722 C735 0.929 . S
H723 C733 0.929 . S
H724 C728 0.929 . S
H725 C734 0.929 1_455 S
C726 H720 0.930 . S
C726 C727 1.367 . S
C726 C734 1.378 1_455 S
C727 C726 1.367 . S
C727 C735 1.433 1_455 S
C728 H724 0.929 . S
C728 C730 1.378 . S
C728 C732 1.350 . S
C729 C732 1.463 . S
C729 C734 1.350 . S
C729 N737 1.427 . S
C730 H721 0.930 . S
C730 C728 1.378 . S
C730 C731 1.367 . S
C731 C730 1.367 . S
C731 C733 1.433 . S
C732 C728 1.350 . S
C732 C729 1.463 . S
C732 N736 1.427 . S
C733 H723 0.929 . S
C733 C731 1.433 . S
C733 N736 1.384 . S
C734 H725 0.929 1_655 S
C734 C726 1.378 1_655 S
C734 C729 1.350 . S
C735 H722 0.929 . S
C735 C727 1.433 1_655 S
C735 N737 1.384 . S
N736 C732 1.427 . S
N736 C733 1.384 . S
N737 C729 1.427 . S
N737 C735 1.384 . S
H738 C744 0.930 . S
H739 C748 0.930 . S
H740 C753 0.929 . S
H741 C751 0.929 . S
H742 C746 0.929 . S
H743 C752 0.929 . S
C744 H738 0.930 . S
C744 C745 1.367 . S
C744 C752 1.378 . S
C745 C744 1.367 . S
C745 C753 1.433 . S
C746 H742 0.929 . S
C746 C748 1.378 . S
C746 C750 1.350 . S
C747 C750 1.463 . S
C747 C752 1.350 . S
C747 N755 1.427 . S
C748 H739 0.930 . S
C748 C746 1.378 . S
C748 C749 1.367 . S
C749 C748 1.367 . S
C749 C751 1.433 . S
C750 C746 1.350 . S
C750 C747 1.463 . S
C750 N754 1.427 . S
C751 H741 0.929 . S
C751 C749 1.433 . S
C751 N754 1.384 . S
C752 H743 0.929 . S
C752 C744 1.378 . S
C752 C747 1.350 . S
C753 H740 0.929 . S
C753 C745 1.433 . S
C753 N755 1.384 . S
N754 C750 1.427 . S
N754 C751 1.384 . S
N755 C747 1.427 . S
N755 C753 1.384 . S
H756 C762 0.930 . S
H757 C766 0.930 . S
H758 C771 0.929 . S
H759 C769 0.929 . S
H760 C764 0.929 . S
H761 C770 0.929 . S
C762 H756 0.930 . S
C762 C763 1.367 . S
C762 C770 1.378 . S
C763 C762 1.367 . S
C763 C771 1.433 . S
C764 H760 0.929 . S
C764 C766 1.378 . S
C764 C768 1.350 . S
C765 C768 1.463 . S
C765 C770 1.350 . S
C765 N773 1.427 . S
C766 H757 0.930 . S
C766 C764 1.378 . S
C766 C767 1.367 . S
C767 C766 1.367 . S
C767 C769 1.433 . S
C768 C764 1.350 . S
C768 C765 1.463 . S
C768 N772 1.427 . S
C769 H759 0.929 . S
C769 C767 1.433 . S
C769 N772 1.384 . S
C770 H761 0.929 . S
C770 C762 1.378 . S
C770 C765 1.350 . S
C771 H758 0.929 . S
C771 C763 1.433 . S
C771 N773 1.384 . S
N772 C768 1.427 . S
N772 C769 1.384 . S
N773 C765 1.427 . S
N773 C771 1.384 . S
H774 C780 0.930 . S
H775 C784 0.930 . S
H776 C789 0.929 . S
H777 C787 0.929 . S
H778 C782 0.929 . S
H779 C788 0.929 . S
C780 H774 0.930 . S
C780 C781 1.367 . S
C780 C788 1.378 . S
C781 C780 1.367 . S
C781 C789 1.433 . S
C782 H778 0.929 . S
C782 C784 1.378 . S
C782 C786 1.350 . S
C783 C786 1.463 . S
C783 C788 1.350 . S
C783 N791 1.427 . S
C784 H775 0.930 . S
C784 C782 1.378 . S
C784 C785 1.367 . S
C785 C784 1.367 . S
C785 C787 1.433 . S
C786 C782 1.350 . S
C786 C783 1.463 . S
C786 N790 1.427 . S
C787 H777 0.929 . S
C787 C785 1.433 . S
C787 N790 1.384 . S
C788 H779 0.929 . S
C788 C780 1.378 . S
C788 C783 1.350 . S
C789 H776 0.929 . S
C789 C781 1.433 . S
C789 N791 1.384 . S
N790 C786 1.427 . S
N790 C787 1.384 . S
N791 C783 1.427 . S
N791 C789 1.384 . S
H792 C798 0.930 . S
H793 C802 0.930 . S
H794 C807 0.929 . S
H795 C805 0.929 . S
H796 C800 0.929 . S
H797 C806 0.929 . S
C798 H792 0.930 . S
C798 C799 1.367 . S
C798 C806 1.378 . S
C799 C798 1.367 . S
C799 C807 1.433 . S
C800 H796 0.929 . S
C800 C802 1.378 . S
C800 C804 1.350 . S
C801 C804 1.463 . S
C801 C806 1.350 . S
C801 N809 1.427 . S
C802 H793 0.930 . S
C802 C800 1.378 . S
C802 C803 1.367 . S
C803 C802 1.367 . S
C803 C805 1.433 . S
C804 C800 1.350 . S
C804 C801 1.463 . S
C804 N808 1.427 . S
C805 H795 0.929 . S
C805 C803 1.433 . S
C805 N808 1.384 . S
C806 H797 0.929 . S
C806 C798 1.378 . S
C806 C801 1.350 . S
C807 H794 0.929 . S
C807 C799 1.433 . S
C807 N809 1.384 . S
N808 C804 1.427 . S
N808 C805 1.384 . S
N809 C801 1.427 . S
N809 C807 1.384 . S
H810 C816 0.930 . S
H811 C820 0.930 . S
H812 C825 0.929 . S
H813 C823 0.929 . S
H814 C818 0.929 . S
H815 C824 0.929 . S
C816 H810 0.930 . S
C816 C817 1.367 . S
C816 C824 1.378 . S
C817 C816 1.367 . S
C817 C825 1.433 . S
C818 H814 0.929 . S
C818 C820 1.378 . S
C818 C822 1.350 . S
C819 C822 1.463 . S
C819 C824 1.350 . S
C819 N827 1.427 . S
C820 H811 0.930 . S
C820 C818 1.378 . S
C820 C821 1.367 . S
C821 C820 1.367 . S
C821 C823 1.433 . S
C822 C818 1.350 . S
C822 C819 1.463 . S
C822 N826 1.427 . S
C823 H813 0.929 . S
C823 C821 1.433 . S
C823 N826 1.384 . S
C824 H815 0.929 . S
C824 C816 1.378 . S
C824 C819 1.350 . S
C825 H812 0.929 . S
C825 C817 1.433 . S
C825 N827 1.384 . S
N826 C822 1.427 . S
N826 C823 1.384 . S
N827 C819 1.427 . S
N827 C825 1.384 . S
H828 C834 0.930 . S
H829 C838 0.930 . S
H830 C843 0.929 1_554 S
H831 C841 0.929 1_556 S
H832 C836 0.929 . S
H833 C842 0.929 . S
C834 H828 0.930 . S
C834 C835 1.367 . S
C834 C842 1.378 . S
C835 C834 1.367 . S
C835 C843 1.433 . S
C836 H832 0.929 . S
C836 C838 1.378 . S
C836 C840 1.350 . S
C837 C840 1.463 1_556 S
C837 C842 1.350 . S
C837 N845 1.427 1_556 S
C838 H829 0.930 . S
C838 C836 1.378 . S
C838 C839 1.367 . S
C839 C838 1.367 . S
C839 C841 1.433 . S
C840 C836 1.350 . S
C840 C837 1.463 1_554 S
C840 N844 1.427 1_554 S
C841 H831 0.929 1_554 S
C841 C839 1.433 . S
C841 N844 1.384 1_554 S
C842 H833 0.929 . S
C842 C834 1.378 . S
C842 C837 1.350 . S
C843 H830 0.929 1_556 S
C843 C835 1.433 . S
C843 N845 1.384 1_556 S
N844 C840 1.427 1_556 S
N844 C841 1.384 1_556 S
N845 C837 1.427 1_554 S
N845 C843 1.384 1_554 S
H846 C852 0.930 . S
H847 C856 0.930 . S
H848 C861 0.929 . S
H849 C859 0.929 . S
H850 C854 0.929 . S
H851 C860 0.929 . S
C852 H846 0.930 . S
C852 C853 1.367 . S
C852 C860 1.378 . S
C853 C852 1.367 . S
C853 C861 1.433 . S
C854 H850 0.929 . S
C854 C856 1.378 . S
C854 C858 1.350 . S
C855 C858 1.463 1_556 S
C855 C860 1.350 . S
C855 N863 1.427 1_556 S
C856 H847 0.930 . S
C856 C854 1.378 . S
C856 C857 1.367 . S
C857 C856 1.367 . S
C857 C859 1.433 . S
C858 C854 1.350 . S
C858 C855 1.463 1_554 S
C858 N862 1.427 1_554 S
C859 H849 0.929 . S
C859 C857 1.433 . S
C859 N862 1.384 1_554 S
C860 H851 0.929 . S
C860 C852 1.378 . S
C860 C855 1.350 . S
C861 H848 0.929 . S
C861 C853 1.433 . S
C861 N863 1.384 1_556 S
N862 C858 1.427 1_556 S
N862 C859 1.384 1_556 S
N863 C855 1.427 1_554 S
N863 C861 1.384 1_554 S
H864 C870 0.930 1_554 S
H865 C874 0.930 1_556 S
H866 C879 0.929 . S
H867 C877 0.929 . S
H868 C872 0.929 . S
H869 C878 0.929 . S
C870 H864 0.930 1_556 S
C870 C871 1.367 . S
C870 C878 1.378 1_556 S
C871 C870 1.367 . S
C871 C879 1.433 . S
C872 H868 0.929 . S
C872 C874 1.378 1_556 S
C872 C876 1.350 1_566 S
C873 C876 1.463 1_556 S
C873 C878 1.350 1_556 S
C873 N881 1.427 . S
C874 H865 0.930 1_554 S
C874 C872 1.378 1_554 S
C874 C875 1.367 . S
C875 C874 1.367 . S
C875 C877 1.433 . S
C876 C872 1.350 1_544 S
C876 C873 1.463 1_554 S
C876 N880 1.427 . S
C877 H867 0.929 . S
C877 C875 1.433 . S
C877 N880 1.384 1_565 S
C878 H869 0.929 . S
C878 C870 1.378 1_554 S
C878 C873 1.350 1_554 S
C879 H866 0.929 . S
C879 C871 1.433 . S
C879 N881 1.384 . S
N880 C876 1.427 . S
N880 C877 1.384 1_545 S
N881 C873 1.427 . S
N881 C879 1.384 . S
H882 C888 0.930 . S
H883 C892 0.930 . S
H884 C897 0.929 . S
H885 C895 0.929 . S
H886 C890 0.929 . S
H887 C896 0.929 . S
C888 H882 0.930 . S
C888 C889 1.367 . S
C888 C896 1.378 . S
C889 C888 1.367 . S
C889 C897 1.433 . S
C890 H886 0.929 . S
C890 C892 1.378 . S
C890 C894 1.350 . S
C891 C894 1.463 1_556 S
C891 C896 1.350 . S
C891 N899 1.427 1_556 S
C892 H883 0.930 . S
C892 C890 1.378 . S
C892 C893 1.367 . S
C893 C892 1.367 . S
C893 C895 1.433 . S
C894 C890 1.350 . S
C894 C891 1.463 1_554 S
C894 N898 1.427 1_554 S
C895 H885 0.929 . S
C895 C893 1.433 . S
C895 N898 1.384 1_554 S
C896 H887 0.929 . S
C896 C888 1.378 . S
C896 C891 1.350 . S
C897 H884 0.929 . S
C897 C889 1.433 . S
C897 N899 1.384 1_556 S
N898 C894 1.427 1_556 S
N898 C895 1.384 1_556 S
N899 C891 1.427 1_554 S
N899 C897 1.384 1_554 S
H900 C906 0.930 . S
H901 C910 0.930 . S
H902 C915 0.929 . S
H903 C913 0.929 . S
H904 C908 0.929 1_454 S
H905 C914 0.929 1_556 S
C906 H900 0.930 . S
C906 C907 1.367 . S
C906 C914 1.378 . S
C907 C906 1.367 . S
C907 C915 1.433 . S
C908 H904 0.929 1_656 S
C908 C910 1.378 . S
C908 C912 1.350 1_655 S
C909 C912 1.463 1_554 S
C909 C914 1.350 . S
C909 N917 1.427 . S
C910 H901 0.930 . S
C910 C908 1.378 . S
C910 C911 1.367 . S
C911 C910 1.367 . S
C911 C913 1.433 . S
C912 C908 1.350 1_455 S
C912 C909 1.463 1_556 S
C912 N916 1.430 1_455 S
C913 H903 0.929 . S
C913 C911 1.433 . S
C913 N916 1.408 . S
C914 H905 0.929 1_554 S
C914 C906 1.378 . S
C914 C909 1.350 . S
C915 H902 0.929 . S
C915 C907 1.433 . S
C915 N917 1.384 . S
N916 C912 1.430 1_655 S
N916 C913 1.408 . S
N917 C909 1.427 . S
N917 C915 1.384 . S
H918 C924 0.930 . S
H919 C928 0.930 . S
H920 C933 0.929 1_556 S
H921 C931 0.929 1_554 S
H922 C926 0.929 . S
H923 C932 0.929 . S
C924 H918 0.930 . S
C924 C925 1.367 . S
C924 C932 1.378 . S
C925 C924 1.367 . S
C925 C933 1.433 . S
C926 H922 0.929 . S
C926 C928 1.378 . S
C926 C930 1.350 . S
C927 C930 1.463 1_554 S
C927 C932 1.350 . S
C927 N935 1.427 1_554 S
C928 H919 0.930 . S
C928 C926 1.378 . S
C928 C929 1.367 . S
C929 C928 1.367 . S
C929 C931 1.433 . S
C930 C926 1.350 . S
C930 C927 1.463 1_556 S
C930 N934 1.427 1_556 S
C931 H921 0.929 1_556 S
C931 C929 1.433 . S
C931 N934 1.384 1_556 S
C932 H923 0.929 . S
C932 C924 1.378 . S
C932 C927 1.350 . S
C933 H920 0.929 1_554 S
C933 C925 1.433 . S
C933 N935 1.384 1_554 S
N934 C930 1.427 1_554 S
N934 C931 1.384 1_554 S
N935 C927 1.427 1_556 S
N935 C933 1.384 1_556 S
H936 C942 0.930 . S
H937 C946 0.930 . S
H938 C951 0.929 . S
H939 C949 0.929 . S
H940 C944 0.929 . S
H941 C950 0.929 . S
C942 H936 0.930 . S
C942 C943 1.367 . S
C942 C950 1.378 . S
C943 C942 1.367 . S
C943 C951 1.433 . S
C944 H940 0.929 . S
C944 C946 1.378 . S
C944 C948 1.350 . S
C945 C948 1.463 . S
C945 C950 1.350 . S
C945 N953 1.427 . S
C946 H937 0.930 . S
C946 C944 1.378 . S
C946 C947 1.367 . S
C947 C946 1.367 . S
C947 C949 1.433 . S
C948 C944 1.350 . S
C948 C945 1.463 . S
C948 N952 1.427 . S
C949 H939 0.929 . S
C949 C947 1.433 . S
C949 N952 1.384 . S
C950 H941 0.929 . S
C950 C942 1.378 . S
C950 C945 1.350 . S
C951 H938 0.929 . S
C951 C943 1.433 . S
C951 N953 1.384 . S
N952 C948 1.427 . S
N952 C949 1.384 . S
N953 C945 1.427 . S
N953 C951 1.384 . S
H954 C960 0.930 . S
H955 C964 0.930 . S
H956 C969 0.929 . S
H957 C967 0.929 . S
H958 C962 0.929 . S
H959 C968 0.929 . S
C960 H954 0.930 . S
C960 C961 1.367 1_545 S
C960 C968 1.378 1_545 S
C961 C960 1.367 1_565 S
C961 C969 1.433 . S
C962 H958 0.929 . S
C962 C964 1.378 . S
C962 C966 1.350 . S
C963 C966 1.463 . S
C963 C968 1.350 . S
C963 N971 1.427 . S
C964 H955 0.930 . S
C964 C962 1.378 . S
C964 C965 1.367 . S
C965 C964 1.367 . S
C965 C967 1.433 . S
C966 C962 1.350 . S
C966 C963 1.463 . S
C966 N970 1.427 . S
C967 H957 0.929 . S
C967 C965 1.433 . S
C967 N970 1.384 . S
C968 H959 0.929 . S
C968 C960 1.378 1_565 S
C968 C963 1.350 . S
C969 H956 0.929 . S
C969 C961 1.433 . S
C969 N971 1.384 . S
N970 C966 1.427 . S
N970 C967 1.384 . S
N971 C963 1.427 . S
N971 C969 1.384 . S
H972 C978 0.930 . S
H973 C982 0.930 . S
H974 C987 0.929 . S
H975 C985 0.929 . S
H976 C980 0.929 . S
H977 C986 0.929 . S
C978 H972 0.930 . S
C978 C979 1.367 . S
C978 C986 1.378 . S
C979 C978 1.367 . S
C979 C987 1.433 . S
C980 H976 0.929 . S
C980 C982 1.378 . S
C980 C984 1.350 . S
C981 C984 1.463 . S
C981 C986 1.350 . S
C981 N989 1.427 . S
C982 H973 0.930 . S
C982 C980 1.378 . S
C982 C983 1.367 . S
C983 C982 1.367 . S
C983 C985 1.433 . S
C984 C980 1.350 . S
C984 C981 1.463 . S
C984 N988 1.427 . S
C985 H975 0.929 . S
C985 C983 1.433 . S
C985 N988 1.384 . S
C986 H977 0.929 . S
C986 C978 1.378 . S
C986 C981 1.350 . S
C987 H974 0.929 . S
C987 C979 1.433 . S
C987 N989 1.384 . S
N988 C984 1.427 . S
N988 C985 1.384 . S
N989 C981 1.427 . S
N989 C987 1.384 . S
H990 C996 0.930 . S
H991 C1000 0.930 . S
H992 C1005 0.929 . S
H993 C1003 0.929 . S
H994 C998 0.929 . S
H995 C1004 0.929 . S
C996 H990 0.930 . S
C996 C997 1.367 . S
C996 C1004 1.378 . S
C997 C996 1.367 . S
C997 C1005 1.433 . S
C998 H994 0.929 . S
C998 C1000 1.378 . S
C998 C1002 1.350 . S
C999 C1002 1.463 . S
C999 C1004 1.350 . S
C999 N1007 1.427 . S
C1000 H991 0.930 . S
C1000 C998 1.378 . S
C1000 C1001 1.367 . S
C1001 C1000 1.367 . S
C1001 C1003 1.433 . S
C1002 C998 1.350 . S
C1002 C999 1.463 . S
C1002 N1006 1.427 . S
C1003 H993 0.929 . S
C1003 C1001 1.433 . S
C1003 N1006 1.384 . S
C1004 H995 0.929 . S
C1004 C996 1.378 . S
C1004 C999 1.350 . S
C1005 H992 0.929 . S
C1005 C997 1.433 . S
C1005 N1007 1.384 . S
N1006 C1002 1.427 . S
N1006 C1003 1.384 . S
N1007 C999 1.427 . S
N1007 C1005 1.384 . S
H1008 C1014 0.930 . S
H1009 C1018 0.930 . S
H1010 C1023 0.929 . S
H1011 C1021 0.898 1_455 S
H1012 C1016 0.929 . S
H1013 C1022 0.929 . S
C1014 H1008 0.930 . S
C1014 C1015 1.367 . S
C1014 C1022 1.378 . S
C1015 C1014 1.367 . S
C1015 C1023 1.433 . S
C1016 H1012 0.929 . S
C1016 C1018 1.378 . S
C1016 C1020 1.350 . S
C1017 C1020 1.463 . S
C1017 C1022 1.350 . S
C1017 N1025 1.427 . S
C1018 H1009 0.930 . S
C1018 C1016 1.378 . S
C1018 C1019 1.368 1_655 S
C1019 C1018 1.368 1_455 S
C1019 C1021 1.447 1_455 S
C1020 C1016 1.350 . S
C1020 C1017 1.463 . S
C1020 N1024 1.427 . S
C1021 H1011 0.898 1_655 S
C1021 C1019 1.447 1_655 S
C1021 N1024 1.404 . S
C1022 H1013 0.929 . S
C1022 C1014 1.378 . S
C1022 C1017 1.350 . S
C1023 H1010 0.929 . S
C1023 C1015 1.433 . S
C1023 N1025 1.384 . S
N1024 C1020 1.427 . S
N1024 C1021 1.404 . S
N1025 C1017 1.427 . S
N1025 C1023 1.384 . S
H1026 C1032 0.930 . S
H1027 C1036 0.930 . S
H1028 C1041 0.929 . S
H1029 C1039 0.929 . S
H1030 C1034 0.929 . S
H1031 C1040 0.929 . S
C1032 H1026 0.930 . S
C1032 C1033 1.367 . S
C1032 C1040 1.378 . S
C1033 C1032 1.367 . S
C1033 C1041 1.433 . S
C1034 H1030 0.929 . S
C1034 C1036 1.378 . S
C1034 C1038 1.350 . S
C1035 C1038 1.463 . S
C1035 C1040 1.350 . S
C1035 N1043 1.427 . S
C1036 H1027 0.930 . S
C1036 C1034 1.378 . S
C1036 C1037 1.367 . S
C1037 C1036 1.367 . S
C1037 C1039 1.433 . S
C1038 C1034 1.350 . S
C1038 C1035 1.463 . S
C1038 N1042 1.427 . S
C1039 H1029 0.929 . S
C1039 C1037 1.433 . S
C1039 N1042 1.384 . S
C1040 H1031 0.929 . S
C1040 C1032 1.378 . S
C1040 C1035 1.350 . S
C1041 H1028 0.929 . S
C1041 C1033 1.433 . S
C1041 N1043 1.384 . S
N1042 C1038 1.427 . S
N1042 C1039 1.384 . S
N1043 C1035 1.427 . S
N1043 C1041 1.384 . S
H1044 C1050 0.930 . S
H1045 C1054 0.930 . S
H1046 C1059 0.929 . S
H1047 C1057 0.929 . S
H1048 C1052 0.929 . S
H1049 C1058 0.929 . S
C1050 H1044 0.930 . S
C1050 C1051 1.367 . S
C1050 C1058 1.378 . S
C1051 C1050 1.367 . S
C1051 C1059 1.433 . S
C1052 H1048 0.929 . S
C1052 C1054 1.378 . S
C1052 C1056 1.350 . S
C1053 C1056 1.463 . S
C1053 C1058 1.350 . S
C1053 N1061 1.427 . S
C1054 H1045 0.930 . S
C1054 C1052 1.378 . S
C1054 C1055 1.367 . S
C1055 C1054 1.367 . S
C1055 C1057 1.433 . S
C1056 C1052 1.350 . S
C1056 C1053 1.463 . S
C1056 N1060 1.427 . S
C1057 H1047 0.929 . S
C1057 C1055 1.433 . S
C1057 N1060 1.384 . S
C1058 H1049 0.929 . S
C1058 C1050 1.378 . S
C1058 C1053 1.350 . S
C1059 H1046 0.929 . S
C1059 C1051 1.433 . S
C1059 N1061 1.384 . S
N1060 C1056 1.427 . S
N1060 C1057 1.384 . S
N1061 C1053 1.427 . S
N1061 C1059 1.384 . S
H1062 C1068 0.930 . S
H1063 C1072 0.930 . S
H1064 C1077 0.929 . S
H1065 C1075 0.929 . S
H1066 C1070 0.929 . S
H1067 C1076 0.929 . S
C1068 H1062 0.930 . S
C1068 C1069 1.367 . S
C1068 C1076 1.378 . S
C1069 C1068 1.367 . S
C1069 C1077 1.433 . S
C1070 H1066 0.929 . S
C1070 C1072 1.378 . S
C1070 C1074 1.350 . S
C1071 C1074 1.463 . S
C1071 C1076 1.350 . S
C1071 N1079 1.427 . S
C1072 H1063 0.930 . S
C1072 C1070 1.378 . S
C1072 C1073 1.367 . S
C1073 C1072 1.367 . S
C1073 C1075 1.433 . S
C1074 C1070 1.350 . S
C1074 C1071 1.463 . S
C1074 N1078 1.427 . S
C1075 H1065 0.929 . S
C1075 C1073 1.433 . S
C1075 N1078 1.384 . S
C1076 H1067 0.929 . S
C1076 C1068 1.378 . S
C1076 C1071 1.350 . S
C1077 H1064 0.929 . S
C1077 C1069 1.433 . S
C1077 N1079 1.384 . S
N1078 C1074 1.427 . S
N1078 C1075 1.384 . S
N1079 C1071 1.427 . S
N1079 C1077 1.384 . S
H1080 C1086 0.930 . S
H1081 C1090 0.930 . S
H1082 C1095 0.929 . S
H1083 C1093 0.929 . S
H1084 C1088 0.929 . S
H1085 C1094 0.929 . S
C1086 H1080 0.930 . S
C1086 C1087 1.367 . S
C1086 C1094 1.378 . S
C1087 C1086 1.367 . S
C1087 C1095 1.433 . S
C1088 H1084 0.929 . S
C1088 C1090 1.378 . S
C1088 C1092 1.350 . S
C1089 C1092 1.463 . S
C1089 C1094 1.350 . S
C1089 N1097 1.427 . S
C1090 H1081 0.930 . S
C1090 C1088 1.378 . S
C1090 C1091 1.367 . S
C1091 C1090 1.367 . S
C1091 C1093 1.433 . S
C1092 C1088 1.350 . S
C1092 C1089 1.463 . S
C1092 N1096 1.427 . S
C1093 H1083 0.929 . S
C1093 C1091 1.433 . S
C1093 N1096 1.384 . S
C1094 H1085 0.929 . S
C1094 C1086 1.378 . S
C1094 C1089 1.350 . S
C1095 H1082 0.929 . S
C1095 C1087 1.433 . S
C1095 N1097 1.384 . S
N1096 C1092 1.427 . S
N1096 C1093 1.384 . S
N1097 C1089 1.427 . S
N1097 C1095 1.384 . S
H1098 C1104 0.930 1_554 S
H1099 C1108 0.930 . S
H1100 C1113 0.929 . S
H1101 C1111 0.929 . S
H1102 C1106 0.929 . S
H1103 C1112 0.929 . S
C1104 H1098 0.930 1_556 S
C1104 C1105 1.367 . S
C1104 C1112 1.378 . S
C1105 C1104 1.367 . S
C1105 C1113 1.433 . S
C1106 H1102 0.929 . S
C1106 C1108 1.378 . S
C1106 C1110 1.350 . S
C1107 C1110 1.463 . S
C1107 C1112 1.350 . S
C1107 N1115 1.427 . S
C1108 H1099 0.930 . S
C1108 C1106 1.378 . S
C1108 C1109 1.367 . S
C1109 C1108 1.367 . S
C1109 C1111 1.433 . S
C1110 C1106 1.350 . S
C1110 C1107 1.463 . S
C1110 N1114 1.427 . S
C1111 H1101 0.929 . S
C1111 C1109 1.433 . S
C1111 N1114 1.384 . S
C1112 H1103 0.929 . S
C1112 C1104 1.378 . S
C1112 C1107 1.350 . S
C1113 H1100 0.929 . S
C1113 C1105 1.433 . S
C1113 N1115 1.384 . S
N1114 C1110 1.427 . S
N1114 C1111 1.384 . S
N1115 C1107 1.427 . S
N1115 C1113 1.384 . S
H1116 C1122 0.930 . S
H1117 C1126 0.930 . S
H1118 C1131 0.929 1_554 S
H1119 C1129 0.929 . S
H1120 C1124 0.929 . S
H1121 C1130 0.929 . S
C1122 H1116 0.930 . S
C1122 C1123 1.367 . S
C1122 C1130 1.378 . S
C1123 C1122 1.367 . S
C1123 C1131 1.433 . S
C1124 H1120 0.929 . S
C1124 C1126 1.378 . S
C1124 C1128 1.350 . S
C1125 C1128 1.463 . S
C1125 C1130 1.350 . S
C1125 N1133 1.427 . S
C1126 H1117 0.930 . S
C1126 C1124 1.378 . S
C1126 C1127 1.367 . S
C1127 C1126 1.367 . S
C1127 C1129 1.433 . S
C1128 C1124 1.350 . S
C1128 C1125 1.463 . S
C1128 N1132 1.427 . S
C1129 H1119 0.929 . S
C1129 C1127 1.433 . S
C1129 N1132 1.384 . S
C1130 H1121 0.929 . S
C1130 C1122 1.378 . S
C1130 C1125 1.350 . S
C1131 H1118 0.929 1_556 S
C1131 C1123 1.433 . S
C1131 N1133 1.384 . S
N1132 C1128 1.427 . S
N1132 C1129 1.384 . S
N1133 C1125 1.427 . S
N1133 C1131 1.384 . S
H1134 C1140 0.930 . S
H1135 C1144 0.930 . S
H1136 C1149 0.929 . S
H1137 C1147 0.929 . S
H1138 C1142 0.929 . S
H1139 C1148 0.929 . S
C1140 H1134 0.930 . S
C1140 C1141 1.367 . S
C1140 C1148 1.378 . S
C1141 C1140 1.367 . S
C1141 C1149 1.433 . S
C1142 H1138 0.929 . S
C1142 C1144 1.378 . S
C1142 C1146 1.350 . S
C1143 C1146 1.463 . S
C1143 C1148 1.350 . S
C1143 N1151 1.427 . S
C1144 H1135 0.930 . S
C1144 C1142 1.378 . S
C1144 C1145 1.367 . S
C1145 C1144 1.367 . S
C1145 C1147 1.433 . S
C1146 C1142 1.350 . S
C1146 C1143 1.463 . S
C1146 N1150 1.427 . S
C1147 H1137 0.929 . S
C1147 C1145 1.433 . S
C1147 N1150 1.384 . S
C1148 H1139 0.929 . S
C1148 C1140 1.378 . S
C1148 C1143 1.350 . S
C1149 H1136 0.929 . S
C1149 C1141 1.433 . S
C1149 N1151 1.384 . S
N1150 C1146 1.427 . S
N1150 C1147 1.384 . S
N1151 C1143 1.427 . S
N1151 C1149 1.384 . S
H1152 C1158 0.930 . S
H1153 C1162 0.930 1_556 S
H1154 C1167 0.929 . S
H1155 C1165 0.929 . S
H1156 C1160 0.929 1_556 S
H1157 C1166 0.929 . S
C1158 H1152 0.930 . S
C1158 C1159 1.367 . S
C1158 C1166 1.378 . S
C1159 C1158 1.367 . S
C1159 C1167 1.433 . S
C1160 H1156 0.929 1_554 S
C1160 C1162 1.378 . S
C1160 C1164 1.350 . S
C1161 C1164 1.463 . S
C1161 C1166 1.350 . S
C1161 N1169 1.427 . S
C1162 H1153 0.930 1_554 S
C1162 C1160 1.378 . S
C1162 C1163 1.367 . S
C1163 C1162 1.367 . S
C1163 C1165 1.433 . S
C1164 C1160 1.350 . S
C1164 C1161 1.463 . S
C1164 N1168 1.427 . S
C1165 H1155 0.929 . S
C1165 C1163 1.433 . S
C1165 N1168 1.384 . S
C1166 H1157 0.929 . S
C1166 C1158 1.378 . S
C1166 C1161 1.350 . S
C1167 H1154 0.929 . S
C1167 C1159 1.433 . S
C1167 N1169 1.384 . S
N1168 C1164 1.427 . S
N1168 C1165 1.384 . S
N1169 C1161 1.427 . S
N1169 C1167 1.384 . S
H1170 C1176 0.930 . S
H1171 C1180 0.930 . S
H1172 C1185 0.929 . S
H1173 C1183 0.929 . S
H1174 C1178 0.929 . S
H1175 C1184 0.929 . S
C1176 H1170 0.930 . S
C1176 C1177 1.367 . S
C1176 C1184 1.378 . S
C1177 C1176 1.367 . S
C1177 C1185 1.433 . S
C1178 H1174 0.929 . S
C1178 C1180 1.378 . S
C1178 C1182 1.350 . S
C1179 C1182 1.463 . S
C1179 C1184 1.350 . S
C1179 N1187 1.427 . S
C1180 H1171 0.930 . S
C1180 C1178 1.378 . S
C1180 C1181 1.367 . S
C1181 C1180 1.367 . S
C1181 C1183 1.433 . S
C1182 C1178 1.350 . S
C1182 C1179 1.463 . S
C1182 N1186 1.427 . S
C1183 H1173 0.929 . S
C1183 C1181 1.433 . S
C1183 N1186 1.384 . S
C1184 H1175 0.929 . S
C1184 C1176 1.378 . S
C1184 C1179 1.350 . S
C1185 H1172 0.929 . S
C1185 C1177 1.433 . S
C1185 N1187 1.384 . S
N1186 C1182 1.427 . S
N1186 C1183 1.384 . S
N1187 C1179 1.427 . S
N1187 C1185 1.384 . S
H1188 C1194 0.930 1_556 S
H1189 C1198 0.930 . S
H1190 C1203 0.929 . S
H1191 C1201 0.929 . S
H1192 C1196 0.929 . S
H1193 C1202 0.929 . S
C1194 H1188 0.930 1_554 S
C1194 C1195 1.367 . S
C1194 C1202 1.378 . S
C1195 C1194 1.367 . S
C1195 C1203 1.433 . S
C1196 H1192 0.929 . S
C1196 C1198 1.378 . S
C1196 C1200 1.350 . S
C1197 C1200 1.463 . S
C1197 C1202 1.350 . S
C1197 N1205 1.427 . S
C1198 H1189 0.930 . S
C1198 C1196 1.378 . S
C1198 C1199 1.367 . S
C1199 C1198 1.367 . S
C1199 C1201 1.433 . S
C1200 C1196 1.350 . S
C1200 C1197 1.463 . S
C1200 N1204 1.427 . S
C1201 H1191 0.929 . S
C1201 C1199 1.433 . S
C1201 N1204 1.384 . S
C1202 H1193 0.929 . S
C1202 C1194 1.378 . S
C1202 C1197 1.350 . S
C1203 H1190 0.929 . S
C1203 C1195 1.433 . S
C1203 N1205 1.384 . S
N1204 C1200 1.427 . S
N1204 C1201 1.384 . S
N1205 C1197 1.427 . S
N1205 C1203 1.384 . S
H1206 C1212 0.930 . S
H1207 C1216 0.930 . S
H1208 C1221 0.929 . S
H1209 C1219 0.929 . S
H1210 C1214 0.929 . S
H1211 C1220 0.929 . S
C1212 H1206 0.930 . S
C1212 C1213 1.367 . S
C1212 C1220 1.378 . S
C1213 C1212 1.367 . S
C1213 C1221 1.433 . S
C1214 H1210 0.929 . S
C1214 C1216 1.378 . S
C1214 C1218 1.350 . S
C1215 C1218 1.463 . S
C1215 C1220 1.350 . S
C1215 N1223 1.427 . S
C1216 H1207 0.930 . S
C1216 C1214 1.378 . S
C1216 C1217 1.367 . S
C1217 C1216 1.367 . S
C1217 C1219 1.433 . S
C1218 C1214 1.350 . S
C1218 C1215 1.463 . S
C1218 N1222 1.427 . S
C1219 H1209 0.929 . S
C1219 C1217 1.433 . S
C1219 N1222 1.384 . S
C1220 H1211 0.929 . S
C1220 C1212 1.378 . S
C1220 C1215 1.350 . S
C1221 H1208 0.929 . S
C1221 C1213 1.433 . S
C1221 N1223 1.384 . S
N1222 C1218 1.427 . S
N1222 C1219 1.384 . S
N1223 C1215 1.427 . S
N1223 C1221 1.384 . S
H1224 C1230 0.930 . S
H1225 C1234 0.930 . S
H1226 C1239 0.929 . S
H1227 C1237 0.929 . S
H1228 C1232 0.929 . S
H1229 C1238 0.929 . S
C1230 H1224 0.930 . S
C1230 C1231 1.367 . S
C1230 C1238 1.378 . S
C1231 C1230 1.367 . S
C1231 C1239 1.433 . S
C1232 H1228 0.929 . S
C1232 C1234 1.378 . S
C1232 C1236 1.350 . S
C1233 C1236 1.463 . S
C1233 C1238 1.350 . S
C1233 N1241 1.427 . S
C1234 H1225 0.930 . S
C1234 C1232 1.378 . S
C1234 C1235 1.367 . S
C1235 C1234 1.367 . S
C1235 C1237 1.433 . S
C1236 C1232 1.350 . S
C1236 C1233 1.463 . S
C1236 N1240 1.427 . S
C1237 H1227 0.929 . S
C1237 C1235 1.433 . S
C1237 N1240 1.384 . S
C1238 H1229 0.929 . S
C1238 C1230 1.378 . S
C1238 C1233 1.350 . S
C1239 H1226 0.929 . S
C1239 C1231 1.433 . S
C1239 N1241 1.384 . S
N1240 C1236 1.427 . S
N1240 C1237 1.384 . S
N1241 C1233 1.427 . S
N1241 C1239 1.384 . S
H1242 C1248 0.930 . S
H1243 C1252 0.930 . S
H1244 C1257 0.929 . S
H1245 C1255 0.929 . S
H1246 C1250 0.929 . S
H1247 C1256 0.929 . S
C1248 H1242 0.930 . S
C1248 C1249 1.367 . S
C1248 C1256 1.378 . S
C1249 C1248 1.367 . S
C1249 C1257 1.433 . S
C1250 H1246 0.929 . S
C1250 C1252 1.378 . S
C1250 C1254 1.350 . S
C1251 C1254 1.463 . S
C1251 C1256 1.350 . S
C1251 N1259 1.427 . S
C1252 H1243 0.930 . S
C1252 C1250 1.378 . S
C1252 C1253 1.367 . S
C1253 C1252 1.367 . S
C1253 C1255 1.433 . S
C1254 C1250 1.350 . S
C1254 C1251 1.463 . S
C1254 N1258 1.427 . S
C1255 H1245 0.929 . S
C1255 C1253 1.433 . S
C1255 N1258 1.384 . S
C1256 H1247 0.929 . S
C1256 C1248 1.378 . S
C1256 C1251 1.350 . S
C1257 H1244 0.929 . S
C1257 C1249 1.433 . S
C1257 N1259 1.384 . S
N1258 C1254 1.427 . S
N1258 C1255 1.384 . S
N1259 C1251 1.427 . S
N1259 C1257 1.384 . S
H1260 C1266 0.930 . S
H1261 C1270 0.930 . S
H1262 C1275 0.929 . S
H1263 C1273 0.929 . S
H1264 C1268 0.929 . S
H1265 C1274 0.929 . S
C1266 H1260 0.930 . S
C1266 C1267 1.367 . S
C1266 C1274 1.378 . S
C1267 C1266 1.367 . S
C1267 C1275 1.433 . S
C1268 H1264 0.929 . S
C1268 C1270 1.378 . S
C1268 C1272 1.350 . S
C1269 C1272 1.463 1_554 S
C1269 C1274 1.350 . S
C1269 N1277 1.427 . S
C1270 H1261 0.930 . S
C1270 C1268 1.378 . S
C1270 C1271 1.367 . S
C1271 C1270 1.367 . S
C1271 C1273 1.433 . S
C1272 C1268 1.350 . S
C1272 C1269 1.463 1_556 S
C1272 N1276 1.427 . S
C1273 H1263 0.929 . S
C1273 C1271 1.433 . S
C1273 N1276 1.384 . S
C1274 H1265 0.929 . S
C1274 C1266 1.378 . S
C1274 C1269 1.350 . S
C1275 H1262 0.929 . S
C1275 C1267 1.433 . S
C1275 N1277 1.384 . S
N1276 C1272 1.427 . S
N1276 C1273 1.384 . S
N1277 C1269 1.427 . S
N1277 C1275 1.384 . S
H1278 C1284 0.930 . S
H1279 C1288 0.930 . S
H1280 C1293 0.929 . S
H1281 C1291 0.929 . S
H1282 C1286 0.929 . S
H1283 C1292 0.929 . S
C1284 H1278 0.930 . S
C1284 C1285 1.367 . S
C1284 C1292 1.378 . S
C1285 C1284 1.367 . S
C1285 C1293 1.433 . S
C1286 H1282 0.929 . S
C1286 C1288 1.378 . S
C1286 C1290 1.350 . S
C1287 C1290 1.463 1_554 S
C1287 C1292 1.350 . S
C1287 N1295 1.427 . S
C1288 H1279 0.930 . S
C1288 C1286 1.378 . S
C1288 C1289 1.367 . S
C1289 C1288 1.367 . S
C1289 C1291 1.433 . S
C1290 C1286 1.350 . S
C1290 C1287 1.463 1_556 S
C1290 N1294 1.427 . S
C1291 H1281 0.929 . S
C1291 C1289 1.433 . S
C1291 N1294 1.384 . S
C1292 H1283 0.929 . S
C1292 C1284 1.378 . S
C1292 C1287 1.350 . S
C1293 H1280 0.929 . S
C1293 C1285 1.433 . S
C1293 N1295 1.384 . S
N1294 C1290 1.427 . S
N1294 C1291 1.384 . S
N1295 C1287 1.427 . S
N1295 C1293 1.384 . S
H1296 C1302 0.930 . S
H1297 C1306 0.930 . S
H1298 C1311 0.929 . S
H1299 C1309 0.929 . S
H1300 C1304 0.929 . S
H1301 C1310 0.929 . S
C1302 H1296 0.930 . S
C1302 C1303 1.367 . S
C1302 C1310 1.378 . S
C1303 C1302 1.367 . S
C1303 C1311 1.433 . S
C1304 H1300 0.929 . S
C1304 C1306 1.378 . S
C1304 C1308 1.350 . S
C1305 C1308 1.463 1_554 S
C1305 C1310 1.350 . S
C1305 N1313 1.427 . S
C1306 H1297 0.930 . S
C1306 C1304 1.378 . S
C1306 C1307 1.367 . S
C1307 C1306 1.367 . S
C1307 C1309 1.433 . S
C1308 C1304 1.350 . S
C1308 C1305 1.463 1_556 S
C1308 N1312 1.427 . S
C1309 H1299 0.929 . S
C1309 C1307 1.433 . S
C1309 N1312 1.384 . S
C1310 H1301 0.929 . S
C1310 C1302 1.378 . S
C1310 C1305 1.350 . S
C1311 H1298 0.929 . S
C1311 C1303 1.433 . S
C1311 N1313 1.384 . S
N1312 C1308 1.427 . S
N1312 C1309 1.384 . S
N1313 C1305 1.427 . S
N1313 C1311 1.384 . S
H1314 C1320 0.930 . S
H1315 C1324 0.930 . S
H1316 C1329 0.929 . S
H1317 C1327 0.929 . S
H1318 C1322 0.929 . S
H1319 C1328 0.929 . S
C1320 H1314 0.930 . S
C1320 C1321 1.367 . S
C1320 C1328 1.378 . S
C1321 C1320 1.367 . S
C1321 C1329 1.433 . S
C1322 H1318 0.929 . S
C1322 C1324 1.378 . S
C1322 C1326 1.350 . S
C1323 C1326 1.463 1_556 S
C1323 C1328 1.350 . S
C1323 N1331 1.427 . S
C1324 H1315 0.930 . S
C1324 C1322 1.378 . S
C1324 C1325 1.367 . S
C1325 C1324 1.367 . S
C1325 C1327 1.433 . S
C1326 C1322 1.350 . S
C1326 C1323 1.463 1_554 S
C1326 N1330 1.427 . S
C1327 H1317 0.929 . S
C1327 C1325 1.433 . S
C1327 N1330 1.384 . S
C1328 H1319 0.929 . S
C1328 C1320 1.378 . S
C1328 C1323 1.350 . S
C1329 H1316 0.929 . S
C1329 C1321 1.433 . S
C1329 N1331 1.384 . S
N1330 C1326 1.427 . S
N1330 C1327 1.384 . S
N1331 C1323 1.427 . S
N1331 C1329 1.384 . S
H1332 C1338 0.930 . S
H1333 C1342 0.930 . S
H1334 C1347 0.929 . S
H1335 C1345 0.929 . S
H1336 C1340 0.929 . S
H1337 C1346 0.929 . S
C1338 H1332 0.930 . S
C1338 C1339 1.367 . S
C1338 C1346 1.378 . S
C1339 C1338 1.367 . S
C1339 C1347 1.433 . S
C1340 H1336 0.929 . S
C1340 C1342 1.378 . S
C1340 C1344 1.350 . S
C1341 C1344 1.463 1_554 S
C1341 C1346 1.350 . S
C1341 N1349 1.427 . S
C1342 H1333 0.930 . S
C1342 C1340 1.378 . S
C1342 C1343 1.367 . S
C1343 C1342 1.367 . S
C1343 C1345 1.433 . S
C1344 C1340 1.350 . S
C1344 C1341 1.463 1_556 S
C1344 N1348 1.427 . S
C1345 H1335 0.929 . S
C1345 C1343 1.433 . S
C1345 N1348 1.384 . S
C1346 H1337 0.929 . S
C1346 C1338 1.378 . S
C1346 C1341 1.350 . S
C1347 H1334 0.929 . S
C1347 C1339 1.433 . S
C1347 N1349 1.384 . S
N1348 C1344 1.427 . S
N1348 C1345 1.384 . S
N1349 C1341 1.427 . S
N1349 C1347 1.384 . S
H1350 C1356 0.930 . S
H1351 C1360 0.930 . S
H1352 C1365 0.929 . S
H1353 C1363 0.929 . S
H1354 C1358 0.929 . S
H1355 C1364 0.929 . S
C1356 H1350 0.930 . S
C1356 C1357 1.367 . S
C1356 C1364 1.378 . S
C1357 C1356 1.367 . S
C1357 C1365 1.433 . S
C1358 H1354 0.929 . S
C1358 C1360 1.378 . S
C1358 C1362 1.350 . S
C1359 C1362 1.463 1_554 S
C1359 C1364 1.350 . S
C1359 N1367 1.427 . S
C1360 H1351 0.930 . S
C1360 C1358 1.378 . S
C1360 C1361 1.367 . S
C1361 C1360 1.367 . S
C1361 C1363 1.433 . S
C1362 C1358 1.350 . S
C1362 C1359 1.463 1_556 S
C1362 N1366 1.427 . S
C1363 H1353 0.929 . S
C1363 C1361 1.433 . S
C1363 N1366 1.384 . S
C1364 H1355 0.929 . S
C1364 C1356 1.378 . S
C1364 C1359 1.350 . S
C1365 H1352 0.929 . S
C1365 C1357 1.433 . S
C1365 N1367 1.384 . S
N1366 C1362 1.427 . S
N1366 C1363 1.384 . S
N1367 C1359 1.427 . S
N1367 C1365 1.384 . S
H1368 C1374 0.930 . S
H1369 C1378 0.930 . S
H1370 C1383 0.929 . S
H1371 C1381 0.929 . S
H1372 C1376 0.929 . S
H1373 C1382 0.929 . S
C1374 H1368 0.930 . S
C1374 C1375 1.367 . S
C1374 C1382 1.378 . S
C1375 C1374 1.367 . S
C1375 C1383 1.433 . S
C1376 H1372 0.929 . S
C1376 C1378 1.378 . S
C1376 C1380 1.350 . S
C1377 C1380 1.463 . S
C1377 C1382 1.350 . S
C1377 N1385 1.427 . S
C1378 H1369 0.930 . S
C1378 C1376 1.378 . S
C1378 C1379 1.367 . S
C1379 C1378 1.367 . S
C1379 C1381 1.433 . S
C1380 C1376 1.350 . S
C1380 C1377 1.463 . S
C1380 N1384 1.427 . S
C1381 H1371 0.929 . S
C1381 C1379 1.433 . S
C1381 N1384 1.384 . S
C1382 H1373 0.929 . S
C1382 C1374 1.378 . S
C1382 C1377 1.350 . S
C1383 H1370 0.929 . S
C1383 C1375 1.433 . S
C1383 N1385 1.384 . S
N1384 C1380 1.427 . S
N1384 C1381 1.384 . S
N1385 C1377 1.427 . S
N1385 C1383 1.384 . S
H1386 C1392 0.930 . S
H1387 C1396 0.930 . S
H1388 C1401 0.929 . S
H1389 C1399 0.929 . S
H1390 C1394 0.929 . S
H1391 C1400 0.929 . S
C1392 H1386 0.930 . S
C1392 C1393 1.367 . S
C1392 C1400 1.378 . S
C1393 C1392 1.367 . S
C1393 C1401 1.433 . S
C1394 H1390 0.929 . S
C1394 C1396 1.378 . S
C1394 C1398 1.350 . S
C1395 C1398 1.463 . S
C1395 C1400 1.350 . S
C1395 N1403 1.427 . S
C1396 H1387 0.930 . S
C1396 C1394 1.378 . S
C1396 C1397 1.367 . S
C1397 C1396 1.367 . S
C1397 C1399 1.433 . S
C1398 C1394 1.350 . S
C1398 C1395 1.463 . S
C1398 N1402 1.427 . S
C1399 H1389 0.929 . S
C1399 C1397 1.433 . S
C1399 N1402 1.384 . S
C1400 H1391 0.929 . S
C1400 C1392 1.378 . S
C1400 C1395 1.350 . S
C1401 H1388 0.929 . S
C1401 C1393 1.433 . S
C1401 N1403 1.384 . S
N1402 C1398 1.427 . S
N1402 C1399 1.384 . S
N1403 C1395 1.427 . S
N1403 C1401 1.384 . S
H1404 C1410 0.930 . S
H1405 C1414 0.930 . S
H1406 C1419 0.929 . S
H1407 C1417 0.929 . S
H1408 C1412 0.929 . S
H1409 C1418 0.929 . S
C1410 H1404 0.930 . S
C1410 C1411 1.367 . S
C1410 C1418 1.378 . S
C1411 C1410 1.367 . S
C1411 C1419 1.433 . S
C1412 H1408 0.929 . S
C1412 C1414 1.378 . S
C1412 C1416 1.350 . S
C1413 C1416 1.463 . S
C1413 C1418 1.350 . S
C1413 N1421 1.427 . S
C1414 H1405 0.930 . S
C1414 C1412 1.378 . S
C1414 C1415 1.367 . S
C1415 C1414 1.367 . S
C1415 C1417 1.433 . S
C1416 C1412 1.350 . S
C1416 C1413 1.463 . S
C1416 N1420 1.427 . S
C1417 H1407 0.929 . S
C1417 C1415 1.433 . S
C1417 N1420 1.384 . S
C1418 H1409 0.929 . S
C1418 C1410 1.378 . S
C1418 C1413 1.350 . S
C1419 H1406 0.929 . S
C1419 C1411 1.433 . S
C1419 N1421 1.384 . S
N1420 C1416 1.427 . S
N1420 C1417 1.384 . S
N1421 C1413 1.427 . S
N1421 C1419 1.384 . S
H1422 C1428 0.930 . S
H1423 C1432 0.930 . S
H1424 C1437 0.929 . S
H1425 C1435 0.929 . S
H1426 C1430 0.929 . S
H1427 C1436 0.929 . S
C1428 H1422 0.930 . S
C1428 C1429 1.367 . S
C1428 C1436 1.378 . S
C1429 C1428 1.367 . S
C1429 C1437 1.433 . S
C1430 H1426 0.929 . S
C1430 C1432 1.378 . S
C1430 C1434 1.350 . S
C1431 C1434 1.463 . S
C1431 C1436 1.350 . S
C1431 N1439 1.427 . S
C1432 H1423 0.930 . S
C1432 C1430 1.378 . S
C1432 C1433 1.367 . S
C1433 C1432 1.367 . S
C1433 C1435 1.433 . S
C1434 C1430 1.350 . S
C1434 C1431 1.463 . S
C1434 N1438 1.427 . S
C1435 H1425 0.929 . S
C1435 C1433 1.433 . S
C1435 N1438 1.384 . S
C1436 H1427 0.929 . S
C1436 C1428 1.378 . S
C1436 C1431 1.350 . S
C1437 H1424 0.929 . S
C1437 C1429 1.433 . S
C1437 N1439 1.384 . S
N1438 C1434 1.427 . S
N1438 C1435 1.384 . S
N1439 C1431 1.427 . S
N1439 C1437 1.384 . S
H1440 C1446 0.930 . S
H1441 C1450 0.930 . S
H1442 C1455 0.929 . S
H1443 C1453 0.929 . S
H1444 C1448 0.929 . S
H1445 C1454 0.929 . S
C1446 H1440 0.930 . S
C1446 C1447 1.367 . S
C1446 C1454 1.378 . S
C1447 C1446 1.367 . S
C1447 C1455 1.433 . S
C1448 H1444 0.929 . S
C1448 C1450 1.378 . S
C1448 C1452 1.350 . S
C1449 C1452 1.463 . S
C1449 C1454 1.350 . S
C1449 N1457 1.427 . S
C1450 H1441 0.930 . S
C1450 C1448 1.378 . S
C1450 C1451 1.367 . S
C1451 C1450 1.367 . S
C1451 C1453 1.433 . S
C1452 C1448 1.350 . S
C1452 C1449 1.463 . S
C1452 N1456 1.427 . S
C1453 H1443 0.929 . S
C1453 C1451 1.433 . S
C1453 N1456 1.384 . S
C1454 H1445 0.929 . S
C1454 C1446 1.378 . S
C1454 C1449 1.350 . S
C1455 H1442 0.929 . S
C1455 C1447 1.433 . S
C1455 N1457 1.384 . S
N1456 C1452 1.427 . S
N1456 C1453 1.384 . S
N1457 C1449 1.427 . S
N1457 C1455 1.384 . S
H1458 C1464 0.930 . S
H1459 C1468 0.930 . S
H1460 C1473 0.929 . S
H1461 C1471 0.929 . S
H1462 C1466 0.929 . S
H1463 C1472 0.929 . S
C1464 H1458 0.930 . S
C1464 C1465 1.367 . S
C1464 C1472 1.378 . S
C1465 C1464 1.367 . S
C1465 C1473 1.433 . S
C1466 H1462 0.929 . S
C1466 C1468 1.378 . S
C1466 C1470 1.350 . S
C1467 C1470 1.463 . S
C1467 C1472 1.350 . S
C1467 N1475 1.427 . S
C1468 H1459 0.930 . S
C1468 C1466 1.378 . S
C1468 C1469 1.367 . S
C1469 C1468 1.367 . S
C1469 C1471 1.433 . S
C1470 C1466 1.350 . S
C1470 C1467 1.463 . S
C1470 N1474 1.427 . S
C1471 H1461 0.929 . S
C1471 C1469 1.433 . S
C1471 N1474 1.384 . S
C1472 H1463 0.929 . S
C1472 C1464 1.378 . S
C1472 C1467 1.350 . S
C1473 H1460 0.929 . S
C1473 C1465 1.433 . S
C1473 N1475 1.384 . S
N1474 C1470 1.427 . S
N1474 C1471 1.384 . S
N1475 C1467 1.427 . S
N1475 C1473 1.384 . S
H1476 C1482 0.930 . S
H1477 C1486 0.930 . S
H1478 C1491 0.929 . S
H1479 C1489 0.929 . S
H1480 C1484 0.929 . S
H1481 C1490 0.929 . S
C1482 H1476 0.930 . S
C1482 C1483 1.367 . S
C1482 C1490 1.378 . S
C1483 C1482 1.367 . S
C1483 C1491 1.433 . S
C1484 H1480 0.929 . S
C1484 C1486 1.378 . S
C1484 C1488 1.350 . S
C1485 C1488 1.463 . S
C1485 C1490 1.350 . S
C1485 N1493 1.427 . S
C1486 H1477 0.930 . S
C1486 C1484 1.378 . S
C1486 C1487 1.367 . S
C1487 C1486 1.367 . S
C1487 C1489 1.433 . S
C1488 C1484 1.350 . S
C1488 C1485 1.463 . S
C1488 N1492 1.427 . S
C1489 H1479 0.929 . S
C1489 C1487 1.433 . S
C1489 N1492 1.384 . S
C1490 H1481 0.929 . S
C1490 C1482 1.378 . S
C1490 C1485 1.350 . S
C1491 H1478 0.929 . S
C1491 C1483 1.433 . S
C1491 N1493 1.384 . S
N1492 C1488 1.427 . S
N1492 C1489 1.384 . S
N1493 C1485 1.427 . S
N1493 C1491 1.384 . S
H1494 C1500 0.930 . S
H1495 C1504 0.930 . S
H1496 C1509 0.929 . S
H1497 C1507 0.929 . S
H1498 C1502 0.929 . S
H1499 C1508 0.929 . S
C1500 H1494 0.930 . S
C1500 C1501 1.367 . S
C1500 C1508 1.378 . S
C1501 C1500 1.367 . S
C1501 C1509 1.433 . S
C1502 H1498 0.929 . S
C1502 C1504 1.378 . S
C1502 C1506 1.350 . S
C1503 C1506 1.463 . S
C1503 C1508 1.350 . S
C1503 N1511 1.427 . S
C1504 H1495 0.930 . S
C1504 C1502 1.378 . S
C1504 C1505 1.367 . S
C1505 C1504 1.367 . S
C1505 C1507 1.433 . S
C1506 C1502 1.350 . S
C1506 C1503 1.463 . S
C1506 N1510 1.427 . S
C1507 H1497 0.929 . S
C1507 C1505 1.433 . S
C1507 N1510 1.384 . S
C1508 H1499 0.929 . S
C1508 C1500 1.378 . S
C1508 C1503 1.350 . S
C1509 H1496 0.929 . S
C1509 C1501 1.433 . S
C1509 N1511 1.384 . S
N1510 C1506 1.427 . S
N1510 C1507 1.384 . S
N1511 C1503 1.427 . S
N1511 C1509 1.384 . S
H1512 C1518 0.930 . S
H1513 C1522 0.930 . S
H1514 C1527 0.929 . S
H1515 C1525 0.929 . S
H1516 C1520 0.929 . S
H1517 C1526 0.929 . S
C1518 H1512 0.930 . S
C1518 C1519 1.367 . S
C1518 C1526 1.378 . S
C1519 C1518 1.367 . S
C1519 C1527 1.433 . S
C1520 H1516 0.929 . S
C1520 C1522 1.378 . S
C1520 C1524 1.350 . S
C1521 C1524 1.463 . S
C1521 C1526 1.350 . S
C1521 N1529 1.427 . S
C1522 H1513 0.930 . S
C1522 C1520 1.378 . S
C1522 C1523 1.367 . S
C1523 C1522 1.367 . S
C1523 C1525 1.433 . S
C1524 C1520 1.350 . S
C1524 C1521 1.463 . S
C1524 N1528 1.427 . S
C1525 H1515 0.929 . S
C1525 C1523 1.433 . S
C1525 N1528 1.384 . S
C1526 H1517 0.929 . S
C1526 C1518 1.378 . S
C1526 C1521 1.350 . S
C1527 H1514 0.929 . S
C1527 C1519 1.433 . S
C1527 N1529 1.384 . S
N1528 C1524 1.427 . S
N1528 C1525 1.384 . S
N1529 C1521 1.427 . S
N1529 C1527 1.384 . S
H1530 C1536 0.930 . S
H1531 C1540 0.930 . S
H1532 C1545 0.929 . S
H1533 C1543 0.929 . S
H1534 C1538 0.929 . S
H1535 C1544 0.929 . S
C1536 H1530 0.930 . S
C1536 C1537 1.367 . S
C1536 C1544 1.378 . S
C1537 C1536 1.367 . S
C1537 C1545 1.433 . S
C1538 H1534 0.929 . S
C1538 C1540 1.378 . S
C1538 C1542 1.350 . S
C1539 C1542 1.463 . S
C1539 C1544 1.350 . S
C1539 N1547 1.427 . S
C1540 H1531 0.930 . S
C1540 C1538 1.378 . S
C1540 C1541 1.367 . S
C1541 C1540 1.367 . S
C1541 C1543 1.433 . S
C1542 C1538 1.350 . S
C1542 C1539 1.463 . S
C1542 N1546 1.427 . S
C1543 H1533 0.929 . S
C1543 C1541 1.433 . S
C1543 N1546 1.384 . S
C1544 H1535 0.929 . S
C1544 C1536 1.378 . S
C1544 C1539 1.350 . S
C1545 H1532 0.929 . S
C1545 C1537 1.433 . S
C1545 N1547 1.384 . S
N1546 C1542 1.427 . S
N1546 C1543 1.384 . S
N1547 C1539 1.427 . S
N1547 C1545 1.384 . S
H1548 C1554 0.930 . S
H1549 C1558 0.930 . S
H1550 C1563 0.929 . S
H1551 C1561 0.929 . S
H1552 C1556 0.929 . S
H1553 C1562 0.929 . S
C1554 H1548 0.930 . S
C1554 C1555 1.367 . S
C1554 C1562 1.378 . S
C1555 C1554 1.367 . S
C1555 C1563 1.433 . S
C1556 H1552 0.929 . S
C1556 C1558 1.378 . S
C1556 C1560 1.350 . S
C1557 C1560 1.463 . S
C1557 C1562 1.350 . S
C1557 N1565 1.427 . S
C1558 H1549 0.930 . S
C1558 C1556 1.378 . S
C1558 C1559 1.367 . S
C1559 C1558 1.367 . S
C1559 C1561 1.433 . S
C1560 C1556 1.350 . S
C1560 C1557 1.463 . S
C1560 N1564 1.427 . S
C1561 H1551 0.929 . S
C1561 C1559 1.433 . S
C1561 N1564 1.384 . S
C1562 H1553 0.929 . S
C1562 C1554 1.378 . S
C1562 C1557 1.350 . S
C1563 H1550 0.929 . S
C1563 C1555 1.433 . S
C1563 N1565 1.384 . S
N1564 C1560 1.427 . S
N1564 C1561 1.384 . S
N1565 C1557 1.427 . S
N1565 C1563 1.384 . S
H1566 C1572 0.930 . S
H1567 C1576 0.930 . S
H1568 C1581 0.929 . S
H1569 C1579 0.929 . S
H1570 C1574 0.929 . S
H1571 C1580 0.929 . S
C1572 H1566 0.930 . S
C1572 C1573 1.367 . S
C1572 C1580 1.378 . S
C1573 C1572 1.367 . S
C1573 C1581 1.433 . S
C1574 H1570 0.929 . S
C1574 C1576 1.378 . S
C1574 C1578 1.350 . S
C1575 C1578 1.463 . S
C1575 C1580 1.350 . S
C1575 N1583 1.427 . S
C1576 H1567 0.930 . S
C1576 C1574 1.378 . S
C1576 C1577 1.367 . S
C1577 C1576 1.367 . S
C1577 C1579 1.433 . S
C1578 C1574 1.350 . S
C1578 C1575 1.463 . S
C1578 N1582 1.427 . S
C1579 H1569 0.929 . S
C1579 C1577 1.433 . S
C1579 N1582 1.384 . S
C1580 H1571 0.929 . S
C1580 C1572 1.378 . S
C1580 C1575 1.350 . S
C1581 H1568 0.929 . S
C1581 C1573 1.433 . S
C1581 N1583 1.384 . S
N1582 C1578 1.427 . S
N1582 C1579 1.384 . S
N1583 C1575 1.427 . S
N1583 C1581 1.384 . S
C619 C455 1.715 . S
C623 C8 1.739 . S
C637 C42 1.735 . S
C641 C489 1.713 . S
C655 C76 1.737 . S
C659 C421 1.706 . S
C673 C81 1.707 . S
C677 C246 1.735 . S
C691 C280 1.736 . S
C695 C13 1.715 . S
C709 C47 1.714 . S
C713 C212 1.739 . S
C727 C119 1.737 . S
C731 C344 1.715 . S
C745 C153 1.739 . S
C749 C378 1.714 . S
C763 C310 1.710 . S
C767 C187 1.735 . S
C781 C561 1.735 . S
C785 C174 1.708 . S
C799 C106 1.706 . S
C803 C595 1.736 . S
C817 C527 1.740 . S
C821 C140 1.713 . S
C835 C285 1.737 . S
C839 C450 1.739 . S
C853 C217 1.709 . S
C857 C484 1.740 . S
C871 C251 1.707 . S
C875 C416 1.736 . S
C889 C323 1.738 . S
C893 C548 1.715 1_545 S
C907 C582 1.713 . S
C911 C357 1.735 . S
C925 C514 1.710 . S
C929 C391 1.740 . S
C943 C4 1.520 . S
C947 C144 1.545 . S
C961 C178 1.551 1_565 S
C965 C38 1.508 . S
C979 C110 1.550 . S
C983 C72 1.510 . S
C997 C149 1.512 . S
C1001 C85 1.549 . S
C1015 C183 1.520 . S
C1019 C17 1.544 . S
C1033 C115 1.511 . S
C1037 C51 1.550 . S
C1051 C348 1.548 . S
C1055 C208 1.513 . S
C1069 C382 1.545 . S
C1073 C242 1.520 . S
C1087 C314 1.552 . S
C1091 C276 1.508 . S
C1105 C353 1.521 . S
C1109 C289 1.545 . S
C1123 C387 1.509 . S
C1127 C221 1.551 . S
C1141 C319 1.517 . S
C1145 C255 1.546 . S
C1159 C552 1.547 . S
C1163 C412 1.516 . S
C1177 C586 1.545 . S
C1181 C446 1.521 . S
C1195 C480 1.515 . S
C1199 C518 1.548 . S
C1213 C493 1.546 . S
C1217 C557 1.517 . S
C1231 C425 1.549 . S
C1235 C591 1.511 . S
C1249 C523 1.510 . S
C1253 C459 1.551 . S
C1267 C0 1.233 . S
C1271 C29 1.233 . S
C1285 C34 1.232 . S
C1289 C63 1.232 . S
C1303 C68 1.233 . S
C1307 C97 1.233 . S
C1321 C131 1.232 . S
C1325 C102 1.232 . S
C1339 C136 1.231 . S
C1343 C165 1.231 . S
C1357 C170 1.233 . S
C1361 C199 1.233 . S
C1375 C233 1.231 1_554 S
C1379 C204 1.231 . S
C1393 C238 1.233 . S
C1397 C267 1.233 1_554 S
C1411 C301 1.232 1_554 S
C1415 C272 1.232 . S
C1429 C335 1.231 . S
C1433 C306 1.231 . S
C1447 C369 1.233 . S
C1451 C340 1.233 . S
C1465 C403 1.232 . S
C1469 C374 1.232 . S
C1483 C437 1.233 . S
C1487 C408 1.233 . S
C1501 C442 1.232 . S
C1505 C471 1.232 . S
C1519 C476 1.231 . S
C1523 C505 1.231 . S
C1537 C510 1.232 1_556 S
C1541 C539 1.232 . S
C1555 C544 1.233 1_556 S
C1559 C573 1.233 . S
C1573 C607 1.233 . S
C1577 C578 1.233 1_556 S
