# Generated by pormake.
# Topology sow, (4)-cn, num edge types: 1
# Building blocks:
#     Node 0, Type 0, BuildingBlock: ESEHIV_clean_sbu_0, # of connection points: 4
#     Node 1, Type 0, BuildingBlock: ESEHIV_clean_sbu_0, # of connection points: 4
#     Node 2, Type 0, BuildingBlock: ESEHIV_clean_sbu_0, # of connection points: 4
#     Node 3, Type 0, BuildingBlock: ESEHIV_clean_sbu_0, # of connection points: 4
#     Node 4, Type 0, BuildingBlock: ESEHIV_clean_sbu_0, # of connection points: 4
#     Node 5, Type 0, BuildingBlock: ESEHIV_clean_sbu_0, # of connection points: 4
#     Node 6, Type 0, BuildingBlock: ESEHIV_clean_sbu_0, # of connection points: 4
#     Node 7, Type 0, BuildingBlock: ESEHIV_clean_sbu_0, # of connection points: 4
#     Edge 8, Type (0, 0), BuildingBlock: ZUJKAS_clean_linker_0, # of connection points: 2
#     Edge 9, Type (0, 0), BuildingBlock: ZUJKAS_clean_linker_0, # of connection points: 2
#     Edge 10, Type (0, 0), BuildingBlock: ZUJKAS_clean_linker_0, # of connection points: 2
#     Edge 11, Type (0, 0), BuildingBlock: ZUJKAS_clean_linker_0, # of connection points: 2
#     Edge 12, Type (0, 0), BuildingBlock: ZUJKAS_clean_linker_0, # of connection points: 2
#     Edge 13, Type (0, 0), BuildingBlock: ZUJKAS_clean_linker_0, # of connection points: 2
#     Edge 14, Type (0, 0), BuildingBlock: ZUJKAS_clean_linker_0, # of connection points: 2
#     Edge 15, Type (0, 0), BuildingBlock: ZUJKAS_clean_linker_0, # of connection points: 2
#     Edge 16, Type (0, 0), BuildingBlock: ZUJKAS_clean_linker_0, # of connection points: 2
#     Edge 17, Type (0, 0), BuildingBlock: ZUJKAS_clean_linker_0, # of connection points: 2
#     Edge 18, Type (0, 0), BuildingBlock: ZUJKAS_clean_linker_0, # of connection points: 2
#     Edge 19, Type (0, 0), BuildingBlock: ZUJKAS_clean_linker_0, # of connection points: 2
#     Edge 20, Type (0, 0), BuildingBlock: ZUJKAS_clean_linker_0, # of connection points: 2
#     Edge 21, Type (0, 0), BuildingBlock: ZUJKAS_clean_linker_0, # of connection points: 2
#     Edge 22, Type (0, 0), BuildingBlock: ZUJKAS_clean_linker_0, # of connection points: 2
#     Edge 23, Type (0, 0), BuildingBlock: ZUJKAS_clean_linker_0, # of connection points: 2
# Relax obj value: 0.065
# Max RMSD: 0.207
# Mean RMSD: 0.186
data_MOF--net-sow--node1-ESEHIV_clean_sbu_0--edge1-ZUJKAS_clean_linker_0
_symmetry_space_group_name_H-M    P1
_symmetry_Int_Tables_number       1
_symmetry_cell_setting            triclinic
loop_
_symmetry_equiv_pos_as_xyz
'x, y, z'
_cell_length_a     62.551374
_cell_length_b     23.364015
_cell_length_c     28.8736
_cell_angle_alpha  89.065141
_cell_angle_beta   89.822367
_cell_angle_gamma 90.116997
loop_
_atom_site_label
_atom_site_type_symbol
_atom_site_fract_x
_atom_site_fract_y
_atom_site_fract_z
_atom_type_partial_charge
Cu0 Cu 0.14358 0.05852 0.17177 0.0
N1 N 0.15514 0.04322 0.23049 0.0
N2 N 0.17647 0.03992 0.29255 0.0
C3 C 0.17481 0.05471 0.24716 0.0
C4 C 0.15723 0.01803 0.30457 0.0
C5 C 0.14418 0.02 0.2663 0.0
O6 O 0.16603 0.0699 0.12541 0.0
C7 C 0.12165 0.15548 0.20891 0.0
O8 O 0.13611 0.15349 0.24178 0.0
H9 H 0.18738 0.07505 0.22692 0.0
H10 H 0.12767 0.00635 0.26476 0.0
N11 N 0.12739 0.99519 0.15482 0.0
N12 N 0.0998 0.94296 0.13026 0.0
C13 C 0.10799 0.99614 0.13467 0.0
C14 C 0.1317 0.93965 0.16331 0.0
C15 C 0.11469 0.90729 0.14826 0.0
C16 C 0.17176 0.11852 0.10911 0.0
O17 O 0.16256 0.1649 0.12475 0.0
H18 H 0.09975 0.0352 0.12494 0.0
H19 H 0.146 0.92397 0.18016 0.0
O20 O 0.12324 0.1217 0.17488 0.0
H21 H 0.1529 0.00177 0.33867 0.0
H22 H 0.11336 0.86113 0.15054 0.0
Cu23 Cu 0.37657 0.20447 0.66151 0.0
N24 N 0.36097 0.22419 0.71431 0.0
N25 N 0.33757 0.22161 0.77313 0.0
C26 C 0.3442 0.19631 0.73379 0.0
C27 C 0.35061 0.26721 0.77819 0.0
C28 C 0.36497 0.26868 0.74195 0.0
O29 O 0.35688 0.17506 0.61549 0.0
C30 C 0.40661 0.14643 0.71936 0.0
O31 O 0.39255 0.15376 0.75258 0.0
H32 H 0.33742 0.15749 0.72005 0.0
H33 H 0.37764 0.29962 0.73637 0.0
N34 N 0.38942 0.26977 0.63575 0.0
N35 N 0.41499 0.32432 0.60318 0.0
C36 C 0.40959 0.27172 0.61941 0.0
C37 C 0.38162 0.32293 0.62959 0.0
C38 C 0.39737 0.35673 0.60941 0.0
C39 C 0.35039 0.12383 0.61077 0.0
O40 O 0.35814 0.08297 0.63756 0.0
H41 H 0.41998 0.23482 0.61887 0.0
H42 H 0.3657 0.33619 0.63933 0.0
O43 O 0.40109 0.1564 0.67755 0.0
H44 H 0.3498 0.29764 0.806 0.0
H45 H 0.39602 0.4018 0.6007 0.0
Cu46 Cu 0.64509 0.413 0.856 0.0
N47 N 0.66094 0.43894 0.80463 0.0
N48 N 0.68597 0.44795 0.74931 0.0
C49 C 0.67853 0.41579 0.78536 0.0
C50 C 0.67246 0.49281 0.74588 0.0
C51 C 0.65709 0.48708 0.7799 0.0
O52 O 0.66452 0.3897 0.90542 0.0
C53 C 0.61256 0.32915 0.86601 0.0
O54 O 0.61454 0.34039 0.91025 0.0
H55 H 0.68593 0.37677 0.798 0.0
H56 H 0.64401 0.51613 0.78632 0.0
N57 N 0.62919 0.47436 0.87832 0.0
N58 N 0.60206 0.52929 0.90163 0.0
C59 C 0.60779 0.47916 0.88237 0.0
C60 C 0.63728 0.52292 0.89545 0.0
C61 C 0.62064 0.55689 0.90978 0.0
C62 C 0.67583 0.3445 0.90616 0.0
O63 O 0.67401 0.30785 0.87237 0.0
H64 H 0.59667 0.44664 0.87133 0.0
H65 H 0.65416 0.53253 0.89786 0.0
O66 O 0.62516 0.35361 0.83714 0.0
H67 H 0.67342 0.52704 0.72024 0.0
H68 H 0.62219 0.59807 0.92607 0.0
Cu69 Cu 0.87645 0.27665 0.35923 0.0
N70 N 0.85906 0.246 0.31333 0.0
N71 N 0.83525 0.23989 0.25576 0.0
C72 C 0.84598 0.27512 0.28436 0.0
C73 C 0.84192 0.18661 0.26755 0.0
C74 C 0.85655 0.19055 0.30296 0.0
O75 O 0.85792 0.3224 0.39837 0.0
C76 C 0.91571 0.33827 0.3503 0.0
O77 O 0.91412 0.34439 0.39532 0.0
H78 H 0.84452 0.32125 0.28422 0.0
H79 H 0.86465 0.15542 0.32028 0.0
N80 N 0.88841 0.21773 0.39539 0.0
N81 N 0.91324 0.16664 0.43338 0.0
C82 C 0.9094 0.20593 0.39961 0.0
C83 C 0.87853 0.18403 0.42704 0.0
C84 C 0.89379 0.15251 0.45058 0.0
C85 C 0.86148 0.33224 0.44092 0.0
O86 O 0.87992 0.3176 0.45913 0.0
H87 H 0.92172 0.22786 0.37993 0.0
H88 H 0.86151 0.18424 0.43384 0.0
O89 O 0.90007 0.31655 0.32856 0.0
H90 H 0.83635 0.14726 0.2524 0.0
H91 H 0.89078 0.1226 0.47887 0.0
Cu92 Cu 0.88757 0.61015 0.94271 0.0
N93 N 0.91092 0.57703 0.91296 0.0
N94 N 0.94199 0.57256 0.8746 0.0
C95 C 0.92961 0.6034 0.90324 0.0
C96 C 0.93069 0.52451 0.86628 0.0
C97 C 0.91152 0.52745 0.88996 0.0
O98 O 0.89859 0.67669 0.97416 0.0
C99 C 0.85002 0.65735 0.89924 0.0
O100 O 0.84599 0.6815 0.93909 0.0
H101 H 0.9335 0.64601 0.91454 0.0
H102 H 0.89851 0.49695 0.88871 0.0
N103 N 0.87552 0.55908 0.98621 0.0
N104 N 0.85343 0.52156 0.03997 0.0
C105 C 0.85759 0.56674 1.0114 0.0
C106 C 0.88301 0.50739 0.99929 0.0
C107 C 0.86945 0.48416 0.03239 0.0
C108 C 0.9048 0.72142 0.95226 0.0
O109 O 0.9005 0.72658 0.90787 0.0
H110 H 0.84803 0.60519 1.00937 0.0
H111 H 0.89735 0.48795 0.98574 0.0
O112 O 0.86688 0.62768 0.89463 0.0
H113 H 0.9356 0.49052 0.84359 0.0
H114 H 0.87118 0.44265 0.04911 0.0
Cu115 Cu 0.65547 0.57558 0.43695 0.0
N116 N 0.64533 0.64295 0.40925 0.0
N117 N 0.62394 0.70587 0.37327 0.0
C118 C 0.62526 0.65444 0.39515 0.0
C119 C 0.64394 0.7277 0.37413 0.0
C120 C 0.65706 0.68884 0.39642 0.0
O121 O 0.63159 0.52364 0.44831 0.0
C122 C 0.67681 0.54857 0.35421 0.0
O123 O 0.65963 0.57177 0.33594 0.0
H124 H 0.61206 0.62492 0.39952 0.0
H125 H 0.67408 0.69307 0.40204 0.0
N126 N 0.66557 0.59348 0.49569 0.0
N127 N 0.6855 0.61559 0.55718 0.0
C128 C 0.68542 0.60539 0.51105 0.0
C129 C 0.65279 0.59612 0.53303 0.0
C130 C 0.66493 0.60949 0.57084 0.0
C131 C 0.61823 0.50501 0.419 0.0
O132 O 0.62112 0.5164 0.37472 0.0
H133 H 0.69939 0.60665 0.48887 0.0
H134 H 0.63574 0.58817 0.53273 0.0
O135 O 0.67805 0.54361 0.39817 0.0
H136 H 0.6488 0.76864 0.3595 0.0
H137 H 0.65902 0.61293 0.60592 0.0
Cu138 Cu 0.38585 0.88007 0.06621 0.0
N139 N 0.40716 0.91302 0.10222 0.0
N140 N 0.43709 0.91941 0.14387 0.0
C141 C 0.42631 0.88961 0.1118 0.0
C142 C 0.42424 0.96368 0.15462 0.0
C143 C 0.40579 0.95964 0.12879 0.0
O144 O 0.39925 0.81791 0.03283 0.0
C145 C 0.36502 0.84293 0.14918 0.0
O146 O 0.3845 0.83963 0.16583 0.0
H147 H 0.4317 0.84959 0.09759 0.0
H148 H 0.39196 0.98724 0.13066 0.0
N149 N 0.3752 0.93443 0.02418 0.0
N150 N 0.35358 0.9781 0.97299 0.0
C151 C 0.35753 0.9297 0.99796 0.0
C152 C 0.38278 0.98744 0.01566 0.0
C153 C 0.36953 0.01444 0.98416 0.0
C154 C 0.40467 0.77119 0.05278 0.0
O155 O 0.39845 0.76127 0.09564 0.0
H156 H 0.34786 0.8913 0.99737 0.0
H157 H 0.39679 0.0055 0.03174 0.0
O158 O 0.36236 0.85616 0.1066 0.0
H159 H 0.42767 0.99581 0.18015 0.0
H160 H 0.37138 0.05793 0.97134 0.0
Cu161 Cu 0.15732 0.94047 0.58109 0.0
N162 N 0.14708 0.87223 0.60759 0.0
N163 N 0.1261 0.80732 0.64306 0.0
C164 C 0.12691 0.85793 0.61973 0.0
C165 C 0.14651 0.78878 0.64488 0.0
C166 C 0.15937 0.82882 0.62298 0.0
O167 O 0.13398 0.99475 0.57381 0.0
C168 C 0.1821 0.00893 0.64492 0.0
O169 O 0.16619 0.04552 0.64537 0.0
H170 H 0.11323 0.88511 0.61334 0.0
H171 H 0.17659 0.82738 0.61973 0.0
N172 N 0.16726 0.9254 0.52161 0.0
N173 N 0.18821 0.91201 0.4598 0.0
C174 C 0.18753 0.92282 0.50572 0.0
C175 C 0.15475 0.91603 0.48477 0.0
C176 C 0.16756 0.90775 0.44667 0.0
C177 C 0.12011 0.00664 0.60448 0.0
O178 O 0.12254 0.9868 0.64698 0.0
H179 H 0.2014 0.92947 0.52729 0.0
H180 H 0.13746 0.91527 0.48568 0.0
O181 O 0.18107 0.96529 0.61922 0.0
H182 H 0.15187 0.74955 0.66153 0.0
H183 H 0.16201 0.89833 0.41216 0.0
H184 H 0.30154 0.1624 0.75141 0.0
H185 H 0.27225 0.13551 0.80384 0.0
H186 H 0.30556 0.2133 0.91728 0.0
H187 H 0.33492 0.23942 0.86539 0.0
H188 H 0.28975 0.11301 0.94376 0.0
H189 H 0.22586 0.23424 0.85211 0.0
H190 H 0.23879 0.18113 0.81776 0.0
H191 H 0.2537 0.24224 0.83699 0.0
C192 C 0.30267 0.1735 0.78756 0.0
C193 C 0.32051 0.2037 0.80403 0.0
C194 C 0.2858 0.15849 0.81749 0.0
C195 C 0.28648 0.17294 0.86454 0.0
C196 C 0.30453 0.20186 0.88114 0.0
H197 H 0.18837 0.21554 0.06839 0.0
H198 H 0.21566 0.22263 1.00777 0.0
C199 C 0.32128 0.21719 0.85129 0.0
C200 C 0.26867 0.15808 0.89705 0.0
H201 H 0.21554 0.18039 0.91827 0.0
C202 C 0.27352 0.12771 0.93811 0.0
C203 C 0.2474 0.17682 0.88963 0.0
C204 C 0.2411 0.21081 0.84695 0.0
C205 C 0.25793 0.11695 0.97237 0.0
C206 C 0.23678 0.1366 0.96529 0.0
C207 C 0.23177 0.16548 0.9237 0.0
C208 C 0.21999 0.13118 1.00182 0.0
C209 C 0.26446 0.08646 0.01655 0.0
C210 C 0.21315 0.07737 0.01851 0.0
C211 C 0.19758 0.07316 0.05347 0.0
C212 C 0.1884 0.12272 0.07222 0.0
C213 C 0.19511 0.17648 0.05496 0.0
C214 C 0.21069 0.18062 0.02014 0.0
H215 H 0.28211 0.08535 0.02072 0.0
H216 H 0.25735 0.10741 0.0472 0.0
H217 H 0.2586 0.04163 0.0159 0.0
H218 H 0.21976 0.03858 1.00434 0.0
H219 H 0.19269 0.03102 0.06563 0.0
H220 H 0.17522 0.06633 0.38325 0.0
H221 H 0.20552 0.07845 0.43532 0.0
H222 H 0.24886 0.03968 0.32359 0.0
H223 H 0.21847 0.03004 0.27091 0.0
H224 H 0.23428 0.01033 0.46637 0.0
H225 H 0.27662 0.18057 0.36696 0.0
H226 H 0.25009 0.15732 0.35202 0.0
H227 H 0.27313 0.11728 0.33362 0.0
C228 C 0.19123 0.06082 0.36973 0.0
C229 C 0.19449 0.04783 0.32286 0.0
C230 C 0.20857 0.06774 0.39954 0.0
C231 C 0.22963 0.06138 0.38336 0.0
C232 C 0.2329 0.04711 0.33669 0.0
H233 H 0.33696 0.0194 0.57882 0.0
H234 H 0.30839 0.00083 0.523 0.0
C235 C 0.21552 0.04128 0.30658 0.0
C236 C 0.24795 0.06857 0.41578 0.0
H237 H 0.29569 0.13757 0.4294 0.0
C238 C 0.24768 0.03831 0.45829 0.0
C239 C 0.26541 0.1055 0.40566 0.0
C240 C 0.26626 0.14243 0.36231 0.0
C241 C 0.26423 0.04388 0.4908 0.0
C242 C 0.28193 0.07973 0.48015 0.0
C243 C 0.28226 0.10971 0.43755 0.0
C244 C 0.29964 0.08992 0.51361 0.0
C245 C 0.26214 0.01266 0.53677 0.0
C246 C 0.30486 0.14619 0.5258 0.0
C247 C 0.32146 0.15694 0.55679 0.0
C248 C 0.33322 0.11164 0.57675 0.0
C249 C 0.32812 0.05523 0.56438 0.0
C250 C 0.31164 0.04453 0.53274 0.0
H251 H 0.24528 0.0005 0.54435 0.0
H252 H 0.27168 0.97272 0.53581 0.0
H253 H 0.26813 0.03921 0.56554 0.0
H254 H 0.29594 0.18204 0.51159 0.0
H255 H 0.32486 0.20091 0.56557 0.0
H256 H 0.81154 0.33776 0.24937 0.0
H257 H 0.78483 0.36191 0.19051 0.0
H258 H 0.79651 0.20125 0.12375 0.0
H259 H 0.82367 0.17757 0.18124 0.0
H260 H 0.79439 0.29564 0.06206 0.0
H261 H 0.72482 0.29083 0.18257 0.0
H262 H 0.74632 0.33813 0.19751 0.0
H263 H 0.75058 0.26208 0.19864 0.0
C264 C 0.8086 0.30767 0.22203 0.0
C265 C 0.81973 0.25529 0.22058 0.0
C266 C 0.79312 0.32136 0.18862 0.0
C267 C 0.78837 0.28288 0.15321 0.0
C268 C 0.79976 0.23135 0.15102 0.0
H269 H 0.70335 0.25417 0.91787 0.0
H270 H 0.73054 0.24113 0.97785 0.0
C271 C 0.81521 0.21766 0.18426 0.0
C272 C 0.77163 0.2958 0.11811 0.0
H273 H 0.7178 0.31406 0.10423 0.0
C274 C 0.77764 0.29973 0.07128 0.0
C275 C 0.7498 0.30161 0.13021 0.0
C276 C 0.74237 0.29759 0.17991 0.0
C277 C 0.76245 0.30926 0.03623 0.0
C278 C 0.74055 0.31335 0.04815 0.0
C279 C 0.73456 0.31032 0.09506 0.0
C280 C 0.72362 0.32052 1.0124 0.0
C281 C 0.77007 0.31569 0.98678 0.0
C282 C 0.71018 0.36855 1.01266 0.0
C283 C 0.69449 0.37593 0.97858 0.0
C284 C 0.69182 0.33523 0.94359 0.0
C285 C 0.70501 0.28652 0.94405 0.0
C286 C 0.72068 0.27918 0.97818 0.0
H287 H 0.78727 0.32743 0.98492 0.0
H288 H 0.76798 0.27436 0.96893 0.0
H289 H 0.7607 0.34882 0.96777 0.0
H290 H 0.71205 0.40084 0.03887 0.0
H291 H 0.68461 0.41392 0.97942 0.0
H292 H 0.71035 0.52652 0.7033 0.0
H293 H 0.74074 0.5083 0.65245 0.0
H294 H 0.73359 0.3268 0.67718 0.0
H295 H 0.70344 0.34485 0.72922 0.0
H296 H 0.7751 0.35784 0.67813 0.0
H297 H 0.73666 0.45096 0.5218 0.0
H298 H 0.73739 0.49917 0.5694 0.0
H299 H 0.722 0.43437 0.57431 0.0
C300 C 0.71517 0.4827 0.69788 0.0
C301 C 0.70432 0.43713 0.72021 0.0
C302 C 0.73251 0.47233 0.66854 0.0
C303 C 0.73916 0.41612 0.65999 0.0
C304 C 0.7287 0.37056 0.683 0.0
H305 H 0.81859 0.32282 0.42555 0.0
H306 H 0.7895 0.34245 0.47951 0.0
C307 C 0.71148 0.38093 0.71286 0.0
C308 C 0.757 0.40494 0.62706 0.0
H309 H 0.77376 0.43114 0.51601 0.0
C310 C 0.77479 0.37362 0.6426 0.0
C311 C 0.7564 0.42424 0.58035 0.0
C312 C 0.73698 0.45344 0.56019 0.0
C313 C 0.79211 0.36193 0.61303 0.0
C314 C 0.79206 0.38417 0.56699 0.0
C315 C 0.77408 0.4148 0.55138 0.0
C316 C 0.80998 0.37427 0.53377 0.0
C317 C 0.80988 0.32425 0.63121 0.0
C318 C 0.83127 0.38691 0.54547 0.0
C319 C 0.84802 0.37456 0.5149 0.0
C320 C 0.84378 0.35105 0.47136 0.0
C321 C 0.82241 0.34123 0.45872 0.0
C322 C 0.80574 0.35233 0.48968 0.0
H323 H 0.80432 0.29646 0.66045 0.0
H324 H 0.81638 0.2965 0.60371 0.0
H325 H 0.82299 0.35155 0.64434 0.0
H326 H 0.83501 0.40588 0.57843 0.0
H327 H 0.86431 0.38306 0.52546 0.0
H328 H 0.8519 0.45488 0.11815 0.0
H329 H 0.82207 0.445 0.1728 0.0
H330 H 0.78515 0.56412 0.09048 0.0
H331 H 0.81458 0.57309 0.03505 0.0
H332 H 0.80268 0.53864 0.22267 0.0
H333 H 0.74368 0.42833 0.11142 0.0
H334 H 0.7722 0.42472 0.10103 0.0
H335 H 0.75751 0.48799 0.0854 0.0
C336 C 0.83734 0.47835 0.1112 0.0
C337 C 0.83572 0.51486 0.07202 0.0
C338 C 0.82033 0.47282 0.14266 0.0
C339 C 0.80129 0.50325 0.13541 0.0
C340 C 0.79956 0.53947 0.09635 0.0
H341 H 0.68166 0.57512 0.26264 0.0
H342 H 0.71237 0.5575 0.21302 0.0
C343 C 0.81655 0.54512 0.06495 0.0
C344 C 0.78362 0.49983 0.16984 0.0
H345 H 0.73088 0.46472 0.18207 0.0
C346 C 0.78701 0.52192 0.21411 0.0
C347 C 0.76323 0.47818 0.15842 0.0
C348 C 0.75886 0.45297 0.11163 0.0
C349 C 0.77025 0.52582 0.2465 0.0
C350 C 0.74967 0.50503 0.23486 0.0
C351 C 0.74658 0.48076 0.19111 0.0
C352 C 0.73072 0.51266 0.26564 0.0
C353 C 0.77455 0.55509 0.29177 0.0
C354 C 0.73048 0.49249 0.31184 0.0
C355 C 0.71292 0.50341 0.34078 0.0
C356 C 0.69509 0.53363 0.32375 0.0
C357 C 0.69509 0.55173 0.27704 0.0
C358 C 0.71268 0.54157 0.24847 0.0
H359 H 0.7894 0.58121 0.29027 0.0
H360 H 0.76106 0.58338 0.30138 0.0
H361 H 0.77653 0.52222 0.31958 0.0
H362 H 0.74391 0.46865 0.32565 0.0
H363 H 0.71336 0.48841 0.37646 0.0
H364 H 0.68444 0.66491 0.64177 0.0
H365 H 0.71402 0.67683 0.69506 0.0
H366 H 0.75735 0.60673 0.59448 0.0
H367 H 0.72771 0.59504 0.54038 0.0
H368 H 0.73817 0.59261 0.73217 0.0
H369 H 0.79015 0.74632 0.63557 0.0
H370 H 0.76283 0.73258 0.61908 0.0
H371 H 0.78359 0.68298 0.60418 0.0
C372 C 0.7002 0.6519 0.63068 0.0
C373 C 0.7035 0.62782 0.58683 0.0
C374 C 0.71717 0.65915 0.66126 0.0
C375 C 0.73795 0.64297 0.64883 0.0
C376 C 0.74153 0.62064 0.6046 0.0
H377 H 0.85457 0.61665 0.81146 0.0
H378 H 0.82773 0.61464 0.75011 0.0
C379 C 0.7245 0.61363 0.57373 0.0
C380 C 0.75539 0.64639 0.68354 0.0
H381 H 0.80426 0.70599 0.70503 0.0
C382 C 0.75258 0.61749 0.72617 0.0
C383 C 0.77425 0.67876 0.67574 0.0
C384 C 0.77788 0.71237 0.63135 0.0
C385 C 0.76807 0.61986 0.7611 0.0
C386 C 0.78678 0.65279 0.75357 0.0
C387 C 0.78981 0.68107 0.71076 0.0
C388 C 0.80342 0.65777 0.78979 0.0
C389 C 0.76442 0.58639 0.80559 0.0
C390 C 0.79881 0.68397 0.83208 0.0
C391 C 0.81412 0.68533 0.8673 0.0
C392 C 0.83435 0.66047 0.86082 0.0
C393 C 0.83912 0.63594 0.81777 0.0
C394 C 0.82383 0.63481 0.78257 0.0
H395 H 0.75189 0.55303 0.80169 0.0
H396 H 0.7794 0.56545 0.81742 0.0
H397 H 0.75912 0.61606 0.83295 0.0
H398 H 0.78324 0.70271 0.83806 0.0
H399 H 0.80994 0.70474 0.89989 0.0
H400 H 0.31607 0.91896 0.96683 0.0
H401 H 0.28759 0.93409 0.91072 0.0
H402 H 0.32174 0.07867 0.85234 0.0
H403 H 0.35079 0.06241 0.90671 0.0
H404 H 0.261 0.02082 0.89372 0.0
H405 H 0.31163 0.98843 0.7382 0.0
H406 H 0.32111 0.97334 0.796 0.0
H407 H 0.32055 0.04582 0.77386 0.0
C408 C 0.31778 0.95357 0.94179 0.0
C409 C 0.3361 0.98874 0.94118 0.0
C410 C 0.30129 0.96251 0.90989 0.0
C411 C 0.30266 0.00681 0.87659 0.0
C412 C 0.3205 0.04334 0.87689 0.0
H413 H 0.19072 0.09714 0.70418 0.0
H414 H 0.22014 0.10341 0.75985 0.0
C415 C 0.33707 0.03424 0.90856 0.0
C416 C 0.28546 0.0141 0.8415 0.0
H417 H 0.27586 0.01632 0.72505 0.0
C418 C 0.26426 0.02013 0.85683 0.0
C419 C 0.28968 0.01275 0.79329 0.0
C420 C 0.31194 0.00423 0.77428 0.0
C421 C 0.24718 0.02461 0.82547 0.0
C422 C 0.25141 0.02301 0.77728 0.0
C423 C 0.27263 0.01767 0.76195 0.0
C424 C 0.23403 0.02177 0.74221 0.0
C425 C 0.22474 0.0292 0.84438 0.0
C426 C 0.23253 0.97507 0.71242 0.0
C427 C 0.216 0.97182 0.68017 0.0
C428 C 0.20047 0.01518 0.67696 0.0
C429 C 0.20229 0.06278 0.70598 0.0
C430 C 0.21901 0.06621 0.73811 0.0
H431 H 0.2239 0.01714 0.88174 0.0
H432 H 0.21924 0.07414 0.84066 0.0
H433 H 0.21357 0.0015 0.82501 0.0
H434 H 0.24397 0.94038 0.7147 0.0
H435 H 0.21518 0.93458 0.65839 0.0
H436 H 0.3652 0.81462 0.2414 0.0
H437 H 0.33531 0.81878 0.29592 0.0
H438 H 0.29314 0.86853 0.18452 0.0
H439 H 0.32286 0.86357 0.12958 0.0
H440 H 0.31223 0.9147 0.31544 0.0
H441 H 0.25832 0.74541 0.25108 0.0
H442 H 0.286 0.75092 0.23364 0.0
H443 H 0.26618 0.79616 0.20688 0.0
C444 C 0.3495 0.82548 0.22829 0.0
C445 C 0.34644 0.83877 0.18107 0.0
C446 C 0.33243 0.82795 0.25957 0.0
C447 C 0.31194 0.84346 0.24429 0.0
C448 C 0.30871 0.85531 0.19699 0.0
H449 H 0.19051 0.92608 0.3664 0.0
H450 H 0.2213 0.90938 0.3167 0.0
C451 C 0.32576 0.85269 0.16562 0.0
C452 C 0.29437 0.85144 0.27826 0.0
H453 H 0.24325 0.8109 0.30459 0.0
C454 C 0.29721 0.89161 0.31339 0.0
C455 C 0.2748 0.82132 0.27551 0.0
C456 C 0.27117 0.77563 0.24003 0.0
C457 C 0.28077 0.90385 0.34492 0.0
C458 C 0.26101 0.87456 0.34161 0.0
C459 C 0.25833 0.83365 0.30695 0.0
C460 C 0.24266 0.88657 0.37278 0.0
C461 C 0.28449 0.9495 0.38034 0.0
C462 C 0.24434 0.87928 0.42101 0.0
C463 C 0.22664 0.88858 0.4497 0.0
C464 C 0.20684 0.90501 0.43069 0.0
C465 C 0.20533 0.91267 0.38236 0.0
C466 C 0.22299 0.90335 0.3538 0.0
H467 H 0.29781 0.97865 0.37014 0.0
H468 H 0.26989 0.9753 0.38524 0.0
H469 H 0.28863 0.92899 0.41405 0.0
H470 H 0.25922 0.86516 0.43644 0.0
H471 H 0.22837 0.88155 0.48662 0.0
H472 H 0.11078 0.22192 0.2826 0.0
H473 H 0.07618 0.26615 0.29824 0.0
H474 H 0.05307 0.21142 0.16558 0.0
H475 H 0.0875 0.16599 0.14995 0.0
H476 H 0.05106 0.34897 0.25375 0.0
H477 H 1.01085 0.1367 0.25606 0.0
H478 H 0.03955 0.14427 0.25611 0.0
H479 H 0.02481 0.15366 0.20317 0.0
C480 C 0.09846 0.21982 0.25643 0.0
C481 C 0.10188 0.18974 0.21522 0.0
C482 C 0.07866 0.24522 0.26546 0.0
C483 C 0.06187 0.24107 0.23354 0.0
C484 C 0.06563 0.21405 0.19119 0.0
H485 H 0.92589 0.31472 0.26016 0.0
H486 H 0.96157 0.2992 0.22801 0.0
C487 C 0.08539 0.18841 0.18218 0.0
C488 C 0.04018 0.2622 0.24579 0.0
H489 H 0.98886 0.21743 0.26549 0.0
C490 C 0.03743 0.32029 0.25616 0.0
C491 C 0.02241 0.22468 0.24923 0.0
C492 C 0.02449 0.16127 0.241 0.0
C493 C 0.01738 0.34188 0.26953 0.0
C494 C 0.99968 0.30425 0.27316 0.0
C495 C 1.0024 0.24636 0.26231 0.0
C496 C 0.97837 0.32284 0.29022 0.0
C497 C 1.01527 0.40482 0.27933 0.0
C498 C 0.97593 0.34269 0.33557 0.0
C499 C 0.95552 0.35176 0.35409 0.0
C500 C 0.93711 0.34069 0.32775 0.0
C501 C 0.93967 0.32377 0.28148 0.0
C502 C 0.96008 0.31468 0.26304 0.0
H503 H 0.02832 0.43017 0.26266 0.0
H504 H 0.99966 0.42165 0.26702 0.0
H505 H 0.01619 0.41122 0.31727 0.0
H506 H 0.98975 0.3483 0.35753 0.0
H507 H 0.9542 0.36447 0.38989 0.0
H508 H 0.42416 0.12667 0.80471 0.0
H509 H 0.46115 0.14373 0.82779 0.0
H510 H 0.47839 0.1791 0.68554 0.0
H511 H 0.44147 0.16107 0.66188 0.0
H512 H 0.51054 0.11764 0.73815 0.0
H513 H 0.48173 0.31197 0.82707 0.0
H514 H 0.46855 0.24688 0.84497 0.0
H515 H 0.46547 0.27333 0.78657 0.0
C516 C 0.43588 0.13677 0.77809 0.0
C517 C 0.42969 0.14333 0.73148 0.0
C518 C 0.45702 0.14686 0.79143 0.0
C519 C 0.47241 0.16409 0.75856 0.0
C520 C 0.46673 0.1663 0.71156 0.0
H521 H 0.60134 0.3056 0.77637 0.0
H522 H 0.56835 0.26054 0.74961 0.0
C523 C 0.44558 0.1559 0.69809 0.0
C524 C 0.49381 0.18432 0.77374 0.0
H525 H 0.51806 0.28785 0.8374 0.0
C526 C 0.51223 0.15487 0.7598 0.0
C527 C 0.496 0.23325 0.80166 0.0
C528 C 0.47693 0.26861 0.81566 0.0
C529 C 0.53274 0.17223 0.77407 0.0
C530 C 0.53486 0.22078 0.80245 0.0
C531 C 0.51643 0.25037 0.816 0.0
C532 C 0.55597 0.24244 0.81837 0.0
C533 C 0.55192 0.13784 0.75948 0.0
C534 C 0.56005 0.2474 0.86593 0.0
C535 C 0.57885 0.27336 0.88136 0.0
C536 C 0.59396 0.29541 0.84954 0.0
C537 C 0.59013 0.28887 0.80187 0.0
C538 C 0.5713 0.26281 0.78647 0.0
H539 H 0.5473 0.09433 0.74813 0.0
H540 H 0.55997 0.16007 0.72997 0.0
H541 H 0.5636 0.13369 0.78821 0.0
H542 H 0.54842 0.23224 0.89121 0.0
H543 H 0.58121 0.27766 0.91829 0.0
H544 H 0.08451 0.81749 0.61756 0.0
H545 H 0.05335 0.77576 0.6571 0.0
H546 H 0.09469 0.69738 0.75904 0.0
H547 H 0.12583 0.73856 0.71968 0.0
H548 H 0.06438 0.62335 0.72942 0.0
H549 H 0.02692 0.82911 0.77739 0.0
H550 H 0.03177 0.82285 0.71638 0.0
H551 H 0.05396 0.82472 0.7558 0.0
C552 C 0.08695 0.79165 0.64853 0.0
C553 C 0.1077 0.7815 0.66543 0.0
C554 C 0.06912 0.76794 0.67119 0.0
C555 C 0.07165 0.7342 0.71151 0.0
C556 C 0.09234 0.72333 0.72804 0.0
H557 H 0.97138 0.64552 0.90943 0.0
H558 H 1.0034 0.68266 0.87043 0.0
C559 C 0.11016 0.74672 0.70531 0.0
C560 C 0.05284 0.70956 0.73634 0.0
H561 H 1.00631 0.745 0.79097 0.0
C562 C 0.05169 0.64994 0.74296 0.0
C563 C 0.03646 0.74435 0.75467 0.0
C564 C 0.03737 0.80884 0.75117 0.0
C565 C 0.03452 0.6241 0.76686 0.0
C566 C 0.01777 0.65873 0.78375 0.0
C567 C 0.01905 0.71842 0.77766 0.0
C568 C 0.9988 0.6341 0.80803 0.0
C569 C 0.03474 0.56008 0.77462 0.0
C570 C 0.98552 0.59447 0.78598 0.0
C571 C 0.96723 0.57299 0.80829 0.0
C572 C 0.96168 0.5913 0.85291 0.0
C573 C 0.97509 0.63082 0.87498 0.0
C574 C 0.99343 0.65203 0.85275 0.0
H575 H 0.05118 0.54245 0.77192 0.0
H576 H 0.02809 0.54819 0.80916 0.0
H577 H 0.02481 0.53954 0.74777 0.0
H578 H 0.98901 0.58109 0.75103 0.0
H579 H 0.95708 0.54355 0.78992 0.0
H580 H 0.46956 0.8597 0.1057 0.0
H581 H 0.50193 0.82553 0.14446 0.0
H582 H 0.48174 0.90612 0.27058 0.0
H583 H 0.44944 0.94082 0.2319 0.0
H584 H 0.52407 0.9235 0.25303 0.0
H585 H 0.50418 0.69319 0.23657 0.0
H586 H 0.50502 0.73142 0.18218 0.0
H587 H 0.48506 0.74916 0.22456 0.0
C588 C 0.472 0.87006 0.14171 0.0
C589 C 0.45685 0.90271 0.16579 0.0
C590 C 0.49048 0.85034 0.16386 0.0
C591 C 0.49404 0.86224 0.2107 0.0
C592 C 0.47927 0.89621 0.23446 0.0
H593 H 0.58233 0.68624 0.39538 0.0
H594 H 0.55088 0.72573 0.35634 0.0
C595 C 0.46086 0.91628 0.21223 0.0
C596 C 0.51313 0.83931 0.23508 0.0
H597 H 0.53879 0.71522 0.26488 0.0
C598 C 0.52728 0.87796 0.25571 0.0
C599 C 0.51713 0.7798 0.23907 0.0
C600 C 0.50195 0.73591 0.21983 0.0
C601 C 0.54546 0.85881 0.27974 0.0
C602 C 0.5498 0.79945 0.28251 0.0
C603 C 0.53552 0.76075 0.26238 0.0
C604 C 0.56896 0.77647 0.30653 0.0
C605 C 0.55963 0.90225 0.30269 0.0
C606 C 0.58956 0.79152 0.29127 0.0
C607 C 0.60758 0.76897 0.31349 0.0
C608 C 0.60535 0.73046 0.35119 0.0
C609 C 0.58465 0.71531 0.36623 0.0
C610 C 0.56665 0.73801 0.34406 0.0
H611 H 0.55119 0.94344 0.30794 0.0
H612 H 0.5654 0.88598 0.33677 0.0
H613 H 0.57376 0.91093 0.2803 0.0
H614 H 0.59173 0.82006 0.26168 0.0
H615 H 0.62323 0.78071 0.30039 0.0
H616 H 0.07749 -0.00124 0.06304 0.0
H617 H 0.0423 0.97243 0.03239 0.0
H618 H 0.04005 0.82665 0.12566 0.0
H619 H 0.07512 0.85261 0.15646 0.0
H620 H 0.03154 0.84982 0.99539 0.0
H621 H 0.98212 0.92673 0.14233 0.0
H622 H 1.00807 0.95672 0.12848 0.0
H623 H 1.00613 0.88764 0.15616 0.0
C624 C 0.06942 0.96134 0.07722 0.0
C625 C 0.07911 0.92772 0.11215 0.0
C626 C 0.04939 0.94628 0.05957 0.0
C627 C 0.03858 0.89788 0.07703 0.0
C628 C 0.04813 0.86436 0.11195 0.0
H629 H 0.92232 0.71177 0.0388 0.0
H630 H 0.95387 0.76119 0.06761 0.0
C631 C 0.06823 0.87901 0.12925 0.0
C632 C 0.01753 0.88118 0.05812 0.0
H633 H 0.96449 0.87227 0.08554 0.0
C634 C 0.0168 0.85523 0.01472 0.0
C635 C 0.99847 0.88809 0.08372 0.0
C636 C 0.99853 0.9166 0.1302 0.0
C637 C 0.99752 0.83403 0.99687 0.0
C638 C 0.97837 0.8405 0.02265 0.0
C639 C 0.97911 0.86761 0.0657 0.0
C640 C 0.95774 0.81589 1.00696 0.0
C641 C 0.99803 0.80256 0.95159 0.0
C642 C 0.94882 0.83193 0.96412 0.0
C643 C 0.93077 0.8035 0.94736 0.0
C644 C 0.92118 0.75886 0.97338 0.0
C645 C 0.9293 0.74574 0.0177 0.0
C646 C 0.9474 0.77394 0.03426 0.0
H647 H 1.0145 0.78936 0.94206 0.0
H648 H 0.98774 0.76379 0.95329 0.0
H649 H 0.99194 0.83109 0.92354 0.0
H650 H 0.95619 0.86527 0.94299 0.0
H651 H 0.92486 0.81502 0.91325 0.0
H652 H 0.58383 0.46973 0.36778 0.0
H653 H 0.54904 0.43631 0.39692 0.0
H654 H 0.57197 0.44704 0.53714 0.0
H655 H 0.60665 0.48058 0.50859 0.0
H656 H 0.5374 0.34091 0.45663 0.0
H657 H 0.51825 0.55078 0.534 0.0
H658 H 0.53942 0.54198 0.49207 0.0
H659 H 0.54348 0.52102 0.55154 0.0
C660 C 0.58156 0.4644 0.4048 0.0
C661 C 0.59802 0.47831 0.43581 0.0
C662 C 0.56165 0.44536 0.42138 0.0
C663 C 0.55781 0.44024 0.4692 0.0
C664 C 0.57447 0.45173 0.50012 0.0
H665 H 0.45377 0.2759 0.61936 0.0
H666 H 0.48799 0.30342 0.58472 0.0
C667 C 0.59434 0.47062 0.48366 0.0
C668 C 0.53627 0.42434 0.487 0.0
H669 H 0.49472 0.47375 0.55214 0.0
C670 C 0.52801 0.36996 0.47736 0.0
C671 C 0.52394 0.46265 0.5135 0.0
C672 C 0.53157 0.52259 0.52313 0.0
C673 C 0.50795 0.35232 0.49454 0.0
C674 C 0.49595 0.38991 0.52245 0.0
C675 C 0.504 0.4448 0.53109 0.0
C676 C 0.47506 0.37303 0.54326 0.0
C677 C 0.49966 0.29382 0.48227 0.0
C678 C 0.45646 0.40397 0.5325 0.0
C679 C 0.43679 0.38832 0.55229 0.0
C680 C 0.43533 0.34151 0.58345 0.0
C681 C 0.45413 0.3113 0.59474 0.0
C682 C 0.47376 0.32697 0.57494 0.0
H683 H 0.5079 0.27672 0.4513 0.0
H684 H 0.50255 0.26373 0.51171 0.0
H685 H 0.4822 0.29497 0.47553 0.0
H686 H 0.45713 0.43991 0.50834 0.0
H687 H 0.42268 0.41232 0.54256 0.0
H688 H 0.42365 0.67593 0.09059 0.0
H689 H 0.45528 0.62617 0.06201 0.0
H690 H 0.45594 0.73506 0.94006 0.0
H691 H 0.4242 0.78496 0.96813 0.0
H692 H 0.46565 0.61635 0.92344 0.0
H693 H 0.51406 0.7087 0.06529 0.0
H694 H 0.49063 0.66972 0.08349 0.0
H695 H 0.48781 0.73506 0.05048 0.0
C696 C 0.43027 0.68876 0.0573 0.0
C697 C 0.42148 0.7349 0.03189 0.0
C698 C 0.44843 0.66041 0.04116 0.0
C699 C 0.45818 0.67766 0.99936 0.0
C700 C 0.44873 0.72131 0.97255 0.0
H701 H 0.5889 0.63911 0.91074 0.0
H702 H 0.55344 0.67204 0.9334 0.0
C703 C 0.43057 0.74977 0.98868 0.0
C704 C 0.47894 0.65281 0.98498 0.0
H705 H 0.5316 0.64503 0.0153 0.0
C706 C 0.48007 0.62234 0.94354 0.0
C707 C 0.49776 0.66141 1.01105 0.0
C708 C 0.49767 0.69587 0.05486 0.0
C709 C 0.49957 0.60002 0.92753 0.0
C710 C 0.51834 0.60808 0.95389 0.0
C711 C 0.51717 0.6386 0.9953 0.0
C712 C 0.53959 0.58727 0.9384 0.0
C713 C 0.50003 0.56935 0.88197 0.0
C714 C 0.54363 0.52856 0.93369 0.0
C715 C 0.564 0.50947 0.9209 0.0
C716 C 0.58077 0.54876 0.91286 0.0
C717 C 0.57653 0.60756 0.91727 0.0
C718 C 0.5562 0.62653 0.93002 0.0
H719 H 0.48544 0.57793 0.86117 0.0
H720 H 0.51426 0.58231 0.86121 0.0
H721 H 0.50099 0.52253 0.88871 0.0
H722 H 0.53116 0.4974 0.94085 0.0
H723 H 0.56672 0.4639 0.91853 0.0
H724 H 0.11015 0.0532 0.51976 0.0
H725 H 0.07517 0.08568 0.49278 0.0
H726 H 0.04856 0.05169 0.62842 0.0
H727 H 0.08358 0.01987 0.65597 0.0
H728 H 0.03917 0.0182 0.49037 0.0
H729 H 0.02419 0.20914 0.59742 0.0
H730 H 0.0504 0.1778 0.59147 0.0
H731 H 0.03108 0.14602 0.63035 0.0
C732 C 0.09697 0.05364 0.54418 0.0
C733 C 0.09971 0.03389 0.59009 0.0
C734 C 0.07695 0.0721 0.52862 0.0
C735 C 0.05925 0.07152 0.55861 0.0
C736 C 0.06205 0.05357 0.60486 0.0
H737 H 0.92295 0.12804 0.52018 0.0
H738 H 0.95833 0.10302 0.54998 0.0
C739 C 0.08211 0.03521 0.62053 0.0
C740 C 0.03763 0.08541 0.54044 0.0
H741 H 0.99476 0.17403 0.55422 0.0
C742 C 0.02952 0.05252 0.50415 0.0
C743 C 0.02499 0.12995 0.55861 0.0
C744 C 0.03314 0.16815 0.59633 0.0
C745 C 1.00903 0.0624 0.48597 0.0
C746 C 0.9964 0.10698 0.50407 0.0
C747 C 1.00446 0.1398 0.54045 0.0
C748 C 0.97487 0.12058 0.4854 0.0
C749 C 1.00091 0.02424 0.44817 0.0
C750 C 0.9724 0.1388 0.43918 0.0
C751 C 0.95217 0.15272 0.4219 0.0
C752 C 0.93394 0.14908 0.45057 0.0
C753 C 0.9365 0.13053 0.49686 0.0
C754 C 0.95676 0.11668 0.51412 0.0
H755 H 1.01 0.9835 0.4467 0.0
H756 H 0.98371 0.01407 0.45326 0.0
H757 H 1.00276 0.04669 0.41422 0.0
H758 H 0.98618 0.14297 0.41655 0.0
H759 H 0.95084 0.16642 0.38605 0.0
loop_
_geom_bond_atom_site_label_1
_geom_bond_atom_site_label_2
_geom_bond_distance
_geom_bond_site_symmetry_2
_ccdc_geom_bond_type
Cu0 N1 1.999 . S
Cu0 O6 1.974 . S
Cu0 N11 1.985 . S
Cu0 O20 1.959 . S
N1 Cu0 1.999 . S
N1 C3 1.263 . S
N1 C5 1.389 . S
N2 C3 1.358 . S
N2 C4 1.400 . S
C3 N1 1.263 . S
C3 N2 1.358 . S
C3 H9 0.930 . S
C4 N2 1.400 . S
C4 C5 1.351 . S
C4 H21 0.930 . S
C5 N1 1.389 . S
C5 C4 1.351 . S
C5 H10 0.930 . S
O6 Cu0 1.974 . S
O6 C16 1.282 . S
C7 O8 1.261 . S
C7 O20 1.251 . S
O8 C7 1.261 . S
H9 C3 0.930 . S
H10 C5 0.930 . S
N11 Cu0 1.985 . S
N11 C13 1.335 . S
N11 C14 1.390 . S
N12 C13 1.345 . S
N12 C15 1.336 . S
C13 N11 1.335 . S
C13 N12 1.345 . S
C13 H18 0.930 . S
C14 N11 1.390 . S
C14 C15 1.346 . S
C14 H19 0.930 . S
C15 N12 1.336 . S
C15 C14 1.346 . S
C15 H22 0.929 . S
C16 O6 1.282 . S
C16 O17 1.216 . S
O17 C16 1.216 . S
H18 C13 0.930 . S
H19 C14 0.930 . S
O20 Cu0 1.959 . S
O20 C7 1.251 . S
H21 C4 0.930 . S
H22 C15 0.929 . S
Cu23 N24 1.999 . S
Cu23 O29 1.974 . S
Cu23 N34 1.985 . S
Cu23 O43 1.959 . S
N24 Cu23 1.999 . S
N24 C26 1.263 . S
N24 C28 1.389 . S
N25 C26 1.358 . S
N25 C27 1.400 . S
C26 N24 1.263 . S
C26 N25 1.358 . S
C26 H32 0.930 . S
C27 N25 1.400 . S
C27 C28 1.351 . S
C27 H44 0.930 . S
C28 N24 1.389 . S
C28 C27 1.351 . S
C28 H33 0.930 . S
O29 Cu23 1.974 . S
O29 C39 1.282 . S
C30 O31 1.261 . S
C30 O43 1.251 . S
O31 C30 1.261 . S
H32 C26 0.930 . S
H33 C28 0.930 . S
N34 Cu23 1.985 . S
N34 C36 1.335 . S
N34 C37 1.390 . S
N35 C36 1.345 . S
N35 C38 1.336 . S
C36 N34 1.335 . S
C36 N35 1.345 . S
C36 H41 0.930 . S
C37 N34 1.390 . S
C37 C38 1.346 . S
C37 H42 0.930 . S
C38 N35 1.336 . S
C38 C37 1.346 . S
C38 H45 0.929 . S
C39 O29 1.282 . S
C39 O40 1.216 . S
O40 C39 1.216 . S
H41 C36 0.930 . S
H42 C37 0.930 . S
O43 Cu23 1.959 . S
O43 C30 1.251 . S
H44 C27 0.930 . S
H45 C38 0.929 . S
Cu46 N47 1.999 . S
Cu46 O52 1.974 . S
Cu46 N57 1.985 . S
Cu46 O66 1.959 . S
N47 Cu46 1.999 . S
N47 C49 1.263 . S
N47 C51 1.389 . S
N48 C49 1.358 . S
N48 C50 1.400 . S
C49 N47 1.263 . S
C49 N48 1.358 . S
C49 H55 0.930 . S
C50 N48 1.400 . S
C50 C51 1.351 . S
C50 H67 0.930 . S
C51 N47 1.389 . S
C51 C50 1.351 . S
C51 H56 0.930 . S
O52 Cu46 1.974 . S
O52 C62 1.282 . S
C53 O54 1.261 . S
C53 O66 1.251 . S
O54 C53 1.261 . S
H55 C49 0.930 . S
H56 C51 0.930 . S
N57 Cu46 1.985 . S
N57 C59 1.335 . S
N57 C60 1.390 . S
N58 C59 1.345 . S
N58 C61 1.336 . S
C59 N57 1.335 . S
C59 N58 1.345 . S
C59 H64 0.930 . S
C60 N57 1.390 . S
C60 C61 1.346 . S
C60 H65 0.930 . S
C61 N58 1.336 . S
C61 C60 1.346 . S
C61 H68 0.929 . S
C62 O52 1.282 . S
C62 O63 1.216 . S
O63 C62 1.216 . S
H64 C59 0.930 . S
H65 C60 0.930 . S
O66 Cu46 1.959 . S
O66 C53 1.251 . S
H67 C50 0.930 . S
H68 C61 0.929 . S
Cu69 N70 1.999 . S
Cu69 O75 1.974 . S
Cu69 N80 1.985 . S
Cu69 O89 1.959 . S
N70 Cu69 1.999 . S
N70 C72 1.263 . S
N70 C74 1.389 . S
N71 C72 1.358 . S
N71 C73 1.400 . S
C72 N70 1.263 . S
C72 N71 1.358 . S
C72 H78 0.930 . S
C73 N71 1.400 . S
C73 C74 1.351 . S
C73 H90 0.930 . S
C74 N70 1.389 . S
C74 C73 1.351 . S
C74 H79 0.930 . S
O75 Cu69 1.974 . S
O75 C85 1.282 . S
C76 O77 1.261 . S
C76 O89 1.251 . S
O77 C76 1.261 . S
H78 C72 0.930 . S
H79 C74 0.930 . S
N80 Cu69 1.985 . S
N80 C82 1.335 . S
N80 C83 1.390 . S
N81 C82 1.345 . S
N81 C84 1.336 . S
C82 N80 1.335 . S
C82 N81 1.345 . S
C82 H87 0.930 . S
C83 N80 1.390 . S
C83 C84 1.346 . S
C83 H88 0.930 . S
C84 N81 1.336 . S
C84 C83 1.346 . S
C84 H91 0.929 . S
C85 O75 1.282 . S
C85 O86 1.216 . S
O86 C85 1.216 . S
H87 C82 0.930 . S
H88 C83 0.930 . S
O89 Cu69 1.959 . S
O89 C76 1.251 . S
H90 C73 0.930 . S
H91 C84 0.929 . S
Cu92 N93 1.999 . S
Cu92 O98 1.974 . S
Cu92 N103 1.985 . S
Cu92 O112 1.959 . S
N93 Cu92 1.999 . S
N93 C95 1.263 . S
N93 C97 1.389 . S
N94 C95 1.358 . S
N94 C96 1.400 . S
C95 N93 1.263 . S
C95 N94 1.358 . S
C95 H101 0.930 . S
C96 N94 1.400 . S
C96 C97 1.351 . S
C96 H113 0.930 . S
C97 N93 1.389 . S
C97 C96 1.351 . S
C97 H102 0.930 . S
O98 Cu92 1.974 . S
O98 C108 1.282 . S
C99 O100 1.261 . S
C99 O112 1.251 . S
O100 C99 1.261 . S
H101 C95 0.930 . S
H102 C97 0.930 . S
N103 Cu92 1.985 . S
N103 C105 1.335 . S
N103 C106 1.390 1_556 S
N104 C105 1.345 1_554 S
N104 C107 1.336 . S
C105 N103 1.335 . S
C105 N104 1.345 1_556 S
C105 H110 0.930 . S
C106 N103 1.390 1_554 S
C106 C107 1.346 . S
C106 H111 0.930 . S
C107 N104 1.336 . S
C107 C106 1.346 . S
C107 H114 0.929 . S
C108 O98 1.282 . S
C108 O109 1.216 . S
O109 C108 1.216 . S
H110 C105 0.930 . S
H111 C106 0.930 . S
O112 Cu92 1.959 . S
O112 C99 1.251 . S
H113 C96 0.930 . S
H114 C107 0.929 . S
Cu115 N116 1.999 . S
Cu115 O121 1.974 . S
Cu115 N126 1.985 . S
Cu115 O135 1.959 . S
N116 Cu115 1.999 . S
N116 C118 1.263 . S
N116 C120 1.389 . S
N117 C118 1.358 . S
N117 C119 1.400 . S
C118 N116 1.263 . S
C118 N117 1.358 . S
C118 H124 0.930 . S
C119 N117 1.400 . S
C119 C120 1.351 . S
C119 H136 0.930 . S
C120 N116 1.389 . S
C120 C119 1.351 . S
C120 H125 0.930 . S
O121 Cu115 1.974 . S
O121 C131 1.282 . S
C122 O123 1.261 . S
C122 O135 1.251 . S
O123 C122 1.261 . S
H124 C118 0.930 . S
H125 C120 0.930 . S
N126 Cu115 1.985 . S
N126 C128 1.335 . S
N126 C129 1.390 . S
N127 C128 1.345 . S
N127 C130 1.336 . S
C128 N126 1.335 . S
C128 N127 1.345 . S
C128 H133 0.930 . S
C129 N126 1.390 . S
C129 C130 1.346 . S
C129 H134 0.930 . S
C130 N127 1.336 . S
C130 C129 1.346 . S
C130 H137 0.929 . S
C131 O121 1.282 . S
C131 O132 1.216 . S
O132 C131 1.216 . S
H133 C128 0.930 . S
H134 C129 0.930 . S
O135 Cu115 1.959 . S
O135 C122 1.251 . S
H136 C119 0.930 . S
H137 C130 0.929 . S
Cu138 N139 1.999 . S
Cu138 O144 1.974 . S
Cu138 N149 1.985 . S
Cu138 O158 1.959 . S
N139 Cu138 1.999 . S
N139 C141 1.263 . S
N139 C143 1.389 . S
N140 C141 1.358 . S
N140 C142 1.400 . S
C141 N139 1.263 . S
C141 N140 1.358 . S
C141 H147 0.930 . S
C142 N140 1.400 . S
C142 C143 1.351 . S
C142 H159 0.930 . S
C143 N139 1.389 . S
C143 C142 1.351 . S
C143 H148 0.930 1_565 S
O144 Cu138 1.974 . S
O144 C154 1.282 . S
C145 O146 1.261 . S
C145 O158 1.251 . S
O146 C145 1.261 . S
H147 C141 0.930 . S
H148 C143 0.930 1_545 S
N149 Cu138 1.985 . S
N149 C151 1.335 . S
N149 C152 1.390 1_554 S
N150 C151 1.345 1_556 S
N150 C153 1.336 . S
C151 N149 1.335 . S
C151 N150 1.345 1_554 S
C151 H156 0.930 1_565 S
C152 N149 1.390 1_556 S
C152 C153 1.346 . S
C152 H157 0.930 . S
C153 N150 1.336 . S
C153 C152 1.346 . S
C153 H160 0.929 . S
C154 O144 1.282 . S
C154 O155 1.216 . S
O155 C154 1.216 . S
H156 C151 0.930 1_545 S
H157 C152 0.930 . S
O158 Cu138 1.959 . S
O158 C145 1.251 . S
H159 C142 0.930 . S
H160 C153 0.929 . S
Cu161 N162 1.999 . S
Cu161 O167 1.974 . S
Cu161 N172 1.985 . S
Cu161 O181 1.959 . S
N162 Cu161 1.999 . S
N162 C164 1.263 . S
N162 C166 1.389 . S
N163 C164 1.358 . S
N163 C165 1.400 . S
C164 N162 1.263 . S
C164 N163 1.358 . S
C164 H170 0.930 . S
C165 N163 1.400 . S
C165 C166 1.351 . S
C165 H182 0.930 . S
C166 N162 1.389 . S
C166 C165 1.351 . S
C166 H171 0.930 . S
O167 Cu161 1.974 . S
O167 C177 1.282 1_565 S
C168 O169 1.261 1_565 S
C168 O181 1.251 . S
O169 C168 1.261 1_545 S
H170 C164 0.930 . S
H171 C166 0.930 . S
N172 Cu161 1.985 . S
N172 C174 1.335 . S
N172 C175 1.390 1_565 S
N173 C174 1.345 1_545 S
N173 C176 1.336 . S
C174 N172 1.335 . S
C174 N173 1.345 1_565 S
C174 H179 0.930 . S
C175 N172 1.390 1_545 S
C175 C176 1.346 . S
C175 H180 0.930 . S
C176 N173 1.336 . S
C176 C175 1.346 . S
C176 H183 0.929 . S
C177 O167 1.282 1_545 S
C177 O178 1.216 . S
O178 C177 1.216 . S
H179 C174 0.930 . S
H180 C175 0.930 . S
O181 Cu161 1.959 . S
O181 C168 1.251 . S
H182 C165 0.930 . S
H183 C176 0.929 . S
H184 C192 0.929 . S
H185 C194 0.930 . S
H186 C196 0.930 . S
H187 C199 0.929 . S
H188 C202 0.930 . S
H189 C204 0.960 . S
H190 C204 0.960 . S
H191 C204 0.960 . S
C192 H184 0.929 . S
C192 C193 1.377 . S
C192 C194 1.384 . S
C193 C192 1.377 . S
C193 C199 1.390 . S
C194 H185 0.930 . S
C194 C192 1.384 . S
C194 C195 1.372 . S
C195 C194 1.372 . S
C195 C196 1.400 . S
C195 C200 1.490 . S
C196 H186 0.930 . S
C196 C195 1.400 . S
C196 C199 1.386 . S
H197 C213 0.930 . S
H198 C214 0.931 1_556 S
C199 H187 0.929 . S
C199 C193 1.390 . S
C199 C196 1.386 . S
C200 C195 1.490 . S
C200 C202 1.395 . S
C200 C203 1.403 . S
H201 C207 0.930 . S
C202 H188 0.930 . S
C202 C200 1.395 . S
C202 C205 1.403 . S
C203 C200 1.403 . S
C203 C204 1.524 . S
C203 C207 1.400 . S
C204 H189 0.960 . S
C204 H190 0.960 . S
C204 H191 0.960 . S
C204 C203 1.524 . S
C205 C202 1.403 . S
C205 C206 1.392 . S
C205 C209 1.495 . S
C206 C205 1.392 . S
C206 C207 1.385 . S
C206 C208 1.478 . S
C207 H201 0.930 . S
C207 C203 1.400 . S
C207 C206 1.385 . S
C208 C206 1.478 . S
C208 C210 1.381 . S
C208 C214 1.383 1_556 S
C209 C205 1.495 . S
C209 H215 0.959 . S
C209 H216 0.961 1_556 S
C209 H217 0.960 1_545 S
C210 C208 1.381 . S
C210 C211 1.394 1_556 S
C210 H218 0.930 1_545 S
C211 C210 1.394 1_554 S
C211 C212 1.383 . S
C211 H219 0.929 1_545 S
C212 C211 1.383 . S
C212 C213 1.377 . S
C213 H197 0.930 . S
C213 C212 1.377 . S
C213 C214 1.379 . S
C214 H198 0.931 1_554 S
C214 C208 1.383 1_554 S
C214 C213 1.379 . S
H215 C209 0.959 . S
H216 C209 0.961 1_554 S
H217 C209 0.960 1_565 S
H218 C210 0.930 1_565 S
H219 C211 0.929 1_565 S
H220 C228 0.929 . S
H221 C230 0.930 . S
H222 C232 0.930 . S
H223 C235 0.929 . S
H224 C238 0.930 . S
H225 C240 0.960 . S
H226 C240 0.960 . S
H227 C240 0.960 . S
C228 H220 0.929 . S
C228 C229 1.377 . S
C228 C230 1.384 . S
C229 C228 1.377 . S
C229 C235 1.390 . S
C230 H221 0.930 . S
C230 C228 1.384 . S
C230 C231 1.372 . S
C231 C230 1.372 . S
C231 C232 1.400 . S
C231 C236 1.490 . S
C232 H222 0.930 . S
C232 C231 1.400 . S
C232 C235 1.386 . S
H233 C249 0.930 . S
H234 C250 0.931 . S
C235 H223 0.929 . S
C235 C229 1.390 . S
C235 C232 1.386 . S
C236 C231 1.490 . S
C236 C238 1.395 . S
C236 C239 1.403 . S
H237 C243 0.930 . S
C238 H224 0.930 . S
C238 C236 1.395 . S
C238 C241 1.403 . S
C239 C236 1.403 . S
C239 C240 1.524 . S
C239 C243 1.400 . S
C240 H225 0.960 . S
C240 H226 0.960 . S
C240 H227 0.960 . S
C240 C239 1.524 . S
C241 C238 1.403 . S
C241 C242 1.392 . S
C241 C245 1.495 . S
C242 C241 1.392 . S
C242 C243 1.385 . S
C242 C244 1.478 . S
C243 H237 0.930 . S
C243 C239 1.400 . S
C243 C242 1.385 . S
C244 C242 1.478 . S
C244 C246 1.381 . S
C244 C250 1.383 . S
C245 C241 1.495 . S
C245 H251 0.959 . S
C245 H252 0.961 . S
C245 H253 0.960 . S
C246 C244 1.381 . S
C246 C247 1.394 . S
C246 H254 0.930 . S
C247 C246 1.394 . S
C247 C248 1.383 . S
C247 H255 0.929 . S
C248 C247 1.383 . S
C248 C249 1.377 . S
C249 H233 0.930 . S
C249 C248 1.377 . S
C249 C250 1.379 . S
C250 H234 0.931 . S
C250 C244 1.383 . S
C250 C249 1.379 . S
H251 C245 0.959 . S
H252 C245 0.961 . S
H253 C245 0.960 . S
H254 C246 0.930 . S
H255 C247 0.929 . S
H256 C264 0.929 . S
H257 C266 0.930 . S
H258 C268 0.930 . S
H259 C271 0.929 . S
H260 C274 0.930 . S
H261 C276 0.960 . S
H262 C276 0.960 . S
H263 C276 0.960 . S
C264 H256 0.929 . S
C264 C265 1.377 . S
C264 C266 1.384 . S
C265 C264 1.377 . S
C265 C271 1.390 . S
C266 H257 0.930 . S
C266 C264 1.384 . S
C266 C267 1.372 . S
C267 C266 1.372 . S
C267 C268 1.400 . S
C267 C272 1.490 . S
C268 H258 0.930 . S
C268 C267 1.400 . S
C268 C271 1.386 . S
H269 C285 0.930 . S
H270 C286 0.931 . S
C271 H259 0.929 . S
C271 C265 1.390 . S
C271 C268 1.386 . S
C272 C267 1.490 . S
C272 C274 1.395 . S
C272 C275 1.403 . S
H273 C279 0.930 . S
C274 H260 0.930 . S
C274 C272 1.395 . S
C274 C277 1.403 . S
C275 C272 1.403 . S
C275 C276 1.524 . S
C275 C279 1.400 . S
C276 H261 0.960 . S
C276 H262 0.960 . S
C276 H263 0.960 . S
C276 C275 1.524 . S
C277 C274 1.403 . S
C277 C278 1.392 . S
C277 C281 1.495 . S
C278 C277 1.392 . S
C278 C279 1.385 . S
C278 C280 1.478 . S
C279 H273 0.930 . S
C279 C275 1.400 . S
C279 C278 1.385 . S
C280 C278 1.478 . S
C280 C282 1.381 . S
C280 C286 1.383 . S
C281 C277 1.495 . S
C281 H287 0.959 . S
C281 H288 0.961 1_554 S
C281 H289 0.960 1_554 S
C282 C280 1.381 . S
C282 C283 1.394 1_554 S
C282 H290 0.930 . S
C283 C282 1.394 1_556 S
C283 C284 1.383 . S
C283 H291 0.929 . S
C284 C283 1.383 . S
C284 C285 1.377 . S
C285 H269 0.930 . S
C285 C284 1.377 . S
C285 C286 1.379 1_556 S
C286 H270 0.931 . S
C286 C280 1.383 . S
C286 C285 1.379 1_554 S
H287 C281 0.959 . S
H288 C281 0.961 1_556 S
H289 C281 0.960 1_556 S
H290 C282 0.930 . S
H291 C283 0.929 . S
H292 C300 0.929 . S
H293 C302 0.930 . S
H294 C304 0.930 . S
H295 C307 0.929 . S
H296 C310 0.930 . S
H297 C312 0.960 . S
H298 C312 0.960 . S
H299 C312 0.960 . S
C300 H292 0.929 . S
C300 C301 1.377 . S
C300 C302 1.384 . S
C301 C300 1.377 . S
C301 C307 1.390 . S
C302 H293 0.930 . S
C302 C300 1.384 . S
C302 C303 1.372 . S
C303 C302 1.372 . S
C303 C304 1.400 . S
C303 C308 1.490 . S
C304 H294 0.930 . S
C304 C303 1.400 . S
C304 C307 1.386 . S
H305 C321 0.930 . S
H306 C322 0.931 . S
C307 H295 0.929 . S
C307 C301 1.390 . S
C307 C304 1.386 . S
C308 C303 1.490 . S
C308 C310 1.395 . S
C308 C311 1.403 . S
H309 C315 0.930 . S
C310 H296 0.930 . S
C310 C308 1.395 . S
C310 C313 1.403 . S
C311 C308 1.403 . S
C311 C312 1.524 . S
C311 C315 1.400 . S
C312 H297 0.960 . S
C312 H298 0.960 . S
C312 H299 0.960 . S
C312 C311 1.524 . S
C313 C310 1.403 . S
C313 C314 1.392 . S
C313 C317 1.495 . S
C314 C313 1.392 . S
C314 C315 1.385 . S
C314 C316 1.478 . S
C315 H309 0.930 . S
C315 C311 1.400 . S
C315 C314 1.385 . S
C316 C314 1.478 . S
C316 C318 1.381 . S
C316 C322 1.383 . S
C317 C313 1.495 . S
C317 H323 0.959 . S
C317 H324 0.961 . S
C317 H325 0.960 . S
C318 C316 1.381 . S
C318 C319 1.394 . S
C318 H326 0.930 . S
C319 C318 1.394 . S
C319 C320 1.383 . S
C319 H327 0.929 . S
C320 C319 1.383 . S
C320 C321 1.377 . S
C321 H305 0.930 . S
C321 C320 1.377 . S
C321 C322 1.379 . S
C322 H306 0.931 . S
C322 C316 1.383 . S
C322 C321 1.379 . S
H323 C317 0.959 . S
H324 C317 0.961 . S
H325 C317 0.960 . S
H326 C318 0.930 . S
H327 C319 0.929 . S
H328 C336 0.929 . S
H329 C338 0.930 . S
H330 C340 0.930 . S
H331 C343 0.929 . S
H332 C346 0.930 . S
H333 C348 0.960 . S
H334 C348 0.960 . S
H335 C348 0.960 . S
C336 H328 0.929 . S
C336 C337 1.377 . S
C336 C338 1.384 . S
C337 C336 1.377 . S
C337 C343 1.390 . S
C338 H329 0.930 . S
C338 C336 1.384 . S
C338 C339 1.372 . S
C339 C338 1.372 . S
C339 C340 1.400 . S
C339 C344 1.490 . S
C340 H330 0.930 . S
C340 C339 1.400 . S
C340 C343 1.386 . S
H341 C357 0.930 . S
H342 C358 0.931 . S
C343 H331 0.929 . S
C343 C337 1.390 . S
C343 C340 1.386 . S
C344 C339 1.490 . S
C344 C346 1.395 . S
C344 C347 1.403 . S
H345 C351 0.930 . S
C346 H332 0.930 . S
C346 C344 1.395 . S
C346 C349 1.403 . S
C347 C344 1.403 . S
C347 C348 1.524 . S
C347 C351 1.400 . S
C348 H333 0.960 . S
C348 H334 0.960 . S
C348 H335 0.960 . S
C348 C347 1.524 . S
C349 C346 1.403 . S
C349 C350 1.392 . S
C349 C353 1.495 . S
C350 C349 1.392 . S
C350 C351 1.385 . S
C350 C352 1.478 . S
C351 H345 0.930 . S
C351 C347 1.400 . S
C351 C350 1.385 . S
C352 C350 1.478 . S
C352 C354 1.381 . S
C352 C358 1.383 . S
C353 C349 1.495 . S
C353 H359 0.959 . S
C353 H360 0.961 . S
C353 H361 0.960 . S
C354 C352 1.381 . S
C354 C355 1.394 . S
C354 H362 0.930 . S
C355 C354 1.394 . S
C355 C356 1.383 . S
C355 H363 0.929 . S
C356 C355 1.383 . S
C356 C357 1.377 . S
C357 H341 0.930 . S
C357 C356 1.377 . S
C357 C358 1.379 . S
C358 H342 0.931 . S
C358 C352 1.383 . S
C358 C357 1.379 . S
H359 C353 0.959 . S
H360 C353 0.961 . S
H361 C353 0.960 . S
H362 C354 0.930 . S
H363 C355 0.929 . S
H364 C372 0.929 . S
H365 C374 0.930 . S
H366 C376 0.930 . S
H367 C379 0.929 . S
H368 C382 0.930 . S
H369 C384 0.960 . S
H370 C384 0.960 . S
H371 C384 0.960 . S
C372 H364 0.929 . S
C372 C373 1.377 . S
C372 C374 1.384 . S
C373 C372 1.377 . S
C373 C379 1.390 . S
C374 H365 0.930 . S
C374 C372 1.384 . S
C374 C375 1.372 . S
C375 C374 1.372 . S
C375 C376 1.400 . S
C375 C380 1.490 . S
C376 H366 0.930 . S
C376 C375 1.400 . S
C376 C379 1.386 . S
H377 C393 0.930 . S
H378 C394 0.931 . S
C379 H367 0.929 . S
C379 C373 1.390 . S
C379 C376 1.386 . S
C380 C375 1.490 . S
C380 C382 1.395 . S
C380 C383 1.403 . S
H381 C387 0.930 . S
C382 H368 0.930 . S
C382 C380 1.395 . S
C382 C385 1.403 . S
C383 C380 1.403 . S
C383 C384 1.524 . S
C383 C387 1.400 . S
C384 H369 0.960 . S
C384 H370 0.960 . S
C384 H371 0.960 . S
C384 C383 1.524 . S
C385 C382 1.403 . S
C385 C386 1.392 . S
C385 C389 1.495 . S
C386 C385 1.392 . S
C386 C387 1.385 . S
C386 C388 1.478 . S
C387 H381 0.930 . S
C387 C383 1.400 . S
C387 C386 1.385 . S
C388 C386 1.478 . S
C388 C390 1.381 . S
C388 C394 1.383 . S
C389 C385 1.495 . S
C389 H395 0.959 . S
C389 H396 0.961 . S
C389 H397 0.960 . S
C390 C388 1.381 . S
C390 C391 1.394 . S
C390 H398 0.930 . S
C391 C390 1.394 . S
C391 C392 1.383 . S
C391 H399 0.929 . S
C392 C391 1.383 . S
C392 C393 1.377 . S
C393 H377 0.930 . S
C393 C392 1.377 . S
C393 C394 1.379 . S
C394 H378 0.931 . S
C394 C388 1.383 . S
C394 C393 1.379 . S
H395 C389 0.959 . S
H396 C389 0.961 . S
H397 C389 0.960 . S
H398 C390 0.930 . S
H399 C391 0.929 . S
H400 C408 0.929 . S
H401 C410 0.930 . S
H402 C412 0.930 . S
H403 C415 0.929 . S
H404 C418 0.930 . S
H405 C420 0.960 . S
H406 C420 0.960 . S
H407 C420 0.960 1_545 S
C408 H400 0.929 . S
C408 C409 1.377 . S
C408 C410 1.384 . S
C409 C408 1.377 . S
C409 C415 1.390 1_565 S
C410 H401 0.930 . S
C410 C408 1.384 . S
C410 C411 1.372 . S
C411 C410 1.372 . S
C411 C412 1.400 1_565 S
C411 C416 1.490 . S
C412 H402 0.930 . S
C412 C411 1.400 1_545 S
C412 C415 1.386 . S
H413 C429 0.919 1_545 S
H414 C430 0.931 . S
C415 H403 0.929 . S
C415 C409 1.390 1_545 S
C415 C412 1.386 . S
C416 C411 1.490 . S
C416 C418 1.395 . S
C416 C419 1.403 . S
H417 C423 0.930 . S
C418 H404 0.930 . S
C418 C416 1.395 . S
C418 C421 1.403 . S
C419 C416 1.403 . S
C419 C420 1.524 . S
C419 C423 1.400 . S
C420 H405 0.960 . S
C420 H406 0.960 . S
C420 H407 0.960 1_565 S
C420 C419 1.524 . S
C421 C418 1.403 . S
C421 C422 1.392 . S
C421 C425 1.495 . S
C422 C421 1.392 . S
C422 C423 1.385 . S
C422 C424 1.478 . S
C423 H417 0.930 . S
C423 C419 1.400 . S
C423 C422 1.385 . S
C424 C422 1.478 . S
C424 C426 1.381 . S
C424 C430 1.383 1_565 S
C425 C421 1.495 . S
C425 H431 0.959 . S
C425 H432 0.961 . S
C425 H433 0.960 . S
C426 C424 1.381 . S
C426 C427 1.394 . S
C426 H434 0.930 . S
C427 C426 1.394 . S
C427 C428 1.383 . S
C427 H435 0.929 . S
C428 C427 1.383 . S
C428 C429 1.388 . S
C429 H413 0.919 1_565 S
C429 C428 1.388 . S
C429 C430 1.379 1_565 S
C430 H414 0.931 . S
C430 C424 1.383 1_545 S
C430 C429 1.379 1_545 S
H431 C425 0.959 . S
H432 C425 0.961 . S
H433 C425 0.960 . S
H434 C426 0.930 . S
H435 C427 0.929 . S
H436 C444 0.929 . S
H437 C446 0.930 . S
H438 C448 0.930 1_545 S
H439 C451 0.929 1_545 S
H440 C454 0.930 . S
H441 C456 0.960 . S
H442 C456 0.960 . S
H443 C456 0.960 . S
C444 H436 0.929 . S
C444 C445 1.377 . S
C444 C446 1.384 . S
C445 C444 1.377 . S
C445 C451 1.390 . S
C446 H437 0.930 . S
C446 C444 1.384 . S
C446 C447 1.372 . S
C447 C446 1.372 . S
C447 C448 1.400 . S
C447 C452 1.490 . S
C448 H438 0.930 1_565 S
C448 C447 1.400 . S
C448 C451 1.386 . S
H449 C465 0.930 . S
H450 C466 0.931 . S
C451 H439 0.929 1_565 S
C451 C445 1.390 . S
C451 C448 1.386 . S
C452 C447 1.490 . S
C452 C454 1.395 . S
C452 C455 1.403 . S
H453 C459 0.930 . S
C454 H440 0.930 . S
C454 C452 1.395 . S
C454 C457 1.403 . S
C455 C452 1.403 . S
C455 C456 1.524 . S
C455 C459 1.400 . S
C456 H441 0.960 . S
C456 H442 0.960 . S
C456 H443 0.960 . S
C456 C455 1.524 . S
C457 C454 1.403 . S
C457 C458 1.392 . S
C457 C461 1.495 1_565 S
C458 C457 1.392 . S
C458 C459 1.385 . S
C458 C460 1.478 . S
C459 H453 0.930 . S
C459 C455 1.400 . S
C459 C458 1.385 . S
C460 C458 1.478 . S
C460 C462 1.381 . S
C460 C466 1.383 1_565 S
C461 C457 1.495 1_545 S
C461 H467 0.959 . S
C461 H468 0.961 . S
C461 H469 0.960 1_545 S
C462 C460 1.381 . S
C462 C463 1.394 . S
C462 H470 0.930 . S
C463 C462 1.394 . S
C463 C464 1.383 . S
C463 H471 0.929 . S
C464 C463 1.383 . S
C464 C465 1.377 1_565 S
C465 H449 0.930 . S
C465 C464 1.377 1_545 S
C465 C466 1.379 . S
C466 H450 0.931 . S
C466 C460 1.383 1_545 S
C466 C465 1.379 . S
H467 C461 0.959 . S
H468 C461 0.961 . S
H469 C461 0.960 1_565 S
H470 C462 0.930 . S
H471 C463 0.929 . S
H472 C480 0.929 . S
H473 C482 0.930 . S
H474 C484 0.930 . S
H475 C487 0.929 . S
H476 C490 0.930 . S
H477 C492 0.960 . S
H478 C492 0.960 1_455 S
H479 C492 0.960 . S
C480 H472 0.929 . S
C480 C481 1.377 . S
C480 C482 1.384 . S
C481 C480 1.377 . S
C481 C487 1.390 . S
C482 H473 0.930 . S
C482 C480 1.384 . S
C482 C483 1.372 . S
C483 C482 1.372 . S
C483 C484 1.400 . S
C483 C488 1.490 . S
C484 H474 0.930 . S
C484 C483 1.400 . S
C484 C487 1.386 . S
H485 C501 0.930 . S
H486 C502 0.931 . S
C487 H475 0.929 . S
C487 C481 1.390 . S
C487 C484 1.386 . S
C488 C483 1.490 . S
C488 C490 1.395 . S
C488 C491 1.403 1_455 S
H489 C495 0.930 . S
C490 H476 0.930 . S
C490 C488 1.395 . S
C490 C493 1.403 1_455 S
C491 C488 1.403 1_655 S
C491 C492 1.524 . S
C491 C495 1.400 . S
C492 H477 0.960 . S
C492 H478 0.960 1_655 S
C492 H479 0.960 . S
C492 C491 1.524 . S
C493 C490 1.403 1_655 S
C493 C494 1.392 . S
C493 C497 1.495 . S
C494 C493 1.392 . S
C494 C495 1.385 . S
C494 C496 1.478 . S
C495 H489 0.930 . S
C495 C491 1.400 . S
C495 C494 1.385 . S
C496 C494 1.478 . S
C496 C498 1.381 . S
C496 C502 1.383 . S
C497 C493 1.495 . S
C497 H503 0.959 1_655 S
C497 H504 0.961 . S
C497 H505 0.960 . S
C498 C496 1.381 . S
C498 C499 1.394 . S
C498 H506 0.930 . S
C499 C498 1.394 . S
C499 C500 1.383 . S
C499 H507 0.929 . S
C500 C499 1.383 . S
C500 C501 1.377 . S
C501 H485 0.930 . S
C501 C500 1.377 . S
C501 C502 1.379 . S
C502 H486 0.931 . S
C502 C496 1.383 . S
C502 C501 1.379 . S
H503 C497 0.959 1_455 S
H504 C497 0.961 . S
H505 C497 0.960 . S
H506 C498 0.930 . S
H507 C499 0.929 . S
H508 C516 0.929 . S
H509 C518 0.930 . S
H510 C520 0.930 . S
H511 C523 0.929 . S
H512 C526 0.930 . S
H513 C528 0.960 . S
H514 C528 0.960 . S
H515 C528 0.960 . S
C516 H508 0.929 . S
C516 C517 1.377 . S
C516 C518 1.384 . S
C517 C516 1.377 . S
C517 C523 1.390 . S
C518 H509 0.930 . S
C518 C516 1.384 . S
C518 C519 1.372 . S
C519 C518 1.372 . S
C519 C520 1.400 . S
C519 C524 1.490 . S
C520 H510 0.930 . S
C520 C519 1.400 . S
C520 C523 1.386 . S
H521 C537 0.930 . S
H522 C538 0.931 . S
C523 H511 0.929 . S
C523 C517 1.390 . S
C523 C520 1.386 . S
C524 C519 1.490 . S
C524 C526 1.395 . S
C524 C527 1.403 . S
H525 C531 0.930 . S
C526 H512 0.930 . S
C526 C524 1.395 . S
C526 C529 1.403 . S
C527 C524 1.403 . S
C527 C528 1.524 . S
C527 C531 1.400 . S
C528 H513 0.960 . S
C528 H514 0.960 . S
C528 H515 0.960 . S
C528 C527 1.524 . S
C529 C526 1.403 . S
C529 C530 1.392 . S
C529 C533 1.495 . S
C530 C529 1.392 . S
C530 C531 1.385 . S
C530 C532 1.478 . S
C531 H525 0.930 . S
C531 C527 1.400 . S
C531 C530 1.385 . S
C532 C530 1.478 . S
C532 C534 1.381 . S
C532 C538 1.383 . S
C533 C529 1.495 . S
C533 H539 0.959 . S
C533 H540 0.961 . S
C533 H541 0.960 . S
C534 C532 1.381 . S
C534 C535 1.394 . S
C534 H542 0.930 . S
C535 C534 1.394 . S
C535 C536 1.383 . S
C535 H543 0.929 . S
C536 C535 1.383 . S
C536 C537 1.377 . S
C537 H521 0.930 . S
C537 C536 1.377 . S
C537 C538 1.379 . S
C538 H522 0.931 . S
C538 C532 1.383 . S
C538 C537 1.379 . S
H539 C533 0.959 . S
H540 C533 0.961 . S
H541 C533 0.960 . S
H542 C534 0.930 . S
H543 C535 0.929 . S
H544 C552 0.929 . S
H545 C554 0.930 . S
H546 C556 0.930 . S
H547 C559 0.929 . S
H548 C562 0.930 . S
H549 C564 0.960 . S
H550 C564 0.960 . S
H551 C564 0.960 1_455 S
C552 H544 0.929 . S
C552 C553 1.377 . S
C552 C554 1.384 . S
C553 C552 1.377 . S
C553 C559 1.390 . S
C554 H545 0.930 . S
C554 C552 1.384 . S
C554 C555 1.372 . S
C555 C554 1.372 . S
C555 C556 1.400 . S
C555 C560 1.490 . S
C556 H546 0.930 . S
C556 C555 1.400 . S
C556 C559 1.386 . S
H557 C573 0.930 . S
H558 C574 0.931 . S
C559 H547 0.929 . S
C559 C553 1.390 . S
C559 C556 1.386 . S
C560 C555 1.490 . S
C560 C562 1.395 . S
C560 C563 1.403 . S
H561 C567 0.930 . S
C562 H548 0.930 . S
C562 C560 1.395 . S
C562 C565 1.403 . S
C563 C560 1.403 . S
C563 C564 1.524 1_455 S
C563 C567 1.400 1_455 S
C564 H549 0.960 . S
C564 H550 0.960 . S
C564 H551 0.960 1_655 S
C564 C563 1.524 1_655 S
C565 C562 1.403 . S
C565 C566 1.392 1_455 S
C565 C569 1.495 . S
C566 C565 1.392 1_655 S
C566 C567 1.385 . S
C566 C568 1.478 . S
C567 H561 0.930 . S
C567 C563 1.400 1_655 S
C567 C566 1.385 . S
C568 C566 1.478 . S
C568 C570 1.381 . S
C568 C574 1.383 . S
C569 C565 1.495 . S
C569 H575 0.959 . S
C569 H576 0.961 . S
C569 H577 0.960 . S
C570 C568 1.381 . S
C570 C571 1.394 . S
C570 H578 0.930 . S
C571 C570 1.394 . S
C571 C572 1.383 . S
C571 H579 0.929 . S
C572 C571 1.383 . S
C572 C573 1.377 . S
C573 H557 0.930 . S
C573 C572 1.377 . S
C573 C574 1.379 . S
C574 H558 0.931 . S
C574 C568 1.383 . S
C574 C573 1.379 . S
H575 C569 0.959 . S
H576 C569 0.961 . S
H577 C569 0.960 . S
H578 C570 0.930 . S
H579 C571 0.929 . S
H580 C588 0.929 . S
H581 C590 0.930 . S
H582 C592 0.930 . S
H583 C595 0.929 . S
H584 C598 0.930 . S
H585 C600 0.960 . S
H586 C600 0.960 . S
H587 C600 0.960 . S
C588 H580 0.929 . S
C588 C589 1.377 . S
C588 C590 1.384 . S
C589 C588 1.377 . S
C589 C595 1.390 . S
C590 H581 0.930 . S
C590 C588 1.384 . S
C590 C591 1.372 . S
C591 C590 1.372 . S
C591 C592 1.400 . S
C591 C596 1.490 . S
C592 H582 0.930 . S
C592 C591 1.400 . S
C592 C595 1.386 . S
H593 C609 0.930 . S
H594 C610 0.931 . S
C595 H583 0.929 . S
C595 C589 1.390 . S
C595 C592 1.386 . S
C596 C591 1.490 . S
C596 C598 1.395 . S
C596 C599 1.403 . S
H597 C603 0.930 . S
C598 H584 0.930 . S
C598 C596 1.395 . S
C598 C601 1.403 . S
C599 C596 1.403 . S
C599 C600 1.524 . S
C599 C603 1.400 . S
C600 H585 0.960 . S
C600 H586 0.960 . S
C600 H587 0.960 . S
C600 C599 1.524 . S
C601 C598 1.403 . S
C601 C602 1.392 . S
C601 C605 1.495 . S
C602 C601 1.392 . S
C602 C603 1.385 . S
C602 C604 1.478 . S
C603 H597 0.930 . S
C603 C599 1.400 . S
C603 C602 1.385 . S
C604 C602 1.478 . S
C604 C606 1.381 . S
C604 C610 1.383 . S
C605 C601 1.495 . S
C605 H611 0.959 . S
C605 H612 0.961 . S
C605 H613 0.960 . S
C606 C604 1.381 . S
C606 C607 1.394 . S
C606 H614 0.930 . S
C607 C606 1.394 . S
C607 C608 1.383 . S
C607 H615 0.929 . S
C608 C607 1.383 . S
C608 C609 1.377 . S
C609 H593 0.930 . S
C609 C608 1.377 . S
C609 C610 1.379 . S
C610 H594 0.931 . S
C610 C604 1.383 . S
C610 C609 1.379 . S
H611 C605 0.959 . S
H612 C605 0.961 . S
H613 C605 0.960 . S
H614 C606 0.930 . S
H615 C607 0.929 . S
H616 C624 0.929 . S
H617 C626 0.930 . S
H618 C628 0.930 . S
H619 C631 0.929 . S
H620 C634 0.938 . S
H621 C636 0.960 1_655 S
H622 C636 0.960 . S
H623 C636 0.960 . S
C624 H616 0.929 . S
C624 C625 1.377 1_545 S
C624 C626 1.384 1_545 S
C625 C624 1.377 1_565 S
C625 C631 1.390 . S
C626 H617 0.930 . S
C626 C624 1.384 1_565 S
C626 C627 1.372 . S
C627 C626 1.372 . S
C627 C628 1.400 . S
C627 C632 1.490 . S
C628 H618 0.930 . S
C628 C627 1.400 . S
C628 C631 1.386 . S
H629 C645 0.930 . S
H630 C646 0.931 . S
C631 H619 0.929 . S
C631 C625 1.390 . S
C631 C628 1.386 . S
C632 C627 1.490 . S
C632 C634 1.395 1_454 S
C632 C635 1.403 1_455 S
H633 C639 0.930 . S
C634 H620 0.938 . S
C634 C632 1.395 1_656 S
C634 C637 1.403 . S
C635 C632 1.403 1_655 S
C635 C636 1.524 1_655 S
C635 C639 1.400 . S
C636 H621 0.960 1_455 S
C636 H622 0.960 . S
C636 H623 0.960 . S
C636 C635 1.524 1_455 S
C637 C634 1.403 . S
C637 C638 1.392 1_556 S
C637 C641 1.495 . S
C638 C637 1.392 1_554 S
C638 C639 1.385 . S
C638 C640 1.478 1_554 S
C639 H633 0.930 . S
C639 C635 1.400 . S
C639 C638 1.385 . S
C640 C638 1.478 1_556 S
C640 C642 1.381 . S
C640 C646 1.383 . S
C641 C637 1.495 . S
C641 H647 0.959 . S
C641 H648 0.961 . S
C641 H649 0.960 . S
C642 C640 1.381 . S
C642 C643 1.394 . S
C642 H650 0.930 . S
C643 C642 1.394 . S
C643 C644 1.383 . S
C643 H651 0.929 . S
C644 C643 1.383 . S
C644 C645 1.377 . S
C645 H629 0.930 . S
C645 C644 1.377 . S
C645 C646 1.379 . S
C646 H630 0.931 . S
C646 C640 1.383 . S
C646 C645 1.379 . S
H647 C641 0.959 . S
H648 C641 0.961 . S
H649 C641 0.960 . S
H650 C642 0.930 . S
H651 C643 0.929 . S
H652 C660 0.929 . S
H653 C662 0.930 . S
H654 C664 0.930 . S
H655 C667 0.929 . S
H656 C670 0.930 . S
H657 C672 0.960 . S
H658 C672 0.960 . S
H659 C672 0.960 . S
C660 H652 0.929 . S
C660 C661 1.377 . S
C660 C662 1.384 . S
C661 C660 1.377 . S
C661 C667 1.390 . S
C662 H653 0.930 . S
C662 C660 1.384 . S
C662 C663 1.372 . S
C663 C662 1.372 . S
C663 C664 1.400 . S
C663 C668 1.490 . S
C664 H654 0.930 . S
C664 C663 1.400 . S
C664 C667 1.386 . S
H665 C681 0.930 . S
H666 C682 0.931 . S
C667 H655 0.929 . S
C667 C661 1.390 . S
C667 C664 1.386 . S
C668 C663 1.490 . S
C668 C670 1.395 . S
C668 C671 1.403 . S
H669 C675 0.930 . S
C670 H656 0.930 . S
C670 C668 1.395 . S
C670 C673 1.403 . S
C671 C668 1.403 . S
C671 C672 1.524 . S
C671 C675 1.400 . S
C672 H657 0.960 . S
C672 H658 0.960 . S
C672 H659 0.960 . S
C672 C671 1.524 . S
C673 C670 1.403 . S
C673 C674 1.392 . S
C673 C677 1.495 . S
C674 C673 1.392 . S
C674 C675 1.385 . S
C674 C676 1.478 . S
C675 H669 0.930 . S
C675 C671 1.400 . S
C675 C674 1.385 . S
C676 C674 1.478 . S
C676 C678 1.381 . S
C676 C682 1.383 . S
C677 C673 1.495 . S
C677 H683 0.959 . S
C677 H684 0.961 . S
C677 H685 0.960 . S
C678 C676 1.381 . S
C678 C679 1.394 . S
C678 H686 0.930 . S
C679 C678 1.394 . S
C679 C680 1.383 . S
C679 H687 0.929 . S
C680 C679 1.383 . S
C680 C681 1.377 . S
C681 H665 0.930 . S
C681 C680 1.377 . S
C681 C682 1.379 . S
C682 H666 0.931 . S
C682 C676 1.383 . S
C682 C681 1.379 . S
H683 C677 0.959 . S
H684 C677 0.961 . S
H685 C677 0.960 . S
H686 C678 0.930 . S
H687 C679 0.929 . S
H688 C696 0.929 . S
H689 C698 0.930 . S
H690 C700 0.932 . S
H691 C703 0.929 . S
H692 C706 0.930 . S
H693 C708 0.960 . S
H694 C708 0.960 . S
H695 C708 0.960 . S
C696 H688 0.929 . S
C696 C697 1.377 . S
C696 C698 1.384 . S
C697 C696 1.377 . S
C697 C703 1.390 . S
C698 H689 0.930 . S
C698 C696 1.384 . S
C698 C699 1.372 1_554 S
C699 C698 1.372 1_556 S
C699 C700 1.401 . S
C699 C704 1.490 . S
C700 H690 0.932 . S
C700 C699 1.401 . S
C700 C703 1.383 1_556 S
H701 C717 0.930 . S
H702 C718 0.931 . S
C703 H691 0.929 . S
C703 C697 1.390 . S
C703 C700 1.383 1_554 S
C704 C699 1.490 . S
C704 C706 1.395 . S
C704 C707 1.403 1_556 S
H705 C711 0.930 . S
C706 H692 0.930 . S
C706 C704 1.395 . S
C706 C709 1.403 . S
C707 C704 1.403 1_554 S
C707 C708 1.524 . S
C707 C711 1.400 . S
C708 H693 0.960 . S
C708 H694 0.960 . S
C708 H695 0.960 . S
C708 C707 1.524 . S
C709 C706 1.403 . S
C709 C710 1.392 . S
C709 C713 1.495 . S
C710 C709 1.392 . S
C710 C711 1.385 1_556 S
C710 C712 1.478 . S
C711 H705 0.930 . S
C711 C707 1.400 . S
C711 C710 1.385 1_554 S
C712 C710 1.478 . S
C712 C714 1.381 . S
C712 C718 1.383 . S
C713 C709 1.495 . S
C713 H719 0.959 . S
C713 H720 0.961 . S
C713 H721 0.960 . S
C714 C712 1.381 . S
C714 C715 1.394 . S
C714 H722 0.930 . S
C715 C714 1.394 . S
C715 C716 1.383 . S
C715 H723 0.929 . S
C716 C715 1.383 . S
C716 C717 1.377 . S
C717 H701 0.930 . S
C717 C716 1.377 . S
C717 C718 1.379 . S
C718 H702 0.931 . S
C718 C712 1.383 . S
C718 C717 1.379 . S
H719 C713 0.959 . S
H720 C713 0.961 . S
H721 C713 0.960 . S
H722 C714 0.930 . S
H723 C715 0.929 . S
H724 C732 0.929 . S
H725 C734 0.930 . S
H726 C736 0.930 . S
H727 C739 0.929 . S
H728 C742 0.930 . S
H729 C744 0.960 . S
H730 C744 0.960 . S
H731 C744 0.960 . S
C732 H724 0.929 . S
C732 C733 1.377 . S
C732 C734 1.384 . S
C733 C732 1.377 . S
C733 C739 1.390 . S
C734 H725 0.930 . S
C734 C732 1.384 . S
C734 C735 1.372 . S
C735 C734 1.372 . S
C735 C736 1.400 . S
C735 C740 1.490 . S
C736 H726 0.930 . S
C736 C735 1.400 . S
C736 C739 1.386 . S
H737 C753 0.930 . S
H738 C754 0.931 . S
C739 H727 0.929 . S
C739 C733 1.390 . S
C739 C736 1.386 . S
C740 C735 1.490 . S
C740 C742 1.395 . S
C740 C743 1.403 . S
H741 C747 0.930 . S
C742 H728 0.930 . S
C742 C740 1.395 . S
C742 C745 1.403 1_455 S
C743 C740 1.403 . S
C743 C744 1.524 . S
C743 C747 1.400 . S
C744 H729 0.960 . S
C744 H730 0.960 . S
C744 H731 0.960 . S
C744 C743 1.524 . S
C745 C742 1.403 1_655 S
C745 C746 1.392 . S
C745 C749 1.495 . S
C746 C745 1.392 . S
C746 C747 1.385 1_655 S
C746 C748 1.478 . S
C747 H741 0.930 . S
C747 C743 1.400 . S
C747 C746 1.385 1_455 S
C748 C746 1.478 . S
C748 C750 1.381 . S
C748 C754 1.383 . S
C749 C745 1.495 . S
C749 H755 0.959 . S
C749 H756 0.961 . S
C749 H757 0.960 . S
C750 C748 1.381 . S
C750 C751 1.394 . S
C750 H758 0.930 . S
C751 C750 1.394 . S
C751 C752 1.383 . S
C751 H759 0.929 . S
C752 C751 1.383 . S
C752 C753 1.377 . S
C753 H737 0.930 . S
C753 C752 1.377 . S
C753 C754 1.379 . S
C754 H738 0.931 . S
C754 C748 1.383 . S
C754 C753 1.379 . S
H755 C749 0.959 . S
H756 C749 0.961 . S
H757 C749 0.960 . S
H758 C750 0.930 . S
H759 C751 0.929 . S
C193 N25 1.952 . S
C212 C16 2.024 . S
C229 N2 2.023 . S
C248 C39 2.175 . S
C265 N71 1.952 . S
C284 C62 2.023 . S
C301 N48 2.012 . S
C320 C85 2.158 . S
C337 N104 1.892 . S
C356 C122 1.968 . S
C373 N127 2.017 . S
C392 C99 2.048 . S
C409 N150 1.884 . S
C428 C168 1.945 . S
C445 C145 2.043 . S
C464 N173 2.028 1_565 S
C481 C7 1.147 . S
C500 C76 1.153 . S
C517 C30 1.141 . S
C536 C53 1.126 . S
C553 N163 1.005 . S
C572 N94 1.077 . S
C589 N140 1.077 . S
C608 N117 0.944 . S
C625 N12 1.420 1_565 S
C644 C108 1.353 . S
C661 C131 1.226 . S
C680 N35 1.271 . S
C697 C154 1.375 . S
C716 N58 1.425 . S
C733 C177 1.224 . S
C752 N81 1.259 . S
