# Generated by pormake.
# Topology smm, (6)-cn, num edge types: 1
# Building blocks:
#     Node 0, Type 0, BuildingBlock: CIFDUS_clean_sbu_1, # of connection points: 6
#     Node 1, Type 0, BuildingBlock: CIFDUS_clean_sbu_1, # of connection points: 6
#     Node 2, Type 0, BuildingBlock: CIFDUS_clean_sbu_1, # of connection points: 6
#     Node 3, Type 0, BuildingBlock: CIFDUS_clean_sbu_1, # of connection points: 6
#     Node 4, Type 0, BuildingBlock: CIFDUS_clean_sbu_1, # of connection points: 6
#     Node 5, Type 0, BuildingBlock: CIFDUS_clean_sbu_1, # of connection points: 6
#     Node 6, Type 0, BuildingBlock: CIFDUS_clean_sbu_1, # of connection points: 6
#     Node 7, Type 0, BuildingBlock: CIFDUS_clean_sbu_1, # of connection points: 6
#     Node 8, Type 0, BuildingBlock: CIFDUS_clean_sbu_1, # of connection points: 6
#     Edge 9, Type (0, 0), BuildingBlock: UVAHIK_clean_linker_0, # of connection points: 2
#     Edge 10, Type (0, 0), BuildingBlock: UVAHIK_clean_linker_0, # of connection points: 2
#     Edge 11, Type (0, 0), BuildingBlock: UVAHIK_clean_linker_0, # of connection points: 2
#     Edge 12, Type (0, 0), BuildingBlock: UVAHIK_clean_linker_0, # of connection points: 2
#     Edge 13, Type (0, 0), BuildingBlock: UVAHIK_clean_linker_0, # of connection points: 2
#     Edge 14, Type (0, 0), BuildingBlock: UVAHIK_clean_linker_0, # of connection points: 2
#     Edge 15, Type (0, 0), BuildingBlock: UVAHIK_clean_linker_0, # of connection points: 2
#     Edge 16, Type (0, 0), BuildingBlock: UVAHIK_clean_linker_0, # of connection points: 2
#     Edge 17, Type (0, 0), BuildingBlock: UVAHIK_clean_linker_0, # of connection points: 2
#     Edge 18, Type (0, 0), BuildingBlock: UVAHIK_clean_linker_0, # of connection points: 2
#     Edge 19, Type (0, 0), BuildingBlock: UVAHIK_clean_linker_0, # of connection points: 2
#     Edge 20, Type (0, 0), BuildingBlock: UVAHIK_clean_linker_0, # of connection points: 2
#     Edge 21, Type (0, 0), BuildingBlock: UVAHIK_clean_linker_0, # of connection points: 2
#     Edge 22, Type (0, 0), BuildingBlock: UVAHIK_clean_linker_0, # of connection points: 2
#     Edge 23, Type (0, 0), BuildingBlock: UVAHIK_clean_linker_0, # of connection points: 2
#     Edge 24, Type (0, 0), BuildingBlock: UVAHIK_clean_linker_0, # of connection points: 2
#     Edge 25, Type (0, 0), BuildingBlock: UVAHIK_clean_linker_0, # of connection points: 2
#     Edge 26, Type (0, 0), BuildingBlock: UVAHIK_clean_linker_0, # of connection points: 2
#     Edge 27, Type (0, 0), BuildingBlock: UVAHIK_clean_linker_0, # of connection points: 2
#     Edge 28, Type (0, 0), BuildingBlock: UVAHIK_clean_linker_0, # of connection points: 2
#     Edge 29, Type (0, 0), BuildingBlock: UVAHIK_clean_linker_0, # of connection points: 2
#     Edge 30, Type (0, 0), BuildingBlock: UVAHIK_clean_linker_0, # of connection points: 2
#     Edge 31, Type (0, 0), BuildingBlock: UVAHIK_clean_linker_0, # of connection points: 2
#     Edge 32, Type (0, 0), BuildingBlock: UVAHIK_clean_linker_0, # of connection points: 2
#     Edge 33, Type (0, 0), BuildingBlock: UVAHIK_clean_linker_0, # of connection points: 2
#     Edge 34, Type (0, 0), BuildingBlock: UVAHIK_clean_linker_0, # of connection points: 2
#     Edge 35, Type (0, 0), BuildingBlock: UVAHIK_clean_linker_0, # of connection points: 2
# Relax obj value: 0.216
# Max RMSD: 0.237
# Mean RMSD: 0.216
data_MOF--net-smm--node1-CIFDUS_clean_sbu_1--edge1-UVAHIK_clean_linker_0
_symmetry_space_group_name_H-M    P1
_symmetry_Int_Tables_number       1
_symmetry_cell_setting            triclinic
loop_
_symmetry_equiv_pos_as_xyz
'x, y, z'
_cell_length_a     63.868851
_cell_length_b     64.046092
_cell_length_c     19.822176
_cell_angle_alpha  94.038919
_cell_angle_beta   93.81704
_cell_angle_gamma 119.95742
loop_
_atom_site_label
_atom_site_type_symbol
_atom_site_fract_x
_atom_site_fract_y
_atom_site_fract_z
_atom_type_partial_charge
O0 O 0.01859 0.19679 0.12795 0.0
Mn1 Mn 0.02243 0.19689 0.02571 0.0
O2 O 0.97853 0.17048 0.13098 0.0
Mn3 Mn 0.96726 0.16612 0.03826 0.0
O4 O 0.02611 0.19664 0.92315 0.0
O5 O 0.05557 0.20119 0.04407 0.0
Mn6 Mn 0.07782 0.22633 0.00972 0.0
O7 O 0.03684 0.23461 0.03122 0.0
O8 O 0.06653 0.21936 0.91665 0.0
O9 O 1.00821 0.15909 0.01723 0.0
O10 O 0.96811 0.14141 -0.01298 0.0
O11 O 0.09282 0.21024 0.04511 0.0
O12 O 0.07737 0.25274 0.05237 0.0
C13 C 0.97369 0.20005 0.00629 0.0
C14 C 1.00027 0.18457 0.16037 0.0
C15 C 0.04442 0.20648 0.889 0.0
C16 C 0.07106 0.19421 0.0555 0.0
C17 C 0.05799 0.25383 0.04471 0.0
C18 C 0.98747 0.14032 -0.00541 0.0
O19 O 0.9892 0.19271 0.00859 0.0
O20 O 0.9519 0.18295 0.01277 0.0
O21 O 0.84577 0.83935 0.94168 0.0
Mn22 Mn 0.84946 0.83894 0.04536 0.0
O23 O 0.83236 0.86564 0.92794 0.0
Mn24 Mn 0.82568 0.86979 0.01713 0.0
O25 O 0.85332 0.83905 0.14977 0.0
O26 O 0.8781 0.83464 0.03907 0.0
Mn27 Mn 0.8759 0.81046 0.08069 0.0
O28 O 0.82561 0.80121 0.03684 0.0
O29 O 0.87321 0.81883 0.17057 0.0
O30 O 0.87392 0.87676 0.05741 0.0
O31 O 0.85156 0.89413 0.07498 0.0
O32 O 0.9064 0.82589 0.04936 0.0
O33 O 0.84806 0.78316 0.03725 0.0
C34 C 0.79754 0.83619 0.04565 0.0
C35 C 0.83982 0.85162 0.9044 0.0
C36 C 0.86297 0.83063 0.19058 0.0
C37 C 0.90017 0.8411 0.03019 0.0
C38 C 0.82749 0.78205 0.03253 0.0
C39 C 0.87208 0.89534 0.0764 0.0
O40 O 0.82036 0.84297 0.04937 0.0
O41 O 0.79341 0.85348 0.03369 0.0
O42 O 0.18873 0.01931 0.07632 0.0
Mn43 Mn 0.18589 0.01523 0.97171 0.0
O44 O 0.20239 0.05917 0.10557 0.0
Mn45 Mn 0.20937 0.07021 0.02021 0.0
O46 O 0.18296 0.01156 0.86659 0.0
O47 O 0.15746 0.9817 0.96847 0.0
Mn48 Mn 0.16096 0.96031 0.91742 0.0
O49 O 0.21027 1.00216 0.97136 0.0
O50 O 0.16438 0.97136 0.83199 0.0
O51 O 0.1611 0.02802 0.96816 0.0
O52 O 0.18355 0.06827 0.96676 0.0
O53 O 0.12991 0.94411 0.94431 0.0
O54 O 0.18858 0.96144 0.95777 0.0
C55 C 0.23754 0.06493 0.98318 0.0
C56 C 0.19465 0.03755 0.12066 0.0
C57 C 0.17416 0.99346 0.81973 0.0
C58 C 0.13526 0.96532 0.97211 0.0
C59 C 0.2089 0.98134 0.9677 0.0
C60 C 0.16307 0.0486 0.9587 0.0
O61 O 0.2147 0.0488 0.97701 0.0
O62 O 0.2418 0.0864 0.00448 0.0
O63 O 0.69554 0.52866 0.20815 0.0
Mn64 Mn 0.69175 0.52586 0.30995 0.0
O65 O 0.73562 0.54365 0.20139 0.0
Mn66 Mn 0.74698 0.55102 0.29446 0.0
O67 O 0.68784 0.52261 0.41185 0.0
O68 O 0.65854 0.49681 0.28576 0.0
Mn69 Mn 0.6365 0.5 0.32624 0.0
O70 O 0.67771 0.54941 0.31572 0.0
O71 O 0.64734 0.50378 0.41864 0.0
O72 O 0.70591 0.50226 0.3081 0.0
O73 O 0.74647 0.52545 0.33311 0.0
O74 O 0.62069 0.46922 0.27754 0.0
O75 O 0.63709 0.52702 0.29665 0.0
C76 C 0.73991 0.5783 0.33736 0.0
C77 C 0.71374 0.53511 0.17389 0.0
C78 C 0.66944 0.51366 0.44592 0.0
C79 C 0.64226 0.4747 0.26402 0.0
C80 C 0.65668 0.54755 0.30684 0.0
C81 C 0.72702 0.50476 0.32387 0.0
O82 O 0.72506 0.55515 0.33252 0.0
O83 O 0.76184 0.58359 0.32856 0.0
O84 O 0.50543 0.17697 0.18749 0.0
Mn85 Mn 0.5108 0.17834 0.29177 0.0
O86 O 0.49248 0.20356 0.17254 0.0
Mn87 Mn 0.48731 0.20951 0.26219 0.0
O88 O 0.51642 0.18022 0.3966 0.0
O89 O 0.5387 0.17281 0.28326 0.0
Mn90 Mn 0.53587 0.14881 0.3271 0.0
O91 O 0.48613 0.14093 0.28971 0.0
O92 O 0.53516 0.15891 0.4172 0.0
O93 O 0.53581 0.21604 0.2976 0.0
O94 O 0.51434 0.23447 0.31516 0.0
O95 O 0.56527 0.16147 0.29067 0.0
O96 O 0.50723 0.12158 0.288 0.0
C97 C 0.45979 0.17669 0.29645 0.0
C98 C 0.49931 0.18897 0.14947 0.0
C99 C 0.52604 0.17177 0.43743 0.0
C100 C 0.55992 0.17719 0.27056 0.0
C101 C 0.48711 0.12129 0.28632 0.0
C102 C 0.53461 0.23521 0.31416 0.0
O103 O 0.48258 0.18354 0.29839 0.0
O104 O 0.45539 0.19367 0.28269 0.0
O105 O 0.86097 0.34436 0.22677 0.0
Mn106 Mn 0.86342 0.34825 0.33131 0.0
O107 O 0.83537 0.30423 0.19515 0.0
Mn108 Mn 0.83306 0.29311 0.28095 0.0
O109 O 0.86541 0.35192 0.43633 0.0
O110 O 0.86699 0.38109 0.33137 0.0
Mn111 Mn 0.89246 0.40333 0.38608 0.0
O112 O 0.90138 0.36315 0.34088 0.0
O113 O 0.88594 0.39224 0.47108 0.0
O114 O 0.82529 0.33337 0.32511 0.0
O115 O 0.8091 0.29331 0.32744 0.0
O116 O 0.87681 0.41861 0.34983 0.0
O117 O 0.91921 0.40372 0.35414 0.0
C118 C 0.86808 0.30042 0.32539 0.0
C119 C 0.84852 0.32603 0.18119 0.0
C120 C 0.87449 0.37007 0.48315 0.0
C121 C 0.86083 0.39704 0.32149 0.0
C122 C 0.92043 0.38445 0.34663 0.0
C123 C 0.80731 0.31227 0.33218 0.0
O124 O 0.86016 0.31543 0.32933 0.0
O125 O 0.85112 0.27854 0.30245 0.0
O126 O 0.35518 0.86998 0.75249 0.0
Mn127 Mn 0.3592 0.86938 0.6503 0.0
O128 O 0.31561 0.84191 0.75527 0.0
Mn129 Mn 0.30419 0.83637 0.66226 0.0
O130 O 0.36302 0.8682 0.54765 0.0
O131 O 0.39315 0.87589 0.67091 0.0
Mn132 Mn 0.41431 0.90093 0.63367 0.0
O133 O 0.37145 0.90663 0.65118 0.0
O134 O 0.40328 0.89193 0.54065 0.0
O135 O 0.34694 0.83203 0.64625 0.0
O136 O 0.30678 0.81212 0.6143 0.0
O137 O 0.43123 0.88763 0.67497 0.0
O138 O 0.41213 0.92704 0.67057 0.0
C139 C 0.30922 0.8697 0.62924 0.0
C140 C 0.33705 0.85708 0.78484 0.0
C141 C 0.38126 0.8781 0.51323 0.0
C142 C 0.40996 0.87099 0.68696 0.0
C143 C 0.392 0.92668 0.6618 0.0
C144 C 0.32677 0.81233 0.62499 0.0
O145 O 0.32521 0.86297 0.63065 0.0
O146 O 0.2877 0.85204 0.63553 0.0
O147 O 0.18632 0.51503 0.61476 0.0
Mn148 Mn 0.19081 0.5155 0.71876 0.0
O149 O 0.17308 0.54144 0.60061 0.0
Mn150 Mn 0.16667 0.54625 0.6897 0.0
O151 O 0.19562 0.51659 0.8234 0.0
O152 O 0.21922 0.51063 0.71175 0.0
Mn153 Mn 0.21613 0.48614 0.75369 0.0
O154 O 0.16653 0.47796 0.71367 0.0
O155 O 0.21424 0.49515 0.84382 0.0
O156 O 0.21513 0.55324 0.72692 0.0
O157 O 0.19316 0.57114 0.74481 0.0
O158 O 0.24623 0.49989 0.72075 0.0
O159 O 0.18798 0.45901 0.71143 0.0
C160 C 0.13918 0.51216 0.71805 0.0
C161 C 0.18035 0.52725 0.57725 0.0
C162 C 0.20492 0.50782 0.86411 0.0
C163 C 0.24092 0.51577 0.70182 0.0
C164 C 0.16772 0.45846 0.70871 0.0
C165 C 0.21359 0.57219 0.74375 0.0
O166 O 0.16226 0.52017 0.7247 0.0
O167 O 0.13423 0.52888 0.70555 0.0
O168 O 0.53279 0.69445 0.78707 0.0
Mn169 Mn 0.52981 0.69042 0.68246 0.0
O170 O 0.54793 0.73458 0.81654 0.0
Mn171 Mn 0.55589 0.74564 0.73155 0.0
O172 O 0.52662 0.68674 0.57716 0.0
O173 O 0.50005 0.65745 0.67943 0.0
Mn174 Mn 0.50273 0.63562 0.6277 0.0
O175 O 0.55285 0.67577 0.68111 0.0
O176 O 0.50548 0.64647 0.54216 0.0
O177 O 0.50672 0.70529 0.67948 0.0
O178 O 0.53106 0.74533 0.67753 0.0
O179 O 0.47259 0.61936 0.65901 0.0
O180 O 0.52979 0.63523 0.66536 0.0
C181 C 0.58294 0.7382 0.69616 0.0
C182 C 0.53927 0.71282 0.83148 0.0
C183 C 0.51646 0.66863 0.53009 0.0
C184 C 0.47834 0.64067 0.68715 0.0
C185 C 0.55053 0.65457 0.67627 0.0
C186 C 0.51002 0.72635 0.66943 0.0
O187 O 0.55976 0.72324 0.68798 0.0
O188 O 0.58846 0.76009 0.71749 0.0
C189 C 0.08316 0.29902 0.05269 0.0
C190 C 0.06094 0.27759 0.03084 0.0
C191 C 0.08997 0.31986 0.02052 0.0
C192 C 0.07077 0.34833 0.89029 0.0
H193 H 0.13635 0.37148 0.84505 0.0
C194 C 0.12849 0.43513 0.75843 0.0
C195 C 0.14605 0.43512 0.71905 0.0
C196 C 0.11326 0.4146 0.78941 0.0
C197 C 0.11789 0.36508 0.85633 0.0
H198 H 0.02719 0.26223 0.96353 0.0
H199 H 0.03916 0.29854 0.9072 0.0
H200 H 0.11961 0.34084 0.92187 0.0
H201 H 0.15906 0.41257 0.67391 0.0
H202 H 0.13207 0.37668 0.72595 0.0
H203 H 0.06924 0.3727 0.8234 0.0
C204 C 0.05137 0.29926 0.94912 0.0
C205 C 0.10842 0.34779 0.90166 0.0
C206 C 0.04445 0.27841 0.98179 0.0
C207 C 0.14596 0.41328 0.70459 0.0
C208 C 0.13065 0.39278 0.73508 0.0
C209 C 0.08038 0.3659 0.84491 0.0
C210 C 0.07481 0.31971 0.96536 0.0
C211 C 0.08478 0.33918 0.91953 0.0
C212 C 0.11521 0.39367 0.78121 0.0
C213 C 0.10404 0.37435 0.82704 0.0
H214 H 0.09617 0.29911 0.09087 0.0
H215 H 0.10786 0.33559 0.03583 0.0
H216 H 0.05247 0.34205 0.90284 0.0
H217 H 0.12812 0.45166 0.77102 0.0
H218 H 0.1015 0.4159 0.8243 0.0
C219 C 0.75485 0.80468 0.05117 0.0
C220 C 0.77727 0.81099 0.02775 0.0
C221 C 0.73309 0.786 0.01529 0.0
C222 C 0.71034 0.75735 0.83632 0.0
H223 H 0.64883 0.73007 0.91123 0.0
C224 C 0.62472 0.74612 0.6879 0.0
C225 C 0.60173 0.73145 0.70871 0.0
C226 C 0.64537 0.74688 0.71968 0.0
C227 C 0.66567 0.73692 0.88862 0.0
H228 H 0.79448 0.8017 0.95004 0.0
H229 H 0.75689 0.76777 0.89088 0.0
H230 H 0.68609 0.74552 0.98655 0.0
H231 H 0.58238 0.70562 0.77846 0.0
H232 H 0.61772 0.70495 0.82902 0.0
H233 H 0.68987 0.74812 0.73821 0.0
C234 C 0.75588 0.77766 0.93593 0.0
C235 C 0.68729 0.7463 0.93248 0.0
C236 C 0.77765 0.79669 0.97129 0.0
C237 C 0.59955 0.71614 0.75847 0.0
C238 C 0.62012 0.71646 0.78931 0.0
C239 C 0.68867 0.74745 0.79229 0.0
C240 C 0.73317 0.77302 0.9549 0.0
C241 C 0.71008 0.75781 0.90748 0.0
C242 C 0.64357 0.73289 0.77324 0.0
C243 C 0.66604 0.73819 0.81793 0.0
H244 H 0.75398 0.81579 0.09348 0.0
H245 H 0.71625 0.78344 0.03187 0.0
H246 H 0.72731 0.76597 0.81426 0.0
H247 H 0.62706 0.75866 0.65117 0.0
H248 H 0.66289 0.76006 0.70584 0.0
C249 C 0.23109 0.9583 0.9655 0.0
C250 C 0.23103 0.97992 0.9576 0.0
C251 C 0.24831 0.95394 0.93768 0.0
C252 C 0.28385 0.96966 0.79244 0.0
H253 H 0.30621 0.92849 0.86369 0.0
C254 C 0.32966 0.90711 0.71235 0.0
C255 C 0.31457 0.89459 0.65125 0.0
C256 C 0.32735 0.92513 0.74951 0.0
C257 C 0.30063 0.94041 0.84316 0.0
H258 H 0.25013 0.01454 0.91766 0.0
H259 H 0.2805 1.00718 0.87075 0.0
H260 H 0.2883 0.94575 0.93724 0.0
H261 H 0.28629 0.89219 0.57926 0.0
H262 H 0.28216 0.92352 0.64361 0.0
H263 H 0.29563 0.9638 0.69777 0.0
C264 C 0.26702 0.99347 0.8978 0.0
C265 C 0.29004 0.95008 0.88532 0.0
C266 C 0.24982 0.99787 0.92589 0.0
C267 C 0.29859 0.90194 0.62531 0.0
C268 C 0.29616 0.91987 0.66259 0.0
C269 C 0.29442 0.95996 0.75016 0.0
C270 C 0.26587 0.97104 0.90093 0.0
C271 C 0.28086 0.96424 0.86001 0.0
C272 C 0.30957 0.93073 0.72704 0.0
C273 C 0.30234 0.94463 0.77438 0.0
H274 H 0.21682 0.94405 -0.0107 0.0
H275 H 0.24672 0.93641 0.94089 0.0
H276 H 0.27683 0.98034 0.7709 0.0
H277 H 0.34141 0.90134 0.73543 0.0
H278 H 0.33827 0.93337 0.79835 0.0
C279 C 0.4177 0.14506 0.30895 0.0
C280 C 0.43959 0.15131 0.28221 0.0
C281 C 0.39568 0.12539 0.27747 0.0
C282 C 0.36982 0.09283 0.10345 0.0
H283 H 0.31055 0.06481 0.1897 0.0
C284 C 0.27968 0.07531 0.96852 0.0
C285 C 0.25762 0.0599 -0.00701 0.0
C286 C 0.30149 0.07768 -0.00278 0.0
C287 C 0.32679 0.07186 0.16412 0.0
H288 H 0.45559 0.14126 0.2025 0.0
H289 H 0.41773 0.10572 0.15132 0.0
H290 H 0.34947 0.08326 0.25922 0.0
H291 H 0.24104 0.03433 0.06571 0.0
H292 H 0.27858 0.03677 0.11187 0.0
H293 H 0.34713 0.08101 0.00828 0.0
C294 C 0.4173 0.11627 0.19576 0.0
C295 C 0.34932 0.08294 0.20451 0.0
C296 C 0.43928 0.13627 0.2266 0.0
C297 C 0.25753 0.0455 0.04337 0.0
C298 C 0.2793 0.04753 0.07139 0.0
C299 C 0.34728 0.08132 0.06298 0.0
C300 C 0.39498 0.11139 0.21822 0.0
C301 C 0.37122 0.09468 0.1751 0.0
C302 C 0.3018 0.06467 0.05142 0.0
C303 C 0.32541 0.07171 0.09279 0.0
H304 H 0.41731 0.15674 0.35053 0.0
H305 H 0.37909 0.12266 0.2964 0.0
H306 H 0.38607 0.10159 0.07815 0.0
H307 H 0.28037 0.08716 0.93121 0.0
H308 H 0.31823 0.09134 0.98057 0.0
C309 C 0.90195 0.29232 0.34237 0.0
C310 C 0.89347 0.30712 0.31813 0.0
C311 C 0.92108 0.29133 0.31478 0.0
C312 C 0.94785 0.30106 0.1506 0.0
H313 H 0.98053 0.27059 0.23413 0.0
C314 C 0.9954 0.23891 0.08386 0.0
C315 C 0.9797 0.22536 0.0245 0.0
C316 C 0.99412 0.25822 0.11716 0.0
C317 C 0.97216 0.2796 0.20955 0.0
H318 H 0.899 0.33308 0.24706 0.0
H319 H 0.93386 0.3334 0.204 0.0
H320 H 0.96342 0.28911 0.30479 0.0
H321 H 0.9511 0.22205 0.95208 0.0
H322 H 0.94801 0.2547 0.01051 0.0
H323 H 0.95732 0.29231 0.05565 0.0
C324 C 0.92538 0.3219 0.24301 0.0
C325 C 0.9618 0.2899 0.25045 0.0
C326 C 0.90583 0.32242 0.26955 0.0
C327 C 0.96388 0.23258 -0.00326 0.0
C328 C 0.96214 0.25145 0.03077 0.0
C329 C 0.95876 0.29134 0.10991 0.0
C330 C 0.93237 0.30526 0.26218 0.0
C331 C 0.94835 0.29965 0.22133 0.0
C332 C 0.97636 0.26378 0.09352 0.0
C333 C 0.96999 0.27928 0.13815 0.0
H334 H 0.8923 0.2798 0.37826 0.0
H335 H 0.92542 0.278 0.3309 0.0
H336 H 0.93776 0.30831 0.12535 0.0
H337 H 1.00688 0.23312 0.10876 0.0
H338 H 1.0059 0.26756 0.16417 0.0
C339 C 0.8066 0.73677 0.02539 0.0
C340 C 0.80586 0.7582 0.03948 0.0
C341 C 0.79024 0.71542 0.05085 0.0
C342 C 0.75067 0.67002 0.10022 0.0
H343 H 0.74617 0.68182 0.29187 0.0
C344 C 0.71737 0.59139 0.26036 0.0
C345 C 0.73282 0.59623 0.32043 0.0
C346 C 0.71797 0.61032 0.22775 0.0
C347 C 0.74712 0.67815 0.23834 0.0
H348 H 0.78593 0.77332 0.08702 0.0
H349 H 0.75708 0.73594 0.13013 0.0
H350 H 0.76264 0.71561 0.22361 0.0
H351 H 0.76019 0.62481 0.39505 0.0
H352 H 0.76158 0.65791 0.3382 0.0
H353 H 0.73673 0.63292 0.11558 0.0
C354 C 0.77061 0.73577 0.10025 0.0
C355 C 0.75632 0.69752 0.19887 0.0
C356 C 0.78693 0.75714 0.07446 0.0
C357 C 0.74757 0.62044 0.34984 0.0
C358 C 0.74842 0.63946 0.31686 0.0
C359 C 0.74151 0.65069 0.13961 0.0
C360 C 0.77273 0.71494 0.09125 0.0
C361 C 0.75892 0.69382 0.12975 0.0
C362 C 0.73458 0.63466 0.25338 0.0
C363 C 0.74025 0.65456 0.20973 0.0
H364 H 0.82093 0.73693 -0.00127 0.0
H365 H 0.79256 0.69983 0.04298 0.0
H366 H 0.75211 0.66642 0.04704 0.0
H367 H 0.70663 0.57321 0.23434 0.0
H368 H 0.70671 0.60586 0.17966 0.0
C369 C 0.12293 0.47457 0.63718 0.0
C370 C 0.12027 0.48671 0.69485 0.0
C371 C 0.10259 0.45498 0.59833 0.0
C372 C 0.03472 0.41503 0.58626 0.0
H373 H 0.03794 0.42665 0.39679 0.0
C374 C 0.94767 0.37028 0.396 0.0
C375 C 0.94488 0.38729 0.36111 0.0
C376 C 0.97047 0.37624 0.4284 0.0
C377 C 0.03674 0.423 0.44935 0.0
H378 H 0.09431 0.48721 0.75857 0.0
H379 H 0.05876 0.45322 0.69093 0.0
H380 H 0.07481 0.44734 0.4768 0.0
H381 H 0.96425 0.42296 0.32754 0.0
H382 H 1.00385 0.43326 0.38316 0.0
H383 H 0.9963 0.39191 0.55932 0.0
C384 C 0.07658 0.45828 0.67636 0.0
C385 C 0.05798 0.43466 0.49533 0.0
C386 C 0.09699 0.47777 0.71547 0.0
C387 C 0.96576 0.40944 0.35395 0.0
C388 C 0.98853 0.41532 0.38589 0.0
C389 C 1.01344 0.40334 0.54017 0.0
C390 C 0.07901 0.44746 0.61528 0.0
C391 C 0.05717 0.43146 0.5649 0.0
C392 C 0.991 0.39925 0.42612 0.0
C393 C 1.01406 0.40782 0.47157 0.0
H394 H 0.14036 0.4816 0.61794 0.0
H395 H 0.10523 0.44689 0.55224 0.0
H396 H 0.03343 0.41189 0.63919 0.0
H397 H 0.93195 0.35317 0.40329 0.0
H398 H 0.9718 0.36329 0.45809 0.0
C399 C 0.59007 0.66848 0.62833 0.0
C400 C 0.57187 0.65196 0.66477 0.0
C401 C 0.60501 0.66187 0.59516 0.0
C402 C 0.59871 0.60523 0.51645 0.0
H403 H 0.66469 0.64531 0.47385 0.0
C404 C 0.6323 0.56823 0.30837 0.0
C405 C 0.65424 0.56891 0.32747 0.0
C406 C 0.62597 0.58325 0.34527 0.0
C407 C 0.64624 0.63392 0.48531 0.0
H408 H 0.55729 0.61697 0.70234 0.0
H409 H 0.58382 0.60583 0.64684 0.0
H410 H 0.6484 0.66173 0.55791 0.0
H411 H 0.68798 0.58796 0.39552 0.0
H412 H 0.67681 0.61405 0.46022 0.0
H413 H 0.59635 0.57739 0.44519 0.0
C414 C 0.58599 0.62351 0.6416 0.0
C415 C 0.6369 0.64333 0.53332 0.0
C416 C 0.57096 0.63 0.67416 0.0
C417 C 0.67094 0.58696 0.37929 0.0
C418 C 0.66448 0.60189 0.41672 0.0
C419 C 0.60792 0.59595 0.46856 0.0
C420 C 0.60211 0.6387 0.59822 0.0
C421 C 0.61302 0.629 0.54974 0.0
C422 C 0.6413 0.59917 0.40259 0.0
C423 C 0.63175 0.61012 0.45197 0.0
H424 H 0.59114 0.68546 0.61953 0.0
H425 H 0.61729 0.67409 0.56249 0.0
H426 H 0.58009 0.59378 0.5265 0.0
H427 H 0.61916 0.55474 0.26825 0.0
H428 H 0.6083 0.58124 0.33156 0.0
C429 C 0.44937 0.09918 0.34348 0.0
C430 C 0.4657 0.09837 0.30042 0.0
C431 C 0.43519 0.07934 0.37833 0.0
C432 C 0.44244 0.03176 0.44791 0.0
H433 H 0.37863 0.00887 0.50694 0.0
C434 C 0.41511 0.97164 0.66006 0.0
C435 C 0.39326 0.94936 0.64336 0.0
C436 C 0.42018 0.9912 0.62345 0.0
C437 C 0.39649 0.01514 0.4909 0.0
H438 H 0.47738 0.07497 0.25313 0.0
H439 H 0.45224 0.04029 0.31214 0.0
H440 H 0.39252 0.03773 0.42177 0.0
H441 H 0.35835 0.93125 0.58055 0.0
H442 H 0.36725 0.96543 0.51676 0.0
H443 H 0.44664 0.00943 0.51607 0.0
C444 C 0.45098 0.05649 0.3209 0.0
C445 C 0.40444 0.03166 0.44224 0.0
C446 C 0.4652 0.0763 0.28645 0.0
C447 C 0.37538 0.94812 0.5949 0.0
C448 C 0.38052 0.96772 0.55794 0.0
C449 C 0.43465 0.01557 0.49664 0.0
C450 C 0.43699 0.05831 0.37044 0.0
C451 C 0.42749 0.04003 0.41985 0.0
C452 C 0.40357 0.98895 0.56911 0.0
C453 C 0.41164 1.00707 0.51908 0.0
H454 H 0.44938 0.11592 0.35586 0.0
H455 H 0.42452 0.08132 0.41581 0.0
H456 H 0.46048 0.03813 0.43304 0.0
H457 H 0.42917 0.97335 0.6976 0.0
H458 H 0.43783 1.00757 0.63473 0.0
C459 C 0.12086 0.03741 0.98347 0.0
C460 C 0.1412 0.05096 0.94915 0.0
C461 C 0.10322 0.04424 -0.01129 0.0
C462 C 0.08305 0.08569 0.924 0.0
H463 H 0.07256 0.09526 0.11124 0.0
C464 C 0.05135 0.1523 -0.00327 0.0
C465 C 0.06471 0.16872 0.05497 0.0
C466 C 0.05145 0.13056 0.98477 0.0
C467 C 0.07522 0.09268 0.0586 0.0
H468 H 0.15791 0.08077 0.88851 0.0
H469 H 0.12739 0.09246 0.89679 0.0
H470 H 0.08987 0.06994 0.08111 0.0
H471 H 0.08859 0.1754 0.1464 0.0
H472 H 0.08915 0.13773 0.12572 0.0
H473 H 0.07044 0.1099 0.90203 0.0
C474 C 0.12482 0.07665 0.91993 0.0
C475 C 0.08484 0.07784 0.04111 0.0
C476 C 0.14246 0.07002 0.91537 0.0
C477 C 0.07745 0.16261 0.10234 0.0
C478 C 0.07773 0.14095 0.09024 0.0
C479 C 0.07364 0.10063 0.94148 0.0
C480 C 0.10547 0.06449 0.95884 0.0
C481 C 0.08987 0.07504 0.9741 0.0
C482 C 0.06551 0.12505 0.02987 0.0
C483 C 0.0705 0.10515 0.00957 0.0
H484 H 0.11951 0.02272 0.01039 0.0
H485 H 0.0884 0.03433 0.01844 0.0
H486 H 0.08627 0.08358 0.87166 0.0
H487 H 0.04232 0.15707 0.95775 0.0
H488 H 0.0415 0.11868 0.93828 0.0
C489 C 0.89356 0.93834 0.12838 0.0
C490 C 0.8938 0.91994 0.0862 0.0
C491 C 0.90984 0.96269 0.12298 0.0
C492 C 0.9247 1.005 0.04257 0.0
H493 H 0.99407 0.0413 0.02979 0.0
C494 C 0.96592 0.09688 0.94497 0.0
C495 C 0.98462 0.11588 -0.0096 0.0
C496 C 0.95931 0.07282 0.95104 0.0
C497 C 0.97467 0.03127 0.03303 0.0
H498 H 0.91261 0.91253 0.00937 0.0
H499 H 0.9414 0.95534 0.00046 0.0
H500 H 0.97515 0.99958 0.06091 0.0
H501 H 1.01178 0.12468 0.07594 0.0
H502 H 1.00046 0.08256 0.0858 0.0
H503 H 0.92384 0.03616 0.01473 0.0
C504 C 0.92863 0.95084 0.03786 0.0
C505 C 0.9639 1.00749 0.05075 0.0
C506 C 0.91225 0.92633 0.04331 0.0
C507 C 0.99767 0.11045 0.03916 0.0
C508 C 0.99111 0.08633 0.04505 0.0
C509 C 0.93529 0.0284 0.02402 0.0
C510 C 0.92664 0.96917 0.07503 0.0
C511 C 0.93883 0.9943 0.05651 0.0
C512 C 0.97115 0.06724 0.00294 0.0
C513 C 0.96037 0.04186 0.01917 0.0
H514 H 0.87961 0.93391 0.16211 0.0
H515 H 0.9082 0.97649 0.15307 0.0
H516 H 0.90527 0.99515 0.04549 0.0
H517 H 0.95556 0.10054 0.90698 0.0
H518 H 0.94404 0.05847 0.91732 0.0
C519 C 0.92998 0.88346 0.07709 0.0
C520 C 0.91901 0.86578 0.02011 0.0
C521 C 0.95303 0.90391 0.07648 0.0
C522 C 1.00134 0.94027 0.9714 0.0
H523 H 0.04485 0.93674 0.11003 0.0
C524 C 0.09847 0.96594 0.93071 0.0
C525 C 0.11558 0.97012 0.98572 0.0
C526 C 0.07557 0.96227 0.94154 0.0
C527 C 0.03321 0.93876 0.07206 0.0
H528 H 0.92273 0.85601 0.91689 0.0
H529 H 0.96263 0.89228 0.91451 0.0
H530 H 1.00126 0.91369 0.11427 0.0
H531 H 0.12318 0.97578 0.0954 0.0
H532 H 0.08336 0.97045 0.11519 0.0
H533 H 0.03317 0.96525 0.92879 0.0
C534 C 0.95343 0.89043 0.9596 0.0
C535 C 1.00806 0.92533 0.0744 0.0
C536 C 0.93057 0.86974 0.96073 0.0
C537 C 0.11029 0.97277 0.05217 0.0
C538 C 0.0873 0.96929 0.06324 0.0
C539 C 0.02657 0.95417 0.96985 0.0
C540 C 0.96539 0.90712 0.01856 0.0
C541 C 0.99183 0.92521 0.02271 0.0
C542 C 0.06913 0.96269 0.00799 0.0
C543 C 0.04289 0.95277 0.01842 0.0
H544 H 0.92163 0.88049 0.12399 0.0
H545 H 0.96179 0.91648 0.12253 0.0
H546 H 0.98923 0.94072 0.9313 0.0
H547 H 0.10211 0.96354 0.87896 0.0
H548 H 0.06235 0.95706 0.89734 0.0
C549 C 0.71934 0.46393 0.35274 0.0
C550 C 0.7301 0.48346 0.31412 0.0
C551 C 0.72457 0.44506 0.34508 0.0
C552 C 0.75153 0.4184 0.23083 0.0
H553 H 0.77855 0.40819 0.39759 0.0
C554 C 0.83301 0.40427 0.24711 0.0
C555 C 0.83614 0.39158 0.29783 0.0
C556 C 0.81215 0.40622 0.23984 0.0
C557 C 0.77052 0.41019 0.35041 0.0
H558 H 0.75367 0.49827 0.23556 0.0
H559 H 0.76263 0.46565 0.2219 0.0
H560 H 0.75547 0.42901 0.4034 0.0
H561 H 0.81986 0.3705 0.37984 0.0
H562 H 0.78307 0.3734 0.36646 0.0
H563 H 0.76767 0.40073 0.1778 0.0
C564 C 0.75016 0.46457 0.25781 0.0
C565 C 0.75726 0.42218 0.35386 0.0
C566 C 0.74525 0.48341 0.26613 0.0
C567 C 0.81747 0.37969 0.33875 0.0
C568 C 0.79662 0.38175 0.33189 0.0
C569 C 0.76473 0.40638 0.22736 0.0
C570 C 0.74026 0.44536 0.29788 0.0
C571 C 0.7486 0.42741 0.29414 0.0
C572 C 0.79418 0.3959 0.28419 0.0
C573 C 0.77534 0.40311 0.28713 0.0
H574 H 0.7077 0.4637 0.39032 0.0
H575 H 0.71669 0.43048 0.3767 0.0
H576 H 0.74469 0.42178 0.18385 0.0
H577 H 0.84752 0.41421 0.21643 0.0
H578 H 0.81116 0.41757 0.20326 0.0
C579 C 0.63337 0.43817 0.18865 0.0
C580 C 0.64723 0.45509 0.24546 0.0
C581 C 0.6292 0.4145 0.18534 0.0
C582 C 0.60171 0.36608 0.23654 0.0
H583 H 0.64023 0.33971 0.31023 0.0
C584 C 0.55723 0.27919 0.35784 0.0
C585 C 0.55659 0.25963 0.31894 0.0
C586 C 0.57407 0.30306 0.34887 0.0
C587 C 0.62938 0.3469 0.28919 0.0
H588 H 0.66885 0.46115 0.34119 0.0
H589 H 0.66185 0.41993 0.33541 0.0
H590 H 0.66062 0.38204 0.2835 0.0
H591 H 0.574 0.24986 0.2427 0.0
H592 H 0.60408 0.29187 0.22866 0.0
H593 H 0.57054 0.3316 0.24484 0.0
C594 C 0.6546 0.42495 0.29258 0.0
C595 C 0.64098 0.37103 0.27394 0.0
C596 C 0.65889 0.44871 0.29557 0.0
C597 C 0.5745 0.26451 0.2749 0.0
C598 C 0.59156 0.28854 0.26632 0.0
C599 C 0.59024 0.34233 0.25262 0.0
C600 C 0.63839 0.40719 0.23961 0.0
C601 C 0.62718 0.38093 0.24794 0.0
C602 C 0.59072 0.30793 0.3011 0.0
C603 C 0.60387 0.33262 0.28005 0.0
H604 H 0.62385 0.44256 0.15 0.0
H605 H 0.61697 0.40135 0.14322 0.0
H606 H 0.59043 0.37316 0.21805 0.0
H607 H 0.54365 0.27602 0.39201 0.0
H608 H 0.57311 0.31776 0.37629 0.0
C609 C 0.59188 0.1999 0.19768 0.0
C610 C 0.57925 0.20032 0.25242 0.0
C611 C 0.61571 0.21865 0.19526 0.0
C612 C 0.66831 0.24152 0.25038 0.0
H613 H 0.70141 0.31023 0.31569 0.0
C614 C 0.76615 0.28986 0.3699 0.0
C615 C 0.78255 0.30843 0.33463 0.0
C616 C 0.74129 0.2816 0.35942 0.0
C617 C 0.69232 0.29109 0.29705 0.0
H618 H 0.58085 0.22116 0.34535 0.0
H619 H 0.62251 0.25401 0.34132 0.0
H620 H 0.65678 0.28734 0.28743 0.0
H621 H 0.78586 0.33358 0.26278 0.0
H622 H 0.74218 0.31956 0.24604 0.0
H623 H 0.70338 0.24483 0.2622 0.0
C624 C 0.61395 0.23953 0.29943 0.0
C625 C 0.66687 0.27802 0.28096 0.0
C626 C 0.59 0.22079 0.30155 0.0
C627 C 0.77375 0.31978 0.29226 0.0
C628 C 0.74875 0.31159 0.28212 0.0
C629 C 0.69346 0.2544 0.2673 0.0
C630 C 0.62754 0.23788 0.24846 0.0
C631 C 0.65459 0.253 0.25794 0.0
C632 C 0.73225 0.29174 0.31348 0.0
C633 C 0.70569 0.27917 0.29184 0.0
H634 H 0.58411 0.18407 0.15998 0.0
H635 H 0.62559 0.21704 0.15475 0.0
H636 H 0.6595 0.22222 0.23413 0.0
H637 H 0.7724 0.28074 0.40268 0.0
H638 H 0.72893 0.26638 0.38456 0.0
C639 C 0.46918 0.71921 0.69541 0.0
C640 C 0.48905 0.73005 0.65764 0.0
C641 C 0.45202 0.72682 0.6947 0.0
C642 C 0.43198 0.76476 0.60629 0.0
H643 H 0.4192 0.78023 0.78591 0.0
C644 C 0.39348 0.828 0.64131 0.0
C645 C 0.40571 0.8466 0.69565 0.0
C646 C 0.39567 0.80728 0.63857 0.0
C647 C 0.42252 0.776 0.7353 0.0
H648 H 0.50606 0.75652 0.58745 0.0
H649 H 0.47645 0.76979 0.58603 0.0
H650 H 0.4382 0.75557 0.77188 0.0
H651 H 0.42969 0.85824 0.78977 0.0
H652 H 0.43371 0.82229 0.78545 0.0
H653 H 0.41806 0.78656 0.5702 0.0
C654 C 0.47368 0.75521 0.61558 0.0
C655 C 0.43315 0.76155 0.72709 0.0
C656 C 0.49078 0.74769 0.61656 0.0
C657 C 0.4194 0.84373 0.74856 0.0
C658 C 0.42169 0.82307 0.74584 0.0
C659 C 0.42152 0.77929 0.61451 0.0
C660 C 0.45445 0.7454 0.65612 0.0
C661 C 0.43883 0.75649 0.66281 0.0
C662 C 0.41061 0.80497 0.68946 0.0
C663 C 0.4174 0.78583 0.6795 0.0
H664 H 0.46779 0.70607 0.729 0.0
H665 H 0.43737 0.71876 0.72619 0.0
H666 H 0.43568 0.76087 0.55584 0.0
H667 H 0.38366 0.83023 0.59838 0.0
H668 H 0.38657 0.79362 0.59485 0.0
C669 C 0.25277 0.60086 0.70153 0.0
C670 C 0.23535 0.59659 0.74664 0.0
C671 C 0.27031 0.62458 0.69274 0.0
C672 C 0.28815 0.67353 0.64111 0.0
H673 H 0.31365 0.7284 0.78115 0.0
C674 C 0.30706 0.76792 0.58652 0.0
C675 C 0.32533 0.78865 0.62795 0.0
C676 C 0.3024 0.74481 0.59852 0.0
C677 C 0.30713 0.71335 0.74137 0.0
H678 H 0.22323 0.61373 0.81988 0.0
H679 H 0.25351 0.65506 0.80412 0.0
H680 H 0.29518 0.68745 0.81336 0.0
H681 H 0.35326 0.80141 0.71392 0.0
H682 H 0.34587 0.76122 0.73309 0.0
H683 H 0.29975 0.69941 0.56906 0.0
C684 C 0.25407 0.64019 0.77641 0.0
C685 C 0.29626 0.68981 0.75989 0.0
C686 C 0.2366 0.61649 0.78531 0.0
C687 C 0.33956 0.78586 0.67973 0.0
C688 C 0.335 0.76276 0.69156 0.0
C689 C 0.29907 0.69707 0.6226 0.0
C690 C 0.27062 0.64456 0.72829 0.0
C691 C 0.28594 0.66957 0.70989 0.0
C692 C 0.31583 0.74189 0.65253 0.0
C693 C 0.30801 0.71724 0.67235 0.0
H694 H 0.25177 0.58595 0.66933 0.0
H695 H 0.28293 0.62726 0.6558 0.0
H696 H 0.28026 0.65841 0.60108 0.0
H697 H 0.29562 0.76951 0.54678 0.0
H698 H 0.28728 0.72918 0.56795 0.0
C699 C 0.4452 0.62989 0.75934 0.0
C700 C 0.45933 0.64467 0.7123 0.0
C701 C 0.42191 0.62608 0.76533 0.0
C702 C 0.37202 0.62193 0.65262 0.0
H703 H 0.33792 0.60099 0.81118 0.0
C704 C 0.27521 0.54109 0.63818 0.0
C705 C 0.26051 0.5397 0.68904 0.0
C706 C 0.2983 0.56156 0.63906 0.0
C707 C 0.34703 0.60719 0.76639 0.0
H708 H 0.46075 0.66788 0.63651 0.0
H709 H 0.42027 0.66191 0.64819 0.0
H710 H 0.38212 0.62516 0.82503 0.0
H711 H 0.25807 0.55864 0.78022 0.0
H712 H 0.29811 0.59481 0.78093 0.0
H713 H 0.33695 0.60342 0.5938 0.0
C714 C 0.42713 0.65319 0.68057 0.0
C715 C 0.37248 0.62086 0.77436 0.0
C716 C 0.45053 0.65704 0.67484 0.0
C717 C 0.26873 0.55964 0.73898 0.0
C718 C 0.29188 0.58014 0.74009 0.0
C719 C 0.34656 0.60832 0.64468 0.0
C720 C 0.41207 0.63672 0.72351 0.0
C721 C 0.38536 0.62751 0.71731 0.0
C722 C 0.30736 0.58096 0.69169 0.0
C723 C 0.33376 0.59988 0.70113 0.0
H724 H 0.45137 0.61965 0.78742 0.0
H725 H 0.41087 0.61305 0.79834 0.0
H726 H 0.38121 0.62659 0.60734 0.0
H727 H 0.26955 0.5256 0.60047 0.0
H728 H 0.30974 0.56125 0.60156 0.0
C729 C 0.0589 0.21482 0.77431 0.0
C730 C 0.0397 0.20302 0.81389 0.0
C731 C 0.05437 0.21203 0.70351 0.0
C732 C 1.00568 0.19574 0.56537 0.0
H733 H 0.04925 0.18803 0.45244 0.0
C734 C 0.98505 0.17379 0.27334 0.0
C735 C 1.00451 0.18661 0.23537 0.0
C736 C 0.98914 0.17539 0.34401 0.0
C737 C 0.03707 0.1904 0.48339 0.0
H738 H 1.00069 0.17868 0.80983 0.0
H739 H 0.9929 0.17366 0.68619 0.0
H740 H 0.05672 0.19109 0.57601 0.0
H741 H 0.04354 0.21132 0.24219 0.0
H742 H 0.05055 0.21421 0.36555 0.0
H743 H 0.98606 0.1951 0.47273 0.0
C744 C 1.01139 0.18535 0.71015 0.0
C745 C 0.04133 0.19214 0.55404 0.0
C746 C 1.0159 0.18815 0.78098 0.0
C747 C 0.02813 0.20115 0.26975 0.0
C748 C 0.0322 0.20271 0.3404 0.0
C749 C 1.00141 0.19397 0.49471 0.0
C750 C 0.03057 0.19736 0.67075 0.0
C751 C 0.02573 0.19492 0.59574 0.0
C752 C 1.01275 0.1898 0.37818 0.0
C753 C 0.01711 0.19138 0.45306 0.0
H754 H 0.07745 0.22647 0.79791 0.0
H755 H 0.06947 0.22175 0.67449 0.0
H756 H 0.99356 0.19823 0.59627 0.0
H757 H 0.96663 0.16238 0.24857 0.0
H758 H 0.97385 0.16505 0.37182 0.0
C759 C 0.85185 0.83606 0.80366 0.0
C760 C 0.84194 0.84965 0.83073 0.0
C761 C 0.85414 0.83441 0.73432 0.0
C762 C 0.85728 0.86503 0.58198 0.0
H763 H 0.84119 0.80304 0.48595 0.0
C764 C 0.85141 0.84775 0.28939 0.0
C765 C 0.86167 0.83421 0.26433 0.0
C766 C 0.84934 0.85027 0.35875 0.0
C767 C 0.84599 0.82052 0.51228 0.0
H768 H 0.82655 0.87209 0.80589 0.0
H769 H 0.83032 0.86893 0.68468 0.0
H770 H 0.83649 0.80595 0.60663 0.0
H771 H 0.87822 0.81309 0.29291 0.0
H772 H 0.87468 0.81765 0.41373 0.0
H773 H 0.8667 0.87954 0.48732 0.0
C774 C 0.83661 0.85984 0.71741 0.0
C775 C 0.8433 0.82219 0.58131 0.0
C776 C 0.83433 0.86152 0.78682 0.0
C777 C 0.87014 0.82358 0.31032 0.0
C778 C 0.86799 0.82604 0.37953 0.0
C779 C 0.85993 0.86335 0.51282 0.0
C780 C 0.84654 0.84627 0.6905 0.0
C781 C 0.84901 0.84448 0.61694 0.0
C782 C 0.8574 0.83924 0.40433 0.0
C783 C 0.85441 0.84109 0.47743 0.0
H784 H 0.85805 0.8268 0.83601 0.0
H785 H 0.86218 0.8241 0.71518 0.0
H786 H 0.86213 0.88252 0.60834 0.0
H787 H 0.84472 0.85621 0.25544 0.0
H788 H 0.84093 0.86039 0.37647 0.0
C789 C 0.16713 0.97918 0.69526 0.0
C790 C 0.17568 0.99838 0.74802 0.0
C791 C 0.16908 0.98379 0.62765 0.0
C792 C 0.17635 0.02914 0.51395 0.0
H793 H 0.19874 0.99514 0.39648 0.0
C794 C 0.20046 0.05295 0.24404 0.0
C795 C 0.19242 0.03337 0.19279 0.0
C796 C 0.19842 0.04896 0.31216 0.0
C797 C 0.19222 1.00457 0.42849 0.0
H798 H 0.19274 0.03752 0.77088 0.0
H799 H 0.19623 0.0455 0.65257 0.0
H800 H 0.19504 0.98768 0.51516 0.0
H801 H 0.17566 0.99418 0.17296 0.0
H802 H 0.17196 0.98728 0.29176 0.0
H803 H 0.17348 0.04599 0.42712 0.0
C804 C 0.18787 0.02688 0.66378 0.0
C805 C 0.19011 1.00031 0.49635 0.0
C806 C 0.18597 0.02229 0.73152 0.0
C807 C 0.1822 0.00971 0.21114 0.0
C808 C 0.18016 1.00574 0.27923 0.0
C809 C 0.17844 0.03339 0.44599 0.0
C810 C 0.17958 1.00768 0.6113 0.0
C811 C 0.18207 0.01249 0.53963 0.0
C812 C 0.1883 0.02533 0.33038 0.0
C813 C 0.18632 0.02107 0.40259 0.0
H814 H 0.15902 0.96053 0.70603 0.0
H815 H 0.16222 0.96861 0.58807 0.0
H816 H 0.16984 0.03856 0.54607 0.0
H817 H 0.20849 0.07142 0.23174 0.0
H818 H 0.20509 0.06442 0.35067 0.0
C819 C 0.69784 0.525 0.5529 0.0
C820 C 0.67401 0.51507 0.52059 0.0
C821 C 0.70215 0.52676 0.62355 0.0
C822 C 0.67529 0.52933 0.77943 0.0
H823 H 0.72056 0.51219 0.86218 0.0
C824 C 0.68543 0.52271 0.06636 0.0
C825 C 0.70922 0.53269 0.09895 0.0
C826 C 0.68115 0.52038 -0.0044 0.0
C827 C 0.70806 0.51728 0.83975 0.0
H828 H 0.63599 0.49894 0.53728 0.0
H829 H 0.64358 0.50191 0.66042 0.0
H830 H 0.71304 0.50828 0.73835 0.0
H831 H 0.7472 0.54813 0.0826 0.0
H832 H 0.73968 0.54425 0.95915 0.0
H833 H 0.67036 0.53841 0.88072 0.0
C834 C 0.65892 0.50857 0.63104 0.0
C835 C 0.70376 0.51503 0.76898 0.0
C836 C 0.65458 0.50676 0.56044 0.0
C837 C 0.72864 0.54029 0.05919 0.0
C838 C 0.72434 0.53796 -0.01157 0.0
C839 C 0.67961 0.5316 0.85016 0.0
C840 C 0.68273 0.51867 0.66326 0.0
C841 C 0.68731 0.52101 0.7382 0.0
C842 C 0.70057 0.52799 0.95598 0.0
C843 C 0.69602 0.52559 0.88098 0.0
H844 H 0.71323 0.53158 0.52379 0.0
H845 H 0.72072 0.53484 0.64719 0.0
H846 H 0.6628 0.53443 0.75701 0.0
H847 H 0.67003 0.51658 0.09536 0.0
H848 H 0.6626 0.51235 0.97185 0.0
C849 C 0.51546 0.18979 0.53655 0.0
C850 C 0.52561 0.17616 0.51146 0.0
C851 C 0.51351 0.19243 0.60598 0.0
C852 C 0.53665 0.18662 0.77529 0.0
H853 H 0.47543 0.17785 0.82636 0.0
C854 C 0.51149 0.17338 0.04886 0.0
C855 C 0.50114 0.18659 0.07565 0.0
C856 C 0.51451 0.17237 0.97984 0.0
C857 C 0.49271 0.18058 0.81289 0.0
H858 H 0.54226 0.15514 0.54017 0.0
H859 H 0.5386 0.15957 0.66082 0.0
H860 H 0.48164 0.17684 0.70643 0.0
H861 H 0.48545 0.20875 0.05042 0.0
H862 H 0.49083 0.207 0.93023 0.0
H863 H 0.54763 0.19016 0.88181 0.0
C864 C 0.53238 0.16842 0.62694 0.0
C865 C 0.49629 0.18007 0.74428 0.0
C866 C 0.53435 0.16579 0.55762 0.0
C867 C 0.49348 0.19839 0.03159 0.0
C868 C 0.49645 0.19731 0.96259 0.0
C869 C 0.53304 0.18709 0.84391 0.0
C870 C 0.52167 0.18151 0.65174 0.0
C871 C 0.51827 0.183 0.72475 0.0
C872 C 0.50718 0.18448 0.93616 0.0
C873 C 0.511 0.18399 0.86336 0.0
H874 H 0.50866 0.19815 0.50254 0.0
H875 H 0.5055 0.20294 0.62379 0.0
H876 H 0.5539 0.18926 0.76184 0.0
H877 H 0.5176 0.16407 0.08128 0.0
H878 H 0.52255 0.16206 0.96063 0.0
C879 C 0.85841 0.34121 0.5707 0.0
C880 C 0.87141 0.36517 0.55462 0.0
C881 C 0.8554 0.33668 0.63824 0.0
C882 C 0.8821 0.36442 0.81365 0.0
H883 H 0.81924 0.31631 0.86097 0.0
C884 C 0.86246 0.35408 0.09139 0.0
C885 C 0.84982 0.3303 0.10895 0.0
C886 C 0.86441 0.35813 0.02333 0.0
C887 C 0.83695 0.32962 0.84837 0.0
H888 H 0.89134 0.40316 0.59705 0.0
H889 H 0.88591 0.39518 0.71456 0.0
H890 H 0.82417 0.32363 0.74228 0.0
H891 H 0.82902 0.29214 0.06857 0.0
H892 H 0.83269 0.29929 0.94978 0.0
H893 H 0.89493 0.3704 0.91951 0.0
C894 C 0.87831 0.37992 0.67497 0.0
C895 C 0.83977 0.3338 0.78053 0.0
C896 C 0.8813 0.38447 0.60754 0.0
C897 C 0.83885 0.31069 0.05685 0.0
C898 C 0.84084 0.31476 -0.01124 0.0
C899 C 0.87929 0.36024 0.88138 0.0
C900 C 0.86536 0.356 0.69097 0.0
C901 C 0.86236 0.35129 0.76262 0.0
C902 C 0.85381 0.33852 0.9714 0.0
C903 C 0.85668 0.34286 0.89944 0.0
H904 H 0.85055 0.32591 0.53123 0.0
H905 H 0.84554 0.31804 0.64926 0.0
H906 H 0.89982 0.37774 0.80111 0.0
H907 H 0.87097 0.36962 0.13015 0.0
H908 H 0.87418 0.37666 0.01136 0.0
C909 C 0.35278 0.85872 0.40526 0.0
C910 C 0.37654 0.87392 0.43805 0.0
C911 C 0.34821 0.85579 0.33439 0.0
C912 C 0.37811 0.86359 0.17751 0.0
H913 H 0.3225 0.86641 0.09835 0.0
C914 C 0.36477 0.87419 0.89451 0.0
C915 C 0.34123 0.85939 0.85994 0.0
C916 C 0.36883 0.87556 0.96514 0.0
C917 C 0.33794 0.86534 0.1197 0.0
H918 H 0.41421 0.89759 0.42172 0.0
H919 H 0.40615 0.89263 0.29836 0.0
H920 H 0.32995 0.86867 0.22161 0.0
H921 H 0.30343 0.83469 0.87282 0.0
H922 H 0.31061 0.83706 -0.00406 0.0
H923 H 0.38619 0.86045 0.07555 0.0
C924 C 0.3911 0.88278 0.32745 0.0
C925 C 0.34219 0.86658 0.19022 0.0
C926 C 0.39569 0.88571 0.39826 0.0
C927 C 0.3218 0.84628 0.89773 0.0
C928 C 0.32587 0.84771 0.96835 0.0
C929 C 0.37388 0.86239 0.10699 0.0
C930 C 0.3673 0.86797 0.29482 0.0
C931 C 0.36236 0.86581 0.21985 0.0
C932 C 0.34944 0.86224 0.00269 0.0
C933 C 0.35381 0.86334 0.07743 0.0
H934 H 0.33761 0.84924 0.43426 0.0
H935 H 0.32972 0.84397 0.31055 0.0
H936 H 0.3936 0.86261 0.19884 0.0
H937 H 0.38016 0.88457 0.86708 0.0
H938 H 0.38715 0.88717 -0.00957 0.0
C939 C 0.19457 0.52607 0.9632 0.0
C940 C 0.20419 0.51193 0.93805 0.0
C941 C 0.19281 0.52894 0.03265 0.0
C942 C 0.21623 0.52323 0.20149 0.0
H943 H 0.1562 0.51683 0.25537 0.0
C944 C 0.19227 0.51158 0.4763 0.0
C945 C 0.18247 0.52526 0.50357 0.0
C946 C 0.19511 0.51047 0.40721 0.0
C947 C 0.17316 0.51892 0.24109 0.0
H948 H 0.21986 0.49005 0.96658 0.0
H949 H 0.21651 0.49488 0.08738 0.0
H950 H 0.16151 0.51476 0.13488 0.0
H951 H 0.16775 0.5483 0.4792 0.0
H952 H 0.17284 0.54639 0.35878 0.0
H953 H 0.22779 0.52717 0.30774 0.0
C954 C 0.21061 0.50397 0.05348 0.0
C955 C 0.17623 0.51778 0.17216 0.0
C956 C 0.2124 0.50111 0.98411 0.0
C957 C 0.17533 0.53757 0.45998 0.0
C958 C 0.17813 0.5364 0.39087 0.0
C959 C 0.21315 0.52432 0.2704 0.0
C960 C 0.20061 0.51774 0.0784 0.0
C961 C 0.19775 0.51982 0.15165 0.0
C962 C 0.18818 0.52296 0.36391 0.0
C963 C 0.19154 0.52207 0.29085 0.0
H964 H 0.18819 0.53478 0.92925 0.0
H965 H 0.18534 0.53994 0.05056 0.0
H966 H 0.23316 0.52522 0.18724 0.0
H967 H 0.19794 0.50185 0.50833 0.0
H968 H 0.20261 0.4997 0.38758 0.0
C969 C 0.52935 0.69753 0.44198 0.0
C970 C 0.51778 0.67356 0.45835 0.0
C971 C 0.53115 0.70208 0.37417 0.0
C972 C 0.53082 0.67419 0.20596 0.0
H973 H 0.51857 0.72293 0.13833 0.0
C974 C 0.52485 0.68483 0.92131 0.0
C975 C 0.5365 0.7086 0.90346 0.0
C976 C 0.52227 0.68079 -0.01078 0.0
C977 C 0.52229 0.70945 0.15673 0.0
H978 H 0.49863 0.63556 0.41606 0.0
H979 H 0.5017 0.64358 0.29803 0.0
H980 H 0.51447 0.7155 0.25721 0.0
H981 H 0.55453 0.74678 0.9431 0.0
H982 H 0.55024 0.73965 0.06176 0.0
H983 H 0.53874 0.66818 0.10583 0.0
C984 C 0.50963 0.65882 0.33774 0.0
C985 C 0.51994 0.7052 0.22466 0.0
C986 C 0.50778 0.65426 0.4054 0.0
C987 C 0.54541 0.72823 0.95503 0.0
C988 C 0.54284 0.72417 0.02299 0.0
C989 C 0.53321 0.67846 0.13818 0.0
C990 C 0.52148 0.68275 0.3215 0.0
C991 C 0.5241 0.68747 0.24978 0.0
C992 C 0.53131 0.70042 0.04074 0.0
C993 C 0.5289 0.69607 0.11283 0.0
H994 H 0.53723 0.71283 0.48149 0.0
H995 H 0.54055 0.72072 0.36304 0.0
H996 H 0.53454 0.6607 0.22432 0.0
H997 H 0.5176 0.66926 0.88288 0.0
H998 H 0.51297 0.66226 0.00133 0.0
loop_
_geom_bond_atom_site_label_1
_geom_bond_atom_site_label_2
_geom_bond_distance
_geom_bond_site_symmetry_2
_ccdc_geom_bond_type
O0 Mn1 2.163 . S
O0 C14 1.244 . S
Mn1 O0 2.163 . S
Mn1 O4 2.160 1_454 S
Mn1 O5 2.221 . S
Mn1 O7 2.163 . S
Mn1 O9 2.160 1_455 S
Mn1 O19 2.221 1_455 S
O2 Mn3 2.087 . S
O2 C14 1.256 1_655 S
Mn3 O2 2.087 . S
Mn3 O10 2.089 . S
Mn3 O19 2.290 . S
Mn3 O20 2.251 . S
O4 Mn1 2.160 1_656 S
O4 C15 1.239 1_655 S
O5 Mn1 2.221 . S
O5 Mn6 2.290 1_554 S
O5 C16 1.278 . S
Mn6 O5 2.290 1_556 S
Mn6 O8 2.089 . S
Mn6 O11 2.251 1_556 S
Mn6 O12 2.087 1_556 S
O7 Mn1 2.163 . S
O7 C17 1.244 . S
O8 Mn6 2.089 . S
O8 C15 1.256 . S
O9 Mn1 2.160 1_655 S
O9 C18 1.239 . S
O10 Mn3 2.089 . S
O10 C18 1.256 . S
O11 Mn6 2.251 1_554 S
O11 C16 1.241 . S
O12 Mn6 2.087 1_554 S
O12 C17 1.256 . S
C13 O19 1.278 . S
C13 O20 1.241 . S
C14 O0 1.244 . S
C14 O2 1.256 1_455 S
C15 O4 1.239 1_455 S
C15 O8 1.256 . S
C16 O5 1.278 . S
C16 O11 1.241 . S
C17 O7 1.244 . S
C17 O12 1.256 . S
C18 O9 1.239 . S
C18 O10 1.256 . S
O19 Mn1 2.221 1_655 S
O19 Mn3 2.290 . S
O19 C13 1.278 . S
O20 Mn3 2.251 . S
O20 C13 1.241 . S
O21 Mn22 2.163 1_556 S
O21 C35 1.244 . S
Mn22 O21 2.163 1_554 S
Mn22 O25 2.160 . S
Mn22 O26 2.221 . S
Mn22 O28 2.163 . S
Mn22 O30 2.160 . S
Mn22 O40 2.221 . S
O23 Mn24 2.087 . S
O23 C35 1.256 . S
Mn24 O23 2.087 . S
Mn24 O31 2.089 1_556 S
Mn24 O40 2.290 1_556 S
Mn24 O41 2.251 . S
O25 Mn22 2.160 . S
O25 C36 1.239 . S
O26 Mn22 2.221 . S
O26 Mn27 2.290 . S
O26 C37 1.278 . S
Mn27 O26 2.290 . S
Mn27 O29 2.089 . S
Mn27 O32 2.251 . S
Mn27 O33 2.087 . S
O28 Mn22 2.163 . S
O28 C38 1.244 . S
O29 Mn27 2.089 . S
O29 C36 1.256 . S
O30 Mn22 2.160 . S
O30 C39 1.239 . S
O31 Mn24 2.089 1_554 S
O31 C39 1.256 . S
O32 Mn27 2.251 . S
O32 C37 1.241 . S
O33 Mn27 2.087 . S
O33 C38 1.256 . S
C34 O40 1.278 . S
C34 O41 1.241 1_554 S
C35 O21 1.244 . S
C35 O23 1.256 . S
C36 O25 1.239 . S
C36 O29 1.256 . S
C37 O26 1.278 . S
C37 O32 1.241 . S
C38 O28 1.244 . S
C38 O33 1.256 . S
C39 O30 1.239 . S
C39 O31 1.256 . S
O40 Mn22 2.221 . S
O40 Mn24 2.290 1_554 S
O40 C34 1.278 . S
O41 Mn24 2.251 . S
O41 C34 1.241 1_556 S
O42 Mn43 2.163 1_554 S
O42 C56 1.244 . S
Mn43 O42 2.163 1_556 S
Mn43 O46 2.160 . S
Mn43 O47 2.221 1_545 S
Mn43 O49 2.163 1_545 S
Mn43 O51 2.159 1_556 S
Mn43 O61 2.221 1_556 S
O44 Mn45 2.087 . S
O44 C56 1.256 . S
Mn45 O44 2.087 . S
Mn45 O52 2.089 . S
Mn45 O61 2.290 . S
Mn45 O62 2.251 . S
O46 Mn43 2.160 . S
O46 C57 1.239 . S
O47 Mn43 2.221 1_565 S
O47 Mn48 2.290 . S
O47 C58 1.278 . S
Mn48 O47 2.290 . S
Mn48 O50 2.089 . S
Mn48 O53 2.251 . S
Mn48 O54 2.087 . S
O49 Mn43 2.163 1_565 S
O49 C59 1.244 . S
O50 Mn48 2.089 . S
O50 C57 1.256 1_565 S
O51 Mn43 2.159 1_554 S
O51 C60 1.244 . S
O52 Mn45 2.089 . S
O52 C60 1.256 . S
O53 Mn48 2.251 . S
O53 C58 1.241 . S
O54 Mn48 2.087 . S
O54 C59 1.256 . S
C55 O61 1.278 . S
C55 O62 1.241 . S
C56 O42 1.244 . S
C56 O44 1.256 . S
C57 O46 1.239 . S
C57 O50 1.256 1_545 S
C58 O47 1.278 . S
C58 O53 1.241 . S
C59 O49 1.244 . S
C59 O54 1.256 . S
C60 O51 1.244 . S
C60 O52 1.256 . S
O61 Mn43 2.221 1_554 S
O61 Mn45 2.290 . S
O61 C55 1.278 . S
O62 Mn45 2.251 . S
O62 C55 1.241 . S
O63 Mn64 2.163 . S
O63 C77 1.244 . S
Mn64 O63 2.163 . S
Mn64 O67 2.160 . S
Mn64 O68 2.221 . S
Mn64 O70 2.163 . S
Mn64 O72 2.160 . S
Mn64 O82 2.221 . S
O65 Mn66 2.087 . S
O65 C77 1.256 . S
Mn66 O65 2.087 . S
Mn66 O73 2.089 . S
Mn66 O82 2.290 . S
Mn66 O83 2.251 . S
O67 Mn64 2.160 . S
O67 C78 1.239 . S
O68 Mn64 2.221 . S
O68 Mn69 2.290 . S
O68 C79 1.278 . S
Mn69 O68 2.290 . S
Mn69 O71 2.089 . S
Mn69 O74 2.251 . S
Mn69 O75 2.087 . S
O70 Mn64 2.163 . S
O70 C80 1.244 . S
O71 Mn69 2.089 . S
O71 C78 1.256 . S
O72 Mn64 2.160 . S
O72 C81 1.239 . S
O73 Mn66 2.089 . S
O73 C81 1.256 . S
O74 Mn69 2.251 . S
O74 C79 1.241 . S
O75 Mn69 2.087 . S
O75 C80 1.256 . S
C76 O82 1.278 . S
C76 O83 1.241 . S
C77 O63 1.244 . S
C77 O65 1.256 . S
C78 O67 1.239 . S
C78 O71 1.256 . S
C79 O68 1.278 . S
C79 O74 1.241 . S
C80 O70 1.244 . S
C80 O75 1.256 . S
C81 O72 1.239 . S
C81 O73 1.256 . S
O82 Mn64 2.221 . S
O82 Mn66 2.290 . S
O82 C76 1.278 . S
O83 Mn66 2.251 . S
O83 C76 1.241 . S
O84 Mn85 2.163 . S
O84 C98 1.244 . S
Mn85 O84 2.163 . S
Mn85 O88 2.160 . S
Mn85 O89 2.221 . S
Mn85 O91 2.163 . S
Mn85 O93 2.160 . S
Mn85 O103 2.221 . S
O86 Mn87 2.087 . S
O86 C98 1.256 . S
Mn87 O86 2.087 . S
Mn87 O94 2.089 . S
Mn87 O103 2.290 . S
Mn87 O104 2.251 . S
O88 Mn85 2.160 . S
O88 C99 1.239 . S
O89 Mn85 2.221 . S
O89 Mn90 2.290 . S
O89 C100 1.278 . S
Mn90 O89 2.290 . S
Mn90 O92 2.089 . S
Mn90 O95 2.251 . S
Mn90 O96 2.087 . S
O91 Mn85 2.163 . S
O91 C101 1.244 . S
O92 Mn90 2.089 . S
O92 C99 1.256 . S
O93 Mn85 2.160 . S
O93 C102 1.239 . S
O94 Mn87 2.089 . S
O94 C102 1.256 . S
O95 Mn90 2.251 . S
O95 C100 1.241 . S
O96 Mn90 2.087 . S
O96 C101 1.256 . S
C97 O103 1.278 . S
C97 O104 1.241 . S
C98 O84 1.244 . S
C98 O86 1.256 . S
C99 O88 1.239 . S
C99 O92 1.256 . S
C100 O89 1.278 . S
C100 O95 1.241 . S
C101 O91 1.244 . S
C101 O96 1.256 . S
C102 O93 1.239 . S
C102 O94 1.256 . S
O103 Mn85 2.221 . S
O103 Mn87 2.290 . S
O103 C97 1.278 . S
O104 Mn87 2.251 . S
O104 C97 1.241 . S
O105 Mn106 2.163 . S
O105 C119 1.244 . S
Mn106 O105 2.163 . S
Mn106 O109 2.160 . S
Mn106 O110 2.221 . S
Mn106 O112 2.163 . S
Mn106 O114 2.160 . S
Mn106 O124 2.221 . S
O107 Mn108 2.087 . S
O107 C119 1.256 . S
Mn108 O107 2.087 . S
Mn108 O115 2.089 . S
Mn108 O124 2.290 . S
Mn108 O125 2.251 . S
O109 Mn106 2.160 . S
O109 C120 1.239 . S
O110 Mn106 2.221 . S
O110 Mn111 2.290 . S
O110 C121 1.278 . S
Mn111 O110 2.290 . S
Mn111 O113 2.089 . S
Mn111 O116 2.251 . S
Mn111 O117 2.087 . S
O112 Mn106 2.163 . S
O112 C122 1.244 . S
O113 Mn111 2.089 . S
O113 C120 1.256 . S
O114 Mn106 2.160 . S
O114 C123 1.239 . S
O115 Mn108 2.089 . S
O115 C123 1.256 . S
O116 Mn111 2.251 . S
O116 C121 1.241 . S
O117 Mn111 2.087 . S
O117 C122 1.256 . S
C118 O124 1.278 . S
C118 O125 1.241 . S
C119 O105 1.244 . S
C119 O107 1.256 . S
C120 O109 1.239 . S
C120 O113 1.256 . S
C121 O110 1.278 . S
C121 O116 1.241 . S
C122 O112 1.244 . S
C122 O117 1.256 . S
C123 O114 1.239 . S
C123 O115 1.256 . S
O124 Mn106 2.221 . S
O124 Mn108 2.290 . S
O124 C118 1.278 . S
O125 Mn108 2.251 . S
O125 C118 1.241 . S
O126 Mn127 2.163 . S
O126 C140 1.244 . S
Mn127 O126 2.163 . S
Mn127 O130 2.160 . S
Mn127 O131 2.221 . S
Mn127 O133 2.163 . S
Mn127 O135 2.160 . S
Mn127 O145 2.221 . S
O128 Mn129 2.087 . S
O128 C140 1.256 . S
Mn129 O128 2.087 . S
Mn129 O136 2.089 . S
Mn129 O145 2.290 . S
Mn129 O146 2.251 . S
O130 Mn127 2.160 . S
O130 C141 1.239 . S
O131 Mn127 2.221 . S
O131 Mn132 2.290 . S
O131 C142 1.278 . S
Mn132 O131 2.290 . S
Mn132 O134 2.089 . S
Mn132 O137 2.251 . S
Mn132 O138 2.087 . S
O133 Mn127 2.163 . S
O133 C143 1.244 . S
O134 Mn132 2.089 . S
O134 C141 1.256 . S
O135 Mn127 2.160 . S
O135 C144 1.239 . S
O136 Mn129 2.089 . S
O136 C144 1.256 . S
O137 Mn132 2.251 . S
O137 C142 1.241 . S
O138 Mn132 2.087 . S
O138 C143 1.256 . S
C139 O145 1.278 . S
C139 O146 1.241 . S
C140 O126 1.244 . S
C140 O128 1.256 . S
C141 O130 1.239 . S
C141 O134 1.256 . S
C142 O131 1.278 . S
C142 O137 1.241 . S
C143 O133 1.244 . S
C143 O138 1.256 . S
C144 O135 1.239 . S
C144 O136 1.256 . S
O145 Mn127 2.221 . S
O145 Mn129 2.290 . S
O145 C139 1.278 . S
O146 Mn129 2.251 . S
O146 C139 1.241 . S
O147 Mn148 2.163 . S
O147 C161 1.244 . S
Mn148 O147 2.163 . S
Mn148 O151 2.160 . S
Mn148 O152 2.221 . S
Mn148 O154 2.163 . S
Mn148 O156 2.160 . S
Mn148 O166 2.221 . S
O149 Mn150 2.087 . S
O149 C161 1.256 . S
Mn150 O149 2.087 . S
Mn150 O157 2.089 . S
Mn150 O166 2.290 . S
Mn150 O167 2.251 . S
O151 Mn148 2.160 . S
O151 C162 1.239 . S
O152 Mn148 2.221 . S
O152 Mn153 2.290 . S
O152 C163 1.278 . S
Mn153 O152 2.290 . S
Mn153 O155 2.089 . S
Mn153 O158 2.251 . S
Mn153 O159 2.087 . S
O154 Mn148 2.163 . S
O154 C164 1.244 . S
O155 Mn153 2.089 . S
O155 C162 1.256 . S
O156 Mn148 2.160 . S
O156 C165 1.239 . S
O157 Mn150 2.089 . S
O157 C165 1.256 . S
O158 Mn153 2.251 . S
O158 C163 1.241 . S
O159 Mn153 2.087 . S
O159 C164 1.256 . S
C160 O166 1.278 . S
C160 O167 1.241 . S
C161 O147 1.244 . S
C161 O149 1.256 . S
C162 O151 1.239 . S
C162 O155 1.256 . S
C163 O152 1.278 . S
C163 O158 1.241 . S
C164 O154 1.244 . S
C164 O159 1.256 . S
C165 O156 1.239 . S
C165 O157 1.256 . S
O166 Mn148 2.221 . S
O166 Mn150 2.290 . S
O166 C160 1.278 . S
O167 Mn150 2.251 . S
O167 C160 1.241 . S
O168 Mn169 2.163 . S
O168 C182 1.244 . S
Mn169 O168 2.163 . S
Mn169 O172 2.160 . S
Mn169 O173 2.221 . S
Mn169 O175 2.163 . S
Mn169 O177 2.160 . S
Mn169 O187 2.221 . S
O170 Mn171 2.087 . S
O170 C182 1.256 . S
Mn171 O170 2.087 . S
Mn171 O178 2.089 . S
Mn171 O187 2.290 . S
Mn171 O188 2.251 . S
O172 Mn169 2.160 . S
O172 C183 1.239 . S
O173 Mn169 2.221 . S
O173 Mn174 2.290 . S
O173 C184 1.278 . S
Mn174 O173 2.290 . S
Mn174 O176 2.089 . S
Mn174 O179 2.251 . S
Mn174 O180 2.087 . S
O175 Mn169 2.163 . S
O175 C185 1.244 . S
O176 Mn174 2.089 . S
O176 C183 1.256 . S
O177 Mn169 2.160 . S
O177 C186 1.239 . S
O178 Mn171 2.089 . S
O178 C186 1.256 . S
O179 Mn174 2.251 . S
O179 C184 1.241 . S
O180 Mn174 2.087 . S
O180 C185 1.256 . S
C181 O187 1.278 . S
C181 O188 1.241 . S
C182 O168 1.244 . S
C182 O170 1.256 . S
C183 O172 1.239 . S
C183 O176 1.256 . S
C184 O173 1.278 . S
C184 O179 1.241 . S
C185 O175 1.244 . S
C185 O180 1.256 . S
C186 O177 1.239 . S
C186 O178 1.256 . S
O187 Mn169 2.221 . S
O187 Mn171 2.290 . S
O187 C181 1.278 . S
O188 Mn171 2.251 . S
O188 C181 1.241 . S
C189 C190 1.349 . S
C189 C191 1.327 . S
C189 H214 0.950 . S
C190 C189 1.349 . S
C190 C206 1.349 1_554 S
C191 C189 1.327 . S
C191 C210 1.429 1_554 S
C191 H215 0.950 . S
C192 C209 1.574 . S
C192 C211 1.368 . S
C192 H216 0.949 . S
H193 C197 0.949 . S
C194 C195 1.349 . S
C194 C196 1.327 . S
C194 H217 0.950 . S
C195 C194 1.349 . S
C195 C207 1.349 . S
C196 C194 1.327 . S
C196 C212 1.429 . S
C196 H218 0.950 . S
C197 H193 0.949 . S
C197 C205 1.574 . S
C197 C213 1.368 . S
H198 C206 0.950 . S
H199 C204 0.950 . S
H200 C205 0.949 . S
H201 C207 0.950 . S
H202 C208 0.950 . S
H203 C209 0.949 . S
C204 H199 0.950 . S
C204 C206 1.327 . S
C204 C210 1.429 . S
C205 C197 1.574 . S
C205 H200 0.949 . S
C205 C211 1.368 . S
C206 C190 1.349 1_556 S
C206 H198 0.950 . S
C206 C204 1.327 . S
C207 C195 1.349 . S
C207 H201 0.950 . S
C207 C208 1.327 . S
C208 H202 0.950 . S
C208 C207 1.327 . S
C208 C212 1.429 . S
C209 C192 1.574 . S
C209 H203 0.949 . S
C209 C213 1.368 . S
C210 C191 1.429 1_556 S
C210 C204 1.429 . S
C210 C211 1.523 . S
C211 C192 1.368 . S
C211 C205 1.368 . S
C211 C210 1.523 . S
C212 C196 1.429 . S
C212 C208 1.429 . S
C212 C213 1.523 . S
C213 C197 1.368 . S
C213 C209 1.368 . S
C213 C212 1.523 . S
H214 C189 0.950 . S
H215 C191 0.950 . S
H216 C192 0.949 . S
H217 C194 0.950 . S
H218 C196 0.950 . S
C219 C220 1.349 . S
C219 C221 1.327 . S
C219 H244 0.950 . S
C220 C219 1.349 . S
C220 C236 1.349 1_554 S
C221 C219 1.327 . S
C221 C240 1.429 1_554 S
C221 H245 0.950 . S
C222 C239 1.574 . S
C222 C241 1.368 . S
C222 H246 0.949 . S
H223 C227 0.949 . S
C224 C225 1.349 . S
C224 C226 1.327 . S
C224 H247 0.950 . S
C225 C224 1.349 . S
C225 C237 1.349 . S
C226 C224 1.327 . S
C226 C242 1.429 . S
C226 H248 0.950 . S
C227 H223 0.949 . S
C227 C235 1.574 . S
C227 C243 1.368 . S
H228 C236 0.950 . S
H229 C234 0.950 . S
H230 C235 0.949 1_554 S
H231 C237 0.950 . S
H232 C238 0.950 . S
H233 C239 0.949 . S
C234 H229 0.950 . S
C234 C236 1.327 . S
C234 C240 1.429 . S
C235 C227 1.574 . S
C235 H230 0.949 1_556 S
C235 C241 1.368 . S
C236 C220 1.349 1_556 S
C236 H228 0.950 . S
C236 C234 1.327 . S
C237 C225 1.349 . S
C237 H231 0.950 . S
C237 C238 1.327 . S
C238 H232 0.950 . S
C238 C237 1.327 . S
C238 C242 1.429 . S
C239 C222 1.574 . S
C239 H233 0.949 . S
C239 C243 1.368 . S
C240 C221 1.429 1_556 S
C240 C234 1.429 . S
C240 C241 1.523 . S
C241 C222 1.368 . S
C241 C235 1.368 . S
C241 C240 1.523 . S
C242 C226 1.429 . S
C242 C238 1.429 . S
C242 C243 1.523 . S
C243 C227 1.368 . S
C243 C239 1.368 . S
C243 C242 1.523 . S
H244 C219 0.950 . S
H245 C221 0.950 . S
H246 C222 0.949 . S
H247 C224 0.950 . S
H248 C226 0.950 . S
C249 C250 1.349 . S
C249 C251 1.327 . S
C249 H274 0.950 . S
C250 C249 1.349 . S
C250 C266 1.349 . S
C251 C249 1.327 . S
C251 C270 1.429 . S
C251 H275 0.950 . S
C252 C269 1.574 . S
C252 C271 1.368 . S
C252 H276 0.949 . S
H253 C257 0.949 . S
C254 C255 1.349 . S
C254 C256 1.327 . S
C254 H277 0.950 . S
C255 C254 1.349 . S
C255 C267 1.349 . S
C256 C254 1.327 . S
C256 C272 1.429 . S
C256 H278 0.950 . S
C257 H253 0.949 . S
C257 C265 1.574 . S
C257 C273 1.368 . S
H258 C266 0.950 . S
H259 C264 0.950 . S
H260 C265 0.949 . S
H261 C267 0.950 . S
H262 C268 0.950 . S
H263 C269 0.949 . S
C264 H259 0.950 . S
C264 C266 1.327 . S
C264 C270 1.429 . S
C265 C257 1.574 . S
C265 H260 0.949 . S
C265 C271 1.368 . S
C266 C250 1.349 . S
C266 H258 0.950 . S
C266 C264 1.327 . S
C267 C255 1.349 . S
C267 H261 0.950 . S
C267 C268 1.327 . S
C268 H262 0.950 . S
C268 C267 1.327 . S
C268 C272 1.429 . S
C269 C252 1.574 . S
C269 H263 0.949 . S
C269 C273 1.368 . S
C270 C251 1.429 . S
C270 C264 1.429 . S
C270 C271 1.523 . S
C271 C252 1.368 . S
C271 C265 1.368 . S
C271 C270 1.523 . S
C272 C256 1.429 . S
C272 C268 1.429 . S
C272 C273 1.523 . S
C273 C257 1.368 . S
C273 C269 1.368 . S
C273 C272 1.523 . S
H274 C249 0.950 . S
H275 C251 0.950 . S
H276 C252 0.949 . S
H277 C254 0.950 . S
H278 C256 0.950 . S
C279 C280 1.349 . S
C279 C281 1.327 . S
C279 H304 0.950 . S
C280 C279 1.349 . S
C280 C296 1.349 . S
C281 C279 1.327 . S
C281 C300 1.429 . S
C281 H305 0.950 . S
C282 C299 1.574 . S
C282 C301 1.368 . S
C282 H306 0.949 . S
H283 C287 0.949 . S
C284 C285 1.349 1_556 S
C284 C286 1.327 . S
C284 H307 0.950 . S
C285 C284 1.349 1_554 S
C285 C297 1.349 . S
C286 C284 1.327 . S
C286 C302 1.429 1_556 S
C286 H308 0.950 . S
C287 H283 0.949 . S
C287 C295 1.574 . S
C287 C303 1.368 . S
H288 C296 0.950 . S
H289 C294 0.950 . S
H290 C295 0.949 . S
H291 C297 0.950 . S
H292 C298 0.950 . S
H293 C299 0.949 1_556 S
C294 H289 0.950 . S
C294 C296 1.327 . S
C294 C300 1.429 . S
C295 C287 1.574 . S
C295 H290 0.949 . S
C295 C301 1.368 . S
C296 C280 1.349 . S
C296 H288 0.950 . S
C296 C294 1.327 . S
C297 C285 1.349 . S
C297 H291 0.950 . S
C297 C298 1.327 . S
C298 H292 0.950 . S
C298 C297 1.327 . S
C298 C302 1.429 . S
C299 C282 1.574 . S
C299 H293 0.949 1_554 S
C299 C303 1.368 . S
C300 C281 1.429 . S
C300 C294 1.429 . S
C300 C301 1.523 . S
C301 C282 1.368 . S
C301 C295 1.368 . S
C301 C300 1.523 . S
C302 C286 1.429 1_554 S
C302 C298 1.429 . S
C302 C303 1.523 . S
C303 C287 1.368 . S
C303 C299 1.368 . S
C303 C302 1.523 . S
H304 C279 0.950 . S
H305 C281 0.950 . S
H306 C282 0.949 . S
H307 C284 0.950 . S
H308 C286 0.950 . S
C309 C310 1.349 . S
C309 C311 1.327 . S
C309 H334 0.950 . S
C310 C309 1.349 . S
C310 C326 1.349 . S
C311 C309 1.327 . S
C311 C330 1.429 . S
C311 H335 0.950 . S
C312 C329 1.574 . S
C312 C331 1.368 . S
C312 H336 0.949 . S
H313 C317 0.949 . S
C314 C315 1.349 . S
C314 C316 1.327 . S
C314 H337 0.950 . S
C315 C314 1.349 . S
C315 C327 1.349 . S
C316 C314 1.327 . S
C316 C332 1.429 . S
C316 H338 0.950 . S
C317 H313 0.949 . S
C317 C325 1.574 . S
C317 C333 1.368 . S
H318 C326 0.950 . S
H319 C324 0.950 . S
H320 C325 0.949 . S
H321 C327 0.950 . S
H322 C328 0.950 . S
H323 C329 0.949 . S
C324 H319 0.950 . S
C324 C326 1.327 . S
C324 C330 1.429 . S
C325 C317 1.574 . S
C325 H320 0.949 . S
C325 C331 1.368 . S
C326 C310 1.349 . S
C326 H318 0.950 . S
C326 C324 1.327 . S
C327 C315 1.349 . S
C327 H321 0.950 . S
C327 C328 1.327 . S
C328 H322 0.950 . S
C328 C327 1.327 . S
C328 C332 1.429 . S
C329 C312 1.574 . S
C329 H323 0.949 . S
C329 C333 1.368 . S
C330 C311 1.429 . S
C330 C324 1.429 . S
C330 C331 1.523 . S
C331 C312 1.368 . S
C331 C325 1.368 . S
C331 C330 1.523 . S
C332 C316 1.429 . S
C332 C328 1.429 . S
C332 C333 1.523 . S
C333 C317 1.368 . S
C333 C329 1.368 . S
C333 C332 1.523 . S
H334 C309 0.950 . S
H335 C311 0.950 . S
H336 C312 0.949 . S
H337 C314 0.950 . S
H338 C316 0.950 . S
C339 C340 1.349 . S
C339 C341 1.327 . S
C339 H364 0.950 . S
C340 C339 1.349 . S
C340 C356 1.349 . S
C341 C339 1.327 . S
C341 C360 1.429 . S
C341 H365 0.950 . S
C342 C359 1.574 . S
C342 C361 1.368 . S
C342 H366 0.949 . S
H343 C347 0.949 . S
C344 C345 1.349 . S
C344 C346 1.327 . S
C344 H367 0.950 . S
C345 C344 1.349 . S
C345 C357 1.349 . S
C346 C344 1.327 . S
C346 C362 1.429 . S
C346 H368 0.950 . S
C347 H343 0.949 . S
C347 C355 1.574 . S
C347 C363 1.368 . S
H348 C356 0.950 . S
H349 C354 0.950 . S
H350 C355 0.949 . S
H351 C357 0.950 . S
H352 C358 0.950 . S
H353 C359 0.949 . S
C354 H349 0.950 . S
C354 C356 1.327 . S
C354 C360 1.429 . S
C355 C347 1.574 . S
C355 H350 0.949 . S
C355 C361 1.368 . S
C356 C340 1.349 . S
C356 H348 0.950 . S
C356 C354 1.327 . S
C357 C345 1.349 . S
C357 H351 0.950 . S
C357 C358 1.327 . S
C358 H352 0.950 . S
C358 C357 1.327 . S
C358 C362 1.429 . S
C359 C342 1.574 . S
C359 H353 0.949 . S
C359 C363 1.368 . S
C360 C341 1.429 . S
C360 C354 1.429 . S
C360 C361 1.523 . S
C361 C342 1.368 . S
C361 C355 1.368 . S
C361 C360 1.523 . S
C362 C346 1.429 . S
C362 C358 1.429 . S
C362 C363 1.523 . S
C363 C347 1.368 . S
C363 C359 1.368 . S
C363 C362 1.523 . S
H364 C339 0.950 . S
H365 C341 0.950 . S
H366 C342 0.949 . S
H367 C344 0.950 . S
H368 C346 0.950 . S
C369 C370 1.349 . S
C369 C371 1.327 . S
C369 H394 0.950 . S
C370 C369 1.349 . S
C370 C386 1.349 . S
C371 C369 1.327 . S
C371 C390 1.429 . S
C371 H395 0.950 . S
C372 C389 1.574 1_455 S
C372 C391 1.368 . S
C372 H396 0.949 . S
H373 C377 0.949 1_655 S
C374 C375 1.349 . S
C374 C376 1.327 . S
C374 H397 0.950 . S
C375 C374 1.349 . S
C375 C387 1.349 . S
C376 C374 1.327 . S
C376 C392 1.429 . S
C376 H398 0.950 . S
C377 H373 0.949 1_455 S
C377 C385 1.574 . S
C377 C393 1.368 1_455 S
H378 C386 0.950 . S
H379 C384 0.950 . S
H380 C385 0.949 . S
H381 C387 0.950 . S
H382 C388 0.950 . S
H383 C389 0.949 . S
C384 H379 0.950 . S
C384 C386 1.327 . S
C384 C390 1.429 . S
C385 C377 1.574 . S
C385 H380 0.949 . S
C385 C391 1.368 . S
C386 C370 1.349 . S
C386 H378 0.950 . S
C386 C384 1.327 . S
C387 C375 1.349 . S
C387 H381 0.950 . S
C387 C388 1.327 . S
C388 H382 0.950 . S
C388 C387 1.327 . S
C388 C392 1.429 . S
C389 C372 1.574 1_655 S
C389 H383 0.949 . S
C389 C393 1.368 . S
C390 C371 1.429 . S
C390 C384 1.429 . S
C390 C391 1.523 . S
C391 C372 1.368 . S
C391 C385 1.368 . S
C391 C390 1.523 . S
C392 C376 1.429 . S
C392 C388 1.429 . S
C392 C393 1.523 . S
C393 C377 1.368 1_655 S
C393 C389 1.368 . S
C393 C392 1.523 . S
H394 C369 0.950 . S
H395 C371 0.950 . S
H396 C372 0.949 . S
H397 C374 0.950 . S
H398 C376 0.950 . S
C399 C400 1.349 . S
C399 C401 1.327 . S
C399 H424 0.950 . S
C400 C399 1.349 . S
C400 C416 1.349 . S
C401 C399 1.327 . S
C401 C420 1.429 . S
C401 H425 0.950 . S
C402 C419 1.574 . S
C402 C421 1.368 . S
C402 H426 0.949 . S
H403 C407 0.949 . S
C404 C405 1.349 . S
C404 C406 1.327 . S
C404 H427 0.950 . S
C405 C404 1.349 . S
C405 C417 1.349 . S
C406 C404 1.327 . S
C406 C422 1.429 . S
C406 H428 0.950 . S
C407 H403 0.949 . S
C407 C415 1.574 . S
C407 C423 1.368 . S
H408 C416 0.950 . S
H409 C414 0.950 . S
H410 C415 0.949 . S
H411 C417 0.950 . S
H412 C418 0.950 . S
H413 C419 0.949 . S
C414 H409 0.950 . S
C414 C416 1.327 . S
C414 C420 1.429 . S
C415 C407 1.574 . S
C415 H410 0.949 . S
C415 C421 1.368 . S
C416 C400 1.349 . S
C416 H408 0.950 . S
C416 C414 1.327 . S
C417 C405 1.349 . S
C417 H411 0.950 . S
C417 C418 1.327 . S
C418 H412 0.950 . S
C418 C417 1.327 . S
C418 C422 1.429 . S
C419 C402 1.574 . S
C419 H413 0.949 . S
C419 C423 1.368 . S
C420 C401 1.429 . S
C420 C414 1.429 . S
C420 C421 1.523 . S
C421 C402 1.368 . S
C421 C415 1.368 . S
C421 C420 1.523 . S
C422 C406 1.429 . S
C422 C418 1.429 . S
C422 C423 1.523 . S
C423 C407 1.368 . S
C423 C419 1.368 . S
C423 C422 1.523 . S
H424 C399 0.950 . S
H425 C401 0.950 . S
H426 C402 0.949 . S
H427 C404 0.950 . S
H428 C406 0.950 . S
C429 C430 1.349 . S
C429 C431 1.327 . S
C429 H454 0.950 . S
C430 C429 1.349 . S
C430 C446 1.349 . S
C431 C429 1.327 . S
C431 C450 1.429 . S
C431 H455 0.950 . S
C432 C449 1.574 1_545 S
C432 C451 1.368 . S
C432 H456 0.949 . S
H433 C437 0.948 . S
C434 C435 1.349 . S
C434 C436 1.327 . S
C434 H457 0.950 . S
C435 C434 1.349 . S
C435 C447 1.349 . S
C436 C434 1.327 . S
C436 C452 1.429 . S
C436 H458 0.950 . S
C437 H433 0.948 . S
C437 C445 1.574 . S
C437 C453 1.368 1_545 S
H438 C446 0.950 . S
H439 C444 0.950 . S
H440 C445 0.949 . S
H441 C447 0.950 . S
H442 C448 0.950 . S
H443 C449 0.949 . S
C444 H439 0.950 . S
C444 C446 1.327 . S
C444 C450 1.429 . S
C445 C437 1.574 . S
C445 H440 0.949 . S
C445 C451 1.368 . S
C446 C430 1.349 . S
C446 H438 0.950 . S
C446 C444 1.327 . S
C447 C435 1.349 . S
C447 H441 0.950 . S
C447 C448 1.327 . S
C448 H442 0.950 . S
C448 C447 1.327 . S
C448 C452 1.429 . S
C449 C432 1.574 1_565 S
C449 H443 0.949 . S
C449 C453 1.368 . S
C450 C431 1.429 . S
C450 C444 1.429 . S
C450 C451 1.523 . S
C451 C432 1.368 . S
C451 C445 1.368 . S
C451 C450 1.523 . S
C452 C436 1.429 . S
C452 C448 1.429 . S
C452 C453 1.523 . S
C453 C437 1.368 1_565 S
C453 C449 1.368 . S
C453 C452 1.523 . S
H454 C429 0.950 . S
H455 C431 0.950 . S
H456 C432 0.949 . S
H457 C434 0.950 . S
H458 C436 0.950 . S
C459 C460 1.349 . S
C459 C461 1.327 . S
C459 H484 0.950 . S
C460 C459 1.349 . S
C460 C476 1.349 1_554 S
C461 C459 1.327 . S
C461 C480 1.429 . S
C461 H485 0.950 . S
C462 C479 1.574 1_556 S
C462 C481 1.368 1_556 S
C462 H486 0.949 . S
H463 C467 0.949 . S
C464 C465 1.349 . S
C464 C466 1.327 . S
C464 H487 0.950 1_554 S
C465 C464 1.349 . S
C465 C477 1.349 . S
C466 C464 1.327 . S
C466 C482 1.429 . S
C466 H488 0.950 1_554 S
C467 H463 0.949 . S
C467 C475 1.574 . S
C467 C483 1.368 . S
H468 C476 0.950 . S
H469 C474 0.950 . S
H470 C475 0.949 . S
H471 C477 0.950 . S
H472 C478 0.950 . S
H473 C479 0.949 1_556 S
C474 H469 0.950 . S
C474 C476 1.327 . S
C474 C480 1.429 1_556 S
C475 C467 1.574 . S
C475 H470 0.949 . S
C475 C481 1.368 . S
C476 C460 1.349 1_556 S
C476 H468 0.950 . S
C476 C474 1.327 . S
C477 C465 1.349 . S
C477 H471 0.950 . S
C477 C478 1.327 . S
C478 H472 0.950 . S
C478 C477 1.327 . S
C478 C482 1.429 . S
C479 C462 1.574 1_554 S
C479 H473 0.949 1_554 S
C479 C483 1.368 . S
C480 C461 1.429 . S
C480 C474 1.429 1_554 S
C480 C481 1.523 . S
C481 C462 1.368 1_554 S
C481 C475 1.368 . S
C481 C480 1.523 . S
C482 C466 1.429 . S
C482 C478 1.429 . S
C482 C483 1.523 . S
C483 C467 1.368 . S
C483 C479 1.368 . S
C483 C482 1.523 . S
H484 C459 0.950 . S
H485 C461 0.950 . S
H486 C462 0.949 . S
H487 C464 0.950 1_556 S
H488 C466 0.950 1_556 S
C489 C490 1.349 . S
C489 C491 1.327 . S
C489 H514 0.950 . S
C490 C489 1.349 . S
C490 C506 1.349 . S
C491 C489 1.327 . S
C491 C510 1.429 . S
C491 H515 0.950 . S
C492 C509 1.542 1_565 S
C492 C511 1.391 . S
C492 H516 0.958 1_554 S
H493 C497 0.949 . S
C494 C495 1.349 . S
C494 C496 1.327 . S
C494 H517 0.950 1_554 S
C495 C494 1.349 . S
C495 C507 1.349 . S
C496 C494 1.327 . S
C496 C512 1.429 . S
C496 H518 0.950 1_554 S
C497 H493 0.949 . S
C497 C505 1.574 . S
C497 C513 1.368 . S
H498 C506 0.950 1_556 S
H499 C504 0.950 1_556 S
H500 C505 0.949 1_565 S
H501 C507 0.950 . S
H502 C508 0.950 . S
H503 C509 0.949 1_556 S
C504 H499 0.950 1_554 S
C504 C506 1.327 . S
C504 C510 1.429 . S
C505 C497 1.574 . S
C505 H500 0.949 1_545 S
C505 C511 1.368 1_545 S
C506 C490 1.349 . S
C506 H498 0.950 1_554 S
C506 C504 1.327 . S
C507 C495 1.349 . S
C507 H501 0.950 . S
C507 C508 1.327 . S
C508 H502 0.950 . S
C508 C507 1.327 . S
C508 C512 1.429 . S
C509 C492 1.542 1_545 S
C509 H503 0.949 1_554 S
C509 C513 1.368 . S
C510 C491 1.429 . S
C510 C504 1.429 . S
C510 C511 1.523 . S
C511 C492 1.391 . S
C511 C505 1.368 1_565 S
C511 C510 1.523 . S
C512 C496 1.429 . S
C512 C508 1.429 . S
C512 C513 1.523 . S
C513 C497 1.368 . S
C513 C509 1.368 . S
C513 C512 1.523 . S
H514 C489 0.950 . S
H515 C491 0.950 . S
H516 C492 0.958 1_556 S
H517 C494 0.950 1_556 S
H518 C496 0.950 1_556 S
C519 C520 1.349 . S
C519 C521 1.327 . S
C519 H544 0.950 . S
C520 C519 1.349 . S
C520 C536 1.349 . S
C521 C519 1.327 . S
C521 C540 1.429 . S
C521 H545 0.950 . S
C522 C539 1.574 1_655 S
C522 C541 1.368 1_556 S
C522 H546 0.949 . S
H523 C527 0.949 . S
C524 C525 1.349 1_556 S
C524 C526 1.327 . S
C524 H547 0.950 . S
C525 C524 1.349 1_554 S
C525 C537 1.349 . S
C526 C524 1.327 . S
C526 C542 1.429 1_556 S
C526 H548 0.950 . S
C527 H523 0.949 . S
C527 C535 1.574 1_455 S
C527 C543 1.368 . S
H528 C536 0.950 1_556 S
H529 C534 0.950 1_556 S
H530 C535 0.949 . S
H531 C537 0.950 . S
H532 C538 0.950 . S
H533 C539 0.949 . S
C534 H529 0.950 1_554 S
C534 C536 1.327 . S
C534 C540 1.429 . S
C535 C527 1.574 1_655 S
C535 H530 0.949 . S
C535 C541 1.368 . S
C536 C520 1.349 . S
C536 H528 0.950 1_554 S
C536 C534 1.327 . S
C537 C525 1.349 . S
C537 H531 0.950 . S
C537 C538 1.327 . S
C538 H532 0.950 . S
C538 C537 1.327 . S
C538 C542 1.429 . S
C539 C522 1.574 1_455 S
C539 H533 0.949 . S
C539 C543 1.368 1_556 S
C540 C521 1.429 . S
C540 C534 1.429 . S
C540 C541 1.523 . S
C541 C522 1.368 1_554 S
C541 C535 1.368 . S
C541 C540 1.523 . S
C542 C526 1.429 1_554 S
C542 C538 1.429 . S
C542 C543 1.523 . S
C543 C527 1.368 . S
C543 C539 1.368 1_554 S
C543 C542 1.523 . S
H544 C519 0.950 . S
H545 C521 0.950 . S
H546 C522 0.949 . S
H547 C524 0.950 . S
H548 C526 0.950 . S
C549 C550 1.349 . S
C549 C551 1.327 . S
C549 H574 0.950 . S
C550 C549 1.349 . S
C550 C566 1.349 . S
C551 C549 1.327 . S
C551 C570 1.429 . S
C551 H575 0.950 . S
C552 C569 1.574 . S
C552 C571 1.368 . S
C552 H576 0.949 . S
H553 C557 0.949 . S
C554 C555 1.349 . S
C554 C556 1.327 . S
C554 H577 0.950 . S
C555 C554 1.349 . S
C555 C567 1.349 . S
C556 C554 1.327 . S
C556 C572 1.429 . S
C556 H578 0.950 . S
C557 H553 0.949 . S
C557 C565 1.574 . S
C557 C573 1.368 . S
H558 C566 0.950 . S
H559 C564 0.950 . S
H560 C565 0.949 . S
H561 C567 0.950 . S
H562 C568 0.950 . S
H563 C569 0.949 . S
C564 H559 0.950 . S
C564 C566 1.327 . S
C564 C570 1.429 . S
C565 C557 1.574 . S
C565 H560 0.949 . S
C565 C571 1.368 . S
C566 C550 1.349 . S
C566 H558 0.950 . S
C566 C564 1.327 . S
C567 C555 1.349 . S
C567 H561 0.950 . S
C567 C568 1.327 . S
C568 H562 0.950 . S
C568 C567 1.327 . S
C568 C572 1.429 . S
C569 C552 1.574 . S
C569 H563 0.949 . S
C569 C573 1.368 . S
C570 C551 1.429 . S
C570 C564 1.429 . S
C570 C571 1.523 . S
C571 C552 1.368 . S
C571 C565 1.368 . S
C571 C570 1.523 . S
C572 C556 1.429 . S
C572 C568 1.429 . S
C572 C573 1.523 . S
C573 C557 1.368 . S
C573 C569 1.368 . S
C573 C572 1.523 . S
H574 C549 0.950 . S
H575 C551 0.950 . S
H576 C552 0.949 . S
H577 C554 0.950 . S
H578 C556 0.950 . S
C579 C580 1.349 . S
C579 C581 1.327 . S
C579 H604 0.950 . S
C580 C579 1.349 . S
C580 C596 1.349 . S
C581 C579 1.327 . S
C581 C600 1.429 . S
C581 H605 0.950 . S
C582 C599 1.574 . S
C582 C601 1.368 . S
C582 H606 0.949 . S
H583 C587 0.949 . S
C584 C585 1.349 . S
C584 C586 1.327 . S
C584 H607 0.950 . S
C585 C584 1.349 . S
C585 C597 1.349 . S
C586 C584 1.327 . S
C586 C602 1.429 . S
C586 H608 0.950 . S
C587 H583 0.949 . S
C587 C595 1.574 . S
C587 C603 1.368 . S
H588 C596 0.950 . S
H589 C594 0.950 . S
H590 C595 0.949 . S
H591 C597 0.950 . S
H592 C598 0.950 . S
H593 C599 0.949 . S
C594 H589 0.950 . S
C594 C596 1.327 . S
C594 C600 1.429 . S
C595 C587 1.574 . S
C595 H590 0.949 . S
C595 C601 1.368 . S
C596 C580 1.349 . S
C596 H588 0.950 . S
C596 C594 1.327 . S
C597 C585 1.349 . S
C597 H591 0.950 . S
C597 C598 1.327 . S
C598 H592 0.950 . S
C598 C597 1.327 . S
C598 C602 1.429 . S
C599 C582 1.574 . S
C599 H593 0.949 . S
C599 C603 1.368 . S
C600 C581 1.429 . S
C600 C594 1.429 . S
C600 C601 1.523 . S
C601 C582 1.368 . S
C601 C595 1.368 . S
C601 C600 1.523 . S
C602 C586 1.429 . S
C602 C598 1.429 . S
C602 C603 1.523 . S
C603 C587 1.368 . S
C603 C599 1.368 . S
C603 C602 1.523 . S
H604 C579 0.950 . S
H605 C581 0.950 . S
H606 C582 0.949 . S
H607 C584 0.950 . S
H608 C586 0.950 . S
C609 C610 1.349 . S
C609 C611 1.327 . S
C609 H634 0.950 . S
C610 C609 1.349 . S
C610 C626 1.349 . S
C611 C609 1.327 . S
C611 C630 1.429 . S
C611 H635 0.950 . S
C612 C629 1.574 . S
C612 C631 1.368 . S
C612 H636 0.949 . S
H613 C617 0.949 . S
C614 C615 1.349 . S
C614 C616 1.327 . S
C614 H637 0.950 . S
C615 C614 1.349 . S
C615 C627 1.349 . S
C616 C614 1.327 . S
C616 C632 1.429 . S
C616 H638 0.950 . S
C617 H613 0.949 . S
C617 C625 1.574 . S
C617 C633 1.368 . S
H618 C626 0.950 . S
H619 C624 0.950 . S
H620 C625 0.949 . S
H621 C627 0.950 . S
H622 C628 0.950 . S
H623 C629 0.949 . S
C624 H619 0.950 . S
C624 C626 1.327 . S
C624 C630 1.429 . S
C625 C617 1.574 . S
C625 H620 0.949 . S
C625 C631 1.368 . S
C626 C610 1.349 . S
C626 H618 0.950 . S
C626 C624 1.327 . S
C627 C615 1.349 . S
C627 H621 0.950 . S
C627 C628 1.327 . S
C628 H622 0.950 . S
C628 C627 1.327 . S
C628 C632 1.429 . S
C629 C612 1.574 . S
C629 H623 0.949 . S
C629 C633 1.368 . S
C630 C611 1.429 . S
C630 C624 1.429 . S
C630 C631 1.523 . S
C631 C612 1.368 . S
C631 C625 1.368 . S
C631 C630 1.523 . S
C632 C616 1.429 . S
C632 C628 1.429 . S
C632 C633 1.523 . S
C633 C617 1.368 . S
C633 C629 1.368 . S
C633 C632 1.523 . S
H634 C609 0.950 . S
H635 C611 0.950 . S
H636 C612 0.949 . S
H637 C614 0.950 . S
H638 C616 0.950 . S
C639 C640 1.349 . S
C639 C641 1.327 . S
C639 H664 0.950 . S
C640 C639 1.349 . S
C640 C656 1.349 . S
C641 C639 1.327 . S
C641 C660 1.429 . S
C641 H665 0.950 . S
C642 C659 1.574 . S
C642 C661 1.368 . S
C642 H666 0.949 . S
H643 C647 0.949 . S
C644 C645 1.349 . S
C644 C646 1.327 . S
C644 H667 0.950 . S
C645 C644 1.349 . S
C645 C657 1.349 . S
C646 C644 1.327 . S
C646 C662 1.429 . S
C646 H668 0.950 . S
C647 H643 0.949 . S
C647 C655 1.574 . S
C647 C663 1.368 . S
H648 C656 0.950 . S
H649 C654 0.950 . S
H650 C655 0.949 . S
H651 C657 0.950 . S
H652 C658 0.950 . S
H653 C659 0.949 . S
C654 H649 0.950 . S
C654 C656 1.327 . S
C654 C660 1.429 . S
C655 C647 1.574 . S
C655 H650 0.949 . S
C655 C661 1.368 . S
C656 C640 1.349 . S
C656 H648 0.950 . S
C656 C654 1.327 . S
C657 C645 1.349 . S
C657 H651 0.950 . S
C657 C658 1.327 . S
C658 H652 0.950 . S
C658 C657 1.327 . S
C658 C662 1.429 . S
C659 C642 1.574 . S
C659 H653 0.949 . S
C659 C663 1.368 . S
C660 C641 1.429 . S
C660 C654 1.429 . S
C660 C661 1.523 . S
C661 C642 1.368 . S
C661 C655 1.368 . S
C661 C660 1.523 . S
C662 C646 1.429 . S
C662 C658 1.429 . S
C662 C663 1.523 . S
C663 C647 1.368 . S
C663 C659 1.368 . S
C663 C662 1.523 . S
H664 C639 0.950 . S
H665 C641 0.950 . S
H666 C642 0.949 . S
H667 C644 0.950 . S
H668 C646 0.950 . S
C669 C670 1.349 . S
C669 C671 1.327 . S
C669 H694 0.950 . S
C670 C669 1.349 . S
C670 C686 1.349 . S
C671 C669 1.327 . S
C671 C690 1.429 . S
C671 H695 0.950 . S
C672 C689 1.574 . S
C672 C691 1.368 . S
C672 H696 0.949 . S
H673 C677 0.949 . S
C674 C675 1.349 . S
C674 C676 1.327 . S
C674 H697 0.950 . S
C675 C674 1.349 . S
C675 C687 1.349 . S
C676 C674 1.327 . S
C676 C692 1.429 . S
C676 H698 0.950 . S
C677 H673 0.949 . S
C677 C685 1.574 . S
C677 C693 1.368 . S
H678 C686 0.950 . S
H679 C684 0.950 . S
H680 C685 0.949 . S
H681 C687 0.950 . S
H682 C688 0.950 . S
H683 C689 0.949 . S
C684 H679 0.950 . S
C684 C686 1.327 . S
C684 C690 1.429 . S
C685 C677 1.574 . S
C685 H680 0.949 . S
C685 C691 1.368 . S
C686 C670 1.349 . S
C686 H678 0.950 . S
C686 C684 1.327 . S
C687 C675 1.349 . S
C687 H681 0.950 . S
C687 C688 1.327 . S
C688 H682 0.950 . S
C688 C687 1.327 . S
C688 C692 1.429 . S
C689 C672 1.574 . S
C689 H683 0.949 . S
C689 C693 1.368 . S
C690 C671 1.429 . S
C690 C684 1.429 . S
C690 C691 1.523 . S
C691 C672 1.368 . S
C691 C685 1.368 . S
C691 C690 1.523 . S
C692 C676 1.429 . S
C692 C688 1.429 . S
C692 C693 1.523 . S
C693 C677 1.368 . S
C693 C689 1.368 . S
C693 C692 1.523 . S
H694 C669 0.950 . S
H695 C671 0.950 . S
H696 C672 0.949 . S
H697 C674 0.950 . S
H698 C676 0.950 . S
C699 C700 1.349 . S
C699 C701 1.327 . S
C699 H724 0.950 . S
C700 C699 1.349 . S
C700 C716 1.349 . S
C701 C699 1.327 . S
C701 C720 1.429 . S
C701 H725 0.950 . S
C702 C719 1.574 . S
C702 C721 1.368 . S
C702 H726 0.949 . S
H703 C707 0.949 . S
C704 C705 1.349 . S
C704 C706 1.327 . S
C704 H727 0.950 . S
C705 C704 1.349 . S
C705 C717 1.349 . S
C706 C704 1.327 . S
C706 C722 1.429 . S
C706 H728 0.950 . S
C707 H703 0.949 . S
C707 C715 1.574 . S
C707 C723 1.368 . S
H708 C716 0.950 . S
H709 C714 0.950 . S
H710 C715 0.949 . S
H711 C717 0.950 . S
H712 C718 0.950 . S
H713 C719 0.949 . S
C714 H709 0.950 . S
C714 C716 1.327 . S
C714 C720 1.429 . S
C715 C707 1.574 . S
C715 H710 0.949 . S
C715 C721 1.368 . S
C716 C700 1.349 . S
C716 H708 0.950 . S
C716 C714 1.327 . S
C717 C705 1.349 . S
C717 H711 0.950 . S
C717 C718 1.327 . S
C718 H712 0.950 . S
C718 C717 1.327 . S
C718 C722 1.429 . S
C719 C702 1.574 . S
C719 H713 0.949 . S
C719 C723 1.368 . S
C720 C701 1.429 . S
C720 C714 1.429 . S
C720 C721 1.523 . S
C721 C702 1.368 . S
C721 C715 1.368 . S
C721 C720 1.523 . S
C722 C706 1.429 . S
C722 C718 1.429 . S
C722 C723 1.523 . S
C723 C707 1.368 . S
C723 C719 1.368 . S
C723 C722 1.523 . S
H724 C699 0.950 . S
H725 C701 0.950 . S
H726 C702 0.949 . S
H727 C704 0.950 . S
H728 C706 0.950 . S
C729 C730 1.358 . S
C729 C731 1.327 . S
C729 H754 0.950 . S
C730 C729 1.358 . S
C730 C746 1.343 1_455 S
C731 C729 1.327 . S
C731 C750 1.429 . S
C731 H755 0.950 . S
C732 C749 1.574 . S
C732 C751 1.368 1_655 S
C732 H756 0.949 . S
H733 C737 0.949 . S
C734 C735 1.353 . S
C734 C736 1.326 1_455 S
C734 H757 0.947 1_455 S
C735 C734 1.353 . S
C735 C747 1.349 . S
C736 C734 1.326 1_655 S
C736 C752 1.429 1_655 S
C736 H758 0.950 . S
C737 H733 0.949 . S
C737 C745 1.574 . S
C737 C753 1.368 . S
H738 C746 0.950 . S
H739 C744 0.950 . S
H740 C745 0.949 . S
H741 C747 0.950 . S
H742 C748 0.950 . S
H743 C749 0.949 . S
C744 H739 0.950 . S
C744 C746 1.327 . S
C744 C750 1.429 1_655 S
C745 C737 1.574 . S
C745 H740 0.949 . S
C745 C751 1.368 . S
C746 C730 1.343 1_655 S
C746 H738 0.950 . S
C746 C744 1.327 . S
C747 C735 1.349 . S
C747 H741 0.950 . S
C747 C748 1.327 . S
C748 H742 0.950 . S
C748 C747 1.327 . S
C748 C752 1.429 . S
C749 C732 1.574 . S
C749 H743 0.949 . S
C749 C753 1.368 1_655 S
C750 C731 1.429 . S
C750 C744 1.429 1_455 S
C750 C751 1.523 . S
C751 C732 1.368 1_455 S
C751 C745 1.368 . S
C751 C750 1.523 . S
C752 C736 1.429 1_455 S
C752 C748 1.429 . S
C752 C753 1.523 . S
C753 C737 1.368 . S
C753 C749 1.368 1_455 S
C753 C752 1.523 . S
H754 C729 0.950 . S
H755 C731 0.950 . S
H756 C732 0.949 . S
H757 C734 0.947 1_655 S
H758 C736 0.950 . S
C759 C760 1.349 . S
C759 C761 1.327 . S
C759 H784 0.950 . S
C760 C759 1.349 . S
C760 C776 1.349 . S
C761 C759 1.327 . S
C761 C780 1.429 . S
C761 H785 0.950 . S
C762 C779 1.574 . S
C762 C781 1.368 . S
C762 H786 0.949 . S
H763 C767 0.949 . S
C764 C765 1.349 . S
C764 C766 1.327 . S
C764 H787 0.950 . S
C765 C764 1.349 . S
C765 C777 1.349 . S
C766 C764 1.327 . S
C766 C782 1.429 . S
C766 H788 0.950 . S
C767 H763 0.949 . S
C767 C775 1.574 . S
C767 C783 1.368 . S
H768 C776 0.950 . S
H769 C774 0.950 . S
H770 C775 0.949 . S
H771 C777 0.950 . S
H772 C778 0.950 . S
H773 C779 0.949 . S
C774 H769 0.950 . S
C774 C776 1.327 . S
C774 C780 1.429 . S
C775 C767 1.574 . S
C775 H770 0.949 . S
C775 C781 1.368 . S
C776 C760 1.349 . S
C776 H768 0.950 . S
C776 C774 1.327 . S
C777 C765 1.349 . S
C777 H771 0.950 . S
C777 C778 1.327 . S
C778 H772 0.950 . S
C778 C777 1.327 . S
C778 C782 1.429 . S
C779 C762 1.574 . S
C779 H773 0.949 . S
C779 C783 1.368 . S
C780 C761 1.429 . S
C780 C774 1.429 . S
C780 C781 1.523 . S
C781 C762 1.368 . S
C781 C775 1.368 . S
C781 C780 1.523 . S
C782 C766 1.429 . S
C782 C778 1.429 . S
C782 C783 1.523 . S
C783 C767 1.368 . S
C783 C779 1.368 . S
C783 C782 1.523 . S
H784 C759 0.950 . S
H785 C761 0.950 . S
H786 C762 0.949 . S
H787 C764 0.950 . S
H788 C766 0.950 . S
C789 C790 1.343 1_565 S
C789 C791 1.326 . S
C789 H814 0.958 . S
C790 C789 1.343 1_545 S
C790 C806 1.349 . S
C791 C789 1.326 . S
C791 C810 1.429 1_565 S
C791 H815 0.950 . S
C792 C809 1.574 . S
C792 C811 1.368 . S
C792 H816 0.949 . S
H793 C797 0.949 . S
C794 C795 1.349 . S
C794 C796 1.327 . S
C794 H817 0.950 . S
C795 C794 1.349 . S
C795 C807 1.349 1_545 S
C796 C794 1.327 . S
C796 C812 1.429 . S
C796 H818 0.950 . S
C797 H793 0.949 . S
C797 C805 1.574 . S
C797 C813 1.368 1_565 S
H798 C806 0.950 . S
H799 C804 0.950 . S
H800 C805 0.949 . S
H801 C807 0.950 . S
H802 C808 0.950 . S
H803 C809 0.949 . S
C804 H799 0.950 . S
C804 C806 1.327 . S
C804 C810 1.429 . S
C805 C797 1.574 . S
C805 H800 0.949 . S
C805 C811 1.368 1_565 S
C806 C790 1.349 . S
C806 H798 0.950 . S
C806 C804 1.327 . S
C807 C795 1.349 1_565 S
C807 H801 0.950 . S
C807 C808 1.327 . S
C808 H802 0.950 . S
C808 C807 1.327 . S
C808 C812 1.429 1_565 S
C809 C792 1.574 . S
C809 H803 0.949 . S
C809 C813 1.368 . S
C810 C791 1.429 1_545 S
C810 C804 1.429 . S
C810 C811 1.523 . S
C811 C792 1.368 . S
C811 C805 1.368 1_545 S
C811 C810 1.523 . S
C812 C796 1.429 . S
C812 C808 1.429 1_545 S
C812 C813 1.523 . S
C813 C797 1.368 1_545 S
C813 C809 1.368 . S
C813 C812 1.523 . S
H814 C789 0.958 . S
H815 C791 0.950 . S
H816 C792 0.949 . S
H817 C794 0.950 . S
H818 C796 0.950 . S
C819 C820 1.349 . S
C819 C821 1.327 . S
C819 H844 0.950 . S
C820 C819 1.349 . S
C820 C836 1.349 . S
C821 C819 1.327 . S
C821 C840 1.429 . S
C821 H845 0.950 . S
C822 C839 1.574 . S
C822 C841 1.368 . S
C822 H846 0.949 . S
H823 C827 0.949 . S
C824 C825 1.349 . S
C824 C826 1.327 . S
C824 H847 0.950 . S
C825 C824 1.349 . S
C825 C837 1.349 . S
C826 C824 1.327 . S
C826 C842 1.429 1_554 S
C826 H848 0.950 1_554 S
C827 H823 0.949 . S
C827 C835 1.574 . S
C827 C843 1.368 . S
H828 C836 0.950 . S
H829 C834 0.950 . S
H830 C835 0.949 . S
H831 C837 0.950 . S
H832 C838 0.950 . S
H833 C839 0.949 . S
C834 H829 0.950 . S
C834 C836 1.327 . S
C834 C840 1.429 . S
C835 C827 1.574 . S
C835 H830 0.949 . S
C835 C841 1.368 . S
C836 C820 1.349 . S
C836 H828 0.950 . S
C836 C834 1.327 . S
C837 C825 1.349 . S
C837 H831 0.950 . S
C837 C838 1.327 1_554 S
C838 H832 0.950 . S
C838 C837 1.327 1_556 S
C838 C842 1.429 . S
C839 C822 1.574 . S
C839 H833 0.949 . S
C839 C843 1.368 . S
C840 C821 1.429 . S
C840 C834 1.429 . S
C840 C841 1.523 . S
C841 C822 1.368 . S
C841 C835 1.368 . S
C841 C840 1.523 . S
C842 C826 1.429 1_556 S
C842 C838 1.429 . S
C842 C843 1.523 . S
C843 C827 1.368 . S
C843 C839 1.368 . S
C843 C842 1.523 . S
H844 C819 0.950 . S
H845 C821 0.950 . S
H846 C822 0.949 . S
H847 C824 0.950 . S
H848 C826 0.950 1_556 S
C849 C850 1.349 . S
C849 C851 1.327 . S
C849 H874 0.950 . S
C850 C849 1.349 . S
C850 C866 1.349 . S
C851 C849 1.327 . S
C851 C870 1.429 . S
C851 H875 0.950 . S
C852 C869 1.574 . S
C852 C871 1.368 . S
C852 H876 0.949 . S
H853 C857 0.949 . S
C854 C855 1.349 1_556 S
C854 C856 1.327 . S
C854 H877 0.950 1_556 S
C855 C854 1.349 1_554 S
C855 C867 1.349 . S
C856 C854 1.327 . S
C856 C872 1.429 . S
C856 H878 0.950 . S
C857 H853 0.949 . S
C857 C865 1.574 . S
C857 C873 1.368 . S
H858 C866 0.950 . S
H859 C864 0.950 . S
H860 C865 0.949 . S
H861 C867 0.950 . S
H862 C868 0.950 . S
H863 C869 0.949 . S
C864 H859 0.950 . S
C864 C866 1.327 . S
C864 C870 1.429 . S
C865 C857 1.574 . S
C865 H860 0.949 . S
C865 C871 1.368 . S
C866 C850 1.349 . S
C866 H858 0.950 . S
C866 C864 1.327 . S
C867 C855 1.349 . S
C867 H861 0.950 . S
C867 C868 1.327 1_554 S
C868 H862 0.950 . S
C868 C867 1.327 1_556 S
C868 C872 1.429 . S
C869 C852 1.574 . S
C869 H863 0.949 . S
C869 C873 1.368 . S
C870 C851 1.429 . S
C870 C864 1.429 . S
C870 C871 1.523 . S
C871 C852 1.368 . S
C871 C865 1.368 . S
C871 C870 1.523 . S
C872 C856 1.429 . S
C872 C868 1.429 . S
C872 C873 1.523 . S
C873 C857 1.368 . S
C873 C869 1.368 . S
C873 C872 1.523 . S
H874 C849 0.950 . S
H875 C851 0.950 . S
H876 C852 0.949 . S
H877 C854 0.950 1_554 S
H878 C856 0.950 . S
C879 C880 1.349 . S
C879 C881 1.327 . S
C879 H904 0.950 . S
C880 C879 1.349 . S
C880 C896 1.349 . S
C881 C879 1.327 . S
C881 C900 1.429 . S
C881 H905 0.950 . S
C882 C899 1.574 . S
C882 C901 1.368 . S
C882 H906 0.949 . S
H883 C887 0.949 . S
C884 C885 1.349 . S
C884 C886 1.327 1_554 S
C884 H907 0.950 . S
C885 C884 1.349 . S
C885 C897 1.349 . S
C886 C884 1.327 1_556 S
C886 C902 1.429 . S
C886 H908 0.950 . S
C887 H883 0.949 . S
C887 C895 1.574 . S
C887 C903 1.368 . S
H888 C896 0.950 . S
H889 C894 0.950 . S
H890 C895 0.949 . S
H891 C897 0.950 . S
H892 C898 0.950 . S
H893 C899 0.949 . S
C894 H889 0.950 . S
C894 C896 1.327 . S
C894 C900 1.429 . S
C895 C887 1.574 . S
C895 H890 0.949 . S
C895 C901 1.368 . S
C896 C880 1.349 . S
C896 H888 0.950 . S
C896 C894 1.327 . S
C897 C885 1.349 . S
C897 H891 0.950 . S
C897 C898 1.327 1_554 S
C898 H892 0.950 . S
C898 C897 1.327 1_556 S
C898 C902 1.429 . S
C899 C882 1.574 . S
C899 H893 0.949 . S
C899 C903 1.368 . S
C900 C881 1.429 . S
C900 C894 1.429 . S
C900 C901 1.523 . S
C901 C882 1.368 . S
C901 C895 1.368 . S
C901 C900 1.523 . S
C902 C886 1.429 . S
C902 C898 1.429 . S
C902 C903 1.523 . S
C903 C887 1.368 . S
C903 C899 1.368 . S
C903 C902 1.523 . S
H904 C879 0.950 . S
H905 C881 0.950 . S
H906 C882 0.949 . S
H907 C884 0.950 . S
H908 C886 0.950 . S
C909 C910 1.349 . S
C909 C911 1.327 . S
C909 H934 0.950 . S
C910 C909 1.349 . S
C910 C926 1.349 . S
C911 C909 1.327 . S
C911 C930 1.429 . S
C911 H935 0.950 . S
C912 C929 1.574 . S
C912 C931 1.368 . S
C912 H936 0.949 . S
H913 C917 0.949 . S
C914 C915 1.349 . S
C914 C916 1.327 . S
C914 H937 0.950 . S
C915 C914 1.349 . S
C915 C927 1.349 . S
C916 C914 1.327 . S
C916 C932 1.429 1_556 S
C916 H938 0.950 . S
C917 H913 0.949 . S
C917 C925 1.574 . S
C917 C933 1.368 . S
H918 C926 0.950 . S
H919 C924 0.950 . S
H920 C925 0.949 . S
H921 C927 0.950 . S
H922 C928 0.950 1_554 S
H923 C929 0.949 . S
C924 H919 0.950 . S
C924 C926 1.327 . S
C924 C930 1.429 . S
C925 C917 1.574 . S
C925 H920 0.949 . S
C925 C931 1.368 . S
C926 C910 1.349 . S
C926 H918 0.950 . S
C926 C924 1.327 . S
C927 C915 1.349 . S
C927 H921 0.950 . S
C927 C928 1.327 . S
C928 H922 0.950 1_556 S
C928 C927 1.327 . S
C928 C932 1.429 1_556 S
C929 C912 1.574 . S
C929 H923 0.949 . S
C929 C933 1.368 . S
C930 C911 1.429 . S
C930 C924 1.429 . S
C930 C931 1.523 . S
C931 C912 1.368 . S
C931 C925 1.368 . S
C931 C930 1.523 . S
C932 C916 1.429 1_554 S
C932 C928 1.429 1_554 S
C932 C933 1.523 . S
C933 C917 1.368 . S
C933 C929 1.368 . S
C933 C932 1.523 . S
H934 C909 0.950 . S
H935 C911 0.950 . S
H936 C912 0.949 . S
H937 C914 0.950 . S
H938 C916 0.950 . S
C939 C940 1.349 1_554 S
C939 C941 1.327 . S
C939 H964 0.950 1_554 S
C940 C939 1.349 1_556 S
C940 C956 1.349 . S
C941 C939 1.327 . S
C941 C960 1.429 . S
C941 H965 0.950 . S
C942 C959 1.574 . S
C942 C961 1.368 . S
C942 H966 0.949 . S
H943 C947 0.949 . S
C944 C945 1.349 . S
C944 C946 1.327 . S
C944 H967 0.950 . S
C945 C944 1.349 . S
C945 C957 1.349 . S
C946 C944 1.327 . S
C946 C962 1.429 . S
C946 H968 0.950 . S
C947 H943 0.949 . S
C947 C955 1.574 . S
C947 C963 1.368 . S
H948 C956 0.950 . S
H949 C954 0.950 . S
H950 C955 0.949 . S
H951 C957 0.950 . S
H952 C958 0.950 . S
H953 C959 0.949 . S
C954 H949 0.950 . S
C954 C956 1.327 1_554 S
C954 C960 1.429 . S
C955 C947 1.574 . S
C955 H950 0.949 . S
C955 C961 1.368 . S
C956 C940 1.349 . S
C956 H948 0.950 . S
C956 C954 1.327 1_556 S
C957 C945 1.349 . S
C957 H951 0.950 . S
C957 C958 1.327 . S
C958 H952 0.950 . S
C958 C957 1.327 . S
C958 C962 1.429 . S
C959 C942 1.574 . S
C959 H953 0.949 . S
C959 C963 1.368 . S
C960 C941 1.429 . S
C960 C954 1.429 . S
C960 C961 1.523 . S
C961 C942 1.368 . S
C961 C955 1.368 . S
C961 C960 1.523 . S
C962 C946 1.429 . S
C962 C958 1.429 . S
C962 C963 1.523 . S
C963 C947 1.368 . S
C963 C959 1.368 . S
C963 C962 1.523 . S
H964 C939 0.950 1_556 S
H965 C941 0.950 . S
H966 C942 0.949 . S
H967 C944 0.950 . S
H968 C946 0.950 . S
C969 C970 1.349 . S
C969 C971 1.327 . S
C969 H994 0.950 . S
C970 C969 1.349 . S
C970 C986 1.349 . S
C971 C969 1.327 . S
C971 C990 1.429 . S
C971 H995 0.950 . S
C972 C989 1.574 . S
C972 C991 1.368 . S
C972 H996 0.949 . S
H973 C977 0.949 . S
C974 C975 1.349 . S
C974 C976 1.327 1_556 S
C974 H997 0.950 . S
C975 C974 1.349 . S
C975 C987 1.349 . S
C976 C974 1.327 1_554 S
C976 C992 1.429 . S
C976 H998 0.950 . S
C977 H973 0.949 . S
C977 C985 1.574 . S
C977 C993 1.368 . S
H978 C986 0.950 . S
H979 C984 0.950 . S
H980 C985 0.949 . S
H981 C987 0.950 . S
H982 C988 0.950 . S
H983 C989 0.949 . S
C984 H979 0.950 . S
C984 C986 1.327 . S
C984 C990 1.429 . S
C985 C977 1.574 . S
C985 H980 0.949 . S
C985 C991 1.368 . S
C986 C970 1.349 . S
C986 H978 0.950 . S
C986 C984 1.327 . S
C987 C975 1.349 . S
C987 H981 0.950 . S
C987 C988 1.327 1_556 S
C988 H982 0.950 . S
C988 C987 1.327 1_554 S
C988 C992 1.429 . S
C989 C972 1.574 . S
C989 H983 0.949 . S
C989 C993 1.368 . S
C990 C971 1.429 . S
C990 C984 1.429 . S
C990 C991 1.523 . S
C991 C972 1.368 . S
C991 C985 1.368 . S
C991 C990 1.523 . S
C992 C976 1.429 . S
C992 C988 1.429 . S
C992 C993 1.523 . S
C993 C977 1.368 . S
C993 C989 1.368 . S
C993 C992 1.523 . S
H994 C969 0.950 . S
H995 C971 0.950 . S
H996 C972 0.949 . S
H997 C974 0.950 . S
H998 C976 0.950 . S
C190 C17 1.508 . S
C195 C164 1.511 . S
C220 C34 1.107 . S
C225 C181 1.116 . S
C250 C59 1.441 . S
C255 C139 1.156 . S
C280 C97 0.864 . S
C285 C55 0.871 . S
C310 C118 0.972 . S
C315 C13 0.954 . S
C340 C38 1.374 . S
C345 C76 1.132 . S
C370 C160 1.215 . S
C375 C122 1.495 . S
C400 C185 1.708 . S
C405 C80 1.699 . S
C430 C101 1.880 . S
C435 C143 1.879 . S
C460 C60 0.954 . S
C465 C16 0.890 . S
C490 C39 0.964 . S
C495 C18 0.965 . S
C520 C37 1.067 . S
C525 C58 1.059 1_554 S
C550 C81 1.091 . S
C555 C121 1.001 . S
C580 C79 1.078 . S
C585 C102 1.185 . S
C610 C100 0.968 . S
C615 C123 1.042 . S
C640 C186 1.249 . S
C645 C142 1.156 . S
C670 C165 1.004 . S
C675 C144 1.006 . S
C700 C184 1.090 . S
C705 C163 1.087 . S
C730 C15 1.004 . S
C735 C14 0.995 . S
C760 C35 0.957 . S
C765 C36 0.959 . S
C790 C57 0.951 . S
C795 C56 0.948 . S
C820 C78 1.010 . S
C825 C77 1.004 . S
C850 C99 0.965 . S
C855 C98 0.964 . S
C880 C120 0.990 . S
C885 C119 0.983 . S
C910 C141 0.999 . S
C915 C140 0.998 . S
C940 C162 0.981 . S
C945 C161 0.980 . S
C970 C183 0.968 . S
C975 C182 0.964 . S
