# Generated by pormake.
# Topology neb, (4)-cn, num edge types: 1
# Building blocks:
#     Node 0, Type 0, BuildingBlock: ICAMEG_clean_sbu_1, # of connection points: 4
#     Node 1, Type 0, BuildingBlock: ICAMEG_clean_sbu_1, # of connection points: 4
#     Node 2, Type 0, BuildingBlock: ICAMEG_clean_sbu_1, # of connection points: 4
#     Node 3, Type 0, BuildingBlock: ICAMEG_clean_sbu_1, # of connection points: 4
#     Node 4, Type 0, BuildingBlock: ICAMEG_clean_sbu_1, # of connection points: 4
#     Node 5, Type 0, BuildingBlock: ICAMEG_clean_sbu_1, # of connection points: 4
#     Node 6, Type 0, BuildingBlock: ICAMEG_clean_sbu_1, # of connection points: 4
#     Node 7, Type 0, BuildingBlock: ICAMEG_clean_sbu_1, # of connection points: 4
#     Node 8, Type 0, BuildingBlock: ICAMEG_clean_sbu_1, # of connection points: 4
#     Node 9, Type 0, BuildingBlock: ICAMEG_clean_sbu_1, # of connection points: 4
#     Node 10, Type 0, BuildingBlock: ICAMEG_clean_sbu_1, # of connection points: 4
#     Node 11, Type 0, BuildingBlock: ICAMEG_clean_sbu_1, # of connection points: 4
#     Node 12, Type 0, BuildingBlock: ICAMEG_clean_sbu_1, # of connection points: 4
#     Node 13, Type 0, BuildingBlock: ICAMEG_clean_sbu_1, # of connection points: 4
#     Node 14, Type 0, BuildingBlock: ICAMEG_clean_sbu_1, # of connection points: 4
#     Node 15, Type 0, BuildingBlock: ICAMEG_clean_sbu_1, # of connection points: 4
#     Edge 16, Type (0, 0), BuildingBlock: UVAHIK_clean_linker_0, # of connection points: 2
#     Edge 17, Type (0, 0), BuildingBlock: UVAHIK_clean_linker_0, # of connection points: 2
#     Edge 18, Type (0, 0), BuildingBlock: UVAHIK_clean_linker_0, # of connection points: 2
#     Edge 19, Type (0, 0), BuildingBlock: UVAHIK_clean_linker_0, # of connection points: 2
#     Edge 20, Type (0, 0), BuildingBlock: UVAHIK_clean_linker_0, # of connection points: 2
#     Edge 21, Type (0, 0), BuildingBlock: UVAHIK_clean_linker_0, # of connection points: 2
#     Edge 22, Type (0, 0), BuildingBlock: UVAHIK_clean_linker_0, # of connection points: 2
#     Edge 23, Type (0, 0), BuildingBlock: UVAHIK_clean_linker_0, # of connection points: 2
#     Edge 24, Type (0, 0), BuildingBlock: UVAHIK_clean_linker_0, # of connection points: 2
#     Edge 25, Type (0, 0), BuildingBlock: UVAHIK_clean_linker_0, # of connection points: 2
#     Edge 26, Type (0, 0), BuildingBlock: UVAHIK_clean_linker_0, # of connection points: 2
#     Edge 27, Type (0, 0), BuildingBlock: UVAHIK_clean_linker_0, # of connection points: 2
#     Edge 28, Type (0, 0), BuildingBlock: UVAHIK_clean_linker_0, # of connection points: 2
#     Edge 29, Type (0, 0), BuildingBlock: UVAHIK_clean_linker_0, # of connection points: 2
#     Edge 30, Type (0, 0), BuildingBlock: UVAHIK_clean_linker_0, # of connection points: 2
#     Edge 31, Type (0, 0), BuildingBlock: UVAHIK_clean_linker_0, # of connection points: 2
#     Edge 32, Type (0, 0), BuildingBlock: UVAHIK_clean_linker_0, # of connection points: 2
#     Edge 33, Type (0, 0), BuildingBlock: UVAHIK_clean_linker_0, # of connection points: 2
#     Edge 34, Type (0, 0), BuildingBlock: UVAHIK_clean_linker_0, # of connection points: 2
#     Edge 35, Type (0, 0), BuildingBlock: UVAHIK_clean_linker_0, # of connection points: 2
#     Edge 36, Type (0, 0), BuildingBlock: UVAHIK_clean_linker_0, # of connection points: 2
#     Edge 37, Type (0, 0), BuildingBlock: UVAHIK_clean_linker_0, # of connection points: 2
#     Edge 38, Type (0, 0), BuildingBlock: UVAHIK_clean_linker_0, # of connection points: 2
#     Edge 39, Type (0, 0), BuildingBlock: UVAHIK_clean_linker_0, # of connection points: 2
#     Edge 40, Type (0, 0), BuildingBlock: UVAHIK_clean_linker_0, # of connection points: 2
#     Edge 41, Type (0, 0), BuildingBlock: UVAHIK_clean_linker_0, # of connection points: 2
#     Edge 42, Type (0, 0), BuildingBlock: UVAHIK_clean_linker_0, # of connection points: 2
#     Edge 43, Type (0, 0), BuildingBlock: UVAHIK_clean_linker_0, # of connection points: 2
#     Edge 44, Type (0, 0), BuildingBlock: UVAHIK_clean_linker_0, # of connection points: 2
#     Edge 45, Type (0, 0), BuildingBlock: UVAHIK_clean_linker_0, # of connection points: 2
#     Edge 46, Type (0, 0), BuildingBlock: UVAHIK_clean_linker_0, # of connection points: 2
#     Edge 47, Type (0, 0), BuildingBlock: UVAHIK_clean_linker_0, # of connection points: 2
# Relax obj value: 0.005
# Max RMSD: 0.058
# Mean RMSD: 0.058
data_MOF--net-neb--node1-ICAMEG_clean_sbu_1--edge1-UVAHIK_clean_linker_0
_symmetry_space_group_name_H-M    P1
_symmetry_Int_Tables_number       1
_symmetry_cell_setting            triclinic
loop_
_symmetry_equiv_pos_as_xyz
'x, y, z'
_cell_length_a     52.592974
_cell_length_b     31.344568
_cell_length_c     105.84159
_cell_angle_alpha  89.978071
_cell_angle_beta   100.87428
_cell_angle_gamma 89.995155
loop_
_atom_site_label
_atom_site_type_symbol
_atom_site_fract_x
_atom_site_fract_y
_atom_site_fract_z
_atom_type_partial_charge
Co0 Co 0.14564 0.08636 0.43157 0.0
Co1 Co 0.10164 0.15142 0.44214 0.0
O2 O 0.11181 0.09633 0.43607 0.0
C3 C 0.131 0.04595 0.40593 0.0
O4 O 0.14418 0.07633 0.40153 0.0
C5 C 0.08938 0.09126 0.46186 0.0
O6 O 0.11291 0.07579 0.463 0.0
O7 O 0.13335 0.15286 0.45582 0.0
O8 O 0.16314 0.12546 0.44548 0.0
H9 H 0.1162 0.30287 0.45733 0.0
H10 H 0.11357 0.01278 0.43668 0.0
O11 O 0.12858 0.04626 0.41769 0.0
H12 H 0.19485 1.00033 0.46846 0.0
H13 H 0.21585 0.99523 0.41897 0.0
H14 H 0.18954 0.14141 0.42798 0.0
H15 H 0.18867 0.05902 0.45267 0.0
H16 H 0.1735 0.0086 0.42503 0.0
O17 O 0.08202 0.12162 0.45403 0.0
H18 H 0.12855 0.23351 0.44929 0.0
H19 H 0.05271 0.18577 0.44856 0.0
H20 H 0.23207 0.12947 0.42199 0.0
H21 H 0.11908 0.95329 0.4522 0.0
H22 H 0.24546 0.05594 0.41743 0.0
H23 H 0.15993 0.94685 0.46827 0.0
O24 O 0.1402 0.13564 0.41935 0.0
H25 H 0.02278 0.0833 0.41563 0.0
H26 H 0.07592 0.21382 0.42249 0.0
H27 H 0.03735 0.2121 0.40515 0.0
H28 H 0.01042 0.14652 0.40167 0.0
H29 H 0.06167 0.08627 0.43278 0.0
H30 H 0.03959 0.25452 0.45669 0.0
H31 H 0.07143 0.31372 0.46107 0.0
O32 O 0.12054 0.18267 0.43028 0.0
C33 C 0.15683 0.14572 0.45489 0.0
C34 C 0.10213 0.27737 0.45541 0.0
C35 C 0.05915 0.25021 0.45507 0.0
N36 N 0.09133 0.20573 0.44837 0.0
C37 C 0.109 0.23805 0.45083 0.0
C38 C 0.0667 0.21132 0.4505 0.0
C39 C 0.07702 0.28341 0.45753 0.0
C40 C 0.13152 0.00995 0.44354 0.0
N41 N 0.15083 0.03922 0.4437 0.0
C42 C 0.13448 0.9763 0.45235 0.0
C43 C 0.15738 0.97275 0.46138 0.0
C44 C 0.17697 1.00276 0.4615 0.0
C45 C 0.17332 0.03602 0.45255 0.0
C46 C 0.21024 0.02741 0.42094 0.0
C47 C 0.19524 0.10932 0.42604 0.0
C48 C 0.18629 0.03518 0.42438 0.0
N49 N 0.17908 0.07575 0.42689 0.0
C50 C 0.21934 0.10275 0.42264 0.0
C51 C 0.22685 0.06149 0.42008 0.0
C52 C 0.13244 0.17335 0.42119 0.0
C53 C 0.03432 0.11209 0.41707 0.0
C54 C 0.06439 0.1851 0.42099 0.0
C55 C 0.04252 0.18435 0.41118 0.0
C56 C 0.02741 0.14756 0.40923 0.0
N57 N 0.07098 0.15023 0.42868 0.0
C58 C 0.05632 0.11399 0.42679 0.0
Co59 Co 0.10856 0.08862 0.81866 0.0
Co60 Co 0.15438 0.15051 0.80818 0.0
O61 O 0.14272 0.09567 0.81399 0.0
C62 C 0.14545 0.0346 0.83771 0.0
O63 O 0.16567 0.05024 0.83373 0.0
C64 C 0.1657 0.09066 0.78808 0.0
O65 O 0.14192 0.07611 0.78674 0.0
O66 O 0.12293 0.15418 0.79442 0.0
O67 O 0.09259 0.12913 0.80477 0.0
H68 H 0.14335 0.30312 0.79362 0.0
H69 H 0.13829 0.01306 0.81235 0.0
O70 O 0.12267 0.04721 0.83283 0.0
H71 H 0.05465 0.007 0.78219 0.0
H72 H 0.0359 0.00611 0.83216 0.0
H73 H 0.06648 0.14833 0.82181 0.0
H74 H 0.06373 0.06478 0.79818 0.0
H75 H 0.07844 0.0146 0.82587 0.0
O76 O 0.17344 0.12012 0.79617 0.0
H77 H 0.12934 0.23427 0.80127 0.0
H78 H 0.20424 0.18229 0.80213 0.0
H79 H 0.02372 0.14122 0.82795 0.0
H80 H 0.1299 0.9545 0.79665 0.0
H81 H 0.00817 0.0697 0.83318 0.0
H82 H 0.08783 0.95118 0.78138 0.0
O83 O 0.11583 0.13675 0.83113 0.0
H84 H 0.23342 0.07918 0.83356 0.0
H85 H 0.18047 0.21007 0.82861 0.0
H86 H 0.21912 0.20603 0.84582 0.0
H87 H 0.24597 0.14027 0.84837 0.0
H88 H 0.19435 0.0843 0.8166 0.0
H89 H 0.21901 0.2505 0.79441 0.0
H90 H 0.18848 0.31157 0.79014 0.0
O91 O 0.13601 0.18268 0.8201 0.0
C92 C 0.09933 0.14875 0.79537 0.0
C93 C 0.15685 0.27679 0.79548 0.0
C94 C 0.1993 0.24724 0.79591 0.0
N95 N 0.16599 0.20438 0.80224 0.0
C96 C 0.14905 0.23774 0.79984 0.0
C97 C 0.19081 0.20866 0.80026 0.0
C98 C 0.18217 0.28149 0.79352 0.0
C99 C 0.11979 0.01159 0.80592 0.0
N100 N 0.10139 0.04204 0.80638 0.0
C101 C 0.11521 0.97845 0.79697 0.0
C102 C 0.09163 0.97666 0.78839 0.0
C103 C 0.07301 0.00796 0.78883 0.0
C104 C 0.07829 0.04065 0.79791 0.0
C105 C 0.04244 0.03744 0.82989 0.0
C106 C 0.0598 0.11706 0.82401 0.0
C107 C 0.06654 0.04246 0.82635 0.0
N108 N 0.07488 0.0819 0.82339 0.0
C109 C 0.03559 0.11325 0.82751 0.0
C110 C 0.02689 0.07312 0.83045 0.0
C111 C 0.12421 0.17401 0.82928 0.0
C112 C 0.22187 0.108 0.83256 0.0
C113 C 0.19182 0.18111 0.82974 0.0
C114 C 0.21381 0.17913 0.83946 0.0
C115 C 0.22888 0.14226 0.84087 0.0
N116 N 0.185 0.1473 0.82166 0.0
C117 C 0.19977 0.11114 0.82294 0.0
Co118 Co 0.85567 0.92814 0.5685 0.0
Co119 Co 0.9062 0.86861 0.56095 0.0
O120 O 0.89078 0.92283 0.56488 0.0
C121 C 0.8892 0.97445 0.59014 0.0
O122 O 0.90786 0.94684 0.58996 0.0
C123 C 0.91297 0.92387 0.53887 0.0
O124 O 0.8888 0.93633 0.53772 0.0
O125 O 0.87504 0.85421 0.54765 0.0
O126 O 0.84228 0.8861 0.5548 0.0
H127 H 0.90647 0.71075 0.55278 0.0
H128 H 0.88457 0.00549 0.56342 0.0
O129 O 0.8677 0.97102 0.58235 0.0
H130 H 0.80566 1.00472 0.52981 0.0
H131 H 0.77931 0.00874 0.57886 0.0
H132 H 0.81361 0.86709 0.57064 0.0
H133 H 0.81325 0.94812 0.54627 0.0
H134 H 0.82324 1.00139 0.57412 0.0
O135 O 0.92246 0.89715 0.54754 0.0
H136 H 0.88768 0.77927 0.55789 0.0
H137 H 0.95773 0.84326 0.55537 0.0
H138 H 0.7695 0.87303 0.57525 0.0
H139 H 0.87765 0.06296 0.54722 0.0
H140 H 0.75207 0.94427 0.5794 0.0
H141 H 0.83798 0.06274 0.53023 0.0
O142 O 0.86203 0.88115 0.58146 0.0
H143 H 0.97745 0.96466 0.58298 0.0
H144 H 0.93897 0.82121 0.58257 0.0
H145 H 0.97703 0.8391 0.59916 0.0
H146 H 0.99659 0.91131 0.5994 0.0
H147 H 0.93908 0.94555 0.56672 0.0
H148 H 0.97719 0.77552 0.55011 0.0
H149 H 0.95154 0.7086 0.54884 0.0
O150 O 0.89087 0.83864 0.57442 0.0
C151 C 0.85094 0.86133 0.54708 0.0
C152 C 0.91787 0.73968 0.55334 0.0
C153 C 0.95755 0.77604 0.55182 0.0
N154 N 0.92163 0.81518 0.55701 0.0
C155 C 0.90736 0.77854 0.55627 0.0
C156 C 0.94639 0.81433 0.55476 0.0
C157 C 0.94315 0.7385 0.55112 0.0
C158 C 0.86715 0.0054 0.55614 0.0
N159 N 0.84928 0.97359 0.55584 0.0
C160 C 0.86338 0.03793 0.54695 0.0
C161 C 0.84114 0.03775 0.53741 0.0
C162 C 0.82301 1.00519 0.53717 0.0
C163 C 0.82745 0.97315 0.5465 0.0
C164 C 0.78667 0.97753 0.57705 0.0
C165 C 0.80613 0.89822 0.57239 0.0
C166 C 0.81157 0.97315 0.5744 0.0
N167 N 0.82095 0.93385 0.57205 0.0
C168 C 0.78115 0.90138 0.57501 0.0
C169 C 0.7714 0.94135 0.57735 0.0
C170 C 0.87518 0.84675 0.58195 0.0
C171 C 0.96908 0.93311 0.58299 0.0
C172 C 0.94709 0.85283 0.58275 0.0
C173 C 0.96879 0.86271 0.5921 0.0
C174 C 0.97978 0.90319 0.59221 0.0
N175 N 0.9366 0.8824 0.57379 0.0
C176 C 0.9474 0.92206 0.57378 0.0
Co177 Co 0.89619 0.92489 0.18262 0.0
Co178 Co 0.84855 0.86083 0.19094 0.0
O179 O 0.86164 0.91602 0.18644 0.0
C180 C 0.88411 0.96722 0.15722 0.0
O181 O 0.89741 0.93665 0.15299 0.0
C182 C 0.84015 0.91635 0.2126 0.0
O183 O 0.86417 0.92961 0.21384 0.0
O184 O 0.88034 0.85079 0.20426 0.0
O185 O 0.91179 0.88392 0.19631 0.0
H186 H 0.8546 0.70401 0.20088 0.0
H187 H 0.8648 0.99941 0.18769 0.0
O188 O 0.88082 0.96669 0.16886 0.0
H189 H 0.94399 1.00525 0.22108 0.0
H190 H 0.96932 0.01435 0.17235 0.0
H191 H 0.9399 0.86853 0.17959 0.0
H192 H 0.93809 0.94833 0.20472 0.0
H193 H 0.92595 1.00204 0.17734 0.0
O194 O 0.83122 0.889 0.20402 0.0
H195 H 0.8706 0.77378 0.19494 0.0
H196 H 0.79826 0.83096 0.19697 0.0
H197 H 0.98342 0.87939 0.17465 0.0
H198 H 0.87004 0.05715 0.20379 0.0
H199 H 0.99839 0.95274 0.17098 0.0
H200 H 0.90983 0.06025 0.22066 0.0
O201 O 0.8911 0.87697 0.16993 0.0
H202 H 0.77414 0.94798 0.16754 0.0
H203 H 0.81766 0.80814 0.16999 0.0
H204 H 0.77898 0.82067 0.15323 0.0
H205 H 0.75688 0.89101 0.15195 0.0
H206 H 0.81308 0.93416 0.18405 0.0
H207 H 0.78156 0.76191 0.20305 0.0
H208 H 0.80978 0.69777 0.20499 0.0
O209 O 0.865 0.83139 0.17781 0.0
C210 C 0.90417 0.85919 0.20441 0.0
C211 C 0.84209 0.7317 0.20003 0.0
C212 C 0.80112 0.76421 0.20127 0.0
N213 N 0.83533 0.80633 0.19552 0.0
C214 C 0.85102 0.77126 0.19664 0.0
C215 C 0.8107 0.80325 0.19786 0.0
C216 C 0.81695 0.72823 0.20235 0.0
C217 C 0.8823 1.0008 0.19491 0.0
N218 N 0.90119 0.97069 0.19519 0.0
C219 C 0.8851 0.03346 0.20404 0.0
C220 C 0.90741 0.03514 0.21352 0.0
C221 C 0.92657 1.00428 0.21377 0.0
C222 C 0.92309 0.97205 0.20449 0.0
C223 C 0.96303 0.98224 0.17393 0.0
C224 C 0.94628 0.90054 0.17802 0.0
C225 C 0.9385 0.97507 0.17676 0.0
N226 N 0.93041 0.93459 0.17877 0.0
C227 C 0.97094 0.9065 0.17522 0.0
C228 C 0.97933 0.94766 0.17317 0.0
C229 C 0.87975 0.84096 0.16994 0.0
C230 C 0.78361 0.9172 0.16798 0.0
C231 C 0.80835 0.83893 0.1694 0.0
C232 C 0.78635 0.84579 0.15994 0.0
C233 C 0.77394 0.88524 0.15924 0.0
N234 N 0.81771 0.87041 0.17795 0.0
C235 C 0.80564 0.90917 0.17732 0.0
Co236 Co 0.15211 0.5887 0.93111 0.0
Co237 Co 0.102 0.64609 0.93924 0.0
O238 O 0.11732 0.5923 0.93509 0.0
C239 C 0.12006 0.54079 0.90947 0.0
O240 O 0.10379 0.57297 0.90756 0.0
C241 C 0.09345 0.59022 0.96088 0.0
O242 O 0.11802 0.57948 0.96288 0.0
O243 O 0.1327 0.65814 0.95304 0.0
O244 O 0.1652 0.63374 0.94402 0.0
H245 H 0.10243 0.80278 0.94928 0.0
H246 H 0.12592 0.51059 0.93796 0.0
O247 O 0.14017 0.54269 0.91828 0.0
H248 H 0.20644 0.52133 0.97034 0.0
H249 H 0.22943 0.51089 0.92076 0.0
H250 H 0.19197 0.65168 0.92716 0.0
H251 H 0.19621 0.57478 0.95303 0.0
H252 H 0.18593 0.51654 0.92615 0.0
O253 O 0.08436 0.61606 0.95188 0.0
H254 H 0.1212 0.73473 0.94376 0.0
H255 H 0.04993 0.67139 0.94406 0.0
H256 H 0.2356 0.64748 0.92188 0.0
H257 H 0.13551 0.45619 0.95504 0.0
H258 H 0.25462 0.57669 0.91864 0.0
H259 H 0.176 0.46144 0.97141 0.0
O260 O 0.14364 0.6335 0.91752 0.0
H261 H 0.03168 0.55358 0.91466 0.0
H262 H 0.07145 0.69649 0.91759 0.0
H263 H 0.03451 0.68102 0.90011 0.0
H264 H 0.01432 0.6091 0.89858 0.0
H265 H 0.06885 0.57035 0.9319 0.0
H266 H 0.03046 0.73867 0.94969 0.0
H267 H 0.05674 0.80503 0.95228 0.0
O268 O 0.11866 0.67767 0.92657 0.0
C269 C 0.15675 0.65494 0.95264 0.0
C270 C 0.09076 0.7741 0.94814 0.0
C271 C 0.05038 0.73811 0.94839 0.0
N272 N 0.08664 0.69918 0.94351 0.0
C273 C 0.10127 0.7355 0.94499 0.0
C274 C 0.06153 0.70008 0.94524 0.0
C275 C 0.06513 0.77533 0.94984 0.0
C276 C 0.14368 0.51289 0.94498 0.0
N277 N 0.16052 0.54575 0.94446 0.0
C278 C 0.14896 0.48208 0.95466 0.0
C279 C 0.17166 0.48507 0.96385 0.0
C280 C 0.18875 0.51868 0.96326 0.0
C281 C 0.18281 0.54893 0.95346 0.0
C282 C 0.22137 0.54192 0.92216 0.0
C283 C 0.20015 0.62075 0.92582 0.0
C284 C 0.19672 0.54533 0.92518 0.0
N285 N 0.18647 0.5844 0.92703 0.0
C286 C 0.22485 0.61857 0.9228 0.0
C287 C 0.23549 0.57885 0.92098 0.0
C288 C 0.1323 0.66929 0.91811 0.0
C289 C 0.04029 0.58505 0.91523 0.0
C290 C 0.06292 0.66508 0.91693 0.0
C291 C 0.04192 0.65653 0.90704 0.0
C292 C 0.03058 0.6162 0.9062 0.0
N293 N 0.07234 0.63437 0.92575 0.0
C294 C 0.06129 0.59477 0.92499 0.0
Co295 Co 0.10712 0.58567 0.31884 0.0
Co296 Co 0.15635 0.64248 0.30992 0.0
O297 O 0.14193 0.58893 0.31489 0.0
C298 C 0.13921 0.53894 0.34085 0.0
O299 O 0.15563 0.57091 0.34261 0.0
C300 C 0.16686 0.58343 0.28948 0.0
O301 O 0.14238 0.57215 0.28736 0.0
O302 O 0.12596 0.65046 0.2957 0.0
O303 O 0.0938 0.62956 0.3055 0.0
H304 H 0.15298 0.79657 0.29659 0.0
H305 H 0.13365 0.50717 0.3126 0.0
O306 O 0.1191 0.54072 0.33204 0.0
H307 H 0.05277 0.51428 0.28035 0.0
H308 H 0.02991 0.50921 0.32985 0.0
H309 H 0.06721 0.64917 0.32232 0.0
H310 H 0.06286 0.56937 0.29716 0.0
H311 H 0.07338 0.51413 0.3244 0.0
O312 O 0.17532 0.61073 0.29816 0.0
H313 H 0.13531 0.7291 0.30325 0.0
H314 H 0.20838 0.66898 0.30537 0.0
H315 H 0.02358 0.64568 0.32764 0.0
H316 H 0.1242 0.45112 0.29603 0.0
H317 H 0.00465 0.57531 0.33144 0.0
H318 H 0.08354 0.45454 0.27972 0.0
O319 O 0.11567 0.63169 0.33205 0.0
H320 H 0.2283 0.55895 0.3369 0.0
H321 H 0.18401 0.69823 0.33099 0.0
H322 H 0.22062 0.68818 0.34908 0.0
H323 H 0.24307 0.61816 0.35211 0.0
H324 H 0.19144 0.57026 0.319 0.0
H325 H 0.22679 0.73573 0.29863 0.0
H326 H 0.19904 0.80019 0.29424 0.0
O327 O 0.13825 0.67584 0.32166 0.0
C328 C 0.10199 0.64828 0.29633 0.0
C329 C 0.16529 0.76874 0.29851 0.0
C330 C 0.2067 0.73458 0.29964 0.0
N331 N 0.17084 0.69523 0.3048 0.0
C332 C 0.15541 0.73047 0.30232 0.0
C333 C 0.19615 0.69685 0.30343 0.0
C334 C 0.19113 0.77074 0.29719 0.0
C335 C 0.11582 0.5087 0.3056 0.0
N336 N 0.0988 0.54148 0.30587 0.0
C337 C 0.11061 0.47695 0.29621 0.0
C338 C 0.08781 0.47891 0.28706 0.0
C339 C 0.07055 0.51244 0.2874 0.0
C340 C 0.07641 0.54364 0.29692 0.0
C341 C 0.03793 0.54006 0.3282 0.0
C342 C 0.05906 0.61841 0.3239 0.0
C343 C 0.06258 0.54306 0.32514 0.0
N344 N 0.07278 0.5819 0.32297 0.0
C345 C 0.03437 0.61665 0.32694 0.0
C346 C 0.02377 0.57716 0.32908 0.0
C347 C 0.12558 0.66815 0.33057 0.0
C348 C 0.21872 0.58965 0.33566 0.0
C349 C 0.19361 0.66761 0.33227 0.0
C350 C 0.21438 0.66215 0.34251 0.0
C351 C 0.22698 0.62286 0.3442 0.0
N352 N 0.18567 0.6349 0.32392 0.0
C353 C 0.19791 0.59629 0.32551 0.0
Co354 Co 0.85804 0.42537 0.06906 0.0
Co355 Co 0.90738 0.37001 0.05962 0.0
O356 O 0.89278 0.42324 0.06486 0.0
C357 C 0.89092 0.47596 0.09012 0.0
O358 O 0.91053 0.45015 0.09006 0.0
C359 C 0.91718 0.43003 0.03919 0.0
O360 O 0.89271 0.44136 0.03721 0.0
O361 O 0.87677 0.36202 0.04553 0.0
O362 O 0.84488 0.38174 0.05563 0.0
H363 H 0.90441 0.2163 0.04595 0.0
H364 H 0.88355 0.50497 0.06292 0.0
O365 O 0.86942 0.46981 0.08252 0.0
H366 H 0.80229 0.49679 0.03097 0.0
H367 H 0.78021 0.49848 0.0806 0.0
H368 H 0.81912 0.36025 0.07265 0.0
H369 H 0.81326 0.4412 0.04758 0.0
H370 H 0.82351 0.49544 0.07488 0.0
O371 O 0.92578 0.40243 0.04775 0.0
H372 H 0.88666 0.28326 0.05291 0.0
H373 H 0.95926 0.34452 0.05459 0.0
H374 H 0.77568 0.36187 0.07824 0.0
H375 H 0.87321 0.56152 0.04654 0.0
H376 H 0.75594 0.43136 0.08226 0.0
H377 H 0.83235 0.55757 0.03039 0.0
O378 O 0.86743 0.3793 0.08212 0.0
H379 H 0.98069 0.45283 0.08579 0.0
H380 H 0.93556 0.31424 0.08057 0.0
H381 H 0.97294 0.32392 0.09827 0.0
H382 H 0.99584 0.39358 0.10094 0.0
H383 H 0.94296 0.44198 0.06834 0.0
H384 H 0.97774 0.2783 0.04755 0.0
H385 H 0.95027 0.21352 0.04323 0.0
O386 O 0.88985 0.33585 0.07146 0.0
C387 C 0.85289 0.36359 0.04634 0.0
C388 C 0.91659 0.24427 0.04784 0.0
C389 C 0.95774 0.27908 0.04873 0.0
N390 N 0.92195 0.31768 0.05425 0.0
C391 C 0.90667 0.28226 0.05182 0.0
C392 C 0.94715 0.31652 0.05268 0.0
C393 C 0.94232 0.24275 0.04631 0.0
C394 C 0.86563 0.50323 0.056 0.0
N395 N 0.84899 0.4699 0.05625 0.0
C396 C 0.85992 0.53526 0.04671 0.0
C397 C 0.83701 0.53299 0.03765 0.0
C398 C 0.82015 0.49888 0.03796 0.0
C399 C 0.8265 0.46742 0.04737 0.0
C400 C 0.78859 0.46801 0.07885 0.0
C401 C 0.81062 0.39063 0.07433 0.0
C402 C 0.81313 0.46607 0.07565 0.0
N403 N 0.82379 0.42771 0.07337 0.0
C404 C 0.78603 0.39134 0.07751 0.0
C405 C 0.77498 0.43034 0.07978 0.0
C406 C 0.87751 0.34313 0.08052 0.0
C407 C 0.97091 0.4223 0.08471 0.0
C408 C 0.94526 0.34477 0.08173 0.0
C409 C 0.9665 0.35 0.09174 0.0
C410 C 0.97937 0.38907 0.09322 0.0
N411 N 0.93707 0.37753 0.07342 0.0
C412 C 0.9496 0.4159 0.07481 0.0
Co413 Co 0.89996 0.42441 0.68128 0.0
Co414 Co 0.84807 0.36968 0.68883 0.0
O415 O 0.86472 0.42261 0.68485 0.0
C416 C 0.86876 0.47518 0.65989 0.0
O417 O 0.84974 0.44764 0.65913 0.0
C418 C 0.84024 0.42618 0.71044 0.0
O419 O 0.865 0.43569 0.71256 0.0
O420 O 0.87817 0.35551 0.70277 0.0
O421 O 0.91166 0.37969 0.69448 0.0
H422 H 0.84472 0.21299 0.6984 0.0
H423 H 0.87445 0.50415 0.68736 0.0
O424 O 0.88965 0.46992 0.66804 0.0
H425 H 0.95332 0.49182 0.72075 0.0
H426 H 0.97952 0.49762 0.67178 0.0
H427 H 0.93923 0.35922 0.67822 0.0
H428 H 0.94323 0.4377 0.70365 0.0
H429 H 0.93544 0.49453 0.67655 0.0
O430 O 0.83083 0.40066 0.70143 0.0
H431 H 0.86517 0.27988 0.69318 0.0
H432 H 0.79525 0.34756 0.69331 0.0
H433 H 0.98342 0.36087 0.67356 0.0
H434 H 0.88392 0.55923 0.70423 0.0
H435 H 1.00386 0.43045 0.6703 0.0
H436 H 0.92358 0.5532 0.7211 0.0
O437 O 0.89152 0.37928 0.66783 0.0
H438 H 0.77944 0.46601 0.66454 0.0
H439 H 0.81701 0.32152 0.66684 0.0
H440 H 0.78048 0.33914 0.64937 0.0
H441 H 0.76138 0.41185 0.64816 0.0
H442 H 0.81626 0.44714 0.68173 0.0
H443 H 0.77411 0.28147 0.69865 0.0
H444 H 0.79887 0.21352 0.70118 0.0
O445 O 0.86437 0.33721 0.67621 0.0
C446 C 0.9024 0.35816 0.70277 0.0
C447 C 0.83371 0.24237 0.69729 0.0
C448 C 0.7941 0.28082 0.69745 0.0
N449 N 0.83139 0.31754 0.69287 0.0
C450 C 0.84517 0.28033 0.69431 0.0
C451 C 0.8062 0.31817 0.69446 0.0
C452 C 0.80799 0.2427 0.69886 0.0
C453 C 0.89186 0.50151 0.6946 0.0
N454 N 0.90832 0.46785 0.69448 0.0
C455 C 0.89707 0.53271 0.70416 0.0
C456 C 0.91931 0.52927 0.71363 0.0
C457 C 0.93599 0.49483 0.71345 0.0
C458 C 0.93014 0.46421 0.70375 0.0
C459 C 0.97083 0.4671 0.67319 0.0
C460 C 0.94802 0.38963 0.67686 0.0
C461 C 0.94584 0.46514 0.67586 0.0
N462 N 0.93479 0.42673 0.67771 0.0
C463 C 0.97303 0.39036 0.67421 0.0
C464 C 0.98448 0.42941 0.67237 0.0
C465 C 0.87908 0.34443 0.66814 0.0
C466 C 0.78758 0.43421 0.66496 0.0
C467 C 0.80902 0.35331 0.6663 0.0
C468 C 0.78822 0.36306 0.65642 0.0
C469 C 0.77748 0.40383 0.65576 0.0
N470 N 0.81887 0.38328 0.67526 0.0
C471 C 0.80837 0.42328 0.67471 0.0
Co472 Co 0.65139 0.08683 0.93157 0.0
Co473 Co 0.60247 0.1451 0.94054 0.0
O474 O 0.61657 0.09099 0.93562 0.0
C475 C 0.61762 0.03753 0.91057 0.0
O476 O 0.59843 0.06399 0.91087 0.0
C477 C 0.59226 0.08656 0.9612 0.0
O478 O 0.61658 0.07439 0.96307 0.0
O479 O 0.63314 0.15331 0.95459 0.0
O480 O 0.66507 0.1301 0.945 0.0
H481 H 0.60672 0.29987 0.95312 0.0
H482 H 0.62426 0.00868 0.93757 0.0
O483 O 0.63937 0.04275 0.91805 0.0
H484 H 0.70498 0.01372 0.96996 0.0
H485 H 0.7281 0.00918 0.92045 0.0
H486 H 0.69172 0.14967 0.92818 0.0
H487 H 0.69538 0.06939 0.95328 0.0
H488 H 0.68467 0.01475 0.92592 0.0
O489 O 0.58384 0.1142 0.95263 0.0
H490 H 0.62391 0.23177 0.94662 0.0
H491 H 0.55086 0.17256 0.94545 0.0
H492 H 0.7353 0.14551 0.92284 0.0
H493 H 0.6332 0.9521 0.95401 0.0
H494 H 0.75377 0.07487 0.91893 0.0
H495 H 0.67379 0.95447 0.97038 0.0
O496 O 0.64321 0.13302 0.91846 0.0
H497 H 0.5282 0.06265 0.91501 0.0
H498 H 0.57483 0.19992 0.9192 0.0
H499 H 0.53732 0.18999 0.90159 0.0
H500 H 0.51366 0.121 0.89943 0.0
H501 H 0.56609 0.07369 0.93236 0.0
H502 H 0.53293 0.23995 0.95202 0.0
H503 H 0.56091 0.30426 0.95585 0.0
O504 O 0.6203 0.17772 0.9285 0.0
C505 C 0.65707 0.15 0.95401 0.0
C506 C 0.59432 0.2721 0.95144 0.0
C507 C 0.55291 0.23845 0.95084 0.0
N508 N 0.58837 0.1983 0.94557 0.0
C509 C 0.60392 0.23347 0.94773 0.0
C510 C 0.56319 0.20036 0.94715 0.0
C511 C 0.56862 0.27453 0.95299 0.0
C512 C 0.64207 0.00971 0.94458 0.0
N513 N 0.65933 0.04218 0.94442 0.0
C514 C 0.64698 0.97768 0.9539 0.0
C515 C 0.66974 0.97906 0.9631 0.0
C516 C 0.68724 0.01231 0.96288 0.0
C517 C 0.68166 0.04381 0.95342 0.0
C518 C 0.72028 0.04014 0.92215 0.0
C519 C 0.69966 0.11879 0.92656 0.0
C520 C 0.69567 0.04351 0.92522 0.0
N521 N 0.68572 0.0825 0.92745 0.0
C522 C 0.72434 0.11665 0.92351 0.0
C523 C 0.73468 0.07701 0.9213 0.0
C524 C 0.63321 0.16952 0.91972 0.0
C525 C 0.53832 0.09289 0.91586 0.0
C526 C 0.56481 0.16966 0.91826 0.0
C527 C 0.54349 0.1643 0.9083 0.0
C528 C 0.5302 0.12561 0.90711 0.0
N529 N 0.57268 0.13739 0.9268 0.0
C530 C 0.55971 0.0994 0.92571 0.0
Co531 Co 0.6042 0.07973 0.31989 0.0
Co532 Co 0.65248 0.13792 0.31069 0.0
O533 O 0.63895 0.08374 0.31585 0.0
C534 C 0.63727 0.0304 0.34118 0.0
O535 O 0.65551 0.05942 0.34205 0.0
C536 C 0.66407 0.07828 0.29068 0.0
O537 O 0.63985 0.0656 0.28879 0.0
O538 O 0.62211 0.14392 0.29639 0.0
O539 O 0.59048 0.1238 0.30662 0.0
H540 H 0.64646 0.2914 0.29668 0.0
H541 H 0.63085 1.00167 0.31346 0.0
O542 O 0.61623 0.03466 0.33308 0.0
H543 H 0.54979 0.00871 0.28134 0.0
H544 H 0.52719 1.00233 0.33079 0.0
H545 H 0.56431 0.14282 0.3237 0.0
H546 H 0.55983 0.06353 0.29823 0.0
H547 H 0.57055 0.00773 0.32523 0.0
O548 O 0.67209 0.10665 0.29909 0.0
H549 H 0.62993 0.22336 0.3036 0.0
H550 H 0.70406 0.16664 0.30609 0.0
H551 H 0.52078 0.13885 0.32912 0.0
H552 H 0.62145 0.94588 0.29681 0.0
H553 H 0.50195 0.06822 0.33271 0.0
H554 H 0.5807 0.94927 0.28057 0.0
O555 O 0.61295 0.12531 0.33317 0.0
H556 H 0.72653 0.05947 0.33785 0.0
H557 H 0.67863 0.19546 0.33165 0.0
H558 H 0.7155 0.18802 0.34974 0.0
H559 H 0.73979 0.11967 0.35291 0.0
H560 H 0.68931 0.0681 0.31998 0.0
H561 H 0.72135 0.23398 0.2991 0.0
H562 H 0.69249 0.29703 0.29439 0.0
O563 O 0.63351 0.17097 0.32221 0.0
C564 C 0.59826 0.14184 0.29723 0.0
C565 C 0.65925 0.2642 0.29875 0.0
C566 C 0.70127 0.23196 0.30009 0.0
N567 N 0.66606 0.19116 0.30536 0.0
C568 C 0.65002 0.22562 0.30271 0.0
C569 C 0.69136 0.19388 0.30402 0.0
C570 C 0.68507 0.26732 0.29745 0.0
C571 C 0.61297 1.00315 0.3065 0.0
N572 N 0.59588 0.03575 0.30686 0.0
C573 C 0.6078 0.97156 0.29706 0.0
C574 C 0.58495 0.97351 0.28794 0.0
C575 C 0.56761 0.00687 0.28836 0.0
C576 C 0.57344 0.03791 0.29793 0.0
C577 C 0.53518 0.0333 0.32924 0.0
C578 C 0.55622 0.11195 0.3252 0.0
C579 C 0.55977 0.03656 0.32614 0.0
N580 N 0.56994 0.07555 0.3241 0.0
C581 C 0.53157 0.10991 0.32829 0.0
C582 C 0.52103 0.07027 0.33031 0.0
C583 C 0.6216 0.1624 0.33134 0.0
C584 C 0.71615 0.08945 0.33655 0.0
C585 C 0.68898 0.16552 0.33301 0.0
C586 C 0.70991 0.16155 0.34325 0.0
C587 C 0.72355 0.12321 0.34501 0.0
N588 N 0.68186 0.13226 0.32475 0.0
C589 C 0.69513 0.09458 0.32642 0.0
Co590 Co 0.35845 0.92161 0.06961 0.0
Co591 Co 0.40825 0.86548 0.06037 0.0
O592 O 0.39322 0.91861 0.06542 0.0
C593 C 0.39225 0.96879 0.09102 0.0
O594 O 0.41142 0.94257 0.09041 0.0
C595 C 0.41614 0.92455 0.03928 0.0
O596 O 0.39168 0.93583 0.03764 0.0
O597 O 0.37714 0.85493 0.04668 0.0
O598 O 0.34493 0.87975 0.05581 0.0
H599 H 0.40709 0.71028 0.04843 0.0
H600 H 0.38539 1.00087 0.06436 0.0
O601 O 0.37045 0.96426 0.08355 0.0
H602 H 0.30466 0.99802 0.03193 0.0
H603 H 0.28173 0.9968 0.0816 0.0
H604 H 0.31814 0.85785 0.0723 0.0
H605 H 0.31441 0.94071 0.04808 0.0
H606 H 0.32514 0.99247 0.07606 0.0
O607 O 0.42528 0.8973 0.04786 0.0
H608 H 0.38878 0.77736 0.05498 0.0
H609 H 0.45986 0.84131 0.05467 0.0
H610 H 0.27457 0.86077 0.0777 0.0
H611 H 0.3763 0.05906 0.04845 0.0
H612 H 0.25609 0.93064 0.0824 0.0
H613 H 0.33571 0.0578 0.03207 0.0
O614 O 0.36659 0.87405 0.08228 0.0
H615 H 0.48091 0.9542 0.08467 0.0
H616 H 0.43922 0.81279 0.08134 0.0
H617 H 0.47727 0.82587 0.09841 0.0
H618 H 0.49846 0.897 0.10013 0.0
H619 H 0.4425 0.93992 0.0679 0.0
H620 H 0.47886 0.77503 0.048 0.0
H621 H 0.45245 0.70884 0.04489 0.0
O622 O 0.39217 0.832 0.07289 0.0
C623 C 0.35314 0.85901 0.04704 0.0
C624 C 0.41882 0.73888 0.04979 0.0
C625 C 0.45908 0.77524 0.04953 0.0
N626 N 0.42327 0.81316 0.05528 0.0
C627 C 0.40857 0.77694 0.05353 0.0
C628 C 0.44819 0.81271 0.05327 0.0
C629 C 0.44426 0.73811 0.04779 0.0
C630 C 0.36758 1.0003 0.05734 0.0
N631 N 0.35039 0.96754 0.0572 0.0
C632 C 0.36258 0.03325 0.04832 0.0
C633 C 0.33982 0.03249 0.03912 0.0
C634 C 0.3224 0.99895 0.03903 0.0
C635 C 0.32806 0.96653 0.04819 0.0
C636 C 0.28956 0.96618 0.07956 0.0
C637 C 0.31019 0.8884 0.07427 0.0
C638 C 0.31416 0.96351 0.07644 0.0
N639 N 0.32412 0.92496 0.07379 0.0
C640 C 0.28553 0.88984 0.07735 0.0
C641 C 0.27518 0.92904 0.08 0.0
C642 C 0.37823 0.83877 0.08133 0.0
C643 C 0.47186 0.92307 0.08402 0.0
C644 C 0.44808 0.84395 0.08213 0.0
C645 C 0.46975 0.85111 0.09176 0.0
C646 C 0.48167 0.89099 0.09271 0.0
N647 N 0.43851 0.8756 0.07368 0.0
C648 C 0.45017 0.91473 0.07451 0.0
Co649 Co 0.40276 0.92571 0.6811 0.0
Co650 Co 0.35413 0.86895 0.6909 0.0
O651 O 0.36811 0.92251 0.68546 0.0
C652 C 0.36872 0.97743 0.66052 0.0
O653 O 0.34841 0.95438 0.66156 0.0
C654 C 0.34444 0.92915 0.71133 0.0
O655 O 0.36866 0.94174 0.71293 0.0
O656 O 0.38513 0.86161 0.70481 0.0
O657 O 0.41667 0.88306 0.6947 0.0
H658 H 0.35888 0.71519 0.70459 0.0
H659 H 0.37619 1.00456 0.68703 0.0
O660 O 0.39077 0.9693 0.6674 0.0
H661 H 0.45795 1.00035 0.71871 0.0
H662 H 0.4794 1.00085 0.66898 0.0
H663 H 0.44244 0.86172 0.67769 0.0
H664 H 0.44754 0.94385 0.70236 0.0
H665 H 0.43626 0.99666 0.67484 0.0
O666 O 0.33597 0.90086 0.70297 0.0
H667 H 0.37572 0.78261 0.69741 0.0
H668 H 0.30286 0.84225 0.69648 0.0
H669 H 0.48573 0.86451 0.67196 0.0
H670 H 0.38594 0.06198 0.70313 0.0
H671 H 0.50449 0.93445 0.66756 0.0
H672 H 0.42705 0.06004 0.71914 0.0
O673 O 0.39387 0.87889 0.66826 0.0
H674 H 0.27908 0.94995 0.66546 0.0
H675 H 0.32566 0.81266 0.67018 0.0
H676 H 0.28753 0.82144 0.65285 0.0
H677 H 0.26388 0.89045 0.65044 0.0
H678 H 0.31762 0.94003 0.68252 0.0
H679 H 0.2853 0.77556 0.70375 0.0
H680 H 0.31335 0.71137 0.70781 0.0
O681 O 0.37142 0.83524 0.67888 0.0
C682 C 0.40897 0.86438 0.704 0.0
C683 C 0.34644 0.74291 0.70282 0.0
C684 C 0.30515 0.77681 0.70236 0.0
N685 N 0.34026 0.81626 0.69645 0.0
C686 C 0.35585 0.78115 0.69873 0.0
C687 C 0.31523 0.81452 0.69828 0.0
C688 C 0.3209 0.7408 0.70464 0.0
C689 C 0.39423 1.0037 0.69388 0.0
N690 N 0.41133 0.971 0.69369 0.0
C691 C 0.3996 0.03622 0.70301 0.0
C692 C 0.42265 0.03508 0.71201 0.0
C693 C 0.43998 1.00158 0.71177 0.0
C694 C 0.43395 0.9696 0.70251 0.0
C695 C 0.47145 0.97018 0.6709 0.0
C696 C 0.45051 0.8923 0.67585 0.0
C697 C 0.447 0.96759 0.67419 0.0
N698 N 0.43689 0.92899 0.67668 0.0
C699 C 0.47502 0.89367 0.67258 0.0
C700 C 0.48552 0.93292 0.6701 0.0
C701 C 0.38378 0.84268 0.66983 0.0
C702 C 0.28921 0.91972 0.66642 0.0
C703 C 0.31569 0.84295 0.66911 0.0
C704 C 0.294 0.84765 0.65932 0.0
C705 C 0.28072 0.88635 0.65798 0.0
N706 N 0.32395 0.87586 0.67733 0.0
C707 C 0.31098 0.91385 0.6761 0.0
Co708 Co 0.65245 0.57768 0.43314 0.0
Co709 Co 0.60264 0.64227 0.43882 0.0
O710 O 0.61713 0.58654 0.43591 0.0
C711 C 0.62164 0.53383 0.41031 0.0
O712 O 0.60881 0.56941 0.40715 0.0
C713 C 0.5934 0.59116 0.4612 0.0
O714 O 0.61773 0.57909 0.46308 0.0
O715 O 0.63333 0.65647 0.45245 0.0
O716 O 0.66613 0.62187 0.44612 0.0
H717 H 0.60524 0.80118 0.44507 0.0
H718 H 0.62128 0.50412 0.43916 0.0
O719 O 0.63958 0.5323 0.42022 0.0
H720 H 0.6985 0.50681 0.47379 0.0
H721 H 0.72738 0.48769 0.42544 0.0
H722 H 0.69664 0.63402 0.43076 0.0
H723 H 0.69318 0.55979 0.45626 0.0
H724 H 0.68317 0.50036 0.42927 0.0
O725 O 0.58456 0.61668 0.45207 0.0
H726 H 0.62296 0.73062 0.44108 0.0
H727 H 0.55108 0.67207 0.44325 0.0
H728 H 0.74104 0.6228 0.42704 0.0
H729 H 0.62593 0.4503 0.45644 0.0
H730 H 0.75668 0.54918 0.42435 0.0
H731 H 0.66473 0.45151 0.47394 0.0
O732 O 0.64811 0.62241 0.41941 0.0
H733 H 0.53187 0.5472 0.41581 0.0
H734 H 0.57208 0.68946 0.41654 0.0
H735 H 0.53506 0.67179 0.39931 0.0
H736 H 0.51467 0.60019 0.39889 0.0
H737 H 0.5691 0.56613 0.43278 0.0
H738 H 0.53266 0.74191 0.44738 0.0
H739 H 0.55977 0.80712 0.44826 0.0
O740 O 0.61976 0.66869 0.4254 0.0
C741 C 0.65741 0.64833 0.45338 0.0
C742 C 0.59321 0.77302 0.44467 0.0
C743 C 0.55248 0.73974 0.44599 0.0
N744 N 0.58803 0.69733 0.44184 0.0
C745 C 0.60311 0.73301 0.44238 0.0
C746 C 0.56305 0.70026 0.44369 0.0
C747 C 0.5677 0.77632 0.44647 0.0
C748 C 0.63834 0.50461 0.44667 0.0
N749 N 0.65699 0.53496 0.44666 0.0
C750 C 0.64082 0.47416 0.45646 0.0
C751 C 0.66257 0.4749 0.46629 0.0
C752 C 0.68151 0.50593 0.46621 0.0
C753 C 0.67837 0.53592 0.45627 0.0
C754 C 0.72079 0.51992 0.4266 0.0
C755 C 0.70332 0.6019 0.42963 0.0
C756 C 0.69575 0.5273 0.42873 0.0
N757 N 0.68735 0.56791 0.43027 0.0
C758 C 0.72847 0.59574 0.42751 0.0
C759 C 0.73723 0.55443 0.42599 0.0
C760 C 0.63571 0.65771 0.41826 0.0
C761 C 0.5406 0.57848 0.41588 0.0
C762 C 0.56347 0.65813 0.41634 0.0
C763 C 0.54243 0.64837 0.4066 0.0
C764 C 0.53098 0.60821 0.40638 0.0
N765 N 0.57286 0.62878 0.42559 0.0
C766 C 0.56167 0.5894 0.42547 0.0
Co767 Co 0.60732 0.58725 0.81891 0.0
Co768 Co 0.65861 0.6438 0.81154 0.0
O769 O 0.64234 0.59037 0.81523 0.0
C770 C 0.63861 0.53866 0.8406 0.0
O771 O 0.6549 0.57077 0.84268 0.0
C772 C 0.66634 0.5891 0.78952 0.0
O773 O 0.6416 0.57938 0.78741 0.0
O774 O 0.6282 0.65833 0.7978 0.0
O775 O 0.59498 0.63267 0.80605 0.0
H776 H 0.66108 0.80128 0.803 0.0
H777 H 0.63338 0.50881 0.81218 0.0
O778 O 0.61865 0.54087 0.83172 0.0
H779 H 0.55393 0.52151 0.77917 0.0
H780 H 0.52904 0.51015 0.82841 0.0
H781 H 0.56737 0.65061 0.82249 0.0
H782 H 0.56386 0.57447 0.79662 0.0
H783 H 0.57293 0.51541 0.8235 0.0
O784 O 0.67577 0.61409 0.79868 0.0
H785 H 0.64106 0.73356 0.80787 0.0
H786 H 0.71112 0.66731 0.80691 0.0
H787 H 0.52334 0.64679 0.82731 0.0
H788 H 0.62408 0.45491 0.79496 0.0
H789 H 0.50389 0.57616 0.8303 0.0
H790 H 0.58414 0.46114 0.77828 0.0
O791 O 0.61547 0.63177 0.83262 0.0
H792 H 0.72676 0.54587 0.83543 0.0
H793 H 0.6905 0.69123 0.83346 0.0
H794 H 0.72702 0.6726 0.85083 0.0
H795 H 0.74544 0.59943 0.85188 0.0
H796 H 0.69002 0.56581 0.81833 0.0
H797 H 0.73182 0.73422 0.8019 0.0
H798 H 0.70678 0.80188 0.79998 0.0
O799 O 0.64245 0.6749 0.82447 0.0
C800 C 0.604 0.65497 0.79783 0.0
C801 C 0.67221 0.77203 0.80385 0.0
C802 C 0.7119 0.73438 0.80321 0.0
N803 N 0.67495 0.69657 0.80775 0.0
C804 C 0.661 0.73361 0.80664 0.0
C805 C 0.70005 0.69656 0.80601 0.0
C806 C 0.69784 0.77233 0.80214 0.0
C807 C 0.61585 0.51154 0.80503 0.0
N808 N 0.59913 0.54466 0.80545 0.0
C809 C 0.61073 0.481 0.79527 0.0
C810 C 0.58833 0.48455 0.7859 0.0
C811 C 0.57139 0.51843 0.78639 0.0
C812 C 0.57715 0.54839 0.79628 0.0
C813 C 0.53729 0.54111 0.82712 0.0
C814 C 0.55901 0.61975 0.82374 0.0
C815 C 0.56218 0.5443 0.82437 0.0
N816 N 0.57267 0.58329 0.82266 0.0
C817 C 0.53408 0.61779 0.82648 0.0
C818 C 0.52319 0.57816 0.82817 0.0
C819 C 0.62784 0.66682 0.83253 0.0
C820 C 0.7189 0.57786 0.83509 0.0
C821 C 0.69821 0.65927 0.83393 0.0
C822 C 0.719 0.64894 0.84374 0.0
C823 C 0.72935 0.6079 0.84432 0.0
N824 N 0.68802 0.62963 0.82493 0.0
C825 C 0.69814 0.58937 0.8254 0.0
Co826 Co 0.35744 0.42389 0.56696 0.0
Co827 Co 0.4095 0.3676 0.56038 0.0
O828 O 0.39267 0.42117 0.56353 0.0
C829 C 0.38743 0.47594 0.58831 0.0
O830 O 0.40458 0.44514 0.59077 0.0
C831 C 0.41738 0.42161 0.53825 0.0
O832 O 0.39266 0.43141 0.53617 0.0
O833 O 0.37954 0.35153 0.54658 0.0
O834 O 0.34592 0.37682 0.55456 0.0
H835 H 0.4134 0.20959 0.55301 0.0
H836 H 0.38261 0.50231 0.55959 0.0
O837 O 0.36778 0.47184 0.57932 0.0
H838 H 0.30395 0.48416 0.52636 0.0
H839 H 0.27769 0.49966 0.57518 0.0
H840 H 0.31834 0.35981 0.57112 0.0
H841 H 0.31424 0.4332 0.54435 0.0
H842 H 0.32179 0.49517 0.57048 0.0
O843 O 0.4268 0.3966 0.54741 0.0
H844 H 0.3927 0.27733 0.55728 0.0
H845 H 0.46245 0.3445 0.55631 0.0
H846 H 0.27413 0.36284 0.57573 0.0
H847 H 0.37293 0.55427 0.54182 0.0
H848 H 0.25352 0.43316 0.57779 0.0
H849 H 0.33339 0.54529 0.52503 0.0
O850 O 0.36599 0.38118 0.58114 0.0
H851 H 0.4766 0.46798 0.58388 0.0
H852 H 0.44099 0.32233 0.58287 0.0
H853 H 0.47701 0.34263 0.60028 0.0
H854 H 0.49511 0.41595 0.60085 0.0
H855 H 0.44035 0.44639 0.56673 0.0
H856 H 0.48383 0.27756 0.55191 0.0
H857 H 0.45929 0.20944 0.55028 0.0
O858 O 0.39317 0.33721 0.57344 0.0
C859 C 0.35529 0.35413 0.54655 0.0
C860 C 0.42432 0.23905 0.55373 0.0
C861 C 0.46383 0.2772 0.55309 0.0
N862 N 0.42639 0.31478 0.55712 0.0
C863 C 0.41272 0.27748 0.55618 0.0
C864 C 0.4516 0.31503 0.55555 0.0
C865 C 0.45006 0.23899 0.55219 0.0
C866 C 0.36525 0.4984 0.55238 0.0
N867 N 0.34897 0.46484 0.55304 0.0
C868 C 0.35992 0.52783 0.54232 0.0
C869 C 0.33775 0.52274 0.53289 0.0
C870 C 0.32124 0.48843 0.53362 0.0
C871 C 0.3272 0.4596 0.54382 0.0
C872 C 0.28646 0.46883 0.5743 0.0
C873 C 0.30947 0.39054 0.57195 0.0
C874 C 0.31145 0.46609 0.57167 0.0
N875 N 0.3226 0.42726 0.57048 0.0
C876 C 0.28444 0.39205 0.57458 0.0
C877 C 0.2729 0.43151 0.57575 0.0
C878 C 0.37848 0.34614 0.5814 0.0
C879 C 0.46889 0.43593 0.58374 0.0
C880 C 0.44857 0.35435 0.58312 0.0
C881 C 0.46908 0.36563 0.59297 0.0
C882 C 0.47924 0.40675 0.59327 0.0
N883 N 0.43848 0.38315 0.57382 0.0
C884 C 0.44841 0.42349 0.57404 0.0
Co885 Co 0.40172 0.42071 0.18151 0.0
Co886 Co 0.35057 0.36534 0.18973 0.0
O887 O 0.36661 0.41831 0.18528 0.0
C888 C 0.36921 0.46855 0.15991 0.0
O889 O 0.35029 0.44131 0.15996 0.0
C890 C 0.34282 0.42291 0.21115 0.0
O891 O 0.36746 0.43318 0.21305 0.0
O892 O 0.38108 0.35262 0.20356 0.0
O893 O 0.41422 0.37773 0.19515 0.0
H894 H 0.34897 0.20925 0.20036 0.0
H895 H 0.37525 0.50035 0.18686 0.0
O896 O 0.3906 0.46439 0.16776 0.0
H897 H 0.45469 0.49369 0.22007 0.0
H898 H 0.47992 0.49498 0.17081 0.0
H899 H 0.44176 0.3563 0.17897 0.0
H900 H 0.44507 0.4375 0.20357 0.0
H901 H 0.43604 0.49122 0.17582 0.0
O902 O 0.33348 0.39673 0.2023 0.0
H903 H 0.36859 0.27617 0.19455 0.0
H904 H 0.29822 0.34249 0.19472 0.0
H905 H 0.48577 0.35865 0.17409 0.0
H906 H 0.38423 0.55745 0.20312 0.0
H907 H 0.50514 0.42837 0.16997 0.0
H908 H 0.42418 0.55427 0.2199 0.0
O909 O 0.39372 0.37402 0.16854 0.0
H910 H 0.28018 0.45858 0.16546 0.0
H911 H 0.31956 0.31537 0.16813 0.0
H912 H 0.28235 0.33116 0.15083 0.0
H913 H 0.26234 0.40321 0.14944 0.0
H914 H 0.31771 0.44157 0.18247 0.0
H915 H 0.27791 0.27637 0.20064 0.0
H916 H 0.30331 0.20908 0.20345 0.0
O917 O 0.36674 0.33236 0.17716 0.0
C918 C 0.40526 0.35624 0.20356 0.0
C919 C 0.33768 0.23834 0.19913 0.0
C920 C 0.29782 0.27603 0.1993 0.0
N921 N 0.33453 0.31315 0.19422 0.0
C922 C 0.34867 0.27631 0.19581 0.0
C923 C 0.30945 0.3134 0.19599 0.0
C924 C 0.31207 0.23828 0.20087 0.0
C925 C 0.39279 0.49895 0.19406 0.0
N926 N 0.40968 0.46575 0.19421 0.0
C927 C 0.39772 0.53128 0.20327 0.0
C928 C 0.42011 0.52945 0.2127 0.0
C929 C 0.43724 0.49546 0.2128 0.0
C930 C 0.43165 0.46367 0.20345 0.0
C931 C 0.47171 0.46441 0.17261 0.0
C932 C 0.4501 0.38679 0.17725 0.0
C933 C 0.44684 0.46206 0.17542 0.0
N934 N 0.43639 0.42358 0.17775 0.0
C935 C 0.47501 0.3879 0.17446 0.0
C936 C 0.48585 0.42703 0.17214 0.0
C937 C 0.38141 0.33915 0.16905 0.0
C938 C 0.28872 0.42705 0.16596 0.0
C939 C 0.31118 0.3469 0.1675 0.0
C940 C 0.29 0.3556 0.15773 0.0
C941 C 0.27875 0.396 0.15697 0.0
N942 N 0.32091 0.37754 0.17627 0.0
C943 C 0.30991 0.41717 0.17561 0.0
C944 C 0.30992 0.33235 0.53719 0.0
C945 C 0.33658 0.32956 0.53701 0.0
C946 C 0.29189 0.30932 0.5285 0.0
C947 C 0.28157 0.25616 0.49703 0.0
H948 H 0.22338 0.20512 0.50918 0.0
C949 C 0.20408 0.15553 0.46398 0.0
C950 C 0.17805 0.16297 0.46484 0.0
C951 C 0.22422 0.17309 0.47297 0.0
C952 C 0.23938 0.2195 0.50561 0.0
H953 H 0.36503 0.30006 0.52739 0.0
H954 H 0.33325 0.25945 0.5121 0.0
H955 H 0.25763 0.23984 0.52442 0.0
H956 H 0.15294 0.19461 0.47599 0.0
H957 H 0.18815 0.22542 0.49166 0.0
H958 H 0.26313 0.23613 0.47818 0.0
C959 C 0.32648 0.27992 0.51902 0.0
C960 C 0.25905 0.23934 0.51435 0.0
C961 C 0.34468 0.30306 0.5278 0.0
C962 C 0.17272 0.18802 0.47505 0.0
C963 C 0.19292 0.20556 0.48407 0.0
C964 C 0.26188 0.23625 0.48828 0.0
C965 C 0.29988 0.28265 0.51934 0.0
C966 C 0.28019 0.25847 0.51015 0.0
C967 C 0.21891 0.19852 0.48308 0.0
C968 C 0.24039 0.21813 0.49245 0.0
H969 H 0.30278 0.35242 0.54408 0.0
H970 H 0.27156 0.31287 0.52887 0.0
H971 H 0.29743 0.27098 0.49346 0.0
H972 H 0.20902 0.13635 0.45628 0.0
H973 H 0.244 0.16655 0.47203 0.0
C974 C 0.92119 0.97288 0.52117 0.0
C975 C 0.92986 0.94094 0.5303 0.0
C976 C 0.93766 0.989 0.51332 0.0
C977 C 0.99747 0.96297 0.50107 0.0
H978 H 1.0006 0.08481 0.49532 0.0
C979 C 0.07821 0.04013 0.47832 0.0
C980 C 0.07096 0.07354 0.46952 0.0
C981 C 0.06059 0.02374 0.48549 0.0
C982 C 0.99977 0.05064 0.4967 0.0
H983 H 0.96272 0.90095 0.53829 0.0
H984 H 0.9912 0.92907 0.52476 0.0
H985 H 0.96999 0.05663 0.50789 0.0
H986 H 0.03934 0.11565 0.46129 0.0
H987 H 0.00874 0.08685 0.47364 0.0
H988 H 0.02727 0.95693 0.48992 0.0
C989 C 0.97164 0.94137 0.52351 0.0
C990 C 0.98217 0.03449 0.50389 0.0
C991 C 0.95528 0.92542 0.53135 0.0
C992 C 0.04569 0.09006 0.46803 0.0
C993 C 0.02812 0.0737 0.47518 0.0
C994 C 0.01503 0.97909 0.49387 0.0
C995 C 0.96309 0.97335 0.5144 0.0
C996 C 0.98092 0.99048 0.50624 0.0
C997 C 0.03532 0.04039 0.48402 0.0
C998 C 0.01651 0.02316 0.49163 0.0
H999 H 0.90174 0.98556 0.52012 0.0
H1000 H 0.93041 0.01342 0.50632 0.0
H1001 H 0.99673 0.92881 0.50252 0.0
H1002 H 0.09751 0.02668 0.47971 0.0
H1003 H 0.06689 0.99838 0.49232 0.0
C1004 C 0.3348 0.97776 0.72881 0.0
C1005 C 0.32655 0.94691 0.71928 0.0
C1006 C 0.31766 0.99355 0.73636 0.0
C1007 C 0.25632 0.96691 0.74706 0.0
H1008 H 0.25481 0.08751 0.75493 0.0
C1009 C 0.17619 0.04188 0.77086 0.0
C1010 C 0.18393 0.07337 0.78024 0.0
C1011 C 0.19362 0.0263 0.76345 0.0
C1012 C 0.25516 0.05365 0.75294 0.0
H1013 H 0.29361 0.90897 0.71013 0.0
H1014 H 0.26397 0.93658 0.72313 0.0
H1015 H 0.2856 0.06096 0.74222 0.0
H1016 H 0.21628 0.11273 0.78929 0.0
H1017 H 0.24651 0.08533 0.77655 0.0
H1018 H 0.22592 0.95954 0.75779 0.0
C1019 C 0.28373 0.94816 0.72495 0.0
C1020 C 0.27285 0.03843 0.74566 0.0
C1021 C 0.30077 0.93251 0.71742 0.0
C1022 C 0.20953 0.08867 0.7821 0.0
C1023 C 0.22689 0.07314 0.77472 0.0
C1024 C 0.23865 0.9821 0.75436 0.0
C1025 C 0.29194 0.97872 0.73456 0.0
C1026 C 0.2736 0.99489 0.74259 0.0
C1027 C 0.21918 0.04188 0.76526 0.0
C1028 C 0.23781 0.02568 0.75738 0.0
H1029 H 0.35451 0.98954 0.7305 0.0
H1030 H 0.32466 0.01686 0.74375 0.0
H1031 H 0.25664 0.93305 0.74505 0.0
H1032 H 0.15663 0.02942 0.76917 0.0
H1033 H 0.18694 1.00251 0.75616 0.0
C1034 C 0.08432 0.19189 0.77526 0.0
C1035 C 0.07849 0.1672 0.78543 0.0
C1036 C 0.06446 0.21034 0.76623 0.0
C1037 C 0.99577 0.24352 0.76185 0.0
H1038 H 1.00034 0.24622 0.72574 0.0
C1039 C 0.91316 0.30882 0.72195 0.0
C1040 C 0.92121 0.33479 0.7126 0.0
C1041 C 0.93141 0.28636 0.7309 0.0
C1042 C 0.99885 0.246 0.7358 0.0
H1043 H 0.047 0.14228 0.79395 0.0
H1044 H 0.01265 0.1739 0.77818 0.0
H1045 H 0.03428 0.21121 0.74109 0.0
H1046 H 0.95499 0.35761 0.70549 0.0
H1047 H 0.98631 0.31922 0.72101 0.0
H1048 H 0.96039 0.27865 0.75653 0.0
C1049 C 0.03254 0.17953 0.77727 0.0
C1050 C 0.01835 0.226 0.74461 0.0
C1051 C 0.05233 0.16112 0.78627 0.0
C1052 C 0.94788 0.33791 0.71248 0.0
C1053 C 0.96597 0.31555 0.72135 0.0
C1054 C 0.97624 0.26355 0.75302 0.0
C1055 C 0.03833 0.20455 0.76718 0.0
C1056 C 0.01719 0.22485 0.75776 0.0
C1057 C 0.95802 0.28927 0.73061 0.0
C1058 C 0.97771 0.26546 0.73992 0.0
H1059 H 0.10421 0.19745 0.77434 0.0
H1060 H 0.06961 0.22985 0.75865 0.0
H1061 H 0.99441 0.24362 0.77193 0.0
H1062 H 0.8928 0.30556 0.7223 0.0
H1063 H 0.92467 0.26619 0.73789 0.0
C1064 C 0.805 0.84843 0.53628 0.0
C1065 C 0.83154 0.83976 0.5371 0.0
C1066 C 0.78636 0.82794 0.5272 0.0
C1067 C 0.77699 0.76936 0.49647 0.0
H1068 H 0.71352 0.73164 0.50665 0.0
C1069 C 0.70328 0.66175 0.46419 0.0
C1070 C 0.67673 0.67063 0.46322 0.0
C1071 C 0.72184 0.68281 0.47317 0.0
C1072 C 0.73098 0.74245 0.50361 0.0
H1073 H 0.85915 0.80251 0.52888 0.0
H1074 H 0.8264 0.7663 0.51301 0.0
H1075 H 0.74702 0.76635 0.52235 0.0
H1076 H 0.64901 0.70885 0.47106 0.0
H1077 H 0.68164 0.74589 0.4868 0.0
H1078 H 0.76096 0.74529 0.47774 0.0
C1079 C 0.82016 0.78948 0.51937 0.0
C1080 C 0.75023 0.76229 0.51261 0.0
C1081 C 0.83893 0.8101 0.5285 0.0
C1082 C 0.66924 0.7011 0.47156 0.0
C1083 C 0.68793 0.72221 0.48061 0.0
C1084 C 0.75776 0.74947 0.48747 0.0
C1085 C 0.79363 0.79803 0.51868 0.0
C1086 C 0.77346 0.77604 0.50915 0.0
C1087 C 0.71446 0.71341 0.48145 0.0
C1088 C 0.73454 0.73571 0.49095 0.0
H1089 H 0.79843 0.87108 0.54269 0.0
H1090 H 0.76618 0.83588 0.52679 0.0
H1091 H 0.79444 0.78016 0.49342 0.0
H1092 H 0.70992 0.63846 0.45799 0.0
H1093 H 0.74204 0.67472 0.4737 0.0
C1094 C 0.67438 0.02944 0.27344 0.0
C1095 C 0.68236 0.06043 0.28296 0.0
C1096 C 0.69178 0.01345 0.26609 0.0
C1097 C 0.75353 0.03941 0.25575 0.0
H1098 H 0.75399 0.91893 0.24758 0.0
C1099 C 0.83158 0.9636 0.23061 0.0
C1100 C 0.82288 0.93306 0.22104 0.0
C1101 C 0.81492 0.97904 0.23845 0.0
C1102 C 0.75396 0.95275 0.24967 0.0
H1103 H 0.71508 0.09847 0.2923 0.0
H1104 H 0.74526 0.07041 0.2796 0.0
H1105 H 0.72368 0.94579 0.2605 0.0
H1106 H 0.78971 0.89511 0.21219 0.0
H1107 H 0.76086 0.92223 0.2257 0.0
H1108 H 0.78373 0.0464 0.24487 0.0
C1109 C 0.7255 0.05888 0.27766 0.0
C1110 C 0.73654 0.96815 0.25707 0.0
C1111 C 0.70817 0.07478 0.28501 0.0
C1112 C 0.79718 0.91844 0.2195 0.0
C1113 C 0.78062 0.9338 0.22732 0.0
C1114 C 0.77094 0.02402 0.24834 0.0
C1115 C 0.71753 0.02815 0.26807 0.0
C1116 C 0.73606 0.01169 0.26018 0.0
C1117 C 0.78924 0.96423 0.23691 0.0
C1118 C 0.77131 0.98051 0.24516 0.0
H1119 H 0.65465 0.01771 0.27161 0.0
H1120 H 0.68493 0.99008 0.25869 0.0
H1121 H 0.75345 0.07324 0.25782 0.0
H1122 H 0.85124 0.97555 0.23205 0.0
H1123 H 0.82227 1.00221 0.24583 0.0
C1124 C 0.91787 0.81015 0.22336 0.0
C1125 C 0.9244 0.83857 0.21419 0.0
C1126 C 0.93727 0.78977 0.23219 0.0
C1127 C 0.00732 0.79636 0.24671 0.0
H1128 H 0.99854 0.67739 0.25493 0.0
C1129 C 0.08967 0.69474 0.27665 0.0
C1130 C 0.0824 0.6692 0.2863 0.0
C1131 C 0.0708 0.71519 0.26752 0.0
C1132 C 1.00121 0.71071 0.25279 0.0
H1133 H 0.95665 0.86783 0.20724 0.0
H1134 H 0.9901 0.83201 0.22241 0.0
H1135 H 0.96448 0.71404 0.24005 0.0
H1136 H 0.04942 0.64534 0.29387 0.0
H1137 H 0.01694 0.68057 0.27804 0.0
H1138 H 0.04416 0.79282 0.25942 0.0
C1139 C 0.97007 0.82593 0.22295 0.0
C1140 C 0.98163 0.73178 0.24431 0.0
C1141 C 0.95076 0.84634 0.21417 0.0
C1142 C 0.05587 0.66442 0.28654 0.0
C1143 C 0.03713 0.68451 0.27741 0.0
C1144 C 0.02696 0.7752 0.25515 0.0
C1145 C 0.96362 0.79727 0.23205 0.0
C1146 C 0.98438 0.77493 0.24119 0.0
C1147 C 0.04431 0.71022 0.26781 0.0
C1148 C 0.02406 0.73221 0.25835 0.0
H1149 H 0.8978 0.80341 0.22367 0.0
H1150 H 0.9316 0.76829 0.23919 0.0
H1151 H 0.00996 0.82975 0.24467 0.0
H1152 H 0.10989 0.69927 0.2762 0.0
H1153 H 0.07692 0.73464 0.26018 0.0
C1154 C 0.34032 0.814 0.02707 0.0
C1155 C 0.33335 0.83849 0.03701 0.0
C1156 C 0.32124 0.79442 0.01785 0.0
C1157 C 0.25286 0.7586 0.01262 0.0
H1158 H 0.25778 0.76012 0.97656 0.0
C1159 C 0.16911 0.70147 0.97233 0.0
C1160 C 0.1763 0.67687 0.96246 0.0
C1161 C 0.18801 0.72191 0.98144 0.0
C1162 C 0.25623 0.75907 0.98661 0.0
H1163 H 0.30063 0.86163 0.04493 0.0
H1164 H 0.2678 0.82815 0.02892 0.0
H1165 H 0.29184 0.79311 0.99237 0.0
H1166 H 0.20921 0.65465 0.95452 0.0
H1167 H 0.24172 0.68954 0.97036 0.0
H1168 H 0.21728 0.72447 0.00688 0.0
C1169 C 0.28794 0.82349 0.02831 0.0
C1170 C 0.2758 0.7779 0.99567 0.0
C1171 C 0.30689 0.843 0.03746 0.0
C1172 C 0.20279 0.67331 0.96194 0.0
C1173 C 0.22155 0.69365 0.97099 0.0
C1174 C 0.2333 0.73974 0.00357 0.0
C1175 C 0.29482 0.7988 0.01842 0.0
C1176 C 0.27435 0.77792 0.00879 0.0
C1177 C 0.21446 0.71829 0.98084 0.0
C1178 C 0.23477 0.73965 0.99045 0.0
H1179 H 0.36048 0.80971 0.02644 0.0
H1180 H 0.32718 0.77529 0.0104 0.0
H1181 H 0.25132 0.75752 0.02268 0.0
H1182 H 0.14892 0.70505 0.973 0.0
H1183 H 0.18189 0.74099 0.98885 0.0
C1184 C 0.08482 0.54524 0.97937 0.0
C1185 C 0.07584 0.57309 0.96908 0.0
C1186 C 0.06791 0.52997 0.98712 0.0
C1187 C 0.00486 0.55382 0.99651 0.0
H1188 H 0.00793 0.43556 0.00739 0.0
C1189 C 0.9265 0.4767 0.0212 0.0
C1190 C 0.93518 0.44822 0.03136 0.0
C1191 C 0.94369 0.49251 0.01368 0.0
C1192 C 0.00698 0.46881 0.00456 0.0
H1193 H 0.04185 0.60619 0.95879 0.0
H1194 H 0.0126 0.57939 0.97214 0.0
H1195 H 0.03826 0.4617 0.99437 0.0
H1196 H 0.96895 0.41476 0.04172 0.0
H1197 H 0.9987 0.44255 0.02879 0.0
H1198 H 0.97357 0.56092 0.00669 0.0
C1199 C 0.03274 0.56984 0.9744 0.0
C1200 C 0.02442 0.4838 0.9971 0.0
C1201 C 0.04956 0.58502 0.96668 0.0
C1202 C 0.96147 0.43638 0.03392 0.0
C1203 C 0.97857 0.45213 0.02644 0.0
C1204 C 0.98743 0.53883 0.00398 0.0
C1205 C 0.04168 0.54227 0.98475 0.0
C1206 C 0.02354 0.52647 0.99295 0.0
C1207 C 0.96992 0.48016 0.01617 0.0
C1208 C 0.98826 0.49613 0.0081 0.0
H1209 H 0.10492 0.53543 0.9815 0.0
H1210 H 0.07548 0.50903 0.99508 0.0
H1211 H 1.00389 0.58705 0.99366 0.0
H1212 H 0.90639 0.48644 0.01895 0.0
H1213 H 0.93632 0.51379 0.00578 0.0
C1214 C 0.33458 0.46875 0.22954 0.0
C1215 C 0.32535 0.44098 0.21928 0.0
C1216 C 0.31775 0.4848 0.23722 0.0
C1217 C 0.24789 0.50218 0.2373 0.0
H1218 H 0.27006 0.50745 0.27433 0.0
C1219 C 0.17636 0.53747 0.27141 0.0
C1220 C 0.18498 0.56556 0.28167 0.0
C1221 C 0.1936 0.52197 0.2639 0.0
C1222 C 0.26363 0.50657 0.26399 0.0
H1223 H 0.29109 0.40855 0.20902 0.0
H1224 H 0.26213 0.43599 0.22239 0.0
H1225 H 0.30021 0.48273 0.26099 0.0
H1226 H 0.21866 0.59891 0.29216 0.0
H1227 H 0.24844 0.57224 0.27905 0.0
H1228 H 0.21131 0.52591 0.24029 0.0
C1229 C 0.28221 0.44591 0.22445 0.0
C1230 C 0.28096 0.49249 0.25634 0.0
C1231 C 0.29895 0.4299 0.21683 0.0
C1232 C 0.21128 0.57733 0.28433 0.0
C1233 C 0.22846 0.5618 0.27686 0.0
C1234 C 0.23057 0.51621 0.24495 0.0
C1235 C 0.29134 0.47354 0.23475 0.0
C1236 C 0.27328 0.48997 0.2429 0.0
C1237 C 0.21986 0.53409 0.26651 0.0
C1238 C 0.2382 0.51851 0.25839 0.0
H1239 H 0.35477 0.47801 0.23168 0.0
H1240 H 0.32536 0.50637 0.24501 0.0
H1241 H 0.24144 0.5013 0.22696 0.0
H1242 H 0.15627 0.52766 0.26913 0.0
H1243 H 0.1864 0.50025 0.25608 0.0
C1244 C 0.7033 0.16729 0.9633 0.0
C1245 C 0.67687 0.17108 0.9639 0.0
C1246 C 0.72218 0.18784 0.97226 0.0
C1247 C 0.73166 0.27724 0.99529 0.0
H1248 H 0.79667 0.22003 0.00851 0.0
C1249 C 0.80679 0.34541 0.03708 0.0
C1250 C 0.83322 0.34248 0.03639 0.0
C1251 C 0.78801 0.325 0.02804 0.0
C1252 C 0.77877 0.23665 0.00478 0.0
H1253 H 0.64971 0.19955 0.97452 0.0
H1254 H 0.68287 0.23522 0.9903 0.0
H1255 H 0.76292 0.18267 0.99364 0.0
H1256 H 0.86048 0.31554 0.02555 0.0
H1257 H 0.82747 0.27987 0.00967 0.0
H1258 H 0.7475 0.33116 0.00647 0.0
C1259 C 0.68885 0.21654 0.98276 0.0
C1260 C 0.75938 0.21521 0.99627 0.0
C1261 C 0.66985 0.19587 0.97377 0.0
C1262 C 0.84034 0.31858 0.02637 0.0
C1263 C 0.82144 0.29793 0.01731 0.0
C1264 C 0.75104 0.29865 0.0038 0.0
C1265 C 0.71525 0.2128 0.98208 0.0
C1266 C 0.73558 0.23525 0.99141 0.0
C1267 C 0.79505 0.30093 0.01807 0.0
C1268 C 0.77481 0.27859 0.00867 0.0
H1269 H 0.70955 0.14872 0.95582 0.0
H1270 H 0.74224 0.1848 0.9713 0.0
H1271 H 0.71378 0.2939 0.99156 0.0
H1272 H 0.80047 0.36323 0.04469 0.0
H1273 H 0.76794 0.32742 0.02904 0.0
C1274 C 0.67448 0.54471 0.77082 0.0
C1275 C 0.6838 0.57155 0.78131 0.0
C1276 C 0.69131 0.52891 0.76311 0.0
C1277 C 0.76101 0.5098 0.76319 0.0
H1278 H 0.73919 0.50712 0.72612 0.0
C1279 C 0.83208 0.47146 0.72896 0.0
C1280 C 0.82273 0.44443 0.71852 0.0
C1281 C 0.81524 0.48768 0.73659 0.0
C1282 C 0.74552 0.50727 0.73647 0.0
H1283 H 0.71822 0.60266 0.79191 0.0
H1284 H 0.74722 0.57561 0.77848 0.0
H1285 H 0.70928 0.53245 0.73949 0.0
H1286 H 0.78824 0.41358 0.7079 0.0
H1287 H 0.75922 0.44136 0.7212 0.0
H1288 H 0.79725 0.48459 0.76018 0.0
C1289 C 0.72704 0.56625 0.77627 0.0
C1290 C 0.72833 0.52172 0.74413 0.0
C1291 C 0.7103 0.58202 0.78393 0.0
C1292 C 0.79619 0.43432 0.71585 0.0
C1293 C 0.77943 0.45052 0.72344 0.0
C1294 C 0.7782 0.49535 0.75553 0.0
C1295 C 0.71781 0.53951 0.76576 0.0
C1296 C 0.73586 0.5232 0.75759 0.0
C1297 C 0.7887 0.47734 0.73392 0.0
C1298 C 0.77067 0.49385 0.74207 0.0
H1299 H 0.65421 0.53593 0.76855 0.0
H1300 H 0.68361 0.50802 0.75516 0.0
H1301 H 0.76734 0.50993 0.77354 0.0
H1302 H 0.85238 0.47998 0.73126 0.0
H1303 H 0.82296 0.50864 0.74452 0.0
C1304 C 0.54807 0.08167 0.96669 0.0
C1305 C 0.57421 0.06894 0.9691 0.0
C1306 C 0.5309 0.06611 0.97417 0.0
C1307 C 0.52879 0.01784 0.00576 0.0
H1308 H 0.4586 0.9876 0.9897 0.0
C1309 C 0.4599 0.9308 0.03344 0.0
C1310 C 0.43364 0.94282 0.0312 0.0
C1311 C 0.47668 0.94704 0.02587 0.0
C1312 C 0.47802 0.99645 0.99436 0.0
H1313 H 0.60266 0.02937 0.98123 0.0
H1314 H 0.57255 1.00189 0.99428 0.0
H1315 H 0.48879 0.01271 0.97643 0.0
H1316 H 0.40455 0.98174 0.01925 0.0
H1317 H 0.43404 0.01049 0.00602 0.0
H1318 H 0.51805 1.0016 0.02367 0.0
C1319 C 0.56547 0.02438 0.98666 0.0
C1320 C 0.49537 0.01075 0.98675 0.0
C1321 C 0.5827 0.03994 0.97914 0.0
C1322 C 0.42462 0.97175 0.02121 0.0
C1323 C 0.4415 0.98803 0.01359 0.0
C1324 C 0.51145 1.00357 0.01336 0.0
C1325 C 0.53936 0.03737 0.98427 0.0
C1326 C 0.52099 0.02155 0.99235 0.0
C1327 C 0.46775 0.97584 0.01584 0.0
C1328 C 0.48587 0.99253 0.00776 0.0
H1329 H 0.5408 0.10398 0.95904 0.0
H1330 H 0.51106 0.07725 0.97216 0.0
H1331 H 0.54822 0.02662 0.01042 0.0
H1332 H 0.46761 0.90856 0.04103 0.0
H1333 H 0.49663 0.93641 0.02776 0.0
C1334 C 0.45097 0.33746 0.21339 0.0
C1335 C 0.42433 0.33396 0.21353 0.0
C1336 C 0.46923 0.31591 0.22241 0.0
C1337 C 0.47953 0.26593 0.25439 0.0
H1338 H 0.53717 0.2109 0.24285 0.0
C1339 C 0.55204 0.15926 0.28793 0.0
C1340 C 0.57846 0.16258 0.28726 0.0
C1341 C 0.53318 0.17943 0.27886 0.0
C1342 C 0.52139 0.22653 0.24626 0.0
H1343 H 0.39613 0.30499 0.22342 0.0
H1344 H 0.42824 0.26715 0.23926 0.0
H1345 H 0.50393 0.24678 0.22729 0.0
H1346 H 0.60563 0.18994 0.27645 0.0
H1347 H 0.57259 0.22565 0.26064 0.0
H1348 H 0.49707 0.24598 0.27337 0.0
C1349 C 0.43486 0.28696 0.23214 0.0
C1350 C 0.50228 0.24701 0.23734 0.0
C1351 C 0.41646 0.30853 0.22305 0.0
C1352 C 0.58549 0.18649 0.27722 0.0
C1353 C 0.56653 0.20683 0.26813 0.0
C1354 C 0.49867 0.24552 0.26332 0.0
C1355 C 0.46144 0.29021 0.23185 0.0
C1356 C 0.48118 0.2671 0.24131 0.0
C1357 C 0.54014 0.20368 0.26888 0.0
C1358 C 0.51987 0.22561 0.25937 0.0
H1359 H 0.45791 0.35678 0.20626 0.0
H1360 H 0.48955 0.31972 0.22204 0.0
H1361 H 0.46374 0.28161 0.25779 0.0
H1362 H 0.54579 0.14112 0.2955 0.0
H1363 H 0.51305 0.17569 0.27962 0.0
C1364 C 0.45537 0.84846 0.71338 0.0
C1365 C 0.42897 0.84427 0.71401 0.0
C1366 C 0.47444 0.82897 0.7225 0.0
C1367 C 0.48464 0.74091 0.74588 0.0
H1368 H 0.54862 0.80045 0.75951 0.0
C1369 C 0.55829 0.67444 0.78828 0.0
C1370 C 0.58489 0.67772 0.788 0.0
C1371 C 0.53988 0.69512 0.77914 0.0
C1372 C 0.53102 0.78319 0.75567 0.0
H1373 H 0.40208 0.81616 0.72485 0.0
H1374 H 0.43554 0.78214 0.74086 0.0
H1375 H 0.51487 0.83639 0.74419 0.0
H1376 H 0.61285 0.70597 0.77782 0.0
H1377 H 0.58042 0.74204 0.76167 0.0
H1378 H 0.50074 0.6877 0.7573 0.0
C1379 C 0.44135 0.80042 0.7332 0.0
C1380 C 0.51163 0.80382 0.74692 0.0
C1381 C 0.42218 0.82013 0.72407 0.0
C1382 C 0.59256 0.70266 0.77832 0.0
C1383 C 0.57399 0.7235 0.76912 0.0
C1384 C 0.50401 0.72029 0.7546 0.0
C1385 C 0.46771 0.80458 0.73249 0.0
C1386 C 0.48817 0.78296 0.74195 0.0
C1387 C 0.54741 0.71971 0.7694 0.0
C1388 C 0.52738 0.74124 0.75967 0.0
H1389 H 0.46144 0.86655 0.70575 0.0
H1390 H 0.4945 0.83232 0.72155 0.0
H1391 H 0.46704 0.72364 0.74205 0.0
H1392 H 0.5515 0.65589 0.79562 0.0
H1393 H 0.51966 0.69219 0.77982 0.0
C1394 C 0.42579 0.46868 0.52015 0.0
C1395 C 0.43484 0.43958 0.53009 0.0
C1396 C 0.44267 0.48543 0.51261 0.0
C1397 C 0.50574 0.46441 0.50292 0.0
H1398 H 0.50286 0.58439 0.4939 0.0
C1399 C 0.58421 0.54492 0.47928 0.0
C1400 C 0.57564 0.57445 0.46939 0.0
C1401 C 0.56706 0.52878 0.48675 0.0
C1402 C 0.50376 0.5507 0.49622 0.0
H1403 H 0.46887 0.40553 0.53992 0.0
H1404 H 0.49805 0.43478 0.52691 0.0
H1405 H 0.47238 0.55553 0.50644 0.0
H1406 H 0.54222 0.6101 0.45963 0.0
H1407 H 0.51248 0.58174 0.47252 0.0
H1408 H 0.53707 0.4595 0.49269 0.0
C1409 C 0.47789 0.44429 0.52479 0.0
C1410 C 0.48624 0.53415 0.5034 0.0
C1411 C 0.46112 0.42769 0.53232 0.0
C1412 C 0.54958 0.58755 0.4672 0.0
C1413 C 0.53249 0.57146 0.47466 0.0
C1414 C 0.52323 0.48093 0.49574 0.0
C1415 C 0.46892 0.4733 0.51482 0.0
C1416 C 0.48706 0.49082 0.50687 0.0
C1417 C 0.54096 0.54181 0.48451 0.0
C1418 C 0.52251 0.52431 0.4923 0.0
H1419 H 0.40569 0.47855 0.51819 0.0
H1420 H 0.43507 0.50745 0.50494 0.0
H1421 H 0.50666 0.43073 0.50525 0.0
H1422 H 0.60413 0.53414 0.48122 0.0
H1423 H 0.57432 0.50634 0.49436 0.0
C1424 C 0.12961 0.74562 0.3361 0.0
C1425 C 0.12154 0.70451 0.33899 0.0
C1426 C 0.12556 0.78067 0.34355 0.0
C1427 C 0.11738 0.81352 0.37546 0.0
H1428 H 0.09401 0.91908 0.35787 0.0
C1429 C 0.11235 0.97194 0.40315 0.0
C1430 C 0.12278 0.00775 0.39791 0.0
C1431 C 0.10744 0.93413 0.39606 0.0
C1432 C 0.10066 0.88996 0.36294 0.0
H1433 H 0.10303 0.66828 0.3522 0.0
H1434 H 0.09633 0.73016 0.36548 0.0
H1435 H 0.09434 0.8535 0.34554 0.0
H1436 H 0.13536 0.03218 0.38093 0.0
H1437 H 0.12701 0.96648 0.36865 0.0
H1438 H 0.12465 0.85033 0.39282 0.0
C1439 C 0.10568 0.73479 0.3573 0.0
C1440 C 0.10076 0.85234 0.35588 0.0
C1441 C 0.10949 0.69944 0.3497 0.0
C1442 C 0.12728 0.00533 0.38526 0.0
C1443 C 0.12235 0.9676 0.37818 0.0
C1444 C 0.1174 0.85129 0.38255 0.0
C1445 C 0.11347 0.77584 0.35419 0.0
C1446 C 0.10977 0.81395 0.36201 0.0
C1447 C 0.11276 0.93128 0.38356 0.0
C1448 C 0.10968 0.89021 0.37632 0.0
H1449 H 0.13903 0.75108 0.32799 0.0
H1450 H 0.13223 0.81169 0.34104 0.0
H1451 H 0.12457 0.78447 0.38043 0.0
H1452 H 0.10863 0.97265 0.41287 0.0
H1453 H 0.09975 0.90698 0.40044 0.0
C1454 C 0.12962 0.25051 0.41498 0.0
C1455 C 0.13772 0.20884 0.41272 0.0
C1456 C 0.13446 0.28446 0.40726 0.0
C1457 C 0.14719 0.31003 0.37519 0.0
H1458 H 0.16318 0.42158 0.39053 0.0
C1459 C 0.12668 0.46506 0.34616 0.0
C1460 C 0.14372 0.49987 0.3489 0.0
C1461 C 0.13019 0.42825 0.3537 0.0
C1462 C 0.15911 0.3906 0.38608 0.0
H1463 H 0.15756 0.17058 0.40051 0.0
H1464 H 0.16598 0.23029 0.38693 0.0
H1465 H 0.1623 0.35952 0.40432 0.0
H1466 H 0.17818 0.52278 0.36165 0.0
H1467 H 0.18434 0.45813 0.3749 0.0
H1468 H 0.14383 0.34119 0.35695 0.0
C1469 C 0.15572 0.23635 0.3947 0.0
C1470 C 0.15831 0.35506 0.39398 0.0
C1471 C 0.15092 0.20215 0.4025 0.0
C1472 C 0.16463 0.49665 0.35931 0.0
C1473 C 0.16811 0.45967 0.36692 0.0
C1474 C 0.14798 0.3456 0.36728 0.0
C1475 C 0.14757 0.27795 0.39703 0.0
C1476 C 0.15169 0.31452 0.38864 0.0
C1477 C 0.15084 0.42507 0.36422 0.0
C1478 C 0.15331 0.38652 0.37262 0.0
H1479 H 0.11937 0.25715 0.42273 0.0
H1480 H 0.12742 0.31583 0.40918 0.0
H1481 H 0.14196 0.27935 0.37075 0.0
H1482 H 0.11036 0.46622 0.33821 0.0
H1483 H 0.11623 0.40266 0.35146 0.0
C1484 C 0.10632 0.20368 0.84802 0.0
C1485 C 0.11963 0.20976 0.8378 0.0
C1486 C 0.10201 0.2381 0.85582 0.0
C1487 C 0.10081 0.35674 0.85653 0.0
H1488 H 0.11464 0.34278 0.89357 0.0
C1489 C 0.0946 0.49847 0.89107 0.0
C1490 C 0.11543 0.50156 0.90152 0.0
C1491 C 0.09106 0.46145 0.8835 0.0
C1492 C 0.11068 0.34721 0.88324 0.0
H1493 H 0.13875 0.25718 0.82784 0.0
H1494 H 0.13152 0.3163 0.84142 0.0
H1495 H 0.11622 0.28081 0.87979 0.0
H1496 H 0.14855 0.46766 0.91235 0.0
H1497 H 0.14257 0.40396 0.89915 0.0
H1498 H 0.09637 0.42337 0.85996 0.0
C1499 C 0.12404 0.28523 0.84332 0.0
C1500 C 0.11131 0.31158 0.87534 0.0
C1501 C 0.1284 0.25104 0.83558 0.0
C1502 C 0.13231 0.46657 0.90436 0.0
C1503 C 0.12874 0.42972 0.89685 0.0
C1504 C 0.10015 0.39233 0.86442 0.0
C1505 C 0.11077 0.27932 0.85353 0.0
C1506 C 0.10702 0.31609 0.86189 0.0
C1507 C 0.10819 0.42671 0.88627 0.0
C1508 C 0.10569 0.38818 0.87788 0.0
H1509 H 0.09918 0.17242 0.84997 0.0
H1510 H 0.0916 0.23252 0.86358 0.0
H1511 H 0.09699 0.36122 0.8462 0.0
H1512 H 0.08117 0.52474 0.88867 0.0
H1513 H 0.07491 0.46003 0.87547 0.0
C1514 C 0.15524 0.70299 0.90163 0.0
C1515 C 0.13572 0.70422 0.90907 0.0
C1516 C 0.15947 0.73825 0.89408 0.0
C1517 C 0.14562 0.85493 0.89125 0.0
H1518 H 0.16157 0.84377 0.85711 0.0
C1519 C 0.12854 0.98929 0.85371 0.0
C1520 C 0.14845 0.99866 0.84696 0.0
C1521 C 0.13028 0.95379 0.8618 0.0
C1522 C 0.15744 0.84729 0.8667 0.0
H1523 H 0.10485 0.74325 0.91399 0.0
H1524 H 0.11145 0.80296 0.90063 0.0
H1525 H 0.15801 0.77969 0.86994 0.0
H1526 H 0.18584 0.97806 0.84341 0.0
H1527 H 0.18861 0.9152 0.85744 0.0
H1528 H 0.144 0.92228 0.88781 0.0
C1529 C 0.12414 0.77563 0.90088 0.0
C1530 C 0.15544 0.81064 0.87406 0.0
C1531 C 0.12011 0.74089 0.90846 0.0
C1532 C 0.17028 0.97185 0.84856 0.0
C1533 C 0.17179 0.93575 0.8565 0.0
C1534 C 0.14729 0.89133 0.88386 0.0
C1535 C 0.1442 0.77531 0.8938 0.0
C1536 C 0.14892 0.81398 0.88633 0.0
C1537 C 0.15177 0.92639 0.86318 0.0
C1538 C 0.15274 0.88789 0.87142 0.0
H1539 H 0.16771 0.67536 0.90191 0.0
H1540 H 0.17514 0.7369 0.88877 0.0
H1541 H 0.14136 0.85894 0.9008 0.0
H1542 H 0.11145 0.00926 0.85266 0.0
H1543 H 0.11447 0.94715 0.86675 0.0
C1544 C 0.86546 0.27427 0.6579 0.0
C1545 C 0.88263 0.30904 0.65931 0.0
C1546 C 0.86968 0.23869 0.6507 0.0
C1547 C 0.90603 0.19812 0.62637 0.0
H1548 H 0.88559 0.08938 0.63889 0.0
C1549 C 0.91723 0.02933 0.60342 0.0
C1550 C 0.89277 0.01071 0.59921 0.0
C1551 C 0.91978 0.06572 0.61128 0.0
C1552 C 0.89157 0.1195 0.63535 0.0
H1553 H 0.91762 0.33379 0.65395 0.0
H1554 H 0.92543 0.27073 0.64155 0.0
H1555 H 0.88335 0.15368 0.65153 0.0
H1556 H 0.85201 0.01473 0.60017 0.0
H1557 H 0.85668 0.07697 0.61425 0.0
H1558 H 0.91439 0.16299 0.61018 0.0
C1559 C 0.90839 0.27151 0.6459 0.0
C1560 C 0.89005 0.15647 0.6425 0.0
C1561 C 0.90393 0.30766 0.65302 0.0
C1562 C 0.87109 0.02841 0.60325 0.0
C1563 C 0.87374 0.06394 0.61131 0.0
C1564 C 0.90795 0.16081 0.61929 0.0
C1565 C 0.89152 0.23621 0.64487 0.0
C1566 C 0.89639 0.19653 0.63791 0.0
C1567 C 0.89801 0.08315 0.61529 0.0
C1568 C 0.90004 0.12144 0.62358 0.0
H1569 H 0.84881 0.27401 0.66254 0.0
H1570 H 0.85577 0.21289 0.6498 0.0
H1571 H 0.91101 0.22833 0.62251 0.0
H1572 H 0.93421 0.01647 0.60035 0.0
H1573 H 0.93868 0.08008 0.61428 0.0
C1574 C 0.88843 0.53598 0.64999 0.0
C1575 C 0.8661 0.51394 0.65174 0.0
C1576 C 0.88651 0.57413 0.64311 0.0
C1577 C 0.84171 0.64137 0.61997 0.0
H1578 H 0.89501 0.72603 0.63118 0.0
C1579 C 0.84857 0.80964 0.59615 0.0
C1580 C 0.87182 0.81347 0.59147 0.0
C1581 C 0.84502 0.77579 0.60433 0.0
C1582 C 0.87989 0.7028 0.62801 0.0
H1583 H 0.82416 0.51435 0.64745 0.0
H1584 H 0.82072 0.58194 0.6356 0.0
H1585 H 0.89367 0.66149 0.64385 0.0
H1586 H 0.90964 0.78513 0.592 0.0
H1587 H 0.90384 0.72769 0.60659 0.0
H1588 H 0.82802 0.68357 0.60412 0.0
C1589 C 0.83977 0.56926 0.63941 0.0
C1590 C 0.87924 0.66556 0.63517 0.0
C1591 C 0.84172 0.53055 0.64621 0.0
C1592 C 0.89158 0.78344 0.59542 0.0
C1593 C 0.88828 0.75045 0.6038 0.0
C1594 C 0.84215 0.67913 0.61289 0.0
C1595 C 0.8622 0.59185 0.63793 0.0
C1596 C 0.86068 0.63363 0.63104 0.0
C1597 C 0.86493 0.74601 0.60823 0.0
C1598 C 0.86169 0.70956 0.61668 0.0
H1599 H 0.90753 0.52377 0.65398 0.0
H1600 H 0.90424 0.58967 0.64184 0.0
H1601 H 0.82721 0.61754 0.61644 0.0
H1602 H 0.83289 0.83204 0.59321 0.0
H1603 H 0.82683 0.77293 0.60765 0.0
C1604 C 0.91762 0.53282 0.1033 0.0
C1605 C 0.89345 0.514 0.09855 0.0
C1606 C 0.91916 0.57111 0.11029 0.0
C1607 C 0.87749 0.66253 0.11637 0.0
H1608 H 0.9315 0.68407 0.14606 0.0
C1609 C 0.86669 0.77312 0.15804 0.0
C1610 C 0.88391 0.80777 0.16053 0.0
C1611 C 0.87055 0.74096 0.14952 0.0
C1612 C 0.91658 0.67865 0.13765 0.0
H1613 H 0.85213 0.5193 0.09798 0.0
H1614 H 0.85483 0.58442 0.11044 0.0
H1615 H 0.93313 0.61916 0.1333 0.0
H1616 H 0.91911 0.83515 0.15609 0.0
H1617 H 0.92628 0.77751 0.14136 0.0
H1618 H 0.86018 0.72067 0.12123 0.0
C1619 C 0.87258 0.571 0.1084 0.0
C1620 C 0.91747 0.64156 0.13033 0.0
C1621 C 0.87104 0.5333 0.10133 0.0
C1622 C 0.90535 0.80912 0.15432 0.0
C1623 C 0.90956 0.77617 0.14596 0.0
C1624 C 0.87642 0.69906 0.12378 0.0
C1625 C 0.89657 0.59104 0.11275 0.0
C1626 C 0.89753 0.63247 0.11979 0.0
C1627 C 0.89204 0.74201 0.14347 0.0
C1628 C 0.89565 0.70701 0.13461 0.0
H1629 H 0.93523 0.51873 0.10127 0.0
H1630 H 0.93796 0.58562 0.11347 0.0
H1631 H 0.86221 0.65742 0.1081 0.0
H1632 H 0.85013 0.7706 0.16269 0.0
H1633 H 0.8569 0.71476 0.14779 0.0
C1634 C 0.86571 0.04136 0.15413 0.0
C1635 C 0.87636 0.00537 0.14911 0.0
C1636 C 0.86095 0.07889 0.14689 0.0
C1637 C 0.85483 0.12147 0.11362 0.0
H1638 H 0.87781 0.22796 0.13071 0.0
C1639 C 0.88249 0.26579 0.08621 0.0
C1640 C 0.87404 0.30671 0.08903 0.0
C1641 C 0.87887 0.23076 0.09377 0.0
C1642 C 0.8709 0.19861 0.12584 0.0
H1643 H 0.88958 0.98034 0.13237 0.0
H1644 H 0.88152 0.04556 0.11984 0.0
H1645 H 0.87802 0.16266 0.14338 0.0
H1646 H 0.85532 0.34266 0.10222 0.0
H1647 H 0.84935 0.28091 0.11566 0.0
H1648 H 0.84862 0.15709 0.09605 0.0
C1649 C 0.87655 0.04479 0.12931 0.0
C1650 C 0.87099 0.16116 0.13309 0.0
C1651 C 0.88132 0.00736 0.13654 0.0
C1652 C 0.86207 0.31165 0.09977 0.0
C1653 C 0.85868 0.27637 0.10747 0.0
C1654 C 0.85487 0.15876 0.1064 0.0
C1655 C 0.86664 0.08125 0.13445 0.0
C1656 C 0.86357 0.12193 0.12702 0.0
C1657 C 0.86685 0.23549 0.10444 0.0
C1658 C 0.86352 0.19751 0.11238 0.0
H1659 H 0.86163 0.04095 0.16379 0.0
H1660 H 0.85303 0.10619 0.15108 0.0
H1661 H 0.84842 0.09206 0.10866 0.0
H1662 H 0.89185 0.2605 0.07807 0.0
H1663 H 0.88582 0.19987 0.09132 0.0
C1664 C 0.60267 0.70348 0.84757 0.0
C1665 C 0.62447 0.70146 0.84165 0.0
C1666 C 0.59842 0.73943 0.85483 0.0
C1667 C 0.61877 0.85339 0.85905 0.0
H1668 H 0.59157 0.84786 0.8906 0.0
C1669 C 0.63623 0.98264 0.89792 0.0
C1670 C 0.61438 1.00047 0.90176 0.0
C1671 C 0.63385 0.9467 0.89002 0.0
C1672 C 0.59885 0.84979 0.8817 0.0
H1673 H 0.65945 0.73492 0.83935 0.0
H1674 H 0.65285 0.79547 0.85235 0.0
H1675 H 0.59477 0.78243 0.87825 0.0
H1676 H 0.57292 0.99434 0.90046 0.0
H1677 H 0.56891 0.93015 0.88681 0.0
H1678 H 0.6241 0.92021 0.86286 0.0
C1679 C 0.63838 0.77047 0.85102 0.0
C1680 C 0.60067 0.81241 0.87462 0.0
C1681 C 0.64239 0.73518 0.84366 0.0
C1682 C 0.59004 0.98143 0.89756 0.0
C1683 C 0.58776 0.94467 0.88985 0.0
C1684 C 0.61733 0.89037 0.8662 0.0
C1685 C 0.61601 0.77381 0.85641 0.0
C1686 C 0.61131 0.81361 0.86337 0.0
C1687 C 0.60968 0.92719 0.88599 0.0
C1688 C 0.60785 0.88881 0.87771 0.0
H1689 H 0.58841 0.67815 0.84617 0.0
H1690 H 0.58096 0.74086 0.85885 0.0
H1691 H 0.62624 0.85595 0.85022 0.0
H1692 H 0.65524 0.99658 0.90099 0.0
H1693 H 0.65105 0.93368 0.88721 0.0
C1694 C 0.6522 0.19993 0.9014 0.0
C1695 C 0.63741 0.20517 0.91108 0.0
C1696 C 0.65653 0.23454 0.89366 0.0
C1697 C 0.65564 0.3529 0.89289 0.0
H1698 H 0.64547 0.33981 0.85587 0.0
C1699 C 0.66343 0.49607 0.85912 0.0
C1700 C 0.64313 0.49911 0.84841 0.0
C1701 C 0.66684 0.45878 0.86657 0.0
C1702 C 0.64844 0.34397 0.8662 0.0
H1703 H 0.61548 0.25121 0.92006 0.0
H1704 H 0.62288 0.31066 0.90663 0.0
H1705 H 0.64348 0.27719 0.8694 0.0
H1706 H 0.61092 0.46479 0.83697 0.0
H1707 H 0.61672 0.40048 0.84995 0.0
H1708 H 0.65957 0.4198 0.88969 0.0
C1709 C 0.63146 0.28012 0.90511 0.0
C1710 C 0.64754 0.30801 0.87395 0.0
C1711 C 0.62703 0.24573 0.91276 0.0
C1712 C 0.62672 0.46375 0.84518 0.0
C1713 C 0.63019 0.42657 0.85256 0.0
C1714 C 0.65662 0.38879 0.88515 0.0
C1715 C 0.64634 0.27511 0.89551 0.0
C1716 C 0.65048 0.31223 0.88737 0.0
C1717 C 0.65014 0.42367 0.86341 0.0
C1718 C 0.6524 0.38491 0.87169 0.0
H1719 H 0.66057 0.16924 0.89986 0.0
H1720 H 0.66814 0.22971 0.88635 0.0
H1721 H 0.65837 0.35713 0.90321 0.0
H1722 H 0.67649 0.52263 0.86183 0.0
H1723 H 0.68252 0.45743 0.87482 0.0
C1724 C 0.61187 0.23908 0.33396 0.0
C1725 C 0.61648 0.19844 0.3395 0.0
C1726 C 0.60876 0.27442 0.34151 0.0
C1727 C 0.59896 0.30774 0.37421 0.0
H1728 H 0.62765 0.41402 0.36435 0.0
C1729 C 0.6237 0.45484 0.40754 0.0
C1730 C 0.61612 0.49511 0.40226 0.0
C1731 C 0.62034 0.41827 0.39986 0.0
C1732 C 0.61926 0.38471 0.36713 0.0
H1733 H 0.62085 0.16257 0.35724 0.0
H1734 H 0.6166 0.22482 0.37068 0.0
H1735 H 0.62915 0.35065 0.35132 0.0
H1736 H 0.59853 0.52849 0.38487 0.0
H1737 H 0.59328 0.46442 0.37132 0.0
H1738 H 0.59038 0.34208 0.39045 0.0
C1739 C 0.61469 0.22931 0.36041 0.0
C1740 C 0.61999 0.34825 0.35963 0.0
C1741 C 0.61725 0.1936 0.35275 0.0
C1742 C 0.60453 0.49791 0.3892 0.0
C1743 C 0.60162 0.46134 0.38145 0.0
C1744 C 0.59865 0.34418 0.38184 0.0
C1745 C 0.6108 0.27038 0.35491 0.0
C1746 C 0.60978 0.30919 0.36301 0.0
C1747 C 0.60974 0.42125 0.3867 0.0
C1748 C 0.60876 0.38302 0.37835 0.0
H1749 H 0.61069 0.24364 0.32372 0.0
H1750 H 0.60491 0.30502 0.3368 0.0
H1751 H 0.59057 0.27858 0.37705 0.0
H1752 H 0.63256 0.4516 0.4176 0.0
H1753 H 0.62693 0.38785 0.40413 0.0
C1754 C 0.61862 0.70925 0.40085 0.0
C1755 C 0.63994 0.68854 0.40831 0.0
C1756 C 0.62219 0.74235 0.39255 0.0
C1757 C 0.66632 0.82815 0.38872 0.0
H1758 H 0.6237 0.83719 0.35469 0.0
C1759 C 0.66553 0.97875 0.35593 0.0
C1760 C 0.64101 0.99105 0.34913 0.0
C1761 C 0.6687 0.93989 0.36267 0.0
C1762 C 0.63564 0.83538 0.3642 0.0
H1763 H 0.68181 0.68554 0.41277 0.0
H1764 H 0.68817 0.74448 0.39832 0.0
H1765 H 0.62348 0.77137 0.3669 0.0
H1766 H 0.60049 0.97286 0.34453 0.0
H1767 H 0.60587 0.90642 0.35636 0.0
H1768 H 0.67762 0.89293 0.38623 0.0
C1769 C 0.66867 0.73467 0.39888 0.0
C1770 C 0.63561 0.79753 0.37116 0.0
C1771 C 0.66504 0.7008 0.40704 0.0
C1772 C 0.61973 0.96426 0.3495 0.0
C1773 C 0.62286 0.92581 0.35623 0.0
C1774 C 0.66619 0.86632 0.38178 0.0
C1775 C 0.64722 0.75603 0.39164 0.0
C1776 C 0.65043 0.79383 0.38361 0.0
C1777 C 0.6474 0.91268 0.36274 0.0
C1778 C 0.65026 0.87079 0.36958 0.0
H1779 H 0.5991 0.70023 0.40155 0.0
H1780 H 0.60529 0.75834 0.38718 0.0
H1781 H 0.67782 0.82626 0.39833 0.0
H1782 H 0.68233 0.99862 0.35581 0.0
H1783 H 0.68789 0.93075 0.36757 0.0
C1784 C 0.36805 0.26829 0.15918 0.0
C1785 C 0.38498 0.30338 0.16034 0.0
C1786 C 0.37219 0.23266 0.15198 0.0
C1787 C 0.40774 0.19262 0.12722 0.0
H1788 H 0.38828 0.08352 0.1399 0.0
C1789 C 0.41979 0.02502 0.10394 0.0
C1790 C 0.39564 1.00498 0.10013 0.0
C1791 C 0.42207 0.0614 0.1118 0.0
C1792 C 0.39396 0.11375 0.13631 0.0
H1793 H 0.41949 0.32852 0.15459 0.0
H1794 H 0.42717 0.26541 0.1422 0.0
H1795 H 0.38599 0.14771 0.15258 0.0
H1796 H 0.35518 0.00646 0.1018 0.0
H1797 H 0.35942 0.06871 0.11587 0.0
H1798 H 0.41592 0.1577 0.11096 0.0
C1799 C 0.41036 0.26598 0.14673 0.0
C1800 C 0.39241 0.15067 0.14348 0.0
C1801 C 0.40598 0.30216 0.15384 0.0
C1802 C 0.37403 0.02125 0.10457 0.0
C1803 C 0.37644 0.05678 0.11263 0.0
C1804 C 0.4097 0.15536 0.12012 0.0
C1805 C 0.3937 0.23045 0.14589 0.0
C1806 C 0.39845 0.19084 0.13885 0.0
C1807 C 0.40038 0.07744 0.11621 0.0
C1808 C 0.40214 0.11584 0.12447 0.0
H1809 H 0.35164 0.26788 0.16399 0.0
H1810 H 0.35843 0.20666 0.15125 0.0
H1811 H 0.41248 0.2229 0.12332 0.0
H1812 H 0.4367 0.01331 0.10056 0.0
H1813 H 0.44073 0.07688 0.11447 0.0
C1814 C 0.34155 0.52379 0.14659 0.0
C1815 C 0.36597 0.5052 0.15096 0.0
C1816 C 0.33921 0.56028 0.13877 0.0
C1817 C 0.3665 0.6134 0.1146 0.0
H1818 H 0.34993 0.72336 0.12778 0.0
C1819 C 0.39117 0.76692 0.09062 0.0
C1820 C 0.37484 0.80269 0.08997 0.0
C1821 C 0.38735 0.73137 0.09794 0.0
C1822 C 0.35409 0.69287 0.12382 0.0
H1823 H 0.40689 0.50948 0.15036 0.0
H1824 H 0.40255 0.57195 0.13632 0.0
H1825 H 0.3469 0.65859 0.14041 0.0
H1826 H 0.34163 0.82897 0.09669 0.0
H1827 H 0.33442 0.766 0.10924 0.0
H1828 H 0.37336 0.64666 0.09799 0.0
C1829 C 0.38539 0.5588 0.13913 0.0
C1830 C 0.35239 0.65588 0.13108 0.0
C1831 C 0.38784 0.52314 0.14716 0.0
C1832 C 0.35469 0.80209 0.09703 0.0
C1833 C 0.35059 0.76598 0.10425 0.0
C1834 C 0.36773 0.65007 0.10726 0.0
C1835 C 0.36114 0.57789 0.13497 0.0
C1836 C 0.35921 0.61607 0.12664 0.0
C1837 C 0.36671 0.72988 0.10465 0.0
C1838 C 0.36236 0.69054 0.11193 0.0
H1839 H 0.32443 0.51077 0.14947 0.0
H1840 H 0.32032 0.57456 0.13562 0.0
H1841 H 0.37166 0.58292 0.11097 0.0
H1842 H 0.4069 0.76596 0.08535 0.0
H1843 H 0.40072 0.70493 0.09829 0.0
C1844 C 0.37443 0.76748 0.6625 0.0
C1845 C 0.38655 0.80673 0.66102 0.0
C1846 C 0.37647 0.73333 0.65433 0.0
C1847 C 0.41511 0.68735 0.63225 0.0
H1848 H 0.35159 0.62578 0.61927 0.0
C1849 C 0.4105 0.52151 0.60661 0.0
C1850 C 0.39019 0.51581 0.59601 0.0
C1851 C 0.41193 0.55875 0.61408 0.0
C1852 C 0.3695 0.64274 0.62272 0.0
H1853 H 0.41102 0.84015 0.64991 0.0
H1854 H 0.41456 0.77989 0.63553 0.0
H1855 H 0.35051 0.68793 0.63288 0.0
H1856 H 0.35609 0.54573 0.58467 0.0
H1857 H 0.35864 0.60998 0.59759 0.0
H1858 H 0.43402 0.64173 0.622 0.0
C1859 C 0.40344 0.77598 0.64308 0.0
C1860 C 0.36891 0.67818 0.63062 0.0
C1861 C 0.40126 0.81054 0.65126 0.0
C1862 C 0.37184 0.54863 0.59285 0.0
C1863 C 0.37324 0.58556 0.60029 0.0
C1864 C 0.41574 0.65151 0.62437 0.0
C1865 C 0.39077 0.73718 0.64446 0.0
C1866 C 0.39169 0.70079 0.63555 0.0
C1867 C 0.39301 0.59084 0.61111 0.0
C1868 C 0.39289 0.62885 0.61952 0.0
H1869 H 0.36319 0.76289 0.66997 0.0
H1870 H 0.36686 0.70366 0.6558 0.0
H1871 H 0.433 0.70399 0.63598 0.0
H1872 H 0.42502 0.49696 0.60926 0.0
H1873 H 0.42735 0.56183 0.62239 0.0
C1874 C 0.3543 0.3131 0.59745 0.0
C1875 C 0.37548 0.313 0.59105 0.0
C1876 C 0.35092 0.27966 0.60582 0.0
C1877 C 0.38662 0.19886 0.62668 0.0
H1878 H 0.32564 0.1269 0.61936 0.0
C1879 C 0.38848 0.03156 0.64808 0.0
C1880 C 0.36634 0.01535 0.65202 0.0
C1881 C 0.38735 0.06944 0.64109 0.0
C1882 C 0.3426 0.14703 0.62171 0.0
H1883 H 0.40969 0.2775 0.58858 0.0
H1884 H 0.40434 0.22086 0.60345 0.0
H1885 H 0.3275 0.19264 0.60701 0.0
H1886 H 0.32542 0.02574 0.65147 0.0
H1887 H 0.3235 0.0929 0.63945 0.0
H1888 H 0.40186 0.15412 0.64136 0.0
C1889 C 0.39029 0.24653 0.60193 0.0
C1890 C 0.34362 0.18464 0.61463 0.0
C1891 C 0.39334 0.27918 0.59341 0.0
C1892 C 0.34278 0.03737 0.6485 0.0
C1893 C 0.34171 0.07584 0.64161 0.0
C1894 C 0.38548 0.16178 0.63386 0.0
C1895 C 0.369 0.24619 0.60815 0.0
C1896 C 0.36595 0.21023 0.61684 0.0
C1897 C 0.36414 0.09275 0.63801 0.0
C1898 C 0.36381 0.13458 0.63121 0.0
H1899 H 0.34005 0.33842 0.59578 0.0
H1900 H 0.33433 0.28002 0.61052 0.0
H1901 H 0.40394 0.21832 0.62866 0.0
H1902 H 0.40687 0.01507 0.65049 0.0
H1903 H 0.40485 0.08052 0.63815 0.0
loop_
_geom_bond_atom_site_label_1
_geom_bond_atom_site_label_2
_geom_bond_distance
_geom_bond_site_symmetry_2
_ccdc_geom_bond_type
Co0 O2 2.143 . S
Co0 O8 2.074 . S
Co0 O11 2.093 . S
Co0 O24 2.097 . S
Co0 N41 2.151 . S
Co0 N49 2.214 . S
Co1 O2 2.160 . S
Co1 O7 2.058 . S
Co1 O17 2.057 . S
Co1 O32 2.037 . S
Co1 N36 2.145 . S
Co1 N57 2.257 . S
O2 Co0 2.143 . S
O2 Co1 2.160 . S
C3 O4 1.278 . S
C3 O11 1.224 . S
O4 C3 1.278 . S
C5 O6 1.245 . S
C5 O17 1.232 . S
O6 C5 1.245 . S
O7 Co1 2.058 . S
O7 C33 1.269 . S
O8 Co0 2.074 . S
O8 C33 1.257 . S
H9 C34 0.930 . S
H10 C40 0.930 . S
O11 Co0 2.093 . S
O11 C3 1.224 . S
H12 C44 0.929 . S
H13 C46 0.930 . S
H14 C47 0.930 . S
H15 C45 0.929 . S
H16 C48 0.928 . S
O17 Co1 2.057 . S
O17 C5 1.232 . S
H18 C37 0.929 . S
H19 C38 0.929 . S
H20 C50 0.931 . S
H21 C42 0.929 . S
H22 C51 0.930 . S
H23 C43 0.931 . S
O24 Co0 2.097 . S
O24 C52 1.214 . S
H25 C53 0.929 . S
H26 C54 0.929 . S
H27 C55 0.930 . S
H28 C56 0.929 . S
H29 C58 0.930 . S
H30 C35 0.930 . S
H31 C39 0.930 . S
O32 Co1 2.037 . S
O32 C52 1.234 . S
C33 O7 1.269 . S
C33 O8 1.257 . S
C34 H9 0.930 . S
C34 C37 1.388 . S
C34 C39 1.418 . S
C35 H30 0.930 . S
C35 C38 1.404 . S
C35 C39 1.353 . S
N36 Co1 2.145 . S
N36 C37 1.397 . S
N36 C38 1.334 . S
C37 H18 0.929 . S
C37 C34 1.388 . S
C37 N36 1.397 . S
C38 H19 0.929 . S
C38 C35 1.404 . S
C38 N36 1.334 . S
C39 H31 0.930 . S
C39 C34 1.418 . S
C39 C35 1.353 . S
C40 H10 0.930 . S
C40 N41 1.330 1_565 S
C40 C42 1.446 . S
N41 Co0 2.151 . S
N41 C40 1.330 1_545 S
N41 C45 1.418 . S
C42 H21 0.929 . S
C42 C40 1.446 . S
C42 C43 1.332 . S
C43 H23 0.931 . S
C43 C42 1.332 . S
C43 C44 1.267 1_565 S
C44 H12 0.929 . S
C44 C43 1.267 1_545 S
C44 C45 1.251 . S
C45 H15 0.929 . S
C45 N41 1.418 . S
C45 C44 1.251 . S
C46 H13 0.930 . S
C46 C48 1.406 . S
C46 C51 1.261 . S
C47 H14 0.930 . S
C47 N49 1.325 . S
C47 C50 1.357 . S
C48 H16 0.928 . S
C48 C46 1.406 . S
C48 N49 1.261 . S
N49 Co0 2.214 . S
N49 C47 1.325 . S
N49 C48 1.261 . S
C50 H20 0.931 . S
C50 C47 1.357 . S
C50 C51 1.312 . S
C51 H22 0.930 . S
C51 C46 1.261 . S
C51 C50 1.312 . S
C52 O24 1.214 . S
C52 O32 1.234 . S
C53 H25 0.929 . S
C53 C56 1.391 . S
C53 C58 1.391 . S
C54 H26 0.929 . S
C54 C55 1.390 . S
C54 N57 1.391 . S
C55 H27 0.930 . S
C55 C54 1.390 . S
C55 C56 1.392 . S
C56 H28 0.929 . S
C56 C53 1.391 . S
C56 C55 1.392 . S
N57 Co1 2.257 . S
N57 C54 1.391 . S
N57 C58 1.388 . S
C58 H29 0.930 . S
C58 C53 1.391 . S
C58 N57 1.388 . S
Co59 O61 2.143 . S
Co59 O67 2.074 . S
Co59 O70 2.093 . S
Co59 O83 2.097 . S
Co59 N100 2.151 . S
Co59 N108 2.214 . S
Co60 O61 2.160 . S
Co60 O66 2.058 . S
Co60 O76 2.057 . S
Co60 O91 2.037 . S
Co60 N95 2.145 . S
Co60 N116 2.257 . S
O61 Co59 2.143 . S
O61 Co60 2.160 . S
C62 O63 1.278 . S
C62 O70 1.224 . S
O63 C62 1.278 . S
C64 O65 1.245 . S
C64 O76 1.232 . S
O65 C64 1.245 . S
O66 Co60 2.058 . S
O66 C92 1.269 . S
O67 Co59 2.074 . S
O67 C92 1.257 . S
H68 C93 0.930 . S
H69 C99 0.930 . S
O70 Co59 2.093 . S
O70 C62 1.224 . S
H71 C103 0.929 . S
H72 C105 0.930 . S
H73 C106 0.930 . S
H74 C104 0.929 . S
H75 C107 0.928 . S
O76 Co60 2.057 . S
O76 C64 1.232 . S
H77 C96 0.929 . S
H78 C97 0.929 . S
H79 C109 0.931 . S
H80 C101 0.929 . S
H81 C110 0.930 . S
H82 C102 0.931 . S
O83 Co59 2.097 . S
O83 C111 1.214 . S
H84 C112 0.929 . S
H85 C113 0.929 . S
H86 C114 0.930 . S
H87 C115 0.929 . S
H88 C117 0.930 . S
H89 C94 0.930 . S
H90 C98 0.930 . S
O91 Co60 2.037 . S
O91 C111 1.234 . S
C92 O66 1.269 . S
C92 O67 1.257 . S
C93 H68 0.930 . S
C93 C96 1.388 . S
C93 C98 1.418 . S
C94 H89 0.930 . S
C94 C97 1.404 . S
C94 C98 1.353 . S
N95 Co60 2.145 . S
N95 C96 1.397 . S
N95 C97 1.334 . S
C96 H77 0.929 . S
C96 C93 1.388 . S
C96 N95 1.397 . S
C97 H78 0.929 . S
C97 C94 1.404 . S
C97 N95 1.334 . S
C98 H90 0.930 . S
C98 C93 1.418 . S
C98 C94 1.353 . S
C99 H69 0.930 . S
C99 N100 1.330 1_565 S
C99 C101 1.446 . S
N100 Co59 2.151 . S
N100 C99 1.330 1_545 S
N100 C104 1.418 . S
C101 H80 0.929 . S
C101 C99 1.446 . S
C101 C102 1.332 . S
C102 H82 0.931 . S
C102 C101 1.332 . S
C102 C103 1.267 1_565 S
C103 H71 0.929 . S
C103 C102 1.267 1_545 S
C103 C104 1.251 . S
C104 H74 0.929 . S
C104 N100 1.418 . S
C104 C103 1.251 . S
C105 H72 0.930 . S
C105 C107 1.406 . S
C105 C110 1.261 . S
C106 H73 0.930 . S
C106 N108 1.325 . S
C106 C109 1.357 . S
C107 H75 0.928 . S
C107 C105 1.406 . S
C107 N108 1.261 . S
N108 Co59 2.214 . S
N108 C106 1.325 . S
N108 C107 1.261 . S
C109 H79 0.931 . S
C109 C106 1.357 . S
C109 C110 1.312 . S
C110 H81 0.930 . S
C110 C105 1.261 . S
C110 C109 1.312 . S
C111 O83 1.214 . S
C111 O91 1.234 . S
C112 H84 0.929 . S
C112 C115 1.391 . S
C112 C117 1.391 . S
C113 H85 0.929 . S
C113 C114 1.390 . S
C113 N116 1.391 . S
C114 H86 0.930 . S
C114 C113 1.390 . S
C114 C115 1.392 . S
C115 H87 0.929 . S
C115 C112 1.391 . S
C115 C114 1.392 . S
N116 Co60 2.257 . S
N116 C113 1.391 . S
N116 C117 1.388 . S
C117 H88 0.930 . S
C117 C112 1.391 . S
C117 N116 1.388 . S
Co118 O120 2.143 . S
Co118 O126 2.074 . S
Co118 O129 2.093 . S
Co118 O142 2.097 . S
Co118 N159 2.151 . S
Co118 N167 2.214 . S
Co119 O120 2.160 . S
Co119 O125 2.058 . S
Co119 O135 2.057 . S
Co119 O150 2.037 . S
Co119 N154 2.145 . S
Co119 N175 2.257 . S
O120 Co118 2.143 . S
O120 Co119 2.160 . S
C121 O122 1.278 . S
C121 O129 1.224 . S
O122 C121 1.278 . S
C123 O124 1.245 . S
C123 O135 1.232 . S
O124 C123 1.245 . S
O125 Co119 2.058 . S
O125 C151 1.269 . S
O126 Co118 2.074 . S
O126 C151 1.257 . S
H127 C152 0.930 . S
H128 C158 0.930 . S
O129 Co118 2.093 . S
O129 C121 1.224 . S
H130 C162 0.929 . S
H131 C164 0.930 . S
H132 C165 0.930 . S
H133 C163 0.929 . S
H134 C166 0.928 . S
O135 Co119 2.057 . S
O135 C123 1.232 . S
H136 C155 0.929 . S
H137 C156 0.929 . S
H138 C168 0.931 . S
H139 C160 0.929 . S
H140 C169 0.930 . S
H141 C161 0.931 . S
O142 Co118 2.097 . S
O142 C170 1.214 . S
H143 C171 0.929 . S
H144 C172 0.929 . S
H145 C173 0.930 . S
H146 C174 0.929 . S
H147 C176 0.930 . S
H148 C153 0.930 . S
H149 C157 0.930 . S
O150 Co119 2.037 . S
O150 C170 1.234 . S
C151 O125 1.269 . S
C151 O126 1.257 . S
C152 H127 0.930 . S
C152 C155 1.388 . S
C152 C157 1.418 . S
C153 H148 0.930 . S
C153 C156 1.404 . S
C153 C157 1.353 . S
N154 Co119 2.145 . S
N154 C155 1.397 . S
N154 C156 1.334 . S
C155 H136 0.929 . S
C155 C152 1.388 . S
C155 N154 1.397 . S
C156 H137 0.929 . S
C156 C153 1.404 . S
C156 N154 1.334 . S
C157 H149 0.930 . S
C157 C152 1.418 . S
C157 C153 1.353 . S
C158 H128 0.930 . S
C158 N159 1.330 1_545 S
C158 C160 1.446 . S
N159 Co118 2.151 . S
N159 C158 1.330 1_565 S
N159 C163 1.418 . S
C160 H139 0.929 . S
C160 C158 1.446 . S
C160 C161 1.332 . S
C161 H141 0.931 . S
C161 C160 1.332 . S
C161 C162 1.267 1_545 S
C162 H130 0.929 . S
C162 C161 1.267 1_565 S
C162 C163 1.251 . S
C163 H133 0.929 . S
C163 N159 1.418 . S
C163 C162 1.251 . S
C164 H131 0.930 . S
C164 C166 1.406 . S
C164 C169 1.261 . S
C165 H132 0.930 . S
C165 N167 1.325 . S
C165 C168 1.357 . S
C166 H134 0.928 . S
C166 C164 1.406 . S
C166 N167 1.261 . S
N167 Co118 2.214 . S
N167 C165 1.325 . S
N167 C166 1.261 . S
C168 H138 0.931 . S
C168 C165 1.357 . S
C168 C169 1.312 . S
C169 H140 0.930 . S
C169 C164 1.261 . S
C169 C168 1.312 . S
C170 O142 1.214 . S
C170 O150 1.234 . S
C171 H143 0.929 . S
C171 C174 1.391 . S
C171 C176 1.391 . S
C172 H144 0.929 . S
C172 C173 1.390 . S
C172 N175 1.391 . S
C173 H145 0.930 . S
C173 C172 1.390 . S
C173 C174 1.392 . S
C174 H146 0.929 . S
C174 C171 1.391 . S
C174 C173 1.392 . S
N175 Co119 2.257 . S
N175 C172 1.391 . S
N175 C176 1.388 . S
C176 H147 0.930 . S
C176 C171 1.391 . S
C176 N175 1.388 . S
Co177 O179 2.143 . S
Co177 O185 2.074 . S
Co177 O188 2.093 . S
Co177 O201 2.097 . S
Co177 N218 2.151 . S
Co177 N226 2.214 . S
Co178 O179 2.160 . S
Co178 O184 2.058 . S
Co178 O194 2.057 . S
Co178 O209 2.037 . S
Co178 N213 2.145 . S
Co178 N234 2.257 . S
O179 Co177 2.143 . S
O179 Co178 2.160 . S
C180 O181 1.278 . S
C180 O188 1.224 . S
O181 C180 1.278 . S
C182 O183 1.245 . S
C182 O194 1.232 . S
O183 C182 1.245 . S
O184 Co178 2.058 . S
O184 C210 1.269 . S
O185 Co177 2.074 . S
O185 C210 1.257 . S
H186 C211 0.930 . S
H187 C217 0.930 . S
O188 Co177 2.093 . S
O188 C180 1.224 . S
H189 C221 0.929 . S
H190 C223 0.930 . S
H191 C224 0.930 . S
H192 C222 0.929 . S
H193 C225 0.928 . S
O194 Co178 2.057 . S
O194 C182 1.232 . S
H195 C214 0.929 . S
H196 C215 0.929 . S
H197 C227 0.931 . S
H198 C219 0.929 . S
H199 C228 0.930 . S
H200 C220 0.931 . S
O201 Co177 2.097 . S
O201 C229 1.214 . S
H202 C230 0.929 . S
H203 C231 0.929 . S
H204 C232 0.930 . S
H205 C233 0.929 . S
H206 C235 0.930 . S
H207 C212 0.930 . S
H208 C216 0.930 . S
O209 Co178 2.037 . S
O209 C229 1.234 . S
C210 O184 1.269 . S
C210 O185 1.257 . S
C211 H186 0.930 . S
C211 C214 1.388 . S
C211 C216 1.418 . S
C212 H207 0.930 . S
C212 C215 1.404 . S
C212 C216 1.353 . S
N213 Co178 2.145 . S
N213 C214 1.397 . S
N213 C215 1.334 . S
C214 H195 0.929 . S
C214 C211 1.388 . S
C214 N213 1.397 . S
C215 H196 0.929 . S
C215 C212 1.404 . S
C215 N213 1.334 . S
C216 H208 0.930 . S
C216 C211 1.418 . S
C216 C212 1.353 . S
C217 H187 0.930 . S
C217 N218 1.330 1_545 S
C217 C219 1.446 . S
N218 Co177 2.151 . S
N218 C217 1.330 1_565 S
N218 C222 1.418 . S
C219 H198 0.929 . S
C219 C217 1.446 . S
C219 C220 1.332 . S
C220 H200 0.931 . S
C220 C219 1.332 . S
C220 C221 1.267 1_545 S
C221 H189 0.929 . S
C221 C220 1.267 1_565 S
C221 C222 1.251 . S
C222 H192 0.929 . S
C222 N218 1.418 . S
C222 C221 1.251 . S
C223 H190 0.930 . S
C223 C225 1.406 . S
C223 C228 1.261 . S
C224 H191 0.930 . S
C224 N226 1.325 . S
C224 C227 1.357 . S
C225 H193 0.928 . S
C225 C223 1.406 . S
C225 N226 1.261 . S
N226 Co177 2.214 . S
N226 C224 1.325 . S
N226 C225 1.261 . S
C227 H197 0.931 . S
C227 C224 1.357 . S
C227 C228 1.312 . S
C228 H199 0.930 . S
C228 C223 1.261 . S
C228 C227 1.312 . S
C229 O201 1.214 . S
C229 O209 1.234 . S
C230 H202 0.929 . S
C230 C233 1.391 . S
C230 C235 1.391 . S
C231 H203 0.929 . S
C231 C232 1.390 . S
C231 N234 1.391 . S
C232 H204 0.930 . S
C232 C231 1.390 . S
C232 C233 1.392 . S
C233 H205 0.929 . S
C233 C230 1.391 . S
C233 C232 1.392 . S
N234 Co178 2.257 . S
N234 C231 1.391 . S
N234 C235 1.388 . S
C235 H206 0.930 . S
C235 C230 1.391 . S
C235 N234 1.388 . S
Co236 O238 2.143 . S
Co236 O244 2.074 . S
Co236 O247 2.093 . S
Co236 O260 2.097 . S
Co236 N277 2.151 . S
Co236 N285 2.214 . S
Co237 O238 2.160 . S
Co237 O243 2.058 . S
Co237 O253 2.057 . S
Co237 O268 2.037 . S
Co237 N272 2.145 . S
Co237 N293 2.257 . S
O238 Co236 2.143 . S
O238 Co237 2.160 . S
C239 O240 1.278 . S
C239 O247 1.224 . S
O240 C239 1.278 . S
C241 O242 1.245 . S
C241 O253 1.232 . S
O242 C241 1.245 . S
O243 Co237 2.058 . S
O243 C269 1.269 . S
O244 Co236 2.074 . S
O244 C269 1.257 . S
H245 C270 0.930 . S
H246 C276 0.930 . S
O247 Co236 2.093 . S
O247 C239 1.224 . S
H248 C280 0.929 . S
H249 C282 0.930 . S
H250 C283 0.930 . S
H251 C281 0.929 . S
H252 C284 0.928 . S
O253 Co237 2.057 . S
O253 C241 1.232 . S
H254 C273 0.929 . S
H255 C274 0.929 . S
H256 C286 0.931 . S
H257 C278 0.929 . S
H258 C287 0.930 . S
H259 C279 0.931 . S
O260 Co236 2.097 . S
O260 C288 1.214 . S
H261 C289 0.929 . S
H262 C290 0.929 . S
H263 C291 0.930 . S
H264 C292 0.929 . S
H265 C294 0.930 . S
H266 C271 0.930 . S
H267 C275 0.930 . S
O268 Co237 2.037 . S
O268 C288 1.234 . S
C269 O243 1.269 . S
C269 O244 1.257 . S
C270 H245 0.930 . S
C270 C273 1.388 . S
C270 C275 1.418 . S
C271 H266 0.930 . S
C271 C274 1.404 . S
C271 C275 1.353 . S
N272 Co237 2.145 . S
N272 C273 1.397 . S
N272 C274 1.334 . S
C273 H254 0.929 . S
C273 C270 1.388 . S
C273 N272 1.397 . S
C274 H255 0.929 . S
C274 C271 1.404 . S
C274 N272 1.334 . S
C275 H267 0.930 . S
C275 C270 1.418 . S
C275 C271 1.353 . S
C276 H246 0.930 . S
C276 N277 1.330 . S
C276 C278 1.446 . S
N277 Co236 2.151 . S
N277 C276 1.330 . S
N277 C281 1.418 . S
C278 H257 0.929 . S
C278 C276 1.446 . S
C278 C279 1.332 . S
C279 H259 0.931 . S
C279 C278 1.332 . S
C279 C280 1.267 . S
C280 H248 0.929 . S
C280 C279 1.267 . S
C280 C281 1.251 . S
C281 H251 0.929 . S
C281 N277 1.418 . S
C281 C280 1.251 . S
C282 H249 0.930 . S
C282 C284 1.406 . S
C282 C287 1.261 . S
C283 H250 0.930 . S
C283 N285 1.325 . S
C283 C286 1.357 . S
C284 H252 0.928 . S
C284 C282 1.406 . S
C284 N285 1.261 . S
N285 Co236 2.214 . S
N285 C283 1.325 . S
N285 C284 1.261 . S
C286 H256 0.931 . S
C286 C283 1.357 . S
C286 C287 1.312 . S
C287 H258 0.930 . S
C287 C282 1.261 . S
C287 C286 1.312 . S
C288 O260 1.214 . S
C288 O268 1.234 . S
C289 H261 0.929 . S
C289 C292 1.391 . S
C289 C294 1.391 . S
C290 H262 0.929 . S
C290 C291 1.390 . S
C290 N293 1.391 . S
C291 H263 0.930 . S
C291 C290 1.390 . S
C291 C292 1.392 . S
C292 H264 0.929 . S
C292 C289 1.391 . S
C292 C291 1.392 . S
N293 Co237 2.257 . S
N293 C290 1.391 . S
N293 C294 1.388 . S
C294 H265 0.930 . S
C294 C289 1.391 . S
C294 N293 1.388 . S
Co295 O297 2.143 . S
Co295 O303 2.074 . S
Co295 O306 2.093 . S
Co295 O319 2.097 . S
Co295 N336 2.151 . S
Co295 N344 2.214 . S
Co296 O297 2.160 . S
Co296 O302 2.058 . S
Co296 O312 2.057 . S
Co296 O327 2.037 . S
Co296 N331 2.145 . S
Co296 N352 2.257 . S
O297 Co295 2.143 . S
O297 Co296 2.160 . S
C298 O299 1.278 . S
C298 O306 1.224 . S
O299 C298 1.278 . S
C300 O301 1.245 . S
C300 O312 1.232 . S
O301 C300 1.245 . S
O302 Co296 2.058 . S
O302 C328 1.269 . S
O303 Co295 2.074 . S
O303 C328 1.257 . S
H304 C329 0.930 . S
H305 C335 0.930 . S
O306 Co295 2.093 . S
O306 C298 1.224 . S
H307 C339 0.929 . S
H308 C341 0.930 . S
H309 C342 0.930 . S
H310 C340 0.929 . S
H311 C343 0.928 . S
O312 Co296 2.057 . S
O312 C300 1.232 . S
H313 C332 0.929 . S
H314 C333 0.929 . S
H315 C345 0.931 . S
H316 C337 0.929 . S
H317 C346 0.930 . S
H318 C338 0.931 . S
O319 Co295 2.097 . S
O319 C347 1.214 . S
H320 C348 0.929 . S
H321 C349 0.929 . S
H322 C350 0.930 . S
H323 C351 0.929 . S
H324 C353 0.930 . S
H325 C330 0.930 . S
H326 C334 0.930 . S
O327 Co296 2.037 . S
O327 C347 1.234 . S
C328 O302 1.269 . S
C328 O303 1.257 . S
C329 H304 0.930 . S
C329 C332 1.388 . S
C329 C334 1.418 . S
C330 H325 0.930 . S
C330 C333 1.404 . S
C330 C334 1.353 . S
N331 Co296 2.145 . S
N331 C332 1.397 . S
N331 C333 1.334 . S
C332 H313 0.929 . S
C332 C329 1.388 . S
C332 N331 1.397 . S
C333 H314 0.929 . S
C333 C330 1.404 . S
C333 N331 1.334 . S
C334 H326 0.930 . S
C334 C329 1.418 . S
C334 C330 1.353 . S
C335 H305 0.930 . S
C335 N336 1.330 . S
C335 C337 1.446 . S
N336 Co295 2.151 . S
N336 C335 1.330 . S
N336 C340 1.418 . S
C337 H316 0.929 . S
C337 C335 1.446 . S
C337 C338 1.332 . S
C338 H318 0.931 . S
C338 C337 1.332 . S
C338 C339 1.267 . S
C339 H307 0.929 . S
C339 C338 1.267 . S
C339 C340 1.251 . S
C340 H310 0.929 . S
C340 N336 1.418 . S
C340 C339 1.251 . S
C341 H308 0.930 . S
C341 C343 1.406 . S
C341 C346 1.261 . S
C342 H309 0.930 . S
C342 N344 1.325 . S
C342 C345 1.357 . S
C343 H311 0.928 . S
C343 C341 1.406 . S
C343 N344 1.261 . S
N344 Co295 2.214 . S
N344 C342 1.325 . S
N344 C343 1.261 . S
C345 H315 0.931 . S
C345 C342 1.357 . S
C345 C346 1.312 . S
C346 H317 0.930 . S
C346 C341 1.261 . S
C346 C345 1.312 . S
C347 O319 1.214 . S
C347 O327 1.234 . S
C348 H320 0.929 . S
C348 C351 1.391 . S
C348 C353 1.391 . S
C349 H321 0.929 . S
C349 C350 1.390 . S
C349 N352 1.391 . S
C350 H322 0.930 . S
C350 C349 1.390 . S
C350 C351 1.392 . S
C351 H323 0.929 . S
C351 C348 1.391 . S
C351 C350 1.392 . S
N352 Co296 2.257 . S
N352 C349 1.391 . S
N352 C353 1.388 . S
C353 H324 0.930 . S
C353 C348 1.391 . S
C353 N352 1.388 . S
Co354 O356 2.143 . S
Co354 O362 2.074 . S
Co354 O365 2.093 . S
Co354 O378 2.097 . S
Co354 N395 2.151 . S
Co354 N403 2.214 . S
Co355 O356 2.160 . S
Co355 O361 2.058 . S
Co355 O371 2.057 . S
Co355 O386 2.037 . S
Co355 N390 2.145 . S
Co355 N411 2.257 . S
O356 Co354 2.143 . S
O356 Co355 2.160 . S
C357 O358 1.278 . S
C357 O365 1.224 . S
O358 C357 1.278 . S
C359 O360 1.245 . S
C359 O371 1.232 . S
O360 C359 1.245 . S
O361 Co355 2.058 . S
O361 C387 1.269 . S
O362 Co354 2.074 . S
O362 C387 1.257 . S
H363 C388 0.930 . S
H364 C394 0.930 . S
O365 Co354 2.093 . S
O365 C357 1.224 . S
H366 C398 0.929 . S
H367 C400 0.930 . S
H368 C401 0.930 . S
H369 C399 0.929 . S
H370 C402 0.928 . S
O371 Co355 2.057 . S
O371 C359 1.232 . S
H372 C391 0.929 . S
H373 C392 0.929 . S
H374 C404 0.931 . S
H375 C396 0.929 . S
H376 C405 0.930 . S
H377 C397 0.931 . S
O378 Co354 2.097 . S
O378 C406 1.214 . S
H379 C407 0.929 . S
H380 C408 0.929 . S
H381 C409 0.930 . S
H382 C410 0.929 . S
H383 C412 0.930 . S
H384 C389 0.930 . S
H385 C393 0.930 . S
O386 Co355 2.037 . S
O386 C406 1.234 . S
C387 O361 1.269 . S
C387 O362 1.257 . S
C388 H363 0.930 . S
C388 C391 1.388 . S
C388 C393 1.418 . S
C389 H384 0.930 . S
C389 C392 1.404 . S
C389 C393 1.353 . S
N390 Co355 2.145 . S
N390 C391 1.397 . S
N390 C392 1.334 . S
C391 H372 0.929 . S
C391 C388 1.388 . S
C391 N390 1.397 . S
C392 H373 0.929 . S
C392 C389 1.404 . S
C392 N390 1.334 . S
C393 H385 0.930 . S
C393 C388 1.418 . S
C393 C389 1.353 . S
C394 H364 0.930 . S
C394 N395 1.330 . S
C394 C396 1.446 . S
N395 Co354 2.151 . S
N395 C394 1.330 . S
N395 C399 1.418 . S
C396 H375 0.929 . S
C396 C394 1.446 . S
C396 C397 1.332 . S
C397 H377 0.931 . S
C397 C396 1.332 . S
C397 C398 1.267 . S
C398 H366 0.929 . S
C398 C397 1.267 . S
C398 C399 1.251 . S
C399 H369 0.929 . S
C399 N395 1.418 . S
C399 C398 1.251 . S
C400 H367 0.930 . S
C400 C402 1.406 . S
C400 C405 1.261 . S
C401 H368 0.930 . S
C401 N403 1.325 . S
C401 C404 1.357 . S
C402 H370 0.928 . S
C402 C400 1.406 . S
C402 N403 1.261 . S
N403 Co354 2.214 . S
N403 C401 1.325 . S
N403 C402 1.261 . S
C404 H374 0.931 . S
C404 C401 1.357 . S
C404 C405 1.312 . S
C405 H376 0.930 . S
C405 C400 1.261 . S
C405 C404 1.312 . S
C406 O378 1.214 . S
C406 O386 1.234 . S
C407 H379 0.929 . S
C407 C410 1.391 . S
C407 C412 1.391 . S
C408 H380 0.929 . S
C408 C409 1.390 . S
C408 N411 1.391 . S
C409 H381 0.930 . S
C409 C408 1.390 . S
C409 C410 1.392 . S
C410 H382 0.929 . S
C410 C407 1.391 . S
C410 C409 1.392 . S
N411 Co355 2.257 . S
N411 C408 1.391 . S
N411 C412 1.388 . S
C412 H383 0.930 . S
C412 C407 1.391 . S
C412 N411 1.388 . S
Co413 O415 2.143 . S
Co413 O421 2.074 . S
Co413 O424 2.093 . S
Co413 O437 2.097 . S
Co413 N454 2.151 . S
Co413 N462 2.214 . S
Co414 O415 2.160 . S
Co414 O420 2.058 . S
Co414 O430 2.057 . S
Co414 O445 2.037 . S
Co414 N449 2.145 . S
Co414 N470 2.257 . S
O415 Co413 2.143 . S
O415 Co414 2.160 . S
C416 O417 1.278 . S
C416 O424 1.224 . S
O417 C416 1.278 . S
C418 O419 1.245 . S
C418 O430 1.232 . S
O419 C418 1.245 . S
O420 Co414 2.058 . S
O420 C446 1.269 . S
O421 Co413 2.074 . S
O421 C446 1.257 . S
H422 C447 0.930 . S
H423 C453 0.930 . S
O424 Co413 2.093 . S
O424 C416 1.224 . S
H425 C457 0.929 . S
H426 C459 0.930 . S
H427 C460 0.930 . S
H428 C458 0.929 . S
H429 C461 0.928 . S
O430 Co414 2.057 . S
O430 C418 1.232 . S
H431 C450 0.929 . S
H432 C451 0.929 . S
H433 C463 0.931 . S
H434 C455 0.929 . S
H435 C464 0.930 . S
H436 C456 0.931 . S
O437 Co413 2.097 . S
O437 C465 1.214 . S
H438 C466 0.929 . S
H439 C467 0.929 . S
H440 C468 0.930 . S
H441 C469 0.929 . S
H442 C471 0.930 . S
H443 C448 0.930 . S
H444 C452 0.930 . S
O445 Co414 2.037 . S
O445 C465 1.234 . S
C446 O420 1.269 . S
C446 O421 1.257 . S
C447 H422 0.930 . S
C447 C450 1.388 . S
C447 C452 1.418 . S
C448 H443 0.930 . S
C448 C451 1.404 . S
C448 C452 1.353 . S
N449 Co414 2.145 . S
N449 C450 1.397 . S
N449 C451 1.334 . S
C450 H431 0.929 . S
C450 C447 1.388 . S
C450 N449 1.397 . S
C451 H432 0.929 . S
C451 C448 1.404 . S
C451 N449 1.334 . S
C452 H444 0.930 . S
C452 C447 1.418 . S
C452 C448 1.353 . S
C453 H423 0.930 . S
C453 N454 1.330 . S
C453 C455 1.446 . S
N454 Co413 2.151 . S
N454 C453 1.330 . S
N454 C458 1.418 . S
C455 H434 0.929 . S
C455 C453 1.446 . S
C455 C456 1.332 . S
C456 H436 0.931 . S
C456 C455 1.332 . S
C456 C457 1.267 . S
C457 H425 0.929 . S
C457 C456 1.267 . S
C457 C458 1.251 . S
C458 H428 0.929 . S
C458 N454 1.418 . S
C458 C457 1.251 . S
C459 H426 0.930 . S
C459 C461 1.406 . S
C459 C464 1.261 . S
C460 H427 0.930 . S
C460 N462 1.325 . S
C460 C463 1.357 . S
C461 H429 0.928 . S
C461 C459 1.406 . S
C461 N462 1.261 . S
N462 Co413 2.214 . S
N462 C460 1.325 . S
N462 C461 1.261 . S
C463 H433 0.931 . S
C463 C460 1.357 . S
C463 C464 1.312 . S
C464 H435 0.930 . S
C464 C459 1.261 . S
C464 C463 1.312 . S
C465 O437 1.214 . S
C465 O445 1.234 . S
C466 H438 0.929 . S
C466 C469 1.391 . S
C466 C471 1.391 . S
C467 H439 0.929 . S
C467 C468 1.390 . S
C467 N470 1.391 . S
C468 H440 0.930 . S
C468 C467 1.390 . S
C468 C469 1.392 . S
C469 H441 0.929 . S
C469 C466 1.391 . S
C469 C468 1.392 . S
N470 Co414 2.257 . S
N470 C467 1.391 . S
N470 C471 1.388 . S
C471 H442 0.930 . S
C471 C466 1.391 . S
C471 N470 1.388 . S
Co472 O474 2.143 . S
Co472 O480 2.074 . S
Co472 O483 2.093 . S
Co472 O496 2.097 . S
Co472 N513 2.151 . S
Co472 N521 2.214 . S
Co473 O474 2.160 . S
Co473 O479 2.058 . S
Co473 O489 2.057 . S
Co473 O504 2.037 . S
Co473 N508 2.145 . S
Co473 N529 2.257 . S
O474 Co472 2.143 . S
O474 Co473 2.160 . S
C475 O476 1.278 . S
C475 O483 1.224 . S
O476 C475 1.278 . S
C477 O478 1.245 . S
C477 O489 1.232 . S
O478 C477 1.245 . S
O479 Co473 2.058 . S
O479 C505 1.269 . S
O480 Co472 2.074 . S
O480 C505 1.257 . S
H481 C506 0.930 . S
H482 C512 0.930 . S
O483 Co472 2.093 . S
O483 C475 1.224 . S
H484 C516 0.929 . S
H485 C518 0.930 . S
H486 C519 0.930 . S
H487 C517 0.929 . S
H488 C520 0.928 . S
O489 Co473 2.057 . S
O489 C477 1.232 . S
H490 C509 0.929 . S
H491 C510 0.929 . S
H492 C522 0.931 . S
H493 C514 0.929 . S
H494 C523 0.930 . S
H495 C515 0.931 . S
O496 Co472 2.097 . S
O496 C524 1.214 . S
H497 C525 0.929 . S
H498 C526 0.929 . S
H499 C527 0.930 . S
H500 C528 0.929 . S
H501 C530 0.930 . S
H502 C507 0.930 . S
H503 C511 0.930 . S
O504 Co473 2.037 . S
O504 C524 1.234 . S
C505 O479 1.269 . S
C505 O480 1.257 . S
C506 H481 0.930 . S
C506 C509 1.388 . S
C506 C511 1.418 . S
C507 H502 0.930 . S
C507 C510 1.404 . S
C507 C511 1.353 . S
N508 Co473 2.145 . S
N508 C509 1.397 . S
N508 C510 1.334 . S
C509 H490 0.929 . S
C509 C506 1.388 . S
C509 N508 1.397 . S
C510 H491 0.929 . S
C510 C507 1.404 . S
C510 N508 1.334 . S
C511 H503 0.930 . S
C511 C506 1.418 . S
C511 C507 1.353 . S
C512 H482 0.930 . S
C512 N513 1.330 1_565 S
C512 C514 1.446 . S
N513 Co472 2.151 . S
N513 C512 1.330 1_545 S
N513 C517 1.418 . S
C514 H493 0.929 . S
C514 C512 1.446 . S
C514 C515 1.332 . S
C515 H495 0.931 . S
C515 C514 1.332 . S
C515 C516 1.267 1_565 S
C516 H484 0.929 . S
C516 C515 1.267 1_545 S
C516 C517 1.251 . S
C517 H487 0.929 . S
C517 N513 1.418 . S
C517 C516 1.251 . S
C518 H485 0.930 . S
C518 C520 1.406 . S
C518 C523 1.261 . S
C519 H486 0.930 . S
C519 N521 1.325 . S
C519 C522 1.357 . S
C520 H488 0.928 . S
C520 C518 1.406 . S
C520 N521 1.261 . S
N521 Co472 2.214 . S
N521 C519 1.325 . S
N521 C520 1.261 . S
C522 H492 0.931 . S
C522 C519 1.357 . S
C522 C523 1.312 . S
C523 H494 0.930 . S
C523 C518 1.261 . S
C523 C522 1.312 . S
C524 O496 1.214 . S
C524 O504 1.234 . S
C525 H497 0.929 . S
C525 C528 1.391 . S
C525 C530 1.391 . S
C526 H498 0.929 . S
C526 C527 1.390 . S
C526 N529 1.391 . S
C527 H499 0.930 . S
C527 C526 1.390 . S
C527 C528 1.392 . S
C528 H500 0.929 . S
C528 C525 1.391 . S
C528 C527 1.392 . S
N529 Co473 2.257 . S
N529 C526 1.391 . S
N529 C530 1.388 . S
C530 H501 0.930 . S
C530 C525 1.391 . S
C530 N529 1.388 . S
Co531 O533 2.143 . S
Co531 O539 2.074 . S
Co531 O542 2.093 . S
Co531 O555 2.097 . S
Co531 N572 2.151 . S
Co531 N580 2.214 . S
Co532 O533 2.160 . S
Co532 O538 2.058 . S
Co532 O548 2.057 . S
Co532 O563 2.037 . S
Co532 N567 2.145 . S
Co532 N588 2.257 . S
O533 Co531 2.143 . S
O533 Co532 2.160 . S
C534 O535 1.278 . S
C534 O542 1.224 . S
O535 C534 1.278 . S
C536 O537 1.245 . S
C536 O548 1.232 . S
O537 C536 1.245 . S
O538 Co532 2.058 . S
O538 C564 1.269 . S
O539 Co531 2.074 . S
O539 C564 1.257 . S
H540 C565 0.930 . S
H541 C571 0.930 . S
O542 Co531 2.093 . S
O542 C534 1.224 . S
H543 C575 0.929 . S
H544 C577 0.930 . S
H545 C578 0.930 . S
H546 C576 0.929 . S
H547 C579 0.928 . S
O548 Co532 2.057 . S
O548 C536 1.232 . S
H549 C568 0.929 . S
H550 C569 0.929 . S
H551 C581 0.931 . S
H552 C573 0.929 . S
H553 C582 0.930 . S
H554 C574 0.931 . S
O555 Co531 2.097 . S
O555 C583 1.214 . S
H556 C584 0.929 . S
H557 C585 0.929 . S
H558 C586 0.930 . S
H559 C587 0.929 . S
H560 C589 0.930 . S
H561 C566 0.930 . S
H562 C570 0.930 . S
O563 Co532 2.037 . S
O563 C583 1.234 . S
C564 O538 1.269 . S
C564 O539 1.257 . S
C565 H540 0.930 . S
C565 C568 1.388 . S
C565 C570 1.418 . S
C566 H561 0.930 . S
C566 C569 1.404 . S
C566 C570 1.353 . S
N567 Co532 2.145 . S
N567 C568 1.397 . S
N567 C569 1.334 . S
C568 H549 0.929 . S
C568 C565 1.388 . S
C568 N567 1.397 . S
C569 H550 0.929 . S
C569 C566 1.404 . S
C569 N567 1.334 . S
C570 H562 0.930 . S
C570 C565 1.418 . S
C570 C566 1.353 . S
C571 H541 0.930 . S
C571 N572 1.330 1_565 S
C571 C573 1.446 . S
N572 Co531 2.151 . S
N572 C571 1.330 1_545 S
N572 C576 1.418 . S
C573 H552 0.929 . S
C573 C571 1.446 . S
C573 C574 1.332 . S
C574 H554 0.931 . S
C574 C573 1.332 . S
C574 C575 1.267 1_565 S
C575 H543 0.929 . S
C575 C574 1.267 1_545 S
C575 C576 1.251 . S
C576 H546 0.929 . S
C576 N572 1.418 . S
C576 C575 1.251 . S
C577 H544 0.930 . S
C577 C579 1.406 . S
C577 C582 1.261 . S
C578 H545 0.930 . S
C578 N580 1.325 . S
C578 C581 1.357 . S
C579 H547 0.928 . S
C579 C577 1.406 . S
C579 N580 1.261 . S
N580 Co531 2.214 . S
N580 C578 1.325 . S
N580 C579 1.261 . S
C581 H551 0.931 . S
C581 C578 1.357 . S
C581 C582 1.312 . S
C582 H553 0.930 . S
C582 C577 1.261 . S
C582 C581 1.312 . S
C583 O555 1.214 . S
C583 O563 1.234 . S
C584 H556 0.929 . S
C584 C587 1.391 . S
C584 C589 1.391 . S
C585 H557 0.929 . S
C585 C586 1.390 . S
C585 N588 1.391 . S
C586 H558 0.930 . S
C586 C585 1.390 . S
C586 C587 1.392 . S
C587 H559 0.929 . S
C587 C584 1.391 . S
C587 C586 1.392 . S
N588 Co532 2.257 . S
N588 C585 1.391 . S
N588 C589 1.388 . S
C589 H560 0.930 . S
C589 C584 1.391 . S
C589 N588 1.388 . S
Co590 O592 2.143 . S
Co590 O598 2.074 . S
Co590 O601 2.093 . S
Co590 O614 2.097 . S
Co590 N631 2.151 . S
Co590 N639 2.214 . S
Co591 O592 2.160 . S
Co591 O597 2.058 . S
Co591 O607 2.057 . S
Co591 O622 2.037 . S
Co591 N626 2.145 . S
Co591 N647 2.257 . S
O592 Co590 2.143 . S
O592 Co591 2.160 . S
C593 O594 1.278 . S
C593 O601 1.224 . S
O594 C593 1.278 . S
C595 O596 1.245 . S
C595 O607 1.232 . S
O596 C595 1.245 . S
O597 Co591 2.058 . S
O597 C623 1.269 . S
O598 Co590 2.074 . S
O598 C623 1.257 . S
H599 C624 0.930 . S
H600 C630 0.930 . S
O601 Co590 2.093 . S
O601 C593 1.224 . S
H602 C634 0.929 . S
H603 C636 0.930 . S
H604 C637 0.930 . S
H605 C635 0.929 . S
H606 C638 0.928 . S
O607 Co591 2.057 . S
O607 C595 1.232 . S
H608 C627 0.929 . S
H609 C628 0.929 . S
H610 C640 0.931 . S
H611 C632 0.929 . S
H612 C641 0.930 . S
H613 C633 0.931 . S
O614 Co590 2.097 . S
O614 C642 1.214 . S
H615 C643 0.929 . S
H616 C644 0.929 . S
H617 C645 0.930 . S
H618 C646 0.929 . S
H619 C648 0.930 . S
H620 C625 0.930 . S
H621 C629 0.930 . S
O622 Co591 2.037 . S
O622 C642 1.234 . S
C623 O597 1.269 . S
C623 O598 1.257 . S
C624 H599 0.930 . S
C624 C627 1.388 . S
C624 C629 1.418 . S
C625 H620 0.930 . S
C625 C628 1.404 . S
C625 C629 1.353 . S
N626 Co591 2.145 . S
N626 C627 1.397 . S
N626 C628 1.334 . S
C627 H608 0.929 . S
C627 C624 1.388 . S
C627 N626 1.397 . S
C628 H609 0.929 . S
C628 C625 1.404 . S
C628 N626 1.334 . S
C629 H621 0.930 . S
C629 C624 1.418 . S
C629 C625 1.353 . S
C630 H600 0.930 . S
C630 N631 1.330 1_545 S
C630 C632 1.446 . S
N631 Co590 2.151 . S
N631 C630 1.330 1_565 S
N631 C635 1.418 . S
C632 H611 0.929 . S
C632 C630 1.446 . S
C632 C633 1.332 . S
C633 H613 0.931 . S
C633 C632 1.332 . S
C633 C634 1.267 1_545 S
C634 H602 0.929 . S
C634 C633 1.267 1_565 S
C634 C635 1.251 . S
C635 H605 0.929 . S
C635 N631 1.418 . S
C635 C634 1.251 . S
C636 H603 0.930 . S
C636 C638 1.406 . S
C636 C641 1.261 . S
C637 H604 0.930 . S
C637 N639 1.325 . S
C637 C640 1.357 . S
C638 H606 0.928 . S
C638 C636 1.406 . S
C638 N639 1.261 . S
N639 Co590 2.214 . S
N639 C637 1.325 . S
N639 C638 1.261 . S
C640 H610 0.931 . S
C640 C637 1.357 . S
C640 C641 1.312 . S
C641 H612 0.930 . S
C641 C636 1.261 . S
C641 C640 1.312 . S
C642 O614 1.214 . S
C642 O622 1.234 . S
C643 H615 0.929 . S
C643 C646 1.391 . S
C643 C648 1.391 . S
C644 H616 0.929 . S
C644 C645 1.390 . S
C644 N647 1.391 . S
C645 H617 0.930 . S
C645 C644 1.390 . S
C645 C646 1.392 . S
C646 H618 0.929 . S
C646 C643 1.391 . S
C646 C645 1.392 . S
N647 Co591 2.257 . S
N647 C644 1.391 . S
N647 C648 1.388 . S
C648 H619 0.930 . S
C648 C643 1.391 . S
C648 N647 1.388 . S
Co649 O651 2.143 . S
Co649 O657 2.074 . S
Co649 O660 2.093 . S
Co649 O673 2.097 . S
Co649 N690 2.151 . S
Co649 N698 2.214 . S
Co650 O651 2.160 . S
Co650 O656 2.058 . S
Co650 O666 2.057 . S
Co650 O681 2.037 . S
Co650 N685 2.145 . S
Co650 N706 2.257 . S
O651 Co649 2.143 . S
O651 Co650 2.160 . S
C652 O653 1.278 . S
C652 O660 1.224 . S
O653 C652 1.278 . S
C654 O655 1.245 . S
C654 O666 1.232 . S
O655 C654 1.245 . S
O656 Co650 2.058 . S
O656 C682 1.269 . S
O657 Co649 2.074 . S
O657 C682 1.257 . S
H658 C683 0.930 . S
H659 C689 0.930 . S
O660 Co649 2.093 . S
O660 C652 1.224 . S
H661 C693 0.929 . S
H662 C695 0.930 . S
H663 C696 0.930 . S
H664 C694 0.929 . S
H665 C697 0.928 . S
O666 Co650 2.057 . S
O666 C654 1.232 . S
H667 C686 0.929 . S
H668 C687 0.929 . S
H669 C699 0.931 . S
H670 C691 0.929 . S
H671 C700 0.930 . S
H672 C692 0.931 . S
O673 Co649 2.097 . S
O673 C701 1.214 . S
H674 C702 0.929 . S
H675 C703 0.929 . S
H676 C704 0.930 . S
H677 C705 0.929 . S
H678 C707 0.930 . S
H679 C684 0.930 . S
H680 C688 0.930 . S
O681 Co650 2.037 . S
O681 C701 1.234 . S
C682 O656 1.269 . S
C682 O657 1.257 . S
C683 H658 0.930 . S
C683 C686 1.388 . S
C683 C688 1.418 . S
C684 H679 0.930 . S
C684 C687 1.404 . S
C684 C688 1.353 . S
N685 Co650 2.145 . S
N685 C686 1.397 . S
N685 C687 1.334 . S
C686 H667 0.929 . S
C686 C683 1.388 . S
C686 N685 1.397 . S
C687 H668 0.929 . S
C687 C684 1.404 . S
C687 N685 1.334 . S
C688 H680 0.930 . S
C688 C683 1.418 . S
C688 C684 1.353 . S
C689 H659 0.930 . S
C689 N690 1.330 1_545 S
C689 C691 1.446 . S
N690 Co649 2.151 . S
N690 C689 1.330 1_565 S
N690 C694 1.418 . S
C691 H670 0.929 . S
C691 C689 1.446 . S
C691 C692 1.332 . S
C692 H672 0.931 . S
C692 C691 1.332 . S
C692 C693 1.267 1_545 S
C693 H661 0.929 . S
C693 C692 1.267 1_565 S
C693 C694 1.251 . S
C694 H664 0.929 . S
C694 N690 1.418 . S
C694 C693 1.251 . S
C695 H662 0.930 . S
C695 C697 1.406 . S
C695 C700 1.261 . S
C696 H663 0.930 . S
C696 N698 1.325 . S
C696 C699 1.357 . S
C697 H665 0.928 . S
C697 C695 1.406 . S
C697 N698 1.261 . S
N698 Co649 2.214 . S
N698 C696 1.325 . S
N698 C697 1.261 . S
C699 H669 0.931 . S
C699 C696 1.357 . S
C699 C700 1.312 . S
C700 H671 0.930 . S
C700 C695 1.261 . S
C700 C699 1.312 . S
C701 O673 1.214 . S
C701 O681 1.234 . S
C702 H674 0.929 . S
C702 C705 1.391 . S
C702 C707 1.391 . S
C703 H675 0.929 . S
C703 C704 1.390 . S
C703 N706 1.391 . S
C704 H676 0.930 . S
C704 C703 1.390 . S
C704 C705 1.392 . S
C705 H677 0.929 . S
C705 C702 1.391 . S
C705 C704 1.392 . S
N706 Co650 2.257 . S
N706 C703 1.391 . S
N706 C707 1.388 . S
C707 H678 0.930 . S
C707 C702 1.391 . S
C707 N706 1.388 . S
Co708 O710 2.143 . S
Co708 O716 2.074 . S
Co708 O719 2.093 . S
Co708 O732 2.097 . S
Co708 N749 2.151 . S
Co708 N757 2.214 . S
Co709 O710 2.160 . S
Co709 O715 2.058 . S
Co709 O725 2.057 . S
Co709 O740 2.037 . S
Co709 N744 2.145 . S
Co709 N765 2.257 . S
O710 Co708 2.143 . S
O710 Co709 2.160 . S
C711 O712 1.278 . S
C711 O719 1.224 . S
O712 C711 1.278 . S
C713 O714 1.245 . S
C713 O725 1.232 . S
O714 C713 1.245 . S
O715 Co709 2.058 . S
O715 C741 1.269 . S
O716 Co708 2.074 . S
O716 C741 1.257 . S
H717 C742 0.930 . S
H718 C748 0.930 . S
O719 Co708 2.093 . S
O719 C711 1.224 . S
H720 C752 0.929 . S
H721 C754 0.930 . S
H722 C755 0.930 . S
H723 C753 0.929 . S
H724 C756 0.928 . S
O725 Co709 2.057 . S
O725 C713 1.232 . S
H726 C745 0.929 . S
H727 C746 0.929 . S
H728 C758 0.931 . S
H729 C750 0.929 . S
H730 C759 0.930 . S
H731 C751 0.931 . S
O732 Co708 2.097 . S
O732 C760 1.214 . S
H733 C761 0.929 . S
H734 C762 0.929 . S
H735 C763 0.930 . S
H736 C764 0.929 . S
H737 C766 0.930 . S
H738 C743 0.930 . S
H739 C747 0.930 . S
O740 Co709 2.037 . S
O740 C760 1.234 . S
C741 O715 1.269 . S
C741 O716 1.257 . S
C742 H717 0.930 . S
C742 C745 1.388 . S
C742 C747 1.418 . S
C743 H738 0.930 . S
C743 C746 1.404 . S
C743 C747 1.353 . S
N744 Co709 2.145 . S
N744 C745 1.397 . S
N744 C746 1.334 . S
C745 H726 0.929 . S
C745 C742 1.388 . S
C745 N744 1.397 . S
C746 H727 0.929 . S
C746 C743 1.404 . S
C746 N744 1.334 . S
C747 H739 0.930 . S
C747 C742 1.418 . S
C747 C743 1.353 . S
C748 H718 0.930 . S
C748 N749 1.330 . S
C748 C750 1.446 . S
N749 Co708 2.151 . S
N749 C748 1.330 . S
N749 C753 1.418 . S
C750 H729 0.929 . S
C750 C748 1.446 . S
C750 C751 1.332 . S
C751 H731 0.931 . S
C751 C750 1.332 . S
C751 C752 1.267 . S
C752 H720 0.929 . S
C752 C751 1.267 . S
C752 C753 1.251 . S
C753 H723 0.929 . S
C753 N749 1.418 . S
C753 C752 1.251 . S
C754 H721 0.930 . S
C754 C756 1.406 . S
C754 C759 1.261 . S
C755 H722 0.930 . S
C755 N757 1.325 . S
C755 C758 1.357 . S
C756 H724 0.928 . S
C756 C754 1.406 . S
C756 N757 1.261 . S
N757 Co708 2.214 . S
N757 C755 1.325 . S
N757 C756 1.261 . S
C758 H728 0.931 . S
C758 C755 1.357 . S
C758 C759 1.312 . S
C759 H730 0.930 . S
C759 C754 1.261 . S
C759 C758 1.312 . S
C760 O732 1.214 . S
C760 O740 1.234 . S
C761 H733 0.929 . S
C761 C764 1.391 . S
C761 C766 1.391 . S
C762 H734 0.929 . S
C762 C763 1.390 . S
C762 N765 1.391 . S
C763 H735 0.930 . S
C763 C762 1.390 . S
C763 C764 1.392 . S
C764 H736 0.929 . S
C764 C761 1.391 . S
C764 C763 1.392 . S
N765 Co709 2.257 . S
N765 C762 1.391 . S
N765 C766 1.388 . S
C766 H737 0.930 . S
C766 C761 1.391 . S
C766 N765 1.388 . S
Co767 O769 2.143 . S
Co767 O775 2.074 . S
Co767 O778 2.093 . S
Co767 O791 2.097 . S
Co767 N808 2.151 . S
Co767 N816 2.214 . S
Co768 O769 2.160 . S
Co768 O774 2.058 . S
Co768 O784 2.057 . S
Co768 O799 2.037 . S
Co768 N803 2.145 . S
Co768 N824 2.257 . S
O769 Co767 2.143 . S
O769 Co768 2.160 . S
C770 O771 1.278 . S
C770 O778 1.224 . S
O771 C770 1.278 . S
C772 O773 1.245 . S
C772 O784 1.232 . S
O773 C772 1.245 . S
O774 Co768 2.058 . S
O774 C800 1.269 . S
O775 Co767 2.074 . S
O775 C800 1.257 . S
H776 C801 0.930 . S
H777 C807 0.930 . S
O778 Co767 2.093 . S
O778 C770 1.224 . S
H779 C811 0.929 . S
H780 C813 0.930 . S
H781 C814 0.930 . S
H782 C812 0.929 . S
H783 C815 0.928 . S
O784 Co768 2.057 . S
O784 C772 1.232 . S
H785 C804 0.929 . S
H786 C805 0.929 . S
H787 C817 0.931 . S
H788 C809 0.929 . S
H789 C818 0.930 . S
H790 C810 0.931 . S
O791 Co767 2.097 . S
O791 C819 1.214 . S
H792 C820 0.929 . S
H793 C821 0.929 . S
H794 C822 0.930 . S
H795 C823 0.929 . S
H796 C825 0.930 . S
H797 C802 0.930 . S
H798 C806 0.930 . S
O799 Co768 2.037 . S
O799 C819 1.234 . S
C800 O774 1.269 . S
C800 O775 1.257 . S
C801 H776 0.930 . S
C801 C804 1.388 . S
C801 C806 1.418 . S
C802 H797 0.930 . S
C802 C805 1.404 . S
C802 C806 1.353 . S
N803 Co768 2.145 . S
N803 C804 1.397 . S
N803 C805 1.334 . S
C804 H785 0.929 . S
C804 C801 1.388 . S
C804 N803 1.397 . S
C805 H786 0.929 . S
C805 C802 1.404 . S
C805 N803 1.334 . S
C806 H798 0.930 . S
C806 C801 1.418 . S
C806 C802 1.353 . S
C807 H777 0.930 . S
C807 N808 1.330 . S
C807 C809 1.446 . S
N808 Co767 2.151 . S
N808 C807 1.330 . S
N808 C812 1.418 . S
C809 H788 0.929 . S
C809 C807 1.446 . S
C809 C810 1.332 . S
C810 H790 0.931 . S
C810 C809 1.332 . S
C810 C811 1.267 . S
C811 H779 0.929 . S
C811 C810 1.267 . S
C811 C812 1.251 . S
C812 H782 0.929 . S
C812 N808 1.418 . S
C812 C811 1.251 . S
C813 H780 0.930 . S
C813 C815 1.406 . S
C813 C818 1.261 . S
C814 H781 0.930 . S
C814 N816 1.325 . S
C814 C817 1.357 . S
C815 H783 0.928 . S
C815 C813 1.406 . S
C815 N816 1.261 . S
N816 Co767 2.214 . S
N816 C814 1.325 . S
N816 C815 1.261 . S
C817 H787 0.931 . S
C817 C814 1.357 . S
C817 C818 1.312 . S
C818 H789 0.930 . S
C818 C813 1.261 . S
C818 C817 1.312 . S
C819 O791 1.214 . S
C819 O799 1.234 . S
C820 H792 0.929 . S
C820 C823 1.391 . S
C820 C825 1.391 . S
C821 H793 0.929 . S
C821 C822 1.390 . S
C821 N824 1.391 . S
C822 H794 0.930 . S
C822 C821 1.390 . S
C822 C823 1.392 . S
C823 H795 0.929 . S
C823 C820 1.391 . S
C823 C822 1.392 . S
N824 Co768 2.257 . S
N824 C821 1.391 . S
N824 C825 1.388 . S
C825 H796 0.930 . S
C825 C820 1.391 . S
C825 N824 1.388 . S
Co826 O828 2.143 . S
Co826 O834 2.074 . S
Co826 O837 2.093 . S
Co826 O850 2.097 . S
Co826 N867 2.151 . S
Co826 N875 2.214 . S
Co827 O828 2.160 . S
Co827 O833 2.058 . S
Co827 O843 2.057 . S
Co827 O858 2.037 . S
Co827 N862 2.145 . S
Co827 N883 2.257 . S
O828 Co826 2.143 . S
O828 Co827 2.160 . S
C829 O830 1.278 . S
C829 O837 1.224 . S
O830 C829 1.278 . S
C831 O832 1.245 . S
C831 O843 1.232 . S
O832 C831 1.245 . S
O833 Co827 2.058 . S
O833 C859 1.269 . S
O834 Co826 2.074 . S
O834 C859 1.257 . S
H835 C860 0.930 . S
H836 C866 0.930 . S
O837 Co826 2.093 . S
O837 C829 1.224 . S
H838 C870 0.929 . S
H839 C872 0.930 . S
H840 C873 0.930 . S
H841 C871 0.929 . S
H842 C874 0.928 . S
O843 Co827 2.057 . S
O843 C831 1.232 . S
H844 C863 0.929 . S
H845 C864 0.929 . S
H846 C876 0.931 . S
H847 C868 0.929 . S
H848 C877 0.930 . S
H849 C869 0.931 . S
O850 Co826 2.097 . S
O850 C878 1.214 . S
H851 C879 0.929 . S
H852 C880 0.929 . S
H853 C881 0.930 . S
H854 C882 0.929 . S
H855 C884 0.930 . S
H856 C861 0.930 . S
H857 C865 0.930 . S
O858 Co827 2.037 . S
O858 C878 1.234 . S
C859 O833 1.269 . S
C859 O834 1.257 . S
C860 H835 0.930 . S
C860 C863 1.388 . S
C860 C865 1.418 . S
C861 H856 0.930 . S
C861 C864 1.404 . S
C861 C865 1.353 . S
N862 Co827 2.145 . S
N862 C863 1.397 . S
N862 C864 1.334 . S
C863 H844 0.929 . S
C863 C860 1.388 . S
C863 N862 1.397 . S
C864 H845 0.929 . S
C864 C861 1.404 . S
C864 N862 1.334 . S
C865 H857 0.930 . S
C865 C860 1.418 . S
C865 C861 1.353 . S
C866 H836 0.930 . S
C866 N867 1.330 . S
C866 C868 1.446 . S
N867 Co826 2.151 . S
N867 C866 1.330 . S
N867 C871 1.418 . S
C868 H847 0.929 . S
C868 C866 1.446 . S
C868 C869 1.332 . S
C869 H849 0.931 . S
C869 C868 1.332 . S
C869 C870 1.267 . S
C870 H838 0.929 . S
C870 C869 1.267 . S
C870 C871 1.251 . S
C871 H841 0.929 . S
C871 N867 1.418 . S
C871 C870 1.251 . S
C872 H839 0.930 . S
C872 C874 1.406 . S
C872 C877 1.261 . S
C873 H840 0.930 . S
C873 N875 1.325 . S
C873 C876 1.357 . S
C874 H842 0.928 . S
C874 C872 1.406 . S
C874 N875 1.261 . S
N875 Co826 2.214 . S
N875 C873 1.325 . S
N875 C874 1.261 . S
C876 H846 0.931 . S
C876 C873 1.357 . S
C876 C877 1.312 . S
C877 H848 0.930 . S
C877 C872 1.261 . S
C877 C876 1.312 . S
C878 O850 1.214 . S
C878 O858 1.234 . S
C879 H851 0.929 . S
C879 C882 1.391 . S
C879 C884 1.391 . S
C880 H852 0.929 . S
C880 C881 1.390 . S
C880 N883 1.391 . S
C881 H853 0.930 . S
C881 C880 1.390 . S
C881 C882 1.392 . S
C882 H854 0.929 . S
C882 C879 1.391 . S
C882 C881 1.392 . S
N883 Co827 2.257 . S
N883 C880 1.391 . S
N883 C884 1.388 . S
C884 H855 0.930 . S
C884 C879 1.391 . S
C884 N883 1.388 . S
Co885 O887 2.143 . S
Co885 O893 2.074 . S
Co885 O896 2.093 . S
Co885 O909 2.097 . S
Co885 N926 2.151 . S
Co885 N934 2.214 . S
Co886 O887 2.160 . S
Co886 O892 2.058 . S
Co886 O902 2.057 . S
Co886 O917 2.037 . S
Co886 N921 2.145 . S
Co886 N942 2.257 . S
O887 Co885 2.143 . S
O887 Co886 2.160 . S
C888 O889 1.278 . S
C888 O896 1.224 . S
O889 C888 1.278 . S
C890 O891 1.245 . S
C890 O902 1.232 . S
O891 C890 1.245 . S
O892 Co886 2.058 . S
O892 C918 1.269 . S
O893 Co885 2.074 . S
O893 C918 1.257 . S
H894 C919 0.930 . S
H895 C925 0.930 . S
O896 Co885 2.093 . S
O896 C888 1.224 . S
H897 C929 0.929 . S
H898 C931 0.930 . S
H899 C932 0.930 . S
H900 C930 0.929 . S
H901 C933 0.928 . S
O902 Co886 2.057 . S
O902 C890 1.232 . S
H903 C922 0.929 . S
H904 C923 0.929 . S
H905 C935 0.931 . S
H906 C927 0.929 . S
H907 C936 0.930 . S
H908 C928 0.931 . S
O909 Co885 2.097 . S
O909 C937 1.214 . S
H910 C938 0.929 . S
H911 C939 0.929 . S
H912 C940 0.930 . S
H913 C941 0.929 . S
H914 C943 0.930 . S
H915 C920 0.930 . S
H916 C924 0.930 . S
O917 Co886 2.037 . S
O917 C937 1.234 . S
C918 O892 1.269 . S
C918 O893 1.257 . S
C919 H894 0.930 . S
C919 C922 1.388 . S
C919 C924 1.418 . S
C920 H915 0.930 . S
C920 C923 1.404 . S
C920 C924 1.353 . S
N921 Co886 2.145 . S
N921 C922 1.397 . S
N921 C923 1.334 . S
C922 H903 0.929 . S
C922 C919 1.388 . S
C922 N921 1.397 . S
C923 H904 0.929 . S
C923 C920 1.404 . S
C923 N921 1.334 . S
C924 H916 0.930 . S
C924 C919 1.418 . S
C924 C920 1.353 . S
C925 H895 0.930 . S
C925 N926 1.330 . S
C925 C927 1.446 . S
N926 Co885 2.151 . S
N926 C925 1.330 . S
N926 C930 1.418 . S
C927 H906 0.929 . S
C927 C925 1.446 . S
C927 C928 1.332 . S
C928 H908 0.931 . S
C928 C927 1.332 . S
C928 C929 1.267 . S
C929 H897 0.929 . S
C929 C928 1.267 . S
C929 C930 1.251 . S
C930 H900 0.929 . S
C930 N926 1.418 . S
C930 C929 1.251 . S
C931 H898 0.930 . S
C931 C933 1.406 . S
C931 C936 1.261 . S
C932 H899 0.930 . S
C932 N934 1.325 . S
C932 C935 1.357 . S
C933 H901 0.928 . S
C933 C931 1.406 . S
C933 N934 1.261 . S
N934 Co885 2.214 . S
N934 C932 1.325 . S
N934 C933 1.261 . S
C935 H905 0.931 . S
C935 C932 1.357 . S
C935 C936 1.312 . S
C936 H907 0.930 . S
C936 C931 1.261 . S
C936 C935 1.312 . S
C937 O909 1.214 . S
C937 O917 1.234 . S
C938 H910 0.929 . S
C938 C941 1.391 . S
C938 C943 1.391 . S
C939 H911 0.929 . S
C939 C940 1.390 . S
C939 N942 1.391 . S
C940 H912 0.930 . S
C940 C939 1.390 . S
C940 C941 1.392 . S
C941 H913 0.929 . S
C941 C938 1.391 . S
C941 C940 1.392 . S
N942 Co886 2.257 . S
N942 C939 1.391 . S
N942 C943 1.388 . S
C943 H914 0.930 . S
C943 C938 1.391 . S
C943 N942 1.388 . S
C944 C945 1.349 . S
C944 C946 1.327 . S
C944 H969 0.950 . S
C945 C944 1.349 . S
C945 C961 1.349 . S
C946 C944 1.327 . S
C946 C965 1.429 . S
C946 H970 0.950 . S
C947 C964 1.574 . S
C947 C966 1.368 . S
C947 H971 0.949 . S
H948 C952 0.949 . S
C949 C950 1.349 . S
C949 C951 1.327 . S
C949 H972 0.950 . S
C950 C949 1.349 . S
C950 C962 1.349 . S
C951 C949 1.327 . S
C951 C967 1.429 . S
C951 H973 0.950 . S
C952 H948 0.949 . S
C952 C960 1.574 . S
C952 C968 1.368 . S
H953 C961 0.950 . S
H954 C959 0.950 . S
H955 C960 0.949 . S
H956 C962 0.950 . S
H957 C963 0.950 . S
H958 C964 0.949 . S
C959 H954 0.950 . S
C959 C961 1.327 . S
C959 C965 1.429 . S
C960 C952 1.574 . S
C960 H955 0.949 . S
C960 C966 1.368 . S
C961 C945 1.349 . S
C961 H953 0.950 . S
C961 C959 1.327 . S
C962 C950 1.349 . S
C962 H956 0.950 . S
C962 C963 1.327 . S
C963 H957 0.950 . S
C963 C962 1.327 . S
C963 C967 1.429 . S
C964 C947 1.574 . S
C964 H958 0.949 . S
C964 C968 1.368 . S
C965 C946 1.429 . S
C965 C959 1.429 . S
C965 C966 1.523 . S
C966 C947 1.368 . S
C966 C960 1.368 . S
C966 C965 1.523 . S
C967 C951 1.429 . S
C967 C963 1.429 . S
C967 C968 1.523 . S
C968 C952 1.368 . S
C968 C964 1.368 . S
C968 C967 1.523 . S
H969 C944 0.950 . S
H970 C946 0.950 . S
H971 C947 0.949 . S
H972 C949 0.950 . S
H973 C951 0.950 . S
C974 C975 1.349 . S
C974 C976 1.327 1_565 S
C974 H999 0.950 1_565 S
C975 C974 1.349 . S
C975 C991 1.349 . S
C976 C974 1.327 1_545 S
C976 C995 1.429 1_545 S
C976 H1000 0.950 . S
C977 C994 1.574 1_655 S
C977 C996 1.368 . S
C977 H1001 0.949 . S
H978 C982 0.949 . S
C979 C980 1.349 . S
C979 C981 1.327 1_545 S
C979 H1002 0.950 1_545 S
C980 C979 1.349 . S
C980 C992 1.349 . S
C981 C979 1.327 1_565 S
C981 C997 1.429 1_565 S
C981 H1003 0.950 . S
C982 H978 0.949 . S
C982 C990 1.574 1_455 S
C982 C998 1.368 . S
H983 C991 0.950 . S
H984 C989 0.950 . S
H985 C990 0.949 . S
H986 C992 0.950 . S
H987 C993 0.950 . S
H988 C994 0.949 . S
C989 H984 0.950 . S
C989 C991 1.327 . S
C989 C995 1.429 . S
C990 C982 1.574 1_655 S
C990 H985 0.949 . S
C990 C996 1.368 1_545 S
C991 C975 1.349 . S
C991 H983 0.950 . S
C991 C989 1.327 . S
C992 C980 1.349 . S
C992 H986 0.950 . S
C992 C993 1.327 . S
C993 H987 0.950 . S
C993 C992 1.327 . S
C993 C997 1.429 . S
C994 C977 1.574 1_455 S
C994 H988 0.949 . S
C994 C998 1.368 1_565 S
C995 C976 1.429 1_565 S
C995 C989 1.429 . S
C995 C996 1.523 . S
C996 C977 1.368 . S
C996 C990 1.368 1_565 S
C996 C995 1.523 . S
C997 C981 1.429 1_545 S
C997 C993 1.429 . S
C997 C998 1.523 . S
C998 C982 1.368 . S
C998 C994 1.368 1_545 S
C998 C997 1.523 . S
H999 C974 0.950 1_545 S
H1000 C976 0.950 . S
H1001 C977 0.949 . S
H1002 C979 0.950 1_565 S
H1003 C981 0.950 . S
C1004 C1005 1.349 . S
C1004 C1006 1.325 1_565 S
C1004 H1029 0.950 1_565 S
C1005 C1004 1.349 . S
C1005 C1021 1.349 . S
C1006 C1004 1.325 1_545 S
C1006 C1025 1.425 1_545 S
C1006 H1030 0.956 . S
C1007 C1024 1.574 . S
C1007 C1026 1.368 . S
C1007 H1031 0.949 . S
H1008 C1012 0.949 . S
C1009 C1010 1.349 . S
C1009 C1011 1.325 1_545 S
C1009 H1032 0.950 1_545 S
C1010 C1009 1.349 . S
C1010 C1022 1.349 . S
C1011 C1009 1.325 1_565 S
C1011 C1027 1.425 1_565 S
C1011 H1033 0.956 . S
C1012 H1008 0.949 . S
C1012 C1020 1.574 . S
C1012 C1028 1.368 . S
H1013 C1021 0.950 . S
H1014 C1019 0.950 . S
H1015 C1020 0.949 . S
H1016 C1022 0.950 . S
H1017 C1023 0.950 . S
H1018 C1024 0.949 . S
C1019 H1014 0.950 . S
C1019 C1021 1.327 . S
C1019 C1025 1.429 . S
C1020 C1012 1.574 . S
C1020 H1015 0.949 . S
C1020 C1026 1.368 1_545 S
C1021 C1005 1.349 . S
C1021 H1013 0.950 . S
C1021 C1019 1.327 . S
C1022 C1010 1.349 . S
C1022 H1016 0.950 . S
C1022 C1023 1.327 . S
C1023 H1017 0.950 . S
C1023 C1022 1.327 . S
C1023 C1027 1.429 . S
C1024 C1007 1.574 . S
C1024 H1018 0.949 . S
C1024 C1028 1.368 1_565 S
C1025 C1006 1.425 1_565 S
C1025 C1019 1.429 . S
C1025 C1026 1.523 . S
C1026 C1007 1.368 . S
C1026 C1020 1.368 1_565 S
C1026 C1025 1.523 . S
C1027 C1011 1.425 1_545 S
C1027 C1023 1.429 . S
C1027 C1028 1.523 . S
C1028 C1012 1.368 . S
C1028 C1024 1.368 1_545 S
C1028 C1027 1.523 . S
H1029 C1004 0.950 1_545 S
H1030 C1006 0.956 . S
H1031 C1007 0.949 . S
H1032 C1009 0.950 1_565 S
H1033 C1011 0.956 . S
C1034 C1035 1.349 . S
C1034 C1036 1.327 . S
C1034 H1059 0.950 . S
C1035 C1034 1.349 . S
C1035 C1051 1.349 . S
C1036 C1034 1.327 . S
C1036 C1055 1.429 . S
C1036 H1060 0.950 . S
C1037 C1054 1.574 1_455 S
C1037 C1056 1.368 . S
C1037 H1061 0.949 . S
H1038 C1042 0.949 . S
C1039 C1040 1.349 . S
C1039 C1041 1.327 . S
C1039 H1062 0.950 . S
C1040 C1039 1.349 . S
C1040 C1052 1.349 . S
C1041 C1039 1.327 . S
C1041 C1057 1.429 . S
C1041 H1063 0.950 . S
C1042 H1038 0.949 . S
C1042 C1050 1.574 1_655 S
C1042 C1058 1.368 . S
H1043 C1051 0.950 . S
H1044 C1049 0.950 . S
H1045 C1050 0.949 . S
H1046 C1052 0.950 . S
H1047 C1053 0.950 . S
H1048 C1054 0.949 . S
C1049 H1044 0.950 . S
C1049 C1051 1.327 . S
C1049 C1055 1.429 . S
C1050 C1042 1.574 1_455 S
C1050 H1045 0.949 . S
C1050 C1056 1.368 . S
C1051 C1035 1.349 . S
C1051 H1043 0.950 . S
C1051 C1049 1.327 . S
C1052 C1040 1.349 . S
C1052 H1046 0.950 . S
C1052 C1053 1.327 . S
C1053 H1047 0.950 . S
C1053 C1052 1.327 . S
C1053 C1057 1.429 . S
C1054 C1037 1.574 1_655 S
C1054 H1048 0.949 . S
C1054 C1058 1.368 . S
C1055 C1036 1.429 . S
C1055 C1049 1.429 . S
C1055 C1056 1.523 . S
C1056 C1037 1.368 . S
C1056 C1050 1.368 . S
C1056 C1055 1.523 . S
C1057 C1041 1.429 . S
C1057 C1053 1.429 . S
C1057 C1058 1.523 . S
C1058 C1042 1.368 . S
C1058 C1054 1.368 . S
C1058 C1057 1.523 . S
H1059 C1034 0.950 . S
H1060 C1036 0.950 . S
H1061 C1037 0.949 . S
H1062 C1039 0.950 . S
H1063 C1041 0.950 . S
C1064 C1065 1.349 . S
C1064 C1066 1.327 . S
C1064 H1089 0.950 . S
C1065 C1064 1.349 . S
C1065 C1081 1.349 . S
C1066 C1064 1.327 . S
C1066 C1085 1.429 . S
C1066 H1090 0.950 . S
C1067 C1084 1.574 . S
C1067 C1086 1.368 . S
C1067 H1091 0.949 . S
H1068 C1072 0.949 . S
C1069 C1070 1.349 . S
C1069 C1071 1.327 . S
C1069 H1092 0.950 . S
C1070 C1069 1.349 . S
C1070 C1082 1.349 . S
C1071 C1069 1.327 . S
C1071 C1087 1.429 . S
C1071 H1093 0.950 . S
C1072 H1068 0.949 . S
C1072 C1080 1.574 . S
C1072 C1088 1.368 . S
H1073 C1081 0.950 . S
H1074 C1079 0.950 . S
H1075 C1080 0.949 . S
H1076 C1082 0.950 . S
H1077 C1083 0.950 . S
H1078 C1084 0.949 . S
C1079 H1074 0.950 . S
C1079 C1081 1.327 . S
C1079 C1085 1.429 . S
C1080 C1072 1.574 . S
C1080 H1075 0.949 . S
C1080 C1086 1.368 . S
C1081 C1065 1.349 . S
C1081 H1073 0.950 . S
C1081 C1079 1.327 . S
C1082 C1070 1.349 . S
C1082 H1076 0.950 . S
C1082 C1083 1.327 . S
C1083 H1077 0.950 . S
C1083 C1082 1.327 . S
C1083 C1087 1.429 . S
C1084 C1067 1.574 . S
C1084 H1078 0.949 . S
C1084 C1088 1.368 . S
C1085 C1066 1.429 . S
C1085 C1079 1.429 . S
C1085 C1086 1.523 . S
C1086 C1067 1.368 . S
C1086 C1080 1.368 . S
C1086 C1085 1.523 . S
C1087 C1071 1.429 . S
C1087 C1083 1.429 . S
C1087 C1088 1.523 . S
C1088 C1072 1.368 . S
C1088 C1084 1.368 . S
C1088 C1087 1.523 . S
H1089 C1064 0.950 . S
H1090 C1066 0.950 . S
H1091 C1067 0.949 . S
H1092 C1069 0.950 . S
H1093 C1071 0.950 . S
C1094 C1095 1.349 . S
C1094 C1096 1.327 . S
C1094 H1119 0.950 . S
C1095 C1094 1.349 . S
C1095 C1111 1.349 . S
C1096 C1094 1.327 . S
C1096 C1115 1.429 . S
C1096 H1120 0.950 1_545 S
C1097 C1114 1.574 . S
C1097 C1116 1.368 . S
C1097 H1121 0.949 . S
H1098 C1102 0.949 . S
C1099 C1100 1.349 . S
C1099 C1101 1.327 . S
C1099 H1122 0.950 . S
C1100 C1099 1.349 . S
C1100 C1112 1.349 . S
C1101 C1099 1.327 . S
C1101 C1117 1.429 . S
C1101 H1123 0.950 1_565 S
C1102 H1098 0.949 . S
C1102 C1110 1.574 . S
C1102 C1118 1.368 . S
H1103 C1111 0.950 . S
H1104 C1109 0.950 . S
H1105 C1110 0.949 . S
H1106 C1112 0.950 . S
H1107 C1113 0.950 . S
H1108 C1114 0.949 . S
C1109 H1104 0.950 . S
C1109 C1111 1.327 . S
C1109 C1115 1.429 . S
C1110 C1102 1.574 . S
C1110 H1105 0.949 . S
C1110 C1116 1.368 1_565 S
C1111 C1095 1.349 . S
C1111 H1103 0.950 . S
C1111 C1109 1.327 . S
C1112 C1100 1.349 . S
C1112 H1106 0.950 . S
C1112 C1113 1.327 . S
C1113 H1107 0.950 . S
C1113 C1112 1.327 . S
C1113 C1117 1.429 . S
C1114 C1097 1.574 . S
C1114 H1108 0.949 . S
C1114 C1118 1.368 1_545 S
C1115 C1096 1.429 . S
C1115 C1109 1.429 . S
C1115 C1116 1.523 . S
C1116 C1097 1.368 . S
C1116 C1110 1.368 1_545 S
C1116 C1115 1.523 . S
C1117 C1101 1.429 . S
C1117 C1113 1.429 . S
C1117 C1118 1.523 . S
C1118 C1102 1.368 . S
C1118 C1114 1.368 1_565 S
C1118 C1117 1.523 . S
H1119 C1094 0.950 . S
H1120 C1096 0.950 1_565 S
H1121 C1097 0.949 . S
H1122 C1099 0.950 . S
H1123 C1101 0.950 1_545 S
C1124 C1125 1.349 . S
C1124 C1126 1.327 . S
C1124 H1149 0.950 . S
C1125 C1124 1.349 . S
C1125 C1141 1.349 . S
C1126 C1124 1.327 . S
C1126 C1145 1.429 . S
C1126 H1150 0.950 . S
C1127 C1144 1.574 . S
C1127 C1146 1.368 1_455 S
C1127 H1151 0.949 . S
H1128 C1132 0.949 . S
C1129 C1130 1.349 . S
C1129 C1131 1.327 . S
C1129 H1152 0.950 . S
C1130 C1129 1.349 . S
C1130 C1142 1.349 . S
C1131 C1129 1.327 . S
C1131 C1147 1.429 . S
C1131 H1153 0.950 . S
C1132 H1128 0.949 . S
C1132 C1140 1.574 . S
C1132 C1148 1.368 1_655 S
H1133 C1141 0.950 . S
H1134 C1139 0.950 . S
H1135 C1140 0.949 . S
H1136 C1142 0.950 . S
H1137 C1143 0.950 . S
H1138 C1144 0.949 . S
C1139 H1134 0.950 . S
C1139 C1141 1.327 . S
C1139 C1145 1.429 . S
C1140 C1132 1.574 . S
C1140 H1135 0.949 . S
C1140 C1146 1.368 . S
C1141 C1125 1.349 . S
C1141 H1133 0.950 . S
C1141 C1139 1.327 . S
C1142 C1130 1.349 . S
C1142 H1136 0.950 . S
C1142 C1143 1.327 . S
C1143 H1137 0.950 . S
C1143 C1142 1.327 . S
C1143 C1147 1.429 . S
C1144 C1127 1.574 . S
C1144 H1138 0.949 . S
C1144 C1148 1.368 . S
C1145 C1126 1.429 . S
C1145 C1139 1.429 . S
C1145 C1146 1.523 . S
C1146 C1127 1.368 1_655 S
C1146 C1140 1.368 . S
C1146 C1145 1.523 . S
C1147 C1131 1.429 . S
C1147 C1143 1.429 . S
C1147 C1148 1.523 . S
C1148 C1132 1.368 1_455 S
C1148 C1144 1.368 . S
C1148 C1147 1.523 . S
H1149 C1124 0.950 . S
H1150 C1126 0.950 . S
H1151 C1127 0.949 . S
H1152 C1129 0.950 . S
H1153 C1131 0.950 . S
C1154 C1155 1.349 . S
C1154 C1156 1.327 . S
C1154 H1179 0.950 . S
C1155 C1154 1.349 . S
C1155 C1171 1.349 . S
C1156 C1154 1.327 . S
C1156 C1175 1.429 . S
C1156 H1180 0.950 . S
C1157 C1174 1.574 . S
C1157 C1176 1.368 . S
C1157 H1181 0.949 . S
H1158 C1162 0.949 . S
C1159 C1160 1.349 . S
C1159 C1161 1.327 . S
C1159 H1182 0.950 . S
C1160 C1159 1.349 . S
C1160 C1172 1.349 . S
C1161 C1159 1.327 . S
C1161 C1177 1.429 . S
C1161 H1183 0.950 . S
C1162 H1158 0.949 . S
C1162 C1170 1.574 . S
C1162 C1178 1.368 . S
H1163 C1171 0.950 . S
H1164 C1169 0.950 . S
H1165 C1170 0.949 . S
H1166 C1172 0.950 . S
H1167 C1173 0.950 . S
H1168 C1174 0.949 . S
C1169 H1164 0.950 . S
C1169 C1171 1.327 . S
C1169 C1175 1.429 . S
C1170 C1162 1.574 . S
C1170 H1165 0.949 . S
C1170 C1176 1.368 1_556 S
C1171 C1155 1.349 . S
C1171 H1163 0.950 . S
C1171 C1169 1.327 . S
C1172 C1160 1.349 . S
C1172 H1166 0.950 . S
C1172 C1173 1.327 . S
C1173 H1167 0.950 . S
C1173 C1172 1.327 . S
C1173 C1177 1.429 . S
C1174 C1157 1.574 . S
C1174 H1168 0.949 . S
C1174 C1178 1.368 1_554 S
C1175 C1156 1.429 . S
C1175 C1169 1.429 . S
C1175 C1176 1.523 . S
C1176 C1157 1.368 . S
C1176 C1170 1.368 1_554 S
C1176 C1175 1.523 . S
C1177 C1161 1.429 . S
C1177 C1173 1.429 . S
C1177 C1178 1.523 . S
C1178 C1162 1.368 . S
C1178 C1174 1.368 1_556 S
C1178 C1177 1.523 . S
H1179 C1154 0.950 . S
H1180 C1156 0.950 . S
H1181 C1157 0.949 . S
H1182 C1159 0.950 . S
H1183 C1161 0.950 . S
C1184 C1185 1.349 . S
C1184 C1186 1.327 . S
C1184 H1209 0.950 . S
C1185 C1184 1.349 . S
C1185 C1201 1.349 . S
C1186 C1184 1.327 . S
C1186 C1205 1.429 . S
C1186 H1210 0.950 . S
C1187 C1204 1.574 . S
C1187 C1206 1.368 1_554 S
C1187 H1211 0.949 . S
H1188 C1192 0.949 . S
C1189 C1190 1.349 . S
C1189 C1191 1.327 . S
C1189 H1212 0.950 . S
C1190 C1189 1.349 . S
C1190 C1202 1.349 . S
C1191 C1189 1.327 . S
C1191 C1207 1.429 . S
C1191 H1213 0.950 . S
C1192 H1188 0.949 . S
C1192 C1200 1.574 . S
C1192 C1208 1.368 1_556 S
H1193 C1201 0.950 . S
H1194 C1199 0.950 . S
H1195 C1200 0.949 . S
H1196 C1202 0.950 . S
H1197 C1203 0.950 . S
H1198 C1204 0.949 . S
C1199 H1194 0.950 . S
C1199 C1201 1.327 . S
C1199 C1205 1.429 . S
C1200 C1192 1.574 . S
C1200 H1195 0.949 . S
C1200 C1206 1.368 1_655 S
C1201 C1185 1.349 . S
C1201 H1193 0.950 . S
C1201 C1199 1.327 . S
C1202 C1190 1.349 . S
C1202 H1196 0.950 . S
C1202 C1203 1.327 . S
C1203 H1197 0.950 . S
C1203 C1202 1.327 . S
C1203 C1207 1.429 . S
C1204 C1187 1.574 . S
C1204 H1198 0.949 . S
C1204 C1208 1.368 1_455 S
C1205 C1186 1.429 . S
C1205 C1199 1.429 . S
C1205 C1206 1.523 . S
C1206 C1187 1.368 1_556 S
C1206 C1200 1.368 1_455 S
C1206 C1205 1.523 . S
C1207 C1191 1.429 . S
C1207 C1203 1.429 . S
C1207 C1208 1.523 . S
C1208 C1192 1.368 1_554 S
C1208 C1204 1.368 1_655 S
C1208 C1207 1.523 . S
H1209 C1184 0.950 . S
H1210 C1186 0.950 . S
H1211 C1187 0.949 . S
H1212 C1189 0.950 . S
H1213 C1191 0.950 . S
C1214 C1215 1.349 . S
C1214 C1216 1.327 . S
C1214 H1239 0.950 . S
C1215 C1214 1.349 . S
C1215 C1231 1.349 . S
C1216 C1214 1.327 . S
C1216 C1235 1.429 . S
C1216 H1240 0.950 . S
C1217 C1234 1.574 . S
C1217 C1236 1.368 . S
C1217 H1241 0.949 . S
H1218 C1222 0.949 . S
C1219 C1220 1.349 . S
C1219 C1221 1.327 . S
C1219 H1242 0.950 . S
C1220 C1219 1.349 . S
C1220 C1232 1.349 . S
C1221 C1219 1.327 . S
C1221 C1237 1.429 . S
C1221 H1243 0.950 . S
C1222 H1218 0.949 . S
C1222 C1230 1.574 . S
C1222 C1238 1.368 . S
H1223 C1231 0.950 . S
H1224 C1229 0.950 . S
H1225 C1230 0.949 . S
H1226 C1232 0.950 . S
H1227 C1233 0.950 . S
H1228 C1234 0.949 . S
C1229 H1224 0.950 . S
C1229 C1231 1.327 . S
C1229 C1235 1.429 . S
C1230 C1222 1.574 . S
C1230 H1225 0.949 . S
C1230 C1236 1.368 . S
C1231 C1215 1.349 . S
C1231 H1223 0.950 . S
C1231 C1229 1.327 . S
C1232 C1220 1.349 . S
C1232 H1226 0.950 . S
C1232 C1233 1.327 . S
C1233 H1227 0.950 . S
C1233 C1232 1.327 . S
C1233 C1237 1.429 . S
C1234 C1217 1.574 . S
C1234 H1228 0.949 . S
C1234 C1238 1.368 . S
C1235 C1216 1.429 . S
C1235 C1229 1.429 . S
C1235 C1236 1.523 . S
C1236 C1217 1.368 . S
C1236 C1230 1.368 . S
C1236 C1235 1.523 . S
C1237 C1221 1.429 . S
C1237 C1233 1.429 . S
C1237 C1238 1.523 . S
C1238 C1222 1.368 . S
C1238 C1234 1.368 . S
C1238 C1237 1.523 . S
H1239 C1214 0.950 . S
H1240 C1216 0.950 . S
H1241 C1217 0.949 . S
H1242 C1219 0.950 . S
H1243 C1221 0.950 . S
C1244 C1245 1.349 . S
C1244 C1246 1.327 . S
C1244 H1269 0.950 . S
C1245 C1244 1.349 . S
C1245 C1261 1.349 . S
C1246 C1244 1.327 . S
C1246 C1265 1.429 . S
C1246 H1270 0.950 . S
C1247 C1264 1.538 1_556 S
C1247 C1266 1.368 . S
C1247 H1271 0.949 . S
H1248 C1252 0.949 . S
C1249 C1250 1.349 . S
C1249 C1251 1.327 . S
C1249 H1272 0.950 . S
C1250 C1249 1.349 . S
C1250 C1262 1.349 . S
C1251 C1249 1.327 . S
C1251 C1267 1.429 . S
C1251 H1273 0.950 . S
C1252 H1248 0.949 . S
C1252 C1260 1.538 1_554 S
C1252 C1268 1.368 . S
H1253 C1261 0.950 . S
H1254 C1259 0.950 . S
H1255 C1260 0.956 . S
H1256 C1262 0.950 . S
H1257 C1263 0.950 . S
H1258 C1264 0.956 . S
C1259 H1254 0.950 . S
C1259 C1261 1.327 . S
C1259 C1265 1.429 . S
C1260 C1252 1.538 1_556 S
C1260 H1255 0.956 . S
C1260 C1266 1.402 . S
C1261 C1245 1.349 . S
C1261 H1253 0.950 . S
C1261 C1259 1.327 . S
C1262 C1250 1.349 . S
C1262 H1256 0.950 . S
C1262 C1263 1.327 . S
C1263 H1257 0.950 . S
C1263 C1262 1.327 . S
C1263 C1267 1.429 . S
C1264 C1247 1.538 1_554 S
C1264 H1258 0.956 . S
C1264 C1268 1.402 . S
C1265 C1246 1.429 . S
C1265 C1259 1.429 . S
C1265 C1266 1.523 . S
C1266 C1247 1.368 . S
C1266 C1260 1.402 . S
C1266 C1265 1.523 . S
C1267 C1251 1.429 . S
C1267 C1263 1.429 . S
C1267 C1268 1.523 . S
C1268 C1252 1.368 . S
C1268 C1264 1.402 . S
C1268 C1267 1.523 . S
H1269 C1244 0.950 . S
H1270 C1246 0.950 . S
H1271 C1247 0.949 . S
H1272 C1249 0.950 . S
H1273 C1251 0.950 . S
C1274 C1275 1.349 . S
C1274 C1276 1.327 . S
C1274 H1299 0.950 . S
C1275 C1274 1.349 . S
C1275 C1291 1.349 . S
C1276 C1274 1.327 . S
C1276 C1295 1.429 . S
C1276 H1300 0.950 . S
C1277 C1294 1.574 . S
C1277 C1296 1.368 . S
C1277 H1301 0.949 . S
H1278 C1282 0.949 . S
C1279 C1280 1.349 . S
C1279 C1281 1.327 . S
C1279 H1302 0.950 . S
C1280 C1279 1.349 . S
C1280 C1292 1.349 . S
C1281 C1279 1.327 . S
C1281 C1297 1.429 . S
C1281 H1303 0.950 . S
C1282 H1278 0.949 . S
C1282 C1290 1.574 . S
C1282 C1298 1.368 . S
H1283 C1291 0.950 . S
H1284 C1289 0.950 . S
H1285 C1290 0.949 . S
H1286 C1292 0.950 . S
H1287 C1293 0.950 . S
H1288 C1294 0.949 . S
C1289 H1284 0.950 . S
C1289 C1291 1.327 . S
C1289 C1295 1.429 . S
C1290 C1282 1.574 . S
C1290 H1285 0.949 . S
C1290 C1296 1.368 . S
C1291 C1275 1.349 . S
C1291 H1283 0.950 . S
C1291 C1289 1.327 . S
C1292 C1280 1.349 . S
C1292 H1286 0.950 . S
C1292 C1293 1.327 . S
C1293 H1287 0.950 . S
C1293 C1292 1.327 . S
C1293 C1297 1.429 . S
C1294 C1277 1.574 . S
C1294 H1288 0.949 . S
C1294 C1298 1.368 . S
C1295 C1276 1.429 . S
C1295 C1289 1.429 . S
C1295 C1296 1.523 . S
C1296 C1277 1.368 . S
C1296 C1290 1.368 . S
C1296 C1295 1.523 . S
C1297 C1281 1.429 . S
C1297 C1293 1.429 . S
C1297 C1298 1.523 . S
C1298 C1282 1.368 . S
C1298 C1294 1.368 . S
C1298 C1297 1.523 . S
H1299 C1274 0.950 . S
H1300 C1276 0.950 . S
H1301 C1277 0.949 . S
H1302 C1279 0.950 . S
H1303 C1281 0.950 . S
C1304 C1305 1.349 . S
C1304 C1306 1.327 . S
C1304 H1329 0.950 . S
C1305 C1304 1.349 . S
C1305 C1321 1.349 . S
C1306 C1304 1.327 . S
C1306 C1325 1.429 . S
C1306 H1330 0.950 . S
C1307 C1324 1.574 1_556 S
C1307 C1326 1.368 1_565 S
C1307 H1331 0.949 . S
H1308 C1312 0.949 . S
C1309 C1310 1.349 . S
C1309 C1311 1.327 . S
C1309 H1332 0.950 . S
C1310 C1309 1.349 . S
C1310 C1322 1.349 . S
C1311 C1309 1.327 . S
C1311 C1327 1.429 . S
C1311 H1333 0.950 . S
C1312 H1308 0.949 . S
C1312 C1320 1.574 1_554 S
C1312 C1328 1.368 1_545 S
H1313 C1321 0.950 1_565 S
H1314 C1319 0.950 . S
H1315 C1320 0.949 . S
H1316 C1322 0.950 1_545 S
H1317 C1323 0.950 . S
H1318 C1324 0.949 . S
C1319 H1314 0.950 . S
C1319 C1321 1.327 1_565 S
C1319 C1325 1.429 1_565 S
C1320 C1312 1.574 1_556 S
C1320 H1315 0.949 . S
C1320 C1326 1.368 . S
C1321 C1305 1.349 . S
C1321 H1313 0.950 1_545 S
C1321 C1319 1.327 1_545 S
C1322 C1310 1.349 . S
C1322 H1316 0.950 1_565 S
C1322 C1323 1.327 1_565 S
C1323 H1317 0.950 . S
C1323 C1322 1.327 1_545 S
C1323 C1327 1.429 1_545 S
C1324 C1307 1.574 1_554 S
C1324 H1318 0.949 . S
C1324 C1328 1.368 . S
C1325 C1306 1.429 . S
C1325 C1319 1.429 1_545 S
C1325 C1326 1.523 . S
C1326 C1307 1.368 1_545 S
C1326 C1320 1.368 . S
C1326 C1325 1.523 . S
C1327 C1311 1.429 . S
C1327 C1323 1.429 1_565 S
C1327 C1328 1.523 . S
C1328 C1312 1.368 1_565 S
C1328 C1324 1.368 . S
C1328 C1327 1.523 . S
H1329 C1304 0.950 . S
H1330 C1306 0.950 . S
H1331 C1307 0.949 . S
H1332 C1309 0.950 . S
H1333 C1311 0.950 . S
C1334 C1335 1.349 . S
C1334 C1336 1.327 . S
C1334 H1359 0.950 . S
C1335 C1334 1.349 . S
C1335 C1351 1.349 . S
C1336 C1334 1.327 . S
C1336 C1355 1.429 . S
C1336 H1360 0.950 . S
C1337 C1354 1.574 . S
C1337 C1356 1.368 . S
C1337 H1361 0.949 . S
H1338 C1342 0.949 . S
C1339 C1340 1.349 . S
C1339 C1341 1.327 . S
C1339 H1362 0.950 . S
C1340 C1339 1.349 . S
C1340 C1352 1.349 . S
C1341 C1339 1.327 . S
C1341 C1357 1.429 . S
C1341 H1363 0.950 . S
C1342 H1338 0.949 . S
C1342 C1350 1.574 . S
C1342 C1358 1.368 . S
H1343 C1351 0.950 . S
H1344 C1349 0.950 . S
H1345 C1350 0.949 . S
H1346 C1352 0.950 . S
H1347 C1353 0.950 . S
H1348 C1354 0.949 . S
C1349 H1344 0.950 . S
C1349 C1351 1.327 . S
C1349 C1355 1.429 . S
C1350 C1342 1.574 . S
C1350 H1345 0.949 . S
C1350 C1356 1.368 . S
C1351 C1335 1.349 . S
C1351 H1343 0.950 . S
C1351 C1349 1.327 . S
C1352 C1340 1.349 . S
C1352 H1346 0.950 . S
C1352 C1353 1.327 . S
C1353 H1347 0.950 . S
C1353 C1352 1.327 . S
C1353 C1357 1.429 . S
C1354 C1337 1.574 . S
C1354 H1348 0.949 . S
C1354 C1358 1.368 . S
C1355 C1336 1.429 . S
C1355 C1349 1.429 . S
C1355 C1356 1.523 . S
C1356 C1337 1.368 . S
C1356 C1350 1.368 . S
C1356 C1355 1.523 . S
C1357 C1341 1.429 . S
C1357 C1353 1.429 . S
C1357 C1358 1.523 . S
C1358 C1342 1.368 . S
C1358 C1354 1.368 . S
C1358 C1357 1.523 . S
H1359 C1334 0.950 . S
H1360 C1336 0.950 . S
H1361 C1337 0.949 . S
H1362 C1339 0.950 . S
H1363 C1341 0.950 . S
C1364 C1365 1.349 . S
C1364 C1366 1.327 . S
C1364 H1389 0.950 . S
C1365 C1364 1.349 . S
C1365 C1381 1.349 . S
C1366 C1364 1.327 . S
C1366 C1385 1.429 . S
C1366 H1390 0.950 . S
C1367 C1384 1.574 . S
C1367 C1386 1.368 . S
C1367 H1391 0.949 . S
H1368 C1372 0.949 . S
C1369 C1370 1.349 . S
C1369 C1371 1.327 . S
C1369 H1392 0.950 . S
C1370 C1369 1.349 . S
C1370 C1382 1.349 . S
C1371 C1369 1.327 . S
C1371 C1387 1.429 . S
C1371 H1393 0.950 . S
C1372 H1368 0.949 . S
C1372 C1380 1.574 . S
C1372 C1388 1.368 . S
H1373 C1381 0.950 . S
H1374 C1379 0.950 . S
H1375 C1380 0.949 . S
H1376 C1382 0.950 . S
H1377 C1383 0.950 . S
H1378 C1384 0.949 . S
C1379 H1374 0.950 . S
C1379 C1381 1.327 . S
C1379 C1385 1.429 . S
C1380 C1372 1.574 . S
C1380 H1375 0.949 . S
C1380 C1386 1.368 . S
C1381 C1365 1.349 . S
C1381 H1373 0.950 . S
C1381 C1379 1.327 . S
C1382 C1370 1.349 . S
C1382 H1376 0.950 . S
C1382 C1383 1.327 . S
C1383 H1377 0.950 . S
C1383 C1382 1.327 . S
C1383 C1387 1.429 . S
C1384 C1367 1.574 . S
C1384 H1378 0.949 . S
C1384 C1388 1.368 . S
C1385 C1366 1.429 . S
C1385 C1379 1.429 . S
C1385 C1386 1.523 . S
C1386 C1367 1.368 . S
C1386 C1380 1.368 . S
C1386 C1385 1.523 . S
C1387 C1371 1.429 . S
C1387 C1383 1.429 . S
C1387 C1388 1.523 . S
C1388 C1372 1.368 . S
C1388 C1384 1.368 . S
C1388 C1387 1.523 . S
H1389 C1364 0.950 . S
H1390 C1366 0.950 . S
H1391 C1367 0.949 . S
H1392 C1369 0.950 . S
H1393 C1371 0.950 . S
C1394 C1395 1.349 . S
C1394 C1396 1.327 . S
C1394 H1419 0.950 . S
C1395 C1394 1.349 . S
C1395 C1411 1.349 . S
C1396 C1394 1.327 . S
C1396 C1415 1.429 . S
C1396 H1420 0.950 . S
C1397 C1414 1.574 . S
C1397 C1416 1.368 . S
C1397 H1421 0.949 . S
H1398 C1402 0.949 . S
C1399 C1400 1.349 . S
C1399 C1401 1.327 . S
C1399 H1422 0.950 . S
C1400 C1399 1.349 . S
C1400 C1412 1.349 . S
C1401 C1399 1.327 . S
C1401 C1417 1.429 . S
C1401 H1423 0.950 . S
C1402 H1398 0.949 . S
C1402 C1410 1.574 . S
C1402 C1418 1.368 . S
H1403 C1411 0.950 . S
H1404 C1409 0.950 . S
H1405 C1410 0.949 . S
H1406 C1412 0.950 . S
H1407 C1413 0.950 . S
H1408 C1414 0.949 . S
C1409 H1404 0.950 . S
C1409 C1411 1.327 . S
C1409 C1415 1.429 . S
C1410 C1402 1.574 . S
C1410 H1405 0.949 . S
C1410 C1416 1.368 . S
C1411 C1395 1.349 . S
C1411 H1403 0.950 . S
C1411 C1409 1.327 . S
C1412 C1400 1.349 . S
C1412 H1406 0.950 . S
C1412 C1413 1.327 . S
C1413 H1407 0.950 . S
C1413 C1412 1.327 . S
C1413 C1417 1.429 . S
C1414 C1397 1.574 . S
C1414 H1408 0.949 . S
C1414 C1418 1.368 . S
C1415 C1396 1.429 . S
C1415 C1409 1.429 . S
C1415 C1416 1.523 . S
C1416 C1397 1.368 . S
C1416 C1410 1.368 . S
C1416 C1415 1.523 . S
C1417 C1401 1.429 . S
C1417 C1413 1.429 . S
C1417 C1418 1.523 . S
C1418 C1402 1.368 . S
C1418 C1414 1.368 . S
C1418 C1417 1.523 . S
H1419 C1394 0.950 . S
H1420 C1396 0.950 . S
H1421 C1397 0.949 . S
H1422 C1399 0.950 . S
H1423 C1401 0.950 . S
C1424 C1425 1.349 . S
C1424 C1426 1.327 . S
C1424 H1449 0.950 . S
C1425 C1424 1.349 . S
C1425 C1441 1.349 . S
C1426 C1424 1.327 . S
C1426 C1445 1.429 . S
C1426 H1450 0.950 . S
C1427 C1444 1.574 . S
C1427 C1446 1.368 . S
C1427 H1451 0.949 . S
H1428 C1432 0.949 . S
C1429 C1430 1.349 . S
C1429 C1431 1.327 . S
C1429 H1452 0.950 . S
C1430 C1429 1.349 . S
C1430 C1442 1.349 . S
C1431 C1429 1.327 . S
C1431 C1447 1.429 . S
C1431 H1453 0.950 . S
C1432 H1428 0.949 . S
C1432 C1440 1.574 . S
C1432 C1448 1.368 . S
H1433 C1441 0.950 . S
H1434 C1439 0.950 . S
H1435 C1440 0.949 . S
H1436 C1442 0.950 1_545 S
H1437 C1443 0.950 . S
H1438 C1444 0.949 . S
C1439 H1434 0.950 . S
C1439 C1441 1.327 . S
C1439 C1445 1.429 . S
C1440 C1432 1.574 . S
C1440 H1435 0.949 . S
C1440 C1446 1.368 . S
C1441 C1425 1.349 . S
C1441 H1433 0.950 . S
C1441 C1439 1.327 . S
C1442 C1430 1.349 . S
C1442 H1436 0.950 1_565 S
C1442 C1443 1.327 . S
C1443 H1437 0.950 . S
C1443 C1442 1.327 . S
C1443 C1447 1.429 . S
C1444 C1427 1.574 . S
C1444 H1438 0.949 . S
C1444 C1448 1.368 . S
C1445 C1426 1.429 . S
C1445 C1439 1.429 . S
C1445 C1446 1.523 . S
C1446 C1427 1.368 . S
C1446 C1440 1.368 . S
C1446 C1445 1.523 . S
C1447 C1431 1.429 . S
C1447 C1443 1.429 . S
C1447 C1448 1.523 . S
C1448 C1432 1.368 . S
C1448 C1444 1.368 . S
C1448 C1447 1.523 . S
H1449 C1424 0.950 . S
H1450 C1426 0.950 . S
H1451 C1427 0.949 . S
H1452 C1429 0.950 . S
H1453 C1431 0.950 . S
C1454 C1455 1.349 . S
C1454 C1456 1.327 . S
C1454 H1479 0.950 . S
C1455 C1454 1.349 . S
C1455 C1471 1.349 . S
C1456 C1454 1.327 . S
C1456 C1475 1.429 . S
C1456 H1480 0.950 . S
C1457 C1474 1.574 . S
C1457 C1476 1.368 . S
C1457 H1481 0.949 . S
H1458 C1462 0.949 . S
C1459 C1460 1.349 . S
C1459 C1461 1.327 . S
C1459 H1482 0.950 . S
C1460 C1459 1.349 . S
C1460 C1472 1.349 . S
C1461 C1459 1.327 . S
C1461 C1477 1.429 . S
C1461 H1483 0.950 . S
C1462 H1458 0.949 . S
C1462 C1470 1.574 . S
C1462 C1478 1.368 . S
H1463 C1471 0.950 . S
H1464 C1469 0.950 . S
H1465 C1470 0.949 . S
H1466 C1472 0.950 . S
H1467 C1473 0.950 . S
H1468 C1474 0.949 . S
C1469 H1464 0.950 . S
C1469 C1471 1.327 . S
C1469 C1475 1.429 . S
C1470 C1462 1.574 . S
C1470 H1465 0.949 . S
C1470 C1476 1.368 . S
C1471 C1455 1.349 . S
C1471 H1463 0.950 . S
C1471 C1469 1.327 . S
C1472 C1460 1.349 . S
C1472 H1466 0.950 . S
C1472 C1473 1.327 . S
C1473 H1467 0.950 . S
C1473 C1472 1.327 . S
C1473 C1477 1.429 . S
C1474 C1457 1.574 . S
C1474 H1468 0.949 . S
C1474 C1478 1.368 . S
C1475 C1456 1.429 . S
C1475 C1469 1.429 . S
C1475 C1476 1.523 . S
C1476 C1457 1.368 . S
C1476 C1470 1.368 . S
C1476 C1475 1.523 . S
C1477 C1461 1.429 . S
C1477 C1473 1.429 . S
C1477 C1478 1.523 . S
C1478 C1462 1.368 . S
C1478 C1474 1.368 . S
C1478 C1477 1.523 . S
H1479 C1454 0.950 . S
H1480 C1456 0.950 . S
H1481 C1457 0.949 . S
H1482 C1459 0.950 . S
H1483 C1461 0.950 . S
C1484 C1485 1.349 . S
C1484 C1486 1.327 . S
C1484 H1509 0.950 . S
C1485 C1484 1.349 . S
C1485 C1501 1.349 . S
C1486 C1484 1.327 . S
C1486 C1505 1.429 . S
C1486 H1510 0.950 . S
C1487 C1504 1.574 . S
C1487 C1506 1.368 . S
C1487 H1511 0.949 . S
H1488 C1492 0.949 . S
C1489 C1490 1.349 . S
C1489 C1491 1.327 . S
C1489 H1512 0.950 . S
C1490 C1489 1.349 . S
C1490 C1502 1.349 . S
C1491 C1489 1.327 . S
C1491 C1507 1.429 . S
C1491 H1513 0.950 . S
C1492 H1488 0.949 . S
C1492 C1500 1.574 . S
C1492 C1508 1.368 . S
H1493 C1501 0.950 . S
H1494 C1499 0.950 . S
H1495 C1500 0.949 . S
H1496 C1502 0.950 . S
H1497 C1503 0.950 . S
H1498 C1504 0.949 . S
C1499 H1494 0.950 . S
C1499 C1501 1.327 . S
C1499 C1505 1.429 . S
C1500 C1492 1.574 . S
C1500 H1495 0.949 . S
C1500 C1506 1.368 . S
C1501 C1485 1.349 . S
C1501 H1493 0.950 . S
C1501 C1499 1.327 . S
C1502 C1490 1.349 . S
C1502 H1496 0.950 . S
C1502 C1503 1.327 . S
C1503 H1497 0.950 . S
C1503 C1502 1.327 . S
C1503 C1507 1.429 . S
C1504 C1487 1.574 . S
C1504 H1498 0.949 . S
C1504 C1508 1.368 . S
C1505 C1486 1.429 . S
C1505 C1499 1.429 . S
C1505 C1506 1.523 . S
C1506 C1487 1.368 . S
C1506 C1500 1.368 . S
C1506 C1505 1.523 . S
C1507 C1491 1.429 . S
C1507 C1503 1.429 . S
C1507 C1508 1.523 . S
C1508 C1492 1.368 . S
C1508 C1504 1.368 . S
C1508 C1507 1.523 . S
H1509 C1484 0.950 . S
H1510 C1486 0.950 . S
H1511 C1487 0.949 . S
H1512 C1489 0.950 . S
H1513 C1491 0.950 . S
C1514 C1515 1.349 . S
C1514 C1516 1.327 . S
C1514 H1539 0.950 . S
C1515 C1514 1.349 . S
C1515 C1531 1.349 . S
C1516 C1514 1.327 . S
C1516 C1535 1.429 . S
C1516 H1540 0.950 . S
C1517 C1534 1.574 . S
C1517 C1536 1.368 . S
C1517 H1541 0.949 . S
H1518 C1522 0.949 . S
C1519 C1520 1.349 . S
C1519 C1521 1.327 . S
C1519 H1542 0.950 1_565 S
C1520 C1519 1.349 . S
C1520 C1532 1.349 . S
C1521 C1519 1.327 . S
C1521 C1537 1.429 . S
C1521 H1543 0.950 . S
C1522 H1518 0.949 . S
C1522 C1530 1.574 . S
C1522 C1538 1.368 . S
H1523 C1531 0.950 . S
H1524 C1529 0.950 . S
H1525 C1530 0.949 . S
H1526 C1532 0.950 . S
H1527 C1533 0.950 . S
H1528 C1534 0.949 . S
C1529 H1524 0.950 . S
C1529 C1531 1.327 . S
C1529 C1535 1.429 . S
C1530 C1522 1.574 . S
C1530 H1525 0.949 . S
C1530 C1536 1.368 . S
C1531 C1515 1.349 . S
C1531 H1523 0.950 . S
C1531 C1529 1.327 . S
C1532 C1520 1.349 . S
C1532 H1526 0.950 . S
C1532 C1533 1.327 . S
C1533 H1527 0.950 . S
C1533 C1532 1.327 . S
C1533 C1537 1.429 . S
C1534 C1517 1.574 . S
C1534 H1528 0.949 . S
C1534 C1538 1.368 . S
C1535 C1516 1.429 . S
C1535 C1529 1.429 . S
C1535 C1536 1.523 . S
C1536 C1517 1.368 . S
C1536 C1530 1.368 . S
C1536 C1535 1.523 . S
C1537 C1521 1.429 . S
C1537 C1533 1.429 . S
C1537 C1538 1.523 . S
C1538 C1522 1.368 . S
C1538 C1534 1.368 . S
C1538 C1537 1.523 . S
H1539 C1514 0.950 . S
H1540 C1516 0.950 . S
H1541 C1517 0.949 . S
H1542 C1519 0.950 1_545 S
H1543 C1521 0.950 . S
C1544 C1545 1.349 . S
C1544 C1546 1.327 . S
C1544 H1569 0.950 . S
C1545 C1544 1.349 . S
C1545 C1561 1.349 . S
C1546 C1544 1.327 . S
C1546 C1565 1.429 . S
C1546 H1570 0.950 . S
C1547 C1564 1.574 . S
C1547 C1566 1.368 . S
C1547 H1571 0.949 . S
H1548 C1552 0.949 . S
C1549 C1550 1.349 . S
C1549 C1551 1.327 . S
C1549 H1572 0.950 . S
C1550 C1549 1.349 . S
C1550 C1562 1.349 . S
C1551 C1549 1.327 . S
C1551 C1567 1.429 . S
C1551 H1573 0.950 . S
C1552 H1548 0.949 . S
C1552 C1560 1.574 . S
C1552 C1568 1.368 . S
H1553 C1561 0.950 . S
H1554 C1559 0.950 . S
H1555 C1560 0.949 . S
H1556 C1562 0.950 1_565 S
H1557 C1563 0.950 . S
H1558 C1564 0.949 . S
C1559 H1554 0.950 . S
C1559 C1561 1.327 . S
C1559 C1565 1.429 . S
C1560 C1552 1.574 . S
C1560 H1555 0.949 . S
C1560 C1566 1.368 . S
C1561 C1545 1.349 . S
C1561 H1553 0.950 . S
C1561 C1559 1.327 . S
C1562 C1550 1.349 . S
C1562 H1556 0.950 1_545 S
C1562 C1563 1.327 . S
C1563 H1557 0.950 . S
C1563 C1562 1.327 . S
C1563 C1567 1.429 . S
C1564 C1547 1.574 . S
C1564 H1558 0.949 . S
C1564 C1568 1.368 . S
C1565 C1546 1.429 . S
C1565 C1559 1.429 . S
C1565 C1566 1.523 . S
C1566 C1547 1.368 . S
C1566 C1560 1.368 . S
C1566 C1565 1.523 . S
C1567 C1551 1.429 . S
C1567 C1563 1.429 . S
C1567 C1568 1.523 . S
C1568 C1552 1.368 . S
C1568 C1564 1.368 . S
C1568 C1567 1.523 . S
H1569 C1544 0.950 . S
H1570 C1546 0.950 . S
H1571 C1547 0.949 . S
H1572 C1549 0.950 . S
H1573 C1551 0.950 . S
C1574 C1575 1.349 . S
C1574 C1576 1.327 . S
C1574 H1599 0.950 . S
C1575 C1574 1.349 . S
C1575 C1591 1.349 . S
C1576 C1574 1.327 . S
C1576 C1595 1.429 . S
C1576 H1600 0.950 . S
C1577 C1594 1.574 . S
C1577 C1596 1.368 . S
C1577 H1601 0.949 . S
H1578 C1582 0.949 . S
C1579 C1580 1.349 . S
C1579 C1581 1.327 . S
C1579 H1602 0.950 . S
C1580 C1579 1.349 . S
C1580 C1592 1.349 . S
C1581 C1579 1.327 . S
C1581 C1597 1.429 . S
C1581 H1603 0.950 . S
C1582 H1578 0.949 . S
C1582 C1590 1.574 . S
C1582 C1598 1.368 . S
H1583 C1591 0.950 . S
H1584 C1589 0.950 . S
H1585 C1590 0.949 . S
H1586 C1592 0.950 . S
H1587 C1593 0.950 . S
H1588 C1594 0.949 . S
C1589 H1584 0.950 . S
C1589 C1591 1.327 . S
C1589 C1595 1.429 . S
C1590 C1582 1.574 . S
C1590 H1585 0.949 . S
C1590 C1596 1.368 . S
C1591 C1575 1.349 . S
C1591 H1583 0.950 . S
C1591 C1589 1.327 . S
C1592 C1580 1.349 . S
C1592 H1586 0.950 . S
C1592 C1593 1.327 . S
C1593 H1587 0.950 . S
C1593 C1592 1.327 . S
C1593 C1597 1.429 . S
C1594 C1577 1.574 . S
C1594 H1588 0.949 . S
C1594 C1598 1.368 . S
C1595 C1576 1.429 . S
C1595 C1589 1.429 . S
C1595 C1596 1.523 . S
C1596 C1577 1.368 . S
C1596 C1590 1.368 . S
C1596 C1595 1.523 . S
C1597 C1581 1.429 . S
C1597 C1593 1.429 . S
C1597 C1598 1.523 . S
C1598 C1582 1.368 . S
C1598 C1594 1.368 . S
C1598 C1597 1.523 . S
H1599 C1574 0.950 . S
H1600 C1576 0.950 . S
H1601 C1577 0.949 . S
H1602 C1579 0.950 . S
H1603 C1581 0.950 . S
C1604 C1605 1.349 . S
C1604 C1606 1.327 . S
C1604 H1629 0.950 . S
C1605 C1604 1.349 . S
C1605 C1621 1.349 . S
C1606 C1604 1.327 . S
C1606 C1625 1.429 . S
C1606 H1630 0.950 . S
C1607 C1624 1.574 . S
C1607 C1626 1.368 . S
C1607 H1631 0.949 . S
H1608 C1612 0.949 . S
C1609 C1610 1.349 . S
C1609 C1611 1.327 . S
C1609 H1632 0.950 . S
C1610 C1609 1.349 . S
C1610 C1622 1.349 . S
C1611 C1609 1.327 . S
C1611 C1627 1.429 . S
C1611 H1633 0.950 . S
C1612 H1608 0.949 . S
C1612 C1620 1.574 . S
C1612 C1628 1.368 . S
H1613 C1621 0.950 . S
H1614 C1619 0.950 . S
H1615 C1620 0.949 . S
H1616 C1622 0.950 . S
H1617 C1623 0.950 . S
H1618 C1624 0.949 . S
C1619 H1614 0.950 . S
C1619 C1621 1.327 . S
C1619 C1625 1.429 . S
C1620 C1612 1.574 . S
C1620 H1615 0.949 . S
C1620 C1626 1.368 . S
C1621 C1605 1.349 . S
C1621 H1613 0.950 . S
C1621 C1619 1.327 . S
C1622 C1610 1.349 . S
C1622 H1616 0.950 . S
C1622 C1623 1.327 . S
C1623 H1617 0.950 . S
C1623 C1622 1.327 . S
C1623 C1627 1.429 . S
C1624 C1607 1.574 . S
C1624 H1618 0.949 . S
C1624 C1628 1.368 . S
C1625 C1606 1.429 . S
C1625 C1619 1.429 . S
C1625 C1626 1.523 . S
C1626 C1607 1.368 . S
C1626 C1620 1.368 . S
C1626 C1625 1.523 . S
C1627 C1611 1.429 . S
C1627 C1623 1.429 . S
C1627 C1628 1.523 . S
C1628 C1612 1.368 . S
C1628 C1624 1.368 . S
C1628 C1627 1.523 . S
H1629 C1604 0.950 . S
H1630 C1606 0.950 . S
H1631 C1607 0.949 . S
H1632 C1609 0.950 . S
H1633 C1611 0.950 . S
C1634 C1635 1.349 . S
C1634 C1636 1.327 . S
C1634 H1659 0.950 . S
C1635 C1634 1.349 . S
C1635 C1651 1.349 . S
C1636 C1634 1.327 . S
C1636 C1655 1.429 . S
C1636 H1660 0.950 . S
C1637 C1654 1.574 . S
C1637 C1656 1.368 . S
C1637 H1661 0.949 . S
H1638 C1642 0.949 . S
C1639 C1640 1.349 . S
C1639 C1641 1.327 . S
C1639 H1662 0.950 . S
C1640 C1639 1.349 . S
C1640 C1652 1.349 . S
C1641 C1639 1.327 . S
C1641 C1657 1.429 . S
C1641 H1663 0.950 . S
C1642 H1638 0.949 . S
C1642 C1650 1.574 . S
C1642 C1658 1.368 . S
H1643 C1651 0.950 1_565 S
H1644 C1649 0.950 . S
H1645 C1650 0.949 . S
H1646 C1652 0.950 . S
H1647 C1653 0.950 . S
H1648 C1654 0.949 . S
C1649 H1644 0.950 . S
C1649 C1651 1.327 . S
C1649 C1655 1.429 . S
C1650 C1642 1.574 . S
C1650 H1645 0.949 . S
C1650 C1656 1.368 . S
C1651 C1635 1.349 . S
C1651 H1643 0.950 1_545 S
C1651 C1649 1.327 . S
C1652 C1640 1.349 . S
C1652 H1646 0.950 . S
C1652 C1653 1.327 . S
C1653 H1647 0.950 . S
C1653 C1652 1.327 . S
C1653 C1657 1.429 . S
C1654 C1637 1.574 . S
C1654 H1648 0.949 . S
C1654 C1658 1.368 . S
C1655 C1636 1.429 . S
C1655 C1649 1.429 . S
C1655 C1656 1.523 . S
C1656 C1637 1.368 . S
C1656 C1650 1.368 . S
C1656 C1655 1.523 . S
C1657 C1641 1.429 . S
C1657 C1653 1.429 . S
C1657 C1658 1.523 . S
C1658 C1642 1.368 . S
C1658 C1654 1.368 . S
C1658 C1657 1.523 . S
H1659 C1634 0.950 . S
H1660 C1636 0.950 . S
H1661 C1637 0.949 . S
H1662 C1639 0.950 . S
H1663 C1641 0.950 . S
C1664 C1665 1.349 . S
C1664 C1666 1.327 . S
C1664 H1689 0.950 . S
C1665 C1664 1.349 . S
C1665 C1681 1.349 . S
C1666 C1664 1.327 . S
C1666 C1685 1.429 . S
C1666 H1690 0.950 . S
C1667 C1684 1.574 . S
C1667 C1686 1.368 . S
C1667 H1691 0.949 . S
H1668 C1672 0.949 . S
C1669 C1670 1.349 . S
C1669 C1671 1.327 . S
C1669 H1692 0.950 . S
C1670 C1669 1.349 . S
C1670 C1682 1.349 . S
C1671 C1669 1.327 . S
C1671 C1687 1.429 . S
C1671 H1693 0.950 . S
C1672 H1668 0.949 . S
C1672 C1680 1.574 . S
C1672 C1688 1.368 . S
H1673 C1681 0.950 . S
H1674 C1679 0.950 . S
H1675 C1680 0.949 . S
H1676 C1682 0.950 . S
H1677 C1683 0.950 . S
H1678 C1684 0.949 . S
C1679 H1674 0.950 . S
C1679 C1681 1.327 . S
C1679 C1685 1.429 . S
C1680 C1672 1.574 . S
C1680 H1675 0.949 . S
C1680 C1686 1.368 . S
C1681 C1665 1.349 . S
C1681 H1673 0.950 . S
C1681 C1679 1.327 . S
C1682 C1670 1.349 . S
C1682 H1676 0.950 . S
C1682 C1683 1.327 . S
C1683 H1677 0.950 . S
C1683 C1682 1.327 . S
C1683 C1687 1.429 . S
C1684 C1667 1.574 . S
C1684 H1678 0.949 . S
C1684 C1688 1.368 . S
C1685 C1666 1.429 . S
C1685 C1679 1.429 . S
C1685 C1686 1.523 . S
C1686 C1667 1.368 . S
C1686 C1680 1.368 . S
C1686 C1685 1.523 . S
C1687 C1671 1.429 . S
C1687 C1683 1.429 . S
C1687 C1688 1.523 . S
C1688 C1672 1.368 . S
C1688 C1684 1.368 . S
C1688 C1687 1.523 . S
H1689 C1664 0.950 . S
H1690 C1666 0.950 . S
H1691 C1667 0.949 . S
H1692 C1669 0.950 . S
H1693 C1671 0.950 . S
C1694 C1695 1.349 . S
C1694 C1696 1.327 . S
C1694 H1719 0.950 . S
C1695 C1694 1.349 . S
C1695 C1711 1.349 . S
C1696 C1694 1.327 . S
C1696 C1715 1.429 . S
C1696 H1720 0.950 . S
C1697 C1714 1.574 . S
C1697 C1716 1.368 . S
C1697 H1721 0.949 . S
H1698 C1702 0.949 . S
C1699 C1700 1.349 . S
C1699 C1701 1.327 . S
C1699 H1722 0.950 . S
C1700 C1699 1.349 . S
C1700 C1712 1.349 . S
C1701 C1699 1.327 . S
C1701 C1717 1.429 . S
C1701 H1723 0.950 . S
C1702 H1698 0.949 . S
C1702 C1710 1.574 . S
C1702 C1718 1.368 . S
H1703 C1711 0.950 . S
H1704 C1709 0.950 . S
H1705 C1710 0.949 . S
H1706 C1712 0.950 . S
H1707 C1713 0.950 . S
H1708 C1714 0.949 . S
C1709 H1704 0.950 . S
C1709 C1711 1.327 . S
C1709 C1715 1.429 . S
C1710 C1702 1.574 . S
C1710 H1705 0.949 . S
C1710 C1716 1.368 . S
C1711 C1695 1.349 . S
C1711 H1703 0.950 . S
C1711 C1709 1.327 . S
C1712 C1700 1.349 . S
C1712 H1706 0.950 . S
C1712 C1713 1.327 . S
C1713 H1707 0.950 . S
C1713 C1712 1.327 . S
C1713 C1717 1.429 . S
C1714 C1697 1.574 . S
C1714 H1708 0.949 . S
C1714 C1718 1.368 . S
C1715 C1696 1.429 . S
C1715 C1709 1.429 . S
C1715 C1716 1.523 . S
C1716 C1697 1.368 . S
C1716 C1710 1.368 . S
C1716 C1715 1.523 . S
C1717 C1701 1.429 . S
C1717 C1713 1.429 . S
C1717 C1718 1.523 . S
C1718 C1702 1.368 . S
C1718 C1714 1.368 . S
C1718 C1717 1.523 . S
H1719 C1694 0.950 . S
H1720 C1696 0.950 . S
H1721 C1697 0.949 . S
H1722 C1699 0.950 . S
H1723 C1701 0.950 . S
C1724 C1725 1.349 . S
C1724 C1726 1.327 . S
C1724 H1749 0.950 . S
C1725 C1724 1.349 . S
C1725 C1741 1.349 . S
C1726 C1724 1.327 . S
C1726 C1745 1.429 . S
C1726 H1750 0.950 . S
C1727 C1744 1.574 . S
C1727 C1746 1.368 . S
C1727 H1751 0.949 . S
H1728 C1732 0.949 . S
C1729 C1730 1.349 . S
C1729 C1731 1.327 . S
C1729 H1752 0.950 . S
C1730 C1729 1.349 . S
C1730 C1742 1.349 . S
C1731 C1729 1.327 . S
C1731 C1747 1.429 . S
C1731 H1753 0.950 . S
C1732 H1728 0.949 . S
C1732 C1740 1.574 . S
C1732 C1748 1.368 . S
H1733 C1741 0.950 . S
H1734 C1739 0.950 . S
H1735 C1740 0.949 . S
H1736 C1742 0.950 . S
H1737 C1743 0.950 . S
H1738 C1744 0.949 . S
C1739 H1734 0.950 . S
C1739 C1741 1.327 . S
C1739 C1745 1.429 . S
C1740 C1732 1.574 . S
C1740 H1735 0.949 . S
C1740 C1746 1.368 . S
C1741 C1725 1.349 . S
C1741 H1733 0.950 . S
C1741 C1739 1.327 . S
C1742 C1730 1.349 . S
C1742 H1736 0.950 . S
C1742 C1743 1.327 . S
C1743 H1737 0.950 . S
C1743 C1742 1.327 . S
C1743 C1747 1.429 . S
C1744 C1727 1.574 . S
C1744 H1738 0.949 . S
C1744 C1748 1.368 . S
C1745 C1726 1.429 . S
C1745 C1739 1.429 . S
C1745 C1746 1.523 . S
C1746 C1727 1.368 . S
C1746 C1740 1.368 . S
C1746 C1745 1.523 . S
C1747 C1731 1.429 . S
C1747 C1743 1.429 . S
C1747 C1748 1.523 . S
C1748 C1732 1.368 . S
C1748 C1744 1.368 . S
C1748 C1747 1.523 . S
H1749 C1724 0.950 . S
H1750 C1726 0.950 . S
H1751 C1727 0.949 . S
H1752 C1729 0.950 . S
H1753 C1731 0.950 . S
C1754 C1755 1.349 . S
C1754 C1756 1.327 . S
C1754 H1779 0.950 . S
C1755 C1754 1.349 . S
C1755 C1771 1.349 . S
C1756 C1754 1.327 . S
C1756 C1775 1.429 . S
C1756 H1780 0.950 . S
C1757 C1774 1.574 . S
C1757 C1776 1.368 . S
C1757 H1781 0.949 . S
H1758 C1762 0.949 . S
C1759 C1760 1.349 . S
C1759 C1761 1.327 . S
C1759 H1782 0.950 . S
C1760 C1759 1.349 . S
C1760 C1772 1.349 . S
C1761 C1759 1.327 . S
C1761 C1777 1.429 . S
C1761 H1783 0.950 . S
C1762 H1758 0.949 . S
C1762 C1770 1.574 . S
C1762 C1778 1.368 . S
H1763 C1771 0.950 . S
H1764 C1769 0.950 . S
H1765 C1770 0.949 . S
H1766 C1772 0.950 . S
H1767 C1773 0.950 . S
H1768 C1774 0.949 . S
C1769 H1764 0.950 . S
C1769 C1771 1.327 . S
C1769 C1775 1.429 . S
C1770 C1762 1.574 . S
C1770 H1765 0.949 . S
C1770 C1776 1.368 . S
C1771 C1755 1.349 . S
C1771 H1763 0.950 . S
C1771 C1769 1.327 . S
C1772 C1760 1.349 . S
C1772 H1766 0.950 . S
C1772 C1773 1.327 . S
C1773 H1767 0.950 . S
C1773 C1772 1.327 . S
C1773 C1777 1.429 . S
C1774 C1757 1.574 . S
C1774 H1768 0.949 . S
C1774 C1778 1.368 . S
C1775 C1756 1.429 . S
C1775 C1769 1.429 . S
C1775 C1776 1.523 . S
C1776 C1757 1.368 . S
C1776 C1770 1.368 . S
C1776 C1775 1.523 . S
C1777 C1761 1.429 . S
C1777 C1773 1.429 . S
C1777 C1778 1.523 . S
C1778 C1762 1.368 . S
C1778 C1774 1.368 . S
C1778 C1777 1.523 . S
H1779 C1754 0.950 . S
H1780 C1756 0.950 . S
H1781 C1757 0.949 . S
H1782 C1759 0.950 . S
H1783 C1761 0.950 . S
C1784 C1785 1.349 . S
C1784 C1786 1.327 . S
C1784 H1809 0.950 . S
C1785 C1784 1.349 . S
C1785 C1801 1.349 . S
C1786 C1784 1.327 . S
C1786 C1805 1.429 . S
C1786 H1810 0.950 . S
C1787 C1804 1.574 . S
C1787 C1806 1.368 . S
C1787 H1811 0.949 . S
H1788 C1792 0.949 . S
C1789 C1790 1.349 . S
C1789 C1791 1.327 . S
C1789 H1812 0.950 . S
C1790 C1789 1.349 . S
C1790 C1802 1.349 . S
C1791 C1789 1.327 . S
C1791 C1807 1.429 . S
C1791 H1813 0.950 . S
C1792 H1788 0.949 . S
C1792 C1800 1.574 . S
C1792 C1808 1.368 . S
H1793 C1801 0.950 . S
H1794 C1799 0.950 . S
H1795 C1800 0.949 . S
H1796 C1802 0.950 1_565 S
H1797 C1803 0.950 . S
H1798 C1804 0.949 . S
C1799 H1794 0.950 . S
C1799 C1801 1.327 . S
C1799 C1805 1.429 . S
C1800 C1792 1.574 . S
C1800 H1795 0.949 . S
C1800 C1806 1.368 . S
C1801 C1785 1.349 . S
C1801 H1793 0.950 . S
C1801 C1799 1.327 . S
C1802 C1790 1.349 . S
C1802 H1796 0.950 1_545 S
C1802 C1803 1.327 . S
C1803 H1797 0.950 . S
C1803 C1802 1.327 . S
C1803 C1807 1.429 . S
C1804 C1787 1.574 . S
C1804 H1798 0.949 . S
C1804 C1808 1.368 . S
C1805 C1786 1.429 . S
C1805 C1799 1.429 . S
C1805 C1806 1.523 . S
C1806 C1787 1.368 . S
C1806 C1800 1.368 . S
C1806 C1805 1.523 . S
C1807 C1791 1.429 . S
C1807 C1803 1.429 . S
C1807 C1808 1.523 . S
C1808 C1792 1.368 . S
C1808 C1804 1.368 . S
C1808 C1807 1.523 . S
H1809 C1784 0.950 . S
H1810 C1786 0.950 . S
H1811 C1787 0.949 . S
H1812 C1789 0.950 . S
H1813 C1791 0.950 . S
C1814 C1815 1.349 . S
C1814 C1816 1.327 . S
C1814 H1839 0.950 . S
C1815 C1814 1.349 . S
C1815 C1831 1.349 . S
C1816 C1814 1.327 . S
C1816 C1835 1.429 . S
C1816 H1840 0.950 . S
C1817 C1834 1.574 . S
C1817 C1836 1.368 . S
C1817 H1841 0.949 . S
H1818 C1822 0.949 . S
C1819 C1820 1.349 . S
C1819 C1821 1.327 . S
C1819 H1842 0.950 . S
C1820 C1819 1.349 . S
C1820 C1832 1.349 . S
C1821 C1819 1.327 . S
C1821 C1837 1.429 . S
C1821 H1843 0.950 . S
C1822 H1818 0.949 . S
C1822 C1830 1.574 . S
C1822 C1838 1.368 . S
H1823 C1831 0.950 . S
H1824 C1829 0.950 . S
H1825 C1830 0.949 . S
H1826 C1832 0.950 . S
H1827 C1833 0.950 . S
H1828 C1834 0.949 . S
C1829 H1824 0.950 . S
C1829 C1831 1.327 . S
C1829 C1835 1.429 . S
C1830 C1822 1.574 . S
C1830 H1825 0.949 . S
C1830 C1836 1.368 . S
C1831 C1815 1.349 . S
C1831 H1823 0.950 . S
C1831 C1829 1.327 . S
C1832 C1820 1.349 . S
C1832 H1826 0.950 . S
C1832 C1833 1.327 . S
C1833 H1827 0.950 . S
C1833 C1832 1.327 . S
C1833 C1837 1.429 . S
C1834 C1817 1.574 . S
C1834 H1828 0.949 . S
C1834 C1838 1.368 . S
C1835 C1816 1.429 . S
C1835 C1829 1.429 . S
C1835 C1836 1.523 . S
C1836 C1817 1.368 . S
C1836 C1830 1.368 . S
C1836 C1835 1.523 . S
C1837 C1821 1.429 . S
C1837 C1833 1.429 . S
C1837 C1838 1.523 . S
C1838 C1822 1.368 . S
C1838 C1834 1.368 . S
C1838 C1837 1.523 . S
H1839 C1814 0.950 . S
H1840 C1816 0.950 . S
H1841 C1817 0.949 . S
H1842 C1819 0.950 . S
H1843 C1821 0.950 . S
C1844 C1845 1.349 . S
C1844 C1846 1.327 . S
C1844 H1869 0.950 . S
C1845 C1844 1.349 . S
C1845 C1861 1.349 . S
C1846 C1844 1.327 . S
C1846 C1865 1.429 . S
C1846 H1870 0.950 . S
C1847 C1864 1.574 . S
C1847 C1866 1.368 . S
C1847 H1871 0.949 . S
H1848 C1852 0.949 . S
C1849 C1850 1.349 . S
C1849 C1851 1.327 . S
C1849 H1872 0.950 . S
C1850 C1849 1.349 . S
C1850 C1862 1.349 . S
C1851 C1849 1.327 . S
C1851 C1867 1.429 . S
C1851 H1873 0.950 . S
C1852 H1848 0.949 . S
C1852 C1860 1.574 . S
C1852 C1868 1.368 . S
H1853 C1861 0.950 . S
H1854 C1859 0.950 . S
H1855 C1860 0.949 . S
H1856 C1862 0.950 . S
H1857 C1863 0.950 . S
H1858 C1864 0.949 . S
C1859 H1854 0.950 . S
C1859 C1861 1.327 . S
C1859 C1865 1.429 . S
C1860 C1852 1.574 . S
C1860 H1855 0.949 . S
C1860 C1866 1.368 . S
C1861 C1845 1.349 . S
C1861 H1853 0.950 . S
C1861 C1859 1.327 . S
C1862 C1850 1.349 . S
C1862 H1856 0.950 . S
C1862 C1863 1.327 . S
C1863 H1857 0.950 . S
C1863 C1862 1.327 . S
C1863 C1867 1.429 . S
C1864 C1847 1.574 . S
C1864 H1858 0.949 . S
C1864 C1868 1.368 . S
C1865 C1846 1.429 . S
C1865 C1859 1.429 . S
C1865 C1866 1.523 . S
C1866 C1847 1.368 . S
C1866 C1860 1.368 . S
C1866 C1865 1.523 . S
C1867 C1851 1.429 . S
C1867 C1863 1.429 . S
C1867 C1868 1.523 . S
C1868 C1852 1.368 . S
C1868 C1864 1.368 . S
C1868 C1867 1.523 . S
H1869 C1844 0.950 . S
H1870 C1846 0.950 . S
H1871 C1847 0.949 . S
H1872 C1849 0.950 . S
H1873 C1851 0.950 . S
C1874 C1875 1.349 . S
C1874 C1876 1.327 . S
C1874 H1899 0.950 . S
C1875 C1874 1.349 . S
C1875 C1891 1.349 . S
C1876 C1874 1.327 . S
C1876 C1895 1.429 . S
C1876 H1900 0.950 . S
C1877 C1894 1.574 . S
C1877 C1896 1.368 . S
C1877 H1901 0.949 . S
H1878 C1882 0.949 . S
C1879 C1880 1.349 . S
C1879 C1881 1.327 . S
C1879 H1902 0.950 . S
C1880 C1879 1.349 . S
C1880 C1892 1.349 . S
C1881 C1879 1.327 . S
C1881 C1897 1.429 . S
C1881 H1903 0.950 . S
C1882 H1878 0.949 . S
C1882 C1890 1.574 . S
C1882 C1898 1.368 . S
H1883 C1891 0.950 . S
H1884 C1889 0.950 . S
H1885 C1890 0.949 . S
H1886 C1892 0.950 . S
H1887 C1893 0.950 . S
H1888 C1894 0.949 . S
C1889 H1884 0.950 . S
C1889 C1891 1.327 . S
C1889 C1895 1.429 . S
C1890 C1882 1.574 . S
C1890 H1885 0.949 . S
C1890 C1896 1.368 . S
C1891 C1875 1.349 . S
C1891 H1883 0.950 . S
C1891 C1889 1.327 . S
C1892 C1880 1.349 . S
C1892 H1886 0.950 . S
C1892 C1893 1.327 . S
C1893 H1887 0.950 . S
C1893 C1892 1.327 . S
C1893 C1897 1.429 . S
C1894 C1877 1.574 . S
C1894 H1888 0.949 . S
C1894 C1898 1.368 . S
C1895 C1876 1.429 . S
C1895 C1889 1.429 . S
C1895 C1896 1.523 . S
C1896 C1877 1.368 . S
C1896 C1890 1.368 . S
C1896 C1895 1.523 . S
C1897 C1881 1.429 . S
C1897 C1893 1.429 . S
C1897 C1898 1.523 . S
C1898 C1882 1.368 . S
C1898 C1894 1.368 . S
C1898 C1897 1.523 . S
H1899 C1874 0.950 . S
H1900 C1876 0.950 . S
H1901 C1877 0.949 . S
H1902 C1879 0.950 . S
H1903 C1881 0.950 . S
C945 C859 1.513 . S
C950 C33 1.513 . S
C975 C123 1.511 . S
C980 C5 1.511 . S
C1005 C654 1.511 . S
C1010 C64 1.511 . S
C1035 C92 1.513 . S
C1040 C446 1.513 . S
C1065 C151 1.513 . S
C1070 C741 1.513 . S
C1095 C536 1.511 . S
C1100 C182 1.511 . S
C1125 C210 1.513 . S
C1130 C328 1.513 . S
C1155 C623 1.513 . S
C1160 C269 1.513 . S
C1185 C241 1.511 . S
C1190 C359 1.511 . S
C1215 C890 1.511 . S
C1220 C300 1.511 . S
C1245 C505 1.513 . S
C1250 C387 1.513 . S
C1275 C772 1.511 . S
C1280 C418 1.511 . S
C1305 C477 1.511 . S
C1310 C595 1.511 . S
C1335 C918 1.513 . S
C1340 C564 1.513 . S
C1365 C682 1.513 . S
C1370 C800 1.513 . S
C1395 C831 1.511 . S
C1400 C713 1.511 . S
C1425 C347 1.623 . S
C1430 C3 1.613 1_565 S
C1455 C52 1.623 . S
C1460 C298 1.613 . S
C1485 C111 1.623 . S
C1490 C239 1.613 . S
C1515 C288 1.623 . S
C1520 C62 1.613 1_565 S
C1545 C465 1.623 . S
C1550 C121 1.613 1_545 S
C1575 C416 1.613 . S
C1580 C170 1.623 . S
C1605 C357 1.613 . S
C1610 C229 1.623 . S
C1635 C180 1.613 1_545 S
C1640 C406 1.623 . S
C1665 C819 1.623 . S
C1670 C475 1.613 1_565 S
C1695 C524 1.623 . S
C1700 C770 1.613 . S
C1725 C583 1.623 . S
C1730 C711 1.613 . S
C1755 C760 1.623 . S
C1760 C534 1.613 1_565 S
C1785 C937 1.623 . S
C1790 C593 1.613 1_545 S
C1815 C888 1.613 . S
C1820 C642 1.623 . S
C1845 C701 1.623 . S
C1850 C829 1.613 . S
C1875 C878 1.623 . S
C1880 C652 1.613 1_545 S
