# Generated by pormake.
# Topology wgl, (5)-cn, num edge types: 1
# Building blocks:
#     Node 0, Type 0, BuildingBlock: XOMCOT_clean_sbu_1, # of connection points: 5
#     Node 1, Type 0, BuildingBlock: XOMCOT_clean_sbu_1, # of connection points: 5
#     Node 2, Type 0, BuildingBlock: XOMCOT_clean_sbu_1, # of connection points: 5
#     Node 3, Type 0, BuildingBlock: XOMCOT_clean_sbu_1, # of connection points: 5
#     Node 4, Type 0, BuildingBlock: XOMCOT_clean_sbu_1, # of connection points: 5
#     Node 5, Type 0, BuildingBlock: XOMCOT_clean_sbu_1, # of connection points: 5
#     Node 6, Type 0, BuildingBlock: XOMCOT_clean_sbu_1, # of connection points: 5
#     Node 7, Type 0, BuildingBlock: XOMCOT_clean_sbu_1, # of connection points: 5
#     Node 8, Type 0, BuildingBlock: XOMCOT_clean_sbu_1, # of connection points: 5
#     Node 9, Type 0, BuildingBlock: XOMCOT_clean_sbu_1, # of connection points: 5
#     Node 10, Type 0, BuildingBlock: XOMCOT_clean_sbu_1, # of connection points: 5
#     Node 11, Type 0, BuildingBlock: XOMCOT_clean_sbu_1, # of connection points: 5
#     Node 12, Type 0, BuildingBlock: XOMCOT_clean_sbu_1, # of connection points: 5
#     Node 13, Type 0, BuildingBlock: XOMCOT_clean_sbu_1, # of connection points: 5
#     Node 14, Type 0, BuildingBlock: XOMCOT_clean_sbu_1, # of connection points: 5
#     Node 15, Type 0, BuildingBlock: XOMCOT_clean_sbu_1, # of connection points: 5
#     Node 16, Type 0, BuildingBlock: XOMCOT_clean_sbu_1, # of connection points: 5
#     Node 17, Type 0, BuildingBlock: XOMCOT_clean_sbu_1, # of connection points: 5
#     Node 18, Type 0, BuildingBlock: XOMCOT_clean_sbu_1, # of connection points: 5
#     Node 19, Type 0, BuildingBlock: XOMCOT_clean_sbu_1, # of connection points: 5
#     Node 20, Type 0, BuildingBlock: XOMCOT_clean_sbu_1, # of connection points: 5
#     Node 21, Type 0, BuildingBlock: XOMCOT_clean_sbu_1, # of connection points: 5
#     Node 22, Type 0, BuildingBlock: XOMCOT_clean_sbu_1, # of connection points: 5
#     Node 23, Type 0, BuildingBlock: XOMCOT_clean_sbu_1, # of connection points: 5
#     Node 24, Type 0, BuildingBlock: XOMCOT_clean_sbu_1, # of connection points: 5
#     Node 25, Type 0, BuildingBlock: XOMCOT_clean_sbu_1, # of connection points: 5
#     Node 26, Type 0, BuildingBlock: XOMCOT_clean_sbu_1, # of connection points: 5
#     Node 27, Type 0, BuildingBlock: XOMCOT_clean_sbu_1, # of connection points: 5
#     Node 28, Type 0, BuildingBlock: XOMCOT_clean_sbu_1, # of connection points: 5
#     Node 29, Type 0, BuildingBlock: XOMCOT_clean_sbu_1, # of connection points: 5
#     Node 30, Type 0, BuildingBlock: XOMCOT_clean_sbu_1, # of connection points: 5
#     Node 31, Type 0, BuildingBlock: XOMCOT_clean_sbu_1, # of connection points: 5
#     Edge 32, Type (0, 0), BuildingBlock: EZIPEK_clean_linker_0, # of connection points: 2
#     Edge 33, Type (0, 0), BuildingBlock: EZIPEK_clean_linker_0, # of connection points: 2
#     Edge 34, Type (0, 0), BuildingBlock: EZIPEK_clean_linker_0, # of connection points: 2
#     Edge 35, Type (0, 0), BuildingBlock: EZIPEK_clean_linker_0, # of connection points: 2
#     Edge 36, Type (0, 0), BuildingBlock: EZIPEK_clean_linker_0, # of connection points: 2
#     Edge 37, Type (0, 0), BuildingBlock: EZIPEK_clean_linker_0, # of connection points: 2
#     Edge 38, Type (0, 0), BuildingBlock: EZIPEK_clean_linker_0, # of connection points: 2
#     Edge 39, Type (0, 0), BuildingBlock: EZIPEK_clean_linker_0, # of connection points: 2
#     Edge 40, Type (0, 0), BuildingBlock: EZIPEK_clean_linker_0, # of connection points: 2
#     Edge 41, Type (0, 0), BuildingBlock: EZIPEK_clean_linker_0, # of connection points: 2
#     Edge 42, Type (0, 0), BuildingBlock: EZIPEK_clean_linker_0, # of connection points: 2
#     Edge 43, Type (0, 0), BuildingBlock: EZIPEK_clean_linker_0, # of connection points: 2
#     Edge 44, Type (0, 0), BuildingBlock: EZIPEK_clean_linker_0, # of connection points: 2
#     Edge 45, Type (0, 0), BuildingBlock: EZIPEK_clean_linker_0, # of connection points: 2
#     Edge 46, Type (0, 0), BuildingBlock: EZIPEK_clean_linker_0, # of connection points: 2
#     Edge 47, Type (0, 0), BuildingBlock: EZIPEK_clean_linker_0, # of connection points: 2
#     Edge 48, Type (0, 0), BuildingBlock: EZIPEK_clean_linker_0, # of connection points: 2
#     Edge 49, Type (0, 0), BuildingBlock: EZIPEK_clean_linker_0, # of connection points: 2
#     Edge 50, Type (0, 0), BuildingBlock: EZIPEK_clean_linker_0, # of connection points: 2
#     Edge 51, Type (0, 0), BuildingBlock: EZIPEK_clean_linker_0, # of connection points: 2
#     Edge 52, Type (0, 0), BuildingBlock: EZIPEK_clean_linker_0, # of connection points: 2
#     Edge 53, Type (0, 0), BuildingBlock: EZIPEK_clean_linker_0, # of connection points: 2
#     Edge 54, Type (0, 0), BuildingBlock: EZIPEK_clean_linker_0, # of connection points: 2
#     Edge 55, Type (0, 0), BuildingBlock: EZIPEK_clean_linker_0, # of connection points: 2
#     Edge 56, Type (0, 0), BuildingBlock: EZIPEK_clean_linker_0, # of connection points: 2
#     Edge 57, Type (0, 0), BuildingBlock: EZIPEK_clean_linker_0, # of connection points: 2
#     Edge 58, Type (0, 0), BuildingBlock: EZIPEK_clean_linker_0, # of connection points: 2
#     Edge 59, Type (0, 0), BuildingBlock: EZIPEK_clean_linker_0, # of connection points: 2
#     Edge 60, Type (0, 0), BuildingBlock: EZIPEK_clean_linker_0, # of connection points: 2
#     Edge 61, Type (0, 0), BuildingBlock: EZIPEK_clean_linker_0, # of connection points: 2
#     Edge 62, Type (0, 0), BuildingBlock: EZIPEK_clean_linker_0, # of connection points: 2
#     Edge 63, Type (0, 0), BuildingBlock: EZIPEK_clean_linker_0, # of connection points: 2
#     Edge 64, Type (0, 0), BuildingBlock: EZIPEK_clean_linker_0, # of connection points: 2
#     Edge 65, Type (0, 0), BuildingBlock: EZIPEK_clean_linker_0, # of connection points: 2
#     Edge 66, Type (0, 0), BuildingBlock: EZIPEK_clean_linker_0, # of connection points: 2
#     Edge 67, Type (0, 0), BuildingBlock: EZIPEK_clean_linker_0, # of connection points: 2
#     Edge 68, Type (0, 0), BuildingBlock: EZIPEK_clean_linker_0, # of connection points: 2
#     Edge 69, Type (0, 0), BuildingBlock: EZIPEK_clean_linker_0, # of connection points: 2
#     Edge 70, Type (0, 0), BuildingBlock: EZIPEK_clean_linker_0, # of connection points: 2
#     Edge 71, Type (0, 0), BuildingBlock: EZIPEK_clean_linker_0, # of connection points: 2
#     Edge 72, Type (0, 0), BuildingBlock: EZIPEK_clean_linker_0, # of connection points: 2
#     Edge 73, Type (0, 0), BuildingBlock: EZIPEK_clean_linker_0, # of connection points: 2
#     Edge 74, Type (0, 0), BuildingBlock: EZIPEK_clean_linker_0, # of connection points: 2
#     Edge 75, Type (0, 0), BuildingBlock: EZIPEK_clean_linker_0, # of connection points: 2
#     Edge 76, Type (0, 0), BuildingBlock: EZIPEK_clean_linker_0, # of connection points: 2
#     Edge 77, Type (0, 0), BuildingBlock: EZIPEK_clean_linker_0, # of connection points: 2
#     Edge 78, Type (0, 0), BuildingBlock: EZIPEK_clean_linker_0, # of connection points: 2
#     Edge 79, Type (0, 0), BuildingBlock: EZIPEK_clean_linker_0, # of connection points: 2
#     Edge 80, Type (0, 0), BuildingBlock: EZIPEK_clean_linker_0, # of connection points: 2
#     Edge 81, Type (0, 0), BuildingBlock: EZIPEK_clean_linker_0, # of connection points: 2
#     Edge 82, Type (0, 0), BuildingBlock: EZIPEK_clean_linker_0, # of connection points: 2
#     Edge 83, Type (0, 0), BuildingBlock: EZIPEK_clean_linker_0, # of connection points: 2
#     Edge 84, Type (0, 0), BuildingBlock: EZIPEK_clean_linker_0, # of connection points: 2
#     Edge 85, Type (0, 0), BuildingBlock: EZIPEK_clean_linker_0, # of connection points: 2
#     Edge 86, Type (0, 0), BuildingBlock: EZIPEK_clean_linker_0, # of connection points: 2
#     Edge 87, Type (0, 0), BuildingBlock: EZIPEK_clean_linker_0, # of connection points: 2
#     Edge 88, Type (0, 0), BuildingBlock: EZIPEK_clean_linker_0, # of connection points: 2
#     Edge 89, Type (0, 0), BuildingBlock: EZIPEK_clean_linker_0, # of connection points: 2
#     Edge 90, Type (0, 0), BuildingBlock: EZIPEK_clean_linker_0, # of connection points: 2
#     Edge 91, Type (0, 0), BuildingBlock: EZIPEK_clean_linker_0, # of connection points: 2
#     Edge 92, Type (0, 0), BuildingBlock: EZIPEK_clean_linker_0, # of connection points: 2
#     Edge 93, Type (0, 0), BuildingBlock: EZIPEK_clean_linker_0, # of connection points: 2
#     Edge 94, Type (0, 0), BuildingBlock: EZIPEK_clean_linker_0, # of connection points: 2
#     Edge 95, Type (0, 0), BuildingBlock: EZIPEK_clean_linker_0, # of connection points: 2
#     Edge 96, Type (0, 0), BuildingBlock: EZIPEK_clean_linker_0, # of connection points: 2
#     Edge 97, Type (0, 0), BuildingBlock: EZIPEK_clean_linker_0, # of connection points: 2
#     Edge 98, Type (0, 0), BuildingBlock: EZIPEK_clean_linker_0, # of connection points: 2
#     Edge 99, Type (0, 0), BuildingBlock: EZIPEK_clean_linker_0, # of connection points: 2
#     Edge 100, Type (0, 0), BuildingBlock: EZIPEK_clean_linker_0, # of connection points: 2
#     Edge 101, Type (0, 0), BuildingBlock: EZIPEK_clean_linker_0, # of connection points: 2
#     Edge 102, Type (0, 0), BuildingBlock: EZIPEK_clean_linker_0, # of connection points: 2
#     Edge 103, Type (0, 0), BuildingBlock: EZIPEK_clean_linker_0, # of connection points: 2
#     Edge 104, Type (0, 0), BuildingBlock: EZIPEK_clean_linker_0, # of connection points: 2
#     Edge 105, Type (0, 0), BuildingBlock: EZIPEK_clean_linker_0, # of connection points: 2
#     Edge 106, Type (0, 0), BuildingBlock: EZIPEK_clean_linker_0, # of connection points: 2
#     Edge 107, Type (0, 0), BuildingBlock: EZIPEK_clean_linker_0, # of connection points: 2
#     Edge 108, Type (0, 0), BuildingBlock: EZIPEK_clean_linker_0, # of connection points: 2
#     Edge 109, Type (0, 0), BuildingBlock: EZIPEK_clean_linker_0, # of connection points: 2
#     Edge 110, Type (0, 0), BuildingBlock: EZIPEK_clean_linker_0, # of connection points: 2
#     Edge 111, Type (0, 0), BuildingBlock: EZIPEK_clean_linker_0, # of connection points: 2
# Relax obj value: 0.051
# Max RMSD: 0.087
# Mean RMSD: 0.087
data_MOF--net-wgl--node1-XOMCOT_clean_sbu_1--edge1-EZIPEK_clean_linker_0
_symmetry_space_group_name_H-M    P1
_symmetry_Int_Tables_number       1
_symmetry_cell_setting            triclinic
loop_
_symmetry_equiv_pos_as_xyz
'x, y, z'
_cell_length_a     44.210863
_cell_length_b     44.377168
_cell_length_c     38.735248
_cell_angle_alpha  89.942966
_cell_angle_beta   89.67425
_cell_angle_gamma 89.681755
loop_
_atom_site_label
_atom_site_type_symbol
_atom_site_fract_x
_atom_site_fract_y
_atom_site_fract_z
_atom_type_partial_charge
C0 C 0.26983 0.36804 0.19596 0.0
C1 C 0.24772 0.38953 0.19197 0.0
N2 N 0.2414 0.3918 0.15816 0.0
N3 N 0.27743 0.35644 0.16494 0.0
C4 C 0.25976 0.37159 0.14216 0.0
H5 H 0.28045 0.36185 0.21995 0.0
Co6 Co 0.3065 0.32568 0.16132 0.0
C7 C 0.29668 0.29894 0.08855 0.0
O8 O 0.32076 0.28155 0.089 0.0
N9 N 0.33593 0.29509 0.16033 0.0
C10 C 0.37875 0.27135 0.17408 0.0
C11 C 0.36429 0.29875 0.1725 0.0
C12 C 0.33336 0.26501 0.15584 0.0
N13 N 0.35914 0.25031 0.16368 0.0
O14 O 0.27915 0.29853 0.1851 0.0
H15 H 0.37348 0.31984 0.18138 0.0
H16 H 0.31301 0.25398 0.14736 0.0
O17 O 0.28982 0.31525 0.11488 0.0
C18 C 0.28741 0.29449 0.21641 0.0
O19 O 0.3113 0.30913 0.22729 0.0
N20 N 0.3347 0.35266 0.14185 0.0
C21 C 0.38981 0.38122 0.1315 0.0
C22 C 0.37872 0.36155 0.10661 0.0
C23 C 0.35119 0.34717 0.11248 0.0
C24 C 0.34419 0.37384 0.16483 0.0
C25 C 0.37181 0.38839 0.16015 0.0
H26 H 0.34505 0.3298 0.09483 0.0
H27 H 0.33194 0.3772 0.18872 0.0
H28 H 0.26037 0.36819 0.11456 0.0
H29 H 0.2377 0.40324 0.21217 0.0
H30 H 0.40152 0.267 0.18301 0.0
H31 H 0.39229 0.35559 0.08423 0.0
H32 H 0.37995 0.4036 0.17985 0.0
C33 C 0.89344 0.02533 0.46916 0.0
C34 C 0.87158 1.00355 0.46594 0.0
N35 N 0.87213 0.99353 0.43319 0.0
N36 N 0.90792 0.02886 0.43871 0.0
C37 C 0.89414 1.00932 0.41708 0.0
H38 H 0.89809 0.03828 0.49209 0.0
Co39 Co 0.93906 0.05663 0.43173 0.0
C40 C 0.95927 0.04967 0.35772 0.0
O41 O 0.96398 0.07884 0.35712 0.0
N42 N 0.97104 0.08501 0.4254 0.0
C43 C 0.9994 0.12578 0.41632 0.0
C44 C 0.97038 0.1151 0.41928 0.0
C45 C 1.00097 0.07831 0.42606 0.0
N46 N 0.01859 0.10257 0.42086 0.0
O47 O 0.96661 0.03039 0.45738 0.0
H48 H 0.95042 0.12884 0.41625 0.0
H49 H 1.00994 0.05595 0.42944 0.0
O50 O 0.94902 0.03789 0.38583 0.0
C51 C 0.9698 0.04103 0.48797 0.0
O52 O 0.95542 0.06619 0.49556 0.0
N53 N 0.91092 0.08323 0.41252 0.0
C54 C 0.87623 0.13308 0.3949 0.0
C55 C 0.88114 0.10988 0.37079 0.0
C56 C 0.89859 0.08473 0.38029 0.0
C57 C 0.90213 0.1031 0.43742 0.0
C58 C 0.88541 0.12864 0.42902 0.0
H59 H 0.90271 0.06722 0.36154 0.0
H60 H 0.91061 0.10048 0.46339 0.0
H61 H 0.89957 1.00705 0.38998 0.0
H62 H 0.85609 0.99598 0.48584 0.0
H63 H 1.00598 0.14889 0.41158 0.0
H64 H 0.87308 0.11206 0.34456 0.0
H65 H 0.88121 0.14561 0.44858 0.0
C66 C 0.24569 0.6415 0.70639 0.0
C67 C 0.2681 0.61997 0.70833 0.0
N68 N 0.28763 0.62454 0.68216 0.0
N69 N 0.2508 0.65962 0.679 0.0
C70 C 0.27696 0.64898 0.66501 0.0
H71 H 0.22597 0.6429 0.72295 0.0
Co72 Co 0.22229 0.68902 0.66558 0.0
C73 C 0.23041 0.69664 0.58863 0.0
O74 O 0.20087 0.69555 0.58633 0.0
N75 N 0.19268 0.71928 0.65323 0.0
C76 C 0.15036 0.74353 0.63756 0.0
C77 C 0.16456 0.71604 0.63983 0.0
C78 C 0.19468 0.74949 0.65855 0.0
N79 N 0.16924 0.76446 0.64977 0.0
O80 O 0.24593 0.71989 0.68852 0.0
H81 H 0.15454 0.69515 0.6316 0.0
H82 H 0.21401 0.76066 0.66954 0.0
O83 O 0.24292 0.69448 0.61867 0.0
C84 C 0.23607 0.7219 0.71978 0.0
O85 O 0.21573 0.70241 0.73025 0.0
N86 N 0.1975 0.65796 0.64961 0.0
C87 C 0.15205 0.61739 0.63478 0.0
C88 C 0.1777 0.61893 0.61351 0.0
C89 C 0.20081 0.63902 0.62201 0.0
C90 C 0.1745 0.65374 0.67262 0.0
C91 C 0.15116 0.63397 0.66539 0.0
H92 H 0.2206 0.63982 0.60588 0.0
H93 H 0.17329 0.66744 0.69567 0.0
H94 H 0.28764 0.65829 0.64233 0.0
H95 H 0.26906 0.6013 0.72631 0.0
H96 H 0.12756 0.74778 0.62867 0.0
H97 H 0.17939 0.60546 0.59028 0.0
H98 H 0.13194 0.63258 0.68279 0.0
C99 C 0.62812 0.99523 0.94755 0.0
C100 C 0.65239 0.01458 0.94722 0.0
N101 N 0.65197 0.03004 0.91739 0.0
N102 N 0.61231 0.99785 0.91784 0.0
C103 C 0.62697 0.02042 0.90085 0.0
H104 H 0.62257 0.98018 0.96854 0.0
Co105 Co 0.57607 0.97559 0.90646 0.0
C106 C 0.59258 0.99669 0.83445 0.0
O107 O 0.62047 0.98695 0.83858 0.0
N108 N 0.53949 0.95481 0.89557 0.0
C109 C 0.49874 0.93952 0.86675 0.0
C110 C 0.52596 0.95386 0.86426 0.0
C111 C 0.51911 0.94132 0.91691 0.0
N112 N 0.4942 0.93197 0.89988 0.0
O113 O 0.5521 1.00546 0.93087 0.0
H114 H 0.53436 0.96392 0.84076 0.0
H115 H 0.52173 0.93939 0.94455 0.0
O116 O 0.5739 0.99601 0.86016 0.0
C117 C 0.55021 0.99467 0.96165 0.0
O118 O 0.56566 0.97006 0.96864 0.0
N119 N 0.59895 0.94312 0.88816 0.0
C120 C 0.6294 0.88988 0.8716 0.0
C121 C 0.63265 0.90294 0.90412 0.0
C122 C 0.61682 0.92925 0.91202 0.0
C123 C 0.59458 0.9297 0.85681 0.0
C124 C 0.61038 0.90358 0.84754 0.0
H125 H 0.61761 0.93751 0.93807 0.0
H126 H 0.57855 0.93863 0.83876 0.0
H127 H 0.61943 0.03065 0.87719 0.0
H128 H 0.66945 0.01667 0.967 0.0
H129 H 0.48256 0.93646 0.84617 0.0
H130 H 0.64642 0.89223 0.92371 0.0
H131 H 0.60679 0.89345 0.82247 0.0
C132 C 0.29055 0.6206 0.35121 0.0
C133 C 0.27278 0.59521 0.35304 0.0
N134 N 0.2493 0.6011 0.37432 0.0
N135 N 0.27821 0.64243 0.37108 0.0
C136 C 0.25307 0.62985 0.38488 0.0
H137 H 0.31099 0.62315 0.33603 0.0
Co138 Co 0.29199 0.68208 0.37554 0.0
C139 C 0.2854 0.69703 0.45039 0.0
O140 O 0.3121 0.70965 0.44757 0.0
N141 N 0.30381 0.72305 0.37982 0.0
C142 C 0.29303 0.77205 0.38507 0.0
C143 C 0.28148 0.74374 0.38461 0.0
C144 C 0.32932 0.73996 0.3785 0.0
N145 N 0.32304 0.76971 0.38138 0.0
O146 O 0.25731 0.69674 0.35002 0.0
H147 H 0.25779 0.73872 0.38796 0.0
H148 H 0.35203 0.73118 0.37595 0.0
O149 O 0.27301 0.68529 0.42339 0.0
C150 C 0.26332 0.69567 0.31756 0.0
O151 O 0.28233 0.67494 0.30647 0.0
N152 N 0.32828 0.66708 0.39403 0.0
C153 C 0.38377 0.63976 0.40859 0.0
C154 C 0.35805 0.63302 0.42847 0.0
C155 C 0.33026 0.64665 0.42036 0.0
C156 C 0.35261 0.67192 0.37306 0.0
C157 C 0.38074 0.65925 0.38042 0.0
H158 H 0.31016 0.63998 0.43435 0.0
H159 H 0.34994 0.68499 0.34971 0.0
H160 H 0.23756 0.64157 0.40198 0.0
H161 H 0.27677 0.57402 0.33991 0.0
H162 H 0.28054 0.79284 0.38902 0.0
H163 H 0.35937 0.61702 0.44955 0.0
H164 H 0.39984 0.66395 0.36365 0.0
C165 C 0.62117 1.00987 0.58448 0.0
C166 C 0.64358 0.98846 0.58835 0.0
N167 N 0.64951 0.98563 0.62217 0.0
N168 N 0.61269 0.02052 0.61576 0.0
C169 C 0.63073 1.00539 0.63829 0.0
H170 H 0.61198 0.0173 0.56015 0.0
Co171 Co 0.58302 0.05084 0.62367 0.0
C172 C 0.56771 0.04571 0.69916 0.0
O173 O 0.566 0.07516 0.70146 0.0
N174 N 0.55275 0.08162 0.63155 0.0
C175 C 0.52874 0.12472 0.64447 0.0
C176 C 0.55625 0.11044 0.64262 0.0
C177 C 0.52238 0.07931 0.62717 0.0
N178 N 0.50754 0.10518 0.63446 0.0
O179 O 0.55277 0.02598 0.60286 0.0
H180 H 0.57719 0.12075 0.65023 0.0
H181 H 0.51095 0.05921 0.61865 0.0
O182 O 0.57514 0.034 0.67007 0.0
C183 C 0.55 0.03377 0.57114 0.0
O184 O 0.56825 0.05442 0.55871 0.0
N185 N 0.61314 0.07641 0.63838 0.0
C186 C 0.64845 0.12717 0.64722 0.0
C187 C 0.64665 0.10528 0.67351 0.0
C188 C 0.62836 0.07983 0.66867 0.0
C189 C 0.61819 0.09523 0.61129 0.0
C190 C 0.63454 0.12139 0.61557 0.0
H191 H 0.62586 0.06366 0.68932 0.0
H192 H 0.60676 0.09141 0.58713 0.0
H193 H 0.63056 1.0091 0.66586 0.0
H194 H 0.65487 0.97607 0.56791 0.0
H195 H 0.52457 0.14782 0.65222 0.0
H196 H 0.65816 0.10848 0.69782 0.0
H197 H 0.6357 0.13736 0.59443 0.0
C198 C 0.25494 0.37847 0.84738 0.0
C199 C 0.2758 0.40118 0.85055 0.0
N200 N 0.28588 0.40131 0.88323 0.0
N201 N 0.2517 0.36404 0.87785 0.0
C202 C 0.27099 0.37859 0.89932 0.0
H203 H 0.24213 0.37342 0.82448 0.0
Co204 Co 0.22386 0.33209 0.8842 0.0
C205 C 0.23618 0.30644 0.95559 0.0
O206 O 0.20984 0.29298 0.95655 0.0
N207 N 0.19566 0.29989 0.88907 0.0
C208 C 0.1529 0.27348 0.89145 0.0
C209 C 0.16514 0.30188 0.89037 0.0
C210 C 0.20117 0.26974 0.88848 0.0
N211 N 0.17559 0.25321 0.88993 0.0
O212 O 0.25024 0.30549 0.85764 0.0
H213 H 0.15221 0.32254 0.88952 0.0
H214 H 0.22349 0.25998 0.88742 0.0
O215 O 0.24403 0.32174 0.92886 0.0
C216 C 0.23981 0.30294 0.82695 0.0
O217 O 0.21527 0.31831 0.8192 0.0
N218 N 0.19627 0.35916 0.90532 0.0
C219 C 0.14349 0.39142 0.92012 0.0
C220 C 0.15929 0.37673 0.94653 0.0
C221 C 0.18547 0.36021 0.93848 0.0
C222 C 0.18255 0.37577 0.88016 0.0
C223 C 0.15606 0.39194 0.88694 0.0
H224 H 0.19516 0.34687 0.95861 0.0
H225 H 0.19069 0.37426 0.85386 0.0
H226 H 0.27395 0.37306 0.92622 0.0
H227 H 0.2824 0.41706 0.83069 0.0
H228 H 0.12905 0.26807 0.89211 0.0
H229 H 0.15011 0.376 0.97251 0.0
H230 H 0.14444 0.40312 0.86593 0.0
C231 C 0.87788 0.98458 0.12073 0.0
C232 C 0.85191 1.00197 0.12001 0.0
N233 N 0.8568 0.0273 0.13828 0.0
N234 N 0.89911 0.99877 0.13945 0.0
C235 C 0.88582 0.02513 0.14892 0.0
H236 H 0.88099 0.96282 0.10863 0.0
Co237 Co 0.93886 0.98529 0.14805 0.0
C238 C 0.92252 0.01135 0.2224 0.0
O239 O 0.89295 0.01322 0.22012 0.0
N240 N 0.97952 0.97378 0.15688 0.0
C241 C 0.02703 0.98469 0.17115 0.0
C242 C 0.99784 0.99473 0.17095 0.0
C243 C 0.99859 0.95055 0.14926 0.0
N244 N 0.02757 0.95685 0.1578 0.0
O245 O 0.95481 0.021 0.12542 0.0
H246 H 0.99066 0.01684 0.17941 0.0
H247 H 0.99198 0.92981 0.13698 0.0
O248 O 0.93853 1.00225 0.19652 0.0
C249 C 0.9596 0.01184 0.09434 0.0
O250 O 0.94917 0.98518 0.08594 0.0
N251 N 0.92392 0.94773 0.16355 0.0
C252 C 0.89878 0.89047 0.17191 0.0
C253 C 0.89113 0.91389 0.1946 0.0
C254 C 0.90365 0.94256 0.18958 0.0
C255 C 0.93055 0.92528 0.14066 0.0
C256 C 0.91877 0.89638 0.14471 0.0
H257 H 0.89525 0.96073 0.20488 0.0
H258 H 0.94393 0.9302 0.11795 0.0
H259 H 0.89711 0.04241 0.16364 0.0
H260 H 0.83075 0.99611 0.10787 0.0
H261 H 0.04652 0.99685 0.18047 0.0
H262 H 0.87467 0.91036 0.21501 0.0
H263 H 0.92423 0.87909 0.12592 0.0
C264 C 0.75069 0.6431 0.84239 0.0
C265 C 0.77027 0.61883 0.84486 0.0
N266 N 0.78424 0.62001 0.87566 0.0
N267 N 0.75242 0.65993 0.8713 0.0
C268 C 0.77324 0.64521 0.89096 0.0
H269 H 0.736 0.64798 0.82086 0.0
Co270 Co 0.73125 0.69662 0.88095 0.0
C271 C 0.73926 0.68947 0.9585 0.0
O272 O 0.7111 0.68097 0.9624 0.0
N273 N 0.7116 0.73418 0.89141 0.0
C274 C 0.68703 0.77123 0.91892 0.0
C275 C 0.70059 0.74365 0.92231 0.0
C276 C 0.70403 0.7569 0.86951 0.0
N277 N 0.68927 0.77943 0.8858 0.0
O278 O 0.76386 0.71913 0.85967 0.0
H279 H 0.70087 0.73138 0.94605 0.0
H280 H 0.70783 0.7566 0.84196 0.0
O281 O 0.74961 0.69686 0.92851 0.0
C282 C 0.75486 0.72113 0.8282 0.0
O283 O 0.7302 0.70644 0.81992 0.0
N284 N 0.69606 0.67474 0.89446 0.0
C285 C 0.64043 0.64613 0.90368 0.0
C286 C 0.66739 0.63179 0.91367 0.0
C287 C 0.69514 0.6464 0.90846 0.0
C288 C 0.66994 0.68733 0.8821 0.0
C289 C 0.64199 0.67432 0.88803 0.0
H290 H 0.7157 0.63501 0.916 0.0
H291 H 0.67035 0.70725 0.86624 0.0
H292 H 0.78039 0.65255 0.91618 0.0
H293 H 0.77352 0.60125 0.82582 0.0
H294 H 0.67546 0.7839 0.93893 0.0
H295 H 0.66698 0.60946 0.92499 0.0
H296 H 0.62176 0.6855 0.87869 0.0
C297 C 0.13357 0.99603 0.60959 0.0
C298 C 0.15639 0.01694 0.60922 0.0
N299 N 0.15208 0.03582 0.63593 0.0
N300 N 0.11476 1.00137 0.63656 0.0
C301 C 0.12623 0.02657 0.65135 0.0
H302 H 0.131 0.97814 0.59102 0.0
Co303 Co 0.07932 0.97873 0.64663 0.0
C304 C 0.09617 0.99905 0.72037 0.0
O305 O 0.12531 0.99523 0.71498 0.0
N306 N 0.04391 0.95673 0.65606 0.0
C307 C 1.00655 0.93398 0.68457 0.0
C308 C 0.03517 0.9456 0.68705 0.0
C309 C 0.02017 0.95123 0.63508 0.0
N310 N 0.99714 0.9378 0.65195 0.0
O311 O 0.05479 0.01144 0.62845 0.0
H312 H 0.04799 0.94703 0.71061 0.0
H313 H 0.01906 0.95777 0.60827 0.0
O314 O 0.0775 0.99435 0.69554 0.0
C315 C 0.05301 1.00581 0.59601 0.0
O316 O 0.06904 0.9831 0.58392 0.0
N317 N 0.10257 0.94442 0.65824 0.0
C318 C 0.12995 0.88754 0.66186 0.0
C319 C 0.12281 0.90043 0.63 0.0
C320 C 0.10904 0.92872 0.62884 0.0
C321 C 0.10847 0.93173 0.68963 0.0
C322 C 0.12316 0.90374 0.69204 0.0
H323 H 0.10202 0.93752 0.60417 0.0
H324 H 0.10002 0.94177 0.71283 0.0
H325 H 0.11599 0.03814 0.67302 0.0
H326 H 0.17535 0.01763 0.59141 0.0
H327 H 0.99304 0.92482 0.70544 0.0
H328 H 0.12695 0.88827 0.60618 0.0
H329 H 0.12746 0.89397 0.71719 0.0
C330 C 0.76657 0.38151 0.33643 0.0
C331 C 0.74591 0.40468 0.33962 0.0
N332 N 0.73655 0.40571 0.37268 0.0
N333 N 0.7701 0.36781 0.36724 0.0
C334 C 0.75163 0.38331 0.38903 0.0
H335 H 0.7791 0.37568 0.31335 0.0
Co336 Co 0.79793 0.3365 0.37433 0.0
C337 C 0.79343 0.32067 0.4497 0.0
O338 O 0.82309 0.31954 0.45014 0.0
N339 N 0.82665 0.30429 0.38091 0.0
C340 C 0.86798 0.27655 0.3915 0.0
C341 C 0.8564 0.30524 0.38937 0.0
C342 C 0.82108 0.27435 0.37818 0.0
N343 N 0.8457 0.2572 0.38432 0.0
O344 O 0.77055 0.3086 0.35138 0.0
H345 H 0.86922 0.32518 0.39501 0.0
H346 H 0.7994 0.2649 0.3723 0.0
O347 O 0.78041 0.32816 0.4213 0.0
C348 C 0.77964 0.30412 0.32025 0.0
O349 O 0.80439 0.31792 0.31015 0.0
N350 N 0.82537 0.36487 0.39069 0.0
C351 C 0.87671 0.39807 0.40463 0.0
C352 C 0.85327 0.39634 0.42922 0.0
C353 C 0.82727 0.37968 0.4215 0.0
C354 C 0.84544 0.37089 0.36484 0.0
C355 C 0.87172 0.38681 0.37146 0.0
H356 H 0.80953 0.37777 0.44063 0.0
H357 H 0.84242 0.36065 0.33978 0.0
H358 H 0.74997 0.37906 0.41646 0.0
H359 H 0.7389 0.42014 0.31953 0.0
H360 H 0.89102 0.27029 0.39773 0.0
H361 H 0.85587 0.40614 0.45462 0.0
H362 H 0.88885 0.38864 0.35146 0.0
C363 C 0.39212 1.01 0.08967 0.0
C364 C 0.36927 0.98905 0.09061 0.0
N365 N 0.36815 0.97722 0.12252 0.0
N366 N 0.40542 0.01196 0.12095 0.0
C367 C 0.39055 0.9909 0.14014 0.0
H368 H 0.39844 0.02328 0.06741 0.0
Co369 Co 0.44034 0.03651 0.12955 0.0
C370 C 0.42776 0.02017 0.204 0.0
O371 O 0.40021 0.03119 0.20133 0.0
N372 N 0.47587 0.05899 0.13732 0.0
C373 C 0.52243 0.06861 0.15561 0.0
C374 C 0.49836 0.04951 0.1583 0.0
C375 C 0.48706 0.08403 0.12182 0.0
N376 N 0.51541 0.09017 0.1327 0.0
O377 O 0.46551 1.00698 0.10596 0.0
H378 H 0.49821 0.02902 0.17337 0.0
H379 H 0.47526 0.09671 0.10213 0.0
O380 O 0.44488 0.0187 0.17699 0.0
C381 C 0.46901 0.01883 0.07584 0.0
O382 O 0.45374 0.04354 0.06874 0.0
N383 N 0.41644 0.06864 0.14718 0.0
C384 C 0.39046 0.12511 0.15877 0.0
C385 C 0.3794 0.10641 0.13284 0.0
C386 C 0.39305 0.07846 0.12712 0.0
C387 C 0.42655 0.08633 0.1736 0.0
C388 C 0.41367 0.11459 0.18002 0.0
H389 H 0.38632 0.06608 0.10465 0.0
H390 H 0.446 0.07956 0.18852 0.0
H391 H 0.39626 0.98458 0.16614 0.0
H392 H 0.35433 0.9832 0.06963 0.0
H393 H 0.544 0.06625 0.16846 0.0
H394 H 0.36198 0.11435 0.11545 0.0
H395 H 0.42309 0.12889 0.19985 0.0
C396 C 0.73929 0.38842 0.6998 0.0
C397 C 0.75715 0.41391 0.6993 0.0
N398 N 0.77754 0.41104 0.67351 0.0
N399 N 0.74847 0.36956 0.6745 0.0
C400 C 0.77189 0.38398 0.65905 0.0
H401 H 0.72102 0.38378 0.71768 0.0
Co402 Co 0.7339 0.33073 0.66468 0.0
C403 C 0.74115 0.32419 0.58869 0.0
O404 O 0.71337 0.31381 0.58948 0.0
N405 N 0.72196 0.29047 0.65439 0.0
C406 C 0.73585 0.2432 0.64249 0.0
C407 C 0.74493 0.27227 0.64396 0.0
C408 C 0.69825 0.27125 0.65781 0.0
N409 N 0.70644 0.24237 0.65078 0.0
O410 O 0.7677 0.31298 0.68991 0.0
H411 H 0.76774 0.27954 0.63885 0.0
H412 H 0.67575 0.27769 0.666 0.0
O413 O 0.75371 0.33221 0.61726 0.0
C414 C 0.75537 0.3076 0.71948 0.0
O415 O 0.72844 0.31934 0.72522 0.0
N416 N 0.69795 0.34806 0.64759 0.0
C417 C 0.64315 0.379 0.63946 0.0
C418 C 0.66899 0.38777 0.62082 0.0
C419 C 0.6964 0.37214 0.62561 0.0
C420 C 0.67329 0.34034 0.66684 0.0
C421 C 0.64556 0.35487 0.66252 0.0
H422 H 0.71669 0.38041 0.61324 0.0
H423 H 0.67556 0.32414 0.68746 0.0
H424 H 0.78504 0.37475 0.6379 0.0
H425 H 0.75538 0.43304 0.71653 0.0
H426 H 0.74976 0.22393 0.63562 0.0
H427 H 0.66821 0.40709 0.60373 0.0
H428 H 0.62643 0.34827 0.67836 0.0
C429 C 0.3847 0.97599 0.44798 0.0
C430 C 0.36002 0.99501 0.44669 0.0
N431 N 0.36577 0.01637 0.42298 0.0
N432 N 0.40587 0.98528 0.42509 0.0
C433 C 0.39362 1.01012 0.41033 0.0
H434 H 0.3868 0.95611 0.46398 0.0
Co435 Co 0.4423 0.96465 0.41621 0.0
C436 C 0.45228 0.97263 0.34008 0.0
O437 O 0.45378 0.9432 0.33771 0.0
N438 N 0.47974 0.94357 0.40738 0.0
C439 C 0.51477 0.90971 0.39142 0.0
C440 C 0.48455 0.91647 0.39192 0.0
C441 C 0.50806 0.95269 0.41568 0.0
N442 N 0.52942 0.93245 0.4065 0.0
O443 O 0.46427 0.9957 0.43931 0.0
H444 H 0.46746 0.90209 0.38107 0.0
H445 H 0.51333 0.97343 0.42883 0.0
O446 O 0.44623 0.98433 0.36973 0.0
C447 C 0.46395 0.98838 0.47137 0.0
O448 O 0.44638 0.96622 0.48143 0.0
N449 N 0.41995 0.93261 0.40005 0.0
C450 C 0.38796 0.87996 0.39039 0.0
C451 C 0.38301 0.9048 0.36857 0.0
C452 C 0.39919 0.93141 0.37415 0.0
C453 C 0.42269 0.90959 0.42311 0.0
C454 C 0.40794 0.88262 0.41795 0.0
H455 H 0.39487 0.95096 0.3582 0.0
H456 H 0.43742 0.91199 0.44513 0.0
H457 H 0.40442 0.02306 0.39024 0.0
H458 H 0.33922 0.99301 0.46137 0.0
H459 H 0.52523 0.88932 0.38155 0.0
H460 H 0.36669 0.90366 0.34787 0.0
H461 H 0.41153 0.86416 0.43584 0.0
C462 C 0.78204 0.64173 0.20713 0.0
C463 C 0.76078 0.61916 0.20584 0.0
N464 N 0.74481 0.62241 0.17657 0.0
N465 N 0.77963 0.65926 0.17879 0.0
C466 C 0.75647 0.647 0.16075 0.0
H467 H 0.7989 0.6446 0.22695 0.0
Co468 Co 0.80577 0.69172 0.16817 0.0
C469 C 0.80053 0.68549 0.08978 0.0
O470 O 0.8276 0.67371 0.08651 0.0
N471 N 0.83183 0.72527 0.15732 0.0
C472 C 0.8652 0.75544 0.13093 0.0
C473 C 0.85151 0.72777 0.1305 0.0
C474 C 0.83507 0.75184 0.17432 0.0
N475 N 0.85472 0.77052 0.15843 0.0
O476 O 0.77527 0.7196 0.18478 0.0
H477 H 0.85694 0.7104 0.11226 0.0
H478 H 0.82376 0.75763 0.1981 0.0
O479 O 0.7899 0.69297 0.11961 0.0
C480 C 0.7805 0.72211 0.21717 0.0
O481 O 0.80264 0.70579 0.23007 0.0
N482 N 0.83704 0.66399 0.15804 0.0
C483 C 0.88697 0.62607 0.15184 0.0
C484 C 0.8593 0.61782 0.1373 0.0
C485 C 0.8342 0.63691 0.1415 0.0
C486 C 0.86315 0.67045 0.17508 0.0
C487 C 0.88859 0.65226 0.17155 0.0
H488 H 0.81277 0.63027 0.13084 0.0
H489 H 0.86439 0.69001 0.19161 0.0
H490 H 0.74876 0.6553 0.13605 0.0
H491 H 0.75796 0.60105 0.22431 0.0
H492 H 0.8818 0.7638 0.11268 0.0
H493 H 0.85722 0.59704 0.12289 0.0
H494 H 0.90942 0.65855 0.18423 0.0
C495 C 0.11588 1.00575 0.96979 0.0
C496 C 0.1383 0.98426 0.96621 0.0
N497 N 0.14884 0.98531 0.93363 0.0
N498 N 0.11198 0.02049 0.93964 0.0
C499 C 0.13274 1.00759 0.91806 0.0
H500 H 0.10304 1.01005 0.99299 0.0
Co501 Co 0.08262 0.05138 0.93184 0.0
C502 C 0.06369 0.0422 0.85733 0.0
O503 O 0.05799 0.0712 0.85458 0.0
N504 N 0.05282 0.08213 0.92442 0.0
C505 C 0.02695 0.12546 0.92651 0.0
C506 C 0.05497 0.1122 0.9297 0.0
C507 C 0.02296 0.07789 0.91809 0.0
N508 N 1.00685 0.10382 0.91941 0.0
O509 O 0.05187 0.02841 0.95787 0.0
H510 H 0.07502 0.12407 0.93726 0.0
H511 H 0.01306 0.05612 0.91324 0.0
O512 O 0.07302 0.0321 0.88653 0.0
C513 C 0.04661 0.04171 0.9869 0.0
O514 O 0.06227 0.06606 0.99374 0.0
N515 N 0.113 0.07598 0.91257 0.0
C516 C 0.1465 0.12735 0.89739 0.0
C517 C 0.14005 0.10625 0.87136 0.0
C518 C 0.12295 0.08054 0.8795 0.0
C519 C 0.12388 0.09329 0.93865 0.0
C520 C 0.1398 0.11959 0.93163 0.0
H521 H 0.11704 0.06529 0.85905 0.0
H522 H 0.11699 0.08855 0.96494 0.0
H523 H 0.13607 0.01436 0.89149 0.0
H524 H 0.1462 0.96888 0.98595 0.0
H525 H 0.02148 0.14901 0.93054 0.0
H526 H 0.14623 0.11072 0.84476 0.0
H527 H 0.14508 0.13469 0.95268 0.0
C528 C 0.77628 0.88171 0.70125 0.0
C529 C 0.75528 0.90483 0.7007 0.0
N530 N 0.74001 0.90322 0.67086 0.0
N531 N 0.77426 0.86542 0.67193 0.0
C532 C 0.75192 0.87929 0.65384 0.0
H533 H 0.79251 0.87748 0.72147 0.0
Co534 Co 0.79975 0.83232 0.66063 0.0
C535 C 0.7848 0.8328 0.58238 0.0
O536 O 0.80888 0.84852 0.57466 0.0
N537 N 0.82496 0.79856 0.64869 0.0
C538 C 0.85323 0.76853 0.61553 0.0
C539 C 0.83997 0.79622 0.61839 0.0
C540 C 0.83143 0.77212 0.66492 0.0
N541 N 0.8485 0.75339 0.64508 0.0
O542 O 0.77235 0.80528 0.68487 0.0
H543 H 0.84268 0.81402 0.59994 0.0
H544 H 0.82409 0.76654 0.69077 0.0
O545 O 0.77865 0.82644 0.61425 0.0
C546 C 0.78242 0.80353 0.71591 0.0
O547 O 0.80657 0.81937 0.72331 0.0
N548 N 0.82934 0.85943 0.64416 0.0
C549 C 0.87918 0.8965 0.6334 0.0
C550 C 0.8511 0.90401 0.61891 0.0
C551 C 0.82599 0.88555 0.62567 0.0
C552 C 0.85605 0.85367 0.66049 0.0
C553 C 0.8813 0.87135 0.65479 0.0
H554 H 0.80409 0.8921 0.61586 0.0
H555 H 0.85783 0.83526 0.67865 0.0
H556 H 0.74521 0.87292 0.62817 0.0
H557 H 0.75188 0.92189 0.72033 0.0
H558 H 0.86648 0.76055 0.59375 0.0
H559 H 0.84854 0.92411 0.6033 0.0
H560 H 0.90234 0.86568 0.66755 0.0
C561 C 0.38675 0.53068 0.95908 0.0
C562 C 0.36305 0.51072 0.9578 0.0
N563 N 0.36731 0.4926 0.93049 0.0
N564 N 0.40593 0.52601 0.93215 0.0
C565 C 0.39365 0.50171 0.91596 0.0
H566 H 0.39 0.54678 0.97957 0.0
Co567 Co 0.44499 0.54471 0.9243 0.0
C568 C 0.43206 0.52545 0.85075 0.0
O569 O 0.40452 0.53657 0.85326 0.0
N570 N 0.48408 0.5599 0.91657 0.0
C571 C 0.53262 0.55431 0.90215 0.0
C572 C 0.50532 0.54042 0.90451 0.0
C573 C 0.49941 0.5859 0.92162 0.0
N574 N 0.52901 0.58274 0.91293 0.0
O575 O 0.46429 0.51342 0.95136 0.0
H576 H 0.50139 0.517 0.8984 0.0
H577 H 0.4893 0.60643 0.93154 0.0
O578 O 0.44893 0.52463 0.87777 0.0
C579 C 0.46522 0.52484 0.98193 0.0
O580 O 0.44647 0.547 0.98921 0.0
N581 N 0.42747 0.57952 0.90376 0.0
C582 C 0.40634 0.63684 0.88515 0.0
C583 C 0.39668 0.62315 0.91568 0.0
C584 C 0.40804 0.59496 0.92483 0.0
C585 C 0.43828 0.59316 0.8745 0.0
C586 C 0.42763 0.62174 0.86439 0.0
H587 H 0.40265 0.58657 0.95005 0.0
H588 H 0.45603 0.58252 0.85948 0.0
H589 H 0.40413 0.48988 0.89468 0.0
H590 H 0.34427 0.50933 0.97579 0.0
H591 H 0.5537 0.54436 0.8933 0.0
H592 H 0.38121 0.63471 0.93304 0.0
H593 H 0.43637 0.63219 0.84114 0.0
C594 C 0.73355 0.14335 0.20384 0.0
C595 C 0.7533 0.11927 0.20548 0.0
N596 N 0.76754 0.11683 0.17485 0.0
N597 N 0.73486 0.15624 0.17222 0.0
C598 C 0.75641 0.13966 0.15547 0.0
H599 H 0.71963 0.15146 0.22493 0.0
Co600 Co 0.7155 0.19394 0.16145 0.0
C601 C 0.7351 0.17679 0.0894 0.0
O602 O 0.71705 0.15345 0.09186 0.0
N603 N 0.69776 0.23171 0.15231 0.0
C604 C 0.69208 0.2788 0.13367 0.0
C605 C 0.70765 0.2523 0.12919 0.0
C606 C 0.67594 0.24632 0.17055 0.0
N607 N 0.67237 0.27507 0.15976 0.0
O608 O 0.74777 0.21477 0.18508 0.0
H609 H 0.726 0.24903 0.11122 0.0
H610 H 0.66403 0.23662 0.19234 0.0
O611 O 0.73684 0.19478 0.11535 0.0
C612 C 0.73781 0.22103 0.21545 0.0
O613 O 0.71139 0.21018 0.22468 0.0
N614 N 0.68084 0.1748 0.14262 0.0
C615 C 0.62332 0.15366 0.12567 0.0
C616 C 0.63817 0.14319 0.15512 0.0
C617 C 0.66666 0.15434 0.16338 0.0
C618 C 0.66639 0.18549 0.11381 0.0
C619 C 0.63771 0.17494 0.10466 0.0
H620 H 0.67648 0.14768 0.18757 0.0
H621 H 0.67668 0.20282 0.09811 0.0
H622 H 0.76554 0.14489 0.13041 0.0
H623 H 0.75721 0.10487 0.2276 0.0
H624 H 0.69574 0.29967 0.11979 0.0
H625 H 0.62727 0.12729 0.17235 0.0
H626 H 0.62653 0.1839 0.08203 0.0
C627 C 0.12936 0.49389 0.45551 0.0
C628 C 0.15288 0.51382 0.45223 0.0
N629 N 0.15572 0.52121 0.41869 0.0
N630 N 0.11689 0.48909 0.42436 0.0
C631 C 0.13384 0.50569 0.40219 0.0
H632 H 0.12245 0.48275 0.47898 0.0
Co633 Co 0.08437 0.46299 0.41756 0.0
C634 C 0.06559 0.47087 0.3432 0.0
O635 O 0.05905 0.44205 0.34262 0.0
N636 N 0.05107 0.43627 0.41148 0.0
C637 C 0.02114 0.39636 0.40468 0.0
C638 C 0.05057 0.4061 0.40597 0.0
C639 C 0.02141 0.44402 0.41322 0.0
N640 N 1.00289 0.42028 0.40947 0.0
O641 O 0.05767 0.49097 0.44249 0.0
H642 H 0.07002 0.39163 0.40275 0.0
H643 H 0.01323 0.46665 0.41688 0.0
O644 O 0.07631 0.4819 0.37129 0.0
C645 C 0.0539 0.48107 0.47341 0.0
O646 O 0.06798 0.456 0.4819 0.0
N647 N 0.11138 0.43456 0.3994 0.0
C648 C 0.14479 0.3827 0.38576 0.0
C649 C 0.14053 0.40449 0.35981 0.0
C650 C 0.12366 0.43064 0.36726 0.0
C651 C 0.11901 0.41566 0.42569 0.0
C652 C 0.13506 0.38925 0.41934 0.0
H653 H 0.12009 0.44706 0.34714 0.0
H654 H 0.11038 0.41999 0.45139 0.0
H655 H 0.13075 0.50597 0.37453 0.0
H656 H 0.16746 0.5216 0.4727 0.0
H657 H 0.01366 0.37338 0.40118 0.0
H658 H 0.14888 0.40062 0.33385 0.0
H659 H 0.13862 0.37338 0.44022 0.0
C660 C 0.7862 0.12817 0.84307 0.0
C661 C 0.76703 0.10365 0.84441 0.0
N662 N 0.74455 0.10977 0.86707 0.0
N663 N 0.7758 0.14964 0.86475 0.0
C664 C 0.75015 0.13792 0.87844 0.0
H665 H 0.80664 0.13004 0.82775 0.0
Co666 Co 0.79225 0.18755 0.87481 0.0
C667 C 0.78358 0.19357 0.95065 0.0
O668 O 0.81147 0.20363 0.95123 0.0
N669 N 0.80621 0.22671 0.88549 0.0
C670 C 0.7972 0.27435 0.90093 0.0
C671 C 0.7851 0.24645 0.89737 0.0
C672 C 0.83149 0.2437 0.88209 0.0
N673 N 0.82625 0.27263 0.89135 0.0
O674 O 0.75964 0.20726 0.84956 0.0
H675 H 0.76182 0.2409 0.90301 0.0
H676 H 0.85312 0.23568 0.87278 0.0
O677 O 0.77151 0.18675 0.92148 0.0
C678 C 0.77235 0.21265 0.82022 0.0
O679 O 0.79876 0.19982 0.81437 0.0
N680 N 0.82737 0.16852 0.89261 0.0
C681 C 0.88288 0.14012 0.90579 0.0
C682 C 0.88016 0.16164 0.87957 0.0
C683 C 0.8521 0.17469 0.87273 0.0
C684 C 0.82907 0.14642 0.91719 0.0
C685 C 0.85675 0.13203 0.92437 0.0
H686 H 0.84989 0.18931 0.85059 0.0
H687 H 0.80904 0.13917 0.93066 0.0
H688 H 0.73569 0.14969 0.89661 0.0
H689 H 0.76983 0.08261 0.83059 0.0
H690 H 0.78573 0.29444 0.91018 0.0
H691 H 0.89949 0.16767 0.86374 0.0
H692 H 0.85773 0.11462 0.94394 0.0
C693 C 0.14144 0.52678 0.09775 0.0
C694 C 0.16431 0.5059 0.09426 0.0
N695 N 0.15748 0.48193 0.11404 0.0
N696 N 0.12017 0.51616 0.11969 0.0
C697 C 0.13022 0.4883 0.12839 0.0
H698 H 0.141 0.54901 0.08628 0.0
Co699 Co 0.08671 0.53948 0.13431 0.0
C700 C 0.09868 0.50656 0.20531 0.0
O701 O 0.12738 0.49964 0.20138 0.0
N702 N 0.05312 0.56243 0.14953 0.0
C703 C 0.02338 0.59116 0.18275 0.0
C704 C 0.05191 0.57919 0.17873 0.0
C705 C 0.02469 0.56393 0.13691 0.0
N706 N 1.00652 0.5815 0.15633 0.0
O707 O 0.05917 0.51229 0.11148 0.0
H708 H 0.07049 0.58208 0.19645 0.0
H709 H 0.01683 0.55187 0.11459 0.0
O710 O 0.08394 0.51967 0.18095 0.0
C711 C 0.05905 0.52034 0.07948 0.0
O712 O 0.08081 0.53793 0.06834 0.0
N713 N 0.11299 0.56941 0.14991 0.0
C714 C 0.14712 0.62067 0.1615 0.0
C715 C 0.15463 0.59355 0.17797 0.0
C716 C 0.13732 0.56783 0.17141 0.0
C717 C 0.10715 0.5952 0.13192 0.0
C718 C 0.12348 0.62122 0.13785 0.0
H719 H 0.14421 0.54685 0.18259 0.0
H720 H 0.08933 0.59561 0.11291 0.0
H721 H 0.1185 0.47336 0.14593 0.0
H722 H 0.18538 0.50894 0.08033 0.0
H723 H 0.01542 0.60536 0.20365 0.0
H724 H 0.17365 0.5923 0.19543 0.0
H725 H 0.11775 0.64166 0.12395 0.0
C726 C 0.7615 0.88452 0.3401 0.0
C727 C 0.78294 0.90649 0.34454 0.0
N728 N 0.79183 0.90582 0.37765 0.0
N729 N 0.7569 0.86995 0.37022 0.0
C730 C 0.77572 0.88356 0.39283 0.0
H731 H 0.74904 0.88026 0.31672 0.0
Co732 Co 0.72697 0.84068 0.37527 0.0
C733 C 0.72622 0.82183 0.45006 0.0
O734 O 0.69757 0.81483 0.44724 0.0
N735 N 0.69619 0.8105 0.37925 0.0
C736 C 0.65321 0.78454 0.38439 0.0
C737 C 0.66567 0.81279 0.38233 0.0
C738 C 0.70131 0.78033 0.37948 0.0
N739 N 0.67571 0.76417 0.38235 0.0
O740 O 0.75338 0.81139 0.35283 0.0
H741 H 0.65272 0.83335 0.384 0.0
H742 H 0.72343 0.77015 0.37848 0.0
O743 O 0.74121 0.83088 0.4233 0.0
C744 C 0.74447 0.80852 0.32153 0.0
O745 O 0.72064 0.82423 0.31198 0.0
N746 N 0.70103 0.87058 0.39159 0.0
C747 C 0.65344 0.90852 0.40778 0.0
C748 C 0.67664 0.90382 0.43177 0.0
C749 C 0.70078 0.88477 0.42286 0.0
C750 C 0.6819 0.87972 0.36622 0.0
C751 C 0.65732 0.89815 0.37398 0.0
H752 H 0.71849 0.88078 0.44137 0.0
H753 H 0.68404 0.87013 0.34065 0.0
H754 H 0.7768 0.87818 0.42005 0.0
H755 H 0.79066 0.92248 0.32533 0.0
H756 H 0.62942 0.77929 0.387 0.0
H757 H 0.67493 0.91287 0.45767 0.0
H758 H 0.64033 0.90233 0.35447 0.0
C759 C 0.40144 0.50822 0.60432 0.0
C760 C 0.3796 0.53022 0.60697 0.0
N761 N 0.3775 0.53865 0.64022 0.0
N762 N 0.41361 0.50292 0.63557 0.0
C763 C 0.39813 0.52155 0.65724 0.0
H764 H 0.40732 0.49592 0.58122 0.0
Co765 Co 0.44426 0.47387 0.64132 0.0
C766 C 0.46706 0.48068 0.71478 0.0
O767 O 0.47608 0.45245 0.71443 0.0
N768 N 0.47537 0.44405 0.64533 0.0
C769 C 0.50036 0.40028 0.64185 0.0
C770 C 0.47235 0.4138 0.64243 0.0
C771 C 0.50579 0.44814 0.64637 0.0
N772 N 0.52133 0.4219 0.64419 0.0
O773 O 0.4727 0.50043 0.61781 0.0
H774 H 0.45135 0.40193 0.63944 0.0
H775 H 0.51645 0.46987 0.64804 0.0
O776 O 0.45377 0.49094 0.68773 0.0
C777 C 0.47707 0.4918 0.58657 0.0
O778 O 0.4628 0.46758 0.57612 0.0
N779 N 0.41544 0.44706 0.65931 0.0
C780 C 0.38121 0.39572 0.67084 0.0
C781 C 0.3922 0.41235 0.69881 0.0
C782 C 0.40919 0.43841 0.69247 0.0
C783 C 0.40173 0.4331 0.63232 0.0
C784 C 0.3847 0.40719 0.63747 0.0
H785 H 0.41797 0.45051 0.71419 0.0
H786 H 0.40643 0.44055 0.60626 0.0
H787 H 0.40123 0.52205 0.68488 0.0
H788 H 0.36552 0.5387 0.5863 0.0
H789 H 0.50507 0.37647 0.63863 0.0
H790 H 0.38904 0.40441 0.72503 0.0
H791 H 0.37604 0.39511 0.61536 0.0
C792 C 0.27391 0.14652 0.34021 0.0
C793 C 0.2936 0.12274 0.34405 0.0
N794 N 0.28747 0.10935 0.3743 0.0
N795 N 0.25544 0.14851 0.3681 0.0
C796 C 0.26401 0.12493 0.38819 0.0
H797 H 0.2741 0.16189 0.31873 0.0
Co798 Co 0.22692 0.17979 0.37629 0.0
C799 C 0.23784 0.20198 0.44959 0.0
O800 O 0.21183 0.21632 0.44965 0.0
N801 N 0.19793 0.21174 0.38351 0.0
C802 C 0.15546 0.23838 0.3921 0.0
C803 C 0.168 0.21001 0.39112 0.0
C804 C 0.20267 0.24182 0.38002 0.0
N805 N 0.17731 0.25831 0.38489 0.0
O806 O 0.25326 0.20771 0.35223 0.0
H807 H 0.15545 0.18967 0.39558 0.0
H808 H 0.22422 0.2518 0.37411 0.0
O809 O 0.24617 0.18741 0.4224 0.0
C810 C 0.2426 0.21318 0.32212 0.0
O811 O 0.21634 0.20134 0.3142 0.0
N812 N 0.19988 0.15172 0.39472 0.0
C813 C 0.1462 0.12258 0.41068 0.0
C814 C 0.16741 0.12851 0.43667 0.0
C815 C 0.19415 0.14372 0.42818 0.0
C816 C 0.18184 0.14175 0.3688 0.0
C817 C 0.15449 0.12772 0.37623 0.0
H818 H 0.20905 0.15026 0.44865 0.0
H819 H 0.18715 0.14776 0.3424 0.0
H820 H 0.25365 0.11943 0.41269 0.0
H821 H 0.31168 0.11631 0.32654 0.0
H822 H 0.13195 0.24397 0.39694 0.0
H823 H 0.16212 0.12387 0.46348 0.0
H824 H 0.13903 0.12289 0.35537 0.0
C825 C 0.6344 0.49964 0.10332 0.0
C826 C 0.65804 0.51972 0.10263 0.0
N827 N 0.65735 0.53562 0.13209 0.0
N828 N 0.61877 0.50216 0.1334 0.0
C829 C 0.63313 0.52515 0.14982 0.0
H830 H 0.62922 0.48406 0.08283 0.0
Co831 Co 0.58201 0.48072 0.14541 0.0
C832 C 0.59678 0.50214 0.21744 0.0
O833 O 0.62403 0.49032 0.21486 0.0
N834 N 0.54526 0.46216 0.15695 0.0
C835 C 0.49784 0.45949 0.17614 0.0
C836 C 0.52402 0.47557 0.17715 0.0
C837 C 0.53122 0.43775 0.14386 0.0
N838 N 0.50217 0.43608 0.15479 0.0
O839 O 0.55797 0.50918 0.11852 0.0
H840 H 0.52622 0.49715 0.18971 0.0
H841 H 0.54147 0.42253 0.12538 0.0
O842 O 0.57942 0.50258 0.19082 0.0
C843 C 0.5556 0.49665 0.08855 0.0
O844 O 0.57431 0.47446 0.08128 0.0
N845 N 0.60365 0.44829 0.16603 0.0
C846 C 0.62301 0.38964 0.18085 0.0
C847 C 0.63479 0.40526 0.15257 0.0
C848 C 0.62452 0.43432 0.14536 0.0
C849 C 0.59269 0.43354 0.19455 0.0
C850 C 0.60234 0.40426 0.20265 0.0
H851 H 0.63137 0.44418 0.12129 0.0
H852 H 0.57468 0.44341 0.20981 0.0
H853 H 0.62583 0.53506 0.17383 0.0
H854 H 0.67466 0.5223 0.08222 0.0
H855 H 0.47637 0.46597 0.18759 0.0
H856 H 0.6503 0.39426 0.13479 0.0
H857 H 0.59235 0.3925 0.22437 0.0
C858 C 0.28376 0.88817 0.85854 0.0
C859 C 0.26461 0.91263 0.86232 0.0
N860 N 0.24274 0.90536 0.88513 0.0
N861 N 0.27411 0.86535 0.87877 0.0
C862 C 0.24895 0.87657 0.89468 0.0
H863 H 0.30374 0.8872 0.84233 0.0
Co864 Co 0.2934 0.82711 0.8832 0.0
C865 C 0.28614 0.81215 0.95836 0.0
O866 O 0.31372 0.80099 0.95758 0.0
N867 N 0.31137 0.78785 0.88757 0.0
C868 C 0.30961 0.73814 0.89673 0.0
C869 C 0.29369 0.76462 0.89773 0.0
C870 C 0.33821 0.77424 0.87952 0.0
N871 N 0.33757 0.7441 0.88519 0.0
O872 O 0.26117 0.80788 0.85781 0.0
H873 H 0.27006 0.76662 0.90441 0.0
H874 H 0.35758 0.78553 0.86858 0.0
O875 O 0.27421 0.82231 0.93031 0.0
C876 C 0.26832 0.80982 0.82566 0.0
O877 O 0.2885 0.82994 0.81642 0.0
N878 N 0.32726 0.8462 0.90191 0.0
C879 C 0.38036 0.87689 0.9171 0.0
C880 C 0.35497 0.87957 0.93883 0.0
C881 C 0.32815 0.86462 0.93011 0.0
C882 C 0.35118 0.8451 0.87965 0.0
C883 C 0.37816 0.8596 0.88712 0.0
H884 H 0.30793 0.86869 0.94521 0.0
H885 H 0.34885 0.83378 0.85514 0.0
H886 H 0.23552 0.86407 0.91317 0.0
H887 H 0.26681 0.93431 0.84973 0.0
H888 H 0.30105 0.71593 0.90279 0.0
H889 H 0.35554 0.89398 0.96136 0.0
H890 H 0.39685 0.85824 0.86897 0.0
C891 C 0.89576 0.52585 0.59781 0.0
C892 C 0.87046 0.50778 0.5988 0.0
N893 N 0.86931 0.49415 0.62981 0.0
N894 N 0.91085 0.52346 0.62794 0.0
C895 C 0.89388 0.50404 0.64691 0.0
H896 H 0.90263 0.5398 0.57631 0.0
Co897 Co 0.94877 0.54139 0.63846 0.0
C898 C 0.94368 0.52826 0.71523 0.0
O899 O 0.93216 0.55521 0.72014 0.0
N900 N 0.98782 0.5571 0.64864 0.0
C901 C 0.02737 0.57543 0.67728 0.0
C902 C 0.99771 0.56696 0.67964 0.0
C903 C 0.01229 0.56028 0.62765 0.0
N904 N 0.0364 0.5711 0.64462 0.0
O905 O 0.96871 0.50853 0.61433 0.0
H906 H 0.98365 0.57054 0.70195 0.0
H907 H 0.01263 0.55565 0.60034 0.0
O908 O 0.95037 0.5195 0.68441 0.0
C909 C 0.97165 0.51704 0.58282 0.0
O910 O 0.95968 0.54314 0.57416 0.0
N911 N 0.92851 0.57767 0.65673 0.0
C912 C 0.89934 0.63415 0.66445 0.0
C913 C 0.88271 0.6073 0.66437 0.0
C914 C 0.89782 0.57938 0.66254 0.0
C915 C 0.94433 0.60422 0.65624 0.0
C916 C 0.93081 0.63169 0.66398 0.0
H917 H 0.88401 0.55959 0.66376 0.0
H918 H 0.96723 0.60573 0.64716 0.0
H919 H 0.89873 0.49782 0.6731 0.0
H920 H 0.85406 0.50498 0.57842 0.0
H921 H 0.041 0.58507 0.69756 0.0
H922 H 0.85822 0.60772 0.66457 0.0
H923 H 0.94486 0.65162 0.66447 0.0
C924 C 0.23915 0.87887 0.20278 0.0
C925 C 0.2604 0.90136 0.20014 0.0
N926 N 0.27986 0.89411 0.17458 0.0
N927 N 0.24505 0.85743 0.17897 0.0
C928 C 0.27033 0.86719 0.16248 0.0
H929 H 0.21973 0.87886 0.21989 0.0
Co930 Co 0.21953 0.82448 0.16954 0.0
C931 C 0.22422 0.81985 0.09215 0.0
O932 O 0.19469 0.82182 0.09023 0.0
N933 N 0.194 0.79052 0.15956 0.0
C934 C 0.1567 0.76011 0.14236 0.0
C935 C 0.16648 0.78936 0.14412 0.0
C936 C 0.2003 0.76112 0.16632 0.0
N937 N 0.17804 0.74259 0.15648 0.0
O938 O 0.24839 0.79708 0.19031 0.0
H939 H 0.1539 0.80838 0.13422 0.0
H940 H 0.22067 0.75285 0.17834 0.0
O941 O 0.23726 0.82088 0.12179 0.0
C942 C 0.24213 0.79632 0.2228 0.0
O943 O 0.2251 0.81791 0.23575 0.0
N944 N 0.18918 0.85164 0.15648 0.0
C945 C 0.13844 0.88882 0.15155 0.0
C946 C 0.16353 0.89328 0.12962 0.0
C947 C 0.18901 0.87435 0.13264 0.0
C948 C 0.16623 0.84923 0.17991 0.0
C949 C 0.14015 0.86645 0.17689 0.0
H950 H 0.2085 0.87814 0.11635 0.0
H951 H 0.1678 0.8328 0.20048 0.0
H952 H 0.2811 0.85537 0.14132 0.0
H953 H 0.26065 0.92222 0.21459 0.0
H954 H 0.13544 0.75229 0.13203 0.0
H955 H 0.16345 0.91126 0.11069 0.0
H956 H 0.1217 0.86288 0.19495 0.0
C957 C 0.87968 0.48759 0.95621 0.0
C958 C 0.8565 0.50842 0.954 0.0
N959 N 0.8651 0.5306 0.93233 0.0
N960 N 0.90303 0.49645 0.93611 0.0
C961 C 0.89379 0.52333 0.92291 0.0
H962 H 0.87899 0.46653 0.97027 0.0
Co963 Co 0.93875 0.47345 0.92665 0.0
C964 C 0.92483 0.49677 0.85272 0.0
O965 O 0.89551 0.49995 0.85631 0.0
N966 N 0.97469 0.45183 0.91531 0.0
C967 C 1.00709 0.42395 0.88444 0.0
C968 C 0.97831 0.43562 0.88594 0.0
C969 C 1.00206 0.45019 0.93077 0.0
N970 N 0.0219 0.43326 0.91257 0.0
O971 O 0.96373 0.50412 0.9472 0.0
H972 H 0.96099 0.43242 0.8667 0.0
H973 H 1.00786 0.46159 0.95428 0.0
O974 O 0.9415 0.48888 0.87828 0.0
C975 C 0.96215 0.49943 0.98003 0.0
O976 O 0.93907 0.48417 0.99221 0.0
N977 N 0.91533 0.43981 0.91386 0.0
C978 C 0.88799 0.38421 0.90371 0.0
C979 C 0.87575 0.41031 0.88877 0.0
C980 C 0.88967 0.43811 0.8945 0.0
C981 C 0.92534 0.41485 0.93114 0.0
C982 C 0.91306 0.3867 0.92514 0.0
H983 H 0.87881 0.45797 0.88485 0.0
H984 H 0.94348 0.41662 0.94962 0.0
H985 H 0.90721 0.53667 0.90522 0.0
H986 H 0.83426 0.50644 0.9656 0.0
H987 H 0.01647 0.40967 0.86437 0.0
H988 H 0.85535 0.40925 0.87348 0.0
H989 H 0.92233 0.36716 0.93822 0.0
C990 C 0.28131 0.14191 0.70094 0.0
C991 C 0.26073 0.11883 0.7033 0.0
N992 N 0.24 0.12267 0.67839 0.0
N993 N 0.2739 0.16039 0.6745 0.0
C994 C 0.24782 0.14849 0.66221 0.0
H995 H 0.30045 0.14485 0.71775 0.0
Co996 Co 0.29509 0.19609 0.66165 0.0
C997 C 0.26912 0.17831 0.59249 0.0
O998 O 0.27867 0.15058 0.59781 0.0
N999 N 0.31555 0.23173 0.64953 0.0
C1000 C 0.33591 0.26893 0.61863 0.0
C1001 C 0.32298 0.24089 0.61727 0.0
C1002 C 0.32442 0.25469 0.6701 0.0
N1003 N 0.33663 0.2775 0.65181 0.0
O1004 O 0.2642 0.2198 0.68451 0.0
H1005 H 0.31859 0.22852 0.59388 0.0
H1006 H 0.32159 0.25517 0.69781 0.0
O1007 O 0.274 0.19781 0.61617 0.0
C1008 C 0.27281 0.22196 0.71596 0.0
O1009 O 0.29706 0.20679 0.72518 0.0
N1010 N 0.32833 0.17345 0.64446 0.0
C1011 C 0.38451 0.14566 0.63382 0.0
C1012 C 0.37429 0.15237 0.66714 0.0
C1013 C 0.34628 0.16629 0.67179 0.0
C1014 C 0.33866 0.16841 0.61155 0.0
C1015 C 0.36613 0.15333 0.60574 0.0
H1016 H 0.33949 0.1728 0.69752 0.0
H1017 H 0.32687 0.17701 0.5894 0.0
H1018 H 0.23453 0.15833 0.64175 0.0
H1019 H 0.26151 0.10003 0.72111 0.0
H1020 H 0.34341 0.28241 0.59693 0.0
H1021 H 0.38824 0.14759 0.68941 0.0
H1022 H 0.3738 0.14926 0.57953 0.0
C1023 C 0.63511 0.52847 0.46165 0.0
C1024 C 0.65719 0.50666 0.45813 0.0
N1025 N 0.65607 0.49593 0.42572 0.0
N1026 N 0.61998 0.53138 0.43169 0.0
C1027 C 0.6335 0.51135 0.41006 0.0
H1028 H 0.63058 0.5417 0.48452 0.0
Co1029 Co 0.58808 0.55885 0.4259 0.0
C1030 C 0.56839 0.55337 0.35187 0.0
O1031 O 0.56345 0.58256 0.3514 0.0
N1032 N 0.55524 0.58708 0.42098 0.0
C1033 C 0.52708 0.62884 0.41564 0.0
C1034 C 0.55596 0.61747 0.41708 0.0
C1035 C 0.52518 0.58082 0.42154 0.0
N1036 N 0.5078 0.60578 0.4185 0.0
O1037 O 0.56111 0.53084 0.44881 0.0
H1038 H 0.57588 0.63114 0.41476 0.0
H1039 H 0.51601 0.55847 0.42376 0.0
O1040 O 0.57924 0.54176 0.37959 0.0
C1041 C 0.55739 0.5384 0.48045 0.0
O1042 O 0.57117 0.56277 0.4913 0.0
N1043 N 0.61576 0.58682 0.40854 0.0
C1044 C 0.64832 0.63859 0.39378 0.0
C1045 C 0.6443 0.61647 0.36826 0.0
C1046 C 0.6278 0.59041 0.37625 0.0
C1047 C 0.62404 0.6055 0.43466 0.0
C1048 C 0.63954 0.63202 0.42772 0.0
H1049 H 0.62405 0.57392 0.35632 0.0
H1050 H 0.61575 0.6013 0.46054 0.0
H1051 H 0.62737 0.50832 0.38334 0.0
H1052 H 0.67309 0.49944 0.47766 0.0
H1053 H 0.52064 0.65229 0.41279 0.0
H1054 H 0.6521 0.62022 0.34206 0.0
H1055 H 0.64302 0.64808 0.44836 0.0
C1056 C 0.26917 0.2836 0.27622 0.0
C1057 C 0.27187 0.2738 0.24142 0.0
C1058 C 0.25792 0.22267 0.26026 0.0
C1059 C 0.25805 0.23228 0.29547 0.0
N1060 N 0.27327 0.27038 0.3364 0.0
N1061 N 0.26952 0.23308 0.20024 0.0
C1062 C 0.26664 0.26221 0.30334 0.0
C1063 C 0.26619 0.24312 0.23335 0.0
N1064 N 0.26771 0.31371 0.28333 0.0
N1065 N 0.24976 0.1938 0.2524 0.0
H1066 H 0.27098 0.24738 0.17912 0.0
H1067 H 0.27132 0.21041 0.19359 0.0
H1068 H 0.24742 0.17693 0.27091 0.0
H1069 H 0.24445 0.18661 0.2276 0.0
H1070 H 0.26276 0.32222 0.3078 0.0
H1071 H 0.26755 0.32999 0.26395 0.0
H1072 H 0.28201 0.29141 0.34273 0.0
H1073 H 0.27411 0.2552 0.35682 0.0
C1074 C 0.99955 0.02112 0.57799 0.0
C1075 C 0.03124 0.02031 0.57133 0.0
C1076 C 0.02119 0.02357 0.50894 0.0
C1077 C 0.98988 0.02766 0.51535 0.0
N1078 N 0.94878 0.03001 0.55648 0.0
N1079 N 0.07182 0.02975 0.53113 0.0
C1080 C 0.97903 0.02645 0.55012 0.0
C1081 C 0.0418 0.02456 0.53696 0.0
N1082 N 0.98878 0.01556 0.61047 0.0
N1083 N 0.03137 0.01705 0.47649 0.0
H1084 H 0.08733 0.03156 0.55125 0.0
H1085 H 0.08048 0.03564 0.50697 0.0
H1086 H 0.01675 0.012 0.45639 0.0
H1087 H 0.05393 0.01204 0.4709 0.0
H1088 H 0.96615 0.01129 0.61598 0.0
H1089 H 1.0025 0.01419 0.6321 0.0
H1090 H 0.93963 0.03412 0.58085 0.0
H1091 H 0.93272 0.02946 0.53691 0.0
C1092 C 0.28276 0.76954 0.78231 0.0
C1093 C 0.25956 0.78649 0.79953 0.0
C1094 C 0.22177 0.7643 0.7606 0.0
C1095 C 0.24489 0.74649 0.74433 0.0
N1096 N 0.29644 0.72874 0.74339 0.0
N1097 N 0.20778 0.80295 0.80272 0.0
C1098 C 0.27518 0.74853 0.75586 0.0
C1099 C 0.22919 0.7844 0.78823 0.0
N1100 N 0.31239 0.7738 0.79089 0.0
N1101 N 0.19249 0.76162 0.74978 0.0
H1102 H 0.21242 0.81755 0.82307 0.0
H1103 H 0.1857 0.80522 0.79404 0.0
H1104 H 0.18637 0.74923 0.72816 0.0
H1105 H 0.17383 0.77093 0.76232 0.0
H1106 H 0.33051 0.76632 0.77585 0.0
H1107 H 0.31919 0.78575 0.81257 0.0
H1108 H 0.31791 0.72608 0.75385 0.0
H1109 H 0.29207 0.71313 0.72399 0.0
C1110 C 0.47849 1.00414 1.01465 0.0
C1111 C 0.49032 1.00773 0.04839 0.0
C1112 C 0.54181 1.0092 1.02356 0.0
C1113 C 0.52967 1.00614 0.98973 0.0
N1114 N 0.48604 1.00875 0.95296 0.0
N1115 N 0.5334 1.01023 0.08588 0.0
C1116 C 0.4979 1.00599 0.98524 0.0
C1117 C 0.52212 1.00919 0.05313 0.0
N1118 N 0.44858 0.99734 1.01092 0.0
N1119 N 0.57228 0.01348 0.02691 0.0
H1120 H 0.51965 1.00924 0.10772 0.0
H1121 H 0.55625 1.01014 0.09195 0.0
H1122 H 0.58662 0.01558 1.00556 0.0
H1123 H 0.58328 0.01728 0.05011 0.0
H1124 H 0.43891 0.99127 0.98749 0.0
H1125 H 0.4342 0.99436 0.03208 0.0
H1126 H 0.46319 0.01299 0.94861 0.0
H1127 H 0.49926 0.0104 0.93075 0.0
C1128 C 0.2228 0.75377 0.26042 0.0
C1129 C 0.24787 0.76908 0.24492 0.0
C1130 C 0.28271 0.73789 0.27941 0.0
C1131 C 0.25761 0.72229 0.29445 0.0
N1132 N 0.20433 0.712 0.29521 0.0
N1133 N 0.30131 0.77841 0.24261 0.0
C1134 C 0.22781 0.72955 0.28409 0.0
C1135 C 0.27776 0.76149 0.25482 0.0
N1136 N 0.19392 0.76293 0.25327 0.0
N1137 N 0.31152 0.72985 0.28837 0.0
H1138 H 0.29862 0.7954 0.22425 0.0
H1139 H 0.32332 0.77705 0.25181 0.0
H1140 H 0.31648 0.71617 0.30946 0.0
H1141 H 0.33071 0.73602 0.27447 0.0
H1142 H 0.17512 0.7564 0.26766 0.0
H1143 H 0.18857 0.7783 0.23389 0.0
H1144 H 0.18261 0.71309 0.28505 0.0
H1145 H 0.207 0.69457 0.31306 0.0
C1146 C 0.48512 0.03118 0.50614 0.0
C1147 C 0.48609 1.00043 0.49658 0.0
C1148 C 0.52494 0.99052 0.54079 0.0
C1149 C 0.52595 0.02178 0.5482 0.0
N1150 N 0.50803 0.07253 0.53698 0.0
N1151 N 0.50876 0.95094 0.50226 0.0
C1152 C 0.50634 0.04229 0.53055 0.0
C1153 C 0.50629 0.98009 0.51346 0.0
N1154 N 0.46284 0.04946 0.49324 0.0
N1155 N 0.542 0.97069 0.55962 0.0
H1156 H 0.49536 0.94185 0.48295 0.0
H1157 H 0.52566 0.93612 0.51016 0.0
H1158 H 0.55796 0.97727 0.57772 0.0
H1159 H 0.53911 0.94744 0.55904 0.0
H1160 H 0.45834 0.07112 0.50225 0.0
H1161 H 0.44709 0.04219 0.47515 0.0
H1162 H 0.4977 0.08891 0.52176 0.0
H1163 H 0.52088 0.08167 0.55676 0.0
C1164 C 0.2565 0.23138 0.77662 0.0
C1165 C 0.25927 0.24268 0.74242 0.0
C1166 C 0.25514 0.29434 0.7652 0.0
C1167 C 0.25295 0.28283 0.79945 0.0
N1168 N 0.26251 0.241 0.83761 0.0
N1169 N 0.25559 0.28498 0.70343 0.0
C1170 C 0.25665 0.2515 0.80521 0.0
C1171 C 0.25695 0.27421 0.73644 0.0
N1172 N 0.25269 0.20113 0.78161 0.0
N1173 N 0.25787 0.32476 0.76059 0.0
H1174 H 0.2568 0.27131 0.68171 0.0
H1175 H 0.25031 0.30721 0.69731 0.0
H1176 H 0.25877 0.33969 0.7813 0.0
H1177 H 0.26265 0.33501 0.73703 0.0
H1178 H 0.24744 0.19165 0.8055 0.0
H1179 H 0.25131 0.18596 0.76109 0.0
H1180 H 0.26753 0.21854 0.84302 0.0
H1181 H 0.26697 0.2553 0.85818 0.0
C1182 C 0.99283 0.02685 1.00567 0.0
C1183 C 0.02379 0.03183 1.01387 0.0
C1184 C 1.00991 0.03404 0.07595 0.0
C1185 C 0.97959 0.02702 0.068 0.0
N1186 N 0.94039 0.02531 1.02563 0.0
N1187 N 0.06232 0.03271 0.05785 0.0
C1188 C 0.97063 0.02592 0.03281 0.0
C1189 C 0.03236 0.03348 0.04934 0.0
N1190 N 0.98471 0.02166 0.97225 0.0
N1191 N 0.01718 0.0428 0.10862 0.0
H1192 H 0.07954 0.03101 0.03951 0.0
H1193 H 0.07003 0.03021 0.08305 0.0
H1194 H 1.00089 0.04648 0.12763 0.0
H1195 H 0.03845 0.05065 0.1155 0.0
H1196 H 0.96309 0.01555 0.96462 0.0
H1197 H 1.00021 0.02029 0.95212 0.0
H1198 H 0.93138 0.02727 1.00098 0.0
H1199 H 0.92395 0.02592 0.04509 0.0
C1200 C 0.7674 0.73106 0.76629 0.0
C1201 C 0.76744 0.74184 0.8009 0.0
C1202 C 0.7707 0.79371 0.77846 0.0
C1203 C 0.77074 0.78283 0.74384 0.0
N1204 N 0.75921 0.74161 0.70571 0.0
N1205 N 0.7762 0.78335 0.83963 0.0
C1206 C 0.76628 0.75163 0.73793 0.0
C1207 C 0.77113 0.77315 0.80695 0.0
N1208 N 0.76993 0.70074 0.76061 0.0
N1209 N 0.76794 0.82403 0.78401 0.0
H1210 H 0.77706 0.76937 0.86113 0.0
H1211 H 0.78279 0.80531 0.84511 0.0
H1212 H 0.76549 0.83943 0.76382 0.0
H1213 H 0.76443 0.83364 0.80822 0.0
H1214 H 0.77269 0.69121 0.73626 0.0
H1215 H 0.77263 0.68529 0.78072 0.0
H1216 H 0.75195 0.71976 0.70078 0.0
H1217 H 0.75717 0.75569 0.6844 0.0
C1218 C 0.75778 0.25321 0.30271 0.0
C1219 C 0.76461 0.28363 0.29458 0.0
C1220 C 0.75855 0.27215 0.23237 0.0
C1221 C 0.75314 0.24146 0.24063 0.0
N1222 N 0.75519 0.20154 0.28255 0.0
N1223 N 0.76268 0.32372 0.25284 0.0
C1224 C 0.75497 0.23174 0.27554 0.0
C1225 C 0.76282 0.29346 0.25958 0.0
N1226 N 0.75193 0.24503 0.33605 0.0
N1227 N 0.75981 0.281 0.19859 0.0
H1228 H 0.76313 0.3398 0.27241 0.0
H1229 H 0.75862 0.33314 0.2287 0.0
H1230 H 0.75626 0.26645 0.17802 0.0
H1231 H 0.76678 0.30222 0.1905 0.0
H1232 H 0.74442 0.22371 0.34318 0.0
H1233 H 0.75036 0.2605 0.35611 0.0
H1234 H 0.75969 0.19262 0.30688 0.0
H1235 H 0.75434 0.18529 0.26313 0.0
C1236 C 0.77434 0.25514 0.7356 0.0
C1237 C 0.76617 0.28478 0.74568 0.0
C1238 C 0.75477 0.26593 0.80459 0.0
C1239 C 0.76246 0.23615 0.79427 0.0
N1240 N 0.77047 0.20157 0.74732 0.0
N1241 N 0.75778 0.31957 0.7922 0.0
C1242 C 0.76958 0.23063 0.75892 0.0
C1243 C 0.75909 0.2904 0.781 0.0
N1244 N 0.78872 0.25053 0.70481 0.0
N1245 N 0.74134 0.27075 0.8359 0.0
H1246 H 0.76217 0.33771 0.77575 0.0
H1247 H 0.75587 0.32566 0.81808 0.0
H1248 H 0.73427 0.25319 0.85172 0.0
H1249 H 0.73323 0.29163 0.84406 0.0
H1250 H 0.79724 0.22969 0.69699 0.0
H1251 H 0.79614 0.26828 0.68945 0.0
H1252 H 0.77242 0.19585 0.72133 0.0
H1253 H 0.76562 0.18331 0.76342 0.0
C1254 C 0.76094 0.79735 0.26047 0.0
C1255 C 0.75818 0.78735 0.29541 0.0
C1256 C 0.76047 0.73505 0.27533 0.0
C1257 C 0.76585 0.74468 0.24087 0.0
N1258 N 0.77064 0.78564 0.20012 0.0
N1259 N 0.76572 0.74664 0.33585 0.0
C1260 C 0.76557 0.77605 0.23317 0.0
C1261 C 0.76097 0.7562 0.30284 0.0
N1262 N 0.75953 0.82755 0.25357 0.0
N1263 N 0.75436 0.7054 0.28166 0.0
H1264 H 0.77004 0.76142 0.35601 0.0
H1265 H 0.76993 0.72419 0.34223 0.0
H1266 H 0.75277 0.68955 0.26185 0.0
H1267 H 0.74746 0.69741 0.30575 0.0
H1268 H 0.75679 0.83667 0.22904 0.0
H1269 H 0.76086 0.84378 0.27294 0.0
H1270 H 0.77525 0.80783 0.19339 0.0
H1271 H 0.77087 0.77128 0.17895 0.0
C1272 C 0.50557 0.54105 1.02463 0.0
C1273 C 0.48936 0.51731 1.00792 0.0
C1274 C 0.51526 0.48057 0.04523 0.0
C1275 C 0.53139 0.50428 0.06237 0.0
N1276 N 0.54615 0.55641 0.06272 0.0
N1277 N 0.47399 0.46547 1.00805 0.0
C1278 C 0.52726 0.5344 0.05093 0.0
C1279 C 0.49327 0.48732 1.01943 0.0
N1280 N 0.50005 0.57037 1.01572 0.0
N1281 N 0.521 0.4511 0.05315 0.0
H1282 H 0.45741 0.46927 0.98951 0.0
H1283 H 0.47232 0.44418 1.01918 0.0
H1284 H 0.53284 0.44425 0.07475 0.0
H1285 H 0.51473 0.43315 0.03749 0.0
H1286 H 0.50601 0.58865 0.03103 0.0
H1287 H 0.48926 0.57673 0.99304 0.0
H1288 H 0.5473 0.57799 0.05227 0.0
H1289 H 0.56287 0.55263 0.08108 0.0
C1290 C 0.98152 0.50216 0.52164 0.0
C1291 C 0.9918 0.50229 0.55638 0.0
C1292 C 0.0439 0.49523 0.53517 0.0
C1293 C 0.03357 0.49505 0.50042 0.0
N1294 N 0.99384 0.50899 0.46114 0.0
N1295 N 0.0323 0.49171 0.59626 0.0
C1296 C 1.0027 0.5014 0.4937 0.0
C1297 C 0.02285 0.49667 0.56322 0.0
N1298 N 0.95111 0.50165 0.51549 0.0
N1299 N 0.07429 0.49642 0.54119 0.0
H1300 H 0.01788 0.49176 0.61752 0.0
H1301 H 0.05394 0.48416 0.6024 0.0
H1302 H 0.09004 0.4978 0.52117 0.0
H1303 H 0.08371 0.49994 0.56541 0.0
H1304 H 0.94188 0.49842 0.49111 0.0
H1305 H 0.93516 0.50097 0.53546 0.0
H1306 H 0.97201 0.51602 0.45503 0.0
H1307 H 1.00922 0.51261 0.44117 0.0
C1308 C 0.01939 0.53992 0.03781 0.0
C1309 C 0.03287 0.51494 0.05572 0.0
C1310 C 1.0006 0.48021 1.02324 0.0
C1311 C 0.98808 0.50494 1.00409 0.0
N1312 N 0.9829 0.5583 0.99545 0.0
N1313 N 0.0402 0.46139 0.06082 0.0
C1314 C 0.99713 0.53479 1.0117 0.0
C1315 C 0.02425 0.48517 0.04746 0.0
N1316 N 0.02798 0.56868 0.04578 0.0
N1317 N 0.98967 0.45169 1.01873 0.0
H1318 H 0.05759 0.46385 0.07863 0.0
H1319 H 0.03808 0.4393 0.05217 0.0
H1320 H 0.97517 0.44558 0.99889 0.0
H1321 H 0.99402 0.434 0.03571 0.0
H1322 H 0.02229 0.58774 0.03161 0.0
H1323 H 0.04138 0.57401 0.06689 0.0
H1324 H 0.98583 0.58091 1.00138 0.0
H1325 H 0.9667 0.55531 0.97633 0.0
C1326 C 0.54876 0.51847 0.5403 0.0
C1327 C 0.53799 0.52167 0.50592 0.0
C1328 C 0.48664 0.5106 0.5264 0.0
C1329 C 0.49723 0.50749 0.56089 0.0
N1330 N 0.5374 0.51631 0.60153 0.0
N1331 N 0.49843 0.51042 0.46535 0.0
C1332 C 0.52805 0.51358 0.56815 0.0
C1333 C 0.50744 0.51475 0.49862 0.0
N1334 N 0.57926 0.51814 0.54586 0.0
N1335 N 0.45623 0.5116 0.52047 0.0
H1336 H 0.51337 0.5102 0.44456 0.0
H1337 H 0.47702 0.50273 0.45874 0.0
H1338 H 0.44041 0.51089 0.54044 0.0
H1339 H 0.4468 0.51706 0.49668 0.0
H1340 H 0.58912 0.51275 0.56942 0.0
H1341 H 0.59493 0.51967 0.5257 0.0
H1342 H 0.55893 0.52336 0.60847 0.0
H1343 H 0.52271 0.51539 0.6225 0.0
C1344 C 0.35456 0.19912 0.18792 0.0
C1345 C 0.36502 0.21857 0.16151 0.0
C1346 C 0.39332 0.17731 0.13472 0.0
C1347 C 0.38127 0.15724 0.15981 0.0
N1348 N 0.34736 0.14762 0.20746 0.0
N1349 N 0.38953 0.22615 0.10685 0.0
C1350 C 0.36091 0.16772 0.18564 0.0
C1351 C 0.38295 0.20758 0.13398 0.0
N1352 N 0.33957 0.21101 0.21571 0.0
N1353 N 0.41557 0.16776 0.11252 0.0
H1354 H 0.38218 0.24852 0.10588 0.0
H1355 H 0.39992 0.21881 0.08416 0.0
H1356 H 0.42405 0.14579 0.1123 0.0
H1357 H 0.42746 0.18219 0.09622 0.0
H1358 H 0.33367 0.19864 0.23755 0.0
H1359 H 0.33479 0.23398 0.21787 0.0
H1360 H 0.3301 0.15342 0.22463 0.0
H1361 H 0.35193 0.12454 0.20668 0.0
C1362 C 0.0648 0.12536 0.44442 0.0
C1363 C 0.05118 0.10413 0.42228 0.0
C1364 C 0.10156 0.08846 0.40248 0.0
C1365 C 0.11432 0.11401 0.41881 0.0
N1366 N 0.10572 0.1604 0.45078 0.0
N1367 N 0.0567 0.06765 0.37648 0.0
C1368 C 0.09543 0.13335 0.43893 0.0
C1369 C 0.06958 0.08592 0.40052 0.0
N1370 N 0.04853 0.1376 0.471 0.0
N1371 N 0.12 0.06664 0.38894 0.0
H1372 H 0.03342 0.06628 0.37308 0.0
H1373 H 0.0692 0.05619 0.35771 0.0
H1374 H 0.14352 0.06757 0.39078 0.0
H1375 H 0.11188 0.04634 0.37928 0.0
H1376 H 0.05818 0.1514 0.48967 0.0
H1377 H 0.02641 0.13102 0.47661 0.0
H1378 H 0.09157 0.17629 0.46249 0.0
H1379 H 0.12735 0.16852 0.44586 0.0
C1380 C 0.17022 0.8495 0.64623 0.0
C1381 C 0.1423 0.85619 0.66298 0.0
C1382 C 0.13708 0.80286 0.67809 0.0
C1383 C 0.16189 0.79566 0.6563 0.0
N1384 N 0.20026 0.8118 0.61618 0.0
N1385 N 0.09634 0.83785 0.68985 0.0
C1386 C 0.17821 0.81892 0.63963 0.0
C1387 C 0.12502 0.83254 0.67787 0.0
N1388 N 0.18927 0.87233 0.63709 0.0
N1389 N 0.12542 0.78136 0.6995 0.0
H1390 H 0.08585 0.85891 0.68886 0.0
H1391 H 0.08184 0.82067 0.69763 0.0
H1392 H 0.13448 0.75964 0.70101 0.0
H1393 H 0.10911 0.78605 0.7183 0.0
H1394 H 0.21108 0.86867 0.62761 0.0
H1395 H 0.18436 0.89492 0.64223 0.0
H1396 H 0.21082 0.82774 0.60054 0.0
H1397 H 0.20612 0.78962 0.61019 0.0
C1398 C 0.43938 0.93833 0.90925 0.0
C1399 C 0.46598 0.92075 0.91358 0.0
C1400 C 0.43512 0.87823 0.9332 0.0
C1401 C 0.40869 0.89406 0.92293 0.0
N1402 N 0.3851 0.93918 0.9008 0.0
N1403 N 0.48982 0.87387 0.92884 0.0
C1404 C 0.41058 0.9244 0.91159 0.0
C1405 C 0.46408 0.89083 0.92611 0.0
N1406 N 0.44193 0.96836 0.90229 0.0
N1407 N 0.43231 0.85099 0.94934 0.0
H1408 H 0.51125 0.88253 0.92372 0.0
H1409 H 0.48989 0.85087 0.93412 0.0
H1410 H 0.41126 0.84144 0.95469 0.0
H1411 H 0.4504 0.83924 0.96007 0.0
H1412 H 0.42371 0.98332 0.90233 0.0
H1413 H 0.46282 0.97878 0.8992 0.0
H1414 H 0.38539 0.95987 0.88811 0.0
H1415 H 0.3635 0.93004 0.90281 0.0
C1416 C 0.3523 0.84198 0.41438 0.0
C1417 C 0.37107 0.85149 0.38668 0.0
C1418 C 0.3597 0.80509 0.35534 0.0
C1419 C 0.34327 0.79469 0.38442 0.0
N1420 N 0.33058 0.79947 0.4445 0.0
N1421 N 0.39762 0.83957 0.33366 0.0
C1422 C 0.34186 0.812 0.41494 0.0
C1423 C 0.37627 0.83233 0.35788 0.0
N1424 N 0.34351 0.86191 0.43944 0.0
N1425 N 0.3584 0.78965 0.32497 0.0
H1426 H 0.41042 0.8592 0.33478 0.0
H1427 H 0.40438 0.8249 0.31407 0.0
H1428 H 0.34672 0.76947 0.32259 0.0
H1429 H 0.36708 0.79791 0.30178 0.0
H1430 H 0.32764 0.85671 0.4585 0.0
H1431 H 0.3496 0.88459 0.43907 0.0
H1432 H 0.33126 0.81018 0.46841 0.0
H1433 H 0.32356 0.77707 0.44561 0.0
C1434 C 0.43818 0.14892 0.6113 0.0
C1435 C 0.41533 0.13251 0.62901 0.0
C1436 C 0.45359 0.09647 0.64925 0.0
C1437 C 0.47591 0.11196 0.62994 0.0
N1438 N 0.48763 0.14673 0.58426 0.0
N1439 N 0.40019 0.08619 0.65669 0.0
C1440 C 0.46751 0.13615 0.60815 0.0
C1441 C 0.4227 0.10473 0.6453 0.0
N1442 N 0.43271 0.17747 0.59955 0.0
N1443 N 0.46195 0.07517 0.67284 0.0
H1444 H 0.37731 0.0913 0.65341 0.0
H1445 H 0.40423 0.06454 0.66608 0.0
H1446 H 0.48445 0.06932 0.67729 0.0
H1447 H 0.44679 0.06536 0.69014 0.0
H1448 H 0.44966 0.19126 0.5896 0.0
H1449 H 0.41211 0.18863 0.60288 0.0
H1450 H 0.48185 0.16268 0.56562 0.0
H1451 H 0.50898 0.13704 0.58073 0.0
C1452 C 0.18746 0.20121 0.91098 0.0
C1453 C 0.17235 0.22076 0.88768 0.0
C1454 C 0.14145 0.1785 0.86806 0.0
C1455 C 0.15799 0.15842 0.88969 0.0
N1456 N 0.2031 0.1499 0.92313 0.0
N1457 N 0.14301 0.22518 0.83578 0.0
C1458 C 0.18325 0.16955 0.90816 0.0
C1459 C 0.15202 0.20841 0.86343 0.0
N1460 N 0.20395 0.21273 0.93744 0.0
N1461 N 0.11449 0.17019 0.85399 0.0
H1462 H 0.15164 0.24661 0.83084 0.0
H1463 H 0.12998 0.21638 0.81587 0.0
H1464 H 0.10435 0.14944 0.85851 0.0
H1465 H 0.10056 0.1853 0.84083 0.0
H1466 H 0.21321 0.19941 0.95692 0.0
H1467 H 0.20542 0.23575 0.94205 0.0
H1468 H 0.22316 0.15684 0.93461 0.0
H1469 H 0.20102 0.12658 0.92067 0.0
C1470 C 0.09167 0.90948 0.12154 0.0
C1471 C 0.11098 0.90848 0.15079 0.0
C1472 C 0.07203 0.93386 0.18514 0.0
C1473 C 0.05431 0.93821 0.15526 0.0
N1474 N 0.05061 0.93606 0.09326 0.0
N1475 N 0.12251 0.92785 0.20745 0.0
C1476 C 0.06502 0.92768 0.12284 0.0
C1477 C 0.10207 0.92327 0.18168 0.0
N1478 N 0.09796 0.8923 0.09315 0.0
N1479 N 0.05976 0.93902 0.21703 0.0
H1480 H 0.14525 0.9217 0.20512 0.0
H1481 H 0.11762 0.9407 0.22931 0.0
H1482 H 0.03712 0.94514 0.22049 0.0
H1483 H 0.07101 0.93384 0.23987 0.0
H1484 H 0.08299 0.89007 0.07264 0.0
H1485 H 0.11685 0.87821 0.09139 0.0
H1486 H 0.0592 0.93137 0.06872 0.0
H1487 H 0.0317 0.95019 0.09324 0.0
C1488 C 0.64356 0.80567 0.86693 0.0
C1489 C 0.67522 0.80564 0.87129 0.0
C1490 C 0.67648 0.85998 0.86171 0.0
C1491 C 0.64451 0.86071 0.86445 0.0
N1492 N 0.59698 0.83443 0.87033 0.0
N1493 N 0.72241 0.83187 0.8738 0.0
C1494 C 0.62772 0.83354 0.86639 0.0
C1495 C 0.69198 0.8325 0.86815 0.0
N1496 N 0.62882 0.77883 0.86434 0.0
N1497 N 0.6918 0.88568 0.85351 0.0
H1498 H 0.734 0.81187 0.879 0.0
H1499 H 0.73571 0.85109 0.87548 0.0
H1500 H 0.68073 0.90608 0.84864 0.0
H1501 H 0.71496 0.88616 0.84848 0.0
H1502 H 0.606 0.777 0.85824 0.0
H1503 H 0.64028 0.75822 0.86529 0.0
H1504 H 0.58397 0.81556 0.87594 0.0
H1505 H 0.58443 0.85438 0.87013 0.0
C1506 C 0.94269 0.9496 0.6547 0.0
C1507 C 0.96684 0.93292 0.63979 0.0
C1508 C 0.93056 0.90226 0.60806 0.0
C1509 C 0.90689 0.91474 0.62839 0.0
N1510 N 0.88949 0.95101 0.67032 0.0
N1511 N 0.98459 0.89344 0.60227 0.0
C1512 C 0.91256 0.93917 0.65093 0.0
C1513 C 0.96103 0.9097 0.61575 0.0
N1514 N 0.94885 0.97532 0.67259 0.0
N1515 N 0.92366 0.88274 0.58207 0.0
H1516 H 1.0071 0.89823 0.6078 0.0
H1517 H 0.98188 0.87411 0.58743 0.0
H1518 H 0.90135 0.87711 0.57629 0.0
H1519 H 0.9395 0.87442 0.56448 0.0
H1520 H 0.93226 0.99009 0.68168 0.0
H1521 H 0.97083 0.98332 0.67551 0.0
H1522 H 0.89268 0.96622 0.69039 0.0
H1523 H 0.86702 0.94456 0.66724 0.0
C1524 C 0.88075 0.1827 0.36342 0.0
C1525 C 0.86374 0.16308 0.38502 0.0
C1526 C 0.83201 0.20558 0.4037 0.0
C1527 C 0.84869 0.22491 0.38163 0.0
N1528 N 0.88146 0.23011 0.33238 0.0
N1529 N 0.81806 0.15414 0.41751 0.0
C1530 C 0.87055 0.21276 0.35871 0.0
C1531 C 0.83749 0.174 0.40228 0.0
N1532 N 0.90775 0.17361 0.34946 0.0
N1533 N 0.81248 0.21741 0.42757 0.0
H1534 H 0.8215 0.13086 0.41642 0.0
H1535 H 0.79726 0.16053 0.42802 0.0
H1536 H 0.80851 0.24045 0.43003 0.0
H1537 H 0.80217 0.20458 0.4468 0.0
H1538 H 0.92241 0.18831 0.33681 0.0
H1539 H 0.91695 0.15219 0.35299 0.0
H1540 H 0.89558 0.22168 0.31299 0.0
H1541 H 0.87362 0.25199 0.32794 0.0
C1542 C 0.558 0.1049 0.09577 0.0
C1543 C 0.53641 0.11277 0.12128 0.0
C1544 C 0.56787 0.15513 0.13921 0.0
C1545 C 0.59193 0.14338 0.11877 0.0
N1546 N 0.61008 0.10833 0.07582 0.0
N1547 N 0.51868 0.14599 0.16563 0.0
C1548 C 0.58685 0.11901 0.09586 0.0
C1549 C 0.54046 0.13861 0.14194 0.0
N1550 N 0.55083 0.08332 0.07219 0.0
N1551 N 0.57157 0.18181 0.15621 0.0
H1552 H 0.49811 0.13458 0.16693 0.0
H1553 H 0.52123 0.16246 0.18447 0.0
H1554 H 0.59149 0.19425 0.15449 0.0
H1555 H 0.5543 0.19282 0.16962 0.0
H1556 H 0.56447 0.07753 0.05123 0.0
H1557 H 0.52962 0.07313 0.07208 0.0
H1558 H 0.60895 0.08865 0.06133 0.0
H1559 H 0.6312 0.11866 0.07477 0.0
C1560 C 0.67288 0.20494 0.67976 0.0
C1561 C 0.68882 0.21517 0.65016 0.0
C1562 C 0.68493 0.16522 0.62477 0.0
C1563 C 0.6647 0.15628 0.65132 0.0
N1564 N 0.63395 0.17135 0.70052 0.0
N1565 N 0.70159 0.20723 0.59032 0.0
C1566 C 0.65705 0.17713 0.67799 0.0
C1567 C 0.69207 0.19595 0.62129 0.0
N1568 N 0.67387 0.22078 0.70987 0.0
N1569 N 0.69784 0.14435 0.6033 0.0
H1570 H 0.70521 0.23022 0.58647 0.0
H1571 H 0.70234 0.1943 0.56785 0.0
H1572 H 0.69452 0.12124 0.60646 0.0
H1573 H 0.71437 0.1499 0.5851 0.0
H1574 H 0.6648 0.21261 0.73293 0.0
H1575 H 0.68633 0.24048 0.71261 0.0
H1576 H 0.62613 0.18723 0.71832 0.0
H1577 H 0.6206 0.15213 0.69916 0.0
C1578 C 0.60293 0.90168 0.43629 0.0
C1579 C 0.62335 0.92053 0.4179 0.0
C1580 C 0.58123 0.95186 0.39786 0.0
C1581 C 0.56096 0.93234 0.41511 0.0
N1582 N 0.55218 0.89518 0.45896 0.0
N1583 N 0.6333 0.96786 0.39001 0.0
C1584 C 0.57188 0.9096 0.43739 0.0
C1585 C 0.61286 0.94733 0.40192 0.0
N1586 N 0.61254 0.87493 0.45008 0.0
N1587 N 0.57027 0.97321 0.37576 0.0
H1588 H 0.65658 0.96472 0.39292 0.0
H1589 H 0.62724 0.98894 0.38036 0.0
H1590 H 0.54718 0.9768 0.37211 0.0
H1591 H 0.58393 0.98604 0.35951 0.0
H1592 H 0.59785 0.85865 0.45971 0.0
H1593 H 0.635 0.86781 0.44994 0.0
H1594 H 0.55904 0.88036 0.47831 0.0
H1595 H 0.52914 0.90036 0.45958 0.0
C1596 C 0.85733 0.85498 0.15485 0.0
C1597 C 0.88401 0.86043 0.17413 0.0
C1598 C 0.88846 0.80649 0.18749 0.0
C1599 C 0.86241 0.801 0.16745 0.0
N1600 N 0.81903 0.81913 0.13682 0.0
N1601 N 0.92182 0.8431 0.21407 0.0
C1602 C 0.84578 0.82512 0.15284 0.0
C1603 C 0.89851 0.83666 0.19228 0.0
N1604 N 0.84389 0.8782 0.13733 0.0
N1605 N 0.90411 0.78252 0.20068 0.0
H1606 H 0.92974 0.86496 0.21777 0.0
H1607 H 0.93194 0.82737 0.2303 0.0
H1608 H 0.89649 0.7604 0.19832 0.0
H1609 H 0.92507 0.78419 0.21257 0.0
H1610 H 0.82639 0.87549 0.11979 0.0
H1611 H 0.85108 0.90048 0.13926 0.0
H1612 H 0.80409 0.83559 0.12809 0.0
H1613 H 0.81072 0.79729 0.13426 0.0
C1614 C 0.95925 0.10436 0.88589 0.0
C1615 C 0.97445 0.10782 0.91763 0.0
C1616 C 0.92863 0.12985 0.94351 0.0
C1617 C 0.913 0.12552 0.91192 0.0
N1618 N 0.91109 0.10047 0.85672 0.0
N1619 N 0.97159 0.11553 0.97887 0.0
C1620 C 0.92759 0.11002 0.8843 0.0
C1621 C 0.95837 0.11783 0.94721 0.0
N1622 N 0.97539 0.0974 0.85684 0.0
N1623 N 0.91602 0.14696 0.96919 0.0
H1624 H 0.99312 0.10621 0.98212 0.0
H1625 H 0.9601 0.11989 1.0019 0.0
H1626 H 0.89466 0.15684 0.96736 0.0
H1627 H 0.92781 0.15345 0.99114 0.0
H1628 H 0.96611 0.0975 0.83218 0.0
H1629 H 0.99875 0.09417 0.85717 0.0
H1630 H 0.92003 0.08687 0.83723 0.0
H1631 H 0.88771 0.10354 0.85526 0.0
C1632 C 0.85833 0.67358 0.67863 0.0
C1633 C 0.88495 0.66472 0.66035 0.0
C1634 C 0.8906 0.71672 0.6413 0.0
C1635 C 0.86122 0.72408 0.65323 0.0
N1636 N 0.81352 0.70444 0.67369 0.0
N1637 N 0.91766 0.67756 0.6118 0.0
C1638 C 0.84391 0.70118 0.66947 0.0
C1639 C 0.89862 0.68616 0.63789 0.0
N1640 N 0.84722 0.65669 0.70518 0.0
N1641 N 0.91109 0.7386 0.63364 0.0
H1642 H 0.92103 0.65503 0.60505 0.0
H1643 H 0.92658 0.69301 0.5942 0.0
H1644 H 0.90699 0.76129 0.63908 0.0
H1645 H 0.93325 0.73348 0.62617 0.0
H1646 H 0.82873 0.66375 0.72003 0.0
H1647 H 0.85855 0.63785 0.71482 0.0
H1648 H 0.79998 0.68695 0.68281 0.0
H1649 H 0.80171 0.72263 0.66328 0.0
C1650 C 0.5932 0.62554 0.87693 0.0
C1651 C 0.6105 0.63129 0.90706 0.0
C1652 C 0.57122 0.6077 0.94246 0.0
C1653 C 0.55309 0.60427 0.91277 0.0
N1654 N 0.54366 0.61514 0.85325 0.0
N1655 N 0.61269 0.63405 0.96931 0.0
C1656 C 0.56304 0.61533 0.88055 0.0
C1657 C 0.59849 0.62434 0.94016 0.0
N1658 N 0.60617 0.62794 0.84492 0.0
N1659 N 0.56325 0.59346 0.97231 0.0
H1660 H 0.63248 0.64672 0.96866 0.0
H1661 H 0.60331 0.63188 0.99392 0.0
H1662 H 0.54371 0.58059 0.97415 0.0
H1663 H 0.57716 0.59234 0.9939 0.0
H1664 H 0.59541 0.62137 0.82232 0.0
H1665 H 0.62884 0.6335 0.84113 0.0
H1666 H 0.54857 0.62524 0.8296 0.0
H1667 H 0.5215 0.60733 0.85557 0.0
C1668 C 0.65531 0.34749 0.20399 0.0
C1669 C 0.62999 0.35699 0.18441 0.0
C1670 C 0.62727 0.30743 0.15679 0.0
C1671 C 0.65399 0.29887 0.17411 0.0
N1672 N 0.6886 0.30619 0.22064 0.0
N1673 N 0.5869 0.34429 0.14965 0.0
C1674 C 0.66623 0.31743 0.20015 0.0
C1675 C 0.61416 0.3362 0.16345 0.0
N1676 N 0.66972 0.36768 0.22473 0.0
N1677 N 0.61561 0.28844 0.13261 0.0
H1678 H 0.57694 0.36532 0.15407 0.0
H1679 H 0.57305 0.32958 0.13618 0.0
H1680 H 0.62443 0.26685 0.12855 0.0
H1681 H 0.5981 0.29421 0.11598 0.0
H1682 H 0.69026 0.36336 0.23681 0.0
H1683 H 0.66148 0.38947 0.22888 0.0
H1684 H 0.69725 0.31745 0.24192 0.0
H1685 H 0.69655 0.28416 0.21801 0.0
C1686 C 0.95739 0.40056 0.43842 0.0
C1687 C 0.97041 0.41969 0.41326 0.0
C1688 C 0.91964 0.43333 0.39349 0.0
C1689 C 0.90748 0.40922 0.41312 0.0
N1690 N 0.91606 0.36731 0.45214 0.0
N1691 N 0.96403 0.45336 0.36495 0.0
C1692 C 0.92655 0.39239 0.43554 0.0
C1693 C 0.95155 0.43632 0.39062 0.0
N1694 N 0.9746 0.3904 0.4652 0.0
N1695 N 0.90058 0.45306 0.37734 0.0
H1696 H 0.98728 0.45543 0.36152 0.0
H1697 H 0.9514 0.46338 0.3454 0.0
H1698 H 0.87709 0.45139 0.37944 0.0
H1699 H 0.90798 0.47255 0.36498 0.0
H1700 H 0.96568 0.37841 0.486 0.0
H1701 H 0.99704 0.39699 0.46842 0.0
H1702 H 0.93016 0.35253 0.46553 0.0
H1703 H 0.89391 0.35969 0.45028 0.0
C1704 C 0.87209 0.34031 0.86691 0.0
C1705 C 0.87335 0.35447 0.89976 0.0
C1706 C 0.8523 0.30942 0.9267 0.0
C1707 C 0.84686 0.29728 0.8937 0.0
N1708 N 0.84772 0.30229 0.83192 0.0
N1709 N 0.85882 0.35473 0.9601 0.0
C1710 C 0.85591 0.31289 0.86357 0.0
C1711 C 0.862 0.33957 0.92956 0.0
N1712 N 0.88687 0.35256 0.83924 0.0
N1713 N 0.84765 0.29197 0.95527 0.0
H1714 H 0.86396 0.37751 0.96286 0.0
H1715 H 0.84806 0.34563 0.98168 0.0
H1716 H 0.84063 0.26959 0.9535 0.0
H1717 H 0.85362 0.29863 0.98008 0.0
H1718 H 0.88898 0.34166 0.81553 0.0
H1719 H 0.89931 0.37241 0.84082 0.0
H1720 H 0.85067 0.31447 0.80916 0.0
H1721 H 0.83598 0.28216 0.82879 0.0
C1722 C 0.92319 0.58677 0.17292 0.0
C1723 C 0.91484 0.60792 0.14718 0.0
C1724 C 0.96651 0.60826 0.12433 0.0
C1725 C 0.97508 0.58796 0.15077 0.0
N1726 N 0.96148 0.55215 0.1945 0.0
N1727 N 0.92566 0.63303 0.09347 0.0
C1728 C 0.95324 0.57529 0.17321 0.0
C1729 C 0.9356 0.61655 0.12104 0.0
N1730 N 0.90274 0.57881 0.19785 0.0
N1731 N 0.98826 0.62099 0.1039 0.0
H1732 H 0.90309 0.63957 0.09073 0.0
H1733 H 0.939 0.63794 0.07199 0.0
H1734 H 1.01115 0.6156 0.10609 0.0
H1735 H 0.98405 0.6383 0.08641 0.0
H1736 H 0.90829 0.5663 0.21969 0.0
H1737 H 0.88019 0.58585 0.19735 0.0
H1738 H 0.94627 0.54006 0.20965 0.0
H1739 H 0.98344 0.54339 0.19478 0.0
C1740 C 0.65257 0.71863 0.35762 0.0
C1741 C 0.67253 0.73181 0.38163 0.0
C1742 C 0.68398 0.68152 0.40433 0.0
C1743 C 0.65933 0.66954 0.38552 0.0
N1744 N 0.61638 0.67913 0.34825 0.0
N1745 N 0.70436 0.72594 0.43163 0.0
C1746 C 0.64273 0.68861 0.36286 0.0
C1747 C 0.68783 0.71328 0.40582 0.0
N1748 N 0.64331 0.73474 0.32954 0.0
N1749 N 0.70361 0.66256 0.42077 0.0
H1750 H 0.70619 0.74915 0.43493 0.0
H1751 H 0.71362 0.71346 0.45181 0.0
H1752 H 0.70168 0.63916 0.41944 0.0
H1753 H 0.72337 0.66998 0.43249 0.0
H1754 H 0.63067 0.72532 0.30968 0.0
H1755 H 0.65128 0.75636 0.32428 0.0
H1756 H 0.60219 0.69351 0.3344 0.0
H1757 H 0.60695 0.65804 0.35278 0.0
C1758 C 0.60351 0.41185 0.66733 0.0
C1759 C 0.61395 0.39606 0.63761 0.0
C1760 C 0.5656 0.40672 0.60916 0.0
C1761 C 0.55357 0.41731 0.64088 0.0
N1762 N 0.56015 0.42893 0.70087 0.0
N1763 N 0.60449 0.37719 0.58028 0.0
C1764 C 0.57241 0.42005 0.67008 0.0
C1765 C 0.59505 0.39355 0.60824 0.0
N1766 N 0.62348 0.41915 0.69275 0.0
N1767 N 0.5487 0.40953 0.57994 0.0
H1768 H 0.6259 0.36732 0.57854 0.0
H1769 H 0.59044 0.37171 0.55977 0.0
H1770 H 0.52726 0.41952 0.58017 0.0
H1771 H 0.55696 0.40477 0.5553 0.0
H1772 H 0.6179 0.43287 0.71365 0.0
H1773 H 0.64647 0.41384 0.69115 0.0
H1774 H 0.57183 0.42821 0.72413 0.0
H1775 H 0.53748 0.43511 0.7035 0.0
C1776 C 0.18337 0.34243 0.39748 0.0
C1777 C 0.15765 0.35219 0.37864 0.0
C1778 C 0.15208 0.30102 0.35598 0.0
C1779 C 0.17335 0.29037 0.38033 0.0
N1780 N 0.20746 0.30072 0.42704 0.0
N1781 N 0.11486 0.33926 0.34283 0.0
C1782 C 0.18894 0.31105 0.40153 0.0
C1783 C 0.14147 0.33121 0.35818 0.0
N1784 N 0.20223 0.36323 0.41169 0.0
N1785 N 0.14224 0.28223 0.33059 0.0
H1786 H 0.10545 0.36077 0.34448 0.0
H1787 H 0.10071 0.32375 0.33093 0.0
H1788 H 0.1505 0.26029 0.32784 0.0
H1789 H 0.12865 0.28948 0.31028 0.0
H1790 H 0.22268 0.35753 0.42331 0.0
H1791 H 0.1988 0.38637 0.40864 0.0
H1792 H 0.21704 0.3147 0.44555 0.0
H1793 H 0.21101 0.27786 0.43166 0.0
C1794 C 0.45625 0.43388 0.11964 0.0
C1795 C 0.47789 0.41887 0.14048 0.0
C1796 C 0.44475 0.3752 0.14539 0.0
C1797 C 0.42132 0.39227 0.12957 0.0
N1798 N 0.40441 0.43654 0.09922 0.0
N1799 N 0.49417 0.37571 0.17266 0.0
C1800 C 0.42715 0.42108 0.11538 0.0
C1801 C 0.4728 0.38931 0.15254 0.0
N1802 N 0.4637 0.46075 0.10473 0.0
N1803 N 0.43998 0.34566 0.15373 0.0
H1804 H 0.51512 0.38555 0.17746 0.0
H1805 H 0.49086 0.35552 0.18578 0.0
H1806 H 0.41959 0.33478 0.14903 0.0
H1807 H 0.45679 0.33121 0.16274 0.0
H1808 H 0.45026 0.47215 0.087 0.0
H1809 H 0.48469 0.47078 0.10849 0.0
H1810 H 0.40595 0.45887 0.09127 0.0
H1811 H 0.38324 0.42714 0.09459 0.0
C1812 C 0.3541 0.699 0.85299 0.0
C1813 C 0.3603 0.72141 0.87802 0.0
C1814 C 0.40439 0.69225 0.89721 0.0
C1815 C 0.39468 0.66758 0.87687 0.0
N1816 N 0.3609 0.64712 0.83445 0.0
N1817 N 0.39082 0.73967 0.92458 0.0
C1818 C 0.37008 0.67107 0.85386 0.0
C1819 C 0.38577 0.71846 0.89979 0.0
N1820 N 0.33248 0.70457 0.82878 0.0
N1821 N 0.43128 0.69027 0.91429 0.0
H1822 H 0.37758 0.75907 0.92705 0.0
H1823 H 0.40688 0.73727 0.94394 0.0
H1824 H 0.44522 0.67125 0.91266 0.0
H1825 H 0.44102 0.70825 0.92731 0.0
H1826 H 0.32831 0.69056 0.80783 0.0
H1827 H 0.32026 0.72471 0.8283 0.0
H1828 H 0.34101 0.64693 0.82023 0.0
H1829 H 0.37262 0.62667 0.83377 0.0
C1830 C 0.10056 0.6166 0.60977 0.0
C1831 C 0.12475 0.60038 0.62498 0.0
C1832 C 0.09046 0.55938 0.64008 0.0
C1833 C 0.06581 0.57825 0.63127 0.0
N1834 N 0.04621 0.62409 0.60695 0.0
N1835 N 0.14439 0.55541 0.6514 0.0
C1836 C 0.07052 0.60636 0.61497 0.0
C1837 C 0.1203 0.57107 0.63846 0.0
N1838 N 0.10648 0.64217 0.5913 0.0
N1839 N 0.08485 0.53065 0.65085 0.0
H1840 H 0.16654 0.56323 0.6492 0.0
H1841 H 0.14257 0.53521 0.66489 0.0
H1842 H 0.0629 0.52222 0.65268 0.0
H1843 H 0.10161 0.51465 0.65562 0.0
H1844 H 0.09022 0.65397 0.57735 0.0
H1845 H 0.12842 0.65014 0.58752 0.0
H1846 H 0.04789 0.64632 0.59863 0.0
H1847 H 0.02396 0.61693 0.61031 0.0
C1848 C 0.18412 0.65931 0.14187 0.0
C1849 C 0.16361 0.64907 0.16754 0.0
C1850 C 0.15774 0.70016 0.19009 0.0
C1851 C 0.17609 0.71077 0.16263 0.0
N1852 N 0.2112 0.70153 0.11633 0.0
N1853 N 0.13717 0.65719 0.22114 0.0
C1854 C 0.19107 0.69053 0.14002 0.0
C1855 C 0.15273 0.66873 0.19359 0.0
N1856 N 0.19557 0.63917 0.11844 0.0
N1857 N 0.14404 0.72047 0.21166 0.0
H1858 H 0.13312 0.63419 0.22396 0.0
H1859 H 0.13037 0.66978 0.24247 0.0
H1860 H 0.14783 0.74358 0.20985 0.0
H1861 H 0.12803 0.71485 0.23031 0.0
H1862 H 0.20842 0.64504 0.09693 0.0
H1863 H 0.19178 0.61604 0.1205 0.0
H1864 H 0.22455 0.68817 0.10025 0.0
H1865 H 0.21562 0.72448 0.11379 0.0
C1866 C 0.0578 0.39448 0.93151 0.0
C1867 C 0.05219 0.42463 0.92178 0.0
C1868 C 0.10661 0.43468 0.92182 0.0
C1869 C 0.11228 0.40333 0.9256 0.0
N1870 N 0.09288 0.35257 0.93097 0.0
N1871 N 0.07037 0.4737 0.90629 0.0
C1872 C 0.0878 0.38298 0.93022 0.0
C1873 C 0.07636 0.44499 0.91705 0.0
N1874 N 0.03417 0.37691 0.94187 0.0
N1875 N 0.13016 0.45445 0.92296 0.0
H1876 H 0.04839 0.48177 0.90292 0.0
H1877 H 0.08704 0.48884 0.8987 0.0
H1878 H 0.15247 0.44742 0.92671 0.0
H1879 H 0.12736 0.47776 0.92331 0.0
H1880 H 0.03687 0.35549 0.95248 0.0
H1881 H 1.01198 0.38506 0.94292 0.0
H1882 H 0.07563 0.33671 0.93011 0.0
H1883 H 0.11434 0.34286 0.92978 0.0
C1884 C 0.38829 0.33983 0.67812 0.0
C1885 C 0.36842 0.36502 0.67515 0.0
C1886 C 0.3263 0.33146 0.66184 0.0
C1887 C 0.34621 0.30645 0.66414 0.0
N1888 N 0.39385 0.28531 0.68106 0.0
N1889 N 0.31774 0.38477 0.67264 0.0
C1890 C 0.37645 0.31022 0.67479 0.0
C1891 C 0.33705 0.36074 0.66992 0.0
N1892 N 0.41867 0.34427 0.68191 0.0
N1893 N 0.29752 0.32719 0.65028 0.0
H1894 H 0.32524 0.4064 0.67865 0.0
H1895 H 0.29429 0.38291 0.672 0.0
H1896 H 0.28907 0.30586 0.64467 0.0
H1897 H 0.28263 0.34468 0.64442 0.0
H1898 H 0.43477 0.32715 0.68002 0.0
H1899 H 0.42818 0.3655 0.68519 0.0
H1900 H 0.41528 0.28612 0.69201 0.0
H1901 H 0.38577 0.26348 0.67765 0.0
C1902 C 0.43135 0.63496 0.44403 0.0
C1903 C 0.41379 0.62555 0.41546 0.0
C1904 C 0.45777 0.5988 0.39121 0.0
C1905 C 0.47528 0.60839 0.41959 0.0
N1906 N 0.47742 0.62807 0.47711 0.0
N1907 N 0.4077 0.59198 0.36718 0.0
C1908 C 0.46148 0.62398 0.44742 0.0
C1909 C 0.42621 0.60522 0.3908 0.0
N1910 N 0.41994 0.65567 0.4668 0.0
N1911 N 0.47166 0.58511 0.3638 0.0
H1912 H 0.38442 0.596 0.3666 0.0
H1913 H 0.41482 0.57497 0.35045 0.0
H1914 H 0.49469 0.58001 0.3635 0.0
H1915 H 0.46086 0.58065 0.34055 0.0
H1916 H 0.43286 0.66593 0.4858 0.0
H1917 H 0.39798 0.66423 0.4653 0.0
H1918 H 0.468 0.63689 0.49965 0.0
H1919 H 0.49942 0.6198 0.48006 0.0
C1920 C 0.27098 0.2754 0.03761 0.0
C1921 C 0.28004 0.30193 0.05515 0.0
C1922 C 0.26136 0.33235 1.00638 0.0
C1923 C 0.25485 0.30561 0.98767 0.0
N1924 N 0.26063 0.25185 0.98252 0.0
N1925 N 0.28979 0.35552 0.05213 0.0
C1926 C 0.2618 0.27718 1.00249 0.0
C1927 C 0.27683 0.33038 0.03847 0.0
N1928 N 0.27014 0.24853 0.05486 0.0
N1929 N 0.2518 0.35973 0.99448 0.0
H1930 H 0.30095 0.35568 0.0756 0.0
H1931 H 0.2916 0.37582 0.03876 0.0
H1932 H 0.24166 0.36276 0.97064 0.0
H1933 H 0.25208 0.37925 1.00941 0.0
H1934 H 0.26093 0.22902 0.04441 0.0
H1935 H 0.27569 0.24646 0.08091 0.0
H1936 H 0.268 0.23076 0.9909 0.0
H1937 H 0.25555 0.25266 0.95626 0.0
C1938 C 0.92927 0.99958 0.28627 0.0
C1939 C 0.93706 0.01727 0.25668 0.0
C1940 C 0.9704 0.04766 0.29334 0.0
C1941 C 0.95847 0.03339 0.32335 0.0
N1942 N 0.94144 0.98572 0.34525 0.0
N1943 N 0.96451 0.0592 0.23252 0.0
C1944 C 0.94217 1.00632 0.31906 0.0
C1945 C 0.95801 0.04121 0.26022 0.0
N1946 N 0.90893 0.9767 0.28346 0.0
N1947 N 0.99503 0.06588 0.29637 0.0
H1948 H 0.95574 0.05556 0.20795 0.0
H1949 H 0.97663 0.07918 0.23442 0.0
H1950 H 1.0063 0.0685 0.31973 0.0
H1951 H 1.00662 0.07497 0.27537 0.0
H1952 H 0.89919 0.96599 0.30469 0.0
H1953 H 0.90029 0.96954 0.26003 0.0
H1954 H 0.93194 0.96439 0.34299 0.0
H1955 H 0.95429 0.98816 0.36753 0.0
C1956 C 0.27083 0.67763 0.54596 0.0
C1957 C 0.2477 0.69861 0.55498 0.0
C1958 C 0.24612 0.71502 0.4939 0.0
C1959 C 0.27113 0.69608 0.48577 0.0
N1960 N 0.31255 0.66579 0.50785 0.0
N1961 N 0.21924 0.74283 0.53853 0.0
C1962 C 0.28518 0.67952 0.51297 0.0
C1963 C 0.23709 0.71892 0.52915 0.0
N1964 N 0.27805 0.65455 0.5677 0.0
N1965 N 0.23095 0.72951 0.46811 0.0
H1966 H 0.21346 0.74732 0.56419 0.0
H1967 H 0.21307 0.76 0.52157 0.0
H1968 H 0.23716 0.72766 0.44223 0.0
H1969 H 0.21071 0.74115 0.47209 0.0
H1970 H 0.29227 0.63676 0.56064 0.0
H1971 H 0.2674 0.65137 0.59128 0.0
H1972 H 0.32506 0.6563 0.52788 0.0
H1973 H 0.32426 0.66649 0.48458 0.0
C1974 C 0.56546 0.03362 0.79526 0.0
C1975 C 0.58271 1.00674 0.79919 0.0
C1976 C 0.58153 0.99947 0.73573 0.0
C1977 C 0.56635 0.02758 0.73217 0.0
N1978 N 0.53085 0.06162 0.75904 0.0
N1979 N 0.60198 0.9607 0.77287 0.0
C1980 C 0.5542 0.04155 0.76216 0.0
C1981 C 0.58936 0.98873 0.76933 0.0
N1982 N 0.56135 0.05278 0.82251 0.0
N1983 N 0.58823 0.98269 0.70715 0.0
H1984 H 0.61022 0.95215 0.79583 0.0
H1985 H 0.6032 0.9448 0.75321 0.0
H1986 H 0.57596 0.98446 0.68437 0.0
H1987 H 0.605 0.96615 0.70635 0.0
H1988 H 0.55159 0.07408 0.81992 0.0
H1989 H 0.57053 0.04899 0.84685 0.0
H1990 H 0.51932 0.07069 0.78019 0.0
H1991 H 0.52047 0.06588 0.73536 0.0
C1992 C 0.77155 0.66103 0.04255 0.0
C1993 C 0.78228 0.68793 0.05781 0.0
C1994 C 0.7674 0.71643 1.00595 0.0
C1995 C 0.75836 0.68911 0.99001 0.0
N1996 N 0.75713 0.63485 0.99037 0.0
N1997 N 0.79393 0.74071 0.05314 0.0
C1998 C 0.762 0.66126 1.00759 0.0
C1999 C 0.78112 0.71555 0.03927 0.0
N2000 N 0.7698 0.6353 0.06189 0.0
N2001 N 0.76197 0.74327 0.98976 0.0
H2002 H 0.80282 0.74116 0.07803 0.0
H2003 H 0.79719 0.76066 0.0395 0.0
H2004 H 0.75364 0.74465 0.9647 0.0
H2005 H 0.7644 0.76414 1.00161 0.0
H2006 H 0.75913 0.61575 0.05366 0.0
H2007 H 0.77656 0.63433 0.08757 0.0
H2008 H 0.76252 0.61371 1.00033 0.0
H2009 H 0.75038 0.63413 0.96465 0.0
C2010 C 0.05056 0.03516 0.79455 0.0
C2011 C 0.0657 0.02397 0.82418 0.0
C2012 C 0.09578 0.99071 0.78578 0.0
C2013 C 0.085 1.00685 0.75619 0.0
N2014 N 0.05407 0.04748 0.7339 0.0
N2015 N 0.09774 0.98516 0.84797 0.0
C2016 C 0.06262 0.02963 0.76095 0.0
C2017 C 0.08663 0.99981 0.81978 0.0
N2018 N 0.02373 0.05012 0.7986 0.0
N2019 N 0.11366 0.9657 0.78166 0.0
H2020 H 0.08607 0.98433 0.87135 0.0
H2021 H 0.11787 0.97289 0.84774 0.0
H2022 H 0.12255 0.95863 0.75822 0.0
H2023 H 0.11859 0.95052 0.80136 0.0
H2024 H 1.01022 0.05677 0.77796 0.0
H2025 H 0.01324 0.05201 0.8227 0.0
H2026 H 0.04014 0.06633 0.73688 0.0
H2027 H 0.06334 0.04559 0.7092 0.0
C2028 C 0.74006 0.33865 0.52564 0.0
C2029 C 0.75641 0.32588 0.55381 0.0
C2030 C 0.79202 0.30323 0.51201 0.0
C2031 C 0.77694 0.31776 0.48405 0.0
N2032 N 0.72879 0.33717 0.46461 0.0
N2033 N 0.80165 0.30061 0.57343 0.0
C2034 C 0.74877 0.33222 0.49082 0.0
C2035 C 0.78349 0.30958 0.54689 0.0
N2036 N 0.71671 0.35814 0.53217 0.0
N2037 N 0.8126 0.28091 0.50506 0.0
H2038 H 0.79684 0.3052 0.59917 0.0
H2039 H 0.82323 0.29161 0.56975 0.0
H2040 H 0.81672 0.2731 0.48008 0.0
H2041 H 0.82225 0.26725 0.52394 0.0
H2042 H 0.70631 0.37112 0.51317 0.0
H2043 H 0.70995 0.36394 0.55704 0.0
H2044 H 0.70697 0.3455 0.4684 0.0
H2045 H 0.73175 0.32837 0.43996 0.0
C2046 C 0.44006 0.01907 0.30238 0.0
C2047 C 0.45399 0.99041 0.3067 0.0
C2048 C 0.45467 0.98323 0.24371 0.0
C2049 C 0.43885 0.01083 0.23906 0.0
N2050 N 0.42446 0.05906 0.26362 0.0
N2051 N 0.48878 0.95518 0.28038 0.0
C2052 C 0.43374 0.02992 0.26834 0.0
C2053 C 0.46582 0.97566 0.27696 0.0
N2054 N 0.43359 0.03641 0.33051 0.0
N2055 N 0.45761 0.96317 0.21716 0.0
H2056 H 0.49933 0.95127 0.30403 0.0
H2057 H 0.49988 0.94546 0.25931 0.0
H2058 H 0.44847 0.96673 0.19276 0.0
H2059 H 0.4664 0.94153 0.22053 0.0
H2060 H 0.41798 0.05407 0.33036 0.0
H2061 H 0.44511 0.03395 0.3537 0.0
H2062 H 0.42333 0.07506 0.2832 0.0
H2063 H 0.42029 0.06838 0.23953 0.0
C2064 C 0.78213 0.80803 0.52372 0.0
C2065 C 0.76669 0.8216 0.55226 0.0
C2066 C 0.72444 0.83437 0.51416 0.0
C2067 C 0.74001 0.8212 0.48537 0.0
N2068 N 0.77948 0.78765 0.46563 0.0
N2069 N 0.71864 0.83618 0.57644 0.0
C2070 C 0.76769 0.80574 0.49098 0.0
C2071 C 0.73636 0.831 0.54809 0.0
N2072 N 0.81084 0.79728 0.52793 0.0
N2073 N 0.69909 0.85159 0.50926 0.0
H2074 H 0.72603 0.83155 0.60135 0.0
H2075 H 0.69556 0.84083 0.57503 0.0
H2076 H 0.68947 0.85553 0.48526 0.0
H2077 H 0.68918 0.86449 0.52878 0.0
H2078 H 0.82513 0.79148 0.5075 0.0
H2079 H 0.82049 0.79475 0.55215 0.0
H2080 H 0.79791 0.77333 0.4693 0.0
H2081 H 0.76909 0.78461 0.44179 0.0
C2082 C 0.46105 0.48907 0.81198 0.0
C2083 C 0.44415 0.51619 0.81576 0.0
C2084 C 0.45034 0.52541 0.7528 0.0
C2085 C 0.46532 0.49714 0.74922 0.0
N2086 N 0.49943 0.46322 0.77856 0.0
N2087 N 0.42884 0.56383 0.79024 0.0
C2088 C 0.47513 0.48229 0.77976 0.0
C2089 C 0.4404 0.53539 0.78624 0.0
N2090 N 0.46265 0.46881 0.83849 0.0
N2091 N 0.44676 0.54339 0.72447 0.0
H2092 H 0.42108 0.5724 0.81354 0.0
H2093 H 0.4285 0.58014 0.77096 0.0
H2094 H 0.46005 0.54086 0.70233 0.0
H2095 H 0.43141 0.56119 0.72303 0.0
H2096 H 0.47229 0.44746 0.83562 0.0
H2097 H 0.45158 0.47186 0.86206 0.0
H2098 H 0.50885 0.4535 0.80056 0.0
H2099 H 0.51297 0.46108 0.75654 0.0
C2100 C 0.76206 0.20989 0.04405 0.0
C2101 C 0.75231 0.18116 0.05582 0.0
C2102 C 0.7604 0.1607 0.99722 0.0
C2103 C 0.76782 0.18985 0.9848 0.0
N2104 N 0.77047 0.24323 0.99529 0.0
N2105 N 0.7579 0.12769 0.04678 0.0
C2106 C 0.76715 0.2147 1.008 0.0
C2107 C 0.75573 0.15608 0.03322 0.0
N2108 N 0.76987 0.23155 0.06728 0.0
N2109 N 0.75729 0.13726 0.97479 0.0
H2110 H 0.75881 0.12372 0.07329 0.0
H2111 H 0.76335 0.10869 0.03221 0.0
H2112 H 0.76036 0.13947 0.94837 0.0
H2113 H 0.7485 0.11642 0.98194 0.0
H2114 H 0.77914 0.2522 0.06032 0.0
H2115 H 0.7721 0.22714 0.09352 0.0
H2116 H 0.76689 0.26257 1.00998 0.0
H2117 H 0.77357 0.24761 0.96907 0.0
C2118 C 0.08511 0.51294 0.3032 0.0
C2119 C 0.06639 0.4875 0.30889 0.0
C2120 C 0.06164 0.48097 0.24576 0.0
C2121 C 0.08466 0.50261 0.24039 0.0
N2122 N 0.11728 0.54088 0.26372 0.0
N2123 N 0.02511 0.45915 0.28535 0.0
C2124 C 0.09589 0.51926 0.26906 0.0
C2125 C 0.05108 0.47504 0.28 0.0
N2126 N 0.09029 0.53259 0.32959 0.0
N2127 N 0.05106 0.46477 0.21841 0.0
H2128 H 0.01533 0.45708 0.30978 0.0
H2129 H 1.01126 0.45157 0.26556 0.0
H2130 H 0.05775 0.46885 0.19298 0.0
H2131 H 0.0372 0.44601 0.22109 0.0
H2132 H 0.10213 0.55265 0.32679 0.0
H2133 H 0.07892 0.53124 0.35315 0.0
H2134 H 0.12965 0.55073 0.28348 0.0
H2135 H 0.12361 0.54815 0.23919 0.0
C2136 C 0.25361 0.16311 0.53263 0.0
C2137 C 0.25798 0.18682 0.55671 0.0
C2138 C 0.25342 0.22259 0.50769 0.0
C2139 C 0.253 0.19803 0.48409 0.0
N2140 N 0.26708 0.1461 0.47578 0.0
N2141 N 0.25888 0.24093 0.56628 0.0
C2142 C 0.25765 0.16867 0.49702 0.0
C2143 C 0.25711 0.21718 0.54404 0.0
N2144 N 0.24382 0.13551 0.54333 0.0
N2145 N 0.24983 0.25118 0.49515 0.0
H2146 H 0.25352 0.23935 0.59237 0.0
H2147 H 0.26438 0.2627 0.55856 0.0
H2148 H 0.25057 0.25585 0.46875 0.0
H2149 H 0.24574 0.27002 0.51049 0.0
H2150 H 0.23886 0.11825 0.52601 0.0
H2151 H 0.23633 0.13159 0.56853 0.0
H2152 H 0.27181 0.1244 0.48472 0.0
H2153 H 0.27517 0.15072 0.45111 0.0
C2154 C 0.55912 0.55116 0.2872 0.0
C2155 C 0.5678 0.53608 0.31802 0.0
C2156 C 0.5885 0.49473 0.2822 0.0
C2157 C 0.58587 0.51334 0.25205 0.0
N2158 N 0.57112 0.56127 0.22745 0.0
N2159 N 0.58058 0.4885 0.34408 0.0
C2160 C 0.57157 0.54196 0.25494 0.0
C2161 C 0.57949 0.50627 0.31529 0.0
N2162 N 0.53719 0.57293 0.28831 0.0
N2163 N 0.5984 0.46559 0.27911 0.0
H2164 H 0.56727 0.4929 0.36581 0.0
H2165 H 0.5934 0.4689 0.3463 0.0
H2166 H 0.60554 0.45606 0.25605 0.0
H2167 H 0.59861 0.44989 0.29901 0.0
H2168 H 0.52829 0.583 0.26624 0.0
H2169 H 0.52468 0.57738 0.31063 0.0
H2170 H 0.56382 0.58358 0.22951 0.0
H2171 H 0.58084 0.55621 0.20358 0.0
C2172 C 0.28201 0.83288 1.01943 0.0
C2173 C 0.27017 0.81437 0.99264 0.0
C2174 C 0.23258 0.7951 0.03417 0.0
C2175 C 0.24161 0.81687 0.05897 0.0
N2176 N 0.26963 0.86228 0.07007 0.0
N2177 N 0.23073 0.78085 0.97385 0.0
C2178 C 0.26494 0.83733 0.05027 0.0
C2179 C 0.24426 0.79654 0.99975 0.0
N2180 N 0.30969 0.84607 1.01605 0.0
N2181 N 0.21377 0.77221 0.04383 0.0
H2182 H 0.23877 0.78085 0.94857 0.0
H2183 H 0.21003 0.77002 0.97687 0.0
H2184 H 0.20583 0.76958 0.06907 0.0
H2185 H 0.20876 0.75405 0.02786 0.0
H2186 H 0.32019 0.85732 0.03629 0.0
H2187 H 0.32365 0.8431 0.99468 0.0
H2188 H 0.28451 0.87939 0.06301 0.0
H2189 H 0.25599 0.86769 0.09115 0.0
C2190 C 0.96764 0.52394 0.77307 0.0
C2191 C 0.95037 0.51006 0.74694 0.0
C2192 C 0.92652 0.47851 0.79123 0.0
C2193 C 0.93761 0.49836 0.81713 0.0
N2194 N 0.97006 0.53962 0.83281 0.0
N2195 N 0.92048 0.46797 0.72986 0.0
C2196 C 0.95903 0.52065 0.80822 0.0
C2197 C 0.93215 0.48513 0.75565 0.0
N2198 N 0.99324 0.53895 0.76403 0.0
N2199 N 0.9113 0.45312 0.80088 0.0
H2200 H 0.92873 0.46965 0.70468 0.0
H2201 H 0.90385 0.45175 0.73336 0.0
H2202 H 0.90822 0.44718 0.82668 0.0
H2203 H 0.9038 0.43678 0.78377 0.0
H2204 H 1.00804 0.54833 0.78184 0.0
H2205 H 1.00182 0.53736 0.73903 0.0
H2206 H 0.98316 0.5584 0.8269 0.0
H2207 H 0.9645 0.53776 0.85892 0.0
C2208 C 0.19394 0.40547 0.12749 0.0
C2209 C 0.22149 0.41411 0.14317 0.0
C2210 C 0.20493 0.46682 0.14281 0.0
C2211 C 0.17853 0.4587 0.12453 0.0
N2212 N 0.14959 0.42118 0.09499 0.0
N2213 N 0.25626 0.45329 0.15816 0.0
C2214 C 0.17352 0.4282 0.11551 0.0
C2215 C 0.22789 0.44495 0.1484 0.0
N2216 N 0.18678 0.37566 0.12544 0.0
N2217 N 0.20736 0.4951 0.15638 0.0
H2218 H 0.27377 0.43768 0.16135 0.0
H2219 H 0.26316 0.47567 0.15947 0.0
H2220 H 0.19018 0.51119 0.15446 0.0
H2221 H 0.22486 0.50147 0.17267 0.0
H2222 H 0.16577 0.3679 0.11745 0.0
H2223 H 0.20126 0.35867 0.13411 0.0
H2224 H 0.14615 0.39981 0.0847 0.0
H2225 H 0.13436 0.43748 0.0862 0.0
C2226 C 0.86287 0.9418 0.41177 0.0
C2227 C 0.85212 0.97138 0.41855 0.0
C2228 C 0.80073 0.95612 0.40266 0.0
C2229 C 0.81187 0.92719 0.39362 0.0
N2230 N 0.85341 0.89288 0.38573 0.0
N2231 N 0.81228 1.00827 0.41622 0.0
C2232 C 0.84297 0.92012 0.39718 0.0
C2233 C 0.82136 0.97894 0.4129 0.0
N2234 N 0.89189 0.93436 0.42034 0.0
N2235 N 0.77029 0.96143 0.4019 0.0
H2236 H 0.82714 0.02539 0.42315 0.0
H2237 H 0.79087 0.01609 0.40953 0.0
H2238 H 0.75484 0.94504 0.39435 0.0
H2239 H 0.76012 0.98106 0.41113 0.0
H2240 H 0.90056 0.91254 0.41919 0.0
H2241 H 0.90684 0.94991 0.43088 0.0
H2242 H 0.87624 0.88715 0.38421 0.0
H2243 H 0.83905 0.8765 0.37575 0.0
C2244 C 0.34171 0.60963 0.67692 0.0
C2245 C 0.31075 0.60344 0.67106 0.0
C2246 C 0.3242 0.55254 0.65133 0.0
C2247 C 0.35531 0.55961 0.65395 0.0
N2248 N 0.39416 0.59584 0.66544 0.0
N2249 N 0.27265 0.57119 0.64741 0.0
C2250 C 0.36424 0.58843 0.66593 0.0
C2251 C 0.30205 0.57543 0.65678 0.0
N2252 N 0.34935 0.63552 0.69366 0.0
N2253 N 0.31595 0.52354 0.64454 0.0
H2254 H 0.25609 0.58784 0.65041 0.0
H2255 H 0.26526 0.5524 0.63384 0.0
H2256 H 0.3318 0.50622 0.64147 0.0
H2257 H 0.29366 0.51612 0.64531 0.0
H2258 H 0.37119 0.64024 0.7019 0.0
H2259 H 0.33321 0.65145 0.70132 0.0
H2260 H 0.40212 0.6174 0.67061 0.0
H2261 H 0.41099 0.58075 0.65757 0.0
C2262 C 0.70565 0.04029 0.90193 0.0
C2263 C 0.67512 0.05023 0.90427 0.0
C2264 C 0.69008 0.09821 0.87738 0.0
C2265 C 0.72102 0.08961 0.87931 0.0
N2266 N 0.75821 0.0551 0.90201 0.0
N2267 N 0.63933 0.09112 0.9001 0.0
C2268 C 0.72882 0.06135 0.89402 0.0
C2269 C 0.66759 0.07993 0.89357 0.0
N2270 N 0.71246 0.01044 0.90569 0.0
N2271 N 0.68208 0.12324 0.85904 0.0
H2272 H 0.62285 0.07877 0.91316 0.0
H2273 H 0.63332 0.11353 0.89572 0.0
H2274 H 0.69788 0.13635 0.84583 0.0
H2275 H 0.65968 0.12916 0.85408 0.0
H2276 H 0.73405 1.00166 0.90126 0.0
H2277 H 0.69593 0.99403 0.90919 0.0
H2278 H 0.76471 0.03587 0.91562 0.0
H2279 H 0.77554 0.07068 0.89864 0.0
C2280 C 0.20981 0.53212 0.40884 0.0
C2281 C 0.17906 0.54017 0.40413 0.0
C2282 C 0.19504 0.5868 0.37523 0.0
C2283 C 0.2255 0.58053 0.38419 0.0
N2284 N 0.26131 0.54963 0.41483 0.0
N2285 N 0.14198 0.57705 0.38689 0.0
C2286 C 0.23276 0.55374 0.40236 0.0
C2287 C 0.1715 0.56799 0.3882 0.0
N2288 N 0.21703 0.50344 0.4187 0.0
N2289 N 0.18876 0.6102 0.35347 0.0
H2290 H 0.12433 0.56404 0.39667 0.0
H2291 H 0.13525 0.59841 0.37872 0.0
H2292 H 0.20562 0.62388 0.34304 0.0
H2293 H 0.16737 0.61426 0.3433 0.0
H2294 H 0.23917 0.49533 0.41966 0.0
H2295 H 0.20066 0.48688 0.42237 0.0
H2296 H 0.26725 0.53189 0.4311 0.0
H2297 H 0.27831 0.56562 0.41173 0.0
C2298 C 0.70299 0.97383 0.63556 0.0
C2299 C 0.67204 0.96575 0.63707 0.0
C2300 C 0.686 0.91689 0.6628 0.0
C2301 C 0.71703 0.92412 0.65894 0.0
N2302 N 0.75565 0.95772 0.63887 0.0
N2303 N 0.63368 0.92909 0.64889 0.0
C2304 C 0.72568 0.95223 0.64463 0.0
C2305 C 0.66343 0.93713 0.65 0.0
N2306 N 0.71044 1.00248 0.62597 0.0
N2307 N 0.6783 0.89086 0.67941 0.0
H2308 H 0.61682 0.94374 0.64019 0.0
H2309 H 0.62586 0.90759 0.65466 0.0
H2310 H 0.69448 0.87559 0.68841 0.0
H2311 H 0.65624 0.88525 0.6862 0.0
H2312 H 0.73226 0.01107 0.627 0.0
H2313 H 0.69413 0.01851 0.61926 0.0
H2314 H 0.76374 0.97649 0.62569 0.0
H2315 H 0.77255 0.94225 0.64536 0.0
C2316 C 0.31765 0.47709 0.90718 0.0
C2317 C 0.34699 0.46916 0.91885 0.0
C2318 C 0.33597 0.41576 0.90718 0.0
C2319 C 0.30594 0.42361 0.89791 0.0
N2320 N 0.26633 0.46078 0.89581 0.0
N2321 N 0.38252 0.43073 0.9355 0.0
C2322 C 0.29626 0.45406 0.89995 0.0
C2323 C 0.35574 0.43836 0.92038 0.0
N2324 N 0.31069 0.50671 0.90161 0.0
N2325 N 0.34584 0.38689 0.90216 0.0
H2326 H 0.39713 0.44678 0.94567 0.0
H2327 H 0.38908 0.40859 0.94047 0.0
H2328 H 0.33181 0.37003 0.89267 0.0
H2329 H 0.3683 0.38021 0.905 0.0
H2330 H 0.29073 0.5139 0.88999 0.0
H2331 H 0.32619 0.52397 0.90559 0.0
H2332 H 0.25717 0.48212 0.90013 0.0
H2333 H 0.25015 0.44423 0.89133 0.0
C2334 C 0.83981 0.08102 0.1402 0.0
C2335 C 0.83458 0.05016 0.14766 0.0
C2336 C 0.78366 0.06335 0.1686 0.0
C2337 C 0.79018 0.09447 0.16515 0.0
N2338 N 0.8275 0.13284 0.15464 0.0
N2339 N 0.80427 0.01338 0.17763 0.0
C2340 C 0.81914 0.10334 0.15281 0.0
C2341 C 0.80724 0.04171 0.16433 0.0
N2342 N 0.8639 0.08896 0.12007 0.0
N2343 N 0.75465 0.0543 0.17461 0.0
H2344 H 0.82181 0.99758 0.17712 0.0
H2345 H 0.78579 1.00687 0.19265 0.0
H2346 H 0.73653 0.06942 0.17595 0.0
H2347 H 0.7482 0.03175 0.17433 0.0
H2348 H 0.86729 0.11085 0.11114 0.0
H2349 H 0.87875 0.07311 0.10946 0.0
H2350 H 0.84929 0.14019 0.14886 0.0
H2351 H 0.81363 0.14943 0.16548 0.0
C2352 C 0.85271 0.58448 0.91927 0.0
C2353 C 0.84549 0.55342 0.91711 0.0
C2354 C 0.79642 0.56699 0.89172 0.0
C2355 C 0.80492 0.59774 0.89015 0.0
N2356 N 0.84419 0.63474 0.89627 0.0
N2357 N 0.81397 0.51529 0.89182 0.0
C2358 C 0.83396 0.60625 0.90228 0.0
C2359 C 0.81833 0.54472 0.90057 0.0
N2360 N 0.87688 0.59328 0.93846 0.0
N2361 N 0.76705 0.55907 0.88634 0.0
H2362 H 0.83043 0.49871 0.89557 0.0
H2363 H 0.79568 0.50816 0.87711 0.0
H2364 H 0.74996 0.57492 0.88217 0.0
H2365 H 0.75915 0.53721 0.89011 0.0
H2366 H 0.88162 0.61577 0.94376 0.0
H2367 H 0.89054 0.57795 0.95166 0.0
H2368 H 0.86619 0.64149 0.90172 0.0
H2369 H 0.83167 0.65069 0.88259 0.0
C2370 C 0.20365 0.04893 0.65511 0.0
C2371 C 0.17347 0.05793 0.64825 0.0
C2372 C 0.18638 0.10957 0.66557 0.0
C2373 C 0.21734 0.10113 0.66778 0.0
N2374 N 0.25597 0.06414 0.65503 0.0
N2375 N 0.13712 0.09805 0.6416 0.0
C2376 C 0.22614 0.07115 0.65983 0.0
C2377 C 0.16503 0.08865 0.65208 0.0
N2378 N 0.21066 0.01908 0.65841 0.0
N2379 N 0.17726 0.13712 0.67741 0.0
H2380 H 0.12142 0.08342 0.63079 0.0
H2381 H 0.13067 0.12065 0.64074 0.0
H2382 H 0.19223 0.15241 0.68836 0.0
H2383 H 0.15461 0.14353 0.67935 0.0
H2384 H 0.23189 0.01146 0.66625 0.0
H2385 H 0.19433 1.00223 0.6574 0.0
H2386 H 0.26329 0.04309 0.64632 0.0
H2387 H 0.27299 0.08029 0.65561 0.0
C2388 C 0.66561 0.44329 0.40707 0.0
C2389 C 0.67593 0.47326 0.41112 0.0
C2390 C 0.72712 0.45752 0.39362 0.0
C2391 C 0.71637 0.42802 0.3874 0.0
N2392 N 0.6753 0.39306 0.3842 0.0
N2393 N 0.71488 0.51023 0.40416 0.0
C2394 C 0.68553 0.42095 0.3931 0.0
C2395 C 0.70632 0.48072 0.40327 0.0
N2396 N 0.63701 0.43615 0.41765 0.0
N2397 N 0.75742 0.46298 0.39106 0.0
H2398 H 0.6999 0.52755 0.41084 0.0
H2399 H 0.73589 0.51785 0.39578 0.0
H2400 H 0.773 0.44626 0.38419 0.0
H2401 H 0.7674 0.4832 0.39821 0.0
H2402 H 0.62878 0.41424 0.41865 0.0
H2403 H 0.62201 0.45219 0.42764 0.0
H2404 H 0.65257 0.3871 0.38436 0.0
H2405 H 0.68963 0.37629 0.37449 0.0
C2406 C 0.35544 0.92696 0.14748 0.0
C2407 C 0.34613 0.9558 0.13551 0.0
C2408 C 0.29306 0.94122 0.14385 0.0
C2409 C 0.30238 0.91389 0.15958 0.0
N2410 N 0.34241 0.88197 0.18021 0.0
N2411 N 0.30629 0.9925 0.12888 0.0
C2412 C 0.33363 0.90704 0.16237 0.0
C2413 C 0.31494 0.96348 0.13543 0.0
N2414 N 0.3849 0.91826 0.14346 0.0
N2415 N 0.26327 0.94547 0.13601 0.0
H2416 H 0.32181 1.00967 0.12425 0.0
H2417 H 0.28409 1.00014 0.13163 0.0
H2418 H 0.24692 0.92909 0.14077 0.0
H2419 H 0.25539 0.96371 0.12163 0.0
H2420 H 0.39269 0.89656 0.14872 0.0
H2421 H 0.40108 0.9321 0.13197 0.0
H2422 H 0.36484 0.87716 0.18627 0.0
H2423 H 0.32689 0.86712 0.19121 0.0
C2424 C 0.83177 0.42405 0.66557 0.0
C2425 C 0.8008 0.43232 0.6635 0.0
C2426 C 0.81568 0.48292 0.64415 0.0
C2427 C 0.84634 0.47346 0.64213 0.0
N2428 N 0.88295 0.43321 0.6454 0.0
N2429 N 0.763 0.46793 0.64495 0.0
C2430 C 0.85426 0.4435 0.65146 0.0
C2431 C 0.79267 0.46136 0.65123 0.0
N2432 N 0.83974 0.39803 0.68208 0.0
N2433 N 0.8087 0.51275 0.64057 0.0
H2434 H 0.74576 0.45232 0.64877 0.0
H2435 H 0.7559 0.4877 0.63286 0.0
H2436 H 0.82518 0.52917 0.63674 0.0
H2437 H 0.7871 0.5215 0.64492 0.0
H2438 H 0.86207 0.39212 0.6874 0.0
H2439 H 0.82383 0.38382 0.69349 0.0
H2440 H 0.88937 0.41076 0.64858 0.0
H2441 H 0.89962 0.44649 0.63398 0.0
C2442 C 0.32832 0.0924 0.41328 0.0
C2443 C 0.30515 0.08541 0.38947 0.0
C2444 C 0.32292 0.03297 0.38686 0.0
C2445 C 0.34524 0.03968 0.41174 0.0
N2446 N 0.3671 0.07386 0.45237 0.0
N2447 N 0.27748 0.04916 0.35669 0.0
C2448 C 0.34725 0.06889 0.42613 0.0
C2449 C 0.30159 0.05561 0.37723 0.0
N2450 N 0.33301 0.12175 0.42224 0.0
N2451 N 0.32286 1.00514 0.37183 0.0
H2452 H 0.26172 0.06557 0.34944 0.0
H2453 H 0.2718 0.02751 0.34888 0.0
H2454 H 0.33817 0.98821 0.37869 0.0
H2455 H 0.3091 0.99932 0.35121 0.0
H2456 H 0.35127 0.12898 0.43684 0.0
H2457 H 0.31956 0.13935 0.41306 0.0
H2458 H 0.36786 0.09377 0.46651 0.0
H2459 H 0.38162 0.05708 0.46154 0.0
C2460 C 0.73202 0.57169 0.15454 0.0
C2461 C 0.72276 0.60134 0.16332 0.0
C2462 C 0.67039 0.5884 0.14812 0.0
C2463 C 0.67923 0.5579 0.14305 0.0
N2464 N 0.71752 0.51942 0.14789 0.0
N2465 N 0.68271 0.63722 0.17272 0.0
C2466 C 0.70986 0.54927 0.14795 0.0
C2467 C 0.69178 0.60955 0.16117 0.0
N2468 N 0.76215 0.56524 0.15151 0.0
N2469 N 0.64186 0.59729 0.13931 0.0
H2470 H 0.6979 0.65299 0.18236 0.0
H2471 H 0.66011 0.64363 0.17519 0.0
H2472 H 0.62605 0.58242 0.12914 0.0
H2473 H 0.63473 0.61969 0.13928 0.0
H2474 H 0.77044 0.54483 0.14201 0.0
H2475 H 0.77882 0.58146 0.1552 0.0
H2476 H 0.73891 0.51147 0.15456 0.0
H2477 H 0.70163 0.5024 0.14457 0.0
C2478 C 0.16486 0.93932 0.90143 0.0
C2479 C 0.17248 0.96605 0.91939 0.0
C2480 C 0.22613 0.9507 0.91805 0.0
C2481 C 0.2188 0.92523 0.89763 0.0
N2482 N 0.18191 0.89761 0.8654 0.0
N2483 N 0.21032 0.99925 0.94143 0.0
C2484 C 0.18829 0.92016 0.88812 0.0
C2485 C 0.20319 0.97232 0.92663 0.0
N2486 N 0.13513 0.93177 0.89825 0.0
N2487 N 0.25485 0.95345 0.93038 0.0
H2488 H 0.19386 0.0152 0.9481 0.0
H2489 H 0.23238 1.00677 0.94462 0.0
H2490 H 0.27175 0.93754 0.92527 0.0
H2491 H 0.2613 0.96988 0.94798 0.0
H2492 H 0.12786 0.91119 0.88856 0.0
H2493 H 0.11768 0.94547 0.90765 0.0
H2494 H 0.16065 0.89449 0.85461 0.0
H2495 H 0.1986 0.88342 0.85524 0.0
loop_
_geom_bond_atom_site_label_1
_geom_bond_atom_site_label_2
_geom_bond_distance
_geom_bond_site_symmetry_2
_ccdc_geom_bond_type
C0 C1 1.351 . S
C0 N3 1.368 . S
C0 H5 0.931 . S
C1 C0 1.351 . S
C1 N2 1.373 . S
C1 H29 0.930 . S
N2 C1 1.373 . S
N2 C4 1.340 . S
N3 C0 1.368 . S
N3 C4 1.321 . S
N3 Co6 2.135 . S
C4 N2 1.340 . S
C4 N3 1.321 . S
C4 H28 0.930 . S
H5 C0 0.931 . S
Co6 N3 2.135 . S
Co6 N9 2.121 . S
Co6 O14 2.055 . S
Co6 O17 2.039 . S
Co6 N20 2.140 . S
C7 O8 1.227 . S
C7 O17 1.265 . S
O8 C7 1.227 . S
N9 Co6 2.121 . S
N9 C11 1.375 . S
N9 C12 1.313 . S
C10 C11 1.338 . S
C10 N13 1.377 . S
C10 H30 0.930 . S
C11 N9 1.375 . S
C11 C10 1.338 . S
C11 H15 0.931 . S
C12 N9 1.313 . S
C12 N13 1.344 . S
C12 H16 0.930 . S
N13 C10 1.377 . S
N13 C12 1.344 . S
O14 Co6 2.055 . S
O14 C18 1.253 . S
H15 C11 0.931 . S
H16 C12 0.930 . S
O17 Co6 2.039 . S
O17 C7 1.265 . S
C18 O14 1.253 . S
C18 O19 1.227 . S
O19 C18 1.227 . S
N20 Co6 2.140 . S
N20 C23 1.346 . S
N20 C24 1.345 . S
C21 C22 1.387 . S
C21 C25 1.391 . S
C22 C21 1.387 . S
C22 C23 1.369 . S
C22 H31 0.929 . S
C23 N20 1.346 . S
C23 C22 1.369 . S
C23 H26 0.928 . S
C24 N20 1.345 . S
C24 C25 1.371 . S
C24 H27 0.931 . S
C25 C21 1.391 . S
C25 C24 1.371 . S
C25 H32 0.930 . S
H26 C23 0.928 . S
H27 C24 0.931 . S
H28 C4 0.930 . S
H29 C1 0.930 . S
H30 C10 0.930 . S
H31 C22 0.929 . S
H32 C25 0.930 . S
C33 C34 1.351 . S
C33 N36 1.368 . S
C33 H38 0.931 1_565 S
C34 C33 1.351 . S
C34 N35 1.373 . S
C34 H62 0.930 . S
N35 C34 1.373 . S
N35 C37 1.340 . S
N36 C33 1.368 . S
N36 C37 1.321 . S
N36 Co39 2.135 1_565 S
C37 N35 1.340 . S
C37 N36 1.321 . S
C37 H61 0.930 . S
H38 C33 0.931 1_545 S
Co39 N36 2.135 1_545 S
Co39 N42 2.121 . S
Co39 O47 2.055 . S
Co39 O50 2.039 . S
Co39 N53 2.140 . S
C40 O41 1.227 . S
C40 O50 1.265 . S
O41 C40 1.227 . S
N42 Co39 2.121 . S
N42 C44 1.375 . S
N42 C45 1.313 1_655 S
C43 C44 1.338 1_455 S
C43 N46 1.377 . S
C43 H63 0.930 . S
C44 N42 1.375 . S
C44 C43 1.338 1_655 S
C44 H48 0.931 . S
C45 N42 1.313 1_455 S
C45 N46 1.344 . S
C45 H49 0.930 . S
N46 C43 1.377 . S
N46 C45 1.344 . S
O47 Co39 2.055 . S
O47 C51 1.253 . S
H48 C44 0.931 . S
H49 C45 0.930 . S
O50 Co39 2.039 . S
O50 C40 1.265 . S
C51 O47 1.253 . S
C51 O52 1.227 . S
O52 C51 1.227 . S
N53 Co39 2.140 . S
N53 C56 1.346 . S
N53 C57 1.345 . S
C54 C55 1.387 . S
C54 C58 1.391 . S
C55 C54 1.387 . S
C55 C56 1.369 . S
C55 H64 0.929 . S
C56 N53 1.346 . S
C56 C55 1.369 . S
C56 H59 0.928 . S
C57 N53 1.345 . S
C57 C58 1.371 . S
C57 H60 0.931 . S
C58 C54 1.391 . S
C58 C57 1.371 . S
C58 H65 0.930 . S
H59 C56 0.928 . S
H60 C57 0.931 . S
H61 C37 0.930 . S
H62 C34 0.930 . S
H63 C43 0.930 . S
H64 C55 0.929 . S
H65 C58 0.930 . S
C66 C67 1.351 . S
C66 N69 1.368 . S
C66 H71 0.931 . S
C67 C66 1.351 . S
C67 N68 1.373 . S
C67 H95 0.930 . S
N68 C67 1.373 . S
N68 C70 1.340 . S
N69 C66 1.368 . S
N69 C70 1.321 . S
N69 Co72 2.135 . S
C70 N68 1.340 . S
C70 N69 1.321 . S
C70 H94 0.930 . S
H71 C66 0.931 . S
Co72 N69 2.135 . S
Co72 N75 2.121 . S
Co72 O80 2.055 . S
Co72 O83 2.039 . S
Co72 N86 2.140 . S
C73 O74 1.227 . S
C73 O83 1.265 . S
O74 C73 1.227 . S
N75 Co72 2.121 . S
N75 C77 1.375 . S
N75 C78 1.313 . S
C76 C77 1.338 . S
C76 N79 1.377 . S
C76 H96 0.930 . S
C77 N75 1.375 . S
C77 C76 1.338 . S
C77 H81 0.931 . S
C78 N75 1.313 . S
C78 N79 1.344 . S
C78 H82 0.930 . S
N79 C76 1.377 . S
N79 C78 1.344 . S
O80 Co72 2.055 . S
O80 C84 1.253 . S
H81 C77 0.931 . S
H82 C78 0.930 . S
O83 Co72 2.039 . S
O83 C73 1.265 . S
C84 O80 1.253 . S
C84 O85 1.227 . S
O85 C84 1.227 . S
N86 Co72 2.140 . S
N86 C89 1.346 . S
N86 C90 1.345 . S
C87 C88 1.387 . S
C87 C91 1.391 . S
C88 C87 1.387 . S
C88 C89 1.369 . S
C88 H97 0.929 . S
C89 N86 1.346 . S
C89 C88 1.369 . S
C89 H92 0.928 . S
C90 N86 1.345 . S
C90 C91 1.371 . S
C90 H93 0.931 . S
C91 C87 1.391 . S
C91 C90 1.371 . S
C91 H98 0.930 . S
H92 C89 0.928 . S
H93 C90 0.931 . S
H94 C70 0.930 . S
H95 C67 0.930 . S
H96 C76 0.930 . S
H97 C88 0.929 . S
H98 C91 0.930 . S
C99 C100 1.351 . S
C99 N102 1.368 . S
C99 H104 0.931 1_545 S
C100 C99 1.351 . S
C100 N101 1.373 . S
C100 H128 0.930 . S
N101 C100 1.373 . S
N101 C103 1.340 . S
N102 C99 1.368 . S
N102 C103 1.321 . S
N102 Co105 2.135 1_545 S
C103 N101 1.340 . S
C103 N102 1.321 . S
C103 H127 0.930 . S
H104 C99 0.931 1_565 S
Co105 N102 2.135 1_565 S
Co105 N108 2.121 . S
Co105 O113 2.055 . S
Co105 O116 2.039 . S
Co105 N119 2.140 . S
C106 O107 1.227 . S
C106 O116 1.265 . S
O107 C106 1.227 . S
N108 Co105 2.121 . S
N108 C110 1.375 . S
N108 C111 1.313 . S
C109 C110 1.338 . S
C109 N112 1.377 . S
C109 H129 0.930 . S
C110 N108 1.375 . S
C110 C109 1.338 . S
C110 H114 0.931 . S
C111 N108 1.313 . S
C111 N112 1.344 . S
C111 H115 0.930 . S
N112 C109 1.377 . S
N112 C111 1.344 . S
O113 Co105 2.055 . S
O113 C117 1.253 . S
H114 C110 0.931 . S
H115 C111 0.930 . S
O116 Co105 2.039 . S
O116 C106 1.265 . S
C117 O113 1.253 . S
C117 O118 1.227 . S
O118 C117 1.227 . S
N119 Co105 2.140 . S
N119 C122 1.346 . S
N119 C123 1.345 . S
C120 C121 1.387 . S
C120 C124 1.391 . S
C121 C120 1.387 . S
C121 C122 1.369 . S
C121 H130 0.929 . S
C122 N119 1.346 . S
C122 C121 1.369 . S
C122 H125 0.928 . S
C123 N119 1.345 . S
C123 C124 1.371 . S
C123 H126 0.931 . S
C124 C120 1.391 . S
C124 C123 1.371 . S
C124 H131 0.930 . S
H125 C122 0.928 . S
H126 C123 0.931 . S
H127 C103 0.930 . S
H128 C100 0.930 . S
H129 C109 0.930 . S
H130 C121 0.929 . S
H131 C124 0.930 . S
C132 C133 1.351 . S
C132 N135 1.368 . S
C132 H137 0.931 . S
C133 C132 1.351 . S
C133 N134 1.373 . S
C133 H161 0.930 . S
N134 C133 1.373 . S
N134 C136 1.340 . S
N135 C132 1.368 . S
N135 C136 1.321 . S
N135 Co138 2.135 . S
C136 N134 1.340 . S
C136 N135 1.321 . S
C136 H160 0.930 . S
H137 C132 0.931 . S
Co138 N135 2.135 . S
Co138 N141 2.121 . S
Co138 O146 2.055 . S
Co138 O149 2.039 . S
Co138 N152 2.140 . S
C139 O140 1.227 . S
C139 O149 1.265 . S
O140 C139 1.227 . S
N141 Co138 2.121 . S
N141 C143 1.375 . S
N141 C144 1.313 . S
C142 C143 1.338 . S
C142 N145 1.377 . S
C142 H162 0.930 . S
C143 N141 1.375 . S
C143 C142 1.338 . S
C143 H147 0.931 . S
C144 N141 1.313 . S
C144 N145 1.344 . S
C144 H148 0.930 . S
N145 C142 1.377 . S
N145 C144 1.344 . S
O146 Co138 2.055 . S
O146 C150 1.253 . S
H147 C143 0.931 . S
H148 C144 0.930 . S
O149 Co138 2.039 . S
O149 C139 1.265 . S
C150 O146 1.253 . S
C150 O151 1.227 . S
O151 C150 1.227 . S
N152 Co138 2.140 . S
N152 C155 1.346 . S
N152 C156 1.345 . S
C153 C154 1.387 . S
C153 C157 1.391 . S
C154 C153 1.387 . S
C154 C155 1.369 . S
C154 H163 0.929 . S
C155 N152 1.346 . S
C155 C154 1.369 . S
C155 H158 0.928 . S
C156 N152 1.345 . S
C156 C157 1.371 . S
C156 H159 0.931 . S
C157 C153 1.391 . S
C157 C156 1.371 . S
C157 H164 0.930 . S
H158 C155 0.928 . S
H159 C156 0.931 . S
H160 C136 0.930 . S
H161 C133 0.930 . S
H162 C142 0.930 . S
H163 C154 0.929 . S
H164 C157 0.930 . S
C165 C166 1.351 . S
C165 N168 1.368 . S
C165 H170 0.931 1_565 S
C166 C165 1.351 . S
C166 N167 1.373 . S
C166 H194 0.930 . S
N167 C166 1.373 . S
N167 C169 1.340 . S
N168 C165 1.368 . S
N168 C169 1.321 . S
N168 Co171 2.135 1_565 S
C169 N167 1.340 . S
C169 N168 1.321 . S
C169 H193 0.930 . S
H170 C165 0.931 1_545 S
Co171 N168 2.135 1_545 S
Co171 N174 2.121 . S
Co171 O179 2.055 . S
Co171 O182 2.039 . S
Co171 N185 2.140 . S
C172 O173 1.227 . S
C172 O182 1.265 . S
O173 C172 1.227 . S
N174 Co171 2.121 . S
N174 C176 1.375 . S
N174 C177 1.313 . S
C175 C176 1.338 . S
C175 N178 1.377 . S
C175 H195 0.930 . S
C176 N174 1.375 . S
C176 C175 1.338 . S
C176 H180 0.931 . S
C177 N174 1.313 . S
C177 N178 1.344 . S
C177 H181 0.930 . S
N178 C175 1.377 . S
N178 C177 1.344 . S
O179 Co171 2.055 . S
O179 C183 1.253 . S
H180 C176 0.931 . S
H181 C177 0.930 . S
O182 Co171 2.039 . S
O182 C172 1.265 . S
C183 O179 1.253 . S
C183 O184 1.227 . S
O184 C183 1.227 . S
N185 Co171 2.140 . S
N185 C188 1.346 . S
N185 C189 1.345 . S
C186 C187 1.387 . S
C186 C190 1.391 . S
C187 C186 1.387 . S
C187 C188 1.369 . S
C187 H196 0.929 . S
C188 N185 1.346 . S
C188 C187 1.369 . S
C188 H191 0.928 . S
C189 N185 1.345 . S
C189 C190 1.371 . S
C189 H192 0.931 . S
C190 C186 1.391 . S
C190 C189 1.371 . S
C190 H197 0.930 . S
H191 C188 0.928 . S
H192 C189 0.931 . S
H193 C169 0.930 . S
H194 C166 0.930 . S
H195 C175 0.930 . S
H196 C187 0.929 . S
H197 C190 0.930 . S
C198 C199 1.351 . S
C198 N201 1.368 . S
C198 H203 0.931 . S
C199 C198 1.351 . S
C199 N200 1.373 . S
C199 H227 0.930 . S
N200 C199 1.373 . S
N200 C202 1.340 . S
N201 C198 1.368 . S
N201 C202 1.321 . S
N201 Co204 2.135 . S
C202 N200 1.340 . S
C202 N201 1.321 . S
C202 H226 0.930 . S
H203 C198 0.931 . S
Co204 N201 2.135 . S
Co204 N207 2.121 . S
Co204 O212 2.055 . S
Co204 O215 2.039 . S
Co204 N218 2.140 . S
C205 O206 1.227 . S
C205 O215 1.265 . S
O206 C205 1.227 . S
N207 Co204 2.121 . S
N207 C209 1.375 . S
N207 C210 1.313 . S
C208 C209 1.338 . S
C208 N211 1.377 . S
C208 H228 0.930 . S
C209 N207 1.375 . S
C209 C208 1.338 . S
C209 H213 0.931 . S
C210 N207 1.313 . S
C210 N211 1.344 . S
C210 H214 0.930 . S
N211 C208 1.377 . S
N211 C210 1.344 . S
O212 Co204 2.055 . S
O212 C216 1.253 . S
H213 C209 0.931 . S
H214 C210 0.930 . S
O215 Co204 2.039 . S
O215 C205 1.265 . S
C216 O212 1.253 . S
C216 O217 1.227 . S
O217 C216 1.227 . S
N218 Co204 2.140 . S
N218 C221 1.346 . S
N218 C222 1.345 . S
C219 C220 1.387 . S
C219 C223 1.391 . S
C220 C219 1.387 . S
C220 C221 1.369 . S
C220 H229 0.929 . S
C221 N218 1.346 . S
C221 C220 1.369 . S
C221 H224 0.928 . S
C222 N218 1.345 . S
C222 C223 1.371 . S
C222 H225 0.931 . S
C223 C219 1.391 . S
C223 C222 1.371 . S
C223 H230 0.930 . S
H224 C221 0.928 . S
H225 C222 0.931 . S
H226 C202 0.930 . S
H227 C199 0.930 . S
H228 C208 0.930 . S
H229 C220 0.929 . S
H230 C223 0.930 . S
C231 C232 1.351 . S
C231 N234 1.368 . S
C231 H236 0.931 1_545 S
C232 C231 1.351 . S
C232 N233 1.373 . S
C232 H260 0.930 . S
N233 C232 1.373 . S
N233 C235 1.340 . S
N234 C231 1.368 . S
N234 C235 1.321 . S
N234 Co237 2.135 1_545 S
C235 N233 1.340 . S
C235 N234 1.321 . S
C235 H259 0.930 . S
H236 C231 0.931 1_565 S
Co237 N234 2.135 1_565 S
Co237 N240 2.121 . S
Co237 O245 2.055 . S
Co237 O248 2.039 . S
Co237 N251 2.140 . S
C238 O239 1.227 . S
C238 O248 1.265 . S
O239 C238 1.227 . S
N240 Co237 2.121 . S
N240 C242 1.375 . S
N240 C243 1.313 1_655 S
C241 C242 1.338 1_455 S
C241 N244 1.377 . S
C241 H261 0.930 . S
C242 N240 1.375 . S
C242 C241 1.338 1_655 S
C242 H246 0.931 . S
C243 N240 1.313 1_455 S
C243 N244 1.344 . S
C243 H247 0.930 . S
N244 C241 1.377 . S
N244 C243 1.344 . S
O245 Co237 2.055 . S
O245 C249 1.253 . S
H246 C242 0.931 . S
H247 C243 0.930 . S
O248 Co237 2.039 . S
O248 C238 1.265 . S
C249 O245 1.253 . S
C249 O250 1.227 . S
O250 C249 1.227 . S
N251 Co237 2.140 . S
N251 C254 1.346 . S
N251 C255 1.345 . S
C252 C253 1.387 . S
C252 C256 1.391 . S
C253 C252 1.387 . S
C253 C254 1.369 . S
C253 H262 0.929 . S
C254 N251 1.346 . S
C254 C253 1.369 . S
C254 H257 0.928 . S
C255 N251 1.345 . S
C255 C256 1.371 . S
C255 H258 0.931 . S
C256 C252 1.391 . S
C256 C255 1.371 . S
C256 H263 0.930 . S
H257 C254 0.928 . S
H258 C255 0.931 . S
H259 C235 0.930 . S
H260 C232 0.930 . S
H261 C241 0.930 . S
H262 C253 0.929 . S
H263 C256 0.930 . S
C264 C265 1.351 . S
C264 N267 1.368 . S
C264 H269 0.931 . S
C265 C264 1.351 . S
C265 N266 1.373 . S
C265 H293 0.930 . S
N266 C265 1.373 . S
N266 C268 1.340 . S
N267 C264 1.368 . S
N267 C268 1.321 . S
N267 Co270 2.135 . S
C268 N266 1.340 . S
C268 N267 1.321 . S
C268 H292 0.930 . S
H269 C264 0.931 . S
Co270 N267 2.135 . S
Co270 N273 2.121 . S
Co270 O278 2.055 . S
Co270 O281 2.039 . S
Co270 N284 2.140 . S
C271 O272 1.227 . S
C271 O281 1.265 . S
O272 C271 1.227 . S
N273 Co270 2.121 . S
N273 C275 1.375 . S
N273 C276 1.313 . S
C274 C275 1.338 . S
C274 N277 1.377 . S
C274 H294 0.930 . S
C275 N273 1.375 . S
C275 C274 1.338 . S
C275 H279 0.931 . S
C276 N273 1.313 . S
C276 N277 1.344 . S
C276 H280 0.930 . S
N277 C274 1.377 . S
N277 C276 1.344 . S
O278 Co270 2.055 . S
O278 C282 1.253 . S
H279 C275 0.931 . S
H280 C276 0.930 . S
O281 Co270 2.039 . S
O281 C271 1.265 . S
C282 O278 1.253 . S
C282 O283 1.227 . S
O283 C282 1.227 . S
N284 Co270 2.140 . S
N284 C287 1.346 . S
N284 C288 1.345 . S
C285 C286 1.387 . S
C285 C289 1.391 . S
C286 C285 1.387 . S
C286 C287 1.369 . S
C286 H295 0.929 . S
C287 N284 1.346 . S
C287 C286 1.369 . S
C287 H290 0.928 . S
C288 N284 1.345 . S
C288 C289 1.371 . S
C288 H291 0.931 . S
C289 C285 1.391 . S
C289 C288 1.371 . S
C289 H296 0.930 . S
H290 C287 0.928 . S
H291 C288 0.931 . S
H292 C268 0.930 . S
H293 C265 0.930 . S
H294 C274 0.930 . S
H295 C286 0.929 . S
H296 C289 0.930 . S
C297 C298 1.351 . S
C297 N300 1.368 . S
C297 H302 0.931 1_545 S
C298 C297 1.351 . S
C298 N299 1.373 . S
C298 H326 0.930 . S
N299 C298 1.373 . S
N299 C301 1.340 . S
N300 C297 1.368 . S
N300 C301 1.321 . S
N300 Co303 2.135 1_545 S
C301 N299 1.340 . S
C301 N300 1.321 . S
C301 H325 0.930 . S
H302 C297 0.931 1_565 S
Co303 N300 2.135 1_565 S
Co303 N306 2.121 . S
Co303 O311 2.055 . S
Co303 O314 2.039 . S
Co303 N317 2.140 . S
C304 O305 1.227 . S
C304 O314 1.265 . S
O305 C304 1.227 . S
N306 Co303 2.121 . S
N306 C308 1.375 . S
N306 C309 1.313 1_455 S
C307 C308 1.338 1_655 S
C307 N310 1.377 . S
C307 H327 0.930 . S
C308 N306 1.375 . S
C308 C307 1.338 1_455 S
C308 H312 0.931 . S
C309 N306 1.313 1_655 S
C309 N310 1.344 . S
C309 H313 0.930 . S
N310 C307 1.377 . S
N310 C309 1.344 . S
O311 Co303 2.055 . S
O311 C315 1.253 . S
H312 C308 0.931 . S
H313 C309 0.930 . S
O314 Co303 2.039 . S
O314 C304 1.265 . S
C315 O311 1.253 . S
C315 O316 1.227 . S
O316 C315 1.227 . S
N317 Co303 2.140 . S
N317 C320 1.346 . S
N317 C321 1.345 . S
C318 C319 1.387 . S
C318 C322 1.391 . S
C319 C318 1.387 . S
C319 C320 1.369 . S
C319 H328 0.929 . S
C320 N317 1.346 . S
C320 C319 1.369 . S
C320 H323 0.928 . S
C321 N317 1.345 . S
C321 C322 1.371 . S
C321 H324 0.931 . S
C322 C318 1.391 . S
C322 C321 1.371 . S
C322 H329 0.930 . S
H323 C320 0.928 . S
H324 C321 0.931 . S
H325 C301 0.930 . S
H326 C298 0.930 . S
H327 C307 0.930 . S
H328 C319 0.929 . S
H329 C322 0.930 . S
C330 C331 1.351 . S
C330 N333 1.368 . S
C330 H335 0.931 . S
C331 C330 1.351 . S
C331 N332 1.373 . S
C331 H359 0.930 . S
N332 C331 1.373 . S
N332 C334 1.340 . S
N333 C330 1.368 . S
N333 C334 1.321 . S
N333 Co336 2.135 . S
C334 N332 1.340 . S
C334 N333 1.321 . S
C334 H358 0.930 . S
H335 C330 0.931 . S
Co336 N333 2.135 . S
Co336 N339 2.121 . S
Co336 O344 2.055 . S
Co336 O347 2.039 . S
Co336 N350 2.140 . S
C337 O338 1.227 . S
C337 O347 1.265 . S
O338 C337 1.227 . S
N339 Co336 2.121 . S
N339 C341 1.375 . S
N339 C342 1.313 . S
C340 C341 1.338 . S
C340 N343 1.377 . S
C340 H360 0.930 . S
C341 N339 1.375 . S
C341 C340 1.338 . S
C341 H345 0.931 . S
C342 N339 1.313 . S
C342 N343 1.344 . S
C342 H346 0.930 . S
N343 C340 1.377 . S
N343 C342 1.344 . S
O344 Co336 2.055 . S
O344 C348 1.253 . S
H345 C341 0.931 . S
H346 C342 0.930 . S
O347 Co336 2.039 . S
O347 C337 1.265 . S
C348 O344 1.253 . S
C348 O349 1.227 . S
O349 C348 1.227 . S
N350 Co336 2.140 . S
N350 C353 1.346 . S
N350 C354 1.345 . S
C351 C352 1.387 . S
C351 C355 1.391 . S
C352 C351 1.387 . S
C352 C353 1.369 . S
C352 H361 0.929 . S
C353 N350 1.346 . S
C353 C352 1.369 . S
C353 H356 0.928 . S
C354 N350 1.345 . S
C354 C355 1.371 . S
C354 H357 0.931 . S
C355 C351 1.391 . S
C355 C354 1.371 . S
C355 H362 0.930 . S
H356 C353 0.928 . S
H357 C354 0.931 . S
H358 C334 0.930 . S
H359 C331 0.930 . S
H360 C340 0.930 . S
H361 C352 0.929 . S
H362 C355 0.930 . S
C363 C364 1.351 . S
C363 N366 1.368 . S
C363 H368 0.931 1_565 S
C364 C363 1.351 . S
C364 N365 1.373 . S
C364 H392 0.930 . S
N365 C364 1.373 . S
N365 C367 1.340 . S
N366 C363 1.368 . S
N366 C367 1.321 . S
N366 Co369 2.135 1_565 S
C367 N365 1.340 . S
C367 N366 1.321 . S
C367 H391 0.930 . S
H368 C363 0.931 1_545 S
Co369 N366 2.135 1_545 S
Co369 N372 2.121 . S
Co369 O377 2.055 . S
Co369 O380 2.039 . S
Co369 N383 2.140 . S
C370 O371 1.227 . S
C370 O380 1.265 . S
O371 C370 1.227 . S
N372 Co369 2.121 . S
N372 C374 1.375 . S
N372 C375 1.313 . S
C373 C374 1.338 . S
C373 N376 1.377 . S
C373 H393 0.930 . S
C374 N372 1.375 . S
C374 C373 1.338 . S
C374 H378 0.931 . S
C375 N372 1.313 . S
C375 N376 1.344 . S
C375 H379 0.930 . S
N376 C373 1.377 . S
N376 C375 1.344 . S
O377 Co369 2.055 . S
O377 C381 1.253 . S
H378 C374 0.931 . S
H379 C375 0.930 . S
O380 Co369 2.039 . S
O380 C370 1.265 . S
C381 O377 1.253 . S
C381 O382 1.227 . S
O382 C381 1.227 . S
N383 Co369 2.140 . S
N383 C386 1.346 . S
N383 C387 1.345 . S
C384 C385 1.387 . S
C384 C388 1.391 . S
C385 C384 1.387 . S
C385 C386 1.369 . S
C385 H394 0.929 . S
C386 N383 1.346 . S
C386 C385 1.369 . S
C386 H389 0.928 . S
C387 N383 1.345 . S
C387 C388 1.371 . S
C387 H390 0.931 . S
C388 C384 1.391 . S
C388 C387 1.371 . S
C388 H395 0.930 . S
H389 C386 0.928 . S
H390 C387 0.931 . S
H391 C367 0.930 . S
H392 C364 0.930 . S
H393 C373 0.930 . S
H394 C385 0.929 . S
H395 C388 0.930 . S
C396 C397 1.351 . S
C396 N399 1.368 . S
C396 H401 0.931 . S
C397 C396 1.351 . S
C397 N398 1.373 . S
C397 H425 0.930 . S
N398 C397 1.373 . S
N398 C400 1.340 . S
N399 C396 1.368 . S
N399 C400 1.321 . S
N399 Co402 2.135 . S
C400 N398 1.340 . S
C400 N399 1.321 . S
C400 H424 0.930 . S
H401 C396 0.931 . S
Co402 N399 2.135 . S
Co402 N405 2.121 . S
Co402 O410 2.055 . S
Co402 O413 2.039 . S
Co402 N416 2.140 . S
C403 O404 1.227 . S
C403 O413 1.265 . S
O404 C403 1.227 . S
N405 Co402 2.121 . S
N405 C407 1.375 . S
N405 C408 1.313 . S
C406 C407 1.338 . S
C406 N409 1.377 . S
C406 H426 0.930 . S
C407 N405 1.375 . S
C407 C406 1.338 . S
C407 H411 0.931 . S
C408 N405 1.313 . S
C408 N409 1.344 . S
C408 H412 0.930 . S
N409 C406 1.377 . S
N409 C408 1.344 . S
O410 Co402 2.055 . S
O410 C414 1.253 . S
H411 C407 0.931 . S
H412 C408 0.930 . S
O413 Co402 2.039 . S
O413 C403 1.265 . S
C414 O410 1.253 . S
C414 O415 1.227 . S
O415 C414 1.227 . S
N416 Co402 2.140 . S
N416 C419 1.346 . S
N416 C420 1.345 . S
C417 C418 1.387 . S
C417 C421 1.391 . S
C418 C417 1.387 . S
C418 C419 1.369 . S
C418 H427 0.929 . S
C419 N416 1.346 . S
C419 C418 1.369 . S
C419 H422 0.928 . S
C420 N416 1.345 . S
C420 C421 1.371 . S
C420 H423 0.931 . S
C421 C417 1.391 . S
C421 C420 1.371 . S
C421 H428 0.930 . S
H422 C419 0.928 . S
H423 C420 0.931 . S
H424 C400 0.930 . S
H425 C397 0.930 . S
H426 C406 0.930 . S
H427 C418 0.929 . S
H428 C421 0.930 . S
C429 C430 1.351 . S
C429 N432 1.368 . S
C429 H434 0.931 1_545 S
C430 C429 1.351 . S
C430 N431 1.373 . S
C430 H458 0.930 . S
N431 C430 1.373 . S
N431 C433 1.340 . S
N432 C429 1.368 . S
N432 C433 1.321 . S
N432 Co435 2.135 1_545 S
C433 N431 1.340 . S
C433 N432 1.321 . S
C433 H457 0.930 . S
H434 C429 0.931 1_565 S
Co435 N432 2.135 1_565 S
Co435 N438 2.121 . S
Co435 O443 2.055 . S
Co435 O446 2.039 . S
Co435 N449 2.140 . S
C436 O437 1.227 . S
C436 O446 1.265 . S
O437 C436 1.227 . S
N438 Co435 2.121 . S
N438 C440 1.375 . S
N438 C441 1.313 . S
C439 C440 1.338 . S
C439 N442 1.377 . S
C439 H459 0.930 . S
C440 N438 1.375 . S
C440 C439 1.338 . S
C440 H444 0.931 . S
C441 N438 1.313 . S
C441 N442 1.344 . S
C441 H445 0.930 . S
N442 C439 1.377 . S
N442 C441 1.344 . S
O443 Co435 2.055 . S
O443 C447 1.253 . S
H444 C440 0.931 . S
H445 C441 0.930 . S
O446 Co435 2.039 . S
O446 C436 1.265 . S
C447 O443 1.253 . S
C447 O448 1.227 . S
O448 C447 1.227 . S
N449 Co435 2.140 . S
N449 C452 1.346 . S
N449 C453 1.345 . S
C450 C451 1.387 . S
C450 C454 1.391 . S
C451 C450 1.387 . S
C451 C452 1.369 . S
C451 H460 0.929 . S
C452 N449 1.346 . S
C452 C451 1.369 . S
C452 H455 0.928 . S
C453 N449 1.345 . S
C453 C454 1.371 . S
C453 H456 0.931 . S
C454 C450 1.391 . S
C454 C453 1.371 . S
C454 H461 0.930 . S
H455 C452 0.928 . S
H456 C453 0.931 . S
H457 C433 0.930 . S
H458 C430 0.930 . S
H459 C439 0.930 . S
H460 C451 0.929 . S
H461 C454 0.930 . S
C462 C463 1.351 . S
C462 N465 1.368 . S
C462 H467 0.931 . S
C463 C462 1.351 . S
C463 N464 1.373 . S
C463 H491 0.930 . S
N464 C463 1.373 . S
N464 C466 1.340 . S
N465 C462 1.368 . S
N465 C466 1.321 . S
N465 Co468 2.135 . S
C466 N464 1.340 . S
C466 N465 1.321 . S
C466 H490 0.930 . S
H467 C462 0.931 . S
Co468 N465 2.135 . S
Co468 N471 2.121 . S
Co468 O476 2.055 . S
Co468 O479 2.039 . S
Co468 N482 2.140 . S
C469 O470 1.227 . S
C469 O479 1.265 . S
O470 C469 1.227 . S
N471 Co468 2.121 . S
N471 C473 1.375 . S
N471 C474 1.313 . S
C472 C473 1.338 . S
C472 N475 1.377 . S
C472 H492 0.930 . S
C473 N471 1.375 . S
C473 C472 1.338 . S
C473 H477 0.931 . S
C474 N471 1.313 . S
C474 N475 1.344 . S
C474 H478 0.930 . S
N475 C472 1.377 . S
N475 C474 1.344 . S
O476 Co468 2.055 . S
O476 C480 1.253 . S
H477 C473 0.931 . S
H478 C474 0.930 . S
O479 Co468 2.039 . S
O479 C469 1.265 . S
C480 O476 1.253 . S
C480 O481 1.227 . S
O481 C480 1.227 . S
N482 Co468 2.140 . S
N482 C485 1.346 . S
N482 C486 1.345 . S
C483 C484 1.387 . S
C483 C487 1.391 . S
C484 C483 1.387 . S
C484 C485 1.369 . S
C484 H493 0.929 . S
C485 N482 1.346 . S
C485 C484 1.369 . S
C485 H488 0.928 . S
C486 N482 1.345 . S
C486 C487 1.371 . S
C486 H489 0.931 . S
C487 C483 1.391 . S
C487 C486 1.371 . S
C487 H494 0.930 . S
H488 C485 0.928 . S
H489 C486 0.931 . S
H490 C466 0.930 . S
H491 C463 0.930 . S
H492 C472 0.930 . S
H493 C484 0.929 . S
H494 C487 0.930 . S
C495 C496 1.351 . S
C495 N498 1.368 . S
C495 H500 0.931 1_565 S
C496 C495 1.351 . S
C496 N497 1.373 . S
C496 H524 0.930 . S
N497 C496 1.373 . S
N497 C499 1.340 . S
N498 C495 1.368 . S
N498 C499 1.321 . S
N498 Co501 2.135 1_565 S
C499 N497 1.340 . S
C499 N498 1.321 . S
C499 H523 0.930 . S
H500 C495 0.931 1_545 S
Co501 N498 2.135 1_545 S
Co501 N504 2.121 . S
Co501 O509 2.055 . S
Co501 O512 2.039 . S
Co501 N515 2.140 . S
C502 O503 1.227 . S
C502 O512 1.265 . S
O503 C502 1.227 . S
N504 Co501 2.121 . S
N504 C506 1.375 . S
N504 C507 1.313 1_455 S
C505 C506 1.338 1_655 S
C505 N508 1.377 . S
C505 H525 0.930 . S
C506 N504 1.375 . S
C506 C505 1.338 1_455 S
C506 H510 0.931 . S
C507 N504 1.313 1_655 S
C507 N508 1.344 . S
C507 H511 0.930 . S
N508 C505 1.377 . S
N508 C507 1.344 . S
O509 Co501 2.055 . S
O509 C513 1.253 . S
H510 C506 0.931 . S
H511 C507 0.930 . S
O512 Co501 2.039 . S
O512 C502 1.265 . S
C513 O509 1.253 . S
C513 O514 1.227 . S
O514 C513 1.227 . S
N515 Co501 2.140 . S
N515 C518 1.346 . S
N515 C519 1.345 . S
C516 C517 1.387 . S
C516 C520 1.391 . S
C517 C516 1.387 . S
C517 C518 1.369 . S
C517 H526 0.929 . S
C518 N515 1.346 . S
C518 C517 1.369 . S
C518 H521 0.928 . S
C519 N515 1.345 . S
C519 C520 1.371 . S
C519 H522 0.931 . S
C520 C516 1.391 . S
C520 C519 1.371 . S
C520 H527 0.930 . S
H521 C518 0.928 . S
H522 C519 0.931 . S
H523 C499 0.930 . S
H524 C496 0.930 . S
H525 C505 0.930 . S
H526 C517 0.929 . S
H527 C520 0.930 . S
C528 C529 1.351 . S
C528 N531 1.368 . S
C528 H533 0.931 . S
C529 C528 1.351 . S
C529 N530 1.373 . S
C529 H557 0.930 . S
N530 C529 1.373 . S
N530 C532 1.340 . S
N531 C528 1.368 . S
N531 C532 1.321 . S
N531 Co534 2.135 . S
C532 N530 1.340 . S
C532 N531 1.321 . S
C532 H556 0.930 . S
H533 C528 0.931 . S
Co534 N531 2.135 . S
Co534 N537 2.121 . S
Co534 O542 2.055 . S
Co534 O545 2.039 . S
Co534 N548 2.140 . S
C535 O536 1.227 . S
C535 O545 1.265 . S
O536 C535 1.227 . S
N537 Co534 2.121 . S
N537 C539 1.375 . S
N537 C540 1.313 . S
C538 C539 1.338 . S
C538 N541 1.377 . S
C538 H558 0.930 . S
C539 N537 1.375 . S
C539 C538 1.338 . S
C539 H543 0.931 . S
C540 N537 1.313 . S
C540 N541 1.344 . S
C540 H544 0.930 . S
N541 C538 1.377 . S
N541 C540 1.344 . S
O542 Co534 2.055 . S
O542 C546 1.253 . S
H543 C539 0.931 . S
H544 C540 0.930 . S
O545 Co534 2.039 . S
O545 C535 1.265 . S
C546 O542 1.253 . S
C546 O547 1.227 . S
O547 C546 1.227 . S
N548 Co534 2.140 . S
N548 C551 1.346 . S
N548 C552 1.345 . S
C549 C550 1.387 . S
C549 C553 1.391 . S
C550 C549 1.387 . S
C550 C551 1.369 . S
C550 H559 0.929 . S
C551 N548 1.346 . S
C551 C550 1.369 . S
C551 H554 0.928 . S
C552 N548 1.345 . S
C552 C553 1.371 . S
C552 H555 0.931 . S
C553 C549 1.391 . S
C553 C552 1.371 . S
C553 H560 0.930 . S
H554 C551 0.928 . S
H555 C552 0.931 . S
H556 C532 0.930 . S
H557 C529 0.930 . S
H558 C538 0.930 . S
H559 C550 0.929 . S
H560 C553 0.930 . S
C561 C562 1.351 . S
C561 N564 1.368 . S
C561 H566 0.931 . S
C562 C561 1.351 . S
C562 N563 1.373 . S
C562 H590 0.930 . S
N563 C562 1.373 . S
N563 C565 1.340 . S
N564 C561 1.368 . S
N564 C565 1.321 . S
N564 Co567 2.135 . S
C565 N563 1.340 . S
C565 N564 1.321 . S
C565 H589 0.930 . S
H566 C561 0.931 . S
Co567 N564 2.135 . S
Co567 N570 2.121 . S
Co567 O575 2.055 . S
Co567 O578 2.039 . S
Co567 N581 2.140 . S
C568 O569 1.227 . S
C568 O578 1.265 . S
O569 C568 1.227 . S
N570 Co567 2.121 . S
N570 C572 1.375 . S
N570 C573 1.313 . S
C571 C572 1.338 . S
C571 N574 1.377 . S
C571 H591 0.930 . S
C572 N570 1.375 . S
C572 C571 1.338 . S
C572 H576 0.931 . S
C573 N570 1.313 . S
C573 N574 1.344 . S
C573 H577 0.930 . S
N574 C571 1.377 . S
N574 C573 1.344 . S
O575 Co567 2.055 . S
O575 C579 1.253 . S
H576 C572 0.931 . S
H577 C573 0.930 . S
O578 Co567 2.039 . S
O578 C568 1.265 . S
C579 O575 1.253 . S
C579 O580 1.227 . S
O580 C579 1.227 . S
N581 Co567 2.140 . S
N581 C584 1.346 . S
N581 C585 1.345 . S
C582 C583 1.387 . S
C582 C586 1.391 . S
C583 C582 1.387 . S
C583 C584 1.369 . S
C583 H592 0.929 . S
C584 N581 1.346 . S
C584 C583 1.369 . S
C584 H587 0.928 . S
C585 N581 1.345 . S
C585 C586 1.371 . S
C585 H588 0.931 . S
C586 C582 1.391 . S
C586 C585 1.371 . S
C586 H593 0.930 . S
H587 C584 0.928 . S
H588 C585 0.931 . S
H589 C565 0.930 . S
H590 C562 0.930 . S
H591 C571 0.930 . S
H592 C583 0.929 . S
H593 C586 0.930 . S
C594 C595 1.351 . S
C594 N597 1.368 . S
C594 H599 0.931 . S
C595 C594 1.351 . S
C595 N596 1.373 . S
C595 H623 0.930 . S
N596 C595 1.373 . S
N596 C598 1.340 . S
N597 C594 1.368 . S
N597 C598 1.321 . S
N597 Co600 2.135 . S
C598 N596 1.340 . S
C598 N597 1.321 . S
C598 H622 0.930 . S
H599 C594 0.931 . S
Co600 N597 2.135 . S
Co600 N603 2.121 . S
Co600 O608 2.055 . S
Co600 O611 2.039 . S
Co600 N614 2.140 . S
C601 O602 1.227 . S
C601 O611 1.265 . S
O602 C601 1.227 . S
N603 Co600 2.121 . S
N603 C605 1.375 . S
N603 C606 1.313 . S
C604 C605 1.338 . S
C604 N607 1.377 . S
C604 H624 0.930 . S
C605 N603 1.375 . S
C605 C604 1.338 . S
C605 H609 0.931 . S
C606 N603 1.313 . S
C606 N607 1.344 . S
C606 H610 0.930 . S
N607 C604 1.377 . S
N607 C606 1.344 . S
O608 Co600 2.055 . S
O608 C612 1.253 . S
H609 C605 0.931 . S
H610 C606 0.930 . S
O611 Co600 2.039 . S
O611 C601 1.265 . S
C612 O608 1.253 . S
C612 O613 1.227 . S
O613 C612 1.227 . S
N614 Co600 2.140 . S
N614 C617 1.346 . S
N614 C618 1.345 . S
C615 C616 1.387 . S
C615 C619 1.391 . S
C616 C615 1.387 . S
C616 C617 1.369 . S
C616 H625 0.929 . S
C617 N614 1.346 . S
C617 C616 1.369 . S
C617 H620 0.928 . S
C618 N614 1.345 . S
C618 C619 1.371 . S
C618 H621 0.931 . S
C619 C615 1.391 . S
C619 C618 1.371 . S
C619 H626 0.930 . S
H620 C617 0.928 . S
H621 C618 0.931 . S
H622 C598 0.930 . S
H623 C595 0.930 . S
H624 C604 0.930 . S
H625 C616 0.929 . S
H626 C619 0.930 . S
C627 C628 1.351 . S
C627 N630 1.368 . S
C627 H632 0.931 . S
C628 C627 1.351 . S
C628 N629 1.373 . S
C628 H656 0.930 . S
N629 C628 1.373 . S
N629 C631 1.340 . S
N630 C627 1.368 . S
N630 C631 1.321 . S
N630 Co633 2.135 . S
C631 N629 1.340 . S
C631 N630 1.321 . S
C631 H655 0.930 . S
H632 C627 0.931 . S
Co633 N630 2.135 . S
Co633 N636 2.121 . S
Co633 O641 2.055 . S
Co633 O644 2.039 . S
Co633 N647 2.140 . S
C634 O635 1.227 . S
C634 O644 1.265 . S
O635 C634 1.227 . S
N636 Co633 2.121 . S
N636 C638 1.375 . S
N636 C639 1.313 1_455 S
C637 C638 1.338 1_655 S
C637 N640 1.377 . S
C637 H657 0.930 . S
C638 N636 1.375 . S
C638 C637 1.338 1_455 S
C638 H642 0.931 . S
C639 N636 1.313 1_655 S
C639 N640 1.344 . S
C639 H643 0.930 . S
N640 C637 1.377 . S
N640 C639 1.344 . S
O641 Co633 2.055 . S
O641 C645 1.253 . S
H642 C638 0.931 . S
H643 C639 0.930 . S
O644 Co633 2.039 . S
O644 C634 1.265 . S
C645 O641 1.253 . S
C645 O646 1.227 . S
O646 C645 1.227 . S
N647 Co633 2.140 . S
N647 C650 1.346 . S
N647 C651 1.345 . S
C648 C649 1.387 . S
C648 C652 1.391 . S
C649 C648 1.387 . S
C649 C650 1.369 . S
C649 H658 0.929 . S
C650 N647 1.346 . S
C650 C649 1.369 . S
C650 H653 0.928 . S
C651 N647 1.345 . S
C651 C652 1.371 . S
C651 H654 0.931 . S
C652 C648 1.391 . S
C652 C651 1.371 . S
C652 H659 0.930 . S
H653 C650 0.928 . S
H654 C651 0.931 . S
H655 C631 0.930 . S
H656 C628 0.930 . S
H657 C637 0.930 . S
H658 C649 0.929 . S
H659 C652 0.930 . S
C660 C661 1.351 . S
C660 N663 1.368 . S
C660 H665 0.931 . S
C661 C660 1.351 . S
C661 N662 1.373 . S
C661 H689 0.930 . S
N662 C661 1.373 . S
N662 C664 1.340 . S
N663 C660 1.368 . S
N663 C664 1.321 . S
N663 Co666 2.135 . S
C664 N662 1.340 . S
C664 N663 1.321 . S
C664 H688 0.930 . S
H665 C660 0.931 . S
Co666 N663 2.135 . S
Co666 N669 2.121 . S
Co666 O674 2.055 . S
Co666 O677 2.039 . S
Co666 N680 2.140 . S
C667 O668 1.227 . S
C667 O677 1.265 . S
O668 C667 1.227 . S
N669 Co666 2.121 . S
N669 C671 1.375 . S
N669 C672 1.313 . S
C670 C671 1.338 . S
C670 N673 1.377 . S
C670 H690 0.930 . S
C671 N669 1.375 . S
C671 C670 1.338 . S
C671 H675 0.931 . S
C672 N669 1.313 . S
C672 N673 1.344 . S
C672 H676 0.930 . S
N673 C670 1.377 . S
N673 C672 1.344 . S
O674 Co666 2.055 . S
O674 C678 1.253 . S
H675 C671 0.931 . S
H676 C672 0.930 . S
O677 Co666 2.039 . S
O677 C667 1.265 . S
C678 O674 1.253 . S
C678 O679 1.227 . S
O679 C678 1.227 . S
N680 Co666 2.140 . S
N680 C683 1.346 . S
N680 C684 1.345 . S
C681 C682 1.387 . S
C681 C685 1.391 . S
C682 C681 1.387 . S
C682 C683 1.369 . S
C682 H691 0.929 . S
C683 N680 1.346 . S
C683 C682 1.369 . S
C683 H686 0.928 . S
C684 N680 1.345 . S
C684 C685 1.371 . S
C684 H687 0.931 . S
C685 C681 1.391 . S
C685 C684 1.371 . S
C685 H692 0.930 . S
H686 C683 0.928 . S
H687 C684 0.931 . S
H688 C664 0.930 . S
H689 C661 0.930 . S
H690 C670 0.930 . S
H691 C682 0.929 . S
H692 C685 0.930 . S
C693 C694 1.351 . S
C693 N696 1.368 . S
C693 H698 0.931 . S
C694 C693 1.351 . S
C694 N695 1.373 . S
C694 H722 0.930 . S
N695 C694 1.373 . S
N695 C697 1.340 . S
N696 C693 1.368 . S
N696 C697 1.321 . S
N696 Co699 2.135 . S
C697 N695 1.340 . S
C697 N696 1.321 . S
C697 H721 0.930 . S
H698 C693 0.931 . S
Co699 N696 2.135 . S
Co699 N702 2.121 . S
Co699 O707 2.055 . S
Co699 O710 2.039 . S
Co699 N713 2.140 . S
C700 O701 1.227 . S
C700 O710 1.265 . S
O701 C700 1.227 . S
N702 Co699 2.121 . S
N702 C704 1.375 . S
N702 C705 1.313 1_455 S
C703 C704 1.338 1_655 S
C703 N706 1.377 . S
C703 H723 0.930 . S
C704 N702 1.375 . S
C704 C703 1.338 1_455 S
C704 H708 0.931 . S
C705 N702 1.313 1_655 S
C705 N706 1.344 . S
C705 H709 0.930 . S
N706 C703 1.377 . S
N706 C705 1.344 . S
O707 Co699 2.055 . S
O707 C711 1.253 . S
H708 C704 0.931 . S
H709 C705 0.930 . S
O710 Co699 2.039 . S
O710 C700 1.265 . S
C711 O707 1.253 . S
C711 O712 1.227 . S
O712 C711 1.227 . S
N713 Co699 2.140 . S
N713 C716 1.346 . S
N713 C717 1.345 . S
C714 C715 1.387 . S
C714 C718 1.391 . S
C715 C714 1.387 . S
C715 C716 1.369 . S
C715 H724 0.929 . S
C716 N713 1.346 . S
C716 C715 1.369 . S
C716 H719 0.928 . S
C717 N713 1.345 . S
C717 C718 1.371 . S
C717 H720 0.931 . S
C718 C714 1.391 . S
C718 C717 1.371 . S
C718 H725 0.930 . S
H719 C716 0.928 . S
H720 C717 0.931 . S
H721 C697 0.930 . S
H722 C694 0.930 . S
H723 C703 0.930 . S
H724 C715 0.929 . S
H725 C718 0.930 . S
C726 C727 1.351 . S
C726 N729 1.368 . S
C726 H731 0.931 . S
C727 C726 1.351 . S
C727 N728 1.373 . S
C727 H755 0.930 . S
N728 C727 1.373 . S
N728 C730 1.340 . S
N729 C726 1.368 . S
N729 C730 1.321 . S
N729 Co732 2.135 . S
C730 N728 1.340 . S
C730 N729 1.321 . S
C730 H754 0.930 . S
H731 C726 0.931 . S
Co732 N729 2.135 . S
Co732 N735 2.121 . S
Co732 O740 2.055 . S
Co732 O743 2.039 . S
Co732 N746 2.140 . S
C733 O734 1.227 . S
C733 O743 1.265 . S
O734 C733 1.227 . S
N735 Co732 2.121 . S
N735 C737 1.375 . S
N735 C738 1.313 . S
C736 C737 1.338 . S
C736 N739 1.377 . S
C736 H756 0.930 . S
C737 N735 1.375 . S
C737 C736 1.338 . S
C737 H741 0.931 . S
C738 N735 1.313 . S
C738 N739 1.344 . S
C738 H742 0.930 . S
N739 C736 1.377 . S
N739 C738 1.344 . S
O740 Co732 2.055 . S
O740 C744 1.253 . S
H741 C737 0.931 . S
H742 C738 0.930 . S
O743 Co732 2.039 . S
O743 C733 1.265 . S
C744 O740 1.253 . S
C744 O745 1.227 . S
O745 C744 1.227 . S
N746 Co732 2.140 . S
N746 C749 1.346 . S
N746 C750 1.345 . S
C747 C748 1.387 . S
C747 C751 1.391 . S
C748 C747 1.387 . S
C748 C749 1.369 . S
C748 H757 0.929 . S
C749 N746 1.346 . S
C749 C748 1.369 . S
C749 H752 0.928 . S
C750 N746 1.345 . S
C750 C751 1.371 . S
C750 H753 0.931 . S
C751 C747 1.391 . S
C751 C750 1.371 . S
C751 H758 0.930 . S
H752 C749 0.928 . S
H753 C750 0.931 . S
H754 C730 0.930 . S
H755 C727 0.930 . S
H756 C736 0.930 . S
H757 C748 0.929 . S
H758 C751 0.930 . S
C759 C760 1.351 . S
C759 N762 1.368 . S
C759 H764 0.931 . S
C760 C759 1.351 . S
C760 N761 1.373 . S
C760 H788 0.930 . S
N761 C760 1.373 . S
N761 C763 1.340 . S
N762 C759 1.368 . S
N762 C763 1.321 . S
N762 Co765 2.135 . S
C763 N761 1.340 . S
C763 N762 1.321 . S
C763 H787 0.930 . S
H764 C759 0.931 . S
Co765 N762 2.135 . S
Co765 N768 2.121 . S
Co765 O773 2.055 . S
Co765 O776 2.039 . S
Co765 N779 2.140 . S
C766 O767 1.227 . S
C766 O776 1.265 . S
O767 C766 1.227 . S
N768 Co765 2.121 . S
N768 C770 1.375 . S
N768 C771 1.313 . S
C769 C770 1.338 . S
C769 N772 1.377 . S
C769 H789 0.930 . S
C770 N768 1.375 . S
C770 C769 1.338 . S
C770 H774 0.931 . S
C771 N768 1.313 . S
C771 N772 1.344 . S
C771 H775 0.930 . S
N772 C769 1.377 . S
N772 C771 1.344 . S
O773 Co765 2.055 . S
O773 C777 1.253 . S
H774 C770 0.931 . S
H775 C771 0.930 . S
O776 Co765 2.039 . S
O776 C766 1.265 . S
C777 O773 1.253 . S
C777 O778 1.227 . S
O778 C777 1.227 . S
N779 Co765 2.140 . S
N779 C782 1.346 . S
N779 C783 1.345 . S
C780 C781 1.387 . S
C780 C784 1.391 . S
C781 C780 1.387 . S
C781 C782 1.369 . S
C781 H790 0.929 . S
C782 N779 1.346 . S
C782 C781 1.369 . S
C782 H785 0.928 . S
C783 N779 1.345 . S
C783 C784 1.371 . S
C783 H786 0.931 . S
C784 C780 1.391 . S
C784 C783 1.371 . S
C784 H791 0.930 . S
H785 C782 0.928 . S
H786 C783 0.931 . S
H787 C763 0.930 . S
H788 C760 0.930 . S
H789 C769 0.930 . S
H790 C781 0.929 . S
H791 C784 0.930 . S
C792 C793 1.351 . S
C792 N795 1.368 . S
C792 H797 0.931 . S
C793 C792 1.351 . S
C793 N794 1.373 . S
C793 H821 0.930 . S
N794 C793 1.373 . S
N794 C796 1.340 . S
N795 C792 1.368 . S
N795 C796 1.321 . S
N795 Co798 2.135 . S
C796 N794 1.340 . S
C796 N795 1.321 . S
C796 H820 0.930 . S
H797 C792 0.931 . S
Co798 N795 2.135 . S
Co798 N801 2.121 . S
Co798 O806 2.055 . S
Co798 O809 2.039 . S
Co798 N812 2.140 . S
C799 O800 1.227 . S
C799 O809 1.265 . S
O800 C799 1.227 . S
N801 Co798 2.121 . S
N801 C803 1.375 . S
N801 C804 1.313 . S
C802 C803 1.338 . S
C802 N805 1.377 . S
C802 H822 0.930 . S
C803 N801 1.375 . S
C803 C802 1.338 . S
C803 H807 0.931 . S
C804 N801 1.313 . S
C804 N805 1.344 . S
C804 H808 0.930 . S
N805 C802 1.377 . S
N805 C804 1.344 . S
O806 Co798 2.055 . S
O806 C810 1.253 . S
H807 C803 0.931 . S
H808 C804 0.930 . S
O809 Co798 2.039 . S
O809 C799 1.265 . S
C810 O806 1.253 . S
C810 O811 1.227 . S
O811 C810 1.227 . S
N812 Co798 2.140 . S
N812 C815 1.346 . S
N812 C816 1.345 . S
C813 C814 1.387 . S
C813 C817 1.391 . S
C814 C813 1.387 . S
C814 C815 1.369 . S
C814 H823 0.929 . S
C815 N812 1.346 . S
C815 C814 1.369 . S
C815 H818 0.928 . S
C816 N812 1.345 . S
C816 C817 1.371 . S
C816 H819 0.931 . S
C817 C813 1.391 . S
C817 C816 1.371 . S
C817 H824 0.930 . S
H818 C815 0.928 . S
H819 C816 0.931 . S
H820 C796 0.930 . S
H821 C793 0.930 . S
H822 C802 0.930 . S
H823 C814 0.929 . S
H824 C817 0.930 . S
C825 C826 1.351 . S
C825 N828 1.368 . S
C825 H830 0.931 . S
C826 C825 1.351 . S
C826 N827 1.373 . S
C826 H854 0.930 . S
N827 C826 1.373 . S
N827 C829 1.340 . S
N828 C825 1.368 . S
N828 C829 1.321 . S
N828 Co831 2.135 . S
C829 N827 1.340 . S
C829 N828 1.321 . S
C829 H853 0.930 . S
H830 C825 0.931 . S
Co831 N828 2.135 . S
Co831 N834 2.121 . S
Co831 O839 2.055 . S
Co831 O842 2.039 . S
Co831 N845 2.140 . S
C832 O833 1.227 . S
C832 O842 1.265 . S
O833 C832 1.227 . S
N834 Co831 2.121 . S
N834 C836 1.375 . S
N834 C837 1.313 . S
C835 C836 1.338 . S
C835 N838 1.377 . S
C835 H855 0.930 . S
C836 N834 1.375 . S
C836 C835 1.338 . S
C836 H840 0.931 . S
C837 N834 1.313 . S
C837 N838 1.344 . S
C837 H841 0.930 . S
N838 C835 1.377 . S
N838 C837 1.344 . S
O839 Co831 2.055 . S
O839 C843 1.253 . S
H840 C836 0.931 . S
H841 C837 0.930 . S
O842 Co831 2.039 . S
O842 C832 1.265 . S
C843 O839 1.253 . S
C843 O844 1.227 . S
O844 C843 1.227 . S
N845 Co831 2.140 . S
N845 C848 1.346 . S
N845 C849 1.345 . S
C846 C847 1.387 . S
C846 C850 1.391 . S
C847 C846 1.387 . S
C847 C848 1.369 . S
C847 H856 0.929 . S
C848 N845 1.346 . S
C848 C847 1.369 . S
C848 H851 0.928 . S
C849 N845 1.345 . S
C849 C850 1.371 . S
C849 H852 0.931 . S
C850 C846 1.391 . S
C850 C849 1.371 . S
C850 H857 0.930 . S
H851 C848 0.928 . S
H852 C849 0.931 . S
H853 C829 0.930 . S
H854 C826 0.930 . S
H855 C835 0.930 . S
H856 C847 0.929 . S
H857 C850 0.930 . S
C858 C859 1.351 . S
C858 N861 1.368 . S
C858 H863 0.931 . S
C859 C858 1.351 . S
C859 N860 1.373 . S
C859 H887 0.930 . S
N860 C859 1.373 . S
N860 C862 1.340 . S
N861 C858 1.368 . S
N861 C862 1.321 . S
N861 Co864 2.135 . S
C862 N860 1.340 . S
C862 N861 1.321 . S
C862 H886 0.930 . S
H863 C858 0.931 . S
Co864 N861 2.135 . S
Co864 N867 2.121 . S
Co864 O872 2.055 . S
Co864 O875 2.039 . S
Co864 N878 2.140 . S
C865 O866 1.227 . S
C865 O875 1.265 . S
O866 C865 1.227 . S
N867 Co864 2.121 . S
N867 C869 1.375 . S
N867 C870 1.313 . S
C868 C869 1.338 . S
C868 N871 1.377 . S
C868 H888 0.930 . S
C869 N867 1.375 . S
C869 C868 1.338 . S
C869 H873 0.931 . S
C870 N867 1.313 . S
C870 N871 1.344 . S
C870 H874 0.930 . S
N871 C868 1.377 . S
N871 C870 1.344 . S
O872 Co864 2.055 . S
O872 C876 1.253 . S
H873 C869 0.931 . S
H874 C870 0.930 . S
O875 Co864 2.039 . S
O875 C865 1.265 . S
C876 O872 1.253 . S
C876 O877 1.227 . S
O877 C876 1.227 . S
N878 Co864 2.140 . S
N878 C881 1.346 . S
N878 C882 1.345 . S
C879 C880 1.387 . S
C879 C883 1.391 . S
C880 C879 1.387 . S
C880 C881 1.369 . S
C880 H889 0.929 . S
C881 N878 1.346 . S
C881 C880 1.369 . S
C881 H884 0.928 . S
C882 N878 1.345 . S
C882 C883 1.371 . S
C882 H885 0.931 . S
C883 C879 1.391 . S
C883 C882 1.371 . S
C883 H890 0.930 . S
H884 C881 0.928 . S
H885 C882 0.931 . S
H886 C862 0.930 . S
H887 C859 0.930 . S
H888 C868 0.930 . S
H889 C880 0.929 . S
H890 C883 0.930 . S
C891 C892 1.351 . S
C891 N894 1.368 . S
C891 H896 0.931 . S
C892 C891 1.351 . S
C892 N893 1.373 . S
C892 H920 0.930 . S
N893 C892 1.373 . S
N893 C895 1.340 . S
N894 C891 1.368 . S
N894 C895 1.321 . S
N894 Co897 2.135 . S
C895 N893 1.340 . S
C895 N894 1.321 . S
C895 H919 0.930 . S
H896 C891 0.931 . S
Co897 N894 2.135 . S
Co897 N900 2.121 . S
Co897 O905 2.055 . S
Co897 O908 2.039 . S
Co897 N911 2.140 . S
C898 O899 1.227 . S
C898 O908 1.265 . S
O899 C898 1.227 . S
N900 Co897 2.121 . S
N900 C902 1.375 . S
N900 C903 1.313 1_655 S
C901 C902 1.338 1_455 S
C901 N904 1.377 . S
C901 H921 0.930 . S
C902 N900 1.375 . S
C902 C901 1.338 1_655 S
C902 H906 0.931 . S
C903 N900 1.313 1_455 S
C903 N904 1.344 . S
C903 H907 0.930 . S
N904 C901 1.377 . S
N904 C903 1.344 . S
O905 Co897 2.055 . S
O905 C909 1.253 . S
H906 C902 0.931 . S
H907 C903 0.930 . S
O908 Co897 2.039 . S
O908 C898 1.265 . S
C909 O905 1.253 . S
C909 O910 1.227 . S
O910 C909 1.227 . S
N911 Co897 2.140 . S
N911 C914 1.346 . S
N911 C915 1.345 . S
C912 C913 1.387 . S
C912 C916 1.391 . S
C913 C912 1.387 . S
C913 C914 1.369 . S
C913 H922 0.929 . S
C914 N911 1.346 . S
C914 C913 1.369 . S
C914 H917 0.928 . S
C915 N911 1.345 . S
C915 C916 1.371 . S
C915 H918 0.931 . S
C916 C912 1.391 . S
C916 C915 1.371 . S
C916 H923 0.930 . S
H917 C914 0.928 . S
H918 C915 0.931 . S
H919 C895 0.930 . S
H920 C892 0.930 . S
H921 C901 0.930 . S
H922 C913 0.929 . S
H923 C916 0.930 . S
C924 C925 1.351 . S
C924 N927 1.368 . S
C924 H929 0.931 . S
C925 C924 1.351 . S
C925 N926 1.373 . S
C925 H953 0.930 . S
N926 C925 1.373 . S
N926 C928 1.340 . S
N927 C924 1.368 . S
N927 C928 1.321 . S
N927 Co930 2.135 . S
C928 N926 1.340 . S
C928 N927 1.321 . S
C928 H952 0.930 . S
H929 C924 0.931 . S
Co930 N927 2.135 . S
Co930 N933 2.121 . S
Co930 O938 2.055 . S
Co930 O941 2.039 . S
Co930 N944 2.140 . S
C931 O932 1.227 . S
C931 O941 1.265 . S
O932 C931 1.227 . S
N933 Co930 2.121 . S
N933 C935 1.375 . S
N933 C936 1.313 . S
C934 C935 1.338 . S
C934 N937 1.377 . S
C934 H954 0.930 . S
C935 N933 1.375 . S
C935 C934 1.338 . S
C935 H939 0.931 . S
C936 N933 1.313 . S
C936 N937 1.344 . S
C936 H940 0.930 . S
N937 C934 1.377 . S
N937 C936 1.344 . S
O938 Co930 2.055 . S
O938 C942 1.253 . S
H939 C935 0.931 . S
H940 C936 0.930 . S
O941 Co930 2.039 . S
O941 C931 1.265 . S
C942 O938 1.253 . S
C942 O943 1.227 . S
O943 C942 1.227 . S
N944 Co930 2.140 . S
N944 C947 1.346 . S
N944 C948 1.345 . S
C945 C946 1.387 . S
C945 C949 1.391 . S
C946 C945 1.387 . S
C946 C947 1.369 . S
C946 H955 0.929 . S
C947 N944 1.346 . S
C947 C946 1.369 . S
C947 H950 0.928 . S
C948 N944 1.345 . S
C948 C949 1.371 . S
C948 H951 0.931 . S
C949 C945 1.391 . S
C949 C948 1.371 . S
C949 H956 0.930 . S
H950 C947 0.928 . S
H951 C948 0.931 . S
H952 C928 0.930 . S
H953 C925 0.930 . S
H954 C934 0.930 . S
H955 C946 0.929 . S
H956 C949 0.930 . S
C957 C958 1.351 . S
C957 N960 1.368 . S
C957 H962 0.931 . S
C958 C957 1.351 . S
C958 N959 1.373 . S
C958 H986 0.930 . S
N959 C958 1.373 . S
N959 C961 1.340 . S
N960 C957 1.368 . S
N960 C961 1.321 . S
N960 Co963 2.135 . S
C961 N959 1.340 . S
C961 N960 1.321 . S
C961 H985 0.930 . S
H962 C957 0.931 . S
Co963 N960 2.135 . S
Co963 N966 2.121 . S
Co963 O971 2.055 . S
Co963 O974 2.039 . S
Co963 N977 2.140 . S
C964 O965 1.227 . S
C964 O974 1.265 . S
O965 C964 1.227 . S
N966 Co963 2.121 . S
N966 C968 1.375 . S
N966 C969 1.313 1_655 S
C967 C968 1.338 1_455 S
C967 N970 1.377 . S
C967 H987 0.930 . S
C968 N966 1.375 . S
C968 C967 1.338 1_655 S
C968 H972 0.931 . S
C969 N966 1.313 1_455 S
C969 N970 1.344 . S
C969 H973 0.930 . S
N970 C967 1.377 . S
N970 C969 1.344 . S
O971 Co963 2.055 . S
O971 C975 1.253 . S
H972 C968 0.931 . S
H973 C969 0.930 . S
O974 Co963 2.039 . S
O974 C964 1.265 . S
C975 O971 1.253 . S
C975 O976 1.227 . S
O976 C975 1.227 . S
N977 Co963 2.140 . S
N977 C980 1.346 . S
N977 C981 1.345 . S
C978 C979 1.387 . S
C978 C982 1.391 . S
C979 C978 1.387 . S
C979 C980 1.369 . S
C979 H988 0.929 . S
C980 N977 1.346 . S
C980 C979 1.369 . S
C980 H983 0.928 . S
C981 N977 1.345 . S
C981 C982 1.371 . S
C981 H984 0.931 . S
C982 C978 1.391 . S
C982 C981 1.371 . S
C982 H989 0.930 . S
H983 C980 0.928 . S
H984 C981 0.931 . S
H985 C961 0.930 . S
H986 C958 0.930 . S
H987 C967 0.930 . S
H988 C979 0.929 . S
H989 C982 0.930 . S
C990 C991 1.351 . S
C990 N993 1.368 . S
C990 H995 0.931 . S
C991 C990 1.351 . S
C991 N992 1.373 . S
C991 H1019 0.930 . S
N992 C991 1.373 . S
N992 C994 1.340 . S
N993 C990 1.368 . S
N993 C994 1.321 . S
N993 Co996 2.135 . S
C994 N992 1.340 . S
C994 N993 1.321 . S
C994 H1018 0.930 . S
H995 C990 0.931 . S
Co996 N993 2.135 . S
Co996 N999 2.121 . S
Co996 O1004 2.055 . S
Co996 O1007 2.039 . S
Co996 N1010 2.140 . S
C997 O998 1.227 . S
C997 O1007 1.265 . S
O998 C997 1.227 . S
N999 Co996 2.121 . S
N999 C1001 1.375 . S
N999 C1002 1.313 . S
C1000 C1001 1.338 . S
C1000 N1003 1.377 . S
C1000 H1020 0.930 . S
C1001 N999 1.375 . S
C1001 C1000 1.338 . S
C1001 H1005 0.931 . S
C1002 N999 1.313 . S
C1002 N1003 1.344 . S
C1002 H1006 0.930 . S
N1003 C1000 1.377 . S
N1003 C1002 1.344 . S
O1004 Co996 2.055 . S
O1004 C1008 1.253 . S
H1005 C1001 0.931 . S
H1006 C1002 0.930 . S
O1007 Co996 2.039 . S
O1007 C997 1.265 . S
C1008 O1004 1.253 . S
C1008 O1009 1.227 . S
O1009 C1008 1.227 . S
N1010 Co996 2.140 . S
N1010 C1013 1.346 . S
N1010 C1014 1.345 . S
C1011 C1012 1.387 . S
C1011 C1015 1.391 . S
C1012 C1011 1.387 . S
C1012 C1013 1.369 . S
C1012 H1021 0.929 . S
C1013 N1010 1.346 . S
C1013 C1012 1.369 . S
C1013 H1016 0.928 . S
C1014 N1010 1.345 . S
C1014 C1015 1.371 . S
C1014 H1017 0.931 . S
C1015 C1011 1.391 . S
C1015 C1014 1.371 . S
C1015 H1022 0.930 . S
H1016 C1013 0.928 . S
H1017 C1014 0.931 . S
H1018 C994 0.930 . S
H1019 C991 0.930 . S
H1020 C1000 0.930 . S
H1021 C1012 0.929 . S
H1022 C1015 0.930 . S
C1023 C1024 1.351 . S
C1023 N1026 1.368 . S
C1023 H1028 0.931 . S
C1024 C1023 1.351 . S
C1024 N1025 1.373 . S
C1024 H1052 0.930 . S
N1025 C1024 1.373 . S
N1025 C1027 1.340 . S
N1026 C1023 1.368 . S
N1026 C1027 1.321 . S
N1026 Co1029 2.135 . S
C1027 N1025 1.340 . S
C1027 N1026 1.321 . S
C1027 H1051 0.930 . S
H1028 C1023 0.931 . S
Co1029 N1026 2.135 . S
Co1029 N1032 2.121 . S
Co1029 O1037 2.055 . S
Co1029 O1040 2.039 . S
Co1029 N1043 2.140 . S
C1030 O1031 1.227 . S
C1030 O1040 1.265 . S
O1031 C1030 1.227 . S
N1032 Co1029 2.121 . S
N1032 C1034 1.375 . S
N1032 C1035 1.313 . S
C1033 C1034 1.338 . S
C1033 N1036 1.377 . S
C1033 H1053 0.930 . S
C1034 N1032 1.375 . S
C1034 C1033 1.338 . S
C1034 H1038 0.931 . S
C1035 N1032 1.313 . S
C1035 N1036 1.344 . S
C1035 H1039 0.930 . S
N1036 C1033 1.377 . S
N1036 C1035 1.344 . S
O1037 Co1029 2.055 . S
O1037 C1041 1.253 . S
H1038 C1034 0.931 . S
H1039 C1035 0.930 . S
O1040 Co1029 2.039 . S
O1040 C1030 1.265 . S
C1041 O1037 1.253 . S
C1041 O1042 1.227 . S
O1042 C1041 1.227 . S
N1043 Co1029 2.140 . S
N1043 C1046 1.346 . S
N1043 C1047 1.345 . S
C1044 C1045 1.387 . S
C1044 C1048 1.391 . S
C1045 C1044 1.387 . S
C1045 C1046 1.369 . S
C1045 H1054 0.929 . S
C1046 N1043 1.346 . S
C1046 C1045 1.369 . S
C1046 H1049 0.928 . S
C1047 N1043 1.345 . S
C1047 C1048 1.371 . S
C1047 H1050 0.931 . S
C1048 C1044 1.391 . S
C1048 C1047 1.371 . S
C1048 H1055 0.930 . S
H1049 C1046 0.928 . S
H1050 C1047 0.931 . S
H1051 C1027 0.930 . S
H1052 C1024 0.930 . S
H1053 C1033 0.930 . S
H1054 C1045 0.929 . S
H1055 C1048 0.930 . S
C1056 C1057 1.363 . S
C1056 C1062 1.379 . S
C1056 N1064 1.356 . S
C1057 C1056 1.363 . S
C1057 C1063 1.363 . S
C1058 C1059 1.363 . S
C1058 C1063 1.379 . S
C1058 N1065 1.356 . S
C1059 C1058 1.363 . S
C1059 C1062 1.363 . S
N1060 C1062 1.356 . S
N1060 H1072 0.984 . S
N1060 H1073 0.985 . S
N1061 C1063 1.356 . S
N1061 H1066 0.984 . S
N1061 H1067 0.985 . S
C1062 C1056 1.379 . S
C1062 C1059 1.363 . S
C1062 N1060 1.356 . S
C1063 C1057 1.363 . S
C1063 C1058 1.379 . S
C1063 N1061 1.356 . S
N1064 C1056 1.356 . S
N1064 H1070 0.984 . S
N1064 H1071 0.984 . S
N1065 C1058 1.356 . S
N1065 H1068 0.984 . S
N1065 H1069 0.985 . S
H1066 N1061 0.984 . S
H1067 N1061 0.985 . S
H1068 N1065 0.984 . S
H1069 N1065 0.985 . S
H1070 N1064 0.984 . S
H1071 N1064 0.984 . S
H1072 N1060 0.984 . S
H1073 N1060 0.985 . S
C1074 C1075 1.363 1_645 S
C1074 C1080 1.379 . S
C1074 N1082 1.356 . S
C1075 C1074 1.363 1_465 S
C1075 C1081 1.363 . S
C1076 C1077 1.363 1_465 S
C1076 C1081 1.379 . S
C1076 N1083 1.356 . S
C1077 C1076 1.363 1_645 S
C1077 C1080 1.363 . S
N1078 C1080 1.356 . S
N1078 H1090 0.984 . S
N1078 H1091 0.985 . S
N1079 C1081 1.356 . S
N1079 H1084 0.984 . S
N1079 H1085 0.985 . S
C1080 C1074 1.379 . S
C1080 C1077 1.363 . S
C1080 N1078 1.356 . S
C1081 C1075 1.363 . S
C1081 C1076 1.379 . S
C1081 N1079 1.356 . S
N1082 C1074 1.356 . S
N1082 H1088 0.984 . S
N1082 H1089 0.984 1_655 S
N1083 C1076 1.356 . S
N1083 H1086 0.984 1_455 S
N1083 H1087 0.985 . S
H1084 N1079 0.984 . S
H1085 N1079 0.985 . S
H1086 N1083 0.984 1_655 S
H1087 N1083 0.985 . S
H1088 N1082 0.984 . S
H1089 N1082 0.984 1_455 S
H1090 N1078 0.984 . S
H1091 N1078 0.985 . S
C1092 C1093 1.363 . S
C1092 C1098 1.379 . S
C1092 N1100 1.356 . S
C1093 C1092 1.363 . S
C1093 C1099 1.363 . S
C1094 C1095 1.363 . S
C1094 C1099 1.379 . S
C1094 N1101 1.356 . S
C1095 C1094 1.363 . S
C1095 C1098 1.363 . S
N1096 C1098 1.356 . S
N1096 H1108 0.984 . S
N1096 H1109 0.985 . S
N1097 C1099 1.356 . S
N1097 H1102 0.984 . S
N1097 H1103 0.985 . S
C1098 C1092 1.379 . S
C1098 C1095 1.363 . S
C1098 N1096 1.356 . S
C1099 C1093 1.363 . S
C1099 C1094 1.379 . S
C1099 N1097 1.356 . S
N1100 C1092 1.356 . S
N1100 H1106 0.984 . S
N1100 H1107 0.984 . S
N1101 C1094 1.356 . S
N1101 H1104 0.984 . S
N1101 H1105 0.985 . S
H1102 N1097 0.984 . S
H1103 N1097 0.985 . S
H1104 N1101 0.984 . S
H1105 N1101 0.985 . S
H1106 N1100 0.984 . S
H1107 N1100 0.984 . S
H1108 N1096 0.984 . S
H1109 N1096 0.985 . S
C1110 C1111 1.363 . S
C1110 C1116 1.379 1_554 S
C1110 N1118 1.356 . S
C1111 C1110 1.363 . S
C1111 C1117 1.363 1_545 S
C1112 C1113 1.363 . S
C1112 C1117 1.379 1_556 S
C1112 N1119 1.356 . S
C1113 C1112 1.363 . S
C1113 C1116 1.363 1_565 S
N1114 C1116 1.356 . S
N1114 H1126 0.984 . S
N1114 H1127 0.985 . S
N1115 C1117 1.356 . S
N1115 H1120 0.984 . S
N1115 H1121 0.985 . S
C1116 C1110 1.379 1_556 S
C1116 C1113 1.363 1_545 S
C1116 N1114 1.356 . S
C1117 C1111 1.363 1_565 S
C1117 C1112 1.379 1_554 S
C1117 N1115 1.356 . S
N1118 C1110 1.356 . S
N1118 H1124 0.984 1_554 S
N1118 H1125 0.984 . S
N1119 C1112 1.356 . S
N1119 H1122 0.984 . S
N1119 H1123 0.985 1_556 S
H1120 N1115 0.984 . S
H1121 N1115 0.985 . S
H1122 N1119 0.984 . S
H1123 N1119 0.985 1_554 S
H1124 N1118 0.984 1_556 S
H1125 N1118 0.984 . S
H1126 N1114 0.984 . S
H1127 N1114 0.985 . S
C1128 C1129 1.363 . S
C1128 C1134 1.379 . S
C1128 N1136 1.356 . S
C1129 C1128 1.363 . S
C1129 C1135 1.363 . S
C1130 C1131 1.363 . S
C1130 C1135 1.379 . S
C1130 N1137 1.356 . S
C1131 C1130 1.363 . S
C1131 C1134 1.363 . S
N1132 C1134 1.356 . S
N1132 H1144 0.984 . S
N1132 H1145 0.985 . S
N1133 C1135 1.356 . S
N1133 H1138 0.984 . S
N1133 H1139 0.985 . S
C1134 C1128 1.379 . S
C1134 C1131 1.363 . S
C1134 N1132 1.356 . S
C1135 C1129 1.363 . S
C1135 C1130 1.379 . S
C1135 N1133 1.356 . S
N1136 C1128 1.356 . S
N1136 H1142 0.984 . S
N1136 H1143 0.984 . S
N1137 C1130 1.356 . S
N1137 H1140 0.984 . S
N1137 H1141 0.985 . S
H1138 N1133 0.984 . S
H1139 N1133 0.985 . S
H1140 N1137 0.984 . S
H1141 N1137 0.985 . S
H1142 N1136 0.984 . S
H1143 N1136 0.984 . S
H1144 N1132 0.984 . S
H1145 N1132 0.985 . S
C1146 C1147 1.363 1_545 S
C1146 C1152 1.379 . S
C1146 N1154 1.356 . S
C1147 C1146 1.363 1_565 S
C1147 C1153 1.363 . S
C1148 C1149 1.363 1_565 S
C1148 C1153 1.379 . S
C1148 N1155 1.356 . S
C1149 C1148 1.363 1_545 S
C1149 C1152 1.363 . S
N1150 C1152 1.356 . S
N1150 H1162 0.984 . S
N1150 H1163 0.985 . S
N1151 C1153 1.356 . S
N1151 H1156 0.984 . S
N1151 H1157 0.985 . S
C1152 C1146 1.379 . S
C1152 C1149 1.363 . S
C1152 N1150 1.356 . S
C1153 C1147 1.363 . S
C1153 C1148 1.379 . S
C1153 N1151 1.356 . S
N1154 C1146 1.356 . S
N1154 H1160 0.984 . S
N1154 H1161 0.984 . S
N1155 C1148 1.356 . S
N1155 H1158 0.984 . S
N1155 H1159 0.985 . S
H1156 N1151 0.984 . S
H1157 N1151 0.985 . S
H1158 N1155 0.984 . S
H1159 N1155 0.985 . S
H1160 N1154 0.984 . S
H1161 N1154 0.984 . S
H1162 N1150 0.984 . S
H1163 N1150 0.985 . S
C1164 C1165 1.363 . S
C1164 C1170 1.379 . S
C1164 N1172 1.356 . S
C1165 C1164 1.363 . S
C1165 C1171 1.363 . S
C1166 C1167 1.363 . S
C1166 C1171 1.379 . S
C1166 N1173 1.356 . S
C1167 C1166 1.363 . S
C1167 C1170 1.363 . S
N1168 C1170 1.356 . S
N1168 H1180 0.984 . S
N1168 H1181 0.985 . S
N1169 C1171 1.356 . S
N1169 H1174 0.984 . S
N1169 H1175 0.985 . S
C1170 C1164 1.379 . S
C1170 C1167 1.363 . S
C1170 N1168 1.356 . S
C1171 C1165 1.363 . S
C1171 C1166 1.379 . S
C1171 N1169 1.356 . S
N1172 C1164 1.356 . S
N1172 H1178 0.984 . S
N1172 H1179 0.984 . S
N1173 C1166 1.356 . S
N1173 H1176 0.984 . S
N1173 H1177 0.985 . S
H1174 N1169 0.984 . S
H1175 N1169 0.985 . S
H1176 N1173 0.984 . S
H1177 N1173 0.985 . S
H1178 N1172 0.984 . S
H1179 N1172 0.984 . S
H1180 N1168 0.984 . S
H1181 N1168 0.985 . S
C1182 C1183 1.363 1_665 S
C1182 C1188 1.379 1_556 S
C1182 N1190 1.356 . S
C1183 C1182 1.363 1_445 S
C1183 C1189 1.363 . S
C1184 C1185 1.363 1_445 S
C1184 C1189 1.379 1_554 S
C1184 N1191 1.356 . S
C1185 C1184 1.363 1_665 S
C1185 C1188 1.363 . S
N1186 C1188 1.356 . S
N1186 H1198 0.984 1_554 S
N1186 H1199 0.985 . S
N1187 C1189 1.356 . S
N1187 H1192 0.984 . S
N1187 H1193 0.985 1_556 S
C1188 C1182 1.379 1_554 S
C1188 C1185 1.363 . S
C1188 N1186 1.356 . S
C1189 C1183 1.363 . S
C1189 C1184 1.379 1_556 S
C1189 N1187 1.356 . S
N1190 C1182 1.356 . S
N1190 H1196 0.984 . S
N1190 H1197 0.984 1_655 S
N1191 C1184 1.356 . S
N1191 H1194 0.984 1_455 S
N1191 H1195 0.985 . S
H1192 N1187 0.984 . S
H1193 N1187 0.985 1_554 S
H1194 N1191 0.984 1_655 S
H1195 N1191 0.985 . S
H1196 N1190 0.984 . S
H1197 N1190 0.984 1_455 S
H1198 N1186 0.984 1_556 S
H1199 N1186 0.985 . S
C1200 C1201 1.363 . S
C1200 C1206 1.379 . S
C1200 N1208 1.356 . S
C1201 C1200 1.363 . S
C1201 C1207 1.363 . S
C1202 C1203 1.363 . S
C1202 C1207 1.379 . S
C1202 N1209 1.356 . S
C1203 C1202 1.363 . S
C1203 C1206 1.363 . S
N1204 C1206 1.356 . S
N1204 H1216 0.984 . S
N1204 H1217 0.985 . S
N1205 C1207 1.356 . S
N1205 H1210 0.984 . S
N1205 H1211 0.985 . S
C1206 C1200 1.379 . S
C1206 C1203 1.363 . S
C1206 N1204 1.356 . S
C1207 C1201 1.363 . S
C1207 C1202 1.379 . S
C1207 N1205 1.356 . S
N1208 C1200 1.356 . S
N1208 H1214 0.984 . S
N1208 H1215 0.984 . S
N1209 C1202 1.356 . S
N1209 H1212 0.984 . S
N1209 H1213 0.985 . S
H1210 N1205 0.984 . S
H1211 N1205 0.985 . S
H1212 N1209 0.984 . S
H1213 N1209 0.985 . S
H1214 N1208 0.984 . S
H1215 N1208 0.984 . S
H1216 N1204 0.984 . S
H1217 N1204 0.985 . S
C1218 C1219 1.363 . S
C1218 C1224 1.379 . S
C1218 N1226 1.356 . S
C1219 C1218 1.363 . S
C1219 C1225 1.363 . S
C1220 C1221 1.363 . S
C1220 C1225 1.379 . S
C1220 N1227 1.356 . S
C1221 C1220 1.363 . S
C1221 C1224 1.363 . S
N1222 C1224 1.356 . S
N1222 H1234 0.984 . S
N1222 H1235 0.985 . S
N1223 C1225 1.356 . S
N1223 H1228 0.984 . S
N1223 H1229 0.985 . S
C1224 C1218 1.379 . S
C1224 C1221 1.363 . S
C1224 N1222 1.356 . S
C1225 C1219 1.363 . S
C1225 C1220 1.379 . S
C1225 N1223 1.356 . S
N1226 C1218 1.356 . S
N1226 H1232 0.984 . S
N1226 H1233 0.984 . S
N1227 C1220 1.356 . S
N1227 H1230 0.984 . S
N1227 H1231 0.985 . S
H1228 N1223 0.984 . S
H1229 N1223 0.985 . S
H1230 N1227 0.984 . S
H1231 N1227 0.985 . S
H1232 N1226 0.984 . S
H1233 N1226 0.984 . S
H1234 N1222 0.984 . S
H1235 N1222 0.985 . S
C1236 C1237 1.363 . S
C1236 C1242 1.379 . S
C1236 N1244 1.356 . S
C1237 C1236 1.363 . S
C1237 C1243 1.363 . S
C1238 C1239 1.363 . S
C1238 C1243 1.379 . S
C1238 N1245 1.356 . S
C1239 C1238 1.363 . S
C1239 C1242 1.363 . S
N1240 C1242 1.356 . S
N1240 H1252 0.984 . S
N1240 H1253 0.985 . S
N1241 C1243 1.356 . S
N1241 H1246 0.984 . S
N1241 H1247 0.985 . S
C1242 C1236 1.379 . S
C1242 C1239 1.363 . S
C1242 N1240 1.356 . S
C1243 C1237 1.363 . S
C1243 C1238 1.379 . S
C1243 N1241 1.356 . S
N1244 C1236 1.356 . S
N1244 H1250 0.984 . S
N1244 H1251 0.984 . S
N1245 C1238 1.356 . S
N1245 H1248 0.984 . S
N1245 H1249 0.985 . S
H1246 N1241 0.984 . S
H1247 N1241 0.985 . S
H1248 N1245 0.984 . S
H1249 N1245 0.985 . S
H1250 N1244 0.984 . S
H1251 N1244 0.984 . S
H1252 N1240 0.984 . S
H1253 N1240 0.985 . S
C1254 C1255 1.363 . S
C1254 C1260 1.379 . S
C1254 N1262 1.356 . S
C1255 C1254 1.363 . S
C1255 C1261 1.363 . S
C1256 C1257 1.363 . S
C1256 C1261 1.379 . S
C1256 N1263 1.356 . S
C1257 C1256 1.363 . S
C1257 C1260 1.363 . S
N1258 C1260 1.356 . S
N1258 H1270 0.984 . S
N1258 H1271 0.985 . S
N1259 C1261 1.356 . S
N1259 H1264 0.984 . S
N1259 H1265 0.985 . S
C1260 C1254 1.379 . S
C1260 C1257 1.363 . S
C1260 N1258 1.356 . S
C1261 C1255 1.363 . S
C1261 C1256 1.379 . S
C1261 N1259 1.356 . S
N1262 C1254 1.356 . S
N1262 H1268 0.984 . S
N1262 H1269 0.984 . S
N1263 C1256 1.356 . S
N1263 H1266 0.984 . S
N1263 H1267 0.985 . S
H1264 N1259 0.984 . S
H1265 N1259 0.985 . S
H1266 N1263 0.984 . S
H1267 N1263 0.985 . S
H1268 N1262 0.984 . S
H1269 N1262 0.984 . S
H1270 N1258 0.984 . S
H1271 N1258 0.985 . S
C1272 C1273 1.363 . S
C1272 C1278 1.379 1_556 S
C1272 N1280 1.356 . S
C1273 C1272 1.363 . S
C1273 C1279 1.363 . S
C1274 C1275 1.363 . S
C1274 C1279 1.379 1_554 S
C1274 N1281 1.356 . S
C1275 C1274 1.363 . S
C1275 C1278 1.363 . S
N1276 C1278 1.356 . S
N1276 H1288 0.984 . S
N1276 H1289 0.985 . S
N1277 C1279 1.356 . S
N1277 H1282 0.984 . S
N1277 H1283 0.985 . S
C1278 C1272 1.379 1_554 S
C1278 C1275 1.363 . S
C1278 N1276 1.356 . S
C1279 C1273 1.363 . S
C1279 C1274 1.379 1_556 S
C1279 N1277 1.356 . S
N1280 C1272 1.356 . S
N1280 H1286 0.984 . S
N1280 H1287 0.984 . S
N1281 C1274 1.356 . S
N1281 H1284 0.984 . S
N1281 H1285 0.985 . S
H1282 N1277 0.984 . S
H1283 N1277 0.985 . S
H1284 N1281 0.984 . S
H1285 N1281 0.985 . S
H1286 N1280 0.984 . S
H1287 N1280 0.984 . S
H1288 N1276 0.984 . S
H1289 N1276 0.985 . S
C1290 C1291 1.363 . S
C1290 C1296 1.379 . S
C1290 N1298 1.356 . S
C1291 C1290 1.363 . S
C1291 C1297 1.363 1_655 S
C1292 C1293 1.363 . S
C1292 C1297 1.379 . S
C1292 N1299 1.356 . S
C1293 C1292 1.363 . S
C1293 C1296 1.363 1_455 S
N1294 C1296 1.356 . S
N1294 H1306 0.984 . S
N1294 H1307 0.985 . S
N1295 C1297 1.356 . S
N1295 H1300 0.984 . S
N1295 H1301 0.985 . S
C1296 C1290 1.379 . S
C1296 C1293 1.363 1_655 S
C1296 N1294 1.356 . S
C1297 C1291 1.363 1_455 S
C1297 C1292 1.379 . S
C1297 N1295 1.356 . S
N1298 C1290 1.356 . S
N1298 H1304 0.984 . S
N1298 H1305 0.984 . S
N1299 C1292 1.356 . S
N1299 H1302 0.984 . S
N1299 H1303 0.985 . S
H1300 N1295 0.984 . S
H1301 N1295 0.985 . S
H1302 N1299 0.984 . S
H1303 N1299 0.985 . S
H1304 N1298 0.984 . S
H1305 N1298 0.984 . S
H1306 N1294 0.984 . S
H1307 N1294 0.985 . S
C1308 C1309 1.363 1_655 S
C1308 C1314 1.379 1_554 S
C1308 N1316 1.356 . S
C1309 C1308 1.363 1_455 S
C1309 C1315 1.363 . S
C1310 C1311 1.363 1_455 S
C1310 C1315 1.379 1_556 S
C1310 N1317 1.356 . S
C1311 C1310 1.363 1_655 S
C1311 C1314 1.363 . S
N1312 C1314 1.356 . S
N1312 H1324 0.984 . S
N1312 H1325 0.985 . S
N1313 C1315 1.356 . S
N1313 H1318 0.984 . S
N1313 H1319 0.985 . S
C1314 C1308 1.379 1_556 S
C1314 C1311 1.363 . S
C1314 N1312 1.356 . S
C1315 C1309 1.363 . S
C1315 C1310 1.379 1_554 S
C1315 N1313 1.356 . S
N1316 C1308 1.356 . S
N1316 H1322 0.984 . S
N1316 H1323 0.984 1_655 S
N1317 C1310 1.356 . S
N1317 H1320 0.984 1_455 S
N1317 H1321 0.985 . S
H1318 N1313 0.984 . S
H1319 N1313 0.985 . S
H1320 N1317 0.984 1_655 S
H1321 N1317 0.985 . S
H1322 N1316 0.984 . S
H1323 N1316 0.984 1_455 S
H1324 N1312 0.984 . S
H1325 N1312 0.985 . S
C1326 C1327 1.363 . S
C1326 C1332 1.379 . S
C1326 N1334 1.356 . S
C1327 C1326 1.363 . S
C1327 C1333 1.363 . S
C1328 C1329 1.363 . S
C1328 C1333 1.379 . S
C1328 N1335 1.356 . S
C1329 C1328 1.363 . S
C1329 C1332 1.363 . S
N1330 C1332 1.356 . S
N1330 H1342 0.984 . S
N1330 H1343 0.985 . S
N1331 C1333 1.356 . S
N1331 H1336 0.984 . S
N1331 H1337 0.985 . S
C1332 C1326 1.379 . S
C1332 C1329 1.363 . S
C1332 N1330 1.356 . S
C1333 C1327 1.363 . S
C1333 C1328 1.379 . S
C1333 N1331 1.356 . S
N1334 C1326 1.356 . S
N1334 H1340 0.984 . S
N1334 H1341 0.984 . S
N1335 C1328 1.356 . S
N1335 H1338 0.984 . S
N1335 H1339 0.985 . S
H1336 N1331 0.984 . S
H1337 N1331 0.985 . S
H1338 N1335 0.984 . S
H1339 N1335 0.985 . S
H1340 N1334 0.984 . S
H1341 N1334 0.984 . S
H1342 N1330 0.984 . S
H1343 N1330 0.985 . S
C1344 C1345 1.363 . S
C1344 C1350 1.379 . S
C1344 N1352 1.356 . S
C1345 C1344 1.363 . S
C1345 C1351 1.363 . S
C1346 C1347 1.363 . S
C1346 C1351 1.379 . S
C1346 N1353 1.356 . S
C1347 C1346 1.363 . S
C1347 C1350 1.363 . S
N1348 C1350 1.356 . S
N1348 H1360 0.984 . S
N1348 H1361 0.985 . S
N1349 C1351 1.356 . S
N1349 H1354 0.984 . S
N1349 H1355 0.985 . S
C1350 C1344 1.379 . S
C1350 C1347 1.363 . S
C1350 N1348 1.356 . S
C1351 C1345 1.363 . S
C1351 C1346 1.379 . S
C1351 N1349 1.356 . S
N1352 C1344 1.356 . S
N1352 H1358 0.984 . S
N1352 H1359 0.984 . S
N1353 C1346 1.356 . S
N1353 H1356 0.984 . S
N1353 H1357 0.985 . S
H1354 N1349 0.984 . S
H1355 N1349 0.985 . S
H1356 N1353 0.984 . S
H1357 N1353 0.985 . S
H1358 N1352 0.984 . S
H1359 N1352 0.984 . S
H1360 N1348 0.984 . S
H1361 N1348 0.985 . S
C1362 C1363 1.363 . S
C1362 C1368 1.379 . S
C1362 N1370 1.356 . S
C1363 C1362 1.363 . S
C1363 C1369 1.363 . S
C1364 C1365 1.363 . S
C1364 C1369 1.379 . S
C1364 N1371 1.356 . S
C1365 C1364 1.363 . S
C1365 C1368 1.363 . S
N1366 C1368 1.356 . S
N1366 H1378 0.984 . S
N1366 H1379 0.985 . S
N1367 C1369 1.356 . S
N1367 H1372 0.984 . S
N1367 H1373 0.985 . S
C1368 C1362 1.379 . S
C1368 C1365 1.363 . S
C1368 N1366 1.356 . S
C1369 C1363 1.363 . S
C1369 C1364 1.379 . S
C1369 N1367 1.356 . S
N1370 C1362 1.356 . S
N1370 H1376 0.984 . S
N1370 H1377 0.984 . S
N1371 C1364 1.356 . S
N1371 H1374 0.984 . S
N1371 H1375 0.985 . S
H1372 N1367 0.984 . S
H1373 N1367 0.985 . S
H1374 N1371 0.984 . S
H1375 N1371 0.985 . S
H1376 N1370 0.984 . S
H1377 N1370 0.984 . S
H1378 N1366 0.984 . S
H1379 N1366 0.985 . S
C1380 C1381 1.363 . S
C1380 C1386 1.379 . S
C1380 N1388 1.356 . S
C1381 C1380 1.363 . S
C1381 C1387 1.363 . S
C1382 C1383 1.363 . S
C1382 C1387 1.379 . S
C1382 N1389 1.356 . S
C1383 C1382 1.363 . S
C1383 C1386 1.363 . S
N1384 C1386 1.356 . S
N1384 H1396 0.984 . S
N1384 H1397 0.985 . S
N1385 C1387 1.356 . S
N1385 H1390 0.984 . S
N1385 H1391 0.985 . S
C1386 C1380 1.379 . S
C1386 C1383 1.363 . S
C1386 N1384 1.356 . S
C1387 C1381 1.363 . S
C1387 C1382 1.379 . S
C1387 N1385 1.356 . S
N1388 C1380 1.356 . S
N1388 H1394 0.984 . S
N1388 H1395 0.984 . S
N1389 C1382 1.356 . S
N1389 H1392 0.984 . S
N1389 H1393 0.985 . S
H1390 N1385 0.984 . S
H1391 N1385 0.985 . S
H1392 N1389 0.984 . S
H1393 N1389 0.985 . S
H1394 N1388 0.984 . S
H1395 N1388 0.984 . S
H1396 N1384 0.984 . S
H1397 N1384 0.985 . S
C1398 C1399 1.363 . S
C1398 C1404 1.379 . S
C1398 N1406 1.356 . S
C1399 C1398 1.363 . S
C1399 C1405 1.363 . S
C1400 C1401 1.363 . S
C1400 C1405 1.379 . S
C1400 N1407 1.356 . S
C1401 C1400 1.363 . S
C1401 C1404 1.363 . S
N1402 C1404 1.356 . S
N1402 H1414 0.984 . S
N1402 H1415 0.985 . S
N1403 C1405 1.356 . S
N1403 H1408 0.984 . S
N1403 H1409 0.985 . S
C1404 C1398 1.379 . S
C1404 C1401 1.363 . S
C1404 N1402 1.356 . S
C1405 C1399 1.363 . S
C1405 C1400 1.379 . S
C1405 N1403 1.356 . S
N1406 C1398 1.356 . S
N1406 H1412 0.984 . S
N1406 H1413 0.984 . S
N1407 C1400 1.356 . S
N1407 H1410 0.984 . S
N1407 H1411 0.985 . S
H1408 N1403 0.984 . S
H1409 N1403 0.985 . S
H1410 N1407 0.984 . S
H1411 N1407 0.985 . S
H1412 N1406 0.984 . S
H1413 N1406 0.984 . S
H1414 N1402 0.984 . S
H1415 N1402 0.985 . S
C1416 C1417 1.363 . S
C1416 C1422 1.379 . S
C1416 N1424 1.356 . S
C1417 C1416 1.363 . S
C1417 C1423 1.363 . S
C1418 C1419 1.363 . S
C1418 C1423 1.379 . S
C1418 N1425 1.356 . S
C1419 C1418 1.363 . S
C1419 C1422 1.363 . S
N1420 C1422 1.356 . S
N1420 H1432 0.984 . S
N1420 H1433 0.985 . S
N1421 C1423 1.356 . S
N1421 H1426 0.984 . S
N1421 H1427 0.985 . S
C1422 C1416 1.379 . S
C1422 C1419 1.363 . S
C1422 N1420 1.356 . S
C1423 C1417 1.363 . S
C1423 C1418 1.379 . S
C1423 N1421 1.356 . S
N1424 C1416 1.356 . S
N1424 H1430 0.984 . S
N1424 H1431 0.984 . S
N1425 C1418 1.356 . S
N1425 H1428 0.984 . S
N1425 H1429 0.985 . S
H1426 N1421 0.984 . S
H1427 N1421 0.985 . S
H1428 N1425 0.984 . S
H1429 N1425 0.985 . S
H1430 N1424 0.984 . S
H1431 N1424 0.984 . S
H1432 N1420 0.984 . S
H1433 N1420 0.985 . S
C1434 C1435 1.363 . S
C1434 C1440 1.379 . S
C1434 N1442 1.356 . S
C1435 C1434 1.363 . S
C1435 C1441 1.363 . S
C1436 C1437 1.363 . S
C1436 C1441 1.379 . S
C1436 N1443 1.356 . S
C1437 C1436 1.363 . S
C1437 C1440 1.363 . S
N1438 C1440 1.356 . S
N1438 H1450 0.984 . S
N1438 H1451 0.985 . S
N1439 C1441 1.356 . S
N1439 H1444 0.984 . S
N1439 H1445 0.985 . S
C1440 C1434 1.379 . S
C1440 C1437 1.363 . S
C1440 N1438 1.356 . S
C1441 C1435 1.363 . S
C1441 C1436 1.379 . S
C1441 N1439 1.356 . S
N1442 C1434 1.356 . S
N1442 H1448 0.984 . S
N1442 H1449 0.984 . S
N1443 C1436 1.356 . S
N1443 H1446 0.984 . S
N1443 H1447 0.985 . S
H1444 N1439 0.984 . S
H1445 N1439 0.985 . S
H1446 N1443 0.984 . S
H1447 N1443 0.985 . S
H1448 N1442 0.984 . S
H1449 N1442 0.984 . S
H1450 N1438 0.984 . S
H1451 N1438 0.985 . S
C1452 C1453 1.363 . S
C1452 C1458 1.379 . S
C1452 N1460 1.356 . S
C1453 C1452 1.363 . S
C1453 C1459 1.363 . S
C1454 C1455 1.363 . S
C1454 C1459 1.379 . S
C1454 N1461 1.356 . S
C1455 C1454 1.363 . S
C1455 C1458 1.363 . S
N1456 C1458 1.356 . S
N1456 H1468 0.984 . S
N1456 H1469 0.985 . S
N1457 C1459 1.356 . S
N1457 H1462 0.984 . S
N1457 H1463 0.985 . S
C1458 C1452 1.379 . S
C1458 C1455 1.363 . S
C1458 N1456 1.356 . S
C1459 C1453 1.363 . S
C1459 C1454 1.379 . S
C1459 N1457 1.356 . S
N1460 C1452 1.356 . S
N1460 H1466 0.984 . S
N1460 H1467 0.984 . S
N1461 C1454 1.356 . S
N1461 H1464 0.984 . S
N1461 H1465 0.985 . S
H1462 N1457 0.984 . S
H1463 N1457 0.985 . S
H1464 N1461 0.984 . S
H1465 N1461 0.985 . S
H1466 N1460 0.984 . S
H1467 N1460 0.984 . S
H1468 N1456 0.984 . S
H1469 N1456 0.985 . S
C1470 C1471 1.363 . S
C1470 C1476 1.379 . S
C1470 N1478 1.356 . S
C1471 C1470 1.363 . S
C1471 C1477 1.363 . S
C1472 C1473 1.363 . S
C1472 C1477 1.379 . S
C1472 N1479 1.356 . S
C1473 C1472 1.363 . S
C1473 C1476 1.363 . S
N1474 C1476 1.356 . S
N1474 H1486 0.984 . S
N1474 H1487 0.985 . S
N1475 C1477 1.356 . S
N1475 H1480 0.984 . S
N1475 H1481 0.985 . S
C1476 C1470 1.379 . S
C1476 C1473 1.363 . S
C1476 N1474 1.356 . S
C1477 C1471 1.363 . S
C1477 C1472 1.379 . S
C1477 N1475 1.356 . S
N1478 C1470 1.356 . S
N1478 H1484 0.984 . S
N1478 H1485 0.984 . S
N1479 C1472 1.356 . S
N1479 H1482 0.984 . S
N1479 H1483 0.985 . S
H1480 N1475 0.984 . S
H1481 N1475 0.985 . S
H1482 N1479 0.984 . S
H1483 N1479 0.985 . S
H1484 N1478 0.984 . S
H1485 N1478 0.984 . S
H1486 N1474 0.984 . S
H1487 N1474 0.985 . S
C1488 C1489 1.363 . S
C1488 C1494 1.379 . S
C1488 N1496 1.356 . S
C1489 C1488 1.363 . S
C1489 C1495 1.363 . S
C1490 C1491 1.363 . S
C1490 C1495 1.379 . S
C1490 N1497 1.356 . S
C1491 C1490 1.363 . S
C1491 C1494 1.363 . S
N1492 C1494 1.356 . S
N1492 H1504 0.984 . S
N1492 H1505 0.985 . S
N1493 C1495 1.356 . S
N1493 H1498 0.984 . S
N1493 H1499 0.985 . S
C1494 C1488 1.379 . S
C1494 C1491 1.363 . S
C1494 N1492 1.356 . S
C1495 C1489 1.363 . S
C1495 C1490 1.379 . S
C1495 N1493 1.356 . S
N1496 C1488 1.356 . S
N1496 H1502 0.984 . S
N1496 H1503 0.984 . S
N1497 C1490 1.356 . S
N1497 H1500 0.984 . S
N1497 H1501 0.985 . S
H1498 N1493 0.984 . S
H1499 N1493 0.985 . S
H1500 N1497 0.984 . S
H1501 N1497 0.985 . S
H1502 N1496 0.984 . S
H1503 N1496 0.984 . S
H1504 N1492 0.984 . S
H1505 N1492 0.985 . S
C1506 C1507 1.363 . S
C1506 C1512 1.379 . S
C1506 N1514 1.356 . S
C1507 C1506 1.363 . S
C1507 C1513 1.363 . S
C1508 C1509 1.363 . S
C1508 C1513 1.379 . S
C1508 N1515 1.356 . S
C1509 C1508 1.363 . S
C1509 C1512 1.363 . S
N1510 C1512 1.356 . S
N1510 H1522 0.984 . S
N1510 H1523 0.985 . S
N1511 C1513 1.356 . S
N1511 H1516 0.984 . S
N1511 H1517 0.985 . S
C1512 C1506 1.379 . S
C1512 C1509 1.363 . S
C1512 N1510 1.356 . S
C1513 C1507 1.363 . S
C1513 C1508 1.379 . S
C1513 N1511 1.356 . S
N1514 C1506 1.356 . S
N1514 H1520 0.984 . S
N1514 H1521 0.984 . S
N1515 C1508 1.356 . S
N1515 H1518 0.984 . S
N1515 H1519 0.985 . S
H1516 N1511 0.984 . S
H1517 N1511 0.985 . S
H1518 N1515 0.984 . S
H1519 N1515 0.985 . S
H1520 N1514 0.984 . S
H1521 N1514 0.984 . S
H1522 N1510 0.984 . S
H1523 N1510 0.985 . S
C1524 C1525 1.363 . S
C1524 C1530 1.379 . S
C1524 N1532 1.356 . S
C1525 C1524 1.363 . S
C1525 C1531 1.363 . S
C1526 C1527 1.363 . S
C1526 C1531 1.379 . S
C1526 N1533 1.356 . S
C1527 C1526 1.363 . S
C1527 C1530 1.363 . S
N1528 C1530 1.356 . S
N1528 H1540 0.984 . S
N1528 H1541 0.985 . S
N1529 C1531 1.356 . S
N1529 H1534 0.984 . S
N1529 H1535 0.985 . S
C1530 C1524 1.379 . S
C1530 C1527 1.363 . S
C1530 N1528 1.356 . S
C1531 C1525 1.363 . S
C1531 C1526 1.379 . S
C1531 N1529 1.356 . S
N1532 C1524 1.356 . S
N1532 H1538 0.984 . S
N1532 H1539 0.984 . S
N1533 C1526 1.356 . S
N1533 H1536 0.984 . S
N1533 H1537 0.985 . S
H1534 N1529 0.984 . S
H1535 N1529 0.985 . S
H1536 N1533 0.984 . S
H1537 N1533 0.985 . S
H1538 N1532 0.984 . S
H1539 N1532 0.984 . S
H1540 N1528 0.984 . S
H1541 N1528 0.985 . S
C1542 C1543 1.363 . S
C1542 C1548 1.379 . S
C1542 N1550 1.356 . S
C1543 C1542 1.363 . S
C1543 C1549 1.363 . S
C1544 C1545 1.363 . S
C1544 C1549 1.379 . S
C1544 N1551 1.356 . S
C1545 C1544 1.363 . S
C1545 C1548 1.363 . S
N1546 C1548 1.356 . S
N1546 H1558 0.984 . S
N1546 H1559 0.985 . S
N1547 C1549 1.356 . S
N1547 H1552 0.984 . S
N1547 H1553 0.985 . S
C1548 C1542 1.379 . S
C1548 C1545 1.363 . S
C1548 N1546 1.356 . S
C1549 C1543 1.363 . S
C1549 C1544 1.379 . S
C1549 N1547 1.356 . S
N1550 C1542 1.356 . S
N1550 H1556 0.984 . S
N1550 H1557 0.984 . S
N1551 C1544 1.356 . S
N1551 H1554 0.984 . S
N1551 H1555 0.985 . S
H1552 N1547 0.984 . S
H1553 N1547 0.985 . S
H1554 N1551 0.984 . S
H1555 N1551 0.985 . S
H1556 N1550 0.984 . S
H1557 N1550 0.984 . S
H1558 N1546 0.984 . S
H1559 N1546 0.985 . S
C1560 C1561 1.363 . S
C1560 C1566 1.379 . S
C1560 N1568 1.356 . S
C1561 C1560 1.363 . S
C1561 C1567 1.363 . S
C1562 C1563 1.363 . S
C1562 C1567 1.379 . S
C1562 N1569 1.356 . S
C1563 C1562 1.363 . S
C1563 C1566 1.363 . S
N1564 C1566 1.356 . S
N1564 H1576 0.984 . S
N1564 H1577 0.985 . S
N1565 C1567 1.356 . S
N1565 H1570 0.984 . S
N1565 H1571 0.985 . S
C1566 C1560 1.379 . S
C1566 C1563 1.363 . S
C1566 N1564 1.356 . S
C1567 C1561 1.363 . S
C1567 C1562 1.379 . S
C1567 N1565 1.356 . S
N1568 C1560 1.356 . S
N1568 H1574 0.984 . S
N1568 H1575 0.984 . S
N1569 C1562 1.356 . S
N1569 H1572 0.984 . S
N1569 H1573 0.985 . S
H1570 N1565 0.984 . S
H1571 N1565 0.985 . S
H1572 N1569 0.984 . S
H1573 N1569 0.985 . S
H1574 N1568 0.984 . S
H1575 N1568 0.984 . S
H1576 N1564 0.984 . S
H1577 N1564 0.985 . S
C1578 C1579 1.363 . S
C1578 C1584 1.379 . S
C1578 N1586 1.356 . S
C1579 C1578 1.363 . S
C1579 C1585 1.363 . S
C1580 C1581 1.363 . S
C1580 C1585 1.379 . S
C1580 N1587 1.356 . S
C1581 C1580 1.363 . S
C1581 C1584 1.363 . S
N1582 C1584 1.356 . S
N1582 H1594 0.984 . S
N1582 H1595 0.985 . S
N1583 C1585 1.356 . S
N1583 H1588 0.984 . S
N1583 H1589 0.985 . S
C1584 C1578 1.379 . S
C1584 C1581 1.363 . S
C1584 N1582 1.356 . S
C1585 C1579 1.363 . S
C1585 C1580 1.379 . S
C1585 N1583 1.356 . S
N1586 C1578 1.356 . S
N1586 H1592 0.984 . S
N1586 H1593 0.984 . S
N1587 C1580 1.356 . S
N1587 H1590 0.984 . S
N1587 H1591 0.985 . S
H1588 N1583 0.984 . S
H1589 N1583 0.985 . S
H1590 N1587 0.984 . S
H1591 N1587 0.985 . S
H1592 N1586 0.984 . S
H1593 N1586 0.984 . S
H1594 N1582 0.984 . S
H1595 N1582 0.985 . S
C1596 C1597 1.363 . S
C1596 C1602 1.379 . S
C1596 N1604 1.356 . S
C1597 C1596 1.363 . S
C1597 C1603 1.363 . S
C1598 C1599 1.363 . S
C1598 C1603 1.379 . S
C1598 N1605 1.356 . S
C1599 C1598 1.363 . S
C1599 C1602 1.363 . S
N1600 C1602 1.356 . S
N1600 H1612 0.984 . S
N1600 H1613 0.985 . S
N1601 C1603 1.356 . S
N1601 H1606 0.984 . S
N1601 H1607 0.985 . S
C1602 C1596 1.379 . S
C1602 C1599 1.363 . S
C1602 N1600 1.356 . S
C1603 C1597 1.363 . S
C1603 C1598 1.379 . S
C1603 N1601 1.356 . S
N1604 C1596 1.356 . S
N1604 H1610 0.984 . S
N1604 H1611 0.984 . S
N1605 C1598 1.356 . S
N1605 H1608 0.984 . S
N1605 H1609 0.985 . S
H1606 N1601 0.984 . S
H1607 N1601 0.985 . S
H1608 N1605 0.984 . S
H1609 N1605 0.985 . S
H1610 N1604 0.984 . S
H1611 N1604 0.984 . S
H1612 N1600 0.984 . S
H1613 N1600 0.985 . S
C1614 C1615 1.363 . S
C1614 C1620 1.379 . S
C1614 N1622 1.356 . S
C1615 C1614 1.363 . S
C1615 C1621 1.363 . S
C1616 C1617 1.363 . S
C1616 C1621 1.379 . S
C1616 N1623 1.356 . S
C1617 C1616 1.363 . S
C1617 C1620 1.363 . S
N1618 C1620 1.356 . S
N1618 H1630 0.984 . S
N1618 H1631 0.985 . S
N1619 C1621 1.356 . S
N1619 H1624 0.984 . S
N1619 H1625 0.985 . S
C1620 C1614 1.379 . S
C1620 C1617 1.363 . S
C1620 N1618 1.356 . S
C1621 C1615 1.363 . S
C1621 C1616 1.379 . S
C1621 N1619 1.356 . S
N1622 C1614 1.356 . S
N1622 H1628 0.984 . S
N1622 H1629 0.984 . S
N1623 C1616 1.356 . S
N1623 H1626 0.984 . S
N1623 H1627 0.985 . S
H1624 N1619 0.984 . S
H1625 N1619 0.985 . S
H1626 N1623 0.984 . S
H1627 N1623 0.985 . S
H1628 N1622 0.984 . S
H1629 N1622 0.984 . S
H1630 N1618 0.984 . S
H1631 N1618 0.985 . S
C1632 C1633 1.363 . S
C1632 C1638 1.379 . S
C1632 N1640 1.356 . S
C1633 C1632 1.363 . S
C1633 C1639 1.363 . S
C1634 C1635 1.363 . S
C1634 C1639 1.379 . S
C1634 N1641 1.356 . S
C1635 C1634 1.363 . S
C1635 C1638 1.363 . S
N1636 C1638 1.356 . S
N1636 H1648 0.984 . S
N1636 H1649 0.985 . S
N1637 C1639 1.356 . S
N1637 H1642 0.984 . S
N1637 H1643 0.985 . S
C1638 C1632 1.379 . S
C1638 C1635 1.363 . S
C1638 N1636 1.356 . S
C1639 C1633 1.363 . S
C1639 C1634 1.379 . S
C1639 N1637 1.356 . S
N1640 C1632 1.356 . S
N1640 H1646 0.984 . S
N1640 H1647 0.984 . S
N1641 C1634 1.356 . S
N1641 H1644 0.984 . S
N1641 H1645 0.985 . S
H1642 N1637 0.984 . S
H1643 N1637 0.985 . S
H1644 N1641 0.984 . S
H1645 N1641 0.985 . S
H1646 N1640 0.984 . S
H1647 N1640 0.984 . S
H1648 N1636 0.984 . S
H1649 N1636 0.985 . S
C1650 C1651 1.363 . S
C1650 C1656 1.379 . S
C1650 N1658 1.356 . S
C1651 C1650 1.363 . S
C1651 C1657 1.363 . S
C1652 C1653 1.363 . S
C1652 C1657 1.379 . S
C1652 N1659 1.356 . S
C1653 C1652 1.363 . S
C1653 C1656 1.363 . S
N1654 C1656 1.356 . S
N1654 H1666 0.984 . S
N1654 H1667 0.985 . S
N1655 C1657 1.356 . S
N1655 H1660 0.984 . S
N1655 H1661 0.985 . S
C1656 C1650 1.379 . S
C1656 C1653 1.363 . S
C1656 N1654 1.356 . S
C1657 C1651 1.363 . S
C1657 C1652 1.379 . S
C1657 N1655 1.356 . S
N1658 C1650 1.356 . S
N1658 H1664 0.984 . S
N1658 H1665 0.984 . S
N1659 C1652 1.356 . S
N1659 H1662 0.984 . S
N1659 H1663 0.985 . S
H1660 N1655 0.984 . S
H1661 N1655 0.985 . S
H1662 N1659 0.984 . S
H1663 N1659 0.985 . S
H1664 N1658 0.984 . S
H1665 N1658 0.984 . S
H1666 N1654 0.984 . S
H1667 N1654 0.985 . S
C1668 C1669 1.363 . S
C1668 C1674 1.379 . S
C1668 N1676 1.356 . S
C1669 C1668 1.363 . S
C1669 C1675 1.363 . S
C1670 C1671 1.363 . S
C1670 C1675 1.379 . S
C1670 N1677 1.356 . S
C1671 C1670 1.363 . S
C1671 C1674 1.363 . S
N1672 C1674 1.356 . S
N1672 H1684 0.984 . S
N1672 H1685 0.985 . S
N1673 C1675 1.356 . S
N1673 H1678 0.984 . S
N1673 H1679 0.985 . S
C1674 C1668 1.379 . S
C1674 C1671 1.363 . S
C1674 N1672 1.356 . S
C1675 C1669 1.363 . S
C1675 C1670 1.379 . S
C1675 N1673 1.356 . S
N1676 C1668 1.356 . S
N1676 H1682 0.984 . S
N1676 H1683 0.984 . S
N1677 C1670 1.356 . S
N1677 H1680 0.984 . S
N1677 H1681 0.985 . S
H1678 N1673 0.984 . S
H1679 N1673 0.985 . S
H1680 N1677 0.984 . S
H1681 N1677 0.985 . S
H1682 N1676 0.984 . S
H1683 N1676 0.984 . S
H1684 N1672 0.984 . S
H1685 N1672 0.985 . S
C1686 C1687 1.363 . S
C1686 C1692 1.379 . S
C1686 N1694 1.356 . S
C1687 C1686 1.363 . S
C1687 C1693 1.363 . S
C1688 C1689 1.363 . S
C1688 C1693 1.379 . S
C1688 N1695 1.356 . S
C1689 C1688 1.363 . S
C1689 C1692 1.363 . S
N1690 C1692 1.356 . S
N1690 H1702 0.984 . S
N1690 H1703 0.985 . S
N1691 C1693 1.356 . S
N1691 H1696 0.984 . S
N1691 H1697 0.985 . S
C1692 C1686 1.379 . S
C1692 C1689 1.363 . S
C1692 N1690 1.356 . S
C1693 C1687 1.363 . S
C1693 C1688 1.379 . S
C1693 N1691 1.356 . S
N1694 C1686 1.356 . S
N1694 H1700 0.984 . S
N1694 H1701 0.984 . S
N1695 C1688 1.356 . S
N1695 H1698 0.984 . S
N1695 H1699 0.985 . S
H1696 N1691 0.984 . S
H1697 N1691 0.985 . S
H1698 N1695 0.984 . S
H1699 N1695 0.985 . S
H1700 N1694 0.984 . S
H1701 N1694 0.984 . S
H1702 N1690 0.984 . S
H1703 N1690 0.985 . S
C1704 C1705 1.363 . S
C1704 C1710 1.379 . S
C1704 N1712 1.356 . S
C1705 C1704 1.363 . S
C1705 C1711 1.363 . S
C1706 C1707 1.363 . S
C1706 C1711 1.379 . S
C1706 N1713 1.356 . S
C1707 C1706 1.363 . S
C1707 C1710 1.363 . S
N1708 C1710 1.356 . S
N1708 H1720 0.984 . S
N1708 H1721 0.985 . S
N1709 C1711 1.356 . S
N1709 H1714 0.984 . S
N1709 H1715 0.985 . S
C1710 C1704 1.379 . S
C1710 C1707 1.363 . S
C1710 N1708 1.356 . S
C1711 C1705 1.363 . S
C1711 C1706 1.379 . S
C1711 N1709 1.356 . S
N1712 C1704 1.356 . S
N1712 H1718 0.984 . S
N1712 H1719 0.984 . S
N1713 C1706 1.356 . S
N1713 H1716 0.984 . S
N1713 H1717 0.985 . S
H1714 N1709 0.984 . S
H1715 N1709 0.985 . S
H1716 N1713 0.984 . S
H1717 N1713 0.985 . S
H1718 N1712 0.984 . S
H1719 N1712 0.984 . S
H1720 N1708 0.984 . S
H1721 N1708 0.985 . S
C1722 C1723 1.363 . S
C1722 C1728 1.379 . S
C1722 N1730 1.356 . S
C1723 C1722 1.363 . S
C1723 C1729 1.363 . S
C1724 C1725 1.363 . S
C1724 C1729 1.379 . S
C1724 N1731 1.356 . S
C1725 C1724 1.363 . S
C1725 C1728 1.363 . S
N1726 C1728 1.356 . S
N1726 H1738 0.984 . S
N1726 H1739 0.985 . S
N1727 C1729 1.356 . S
N1727 H1732 0.984 . S
N1727 H1733 0.985 . S
C1728 C1722 1.379 . S
C1728 C1725 1.363 . S
C1728 N1726 1.356 . S
C1729 C1723 1.363 . S
C1729 C1724 1.379 . S
C1729 N1727 1.356 . S
N1730 C1722 1.356 . S
N1730 H1736 0.984 . S
N1730 H1737 0.984 . S
N1731 C1724 1.356 . S
N1731 H1734 0.984 . S
N1731 H1735 0.985 . S
H1732 N1727 0.984 . S
H1733 N1727 0.985 . S
H1734 N1731 0.984 . S
H1735 N1731 0.985 . S
H1736 N1730 0.984 . S
H1737 N1730 0.984 . S
H1738 N1726 0.984 . S
H1739 N1726 0.985 . S
C1740 C1741 1.363 . S
C1740 C1746 1.379 . S
C1740 N1748 1.356 . S
C1741 C1740 1.363 . S
C1741 C1747 1.363 . S
C1742 C1743 1.363 . S
C1742 C1747 1.379 . S
C1742 N1749 1.356 . S
C1743 C1742 1.363 . S
C1743 C1746 1.363 . S
N1744 C1746 1.356 . S
N1744 H1756 0.984 . S
N1744 H1757 0.985 . S
N1745 C1747 1.356 . S
N1745 H1750 0.984 . S
N1745 H1751 0.985 . S
C1746 C1740 1.379 . S
C1746 C1743 1.363 . S
C1746 N1744 1.356 . S
C1747 C1741 1.363 . S
C1747 C1742 1.379 . S
C1747 N1745 1.356 . S
N1748 C1740 1.356 . S
N1748 H1754 0.984 . S
N1748 H1755 0.984 . S
N1749 C1742 1.356 . S
N1749 H1752 0.984 . S
N1749 H1753 0.985 . S
H1750 N1745 0.984 . S
H1751 N1745 0.985 . S
H1752 N1749 0.984 . S
H1753 N1749 0.985 . S
H1754 N1748 0.984 . S
H1755 N1748 0.984 . S
H1756 N1744 0.984 . S
H1757 N1744 0.985 . S
C1758 C1759 1.363 . S
C1758 C1764 1.379 . S
C1758 N1766 1.356 . S
C1759 C1758 1.363 . S
C1759 C1765 1.363 . S
C1760 C1761 1.363 . S
C1760 C1765 1.379 . S
C1760 N1767 1.356 . S
C1761 C1760 1.363 . S
C1761 C1764 1.363 . S
N1762 C1764 1.356 . S
N1762 H1774 0.984 . S
N1762 H1775 0.985 . S
N1763 C1765 1.356 . S
N1763 H1768 0.984 . S
N1763 H1769 0.985 . S
C1764 C1758 1.379 . S
C1764 C1761 1.363 . S
C1764 N1762 1.356 . S
C1765 C1759 1.363 . S
C1765 C1760 1.379 . S
C1765 N1763 1.356 . S
N1766 C1758 1.356 . S
N1766 H1772 0.984 . S
N1766 H1773 0.984 . S
N1767 C1760 1.356 . S
N1767 H1770 0.984 . S
N1767 H1771 0.985 . S
H1768 N1763 0.984 . S
H1769 N1763 0.985 . S
H1770 N1767 0.984 . S
H1771 N1767 0.985 . S
H1772 N1766 0.984 . S
H1773 N1766 0.984 . S
H1774 N1762 0.984 . S
H1775 N1762 0.985 . S
C1776 C1777 1.363 . S
C1776 C1782 1.379 . S
C1776 N1784 1.356 . S
C1777 C1776 1.363 . S
C1777 C1783 1.363 . S
C1778 C1779 1.363 . S
C1778 C1783 1.379 . S
C1778 N1785 1.356 . S
C1779 C1778 1.363 . S
C1779 C1782 1.363 . S
N1780 C1782 1.356 . S
N1780 H1792 0.984 . S
N1780 H1793 0.985 . S
N1781 C1783 1.356 . S
N1781 H1786 0.984 . S
N1781 H1787 0.985 . S
C1782 C1776 1.379 . S
C1782 C1779 1.363 . S
C1782 N1780 1.356 . S
C1783 C1777 1.363 . S
C1783 C1778 1.379 . S
C1783 N1781 1.356 . S
N1784 C1776 1.356 . S
N1784 H1790 0.984 . S
N1784 H1791 0.984 . S
N1785 C1778 1.356 . S
N1785 H1788 0.984 . S
N1785 H1789 0.985 . S
H1786 N1781 0.984 . S
H1787 N1781 0.985 . S
H1788 N1785 0.984 . S
H1789 N1785 0.985 . S
H1790 N1784 0.984 . S
H1791 N1784 0.984 . S
H1792 N1780 0.984 . S
H1793 N1780 0.985 . S
C1794 C1795 1.363 . S
C1794 C1800 1.379 . S
C1794 N1802 1.356 . S
C1795 C1794 1.363 . S
C1795 C1801 1.363 . S
C1796 C1797 1.363 . S
C1796 C1801 1.379 . S
C1796 N1803 1.356 . S
C1797 C1796 1.363 . S
C1797 C1800 1.363 . S
N1798 C1800 1.356 . S
N1798 H1810 0.984 . S
N1798 H1811 0.985 . S
N1799 C1801 1.356 . S
N1799 H1804 0.984 . S
N1799 H1805 0.985 . S
C1800 C1794 1.379 . S
C1800 C1797 1.363 . S
C1800 N1798 1.356 . S
C1801 C1795 1.363 . S
C1801 C1796 1.379 . S
C1801 N1799 1.356 . S
N1802 C1794 1.356 . S
N1802 H1808 0.984 . S
N1802 H1809 0.984 . S
N1803 C1796 1.356 . S
N1803 H1806 0.984 . S
N1803 H1807 0.985 . S
H1804 N1799 0.984 . S
H1805 N1799 0.985 . S
H1806 N1803 0.984 . S
H1807 N1803 0.985 . S
H1808 N1802 0.984 . S
H1809 N1802 0.984 . S
H1810 N1798 0.984 . S
H1811 N1798 0.985 . S
C1812 C1813 1.363 . S
C1812 C1818 1.379 . S
C1812 N1820 1.356 . S
C1813 C1812 1.363 . S
C1813 C1819 1.363 . S
C1814 C1815 1.363 . S
C1814 C1819 1.379 . S
C1814 N1821 1.356 . S
C1815 C1814 1.363 . S
C1815 C1818 1.363 . S
N1816 C1818 1.356 . S
N1816 H1828 0.984 . S
N1816 H1829 0.985 . S
N1817 C1819 1.356 . S
N1817 H1822 0.984 . S
N1817 H1823 0.985 . S
C1818 C1812 1.379 . S
C1818 C1815 1.363 . S
C1818 N1816 1.356 . S
C1819 C1813 1.363 . S
C1819 C1814 1.379 . S
C1819 N1817 1.356 . S
N1820 C1812 1.356 . S
N1820 H1826 0.984 . S
N1820 H1827 0.984 . S
N1821 C1814 1.356 . S
N1821 H1824 0.984 . S
N1821 H1825 0.985 . S
H1822 N1817 0.984 . S
H1823 N1817 0.985 . S
H1824 N1821 0.984 . S
H1825 N1821 0.985 . S
H1826 N1820 0.984 . S
H1827 N1820 0.984 . S
H1828 N1816 0.984 . S
H1829 N1816 0.985 . S
C1830 C1831 1.363 . S
C1830 C1836 1.379 . S
C1830 N1838 1.356 . S
C1831 C1830 1.363 . S
C1831 C1837 1.363 . S
C1832 C1833 1.363 . S
C1832 C1837 1.379 . S
C1832 N1839 1.356 . S
C1833 C1832 1.363 . S
C1833 C1836 1.363 . S
N1834 C1836 1.356 . S
N1834 H1846 0.984 . S
N1834 H1847 0.985 . S
N1835 C1837 1.356 . S
N1835 H1840 0.984 . S
N1835 H1841 0.985 . S
C1836 C1830 1.379 . S
C1836 C1833 1.363 . S
C1836 N1834 1.356 . S
C1837 C1831 1.363 . S
C1837 C1832 1.379 . S
C1837 N1835 1.356 . S
N1838 C1830 1.356 . S
N1838 H1844 0.984 . S
N1838 H1845 0.984 . S
N1839 C1832 1.356 . S
N1839 H1842 0.984 . S
N1839 H1843 0.985 . S
H1840 N1835 0.984 . S
H1841 N1835 0.985 . S
H1842 N1839 0.984 . S
H1843 N1839 0.985 . S
H1844 N1838 0.984 . S
H1845 N1838 0.984 . S
H1846 N1834 0.984 . S
H1847 N1834 0.985 . S
C1848 C1849 1.363 . S
C1848 C1854 1.379 . S
C1848 N1856 1.356 . S
C1849 C1848 1.363 . S
C1849 C1855 1.363 . S
C1850 C1851 1.363 . S
C1850 C1855 1.379 . S
C1850 N1857 1.356 . S
C1851 C1850 1.363 . S
C1851 C1854 1.363 . S
N1852 C1854 1.356 . S
N1852 H1864 0.984 . S
N1852 H1865 0.985 . S
N1853 C1855 1.356 . S
N1853 H1858 0.984 . S
N1853 H1859 0.985 . S
C1854 C1848 1.379 . S
C1854 C1851 1.363 . S
C1854 N1852 1.356 . S
C1855 C1849 1.363 . S
C1855 C1850 1.379 . S
C1855 N1853 1.356 . S
N1856 C1848 1.356 . S
N1856 H1862 0.984 . S
N1856 H1863 0.984 . S
N1857 C1850 1.356 . S
N1857 H1860 0.984 . S
N1857 H1861 0.985 . S
H1858 N1853 0.984 . S
H1859 N1853 0.985 . S
H1860 N1857 0.984 . S
H1861 N1857 0.985 . S
H1862 N1856 0.984 . S
H1863 N1856 0.984 . S
H1864 N1852 0.984 . S
H1865 N1852 0.985 . S
C1866 C1867 1.363 . S
C1866 C1872 1.379 . S
C1866 N1874 1.356 . S
C1867 C1866 1.363 . S
C1867 C1873 1.363 . S
C1868 C1869 1.363 . S
C1868 C1873 1.379 . S
C1868 N1875 1.356 . S
C1869 C1868 1.363 . S
C1869 C1872 1.363 . S
N1870 C1872 1.356 . S
N1870 H1882 0.984 . S
N1870 H1883 0.985 . S
N1871 C1873 1.356 . S
N1871 H1876 0.984 . S
N1871 H1877 0.985 . S
C1872 C1866 1.379 . S
C1872 C1869 1.363 . S
C1872 N1870 1.356 . S
C1873 C1867 1.363 . S
C1873 C1868 1.379 . S
C1873 N1871 1.356 . S
N1874 C1866 1.356 . S
N1874 H1880 0.984 . S
N1874 H1881 0.984 . S
N1875 C1868 1.356 . S
N1875 H1878 0.984 . S
N1875 H1879 0.985 . S
H1876 N1871 0.984 . S
H1877 N1871 0.985 . S
H1878 N1875 0.984 . S
H1879 N1875 0.985 . S
H1880 N1874 0.984 . S
H1881 N1874 0.984 . S
H1882 N1870 0.984 . S
H1883 N1870 0.985 . S
C1884 C1885 1.363 . S
C1884 C1890 1.379 . S
C1884 N1892 1.356 . S
C1885 C1884 1.363 . S
C1885 C1891 1.363 . S
C1886 C1887 1.363 . S
C1886 C1891 1.379 . S
C1886 N1893 1.356 . S
C1887 C1886 1.363 . S
C1887 C1890 1.363 . S
N1888 C1890 1.356 . S
N1888 H1900 0.984 . S
N1888 H1901 0.985 . S
N1889 C1891 1.356 . S
N1889 H1894 0.984 . S
N1889 H1895 0.985 . S
C1890 C1884 1.379 . S
C1890 C1887 1.363 . S
C1890 N1888 1.356 . S
C1891 C1885 1.363 . S
C1891 C1886 1.379 . S
C1891 N1889 1.356 . S
N1892 C1884 1.356 . S
N1892 H1898 0.984 . S
N1892 H1899 0.984 . S
N1893 C1886 1.356 . S
N1893 H1896 0.984 . S
N1893 H1897 0.985 . S
H1894 N1889 0.984 . S
H1895 N1889 0.985 . S
H1896 N1893 0.984 . S
H1897 N1893 0.985 . S
H1898 N1892 0.984 . S
H1899 N1892 0.984 . S
H1900 N1888 0.984 . S
H1901 N1888 0.985 . S
C1902 C1903 1.363 . S
C1902 C1908 1.379 . S
C1902 N1910 1.356 . S
C1903 C1902 1.363 . S
C1903 C1909 1.363 . S
C1904 C1905 1.363 . S
C1904 C1909 1.379 . S
C1904 N1911 1.356 . S
C1905 C1904 1.363 . S
C1905 C1908 1.363 . S
N1906 C1908 1.356 . S
N1906 H1918 0.984 . S
N1906 H1919 0.985 . S
N1907 C1909 1.356 . S
N1907 H1912 0.984 . S
N1907 H1913 0.985 . S
C1908 C1902 1.379 . S
C1908 C1905 1.363 . S
C1908 N1906 1.356 . S
C1909 C1903 1.363 . S
C1909 C1904 1.379 . S
C1909 N1907 1.356 . S
N1910 C1902 1.356 . S
N1910 H1916 0.984 . S
N1910 H1917 0.984 . S
N1911 C1904 1.356 . S
N1911 H1914 0.984 . S
N1911 H1915 0.985 . S
H1912 N1907 0.984 . S
H1913 N1907 0.985 . S
H1914 N1911 0.984 . S
H1915 N1911 0.985 . S
H1916 N1910 0.984 . S
H1917 N1910 0.984 . S
H1918 N1906 0.984 . S
H1919 N1906 0.985 . S
C1920 C1921 1.363 . S
C1920 C1926 1.379 1_554 S
C1920 N1928 1.356 . S
C1921 C1920 1.363 . S
C1921 C1927 1.363 . S
C1922 C1923 1.363 . S
C1922 C1927 1.379 1_556 S
C1922 N1929 1.356 . S
C1923 C1922 1.363 . S
C1923 C1926 1.363 . S
N1924 C1926 1.356 . S
N1924 H1936 0.984 . S
N1924 H1937 0.985 . S
N1925 C1927 1.356 . S
N1925 H1930 0.984 . S
N1925 H1931 0.985 . S
C1926 C1920 1.379 1_556 S
C1926 C1923 1.363 . S
C1926 N1924 1.356 . S
C1927 C1921 1.363 . S
C1927 C1922 1.379 1_554 S
C1927 N1925 1.356 . S
N1928 C1920 1.356 . S
N1928 H1934 0.984 . S
N1928 H1935 0.984 . S
N1929 C1922 1.356 . S
N1929 H1932 0.984 . S
N1929 H1933 0.985 . S
H1930 N1925 0.984 . S
H1931 N1925 0.985 . S
H1932 N1929 0.984 . S
H1933 N1929 0.985 . S
H1934 N1928 0.984 . S
H1935 N1928 0.984 . S
H1936 N1924 0.984 . S
H1937 N1924 0.985 . S
C1938 C1939 1.363 . S
C1938 C1944 1.379 . S
C1938 N1946 1.356 . S
C1939 C1938 1.363 . S
C1939 C1945 1.363 1_565 S
C1940 C1941 1.363 . S
C1940 C1945 1.379 . S
C1940 N1947 1.356 . S
C1941 C1940 1.363 . S
C1941 C1944 1.363 1_545 S
N1942 C1944 1.356 . S
N1942 H1954 0.984 . S
N1942 H1955 0.985 . S
N1943 C1945 1.356 . S
N1943 H1948 0.984 . S
N1943 H1949 0.985 . S
C1944 C1938 1.379 . S
C1944 C1941 1.363 1_565 S
C1944 N1942 1.356 . S
C1945 C1939 1.363 1_545 S
C1945 C1940 1.379 . S
C1945 N1943 1.356 . S
N1946 C1938 1.356 . S
N1946 H1952 0.984 . S
N1946 H1953 0.984 . S
N1947 C1940 1.356 . S
N1947 H1950 0.984 . S
N1947 H1951 0.985 . S
H1948 N1943 0.984 . S
H1949 N1943 0.985 . S
H1950 N1947 0.984 . S
H1951 N1947 0.985 . S
H1952 N1946 0.984 . S
H1953 N1946 0.984 . S
H1954 N1942 0.984 . S
H1955 N1942 0.985 . S
C1956 C1957 1.363 . S
C1956 C1962 1.379 . S
C1956 N1964 1.356 . S
C1957 C1956 1.363 . S
C1957 C1963 1.363 . S
C1958 C1959 1.363 . S
C1958 C1963 1.379 . S
C1958 N1965 1.356 . S
C1959 C1958 1.363 . S
C1959 C1962 1.363 . S
N1960 C1962 1.356 . S
N1960 H1972 0.984 . S
N1960 H1973 0.985 . S
N1961 C1963 1.356 . S
N1961 H1966 0.984 . S
N1961 H1967 0.985 . S
C1962 C1956 1.379 . S
C1962 C1959 1.363 . S
C1962 N1960 1.356 . S
C1963 C1957 1.363 . S
C1963 C1958 1.379 . S
C1963 N1961 1.356 . S
N1964 C1956 1.356 . S
N1964 H1970 0.984 . S
N1964 H1971 0.984 . S
N1965 C1958 1.356 . S
N1965 H1968 0.984 . S
N1965 H1969 0.985 . S
H1966 N1961 0.984 . S
H1967 N1961 0.985 . S
H1968 N1965 0.984 . S
H1969 N1965 0.985 . S
H1970 N1964 0.984 . S
H1971 N1964 0.984 . S
H1972 N1960 0.984 . S
H1973 N1960 0.985 . S
C1974 C1975 1.363 1_545 S
C1974 C1980 1.379 . S
C1974 N1982 1.356 . S
C1975 C1974 1.363 1_565 S
C1975 C1981 1.363 . S
C1976 C1977 1.363 1_565 S
C1976 C1981 1.379 . S
C1976 N1983 1.356 . S
C1977 C1976 1.363 1_545 S
C1977 C1980 1.363 . S
N1978 C1980 1.356 . S
N1978 H1990 0.984 . S
N1978 H1991 0.985 . S
N1979 C1981 1.356 . S
N1979 H1984 0.984 . S
N1979 H1985 0.985 . S
C1980 C1974 1.379 . S
C1980 C1977 1.363 . S
C1980 N1978 1.356 . S
C1981 C1975 1.363 . S
C1981 C1976 1.379 . S
C1981 N1979 1.356 . S
N1982 C1974 1.356 . S
N1982 H1988 0.984 . S
N1982 H1989 0.984 . S
N1983 C1976 1.356 . S
N1983 H1986 0.984 . S
N1983 H1987 0.985 . S
H1984 N1979 0.984 . S
H1985 N1979 0.985 . S
H1986 N1983 0.984 . S
H1987 N1983 0.985 . S
H1988 N1982 0.984 . S
H1989 N1982 0.984 . S
H1990 N1978 0.984 . S
H1991 N1978 0.985 . S
C1992 C1993 1.363 . S
C1992 C1998 1.379 1_554 S
C1992 N2000 1.356 . S
C1993 C1992 1.363 . S
C1993 C1999 1.363 . S
C1994 C1995 1.363 . S
C1994 C1999 1.379 1_556 S
C1994 N2001 1.356 . S
C1995 C1994 1.363 . S
C1995 C1998 1.363 . S
N1996 C1998 1.356 . S
N1996 H2008 0.984 . S
N1996 H2009 0.985 . S
N1997 C1999 1.356 . S
N1997 H2002 0.984 . S
N1997 H2003 0.985 . S
C1998 C1992 1.379 1_556 S
C1998 C1995 1.363 . S
C1998 N1996 1.356 . S
C1999 C1993 1.363 . S
C1999 C1994 1.379 1_554 S
C1999 N1997 1.356 . S
N2000 C1992 1.356 . S
N2000 H2006 0.984 . S
N2000 H2007 0.984 . S
N2001 C1994 1.356 . S
N2001 H2004 0.984 . S
N2001 H2005 0.985 . S
H2002 N1997 0.984 . S
H2003 N1997 0.985 . S
H2004 N2001 0.984 . S
H2005 N2001 0.985 . S
H2006 N2000 0.984 . S
H2007 N2000 0.984 . S
H2008 N1996 0.984 . S
H2009 N1996 0.985 . S
C2010 C2011 1.363 . S
C2010 C2016 1.379 . S
C2010 N2018 1.356 . S
C2011 C2010 1.363 . S
C2011 C2017 1.363 1_545 S
C2012 C2013 1.363 . S
C2012 C2017 1.379 . S
C2012 N2019 1.356 . S
C2013 C2012 1.363 . S
C2013 C2016 1.363 1_565 S
N2014 C2016 1.356 . S
N2014 H2026 0.984 . S
N2014 H2027 0.985 . S
N2015 C2017 1.356 . S
N2015 H2020 0.984 . S
N2015 H2021 0.985 . S
C2016 C2010 1.379 . S
C2016 C2013 1.363 1_545 S
C2016 N2014 1.356 . S
C2017 C2011 1.363 1_565 S
C2017 C2012 1.379 . S
C2017 N2015 1.356 . S
N2018 C2010 1.356 . S
N2018 H2024 0.984 . S
N2018 H2025 0.984 . S
N2019 C2012 1.356 . S
N2019 H2022 0.984 . S
N2019 H2023 0.985 . S
H2020 N2015 0.984 . S
H2021 N2015 0.985 . S
H2022 N2019 0.984 . S
H2023 N2019 0.985 . S
H2024 N2018 0.984 . S
H2025 N2018 0.984 . S
H2026 N2014 0.984 . S
H2027 N2014 0.985 . S
C2028 C2029 1.363 . S
C2028 C2034 1.379 . S
C2028 N2036 1.356 . S
C2029 C2028 1.363 . S
C2029 C2035 1.363 . S
C2030 C2031 1.363 . S
C2030 C2035 1.379 . S
C2030 N2037 1.356 . S
C2031 C2030 1.363 . S
C2031 C2034 1.363 . S
N2032 C2034 1.356 . S
N2032 H2044 0.984 . S
N2032 H2045 0.985 . S
N2033 C2035 1.356 . S
N2033 H2038 0.984 . S
N2033 H2039 0.985 . S
C2034 C2028 1.379 . S
C2034 C2031 1.363 . S
C2034 N2032 1.356 . S
C2035 C2029 1.363 . S
C2035 C2030 1.379 . S
C2035 N2033 1.356 . S
N2036 C2028 1.356 . S
N2036 H2042 0.984 . S
N2036 H2043 0.984 . S
N2037 C2030 1.356 . S
N2037 H2040 0.984 . S
N2037 H2041 0.985 . S
H2038 N2033 0.984 . S
H2039 N2033 0.985 . S
H2040 N2037 0.984 . S
H2041 N2037 0.985 . S
H2042 N2036 0.984 . S
H2043 N2036 0.984 . S
H2044 N2032 0.984 . S
H2045 N2032 0.985 . S
C2046 C2047 1.363 1_545 S
C2046 C2052 1.379 . S
C2046 N2054 1.356 . S
C2047 C2046 1.363 1_565 S
C2047 C2053 1.363 . S
C2048 C2049 1.363 1_565 S
C2048 C2053 1.379 . S
C2048 N2055 1.356 . S
C2049 C2048 1.363 1_545 S
C2049 C2052 1.363 . S
N2050 C2052 1.356 . S
N2050 H2062 0.984 . S
N2050 H2063 0.985 . S
N2051 C2053 1.356 . S
N2051 H2056 0.984 . S
N2051 H2057 0.985 . S
C2052 C2046 1.379 . S
C2052 C2049 1.363 . S
C2052 N2050 1.356 . S
C2053 C2047 1.363 . S
C2053 C2048 1.379 . S
C2053 N2051 1.356 . S
N2054 C2046 1.356 . S
N2054 H2060 0.984 . S
N2054 H2061 0.984 . S
N2055 C2048 1.356 . S
N2055 H2058 0.984 . S
N2055 H2059 0.985 . S
H2056 N2051 0.984 . S
H2057 N2051 0.985 . S
H2058 N2055 0.984 . S
H2059 N2055 0.985 . S
H2060 N2054 0.984 . S
H2061 N2054 0.984 . S
H2062 N2050 0.984 . S
H2063 N2050 0.985 . S
C2064 C2065 1.363 . S
C2064 C2070 1.379 . S
C2064 N2072 1.356 . S
C2065 C2064 1.363 . S
C2065 C2071 1.363 . S
C2066 C2067 1.363 . S
C2066 C2071 1.379 . S
C2066 N2073 1.356 . S
C2067 C2066 1.363 . S
C2067 C2070 1.363 . S
N2068 C2070 1.356 . S
N2068 H2080 0.984 . S
N2068 H2081 0.985 . S
N2069 C2071 1.356 . S
N2069 H2074 0.984 . S
N2069 H2075 0.985 . S
C2070 C2064 1.379 . S
C2070 C2067 1.363 . S
C2070 N2068 1.356 . S
C2071 C2065 1.363 . S
C2071 C2066 1.379 . S
C2071 N2069 1.356 . S
N2072 C2064 1.356 . S
N2072 H2078 0.984 . S
N2072 H2079 0.984 . S
N2073 C2066 1.356 . S
N2073 H2076 0.984 . S
N2073 H2077 0.985 . S
H2074 N2069 0.984 . S
H2075 N2069 0.985 . S
H2076 N2073 0.984 . S
H2077 N2073 0.985 . S
H2078 N2072 0.984 . S
H2079 N2072 0.984 . S
H2080 N2068 0.984 . S
H2081 N2068 0.985 . S
C2082 C2083 1.363 . S
C2082 C2088 1.379 . S
C2082 N2090 1.356 . S
C2083 C2082 1.363 . S
C2083 C2089 1.363 . S
C2084 C2085 1.363 . S
C2084 C2089 1.379 . S
C2084 N2091 1.356 . S
C2085 C2084 1.363 . S
C2085 C2088 1.363 . S
N2086 C2088 1.356 . S
N2086 H2098 0.984 . S
N2086 H2099 0.985 . S
N2087 C2089 1.356 . S
N2087 H2092 0.984 . S
N2087 H2093 0.985 . S
C2088 C2082 1.379 . S
C2088 C2085 1.363 . S
C2088 N2086 1.356 . S
C2089 C2083 1.363 . S
C2089 C2084 1.379 . S
C2089 N2087 1.356 . S
N2090 C2082 1.356 . S
N2090 H2096 0.984 . S
N2090 H2097 0.984 . S
N2091 C2084 1.356 . S
N2091 H2094 0.984 . S
N2091 H2095 0.985 . S
H2092 N2087 0.984 . S
H2093 N2087 0.985 . S
H2094 N2091 0.984 . S
H2095 N2091 0.985 . S
H2096 N2090 0.984 . S
H2097 N2090 0.984 . S
H2098 N2086 0.984 . S
H2099 N2086 0.985 . S
C2100 C2101 1.363 . S
C2100 C2106 1.379 1_554 S
C2100 N2108 1.356 . S
C2101 C2100 1.363 . S
C2101 C2107 1.363 . S
C2102 C2103 1.363 . S
C2102 C2107 1.379 1_556 S
C2102 N2109 1.356 . S
C2103 C2102 1.363 . S
C2103 C2106 1.363 . S
N2104 C2106 1.356 . S
N2104 H2116 0.984 . S
N2104 H2117 0.985 . S
N2105 C2107 1.356 . S
N2105 H2110 0.984 . S
N2105 H2111 0.985 . S
C2106 C2100 1.379 1_556 S
C2106 C2103 1.363 . S
C2106 N2104 1.356 . S
C2107 C2101 1.363 . S
C2107 C2102 1.379 1_554 S
C2107 N2105 1.356 . S
N2108 C2100 1.356 . S
N2108 H2114 0.984 . S
N2108 H2115 0.984 . S
N2109 C2102 1.356 . S
N2109 H2112 0.984 . S
N2109 H2113 0.985 . S
H2110 N2105 0.984 . S
H2111 N2105 0.985 . S
H2112 N2109 0.984 . S
H2113 N2109 0.985 . S
H2114 N2108 0.984 . S
H2115 N2108 0.984 . S
H2116 N2104 0.984 . S
H2117 N2104 0.985 . S
C2118 C2119 1.363 . S
C2118 C2124 1.379 . S
C2118 N2126 1.356 . S
C2119 C2118 1.363 . S
C2119 C2125 1.363 . S
C2120 C2121 1.363 . S
C2120 C2125 1.379 . S
C2120 N2127 1.356 . S
C2121 C2120 1.363 . S
C2121 C2124 1.363 . S
N2122 C2124 1.356 . S
N2122 H2134 0.984 . S
N2122 H2135 0.985 . S
N2123 C2125 1.356 . S
N2123 H2128 0.984 . S
N2123 H2129 0.985 . S
C2124 C2118 1.379 . S
C2124 C2121 1.363 . S
C2124 N2122 1.356 . S
C2125 C2119 1.363 . S
C2125 C2120 1.379 . S
C2125 N2123 1.356 . S
N2126 C2118 1.356 . S
N2126 H2132 0.984 . S
N2126 H2133 0.984 . S
N2127 C2120 1.356 . S
N2127 H2130 0.984 . S
N2127 H2131 0.985 . S
H2128 N2123 0.984 . S
H2129 N2123 0.985 . S
H2130 N2127 0.984 . S
H2131 N2127 0.985 . S
H2132 N2126 0.984 . S
H2133 N2126 0.984 . S
H2134 N2122 0.984 . S
H2135 N2122 0.985 . S
C2136 C2137 1.363 . S
C2136 C2142 1.379 . S
C2136 N2144 1.356 . S
C2137 C2136 1.363 . S
C2137 C2143 1.363 . S
C2138 C2139 1.363 . S
C2138 C2143 1.379 . S
C2138 N2145 1.356 . S
C2139 C2138 1.363 . S
C2139 C2142 1.363 . S
N2140 C2142 1.356 . S
N2140 H2152 0.984 . S
N2140 H2153 0.985 . S
N2141 C2143 1.356 . S
N2141 H2146 0.984 . S
N2141 H2147 0.985 . S
C2142 C2136 1.379 . S
C2142 C2139 1.363 . S
C2142 N2140 1.356 . S
C2143 C2137 1.363 . S
C2143 C2138 1.379 . S
C2143 N2141 1.356 . S
N2144 C2136 1.356 . S
N2144 H2150 0.984 . S
N2144 H2151 0.984 . S
N2145 C2138 1.356 . S
N2145 H2148 0.984 . S
N2145 H2149 0.985 . S
H2146 N2141 0.984 . S
H2147 N2141 0.985 . S
H2148 N2145 0.984 . S
H2149 N2145 0.985 . S
H2150 N2144 0.984 . S
H2151 N2144 0.984 . S
H2152 N2140 0.984 . S
H2153 N2140 0.985 . S
C2154 C2155 1.363 . S
C2154 C2160 1.379 . S
C2154 N2162 1.356 . S
C2155 C2154 1.363 . S
C2155 C2161 1.363 . S
C2156 C2157 1.363 . S
C2156 C2161 1.379 . S
C2156 N2163 1.356 . S
C2157 C2156 1.363 . S
C2157 C2160 1.363 . S
N2158 C2160 1.356 . S
N2158 H2170 0.984 . S
N2158 H2171 0.985 . S
N2159 C2161 1.356 . S
N2159 H2164 0.984 . S
N2159 H2165 0.985 . S
C2160 C2154 1.379 . S
C2160 C2157 1.363 . S
C2160 N2158 1.356 . S
C2161 C2155 1.363 . S
C2161 C2156 1.379 . S
C2161 N2159 1.356 . S
N2162 C2154 1.356 . S
N2162 H2168 0.984 . S
N2162 H2169 0.984 . S
N2163 C2156 1.356 . S
N2163 H2166 0.984 . S
N2163 H2167 0.985 . S
H2164 N2159 0.984 . S
H2165 N2159 0.985 . S
H2166 N2163 0.984 . S
H2167 N2163 0.985 . S
H2168 N2162 0.984 . S
H2169 N2162 0.984 . S
H2170 N2158 0.984 . S
H2171 N2158 0.985 . S
C2172 C2173 1.363 . S
C2172 C2178 1.379 1_556 S
C2172 N2180 1.356 . S
C2173 C2172 1.363 . S
C2173 C2179 1.363 . S
C2174 C2175 1.363 . S
C2174 C2179 1.379 1_554 S
C2174 N2181 1.356 . S
C2175 C2174 1.363 . S
C2175 C2178 1.363 . S
N2176 C2178 1.356 . S
N2176 H2188 0.984 . S
N2176 H2189 0.985 . S
N2177 C2179 1.356 . S
N2177 H2182 0.984 . S
N2177 H2183 0.985 . S
C2178 C2172 1.379 1_554 S
C2178 C2175 1.363 . S
C2178 N2176 1.356 . S
C2179 C2173 1.363 . S
C2179 C2174 1.379 1_556 S
C2179 N2177 1.356 . S
N2180 C2172 1.356 . S
N2180 H2186 0.984 . S
N2180 H2187 0.984 . S
N2181 C2174 1.356 . S
N2181 H2184 0.984 . S
N2181 H2185 0.985 . S
H2182 N2177 0.984 . S
H2183 N2177 0.985 . S
H2184 N2181 0.984 . S
H2185 N2181 0.985 . S
H2186 N2180 0.984 . S
H2187 N2180 0.984 . S
H2188 N2176 0.984 . S
H2189 N2176 0.985 . S
C2190 C2191 1.363 . S
C2190 C2196 1.379 . S
C2190 N2198 1.356 . S
C2191 C2190 1.363 . S
C2191 C2197 1.363 . S
C2192 C2193 1.363 . S
C2192 C2197 1.379 . S
C2192 N2199 1.356 . S
C2193 C2192 1.363 . S
C2193 C2196 1.363 . S
N2194 C2196 1.356 . S
N2194 H2206 0.984 . S
N2194 H2207 0.985 . S
N2195 C2197 1.356 . S
N2195 H2200 0.984 . S
N2195 H2201 0.985 . S
C2196 C2190 1.379 . S
C2196 C2193 1.363 . S
C2196 N2194 1.356 . S
C2197 C2191 1.363 . S
C2197 C2192 1.379 . S
C2197 N2195 1.356 . S
N2198 C2190 1.356 . S
N2198 H2204 0.984 . S
N2198 H2205 0.984 . S
N2199 C2192 1.356 . S
N2199 H2202 0.984 . S
N2199 H2203 0.985 . S
H2200 N2195 0.984 . S
H2201 N2195 0.985 . S
H2202 N2199 0.984 . S
H2203 N2199 0.985 . S
H2204 N2198 0.984 . S
H2205 N2198 0.984 . S
H2206 N2194 0.984 . S
H2207 N2194 0.985 . S
C2208 C2209 1.363 . S
C2208 C2214 1.379 . S
C2208 N2216 1.356 . S
C2209 C2208 1.363 . S
C2209 C2215 1.363 . S
C2210 C2211 1.363 . S
C2210 C2215 1.379 . S
C2210 N2217 1.356 . S
C2211 C2210 1.363 . S
C2211 C2214 1.363 . S
N2212 C2214 1.356 . S
N2212 H2224 0.984 . S
N2212 H2225 0.985 . S
N2213 C2215 1.356 . S
N2213 H2218 0.984 . S
N2213 H2219 0.985 . S
C2214 C2208 1.379 . S
C2214 C2211 1.363 . S
C2214 N2212 1.356 . S
C2215 C2209 1.363 . S
C2215 C2210 1.379 . S
C2215 N2213 1.356 . S
N2216 C2208 1.356 . S
N2216 H2222 0.984 . S
N2216 H2223 0.984 . S
N2217 C2210 1.356 . S
N2217 H2220 0.984 . S
N2217 H2221 0.985 . S
H2218 N2213 0.984 . S
H2219 N2213 0.985 . S
H2220 N2217 0.984 . S
H2221 N2217 0.985 . S
H2222 N2216 0.984 . S
H2223 N2216 0.984 . S
H2224 N2212 0.984 . S
H2225 N2212 0.985 . S
C2226 C2227 1.363 . S
C2226 C2232 1.379 . S
C2226 N2234 1.356 . S
C2227 C2226 1.363 . S
C2227 C2233 1.363 . S
C2228 C2229 1.363 . S
C2228 C2233 1.379 . S
C2228 N2235 1.356 . S
C2229 C2228 1.363 . S
C2229 C2232 1.363 . S
N2230 C2232 1.356 . S
N2230 H2242 0.984 . S
N2230 H2243 0.985 . S
N2231 C2233 1.356 . S
N2231 H2236 0.984 . S
N2231 H2237 0.985 . S
C2232 C2226 1.379 . S
C2232 C2229 1.363 . S
C2232 N2230 1.356 . S
C2233 C2227 1.363 . S
C2233 C2228 1.379 . S
C2233 N2231 1.356 . S
N2234 C2226 1.356 . S
N2234 H2240 0.984 . S
N2234 H2241 0.984 . S
N2235 C2228 1.356 . S
N2235 H2238 0.984 . S
N2235 H2239 0.985 . S
H2236 N2231 0.984 . S
H2237 N2231 0.985 . S
H2238 N2235 0.984 . S
H2239 N2235 0.985 . S
H2240 N2234 0.984 . S
H2241 N2234 0.984 . S
H2242 N2230 0.984 . S
H2243 N2230 0.985 . S
C2244 C2245 1.363 . S
C2244 C2250 1.379 . S
C2244 N2252 1.356 . S
C2245 C2244 1.363 . S
C2245 C2251 1.363 . S
C2246 C2247 1.363 . S
C2246 C2251 1.379 . S
C2246 N2253 1.356 . S
C2247 C2246 1.363 . S
C2247 C2250 1.363 . S
N2248 C2250 1.356 . S
N2248 H2260 0.984 . S
N2248 H2261 0.985 . S
N2249 C2251 1.356 . S
N2249 H2254 0.984 . S
N2249 H2255 0.985 . S
C2250 C2244 1.379 . S
C2250 C2247 1.363 . S
C2250 N2248 1.356 . S
C2251 C2245 1.363 . S
C2251 C2246 1.379 . S
C2251 N2249 1.356 . S
N2252 C2244 1.356 . S
N2252 H2258 0.984 . S
N2252 H2259 0.984 . S
N2253 C2246 1.356 . S
N2253 H2256 0.984 . S
N2253 H2257 0.985 . S
H2254 N2249 0.984 . S
H2255 N2249 0.985 . S
H2256 N2253 0.984 . S
H2257 N2253 0.985 . S
H2258 N2252 0.984 . S
H2259 N2252 0.984 . S
H2260 N2248 0.984 . S
H2261 N2248 0.985 . S
C2262 C2263 1.363 . S
C2262 C2268 1.379 . S
C2262 N2270 1.356 . S
C2263 C2262 1.363 . S
C2263 C2269 1.363 . S
C2264 C2265 1.363 . S
C2264 C2269 1.379 . S
C2264 N2271 1.356 . S
C2265 C2264 1.363 . S
C2265 C2268 1.363 . S
N2266 C2268 1.356 . S
N2266 H2278 0.984 . S
N2266 H2279 0.985 . S
N2267 C2269 1.356 . S
N2267 H2272 0.984 . S
N2267 H2273 0.985 . S
C2268 C2262 1.379 . S
C2268 C2265 1.363 . S
C2268 N2266 1.356 . S
C2269 C2263 1.363 . S
C2269 C2264 1.379 . S
C2269 N2267 1.356 . S
N2270 C2262 1.356 . S
N2270 H2276 0.984 . S
N2270 H2277 0.984 . S
N2271 C2264 1.356 . S
N2271 H2274 0.984 . S
N2271 H2275 0.985 . S
H2272 N2267 0.984 . S
H2273 N2267 0.985 . S
H2274 N2271 0.984 . S
H2275 N2271 0.985 . S
H2276 N2270 0.984 . S
H2277 N2270 0.984 . S
H2278 N2266 0.984 . S
H2279 N2266 0.985 . S
C2280 C2281 1.363 . S
C2280 C2286 1.379 . S
C2280 N2288 1.356 . S
C2281 C2280 1.363 . S
C2281 C2287 1.363 . S
C2282 C2283 1.363 . S
C2282 C2287 1.379 . S
C2282 N2289 1.356 . S
C2283 C2282 1.363 . S
C2283 C2286 1.363 . S
N2284 C2286 1.356 . S
N2284 H2296 0.984 . S
N2284 H2297 0.985 . S
N2285 C2287 1.356 . S
N2285 H2290 0.984 . S
N2285 H2291 0.985 . S
C2286 C2280 1.379 . S
C2286 C2283 1.363 . S
C2286 N2284 1.356 . S
C2287 C2281 1.363 . S
C2287 C2282 1.379 . S
C2287 N2285 1.356 . S
N2288 C2280 1.356 . S
N2288 H2294 0.984 . S
N2288 H2295 0.984 . S
N2289 C2282 1.356 . S
N2289 H2292 0.984 . S
N2289 H2293 0.985 . S
H2290 N2285 0.984 . S
H2291 N2285 0.985 . S
H2292 N2289 0.984 . S
H2293 N2289 0.985 . S
H2294 N2288 0.984 . S
H2295 N2288 0.984 . S
H2296 N2284 0.984 . S
H2297 N2284 0.985 . S
C2298 C2299 1.363 . S
C2298 C2304 1.379 . S
C2298 N2306 1.356 . S
C2299 C2298 1.363 . S
C2299 C2305 1.363 . S
C2300 C2301 1.363 . S
C2300 C2305 1.379 . S
C2300 N2307 1.356 . S
C2301 C2300 1.363 . S
C2301 C2304 1.363 . S
N2302 C2304 1.356 . S
N2302 H2314 0.984 . S
N2302 H2315 0.985 . S
N2303 C2305 1.356 . S
N2303 H2308 0.984 . S
N2303 H2309 0.985 . S
C2304 C2298 1.379 . S
C2304 C2301 1.363 . S
C2304 N2302 1.356 . S
C2305 C2299 1.363 . S
C2305 C2300 1.379 . S
C2305 N2303 1.356 . S
N2306 C2298 1.356 . S
N2306 H2312 0.984 . S
N2306 H2313 0.984 . S
N2307 C2300 1.356 . S
N2307 H2310 0.984 . S
N2307 H2311 0.985 . S
H2308 N2303 0.984 . S
H2309 N2303 0.985 . S
H2310 N2307 0.984 . S
H2311 N2307 0.985 . S
H2312 N2306 0.984 . S
H2313 N2306 0.984 . S
H2314 N2302 0.984 . S
H2315 N2302 0.985 . S
C2316 C2317 1.363 . S
C2316 C2322 1.379 . S
C2316 N2324 1.356 . S
C2317 C2316 1.363 . S
C2317 C2323 1.363 . S
C2318 C2319 1.363 . S
C2318 C2323 1.379 . S
C2318 N2325 1.356 . S
C2319 C2318 1.363 . S
C2319 C2322 1.363 . S
N2320 C2322 1.356 . S
N2320 H2332 0.984 . S
N2320 H2333 0.985 . S
N2321 C2323 1.356 . S
N2321 H2326 0.984 . S
N2321 H2327 0.985 . S
C2322 C2316 1.379 . S
C2322 C2319 1.363 . S
C2322 N2320 1.356 . S
C2323 C2317 1.363 . S
C2323 C2318 1.379 . S
C2323 N2321 1.356 . S
N2324 C2316 1.356 . S
N2324 H2330 0.984 . S
N2324 H2331 0.984 . S
N2325 C2318 1.356 . S
N2325 H2328 0.984 . S
N2325 H2329 0.985 . S
H2326 N2321 0.984 . S
H2327 N2321 0.985 . S
H2328 N2325 0.984 . S
H2329 N2325 0.985 . S
H2330 N2324 0.984 . S
H2331 N2324 0.984 . S
H2332 N2320 0.984 . S
H2333 N2320 0.985 . S
C2334 C2335 1.363 . S
C2334 C2340 1.379 . S
C2334 N2342 1.356 . S
C2335 C2334 1.363 . S
C2335 C2341 1.363 . S
C2336 C2337 1.363 . S
C2336 C2341 1.379 . S
C2336 N2343 1.356 . S
C2337 C2336 1.363 . S
C2337 C2340 1.363 . S
N2338 C2340 1.356 . S
N2338 H2350 0.984 . S
N2338 H2351 0.985 . S
N2339 C2341 1.356 . S
N2339 H2344 0.984 . S
N2339 H2345 0.985 . S
C2340 C2334 1.379 . S
C2340 C2337 1.363 . S
C2340 N2338 1.356 . S
C2341 C2335 1.363 . S
C2341 C2336 1.379 . S
C2341 N2339 1.356 . S
N2342 C2334 1.356 . S
N2342 H2348 0.984 . S
N2342 H2349 0.984 . S
N2343 C2336 1.356 . S
N2343 H2346 0.984 . S
N2343 H2347 0.985 . S
H2344 N2339 0.984 . S
H2345 N2339 0.985 . S
H2346 N2343 0.984 . S
H2347 N2343 0.985 . S
H2348 N2342 0.984 . S
H2349 N2342 0.984 . S
H2350 N2338 0.984 . S
H2351 N2338 0.985 . S
C2352 C2353 1.363 . S
C2352 C2358 1.379 . S
C2352 N2360 1.356 . S
C2353 C2352 1.363 . S
C2353 C2359 1.363 . S
C2354 C2355 1.363 . S
C2354 C2359 1.379 . S
C2354 N2361 1.356 . S
C2355 C2354 1.363 . S
C2355 C2358 1.363 . S
N2356 C2358 1.356 . S
N2356 H2368 0.984 . S
N2356 H2369 0.985 . S
N2357 C2359 1.356 . S
N2357 H2362 0.984 . S
N2357 H2363 0.985 . S
C2358 C2352 1.379 . S
C2358 C2355 1.363 . S
C2358 N2356 1.356 . S
C2359 C2353 1.363 . S
C2359 C2354 1.379 . S
C2359 N2357 1.356 . S
N2360 C2352 1.356 . S
N2360 H2366 0.984 . S
N2360 H2367 0.984 . S
N2361 C2354 1.356 . S
N2361 H2364 0.984 . S
N2361 H2365 0.985 . S
H2362 N2357 0.984 . S
H2363 N2357 0.985 . S
H2364 N2361 0.984 . S
H2365 N2361 0.985 . S
H2366 N2360 0.984 . S
H2367 N2360 0.984 . S
H2368 N2356 0.984 . S
H2369 N2356 0.985 . S
C2370 C2371 1.363 . S
C2370 C2376 1.379 . S
C2370 N2378 1.356 . S
C2371 C2370 1.363 . S
C2371 C2377 1.363 . S
C2372 C2373 1.363 . S
C2372 C2377 1.379 . S
C2372 N2379 1.356 . S
C2373 C2372 1.363 . S
C2373 C2376 1.363 . S
N2374 C2376 1.356 . S
N2374 H2386 0.984 . S
N2374 H2387 0.985 . S
N2375 C2377 1.356 . S
N2375 H2380 0.984 . S
N2375 H2381 0.985 . S
C2376 C2370 1.379 . S
C2376 C2373 1.363 . S
C2376 N2374 1.356 . S
C2377 C2371 1.363 . S
C2377 C2372 1.379 . S
C2377 N2375 1.356 . S
N2378 C2370 1.356 . S
N2378 H2384 0.984 . S
N2378 H2385 0.984 . S
N2379 C2372 1.356 . S
N2379 H2382 0.984 . S
N2379 H2383 0.985 . S
H2380 N2375 0.984 . S
H2381 N2375 0.985 . S
H2382 N2379 0.984 . S
H2383 N2379 0.985 . S
H2384 N2378 0.984 . S
H2385 N2378 0.984 . S
H2386 N2374 0.984 . S
H2387 N2374 0.985 . S
C2388 C2389 1.363 . S
C2388 C2394 1.379 . S
C2388 N2396 1.356 . S
C2389 C2388 1.363 . S
C2389 C2395 1.363 . S
C2390 C2391 1.363 . S
C2390 C2395 1.379 . S
C2390 N2397 1.356 . S
C2391 C2390 1.363 . S
C2391 C2394 1.363 . S
N2392 C2394 1.356 . S
N2392 H2404 0.984 . S
N2392 H2405 0.985 . S
N2393 C2395 1.356 . S
N2393 H2398 0.984 . S
N2393 H2399 0.985 . S
C2394 C2388 1.379 . S
C2394 C2391 1.363 . S
C2394 N2392 1.356 . S
C2395 C2389 1.363 . S
C2395 C2390 1.379 . S
C2395 N2393 1.356 . S
N2396 C2388 1.356 . S
N2396 H2402 0.984 . S
N2396 H2403 0.984 . S
N2397 C2390 1.356 . S
N2397 H2400 0.984 . S
N2397 H2401 0.985 . S
H2398 N2393 0.984 . S
H2399 N2393 0.985 . S
H2400 N2397 0.984 . S
H2401 N2397 0.985 . S
H2402 N2396 0.984 . S
H2403 N2396 0.984 . S
H2404 N2392 0.984 . S
H2405 N2392 0.985 . S
C2406 C2407 1.363 . S
C2406 C2412 1.379 . S
C2406 N2414 1.356 . S
C2407 C2406 1.363 . S
C2407 C2413 1.363 . S
C2408 C2409 1.363 . S
C2408 C2413 1.379 . S
C2408 N2415 1.356 . S
C2409 C2408 1.363 . S
C2409 C2412 1.363 . S
N2410 C2412 1.356 . S
N2410 H2422 0.984 . S
N2410 H2423 0.985 . S
N2411 C2413 1.356 . S
N2411 H2416 0.984 . S
N2411 H2417 0.985 . S
C2412 C2406 1.379 . S
C2412 C2409 1.363 . S
C2412 N2410 1.356 . S
C2413 C2407 1.363 . S
C2413 C2408 1.379 . S
C2413 N2411 1.356 . S
N2414 C2406 1.356 . S
N2414 H2420 0.984 . S
N2414 H2421 0.984 . S
N2415 C2408 1.356 . S
N2415 H2418 0.984 . S
N2415 H2419 0.985 . S
H2416 N2411 0.984 . S
H2417 N2411 0.985 . S
H2418 N2415 0.984 . S
H2419 N2415 0.985 . S
H2420 N2414 0.984 . S
H2421 N2414 0.984 . S
H2422 N2410 0.984 . S
H2423 N2410 0.985 . S
C2424 C2425 1.363 . S
C2424 C2430 1.379 . S
C2424 N2432 1.356 . S
C2425 C2424 1.363 . S
C2425 C2431 1.363 . S
C2426 C2427 1.363 . S
C2426 C2431 1.379 . S
C2426 N2433 1.356 . S
C2427 C2426 1.363 . S
C2427 C2430 1.363 . S
N2428 C2430 1.356 . S
N2428 H2440 0.984 . S
N2428 H2441 0.985 . S
N2429 C2431 1.356 . S
N2429 H2434 0.984 . S
N2429 H2435 0.985 . S
C2430 C2424 1.379 . S
C2430 C2427 1.363 . S
C2430 N2428 1.356 . S
C2431 C2425 1.363 . S
C2431 C2426 1.379 . S
C2431 N2429 1.356 . S
N2432 C2424 1.356 . S
N2432 H2438 0.984 . S
N2432 H2439 0.984 . S
N2433 C2426 1.356 . S
N2433 H2436 0.984 . S
N2433 H2437 0.985 . S
H2434 N2429 0.984 . S
H2435 N2429 0.985 . S
H2436 N2433 0.984 . S
H2437 N2433 0.985 . S
H2438 N2432 0.984 . S
H2439 N2432 0.984 . S
H2440 N2428 0.984 . S
H2441 N2428 0.985 . S
C2442 C2443 1.363 . S
C2442 C2448 1.379 . S
C2442 N2450 1.356 . S
C2443 C2442 1.363 . S
C2443 C2449 1.363 . S
C2444 C2445 1.363 . S
C2444 C2449 1.379 . S
C2444 N2451 1.356 . S
C2445 C2444 1.363 . S
C2445 C2448 1.363 . S
N2446 C2448 1.356 . S
N2446 H2458 0.984 . S
N2446 H2459 0.985 . S
N2447 C2449 1.356 . S
N2447 H2452 0.984 . S
N2447 H2453 0.985 . S
C2448 C2442 1.379 . S
C2448 C2445 1.363 . S
C2448 N2446 1.356 . S
C2449 C2443 1.363 . S
C2449 C2444 1.379 . S
C2449 N2447 1.356 . S
N2450 C2442 1.356 . S
N2450 H2456 0.984 . S
N2450 H2457 0.984 . S
N2451 C2444 1.356 . S
N2451 H2454 0.984 . S
N2451 H2455 0.985 . S
H2452 N2447 0.984 . S
H2453 N2447 0.985 . S
H2454 N2451 0.984 . S
H2455 N2451 0.985 . S
H2456 N2450 0.984 . S
H2457 N2450 0.984 . S
H2458 N2446 0.984 . S
H2459 N2446 0.985 . S
C2460 C2461 1.363 . S
C2460 C2466 1.379 . S
C2460 N2468 1.356 . S
C2461 C2460 1.363 . S
C2461 C2467 1.363 . S
C2462 C2463 1.363 . S
C2462 C2467 1.379 . S
C2462 N2469 1.356 . S
C2463 C2462 1.363 . S
C2463 C2466 1.363 . S
N2464 C2466 1.356 . S
N2464 H2476 0.984 . S
N2464 H2477 0.985 . S
N2465 C2467 1.356 . S
N2465 H2470 0.984 . S
N2465 H2471 0.985 . S
C2466 C2460 1.379 . S
C2466 C2463 1.363 . S
C2466 N2464 1.356 . S
C2467 C2461 1.363 . S
C2467 C2462 1.379 . S
C2467 N2465 1.356 . S
N2468 C2460 1.356 . S
N2468 H2474 0.984 . S
N2468 H2475 0.984 . S
N2469 C2462 1.356 . S
N2469 H2472 0.984 . S
N2469 H2473 0.985 . S
H2470 N2465 0.984 . S
H2471 N2465 0.985 . S
H2472 N2469 0.984 . S
H2473 N2469 0.985 . S
H2474 N2468 0.984 . S
H2475 N2468 0.984 . S
H2476 N2464 0.984 . S
H2477 N2464 0.985 . S
C2478 C2479 1.363 . S
C2478 C2484 1.379 . S
C2478 N2486 1.356 . S
C2479 C2478 1.363 . S
C2479 C2485 1.363 . S
C2480 C2481 1.363 . S
C2480 C2485 1.379 . S
C2480 N2487 1.356 . S
C2481 C2480 1.363 . S
C2481 C2484 1.363 . S
N2482 C2484 1.356 . S
N2482 H2494 0.984 . S
N2482 H2495 0.985 . S
N2483 C2485 1.356 . S
N2483 H2488 0.984 . S
N2483 H2489 0.985 . S
C2484 C2478 1.379 . S
C2484 C2481 1.363 . S
C2484 N2482 1.356 . S
C2485 C2479 1.363 . S
C2485 C2480 1.379 . S
C2485 N2483 1.356 . S
N2486 C2478 1.356 . S
N2486 H2492 0.984 . S
N2486 H2493 0.984 . S
N2487 C2480 1.356 . S
N2487 H2490 0.984 . S
N2487 H2491 0.985 . S
H2488 N2483 0.984 . S
H2489 N2483 0.985 . S
H2490 N2487 0.984 . S
H2491 N2487 0.985 . S
H2492 N2486 0.984 . S
H2493 N2486 0.984 . S
H2494 N2482 0.984 . S
H2495 N2482 0.985 . S
C1057 C18 1.533 . S
C1059 C810 1.533 . S
C1075 C315 1.533 . S
C1077 C51 1.533 . S
C1093 C876 1.533 . S
C1095 C84 1.533 . S
C1111 C381 1.533 . S
C1113 C117 1.533 . S
C1129 C942 1.533 . S
C1131 C150 1.533 . S
C1147 C447 1.533 . S
C1149 C183 1.533 . S
C1165 C1008 1.533 . S
C1167 C216 1.533 . S
C1183 C513 1.533 . S
C1185 C249 1.533 . S
C1201 C282 1.533 . S
C1203 C546 1.533 . S
C1219 C348 1.533 . S
C1221 C612 1.533 . S
C1237 C414 1.533 . S
C1239 C678 1.533 . S
C1255 C744 1.533 . S
C1257 C480 1.533 . S
C1273 C579 1.533 . S
C1275 C843 1.533 . S
C1291 C909 1.533 . S
C1293 C645 1.533 . S
C1309 C711 1.533 . S
C1311 C975 1.533 . S
C1327 C1041 1.533 . S
C1329 C777 1.533 . S
C1345 N13 1.386 . S
C1347 C384 1.418 . S
C1363 N46 1.386 . S
C1365 C813 1.418 . S
C1381 C318 1.418 . S
C1383 N79 1.386 . S
C1399 N112 1.386 . S
C1401 C879 1.418 . S
C1417 C450 1.418 . S
C1419 N145 1.386 . S
C1435 C1011 1.418 . S
C1437 N178 1.386 . S
C1453 N211 1.386 . S
C1455 C516 1.418 . S
C1471 C945 1.418 . S
C1473 N244 1.386 . S
C1489 N277 1.386 . S
C1491 C120 1.418 . S
C1507 N310 1.386 . S
C1509 C549 1.418 . S
C1525 C54 1.418 . S
C1527 N343 1.386 . S
C1543 N376 1.386 . S
C1545 C615 1.418 . S
C1561 N409 1.386 . S
C1563 C186 1.418 . S
C1579 C747 1.418 . S
C1581 N442 1.386 . S
C1597 C252 1.418 . S
C1599 N475 1.386 . S
C1615 N508 1.386 . S
C1617 C681 1.418 . S
C1633 C912 1.418 . S
C1635 N541 1.386 . S
C1651 C285 1.417 . S
C1653 N574 1.386 . S
C1669 C846 1.417 . S
C1671 N607 1.386 . S
C1687 N640 1.386 . S
C1689 C351 1.417 . S
C1705 C978 1.418 . S
C1707 N673 1.386 . S
C1723 C483 1.417 . S
C1725 N706 1.386 . S
C1741 N739 1.386 . S
C1743 C1044 1.417 . S
C1759 C417 1.417 . S
C1761 N772 1.386 . S
C1777 C648 1.418 . S
C1779 N805 1.386 . S
C1795 N838 1.386 . S
C1797 C21 1.417 . S
C1813 N871 1.386 . S
C1815 C582 1.417 . S
C1831 C87 1.417 . S
C1833 N904 1.386 . S
C1849 C714 1.418 . S
C1851 N937 1.386 . S
C1867 N970 1.386 . S
C1869 C219 1.417 . S
C1885 C780 1.417 . S
C1887 N1003 1.386 . S
C1903 C153 1.417 . S
C1905 N1036 1.386 . S
C1921 C7 1.188 . S
C1923 C205 1.188 . S
C1939 C238 1.188 . S
C1941 C40 1.188 . S
C1957 C73 1.188 . S
C1959 C139 1.188 . S
C1975 C106 1.188 . S
C1977 C172 1.188 . S
C1993 C469 1.188 . S
C1995 C271 1.188 . S
C2011 C502 1.188 . S
C2013 C304 1.188 . S
C2029 C403 1.188 . S
C2031 C337 1.188 . S
C2047 C436 1.188 . S
C2049 C370 1.188 . S
C2065 C535 1.188 . S
C2067 C733 1.188 . S
C2083 C568 1.188 . S
C2085 C766 1.188 . S
C2101 C601 1.188 . S
C2103 C667 1.188 . S
C2119 C634 1.188 . S
C2121 C700 1.188 . S
C2137 C997 1.188 . S
C2139 C799 1.188 . S
C2155 C1030 1.188 . S
C2157 C832 1.188 . S
C2173 C865 1.188 . S
C2175 C931 1.188 . S
C2191 C898 1.188 . S
C2193 C964 1.188 . S
C2209 N2 1.642 . S
C2211 N695 1.642 . S
C2227 N35 1.642 . S
C2229 N728 1.642 . S
C2245 N68 1.642 . S
C2247 N761 1.642 . S
C2263 N101 1.641 . S
C2265 N662 1.641 . S
C2281 N629 1.642 . S
C2283 N134 1.642 . S
C2299 N167 1.641 . S
C2301 N530 1.641 . S
C2317 N563 1.642 . S
C2319 N200 1.642 . S
C2335 N233 1.642 . S
C2337 N596 1.642 . S
C2353 N959 1.642 . S
C2355 N266 1.642 . S
C2371 N299 1.642 . S
C2373 N992 1.642 . S
C2389 N1025 1.642 . S
C2391 N332 1.642 . S
C2407 N365 1.641 . S
C2409 N926 1.641 . S
C2425 N398 1.642 . S
C2427 N893 1.642 . S
C2443 N794 1.641 . S
C2445 N431 1.641 . S
C2461 N464 1.642 . S
C2463 N827 1.642 . S
C2479 N497 1.642 . S
C2481 N860 1.642 . S
