# Generated by pormake.
# Topology pcl, (4)-cn, num edge types: 1
# Building blocks:
#     Node 0, Type 0, BuildingBlock: NAHDIM_clean_sbu_0, # of connection points: 4
#     Node 1, Type 0, BuildingBlock: NAHDIM_clean_sbu_0, # of connection points: 4
#     Node 2, Type 0, BuildingBlock: NAHDIM_clean_sbu_0, # of connection points: 4
#     Node 3, Type 0, BuildingBlock: NAHDIM_clean_sbu_0, # of connection points: 4
#     Node 4, Type 0, BuildingBlock: NAHDIM_clean_sbu_0, # of connection points: 4
#     Node 5, Type 0, BuildingBlock: NAHDIM_clean_sbu_0, # of connection points: 4
#     Node 6, Type 0, BuildingBlock: NAHDIM_clean_sbu_0, # of connection points: 4
#     Node 7, Type 0, BuildingBlock: NAHDIM_clean_sbu_0, # of connection points: 4
#     Node 8, Type 0, BuildingBlock: NAHDIM_clean_sbu_0, # of connection points: 4
#     Node 9, Type 0, BuildingBlock: NAHDIM_clean_sbu_0, # of connection points: 4
#     Node 10, Type 0, BuildingBlock: NAHDIM_clean_sbu_0, # of connection points: 4
#     Node 11, Type 0, BuildingBlock: NAHDIM_clean_sbu_0, # of connection points: 4
#     Node 12, Type 0, BuildingBlock: NAHDIM_clean_sbu_0, # of connection points: 4
#     Node 13, Type 0, BuildingBlock: NAHDIM_clean_sbu_0, # of connection points: 4
#     Node 14, Type 0, BuildingBlock: NAHDIM_clean_sbu_0, # of connection points: 4
#     Node 15, Type 0, BuildingBlock: NAHDIM_clean_sbu_0, # of connection points: 4
#     Edge 16, Type (0, 0), BuildingBlock: OJICUG_clean_linker_0, # of connection points: 2
#     Edge 17, Type (0, 0), BuildingBlock: OJICUG_clean_linker_0, # of connection points: 2
#     Edge 18, Type (0, 0), BuildingBlock: OJICUG_clean_linker_0, # of connection points: 2
#     Edge 19, Type (0, 0), BuildingBlock: OJICUG_clean_linker_0, # of connection points: 2
#     Edge 20, Type (0, 0), BuildingBlock: OJICUG_clean_linker_0, # of connection points: 2
#     Edge 21, Type (0, 0), BuildingBlock: OJICUG_clean_linker_0, # of connection points: 2
#     Edge 22, Type (0, 0), BuildingBlock: OJICUG_clean_linker_0, # of connection points: 2
#     Edge 23, Type (0, 0), BuildingBlock: OJICUG_clean_linker_0, # of connection points: 2
#     Edge 24, Type (0, 0), BuildingBlock: OJICUG_clean_linker_0, # of connection points: 2
#     Edge 25, Type (0, 0), BuildingBlock: OJICUG_clean_linker_0, # of connection points: 2
#     Edge 26, Type (0, 0), BuildingBlock: OJICUG_clean_linker_0, # of connection points: 2
#     Edge 27, Type (0, 0), BuildingBlock: OJICUG_clean_linker_0, # of connection points: 2
#     Edge 28, Type (0, 0), BuildingBlock: OJICUG_clean_linker_0, # of connection points: 2
#     Edge 29, Type (0, 0), BuildingBlock: OJICUG_clean_linker_0, # of connection points: 2
#     Edge 30, Type (0, 0), BuildingBlock: OJICUG_clean_linker_0, # of connection points: 2
#     Edge 31, Type (0, 0), BuildingBlock: OJICUG_clean_linker_0, # of connection points: 2
#     Edge 32, Type (0, 0), BuildingBlock: OJICUG_clean_linker_0, # of connection points: 2
#     Edge 33, Type (0, 0), BuildingBlock: OJICUG_clean_linker_0, # of connection points: 2
#     Edge 34, Type (0, 0), BuildingBlock: OJICUG_clean_linker_0, # of connection points: 2
#     Edge 35, Type (0, 0), BuildingBlock: OJICUG_clean_linker_0, # of connection points: 2
#     Edge 36, Type (0, 0), BuildingBlock: OJICUG_clean_linker_0, # of connection points: 2
#     Edge 37, Type (0, 0), BuildingBlock: OJICUG_clean_linker_0, # of connection points: 2
#     Edge 38, Type (0, 0), BuildingBlock: OJICUG_clean_linker_0, # of connection points: 2
#     Edge 39, Type (0, 0), BuildingBlock: OJICUG_clean_linker_0, # of connection points: 2
#     Edge 40, Type (0, 0), BuildingBlock: OJICUG_clean_linker_0, # of connection points: 2
#     Edge 41, Type (0, 0), BuildingBlock: OJICUG_clean_linker_0, # of connection points: 2
#     Edge 42, Type (0, 0), BuildingBlock: OJICUG_clean_linker_0, # of connection points: 2
#     Edge 43, Type (0, 0), BuildingBlock: OJICUG_clean_linker_0, # of connection points: 2
#     Edge 44, Type (0, 0), BuildingBlock: OJICUG_clean_linker_0, # of connection points: 2
#     Edge 45, Type (0, 0), BuildingBlock: OJICUG_clean_linker_0, # of connection points: 2
#     Edge 46, Type (0, 0), BuildingBlock: OJICUG_clean_linker_0, # of connection points: 2
#     Edge 47, Type (0, 0), BuildingBlock: OJICUG_clean_linker_0, # of connection points: 2
# Relax obj value: 0.088
# Max RMSD: 0.097
# Mean RMSD: 0.088
data_MOF--net-pcl--node1-NAHDIM_clean_sbu_0--edge1-OJICUG_clean_linker_0
_symmetry_space_group_name_H-M    P1
_symmetry_Int_Tables_number       1
_symmetry_cell_setting            triclinic
loop_
_symmetry_equiv_pos_as_xyz
'x, y, z'
_cell_length_a     35.67417
_cell_length_b     35.183307
_cell_length_c     31.236219
_cell_angle_alpha  90.040456
_cell_angle_beta   90.097349
_cell_angle_gamma 90.039475
loop_
_atom_site_label
_atom_site_type_symbol
_atom_site_fract_x
_atom_site_fract_y
_atom_site_fract_z
_atom_type_partial_charge
C0 C 0.23344 0.31129 0.04138 0.0
O1 O 0.25175 0.32899 0.072 0.0
O2 O 0.18169 0.35386 0.1305 0.0
Zn3 Zn 0.17272 0.36044 0.06727 0.0
O4 O 0.18811 0.4125 0.04778 0.0
C5 C 0.09343 0.35655 0.08574 0.0
O6 O 0.10526 0.35975 0.12541 0.0
O7 O 0.19962 0.3203 0.03375 0.0
C8 C 0.17512 0.44103 0.0678 0.0
O9 O 0.15402 0.43529 0.10163 0.0
C10 C 0.20536 0.37184 0.15326 0.0
O11 O 0.22844 0.39593 0.13492 0.0
O12 O 0.11724 0.35568 0.05552 0.0
C13 C 0.7564 0.67503 0.52938 0.0
O14 O 0.73707 0.6588 0.56012 0.0
O15 O 0.80811 0.63434 0.6222 0.0
Zn16 Zn 0.8161 0.62564 0.55908 0.0
O17 O 0.79987 0.57306 0.54219 0.0
C18 C 0.89424 0.64539 0.57182 0.0
O19 O 0.88127 0.66339 0.60554 0.0
O20 O 0.79023 0.66518 0.52341 0.0
C21 C 0.81403 0.54559 0.56308 0.0
O22 O 0.83623 0.55313 0.59563 0.0
C23 C 0.78451 0.61691 0.64549 0.0
O24 O 0.76134 0.59245 0.62781 0.0
O25 O 0.87148 0.62817 0.5472 0.0
C26 C 0.22526 0.68568 0.95093 0.0
O27 O 0.24469 0.65494 0.94217 0.0
O28 O 0.17101 0.6341 0.85762 0.0
Zn29 Zn 0.1641 0.63954 0.92118 0.0
O30 O 0.18208 0.5926 0.95118 0.0
C31 C 0.08684 0.66092 0.90797 0.0
O32 O 0.10048 0.67763 0.87376 0.0
O33 O 0.1902 0.6858 0.94392 0.0
C34 C 0.17508 0.58957 0.99088 0.0
O35 O 0.15891 0.61813 0.01072 0.0
C36 C 0.15638 0.60513 0.83991 0.0
O37 O 0.13936 0.57987 0.86403 0.0
O38 O 0.10898 0.64369 0.93321 0.0
C39 C 0.76867 0.29465 0.44588 0.0
O40 O 0.74897 0.32341 0.43124 0.0
O41 O 0.8238 0.34994 0.36046 0.0
Zn42 Zn 0.83 0.34367 0.42408 0.0
O43 O 0.81 0.39002 0.45359 0.0
C44 C 0.90831 0.32306 0.41484 0.0
O45 O 0.89604 0.304 0.38145 0.0
O46 O 0.80421 0.29673 0.44551 0.0
C47 C 0.81712 0.39445 0.49313 0.0
O48 O 0.83476 0.36727 0.51378 0.0
C49 C 0.83645 0.3805 0.34428 0.0
O50 O 0.8518 0.40591 0.36972 0.0
O51 O 0.88505 0.3412 0.43782 0.0
C52 C 0.79258 0.69801 0.92969 0.0
O53 O 0.77412 0.68271 0.89759 0.0
O54 O 0.84292 0.59328 0.93236 0.0
Zn55 Zn 0.84979 0.64447 0.90439 0.0
O56 O 0.83097 0.6443 0.84365 0.0
C57 C 0.92691 0.6471 0.932 0.0
O58 O 0.91315 0.63161 0.96687 0.0
O59 O 0.82519 0.68589 0.93866 0.0
C60 C 0.80556 0.62273 0.82864 0.0
O61 O 0.78866 0.59849 0.85412 0.0
C62 C 0.81806 0.58615 0.96035 0.0
O63 O 0.79413 0.61283 0.97115 0.0
O64 O 0.90491 0.6554 0.90142 0.0
C65 C 0.17344 0.30458 0.48498 0.0
O66 O 0.149 0.32432 0.5072 0.0
O67 O 0.14871 0.40092 0.44024 0.0
Zn68 Zn 0.14459 0.34868 0.4139 0.0
O69 O 0.16007 0.34989 0.35223 0.0
C70 C 0.06715 0.34488 0.44195 0.0
O71 O 0.079 0.36775 0.47237 0.0
O72 O 0.17636 0.31045 0.445 0.0
C73 C 0.188 0.36769 0.33697 0.0
O74 O 0.20959 0.38763 0.36267 0.0
C75 C 0.17641 0.41244 0.46237 0.0
O76 O 0.20526 0.38982 0.46817 0.0
O77 O 0.09041 0.33249 0.41452 0.0
C78 C 0.79805 0.32633 0.03708 0.0
O79 O 0.77716 0.35385 0.0525 0.0
O80 O 0.8483 0.41979 0.04431 0.0
Zn81 Zn 0.85624 0.37055 0.07592 0.0
O82 O 0.83586 0.37224 0.13584 0.0
C83 C 0.93433 0.36142 0.05097 0.0
O84 O 0.92155 0.36545 0.01177 0.0
O85 O 0.83324 0.32731 0.04322 0.0
C86 C 0.84935 0.39706 0.1611 0.0
O87 O 0.87324 0.42211 0.14598 0.0
C88 C 0.82195 0.44318 0.05169 0.0
O89 O 0.79744 0.43553 0.08183 0.0
O90 O 0.91152 0.36211 0.08212 0.0
C91 C 0.18846 0.67171 0.52601 0.0
O92 O 0.20682 0.6394 0.52755 0.0
O93 O 0.14062 0.58031 0.54043 0.0
Zn94 Zn 0.13179 0.62944 0.57232 0.0
O95 O 0.15054 0.62585 0.63289 0.0
C96 C 0.05387 0.62924 0.54619 0.0
O97 O 0.06711 0.61256 0.51174 0.0
O98 O 0.15609 0.67378 0.54271 0.0
C99 C 0.13787 0.5994 0.65646 0.0
O100 O 0.1147 0.5744 0.63971 0.0
C101 C 0.16786 0.55804 0.5481 0.0
O102 O 0.19245 0.56729 0.57768 0.0
O103 O 0.07639 0.63911 0.57572 0.0
C104 C 0.72705 0.82071 0.0273 0.0
O105 O 0.74478 0.83551 0.06023 0.0
O106 O 0.67638 0.86697 0.11377 0.0
Zn107 Zn 0.66969 0.87485 0.05033 0.0
O108 O 0.68766 0.92625 0.03106 0.0
C109 C 0.59338 0.85036 0.05956 0.0
O110 O 0.6084 0.82814 0.0887 0.0
O111 O 0.69491 0.83338 0.01719 0.0
C112 C 0.67488 0.95537 0.05015 0.0
O113 O 0.65255 0.95059 0.08313 0.0
C114 C 0.69911 0.88386 0.13872 0.0
O115 O 0.72267 0.90896 0.12308 0.0
O116 O 0.61442 0.8725 0.03825 0.0
C117 C 0.26588 0.19065 0.56673 0.0
O118 O 0.26441 0.18572 0.60837 0.0
O119 O 0.319 0.13143 0.63508 0.0
Zn120 Zn 0.31972 0.12875 0.57064 0.0
O121 O 0.303 0.07708 0.55056 0.0
C122 C 0.39797 0.15038 0.57462 0.0
O123 O 0.3878 0.16567 0.61118 0.0
O124 O 0.28743 0.16972 0.54448 0.0
C125 C 0.31809 0.04824 0.56797 0.0
O126 O 0.34209 0.05347 0.59939 0.0
C127 C 0.29602 0.11413 0.65924 0.0
O128 O 0.26951 0.09308 0.6421 0.0
O129 O 0.37332 0.13447 0.55125 0.0
C130 C 0.73067 0.20172 0.94376 0.0
O131 O 0.75138 0.17359 0.92944 0.0
O132 O 0.68411 0.15928 0.84369 0.0
Zn133 Zn 0.67255 0.15653 0.90666 0.0
O134 O 0.68932 0.10752 0.9338 0.0
C135 C 0.59885 0.12891 0.8991 0.0
O136 O 0.61813 0.1002 0.88374 0.0
O137 O 0.69549 0.20084 0.9375 0.0
C138 C 0.68116 0.10397 0.97319 0.0
O139 O 0.66543 0.13275 0.99307 0.0
C140 C 0.68933 0.13023 0.82024 0.0
O141 O 0.69045 0.09643 0.83802 0.0
O142 O 0.61638 0.15822 0.91209 0.0
C143 C 0.25778 0.80561 0.45361 0.0
O144 O 0.24003 0.83832 0.4531 0.0
O145 O 0.31184 0.85663 0.35533 0.0
Zn146 Zn 0.31867 0.85014 0.41877 0.0
O147 O 0.30288 0.89747 0.44996 0.0
C148 C 0.39491 0.8261 0.40378 0.0
O149 O 0.38009 0.8104 0.36952 0.0
O150 O 0.29131 0.80405 0.44013 0.0
C151 C 0.31217 0.90031 0.48912 0.0
O152 O 0.32891 0.8714 0.50768 0.0
C153 C 0.32883 0.8843 0.33785 0.0
O154 O 0.3476 0.90813 0.36223 0.0
O155 O 0.37381 0.84363 0.42988 0.0
C156 C 0.30373 0.19126 0.94392 0.0
O157 O 0.2853 0.17416 0.91297 0.0
O158 O 0.35109 0.08758 0.94509 0.0
Zn159 Zn 0.36175 0.13882 0.91925 0.0
O160 O 0.34561 0.13964 0.85751 0.0
C161 C 0.43708 0.12015 0.90351 0.0
O162 O 0.41994 0.09068 0.88654 0.0
O163 O 0.33695 0.18073 0.95252 0.0
C164 C 0.32031 0.1181 0.84215 0.0
O165 O 0.30251 0.09454 0.86763 0.0
C166 C 0.32506 0.07999 0.97146 0.0
O167 O 0.30197 0.10701 0.98349 0.0
O168 O 0.41751 0.14625 0.92049 0.0
C169 C 0.68984 0.79116 0.42255 0.0
O170 O 0.70912 0.80666 0.3913 0.0
O171 O 0.6374 0.89449 0.42209 0.0
Zn172 Zn 0.6316 0.84308 0.39432 0.0
O173 O 0.65122 0.84432 0.3339 0.0
C174 C 0.55552 0.83772 0.42304 0.0
O175 O 0.57036 0.85115 0.45849 0.0
O176 O 0.65656 0.80236 0.4295 0.0
C177 C 0.67626 0.86722 0.32073 0.0
O178 O 0.69196 0.89086 0.34795 0.0
C179 C 0.66361 0.90287 0.44803 0.0
O180 O 0.68918 0.87728 0.45718 0.0
O181 O 0.57659 0.83147 0.39106 0.0
C182 C 0.29603 0.81532 0.03126 0.0
O183 O 0.27613 0.84507 0.04257 0.0
O184 O 0.34653 0.90736 0.03994 0.0
Zn185 Zn 0.3559 0.85787 0.07038 0.0
O186 O 0.33822 0.8608 0.13133 0.0
C187 C 0.43254 0.86108 0.04182 0.0
O188 O 0.4175 0.87965 0.00962 0.0
O189 O 0.33082 0.81464 0.03981 0.0
C190 C 0.35159 0.88689 0.15501 0.0
O191 O 0.37531 0.91134 0.13837 0.0
C192 C 0.3213 0.9313 0.04974 0.0
O193 O 0.29805 0.92364 0.08114 0.0
O194 O 0.41148 0.84854 0.07139 0.0
C195 C 0.69508 0.16532 0.52311 0.0
O196 O 0.71489 0.1381 0.5409 0.0
O197 O 0.63777 0.07286 0.52544 0.0
Zn198 Zn 0.63368 0.12225 0.55776 0.0
O199 O 0.65602 0.11649 0.61663 0.0
C200 C 0.55503 0.12983 0.53604 0.0
O201 O 0.56575 0.11493 0.49947 0.0
O202 O 0.65957 0.16427 0.52581 0.0
C203 C 0.66352 0.14574 0.63893 0.0
O204 O 0.65763 0.17956 0.62241 0.0
C205 C 0.66374 0.04905 0.53293 0.0
O206 O 0.68911 0.05704 0.56213 0.0
O207 O 0.57927 0.1357 0.56516 0.0
C208 C 0.03948 0.3566 0.03401 0.0
C209 C 0.05277 0.35579 0.07641 0.0
H210 H 0.99159 0.35901 0.99261 0.0
C211 C 0.02678 0.3554 0.11013 0.0
H212 H 0.05881 0.3569 0.00731 0.0
C213 C 0.98838 0.35651 0.10172 0.0
C214 C 0.97503 0.35816 0.05939 0.0
H215 H 0.03604 0.35464 0.14315 0.0
H216 H 0.96918 0.35664 0.12856 0.0
C217 C 0.00097 0.35784 0.02558 0.0
C218 C 0.949 0.62459 0.52744 0.0
C219 C 0.93507 0.64313 0.56399 0.0
H220 H -0.00259 0.60581 0.49302 0.0
C221 C 0.96057 0.65829 0.59379 0.0
H222 H 0.9301 0.61266 0.50381 0.0
C223 C -0.00086 0.65423 0.58768 0.0
C224 C 0.01308 0.63507 0.55154 0.0
H225 H 0.95078 0.67275 0.62227 0.0
H226 H 0.01802 0.66578 0.61158 0.0
C227 C 0.9876 0.62067 0.52124 0.0
C228 C 0.99276 0.63935 0.95852 0.0
C229 C 0.96777 0.65284 0.92724 0.0
H230 H 0.04998 0.63137 0.97702 0.0
C231 C 0.98226 0.67071 0.89056 0.0
H232 H 0.98252 0.62552 0.98717 0.0
C233 C 0.02093 0.67419 0.8848 0.0
C234 C 0.04594 0.65974 0.9155 0.0
H235 H 0.96375 0.68156 0.86592 0.0
H236 H 0.03117 0.68752 0.85584 0.0
C237 C 0.03145 0.64269 0.95267 0.0
C238 C 0.00046 0.35264 0.46539 0.0
C239 C 0.02667 0.33649 0.43722 0.0
H240 H 0.9426 0.36097 0.48056 0.0
C241 C 0.01363 0.31392 0.40311 0.0
H242 H 0.00953 0.37008 0.49206 0.0
C243 C 0.9752 0.30869 0.39649 0.0
C244 C 0.94898 0.32592 0.42382 0.0
H245 H 0.03308 0.30095 0.38088 0.0
H246 H 0.96609 0.29183 0.36937 0.0
C247 C 0.96205 0.34743 0.45876 0.0
C248 C 0.49741 0.87554 0.01604 0.0
C249 C 0.47366 0.85657 0.04484 0.0
H250 H 0.55384 0.88852 -0.00189 0.0
C251 C 0.48965 0.83426 0.0774 0.0
H252 H 0.48598 0.89295 0.99059 0.0
C253 C 0.52855 0.83154 0.08155 0.0
C254 C 0.55228 0.8513 0.05344 0.0
H255 H 0.47212 0.81917 0.10001 0.0
H256 H 0.53996 0.81453 0.10735 0.0
C257 C 0.53631 0.87304 0.02039 0.0
C258 C 0.48728 0.1264 0.51481 0.0
C259 C 0.51493 0.13772 0.5443 0.0
H260 H 0.42865 0.12161 0.50114 0.0
C261 C 0.50378 0.15541 0.58259 0.0
H262 H 0.49492 0.11278 0.48497 0.0
C263 C 0.46581 0.16066 0.59175 0.0
C264 C 0.43812 0.14815 0.56295 0.0
H265 H 0.52437 0.16468 0.60589 0.0
H266 H 0.45822 0.17367 0.62195 0.0
C267 C 0.44928 0.13147 0.52409 0.0
C268 C 0.53631 0.15685 0.91815 0.0
C269 C 0.55748 0.12696 0.90068 0.0
H270 H 0.48159 0.17819 0.93284 0.0
C271 C 0.53872 0.09493 0.88438 0.0
H272 H 0.54995 0.18191 0.93099 0.0
C273 C 0.49968 0.09282 0.88536 0.0
C274 C 0.47846 0.12267 0.90275 0.0
H275 H 0.55416 0.07139 0.87068 0.0
H276 H 0.48618 0.06772 0.87244 0.0
C277 C 0.49716 0.15471 0.91922 0.0
C278 C 0.45171 0.84156 0.44768 0.0
C279 C 0.43599 0.8263 0.4101 0.0
H280 H 0.50175 0.85687 0.48137 0.0
C281 C 0.45997 0.813 0.37777 0.0
H282 H 0.43399 0.85193 0.47327 0.0
C283 C 0.49883 0.81602 0.38232 0.0
C284 C 0.51453 0.83219 0.41943 0.0
H285 H 0.44877 0.80108 0.34844 0.0
H286 H 0.51654 0.8062 0.35644 0.0
C287 C 0.49057 0.84436 0.45234 0.0
C288 C 0.17723 0.34429 0.21947 0.0
C289 C 0.20368 0.36856 0.20044 0.0
H290 H 0.15165 0.32498 0.2772 0.0
C291 C 0.22658 0.39113 0.22691 0.0
H292 H 0.1592 0.3264 0.20011 0.0
C293 C 0.22223 0.3903 0.27146 0.0
C294 C 0.19482 0.36696 0.29027 0.0
H295 H 0.24726 0.4101 0.21323 0.0
H296 H 0.23971 0.40857 0.29101 0.0
C297 C 0.17282 0.34354 0.26379 0.0
C298 C 0.81121 0.6475 0.71102 0.0
C299 C 0.78655 0.62094 0.6926 0.0
H300 H 0.83631 0.66904 0.76819 0.0
C301 C 0.76607 0.59666 0.71961 0.0
H302 H 0.82728 0.66678 0.69119 0.0
C303 C 0.77136 0.59788 0.76402 0.0
C304 C 0.79717 0.62345 0.78221 0.0
H305 H 0.74681 0.5759 0.70643 0.0
H306 H 0.75595 0.57812 0.78392 0.0
C307 C 0.81642 0.64876 0.75526 0.0
C308 C 0.13582 0.57138 0.77336 0.0
C309 C 0.15507 0.60175 0.79271 0.0
H310 H 0.11549 0.5467 0.7152 0.0
C311 C 0.17108 0.62989 0.76655 0.0
H312 H 0.1233 0.54913 0.79256 0.0
C313 C 0.16665 0.62845 0.72209 0.0
C314 C 0.14605 0.59889 0.70291 0.0
H315 H 0.18621 0.65359 0.78044 0.0
H316 H 0.17847 0.6511 0.70291 0.0
C317 C 0.13133 0.56999 0.72896 0.0
C318 C 0.82316 0.36355 0.22532 0.0
C319 C 0.84223 0.39482 0.20769 0.0
H320 H 0.80642 0.33439 0.28235 0.0
C321 C 0.85702 0.42257 0.23534 0.0
H322 H 0.81142 0.34167 0.20488 0.0
C323 C 0.85409 0.41842 0.27967 0.0
C324 C 0.83646 0.38635 0.29736 0.0
H325 H 0.87172 0.44709 0.22281 0.0
H326 H 0.86658 0.43992 0.30003 0.0
C327 C 0.82039 0.3593 0.26972 0.0
C328 C 0.66644 0.84537 0.24534 0.0
C329 C 0.68508 0.86928 0.27448 0.0
H330 H 0.65642 0.83108 0.17987 0.0
C331 C 0.71055 0.89636 0.25869 0.0
H332 H 0.64678 0.82405 0.25638 0.0
C333 C 0.71617 0.90036 0.21456 0.0
C334 C 0.69635 0.87742 0.18543 0.0
H335 H 0.72547 0.91513 0.2803 0.0
H336 H 0.73522 0.92214 0.20331 0.0
C337 C 0.67196 0.84942 0.20138 0.0
C338 C 0.33361 0.14168 0.76823 0.0
C339 C 0.31243 0.11845 0.79564 0.0
H340 H 0.345 0.15858 0.7039 0.0
C341 C 0.28461 0.09482 0.77795 0.0
H342 H 0.35521 0.16028 0.78077 0.0
C343 C 0.27866 0.09391 0.73367 0.0
C344 C 0.3005 0.11651 0.70625 0.0
H345 H 0.26775 0.07665 0.79822 0.0
H346 H 0.25741 0.07502 0.72092 0.0
C347 C 0.32777 0.14067 0.72408 0.0
C348 C 0.6856 0.17035 0.75419 0.0
C349 C 0.68812 0.13417 0.77306 0.0
H350 H 0.67615 0.20238 0.69703 0.0
C351 C 0.68601 0.10185 0.74669 0.0
H352 H 0.68735 0.19585 0.77353 0.0
C353 C 0.67944 0.10561 0.70275 0.0
C354 C 0.67496 0.14177 0.68428 0.0
H355 H 0.68796 0.07357 0.76017 0.0
H356 H 0.67668 0.08012 0.68353 0.0
C357 C 0.67914 0.1741 0.71027 0.0
C358 C 0.32005 0.86011 0.22004 0.0
C359 C 0.34276 0.88816 0.20125 0.0
H360 H 0.29761 0.83697 0.27796 0.0
C361 C 0.35848 0.91649 0.22744 0.0
H362 H 0.30739 0.83796 0.20072 0.0
C363 C 0.35281 0.91597 0.27166 0.0
C364 C 0.33133 0.88708 0.29068 0.0
H365 H 0.37593 0.93865 0.21396 0.0
H366 H 0.36613 0.9377 0.29101 0.0
C367 C 0.31441 0.85956 0.26432 0.0
C368 C 0.30566 0.24074 0.00165 0.0
C369 C 0.28592 0.22212 0.96874 0.0
H370 H 0.30463 0.28354 0.05037 0.0
C371 C 0.24893 0.23324 0.95979 0.0
H372 H 0.33423 0.23285 0.00933 0.0
C373 C 0.23198 0.26226 0.9833 0.0
C374 C 0.25166 0.28084 0.01628 0.0
H375 H 0.23295 0.2195 0.93465 0.0
H376 H 0.20338 0.27007 0.97562 0.0
C377 C 0.28871 0.26981 0.02516 0.0
C378 C 0.75991 0.72145 0.46875 0.0
C379 C 0.73921 0.70459 0.50199 0.0
H380 H 0.76062 0.76188 0.41764 0.0
C381 C 0.70207 0.71637 0.50879 0.0
H382 H 0.78861 0.71303 0.46261 0.0
C383 C 0.68602 0.74445 0.48297 0.0
C384 C 0.70676 0.76132 0.44977 0.0
H385 H 0.68535 0.70397 0.53411 0.0
H386 H 0.65734 0.75292 0.4891 0.0
C387 C 0.74386 0.74947 0.44292 0.0
C388 C 0.23953 0.78291 0.00056 0.0
C389 C 0.2781 0.78259 0.00963 0.0
H390 H 0.1926 0.75266 0.97481 0.0
C391 C 0.29933 0.75045 -0.00165 0.0
H392 H 0.22239 0.80724 0.00877 0.0
C393 C 0.28226 0.71914 0.97887 0.0
C394 C 0.24361 0.7193 0.97023 0.0
H395 H 0.32915 0.74931 0.00483 0.0
H396 H 0.29936 0.69472 0.9709 0.0
C397 C 0.22246 0.75161 0.98105 0.0
C398 C 0.75316 0.19949 0.49978 0.0
C399 C 0.71386 0.19768 0.50182 0.0
H400 H 0.80129 0.23141 0.48046 0.0
C401 C 0.69271 0.22755 0.4842 0.0
H402 H 0.77029 0.17694 0.51299 0.0
C403 C 0.71049 0.25882 0.46555 0.0
C404 C 0.7498 0.26089 0.46409 0.0
H405 H 0.66236 0.22702 0.48518 0.0
H406 H 0.69337 0.28152 0.45266 0.0
C407 C 0.77094 0.23074 0.48112 0.0
C408 C 0.72443 0.77314 0.96776 0.0
C409 C 0.74393 0.78934 0.00242 0.0
H410 H 0.72441 0.73162 0.91773 0.0
C411 C 0.77952 0.77513 0.01311 0.0
H412 H 0.69691 0.78338 0.95869 0.0
C413 C 0.7953 0.74539 0.98958 0.0
C414 C 0.77579 0.72923 0.95489 0.0
H415 H 0.79526 0.78696 0.03965 0.0
H416 H 0.82282 0.73511 -0.00141 0.0
C417 C 0.74018 0.7434 0.94427 0.0
C418 C 0.21772 0.2424 0.57022 0.0
C419 C 0.24248 0.22005 0.54592 0.0
H420 H 0.17649 0.28659 0.57011 0.0
C421 C 0.24452 0.22596 0.50149 0.0
H422 H 0.21548 0.23859 0.60453 0.0
C423 C 0.22222 0.2535 0.48179 0.0
C424 C 0.1973 0.27571 0.50605 0.0
H425 H 0.26332 0.20927 0.48183 0.0
H426 H 0.22444 0.25724 0.44747 0.0
C427 C 0.19534 0.26991 0.55049 0.0
C428 C 0.74196 0.29356 0.0059 0.0
C429 C 0.78085 0.29456 0.013 0.0
H430 H 0.69562 0.26353 0.97847 0.0
C431 C 0.80314 0.26488 -0.00309 0.0
H432 H 0.724 0.31598 0.01783 0.0
C433 C 0.78686 0.23479 0.97433 0.0
C434 C 0.74796 0.23374 0.96733 0.0
H435 H 0.83321 0.2648 0.0018 0.0
H436 H 0.80481 0.21233 0.96245 0.0
C437 C 0.72569 0.26348 0.9833 0.0
C438 C 0.18647 0.74059 0.50564 0.0
C439 C 0.20567 0.7057 0.50624 0.0
H440 H 0.18779 0.79947 0.48853 0.0
C441 C 0.24176 0.70377 0.48845 0.0
H442 H 0.15859 0.74304 0.51904 0.0
C443 C 0.2585 0.73612 0.47098 0.0
C444 C 0.2395 0.77113 0.47087 0.0
H445 H 0.25729 0.67732 0.4883 0.0
H446 H 0.28647 0.7337 0.45783 0.0
C447 C 0.2032 0.77296 0.48813 0.0
C448 C 0.16598 0.54739 0.05443 0.0
C449 C 0.18 0.55269 0.01285 0.0
H450 H 0.15358 0.50792 0.10449 0.0
C451 C 0.19589 0.52158 0.99124 0.0
H452 H 0.15373 0.5708 0.07205 0.0
C453 C 0.19593 0.48551 0.00994 0.0
C454 C 0.17989 0.47982 0.05051 0.0
H455 H 0.20716 0.52479 0.95926 0.0
H456 H 0.20718 0.46187 0.99185 0.0
C457 C 0.16583 0.5113 0.07302 0.0
C458 C 0.79303 0.49833 0.508 0.0
C459 C 0.80962 0.50603 0.54792 0.0
H460 H 0.78219 0.45686 0.45938 0.0
C461 C 0.82486 0.47583 0.57165 0.0
H462 H 0.78088 0.52095 0.48902 0.0
C463 C 0.82545 0.43908 0.55476 0.0
C464 C 0.81102 0.43181 0.51368 0.0
H465 H 0.83754 0.48077 0.6027 0.0
H466 H 0.83869 0.41674 0.57321 0.0
C467 C 0.79381 0.46159 0.491 0.0
C468 C 0.7922 0.50643 0.03658 0.0
C469 C 0.81977 0.47915 0.02723 0.0
H470 H 0.7699 0.56159 0.02273 0.0
C471 C 0.84586 0.48685 0.99468 0.0
H472 H 0.77164 0.50136 0.0614 0.0
C473 C 0.84483 0.52128 0.9725 0.0
C474 C 0.81771 0.54888 0.98235 0.0
H475 H 0.86742 0.46643 0.98654 0.0
H476 H 0.86567 0.52641 0.94799 0.0
C477 C 0.79119 0.54096 0.01438 0.0
C478 C 0.14482 0.47492 0.47547 0.0
C479 C 0.17521 0.45036 0.48293 0.0
H480 H 0.11875 0.52809 0.48994 0.0
C481 C 0.20377 0.462 0.51111 0.0
H482 H 0.12236 0.46689 0.45391 0.0
C483 C 0.20163 0.49715 0.53195 0.0
C484 C 0.17096 0.52145 0.52491 0.0
H485 H 0.22756 0.44377 0.51757 0.0
H486 H 0.22387 0.5051 0.55384 0.0
C487 C 0.14276 0.51007 0.49614 0.0
C488 C 0.69873 0.03489 0.97311 0.0
C489 C 0.68438 0.0667 0.99482 0.0
H490 H 0.70739 0.97466 0.97377 0.0
C491 C 0.67027 0.06199 0.03647 0.0
H492 H 0.70995 0.0376 0.94105 0.0
C493 C 0.66862 0.02597 0.05509 0.0
C494 C 0.68125 0.99388 0.0326 0.0
H495 H 0.65919 0.08592 0.05422 0.0
H496 H 0.6564 0.02318 0.08666 0.0
C497 C 0.6973 -0.00117 0.99189 0.0
C498 C 0.3255 0.94196 0.55223 0.0
C499 C 0.30906 0.93717 0.51166 0.0
H500 H 0.3411 0.98078 0.60187 0.0
C501 C 0.29241 0.96869 0.49158 0.0
H502 H 0.33842 0.91826 0.5687 0.0
C503 C 0.2938 0.0046 0.51076 0.0
C504 C 0.3121 0.00971 0.55024 0.0
H505 H 0.27934 0.9659 0.46041 0.0
H506 H 0.28182 0.02857 0.49383 0.0
C507 C 0.32711 0.97786 0.57124 0.0
C508 C 0.34605 0.97678 0.99523 0.0
C509 C 0.32024 0.96858 0.0279 0.0
H510 H 0.36769 0.01814 0.9518 0.0
C511 C 0.29473 -0.00314 0.04054 0.0
H512 H 0.36603 0.95563 0.98458 0.0
C513 C 0.29569 0.03291 0.02165 0.0
C514 C 0.32221 0.04134 0.98979 0.0
H515 H 0.27446 0.99143 0.06558 0.0
H516 H 0.27612 0.05433 0.03258 0.0
C517 C 0.34702 0.0127 0.97642 0.0
C518 C 0.69268 0.98532 0.51895 0.0
C519 C 0.66456 0.01218 0.51011 0.0
H520 H 0.71453 0.9298 0.50625 0.0
C521 C 0.63671 0.00313 0.47987 0.0
H522 H 0.71457 0.99141 0.54202 0.0
C523 C 0.63669 0.96783 0.45939 0.0
C524 C 0.66451 0.94075 0.46866 0.0
H525 H 0.61466 0.02318 0.47226 0.0
H526 H 0.61461 0.96167 0.43657 0.0
C527 C 0.69266 0.94999 0.49843 0.0
loop_
_geom_bond_atom_site_label_1
_geom_bond_atom_site_label_2
_geom_bond_distance
_geom_bond_site_symmetry_2
_ccdc_geom_bond_type
C0 O1 1.160 . S
C0 O7 1.185 . S
O1 C0 1.160 . S
O2 Zn3 1.899 . S
O2 C10 1.284 . S
Zn3 O2 1.899 . S
Zn3 O4 2.032 . S
Zn3 O7 2.086 . S
Zn3 O12 1.977 . S
O4 Zn3 2.032 . S
O4 C8 1.278 . S
C5 O6 1.203 . S
C5 O12 1.267 . S
O6 C5 1.203 . S
O7 C0 1.185 . S
O7 Zn3 2.086 . S
C8 O4 1.278 . S
C8 O9 1.211 . S
O9 C8 1.211 . S
C10 O2 1.284 . S
C10 O11 1.273 . S
O11 C10 1.273 . S
O12 Zn3 1.977 . S
O12 C5 1.267 . S
C13 O14 1.160 . S
C13 O20 1.185 . S
O14 C13 1.160 . S
O15 Zn16 1.899 . S
O15 C23 1.284 . S
Zn16 O15 1.899 . S
Zn16 O17 2.032 . S
Zn16 O20 2.086 . S
Zn16 O25 1.977 . S
O17 Zn16 2.032 . S
O17 C21 1.278 . S
C18 O19 1.203 . S
C18 O25 1.267 . S
O19 C18 1.203 . S
O20 C13 1.185 . S
O20 Zn16 2.086 . S
C21 O17 1.278 . S
C21 O22 1.211 . S
O22 C21 1.211 . S
C23 O15 1.284 . S
C23 O24 1.273 . S
O24 C23 1.273 . S
O25 Zn16 1.977 . S
O25 C18 1.267 . S
C26 O27 1.160 . S
C26 O33 1.185 . S
O27 C26 1.160 . S
O28 Zn29 1.899 . S
O28 C36 1.284 . S
Zn29 O28 1.899 . S
Zn29 O30 2.032 . S
Zn29 O33 2.086 . S
Zn29 O38 1.977 . S
O30 Zn29 2.032 . S
O30 C34 1.278 . S
C31 O32 1.203 . S
C31 O38 1.267 . S
O32 C31 1.203 . S
O33 C26 1.185 . S
O33 Zn29 2.086 . S
C34 O30 1.278 . S
C34 O35 1.211 . S
O35 C34 1.211 . S
C36 O28 1.284 . S
C36 O37 1.273 . S
O37 C36 1.273 . S
O38 Zn29 1.977 . S
O38 C31 1.267 . S
C39 O40 1.160 . S
C39 O46 1.185 . S
O40 C39 1.160 . S
O41 Zn42 1.899 . S
O41 C49 1.284 . S
Zn42 O41 1.899 . S
Zn42 O43 2.032 . S
Zn42 O46 2.086 . S
Zn42 O51 1.977 . S
O43 Zn42 2.032 . S
O43 C47 1.278 . S
C44 O45 1.203 . S
C44 O51 1.267 . S
O45 C44 1.203 . S
O46 C39 1.185 . S
O46 Zn42 2.086 . S
C47 O43 1.278 . S
C47 O48 1.211 . S
O48 C47 1.211 . S
C49 O41 1.284 . S
C49 O50 1.273 . S
O50 C49 1.273 . S
O51 Zn42 1.977 . S
O51 C44 1.267 . S
C52 O53 1.160 . S
C52 O59 1.185 . S
O53 C52 1.160 . S
O54 Zn55 1.899 . S
O54 C62 1.284 . S
Zn55 O54 1.899 . S
Zn55 O56 2.032 . S
Zn55 O59 2.086 . S
Zn55 O64 1.977 . S
O56 Zn55 2.032 . S
O56 C60 1.278 . S
C57 O58 1.203 . S
C57 O64 1.267 . S
O58 C57 1.203 . S
O59 C52 1.185 . S
O59 Zn55 2.086 . S
C60 O56 1.278 . S
C60 O61 1.211 . S
O61 C60 1.211 . S
C62 O54 1.284 . S
C62 O63 1.273 . S
O63 C62 1.273 . S
O64 Zn55 1.977 . S
O64 C57 1.267 . S
C65 O66 1.160 . S
C65 O72 1.185 . S
O66 C65 1.160 . S
O67 Zn68 1.899 . S
O67 C75 1.284 . S
Zn68 O67 1.899 . S
Zn68 O69 2.032 . S
Zn68 O72 2.086 . S
Zn68 O77 1.977 . S
O69 Zn68 2.032 . S
O69 C73 1.278 . S
C70 O71 1.203 . S
C70 O77 1.267 . S
O71 C70 1.203 . S
O72 C65 1.185 . S
O72 Zn68 2.086 . S
C73 O69 1.278 . S
C73 O74 1.211 . S
O74 C73 1.211 . S
C75 O67 1.284 . S
C75 O76 1.273 . S
O76 C75 1.273 . S
O77 Zn68 1.977 . S
O77 C70 1.267 . S
C78 O79 1.160 . S
C78 O85 1.185 . S
O79 C78 1.160 . S
O80 Zn81 1.899 . S
O80 C88 1.284 . S
Zn81 O80 1.899 . S
Zn81 O82 2.032 . S
Zn81 O85 2.086 . S
Zn81 O90 1.977 . S
O82 Zn81 2.032 . S
O82 C86 1.278 . S
C83 O84 1.203 . S
C83 O90 1.267 . S
O84 C83 1.203 . S
O85 C78 1.185 . S
O85 Zn81 2.086 . S
C86 O82 1.278 . S
C86 O87 1.211 . S
O87 C86 1.211 . S
C88 O80 1.284 . S
C88 O89 1.273 . S
O89 C88 1.273 . S
O90 Zn81 1.977 . S
O90 C83 1.267 . S
C91 O92 1.160 . S
C91 O98 1.185 . S
O92 C91 1.160 . S
O93 Zn94 1.899 . S
O93 C101 1.284 . S
Zn94 O93 1.899 . S
Zn94 O95 2.032 . S
Zn94 O98 2.086 . S
Zn94 O103 1.977 . S
O95 Zn94 2.032 . S
O95 C99 1.278 . S
C96 O97 1.203 . S
C96 O103 1.267 . S
O97 C96 1.203 . S
O98 C91 1.185 . S
O98 Zn94 2.086 . S
C99 O95 1.278 . S
C99 O100 1.211 . S
O100 C99 1.211 . S
C101 O93 1.284 . S
C101 O102 1.273 . S
O102 C101 1.273 . S
O103 Zn94 1.977 . S
O103 C96 1.267 . S
C104 O105 1.160 . S
C104 O111 1.185 . S
O105 C104 1.160 . S
O106 Zn107 1.899 . S
O106 C114 1.284 . S
Zn107 O106 1.899 . S
Zn107 O108 2.032 . S
Zn107 O111 2.086 . S
Zn107 O116 1.977 . S
O108 Zn107 2.032 . S
O108 C112 1.278 . S
C109 O110 1.203 . S
C109 O116 1.267 . S
O110 C109 1.203 . S
O111 C104 1.185 . S
O111 Zn107 2.086 . S
C112 O108 1.278 . S
C112 O113 1.211 . S
O113 C112 1.211 . S
C114 O106 1.284 . S
C114 O115 1.273 . S
O115 C114 1.273 . S
O116 Zn107 1.977 . S
O116 C109 1.267 . S
C117 O118 1.160 . S
C117 O124 1.185 . S
O118 C117 1.160 . S
O119 Zn120 1.899 . S
O119 C127 1.284 . S
Zn120 O119 1.899 . S
Zn120 O121 2.032 . S
Zn120 O124 2.086 . S
Zn120 O129 1.977 . S
O121 Zn120 2.032 . S
O121 C125 1.278 . S
C122 O123 1.203 . S
C122 O129 1.267 . S
O123 C122 1.203 . S
O124 C117 1.185 . S
O124 Zn120 2.086 . S
C125 O121 1.278 . S
C125 O126 1.211 . S
O126 C125 1.211 . S
C127 O119 1.284 . S
C127 O128 1.273 . S
O128 C127 1.273 . S
O129 Zn120 1.977 . S
O129 C122 1.267 . S
C130 O131 1.160 . S
C130 O137 1.185 . S
O131 C130 1.160 . S
O132 Zn133 1.899 . S
O132 C140 1.284 . S
Zn133 O132 1.899 . S
Zn133 O134 2.032 . S
Zn133 O137 2.086 . S
Zn133 O142 1.977 . S
O134 Zn133 2.032 . S
O134 C138 1.278 . S
C135 O136 1.203 . S
C135 O142 1.267 . S
O136 C135 1.203 . S
O137 C130 1.185 . S
O137 Zn133 2.086 . S
C138 O134 1.278 . S
C138 O139 1.211 . S
O139 C138 1.211 . S
C140 O132 1.284 . S
C140 O141 1.273 . S
O141 C140 1.273 . S
O142 Zn133 1.977 . S
O142 C135 1.267 . S
C143 O144 1.160 . S
C143 O150 1.185 . S
O144 C143 1.160 . S
O145 Zn146 1.899 . S
O145 C153 1.284 . S
Zn146 O145 1.899 . S
Zn146 O147 2.032 . S
Zn146 O150 2.086 . S
Zn146 O155 1.977 . S
O147 Zn146 2.032 . S
O147 C151 1.278 . S
C148 O149 1.203 . S
C148 O155 1.267 . S
O149 C148 1.203 . S
O150 C143 1.185 . S
O150 Zn146 2.086 . S
C151 O147 1.278 . S
C151 O152 1.211 . S
O152 C151 1.211 . S
C153 O145 1.284 . S
C153 O154 1.273 . S
O154 C153 1.273 . S
O155 Zn146 1.977 . S
O155 C148 1.267 . S
C156 O157 1.160 . S
C156 O163 1.185 . S
O157 C156 1.160 . S
O158 Zn159 1.899 . S
O158 C166 1.284 . S
Zn159 O158 1.899 . S
Zn159 O160 2.032 . S
Zn159 O163 2.086 . S
Zn159 O168 1.977 . S
O160 Zn159 2.032 . S
O160 C164 1.278 . S
C161 O162 1.203 . S
C161 O168 1.267 . S
O162 C161 1.203 . S
O163 C156 1.185 . S
O163 Zn159 2.086 . S
C164 O160 1.278 . S
C164 O165 1.211 . S
O165 C164 1.211 . S
C166 O158 1.284 . S
C166 O167 1.273 . S
O167 C166 1.273 . S
O168 Zn159 1.977 . S
O168 C161 1.267 . S
C169 O170 1.160 . S
C169 O176 1.185 . S
O170 C169 1.160 . S
O171 Zn172 1.899 . S
O171 C179 1.284 . S
Zn172 O171 1.899 . S
Zn172 O173 2.032 . S
Zn172 O176 2.086 . S
Zn172 O181 1.977 . S
O173 Zn172 2.032 . S
O173 C177 1.278 . S
C174 O175 1.203 . S
C174 O181 1.267 . S
O175 C174 1.203 . S
O176 C169 1.185 . S
O176 Zn172 2.086 . S
C177 O173 1.278 . S
C177 O178 1.211 . S
O178 C177 1.211 . S
C179 O171 1.284 . S
C179 O180 1.273 . S
O180 C179 1.273 . S
O181 Zn172 1.977 . S
O181 C174 1.267 . S
C182 O183 1.160 . S
C182 O189 1.185 . S
O183 C182 1.160 . S
O184 Zn185 1.899 . S
O184 C192 1.284 . S
Zn185 O184 1.899 . S
Zn185 O186 2.032 . S
Zn185 O189 2.086 . S
Zn185 O194 1.977 . S
O186 Zn185 2.032 . S
O186 C190 1.278 . S
C187 O188 1.203 . S
C187 O194 1.267 . S
O188 C187 1.203 . S
O189 C182 1.185 . S
O189 Zn185 2.086 . S
C190 O186 1.278 . S
C190 O191 1.211 . S
O191 C190 1.211 . S
C192 O184 1.284 . S
C192 O193 1.273 . S
O193 C192 1.273 . S
O194 Zn185 1.977 . S
O194 C187 1.267 . S
C195 O196 1.160 . S
C195 O202 1.185 . S
O196 C195 1.160 . S
O197 Zn198 1.899 . S
O197 C205 1.284 . S
Zn198 O197 1.899 . S
Zn198 O199 2.032 . S
Zn198 O202 2.086 . S
Zn198 O207 1.977 . S
O199 Zn198 2.032 . S
O199 C203 1.278 . S
C200 O201 1.203 . S
C200 O207 1.267 . S
O201 C200 1.203 . S
O202 C195 1.185 . S
O202 Zn198 2.086 . S
C203 O199 1.278 . S
C203 O204 1.211 . S
O204 C203 1.211 . S
C205 O197 1.284 . S
C205 O206 1.273 . S
O206 C205 1.273 . S
O207 Zn198 1.977 . S
O207 C200 1.267 . S
C208 C209 1.387 . S
C208 H212 0.950 . S
C208 C217 1.390 1_455 S
C209 C208 1.387 . S
C209 C211 1.387 . S
H210 C217 0.950 . S
C211 C209 1.387 . S
C211 C213 1.390 1_455 S
C211 H215 0.950 . S
H212 C208 0.950 . S
C213 C211 1.390 1_655 S
C213 C214 1.387 . S
C213 H216 0.950 . S
C214 C213 1.387 . S
C214 C217 1.387 . S
H215 C211 0.950 . S
H216 C213 0.950 . S
C217 C208 1.390 1_655 S
C217 H210 0.950 . S
C217 C214 1.387 . S
C218 C219 1.387 . S
C218 H222 0.950 . S
C218 C227 1.390 1_655 S
C219 C218 1.387 . S
C219 C221 1.387 . S
H220 C227 0.950 . S
C221 C219 1.387 . S
C221 C223 1.390 1_655 S
C221 H225 0.950 . S
H222 C218 0.950 . S
C223 C221 1.390 1_455 S
C223 C224 1.387 . S
C223 H226 0.950 . S
C224 C223 1.387 . S
C224 C227 1.387 . S
H225 C221 0.950 . S
H226 C223 0.950 . S
C227 C218 1.390 1_455 S
C227 H220 0.950 . S
C227 C224 1.387 . S
C228 C229 1.387 . S
C228 H232 0.950 . S
C228 C237 1.390 1_655 S
C229 C228 1.387 . S
C229 C231 1.387 . S
H230 C237 0.950 . S
C231 C229 1.387 . S
C231 C233 1.390 1_655 S
C231 H235 0.950 . S
H232 C228 0.950 . S
C233 C231 1.390 1_455 S
C233 C234 1.387 . S
C233 H236 0.950 . S
C234 C233 1.387 . S
C234 C237 1.387 . S
H235 C231 0.950 . S
H236 C233 0.950 . S
C237 C228 1.390 1_455 S
C237 H230 0.950 . S
C237 C234 1.387 . S
C238 C239 1.387 . S
C238 H242 0.950 . S
C238 C247 1.390 1_455 S
C239 C238 1.387 . S
C239 C241 1.387 . S
H240 C247 0.950 . S
C241 C239 1.387 . S
C241 C243 1.390 1_455 S
C241 H245 0.950 . S
H242 C238 0.950 . S
C243 C241 1.390 1_655 S
C243 C244 1.387 . S
C243 H246 0.950 . S
C244 C243 1.387 . S
C244 C247 1.387 . S
H245 C241 0.950 . S
H246 C243 0.950 . S
C247 C238 1.390 1_655 S
C247 H240 0.950 . S
C247 C244 1.387 . S
C248 C249 1.387 . S
C248 H252 0.950 . S
C248 C257 1.390 . S
C249 C248 1.387 . S
C249 C251 1.387 . S
H250 C257 0.950 . S
C251 C249 1.387 . S
C251 C253 1.390 . S
C251 H255 0.950 . S
H252 C248 0.950 . S
C253 C251 1.390 . S
C253 C254 1.387 . S
C253 H256 0.950 . S
C254 C253 1.387 . S
C254 C257 1.387 . S
H255 C251 0.950 . S
H256 C253 0.950 . S
C257 C248 1.390 . S
C257 H250 0.950 . S
C257 C254 1.387 . S
C258 C259 1.387 . S
C258 H262 0.950 . S
C258 C267 1.390 . S
C259 C258 1.387 . S
C259 C261 1.387 . S
H260 C267 0.950 . S
C261 C259 1.387 . S
C261 C263 1.390 . S
C261 H265 0.950 . S
H262 C258 0.950 . S
C263 C261 1.390 . S
C263 C264 1.387 . S
C263 H266 0.950 . S
C264 C263 1.387 . S
C264 C267 1.387 . S
H265 C261 0.950 . S
H266 C263 0.950 . S
C267 C258 1.390 . S
C267 H260 0.950 . S
C267 C264 1.387 . S
C268 C269 1.387 . S
C268 H272 0.950 . S
C268 C277 1.390 . S
C269 C268 1.387 . S
C269 C271 1.387 . S
H270 C277 0.950 . S
C271 C269 1.387 . S
C271 C273 1.390 . S
C271 H275 0.950 . S
H272 C268 0.950 . S
C273 C271 1.390 . S
C273 C274 1.387 . S
C273 H276 0.950 . S
C274 C273 1.387 . S
C274 C277 1.387 . S
H275 C271 0.950 . S
H276 C273 0.950 . S
C277 C268 1.390 . S
C277 H270 0.950 . S
C277 C274 1.387 . S
C278 C279 1.387 . S
C278 H282 0.950 . S
C278 C287 1.390 . S
C279 C278 1.387 . S
C279 C281 1.387 . S
H280 C287 0.950 . S
C281 C279 1.387 . S
C281 C283 1.390 . S
C281 H285 0.950 . S
H282 C278 0.950 . S
C283 C281 1.390 . S
C283 C284 1.387 . S
C283 H286 0.950 . S
C284 C283 1.387 . S
C284 C287 1.387 . S
H285 C281 0.950 . S
H286 C283 0.950 . S
C287 C278 1.390 . S
C287 H280 0.950 . S
C287 C284 1.387 . S
C288 C289 1.387 . S
C288 H292 0.950 . S
C288 C297 1.390 . S
C289 C288 1.387 . S
C289 C291 1.387 . S
H290 C297 0.950 . S
C291 C289 1.387 . S
C291 C293 1.390 . S
C291 H295 0.950 . S
H292 C288 0.950 . S
C293 C291 1.390 . S
C293 C294 1.387 . S
C293 H296 0.950 . S
C294 C293 1.387 . S
C294 C297 1.387 . S
H295 C291 0.950 . S
H296 C293 0.950 . S
C297 C288 1.390 . S
C297 H290 0.950 . S
C297 C294 1.387 . S
C298 C299 1.387 . S
C298 H302 0.950 . S
C298 C307 1.390 . S
C299 C298 1.387 . S
C299 C301 1.387 . S
H300 C307 0.950 . S
C301 C299 1.387 . S
C301 C303 1.390 . S
C301 H305 0.950 . S
H302 C298 0.950 . S
C303 C301 1.390 . S
C303 C304 1.387 . S
C303 H306 0.950 . S
C304 C303 1.387 . S
C304 C307 1.387 . S
H305 C301 0.950 . S
H306 C303 0.950 . S
C307 C298 1.390 . S
C307 H300 0.950 . S
C307 C304 1.387 . S
C308 C309 1.387 . S
C308 H312 0.950 . S
C308 C317 1.390 . S
C309 C308 1.387 . S
C309 C311 1.387 . S
H310 C317 0.950 . S
C311 C309 1.387 . S
C311 C313 1.390 . S
C311 H315 0.950 . S
H312 C308 0.950 . S
C313 C311 1.390 . S
C313 C314 1.387 . S
C313 H316 0.950 . S
C314 C313 1.387 . S
C314 C317 1.387 . S
H315 C311 0.950 . S
H316 C313 0.950 . S
C317 C308 1.390 . S
C317 H310 0.950 . S
C317 C314 1.387 . S
C318 C319 1.387 . S
C318 H322 0.950 . S
C318 C327 1.390 . S
C319 C318 1.387 . S
C319 C321 1.387 . S
H320 C327 0.950 . S
C321 C319 1.387 . S
C321 C323 1.390 . S
C321 H325 0.950 . S
H322 C318 0.950 . S
C323 C321 1.390 . S
C323 C324 1.387 . S
C323 H326 0.950 . S
C324 C323 1.387 . S
C324 C327 1.387 . S
H325 C321 0.950 . S
H326 C323 0.950 . S
C327 C318 1.390 . S
C327 H320 0.950 . S
C327 C324 1.387 . S
C328 C329 1.387 . S
C328 H332 0.950 . S
C328 C337 1.390 . S
C329 C328 1.387 . S
C329 C331 1.387 . S
H330 C337 0.950 . S
C331 C329 1.387 . S
C331 C333 1.390 . S
C331 H335 0.950 . S
H332 C328 0.950 . S
C333 C331 1.390 . S
C333 C334 1.387 . S
C333 H336 0.950 . S
C334 C333 1.387 . S
C334 C337 1.387 . S
H335 C331 0.950 . S
H336 C333 0.950 . S
C337 C328 1.390 . S
C337 H330 0.950 . S
C337 C334 1.387 . S
C338 C339 1.387 . S
C338 H342 0.950 . S
C338 C347 1.390 . S
C339 C338 1.387 . S
C339 C341 1.387 . S
H340 C347 0.950 . S
C341 C339 1.387 . S
C341 C343 1.390 . S
C341 H345 0.950 . S
H342 C338 0.950 . S
C343 C341 1.390 . S
C343 C344 1.387 . S
C343 H346 0.950 . S
C344 C343 1.387 . S
C344 C347 1.387 . S
H345 C341 0.950 . S
H346 C343 0.950 . S
C347 C338 1.390 . S
C347 H340 0.950 . S
C347 C344 1.387 . S
C348 C349 1.387 . S
C348 H352 0.950 . S
C348 C357 1.390 . S
C349 C348 1.387 . S
C349 C351 1.387 . S
H350 C357 0.950 . S
C351 C349 1.387 . S
C351 C353 1.390 . S
C351 H355 0.950 . S
H352 C348 0.950 . S
C353 C351 1.390 . S
C353 C354 1.387 . S
C353 H356 0.950 . S
C354 C353 1.387 . S
C354 C357 1.387 . S
H355 C351 0.950 . S
H356 C353 0.950 . S
C357 C348 1.390 . S
C357 H350 0.950 . S
C357 C354 1.387 . S
C358 C359 1.387 . S
C358 H362 0.950 . S
C358 C367 1.390 . S
C359 C358 1.387 . S
C359 C361 1.387 . S
H360 C367 0.950 . S
C361 C359 1.387 . S
C361 C363 1.390 . S
C361 H365 0.950 . S
H362 C358 0.950 . S
C363 C361 1.390 . S
C363 C364 1.387 . S
C363 H366 0.950 . S
C364 C363 1.387 . S
C364 C367 1.387 . S
H365 C361 0.950 . S
H366 C363 0.950 . S
C367 C358 1.390 . S
C367 H360 0.950 . S
C367 C364 1.387 . S
C368 C369 1.387 1_554 S
C368 H372 0.950 . S
C368 C377 1.390 . S
C369 C368 1.387 1_556 S
C369 C371 1.387 . S
H370 C377 0.950 . S
C371 C369 1.387 . S
C371 C373 1.390 . S
C371 H375 0.950 . S
H372 C368 0.950 . S
C373 C371 1.390 . S
C373 C374 1.387 1_556 S
C373 H376 0.950 . S
C374 C373 1.387 1_554 S
C374 C377 1.387 . S
H375 C371 0.950 . S
H376 C373 0.950 . S
C377 C368 1.390 . S
C377 H370 0.950 . S
C377 C374 1.387 . S
C378 C379 1.387 . S
C378 H382 0.950 . S
C378 C387 1.390 . S
C379 C378 1.387 . S
C379 C381 1.387 . S
H380 C387 0.950 . S
C381 C379 1.387 . S
C381 C383 1.390 . S
C381 H385 0.950 . S
H382 C378 0.950 . S
C383 C381 1.390 . S
C383 C384 1.387 . S
C383 H386 0.950 . S
C384 C383 1.387 . S
C384 C387 1.387 . S
H385 C381 0.950 . S
H386 C383 0.950 . S
C387 C378 1.390 . S
C387 H380 0.950 . S
C387 C384 1.387 . S
C388 C389 1.387 . S
C388 H392 0.950 . S
C388 C397 1.390 . S
C389 C388 1.387 . S
C389 C391 1.387 1_554 S
H390 C397 0.950 . S
C391 C389 1.387 1_556 S
C391 C393 1.390 . S
C391 H395 0.950 . S
H392 C388 0.950 . S
C393 C391 1.390 . S
C393 C394 1.387 . S
C393 H396 0.950 . S
C394 C393 1.387 . S
C394 C397 1.387 1_556 S
H395 C391 0.950 . S
H396 C393 0.950 . S
C397 C388 1.390 . S
C397 H390 0.950 . S
C397 C394 1.387 1_554 S
C398 C399 1.387 . S
C398 H402 0.950 . S
C398 C407 1.390 . S
C399 C398 1.387 . S
C399 C401 1.387 . S
H400 C407 0.950 . S
C401 C399 1.387 . S
C401 C403 1.390 . S
C401 H405 0.950 . S
H402 C398 0.950 . S
C403 C401 1.390 . S
C403 C404 1.387 . S
C403 H406 0.950 . S
C404 C403 1.387 . S
C404 C407 1.387 . S
H405 C401 0.950 . S
H406 C403 0.950 . S
C407 C398 1.390 . S
C407 H400 0.950 . S
C407 C404 1.387 . S
C408 C409 1.387 1_556 S
C408 H412 0.950 . S
C408 C417 1.390 . S
C409 C408 1.387 1_554 S
C409 C411 1.387 . S
H410 C417 0.950 . S
C411 C409 1.387 . S
C411 C413 1.390 . S
C411 H415 0.950 . S
H412 C408 0.950 . S
C413 C411 1.390 . S
C413 C414 1.387 1_554 S
C413 H416 0.950 . S
C414 C413 1.387 1_556 S
C414 C417 1.387 . S
H415 C411 0.950 . S
H416 C413 0.950 . S
C417 C408 1.390 . S
C417 H410 0.950 . S
C417 C414 1.387 . S
C418 C419 1.387 . S
C418 H422 0.950 . S
C418 C427 1.390 . S
C419 C418 1.387 . S
C419 C421 1.387 . S
H420 C427 0.950 . S
C421 C419 1.387 . S
C421 C423 1.390 . S
C421 H425 0.950 . S
H422 C418 0.950 . S
C423 C421 1.390 . S
C423 C424 1.387 . S
C423 H426 0.950 . S
C424 C423 1.387 . S
C424 C427 1.387 . S
H425 C421 0.950 . S
H426 C423 0.950 . S
C427 C418 1.390 . S
C427 H420 0.950 . S
C427 C424 1.387 . S
C428 C429 1.387 . S
C428 H432 0.950 . S
C428 C437 1.390 . S
C429 C428 1.387 . S
C429 C431 1.387 1_554 S
H430 C437 0.950 . S
C431 C429 1.387 1_556 S
C431 C433 1.390 . S
C431 H435 0.950 . S
H432 C428 0.950 . S
C433 C431 1.390 . S
C433 C434 1.387 . S
C433 H436 0.950 . S
C434 C433 1.387 . S
C434 C437 1.387 1_556 S
H435 C431 0.950 . S
H436 C433 0.950 . S
C437 C428 1.390 . S
C437 H430 0.950 . S
C437 C434 1.387 1_554 S
C438 C439 1.387 . S
C438 H442 0.950 . S
C438 C447 1.390 . S
C439 C438 1.387 . S
C439 C441 1.387 . S
H440 C447 0.950 . S
C441 C439 1.387 . S
C441 C443 1.390 . S
C441 H445 0.950 . S
H442 C438 0.950 . S
C443 C441 1.390 . S
C443 C444 1.387 . S
C443 H446 0.950 . S
C444 C443 1.387 . S
C444 C447 1.387 . S
H445 C441 0.950 . S
H446 C443 0.950 . S
C447 C438 1.390 . S
C447 H440 0.950 . S
C447 C444 1.387 . S
C448 C449 1.387 . S
C448 H452 0.950 . S
C448 C457 1.390 1_556 S
C449 C448 1.387 . S
C449 C451 1.387 . S
H450 C457 0.950 . S
C451 C449 1.387 . S
C451 C453 1.390 1_556 S
C451 H455 0.950 . S
H452 C448 0.950 . S
C453 C451 1.390 1_554 S
C453 C454 1.387 . S
C453 H456 0.950 . S
C454 C453 1.387 . S
C454 C457 1.387 . S
H455 C451 0.950 . S
H456 C453 0.950 . S
C457 C448 1.390 1_554 S
C457 H450 0.950 . S
C457 C454 1.387 . S
C458 C459 1.387 . S
C458 H462 0.950 . S
C458 C467 1.390 . S
C459 C458 1.387 . S
C459 C461 1.387 . S
H460 C467 0.950 . S
C461 C459 1.387 . S
C461 C463 1.390 . S
C461 H465 0.950 . S
H462 C458 0.950 . S
C463 C461 1.390 . S
C463 C464 1.387 . S
C463 H466 0.950 . S
C464 C463 1.387 . S
C464 C467 1.387 . S
H465 C461 0.950 . S
H466 C463 0.950 . S
C467 C458 1.390 . S
C467 H460 0.950 . S
C467 C464 1.387 . S
C468 C469 1.387 . S
C468 H472 0.950 . S
C468 C477 1.390 1_554 S
C469 C468 1.387 . S
C469 C471 1.387 . S
H470 C477 0.950 . S
C471 C469 1.387 . S
C471 C473 1.390 1_554 S
C471 H475 0.950 . S
H472 C468 0.950 . S
C473 C471 1.390 1_556 S
C473 C474 1.387 . S
C473 H476 0.950 . S
C474 C473 1.387 . S
C474 C477 1.387 . S
H475 C471 0.950 . S
H476 C473 0.950 . S
C477 C468 1.390 1_556 S
C477 H470 0.950 . S
C477 C474 1.387 . S
C478 C479 1.387 . S
C478 H482 0.950 . S
C478 C487 1.390 . S
C479 C478 1.387 . S
C479 C481 1.387 . S
H480 C487 0.950 . S
C481 C479 1.387 . S
C481 C483 1.390 . S
C481 H485 0.950 . S
H482 C478 0.950 . S
C483 C481 1.390 . S
C483 C484 1.387 . S
C483 H486 0.950 . S
C484 C483 1.387 . S
C484 C487 1.387 . S
H485 C481 0.950 . S
H486 C483 0.950 . S
C487 C478 1.390 . S
C487 H480 0.950 . S
C487 C484 1.387 . S
C488 C489 1.387 . S
C488 H492 0.950 . S
C488 C497 1.390 1_546 S
C489 C488 1.387 . S
C489 C491 1.387 . S
H490 C497 0.950 . S
C491 C489 1.387 . S
C491 C493 1.390 1_546 S
C491 H495 0.950 . S
H492 C488 0.950 . S
C493 C491 1.390 1_564 S
C493 C494 1.387 . S
C493 H496 0.950 . S
C494 C493 1.387 . S
C494 C497 1.387 . S
H495 C491 0.950 . S
H496 C493 0.950 . S
C497 C488 1.390 1_564 S
C497 H490 0.950 . S
C497 C494 1.387 . S
C498 C499 1.387 . S
C498 H502 0.950 . S
C498 C507 1.390 1_565 S
C499 C498 1.387 . S
C499 C501 1.387 . S
H500 C507 0.950 . S
C501 C499 1.387 . S
C501 C503 1.390 1_565 S
C501 H505 0.950 . S
H502 C498 0.950 . S
C503 C501 1.390 1_545 S
C503 C504 1.387 . S
C503 H506 0.950 . S
C504 C503 1.387 . S
C504 C507 1.387 . S
H505 C501 0.950 . S
H506 C503 0.950 . S
C507 C498 1.390 1_545 S
C507 H500 0.950 . S
C507 C504 1.387 . S
C508 C509 1.387 . S
C508 H512 0.950 . S
C508 C517 1.390 1_564 S
C509 C508 1.387 . S
C509 C511 1.387 . S
H510 C517 0.950 . S
C511 C509 1.387 . S
C511 C513 1.390 1_564 S
C511 H515 0.950 . S
H512 C508 0.950 . S
C513 C511 1.390 1_546 S
C513 C514 1.387 . S
C513 H516 0.950 . S
C514 C513 1.387 . S
C514 C517 1.387 . S
H515 C511 0.950 . S
H516 C513 0.950 . S
C517 C508 1.390 1_546 S
C517 H510 0.950 . S
C517 C514 1.387 . S
C518 C519 1.387 . S
C518 H522 0.950 . S
C518 C527 1.390 1_545 S
C519 C518 1.387 . S
C519 C521 1.387 . S
H520 C527 0.950 . S
C521 C519 1.387 . S
C521 C523 1.390 1_545 S
C521 H525 0.950 . S
H522 C518 0.950 . S
C523 C521 1.390 1_565 S
C523 C524 1.387 . S
C523 H526 0.950 . S
C524 C523 1.387 . S
C524 C527 1.387 . S
H525 C521 0.950 . S
H526 C523 0.950 . S
C527 C518 1.390 1_565 S
C527 H520 0.950 . S
C527 C524 1.387 . S
C209 C5 1.431 . S
C214 C83 1.435 . S
C219 C18 1.431 . S
C224 C96 1.435 . S
C229 C57 1.435 . S
C234 C31 1.432 . S
C239 C70 1.435 . S
C244 C44 1.431 . S
C249 C187 1.435 . S
C254 C109 1.431 . S
C259 C200 1.435 . S
C264 C122 1.431 . S
C269 C135 1.433 . S
C274 C161 1.434 . S
C279 C148 1.431 . S
C284 C174 1.435 . S
C289 C10 1.436 . S
C294 C73 1.397 . S
C299 C23 1.436 . S
C304 C60 1.396 . S
C309 C36 1.437 . S
C314 C99 1.394 . S
C319 C86 1.397 . S
C324 C49 1.436 . S
C329 C177 1.397 . S
C334 C114 1.436 . S
C339 C164 1.397 . S
C344 C127 1.436 . S
C349 C140 1.436 . S
C354 C203 1.397 . S
C359 C190 1.397 . S
C364 C153 1.436 . S
C369 C156 1.334 . S
C374 C0 1.339 . S
C379 C13 1.338 . S
C384 C169 1.336 . S
C389 C182 1.337 . S
C394 C26 1.337 . S
C399 C195 1.335 . S
C404 C39 1.338 . S
C409 C104 1.338 . S
C414 C52 1.336 . S
C419 C117 1.338 . S
C424 C65 1.335 . S
C429 C78 1.337 . S
C434 C130 1.337 . S
C439 C91 1.336 . S
C444 C143 1.338 . S
C449 C34 1.390 . S
C454 C8 1.390 . S
C459 C21 1.390 . S
C464 C47 1.390 . S
C469 C88 1.430 . S
C474 C62 1.430 . S
C479 C75 1.429 . S
C484 C101 1.429 . S
C489 C138 1.390 . S
C494 C112 1.390 . S
C499 C151 1.390 . S
C504 C125 1.390 . S
C509 C192 1.429 . S
C514 C166 1.429 . S
C519 C205 1.430 . S
C524 C179 1.430 . S
