# Generated by pormake.
# Topology ukg, (4)-cn, num edge types: 1
# Building blocks:
#     Node 0, Type 0, BuildingBlock: MUDLON_clean_sbu_0, # of connection points: 4
#     Node 1, Type 0, BuildingBlock: MUDLON_clean_sbu_0, # of connection points: 4
#     Node 2, Type 0, BuildingBlock: MUDLON_clean_sbu_0, # of connection points: 4
#     Node 3, Type 0, BuildingBlock: MUDLON_clean_sbu_0, # of connection points: 4
#     Node 4, Type 0, BuildingBlock: MUDLON_clean_sbu_0, # of connection points: 4
#     Node 5, Type 0, BuildingBlock: MUDLON_clean_sbu_0, # of connection points: 4
#     Node 6, Type 0, BuildingBlock: MUDLON_clean_sbu_0, # of connection points: 4
#     Node 7, Type 0, BuildingBlock: MUDLON_clean_sbu_0, # of connection points: 4
#     Edge 8, Type (0, 0), BuildingBlock: XIVTED_clean_linker_0, # of connection points: 2
#     Edge 9, Type (0, 0), BuildingBlock: XIVTED_clean_linker_0, # of connection points: 2
#     Edge 10, Type (0, 0), BuildingBlock: XIVTED_clean_linker_0, # of connection points: 2
#     Edge 11, Type (0, 0), BuildingBlock: XIVTED_clean_linker_0, # of connection points: 2
#     Edge 12, Type (0, 0), BuildingBlock: XIVTED_clean_linker_0, # of connection points: 2
#     Edge 13, Type (0, 0), BuildingBlock: XIVTED_clean_linker_0, # of connection points: 2
#     Edge 14, Type (0, 0), BuildingBlock: XIVTED_clean_linker_0, # of connection points: 2
#     Edge 15, Type (0, 0), BuildingBlock: XIVTED_clean_linker_0, # of connection points: 2
#     Edge 16, Type (0, 0), BuildingBlock: XIVTED_clean_linker_0, # of connection points: 2
#     Edge 17, Type (0, 0), BuildingBlock: XIVTED_clean_linker_0, # of connection points: 2
#     Edge 18, Type (0, 0), BuildingBlock: XIVTED_clean_linker_0, # of connection points: 2
#     Edge 19, Type (0, 0), BuildingBlock: XIVTED_clean_linker_0, # of connection points: 2
#     Edge 20, Type (0, 0), BuildingBlock: XIVTED_clean_linker_0, # of connection points: 2
#     Edge 21, Type (0, 0), BuildingBlock: XIVTED_clean_linker_0, # of connection points: 2
#     Edge 22, Type (0, 0), BuildingBlock: XIVTED_clean_linker_0, # of connection points: 2
#     Edge 23, Type (0, 0), BuildingBlock: XIVTED_clean_linker_0, # of connection points: 2
# Relax obj value: 0.086
# Max RMSD: 0.240
# Mean RMSD: 0.240
data_MOF--net-ukg--node1-MUDLON_clean_sbu_0--edge1-XIVTED_clean_linker_0
_symmetry_space_group_name_H-M    P1
_symmetry_Int_Tables_number       1
_symmetry_cell_setting            triclinic
loop_
_symmetry_equiv_pos_as_xyz
'x, y, z'
_cell_length_a     32.443865
_cell_length_b     32.755415
_cell_length_c     37.076471
_cell_angle_alpha  89.700118
_cell_angle_beta   89.855765
_cell_angle_gamma 89.866921
loop_
_atom_site_label
_atom_site_type_symbol
_atom_site_fract_x
_atom_site_fract_y
_atom_site_fract_z
_atom_type_partial_charge
Mg0 Mg 0.03898 0.66799 0.17446 0.0
C1 C 0.99854 0.65742 0.24759 0.0
O2 O 1.00767 0.6964 0.24952 0.0
C3 C 0.12314 0.68761 0.15083 0.0
O4 O 0.10176 0.68923 0.1208 0.0
C5 C 0.0364 0.59531 0.12648 0.0
O6 O 0.05339 0.58011 0.15576 0.0
O7 O 0.02639 0.6329 0.126 0.0
O8 O 1.01023 0.63725 0.22016 0.0
O9 O 1.01461 0.7297 0.1728 0.0
C10 C 0.97675 0.73827 0.17732 0.0
O11 O 0.94981 0.70844 0.17933 0.0
O12 O 0.10494 0.67675 0.17973 0.0
Mg13 Mg 0.35728 0.54002 0.6789 0.0
C14 C 0.41686 0.50348 0.73449 0.0
O15 O 0.44502 0.51413 0.71074 0.0
C16 C 0.33216 0.62192 0.65427 0.0
O17 O 0.33563 0.60134 0.62408 0.0
C18 C 0.41577 0.50206 0.62199 0.0
O19 O 0.39849 0.46745 0.63167 0.0
O20 O 0.40388 0.53508 0.63664 0.0
O21 O 0.37942 0.5129 0.72876 0.0
O22 O 0.30007 0.50701 0.66931 0.0
C23 C 0.26716 0.52385 0.68075 0.0
O24 O 0.26925 0.56105 0.69363 0.0
O25 O 0.34123 0.60416 0.68378 0.0
Mg26 Mg 0.48506 0.84741 0.17594 0.0
C27 C 0.51984 0.9115 0.22739 0.0
O28 O 0.51302 0.93643 0.20017 0.0
C29 C 0.40262 0.81838 0.152 0.0
O30 O 0.42136 0.82435 0.12096 0.0
C31 C 0.5265 0.89805 0.11713 0.0
O32 O 0.55922 0.87879 0.12934 0.0
O33 O 0.49155 0.89028 0.13111 0.0
O34 O 0.50821 0.87458 0.22517 0.0
O35 O 0.52441 0.79385 0.17193 0.0
C36 C 0.51039 0.75769 0.16996 0.0
O37 O 0.4709 0.75231 0.164 0.0
O38 O 0.42167 0.82687 0.18091 0.0
Mg39 Mg 0.17982 0.98403 0.67029 0.0
C40 C 0.159 0.02434 0.74208 0.0
O41 O 0.19887 0.0206 0.74728 0.0
C42 C 0.20511 0.90151 0.64841 0.0
O43 O 0.20989 0.92305 0.6187 0.0
C44 C 0.11234 0.9767 0.61704 0.0
O45 O 0.10152 0.95064 0.64239 0.0
O46 O 0.1461 0.996 0.62053 0.0
O47 O 0.1431 1.00973 0.71362 0.0
O48 O 0.24119 1.01023 0.67284 0.0
C49 C 0.24866 0.04778 0.67815 0.0
O50 O 0.21793 0.07397 0.67851 0.0
O51 O 0.19027 0.91897 0.67611 0.0
Mg52 Mg 0.99273 0.34625 0.86017 0.0
C53 C 1.00524 0.25818 0.84339 0.0
O54 O 0.97106 0.26644 0.82588 0.0
C55 C 0.99135 0.41814 0.90926 0.0
O56 O 0.97563 0.43365 0.87955 0.0
C57 C 0.90951 0.31239 0.87403 0.0
O58 O 0.93125 0.29666 0.90057 0.0
O59 O 0.92712 0.33668 0.85204 0.0
O60 O 0.02205 0.28628 0.86177 0.0
O61 O 0.02119 0.3808 0.81637 0.0
C62 C 0.04318 0.36304 0.79266 0.0
O63 O 0.04629 0.32307 0.7934 0.0
O64 O 1.00175 0.38065 0.90964 0.0
Mg65 Mg 0.68355 0.48164 0.36423 0.0
C66 C 0.75164 0.54782 0.37164 0.0
O67 O 0.72094 0.5736 0.37546 0.0
C68 C 0.64315 0.50715 0.43691 0.0
O69 O 0.66856 0.53826 0.43532 0.0
C70 C 0.72784 0.4032 0.36673 0.0
O71 O 0.74656 0.42516 0.39128 0.0
O72 O 0.69763 0.41892 0.34977 0.0
O73 O 0.74415 0.50983 0.36931 0.0
O74 O 0.6521 0.51439 0.32093 0.0
C75 C 0.63664 0.54878 0.32921 0.0
O76 O 0.63754 0.56044 0.36302 0.0
O77 O 0.64431 0.48031 0.41224 0.0
Mg78 Mg 0.53799 0.18276 0.87334 0.0
C79 C 0.4796 0.25458 0.87433 0.0
O80 O 0.45279 0.22546 0.86815 0.0
C81 C 0.55467 0.11406 0.92466 0.0
O82 O 0.58727 0.11269 0.90361 0.0
C83 C 0.61707 0.21946 0.84611 0.0
O84 O 0.59043 0.2445 0.83103 0.0
O85 O 0.60374 0.1889 0.86389 0.0
O86 O 0.51672 0.24489 0.88117 0.0
O87 O 0.50409 0.16195 0.82648 0.0
C88 C 0.49551 0.12479 0.82041 0.0
O89 O 0.51032 0.09634 0.84189 0.0
O90 O 0.52758 0.14149 0.9189 0.0
Mg91 Mg 0.84399 0.03204 0.36404 0.0
C92 C 0.7692 0.9773 0.36606 0.0
O93 O 0.79781 0.94912 0.36254 0.0
C94 C 0.91597 0.03957 0.41437 0.0
O95 O 0.92405 0.06892 0.39113 0.0
C96 C 0.81233 0.11137 0.33489 0.0
O97 O 0.78714 0.08566 0.31918 0.0
O98 O 0.84153 0.0973 0.35414 0.0
O99 O 0.78009 0.01413 0.37069 0.0
O100 O 0.86459 0.99728 0.31766 0.0
C101 C 0.90203 0.98951 0.31026 0.0
O102 O 0.93125 1.00553 0.33011 0.0
O103 O 0.88328 0.01866 0.41033 0.0
H104 H 0.973 0.49929 0.91626 0.0
H105 H 0.05353 0.51387 0.11986 0.0
H106 H 0.02312 0.39686 0.97546 0.0
H107 H 1.00329 0.61628 0.06071 0.0
H108 H 0.04221 0.47056 0.06746 0.0
H109 H 0.9834 0.54238 0.96895 0.0
C110 C 0.98616 0.48579 0.94035 0.0
C111 C 0.99722 0.44431 0.94137 0.0
C112 C 0.03363 0.50249 0.0659 0.0
C113 C 1.00927 0.4937 1.00197 0.0
C114 C 0.04009 0.52731 0.09585 0.0
C115 C 0.02937 0.56886 0.09474 0.0
C116 C 0.01631 0.51924 0.03445 0.0
C117 C 1.01204 0.58445 0.06283 0.0
C118 C 0.99211 0.51049 0.97047 0.0
C119 C 1.01415 0.42864 0.9734 0.0
N120 N 1.00608 0.55964 0.03398 0.0
N121 N 0.01967 0.45334 1.00239 0.0
H122 H 0.46382 0.56699 0.6018 0.0
H123 H 0.59024 0.44401 0.45176 0.0
H124 H 0.44537 0.43882 0.58086 0.0
H125 H 0.62292 0.56494 0.4873 0.0
H126 H 0.53549 0.44213 0.49719 0.0
H127 H 0.52013 0.56759 0.55799 0.0
C128 C 0.47153 0.53894 0.58796 0.0
C129 C 0.44971 0.50277 0.59507 0.0
C130 C 0.55476 0.469 0.49516 0.0
C131 C 0.51438 0.50331 0.54469 0.0
C132 C 0.58605 0.47013 0.4692 0.0
C133 C 0.61128 0.50473 0.46563 0.0
C134 C 0.54829 0.50285 0.51759 0.0
C135 C 0.60434 0.5376 0.48906 0.0
C136 C 0.50384 0.5393 0.563 0.0
C137 C 0.46129 0.46739 0.5763 0.0
N138 N 0.5734 0.53593 0.51387 0.0
N139 N 0.49272 0.46858 0.55192 0.0
H140 H 0.59551 0.9185 0.07848 0.0
H141 H 0.48741 0.10101 0.9687 0.0
H142 H 0.46688 0.94969 0.0905 0.0
H143 H 0.61034 0.05666 0.94701 0.0
H144 H 0.47995 0.04843 1.0156 0.0
H145 H 0.60213 0.97141 0.03223 0.0
C146 C 0.5686 0.93642 0.07137 0.0
C147 C 0.53057 0.92953 0.08842 0.0
C148 C 0.50854 0.05026 1.00055 0.0
C149 C 0.53799 0.99052 0.03544 0.0
C150 C 0.51286 0.08035 0.97385 0.0
C151 C 0.54954 0.08328 0.95383 0.0
C152 C 0.54123 0.02307 1.00743 0.0
C153 C 0.58145 0.05557 0.96165 0.0
C154 C 0.5724 0.96667 0.04491 0.0
C155 C 0.4968 0.95382 0.07803 0.0
N156 N 0.57656 0.02676 0.98779 0.0
N157 N 0.50133 0.98328 0.05229 0.0
H158 H 0.98913 0.07751 0.42894 0.0
H159 H 0.0396 0.93864 0.60181 0.0
H160 H 0.90996 0.98079 0.46732 0.0
H161 H 0.12095 0.0328 0.56195 0.0
H162 H 0.99218 0.95343 0.5525 0.0
H163 H 0.03769 0.0617 0.47729 0.0
C164 C 0.98188 0.05296 0.44755 0.0
C165 C 0.94529 0.03047 0.44402 0.0
C166 C 0.02042 0.97083 0.55443 0.0
C167 C 1.00102 0.01214 0.49956 0.0
C168 C 0.04762 0.96239 0.58262 0.0
C169 C 0.08438 0.98456 0.58614 0.0
C170 C 0.02986 1.0018 0.52944 0.0
C171 C 0.093 0.01492 0.56034 0.0
C172 C 1.00972 0.04391 0.47516 0.0
C173 C 0.9377 0.99897 0.46898 0.0
N174 N 0.0659 0.02271 0.53316 0.0
N175 N 0.96529 0.99078 0.49566 0.0
H176 H 0.1711 0.70822 0.09309 0.0
H177 H 0.35712 0.79539 0.21139 0.0
H178 H 0.17286 0.70224 0.20941 0.0
H179 H 0.35442 0.79668 0.09498 0.0
H180 H 0.29019 0.76089 0.2118 0.0
H181 H 0.23926 0.73912 0.09379 0.0
C182 C 0.18595 0.71314 0.11883 0.0
C183 C 0.16611 0.70273 0.15125 0.0
C184 C 0.30429 0.76875 0.1862 0.0
C185 C 0.24435 0.73861 0.15228 0.0
C186 C 0.34242 0.78858 0.18593 0.0
C187 C 0.36142 0.79903 0.15308 0.0
C188 C 0.28501 0.75935 0.15339 0.0
C189 C 0.341 0.78929 0.12095 0.0
C190 C 0.22492 0.73092 0.11921 0.0
C191 C 0.18701 0.70976 0.18376 0.0
N192 N 0.30398 0.77005 0.12193 0.0
N193 N 0.22493 0.7275 0.18347 0.0
H194 H 0.31477 0.66914 0.59545 0.0
H195 H 0.21302 0.85169 0.70798 0.0
H196 H 0.3086 0.66943 0.71177 0.0
H197 H 0.23328 0.85477 0.59288 0.0
H198 H 0.24409 0.78343 0.71015 0.0
H199 H 0.28209 0.73612 0.59432 0.0
C200 C 0.3067 0.68337 0.62082 0.0
C201 C 0.31451 0.66362 0.65377 0.0
C202 C 0.24159 0.79905 0.68444 0.0
C203 C 0.27665 0.74049 0.65265 0.0
C204 C 0.22367 0.83791 0.68315 0.0
C205 C 0.22064 0.85904 0.6502 0.0
C206 C 0.25638 0.78118 0.65254 0.0
C207 C 0.23509 0.83975 0.6189 0.0
C208 C 0.28795 0.72167 0.62014 0.0
C209 C 0.30331 0.68363 0.68576 0.0
N210 N 0.25235 0.80202 0.62087 0.0
N211 N 0.28481 0.72095 0.68441 0.0
H212 H 0.67923 0.18052 0.8826 0.0
H213 H 0.85357 0.34091 0.82426 0.0
H214 H 0.65609 0.28236 0.81101 0.0
H215 H 0.86752 0.25291 0.91048 0.0
H216 H 0.78315 0.31637 0.81466 0.0
H217 H 0.75087 0.20233 0.88787 0.0
C218 C 0.68928 0.20725 0.86769 0.0
C219 C 0.66149 0.22977 0.84648 0.0
C220 C 0.80167 0.3025 0.83568 0.0
C221 C 0.74354 0.2551 0.85262 0.0
C222 C 0.84183 0.31652 0.84121 0.0
C223 C 0.86645 0.29906 0.86831 0.0
C224 C 0.78616 0.27058 0.85722 0.0
C225 C 0.84965 0.26744 0.88939 0.0
C226 C 0.73017 0.21982 0.87087 0.0
C227 C 0.67636 0.26416 0.8278 0.0
N228 N 0.81066 0.2542 0.88334 0.0
N229 N 0.71633 0.27586 0.8314 0.0
H230 H 0.79458 0.36426 0.3955 0.0
H231 H 0.75025 0.1512 0.29901 0.0
H232 H 0.69441 0.34642 0.32082 0.0
H233 H 0.85336 0.17259 0.36978 0.0
H234 H 0.73128 0.22323 0.3038 0.0
H235 H 0.81792 0.29482 0.38414 0.0
C236 C 0.77745 0.34575 0.37664 0.0
C237 C 0.7423 0.36118 0.35923 0.0
C238 C 0.75824 0.21223 0.31805 0.0
C239 C 0.76903 0.28129 0.34604 0.0
C240 C 0.76917 0.17109 0.31527 0.0
C241 C 0.80332 0.15571 0.33423 0.0
C242 C 0.78151 0.23819 0.34004 0.0
C243 C 0.8267 0.183 0.3548 0.0
C244 C 0.79091 0.30604 0.3701 0.0
C245 C 0.72157 0.33574 0.33493 0.0
N246 N 0.81518 0.22279 0.35736 0.0
N247 N 0.73515 0.29696 0.32918 0.0
H248 H 0.77974 0.62669 0.37398 0.0
H249 H 0.97708 0.57688 0.25502 0.0
H250 H 0.81899 0.5039 0.34938 0.0
H251 H 0.95297 0.69612 0.29949 0.0
H252 H 0.92197 0.54887 0.29271 0.0
H253 H 0.84537 0.65226 0.35064 0.0
C254 C 0.80237 0.60503 0.36418 0.0
C255 C 0.79357 0.56311 0.36327 0.0
C256 C 0.92909 0.58107 0.29461 0.0
C257 C 0.86861 0.59225 0.33604 0.0
C258 C 0.96056 0.59709 0.27305 0.0
C259 C 0.96943 0.63899 0.27383 0.0
C260 C 0.9059 0.6072 0.31677 0.0
C261 C 0.94712 0.66366 0.29787 0.0
C262 C 0.83987 0.61967 0.35082 0.0
C263 C 0.82423 0.5365 0.3504 0.0
N264 N 0.91602 0.64751 0.318 0.0
N265 N 0.86009 0.55156 0.33682 0.0
H266 H 0.49336 0.47727 0.75615 0.0
H267 H 0.40318 0.28779 0.86289 0.0
H268 H 0.36383 0.46376 0.78025 0.0
H269 H 0.53242 0.31876 0.86371 0.0
H270 H 0.38788 0.35468 0.83661 0.0
H271 H 0.5086 0.4222 0.79891 0.0
C272 C 0.46817 0.46316 0.7708 0.0
C273 C 0.42722 0.47487 0.76423 0.0
C274 C 0.41953 0.34713 0.8431 0.0
C275 C 0.4444 0.41145 0.81291 0.0
C276 C 0.42827 0.30892 0.85814 0.0
C277 C 0.46917 0.29744 0.86517 0.0
C278 C 0.45198 0.37383 0.83445 0.0
C279 C 0.50043 0.32618 0.85859 0.0
C280 C 0.4769 0.43172 0.79525 0.0
C281 C 0.39586 0.45559 0.78419 0.0
N282 N 0.49126 0.36276 0.84303 0.0
N283 N 0.40505 0.42445 0.80718 0.0
H284 H 0.54893 0.98803 0.24278 0.0
H285 H 0.73319 0.90216 0.35967 0.0
H286 H 0.55525 0.8627 0.27899 0.0
H287 H 0.70682 0.03099 0.35022 0.0
H288 H 0.66573 0.88729 0.33371 0.0
H289 H 0.60387 1.00519 0.28509 0.0
C290 C 0.56139 0.96424 0.26001 0.0
C291 C 0.54775 0.92378 0.25699 0.0
C292 C 0.67439 0.91882 0.33788 0.0
C293 C 0.61109 0.94308 0.30511 0.0
C294 C 0.71294 0.92732 0.35272 0.0
C295 C 0.72588 0.96786 0.3568 0.0
C296 C 0.64887 0.95109 0.32646 0.0
C297 C 0.69824 0.99925 0.34743 0.0
C298 C 0.59276 0.97406 0.2842 0.0
C299 C 0.56493 0.89427 0.28018 0.0
N300 N 0.66135 0.99021 0.33213 0.0
N301 N 0.59614 0.90437 0.3028 0.0
H302 H 0.08364 0.235 0.86318 0.0
H303 H 0.07532 0.03449 0.7421 0.0
H304 H 0.97423 0.19092 0.81019 0.0
H305 H 0.18573 0.0758 0.79526 0.0
H306 H 0.03589 0.08633 0.77421 0.0
H307 H 0.11958 0.17217 0.84587 0.0
C308 C 0.067 0.2119 0.84837 0.0
C309 C 0.02603 0.21847 0.83769 0.0
C310 C 0.06866 0.08382 0.77922 0.0
C311 C 0.06695 0.14672 0.81766 0.0
C312 C 0.09121 0.05413 0.76089 0.0
C313 C 0.134 0.05111 0.76562 0.0
C314 C 0.08903 0.11106 0.80224 0.0
C315 C 0.15284 0.07719 0.79059 0.0
C316 C 0.08756 0.17607 0.83843 0.0
C317 C 1.00597 0.18744 0.81861 0.0
N318 N 0.13033 0.10646 0.8076 0.0
N319 N 0.02672 0.15317 0.80893 0.0
H320 H 0.04472 0.44614 0.7832 0.0
H321 H 0.25494 0.4414 0.67154 0.0
H322 H 0.1016 0.335 0.74534 0.0
H323 H 0.19216 0.55202 0.70296 0.0
H324 H 0.19489 0.40199 0.69137 0.0
H325 H 0.09411 0.48549 0.74752 0.0
C326 C 0.06729 0.42998 0.76707 0.0
C327 C 0.0693 0.38719 0.76765 0.0
C328 C 0.19405 0.43494 0.69343 0.0
C329 C 0.12631 0.43211 0.72691 0.0
C330 C 0.22829 0.45747 0.68197 0.0
C331 C 0.22886 0.50004 0.68609 0.0
C332 C 0.16028 0.45515 0.70924 0.0
C333 C 0.19337 0.51921 0.69973 0.0
C334 C 0.09553 0.45248 0.74666 0.0
C335 C 0.09908 0.36794 0.74597 0.0
N336 N 0.16081 0.49663 0.71122 0.0
N337 N 0.12672 0.39053 0.72686 0.0
H338 H 0.6387 0.6313 0.33167 0.0
H339 H 0.49228 0.67573 0.16932 0.0
H340 H 0.6018 0.5318 0.26325 0.0
H341 H 0.5858 0.76117 0.20254 0.0
H342 H 0.52785 0.62185 0.20353 0.0
H343 H 0.61409 0.67964 0.28634 0.0
C344 C 0.62529 0.61963 0.30707 0.0
C345 C 0.622 0.57753 0.30124 0.0
C346 C 0.54089 0.65225 0.20264 0.0
C347 C 0.59354 0.63278 0.2493 0.0
C348 C 0.52068 0.68301 0.18315 0.0
C349 C 0.53575 0.7232 0.18345 0.0
C350 C 0.57581 0.66208 0.22305 0.0
C351 C 0.57278 0.73079 0.20174 0.0
C352 C 0.61161 0.64724 0.28107 0.0
C353 C 0.60481 0.56409 0.26868 0.0
N354 N 0.59103 0.70074 0.22139 0.0
N355 N 0.59056 0.59171 0.24403 0.0
H356 H 0.44891 0.17721 0.77945 0.0
H357 H 0.31585 0.99891 0.69054 0.0
H358 H 0.47179 0.04884 0.79761 0.0
H359 H 0.2761 0.1247 0.69471 0.0
H360 H 0.38046 0.01819 0.71935 0.0
H361 H 0.39304 0.15953 0.73836 0.0
C362 C 0.44257 0.14528 0.77448 0.0
C363 C 0.46489 0.11443 0.79232 0.0
C364 C 0.35777 0.04164 0.71363 0.0
C365 C 0.40083 0.09408 0.74525 0.0
C366 C 0.32089 0.03072 0.69701 0.0
C367 C 0.2902 0.06018 0.6905 0.0
C368 C 0.36425 0.08236 0.7237 0.0
C369 C 0.29868 0.1009 0.69944 0.0
C370 C 0.41053 0.13525 0.75109 0.0
C371 C 0.45523 0.07363 0.78471 0.0
N372 N 0.33478 0.11074 0.71582 0.0
N373 N 0.42378 0.06465 0.76191 0.0
H374 H 0.02693 0.80466 0.18592 0.0
H375 H 0.84847 0.94272 0.27129 0.0
H376 H 0.89937 0.7679 0.19218 0.0
H377 H 0.97836 0.96504 0.28657 0.0
H378 H 0.86561 0.88592 0.23153 0.0
H379 H 1.00818 0.87062 0.21163 0.0
C380 C 0.99485 0.81062 0.19216 0.0
C381 C 0.96473 0.78041 0.18727 0.0
C382 C 0.89034 0.9035 0.24331 0.0
C383 C 0.94318 0.85596 0.21691 0.0
C384 C 0.88062 0.93605 0.26596 0.0
C385 C 0.91206 0.95846 0.28267 0.0
C386 C 0.9318 0.89331 0.23714 0.0
C387 C 0.95312 0.94841 0.27457 0.0
C388 C 0.98423 0.84828 0.207 0.0
C389 C 0.92367 0.79008 0.19576 0.0
N390 N 0.9618 0.9164 0.25258 0.0
N391 N 0.91416 0.82689 0.21046 0.0
loop_
_geom_bond_atom_site_label_1
_geom_bond_atom_site_label_2
_geom_bond_distance
_geom_bond_site_symmetry_2
_ccdc_geom_bond_type
Mg0 O7 2.141 . S
Mg0 O8 2.048 1_455 S
Mg0 O9 2.048 . S
Mg0 O12 2.141 . S
C1 O2 1.313 . S
C1 O8 1.195 . S
O2 C1 1.313 . S
C3 O4 1.245 . S
C3 O12 1.289 . S
O4 C3 1.245 . S
C5 O6 1.245 . S
C5 O7 1.289 . S
O6 C5 1.245 . S
O7 Mg0 2.141 . S
O7 C5 1.289 . S
O8 Mg0 2.048 1_655 S
O8 C1 1.195 . S
O9 Mg0 2.048 . S
O9 C10 1.195 . S
C10 O9 1.195 . S
C10 O11 1.313 1_455 S
O11 C10 1.313 1_655 S
O12 Mg0 2.141 . S
O12 C3 1.289 . S
Mg13 O20 2.141 . S
Mg13 O21 2.048 . S
Mg13 O22 2.048 . S
Mg13 O25 2.141 . S
C14 O15 1.313 . S
C14 O21 1.195 . S
O15 C14 1.313 . S
C16 O17 1.245 . S
C16 O25 1.289 . S
O17 C16 1.245 . S
C18 O19 1.245 . S
C18 O20 1.289 . S
O19 C18 1.245 . S
O20 Mg13 2.141 . S
O20 C18 1.289 . S
O21 Mg13 2.048 . S
O21 C14 1.195 . S
O22 Mg13 2.048 . S
O22 C23 1.195 . S
C23 O22 1.195 . S
C23 O24 1.313 . S
O24 C23 1.313 . S
O25 Mg13 2.141 . S
O25 C16 1.289 . S
Mg26 O33 2.141 . S
Mg26 O34 2.048 . S
Mg26 O35 2.048 . S
Mg26 O38 2.141 . S
C27 O28 1.313 . S
C27 O34 1.195 . S
O28 C27 1.313 . S
C29 O30 1.245 . S
C29 O38 1.289 . S
O30 C29 1.245 . S
C31 O32 1.245 . S
C31 O33 1.289 . S
O32 C31 1.245 . S
O33 Mg26 2.141 . S
O33 C31 1.289 . S
O34 Mg26 2.048 . S
O34 C27 1.195 . S
O35 Mg26 2.048 . S
O35 C36 1.195 . S
C36 O35 1.195 . S
C36 O37 1.313 . S
O37 C36 1.313 . S
O38 Mg26 2.141 . S
O38 C29 1.289 . S
Mg39 O46 2.141 . S
Mg39 O47 2.048 1_565 S
Mg39 O48 2.048 . S
Mg39 O51 2.141 . S
C40 O41 1.313 . S
C40 O47 1.195 . S
O41 C40 1.313 . S
C42 O43 1.245 . S
C42 O51 1.289 . S
O43 C42 1.245 . S
C44 O45 1.245 . S
C44 O46 1.289 . S
O45 C44 1.245 . S
O46 Mg39 2.141 . S
O46 C44 1.289 . S
O47 Mg39 2.048 1_545 S
O47 C40 1.195 . S
O48 Mg39 2.048 . S
O48 C49 1.195 . S
C49 O48 1.195 . S
C49 O50 1.313 1_565 S
O50 C49 1.313 1_545 S
O51 Mg39 2.141 . S
O51 C42 1.289 . S
Mg52 O59 2.141 . S
Mg52 O60 2.048 . S
Mg52 O61 2.048 1_655 S
Mg52 O64 2.141 . S
C53 O54 1.313 1_655 S
C53 O60 1.195 . S
O54 C53 1.313 1_455 S
C55 O56 1.245 . S
C55 O64 1.289 . S
O56 C55 1.245 . S
C57 O58 1.245 . S
C57 O59 1.289 . S
O58 C57 1.245 . S
O59 Mg52 2.141 . S
O59 C57 1.289 . S
O60 Mg52 2.048 . S
O60 C53 1.195 . S
O61 Mg52 2.048 1_455 S
O61 C62 1.195 . S
C62 O61 1.195 . S
C62 O63 1.313 . S
O63 C62 1.313 . S
O64 Mg52 2.141 . S
O64 C55 1.289 . S
Mg65 O72 2.141 . S
Mg65 O73 2.048 . S
Mg65 O74 2.048 . S
Mg65 O77 2.141 . S
C66 O67 1.313 . S
C66 O73 1.195 . S
O67 C66 1.313 . S
C68 O69 1.245 . S
C68 O77 1.289 . S
O69 C68 1.245 . S
C70 O71 1.245 . S
C70 O72 1.289 . S
O71 C70 1.245 . S
O72 Mg65 2.141 . S
O72 C70 1.289 . S
O73 Mg65 2.048 . S
O73 C66 1.195 . S
O74 Mg65 2.048 . S
O74 C75 1.195 . S
C75 O74 1.195 . S
C75 O76 1.313 . S
O76 C75 1.313 . S
O77 Mg65 2.141 . S
O77 C68 1.289 . S
Mg78 O85 2.141 . S
Mg78 O86 2.048 . S
Mg78 O87 2.048 . S
Mg78 O90 2.141 . S
C79 O80 1.313 . S
C79 O86 1.195 . S
O80 C79 1.313 . S
C81 O82 1.245 . S
C81 O90 1.289 . S
O82 C81 1.245 . S
C83 O84 1.245 . S
C83 O85 1.289 . S
O84 C83 1.245 . S
O85 Mg78 2.141 . S
O85 C83 1.289 . S
O86 Mg78 2.048 . S
O86 C79 1.195 . S
O87 Mg78 2.048 . S
O87 C88 1.195 . S
C88 O87 1.195 . S
C88 O89 1.313 . S
O89 C88 1.313 . S
O90 Mg78 2.141 . S
O90 C81 1.289 . S
Mg91 O98 2.141 . S
Mg91 O99 2.048 . S
Mg91 O100 2.048 1_545 S
Mg91 O103 2.141 . S
C92 O93 1.313 1_545 S
C92 O99 1.195 . S
O93 C92 1.313 1_565 S
C94 O95 1.245 . S
C94 O103 1.289 . S
O95 C94 1.245 . S
C96 O97 1.245 . S
C96 O98 1.289 . S
O97 C96 1.245 . S
O98 Mg91 2.141 . S
O98 C96 1.289 . S
O99 Mg91 2.048 . S
O99 C92 1.195 . S
O100 Mg91 2.048 1_565 S
O100 C101 1.195 . S
C101 O100 1.195 . S
C101 O102 1.313 . S
O102 C101 1.313 . S
O103 Mg91 2.141 . S
O103 C94 1.289 . S
H104 C110 0.930 . S
H105 C114 0.930 . S
H106 C119 0.929 . S
H107 C117 0.929 . S
H108 C112 0.929 . S
H109 C118 0.929 . S
C110 H104 0.930 . S
C110 C111 1.367 1_455 S
C110 C118 1.378 . S
C111 C110 1.367 1_655 S
C111 C119 1.433 . S
C112 H108 0.929 . S
C112 C114 1.378 . S
C112 C116 1.350 1_655 S
C113 C116 1.463 1_656 S
C113 C118 1.350 1_655 S
C113 N121 1.427 . S
C114 H105 0.930 . S
C114 C112 1.378 . S
C114 C115 1.367 1_655 S
C115 C114 1.367 1_455 S
C115 C117 1.433 . S
C116 C112 1.350 1_455 S
C116 C113 1.463 1_454 S
C116 N120 1.427 . S
C117 H107 0.929 . S
C117 C115 1.433 . S
C117 N120 1.384 . S
C118 H109 0.929 . S
C118 C110 1.378 . S
C118 C113 1.350 1_455 S
C119 H106 0.929 . S
C119 C111 1.433 . S
C119 N121 1.384 . S
N120 C116 1.427 . S
N120 C117 1.384 . S
N121 C113 1.427 . S
N121 C119 1.384 . S
H122 C128 0.930 . S
H123 C132 0.930 . S
H124 C137 0.929 . S
H125 C135 0.929 . S
H126 C130 0.929 . S
H127 C136 0.929 . S
C128 H122 0.930 . S
C128 C129 1.367 . S
C128 C136 1.378 . S
C129 C128 1.367 . S
C129 C137 1.433 . S
C130 H126 0.929 . S
C130 C132 1.378 . S
C130 C134 1.350 . S
C131 C134 1.463 . S
C131 C136 1.350 . S
C131 N139 1.427 . S
C132 H123 0.930 . S
C132 C130 1.378 . S
C132 C133 1.367 . S
C133 C132 1.367 . S
C133 C135 1.433 . S
C134 C130 1.350 . S
C134 C131 1.463 . S
C134 N138 1.427 . S
C135 H125 0.929 . S
C135 C133 1.433 . S
C135 N138 1.384 . S
C136 H127 0.929 . S
C136 C128 1.378 . S
C136 C131 1.350 . S
C137 H124 0.929 . S
C137 C129 1.433 . S
C137 N139 1.384 . S
N138 C134 1.427 . S
N138 C135 1.384 . S
N139 C131 1.427 . S
N139 C137 1.384 . S
H140 C146 0.930 . S
H141 C150 0.930 . S
H142 C155 0.929 . S
H143 C153 0.929 . S
H144 C148 0.929 . S
H145 C154 0.929 . S
C146 H140 0.930 . S
C146 C147 1.367 . S
C146 C154 1.378 . S
C147 C146 1.367 . S
C147 C155 1.433 . S
C148 H144 0.929 . S
C148 C150 1.378 . S
C148 C152 1.350 . S
C149 C152 1.463 1_564 S
C149 C154 1.350 . S
C149 N157 1.427 . S
C150 H141 0.930 . S
C150 C148 1.378 . S
C150 C151 1.367 . S
C151 C150 1.367 . S
C151 C153 1.433 . S
C152 C148 1.350 . S
C152 C149 1.463 1_546 S
C152 N156 1.427 . S
C153 H143 0.929 . S
C153 C151 1.433 . S
C153 N156 1.384 . S
C154 H145 0.929 . S
C154 C146 1.378 . S
C154 C149 1.350 . S
C155 H142 0.929 . S
C155 C147 1.433 . S
C155 N157 1.384 . S
N156 C152 1.427 . S
N156 C153 1.384 . S
N157 C149 1.427 . S
N157 C155 1.384 . S
H158 C164 0.930 . S
H159 C168 0.930 . S
H160 C173 0.929 . S
H161 C171 0.929 . S
H162 C166 0.929 . S
H163 C172 0.929 . S
C164 H158 0.930 . S
C164 C165 1.367 . S
C164 C172 1.378 . S
C165 C164 1.367 . S
C165 C173 1.433 1_545 S
C166 H162 0.929 . S
C166 C168 1.378 . S
C166 C170 1.350 . S
C167 C170 1.463 1_645 S
C167 C172 1.350 . S
C167 N175 1.427 1_545 S
C168 H159 0.930 . S
C168 C166 1.378 . S
C168 C169 1.367 . S
C169 C168 1.367 . S
C169 C171 1.433 1_565 S
C170 C166 1.350 . S
C170 C167 1.463 1_465 S
C170 N174 1.427 1_565 S
C171 H161 0.929 . S
C171 C169 1.433 1_545 S
C171 N174 1.384 . S
C172 H163 0.929 . S
C172 C164 1.378 . S
C172 C167 1.350 . S
C173 H160 0.929 . S
C173 C165 1.433 1_565 S
C173 N175 1.384 . S
N174 C170 1.427 1_545 S
N174 C171 1.384 . S
N175 C167 1.427 1_565 S
N175 C173 1.384 . S
H176 C182 0.930 . S
H177 C186 0.930 . S
H178 C191 0.929 . S
H179 C189 0.929 . S
H180 C184 0.929 . S
H181 C190 0.929 . S
C182 H176 0.930 . S
C182 C183 1.367 . S
C182 C190 1.378 . S
C183 C182 1.367 . S
C183 C191 1.433 . S
C184 H180 0.929 . S
C184 C186 1.378 . S
C184 C188 1.350 . S
C185 C188 1.463 . S
C185 C190 1.350 . S
C185 N193 1.427 . S
C186 H177 0.930 . S
C186 C184 1.378 . S
C186 C187 1.367 . S
C187 C186 1.367 . S
C187 C189 1.433 . S
C188 C184 1.350 . S
C188 C185 1.463 . S
C188 N192 1.427 . S
C189 H179 0.929 . S
C189 C187 1.433 . S
C189 N192 1.384 . S
C190 H181 0.929 . S
C190 C182 1.378 . S
C190 C185 1.350 . S
C191 H178 0.929 . S
C191 C183 1.433 . S
C191 N193 1.384 . S
N192 C188 1.427 . S
N192 C189 1.384 . S
N193 C185 1.427 . S
N193 C191 1.384 . S
H194 C200 0.930 . S
H195 C204 0.930 . S
H196 C209 0.929 . S
H197 C207 0.929 . S
H198 C202 0.929 . S
H199 C208 0.929 . S
C200 H194 0.930 . S
C200 C201 1.367 . S
C200 C208 1.378 . S
C201 C200 1.367 . S
C201 C209 1.433 . S
C202 H198 0.929 . S
C202 C204 1.378 . S
C202 C206 1.350 . S
C203 C206 1.463 . S
C203 C208 1.350 . S
C203 N211 1.427 . S
C204 H195 0.930 . S
C204 C202 1.378 . S
C204 C205 1.367 . S
C205 C204 1.367 . S
C205 C207 1.433 . S
C206 C202 1.350 . S
C206 C203 1.463 . S
C206 N210 1.427 . S
C207 H197 0.929 . S
C207 C205 1.433 . S
C207 N210 1.384 . S
C208 H199 0.929 . S
C208 C200 1.378 . S
C208 C203 1.350 . S
C209 H196 0.929 . S
C209 C201 1.433 . S
C209 N211 1.384 . S
N210 C206 1.427 . S
N210 C207 1.384 . S
N211 C203 1.427 . S
N211 C209 1.384 . S
H212 C218 0.930 . S
H213 C222 0.930 . S
H214 C227 0.929 . S
H215 C225 0.929 . S
H216 C220 0.929 . S
H217 C226 0.929 . S
C218 H212 0.930 . S
C218 C219 1.367 . S
C218 C226 1.378 . S
C219 C218 1.367 . S
C219 C227 1.433 . S
C220 H216 0.929 . S
C220 C222 1.378 . S
C220 C224 1.350 . S
C221 C224 1.463 . S
C221 C226 1.350 . S
C221 N229 1.427 . S
C222 H213 0.930 . S
C222 C220 1.378 . S
C222 C223 1.367 . S
C223 C222 1.367 . S
C223 C225 1.433 . S
C224 C220 1.350 . S
C224 C221 1.463 . S
C224 N228 1.427 . S
C225 H215 0.929 . S
C225 C223 1.433 . S
C225 N228 1.384 . S
C226 H217 0.929 . S
C226 C218 1.378 . S
C226 C221 1.350 . S
C227 H214 0.929 . S
C227 C219 1.433 . S
C227 N229 1.384 . S
N228 C224 1.427 . S
N228 C225 1.384 . S
N229 C221 1.427 . S
N229 C227 1.384 . S
H230 C236 0.930 . S
H231 C240 0.930 . S
H232 C245 0.929 . S
H233 C243 0.929 . S
H234 C238 0.929 . S
H235 C244 0.929 . S
C236 H230 0.930 . S
C236 C237 1.367 . S
C236 C244 1.378 . S
C237 C236 1.367 . S
C237 C245 1.433 . S
C238 H234 0.929 . S
C238 C240 1.378 . S
C238 C242 1.350 . S
C239 C242 1.463 . S
C239 C244 1.350 . S
C239 N247 1.427 . S
C240 H231 0.930 . S
C240 C238 1.378 . S
C240 C241 1.367 . S
C241 C240 1.367 . S
C241 C243 1.433 . S
C242 C238 1.350 . S
C242 C239 1.463 . S
C242 N246 1.427 . S
C243 H233 0.929 . S
C243 C241 1.433 . S
C243 N246 1.384 . S
C244 H235 0.929 . S
C244 C236 1.378 . S
C244 C239 1.350 . S
C245 H232 0.929 . S
C245 C237 1.433 . S
C245 N247 1.384 . S
N246 C242 1.427 . S
N246 C243 1.384 . S
N247 C239 1.427 . S
N247 C245 1.384 . S
H248 C254 0.930 . S
H249 C258 0.930 . S
H250 C263 0.929 . S
H251 C261 0.929 . S
H252 C256 0.929 . S
H253 C262 0.929 . S
C254 H248 0.930 . S
C254 C255 1.367 . S
C254 C262 1.378 . S
C255 C254 1.367 . S
C255 C263 1.433 . S
C256 H252 0.929 . S
C256 C258 1.378 . S
C256 C260 1.350 . S
C257 C260 1.463 . S
C257 C262 1.350 . S
C257 N265 1.427 . S
C258 H249 0.930 . S
C258 C256 1.378 . S
C258 C259 1.367 . S
C259 C258 1.367 . S
C259 C261 1.433 . S
C260 C256 1.350 . S
C260 C257 1.463 . S
C260 N264 1.427 . S
C261 H251 0.929 . S
C261 C259 1.433 . S
C261 N264 1.384 . S
C262 H253 0.929 . S
C262 C254 1.378 . S
C262 C257 1.350 . S
C263 H250 0.929 . S
C263 C255 1.433 . S
C263 N265 1.384 . S
N264 C260 1.427 . S
N264 C261 1.384 . S
N265 C257 1.427 . S
N265 C263 1.384 . S
H266 C272 0.930 . S
H267 C276 0.930 . S
H268 C281 0.929 . S
H269 C279 0.929 . S
H270 C274 0.929 . S
H271 C280 0.929 . S
C272 H266 0.930 . S
C272 C273 1.367 . S
C272 C280 1.378 . S
C273 C272 1.367 . S
C273 C281 1.433 . S
C274 H270 0.929 . S
C274 C276 1.378 . S
C274 C278 1.350 . S
C275 C278 1.463 . S
C275 C280 1.350 . S
C275 N283 1.427 . S
C276 H267 0.930 . S
C276 C274 1.378 . S
C276 C277 1.367 . S
C277 C276 1.367 . S
C277 C279 1.433 . S
C278 C274 1.350 . S
C278 C275 1.463 . S
C278 N282 1.427 . S
C279 H269 0.929 . S
C279 C277 1.433 . S
C279 N282 1.384 . S
C280 H271 0.929 . S
C280 C272 1.378 . S
C280 C275 1.350 . S
C281 H268 0.929 . S
C281 C273 1.433 . S
C281 N283 1.384 . S
N282 C278 1.427 . S
N282 C279 1.384 . S
N283 C275 1.427 . S
N283 C281 1.384 . S
H284 C290 0.930 . S
H285 C294 0.930 . S
H286 C299 0.929 . S
H287 C297 0.929 . S
H288 C292 0.929 . S
H289 C298 0.929 . S
C290 H284 0.930 . S
C290 C291 1.367 . S
C290 C298 1.378 . S
C291 C290 1.367 . S
C291 C299 1.433 . S
C292 H288 0.929 . S
C292 C294 1.378 . S
C292 C296 1.350 . S
C293 C296 1.463 . S
C293 C298 1.350 . S
C293 N301 1.427 . S
C294 H285 0.930 . S
C294 C292 1.378 . S
C294 C295 1.367 . S
C295 C294 1.367 . S
C295 C297 1.433 1_565 S
C296 C292 1.350 . S
C296 C293 1.463 . S
C296 N300 1.427 . S
C297 H287 0.929 . S
C297 C295 1.433 1_545 S
C297 N300 1.384 1_545 S
C298 H289 0.929 . S
C298 C290 1.378 . S
C298 C293 1.350 . S
C299 H286 0.929 . S
C299 C291 1.433 . S
C299 N301 1.384 . S
N300 C296 1.427 . S
N300 C297 1.384 1_565 S
N301 C293 1.427 . S
N301 C299 1.384 . S
H302 C308 0.930 . S
H303 C312 0.930 . S
H304 C317 0.929 . S
H305 C315 0.929 . S
H306 C310 0.929 . S
H307 C316 0.929 . S
C308 H302 0.930 . S
C308 C309 1.367 . S
C308 C316 1.378 . S
C309 C308 1.367 . S
C309 C317 1.433 1_455 S
C310 H306 0.929 . S
C310 C312 1.378 . S
C310 C314 1.350 . S
C311 C314 1.463 . S
C311 C316 1.350 . S
C311 N319 1.427 . S
C312 H303 0.930 . S
C312 C310 1.378 . S
C312 C313 1.367 . S
C313 C312 1.367 . S
C313 C315 1.433 . S
C314 C310 1.350 . S
C314 C311 1.463 . S
C314 N318 1.427 . S
C315 H305 0.929 . S
C315 C313 1.433 . S
C315 N318 1.384 . S
C316 H307 0.929 . S
C316 C308 1.378 . S
C316 C311 1.350 . S
C317 H304 0.929 . S
C317 C309 1.433 1_655 S
C317 N319 1.384 1_655 S
N318 C314 1.427 . S
N318 C315 1.384 . S
N319 C311 1.427 . S
N319 C317 1.384 1_455 S
H320 C326 0.930 . S
H321 C330 0.930 . S
H322 C335 0.929 . S
H323 C333 0.929 . S
H324 C328 0.929 . S
H325 C334 0.929 . S
C326 H320 0.930 . S
C326 C327 1.367 . S
C326 C334 1.378 . S
C327 C326 1.367 . S
C327 C335 1.433 . S
C328 H324 0.929 . S
C328 C330 1.378 . S
C328 C332 1.350 . S
C329 C332 1.463 . S
C329 C334 1.350 . S
C329 N337 1.427 . S
C330 H321 0.930 . S
C330 C328 1.378 . S
C330 C331 1.367 . S
C331 C330 1.367 . S
C331 C333 1.433 . S
C332 C328 1.350 . S
C332 C329 1.463 . S
C332 N336 1.427 . S
C333 H323 0.929 . S
C333 C331 1.433 . S
C333 N336 1.384 . S
C334 H325 0.929 . S
C334 C326 1.378 . S
C334 C329 1.350 . S
C335 H322 0.929 . S
C335 C327 1.433 . S
C335 N337 1.384 . S
N336 C332 1.427 . S
N336 C333 1.384 . S
N337 C329 1.427 . S
N337 C335 1.384 . S
H338 C344 0.930 . S
H339 C348 0.930 . S
H340 C353 0.929 . S
H341 C351 0.929 . S
H342 C346 0.929 . S
H343 C352 0.929 . S
C344 H338 0.930 . S
C344 C345 1.367 . S
C344 C352 1.378 . S
C345 C344 1.367 . S
C345 C353 1.433 . S
C346 H342 0.929 . S
C346 C348 1.378 . S
C346 C350 1.350 . S
C347 C350 1.463 . S
C347 C352 1.350 . S
C347 N355 1.427 . S
C348 H339 0.930 . S
C348 C346 1.378 . S
C348 C349 1.367 . S
C349 C348 1.367 . S
C349 C351 1.433 . S
C350 C346 1.350 . S
C350 C347 1.463 . S
C350 N354 1.427 . S
C351 H341 0.929 . S
C351 C349 1.433 . S
C351 N354 1.384 . S
C352 H343 0.929 . S
C352 C344 1.378 . S
C352 C347 1.350 . S
C353 H340 0.929 . S
C353 C345 1.433 . S
C353 N355 1.384 . S
N354 C350 1.427 . S
N354 C351 1.384 . S
N355 C347 1.427 . S
N355 C353 1.384 . S
H356 C362 0.930 . S
H357 C366 0.930 . S
H358 C371 0.929 . S
H359 C369 0.929 . S
H360 C364 0.929 . S
H361 C370 0.929 . S
C362 H356 0.930 . S
C362 C363 1.367 . S
C362 C370 1.378 . S
C363 C362 1.367 . S
C363 C371 1.433 . S
C364 H360 0.929 . S
C364 C366 1.378 1_545 S
C364 C368 1.350 . S
C365 C368 1.463 . S
C365 C370 1.350 . S
C365 N373 1.427 . S
C366 H357 0.930 . S
C366 C364 1.378 1_565 S
C366 C367 1.367 1_565 S
C367 C366 1.367 1_545 S
C367 C369 1.433 . S
C368 C364 1.350 . S
C368 C365 1.463 . S
C368 N372 1.427 . S
C369 H359 0.929 . S
C369 C367 1.433 . S
C369 N372 1.384 . S
C370 H361 0.929 . S
C370 C362 1.378 . S
C370 C365 1.350 . S
C371 H358 0.929 . S
C371 C363 1.433 . S
C371 N373 1.384 . S
N372 C368 1.427 . S
N372 C369 1.384 . S
N373 C365 1.427 . S
N373 C371 1.384 . S
H374 C380 0.930 1_455 S
H375 C384 0.930 . S
H376 C389 0.929 . S
H377 C387 0.929 . S
H378 C382 0.929 . S
H379 C388 0.929 . S
C380 H374 0.930 1_655 S
C380 C381 1.367 . S
C380 C388 1.378 . S
C381 C380 1.367 . S
C381 C389 1.433 . S
C382 H378 0.929 . S
C382 C384 1.378 . S
C382 C386 1.350 . S
C383 C386 1.463 . S
C383 C388 1.350 . S
C383 N391 1.427 . S
C384 H375 0.930 . S
C384 C382 1.378 . S
C384 C385 1.367 . S
C385 C384 1.367 . S
C385 C387 1.433 . S
C386 C382 1.350 . S
C386 C383 1.463 . S
C386 N390 1.427 . S
C387 H377 0.929 . S
C387 C385 1.433 . S
C387 N390 1.384 . S
C388 H379 0.929 . S
C388 C380 1.378 . S
C388 C383 1.350 . S
C389 H376 0.929 . S
C389 C381 1.433 . S
C389 N391 1.384 . S
N390 C386 1.427 . S
N390 C387 1.384 . S
N391 C383 1.427 . S
N391 C389 1.384 . S
C111 C55 1.809 . S
C115 C5 1.809 . S
C129 C18 1.822 . S
C133 C68 1.822 . S
C147 C31 1.812 . S
C151 C81 1.812 . S
C165 C94 1.815 . S
C169 C44 1.815 . S
C183 C3 1.937 . S
C187 C29 1.936 . S
C201 C16 1.937 . S
C205 C42 1.936 . S
C219 C83 1.937 . S
C223 C57 1.937 . S
C237 C70 1.936 . S
C241 C96 1.936 . S
C255 C66 1.444 . S
C259 C1 1.500 . S
C273 C14 1.501 . S
C277 C79 1.442 . S
C291 C27 1.501 . S
C295 C92 1.442 1_565 S
C309 C53 1.449 1_455 S
C313 C40 1.499 . S
C327 C62 1.499 . S
C331 C23 1.448 . S
C345 C75 1.501 . S
C349 C36 1.446 . S
C363 C88 1.497 . S
C367 C49 1.456 1_545 S
C381 C10 1.456 1_655 S
C385 C101 1.497 . S
