# Generated by pormake.
# Topology ukl, (4)-cn, num edge types: 1
# Building blocks:
#     Node 0, Type 0, BuildingBlock: ESEHIV_clean_sbu_0, # of connection points: 4
#     Node 1, Type 0, BuildingBlock: ESEHIV_clean_sbu_0, # of connection points: 4
#     Node 2, Type 0, BuildingBlock: ESEHIV_clean_sbu_0, # of connection points: 4
#     Node 3, Type 0, BuildingBlock: ESEHIV_clean_sbu_0, # of connection points: 4
#     Node 4, Type 0, BuildingBlock: ESEHIV_clean_sbu_0, # of connection points: 4
#     Node 5, Type 0, BuildingBlock: ESEHIV_clean_sbu_0, # of connection points: 4
#     Node 6, Type 0, BuildingBlock: ESEHIV_clean_sbu_0, # of connection points: 4
#     Node 7, Type 0, BuildingBlock: ESEHIV_clean_sbu_0, # of connection points: 4
#     Node 8, Type 0, BuildingBlock: ESEHIV_clean_sbu_0, # of connection points: 4
#     Node 9, Type 0, BuildingBlock: ESEHIV_clean_sbu_0, # of connection points: 4
#     Node 10, Type 0, BuildingBlock: ESEHIV_clean_sbu_0, # of connection points: 4
#     Node 11, Type 0, BuildingBlock: ESEHIV_clean_sbu_0, # of connection points: 4
#     Node 12, Type 0, BuildingBlock: ESEHIV_clean_sbu_0, # of connection points: 4
#     Node 13, Type 0, BuildingBlock: ESEHIV_clean_sbu_0, # of connection points: 4
#     Node 14, Type 0, BuildingBlock: ESEHIV_clean_sbu_0, # of connection points: 4
#     Node 15, Type 0, BuildingBlock: ESEHIV_clean_sbu_0, # of connection points: 4
#     Edge 16, Type (0, 0), BuildingBlock: XIVTED_clean_linker_0, # of connection points: 2
#     Edge 17, Type (0, 0), BuildingBlock: XIVTED_clean_linker_0, # of connection points: 2
#     Edge 18, Type (0, 0), BuildingBlock: XIVTED_clean_linker_0, # of connection points: 2
#     Edge 19, Type (0, 0), BuildingBlock: XIVTED_clean_linker_0, # of connection points: 2
#     Edge 20, Type (0, 0), BuildingBlock: XIVTED_clean_linker_0, # of connection points: 2
#     Edge 21, Type (0, 0), BuildingBlock: XIVTED_clean_linker_0, # of connection points: 2
#     Edge 22, Type (0, 0), BuildingBlock: XIVTED_clean_linker_0, # of connection points: 2
#     Edge 23, Type (0, 0), BuildingBlock: XIVTED_clean_linker_0, # of connection points: 2
#     Edge 24, Type (0, 0), BuildingBlock: XIVTED_clean_linker_0, # of connection points: 2
#     Edge 25, Type (0, 0), BuildingBlock: XIVTED_clean_linker_0, # of connection points: 2
#     Edge 26, Type (0, 0), BuildingBlock: XIVTED_clean_linker_0, # of connection points: 2
#     Edge 27, Type (0, 0), BuildingBlock: XIVTED_clean_linker_0, # of connection points: 2
#     Edge 28, Type (0, 0), BuildingBlock: XIVTED_clean_linker_0, # of connection points: 2
#     Edge 29, Type (0, 0), BuildingBlock: XIVTED_clean_linker_0, # of connection points: 2
#     Edge 30, Type (0, 0), BuildingBlock: XIVTED_clean_linker_0, # of connection points: 2
#     Edge 31, Type (0, 0), BuildingBlock: XIVTED_clean_linker_0, # of connection points: 2
#     Edge 32, Type (0, 0), BuildingBlock: XIVTED_clean_linker_0, # of connection points: 2
#     Edge 33, Type (0, 0), BuildingBlock: XIVTED_clean_linker_0, # of connection points: 2
#     Edge 34, Type (0, 0), BuildingBlock: XIVTED_clean_linker_0, # of connection points: 2
#     Edge 35, Type (0, 0), BuildingBlock: XIVTED_clean_linker_0, # of connection points: 2
#     Edge 36, Type (0, 0), BuildingBlock: XIVTED_clean_linker_0, # of connection points: 2
#     Edge 37, Type (0, 0), BuildingBlock: XIVTED_clean_linker_0, # of connection points: 2
#     Edge 38, Type (0, 0), BuildingBlock: XIVTED_clean_linker_0, # of connection points: 2
#     Edge 39, Type (0, 0), BuildingBlock: XIVTED_clean_linker_0, # of connection points: 2
#     Edge 40, Type (0, 0), BuildingBlock: XIVTED_clean_linker_0, # of connection points: 2
#     Edge 41, Type (0, 0), BuildingBlock: XIVTED_clean_linker_0, # of connection points: 2
#     Edge 42, Type (0, 0), BuildingBlock: XIVTED_clean_linker_0, # of connection points: 2
#     Edge 43, Type (0, 0), BuildingBlock: XIVTED_clean_linker_0, # of connection points: 2
#     Edge 44, Type (0, 0), BuildingBlock: XIVTED_clean_linker_0, # of connection points: 2
#     Edge 45, Type (0, 0), BuildingBlock: XIVTED_clean_linker_0, # of connection points: 2
#     Edge 46, Type (0, 0), BuildingBlock: XIVTED_clean_linker_0, # of connection points: 2
#     Edge 47, Type (0, 0), BuildingBlock: XIVTED_clean_linker_0, # of connection points: 2
# Relax obj value: 0.080
# Max RMSD: 0.169
# Mean RMSD: 0.149
data_MOF--net-ukl--node1-ESEHIV_clean_sbu_0--edge1-XIVTED_clean_linker_0
_symmetry_space_group_name_H-M    P1
_symmetry_Int_Tables_number       1
_symmetry_cell_setting            triclinic
loop_
_symmetry_equiv_pos_as_xyz
'x, y, z'
_cell_length_a     34.464735
_cell_length_b     33.224163
_cell_length_c     21.824767
_cell_angle_alpha  89.987051
_cell_angle_beta   90.014237
_cell_angle_gamma 85.046331
loop_
_atom_site_label
_atom_site_type_symbol
_atom_site_fract_x
_atom_site_fract_y
_atom_site_fract_z
_atom_type_partial_charge
Cu0 Cu 0.33649 0.13126 0.03306 0.0
N1 N 0.35588 0.1532 0.10411 0.0
N2 N 0.39644 0.19015 0.15526 0.0
C3 C 0.39311 0.1616 0.11198 0.0
C4 C 0.35987 0.19979 0.17569 0.0
C5 C 0.33495 0.17697 0.14408 0.0
O6 O 0.38296 0.10956 0.98749 0.0
C7 C 0.31976 0.21163 0.9921 0.0
O8 O 0.35763 0.21326 0.99613 0.0
H9 H 0.41645 0.15079 0.08142 0.0
H10 H 0.30347 0.18059 0.14546 0.0
N11 N 0.30249 0.09182 0.05297 0.0
N12 N 0.24751 0.06105 0.06563 0.0
C13 C 0.26351 0.09426 0.0446 0.0
C14 C 0.31143 0.05608 0.08075 0.0
C15 C 0.27772 0.03699 0.08835 0.0
C16 C 0.38929 0.07465 0.9632 0.0
O17 O 0.36072 0.05106 0.95924 0.0
H18 H 0.24723 0.11998 0.02362 0.0
H19 H 0.3404 0.04494 0.09527 0.0
O20 O 0.30591 0.17739 -0.00319 0.0
H21 H 0.35136 0.22378 0.20772 0.0
H22 H 0.27551 1.00819 0.11067 0.0
Cu23 Cu 0.65023 0.58351 0.27526 0.0
N24 N 0.61556 0.57569 0.33951 0.0
N25 N 0.56201 0.55573 0.38488 0.0
C26 C 0.58298 0.55634 0.33261 0.0
C27 C 0.5824 0.57564 0.42632 0.0
C28 C 0.61528 0.58802 0.39821 0.0
O29 O 0.66736 0.52832 0.24853 0.0
C30 C 0.61039 0.65364 0.23915 0.0
O31 O 0.62345 0.66284 0.29346 0.0
H32 H 0.57501 0.54279 0.28984 0.0
H33 H 0.63696 0.60534 0.41895 0.0
N34 N 0.69285 0.61253 0.29803 0.0
N35 N 0.73396 0.66145 0.29568 0.0
C36 C 0.70748 0.64186 0.26429 0.0
C37 C 0.71149 0.61292 0.3522 0.0
C38 C 0.73667 0.64311 0.35098 0.0
C39 C 0.70256 0.5128 0.25041 0.0
O40 O 0.7307 0.53638 0.25943 0.0
H41 H 0.69693 0.65045 0.21902 0.0
H42 H 0.70615 0.59365 0.39069 0.0
O43 O 0.61869 0.61802 0.21826 0.0
H44 H 0.57379 0.58173 0.47329 0.0
H45 H 0.75476 0.65161 0.38855 0.0
Cu46 Cu 0.19514 0.90006 0.53207 0.0
N47 N 0.17483 0.878 0.60223 0.0
N48 N 0.13315 0.84193 0.65234 0.0
C49 C 0.13735 0.87042 0.60932 0.0
C50 C 0.16941 0.8314 0.6734 0.0
C51 C 0.19505 0.85375 0.64246 0.0
O52 O 0.14945 0.92181 0.4847 0.0
C53 C 0.21341 0.81976 0.49194 0.0
O54 O 0.17558 0.81755 0.49478 0.0
H55 H 0.11439 0.88182 0.57842 0.0
H56 H 0.2265 0.8496 0.64462 0.0
N57 N 0.22833 0.93963 0.55399 0.0
N58 N 0.28274 0.97086 0.56906 0.0
C59 C 0.26719 0.93825 0.54508 0.0
C60 C 0.21896 0.97404 0.58508 0.0
C61 C 0.25234 0.99342 0.5942 0.0
C62 C 0.14345 0.95712 0.46162 0.0
O63 O 0.17197 0.9809 0.46035 0.0
H64 H 0.28371 0.91363 0.5218 0.0
H65 H 0.18998 0.98393 0.60102 0.0
O66 O 0.2267 0.85426 0.49687 0.0
H67 H 0.17718 0.8073 0.70566 0.0
H68 H 0.2542 0.02129 0.61929 0.0
Cu69 Cu 0.8798 0.45442 0.77905 0.0
N70 N 0.90549 0.46649 0.85176 0.0
N71 N 0.95438 0.49066 0.90437 0.0
C72 C 0.94445 0.46801 0.85634 0.0
C73 C 0.92039 0.5038 0.93125 0.0
C74 C 0.89034 0.48881 0.89886 0.0
O75 O 0.86615 0.50796 0.74323 0.0
C76 C 0.92252 0.38326 0.75609 0.0
O77 O 0.90494 0.37557 0.80765 0.0
H78 H 0.96473 0.45665 0.82125 0.0
H79 H 0.85959 0.49714 0.90541 0.0
N80 N 0.83539 0.42568 0.79094 0.0
N81 N 0.79367 0.37822 0.77601 0.0
C82 C 0.82481 0.39579 0.75413 0.0
C83 C 0.8098 0.42733 0.83764 0.0
C84 C 0.78395 0.39827 0.82841 0.0
C85 C 0.83144 0.52469 0.73983 0.0
O86 O 0.80206 0.50263 0.74813 0.0
H87 H 0.84026 0.38655 0.71261 0.0
H88 H 0.81044 0.44751 0.87643 0.0
O89 O 0.91675 0.41844 0.7326 0.0
H90 H 0.91734 0.52512 0.96876 0.0
H91 H 0.76081 0.39139 0.8592 0.0
Cu92 Cu 0.71605 0.87356 0.91868 0.0
N93 N 0.69221 0.84442 0.97889 0.0
N94 N 0.64438 0.81403 0.02384 0.0
C95 C 0.65354 0.84192 0.98266 0.0
C96 C 0.67869 0.79831 0.04712 0.0
C97 C 0.70823 0.81723 0.01931 0.0
O98 O 0.67366 0.91269 0.8898 0.0
C99 C 0.7659 0.81017 0.87004 0.0
O100 O 0.78607 0.81815 0.91898 0.0
H101 H 0.63269 0.85829 0.95271 0.0
H102 H 0.73919 0.81034 0.02598 0.0
N103 N 0.7576 0.89928 0.9536 0.0
N104 N 0.81299 0.92918 0.96814 0.0
C105 C 0.7886 0.91437 0.92653 0.0
C106 C 0.76278 0.90455 0.01405 0.0
C107 C 0.79659 0.9229 0.02313 0.0
C108 C 0.66167 0.94131 0.92605 0.0
O109 O 0.68162 0.94646 0.97631 0.0
H110 H 0.79311 0.91442 0.87747 0.0
H111 H 0.74338 0.89528 0.04931 0.0
O112 O 0.73489 0.83267 0.85806 0.0
H113 H 0.68225 0.77406 0.08034 0.0
H114 H 0.80851 0.93025 0.06718 0.0
Cu115 Cu 0.41424 0.46372 0.68964 0.0
N116 N 0.43572 0.44829 0.76544 0.0
N117 N 0.46514 0.40425 0.83167 0.0
C118 C 0.43929 0.40981 0.78546 0.0
C119 C 0.47842 0.44072 0.84104 0.0
C120 C 0.46004 0.46795 0.80051 0.0
O121 O 0.38255 0.4189 0.66913 0.0
C122 C 0.47604 0.50479 0.64681 0.0
O123 O 0.45863 0.53233 0.68289 0.0
H124 H 0.42656 0.38542 0.76209 0.0
H125 H 0.46661 0.49885 0.79352 0.0
N126 N 0.38279 0.51283 0.69574 0.0
N127 N 0.35162 0.5726 0.67088 0.0
C128 C 0.36787 0.53671 0.64978 0.0
C129 C 0.3753 0.53419 0.74742 0.0
C130 C 0.35622 0.571 0.73227 0.0
C131 C 0.3543 0.41533 0.70617 0.0
O132 O 0.34623 0.44443 0.74614 0.0
H133 H 0.37076 0.52885 0.60175 0.0
H134 H 0.38444 0.52428 0.79278 0.0
O135 O 0.46021 0.47174 0.63864 0.0
H136 H 0.50192 0.44643 0.87148 0.0
H137 H 0.34703 0.59505 0.76389 0.0
Cu138 Cu 0.81676 0.15931 0.42121 0.0
N139 N 0.83841 0.18604 0.48621 0.0
N140 N 0.88427 0.21566 0.53732 0.0
C141 C 0.87676 0.18955 0.49252 0.0
C142 C 0.84921 0.22915 0.56043 0.0
C143 C 0.82087 0.21061 0.52888 0.0
O144 O 0.86071 0.12262 0.39063 0.0
C145 C 0.76694 0.22463 0.37792 0.0
O146 O 0.74655 0.21441 0.42543 0.0
H147 H 0.89856 0.17544 0.46185 0.0
H148 H 0.7897 0.21615 0.53461 0.0
N149 N 0.77574 0.13064 0.45118 0.0
N150 N 0.72094 0.09904 0.46196 0.0
C151 C 0.74386 0.11829 0.42286 0.0
C152 C 0.77278 0.11892 0.50978 0.0
C153 C 0.73959 0.09931 0.51646 0.0
C154 C 0.87187 0.09153 0.42267 0.0
O155 O 0.85062 0.08267 0.46987 0.0
H156 H 0.7374 0.12401 0.37498 0.0
H157 H 0.79364 0.12412 0.54533 0.0
O158 O 0.79805 0.20274 0.36435 0.0
H159 H 0.84438 0.25178 0.59594 0.0
H160 H 0.73043 0.08589 0.55856 0.0
Cu161 Cu 0.1192 0.56422 0.20531 0.0
N162 N 0.1001 0.57879 0.28328 0.0
N163 N 0.0678 0.62204 0.3479 0.0
C164 C 0.06903 0.60574 0.29119 0.0
C165 C 0.09914 0.60415 0.37726 0.0
C166 C 0.11907 0.57767 0.33732 0.0
O167 O 0.14994 0.60956 0.18438 0.0
C168 C 0.05512 0.52643 0.16585 0.0
O169 O 0.07036 0.50018 0.20602 0.0
H170 H 0.05056 0.6169 0.25365 0.0
H171 H 0.14747 0.56225 0.34549 0.0
N172 N 0.1502 0.51444 0.20615 0.0
N173 N 0.17981 0.45501 0.17581 0.0
C174 C 0.16367 0.49174 0.15787 0.0
C175 C 0.15851 0.49122 0.25578 0.0
C176 C 0.17666 0.45478 0.23734 0.0
C177 C 0.18058 0.61214 0.21663 0.0
O178 O 0.19253 0.58124 0.25139 0.0
H179 H 0.15978 0.50103 0.11057 0.0
H180 H 0.15039 0.49936 0.30206 0.0
O181 O 0.07259 0.55811 0.15529 0.0
H182 H 0.10873 0.61198 0.42261 0.0
H183 H 0.18608 0.42959 0.26677 0.0
Cu184 Cu 0.83666 0.63277 0.51591 0.0
N185 N 0.85698 0.65467 0.58617 0.0
N186 N 0.8982 0.69 0.63861 0.0
C187 C 0.89433 0.6626 0.59382 0.0
C188 C 0.86184 0.69953 0.66002 0.0
C189 C 0.83651 0.67764 0.62765 0.0
O190 O 0.88234 0.61317 0.4668 0.0
C191 C 0.81724 0.71247 0.47461 0.0
O192 O 0.85516 0.71438 0.47374 0.0
H193 H 0.91746 0.65197 0.56274 0.0
H194 H 0.80505 0.68104 0.63023 0.0
N195 N 0.80486 0.59186 0.53797 0.0
N196 N 0.75173 0.55889 0.55563 0.0
C197 C 0.76585 0.59222 0.53129 0.0
C198 C 0.81578 0.55737 0.56797 0.0
C199 C 0.78324 0.53694 0.57865 0.0
C200 C 0.88884 0.57827 0.44262 0.0
O201 O 0.86097 0.5537 0.44203 0.0
H202 H 0.7482 0.61669 0.50952 0.0
H203 H 0.84527 0.54819 0.58231 0.0
O204 O 0.80391 0.67824 0.48247 0.0
H205 H 0.85383 0.72243 0.69405 0.0
H206 H 0.78272 0.5088 0.6035 0.0
Cu207 Cu 0.15224 0.08219 0.78845 0.0
N208 N 0.11837 0.07338 0.85355 0.0
N209 N 0.06554 0.05211 0.89988 0.0
C210 C 0.08803 0.05045 0.84891 0.0
C211 C 0.08273 0.07734 0.93799 0.0
C212 C 0.11519 0.09034 0.90942 0.0
O213 O 0.16688 0.02785 0.75634 0.0
C214 C 0.11542 0.15499 0.75577 0.0
O215 O 0.12977 0.16299 0.80973 0.0
H216 H 0.08187 0.03423 0.80757 0.0
H217 H 0.13426 0.1117 0.92737 0.0
N218 N 0.19627 0.10872 0.81204 0.0
N219 N 0.23885 0.15628 0.81174 0.0
C220 C 0.21239 0.13748 0.77905 0.0
C221 C 0.21386 0.10865 0.86709 0.0
C222 C 0.23998 0.13796 0.86709 0.0
C223 C 0.20154 1.01086 0.75547 0.0
O224 O 0.23085 0.0327 0.76576 0.0
H225 H 0.20264 0.14657 0.73356 0.0
H226 H 0.2068 0.09007 0.90553 0.0
O227 O 0.1214 0.11927 0.73424 0.0
H228 H 0.07233 0.08664 0.98293 0.0
H229 H 0.25741 0.14611 0.90567 0.0
Cu230 Cu 0.69002 0.40829 0.04461 0.0
N231 N 0.66964 0.38558 0.11425 0.0
N232 N 0.62841 0.34795 0.16264 0.0
C233 C 0.63227 0.37733 0.12084 0.0
C234 C 0.66477 0.3376 0.18344 0.0
C235 C 0.6901 0.36075 0.1534 0.0
O236 O 0.64433 0.43016 -0.00252 0.0
C237 C 0.708 0.32835 0.00359 0.0
O238 O 0.67008 0.32658 0.00488 0.0
H239 H 0.60924 0.38888 0.09018 0.0
H240 H 0.72156 0.35666 0.15501 0.0
N241 N 0.72333 0.44785 0.0665 0.0
N242 N 0.77787 0.47903 0.08115 0.0
C243 C 0.76248 0.44537 0.0606 0.0
C244 C 0.7136 0.48413 0.09209 0.0
C245 C 0.74705 0.50347 0.10091 0.0
C246 C 0.63869 0.46504 0.97288 0.0
O247 O 0.6676 0.48822 0.9695 0.0
H248 H 0.77925 0.41939 0.04128 0.0
H249 H 0.68423 0.49558 0.10395 0.0
O250 O 0.72159 0.36264 0.00918 0.0
H251 H 0.6729 0.31294 0.21454 0.0
H252 H 0.74854 0.53284 0.12177 0.0
Cu253 Cu 0.37822 0.95007 0.28173 0.0
N254 N 0.41371 0.95816 0.3448 0.0
N255 N 0.46799 0.97799 0.3883 0.0
C256 C 0.44525 0.97911 0.33768 0.0
C257 C 0.44969 0.95536 0.42894 0.0
C258 C 0.41639 0.94309 0.40197 0.0
O259 O 0.3619 1.00488 0.2525 0.0
C260 C 0.41581 0.87833 0.24561 0.0
O261 O 0.40298 0.8695 0.30022 0.0
H262 H 0.4514 0.99456 0.29561 0.0
H263 H 0.39629 0.92361 0.42209 0.0
N264 N 0.33526 0.92265 0.30766 0.0
N265 N 0.29331 0.87454 0.30971 0.0
C266 C 0.31915 0.89339 0.27583 0.0
C267 C 0.31825 0.92301 0.36318 0.0
C268 C 0.29256 0.8933 0.36467 0.0
C269 C 0.32676 0.02051 0.25013 0.0
O270 O 0.2982 0.99717 0.25711 0.0
H271 H 0.32834 0.88414 0.23015 0.0
H272 H 0.3253 0.94224 0.40086 0.0
O273 O 0.40827 0.9141 0.22485 0.0
H274 H 0.46008 0.94704 0.47436 0.0
H275 H 0.27557 0.88532 0.40385 0.0
Cu276 Cu 0.21354 0.37414 0.41752 0.0
N277 N 0.19136 0.34737 0.482 0.0
N278 N 0.14546 0.31759 0.53279 0.0
C279 C 0.15296 0.34407 0.48847 0.0
C280 C 0.18054 0.30364 0.55532 0.0
C281 C 0.20888 0.32224 0.52395 0.0
O282 O 0.1706 0.41163 0.38635 0.0
C283 C 0.26321 0.30897 0.37343 0.0
O284 O 0.28386 0.31907 0.42072 0.0
H285 H 0.13111 0.3586 0.45823 0.0
H286 H 0.24006 0.31632 0.52921 0.0
N287 N 0.25492 0.40215 0.4478 0.0
N288 N 0.31029 0.43277 0.45756 0.0
C289 C 0.28602 0.41535 0.41848 0.0
C290 C 0.25967 0.41165 0.50705 0.0
C291 C 0.29343 0.43049 0.51321 0.0
C292 C 0.15807 0.44106 0.42073 0.0
O293 O 0.17701 0.44718 0.47164 0.0
H294 H 0.29114 0.41132 0.36987 0.0
H295 H 0.23988 0.40514 0.54348 0.0
O296 O 0.232 0.33084 0.36036 0.0
H297 H 0.18539 0.28063 0.59028 0.0
H298 H 0.30443 0.44185 0.55569 0.0
Cu299 Cu 0.90734 0.96823 0.18477 0.0
N300 N 0.92727 0.94663 0.25844 0.0
N301 N 0.94835 0.89769 0.32385 0.0
C302 C 0.92937 0.90687 0.27103 0.0
C303 C 0.9589 0.93324 0.34532 0.0
C304 C 0.94581 0.96348 0.30483 0.0
O305 O 0.87311 0.92679 0.15898 0.0
C306 C 0.97137 1.00741 0.14699 0.0
O307 O 0.95678 0.03221 0.18957 0.0
H308 H 0.91915 0.88469 0.23998 0.0
H309 H 0.95073 0.99511 0.30777 0.0
N310 N 0.87828 0.01839 0.19709 0.0
N311 N 0.84781 0.07962 0.17907 0.0
C312 C 0.86371 0.04477 0.15404 0.0
C313 C 0.87098 0.03715 0.25107 0.0
C314 C 0.85232 0.07484 0.24011 0.0
C315 C 0.8445 0.92356 0.19545 0.0
O316 O 0.83731 0.952 0.23672 0.0
H317 H 0.86608 0.03925 0.10535 0.0
H318 H 0.87931 0.02462 0.29535 0.0
O319 O 0.95338 0.97639 0.13404 0.0
H320 H 0.97566 0.93689 0.38635 0.0
H321 H 0.84287 0.09708 0.27439 0.0
Cu322 Cu 0.30949 0.65708 0.92332 0.0
N323 N 0.33297 0.68436 0.98591 0.0
N324 N 0.38112 0.71402 0.03126 0.0
C325 C 0.37166 0.68656 0.98968 0.0
C326 C 0.34693 0.72977 0.05496 0.0
C327 C 0.31717 0.71125 0.02692 0.0
O328 O 0.3527 0.61967 0.89252 0.0
C329 C 0.26058 0.72248 0.87749 0.0
O330 O 0.23995 0.71395 0.92565 0.0
H331 H 0.39232 0.67064 0.95896 0.0
H332 H 0.28625 0.71854 0.03339 0.0
N333 N 0.26805 0.62962 0.95516 0.0
N334 N 0.21324 0.59839 0.96561 0.0
C335 C 0.23557 0.61857 0.92712 0.0
C336 C 0.26557 0.61651 0.01333 0.0
C337 C 0.23213 0.59698 0.01974 0.0
C338 C 0.36321 0.58793 0.92345 0.0
O339 O 0.34089 0.57782 0.96863 0.0
H340 H 0.22864 0.62481 0.87949 0.0
H341 H 0.28688 0.62068 0.04865 0.0
O342 O 0.29123 0.6996 0.86492 0.0
H343 H 0.34361 0.75398 0.08823 0.0
H344 H 0.2221 0.58333 0.06125 0.0
Cu345 Cu 0.62276 0.06941 0.68039 0.0
N346 N 0.60742 0.08548 0.75907 0.0
N347 N 0.58515 0.12976 0.83046 0.0
C348 C 0.6055 0.1241 0.77804 0.0
C349 C 0.57399 0.09311 0.84535 0.0
C350 C 0.58792 0.06571 0.80131 0.0
O351 O 0.64884 0.11578 0.65004 0.0
C352 C 0.55914 0.02661 0.64746 0.0
O353 O 0.57786 0.99938 0.6827 0.0
H354 H 0.61534 0.14838 0.75066 0.0
H355 H 0.58169 0.03445 0.79784 0.0
N356 N 0.65609 0.02151 0.68358 0.0
N357 N 0.68668 0.96149 0.65879 0.0
C358 C 0.66731 0.99585 0.63756 0.0
C359 C 0.66914 1.00282 0.73527 0.0
C360 C 0.68787 0.96586 0.7202 0.0
C361 C 0.68436 0.11957 0.66376 0.0
O362 O 0.70512 0.08879 0.68861 0.0
H363 H 0.65959 1.00118 0.59004 0.0
H364 H 0.66406 1.01461 0.78103 0.0
O365 O 0.57434 0.05971 0.63739 0.0
H366 H 0.55504 0.08726 0.88297 0.0
H367 H 0.70075 0.94356 0.75206 0.0
H368 H 0.59888 0.92348 0.85451 0.0
H369 H 0.45752 0.10508 -0.00279 0.0
H370 H 0.63534 1.01142 0.98285 0.0
H371 H 0.41411 1.00681 0.89609 0.0
H372 H 0.52375 0.07465 0.98217 0.0
H373 H 0.5325 0.95755 0.8573 0.0
C374 C 0.59316 0.95027 0.88244 0.0
C375 C 0.62286 0.96446 0.91866 0.0
C376 C 0.49986 0.05988 0.96248 0.0
C377 C 0.54684 1.00329 0.9227 0.0
C378 C 0.46188 0.07742 0.9709 0.0
C379 C 0.42995 0.05857 0.94795 0.0
C380 C 0.50649 0.02349 0.92964 0.0
C381 C 0.43775 0.02245 0.9147 0.0
C382 C 0.55516 0.96948 0.8845 0.0
C383 C 0.6135 0.99915 0.95439 0.0
N384 N 0.47514 1.00614 0.90648 0.0
N385 N 0.57651 0.01711 0.95569 0.0
H386 H 0.79392 0.90566 0.28486 0.0
H387 H 0.75465 0.6834 0.18052 0.0
H388 H 0.85115 0.85354 0.12392 0.0
H389 H 0.75192 0.72333 0.36849 0.0
H390 H 0.78109 0.74722 0.15051 0.0
H391 H 0.76813 0.84154 0.30642 0.0
C392 C 0.80082 0.88088 0.25337 0.0
C393 C 0.82514 0.88527 0.20247 0.0
C394 C 0.77494 0.74173 0.19831 0.0
C395 C 0.79506 0.81089 0.22746 0.0
C396 C 0.7597 0.70548 0.21545 0.0
C397 C 0.75119 0.69784 0.27725 0.0
C398 C 0.78088 0.77093 0.24311 0.0
C399 C 0.75849 0.72751 0.32058 0.0
C400 C 0.78615 0.84403 0.26616 0.0
C401 C 0.83269 0.85163 0.16374 0.0
N402 N 0.7725 0.7627 0.30264 0.0
N403 N 0.81764 0.81579 0.17696 0.0
H404 H 0.07475 0.9263 0.49172 0.0
H405 H 0.93608 0.11304 0.35743 0.0
H406 H 0.11971 0.02594 0.39596 0.0
H407 H 0.89696 0.01836 0.47113 0.0
H408 H 1.00235 0.07863 0.35984 0.0
H409 H 1.00886 0.95725 0.4758 0.0
C410 C 0.0708 0.95432 0.46619 0.0
C411 C 0.10306 0.97343 0.44518 0.0
C412 C 0.97913 0.06532 0.38388 0.0
C413 C 0.02685 1.00901 0.42542 0.0
C414 C 0.94121 0.08478 0.38205 0.0
C415 C 0.9108 0.06879 0.41445 0.0
C416 C 0.98665 0.02953 0.41813 0.0
C417 C 0.91938 0.03214 0.44586 0.0
C418 C 0.03297 0.9721 0.45708 0.0
C419 C 0.09579 1.01007 0.41304 0.0
N420 N 0.9563 1.01406 0.44722 0.0
N421 N 0.05854 0.02663 0.40411 0.0
H422 H 0.76059 0.13629 0.65814 0.0
H423 H 0.71853 0.35987 0.78603 0.0
H424 H 0.64427 0.1946 0.673 0.0
H425 H 0.82982 0.3161 0.71035 0.0
H426 H 0.69098 0.29892 0.74814 0.0
H427 H 0.78684 0.20133 0.67742 0.0
C428 C 0.74055 0.16291 0.66455 0.0
C429 C 0.70014 0.15988 0.66403 0.0
C430 C 0.72134 0.30284 0.73933 0.0
C431 C 0.73006 0.23438 0.68827 0.0
C432 C 0.73716 0.33752 0.76135 0.0
C433 C 0.77659 0.34325 0.7515 0.0
C434 C 0.74522 0.27315 0.70802 0.0
C435 C 0.79923 0.31329 0.71862 0.0
C436 C 0.75557 0.20004 0.67577 0.0
C437 C 0.67559 0.19545 0.67276 0.0
N438 N 0.78335 0.27945 0.6987 0.0
N439 N 0.69091 0.23102 0.68555 0.0
H440 H 0.25604 0.21756 0.88617 0.0
H441 H 0.36023 0.34575 0.63392 0.0
H442 H 0.26241 0.17823 0.69801 0.0
H443 H 0.30607 0.39628 0.79828 0.0
H444 H 0.33244 0.28124 0.65694 0.0
H445 H 0.28399 0.27978 0.85664 0.0
C446 C 0.26379 0.22176 0.83872 0.0
C447 C 0.25698 0.19243 0.79465 0.0
C448 C 0.3266 0.30669 0.68754 0.0
C449 C 0.28892 0.26422 0.76006 0.0
C450 C 0.34239 0.34349 0.67441 0.0
C451 C 0.33561 0.3767 0.71411 0.0
C452 C 0.30462 0.30295 0.74136 0.0
C453 C 0.31226 0.37182 0.76605 0.0
C454 C 0.27943 0.25754 0.82169 0.0
C455 C 0.26697 0.20012 0.73342 0.0
N456 N 0.29809 0.33579 0.77831 0.0
N457 N 0.28261 0.23516 0.71792 0.0
H458 H 0.26853 0.85227 0.19707 0.0
H459 H 0.22959 0.63092 0.30788 0.0
H460 H 0.27728 0.81326 0.38528 0.0
H461 H 0.1722 0.6826 0.14677 0.0
H462 H 0.2555 0.69523 0.32887 0.0
H463 H 0.24058 0.78869 0.17057 0.0
C464 C 0.26447 0.83043 0.2328 0.0
C465 C 0.27512 0.83827 0.29361 0.0
C466 C 0.23737 0.69261 0.28876 0.0
C467 C 0.24367 0.76538 0.26347 0.0
C468 C 0.22268 0.65566 0.27631 0.0
C469 C 0.19854 0.65106 0.22527 0.0
C470 C 0.22861 0.72556 0.24952 0.0
C471 C 0.19061 0.68469 0.18663 0.0
C472 C 0.24838 0.7943 0.21769 0.0
C473 C 0.26904 0.80891 0.33809 0.0
N474 N 0.20577 0.7205 0.19936 0.0
N475 N 0.25412 0.77378 0.32207 0.0
H476 H 0.95694 0.61383 0.46214 0.0
H477 H 0.09809 0.42499 0.34215 0.0
H478 H 0.9134 0.50765 0.38263 0.0
H479 H 0.13132 0.51216 0.47441 0.0
H480 H 0.03304 0.46194 0.33594 0.0
H481 H 0.02345 0.58384 0.44601 0.0
C482 C 0.96126 0.5845 0.44036 0.0
C483 C 0.92927 0.56311 0.42443 0.0
C484 C 0.05477 0.47304 0.36592 0.0
C485 C 1.00584 0.52854 0.40546 0.0
C486 C 0.09195 0.45209 0.36925 0.0
C487 C 0.12021 0.4652 0.40933 0.0
C488 C 0.04592 0.50751 0.40251 0.0
C489 C 0.11047 0.50056 0.44337 0.0
C490 C 0.99936 0.5673 0.43132 0.0
C491 C 0.93704 0.52515 0.39622 0.0
N492 N 0.07427 0.52022 0.43943 0.0
N493 N 0.97444 0.50901 0.38795 0.0
H494 H 0.3882 0.51367 0.96788 0.0
H495 H 0.61538 0.53329 0.90568 0.0
H496 H 0.42923 0.61386 0.86848 0.0
H497 H 0.56973 0.43515 0.00419 0.0
H498 H 0.54838 0.56215 0.88647 0.0
H499 H 0.45483 0.48323 0.97533 0.0
C500 C 0.41122 0.52912 0.94688 0.0
C501 C 0.40292 0.56658 0.91778 0.0
C502 C 0.55308 0.53426 0.91212 0.0
C503 C 0.48016 0.53186 0.92703 0.0
C504 C 0.59134 0.51764 0.92294 0.0
C505 C 0.59839 0.48148 0.95628 0.0
C506 C 0.52153 0.51492 0.93551 0.0
C507 C 0.56597 0.4628 0.97779 0.0
C508 C 0.44945 0.51177 0.95152 0.0
C509 C 0.43416 0.5849 0.89119 0.0
N510 N 0.52923 0.47991 0.96762 0.0
N511 N 0.47143 0.56755 0.8969 0.0
H512 H 0.16755 0.37671 0.19271 0.0
H513 H 0.33657 0.29012 0.97411 0.0
H514 H 0.22561 0.45607 0.07427 0.0
H515 H 0.2441 0.21924 0.03232 0.0
H516 H 0.29799 0.3514 0.00898 0.0
H517 H 0.19701 0.3186 0.13563 0.0
C518 C 0.1864 0.38183 0.15432 0.0
C519 C 0.19436 0.4212 0.13837 0.0
C520 C 0.2859 0.3225 0.01307 0.0
C521 C 0.22863 0.35465 0.07291 0.0
C522 C 0.30788 0.28748 0.99314 0.0
C523 C 0.29374 0.24934 0.00064 0.0
C524 C 0.24989 0.31929 0.04198 0.0
C525 C 0.2563 0.24787 0.02557 0.0
C526 C 0.20304 0.34868 0.12149 0.0
C527 C 0.21872 0.42618 0.08784 0.0
N528 N 0.23606 0.28216 0.04633 0.0
N529 N 0.23554 0.39322 0.05743 0.0
H530 H 0.33624 0.45909 0.3472 0.0
H531 H 0.53378 0.52918 0.49177 0.0
H532 H 0.3689 0.44511 0.53753 0.0
H533 H 0.5069 0.54037 0.2996 0.0
H534 H 0.47257 0.49901 0.50838 0.0
H535 H 0.39785 0.4887 0.32752 0.0
C536 C 0.35625 0.46199 0.38482 0.0
C537 C 0.34687 0.44961 0.44428 0.0
C538 C 0.47996 0.50807 0.46253 0.0
C539 C 0.41753 0.48393 0.42201 0.0
C540 C 0.5149 0.52558 0.45319 0.0
C541 C 0.52569 0.5376 0.39448 0.0
C542 C 0.45514 0.50243 0.41277 0.0
C543 C 0.50014 0.5313 0.34569 0.0
C544 C 0.39141 0.47912 0.37355 0.0
C545 C 0.37411 0.45466 0.49115 0.0
N546 N 0.46607 0.51428 0.35593 0.0
N547 N 0.40792 0.47137 0.479 0.0
H548 H 0.28771 0.81349 0.53786 0.0
H549 H 0.30739 0.57209 0.56767 0.0
H550 H 0.19873 0.74089 0.47113 0.0
H551 H 0.3592 0.65154 0.69393 0.0
H552 H 0.27727 0.6317 0.51261 0.0
H553 H 0.32494 0.75205 0.57403 0.0
C554 C 0.27638 0.78458 0.52944 0.0
C555 C 0.2398 0.78246 0.50179 0.0
C556 C 0.29545 0.63595 0.55216 0.0
C557 C 0.2824 0.71189 0.54351 0.0
C558 C 0.31271 0.60204 0.58335 0.0
C559 C 0.33549 0.60693 0.63575 0.0
C560 C 0.30184 0.67495 0.57272 0.0
C561 C 0.34139 0.64641 0.65433 0.0
C562 C 0.29753 0.74953 0.55067 0.0
C563 C 0.22664 0.744 0.49261 0.0
N564 N 0.3248 0.6788 0.62284 0.0
N565 N 0.2478 0.71024 0.51368 0.0
H566 H 0.02421 0.44655 0.90565 0.0
H567 H 0.1515 0.63433 0.90345 0.0
H568 H 0.97059 0.56767 0.92692 0.0
H569 H 0.19108 0.52572 0.00086 0.0
H570 H 0.08742 0.60773 0.88975 0.0
H571 H 0.08861 0.47227 0.92036 0.0
C572 C 0.02609 0.4785 0.91353 0.0
C573 C 0.99214 0.505 0.91551 0.0
C574 C 0.11026 0.58973 0.91388 0.0
C575 C 0.06537 0.53471 0.93039 0.0
C576 C 0.14678 0.60472 0.9212 0.0
C577 C 0.1765 0.58215 0.95326 0.0
C578 C 0.10381 0.55144 0.93728 0.0
C579 C 0.16882 0.54406 0.97608 0.0
C580 C 0.06267 0.49311 0.92197 0.0
C581 C 0.99605 0.54621 0.92574 0.0
N582 N 0.13338 0.52972 0.9672 0.0
N583 N 0.03199 0.5599 0.93202 0.0
H584 H 0.88362 0.58027 0.76543 0.0
H585 H 0.72117 0.76815 0.79116 0.0
H586 H 0.76277 0.5715 0.72013 0.0
H587 H 0.83581 0.76501 0.87131 0.0
H588 H 0.7383 0.70049 0.74804 0.0
H589 H 0.86884 0.65203 0.78732 0.0
C590 C 0.85409 0.59354 0.75888 0.0
C591 C 0.82434 0.56955 0.74142 0.0
C592 C 0.75975 0.71485 0.77465 0.0
C593 C 0.80709 0.65212 0.76697 0.0
C594 C 0.75009 0.75359 0.79889 0.0
C595 C 0.77696 0.77225 0.83542 0.0
C596 C 0.79662 0.69476 0.78665 0.0
C597 C 0.81398 0.75177 0.84401 0.0
C598 C 0.84557 0.63454 0.77207 0.0
C599 C 0.78658 0.58869 0.73402 0.0
N600 N 0.82258 0.71423 0.82021 0.0
N601 N 0.77899 0.62873 0.74712 0.0
H602 H 0.50664 0.57691 0.63369 0.0
H603 H 0.72407 0.48477 0.56686 0.0
H604 H 0.53529 0.44924 0.60628 0.0
H605 H 0.68672 0.61185 0.55514 0.0
H606 H 0.65617 0.47037 0.58169 0.0
H607 H 0.57287 0.58942 0.60569 0.0
C608 C 0.52682 0.55141 0.62128 0.0
C609 C 0.51521 0.51189 0.62239 0.0
C610 C 0.66283 0.50136 0.57544 0.0
C611 C 0.59194 0.52615 0.5906 0.0
C612 C 0.70169 0.50969 0.56735 0.0
C613 C 0.71145 0.54971 0.56025 0.0
C614 C 0.63334 0.53327 0.57718 0.0
C615 C 0.68087 0.58057 0.56017 0.0
C616 C 0.56479 0.55865 0.60527 0.0
C617 C 0.54283 0.48019 0.60566 0.0
N618 N 0.64342 0.57173 0.56908 0.0
N619 N 0.58001 0.48796 0.59097 0.0
H620 H 0.69687 0.26935 0.3825 0.0
H621 H 0.77277 0.46804 0.23442 0.0
H622 H 0.8116 0.27024 0.30387 0.0
H623 H 0.65242 0.45574 0.27883 0.0
H624 H 0.78807 0.39609 0.25741 0.0
H625 H 0.68061 0.33751 0.34372 0.0
C626 C 0.71861 0.28372 0.3565 0.0
C627 C 0.75578 0.2639 0.34677 0.0
C628 C 0.75828 0.40908 0.26172 0.0
C629 C 0.73733 0.34285 0.30256 0.0
C630 C 0.74947 0.45016 0.24838 0.0
C631 C 0.71123 0.46815 0.25483 0.0
C632 C 0.72879 0.38586 0.28284 0.0
C633 C 0.68228 0.44334 0.27296 0.0
C634 C 0.70928 0.32282 0.33441 0.0
C635 C 0.78257 0.28423 0.31242 0.0
N636 N 0.69176 0.40378 0.28712 0.0
N637 N 0.77298 0.32273 0.29212 0.0
H638 H 0.02404 0.45474 0.15112 0.0
H639 H 0.80841 0.5521 0.08265 0.0
H640 H 0.99792 0.58245 0.12081 0.0
H641 H 0.84103 0.42382 0.08606 0.0
H642 H 0.87717 0.56437 0.09309 0.0
H643 H 0.95763 0.44333 0.1222 0.0
C644 C 1.00439 0.48044 0.13766 0.0
C645 C 0.01659 0.51968 0.13883 0.0
C646 C 0.86929 0.53355 0.09116 0.0
C647 C 0.93967 0.50681 0.10653 0.0
C648 C 0.82993 0.52647 0.08559 0.0
C649 C 0.81861 0.48678 0.08393 0.0
C650 C 0.89773 0.50075 0.09564 0.0
C651 C 0.84812 0.45488 0.08678 0.0
C652 C 0.96633 0.47386 0.12118 0.0
C653 C 0.9898 0.5517 0.1205 0.0
N654 N 0.8861 0.46257 0.09296 0.0
N655 N 0.95243 0.54464 0.10591 0.0
H656 H 0.8303 0.79042 0.44422 0.0
H657 H 0.68288 0.88368 0.69245 0.0
H658 H 0.74647 0.7204 0.53226 0.0
H659 H 0.72212 0.95816 0.54732 0.0
H660 H 0.70957 0.82345 0.63723 0.0
H661 H 0.79392 0.85248 0.4815 0.0
C662 C 0.80387 0.78811 0.47036 0.0
C663 C 0.79155 0.75008 0.48532 0.0
C664 C 0.71208 0.85291 0.61707 0.0
C665 C 0.75053 0.82083 0.52952 0.0
C666 C 0.69711 0.88728 0.64881 0.0
C667 C 0.70049 0.92593 0.62454 0.0
C668 C 0.73143 0.85705 0.56108 0.0
C669 C 0.71884 0.92886 0.56742 0.0
C670 C 0.78318 0.82353 0.49169 0.0
C671 C 0.75708 0.74895 0.51942 0.0
N672 N 0.73417 0.89489 0.53797 0.0
N673 N 0.73826 0.78368 0.5413 0.0
H674 H 0.84745 0.98114 0.04273 0.0
H675 H 0.03723 0.99102 0.83344 0.0
H676 H 0.86204 0.91894 0.86972 0.0
H677 H 1.0106 0.06884 0.98909 0.0
H678 H 0.97573 0.96117 0.84883 0.0
H679 H 0.90952 1.00973 0.02674 0.0
C680 C 0.86366 0.97333 0.00139 0.0
C681 C 0.84922 0.94736 0.95762 0.0
C682 C 0.98341 0.9848 0.87956 0.0
C683 C 0.92075 0.98062 0.93881 0.0
C684 C 0.01865 1.00212 0.87073 0.0
C685 C 0.0296 0.03302 0.90969 0.0
C686 C 0.95876 0.99805 0.92804 0.0
C687 C 1.00406 0.04512 0.95791 0.0
C688 C 0.89911 0.98994 0.99217 0.0
C689 C 0.87163 0.93903 0.90451 0.0
N690 N 0.97006 0.02767 0.96561 0.0
N691 N 0.90626 0.95546 0.89672 0.0
H692 H 0.85179 0.15753 0.21326 0.0
H693 H 0.69388 0.25007 0.9779 0.0
H694 H 0.80576 0.0834 0.07339 0.0
H695 H 0.7798 0.32099 0.05843 0.0
H696 H 0.73113 0.18844 0.01474 0.0
H697 H 0.82156 0.21782 0.16189 0.0
C698 C 0.83528 0.15396 0.17171 0.0
C699 C 0.83116 0.11536 0.1477 0.0
C700 C 0.74211 0.21748 0.02341 0.0
C701 C 0.79631 0.18435 0.0886 0.0
C702 C 0.72094 0.25266 0.00227 0.0
C703 C 0.73375 0.29082 0.01485 0.0
C704 C 0.77581 0.22051 0.05874 0.0
C705 C 0.76891 0.2923 0.04712 0.0
C706 C 0.81829 0.1884 0.14212 0.0
C707 C 0.80979 0.11259 0.09323 0.0
N708 N 0.78831 0.25777 0.06877 0.0
N709 N 0.79275 0.14659 0.06589 0.0
H710 H 0.51623 1.00472 0.2999 0.0
H711 H 0.66837 0.07603 0.54579 0.0
H712 H 0.50441 0.99262 0.49558 0.0
H713 H 0.68779 0.08335 0.35079 0.0
H714 H 0.60769 0.04702 0.52639 0.0
H715 H 0.57761 0.03509 0.31598 0.0
C716 C 0.52618 1.0086 0.34633 0.0
C717 C 0.50455 0.99605 0.3966 0.0
C718 C 0.6251 0.05497 0.48772 0.0
C719 C 0.57548 0.03071 0.41515 0.0
C720 C 0.66023 0.07157 0.49873 0.0
C721 C 0.68403 0.08231 0.45003 0.0
C722 C 0.61295 0.04884 0.42739 0.0
C723 C 0.6707 0.0759 0.39005 0.0
C724 C 0.5615 0.02581 0.35539 0.0
C725 C 0.51978 1.00147 0.45545 0.0
N726 N 0.63614 0.05958 0.38047 0.0
N727 N 0.55405 0.01835 0.46302 0.0
H728 H 0.25662 0.06531 0.23254 0.0
H729 H 0.3334 0.26446 0.37672 0.0
H730 H 0.37727 0.07797 0.27469 0.0
H731 H 0.21816 0.26342 0.29991 0.0
H732 H 0.34954 0.19641 0.33757 0.0
H733 H 0.24161 0.13758 0.25335 0.0
C734 C 0.28006 0.08332 0.24549 0.0
C735 C 0.31826 0.06527 0.25235 0.0
C736 C 0.32079 0.21105 0.3287 0.0
C737 C 0.30104 0.148 0.27757 0.0
C738 C 0.31152 0.25009 0.35101 0.0
C739 C 0.27425 0.26982 0.34193 0.0
C740 C 0.29258 0.19102 0.29719 0.0
C741 C 0.24728 0.24949 0.30793 0.0
C742 C 0.27141 0.12459 0.25753 0.0
C743 C 0.34739 0.09032 0.26885 0.0
N744 N 0.25683 0.21106 0.28737 0.0
N745 N 0.33809 0.13009 0.2817 0.0
H746 H 0.02616 0.9534 0.09069 0.0
H747 H 0.1849 0.11678 0.07007 0.0
H748 H 1.00499 0.07835 0.14403 0.0
H749 H 0.21634 0.98835 0.0648 0.0
H750 H 0.11647 0.10364 0.07925 0.0
H751 H 0.0933 0.96625 0.0624 0.0
C752 C 0.03536 0.98358 0.09557 0.0
C753 C 1.00995 1.01472 0.12038 0.0
C754 C 0.13829 0.07827 0.07578 0.0
C755 C 0.08657 0.02957 0.08851 0.0
C756 C 0.17746 0.08581 0.07014 0.0
C757 C 0.20666 0.05367 0.06717 0.0
C758 C 0.12786 0.03827 0.07769 0.0
C759 C 0.19496 1.01408 0.06796 0.0
C760 C 0.07374 0.99084 0.07989 0.0
C761 C 0.02358 0.05325 0.12583 0.0
N762 N 0.15657 1.0075 0.07319 0.0
N763 N 0.06078 0.05948 0.11036 0.0
H764 H 0.30692 0.76468 0.80155 0.0
H765 H 0.14807 0.95564 0.77499 0.0
H766 H 0.19161 0.76942 0.8795 0.0
H767 H 0.27042 0.96353 0.74021 0.0
H768 H 0.16138 0.88342 0.79506 0.0
H769 H 0.29166 0.83329 0.76078 0.0
C770 C 0.27823 0.77981 0.80931 0.0
C771 C 0.25062 0.76127 0.84449 0.0
C772 C 0.18531 0.90085 0.78254 0.0
C773 C 0.23311 0.83985 0.79835 0.0
C774 C 0.17767 0.94211 0.77044 0.0
C775 C 0.20822 0.96595 0.7565 0.0
C776 C 0.22373 0.88287 0.7798 0.0
C777 C 0.246 0.94648 0.75145 0.0
C778 C 0.26966 0.8191 0.78642 0.0
C779 C 0.21397 0.78253 0.85318 0.0
N780 N 0.25272 0.90617 0.76333 0.0
N781 N 0.2064 0.82057 0.83063 0.0
H782 H 0.34629 0.91612 0.56545 0.0
H783 H 0.50158 0.08149 0.60126 0.0
H784 H 0.3126 0.04397 0.57749 0.0
H785 H 0.52608 0.95501 0.64369 0.0
H786 H 0.43441 0.06834 0.57472 0.0
H787 H 0.41448 0.93008 0.57566 0.0
C788 C 0.35315 0.94716 0.56962 0.0
C789 C 0.3234 0.97884 0.57121 0.0
C790 C 0.45464 0.0435 0.58953 0.0
C791 C 0.40181 0.9951 0.58323 0.0
C792 C 0.49303 0.05095 0.60436 0.0
C793 C 0.51954 0.01937 0.62508 0.0
C794 C 0.44284 1.00413 0.59476 0.0
C795 C 0.50669 0.98039 0.6284 0.0
C796 C 0.39217 0.95511 0.57588 0.0
C797 C 0.33437 0.0185 0.57713 0.0
N798 N 0.46941 0.97393 0.61351 0.0
N799 N 0.37259 0.02549 0.58302 0.0
H800 H 0.47204 0.16037 0.15223 0.0
H801 H 0.55285 0.37794 0.15881 0.0
H802 H 0.39795 0.27004 0.18114 0.0
H803 H 0.62651 0.26758 0.18443 0.0
H804 H 0.49554 0.33916 0.16423 0.0
H805 H 0.5292 0.19906 0.16126 0.0
C806 C 0.46786 0.19253 0.16094 0.0
C807 C 0.43021 0.21195 0.16602 0.0
C808 C 0.52424 0.3235 0.16934 0.0
C809 C 0.49534 0.25654 0.17584 0.0
C810 C 0.5569 0.34561 0.16605 0.0
C811 C 0.59448 0.32602 0.17128 0.0
C812 C 0.52921 0.28136 0.17696 0.0
C813 C 0.59813 0.28404 0.18089 0.0
C814 C 0.50044 0.21459 0.16629 0.0
C815 C 0.4264 0.25371 0.17761 0.0
N816 N 0.56595 0.26308 0.18279 0.0
N817 N 0.45852 0.27466 0.18149 0.0
H818 H 0.48733 0.88575 0.19403 0.0
H819 H 0.53703 0.6455 0.19552 0.0
H820 H 0.40338 0.7998 0.22975 0.0
H821 H 0.62247 0.73166 0.2178 0.0
H822 H 0.48723 0.70165 0.1762 0.0
H823 H 0.5362 0.8294 0.17098 0.0
C824 C 0.47885 0.85511 0.19473 0.0
C825 C 0.44147 0.84722 0.21387 0.0
C826 C 0.5171 0.70815 0.1838 0.0
C827 C 0.49695 0.78291 0.18863 0.0
C828 C 0.54555 0.67612 0.19386 0.0
C829 C 0.58374 0.68415 0.2081 0.0
C830 C 0.52721 0.74825 0.18739 0.0
C831 C 0.59322 0.72438 0.2069 0.0
C832 C 0.50679 0.82297 0.18241 0.0
C833 C 0.43204 0.80698 0.21529 0.0
N834 N 0.5651 0.75498 0.19737 0.0
N835 N 0.45966 0.77629 0.20343 0.0
H836 H 0.05818 0.87351 0.65012 0.0
H837 H 0.9733 0.65876 0.63383 0.0
H838 H 0.12998 0.7618 0.67406 0.0
H839 H 0.9012 0.76876 0.67014 0.0
H840 H 0.03129 0.69589 0.64572 0.0
H841 H 1.00009 0.83593 0.65496 0.0
C842 C 0.06162 0.84113 0.657 0.0
C843 C 0.09888 0.82077 0.66176 0.0
C844 C 1.00278 0.71179 0.65178 0.0
C845 C 0.03278 0.77748 0.6666 0.0
C846 C 0.96974 0.69065 0.64476 0.0
C847 C 0.93243 0.71068 0.651 0.0
C848 C 0.99846 0.75344 0.66417 0.0
C849 C 0.92938 0.75201 0.66555 0.0
C850 C 0.02854 0.8197 0.65992 0.0
C851 C 0.10182 0.77876 0.67085 0.0
N852 N 0.96194 0.77212 0.67096 0.0
N853 N 0.06923 0.75845 0.67224 0.0
H854 H 0.13057 0.23265 0.73927 0.0
H855 H 0.90869 0.30496 0.74356 0.0
H856 H 0.04227 0.15071 0.70846 0.0
H857 H 0.99605 0.38746 0.70926 0.0
H858 H 0.95651 0.24821 0.72151 0.0
H859 H 0.0827 0.28967 0.71841 0.0
C860 C 0.10124 0.22672 0.72631 0.0
C861 C 0.09019 0.18708 0.72557 0.0
C862 C 0.96518 0.27867 0.71766 0.0
C863 C 0.03492 0.2521 0.70423 0.0
C864 C 0.93788 0.31106 0.73006 0.0
C865 C 0.94866 0.35078 0.72854 0.0
C866 C 1.00386 0.28602 0.70516 0.0
C867 C 0.98667 0.35721 0.7107 0.0
C868 C 0.07388 0.25926 0.71485 0.0
C869 C 0.05191 0.18087 0.70901 0.0
N870 N 1.01323 0.32504 0.70094 0.0
N871 N 0.02534 0.21315 0.70031 0.0
H872 H 0.44998 0.66867 0.02667 0.0
H873 H 0.5754 0.85943 0.02063 0.0
H874 H 0.39934 0.79067 0.05285 0.0
H875 H 0.62637 0.73756 0.04722 0.0
H876 H 0.51049 0.83498 0.02673 0.0
H877 H 0.5149 0.69325 0.0286 0.0
C878 C 0.45262 0.70063 0.03319 0.0
C879 C 0.41929 0.7277 0.03952 0.0
C880 C 0.53586 0.81361 0.03145 0.0
C881 C 0.49335 0.75614 0.0409 0.0
C882 C 0.57285 0.82753 0.02798 0.0
C883 C 0.60626 0.80045 0.03329 0.0
C884 C 0.53221 0.77219 0.03954 0.0
C885 C 0.60139 0.75948 0.04336 0.0
C886 C 0.48961 0.71464 0.0342 0.0
C887 C 0.42427 0.76877 0.04833 0.0
N888 N 0.56505 0.74653 0.04553 0.0
N889 N 0.46062 0.78182 0.0481 0.0
H890 H 0.62354 0.19699 0.83814 0.0
H891 H 0.42765 0.337 0.84939 0.0
H892 H 0.5128 0.15095 0.87532 0.0
H893 H 0.54039 0.38328 0.86381 0.0
H894 H 0.45798 0.26895 0.86954 0.0
H895 H 0.59446 0.26546 0.85847 0.0
C896 C 0.59325 0.20135 0.85176 0.0
C897 C 0.57043 0.16844 0.85441 0.0
C898 C 0.47601 0.29407 0.86945 0.0
C899 C 0.53667 0.24661 0.87659 0.0
C900 C 0.45871 0.33285 0.85773 0.0
C901 C 0.48159 0.3657 0.85406 0.0
C902 C 0.51662 0.288 0.87647 0.0
C903 C 0.52164 0.35885 0.86609 0.0
C904 C 0.57664 0.24037 0.86343 0.0
C905 C 0.53141 0.17551 0.87275 0.0
N906 N 0.53799 0.32065 0.8756 0.0
N907 N 0.51553 0.21395 0.88193 0.0
H908 H 0.13061 0.24053 0.55791 0.0
H909 H 0.89924 0.29256 0.56389 0.0
H910 H 0.07547 0.36097 0.53432 0.0
H911 H 0.95425 0.17241 0.53677 0.0
H912 H 0.96377 0.3182 0.57012 0.0
H913 H 0.06623 0.21504 0.56671 0.0
C914 C 0.10492 0.26165 0.55555 0.0
C915 C 0.10821 0.30286 0.54514 0.0
C916 C 0.96169 0.28619 0.56311 0.0
C917 C 0.03462 0.27406 0.555 0.0
C918 C 0.92493 0.27153 0.56029 0.0
C919 C 0.92155 0.23038 0.54943 0.0
C920 C 0.99522 0.25934 0.55616 0.0
C921 C 0.95573 0.20441 0.54457 0.0
C922 C 0.06822 0.24708 0.55988 0.0
C923 C 0.07402 0.32894 0.54183 0.0
N924 N 0.99115 0.2193 0.54791 0.0
N925 N 0.03861 0.31413 0.54677 0.0
H926 H 0.90889 0.83125 0.30953 0.0
H927 H 0.09037 0.68324 0.41877 0.0
H928 H 1.01307 0.87202 0.38944 0.0
H929 H 0.99344 0.6451 0.31533 0.0
H930 H 0.05581 0.75021 0.4301 0.0
H931 H 0.93296 0.76157 0.33235 0.0
C932 C 0.93672 0.82555 0.33234 0.0
C933 C 0.95939 0.85748 0.34634 0.0
C934 C 0.04181 0.72703 0.40574 0.0
C935 C 0.98716 0.77765 0.37278 0.0
C936 C 0.0614 0.68861 0.39969 0.0
C937 C 0.04496 0.65869 0.36519 0.0
C938 C 1.00551 0.73557 0.37715 0.0
C939 C 1.00743 0.66759 0.34119 0.0
C940 C 0.9504 0.78575 0.34555 0.0
C941 C 0.99473 0.84839 0.37748 0.0
N942 N 0.98918 0.70533 0.34697 0.0
N943 N 1.00781 0.80926 0.38882 0.0
loop_
_geom_bond_atom_site_label_1
_geom_bond_atom_site_label_2
_geom_bond_distance
_geom_bond_site_symmetry_2
_ccdc_geom_bond_type
Cu0 N1 1.999 . S
Cu0 O6 1.974 . S
Cu0 N11 1.985 . S
Cu0 O20 1.959 . S
N1 Cu0 1.999 . S
N1 C3 1.263 1_554 S
N1 C5 1.389 . S
N2 C3 1.358 . S
N2 C4 1.400 1_556 S
C3 N1 1.263 1_556 S
C3 N2 1.358 . S
C3 H9 0.930 . S
C4 N2 1.400 1_554 S
C4 C5 1.351 . S
C4 H21 0.930 . S
C5 N1 1.389 . S
C5 C4 1.351 . S
C5 H10 0.930 . S
O6 Cu0 1.974 . S
O6 C16 1.282 1_554 S
C7 O8 1.261 1_554 S
C7 O20 1.251 . S
O8 C7 1.261 1_556 S
H9 C3 0.930 . S
H10 C5 0.930 . S
N11 Cu0 1.985 . S
N11 C13 1.335 . S
N11 C14 1.390 . S
N12 C13 1.345 . S
N12 C15 1.336 . S
C13 N11 1.335 . S
C13 N12 1.345 . S
C13 H18 0.930 . S
C14 N11 1.390 . S
C14 C15 1.346 . S
C14 H19 0.930 1_554 S
C15 N12 1.336 . S
C15 C14 1.346 . S
C15 H22 0.926 1_554 S
C16 O6 1.282 1_556 S
C16 O17 1.216 . S
O17 C16 1.216 . S
H18 C13 0.930 . S
H19 C14 0.930 1_556 S
O20 Cu0 1.959 . S
O20 C7 1.251 . S
H21 C4 0.930 . S
H22 C15 0.926 1_556 S
Cu23 N24 1.999 . S
Cu23 O29 1.974 . S
Cu23 N34 1.985 . S
Cu23 O43 1.959 . S
N24 Cu23 1.999 . S
N24 C26 1.263 . S
N24 C28 1.389 . S
N25 C26 1.358 . S
N25 C27 1.400 . S
C26 N24 1.263 . S
C26 N25 1.358 . S
C26 H32 0.930 . S
C27 N25 1.400 . S
C27 C28 1.351 . S
C27 H44 0.930 . S
C28 N24 1.389 . S
C28 C27 1.351 . S
C28 H33 0.930 . S
O29 Cu23 1.974 . S
O29 C39 1.282 . S
C30 O31 1.261 . S
C30 O43 1.251 . S
O31 C30 1.261 . S
H32 C26 0.930 . S
H33 C28 0.930 . S
N34 Cu23 1.985 . S
N34 C36 1.335 . S
N34 C37 1.390 . S
N35 C36 1.345 . S
N35 C38 1.336 . S
C36 N34 1.335 . S
C36 N35 1.345 . S
C36 H41 0.930 . S
C37 N34 1.390 . S
C37 C38 1.346 . S
C37 H42 0.930 . S
C38 N35 1.336 . S
C38 C37 1.346 . S
C38 H45 0.929 . S
C39 O29 1.282 . S
C39 O40 1.216 . S
O40 C39 1.216 . S
H41 C36 0.930 . S
H42 C37 0.930 . S
O43 Cu23 1.959 . S
O43 C30 1.251 . S
H44 C27 0.930 . S
H45 C38 0.929 . S
Cu46 N47 1.999 . S
Cu46 O52 1.974 . S
Cu46 N57 1.985 . S
Cu46 O66 1.959 . S
N47 Cu46 1.999 . S
N47 C49 1.263 . S
N47 C51 1.389 . S
N48 C49 1.358 . S
N48 C50 1.400 . S
C49 N47 1.263 . S
C49 N48 1.358 . S
C49 H55 0.930 . S
C50 N48 1.400 . S
C50 C51 1.351 . S
C50 H67 0.930 . S
C51 N47 1.389 . S
C51 C50 1.351 . S
C51 H56 0.930 . S
O52 Cu46 1.974 . S
O52 C62 1.282 . S
C53 O54 1.261 . S
C53 O66 1.251 . S
O54 C53 1.261 . S
H55 C49 0.930 . S
H56 C51 0.930 . S
N57 Cu46 1.985 . S
N57 C59 1.335 . S
N57 C60 1.390 . S
N58 C59 1.345 . S
N58 C61 1.336 . S
C59 N57 1.335 . S
C59 N58 1.345 . S
C59 H64 0.930 . S
C60 N57 1.390 . S
C60 C61 1.346 . S
C60 H65 0.930 . S
C61 N58 1.336 . S
C61 C60 1.346 . S
C61 H68 0.929 . S
C62 O52 1.282 . S
C62 O63 1.216 . S
O63 C62 1.216 . S
H64 C59 0.930 . S
H65 C60 0.930 . S
O66 Cu46 1.959 . S
O66 C53 1.251 . S
H67 C50 0.930 . S
H68 C61 0.929 . S
Cu69 N70 1.999 . S
Cu69 O75 1.974 . S
Cu69 N80 1.985 . S
Cu69 O89 1.959 . S
N70 Cu69 1.999 . S
N70 C72 1.263 . S
N70 C74 1.389 . S
N71 C72 1.358 . S
N71 C73 1.400 1_655 S
C72 N70 1.263 . S
C72 N71 1.358 . S
C72 H78 0.930 . S
C73 N71 1.400 1_455 S
C73 C74 1.351 1_455 S
C73 H90 0.930 . S
C74 N70 1.389 . S
C74 C73 1.351 1_655 S
C74 H79 0.930 . S
O75 Cu69 1.974 . S
O75 C85 1.282 . S
C76 O77 1.261 . S
C76 O89 1.251 . S
O77 C76 1.261 . S
H78 C72 0.930 . S
H79 C74 0.930 . S
N80 Cu69 1.985 . S
N80 C82 1.335 . S
N80 C83 1.390 . S
N81 C82 1.345 . S
N81 C84 1.336 . S
C82 N80 1.335 . S
C82 N81 1.345 . S
C82 H87 0.930 . S
C83 N80 1.390 . S
C83 C84 1.346 . S
C83 H88 0.930 . S
C84 N81 1.336 . S
C84 C83 1.346 . S
C84 H91 0.929 . S
C85 O75 1.282 . S
C85 O86 1.216 . S
O86 C85 1.216 . S
H87 C82 0.930 . S
H88 C83 0.930 . S
O89 Cu69 1.959 . S
O89 C76 1.251 . S
H90 C73 0.930 . S
H91 C84 0.929 . S
Cu92 N93 1.999 . S
Cu92 O98 1.974 . S
Cu92 N103 1.985 . S
Cu92 O112 1.959 . S
N93 Cu92 1.999 . S
N93 C95 1.263 1_556 S
N93 C97 1.389 . S
N94 C95 1.361 . S
N94 C96 1.387 1_554 S
C95 N93 1.263 1_554 S
C95 N94 1.361 . S
C95 H101 0.930 . S
C96 N94 1.387 1_556 S
C96 C97 1.351 . S
C96 H113 0.930 . S
C97 N93 1.389 . S
C97 C96 1.351 . S
C97 H102 0.930 . S
O98 Cu92 1.974 . S
O98 C108 1.282 1_556 S
C99 O100 1.261 1_556 S
C99 O112 1.251 . S
O100 C99 1.261 1_554 S
H101 C95 0.930 . S
H102 C97 0.930 . S
N103 Cu92 1.985 . S
N103 C105 1.335 . S
N103 C106 1.390 1_556 S
N104 C105 1.345 . S
N104 C107 1.336 . S
C105 N103 1.335 . S
C105 N104 1.345 . S
C105 H110 0.930 . S
C106 N103 1.390 1_554 S
C106 C107 1.346 1_554 S
C106 H111 0.930 . S
C107 N104 1.336 . S
C107 C106 1.346 1_556 S
C107 H114 0.929 1_556 S
C108 O98 1.282 1_554 S
C108 O109 1.216 . S
O109 C108 1.216 . S
H110 C105 0.930 . S
H111 C106 0.930 . S
O112 Cu92 1.959 . S
O112 C99 1.251 . S
H113 C96 0.930 . S
H114 C107 0.929 1_554 S
Cu115 N116 1.999 . S
Cu115 O121 1.974 . S
Cu115 N126 1.985 . S
Cu115 O135 1.959 . S
N116 Cu115 1.999 . S
N116 C118 1.263 . S
N116 C120 1.389 . S
N117 C118 1.358 . S
N117 C119 1.400 . S
C118 N116 1.263 . S
C118 N117 1.358 . S
C118 H124 0.930 . S
C119 N117 1.400 . S
C119 C120 1.351 . S
C119 H136 0.930 . S
C120 N116 1.389 . S
C120 C119 1.351 . S
C120 H125 0.930 . S
O121 Cu115 1.974 . S
O121 C131 1.282 . S
C122 O123 1.261 . S
C122 O135 1.251 . S
O123 C122 1.261 . S
H124 C118 0.930 . S
H125 C120 0.930 . S
N126 Cu115 1.985 . S
N126 C128 1.335 . S
N126 C129 1.390 . S
N127 C128 1.345 . S
N127 C130 1.336 . S
C128 N126 1.335 . S
C128 N127 1.345 . S
C128 H133 0.930 . S
C129 N126 1.390 . S
C129 C130 1.346 . S
C129 H134 0.930 . S
C130 N127 1.336 . S
C130 C129 1.346 . S
C130 H137 0.929 . S
C131 O121 1.282 . S
C131 O132 1.216 . S
O132 C131 1.216 . S
H133 C128 0.930 . S
H134 C129 0.930 . S
O135 Cu115 1.959 . S
O135 C122 1.251 . S
H136 C119 0.930 . S
H137 C130 0.929 . S
Cu138 N139 1.999 . S
Cu138 O144 1.974 . S
Cu138 N149 1.985 . S
Cu138 O158 1.959 . S
N139 Cu138 1.999 . S
N139 C141 1.263 . S
N139 C143 1.389 . S
N140 C141 1.358 . S
N140 C142 1.400 . S
C141 N139 1.263 . S
C141 N140 1.358 . S
C141 H147 0.930 . S
C142 N140 1.400 . S
C142 C143 1.351 . S
C142 H159 0.930 . S
C143 N139 1.389 . S
C143 C142 1.351 . S
C143 H148 0.930 . S
O144 Cu138 1.974 . S
O144 C154 1.282 . S
C145 O146 1.261 . S
C145 O158 1.251 . S
O146 C145 1.261 . S
H147 C141 0.930 . S
H148 C143 0.930 . S
N149 Cu138 1.985 . S
N149 C151 1.335 . S
N149 C152 1.390 . S
N150 C151 1.345 . S
N150 C153 1.336 . S
C151 N149 1.335 . S
C151 N150 1.345 . S
C151 H156 0.930 . S
C152 N149 1.390 . S
C152 C153 1.346 . S
C152 H157 0.930 . S
C153 N150 1.336 . S
C153 C152 1.346 . S
C153 H160 0.929 . S
C154 O144 1.282 . S
C154 O155 1.216 . S
O155 C154 1.216 . S
H156 C151 0.930 . S
H157 C152 0.930 . S
O158 Cu138 1.959 . S
O158 C145 1.251 . S
H159 C142 0.930 . S
H160 C153 0.929 . S
Cu161 N162 1.999 . S
Cu161 O167 1.974 . S
Cu161 N172 1.985 . S
Cu161 O181 1.959 . S
N162 Cu161 1.999 . S
N162 C164 1.263 . S
N162 C166 1.389 . S
N163 C164 1.358 . S
N163 C165 1.400 . S
C164 N162 1.263 . S
C164 N163 1.358 . S
C164 H170 0.930 . S
C165 N163 1.400 . S
C165 C166 1.351 . S
C165 H182 0.930 1_455 S
C166 N162 1.389 . S
C166 C165 1.351 . S
C166 H171 0.930 . S
O167 Cu161 1.974 . S
O167 C177 1.282 . S
C168 O169 1.261 . S
C168 O181 1.251 . S
O169 C168 1.261 . S
H170 C164 0.930 . S
H171 C166 0.930 . S
N172 Cu161 1.985 . S
N172 C174 1.335 . S
N172 C175 1.390 . S
N173 C174 1.345 . S
N173 C176 1.336 . S
C174 N172 1.335 . S
C174 N173 1.345 . S
C174 H179 0.930 . S
C175 N172 1.390 . S
C175 C176 1.346 . S
C175 H180 0.930 . S
C176 N173 1.336 . S
C176 C175 1.346 . S
C176 H183 0.929 . S
C177 O167 1.282 . S
C177 O178 1.216 . S
O178 C177 1.216 . S
H179 C174 0.930 . S
H180 C175 0.930 . S
O181 Cu161 1.959 . S
O181 C168 1.251 . S
H182 C165 0.930 1_655 S
H183 C176 0.929 . S
Cu184 N185 1.999 . S
Cu184 O190 1.974 . S
Cu184 N195 1.985 . S
Cu184 O204 1.959 . S
N185 Cu184 1.999 . S
N185 C187 1.263 . S
N185 C189 1.389 . S
N186 C187 1.358 . S
N186 C188 1.400 . S
C187 N185 1.263 . S
C187 N186 1.358 . S
C187 H193 0.930 . S
C188 N186 1.400 . S
C188 C189 1.351 . S
C188 H205 0.930 . S
C189 N185 1.389 . S
C189 C188 1.351 . S
C189 H194 0.930 . S
O190 Cu184 1.974 . S
O190 C200 1.282 . S
C191 O192 1.261 . S
C191 O204 1.251 . S
O192 C191 1.261 . S
H193 C187 0.930 . S
H194 C189 0.930 . S
N195 Cu184 1.985 . S
N195 C197 1.335 . S
N195 C198 1.390 . S
N196 C197 1.345 . S
N196 C199 1.336 . S
C197 N195 1.335 . S
C197 N196 1.345 . S
C197 H202 0.930 . S
C198 N195 1.390 . S
C198 C199 1.346 . S
C198 H203 0.930 . S
C199 N196 1.336 . S
C199 C198 1.346 . S
C199 H206 0.929 . S
C200 O190 1.282 . S
C200 O201 1.216 . S
O201 C200 1.216 . S
H202 C197 0.930 . S
H203 C198 0.930 . S
O204 Cu184 1.959 . S
O204 C191 1.251 . S
H205 C188 0.930 . S
H206 C199 0.929 . S
Cu207 N208 1.999 . S
Cu207 O213 1.974 . S
Cu207 N218 1.985 . S
Cu207 O227 1.959 . S
N208 Cu207 1.999 . S
N208 C210 1.263 . S
N208 C212 1.389 . S
N209 C210 1.358 1_565 S
N209 C211 1.401 1_465 S
C210 N208 1.263 . S
C210 N209 1.358 1_545 S
C210 H216 0.930 . S
C211 N209 1.401 1_645 S
C211 C212 1.351 1_655 S
C211 H228 0.930 . S
C212 N208 1.389 . S
C212 C211 1.351 1_455 S
C212 H217 0.930 . S
O213 Cu207 1.974 . S
O213 C223 1.282 . S
C214 O215 1.261 . S
C214 O227 1.251 . S
O215 C214 1.261 . S
H216 C210 0.930 . S
H217 C212 0.930 . S
N218 Cu207 1.985 . S
N218 C220 1.335 . S
N218 C221 1.390 . S
N219 C220 1.345 . S
N219 C222 1.336 . S
C220 N218 1.335 . S
C220 N219 1.345 . S
C220 H225 0.930 . S
C221 N218 1.390 . S
C221 C222 1.346 . S
C221 H226 0.930 . S
C222 N219 1.336 . S
C222 C221 1.346 . S
C222 H229 0.929 . S
C223 O213 1.282 . S
C223 O224 1.216 . S
O224 C223 1.216 . S
H225 C220 0.930 . S
H226 C221 0.930 . S
O227 Cu207 1.959 . S
O227 C214 1.251 . S
H228 C211 0.930 . S
H229 C222 0.929 . S
Cu230 N231 1.999 . S
Cu230 O236 1.974 . S
Cu230 N241 1.985 . S
Cu230 O250 1.959 . S
N231 Cu230 1.999 . S
N231 C233 1.263 1_554 S
N231 C235 1.389 . S
N232 C233 1.358 . S
N232 C234 1.400 1_556 S
C233 N231 1.263 1_556 S
C233 N232 1.358 . S
C233 H239 0.930 . S
C234 N232 1.400 1_554 S
C234 C235 1.351 . S
C234 H251 0.930 . S
C235 N231 1.389 . S
C235 C234 1.351 . S
C235 H240 0.930 . S
O236 Cu230 1.974 . S
O236 C246 1.282 1_554 S
C237 O238 1.261 1_554 S
C237 O250 1.251 . S
O238 C237 1.261 1_556 S
H239 C233 0.930 . S
H240 C235 0.930 . S
N241 Cu230 1.985 . S
N241 C243 1.335 . S
N241 C244 1.390 . S
N242 C243 1.345 . S
N242 C245 1.336 . S
C243 N241 1.335 . S
C243 N242 1.345 . S
C243 H248 0.930 . S
C244 N241 1.390 . S
C244 C245 1.346 . S
C244 H249 0.930 1_554 S
C245 N242 1.336 . S
C245 C244 1.346 . S
C245 H252 0.926 1_554 S
C246 O236 1.282 1_556 S
C246 O247 1.216 . S
O247 C246 1.216 . S
H248 C243 0.930 . S
H249 C244 0.930 1_556 S
O250 Cu230 1.959 . S
O250 C237 1.251 . S
H251 C234 0.930 . S
H252 C245 0.926 1_556 S
Cu253 N254 1.999 . S
Cu253 O259 1.974 . S
Cu253 N264 1.985 . S
Cu253 O273 1.959 . S
N254 Cu253 1.999 . S
N254 C256 1.263 . S
N254 C258 1.389 . S
N255 C256 1.358 1_545 S
N255 C257 1.400 1_545 S
C256 N254 1.263 . S
C256 N255 1.358 1_565 S
C256 H262 0.927 1_565 S
C257 N255 1.400 1_565 S
C257 C258 1.351 . S
C257 H274 0.930 . S
C258 N254 1.389 . S
C258 C257 1.351 . S
C258 H263 0.930 . S
O259 Cu253 1.974 . S
O259 C269 1.282 . S
C260 O261 1.261 . S
C260 O273 1.251 . S
O261 C260 1.261 . S
H262 C256 0.927 1_545 S
H263 C258 0.930 . S
N264 Cu253 1.985 . S
N264 C266 1.335 . S
N264 C267 1.390 . S
N265 C266 1.345 . S
N265 C268 1.336 . S
C266 N264 1.335 . S
C266 N265 1.345 . S
C266 H271 0.930 . S
C267 N264 1.390 . S
C267 C268 1.346 . S
C267 H272 0.930 . S
C268 N265 1.336 . S
C268 C267 1.346 . S
C268 H275 0.929 . S
C269 O259 1.282 . S
C269 O270 1.216 . S
O270 C269 1.216 . S
H271 C266 0.930 . S
H272 C267 0.930 . S
O273 Cu253 1.959 . S
O273 C260 1.251 . S
H274 C257 0.930 . S
H275 C268 0.929 . S
Cu276 N277 1.999 . S
Cu276 O282 1.974 . S
Cu276 N287 1.985 . S
Cu276 O296 1.959 . S
N277 Cu276 1.999 . S
N277 C279 1.263 . S
N277 C281 1.389 . S
N278 C279 1.358 . S
N278 C280 1.400 . S
C279 N277 1.263 . S
C279 N278 1.358 . S
C279 H285 0.930 . S
C280 N278 1.400 . S
C280 C281 1.351 . S
C280 H297 0.930 . S
C281 N277 1.389 . S
C281 C280 1.351 . S
C281 H286 0.930 . S
O282 Cu276 1.974 . S
O282 C292 1.282 . S
C283 O284 1.261 . S
C283 O296 1.251 . S
O284 C283 1.261 . S
H285 C279 0.930 . S
H286 C281 0.930 . S
N287 Cu276 1.985 . S
N287 C289 1.335 . S
N287 C290 1.390 . S
N288 C289 1.345 . S
N288 C291 1.336 . S
C289 N287 1.335 . S
C289 N288 1.345 . S
C289 H294 0.930 . S
C290 N287 1.390 . S
C290 C291 1.346 . S
C290 H295 0.930 . S
C291 N288 1.336 . S
C291 C290 1.346 . S
C291 H298 0.929 . S
C292 O282 1.282 . S
C292 O293 1.216 . S
O293 C292 1.216 . S
H294 C289 0.930 . S
H295 C290 0.930 . S
O296 Cu276 1.959 . S
O296 C283 1.251 . S
H297 C280 0.930 . S
H298 C291 0.929 . S
Cu299 N300 1.999 . S
Cu299 O305 1.974 . S
Cu299 N310 1.985 1_565 S
Cu299 O319 1.959 . S
N300 Cu299 1.999 . S
N300 C302 1.263 . S
N300 C304 1.389 . S
N301 C302 1.358 . S
N301 C303 1.400 . S
C302 N300 1.263 . S
C302 N301 1.358 . S
C302 H308 0.930 . S
C303 N301 1.400 . S
C303 C304 1.351 . S
C303 H320 0.930 1_655 S
C304 N300 1.389 . S
C304 C303 1.351 . S
C304 H309 0.930 . S
O305 Cu299 1.974 . S
O305 C315 1.282 . S
C306 O307 1.261 1_545 S
C306 O319 1.251 1_545 S
O307 C306 1.261 1_565 S
H308 C302 0.930 . S
H309 C304 0.930 . S
N310 Cu299 1.985 1_545 S
N310 C312 1.335 . S
N310 C313 1.390 . S
N311 C312 1.345 . S
N311 C314 1.336 . S
C312 N310 1.335 . S
C312 N311 1.345 . S
C312 H317 0.930 . S
C313 N310 1.390 . S
C313 C314 1.346 . S
C313 H318 0.930 1_545 S
C314 N311 1.336 . S
C314 C313 1.346 . S
C314 H321 0.929 . S
C315 O305 1.282 . S
C315 O316 1.216 . S
O316 C315 1.216 . S
H317 C312 0.930 . S
H318 C313 0.930 1_565 S
O319 Cu299 1.959 . S
O319 C306 1.251 1_565 S
H320 C303 0.930 1_455 S
H321 C314 0.929 . S
Cu322 N323 1.999 . S
Cu322 O328 1.974 . S
Cu322 N333 1.985 . S
Cu322 O342 1.959 . S
N323 Cu322 1.999 . S
N323 C325 1.263 1_556 S
N323 C327 1.389 . S
N324 C325 1.361 . S
N324 C326 1.387 1_554 S
C325 N323 1.263 1_554 S
C325 N324 1.361 . S
C325 H331 0.930 . S
C326 N324 1.387 1_556 S
C326 C327 1.351 . S
C326 H343 0.930 . S
C327 N323 1.389 . S
C327 C326 1.351 . S
C327 H332 0.930 . S
O328 Cu322 1.974 . S
O328 C338 1.282 1_556 S
C329 O330 1.261 1_556 S
C329 O342 1.251 . S
O330 C329 1.261 1_554 S
H331 C325 0.930 . S
H332 C327 0.930 . S
N333 Cu322 1.985 . S
N333 C335 1.335 . S
N333 C336 1.390 1_556 S
N334 C335 1.345 . S
N334 C337 1.336 . S
C335 N333 1.335 . S
C335 N334 1.345 . S
C335 H340 0.930 . S
C336 N333 1.390 1_554 S
C336 C337 1.346 1_554 S
C336 H341 0.930 . S
C337 N334 1.336 . S
C337 C336 1.346 1_556 S
C337 H344 0.929 1_556 S
C338 O328 1.282 1_554 S
C338 O339 1.216 . S
O339 C338 1.216 . S
H340 C335 0.930 . S
H341 C336 0.930 . S
O342 Cu322 1.959 . S
O342 C329 1.251 . S
H343 C326 0.930 . S
H344 C337 0.929 1_554 S
Cu345 N346 1.999 . S
Cu345 O351 1.974 . S
Cu345 N356 1.985 1_545 S
Cu345 O365 1.959 . S
N346 Cu345 1.999 . S
N346 C348 1.263 . S
N346 C350 1.389 . S
N347 C348 1.358 . S
N347 C349 1.400 . S
C348 N346 1.263 . S
C348 N347 1.358 . S
C348 H354 0.930 . S
C349 N347 1.400 . S
C349 C350 1.351 . S
C349 H366 0.930 . S
C350 N346 1.389 . S
C350 C349 1.351 . S
C350 H355 0.930 . S
O351 Cu345 1.974 . S
O351 C361 1.282 . S
C352 O353 1.261 1_565 S
C352 O365 1.251 1_565 S
O353 C352 1.261 1_545 S
H354 C348 0.930 . S
H355 C350 0.930 . S
N356 Cu345 1.985 1_565 S
N356 C358 1.335 . S
N356 C359 1.390 . S
N357 C358 1.345 . S
N357 C360 1.336 . S
C358 N356 1.335 . S
C358 N357 1.345 . S
C358 H363 0.930 . S
C359 N356 1.390 . S
C359 C360 1.346 . S
C359 H364 0.930 1_565 S
C360 N357 1.336 . S
C360 C359 1.346 . S
C360 H367 0.929 . S
C361 O351 1.282 . S
C361 O362 1.216 . S
O362 C361 1.216 . S
H363 C358 0.930 . S
H364 C359 0.930 1_545 S
O365 Cu345 1.959 . S
O365 C352 1.251 1_545 S
H366 C349 0.930 . S
H367 C360 0.929 . S
H368 C374 0.930 . S
H369 C378 0.930 . S
H370 C383 0.929 . S
H371 C381 0.929 . S
H372 C376 0.929 . S
H373 C382 0.929 . S
C374 H368 0.930 . S
C374 C375 1.367 1_556 S
C374 C382 1.378 . S
C375 C374 1.367 1_554 S
C375 C383 1.433 . S
C376 H372 0.929 . S
C376 C378 1.378 . S
C376 C380 1.350 1_544 S
C377 C380 1.463 1_554 S
C377 C382 1.350 1_554 S
C377 N385 1.427 . S
C378 H369 0.930 . S
C378 C376 1.378 . S
C378 C379 1.367 1_554 S
C379 C378 1.367 1_556 S
C379 C381 1.433 . S
C380 C376 1.350 1_566 S
C380 C377 1.463 1_556 S
C380 N384 1.427 . S
C381 H371 0.929 . S
C381 C379 1.433 . S
C381 N384 1.384 1_545 S
C382 H373 0.929 . S
C382 C374 1.378 . S
C382 C377 1.350 1_556 S
C383 H370 0.929 . S
C383 C375 1.433 . S
C383 N385 1.384 . S
N384 C380 1.427 . S
N384 C381 1.384 1_565 S
N385 C377 1.427 . S
N385 C383 1.384 . S
H386 C392 0.930 . S
H387 C396 0.930 . S
H388 C401 0.929 . S
H389 C399 0.929 . S
H390 C394 0.929 . S
H391 C400 0.929 . S
C392 H386 0.930 . S
C392 C393 1.367 . S
C392 C400 1.378 . S
C393 C392 1.367 . S
C393 C401 1.433 . S
C394 H390 0.929 . S
C394 C396 1.378 . S
C394 C398 1.350 . S
C395 C398 1.463 . S
C395 C400 1.350 . S
C395 N403 1.427 . S
C396 H387 0.930 . S
C396 C394 1.378 . S
C396 C397 1.367 . S
C397 C396 1.367 . S
C397 C399 1.433 . S
C398 C394 1.350 . S
C398 C395 1.463 . S
C398 N402 1.427 . S
C399 H389 0.929 . S
C399 C397 1.433 . S
C399 N402 1.384 . S
C400 H391 0.929 . S
C400 C392 1.378 . S
C400 C395 1.350 . S
C401 H388 0.929 . S
C401 C393 1.433 . S
C401 N403 1.384 . S
N402 C398 1.427 . S
N402 C399 1.384 . S
N403 C395 1.427 . S
N403 C401 1.384 . S
H404 C410 0.930 . S
H405 C414 0.930 . S
H406 C419 0.929 . S
H407 C417 0.929 . S
H408 C412 0.929 . S
H409 C418 0.929 . S
C410 H404 0.930 . S
C410 C411 1.367 . S
C410 C418 1.378 . S
C411 C410 1.367 . S
C411 C419 1.433 . S
C412 H408 0.929 . S
C412 C414 1.378 . S
C412 C416 1.350 . S
C413 C416 1.463 1_455 S
C413 C418 1.350 1_545 S
C413 N421 1.427 . S
C414 H405 0.930 . S
C414 C412 1.378 . S
C414 C415 1.367 . S
C415 C414 1.367 . S
C415 C417 1.433 . S
C416 C412 1.350 . S
C416 C413 1.463 1_655 S
C416 N420 1.427 . S
C417 H407 0.929 . S
C417 C415 1.433 . S
C417 N420 1.384 . S
C418 H409 0.929 . S
C418 C410 1.378 . S
C418 C413 1.350 1_565 S
C419 H406 0.929 . S
C419 C411 1.433 . S
C419 N421 1.384 1_565 S
N420 C416 1.427 . S
N420 C417 1.384 . S
N421 C413 1.427 . S
N421 C419 1.384 1_545 S
H422 C428 0.930 . S
H423 C432 0.930 . S
H424 C437 0.929 . S
H425 C435 0.929 . S
H426 C430 0.929 . S
H427 C436 0.929 . S
C428 H422 0.930 . S
C428 C429 1.367 . S
C428 C436 1.378 . S
C429 C428 1.367 . S
C429 C437 1.433 . S
C430 H426 0.929 . S
C430 C432 1.378 . S
C430 C434 1.350 . S
C431 C434 1.463 . S
C431 C436 1.350 . S
C431 N439 1.427 . S
C432 H423 0.930 . S
C432 C430 1.378 . S
C432 C433 1.367 . S
C433 C432 1.367 . S
C433 C435 1.433 . S
C434 C430 1.350 . S
C434 C431 1.463 . S
C434 N438 1.427 . S
C435 H425 0.929 . S
C435 C433 1.433 . S
C435 N438 1.384 . S
C436 H427 0.929 . S
C436 C428 1.378 . S
C436 C431 1.350 . S
C437 H424 0.929 . S
C437 C429 1.433 . S
C437 N439 1.384 . S
N438 C434 1.427 . S
N438 C435 1.384 . S
N439 C431 1.427 . S
N439 C437 1.384 . S
H440 C446 0.930 . S
H441 C450 0.930 . S
H442 C455 0.929 . S
H443 C453 0.929 . S
H444 C448 0.929 . S
H445 C454 0.929 . S
C446 H440 0.930 . S
C446 C447 1.367 . S
C446 C454 1.378 . S
C447 C446 1.367 . S
C447 C455 1.433 . S
C448 H444 0.929 . S
C448 C450 1.378 . S
C448 C452 1.350 . S
C449 C452 1.463 . S
C449 C454 1.350 . S
C449 N457 1.427 . S
C450 H441 0.930 . S
C450 C448 1.378 . S
C450 C451 1.367 . S
C451 C450 1.367 . S
C451 C453 1.433 . S
C452 C448 1.350 . S
C452 C449 1.463 . S
C452 N456 1.427 . S
C453 H443 0.929 . S
C453 C451 1.433 . S
C453 N456 1.384 . S
C454 H445 0.929 . S
C454 C446 1.378 . S
C454 C449 1.350 . S
C455 H442 0.929 . S
C455 C447 1.433 . S
C455 N457 1.384 . S
N456 C452 1.427 . S
N456 C453 1.384 . S
N457 C449 1.427 . S
N457 C455 1.384 . S
H458 C464 0.930 . S
H459 C468 0.930 . S
H460 C473 0.929 . S
H461 C471 0.929 . S
H462 C466 0.929 . S
H463 C472 0.929 . S
C464 H458 0.930 . S
C464 C465 1.367 . S
C464 C472 1.378 . S
C465 C464 1.367 . S
C465 C473 1.433 . S
C466 H462 0.929 . S
C466 C468 1.378 . S
C466 C470 1.350 . S
C467 C470 1.463 . S
C467 C472 1.350 . S
C467 N475 1.427 . S
C468 H459 0.930 . S
C468 C466 1.378 . S
C468 C469 1.367 . S
C469 C468 1.367 . S
C469 C471 1.433 . S
C470 C466 1.350 . S
C470 C467 1.463 . S
C470 N474 1.427 . S
C471 H461 0.929 . S
C471 C469 1.433 . S
C471 N474 1.384 . S
C472 H463 0.929 . S
C472 C464 1.378 . S
C472 C467 1.350 . S
C473 H460 0.929 . S
C473 C465 1.433 . S
C473 N475 1.384 . S
N474 C470 1.427 . S
N474 C471 1.384 . S
N475 C467 1.427 . S
N475 C473 1.384 . S
H476 C482 0.930 . S
H477 C486 0.930 . S
H478 C491 0.929 . S
H479 C489 0.929 . S
H480 C484 0.929 . S
H481 C490 0.929 . S
C482 H476 0.930 . S
C482 C483 1.367 . S
C482 C490 1.378 . S
C483 C482 1.367 . S
C483 C491 1.433 . S
C484 H480 0.929 . S
C484 C486 1.378 . S
C484 C488 1.350 . S
C485 C488 1.463 1_655 S
C485 C490 1.350 . S
C485 N493 1.427 . S
C486 H477 0.930 . S
C486 C484 1.378 . S
C486 C487 1.367 . S
C487 C486 1.367 . S
C487 C489 1.433 . S
C488 C484 1.350 . S
C488 C485 1.463 1_455 S
C488 N492 1.427 . S
C489 H479 0.929 . S
C489 C487 1.433 . S
C489 N492 1.384 . S
C490 H481 0.929 . S
C490 C482 1.378 . S
C490 C485 1.350 . S
C491 H478 0.929 . S
C491 C483 1.433 . S
C491 N493 1.384 . S
N492 C488 1.427 . S
N492 C489 1.384 . S
N493 C485 1.427 . S
N493 C491 1.384 . S
H494 C500 0.930 . S
H495 C504 0.930 . S
H496 C509 0.929 . S
H497 C507 0.929 . S
H498 C502 0.929 . S
H499 C508 0.929 . S
C500 H494 0.930 . S
C500 C501 1.367 . S
C500 C508 1.378 . S
C501 C500 1.367 . S
C501 C509 1.433 1_554 S
C502 H498 0.929 . S
C502 C504 1.378 . S
C502 C506 1.350 . S
C503 C506 1.463 1_554 S
C503 C508 1.350 . S
C503 N511 1.427 1_554 S
C504 H495 0.930 . S
C504 C502 1.378 . S
C504 C505 1.367 . S
C505 C504 1.367 . S
C505 C507 1.433 1_556 S
C506 C502 1.350 . S
C506 C503 1.463 1_556 S
C506 N510 1.427 1_556 S
C507 H497 0.929 . S
C507 C505 1.433 1_554 S
C507 N510 1.384 . S
C508 H499 0.929 . S
C508 C500 1.378 . S
C508 C503 1.350 . S
C509 H496 0.929 . S
C509 C501 1.433 1_556 S
C509 N511 1.384 . S
N510 C506 1.427 1_554 S
N510 C507 1.384 . S
N511 C503 1.427 1_556 S
N511 C509 1.384 . S
H512 C518 0.930 . S
H513 C522 0.930 1_556 S
H514 C527 0.929 . S
H515 C525 0.929 . S
H516 C520 0.929 . S
H517 C526 0.929 . S
C518 H512 0.930 . S
C518 C519 1.367 . S
C518 C526 1.378 . S
C519 C518 1.367 . S
C519 C527 1.433 . S
C520 H516 0.929 . S
C520 C522 1.378 . S
C520 C524 1.350 . S
C521 C524 1.463 . S
C521 C526 1.350 . S
C521 N529 1.427 . S
C522 H513 0.930 1_554 S
C522 C520 1.378 . S
C522 C523 1.367 . S
C523 C522 1.367 . S
C523 C525 1.433 . S
C524 C520 1.350 . S
C524 C521 1.463 . S
C524 N528 1.427 . S
C525 H515 0.929 . S
C525 C523 1.433 . S
C525 N528 1.384 . S
C526 H517 0.929 . S
C526 C518 1.378 . S
C526 C521 1.350 . S
C527 H514 0.929 . S
C527 C519 1.433 . S
C527 N529 1.384 . S
N528 C524 1.427 . S
N528 C525 1.384 . S
N529 C521 1.427 . S
N529 C527 1.384 . S
H530 C536 0.930 . S
H531 C540 0.930 . S
H532 C545 0.929 . S
H533 C543 0.929 . S
H534 C538 0.929 . S
H535 C544 0.929 . S
C536 H530 0.930 . S
C536 C537 1.367 . S
C536 C544 1.378 . S
C537 C536 1.367 . S
C537 C545 1.433 . S
C538 H534 0.929 . S
C538 C540 1.378 . S
C538 C542 1.350 . S
C539 C542 1.463 . S
C539 C544 1.350 . S
C539 N547 1.427 . S
C540 H531 0.930 . S
C540 C538 1.378 . S
C540 C541 1.367 . S
C541 C540 1.367 . S
C541 C543 1.433 . S
C542 C538 1.350 . S
C542 C539 1.463 . S
C542 N546 1.427 . S
C543 H533 0.929 . S
C543 C541 1.433 . S
C543 N546 1.384 . S
C544 H535 0.929 . S
C544 C536 1.378 . S
C544 C539 1.350 . S
C545 H532 0.929 . S
C545 C537 1.433 . S
C545 N547 1.384 . S
N546 C542 1.427 . S
N546 C543 1.384 . S
N547 C539 1.427 . S
N547 C545 1.384 . S
H548 C554 0.930 . S
H549 C558 0.930 . S
H550 C563 0.929 . S
H551 C561 0.929 . S
H552 C556 0.929 . S
H553 C562 0.929 . S
C554 H548 0.930 . S
C554 C555 1.367 . S
C554 C562 1.378 . S
C555 C554 1.367 . S
C555 C563 1.433 . S
C556 H552 0.929 . S
C556 C558 1.378 . S
C556 C560 1.350 . S
C557 C560 1.463 . S
C557 C562 1.350 . S
C557 N565 1.427 . S
C558 H549 0.930 . S
C558 C556 1.378 . S
C558 C559 1.367 . S
C559 C558 1.367 . S
C559 C561 1.433 . S
C560 C556 1.350 . S
C560 C557 1.463 . S
C560 N564 1.427 . S
C561 H551 0.929 . S
C561 C559 1.433 . S
C561 N564 1.384 . S
C562 H553 0.929 . S
C562 C554 1.378 . S
C562 C557 1.350 . S
C563 H550 0.929 . S
C563 C555 1.433 . S
C563 N565 1.384 . S
N564 C560 1.427 . S
N564 C561 1.384 . S
N565 C557 1.427 . S
N565 C563 1.384 . S
H566 C572 0.930 . S
H567 C576 0.930 . S
H568 C581 0.929 1_655 S
H569 C579 0.929 . S
H570 C574 0.929 . S
H571 C580 0.929 . S
C572 H566 0.930 . S
C572 C573 1.367 . S
C572 C580 1.378 . S
C573 C572 1.367 . S
C573 C581 1.433 . S
C574 H570 0.929 . S
C574 C576 1.378 . S
C574 C578 1.350 . S
C575 C578 1.463 . S
C575 C580 1.350 . S
C575 N583 1.427 . S
C576 H567 0.930 . S
C576 C574 1.378 . S
C576 C577 1.367 . S
C577 C576 1.367 . S
C577 C579 1.433 . S
C578 C574 1.350 . S
C578 C575 1.463 . S
C578 N582 1.427 . S
C579 H569 0.929 . S
C579 C577 1.433 . S
C579 N582 1.384 . S
C580 H571 0.929 . S
C580 C572 1.378 . S
C580 C575 1.350 . S
C581 H568 0.929 1_455 S
C581 C573 1.433 . S
C581 N583 1.384 . S
N582 C578 1.427 . S
N582 C579 1.384 . S
N583 C575 1.427 . S
N583 C581 1.384 . S
H584 C590 0.930 . S
H585 C594 0.930 . S
H586 C599 0.929 . S
H587 C597 0.929 . S
H588 C592 0.929 . S
H589 C598 0.929 . S
C590 H584 0.930 . S
C590 C591 1.367 . S
C590 C598 1.378 . S
C591 C590 1.367 . S
C591 C599 1.433 . S
C592 H588 0.929 . S
C592 C594 1.378 . S
C592 C596 1.350 . S
C593 C596 1.463 . S
C593 C598 1.350 . S
C593 N601 1.427 . S
C594 H585 0.930 . S
C594 C592 1.378 . S
C594 C595 1.367 . S
C595 C594 1.367 . S
C595 C597 1.433 . S
C596 C592 1.350 . S
C596 C593 1.463 . S
C596 N600 1.427 . S
C597 H587 0.929 . S
C597 C595 1.433 . S
C597 N600 1.384 . S
C598 H589 0.929 . S
C598 C590 1.378 . S
C598 C593 1.350 . S
C599 H586 0.929 . S
C599 C591 1.433 . S
C599 N601 1.384 . S
N600 C596 1.427 . S
N600 C597 1.384 . S
N601 C593 1.427 . S
N601 C599 1.384 . S
H602 C608 0.930 . S
H603 C612 0.930 . S
H604 C617 0.929 . S
H605 C615 0.929 . S
H606 C610 0.929 . S
H607 C616 0.929 . S
C608 H602 0.930 . S
C608 C609 1.367 . S
C608 C616 1.378 . S
C609 C608 1.367 . S
C609 C617 1.433 . S
C610 H606 0.929 . S
C610 C612 1.378 . S
C610 C614 1.350 . S
C611 C614 1.463 . S
C611 C616 1.350 . S
C611 N619 1.427 . S
C612 H603 0.930 . S
C612 C610 1.378 . S
C612 C613 1.367 . S
C613 C612 1.367 . S
C613 C615 1.433 . S
C614 C610 1.350 . S
C614 C611 1.463 . S
C614 N618 1.427 . S
C615 H605 0.929 . S
C615 C613 1.433 . S
C615 N618 1.384 . S
C616 H607 0.929 . S
C616 C608 1.378 . S
C616 C611 1.350 . S
C617 H604 0.929 . S
C617 C609 1.433 . S
C617 N619 1.384 . S
N618 C614 1.427 . S
N618 C615 1.384 . S
N619 C611 1.427 . S
N619 C617 1.384 . S
H620 C626 0.930 . S
H621 C630 0.930 . S
H622 C635 0.929 . S
H623 C633 0.929 . S
H624 C628 0.929 . S
H625 C634 0.929 . S
C626 H620 0.930 . S
C626 C627 1.367 . S
C626 C634 1.378 . S
C627 C626 1.367 . S
C627 C635 1.433 . S
C628 H624 0.929 . S
C628 C630 1.378 . S
C628 C632 1.350 . S
C629 C632 1.463 . S
C629 C634 1.350 . S
C629 N637 1.427 . S
C630 H621 0.930 . S
C630 C628 1.378 . S
C630 C631 1.367 . S
C631 C630 1.367 . S
C631 C633 1.433 . S
C632 C628 1.350 . S
C632 C629 1.463 . S
C632 N636 1.427 . S
C633 H623 0.929 . S
C633 C631 1.433 . S
C633 N636 1.384 . S
C634 H625 0.929 . S
C634 C626 1.378 . S
C634 C629 1.350 . S
C635 H622 0.929 . S
C635 C627 1.433 . S
C635 N637 1.384 . S
N636 C632 1.427 . S
N636 C633 1.384 . S
N637 C629 1.427 . S
N637 C635 1.384 . S
H638 C644 0.930 1_455 S
H639 C648 0.930 . S
H640 C653 0.929 . S
H641 C651 0.929 . S
H642 C646 0.929 . S
H643 C652 0.929 . S
C644 H638 0.930 1_655 S
C644 C645 1.367 . S
C644 C652 1.378 . S
C645 C644 1.367 . S
C645 C653 1.433 . S
C646 H642 0.929 . S
C646 C648 1.378 . S
C646 C650 1.350 . S
C647 C650 1.463 . S
C647 C652 1.350 . S
C647 N655 1.427 . S
C648 H639 0.930 . S
C648 C646 1.378 . S
C648 C649 1.367 . S
C649 C648 1.367 . S
C649 C651 1.433 . S
C650 C646 1.350 . S
C650 C647 1.463 . S
C650 N654 1.427 . S
C651 H641 0.929 . S
C651 C649 1.433 . S
C651 N654 1.384 . S
C652 H643 0.929 . S
C652 C644 1.378 . S
C652 C647 1.350 . S
C653 H640 0.929 . S
C653 C645 1.433 . S
C653 N655 1.384 . S
N654 C650 1.427 . S
N654 C651 1.384 . S
N655 C647 1.427 . S
N655 C653 1.384 . S
H656 C662 0.930 . S
H657 C666 0.930 . S
H658 C671 0.929 . S
H659 C669 0.929 . S
H660 C664 0.929 . S
H661 C670 0.929 . S
C662 H656 0.930 . S
C662 C663 1.367 . S
C662 C670 1.378 . S
C663 C662 1.367 . S
C663 C671 1.433 . S
C664 H660 0.929 . S
C664 C666 1.378 . S
C664 C668 1.350 . S
C665 C668 1.463 . S
C665 C670 1.350 . S
C665 N673 1.427 . S
C666 H657 0.930 . S
C666 C664 1.378 . S
C666 C667 1.367 . S
C667 C666 1.367 . S
C667 C669 1.433 . S
C668 C664 1.350 . S
C668 C665 1.463 . S
C668 N672 1.427 . S
C669 H659 0.929 . S
C669 C667 1.433 . S
C669 N672 1.384 . S
C670 H661 0.929 . S
C670 C662 1.378 . S
C670 C665 1.350 . S
C671 H658 0.929 . S
C671 C663 1.433 . S
C671 N673 1.384 . S
N672 C668 1.427 . S
N672 C669 1.384 . S
N673 C665 1.427 . S
N673 C671 1.384 . S
H674 C680 0.921 1_554 S
H675 C684 0.930 . S
H676 C689 0.929 . S
H677 C687 0.929 1_455 S
H678 C682 0.929 . S
H679 C688 0.929 . S
C680 H674 0.921 1_556 S
C680 C681 1.367 . S
C680 C688 1.378 . S
C681 C680 1.367 . S
C681 C689 1.433 . S
C682 H678 0.929 . S
C682 C684 1.378 . S
C682 C686 1.350 . S
C683 C686 1.463 . S
C683 C688 1.350 . S
C683 N691 1.427 . S
C684 H675 0.930 . S
C684 C682 1.378 . S
C684 C685 1.367 . S
C685 C684 1.367 . S
C685 C687 1.433 . S
C686 C682 1.350 . S
C686 C683 1.463 . S
C686 N690 1.427 . S
C687 H677 0.929 1_655 S
C687 C685 1.433 . S
C687 N690 1.384 . S
C688 H679 0.929 . S
C688 C680 1.378 . S
C688 C683 1.350 . S
C689 H676 0.929 . S
C689 C681 1.433 . S
C689 N691 1.384 . S
N690 C686 1.427 . S
N690 C687 1.384 . S
N691 C683 1.427 . S
N691 C689 1.384 . S
H692 C698 0.930 . S
H693 C702 0.930 . S
H694 C707 0.929 . S
H695 C705 0.929 . S
H696 C700 0.929 . S
H697 C706 0.929 . S
C698 H692 0.930 . S
C698 C699 1.367 . S
C698 C706 1.378 . S
C699 C698 1.367 . S
C699 C707 1.433 . S
C700 H696 0.929 . S
C700 C702 1.378 . S
C700 C704 1.350 . S
C701 C704 1.463 . S
C701 C706 1.350 . S
C701 N709 1.427 . S
C702 H693 0.930 . S
C702 C700 1.378 . S
C702 C703 1.367 . S
C703 C702 1.367 . S
C703 C705 1.433 . S
C704 C700 1.350 . S
C704 C701 1.463 . S
C704 N708 1.427 . S
C705 H695 0.929 . S
C705 C703 1.433 . S
C705 N708 1.384 . S
C706 H697 0.929 . S
C706 C698 1.378 . S
C706 C701 1.350 . S
C707 H694 0.929 . S
C707 C699 1.433 . S
C707 N709 1.384 . S
N708 C704 1.427 . S
N708 C705 1.384 . S
N709 C701 1.427 . S
N709 C707 1.384 . S
H710 C716 0.930 . S
H711 C720 0.930 . S
H712 C725 0.929 1_565 S
H713 C723 0.929 . S
H714 C718 0.929 . S
H715 C724 0.929 . S
C716 H710 0.930 . S
C716 C717 1.367 . S
C716 C724 1.378 . S
C717 C716 1.367 . S
C717 C725 1.433 . S
C718 H714 0.929 . S
C718 C720 1.378 . S
C718 C722 1.350 . S
C719 C722 1.463 . S
C719 C724 1.350 . S
C719 N727 1.427 . S
C720 H711 0.930 . S
C720 C718 1.378 . S
C720 C721 1.367 . S
C721 C720 1.367 . S
C721 C723 1.433 . S
C722 C718 1.350 . S
C722 C719 1.463 . S
C722 N726 1.427 . S
C723 H713 0.929 . S
C723 C721 1.433 . S
C723 N726 1.384 . S
C724 H715 0.929 . S
C724 C716 1.378 . S
C724 C719 1.350 . S
C725 H712 0.929 1_545 S
C725 C717 1.433 . S
C725 N727 1.384 . S
N726 C722 1.427 . S
N726 C723 1.384 . S
N727 C719 1.427 . S
N727 C725 1.384 . S
H728 C734 0.930 . S
H729 C738 0.930 . S
H730 C743 0.929 . S
H731 C741 0.929 . S
H732 C736 0.929 . S
H733 C742 0.929 . S
C734 H728 0.930 . S
C734 C735 1.367 . S
C734 C742 1.378 . S
C735 C734 1.367 . S
C735 C743 1.433 . S
C736 H732 0.929 . S
C736 C738 1.378 . S
C736 C740 1.350 . S
C737 C740 1.463 . S
C737 C742 1.350 . S
C737 N745 1.427 . S
C738 H729 0.930 . S
C738 C736 1.378 . S
C738 C739 1.367 . S
C739 C738 1.367 . S
C739 C741 1.433 . S
C740 C736 1.350 . S
C740 C737 1.463 . S
C740 N744 1.427 . S
C741 H731 0.929 . S
C741 C739 1.433 . S
C741 N744 1.384 . S
C742 H733 0.929 . S
C742 C734 1.378 . S
C742 C737 1.350 . S
C743 H730 0.929 . S
C743 C735 1.433 . S
C743 N745 1.384 . S
N744 C740 1.427 . S
N744 C741 1.384 . S
N745 C737 1.427 . S
N745 C743 1.384 . S
H746 C752 0.930 1_565 S
H747 C756 0.930 . S
H748 C761 0.929 . S
H749 C759 0.929 . S
H750 C754 0.929 . S
H751 C760 0.929 . S
C752 H746 0.930 1_545 S
C752 C753 1.367 . S
C752 C760 1.378 . S
C753 C752 1.367 . S
C753 C761 1.433 . S
C754 H750 0.929 . S
C754 C756 1.378 . S
C754 C758 1.350 . S
C755 C758 1.463 . S
C755 C760 1.350 . S
C755 N763 1.427 . S
C756 H747 0.930 . S
C756 C754 1.378 . S
C756 C757 1.367 . S
C757 C756 1.367 . S
C757 C759 1.433 . S
C758 C754 1.350 . S
C758 C755 1.463 . S
C758 N762 1.427 . S
C759 H749 0.929 . S
C759 C757 1.433 . S
C759 N762 1.384 . S
C760 H751 0.929 . S
C760 C752 1.378 . S
C760 C755 1.350 . S
C761 H748 0.929 . S
C761 C753 1.433 . S
C761 N763 1.384 . S
N762 C758 1.427 . S
N762 C759 1.384 . S
N763 C755 1.427 . S
N763 C761 1.384 . S
H764 C770 0.930 . S
H765 C774 0.930 . S
H766 C779 0.929 1_554 S
H767 C777 0.929 . S
H768 C772 0.929 . S
H769 C778 0.929 . S
C770 H764 0.930 . S
C770 C771 1.367 . S
C770 C778 1.378 . S
C771 C770 1.367 . S
C771 C779 1.433 . S
C772 H768 0.929 . S
C772 C774 1.378 . S
C772 C776 1.350 . S
C773 C776 1.463 . S
C773 C778 1.350 . S
C773 N781 1.427 . S
C774 H765 0.930 . S
C774 C772 1.378 . S
C774 C775 1.367 . S
C775 C774 1.367 . S
C775 C777 1.433 . S
C776 C772 1.350 . S
C776 C773 1.463 . S
C776 N780 1.427 . S
C777 H767 0.929 . S
C777 C775 1.433 . S
C777 N780 1.384 . S
C778 H769 0.929 . S
C778 C770 1.378 . S
C778 C773 1.350 . S
C779 H766 0.929 1_556 S
C779 C771 1.433 . S
C779 N781 1.384 . S
N780 C776 1.427 . S
N780 C777 1.384 . S
N781 C773 1.427 . S
N781 C779 1.384 . S
H782 C788 0.930 . S
H783 C792 0.930 . S
H784 C797 0.929 . S
H785 C795 0.929 . S
H786 C790 0.929 1_545 S
H787 C796 0.929 . S
C788 H782 0.930 . S
C788 C789 1.367 . S
C788 C796 1.378 . S
C789 C788 1.367 . S
C789 C797 1.433 . S
C790 H786 0.929 1_565 S
C790 C792 1.378 1_565 S
C790 C794 1.350 . S
C791 C794 1.463 . S
C791 C796 1.350 . S
C791 N799 1.427 . S
C792 H783 0.930 . S
C792 C790 1.378 1_545 S
C792 C793 1.367 1_545 S
C793 C792 1.367 1_565 S
C793 C795 1.433 . S
C794 C790 1.350 . S
C794 C791 1.463 . S
C794 N798 1.427 . S
C795 H785 0.929 . S
C795 C793 1.433 . S
C795 N798 1.384 . S
C796 H787 0.929 . S
C796 C788 1.378 . S
C796 C791 1.350 . S
C797 H784 0.929 . S
C797 C789 1.433 . S
C797 N799 1.384 . S
N798 C794 1.427 . S
N798 C795 1.384 . S
N799 C791 1.427 . S
N799 C797 1.384 . S
H800 C806 0.930 . S
H801 C810 0.930 . S
H802 C815 0.929 . S
H803 C813 0.929 . S
H804 C808 0.929 . S
H805 C814 0.929 . S
C806 H800 0.930 . S
C806 C807 1.367 . S
C806 C814 1.378 . S
C807 C806 1.367 . S
C807 C815 1.433 . S
C808 H804 0.929 . S
C808 C810 1.378 . S
C808 C812 1.350 . S
C809 C812 1.463 . S
C809 C814 1.350 . S
C809 N817 1.427 . S
C810 H801 0.930 . S
C810 C808 1.378 . S
C810 C811 1.367 . S
C811 C810 1.367 . S
C811 C813 1.433 . S
C812 C808 1.350 . S
C812 C809 1.463 . S
C812 N816 1.427 . S
C813 H803 0.929 . S
C813 C811 1.433 . S
C813 N816 1.384 . S
C814 H805 0.929 . S
C814 C806 1.378 . S
C814 C809 1.350 . S
C815 H802 0.929 . S
C815 C807 1.433 . S
C815 N817 1.384 . S
N816 C812 1.427 . S
N816 C813 1.384 . S
N817 C809 1.427 . S
N817 C815 1.384 . S
H818 C824 0.930 . S
H819 C828 0.930 . S
H820 C833 0.929 . S
H821 C831 0.929 . S
H822 C826 0.929 . S
H823 C832 0.929 . S
C824 H818 0.930 . S
C824 C825 1.367 . S
C824 C832 1.378 . S
C825 C824 1.367 . S
C825 C833 1.433 . S
C826 H822 0.929 . S
C826 C828 1.378 . S
C826 C830 1.350 . S
C827 C830 1.463 . S
C827 C832 1.350 . S
C827 N835 1.427 . S
C828 H819 0.930 . S
C828 C826 1.378 . S
C828 C829 1.367 . S
C829 C828 1.367 . S
C829 C831 1.433 . S
C830 C826 1.350 . S
C830 C827 1.463 . S
C830 N834 1.427 . S
C831 H821 0.929 . S
C831 C829 1.433 . S
C831 N834 1.384 . S
C832 H823 0.929 . S
C832 C824 1.378 . S
C832 C827 1.350 . S
C833 H820 0.929 . S
C833 C825 1.433 . S
C833 N835 1.384 . S
N834 C830 1.427 . S
N834 C831 1.384 . S
N835 C827 1.427 . S
N835 C833 1.384 . S
H836 C842 0.930 . S
H837 C846 0.930 . S
H838 C851 0.929 . S
H839 C849 0.929 . S
H840 C844 0.929 1_455 S
H841 C850 0.929 1_655 S
C842 H836 0.930 . S
C842 C843 1.367 . S
C842 C850 1.378 . S
C843 C842 1.367 . S
C843 C851 1.433 . S
C844 H840 0.929 1_655 S
C844 C846 1.378 . S
C844 C848 1.350 . S
C845 C848 1.463 1_455 S
C845 C850 1.350 . S
C845 N853 1.427 . S
C846 H837 0.930 . S
C846 C844 1.378 . S
C846 C847 1.367 . S
C847 C846 1.367 . S
C847 C849 1.433 . S
C848 C844 1.350 . S
C848 C845 1.463 1_655 S
C848 N852 1.427 . S
C849 H839 0.929 . S
C849 C847 1.433 . S
C849 N852 1.384 . S
C850 H841 0.929 1_455 S
C850 C842 1.378 . S
C850 C845 1.350 . S
C851 H838 0.929 . S
C851 C843 1.433 . S
C851 N853 1.384 . S
N852 C848 1.427 . S
N852 C849 1.384 . S
N853 C845 1.427 . S
N853 C851 1.384 . S
H854 C860 0.930 . S
H855 C864 0.930 . S
H856 C869 0.929 . S
H857 C867 0.929 . S
H858 C862 0.929 . S
H859 C868 0.929 . S
C860 H854 0.930 . S
C860 C861 1.367 . S
C860 C868 1.378 . S
C861 C860 1.367 . S
C861 C869 1.433 . S
C862 H858 0.929 . S
C862 C864 1.378 . S
C862 C866 1.350 . S
C863 C866 1.463 1_455 S
C863 C868 1.350 . S
C863 N871 1.427 . S
C864 H855 0.930 . S
C864 C862 1.378 . S
C864 C865 1.367 . S
C865 C864 1.367 . S
C865 C867 1.433 . S
C866 C862 1.350 . S
C866 C863 1.463 1_655 S
C866 N870 1.427 . S
C867 H857 0.929 . S
C867 C865 1.433 . S
C867 N870 1.384 . S
C868 H859 0.929 . S
C868 C860 1.378 . S
C868 C863 1.350 . S
C869 H856 0.929 . S
C869 C861 1.433 . S
C869 N871 1.384 . S
N870 C866 1.427 . S
N870 C867 1.384 . S
N871 C863 1.427 . S
N871 C869 1.384 . S
H872 C878 0.930 . S
H873 C882 0.930 . S
H874 C887 0.929 . S
H875 C885 0.929 . S
H876 C880 0.929 . S
H877 C886 0.929 . S
C878 H872 0.930 . S
C878 C879 1.367 1_556 S
C878 C886 1.378 . S
C879 C878 1.367 1_554 S
C879 C887 1.433 . S
C880 H876 0.929 . S
C880 C882 1.378 . S
C880 C884 1.350 . S
C881 C884 1.463 . S
C881 C886 1.350 1_554 S
C881 N889 1.427 . S
C882 H873 0.930 . S
C882 C880 1.378 . S
C882 C883 1.367 . S
C883 C882 1.367 . S
C883 C885 1.433 1_554 S
C884 C880 1.350 . S
C884 C881 1.463 . S
C884 N888 1.427 1_554 S
C885 H875 0.929 . S
C885 C883 1.433 1_556 S
C885 N888 1.384 . S
C886 H877 0.929 . S
C886 C878 1.378 . S
C886 C881 1.350 1_556 S
C887 H874 0.929 . S
C887 C879 1.433 . S
C887 N889 1.384 . S
N888 C884 1.427 1_556 S
N888 C885 1.384 . S
N889 C881 1.427 . S
N889 C887 1.384 . S
H890 C896 0.930 . S
H891 C900 0.930 . S
H892 C905 0.929 . S
H893 C903 0.929 . S
H894 C898 0.929 . S
H895 C904 0.929 . S
C896 H890 0.930 . S
C896 C897 1.367 . S
C896 C904 1.378 . S
C897 C896 1.367 . S
C897 C905 1.433 . S
C898 H894 0.929 . S
C898 C900 1.378 . S
C898 C902 1.350 . S
C899 C902 1.463 . S
C899 C904 1.350 . S
C899 N907 1.427 . S
C900 H891 0.930 . S
C900 C898 1.378 . S
C900 C901 1.367 . S
C901 C900 1.367 . S
C901 C903 1.433 . S
C902 C898 1.350 . S
C902 C899 1.463 . S
C902 N906 1.427 . S
C903 H893 0.929 . S
C903 C901 1.433 . S
C903 N906 1.384 . S
C904 H895 0.929 . S
C904 C896 1.378 . S
C904 C899 1.350 . S
C905 H892 0.929 . S
C905 C897 1.433 . S
C905 N907 1.384 . S
N906 C902 1.427 . S
N906 C903 1.384 . S
N907 C899 1.427 . S
N907 C905 1.384 . S
H908 C914 0.930 . S
H909 C918 0.930 . S
H910 C923 0.929 . S
H911 C921 0.929 . S
H912 C916 0.929 . S
H913 C922 0.929 . S
C914 H908 0.930 . S
C914 C915 1.367 . S
C914 C922 1.378 . S
C915 C914 1.367 . S
C915 C923 1.433 . S
C916 H912 0.929 . S
C916 C918 1.378 . S
C916 C920 1.350 . S
C917 C920 1.463 1_455 S
C917 C922 1.350 . S
C917 N925 1.427 . S
C918 H909 0.930 . S
C918 C916 1.378 . S
C918 C919 1.367 . S
C919 C918 1.367 . S
C919 C921 1.433 . S
C920 C916 1.350 . S
C920 C917 1.463 1_655 S
C920 N924 1.427 . S
C921 H911 0.929 . S
C921 C919 1.433 . S
C921 N924 1.384 . S
C922 H913 0.929 . S
C922 C914 1.378 . S
C922 C917 1.350 . S
C923 H910 0.929 . S
C923 C915 1.433 . S
C923 N925 1.384 . S
N924 C920 1.427 . S
N924 C921 1.384 . S
N925 C917 1.427 . S
N925 C923 1.384 . S
H926 C932 0.930 . S
H927 C936 0.930 . S
H928 C941 0.929 . S
H929 C939 0.929 . S
H930 C934 0.929 . S
H931 C940 0.929 . S
C932 H926 0.930 . S
C932 C933 1.367 . S
C932 C940 1.378 . S
C933 C932 1.367 . S
C933 C941 1.433 . S
C934 H930 0.929 . S
C934 C936 1.378 . S
C934 C938 1.350 . S
C935 C938 1.463 1_655 S
C935 C940 1.350 . S
C935 N943 1.427 . S
C936 H927 0.930 . S
C936 C934 1.378 . S
C936 C937 1.367 . S
C937 C936 1.367 . S
C937 C939 1.433 . S
C938 C934 1.350 . S
C938 C935 1.463 1_455 S
C938 N942 1.427 . S
C939 H929 0.929 . S
C939 C937 1.433 . S
C939 N942 1.384 . S
C940 H931 0.929 . S
C940 C932 1.378 . S
C940 C935 1.350 . S
C941 H928 0.929 . S
C941 C933 1.433 . S
C941 N943 1.384 . S
N942 C938 1.427 . S
N942 C939 1.384 . S
N943 C935 1.427 . S
N943 C941 1.384 . S
C375 C108 2.556 . S
C379 C16 2.554 . S
C393 C315 2.586 . S
C397 N35 2.525 . S
C411 C62 2.627 . S
C415 C154 2.630 . S
C429 C361 2.588 . S
C433 N81 2.524 . S
C447 N219 2.516 . S
C451 C131 2.584 . S
C465 N265 2.524 . S
C469 C177 2.588 . S
C483 C200 2.628 . S
C487 C292 2.630 . S
C501 C338 2.561 . S
C505 C246 2.559 . S
C519 N173 1.687 . S
C523 C7 1.667 . S
C537 N288 1.755 . S
C541 N25 1.756 . S
C555 C53 1.693 . S
C559 N127 1.722 . S
C573 N71 1.748 1_455 S
C577 N334 1.768 . S
C591 C85 2.063 . S
C595 C99 2.051 . S
C609 C122 2.022 . S
C613 N196 2.070 . S
C627 C145 2.086 . S
C631 C39 2.100 . S
C645 C168 2.026 1_655 S
C649 N242 2.071 . S
C663 C191 1.701 . S
C667 N357 1.727 . S
C681 N104 1.767 . S
C685 N209 1.750 1_655 S
C699 N311 1.689 . S
C703 C237 1.663 . S
C717 N255 1.755 . S
C721 N150 1.757 . S
C735 C269 2.100 1_545 S
C739 C283 2.086 . S
C753 C306 2.017 1_455 S
C757 N12 2.073 . S
C771 C329 2.051 . S
C775 C223 2.056 1_565 S
C789 N58 2.070 . S
C793 C352 2.013 . S
C807 N2 0.696 . S
C811 N232 0.703 . S
C825 C260 0.846 . S
C829 C30 0.847 . S
C843 N48 0.715 . S
C847 N186 0.701 . S
C861 C214 0.851 . S
C865 C76 0.842 . S
C879 N324 0.394 . S
C883 N94 0.440 . S
C897 N347 0.445 . S
C901 N117 0.404 . S
C915 N278 0.380 . S
C919 N140 0.407 . S
C933 N301 0.392 . S
C937 N163 0.445 . S
