# Generated by pormake.
# Topology umf, (4)-cn, num edge types: 1
# Building blocks:
#     Node 0, Type 0, BuildingBlock: KOZSID_clean_sbu_0, # of connection points: 4
#     Node 1, Type 0, BuildingBlock: KOZSID_clean_sbu_0, # of connection points: 4
#     Node 2, Type 0, BuildingBlock: KOZSID_clean_sbu_0, # of connection points: 4
#     Node 3, Type 0, BuildingBlock: KOZSID_clean_sbu_0, # of connection points: 4
#     Node 4, Type 0, BuildingBlock: KOZSID_clean_sbu_0, # of connection points: 4
#     Node 5, Type 0, BuildingBlock: KOZSID_clean_sbu_0, # of connection points: 4
#     Node 6, Type 0, BuildingBlock: KOZSID_clean_sbu_0, # of connection points: 4
#     Node 7, Type 0, BuildingBlock: KOZSID_clean_sbu_0, # of connection points: 4
#     Edge 8, Type (0, 0), BuildingBlock: TEMPAE_clean_linker_10, # of connection points: 2
#     Edge 9, Type (0, 0), BuildingBlock: TEMPAE_clean_linker_10, # of connection points: 2
#     Edge 10, Type (0, 0), BuildingBlock: TEMPAE_clean_linker_10, # of connection points: 2
#     Edge 11, Type (0, 0), BuildingBlock: TEMPAE_clean_linker_10, # of connection points: 2
#     Edge 12, Type (0, 0), BuildingBlock: TEMPAE_clean_linker_10, # of connection points: 2
#     Edge 13, Type (0, 0), BuildingBlock: TEMPAE_clean_linker_10, # of connection points: 2
#     Edge 14, Type (0, 0), BuildingBlock: TEMPAE_clean_linker_10, # of connection points: 2
#     Edge 15, Type (0, 0), BuildingBlock: TEMPAE_clean_linker_10, # of connection points: 2
#     Edge 16, Type (0, 0), BuildingBlock: TEMPAE_clean_linker_10, # of connection points: 2
#     Edge 17, Type (0, 0), BuildingBlock: TEMPAE_clean_linker_10, # of connection points: 2
#     Edge 18, Type (0, 0), BuildingBlock: TEMPAE_clean_linker_10, # of connection points: 2
#     Edge 19, Type (0, 0), BuildingBlock: TEMPAE_clean_linker_10, # of connection points: 2
#     Edge 20, Type (0, 0), BuildingBlock: TEMPAE_clean_linker_10, # of connection points: 2
#     Edge 21, Type (0, 0), BuildingBlock: TEMPAE_clean_linker_10, # of connection points: 2
#     Edge 22, Type (0, 0), BuildingBlock: TEMPAE_clean_linker_10, # of connection points: 2
#     Edge 23, Type (0, 0), BuildingBlock: TEMPAE_clean_linker_10, # of connection points: 2
# Relax obj value: 0.077
# Max RMSD: 0.190
# Mean RMSD: 0.190
data_MOF--net-umf--node1-KOZSID_clean_sbu_0--edge1-TEMPAE_clean_linker_10
_symmetry_space_group_name_H-M    P1
_symmetry_Int_Tables_number       1
_symmetry_cell_setting            triclinic
loop_
_symmetry_equiv_pos_as_xyz
'x, y, z'
_cell_length_a     38.451367
_cell_length_b     38.457578
_cell_length_c     59.54853
_cell_angle_alpha  90.003764
_cell_angle_beta   90.000465
_cell_angle_gamma 90.004149
loop_
_atom_site_label
_atom_site_type_symbol
_atom_site_fract_x
_atom_site_fract_y
_atom_site_fract_z
_atom_type_partial_charge
C0 C 0.11235 0.23783 0.18102 0.0
C1 C 0.14785 0.23984 0.18506 0.0
C2 C 0.16212 0.25733 0.1672 0.0
C3 C 0.1347 0.2649 0.15324 0.0
N4 N 0.10416 0.25333 0.16128 0.0
Co5 Co 0.05855 0.25756 0.1461 0.0
N6 N 0.08083 0.26284 0.11634 0.0
C7 C 0.11373 0.27361 0.11292 0.0
C8 C 0.1216 0.27774 0.09062 0.0
C9 C 0.09171 0.26927 0.07934 0.0
C10 C 0.06717 0.26001 0.09544 0.0
N11 N 0.01304 0.26223 0.13083 0.0
C12 C 1.00467 0.25804 0.10877 0.0
C13 C 0.969 0.26164 0.10589 0.0
C14 C 0.9552 0.26951 0.12662 0.0
C15 C 0.98288 0.26986 0.14121 0.0
N16 N 0.03735 0.25144 0.17615 0.0
C17 C 1.0048 0.26047 0.18184 0.0
C18 C 0.99695 0.25088 0.20355 0.0
C19 C 0.02645 0.23483 0.21179 0.0
C20 C 0.05073 0.23535 0.19462 0.0
N21 N 0.05885 0.30908 0.15009 0.0
C22 C 0.04616 0.38142 0.15583 0.0
C23 C 0.05556 0.36011 0.17409 0.0
C24 C 0.06239 0.32428 0.17081 0.0
C25 C 0.04467 0.36576 0.13462 0.0
C26 C 0.05061 0.32995 0.13217 0.0
N27 N 0.05594 0.20679 0.14205 0.0
C28 C 0.01983 0.15556 0.14332 0.0
C29 C 0.04715 0.13486 0.13582 0.0
C30 C 0.07957 0.15068 0.13185 0.0
C31 C 0.08335 0.18695 0.13488 0.0
C32 C 0.02478 0.19098 0.14649 0.0
H33 H 0.10815 0.19899 0.13136 0.0
H34 H 1.00289 0.20554 0.15251 0.0
H35 H 0.06931 0.30865 0.1852 0.0
H36 H 0.04685 0.31907 0.1157 0.0
C37 C 0.13746 0.27522 0.13076 0.0
C38 C 0.08687 0.22222 0.19642 0.0
C39 C 0.03033 0.25259 0.0904 0.0
C40 C 0.98084 0.26983 0.16493 0.0
H41 H 0.16206 0.22942 0.19922 0.0
H42 H 0.18947 0.26198 0.16413 0.0
H43 H 0.14624 0.28546 0.08338 0.0
H44 H 0.08826 0.27077 0.06133 0.0
H45 H 0.95419 0.25848 0.0906 0.0
H46 H 0.92796 0.27265 0.13072 0.0
H47 H 0.97213 0.25327 0.21197 0.0
H48 H 0.02963 0.2237 0.22836 0.0
H49 H 0.05744 0.37099 0.19081 0.0
H50 H 0.03732 0.38084 0.12001 0.0
H51 H 0.99456 0.14433 0.14686 0.0
H52 H 0.10144 0.13535 0.12609 0.0
C53 C 0.7773 0.1119 0.68147 0.0
C54 C 0.77427 0.14723 0.68571 0.0
C55 C 0.75654 0.16121 0.66782 0.0
C56 C 0.74974 0.13371 0.65373 0.0
N57 N 0.76197 0.10343 0.66174 0.0
Co58 Co 0.75903 0.05779 0.64655 0.0
N59 N 0.7537 0.07998 0.61677 0.0
C60 C 0.74225 0.11265 0.6133 0.0
C61 C 0.73835 0.12047 0.59098 0.0
C62 C 0.74766 0.0908 0.57973 0.0
C63 C 0.75714 0.06641 0.59588 0.0
N64 N 0.75582 0.01218 0.63128 0.0
C65 C 0.76037 1.00394 0.60923 0.0
C66 C 0.75764 0.9682 0.60631 0.0
C67 C 0.74996 0.95419 0.62701 0.0
C68 C 0.74885 0.98184 0.64161 0.0
N69 N 0.76505 0.03676 0.67666 0.0
C70 C 0.75671 1.00402 0.68231 0.0
C71 C 0.76624 0.99641 0.70407 0.0
C72 C 0.78154 0.02626 0.71238 0.0
C73 C 0.78062 0.05051 0.6952 0.0
N74 N 0.70742 0.05685 0.65011 0.0
C75 C 0.6351 0.04305 0.65516 0.0
C76 C 0.65583 0.05305 0.67358 0.0
C77 C 0.69166 0.06038 0.67065 0.0
C78 C 0.65138 0.04143 0.63415 0.0
C79 C 0.68714 0.04795 0.63203 0.0
N80 N 0.80991 0.05653 0.64286 0.0
C81 C 0.8624 0.02238 0.64518 0.0
C82 C 0.88221 0.05022 0.63749 0.0
C83 C 0.86531 0.08176 0.63269 0.0
C84 C 0.82891 0.08435 0.63541 0.0
C85 C 0.82668 0.02606 0.64781 0.0
H86 H 0.81609 0.10859 0.63145 0.0
H87 H 0.81268 1.00381 0.65385 0.0
H88 H 0.70682 0.06774 0.68517 0.0
H89 H 0.69849 0.04419 0.61571 0.0
C90 C 0.73973 0.1363 0.63117 0.0
C91 C 0.79344 0.08677 0.69682 0.0
C92 C 0.76527 0.02971 0.59087 0.0
C93 C 0.74842 0.9798 0.66532 0.0
H94 H 0.78414 0.1614 0.70006 0.0
H95 H 0.75121 0.18846 0.66484 0.0
H96 H 0.73021 0.14494 0.58371 0.0
H97 H 0.74653 0.08736 0.56172 0.0
H98 H 0.76116 0.95353 0.591 0.0
H99 H 0.74735 0.92688 0.63108 0.0
H100 H 0.76444 0.97151 0.71246 0.0
H101 H 0.79259 0.02961 0.72895 0.0
H102 H 0.64449 0.05507 0.69018 0.0
H103 H 0.63685 0.03358 0.61941 0.0
H104 H 0.87454 0.9977 0.64916 0.0
H105 H 0.87998 0.10395 0.62672 0.0
C106 C 0.90433 0.78124 0.1823 0.0
C107 C 0.86887 0.77946 0.18645 0.0
C108 C 0.85435 0.76227 0.16853 0.0
C109 C 0.88166 0.75454 0.15449 0.0
N110 N 0.91234 0.7657 0.16255 0.0
Co111 Co 0.95793 0.76093 0.14747 0.0
N112 N 0.93568 0.75626 0.11766 0.0
C113 C 0.90263 0.74601 0.11414 0.0
C114 C 0.89479 0.74227 0.09181 0.0
C115 C 0.92484 0.75042 0.08062 0.0
C116 C 0.94948 0.75911 0.0968 0.0
N117 N 1.00344 0.75578 0.13229 0.0
C118 C 0.01196 0.75997 0.11026 0.0
C119 C 0.04758 0.75583 0.10742 0.0
C120 C 0.06118 0.74763 0.12815 0.0
C121 C 0.03344 0.74763 0.1427 0.0
N122 N 0.97905 0.76638 0.17761 0.0
C123 C 0.01143 0.75682 0.18334 0.0
C124 C 0.01927 0.76604 0.20512 0.0
C125 C 0.98996 0.78242 0.21336 0.0
C126 C 0.96577 0.78242 0.19613 0.0
N127 N 0.95692 0.70936 0.15122 0.0
C128 C 0.96918 0.63687 0.1566 0.0
C129 C 0.95992 0.65803 0.17496 0.0
C130 C 0.95328 0.69395 0.17186 0.0
C131 C 0.9707 0.65275 0.13547 0.0
C132 C 0.96496 0.68862 0.13319 0.0
N133 N 0.96128 0.81169 0.14361 0.0
C134 C 0.99823 0.8623 0.14493 0.0
C135 C 0.97149 0.88338 0.13697 0.0
C136 C 0.93885 0.86806 0.13289 0.0
C137 C 0.93436 0.83192 0.13613 0.0
C138 C 0.99259 0.82702 0.14828 0.0
H139 H 0.90943 0.82026 0.13245 0.0
H140 H 0.01411 0.81215 0.15453 0.0
H141 H 0.9465 0.70946 0.18634 0.0
H142 H 0.96879 0.69965 0.11678 0.0
C143 C 0.87881 0.74449 0.13195 0.0
C144 C 0.92993 0.79639 0.19774 0.0
C145 C 0.98646 0.76594 0.09186 0.0
C146 C 0.03536 0.74736 0.16642 0.0
H147 H 0.85497 0.78976 0.20079 0.0
H148 H 0.82695 0.75786 0.1655 0.0
H149 H 0.87007 0.73499 0.0845 0.0
H150 H 0.92834 0.74908 0.06261 0.0
H151 H 0.06247 0.75879 0.09215 0.0
H152 H 0.08835 0.74401 0.13228 0.0
H153 H 0.04402 0.76323 0.21358 0.0
H154 H 0.98688 0.79349 0.22995 0.0
H155 H 0.95801 0.64698 0.19164 0.0
H156 H 0.97795 0.63781 0.12077 0.0
H157 H 0.02363 0.8731 0.14865 0.0
H158 H 0.91738 0.88365 0.12681 0.0
C159 C 0.2343 0.90282 0.68285 0.0
C160 C 0.23357 0.86741 0.68728 0.0
C161 C 0.24794 0.85129 0.66896 0.0
C162 C 0.25669 0.87767 0.65446 0.0
N163 N 0.249 0.90935 0.66261 0.0
Co164 Co 0.25647 0.95432 0.64701 0.0
N165 N 0.25828 0.93131 0.61718 0.0
C166 C 0.26208 0.89691 0.6136 0.0
C167 C 0.25888 0.88787 0.59145 0.0
C168 C 0.25335 0.91849 0.58032 0.0
C169 C 0.25445 0.94489 0.59628 0.0
N170 N 0.26465 0.99915 0.63145 0.0
C171 C 0.26363 1.00722 0.60919 0.0
C172 C 0.27394 0.04144 0.60587 0.0
C173 C 0.2817 0.05493 0.62668 0.0
C174 C 0.27597 0.02833 0.64163 0.0
N175 N 0.25325 0.97637 0.67709 0.0
C176 C 0.26505 1.00817 0.68243 0.0
C177 C 0.25714 0.01704 0.70426 0.0
C178 C 0.23925 0.98901 0.713 0.0
C179 C 0.23715 0.96452 0.69601 0.0
N180 N 0.30797 0.94988 0.65023 0.0
C181 C 0.38055 0.96213 0.65509 0.0
C182 C 0.35942 0.95448 0.67375 0.0
C183 C 0.32352 0.94768 0.67092 0.0
C184 C 0.36475 0.96123 0.63389 0.0
C185 C 0.3288 0.95541 0.63184 0.0
N186 N 0.20593 0.96111 0.64372 0.0
C187 C 0.15778 1.00119 0.6456 0.0
C188 C 0.13459 0.97574 0.63813 0.0
C189 C 0.14782 0.94216 0.63406 0.0
C190 C 0.18368 0.93542 0.63685 0.0
C191 C 0.19285 0.99344 0.64827 0.0
H192 H 0.19347 0.90968 0.63331 0.0
H193 H 0.20942 0.01409 0.65398 0.0
H194 H 0.30808 0.94236 0.68567 0.0
H195 H 0.31778 0.95756 0.6153 0.0
C196 C 0.26303 0.87348 0.63154 0.0
C197 C 0.22138 0.92955 0.69827 0.0
C198 C 0.25631 0.98233 0.59078 0.0
C199 C 0.27641 0.03081 0.6653 0.0
H200 H 0.22303 0.85457 0.70196 0.0
H201 H 0.24941 0.82358 0.66592 0.0
H202 H 0.25916 0.86199 0.58431 0.0
H203 H 0.24946 0.92087 0.5624 0.0
H204 H 0.27624 0.05507 0.59005 0.0
H205 H 0.28992 0.0812 0.63044 0.0
H206 H 0.26206 0.04164 0.71249 0.0
H207 H 0.22874 0.98693 0.7298 0.0
H208 H 0.37045 0.9542 0.69047 0.0
H209 H 0.37974 0.96691 0.61893 0.0
H210 H 0.14887 0.02721 0.64955 0.0
H211 H 0.1308 0.92154 0.62835 0.0
C212 C 0.11297 0.77878 0.83346 0.0
C213 C 0.14858 0.77632 0.82992 0.0
C214 C 0.16203 0.7587 0.84799 0.0
C215 C 0.13408 0.75154 0.86159 0.0
N216 N 0.10395 0.7635 0.85314 0.0
Co217 Co 0.05786 0.76021 0.8678 0.0
N218 N 0.07921 0.75463 0.89783 0.0
C219 C 0.11178 0.74322 0.90166 0.0
C220 C 0.11896 0.73906 0.92404 0.0
C221 C 0.08894 0.74817 0.93496 0.0
C222 C 0.06504 0.75783 0.91856 0.0
N223 N 0.01185 0.75675 0.88254 0.0
C224 C 1.00298 0.76122 0.9045 0.0
C225 C 0.96718 0.7584 0.907 0.0
C226 C 0.95375 0.75077 0.88613 0.0
C227 C 0.9818 0.74978 0.87185 0.0
N228 N 0.03763 0.76635 0.83747 0.0
C229 C 1.00509 0.7578 0.83143 0.0
C230 C 0.99803 0.76726 0.80958 0.0
C231 C 0.02801 0.78272 0.80163 0.0
C232 C 0.05178 0.78201 0.8191 0.0
N233 N 0.05729 0.70866 0.864 0.0
C234 C 0.04433 0.63634 0.85843 0.0
C235 C 0.05466 0.65734 0.84024 0.0
C236 C 0.0616 0.69317 0.84343 0.0
C237 C 0.04191 0.65232 0.87951 0.0
C238 C 0.04799 0.68812 0.88187 0.0
N239 N 0.0562 0.81104 0.87171 0.0
C240 C 0.02215 0.86347 0.86849 0.0
C241 C 0.049 0.88314 0.87762 0.0
C242 C 0.07999 0.86619 0.88372 0.0
C243 C 0.08312 0.82992 0.88053 0.0
C244 C 0.02615 0.82781 0.86578 0.0
H245 H 0.10702 0.8171 0.88529 0.0
H246 H 1.00443 0.81385 0.85896 0.0
H247 H 0.06931 0.70855 0.82909 0.0
H248 H 0.04361 0.69926 0.89819 0.0
C249 C 0.13599 0.74121 0.88411 0.0
C250 C 0.08815 0.79457 0.81765 0.0
C251 C 0.02826 0.7661 0.92315 0.0
C252 C 0.98044 0.74936 0.84812 0.0
H253 H 0.16344 0.78652 0.81599 0.0
H254 H 0.18922 0.7537 0.85144 0.0
H255 H 0.14325 0.73093 0.93158 0.0
H256 H 0.08498 0.74688 0.95293 0.0
H257 H 0.95209 0.76181 0.92215 0.0
H258 H 0.92657 0.7481 0.88175 0.0
H259 H 0.97339 0.76525 0.8009 0.0
H260 H 0.03183 0.79362 0.78506 0.0
H261 H 0.05724 0.64619 0.82362 0.0
H262 H 0.03381 0.63749 0.89406 0.0
H263 H 0.99786 0.87563 0.86361 0.0
H264 H 0.10141 0.88075 0.89085 0.0
C265 C 0.23466 0.1146 0.33017 0.0
C266 C 0.23413 0.1499 0.32539 0.0
C267 C 0.24886 0.16634 0.34347 0.0
C268 C 0.25755 0.14026 0.3582 0.0
N269 N 0.2495 0.10845 0.35041 0.0
Co270 Co 0.25663 0.06382 0.36648 0.0
N271 N 0.25885 0.08756 0.39606 0.0
C272 C 0.26295 0.12201 0.39926 0.0
C273 C 0.25994 0.13164 0.42132 0.0
C274 C 0.25423 0.10136 0.43279 0.0
C275 C 0.25504 0.07454 0.4171 0.0
N276 N 0.26463 0.01934 0.3825 0.0
C277 C 0.26371 0.01184 0.40484 0.0
C278 C 0.27386 0.97765 0.4085 0.0
C279 C 0.28138 0.96359 0.38781 0.0
C280 C 0.27569 0.98984 0.3726 0.0
N281 N 0.25286 0.041 0.33669 0.0
C282 C 0.26423 0.00894 0.33165 0.0
C283 C 0.2559 0.99955 0.30998 0.0
C284 C 0.23816 0.02752 0.30103 0.0
C285 C 0.23655 0.05248 0.31775 0.0
N286 N 0.30813 0.06774 0.36304 0.0
C287 C 0.38067 0.05516 0.35808 0.0
C288 C 0.3594 0.06246 0.33941 0.0
C289 C 0.32352 0.06937 0.34228 0.0
C290 C 0.36498 0.05653 0.37931 0.0
C291 C 0.32907 0.06252 0.38141 0.0
N292 N 0.20605 0.05758 0.36998 0.0
C293 C 0.15754 0.01784 0.36917 0.0
C294 C 0.1345 0.04426 0.37518 0.0
C295 C 0.1479 0.078 0.37812 0.0
C296 C 0.18394 0.08407 0.37566 0.0
C297 C 0.19274 0.02501 0.36649 0.0
H298 H 0.19392 0.10997 0.3784 0.0
H299 H 0.20917 1.00379 0.36154 0.0
H300 H 0.30798 0.07438 0.32753 0.0
H301 H 0.31816 0.0608 0.398 0.0
C302 C 0.26403 0.14497 0.38106 0.0
C303 C 0.2212 0.08758 0.31515 0.0
C304 C 0.25657 0.03722 0.423 0.0
C305 C 0.27572 0.98669 0.34896 0.0
H306 H 0.22345 0.1625 0.31067 0.0
H307 H 0.25053 0.19411 0.34624 0.0
H308 H 0.26047 0.15771 0.42818 0.0
H309 H 0.2504 0.09948 0.45073 0.0
H310 H 0.27617 0.96439 0.42445 0.0
H311 H 0.28936 0.93716 0.3843 0.0
H312 H 0.26048 0.9747 0.30198 0.0
H313 H 0.22746 0.0293 0.28426 0.0
H314 H 0.3703 0.0624 0.32265 0.0
H315 H 0.38002 0.0511 0.39428 0.0
H316 H 0.14833 0.99158 0.3663 0.0
H317 H 0.13086 0.09927 0.38269 0.0
C318 C 0.90184 0.2368 0.83246 0.0
C319 C 0.86609 0.23792 0.82924 0.0
C320 C 0.8523 0.25443 0.84762 0.0
C321 C 0.88021 0.2623 0.86108 0.0
N322 N 0.91064 0.25181 0.85227 0.0
Co323 Co 0.95686 0.25681 0.8666 0.0
N324 N 0.93588 0.261 0.89684 0.0
C325 C 0.90292 0.27096 0.901 0.0
C326 C 0.89601 0.27461 0.92346 0.0
C327 C 0.9266 0.26669 0.93409 0.0
C328 C 0.95057 0.2582 0.91745 0.0
N329 N 1.00297 0.26199 0.88103 0.0
C330 C 0.01243 0.2576 0.90289 0.0
C331 C 0.04813 0.26188 0.90514 0.0
C332 C 0.06083 0.27036 0.88421 0.0
C333 C 0.03249 0.27038 0.87015 0.0
N334 N 0.97674 0.25208 0.83604 0.0
C335 C 0.00877 0.26216 0.82984 0.0
C336 C 0.01575 0.25371 0.80781 0.0
C337 C 0.98624 0.23734 0.79989 0.0
C338 C 0.96282 0.23651 0.81755 0.0
N339 N 0.95532 0.30842 0.86315 0.0
C340 C 0.96732 0.38095 0.85784 0.0
C341 C 0.95724 0.35999 0.83958 0.0
C342 C 0.95072 0.32405 0.84266 0.0
C343 C 0.96972 0.3649 0.87888 0.0
C344 C 0.96413 0.329 0.88112 0.0
N345 N 0.96086 0.20601 0.87019 0.0
C346 C 0.9982 0.15586 0.86731 0.0
C347 C 0.9734 0.13468 0.87759 0.0
C348 C 0.9412 0.14978 0.88334 0.0
C349 C 0.93548 0.18566 0.87956 0.0
C350 C 0.99157 0.19093 0.8639 0.0
H351 H 0.91098 0.19709 0.88452 0.0
H352 H 0.01206 0.20592 0.85645 0.0
H353 H 0.94328 0.30869 0.82825 0.0
H354 H 0.96872 0.31782 0.8974 0.0
C355 C 0.87832 0.27218 0.88367 0.0
C356 C 0.9269 0.22269 0.81616 0.0
C357 C 0.98775 0.25145 0.92172 0.0
C358 C 0.03337 0.2713 0.84642 0.0
H359 H 0.85138 0.2276 0.81526 0.0
H360 H 0.82501 0.2583 0.85131 0.0
H361 H 0.87156 0.28164 0.93122 0.0
H362 H 0.93085 0.26803 0.95202 0.0
H363 H 0.06364 0.25889 0.92015 0.0
H364 H 0.08779 0.27426 0.87964 0.0
H365 H 0.04008 0.25708 0.79894 0.0
H366 H 0.98249 0.22691 0.78318 0.0
H367 H 0.95464 0.37121 0.82299 0.0
H368 H 0.97758 0.37974 0.89349 0.0
H369 H 0.02304 0.14544 0.86196 0.0
H370 H 0.92107 0.13431 0.8912 0.0
C371 C 0.77757 0.90572 0.33157 0.0
C372 C 0.77518 0.8702 0.32771 0.0
C373 C 0.75782 0.85629 0.34574 0.0
C374 C 0.75072 0.88391 0.35963 0.0
N375 N 0.76245 0.91426 0.35139 0.0
Co376 Co 0.75908 0.96003 0.36646 0.0
N377 N 0.75409 0.93805 0.39634 0.0
C378 C 0.7431 0.90528 0.39996 0.0
C379 C 0.7394 0.8976 0.42232 0.0
C380 C 0.74836 0.92748 0.43343 0.0
C381 C 0.75745 0.95184 0.41717 0.0
N382 N 0.75525 1.00572 0.38159 0.0
C383 C 0.7597 0.01421 0.40361 0.0
C384 C 0.75638 0.04992 0.40641 0.0
C385 C 0.74845 0.06364 0.38568 0.0
C386 C 0.74776 0.03587 0.37116 0.0
N387 N 0.76493 0.98091 0.3363 0.0
C388 C 0.75624 0.01352 0.33056 0.0
C389 C 0.76564 0.0211 0.30877 0.0
C390 C 0.78122 0.99136 0.30054 0.0
C391 C 0.78064 0.96721 0.31778 0.0
N392 N 0.70746 0.96036 0.36289 0.0
C393 C 0.63512 0.97395 0.35778 0.0
C394 C 0.65593 0.9642 0.33936 0.0
C395 C 0.69177 0.95694 0.34232 0.0
C396 C 0.65128 0.97535 0.37884 0.0
C397 C 0.68706 0.96895 0.38098 0.0
N398 N 0.80996 0.96199 0.37012 0.0
C399 C 0.86168 0.99735 0.36839 0.0
C400 C 0.88212 0.96978 0.37579 0.0
C401 C 0.86591 0.93762 0.37996 0.0
C402 C 0.82954 0.93435 0.37721 0.0
C403 C 0.82612 0.9929 0.36549 0.0
H404 H 0.81721 0.90975 0.38088 0.0
H405 H 0.81175 0.01495 0.35954 0.0
H406 H 0.707 0.94977 0.32779 0.0
H407 H 0.69834 0.97265 0.39734 0.0
C408 C 0.74087 0.88145 0.38221 0.0
C409 C 0.79328 0.9309 0.31599 0.0
C410 C 0.76511 0.98868 0.42204 0.0
C411 C 0.74744 0.03772 0.34745 0.0
H412 H 0.78531 0.85569 0.3136 0.0
H413 H 0.75301 0.82901 0.34898 0.0
H414 H 0.73162 0.87308 0.4297 0.0
H415 H 0.74728 0.93107 0.45144 0.0
H416 H 0.7597 0.06476 0.42167 0.0
H417 H 0.74542 0.09087 0.38152 0.0
H418 H 0.76344 0.04589 0.30029 0.0
H419 H 0.79209 0.98792 0.28392 0.0
H420 H 0.64467 0.96236 0.32273 0.0
H421 H 0.63665 0.98298 0.39358 0.0
H422 H 0.87322 0.02244 0.36472 0.0
H423 H 0.88102 0.91557 0.38567 0.0
C424 C 0.05115 0.44476 0.1444 0.0
C425 C 0.03667 0.41932 0.15856 0.0
C426 C 0.04068 0.48001 0.14549 0.0
C427 C 0.01419 0.49046 0.16069 0.0
C428 C 0.99962 0.46489 0.17514 0.0
C429 C 0.01128 0.42994 0.17411 0.0
C430 C 0.05779 0.50606 0.13009 0.0
C431 C 0.97078 0.47421 0.19123 0.0
C432 C 1.00382 0.58801 0.17469 0.0
C433 C 0.97857 0.59891 0.15913 0.0
C434 C 0.01546 0.55303 0.17551 0.0
C435 C 1.00102 0.52773 0.16081 0.0
C436 C 0.97465 0.53845 0.1456 0.0
C437 C 0.96419 0.57371 0.14474 0.0
C438 C 0.04416 0.54342 0.19163 0.0
C439 C 0.95767 0.51267 0.12995 0.0
H440 H 0.07082 0.43702 0.13235 0.0
H441 H 0.99952 0.41056 0.18493 0.0
H442 H 0.0384 0.51642 0.11804 0.0
H443 H 0.06778 0.52841 0.13997 0.0
H444 H 0.07966 0.49453 0.12044 0.0
H445 H 0.96255 0.45172 0.20166 0.0
H446 H 0.97924 0.49554 0.20251 0.0
H447 H 0.94794 0.48383 0.18168 0.0
H448 H 0.01552 0.60719 0.18568 0.0
H449 H 0.94462 0.58166 0.13269 0.0
H450 H 0.06709 0.53399 0.18209 0.0
H451 H 0.03561 0.52187 0.2027 0.0
H452 H 0.05229 0.56571 0.20226 0.0
H453 H 0.97717 0.50254 0.11788 0.0
H454 H 0.93588 0.52438 0.12031 0.0
H455 H 0.9476 0.49015 0.13961 0.0
C456 C 0.42834 0.99947 0.67204 0.0
C457 C 0.41829 0.97254 0.65743 0.0
C458 C 0.46311 0.01171 0.67284 0.0
C459 C 0.48912 0.99618 0.65914 0.0
C460 C 0.47923 0.96825 0.64487 0.0
C461 C 0.44412 0.95721 0.64396 0.0
C462 C 0.47178 0.04208 0.68786 0.0
C463 C 0.50578 0.95014 0.63033 0.0
C464 C 0.57219 0.04591 0.64236 0.0
C465 C 0.5972 0.03312 0.6575 0.0
C466 C 0.53706 0.03496 0.64314 0.0
C467 C 0.52626 0.00975 0.65913 0.0
C468 C 0.55135 0.99695 0.6746 0.0
C469 C 0.58619 0.00902 0.67378 0.0
C470 C 0.51151 0.0502 0.62662 0.0
C471 C 0.54164 0.96959 0.69163 0.0
H472 H 0.40865 0.0119 0.6823 0.0
H473 H 0.43683 0.93637 0.63264 0.0
H474 H 0.49284 0.03486 0.6997 0.0
H475 H 0.48153 0.06406 0.67755 0.0
H476 H 0.44895 0.05111 0.69768 0.0
H477 H 0.49464 0.9274 0.62135 0.0
H478 H 0.51626 0.96859 0.61773 0.0
H479 H 0.52797 0.94118 0.64075 0.0
H480 H 0.58016 0.06464 0.62977 0.0
H481 H 0.6052 0.99855 0.6854 0.0
H482 H 0.48868 0.06095 0.63568 0.0
H483 H 0.50179 0.02953 0.61525 0.0
H484 H 0.52325 0.07115 0.61626 0.0
H485 H 0.51981 0.97889 0.70222 0.0
H486 H 0.56378 0.96256 0.70272 0.0
H487 H 0.53257 0.9458 0.68285 0.0
C488 C 1.00237 0.42963 0.83997 0.0
C489 C 0.97672 0.41888 0.85529 0.0
C490 C 0.01406 0.46459 0.83917 0.0
C491 C 0.99922 0.49002 0.85361 0.0
C492 C 0.97244 0.47942 0.86857 0.0
C493 C 0.96199 0.44416 0.86945 0.0
C494 C 0.04324 0.47405 0.82338 0.0
C495 C 0.95502 0.50534 0.88391 0.0
C496 C 0.04888 0.57316 0.87027 0.0
C497 C 0.03487 0.59843 0.85578 0.0
C498 C 0.03842 0.53791 0.86922 0.0
C499 C 0.01238 0.52729 0.85373 0.0
C500 C 0.99829 0.55269 0.83896 0.0
C501 C 0.00997 0.58764 0.83996 0.0
C502 C 0.05505 0.51203 0.88495 0.0
C503 C 0.96994 0.5432 0.82256 0.0
H504 H 0.01433 0.41034 0.82917 0.0
H505 H 0.94215 0.43626 0.88134 0.0
H506 H 0.03503 0.49546 0.81209 0.0
H507 H 0.06587 0.4836 0.83317 0.0
H508 H 0.05171 0.45164 0.81295 0.0
H509 H 0.93291 0.49373 0.89329 0.0
H510 H 0.97414 0.51553 0.8962 0.0
H511 H 0.94529 0.52781 0.87404 0.0
H512 H 0.06817 0.58105 0.88252 0.0
H513 H 0.99858 0.6069 0.82889 0.0
H514 H 0.0653 0.48955 0.87531 0.0
H515 H 0.0353 0.50184 0.89682 0.0
H516 H 0.07665 0.52366 0.8948 0.0
H517 H 0.97873 0.52178 0.81147 0.0
H518 H 0.96199 0.56558 0.81195 0.0
H519 H 0.94682 0.53364 0.83187 0.0
C520 C 0.44417 0.05941 0.36957 0.0
C521 C 0.41842 0.04471 0.35572 0.0
C522 C 0.47925 0.04829 0.36864 0.0
C523 C 0.48923 0.021 0.35391 0.0
C524 C 0.46335 1.00616 0.3398 0.0
C525 C 0.42859 0.01841 0.34067 0.0
C526 C 0.50565 0.06565 0.38367 0.0
C527 C 0.47215 0.97651 0.32422 0.0
C528 C 0.58647 0.00876 0.33954 0.0
C529 C 0.59725 0.98392 0.35541 0.0
C530 C 0.55165 0.02089 0.33876 0.0
C531 C 0.52635 1.00738 0.35384 0.0
C532 C 0.53694 0.98143 0.36938 0.0
C533 C 0.57206 0.97045 0.37017 0.0
C534 C 0.54218 0.04906 0.32223 0.0
C535 C 0.51115 0.96542 0.38545 0.0
H536 H 0.43683 0.07981 0.3812 0.0
H537 H 0.40901 1.00645 0.3301 0.0
H538 H 0.516 0.04657 0.39593 0.0
H539 H 0.52796 0.07511 0.37354 0.0
H540 H 0.49445 0.08794 0.39307 0.0
H541 H 0.44943 0.96801 0.31409 0.0
H542 H 0.49339 0.98424 0.31265 0.0
H543 H 0.48171 0.95402 0.33414 0.0
H544 H 0.60564 0.01975 0.32824 0.0
H545 H 0.57989 0.95118 0.38245 0.0
H546 H 0.53305 0.07244 0.33144 0.0
H547 H 0.52046 0.04031 0.31136 0.0
H548 H 0.56447 0.05657 0.3114 0.0
H549 H 0.50134 0.98554 0.3972 0.0
H550 H 0.52274 0.94395 0.39544 0.0
H551 H 0.48842 0.95516 0.37607 0.0
C552 C 0.0211 0.26964 0.95671 0.0
C553 C 0.99894 0.24605 0.94578 0.0
C554 C 0.02713 0.26761 0.98007 0.0
C555 C 0.00863 0.24305 0.99329 0.0
C556 C 0.98617 0.21921 0.98234 0.0
C557 C 0.98247 0.22034 0.95878 0.0
C558 C 0.05254 0.29265 0.99063 0.0
C559 C 0.96422 0.194 0.99562 0.0
C560 C 0.03785 0.22186 0.05334 0.0
C561 C 0.02031 0.24709 0.06613 0.0
C562 C 0.0346 0.2204 0.02975 0.0
C563 C 0.01156 0.24338 0.01855 0.0
C564 C 0.99222 0.2676 0.03153 0.0
C565 C 0.99779 0.27002 0.05492 0.0
C566 C 0.05745 0.19566 0.01673 0.0
C567 C 0.96625 0.29176 0.02069 0.0
H568 H 0.03279 0.29062 0.94722 0.0
H569 H 0.96476 0.20244 0.95058 0.0
H570 H 0.0381 0.31398 0.999 0.0
H571 H 0.06856 0.27942 1.00357 0.0
H572 H 0.07014 0.30439 0.97793 0.0
H573 H 0.9483 0.1769 0.98464 0.0
H574 H 0.98082 0.17744 0.00644 0.0
H575 H 0.94651 0.20871 0.00688 0.0
H576 H 0.05587 0.2045 0.06174 0.0
H577 H 0.98533 0.29074 0.06423 0.0
H578 H 0.07459 0.2107 1.00529 0.0
H579 H 0.04143 0.17823 1.00611 0.0
H580 H 0.07398 0.17944 0.02787 0.0
H581 H 0.9802 0.31315 0.01205 0.0
H582 H 0.94838 0.30347 0.03325 0.0
H583 H 0.95053 0.27778 0.00792 0.0
C584 C 0.79579 0.03723 0.55374 0.0
C585 C 0.77066 0.01967 0.56661 0.0
C586 C 0.79714 0.03383 0.53016 0.0
C587 C 0.77403 0.0108 0.51905 0.0
C588 C 0.74992 0.99147 0.53211 0.0
C589 C 0.74772 0.99703 0.55551 0.0
C590 C 0.82194 0.05648 0.51704 0.0
C591 C 0.72565 0.96553 0.52134 0.0
C592 C 0.74732 0.02126 0.45738 0.0
C593 C 0.77055 0.99896 0.44625 0.0
C594 C 0.74955 0.0269 0.48077 0.0
C595 C 0.77401 1.00798 0.49379 0.0
C596 C 0.79743 0.9853 0.48266 0.0
C597 C 0.79601 0.98184 0.45909 0.0
C598 C 0.72491 0.05246 0.49157 0.0
C599 C 0.82263 0.96305 0.49574 0.0
H600 H 0.81316 0.05531 0.56207 0.0
H601 H 0.72716 0.98449 0.56493 0.0
H602 H 0.83906 0.04032 0.5063 0.0
H603 H 0.80692 0.07382 0.50571 0.0
H604 H 0.83847 0.0728 0.52813 0.0
H605 H 0.71347 0.94808 0.53396 0.0
H606 H 0.70463 0.9795 0.51235 0.0
H607 H 0.73973 0.94938 0.50885 0.0
H608 H 0.72651 0.03346 0.44799 0.0
H609 H 0.81361 0.964 0.45073 0.0
H610 H 0.73878 0.06884 0.50404 0.0
H611 H 0.70414 0.03816 0.5006 0.0
H612 H 0.71241 0.0697 0.47896 0.0
H613 H 0.83951 0.97948 0.50647 0.0
H614 H 0.8394 0.94702 0.48463 0.0
H615 H 0.80793 0.94546 0.50708 0.0
C616 C 0.97986 0.797 0.05486 0.0
C617 C 0.99671 0.77128 0.06763 0.0
C618 C 0.98323 0.79843 0.03128 0.0
C619 C 1.00562 0.77481 0.02008 0.0
C620 C 0.02429 0.75007 0.03304 0.0
C621 C 0.01867 0.7478 0.05643 0.0
C622 C 0.96118 0.82388 0.01826 0.0
C623 C 0.04956 0.7252 0.02218 0.0
C624 C 0.99479 0.74892 0.95828 0.0
C625 C 0.0177 0.77172 0.94729 0.0
C626 C 0.98905 0.7511 0.98166 0.0
C627 C 1.00848 0.775 0.99482 0.0
C628 C 0.03171 0.79802 0.98382 0.0
C629 C 0.03525 0.79674 0.96025 0.0
C630 C 0.96287 0.72695 0.99231 0.0
C631 C 0.05452 0.82254 0.99705 0.0
H632 H 0.96229 0.8148 0.06326 0.0
H633 H 0.0306 0.72678 0.06576 0.0
H634 H 0.97774 0.84073 0.0076 0.0
H635 H 0.9435 0.80939 0.00687 0.0
H636 H 0.94524 0.84068 0.02942 0.0
H637 H 0.03501 0.70449 0.01327 0.0
H638 H 0.06593 0.73888 0.00962 0.0
H639 H 0.06683 0.71264 0.03475 0.0
H640 H 0.98224 0.72843 0.9488 0.0
H641 H 0.05353 0.814 0.952 0.0
H642 H 0.94702 0.74094 1.00501 0.0
H643 H 0.97664 0.70552 1.00101 0.0
H644 H 0.94514 0.71533 0.97963 0.0
H645 H 0.03849 0.83966 0.00786 0.0
H646 H 0.07094 0.83909 0.98602 0.0
H647 H 0.07178 0.8073 0.0083 0.0
C648 C 0.28447 0.04216 0.46135 0.0
C649 C 0.25933 0.0268 0.44738 0.0
C650 C 0.28431 0.03696 0.48477 0.0
C651 C 0.26028 0.01339 0.49448 0.0
C652 C 0.23664 0.99557 0.48018 0.0
C653 C 0.23592 1.00306 0.45693 0.0
C654 C 0.30936 0.05753 0.49908 0.0
C655 C 0.21209 0.96854 0.48943 0.0
C656 C 0.28448 0.97801 0.5525 0.0
C657 C 0.2593 0.99323 0.56651 0.0
C658 C 0.28438 0.98341 0.52911 0.0
C659 C 0.26033 1.00701 0.51946 0.0
C660 C 0.23669 0.02475 0.5338 0.0
C661 C 0.23594 0.01708 0.55703 0.0
C662 C 0.30942 0.96294 0.51473 0.0
C663 C 0.21214 0.05183 0.52462 0.0
H664 H 0.30347 0.05964 0.45403 0.0
H665 H 0.21684 0.99058 0.44623 0.0
H666 H 0.29602 0.06812 0.51414 0.0
H667 H 0.33062 0.04037 0.50497 0.0
H668 H 0.32119 0.07948 0.48965 0.0
H669 H 0.19788 0.95454 0.47593 0.0
H670 H 0.22671 0.94929 0.49964 0.0
H671 H 0.19279 0.98106 0.50065 0.0
H672 H 0.30341 0.96041 0.55978 0.0
H673 H 0.21681 0.02944 0.56776 0.0
H674 H 0.33026 0.9803 0.50847 0.0
H675 H 0.29586 0.95188 0.4999 0.0
H676 H 0.32181 0.94135 0.5242 0.0
H677 H 0.22674 0.07107 0.5144 0.0
H678 H 0.19802 0.06582 0.53815 0.0
H679 H 0.19278 0.03935 0.51343 0.0
C680 C 0.11614 0.21416 0.23415 0.0
C681 C 0.09949 0.19949 0.21542 0.0
C682 C 0.13391 0.19331 0.25004 0.0
C683 C 0.13494 0.15657 0.24746 0.0
C684 C 0.11685 0.14158 0.22901 0.0
C685 C 0.09969 0.16315 0.21319 0.0
C686 C 0.15285 0.21083 0.26913 0.0
C687 C 0.11651 0.10273 0.22557 0.0
C688 C 0.21206 0.10921 0.27542 0.0
C689 C 0.19788 0.09836 0.29599 0.0
C690 C 0.1917 0.12706 0.25927 0.0
C691 C 0.15603 0.13428 0.26357 0.0
C692 C 0.14133 0.12196 0.28398 0.0
C693 C 0.16243 0.10463 0.29995 0.0
C694 C 0.20892 0.13981 0.23805 0.0
C695 C 0.10356 0.12837 0.28942 0.0
H696 H 0.11656 0.24223 0.23581 0.0
H697 H 0.08733 0.15162 0.19862 0.0
H698 H 0.14402 0.20004 0.28543 0.0
H699 H 0.18115 0.20559 0.26775 0.0
H700 H 0.14876 0.23943 0.26927 0.0
H701 H 0.09923 0.09484 0.21151 0.0
H702 H 0.14324 0.09347 0.22192 0.0
H703 H 0.10777 0.08948 0.24114 0.0
H704 H 0.23961 0.10537 0.27249 0.0
H705 H 0.15145 0.09709 0.316 0.0
H706 H 0.20901 0.16866 0.23787 0.0
H707 H 0.19406 0.13104 0.22313 0.0
H708 H 0.23616 0.13049 0.2365 0.0
H709 H 0.09928 0.15657 0.29222 0.0
H710 H 0.0951 0.11407 0.30468 0.0
H711 H 0.08687 0.12043 0.27511 0.0
C712 C 0.89483 0.21623 0.77921 0.0
C713 C 0.91393 0.20097 0.79673 0.0
C714 C 0.8772 0.19578 0.76303 0.0
C715 C 0.87889 0.15889 0.76401 0.0
C716 C 0.89948 0.14344 0.78116 0.0
C717 C 0.91644 0.16456 0.79733 0.0
C718 C 0.85557 0.21377 0.74537 0.0
C719 C 0.90278 0.10445 0.78285 0.0
C720 C 0.80339 0.10814 0.7366 0.0
C721 C 0.81681 0.09994 0.71532 0.0
C722 C 0.8235 0.12639 0.7527 0.0
C723 C 0.85814 0.13676 0.74762 0.0
C724 C 0.87209 0.12741 0.72635 0.0
C725 C 0.85123 0.10959 0.71047 0.0
C726 C 0.80709 0.13586 0.77488 0.0
C727 C 0.90878 0.13724 0.72003 0.0
H728 H 0.89245 0.24431 0.77875 0.0
H729 H 0.93083 0.15252 0.81092 0.0
H730 H 0.8638 0.20531 0.72837 0.0
H731 H 0.82785 0.20634 0.74737 0.0
H732 H 0.85764 0.24254 0.74637 0.0
H733 H 0.9217 0.09644 0.79597 0.0
H734 H 0.87709 0.09293 0.78691 0.0
H735 H 0.91113 0.09347 0.76648 0.0
H736 H 0.77659 0.10155 0.74029 0.0
H737 H 0.86158 0.10395 0.69393 0.0
H738 H 0.80529 0.16457 0.77636 0.0
H739 H 0.82353 0.12655 0.78895 0.0
H740 H 0.7806 0.12469 0.77678 0.0
H741 H 0.91075 0.1659 0.71836 0.0
H742 H 0.91701 0.12518 0.70393 0.0
H743 H 0.92716 0.12919 0.73342 0.0
C744 C 0.85212 0.91888 0.29855 0.0
C745 C 0.8157 0.91797 0.2969 0.0
C746 C 0.87358 0.9017 0.28267 0.0
C747 C 0.85844 0.88251 0.26474 0.0
C748 C 0.8216 0.88243 0.26273 0.0
C749 C 0.80084 0.90025 0.27865 0.0
C750 C 0.91253 0.90327 0.28548 0.0
C751 C 0.80392 0.86229 0.24422 0.0
C752 C 0.90961 0.85476 0.21197 0.0
C753 C 0.91734 0.81974 0.21642 0.0
C754 C 0.89192 0.87581 0.2278 0.0
C755 C 0.88073 0.86148 0.24859 0.0
C756 C 0.88924 0.82623 0.25331 0.0
C757 C 0.90741 0.80593 0.23727 0.0
C758 C 0.88411 0.91314 0.2219 0.0
C759 C 0.87774 0.8094 0.27495 0.0
H760 H 0.86382 0.93215 0.31273 0.0
H761 H 0.77274 0.89906 0.2774 0.0
H762 H 0.9227 0.87694 0.28932 0.0
H763 H 0.92493 0.91191 0.26961 0.0
H764 H 0.92044 0.9212 0.2992 0.0
H765 H 0.77521 0.86553 0.24449 0.0
H766 H 0.81381 0.87083 0.22762 0.0
H767 H 0.81006 0.83422 0.24593 0.0
H768 H 0.91655 0.86545 0.19572 0.0
H769 H 0.91249 0.7787 0.24063 0.0
H770 H 0.89224 0.9306 0.23577 0.0
H771 H 0.85567 0.9165 0.21962 0.0
H772 H 0.89741 0.92143 0.20622 0.0
H773 H 0.88678 0.82493 0.28952 0.0
H774 H 0.88774 0.78243 0.27669 0.0
H775 H 0.8489 0.80869 0.27565 0.0
C776 C 0.16322 0.9098 0.71302 0.0
C777 C 0.19807 0.91846 0.71737 0.0
C778 C 0.14249 0.89233 0.7291 0.0
C779 C 0.15695 0.88233 0.75008 0.0
C780 C 0.19195 0.89194 0.75477 0.0
C781 C 0.21196 0.90983 0.73845 0.0
C782 C 0.10543 0.88325 0.7232 0.0
C783 C 0.2089 0.88173 0.77664 0.0
C784 C 0.09943 0.85335 0.79991 0.0
C785 C 0.10141 0.81695 0.79864 0.0
C786 C 0.11643 0.8749 0.78399 0.0
C787 C 0.13646 0.85987 0.76641 0.0
C788 C 0.13764 0.82301 0.76479 0.0
C789 C 0.12 0.80216 0.78073 0.0
C790 C 0.11368 0.91384 0.78637 0.0
C791 C 0.15864 0.80546 0.74663 0.0
H792 H 0.15252 0.91562 0.69659 0.0
H793 H 0.2391 0.91549 0.74173 0.0
H794 H 0.10296 0.85469 0.72118 0.0
H795 H 0.08763 0.89115 0.73695 0.0
H796 H 0.09684 0.89594 0.70738 0.0
H797 H 0.23541 0.89287 0.77841 0.0
H798 H 0.19279 0.8905 0.79102 0.0
H799 H 0.21078 0.85298 0.77765 0.0
H800 H 0.0854 0.86501 0.81379 0.0
H801 H 0.1219 0.77407 0.77973 0.0
H802 H 0.10487 0.92555 0.77032 0.0
H803 H 0.13966 0.9249 0.79021 0.0
H804 H 0.09536 0.92158 0.79991 0.0
H805 H 0.14996 0.81451 0.72985 0.0
H806 H 0.15639 0.77668 0.74726 0.0
H807 H 0.18646 0.81264 0.74839 0.0
C808 C 0.05482 0.07228 0.14676 0.0
C809 C 0.04037 0.09715 0.13234 0.0
C810 C 0.04312 0.0375 0.14647 0.0
C811 C 0.01657 0.0273 0.13123 0.0
C812 C 1.00295 0.05218 0.11605 0.0
C813 C 0.01478 0.08678 0.11694 0.0
C814 C 0.05824 0.01196 0.16305 0.0
C815 C 0.97511 0.04252 0.0993 0.0
C816 C 1.00705 0.9303 0.11919 0.0
C817 C 0.97907 0.92089 0.13307 0.0
C818 C 0.01892 0.96484 0.11802 0.0
C819 C 1.00278 0.99077 0.13131 0.0
C820 C 0.97381 0.9816 0.14489 0.0
C821 C 0.96218 0.94679 0.14552 0.0
C822 C 0.04941 0.97337 0.10303 0.0
C823 C 0.95594 1.0083 0.15943 0.0
H824 H 0.07405 0.08042 0.159 0.0
H825 H 1.00327 0.10612 0.10597 0.0
H826 H 0.03743 1.00237 0.17438 0.0
H827 H 0.06894 0.98908 0.15406 0.0
H828 H 0.0792 0.02369 0.17342 0.0
H829 H 0.96864 0.06436 0.08783 0.0
H830 H 0.98366 0.01996 0.08909 0.0
H831 H 0.95112 0.03462 0.10831 0.0
H832 H 0.02029 0.91026 0.10964 0.0
H833 H 0.94096 0.9395 0.15654 0.0
H834 H 0.07172 0.98214 0.1134 0.0
H835 H 0.04261 0.99504 0.09155 0.0
H836 H 0.05782 0.9507 0.09282 0.0
H837 H 0.97463 0.01878 0.17191 0.0
H838 H 0.93324 0.99732 0.16854 0.0
H839 H 0.94697 0.03047 0.14902 0.0
C840 C 0.07027 0.96428 0.64324 0.0
C841 C 0.09716 0.98523 0.63483 0.0
C842 C 0.03531 0.9755 0.64253 0.0
C843 C 0.02694 1.0084 0.63312 0.0
C844 C 0.05388 0.029 0.62389 0.0
C845 C 0.08846 0.01719 0.62481 0.0
C846 C 1.00742 0.95259 0.65248 0.0
C847 C 0.0463 0.06402 0.61351 0.0
C848 C 0.93259 0.02586 0.61627 0.0
C849 C 0.9202 0.04493 0.63466 0.0
C850 C 0.96735 0.01439 0.61532 0.0
C851 C 0.99023 0.02171 0.63339 0.0
C852 C 0.97791 0.04168 0.65181 0.0
C853 C 0.94304 0.05302 0.65222 0.0
C854 C 0.97928 0.9935 0.5953 0.0
C855 C 1.00125 0.05008 0.67145 0.0
H856 H 0.07669 0.93972 0.65114 0.0
H857 H 0.10895 0.03336 0.61793 0.0
H858 H 0.99522 0.96595 0.667 0.0
H859 H 0.98664 0.9478 0.63994 0.0
H860 H 0.01784 0.92716 0.65824 0.0
H861 H 0.06993 0.0763 0.60627 0.0
H862 H 0.02652 0.06132 0.60006 0.0
H863 H 0.03535 0.08173 0.62641 0.0
H864 H 0.91466 0.01892 0.60294 0.0
H865 H 0.9332 0.06699 0.6667 0.0
H866 H 0.98652 0.96688 0.60073 0.0
H867 H 1.0028 1.00549 0.58779 0.0
H868 H 0.95887 0.9915 0.58215 0.0
H869 H 0.00976 0.02565 0.67969 0.0
H870 H 0.98808 0.06667 0.68414 0.0
H871 H 0.02498 0.06367 0.66552 0.0
C872 C 0.0158 0.08898 0.89009 0.0
C873 C 0.98245 0.09742 0.88204 0.0
C874 C 0.0275 0.0544 0.89108 0.0
C875 C 1.00526 0.02714 0.88414 0.0
C876 C 0.97085 0.03523 0.87717 0.0
C877 C 0.95986 0.07026 0.87617 0.0
C878 C 0.06428 0.04722 0.89867 0.0
C879 C 0.9461 1.00696 0.86988 0.0
C880 C 0.04643 0.94335 0.86209 0.0
C881 C 0.04329 0.92104 0.88057 0.0
C882 C 0.03458 0.97796 0.86314 0.0
C883 C 0.01873 0.99052 0.88308 0.0
C884 C 0.01614 0.96814 0.90195 0.0
C885 C 0.02838 0.93366 0.90044 0.0
C886 C 0.03822 1.00084 0.84268 0.0
C887 C 0.9994 0.98027 0.92349 0.0
H888 H 0.03328 0.10972 0.89506 0.0
H889 H 0.93416 0.07645 0.86985 0.0
H890 H 0.06438 0.02768 0.91237 0.0
H891 H 0.07946 0.03616 0.88452 0.0
H892 H 0.07769 0.07105 0.90469 0.0
H893 H 0.91947 0.01706 0.86676 0.0
H894 H 0.95582 0.99471 0.85423 0.0
H895 H 0.9447 0.9863 0.88286 0.0
H896 H 0.05716 0.93329 0.84655 0.0
H897 H 0.0251 0.91609 0.91452 0.0
H898 H 0.05266 0.02489 0.84705 0.0
H899 H 0.01211 0.00883 0.83666 0.0
H900 H 0.05204 0.98753 0.82873 0.0
H901 H 0.01251 1.0041 0.9297 0.0
H902 H 1.00041 0.96015 0.93686 0.0
H903 H 0.9718 0.98709 0.92032 0.0
C904 C 0.94441 0.96139 0.36435 0.0
C905 C 0.91998 0.976 0.37902 0.0
C906 C 0.97937 0.97256 0.36448 0.0
C907 C 0.99022 0.99871 0.37981 0.0
C908 C 0.96577 0.01249 0.39523 0.0
C909 C 0.93098 1.00122 0.3945 0.0
C910 C 1.00442 0.95731 0.34764 0.0
C911 C 0.97611 0.03993 0.41209 0.0
C912 C 0.08742 1.00715 0.39167 0.0
C913 C 0.09696 0.03552 0.37815 0.0
C914 C 0.05283 0.99535 0.39266 0.0
C915 C 0.02695 0.01196 0.37958 0.0
C916 C 0.03629 0.04115 0.36625 0.0
C917 C 0.07112 0.05273 0.36582 0.0
C918 C 0.04411 0.96465 0.40743 0.0
C919 C 0.00965 0.05952 0.35192 0.0
H920 H 0.93578 0.94247 0.35205 0.0
H921 H 0.91197 0.01286 0.40566 0.0
H922 H 0.01415 0.97813 0.33637 0.0
H923 H 0.02729 0.94614 0.3564 0.0
H924 H 0.99222 0.93668 0.33722 0.0
H925 H 0.95455 0.04653 0.42375 0.0
H926 H 0.99871 0.03089 0.4221 0.0
H927 H 0.98422 0.06393 0.40319 0.0
H928 H 0.10731 0.99379 0.40128 0.0
H929 H 0.07843 0.07435 0.35513 0.0
H930 H 0.03453 0.9428 0.39696 0.0
H931 H 0.02294 0.97164 0.41926 0.0
H932 H 0.06688 0.95551 0.41727 0.0
H933 H 0.99853 0.04104 0.33954 0.0
H934 H 0.02088 0.08199 0.34271 0.0
H935 H 0.98788 0.06894 0.36252 0.0
loop_
_geom_bond_atom_site_label_1
_geom_bond_atom_site_label_2
_geom_bond_distance
_geom_bond_site_symmetry_2
_ccdc_geom_bond_type
C0 C1 1.443 . S
C0 N4 1.376 . S
C0 C38 1.389 . S
C1 C0 1.443 . S
C1 C2 1.340 . S
C1 H41 0.951 . S
C2 C1 1.340 . S
C2 C3 1.439 . S
C2 H42 0.950 . S
C3 C2 1.439 . S
C3 N4 1.374 . S
C3 C37 1.395 . S
N4 C0 1.376 . S
N4 C3 1.374 . S
N4 Co5 2.008 . S
Co5 N4 2.008 . S
Co5 N6 1.995 . S
Co5 N11 2.008 . S
Co5 N16 1.995 . S
Co5 N21 2.282 . S
Co5 N27 2.282 . S
N6 Co5 1.995 . S
N6 C7 1.376 . S
N6 C10 1.383 . S
C7 N6 1.376 . S
C7 C8 1.446 . S
C7 C37 1.391 . S
C8 C7 1.446 . S
C8 C9 1.339 . S
C8 H43 0.949 . S
C9 C8 1.339 . S
C9 C10 1.439 . S
C9 H44 0.950 . S
C10 N6 1.383 . S
C10 C9 1.439 . S
C10 C39 1.392 . S
N11 Co5 2.008 . S
N11 C12 1.376 . S
N11 C15 1.374 1_455 S
C12 N11 1.376 . S
C12 C13 1.443 1_455 S
C12 C39 1.389 . S
C13 C12 1.443 1_655 S
C13 C14 1.340 . S
C13 H45 0.951 . S
C14 C13 1.340 . S
C14 C15 1.439 . S
C14 H46 0.950 . S
C15 N11 1.374 1_655 S
C15 C14 1.439 . S
C15 C40 1.395 . S
N16 Co5 1.995 . S
N16 C17 1.376 . S
N16 C20 1.383 . S
C17 N16 1.376 . S
C17 C18 1.446 . S
C17 C40 1.391 1_455 S
C18 C17 1.446 . S
C18 C19 1.339 . S
C18 H47 0.949 1_455 S
C19 C18 1.339 . S
C19 C20 1.439 . S
C19 H48 0.950 . S
C20 N16 1.383 . S
C20 C19 1.439 . S
C20 C38 1.392 . S
N21 Co5 2.282 . S
N21 C24 1.332 . S
N21 C26 1.332 . S
C22 C23 1.386 . S
C22 C25 1.388 . S
C23 C22 1.386 . S
C23 C24 1.382 . S
C23 H49 0.950 . S
C24 N21 1.332 . S
C24 C23 1.382 . S
C24 H35 0.952 . S
C25 C22 1.388 . S
C25 C26 1.382 . S
C25 H50 0.950 . S
C26 N21 1.332 . S
C26 C25 1.382 . S
C26 H36 0.948 . S
N27 Co5 2.282 . S
N27 C31 1.332 . S
N27 C32 1.332 . S
C28 C29 1.388 . S
C28 C32 1.382 . S
C28 H51 0.950 . S
C29 C28 1.388 . S
C29 C30 1.386 . S
C30 C29 1.386 . S
C30 C31 1.382 . S
C30 H52 0.950 . S
C31 N27 1.332 . S
C31 C30 1.382 . S
C31 H33 0.952 . S
C32 N27 1.332 . S
C32 C28 1.382 . S
C32 H34 0.948 . S
H33 C31 0.952 . S
H34 C32 0.948 . S
H35 C24 0.952 . S
H36 C26 0.948 . S
C37 C3 1.395 . S
C37 C7 1.391 . S
C38 C0 1.389 . S
C38 C20 1.392 . S
C39 C10 1.392 . S
C39 C12 1.389 . S
C40 C15 1.395 . S
C40 C17 1.391 1_655 S
H41 C1 0.951 . S
H42 C2 0.950 . S
H43 C8 0.949 . S
H44 C9 0.950 . S
H45 C13 0.951 . S
H46 C14 0.950 . S
H47 C18 0.949 1_655 S
H48 C19 0.950 . S
H49 C23 0.950 . S
H50 C25 0.950 . S
H51 C28 0.950 . S
H52 C30 0.950 . S
C53 C54 1.443 . S
C53 N57 1.376 . S
C53 C91 1.389 . S
C54 C53 1.443 . S
C54 C55 1.340 . S
C54 H94 0.951 . S
C55 C54 1.340 . S
C55 C56 1.439 . S
C55 H95 0.950 . S
C56 C55 1.439 . S
C56 N57 1.374 . S
C56 C90 1.395 . S
N57 C53 1.376 . S
N57 C56 1.374 . S
N57 Co58 2.008 . S
Co58 N57 2.008 . S
Co58 N59 1.995 . S
Co58 N64 2.008 . S
Co58 N69 1.995 . S
Co58 N74 2.282 . S
Co58 N80 2.282 . S
N59 Co58 1.995 . S
N59 C60 1.376 . S
N59 C63 1.383 . S
C60 N59 1.376 . S
C60 C61 1.446 . S
C60 C90 1.391 . S
C61 C60 1.446 . S
C61 C62 1.339 . S
C61 H96 0.949 . S
C62 C61 1.339 . S
C62 C63 1.439 . S
C62 H97 0.950 . S
C63 N59 1.383 . S
C63 C62 1.439 . S
C63 C92 1.392 . S
N64 Co58 2.008 . S
N64 C65 1.376 . S
N64 C68 1.374 1_545 S
C65 N64 1.376 . S
C65 C66 1.443 1_545 S
C65 C92 1.389 . S
C66 C65 1.443 1_565 S
C66 C67 1.340 . S
C66 H98 0.951 . S
C67 C66 1.340 . S
C67 C68 1.439 . S
C67 H99 0.950 . S
C68 N64 1.374 1_565 S
C68 C67 1.439 . S
C68 C93 1.395 . S
N69 Co58 1.995 . S
N69 C70 1.376 . S
N69 C73 1.383 . S
C70 N69 1.376 . S
C70 C71 1.446 . S
C70 C93 1.391 1_545 S
C71 C70 1.446 . S
C71 C72 1.339 . S
C71 H100 0.949 1_545 S
C72 C71 1.339 . S
C72 C73 1.439 . S
C72 H101 0.950 . S
C73 N69 1.383 . S
C73 C72 1.439 . S
C73 C91 1.392 . S
N74 Co58 2.282 . S
N74 C77 1.332 . S
N74 C79 1.332 . S
C75 C76 1.386 . S
C75 C78 1.388 . S
C76 C75 1.386 . S
C76 C77 1.382 . S
C76 H102 0.950 . S
C77 N74 1.332 . S
C77 C76 1.382 . S
C77 H88 0.952 . S
C78 C75 1.388 . S
C78 C79 1.382 . S
C78 H103 0.950 . S
C79 N74 1.332 . S
C79 C78 1.382 . S
C79 H89 0.948 . S
N80 Co58 2.282 . S
N80 C84 1.332 . S
N80 C85 1.332 . S
C81 C82 1.388 . S
C81 C85 1.382 . S
C81 H104 0.950 . S
C82 C81 1.388 . S
C82 C83 1.386 . S
C83 C82 1.386 . S
C83 C84 1.382 . S
C83 H105 0.950 . S
C84 N80 1.332 . S
C84 C83 1.382 . S
C84 H86 0.952 . S
C85 N80 1.332 . S
C85 C81 1.382 . S
C85 H87 0.948 . S
H86 C84 0.952 . S
H87 C85 0.948 . S
H88 C77 0.952 . S
H89 C79 0.948 . S
C90 C56 1.395 . S
C90 C60 1.391 . S
C91 C53 1.389 . S
C91 C73 1.392 . S
C92 C63 1.392 . S
C92 C65 1.389 . S
C93 C68 1.395 . S
C93 C70 1.391 1_565 S
H94 C54 0.951 . S
H95 C55 0.950 . S
H96 C61 0.949 . S
H97 C62 0.950 . S
H98 C66 0.951 . S
H99 C67 0.950 . S
H100 C71 0.949 1_565 S
H101 C72 0.950 . S
H102 C76 0.950 . S
H103 C78 0.950 . S
H104 C81 0.950 . S
H105 C83 0.950 . S
C106 C107 1.443 . S
C106 N110 1.376 . S
C106 C144 1.389 . S
C107 C106 1.443 . S
C107 C108 1.340 . S
C107 H147 0.951 . S
C108 C107 1.340 . S
C108 C109 1.439 . S
C108 H148 0.950 . S
C109 C108 1.439 . S
C109 N110 1.374 . S
C109 C143 1.395 . S
N110 C106 1.376 . S
N110 C109 1.374 . S
N110 Co111 2.008 . S
Co111 N110 2.008 . S
Co111 N112 1.995 . S
Co111 N117 2.008 . S
Co111 N122 1.995 . S
Co111 N127 2.282 . S
Co111 N133 2.282 . S
N112 Co111 1.995 . S
N112 C113 1.376 . S
N112 C116 1.383 . S
C113 N112 1.376 . S
C113 C114 1.446 . S
C113 C143 1.391 . S
C114 C113 1.446 . S
C114 C115 1.339 . S
C114 H149 0.949 . S
C115 C114 1.339 . S
C115 C116 1.439 . S
C115 H150 0.950 . S
C116 N112 1.383 . S
C116 C115 1.439 . S
C116 C145 1.392 . S
N117 Co111 2.008 . S
N117 C118 1.376 . S
N117 C121 1.374 1_655 S
C118 N117 1.376 . S
C118 C119 1.443 1_655 S
C118 C145 1.389 . S
C119 C118 1.443 1_455 S
C119 C120 1.340 . S
C119 H151 0.951 . S
C120 C119 1.340 . S
C120 C121 1.439 . S
C120 H152 0.950 . S
C121 N117 1.374 1_455 S
C121 C120 1.439 . S
C121 C146 1.395 . S
N122 Co111 1.995 . S
N122 C123 1.376 . S
N122 C126 1.383 . S
C123 N122 1.376 . S
C123 C124 1.446 . S
C123 C146 1.391 1_655 S
C124 C123 1.446 . S
C124 C125 1.339 . S
C124 H153 0.949 1_655 S
C125 C124 1.339 . S
C125 C126 1.439 . S
C125 H154 0.950 . S
C126 N122 1.383 . S
C126 C125 1.439 . S
C126 C144 1.392 . S
N127 Co111 2.282 . S
N127 C130 1.332 . S
N127 C132 1.332 . S
C128 C129 1.386 . S
C128 C131 1.388 . S
C129 C128 1.386 . S
C129 C130 1.382 . S
C129 H155 0.950 . S
C130 N127 1.332 . S
C130 C129 1.382 . S
C130 H141 0.952 . S
C131 C128 1.388 . S
C131 C132 1.382 . S
C131 H156 0.950 . S
C132 N127 1.332 . S
C132 C131 1.382 . S
C132 H142 0.948 . S
N133 Co111 2.282 . S
N133 C137 1.332 . S
N133 C138 1.332 . S
C134 C135 1.388 . S
C134 C138 1.382 . S
C134 H157 0.950 . S
C135 C134 1.388 . S
C135 C136 1.386 . S
C136 C135 1.386 . S
C136 C137 1.382 . S
C136 H158 0.950 . S
C137 N133 1.332 . S
C137 C136 1.382 . S
C137 H139 0.952 . S
C138 N133 1.332 . S
C138 C134 1.382 . S
C138 H140 0.948 . S
H139 C137 0.952 . S
H140 C138 0.948 . S
H141 C130 0.952 . S
H142 C132 0.948 . S
C143 C109 1.395 . S
C143 C113 1.391 . S
C144 C106 1.389 . S
C144 C126 1.392 . S
C145 C116 1.392 . S
C145 C118 1.389 . S
C146 C121 1.395 . S
C146 C123 1.391 1_455 S
H147 C107 0.951 . S
H148 C108 0.950 . S
H149 C114 0.949 . S
H150 C115 0.950 . S
H151 C119 0.951 . S
H152 C120 0.950 . S
H153 C124 0.949 1_455 S
H154 C125 0.950 . S
H155 C129 0.950 . S
H156 C131 0.950 . S
H157 C134 0.950 . S
H158 C136 0.950 . S
C159 C160 1.443 . S
C159 N163 1.376 . S
C159 C197 1.389 . S
C160 C159 1.443 . S
C160 C161 1.340 . S
C160 H200 0.951 . S
C161 C160 1.340 . S
C161 C162 1.439 . S
C161 H201 0.950 . S
C162 C161 1.439 . S
C162 N163 1.374 . S
C162 C196 1.395 . S
N163 C159 1.376 . S
N163 C162 1.374 . S
N163 Co164 2.008 . S
Co164 N163 2.008 . S
Co164 N165 1.995 . S
Co164 N170 2.008 . S
Co164 N175 1.995 . S
Co164 N180 2.282 . S
Co164 N186 2.282 . S
N165 Co164 1.995 . S
N165 C166 1.376 . S
N165 C169 1.383 . S
C166 N165 1.376 . S
C166 C167 1.446 . S
C166 C196 1.391 . S
C167 C166 1.446 . S
C167 C168 1.339 . S
C167 H202 0.949 . S
C168 C167 1.339 . S
C168 C169 1.439 . S
C168 H203 0.950 . S
C169 N165 1.383 . S
C169 C168 1.439 . S
C169 C198 1.392 . S
N170 Co164 2.008 . S
N170 C171 1.376 . S
N170 C174 1.374 1_565 S
C171 N170 1.376 . S
C171 C172 1.443 1_565 S
C171 C198 1.389 . S
C172 C171 1.443 1_545 S
C172 C173 1.340 . S
C172 H204 0.951 . S
C173 C172 1.340 . S
C173 C174 1.439 . S
C173 H205 0.950 . S
C174 N170 1.374 1_545 S
C174 C173 1.439 . S
C174 C199 1.395 . S
N175 Co164 1.995 . S
N175 C176 1.376 . S
N175 C179 1.383 . S
C176 N175 1.376 . S
C176 C177 1.446 . S
C176 C199 1.391 1_565 S
C177 C176 1.446 . S
C177 C178 1.339 . S
C177 H206 0.949 1_565 S
C178 C177 1.339 . S
C178 C179 1.439 . S
C178 H207 0.950 . S
C179 N175 1.383 . S
C179 C178 1.439 . S
C179 C197 1.392 . S
N180 Co164 2.282 . S
N180 C183 1.332 . S
N180 C185 1.332 . S
C181 C182 1.386 . S
C181 C184 1.388 . S
C182 C181 1.386 . S
C182 C183 1.382 . S
C182 H208 0.950 . S
C183 N180 1.332 . S
C183 C182 1.382 . S
C183 H194 0.952 . S
C184 C181 1.388 . S
C184 C185 1.382 . S
C184 H209 0.950 . S
C185 N180 1.332 . S
C185 C184 1.382 . S
C185 H195 0.948 . S
N186 Co164 2.282 . S
N186 C190 1.332 . S
N186 C191 1.332 . S
C187 C188 1.388 . S
C187 C191 1.382 . S
C187 H210 0.950 . S
C188 C187 1.388 . S
C188 C189 1.386 . S
C189 C188 1.386 . S
C189 C190 1.382 . S
C189 H211 0.950 . S
C190 N186 1.332 . S
C190 C189 1.382 . S
C190 H192 0.952 . S
C191 N186 1.332 . S
C191 C187 1.382 . S
C191 H193 0.948 . S
H192 C190 0.952 . S
H193 C191 0.948 . S
H194 C183 0.952 . S
H195 C185 0.948 . S
C196 C162 1.395 . S
C196 C166 1.391 . S
C197 C159 1.389 . S
C197 C179 1.392 . S
C198 C169 1.392 . S
C198 C171 1.389 . S
C199 C174 1.395 . S
C199 C176 1.391 1_545 S
H200 C160 0.951 . S
H201 C161 0.950 . S
H202 C167 0.949 . S
H203 C168 0.950 . S
H204 C172 0.951 . S
H205 C173 0.950 . S
H206 C177 0.949 1_545 S
H207 C178 0.950 . S
H208 C182 0.950 . S
H209 C184 0.950 . S
H210 C187 0.950 . S
H211 C189 0.950 . S
C212 C213 1.443 . S
C212 N216 1.376 . S
C212 C250 1.389 . S
C213 C212 1.443 . S
C213 C214 1.340 . S
C213 H253 0.951 . S
C214 C213 1.340 . S
C214 C215 1.439 . S
C214 H254 0.950 . S
C215 C214 1.439 . S
C215 N216 1.374 . S
C215 C249 1.395 . S
N216 C212 1.376 . S
N216 C215 1.374 . S
N216 Co217 2.008 . S
Co217 N216 2.008 . S
Co217 N218 1.995 . S
Co217 N223 2.008 . S
Co217 N228 1.995 . S
Co217 N233 2.282 . S
Co217 N239 2.282 . S
N218 Co217 1.995 . S
N218 C219 1.376 . S
N218 C222 1.383 . S
C219 N218 1.376 . S
C219 C220 1.446 . S
C219 C249 1.391 . S
C220 C219 1.446 . S
C220 C221 1.339 . S
C220 H255 0.949 . S
C221 C220 1.339 . S
C221 C222 1.439 . S
C221 H256 0.950 . S
C222 N218 1.383 . S
C222 C221 1.439 . S
C222 C251 1.392 . S
N223 Co217 2.008 . S
N223 C224 1.376 . S
N223 C227 1.374 1_455 S
C224 N223 1.376 . S
C224 C225 1.443 1_455 S
C224 C251 1.389 . S
C225 C224 1.443 1_655 S
C225 C226 1.340 . S
C225 H257 0.951 . S
C226 C225 1.340 . S
C226 C227 1.439 . S
C226 H258 0.950 . S
C227 N223 1.374 1_655 S
C227 C226 1.439 . S
C227 C252 1.395 . S
N228 Co217 1.995 . S
N228 C229 1.376 . S
N228 C232 1.383 . S
C229 N228 1.376 . S
C229 C230 1.446 . S
C229 C252 1.391 1_455 S
C230 C229 1.446 . S
C230 C231 1.339 . S
C230 H259 0.949 1_455 S
C231 C230 1.339 . S
C231 C232 1.439 . S
C231 H260 0.950 . S
C232 N228 1.383 . S
C232 C231 1.439 . S
C232 C250 1.392 . S
N233 Co217 2.282 . S
N233 C236 1.332 . S
N233 C238 1.332 . S
C234 C235 1.386 . S
C234 C237 1.388 . S
C235 C234 1.386 . S
C235 C236 1.382 . S
C235 H261 0.950 . S
C236 N233 1.332 . S
C236 C235 1.382 . S
C236 H247 0.952 . S
C237 C234 1.388 . S
C237 C238 1.382 . S
C237 H262 0.950 . S
C238 N233 1.332 . S
C238 C237 1.382 . S
C238 H248 0.948 . S
N239 Co217 2.282 . S
N239 C243 1.332 . S
N239 C244 1.332 . S
C240 C241 1.388 . S
C240 C244 1.382 . S
C240 H263 0.950 . S
C241 C240 1.388 . S
C241 C242 1.386 . S
C242 C241 1.386 . S
C242 C243 1.382 . S
C242 H264 0.950 . S
C243 N239 1.332 . S
C243 C242 1.382 . S
C243 H245 0.952 . S
C244 N239 1.332 . S
C244 C240 1.382 . S
C244 H246 0.948 . S
H245 C243 0.952 . S
H246 C244 0.948 . S
H247 C236 0.952 . S
H248 C238 0.948 . S
C249 C215 1.395 . S
C249 C219 1.391 . S
C250 C212 1.389 . S
C250 C232 1.392 . S
C251 C222 1.392 . S
C251 C224 1.389 . S
C252 C227 1.395 . S
C252 C229 1.391 1_655 S
H253 C213 0.951 . S
H254 C214 0.950 . S
H255 C220 0.949 . S
H256 C221 0.950 . S
H257 C225 0.951 . S
H258 C226 0.950 . S
H259 C230 0.949 1_655 S
H260 C231 0.950 . S
H261 C235 0.950 . S
H262 C237 0.950 . S
H263 C240 0.950 . S
H264 C242 0.950 . S
C265 C266 1.443 . S
C265 N269 1.376 . S
C265 C303 1.389 . S
C266 C265 1.443 . S
C266 C267 1.340 . S
C266 H306 0.951 . S
C267 C266 1.340 . S
C267 C268 1.439 . S
C267 H307 0.950 . S
C268 C267 1.439 . S
C268 N269 1.374 . S
C268 C302 1.395 . S
N269 C265 1.376 . S
N269 C268 1.374 . S
N269 Co270 2.008 . S
Co270 N269 2.008 . S
Co270 N271 1.995 . S
Co270 N276 2.008 . S
Co270 N281 1.995 . S
Co270 N286 2.282 . S
Co270 N292 2.282 . S
N271 Co270 1.995 . S
N271 C272 1.376 . S
N271 C275 1.383 . S
C272 N271 1.376 . S
C272 C273 1.446 . S
C272 C302 1.391 . S
C273 C272 1.446 . S
C273 C274 1.339 . S
C273 H308 0.949 . S
C274 C273 1.339 . S
C274 C275 1.439 . S
C274 H309 0.950 . S
C275 N271 1.383 . S
C275 C274 1.439 . S
C275 C304 1.392 . S
N276 Co270 2.008 . S
N276 C277 1.376 . S
N276 C280 1.374 1_545 S
C277 N276 1.376 . S
C277 C278 1.443 1_545 S
C277 C304 1.389 . S
C278 C277 1.443 1_565 S
C278 C279 1.340 . S
C278 H310 0.951 . S
C279 C278 1.340 . S
C279 C280 1.439 . S
C279 H311 0.950 . S
C280 N276 1.374 1_565 S
C280 C279 1.439 . S
C280 C305 1.395 . S
N281 Co270 1.995 . S
N281 C282 1.376 . S
N281 C285 1.383 . S
C282 N281 1.376 . S
C282 C283 1.446 . S
C282 C305 1.391 1_545 S
C283 C282 1.446 . S
C283 C284 1.339 . S
C283 H312 0.949 1_545 S
C284 C283 1.339 . S
C284 C285 1.439 . S
C284 H313 0.950 . S
C285 N281 1.383 . S
C285 C284 1.439 . S
C285 C303 1.392 . S
N286 Co270 2.282 . S
N286 C289 1.332 . S
N286 C291 1.332 . S
C287 C288 1.386 . S
C287 C290 1.388 . S
C288 C287 1.386 . S
C288 C289 1.382 . S
C288 H314 0.950 . S
C289 N286 1.332 . S
C289 C288 1.382 . S
C289 H300 0.952 . S
C290 C287 1.388 . S
C290 C291 1.382 . S
C290 H315 0.950 . S
C291 N286 1.332 . S
C291 C290 1.382 . S
C291 H301 0.948 . S
N292 Co270 2.282 . S
N292 C296 1.332 . S
N292 C297 1.332 . S
C293 C294 1.388 . S
C293 C297 1.382 . S
C293 H316 0.950 . S
C294 C293 1.388 . S
C294 C295 1.386 . S
C295 C294 1.386 . S
C295 C296 1.382 . S
C295 H317 0.950 . S
C296 N292 1.332 . S
C296 C295 1.382 . S
C296 H298 0.952 . S
C297 N292 1.332 . S
C297 C293 1.382 . S
C297 H299 0.948 . S
H298 C296 0.952 . S
H299 C297 0.948 . S
H300 C289 0.952 . S
H301 C291 0.948 . S
C302 C268 1.395 . S
C302 C272 1.391 . S
C303 C265 1.389 . S
C303 C285 1.392 . S
C304 C275 1.392 . S
C304 C277 1.389 . S
C305 C280 1.395 . S
C305 C282 1.391 1_565 S
H306 C266 0.951 . S
H307 C267 0.950 . S
H308 C273 0.949 . S
H309 C274 0.950 . S
H310 C278 0.951 . S
H311 C279 0.950 . S
H312 C283 0.949 1_565 S
H313 C284 0.950 . S
H314 C288 0.950 . S
H315 C290 0.950 . S
H316 C293 0.950 . S
H317 C295 0.950 . S
C318 C319 1.443 . S
C318 N322 1.376 . S
C318 C356 1.389 . S
C319 C318 1.443 . S
C319 C320 1.340 . S
C319 H359 0.951 . S
C320 C319 1.340 . S
C320 C321 1.439 . S
C320 H360 0.950 . S
C321 C320 1.439 . S
C321 N322 1.374 . S
C321 C355 1.395 . S
N322 C318 1.376 . S
N322 C321 1.374 . S
N322 Co323 2.008 . S
Co323 N322 2.008 . S
Co323 N324 1.995 . S
Co323 N329 2.008 . S
Co323 N334 1.995 . S
Co323 N339 2.282 . S
Co323 N345 2.282 . S
N324 Co323 1.995 . S
N324 C325 1.376 . S
N324 C328 1.383 . S
C325 N324 1.376 . S
C325 C326 1.446 . S
C325 C355 1.391 . S
C326 C325 1.446 . S
C326 C327 1.339 . S
C326 H361 0.949 . S
C327 C326 1.339 . S
C327 C328 1.439 . S
C327 H362 0.950 . S
C328 N324 1.383 . S
C328 C327 1.439 . S
C328 C357 1.392 . S
N329 Co323 2.008 . S
N329 C330 1.376 . S
N329 C333 1.374 1_655 S
C330 N329 1.376 . S
C330 C331 1.443 1_655 S
C330 C357 1.389 . S
C331 C330 1.443 1_455 S
C331 C332 1.340 . S
C331 H363 0.951 . S
C332 C331 1.340 . S
C332 C333 1.439 . S
C332 H364 0.950 . S
C333 N329 1.374 1_455 S
C333 C332 1.439 . S
C333 C358 1.395 . S
N334 Co323 1.995 . S
N334 C335 1.376 . S
N334 C338 1.383 . S
C335 N334 1.376 . S
C335 C336 1.446 . S
C335 C358 1.391 1_655 S
C336 C335 1.446 . S
C336 C337 1.339 . S
C336 H365 0.949 1_655 S
C337 C336 1.339 . S
C337 C338 1.439 . S
C337 H366 0.950 . S
C338 N334 1.383 . S
C338 C337 1.439 . S
C338 C356 1.392 . S
N339 Co323 2.282 . S
N339 C342 1.332 . S
N339 C344 1.332 . S
C340 C341 1.386 . S
C340 C343 1.388 . S
C341 C340 1.386 . S
C341 C342 1.382 . S
C341 H367 0.950 . S
C342 N339 1.332 . S
C342 C341 1.382 . S
C342 H353 0.952 . S
C343 C340 1.388 . S
C343 C344 1.382 . S
C343 H368 0.950 . S
C344 N339 1.332 . S
C344 C343 1.382 . S
C344 H354 0.948 . S
N345 Co323 2.282 . S
N345 C349 1.332 . S
N345 C350 1.332 . S
C346 C347 1.388 . S
C346 C350 1.382 . S
C346 H369 0.950 . S
C347 C346 1.388 . S
C347 C348 1.386 . S
C348 C347 1.386 . S
C348 C349 1.382 . S
C348 H370 0.950 . S
C349 N345 1.332 . S
C349 C348 1.382 . S
C349 H351 0.952 . S
C350 N345 1.332 . S
C350 C346 1.382 . S
C350 H352 0.948 . S
H351 C349 0.952 . S
H352 C350 0.948 . S
H353 C342 0.952 . S
H354 C344 0.948 . S
C355 C321 1.395 . S
C355 C325 1.391 . S
C356 C318 1.389 . S
C356 C338 1.392 . S
C357 C328 1.392 . S
C357 C330 1.389 . S
C358 C333 1.395 . S
C358 C335 1.391 1_455 S
H359 C319 0.951 . S
H360 C320 0.950 . S
H361 C326 0.949 . S
H362 C327 0.950 . S
H363 C331 0.951 . S
H364 C332 0.950 . S
H365 C336 0.949 1_455 S
H366 C337 0.950 . S
H367 C341 0.950 . S
H368 C343 0.950 . S
H369 C346 0.950 . S
H370 C348 0.950 . S
C371 C372 1.443 . S
C371 N375 1.376 . S
C371 C409 1.389 . S
C372 C371 1.443 . S
C372 C373 1.340 . S
C372 H412 0.951 . S
C373 C372 1.340 . S
C373 C374 1.439 . S
C373 H413 0.950 . S
C374 C373 1.439 . S
C374 N375 1.374 . S
C374 C408 1.395 . S
N375 C371 1.376 . S
N375 C374 1.374 . S
N375 Co376 2.008 . S
Co376 N375 2.008 . S
Co376 N377 1.995 . S
Co376 N382 2.008 . S
Co376 N387 1.995 . S
Co376 N392 2.282 . S
Co376 N398 2.282 . S
N377 Co376 1.995 . S
N377 C378 1.376 . S
N377 C381 1.383 . S
C378 N377 1.376 . S
C378 C379 1.446 . S
C378 C408 1.391 . S
C379 C378 1.446 . S
C379 C380 1.339 . S
C379 H414 0.949 . S
C380 C379 1.339 . S
C380 C381 1.439 . S
C380 H415 0.950 . S
C381 N377 1.383 . S
C381 C380 1.439 . S
C381 C410 1.392 . S
N382 Co376 2.008 . S
N382 C383 1.376 . S
N382 C386 1.374 1_565 S
C383 N382 1.376 . S
C383 C384 1.443 1_565 S
C383 C410 1.389 . S
C384 C383 1.443 1_545 S
C384 C385 1.340 . S
C384 H416 0.951 . S
C385 C384 1.340 . S
C385 C386 1.439 . S
C385 H417 0.950 . S
C386 N382 1.374 1_545 S
C386 C385 1.439 . S
C386 C411 1.395 . S
N387 Co376 1.995 . S
N387 C388 1.376 . S
N387 C391 1.383 . S
C388 N387 1.376 . S
C388 C389 1.446 . S
C388 C411 1.391 1_565 S
C389 C388 1.446 . S
C389 C390 1.339 . S
C389 H418 0.949 1_565 S
C390 C389 1.339 . S
C390 C391 1.439 . S
C390 H419 0.950 . S
C391 N387 1.383 . S
C391 C390 1.439 . S
C391 C409 1.392 . S
N392 Co376 2.282 . S
N392 C395 1.332 . S
N392 C397 1.332 . S
C393 C394 1.386 . S
C393 C396 1.388 . S
C394 C393 1.386 . S
C394 C395 1.382 . S
C394 H420 0.950 . S
C395 N392 1.332 . S
C395 C394 1.382 . S
C395 H406 0.952 . S
C396 C393 1.388 . S
C396 C397 1.382 . S
C396 H421 0.950 . S
C397 N392 1.332 . S
C397 C396 1.382 . S
C397 H407 0.948 . S
N398 Co376 2.282 . S
N398 C402 1.332 . S
N398 C403 1.332 . S
C399 C400 1.388 . S
C399 C403 1.382 . S
C399 H422 0.950 . S
C400 C399 1.388 . S
C400 C401 1.386 . S
C401 C400 1.386 . S
C401 C402 1.382 . S
C401 H423 0.950 . S
C402 N398 1.332 . S
C402 C401 1.382 . S
C402 H404 0.952 . S
C403 N398 1.332 . S
C403 C399 1.382 . S
C403 H405 0.948 . S
H404 C402 0.952 . S
H405 C403 0.948 . S
H406 C395 0.952 . S
H407 C397 0.948 . S
C408 C374 1.395 . S
C408 C378 1.391 . S
C409 C371 1.389 . S
C409 C391 1.392 . S
C410 C381 1.392 . S
C410 C383 1.389 . S
C411 C386 1.395 . S
C411 C388 1.391 1_545 S
H412 C372 0.951 . S
H413 C373 0.950 . S
H414 C379 0.949 . S
H415 C380 0.950 . S
H416 C384 0.951 . S
H417 C385 0.950 . S
H418 C389 0.949 1_545 S
H419 C390 0.950 . S
H420 C394 0.950 . S
H421 C396 0.950 . S
H422 C399 0.950 . S
H423 C401 0.950 . S
C424 C425 1.391 . S
C424 C426 1.394 . S
C424 H440 0.931 . S
C425 C424 1.391 . S
C425 C429 1.376 . S
C426 C424 1.394 . S
C426 C427 1.369 . S
C426 C430 1.531 . S
C427 C426 1.369 . S
C427 C428 1.410 1_455 S
C427 C435 1.503 1_455 S
C428 C427 1.410 1_655 S
C428 C429 1.392 1_655 S
C428 C431 1.511 . S
C429 C425 1.376 . S
C429 C428 1.392 1_455 S
C429 H441 0.926 1_455 S
C430 C426 1.531 . S
C430 H442 0.960 . S
C430 H443 0.962 . S
C430 H444 0.960 . S
C431 C428 1.511 . S
C431 H445 0.961 . S
C431 H446 0.961 . S
C431 H447 0.961 . S
C432 C433 1.370 . S
C432 C434 1.363 . S
C432 H448 0.931 . S
C433 C432 1.370 . S
C433 C437 1.408 . S
C434 C432 1.363 . S
C434 C435 1.370 . S
C434 C438 1.524 1_655 S
C435 C427 1.503 1_655 S
C435 C434 1.370 . S
C435 C436 1.403 . S
C436 C435 1.403 . S
C436 C437 1.404 . S
C436 C439 1.539 . S
C437 C433 1.408 . S
C437 C436 1.404 . S
C437 H449 0.930 . S
C438 C434 1.524 1_455 S
C438 H450 0.956 . S
C438 H451 0.961 . S
C438 H452 0.961 . S
C439 C436 1.539 . S
C439 H453 0.958 . S
C439 H454 0.961 . S
C439 H455 0.960 . S
H440 C424 0.931 . S
H441 C429 0.926 1_655 S
H442 C430 0.960 . S
H443 C430 0.962 . S
H444 C430 0.960 . S
H445 C431 0.961 . S
H446 C431 0.961 . S
H447 C431 0.961 . S
H448 C432 0.931 . S
H449 C437 0.930 . S
H450 C438 0.956 . S
H451 C438 0.961 . S
H452 C438 0.961 . S
H453 C439 0.958 . S
H454 C439 0.961 . S
H455 C439 0.960 . S
C456 C457 1.391 . S
C456 C458 1.394 1_565 S
C456 H472 0.931 1_565 S
C457 C456 1.391 . S
C457 C461 1.376 . S
C458 C456 1.394 1_545 S
C458 C459 1.369 1_545 S
C458 C462 1.531 . S
C459 C458 1.369 1_565 S
C459 C460 1.410 . S
C459 C467 1.503 1_565 S
C460 C459 1.410 . S
C460 C461 1.392 . S
C460 C463 1.511 . S
C461 C457 1.376 . S
C461 C460 1.392 . S
C461 H473 0.929 . S
C462 C458 1.531 . S
C462 H474 0.960 . S
C462 H475 0.962 . S
C462 H476 0.960 . S
C463 C460 1.511 . S
C463 H477 0.961 . S
C463 H478 0.961 . S
C463 H479 0.961 . S
C464 C465 1.370 . S
C464 C466 1.363 . S
C464 H480 0.931 . S
C465 C464 1.370 . S
C465 C469 1.408 . S
C466 C464 1.363 . S
C466 C467 1.370 . S
C466 C470 1.524 . S
C467 C459 1.503 1_545 S
C467 C466 1.370 . S
C467 C468 1.403 . S
C468 C467 1.403 . S
C468 C469 1.404 . S
C468 C471 1.539 . S
C469 C465 1.408 . S
C469 C468 1.404 . S
C469 H481 0.930 . S
C470 C466 1.524 . S
C470 H482 0.956 . S
C470 H483 0.961 1_545 S
C470 H484 0.961 . S
C471 C468 1.539 . S
C471 H485 0.958 . S
C471 H486 0.961 . S
C471 H487 0.960 1_545 S
H472 C456 0.931 1_545 S
H473 C461 0.929 . S
H474 C462 0.960 . S
H475 C462 0.962 . S
H476 C462 0.960 . S
H477 C463 0.961 . S
H478 C463 0.961 . S
H479 C463 0.961 . S
H480 C464 0.931 . S
H481 C469 0.930 . S
H482 C470 0.956 . S
H483 C470 0.961 1_565 S
H484 C470 0.961 . S
H485 C471 0.958 . S
H486 C471 0.961 . S
H487 C471 0.960 1_565 S
C488 C489 1.391 . S
C488 C490 1.394 1_655 S
C488 H504 0.931 . S
C489 C488 1.391 . S
C489 C493 1.376 . S
C490 C488 1.394 1_455 S
C490 C491 1.369 1_455 S
C490 C494 1.531 . S
C491 C490 1.369 1_655 S
C491 C492 1.410 . S
C491 C499 1.503 1_655 S
C492 C491 1.410 . S
C492 C493 1.392 . S
C492 C495 1.511 . S
C493 C489 1.376 . S
C493 C492 1.392 . S
C493 H505 0.929 . S
C494 C490 1.531 . S
C494 H506 0.960 . S
C494 H507 0.962 . S
C494 H508 0.960 . S
C495 C492 1.511 . S
C495 H509 0.961 . S
C495 H510 0.961 . S
C495 H511 0.961 . S
C496 C497 1.370 . S
C496 C498 1.363 . S
C496 H512 0.931 . S
C497 C496 1.370 . S
C497 C501 1.408 . S
C498 C496 1.363 . S
C498 C499 1.370 . S
C498 C502 1.524 . S
C499 C491 1.503 1_455 S
C499 C498 1.370 . S
C499 C500 1.403 . S
C500 C499 1.403 . S
C500 C501 1.404 . S
C500 C503 1.539 1_455 S
C501 C497 1.408 . S
C501 C500 1.404 . S
C501 H513 0.930 . S
C502 C498 1.524 . S
C502 H514 0.956 . S
C502 H515 0.961 . S
C502 H516 0.961 . S
C503 C500 1.539 1_655 S
C503 H517 0.958 . S
C503 H518 0.961 . S
C503 H519 0.960 . S
H504 C488 0.931 . S
H505 C493 0.929 . S
H506 C494 0.960 . S
H507 C494 0.962 . S
H508 C494 0.960 . S
H509 C495 0.961 . S
H510 C495 0.961 . S
H511 C495 0.961 . S
H512 C496 0.931 . S
H513 C501 0.930 . S
H514 C502 0.956 . S
H515 C502 0.961 . S
H516 C502 0.961 . S
H517 C503 0.958 . S
H518 C503 0.961 . S
H519 C503 0.960 . S
C520 C521 1.391 . S
C520 C522 1.394 . S
C520 H536 0.931 . S
C521 C520 1.391 . S
C521 C525 1.376 . S
C522 C520 1.394 . S
C522 C523 1.369 . S
C522 C526 1.531 . S
C523 C522 1.369 . S
C523 C524 1.410 1_545 S
C523 C531 1.503 1_545 S
C524 C523 1.410 1_565 S
C524 C525 1.392 1_565 S
C524 C527 1.511 . S
C525 C521 1.376 . S
C525 C524 1.392 1_545 S
C525 H537 0.929 . S
C526 C522 1.531 . S
C526 H538 0.960 . S
C526 H539 0.962 . S
C526 H540 0.960 . S
C527 C524 1.511 . S
C527 H541 0.961 . S
C527 H542 0.961 . S
C527 H543 0.961 . S
C528 C529 1.370 . S
C528 C530 1.363 . S
C528 H544 0.931 . S
C529 C528 1.370 . S
C529 C533 1.408 . S
C530 C528 1.363 . S
C530 C531 1.370 . S
C530 C534 1.524 1_565 S
C531 C523 1.503 1_565 S
C531 C530 1.370 . S
C531 C532 1.403 . S
C532 C531 1.403 . S
C532 C533 1.404 . S
C532 C535 1.539 . S
C533 C529 1.408 . S
C533 C532 1.404 . S
C533 H545 0.930 . S
C534 C530 1.524 1_545 S
C534 H546 0.956 . S
C534 H547 0.961 . S
C534 H548 0.961 . S
C535 C532 1.539 . S
C535 H549 0.958 . S
C535 H550 0.961 . S
C535 H551 0.960 . S
H536 C520 0.931 . S
H537 C525 0.929 . S
H538 C526 0.960 . S
H539 C526 0.962 . S
H540 C526 0.960 . S
H541 C527 0.961 . S
H542 C527 0.961 . S
H543 C527 0.961 . S
H544 C528 0.931 . S
H545 C533 0.930 . S
H546 C534 0.956 . S
H547 C534 0.961 . S
H548 C534 0.961 . S
H549 C535 0.958 . S
H550 C535 0.961 . S
H551 C535 0.960 . S
C552 C553 1.391 1_455 S
C552 C554 1.394 . S
C552 H568 0.931 . S
C553 C552 1.391 1_655 S
C553 C557 1.376 . S
C554 C552 1.394 . S
C554 C555 1.369 1_455 S
C554 C558 1.531 . S
C555 C554 1.369 1_655 S
C555 C556 1.410 . S
C555 C563 1.503 1_656 S
C556 C555 1.410 . S
C556 C557 1.392 . S
C556 C559 1.511 . S
C557 C553 1.376 . S
C557 C556 1.392 . S
C557 H569 0.929 . S
C558 C554 1.531 . S
C558 H570 0.960 . S
C558 H571 0.962 . S
C558 H572 0.960 . S
C559 C556 1.511 . S
C559 H573 0.961 . S
C559 H574 0.961 1_556 S
C559 H575 0.965 . S
C560 C561 1.370 . S
C560 C562 1.363 . S
C560 H576 0.931 . S
C561 C560 1.370 . S
C561 C565 1.408 . S
C562 C560 1.363 . S
C562 C563 1.370 . S
C562 C566 1.524 . S
C563 C555 1.503 1_454 S
C563 C562 1.370 . S
C563 C564 1.403 . S
C564 C563 1.403 . S
C564 C565 1.404 . S
C564 C567 1.539 1_455 S
C565 C561 1.408 . S
C565 C564 1.404 . S
C565 H577 0.930 . S
C566 C562 1.524 . S
C566 H578 0.956 1_554 S
C566 H579 0.959 1_454 S
C566 H580 0.961 . S
C567 C564 1.539 1_655 S
C567 H581 0.958 1_655 S
C567 H582 0.961 . S
C567 H583 0.960 . S
H568 C552 0.931 . S
H569 C557 0.929 . S
H570 C558 0.960 . S
H571 C558 0.962 . S
H572 C558 0.960 . S
H573 C559 0.961 . S
H574 C559 0.961 1_554 S
H575 C559 0.965 . S
H576 C560 0.931 . S
H577 C565 0.930 . S
H578 C566 0.956 1_556 S
H579 C566 0.959 1_656 S
H580 C566 0.961 . S
H581 C567 0.958 1_455 S
H582 C567 0.961 . S
H583 C567 0.960 . S
C584 C585 1.391 . S
C584 C586 1.394 . S
C584 H600 0.931 . S
C585 C584 1.391 . S
C585 C589 1.376 1_545 S
C586 C584 1.394 . S
C586 C587 1.369 . S
C586 C590 1.531 . S
C587 C586 1.369 . S
C587 C588 1.410 1_545 S
C587 C595 1.503 1_545 S
C588 C587 1.410 1_565 S
C588 C589 1.392 . S
C588 C591 1.511 . S
C589 C585 1.376 1_565 S
C589 C588 1.392 . S
C589 H601 0.929 . S
C590 C586 1.531 . S
C590 H602 0.960 . S
C590 H603 0.962 . S
C590 H604 0.960 . S
C591 C588 1.511 . S
C591 H605 0.961 . S
C591 H606 0.961 . S
C591 H607 0.961 . S
C592 C593 1.370 . S
C592 C594 1.363 . S
C592 H608 0.931 . S
C593 C592 1.370 . S
C593 C597 1.408 . S
C594 C592 1.363 . S
C594 C595 1.370 . S
C594 C598 1.524 1_565 S
C595 C587 1.503 1_565 S
C595 C594 1.370 . S
C595 C596 1.403 . S
C596 C595 1.403 . S
C596 C597 1.404 . S
C596 C599 1.539 . S
C597 C593 1.408 . S
C597 C596 1.404 . S
C597 H609 0.930 . S
C598 C594 1.524 1_545 S
C598 H610 0.956 . S
C598 H611 0.961 1_545 S
C598 H612 0.961 . S
C599 C596 1.539 . S
C599 H613 0.951 1_565 S
C599 H614 0.961 . S
C599 H615 0.960 . S
H600 C584 0.931 . S
H601 C589 0.929 . S
H602 C590 0.960 . S
H603 C590 0.962 . S
H604 C590 0.960 . S
H605 C591 0.961 . S
H606 C591 0.961 . S
H607 C591 0.961 . S
H608 C592 0.931 . S
H609 C597 0.930 . S
H610 C598 0.956 . S
H611 C598 0.961 1_565 S
H612 C598 0.961 . S
H613 C599 0.951 1_545 S
H614 C599 0.961 . S
H615 C599 0.960 . S
C616 C617 1.391 . S
C616 C618 1.394 . S
C616 H632 0.931 . S
C617 C616 1.391 . S
C617 C621 1.376 1_655 S
C618 C616 1.394 . S
C618 C619 1.369 1_655 S
C618 C622 1.531 . S
C619 C618 1.369 1_455 S
C619 C620 1.410 . S
C619 C627 1.503 1_554 S
C620 C619 1.410 . S
C620 C621 1.392 . S
C620 C623 1.511 . S
C621 C617 1.376 1_455 S
C621 C620 1.392 . S
C621 H633 0.929 . S
C622 C618 1.531 . S
C622 H634 0.960 1_554 S
C622 H635 0.962 . S
C622 H636 0.960 . S
C623 C620 1.511 . S
C623 H637 0.961 . S
C623 H638 0.997 . S
C623 H639 0.961 . S
C624 C625 1.370 1_655 S
C624 C626 1.363 . S
C624 H640 0.931 . S
C625 C624 1.370 1_455 S
C625 C629 1.408 . S
C626 C624 1.363 . S
C626 C627 1.370 1_655 S
C626 C630 1.524 . S
C627 C619 1.503 1_556 S
C627 C626 1.370 1_455 S
C627 C628 1.403 . S
C628 C627 1.403 . S
C628 C629 1.404 . S
C628 C631 1.539 . S
C629 C625 1.408 . S
C629 C628 1.404 . S
C629 H641 0.930 . S
C630 C626 1.524 . S
C630 H642 0.956 . S
C630 H643 0.961 . S
C630 H644 0.961 . S
C631 C628 1.539 . S
C631 H645 0.958 . S
C631 H646 0.961 . S
C631 H647 0.960 1_556 S
H632 C616 0.931 . S
H633 C621 0.929 . S
H634 C622 0.960 1_556 S
H635 C622 0.962 . S
H636 C622 0.960 . S
H637 C623 0.961 . S
H638 C623 0.997 . S
H639 C623 0.961 . S
H640 C624 0.931 . S
H641 C629 0.930 . S
H642 C630 0.956 . S
H643 C630 0.961 . S
H644 C630 0.961 . S
H645 C631 0.958 . S
H646 C631 0.961 . S
H647 C631 0.960 1_554 S
C648 C649 1.391 . S
C648 C650 1.394 . S
C648 H664 0.931 . S
C649 C648 1.391 . S
C649 C653 1.376 . S
C650 C648 1.394 . S
C650 C651 1.369 . S
C650 C654 1.531 . S
C651 C650 1.369 . S
C651 C652 1.410 1_545 S
C651 C659 1.503 . S
C652 C651 1.410 1_565 S
C652 C653 1.392 1_565 S
C652 C655 1.511 . S
C653 C649 1.376 . S
C653 C652 1.392 1_545 S
C653 H665 0.929 1_545 S
C654 C650 1.531 . S
C654 H666 0.960 . S
C654 H667 0.962 . S
C654 H668 0.960 . S
C655 C652 1.511 . S
C655 H669 0.961 . S
C655 H670 0.961 . S
C655 H671 0.961 . S
C656 C657 1.370 . S
C656 C658 1.363 . S
C656 H672 0.931 . S
C657 C656 1.370 . S
C657 C661 1.408 1_565 S
C658 C656 1.363 . S
C658 C659 1.370 1_565 S
C658 C662 1.524 . S
C659 C651 1.503 . S
C659 C658 1.370 1_545 S
C659 C660 1.403 . S
C660 C659 1.403 . S
C660 C661 1.404 . S
C660 C663 1.539 . S
C661 C657 1.408 1_545 S
C661 C660 1.404 . S
C661 H673 0.930 . S
C662 C658 1.524 . S
C662 H674 0.956 . S
C662 H675 0.961 . S
C662 H676 0.961 . S
C663 C660 1.539 . S
C663 H677 0.958 . S
C663 H678 0.961 . S
C663 H679 0.960 . S
H664 C648 0.931 . S
H665 C653 0.929 1_565 S
H666 C654 0.960 . S
H667 C654 0.962 . S
H668 C654 0.960 . S
H669 C655 0.961 . S
H670 C655 0.961 . S
H671 C655 0.961 . S
H672 C656 0.931 . S
H673 C661 0.930 . S
H674 C662 0.956 . S
H675 C662 0.961 . S
H676 C662 0.961 . S
H677 C663 0.958 . S
H678 C663 0.961 . S
H679 C663 0.960 . S
C680 C681 1.391 . S
C680 C682 1.394 . S
C680 H696 0.931 . S
C681 C680 1.391 . S
C681 C685 1.376 . S
C682 C680 1.394 . S
C682 C683 1.369 . S
C682 C686 1.531 . S
C683 C682 1.369 . S
C683 C684 1.410 . S
C683 C691 1.503 . S
C684 C683 1.410 . S
C684 C685 1.392 . S
C684 C687 1.511 . S
C685 C681 1.376 . S
C685 C684 1.392 . S
C685 H697 0.929 . S
C686 C682 1.531 . S
C686 H698 0.960 . S
C686 H699 0.962 . S
C686 H700 0.960 . S
C687 C684 1.511 . S
C687 H701 0.961 . S
C687 H702 0.961 . S
C687 H703 0.961 . S
C688 C689 1.370 . S
C688 C690 1.363 . S
C688 H704 0.931 . S
C689 C688 1.370 . S
C689 C693 1.408 . S
C690 C688 1.363 . S
C690 C691 1.370 . S
C690 C694 1.524 . S
C691 C683 1.503 . S
C691 C690 1.370 . S
C691 C692 1.403 . S
C692 C691 1.403 . S
C692 C693 1.404 . S
C692 C695 1.539 . S
C693 C689 1.408 . S
C693 C692 1.404 . S
C693 H705 0.930 . S
C694 C690 1.524 . S
C694 H706 0.956 . S
C694 H707 0.961 . S
C694 H708 0.961 . S
C695 C692 1.539 . S
C695 H709 0.958 . S
C695 H710 0.961 . S
C695 H711 0.960 . S
H696 C680 0.931 . S
H697 C685 0.929 . S
H698 C686 0.960 . S
H699 C686 0.962 . S
H700 C686 0.960 . S
H701 C687 0.961 . S
H702 C687 0.961 . S
H703 C687 0.961 . S
H704 C688 0.931 . S
H705 C693 0.930 . S
H706 C694 0.956 . S
H707 C694 0.961 . S
H708 C694 0.961 . S
H709 C695 0.958 . S
H710 C695 0.961 . S
H711 C695 0.960 . S
C712 C713 1.391 . S
C712 C714 1.394 . S
C712 H728 0.931 . S
C713 C712 1.391 . S
C713 C717 1.376 . S
C714 C712 1.394 . S
C714 C715 1.369 . S
C714 C718 1.531 . S
C715 C714 1.369 . S
C715 C716 1.410 . S
C715 C723 1.503 . S
C716 C715 1.410 . S
C716 C717 1.392 . S
C716 C719 1.511 . S
C717 C713 1.376 . S
C717 C716 1.392 . S
C717 H729 0.929 . S
C718 C714 1.531 . S
C718 H730 0.960 . S
C718 H731 0.962 . S
C718 H732 0.960 . S
C719 C716 1.511 . S
C719 H733 0.961 . S
C719 H734 0.961 . S
C719 H735 0.961 . S
C720 C721 1.370 . S
C720 C722 1.363 . S
C720 H736 0.931 . S
C721 C720 1.370 . S
C721 C725 1.408 . S
C722 C720 1.363 . S
C722 C723 1.370 . S
C722 C726 1.524 . S
C723 C715 1.503 . S
C723 C722 1.370 . S
C723 C724 1.403 . S
C724 C723 1.403 . S
C724 C725 1.404 . S
C724 C727 1.539 . S
C725 C721 1.408 . S
C725 C724 1.404 . S
C725 H737 0.930 . S
C726 C722 1.524 . S
C726 H738 0.956 . S
C726 H739 0.961 . S
C726 H740 0.961 . S
C727 C724 1.539 . S
C727 H741 0.958 . S
C727 H742 0.961 . S
C727 H743 0.960 . S
H728 C712 0.931 . S
H729 C717 0.929 . S
H730 C718 0.960 . S
H731 C718 0.962 . S
H732 C718 0.960 . S
H733 C719 0.961 . S
H734 C719 0.961 . S
H735 C719 0.961 . S
H736 C720 0.931 . S
H737 C725 0.930 . S
H738 C726 0.956 . S
H739 C726 0.961 . S
H740 C726 0.961 . S
H741 C727 0.958 . S
H742 C727 0.961 . S
H743 C727 0.960 . S
C744 C745 1.391 . S
C744 C746 1.394 . S
C744 H760 0.931 . S
C745 C744 1.391 . S
C745 C749 1.376 . S
C746 C744 1.394 . S
C746 C747 1.369 . S
C746 C750 1.531 . S
C747 C746 1.369 . S
C747 C748 1.410 . S
C747 C755 1.503 . S
C748 C747 1.410 . S
C748 C749 1.392 . S
C748 C751 1.511 . S
C749 C745 1.376 . S
C749 C748 1.392 . S
C749 H761 0.929 . S
C750 C746 1.531 . S
C750 H762 0.960 . S
C750 H763 0.962 . S
C750 H764 0.960 . S
C751 C748 1.511 . S
C751 H765 0.961 . S
C751 H766 0.961 . S
C751 H767 0.961 . S
C752 C753 1.370 . S
C752 C754 1.363 . S
C752 H768 0.931 . S
C753 C752 1.370 . S
C753 C757 1.408 . S
C754 C752 1.363 . S
C754 C755 1.370 . S
C754 C758 1.524 . S
C755 C747 1.503 . S
C755 C754 1.370 . S
C755 C756 1.403 . S
C756 C755 1.403 . S
C756 C757 1.404 . S
C756 C759 1.539 . S
C757 C753 1.408 . S
C757 C756 1.404 . S
C757 H769 0.930 . S
C758 C754 1.524 . S
C758 H770 0.956 . S
C758 H771 0.961 . S
C758 H772 0.961 . S
C759 C756 1.539 . S
C759 H773 0.958 . S
C759 H774 0.961 . S
C759 H775 0.960 . S
H760 C744 0.931 . S
H761 C749 0.929 . S
H762 C750 0.960 . S
H763 C750 0.962 . S
H764 C750 0.960 . S
H765 C751 0.961 . S
H766 C751 0.961 . S
H767 C751 0.961 . S
H768 C752 0.931 . S
H769 C757 0.930 . S
H770 C758 0.956 . S
H771 C758 0.961 . S
H772 C758 0.961 . S
H773 C759 0.958 . S
H774 C759 0.961 . S
H775 C759 0.960 . S
C776 C777 1.391 . S
C776 C778 1.394 . S
C776 H792 0.931 . S
C777 C776 1.391 . S
C777 C781 1.376 . S
C778 C776 1.394 . S
C778 C779 1.369 . S
C778 C782 1.531 . S
C779 C778 1.369 . S
C779 C780 1.410 . S
C779 C787 1.503 . S
C780 C779 1.410 . S
C780 C781 1.392 . S
C780 C783 1.511 . S
C781 C777 1.376 . S
C781 C780 1.392 . S
C781 H793 0.929 . S
C782 C778 1.531 . S
C782 H794 0.960 . S
C782 H795 0.962 . S
C782 H796 0.960 . S
C783 C780 1.511 . S
C783 H797 0.961 . S
C783 H798 0.961 . S
C783 H799 0.961 . S
C784 C785 1.370 . S
C784 C786 1.363 . S
C784 H800 0.931 . S
C785 C784 1.370 . S
C785 C789 1.408 . S
C786 C784 1.363 . S
C786 C787 1.370 . S
C786 C790 1.524 . S
C787 C779 1.503 . S
C787 C786 1.370 . S
C787 C788 1.403 . S
C788 C787 1.403 . S
C788 C789 1.404 . S
C788 C791 1.539 . S
C789 C785 1.408 . S
C789 C788 1.404 . S
C789 H801 0.930 . S
C790 C786 1.524 . S
C790 H802 0.956 . S
C790 H803 0.961 . S
C790 H804 0.961 . S
C791 C788 1.539 . S
C791 H805 0.958 . S
C791 H806 0.961 . S
C791 H807 0.960 . S
H792 C776 0.931 . S
H793 C781 0.929 . S
H794 C782 0.960 . S
H795 C782 0.962 . S
H796 C782 0.960 . S
H797 C783 0.961 . S
H798 C783 0.961 . S
H799 C783 0.961 . S
H800 C784 0.931 . S
H801 C789 0.930 . S
H802 C790 0.956 . S
H803 C790 0.961 . S
H804 C790 0.961 . S
H805 C791 0.958 . S
H806 C791 0.961 . S
H807 C791 0.960 . S
C808 C809 1.391 . S
C808 C810 1.394 . S
C808 H824 0.931 . S
C809 C808 1.391 . S
C809 C813 1.376 . S
C810 C808 1.394 . S
C810 C811 1.369 . S
C810 C814 1.531 . S
C811 C810 1.369 . S
C811 C812 1.410 1_455 S
C811 C819 1.503 1_445 S
C812 C811 1.410 1_655 S
C812 C813 1.392 1_655 S
C812 C815 1.511 . S
C813 C809 1.376 . S
C813 C812 1.392 1_455 S
C813 H825 0.929 . S
C814 C810 1.531 . S
C814 H826 0.960 1_545 S
C814 H827 0.962 1_545 S
C814 H828 0.960 . S
C815 C812 1.511 . S
C815 H829 0.961 . S
C815 H830 0.961 . S
C815 H831 0.961 . S
C816 C817 1.370 . S
C816 C818 1.351 1_655 S
C816 H832 0.931 . S
C817 C816 1.370 . S
C817 C821 1.408 . S
C818 C816 1.351 1_455 S
C818 C819 1.359 1_455 S
C818 C822 1.548 . S
C819 C811 1.503 1_665 S
C819 C818 1.359 1_655 S
C819 C820 1.403 . S
C820 C819 1.403 . S
C820 C821 1.404 . S
C820 C823 1.539 1_565 S
C821 C817 1.408 . S
C821 C820 1.404 . S
C821 H833 0.930 . S
C822 C818 1.548 . S
C822 H834 0.956 . S
C822 H835 0.961 . S
C822 H836 0.961 . S
C823 C820 1.539 1_545 S
C823 H837 0.958 . S
C823 H838 0.961 . S
C823 H839 0.960 . S
H824 C808 0.931 . S
H825 C813 0.929 . S
H826 C814 0.960 1_565 S
H827 C814 0.962 1_565 S
H828 C814 0.960 . S
H829 C815 0.961 . S
H830 C815 0.961 . S
H831 C815 0.961 . S
H832 C816 0.931 . S
H833 C821 0.930 . S
H834 C822 0.956 . S
H835 C822 0.961 . S
H836 C822 0.961 . S
H837 C823 0.958 . S
H838 C823 0.961 . S
H839 C823 0.960 . S
C840 C841 1.391 . S
C840 C842 1.394 . S
C840 H856 0.931 . S
C841 C840 1.391 . S
C841 C845 1.376 . S
C842 C840 1.394 . S
C842 C843 1.369 . S
C842 C846 1.531 1_455 S
C843 C842 1.369 . S
C843 C844 1.410 1_565 S
C843 C851 1.503 1_465 S
C844 C843 1.410 1_545 S
C844 C845 1.392 1_545 S
C844 C847 1.511 . S
C845 C841 1.376 . S
C845 C844 1.392 1_565 S
C845 H857 0.929 1_565 S
C846 C842 1.531 1_655 S
C846 H858 0.960 . S
C846 H859 0.962 . S
C846 H860 0.960 . S
C847 C844 1.511 . S
C847 H861 0.961 . S
C847 H862 0.961 . S
C847 H863 0.961 . S
C848 C849 1.370 . S
C848 C850 1.363 . S
C848 H864 0.931 . S
C849 C848 1.370 . S
C849 C853 1.408 . S
C850 C848 1.363 . S
C850 C851 1.370 . S
C850 C854 1.524 . S
C851 C843 1.503 1_645 S
C851 C850 1.370 . S
C851 C852 1.403 . S
C852 C851 1.403 . S
C852 C853 1.404 . S
C852 C855 1.539 . S
C853 C849 1.408 . S
C853 C852 1.404 . S
C853 H865 0.930 . S
C854 C850 1.524 . S
C854 H866 0.956 1_545 S
C854 H867 0.961 1_655 S
C854 H868 0.961 . S
C855 C852 1.539 . S
C855 H869 0.958 1_545 S
C855 H870 0.961 . S
C855 H871 0.960 1_655 S
H856 C840 0.931 . S
H857 C845 0.929 1_545 S
H858 C846 0.960 . S
H859 C846 0.962 . S
H860 C846 0.960 . S
H861 C847 0.961 . S
H862 C847 0.961 . S
H863 C847 0.961 . S
H864 C848 0.931 . S
H865 C853 0.930 . S
H866 C854 0.956 1_565 S
H867 C854 0.961 1_455 S
H868 C854 0.961 . S
H869 C855 0.958 1_565 S
H870 C855 0.961 . S
H871 C855 0.960 1_455 S
C872 C873 1.391 . S
C872 C874 1.394 1_655 S
C872 H888 0.916 1_655 S
C873 C872 1.391 . S
C873 C877 1.376 . S
C874 C872 1.394 1_455 S
C874 C875 1.369 1_455 S
C874 C878 1.531 . S
C875 C874 1.369 1_655 S
C875 C876 1.410 . S
C875 C883 1.503 1_645 S
C876 C875 1.410 . S
C876 C877 1.392 . S
C876 C879 1.511 1_545 S
C877 C873 1.376 . S
C877 C876 1.392 . S
C877 H889 0.929 . S
C878 C874 1.531 . S
C878 H890 0.960 . S
C878 H891 0.962 . S
C878 H892 0.960 . S
C879 C876 1.511 1_565 S
C879 H893 0.961 . S
C879 H894 0.961 . S
C879 H895 0.961 . S
C880 C881 1.370 . S
C880 C882 1.363 . S
C880 H896 0.931 . S
C881 C880 1.370 . S
C881 C885 1.408 . S
C882 C880 1.363 . S
C882 C883 1.370 . S
C882 C886 1.524 . S
C883 C875 1.503 1_465 S
C883 C882 1.370 . S
C883 C884 1.403 . S
C884 C883 1.403 . S
C884 C885 1.404 . S
C884 C887 1.539 . S
C885 C881 1.408 . S
C885 C884 1.404 . S
C885 H897 0.930 . S
C886 C882 1.524 . S
C886 H898 0.956 1_565 S
C886 H899 0.961 1_455 S
C886 H900 0.961 . S
C887 C884 1.539 . S
C887 H901 0.958 . S
C887 H902 0.967 . S
C887 H903 0.960 1_455 S
H888 C872 0.916 1_455 S
H889 C877 0.929 . S
H890 C878 0.960 . S
H891 C878 0.962 . S
H892 C878 0.960 . S
H893 C879 0.961 . S
H894 C879 0.961 . S
H895 C879 0.961 . S
H896 C880 0.931 . S
H897 C885 0.930 . S
H898 C886 0.956 1_545 S
H899 C886 0.961 1_655 S
H900 C886 0.961 . S
H901 C887 0.958 . S
H902 C887 0.967 . S
H903 C887 0.960 1_655 S
C904 C905 1.391 . S
C904 C906 1.394 . S
C904 H920 0.931 . S
C905 C904 1.391 . S
C905 C909 1.376 . S
C906 C904 1.394 . S
C906 C907 1.369 . S
C906 C910 1.531 1_655 S
C907 C906 1.369 . S
C907 C908 1.410 1_565 S
C907 C915 1.503 1_665 S
C908 C907 1.410 1_545 S
C908 C909 1.392 1_545 S
C908 C911 1.511 . S
C909 C905 1.376 . S
C909 C908 1.392 1_565 S
C909 H921 0.929 . S
C910 C906 1.531 1_455 S
C910 H922 0.960 . S
C910 H923 0.962 . S
C910 H924 0.960 1_455 S
C911 C908 1.511 . S
C911 H925 0.961 . S
C911 H926 0.961 . S
C911 H927 0.961 . S
C912 C913 1.370 . S
C912 C914 1.365 . S
C912 H928 0.931 . S
C913 C912 1.370 . S
C913 C917 1.408 . S
C914 C912 1.365 . S
C914 C915 1.372 . S
C914 C918 1.521 1_545 S
C915 C907 1.503 1_445 S
C915 C914 1.372 . S
C915 C916 1.403 . S
C916 C915 1.403 . S
C916 C917 1.404 . S
C916 C919 1.539 1_455 S
C917 C913 1.408 . S
C917 C916 1.404 . S
C917 H929 0.930 . S
C918 C914 1.521 1_565 S
C918 H930 0.956 . S
C918 H931 0.961 . S
C918 H932 0.961 . S
C919 C916 1.539 1_655 S
C919 H933 0.958 . S
C919 H934 0.961 . S
C919 H935 0.960 . S
H920 C904 0.931 . S
H921 C909 0.929 . S
H922 C910 0.960 . S
H923 C910 0.962 . S
H924 C910 0.960 1_655 S
H925 C911 0.961 . S
H926 C911 0.961 . S
H927 C911 0.961 . S
H928 C912 0.931 . S
H929 C917 0.930 . S
H930 C918 0.956 . S
H931 C918 0.961 . S
H932 C918 0.961 . S
H933 C919 0.958 . S
H934 C919 0.961 . S
H935 C919 0.960 . S
C425 C22 1.856 . S
C433 C128 1.874 . S
C457 C181 1.861 . S
C465 C75 1.864 . S
C489 C340 1.869 . S
C497 C234 1.861 . S
C521 C287 1.853 . S
C529 C393 1.875 . S
C553 C357 1.799 . S
C561 C39 1.796 . S
C585 C92 1.771 . S
C593 C410 1.782 . S
C617 C145 1.785 . S
C625 C251 1.785 . S
C649 C304 1.770 . S
C657 C198 1.787 . S
C681 C38 1.862 . S
C689 C303 1.845 . S
C713 C356 1.864 . S
C721 C91 1.844 . S
C745 C409 1.830 . S
C753 C144 1.858 . S
C777 C197 1.853 . S
C785 C250 1.848 . S
C809 C29 1.642 . S
C817 C135 1.680 . S
C841 C188 1.665 . S
C849 C82 1.674 . S
C873 C347 1.663 . S
C881 C241 1.664 . S
C905 C400 1.644 . S
C913 C294 1.680 . S
