# Generated by pormake.
# Topology gan, (5)-cn, num edge types: 1
# Building blocks:
#     Node 0, Type 0, BuildingBlock: XOMCOT_clean_sbu_1, # of connection points: 5
#     Node 1, Type 0, BuildingBlock: XOMCOT_clean_sbu_1, # of connection points: 5
#     Node 2, Type 0, BuildingBlock: XOMCOT_clean_sbu_1, # of connection points: 5
#     Node 3, Type 0, BuildingBlock: XOMCOT_clean_sbu_1, # of connection points: 5
#     Node 4, Type 0, BuildingBlock: XOMCOT_clean_sbu_1, # of connection points: 5
#     Node 5, Type 0, BuildingBlock: XOMCOT_clean_sbu_1, # of connection points: 5
#     Node 6, Type 0, BuildingBlock: XOMCOT_clean_sbu_1, # of connection points: 5
#     Node 7, Type 0, BuildingBlock: XOMCOT_clean_sbu_1, # of connection points: 5
#     Node 8, Type 0, BuildingBlock: XOMCOT_clean_sbu_1, # of connection points: 5
#     Node 9, Type 0, BuildingBlock: XOMCOT_clean_sbu_1, # of connection points: 5
#     Node 10, Type 0, BuildingBlock: XOMCOT_clean_sbu_1, # of connection points: 5
#     Node 11, Type 0, BuildingBlock: XOMCOT_clean_sbu_1, # of connection points: 5
#     Node 12, Type 0, BuildingBlock: XOMCOT_clean_sbu_1, # of connection points: 5
#     Node 13, Type 0, BuildingBlock: XOMCOT_clean_sbu_1, # of connection points: 5
#     Node 14, Type 0, BuildingBlock: XOMCOT_clean_sbu_1, # of connection points: 5
#     Node 15, Type 0, BuildingBlock: XOMCOT_clean_sbu_1, # of connection points: 5
#     Edge 16, Type (0, 0), BuildingBlock: UVAHIK_clean_linker_0, # of connection points: 2
#     Edge 17, Type (0, 0), BuildingBlock: UVAHIK_clean_linker_0, # of connection points: 2
#     Edge 18, Type (0, 0), BuildingBlock: UVAHIK_clean_linker_0, # of connection points: 2
#     Edge 19, Type (0, 0), BuildingBlock: UVAHIK_clean_linker_0, # of connection points: 2
#     Edge 20, Type (0, 0), BuildingBlock: UVAHIK_clean_linker_0, # of connection points: 2
#     Edge 21, Type (0, 0), BuildingBlock: UVAHIK_clean_linker_0, # of connection points: 2
#     Edge 22, Type (0, 0), BuildingBlock: UVAHIK_clean_linker_0, # of connection points: 2
#     Edge 23, Type (0, 0), BuildingBlock: UVAHIK_clean_linker_0, # of connection points: 2
#     Edge 24, Type (0, 0), BuildingBlock: UVAHIK_clean_linker_0, # of connection points: 2
#     Edge 25, Type (0, 0), BuildingBlock: UVAHIK_clean_linker_0, # of connection points: 2
#     Edge 26, Type (0, 0), BuildingBlock: UVAHIK_clean_linker_0, # of connection points: 2
#     Edge 27, Type (0, 0), BuildingBlock: UVAHIK_clean_linker_0, # of connection points: 2
#     Edge 28, Type (0, 0), BuildingBlock: UVAHIK_clean_linker_0, # of connection points: 2
#     Edge 29, Type (0, 0), BuildingBlock: UVAHIK_clean_linker_0, # of connection points: 2
#     Edge 30, Type (0, 0), BuildingBlock: UVAHIK_clean_linker_0, # of connection points: 2
#     Edge 31, Type (0, 0), BuildingBlock: UVAHIK_clean_linker_0, # of connection points: 2
#     Edge 32, Type (0, 0), BuildingBlock: UVAHIK_clean_linker_0, # of connection points: 2
#     Edge 33, Type (0, 0), BuildingBlock: UVAHIK_clean_linker_0, # of connection points: 2
#     Edge 34, Type (0, 0), BuildingBlock: UVAHIK_clean_linker_0, # of connection points: 2
#     Edge 35, Type (0, 0), BuildingBlock: UVAHIK_clean_linker_0, # of connection points: 2
#     Edge 36, Type (0, 0), BuildingBlock: UVAHIK_clean_linker_0, # of connection points: 2
#     Edge 37, Type (0, 0), BuildingBlock: UVAHIK_clean_linker_0, # of connection points: 2
#     Edge 38, Type (0, 0), BuildingBlock: UVAHIK_clean_linker_0, # of connection points: 2
#     Edge 39, Type (0, 0), BuildingBlock: UVAHIK_clean_linker_0, # of connection points: 2
#     Edge 40, Type (0, 0), BuildingBlock: UVAHIK_clean_linker_0, # of connection points: 2
#     Edge 41, Type (0, 0), BuildingBlock: UVAHIK_clean_linker_0, # of connection points: 2
#     Edge 42, Type (0, 0), BuildingBlock: UVAHIK_clean_linker_0, # of connection points: 2
#     Edge 43, Type (0, 0), BuildingBlock: UVAHIK_clean_linker_0, # of connection points: 2
#     Edge 44, Type (0, 0), BuildingBlock: UVAHIK_clean_linker_0, # of connection points: 2
#     Edge 45, Type (0, 0), BuildingBlock: UVAHIK_clean_linker_0, # of connection points: 2
#     Edge 46, Type (0, 0), BuildingBlock: UVAHIK_clean_linker_0, # of connection points: 2
#     Edge 47, Type (0, 0), BuildingBlock: UVAHIK_clean_linker_0, # of connection points: 2
#     Edge 48, Type (0, 0), BuildingBlock: UVAHIK_clean_linker_0, # of connection points: 2
#     Edge 49, Type (0, 0), BuildingBlock: UVAHIK_clean_linker_0, # of connection points: 2
#     Edge 50, Type (0, 0), BuildingBlock: UVAHIK_clean_linker_0, # of connection points: 2
#     Edge 51, Type (0, 0), BuildingBlock: UVAHIK_clean_linker_0, # of connection points: 2
#     Edge 52, Type (0, 0), BuildingBlock: UVAHIK_clean_linker_0, # of connection points: 2
#     Edge 53, Type (0, 0), BuildingBlock: UVAHIK_clean_linker_0, # of connection points: 2
#     Edge 54, Type (0, 0), BuildingBlock: UVAHIK_clean_linker_0, # of connection points: 2
#     Edge 55, Type (0, 0), BuildingBlock: UVAHIK_clean_linker_0, # of connection points: 2
# Relax obj value: 0.092
# Max RMSD: 0.105
# Mean RMSD: 0.097
data_MOF--net-gan--node1-XOMCOT_clean_sbu_1--edge1-UVAHIK_clean_linker_0
_symmetry_space_group_name_H-M    P1
_symmetry_Int_Tables_number       1
_symmetry_cell_setting            triclinic
loop_
_symmetry_equiv_pos_as_xyz
'x, y, z'
_cell_length_a     53.017325
_cell_length_b     52.561876
_cell_length_c     51.451293
_cell_angle_alpha  89.938156
_cell_angle_beta   90.310409
_cell_angle_gamma 90.868208
loop_
_atom_site_label
_atom_site_type_symbol
_atom_site_fract_x
_atom_site_fract_y
_atom_site_fract_z
_atom_type_partial_charge
C0 C 0.04495 0.13417 0.19146 0.0
C1 C 0.02578 0.12192 0.17803 0.0
N2 N 0.03374 0.11684 0.15376 0.0
N3 N 0.06513 0.13718 0.17591 0.0
C4 C 0.05779 0.12617 0.15303 0.0
H5 H 0.04417 0.14062 0.21138 0.0
Co6 Co 0.09521 0.15454 0.18656 0.0
C7 C 0.11612 0.16536 0.13491 0.0
O8 O 0.11415 0.18991 0.13897 0.0
N9 N 0.12577 0.17192 0.19737 0.0
C10 C 0.16707 0.17965 0.20184 0.0
C11 C 0.14893 0.16568 0.18884 0.0
C12 C 0.13061 0.19003 0.21583 0.0
N13 N 0.1557 0.19501 0.21893 0.0
O14 O 0.08137 0.18572 0.17659 0.0
H15 H 0.15265 0.15118 0.17455 0.0
H16 H 0.1162 0.19862 0.22758 0.0
O17 O 0.10911 0.14958 0.15236 0.0
C18 C 0.07151 0.19746 0.19544 0.0
O19 O 0.06882 0.18556 0.21775 0.0
N20 N 0.10848 0.12453 0.19872 0.0
C21 C 0.14018 0.09195 0.2253 0.0
C22 C 0.13754 0.09019 0.19816 0.0
C23 C 0.12137 0.10672 0.18512 0.0
C24 C 0.10878 0.1247 0.22512 0.0
C25 C 0.1247 0.10876 0.23884 0.0
H26 H 0.12056 0.10624 0.1642 0.0
H27 H 0.09842 0.13909 0.23542 0.0
H28 H 0.06959 0.12545 0.13597 0.0
H29 H 1.00738 0.11694 0.18568 0.0
H30 H 0.18724 0.17835 0.19911 0.0
H31 H 0.14861 0.07695 0.18704 0.0
H32 H 0.12611 0.11099 0.25971 0.0
C33 C 0.21292 0.8607 0.30774 0.0
C34 C 0.22982 0.84855 0.29196 0.0
N35 N 0.23843 0.82773 0.30427 0.0
N36 N 0.21054 0.84811 0.33043 0.0
C37 C 0.22636 0.8279 0.32769 0.0
H38 H 0.20243 0.87745 0.30257 0.0
Co39 Co 0.18635 0.85886 0.3561 0.0
C40 C 0.20343 0.83143 0.40421 0.0
O41 O 0.18127 0.82169 0.41014 0.0
N42 N 0.16093 0.8703 0.38205 0.0
C43 C 0.12672 0.86845 0.4076 0.0
C44 C 0.14261 0.85497 0.39202 0.0
C45 C 0.15525 0.89357 0.39273 0.0
N46 N 0.13425 0.89298 0.4081 0.0
O47 O 0.20539 0.8892 0.36111 0.0
H48 H 0.1403 0.8349 0.38813 0.0
H49 H 0.16575 0.9109 0.38887 0.0
O50 O 0.20636 0.84416 0.38332 0.0
C51 C 0.19688 0.90831 0.3491 0.0
O52 O 0.17543 0.90616 0.33631 0.0
N53 N 0.16763 0.82968 0.34896 0.0
C54 C 0.13606 0.79088 0.33055 0.0
C55 C 0.15816 0.78521 0.34452 0.0
C56 C 0.17385 0.80498 0.35348 0.0
C57 C 0.14695 0.83549 0.33452 0.0
C58 C 0.13067 0.81648 0.32554 0.0
H59 H 0.19105 0.80037 0.3636 0.0
H60 H 0.14292 0.85521 0.33036 0.0
H61 H 0.2289 0.81349 0.34245 0.0
H62 H 0.23468 0.85427 0.27238 0.0
H63 H 0.11059 0.86057 0.41779 0.0
H64 H 0.16339 0.76572 0.34833 0.0
H65 H 0.11372 0.82197 0.31529 0.0
C66 C 0.44707 0.87657 0.65157 0.0
C67 C 0.43304 0.85845 0.6647 0.0
N68 N 0.41466 0.86999 0.67817 0.0
N69 N 0.43806 0.89985 0.65656 0.0
C70 C 0.41827 0.89521 0.67288 0.0
H71 H 0.46285 0.87292 0.63896 0.0
Co72 Co 0.45149 0.9305 0.64138 0.0
C73 C 0.44946 0.96447 0.68595 0.0
O74 O 0.47307 0.97104 0.68156 0.0
N75 N 0.46474 0.96137 0.62537 0.0
C76 C 0.4647 1.00134 0.61054 0.0
C77 C 0.45276 0.98384 0.62631 0.0
C78 C 0.48406 0.96595 0.60833 0.0
N79 N 0.48443 0.99025 0.59896 0.0
O80 O 0.48184 0.92577 0.66053 0.0
H81 H 0.43565 0.98715 0.63705 0.0
H82 H 0.49681 0.95151 0.60177 0.0
O83 O 0.43799 0.94927 0.67043 0.0
C84 C 0.50025 0.91491 0.64972 0.0
O85 O 0.49873 0.90948 0.62484 0.0
N86 N 0.42234 0.9335 0.62194 0.0
C87 C 0.38106 0.92712 0.58904 0.0
C88 C 0.37787 0.93641 0.61438 0.0
C89 C 0.39891 0.93958 0.63064 0.0
C90 C 0.42587 0.92537 0.5972 0.0
C91 C 0.40551 0.92215 0.58034 0.0
H92 H 0.39615 0.9458 0.6504 0.0
H93 H 0.44458 0.92027 0.59095 0.0
H94 H 0.40638 0.91 0.68029 0.0
H95 H 0.43642 0.83821 0.66432 0.0
H96 H 0.45891 1.02079 0.60753 0.0
H97 H 0.35928 0.94054 0.62173 0.0
H98 H 0.40881 0.91452 0.56113 0.0
C99 C 0.39584 0.13933 0.97336 0.0
C100 C 0.41151 0.12665 0.99011 0.0
N101 N 0.40724 0.10144 0.98776 0.0
N102 N 0.38127 0.12259 0.96002 0.0
C103 C 0.38876 0.09938 0.96919 0.0
H104 H 0.39464 0.15977 0.97147 0.0
Co105 Co 0.35558 0.13596 0.93723 0.0
C106 C 0.35283 0.10378 0.89121 0.0
O107 O 0.35085 0.12495 0.87779 0.0
N108 N 0.32865 0.15037 0.91528 0.0
C109 C 0.29124 0.15012 0.8947 0.0
C110 C 0.30731 0.13669 0.91042 0.0
C111 C 0.32432 0.1728 0.90235 0.0
N112 N 0.30179 0.17296 0.8894 0.0
O113 O 0.33026 0.1215 0.95872 0.0
H114 H 0.30374 0.11758 0.91742 0.0
H115 H 0.33735 0.18872 0.90183 0.0
O116 O 0.35542 0.10474 0.91598 0.0
C117 C 0.32595 0.13147 0.98068 0.0
O118 O 0.34044 0.15034 0.98886 0.0
N119 N 0.38117 0.15071 0.91694 0.0
C120 C 0.42062 0.17405 0.89023 0.0
C121 C 0.41916 0.14754 0.89217 0.0
C122 C 0.39954 0.13625 0.90604 0.0
C123 C 0.38344 0.17655 0.91693 0.0
C124 C 0.40264 0.18871 0.90298 0.0
H125 H 0.39957 0.11585 0.90853 0.0
H126 H 0.37068 0.18775 0.92837 0.0
H127 H 0.38018 0.0815 0.96319 0.0
H128 H 0.42491 0.13543 1.00343 0.0
H129 H 0.27298 0.14351 0.88778 0.0
H130 H 0.43322 0.13564 0.8833 0.0
H131 H 0.40398 0.20929 0.90295 0.0
C132 C 0.7022 0.36356 0.78953 0.0
C133 C 0.71678 0.34878 0.77368 0.0
N134 N 0.73689 0.34048 0.78724 0.0
N135 N 0.71268 0.36524 0.81339 0.0
C136 C 0.73384 0.35066 0.81149 0.0
H137 H 0.68459 0.37227 0.78407 0.0
Co138 Co 0.69588 0.38385 0.84076 0.0
C139 C 0.71078 0.35893 0.88894 0.0
O140 O 0.68677 0.35508 0.89412 0.0
N141 N 0.67927 0.40345 0.86882 0.0
C142 C 0.68073 0.42791 0.90458 0.0
C143 C 0.69448 0.41497 0.8866 0.0
C144 C 0.65562 0.4106 0.87682 0.0
N145 N 0.65608 0.42532 0.89882 0.0
O146 O 0.71965 0.41139 0.83768 0.0
H147 H 0.71483 0.41408 0.88668 0.0
H148 H 0.6383 0.40506 0.86709 0.0
O149 O 0.71715 0.36824 0.86692 0.0
C150 C 0.71619 0.42637 0.8186 0.0
O151 O 0.70061 0.41915 0.8 0.0
N152 N 0.67173 0.35794 0.84191 0.0
C153 C 0.63401 0.32138 0.8338 0.0
C154 C 0.65849 0.31416 0.8409 0.0
C155 C 0.67722 0.33276 0.84451 0.0
C156 C 0.6485 0.36517 0.83371 0.0
C157 C 0.62917 0.34732 0.83021 0.0
H158 H 0.69628 0.32691 0.84861 0.0
H159 H 0.64523 0.38486 0.8289 0.0
H160 H 0.74669 0.34751 0.82754 0.0
H161 H 0.71242 0.34397 0.75369 0.0
H162 H 0.68851 0.43883 0.92063 0.0
H163 H 0.66335 0.29432 0.84292 0.0
H164 H 0.61067 0.35387 0.82454 0.0
C165 C 0.91282 0.39731 0.1305 0.0
C166 C 0.89859 0.37832 0.14204 0.0
N167 N 0.89398 0.38482 0.1669 0.0
N168 N 0.91741 0.41614 0.14769 0.0
C169 C 0.9059 0.40781 0.16991 0.0
H170 H 0.91878 0.39778 0.11043 0.0
Co171 Co 0.9334 0.44743 0.13694 0.0
C172 C 0.93726 0.47411 0.1867 0.0
O173 O 0.96128 0.47891 0.18241 0.0
N174 N 0.94941 0.47859 0.12519 0.0
C175 C 0.95593 0.5198 0.11674 0.0
C176 C 0.94141 0.50231 0.13019 0.0
C177 C 0.96874 0.48235 0.10809 0.0
N178 N 0.97329 0.50739 0.10267 0.0
O179 O 0.96393 0.43683 0.15181 0.0
H180 H 0.9254 0.50668 0.14224 0.0
H181 H 0.979 0.46699 0.09936 0.0
O182 O 0.92394 0.46261 0.16955 0.0
C183 C 0.97844 0.42455 0.13704 0.0
O184 O 0.97136 0.42024 0.1129 0.0
N185 N 0.90362 0.45687 0.1212 0.0
C186 C 0.85968 0.4586 0.09176 0.0
C187 C 0.85864 0.45978 0.11899 0.0
C188 C 0.88098 0.45886 0.13348 0.0
C189 C 0.90507 0.45706 0.09485 0.0
C190 C 0.88335 0.45814 0.07972 0.0
H191 H 0.87989 0.45794 0.15442 0.0
H192 H 0.92312 0.45461 0.08554 0.0
H193 H 0.90538 0.41874 0.18764 0.0
H194 H 0.89189 0.36108 0.13263 0.0
H195 H 0.95314 0.54014 0.11666 0.0
H196 H 0.84072 0.46006 0.12898 0.0
H197 H 0.88509 0.45656 0.05882 0.0
C198 C 0.90211 0.64103 0.46557 0.0
C199 C 0.91899 0.62853 0.48115 0.0
N200 N 0.91122 0.60416 0.48415 0.0
N201 N 0.88347 0.62496 0.45798 0.0
C202 C 0.88953 0.60242 0.46967 0.0
H203 H 0.90309 0.66099 0.46053 0.0
Co204 Co 0.85546 0.63833 0.43853 0.0
C205 C 0.84251 0.60227 0.39725 0.0
O206 O 0.83775 0.62213 0.38261 0.0
N207 N 0.8264 0.6531 0.42014 0.0
C208 C 0.78588 0.65626 0.40801 0.0
C209 C 0.80309 0.64242 0.42198 0.0
C210 C 0.82233 0.67392 0.40458 0.0
N211 N 0.79778 0.67628 0.39693 0.0
O212 O 0.83363 0.62726 0.46537 0.0
H213 H 0.79876 0.62509 0.43248 0.0
H214 H 0.8368 0.68738 0.39892 0.0
O215 O 0.84995 0.60553 0.42076 0.0
C216 C 0.83068 0.64081 0.48549 0.0
O217 O 0.84289 0.66268 0.48737 0.0
N218 N 0.87822 0.64924 0.41268 0.0
C219 C 0.91639 0.66605 0.37958 0.0
C220 C 0.91198 0.64006 0.38343 0.0
C221 C 0.8932 0.63206 0.40042 0.0
C222 C 0.88302 0.67466 0.41003 0.0
C223 C 0.90162 0.68355 0.39298 0.0
H224 H 0.89177 0.612 0.40465 0.0
H225 H 0.87308 0.68806 0.422 0.0
H226 H 0.87779 0.58544 0.46846 0.0
H227 H 0.93576 0.637 0.4898 0.0
H228 H 0.76606 0.65148 0.4058 0.0
H229 H 0.92359 0.62599 0.37408 0.0
H230 H 0.90533 0.70381 0.39135 0.0
C231 C 0.77732 0.89554 0.93446 0.0
C232 C 0.76203 0.88207 0.91768 0.0
N233 N 0.774 0.87954 0.89483 0.0
N234 N 0.79906 0.90204 0.92255 0.0
C235 C 0.79666 0.89171 0.89833 0.0
H236 H 0.773 0.90003 0.95443 0.0
Co237 Co 0.82427 0.9203 0.94162 0.0
C238 C 0.8323 0.95948 0.90102 0.0
O239 O 0.82131 0.9771 0.91484 0.0
N240 N 0.84915 0.9378 0.9625 0.0
C241 C 0.87614 0.93924 0.99596 0.0
C242 C 0.85871 0.92465 0.98276 0.0
C243 C 0.86085 0.96108 0.9644 0.0
N244 N 0.87757 0.96221 0.98462 0.0
O245 O 0.80022 0.94589 0.94792 0.0
H246 H 0.85318 0.90539 0.98777 0.0
H247 H 0.85735 0.97678 0.95134 0.0
O248 O 0.83473 0.93709 0.9101 0.0
C249 C 0.79076 0.95006 0.97008 0.0
O250 O 0.80122 0.9398 0.99072 0.0
N251 N 0.84712 0.89447 0.9358 0.0
C252 C 0.88294 0.85655 0.93602 0.0
C253 C 0.88849 0.88045 0.92519 0.0
C254 C 0.8703 0.89924 0.92533 0.0
C255 C 0.84104 0.87107 0.94556 0.0
C256 C 0.8587 0.85166 0.94567 0.0
H257 H 0.87538 0.91802 0.91837 0.0
H258 H 0.82282 0.86782 0.95441 0.0
H259 H 0.81117 0.89307 0.88365 0.0
H260 H 0.74364 0.87411 0.9223 0.0
H261 H 0.88672 0.93357 1.01303 0.0
H262 H 0.907 0.88483 0.91741 0.0
H263 H 0.85386 0.83349 0.95442 0.0
C264 C 0.94019 0.12984 0.6662 0.0
C265 C 0.92658 0.14454 0.68312 0.0
N266 N 0.90998 0.15868 0.66956 0.0
N267 N 0.93258 0.13419 0.64164 0.0
C268 C 0.91422 0.15208 0.64426 0.0
H269 H 0.95506 0.11692 0.67149 0.0
Co270 Co 0.94808 0.11809 0.61209 0.0
C271 C 0.9063 0.11543 0.57405 0.0
O272 O 0.91158 0.0918 0.5681 0.0
N273 N 0.96444 0.10252 0.58179 0.0
C274 C 0.97834 0.10137 0.54077 0.0
C275 C 0.96523 0.11505 0.55887 0.0
C276 C 0.97803 0.08099 0.57676 0.0
N277 N 0.98655 0.07972 0.55175 0.0
O278 O 0.96333 0.14968 0.60422 0.0
H279 H 0.95689 0.13342 0.55546 0.0
H280 H 0.98175 0.06637 0.59095 0.0
O281 O 0.91939 0.12729 0.59112 0.0
C282 C 0.98451 0.15273 0.61549 0.0
O283 O 0.99567 0.13257 0.62501 0.0
N284 N 0.93368 0.08708 0.62238 0.0
C285 C 0.91725 0.04761 0.65474 0.0
C286 C 0.89987 0.06386 0.64282 0.0
C287 C 0.90849 0.08369 0.62695 0.0
C288 C 0.95071 0.07099 0.63312 0.0
C289 C 0.94289 0.05071 0.64871 0.0
H290 H 0.89507 0.09772 0.62076 0.0
H291 H 0.97063 0.07535 0.63175 0.0
H292 H 0.90419 0.16011 0.62791 0.0
H293 H 0.9293 0.14503 0.70396 0.0
H294 H 0.98201 0.10739 0.52101 0.0
H295 H 0.88001 0.06284 0.64758 0.0
H296 H 0.95704 0.03876 0.65752 0.0
C297 C 0.63959 0.15362 0.37191 0.0
C298 C 0.62225 0.14013 0.3865 0.0
N299 N 0.6326 0.13445 0.40976 0.0
N300 N 0.66106 0.15702 0.38568 0.0
C301 C 0.65632 0.1448 0.40866 0.0
H302 H 0.63674 0.16035 0.35226 0.0
Co303 Co 0.69055 0.17418 0.37246 0.0
C304 C 0.71054 0.2031 0.41757 0.0
O305 O 0.71415 0.22377 0.40359 0.0
N306 N 0.721 0.19124 0.35912 0.0
C307 C 0.76203 0.20181 0.35703 0.0
C308 C 0.74415 0.18667 0.36906 0.0
C309 C 0.72579 0.20928 0.34042 0.0
N310 N 0.75062 0.2162 0.33892 0.0
O311 O 0.70812 0.14331 0.37693 0.0
H312 H 0.74787 0.17337 0.38461 0.0
H313 H 0.7115 0.21779 0.32838 0.0
O314 O 0.70017 0.18347 0.40734 0.0
C315 C 0.71352 0.13061 0.35679 0.0
O316 O 0.71147 0.1415 0.33389 0.0
N317 N 0.67166 0.20314 0.36668 0.0
C318 C 0.63645 0.23866 0.35057 0.0
C319 C 0.64253 0.236 0.37704 0.0
C320 C 0.65993 0.21769 0.3848 0.0
C321 C 0.66571 0.20534 0.34103 0.0
C322 C 0.64859 0.22329 0.33247 0.0
H323 H 0.66277 0.21431 0.40529 0.0
H324 H 0.67378 0.19235 0.32718 0.0
H325 H 0.66996 0.14358 0.42432 0.0
H326 H 0.60349 0.13449 0.38016 0.0
H327 H 0.78205 0.20203 0.36128 0.0
H328 H 0.63284 0.24688 0.3917 0.0
H329 H 0.64428 0.22452 0.31191 0.0
C330 C 0.66531 0.87158 0.18098 0.0
C331 C 0.68107 0.85481 0.19335 0.0
N332 N 0.67191 0.84948 0.21719 0.0
N333 N 0.64572 0.87706 0.1965 0.0
C334 C 0.65024 0.86312 0.21848 0.0
H335 H 0.66853 0.87984 0.16203 0.0
Co336 Co 0.62069 0.90259 0.18898 0.0
C337 C 0.57208 0.87734 0.20358 0.0
O338 O 0.55939 0.8984 0.20649 0.0
N339 N 0.59576 0.92869 0.18116 0.0
C340 C 0.57627 0.96608 0.18252 0.0
C341 C 0.59357 0.95065 0.19449 0.0
C342 C 0.57922 0.93164 0.16078 0.0
N343 N 0.56707 0.95435 0.16111 0.0
O344 O 0.62327 0.91356 0.22433 0.0
H345 H 0.60445 0.95582 0.21152 0.0
H346 H 0.57634 0.91756 0.14571 0.0
O347 O 0.59525 0.87811 0.19735 0.0
C348 C 0.64396 0.92606 0.22653 0.0
O349 O 0.65764 0.92962 0.20555 0.0
N350 N 0.61985 0.89325 0.15424 0.0
C351 C 0.61631 0.89188 0.10059 0.0
C352 C 0.60536 0.8723 0.11541 0.0
C353 C 0.60733 0.87334 0.1426 0.0
C354 C 0.63195 0.91135 0.13988 0.0
C355 C 0.63025 0.91114 0.11301 0.0
H356 H 0.59814 0.85875 0.15409 0.0
H357 H 0.64188 0.92679 0.14958 0.0
H358 H 0.63844 0.86388 0.23555 0.0
H359 H 0.69825 0.84736 0.18529 0.0
H360 H 0.57166 0.9851 0.18876 0.0
H361 H 0.59488 0.85692 0.10616 0.0
H362 H 0.63936 0.92624 0.10198 0.0
C363 C 0.44503 0.63167 0.16702 0.0
C364 C 0.43245 0.64706 0.18411 0.0
N365 N 0.41005 0.65362 0.17364 0.0
N366 N 0.43116 0.62826 0.14529 0.0
C367 C 0.40984 0.64195 0.14988 0.0
H368 H 0.46318 0.62317 0.17045 0.0
Co369 Co 0.44211 0.60646 0.11745 0.0
C370 C 0.41885 0.63013 0.07263 0.0
O371 O 0.44088 0.63031 0.06105 0.0
N372 N 0.45304 0.5841 0.08954 0.0
C373 C 0.44875 0.55613 0.05707 0.0
C374 C 0.43632 0.57104 0.07463 0.0
C375 C 0.47595 0.57645 0.08029 0.0
N376 N 0.47385 0.55917 0.06045 0.0
O377 O 0.46476 0.63248 0.10676 0.0
H378 H 0.41606 0.57225 0.07634 0.0
H379 H 0.49381 0.58302 0.08826 0.0
O380 O 0.4166 0.62059 0.09529 0.0
C381 C 0.48646 0.63419 0.11721 0.0
O382 O 0.49477 0.61483 0.13079 0.0
N383 N 0.42045 0.5812 0.12986 0.0
C384 C 0.39215 0.55009 0.16283 0.0
C385 C 0.38022 0.56563 0.14441 0.0
C386 C 0.39474 0.58125 0.12816 0.0
C387 C 0.43239 0.56491 0.14617 0.0
C388 C 0.41863 0.54917 0.16286 0.0
H389 H 0.38516 0.59439 0.11552 0.0
H390 H 0.45276 0.56562 0.14761 0.0
H391 H 0.3942 0.64282 0.13635 0.0
H392 H 0.43958 0.65299 0.20291 0.0
H393 H 0.43973 0.54407 0.04263 0.0
H394 H 0.35986 0.56666 0.14341 0.0
H395 H 0.42876 0.53784 0.17693 0.0
C396 C 0.15217 0.63869 0.87285 0.0
C397 C 0.13858 0.62173 0.88782 0.0
N398 N 0.13846 0.63002 0.91261 0.0
N399 N 0.16118 0.65785 0.88777 0.0
C400 C 0.15234 0.65209 0.91203 0.0
H401 H 0.15441 0.63759 0.85202 0.0
Co402 Co 0.17811 0.68693 0.87287 0.0
C403 C 0.21325 0.70683 0.91297 0.0
O404 O 0.21045 0.73035 0.90494 0.0
N405 N 0.19476 0.71645 0.85673 0.0
C406 C 0.20039 0.75552 0.84024 0.0
C407 C 0.18391 0.73925 0.85264 0.0
C408 C 0.2182 0.71963 0.84595 0.0
N409 N 0.22211 0.74339 0.83586 0.0
O410 O 0.20117 0.66481 0.8566 0.0
H411 H 0.16502 0.74423 0.85811 0.0
H412 H 0.23222 0.70489 0.84563 0.0
O413 O 0.20058 0.68871 0.90245 0.0
C414 C 0.1986 0.6612 0.8323 0.0
O415 O 0.18382 0.67637 0.81904 0.0
N416 N 0.15366 0.70706 0.88793 0.0
C417 C 0.108 0.72505 0.90599 0.0
C418 C 0.12935 0.7252 0.92219 0.0
C419 C 0.15206 0.71575 0.91288 0.0
C420 C 0.13324 0.70749 0.8718 0.0
C421 C 0.11026 0.71656 0.88035 0.0
H422 H 0.16745 0.7139 0.92641 0.0
H423 H 0.1347 0.69973 0.8524 0.0
H424 H 0.15557 0.66408 0.92883 0.0
H425 H 0.12855 0.60508 0.88059 0.0
H426 H 0.19637 0.77482 0.83433 0.0
H427 H 0.12813 0.73121 0.94227 0.0
H428 H 0.09424 0.71636 0.86718 0.0
C429 C 0.16914 0.38742 0.69392 0.0
C430 C 0.18663 0.37348 0.70752 0.0
N431 N 0.17455 0.35834 0.72477 0.0
N432 N 0.14575 0.38146 0.70223 0.0
C433 C 0.14968 0.36377 0.72131 0.0
H434 H 0.17319 0.40054 0.67823 0.0
Co435 Co 0.11603 0.39416 0.6852 0.0
C436 C 0.07641 0.37642 0.7205 0.0
O437 O 0.0679 0.39962 0.72316 0.0
N438 N 0.08588 0.4066 0.66749 0.0
C439 C 0.04903 0.40326 0.64637 0.0
C440 C 0.06635 0.39084 0.66147 0.0
C441 C 0.07969 0.42887 0.65528 0.0
N442 N 0.05727 0.42724 0.64207 0.0
O443 O 0.11502 0.42092 0.70974 0.0
H444 H 0.06516 0.37095 0.66677 0.0
H445 H 0.09189 0.44554 0.65493 0.0
O446 O 0.09564 0.37247 0.70646 0.0
C447 C 0.12766 0.43973 0.70084 0.0
O448 O 0.13637 0.43833 0.67702 0.0
N449 N 0.11892 0.36898 0.66021 0.0
C450 C 0.13713 0.3376 0.62152 0.0
C451 C 0.13118 0.32756 0.64605 0.0
C452 C 0.12168 0.34364 0.66522 0.0
C453 C 0.12324 0.37861 0.63609 0.0
C454 C 0.13184 0.36315 0.61631 0.0
H455 H 0.11862 0.33622 0.68456 0.0
H456 H 0.12181 0.39885 0.6327 0.0
H457 H 0.13457 0.3541 0.73157 0.0
H458 H 0.20683 0.37426 0.7046 0.0
H459 H 0.03174 0.39492 0.63872 0.0
H460 H 0.13541 0.308 0.65084 0.0
H461 H 0.1368 0.37185 0.59789 0.0
C462 C 0.54582 0.65148 0.67184 0.0
C463 C 0.52813 0.63707 0.65852 0.0
N464 N 0.53981 0.62389 0.63971 0.0
N465 N 0.56883 0.64759 0.6618 0.0
C466 C 0.56461 0.6306 0.6422 0.0
H467 H 0.54211 0.66436 0.68771 0.0
Co468 Co 0.59784 0.666 0.67329 0.0
C469 C 0.63966 0.62967 0.66888 0.0
O470 O 0.64694 0.63495 0.69277 0.0
N471 N 0.62753 0.68583 0.68441 0.0
C472 C 0.66602 0.70384 0.68174 0.0
C473 C 0.64864 0.68795 0.66985 0.0
C474 C 0.63259 0.70187 0.70478 0.0
N475 N 0.65603 0.71265 0.70389 0.0
O476 O 0.59968 0.68152 0.6398 0.0
H477 H 0.65119 0.67887 0.65123 0.0
H478 H 0.61936 0.70638 0.71977 0.0
O479 O 0.61982 0.63988 0.65958 0.0
C480 C 0.60038 0.70454 0.63229 0.0
O481 O 0.60326 0.70922 0.60738 0.0
N482 N 0.5953 0.64971 0.706 0.0
C483 C 0.60318 0.62721 0.75402 0.0
C484 C 0.60057 0.61216 0.73167 0.0
C485 C 0.59613 0.62381 0.70779 0.0
C486 C 0.59219 0.6637 0.72799 0.0
C487 C 0.59732 0.65308 0.75237 0.0
H488 H 0.59542 0.61216 0.69051 0.0
H489 H 0.5868 0.68335 0.7266 0.0
H490 H 0.5793 0.62392 0.6295 0.0
H491 H 0.50811 0.63638 0.66249 0.0
H492 H 0.68438 0.70905 0.67416 0.0
H493 H 0.60412 0.59192 0.73218 0.0
H494 H 0.59773 0.66507 0.76948 0.0
C495 C 0.33086 0.35379 0.42847 0.0
C496 C 0.31445 0.33838 0.41476 0.0
N497 N 0.31025 0.34894 0.39133 0.0
N498 N 0.33729 0.37429 0.41403 0.0
C499 C 0.3243 0.37082 0.39131 0.0
H500 H 0.33865 0.34956 0.4474 0.0
Co501 Co 0.36304 0.39737 0.42562 0.0
C502 C 0.34264 0.44699 0.40742 0.0
O503 O 0.3474 0.45922 0.42915 0.0
N504 N 0.39008 0.41971 0.43858 0.0
C505 C 0.42991 0.43149 0.44758 0.0
C506 C 0.41466 0.41568 0.43318 0.0
C507 C 0.39137 0.43807 0.45748 0.0
N508 N 0.41552 0.44556 0.46326 0.0
O509 O 0.34256 0.40569 0.4542 0.0
H510 H 0.42175 0.40104 0.42062 0.0
H511 H 0.37512 0.44466 0.46801 0.0
O512 O 0.348 0.4236 0.40518 0.0
C513 C 0.34612 0.39436 0.47571 0.0
O514 O 0.36721 0.38196 0.47921 0.0
N515 N 0.38264 0.38806 0.39718 0.0
C516 C 0.41636 0.37167 0.35992 0.0
C517 C 0.40809 0.39683 0.35973 0.0
C518 C 0.39086 0.40464 0.37842 0.0
C519 C 0.38991 0.36333 0.39707 0.0
C520 C 0.40657 0.35464 0.37837 0.0
H521 H 0.38565 0.42441 0.37884 0.0
H522 H 0.38354 0.35056 0.41224 0.0
H523 H 0.32629 0.38319 0.37459 0.0
H524 H 0.30675 0.32027 0.42124 0.0
H525 H 0.45031 0.43194 0.44702 0.0
H526 H 0.41563 0.41051 0.34594 0.0
H527 H 0.41299 0.33518 0.37936 0.0
C528 C 0.15988 0.23614 0.24316 0.0
C529 C 0.1687 0.21169 0.2373 0.0
C530 C 0.17441 0.25306 0.25872 0.0
C531 C 0.24121 0.26251 0.28317 0.0
H532 H 0.21201 0.31154 0.32997 0.0
C533 C 0.29904 0.31081 0.36543 0.0
C534 C 0.29596 0.33688 0.37047 0.0
C535 C 0.28353 0.29788 0.34752 0.0
C536 C 0.22048 0.29816 0.31676 0.0
H537 H 0.19895 0.18543 0.24472 0.0
H538 H 0.22355 0.21403 0.27217 0.0
H539 H 0.18439 0.28427 0.30323 0.0
H540 H 0.27405 0.36983 0.36041 0.0
H541 H 0.24638 0.34706 0.3291 0.0
H542 H 0.2772 0.27582 0.2972 0.0
C543 C 0.20606 0.2209 0.26402 0.0
C544 C 0.2046 0.28245 0.30134 0.0
C545 C 0.19178 0.20427 0.24834 0.0
C546 C 0.27705 0.34983 0.35673 0.0
C547 C 0.26107 0.3367 0.33903 0.0
C548 C 0.25697 0.27794 0.29872 0.0
C549 C 0.19805 0.24586 0.26904 0.0
C550 C 0.21469 0.26399 0.28457 0.0
C551 C 0.26404 0.31045 0.33427 0.0
C552 C 0.24692 0.29576 0.31605 0.0
H553 H 0.14224 0.24251 0.23488 0.0
H554 H 0.16744 0.27203 0.26196 0.0
H555 H 0.25 0.24931 0.27001 0.0
H556 H 0.31337 0.30028 0.37575 0.0
H557 H 0.28634 0.27771 0.34465 0.0
C558 C 1.01841 0.04438 0.55186 0.0
C559 C 1.00135 0.06021 0.53853 0.0
C560 C 0.03364 0.02683 0.53827 0.0
C561 C 0.03847 0.99307 0.47335 0.0
H562 H 0.10702 0.97888 0.4947 0.0
C563 C 0.09443 0.91133 0.42514 0.0
C564 C 0.12075 0.91343 0.42133 0.0
C565 C 0.08106 0.92957 0.43931 0.0
C566 C 0.08799 0.9827 0.48823 0.0
H567 H 0.9869 0.06877 0.50003 0.0
H568 H 1.01304 0.0391 0.47686 0.0
H569 H 0.08174 1.0088 0.5198 0.0
H570 H 0.15329 0.93743 0.42968 0.0
H571 H 0.1299 0.96957 0.45438 0.0
H572 H 0.04459 0.96747 0.44169 0.0
C573 C 1.01483 0.03991 0.49781 0.0
C574 C 0.07325 0.99975 0.50294 0.0
C575 C 0.99984 0.05739 0.51126 0.0
C576 C 0.13312 0.93502 0.432 0.0
C577 C 0.11963 0.95338 0.44647 0.0
C578 C 0.05309 0.97605 0.4588 0.0
C579 C 0.03216 0.02422 0.51088 0.0
C580 C 0.04814 1.00537 0.49577 0.0
C581 C 0.09324 0.95099 0.45045 0.0
C582 C 0.07816 0.97033 0.46589 0.0
H583 H 1.02039 0.04588 0.57275 0.0
H584 H 0.04643 1.01511 0.54933 0.0
H585 H 1.01928 0.99632 0.46703 0.0
H586 H 0.0839 0.89537 0.41711 0.0
H587 H 0.06101 0.92646 0.44192 0.0
C588 C 0.25911 0.74023 0.80577 0.0
C589 C 0.24391 0.75451 0.82255 0.0
C590 C 0.27819 0.75218 0.7907 0.0
C591 C 0.29842 0.8173 0.76601 0.0
H592 H 0.36017 0.78349 0.74765 0.0
C593 C 0.3813 0.87099 0.71276 0.0
C594 C 0.39536 0.85748 0.69425 0.0
C595 C 0.36318 0.8585 0.72854 0.0
C596 C 0.34294 0.79325 0.75229 0.0
H597 H 0.23826 0.79248 0.83755 0.0
H598 H 0.2713 0.81292 0.81217 0.0
H599 H 0.32895 0.76141 0.77448 0.0
H600 H 0.40006 0.81979 0.6778 0.0
H601 H 0.36909 0.79847 0.70494 0.0
H602 H 0.31241 0.84913 0.7439 0.0
C603 C 0.26814 0.79268 0.80969 0.0
C604 C 0.32487 0.78045 0.7678 0.0
C605 C 0.24913 0.78083 0.82452 0.0
C606 C 0.39032 0.83109 0.69201 0.0
C607 C 0.37235 0.81866 0.70777 0.0
C608 C 0.3165 0.8301 0.7506 0.0
C609 C 0.28277 0.77878 0.79204 0.0
C610 C 0.30223 0.79223 0.77506 0.0
C611 C 0.35845 0.83202 0.72645 0.0
C612 C 0.33914 0.81837 0.74339 0.0
H613 H 0.25561 0.72001 0.80354 0.0
H614 H 0.2888 0.74061 0.77738 0.0
H615 H 0.28115 0.82708 0.77045 0.0
H616 H 0.38451 0.8912 0.71543 0.0
H617 H 0.35319 0.86962 0.74276 0.0
C618 C 0.43004 0.06013 0.9936 0.0
C619 C 0.41932 0.08227 1.00401 0.0
C620 C 0.4453 0.04412 1.0092 0.0
C621 C 0.48267 0.04601 0.07229 0.0
H622 H 0.48783 0.97308 0.06356 0.0
C623 C 0.5333 0.98524 0.15002 0.0
C624 C 0.54921 0.9653 0.14245 0.0
C625 C 0.51755 0.99759 0.13208 0.0
C626 C 0.48684 0.99347 0.06619 0.0
H627 H 0.41523 0.10379 0.03948 0.0
H628 H 0.44053 0.07602 0.06648 0.0
H629 H 0.4601 0.99749 0.03476 0.0
H630 H 0.55977 0.94237 0.10938 0.0
H631 H 0.53201 0.96383 0.07802 0.0
H632 H 0.50911 0.04219 0.10364 0.0
C633 C 0.43825 0.0712 0.04615 0.0
C634 C 0.47083 1.00759 0.04954 0.0
C635 C 0.42335 0.08714 0.03064 0.0
C636 C 0.54791 0.95754 0.11618 0.0
C637 C 0.53191 0.96994 0.0981 0.0
C638 C 0.49843 0.03197 0.08889 0.0
C639 C 0.45022 0.04972 0.03572 0.0
C640 C 0.46812 0.03416 0.05252 0.0
C641 C 0.51677 0.99058 0.10566 0.0
C642 C 0.50063 1.00537 0.0865 0.0
H643 H 0.42761 0.05587 0.97315 0.0
H644 H 0.45401 0.0279 1.00017 0.0
H645 H 0.48213 0.0664 0.07499 0.0
H646 H 0.53296 0.99154 0.17001 0.0
H647 H 0.50583 1.01279 0.1391 0.0
C648 C 0.37191 0.68185 0.17203 0.0
C649 C 0.3909 0.66931 0.18623 0.0
C650 C 0.35441 0.69787 0.18455 0.0
C651 C 0.3292 0.71512 0.25153 0.0
H652 H 0.3047 0.77487 0.21606 0.0
C653 C 0.25504 0.78326 0.29968 0.0
C654 C 0.2559 0.80933 0.29316 0.0
C655 C 0.27061 0.76551 0.28689 0.0
C656 C 0.31144 0.75845 0.22658 0.0
H657 H 0.40504 0.66369 0.22551 0.0
H658 H 0.37571 0.69149 0.24666 0.0
H659 H 0.3327 0.74609 0.1936 0.0
H660 H 0.27521 0.83686 0.26864 0.0
H661 H 0.30216 0.80663 0.2471 0.0
H662 H 0.30855 0.72789 0.28477 0.0
C663 C 0.37391 0.68898 0.22586 0.0
C664 C 0.32739 0.74153 0.21336 0.0
C665 C 0.39126 0.67308 0.21344 0.0
C666 C 0.27341 0.817 0.274 0.0
C667 C 0.28895 0.79942 0.26138 0.0
C668 C 0.31329 0.73207 0.26477 0.0
C669 C 0.35511 0.70188 0.21179 0.0
C670 C 0.33686 0.71956 0.22558 0.0
C671 C 0.28772 0.77318 0.26718 0.0
C672 C 0.3042 0.7543 0.2527 0.0
H673 H 0.37077 0.67966 0.15114 0.0
H674 H 0.3402 0.70698 0.17275 0.0
H675 H 0.33542 0.69837 0.26183 0.0
H676 H 0.24178 0.77641 0.31409 0.0
H677 H 0.26868 0.74562 0.29206 0.0
C678 C 0.49132 1.02153 0.56317 0.0
C679 C 0.50074 1.00225 0.57947 0.0
C680 C 0.50699 0.03482 0.5457 0.0
C681 C 0.57072 0.03498 0.51288 0.0
H682 H 0.55414 0.10544 0.50001 0.0
C683 C 0.63328 0.10415 0.44768 0.0
C684 C 0.62006 0.12037 0.43069 0.0
C685 C 0.62037 0.08939 0.46664 0.0
C686 C 0.55906 0.08574 0.50307 0.0
H687 H 0.5345 0.98163 0.58923 0.0
H688 H 0.56211 1.00508 0.55895 0.0
H689 H 0.5293 0.08055 0.53059 0.0
H690 H 0.58274 0.13399 0.42128 0.0
H691 H 0.56062 0.10883 0.45388 0.0
H692 H 0.60085 0.04063 0.48537 0.0
C693 C 0.54233 1.00979 0.55955 0.0
C694 C 0.54459 0.07124 0.52072 0.0
C695 C 0.52646 0.99624 0.57703 0.0
C696 C 0.59369 0.12168 0.43371 0.0
C697 C 0.58092 0.10729 0.45273 0.0
C698 C 0.58538 0.04963 0.49526 0.0
C699 C 0.53296 0.0297 0.5438 0.0
C700 C 0.54976 0.0454 0.52572 0.0
C701 C 0.5939 0.09073 0.46953 0.0
C702 C 0.57956 0.07521 0.48971 0.0
H703 H 0.47159 0.02642 0.56383 0.0
H704 H 0.49849 0.04919 0.53354 0.0
H705 H 0.57549 1.01523 0.51584 0.0
H706 H 0.65351 0.10242 0.44591 0.0
H707 H 0.63119 0.07708 0.4792 0.0
C708 C 0.29411 0.21867 0.87751 0.0
C709 C 0.29077 0.19243 0.87265 0.0
C710 C 0.28163 0.23706 0.86214 0.0
C711 C 0.24981 0.2457 0.79725 0.0
H712 H 0.2191 0.30462 0.82849 0.0
C713 C 0.20901 0.32773 0.73411 0.0
C714 C 0.18635 0.33937 0.74158 0.0
C715 C 0.22125 0.31019 0.75036 0.0
C716 C 0.22742 0.28822 0.81938 0.0
H717 H 0.27209 0.16542 0.84691 0.0
H718 H 0.25087 0.19699 0.82037 0.0
H719 H 0.24196 0.27429 0.85583 0.0
H720 H 0.15901 0.34112 0.77258 0.0
H721 H 0.18048 0.31057 0.80114 0.0
H722 H 0.23537 0.25942 0.76088 0.0
C723 C 0.26296 0.20359 0.83608 0.0
C724 C 0.24085 0.27088 0.83511 0.0
C725 C 0.27507 0.18532 0.85156 0.0
C726 C 0.17629 0.33259 0.766 0.0
C727 C 0.18881 0.31518 0.78252 0.0
C728 C 0.2367 0.26312 0.78155 0.0
C729 C 0.26579 0.22983 0.8411 0.0
C730 C 0.2522 0.24918 0.82435 0.0
C731 C 0.21155 0.30361 0.77496 0.0
C732 C 0.22518 0.28473 0.79224 0.0
H733 H 0.30587 0.22496 0.89359 0.0
H734 H 0.28457 0.25701 0.86663 0.0
H735 H 0.25833 0.22949 0.78798 0.0
H736 H 0.21735 0.33204 0.71545 0.0
H737 H 0.23872 0.30207 0.74371 0.0
C738 C 0.99263 0.10758 0.13203 0.0
C739 C 1.01893 0.10441 0.13336 0.0
C740 C 0.97778 0.09456 0.1135 0.0
C741 C 0.98118 0.05473 0.05228 0.0
H742 H 0.91271 0.03623 0.0715 0.0
C743 C 0.91978 0.97878 0.99688 0.0
C744 C 0.89374 0.98277 0.99393 0.0
C745 C 0.93514 0.9958 1.01116 0.0
C746 C 0.93166 0.0415 0.06557 0.0
H747 H 0.05014 0.08501 0.11569 0.0
H748 H 0.02432 0.06161 0.08386 0.0
H749 H 0.93916 0.06027 0.1017 0.0
H750 H 0.86344 1.00796 1.00369 0.0
H751 H 0.89017 0.03788 0.02881 0.0
H752 H 0.97369 0.03489 1.01646 0.0
C753 C 1.01505 0.07468 0.09678 0.0
C754 C 0.947 0.05548 0.083 0.0
C755 C 0.03 0.08808 0.11516 0.0
C756 C 0.88352 1.0047 1.00509 0.0
C757 C 0.89883 1.0216 1.01981 0.0
C758 C 0.9659 0.04043 0.03499 0.0
C759 C 0.98854 0.07746 0.09574 0.0
C760 C 0.9721 0.06245 0.07676 0.0
C761 C 0.92483 1.01714 1.02349 0.0
C762 C 0.94086 0.03356 0.04133 0.0
H763 H 0.98343 0.12034 0.14535 0.0
H764 H 0.95773 0.09812 0.11315 0.0
H765 H 1.00009 0.0599 0.04623 0.0
H766 H 0.92806 0.96175 0.98898 0.0
H767 H 0.95491 0.99145 1.01366 0.0
C768 C 0.88106 0.19635 0.66576 0.0
C769 C 0.89212 0.17684 0.68066 0.0
C770 C 0.86468 0.21425 0.6772 0.0
C771 C 0.82589 0.22601 0.73824 0.0
H772 H 0.82441 0.29529 0.71281 0.0
C773 C 0.7689 0.30572 0.7923 0.0
C774 C 0.75643 0.32386 0.77684 0.0
C775 C 0.78592 0.28826 0.78114 0.0
C776 C 0.82426 0.27599 0.72016 0.0
H777 H 0.89326 0.16116 0.71973 0.0
H778 H 0.86595 0.19204 0.73929 0.0
H779 H 0.85161 0.26449 0.69198 0.0
H780 H 0.75342 0.33803 0.73738 0.0
H781 H 0.7824 0.30811 0.71828 0.0
H782 H 0.7986 0.23758 0.76649 0.0
C783 C 0.86952 0.19363 0.71866 0.0
C784 C 0.84001 0.2581 0.70802 0.0
C785 C 0.88575 0.17584 0.70731 0.0
C786 C 0.76224 0.32432 0.75007 0.0
C787 C 0.77927 0.30712 0.73903 0.0
C788 C 0.81021 0.24393 0.75043 0.0
C789 C 0.85859 0.21333 0.70399 0.0
C790 C 0.84123 0.23264 0.71674 0.0
C791 C 0.79134 0.28848 0.75418 0.0
C792 C 0.80896 0.26933 0.74165 0.0
H793 H 0.88528 0.19807 0.64528 0.0
H794 H 0.85663 0.22872 0.66484 0.0
H795 H 0.82557 0.2067 0.74555 0.0
H796 H 0.76498 0.30454 0.81289 0.0
H797 H 0.79488 0.27457 0.79377 0.0
C798 C 0.11906 0.59164 0.93345 0.0
C799 C 0.12462 0.61798 0.93398 0.0
C800 C 0.10403 0.57993 0.9526 0.0
C801 C 0.0563 0.59401 1.00425 0.0
H802 H 0.06805 0.52405 1.02431 0.0
C803 C 0.99855 0.54499 0.08718 0.0
C804 C 0.99167 0.51901 0.08491 0.0
C805 C 1.01526 0.55678 0.06958 0.0
C806 C 0.06418 0.54349 1.0188 0.0
H807 H 0.11866 0.65239 0.95603 0.0
H808 H 0.09277 0.63198 0.98977 0.0
H809 H 0.09625 0.54513 0.99356 0.0
H810 H 0.9979 0.48526 0.0618 0.0
H811 H 0.02699 0.50572 0.03119 0.0
H812 H 0.02422 0.59234 0.02949 0.0
C813 C 0.09982 0.62034 0.97414 0.0
C814 C 0.08051 0.55572 1.001 0.0
C815 C 0.11501 0.63211 0.95489 0.0
C816 C 1.00267 0.50517 0.06453 0.0
C817 C 1.01949 0.51702 0.04686 0.0
C818 C 0.04 0.58178 1.02208 0.0
C819 C 0.09386 0.59401 0.97326 0.0
C820 C 0.07686 0.58122 0.99324 0.0
C821 C 0.02595 0.54315 0.0489 0.0
C822 C 0.04355 0.55624 0.02969 0.0
H823 H 0.12623 0.57988 0.91799 0.0
H824 H 0.09988 0.55979 0.95073 0.0
H825 H 0.05234 0.6134 0.99866 0.0
H826 H 0.99115 0.5564 0.10278 0.0
H827 H 1.02001 0.57668 0.07245 0.0
C828 C 0.7997 0.70933 0.36149 0.0
C829 C 0.78598 0.69551 0.38037 0.0
C830 C 0.78758 0.72668 0.34464 0.0
C831 C 0.72274 0.74425 0.3194 0.0
H832 H 0.75711 0.80513 0.29497 0.0
C833 C 0.67046 0.82153 0.25698 0.0
C834 C 0.68415 0.83368 0.23695 0.0
C835 C 0.68256 0.80537 0.27509 0.0
C836 C 0.74715 0.78811 0.30128 0.0
H837 H 0.74856 0.69058 0.39665 0.0
H838 H 0.72785 0.72043 0.36793 0.0
H839 H 0.77883 0.77619 0.32425 0.0
H840 H 0.72193 0.83862 0.22146 0.0
H841 H 0.74249 0.81067 0.25215 0.0
H842 H 0.69108 0.75616 0.29639 0.0
C843 C 0.74785 0.71748 0.36541 0.0
C844 C 0.75977 0.77134 0.31823 0.0
C845 C 0.75989 0.7002 0.38213 0.0
C846 C 0.7104 0.82948 0.23612 0.0
C847 C 0.72242 0.81352 0.25417 0.0
C848 C 0.71012 0.76104 0.30248 0.0
C849 C 0.7613 0.73092 0.34608 0.0
C850 C 0.74786 0.74901 0.32767 0.0
C851 C 0.70882 0.80098 0.27399 0.0
C852 C 0.72207 0.7833 0.29295 0.0
H853 H 0.81971 0.70628 0.35925 0.0
H854 H 0.7988 0.73632 0.33003 0.0
H855 H 0.7128 0.72719 0.32561 0.0
H856 H 0.65031 0.82411 0.2584 0.0
H857 H 0.67125 0.79646 0.2901 0.0
C858 C 0.92302 0.55914 0.49528 0.0
C859 C 0.92377 0.58543 0.50069 0.0
C860 C 0.9373 0.54181 0.51031 0.0
C861 C 0.99276 0.53997 0.55713 0.0
H862 H 0.96839 0.47182 0.57218 0.0
C863 C 0.04598 0.47207 0.62981 0.0
C864 C 0.04468 0.44566 0.62521 0.0
C865 C 0.03171 0.48922 0.61457 0.0
C866 C 0.97583 0.49065 0.56798 0.0
H867 H 0.93926 0.6134 0.52762 0.0
H868 H 0.96353 0.58379 0.55331 0.0
H869 H 0.94272 0.50019 0.54593 0.0
H870 H 0.02821 0.41715 0.59954 0.0
H871 H 1.0041 0.44646 0.57326 0.0
H872 H 0.0259 0.53045 0.57909 0.0
C873 C 0.95269 0.57637 0.53703 0.0
C874 C 0.96092 0.50707 0.55277 0.0
C875 C 0.93854 0.59354 0.52215 0.0
C876 C 0.02937 0.43718 0.60432 0.0
C877 C 1.0153 0.45417 0.58913 0.0
C878 C 1.0077 0.52354 0.57229 0.0
C879 C 0.95277 0.55019 0.53127 0.0
C880 C 0.969 0.53213 0.54708 0.0
C881 C 1.01576 0.48053 0.59411 0.0
C882 C 0.99959 0.49849 0.57806 0.0
H883 H 0.91204 0.55205 0.47897 0.0
H884 H 0.93672 0.52188 0.50501 0.0
H885 H 1.00014 0.55884 0.55297 0.0
H886 H 0.05739 0.47943 0.6457 0.0
H887 H 0.03271 0.50925 0.61934 0.0
C888 C 0.61368 0.44623 0.90287 0.0
C889 C 0.63583 0.43651 0.91419 0.0
C890 C 0.59598 0.45977 0.918 0.0
C891 C 0.59031 0.49428 0.98275 0.0
H892 H 0.51865 0.49139 0.96833 0.0
C893 C 0.5175 0.55622 0.04126 0.0
C894 C 0.49317 0.54584 0.04554 0.0
C895 C 0.53504 0.54375 1.02502 0.0
C896 C 0.53858 0.4924 0.97295 0.0
H897 H 0.65545 0.43245 0.951 0.0
H898 H 0.62512 0.45524 0.97687 0.0
H899 H 0.54755 0.46786 0.94095 0.0
H900 H 0.46934 0.513 0.03669 0.0
H901 H 0.49928 0.49172 1.00915 0.0
H902 H 0.58132 0.51839 1.01505 0.0
C903 C 0.62152 0.45337 0.95623 0.0
C904 C 0.55535 0.479 0.95683 0.0
C905 C 0.63905 0.44 0.94124 0.0
C906 C 0.48745 0.52223 0.03358 0.0
C907 C 0.50482 0.50987 1.01749 0.0
C908 C 0.57355 0.50773 0.99882 0.0
C909 C 0.59979 0.46402 0.94498 0.0
C910 C 0.58161 0.47937 0.96153 0.0
C911 C 0.52892 0.52041 1.01249 0.0
C912 C 0.54724 0.50689 0.99449 0.0
H913 H 0.61048 0.4442 0.88217 0.0
H914 H 0.57965 0.46756 0.9083 0.0
H915 H 0.61029 0.49573 0.98705 0.0
H916 H 0.52278 0.57432 0.04988 0.0
H917 H 0.55323 0.5528 1.02183 0.0
C918 C 0.69467 0.73149 0.7244 0.0
C919 C 0.66816 0.73004 0.72233 0.0
C920 C 0.70666 0.74833 0.74189 0.0
C921 C 0.69605 0.80699 0.78137 0.0
H922 H 0.7567 0.78629 0.81759 0.0
C923 C 0.7376 0.86477 0.86804 0.0
C924 C 0.76386 0.86582 0.87243 0.0
C925 C 0.72697 0.84943 0.84846 0.0
C926 C 0.74002 0.79264 0.8074 0.0
H927 H 0.63362 0.74573 0.73739 0.0
H928 H 0.65443 0.77481 0.76809 0.0
H929 H 0.73591 0.75713 0.78717 0.0
H930 H 0.79954 0.85179 0.85872 0.0
H931 H 0.78106 0.82509 0.82409 0.0
H932 H 0.70008 0.84245 0.80162 0.0
C933 C 0.66605 0.763 0.75594 0.0
C934 C 0.72797 0.77579 0.78987 0.0
C935 C 0.65402 0.74603 0.73847 0.0
C936 C 0.7793 0.85158 0.85589 0.0
C937 C 0.76859 0.83601 0.83621 0.0
C938 C 0.70811 0.82383 0.79886 0.0
C939 C 0.69262 0.76444 0.75798 0.0
C940 C 0.70566 0.78259 0.77665 0.0
C941 C 0.74217 0.83446 0.83236 0.0
C942 C 0.73021 0.81692 0.81238 0.0
H943 H 0.70633 0.7194 0.71262 0.0
H944 H 0.72708 0.74892 0.74248 0.0
H945 H 0.67928 0.81329 0.7713 0.0
H946 H 0.72506 0.87564 0.88012 0.0
H947 H 0.70663 0.84875 0.84654 0.0
C948 C 0.75422 0.24021 0.29684 0.0
C949 C 0.76297 0.23511 0.32221 0.0
C950 C 0.7674 0.25732 0.28035 0.0
C951 C 0.81543 0.3109 0.28048 0.0
H952 H 0.82483 0.29258 0.20839 0.0
C953 C 0.88308 0.37016 0.21203 0.0
C954 C 0.87819 0.37038 0.18509 0.0
C955 C 0.86865 0.35457 0.22902 0.0
C956 C 0.82216 0.29849 0.2283 0.0
H957 H 0.79223 0.24517 0.35011 0.0
H958 H 0.8148 0.27482 0.32178 0.0
H959 H 0.79999 0.26489 0.23657 0.0
H960 H 0.85305 0.35516 0.15545 0.0
H961 H 0.82776 0.32909 0.18455 0.0
H962 H 0.83722 0.34468 0.27224 0.0
C963 C 0.79785 0.26555 0.31441 0.0
C964 C 0.80781 0.28234 0.24463 0.0
C965 C 0.78493 0.24825 0.33069 0.0
C966 C 0.85789 0.35519 0.17591 0.0
C967 C 0.84334 0.33995 0.1928 0.0
C968 C 0.82956 0.32723 0.26407 0.0
C969 C 0.78954 0.27027 0.28881 0.0
C970 C 0.80423 0.28814 0.27107 0.0
C971 C 0.84858 0.33889 0.21971 0.0
C972 C 0.83331 0.3214 0.23758 0.0
H973 H 0.73752 0.23049 0.28949 0.0
H974 H 0.76013 0.26049 0.26093 0.0
H975 H 0.81299 0.31635 0.30058 0.0
H976 H 0.89856 0.38145 0.2199 0.0
H977 H 0.87374 0.35442 0.2494 0.0
C978 C 0.41248 0.48503 0.49051 0.0
C979 C 0.42535 0.46295 0.48309 0.0
C980 C 0.42386 0.50294 0.50763 0.0
C981 C 0.48773 0.5239 0.53187 0.0
H982 H 0.45126 0.55787 0.58642 0.0
C983 C 0.54009 0.58606 0.61018 0.0
C984 C 0.52756 0.60699 0.62087 0.0
C985 C 0.52743 0.569 0.59321 0.0
C986 C 0.46182 0.54893 0.57107 0.0
H987 H 0.45968 0.44187 0.48973 0.0
H988 H 0.47918 0.47263 0.51885 0.0
H989 H 0.429 0.52812 0.55765 0.0
H990 H 0.49196 0.62676 0.62081 0.0
H991 H 0.47032 0.59777 0.59119 0.0
H992 H 0.52045 0.54478 0.54488 0.0
C993 C 0.46066 0.47668 0.51102 0.0
C994 C 0.44892 0.53172 0.55451 0.0
C995 C 0.44935 0.4589 0.49419 0.0
C996 C 0.50221 0.61064 0.61351 0.0
C997 C 0.48965 0.59379 0.59646 0.0
C998 C 0.50058 0.54122 0.54825 0.0
C999 C 0.44843 0.49927 0.5177 0.0
C1000 C 0.4617 0.51871 0.53477 0.0
C1001 C 0.50186 0.57244 0.58616 0.0
C1002 C 0.48795 0.55399 0.56832 0.0
H1003 H 0.39404 0.48887 0.4824 0.0
H1004 H 0.41374 0.52006 0.5123 0.0
H1005 H 0.49827 0.51471 0.51665 0.0
H1006 H 0.55949 0.58245 0.61549 0.0
H1007 H 0.53763 0.55276 0.58613 0.0
C1008 C 0.1555 0.06888 0.26474 0.0
C1009 C 0.16009 0.07796 0.2395 0.0
C1010 C 0.17471 0.05787 0.27918 0.0
C1011 C 0.22753 1.01855 0.27298 0.0
H1012 H 0.22954 0.02981 0.34745 0.0
C1013 C 0.23475 0.93388 0.33697 0.0
C1014 C 0.21082 0.93247 0.34843 0.0
C1015 C 0.24462 0.95745 0.329 0.0
C1016 C 0.23 0.02675 0.32664 0.0
H1017 H 0.18859 0.08234 0.20958 0.0
H1018 H 0.22196 0.06153 0.2346 0.0
H1019 H 0.21433 0.06323 0.31868 0.0
H1020 H 0.17972 0.95395 0.36348 0.0
H1021 H 0.19692 0.99496 0.35035 0.0
H1022 H 0.24023 0.98105 0.28103 0.0
C1023 C 0.20353 0.06372 0.24323 0.0
C1024 C 0.22121 0.04582 0.3102 0.0
C1025 C 0.18432 0.07521 0.22883 0.0
C1026 C 0.19823 0.95479 0.35464 0.0
C1027 C 0.20828 0.97828 0.34729 0.0
C1028 C 0.23621 0.99942 0.28944 0.0
C1029 C 0.19891 0.05528 0.26866 0.0
C1030 C 0.21785 0.04093 0.28356 0.0
C1031 C 0.23076 0.97972 0.33288 0.0
C1032 C 0.23515 1.00256 0.31657 0.0
H1033 H 0.13698 0.07017 0.27337 0.0
H1034 H 0.17039 0.05067 0.29842 0.0
H1035 H 0.22533 1.01444 0.25246 0.0
H1036 H 0.24461 0.91667 0.33192 0.0
H1037 H 0.26193 0.95804 0.31791 0.0
C1038 C 0.24691 0.84441 0.41772 0.0
C1039 C 0.22339 0.83354 0.42425 0.0
C1040 C 0.26354 0.85263 0.43711 0.0
C1041 C 0.27998 0.85029 0.50626 0.0
H1042 H 0.30034 0.92065 0.4949 0.0
C1043 C 0.3386 0.9065 0.58234 0.0
C1044 C 0.35917 0.92042 0.57226 0.0
C1045 C 0.31993 0.89666 0.56573 0.0
C1046 C 0.29501 0.90095 0.4983 0.0
H1047 H 0.2 0.82043 0.45621 0.0
H1048 H 0.2294 0.83463 0.49019 0.0
H1049 H 0.27395 0.8989 0.46282 0.0
H1050 H 0.37554 0.9363 0.53719 0.0
H1051 H 0.34339 0.91881 0.50821 0.0
H1052 H 0.30161 0.85215 0.54148 0.0
C1053 C 0.23471 0.83698 0.47002 0.0
C1054 C 0.27994 0.8885 0.47991 0.0
C1055 C 0.21793 0.82882 0.45055 0.0
C1056 C 0.36002 0.92543 0.54547 0.0
C1057 C 0.34145 0.91557 0.5289 0.0
C1058 C 0.29533 0.86271 0.52462 0.0
C1059 C 0.2571 0.85 0.4634 0.0
C1060 C 0.27259 0.86296 0.48351 0.0
C1061 C 0.32148 0.90059 0.53875 0.0
C1062 C 0.30329 0.88809 0.52063 0.0
H1063 H 0.25186 0.84799 0.39763 0.0
H1064 H 0.28099 0.8621 0.43153 0.0
H1065 H 0.27449 0.83061 0.50947 0.0
H1066 H 0.33754 0.90217 0.6029 0.0
H1067 H 0.30457 0.88552 0.57395 0.0
C1068 C 0.4484 0.99205 0.72548 0.0
C1069 C 0.43682 0.97339 0.70976 0.0
C1070 C 0.43713 0.99976 0.74856 0.0
C1071 C 0.41647 1.00509 0.80264 0.0
H1072 H 0.34429 1.01559 0.80287 0.0
C1073 C 0.37064 0.06008 0.88592 0.0
C1074 C 0.35553 0.07986 0.87665 0.0
C1075 C 0.37727 0.04013 0.86934 0.0
C1076 C 0.36446 1.01265 0.8032 0.0
H1077 H 0.40428 0.94812 0.70605 0.0
H1078 H 0.38489 0.96111 0.74662 0.0
H1079 H 0.36364 0.99556 0.76556 0.0
H1080 H 0.33365 0.09323 0.8438 0.0
H1081 H 0.34522 0.05901 0.81508 0.0
H1082 H 0.41753 0.02399 0.83938 0.0
C1083 C 0.4025 0.97013 0.74091 0.0
C1084 C 0.37556 1.00091 0.78187 0.0
C1085 C 0.41366 0.96262 0.71764 0.0
C1086 C 0.34552 0.07832 0.85139 0.0
C1087 C 0.352 0.05849 0.83496 0.0
C1088 C 0.4054 1.01709 0.82384 0.0
C1089 C 0.4141 0.98881 0.75669 0.0
C1090 C 0.40184 0.9978 0.78091 0.0
C1091 C 0.3687 0.03963 0.84336 0.0
C1092 C 0.37938 1.02188 0.82394 0.0
H1093 H 0.46619 1.00083 0.71992 0.0
H1094 H 0.44633 1.01466 0.75981 0.0
H1095 H 0.43667 1.00237 0.80289 0.0
H1096 H 0.37861 0.06086 0.90535 0.0
H1097 H 0.38992 0.0257 0.87651 0.0
C1098 C 0.30054 0.13126 1.02127 0.0
C1099 C 0.30279 0.12473 0.99495 0.0
C1100 C 0.27746 0.12833 0.03388 0.0
C1101 C 0.21165 0.13387 1.02039 0.0
H1102 H 0.203 0.1082 0.09052 0.0
C1103 C 0.13391 0.12985 0.10871 0.0
C1104 C 0.13046 0.15608 0.11236 0.0
C1105 C 0.15112 0.12117 0.09045 0.0
C1106 C 0.20497 0.11505 0.07076 0.0
H1107 H 0.28304 0.10895 0.96146 0.0
H1108 H 0.24241 0.10454 0.98345 0.0
H1109 H 0.24211 0.09991 0.06723 0.0
H1110 H 0.14048 0.19367 0.09787 0.0
H1111 H 0.17023 0.17844 0.06567 0.0
H1112 H 0.17515 0.15037 1.02454 0.0
C1113 C 0.25861 0.11166 0.99427 0.0
C1114 C 0.22735 0.11042 0.05755 0.0
C1115 C 0.28185 0.11411 0.98178 0.0
C1116 C 0.14287 0.17335 0.09575 0.0
C1117 C 0.15983 0.16464 0.07722 0.0
C1118 C 0.18943 0.13886 0.03376 0.0
C1119 C 0.25615 0.11923 1.02026 0.0
C1120 C 0.23109 0.12031 0.03251 0.0
C1121 C 0.16477 0.13855 0.07511 0.0
C1122 C 0.18617 0.12997 0.05928 0.0
H1123 H 0.31641 0.1394 0.03188 0.0
H1124 H 0.27594 0.13449 0.05389 0.0
H1125 H 0.21423 0.14187 1.00115 0.0
H1126 H 0.12409 0.11599 0.12062 0.0
H1127 H 0.15439 0.10094 0.0889 0.0
C1128 C 0.06452 0.23915 0.217 0.0
C1129 C 0.0684 0.2252 0.19412 0.0
C1130 C 0.06358 0.26562 0.21624 0.0
C1131 C 0.07739 0.32155 0.17422 0.0
H1132 H 1.01923 0.3497 0.20852 0.0
C1133 C 1.016 0.39736 0.13151 0.0
C1134 C 1.00092 0.41215 0.14773 0.0
C1135 C 0.0338 0.38114 0.1422 0.0
C1136 C 0.03608 0.34252 0.19945 0.0
H1137 H 0.07444 0.22793 0.15256 0.0
H1138 H 0.07182 0.27412 0.15105 0.0
H1139 H 0.03125 0.30645 0.21785 0.0
H1140 H 0.99484 0.42421 0.18752 0.0
H1141 H 0.026 0.39572 0.20622 0.0
H1142 H 0.08103 0.3573 0.15448 0.0
C1143 C 0.07022 0.26466 0.16969 0.0
C1144 C 0.04291 0.31759 0.20473 0.0
C1145 C 0.07132 0.23819 0.17047 0.0
C1146 C 1.00589 0.41261 0.17458 0.0
C1147 C 0.02373 0.39636 0.18529 0.0
C1148 C 0.07052 0.34656 0.16889 0.0
C1149 C 0.06632 0.27864 0.19257 0.0
C1150 C 0.06285 0.30647 0.19122 0.0
C1151 C 0.03681 0.37946 0.1693 0.0
C1152 C 0.049 0.3568 0.18049 0.0
H1153 H 0.0626 0.22968 0.23561 0.0
H1154 H 0.06071 0.27589 0.2342 0.0
H1155 H 0.09326 0.31362 0.16402 0.0
H1156 H 1.0129 0.39696 0.11068 0.0
H1157 H 0.04347 0.3683 0.12931 0.0
C1158 C 0.5948 0.30546 0.81111 0.0
C1159 C 0.61357 0.30212 0.83023 0.0
C1160 C 0.57405 0.28887 0.80973 0.0
C1161 C 0.54923 0.22653 0.82964 0.0
H1162 H 0.48665 0.26163 0.84221 0.0
C1163 C 0.46663 0.17885 0.88192 0.0
C1164 C 0.44187 0.18629 0.87647 0.0
C1165 C 0.48692 0.19092 0.86975 0.0
C1166 C 0.50373 0.25141 0.838 0.0
H1167 H 0.62582 0.27789 0.86195 0.0
H1168 H 0.58992 0.24861 0.85898 0.0
H1169 H 0.52445 0.286 0.83124 0.0
H1170 H 0.41863 0.21138 0.85349 0.0
H1171 H 0.45417 0.23221 0.83155 0.0
H1172 H 0.52871 0.19194 0.83672 0.0
C1173 C 0.59134 0.26413 0.84516 0.0
C1174 C 0.5254 0.26543 0.83179 0.0
C1175 C 0.61189 0.28092 0.84684 0.0
C1176 C 0.43764 0.20557 0.85816 0.0
C1177 C 0.45797 0.21744 0.84567 0.0
C1178 C 0.52747 0.21245 0.83544 0.0
C1179 C 0.57196 0.26838 0.82707 0.0
C1180 C 0.54847 0.25315 0.82848 0.0
C1181 C 0.48287 0.21049 0.8516 0.0
C1182 C 0.5047 0.22482 0.84071 0.0
H1183 H 0.59584 0.32117 0.79752 0.0
H1184 H 0.55935 0.29236 0.79551 0.0
H1185 H 0.56684 0.21671 0.8269 0.0
H1186 H 0.47034 0.16421 0.89622 0.0
H1187 H 0.50581 0.18547 0.87532 0.0
C1188 C 0.93575 0.69302 0.34454 0.0
C1189 C 0.93824 0.67456 0.36405 0.0
C1190 C 0.95689 0.70132 0.33057 0.0
C1191 C 0.02549 0.68757 0.32037 0.0
H1192 H 0.03067 0.76076 0.31222 0.0
C1193 C 0.11266 0.74997 0.33934 0.0
C1194 C 0.11768 0.77065 0.3227 0.0
C1195 C 0.0921 0.73375 0.33459 0.0
C1196 C 0.02934 0.74022 0.31376 0.0
H1197 H 0.96446 0.65031 0.38443 0.0
H1198 H 1.00132 0.66542 0.36114 0.0
H1199 H 0.99017 0.74131 0.32269 0.0
H1200 H 0.10671 0.78861 0.28636 0.0
H1201 H 0.06993 0.76101 0.27901 0.0
H1202 H 0.06543 0.68711 0.31393 0.0
C1203 C 0.98313 0.67286 0.35561 0.0
C1204 C 1.00608 0.729 0.31971 0.0
C1205 C 0.96203 0.66434 0.3692 0.0
C1206 C 0.10291 0.77339 0.30005 0.0
C1207 C 0.08204 0.75746 0.29561 0.0
C1208 C 0.04887 0.69889 0.31497 0.0
C1209 C 0.98094 0.69162 0.33624 0.0
C1210 C 1.00408 0.70264 0.32421 0.0
C1211 C 0.07602 0.73809 0.31335 0.0
C1212 C 0.05107 0.72538 0.31256 0.0
H1213 H 0.91749 0.70098 0.34014 0.0
H1214 H 0.95443 0.71557 0.31559 0.0
H1215 H 0.0245 0.66712 0.32289 0.0
H1216 H 0.12344 0.74732 0.35704 0.0
H1217 H 0.08762 0.71905 0.34869 0.0
C1218 C 0.5841 0.72413 0.67325 0.0
C1219 C 0.59875 0.72592 0.65065 0.0
C1220 C 0.58046 0.74565 0.68873 0.0
C1221 C 0.59862 0.81499 0.69455 0.0
H1222 H 0.52649 0.82271 0.70205 0.0
C1223 C 0.51391 0.89367 0.69074 0.0
C1224 C 0.51973 0.90259 0.66567 0.0
C1225 C 0.52927 0.87572 0.70283 0.0
C1226 C 0.54679 0.8209 0.70095 0.0
H1227 H 0.62233 0.75089 0.62734 0.0
H1228 H 0.61536 0.78835 0.65343 0.0
H1229 H 0.54366 0.78056 0.69799 0.0
H1230 H 0.5475 0.90234 0.635 0.0
H1231 H 0.5745 0.87147 0.65618 0.0
H1232 H 0.60112 0.85575 0.69456 0.0
C1233 C 0.60708 0.7705 0.65986 0.0
C1234 C 0.55672 0.79659 0.69862 0.0
C1235 C 0.61075 0.74907 0.64456 0.0
C1236 C 0.54255 0.89562 0.65425 0.0
C1237 C 0.5581 0.87807 0.66652 0.0
C1238 C 0.58862 0.83936 0.69647 0.0
C1239 C 0.59118 0.76933 0.68166 0.0
C1240 C 0.58252 0.79346 0.69353 0.0
C1241 C 0.55086 0.86685 0.69021 0.0
C1242 C 0.56242 0.84252 0.698 0.0
H1243 H 0.5747 0.70641 0.67839 0.0
H1244 H 0.56836 0.74398 0.70555 0.0
H1245 H 0.61872 0.81319 0.69153 0.0
H1246 H 0.49636 0.89872 0.69998 0.0
H1247 H 0.5233 0.8674 0.7211 0.0
C1248 C 0.92432 0.02904 0.69898 0.0
C1249 C 0.90922 0.03069 0.67647 0.0
C1250 C 0.91556 1.01628 0.72097 0.0
C1251 C 0.85679 1.00116 0.7539 0.0
H1252 H 0.90026 0.96278 0.79987 0.0
C1253 C 0.85259 0.94625 0.85944 0.0
C1254 C 0.84078 0.96508 0.87427 0.0
C1255 C 0.85999 0.95125 0.83391 0.0
C1256 C 0.88777 0.9732 0.78713 0.0
H1257 H 0.87349 1.01901 0.65916 0.0
H1258 H 0.858 0.99694 0.69796 0.0
H1259 H 0.91509 0.97469 0.75665 0.0
H1260 H 0.82753 1.00393 0.8739 0.0
H1261 H 0.84066 1.0127 0.8294 0.0
H1262 H 0.82962 1.00001 0.78453 0.0
C1263 C 0.87662 1.00571 0.69842 0.0
C1264 C 0.89632 0.98015 0.76246 0.0
C1265 C 0.88548 1.01835 0.67624 0.0
C1266 C 0.83657 0.98902 0.86302 0.0
C1267 C 0.8439 0.99398 0.83745 0.0
C1268 C 0.84828 0.9943 0.77861 0.0
C1269 C 0.8914 1.005 0.72117 0.0
C1270 C 0.88111 0.99462 0.74578 0.0
C1271 C 0.85565 0.97514 0.82262 0.0
C1272 C 0.86387 0.98067 0.79566 0.0
H1273 H 0.94242 0.03879 0.70024 0.0
H1274 H 0.92723 1.01645 0.73832 0.0
H1275 H 0.84472 1.01251 0.74158 0.0
H1276 H 0.85604 0.92756 0.86748 0.0
H1277 H 0.86884 0.93631 0.8229 0.0
C1278 C 0.86477 0.11329 0.55081 0.0
C1279 C 0.88402 0.12783 0.56271 0.0
C1280 C 0.84333 0.12507 0.54087 0.0
C1281 C 0.82243 0.18388 0.51244 0.0
H1282 H 0.75513 0.15752 0.52633 0.0
C1283 C 0.73891 0.21987 0.45297 0.0
C1284 C 0.72337 0.20029 0.44298 0.0
C1285 C 0.75525 0.21512 0.4738 0.0
C1286 C 0.77378 0.16509 0.52217 0.0
H1287 H 0.89603 0.16608 0.57345 0.0
H1288 H 0.85882 0.18669 0.55532 0.0
H1289 H 0.7912 0.14015 0.54972 0.0
H1290 H 0.71104 0.16109 0.44859 0.0
H1291 H 0.7398 0.15264 0.48399 0.0
H1292 H 0.80559 0.20757 0.48371 0.0
C1293 C 0.86026 0.16619 0.55402 0.0
C1294 C 0.79438 0.15516 0.53561 0.0
C1295 C 0.88149 0.15438 0.56436 0.0
C1296 C 0.72292 0.17658 0.45563 0.0
C1297 C 0.73937 0.17177 0.4762 0.0
C1298 C 0.80192 0.19351 0.49867 0.0
C1299 C 0.84096 0.15162 0.54228 0.0
C1300 C 0.81891 0.16407 0.5304 0.0
C1301 C 0.75648 0.19066 0.48487 0.0
C1302 C 0.77739 0.18376 0.50284 0.0
H1303 H 0.86612 0.0928 0.54941 0.0
H1304 H 0.8288 0.11348 0.53161 0.0
H1305 H 0.84122 0.19096 0.508 0.0
H1306 H 0.73948 0.23845 0.44385 0.0
H1307 H 0.7677 0.23032 0.48044 0.0
C1308 C 0.72636 0.08902 0.33845 0.0
C1309 C 0.71447 0.10265 0.35821 0.0
C1310 C 0.72192 0.06291 0.33576 0.0
C1311 C 0.66939 1.02119 0.34012 0.0
H1312 H 0.71657 0.96985 0.31855 0.0
C1313 C 0.63683 0.93968 0.27288 0.0
C1314 C 0.65281 0.93716 0.25138 0.0
C1315 C 0.64518 0.95298 0.29504 0.0
C1316 C 0.70309 0.98391 0.32459 0.0
H1317 H 0.68996 0.09948 0.39175 0.0
H1318 H 0.68151 0.05389 0.38639 0.0
H1319 H 0.73198 1.00745 0.34191 0.0
H1320 H 0.69054 0.94494 0.23693 0.0
H1321 H 0.70468 0.96831 0.27462 0.0
H1322 H 0.64087 0.99925 0.32059 0.0
C1323 C 0.69461 0.06336 0.37335 0.0
C1324 C 0.71194 1.0053 0.33814 0.0
C1325 C 0.69955 0.0894 0.37644 0.0
C1326 C 0.67761 0.94678 0.25303 0.0
C1327 C 0.6859 0.95994 0.27496 0.0
C1328 C 0.66059 1.00005 0.32612 0.0
C1329 C 0.70507 0.05012 0.35243 0.0
C1330 C 0.69531 0.02464 0.34497 0.0
C1331 C 0.66967 0.96381 0.29605 0.0
C1332 C 0.67756 0.98184 0.31698 0.0
H1333 H 0.73787 0.09882 0.32414 0.0
H1334 H 0.73002 0.05317 0.31931 0.0
H1335 H 0.6562 0.03595 0.34504 0.0
H1336 H 0.61766 0.93228 0.2722 0.0
H1337 H 0.63226 0.95539 0.31105 0.0
C1338 C 0.60113 0.91351 0.061 0.0
C1339 C 0.61412 0.8931 0.07214 0.0
C1340 C 0.6079 0.92262 0.03647 0.0
C1341 C 0.64934 0.95225 1.01036 0.0
H1342 H 0.6874 0.91624 0.95836 0.0
C1343 C 0.75346 0.96349 0.99562 0.0
C1344 C 0.76435 0.95844 0.97143 0.0
C1345 C 0.72729 0.96376 0.99817 0.0
C1346 C 0.67643 0.92692 0.97217 0.0
H1347 H 0.64164 0.86399 0.06548 0.0
H1348 H 0.65366 0.87974 1.0228 0.0
H1349 H 0.65072 0.89565 0.9781 0.0
H1350 H 0.75644 0.95272 0.93032 0.0
H1351 H 0.7107 0.95254 0.93504 0.0
H1352 H 0.67637 0.98261 1.00605 0.0
C1353 C 0.63812 0.88875 0.03258 0.0
C1354 C 0.6555 0.91503 0.98359 0.0
C1355 C 0.63126 0.87961 0.05707 0.0
C1356 C 0.74864 0.9565 0.94932 0.0
C1357 C 0.72242 0.95631 0.95196 0.0
C1358 C 0.6703 0.96406 0.99903 0.0
C1359 C 0.62798 0.91159 1.02303 0.0
C1360 C 0.64283 0.9269 1.00408 0.0
C1361 C 0.71155 0.95868 0.97662 0.0
C1362 C 0.68501 0.95082 0.98114 0.0
H1363 H 0.58788 0.9242 0.07245 0.0
H1364 H 0.59943 0.93995 0.0294 0.0
H1365 H 0.6401 0.96203 1.0261 0.0
H1366 H 0.76509 0.96526 1.01292 0.0
H1367 H 0.71947 0.96551 1.01748 0.0
C1368 C 0.06158 0.71772 0.91026 0.0
C1369 C 0.08314 0.73263 0.91591 0.0
C1370 C 0.03778 0.72572 0.91783 0.0
C1371 C 1.00455 0.77213 0.95913 0.0
H1372 H 0.95519 0.77071 0.90319 0.0
C1373 C 0.92677 0.84519 0.94847 0.0
C1374 C 0.90302 0.83758 0.93884 0.0
C1375 C 0.94624 0.82781 0.95032 0.0
C1376 C 0.9685 0.77075 0.91924 0.0
H1377 H 0.09695 0.76694 0.93482 0.0
H1378 H 0.05527 0.78123 0.94771 0.0
H1379 H 0.99461 0.74825 0.89821 0.0
H1380 H 0.8806 0.80575 0.92445 0.0
H1381 H 0.91494 0.77514 0.92751 0.0
H1382 H 0.97877 0.79568 0.97963 0.0
C1383 C 0.05677 0.76317 0.93776 0.0
C1384 C 0.99112 0.75789 0.9164 0.0
C1385 C 0.08062 0.7551 0.93029 0.0
C1386 C 0.8988 0.81204 0.93187 0.0
C1387 C 0.91841 0.79462 0.93355 0.0
C1388 C 0.98193 0.78504 0.96195 0.0
C1389 C 0.03507 0.74881 0.93113 0.0
C1390 C 1.00969 0.75909 0.93599 0.0
C1391 C 0.94238 0.80245 0.94253 0.0
C1392 C 0.96405 0.78512 0.94169 0.0
H1393 H 0.06311 0.7 0.8997 0.0
H1394 H 1.02145 0.71405 0.91284 0.0
H1395 H 1.01833 0.77298 0.97474 0.0
H1396 H 0.93037 0.86469 0.95439 0.0
H1397 H 0.96459 0.83449 0.95698 0.0
C1398 C 0.52029 0.66259 0.13563 0.0
C1399 C 0.49798 0.6597 0.12102 0.0
C1400 C 0.52808 0.6866 0.1444 0.0
C1401 C 0.51699 0.75597 0.13742 0.0
H1402 H 0.54001 0.75758 0.20912 0.0
C1403 C 0.53463 0.8505 0.19125 0.0
C1404 C 0.55904 0.85249 0.20183 0.0
C1405 C 0.5249 0.82677 0.1836 0.0
C1406 C 0.53359 0.75739 0.18909 0.0
H1407 H 0.46735 0.68003 0.10251 0.0
H1408 H 0.48073 0.72171 0.11806 0.0
H1409 H 0.52975 0.71687 0.18867 0.0
H1410 H 0.59163 0.83133 0.21462 0.0
H1411 H 0.57445 0.78996 0.20183 0.0
H1412 H 0.52077 0.79658 0.13799 0.0
C1413 C 0.49233 0.70552 0.12267 0.0
C1414 C 0.52796 0.73409 0.17727 0.0
C1415 C 0.48465 0.68155 0.11375 0.0
C1416 C 0.57272 0.83027 0.20653 0.0
C1417 C 0.56288 0.80659 0.19923 0.0
C1418 C 0.52246 0.77929 0.14932 0.0
C1419 C 0.51364 0.7082 0.13885 0.0
C1420 C 0.51984 0.73307 0.1512 0.0
C1421 C 0.53929 0.80471 0.18682 0.0
C1422 C 0.53103 0.7802 0.17519 0.0
H1423 H 0.5311 0.64617 0.14138 0.0
H1424 H 0.54499 0.68813 0.15624 0.0
H1425 H 0.511 0.75586 0.11726 0.0
H1426 H 0.52381 0.86739 0.18723 0.0
H1427 H 0.50653 0.82575 0.1743 0.0
C1428 C 1.01476 0.18123 0.63907 0.0
C1429 C 0.99198 0.17812 0.62533 0.0
C1430 C 1.01956 0.20328 0.6534 0.0
C1431 C 1.00123 0.26974 0.66227 0.0
H1432 H 0.03122 0.26007 0.73049 0.0
C1433 C 0.03389 0.35584 0.72037 0.0
C1434 C 0.05987 0.35427 0.72542 0.0
C1435 C 1.01977 0.33377 0.715 0.0
C1436 C 0.02264 0.26305 0.71159 0.0
H1437 H 0.95692 0.19636 0.61463 0.0
H1438 H 0.96546 0.23502 0.63956 0.0
H1439 H 1.01935 0.22309 0.70423 0.0
H1440 H 0.09077 0.32862 0.73231 0.0
H1441 H 0.06624 0.29022 0.72338 0.0
H1442 H 1.00542 0.30966 0.66914 0.0
C1443 C 0.97956 0.22033 0.63927 0.0
C1444 C 1.01605 0.24193 0.69647 0.0
C1445 C 0.97476 0.19823 0.62488 0.0
C1446 C 0.07075 0.33028 0.72841 0.0
C1447 C 0.05664 0.30827 0.72329 0.0
C1448 C 1.00784 0.29088 0.67738 0.0
C1449 C 1.00167 0.22271 0.65431 0.0
C1450 C 1.00604 0.24508 0.67133 0.0
C1451 C 0.03144 0.30992 0.71494 0.0
C1452 C 1.01934 0.28775 0.70187 0.0
H1453 H 0.02846 0.16614 0.63967 0.0
H1454 H 0.03709 0.20491 0.66423 0.0
H1455 H 0.99358 0.27276 0.64297 0.0
H1456 H 0.02507 0.37414 0.71783 0.0
H1457 H 1.00026 0.33552 0.709 0.0
C1458 C 0.46126 0.37632 0.3473 0.0
C1459 C 0.43787 0.36391 0.34396 0.0
C1460 C 0.48321 0.36528 0.33805 0.0
C1461 C 0.50507 0.30055 0.32568 0.0
H1462 H 0.56908 0.33559 0.31497 0.0
C1463 C 0.59761 0.24622 0.32417 0.0
C1464 C 0.61577 0.25537 0.34201 0.0
C1465 C 0.57707 0.26103 0.31726 0.0
C1466 C 0.55128 0.32561 0.31781 0.0
H1467 H 0.41843 0.33193 0.32607 0.0
H1468 H 0.45663 0.31322 0.30852 0.0
H1469 H 0.52986 0.35943 0.31251 0.0
H1470 H 0.62718 0.28757 0.36581 0.0
H1471 H 0.59092 0.31354 0.35383 0.0
H1472 H 0.52645 0.26688 0.33134 0.0
C1473 C 0.45827 0.3309 0.31922 0.0
C1474 C 0.52884 0.33921 0.31646 0.0
C1475 C 0.43637 0.34167 0.329 0.0
C1476 C 0.61336 0.28 0.35217 0.0
C1477 C 0.59282 0.29494 0.34509 0.0
C1478 C 0.5274 0.28698 0.32664 0.0
C1479 C 0.4821 0.34178 0.32496 0.0
C1480 C 0.50549 0.32697 0.32119 0.0
C1481 C 0.57425 0.28534 0.32797 0.0
C1482 C 0.55074 0.29947 0.32344 0.0
H1483 H 0.46282 0.39341 0.35901 0.0
H1484 H 0.50112 0.3742 0.34309 0.0
H1485 H 0.48766 0.29045 0.33003 0.0
H1486 H 0.59877 0.22719 0.31624 0.0
H1487 H 0.56303 0.25323 0.30399 0.0
C1488 C 0.72254 0.46541 0.84577 0.0
C1489 C 0.722 0.45383 0.82114 0.0
C1490 C 0.71825 0.49151 0.84818 0.0
C1491 C 0.70863 0.55147 0.8111 0.0
H1492 H 0.64545 0.55409 0.84864 0.0
C1493 C 0.60904 0.59223 0.78635 0.0
C1494 C 0.61582 0.61653 0.77722 0.0
C1495 C 0.62542 0.57884 0.8025 0.0
C1496 C 0.6633 0.55393 0.8385 0.0
H1497 H 0.72063 0.46094 0.7797 0.0
H1498 H 0.71396 0.50638 0.78379 0.0
H1499 H 0.67365 0.51847 0.8556 0.0
H1500 H 0.64388 0.64687 0.77966 0.0
H1501 H 0.67262 0.62336 0.80781 0.0
H1502 H 0.69733 0.58584 0.79244 0.0
C1503 C 0.71711 0.49542 0.80131 0.0
C1504 C 0.67959 0.53364 0.84263 0.0
C1505 C 0.72087 0.46932 0.79893 0.0
C1506 C 0.63811 0.6282 0.78657 0.0
C1507 C 0.65466 0.61469 0.80249 0.0
C1508 C 0.69245 0.57187 0.80714 0.0
C1509 C 0.7141 0.50646 0.82596 0.0
C1510 C 0.70172 0.5315 0.82788 0.0
C1511 C 0.64902 0.58942 0.80956 0.0
C1512 C 0.66898 0.57254 0.81973 0.0
H1513 H 0.72375 0.45407 0.86326 0.0
H1514 H 0.71634 0.49962 0.86741 0.0
H1515 H 0.72563 0.55036 0.7996 0.0
H1516 H 0.59195 0.58285 0.77943 0.0
H1517 H 0.62057 0.55935 0.80747 0.0
C1518 C 0.7212 0.35348 0.93595 0.0
C1519 C 0.72865 0.36123 0.91093 0.0
C1520 C 0.73424 0.36239 0.95786 0.0
C1521 C 0.76587 0.41972 0.97755 0.0
H1522 H 0.79314 0.38238 0.03599 0.0
C1523 C 0.83473 0.46418 0.05087 0.0
C1524 C 0.83676 0.45368 0.07588 0.0
C1525 C 0.81726 0.45428 0.0331 0.0
C1526 C 0.78505 0.39316 1.02015 0.0
H1527 H 0.75727 0.38205 0.88915 0.0
H1528 H 0.77974 0.39776 0.92744 0.0
H1529 H 0.77368 0.35921 0.99978 0.0
H1530 H 0.82025 0.42642 0.1028 0.0
H1531 H 0.78892 0.40996 0.07215 0.0
H1532 H 0.77668 0.45366 0.99777 0.0
C1533 C 0.76365 0.38506 0.93001 0.0
C1534 C 0.7742 0.37982 0.99934 0.0
C1535 C 0.75089 0.37586 0.90813 0.0
C1536 C 0.81916 0.43496 0.08367 0.0
C1537 C 0.80148 0.42521 0.06595 0.0
C1538 C 0.77629 0.43307 0.99848 0.0
C1539 C 0.75474 0.37929 0.95497 0.0
C1540 C 0.76515 0.39302 0.97764 0.0
C1541 C 0.80121 0.43387 0.04009 0.0
C1542 C 0.7866 0.41996 1.01976 0.0
H1543 H 0.70425 0.34204 0.93872 0.0
H1544 H 0.7272 0.35758 0.977 0.0
H1545 H 0.75841 0.43026 0.96118 0.0
H1546 H 0.84781 0.47891 0.04447 0.0
H1547 H 0.8177 0.46146 1.01338 0.0
C1548 C 0.93829 0.49782 0.22888 0.0
C1549 C 0.92591 0.48082 0.21192 0.0
C1550 C 0.92767 0.50385 0.25287 0.0
C1551 C 0.86634 0.50104 0.28804 0.0
H1552 H 0.90877 0.52574 0.3444 0.0
C1553 C 0.86249 0.55955 0.39248 0.0
C1554 C 0.84485 0.57751 0.38412 0.0
C1555 C 0.86947 0.53974 0.3759 0.0
C1556 C 0.89651 0.51829 0.32924 0.0
H1557 H 0.89274 0.45661 0.20698 0.0
H1558 H 0.87513 0.46567 0.24923 0.0
H1559 H 0.92796 0.50632 0.30683 0.0
H1560 H 0.81864 0.58728 0.35337 0.0
H1561 H 0.83097 0.55363 0.32454 0.0
H1562 H 0.83486 0.5122 0.31083 0.0
C1563 C 0.89257 0.47518 0.24385 0.0
C1564 C 0.90761 0.50764 0.30729 0.0
C1565 C 0.90284 0.46973 0.21959 0.0
C1566 C 0.83251 0.57386 0.3602 0.0
C1567 C 0.8395 0.55428 0.3437 0.0
C1568 C 0.85523 0.51108 0.31024 0.0
C1569 C 0.90467 0.49254 0.26078 0.0
C1570 C 0.89276 0.49996 0.28585 0.0
C1571 C 0.85891 0.53764 0.35077 0.0
C1572 C 0.87019 0.52105 0.33057 0.0
H1573 H 0.95601 0.50683 0.22347 0.0
H1574 H 0.93733 0.51783 0.26489 0.0
H1575 H 0.85407 0.49542 0.27211 0.0
H1576 H 0.87226 0.56189 0.41089 0.0
H1577 H 0.88407 0.52692 0.38225 0.0
C1578 C 0.67989 0.60685 0.66074 0.0
C1579 C 0.65739 0.61715 0.65111 0.0
C1580 C 0.69922 0.60033 0.64377 0.0
C1581 C 0.71605 0.59503 0.57343 0.0
H1582 H 0.7795 0.62471 0.59712 0.0
C1583 C 0.80822 0.64821 0.52732 0.0
C1584 C 0.81321 0.63231 0.50613 0.0
C1585 C 0.79093 0.64066 0.54628 0.0
C1586 C 0.76193 0.61633 0.59019 0.0
H1587 H 0.63658 0.62643 0.616 0.0
H1588 H 0.67035 0.61573 0.58657 0.0
H1589 H 0.74488 0.61973 0.62744 0.0
H1590 H 0.80454 0.59567 0.48855 0.0
H1591 H 0.77457 0.58234 0.52189 0.0
H1592 H 0.73267 0.59332 0.53571 0.0
C1593 C 0.67313 0.61237 0.60714 0.0
C1594 C 0.74215 0.61307 0.6077 0.0
C1595 C 0.65374 0.61867 0.62409 0.0
C1596 C 0.80097 0.60843 0.50458 0.0
C1597 C 0.78373 0.60082 0.52362 0.0
C1598 C 0.73582 0.59846 0.55585 0.0
C1599 C 0.6965 0.60417 0.61685 0.0
C1600 C 0.7187 0.60309 0.59937 0.0
C1601 C 0.77834 0.61695 0.54457 0.0
C1602 C 0.75872 0.60989 0.56388 0.0
H1603 H 0.68312 0.60509 0.68147 0.0
H1604 H 0.71675 0.59344 0.65184 0.0
H1605 H 0.69838 0.58693 0.56646 0.0
H1606 H 0.81729 0.66674 0.52905 0.0
H1607 H 0.78691 0.65376 0.56189 0.0
C1608 C 0.35742 0.5499 0.19585 0.0
C1609 C 0.37754 0.53734 0.18389 0.0
C1610 C 0.3462 0.5399 0.21824 0.0
C1611 C 0.34071 0.52591 0.27503 0.0
H1612 H 0.33816 0.45362 0.28963 0.0
C1613 C 0.34564 0.48527 0.37879 0.0
C1614 C 0.33571 0.46085 0.38359 0.0
C1615 C 0.34404 0.49588 0.35391 0.0
C1616 C 0.33817 0.47389 0.28589 0.0
H1617 H 0.40041 0.50351 0.18518 0.0
H1618 H 0.38164 0.48661 0.22464 0.0
H1619 H 0.34672 0.46814 0.24581 0.0
H1620 H 0.31419 0.42939 0.36713 0.0
H1621 H 0.31023 0.44833 0.32412 0.0
H1622 H 0.33181 0.53163 0.31509 0.0
C1623 C 0.37419 0.50402 0.2166 0.0
C1624 C 0.34353 0.48223 0.26072 0.0
C1625 C 0.38523 0.51388 0.19409 0.0
C1626 C 0.32228 0.44815 0.36379 0.0
C1627 C 0.32024 0.45893 0.33909 0.0
C1628 C 0.33503 0.51756 0.30017 0.0
C1629 C 0.35496 0.51722 0.22935 0.0
C1630 C 0.34563 0.50834 0.25512 0.0
C1631 C 0.33209 0.48241 0.33348 0.0
C1632 C 0.33439 0.49144 0.30611 0.0
H1633 H 0.3511 0.56813 0.18874 0.0
H1634 H 0.33113 0.55035 0.22723 0.0
H1635 H 0.34234 0.54619 0.27157 0.0
H1636 H 0.35628 0.49535 0.39369 0.0
H1637 H 0.3536 0.51388 0.35038 0.0
C1638 C 0.24478 0.72099 0.94648 0.0
C1639 C 0.23114 0.70124 0.93419 0.0
C1640 C 0.2631 0.7155 0.96516 0.0
C1641 C 0.31255 0.6972 0.98745 0.0
H1642 H 0.30584 0.64061 0.03546 0.0
C1643 C 0.39829 0.64896 0.03345 0.0
C1644 C 0.39659 0.6406 0.0593 0.0
C1645 C 0.37718 0.65852 1.0207 0.0
C1646 C 0.30792 0.65669 1.02243 0.0
H1647 H 0.22538 0.66029 0.9325 0.0
H1648 H 0.25762 0.65073 0.96465 0.0
H1649 H 0.26943 0.65379 1.00997 0.0
H1650 H 0.37151 0.63613 0.09227 0.0
H1651 H 0.33471 0.65311 0.07006 0.0
H1652 H 0.351 0.70018 0.99996 0.0
C1653 C 0.25395 0.67047 0.96018 0.0
C1654 C 0.28714 0.66406 1.00763 0.0
C1655 C 0.23558 0.67596 0.94159 0.0
C1656 C 0.3734 0.64227 0.07227 0.0
C1657 C 0.35229 0.65191 0.05954 0.0
C1658 C 0.3333 0.68989 1.00231 0.0
C1659 C 0.26819 0.69016 0.97186 0.0
C1660 C 0.28936 0.68407 0.98962 0.0
C1661 C 0.35393 0.66003 0.03357 0.0
C1662 C 0.33134 0.66924 1.01957 0.0
H1663 H 0.24165 0.74069 0.94136 0.0
H1664 H 0.27351 0.7311 0.97412 0.0
H1665 H 0.31497 0.71255 0.97358 0.0
H1666 H 0.41587 0.64787 1.0229 0.0
H1667 H 0.37895 0.66423 1.00055 0.0
C1668 C 0.20405 0.633 0.794 0.0
C1669 C 0.20495 0.63632 0.82105 0.0
C1670 C 0.20268 0.6086 0.78338 0.0
C1671 C 0.20439 0.55349 0.76542 0.0
H1672 H 0.1467 0.51827 0.79559 0.0
C1673 C 0.13748 0.45856 0.74459 0.0
C1674 C 0.13591 0.46112 0.71746 0.0
C1675 C 0.1491 0.47768 0.75959 0.0
C1676 C 0.16314 0.52751 0.7872 0.0
H1677 H 0.20757 0.61675 0.85813 0.0
H1678 H 0.20482 0.57409 0.83949 0.0
H1679 H 0.16538 0.55495 0.81785 0.0
H1680 H 0.1439 0.48611 0.68488 0.0
H1681 H 0.16326 0.51963 0.71094 0.0
H1682 H 0.20189 0.52646 0.7345 0.0
C1683 C 0.20511 0.59038 0.82657 0.0
C1684 C 0.17389 0.54849 0.79999 0.0
C1685 C 0.20688 0.6148 0.83718 0.0
C1686 C 0.14506 0.48352 0.70575 0.0
C1687 C 0.15644 0.5026 0.72067 0.0
C1688 C 0.1938 0.53241 0.75275 0.0
C1689 C 0.20191 0.58713 0.79966 0.0
C1690 C 0.1941 0.56215 0.78879 0.0
C1691 C 0.1592 0.49967 0.74767 0.0
C1692 C 0.17248 0.51974 0.76302 0.0
H1693 H 0.20264 0.64925 0.78113 0.0
H1694 H 0.20017 0.60667 0.76256 0.0
H1695 H 0.22011 0.56354 0.75653 0.0
H1696 H 0.13076 0.44136 0.75407 0.0
H1697 H 0.15091 0.47485 0.78037 0.0
C1698 C 0.32698 0.37421 0.51519 0.0
C1699 C 0.32407 0.38815 0.49208 0.0
C1700 C 0.30591 0.36398 0.52792 0.0
C1701 C 0.23602 0.36773 0.53048 0.0
H1702 H 0.24107 0.30094 0.56216 0.0
C1703 C 0.14983 0.3262 0.57659 0.0
C1704 C 0.15407 0.32434 0.60349 0.0
C1705 C 0.17011 0.32549 0.55946 0.0
C1706 C 0.2394 0.31947 0.55313 0.0
H1707 H 0.29668 0.40304 0.46471 0.0
H1708 H 0.26026 0.38485 0.48638 0.0
H1709 H 0.27792 0.32009 0.54081 0.0
H1710 H 0.18185 0.31587 0.63319 0.0
H1711 H 0.21718 0.31439 0.60327 0.0
H1712 H 0.19768 0.36723 0.54277 0.0
C1713 C 0.27866 0.38212 0.49509 0.0
C1714 C 0.26053 0.33062 0.54121 0.0
C1715 C 0.29963 0.39262 0.48262 0.0
C1716 C 0.17805 0.31737 0.61253 0.0
C1717 C 0.19836 0.31665 0.59537 0.0
C1718 C 0.21493 0.35647 0.54198 0.0
C1719 C 0.28153 0.36727 0.51763 0.0
C1720 C 0.25914 0.35504 0.53 0.0
C1721 C 0.19479 0.32281 0.56906 0.0
C1722 C 0.21642 0.33236 0.55363 0.0
H1723 H 0.34559 0.37047 0.52297 0.0
H1724 H 0.30878 0.35318 0.54559 0.0
H1725 H 0.2343 0.38673 0.52259 0.0
H1726 H 0.13142 0.33131 0.56916 0.0
H1727 H 0.16684 0.32974 0.53912 0.0
loop_
_geom_bond_atom_site_label_1
_geom_bond_atom_site_label_2
_geom_bond_distance
_geom_bond_site_symmetry_2
_ccdc_geom_bond_type
C0 C1 1.351 . S
C0 N3 1.368 . S
C0 H5 0.931 . S
C1 C0 1.351 . S
C1 N2 1.373 . S
C1 H29 0.930 . S
N2 C1 1.373 . S
N2 C4 1.340 . S
N3 C0 1.368 . S
N3 C4 1.321 . S
N3 Co6 2.135 . S
C4 N2 1.340 . S
C4 N3 1.321 . S
C4 H28 0.930 . S
H5 C0 0.931 . S
Co6 N3 2.135 . S
Co6 N9 2.121 . S
Co6 O14 2.055 . S
Co6 O17 2.039 . S
Co6 N20 2.140 . S
C7 O8 1.227 . S
C7 O17 1.265 . S
O8 C7 1.227 . S
N9 Co6 2.121 . S
N9 C11 1.375 . S
N9 C12 1.313 . S
C10 C11 1.338 . S
C10 N13 1.377 . S
C10 H30 0.930 . S
C11 N9 1.375 . S
C11 C10 1.338 . S
C11 H15 0.931 . S
C12 N9 1.313 . S
C12 N13 1.344 . S
C12 H16 0.930 . S
N13 C10 1.377 . S
N13 C12 1.344 . S
O14 Co6 2.055 . S
O14 C18 1.253 . S
H15 C11 0.931 . S
H16 C12 0.930 . S
O17 Co6 2.039 . S
O17 C7 1.265 . S
C18 O14 1.253 . S
C18 O19 1.227 . S
O19 C18 1.227 . S
N20 Co6 2.140 . S
N20 C23 1.346 . S
N20 C24 1.345 . S
C21 C22 1.387 . S
C21 C25 1.391 . S
C22 C21 1.387 . S
C22 C23 1.369 . S
C22 H31 0.929 . S
C23 N20 1.346 . S
C23 C22 1.369 . S
C23 H26 0.928 . S
C24 N20 1.345 . S
C24 C25 1.371 . S
C24 H27 0.931 . S
C25 C21 1.391 . S
C25 C24 1.371 . S
C25 H32 0.930 . S
H26 C23 0.928 . S
H27 C24 0.931 . S
H28 C4 0.930 . S
H29 C1 0.930 . S
H30 C10 0.930 . S
H31 C22 0.929 . S
H32 C25 0.930 . S
C33 C34 1.351 . S
C33 N36 1.368 . S
C33 H38 0.931 . S
C34 C33 1.351 . S
C34 N35 1.373 . S
C34 H62 0.930 . S
N35 C34 1.373 . S
N35 C37 1.340 . S
N36 C33 1.368 . S
N36 C37 1.321 . S
N36 Co39 2.135 . S
C37 N35 1.340 . S
C37 N36 1.321 . S
C37 H61 0.930 . S
H38 C33 0.931 . S
Co39 N36 2.135 . S
Co39 N42 2.121 . S
Co39 O47 2.055 . S
Co39 O50 2.039 . S
Co39 N53 2.140 . S
C40 O41 1.227 . S
C40 O50 1.265 . S
O41 C40 1.227 . S
N42 Co39 2.121 . S
N42 C44 1.375 . S
N42 C45 1.313 . S
C43 C44 1.338 . S
C43 N46 1.377 . S
C43 H63 0.930 . S
C44 N42 1.375 . S
C44 C43 1.338 . S
C44 H48 0.931 . S
C45 N42 1.313 . S
C45 N46 1.344 . S
C45 H49 0.930 . S
N46 C43 1.377 . S
N46 C45 1.344 . S
O47 Co39 2.055 . S
O47 C51 1.253 . S
H48 C44 0.931 . S
H49 C45 0.930 . S
O50 Co39 2.039 . S
O50 C40 1.265 . S
C51 O47 1.253 . S
C51 O52 1.227 . S
O52 C51 1.227 . S
N53 Co39 2.140 . S
N53 C56 1.346 . S
N53 C57 1.345 . S
C54 C55 1.387 . S
C54 C58 1.391 . S
C55 C54 1.387 . S
C55 C56 1.369 . S
C55 H64 0.929 . S
C56 N53 1.346 . S
C56 C55 1.369 . S
C56 H59 0.928 . S
C57 N53 1.345 . S
C57 C58 1.371 . S
C57 H60 0.931 . S
C58 C54 1.391 . S
C58 C57 1.371 . S
C58 H65 0.930 . S
H59 C56 0.928 . S
H60 C57 0.931 . S
H61 C37 0.930 . S
H62 C34 0.930 . S
H63 C43 0.930 . S
H64 C55 0.929 . S
H65 C58 0.930 . S
C66 C67 1.351 . S
C66 N69 1.368 . S
C66 H71 0.931 . S
C67 C66 1.351 . S
C67 N68 1.373 . S
C67 H95 0.930 . S
N68 C67 1.373 . S
N68 C70 1.340 . S
N69 C66 1.368 . S
N69 C70 1.321 . S
N69 Co72 2.135 . S
C70 N68 1.340 . S
C70 N69 1.321 . S
C70 H94 0.930 . S
H71 C66 0.931 . S
Co72 N69 2.135 . S
Co72 N75 2.121 . S
Co72 O80 2.055 . S
Co72 O83 2.039 . S
Co72 N86 2.140 . S
C73 O74 1.227 . S
C73 O83 1.265 . S
O74 C73 1.227 . S
N75 Co72 2.121 . S
N75 C77 1.375 . S
N75 C78 1.313 . S
C76 C77 1.338 . S
C76 N79 1.377 . S
C76 H96 0.930 . S
C77 N75 1.375 . S
C77 C76 1.338 . S
C77 H81 0.931 . S
C78 N75 1.313 . S
C78 N79 1.344 . S
C78 H82 0.930 . S
N79 C76 1.377 . S
N79 C78 1.344 . S
O80 Co72 2.055 . S
O80 C84 1.253 . S
H81 C77 0.931 . S
H82 C78 0.930 . S
O83 Co72 2.039 . S
O83 C73 1.265 . S
C84 O80 1.253 . S
C84 O85 1.227 . S
O85 C84 1.227 . S
N86 Co72 2.140 . S
N86 C89 1.346 . S
N86 C90 1.345 . S
C87 C88 1.387 . S
C87 C91 1.391 . S
C88 C87 1.387 . S
C88 C89 1.369 . S
C88 H97 0.929 . S
C89 N86 1.346 . S
C89 C88 1.369 . S
C89 H92 0.928 . S
C90 N86 1.345 . S
C90 C91 1.371 . S
C90 H93 0.931 . S
C91 C87 1.391 . S
C91 C90 1.371 . S
C91 H98 0.930 . S
H92 C89 0.928 . S
H93 C90 0.931 . S
H94 C70 0.930 . S
H95 C67 0.930 . S
H96 C76 0.930 . S
H97 C88 0.929 . S
H98 C91 0.930 . S
C99 C100 1.351 . S
C99 N102 1.368 . S
C99 H104 0.931 . S
C100 C99 1.351 . S
C100 N101 1.373 . S
C100 H128 0.930 . S
N101 C100 1.373 . S
N101 C103 1.340 . S
N102 C99 1.368 . S
N102 C103 1.321 . S
N102 Co105 2.135 . S
C103 N101 1.340 . S
C103 N102 1.321 . S
C103 H127 0.930 . S
H104 C99 0.931 . S
Co105 N102 2.135 . S
Co105 N108 2.121 . S
Co105 O113 2.055 . S
Co105 O116 2.039 . S
Co105 N119 2.140 . S
C106 O107 1.227 . S
C106 O116 1.265 . S
O107 C106 1.227 . S
N108 Co105 2.121 . S
N108 C110 1.375 . S
N108 C111 1.313 . S
C109 C110 1.338 . S
C109 N112 1.377 . S
C109 H129 0.930 . S
C110 N108 1.375 . S
C110 C109 1.338 . S
C110 H114 0.931 . S
C111 N108 1.313 . S
C111 N112 1.344 . S
C111 H115 0.930 . S
N112 C109 1.377 . S
N112 C111 1.344 . S
O113 Co105 2.055 . S
O113 C117 1.253 . S
H114 C110 0.931 . S
H115 C111 0.930 . S
O116 Co105 2.039 . S
O116 C106 1.265 . S
C117 O113 1.253 . S
C117 O118 1.227 . S
O118 C117 1.227 . S
N119 Co105 2.140 . S
N119 C122 1.346 . S
N119 C123 1.345 . S
C120 C121 1.387 . S
C120 C124 1.391 . S
C121 C120 1.387 . S
C121 C122 1.369 . S
C121 H130 0.929 . S
C122 N119 1.346 . S
C122 C121 1.369 . S
C122 H125 0.928 . S
C123 N119 1.345 . S
C123 C124 1.371 . S
C123 H126 0.931 . S
C124 C120 1.391 . S
C124 C123 1.371 . S
C124 H131 0.930 . S
H125 C122 0.928 . S
H126 C123 0.931 . S
H127 C103 0.930 . S
H128 C100 0.930 . S
H129 C109 0.930 . S
H130 C121 0.929 . S
H131 C124 0.930 . S
C132 C133 1.351 . S
C132 N135 1.368 . S
C132 H137 0.931 . S
C133 C132 1.351 . S
C133 N134 1.373 . S
C133 H161 0.930 . S
N134 C133 1.373 . S
N134 C136 1.340 . S
N135 C132 1.368 . S
N135 C136 1.321 . S
N135 Co138 2.135 . S
C136 N134 1.340 . S
C136 N135 1.321 . S
C136 H160 0.930 . S
H137 C132 0.931 . S
Co138 N135 2.135 . S
Co138 N141 2.121 . S
Co138 O146 2.055 . S
Co138 O149 2.039 . S
Co138 N152 2.140 . S
C139 O140 1.227 . S
C139 O149 1.265 . S
O140 C139 1.227 . S
N141 Co138 2.121 . S
N141 C143 1.375 . S
N141 C144 1.313 . S
C142 C143 1.338 . S
C142 N145 1.377 . S
C142 H162 0.930 . S
C143 N141 1.375 . S
C143 C142 1.338 . S
C143 H147 0.931 . S
C144 N141 1.313 . S
C144 N145 1.344 . S
C144 H148 0.930 . S
N145 C142 1.377 . S
N145 C144 1.344 . S
O146 Co138 2.055 . S
O146 C150 1.253 . S
H147 C143 0.931 . S
H148 C144 0.930 . S
O149 Co138 2.039 . S
O149 C139 1.265 . S
C150 O146 1.253 . S
C150 O151 1.227 . S
O151 C150 1.227 . S
N152 Co138 2.140 . S
N152 C155 1.346 . S
N152 C156 1.345 . S
C153 C154 1.387 . S
C153 C157 1.391 . S
C154 C153 1.387 . S
C154 C155 1.369 . S
C154 H163 0.929 . S
C155 N152 1.346 . S
C155 C154 1.369 . S
C155 H158 0.928 . S
C156 N152 1.345 . S
C156 C157 1.371 . S
C156 H159 0.931 . S
C157 C153 1.391 . S
C157 C156 1.371 . S
C157 H164 0.930 . S
H158 C155 0.928 . S
H159 C156 0.931 . S
H160 C136 0.930 . S
H161 C133 0.930 . S
H162 C142 0.930 . S
H163 C154 0.929 . S
H164 C157 0.930 . S
C165 C166 1.351 . S
C165 N168 1.368 . S
C165 H170 0.931 . S
C166 C165 1.351 . S
C166 N167 1.373 . S
C166 H194 0.930 . S
N167 C166 1.373 . S
N167 C169 1.340 . S
N168 C165 1.368 . S
N168 C169 1.321 . S
N168 Co171 2.135 . S
C169 N167 1.340 . S
C169 N168 1.321 . S
C169 H193 0.930 . S
H170 C165 0.931 . S
Co171 N168 2.135 . S
Co171 N174 2.121 . S
Co171 O179 2.055 . S
Co171 O182 2.039 . S
Co171 N185 2.140 . S
C172 O173 1.227 . S
C172 O182 1.265 . S
O173 C172 1.227 . S
N174 Co171 2.121 . S
N174 C176 1.375 . S
N174 C177 1.313 . S
C175 C176 1.338 . S
C175 N178 1.377 . S
C175 H195 0.930 . S
C176 N174 1.375 . S
C176 C175 1.338 . S
C176 H180 0.931 . S
C177 N174 1.313 . S
C177 N178 1.344 . S
C177 H181 0.930 . S
N178 C175 1.377 . S
N178 C177 1.344 . S
O179 Co171 2.055 . S
O179 C183 1.253 . S
H180 C176 0.931 . S
H181 C177 0.930 . S
O182 Co171 2.039 . S
O182 C172 1.265 . S
C183 O179 1.253 . S
C183 O184 1.227 . S
O184 C183 1.227 . S
N185 Co171 2.140 . S
N185 C188 1.346 . S
N185 C189 1.345 . S
C186 C187 1.387 . S
C186 C190 1.391 . S
C187 C186 1.387 . S
C187 C188 1.369 . S
C187 H196 0.929 . S
C188 N185 1.346 . S
C188 C187 1.369 . S
C188 H191 0.928 . S
C189 N185 1.345 . S
C189 C190 1.371 . S
C189 H192 0.931 . S
C190 C186 1.391 . S
C190 C189 1.371 . S
C190 H197 0.930 . S
H191 C188 0.928 . S
H192 C189 0.931 . S
H193 C169 0.930 . S
H194 C166 0.930 . S
H195 C175 0.930 . S
H196 C187 0.929 . S
H197 C190 0.930 . S
C198 C199 1.351 . S
C198 N201 1.368 . S
C198 H203 0.931 . S
C199 C198 1.351 . S
C199 N200 1.373 . S
C199 H227 0.930 . S
N200 C199 1.373 . S
N200 C202 1.340 . S
N201 C198 1.368 . S
N201 C202 1.321 . S
N201 Co204 2.135 . S
C202 N200 1.340 . S
C202 N201 1.321 . S
C202 H226 0.930 . S
H203 C198 0.931 . S
Co204 N201 2.135 . S
Co204 N207 2.121 . S
Co204 O212 2.055 . S
Co204 O215 2.039 . S
Co204 N218 2.140 . S
C205 O206 1.227 . S
C205 O215 1.265 . S
O206 C205 1.227 . S
N207 Co204 2.121 . S
N207 C209 1.375 . S
N207 C210 1.313 . S
C208 C209 1.338 . S
C208 N211 1.377 . S
C208 H228 0.930 . S
C209 N207 1.375 . S
C209 C208 1.338 . S
C209 H213 0.931 . S
C210 N207 1.313 . S
C210 N211 1.344 . S
C210 H214 0.930 . S
N211 C208 1.377 . S
N211 C210 1.344 . S
O212 Co204 2.055 . S
O212 C216 1.253 . S
H213 C209 0.931 . S
H214 C210 0.930 . S
O215 Co204 2.039 . S
O215 C205 1.265 . S
C216 O212 1.253 . S
C216 O217 1.227 . S
O217 C216 1.227 . S
N218 Co204 2.140 . S
N218 C221 1.346 . S
N218 C222 1.345 . S
C219 C220 1.387 . S
C219 C223 1.391 . S
C220 C219 1.387 . S
C220 C221 1.369 . S
C220 H229 0.929 . S
C221 N218 1.346 . S
C221 C220 1.369 . S
C221 H224 0.928 . S
C222 N218 1.345 . S
C222 C223 1.371 . S
C222 H225 0.931 . S
C223 C219 1.391 . S
C223 C222 1.371 . S
C223 H230 0.930 . S
H224 C221 0.928 . S
H225 C222 0.931 . S
H226 C202 0.930 . S
H227 C199 0.930 . S
H228 C208 0.930 . S
H229 C220 0.929 . S
H230 C223 0.930 . S
C231 C232 1.351 . S
C231 N234 1.368 . S
C231 H236 0.931 . S
C232 C231 1.351 . S
C232 N233 1.373 . S
C232 H260 0.930 . S
N233 C232 1.373 . S
N233 C235 1.340 . S
N234 C231 1.368 . S
N234 C235 1.321 . S
N234 Co237 2.135 . S
C235 N233 1.340 . S
C235 N234 1.321 . S
C235 H259 0.930 . S
H236 C231 0.931 . S
Co237 N234 2.135 . S
Co237 N240 2.121 . S
Co237 O245 2.055 . S
Co237 O248 2.039 . S
Co237 N251 2.140 . S
C238 O239 1.227 . S
C238 O248 1.265 . S
O239 C238 1.227 . S
N240 Co237 2.121 . S
N240 C242 1.375 . S
N240 C243 1.313 . S
C241 C242 1.338 . S
C241 N244 1.377 . S
C241 H261 0.930 . S
C242 N240 1.375 . S
C242 C241 1.338 . S
C242 H246 0.931 . S
C243 N240 1.313 . S
C243 N244 1.344 . S
C243 H247 0.930 . S
N244 C241 1.377 . S
N244 C243 1.344 . S
O245 Co237 2.055 . S
O245 C249 1.253 . S
H246 C242 0.931 . S
H247 C243 0.930 . S
O248 Co237 2.039 . S
O248 C238 1.265 . S
C249 O245 1.253 . S
C249 O250 1.227 . S
O250 C249 1.227 . S
N251 Co237 2.140 . S
N251 C254 1.346 . S
N251 C255 1.345 . S
C252 C253 1.387 . S
C252 C256 1.391 . S
C253 C252 1.387 . S
C253 C254 1.369 . S
C253 H262 0.929 . S
C254 N251 1.346 . S
C254 C253 1.369 . S
C254 H257 0.928 . S
C255 N251 1.345 . S
C255 C256 1.371 . S
C255 H258 0.931 . S
C256 C252 1.391 . S
C256 C255 1.371 . S
C256 H263 0.930 . S
H257 C254 0.928 . S
H258 C255 0.931 . S
H259 C235 0.930 . S
H260 C232 0.930 . S
H261 C241 0.930 . S
H262 C253 0.929 . S
H263 C256 0.930 . S
C264 C265 1.351 . S
C264 N267 1.368 . S
C264 H269 0.931 . S
C265 C264 1.351 . S
C265 N266 1.373 . S
C265 H293 0.930 . S
N266 C265 1.373 . S
N266 C268 1.340 . S
N267 C264 1.368 . S
N267 C268 1.321 . S
N267 Co270 2.135 . S
C268 N266 1.340 . S
C268 N267 1.321 . S
C268 H292 0.930 . S
H269 C264 0.931 . S
Co270 N267 2.135 . S
Co270 N273 2.121 . S
Co270 O278 2.055 . S
Co270 O281 2.039 . S
Co270 N284 2.140 . S
C271 O272 1.227 . S
C271 O281 1.265 . S
O272 C271 1.227 . S
N273 Co270 2.121 . S
N273 C275 1.375 . S
N273 C276 1.313 . S
C274 C275 1.338 . S
C274 N277 1.377 . S
C274 H294 0.930 . S
C275 N273 1.375 . S
C275 C274 1.338 . S
C275 H279 0.931 . S
C276 N273 1.313 . S
C276 N277 1.344 . S
C276 H280 0.930 . S
N277 C274 1.377 . S
N277 C276 1.344 . S
O278 Co270 2.055 . S
O278 C282 1.253 . S
H279 C275 0.931 . S
H280 C276 0.930 . S
O281 Co270 2.039 . S
O281 C271 1.265 . S
C282 O278 1.253 . S
C282 O283 1.227 . S
O283 C282 1.227 . S
N284 Co270 2.140 . S
N284 C287 1.346 . S
N284 C288 1.345 . S
C285 C286 1.387 . S
C285 C289 1.391 . S
C286 C285 1.387 . S
C286 C287 1.369 . S
C286 H295 0.929 . S
C287 N284 1.346 . S
C287 C286 1.369 . S
C287 H290 0.928 . S
C288 N284 1.345 . S
C288 C289 1.371 . S
C288 H291 0.931 . S
C289 C285 1.391 . S
C289 C288 1.371 . S
C289 H296 0.930 . S
H290 C287 0.928 . S
H291 C288 0.931 . S
H292 C268 0.930 . S
H293 C265 0.930 . S
H294 C274 0.930 . S
H295 C286 0.929 . S
H296 C289 0.930 . S
C297 C298 1.351 . S
C297 N300 1.368 . S
C297 H302 0.931 . S
C298 C297 1.351 . S
C298 N299 1.373 . S
C298 H326 0.930 . S
N299 C298 1.373 . S
N299 C301 1.340 . S
N300 C297 1.368 . S
N300 C301 1.321 . S
N300 Co303 2.135 . S
C301 N299 1.340 . S
C301 N300 1.321 . S
C301 H325 0.930 . S
H302 C297 0.931 . S
Co303 N300 2.135 . S
Co303 N306 2.121 . S
Co303 O311 2.055 . S
Co303 O314 2.039 . S
Co303 N317 2.140 . S
C304 O305 1.227 . S
C304 O314 1.265 . S
O305 C304 1.227 . S
N306 Co303 2.121 . S
N306 C308 1.375 . S
N306 C309 1.313 . S
C307 C308 1.338 . S
C307 N310 1.377 . S
C307 H327 0.930 . S
C308 N306 1.375 . S
C308 C307 1.338 . S
C308 H312 0.931 . S
C309 N306 1.313 . S
C309 N310 1.344 . S
C309 H313 0.930 . S
N310 C307 1.377 . S
N310 C309 1.344 . S
O311 Co303 2.055 . S
O311 C315 1.253 . S
H312 C308 0.931 . S
H313 C309 0.930 . S
O314 Co303 2.039 . S
O314 C304 1.265 . S
C315 O311 1.253 . S
C315 O316 1.227 . S
O316 C315 1.227 . S
N317 Co303 2.140 . S
N317 C320 1.346 . S
N317 C321 1.345 . S
C318 C319 1.387 . S
C318 C322 1.391 . S
C319 C318 1.387 . S
C319 C320 1.369 . S
C319 H328 0.929 . S
C320 N317 1.346 . S
C320 C319 1.369 . S
C320 H323 0.928 . S
C321 N317 1.345 . S
C321 C322 1.371 . S
C321 H324 0.931 . S
C322 C318 1.391 . S
C322 C321 1.371 . S
C322 H329 0.930 . S
H323 C320 0.928 . S
H324 C321 0.931 . S
H325 C301 0.930 . S
H326 C298 0.930 . S
H327 C307 0.930 . S
H328 C319 0.929 . S
H329 C322 0.930 . S
C330 C331 1.351 . S
C330 N333 1.368 . S
C330 H335 0.931 . S
C331 C330 1.351 . S
C331 N332 1.373 . S
C331 H359 0.930 . S
N332 C331 1.373 . S
N332 C334 1.340 . S
N333 C330 1.368 . S
N333 C334 1.321 . S
N333 Co336 2.135 . S
C334 N332 1.340 . S
C334 N333 1.321 . S
C334 H358 0.930 . S
H335 C330 0.931 . S
Co336 N333 2.135 . S
Co336 N339 2.121 . S
Co336 O344 2.055 . S
Co336 O347 2.039 . S
Co336 N350 2.140 . S
C337 O338 1.227 . S
C337 O347 1.265 . S
O338 C337 1.227 . S
N339 Co336 2.121 . S
N339 C341 1.375 . S
N339 C342 1.313 . S
C340 C341 1.338 . S
C340 N343 1.377 . S
C340 H360 0.930 . S
C341 N339 1.375 . S
C341 C340 1.338 . S
C341 H345 0.931 . S
C342 N339 1.313 . S
C342 N343 1.344 . S
C342 H346 0.930 . S
N343 C340 1.377 . S
N343 C342 1.344 . S
O344 Co336 2.055 . S
O344 C348 1.253 . S
H345 C341 0.931 . S
H346 C342 0.930 . S
O347 Co336 2.039 . S
O347 C337 1.265 . S
C348 O344 1.253 . S
C348 O349 1.227 . S
O349 C348 1.227 . S
N350 Co336 2.140 . S
N350 C353 1.346 . S
N350 C354 1.345 . S
C351 C352 1.387 . S
C351 C355 1.391 . S
C352 C351 1.387 . S
C352 C353 1.369 . S
C352 H361 0.929 . S
C353 N350 1.346 . S
C353 C352 1.369 . S
C353 H356 0.928 . S
C354 N350 1.345 . S
C354 C355 1.371 . S
C354 H357 0.931 . S
C355 C351 1.391 . S
C355 C354 1.371 . S
C355 H362 0.930 . S
H356 C353 0.928 . S
H357 C354 0.931 . S
H358 C334 0.930 . S
H359 C331 0.930 . S
H360 C340 0.930 . S
H361 C352 0.929 . S
H362 C355 0.930 . S
C363 C364 1.351 . S
C363 N366 1.368 . S
C363 H368 0.931 . S
C364 C363 1.351 . S
C364 N365 1.373 . S
C364 H392 0.930 . S
N365 C364 1.373 . S
N365 C367 1.340 . S
N366 C363 1.368 . S
N366 C367 1.321 . S
N366 Co369 2.135 . S
C367 N365 1.340 . S
C367 N366 1.321 . S
C367 H391 0.930 . S
H368 C363 0.931 . S
Co369 N366 2.135 . S
Co369 N372 2.121 . S
Co369 O377 2.055 . S
Co369 O380 2.039 . S
Co369 N383 2.140 . S
C370 O371 1.227 . S
C370 O380 1.265 . S
O371 C370 1.227 . S
N372 Co369 2.121 . S
N372 C374 1.375 . S
N372 C375 1.313 . S
C373 C374 1.338 . S
C373 N376 1.377 . S
C373 H393 0.930 . S
C374 N372 1.375 . S
C374 C373 1.338 . S
C374 H378 0.931 . S
C375 N372 1.313 . S
C375 N376 1.344 . S
C375 H379 0.930 . S
N376 C373 1.377 . S
N376 C375 1.344 . S
O377 Co369 2.055 . S
O377 C381 1.253 . S
H378 C374 0.931 . S
H379 C375 0.930 . S
O380 Co369 2.039 . S
O380 C370 1.265 . S
C381 O377 1.253 . S
C381 O382 1.227 . S
O382 C381 1.227 . S
N383 Co369 2.140 . S
N383 C386 1.346 . S
N383 C387 1.345 . S
C384 C385 1.387 . S
C384 C388 1.391 . S
C385 C384 1.387 . S
C385 C386 1.369 . S
C385 H394 0.929 . S
C386 N383 1.346 . S
C386 C385 1.369 . S
C386 H389 0.928 . S
C387 N383 1.345 . S
C387 C388 1.371 . S
C387 H390 0.931 . S
C388 C384 1.391 . S
C388 C387 1.371 . S
C388 H395 0.930 . S
H389 C386 0.928 . S
H390 C387 0.931 . S
H391 C367 0.930 . S
H392 C364 0.930 . S
H393 C373 0.930 . S
H394 C385 0.929 . S
H395 C388 0.930 . S
C396 C397 1.351 . S
C396 N399 1.368 . S
C396 H401 0.931 . S
C397 C396 1.351 . S
C397 N398 1.373 . S
C397 H425 0.930 . S
N398 C397 1.373 . S
N398 C400 1.340 . S
N399 C396 1.368 . S
N399 C400 1.321 . S
N399 Co402 2.135 . S
C400 N398 1.340 . S
C400 N399 1.321 . S
C400 H424 0.930 . S
H401 C396 0.931 . S
Co402 N399 2.135 . S
Co402 N405 2.121 . S
Co402 O410 2.055 . S
Co402 O413 2.039 . S
Co402 N416 2.140 . S
C403 O404 1.227 . S
C403 O413 1.265 . S
O404 C403 1.227 . S
N405 Co402 2.121 . S
N405 C407 1.375 . S
N405 C408 1.313 . S
C406 C407 1.338 . S
C406 N409 1.377 . S
C406 H426 0.930 . S
C407 N405 1.375 . S
C407 C406 1.338 . S
C407 H411 0.931 . S
C408 N405 1.313 . S
C408 N409 1.344 . S
C408 H412 0.930 . S
N409 C406 1.377 . S
N409 C408 1.344 . S
O410 Co402 2.055 . S
O410 C414 1.253 . S
H411 C407 0.931 . S
H412 C408 0.930 . S
O413 Co402 2.039 . S
O413 C403 1.265 . S
C414 O410 1.253 . S
C414 O415 1.227 . S
O415 C414 1.227 . S
N416 Co402 2.140 . S
N416 C419 1.346 . S
N416 C420 1.345 . S
C417 C418 1.387 . S
C417 C421 1.391 . S
C418 C417 1.387 . S
C418 C419 1.369 . S
C418 H427 0.929 . S
C419 N416 1.346 . S
C419 C418 1.369 . S
C419 H422 0.928 . S
C420 N416 1.345 . S
C420 C421 1.371 . S
C420 H423 0.931 . S
C421 C417 1.391 . S
C421 C420 1.371 . S
C421 H428 0.930 . S
H422 C419 0.928 . S
H423 C420 0.931 . S
H424 C400 0.930 . S
H425 C397 0.930 . S
H426 C406 0.930 . S
H427 C418 0.929 . S
H428 C421 0.930 . S
C429 C430 1.351 . S
C429 N432 1.368 . S
C429 H434 0.931 . S
C430 C429 1.351 . S
C430 N431 1.373 . S
C430 H458 0.930 . S
N431 C430 1.373 . S
N431 C433 1.340 . S
N432 C429 1.368 . S
N432 C433 1.321 . S
N432 Co435 2.135 . S
C433 N431 1.340 . S
C433 N432 1.321 . S
C433 H457 0.930 . S
H434 C429 0.931 . S
Co435 N432 2.135 . S
Co435 N438 2.121 . S
Co435 O443 2.055 . S
Co435 O446 2.039 . S
Co435 N449 2.140 . S
C436 O437 1.227 . S
C436 O446 1.265 . S
O437 C436 1.227 . S
N438 Co435 2.121 . S
N438 C440 1.375 . S
N438 C441 1.313 . S
C439 C440 1.338 . S
C439 N442 1.377 . S
C439 H459 0.930 . S
C440 N438 1.375 . S
C440 C439 1.338 . S
C440 H444 0.931 . S
C441 N438 1.313 . S
C441 N442 1.344 . S
C441 H445 0.930 . S
N442 C439 1.377 . S
N442 C441 1.344 . S
O443 Co435 2.055 . S
O443 C447 1.253 . S
H444 C440 0.931 . S
H445 C441 0.930 . S
O446 Co435 2.039 . S
O446 C436 1.265 . S
C447 O443 1.253 . S
C447 O448 1.227 . S
O448 C447 1.227 . S
N449 Co435 2.140 . S
N449 C452 1.346 . S
N449 C453 1.345 . S
C450 C451 1.387 . S
C450 C454 1.391 . S
C451 C450 1.387 . S
C451 C452 1.369 . S
C451 H460 0.929 . S
C452 N449 1.346 . S
C452 C451 1.369 . S
C452 H455 0.928 . S
C453 N449 1.345 . S
C453 C454 1.371 . S
C453 H456 0.931 . S
C454 C450 1.391 . S
C454 C453 1.371 . S
C454 H461 0.930 . S
H455 C452 0.928 . S
H456 C453 0.931 . S
H457 C433 0.930 . S
H458 C430 0.930 . S
H459 C439 0.930 . S
H460 C451 0.929 . S
H461 C454 0.930 . S
C462 C463 1.351 . S
C462 N465 1.368 . S
C462 H467 0.931 . S
C463 C462 1.351 . S
C463 N464 1.373 . S
C463 H491 0.930 . S
N464 C463 1.373 . S
N464 C466 1.340 . S
N465 C462 1.368 . S
N465 C466 1.321 . S
N465 Co468 2.135 . S
C466 N464 1.340 . S
C466 N465 1.321 . S
C466 H490 0.930 . S
H467 C462 0.931 . S
Co468 N465 2.135 . S
Co468 N471 2.121 . S
Co468 O476 2.055 . S
Co468 O479 2.039 . S
Co468 N482 2.140 . S
C469 O470 1.227 . S
C469 O479 1.265 . S
O470 C469 1.227 . S
N471 Co468 2.121 . S
N471 C473 1.375 . S
N471 C474 1.313 . S
C472 C473 1.338 . S
C472 N475 1.377 . S
C472 H492 0.930 . S
C473 N471 1.375 . S
C473 C472 1.338 . S
C473 H477 0.931 . S
C474 N471 1.313 . S
C474 N475 1.344 . S
C474 H478 0.930 . S
N475 C472 1.377 . S
N475 C474 1.344 . S
O476 Co468 2.055 . S
O476 C480 1.253 . S
H477 C473 0.931 . S
H478 C474 0.930 . S
O479 Co468 2.039 . S
O479 C469 1.265 . S
C480 O476 1.253 . S
C480 O481 1.227 . S
O481 C480 1.227 . S
N482 Co468 2.140 . S
N482 C485 1.346 . S
N482 C486 1.345 . S
C483 C484 1.387 . S
C483 C487 1.391 . S
C484 C483 1.387 . S
C484 C485 1.369 . S
C484 H493 0.929 . S
C485 N482 1.346 . S
C485 C484 1.369 . S
C485 H488 0.928 . S
C486 N482 1.345 . S
C486 C487 1.371 . S
C486 H489 0.931 . S
C487 C483 1.391 . S
C487 C486 1.371 . S
C487 H494 0.930 . S
H488 C485 0.928 . S
H489 C486 0.931 . S
H490 C466 0.930 . S
H491 C463 0.930 . S
H492 C472 0.930 . S
H493 C484 0.929 . S
H494 C487 0.930 . S
C495 C496 1.351 . S
C495 N498 1.368 . S
C495 H500 0.931 . S
C496 C495 1.351 . S
C496 N497 1.373 . S
C496 H524 0.930 . S
N497 C496 1.373 . S
N497 C499 1.340 . S
N498 C495 1.368 . S
N498 C499 1.321 . S
N498 Co501 2.135 . S
C499 N497 1.340 . S
C499 N498 1.321 . S
C499 H523 0.930 . S
H500 C495 0.931 . S
Co501 N498 2.135 . S
Co501 N504 2.121 . S
Co501 O509 2.055 . S
Co501 O512 2.039 . S
Co501 N515 2.140 . S
C502 O503 1.227 . S
C502 O512 1.265 . S
O503 C502 1.227 . S
N504 Co501 2.121 . S
N504 C506 1.375 . S
N504 C507 1.313 . S
C505 C506 1.338 . S
C505 N508 1.377 . S
C505 H525 0.930 . S
C506 N504 1.375 . S
C506 C505 1.338 . S
C506 H510 0.931 . S
C507 N504 1.313 . S
C507 N508 1.344 . S
C507 H511 0.930 . S
N508 C505 1.377 . S
N508 C507 1.344 . S
O509 Co501 2.055 . S
O509 C513 1.253 . S
H510 C506 0.931 . S
H511 C507 0.930 . S
O512 Co501 2.039 . S
O512 C502 1.265 . S
C513 O509 1.253 . S
C513 O514 1.227 . S
O514 C513 1.227 . S
N515 Co501 2.140 . S
N515 C518 1.346 . S
N515 C519 1.345 . S
C516 C517 1.387 . S
C516 C520 1.391 . S
C517 C516 1.387 . S
C517 C518 1.369 . S
C517 H526 0.929 . S
C518 N515 1.346 . S
C518 C517 1.369 . S
C518 H521 0.928 . S
C519 N515 1.345 . S
C519 C520 1.371 . S
C519 H522 0.931 . S
C520 C516 1.391 . S
C520 C519 1.371 . S
C520 H527 0.930 . S
H521 C518 0.928 . S
H522 C519 0.931 . S
H523 C499 0.930 . S
H524 C496 0.930 . S
H525 C505 0.930 . S
H526 C517 0.929 . S
H527 C520 0.930 . S
C528 C529 1.349 . S
C528 C530 1.327 . S
C528 H553 0.950 . S
C529 C528 1.349 . S
C529 C545 1.349 . S
C530 C528 1.327 . S
C530 C549 1.429 . S
C530 H554 0.950 . S
C531 C548 1.574 . S
C531 C550 1.368 . S
C531 H555 0.949 . S
H532 C536 0.949 . S
C533 C534 1.349 . S
C533 C535 1.327 . S
C533 H556 0.950 . S
C534 C533 1.349 . S
C534 C546 1.349 . S
C535 C533 1.327 . S
C535 C551 1.429 . S
C535 H557 0.950 . S
C536 H532 0.949 . S
C536 C544 1.574 . S
C536 C552 1.368 . S
H537 C545 0.950 . S
H538 C543 0.950 . S
H539 C544 0.949 . S
H540 C546 0.950 . S
H541 C547 0.950 . S
H542 C548 0.949 . S
C543 H538 0.950 . S
C543 C545 1.327 . S
C543 C549 1.429 . S
C544 C536 1.574 . S
C544 H539 0.949 . S
C544 C550 1.368 . S
C545 C529 1.349 . S
C545 H537 0.950 . S
C545 C543 1.327 . S
C546 C534 1.349 . S
C546 H540 0.950 . S
C546 C547 1.327 . S
C547 H541 0.950 . S
C547 C546 1.327 . S
C547 C551 1.429 . S
C548 C531 1.574 . S
C548 H542 0.949 . S
C548 C552 1.368 . S
C549 C530 1.429 . S
C549 C543 1.429 . S
C549 C550 1.523 . S
C550 C531 1.368 . S
C550 C544 1.368 . S
C550 C549 1.523 . S
C551 C535 1.429 . S
C551 C547 1.429 . S
C551 C552 1.523 . S
C552 C536 1.368 . S
C552 C548 1.368 . S
C552 C551 1.523 . S
H553 C528 0.950 . S
H554 C530 0.950 . S
H555 C531 0.949 . S
H556 C533 0.950 . S
H557 C535 0.950 . S
C558 C559 1.349 . S
C558 C560 1.327 . S
C558 H583 0.950 . S
C559 C558 1.349 . S
C559 C575 1.349 . S
C560 C558 1.327 . S
C560 C579 1.429 . S
C560 H584 0.950 . S
C561 C578 1.574 1_645 S
C561 C580 1.368 . S
C561 H585 0.949 1_545 S
H562 C566 0.949 . S
C563 C564 1.349 . S
C563 C565 1.327 . S
C563 H586 0.950 . S
C564 C563 1.349 . S
C564 C576 1.349 . S
C565 C563 1.327 . S
C565 C581 1.429 . S
C565 H587 0.950 . S
C566 H562 0.949 . S
C566 C574 1.574 . S
C566 C582 1.322 1_545 S
H567 C575 0.950 . S
H568 C573 0.950 . S
H569 C574 0.949 . S
H570 C576 0.950 . S
H571 C577 0.950 1_545 S
H572 C578 0.949 . S
C573 H568 0.950 . S
C573 C575 1.327 . S
C573 C579 1.429 . S
C574 C566 1.574 . S
C574 H569 0.949 . S
C574 C580 1.368 1_455 S
C575 C559 1.349 . S
C575 H567 0.950 . S
C575 C573 1.327 . S
C576 C564 1.349 . S
C576 H570 0.950 . S
C576 C577 1.327 . S
C577 H571 0.950 1_565 S
C577 C576 1.327 . S
C577 C581 1.429 . S
C578 C561 1.574 1_465 S
C578 H572 0.949 . S
C578 C582 1.394 . S
C579 C560 1.429 . S
C579 C573 1.429 . S
C579 C580 1.523 . S
C580 C561 1.368 . S
C580 C574 1.368 1_655 S
C580 C579 1.523 . S
C581 C565 1.429 . S
C581 C577 1.429 . S
C581 C582 1.551 . S
C582 C566 1.322 1_565 S
C582 C578 1.394 . S
C582 C581 1.551 . S
H583 C558 0.950 . S
H584 C560 0.950 . S
H585 C561 0.949 1_565 S
H586 C563 0.950 . S
H587 C565 0.950 . S
C588 C589 1.349 . S
C588 C590 1.327 . S
C588 H613 0.950 . S
C589 C588 1.349 . S
C589 C605 1.349 . S
C590 C588 1.327 . S
C590 C609 1.429 . S
C590 H614 0.950 . S
C591 C608 1.574 . S
C591 C610 1.368 . S
C591 H615 0.949 . S
H592 C596 0.949 . S
C593 C594 1.349 . S
C593 C595 1.327 . S
C593 H616 0.950 . S
C594 C593 1.349 . S
C594 C606 1.349 . S
C595 C593 1.327 . S
C595 C611 1.429 . S
C595 H617 0.950 . S
C596 H592 0.949 . S
C596 C604 1.574 . S
C596 C612 1.368 . S
H597 C605 0.950 . S
H598 C603 0.950 . S
H599 C604 0.949 . S
H600 C606 0.950 . S
H601 C607 0.950 . S
H602 C608 0.949 . S
C603 H598 0.950 . S
C603 C605 1.327 . S
C603 C609 1.429 . S
C604 C596 1.574 . S
C604 H599 0.949 . S
C604 C610 1.368 . S
C605 C589 1.349 . S
C605 H597 0.950 . S
C605 C603 1.327 . S
C606 C594 1.349 . S
C606 H600 0.950 . S
C606 C607 1.327 . S
C607 H601 0.950 . S
C607 C606 1.327 . S
C607 C611 1.429 . S
C608 C591 1.574 . S
C608 H602 0.949 . S
C608 C612 1.368 . S
C609 C590 1.429 . S
C609 C603 1.429 . S
C609 C610 1.523 . S
C610 C591 1.368 . S
C610 C604 1.368 . S
C610 C609 1.523 . S
C611 C595 1.429 . S
C611 C607 1.429 . S
C611 C612 1.523 . S
C612 C596 1.368 . S
C612 C608 1.368 . S
C612 C611 1.523 . S
H613 C588 0.950 . S
H614 C590 0.950 . S
H615 C591 0.949 . S
H616 C593 0.950 . S
H617 C595 0.950 . S
C618 C619 1.349 . S
C618 C620 1.349 . S
C618 H643 0.950 . S
C619 C618 1.349 . S
C619 C635 1.349 . S
C620 C618 1.349 . S
C620 C639 1.447 . S
C620 H644 0.909 1_545 S
C621 C638 1.574 . S
C621 C640 1.378 1_554 S
C621 H645 0.950 1_554 S
H622 C626 0.949 . S
C623 C624 1.349 . S
C623 C625 1.327 . S
C623 H646 0.950 . S
C624 C623 1.349 . S
C624 C636 1.349 . S
C625 C623 1.327 . S
C625 C641 1.429 . S
C625 H647 0.950 . S
C626 H622 0.949 . S
C626 C634 1.574 1_554 S
C626 C642 1.368 . S
H627 C635 0.950 . S
H628 C633 0.950 . S
H629 C634 0.949 . S
H630 C636 0.950 . S
H631 C637 0.950 . S
H632 C638 0.949 . S
C633 H628 0.950 . S
C633 C635 1.327 . S
C633 C639 1.429 . S
C634 C626 1.574 1_556 S
C634 H629 0.949 . S
C634 C640 1.352 1_565 S
C635 C619 1.349 . S
C635 H627 0.950 . S
C635 C633 1.327 . S
C636 C624 1.349 . S
C636 H630 0.950 . S
C636 C637 1.327 . S
C637 H631 0.950 . S
C637 C636 1.327 . S
C637 C641 1.429 . S
C638 C621 1.574 . S
C638 H632 0.949 . S
C638 C642 1.368 1_545 S
C639 C620 1.447 . S
C639 C633 1.429 . S
C639 C640 1.532 . S
C640 C621 1.378 1_556 S
C640 C634 1.352 1_545 S
C640 C639 1.532 . S
C641 C625 1.429 . S
C641 C637 1.429 . S
C641 C642 1.523 . S
C642 C626 1.368 . S
C642 C638 1.368 1_565 S
C642 C641 1.523 . S
H643 C618 0.950 . S
H644 C620 0.909 1_565 S
H645 C621 0.950 1_556 S
H646 C623 0.950 . S
H647 C625 0.950 . S
C648 C649 1.349 . S
C648 C650 1.327 . S
C648 H673 0.950 . S
C649 C648 1.349 . S
C649 C665 1.349 . S
C650 C648 1.327 . S
C650 C669 1.429 . S
C650 H674 0.950 . S
C651 C668 1.574 . S
C651 C670 1.368 . S
C651 H675 0.949 . S
H652 C656 0.949 . S
C653 C654 1.349 . S
C653 C655 1.327 . S
C653 H676 0.950 . S
C654 C653 1.349 . S
C654 C666 1.349 . S
C655 C653 1.327 . S
C655 C671 1.429 . S
C655 H677 0.950 . S
C656 H652 0.949 . S
C656 C664 1.574 . S
C656 C672 1.368 . S
H657 C665 0.950 . S
H658 C663 0.950 . S
H659 C664 0.949 . S
H660 C666 0.950 . S
H661 C667 0.950 . S
H662 C668 0.949 . S
C663 H658 0.950 . S
C663 C665 1.327 . S
C663 C669 1.429 . S
C664 C656 1.574 . S
C664 H659 0.949 . S
C664 C670 1.368 . S
C665 C649 1.349 . S
C665 H657 0.950 . S
C665 C663 1.327 . S
C666 C654 1.349 . S
C666 H660 0.950 . S
C666 C667 1.327 . S
C667 H661 0.950 . S
C667 C666 1.327 . S
C667 C671 1.429 . S
C668 C651 1.574 . S
C668 H662 0.949 . S
C668 C672 1.368 . S
C669 C650 1.429 . S
C669 C663 1.429 . S
C669 C670 1.523 . S
C670 C651 1.368 . S
C670 C664 1.368 . S
C670 C669 1.523 . S
C671 C655 1.429 . S
C671 C667 1.429 . S
C671 C672 1.523 . S
C672 C656 1.368 . S
C672 C668 1.368 . S
C672 C671 1.523 . S
H673 C648 0.950 . S
H674 C650 0.950 . S
H675 C651 0.949 . S
H676 C653 0.950 . S
H677 C655 0.950 . S
C678 C679 1.349 . S
C678 C680 1.327 . S
C678 H703 0.950 . S
C679 C678 1.349 . S
C679 C695 1.349 . S
C680 C678 1.327 . S
C680 C699 1.429 . S
C680 H704 0.950 . S
C681 C698 1.574 . S
C681 C700 1.368 . S
C681 H705 0.949 . S
H682 C686 0.949 . S
C683 C684 1.349 . S
C683 C685 1.327 . S
C683 H706 0.950 . S
C684 C683 1.349 . S
C684 C696 1.349 . S
C685 C683 1.327 . S
C685 C701 1.429 . S
C685 H707 0.950 . S
C686 H682 0.949 . S
C686 C694 1.574 1_545 S
C686 C702 1.368 . S
H687 C695 0.950 . S
H688 C693 0.950 . S
H689 C694 0.949 . S
H690 C696 0.950 . S
H691 C697 0.950 . S
H692 C698 0.949 . S
C693 H688 0.950 . S
C693 C695 1.327 . S
C693 C699 1.429 . S
C694 C686 1.574 1_565 S
C694 H689 0.949 . S
C694 C700 1.368 . S
C695 C679 1.349 . S
C695 H687 0.950 . S
C695 C693 1.327 . S
C696 C684 1.349 . S
C696 H690 0.950 . S
C696 C697 1.327 . S
C697 H691 0.950 . S
C697 C696 1.327 . S
C697 C701 1.429 . S
C698 C681 1.574 . S
C698 H692 0.949 . S
C698 C702 1.368 1_565 S
C699 C680 1.429 . S
C699 C693 1.429 . S
C699 C700 1.523 . S
C700 C681 1.368 . S
C700 C694 1.368 . S
C700 C699 1.523 . S
C701 C685 1.429 . S
C701 C697 1.429 . S
C701 C702 1.523 . S
C702 C686 1.368 . S
C702 C698 1.368 1_545 S
C702 C701 1.523 . S
H703 C678 0.950 . S
H704 C680 0.950 . S
H705 C681 0.949 . S
H706 C683 0.950 . S
H707 C685 0.950 . S
C708 C709 1.349 . S
C708 C710 1.327 . S
C708 H733 0.950 . S
C709 C708 1.349 . S
C709 C725 1.349 . S
C710 C708 1.327 . S
C710 C729 1.429 . S
C710 H734 0.950 . S
C711 C728 1.574 . S
C711 C730 1.368 . S
C711 H735 0.949 . S
H712 C716 0.949 . S
C713 C714 1.349 . S
C713 C715 1.327 . S
C713 H736 0.950 . S
C714 C713 1.349 . S
C714 C726 1.349 . S
C715 C713 1.327 . S
C715 C731 1.429 . S
C715 H737 0.950 . S
C716 H712 0.949 . S
C716 C724 1.574 . S
C716 C732 1.368 . S
H717 C725 0.950 . S
H718 C723 0.950 . S
H719 C724 0.949 . S
H720 C726 0.950 . S
H721 C727 0.950 . S
H722 C728 0.949 . S
C723 H718 0.950 . S
C723 C725 1.327 . S
C723 C729 1.429 . S
C724 C716 1.574 . S
C724 H719 0.949 . S
C724 C730 1.368 . S
C725 C709 1.349 . S
C725 H717 0.950 . S
C725 C723 1.327 . S
C726 C714 1.349 . S
C726 H720 0.950 . S
C726 C727 1.327 . S
C727 H721 0.950 . S
C727 C726 1.327 . S
C727 C731 1.429 . S
C728 C711 1.574 . S
C728 H722 0.949 . S
C728 C732 1.368 . S
C729 C710 1.429 . S
C729 C723 1.429 . S
C729 C730 1.523 . S
C730 C711 1.368 . S
C730 C724 1.368 . S
C730 C729 1.523 . S
C731 C715 1.429 . S
C731 C727 1.429 . S
C731 C732 1.523 . S
C732 C716 1.368 . S
C732 C728 1.368 . S
C732 C731 1.523 . S
H733 C708 0.950 . S
H734 C710 0.950 . S
H735 C711 0.949 . S
H736 C713 0.950 . S
H737 C715 0.950 . S
C738 C739 1.349 . S
C738 C740 1.327 . S
C738 H763 0.950 . S
C739 C738 1.349 . S
C739 C755 1.349 . S
C740 C738 1.327 . S
C740 C759 1.429 . S
C740 H764 0.950 1_455 S
C741 C758 1.559 1_445 S
C741 C760 1.368 1_556 S
C741 H765 0.949 . S
H742 C746 0.949 . S
C743 C744 1.349 . S
C743 C745 1.327 . S
C743 H766 0.950 . S
C744 C743 1.349 . S
C744 C756 1.349 . S
C745 C743 1.327 . S
C745 C761 1.429 . S
C745 H767 0.950 . S
C746 H742 0.949 . S
C746 C754 1.574 1_556 S
C746 C762 1.368 . S
H747 C755 0.950 . S
H748 C753 0.950 . S
H749 C754 0.949 . S
H750 C756 0.950 . S
H751 C757 0.950 . S
H752 C758 0.967 1_455 S
C753 H748 0.950 . S
C753 C755 1.327 . S
C753 C759 1.429 . S
C754 C746 1.574 1_554 S
C754 H749 0.949 . S
C754 C760 1.368 1_655 S
C755 C739 1.349 . S
C755 H747 0.950 . S
C755 C753 1.327 . S
C756 C744 1.349 . S
C756 H750 0.950 . S
C756 C757 1.327 . S
C757 H751 0.950 . S
C757 C756 1.327 . S
C757 C761 1.429 . S
C758 C741 1.559 1_665 S
C758 H752 0.967 1_655 S
C758 C762 1.364 1_565 S
C759 C740 1.429 . S
C759 C753 1.429 . S
C759 C760 1.523 . S
C760 C741 1.368 1_554 S
C760 C754 1.368 1_455 S
C760 C759 1.523 . S
C761 C745 1.429 . S
C761 C757 1.429 . S
C761 C762 1.523 1_565 S
C762 C746 1.368 . S
C762 C758 1.364 1_545 S
C762 C761 1.523 1_545 S
H763 C738 0.950 . S
H764 C740 0.950 1_655 S
H765 C741 0.949 . S
H766 C743 0.950 . S
H767 C745 0.950 . S
C768 C769 1.349 . S
C768 C770 1.327 . S
C768 H793 0.950 . S
C769 C768 1.349 . S
C769 C785 1.349 . S
C770 C768 1.327 . S
C770 C789 1.429 . S
C770 H794 0.950 . S
C771 C788 1.574 . S
C771 C790 1.368 . S
C771 H795 0.949 . S
H772 C776 0.949 . S
C773 C774 1.349 . S
C773 C775 1.327 . S
C773 H796 0.950 . S
C774 C773 1.349 . S
C774 C786 1.349 . S
C775 C773 1.327 . S
C775 C791 1.429 . S
C775 H797 0.950 . S
C776 H772 0.949 . S
C776 C784 1.574 . S
C776 C792 1.368 . S
H777 C785 0.950 . S
H778 C783 0.950 . S
H779 C784 0.949 . S
H780 C786 0.950 . S
H781 C787 0.950 . S
H782 C788 0.949 . S
C783 H778 0.950 . S
C783 C785 1.327 . S
C783 C789 1.429 . S
C784 C776 1.574 . S
C784 H779 0.949 . S
C784 C790 1.368 . S
C785 C769 1.349 . S
C785 H777 0.950 . S
C785 C783 1.327 . S
C786 C774 1.349 . S
C786 H780 0.950 . S
C786 C787 1.327 . S
C787 H781 0.950 . S
C787 C786 1.327 . S
C787 C791 1.429 . S
C788 C771 1.574 . S
C788 H782 0.949 . S
C788 C792 1.368 . S
C789 C770 1.429 . S
C789 C783 1.429 . S
C789 C790 1.523 . S
C790 C771 1.368 . S
C790 C784 1.368 . S
C790 C789 1.523 . S
C791 C775 1.429 . S
C791 C787 1.429 . S
C791 C792 1.523 . S
C792 C776 1.368 . S
C792 C788 1.368 . S
C792 C791 1.523 . S
H793 C768 0.950 . S
H794 C770 0.950 . S
H795 C771 0.949 . S
H796 C773 0.950 . S
H797 C775 0.950 . S
C798 C799 1.349 . S
C798 C800 1.327 . S
C798 H823 0.950 . S
C799 C798 1.349 . S
C799 C815 1.349 . S
C800 C798 1.327 . S
C800 C819 1.429 . S
C800 H824 0.950 . S
C801 C818 1.574 . S
C801 C820 1.368 1_554 S
C801 H825 0.949 . S
H802 C806 0.949 . S
C803 C804 1.349 . S
C803 C805 1.327 . S
C803 H826 0.950 . S
C804 C803 1.349 . S
C804 C816 1.349 . S
C805 C803 1.327 . S
C805 C821 1.429 . S
C805 H827 0.950 . S
C806 H802 0.949 . S
C806 C814 1.574 1_554 S
C806 C822 1.368 . S
H807 C815 0.950 . S
H808 C813 0.950 . S
H809 C814 0.949 . S
H810 C816 0.950 . S
H811 C817 0.950 1_455 S
H812 C818 0.949 1_655 S
C813 H808 0.950 . S
C813 C815 1.327 . S
C813 C819 1.429 . S
C814 C806 1.574 1_556 S
C814 H809 0.949 . S
C814 C820 1.368 . S
C815 C799 1.349 . S
C815 H807 0.950 . S
C815 C813 1.327 . S
C816 C804 1.349 . S
C816 H810 0.950 . S
C816 C817 1.327 . S
C817 H811 0.950 1_655 S
C817 C816 1.327 . S
C817 C821 1.429 . S
C818 C801 1.574 . S
C818 H812 0.949 1_455 S
C818 C822 1.368 . S
C819 C800 1.429 . S
C819 C813 1.429 . S
C819 C820 1.523 . S
C820 C801 1.368 1_556 S
C820 C814 1.368 . S
C820 C819 1.523 . S
C821 C805 1.429 . S
C821 C817 1.429 . S
C821 C822 1.523 1_655 S
C822 C806 1.368 . S
C822 C818 1.368 . S
C822 C821 1.523 1_455 S
H823 C798 0.950 . S
H824 C800 0.950 . S
H825 C801 0.949 . S
H826 C803 0.950 . S
H827 C805 0.950 . S
C828 C829 1.349 . S
C828 C830 1.327 . S
C828 H853 0.950 . S
C829 C828 1.349 . S
C829 C845 1.349 . S
C830 C828 1.327 . S
C830 C849 1.429 . S
C830 H854 0.950 . S
C831 C848 1.574 . S
C831 C850 1.368 . S
C831 H855 0.949 . S
H832 C836 0.949 . S
C833 C834 1.349 . S
C833 C835 1.327 . S
C833 H856 0.950 . S
C834 C833 1.349 . S
C834 C846 1.349 . S
C835 C833 1.327 . S
C835 C851 1.429 . S
C835 H857 0.950 . S
C836 H832 0.949 . S
C836 C844 1.574 . S
C836 C852 1.368 . S
H837 C845 0.950 . S
H838 C843 0.950 . S
H839 C844 0.949 . S
H840 C846 0.950 . S
H841 C847 0.950 . S
H842 C848 0.949 . S
C843 H838 0.950 . S
C843 C845 1.327 . S
C843 C849 1.429 . S
C844 C836 1.574 . S
C844 H839 0.949 . S
C844 C850 1.368 . S
C845 C829 1.349 . S
C845 H837 0.950 . S
C845 C843 1.327 . S
C846 C834 1.349 . S
C846 H840 0.950 . S
C846 C847 1.327 . S
C847 H841 0.950 . S
C847 C846 1.327 . S
C847 C851 1.429 . S
C848 C831 1.574 . S
C848 H842 0.949 . S
C848 C852 1.368 . S
C849 C830 1.429 . S
C849 C843 1.429 . S
C849 C850 1.523 . S
C850 C831 1.368 . S
C850 C844 1.368 . S
C850 C849 1.523 . S
C851 C835 1.429 . S
C851 C847 1.429 . S
C851 C852 1.523 . S
C852 C836 1.368 . S
C852 C848 1.368 . S
C852 C851 1.523 . S
H853 C828 0.950 . S
H854 C830 0.950 . S
H855 C831 0.949 . S
H856 C833 0.950 . S
H857 C835 0.950 . S
C858 C859 1.349 . S
C858 C860 1.327 . S
C858 H883 0.950 . S
C859 C858 1.349 . S
C859 C875 1.349 . S
C860 C858 1.327 . S
C860 C879 1.429 . S
C860 H884 0.950 . S
C861 C878 1.574 . S
C861 C880 1.368 . S
C861 H885 0.949 . S
H862 C866 0.949 . S
C863 C864 1.349 . S
C863 C865 1.327 . S
C863 H886 0.950 . S
C864 C863 1.349 . S
C864 C876 1.349 . S
C865 C863 1.327 . S
C865 C881 1.429 . S
C865 H887 0.950 . S
C866 H862 0.949 . S
C866 C874 1.574 1_455 S
C866 C882 1.368 . S
H867 C875 0.950 . S
H868 C873 0.950 . S
H869 C874 0.949 . S
H870 C876 0.950 . S
H871 C877 0.950 . S
H872 C878 0.949 . S
C873 H868 0.950 . S
C873 C875 1.327 . S
C873 C879 1.429 . S
C874 C866 1.574 1_655 S
C874 H869 0.949 . S
C874 C880 1.368 . S
C875 C859 1.349 . S
C875 H867 0.950 . S
C875 C873 1.327 . S
C876 C864 1.349 . S
C876 H870 0.950 . S
C876 C877 1.327 . S
C877 H871 0.950 . S
C877 C876 1.327 . S
C877 C881 1.429 . S
C878 C861 1.574 . S
C878 H872 0.949 . S
C878 C882 1.368 1_655 S
C879 C860 1.429 . S
C879 C873 1.429 . S
C879 C880 1.523 . S
C880 C861 1.368 . S
C880 C874 1.368 . S
C880 C879 1.523 . S
C881 C865 1.429 . S
C881 C877 1.429 . S
C881 C882 1.523 . S
C882 C866 1.368 . S
C882 C878 1.368 1_455 S
C882 C881 1.523 . S
H883 C858 0.950 . S
H884 C860 0.950 . S
H885 C861 0.949 . S
H886 C863 0.950 . S
H887 C865 0.950 . S
C888 C889 1.349 . S
C888 C890 1.327 . S
C888 H913 0.950 . S
C889 C888 1.349 . S
C889 C905 1.349 . S
C890 C888 1.327 . S
C890 C909 1.429 . S
C890 H914 0.950 . S
C891 C908 1.574 1_556 S
C891 C910 1.368 . S
C891 H915 0.949 . S
H892 C896 0.949 . S
C893 C894 1.349 . S
C893 C895 1.327 . S
C893 H916 0.950 . S
C894 C893 1.349 . S
C894 C906 1.349 . S
C895 C893 1.327 . S
C895 C911 1.429 . S
C895 H917 0.950 . S
C896 H892 0.949 . S
C896 C904 1.574 . S
C896 C912 1.368 1_556 S
H897 C905 0.950 . S
H898 C903 0.950 . S
H899 C904 0.949 . S
H900 C906 0.950 . S
H901 C907 0.950 . S
H902 C908 0.949 . S
C903 H898 0.950 . S
C903 C905 1.327 . S
C903 C909 1.429 . S
C904 C896 1.574 . S
C904 H899 0.949 . S
C904 C910 1.368 . S
C905 C889 1.349 . S
C905 H897 0.950 . S
C905 C903 1.327 . S
C906 C894 1.349 . S
C906 H900 0.950 . S
C906 C907 1.327 . S
C907 H901 0.950 . S
C907 C906 1.327 . S
C907 C911 1.429 . S
C908 C891 1.574 1_554 S
C908 H902 0.949 . S
C908 C912 1.368 . S
C909 C890 1.429 . S
C909 C903 1.429 . S
C909 C910 1.523 . S
C910 C891 1.368 . S
C910 C904 1.368 . S
C910 C909 1.523 . S
C911 C895 1.429 . S
C911 C907 1.429 . S
C911 C912 1.523 . S
C912 C896 1.368 1_554 S
C912 C908 1.368 . S
C912 C911 1.523 . S
H913 C888 0.950 . S
H914 C890 0.950 . S
H915 C891 0.949 . S
H916 C893 0.950 . S
H917 C895 0.950 . S
C918 C919 1.349 . S
C918 C920 1.327 . S
C918 H943 0.950 . S
C919 C918 1.349 . S
C919 C935 1.349 . S
C920 C918 1.327 . S
C920 C939 1.429 . S
C920 H944 0.950 . S
C921 C938 1.574 . S
C921 C940 1.368 . S
C921 H945 0.949 . S
H922 C926 0.949 . S
C923 C924 1.349 . S
C923 C925 1.327 . S
C923 H946 0.950 . S
C924 C923 1.349 . S
C924 C936 1.349 . S
C925 C923 1.327 . S
C925 C941 1.429 . S
C925 H947 0.950 . S
C926 H922 0.949 . S
C926 C934 1.574 . S
C926 C942 1.368 . S
H927 C935 0.950 . S
H928 C933 0.950 . S
H929 C934 0.949 . S
H930 C936 0.950 . S
H931 C937 0.950 . S
H932 C938 0.949 . S
C933 H928 0.950 . S
C933 C935 1.327 . S
C933 C939 1.429 . S
C934 C926 1.574 . S
C934 H929 0.949 . S
C934 C940 1.368 . S
C935 C919 1.349 . S
C935 H927 0.950 . S
C935 C933 1.327 . S
C936 C924 1.349 . S
C936 H930 0.950 . S
C936 C937 1.327 . S
C937 H931 0.950 . S
C937 C936 1.327 . S
C937 C941 1.429 . S
C938 C921 1.574 . S
C938 H932 0.949 . S
C938 C942 1.368 . S
C939 C920 1.429 . S
C939 C933 1.429 . S
C939 C940 1.523 . S
C940 C921 1.368 . S
C940 C934 1.368 . S
C940 C939 1.523 . S
C941 C925 1.429 . S
C941 C937 1.429 . S
C941 C942 1.523 . S
C942 C926 1.368 . S
C942 C938 1.368 . S
C942 C941 1.523 . S
H943 C918 0.950 . S
H944 C920 0.950 . S
H945 C921 0.949 . S
H946 C923 0.950 . S
H947 C925 0.950 . S
C948 C949 1.349 . S
C948 C950 1.327 . S
C948 H973 0.950 . S
C949 C948 1.349 . S
C949 C965 1.349 . S
C950 C948 1.327 . S
C950 C969 1.429 . S
C950 H974 0.950 . S
C951 C968 1.574 . S
C951 C970 1.368 . S
C951 H975 0.949 . S
H952 C956 0.949 . S
C953 C954 1.349 . S
C953 C955 1.327 . S
C953 H976 0.950 . S
C954 C953 1.349 . S
C954 C966 1.349 . S
C955 C953 1.327 . S
C955 C971 1.429 . S
C955 H977 0.950 . S
C956 H952 0.949 . S
C956 C964 1.574 . S
C956 C972 1.368 . S
H957 C965 0.950 . S
H958 C963 0.950 . S
H959 C964 0.949 . S
H960 C966 0.950 . S
H961 C967 0.950 . S
H962 C968 0.949 . S
C963 H958 0.950 . S
C963 C965 1.327 . S
C963 C969 1.429 . S
C964 C956 1.574 . S
C964 H959 0.949 . S
C964 C970 1.368 . S
C965 C949 1.349 . S
C965 H957 0.950 . S
C965 C963 1.327 . S
C966 C954 1.349 . S
C966 H960 0.950 . S
C966 C967 1.327 . S
C967 H961 0.950 . S
C967 C966 1.327 . S
C967 C971 1.429 . S
C968 C951 1.574 . S
C968 H962 0.949 . S
C968 C972 1.368 . S
C969 C950 1.429 . S
C969 C963 1.429 . S
C969 C970 1.523 . S
C970 C951 1.368 . S
C970 C964 1.368 . S
C970 C969 1.523 . S
C971 C955 1.429 . S
C971 C967 1.429 . S
C971 C972 1.523 . S
C972 C956 1.368 . S
C972 C968 1.368 . S
C972 C971 1.523 . S
H973 C948 0.950 . S
H974 C950 0.950 . S
H975 C951 0.949 . S
H976 C953 0.950 . S
H977 C955 0.950 . S
C978 C979 1.349 . S
C978 C980 1.327 . S
C978 H1003 0.950 . S
C979 C978 1.349 . S
C979 C995 1.349 . S
C980 C978 1.327 . S
C980 C999 1.429 . S
C980 H1004 0.950 . S
C981 C998 1.574 . S
C981 C1000 1.368 . S
C981 H1005 0.949 . S
H982 C986 0.949 . S
C983 C984 1.349 . S
C983 C985 1.327 . S
C983 H1006 0.950 . S
C984 C983 1.349 . S
C984 C996 1.349 . S
C985 C983 1.327 . S
C985 C1001 1.429 . S
C985 H1007 0.950 . S
C986 H982 0.949 . S
C986 C994 1.574 . S
C986 C1002 1.368 . S
H987 C995 0.950 . S
H988 C993 0.950 . S
H989 C994 0.949 . S
H990 C996 0.950 . S
H991 C997 0.950 . S
H992 C998 0.949 . S
C993 H988 0.950 . S
C993 C995 1.327 . S
C993 C999 1.429 . S
C994 C986 1.574 . S
C994 H989 0.949 . S
C994 C1000 1.368 . S
C995 C979 1.349 . S
C995 H987 0.950 . S
C995 C993 1.327 . S
C996 C984 1.349 . S
C996 H990 0.950 . S
C996 C997 1.327 . S
C997 H991 0.950 . S
C997 C996 1.327 . S
C997 C1001 1.429 . S
C998 C981 1.574 . S
C998 H992 0.949 . S
C998 C1002 1.368 . S
C999 C980 1.429 . S
C999 C993 1.429 . S
C999 C1000 1.523 . S
C1000 C981 1.368 . S
C1000 C994 1.368 . S
C1000 C999 1.523 . S
C1001 C985 1.429 . S
C1001 C997 1.429 . S
C1001 C1002 1.523 . S
C1002 C986 1.368 . S
C1002 C998 1.368 . S
C1002 C1001 1.523 . S
H1003 C978 0.950 . S
H1004 C980 0.950 . S
H1005 C981 0.949 . S
H1006 C983 0.950 . S
H1007 C985 0.950 . S
C1008 C1009 1.349 . S
C1008 C1010 1.327 . S
C1008 H1033 0.950 . S
C1009 C1008 1.349 . S
C1009 C1025 1.349 . S
C1010 C1008 1.327 . S
C1010 C1029 1.429 . S
C1010 H1034 0.950 . S
C1011 C1028 1.606 . S
C1011 C1030 1.330 1_565 S
C1011 H1035 0.956 . S
H1012 C1016 0.949 . S
C1013 C1014 1.349 . S
C1013 C1015 1.327 . S
C1013 H1036 0.950 . S
C1014 C1013 1.349 . S
C1014 C1026 1.349 . S
C1015 C1013 1.327 . S
C1015 C1031 1.429 . S
C1015 H1037 0.950 . S
C1016 H1012 0.949 . S
C1016 C1024 1.574 . S
C1016 C1032 1.368 1_545 S
H1017 C1025 0.950 . S
H1018 C1023 0.950 . S
H1019 C1024 0.949 . S
H1020 C1026 0.950 . S
H1021 C1027 0.950 . S
H1022 C1028 0.949 . S
C1023 H1018 0.950 . S
C1023 C1025 1.327 . S
C1023 C1029 1.429 . S
C1024 C1016 1.574 . S
C1024 H1019 0.949 . S
C1024 C1030 1.368 . S
C1025 C1009 1.349 . S
C1025 H1017 0.950 . S
C1025 C1023 1.327 . S
C1026 C1014 1.349 . S
C1026 H1020 0.950 . S
C1026 C1027 1.327 . S
C1027 H1021 0.950 . S
C1027 C1026 1.327 . S
C1027 C1031 1.429 . S
C1028 C1011 1.606 . S
C1028 H1022 0.949 . S
C1028 C1032 1.368 . S
C1029 C1010 1.429 . S
C1029 C1023 1.429 . S
C1029 C1030 1.523 . S
C1030 C1011 1.330 1_545 S
C1030 C1024 1.368 . S
C1030 C1029 1.523 . S
C1031 C1015 1.429 . S
C1031 C1027 1.429 . S
C1031 C1032 1.523 . S
C1032 C1016 1.368 1_565 S
C1032 C1028 1.368 . S
C1032 C1031 1.523 . S
H1033 C1008 0.950 . S
H1034 C1010 0.950 . S
H1035 C1011 0.956 . S
H1036 C1013 0.950 . S
H1037 C1015 0.950 . S
C1038 C1039 1.349 . S
C1038 C1040 1.327 . S
C1038 H1063 0.950 . S
C1039 C1038 1.349 . S
C1039 C1055 1.349 . S
C1040 C1038 1.327 . S
C1040 C1059 1.429 . S
C1040 H1064 0.950 . S
C1041 C1058 1.574 . S
C1041 C1060 1.368 . S
C1041 H1065 0.949 . S
H1042 C1046 0.949 . S
C1043 C1044 1.349 . S
C1043 C1045 1.327 . S
C1043 H1066 0.950 . S
C1044 C1043 1.349 . S
C1044 C1056 1.349 . S
C1045 C1043 1.327 . S
C1045 C1061 1.429 . S
C1045 H1067 0.950 . S
C1046 H1042 0.949 . S
C1046 C1054 1.574 . S
C1046 C1062 1.368 . S
H1047 C1055 0.950 . S
H1048 C1053 0.950 . S
H1049 C1054 0.949 . S
H1050 C1056 0.950 . S
H1051 C1057 0.950 . S
H1052 C1058 0.949 . S
C1053 H1048 0.950 . S
C1053 C1055 1.327 . S
C1053 C1059 1.429 . S
C1054 C1046 1.574 . S
C1054 H1049 0.949 . S
C1054 C1060 1.368 . S
C1055 C1039 1.349 . S
C1055 H1047 0.950 . S
C1055 C1053 1.327 . S
C1056 C1044 1.349 . S
C1056 H1050 0.950 . S
C1056 C1057 1.327 . S
C1057 H1051 0.950 . S
C1057 C1056 1.327 . S
C1057 C1061 1.429 . S
C1058 C1041 1.574 . S
C1058 H1052 0.949 . S
C1058 C1062 1.368 . S
C1059 C1040 1.429 . S
C1059 C1053 1.429 . S
C1059 C1060 1.523 . S
C1060 C1041 1.368 . S
C1060 C1054 1.368 . S
C1060 C1059 1.523 . S
C1061 C1045 1.429 . S
C1061 C1057 1.429 . S
C1061 C1062 1.523 . S
C1062 C1046 1.368 . S
C1062 C1058 1.368 . S
C1062 C1061 1.523 . S
H1063 C1038 0.950 . S
H1064 C1040 0.950 . S
H1065 C1041 0.949 . S
H1066 C1043 0.950 . S
H1067 C1045 0.950 . S
C1068 C1069 1.349 . S
C1068 C1070 1.327 . S
C1068 H1093 0.950 . S
C1069 C1068 1.349 . S
C1069 C1085 1.349 . S
C1070 C1068 1.327 . S
C1070 C1089 1.429 . S
C1070 H1094 0.950 . S
C1071 C1088 1.574 . S
C1071 C1090 1.368 . S
C1071 H1095 0.949 . S
H1072 C1076 0.949 . S
C1073 C1074 1.349 . S
C1073 C1075 1.327 . S
C1073 H1096 0.950 . S
C1074 C1073 1.349 . S
C1074 C1086 1.349 . S
C1075 C1073 1.327 . S
C1075 C1091 1.429 . S
C1075 H1097 0.950 . S
C1076 H1072 0.949 . S
C1076 C1084 1.574 1_545 S
C1076 C1092 1.368 . S
H1077 C1085 0.950 . S
H1078 C1083 0.950 . S
H1079 C1084 0.949 . S
H1080 C1086 0.950 . S
H1081 C1087 0.950 . S
H1082 C1088 0.949 . S
C1083 H1078 0.950 . S
C1083 C1085 1.327 . S
C1083 C1089 1.429 . S
C1084 C1076 1.574 1_565 S
C1084 H1079 0.949 . S
C1084 C1090 1.368 . S
C1085 C1069 1.349 . S
C1085 H1077 0.950 . S
C1085 C1083 1.327 . S
C1086 C1074 1.349 . S
C1086 H1080 0.950 . S
C1086 C1087 1.327 . S
C1087 H1081 0.950 . S
C1087 C1086 1.327 . S
C1087 C1091 1.429 . S
C1088 C1071 1.574 . S
C1088 H1082 0.949 . S
C1088 C1092 1.368 1_565 S
C1089 C1070 1.429 . S
C1089 C1083 1.429 . S
C1089 C1090 1.523 . S
C1090 C1071 1.368 . S
C1090 C1084 1.368 . S
C1090 C1089 1.523 . S
C1091 C1075 1.429 . S
C1091 C1087 1.429 . S
C1091 C1092 1.523 . S
C1092 C1076 1.368 . S
C1092 C1088 1.368 1_545 S
C1092 C1091 1.523 . S
H1093 C1068 0.950 . S
H1094 C1070 0.950 . S
H1095 C1071 0.949 . S
H1096 C1073 0.950 . S
H1097 C1075 0.950 . S
C1098 C1099 1.349 . S
C1098 C1100 1.327 . S
C1098 H1123 0.950 . S
C1099 C1098 1.349 . S
C1099 C1115 1.349 . S
C1100 C1098 1.327 . S
C1100 C1119 1.429 . S
C1100 H1124 0.950 . S
C1101 C1118 1.574 . S
C1101 C1120 1.368 . S
C1101 H1125 0.949 . S
H1102 C1106 0.949 . S
C1103 C1104 1.349 . S
C1103 C1105 1.327 . S
C1103 H1126 0.950 . S
C1104 C1103 1.349 . S
C1104 C1116 1.349 . S
C1105 C1103 1.327 . S
C1105 C1121 1.429 . S
C1105 H1127 0.950 . S
C1106 H1102 0.949 . S
C1106 C1114 1.574 . S
C1106 C1122 1.368 . S
H1107 C1115 0.950 . S
H1108 C1113 0.950 . S
H1109 C1114 0.949 . S
H1110 C1116 0.950 . S
H1111 C1117 0.950 . S
H1112 C1118 0.949 . S
C1113 H1108 0.950 . S
C1113 C1115 1.327 . S
C1113 C1119 1.429 . S
C1114 C1106 1.574 . S
C1114 H1109 0.949 . S
C1114 C1120 1.368 1_554 S
C1115 C1099 1.349 . S
C1115 H1107 0.950 . S
C1115 C1113 1.327 . S
C1116 C1104 1.349 . S
C1116 H1110 0.950 . S
C1116 C1117 1.327 . S
C1117 H1111 0.950 . S
C1117 C1116 1.327 . S
C1117 C1121 1.429 . S
C1118 C1101 1.574 . S
C1118 H1112 0.949 . S
C1118 C1122 1.368 1_556 S
C1119 C1100 1.429 . S
C1119 C1113 1.429 . S
C1119 C1120 1.523 . S
C1120 C1101 1.368 . S
C1120 C1114 1.368 1_556 S
C1120 C1119 1.523 . S
C1121 C1105 1.429 . S
C1121 C1117 1.429 . S
C1121 C1122 1.523 . S
C1122 C1106 1.368 . S
C1122 C1118 1.368 1_554 S
C1122 C1121 1.523 . S
H1123 C1098 0.950 . S
H1124 C1100 0.950 . S
H1125 C1101 0.949 . S
H1126 C1103 0.950 . S
H1127 C1105 0.950 . S
C1128 C1129 1.349 . S
C1128 C1130 1.327 . S
C1128 H1153 0.950 . S
C1129 C1128 1.349 . S
C1129 C1145 1.349 . S
C1130 C1128 1.327 . S
C1130 C1149 1.429 . S
C1130 H1154 0.950 . S
C1131 C1148 1.574 1_455 S
C1131 C1150 1.368 . S
C1131 H1155 0.949 . S
H1132 C1136 0.949 . S
C1133 C1134 1.349 . S
C1133 C1135 1.327 . S
C1133 H1156 0.950 . S
C1134 C1133 1.349 . S
C1134 C1146 1.349 . S
C1135 C1133 1.327 . S
C1135 C1151 1.429 . S
C1135 H1157 0.950 . S
C1136 H1132 0.949 . S
C1136 C1144 1.574 . S
C1136 C1152 1.368 1_455 S
H1137 C1145 0.950 . S
H1138 C1143 0.950 . S
H1139 C1144 0.949 . S
H1140 C1146 0.950 . S
H1141 C1147 0.950 . S
H1142 C1148 0.949 . S
C1143 H1138 0.950 . S
C1143 C1145 1.327 . S
C1143 C1149 1.429 . S
C1144 C1136 1.574 . S
C1144 H1139 0.949 . S
C1144 C1150 1.368 . S
C1145 C1129 1.349 . S
C1145 H1137 0.950 . S
C1145 C1143 1.327 . S
C1146 C1134 1.349 . S
C1146 H1140 0.950 . S
C1146 C1147 1.327 . S
C1147 H1141 0.950 . S
C1147 C1146 1.327 . S
C1147 C1151 1.429 . S
C1148 C1131 1.574 1_655 S
C1148 H1142 0.949 . S
C1148 C1152 1.368 . S
C1149 C1130 1.429 . S
C1149 C1143 1.429 . S
C1149 C1150 1.523 . S
C1150 C1131 1.368 . S
C1150 C1144 1.368 . S
C1150 C1149 1.523 . S
C1151 C1135 1.429 . S
C1151 C1147 1.429 . S
C1151 C1152 1.523 . S
C1152 C1136 1.368 1_655 S
C1152 C1148 1.368 . S
C1152 C1151 1.523 . S
H1153 C1128 0.950 . S
H1154 C1130 0.950 . S
H1155 C1131 0.949 . S
H1156 C1133 0.950 . S
H1157 C1135 0.950 . S
C1158 C1159 1.349 . S
C1158 C1160 1.327 . S
C1158 H1183 0.950 . S
C1159 C1158 1.349 . S
C1159 C1175 1.349 . S
C1160 C1158 1.327 . S
C1160 C1179 1.429 . S
C1160 H1184 0.950 . S
C1161 C1178 1.574 . S
C1161 C1180 1.368 . S
C1161 H1185 0.949 . S
H1162 C1166 0.949 . S
C1163 C1164 1.349 . S
C1163 C1165 1.327 . S
C1163 H1186 0.950 . S
C1164 C1163 1.349 . S
C1164 C1176 1.349 . S
C1165 C1163 1.327 . S
C1165 C1181 1.429 . S
C1165 H1187 0.950 . S
C1166 H1162 0.949 . S
C1166 C1174 1.574 . S
C1166 C1182 1.368 . S
H1167 C1175 0.950 . S
H1168 C1173 0.950 . S
H1169 C1174 0.949 . S
H1170 C1176 0.950 . S
H1171 C1177 0.950 . S
H1172 C1178 0.949 . S
C1173 H1168 0.950 . S
C1173 C1175 1.327 . S
C1173 C1179 1.429 . S
C1174 C1166 1.574 . S
C1174 H1169 0.949 . S
C1174 C1180 1.368 . S
C1175 C1159 1.349 . S
C1175 H1167 0.950 . S
C1175 C1173 1.327 . S
C1176 C1164 1.349 . S
C1176 H1170 0.950 . S
C1176 C1177 1.327 . S
C1177 H1171 0.950 . S
C1177 C1176 1.327 . S
C1177 C1181 1.429 . S
C1178 C1161 1.574 . S
C1178 H1172 0.949 . S
C1178 C1182 1.368 . S
C1179 C1160 1.429 . S
C1179 C1173 1.429 . S
C1179 C1180 1.523 . S
C1180 C1161 1.368 . S
C1180 C1174 1.368 . S
C1180 C1179 1.523 . S
C1181 C1165 1.429 . S
C1181 C1177 1.429 . S
C1181 C1182 1.523 . S
C1182 C1166 1.368 . S
C1182 C1178 1.368 . S
C1182 C1181 1.523 . S
H1183 C1158 0.950 . S
H1184 C1160 0.950 . S
H1185 C1161 0.949 . S
H1186 C1163 0.950 . S
H1187 C1165 0.950 . S
C1188 C1189 1.349 . S
C1188 C1190 1.327 . S
C1188 H1213 0.950 . S
C1189 C1188 1.349 . S
C1189 C1205 1.349 . S
C1190 C1188 1.327 . S
C1190 C1209 1.429 . S
C1190 H1214 0.950 . S
C1191 C1208 1.574 1_655 S
C1191 C1210 1.368 . S
C1191 H1215 0.949 . S
H1192 C1196 0.949 . S
C1193 C1194 1.349 . S
C1193 C1195 1.327 . S
C1193 H1216 0.950 . S
C1194 C1193 1.349 . S
C1194 C1206 1.349 . S
C1195 C1193 1.327 . S
C1195 C1211 1.429 . S
C1195 H1217 0.950 . S
C1196 H1192 0.949 . S
C1196 C1204 1.574 . S
C1196 C1212 1.368 1_655 S
H1197 C1205 0.950 . S
H1198 C1203 0.950 . S
H1199 C1204 0.949 . S
H1200 C1206 0.950 . S
H1201 C1207 0.950 . S
H1202 C1208 0.949 . S
C1203 H1198 0.950 . S
C1203 C1205 1.327 . S
C1203 C1209 1.429 . S
C1204 C1196 1.574 . S
C1204 H1199 0.949 . S
C1204 C1210 1.368 . S
C1205 C1189 1.349 . S
C1205 H1197 0.950 . S
C1205 C1203 1.327 . S
C1206 C1194 1.349 . S
C1206 H1200 0.950 . S
C1206 C1207 1.327 . S
C1207 H1201 0.950 . S
C1207 C1206 1.327 . S
C1207 C1211 1.429 . S
C1208 C1191 1.574 1_455 S
C1208 H1202 0.949 . S
C1208 C1212 1.368 . S
C1209 C1190 1.429 . S
C1209 C1203 1.429 . S
C1209 C1210 1.523 . S
C1210 C1191 1.368 . S
C1210 C1204 1.368 . S
C1210 C1209 1.523 . S
C1211 C1195 1.429 . S
C1211 C1207 1.429 . S
C1211 C1212 1.523 . S
C1212 C1196 1.368 1_455 S
C1212 C1208 1.368 . S
C1212 C1211 1.523 . S
H1213 C1188 0.950 . S
H1214 C1190 0.950 . S
H1215 C1191 0.949 . S
H1216 C1193 0.950 . S
H1217 C1195 0.950 . S
C1218 C1219 1.349 . S
C1218 C1220 1.327 . S
C1218 H1243 0.950 . S
C1219 C1218 1.349 . S
C1219 C1235 1.349 . S
C1220 C1218 1.327 . S
C1220 C1239 1.429 . S
C1220 H1244 0.950 . S
C1221 C1238 1.574 . S
C1221 C1240 1.368 . S
C1221 H1245 0.949 . S
H1222 C1226 0.949 . S
C1223 C1224 1.349 . S
C1223 C1225 1.327 . S
C1223 H1246 0.950 . S
C1224 C1223 1.349 . S
C1224 C1236 1.349 . S
C1225 C1223 1.327 . S
C1225 C1241 1.429 . S
C1225 H1247 0.950 . S
C1226 H1222 0.949 . S
C1226 C1234 1.574 . S
C1226 C1242 1.368 . S
H1227 C1235 0.950 . S
H1228 C1233 0.950 . S
H1229 C1234 0.949 . S
H1230 C1236 0.950 . S
H1231 C1237 0.950 . S
H1232 C1238 0.949 . S
C1233 H1228 0.950 . S
C1233 C1235 1.327 . S
C1233 C1239 1.429 . S
C1234 C1226 1.574 . S
C1234 H1229 0.949 . S
C1234 C1240 1.368 . S
C1235 C1219 1.349 . S
C1235 H1227 0.950 . S
C1235 C1233 1.327 . S
C1236 C1224 1.349 . S
C1236 H1230 0.950 . S
C1236 C1237 1.327 . S
C1237 H1231 0.950 . S
C1237 C1236 1.327 . S
C1237 C1241 1.429 . S
C1238 C1221 1.574 . S
C1238 H1232 0.949 . S
C1238 C1242 1.368 . S
C1239 C1220 1.429 . S
C1239 C1233 1.429 . S
C1239 C1240 1.523 . S
C1240 C1221 1.368 . S
C1240 C1234 1.368 . S
C1240 C1239 1.523 . S
C1241 C1225 1.429 . S
C1241 C1237 1.429 . S
C1241 C1242 1.523 . S
C1242 C1226 1.368 . S
C1242 C1238 1.368 . S
C1242 C1241 1.523 . S
H1243 C1218 0.950 . S
H1244 C1220 0.950 . S
H1245 C1221 0.949 . S
H1246 C1223 0.950 . S
H1247 C1225 0.950 . S
C1248 C1249 1.349 . S
C1248 C1250 1.327 . S
C1248 H1273 0.950 . S
C1249 C1248 1.349 . S
C1249 C1265 1.349 . S
C1250 C1248 1.327 . S
C1250 C1269 1.429 . S
C1250 H1274 0.950 . S
C1251 C1268 1.574 1_545 S
C1251 C1270 1.368 . S
C1251 H1275 0.949 . S
H1252 C1256 0.949 . S
C1253 C1254 1.349 . S
C1253 C1255 1.327 . S
C1253 H1276 0.950 . S
C1254 C1253 1.349 . S
C1254 C1266 1.349 . S
C1255 C1253 1.327 . S
C1255 C1271 1.429 . S
C1255 H1277 0.950 . S
C1256 H1252 0.949 . S
C1256 C1264 1.598 . S
C1256 C1272 1.368 . S
H1257 C1265 0.950 . S
H1258 C1263 0.950 . S
H1259 C1264 0.943 1_545 S
H1260 C1266 0.950 . S
H1261 C1267 0.950 . S
H1262 C1268 0.949 . S
C1263 H1258 0.950 . S
C1263 C1265 1.327 . S
C1263 C1269 1.429 . S
C1264 C1256 1.598 . S
C1264 H1259 0.943 1_565 S
C1264 C1270 1.353 1_565 S
C1265 C1249 1.349 . S
C1265 H1257 0.950 . S
C1265 C1263 1.327 . S
C1266 C1254 1.349 . S
C1266 H1260 0.950 . S
C1266 C1267 1.327 . S
C1267 H1261 0.950 . S
C1267 C1266 1.327 . S
C1267 C1271 1.429 . S
C1268 C1251 1.574 1_565 S
C1268 H1262 0.949 . S
C1268 C1272 1.368 . S
C1269 C1250 1.429 . S
C1269 C1263 1.429 . S
C1269 C1270 1.523 . S
C1270 C1251 1.368 . S
C1270 C1264 1.353 1_545 S
C1270 C1269 1.523 . S
C1271 C1255 1.429 . S
C1271 C1267 1.429 . S
C1271 C1272 1.523 . S
C1272 C1256 1.368 . S
C1272 C1268 1.368 . S
C1272 C1271 1.523 . S
H1273 C1248 0.950 . S
H1274 C1250 0.950 . S
H1275 C1251 0.949 . S
H1276 C1253 0.950 . S
H1277 C1255 0.950 . S
C1278 C1279 1.349 . S
C1278 C1280 1.327 . S
C1278 H1303 0.950 . S
C1279 C1278 1.349 . S
C1279 C1295 1.349 . S
C1280 C1278 1.327 . S
C1280 C1299 1.429 . S
C1280 H1304 0.950 . S
C1281 C1298 1.574 . S
C1281 C1300 1.368 . S
C1281 H1305 0.949 . S
H1282 C1286 0.949 . S
C1283 C1284 1.349 . S
C1283 C1285 1.327 . S
C1283 H1306 0.950 . S
C1284 C1283 1.349 . S
C1284 C1296 1.349 . S
C1285 C1283 1.327 . S
C1285 C1301 1.429 . S
C1285 H1307 0.950 . S
C1286 H1282 0.949 . S
C1286 C1294 1.574 . S
C1286 C1302 1.368 . S
H1287 C1295 0.950 . S
H1288 C1293 0.950 . S
H1289 C1294 0.949 . S
H1290 C1296 0.950 . S
H1291 C1297 0.950 . S
H1292 C1298 0.949 . S
C1293 H1288 0.950 . S
C1293 C1295 1.327 . S
C1293 C1299 1.429 . S
C1294 C1286 1.574 . S
C1294 H1289 0.949 . S
C1294 C1300 1.368 . S
C1295 C1279 1.349 . S
C1295 H1287 0.950 . S
C1295 C1293 1.327 . S
C1296 C1284 1.349 . S
C1296 H1290 0.950 . S
C1296 C1297 1.327 . S
C1297 H1291 0.950 . S
C1297 C1296 1.327 . S
C1297 C1301 1.429 . S
C1298 C1281 1.574 . S
C1298 H1292 0.949 . S
C1298 C1302 1.368 . S
C1299 C1280 1.429 . S
C1299 C1293 1.429 . S
C1299 C1300 1.523 . S
C1300 C1281 1.368 . S
C1300 C1294 1.368 . S
C1300 C1299 1.523 . S
C1301 C1285 1.429 . S
C1301 C1297 1.429 . S
C1301 C1302 1.523 . S
C1302 C1286 1.368 . S
C1302 C1298 1.368 . S
C1302 C1301 1.523 . S
H1303 C1278 0.950 . S
H1304 C1280 0.950 . S
H1305 C1281 0.949 . S
H1306 C1283 0.950 . S
H1307 C1285 0.950 . S
C1308 C1309 1.349 . S
C1308 C1310 1.327 . S
C1308 H1333 0.950 . S
C1309 C1308 1.349 . S
C1309 C1325 1.349 . S
C1310 C1308 1.327 . S
C1310 C1329 1.429 . S
C1310 H1334 0.950 . S
C1311 C1328 1.574 . S
C1311 C1330 1.368 1_565 S
C1311 H1335 0.949 . S
H1312 C1316 0.949 . S
C1313 C1314 1.349 . S
C1313 C1315 1.327 . S
C1313 H1336 0.950 . S
C1314 C1313 1.349 . S
C1314 C1326 1.349 . S
C1315 C1313 1.327 . S
C1315 C1331 1.429 . S
C1315 H1337 0.950 . S
C1316 H1312 0.949 . S
C1316 C1324 1.574 . S
C1316 C1332 1.368 1_545 S
H1317 C1325 0.950 . S
H1318 C1323 0.950 . S
H1319 C1324 0.949 . S
H1320 C1326 0.950 . S
H1321 C1327 0.950 . S
H1322 C1328 0.949 . S
C1323 H1318 0.950 . S
C1323 C1325 1.327 . S
C1323 C1329 1.429 . S
C1324 C1316 1.574 . S
C1324 H1319 0.949 . S
C1324 C1330 1.368 . S
C1325 C1309 1.349 . S
C1325 H1317 0.950 . S
C1325 C1323 1.327 . S
C1326 C1314 1.349 . S
C1326 H1320 0.950 . S
C1326 C1327 1.327 . S
C1327 H1321 0.950 . S
C1327 C1326 1.327 . S
C1327 C1331 1.429 . S
C1328 C1311 1.574 . S
C1328 H1322 0.949 . S
C1328 C1332 1.368 . S
C1329 C1310 1.429 . S
C1329 C1323 1.429 . S
C1329 C1330 1.523 . S
C1330 C1311 1.368 1_545 S
C1330 C1324 1.368 . S
C1330 C1329 1.523 . S
C1331 C1315 1.429 . S
C1331 C1327 1.429 . S
C1331 C1332 1.523 . S
C1332 C1316 1.368 1_565 S
C1332 C1328 1.368 . S
C1332 C1331 1.523 . S
H1333 C1308 0.950 . S
H1334 C1310 0.950 . S
H1335 C1311 0.949 . S
H1336 C1313 0.950 . S
H1337 C1315 0.950 . S
C1338 C1339 1.349 . S
C1338 C1340 1.327 . S
C1338 H1363 0.950 . S
C1339 C1338 1.349 . S
C1339 C1355 1.349 . S
C1340 C1338 1.327 . S
C1340 C1359 1.429 . S
C1340 H1364 0.950 . S
C1341 C1358 1.574 1_554 S
C1341 C1360 1.368 . S
C1341 H1365 0.949 . S
H1342 C1346 0.949 . S
C1343 C1344 1.349 . S
C1343 C1345 1.327 . S
C1343 H1366 0.950 . S
C1344 C1343 1.349 . S
C1344 C1356 1.349 . S
C1345 C1343 1.327 . S
C1345 C1361 1.429 . S
C1345 H1367 0.950 . S
C1346 H1342 0.949 . S
C1346 C1354 1.574 . S
C1346 C1362 1.368 . S
H1347 C1355 0.950 . S
H1348 C1353 0.950 . S
H1349 C1354 0.949 . S
H1350 C1356 0.950 . S
H1351 C1357 0.950 . S
H1352 C1358 0.949 . S
C1353 H1348 0.950 . S
C1353 C1355 1.327 . S
C1353 C1359 1.429 . S
C1354 C1346 1.574 . S
C1354 H1349 0.949 . S
C1354 C1360 1.368 1_556 S
C1355 C1339 1.349 . S
C1355 H1347 0.950 . S
C1355 C1353 1.327 . S
C1356 C1344 1.349 . S
C1356 H1350 0.950 . S
C1356 C1357 1.327 . S
C1357 H1351 0.950 . S
C1357 C1356 1.327 . S
C1357 C1361 1.429 . S
C1358 C1341 1.574 1_556 S
C1358 H1352 0.949 . S
C1358 C1362 1.368 . S
C1359 C1340 1.429 . S
C1359 C1353 1.429 . S
C1359 C1360 1.523 . S
C1360 C1341 1.368 . S
C1360 C1354 1.368 1_554 S
C1360 C1359 1.523 . S
C1361 C1345 1.429 . S
C1361 C1357 1.429 . S
C1361 C1362 1.523 . S
C1362 C1346 1.368 . S
C1362 C1358 1.368 . S
C1362 C1361 1.523 . S
H1363 C1338 0.950 . S
H1364 C1340 0.950 . S
H1365 C1341 0.949 . S
H1366 C1343 0.950 . S
H1367 C1345 0.950 . S
C1368 C1369 1.349 . S
C1368 C1370 1.327 . S
C1368 H1393 0.950 . S
C1369 C1368 1.349 . S
C1369 C1385 1.349 . S
C1370 C1368 1.327 . S
C1370 C1389 1.429 . S
C1370 H1394 0.950 . S
C1371 C1388 1.574 . S
C1371 C1390 1.368 . S
C1371 H1395 0.949 . S
H1372 C1376 0.949 . S
C1373 C1374 1.349 . S
C1373 C1375 1.327 . S
C1373 H1396 0.950 . S
C1374 C1373 1.349 . S
C1374 C1386 1.349 . S
C1375 C1373 1.327 . S
C1375 C1391 1.429 . S
C1375 H1397 0.950 . S
C1376 H1372 0.949 . S
C1376 C1384 1.574 1_655 S
C1376 C1392 1.368 . S
H1377 C1385 0.950 . S
H1378 C1383 0.950 . S
H1379 C1384 0.949 . S
H1380 C1386 0.950 . S
H1381 C1387 0.950 . S
H1382 C1388 0.949 . S
C1383 H1378 0.950 . S
C1383 C1385 1.327 . S
C1383 C1389 1.429 . S
C1384 C1376 1.574 1_455 S
C1384 H1379 0.949 . S
C1384 C1390 1.368 . S
C1385 C1369 1.349 . S
C1385 H1377 0.950 . S
C1385 C1383 1.327 . S
C1386 C1374 1.349 . S
C1386 H1380 0.950 . S
C1386 C1387 1.327 . S
C1387 H1381 0.950 . S
C1387 C1386 1.327 . S
C1387 C1391 1.429 . S
C1388 C1371 1.574 . S
C1388 H1382 0.949 . S
C1388 C1392 1.368 1_455 S
C1389 C1370 1.429 . S
C1389 C1383 1.429 . S
C1389 C1390 1.523 . S
C1390 C1371 1.368 . S
C1390 C1384 1.368 . S
C1390 C1389 1.523 . S
C1391 C1375 1.429 . S
C1391 C1387 1.429 . S
C1391 C1392 1.523 . S
C1392 C1376 1.368 . S
C1392 C1388 1.368 1_655 S
C1392 C1391 1.523 . S
H1393 C1368 0.950 . S
H1394 C1370 0.950 . S
H1395 C1371 0.949 . S
H1396 C1373 0.950 . S
H1397 C1375 0.950 . S
C1398 C1399 1.349 . S
C1398 C1400 1.327 . S
C1398 H1423 0.950 . S
C1399 C1398 1.349 . S
C1399 C1415 1.349 . S
C1400 C1398 1.327 . S
C1400 C1419 1.429 . S
C1400 H1424 0.950 . S
C1401 C1418 1.574 . S
C1401 C1420 1.368 . S
C1401 H1425 0.949 . S
H1402 C1406 0.949 . S
C1403 C1404 1.349 . S
C1403 C1405 1.327 . S
C1403 H1426 0.950 . S
C1404 C1403 1.349 . S
C1404 C1416 1.349 . S
C1405 C1403 1.327 . S
C1405 C1421 1.429 . S
C1405 H1427 0.950 . S
C1406 H1402 0.949 . S
C1406 C1414 1.574 . S
C1406 C1422 1.368 . S
H1407 C1415 0.950 . S
H1408 C1413 0.950 . S
H1409 C1414 0.949 . S
H1410 C1416 0.950 . S
H1411 C1417 0.950 . S
H1412 C1418 0.949 . S
C1413 H1408 0.950 . S
C1413 C1415 1.327 . S
C1413 C1419 1.429 . S
C1414 C1406 1.574 . S
C1414 H1409 0.949 . S
C1414 C1420 1.368 . S
C1415 C1399 1.349 . S
C1415 H1407 0.950 . S
C1415 C1413 1.327 . S
C1416 C1404 1.349 . S
C1416 H1410 0.950 . S
C1416 C1417 1.327 . S
C1417 H1411 0.950 . S
C1417 C1416 1.327 . S
C1417 C1421 1.429 . S
C1418 C1401 1.574 . S
C1418 H1412 0.949 . S
C1418 C1422 1.368 . S
C1419 C1400 1.429 . S
C1419 C1413 1.429 . S
C1419 C1420 1.523 . S
C1420 C1401 1.368 . S
C1420 C1414 1.368 . S
C1420 C1419 1.523 . S
C1421 C1405 1.429 . S
C1421 C1417 1.429 . S
C1421 C1422 1.523 . S
C1422 C1406 1.368 . S
C1422 C1418 1.368 . S
C1422 C1421 1.523 . S
H1423 C1398 0.950 . S
H1424 C1400 0.950 . S
H1425 C1401 0.949 . S
H1426 C1403 0.950 . S
H1427 C1405 0.950 . S
C1428 C1429 1.349 . S
C1428 C1430 1.327 . S
C1428 H1453 0.950 . S
C1429 C1428 1.349 . S
C1429 C1445 1.349 . S
C1430 C1428 1.327 . S
C1430 C1449 1.429 . S
C1430 H1454 0.950 . S
C1431 C1448 1.574 1_655 S
C1431 C1450 1.368 . S
C1431 H1455 0.949 . S
H1432 C1436 0.949 . S
C1433 C1434 1.349 . S
C1433 C1435 1.327 . S
C1433 H1456 0.950 . S
C1434 C1433 1.349 . S
C1434 C1446 1.349 . S
C1435 C1433 1.327 . S
C1435 C1451 1.429 . S
C1435 H1457 0.950 . S
C1436 H1432 0.949 . S
C1436 C1444 1.574 . S
C1436 C1452 1.368 . S
H1437 C1445 0.950 . S
H1438 C1443 0.950 . S
H1439 C1444 0.949 . S
H1440 C1446 0.950 . S
H1441 C1447 0.950 . S
H1442 C1448 0.949 . S
C1443 H1438 0.950 . S
C1443 C1445 1.327 . S
C1443 C1449 1.429 . S
C1444 C1436 1.574 . S
C1444 H1439 0.949 . S
C1444 C1450 1.368 1_455 S
C1445 C1429 1.349 . S
C1445 H1437 0.950 . S
C1445 C1443 1.327 . S
C1446 C1434 1.349 . S
C1446 H1440 0.950 . S
C1446 C1447 1.327 . S
C1447 H1441 0.950 . S
C1447 C1446 1.327 . S
C1447 C1451 1.429 . S
C1448 C1431 1.574 1_455 S
C1448 H1442 0.949 . S
C1448 C1452 1.368 . S
C1449 C1430 1.429 . S
C1449 C1443 1.429 . S
C1449 C1450 1.523 . S
C1450 C1431 1.368 . S
C1450 C1444 1.368 1_655 S
C1450 C1449 1.523 . S
C1451 C1435 1.429 . S
C1451 C1447 1.429 . S
C1451 C1452 1.523 . S
C1452 C1436 1.368 . S
C1452 C1448 1.368 . S
C1452 C1451 1.523 . S
H1453 C1428 0.950 . S
H1454 C1430 0.950 . S
H1455 C1431 0.949 . S
H1456 C1433 0.950 . S
H1457 C1435 0.950 . S
C1458 C1459 1.349 . S
C1458 C1460 1.327 . S
C1458 H1483 0.950 . S
C1459 C1458 1.349 . S
C1459 C1475 1.349 . S
C1460 C1458 1.327 . S
C1460 C1479 1.429 . S
C1460 H1484 0.950 . S
C1461 C1478 1.574 . S
C1461 C1480 1.368 . S
C1461 H1485 0.949 . S
H1462 C1466 0.949 . S
C1463 C1464 1.349 . S
C1463 C1465 1.327 . S
C1463 H1486 0.950 . S
C1464 C1463 1.349 . S
C1464 C1476 1.349 . S
C1465 C1463 1.327 . S
C1465 C1481 1.429 . S
C1465 H1487 0.950 . S
C1466 H1462 0.949 . S
C1466 C1474 1.574 . S
C1466 C1482 1.368 . S
H1467 C1475 0.950 . S
H1468 C1473 0.950 . S
H1469 C1474 0.949 . S
H1470 C1476 0.950 . S
H1471 C1477 0.950 . S
H1472 C1478 0.949 . S
C1473 H1468 0.950 . S
C1473 C1475 1.327 . S
C1473 C1479 1.429 . S
C1474 C1466 1.574 . S
C1474 H1469 0.949 . S
C1474 C1480 1.368 . S
C1475 C1459 1.349 . S
C1475 H1467 0.950 . S
C1475 C1473 1.327 . S
C1476 C1464 1.349 . S
C1476 H1470 0.950 . S
C1476 C1477 1.327 . S
C1477 H1471 0.950 . S
C1477 C1476 1.327 . S
C1477 C1481 1.429 . S
C1478 C1461 1.574 . S
C1478 H1472 0.949 . S
C1478 C1482 1.368 . S
C1479 C1460 1.429 . S
C1479 C1473 1.429 . S
C1479 C1480 1.523 . S
C1480 C1461 1.368 . S
C1480 C1474 1.368 . S
C1480 C1479 1.523 . S
C1481 C1465 1.429 . S
C1481 C1477 1.429 . S
C1481 C1482 1.523 . S
C1482 C1466 1.368 . S
C1482 C1478 1.368 . S
C1482 C1481 1.523 . S
H1483 C1458 0.950 . S
H1484 C1460 0.950 . S
H1485 C1461 0.949 . S
H1486 C1463 0.950 . S
H1487 C1465 0.950 . S
C1488 C1489 1.349 . S
C1488 C1490 1.327 . S
C1488 H1513 0.950 . S
C1489 C1488 1.349 . S
C1489 C1505 1.349 . S
C1490 C1488 1.327 . S
C1490 C1509 1.429 . S
C1490 H1514 0.950 . S
C1491 C1508 1.574 . S
C1491 C1510 1.368 . S
C1491 H1515 0.949 . S
H1492 C1496 0.949 . S
C1493 C1494 1.349 . S
C1493 C1495 1.327 . S
C1493 H1516 0.950 . S
C1494 C1493 1.349 . S
C1494 C1506 1.349 . S
C1495 C1493 1.327 . S
C1495 C1511 1.429 . S
C1495 H1517 0.950 . S
C1496 H1492 0.949 . S
C1496 C1504 1.574 . S
C1496 C1512 1.368 . S
H1497 C1505 0.950 . S
H1498 C1503 0.950 . S
H1499 C1504 0.949 . S
H1500 C1506 0.950 . S
H1501 C1507 0.950 . S
H1502 C1508 0.949 . S
C1503 H1498 0.950 . S
C1503 C1505 1.327 . S
C1503 C1509 1.429 . S
C1504 C1496 1.574 . S
C1504 H1499 0.949 . S
C1504 C1510 1.368 . S
C1505 C1489 1.349 . S
C1505 H1497 0.950 . S
C1505 C1503 1.327 . S
C1506 C1494 1.349 . S
C1506 H1500 0.950 . S
C1506 C1507 1.327 . S
C1507 H1501 0.950 . S
C1507 C1506 1.327 . S
C1507 C1511 1.429 . S
C1508 C1491 1.574 . S
C1508 H1502 0.949 . S
C1508 C1512 1.368 . S
C1509 C1490 1.429 . S
C1509 C1503 1.429 . S
C1509 C1510 1.523 . S
C1510 C1491 1.368 . S
C1510 C1504 1.368 . S
C1510 C1509 1.523 . S
C1511 C1495 1.429 . S
C1511 C1507 1.429 . S
C1511 C1512 1.523 . S
C1512 C1496 1.368 . S
C1512 C1508 1.368 . S
C1512 C1511 1.523 . S
H1513 C1488 0.950 . S
H1514 C1490 0.950 . S
H1515 C1491 0.949 . S
H1516 C1493 0.950 . S
H1517 C1495 0.950 . S
C1518 C1519 1.349 . S
C1518 C1520 1.327 . S
C1518 H1543 0.950 . S
C1519 C1518 1.349 . S
C1519 C1535 1.349 . S
C1520 C1518 1.327 . S
C1520 C1539 1.429 . S
C1520 H1544 0.950 . S
C1521 C1538 1.574 1_556 S
C1521 C1540 1.368 . S
C1521 H1545 0.949 . S
H1522 C1526 0.949 . S
C1523 C1524 1.349 . S
C1523 C1525 1.327 . S
C1523 H1546 0.950 . S
C1524 C1523 1.349 . S
C1524 C1536 1.349 . S
C1525 C1523 1.327 . S
C1525 C1541 1.429 . S
C1525 H1547 0.950 . S
C1526 H1522 0.949 . S
C1526 C1534 1.574 . S
C1526 C1542 1.368 1_556 S
H1527 C1535 0.950 . S
H1528 C1533 0.950 . S
H1529 C1534 0.949 . S
H1530 C1536 0.950 . S
H1531 C1537 0.950 . S
H1532 C1538 0.949 . S
C1533 H1528 0.950 . S
C1533 C1535 1.327 . S
C1533 C1539 1.429 . S
C1534 C1526 1.574 . S
C1534 H1529 0.949 . S
C1534 C1540 1.368 . S
C1535 C1519 1.349 . S
C1535 H1527 0.950 . S
C1535 C1533 1.327 . S
C1536 C1524 1.349 . S
C1536 H1530 0.950 . S
C1536 C1537 1.327 . S
C1537 H1531 0.950 . S
C1537 C1536 1.327 . S
C1537 C1541 1.429 . S
C1538 C1521 1.574 1_554 S
C1538 H1532 0.949 . S
C1538 C1542 1.368 . S
C1539 C1520 1.429 . S
C1539 C1533 1.429 . S
C1539 C1540 1.523 . S
C1540 C1521 1.368 . S
C1540 C1534 1.368 . S
C1540 C1539 1.523 . S
C1541 C1525 1.429 . S
C1541 C1537 1.429 . S
C1541 C1542 1.523 . S
C1542 C1526 1.368 1_554 S
C1542 C1538 1.368 . S
C1542 C1541 1.523 . S
H1543 C1518 0.950 . S
H1544 C1520 0.950 . S
H1545 C1521 0.949 . S
H1546 C1523 0.950 . S
H1547 C1525 0.950 . S
C1548 C1549 1.349 . S
C1548 C1550 1.327 . S
C1548 H1573 0.950 . S
C1549 C1548 1.349 . S
C1549 C1565 1.349 . S
C1550 C1548 1.327 . S
C1550 C1569 1.429 . S
C1550 H1574 0.950 . S
C1551 C1568 1.574 . S
C1551 C1570 1.368 . S
C1551 H1575 0.949 . S
H1552 C1556 0.949 . S
C1553 C1554 1.349 . S
C1553 C1555 1.327 . S
C1553 H1576 0.950 . S
C1554 C1553 1.349 . S
C1554 C1566 1.349 . S
C1555 C1553 1.327 . S
C1555 C1571 1.429 . S
C1555 H1577 0.950 . S
C1556 H1552 0.949 . S
C1556 C1564 1.574 . S
C1556 C1572 1.368 . S
H1557 C1565 0.950 . S
H1558 C1563 0.950 . S
H1559 C1564 0.949 . S
H1560 C1566 0.950 . S
H1561 C1567 0.950 . S
H1562 C1568 0.949 . S
C1563 H1558 0.950 . S
C1563 C1565 1.327 . S
C1563 C1569 1.429 . S
C1564 C1556 1.574 . S
C1564 H1559 0.949 . S
C1564 C1570 1.368 . S
C1565 C1549 1.349 . S
C1565 H1557 0.950 . S
C1565 C1563 1.327 . S
C1566 C1554 1.349 . S
C1566 H1560 0.950 . S
C1566 C1567 1.327 . S
C1567 H1561 0.950 . S
C1567 C1566 1.327 . S
C1567 C1571 1.429 . S
C1568 C1551 1.574 . S
C1568 H1562 0.949 . S
C1568 C1572 1.368 . S
C1569 C1550 1.429 . S
C1569 C1563 1.429 . S
C1569 C1570 1.523 . S
C1570 C1551 1.368 . S
C1570 C1564 1.368 . S
C1570 C1569 1.523 . S
C1571 C1555 1.429 . S
C1571 C1567 1.429 . S
C1571 C1572 1.523 . S
C1572 C1556 1.368 . S
C1572 C1568 1.368 . S
C1572 C1571 1.523 . S
H1573 C1548 0.950 . S
H1574 C1550 0.950 . S
H1575 C1551 0.949 . S
H1576 C1553 0.950 . S
H1577 C1555 0.950 . S
C1578 C1579 1.349 . S
C1578 C1580 1.327 . S
C1578 H1603 0.950 . S
C1579 C1578 1.349 . S
C1579 C1595 1.349 . S
C1580 C1578 1.327 . S
C1580 C1599 1.429 . S
C1580 H1604 0.950 . S
C1581 C1598 1.574 . S
C1581 C1600 1.368 . S
C1581 H1605 0.949 . S
H1582 C1586 0.949 . S
C1583 C1584 1.349 . S
C1583 C1585 1.327 . S
C1583 H1606 0.950 . S
C1584 C1583 1.349 . S
C1584 C1596 1.349 . S
C1585 C1583 1.327 . S
C1585 C1601 1.429 . S
C1585 H1607 0.950 . S
C1586 H1582 0.949 . S
C1586 C1594 1.574 . S
C1586 C1602 1.368 . S
H1587 C1595 0.950 . S
H1588 C1593 0.950 . S
H1589 C1594 0.949 . S
H1590 C1596 0.950 . S
H1591 C1597 0.950 . S
H1592 C1598 0.949 . S
C1593 H1588 0.950 . S
C1593 C1595 1.327 . S
C1593 C1599 1.429 . S
C1594 C1586 1.574 . S
C1594 H1589 0.949 . S
C1594 C1600 1.368 . S
C1595 C1579 1.349 . S
C1595 H1587 0.950 . S
C1595 C1593 1.327 . S
C1596 C1584 1.349 . S
C1596 H1590 0.950 . S
C1596 C1597 1.327 . S
C1597 H1591 0.950 . S
C1597 C1596 1.327 . S
C1597 C1601 1.429 . S
C1598 C1581 1.574 . S
C1598 H1592 0.949 . S
C1598 C1602 1.368 . S
C1599 C1580 1.429 . S
C1599 C1593 1.429 . S
C1599 C1600 1.523 . S
C1600 C1581 1.368 . S
C1600 C1594 1.368 . S
C1600 C1599 1.523 . S
C1601 C1585 1.429 . S
C1601 C1597 1.429 . S
C1601 C1602 1.523 . S
C1602 C1586 1.368 . S
C1602 C1598 1.368 . S
C1602 C1601 1.523 . S
H1603 C1578 0.950 . S
H1604 C1580 0.950 . S
H1605 C1581 0.949 . S
H1606 C1583 0.950 . S
H1607 C1585 0.950 . S
C1608 C1609 1.349 . S
C1608 C1610 1.327 . S
C1608 H1633 0.950 . S
C1609 C1608 1.349 . S
C1609 C1625 1.349 . S
C1610 C1608 1.327 . S
C1610 C1629 1.429 . S
C1610 H1634 0.950 . S
C1611 C1628 1.574 . S
C1611 C1630 1.368 . S
C1611 H1635 0.949 . S
H1612 C1616 0.949 . S
C1613 C1614 1.349 . S
C1613 C1615 1.327 . S
C1613 H1636 0.950 . S
C1614 C1613 1.349 . S
C1614 C1626 1.349 . S
C1615 C1613 1.327 . S
C1615 C1631 1.429 . S
C1615 H1637 0.950 . S
C1616 H1612 0.949 . S
C1616 C1624 1.574 . S
C1616 C1632 1.368 . S
H1617 C1625 0.950 . S
H1618 C1623 0.950 . S
H1619 C1624 0.949 . S
H1620 C1626 0.950 . S
H1621 C1627 0.950 . S
H1622 C1628 0.949 . S
C1623 H1618 0.950 . S
C1623 C1625 1.327 . S
C1623 C1629 1.429 . S
C1624 C1616 1.574 . S
C1624 H1619 0.949 . S
C1624 C1630 1.368 . S
C1625 C1609 1.349 . S
C1625 H1617 0.950 . S
C1625 C1623 1.327 . S
C1626 C1614 1.349 . S
C1626 H1620 0.950 . S
C1626 C1627 1.327 . S
C1627 H1621 0.950 . S
C1627 C1626 1.327 . S
C1627 C1631 1.429 . S
C1628 C1611 1.574 . S
C1628 H1622 0.949 . S
C1628 C1632 1.368 . S
C1629 C1610 1.429 . S
C1629 C1623 1.429 . S
C1629 C1630 1.523 . S
C1630 C1611 1.368 . S
C1630 C1624 1.368 . S
C1630 C1629 1.523 . S
C1631 C1615 1.429 . S
C1631 C1627 1.429 . S
C1631 C1632 1.523 . S
C1632 C1616 1.368 . S
C1632 C1628 1.368 . S
C1632 C1631 1.523 . S
H1633 C1608 0.950 . S
H1634 C1610 0.950 . S
H1635 C1611 0.949 . S
H1636 C1613 0.950 . S
H1637 C1615 0.950 . S
C1638 C1639 1.349 . S
C1638 C1640 1.327 . S
C1638 H1663 0.950 . S
C1639 C1638 1.349 . S
C1639 C1655 1.349 . S
C1640 C1638 1.327 . S
C1640 C1659 1.429 . S
C1640 H1664 0.950 . S
C1641 C1658 1.574 1_556 S
C1641 C1660 1.368 . S
C1641 H1665 0.949 . S
H1642 C1646 0.949 . S
C1643 C1644 1.349 . S
C1643 C1645 1.327 . S
C1643 H1666 0.950 . S
C1644 C1643 1.349 . S
C1644 C1656 1.349 . S
C1645 C1643 1.327 . S
C1645 C1661 1.429 . S
C1645 H1667 0.950 . S
C1646 H1642 0.949 . S
C1646 C1654 1.574 . S
C1646 C1662 1.368 . S
H1647 C1655 0.950 . S
H1648 C1653 0.950 . S
H1649 C1654 0.949 . S
H1650 C1656 0.950 . S
H1651 C1657 0.950 . S
H1652 C1658 0.949 . S
C1653 H1648 0.950 . S
C1653 C1655 1.327 . S
C1653 C1659 1.429 . S
C1654 C1646 1.574 . S
C1654 H1649 0.949 . S
C1654 C1660 1.368 1_554 S
C1655 C1639 1.349 . S
C1655 H1647 0.950 . S
C1655 C1653 1.327 . S
C1656 C1644 1.349 . S
C1656 H1650 0.950 . S
C1656 C1657 1.327 . S
C1657 H1651 0.950 . S
C1657 C1656 1.327 . S
C1657 C1661 1.429 . S
C1658 C1641 1.574 1_554 S
C1658 H1652 0.949 . S
C1658 C1662 1.368 . S
C1659 C1640 1.429 . S
C1659 C1653 1.429 . S
C1659 C1660 1.523 . S
C1660 C1641 1.368 . S
C1660 C1654 1.368 1_556 S
C1660 C1659 1.523 . S
C1661 C1645 1.429 . S
C1661 C1657 1.429 . S
C1661 C1662 1.523 . S
C1662 C1646 1.368 . S
C1662 C1658 1.368 . S
C1662 C1661 1.523 . S
H1663 C1638 0.950 . S
H1664 C1640 0.950 . S
H1665 C1641 0.949 . S
H1666 C1643 0.950 . S
H1667 C1645 0.950 . S
C1668 C1669 1.349 . S
C1668 C1670 1.327 . S
C1668 H1693 0.950 . S
C1669 C1668 1.349 . S
C1669 C1685 1.349 . S
C1670 C1668 1.327 . S
C1670 C1689 1.429 . S
C1670 H1694 0.950 . S
C1671 C1688 1.574 . S
C1671 C1690 1.368 . S
C1671 H1695 0.949 . S
H1672 C1676 0.949 . S
C1673 C1674 1.349 . S
C1673 C1675 1.327 . S
C1673 H1696 0.950 . S
C1674 C1673 1.349 . S
C1674 C1686 1.349 . S
C1675 C1673 1.327 . S
C1675 C1691 1.429 . S
C1675 H1697 0.950 . S
C1676 H1672 0.949 . S
C1676 C1684 1.574 . S
C1676 C1692 1.368 . S
H1677 C1685 0.950 . S
H1678 C1683 0.950 . S
H1679 C1684 0.949 . S
H1680 C1686 0.950 . S
H1681 C1687 0.950 . S
H1682 C1688 0.949 . S
C1683 H1678 0.950 . S
C1683 C1685 1.327 . S
C1683 C1689 1.429 . S
C1684 C1676 1.574 . S
C1684 H1679 0.949 . S
C1684 C1690 1.368 . S
C1685 C1669 1.349 . S
C1685 H1677 0.950 . S
C1685 C1683 1.327 . S
C1686 C1674 1.349 . S
C1686 H1680 0.950 . S
C1686 C1687 1.327 . S
C1687 H1681 0.950 . S
C1687 C1686 1.327 . S
C1687 C1691 1.429 . S
C1688 C1671 1.574 . S
C1688 H1682 0.949 . S
C1688 C1692 1.368 . S
C1689 C1670 1.429 . S
C1689 C1683 1.429 . S
C1689 C1690 1.523 . S
C1690 C1671 1.368 . S
C1690 C1684 1.368 . S
C1690 C1689 1.523 . S
C1691 C1675 1.429 . S
C1691 C1687 1.429 . S
C1691 C1692 1.523 . S
C1692 C1676 1.368 . S
C1692 C1688 1.368 . S
C1692 C1691 1.523 . S
H1693 C1668 0.950 . S
H1694 C1670 0.950 . S
H1695 C1671 0.949 . S
H1696 C1673 0.950 . S
H1697 C1675 0.950 . S
C1698 C1699 1.349 . S
C1698 C1700 1.327 . S
C1698 H1723 0.950 . S
C1699 C1698 1.349 . S
C1699 C1715 1.349 . S
C1700 C1698 1.327 . S
C1700 C1719 1.429 . S
C1700 H1724 0.950 . S
C1701 C1718 1.574 . S
C1701 C1720 1.368 . S
C1701 H1725 0.949 . S
H1702 C1706 0.949 . S
C1703 C1704 1.349 . S
C1703 C1705 1.327 . S
C1703 H1726 0.950 . S
C1704 C1703 1.349 . S
C1704 C1716 1.349 . S
C1705 C1703 1.327 . S
C1705 C1721 1.429 . S
C1705 H1727 0.950 . S
C1706 H1702 0.949 . S
C1706 C1714 1.574 . S
C1706 C1722 1.368 . S
H1707 C1715 0.950 . S
H1708 C1713 0.950 . S
H1709 C1714 0.949 . S
H1710 C1716 0.950 . S
H1711 C1717 0.950 . S
H1712 C1718 0.949 . S
C1713 H1708 0.950 . S
C1713 C1715 1.327 . S
C1713 C1719 1.429 . S
C1714 C1706 1.574 . S
C1714 H1709 0.949 . S
C1714 C1720 1.368 . S
C1715 C1699 1.349 . S
C1715 H1707 0.950 . S
C1715 C1713 1.327 . S
C1716 C1704 1.349 . S
C1716 H1710 0.950 . S
C1716 C1717 1.327 . S
C1717 H1711 0.950 . S
C1717 C1716 1.327 . S
C1717 C1721 1.429 . S
C1718 C1701 1.574 . S
C1718 H1712 0.949 . S
C1718 C1722 1.368 . S
C1719 C1700 1.429 . S
C1719 C1713 1.429 . S
C1719 C1720 1.523 . S
C1720 C1701 1.368 . S
C1720 C1714 1.368 . S
C1720 C1719 1.523 . S
C1721 C1705 1.429 . S
C1721 C1717 1.429 . S
C1721 C1722 1.523 . S
C1722 C1706 1.368 . S
C1722 C1718 1.368 . S
C1722 C1721 1.523 . S
H1723 C1698 0.950 . S
H1724 C1700 0.950 . S
H1725 C1701 0.949 . S
H1726 C1703 0.950 . S
H1727 C1705 0.950 . S
C529 N13 1.674 . S
C534 N497 1.679 . S
C559 N277 2.311 . S
C564 N46 2.312 . S
C589 N409 1.935 . S
C594 N68 1.946 . S
C619 N101 2.170 . S
C624 N343 2.140 . S
C649 N365 2.353 . S
C654 N35 2.360 . S
C679 N79 1.975 . S
C684 N299 1.979 . S
C709 N112 2.104 . S
C714 N431 2.120 . S
C739 N2 1.679 . S
C744 N244 1.664 . S
C769 N266 2.353 . S
C774 N134 2.360 . S
C799 N398 1.979 . S
C804 N178 1.975 . S
C829 N211 2.104 . S
C834 N332 2.120 . S
C859 N200 2.170 . S
C864 N442 2.140 . S
C889 N145 2.312 . S
C894 N376 2.311 . S
C919 N475 1.674 . S
C924 N233 1.679 . S
C949 N310 1.935 . S
C954 N167 1.946 . S
C979 N508 1.664 . S
C984 N464 1.679 . S
C1009 C21 0.775 . S
C1014 C51 0.775 . S
C1039 C40 0.791 . S
C1044 C87 0.791 . S
C1069 C73 1.005 . S
C1074 C106 1.005 . S
C1099 C117 0.999 . S
C1104 C7 0.996 . S
C1129 C18 0.370 . S
C1134 C183 0.370 . S
C1159 C153 0.398 . S
C1164 C120 0.398 . S
C1189 C219 0.398 . S
C1194 C54 0.398 . S
C1219 C480 0.370 . S
C1224 C84 0.370 . S
C1249 C285 0.285 . S
C1254 C238 0.287 . S
C1279 C271 0.819 . S
C1284 C304 0.820 . S
C1309 C315 1.134 . S
C1314 C348 1.134 . S
C1339 C351 0.529 . S
C1344 C249 0.530 . S
C1369 C417 0.567 . S
C1374 C252 0.567 . S
C1399 C381 0.864 . S
C1404 C337 0.864 . S
C1429 C282 0.864 . S
C1434 C436 0.864 . S
C1459 C516 0.567 . S
C1464 C318 0.567 . S
C1489 C150 0.775 . S
C1494 C483 0.775 . S
C1519 C139 0.791 . S
C1524 C186 0.791 . S
C1549 C172 1.005 . S
C1554 C205 1.005 . S
C1579 C469 0.996 . S
C1584 C216 0.999 . S
C1609 C384 0.285 . S
C1614 C502 0.287 . S
C1639 C403 0.820 . S
C1644 C370 0.819 . S
C1669 C414 1.134 . S
C1674 C447 1.134 . S
C1699 C513 0.530 . S
C1704 C450 0.529 . S
