# Generated by pormake.
# Topology kag, (6)-cn, num edge types: 1
# Building blocks:
#     Node 0, Type 0, BuildingBlock: PAMTOO_clean_sbu_0, # of connection points: 6
#     Node 1, Type 0, BuildingBlock: PAMTOO_clean_sbu_0, # of connection points: 6
#     Node 2, Type 0, BuildingBlock: PAMTOO_clean_sbu_0, # of connection points: 6
#     Edge 3, Type (0, 0), BuildingBlock: TEMPAE_clean_linker_10, # of connection points: 2
#     Edge 4, Type (0, 0), BuildingBlock: TEMPAE_clean_linker_10, # of connection points: 2
#     Edge 5, Type (0, 0), BuildingBlock: TEMPAE_clean_linker_10, # of connection points: 2
#     Edge 6, Type (0, 0), BuildingBlock: TEMPAE_clean_linker_10, # of connection points: 2
#     Edge 7, Type (0, 0), BuildingBlock: TEMPAE_clean_linker_10, # of connection points: 2
#     Edge 8, Type (0, 0), BuildingBlock: TEMPAE_clean_linker_10, # of connection points: 2
#     Edge 9, Type (0, 0), BuildingBlock: TEMPAE_clean_linker_10, # of connection points: 2
#     Edge 10, Type (0, 0), BuildingBlock: TEMPAE_clean_linker_10, # of connection points: 2
#     Edge 11, Type (0, 0), BuildingBlock: TEMPAE_clean_linker_10, # of connection points: 2
# Relax obj value: 0.092
# Max RMSD: 0.159
# Mean RMSD: 0.117
data_MOF--net-kag--node1-PAMTOO_clean_sbu_0--edge1-TEMPAE_clean_linker_10
_symmetry_space_group_name_H-M    P1
_symmetry_Int_Tables_number       1
_symmetry_cell_setting            triclinic
loop_
_symmetry_equiv_pos_as_xyz
'x, y, z'
_cell_length_a     31.839605
_cell_length_b     42.617546
_cell_length_c     15.462821
_cell_angle_alpha  99.507858
_cell_angle_beta   91.988537
_cell_angle_gamma 95.874168
loop_
_atom_site_label
_atom_site_type_symbol
_atom_site_fract_x
_atom_site_fract_y
_atom_site_fract_z
_atom_type_partial_charge
Dy0 Dy 0.04863 0.53829 0.96608 0.0
Dy1 Dy 1.03883 0.45952 0.93718 0.0
C2 C 1.03959 0.49712 0.77839 0.0
O3 O 0.9785 0.52606 0.97838 0.0
O4 O 0.97115 0.47136 0.93011 0.0
O5 O 0.06032 0.58091 0.90921 0.0
O6 O 0.0498 0.58507 0.04817 0.0
O7 O 1.02182 0.47612 0.07396 0.0
O8 O 0.0635 0.52392 0.09592 0.0
O9 O 0.10847 0.47473 0.97359 0.0
O10 O 0.11376 0.52449 0.93366 0.0
O11 O 0.04963 0.4149 0.97878 0.0
O12 O 1.01832 0.4147 0.85171 0.0
C13 C 0.95464 0.49846 0.95493 0.0
O14 O 1.02261 0.51934 0.82986 0.0
O15 O 0.05768 0.47526 0.81177 0.0
C16 C 0.09424 0.62721 0.0019 0.0
C17 C 0.15297 0.68288 0.02218 0.0
C18 C 0.15945 0.65529 0.96237 0.0
C19 C 0.13049 0.62775 0.95249 0.0
C20 C 0.08851 0.65421 0.06389 0.0
C21 C 0.1176 0.68168 0.07426 0.0
C22 C 0.06024 0.60021 0.98395 0.0
C23 C 1.04227 0.50047 0.12689 0.0
C24 C 0.13165 0.49992 0.95422 0.0
C25 C 0.99877 0.37075 0.92249 0.0
C26 C 0.94004 0.31847 0.94383 0.0
C27 C 0.94279 0.34751 0.00348 0.0
C28 C 0.97178 0.37349 -0.0073 0.0
C29 C 0.99606 0.3419 0.86302 0.0
C30 C 0.96704 0.31605 0.87345 0.0
C31 C 1.02973 0.39749 0.90903 0.0
H32 H 0.18602 0.65533 0.92054 0.0
H33 H 0.13584 0.60729 0.90409 0.0
H34 H 0.06084 0.65439 0.10276 0.0
H35 H 0.11198 0.70218 0.12223 0.0
H36 H 0.92219 0.35027 0.05787 0.0
H37 H 0.9731 0.39566 0.03902 0.0
H38 H 1.01658 0.33932 0.8084 0.0
H39 H 0.96621 0.29396 0.82702 0.0
Dy40 Dy 0.49293 0.99679 0.01449 0.0
Dy41 Dy 0.59684 0.01191 0.02966 0.0
C42 C 0.545 0.00549 0.19661 0.0
O43 O 0.50534 0.04781 -0.006 0.0
O44 O 0.57049 0.05882 0.0671 0.0
O45 O 0.43305 0.99466 0.07618 0.0
O46 O 0.43484 0.97971 0.93619 0.0
O47 O 0.5744 0.02062 0.89861 0.0
O48 O 0.51679 0.98349 0.88062 0.0
O49 O 0.58496 0.95808 -0.00696 0.0
O50 O 0.51685 0.95133 0.03764 0.0
O51 O 0.65762 0.01328 0.97022 0.0
O52 O 0.65342 0.03162 0.10865 0.0
C53 C 0.5372 0.06843 0.03067 0.0
O54 O 0.51314 0.01499 0.15545 0.0
O55 O 0.5777 0.99625 0.15417 0.0
C56 C 0.38637 0.94966 0.01044 0.0
C57 C 0.33809 0.89059 0.01595 0.0
C58 C 0.37721 0.89883 0.0636 0.0
C59 C 0.4012 0.928 0.06055 0.0
C60 C 0.34737 0.94159 0.96299 0.0
C61 C 0.32346 0.91232 0.96559 0.0
C62 C 0.41208 0.98001 0.00457 0.0
C63 C 0.54545 0.00169 0.84746 0.0
C64 C 0.55201 0.93961 0.01289 0.0
C65 C 0.70257 0.06042 0.03063 0.0
C66 C 0.75169 0.1178 0.0094 0.0
C67 C 0.75805 0.08826 0.95813 0.0
C68 C 0.73388 0.05993 0.96892 0.0
C69 C 0.69578 0.08992 0.08121 0.0
C70 C 0.72013 0.11818 0.07099 0.0
C71 C 0.67704 0.03027 0.0411 0.0
H72 H 0.38961 0.88249 0.10214 0.0
H73 H 0.43148 0.93354 0.09695 0.0
H74 H 0.33549 0.95787 0.92357 0.0
H75 H 0.29328 0.90683 0.92881 0.0
H76 H 0.78146 0.08702 0.90891 0.0
H77 H 0.73956 0.03759 0.92868 0.0
H78 H 0.67174 0.09127 0.12917 0.0
H79 H 0.71458 0.14027 0.11254 0.0
Dy80 Dy 0.53584 0.45851 0.93822 0.0
Dy81 Dy 0.55218 0.53866 0.97386 0.0
C82 C 0.54312 0.49987 0.13121 0.0
O83 O 0.47018 0.47398 0.94983 0.0
O84 O 0.48067 0.52906 0.959 0.0
O85 O 0.50677 0.41538 0.97706 0.0
O86 O 0.54486 0.41205 0.86266 0.0
O87 O 0.56644 0.51879 0.83635 0.0
O88 O 0.51838 0.47461 0.81323 0.0
O89 O 0.61583 0.52181 0.00014 0.0
O90 O 0.60583 0.47064 0.92095 0.0
O91 O 0.54999 0.5814 0.91744 0.0
O92 O 0.57814 0.58493 0.0495 0.0
C93 C 0.45544 0.50204 0.954 0.0
O94 O 0.55575 0.47526 0.07972 0.0
O95 O 0.53168 0.52476 0.10002 0.0
C96 C 0.53419 0.36527 0.93148 0.0
C97 C 0.54358 0.30228 0.96191 0.0
C98 C 0.54618 0.32823 0.03227 0.0
C99 C 0.54144 0.35935 0.01728 0.0
C100 C 0.53311 0.33969 0.86118 0.0
C101 C 0.53772 0.30865 0.87604 0.0
C102 C 0.52206 0.39642 0.91365 0.0
C103 C 0.54164 0.49707 0.78292 0.0
C104 C 0.63112 0.49575 0.96114 0.0
C105 C 0.55988 0.63414 0.00442 0.0
C106 C 0.55491 0.70094 0.01489 0.0
C107 C 0.5255 0.67831 0.96152 0.0
C108 C 0.52798 0.64535 0.95619 0.0
C109 C 0.58806 0.65664 0.06065 0.0
C110 C 0.58558 0.68957 0.06605 0.0
C111 C 0.56902 0.60021 -0.01418 0.0
H112 H 0.55133 0.32446 0.0992 0.0
H113 H 0.54226 0.37856 0.07296 0.0
H114 H 0.52696 0.34348 0.79451 0.0
H115 H 0.53489 0.28943 0.82013 0.0
H116 H 0.50096 0.68607 0.92235 0.0
H117 H 0.5059 0.62873 0.9117 0.0
H118 H 0.61343 0.64879 0.09743 0.0
H119 H 0.60904 0.70612 0.10726 0.0
C120 C 0.06521 0.47846 0.62925 0.0
C121 C 1.03977 0.49762 0.68284 0.0
C122 C 0.06648 0.4794 0.53901 0.0
C123 C 1.04135 0.49971 0.5013 0.0
C124 C 1.01544 0.51897 0.55495 0.0
C125 C 1.01513 0.51782 0.64512 0.0
C126 C 0.09476 0.45869 0.48403 0.0
C127 C 0.98783 0.54066 0.51698 0.0
C128 C 0.06973 0.52269 0.28127 0.0
C129 C 1.04179 0.50089 0.22288 0.0
C130 C 0.07006 0.52253 0.37212 0.0
C131 C 1.04146 0.5003 0.40532 0.0
C132 C 1.01289 0.4785 0.34678 0.0
C133 C 1.01354 0.47896 0.25635 0.0
C134 C 0.10122 0.54597 0.43254 0.0
C135 C 0.9816 0.45466 0.37965 0.0
H136 H 0.08455 0.46295 0.65796 0.0
H137 H 0.9953 0.53265 0.686 0.0
H138 H 0.07549 0.44171 0.43196 0.0
H139 H 0.11725 0.47379 0.45082 0.0
H140 H 0.11307 0.44478 0.52372 0.0
H141 H 0.96957 0.55416 0.56764 0.0
H142 H 1.00754 0.55802 0.48515 0.0
H143 H 0.96529 0.52632 0.46554 0.0
H144 H 0.09176 0.53962 0.25595 0.0
H145 H 0.99165 0.46213 0.21185 0.0
H146 H 0.12189 0.53282 0.46961 0.0
H147 H 0.08412 0.56127 0.48137 0.0
H148 H 0.12145 0.56164 0.39635 0.0
H149 H 0.99866 0.43869 0.41478 0.0
H150 H 0.96107 0.43966 0.32561 0.0
H151 H 0.96122 0.46739 0.42726 0.0
C152 C 0.57346 0.9888 0.33262 0.0
C153 C 0.54394 0.00469 0.29187 0.0
C154 C 0.57288 0.98757 0.42265 0.0
C155 C 0.54233 0.00288 0.47342 0.0
C156 C 0.51238 0.01892 0.43277 0.0
C157 C 0.51339 0.01948 0.3423 0.0
C158 C 0.60509 0.96997 0.46348 0.0
C159 C 0.47959 0.03578 0.48504 0.0
C160 C 0.51915 0.97804 0.69352 0.0
C161 C 0.54443 0.00182 0.75175 0.0
C162 C 0.51807 0.97809 0.60266 0.0
C163 C 0.54245 0.00272 0.56952 0.0
C164 C 0.56766 0.02696 0.62808 0.0
C165 C 0.56854 0.02611 0.71839 0.0
C166 C 0.49116 0.95165 0.54204 0.0
C167 C 0.59377 0.05381 0.59534 0.0
H168 H 0.59697 0.97707 0.29404 0.0
H169 H 0.49051 0.03182 0.31132 0.0
H170 H 0.62515 0.98681 0.51454 0.0
H171 H 0.58884 0.95123 0.49634 0.0
H172 H 0.62589 0.95848 0.41435 0.0
H173 H 0.45829 0.04689 0.44342 0.0
H174 H 0.46013 0.01862 0.51799 0.0
H175 H 0.49541 0.05474 0.53725 0.0
H176 H 0.5005 0.95917 0.71882 0.0
H177 H 0.58791 0.04474 0.76298 0.0
H178 H 0.51132 0.93847 0.49482 0.0
H179 H 0.4678 0.96194 0.50314 0.0
H180 H 0.47391 0.93434 0.57827 0.0
H181 H 0.61732 0.04388 0.55027 0.0
H182 H 0.6108 0.07128 0.64972 0.0
H183 H 0.57315 0.06672 0.55743 0.0
C184 C 0.57237 0.51684 0.65266 0.0
C185 C 0.54131 0.49735 0.68725 0.0
C186 C 0.57265 0.51741 0.56223 0.0
C187 C 0.54081 0.49832 0.50502 0.0
C188 C 0.50917 0.47878 0.53952 0.0
C189 C 0.50994 0.47838 0.63021 0.0
C190 C 0.6072 0.53829 0.52783 0.0
C191 C 0.47447 0.45834 0.48062 0.0
C192 C 0.52113 0.52167 0.2814 0.0
C193 C 0.54248 0.49959 0.22685 0.0
C194 C 0.5199 0.5213 0.37193 0.0
C195 C 0.54097 0.49857 0.40892 0.0
C196 C 0.56272 0.47632 0.35429 0.0
C197 C 0.563 0.47697 0.26388 0.0
C198 C 0.496 0.5452 0.428 0.0
C199 C 0.58599 0.45196 0.39145 0.0
H200 H 0.59683 0.53149 0.6962 0.0
H201 H 0.48569 0.46341 0.65649 0.0
H202 H 0.62506 0.52337 0.47954 0.0
H203 H 0.59318 0.55581 0.49307 0.0
H204 H 0.62976 0.55158 0.58099 0.0
H205 H 0.45175 0.44496 0.51795 0.0
H206 H 0.45685 0.47357 0.44395 0.0
H207 H 0.48835 0.4409 0.4314 0.0
H208 H 0.50495 0.53908 0.25325 0.0
H209 H 0.57972 0.45988 0.22234 0.0
H210 H 0.51785 0.56051 0.47898 0.0
H211 H 0.47142 0.53246 0.46259 0.0
H212 H 0.48052 0.56084 0.38885 0.0
H213 H 0.61056 0.46432 0.44168 0.0
H214 H 0.60142 0.43635 0.34009 0.0
H215 H 0.56377 0.43664 0.42457 0.0
C216 C 0.20138 0.48477 0.01136 0.0
C217 C 0.1792 0.50066 0.9546 0.0
C218 C 0.24612 0.48592 0.01342 0.0
C219 C 0.26982 0.50237 0.95505 0.0
C220 C 0.24742 0.51802 0.89663 0.0
C221 C 0.20284 0.51748 0.89826 0.0
C222 C 0.2681 0.46973 0.07903 0.0
C223 C 0.2705 0.53494 0.83097 0.0
C224 C 0.38969 0.5284 0.00095 0.0
C225 C 0.4081 0.50282 0.95283 0.0
C226 C 0.34514 0.52837 0.00341 0.0
C227 C 0.31771 0.50271 0.95401 0.0
C228 C 0.33628 0.47724 0.90357 0.0
C229 C 0.38082 0.47732 0.90494 0.0
C230 C 0.32741 0.55559 0.06056 0.0
C231 C 0.30903 0.44986 0.84724 0.0
H232 H 0.18377 0.47194 0.05583 0.0
H233 H 0.1863 0.5297 0.85362 0.0
H234 H 0.28465 0.45009 0.0442 0.0
H235 H 0.29242 0.48708 0.11933 0.0
H236 H 0.24573 0.45963 0.12349 0.0
H237 H 0.24866 0.54503 0.78798 0.0
H238 H 0.29352 0.55468 0.86562 0.0
H239 H 0.28871 0.51802 0.78912 0.0
H240 H 0.41019 0.54811 0.03895 0.0
H241 H 0.39441 0.45749 0.86696 0.0
H242 H 0.30641 0.54607 0.10821 0.0
H243 H 0.3079 0.56826 0.01976 0.0
H244 H 0.35261 0.57317 0.09744 0.0
H245 H 0.28883 0.43658 0.88914 0.0
H246 H 0.32808 0.43283 0.80795 0.0
H247 H 0.28764 0.45924 0.80181 0.0
C248 C 0.8213 0.14781 0.984 0.0
C249 C 0.77811 0.14798 -0.00049 0.0
C250 C 0.84664 0.176 0.97524 0.0
C251 C 0.82862 0.20531 0.98316 0.0
C252 C 0.78514 0.20577 -0.00087 0.0
C253 C 0.7604 0.17714 0.00657 0.0
C254 C 0.8928 0.17441 0.95767 0.0
C255 C 0.76471 0.23651 0.0083 0.0
C256 C 0.9045 0.28189 0.038 0.0
C257 C 0.90965 0.29054 0.95497 0.0
C258 C 0.87768 0.25455 0.0484 0.0
C259 C 0.85535 0.23539 0.97405 0.0
C260 C 0.85969 0.24441 0.8904 0.0
C261 C 0.88673 0.27181 0.8819 0.0
C262 C 0.87395 0.24579 0.13872 0.0
C263 C 0.83631 0.22478 0.80952 0.0
H264 H 0.8356 0.12564 0.9799 0.0
H265 H 0.72698 0.17759 0.01709 0.0
H266 H 0.89998 0.18337 0.89581 0.0
H267 H 0.91277 0.19007 0.01128 0.0
H268 H 0.90188 0.1497 0.95218 0.0
H269 H 0.73068 0.23293 0.02194 0.0
H270 H 0.78121 0.25435 0.06239 0.0
H271 H 0.76768 0.24685 0.94721 0.0
H272 H 0.92236 0.29601 0.09467 0.0
H273 H 0.88999 0.27859 0.81772 0.0
H274 H 0.886 0.22232 0.13973 0.0
H275 H 0.84028 0.24326 0.15525 0.0
H276 H 0.89193 0.26389 0.19034 0.0
H277 H 0.84641 0.20034 0.79836 0.0
H278 H 0.84198 0.2356 0.74977 0.0
H279 H 0.80183 0.22224 0.81901 0.0
C280 C 0.59177 0.8906 -0.00309 0.0
C281 C 0.55392 0.90455 0.01017 0.0
C282 C 0.59331 0.8576 -0.00312 0.0
C283 C 0.5561 0.83794 0.01001 0.0
C284 C 0.51779 0.85186 0.02247 0.0
C285 C 0.51719 0.8848 0.02254 0.0
C286 C 0.63483 0.84376 0.9834 0.0
C287 C 0.47726 0.83197 0.03619 0.0
C288 C 0.54758 0.74735 0.93497 0.0
C289 C 0.55497 0.73611 0.01404 0.0
C290 C 0.54845 0.78031 0.93253 0.0
C291 C 0.55697 0.80286 0.01101 0.0
C292 C 0.56464 0.79173 0.09099 0.0
C293 C 0.56355 0.75862 0.09155 0.0
C294 C 0.54005 0.791 0.8458 0.0
C295 C 0.57358 0.81484 0.17631 0.0
H296 H 0.62034 0.90551 -0.01259 0.0
H297 H 0.4876 0.89504 0.03236 0.0
H298 H 0.64373 0.83309 0.04126 0.0
H299 H 0.6316 0.82427 0.92557 0.0
H300 H 0.66082 0.86205 0.97329 0.0
H301 H 0.44991 0.84625 0.04314 0.0
H302 H 0.46996 0.81204 0.98005 0.0
H303 H 0.48103 0.82113 0.09609 0.0
H304 H 0.5417 0.73035 0.87435 0.0
H305 H 0.56892 0.75033 0.15318 0.0
H306 H 0.56712 0.80764 0.83185 0.0
H307 H 0.51176 0.80426 0.84903 0.0
H308 H 0.53477 0.77058 0.79036 0.0
H309 H 0.60105 0.83248 0.17058 0.0
H310 H 0.58029 0.80253 0.23242 0.0
H311 H 0.54604 0.82845 0.191 0.0
C312 C 0.88653 0.52329 0.93469 0.0
C313 C 0.90719 0.49778 0.95637 0.0
C314 C 0.84188 0.52258 0.93373 0.0
C315 C 0.81671 0.49629 0.95843 0.0
C316 C 0.83758 0.47076 0.98212 0.0
C317 C 0.88214 0.47152 0.97913 0.0
C318 C 0.82157 0.54988 0.90486 0.0
C319 C 0.81286 0.44274 0.01211 0.0
C320 C 0.70482 0.51103 0.0334 0.0
C321 C 0.67843 0.49507 0.96132 0.0
C322 C 0.74936 0.51091 0.03423 0.0
C323 C 0.76881 0.49558 0.95972 0.0
C324 C 0.74224 0.4798 0.88624 0.0
C325 C 0.69767 0.47921 0.8886 0.0
C326 C 0.77562 0.52705 0.11553 0.0
C327 C 0.76098 0.46406 0.80399 0.0
H328 H 0.90531 0.54359 0.91625 0.0
H329 H 0.89755 0.45176 -0.00328 0.0
H330 H 0.79785 0.54052 0.84997 0.0
H331 H 0.80458 0.56224 0.95958 0.0
H332 H 0.84506 0.5677 0.88313 0.0
H333 H 0.83367 0.42552 0.0322 0.0
H334 H 0.79399 0.45142 0.06845 0.0
H335 H 0.79031 0.42987 0.9586 0.0
H336 H 0.69052 0.52322 0.09023 0.0
H337 H 0.67784 0.46709 0.83209 0.0
H338 H 0.79689 0.54747 0.10032 0.0
H339 H 0.79592 0.51002 0.13822 0.0
H340 H 0.75583 0.53608 0.17 0.0
H341 H 0.78335 0.48179 0.77903 0.0
H342 H 0.73643 0.45383 0.75127 0.0
H343 H 0.77924 0.44462 0.81883 0.0
C344 C 0.16503 0.7428 0.03614 0.0
C345 C 0.18167 0.71321 0.02684 0.0
C346 C 0.19118 0.77148 0.0369 0.0
C347 C 0.23513 0.77069 0.02721 0.0
C348 C 0.25229 0.74101 0.01858 0.0
C349 C 0.22542 0.71269 0.01883 0.0
C350 C 0.17161 0.80261 0.04659 0.0
C351 C 0.29897 0.73914 0.00791 0.0
C352 C 0.29346 0.84084 0.94135 0.0
C353 C 0.31263 0.85946 0.01867 0.0
C354 C 0.26881 0.81166 0.94304 0.0
C355 C 0.26286 0.80089 0.02411 0.0
C356 C 0.28242 0.81944 0.10232 0.0
C357 C 0.30717 0.84842 0.09861 0.0
C358 C 0.24889 0.79245 0.85804 0.0
C359 C 0.27658 0.80896 0.19014 0.0
H360 H 0.13126 0.74354 0.04075 0.0
H361 H 0.23876 0.69008 0.01279 0.0
H362 H 0.18748 0.81984 0.10273 0.0
H363 H 0.17619 0.81351 -0.01324 0.0
H364 H 0.13721 0.79933 0.05719 0.0
H365 H 0.30746 0.71429 0.00319 0.0
H366 H 0.30858 0.74841 0.94776 0.0
H367 H 0.31749 0.75443 0.0643 0.0
H368 H 0.29804 0.84898 0.8792 0.0
H369 H 0.32156 0.86283 0.15872 0.0
H370 H 0.21396 0.79001 0.86076 0.0
H371 H 0.2588 0.76795 0.84842 0.0
H372 H 0.25762 0.80365 0.80025 0.0
H373 H 0.24261 0.80749 0.20463 0.0
H374 H 0.29485 0.82564 0.24452 0.0
H375 H 0.28662 0.78471 0.18843 0.0
C376 C 0.52471 0.25791 0.04858 0.0
C377 C 0.5449 0.26854 0.97759 0.0
C378 C 0.52356 0.22584 0.06114 0.0
C379 C 0.54279 0.20354 0.00103 0.0
C380 C 0.56377 0.21415 0.93004 0.0
C381 C 0.56471 0.24641 0.91943 0.0
C382 C 0.50115 0.21568 0.13811 0.0
C383 C 0.58479 0.19129 0.86444 0.0
C384 C 0.57073 0.12545 0.06754 0.0
C385 C 0.53713 0.10327 0.02728 0.0
C386 C 0.57274 0.15807 0.06041 0.0
C387 C 0.54045 0.16904 0.01155 0.0
C388 C 0.50623 0.14688 0.97149 0.0
C389 C 0.50492 0.11437 0.97998 0.0
C390 C 0.60979 0.18074 0.10437 0.0
C391 C 0.47132 0.15742 0.91812 0.0
H392 H 0.50873 0.2745 0.09335 0.0
H393 H 0.58104 0.25429 0.8652 0.0
H394 H 0.47405 0.19746 0.11407 0.0
H395 H 0.52289 0.20443 0.17826 0.0
H396 H 0.4892 0.23609 0.18087 0.0
H397 H 0.59996 0.20326 0.81309 0.0
H398 H 0.60921 0.18028 0.89852 0.0
H399 H 0.5611 0.17158 0.83198 0.0
H400 H 0.59593 0.11729 0.1041 0.0
H401 H 0.47896 0.09754 0.94807 0.0
H402 H 0.59832 0.20065 0.14978 0.0
H403 H 0.62778 0.19148 0.05432 0.0
H404 H 0.63171 0.16865 0.14193 0.0
H405 H 0.45621 0.17664 0.95884 0.0
H406 H 0.44661 0.13742 0.89219 0.0
H407 H 0.48472 0.1675 0.86198 0.0
loop_
_geom_bond_atom_site_label_1
_geom_bond_atom_site_label_2
_geom_bond_distance
_geom_bond_site_symmetry_2
_ccdc_geom_bond_type
Dy0 O3 2.307 1_455 S
Dy0 O5 2.395 1_554 S
Dy0 O6 2.379 . S
Dy0 O8 2.339 . S
Dy0 O10 2.298 . S
Dy0 O14 2.275 1_554 S
Dy0 C22 2.738 . S
Dy1 O4 2.298 . S
Dy1 O7 2.275 1_556 S
Dy1 O9 2.307 1_655 S
Dy1 O11 2.395 1_556 S
Dy1 O12 2.379 . S
Dy1 O15 2.339 . S
Dy1 C31 2.738 . S
C2 O14 1.254 . S
C2 O15 1.257 1_455 S
O3 Dy0 2.307 1_655 S
O3 C13 1.266 . S
O4 Dy1 2.298 . S
O4 C13 1.236 1_556 S
O5 Dy0 2.395 1_556 S
O5 C22 1.255 1_556 S
O6 Dy0 2.379 . S
O6 C22 1.249 . S
O7 Dy1 2.275 1_554 S
O7 C23 1.254 1_655 S
O8 Dy0 2.339 . S
O8 C23 1.257 . S
O9 Dy1 2.307 1_455 S
O9 C24 1.266 . S
O10 Dy0 2.298 . S
O10 C24 1.236 1_554 S
O11 Dy1 2.395 1_554 S
O11 C31 1.255 1_554 S
O12 Dy1 2.379 . S
O12 C31 1.249 . S
C13 O3 1.266 . S
C13 O4 1.236 1_554 S
O14 Dy0 2.275 1_556 S
O14 C2 1.254 . S
O15 Dy1 2.339 . S
O15 C2 1.257 1_655 S
C16 C19 1.344 1_554 S
C16 C20 1.328 . S
C16 C22 1.516 . S
C17 C18 1.304 1_554 S
C17 C21 1.323 . S
C18 C17 1.304 1_556 S
C18 C19 1.371 . S
C18 H32 0.930 . S
C19 C16 1.344 1_556 S
C19 C18 1.371 . S
C19 H33 0.931 . S
C20 C16 1.328 . S
C20 C21 1.433 . S
C20 H34 0.931 . S
C21 C17 1.323 . S
C21 C20 1.433 . S
C21 H35 0.933 . S
C22 Dy0 2.738 . S
C22 O5 1.255 1_554 S
C22 O6 1.249 . S
C22 C16 1.516 . S
C23 O7 1.254 1_455 S
C23 O8 1.257 . S
C24 O9 1.266 . S
C24 O10 1.236 1_556 S
C25 C28 1.344 1_556 S
C25 C29 1.328 . S
C25 C31 1.516 . S
C26 C27 1.304 1_556 S
C26 C30 1.323 . S
C27 C26 1.304 1_554 S
C27 C28 1.371 . S
C27 H36 0.930 . S
C28 C25 1.344 1_554 S
C28 C27 1.371 . S
C28 H37 0.931 . S
C29 C25 1.328 . S
C29 C30 1.433 . S
C29 H38 0.931 . S
C30 C26 1.323 . S
C30 C29 1.433 . S
C30 H39 0.933 . S
C31 Dy1 2.738 . S
C31 O11 1.255 1_556 S
C31 O12 1.249 . S
C31 C25 1.516 . S
H32 C18 0.930 . S
H33 C19 0.931 . S
H34 C20 0.931 . S
H35 C21 0.933 . S
H36 C27 0.930 . S
H37 C28 0.931 . S
H38 C29 0.931 . S
H39 C30 0.933 . S
Dy40 O43 2.307 1_565 S
Dy40 O45 2.395 1_556 S
Dy40 O46 2.379 . S
Dy40 O48 2.339 . S
Dy40 O50 2.298 . S
Dy40 O54 2.275 1_556 S
Dy40 C62 2.738 . S
Dy41 O44 2.298 . S
Dy41 O47 2.275 1_554 S
Dy41 O49 2.307 1_545 S
Dy41 O51 2.395 1_554 S
Dy41 O52 2.379 . S
Dy41 O55 2.339 . S
Dy41 C71 2.738 . S
C42 O54 1.254 1_545 S
C42 O55 1.257 . S
O43 Dy40 2.307 1_545 S
O43 C53 1.266 1_556 S
O44 Dy41 2.298 . S
O44 C53 1.236 . S
O45 Dy40 2.395 1_554 S
O45 C62 1.255 1_554 S
O46 Dy40 2.379 . S
O46 C62 1.249 . S
O47 Dy41 2.275 1_556 S
O47 C63 1.254 1_545 S
O48 Dy40 2.339 . S
O48 C63 1.257 . S
O49 Dy41 2.307 1_565 S
O49 C64 1.266 1_554 S
O50 Dy40 2.298 . S
O50 C64 1.236 . S
O51 Dy41 2.395 1_556 S
O51 C71 1.255 1_556 S
O52 Dy41 2.379 . S
O52 C71 1.249 . S
C53 O43 1.266 1_554 S
C53 O44 1.236 . S
O54 Dy40 2.275 1_554 S
O54 C42 1.254 1_565 S
O55 Dy41 2.339 . S
O55 C42 1.257 . S
C56 C59 1.344 1_556 S
C56 C60 1.328 . S
C56 C62 1.516 . S
C57 C58 1.304 . S
C57 C61 1.323 1_554 S
C58 C57 1.304 . S
C58 C59 1.371 . S
C58 H72 0.930 . S
C59 C56 1.344 1_554 S
C59 C58 1.371 . S
C59 H73 0.931 . S
C60 C56 1.328 . S
C60 C61 1.433 . S
C60 H74 0.931 . S
C61 C57 1.323 1_556 S
C61 C60 1.433 . S
C61 H75 0.933 . S
C62 Dy40 2.738 . S
C62 O45 1.255 1_556 S
C62 O46 1.249 . S
C62 C56 1.516 . S
C63 O47 1.254 1_565 S
C63 O48 1.257 . S
C64 O49 1.266 1_556 S
C64 O50 1.236 . S
C65 C68 1.344 1_554 S
C65 C69 1.328 . S
C65 C71 1.516 . S
C66 C67 1.304 . S
C66 C70 1.323 1_556 S
C67 C66 1.304 . S
C67 C68 1.371 . S
C67 H76 0.930 . S
C68 C65 1.344 1_556 S
C68 C67 1.371 . S
C68 H77 0.931 . S
C69 C65 1.328 . S
C69 C70 1.433 . S
C69 H78 0.931 . S
C70 C66 1.323 1_554 S
C70 C69 1.433 . S
C70 H79 0.933 . S
C71 Dy41 2.738 . S
C71 O51 1.255 1_554 S
C71 O52 1.249 . S
C71 C65 1.516 . S
H72 C58 0.930 . S
H73 C59 0.931 . S
H74 C60 0.931 . S
H75 C61 0.933 . S
H76 C67 0.930 . S
H77 C68 0.931 . S
H78 C69 0.931 . S
H79 C70 0.933 . S
Dy80 O83 2.307 . S
Dy80 O85 2.395 1_556 S
Dy80 O86 2.379 . S
Dy80 O88 2.339 . S
Dy80 O90 2.298 . S
Dy80 O94 2.275 1_556 S
Dy80 C102 2.738 . S
Dy81 O84 2.298 . S
Dy81 O87 2.275 1_554 S
Dy81 O89 2.307 . S
Dy81 O91 2.395 1_554 S
Dy81 O92 2.379 . S
Dy81 O95 2.339 . S
Dy81 C111 2.738 . S
C82 O94 1.254 . S
C82 O95 1.257 . S
O83 Dy80 2.307 . S
O83 C93 1.266 . S
O84 Dy81 2.298 . S
O84 C93 1.236 1_554 S
O85 Dy80 2.395 1_554 S
O85 C102 1.255 1_554 S
O86 Dy80 2.379 . S
O86 C102 1.249 . S
O87 Dy81 2.275 1_556 S
O87 C103 1.254 . S
O88 Dy80 2.339 . S
O88 C103 1.257 . S
O89 Dy81 2.307 . S
O89 C104 1.266 . S
O90 Dy80 2.298 . S
O90 C104 1.236 1_556 S
O91 Dy81 2.395 1_556 S
O91 C111 1.255 1_556 S
O92 Dy81 2.379 . S
O92 C111 1.249 . S
C93 O83 1.266 . S
C93 O84 1.236 1_556 S
O94 Dy80 2.275 1_554 S
O94 C82 1.254 . S
O95 Dy81 2.339 . S
O95 C82 1.257 . S
C96 C99 1.344 1_556 S
C96 C100 1.328 . S
C96 C102 1.516 . S
C97 C98 1.312 . S
C97 C101 1.313 1_554 S
C98 C97 1.312 . S
C98 C99 1.371 . S
C98 H112 0.930 . S
C99 C96 1.344 1_554 S
C99 C98 1.371 . S
C99 H113 0.931 . S
C100 C96 1.328 . S
C100 C101 1.433 . S
C100 H114 0.931 . S
C101 C97 1.313 1_556 S
C101 C100 1.433 . S
C101 H115 0.933 . S
C102 Dy80 2.738 . S
C102 O85 1.255 1_556 S
C102 O86 1.249 . S
C102 C96 1.516 . S
C103 O87 1.254 . S
C103 O88 1.257 . S
C104 O89 1.266 . S
C104 O90 1.236 1_554 S
C105 C108 1.344 1_554 S
C105 C109 1.328 . S
C105 C111 1.516 . S
C106 C107 1.305 . S
C106 C110 1.322 1_556 S
C107 C106 1.305 . S
C107 C108 1.371 . S
C107 H116 0.930 . S
C108 C105 1.344 1_556 S
C108 C107 1.371 . S
C108 H117 0.931 . S
C109 C105 1.328 . S
C109 C110 1.433 . S
C109 H118 0.931 . S
C110 C106 1.322 1_554 S
C110 C109 1.433 . S
C110 H119 0.933 . S
C111 Dy81 2.738 . S
C111 O91 1.255 1_554 S
C111 O92 1.249 . S
C111 C105 1.516 . S
H112 C98 0.930 . S
H113 C99 0.931 . S
H114 C100 0.931 . S
H115 C101 0.933 . S
H116 C107 0.930 . S
H117 C108 0.931 . S
H118 C109 0.931 . S
H119 C110 0.933 . S
C120 C121 1.391 . S
C120 C122 1.394 . S
C120 H136 0.931 . S
C121 C120 1.391 . S
C121 C125 1.376 1_455 S
C122 C120 1.394 . S
C122 C123 1.364 1_455 S
C122 C126 1.531 . S
C123 C122 1.364 1_655 S
C123 C124 1.414 . S
C123 C131 1.503 . S
C124 C123 1.414 . S
C124 C125 1.392 . S
C124 C127 1.511 . S
C125 C121 1.376 1_655 S
C125 C124 1.392 . S
C125 H137 0.929 . S
C126 C122 1.531 . S
C126 H138 0.960 . S
C126 H139 0.962 . S
C126 H140 0.960 . S
C127 C124 1.511 . S
C127 H141 0.961 . S
C127 H142 0.961 . S
C127 H143 0.961 . S
C128 C129 1.370 1_455 S
C128 C130 1.363 . S
C128 H144 0.931 . S
C129 C128 1.370 1_655 S
C129 C133 1.408 . S
C130 C128 1.363 . S
C130 C131 1.370 1_455 S
C130 C134 1.524 . S
C131 C123 1.503 . S
C131 C130 1.370 1_655 S
C131 C132 1.403 . S
C132 C131 1.403 . S
C132 C133 1.404 . S
C132 C135 1.539 . S
C133 C129 1.408 . S
C133 C132 1.404 . S
C133 H145 0.930 . S
C134 C130 1.524 . S
C134 H146 0.956 . S
C134 H147 0.961 . S
C134 H148 0.961 . S
C135 C132 1.539 . S
C135 H149 0.958 . S
C135 H150 0.961 . S
C135 H151 0.960 . S
H136 C120 0.931 . S
H137 C125 0.929 . S
H138 C126 0.960 . S
H139 C126 0.962 . S
H140 C126 0.960 . S
H141 C127 0.961 . S
H142 C127 0.961 . S
H143 C127 0.961 . S
H144 C128 0.931 . S
H145 C133 0.930 . S
H146 C134 0.956 . S
H147 C134 0.961 . S
H148 C134 0.961 . S
H149 C135 0.958 . S
H150 C135 0.961 . S
H151 C135 0.960 . S
C152 C153 1.391 . S
C152 C154 1.394 . S
C152 H168 0.931 . S
C153 C152 1.391 . S
C153 C157 1.376 . S
C154 C152 1.394 . S
C154 C155 1.369 . S
C154 C158 1.531 . S
C155 C154 1.369 . S
C155 C156 1.410 . S
C155 C163 1.503 . S
C156 C155 1.410 . S
C156 C157 1.392 . S
C156 C159 1.511 . S
C157 C153 1.376 . S
C157 C156 1.392 . S
C157 H169 0.929 . S
C158 C154 1.531 . S
C158 H170 0.960 . S
C158 H171 0.962 1_545 S
C158 H172 0.960 . S
C159 C156 1.511 . S
C159 H173 0.961 . S
C159 H174 0.961 . S
C159 H175 0.961 . S
C160 C161 1.370 1_565 S
C160 C162 1.363 . S
C160 H176 0.931 . S
C161 C160 1.370 1_545 S
C161 C165 1.408 . S
C162 C160 1.363 . S
C162 C163 1.370 1_565 S
C162 C166 1.524 . S
C163 C155 1.503 . S
C163 C162 1.370 1_545 S
C163 C164 1.403 . S
C164 C163 1.403 . S
C164 C165 1.404 . S
C164 C167 1.539 . S
C165 C161 1.408 . S
C165 C164 1.404 . S
C165 H177 0.930 . S
C166 C162 1.524 . S
C166 H178 0.956 . S
C166 H179 0.961 . S
C166 H180 0.961 . S
C167 C164 1.539 . S
C167 H181 0.958 . S
C167 H182 0.961 . S
C167 H183 0.960 . S
H168 C152 0.931 . S
H169 C157 0.929 . S
H170 C158 0.960 . S
H171 C158 0.962 1_565 S
H172 C158 0.960 . S
H173 C159 0.961 . S
H174 C159 0.961 . S
H175 C159 0.961 . S
H176 C160 0.931 . S
H177 C165 0.930 . S
H178 C166 0.956 . S
H179 C166 0.961 . S
H180 C166 0.961 . S
H181 C167 0.958 . S
H182 C167 0.961 . S
H183 C167 0.960 . S
C184 C185 1.391 . S
C184 C186 1.394 . S
C184 H200 0.931 . S
C185 C184 1.391 . S
C185 C189 1.376 . S
C186 C184 1.394 . S
C186 C187 1.369 . S
C186 C190 1.531 . S
C187 C186 1.369 . S
C187 C188 1.410 . S
C187 C195 1.503 . S
C188 C187 1.410 . S
C188 C189 1.392 . S
C188 C191 1.511 . S
C189 C185 1.376 . S
C189 C188 1.392 . S
C189 H201 0.929 . S
C190 C186 1.531 . S
C190 H202 0.960 . S
C190 H203 0.962 . S
C190 H204 0.960 . S
C191 C188 1.511 . S
C191 H205 0.961 . S
C191 H206 0.961 . S
C191 H207 0.961 . S
C192 C193 1.370 . S
C192 C194 1.363 . S
C192 H208 0.931 . S
C193 C192 1.370 . S
C193 C197 1.408 . S
C194 C192 1.363 . S
C194 C195 1.370 . S
C194 C198 1.524 . S
C195 C187 1.503 . S
C195 C194 1.370 . S
C195 C196 1.403 . S
C196 C195 1.403 . S
C196 C197 1.404 . S
C196 C199 1.539 . S
C197 C193 1.408 . S
C197 C196 1.404 . S
C197 H209 0.930 . S
C198 C194 1.524 . S
C198 H210 0.956 . S
C198 H211 0.961 . S
C198 H212 0.961 . S
C199 C196 1.539 . S
C199 H213 0.958 . S
C199 H214 0.961 . S
C199 H215 0.960 . S
H200 C184 0.931 . S
H201 C189 0.929 . S
H202 C190 0.960 . S
H203 C190 0.962 . S
H204 C190 0.960 . S
H205 C191 0.961 . S
H206 C191 0.961 . S
H207 C191 0.961 . S
H208 C192 0.931 . S
H209 C197 0.930 . S
H210 C198 0.956 . S
H211 C198 0.961 . S
H212 C198 0.961 . S
H213 C199 0.958 . S
H214 C199 0.961 . S
H215 C199 0.960 . S
C216 C217 1.391 1_554 S
C216 C218 1.394 . S
C216 H232 0.931 . S
C217 C216 1.391 1_556 S
C217 C221 1.376 . S
C218 C216 1.394 . S
C218 C219 1.369 1_554 S
C218 C222 1.531 . S
C219 C218 1.369 1_556 S
C219 C220 1.410 . S
C219 C227 1.503 . S
C220 C219 1.410 . S
C220 C221 1.392 . S
C220 C223 1.511 . S
C221 C217 1.376 . S
C221 C220 1.392 . S
C221 H233 0.929 . S
C222 C218 1.531 . S
C222 H234 0.960 . S
C222 H235 0.962 . S
C222 H236 0.960 . S
C223 C220 1.511 . S
C223 H237 0.961 . S
C223 H238 0.961 . S
C223 H239 0.961 . S
C224 C225 1.370 1_554 S
C224 C226 1.363 . S
C224 H240 0.931 . S
C225 C224 1.370 1_556 S
C225 C229 1.408 . S
C226 C224 1.363 . S
C226 C227 1.370 1_554 S
C226 C230 1.524 . S
C227 C219 1.503 . S
C227 C226 1.370 1_556 S
C227 C228 1.403 . S
C228 C227 1.403 . S
C228 C229 1.404 . S
C228 C231 1.539 . S
C229 C225 1.408 . S
C229 C228 1.404 . S
C229 H241 0.930 . S
C230 C226 1.524 . S
C230 H242 0.956 . S
C230 H243 0.961 . S
C230 H244 0.961 . S
C231 C228 1.539 . S
C231 H245 0.958 . S
C231 H246 0.961 . S
C231 H247 0.960 . S
H232 C216 0.931 . S
H233 C221 0.929 . S
H234 C222 0.960 . S
H235 C222 0.962 . S
H236 C222 0.960 . S
H237 C223 0.961 . S
H238 C223 0.961 . S
H239 C223 0.961 . S
H240 C224 0.931 . S
H241 C229 0.930 . S
H242 C230 0.956 . S
H243 C230 0.961 . S
H244 C230 0.961 . S
H245 C231 0.958 . S
H246 C231 0.961 . S
H247 C231 0.960 . S
C248 C249 1.391 . S
C248 C250 1.394 . S
C248 H264 0.931 . S
C249 C248 1.391 . S
C249 C253 1.376 1_556 S
C250 C248 1.394 . S
C250 C251 1.369 . S
C250 C254 1.531 . S
C251 C250 1.369 . S
C251 C252 1.410 1_556 S
C251 C259 1.503 . S
C252 C251 1.410 1_554 S
C252 C253 1.392 . S
C252 C255 1.511 . S
C253 C249 1.376 1_554 S
C253 C252 1.392 . S
C253 H265 0.929 . S
C254 C250 1.531 . S
C254 H266 0.960 . S
C254 H267 0.962 . S
C254 H268 0.960 . S
C255 C252 1.511 . S
C255 H269 0.961 . S
C255 H270 0.961 . S
C255 H271 0.961 . S
C256 C257 1.370 1_554 S
C256 C258 1.363 . S
C256 H272 0.931 . S
C257 C256 1.370 1_556 S
C257 C261 1.408 . S
C258 C256 1.363 . S
C258 C259 1.370 1_554 S
C258 C262 1.524 . S
C259 C251 1.503 . S
C259 C258 1.370 1_556 S
C259 C260 1.403 . S
C260 C259 1.403 . S
C260 C261 1.404 . S
C260 C263 1.539 . S
C261 C257 1.408 . S
C261 C260 1.404 . S
C261 H273 0.930 . S
C262 C258 1.524 . S
C262 H274 0.956 . S
C262 H275 0.961 . S
C262 H276 0.961 . S
C263 C260 1.539 . S
C263 H277 0.958 . S
C263 H278 0.961 . S
C263 H279 0.960 . S
H264 C248 0.931 . S
H265 C253 0.929 . S
H266 C254 0.960 . S
H267 C254 0.962 . S
H268 C254 0.960 . S
H269 C255 0.961 . S
H270 C255 0.961 . S
H271 C255 0.961 . S
H272 C256 0.931 . S
H273 C261 0.930 . S
H274 C262 0.956 . S
H275 C262 0.961 . S
H276 C262 0.961 . S
H277 C263 0.958 . S
H278 C263 0.961 . S
H279 C263 0.960 . S
C280 C281 1.391 . S
C280 C282 1.394 . S
C280 H296 0.931 . S
C281 C280 1.391 . S
C281 C285 1.376 . S
C282 C280 1.394 . S
C282 C283 1.369 . S
C282 C286 1.531 . S
C283 C282 1.369 . S
C283 C284 1.410 . S
C283 C291 1.503 . S
C284 C283 1.410 . S
C284 C285 1.392 . S
C284 C287 1.511 . S
C285 C281 1.376 . S
C285 C284 1.392 . S
C285 H297 0.929 . S
C286 C282 1.531 . S
C286 H298 0.960 . S
C286 H299 0.962 1_554 S
C286 H300 0.960 . S
C287 C284 1.511 . S
C287 H301 0.961 1_554 S
C287 H302 0.961 1_554 S
C287 H303 0.961 . S
C288 C289 1.370 1_556 S
C288 C290 1.363 . S
C288 H304 0.931 . S
C289 C288 1.370 1_554 S
C289 C293 1.408 . S
C290 C288 1.363 . S
C290 C291 1.370 1_556 S
C290 C294 1.524 . S
C291 C283 1.503 . S
C291 C290 1.370 1_554 S
C291 C292 1.403 . S
C292 C291 1.403 . S
C292 C293 1.404 . S
C292 C295 1.539 . S
C293 C289 1.408 . S
C293 C292 1.404 . S
C293 H305 0.930 . S
C294 C290 1.524 . S
C294 H306 0.956 . S
C294 H307 0.961 . S
C294 H308 0.961 . S
C295 C292 1.539 . S
C295 H309 0.958 . S
C295 H310 0.961 . S
C295 H311 0.960 . S
H296 C280 0.931 . S
H297 C285 0.929 . S
H298 C286 0.960 . S
H299 C286 0.962 1_556 S
H300 C286 0.960 . S
H301 C287 0.961 1_556 S
H302 C287 0.961 1_556 S
H303 C287 0.961 . S
H304 C288 0.931 . S
H305 C293 0.930 . S
H306 C294 0.956 . S
H307 C294 0.961 . S
H308 C294 0.961 . S
H309 C295 0.958 . S
H310 C295 0.961 . S
H311 C295 0.960 . S
C312 C313 1.391 1_556 S
C312 C314 1.394 . S
C312 H328 0.931 . S
C313 C312 1.391 1_554 S
C313 C317 1.376 . S
C314 C312 1.394 . S
C314 C315 1.369 . S
C314 C318 1.531 . S
C315 C314 1.369 . S
C315 C316 1.410 1_556 S
C315 C323 1.503 1_556 S
C316 C315 1.410 1_554 S
C316 C317 1.392 . S
C316 C319 1.511 . S
C317 C313 1.376 . S
C317 C316 1.392 . S
C317 H329 0.929 . S
C318 C314 1.531 . S
C318 H330 0.960 . S
C318 H331 0.962 . S
C318 H332 0.960 . S
C319 C316 1.511 . S
C319 H333 0.961 . S
C319 H334 0.961 . S
C319 H335 0.961 . S
C320 C321 1.370 . S
C320 C322 1.363 . S
C320 H336 0.931 . S
C321 C320 1.370 . S
C321 C325 1.408 1_554 S
C322 C320 1.363 . S
C322 C323 1.374 . S
C322 C326 1.524 . S
C323 C315 1.503 1_554 S
C323 C322 1.374 . S
C323 C324 1.400 1_554 S
C324 C323 1.400 1_556 S
C324 C325 1.404 . S
C324 C327 1.539 . S
C325 C321 1.408 1_556 S
C325 C324 1.404 . S
C325 H337 0.930 . S
C326 C322 1.524 . S
C326 H338 0.956 . S
C326 H339 0.961 . S
C326 H340 0.961 . S
C327 C324 1.539 . S
C327 H341 0.958 . S
C327 H342 0.961 . S
C327 H343 0.960 . S
H328 C312 0.931 . S
H329 C317 0.929 . S
H330 C318 0.960 . S
H331 C318 0.962 . S
H332 C318 0.960 . S
H333 C319 0.961 . S
H334 C319 0.961 . S
H335 C319 0.961 . S
H336 C320 0.931 . S
H337 C325 0.930 . S
H338 C326 0.956 . S
H339 C326 0.961 . S
H340 C326 0.961 . S
H341 C327 0.958 . S
H342 C327 0.961 . S
H343 C327 0.960 . S
C344 C345 1.391 . S
C344 C346 1.394 . S
C344 H360 0.931 . S
C345 C344 1.391 . S
C345 C349 1.375 1_554 S
C346 C344 1.394 . S
C346 C347 1.369 . S
C346 C350 1.531 . S
C347 C346 1.369 . S
C347 C348 1.410 . S
C347 C355 1.503 . S
C348 C347 1.410 . S
C348 C349 1.393 1_554 S
C348 C351 1.511 1_554 S
C349 C345 1.375 1_556 S
C349 C348 1.393 1_556 S
C349 H361 0.929 . S
C350 C346 1.531 . S
C350 H362 0.960 . S
C350 H363 0.962 . S
C350 H364 0.960 . S
C351 C348 1.511 1_556 S
C351 H365 0.961 . S
C351 H366 0.961 . S
C351 H367 0.961 1_556 S
C352 C353 1.370 1_556 S
C352 C354 1.363 . S
C352 H368 0.931 . S
C353 C352 1.370 1_554 S
C353 C357 1.408 . S
C354 C352 1.363 . S
C354 C355 1.370 1_556 S
C354 C358 1.524 . S
C355 C347 1.503 . S
C355 C354 1.370 1_554 S
C355 C356 1.403 . S
C356 C355 1.403 . S
C356 C357 1.404 . S
C356 C359 1.539 . S
C357 C353 1.408 . S
C357 C356 1.404 . S
C357 H369 0.930 . S
C358 C354 1.524 . S
C358 H370 0.956 . S
C358 H371 0.961 . S
C358 H372 0.961 . S
C359 C356 1.539 . S
C359 H373 0.958 . S
C359 H374 0.961 . S
C359 H375 0.960 . S
H360 C344 0.931 . S
H361 C349 0.929 . S
H362 C350 0.960 . S
H363 C350 0.962 . S
H364 C350 0.960 . S
H365 C351 0.961 . S
H366 C351 0.961 . S
H367 C351 0.961 1_554 S
H368 C352 0.931 . S
H369 C357 0.930 . S
H370 C358 0.956 . S
H371 C358 0.961 . S
H372 C358 0.961 . S
H373 C359 0.958 . S
H374 C359 0.961 . S
H375 C359 0.960 . S
C376 C377 1.391 1_554 S
C376 C378 1.394 . S
C376 H392 0.931 . S
C377 C376 1.391 1_556 S
C377 C381 1.376 . S
C378 C376 1.394 . S
C378 C379 1.369 1_554 S
C378 C382 1.531 . S
C379 C378 1.369 1_556 S
C379 C380 1.410 . S
C379 C387 1.503 . S
C380 C379 1.410 . S
C380 C381 1.392 . S
C380 C383 1.511 . S
C381 C377 1.376 . S
C381 C380 1.392 . S
C381 H393 0.929 . S
C382 C378 1.531 . S
C382 H394 0.960 . S
C382 H395 0.962 . S
C382 H396 0.960 . S
C383 C380 1.511 . S
C383 H397 0.961 . S
C383 H398 0.961 . S
C383 H399 0.961 . S
C384 C385 1.370 1_554 S
C384 C386 1.363 . S
C384 H400 0.931 . S
C385 C384 1.370 1_556 S
C385 C389 1.408 . S
C386 C384 1.363 . S
C386 C387 1.370 1_554 S
C386 C390 1.524 . S
C387 C379 1.503 . S
C387 C386 1.370 1_556 S
C387 C388 1.403 . S
C388 C387 1.403 . S
C388 C389 1.404 . S
C388 C391 1.539 . S
C389 C385 1.408 . S
C389 C388 1.404 . S
C389 H401 0.930 . S
C390 C386 1.524 . S
C390 H402 0.956 . S
C390 H403 0.961 . S
C390 H404 0.961 . S
C391 C388 1.539 . S
C391 H405 0.958 . S
C391 H406 0.961 . S
C391 H407 0.960 . S
H392 C376 0.931 . S
H393 C381 0.929 . S
H394 C382 0.960 . S
H395 C382 0.962 . S
H396 C382 0.960 . S
H397 C383 0.961 . S
H398 C383 0.961 . S
H399 C383 0.961 . S
H400 C384 0.931 . S
H401 C389 0.930 . S
H402 C390 0.956 . S
H403 C390 0.961 . S
H404 C390 0.961 . S
H405 C391 0.958 . S
H406 C391 0.961 . S
H407 C391 0.960 . S
C121 C2 1.443 . S
C129 C23 1.482 1_655 S
C153 C42 1.447 . S
C161 C63 1.469 1_545 S
C185 C103 1.467 . S
C193 C82 1.480 . S
C217 C24 2.518 . S
C225 C93 2.496 . S
C249 C66 0.720 . S
C257 C26 0.755 . S
C281 C64 1.789 1_554 S
C289 C106 1.797 1_554 S
C313 C13 2.506 . S
C321 C104 2.498 . S
C345 C17 0.764 . S
C353 C57 0.741 . S
C377 C97 1.787 1_556 S
C385 C53 1.791 1_556 S
