# Generated by pormake.
# Topology pem, (4)-cn, num edge types: 1
# Building blocks:
#     Node 0, Type 0, BuildingBlock: TATPOV_clean_sbu_0, # of connection points: 4
#     Node 1, Type 0, BuildingBlock: TATPOV_clean_sbu_0, # of connection points: 4
#     Node 2, Type 0, BuildingBlock: TATPOV_clean_sbu_0, # of connection points: 4
#     Node 3, Type 0, BuildingBlock: TATPOV_clean_sbu_0, # of connection points: 4
#     Node 4, Type 0, BuildingBlock: TATPOV_clean_sbu_0, # of connection points: 4
#     Node 5, Type 0, BuildingBlock: TATPOV_clean_sbu_0, # of connection points: 4
#     Node 6, Type 0, BuildingBlock: TATPOV_clean_sbu_0, # of connection points: 4
#     Node 7, Type 0, BuildingBlock: TATPOV_clean_sbu_0, # of connection points: 4
#     Node 8, Type 0, BuildingBlock: TATPOV_clean_sbu_0, # of connection points: 4
#     Node 9, Type 0, BuildingBlock: TATPOV_clean_sbu_0, # of connection points: 4
#     Node 10, Type 0, BuildingBlock: TATPOV_clean_sbu_0, # of connection points: 4
#     Node 11, Type 0, BuildingBlock: TATPOV_clean_sbu_0, # of connection points: 4
#     Node 12, Type 0, BuildingBlock: TATPOV_clean_sbu_0, # of connection points: 4
#     Node 13, Type 0, BuildingBlock: TATPOV_clean_sbu_0, # of connection points: 4
#     Node 14, Type 0, BuildingBlock: TATPOV_clean_sbu_0, # of connection points: 4
#     Node 15, Type 0, BuildingBlock: TATPOV_clean_sbu_0, # of connection points: 4
#     Node 16, Type 0, BuildingBlock: TATPOV_clean_sbu_0, # of connection points: 4
#     Node 17, Type 0, BuildingBlock: TATPOV_clean_sbu_0, # of connection points: 4
#     Node 18, Type 0, BuildingBlock: TATPOV_clean_sbu_0, # of connection points: 4
#     Node 19, Type 0, BuildingBlock: TATPOV_clean_sbu_0, # of connection points: 4
#     Node 20, Type 0, BuildingBlock: TATPOV_clean_sbu_0, # of connection points: 4
#     Node 21, Type 0, BuildingBlock: TATPOV_clean_sbu_0, # of connection points: 4
#     Node 22, Type 0, BuildingBlock: TATPOV_clean_sbu_0, # of connection points: 4
#     Node 23, Type 0, BuildingBlock: TATPOV_clean_sbu_0, # of connection points: 4
#     Node 24, Type 0, BuildingBlock: TATPOV_clean_sbu_0, # of connection points: 4
#     Node 25, Type 0, BuildingBlock: TATPOV_clean_sbu_0, # of connection points: 4
#     Node 26, Type 0, BuildingBlock: TATPOV_clean_sbu_0, # of connection points: 4
#     Node 27, Type 0, BuildingBlock: TATPOV_clean_sbu_0, # of connection points: 4
#     Node 28, Type 0, BuildingBlock: TATPOV_clean_sbu_0, # of connection points: 4
#     Node 29, Type 0, BuildingBlock: TATPOV_clean_sbu_0, # of connection points: 4
#     Node 30, Type 0, BuildingBlock: TATPOV_clean_sbu_0, # of connection points: 4
#     Node 31, Type 0, BuildingBlock: TATPOV_clean_sbu_0, # of connection points: 4
#     Edge 32, Type (0, 0), BuildingBlock: ZUJKAS_clean_linker_0, # of connection points: 2
#     Edge 33, Type (0, 0), BuildingBlock: ZUJKAS_clean_linker_0, # of connection points: 2
#     Edge 34, Type (0, 0), BuildingBlock: ZUJKAS_clean_linker_0, # of connection points: 2
#     Edge 35, Type (0, 0), BuildingBlock: ZUJKAS_clean_linker_0, # of connection points: 2
#     Edge 36, Type (0, 0), BuildingBlock: ZUJKAS_clean_linker_0, # of connection points: 2
#     Edge 37, Type (0, 0), BuildingBlock: ZUJKAS_clean_linker_0, # of connection points: 2
#     Edge 38, Type (0, 0), BuildingBlock: ZUJKAS_clean_linker_0, # of connection points: 2
#     Edge 39, Type (0, 0), BuildingBlock: ZUJKAS_clean_linker_0, # of connection points: 2
#     Edge 40, Type (0, 0), BuildingBlock: ZUJKAS_clean_linker_0, # of connection points: 2
#     Edge 41, Type (0, 0), BuildingBlock: ZUJKAS_clean_linker_0, # of connection points: 2
#     Edge 42, Type (0, 0), BuildingBlock: ZUJKAS_clean_linker_0, # of connection points: 2
#     Edge 43, Type (0, 0), BuildingBlock: ZUJKAS_clean_linker_0, # of connection points: 2
#     Edge 44, Type (0, 0), BuildingBlock: ZUJKAS_clean_linker_0, # of connection points: 2
#     Edge 45, Type (0, 0), BuildingBlock: ZUJKAS_clean_linker_0, # of connection points: 2
#     Edge 46, Type (0, 0), BuildingBlock: ZUJKAS_clean_linker_0, # of connection points: 2
#     Edge 47, Type (0, 0), BuildingBlock: ZUJKAS_clean_linker_0, # of connection points: 2
#     Edge 48, Type (0, 0), BuildingBlock: ZUJKAS_clean_linker_0, # of connection points: 2
#     Edge 49, Type (0, 0), BuildingBlock: ZUJKAS_clean_linker_0, # of connection points: 2
#     Edge 50, Type (0, 0), BuildingBlock: ZUJKAS_clean_linker_0, # of connection points: 2
#     Edge 51, Type (0, 0), BuildingBlock: ZUJKAS_clean_linker_0, # of connection points: 2
#     Edge 52, Type (0, 0), BuildingBlock: ZUJKAS_clean_linker_0, # of connection points: 2
#     Edge 53, Type (0, 0), BuildingBlock: ZUJKAS_clean_linker_0, # of connection points: 2
#     Edge 54, Type (0, 0), BuildingBlock: ZUJKAS_clean_linker_0, # of connection points: 2
#     Edge 55, Type (0, 0), BuildingBlock: ZUJKAS_clean_linker_0, # of connection points: 2
#     Edge 56, Type (0, 0), BuildingBlock: ZUJKAS_clean_linker_0, # of connection points: 2
#     Edge 57, Type (0, 0), BuildingBlock: ZUJKAS_clean_linker_0, # of connection points: 2
#     Edge 58, Type (0, 0), BuildingBlock: ZUJKAS_clean_linker_0, # of connection points: 2
#     Edge 59, Type (0, 0), BuildingBlock: ZUJKAS_clean_linker_0, # of connection points: 2
#     Edge 60, Type (0, 0), BuildingBlock: ZUJKAS_clean_linker_0, # of connection points: 2
#     Edge 61, Type (0, 0), BuildingBlock: ZUJKAS_clean_linker_0, # of connection points: 2
#     Edge 62, Type (0, 0), BuildingBlock: ZUJKAS_clean_linker_0, # of connection points: 2
#     Edge 63, Type (0, 0), BuildingBlock: ZUJKAS_clean_linker_0, # of connection points: 2
#     Edge 64, Type (0, 0), BuildingBlock: ZUJKAS_clean_linker_0, # of connection points: 2
#     Edge 65, Type (0, 0), BuildingBlock: ZUJKAS_clean_linker_0, # of connection points: 2
#     Edge 66, Type (0, 0), BuildingBlock: ZUJKAS_clean_linker_0, # of connection points: 2
#     Edge 67, Type (0, 0), BuildingBlock: ZUJKAS_clean_linker_0, # of connection points: 2
#     Edge 68, Type (0, 0), BuildingBlock: ZUJKAS_clean_linker_0, # of connection points: 2
#     Edge 69, Type (0, 0), BuildingBlock: ZUJKAS_clean_linker_0, # of connection points: 2
#     Edge 70, Type (0, 0), BuildingBlock: ZUJKAS_clean_linker_0, # of connection points: 2
#     Edge 71, Type (0, 0), BuildingBlock: ZUJKAS_clean_linker_0, # of connection points: 2
#     Edge 72, Type (0, 0), BuildingBlock: ZUJKAS_clean_linker_0, # of connection points: 2
#     Edge 73, Type (0, 0), BuildingBlock: ZUJKAS_clean_linker_0, # of connection points: 2
#     Edge 74, Type (0, 0), BuildingBlock: ZUJKAS_clean_linker_0, # of connection points: 2
#     Edge 75, Type (0, 0), BuildingBlock: ZUJKAS_clean_linker_0, # of connection points: 2
#     Edge 76, Type (0, 0), BuildingBlock: ZUJKAS_clean_linker_0, # of connection points: 2
#     Edge 77, Type (0, 0), BuildingBlock: ZUJKAS_clean_linker_0, # of connection points: 2
#     Edge 78, Type (0, 0), BuildingBlock: ZUJKAS_clean_linker_0, # of connection points: 2
#     Edge 79, Type (0, 0), BuildingBlock: ZUJKAS_clean_linker_0, # of connection points: 2
#     Edge 80, Type (0, 0), BuildingBlock: ZUJKAS_clean_linker_0, # of connection points: 2
#     Edge 81, Type (0, 0), BuildingBlock: ZUJKAS_clean_linker_0, # of connection points: 2
#     Edge 82, Type (0, 0), BuildingBlock: ZUJKAS_clean_linker_0, # of connection points: 2
#     Edge 83, Type (0, 0), BuildingBlock: ZUJKAS_clean_linker_0, # of connection points: 2
#     Edge 84, Type (0, 0), BuildingBlock: ZUJKAS_clean_linker_0, # of connection points: 2
#     Edge 85, Type (0, 0), BuildingBlock: ZUJKAS_clean_linker_0, # of connection points: 2
#     Edge 86, Type (0, 0), BuildingBlock: ZUJKAS_clean_linker_0, # of connection points: 2
#     Edge 87, Type (0, 0), BuildingBlock: ZUJKAS_clean_linker_0, # of connection points: 2
#     Edge 88, Type (0, 0), BuildingBlock: ZUJKAS_clean_linker_0, # of connection points: 2
#     Edge 89, Type (0, 0), BuildingBlock: ZUJKAS_clean_linker_0, # of connection points: 2
#     Edge 90, Type (0, 0), BuildingBlock: ZUJKAS_clean_linker_0, # of connection points: 2
#     Edge 91, Type (0, 0), BuildingBlock: ZUJKAS_clean_linker_0, # of connection points: 2
#     Edge 92, Type (0, 0), BuildingBlock: ZUJKAS_clean_linker_0, # of connection points: 2
#     Edge 93, Type (0, 0), BuildingBlock: ZUJKAS_clean_linker_0, # of connection points: 2
#     Edge 94, Type (0, 0), BuildingBlock: ZUJKAS_clean_linker_0, # of connection points: 2
#     Edge 95, Type (0, 0), BuildingBlock: ZUJKAS_clean_linker_0, # of connection points: 2
# Relax obj value: 0.095
# Max RMSD: 0.078
# Mean RMSD: 0.069
data_MOF--net-pem--node1-TATPOV_clean_sbu_0--edge1-ZUJKAS_clean_linker_0
_symmetry_space_group_name_H-M    P1
_symmetry_Int_Tables_number       1
_symmetry_cell_setting            triclinic
loop_
_symmetry_equiv_pos_as_xyz
'x, y, z'
_cell_length_a     54.308306
_cell_length_b     55.3968
_cell_length_c     55.561341
_cell_angle_alpha  90.781405
_cell_angle_beta   90.478857
_cell_angle_gamma 90.821365
loop_
_atom_site_label
_atom_site_type_symbol
_atom_site_fract_x
_atom_site_fract_y
_atom_site_fract_z
_atom_type_partial_charge
Zn0 Zn 0.0338 0.06095 0.13003 0.0
Zn1 Zn 0.07853 0.08475 0.12533 0.0
O2 O 0.05495 0.11214 0.13509 0.0
O3 O 0.01852 0.09398 0.13497 0.0
O4 O 0.10953 0.10099 0.11313 0.0
O5 O 0.0511 0.04277 0.15683 0.0
O6 O 0.08765 0.05946 0.15048 0.0
C7 C 0.03156 0.11307 0.13694 0.0
C8 C 0.05416 0.05464 0.08405 0.0
O9 O 0.07002 0.06856 0.09391 0.0
O10 O 0.03572 0.04737 0.09587 0.0
C11 C 0.10515 0.1136 0.09458 0.0
O12 O 0.08215 0.11709 0.0882 0.0
C13 C 0.07405 0.04411 0.16125 0.0
Zn14 Zn 0.19907 0.85029 0.35037 0.0
Zn15 Zn 0.15931 0.82798 0.36104 0.0
O16 O 0.17423 0.84247 0.39317 0.0
O17 O 0.20072 0.86997 0.38097 0.0
O18 O 0.12798 0.80896 0.36928 0.0
O19 O 0.18561 0.86305 0.31973 0.0
O20 O 0.14935 0.85031 0.33204 0.0
C21 C 0.1897 0.85953 0.39795 0.0
C22 C 0.20443 0.79957 0.34786 0.0
O23 O 0.18118 0.8003 0.35029 0.0
O24 O 0.21714 0.81889 0.34896 0.0
C25 C 0.12212 0.80102 0.38992 0.0
O26 O 0.1358 0.80701 0.40873 0.0
C27 C 0.16259 0.86131 0.31655 0.0
Zn28 Zn 0.45716 0.94372 0.61625 0.0
Zn29 Zn 0.41397 0.92425 0.60243 0.0
O30 O 0.43433 0.8947 0.614 0.0
O31 O 0.47092 0.91098 0.6217 0.0
O32 O 0.38149 0.91089 0.58891 0.0
O33 O 0.44045 0.96224 0.64251 0.0
O34 O 0.40431 0.94957 0.62856 0.0
C35 C 0.45694 0.89257 0.62016 0.0
C36 C 0.44539 0.95437 0.56777 0.0
O37 O 0.42703 0.94063 0.57208 0.0
O38 O 0.46112 0.95912 0.58414 0.0
C39 C 0.37964 0.89137 0.57658 0.0
O40 O 0.39892 0.87745 0.57465 0.0
C41 C 0.41717 0.9628 0.64304 0.0
Zn42 Zn 0.27618 0.13624 0.84732 0.0
Zn43 Zn 0.31831 0.15081 0.86845 0.0
O44 O 0.29289 0.14639 0.89633 0.0
O45 O 0.25885 0.13265 0.87865 0.0
O46 O 0.35066 0.16085 0.88475 0.0
O47 O 0.29189 0.10792 0.83114 0.0
O48 O 0.32725 0.12267 0.845 0.0
C49 C 0.27049 0.13909 0.8975 0.0
C50 C 0.29439 0.18349 0.83253 0.0
O51 O 0.31154 0.17975 0.84765 0.0
O52 O 0.27706 0.16811 0.8296 0.0
C53 C 0.35214 0.18173 0.89459 0.0
O54 O 0.33226 0.19495 0.89543 0.0
C55 C 0.31516 0.10757 0.83174 0.0
Zn56 Zn 0.06901 0.89243 0.35376 0.0
Zn57 Zn 0.0936 0.88295 0.39282 0.0
O58 O 0.07714 0.85021 0.38113 0.0
O59 O 0.05956 0.85827 0.34637 0.0
O60 O 0.11541 0.875 0.42166 0.0
O61 O 0.09666 0.90941 0.3381 0.0
O62 O 0.1169 0.90476 0.37214 0.0
C63 C 0.06435 0.8434 0.36274 0.0
C64 C 0.04995 0.91571 0.39611 0.0
O65 O 0.06707 0.90445 0.40673 0.0
O66 O 0.04681 0.91353 0.37357 0.0
C67 C 0.12183 0.89271 0.43529 0.0
O68 O 0.11388 0.91433 0.43008 0.0
C69 C 0.11546 0.91359 0.3511 0.0
Zn70 Zn 0.38905 0.82815 0.66237 0.0
Zn71 Zn 0.35756 0.84528 0.63044 0.0
O72 O 0.36963 0.87606 0.64999 0.0
O73 O 0.39689 0.86115 0.67505 0.0
O74 O 0.33053 0.85609 0.6076 0.0
O75 O 0.40789 0.81249 0.63607 0.0
O76 O 0.382 0.82577 0.60872 0.0
C77 C 0.38506 0.87901 0.66735 0.0
C78 C 0.34137 0.80936 0.66942 0.0
O79 O 0.33722 0.82248 0.65124 0.0
O80 O 0.36278 0.80862 0.67849 0.0
C81 C 0.31703 0.87452 0.61038 0.0
O82 O 0.32182 0.88984 0.62811 0.0
C83 C 0.40107 0.81378 0.61436 0.0
Zn84 Zn 0.35266 0.068 0.89812 0.0
Zn85 Zn 0.39305 0.0888 0.89569 0.0
O86 O 0.38532 0.07372 0.86113 0.0
O87 O 0.34883 0.05662 0.86474 0.0
O88 O 0.42303 0.11112 0.89073 0.0
O89 O 0.33232 0.094 0.91161 0.0
O90 O 0.3694 0.10875 0.91852 0.0
C91 C 0.36771 0.06071 0.85227 0.0
C92 C 0.39094 0.04456 0.92499 0.0
O93 O 0.40466 0.06073 0.9157 0.0
O94 O 0.36792 0.04447 0.92114 0.0
C95 C 0.44064 0.11284 0.90599 0.0
O96 O 0.43954 0.09987 0.92558 0.0
C97 C 0.34624 0.10894 0.92265 0.0
Zn98 Zn 0.11547 0.14434 0.17766 0.0
Zn99 Zn 0.15466 0.13458 0.15205 0.0
O100 O 0.14624 0.10124 0.16797 0.0
O101 O 0.11443 0.11092 0.1902 0.0
O102 O 0.18403 0.12892 0.12972 0.0
O103 O 0.09509 0.15405 0.14971 0.0
O104 O 0.13005 0.15365 0.13006 0.0
C105 C 0.13013 0.09557 0.18369 0.0
C106 C 0.15803 0.17006 0.19403 0.0
O107 O 0.16816 0.15677 0.17825 0.0
O108 O 0.13488 0.16983 0.19651 0.0
C109 C 0.20615 0.13591 0.13416 0.0
O110 O 0.21138 0.14644 0.15493 0.0
C111 C 0.10729 0.15909 0.13118 0.0
Zn112 Zn 0.56864 0.38087 0.8787 0.0
Zn113 Zn 0.60009 0.37272 0.90806 0.0
O114 O 0.58054 0.339 0.90379 0.0
O115 O 0.54938 0.35125 0.88184 0.0
O116 O 0.62887 0.36812 0.93186 0.0
O117 O 0.58849 0.38434 0.84974 0.0
O118 O 0.61583 0.39137 0.87826 0.0
C119 C 0.55973 0.3347 0.89334 0.0
C120 C 0.56419 0.41196 0.91817 0.0
O121 O 0.57892 0.39664 0.9269 0.0
O122 O 0.55818 0.4108 0.89616 0.0
C123 C 0.62825 0.35365 0.9495 0.0
O124 O 0.60901 0.33925 0.95183 0.0
C125 C 0.60904 0.39318 0.85621 0.0
Zn126 Zn 0.8983 0.36202 0.19404 0.0
Zn127 Zn 0.86388 0.36282 0.16111 0.0
O128 O 0.86548 0.39697 0.17846 0.0
O129 O 0.89887 0.3969 0.20114 0.0
O130 O 0.83698 0.36582 0.13497 0.0
O131 O 0.92298 0.34749 0.17262 0.0
O132 O 0.8939 0.34569 0.1448 0.0
C133 C 0.8802 0.40773 0.19334 0.0
C134 C 0.85635 0.33242 0.20513 0.0
O135 O 0.84918 0.33908 0.18445 0.0
O136 O 0.87642 0.34035 0.21412 0.0
C137 C 0.82266 0.34797 0.1299 0.0
O138 O 0.82627 0.32737 0.14073 0.0
C139 C 0.91573 0.34079 0.1519 0.0
Zn140 Zn 0.84801 0.56716 0.4381 0.0
Zn141 Zn 0.87781 0.60329 0.42699 0.0
O142 O 0.86569 0.58828 0.39395 0.0
O143 O 0.83672 0.56217 0.40418 0.0
O144 O 0.90307 0.63016 0.42017 0.0
O145 O 0.83042 0.58749 0.46178 0.0
O146 O 0.85287 0.61903 0.45131 0.0
C147 C 0.84927 0.57238 0.38808 0.0
C148 C 0.89734 0.55778 0.45094 0.0
O149 O 0.90026 0.57926 0.44351 0.0
O150 O 0.87631 0.54768 0.44996 0.0
C151 C 0.91638 0.63193 0.40147 0.0
O152 O 0.91264 0.61677 0.38338 0.0
C153 C 0.83603 0.6096 0.46427 0.0
Zn154 Zn 0.79326 0.60676 0.33546 0.0
Zn155 Zn 0.83016 0.63449 0.35097 0.0
O156 O 0.81478 0.62054 0.38238 0.0
O157 O 0.78722 0.59411 0.36863 0.0
O158 O 0.85879 0.65614 0.36164 0.0
O159 O 0.81464 0.5905 0.31124 0.0
O160 O 0.84617 0.61206 0.32498 0.0
C161 C 0.79815 0.60451 0.3862 0.0
C162 C 0.78579 0.65654 0.32591 0.0
O163 O 0.8071 0.65869 0.33546 0.0
O164 O 0.77524 0.63605 0.32443 0.0
C165 C 0.86863 0.66803 0.34471 0.0
O166 O 0.85992 0.66492 0.32273 0.0
C167 C 0.83715 0.59651 0.31006 0.0
Zn168 Zn 0.70833 0.34633 0.8486 0.0
Zn169 Zn 0.66586 0.327 0.85775 0.0
O170 O 0.67923 0.34031 0.89118 0.0
O171 O 0.71223 0.36114 0.88082 0.0
O172 O 0.63331 0.3094 0.86494 0.0
O173 O 0.69599 0.36598 0.82202 0.0
O174 O 0.65881 0.35151 0.82953 0.0
C175 C 0.69758 0.35403 0.89685 0.0
C176 C 0.709 0.29592 0.8418 0.0
O177 O 0.68628 0.29831 0.84655 0.0
O178 O 0.72324 0.31418 0.84202 0.0
C179 C 0.63377 0.29348 0.88131 0.0
O180 O 0.65422 0.29094 0.89378 0.0
C181 C 0.67321 0.3651 0.81732 0.0
Zn182 Zn 0.8974 0.95597 0.90563 0.0
Zn183 Zn 0.92249 0.91661 0.89887 0.0
O184 O 0.89428 0.90479 0.92118 0.0
O185 O 0.87909 0.93972 0.9326 0.0
O186 O 0.94351 0.8876 0.8917 0.0
O187 O 0.88522 0.95649 0.87139 0.0
O188 O 0.91563 0.9314 0.8657 0.0
C189 C 0.87996 0.91701 0.93461 0.0
C190 C 0.94864 0.9615 0.91621 0.0
O191 O 0.94764 0.93861 0.9153 0.0
O192 O 0.9298 0.97376 0.91143 0.0
C193 C 0.9595 0.88158 0.90732 0.0
O194 O 0.95992 0.89267 0.92837 0.0
C195 C 0.90037 0.94651 0.85736 0.0
Zn196 Zn 0.8396 0.10617 0.65226 0.0
Zn197 Zn 0.86377 0.14475 0.64843 0.0
O198 O 0.8898 0.12041 0.66246 0.0
O199 O 0.86767 0.08703 0.6631 0.0
O200 O 0.88396 0.17393 0.63819 0.0
O201 O 0.82525 0.10271 0.6195 0.0
O202 O 0.84119 0.13922 0.61766 0.0
C203 C 0.88777 0.098 0.66736 0.0
C204 C 0.82466 0.14316 0.68576 0.0
O205 O 0.84205 0.15538 0.67629 0.0
O206 O 0.8196 0.12202 0.67809 0.0
C207 C 0.89023 0.19197 0.65138 0.0
O208 O 0.88404 0.19228 0.67419 0.0
C209 C 0.82756 0.1224 0.60854 0.0
Zn210 Zn 0.63341 0.05775 0.40003 0.0
Zn211 Zn 0.61108 0.09715 0.38739 0.0
O212 O 0.63458 0.10964 0.41569 0.0
O213 O 0.65063 0.07528 0.42678 0.0
O214 O 0.59134 0.12628 0.37691 0.0
O215 O 0.64952 0.05303 0.36815 0.0
O216 O 0.62582 0.08238 0.35572 0.0
C217 C 0.64841 0.0978 0.42993 0.0
C218 C 0.58156 0.05328 0.40468 0.0
O219 O 0.58294 0.0753 0.39858 0.0
O220 O 0.60093 0.04094 0.40629 0.0
C221 C 0.57515 0.13446 0.39124 0.0
O222 O 0.57333 0.12514 0.41278 0.0
C223 C 0.64096 0.06545 0.3512 0.0
Zn224 Zn 0.61982 0.84825 0.16471 0.0
Zn225 Zn 0.65308 0.84966 0.13314 0.0
O226 O 0.62447 0.83031 0.11486 0.0
O227 O 0.59967 0.82461 0.14545 0.0
O228 O 0.68106 0.85431 0.10942 0.0
O229 O 0.61316 0.88352 0.16613 0.0
O230 O 0.64866 0.88464 0.14761 0.0
C231 C 0.60525 0.82039 0.12378 0.0
C232 C 0.66391 0.82686 0.18086 0.0
O233 O 0.66939 0.82884 0.15873 0.0
O234 O 0.64405 0.8355 0.18871 0.0
C235 C 0.6866 0.84057 0.09178 0.0
O236 O 0.67255 0.82168 0.08661 0.0
C237 C 0.63187 0.89538 0.15947 0.0
Zn238 Zn 0.93283 0.08528 0.60508 0.0
Zn239 Zn 0.89584 0.10164 0.58306 0.0
O240 O 0.8789 0.07605 0.60509 0.0
O241 O 0.91233 0.05697 0.61576 0.0
O242 O 0.86802 0.11434 0.56225 0.0
O243 O 0.93862 0.11503 0.62551 0.0
O244 O 0.91511 0.13164 0.59808 0.0
C245 C 0.88908 0.05786 0.61468 0.0
C246 C 0.93887 0.08013 0.55593 0.0
O247 O 0.91618 0.08523 0.55703 0.0
O248 O 0.95228 0.08152 0.57461 0.0
C249 C 0.85788 0.09826 0.54871 0.0
O250 O 0.86477 0.07575 0.55091 0.0
C251 C 0.93063 0.13375 0.61549 0.0
Zn252 Zn 0.60525 0.20294 0.3193 0.0
Zn253 Zn 0.63051 0.17955 0.35339 0.0
O254 O 0.60612 0.19996 0.37445 0.0
O255 O 0.58759 0.21982 0.34552 0.0
O256 O 0.65326 0.16214 0.37634 0.0
O257 O 0.59371 0.17139 0.30443 0.0
O258 O 0.61699 0.15252 0.33065 0.0
C259 C 0.59098 0.21604 0.36769 0.0
C260 C 0.65564 0.2148 0.31842 0.0
O261 O 0.65587 0.20023 0.33589 0.0
O262 O 0.63579 0.21931 0.30744 0.0
C263 C 0.66937 0.1752 0.38726 0.0
O264 O 0.66822 0.19878 0.38531 0.0
C265 C 0.6028 0.15206 0.31221 0.0
Zn266 Zn 0.61126 0.97026 0.07541 0.0
Zn267 Zn 0.60062 0.92784 0.09513 0.0
O268 O 0.63018 0.91889 0.07249 0.0
O269 O 0.63515 0.95357 0.05397 0.0
O270 O 0.58791 0.89758 0.11181 0.0
O271 O 0.62133 0.98531 0.107 0.0
O272 O 0.60576 0.95247 0.12329 0.0
C273 C 0.64061 0.93159 0.05627 0.0
C274 C 0.56208 0.95496 0.06615 0.0
O275 O 0.5698 0.9361 0.0763 0.0
O276 O 0.57604 0.97332 0.06436 0.0
C277 C 0.57404 0.88316 0.09964 0.0
O278 O 0.57209 0.88617 0.07629 0.0
C279 C 0.61448 0.97391 0.12538 0.0
Zn280 Zn 0.88357 0.8555 0.80692 0.0
Zn281 Zn 0.85654 0.8677 0.84255 0.0
O282 O 0.88499 0.8475 0.85865 0.0
O283 O 0.90602 0.83607 0.82686 0.0
O284 O 0.83425 0.87806 0.87016 0.0
O285 O 0.89119 0.88888 0.79616 0.0
O286 O 0.86203 0.89884 0.82147 0.0
C287 C 0.90225 0.83514 0.84924 0.0
C288 C 0.83549 0.83503 0.80323 0.0
O289 O 0.83359 0.8449 0.82392 0.0
O290 O 0.85505 0.83769 0.79128 0.0
C291 C 0.8261 0.86212 0.88451 0.0
O292 O 0.83365 0.8398 0.88204 0.0
C293 C 0.87632 0.90436 0.80409 0.0
Zn294 Zn 0.41964 0.60108 0.10465 0.0
Zn295 Zn 0.38478 0.60711 0.07625 0.0
O296 O 0.36762 0.58719 0.10366 0.0
O297 O 0.40106 0.57636 0.12299 0.0
O298 O 0.35726 0.61316 0.05202 0.0
O299 O 0.42363 0.6352 0.11569 0.0
O300 O 0.40231 0.64113 0.08264 0.0
C301 C 0.37809 0.57439 0.11961 0.0
C302 C 0.43069 0.58171 0.05967 0.0
O303 O 0.40777 0.58536 0.05689 0.0
O304 O 0.44176 0.58932 0.07844 0.0
C305 C 0.34946 0.59597 0.03835 0.0
O306 O 0.35893 0.57444 0.04071 0.0
C307 C 0.41658 0.64932 0.09942 0.0
Zn308 Zn 0.09946 0.65236 0.78375 0.0
Zn309 Zn 0.13078 0.64152 0.8184 0.0
O310 O 0.10741 0.66651 0.83436 0.0
O311 O 0.08102 0.67449 0.80543 0.0
O312 O 0.15428 0.63167 0.84507 0.0
O313 O 0.08894 0.61815 0.77726 0.0
O314 O 0.11845 0.60894 0.80278 0.0
C315 C 0.08907 0.67837 0.82658 0.0
C316 C 0.14953 0.66758 0.77465 0.0
O317 O 0.15343 0.65887 0.79538 0.0
O318 O 0.12815 0.66654 0.76534 0.0
C319 C 0.16044 0.64581 0.86242 0.0
O320 O 0.15085 0.66742 0.86355 0.0
C321 C 0.10212 0.60244 0.78719 0.0
Zn322 Zn 0.14852 0.42287 0.56525 0.0
Zn323 Zn 0.11978 0.38478 0.5707 0.0
O324 O 0.14919 0.3695 0.55148 0.0
O325 O 0.17104 0.40273 0.54599 0.0
O326 O 0.09531 0.35815 0.57898 0.0
O327 O 0.15325 0.42958 0.60043 0.0
O328 O 0.12438 0.40167 0.60406 0.0
C329 C 0.16759 0.3804 0.54206 0.0
C330 C 0.10205 0.42782 0.54207 0.0
O331 O 0.09927 0.40622 0.54915 0.0
O332 O 0.12147 0.43968 0.54741 0.0
C333 C 0.07856 0.35109 0.56425 0.0
O334 O 0.07894 0.35902 0.54208 0.0
C335 C 0.13796 0.41837 0.61333 0.0
Zn336 Zn 0.13311 0.34219 0.72062 0.0
Zn337 Zn 0.1476 0.35957 0.68059 0.0
O338 O 0.1193 0.33425 0.67013 0.0
O339 O 0.10946 0.31914 0.7052 0.0
O340 O 0.16204 0.37285 0.64952 0.0
O341 O 0.12218 0.37358 0.73395 0.0
O342 O 0.13859 0.39013 0.70193 0.0
C343 C 0.10659 0.31934 0.68261 0.0
C344 C 0.18382 0.33479 0.71442 0.0
O345 O 0.17899 0.34429 0.69424 0.0
O346 O 0.16688 0.33174 0.72959 0.0
C347 C 0.17198 0.35791 0.63504 0.0
O348 O 0.17003 0.33473 0.63951 0.0
C349 C 0.12855 0.39225 0.72264 0.0
Zn350 Zn 0.35163 0.61758 0.16615 0.0
Zn351 Zn 0.3791 0.65462 0.16866 0.0
O352 O 0.40148 0.62597 0.18018 0.0
O353 O 0.37803 0.59425 0.17231 0.0
O354 O 0.40199 0.68362 0.16585 0.0
O355 O 0.33796 0.62276 0.13354 0.0
O356 O 0.36006 0.65615 0.13538 0.0
C357 C 0.39811 0.60307 0.18016 0.0
C358 C 0.33833 0.64992 0.20451 0.0
O359 O 0.35591 0.66273 0.19622 0.0
O360 O 0.33284 0.62973 0.19479 0.0
C361 C 0.41244 0.6954 0.18299 0.0
O362 O 0.40932 0.68834 0.20524 0.0
C363 C 0.34443 0.64249 0.12428 0.0
Zn364 Zn 0.55133 0.5604 0.62494 0.0
Zn365 Zn 0.59392 0.57936 0.61106 0.0
O366 O 0.57214 0.61015 0.61513 0.0
O367 O 0.53689 0.5936 0.62593 0.0
O368 O 0.62697 0.58981 0.59808 0.0
O369 O 0.56654 0.54496 0.65373 0.0
O370 O 0.60244 0.55671 0.63956 0.0
C371 C 0.54937 0.61219 0.62045 0.0
C372 C 0.56528 0.54474 0.57796 0.0
O373 O 0.58275 0.55969 0.58206 0.0
O374 O 0.5492 0.54086 0.59388 0.0
C375 C 0.62672 0.60101 0.57826 0.0
O376 O 0.60559 0.60879 0.56993 0.0
C377 C 0.58982 0.54456 0.65459 0.0
Zn378 Zn 0.97334 0.41999 0.09921 0.0
Zn379 Zn 0.92821 0.40359 0.09132 0.0
O380 O 0.95022 0.37252 0.09212 0.0
O381 O 0.98695 0.38704 0.10176 0.0
O382 O 0.89407 0.39083 0.08155 0.0
O383 O 0.96144 0.43841 0.1282 0.0
O384 O 0.92378 0.42388 0.12294 0.0
C385 C 0.97301 0.36916 0.09678 0.0
C386 C 0.95405 0.43812 0.0561 0.0
O387 O 0.93501 0.42716 0.06377 0.0
O388 O 0.97429 0.43672 0.06738 0.0
C389 C 0.89089 0.3867 0.05912 0.0
O390 O 0.90964 0.38923 0.04455 0.0
C391 C 0.93913 0.43741 0.13461 0.0
Zn392 Zn 0.59711 0.65343 0.71466 0.0
Zn393 Zn 0.62406 0.64274 0.67694 0.0
O394 O 0.61992 0.60873 0.69343 0.0
O395 O 0.59743 0.61935 0.72456 0.0
O396 O 0.6449 0.63993 0.64671 0.0
O397 O 0.56945 0.66672 0.69562 0.0
O398 O 0.59395 0.66217 0.66462 0.0
C399 C 0.60895 0.60331 0.71303 0.0
C400 C 0.64379 0.67683 0.71638 0.0
O401 O 0.64652 0.66456 0.69711 0.0
O402 O 0.62361 0.67591 0.72758 0.0
C403 C 0.66512 0.62871 0.64543 0.0
O404 O 0.67199 0.61532 0.66356 0.0
C405 C 0.57406 0.67014 0.67367 0.0
Zn406 Zn 0.36204 0.45619 0.41108 0.0
Zn407 Zn 0.37935 0.41338 0.40892 0.0
O408 O 0.34926 0.40965 0.43209 0.0
O409 O 0.33978 0.44765 0.43841 0.0
O410 O 0.39477 0.38031 0.40549 0.0
O411 O 0.3506 0.45687 0.37672 0.0
O412 O 0.37714 0.42746 0.3741 0.0
C413 C 0.33689 0.42558 0.44342 0.0
C414 C 0.41302 0.45346 0.42424 0.0
O415 O 0.40784 0.43107 0.42513 0.0
O416 O 0.39702 0.46827 0.41725 0.0
C417 C 0.39755 0.36669 0.42358 0.0
O418 O 0.38714 0.37266 0.44403 0.0
C419 C 0.36478 0.4441 0.36406 0.0
Zn420 Zn 0.12472 0.58778 0.95271 0.0
Zn421 Zn 0.11144 0.62579 0.92816 0.0
O422 O 0.14185 0.63955 0.94807 0.0
O423 O 0.15452 0.60598 0.96459 0.0
O424 O 0.0937 0.65411 0.91325 0.0
O425 O 0.12502 0.56898 0.92141 0.0
O426 O 0.11991 0.60196 0.9002 0.0
C427 C 0.1574 0.62837 0.96109 0.0
C428 C 0.0772 0.59902 0.9644 0.0
O429 O 0.08172 0.61337 0.94728 0.0
O430 O 0.09423 0.58621 0.97279 0.0
C431 C 0.08366 0.6683 0.9284 0.0
O432 O 0.08911 0.66603 0.95134 0.0
C433 C 0.12343 0.57923 0.90124 0.0
Zn434 Zn 0.39051 0.35108 0.28033 0.0
Zn435 Zn 0.37209 0.35778 0.32336 0.0
O436 O 0.40452 0.33897 0.3297 0.0
O437 O 0.41779 0.33112 0.29315 0.0
O438 O 0.35606 0.36182 0.35608 0.0
O439 O 0.39428 0.38631 0.27467 0.0
O440 O 0.37159 0.39167 0.30691 0.0
C441 C 0.41976 0.32861 0.31567 0.0
C442 C 0.34323 0.32924 0.28552 0.0
O443 O 0.34665 0.3359 0.30726 0.0
O444 O 0.35884 0.33459 0.2696 0.0
C445 C 0.35225 0.34268 0.36806 0.0
O446 O 0.3612 0.32226 0.35989 0.0
C447 C 0.38167 0.4 0.28797 0.0
H448 H 0.08682 0.07401 0.05232 0.0
H449 H 0.08975 0.06514 0.00915 0.0
H450 H 0.03226 0.01112 0.01529 0.0
H451 H 0.02887 0.01999 0.0583 0.0
H452 H 0.08415 0.00425 0.98192 0.0
H453 H 0.02117 0.08072 0.96663 0.0
H454 H 0.04689 0.08248 0.9875 0.0
H455 H 0.01907 0.06682 0.99568 0.0
C456 C 0.07502 0.05998 0.04454 0.0
C457 C 0.05734 0.04783 0.0586 0.0
C458 C 0.07691 0.05489 0.01996 0.0
C459 C 0.06137 0.03743 0.00933 0.0
C460 C 0.04455 0.02453 0.02346 0.0
H461 H 0.98431 0.94711 0.94685 0.0
H462 H 0.02205 0.96874 0.95766 0.0
C463 C 0.04246 0.02974 0.04792 0.0
C464 C 0.05957 0.0344 0.98313 0.0
H465 H 0.01377 0.04484 0.94315 0.0
C466 C 0.06957 0.01366 0.97266 0.0
C467 C 0.04153 0.04738 0.97059 0.0
C468 C 0.03162 0.07075 0.9805 0.0
C469 C 0.05868 0.00323 0.952 0.0
C470 C 0.03668 0.0132 0.94292 0.0
C471 C 0.03005 0.03649 0.95055 0.0
C472 C 0.01698 0.99767 0.93209 0.0
C473 C 0.06938 0.98043 0.94164 0.0
C474 C 0.00099 0.00678 0.91451 0.0
C475 C 0.97862 0.99502 0.90939 0.0
C476 C 0.97225 0.97366 0.92128 0.0
C477 C 0.98886 0.96366 0.93759 0.0
C478 C 0.01079 0.97578 0.94329 0.0
H479 H 0.08966 0.98259 0.93999 0.0
H480 H 0.06602 0.96526 0.9541 0.0
H481 H 0.06142 0.97578 0.92367 0.0
H482 H 0.0052 0.02363 0.90567 0.0
H483 H 0.96621 0.00271 0.89628 0.0
H484 H 0.30001 0.62669 0.22624 0.0
H485 H 0.27484 0.64169 0.25932 0.0
H486 H 0.31901 0.70695 0.26309 0.0
H487 H 0.34445 0.69215 0.23006 0.0
H488 H 0.30483 0.6831 0.31012 0.0
H489 H 0.22752 0.69997 0.24593 0.0
H490 H 0.24135 0.67063 0.24598 0.0
H491 H 0.25868 0.6962 0.23565 0.0
C492 C 0.30452 0.64419 0.2342 0.0
C493 C 0.32404 0.65842 0.22534 0.0
C494 C 0.29015 0.65262 0.25312 0.0
C495 C 0.29509 0.67538 0.26342 0.0
C496 C 0.31506 0.68926 0.25529 0.0
H497 H 0.25345 0.7923 0.34198 0.0
H498 H 0.27311 0.75586 0.3276 0.0
C499 C 0.32945 0.68087 0.23635 0.0
C500 C 0.27834 0.68583 0.28127 0.0
H501 H 0.22437 0.71607 0.28477 0.0
C502 C 0.28699 0.68991 0.30482 0.0
C503 C 0.25496 0.69424 0.27428 0.0
C504 C 0.24495 0.69019 0.24909 0.0
C505 C 0.27342 0.70365 0.32124 0.0
C506 C 0.25108 0.71397 0.31354 0.0
C507 C 0.24154 0.70817 0.29061 0.0
C508 C 0.23966 0.73408 0.32686 0.0
C509 C 0.28358 0.70771 0.34633 0.0
C510 C 0.21423 0.73402 0.33119 0.0
C511 C 0.20278 0.75509 0.33905 0.0
C512 C 0.21661 0.77653 0.34251 0.0
C513 C 0.24224 0.77613 0.33938 0.0
C514 C 0.25361 0.75516 0.33148 0.0
H515 H 0.29395 0.69172 0.35239 0.0
H516 H 0.29664 0.72331 0.34632 0.0
H517 H 0.26875 0.7115 0.35943 0.0
H518 H 0.20312 0.71798 0.32747 0.0
H519 H 0.18301 0.75481 0.34146 0.0
H520 H 0.48015 0.98723 0.55475 0.0
H521 H 0.48581 0.00545 0.51577 0.0
H522 H 0.42305 0.96542 0.4874 0.0
H523 H 0.41723 0.94667 0.52686 0.0
H524 H 0.46388 0.9624 0.45834 0.0
H525 H 0.44849 0.05764 0.48104 0.0
H526 H 0.46774 0.04512 0.50389 0.0
H527 H 0.43684 0.03338 0.4994 0.0
C528 C 0.46735 0.98235 0.54038 0.0
C529 C 0.44824 0.96548 0.54393 0.0
C530 C 0.47043 0.99305 0.51813 0.0
C531 C 0.45442 0.98731 0.4989 0.0
C532 C 0.43531 0.97039 0.50219 0.0
H533 H 0.53569 0.07183 0.39701 0.0
H534 H 0.49619 0.05481 0.40996 0.0
C535 C 0.43211 0.95965 0.52466 0.0
C536 C 0.4599 0.99746 0.47507 0.0
H537 H 0.48345 0.04989 0.45338 0.0
C538 C 0.46733 0.98164 0.4567 0.0
C539 C 0.46342 0.02259 0.47234 0.0
C540 C 0.45337 0.04062 0.49016 0.0
C541 C 0.4817 0.99005 0.43763 0.0
C542 C 0.48929 0.0146 0.43758 0.0
C543 C 0.47841 0.03089 0.45374 0.0
C544 C 0.51193 0.02264 0.42512 0.0
C545 C 0.49 0.97224 0.41873 0.0
C546 C 0.5339 0.01016 0.42911 0.0
C547 C 0.55637 0.01972 0.42164 0.0
C548 C 0.55746 0.04227 0.41047 0.0
C549 C 0.53543 0.05447 0.40575 0.0
C550 C 0.51284 0.04471 0.41299 0.0
H551 H 0.47486 0.95922 0.41416 0.0
H552 H 0.49598 0.98135 0.40204 0.0
H553 H 0.50554 0.96166 0.42596 0.0
H554 H 0.53394 0.9936 0.43925 0.0
H555 H 0.57298 0.0099 0.42562 0.0
H556 H 0.25995 0.1979 0.80021 0.0
H557 H 0.2633 0.23047 0.77162 0.0
H558 H 0.33569 0.24918 0.7992 0.0
H559 H 0.33235 0.21648 0.82844 0.0
H560 H 0.30797 0.28855 0.7938 0.0
H561 H 0.30095 0.23641 0.70972 0.0
H562 H 0.27786 0.22473 0.72939 0.0
H563 H 0.30998 0.22272 0.73777 0.0
C564 C 0.27664 0.20884 0.80025 0.0
C565 C 0.29589 0.20453 0.81655 0.0
C566 C 0.27872 0.22725 0.78361 0.0
C567 C 0.30018 0.24163 0.78264 0.0
C568 C 0.31925 0.23789 0.79929 0.0
H569 H 0.22425 0.33138 0.68496 0.0
H570 H 0.26546 0.31732 0.69635 0.0
C571 C 0.31717 0.21938 0.8161 0.0
C572 C 0.30081 0.26199 0.76574 0.0
H573 H 0.27457 0.27364 0.71152 0.0
C574 C 0.30174 0.28551 0.77539 0.0
C575 C 0.2941 0.25845 0.74129 0.0
C576 C 0.29602 0.23417 0.72893 0.0
C577 C 0.29135 0.30461 0.76274 0.0
C578 C 0.27911 0.29958 0.74062 0.0
C579 C 0.28297 0.27735 0.72898 0.0
C580 C 0.25662 0.31278 0.73396 0.0
C581 C 0.2909 0.32929 0.77444 0.0
C582 C 0.23802 0.31472 0.75122 0.0
C583 C 0.21467 0.3223 0.74479 0.0
C584 C 0.20919 0.32803 0.72084 0.0
C585 C 0.22797 0.32697 0.70356 0.0
C586 C 0.25152 0.31916 0.71006 0.0
H587 H 0.30902 0.33359 0.783 0.0
H588 H 0.28646 0.34352 0.76126 0.0
H589 H 0.27693 0.32945 0.78892 0.0
H590 H 0.24106 0.30903 0.76957 0.0
H591 H 0.20072 0.32308 0.75859 0.0
H592 H 0.03265 0.95788 0.37932 0.0
H593 H 0.01404 0.99041 0.40261 0.0
H594 H 0.01527 0.94596 0.46586 0.0
H595 H 0.03559 0.914 0.44293 0.0
H596 H 0.97431 0.99694 0.42535 0.0
H597 H 0.05032 0.00368 0.49175 0.0
H598 H 0.05211 0.98485 0.46515 0.0
H599 H 0.03704 0.97392 0.49179 0.0
C600 C 0.02879 0.95503 0.39818 0.0
C601 C 0.03569 0.93362 0.40949 0.0
C602 C 0.0182 0.97362 0.41146 0.0
C603 C 0.01393 0.97089 0.43614 0.0
C604 C 0.01932 0.94883 0.44707 0.0
H605 H 0.91582 0.04921 0.52494 0.0
H606 H 0.9346 0.02625 0.49242 0.0
C607 C 0.03063 0.9305 0.43395 0.0
C608 C 0.00412 0.99123 0.45046 0.0
H609 H 0.01251 0.02239 0.50313 0.0
C610 C 0.98285 0.00276 0.44221 0.0
C611 C 0.01575 0.99947 0.47198 0.0
C612 C 0.04022 0.99001 0.48049 0.0
C613 C 0.97225 0.02155 0.4555 0.0
C614 C 0.9825 0.02808 0.47821 0.0
C615 C 0.00438 0.01726 0.48588 0.0
C616 C 0.97009 0.04459 0.49524 0.0
C617 C 0.95036 0.03421 0.44487 0.0
C618 C 0.98379 0.06238 0.50797 0.0
C619 C 0.97336 0.07472 0.52732 0.0
C620 C 0.94888 0.06994 0.53371 0.0
C621 C 0.93468 0.05337 0.52006 0.0
C622 C 0.94534 0.04043 0.50128 0.0
H623 H 0.95154 0.03466 0.42492 0.0
H624 H 0.93327 0.02408 0.44936 0.0
H625 H 0.94892 0.05303 0.4518 0.0
H626 H 0.00291 0.06594 0.50365 0.0
H627 H 0.98457 0.08752 0.53765 0.0
H628 H 0.34352 0.78071 0.70893 0.0
H629 H 0.31065 0.75537 0.72516 0.0
H630 H 0.26135 0.77872 0.66913 0.0
H631 H 0.294 0.80445 0.65289 0.0
H632 H 0.24126 0.78012 0.71539 0.0
H633 H 0.28425 0.69176 0.69564 0.0
H634 H 0.3037 0.71254 0.71237 0.0
H635 H 0.29461 0.71951 0.68209 0.0
C636 C 0.32571 0.78046 0.70002 0.0
C637 C 0.32138 0.79449 0.67956 0.0
C638 C 0.30703 0.76585 0.70922 0.0
C639 C 0.28382 0.76489 0.69802 0.0
C640 C 0.27927 0.77914 0.67785 0.0
H641 H 0.14711 0.69006 0.73126 0.0
H642 H 0.17977 0.7131 0.71164 0.0
C643 C 0.29792 0.79381 0.66865 0.0
C644 C 0.26406 0.74951 0.7078 0.0
H645 H 0.24896 0.69117 0.72078 0.0
C646 C 0.2428 0.76065 0.71641 0.0
C647 C 0.2663 0.72416 0.70905 0.0
C648 C 0.28834 0.71122 0.6991 0.0
C649 C 0.22385 0.7471 0.72685 0.0
C650 C 0.22621 0.7218 0.72834 0.0
C651 C 0.24736 0.71062 0.71957 0.0
C652 C 0.20699 0.70671 0.73938 0.0
C653 C 0.20173 0.75997 0.73675 0.0
C654 C 0.21189 0.69498 0.76103 0.0
C655 C 0.19333 0.68176 0.77228 0.0
C656 C 0.16965 0.68001 0.76192 0.0
C657 C 0.16511 0.69116 0.73976 0.0
C658 C 0.18368 0.7044 0.72857 0.0
H659 H 0.20508 0.77975 0.73865 0.0
H660 H 0.18583 0.75701 0.72435 0.0
H661 H 0.19662 0.75272 0.75459 0.0
H662 H 0.2299 0.69653 0.7695 0.0
H663 H 0.19744 0.67329 0.78928 0.0
H664 H 0.43952 0.03471 0.93154 0.0
H665 H 0.45716 0.0045 0.95785 0.0
H666 H 0.38434 0.98178 0.97922 0.0
H667 H 0.3664 0.01201 0.95283 0.0
H668 H 0.41663 0.99379 0.01754 0.0
H669 H 0.46006 0.93014 0.95421 0.0
H670 H 0.46627 0.9608 0.94589 0.0
H671 H 0.43501 0.94944 0.94548 0.0
C672 C 0.42723 0.02314 0.94161 0.0
C673 C 0.40162 0.02577 0.94019 0.0
C674 C 0.4373 0.00569 0.9564 0.0
C675 C 0.42196 0.99062 0.96999 0.0
C676 C 0.39638 0.99302 0.96851 0.0
H677 H 0.53085 0.9166 0.05734 0.0
H678 H 0.48966 0.91771 0.03892 0.0
C679 C 0.38624 0.01035 0.95353 0.0
C680 C 0.43321 0.97473 0.98785 0.0
H681 H 0.48209 0.93739 0.99259 0.0
C682 C 0.43031 0.98071 0.01226 0.0
C683 C 0.45052 0.95722 0.98098 0.0
C684 C 0.45294 0.94883 0.95519 0.0
C685 C 0.4468 0.97221 0.02955 0.0
C686 C 0.46652 0.9577 0.022 0.0
C687 C 0.46715 0.9489 0.99823 0.0
C688 C 0.48937 0.95662 0.03629 0.0
C689 C 0.44437 0.98058 0.05533 0.0
C690 C 0.5027 0.97812 0.04063 0.0
C691 C 0.52621 0.97756 0.05066 0.0
C692 C 0.53678 0.95545 0.05657 0.0
C693 C 0.52311 0.93391 0.05291 0.0
C694 C 0.4996 0.93448 0.04256 0.0
H695 H 0.42476 0.98352 0.05993 0.0
H696 H 0.45228 0.96732 0.06796 0.0
H697 H 0.45438 0.99806 0.05786 0.0
H698 H 0.49531 0.99534 0.03532 0.0
H699 H 0.53624 0.99444 0.0534 0.0
H700 H 0.3167 0.29964 0.31445 0.0
H701 H 0.28227 0.273 0.3025 0.0
H702 H 0.285 0.30108 0.23046 0.0
H703 H 0.3202 0.32682 0.24197 0.0
H704 H 0.2369 0.27896 0.28463 0.0
H705 H 0.29398 0.23038 0.21807 0.0
H706 H 0.30695 0.25198 0.23933 0.0
H707 H 0.29252 0.26201 0.21198 0.0
C708 C 0.30987 0.30013 0.29608 0.0
C709 C 0.3213 0.31484 0.27895 0.0
C710 C 0.2902 0.28501 0.28933 0.0
C711 C 0.28156 0.2847 0.26547 0.0
C712 C 0.29196 0.30054 0.24876 0.0
H713 H 0.14913 0.21623 0.20831 0.0
H714 H 0.17813 0.24389 0.22901 0.0
C715 C 0.31197 0.31524 0.25535 0.0
C716 C 0.26253 0.26697 0.25774 0.0
H717 H 0.25095 0.22234 0.21638 0.0
C718 C 0.23995 0.2664 0.26984 0.0
C719 C 0.26687 0.25029 0.23882 0.0
C720 C 0.29149 0.24849 0.22649 0.0
C721 C 0.2213 0.24982 0.26313 0.0
C722 C 0.2252 0.23406 0.24334 0.0
C723 C 0.24793 0.23451 0.23151 0.0
C724 C 0.20618 0.21694 0.23415 0.0
C725 C 0.1979 0.24911 0.27758 0.0
C726 C 0.21239 0.19273 0.23004 0.0
C727 C 0.19633 0.17732 0.21745 0.0
C728 C 0.17356 0.18571 0.20934 0.0
C729 C 0.16661 0.20946 0.21464 0.0
C730 C 0.18304 0.22514 0.22664 0.0
H731 H 0.20111 0.25599 0.29624 0.0
H732 H 0.18408 0.26087 0.26901 0.0
H733 H 0.1901 0.23051 0.27844 0.0
H734 H 0.23013 0.18602 0.23572 0.0
H735 H 0.20188 0.15895 0.21367 0.0
H736 H 0.41272 0.54403 0.03278 0.0
H737 H 0.43655 0.51572 0.00848 0.0
H738 H 0.50233 0.55863 0.02211 0.0
H739 H 0.47884 0.58607 0.04764 0.0
H740 H 0.46209 0.51803 0.96974 0.0
H741 H 0.52536 0.49499 0.04427 0.0
H742 H 0.49854 0.51321 0.04886 0.0
H743 H 0.52668 0.5266 0.03793 0.0
C744 C 0.43223 0.54745 0.03039 0.0
C745 C 0.4441 0.56694 0.04223 0.0
C746 C 0.44583 0.53129 0.01659 0.0
C747 C 0.47136 0.53467 0.01412 0.0
C748 C 0.48286 0.55514 0.02458 0.0
H749 H 0.55402 0.45773 0.90564 0.0
H750 H 0.53272 0.48812 0.92961 0.0
C751 C 0.46941 0.57092 0.0389 0.0
C752 C 0.48594 0.51662 0.00085 0.0
H753 H 0.53658 0.48117 0.00511 0.0
C754 C 0.47829 0.50985 0.97752 0.0
C755 C 0.50674 0.50555 0.01126 0.0
C756 C 0.51464 0.51026 0.03705 0.0
C757 C 0.49102 0.49251 0.96417 0.0
C758 C 0.51271 0.48258 0.97402 0.0
C759 C 0.52018 0.48911 0.99746 0.0
C760 C 0.52768 0.46508 0.96043 0.0
C761 C 0.4806 0.4846 0.94 0.0
C762 C 0.53346 0.4427 0.97048 0.0
C763 C 0.54646 0.42566 0.95713 0.0
C764 C 0.55339 0.43069 0.93345 0.0
C765 C 0.54845 0.45339 0.92377 0.0
C766 C 0.5361 0.47062 0.93734 0.0
H767 H 0.46044 0.48762 0.9389 0.0
H768 H 0.48939 0.49539 0.92566 0.0
H769 H 0.484 0.46519 0.93632 0.0
H770 H 0.52735 0.43816 0.98839 0.0
H771 H 0.55012 0.40822 0.96489 0.0
H772 H 0.82989 0.29382 0.18847 0.0
H773 H 0.79956 0.27006 0.2107 0.0
H774 H 0.81548 0.3127 0.27475 0.0
H775 H 0.84711 0.33528 0.25295 0.0
H776 H 0.8055 0.2683 0.28666 0.0
H777 H 0.73396 0.29816 0.22243 0.0
H778 H 0.75717 0.28086 0.20772 0.0
H779 H 0.76516 0.30952 0.22166 0.0
C780 C 0.82713 0.29776 0.2074 0.0
C781 C 0.84043 0.31644 0.21905 0.0
C782 C 0.80974 0.28436 0.22002 0.0
C783 C 0.80467 0.29023 0.24411 0.0
C784 C 0.81897 0.30803 0.2561 0.0
H785 H 0.66185 0.26075 0.30367 0.0
H786 H 0.69962 0.27955 0.28878 0.0
C787 C 0.83695 0.32092 0.24368 0.0
C788 C 0.78344 0.27902 0.25632 0.0
H789 H 0.72173 0.26868 0.2505 0.0
C790 C 0.78712 0.26847 0.27887 0.0
C791 C 0.75941 0.27981 0.24635 0.0
C792 C 0.75362 0.29293 0.22336 0.0
C793 C 0.76738 0.25855 0.29171 0.0
C794 C 0.74358 0.25828 0.28114 0.0
C795 C 0.74 0.26878 0.25857 0.0
C796 C 0.72182 0.24763 0.29304 0.0
C797 C 0.7722 0.2492 0.31667 0.0
C798 C 0.72186 0.22362 0.30084 0.0
C799 C 0.70048 0.21317 0.31007 0.0
C800 C 0.6786 0.2263 0.31073 0.0
C801 C 0.67855 0.2503 0.30311 0.0
C802 C 0.70008 0.26098 0.29464 0.0
H803 H 0.78876 0.25801 0.32499 0.0
H804 H 0.75626 0.25222 0.32867 0.0
H805 H 0.77567 0.22953 0.31555 0.0
H806 H 0.73814 0.21272 0.29908 0.0
H807 H 0.70075 0.19452 0.3157 0.0
H808 H 0.05629 0.40934 0.5314 0.0
H809 H 0.02192 0.43042 0.51284 0.0
H810 H 0.0679 0.49385 0.50468 0.0
H811 H 0.10244 0.47298 0.52304 0.0
H812 H 0.0032 0.47424 0.5329 0.0
H813 H 0.03344 0.4848 0.43824 0.0
H814 H 0.04637 0.46263 0.45807 0.0
H815 H 0.05581 0.49375 0.46079 0.0
C816 C 0.05922 0.42764 0.52532 0.0
C817 C 0.08203 0.43956 0.52877 0.0
C818 C 0.03958 0.43961 0.51474 0.0
C819 C 0.04256 0.46353 0.50726 0.0
C820 C 0.06546 0.47523 0.51 0.0
H821 H 0.94505 0.57369 0.4558 0.0
H822 H 0.98031 0.5507 0.47002 0.0
C823 C 0.08509 0.46332 0.52063 0.0
C824 C 0.02116 0.47698 0.49861 0.0
H825 H 0.99841 0.50698 0.45033 0.0
C826 C 0.002 0.48127 0.5148 0.0
C827 C 0.01996 0.48622 0.47509 0.0
C828 C 0.03988 0.4815 0.45693 0.0
C829 C 0.98168 0.49499 0.50817 0.0
C830 C 0.98041 0.50418 0.48461 0.0
C831 C 0.99957 0.49988 0.4684 0.0
C832 C 0.95913 0.51806 0.47634 0.0
C833 C 0.96203 0.49998 0.52656 0.0
C834 C 0.93573 0.50714 0.47511 0.0
C835 C 0.91558 0.52018 0.46713 0.0
C836 C 0.91858 0.54431 0.46006 0.0
C837 C 0.94213 0.55516 0.46121 0.0
C838 C 0.96228 0.54208 0.46925 0.0
H839 H 0.9688 0.49706 0.54521 0.0
H840 H 0.95542 0.51879 0.52522 0.0
H841 H 0.94613 0.48755 0.52323 0.0
H842 H 0.9331 0.48845 0.48012 0.0
H843 H 0.89772 0.51125 0.46629 0.0
H844 H 0.74518 0.65633 0.29699 0.0
H845 H 0.72748 0.69029 0.27604 0.0
H846 H 0.78119 0.73844 0.30947 0.0
H847 H 0.79971 0.7042 0.33001 0.0
H848 H 0.70684 0.73076 0.29231 0.0
H849 H 0.79013 0.7529 0.23888 0.0
H850 H 0.78738 0.72564 0.25608 0.0
H851 H 0.7945 0.75393 0.27095 0.0
C852 C 0.75322 0.67413 0.30002 0.0
C853 C 0.77396 0.67758 0.31502 0.0
C854 C 0.74307 0.69353 0.28802 0.0
C855 C 0.75329 0.71678 0.2909 0.0
C856 C 0.77342 0.72052 0.30657 0.0
H857 H 0.66781 0.8336 0.22921 0.0
H858 H 0.69204 0.81018 0.25756 0.0
C859 C 0.78384 0.70099 0.31841 0.0
C860 C 0.7427 0.73679 0.27712 0.0
H861 H 0.75519 0.77679 0.23254 0.0
C862 C 0.71742 0.74099 0.27936 0.0
C863 C 0.75659 0.74984 0.2601 0.0
C864 C 0.7836 0.74528 0.25613 0.0
C865 C 0.70538 0.75726 0.26443 0.0
C866 C 0.71926 0.7704 0.24745 0.0
C867 C 0.7447 0.76678 0.24571 0.0
C868 C 0.70733 0.7867 0.23023 0.0
C869 C 0.67773 0.75922 0.2662 0.0
C870 C 0.70914 0.78218 0.20538 0.0
C871 C 0.69576 0.7959 0.18909 0.0
C872 C 0.68018 0.8141 0.19752 0.0
C873 C 0.67934 0.81933 0.22231 0.0
C874 C 0.69308 0.80595 0.23851 0.0
H875 H 0.6694 0.7435 0.27549 0.0
H876 H 0.67318 0.7757 0.27672 0.0
H877 H 0.66909 0.76052 0.24809 0.0
H878 H 0.72019 0.76747 0.19865 0.0
H879 H 0.69679 0.7916 0.17005 0.0
H880 H 0.78529 0.12226 0.70786 0.0
H881 H 0.76192 0.1383 0.7417 0.0
H882 H 0.80862 0.2019 0.74374 0.0
H883 H 0.83227 0.18607 0.70982 0.0
H884 H 0.79627 0.17434 0.79149 0.0
H885 H 0.71718 0.20117 0.73332 0.0
H886 H 0.73027 0.17164 0.72973 0.0
H887 H 0.74766 0.1978 0.72108 0.0
C888 C 0.79067 0.13967 0.71549 0.0
C889 C 0.81056 0.15302 0.70608 0.0
C890 C 0.77732 0.14869 0.73484 0.0
C891 C 0.78368 0.17114 0.74505 0.0
C892 C 0.80364 0.18442 0.736 0.0
H893 H 0.75669 0.28475 0.83313 0.0
H894 H 0.77209 0.24764 0.81563 0.0
C895 C 0.81699 0.17546 0.71658 0.0
C896 C 0.76882 0.18155 0.76442 0.0
H897 H 0.71786 0.2154 0.77314 0.0
C898 C 0.77886 0.18294 0.78771 0.0
C899 C 0.74594 0.19217 0.75939 0.0
C900 C 0.73448 0.19077 0.73455 0.0
C901 C 0.76726 0.19625 0.80586 0.0
C902 C 0.74558 0.20888 0.8002 0.0
C903 C 0.73452 0.20572 0.77743 0.0
C904 C 0.73681 0.22889 0.81549 0.0
C905 C 0.77887 0.19745 0.83061 0.0
C906 C 0.71179 0.23071 0.82126 0.0
C907 C 0.70278 0.2522 0.83098 0.0
C908 C 0.71868 0.27217 0.83479 0.0
C909 C 0.74393 0.26975 0.83025 0.0
C910 C 0.75286 0.24837 0.82057 0.0
H911 H 0.78801 0.18019 0.83486 0.0
H912 H 0.79324 0.2119 0.83111 0.0
H913 H 0.76507 0.20139 0.84472 0.0
H914 H 0.69908 0.21593 0.81721 0.0
H915 H 0.68324 0.25351 0.83444 0.0
H916 H 0.83422 0.81036 0.76041 0.0
H917 H 0.80103 0.78431 0.74465 0.0
H918 H 0.7579 0.79941 0.80778 0.0
H919 H 0.79089 0.82566 0.82372 0.0
H920 H 0.78143 0.74295 0.76892 0.0
H921 H 0.71082 0.81206 0.75007 0.0
H922 H 0.74313 0.81952 0.75385 0.0
H923 H 0.72441 0.81365 0.77968 0.0
C924 C 0.81761 0.80831 0.77088 0.0
C925 C 0.81514 0.82005 0.79331 0.0
C926 C 0.79872 0.79344 0.76185 0.0
C927 C 0.77707 0.79025 0.77499 0.0
C928 C 0.77441 0.80204 0.79726 0.0
H929 H 0.64494 0.70419 0.75761 0.0
H930 H 0.67812 0.73115 0.7718 0.0
C931 C 0.7933 0.8169 0.80636 0.0
C932 C 0.75773 0.77362 0.76594 0.0
H933 H 0.69792 0.77103 0.74704 0.0
C934 C 0.76319 0.74902 0.76399 0.0
C935 C 0.73408 0.7818 0.75964 0.0
C936 C 0.72771 0.80822 0.76069 0.0
C937 C 0.74529 0.73215 0.7563 0.0
C938 C 0.72158 0.74032 0.7501 0.0
C939 C 0.71618 0.76495 0.75192 0.0
C940 C 0.70201 0.72356 0.74174 0.0
C941 C 0.7517 0.70573 0.75541 0.0
C942 C 0.70459 0.71056 0.72013 0.0
C943 C 0.68576 0.6951 0.71201 0.0
C944 C 0.66399 0.69259 0.72533 0.0
C945 C 0.66149 0.70571 0.74698 0.0
C946 C 0.68037 0.72112 0.75509 0.0
H947 H 0.76849 0.70197 0.76621 0.0
H948 H 0.73625 0.69441 0.76214 0.0
H949 H 0.75525 0.70026 0.73649 0.0
H950 H 0.72103 0.71262 0.70941 0.0
H951 H 0.68816 0.68534 0.69517 0.0
H952 H 0.43745 0.49124 0.40431 0.0
H953 H 0.47924 0.50569 0.4138 0.0
H954 H 0.4862 0.44967 0.46669 0.0
H955 H 0.44524 0.43435 0.45607 0.0
H956 H 0.49208 0.52506 0.45227 0.0
H957 H 0.55405 0.4488 0.44341 0.0
H958 H 0.52374 0.44799 0.42974 0.0
H959 H 0.5284 0.43794 0.46027 0.0
C960 C 0.44815 0.48187 0.41771 0.0
C961 C 0.43816 0.46193 0.42976 0.0
C962 C 0.47208 0.48995 0.42292 0.0
C963 C 0.48619 0.4785 0.44059 0.0
C964 C 0.47623 0.45826 0.45227 0.0
H965 H 0.53671 0.50573 0.56563 0.0
H966 H 0.52817 0.49015 0.52514 0.0
C967 C 0.4526 0.44979 0.44659 0.0
C968 C 0.50902 0.49008 0.4502 0.0
H969 H 0.5609 0.47483 0.48098 0.0
C970 C 0.50776 0.51438 0.45755 0.0
C971 C 0.52987 0.4765 0.45668 0.0
C972 C 0.53413 0.45145 0.44677 0.0
C973 C 0.52467 0.52419 0.4742 0.0
C974 C 0.54301 0.50918 0.48376 0.0
C975 C 0.54643 0.48608 0.4739 0.0
C976 C 0.55342 0.51476 0.50769 0.0
C977 C 0.52094 0.54952 0.48373 0.0
C978 C 0.57105 0.53319 0.51114 0.0
C979 C 0.57596 0.54217 0.53433 0.0
C980 C 0.56302 0.53296 0.55414 0.0
C981 C 0.54666 0.51339 0.55067 0.0
C982 C 0.54199 0.5043 0.52761 0.0
H983 H 0.50639 0.55912 0.47363 0.0
H984 H 0.51567 0.54892 0.50298 0.0
H985 H 0.53839 0.56009 0.48253 0.0
H986 H 0.57989 0.5415 0.49587 0.0
H987 H 0.58882 0.55719 0.53653 0.0
H988 H 0.03495 0.60922 0.93972 0.0
H989 H 0.99374 0.59277 0.94767 0.0
H990 H 0.0207 0.56213 0.01365 0.0
H991 H 0.0617 0.57822 0.00576 0.0
H992 H 0.98863 0.54344 0.94892 0.0
H993 H 0.95152 0.58149 0.03267 0.0
H994 H 0.97373 0.59767 0.01464 0.0
H995 H 0.98376 0.57623 0.03669 0.0
C996 C 0.03184 0.5997 0.95635 0.0
C997 C 0.05158 0.59467 0.972 0.0
C998 C 0.00828 0.59038 0.96086 0.0
C999 C 0.00409 0.57644 0.98134 0.0
C1000 C 0.02334 0.57328 0.99799 0.0
H1001 H 0.99001 0.45042 0.02491 0.0
H1002 H 0.99032 0.48485 0.99821 0.0
C1003 C 0.04689 0.58227 0.99335 0.0
C1004 C 0.9819 0.56083 0.98319 0.0
H1005 H 0.94715 0.53676 0.02772 0.0
C1006 C 0.97863 0.54249 0.96571 0.0
C1007 C 0.96825 0.55985 0.00468 0.0
C1008 C 0.96932 0.58009 0.02308 0.0
C1009 C 0.96543 0.52132 0.97098 0.0
C1010 C 0.95558 0.51861 0.99423 0.0
C1011 C 0.95523 0.5386 0.01003 0.0
C1012 C 0.9524 0.49446 0.00482 0.0
C1013 C 0.96435 0.50109 0.95259 0.0
C1014 C 0.93078 0.48802 0.01696 0.0
C1015 C 0.93055 0.46807 0.03217 0.0
C1016 C 0.95215 0.45486 0.03585 0.0
C1017 C 0.97317 0.46037 0.02242 0.0
C1018 C 0.97325 0.47992 0.00696 0.0
H1019 H 0.96323 0.50837 0.93408 0.0
H1020 H 0.98146 0.49043 0.95384 0.0
H1021 H 0.94832 0.48885 0.95558 0.0
H1022 H 0.91463 0.49922 0.01578 0.0
H1023 H 0.91413 0.46423 0.04246 0.0
H1024 H 0.11924 0.02375 0.15642 0.0
H1025 H 0.13411 0.98756 0.17627 0.0
H1026 H 0.06891 0.98608 0.2202 0.0
H1027 H 0.05339 0.02124 0.1993 0.0
H1028 H 0.14772 0.97665 0.21631 0.0
H1029 H 0.0664 0.9183 0.20155 0.0
H1030 H 0.06927 0.94732 0.18752 0.0
H1031 H 0.05686 0.94477 0.21749 0.0
C1032 C 0.10818 0.01572 0.17043 0.0
C1033 C 0.0851 0.0252 0.17624 0.0
C1034 C 0.11658 0.99487 0.18165 0.0
C1035 C 0.10223 0.98327 0.19916 0.0
C1036 C 0.07979 0.99369 0.20587 0.0
H1037 H 0.11578 0.87844 0.31039 0.0
H1038 H 0.1023 0.90657 0.27936 0.0
C1039 C 0.07117 0.01418 0.19431 0.0
C1040 C 0.11136 0.96129 0.21154 0.0
H1041 H 0.09276 0.90734 0.23494 0.0
C1042 C 0.13573 0.96138 0.22012 0.0
C1043 C 0.09611 0.94088 0.21604 0.0
C1044 C 0.07084 0.93772 0.20486 0.0
C1045 C 0.14462 0.94293 0.23478 0.0
C1046 C 0.12868 0.9234 0.24098 0.0
C1047 C 0.1048 0.92255 0.23103 0.0
C1048 C 0.13582 0.90435 0.25846 0.0
C1049 C 0.17087 0.94542 0.24369 0.0
C1050 C 0.15837 0.89241 0.25654 0.0
C1051 C 0.16656 0.87761 0.27504 0.0
C1052 C 0.15177 0.8732 0.29523 0.0
C1053 C 0.12787 0.8824 0.29557 0.0
C1054 C 0.12016 0.8983 0.27767 0.0
H1055 H 0.1768 0.96467 0.24518 0.0
H1056 H 0.17366 0.93704 0.26134 0.0
H1057 H 0.18315 0.93649 0.23053 0.0
H1058 H 0.17022 0.89538 0.24127 0.0
H1059 H 0.1848 0.87005 0.27379 0.0
H1060 H 0.36667 0.84951 0.55229 0.0
H1061 H 0.33232 0.84322 0.52388 0.0
H1062 H 0.30876 0.91612 0.53773 0.0
H1063 H 0.34241 0.92225 0.56614 0.0
H1064 H 0.2842 0.84341 0.52687 0.0
H1065 H 0.31145 0.91693 0.46627 0.0
H1066 H 0.33107 0.90709 0.49045 0.0
H1067 H 0.3068 0.9282 0.49624 0.0
C1068 C 0.35396 0.8641 0.5494 0.0
C1069 C 0.3574 0.88645 0.56141 0.0
C1070 C 0.33432 0.86049 0.53311 0.0
C1071 C 0.31795 0.87925 0.52816 0.0
C1072 C 0.32104 0.90131 0.54075 0.0
H1073 H 0.19799 0.90042 0.42531 0.0
H1074 H 0.22666 0.90446 0.4595 0.0
C1075 C 0.34039 0.90482 0.55723 0.0
C1076 C 0.29754 0.87574 0.51012 0.0
H1077 H 0.27124 0.90046 0.46032 0.0
C1078 C 0.281 0.85624 0.51269 0.0
C1079 C 0.29396 0.89171 0.49075 0.0
C1080 C 0.31193 0.91198 0.48558 0.0
C1081 C 0.26002 0.85333 0.49781 0.0
C1082 C 0.25627 0.86944 0.47849 0.0
C1083 C 0.27349 0.88835 0.47532 0.0
C1084 C 0.23561 0.86643 0.46052 0.0
C1085 C 0.24187 0.83337 0.50358 0.0
C1086 C 0.23017 0.84373 0.44992 0.0
C1087 C 0.21268 0.8413 0.43143 0.0
C1088 C 0.20116 0.86167 0.42205 0.0
C1089 C 0.20621 0.88437 0.43261 0.0
C1090 C 0.22289 0.88666 0.45196 0.0
H1091 H 0.24196 0.8293 0.52304 0.0
H1092 H 0.2228 0.838 0.49825 0.0
H1093 H 0.24725 0.81657 0.49403 0.0
H1094 H 0.24043 0.82795 0.45486 0.0
H1095 H 0.20989 0.82372 0.42295 0.0
H1096 H 0.35058 0.12383 0.80197 0.0
H1097 H 0.36448 0.10471 0.76491 0.0
H1098 H 0.32265 0.04034 0.78215 0.0
H1099 H 0.30644 0.06082 0.81769 0.0
H1100 H 0.38993 0.07449 0.75173 0.0
H1101 H 0.30162 0.03971 0.71685 0.0
H1102 H 0.30297 0.05908 0.74308 0.0
H1103 H 0.30566 0.02665 0.74577 0.0
C1104 C 0.34457 0.10548 0.79787 0.0
C1105 C 0.32766 0.09367 0.81276 0.0
C1106 C 0.3524 0.09452 0.77651 0.0
C1107 C 0.34419 0.07108 0.76992 0.0
C1108 C 0.32833 0.05883 0.78572 0.0
H1109 H 0.43518 0.97879 0.68603 0.0
H1110 H 0.41756 0.00816 0.71328 0.0
C1111 C 0.31957 0.07026 0.80651 0.0
C1112 C 0.35334 0.05911 0.74738 0.0
H1113 H 0.33768 0.01761 0.70371 0.0
C1114 C 0.37816 0.06249 0.74105 0.0
C1115 C 0.33822 0.04413 0.73227 0.0
C1116 C 0.3106 0.04252 0.73473 0.0
C1117 C 0.38856 0.05019 0.72148 0.0
C1118 C 0.37432 0.03252 0.7087 0.0
C1119 C 0.34908 0.03044 0.71381 0.0
C1120 C 0.38542 0.01515 0.69117 0.0
C1121 C 0.41461 0.05691 0.71467 0.0
C1122 C 0.37304 0.00826 0.6697 0.0
C1123 C 0.38294 0.99077 0.65421 0.0
C1124 C 0.40549 0.97999 0.65982 0.0
C1125 C 0.41784 0.9869 0.68113 0.0
C1126 C 0.40784 0.00404 0.69666 0.0
H1127 H 0.41809 0.07654 0.71769 0.0
H1128 H 0.4277 0.04724 0.72642 0.0
H1129 H 0.41849 0.05257 0.69553 0.0
H1130 H 0.35576 0.01645 0.6648 0.0
H1131 H 0.37316 0.98597 0.63772 0.0
H1132 H 0.26423 0.17613 0.92959 0.0
H1133 H 0.23675 0.17648 0.96434 0.0
H1134 H 0.22048 0.10069 0.95241 0.0
H1135 H 0.2461 0.10108 0.91644 0.0
H1136 H 0.18026 0.1221 0.96 0.0
H1137 H 0.25524 0.14691 0.00249 0.0
H1138 H 0.24393 0.15773 0.03111 0.0
H1139 H 0.24158 0.17627 0.00529 0.0
C1140 C 0.25504 0.15952 0.93474 0.0
C1141 C 0.25733 0.13853 0.92058 0.0
C1142 C 0.23948 0.15963 0.95476 0.0
C1143 C 0.2268 0.13846 0.96153 0.0
C1144 C 0.22992 0.1173 0.94768 0.0
H1145 H 0.15007 0.09289 0.0881 0.0
H1146 H 0.17895 0.10077 0.05526 0.0
C1147 C 0.24468 0.11745 0.92722 0.0
C1148 C 0.20912 0.1383 0.98199 0.0
H1149 H 0.20322 0.15074 0.04219 0.0
C1150 C 0.18544 0.12832 0.97795 0.0
C1151 C 0.21552 0.14674 0.00548 0.0
C1152 C 0.24054 0.15733 0.01143 0.0
C1153 C 0.16844 0.12589 0.9967 0.0
C1154 C 0.1751 0.13392 0.0201 0.0
C1155 C 0.19835 0.1445 0.02416 0.0
C1156 C 0.15845 0.13045 0.04075 0.0
C1157 C 0.14363 0.11423 0.99157 0.0
C1158 C 0.13745 0.14462 0.04337 0.0
C1159 C 0.12073 0.13989 0.06176 0.0
C1160 C 0.12491 0.12112 0.07805 0.0
C1161 C 0.14655 0.10768 0.07605 0.0
C1162 C 0.16301 0.11213 0.05732 0.0
H1163 H 0.14232 0.1065 0.97304 0.0
H1164 H 0.13993 0.09965 0.00463 0.0
H1165 H 0.12904 0.12789 0.99374 0.0
H1166 H 0.13366 0.15886 0.03076 0.0
H1167 H 0.10416 0.1505 0.06284 0.0
H1168 H 0.09788 0.07965 0.2172 0.0
H1169 H 0.10418 0.0489 0.24692 0.0
H1170 H 0.17145 0.02801 0.21205 0.0
H1171 H 0.1661 0.06049 0.1828 0.0
H1172 H 0.10553 0.00455 0.24724 0.0
H1173 H 0.19823 0.03522 0.27823 0.0
H1174 H 0.18006 0.05229 0.25737 0.0
H1175 H 0.19711 0.02657 0.24702 0.0
C1176 C 0.11408 0.06858 0.21565 0.0
C1177 C 0.13174 0.07297 0.19777 0.0
C1178 C 0.11768 0.05087 0.23281 0.0
C1179 C 0.1388 0.03657 0.23247 0.0
C1180 C 0.15558 0.0395 0.21348 0.0
H1181 H 0.15925 0.91317 0.32647 0.0
H1182 H 0.17221 0.9459 0.29983 0.0
C1183 C 0.15223 0.05775 0.19642 0.0
C1184 C 0.14242 0.01857 0.25196 0.0
H1185 H 0.18161 0.00037 0.29673 0.0
C1186 C 0.12238 0.0035 0.25765 0.0
C1187 C 0.16424 0.01733 0.26617 0.0
C1188 C 0.18606 0.03386 0.26209 0.0
C1189 C 0.12347 0.98711 0.27652 0.0
C1190 C 0.14486 0.9864 0.29116 0.0
C1191 C 0.16521 0.00108 0.28552 0.0
C1192 C 0.14521 0.97108 0.31286 0.0
C1193 C 0.1015 0.97069 0.28065 0.0
C1194 C 0.12818 0.97558 0.33116 0.0
C1195 C 0.12116 0.95714 0.34661 0.0
C1196 C 0.13115 0.93404 0.34401 0.0
C1197 C 0.15091 0.93067 0.32832 0.0
C1198 C 0.15812 0.94929 0.31294 0.0
H1199 H 0.08967 0.96883 0.26429 0.0
H1200 H 0.10739 0.95244 0.28608 0.0
H1201 H 0.09013 0.97839 0.29529 0.0
H1202 H 0.11829 0.99243 0.33172 0.0
H1203 H 0.10582 0.96013 0.3586 0.0
H1204 H 0.29297 0.83973 0.58387 0.0
H1205 H 0.25587 0.84359 0.55968 0.0
H1206 H 0.25265 0.91923 0.57851 0.0
H1207 H 0.28972 0.91527 0.60347 0.0
H1208 H 0.21159 0.85348 0.56308 0.0
H1209 H 0.25097 0.928 0.50921 0.0
H1210 H 0.26831 0.91359 0.5324 0.0
H1211 H 0.24658 0.93655 0.5401 0.0
C1212 C 0.28457 0.8573 0.58267 0.0
C1213 C 0.29471 0.87733 0.59512 0.0
C1214 C 0.26322 0.85952 0.56874 0.0
C1215 C 0.252 0.88202 0.56588 0.0
C1216 C 0.26151 0.90189 0.57923 0.0
H1217 H 0.13368 0.92609 0.47001 0.0
H1218 H 0.16274 0.92251 0.50333 0.0
C1219 C 0.28266 0.89958 0.59367 0.0
C1220 C 0.23077 0.88434 0.54866 0.0
H1221 H 0.21035 0.91588 0.50009 0.0
C1222 C 0.21144 0.86714 0.5493 0.0
C1223 C 0.23013 0.90225 0.53061 0.0
C1224 C 0.25019 0.92104 0.52786 0.0
C1225 C 0.19196 0.86711 0.53239 0.0
C1226 C 0.19177 0.88467 0.51416 0.0
C1227 C 0.21059 0.90225 0.51392 0.0
C1228 C 0.1723 0.88554 0.49513 0.0
C1229 C 0.17169 0.84837 0.53439 0.0
C1230 C 0.16774 0.86586 0.47935 0.0
C1231 C 0.15086 0.86781 0.46022 0.0
C1232 C 0.13852 0.8896 0.45631 0.0
C1233 C 0.14291 0.90907 0.47236 0.0
C1234 C 0.15954 0.90705 0.4915 0.0
H1235 H 0.15354 0.85593 0.52947 0.0
H1236 H 0.17553 0.83309 0.52192 0.0
H1237 H 0.1706 0.84109 0.5529 0.0
H1238 H 0.17783 0.84928 0.4813 0.0
H1239 H 0.14807 0.85253 0.44808 0.0
H1240 H 0.3427 0.01994 0.83957 0.0
H1241 H 0.3489 0.99349 0.80536 0.0
H1242 H 0.4058 0.04147 0.7794 0.0
H1243 H 0.40023 0.06795 0.81472 0.0
H1244 H 0.34141 0.99787 0.76161 0.0
H1245 H 0.44137 0.98124 0.77174 0.0
H1246 H 0.42437 0.99769 0.79411 0.0
H1247 H 0.43439 0.01235 0.76704 0.0
C1248 C 0.35649 0.02512 0.82657 0.0
C1249 C 0.3708 0.04631 0.82981 0.0
C1250 C 0.36005 0.00982 0.8069 0.0
C1251 C 0.37781 0.01528 0.78954 0.0
C1252 C 0.39215 0.03655 0.79257 0.0
H1253 H 0.36186 0.92228 0.65895 0.0
H1254 H 0.36059 0.95736 0.68614 0.0
C1255 C 0.38883 0.05185 0.81266 0.0
C1256 C 0.38049 0.99849 0.76847 0.0
H1257 H 0.42146 0.96367 0.73794 0.0
C1258 C 0.35897 0.99039 0.75644 0.0
C1259 C 0.4033 0.98847 0.76176 0.0
C1260 C 0.42713 0.9952 0.77447 0.0
C1261 C 0.35936 0.97217 0.73863 0.0
C1262 C 0.38222 0.96239 0.73157 0.0
C1263 C 0.40384 0.97092 0.74324 0.0
C1264 C 0.38425 0.94218 0.71351 0.0
C1265 C 0.33498 0.96278 0.72882 0.0
C1266 C 0.39916 0.92243 0.71882 0.0
C1267 C 0.40057 0.9028 0.70295 0.0
C1268 C 0.38674 0.90202 0.6814 0.0
C1269 C 0.3726 0.92217 0.67546 0.0
C1270 C 0.37158 0.94213 0.69125 0.0
H1271 H 0.31969 0.96656 0.74143 0.0
H1272 H 0.33069 0.97201 0.71173 0.0
H1273 H 0.33535 0.94301 0.7254 0.0
H1274 H 0.4092 0.92171 0.73571 0.0
H1275 H 0.41174 0.8877 0.70825 0.0
H1276 H 0.37139 0.13102 0.96065 0.0
H1277 H 0.35436 0.13941 0.00078 0.0
H1278 H 0.2815 0.12224 0.97381 0.0
H1279 H 0.29829 0.11309 0.93445 0.0
H1280 H 0.31202 0.16904 0.02055 0.0
H1281 H 0.29773 0.07008 0.02531 0.0
H1282 H 0.31803 0.08394 0.00375 0.0
H1283 H 0.28532 0.0829 0.99837 0.0
C1284 C 0.35165 0.1299 0.96307 0.0
C1285 C 0.33616 0.12147 0.94419 0.0
C1286 C 0.34196 0.13457 0.98606 0.0
C1287 C 0.31671 0.131 0.99035 0.0
C1288 C 0.30105 0.12491 0.97098 0.0
H1289 H 0.20181 0.11583 0.08928 0.0
H1290 H 0.23233 0.11509 0.05728 0.0
C1291 C 0.31067 0.12003 0.94829 0.0
C1292 C 0.30661 0.13086 0.01514 0.0
H1293 H 0.27491 0.09405 0.05312 0.0
C1294 C 0.30435 0.15263 0.02805 0.0
C1295 C 0.29678 0.10936 0.0249 0.0
C1296 C 0.29977 0.08519 0.01249 0.0
C1297 C 0.29073 0.15378 0.04955 0.0
C1298 C 0.27935 0.13245 0.05841 0.0
C1299 C 0.28323 0.11046 0.04626 0.0
C1300 C 0.26123 0.1327 0.07849 0.0
C1301 C 0.2869 0.17814 0.06131 0.0
C1302 C 0.26723 0.14233 0.10136 0.0
C1303 C 0.2495 0.14306 0.11959 0.0
C1304 C 0.22549 0.13385 0.11544 0.0
C1305 C 0.2199 0.12341 0.09288 0.0
C1306 C 0.23747 0.12289 0.07463 0.0
H1307 H 0.29193 0.19318 0.04918 0.0
H1308 H 0.26743 0.1803 0.06677 0.0
H1309 H 0.29869 0.17976 0.07767 0.0
H1310 H 0.28558 0.14932 0.10516 0.0
H1311 H 0.25459 0.15102 0.13686 0.0
H1312 H 0.89958 0.30362 0.12256 0.0
H1313 H 0.92147 0.26576 0.11607 0.0
H1314 H 0.98715 0.29782 0.14769 0.0
H1315 H 0.96536 0.33545 0.15453 0.0
H1316 H 0.96268 0.24819 0.09521 0.0
H1317 H 0.97266 0.24488 0.19449 0.0
H1318 H 0.95432 0.26724 0.17974 0.0
H1319 H 0.98729 0.27087 0.1817 0.0
C1320 C 0.91895 0.30291 0.12725 0.0
C1321 C 0.93062 0.32237 0.13945 0.0
C1322 C 0.93139 0.28114 0.12379 0.0
C1323 C 0.95563 0.27864 0.13236 0.0
C1324 C 0.96815 0.299 0.14183 0.0
H1325 H 0.04861 0.15482 0.15855 0.0
H1326 H 0.03044 0.19486 0.15643 0.0
C1327 C 0.95576 0.32064 0.1454 0.0
C1328 C 0.96707 0.25444 0.13329 0.0
H1329 H 0.99161 0.21394 0.17224 0.0
C1330 C 0.96913 0.24074 0.11202 0.0
C1331 C 0.97516 0.24451 0.15531 0.0
C1332 C 0.97205 0.25751 0.17914 0.0
C1333 C 0.97956 0.21766 0.112 0.0
C1334 C 0.98775 0.20772 0.13406 0.0
C1335 C 0.98562 0.2215 0.15531 0.0
C1336 C 0.99833 0.1831 0.13583 0.0
C1337 C 0.98163 0.20451 0.08816 0.0
C1338 C 0.98573 0.16277 0.12629 0.0
C1339 C 0.99614 0.13986 0.12752 0.0
C1340 C 0.01929 0.13675 0.13851 0.0
C1341 C 0.03114 0.1568 0.14938 0.0
C1342 C 0.02075 0.17971 0.14811 0.0
H1343 H 0.98445 0.21741 0.07325 0.0
H1344 H 0.99688 0.1915 0.08796 0.0
H1345 H 0.96416 0.19446 0.08443 0.0
H1346 H 0.96791 0.16462 0.11768 0.0
H1347 H 0.98639 0.12469 0.11918 0.0
H1348 H 0.55995 0.30107 0.92982 0.0
H1349 H 0.52981 0.26793 0.93474 0.0
H1350 H 0.4972 0.28477 0.86602 0.0
H1351 H 0.52733 0.31662 0.86073 0.0
H1352 H 0.48336 0.26869 0.9396 0.0
H1353 H 0.49618 0.21599 0.85594 0.0
H1354 H 0.51714 0.24024 0.86434 0.0
H1355 H 0.4889 0.24623 0.84841 0.0
C1356 C 0.54695 0.29694 0.91541 0.0
C1357 C 0.54612 0.31139 0.89486 0.0
C1358 C 0.52961 0.27807 0.91824 0.0
C1359 C 0.51156 0.27307 0.90036 0.0
C1360 C 0.5114 0.28722 0.87964 0.0
H1361 H 0.36247 0.22875 0.90658 0.0
H1362 H 0.40285 0.24777 0.91268 0.0
C1363 C 0.52861 0.30577 0.87676 0.0
C1364 C 0.49129 0.25495 0.90402 0.0
H1365 H 0.45567 0.21258 0.87424 0.0
C1366 C 0.4777 0.25608 0.92545 0.0
C1367 C 0.48365 0.23824 0.88572 0.0
C1368 C 0.49747 0.23499 0.86248 0.0
C1369 C 0.45612 0.24209 0.92848 0.0
C1370 C 0.44771 0.22674 0.90952 0.0
C1371 C 0.46202 0.22448 0.88874 0.0
C1372 C 0.42311 0.21455 0.90969 0.0
C1373 C 0.44227 0.2442 0.95179 0.0
C1374 C 0.42091 0.18946 0.90617 0.0
C1375 C 0.39779 0.17848 0.90219 0.0
C1376 C 0.37636 0.19245 0.90185 0.0
C1377 C 0.37854 0.2174 0.90672 0.0
C1378 C 0.40166 0.22834 0.9104 0.0
H1379 H 0.45461 0.25026 0.96681 0.0
H1380 H 0.4276 0.25778 0.9498 0.0
H1381 H 0.43349 0.22671 0.95659 0.0
H1382 H 0.4372 0.17854 0.90593 0.0
H1383 H 0.39679 0.1592 0.89873 0.0
H1384 H 0.93835 0.65578 0.43959 0.0
H1385 H 0.97442 0.68247 0.43926 0.0
H1386 H 0.97806 0.67499 0.36198 0.0
H1387 H 0.94277 0.64708 0.36243 0.0
H1388 H 0.02165 0.67399 0.37827 0.0
H1389 H 0.9793 0.75089 0.42583 0.0
H1390 H 0.97978 0.7249 0.44457 0.0
H1391 H 0.96159 0.72441 0.41727 0.0
C1392 C 0.94666 0.66 0.42248 0.0
C1393 C 0.93743 0.64946 0.40101 0.0
C1394 C 0.96727 0.67551 0.42227 0.0
C1395 C 0.9787 0.68165 0.40051 0.0
C1396 C 0.96957 0.67093 0.37905 0.0
H1397 H 0.09897 0.77507 0.35399 0.0
H1398 H 0.06731 0.74415 0.35765 0.0
C1399 C 0.9493 0.65494 0.3793 0.0
C1400 C 1.00062 0.69844 0.40016 0.0
H1401 H 0.02293 0.75252 0.42184 0.0
C1402 C 0.02167 0.69142 0.38739 0.0
C1403 C 0.00118 0.72106 0.41246 0.0
C1404 C 0.97915 0.73082 0.42559 0.0
C1405 C 0.04299 0.70619 0.38651 0.0
C1406 C 0.04333 0.72901 0.39843 0.0
C1407 C 0.02265 0.73555 0.41196 0.0
C1408 C 0.06431 0.74685 0.39644 0.0
C1409 C 0.06516 0.69655 0.37355 0.0
C1410 C 0.07375 0.75912 0.41696 0.0
C1411 C 0.09233 0.77685 0.4149 0.0
C1412 C 0.10167 0.78304 0.39222 0.0
C1413 C 0.09213 0.77094 0.37174 0.0
C1414 C 0.0739 0.75303 0.37386 0.0
H1415 H 0.06559 0.67652 0.3742 0.0
H1416 H 0.06406 0.70157 0.35431 0.0
H1417 H 0.08265 0.70384 0.38138 0.0
H1418 H 0.06684 0.75491 0.43466 0.0
H1419 H 0.09931 0.78575 0.43109 0.0
H1420 H 0.01857 0.35696 0.11229 0.0
H1421 H 0.03838 0.31818 0.10983 0.0
H1422 H 0.9731 0.28677 0.07667 0.0
H1423 H 0.95302 0.32623 0.07868 0.0
H1424 H 0.0262 0.27871 0.1317 0.0
H1425 H 0.02447 0.2593 0.03322 0.0
H1426 H 0.01669 0.2885 0.04553 0.0
H1427 H 0.99495 0.26377 0.04678 0.0
C1428 C 0.0083 0.34192 0.10433 0.0
C1429 C 0.98411 0.34479 0.09572 0.0
C1430 C 0.01974 0.31964 0.10293 0.0
C1431 C 0.00742 0.29941 0.09294 0.0
C1432 C 0.98325 0.30211 0.0841 0.0
H1433 H 0.06255 0.15394 0.10941 0.0
H1434 H 0.03766 0.18689 0.09454 0.0
C1435 C 0.97165 0.32463 0.08551 0.0
C1436 C 0.01997 0.27564 0.09341 0.0
H1437 H 0.04315 0.23031 0.0581 0.0
C1438 C 0.02977 0.26819 0.11553 0.0
C1439 C 0.02453 0.26162 0.07243 0.0
C1440 C 0.01479 0.26872 0.04809 0.0
C1441 C 0.04479 0.24794 0.11715 0.0
C1442 C 0.05016 0.23448 0.09608 0.0
C1443 C 0.03935 0.24098 0.07412 0.0
C1444 C 0.0669 0.2136 0.09711 0.0
C1445 C 0.05546 0.24184 0.14147 0.0
C1446 C 0.09216 0.21728 0.10179 0.0
C1447 C 0.10664 0.19821 0.10986 0.0
C1448 C 0.09585 0.17542 0.11372 0.0
C1449 C 0.0713 0.17128 0.10655 0.0
C1450 C 0.05699 0.19017 0.09809 0.0
H1451 H 0.07266 0.25258 0.1444 0.0
H1452 H 0.04251 0.24663 0.15611 0.0
H1453 H 0.06003 0.22249 0.14294 0.0
H1454 H 0.10016 0.23529 0.10119 0.0
H1455 H 0.12544 0.20198 0.11557 0.0
H1456 H 0.52576 0.67995 0.68049 0.0
H1457 H 0.50461 0.71631 0.66845 0.0
H1458 H 0.56825 0.73842 0.62776 0.0
H1459 H 0.5892 0.7017 0.6394 0.0
H1460 H 0.51364 0.75812 0.68003 0.0
H1461 H 0.53059 0.73299 0.59815 0.0
H1462 H 0.55023 0.759 0.59389 0.0
H1463 H 0.51992 0.75814 0.58101 0.0
C1464 C 0.53485 0.69211 0.66818 0.0
C1465 C 0.55905 0.68788 0.66074 0.0
C1466 C 0.52278 0.71302 0.66135 0.0
C1467 C 0.53444 0.73011 0.64665 0.0
C1468 C 0.55829 0.72529 0.6383 0.0
H1469 H 0.50363 0.87878 0.611 0.0
H1470 H 0.52224 0.83969 0.61847 0.0
C1471 C 0.57034 0.7042 0.64499 0.0
C1472 C 0.52262 0.75388 0.64245 0.0
H1473 H 0.51077 0.79637 0.60006 0.0
C1474 C 0.51256 0.76613 0.66237 0.0
C1475 C 0.52159 0.76489 0.61957 0.0
C1476 C 0.53098 0.7529 0.59697 0.0
C1477 C 0.50171 0.78884 0.66014 0.0
C1478 C 0.50073 0.79973 0.63732 0.0
C1479 C 0.51113 0.78781 0.61749 0.0
C1480 C 0.48938 0.82364 0.63357 0.0
C1481 C 0.49219 0.80126 0.68248 0.0
C1482 C 0.46467 0.82769 0.63956 0.0
C1483 C 0.45383 0.85001 0.63499 0.0
C1484 C 0.46767 0.86868 0.62465 0.0
C1485 C 0.49249 0.86468 0.61899 0.0
C1486 C 0.50315 0.84234 0.62321 0.0
H1487 H 0.50089 0.79417 0.69907 0.0
H1488 H 0.49557 0.82106 0.68196 0.0
H1489 H 0.47205 0.79793 0.68373 0.0
H1490 H 0.45371 0.81341 0.64736 0.0
H1491 H 0.4348 0.85283 0.63977 0.0
H1492 H 0.88991 0.68185 0.38806 0.0
H1493 H 0.92497 0.70964 0.39448 0.0
H1494 H 0.92895 0.72108 0.31796 0.0
H1495 H 0.89448 0.6932 0.31141 0.0
H1496 H 0.97296 0.71164 0.33604 0.0
H1497 H 0.92961 0.78241 0.39249 0.0
H1498 H 0.92712 0.75246 0.40423 0.0
H1499 H 0.91183 0.7595 0.37645 0.0
C1500 C 0.89821 0.6904 0.37264 0.0
C1501 C 0.88943 0.6852 0.34922 0.0
C1502 C 0.91811 0.7065 0.37635 0.0
C1503 C 0.9295 0.71771 0.35672 0.0
C1504 C 0.92053 0.71267 0.33341 0.0
H1505 H 0.04757 0.81781 0.32354 0.0
H1506 H 0.01645 0.78556 0.32299 0.0
C1507 C 0.90075 0.69668 0.3297 0.0
C1508 C 0.95155 0.73374 0.35989 0.0
H1509 H 0.97217 0.78673 0.38545 0.0
C1510 C 0.97282 0.728 0.34699 0.0
C1511 C 0.95137 0.75515 0.37402 0.0
C1512 C 0.92872 0.76294 0.38744 0.0
C1513 C 0.9938 0.74305 0.34754 0.0
C1514 C 0.9937 0.76469 0.36152 0.0
C1515 C 0.97253 0.77014 0.37489 0.0
C1516 C 0.01459 0.78257 0.36177 0.0
C1517 C 0.01544 0.73524 0.3327 0.0
C1518 C 0.02389 0.79212 0.38367 0.0
C1519 C 0.04203 0.81032 0.38402 0.0
C1520 C 0.05063 0.82009 0.36242 0.0
C1521 C 0.04166 0.81033 0.34049 0.0
C1522 C 0.02381 0.79186 0.34017 0.0
H1523 H 0.01836 0.71553 0.3345 0.0
H1524 H 0.0114 0.73866 0.31344 0.0
H1525 H 0.03265 0.74484 0.33769 0.0
H1526 H 0.01644 0.78619 0.40058 0.0
H1527 H 0.04803 0.81788 0.40121 0.0
H1528 H 0.48069 0.12044 0.93542 0.0
H1529 H 0.51434 0.14955 0.93082 0.0
H1530 H 0.48214 0.17341 0.8642 0.0
H1531 H 0.44887 0.14345 0.86815 0.0
H1532 H 0.53031 0.17213 0.86015 0.0
H1533 H 0.5109 0.21923 0.94634 0.0
H1534 H 0.51725 0.18793 0.95038 0.0
H1535 H 0.49028 0.19658 0.93364 0.0
C1536 C 0.48073 0.13182 0.91972 0.0
C1537 C 0.46176 0.12983 0.90236 0.0
C1538 C 0.49993 0.14871 0.91724 0.0
C1539 C 0.50042 0.16445 0.89763 0.0
C1540 C 0.48208 0.1618 0.87972 0.0
H1541 H 0.59128 0.28783 0.85414 0.0
H1542 H 0.55934 0.25644 0.85795 0.0
C1543 C 0.46302 0.14461 0.88199 0.0
C1544 C 0.52003 0.18357 0.89583 0.0
H1545 H 0.54811 0.23017 0.9269 0.0
C1546 C 0.53395 0.18502 0.87465 0.0
C1547 C 0.52502 0.20042 0.91476 0.0
C1548 C 0.50991 0.20116 0.93744 0.0
C1549 C 0.55249 0.2028 0.87186 0.0
C1550 C 0.55734 0.21967 0.89075 0.0
C1551 C 0.54402 0.21769 0.91219 0.0
C1552 C 0.57618 0.23944 0.88874 0.0
C1553 C 0.56691 0.20314 0.84879 0.0
C1554 C 0.59574 0.24114 0.90537 0.0
C1555 C 0.61391 0.25916 0.90332 0.0
C1556 C 0.61292 0.27609 0.88467 0.0
C1557 C 0.59277 0.275 0.86858 0.0
C1558 C 0.5746 0.25687 0.87061 0.0
H1559 H 0.56577 0.18548 0.83911 0.0
H1560 H 0.5592 0.21703 0.83678 0.0
H1561 H 0.5866 0.20774 0.85231 0.0
H1562 H 0.59726 0.22816 0.91969 0.0
H1563 H 0.62903 0.25949 0.91616 0.0
H1564 H 0.89436 0.05013 0.66825 0.0
H1565 H 0.91107 0.02718 0.70051 0.0
H1566 H 0.93988 0.09278 0.73362 0.0
H1567 H 0.92157 0.11628 0.70084 0.0
H1568 H 0.95038 0.01673 0.72324 0.0
H1569 H 0.89317 0.07301 0.78434 0.0
H1570 H 0.89242 0.07669 0.75224 0.0
H1571 H 0.91821 0.08817 0.76971 0.0
C1572 C 0.90505 0.05972 0.68166 0.0
C1573 C 0.90627 0.08503 0.68188 0.0
C1574 C 0.91464 0.04649 0.70045 0.0
C1575 C 0.9261 0.05818 0.72012 0.0
C1576 C 0.93031 0.08334 0.71907 0.0
H1577 H 0.94373 0.94775 0.83299 0.0
H1578 H 0.95518 0.97592 0.80163 0.0
C1579 C 0.92026 0.09676 0.70009 0.0
C1580 C 0.93001 0.04385 0.74233 0.0
H1581 H 0.90727 0.03675 0.79893 0.0
C1582 C 0.94113 0.02117 0.73992 0.0
C1583 C 0.91806 0.04966 0.76419 0.0
C1584 C 0.90464 0.07309 0.76787 0.0
C1585 C 0.93841 0.0033 0.75746 0.0
C1586 C 0.92538 0.00874 0.77883 0.0
C1587 C 0.91671 0.03232 0.78236 0.0
C1588 C 0.91852 0.99013 0.7969 0.0
C1589 C 0.94829 0.97851 0.75196 0.0
C1590 C 0.89411 0.98864 0.80519 0.0
C1591 C 0.88766 0.97299 0.82364 0.0
C1592 C 0.90533 0.95805 0.83402 0.0
C1593 C 0.92946 0.95855 0.82494 0.0
C1594 C 0.93609 0.97475 0.80693 0.0
H1595 H 0.9669 0.97703 0.76015 0.0
H1596 H 0.93638 0.96402 0.75925 0.0
H1597 H 0.95011 0.97531 0.73227 0.0
H1598 H 0.88007 0.00023 0.79803 0.0
H1599 H 0.86901 0.97326 0.83042 0.0
H1600 H 0.65408 0.14656 0.44281 0.0
H1601 H 0.67765 0.16325 0.4775 0.0
H1602 H 0.69505 0.09079 0.49899 0.0
H1603 H 0.672 0.07455 0.46551 0.0
H1604 H 0.68882 0.11421 0.53647 0.0
H1605 H 0.74803 0.17473 0.48152 0.0
H1606 H 0.71751 0.18491 0.48839 0.0
H1607 H 0.72147 0.15952 0.46882 0.0
C1608 C 0.66308 0.13433 0.45501 0.0
C1609 C 0.6616 0.1092 0.4509 0.0
C1610 C 0.67671 0.14388 0.47479 0.0
C1611 C 0.68931 0.12843 0.49057 0.0
C1612 C 0.6864 0.10341 0.48699 0.0
H1613 H 0.80406 0.08904 0.57987 0.0
H1614 H 0.7694 0.0957 0.55282 0.0
C1615 C 0.67307 0.09401 0.46752 0.0
C1616 C 0.70648 0.13697 0.51037 0.0
H1617 H 0.76354 0.163 0.51892 0.0
C1618 C 0.70499 0.12515 0.53258 0.0
C1619 C 0.72711 0.15248 0.50643 0.0
C1620 C 0.7288 0.16869 0.48504 0.0
C1621 C 0.72466 0.12562 0.5491 0.0
C1622 C 0.74674 0.13797 0.54324 0.0
C1623 C 0.74709 0.1525 0.52278 0.0
C1624 C 0.76986 0.1346 0.55732 0.0
C1625 C 0.72178 0.11219 0.57238 0.0
C1626 C 0.783 0.15435 0.56742 0.0
C1627 C 0.80328 0.15058 0.58268 0.0
C1628 C 0.81069 0.12698 0.58804 0.0
C1629 C 0.79862 0.10742 0.5764 0.0
C1630 C 0.77861 0.11121 0.56109 0.0
H1631 H 0.70222 0.11165 0.57808 0.0
H1632 H 0.7277 0.09326 0.56969 0.0
H1633 H 0.73307 0.12059 0.58708 0.0
H1634 H 0.77688 0.1726 0.56445 0.0
H1635 H 0.81214 0.16603 0.59141 0.0
H1636 H 0.59778 0.9277 0.17423 0.0
H1637 H 0.60425 0.96078 0.20295 0.0
H1638 H 0.68258 0.94907 0.20153 0.0
H1639 H 0.67617 0.9163 0.17209 0.0
H1640 H 0.62035 0.95458 0.24596 0.0
H1641 H 0.68496 0.0198 0.20424 0.0
H1642 H 0.67389 0.99337 0.18798 0.0
H1643 H 0.69839 0.99102 0.20965 0.0
C1644 C 0.61647 0.93278 0.17931 0.0
C1645 C 0.63645 0.91945 0.17075 0.0
C1646 C 0.62019 0.95166 0.1959 0.0
C1647 C 0.64394 0.95776 0.20445 0.0
C1648 C 0.66411 0.94532 0.19488 0.0
H1649 H 0.68316 0.05015 0.32967 0.0
H1650 H 0.68567 0.02465 0.29322 0.0
C1651 C 0.66042 0.92655 0.17794 0.0
C1652 C 0.64673 0.9749 0.22535 0.0
H1653 H 0.67461 0.02727 0.24553 0.0
C1654 C 0.63213 0.97055 0.24566 0.0
C1655 C 0.66299 0.99519 0.22571 0.0
C1656 C 0.68081 0.00017 0.20564 0.0
C1657 C 0.63256 0.98616 0.26574 0.0
C1658 C 0.64727 0.00744 0.2653 0.0
C1659 C 0.66277 0.01134 0.24556 0.0
C1660 C 0.64662 0.02565 0.28526 0.0
C1661 C 0.61769 0.97922 0.2875 0.0
C1662 C 0.62412 0.03554 0.29238 0.0
C1663 C 0.62279 0.05065 0.31264 0.0
C1664 C 0.64393 0.05591 0.3265 0.0
C1665 C 0.66668 0.0468 0.31894 0.0
C1666 C 0.66808 0.0321 0.29825 0.0
H1667 H 0.61438 0.9594 0.28809 0.0
H1668 H 0.62709 0.98503 0.30447 0.0
H1669 H 0.59947 0.98797 0.28666 0.0
H1670 H 0.60734 0.03063 0.28292 0.0
H1671 H 0.60491 0.05686 0.31838 0.0
H1672 H 0.86777 0.93563 0.9781 0.0
H1673 H 0.84054 0.91844 0.00801 0.0
H1674 H 0.82961 0.85516 0.96276 0.0
H1675 H 0.85811 0.87193 0.93334 0.0
H1676 H 0.79758 0.91321 0.00723 0.0
H1677 H 0.82802 0.8199 0.02058 0.0
H1678 H 0.84625 0.84107 0.0038 0.0
H1679 H 0.82146 0.82401 0.98934 0.0
C1680 C 0.85969 0.91791 0.97463 0.0
C1681 C 0.86475 0.90527 0.95321 0.0
C1682 C 0.84398 0.90804 0.99177 0.0
C1683 C 0.83222 0.88552 0.98771 0.0
C1684 C 0.83813 0.87248 0.96662 0.0
H1685 H 0.69952 0.82169 0.04777 0.0
H1686 H 0.73599 0.83185 0.02398 0.0
C1687 C 0.85443 0.88212 0.94966 0.0
C1688 C 0.81225 0.87727 0.00438 0.0
H1689 H 0.7862 0.82823 0.0318 0.0
C1690 C 0.79568 0.89466 0.01296 0.0
C1691 C 0.80916 0.85304 0.01202 0.0
C1692 C 0.82738 0.83357 0.00614 0.0
C1693 C 0.77661 0.88877 0.0288 0.0
C1694 C 0.77266 0.8644 0.03517 0.0
C1695 C 0.7889 0.84685 0.02652 0.0
C1696 C 0.75157 0.85683 0.05047 0.0
C1697 C 0.76103 0.9089 0.03863 0.0
C1698 C 0.74849 0.86686 0.07358 0.0
C1699 C 0.72738 0.86164 0.08687 0.0
C1700 C 0.70921 0.84557 0.07773 0.0
C1701 C 0.71304 0.83431 0.05524 0.0
C1702 C 0.73396 0.84 0.04167 0.0
H1703 H 0.76396 0.92598 0.02883 0.0
H1704 H 0.74124 0.90385 0.03802 0.0
H1705 H 0.76628 0.91265 0.05765 0.0
H1706 H 0.76231 0.87898 0.08131 0.0
H1707 H 0.72535 0.87015 0.1044 0.0
H1708 H 0.90404 0.01247 0.62403 0.0
H1709 H 0.88806 0.98623 0.65499 0.0
H1710 H 0.82596 0.03296 0.66455 0.0
H1711 H 0.84182 0.05933 0.63283 0.0
H1712 H 0.85445 0.02815 0.70601 0.0
H1713 H 0.83367 0.93772 0.66789 0.0
H1714 H 0.86275 0.94872 0.65726 0.0
H1715 H 0.83496 0.96435 0.64948 0.0
C1716 C 0.88646 0.01675 0.632 0.0
C1717 C 0.87469 0.03854 0.62669 0.0
C1718 C 0.87725 0.00159 0.64971 0.0
C1719 C 0.8559 0.00767 0.66231 0.0
C1720 C 0.84255 0.02797 0.65514 0.0
H1721 H 0.83489 0.93237 0.80139 0.0
H1722 H 0.82479 0.96067 0.76913 0.0
C1723 C 0.85162 0.04303 0.63699 0.0
C1724 C 0.85051 0.99517 0.68523 0.0
H1725 H 0.84935 0.93884 0.70941 0.0
C1726 C 0.85234 0.00867 0.70679 0.0
C1727 C 0.84801 0.96977 0.68632 0.0
C1728 C 0.84448 0.95436 0.66395 0.0
C1729 C 0.85373 0.99729 0.72922 0.0
C1730 C 0.85352 0.97182 0.73009 0.0
C1731 C 0.8498 0.9584 0.70872 0.0
C1732 C 0.86041 0.9586 0.75219 0.0
C1733 C 0.85774 0.01248 0.75155 0.0
C1734 C 0.88398 0.9488 0.75381 0.0
C1735 C 0.88988 0.93289 0.77222 0.0
C1736 C 0.87219 0.92617 0.78933 0.0
C1737 C 0.84902 0.9373 0.78865 0.0
C1738 C 0.84316 0.95336 0.77014 0.0
H1739 H 0.8536 0.0318 0.74854 0.0
H1740 H 0.84626 0.00571 0.76651 0.0
H1741 H 0.87731 0.01116 0.75694 0.0
H1742 H 0.89747 0.95254 0.74005 0.0
H1743 H 0.9079 0.92476 0.77219 0.0
H1744 H 0.83792 0.14256 0.53892 0.0
H1745 H 0.80814 0.15198 0.50703 0.0
H1746 H 0.80863 0.07777 0.48267 0.0
H1747 H 0.83737 0.06804 0.51484 0.0
H1748 H 0.81216 0.14592 0.45628 0.0
H1749 H 0.73609 0.08781 0.49045 0.0
H1750 H 0.76152 0.09754 0.50938 0.0
H1751 H 0.76542 0.07414 0.48711 0.0
C1752 C 0.83148 0.12823 0.52691 0.0
C1753 C 0.83979 0.10449 0.52968 0.0
C1754 C 0.81454 0.13364 0.50863 0.0
C1755 C 0.80574 0.11546 0.49274 0.0
C1756 C 0.81452 0.09194 0.49513 0.0
H1757 H 0.68085 0.1271 0.39143 0.0
H1758 H 0.71666 0.1101 0.41191 0.0
C1759 C 0.83113 0.08646 0.51351 0.0
C1760 C 0.78746 0.12107 0.47362 0.0
H1761 H 0.72844 0.10907 0.4551 0.0
C1762 C 0.79382 0.1379 0.45601 0.0
C1763 C 0.76389 0.1099 0.47268 0.0
C1764 C 0.75615 0.09145 0.49096 0.0
C1765 C 0.77701 0.14439 0.43792 0.0
C1766 C 0.75271 0.13464 0.43807 0.0
C1767 C 0.74687 0.11679 0.45495 0.0
C1768 C 0.73234 0.14471 0.42312 0.0
C1769 C 0.7858 0.16134 0.41867 0.0
C1770 C 0.7288 0.1698 0.42269 0.0
C1771 C 0.70827 0.17947 0.41131 0.0
C1772 C 0.69058 0.16437 0.39996 0.0
C1773 C 0.69407 0.13925 0.40013 0.0
C1774 C 0.71467 0.12952 0.4117 0.0
H1775 H 0.80545 0.15812 0.41443 0.0
H1776 H 0.77481 0.15927 0.40181 0.0
H1777 H 0.78452 0.18023 0.42538 0.0
H1778 H 0.74133 0.18203 0.43215 0.0
H1779 H 0.7062 0.19888 0.41164 0.0
H1780 H 0.64977 0.00115 0.14805 0.0
H1781 H 0.64427 0.02859 0.18233 0.0
H1782 H 0.56744 0.00777 0.18518 0.0
H1783 H 0.57361 0.97891 0.15229 0.0
H1784 H 0.62257 0.06544 0.18694 0.0
H1785 H 0.57647 0.00707 0.2535 0.0
H1786 H 0.58921 0.99476 0.22629 0.0
H1787 H 0.55902 0.00797 0.22615 0.0
C1788 C 0.632 0.00182 0.15672 0.0
C1789 C 0.61234 0.98744 0.14817 0.0
C1790 C 0.62874 0.01761 0.17622 0.0
C1791 C 0.6056 0.01987 0.18719 0.0
C1792 C 0.58582 0.00564 0.17821 0.0
H1793 H 0.56288 0.13806 0.28502 0.0
H1794 H 0.56108 0.10526 0.25478 0.0
C1795 C 0.58929 0.98922 0.15923 0.0
C1796 C 0.60206 0.03849 0.20653 0.0
H1797 H 0.57562 0.04951 0.26127 0.0
C1798 C 0.61277 0.06154 0.20339 0.0
C1799 C 0.58868 0.03401 0.22793 0.0
C1800 C 0.57793 0.00954 0.23376 0.0
C1801 C 0.61129 0.07965 0.22115 0.0
C1802 C 0.59809 0.07501 0.24235 0.0
C1803 C 0.58611 0.0527 0.24506 0.0
C1804 C 0.59783 0.0928 0.26239 0.0
C1805 C 0.6239 0.10371 0.21724 0.0
C1806 C 0.61879 0.09604 0.27705 0.0
C1807 C 0.61954 0.11409 0.29485 0.0
C1808 C 0.59966 0.12979 0.2976 0.0
C1809 C 0.57839 0.12608 0.28333 0.0
C1810 C 0.57737 0.10749 0.26603 0.0
H1811 H 0.63028 0.10575 0.19842 0.0
H1812 H 0.61125 0.11868 0.22167 0.0
H1813 H 0.64013 0.10545 0.22945 0.0
H1814 H 0.63486 0.085 0.27425 0.0
H1815 H 0.63629 0.11675 0.30534 0.0
H1816 H 0.67045 0.89171 0.0612 0.0
H1817 H 0.70207 0.87807 0.0328 0.0
H1818 H 0.68162 0.93384 0.9836 0.0
H1819 H 0.65082 0.94795 0.01174 0.0
H1820 H 0.70158 0.86189 0.98626 0.0
H1821 H 0.75314 0.94874 0.99079 0.0
H1822 H 0.7271 0.94285 0.00988 0.0
H1823 H 0.72253 0.95215 0.97928 0.0
C1824 C 0.67272 0.901 0.04431 0.0
C1825 C 0.65848 0.92126 0.039 0.0
C1826 C 0.6908 0.8932 0.02811 0.0
C1827 C 0.69491 0.90544 0.00643 0.0
C1828 C 0.67961 0.92468 0.00058 0.0
H1829 H 0.79795 0.90275 0.8881 0.0
H1830 H 0.76594 0.91143 0.91745 0.0
C1831 C 0.66187 0.93265 0.01673 0.0
C1832 C 0.71517 0.8984 0.98987 0.0
H1833 H 0.76542 0.92075 0.96056 0.0
C1834 C 0.71562 0.87471 0.98065 0.0
C1835 C 0.73336 0.9152 0.98231 0.0
C1836 C 0.73413 0.94108 0.99125 0.0
C1837 C 0.73295 0.86763 0.96328 0.0
C1838 C 0.75141 0.88437 0.9559 0.0
C1839 C 0.75133 0.90785 0.96584 0.0
C1840 C 0.77053 0.87843 0.93749 0.0
C1841 C 0.7302 0.84269 0.95224 0.0
C1842 C 0.78407 0.85703 0.93864 0.0
C1843 C 0.80179 0.85166 0.92126 0.0
C1844 C 0.80734 0.86807 0.90293 0.0
C1845 C 0.79431 0.88978 0.90208 0.0
C1846 C 0.77598 0.89476 0.91898 0.0
H1847 H 0.7109 0.83587 0.95334 0.0
H1848 H 0.73567 0.8424 0.93304 0.0
H1849 H 0.74191 0.83001 0.96235 0.0
H1850 H 0.78136 0.84456 0.95323 0.0
H1851 H 0.81164 0.83486 0.92262 0.0
H1852 H 0.96437 0.85515 0.86566 0.0
H1853 H 0.99521 0.8249 0.85663 0.0
H1854 H 0.03008 0.83887 0.92556 0.0
H1855 H 0.99847 0.86816 0.93527 0.0
H1856 H 0.04238 0.82456 0.85157 0.0
H1857 H 0.02275 0.76918 0.93217 0.0
H1858 H 0.00348 0.7938 0.9237 0.0
H1859 H 0.03271 0.79944 0.9385 0.0
C1860 C 0.97835 0.85149 0.87908 0.0
C1861 C 0.97845 0.86351 0.90149 0.0
C1862 C 0.99607 0.83419 0.87387 0.0
C1863 C 0.01446 0.82871 0.89082 0.0
C1864 C 0.01544 0.84178 0.91264 0.0
H1865 H 0.10546 0.69788 0.8701 0.0
H1866 H 0.09362 0.7369 0.88794 0.0
C1867 C 0.99742 0.85872 0.91808 0.0
C1868 C 0.03216 0.80909 0.88551 0.0
H1869 H 0.05173 0.75429 0.90491 0.0
C1870 C 0.04431 0.8092 0.8633 0.0
C1871 C 0.03561 0.78937 0.90114 0.0
C1872 C 0.02284 0.78777 0.92511 0.0
C1873 C 0.05803 0.78936 0.85547 0.0
C1874 C 0.05946 0.76871 0.8701 0.0
C1875 C 0.04986 0.76976 0.89342 0.0
C1876 C 0.06697 0.7449 0.86008 0.0
C1877 C 0.07032 0.79055 0.83126 0.0
C1878 C 0.05504 0.73581 0.83931 0.0
C1879 C 0.06111 0.71344 0.82961 0.0
C1880 C 0.07969 0.69956 0.84012 0.0
C1881 C 0.09109 0.70813 0.86151 0.0
C1882 C 0.08455 0.73054 0.87157 0.0
H1883 H 0.07655 0.80929 0.82743 0.0
H1884 H 0.08642 0.77846 0.83022 0.0
H1885 H 0.05683 0.78511 0.81701 0.0
H1886 H 0.04079 0.74601 0.83051 0.0
H1887 H 0.05173 0.70746 0.81326 0.0
H1888 H 0.44517 0.67198 0.13351 0.0
H1889 H 0.47598 0.70352 0.12718 0.0
H1890 H 0.45064 0.71139 0.05407 0.0
H1891 H 0.41959 0.67927 0.06014 0.0
H1892 H 0.51195 0.69532 0.08651 0.0
H1893 H 0.4624 0.78084 0.0929 0.0
H1894 H 0.44596 0.75256 0.08806 0.0
H1895 H 0.45869 0.7686 0.06313 0.0
C1896 C 0.4456 0.68074 0.1162 0.0
C1897 C 0.42989 0.67289 0.09729 0.0
C1898 C 0.46335 0.69877 0.11261 0.0
C1899 C 0.46573 0.7097 0.09013 0.0
C1900 C 0.44902 0.70325 0.07161 0.0
H1901 H 0.58225 0.82288 0.07919 0.0
H1902 H 0.54958 0.795 0.06395 0.0
C1903 C 0.43117 0.685 0.07517 0.0
C1904 C 0.48754 0.72559 0.08586 0.0
H1905 H 0.50672 0.78448 0.08477 0.0
C1906 C 0.51079 0.71484 0.08583 0.0
C1907 C 0.48608 0.75098 0.08414 0.0
C1908 C 0.46183 0.76375 0.08222 0.0
C1909 C 0.53258 0.72879 0.0857 0.0
C1910 C 0.53121 0.7543 0.08664 0.0
C1911 C 0.50795 0.76501 0.08468 0.0
C1912 C 0.55311 0.76974 0.09318 0.0
C1913 C 0.55685 0.7159 0.08499 0.0
C1914 C 0.56639 0.76464 0.11423 0.0
C1915 C 0.58495 0.78026 0.12264 0.0
C1916 C 0.59041 0.80179 0.11065 0.0
C1917 C 0.57835 0.80638 0.08876 0.0
C1918 C 0.55959 0.79056 0.0802 0.0
H1919 H 0.55519 0.69893 0.07417 0.0
H1920 H 0.57168 0.72733 0.07726 0.0
H1921 H 0.56226 0.71085 0.10354 0.0
H1922 H 0.56151 0.74921 0.12504 0.0
H1923 H 0.59396 0.7763 0.13959 0.0
H1924 H 0.06552 0.34083 0.61066 0.0
H1925 H 0.02944 0.3177 0.62407 0.0
H1926 H 0.00721 0.30548 0.55021 0.0
H1927 H 0.04306 0.32855 0.53664 0.0
H1928 H 0.97786 0.32364 0.6152 0.0
H1929 H 0.01085 0.26203 0.55611 0.0
H1930 H 0.01111 0.23718 0.57642 0.0
H1931 H 0.03129 0.2629 0.58174 0.0
C1932 C 0.05308 0.33302 0.59725 0.0
C1933 C 0.05742 0.3362 0.57254 0.0
C1934 C 0.03238 0.31998 0.60497 0.0
C1935 C 0.01592 0.30947 0.58814 0.0
C1936 C 0.01996 0.31298 0.56351 0.0
H1937 H 0.90141 0.1995 0.60409 0.0
H1938 H 0.92733 0.23133 0.58748 0.0
C1939 C 0.04048 0.32619 0.55578 0.0
C1940 C 0.9949 0.29426 0.59622 0.0
H1941 H 0.97138 0.23719 0.59228 0.0
C1942 C 0.97645 0.30462 0.61041 0.0
C1943 C 0.99294 0.2696 0.58968 0.0
C1944 C 0.01266 0.25714 0.57532 0.0
C1945 C 0.95598 0.29094 0.61813 0.0
C1946 C 0.95429 0.26599 0.61206 0.0
C1947 C 0.97256 0.25604 0.59731 0.0
C1948 C 0.93492 0.24928 0.62172 0.0
C1949 C 0.93613 0.30371 0.63195 0.0
C1950 C 0.92967 0.24884 0.64648 0.0
C1951 C 0.91475 0.23059 0.65603 0.0
C1952 C 0.9047 0.21225 0.64108 0.0
C1953 C 0.90905 0.2132 0.6162 0.0
C1954 C 0.92388 0.23151 0.60665 0.0
H1955 H 0.93478 0.32285 0.6264 0.0
H1956 H 0.91784 0.29483 0.62927 0.0
H1957 H 0.94089 0.30379 0.65141 0.0
H1958 H 0.93823 0.26174 0.6588 0.0
H1959 H 0.91179 0.23043 0.67528 0.0
H1960 H 0.06405 0.70503 0.95466 0.0
H1961 H 0.02876 0.72951 0.94484 0.0
H1962 H 0.02046 0.69153 0.87679 0.0
H1963 H 0.05646 0.66736 0.88642 0.0
H1964 H 0.01514 0.73384 0.86812 0.0
H1965 H 0.95796 0.72214 0.94823 0.0
H1966 H 0.98744 0.73382 0.95755 0.0
H1967 H 0.98502 0.70435 0.94329 0.0
C1968 C 0.05473 0.70189 0.93756 0.0
C1969 C 0.06322 0.68432 0.92127 0.0
C1970 C 0.03413 0.7157 0.93209 0.0
C1971 C 0.02117 0.71219 0.91026 0.0
C1972 C 0.0298 0.69465 0.89387 0.0
H1973 H 0.90792 0.78938 0.83459 0.0
H1974 H 0.9338 0.75859 0.85201 0.0
C1975 C 0.05058 0.68092 0.89929 0.0
C1976 C 1.00045 0.72846 0.90346 0.0
H1977 H 0.94947 0.75753 0.9246 0.0
C1978 C 0.00092 0.73888 0.88059 0.0
C1979 C 0.98123 0.73498 0.9194 0.0
C1980 C 0.97775 0.72298 0.94335 0.0
C1981 C 0.98413 0.75652 0.87372 0.0
C1982 C 0.96528 0.76341 0.88977 0.0
C1983 C 0.96415 0.7526 0.91245 0.0
C1984 C 0.94593 0.78066 0.88237 0.0
C1985 C 0.98724 0.76777 0.8493 0.0
C1986 C 0.94245 0.80274 0.89472 0.0
C1987 C 0.92684 0.82033 0.88504 0.0
C1988 C 0.91517 0.81615 0.86269 0.0
C1989 C 0.91728 0.79336 0.85152 0.0
C1990 C 0.93209 0.77572 0.86145 0.0
H1991 H 0.00696 0.76905 0.84441 0.0
H1992 H 0.97781 0.75616 0.83554 0.0
H1993 H 0.97948 0.78611 0.84847 0.0
H1994 H 0.95274 0.80684 0.91109 0.0
H1995 H 0.92516 0.83761 0.89418 0.0
H1996 H 0.42795 0.31516 0.36244 0.0
H1997 H 0.45536 0.28343 0.37655 0.0
H1998 H 0.4772 0.26879 0.30354 0.0
H1999 H 0.45163 0.30139 0.28957 0.0
H2000 H 0.45297 0.23642 0.36703 0.0
H2001 H 0.52 0.26859 0.31079 0.0
H2002 H 0.54296 0.2697 0.33397 0.0
H2003 H 0.5165 0.28886 0.33617 0.0
C2004 C 0.4393 0.30575 0.34956 0.0
C2005 C 0.43796 0.31125 0.32498 0.0
C2006 C 0.45471 0.2874 0.35761 0.0
C2007 C 0.46879 0.27396 0.34126 0.0
C2008 C 0.46735 0.2794 0.31671 0.0
H2009 H 0.56685 0.15146 0.34591 0.0
H2010 H 0.53917 0.18358 0.33378 0.0
C2011 C 0.45246 0.29802 0.30872 0.0
C2012 C 0.48378 0.25329 0.34946 0.0
H2013 H 0.54038 0.22815 0.34419 0.0
C2014 C 0.47226 0.23479 0.36247 0.0
C2015 C 0.50885 0.25097 0.34324 0.0
C2016 C 0.52285 0.27071 0.3305 0.0
C2017 C 0.48491 0.21382 0.36892 0.0
C2018 C 0.50999 0.21142 0.36254 0.0
C2019 C 0.52135 0.22992 0.34941 0.0
C2020 C 0.52514 0.19031 0.36961 0.0
C2021 C 0.47083 0.19414 0.3816 0.0
C2022 C 0.52651 0.18304 0.39372 0.0
C2023 C 0.54252 0.16475 0.40063 0.0
C2024 C 0.55781 0.15349 0.38367 0.0
C2025 C 0.55596 0.1603 0.35948 0.0
C2026 C 0.53989 0.17852 0.35253 0.0
H2027 H 0.45083 0.19475 0.3773 0.0
H2028 H 0.47764 0.17596 0.37664 0.0
H2029 H 0.47292 0.19681 0.40135 0.0
H2030 H 0.516 0.19218 0.40747 0.0
H2031 H 0.54339 0.15994 0.41945 0.0
H2032 H 0.94878 0.16513 0.58282 0.0
H2033 H 0.9793 0.19723 0.59007 0.0
H2034 H 0.97406 0.18616 0.66659 0.0
H2035 H 0.94441 0.15298 0.65915 0.0
H2036 H 0.97448 0.23309 0.65716 0.0
H2037 H 0.05079 0.19095 0.60719 0.0
H2038 H 0.02362 0.1947 0.58914 0.0
H2039 H 0.02282 0.17472 0.61436 0.0
C2040 C 0.9537 0.16996 0.60122 0.0
C2041 C 0.94395 0.1568 0.62045 0.0
C2042 C 0.97144 0.18818 0.60538 0.0
C2043 C 0.9793 0.19418 0.62893 0.0
C2044 C 0.96851 0.18186 0.64824 0.0
H2045 H 0.07728 0.28782 0.70643 0.0
H2046 H 0.04753 0.25889 0.6905 0.0
C2047 C 0.95136 0.16308 0.64403 0.0
C2048 C 0.99837 0.21348 0.6336 0.0
H2049 H 0.05788 0.23083 0.62193 0.0
C2050 C 0.99241 0.23281 0.64892 0.0
C2051 C 0.02225 0.21295 0.62343 0.0
C2052 C 0.0304 0.19212 0.6078 0.0
C2053 C 0.00906 0.25193 0.65367 0.0
C2054 C 0.03325 0.25094 0.64444 0.0
C2055 C 0.03935 0.2317 0.62897 0.0
C2056 C 0.05292 0.26809 0.65321 0.0
C2057 C 1.00042 0.27316 0.66852 0.0
C2058 C 0.06713 0.28225 0.6375 0.0
C2059 C 0.0846 0.29917 0.64667 0.0
C2060 C 0.08842 0.3018 0.67169 0.0
C2061 C 0.07476 0.28679 0.68709 0.0
C2062 C 0.05749 0.27016 0.678 0.0
H2063 H 0.98029 0.27566 0.66641 0.0
H2064 H 0.00417 0.2698 0.68784 0.0
H2065 H 0.00997 0.29015 0.66337 0.0
H2066 H 0.06436 0.28054 0.61822 0.0
H2067 H 0.09503 0.31013 0.63426 0.0
H2068 H 0.44192 0.7222 0.21404 0.0
H2069 H 0.46748 0.7576 0.20462 0.0
H2070 H 0.44369 0.75234 0.13051 0.0
H2071 H 0.41731 0.71802 0.13994 0.0
H2072 H 0.50536 0.76256 0.1774 0.0
H2073 H 0.43437 0.82211 0.14076 0.0
H2074 H 0.42664 0.79495 0.15671 0.0
H2075 H 0.4333 0.79373 0.12499 0.0
C2076 C 0.44193 0.72879 0.19578 0.0
C2077 C 0.4277 0.71711 0.1777 0.0
C2078 C 0.45661 0.74901 0.1904 0.0
C2079 C 0.45729 0.758 0.16686 0.0
C2080 C 0.44306 0.7463 0.14889 0.0
H2081 H 0.54037 0.85261 0.0784 0.0
H2082 H 0.5123 0.8244 0.09754 0.0
C2083 C 0.42822 0.72634 0.15427 0.0
C2084 C 0.47383 0.77868 0.16063 0.0
H2085 H 0.47607 0.8309 0.12867 0.0
C2086 C 0.49887 0.77767 0.16701 0.0
C2087 C 0.4654 0.79875 0.14753 0.0
C2088 C 0.43841 0.8026 0.14238 0.0
C2089 C 0.51588 0.79537 0.15957 0.0
C2090 C 0.50774 0.81448 0.14491 0.0
C2091 C 0.48251 0.816 0.1394 0.0
C2092 C 0.52498 0.83228 0.13385 0.0
C2093 C 0.54236 0.79296 0.16739 0.0
C2094 C 0.54111 0.84687 0.14786 0.0
C2095 C 0.55736 0.86318 0.13686 0.0
C2096 C 0.55773 0.8653 0.11165 0.0
C2097 C 0.54102 0.85119 0.09782 0.0
C2098 C 0.52487 0.83497 0.10877 0.0
H2099 H 0.54732 0.77372 0.1696 0.0
H2100 H 0.55523 0.80129 0.15456 0.0
H2101 H 0.54497 0.80221 0.18509 0.0
H2102 H 0.5411 0.84569 0.1673 0.0
H2103 H 0.56942 0.87428 0.14811 0.0
H2104 H 0.63977 0.35412 0.78102 0.0
H2105 H 0.62968 0.3794 0.74636 0.0
H2106 H 0.67673 0.43611 0.77571 0.0
H2107 H 0.68755 0.41079 0.80913 0.0
H2108 H 0.60729 0.4147 0.73889 0.0
H2109 H 0.69858 0.44558 0.7123 0.0
H2110 H 0.69519 0.42224 0.73428 0.0
H2111 H 0.69679 0.4538 0.74338 0.0
C2112 C 0.6478 0.37208 0.77992 0.0
C2113 C 0.66431 0.38059 0.79777 0.0
C2114 C 0.64224 0.38651 0.76002 0.0
C2115 C 0.65285 0.40981 0.75782 0.0
C2116 C 0.66897 0.41813 0.77609 0.0
H2117 H 0.57183 0.52562 0.69594 0.0
H2118 H 0.58741 0.4912 0.71771 0.0
C2119 C 0.67483 0.40371 0.79557 0.0
C2120 C 0.64531 0.42659 0.73819 0.0
H2121 H 0.66575 0.47561 0.7071 0.0
C2122 C 0.62032 0.42756 0.73152 0.0
C2123 C 0.66204 0.44307 0.7274 0.0
C2124 C 0.68964 0.4408 0.72955 0.0
C2125 C 0.61151 0.44526 0.7159 0.0
C2126 C 0.6277 0.46389 0.70811 0.0
C2127 C 0.65292 0.46204 0.71354 0.0
C2128 C 0.61891 0.48562 0.69497 0.0
C2129 C 0.58498 0.44318 0.7077 0.0
C2130 C 0.6322 0.49526 0.67557 0.0
C2131 C 0.62374 0.51562 0.66345 0.0
C2132 C 0.60162 0.52657 0.67025 0.0
C2133 C 0.58886 0.51751 0.69012 0.0
C2134 C 0.59757 0.49753 0.70244 0.0
H2135 H 0.5791 0.42392 0.70604 0.0
H2136 H 0.573 0.45168 0.7214 0.0
H2137 H 0.58193 0.45182 0.69004 0.0
H2138 H 0.64879 0.48668 0.66929 0.0
H2139 H 0.63384 0.52197 0.64799 0.0
H2140 H 0.8718 0.40768 0.01985 0.0
H2141 H 0.83152 0.40025 0.00094 0.0
H2142 H 0.81458 0.3471 0.05451 0.0
H2143 H 0.85453 0.35568 0.07458 0.0
H2144 H 0.80815 0.33399 0.0012 0.0
H2145 H 0.78386 0.42433 0.01363 0.0
H2146 H 0.79344 0.40999 0.04093 0.0
H2147 H 0.76114 0.41418 0.03447 0.0
C2148 C 0.85933 0.39466 0.02782 0.0
C2149 C 0.86612 0.38235 0.04872 0.0
C2150 C 0.83635 0.39048 0.01704 0.0
C2151 C 0.81991 0.37349 0.02662 0.0
C2152 C 0.82679 0.36074 0.04724 0.0
H2153 H 0.69553 0.32254 0.93429 0.0
H2154 H 0.72144 0.325 0.9705 0.0
C2155 C 0.84956 0.36556 0.05861 0.0
C2156 C 0.79616 0.36857 0.01407 0.0
H2157 H 0.74317 0.39573 0.9964 0.0
C2158 C 0.79366 0.34724 0.00037 0.0
C2159 C 0.77752 0.38607 0.01287 0.0
C2160 C 0.77925 0.4098 0.02647 0.0
C2161 C 0.77385 0.34362 0.98418 0.0
C2162 C 0.75537 0.3614 0.98254 0.0
C2163 C 0.75719 0.38203 0.99752 0.0
C2164 C 0.73608 0.36079 0.96325 0.0
C2165 C 0.77408 0.32164 0.96781 0.0
C2166 C 0.73396 0.38072 0.94806 0.0
C2167 C 0.71881 0.37948 0.9277 0.0
C2168 C 0.7054 0.35829 0.92202 0.0
C2169 C 0.70557 0.33916 0.93833 0.0
C2170 C 0.72085 0.34039 0.9588 0.0
H2171 H 0.79239 0.31295 0.96758 0.0
H2172 H 0.76049 0.30812 0.97427 0.0
H2173 H 0.76911 0.32642 0.94907 0.0
H2174 H 0.74526 0.39678 0.95103 0.0
H2175 H 0.71908 0.39447 0.91536 0.0
H2176 H 0.82018 0.5746 0.26923 0.0
H2177 H 0.84334 0.55409 0.23828 0.0
H2178 H 0.91134 0.57517 0.27377 0.0
H2179 H 0.88791 0.59591 0.30539 0.0
H2180 H 0.87365 0.56217 0.2062 0.0
H2181 H 0.92256 0.50542 0.27243 0.0
H2182 H 0.8997 0.52676 0.28143 0.0
H2183 H 0.93047 0.53692 0.27477 0.0
C2184 C 0.84009 0.57483 0.27067 0.0
C2185 C 0.85215 0.58604 0.29039 0.0
C2186 C 0.85337 0.56307 0.2528 0.0
C2187 C 0.8791 0.56184 0.25418 0.0
C2188 C 0.89143 0.57475 0.27282 0.0
H2189 H 0.96809 0.46416 0.1655 0.0
H2190 H 0.9557 0.49645 0.1928 0.0
C2191 C 0.87805 0.58681 0.29078 0.0
C2192 C 0.89219 0.5462 0.23641 0.0
H2193 H 0.92997 0.49757 0.23155 0.0
C2194 C 0.88581 0.54793 0.21188 0.0
C2195 C 0.90856 0.52783 0.2435 0.0
C2196 C 0.91561 0.52392 0.26946 0.0
C2197 C 0.89413 0.5312 0.19465 0.0
C2198 C 0.90942 0.51216 0.20201 0.0
C2199 C 0.91754 0.51166 0.22605 0.0
C2200 C 0.91671 0.49224 0.18534 0.0
C2201 C 0.88653 0.53426 0.1687 0.0
C2202 C 0.89889 0.47841 0.17251 0.0
C2203 C 0.90593 0.45968 0.15689 0.0
C2204 C 0.93096 0.45442 0.15377 0.0
C2205 C 0.94863 0.46771 0.16735 0.0
C2206 C 0.9416 0.48632 0.18295 0.0
H2207 H 0.88239 0.55341 0.16481 0.0
H2208 H 0.9011 0.5281 0.15623 0.0
H2209 H 0.86954 0.52344 0.16502 0.0
H2210 H 0.87948 0.48197 0.17472 0.0
H2211 H 0.89182 0.4498 0.1468 0.0
H2212 H 0.77834 0.56284 0.4035 0.0
H2213 H 0.75372 0.55839 0.43999 0.0
H2214 H 0.76957 0.6325 0.45959 0.0
H2215 H 0.79501 0.63689 0.42354 0.0
H2216 H 0.76839 0.59315 0.50002 0.0
H2217 H 0.68656 0.59831 0.4394 0.0
H2218 H 0.71012 0.57713 0.43158 0.0
H2219 H 0.71666 0.60892 0.43045 0.0
C2220 C 0.77728 0.57795 0.41602 0.0
C2221 C 0.78864 0.60021 0.4107 0.0
C2222 C 0.76316 0.57539 0.4368 0.0
C2223 C 0.75986 0.59513 0.45246 0.0
C2224 C 0.77226 0.61697 0.44791 0.0
H2225 H 0.63494 0.62898 0.53919 0.0
H2226 H 0.66792 0.62559 0.51 0.0
C2227 C 0.78677 0.61944 0.42731 0.0
C2228 C 0.74122 0.59393 0.47179 0.0
H2229 H 0.67917 0.59408 0.48057 0.0
C2230 C 0.74886 0.59351 0.49593 0.0
C2231 C 0.7158 0.59406 0.46625 0.0
C2232 C 0.70661 0.59475 0.44055 0.0
C2233 C 0.73171 0.59368 0.51482 0.0
C2234 C 0.70611 0.5943 0.50932 0.0
C2235 C 0.69866 0.59405 0.485 0.0
C2236 C 0.68661 0.59653 0.52809 0.0
C2237 C 0.7414 0.5934 0.54033 0.0
C2238 C 0.68575 0.58138 0.5482 0.0
C2239 C 0.66717 0.58384 0.56538 0.0
C2240 C 0.64847 0.60087 0.56234 0.0
C2241 C 0.64916 0.6158 0.54216 0.0
C2242 C 0.66793 0.61364 0.52527 0.0
H2243 H 0.7605 0.60061 0.5416 0.0
H2244 H 0.72975 0.60403 0.55268 0.0
H2245 H 0.74175 0.57449 0.5466 0.0
H2246 H 0.69905 0.56723 0.55043 0.0
H2247 H 0.66683 0.57163 0.58044 0.0
H2248 H 0.60365 0.39379 0.80789 0.0
H2249 H 0.60918 0.4284 0.78232 0.0
H2250 H 0.64471 0.4678 0.84065 0.0
H2251 H 0.63858 0.43292 0.86694 0.0
H2252 H 0.58693 0.46852 0.79092 0.0
H2253 H 0.68579 0.48309 0.78156 0.0
H2254 H 0.67463 0.46489 0.8059 0.0
H2255 H 0.67836 0.49698 0.80973 0.0
C2256 C 0.61348 0.40944 0.81517 0.0
C2257 C 0.62071 0.4105 0.83951 0.0
C2258 C 0.61661 0.42933 0.80044 0.0
C2259 C 0.62772 0.4507 0.80927 0.0
C2260 C 0.63663 0.45134 0.83315 0.0
H2261 H 0.58503 0.588 0.75272 0.0
H2262 H 0.59118 0.55164 0.77528 0.0
C2263 C 0.63328 0.4313 0.84815 0.0
C2264 C 0.6263 0.47283 0.79435 0.0
H2265 H 0.65937 0.51827 0.76817 0.0
C2266 C 0.60289 0.47921 0.7858 0.0
C2267 C 0.64697 0.4872 0.78793 0.0
C2268 C 0.67272 0.48241 0.79682 0.0
C2269 C 0.59941 0.49927 0.77116 0.0
C2270 C 0.62006 0.51358 0.76452 0.0
C2271 C 0.64356 0.50715 0.77285 0.0
C2272 C 0.61736 0.53618 0.75055 0.0
C2273 C 0.57331 0.50476 0.76354 0.0
C2274 C 0.63099 0.54045 0.72952 0.0
C2275 C 0.6278 0.5618 0.71647 0.0
C2276 C 0.6111 0.57929 0.72445 0.0
C2277 C 0.59781 0.57491 0.74567 0.0
C2278 C 0.60123 0.55395 0.75869 0.0
H2279 H 0.56272 0.48778 0.75981 0.0
H2280 H 0.56401 0.51427 0.77856 0.0
H2281 H 0.57227 0.51617 0.74736 0.0
H2282 H 0.64392 0.52718 0.72308 0.0
H2283 H 0.63863 0.56475 0.70047 0.0
H2284 H 0.78747 0.31394 0.1185 0.0
H2285 H 0.75352 0.31665 0.08993 0.0
H2286 H 0.77584 0.38945 0.07337 0.0
H2287 H 0.80967 0.38714 0.1026 0.0
H2288 H 0.7296 0.38783 0.07158 0.0
H2289 H 0.75101 0.29915 0.05136 0.0
H2290 H 0.77634 0.31933 0.04458 0.0
H2291 H 0.75743 0.30642 0.02082 0.0
C2292 C 0.78539 0.33052 0.10864 0.0
C2293 C 0.80179 0.35012 0.11249 0.0
C2294 C 0.76599 0.33196 0.09201 0.0
C2295 C 0.76276 0.35277 0.07821 0.0
C2296 C 0.77832 0.37285 0.08299 0.0
H2297 H 0.66381 0.38866 0.95808 0.0
H2298 H 0.69529 0.38978 0.98988 0.0
C2299 C 0.7977 0.37153 0.09982 0.0
C2300 C 0.74312 0.35355 0.05907 0.0
H2301 H 0.71742 0.32109 0.01223 0.0
C2302 C 0.72721 0.37337 0.05839 0.0
C2303 C 0.73978 0.33479 0.04163 0.0
C2304 C 0.75724 0.3139 0.03946 0.0
C2305 C 0.70789 0.37465 0.04134 0.0
C2306 C 0.70426 0.3556 0.02433 0.0
C2307 C 0.72008 0.33578 0.0251 0.0
C2308 C 0.68435 0.3557 0.0055 0.0
C2309 C 0.69114 0.39611 0.04224 0.0
C2310 C 0.6679 0.33597 0.0031 0.0
C2311 C 0.64988 0.33528 0.98488 0.0
C2312 C 0.64804 0.35415 0.96829 0.0
C2313 C 0.66465 0.37382 0.97052 0.0
C2314 C 0.6825 0.37463 0.98897 0.0
H2315 H 0.6915 0.40503 0.06027 0.0
H2316 H 0.69747 0.40958 0.02896 0.0
H2317 H 0.67183 0.39081 0.03775 0.0
H2318 H 0.66893 0.32104 0.01545 0.0
H2319 H 0.63744 0.31985 0.98373 0.0
H2320 H 0.8098 0.55003 0.36617 0.0
H2321 H 0.81043 0.52403 0.3302 0.0
H2322 H 0.88693 0.54266 0.31988 0.0
H2323 H 0.88617 0.56931 0.35526 0.0
H2324 H 0.82155 0.52912 0.282 0.0
H2325 H 0.88791 0.46956 0.32691 0.0
H2326 H 0.87191 0.49315 0.3428 0.0
H2327 H 0.89901 0.50016 0.32566 0.0
C2328 C 0.82652 0.54924 0.35572 0.0
C2329 C 0.84789 0.5619 0.36345 0.0
C2330 C 0.8269 0.53419 0.33529 0.0
C2331 C 0.84883 0.53102 0.32257 0.0
C2332 C 0.86986 0.54454 0.32958 0.0
H2333 H 0.91104 0.44009 0.21528 0.0
H2334 H 0.90031 0.46971 0.24575 0.0
C2335 C 0.86933 0.56006 0.34964 0.0
C2336 C 0.85018 0.51272 0.3028 0.0
H2337 H 0.88195 0.4631 0.28498 0.0
C2338 C 0.83502 0.51489 0.28238 0.0
C2339 C 0.86672 0.49331 0.30394 0.0
C2340 C 0.88211 0.48869 0.32612 0.0
C2341 C 0.83773 0.49972 0.26204 0.0
C2342 C 0.85533 0.48105 0.26266 0.0
C2343 C 0.86902 0.4778 0.28397 0.0
C2344 C 0.8609 0.46508 0.24152 0.0
C2345 C 0.8224 0.50455 0.2399 0.0
C2346 C 0.84237 0.45228 0.22859 0.0
C2347 C 0.84854 0.4353 0.21073 0.0
C2348 C 0.87335 0.43029 0.20599 0.0
C2349 C 0.89174 0.44371 0.21826 0.0
C2350 C 0.88559 0.46078 0.23574 0.0
H2351 H 0.81409 0.52273 0.24053 0.0
H2352 H 0.83362 0.50292 0.22335 0.0
H2353 H 0.80694 0.4913 0.23874 0.0
H2354 H 0.82321 0.45412 0.23327 0.0
H2355 H 0.83395 0.4247 0.20214 0.0
H2356 H 0.81784 0.65617 0.46566 0.0
H2357 H 0.79252 0.67374 0.49806 0.0
H2358 H 0.80368 0.60987 0.54023 0.0
H2359 H 0.82796 0.59252 0.50831 0.0
H2360 H 0.74969 0.65657 0.51322 0.0
H2361 H 0.81063 0.65888 0.59205 0.0
H2362 H 0.82259 0.65574 0.56196 0.0
H2363 H 0.81304 0.62949 0.57865 0.0
C2364 C 0.81528 0.64632 0.48217 0.0
C2365 C 0.82456 0.6229 0.48442 0.0
C2366 C 0.80078 0.65628 0.50062 0.0
C2367 C 0.79625 0.64327 0.52181 0.0
C2368 C 0.80707 0.6206 0.52443 0.0
H2369 H 0.7032 0.60086 0.63026 0.0
H2370 H 0.73418 0.61063 0.60014 0.0
C2371 C 0.82085 0.61053 0.50598 0.0
C2372 C 0.77788 0.65118 0.54 0.0
H2373 H 0.76718 0.64715 0.60027 0.0
C2374 C 0.75361 0.65531 0.53233 0.0
C2375 C 0.78291 0.6501 0.565 0.0
C2376 C 0.80882 0.6486 0.5748 0.0
C2377 C 0.73395 0.65548 0.54873 0.0
C2378 C 0.73871 0.65106 0.57342 0.0
C2379 C 0.76329 0.64958 0.58128 0.0
C2380 C 0.71882 0.64522 0.59095 0.0
C2381 C 0.70825 0.65886 0.53907 0.0
C2382 C 0.69946 0.66114 0.59567 0.0
C2383 C 0.68131 0.65523 0.61252 0.0
C2384 C 0.6825 0.63359 0.62549 0.0
C2385 C 0.70175 0.61766 0.62063 0.0
C2386 C 0.71958 0.62333 0.60348 0.0
H2387 H 0.70689 0.65432 0.51956 0.0
H2388 H 0.69467 0.64774 0.54886 0.0
H2389 H 0.70321 0.67808 0.54149 0.0
H2390 H 0.69858 0.67829 0.58663 0.0
H2391 H 0.66687 0.66807 0.61606 0.0
H2392 H 0.50214 0.62171 0.63302 0.0
H2393 H 0.47782 0.65668 0.62324 0.0
H2394 H 0.54155 0.6907 0.59169 0.0
H2395 H 0.56605 0.65502 0.60077 0.0
H2396 H 0.47979 0.70037 0.63719 0.0
H2397 H 0.49284 0.70067 0.53847 0.0
H2398 H 0.50269 0.67603 0.55698 0.0
H2399 H 0.52127 0.7031 0.55506 0.0
C2400 C 0.51116 0.6366 0.62405 0.0
C2401 C 0.53611 0.63536 0.61753 0.0
C2402 C 0.4971 0.65666 0.61837 0.0
C2403 C 0.50751 0.67623 0.6061 0.0
C2404 C 0.53274 0.67559 0.60043 0.0
H2405 H 0.44549 0.81881 0.59203 0.0
H2406 H 0.47215 0.78444 0.58321 0.0
C2407 C 0.54689 0.6553 0.60599 0.0
C2408 C 0.49189 0.6975 0.60051 0.0
H2409 H 0.47149 0.73408 0.55541 0.0
C2410 C 0.47856 0.70797 0.61939 0.0
C2411 C 0.48926 0.707 0.57703 0.0
C2412 C 0.50208 0.69599 0.55566 0.0
C2413 C 0.46372 0.72811 0.61587 0.0
C2414 C 0.46071 0.7373 0.59243 0.0
C2415 C 0.47373 0.72687 0.57332 0.0
C2416 C 0.44359 0.75751 0.58814 0.0
C2417 C 0.4515 0.73961 0.6374 0.0
C2418 C 0.41821 0.75379 0.59132 0.0
C2419 C 0.40288 0.77339 0.59584 0.0
C2420 C 0.41277 0.79691 0.59742 0.0
C2421 C 0.43745 0.80083 0.59099 0.0
C2422 C 0.45275 0.7812 0.58617 0.0
H2423 H 0.45974 0.73361 0.65464 0.0
H2424 H 0.45304 0.7596 0.63667 0.0
H2425 H 0.43165 0.73458 0.63731 0.0
H2426 H 0.41073 0.73564 0.5928 0.0
H2427 H 0.38402 0.76984 0.60114 0.0
H2428 H 0.42289 0.6137 0.22218 0.0
H2429 H 0.43057 0.58433 0.25374 0.0
H2430 H 0.41174 0.52644 0.20381 0.0
H2431 H 0.40634 0.55556 0.17215 0.0
H2432 H 0.39551 0.56203 0.27123 0.0
H2433 H 0.45756 0.49016 0.24244 0.0
H2434 H 0.456 0.51825 0.2265 0.0
H2435 H 0.43491 0.49361 0.21926 0.0
C2436 C 0.42205 0.59464 0.21757 0.0
C2437 C 0.41356 0.5869 0.19476 0.0
C2438 C 0.42602 0.57778 0.23577 0.0
C2439 C 0.42142 0.55296 0.23149 0.0
C2440 C 0.41597 0.54521 0.20783 0.0
H2441 H 0.33742 0.46992 0.33226 0.0
H2442 H 0.35317 0.49527 0.30009 0.0
C2443 C 0.41261 0.562 0.1896 0.0
C2444 C 0.41751 0.53612 0.252 0.0
H2445 H 0.42448 0.47767 0.2694 0.0
C2446 C 0.40227 0.5437 0.2709 0.0
C2447 C 0.42649 0.51222 0.25223 0.0
C2448 C 0.44487 0.50327 0.23411 0.0
C2449 C 0.39472 0.52792 0.28905 0.0
C2450 C 0.40146 0.50329 0.28776 0.0
C2451 C 0.41818 0.49614 0.26992 0.0
C2452 C 0.39125 0.4849 0.30466 0.0
C2453 C 0.37991 0.5382 0.30956 0.0
C2454 C 0.40676 0.46848 0.31623 0.0
C2455 C 0.39747 0.45298 0.33384 0.0
C2456 C 0.37255 0.45387 0.34054 0.0
C2457 C 0.35673 0.46894 0.32767 0.0
C2458 C 0.3659 0.48391 0.30965 0.0
H2459 H 0.38468 0.55754 0.31287 0.0
H2460 H 0.36003 0.53721 0.30479 0.0
H2461 H 0.38304 0.5283 0.32652 0.0
H2462 H 0.42631 0.46845 0.31258 0.0
H2463 H 0.41024 0.44178 0.34356 0.0
H2464 H 0.31697 0.61464 0.09357 0.0
H2465 H 0.28659 0.62788 0.06453 0.0
H2466 H 0.30911 0.70199 0.07691 0.0
H2467 H 0.33974 0.68875 0.10676 0.0
H2468 H 0.24818 0.65955 0.07884 0.0
H2469 H 0.30184 0.69571 0.00183 0.0
H2470 H 0.31664 0.67856 0.02509 0.0
H2471 H 0.3066 0.70851 0.03154 0.0
C2472 C 0.3159 0.63376 0.08991 0.0
C2473 C 0.33069 0.65064 0.1027 0.0
C2474 C 0.29839 0.64132 0.07332 0.0
C2475 C 0.29543 0.66593 0.0686 0.0
C2476 C 0.31119 0.68289 0.08011 0.0
H2477 H 0.16557 0.67742 0.96958 0.0
H2478 H 0.19867 0.69583 0.9949 0.0
C2479 C 0.32877 0.67528 0.09707 0.0
C2480 C 0.27429 0.67299 0.05315 0.0
H2481 H 0.26002 0.68564 0.99466 0.0
C2482 C 0.25066 0.66606 0.06068 0.0
C2483 C 0.27732 0.68214 0.02968 0.0
C2484 C 0.30191 0.69167 0.02136 0.0
C2485 C 0.23065 0.66532 0.04462 0.0
C2486 C 0.23441 0.67123 0.02026 0.0
C2487 C 0.25729 0.68084 0.01331 0.0
C2488 C 0.21677 0.66203 0.00167 0.0
C2489 C 0.20606 0.65603 0.05326 0.0
C2490 C 0.21635 0.63718 0.99684 0.0
C2491 C 0.1974 0.62671 0.98315 0.0
C2492 C 0.17861 0.64083 0.97327 0.0
C2493 C 0.17979 0.66605 0.97688 0.0
C2494 C 0.19871 0.67659 0.9912 0.0
H2495 H 0.20429 0.65825 0.07307 0.0
H2496 H 0.19072 0.66554 0.04428 0.0
H2497 H 0.20425 0.6365 0.04874 0.0
H2498 H 0.23006 0.62563 0.00479 0.0
H2499 H 0.19709 0.60727 0.98106 0.0
H2500 H 0.14624 0.5884 0.85843 0.0
H2501 H 0.14883 0.56119 0.82326 0.0
H2502 H 0.10403 0.50847 0.85967 0.0
H2503 H 0.10251 0.53504 0.89504 0.0
H2504 H 0.16594 0.51274 0.81966 0.0
H2505 H 0.06731 0.51746 0.7952 0.0
H2506 H 0.08229 0.53927 0.81505 0.0
H2507 H 0.07197 0.5106 0.82638 0.0
C2508 C 0.13674 0.57117 0.85866 0.0
C2509 C 0.12399 0.56396 0.87925 0.0
C2510 C 0.13813 0.55565 0.83858 0.0
C2511 C 0.12588 0.53312 0.83846 0.0
C2512 C 0.11314 0.52597 0.85909 0.0
H2513 H 0.09852 0.40335 0.75986 0.0
H2514 H 0.09952 0.43932 0.78536 0.0
C2515 C 0.11237 0.54113 0.87932 0.0
C2516 C 0.12666 0.5165 0.81728 0.0
H2517 H 0.08903 0.48333 0.77979 0.0
C2518 C 0.14925 0.50664 0.81045 0.0
C2519 C 0.10487 0.50862 0.80534 0.0
C2520 C 0.08026 0.51971 0.81068 0.0
C2521 C 0.15044 0.48799 0.79302 0.0
C2522 C 0.12842 0.47933 0.78175 0.0
C2523 C 0.10598 0.48995 0.7881 0.0
C2524 C 0.12769 0.45794 0.76507 0.0
C2525 C 0.17508 0.47677 0.78812 0.0
C2526 C 0.14285 0.45633 0.74468 0.0
C2527 C 0.14263 0.43533 0.73019 0.0
C2528 C 0.12674 0.41588 0.73539 0.0
C2529 C 0.11094 0.418 0.75522 0.0
C2530 C 0.11148 0.43866 0.76986 0.0
H2531 H 0.18868 0.48102 0.80268 0.0
H2532 H 0.17335 0.45684 0.78622 0.0
H2533 H 0.18254 0.48404 0.77112 0.0
H2534 H 0.155 0.47117 0.74005 0.0
H2535 H 0.1555 0.43395 0.71553 0.0
H2536 H 0.19083 0.33082 0.59829 0.0
H2537 H 0.21996 0.34344 0.56756 0.0
H2538 H 0.21917 0.41626 0.59591 0.0
H2539 H 0.19016 0.40361 0.62698 0.0
H2540 H 0.21692 0.41651 0.54824 0.0
H2541 H 0.29218 0.3561 0.57463 0.0
H2542 H 0.26432 0.33947 0.56814 0.0
H2543 H 0.26544 0.36056 0.59313 0.0
C2544 C 0.19679 0.34955 0.59801 0.0
C2545 C 0.18802 0.36624 0.61511 0.0
C2546 C 0.21366 0.35672 0.5805 0.0
C2547 C 0.22226 0.38072 0.57963 0.0
C2548 C 0.213 0.39759 0.59626 0.0
H2549 H 0.31617 0.456 0.47614 0.0
H2550 H 0.29024 0.446 0.51004 0.0
C2551 C 0.19621 0.39039 0.6139 0.0
C2552 C 0.24027 0.38828 0.56092 0.0
H2553 H 0.29575 0.37428 0.53611 0.0
C2554 C 0.2341 0.40719 0.54555 0.0
C2555 C 0.26305 0.37658 0.55765 0.0
C2556 C 0.27177 0.35723 0.57444 0.0
C2557 C 0.24909 0.41363 0.52607 0.0
C2558 C 0.27168 0.40158 0.52247 0.0
C2559 C 0.27835 0.38334 0.5385 0.0
C2560 C 0.28866 0.40759 0.50228 0.0
C2561 C 0.23988 0.43259 0.50906 0.0
C2562 C 0.29821 0.38927 0.48741 0.0
C2563 C 0.31388 0.39486 0.46825 0.0
C2564 C 0.32018 0.419 0.46344 0.0
C2565 C 0.31115 0.43723 0.47878 0.0
C2566 C 0.296 0.43156 0.49815 0.0
H2567 H 0.21961 0.43459 0.51008 0.0
H2568 H 0.24822 0.45035 0.51411 0.0
H2569 H 0.24476 0.4282 0.49015 0.0
H2570 H 0.29361 0.3706 0.49069 0.0
H2571 H 0.32106 0.38032 0.4573 0.0
H2572 H 0.33782 0.42342 0.29252 0.0
H2573 H 0.32316 0.45632 0.26697 0.0
H2574 H 0.39451 0.46113 0.23394 0.0
H2575 H 0.40931 0.42872 0.25941 0.0
H2576 H 0.35589 0.5095 0.25221 0.0
H2577 H 0.32956 0.4386 0.18452 0.0
H2578 H 0.32744 0.43376 0.21655 0.0
H2579 H 0.35694 0.43387 0.2023 0.0
C2580 C 0.35063 0.43217 0.28048 0.0
C2581 C 0.37481 0.42367 0.27813 0.0
C2582 C 0.34216 0.45078 0.26577 0.0
C2583 C 0.35784 0.46115 0.2487 0.0
C2584 C 0.38225 0.4535 0.24722 0.0
H2585 H 0.39312 0.52952 0.1283 0.0
H2586 H 0.37889 0.50274 0.15967 0.0
C2587 C 0.39069 0.43504 0.26183 0.0
C2588 C 0.3486 0.47789 0.2303 0.0
H2589 H 0.3354 0.47836 0.17022 0.0
C2590 C 0.35071 0.50287 0.23441 0.0
C2591 C 0.34154 0.46907 0.20727 0.0
C2592 C 0.33855 0.44236 0.20224 0.0
C2593 C 0.3479 0.51922 0.21541 0.0
C2594 C 0.34323 0.51016 0.19179 0.0
C2595 C 0.33903 0.48529 0.18828 0.0
C2596 C 0.34824 0.52497 0.17021 0.0
C2597 C 0.35127 0.54588 0.22052 0.0
C2598 C 0.3349 0.5458 0.16467 0.0
C2599 C 0.34295 0.56115 0.14626 0.0
C2600 C 0.3647 0.55604 0.13374 0.0
C2601 C 0.3765 0.53409 0.13791 0.0
C2602 C 0.36839 0.51877 0.15591 0.0
H2603 H 0.35836 0.54961 0.23902 0.0
H2604 H 0.36404 0.5542 0.20747 0.0
H2605 H 0.33325 0.55486 0.21851 0.0
H2606 H 0.31899 0.55069 0.17519 0.0
H2607 H 0.3333 0.57776 0.14318 0.0
H2608 H 0.33251 0.56433 0.00342 0.0
H2609 H 0.3015 0.57142 0.97225 0.0
H2610 H 0.29075 0.6431 0.00085 0.0
H2611 H 0.32325 0.63686 0.03069 0.0
H2612 H 0.25546 0.57917 0.97225 0.0
H2613 H 0.29836 0.66063 0.93369 0.0
H2614 H 0.31406 0.64282 0.95575 0.0
H2615 H 0.29249 0.66558 0.96498 0.0
C2616 C 0.3237 0.58173 0.00295 0.0
C2617 C 0.33028 0.60007 0.01969 0.0
C2618 C 0.30586 0.58574 0.98513 0.0
C2619 C 0.29399 0.60807 0.9838 0.0
C2620 C 0.30012 0.62607 0.00094 0.0
H2621 H 0.17523 0.67059 0.90299 0.0
H2622 H 0.20755 0.65995 0.93156 0.0
C2623 C 0.31842 0.62234 0.01829 0.0
C2624 C 0.27492 0.61241 0.96487 0.0
H2625 H 0.25589 0.65353 0.9236 0.0
C2626 C 0.25577 0.5953 0.96141 0.0
C2627 C 0.27527 0.63335 0.95046 0.0
C2628 C 0.29632 0.65145 0.95123 0.0
C2629 C 0.23666 0.59891 0.94463 0.0
C2630 C 0.23647 0.62039 0.93113 0.0
C2631 C 0.25579 0.63726 0.93426 0.0
C2632 C 0.21627 0.62611 0.91394 0.0
C2633 C 0.21653 0.57995 0.94207 0.0
C2634 C 0.2106 0.61082 0.89423 0.0
C2635 C 0.19217 0.61694 0.87771 0.0
C2636 C 0.17914 0.63856 0.88049 0.0
C2637 C 0.18483 0.65379 0.90028 0.0
C2638 C 0.2033 0.6477 0.9167 0.0
H2639 H 0.21536 0.56846 0.95826 0.0
H2640 H 0.1983 0.58822 0.93895 0.0
H2641 H 0.22059 0.56804 0.92642 0.0
H2642 H 0.22078 0.59439 0.89131 0.0
H2643 H 0.18854 0.60496 0.86249 0.0
H2644 H 0.17002 0.43618 0.64732 0.0
H2645 H 0.16004 0.46217 0.68145 0.0
H2646 H 0.08263 0.45381 0.66429 0.0
H2647 H 0.09265 0.42608 0.63156 0.0
H2648 H 0.14342 0.5026 0.67936 0.0
H2649 H 0.07357 0.45352 0.73259 0.0
H2650 H 0.0893 0.43894 0.7081 0.0
H2651 H 0.06319 0.45778 0.70235 0.0
C2652 C 0.15086 0.43894 0.65163 0.0
C2653 C 0.13212 0.42873 0.63713 0.0
C2654 C 0.14508 0.45409 0.67098 0.0
C2655 C 0.12046 0.45992 0.67594 0.0
C2656 C 0.10168 0.44903 0.66179 0.0
H2657 H 0.06394 0.57871 0.7643 0.0
H2658 H 0.0669 0.54291 0.73814 0.0
C2659 C 0.10744 0.43316 0.64292 0.0
C2660 C 0.11507 0.47944 0.69388 0.0
H2661 H 0.07833 0.49586 0.7409 0.0
C2662 C 0.12955 0.50068 0.69316 0.0
C2663 C 0.09619 0.47775 0.71135 0.0
C2664 C 0.07987 0.45567 0.71376 0.0
C2665 C 0.12638 0.51971 0.70963 0.0
C2666 C 0.1083 0.51756 0.72767 0.0
C2667 C 0.09282 0.49706 0.72767 0.0
C2668 C 0.10526 0.53664 0.74642 0.0
C2669 C 0.14204 0.54227 0.70699 0.0
C2670 C 0.12542 0.54422 0.76075 0.0
C2671 C 0.12382 0.56471 0.77554 0.0
C2672 C 0.10186 0.57772 0.77674 0.0
C2673 C 0.0811 0.56898 0.76384 0.0
C2674 C 0.08277 0.54856 0.74885 0.0
H2675 H 0.14903 0.54408 0.68835 0.0
H2676 H 0.13157 0.55873 0.71165 0.0
H2677 H 0.15824 0.54131 0.71922 0.0
H2678 H 0.1428 0.53494 0.75963 0.0
H2679 H 0.14035 0.5714 0.7845 0.0
H2680 H 0.18129 0.33217 0.53723 0.0
H2681 H 0.21072 0.31571 0.50769 0.0
H2682 H 0.21937 0.38655 0.47727 0.0
H2683 H 0.18982 0.40239 0.50536 0.0
H2684 H 0.21437 0.35329 0.44274 0.0
H2685 H 0.28497 0.32466 0.5093 0.0
H2686 H 0.25587 0.30874 0.50978 0.0
H2687 H 0.25743 0.34003 0.5183 0.0
C2688 C 0.18941 0.34403 0.52405 0.0
C2689 C 0.18377 0.36873 0.52408 0.0
C2690 C 0.20636 0.3347 0.50735 0.0
C2691 C 0.21763 0.34999 0.49044 0.0
C2692 C 0.21113 0.37434 0.49009 0.0
H2693 H 0.32577 0.38037 0.38657 0.0
H2694 H 0.29289 0.37828 0.41633 0.0
C2695 C 0.19435 0.38347 0.50644 0.0
C2696 C 0.2363 0.34165 0.47279 0.0
H2697 H 0.29658 0.32515 0.46853 0.0
C2698 C 0.23225 0.34683 0.44839 0.0
C2699 C 0.25948 0.33267 0.47995 0.0
C2700 C 0.2649 0.3263 0.50575 0.0
C2701 C 0.25114 0.34516 0.43143 0.0
C2702 C 0.27495 0.33839 0.43902 0.0
C2703 C 0.27847 0.33095 0.46287 0.0
C2704 C 0.29644 0.33998 0.42262 0.0
C2705 C 0.24546 0.35113 0.40556 0.0
C2706 C 0.31029 0.31947 0.41718 0.0
C2707 C 0.32921 0.32065 0.40024 0.0
C2708 C 0.33477 0.34242 0.3885 0.0
C2709 C 0.32182 0.36326 0.39503 0.0
C2710 C 0.30285 0.36203 0.4119 0.0
H2711 H 0.22561 0.34824 0.40128 0.0
H2712 H 0.24995 0.37044 0.4025 0.0
H2713 H 0.25646 0.34001 0.39295 0.0
H2714 H 0.30589 0.30233 0.42539 0.0
H2715 H 0.33893 0.30427 0.3958 0.0
H2716 H 0.43343 0.35942 0.39024 0.0
H2717 H 0.46747 0.33125 0.39226 0.0
H2718 H 0.43839 0.30187 0.45778 0.0
H2719 H 0.4043 0.33049 0.45616 0.0
H2720 H 0.5018 0.32932 0.43126 0.0
H2721 H 0.45309 0.24126 0.41585 0.0
H2722 H 0.43752 0.26963 0.41261 0.0
H2723 H 0.44448 0.25859 0.44197 0.0
C2724 C 0.43396 0.34674 0.4049 0.0
C2725 C 0.41606 0.34721 0.42301 0.0
C2726 C 0.45353 0.33069 0.4061 0.0
C2727 C 0.45541 0.31431 0.42506 0.0
C2728 C 0.43717 0.31413 0.44281 0.0
H2729 H 0.57286 0.2053 0.413 0.0
H2730 H 0.54155 0.22874 0.4349 0.0
C2731 C 0.41771 0.33051 0.44185 0.0
C2732 C 0.47737 0.29863 0.42655 0.0
H2733 H 0.49653 0.24085 0.4168 0.0
C2734 C 0.50061 0.30991 0.42848 0.0
C2735 C 0.47588 0.2732 0.42385 0.0
C2736 C 0.45145 0.25987 0.4233 0.0
C2737 C 0.52234 0.29676 0.42602 0.0
C2738 C 0.52085 0.27176 0.42049 0.0
C2739 C 0.49769 0.26008 0.42064 0.0
C2740 C 0.54224 0.25873 0.41028 0.0
C2741 C 0.54669 0.31004 0.4286 0.0
C2742 C 0.55353 0.26803 0.38974 0.0
C2743 C 0.57101 0.25475 0.37738 0.0
C2744 C 0.57733 0.23149 0.38482 0.0
C2745 C 0.5678 0.2229 0.40656 0.0
C2746 C 0.54994 0.23627 0.41901 0.0
H2747 H 0.54551 0.32476 0.44231 0.0
H2748 H 0.56175 0.29777 0.43382 0.0
H2749 H 0.55139 0.31852 0.41122 0.0
H2750 H 0.54777 0.28504 0.38231 0.0
H2751 H 0.57852 0.26216 0.36101 0.0
loop_
_geom_bond_atom_site_label_1
_geom_bond_atom_site_label_2
_geom_bond_distance
_geom_bond_site_symmetry_2
_ccdc_geom_bond_type
Zn0 O3 2.031 . S
Zn0 O5 2.049 . S
Zn0 O10 2.067 . S
Zn1 O2 1.962 . S
Zn1 O4 1.986 . S
Zn1 O6 1.996 . S
Zn1 O9 1.943 . S
O2 Zn1 1.962 . S
O2 C7 1.254 . S
O3 Zn0 2.031 . S
O3 C7 1.269 . S
O4 Zn1 1.986 . S
O4 C11 1.262 . S
O5 Zn0 2.049 . S
O5 C13 1.260 . S
O6 Zn1 1.996 . S
O6 C13 1.257 . S
C7 O2 1.254 . S
C7 O3 1.269 . S
C8 O9 1.249 . S
C8 O10 1.270 . S
O9 Zn1 1.943 . S
O9 C8 1.249 . S
O10 Zn0 2.067 . S
O10 C8 1.270 . S
C11 O4 1.262 . S
C11 O12 1.232 . S
O12 C11 1.232 . S
C13 O5 1.260 . S
C13 O6 1.257 . S
Zn14 O17 2.031 . S
Zn14 O19 2.049 . S
Zn14 O24 2.067 . S
Zn15 O16 1.962 . S
Zn15 O18 1.986 . S
Zn15 O20 1.996 . S
Zn15 O23 1.943 . S
O16 Zn15 1.962 . S
O16 C21 1.254 . S
O17 Zn14 2.031 . S
O17 C21 1.269 . S
O18 Zn15 1.986 . S
O18 C25 1.262 . S
O19 Zn14 2.049 . S
O19 C27 1.260 . S
O20 Zn15 1.996 . S
O20 C27 1.257 . S
C21 O16 1.254 . S
C21 O17 1.269 . S
C22 O23 1.249 . S
C22 O24 1.270 . S
O23 Zn15 1.943 . S
O23 C22 1.249 . S
O24 Zn14 2.067 . S
O24 C22 1.270 . S
C25 O18 1.262 . S
C25 O26 1.232 . S
O26 C25 1.232 . S
C27 O19 1.260 . S
C27 O20 1.257 . S
Zn28 O31 2.031 . S
Zn28 O33 2.049 . S
Zn28 O38 2.067 . S
Zn29 O30 1.962 . S
Zn29 O32 1.986 . S
Zn29 O34 1.996 . S
Zn29 O37 1.943 . S
O30 Zn29 1.962 . S
O30 C35 1.254 . S
O31 Zn28 2.031 . S
O31 C35 1.269 . S
O32 Zn29 1.986 . S
O32 C39 1.262 . S
O33 Zn28 2.049 . S
O33 C41 1.260 . S
O34 Zn29 1.996 . S
O34 C41 1.257 . S
C35 O30 1.254 . S
C35 O31 1.269 . S
C36 O37 1.249 . S
C36 O38 1.270 . S
O37 Zn29 1.943 . S
O37 C36 1.249 . S
O38 Zn28 2.067 . S
O38 C36 1.270 . S
C39 O32 1.262 . S
C39 O40 1.232 . S
O40 C39 1.232 . S
C41 O33 1.260 . S
C41 O34 1.257 . S
Zn42 O45 2.031 . S
Zn42 O47 2.049 . S
Zn42 O52 2.067 . S
Zn43 O44 1.962 . S
Zn43 O46 1.986 . S
Zn43 O48 1.996 . S
Zn43 O51 1.943 . S
O44 Zn43 1.962 . S
O44 C49 1.254 . S
O45 Zn42 2.031 . S
O45 C49 1.269 . S
O46 Zn43 1.986 . S
O46 C53 1.262 . S
O47 Zn42 2.049 . S
O47 C55 1.260 . S
O48 Zn43 1.996 . S
O48 C55 1.257 . S
C49 O44 1.254 . S
C49 O45 1.269 . S
C50 O51 1.249 . S
C50 O52 1.270 . S
O51 Zn43 1.943 . S
O51 C50 1.249 . S
O52 Zn42 2.067 . S
O52 C50 1.270 . S
C53 O46 1.262 . S
C53 O54 1.232 . S
O54 C53 1.232 . S
C55 O47 1.260 . S
C55 O48 1.257 . S
Zn56 O59 2.031 . S
Zn56 O61 2.049 . S
Zn56 O66 2.067 . S
Zn57 O58 1.962 . S
Zn57 O60 1.986 . S
Zn57 O62 1.996 . S
Zn57 O65 1.943 . S
O58 Zn57 1.962 . S
O58 C63 1.254 . S
O59 Zn56 2.031 . S
O59 C63 1.269 . S
O60 Zn57 1.986 . S
O60 C67 1.262 . S
O61 Zn56 2.049 . S
O61 C69 1.260 . S
O62 Zn57 1.996 . S
O62 C69 1.257 . S
C63 O58 1.254 . S
C63 O59 1.269 . S
C64 O65 1.249 . S
C64 O66 1.270 . S
O65 Zn57 1.943 . S
O65 C64 1.249 . S
O66 Zn56 2.067 . S
O66 C64 1.270 . S
C67 O60 1.262 . S
C67 O68 1.232 . S
O68 C67 1.232 . S
C69 O61 1.260 . S
C69 O62 1.257 . S
Zn70 O73 2.031 . S
Zn70 O75 2.049 . S
Zn70 O80 2.067 . S
Zn71 O72 1.962 . S
Zn71 O74 1.986 . S
Zn71 O76 1.996 . S
Zn71 O79 1.943 . S
O72 Zn71 1.962 . S
O72 C77 1.254 . S
O73 Zn70 2.031 . S
O73 C77 1.269 . S
O74 Zn71 1.986 . S
O74 C81 1.262 . S
O75 Zn70 2.049 . S
O75 C83 1.260 . S
O76 Zn71 1.996 . S
O76 C83 1.257 . S
C77 O72 1.254 . S
C77 O73 1.269 . S
C78 O79 1.249 . S
C78 O80 1.270 . S
O79 Zn71 1.943 . S
O79 C78 1.249 . S
O80 Zn70 2.067 . S
O80 C78 1.270 . S
C81 O74 1.262 . S
C81 O82 1.232 . S
O82 C81 1.232 . S
C83 O75 1.260 . S
C83 O76 1.257 . S
Zn84 O87 2.031 . S
Zn84 O89 2.049 . S
Zn84 O94 2.067 . S
Zn85 O86 1.962 . S
Zn85 O88 1.986 . S
Zn85 O90 1.996 . S
Zn85 O93 1.943 . S
O86 Zn85 1.962 . S
O86 C91 1.254 . S
O87 Zn84 2.031 . S
O87 C91 1.269 . S
O88 Zn85 1.986 . S
O88 C95 1.262 . S
O89 Zn84 2.049 . S
O89 C97 1.260 . S
O90 Zn85 1.996 . S
O90 C97 1.257 . S
C91 O86 1.254 . S
C91 O87 1.269 . S
C92 O93 1.249 . S
C92 O94 1.270 . S
O93 Zn85 1.943 . S
O93 C92 1.249 . S
O94 Zn84 2.067 . S
O94 C92 1.270 . S
C95 O88 1.262 . S
C95 O96 1.232 . S
O96 C95 1.232 . S
C97 O89 1.260 . S
C97 O90 1.257 . S
Zn98 O101 2.031 . S
Zn98 O103 2.049 . S
Zn98 O108 2.067 . S
Zn99 O100 1.962 . S
Zn99 O102 1.986 . S
Zn99 O104 1.996 . S
Zn99 O107 1.943 . S
O100 Zn99 1.962 . S
O100 C105 1.254 . S
O101 Zn98 2.031 . S
O101 C105 1.269 . S
O102 Zn99 1.986 . S
O102 C109 1.262 . S
O103 Zn98 2.049 . S
O103 C111 1.260 . S
O104 Zn99 1.996 . S
O104 C111 1.257 . S
C105 O100 1.254 . S
C105 O101 1.269 . S
C106 O107 1.249 . S
C106 O108 1.270 . S
O107 Zn99 1.943 . S
O107 C106 1.249 . S
O108 Zn98 2.067 . S
O108 C106 1.270 . S
C109 O102 1.262 . S
C109 O110 1.232 . S
O110 C109 1.232 . S
C111 O103 1.260 . S
C111 O104 1.257 . S
Zn112 O115 2.031 . S
Zn112 O117 2.049 . S
Zn112 O122 2.067 . S
Zn113 O114 1.962 . S
Zn113 O116 1.986 . S
Zn113 O118 1.996 . S
Zn113 O121 1.943 . S
O114 Zn113 1.962 . S
O114 C119 1.254 . S
O115 Zn112 2.031 . S
O115 C119 1.269 . S
O116 Zn113 1.986 . S
O116 C123 1.262 . S
O117 Zn112 2.049 . S
O117 C125 1.260 . S
O118 Zn113 1.996 . S
O118 C125 1.257 . S
C119 O114 1.254 . S
C119 O115 1.269 . S
C120 O121 1.249 . S
C120 O122 1.270 . S
O121 Zn113 1.943 . S
O121 C120 1.249 . S
O122 Zn112 2.067 . S
O122 C120 1.270 . S
C123 O116 1.262 . S
C123 O124 1.232 . S
O124 C123 1.232 . S
C125 O117 1.260 . S
C125 O118 1.257 . S
Zn126 O129 2.031 . S
Zn126 O131 2.049 . S
Zn126 O136 2.067 . S
Zn127 O128 1.962 . S
Zn127 O130 1.986 . S
Zn127 O132 1.996 . S
Zn127 O135 1.943 . S
O128 Zn127 1.962 . S
O128 C133 1.254 . S
O129 Zn126 2.031 . S
O129 C133 1.269 . S
O130 Zn127 1.986 . S
O130 C137 1.262 . S
O131 Zn126 2.049 . S
O131 C139 1.260 . S
O132 Zn127 1.996 . S
O132 C139 1.257 . S
C133 O128 1.254 . S
C133 O129 1.269 . S
C134 O135 1.249 . S
C134 O136 1.270 . S
O135 Zn127 1.943 . S
O135 C134 1.249 . S
O136 Zn126 2.067 . S
O136 C134 1.270 . S
C137 O130 1.262 . S
C137 O138 1.232 . S
O138 C137 1.232 . S
C139 O131 1.260 . S
C139 O132 1.257 . S
Zn140 O143 2.031 . S
Zn140 O145 2.049 . S
Zn140 O150 2.067 . S
Zn141 O142 1.962 . S
Zn141 O144 1.986 . S
Zn141 O146 1.996 . S
Zn141 O149 1.943 . S
O142 Zn141 1.962 . S
O142 C147 1.254 . S
O143 Zn140 2.031 . S
O143 C147 1.269 . S
O144 Zn141 1.986 . S
O144 C151 1.262 . S
O145 Zn140 2.049 . S
O145 C153 1.260 . S
O146 Zn141 1.996 . S
O146 C153 1.257 . S
C147 O142 1.254 . S
C147 O143 1.269 . S
C148 O149 1.249 . S
C148 O150 1.270 . S
O149 Zn141 1.943 . S
O149 C148 1.249 . S
O150 Zn140 2.067 . S
O150 C148 1.270 . S
C151 O144 1.262 . S
C151 O152 1.232 . S
O152 C151 1.232 . S
C153 O145 1.260 . S
C153 O146 1.257 . S
Zn154 O157 2.031 . S
Zn154 O159 2.049 . S
Zn154 O164 2.067 . S
Zn155 O156 1.962 . S
Zn155 O158 1.986 . S
Zn155 O160 1.996 . S
Zn155 O163 1.943 . S
O156 Zn155 1.962 . S
O156 C161 1.254 . S
O157 Zn154 2.031 . S
O157 C161 1.269 . S
O158 Zn155 1.986 . S
O158 C165 1.262 . S
O159 Zn154 2.049 . S
O159 C167 1.260 . S
O160 Zn155 1.996 . S
O160 C167 1.257 . S
C161 O156 1.254 . S
C161 O157 1.269 . S
C162 O163 1.249 . S
C162 O164 1.270 . S
O163 Zn155 1.943 . S
O163 C162 1.249 . S
O164 Zn154 2.067 . S
O164 C162 1.270 . S
C165 O158 1.262 . S
C165 O166 1.232 . S
O166 C165 1.232 . S
C167 O159 1.260 . S
C167 O160 1.257 . S
Zn168 O171 2.031 . S
Zn168 O173 2.049 . S
Zn168 O178 2.067 . S
Zn169 O170 1.962 . S
Zn169 O172 1.986 . S
Zn169 O174 1.996 . S
Zn169 O177 1.943 . S
O170 Zn169 1.962 . S
O170 C175 1.254 . S
O171 Zn168 2.031 . S
O171 C175 1.269 . S
O172 Zn169 1.986 . S
O172 C179 1.262 . S
O173 Zn168 2.049 . S
O173 C181 1.260 . S
O174 Zn169 1.996 . S
O174 C181 1.257 . S
C175 O170 1.254 . S
C175 O171 1.269 . S
C176 O177 1.249 . S
C176 O178 1.270 . S
O177 Zn169 1.943 . S
O177 C176 1.249 . S
O178 Zn168 2.067 . S
O178 C176 1.270 . S
C179 O172 1.262 . S
C179 O180 1.232 . S
O180 C179 1.232 . S
C181 O173 1.260 . S
C181 O174 1.257 . S
Zn182 O185 2.031 . S
Zn182 O187 2.049 . S
Zn182 O192 2.067 . S
Zn183 O184 1.962 . S
Zn183 O186 1.986 . S
Zn183 O188 1.996 . S
Zn183 O191 1.943 . S
O184 Zn183 1.962 . S
O184 C189 1.254 . S
O185 Zn182 2.031 . S
O185 C189 1.269 . S
O186 Zn183 1.986 . S
O186 C193 1.262 . S
O187 Zn182 2.049 . S
O187 C195 1.260 . S
O188 Zn183 1.996 . S
O188 C195 1.257 . S
C189 O184 1.254 . S
C189 O185 1.269 . S
C190 O191 1.249 . S
C190 O192 1.270 . S
O191 Zn183 1.943 . S
O191 C190 1.249 . S
O192 Zn182 2.067 . S
O192 C190 1.270 . S
C193 O186 1.262 . S
C193 O194 1.232 . S
O194 C193 1.232 . S
C195 O187 1.260 . S
C195 O188 1.257 . S
Zn196 O199 2.031 . S
Zn196 O201 2.049 . S
Zn196 O206 2.067 . S
Zn197 O198 1.962 . S
Zn197 O200 1.986 . S
Zn197 O202 1.996 . S
Zn197 O205 1.943 . S
O198 Zn197 1.962 . S
O198 C203 1.254 . S
O199 Zn196 2.031 . S
O199 C203 1.269 . S
O200 Zn197 1.986 . S
O200 C207 1.262 . S
O201 Zn196 2.049 . S
O201 C209 1.260 . S
O202 Zn197 1.996 . S
O202 C209 1.257 . S
C203 O198 1.254 . S
C203 O199 1.269 . S
C204 O205 1.249 . S
C204 O206 1.270 . S
O205 Zn197 1.943 . S
O205 C204 1.249 . S
O206 Zn196 2.067 . S
O206 C204 1.270 . S
C207 O200 1.262 . S
C207 O208 1.232 . S
O208 C207 1.232 . S
C209 O201 1.260 . S
C209 O202 1.257 . S
Zn210 O213 2.031 . S
Zn210 O215 2.049 . S
Zn210 O220 2.067 . S
Zn211 O212 1.962 . S
Zn211 O214 1.986 . S
Zn211 O216 1.996 . S
Zn211 O219 1.943 . S
O212 Zn211 1.962 . S
O212 C217 1.254 . S
O213 Zn210 2.031 . S
O213 C217 1.269 . S
O214 Zn211 1.986 . S
O214 C221 1.262 . S
O215 Zn210 2.049 . S
O215 C223 1.260 . S
O216 Zn211 1.996 . S
O216 C223 1.257 . S
C217 O212 1.254 . S
C217 O213 1.269 . S
C218 O219 1.249 . S
C218 O220 1.270 . S
O219 Zn211 1.943 . S
O219 C218 1.249 . S
O220 Zn210 2.067 . S
O220 C218 1.270 . S
C221 O214 1.262 . S
C221 O222 1.232 . S
O222 C221 1.232 . S
C223 O215 1.260 . S
C223 O216 1.257 . S
Zn224 O227 2.031 . S
Zn224 O229 2.049 . S
Zn224 O234 2.067 . S
Zn225 O226 1.962 . S
Zn225 O228 1.986 . S
Zn225 O230 1.996 . S
Zn225 O233 1.943 . S
O226 Zn225 1.962 . S
O226 C231 1.254 . S
O227 Zn224 2.031 . S
O227 C231 1.269 . S
O228 Zn225 1.986 . S
O228 C235 1.262 . S
O229 Zn224 2.049 . S
O229 C237 1.260 . S
O230 Zn225 1.996 . S
O230 C237 1.257 . S
C231 O226 1.254 . S
C231 O227 1.269 . S
C232 O233 1.249 . S
C232 O234 1.270 . S
O233 Zn225 1.943 . S
O233 C232 1.249 . S
O234 Zn224 2.067 . S
O234 C232 1.270 . S
C235 O228 1.262 . S
C235 O236 1.232 . S
O236 C235 1.232 . S
C237 O229 1.260 . S
C237 O230 1.257 . S
Zn238 O241 2.031 . S
Zn238 O243 2.049 . S
Zn238 O248 2.067 . S
Zn239 O240 1.962 . S
Zn239 O242 1.986 . S
Zn239 O244 1.996 . S
Zn239 O247 1.943 . S
O240 Zn239 1.962 . S
O240 C245 1.254 . S
O241 Zn238 2.031 . S
O241 C245 1.269 . S
O242 Zn239 1.986 . S
O242 C249 1.262 . S
O243 Zn238 2.049 . S
O243 C251 1.260 . S
O244 Zn239 1.996 . S
O244 C251 1.257 . S
C245 O240 1.254 . S
C245 O241 1.269 . S
C246 O247 1.249 . S
C246 O248 1.270 . S
O247 Zn239 1.943 . S
O247 C246 1.249 . S
O248 Zn238 2.067 . S
O248 C246 1.270 . S
C249 O242 1.262 . S
C249 O250 1.232 . S
O250 C249 1.232 . S
C251 O243 1.260 . S
C251 O244 1.257 . S
Zn252 O255 2.031 . S
Zn252 O257 2.049 . S
Zn252 O262 2.067 . S
Zn253 O254 1.962 . S
Zn253 O256 1.986 . S
Zn253 O258 1.996 . S
Zn253 O261 1.943 . S
O254 Zn253 1.962 . S
O254 C259 1.254 . S
O255 Zn252 2.031 . S
O255 C259 1.269 . S
O256 Zn253 1.986 . S
O256 C263 1.262 . S
O257 Zn252 2.049 . S
O257 C265 1.260 . S
O258 Zn253 1.996 . S
O258 C265 1.257 . S
C259 O254 1.254 . S
C259 O255 1.269 . S
C260 O261 1.249 . S
C260 O262 1.270 . S
O261 Zn253 1.943 . S
O261 C260 1.249 . S
O262 Zn252 2.067 . S
O262 C260 1.270 . S
C263 O256 1.262 . S
C263 O264 1.232 . S
O264 C263 1.232 . S
C265 O257 1.260 . S
C265 O258 1.257 . S
Zn266 O269 2.031 . S
Zn266 O271 2.049 . S
Zn266 O276 2.067 . S
Zn267 O268 1.962 . S
Zn267 O270 1.986 . S
Zn267 O272 1.996 . S
Zn267 O275 1.943 . S
O268 Zn267 1.962 . S
O268 C273 1.254 . S
O269 Zn266 2.031 . S
O269 C273 1.269 . S
O270 Zn267 1.986 . S
O270 C277 1.262 . S
O271 Zn266 2.049 . S
O271 C279 1.260 . S
O272 Zn267 1.996 . S
O272 C279 1.257 . S
C273 O268 1.254 . S
C273 O269 1.269 . S
C274 O275 1.249 . S
C274 O276 1.270 . S
O275 Zn267 1.943 . S
O275 C274 1.249 . S
O276 Zn266 2.067 . S
O276 C274 1.270 . S
C277 O270 1.262 . S
C277 O278 1.232 . S
O278 C277 1.232 . S
C279 O271 1.260 . S
C279 O272 1.257 . S
Zn280 O283 2.031 . S
Zn280 O285 2.049 . S
Zn280 O290 2.067 . S
Zn281 O282 1.962 . S
Zn281 O284 1.986 . S
Zn281 O286 1.996 . S
Zn281 O289 1.943 . S
O282 Zn281 1.962 . S
O282 C287 1.254 . S
O283 Zn280 2.031 . S
O283 C287 1.269 . S
O284 Zn281 1.986 . S
O284 C291 1.262 . S
O285 Zn280 2.049 . S
O285 C293 1.260 . S
O286 Zn281 1.996 . S
O286 C293 1.257 . S
C287 O282 1.254 . S
C287 O283 1.269 . S
C288 O289 1.249 . S
C288 O290 1.270 . S
O289 Zn281 1.943 . S
O289 C288 1.249 . S
O290 Zn280 2.067 . S
O290 C288 1.270 . S
C291 O284 1.262 . S
C291 O292 1.232 . S
O292 C291 1.232 . S
C293 O285 1.260 . S
C293 O286 1.257 . S
Zn294 O297 2.031 . S
Zn294 O299 2.049 . S
Zn294 O304 2.067 . S
Zn295 O296 1.962 . S
Zn295 O298 1.986 . S
Zn295 O300 1.996 . S
Zn295 O303 1.943 . S
O296 Zn295 1.962 . S
O296 C301 1.254 . S
O297 Zn294 2.031 . S
O297 C301 1.269 . S
O298 Zn295 1.986 . S
O298 C305 1.262 . S
O299 Zn294 2.049 . S
O299 C307 1.260 . S
O300 Zn295 1.996 . S
O300 C307 1.257 . S
C301 O296 1.254 . S
C301 O297 1.269 . S
C302 O303 1.249 . S
C302 O304 1.270 . S
O303 Zn295 1.943 . S
O303 C302 1.249 . S
O304 Zn294 2.067 . S
O304 C302 1.270 . S
C305 O298 1.262 . S
C305 O306 1.232 . S
O306 C305 1.232 . S
C307 O299 1.260 . S
C307 O300 1.257 . S
Zn308 O311 2.031 . S
Zn308 O313 2.049 . S
Zn308 O318 2.067 . S
Zn309 O310 1.962 . S
Zn309 O312 1.986 . S
Zn309 O314 1.996 . S
Zn309 O317 1.943 . S
O310 Zn309 1.962 . S
O310 C315 1.254 . S
O311 Zn308 2.031 . S
O311 C315 1.269 . S
O312 Zn309 1.986 . S
O312 C319 1.262 . S
O313 Zn308 2.049 . S
O313 C321 1.260 . S
O314 Zn309 1.996 . S
O314 C321 1.257 . S
C315 O310 1.254 . S
C315 O311 1.269 . S
C316 O317 1.249 . S
C316 O318 1.270 . S
O317 Zn309 1.943 . S
O317 C316 1.249 . S
O318 Zn308 2.067 . S
O318 C316 1.270 . S
C319 O312 1.262 . S
C319 O320 1.232 . S
O320 C319 1.232 . S
C321 O313 1.260 . S
C321 O314 1.257 . S
Zn322 O325 2.031 . S
Zn322 O327 2.049 . S
Zn322 O332 2.067 . S
Zn323 O324 1.962 . S
Zn323 O326 1.986 . S
Zn323 O328 1.996 . S
Zn323 O331 1.943 . S
O324 Zn323 1.962 . S
O324 C329 1.254 . S
O325 Zn322 2.031 . S
O325 C329 1.269 . S
O326 Zn323 1.986 . S
O326 C333 1.262 . S
O327 Zn322 2.049 . S
O327 C335 1.260 . S
O328 Zn323 1.996 . S
O328 C335 1.257 . S
C329 O324 1.254 . S
C329 O325 1.269 . S
C330 O331 1.249 . S
C330 O332 1.270 . S
O331 Zn323 1.943 . S
O331 C330 1.249 . S
O332 Zn322 2.067 . S
O332 C330 1.270 . S
C333 O326 1.262 . S
C333 O334 1.232 . S
O334 C333 1.232 . S
C335 O327 1.260 . S
C335 O328 1.257 . S
Zn336 O339 2.031 . S
Zn336 O341 2.049 . S
Zn336 O346 2.067 . S
Zn337 O338 1.962 . S
Zn337 O340 1.986 . S
Zn337 O342 1.996 . S
Zn337 O345 1.943 . S
O338 Zn337 1.962 . S
O338 C343 1.254 . S
O339 Zn336 2.031 . S
O339 C343 1.269 . S
O340 Zn337 1.986 . S
O340 C347 1.262 . S
O341 Zn336 2.049 . S
O341 C349 1.260 . S
O342 Zn337 1.996 . S
O342 C349 1.257 . S
C343 O338 1.254 . S
C343 O339 1.269 . S
C344 O345 1.249 . S
C344 O346 1.270 . S
O345 Zn337 1.943 . S
O345 C344 1.249 . S
O346 Zn336 2.067 . S
O346 C344 1.270 . S
C347 O340 1.262 . S
C347 O348 1.232 . S
O348 C347 1.232 . S
C349 O341 1.260 . S
C349 O342 1.257 . S
Zn350 O353 2.031 . S
Zn350 O355 2.049 . S
Zn350 O360 2.067 . S
Zn351 O352 1.962 . S
Zn351 O354 1.986 . S
Zn351 O356 1.996 . S
Zn351 O359 1.943 . S
O352 Zn351 1.962 . S
O352 C357 1.254 . S
O353 Zn350 2.031 . S
O353 C357 1.269 . S
O354 Zn351 1.986 . S
O354 C361 1.262 . S
O355 Zn350 2.049 . S
O355 C363 1.260 . S
O356 Zn351 1.996 . S
O356 C363 1.257 . S
C357 O352 1.254 . S
C357 O353 1.269 . S
C358 O359 1.249 . S
C358 O360 1.270 . S
O359 Zn351 1.943 . S
O359 C358 1.249 . S
O360 Zn350 2.067 . S
O360 C358 1.270 . S
C361 O354 1.262 . S
C361 O362 1.232 . S
O362 C361 1.232 . S
C363 O355 1.260 . S
C363 O356 1.257 . S
Zn364 O367 2.031 . S
Zn364 O369 2.049 . S
Zn364 O374 2.067 . S
Zn365 O366 1.962 . S
Zn365 O368 1.986 . S
Zn365 O370 1.996 . S
Zn365 O373 1.943 . S
O366 Zn365 1.962 . S
O366 C371 1.254 . S
O367 Zn364 2.031 . S
O367 C371 1.269 . S
O368 Zn365 1.986 . S
O368 C375 1.262 . S
O369 Zn364 2.049 . S
O369 C377 1.260 . S
O370 Zn365 1.996 . S
O370 C377 1.257 . S
C371 O366 1.254 . S
C371 O367 1.269 . S
C372 O373 1.249 . S
C372 O374 1.270 . S
O373 Zn365 1.943 . S
O373 C372 1.249 . S
O374 Zn364 2.067 . S
O374 C372 1.270 . S
C375 O368 1.262 . S
C375 O376 1.232 . S
O376 C375 1.232 . S
C377 O369 1.260 . S
C377 O370 1.257 . S
Zn378 O381 2.031 . S
Zn378 O383 2.049 . S
Zn378 O388 2.067 . S
Zn379 O380 1.962 . S
Zn379 O382 1.986 . S
Zn379 O384 1.996 . S
Zn379 O387 1.943 . S
O380 Zn379 1.962 . S
O380 C385 1.254 . S
O381 Zn378 2.031 . S
O381 C385 1.269 . S
O382 Zn379 1.986 . S
O382 C389 1.262 . S
O383 Zn378 2.049 . S
O383 C391 1.260 . S
O384 Zn379 1.996 . S
O384 C391 1.257 . S
C385 O380 1.254 . S
C385 O381 1.269 . S
C386 O387 1.249 . S
C386 O388 1.270 . S
O387 Zn379 1.943 . S
O387 C386 1.249 . S
O388 Zn378 2.067 . S
O388 C386 1.270 . S
C389 O382 1.262 . S
C389 O390 1.232 . S
O390 C389 1.232 . S
C391 O383 1.260 . S
C391 O384 1.257 . S
Zn392 O395 2.031 . S
Zn392 O397 2.049 . S
Zn392 O402 2.067 . S
Zn393 O394 1.962 . S
Zn393 O396 1.986 . S
Zn393 O398 1.996 . S
Zn393 O401 1.943 . S
O394 Zn393 1.962 . S
O394 C399 1.254 . S
O395 Zn392 2.031 . S
O395 C399 1.269 . S
O396 Zn393 1.986 . S
O396 C403 1.262 . S
O397 Zn392 2.049 . S
O397 C405 1.260 . S
O398 Zn393 1.996 . S
O398 C405 1.257 . S
C399 O394 1.254 . S
C399 O395 1.269 . S
C400 O401 1.249 . S
C400 O402 1.270 . S
O401 Zn393 1.943 . S
O401 C400 1.249 . S
O402 Zn392 2.067 . S
O402 C400 1.270 . S
C403 O396 1.262 . S
C403 O404 1.232 . S
O404 C403 1.232 . S
C405 O397 1.260 . S
C405 O398 1.257 . S
Zn406 O409 2.031 . S
Zn406 O411 2.049 . S
Zn406 O416 2.067 . S
Zn407 O408 1.962 . S
Zn407 O410 1.986 . S
Zn407 O412 1.996 . S
Zn407 O415 1.943 . S
O408 Zn407 1.962 . S
O408 C413 1.254 . S
O409 Zn406 2.031 . S
O409 C413 1.269 . S
O410 Zn407 1.986 . S
O410 C417 1.262 . S
O411 Zn406 2.049 . S
O411 C419 1.260 . S
O412 Zn407 1.996 . S
O412 C419 1.257 . S
C413 O408 1.254 . S
C413 O409 1.269 . S
C414 O415 1.249 . S
C414 O416 1.270 . S
O415 Zn407 1.943 . S
O415 C414 1.249 . S
O416 Zn406 2.067 . S
O416 C414 1.270 . S
C417 O410 1.262 . S
C417 O418 1.232 . S
O418 C417 1.232 . S
C419 O411 1.260 . S
C419 O412 1.257 . S
Zn420 O423 2.031 . S
Zn420 O425 2.049 . S
Zn420 O430 2.067 . S
Zn421 O422 1.962 . S
Zn421 O424 1.986 . S
Zn421 O426 1.996 . S
Zn421 O429 1.943 . S
O422 Zn421 1.962 . S
O422 C427 1.254 . S
O423 Zn420 2.031 . S
O423 C427 1.269 . S
O424 Zn421 1.986 . S
O424 C431 1.262 . S
O425 Zn420 2.049 . S
O425 C433 1.260 . S
O426 Zn421 1.996 . S
O426 C433 1.257 . S
C427 O422 1.254 . S
C427 O423 1.269 . S
C428 O429 1.249 . S
C428 O430 1.270 . S
O429 Zn421 1.943 . S
O429 C428 1.249 . S
O430 Zn420 2.067 . S
O430 C428 1.270 . S
C431 O424 1.262 . S
C431 O432 1.232 . S
O432 C431 1.232 . S
C433 O425 1.260 . S
C433 O426 1.257 . S
Zn434 O437 2.031 . S
Zn434 O439 2.049 . S
Zn434 O444 2.067 . S
Zn435 O436 1.962 . S
Zn435 O438 1.986 . S
Zn435 O440 1.996 . S
Zn435 O443 1.943 . S
O436 Zn435 1.962 . S
O436 C441 1.254 . S
O437 Zn434 2.031 . S
O437 C441 1.269 . S
O438 Zn435 1.986 . S
O438 C445 1.262 . S
O439 Zn434 2.049 . S
O439 C447 1.260 . S
O440 Zn435 1.996 . S
O440 C447 1.257 . S
C441 O436 1.254 . S
C441 O437 1.269 . S
C442 O443 1.249 . S
C442 O444 1.270 . S
O443 Zn435 1.943 . S
O443 C442 1.249 . S
O444 Zn434 2.067 . S
O444 C442 1.270 . S
C445 O438 1.262 . S
C445 O446 1.232 . S
O446 C445 1.232 . S
C447 O439 1.260 . S
C447 O440 1.257 . S
H448 C456 0.929 . S
H449 C458 0.930 1_655 S
H450 C460 0.930 . S
H451 C463 0.929 . S
H452 C466 0.941 . S
H453 C468 0.960 . S
H454 C468 0.972 . S
H455 C468 0.960 1_455 S
C456 H448 0.929 . S
C456 C457 1.377 . S
C456 C458 1.384 . S
C457 C456 1.377 . S
C457 C463 1.390 . S
C458 H449 0.930 1_455 S
C458 C456 1.384 . S
C458 C459 1.372 . S
C459 C458 1.372 . S
C459 C460 1.400 . S
C459 C464 1.480 1_455 S
C460 H450 0.930 . S
C460 C459 1.400 . S
C460 C463 1.386 . S
H461 C477 0.930 . S
H462 C478 0.931 . S
C463 H451 0.929 . S
C463 C457 1.390 . S
C463 C460 1.386 . S
C464 C459 1.480 1_655 S
C464 C466 1.399 1_554 S
C464 C467 1.417 . S
H465 C471 0.930 . S
C466 H452 0.941 . S
C466 C464 1.399 1_556 S
C466 C469 1.403 . S
C467 C464 1.417 . S
C467 C468 1.520 1_545 S
C467 C471 1.395 1_545 S
C468 H453 0.960 . S
C468 H454 0.972 . S
C468 H455 0.960 1_655 S
C468 C467 1.520 1_565 S
C469 C466 1.403 . S
C469 C470 1.392 1_545 S
C469 C473 1.495 . S
C470 C469 1.392 1_565 S
C470 C471 1.385 1_556 S
C470 C472 1.478 . S
C471 H465 0.930 . S
C471 C467 1.395 1_565 S
C471 C470 1.385 1_554 S
C472 C470 1.478 . S
C472 C474 1.381 . S
C472 C478 1.383 . S
C473 C469 1.495 . S
C473 H479 0.959 . S
C473 H480 0.961 . S
C473 H481 0.960 . S
C474 C472 1.381 . S
C474 C475 1.394 . S
C474 H482 0.930 1_565 S
C475 C474 1.394 . S
C475 C476 1.383 . S
C475 H483 0.929 . S
C476 C475 1.383 . S
C476 C477 1.377 . S
C477 H461 0.930 . S
C477 C476 1.377 . S
C477 C478 1.379 . S
C478 H462 0.931 . S
C478 C472 1.383 . S
C478 C477 1.379 . S
H479 C473 0.959 . S
H480 C473 0.961 . S
H481 C473 0.960 . S
H482 C474 0.930 1_545 S
H483 C475 0.929 . S
H484 C492 0.929 . S
H485 C494 0.930 . S
H486 C496 0.930 . S
H487 C499 0.929 . S
H488 C502 0.930 . S
H489 C504 0.960 . S
H490 C504 0.960 . S
H491 C504 0.960 . S
C492 H484 0.929 . S
C492 C493 1.377 . S
C492 C494 1.384 . S
C493 C492 1.377 . S
C493 C499 1.390 . S
C494 H485 0.930 . S
C494 C492 1.384 . S
C494 C495 1.372 . S
C495 C494 1.372 . S
C495 C496 1.400 . S
C495 C500 1.490 . S
C496 H486 0.930 . S
C496 C495 1.400 . S
C496 C499 1.386 . S
H497 C513 0.930 . S
H498 C514 0.931 . S
C499 H487 0.929 . S
C499 C493 1.390 . S
C499 C496 1.386 . S
C500 C495 1.490 . S
C500 C502 1.395 . S
C500 C503 1.403 . S
H501 C507 0.930 . S
C502 H488 0.930 . S
C502 C500 1.395 . S
C502 C505 1.403 . S
C503 C500 1.403 . S
C503 C504 1.524 . S
C503 C507 1.400 . S
C504 H489 0.960 . S
C504 H490 0.960 . S
C504 H491 0.960 . S
C504 C503 1.524 . S
C505 C502 1.403 . S
C505 C506 1.392 . S
C505 C509 1.495 . S
C506 C505 1.392 . S
C506 C507 1.385 . S
C506 C508 1.478 . S
C507 H501 0.930 . S
C507 C503 1.400 . S
C507 C506 1.385 . S
C508 C506 1.478 . S
C508 C510 1.381 . S
C508 C514 1.383 . S
C509 C505 1.495 . S
C509 H515 0.959 . S
C509 H516 0.961 . S
C509 H517 0.960 . S
C510 C508 1.381 . S
C510 C511 1.394 . S
C510 H518 0.930 . S
C511 C510 1.394 . S
C511 C512 1.383 . S
C511 H519 0.929 . S
C512 C511 1.383 . S
C512 C513 1.377 . S
C513 H497 0.930 . S
C513 C512 1.377 . S
C513 C514 1.379 . S
C514 H498 0.931 . S
C514 C508 1.383 . S
C514 C513 1.379 . S
H515 C509 0.959 . S
H516 C509 0.961 . S
H517 C509 0.960 . S
H518 C510 0.930 . S
H519 C511 0.929 . S
H520 C528 0.929 . S
H521 C530 0.930 . S
H522 C532 0.930 . S
H523 C535 0.929 . S
H524 C538 0.930 . S
H525 C540 0.960 . S
H526 C540 0.960 . S
H527 C540 0.960 . S
C528 H520 0.929 . S
C528 C529 1.377 . S
C528 C530 1.384 . S
C529 C528 1.377 . S
C529 C535 1.390 . S
C530 H521 0.930 . S
C530 C528 1.384 . S
C530 C531 1.372 . S
C531 C530 1.372 . S
C531 C532 1.400 . S
C531 C536 1.490 . S
C532 H522 0.930 . S
C532 C531 1.400 . S
C532 C535 1.386 . S
H533 C549 0.930 . S
H534 C550 0.931 . S
C535 H523 0.929 . S
C535 C529 1.390 . S
C535 C532 1.386 . S
C536 C531 1.490 . S
C536 C538 1.395 . S
C536 C539 1.403 1_565 S
H537 C543 0.930 . S
C538 H524 0.930 . S
C538 C536 1.395 . S
C538 C541 1.403 . S
C539 C536 1.403 1_545 S
C539 C540 1.524 . S
C539 C543 1.400 . S
C540 H525 0.960 . S
C540 H526 0.960 . S
C540 H527 0.960 . S
C540 C539 1.524 . S
C541 C538 1.403 . S
C541 C542 1.392 1_565 S
C541 C545 1.495 . S
C542 C541 1.392 1_545 S
C542 C543 1.385 . S
C542 C544 1.478 . S
C543 H537 0.930 . S
C543 C539 1.400 . S
C543 C542 1.385 . S
C544 C542 1.478 . S
C544 C546 1.381 . S
C544 C550 1.383 . S
C545 C541 1.495 . S
C545 H551 0.959 . S
C545 H552 0.961 . S
C545 H553 0.960 . S
C546 C544 1.381 . S
C546 C547 1.394 . S
C546 H554 0.930 . S
C547 C546 1.394 . S
C547 C548 1.383 . S
C547 H555 0.929 . S
C548 C547 1.383 . S
C548 C549 1.377 . S
C549 H533 0.930 . S
C549 C548 1.377 . S
C549 C550 1.379 . S
C550 H534 0.931 . S
C550 C544 1.383 . S
C550 C549 1.379 . S
H551 C545 0.959 . S
H552 C545 0.961 . S
H553 C545 0.960 . S
H554 C546 0.930 . S
H555 C547 0.929 . S
H556 C564 0.929 . S
H557 C566 0.930 . S
H558 C568 0.930 . S
H559 C571 0.929 . S
H560 C574 0.930 . S
H561 C576 0.960 . S
H562 C576 0.960 . S
H563 C576 0.960 . S
C564 H556 0.929 . S
C564 C565 1.377 . S
C564 C566 1.384 . S
C565 C564 1.377 . S
C565 C571 1.390 . S
C566 H557 0.930 . S
C566 C564 1.384 . S
C566 C567 1.372 . S
C567 C566 1.372 . S
C567 C568 1.400 . S
C567 C572 1.490 . S
C568 H558 0.930 . S
C568 C567 1.400 . S
C568 C571 1.386 . S
H569 C585 0.930 . S
H570 C586 0.931 . S
C571 H559 0.929 . S
C571 C565 1.390 . S
C571 C568 1.386 . S
C572 C567 1.490 . S
C572 C574 1.395 . S
C572 C575 1.403 . S
H573 C579 0.930 . S
C574 H560 0.930 . S
C574 C572 1.395 . S
C574 C577 1.403 . S
C575 C572 1.403 . S
C575 C576 1.524 . S
C575 C579 1.400 . S
C576 H561 0.960 . S
C576 H562 0.960 . S
C576 H563 0.960 . S
C576 C575 1.524 . S
C577 C574 1.403 . S
C577 C578 1.392 . S
C577 C581 1.495 . S
C578 C577 1.392 . S
C578 C579 1.385 . S
C578 C580 1.478 . S
C579 H573 0.930 . S
C579 C575 1.400 . S
C579 C578 1.385 . S
C580 C578 1.478 . S
C580 C582 1.381 . S
C580 C586 1.383 . S
C581 C577 1.495 . S
C581 H587 0.959 . S
C581 H588 0.961 . S
C581 H589 0.960 . S
C582 C580 1.381 . S
C582 C583 1.394 . S
C582 H590 0.930 . S
C583 C582 1.394 . S
C583 C584 1.383 . S
C583 H591 0.929 . S
C584 C583 1.383 . S
C584 C585 1.377 . S
C585 H569 0.930 . S
C585 C584 1.377 . S
C585 C586 1.379 . S
C586 H570 0.931 . S
C586 C580 1.383 . S
C586 C585 1.379 . S
H587 C581 0.959 . S
H588 C581 0.961 . S
H589 C581 0.960 . S
H590 C582 0.930 . S
H591 C583 0.929 . S
H592 C600 0.929 . S
H593 C602 0.930 . S
H594 C604 0.930 . S
H595 C607 0.929 . S
H596 C610 0.930 . S
H597 C612 0.960 . S
H598 C612 0.960 . S
H599 C612 0.960 . S
C600 H592 0.929 . S
C600 C601 1.377 . S
C600 C602 1.384 . S
C601 C600 1.377 . S
C601 C607 1.390 . S
C602 H593 0.930 . S
C602 C600 1.384 . S
C602 C603 1.372 . S
C603 C602 1.372 . S
C603 C604 1.400 . S
C603 C608 1.490 . S
C604 H594 0.930 . S
C604 C603 1.400 . S
C604 C607 1.386 . S
H605 C621 0.930 . S
H606 C622 0.931 1_565 S
C607 H595 0.929 . S
C607 C601 1.390 . S
C607 C604 1.386 . S
C608 C603 1.490 . S
C608 C610 1.395 1_455 S
C608 C611 1.403 . S
H609 C615 0.930 . S
C610 H596 0.930 . S
C610 C608 1.395 1_655 S
C610 C613 1.403 1_565 S
C611 C608 1.403 . S
C611 C612 1.524 . S
C611 C615 1.400 . S
C612 H597 0.960 . S
C612 H598 0.960 . S
C612 H599 0.960 . S
C612 C611 1.524 . S
C613 C610 1.403 1_545 S
C613 C614 1.392 . S
C613 C617 1.495 . S
C614 C613 1.392 . S
C614 C615 1.385 1_645 S
C614 C616 1.478 . S
C615 H609 0.930 . S
C615 C611 1.400 . S
C615 C614 1.385 1_465 S
C616 C614 1.478 . S
C616 C618 1.381 . S
C616 C622 1.383 . S
C617 C613 1.495 . S
C617 H623 0.959 . S
C617 H624 0.961 . S
C617 H625 0.960 . S
C618 C616 1.381 . S
C618 C619 1.394 . S
C618 H626 0.930 . S
C619 C618 1.394 . S
C619 C620 1.383 . S
C619 H627 0.929 . S
C620 C619 1.383 . S
C620 C621 1.377 . S
C621 H605 0.930 . S
C621 C620 1.377 . S
C621 C622 1.379 . S
C622 H606 0.931 1_545 S
C622 C616 1.383 . S
C622 C621 1.379 . S
H623 C617 0.959 . S
H624 C617 0.961 . S
H625 C617 0.960 . S
H626 C618 0.930 . S
H627 C619 0.929 . S
H628 C636 0.929 . S
H629 C638 0.930 . S
H630 C640 0.930 . S
H631 C643 0.929 . S
H632 C646 0.930 . S
H633 C648 0.960 . S
H634 C648 0.960 . S
H635 C648 0.960 . S
C636 H628 0.929 . S
C636 C637 1.377 . S
C636 C638 1.384 . S
C637 C636 1.377 . S
C637 C643 1.390 . S
C638 H629 0.930 . S
C638 C636 1.384 . S
C638 C639 1.372 . S
C639 C638 1.372 . S
C639 C640 1.400 . S
C639 C644 1.490 . S
C640 H630 0.930 . S
C640 C639 1.400 . S
C640 C643 1.386 . S
H641 C657 0.930 . S
H642 C658 0.931 . S
C643 H631 0.929 . S
C643 C637 1.390 . S
C643 C640 1.386 . S
C644 C639 1.490 . S
C644 C646 1.395 . S
C644 C647 1.403 . S
H645 C651 0.930 . S
C646 H632 0.930 . S
C646 C644 1.395 . S
C646 C649 1.403 . S
C647 C644 1.403 . S
C647 C648 1.524 . S
C647 C651 1.400 . S
C648 H633 0.960 . S
C648 H634 0.960 . S
C648 H635 0.960 . S
C648 C647 1.524 . S
C649 C646 1.403 . S
C649 C650 1.392 . S
C649 C653 1.495 . S
C650 C649 1.392 . S
C650 C651 1.385 . S
C650 C652 1.478 . S
C651 H645 0.930 . S
C651 C647 1.400 . S
C651 C650 1.385 . S
C652 C650 1.478 . S
C652 C654 1.381 . S
C652 C658 1.383 . S
C653 C649 1.495 . S
C653 H659 0.959 . S
C653 H660 0.961 . S
C653 H661 0.960 . S
C654 C652 1.381 . S
C654 C655 1.394 . S
C654 H662 0.930 . S
C655 C654 1.394 . S
C655 C656 1.383 . S
C655 H663 0.929 . S
C656 C655 1.383 . S
C656 C657 1.377 . S
C657 H641 0.930 . S
C657 C656 1.377 . S
C657 C658 1.379 . S
C658 H642 0.931 . S
C658 C652 1.383 . S
C658 C657 1.379 . S
H659 C653 0.959 . S
H660 C653 0.961 . S
H661 C653 0.960 . S
H662 C654 0.930 . S
H663 C655 0.929 . S
H664 C672 0.929 . S
H665 C674 0.930 . S
H666 C676 0.930 . S
H667 C679 0.929 . S
H668 C682 0.931 . S
H669 C684 0.960 . S
H670 C684 0.960 . S
H671 C684 0.960 . S
C672 H664 0.929 . S
C672 C673 1.377 . S
C672 C674 1.384 . S
C673 C672 1.377 . S
C673 C679 1.390 . S
C674 H665 0.930 . S
C674 C672 1.384 . S
C674 C675 1.372 . S
C675 C674 1.372 . S
C675 C676 1.400 . S
C675 C680 1.490 . S
C676 H666 0.930 . S
C676 C675 1.400 . S
C676 C679 1.386 . S
H677 C693 0.930 . S
H678 C694 0.931 . S
C679 H667 0.929 . S
C679 C673 1.390 . S
C679 C676 1.386 . S
C680 C675 1.490 . S
C680 C682 1.389 1_556 S
C680 C683 1.403 1_545 S
H681 C687 0.930 . S
C682 H668 0.931 . S
C682 C680 1.389 1_554 S
C682 C685 1.408 . S
C683 C680 1.403 1_565 S
C683 C684 1.524 . S
C683 C687 1.400 . S
C684 H669 0.960 . S
C684 H670 0.960 . S
C684 H671 0.960 . S
C684 C683 1.524 . S
C685 C682 1.408 . S
C685 C686 1.392 1_545 S
C685 C689 1.495 . S
C686 C685 1.392 1_565 S
C686 C687 1.385 1_554 S
C686 C688 1.478 . S
C687 H681 0.930 . S
C687 C683 1.400 . S
C687 C686 1.385 1_556 S
C688 C686 1.478 . S
C688 C690 1.381 . S
C688 C694 1.383 . S
C689 C685 1.495 . S
C689 H695 0.959 . S
C689 H696 0.961 . S
C689 H697 0.960 . S
C690 C688 1.381 . S
C690 C691 1.394 . S
C690 H698 0.930 . S
C691 C690 1.394 . S
C691 C692 1.383 . S
C691 H699 0.929 . S
C692 C691 1.383 . S
C692 C693 1.377 . S
C693 H677 0.930 . S
C693 C692 1.377 . S
C693 C694 1.379 . S
C694 H678 0.931 . S
C694 C688 1.383 . S
C694 C693 1.379 . S
H695 C689 0.959 . S
H696 C689 0.961 . S
H697 C689 0.960 . S
H698 C690 0.930 . S
H699 C691 0.929 . S
H700 C708 0.929 . S
H701 C710 0.930 . S
H702 C712 0.930 . S
H703 C715 0.929 . S
H704 C718 0.930 . S
H705 C720 0.960 . S
H706 C720 0.960 . S
H707 C720 0.960 . S
C708 H700 0.929 . S
C708 C709 1.377 . S
C708 C710 1.384 . S
C709 C708 1.377 . S
C709 C715 1.390 . S
C710 H701 0.930 . S
C710 C708 1.384 . S
C710 C711 1.372 . S
C711 C710 1.372 . S
C711 C712 1.400 . S
C711 C716 1.490 . S
C712 H702 0.930 . S
C712 C711 1.400 . S
C712 C715 1.386 . S
H713 C729 0.930 . S
H714 C730 0.931 . S
C715 H703 0.929 . S
C715 C709 1.390 . S
C715 C712 1.386 . S
C716 C711 1.490 . S
C716 C718 1.395 . S
C716 C719 1.403 . S
H717 C723 0.930 . S
C718 H704 0.930 . S
C718 C716 1.395 . S
C718 C721 1.403 . S
C719 C716 1.403 . S
C719 C720 1.524 . S
C719 C723 1.400 . S
C720 H705 0.960 . S
C720 H706 0.960 . S
C720 H707 0.960 . S
C720 C719 1.524 . S
C721 C718 1.403 . S
C721 C722 1.392 . S
C721 C725 1.495 . S
C722 C721 1.392 . S
C722 C723 1.385 . S
C722 C724 1.478 . S
C723 H717 0.930 . S
C723 C719 1.400 . S
C723 C722 1.385 . S
C724 C722 1.478 . S
C724 C726 1.381 . S
C724 C730 1.383 . S
C725 C721 1.495 . S
C725 H731 0.959 . S
C725 H732 0.961 . S
C725 H733 0.960 . S
C726 C724 1.381 . S
C726 C727 1.394 . S
C726 H734 0.930 . S
C727 C726 1.394 . S
C727 C728 1.383 . S
C727 H735 0.929 . S
C728 C727 1.383 . S
C728 C729 1.377 . S
C729 H713 0.930 . S
C729 C728 1.377 . S
C729 C730 1.379 . S
C730 H714 0.931 . S
C730 C724 1.383 . S
C730 C729 1.379 . S
H731 C725 0.959 . S
H732 C725 0.961 . S
H733 C725 0.960 . S
H734 C726 0.930 . S
H735 C727 0.929 . S
H736 C744 0.929 . S
H737 C746 0.930 . S
H738 C748 0.930 . S
H739 C751 0.929 . S
H740 C754 0.930 . S
H741 C756 0.960 . S
H742 C756 0.960 . S
H743 C756 0.960 . S
C744 H736 0.929 . S
C744 C745 1.377 . S
C744 C746 1.384 . S
C745 C744 1.377 . S
C745 C751 1.390 . S
C746 H737 0.930 . S
C746 C744 1.384 . S
C746 C747 1.372 . S
C747 C746 1.372 . S
C747 C748 1.400 . S
C747 C752 1.490 . S
C748 H738 0.930 . S
C748 C747 1.400 . S
C748 C751 1.386 . S
H749 C765 0.930 . S
H750 C766 0.931 . S
C751 H739 0.929 . S
C751 C745 1.390 . S
C751 C748 1.386 . S
C752 C747 1.490 . S
C752 C754 1.395 1_554 S
C752 C755 1.403 . S
H753 C759 0.930 . S
C754 H740 0.930 . S
C754 C752 1.395 1_556 S
C754 C757 1.403 . S
C755 C752 1.403 . S
C755 C756 1.524 . S
C755 C759 1.400 . S
C756 H741 0.960 . S
C756 H742 0.960 . S
C756 H743 0.960 . S
C756 C755 1.524 . S
C757 C754 1.403 . S
C757 C758 1.392 . S
C757 C761 1.495 . S
C758 C757 1.392 . S
C758 C759 1.385 1_556 S
C758 C760 1.478 . S
C759 H753 0.930 . S
C759 C755 1.400 . S
C759 C758 1.385 1_554 S
C760 C758 1.478 . S
C760 C762 1.381 . S
C760 C766 1.383 . S
C761 C757 1.495 . S
C761 H767 0.959 . S
C761 H768 0.961 . S
C761 H769 0.960 . S
C762 C760 1.381 . S
C762 C763 1.394 . S
C762 H770 0.930 . S
C763 C762 1.394 . S
C763 C764 1.383 . S
C763 H771 0.929 . S
C764 C763 1.383 . S
C764 C765 1.377 . S
C765 H749 0.930 . S
C765 C764 1.377 . S
C765 C766 1.379 . S
C766 H750 0.931 . S
C766 C760 1.383 . S
C766 C765 1.379 . S
H767 C761 0.959 . S
H768 C761 0.961 . S
H769 C761 0.960 . S
H770 C762 0.930 . S
H771 C763 0.929 . S
H772 C780 0.929 . S
H773 C782 0.930 . S
H774 C784 0.930 . S
H775 C787 0.929 . S
H776 C790 0.930 . S
H777 C792 0.960 . S
H778 C792 0.960 . S
H779 C792 0.960 . S
C780 H772 0.929 . S
C780 C781 1.377 . S
C780 C782 1.384 . S
C781 C780 1.377 . S
C781 C787 1.390 . S
C782 H773 0.930 . S
C782 C780 1.384 . S
C782 C783 1.372 . S
C783 C782 1.372 . S
C783 C784 1.400 . S
C783 C788 1.490 . S
C784 H774 0.930 . S
C784 C783 1.400 . S
C784 C787 1.386 . S
H785 C801 0.930 . S
H786 C802 0.931 . S
C787 H775 0.929 . S
C787 C781 1.390 . S
C787 C784 1.386 . S
C788 C783 1.490 . S
C788 C790 1.395 . S
C788 C791 1.403 . S
H789 C795 0.930 . S
C790 H776 0.930 . S
C790 C788 1.395 . S
C790 C793 1.403 . S
C791 C788 1.403 . S
C791 C792 1.524 . S
C791 C795 1.400 . S
C792 H777 0.960 . S
C792 H778 0.960 . S
C792 H779 0.960 . S
C792 C791 1.524 . S
C793 C790 1.403 . S
C793 C794 1.392 . S
C793 C797 1.495 . S
C794 C793 1.392 . S
C794 C795 1.385 . S
C794 C796 1.478 . S
C795 H789 0.930 . S
C795 C791 1.400 . S
C795 C794 1.385 . S
C796 C794 1.478 . S
C796 C798 1.381 . S
C796 C802 1.383 . S
C797 C793 1.495 . S
C797 H803 0.959 . S
C797 H804 0.961 . S
C797 H805 0.960 . S
C798 C796 1.381 . S
C798 C799 1.394 . S
C798 H806 0.930 . S
C799 C798 1.394 . S
C799 C800 1.383 . S
C799 H807 0.929 . S
C800 C799 1.383 . S
C800 C801 1.377 . S
C801 H785 0.930 . S
C801 C800 1.377 . S
C801 C802 1.379 . S
C802 H786 0.931 . S
C802 C796 1.383 . S
C802 C801 1.379 . S
H803 C797 0.959 . S
H804 C797 0.961 . S
H805 C797 0.960 . S
H806 C798 0.930 . S
H807 C799 0.929 . S
H808 C816 0.929 . S
H809 C818 0.930 . S
H810 C820 0.930 . S
H811 C823 0.929 . S
H812 C826 0.930 . S
H813 C828 0.960 . S
H814 C828 0.960 . S
H815 C828 0.960 . S
C816 H808 0.929 . S
C816 C817 1.377 . S
C816 C818 1.384 . S
C817 C816 1.377 . S
C817 C823 1.390 . S
C818 H809 0.930 . S
C818 C816 1.384 . S
C818 C819 1.372 . S
C819 C818 1.372 . S
C819 C820 1.400 . S
C819 C824 1.490 . S
C820 H810 0.930 . S
C820 C819 1.400 . S
C820 C823 1.386 . S
H821 C837 0.930 . S
H822 C838 0.931 . S
C823 H811 0.929 . S
C823 C817 1.390 . S
C823 C820 1.386 . S
C824 C819 1.490 . S
C824 C826 1.395 1_455 S
C824 C827 1.403 . S
H825 C831 0.930 . S
C826 H812 0.930 . S
C826 C824 1.395 1_655 S
C826 C829 1.403 . S
C827 C824 1.403 . S
C827 C828 1.524 . S
C827 C831 1.400 . S
C828 H813 0.960 . S
C828 H814 0.960 . S
C828 H815 0.960 . S
C828 C827 1.524 . S
C829 C826 1.403 . S
C829 C830 1.392 . S
C829 C833 1.495 . S
C830 C829 1.392 . S
C830 C831 1.385 1_655 S
C830 C832 1.478 . S
C831 H825 0.930 . S
C831 C827 1.400 . S
C831 C830 1.385 1_455 S
C832 C830 1.478 . S
C832 C834 1.381 . S
C832 C838 1.383 . S
C833 C829 1.495 . S
C833 H839 0.959 . S
C833 H840 0.961 . S
C833 H841 0.960 . S
C834 C832 1.381 . S
C834 C835 1.394 . S
C834 H842 0.930 . S
C835 C834 1.394 . S
C835 C836 1.383 . S
C835 H843 0.929 . S
C836 C835 1.383 . S
C836 C837 1.377 . S
C837 H821 0.930 . S
C837 C836 1.377 . S
C837 C838 1.379 . S
C838 H822 0.931 . S
C838 C832 1.383 . S
C838 C837 1.379 . S
H839 C833 0.959 . S
H840 C833 0.961 . S
H841 C833 0.960 . S
H842 C834 0.930 . S
H843 C835 0.929 . S
H844 C852 0.929 . S
H845 C854 0.930 . S
H846 C856 0.930 . S
H847 C859 0.929 . S
H848 C862 0.930 . S
H849 C864 0.960 . S
H850 C864 0.960 . S
H851 C864 0.960 . S
C852 H844 0.929 . S
C852 C853 1.377 . S
C852 C854 1.384 . S
C853 C852 1.377 . S
C853 C859 1.390 . S
C854 H845 0.930 . S
C854 C852 1.384 . S
C854 C855 1.372 . S
C855 C854 1.372 . S
C855 C856 1.400 . S
C855 C860 1.490 . S
C856 H846 0.930 . S
C856 C855 1.400 . S
C856 C859 1.386 . S
H857 C873 0.930 . S
H858 C874 0.931 . S
C859 H847 0.929 . S
C859 C853 1.390 . S
C859 C856 1.386 . S
C860 C855 1.490 . S
C860 C862 1.395 . S
C860 C863 1.403 . S
H861 C867 0.930 . S
C862 H848 0.930 . S
C862 C860 1.395 . S
C862 C865 1.403 . S
C863 C860 1.403 . S
C863 C864 1.524 . S
C863 C867 1.400 . S
C864 H849 0.960 . S
C864 H850 0.960 . S
C864 H851 0.960 . S
C864 C863 1.524 . S
C865 C862 1.403 . S
C865 C866 1.392 . S
C865 C869 1.495 . S
C866 C865 1.392 . S
C866 C867 1.385 . S
C866 C868 1.478 . S
C867 H861 0.930 . S
C867 C863 1.400 . S
C867 C866 1.385 . S
C868 C866 1.478 . S
C868 C870 1.381 . S
C868 C874 1.383 . S
C869 C865 1.495 . S
C869 H875 0.959 . S
C869 H876 0.961 . S
C869 H877 0.960 . S
C870 C868 1.381 . S
C870 C871 1.394 . S
C870 H878 0.930 . S
C871 C870 1.394 . S
C871 C872 1.383 . S
C871 H879 0.929 . S
C872 C871 1.383 . S
C872 C873 1.377 . S
C873 H857 0.930 . S
C873 C872 1.377 . S
C873 C874 1.379 . S
C874 H858 0.931 . S
C874 C868 1.383 . S
C874 C873 1.379 . S
H875 C869 0.959 . S
H876 C869 0.961 . S
H877 C869 0.960 . S
H878 C870 0.930 . S
H879 C871 0.929 . S
H880 C888 0.929 . S
H881 C890 0.930 . S
H882 C892 0.930 . S
H883 C895 0.929 . S
H884 C898 0.930 . S
H885 C900 0.960 . S
H886 C900 0.960 . S
H887 C900 0.960 . S
C888 H880 0.929 . S
C888 C889 1.377 . S
C888 C890 1.384 . S
C889 C888 1.377 . S
C889 C895 1.390 . S
C890 H881 0.930 . S
C890 C888 1.384 . S
C890 C891 1.372 . S
C891 C890 1.372 . S
C891 C892 1.400 . S
C891 C896 1.490 . S
C892 H882 0.930 . S
C892 C891 1.400 . S
C892 C895 1.386 . S
H893 C909 0.930 . S
H894 C910 0.931 . S
C895 H883 0.929 . S
C895 C889 1.390 . S
C895 C892 1.386 . S
C896 C891 1.490 . S
C896 C898 1.395 . S
C896 C899 1.403 . S
H897 C903 0.930 . S
C898 H884 0.930 . S
C898 C896 1.395 . S
C898 C901 1.403 . S
C899 C896 1.403 . S
C899 C900 1.524 . S
C899 C903 1.400 . S
C900 H885 0.960 . S
C900 H886 0.960 . S
C900 H887 0.960 . S
C900 C899 1.524 . S
C901 C898 1.403 . S
C901 C902 1.392 . S
C901 C905 1.495 . S
C902 C901 1.392 . S
C902 C903 1.385 . S
C902 C904 1.478 . S
C903 H897 0.930 . S
C903 C899 1.400 . S
C903 C902 1.385 . S
C904 C902 1.478 . S
C904 C906 1.381 . S
C904 C910 1.383 . S
C905 C901 1.495 . S
C905 H911 0.959 . S
C905 H912 0.961 . S
C905 H913 0.960 . S
C906 C904 1.381 . S
C906 C907 1.394 . S
C906 H914 0.930 . S
C907 C906 1.394 . S
C907 C908 1.383 . S
C907 H915 0.929 . S
C908 C907 1.383 . S
C908 C909 1.377 . S
C909 H893 0.930 . S
C909 C908 1.377 . S
C909 C910 1.379 . S
C910 H894 0.931 . S
C910 C904 1.383 . S
C910 C909 1.379 . S
H911 C905 0.959 . S
H912 C905 0.961 . S
H913 C905 0.960 . S
H914 C906 0.930 . S
H915 C907 0.929 . S
H916 C924 0.929 . S
H917 C926 0.930 . S
H918 C928 0.930 . S
H919 C931 0.929 . S
H920 C934 0.930 . S
H921 C936 0.960 . S
H922 C936 0.960 . S
H923 C936 0.960 . S
C924 H916 0.929 . S
C924 C925 1.377 . S
C924 C926 1.384 . S
C925 C924 1.377 . S
C925 C931 1.390 . S
C926 H917 0.930 . S
C926 C924 1.384 . S
C926 C927 1.372 . S
C927 C926 1.372 . S
C927 C928 1.400 . S
C927 C932 1.490 . S
C928 H918 0.930 . S
C928 C927 1.400 . S
C928 C931 1.386 . S
H929 C945 0.930 . S
H930 C946 0.931 . S
C931 H919 0.929 . S
C931 C925 1.390 . S
C931 C928 1.386 . S
C932 C927 1.490 . S
C932 C934 1.395 . S
C932 C935 1.403 . S
H933 C939 0.930 . S
C934 H920 0.930 . S
C934 C932 1.395 . S
C934 C937 1.403 . S
C935 C932 1.403 . S
C935 C936 1.524 . S
C935 C939 1.400 . S
C936 H921 0.960 . S
C936 H922 0.960 . S
C936 H923 0.960 . S
C936 C935 1.524 . S
C937 C934 1.403 . S
C937 C938 1.392 . S
C937 C941 1.495 . S
C938 C937 1.392 . S
C938 C939 1.385 . S
C938 C940 1.478 . S
C939 H933 0.930 . S
C939 C935 1.400 . S
C939 C938 1.385 . S
C940 C938 1.478 . S
C940 C942 1.381 . S
C940 C946 1.383 . S
C941 C937 1.495 . S
C941 H947 0.959 . S
C941 H948 0.961 . S
C941 H949 0.960 . S
C942 C940 1.381 . S
C942 C943 1.394 . S
C942 H950 0.930 . S
C943 C942 1.394 . S
C943 C944 1.383 . S
C943 H951 0.929 . S
C944 C943 1.383 . S
C944 C945 1.377 . S
C945 H929 0.930 . S
C945 C944 1.377 . S
C945 C946 1.379 . S
C946 H930 0.931 . S
C946 C940 1.383 . S
C946 C945 1.379 . S
H947 C941 0.959 . S
H948 C941 0.961 . S
H949 C941 0.960 . S
H950 C942 0.930 . S
H951 C943 0.929 . S
H952 C960 0.929 . S
H953 C962 0.930 . S
H954 C964 0.930 . S
H955 C967 0.929 . S
H956 C970 0.930 . S
H957 C972 0.960 . S
H958 C972 0.960 . S
H959 C972 0.960 . S
C960 H952 0.929 . S
C960 C961 1.377 . S
C960 C962 1.384 . S
C961 C960 1.377 . S
C961 C967 1.390 . S
C962 H953 0.930 . S
C962 C960 1.384 . S
C962 C963 1.372 . S
C963 C962 1.372 . S
C963 C964 1.400 . S
C963 C968 1.490 . S
C964 H954 0.930 . S
C964 C963 1.400 . S
C964 C967 1.386 . S
H965 C981 0.930 . S
H966 C982 0.931 . S
C967 H955 0.929 . S
C967 C961 1.390 . S
C967 C964 1.386 . S
C968 C963 1.490 . S
C968 C970 1.395 . S
C968 C971 1.403 . S
H969 C975 0.930 . S
C970 H956 0.930 . S
C970 C968 1.395 . S
C970 C973 1.403 . S
C971 C968 1.403 . S
C971 C972 1.524 . S
C971 C975 1.400 . S
C972 H957 0.960 . S
C972 H958 0.960 . S
C972 H959 0.960 . S
C972 C971 1.524 . S
C973 C970 1.403 . S
C973 C974 1.392 . S
C973 C977 1.495 . S
C974 C973 1.392 . S
C974 C975 1.385 . S
C974 C976 1.478 . S
C975 H969 0.930 . S
C975 C971 1.400 . S
C975 C974 1.385 . S
C976 C974 1.478 . S
C976 C978 1.381 . S
C976 C982 1.383 . S
C977 C973 1.495 . S
C977 H983 0.959 . S
C977 H984 0.961 . S
C977 H985 0.960 . S
C978 C976 1.381 . S
C978 C979 1.394 . S
C978 H986 0.930 . S
C979 C978 1.394 . S
C979 C980 1.383 . S
C979 H987 0.929 . S
C980 C979 1.383 . S
C980 C981 1.377 . S
C981 H965 0.930 . S
C981 C980 1.377 . S
C981 C982 1.379 . S
C982 H966 0.931 . S
C982 C976 1.383 . S
C982 C981 1.379 . S
H983 C977 0.959 . S
H984 C977 0.961 . S
H985 C977 0.960 . S
H986 C978 0.930 . S
H987 C979 0.929 . S
H988 C996 0.929 . S
H989 C998 0.930 . S
H990 C1000 0.930 . S
H991 C1003 0.929 . S
H992 C1006 0.930 . S
H993 C1008 0.960 . S
H994 C1008 0.960 . S
H995 C1008 0.960 . S
C996 H988 0.929 . S
C996 C997 1.377 . S
C996 C998 1.384 . S
C997 C996 1.377 . S
C997 C1003 1.390 . S
C998 H989 0.930 . S
C998 C996 1.384 . S
C998 C999 1.372 . S
C999 C998 1.372 . S
C999 C1000 1.400 . S
C999 C1004 1.490 . S
C1000 H990 0.930 . S
C1000 C999 1.400 . S
C1000 C1003 1.386 . S
H1001 C1017 0.930 . S
H1002 C1018 0.931 1_455 S
C1003 H991 0.929 . S
C1003 C997 1.390 . S
C1003 C1000 1.386 . S
C1004 C999 1.490 . S
C1004 C1006 1.395 . S
C1004 C1007 1.403 1_556 S
H1005 C1011 0.930 . S
C1006 H992 0.930 . S
C1006 C1004 1.395 . S
C1006 C1009 1.403 . S
C1007 C1004 1.403 1_554 S
C1007 C1008 1.524 . S
C1007 C1011 1.400 . S
C1008 H993 0.960 . S
C1008 H994 0.960 . S
C1008 H995 0.960 . S
C1008 C1007 1.524 . S
C1009 C1006 1.403 . S
C1009 C1010 1.386 1_456 S
C1009 C1013 1.495 1_455 S
C1010 C1009 1.386 1_654 S
C1010 C1011 1.374 1_655 S
C1010 C1012 1.496 . S
C1011 H1005 0.930 . S
C1011 C1007 1.400 . S
C1011 C1010 1.374 1_455 S
C1012 C1010 1.496 . S
C1012 C1014 1.381 . S
C1012 C1018 1.383 . S
C1013 C1009 1.495 1_655 S
C1013 H1019 0.946 1_655 S
C1013 H1020 0.961 1_655 S
C1013 H1021 0.960 . S
C1014 C1012 1.381 . S
C1014 C1015 1.394 . S
C1014 H1022 0.930 . S
C1015 C1014 1.394 . S
C1015 C1016 1.383 . S
C1015 H1023 0.929 . S
C1016 C1015 1.383 . S
C1016 C1017 1.377 . S
C1017 H1001 0.930 . S
C1017 C1016 1.377 . S
C1017 C1018 1.379 . S
C1018 H1002 0.931 1_655 S
C1018 C1012 1.383 . S
C1018 C1017 1.379 . S
H1019 C1013 0.946 1_455 S
H1020 C1013 0.961 1_455 S
H1021 C1013 0.960 . S
H1022 C1014 0.930 . S
H1023 C1015 0.929 . S
H1024 C1032 0.929 . S
H1025 C1034 0.930 . S
H1026 C1036 0.930 . S
H1027 C1039 0.929 . S
H1028 C1042 0.930 . S
H1029 C1044 0.960 . S
H1030 C1044 0.960 . S
H1031 C1044 0.960 . S
C1032 H1024 0.929 . S
C1032 C1033 1.377 . S
C1032 C1034 1.384 . S
C1033 C1032 1.377 . S
C1033 C1039 1.390 . S
C1034 H1025 0.930 . S
C1034 C1032 1.384 . S
C1034 C1035 1.372 . S
C1035 C1034 1.372 . S
C1035 C1036 1.400 . S
C1035 C1040 1.490 1_545 S
C1036 H1026 0.930 . S
C1036 C1035 1.400 . S
C1036 C1039 1.386 . S
H1037 C1053 0.930 . S
H1038 C1054 0.931 . S
C1039 H1027 0.929 . S
C1039 C1033 1.390 . S
C1039 C1036 1.386 . S
C1040 C1035 1.490 1_565 S
C1040 C1042 1.395 1_565 S
C1040 C1043 1.403 . S
H1041 C1047 0.930 . S
C1042 H1028 0.930 . S
C1042 C1040 1.395 1_545 S
C1042 C1045 1.403 1_545 S
C1043 C1040 1.403 . S
C1043 C1044 1.524 . S
C1043 C1047 1.400 . S
C1044 H1029 0.960 . S
C1044 H1030 0.960 . S
C1044 H1031 0.960 . S
C1044 C1043 1.524 . S
C1045 C1042 1.403 1_565 S
C1045 C1046 1.392 . S
C1045 C1049 1.495 . S
C1046 C1045 1.392 . S
C1046 C1047 1.385 . S
C1046 C1048 1.478 . S
C1047 H1041 0.930 . S
C1047 C1043 1.400 . S
C1047 C1046 1.385 . S
C1048 C1046 1.478 . S
C1048 C1050 1.381 . S
C1048 C1054 1.383 . S
C1049 C1045 1.495 . S
C1049 H1055 0.959 1_565 S
C1049 H1056 0.961 . S
C1049 H1057 0.960 . S
C1050 C1048 1.381 . S
C1050 C1051 1.394 . S
C1050 H1058 0.930 . S
C1051 C1050 1.394 . S
C1051 C1052 1.383 . S
C1051 H1059 0.929 . S
C1052 C1051 1.383 . S
C1052 C1053 1.377 . S
C1053 H1037 0.930 . S
C1053 C1052 1.377 . S
C1053 C1054 1.379 . S
C1054 H1038 0.931 . S
C1054 C1048 1.383 . S
C1054 C1053 1.379 . S
H1055 C1049 0.959 1_545 S
H1056 C1049 0.961 . S
H1057 C1049 0.960 . S
H1058 C1050 0.930 . S
H1059 C1051 0.929 . S
H1060 C1068 0.929 . S
H1061 C1070 0.930 . S
H1062 C1072 0.930 . S
H1063 C1075 0.929 . S
H1064 C1078 0.930 . S
H1065 C1080 0.960 . S
H1066 C1080 0.960 . S
H1067 C1080 0.960 . S
C1068 H1060 0.929 . S
C1068 C1069 1.377 . S
C1068 C1070 1.384 . S
C1069 C1068 1.377 . S
C1069 C1075 1.390 . S
C1070 H1061 0.930 . S
C1070 C1068 1.384 . S
C1070 C1071 1.372 . S
C1071 C1070 1.372 . S
C1071 C1072 1.400 . S
C1071 C1076 1.490 . S
C1072 H1062 0.930 . S
C1072 C1071 1.400 . S
C1072 C1075 1.386 . S
H1073 C1089 0.930 . S
H1074 C1090 0.931 . S
C1075 H1063 0.929 . S
C1075 C1069 1.390 . S
C1075 C1072 1.386 . S
C1076 C1071 1.490 . S
C1076 C1078 1.395 . S
C1076 C1079 1.403 . S
H1077 C1083 0.930 . S
C1078 H1064 0.930 . S
C1078 C1076 1.395 . S
C1078 C1081 1.403 . S
C1079 C1076 1.403 . S
C1079 C1080 1.524 . S
C1079 C1083 1.400 . S
C1080 H1065 0.960 . S
C1080 H1066 0.960 . S
C1080 H1067 0.960 . S
C1080 C1079 1.524 . S
C1081 C1078 1.403 . S
C1081 C1082 1.392 . S
C1081 C1085 1.495 . S
C1082 C1081 1.392 . S
C1082 C1083 1.385 . S
C1082 C1084 1.478 . S
C1083 H1077 0.930 . S
C1083 C1079 1.400 . S
C1083 C1082 1.385 . S
C1084 C1082 1.478 . S
C1084 C1086 1.381 . S
C1084 C1090 1.383 . S
C1085 C1081 1.495 . S
C1085 H1091 0.959 . S
C1085 H1092 0.961 . S
C1085 H1093 0.960 . S
C1086 C1084 1.381 . S
C1086 C1087 1.394 . S
C1086 H1094 0.930 . S
C1087 C1086 1.394 . S
C1087 C1088 1.383 . S
C1087 H1095 0.929 . S
C1088 C1087 1.383 . S
C1088 C1089 1.377 . S
C1089 H1073 0.930 . S
C1089 C1088 1.377 . S
C1089 C1090 1.379 . S
C1090 H1074 0.931 . S
C1090 C1084 1.383 . S
C1090 C1089 1.379 . S
H1091 C1085 0.959 . S
H1092 C1085 0.961 . S
H1093 C1085 0.960 . S
H1094 C1086 0.930 . S
H1095 C1087 0.929 . S
H1096 C1104 0.929 . S
H1097 C1106 0.930 . S
H1098 C1108 0.930 . S
H1099 C1111 0.929 . S
H1100 C1114 0.930 . S
H1101 C1116 0.960 . S
H1102 C1116 0.960 . S
H1103 C1116 0.960 . S
C1104 H1096 0.929 . S
C1104 C1105 1.377 . S
C1104 C1106 1.384 . S
C1105 C1104 1.377 . S
C1105 C1111 1.390 . S
C1106 H1097 0.930 . S
C1106 C1104 1.384 . S
C1106 C1107 1.372 . S
C1107 C1106 1.372 . S
C1107 C1108 1.400 . S
C1107 C1112 1.490 . S
C1108 H1098 0.930 . S
C1108 C1107 1.400 . S
C1108 C1111 1.386 . S
H1109 C1125 0.930 . S
H1110 C1126 0.931 . S
C1111 H1099 0.929 . S
C1111 C1105 1.390 . S
C1111 C1108 1.386 . S
C1112 C1107 1.490 . S
C1112 C1114 1.395 . S
C1112 C1115 1.403 . S
H1113 C1119 0.930 . S
C1114 H1100 0.930 . S
C1114 C1112 1.395 . S
C1114 C1117 1.403 . S
C1115 C1112 1.403 . S
C1115 C1116 1.524 . S
C1115 C1119 1.400 . S
C1116 H1101 0.960 . S
C1116 H1102 0.960 . S
C1116 H1103 0.960 . S
C1116 C1115 1.524 . S
C1117 C1114 1.403 . S
C1117 C1118 1.392 . S
C1117 C1121 1.495 . S
C1118 C1117 1.392 . S
C1118 C1119 1.385 . S
C1118 C1120 1.478 1_545 S
C1119 H1113 0.930 . S
C1119 C1115 1.400 . S
C1119 C1118 1.385 . S
C1120 C1118 1.478 1_565 S
C1120 C1122 1.381 . S
C1120 C1126 1.383 . S
C1121 C1117 1.495 . S
C1121 H1127 0.959 . S
C1121 H1128 0.961 1_545 S
C1121 H1129 0.960 . S
C1122 C1120 1.381 . S
C1122 C1123 1.394 . S
C1122 H1130 0.930 1_565 S
C1123 C1122 1.394 . S
C1123 C1124 1.383 . S
C1123 H1131 0.929 . S
C1124 C1123 1.383 . S
C1124 C1125 1.377 . S
C1125 H1109 0.930 . S
C1125 C1124 1.377 . S
C1125 C1126 1.379 . S
C1126 H1110 0.931 . S
C1126 C1120 1.383 . S
C1126 C1125 1.379 . S
H1127 C1121 0.959 . S
H1128 C1121 0.961 1_565 S
H1129 C1121 0.960 . S
H1130 C1122 0.930 1_545 S
H1131 C1123 0.929 . S
H1132 C1140 0.929 . S
H1133 C1142 0.930 . S
H1134 C1144 0.930 . S
H1135 C1147 0.929 . S
H1136 C1150 0.930 . S
H1137 C1152 0.960 1_554 S
H1138 C1152 0.960 . S
H1139 C1152 0.960 . S
C1140 H1132 0.929 . S
C1140 C1141 1.377 . S
C1140 C1142 1.384 . S
C1141 C1140 1.377 . S
C1141 C1147 1.390 . S
C1142 H1133 0.930 . S
C1142 C1140 1.384 . S
C1142 C1143 1.372 . S
C1143 C1142 1.372 . S
C1143 C1144 1.400 . S
C1143 C1148 1.490 . S
C1144 H1134 0.930 . S
C1144 C1143 1.400 . S
C1144 C1147 1.386 . S
H1145 C1161 0.930 . S
H1146 C1162 0.931 . S
C1147 H1135 0.929 . S
C1147 C1141 1.390 . S
C1147 C1144 1.386 . S
C1148 C1143 1.490 . S
C1148 C1150 1.395 . S
C1148 C1151 1.403 . S
H1149 C1155 0.930 . S
C1150 H1136 0.930 . S
C1150 C1148 1.395 . S
C1150 C1153 1.403 . S
C1151 C1148 1.403 . S
C1151 C1152 1.524 . S
C1151 C1155 1.400 1_556 S
C1152 H1137 0.960 1_556 S
C1152 H1138 0.960 . S
C1152 H1139 0.960 . S
C1152 C1151 1.524 . S
C1153 C1150 1.403 . S
C1153 C1154 1.392 . S
C1153 C1157 1.495 . S
C1154 C1153 1.392 . S
C1154 C1155 1.385 1_556 S
C1154 C1156 1.478 1_556 S
C1155 H1149 0.930 . S
C1155 C1151 1.400 1_554 S
C1155 C1154 1.385 1_554 S
C1156 C1154 1.478 1_554 S
C1156 C1158 1.381 . S
C1156 C1162 1.383 . S
C1157 C1153 1.495 . S
C1157 H1163 0.959 . S
C1157 H1164 0.961 . S
C1157 H1165 0.960 . S
C1158 C1156 1.381 . S
C1158 C1159 1.394 . S
C1158 H1166 0.930 . S
C1159 C1158 1.394 . S
C1159 C1160 1.383 . S
C1159 H1167 0.929 . S
C1160 C1159 1.383 . S
C1160 C1161 1.377 . S
C1161 H1145 0.930 . S
C1161 C1160 1.377 . S
C1161 C1162 1.379 . S
C1162 H1146 0.931 . S
C1162 C1156 1.383 . S
C1162 C1161 1.379 . S
H1163 C1157 0.959 . S
H1164 C1157 0.961 . S
H1165 C1157 0.960 . S
H1166 C1158 0.930 . S
H1167 C1159 0.929 . S
H1168 C1176 0.929 . S
H1169 C1178 0.930 . S
H1170 C1180 0.930 . S
H1171 C1183 0.929 . S
H1172 C1186 0.930 . S
H1173 C1188 0.960 . S
H1174 C1188 0.960 . S
H1175 C1188 0.960 . S
C1176 H1168 0.929 . S
C1176 C1177 1.377 . S
C1176 C1178 1.384 . S
C1177 C1176 1.377 . S
C1177 C1183 1.390 . S
C1178 H1169 0.930 . S
C1178 C1176 1.384 . S
C1178 C1179 1.372 . S
C1179 C1178 1.372 . S
C1179 C1180 1.400 . S
C1179 C1184 1.490 . S
C1180 H1170 0.930 . S
C1180 C1179 1.400 . S
C1180 C1183 1.386 . S
H1181 C1197 0.930 . S
H1182 C1198 0.931 . S
C1183 H1171 0.929 . S
C1183 C1177 1.390 . S
C1183 C1180 1.386 . S
C1184 C1179 1.490 . S
C1184 C1186 1.395 . S
C1184 C1187 1.403 . S
H1185 C1191 0.930 . S
C1186 H1172 0.930 . S
C1186 C1184 1.395 . S
C1186 C1189 1.403 . S
C1187 C1184 1.403 . S
C1187 C1188 1.524 . S
C1187 C1191 1.400 . S
C1188 H1173 0.960 . S
C1188 H1174 0.960 . S
C1188 H1175 0.960 . S
C1188 C1187 1.524 . S
C1189 C1186 1.403 . S
C1189 C1190 1.392 . S
C1189 C1193 1.495 1_545 S
C1190 C1189 1.392 . S
C1190 C1191 1.385 . S
C1190 C1192 1.478 1_545 S
C1191 H1185 0.930 . S
C1191 C1187 1.400 . S
C1191 C1190 1.385 . S
C1192 C1190 1.478 1_565 S
C1192 C1194 1.381 . S
C1192 C1198 1.383 . S
C1193 C1189 1.495 1_565 S
C1193 H1199 0.959 . S
C1193 H1200 0.961 . S
C1193 H1201 0.960 . S
C1194 C1192 1.381 . S
C1194 C1195 1.394 . S
C1194 H1202 0.930 . S
C1195 C1194 1.394 . S
C1195 C1196 1.383 . S
C1195 H1203 0.929 . S
C1196 C1195 1.383 . S
C1196 C1197 1.377 . S
C1197 H1181 0.930 . S
C1197 C1196 1.377 . S
C1197 C1198 1.379 . S
C1198 H1182 0.931 . S
C1198 C1192 1.383 . S
C1198 C1197 1.379 . S
H1199 C1193 0.959 . S
H1200 C1193 0.961 . S
H1201 C1193 0.960 . S
H1202 C1194 0.930 . S
H1203 C1195 0.929 . S
H1204 C1212 0.929 . S
H1205 C1214 0.930 . S
H1206 C1216 0.930 . S
H1207 C1219 0.929 . S
H1208 C1222 0.930 . S
H1209 C1224 0.960 . S
H1210 C1224 0.960 . S
H1211 C1224 0.960 . S
C1212 H1204 0.929 . S
C1212 C1213 1.377 . S
C1212 C1214 1.384 . S
C1213 C1212 1.377 . S
C1213 C1219 1.390 . S
C1214 H1205 0.930 . S
C1214 C1212 1.384 . S
C1214 C1215 1.372 . S
C1215 C1214 1.372 . S
C1215 C1216 1.400 . S
C1215 C1220 1.490 . S
C1216 H1206 0.930 . S
C1216 C1215 1.400 . S
C1216 C1219 1.386 . S
H1217 C1233 0.930 . S
H1218 C1234 0.931 . S
C1219 H1207 0.929 . S
C1219 C1213 1.390 . S
C1219 C1216 1.386 . S
C1220 C1215 1.490 . S
C1220 C1222 1.395 . S
C1220 C1223 1.403 . S
H1221 C1227 0.930 . S
C1222 H1208 0.930 . S
C1222 C1220 1.395 . S
C1222 C1225 1.403 . S
C1223 C1220 1.403 . S
C1223 C1224 1.524 . S
C1223 C1227 1.400 . S
C1224 H1209 0.960 . S
C1224 H1210 0.960 . S
C1224 H1211 0.960 . S
C1224 C1223 1.524 . S
C1225 C1222 1.403 . S
C1225 C1226 1.392 . S
C1225 C1229 1.495 . S
C1226 C1225 1.392 . S
C1226 C1227 1.385 . S
C1226 C1228 1.478 . S
C1227 H1221 0.930 . S
C1227 C1223 1.400 . S
C1227 C1226 1.385 . S
C1228 C1226 1.478 . S
C1228 C1230 1.381 . S
C1228 C1234 1.383 . S
C1229 C1225 1.495 . S
C1229 H1235 0.959 . S
C1229 H1236 0.961 . S
C1229 H1237 0.960 . S
C1230 C1228 1.381 . S
C1230 C1231 1.394 . S
C1230 H1238 0.930 . S
C1231 C1230 1.394 . S
C1231 C1232 1.383 . S
C1231 H1239 0.929 . S
C1232 C1231 1.383 . S
C1232 C1233 1.377 . S
C1233 H1217 0.930 . S
C1233 C1232 1.377 . S
C1233 C1234 1.379 . S
C1234 H1218 0.931 . S
C1234 C1228 1.383 . S
C1234 C1233 1.379 . S
H1235 C1229 0.959 . S
H1236 C1229 0.961 . S
H1237 C1229 0.960 . S
H1238 C1230 0.930 . S
H1239 C1231 0.929 . S
H1240 C1248 0.929 . S
H1241 C1250 0.930 1_565 S
H1242 C1252 0.930 . S
H1243 C1255 0.929 . S
H1244 C1258 0.930 . S
H1245 C1260 0.960 1_565 S
H1246 C1260 0.960 1_565 S
H1247 C1260 0.960 . S
C1248 H1240 0.929 . S
C1248 C1249 1.377 . S
C1248 C1250 1.384 . S
C1249 C1248 1.377 . S
C1249 C1255 1.390 . S
C1250 H1241 0.930 1_545 S
C1250 C1248 1.384 . S
C1250 C1251 1.372 . S
C1251 C1250 1.372 . S
C1251 C1252 1.400 . S
C1251 C1256 1.490 1_545 S
C1252 H1242 0.930 . S
C1252 C1251 1.400 . S
C1252 C1255 1.386 . S
H1253 C1269 0.930 . S
H1254 C1270 0.931 . S
C1255 H1243 0.929 . S
C1255 C1249 1.390 . S
C1255 C1252 1.386 . S
C1256 C1251 1.490 1_565 S
C1256 C1258 1.395 . S
C1256 C1259 1.403 . S
H1257 C1263 0.930 . S
C1258 H1244 0.930 . S
C1258 C1256 1.395 . S
C1258 C1261 1.403 . S
C1259 C1256 1.403 . S
C1259 C1260 1.524 1_565 S
C1259 C1263 1.400 . S
C1260 H1245 0.960 1_545 S
C1260 H1246 0.960 1_545 S
C1260 H1247 0.960 . S
C1260 C1259 1.524 1_545 S
C1261 C1258 1.403 . S
C1261 C1262 1.392 . S
C1261 C1265 1.495 . S
C1262 C1261 1.392 . S
C1262 C1263 1.385 . S
C1262 C1264 1.478 . S
C1263 H1257 0.930 . S
C1263 C1259 1.400 . S
C1263 C1262 1.385 . S
C1264 C1262 1.478 . S
C1264 C1266 1.381 . S
C1264 C1270 1.383 . S
C1265 C1261 1.495 . S
C1265 H1271 0.959 . S
C1265 H1272 0.961 . S
C1265 H1273 0.960 . S
C1266 C1264 1.381 . S
C1266 C1267 1.394 . S
C1266 H1274 0.930 . S
C1267 C1266 1.394 . S
C1267 C1268 1.383 . S
C1267 H1275 0.929 . S
C1268 C1267 1.383 . S
C1268 C1269 1.377 . S
C1269 H1253 0.930 . S
C1269 C1268 1.377 . S
C1269 C1270 1.379 . S
C1270 H1254 0.931 . S
C1270 C1264 1.383 . S
C1270 C1269 1.379 . S
H1271 C1265 0.959 . S
H1272 C1265 0.961 . S
H1273 C1265 0.960 . S
H1274 C1266 0.930 . S
H1275 C1267 0.929 . S
H1276 C1284 0.929 . S
H1277 C1286 0.930 . S
H1278 C1288 0.930 . S
H1279 C1291 0.929 . S
H1280 C1294 0.930 1_556 S
H1281 C1296 0.960 . S
H1282 C1296 0.960 . S
H1283 C1296 0.960 1_556 S
C1284 H1276 0.929 . S
C1284 C1285 1.377 . S
C1284 C1286 1.384 . S
C1285 C1284 1.377 . S
C1285 C1291 1.390 . S
C1286 H1277 0.930 . S
C1286 C1284 1.384 . S
C1286 C1287 1.372 . S
C1287 C1286 1.372 . S
C1287 C1288 1.400 . S
C1287 C1292 1.490 . S
C1288 H1278 0.930 . S
C1288 C1287 1.400 . S
C1288 C1291 1.386 . S
H1289 C1305 0.930 . S
H1290 C1306 0.931 . S
C1291 H1279 0.929 . S
C1291 C1285 1.390 . S
C1291 C1288 1.386 . S
C1292 C1287 1.490 . S
C1292 C1294 1.395 1_556 S
C1292 C1295 1.403 1_556 S
H1293 C1299 0.930 . S
C1294 H1280 0.930 1_554 S
C1294 C1292 1.395 1_554 S
C1294 C1297 1.403 . S
C1295 C1292 1.403 1_554 S
C1295 C1296 1.524 . S
C1295 C1299 1.400 . S
C1296 H1281 0.960 . S
C1296 H1282 0.960 . S
C1296 H1283 0.960 1_554 S
C1296 C1295 1.524 . S
C1297 C1294 1.403 . S
C1297 C1298 1.392 . S
C1297 C1301 1.495 . S
C1298 C1297 1.392 . S
C1298 C1299 1.385 . S
C1298 C1300 1.478 . S
C1299 H1293 0.930 . S
C1299 C1295 1.400 . S
C1299 C1298 1.385 . S
C1300 C1298 1.478 . S
C1300 C1302 1.381 . S
C1300 C1306 1.383 . S
C1301 C1297 1.495 . S
C1301 H1307 0.959 . S
C1301 H1308 0.961 . S
C1301 H1309 0.960 . S
C1302 C1300 1.381 . S
C1302 C1303 1.394 . S
C1302 H1310 0.930 . S
C1303 C1302 1.394 . S
C1303 C1304 1.383 . S
C1303 H1311 0.929 . S
C1304 C1303 1.383 . S
C1304 C1305 1.377 . S
C1305 H1289 0.930 . S
C1305 C1304 1.377 . S
C1305 C1306 1.379 . S
C1306 H1290 0.931 . S
C1306 C1300 1.383 . S
C1306 C1305 1.379 . S
H1307 C1301 0.959 . S
H1308 C1301 0.961 . S
H1309 C1301 0.960 . S
H1310 C1302 0.930 . S
H1311 C1303 0.929 . S
H1312 C1320 0.929 . S
H1313 C1322 0.930 . S
H1314 C1324 0.930 . S
H1315 C1327 0.929 . S
H1316 C1330 0.930 . S
H1317 C1332 0.960 . S
H1318 C1332 0.960 . S
H1319 C1332 0.960 . S
C1320 H1312 0.929 . S
C1320 C1321 1.377 . S
C1320 C1322 1.384 . S
C1321 C1320 1.377 . S
C1321 C1327 1.390 . S
C1322 H1313 0.930 . S
C1322 C1320 1.384 . S
C1322 C1323 1.372 . S
C1323 C1322 1.372 . S
C1323 C1324 1.400 . S
C1323 C1328 1.490 . S
C1324 H1314 0.930 . S
C1324 C1323 1.400 . S
C1324 C1327 1.386 . S
H1325 C1341 0.930 . S
H1326 C1342 0.931 . S
C1327 H1315 0.929 . S
C1327 C1321 1.390 . S
C1327 C1324 1.386 . S
C1328 C1323 1.490 . S
C1328 C1330 1.395 . S
C1328 C1331 1.403 . S
H1329 C1335 0.930 . S
C1330 H1316 0.930 . S
C1330 C1328 1.395 . S
C1330 C1333 1.403 . S
C1331 C1328 1.403 . S
C1331 C1332 1.524 . S
C1331 C1335 1.400 . S
C1332 H1317 0.960 . S
C1332 H1318 0.960 . S
C1332 H1319 0.960 . S
C1332 C1331 1.524 . S
C1333 C1330 1.403 . S
C1333 C1334 1.392 . S
C1333 C1337 1.495 . S
C1334 C1333 1.392 . S
C1334 C1335 1.385 . S
C1334 C1336 1.478 1_655 S
C1335 H1329 0.930 . S
C1335 C1331 1.400 . S
C1335 C1334 1.385 . S
C1336 C1334 1.478 1_455 S
C1336 C1338 1.381 . S
C1336 C1342 1.383 . S
C1337 C1333 1.495 . S
C1337 H1343 0.959 . S
C1337 H1344 0.961 1_655 S
C1337 H1345 0.960 . S
C1338 C1336 1.381 . S
C1338 C1339 1.394 . S
C1338 H1346 0.930 1_455 S
C1339 C1338 1.394 . S
C1339 C1340 1.383 . S
C1339 H1347 0.929 . S
C1340 C1339 1.383 . S
C1340 C1341 1.377 . S
C1341 H1325 0.930 . S
C1341 C1340 1.377 . S
C1341 C1342 1.379 . S
C1342 H1326 0.931 . S
C1342 C1336 1.383 . S
C1342 C1341 1.379 . S
H1343 C1337 0.959 . S
H1344 C1337 0.961 1_455 S
H1345 C1337 0.960 . S
H1346 C1338 0.930 1_655 S
H1347 C1339 0.929 . S
H1348 C1356 0.929 . S
H1349 C1358 0.930 . S
H1350 C1360 0.930 . S
H1351 C1363 0.929 . S
H1352 C1366 0.930 . S
H1353 C1368 0.960 . S
H1354 C1368 0.960 . S
H1355 C1368 0.960 . S
C1356 H1348 0.929 . S
C1356 C1357 1.377 . S
C1356 C1358 1.384 . S
C1357 C1356 1.377 . S
C1357 C1363 1.390 . S
C1358 H1349 0.930 . S
C1358 C1356 1.384 . S
C1358 C1359 1.372 . S
C1359 C1358 1.372 . S
C1359 C1360 1.400 . S
C1359 C1364 1.490 . S
C1360 H1350 0.930 . S
C1360 C1359 1.400 . S
C1360 C1363 1.386 . S
H1361 C1377 0.930 . S
H1362 C1378 0.931 . S
C1363 H1351 0.929 . S
C1363 C1357 1.390 . S
C1363 C1360 1.386 . S
C1364 C1359 1.490 . S
C1364 C1366 1.395 . S
C1364 C1367 1.403 . S
H1365 C1371 0.930 . S
C1366 H1352 0.930 . S
C1366 C1364 1.395 . S
C1366 C1369 1.403 . S
C1367 C1364 1.403 . S
C1367 C1368 1.524 . S
C1367 C1371 1.400 . S
C1368 H1353 0.960 . S
C1368 H1354 0.960 . S
C1368 H1355 0.960 . S
C1368 C1367 1.524 . S
C1369 C1366 1.403 . S
C1369 C1370 1.392 . S
C1369 C1373 1.495 . S
C1370 C1369 1.392 . S
C1370 C1371 1.385 . S
C1370 C1372 1.478 . S
C1371 H1365 0.930 . S
C1371 C1367 1.400 . S
C1371 C1370 1.385 . S
C1372 C1370 1.478 . S
C1372 C1374 1.381 . S
C1372 C1378 1.383 . S
C1373 C1369 1.495 . S
C1373 H1379 0.959 . S
C1373 H1380 0.961 . S
C1373 H1381 0.960 . S
C1374 C1372 1.381 . S
C1374 C1375 1.394 . S
C1374 H1382 0.930 . S
C1375 C1374 1.394 . S
C1375 C1376 1.383 . S
C1375 H1383 0.929 . S
C1376 C1375 1.383 . S
C1376 C1377 1.377 . S
C1377 H1361 0.930 . S
C1377 C1376 1.377 . S
C1377 C1378 1.379 . S
C1378 H1362 0.931 . S
C1378 C1372 1.383 . S
C1378 C1377 1.379 . S
H1379 C1373 0.959 . S
H1380 C1373 0.961 . S
H1381 C1373 0.960 . S
H1382 C1374 0.930 . S
H1383 C1375 0.929 . S
H1384 C1392 0.929 . S
H1385 C1394 0.930 . S
H1386 C1396 0.930 . S
H1387 C1399 0.929 . S
H1388 C1402 0.930 . S
H1389 C1404 0.960 . S
H1390 C1404 0.960 . S
H1391 C1404 0.960 . S
C1392 H1384 0.929 . S
C1392 C1393 1.377 . S
C1392 C1394 1.384 . S
C1393 C1392 1.377 . S
C1393 C1399 1.390 . S
C1394 H1385 0.930 . S
C1394 C1392 1.384 . S
C1394 C1395 1.372 . S
C1395 C1394 1.372 . S
C1395 C1396 1.400 . S
C1395 C1400 1.498 . S
C1396 H1386 0.930 . S
C1396 C1395 1.400 . S
C1396 C1399 1.386 . S
H1397 C1413 0.930 . S
H1398 C1414 0.931 . S
C1399 H1387 0.929 . S
C1399 C1393 1.390 . S
C1399 C1396 1.386 . S
C1400 C1395 1.498 . S
C1400 C1402 1.383 1_655 S
C1400 C1403 1.405 . S
H1401 C1407 0.930 . S
C1402 H1388 0.930 . S
C1402 C1400 1.383 1_455 S
C1402 C1405 1.403 . S
C1403 C1400 1.405 . S
C1403 C1404 1.524 . S
C1403 C1407 1.400 1_655 S
C1404 H1389 0.960 . S
C1404 H1390 0.960 . S
C1404 H1391 0.960 . S
C1404 C1403 1.524 . S
C1405 C1402 1.403 . S
C1405 C1406 1.392 . S
C1405 C1409 1.495 . S
C1406 C1405 1.392 . S
C1406 C1407 1.385 . S
C1406 C1408 1.478 . S
C1407 H1401 0.930 . S
C1407 C1403 1.400 1_455 S
C1407 C1406 1.385 . S
C1408 C1406 1.478 . S
C1408 C1410 1.381 . S
C1408 C1414 1.383 . S
C1409 C1405 1.495 . S
C1409 H1415 0.959 . S
C1409 H1416 0.961 . S
C1409 H1417 0.960 . S
C1410 C1408 1.381 . S
C1410 C1411 1.394 . S
C1410 H1418 0.930 . S
C1411 C1410 1.394 . S
C1411 C1412 1.383 . S
C1411 H1419 0.929 . S
C1412 C1411 1.383 . S
C1412 C1413 1.377 . S
C1413 H1397 0.930 . S
C1413 C1412 1.377 . S
C1413 C1414 1.379 . S
C1414 H1398 0.931 . S
C1414 C1408 1.383 . S
C1414 C1413 1.379 . S
H1415 C1409 0.959 . S
H1416 C1409 0.961 . S
H1417 C1409 0.960 . S
H1418 C1410 0.930 . S
H1419 C1411 0.929 . S
H1420 C1428 0.929 . S
H1421 C1430 0.930 1_455 S
H1422 C1432 0.930 . S
H1423 C1435 0.929 . S
H1424 C1438 0.930 . S
H1425 C1440 0.960 . S
H1426 C1440 0.960 . S
H1427 C1440 0.960 . S
C1428 H1420 0.929 . S
C1428 C1429 1.377 . S
C1428 C1430 1.384 . S
C1429 C1428 1.377 . S
C1429 C1435 1.390 . S
C1430 H1421 0.930 1_655 S
C1430 C1428 1.384 . S
C1430 C1431 1.372 . S
C1431 C1430 1.372 . S
C1431 C1432 1.399 . S
C1431 C1436 1.491 1_655 S
C1432 H1422 0.930 . S
C1432 C1431 1.399 . S
C1432 C1435 1.386 . S
H1433 C1449 0.930 . S
H1434 C1450 0.931 . S
C1435 H1423 0.929 . S
C1435 C1429 1.390 . S
C1435 C1432 1.386 . S
C1436 C1431 1.491 1_455 S
C1436 C1438 1.395 . S
C1436 C1439 1.403 . S
H1437 C1443 0.930 . S
C1438 H1424 0.930 . S
C1438 C1436 1.395 . S
C1438 C1441 1.403 . S
C1439 C1436 1.403 . S
C1439 C1440 1.524 . S
C1439 C1443 1.400 . S
C1440 H1425 0.960 . S
C1440 H1426 0.960 . S
C1440 H1427 0.960 . S
C1440 C1439 1.524 . S
C1441 C1438 1.403 . S
C1441 C1442 1.392 . S
C1441 C1445 1.495 . S
C1442 C1441 1.392 . S
C1442 C1443 1.385 . S
C1442 C1444 1.478 . S
C1443 H1437 0.930 . S
C1443 C1439 1.400 . S
C1443 C1442 1.385 . S
C1444 C1442 1.478 . S
C1444 C1446 1.381 . S
C1444 C1450 1.383 . S
C1445 C1441 1.495 . S
C1445 H1451 0.959 . S
C1445 H1452 0.961 . S
C1445 H1453 0.960 . S
C1446 C1444 1.381 . S
C1446 C1447 1.394 . S
C1446 H1454 0.930 . S
C1447 C1446 1.394 . S
C1447 C1448 1.383 . S
C1447 H1455 0.929 . S
C1448 C1447 1.383 . S
C1448 C1449 1.377 . S
C1449 H1433 0.930 . S
C1449 C1448 1.377 . S
C1449 C1450 1.379 . S
C1450 H1434 0.931 . S
C1450 C1444 1.383 . S
C1450 C1449 1.379 . S
H1451 C1445 0.959 . S
H1452 C1445 0.961 . S
H1453 C1445 0.960 . S
H1454 C1446 0.930 . S
H1455 C1447 0.929 . S
H1456 C1464 0.929 . S
H1457 C1466 0.930 . S
H1458 C1468 0.930 . S
H1459 C1471 0.929 . S
H1460 C1474 0.930 . S
H1461 C1476 0.960 . S
H1462 C1476 0.960 . S
H1463 C1476 0.960 . S
C1464 H1456 0.929 . S
C1464 C1465 1.377 . S
C1464 C1466 1.384 . S
C1465 C1464 1.377 . S
C1465 C1471 1.390 . S
C1466 H1457 0.930 . S
C1466 C1464 1.384 . S
C1466 C1467 1.372 . S
C1467 C1466 1.372 . S
C1467 C1468 1.400 . S
C1467 C1472 1.490 . S
C1468 H1458 0.930 . S
C1468 C1467 1.400 . S
C1468 C1471 1.386 . S
H1469 C1485 0.930 . S
H1470 C1486 0.931 . S
C1471 H1459 0.929 . S
C1471 C1465 1.390 . S
C1471 C1468 1.386 . S
C1472 C1467 1.490 . S
C1472 C1474 1.395 . S
C1472 C1475 1.403 . S
H1473 C1479 0.930 . S
C1474 H1460 0.930 . S
C1474 C1472 1.395 . S
C1474 C1477 1.403 . S
C1475 C1472 1.403 . S
C1475 C1476 1.524 . S
C1475 C1479 1.400 . S
C1476 H1461 0.960 . S
C1476 H1462 0.960 . S
C1476 H1463 0.960 . S
C1476 C1475 1.524 . S
C1477 C1474 1.403 . S
C1477 C1478 1.392 . S
C1477 C1481 1.495 . S
C1478 C1477 1.392 . S
C1478 C1479 1.385 . S
C1478 C1480 1.478 . S
C1479 H1473 0.930 . S
C1479 C1475 1.400 . S
C1479 C1478 1.385 . S
C1480 C1478 1.478 . S
C1480 C1482 1.381 . S
C1480 C1486 1.383 . S
C1481 C1477 1.495 . S
C1481 H1487 0.959 . S
C1481 H1488 0.961 . S
C1481 H1489 0.960 . S
C1482 C1480 1.381 . S
C1482 C1483 1.394 . S
C1482 H1490 0.930 . S
C1483 C1482 1.394 . S
C1483 C1484 1.383 . S
C1483 H1491 0.929 . S
C1484 C1483 1.383 . S
C1484 C1485 1.377 . S
C1485 H1469 0.930 . S
C1485 C1484 1.377 . S
C1485 C1486 1.379 . S
C1486 H1470 0.931 . S
C1486 C1480 1.383 . S
C1486 C1485 1.379 . S
H1487 C1481 0.959 . S
H1488 C1481 0.961 . S
H1489 C1481 0.960 . S
H1490 C1482 0.930 . S
H1491 C1483 0.929 . S
H1492 C1500 0.929 . S
H1493 C1502 0.930 . S
H1494 C1504 0.930 . S
H1495 C1507 0.929 . S
H1496 C1510 0.930 . S
H1497 C1512 0.960 . S
H1498 C1512 0.960 . S
H1499 C1512 0.960 . S
C1500 H1492 0.929 . S
C1500 C1501 1.377 . S
C1500 C1502 1.384 . S
C1501 C1500 1.377 . S
C1501 C1507 1.390 . S
C1502 H1493 0.930 . S
C1502 C1500 1.384 . S
C1502 C1503 1.372 . S
C1503 C1502 1.372 . S
C1503 C1504 1.400 . S
C1503 C1508 1.490 . S
C1504 H1494 0.930 . S
C1504 C1503 1.400 . S
C1504 C1507 1.386 . S
H1505 C1521 0.930 . S
H1506 C1522 0.931 . S
C1507 H1495 0.929 . S
C1507 C1501 1.390 . S
C1507 C1504 1.386 . S
C1508 C1503 1.490 . S
C1508 C1510 1.395 . S
C1508 C1511 1.403 . S
H1509 C1515 0.930 . S
C1510 H1496 0.930 . S
C1510 C1508 1.395 . S
C1510 C1513 1.403 1_655 S
C1511 C1508 1.403 . S
C1511 C1512 1.524 . S
C1511 C1515 1.400 . S
C1512 H1497 0.960 . S
C1512 H1498 0.960 . S
C1512 H1499 0.960 . S
C1512 C1511 1.524 . S
C1513 C1510 1.403 1_455 S
C1513 C1514 1.392 . S
C1513 C1517 1.495 . S
C1514 C1513 1.392 . S
C1514 C1515 1.385 1_455 S
C1514 C1516 1.478 . S
C1515 H1509 0.930 . S
C1515 C1511 1.400 . S
C1515 C1514 1.385 1_655 S
C1516 C1514 1.478 . S
C1516 C1518 1.381 . S
C1516 C1522 1.383 . S
C1517 C1513 1.495 . S
C1517 H1523 0.959 . S
C1517 H1524 0.961 . S
C1517 H1525 0.960 . S
C1518 C1516 1.381 . S
C1518 C1519 1.394 . S
C1518 H1526 0.930 . S
C1519 C1518 1.394 . S
C1519 C1520 1.383 . S
C1519 H1527 0.929 . S
C1520 C1519 1.383 . S
C1520 C1521 1.377 . S
C1521 H1505 0.930 . S
C1521 C1520 1.377 . S
C1521 C1522 1.379 . S
C1522 H1506 0.931 . S
C1522 C1516 1.383 . S
C1522 C1521 1.379 . S
H1523 C1517 0.959 . S
H1524 C1517 0.961 . S
H1525 C1517 0.960 . S
H1526 C1518 0.930 . S
H1527 C1519 0.929 . S
H1528 C1536 0.929 . S
H1529 C1538 0.930 . S
H1530 C1540 0.930 . S
H1531 C1543 0.929 . S
H1532 C1546 0.930 . S
H1533 C1548 0.960 . S
H1534 C1548 0.960 . S
H1535 C1548 0.960 . S
C1536 H1528 0.929 . S
C1536 C1537 1.377 . S
C1536 C1538 1.384 . S
C1537 C1536 1.377 . S
C1537 C1543 1.390 . S
C1538 H1529 0.930 . S
C1538 C1536 1.384 . S
C1538 C1539 1.372 . S
C1539 C1538 1.372 . S
C1539 C1540 1.400 . S
C1539 C1544 1.490 . S
C1540 H1530 0.930 . S
C1540 C1539 1.400 . S
C1540 C1543 1.386 . S
H1541 C1557 0.930 . S
H1542 C1558 0.931 . S
C1543 H1531 0.929 . S
C1543 C1537 1.390 . S
C1543 C1540 1.386 . S
C1544 C1539 1.490 . S
C1544 C1546 1.395 . S
C1544 C1547 1.403 . S
H1545 C1551 0.930 . S
C1546 H1532 0.930 . S
C1546 C1544 1.395 . S
C1546 C1549 1.403 . S
C1547 C1544 1.403 . S
C1547 C1548 1.524 . S
C1547 C1551 1.400 . S
C1548 H1533 0.960 . S
C1548 H1534 0.960 . S
C1548 H1535 0.960 . S
C1548 C1547 1.524 . S
C1549 C1546 1.403 . S
C1549 C1550 1.392 . S
C1549 C1553 1.495 . S
C1550 C1549 1.392 . S
C1550 C1551 1.385 . S
C1550 C1552 1.478 . S
C1551 H1545 0.930 . S
C1551 C1547 1.400 . S
C1551 C1550 1.385 . S
C1552 C1550 1.478 . S
C1552 C1554 1.381 . S
C1552 C1558 1.383 . S
C1553 C1549 1.495 . S
C1553 H1559 0.959 . S
C1553 H1560 0.961 . S
C1553 H1561 0.960 . S
C1554 C1552 1.381 . S
C1554 C1555 1.394 . S
C1554 H1562 0.930 . S
C1555 C1554 1.394 . S
C1555 C1556 1.383 . S
C1555 H1563 0.929 . S
C1556 C1555 1.383 . S
C1556 C1557 1.377 . S
C1557 H1541 0.930 . S
C1557 C1556 1.377 . S
C1557 C1558 1.379 . S
C1558 H1542 0.931 . S
C1558 C1552 1.383 . S
C1558 C1557 1.379 . S
H1559 C1553 0.959 . S
H1560 C1553 0.961 . S
H1561 C1553 0.960 . S
H1562 C1554 0.930 . S
H1563 C1555 0.929 . S
H1564 C1572 0.929 . S
H1565 C1574 0.930 . S
H1566 C1576 0.930 . S
H1567 C1579 0.929 . S
H1568 C1582 0.930 . S
H1569 C1584 0.960 . S
H1570 C1584 0.960 . S
H1571 C1584 0.960 . S
C1572 H1564 0.929 . S
C1572 C1573 1.377 . S
C1572 C1574 1.384 . S
C1573 C1572 1.377 . S
C1573 C1579 1.390 . S
C1574 H1565 0.930 . S
C1574 C1572 1.384 . S
C1574 C1575 1.372 . S
C1575 C1574 1.372 . S
C1575 C1576 1.400 . S
C1575 C1580 1.490 . S
C1576 H1566 0.930 . S
C1576 C1575 1.400 . S
C1576 C1579 1.386 . S
H1577 C1593 0.930 . S
H1578 C1594 0.931 1_545 S
C1579 H1567 0.929 . S
C1579 C1573 1.390 . S
C1579 C1576 1.386 . S
C1580 C1575 1.490 . S
C1580 C1582 1.395 . S
C1580 C1583 1.403 . S
H1581 C1587 0.930 . S
C1582 H1568 0.930 . S
C1582 C1580 1.395 . S
C1582 C1585 1.403 . S
C1583 C1580 1.403 . S
C1583 C1584 1.524 . S
C1583 C1587 1.400 . S
C1584 H1569 0.960 . S
C1584 H1570 0.960 . S
C1584 H1571 0.960 . S
C1584 C1583 1.524 . S
C1585 C1582 1.403 . S
C1585 C1586 1.392 . S
C1585 C1589 1.495 1_545 S
C1586 C1585 1.392 . S
C1586 C1587 1.385 . S
C1586 C1588 1.478 1_545 S
C1587 H1581 0.930 . S
C1587 C1583 1.400 . S
C1587 C1586 1.385 . S
C1588 C1586 1.478 1_565 S
C1588 C1590 1.381 . S
C1588 C1594 1.383 . S
C1589 C1585 1.495 1_565 S
C1589 H1595 0.959 . S
C1589 H1596 0.961 . S
C1589 H1597 0.960 . S
C1590 C1588 1.381 . S
C1590 C1591 1.394 . S
C1590 H1598 0.930 . S
C1591 C1590 1.394 . S
C1591 C1592 1.383 . S
C1591 H1599 0.929 . S
C1592 C1591 1.383 . S
C1592 C1593 1.377 . S
C1593 H1577 0.930 . S
C1593 C1592 1.377 . S
C1593 C1594 1.379 . S
C1594 H1578 0.931 1_565 S
C1594 C1588 1.383 . S
C1594 C1593 1.379 . S
H1595 C1589 0.959 . S
H1596 C1589 0.961 . S
H1597 C1589 0.960 . S
H1598 C1590 0.930 . S
H1599 C1591 0.929 . S
H1600 C1608 0.929 . S
H1601 C1610 0.930 . S
H1602 C1612 0.930 . S
H1603 C1615 0.929 . S
H1604 C1618 0.930 . S
H1605 C1620 0.960 . S
H1606 C1620 0.960 . S
H1607 C1620 0.960 . S
C1608 H1600 0.929 . S
C1608 C1609 1.377 . S
C1608 C1610 1.384 . S
C1609 C1608 1.377 . S
C1609 C1615 1.390 . S
C1610 H1601 0.930 . S
C1610 C1608 1.384 . S
C1610 C1611 1.372 . S
C1611 C1610 1.372 . S
C1611 C1612 1.400 . S
C1611 C1616 1.490 . S
C1612 H1602 0.930 . S
C1612 C1611 1.400 . S
C1612 C1615 1.386 . S
H1613 C1629 0.930 . S
H1614 C1630 0.931 . S
C1615 H1603 0.929 . S
C1615 C1609 1.390 . S
C1615 C1612 1.386 . S
C1616 C1611 1.490 . S
C1616 C1618 1.395 . S
C1616 C1619 1.403 . S
H1617 C1623 0.930 . S
C1618 H1604 0.930 . S
C1618 C1616 1.395 . S
C1618 C1621 1.403 . S
C1619 C1616 1.403 . S
C1619 C1620 1.524 . S
C1619 C1623 1.400 . S
C1620 H1605 0.960 . S
C1620 H1606 0.960 . S
C1620 H1607 0.960 . S
C1620 C1619 1.524 . S
C1621 C1618 1.403 . S
C1621 C1622 1.392 . S
C1621 C1625 1.495 . S
C1622 C1621 1.392 . S
C1622 C1623 1.385 . S
C1622 C1624 1.478 . S
C1623 H1617 0.930 . S
C1623 C1619 1.400 . S
C1623 C1622 1.385 . S
C1624 C1622 1.478 . S
C1624 C1626 1.381 . S
C1624 C1630 1.383 . S
C1625 C1621 1.495 . S
C1625 H1631 0.959 . S
C1625 H1632 0.961 . S
C1625 H1633 0.960 . S
C1626 C1624 1.381 . S
C1626 C1627 1.394 . S
C1626 H1634 0.930 . S
C1627 C1626 1.394 . S
C1627 C1628 1.383 . S
C1627 H1635 0.929 . S
C1628 C1627 1.383 . S
C1628 C1629 1.377 . S
C1629 H1613 0.930 . S
C1629 C1628 1.377 . S
C1629 C1630 1.379 . S
C1630 H1614 0.931 . S
C1630 C1624 1.383 . S
C1630 C1629 1.379 . S
H1631 C1625 0.959 . S
H1632 C1625 0.961 . S
H1633 C1625 0.960 . S
H1634 C1626 0.930 . S
H1635 C1627 0.929 . S
H1636 C1644 0.929 . S
H1637 C1646 0.930 . S
H1638 C1648 0.930 . S
H1639 C1651 0.929 . S
H1640 C1654 0.930 . S
H1641 C1656 0.960 1_545 S
H1642 C1656 0.960 . S
H1643 C1656 0.960 . S
C1644 H1636 0.929 . S
C1644 C1645 1.377 . S
C1644 C1646 1.384 . S
C1645 C1644 1.377 . S
C1645 C1651 1.390 . S
C1646 H1637 0.930 . S
C1646 C1644 1.384 . S
C1646 C1647 1.372 . S
C1647 C1646 1.372 . S
C1647 C1648 1.400 . S
C1647 C1652 1.490 . S
C1648 H1638 0.930 . S
C1648 C1647 1.400 . S
C1648 C1651 1.386 . S
H1649 C1665 0.930 . S
H1650 C1666 0.931 . S
C1651 H1639 0.929 . S
C1651 C1645 1.390 . S
C1651 C1648 1.386 . S
C1652 C1647 1.490 . S
C1652 C1654 1.395 . S
C1652 C1655 1.403 . S
H1653 C1659 0.900 1_545 S
C1654 H1640 0.930 . S
C1654 C1652 1.395 . S
C1654 C1657 1.403 . S
C1655 C1652 1.403 . S
C1655 C1656 1.524 . S
C1655 C1659 1.422 . S
C1656 H1641 0.960 1_565 S
C1656 H1642 0.960 . S
C1656 H1643 0.960 . S
C1656 C1655 1.524 . S
C1657 C1654 1.403 . S
C1657 C1658 1.392 . S
C1657 C1661 1.495 . S
C1658 C1657 1.392 . S
C1658 C1659 1.393 . S
C1658 C1660 1.478 1_565 S
C1659 H1653 0.900 1_565 S
C1659 C1655 1.422 . S
C1659 C1658 1.393 . S
C1660 C1658 1.478 1_545 S
C1660 C1662 1.381 . S
C1660 C1666 1.383 . S
C1661 C1657 1.495 . S
C1661 H1667 0.959 . S
C1661 H1668 0.961 . S
C1661 H1669 0.960 . S
C1662 C1660 1.381 . S
C1662 C1663 1.394 . S
C1662 H1670 0.930 . S
C1663 C1662 1.394 . S
C1663 C1664 1.383 . S
C1663 H1671 0.929 . S
C1664 C1663 1.383 . S
C1664 C1665 1.377 . S
C1665 H1649 0.930 . S
C1665 C1664 1.377 . S
C1665 C1666 1.379 . S
C1666 H1650 0.931 . S
C1666 C1660 1.383 . S
C1666 C1665 1.379 . S
H1667 C1661 0.959 . S
H1668 C1661 0.961 . S
H1669 C1661 0.960 . S
H1670 C1662 0.930 . S
H1671 C1663 0.929 . S
H1672 C1680 0.929 . S
H1673 C1682 0.930 1_554 S
H1674 C1684 0.930 . S
H1675 C1687 0.929 . S
H1676 C1690 0.930 . S
H1677 C1692 0.960 . S
H1678 C1692 0.960 . S
H1679 C1692 0.960 1_556 S
C1680 H1672 0.929 . S
C1680 C1681 1.377 . S
C1680 C1682 1.384 . S
C1681 C1680 1.377 . S
C1681 C1687 1.390 . S
C1682 H1673 0.930 1_556 S
C1682 C1680 1.384 . S
C1682 C1683 1.372 . S
C1683 C1682 1.372 . S
C1683 C1684 1.400 . S
C1683 C1688 1.490 1_556 S
C1684 H1674 0.930 . S
C1684 C1683 1.400 . S
C1684 C1687 1.386 . S
H1685 C1701 0.930 . S
H1686 C1702 0.931 . S
C1687 H1675 0.929 . S
C1687 C1681 1.390 . S
C1687 C1684 1.386 . S
C1688 C1683 1.490 1_554 S
C1688 C1690 1.395 . S
C1688 C1691 1.403 . S
H1689 C1695 0.930 . S
C1690 H1676 0.930 . S
C1690 C1688 1.395 . S
C1690 C1693 1.403 . S
C1691 C1688 1.403 . S
C1691 C1692 1.524 . S
C1691 C1695 1.400 . S
C1692 H1677 0.960 . S
C1692 H1678 0.960 . S
C1692 H1679 0.960 1_554 S
C1692 C1691 1.524 . S
C1693 C1690 1.403 . S
C1693 C1694 1.392 . S
C1693 C1697 1.495 . S
C1694 C1693 1.392 . S
C1694 C1695 1.385 . S
C1694 C1696 1.478 . S
C1695 H1689 0.930 . S
C1695 C1691 1.400 . S
C1695 C1694 1.385 . S
C1696 C1694 1.478 . S
C1696 C1698 1.381 . S
C1696 C1702 1.383 . S
C1697 C1693 1.495 . S
C1697 H1703 0.959 . S
C1697 H1704 0.961 . S
C1697 H1705 0.960 . S
C1698 C1696 1.381 . S
C1698 C1699 1.394 . S
C1698 H1706 0.930 . S
C1699 C1698 1.394 . S
C1699 C1700 1.383 . S
C1699 H1707 0.929 . S
C1700 C1699 1.383 . S
C1700 C1701 1.377 . S
C1701 H1685 0.930 . S
C1701 C1700 1.377 . S
C1701 C1702 1.379 . S
C1702 H1686 0.931 . S
C1702 C1696 1.383 . S
C1702 C1701 1.379 . S
H1703 C1697 0.959 . S
H1704 C1697 0.961 . S
H1705 C1697 0.960 . S
H1706 C1698 0.930 . S
H1707 C1699 0.929 . S
H1708 C1716 0.929 . S
H1709 C1718 0.930 . S
H1710 C1720 0.930 . S
H1711 C1723 0.929 . S
H1712 C1726 0.930 1_545 S
H1713 C1728 0.960 . S
H1714 C1728 0.960 . S
H1715 C1728 0.960 . S
C1716 H1708 0.929 . S
C1716 C1717 1.377 . S
C1716 C1718 1.384 . S
C1717 C1716 1.377 . S
C1717 C1723 1.390 . S
C1718 H1709 0.930 . S
C1718 C1716 1.384 . S
C1718 C1719 1.372 . S
C1719 C1718 1.372 . S
C1719 C1720 1.400 . S
C1719 C1724 1.490 1_545 S
C1720 H1710 0.930 . S
C1720 C1719 1.400 . S
C1720 C1723 1.386 . S
H1721 C1737 0.930 . S
H1722 C1738 0.931 . S
C1723 H1711 0.929 . S
C1723 C1717 1.390 . S
C1723 C1720 1.386 . S
C1724 C1719 1.490 1_565 S
C1724 C1726 1.395 . S
C1724 C1727 1.403 . S
H1725 C1731 0.930 . S
C1726 H1712 0.930 1_565 S
C1726 C1724 1.395 . S
C1726 C1729 1.403 . S
C1727 C1724 1.403 . S
C1727 C1728 1.524 . S
C1727 C1731 1.400 . S
C1728 H1713 0.960 . S
C1728 H1714 0.960 . S
C1728 H1715 0.960 . S
C1728 C1727 1.524 . S
C1729 C1726 1.403 . S
C1729 C1730 1.392 . S
C1729 C1733 1.495 . S
C1730 C1729 1.392 . S
C1730 C1731 1.385 . S
C1730 C1732 1.478 . S
C1731 H1725 0.930 . S
C1731 C1727 1.400 . S
C1731 C1730 1.385 . S
C1732 C1730 1.478 . S
C1732 C1734 1.381 . S
C1732 C1738 1.383 . S
C1733 C1729 1.495 . S
C1733 H1739 0.959 1_565 S
C1733 H1740 0.961 . S
C1733 H1741 0.960 . S
C1734 C1732 1.381 . S
C1734 C1735 1.394 . S
C1734 H1742 0.930 . S
C1735 C1734 1.394 . S
C1735 C1736 1.383 . S
C1735 H1743 0.929 . S
C1736 C1735 1.383 . S
C1736 C1737 1.377 . S
C1737 H1721 0.930 . S
C1737 C1736 1.377 . S
C1737 C1738 1.379 . S
C1738 H1722 0.931 . S
C1738 C1732 1.383 . S
C1738 C1737 1.379 . S
H1739 C1733 0.959 1_545 S
H1740 C1733 0.961 . S
H1741 C1733 0.960 . S
H1742 C1734 0.930 . S
H1743 C1735 0.929 . S
H1744 C1752 0.929 . S
H1745 C1754 0.930 . S
H1746 C1756 0.930 . S
H1747 C1759 0.929 . S
H1748 C1762 0.930 . S
H1749 C1764 0.960 . S
H1750 C1764 0.960 . S
H1751 C1764 0.960 . S
C1752 H1744 0.929 . S
C1752 C1753 1.377 . S
C1752 C1754 1.384 . S
C1753 C1752 1.377 . S
C1753 C1759 1.390 . S
C1754 H1745 0.930 . S
C1754 C1752 1.384 . S
C1754 C1755 1.372 . S
C1755 C1754 1.372 . S
C1755 C1756 1.400 . S
C1755 C1760 1.490 . S
C1756 H1746 0.930 . S
C1756 C1755 1.400 . S
C1756 C1759 1.386 . S
H1757 C1773 0.930 . S
H1758 C1774 0.931 . S
C1759 H1747 0.929 . S
C1759 C1753 1.390 . S
C1759 C1756 1.386 . S
C1760 C1755 1.490 . S
C1760 C1762 1.395 . S
C1760 C1763 1.403 . S
H1761 C1767 0.930 . S
C1762 H1748 0.930 . S
C1762 C1760 1.395 . S
C1762 C1765 1.403 . S
C1763 C1760 1.403 . S
C1763 C1764 1.524 . S
C1763 C1767 1.400 . S
C1764 H1749 0.960 . S
C1764 H1750 0.960 . S
C1764 H1751 0.960 . S
C1764 C1763 1.524 . S
C1765 C1762 1.403 . S
C1765 C1766 1.392 . S
C1765 C1769 1.495 . S
C1766 C1765 1.392 . S
C1766 C1767 1.385 . S
C1766 C1768 1.478 . S
C1767 H1761 0.930 . S
C1767 C1763 1.400 . S
C1767 C1766 1.385 . S
C1768 C1766 1.478 . S
C1768 C1770 1.381 . S
C1768 C1774 1.383 . S
C1769 C1765 1.495 . S
C1769 H1775 0.959 . S
C1769 H1776 0.961 . S
C1769 H1777 0.960 . S
C1770 C1768 1.381 . S
C1770 C1771 1.394 . S
C1770 H1778 0.930 . S
C1771 C1770 1.394 . S
C1771 C1772 1.383 . S
C1771 H1779 0.929 . S
C1772 C1771 1.383 . S
C1772 C1773 1.377 . S
C1773 H1757 0.930 . S
C1773 C1772 1.377 . S
C1773 C1774 1.379 . S
C1774 H1758 0.931 . S
C1774 C1768 1.383 . S
C1774 C1773 1.379 . S
H1775 C1769 0.959 . S
H1776 C1769 0.961 . S
H1777 C1769 0.960 . S
H1778 C1770 0.930 . S
H1779 C1771 0.929 . S
H1780 C1788 0.929 . S
H1781 C1790 0.930 . S
H1782 C1792 0.930 . S
H1783 C1795 0.929 . S
H1784 C1798 0.930 . S
H1785 C1800 0.960 . S
H1786 C1800 0.960 . S
H1787 C1800 0.960 . S
C1788 H1780 0.929 . S
C1788 C1789 1.377 . S
C1788 C1790 1.384 . S
C1789 C1788 1.377 . S
C1789 C1795 1.390 . S
C1790 H1781 0.930 . S
C1790 C1788 1.384 . S
C1790 C1791 1.372 . S
C1791 C1790 1.372 . S
C1791 C1792 1.400 . S
C1791 C1796 1.490 1_565 S
C1792 H1782 0.930 . S
C1792 C1791 1.400 . S
C1792 C1795 1.386 . S
H1793 C1809 0.930 . S
H1794 C1810 0.931 . S
C1795 H1783 0.929 . S
C1795 C1789 1.390 . S
C1795 C1792 1.386 . S
C1796 C1791 1.490 1_545 S
C1796 C1798 1.395 . S
C1796 C1799 1.403 . S
H1797 C1803 0.930 . S
C1798 H1784 0.930 . S
C1798 C1796 1.395 . S
C1798 C1801 1.403 . S
C1799 C1796 1.403 . S
C1799 C1800 1.524 1_545 S
C1799 C1803 1.400 . S
C1800 H1785 0.960 . S
C1800 H1786 0.960 . S
C1800 H1787 0.960 . S
C1800 C1799 1.524 1_565 S
C1801 C1798 1.403 . S
C1801 C1802 1.392 . S
C1801 C1805 1.495 . S
C1802 C1801 1.392 . S
C1802 C1803 1.385 . S
C1802 C1804 1.478 . S
C1803 H1797 0.930 . S
C1803 C1799 1.400 . S
C1803 C1802 1.385 . S
C1804 C1802 1.478 . S
C1804 C1806 1.381 . S
C1804 C1810 1.383 . S
C1805 C1801 1.495 . S
C1805 H1811 0.959 . S
C1805 H1812 0.961 . S
C1805 H1813 0.960 . S
C1806 C1804 1.381 . S
C1806 C1807 1.394 . S
C1806 H1814 0.930 . S
C1807 C1806 1.394 . S
C1807 C1808 1.383 . S
C1807 H1815 0.929 . S
C1808 C1807 1.383 . S
C1808 C1809 1.377 . S
C1809 H1793 0.930 . S
C1809 C1808 1.377 . S
C1809 C1810 1.379 . S
C1810 H1794 0.931 . S
C1810 C1804 1.383 . S
C1810 C1809 1.379 . S
H1811 C1805 0.959 . S
H1812 C1805 0.961 . S
H1813 C1805 0.960 . S
H1814 C1806 0.930 . S
H1815 C1807 0.929 . S
H1816 C1824 0.929 . S
H1817 C1826 0.930 . S
H1818 C1828 0.930 . S
H1819 C1831 0.929 . S
H1820 C1834 0.930 . S
H1821 C1836 0.960 . S
H1822 C1836 0.960 . S
H1823 C1836 0.960 . S
C1824 H1816 0.929 . S
C1824 C1825 1.377 . S
C1824 C1826 1.384 . S
C1825 C1824 1.377 . S
C1825 C1831 1.390 . S
C1826 H1817 0.930 . S
C1826 C1824 1.384 . S
C1826 C1827 1.372 . S
C1827 C1826 1.372 . S
C1827 C1828 1.400 . S
C1827 C1832 1.490 1_554 S
C1828 H1818 0.930 . S
C1828 C1827 1.400 . S
C1828 C1831 1.386 . S
H1829 C1845 0.930 . S
H1830 C1846 0.931 . S
C1831 H1819 0.929 . S
C1831 C1825 1.390 . S
C1831 C1828 1.386 . S
C1832 C1827 1.490 1_556 S
C1832 C1834 1.395 . S
C1832 C1835 1.403 . S
H1833 C1839 0.930 . S
C1834 H1820 0.930 . S
C1834 C1832 1.395 . S
C1834 C1837 1.403 . S
C1835 C1832 1.403 . S
C1835 C1836 1.524 1_556 S
C1835 C1839 1.400 . S
C1836 H1821 0.960 . S
C1836 H1822 0.960 . S
C1836 H1823 0.960 . S
C1836 C1835 1.524 1_554 S
C1837 C1834 1.403 . S
C1837 C1838 1.392 . S
C1837 C1841 1.495 . S
C1838 C1837 1.392 . S
C1838 C1839 1.385 . S
C1838 C1840 1.478 . S
C1839 H1833 0.930 . S
C1839 C1835 1.400 . S
C1839 C1838 1.385 . S
C1840 C1838 1.478 . S
C1840 C1842 1.381 . S
C1840 C1846 1.383 . S
C1841 C1837 1.495 . S
C1841 H1847 0.959 . S
C1841 H1848 0.961 . S
C1841 H1849 0.960 . S
C1842 C1840 1.381 . S
C1842 C1843 1.394 . S
C1842 H1850 0.930 . S
C1843 C1842 1.394 . S
C1843 C1844 1.383 . S
C1843 H1851 0.929 . S
C1844 C1843 1.383 . S
C1844 C1845 1.377 . S
C1845 H1829 0.930 . S
C1845 C1844 1.377 . S
C1845 C1846 1.379 . S
C1846 H1830 0.931 . S
C1846 C1840 1.383 . S
C1846 C1845 1.379 . S
H1847 C1841 0.959 . S
H1848 C1841 0.961 . S
H1849 C1841 0.960 . S
H1850 C1842 0.930 . S
H1851 C1843 0.929 . S
H1852 C1860 0.929 . S
H1853 C1862 0.930 . S
H1854 C1864 0.930 . S
H1855 C1867 0.929 . S
H1856 C1870 0.930 . S
H1857 C1872 0.960 . S
H1858 C1872 0.960 . S
H1859 C1872 0.960 . S
C1860 H1852 0.929 . S
C1860 C1861 1.377 . S
C1860 C1862 1.384 . S
C1861 C1860 1.377 . S
C1861 C1867 1.390 . S
C1862 H1853 0.930 . S
C1862 C1860 1.384 . S
C1862 C1863 1.372 . S
C1863 C1862 1.372 . S
C1863 C1864 1.400 . S
C1863 C1868 1.490 . S
C1864 H1854 0.930 . S
C1864 C1863 1.400 . S
C1864 C1867 1.386 . S
H1865 C1881 0.930 . S
H1866 C1882 0.931 . S
C1867 H1855 0.929 . S
C1867 C1861 1.390 . S
C1867 C1864 1.386 . S
C1868 C1863 1.490 . S
C1868 C1870 1.395 1_655 S
C1868 C1871 1.403 . S
H1869 C1875 0.930 . S
C1870 H1856 0.930 . S
C1870 C1868 1.395 1_455 S
C1870 C1873 1.403 . S
C1871 C1868 1.403 . S
C1871 C1872 1.524 . S
C1871 C1875 1.400 1_655 S
C1872 H1857 0.960 . S
C1872 H1858 0.960 . S
C1872 H1859 0.960 . S
C1872 C1871 1.524 . S
C1873 C1870 1.403 . S
C1873 C1874 1.392 . S
C1873 C1877 1.495 . S
C1874 C1873 1.392 . S
C1874 C1875 1.385 . S
C1874 C1876 1.478 . S
C1875 H1869 0.930 . S
C1875 C1871 1.400 1_455 S
C1875 C1874 1.385 . S
C1876 C1874 1.478 . S
C1876 C1878 1.381 . S
C1876 C1882 1.383 . S
C1877 C1873 1.495 . S
C1877 H1883 0.959 . S
C1877 H1884 0.961 . S
C1877 H1885 0.960 . S
C1878 C1876 1.381 . S
C1878 C1879 1.394 . S
C1878 H1886 0.930 . S
C1879 C1878 1.394 . S
C1879 C1880 1.383 . S
C1879 H1887 0.929 . S
C1880 C1879 1.383 . S
C1880 C1881 1.377 . S
C1881 H1865 0.930 . S
C1881 C1880 1.377 . S
C1881 C1882 1.379 . S
C1882 H1866 0.931 . S
C1882 C1876 1.383 . S
C1882 C1881 1.379 . S
H1883 C1877 0.959 . S
H1884 C1877 0.961 . S
H1885 C1877 0.960 . S
H1886 C1878 0.930 . S
H1887 C1879 0.929 . S
H1888 C1896 0.929 . S
H1889 C1898 0.930 . S
H1890 C1900 0.930 . S
H1891 C1903 0.929 . S
H1892 C1906 0.930 . S
H1893 C1908 0.960 . S
H1894 C1908 0.960 . S
H1895 C1908 0.960 . S
C1896 H1888 0.929 . S
C1896 C1897 1.377 . S
C1896 C1898 1.384 . S
C1897 C1896 1.377 . S
C1897 C1903 1.390 . S
C1898 H1889 0.930 . S
C1898 C1896 1.384 . S
C1898 C1899 1.372 . S
C1899 C1898 1.372 . S
C1899 C1900 1.400 . S
C1899 C1904 1.490 . S
C1900 H1890 0.930 . S
C1900 C1899 1.400 . S
C1900 C1903 1.386 . S
H1901 C1917 0.930 . S
H1902 C1918 0.931 . S
C1903 H1891 0.929 . S
C1903 C1897 1.390 . S
C1903 C1900 1.386 . S
C1904 C1899 1.490 . S
C1904 C1906 1.395 . S
C1904 C1907 1.403 . S
H1905 C1911 0.930 . S
C1906 H1892 0.930 . S
C1906 C1904 1.395 . S
C1906 C1909 1.403 . S
C1907 C1904 1.403 . S
C1907 C1908 1.524 . S
C1907 C1911 1.400 . S
C1908 H1893 0.960 . S
C1908 H1894 0.960 . S
C1908 H1895 0.960 . S
C1908 C1907 1.524 . S
C1909 C1906 1.403 . S
C1909 C1910 1.392 . S
C1909 C1913 1.495 . S
C1910 C1909 1.392 . S
C1910 C1911 1.385 . S
C1910 C1912 1.478 . S
C1911 H1905 0.930 . S
C1911 C1907 1.400 . S
C1911 C1910 1.385 . S
C1912 C1910 1.478 . S
C1912 C1914 1.381 . S
C1912 C1918 1.383 . S
C1913 C1909 1.495 . S
C1913 H1919 0.959 . S
C1913 H1920 0.961 . S
C1913 H1921 0.960 . S
C1914 C1912 1.381 . S
C1914 C1915 1.394 . S
C1914 H1922 0.930 . S
C1915 C1914 1.394 . S
C1915 C1916 1.383 . S
C1915 H1923 0.929 . S
C1916 C1915 1.383 . S
C1916 C1917 1.377 . S
C1917 H1901 0.930 . S
C1917 C1916 1.377 . S
C1917 C1918 1.379 . S
C1918 H1902 0.931 . S
C1918 C1912 1.383 . S
C1918 C1917 1.379 . S
H1919 C1913 0.959 . S
H1920 C1913 0.961 . S
H1921 C1913 0.960 . S
H1922 C1914 0.930 . S
H1923 C1915 0.929 . S
H1924 C1932 0.929 . S
H1925 C1934 0.930 . S
H1926 C1936 0.930 . S
H1927 C1939 0.929 . S
H1928 C1942 0.930 . S
H1929 C1944 0.960 . S
H1930 C1944 0.960 . S
H1931 C1944 0.960 . S
C1932 H1924 0.929 . S
C1932 C1933 1.377 . S
C1932 C1934 1.384 . S
C1933 C1932 1.377 . S
C1933 C1939 1.390 . S
C1934 H1925 0.930 . S
C1934 C1932 1.384 . S
C1934 C1935 1.372 . S
C1935 C1934 1.372 . S
C1935 C1936 1.400 . S
C1935 C1940 1.522 . S
C1936 H1926 0.930 . S
C1936 C1935 1.400 . S
C1936 C1939 1.386 . S
H1937 C1953 0.930 . S
H1938 C1954 0.931 . S
C1939 H1927 0.929 . S
C1939 C1933 1.390 . S
C1939 C1936 1.386 . S
C1940 C1935 1.522 . S
C1940 C1942 1.356 1_455 S
C1940 C1943 1.409 . S
H1941 C1947 0.930 . S
C1942 H1928 0.930 . S
C1942 C1940 1.356 1_655 S
C1942 C1945 1.403 . S
C1943 C1940 1.409 . S
C1943 C1944 1.524 . S
C1943 C1947 1.400 1_455 S
C1944 H1929 0.960 . S
C1944 H1930 0.960 . S
C1944 H1931 0.960 . S
C1944 C1943 1.524 . S
C1945 C1942 1.403 . S
C1945 C1946 1.392 . S
C1945 C1949 1.495 . S
C1946 C1945 1.392 . S
C1946 C1947 1.385 . S
C1946 C1948 1.478 . S
C1947 H1941 0.930 . S
C1947 C1943 1.400 1_655 S
C1947 C1946 1.385 . S
C1948 C1946 1.478 . S
C1948 C1950 1.381 . S
C1948 C1954 1.383 . S
C1949 C1945 1.495 . S
C1949 H1955 0.959 . S
C1949 H1956 0.961 . S
C1949 H1957 0.960 . S
C1950 C1948 1.381 . S
C1950 C1951 1.394 . S
C1950 H1958 0.930 . S
C1951 C1950 1.394 . S
C1951 C1952 1.383 . S
C1951 H1959 0.929 . S
C1952 C1951 1.383 . S
C1952 C1953 1.377 . S
C1953 H1937 0.930 . S
C1953 C1952 1.377 . S
C1953 C1954 1.379 . S
C1954 H1938 0.931 . S
C1954 C1948 1.383 . S
C1954 C1953 1.379 . S
H1955 C1949 0.959 . S
H1956 C1949 0.961 . S
H1957 C1949 0.960 . S
H1958 C1950 0.930 . S
H1959 C1951 0.929 . S
H1960 C1968 0.929 . S
H1961 C1970 0.930 . S
H1962 C1972 0.930 . S
H1963 C1975 0.929 . S
H1964 C1978 0.930 . S
H1965 C1980 0.960 . S
H1966 C1980 0.960 . S
H1967 C1980 0.960 . S
C1968 H1960 0.929 . S
C1968 C1969 1.377 . S
C1968 C1970 1.384 . S
C1969 C1968 1.377 . S
C1969 C1975 1.390 . S
C1970 H1961 0.930 . S
C1970 C1968 1.384 . S
C1970 C1971 1.372 . S
C1971 C1970 1.372 . S
C1971 C1972 1.400 . S
C1971 C1976 1.524 . S
C1972 H1962 0.930 . S
C1972 C1971 1.400 . S
C1972 C1975 1.386 . S
H1973 C1989 0.930 . S
H1974 C1990 0.931 . S
C1975 H1963 0.929 . S
C1975 C1969 1.390 . S
C1975 C1972 1.386 . S
C1976 C1971 1.524 . S
C1976 C1978 1.408 . S
C1976 C1979 1.357 1_455 S
H1977 C1983 0.930 . S
C1978 H1964 0.930 . S
C1978 C1976 1.408 . S
C1978 C1981 1.403 1_455 S
C1979 C1976 1.357 1_655 S
C1979 C1980 1.524 . S
C1979 C1983 1.400 . S
C1980 H1965 0.960 . S
C1980 H1966 0.960 . S
C1980 H1967 0.960 . S
C1980 C1979 1.524 . S
C1981 C1978 1.403 1_655 S
C1981 C1982 1.392 . S
C1981 C1985 1.494 1_655 S
C1982 C1981 1.392 . S
C1982 C1983 1.385 . S
C1982 C1984 1.478 . S
C1983 H1977 0.930 . S
C1983 C1979 1.400 . S
C1983 C1982 1.385 . S
C1984 C1982 1.478 . S
C1984 C1986 1.381 . S
C1984 C1990 1.383 . S
C1985 C1981 1.494 1_455 S
C1985 H1991 0.963 . S
C1985 H1992 0.960 1_455 S
C1985 H1993 0.958 1_455 S
C1986 C1984 1.381 . S
C1986 C1987 1.394 . S
C1986 H1994 0.930 . S
C1987 C1986 1.394 . S
C1987 C1988 1.383 . S
C1987 H1995 0.929 . S
C1988 C1987 1.383 . S
C1988 C1989 1.377 . S
C1989 H1973 0.930 . S
C1989 C1988 1.377 . S
C1989 C1990 1.379 . S
C1990 H1974 0.931 . S
C1990 C1984 1.383 . S
C1990 C1989 1.379 . S
H1991 C1985 0.963 . S
H1992 C1985 0.960 1_655 S
H1993 C1985 0.958 1_655 S
H1994 C1986 0.930 . S
H1995 C1987 0.929 . S
H1996 C2004 0.929 . S
H1997 C2006 0.930 . S
H1998 C2008 0.930 . S
H1999 C2011 0.929 . S
H2000 C2014 0.930 . S
H2001 C2016 0.960 . S
H2002 C2016 0.960 . S
H2003 C2016 0.960 . S
C2004 H1996 0.929 . S
C2004 C2005 1.377 . S
C2004 C2006 1.384 . S
C2005 C2004 1.377 . S
C2005 C2011 1.390 . S
C2006 H1997 0.930 . S
C2006 C2004 1.384 . S
C2006 C2007 1.372 . S
C2007 C2006 1.372 . S
C2007 C2008 1.400 . S
C2007 C2012 1.490 . S
C2008 H1998 0.930 . S
C2008 C2007 1.400 . S
C2008 C2011 1.386 . S
H2009 C2025 0.930 . S
H2010 C2026 0.931 . S
C2011 H1999 0.929 . S
C2011 C2005 1.390 . S
C2011 C2008 1.386 . S
C2012 C2007 1.490 . S
C2012 C2014 1.395 . S
C2012 C2015 1.403 . S
H2013 C2019 0.930 . S
C2014 H2000 0.930 . S
C2014 C2012 1.395 . S
C2014 C2017 1.403 . S
C2015 C2012 1.403 . S
C2015 C2016 1.524 . S
C2015 C2019 1.400 . S
C2016 H2001 0.960 . S
C2016 H2002 0.960 . S
C2016 H2003 0.960 . S
C2016 C2015 1.524 . S
C2017 C2014 1.403 . S
C2017 C2018 1.392 . S
C2017 C2021 1.495 . S
C2018 C2017 1.392 . S
C2018 C2019 1.385 . S
C2018 C2020 1.478 . S
C2019 H2013 0.930 . S
C2019 C2015 1.400 . S
C2019 C2018 1.385 . S
C2020 C2018 1.478 . S
C2020 C2022 1.381 . S
C2020 C2026 1.383 . S
C2021 C2017 1.495 . S
C2021 H2027 0.959 . S
C2021 H2028 0.961 . S
C2021 H2029 0.960 . S
C2022 C2020 1.381 . S
C2022 C2023 1.394 . S
C2022 H2030 0.930 . S
C2023 C2022 1.394 . S
C2023 C2024 1.383 . S
C2023 H2031 0.929 . S
C2024 C2023 1.383 . S
C2024 C2025 1.377 . S
C2025 H2009 0.930 . S
C2025 C2024 1.377 . S
C2025 C2026 1.379 . S
C2026 H2010 0.931 . S
C2026 C2020 1.383 . S
C2026 C2025 1.379 . S
H2027 C2021 0.959 . S
H2028 C2021 0.961 . S
H2029 C2021 0.960 . S
H2030 C2022 0.930 . S
H2031 C2023 0.929 . S
H2032 C2040 0.929 . S
H2033 C2042 0.930 . S
H2034 C2044 0.930 . S
H2035 C2047 0.929 . S
H2036 C2050 0.930 . S
H2037 C2052 0.960 . S
H2038 C2052 0.960 . S
H2039 C2052 0.960 . S
C2040 H2032 0.929 . S
C2040 C2041 1.377 . S
C2040 C2042 1.384 . S
C2041 C2040 1.377 . S
C2041 C2047 1.390 . S
C2042 H2033 0.930 . S
C2042 C2040 1.384 . S
C2042 C2043 1.372 . S
C2043 C2042 1.372 . S
C2043 C2044 1.400 . S
C2043 C2048 1.490 . S
C2044 H2034 0.930 . S
C2044 C2043 1.400 . S
C2044 C2047 1.386 . S
H2045 C2061 0.930 . S
H2046 C2062 0.931 . S
C2047 H2035 0.929 . S
C2047 C2041 1.390 . S
C2047 C2044 1.386 . S
C2048 C2043 1.490 . S
C2048 C2050 1.395 . S
C2048 C2051 1.403 1_655 S
H2049 C2055 0.930 . S
C2050 H2036 0.930 . S
C2050 C2048 1.395 . S
C2050 C2053 1.403 1_655 S
C2051 C2048 1.403 1_455 S
C2051 C2052 1.524 . S
C2051 C2055 1.400 . S
C2052 H2037 0.960 . S
C2052 H2038 0.960 . S
C2052 H2039 0.960 . S
C2052 C2051 1.524 . S
C2053 C2050 1.403 1_455 S
C2053 C2054 1.392 . S
C2053 C2057 1.495 1_455 S
C2054 C2053 1.392 . S
C2054 C2055 1.385 . S
C2054 C2056 1.478 . S
C2055 H2049 0.930 . S
C2055 C2051 1.400 . S
C2055 C2054 1.385 . S
C2056 C2054 1.478 . S
C2056 C2058 1.381 . S
C2056 C2062 1.383 . S
C2057 C2053 1.495 1_655 S
C2057 H2063 0.959 . S
C2057 H2064 0.961 1_655 S
C2057 H2065 0.960 1_655 S
C2058 C2056 1.381 . S
C2058 C2059 1.394 . S
C2058 H2066 0.930 . S
C2059 C2058 1.394 . S
C2059 C2060 1.383 . S
C2059 H2067 0.929 . S
C2060 C2059 1.383 . S
C2060 C2061 1.377 . S
C2061 H2045 0.930 . S
C2061 C2060 1.377 . S
C2061 C2062 1.379 . S
C2062 H2046 0.931 . S
C2062 C2056 1.383 . S
C2062 C2061 1.379 . S
H2063 C2057 0.959 . S
H2064 C2057 0.961 1_455 S
H2065 C2057 0.960 1_455 S
H2066 C2058 0.930 . S
H2067 C2059 0.929 . S
H2068 C2076 0.929 . S
H2069 C2078 0.930 . S
H2070 C2080 0.930 . S
H2071 C2083 0.929 . S
H2072 C2086 0.930 . S
H2073 C2088 0.960 . S
H2074 C2088 0.960 . S
H2075 C2088 0.960 . S
C2076 H2068 0.929 . S
C2076 C2077 1.377 . S
C2076 C2078 1.384 . S
C2077 C2076 1.377 . S
C2077 C2083 1.390 . S
C2078 H2069 0.930 . S
C2078 C2076 1.384 . S
C2078 C2079 1.372 . S
C2079 C2078 1.372 . S
C2079 C2080 1.400 . S
C2079 C2084 1.490 . S
C2080 H2070 0.930 . S
C2080 C2079 1.400 . S
C2080 C2083 1.386 . S
H2081 C2097 0.930 . S
H2082 C2098 0.931 . S
C2083 H2071 0.929 . S
C2083 C2077 1.390 . S
C2083 C2080 1.386 . S
C2084 C2079 1.490 . S
C2084 C2086 1.395 . S
C2084 C2087 1.403 . S
H2085 C2091 0.930 . S
C2086 H2072 0.930 . S
C2086 C2084 1.395 . S
C2086 C2089 1.403 . S
C2087 C2084 1.403 . S
C2087 C2088 1.524 . S
C2087 C2091 1.400 . S
C2088 H2073 0.960 . S
C2088 H2074 0.960 . S
C2088 H2075 0.960 . S
C2088 C2087 1.524 . S
C2089 C2086 1.403 . S
C2089 C2090 1.392 . S
C2089 C2093 1.495 . S
C2090 C2089 1.392 . S
C2090 C2091 1.385 . S
C2090 C2092 1.478 . S
C2091 H2085 0.930 . S
C2091 C2087 1.400 . S
C2091 C2090 1.385 . S
C2092 C2090 1.478 . S
C2092 C2094 1.381 . S
C2092 C2098 1.383 . S
C2093 C2089 1.495 . S
C2093 H2099 0.959 . S
C2093 H2100 0.961 . S
C2093 H2101 0.960 . S
C2094 C2092 1.381 . S
C2094 C2095 1.394 . S
C2094 H2102 0.930 . S
C2095 C2094 1.394 . S
C2095 C2096 1.383 . S
C2095 H2103 0.929 . S
C2096 C2095 1.383 . S
C2096 C2097 1.377 . S
C2097 H2081 0.930 . S
C2097 C2096 1.377 . S
C2097 C2098 1.379 . S
C2098 H2082 0.931 . S
C2098 C2092 1.383 . S
C2098 C2097 1.379 . S
H2099 C2093 0.959 . S
H2100 C2093 0.961 . S
H2101 C2093 0.960 . S
H2102 C2094 0.930 . S
H2103 C2095 0.929 . S
H2104 C2112 0.929 . S
H2105 C2114 0.930 . S
H2106 C2116 0.930 . S
H2107 C2119 0.929 . S
H2108 C2122 0.930 . S
H2109 C2124 0.960 . S
H2110 C2124 0.960 . S
H2111 C2124 0.960 . S
C2112 H2104 0.929 . S
C2112 C2113 1.377 . S
C2112 C2114 1.384 . S
C2113 C2112 1.377 . S
C2113 C2119 1.390 . S
C2114 H2105 0.930 . S
C2114 C2112 1.384 . S
C2114 C2115 1.372 . S
C2115 C2114 1.372 . S
C2115 C2116 1.400 . S
C2115 C2120 1.490 . S
C2116 H2106 0.930 . S
C2116 C2115 1.400 . S
C2116 C2119 1.386 . S
H2117 C2133 0.930 . S
H2118 C2134 0.931 . S
C2119 H2107 0.929 . S
C2119 C2113 1.390 . S
C2119 C2116 1.386 . S
C2120 C2115 1.490 . S
C2120 C2122 1.395 . S
C2120 C2123 1.403 . S
H2121 C2127 0.930 . S
C2122 H2108 0.930 . S
C2122 C2120 1.395 . S
C2122 C2125 1.403 . S
C2123 C2120 1.403 . S
C2123 C2124 1.524 . S
C2123 C2127 1.400 . S
C2124 H2109 0.960 . S
C2124 H2110 0.960 . S
C2124 H2111 0.960 . S
C2124 C2123 1.524 . S
C2125 C2122 1.403 . S
C2125 C2126 1.392 . S
C2125 C2129 1.495 . S
C2126 C2125 1.392 . S
C2126 C2127 1.385 . S
C2126 C2128 1.478 . S
C2127 H2121 0.930 . S
C2127 C2123 1.400 . S
C2127 C2126 1.385 . S
C2128 C2126 1.478 . S
C2128 C2130 1.381 . S
C2128 C2134 1.383 . S
C2129 C2125 1.495 . S
C2129 H2135 0.959 . S
C2129 H2136 0.961 . S
C2129 H2137 0.960 . S
C2130 C2128 1.381 . S
C2130 C2131 1.394 . S
C2130 H2138 0.930 . S
C2131 C2130 1.394 . S
C2131 C2132 1.383 . S
C2131 H2139 0.929 . S
C2132 C2131 1.383 . S
C2132 C2133 1.377 . S
C2133 H2117 0.930 . S
C2133 C2132 1.377 . S
C2133 C2134 1.379 . S
C2134 H2118 0.931 . S
C2134 C2128 1.383 . S
C2134 C2133 1.379 . S
H2135 C2129 0.959 . S
H2136 C2129 0.961 . S
H2137 C2129 0.960 . S
H2138 C2130 0.930 . S
H2139 C2131 0.929 . S
H2140 C2148 0.929 . S
H2141 C2150 0.930 1_556 S
H2142 C2152 0.930 . S
H2143 C2155 0.929 . S
H2144 C2158 0.930 . S
H2145 C2160 0.960 . S
H2146 C2160 0.960 . S
H2147 C2160 0.960 . S
C2148 H2140 0.929 . S
C2148 C2149 1.377 . S
C2148 C2150 1.384 . S
C2149 C2148 1.377 . S
C2149 C2155 1.390 . S
C2150 H2141 0.930 1_554 S
C2150 C2148 1.384 . S
C2150 C2151 1.372 . S
C2151 C2150 1.372 . S
C2151 C2152 1.400 . S
C2151 C2156 1.490 1_554 S
C2152 H2142 0.930 . S
C2152 C2151 1.400 . S
C2152 C2155 1.386 . S
H2153 C2169 0.930 . S
H2154 C2170 0.931 . S
C2155 H2143 0.929 . S
C2155 C2149 1.390 . S
C2155 C2152 1.386 . S
C2156 C2151 1.490 1_556 S
C2156 C2158 1.395 . S
C2156 C2159 1.403 . S
H2157 C2163 0.930 . S
C2158 H2144 0.930 . S
C2158 C2156 1.395 . S
C2158 C2161 1.403 . S
C2159 C2156 1.403 . S
C2159 C2160 1.524 1_556 S
C2159 C2163 1.400 . S
C2160 H2145 0.960 . S
C2160 H2146 0.960 . S
C2160 H2147 0.960 . S
C2160 C2159 1.524 1_554 S
C2161 C2158 1.403 . S
C2161 C2162 1.392 . S
C2161 C2165 1.495 . S
C2162 C2161 1.392 . S
C2162 C2163 1.385 . S
C2162 C2164 1.478 . S
C2163 H2157 0.930 . S
C2163 C2159 1.400 . S
C2163 C2162 1.385 . S
C2164 C2162 1.478 . S
C2164 C2166 1.381 . S
C2164 C2170 1.383 . S
C2165 C2161 1.495 . S
C2165 H2171 0.959 . S
C2165 H2172 0.961 . S
C2165 H2173 0.960 . S
C2166 C2164 1.381 . S
C2166 C2167 1.394 . S
C2166 H2174 0.930 . S
C2167 C2166 1.394 . S
C2167 C2168 1.383 . S
C2167 H2175 0.929 . S
C2168 C2167 1.383 . S
C2168 C2169 1.377 . S
C2169 H2153 0.930 . S
C2169 C2168 1.377 . S
C2169 C2170 1.379 . S
C2170 H2154 0.931 . S
C2170 C2164 1.383 . S
C2170 C2169 1.379 . S
H2171 C2165 0.959 . S
H2172 C2165 0.961 . S
H2173 C2165 0.960 . S
H2174 C2166 0.930 . S
H2175 C2167 0.929 . S
H2176 C2184 0.929 . S
H2177 C2186 0.930 . S
H2178 C2188 0.930 . S
H2179 C2191 0.929 . S
H2180 C2194 0.930 . S
H2181 C2196 0.960 . S
H2182 C2196 0.960 . S
H2183 C2196 0.960 . S
C2184 H2176 0.929 . S
C2184 C2185 1.377 . S
C2184 C2186 1.384 . S
C2185 C2184 1.377 . S
C2185 C2191 1.390 . S
C2186 H2177 0.930 . S
C2186 C2184 1.384 . S
C2186 C2187 1.372 . S
C2187 C2186 1.372 . S
C2187 C2188 1.400 . S
C2187 C2192 1.490 . S
C2188 H2178 0.930 . S
C2188 C2187 1.400 . S
C2188 C2191 1.386 . S
H2189 C2205 0.930 . S
H2190 C2206 0.931 . S
C2191 H2179 0.929 . S
C2191 C2185 1.390 . S
C2191 C2188 1.386 . S
C2192 C2187 1.490 . S
C2192 C2194 1.395 . S
C2192 C2195 1.403 . S
H2193 C2199 0.930 . S
C2194 H2180 0.930 . S
C2194 C2192 1.395 . S
C2194 C2197 1.403 . S
C2195 C2192 1.403 . S
C2195 C2196 1.524 . S
C2195 C2199 1.400 . S
C2196 H2181 0.960 . S
C2196 H2182 0.960 . S
C2196 H2183 0.960 . S
C2196 C2195 1.524 . S
C2197 C2194 1.403 . S
C2197 C2198 1.392 . S
C2197 C2201 1.495 . S
C2198 C2197 1.392 . S
C2198 C2199 1.385 . S
C2198 C2200 1.478 . S
C2199 H2193 0.930 . S
C2199 C2195 1.400 . S
C2199 C2198 1.385 . S
C2200 C2198 1.478 . S
C2200 C2202 1.381 . S
C2200 C2206 1.383 . S
C2201 C2197 1.495 . S
C2201 H2207 0.959 . S
C2201 H2208 0.961 . S
C2201 H2209 0.960 . S
C2202 C2200 1.381 . S
C2202 C2203 1.394 . S
C2202 H2210 0.930 . S
C2203 C2202 1.394 . S
C2203 C2204 1.383 . S
C2203 H2211 0.929 . S
C2204 C2203 1.383 . S
C2204 C2205 1.377 . S
C2205 H2189 0.930 . S
C2205 C2204 1.377 . S
C2205 C2206 1.379 . S
C2206 H2190 0.931 . S
C2206 C2200 1.383 . S
C2206 C2205 1.379 . S
H2207 C2201 0.959 . S
H2208 C2201 0.961 . S
H2209 C2201 0.960 . S
H2210 C2202 0.930 . S
H2211 C2203 0.929 . S
H2212 C2220 0.929 . S
H2213 C2222 0.930 . S
H2214 C2224 0.930 . S
H2215 C2227 0.929 . S
H2216 C2230 0.930 . S
H2217 C2232 0.960 . S
H2218 C2232 0.960 . S
H2219 C2232 0.960 . S
C2220 H2212 0.929 . S
C2220 C2221 1.377 . S
C2220 C2222 1.384 . S
C2221 C2220 1.377 . S
C2221 C2227 1.390 . S
C2222 H2213 0.930 . S
C2222 C2220 1.384 . S
C2222 C2223 1.372 . S
C2223 C2222 1.372 . S
C2223 C2224 1.400 . S
C2223 C2228 1.490 . S
C2224 H2214 0.930 . S
C2224 C2223 1.400 . S
C2224 C2227 1.386 . S
H2225 C2241 0.930 . S
H2226 C2242 0.931 . S
C2227 H2215 0.929 . S
C2227 C2221 1.390 . S
C2227 C2224 1.386 . S
C2228 C2223 1.490 . S
C2228 C2230 1.395 . S
C2228 C2231 1.403 . S
H2229 C2235 0.930 . S
C2230 H2216 0.930 . S
C2230 C2228 1.395 . S
C2230 C2233 1.403 . S
C2231 C2228 1.403 . S
C2231 C2232 1.524 . S
C2231 C2235 1.400 . S
C2232 H2217 0.960 . S
C2232 H2218 0.960 . S
C2232 H2219 0.960 . S
C2232 C2231 1.524 . S
C2233 C2230 1.403 . S
C2233 C2234 1.392 . S
C2233 C2237 1.495 . S
C2234 C2233 1.392 . S
C2234 C2235 1.385 . S
C2234 C2236 1.478 . S
C2235 H2229 0.930 . S
C2235 C2231 1.400 . S
C2235 C2234 1.385 . S
C2236 C2234 1.478 . S
C2236 C2238 1.381 . S
C2236 C2242 1.383 . S
C2237 C2233 1.495 . S
C2237 H2243 0.959 . S
C2237 H2244 0.961 . S
C2237 H2245 0.960 . S
C2238 C2236 1.381 . S
C2238 C2239 1.394 . S
C2238 H2246 0.930 . S
C2239 C2238 1.394 . S
C2239 C2240 1.383 . S
C2239 H2247 0.929 . S
C2240 C2239 1.383 . S
C2240 C2241 1.377 . S
C2241 H2225 0.930 . S
C2241 C2240 1.377 . S
C2241 C2242 1.379 . S
C2242 H2226 0.931 . S
C2242 C2236 1.383 . S
C2242 C2241 1.379 . S
H2243 C2237 0.959 . S
H2244 C2237 0.961 . S
H2245 C2237 0.960 . S
H2246 C2238 0.930 . S
H2247 C2239 0.929 . S
H2248 C2256 0.929 . S
H2249 C2258 0.930 . S
H2250 C2260 0.930 . S
H2251 C2263 0.929 . S
H2252 C2266 0.930 . S
H2253 C2268 0.960 . S
H2254 C2268 0.960 . S
H2255 C2268 0.960 . S
C2256 H2248 0.929 . S
C2256 C2257 1.377 . S
C2256 C2258 1.384 . S
C2257 C2256 1.377 . S
C2257 C2263 1.390 . S
C2258 H2249 0.930 . S
C2258 C2256 1.384 . S
C2258 C2259 1.372 . S
C2259 C2258 1.372 . S
C2259 C2260 1.400 . S
C2259 C2264 1.490 . S
C2260 H2250 0.930 . S
C2260 C2259 1.400 . S
C2260 C2263 1.386 . S
H2261 C2277 0.930 . S
H2262 C2278 0.931 . S
C2263 H2251 0.929 . S
C2263 C2257 1.390 . S
C2263 C2260 1.386 . S
C2264 C2259 1.490 . S
C2264 C2266 1.395 . S
C2264 C2267 1.403 . S
H2265 C2271 0.930 . S
C2266 H2252 0.930 . S
C2266 C2264 1.395 . S
C2266 C2269 1.403 . S
C2267 C2264 1.403 . S
C2267 C2268 1.524 . S
C2267 C2271 1.400 . S
C2268 H2253 0.960 . S
C2268 H2254 0.960 . S
C2268 H2255 0.960 . S
C2268 C2267 1.524 . S
C2269 C2266 1.403 . S
C2269 C2270 1.392 . S
C2269 C2273 1.495 . S
C2270 C2269 1.392 . S
C2270 C2271 1.385 . S
C2270 C2272 1.478 . S
C2271 H2265 0.930 . S
C2271 C2267 1.400 . S
C2271 C2270 1.385 . S
C2272 C2270 1.478 . S
C2272 C2274 1.381 . S
C2272 C2278 1.383 . S
C2273 C2269 1.495 . S
C2273 H2279 0.959 . S
C2273 H2280 0.961 . S
C2273 H2281 0.960 . S
C2274 C2272 1.381 . S
C2274 C2275 1.394 . S
C2274 H2282 0.930 . S
C2275 C2274 1.394 . S
C2275 C2276 1.383 . S
C2275 H2283 0.929 . S
C2276 C2275 1.383 . S
C2276 C2277 1.377 . S
C2277 H2261 0.930 . S
C2277 C2276 1.377 . S
C2277 C2278 1.379 . S
C2278 H2262 0.931 . S
C2278 C2272 1.383 . S
C2278 C2277 1.379 . S
H2279 C2273 0.959 . S
H2280 C2273 0.961 . S
H2281 C2273 0.960 . S
H2282 C2274 0.930 . S
H2283 C2275 0.929 . S
H2284 C2292 0.929 . S
H2285 C2294 0.930 . S
H2286 C2296 0.930 . S
H2287 C2299 0.929 . S
H2288 C2302 0.930 . S
H2289 C2304 0.960 1_556 S
H2290 C2304 0.960 . S
H2291 C2304 0.960 . S
C2292 H2284 0.929 . S
C2292 C2293 1.377 . S
C2292 C2294 1.384 . S
C2293 C2292 1.377 . S
C2293 C2299 1.390 . S
C2294 H2285 0.930 . S
C2294 C2292 1.384 . S
C2294 C2295 1.372 . S
C2295 C2294 1.372 . S
C2295 C2296 1.400 . S
C2295 C2300 1.490 . S
C2296 H2286 0.930 . S
C2296 C2295 1.400 . S
C2296 C2299 1.386 . S
H2297 C2313 0.930 . S
H2298 C2314 0.931 . S
C2299 H2287 0.929 . S
C2299 C2293 1.390 . S
C2299 C2296 1.386 . S
C2300 C2295 1.490 . S
C2300 C2302 1.395 . S
C2300 C2303 1.403 . S
H2301 C2307 0.930 . S
C2302 H2288 0.930 . S
C2302 C2300 1.395 . S
C2302 C2305 1.403 . S
C2303 C2300 1.403 . S
C2303 C2304 1.524 . S
C2303 C2307 1.400 1_554 S
C2304 H2289 0.960 1_554 S
C2304 H2290 0.960 . S
C2304 H2291 0.960 . S
C2304 C2303 1.524 . S
C2305 C2302 1.403 . S
C2305 C2306 1.392 . S
C2305 C2309 1.495 . S
C2306 C2305 1.392 . S
C2306 C2307 1.385 1_554 S
C2306 C2308 1.478 1_554 S
C2307 H2301 0.930 . S
C2307 C2303 1.400 1_556 S
C2307 C2306 1.385 1_556 S
C2308 C2306 1.478 1_556 S
C2308 C2310 1.381 . S
C2308 C2314 1.383 . S
C2309 C2305 1.495 . S
C2309 H2315 0.959 . S
C2309 H2316 0.961 . S
C2309 H2317 0.960 . S
C2310 C2308 1.381 . S
C2310 C2311 1.394 . S
C2310 H2318 0.930 . S
C2311 C2310 1.394 . S
C2311 C2312 1.383 . S
C2311 H2319 0.929 . S
C2312 C2311 1.383 . S
C2312 C2313 1.377 . S
C2313 H2297 0.930 . S
C2313 C2312 1.377 . S
C2313 C2314 1.379 . S
C2314 H2298 0.931 . S
C2314 C2308 1.383 . S
C2314 C2313 1.379 . S
H2315 C2309 0.959 . S
H2316 C2309 0.961 . S
H2317 C2309 0.960 . S
H2318 C2310 0.930 . S
H2319 C2311 0.929 . S
H2320 C2328 0.929 . S
H2321 C2330 0.930 . S
H2322 C2332 0.930 . S
H2323 C2335 0.929 . S
H2324 C2338 0.930 . S
H2325 C2340 0.960 . S
H2326 C2340 0.960 . S
H2327 C2340 0.960 . S
C2328 H2320 0.929 . S
C2328 C2329 1.377 . S
C2328 C2330 1.384 . S
C2329 C2328 1.377 . S
C2329 C2335 1.390 . S
C2330 H2321 0.930 . S
C2330 C2328 1.384 . S
C2330 C2331 1.372 . S
C2331 C2330 1.372 . S
C2331 C2332 1.400 . S
C2331 C2336 1.490 . S
C2332 H2322 0.930 . S
C2332 C2331 1.400 . S
C2332 C2335 1.386 . S
H2333 C2349 0.930 . S
H2334 C2350 0.931 . S
C2335 H2323 0.929 . S
C2335 C2329 1.390 . S
C2335 C2332 1.386 . S
C2336 C2331 1.490 . S
C2336 C2338 1.395 . S
C2336 C2339 1.403 . S
H2337 C2343 0.930 . S
C2338 H2324 0.930 . S
C2338 C2336 1.395 . S
C2338 C2341 1.403 . S
C2339 C2336 1.403 . S
C2339 C2340 1.524 . S
C2339 C2343 1.400 . S
C2340 H2325 0.960 . S
C2340 H2326 0.960 . S
C2340 H2327 0.960 . S
C2340 C2339 1.524 . S
C2341 C2338 1.403 . S
C2341 C2342 1.392 . S
C2341 C2345 1.495 . S
C2342 C2341 1.392 . S
C2342 C2343 1.385 . S
C2342 C2344 1.478 . S
C2343 H2337 0.930 . S
C2343 C2339 1.400 . S
C2343 C2342 1.385 . S
C2344 C2342 1.478 . S
C2344 C2346 1.381 . S
C2344 C2350 1.383 . S
C2345 C2341 1.495 . S
C2345 H2351 0.959 . S
C2345 H2352 0.961 . S
C2345 H2353 0.960 . S
C2346 C2344 1.381 . S
C2346 C2347 1.394 . S
C2346 H2354 0.930 . S
C2347 C2346 1.394 . S
C2347 C2348 1.383 . S
C2347 H2355 0.929 . S
C2348 C2347 1.383 . S
C2348 C2349 1.377 . S
C2349 H2333 0.930 . S
C2349 C2348 1.377 . S
C2349 C2350 1.379 . S
C2350 H2334 0.931 . S
C2350 C2344 1.383 . S
C2350 C2349 1.379 . S
H2351 C2345 0.959 . S
H2352 C2345 0.961 . S
H2353 C2345 0.960 . S
H2354 C2346 0.930 . S
H2355 C2347 0.929 . S
H2356 C2364 0.929 . S
H2357 C2366 0.930 . S
H2358 C2368 0.930 . S
H2359 C2371 0.929 . S
H2360 C2374 0.930 . S
H2361 C2376 0.960 . S
H2362 C2376 0.960 . S
H2363 C2376 0.960 . S
C2364 H2356 0.929 . S
C2364 C2365 1.377 . S
C2364 C2366 1.384 . S
C2365 C2364 1.377 . S
C2365 C2371 1.390 . S
C2366 H2357 0.930 . S
C2366 C2364 1.384 . S
C2366 C2367 1.372 . S
C2367 C2366 1.372 . S
C2367 C2368 1.400 . S
C2367 C2372 1.490 . S
C2368 H2358 0.930 . S
C2368 C2367 1.400 . S
C2368 C2371 1.386 . S
H2369 C2385 0.930 . S
H2370 C2386 0.931 . S
C2371 H2359 0.929 . S
C2371 C2365 1.390 . S
C2371 C2368 1.386 . S
C2372 C2367 1.490 . S
C2372 C2374 1.395 . S
C2372 C2375 1.403 . S
H2373 C2379 0.930 . S
C2374 H2360 0.930 . S
C2374 C2372 1.395 . S
C2374 C2377 1.403 . S
C2375 C2372 1.403 . S
C2375 C2376 1.524 . S
C2375 C2379 1.400 . S
C2376 H2361 0.960 . S
C2376 H2362 0.960 . S
C2376 H2363 0.960 . S
C2376 C2375 1.524 . S
C2377 C2374 1.403 . S
C2377 C2378 1.392 . S
C2377 C2381 1.495 . S
C2378 C2377 1.392 . S
C2378 C2379 1.385 . S
C2378 C2380 1.478 . S
C2379 H2373 0.930 . S
C2379 C2375 1.400 . S
C2379 C2378 1.385 . S
C2380 C2378 1.478 . S
C2380 C2382 1.381 . S
C2380 C2386 1.383 . S
C2381 C2377 1.495 . S
C2381 H2387 0.959 . S
C2381 H2388 0.961 . S
C2381 H2389 0.960 . S
C2382 C2380 1.381 . S
C2382 C2383 1.394 . S
C2382 H2390 0.930 . S
C2383 C2382 1.394 . S
C2383 C2384 1.383 . S
C2383 H2391 0.929 . S
C2384 C2383 1.383 . S
C2384 C2385 1.377 . S
C2385 H2369 0.930 . S
C2385 C2384 1.377 . S
C2385 C2386 1.379 . S
C2386 H2370 0.931 . S
C2386 C2380 1.383 . S
C2386 C2385 1.379 . S
H2387 C2381 0.959 . S
H2388 C2381 0.961 . S
H2389 C2381 0.960 . S
H2390 C2382 0.930 . S
H2391 C2383 0.929 . S
H2392 C2400 0.929 . S
H2393 C2402 0.930 . S
H2394 C2404 0.930 . S
H2395 C2407 0.929 . S
H2396 C2410 0.930 . S
H2397 C2412 0.960 . S
H2398 C2412 0.960 . S
H2399 C2412 0.960 . S
C2400 H2392 0.929 . S
C2400 C2401 1.377 . S
C2400 C2402 1.384 . S
C2401 C2400 1.377 . S
C2401 C2407 1.390 . S
C2402 H2393 0.930 . S
C2402 C2400 1.384 . S
C2402 C2403 1.372 . S
C2403 C2402 1.372 . S
C2403 C2404 1.400 . S
C2403 C2408 1.490 . S
C2404 H2394 0.930 . S
C2404 C2403 1.400 . S
C2404 C2407 1.386 . S
H2405 C2421 0.930 . S
H2406 C2422 0.931 . S
C2407 H2395 0.929 . S
C2407 C2401 1.390 . S
C2407 C2404 1.386 . S
C2408 C2403 1.490 . S
C2408 C2410 1.395 . S
C2408 C2411 1.403 . S
H2409 C2415 0.930 . S
C2410 H2396 0.930 . S
C2410 C2408 1.395 . S
C2410 C2413 1.403 . S
C2411 C2408 1.403 . S
C2411 C2412 1.524 . S
C2411 C2415 1.400 . S
C2412 H2397 0.960 . S
C2412 H2398 0.960 . S
C2412 H2399 0.960 . S
C2412 C2411 1.524 . S
C2413 C2410 1.403 . S
C2413 C2414 1.392 . S
C2413 C2417 1.495 . S
C2414 C2413 1.392 . S
C2414 C2415 1.385 . S
C2414 C2416 1.478 . S
C2415 H2409 0.930 . S
C2415 C2411 1.400 . S
C2415 C2414 1.385 . S
C2416 C2414 1.478 . S
C2416 C2418 1.381 . S
C2416 C2422 1.383 . S
C2417 C2413 1.495 . S
C2417 H2423 0.959 . S
C2417 H2424 0.961 . S
C2417 H2425 0.960 . S
C2418 C2416 1.381 . S
C2418 C2419 1.394 . S
C2418 H2426 0.930 . S
C2419 C2418 1.394 . S
C2419 C2420 1.383 . S
C2419 H2427 0.929 . S
C2420 C2419 1.383 . S
C2420 C2421 1.377 . S
C2421 H2405 0.930 . S
C2421 C2420 1.377 . S
C2421 C2422 1.379 . S
C2422 H2406 0.931 . S
C2422 C2416 1.383 . S
C2422 C2421 1.379 . S
H2423 C2417 0.959 . S
H2424 C2417 0.961 . S
H2425 C2417 0.960 . S
H2426 C2418 0.930 . S
H2427 C2419 0.929 . S
H2428 C2436 0.929 . S
H2429 C2438 0.930 . S
H2430 C2440 0.930 . S
H2431 C2443 0.929 . S
H2432 C2446 0.930 . S
H2433 C2448 0.960 . S
H2434 C2448 0.960 . S
H2435 C2448 0.960 . S
C2436 H2428 0.929 . S
C2436 C2437 1.377 . S
C2436 C2438 1.384 . S
C2437 C2436 1.377 . S
C2437 C2443 1.390 . S
C2438 H2429 0.930 . S
C2438 C2436 1.384 . S
C2438 C2439 1.372 . S
C2439 C2438 1.372 . S
C2439 C2440 1.400 . S
C2439 C2444 1.490 . S
C2440 H2430 0.930 . S
C2440 C2439 1.400 . S
C2440 C2443 1.386 . S
H2441 C2457 0.930 . S
H2442 C2458 0.931 . S
C2443 H2431 0.929 . S
C2443 C2437 1.390 . S
C2443 C2440 1.386 . S
C2444 C2439 1.490 . S
C2444 C2446 1.395 . S
C2444 C2447 1.403 . S
H2445 C2451 0.930 . S
C2446 H2432 0.930 . S
C2446 C2444 1.395 . S
C2446 C2449 1.403 . S
C2447 C2444 1.403 . S
C2447 C2448 1.524 . S
C2447 C2451 1.400 . S
C2448 H2433 0.960 . S
C2448 H2434 0.960 . S
C2448 H2435 0.960 . S
C2448 C2447 1.524 . S
C2449 C2446 1.403 . S
C2449 C2450 1.392 . S
C2449 C2453 1.495 . S
C2450 C2449 1.392 . S
C2450 C2451 1.385 . S
C2450 C2452 1.478 . S
C2451 H2445 0.930 . S
C2451 C2447 1.400 . S
C2451 C2450 1.385 . S
C2452 C2450 1.478 . S
C2452 C2454 1.381 . S
C2452 C2458 1.383 . S
C2453 C2449 1.495 . S
C2453 H2459 0.959 . S
C2453 H2460 0.961 . S
C2453 H2461 0.960 . S
C2454 C2452 1.381 . S
C2454 C2455 1.394 . S
C2454 H2462 0.930 . S
C2455 C2454 1.394 . S
C2455 C2456 1.383 . S
C2455 H2463 0.929 . S
C2456 C2455 1.383 . S
C2456 C2457 1.377 . S
C2457 H2441 0.930 . S
C2457 C2456 1.377 . S
C2457 C2458 1.379 . S
C2458 H2442 0.931 . S
C2458 C2452 1.383 . S
C2458 C2457 1.379 . S
H2459 C2453 0.959 . S
H2460 C2453 0.961 . S
H2461 C2453 0.960 . S
H2462 C2454 0.930 . S
H2463 C2455 0.929 . S
H2464 C2472 0.929 . S
H2465 C2474 0.930 . S
H2466 C2476 0.930 . S
H2467 C2479 0.929 . S
H2468 C2482 0.930 . S
H2469 C2484 0.960 . S
H2470 C2484 0.960 . S
H2471 C2484 0.960 . S
C2472 H2464 0.929 . S
C2472 C2473 1.377 . S
C2472 C2474 1.384 . S
C2473 C2472 1.377 . S
C2473 C2479 1.390 . S
C2474 H2465 0.930 . S
C2474 C2472 1.384 . S
C2474 C2475 1.372 . S
C2475 C2474 1.372 . S
C2475 C2476 1.400 . S
C2475 C2480 1.490 . S
C2476 H2466 0.930 . S
C2476 C2475 1.400 . S
C2476 C2479 1.386 . S
H2477 C2493 0.930 . S
H2478 C2494 0.931 1_554 S
C2479 H2467 0.929 . S
C2479 C2473 1.390 . S
C2479 C2476 1.386 . S
C2480 C2475 1.490 . S
C2480 C2482 1.395 . S
C2480 C2483 1.403 . S
H2481 C2487 0.930 . S
C2482 H2468 0.930 . S
C2482 C2480 1.395 . S
C2482 C2485 1.403 . S
C2483 C2480 1.403 . S
C2483 C2484 1.524 . S
C2483 C2487 1.400 . S
C2484 H2469 0.960 . S
C2484 H2470 0.960 . S
C2484 H2471 0.960 . S
C2484 C2483 1.524 . S
C2485 C2482 1.403 . S
C2485 C2486 1.392 . S
C2485 C2489 1.495 . S
C2486 C2485 1.392 . S
C2486 C2487 1.385 . S
C2486 C2488 1.478 1_554 S
C2487 H2481 0.930 . S
C2487 C2483 1.400 . S
C2487 C2486 1.385 . S
C2488 C2486 1.478 1_556 S
C2488 C2490 1.381 . S
C2488 C2494 1.383 . S
C2489 C2485 1.495 . S
C2489 H2495 0.959 . S
C2489 H2496 0.961 . S
C2489 H2497 0.953 1_554 S
C2490 C2488 1.381 . S
C2490 C2491 1.394 . S
C2490 H2498 0.930 . S
C2491 C2490 1.394 . S
C2491 C2492 1.383 . S
C2491 H2499 0.929 . S
C2492 C2491 1.383 . S
C2492 C2493 1.377 . S
C2493 H2477 0.930 . S
C2493 C2492 1.377 . S
C2493 C2494 1.379 . S
C2494 H2478 0.931 1_556 S
C2494 C2488 1.383 . S
C2494 C2493 1.379 . S
H2495 C2489 0.959 . S
H2496 C2489 0.961 . S
H2497 C2489 0.953 1_556 S
H2498 C2490 0.930 . S
H2499 C2491 0.929 . S
H2500 C2508 0.929 . S
H2501 C2510 0.930 . S
H2502 C2512 0.930 . S
H2503 C2515 0.929 . S
H2504 C2518 0.930 . S
H2505 C2520 0.960 . S
H2506 C2520 0.960 . S
H2507 C2520 0.960 . S
C2508 H2500 0.929 . S
C2508 C2509 1.377 . S
C2508 C2510 1.384 . S
C2509 C2508 1.377 . S
C2509 C2515 1.390 . S
C2510 H2501 0.930 . S
C2510 C2508 1.384 . S
C2510 C2511 1.372 . S
C2511 C2510 1.372 . S
C2511 C2512 1.400 . S
C2511 C2516 1.490 . S
C2512 H2502 0.930 . S
C2512 C2511 1.400 . S
C2512 C2515 1.386 . S
H2513 C2529 0.930 . S
H2514 C2530 0.931 . S
C2515 H2503 0.929 . S
C2515 C2509 1.390 . S
C2515 C2512 1.386 . S
C2516 C2511 1.490 . S
C2516 C2518 1.395 . S
C2516 C2519 1.403 . S
H2517 C2523 0.930 . S
C2518 H2504 0.930 . S
C2518 C2516 1.395 . S
C2518 C2521 1.403 . S
C2519 C2516 1.403 . S
C2519 C2520 1.524 . S
C2519 C2523 1.400 . S
C2520 H2505 0.960 . S
C2520 H2506 0.960 . S
C2520 H2507 0.960 . S
C2520 C2519 1.524 . S
C2521 C2518 1.403 . S
C2521 C2522 1.392 . S
C2521 C2525 1.495 . S
C2522 C2521 1.392 . S
C2522 C2523 1.385 . S
C2522 C2524 1.478 . S
C2523 H2517 0.930 . S
C2523 C2519 1.400 . S
C2523 C2522 1.385 . S
C2524 C2522 1.478 . S
C2524 C2526 1.381 . S
C2524 C2530 1.383 . S
C2525 C2521 1.495 . S
C2525 H2531 0.959 . S
C2525 H2532 0.961 . S
C2525 H2533 0.960 . S
C2526 C2524 1.381 . S
C2526 C2527 1.394 . S
C2526 H2534 0.930 . S
C2527 C2526 1.394 . S
C2527 C2528 1.383 . S
C2527 H2535 0.929 . S
C2528 C2527 1.383 . S
C2528 C2529 1.377 . S
C2529 H2513 0.930 . S
C2529 C2528 1.377 . S
C2529 C2530 1.379 . S
C2530 H2514 0.931 . S
C2530 C2524 1.383 . S
C2530 C2529 1.379 . S
H2531 C2525 0.959 . S
H2532 C2525 0.961 . S
H2533 C2525 0.960 . S
H2534 C2526 0.930 . S
H2535 C2527 0.929 . S
H2536 C2544 0.929 . S
H2537 C2546 0.930 . S
H2538 C2548 0.930 . S
H2539 C2551 0.929 . S
H2540 C2554 0.930 . S
H2541 C2556 0.960 . S
H2542 C2556 0.960 . S
H2543 C2556 0.960 . S
C2544 H2536 0.929 . S
C2544 C2545 1.377 . S
C2544 C2546 1.384 . S
C2545 C2544 1.377 . S
C2545 C2551 1.390 . S
C2546 H2537 0.930 . S
C2546 C2544 1.384 . S
C2546 C2547 1.372 . S
C2547 C2546 1.372 . S
C2547 C2548 1.400 . S
C2547 C2552 1.490 . S
C2548 H2538 0.930 . S
C2548 C2547 1.400 . S
C2548 C2551 1.386 . S
H2549 C2565 0.930 . S
H2550 C2566 0.931 . S
C2551 H2539 0.929 . S
C2551 C2545 1.390 . S
C2551 C2548 1.386 . S
C2552 C2547 1.490 . S
C2552 C2554 1.395 . S
C2552 C2555 1.403 . S
H2553 C2559 0.930 . S
C2554 H2540 0.930 . S
C2554 C2552 1.395 . S
C2554 C2557 1.403 . S
C2555 C2552 1.403 . S
C2555 C2556 1.524 . S
C2555 C2559 1.400 . S
C2556 H2541 0.960 . S
C2556 H2542 0.960 . S
C2556 H2543 0.960 . S
C2556 C2555 1.524 . S
C2557 C2554 1.403 . S
C2557 C2558 1.392 . S
C2557 C2561 1.495 . S
C2558 C2557 1.392 . S
C2558 C2559 1.385 . S
C2558 C2560 1.478 . S
C2559 H2553 0.930 . S
C2559 C2555 1.400 . S
C2559 C2558 1.385 . S
C2560 C2558 1.478 . S
C2560 C2562 1.381 . S
C2560 C2566 1.383 . S
C2561 C2557 1.495 . S
C2561 H2567 0.959 . S
C2561 H2568 0.961 . S
C2561 H2569 0.960 . S
C2562 C2560 1.381 . S
C2562 C2563 1.394 . S
C2562 H2570 0.930 . S
C2563 C2562 1.394 . S
C2563 C2564 1.383 . S
C2563 H2571 0.929 . S
C2564 C2563 1.383 . S
C2564 C2565 1.377 . S
C2565 H2549 0.930 . S
C2565 C2564 1.377 . S
C2565 C2566 1.379 . S
C2566 H2550 0.931 . S
C2566 C2560 1.383 . S
C2566 C2565 1.379 . S
H2567 C2561 0.959 . S
H2568 C2561 0.961 . S
H2569 C2561 0.960 . S
H2570 C2562 0.930 . S
H2571 C2563 0.929 . S
H2572 C2580 0.929 . S
H2573 C2582 0.930 . S
H2574 C2584 0.930 . S
H2575 C2587 0.929 . S
H2576 C2590 0.930 . S
H2577 C2592 0.960 . S
H2578 C2592 0.960 . S
H2579 C2592 0.960 . S
C2580 H2572 0.929 . S
C2580 C2581 1.377 . S
C2580 C2582 1.384 . S
C2581 C2580 1.377 . S
C2581 C2587 1.390 . S
C2582 H2573 0.930 . S
C2582 C2580 1.384 . S
C2582 C2583 1.372 . S
C2583 C2582 1.372 . S
C2583 C2584 1.400 . S
C2583 C2588 1.490 . S
C2584 H2574 0.930 . S
C2584 C2583 1.400 . S
C2584 C2587 1.386 . S
H2585 C2601 0.930 . S
H2586 C2602 0.931 . S
C2587 H2575 0.929 . S
C2587 C2581 1.390 . S
C2587 C2584 1.386 . S
C2588 C2583 1.490 . S
C2588 C2590 1.395 . S
C2588 C2591 1.403 . S
H2589 C2595 0.930 . S
C2590 H2576 0.930 . S
C2590 C2588 1.395 . S
C2590 C2593 1.403 . S
C2591 C2588 1.403 . S
C2591 C2592 1.524 . S
C2591 C2595 1.400 . S
C2592 H2577 0.960 . S
C2592 H2578 0.960 . S
C2592 H2579 0.960 . S
C2592 C2591 1.524 . S
C2593 C2590 1.403 . S
C2593 C2594 1.392 . S
C2593 C2597 1.495 . S
C2594 C2593 1.392 . S
C2594 C2595 1.385 . S
C2594 C2596 1.478 . S
C2595 H2589 0.930 . S
C2595 C2591 1.400 . S
C2595 C2594 1.385 . S
C2596 C2594 1.478 . S
C2596 C2598 1.381 . S
C2596 C2602 1.383 . S
C2597 C2593 1.495 . S
C2597 H2603 0.959 . S
C2597 H2604 0.961 . S
C2597 H2605 0.960 . S
C2598 C2596 1.381 . S
C2598 C2599 1.394 . S
C2598 H2606 0.930 . S
C2599 C2598 1.394 . S
C2599 C2600 1.383 . S
C2599 H2607 0.929 . S
C2600 C2599 1.383 . S
C2600 C2601 1.377 . S
C2601 H2585 0.930 . S
C2601 C2600 1.377 . S
C2601 C2602 1.379 . S
C2602 H2586 0.931 . S
C2602 C2596 1.383 . S
C2602 C2601 1.379 . S
H2603 C2597 0.959 . S
H2604 C2597 0.961 . S
H2605 C2597 0.960 . S
H2606 C2598 0.930 . S
H2607 C2599 0.929 . S
H2608 C2616 0.929 . S
H2609 C2618 0.902 1_556 S
H2610 C2620 0.930 . S
H2611 C2623 0.929 . S
H2612 C2626 0.956 . S
H2613 C2628 0.960 . S
H2614 C2628 0.960 . S
H2615 C2628 0.960 1_554 S
C2616 H2608 0.929 . S
C2616 C2617 1.377 . S
C2616 C2618 1.384 . S
C2617 C2616 1.377 . S
C2617 C2623 1.390 . S
C2618 H2609 0.902 1_554 S
C2618 C2616 1.384 . S
C2618 C2619 1.372 . S
C2619 C2618 1.372 . S
C2619 C2620 1.400 . S
C2619 C2624 1.490 1_554 S
C2620 H2610 0.930 . S
C2620 C2619 1.400 . S
C2620 C2623 1.386 . S
H2621 C2637 0.930 . S
H2622 C2638 0.931 . S
C2623 H2611 0.929 . S
C2623 C2617 1.390 . S
C2623 C2620 1.386 . S
C2624 C2619 1.490 1_556 S
C2624 C2626 1.395 . S
C2624 C2627 1.403 . S
H2625 C2631 0.930 . S
C2626 H2612 0.956 . S
C2626 C2624 1.395 . S
C2626 C2629 1.403 . S
C2627 C2624 1.403 . S
C2627 C2628 1.524 . S
C2627 C2631 1.400 . S
C2628 H2613 0.960 . S
C2628 H2614 0.960 . S
C2628 H2615 0.960 1_556 S
C2628 C2627 1.524 . S
C2629 C2626 1.403 . S
C2629 C2630 1.392 . S
C2629 C2633 1.495 . S
C2630 C2629 1.392 . S
C2630 C2631 1.385 . S
C2630 C2632 1.478 . S
C2631 H2625 0.930 . S
C2631 C2627 1.400 . S
C2631 C2630 1.385 . S
C2632 C2630 1.478 . S
C2632 C2634 1.381 . S
C2632 C2638 1.383 . S
C2633 C2629 1.495 . S
C2633 H2639 0.959 . S
C2633 H2640 0.961 . S
C2633 H2641 0.960 . S
C2634 C2632 1.381 . S
C2634 C2635 1.394 . S
C2634 H2642 0.930 . S
C2635 C2634 1.394 . S
C2635 C2636 1.383 . S
C2635 H2643 0.929 . S
C2636 C2635 1.383 . S
C2636 C2637 1.377 . S
C2637 H2621 0.930 . S
C2637 C2636 1.377 . S
C2637 C2638 1.379 . S
C2638 H2622 0.931 . S
C2638 C2632 1.383 . S
C2638 C2637 1.379 . S
H2639 C2633 0.959 . S
H2640 C2633 0.961 . S
H2641 C2633 0.960 . S
H2642 C2634 0.930 . S
H2643 C2635 0.929 . S
H2644 C2652 0.929 . S
H2645 C2654 0.930 . S
H2646 C2656 0.930 . S
H2647 C2659 0.929 . S
H2648 C2662 0.930 . S
H2649 C2664 0.960 . S
H2650 C2664 0.960 . S
H2651 C2664 0.960 . S
C2652 H2644 0.929 . S
C2652 C2653 1.377 . S
C2652 C2654 1.384 . S
C2653 C2652 1.377 . S
C2653 C2659 1.390 . S
C2654 H2645 0.930 . S
C2654 C2652 1.384 . S
C2654 C2655 1.372 . S
C2655 C2654 1.372 . S
C2655 C2656 1.400 . S
C2655 C2660 1.490 . S
C2656 H2646 0.930 . S
C2656 C2655 1.400 . S
C2656 C2659 1.386 . S
H2657 C2673 0.930 . S
H2658 C2674 0.931 . S
C2659 H2647 0.929 . S
C2659 C2653 1.390 . S
C2659 C2656 1.386 . S
C2660 C2655 1.490 . S
C2660 C2662 1.395 . S
C2660 C2663 1.403 . S
H2661 C2667 0.930 . S
C2662 H2648 0.930 . S
C2662 C2660 1.395 . S
C2662 C2665 1.403 . S
C2663 C2660 1.403 . S
C2663 C2664 1.524 . S
C2663 C2667 1.400 . S
C2664 H2649 0.960 . S
C2664 H2650 0.960 . S
C2664 H2651 0.960 . S
C2664 C2663 1.524 . S
C2665 C2662 1.403 . S
C2665 C2666 1.392 . S
C2665 C2669 1.495 . S
C2666 C2665 1.392 . S
C2666 C2667 1.385 . S
C2666 C2668 1.478 . S
C2667 H2661 0.930 . S
C2667 C2663 1.400 . S
C2667 C2666 1.385 . S
C2668 C2666 1.478 . S
C2668 C2670 1.381 . S
C2668 C2674 1.383 . S
C2669 C2665 1.495 . S
C2669 H2675 0.959 . S
C2669 H2676 0.961 . S
C2669 H2677 0.960 . S
C2670 C2668 1.381 . S
C2670 C2671 1.394 . S
C2670 H2678 0.930 . S
C2671 C2670 1.394 . S
C2671 C2672 1.383 . S
C2671 H2679 0.929 . S
C2672 C2671 1.383 . S
C2672 C2673 1.377 . S
C2673 H2657 0.930 . S
C2673 C2672 1.377 . S
C2673 C2674 1.379 . S
C2674 H2658 0.931 . S
C2674 C2668 1.383 . S
C2674 C2673 1.379 . S
H2675 C2669 0.959 . S
H2676 C2669 0.961 . S
H2677 C2669 0.960 . S
H2678 C2670 0.930 . S
H2679 C2671 0.929 . S
H2680 C2688 0.929 . S
H2681 C2690 0.930 . S
H2682 C2692 0.930 . S
H2683 C2695 0.929 . S
H2684 C2698 0.930 . S
H2685 C2700 0.960 . S
H2686 C2700 0.960 . S
H2687 C2700 0.960 . S
C2688 H2680 0.929 . S
C2688 C2689 1.377 . S
C2688 C2690 1.384 . S
C2689 C2688 1.377 . S
C2689 C2695 1.390 . S
C2690 H2681 0.930 . S
C2690 C2688 1.384 . S
C2690 C2691 1.372 . S
C2691 C2690 1.372 . S
C2691 C2692 1.400 . S
C2691 C2696 1.490 . S
C2692 H2682 0.930 . S
C2692 C2691 1.400 . S
C2692 C2695 1.386 . S
H2693 C2709 0.930 . S
H2694 C2710 0.931 . S
C2695 H2683 0.929 . S
C2695 C2689 1.390 . S
C2695 C2692 1.386 . S
C2696 C2691 1.490 . S
C2696 C2698 1.395 . S
C2696 C2699 1.403 . S
H2697 C2703 0.930 . S
C2698 H2684 0.930 . S
C2698 C2696 1.395 . S
C2698 C2701 1.403 . S
C2699 C2696 1.403 . S
C2699 C2700 1.524 . S
C2699 C2703 1.400 . S
C2700 H2685 0.960 . S
C2700 H2686 0.960 . S
C2700 H2687 0.960 . S
C2700 C2699 1.524 . S
C2701 C2698 1.403 . S
C2701 C2702 1.392 . S
C2701 C2705 1.495 . S
C2702 C2701 1.392 . S
C2702 C2703 1.385 . S
C2702 C2704 1.478 . S
C2703 H2697 0.930 . S
C2703 C2699 1.400 . S
C2703 C2702 1.385 . S
C2704 C2702 1.478 . S
C2704 C2706 1.381 . S
C2704 C2710 1.383 . S
C2705 C2701 1.495 . S
C2705 H2711 0.959 . S
C2705 H2712 0.961 . S
C2705 H2713 0.960 . S
C2706 C2704 1.381 . S
C2706 C2707 1.394 . S
C2706 H2714 0.930 . S
C2707 C2706 1.394 . S
C2707 C2708 1.383 . S
C2707 H2715 0.929 . S
C2708 C2707 1.383 . S
C2708 C2709 1.377 . S
C2709 H2693 0.930 . S
C2709 C2708 1.377 . S
C2709 C2710 1.379 . S
C2710 H2694 0.931 . S
C2710 C2704 1.383 . S
C2710 C2709 1.379 . S
H2711 C2705 0.959 . S
H2712 C2705 0.961 . S
H2713 C2705 0.960 . S
H2714 C2706 0.930 . S
H2715 C2707 0.929 . S
H2716 C2724 0.929 . S
H2717 C2726 0.930 . S
H2718 C2728 0.930 . S
H2719 C2731 0.929 . S
H2720 C2734 0.930 . S
H2721 C2736 0.960 . S
H2722 C2736 0.960 . S
H2723 C2736 0.960 . S
C2724 H2716 0.929 . S
C2724 C2725 1.377 . S
C2724 C2726 1.384 . S
C2725 C2724 1.377 . S
C2725 C2731 1.390 . S
C2726 H2717 0.930 . S
C2726 C2724 1.384 . S
C2726 C2727 1.372 . S
C2727 C2726 1.372 . S
C2727 C2728 1.400 . S
C2727 C2732 1.490 . S
C2728 H2718 0.930 . S
C2728 C2727 1.400 . S
C2728 C2731 1.386 . S
H2729 C2745 0.930 . S
H2730 C2746 0.931 . S
C2731 H2719 0.929 . S
C2731 C2725 1.390 . S
C2731 C2728 1.386 . S
C2732 C2727 1.490 . S
C2732 C2734 1.395 . S
C2732 C2735 1.403 . S
H2733 C2739 0.930 . S
C2734 H2720 0.930 . S
C2734 C2732 1.395 . S
C2734 C2737 1.403 . S
C2735 C2732 1.403 . S
C2735 C2736 1.524 . S
C2735 C2739 1.400 . S
C2736 H2721 0.960 . S
C2736 H2722 0.960 . S
C2736 H2723 0.960 . S
C2736 C2735 1.524 . S
C2737 C2734 1.403 . S
C2737 C2738 1.392 . S
C2737 C2741 1.495 . S
C2738 C2737 1.392 . S
C2738 C2739 1.385 . S
C2738 C2740 1.478 . S
C2739 H2733 0.930 . S
C2739 C2735 1.400 . S
C2739 C2738 1.385 . S
C2740 C2738 1.478 . S
C2740 C2742 1.381 . S
C2740 C2746 1.383 . S
C2741 C2737 1.495 . S
C2741 H2747 0.959 . S
C2741 H2748 0.961 . S
C2741 H2749 0.960 . S
C2742 C2740 1.381 . S
C2742 C2743 1.394 . S
C2742 H2750 0.930 . S
C2743 C2742 1.394 . S
C2743 C2744 1.383 . S
C2743 H2751 0.929 . S
C2744 C2743 1.383 . S
C2744 C2745 1.377 . S
C2745 H2729 0.930 . S
C2745 C2744 1.377 . S
C2745 C2746 1.379 . S
C2746 H2730 0.931 . S
C2746 C2740 1.383 . S
C2746 C2745 1.379 . S
H2747 C2741 0.959 . S
H2748 C2741 0.961 . S
H2749 C2741 0.960 . S
H2750 C2742 0.930 . S
H2751 C2743 0.929 . S
C457 C8 0.901 . S
C476 C190 0.873 . S
C493 C358 1.125 . S
C512 C22 1.151 . S
C529 C36 1.113 . S
C548 C218 1.086 . S
C565 C50 1.272 . S
C584 C344 1.252 . S
C601 C64 1.301 . S
C620 C246 1.299 . S
C637 C78 1.242 . S
C656 C316 1.235 . S
C673 C92 1.237 . S
C692 C274 1.208 . S
C709 C442 0.890 . S
C728 C106 0.907 . S
C745 C302 1.294 . S
C764 C120 1.291 . S
C781 C134 1.241 . S
C800 C260 1.252 . S
C817 C330 1.237 . S
C836 C148 1.210 . S
C853 C162 1.274 . S
C872 C232 1.278 . S
C889 C204 1.126 . S
C908 C176 1.149 . S
C925 C288 0.888 . S
C944 C400 0.927 . S
C961 C414 0.899 . S
C980 C372 0.901 . S
C997 C428 1.120 . S
C1016 C386 1.141 . S
C1033 C13 1.576 . S
C1052 C27 1.549 . S
C1069 C39 1.620 . S
C1088 C21 1.630 . S
C1105 C55 1.572 . S
C1124 C41 1.533 . S
C1141 C49 1.583 . S
C1160 C11 1.558 . S
C1177 C105 1.743 . S
C1196 C69 1.558 . S
C1213 C81 1.106 . S
C1232 C67 1.111 . S
C1249 C91 1.455 . S
C1268 C77 1.450 . S
C1285 C97 1.176 . S
C1304 C109 1.291 . S
C1321 C139 1.239 . S
C1340 C7 1.360 . S
C1357 C119 1.582 . S
C1376 C53 1.581 . S
C1393 C151 1.258 . S
C1412 C25 1.235 . S
C1429 C385 1.603 . S
C1448 C111 1.432 . S
C1465 C405 1.464 . S
C1484 C35 1.592 . S
C1501 C165 1.580 . S
C1520 C63 1.585 . S
C1537 C95 1.258 . S
C1556 C179 1.236 . S
C1573 C203 1.409 . S
C1592 C195 1.364 . S
C1609 C217 1.518 . S
C1628 C209 1.381 . S
C1645 C237 1.370 . S
C1664 C223 1.332 . S
C1681 C189 1.522 . S
C1700 C235 1.534 . S
C1717 C245 1.505 . S
C1736 C293 1.424 . S
C1753 C249 1.385 . S
C1772 C263 1.364 . S
C1789 C279 1.508 . S
C1808 C265 1.474 . S
C1825 C273 1.487 . S
C1844 C291 1.475 . S
C1861 C193 1.658 . S
C1880 C315 1.650 . S
C1897 C307 1.444 . S
C1916 C231 1.523 . S
C1933 C333 1.268 . S
C1952 C207 1.253 . S
C1969 C431 1.603 . S
C1988 C287 1.595 . S
C2005 C441 1.606 . S
C2024 C221 1.601 . S
C2041 C251 1.439 . S
C2060 C343 1.533 . S
C2077 C361 1.263 . S
C2096 C277 1.273 . S
C2113 C181 1.558 . S
C2132 C377 1.537 . S
C2149 C389 1.622 . S
C2168 C175 1.606 . S
C2185 C167 1.574 . S
C2204 C391 1.604 . S
C2221 C161 1.580 . S
C2240 C375 1.584 . S
C2257 C125 1.596 . S
C2276 C399 1.737 . S
C2293 C137 1.104 . S
C2312 C123 1.078 . S
C2329 C147 1.453 . S
C2348 C133 1.467 . S
C2365 C153 1.186 . S
C2384 C403 1.303 . S
C2401 C371 1.354 . S
C2420 C83 1.235 . S
C2437 C357 1.416 . S
C2456 C419 1.286 . S
C2473 C363 1.428 . S
C2492 C427 1.495 . S
C2509 C433 1.363 . S
C2528 C349 1.337 . S
C2545 C347 1.519 . S
C2564 C413 1.514 . S
C2581 C447 1.396 . S
C2600 C301 1.514 . S
C2617 C305 1.384 . S
C2636 C319 1.396 . S
C2653 C335 1.506 . S
C2672 C321 1.467 . S
C2689 C329 1.489 . S
C2708 C445 1.486 . S
C2725 C417 1.658 . S
C2744 C259 1.650 . S
