# Generated by pormake.
# Topology unh, (4)-cn, num edge types: 1
# Building blocks:
#     Node 0, Type 0, BuildingBlock: KOZSID_clean_sbu_0, # of connection points: 4
#     Node 1, Type 0, BuildingBlock: KOZSID_clean_sbu_0, # of connection points: 4
#     Node 2, Type 0, BuildingBlock: KOZSID_clean_sbu_0, # of connection points: 4
#     Node 3, Type 0, BuildingBlock: KOZSID_clean_sbu_0, # of connection points: 4
#     Node 4, Type 0, BuildingBlock: KOZSID_clean_sbu_0, # of connection points: 4
#     Node 5, Type 0, BuildingBlock: KOZSID_clean_sbu_0, # of connection points: 4
#     Edge 6, Type (0, 0), BuildingBlock: TEMPAE_clean_linker_10, # of connection points: 2
#     Edge 7, Type (0, 0), BuildingBlock: TEMPAE_clean_linker_10, # of connection points: 2
#     Edge 8, Type (0, 0), BuildingBlock: TEMPAE_clean_linker_10, # of connection points: 2
#     Edge 9, Type (0, 0), BuildingBlock: TEMPAE_clean_linker_10, # of connection points: 2
#     Edge 10, Type (0, 0), BuildingBlock: TEMPAE_clean_linker_10, # of connection points: 2
#     Edge 11, Type (0, 0), BuildingBlock: TEMPAE_clean_linker_10, # of connection points: 2
#     Edge 12, Type (0, 0), BuildingBlock: TEMPAE_clean_linker_10, # of connection points: 2
#     Edge 13, Type (0, 0), BuildingBlock: TEMPAE_clean_linker_10, # of connection points: 2
#     Edge 14, Type (0, 0), BuildingBlock: TEMPAE_clean_linker_10, # of connection points: 2
#     Edge 15, Type (0, 0), BuildingBlock: TEMPAE_clean_linker_10, # of connection points: 2
#     Edge 16, Type (0, 0), BuildingBlock: TEMPAE_clean_linker_10, # of connection points: 2
#     Edge 17, Type (0, 0), BuildingBlock: TEMPAE_clean_linker_10, # of connection points: 2
# Relax obj value: 0.012
# Max RMSD: 0.276
# Mean RMSD: 0.251
data_MOF--net-unh--node1-KOZSID_clean_sbu_0--edge1-TEMPAE_clean_linker_10
_symmetry_space_group_name_H-M    P1
_symmetry_Int_Tables_number       1
_symmetry_cell_setting            triclinic
loop_
_symmetry_equiv_pos_as_xyz
'x, y, z'
_cell_length_a     53.995396
_cell_length_b     59.313152
_cell_length_c     22.991487
_cell_angle_alpha  89.886329
_cell_angle_beta   89.900243
_cell_angle_gamma 120.15766
loop_
_atom_site_label
_atom_site_type_symbol
_atom_site_fract_x
_atom_site_fract_y
_atom_site_fract_z
_atom_type_partial_charge
C0 C 0.22424 0.60809 0.19761 0.0
C1 C 0.23388 0.62598 0.24263 0.0
C2 C 0.21843 0.63846 0.23988 0.0
C3 C 0.20034 0.62752 0.19345 0.0
N4 N 0.20318 0.60881 0.1665 0.0
Co5 Co 0.18179 0.58886 0.09549 0.0
N6 N 0.16023 0.60826 0.08956 0.0
C7 C 0.16219 0.62671 0.12639 0.0
C8 C 0.14424 0.63605 0.11283 0.0
C9 C 0.1298 0.62262 0.06432 0.0
C10 C 0.13983 0.60583 0.05112 0.0
N11 N 0.16109 0.56931 0.02364 0.0
C12 C 0.14195 0.57151 0.98921 0.0
C13 C 0.13314 0.5541 0.94306 0.0
C14 C 0.14708 0.54042 0.94859 0.0
C15 C 0.16349 0.55017 0.99751 0.0
N16 N 0.20253 0.56878 0.10223 0.0
C17 C 0.199 0.54898 0.06797 0.0
C18 C 0.21524 0.53817 0.08381 0.0
C19 C 0.23021 0.55196 0.13127 0.0
C20 C 0.22214 0.57044 0.14161 0.0
N21 N 0.15065 0.56258 0.14578 0.0
C22 C 0.10651 0.53282 0.22667 0.0
C23 C 0.1003 0.53794 0.17066 0.0
C24 C 0.12247 0.55266 0.13124 0.0
C25 C 0.13524 0.54137 0.23966 0.0
C26 C 0.15676 0.55588 0.19872 0.0
N27 N 0.21303 0.61591 0.0464 0.0
C28 C 0.2634 0.64764 0.03534 0.0
C29 C 0.25741 0.66189 0.99486 0.0
C30 C 0.22887 0.65134 0.9771 0.0
C31 C 0.20721 0.62839 1.0029 0.0
C32 C 0.24115 0.62478 0.0597 0.0
H33 H 0.18577 0.62148 0.98842 0.0
H34 H 0.24712 0.61515 0.09089 0.0
H35 H 0.11643 0.55649 0.0898 0.0
H36 H 0.17837 0.56233 0.21141 0.0
C37 C 0.18104 0.63473 0.17311 0.0
C38 C 0.23521 0.59034 0.18681 0.0
C39 C 0.12991 0.58837 1.00076 0.0
C40 C 0.18095 0.5415 0.02036 0.0
H41 H 0.25027 0.62948 0.27422 0.0
H42 H 0.2203 0.65382 0.26813 0.0
H43 H 0.14192 0.65085 0.13554 0.0
H44 H 0.11382 0.62498 0.04105 0.0
H45 H 0.11776 0.55115 0.90953 0.0
H46 H 0.1452 0.52496 0.92068 0.0
H47 H 0.21634 0.52237 0.06283 0.0
H48 H 0.24569 0.54904 0.15494 0.0
H49 H 0.07841 0.53103 0.15741 0.0
H50 H 0.14136 0.53789 0.28209 0.0
H51 H 0.28503 0.65461 0.05045 0.0
H52 H 0.22312 0.66097 0.94419 0.0
C53 C 0.6236 0.19604 0.37225 0.0
C54 C 0.61131 0.20624 0.40917 0.0
C55 C 0.58471 0.1988 0.38755 0.0
C56 C 0.58205 0.18428 0.33915 0.0
N57 N 0.60506 0.18154 0.32962 0.0
Co58 Co 0.60979 0.1623 0.26363 0.0
N59 N 0.56846 0.14542 0.24258 0.0
C60 C 0.54994 0.15294 0.26016 0.0
C61 C 0.52277 0.13737 0.23889 0.0
C62 C 0.52428 0.11889 0.20573 0.0
C63 C 0.55239 0.12429 0.20871 0.0
N64 N 0.61443 0.14327 0.19724 0.0
C65 C 0.59444 0.12245 0.16721 0.0
C66 C 0.60696 0.1152 0.1238 0.0
C67 C 0.63584 0.1321 0.12696 0.0
C68 C 0.63928 0.14862 0.17185 0.0
N69 N 0.6512 0.17886 0.28435 0.0
C70 C 0.67186 0.17928 0.25051 0.0
C71 C 0.69858 0.19252 0.27456 0.0
C72 C 0.69483 0.20162 0.32634 0.0
C73 C 0.66579 0.19342 0.33116 0.0
N74 N 0.60094 0.13288 0.31591 0.0
C75 C 0.58725 0.09104 0.39237 0.0
C76 C 0.61103 0.1005 0.35499 0.0
C77 C 0.61739 0.1213 0.31684 0.0
C78 C 0.5707 0.10313 0.39061 0.0
C79 C 0.57789 0.12388 0.35254 0.0
N80 N 0.61824 0.19196 0.2121 0.0
C81 C 0.64012 0.23853 0.19992 0.0
C82 C 0.6235 0.23523 0.15072 0.0
C83 C 0.60532 0.20976 0.13076 0.0
C84 C 0.60335 0.18842 0.16153 0.0
C85 C 0.63714 0.21683 0.22975 0.0
H86 H 0.589 0.16906 0.14553 0.0
H87 H 0.64942 0.22046 0.26856 0.0
H88 H 0.63555 0.12795 0.28812 0.0
H89 H 0.56463 0.13263 0.35303 0.0
C90 C 0.55759 0.17139 0.30438 0.0
C91 C 0.65424 0.20423 0.37397 0.0
C92 C 0.56351 0.10987 0.17678 0.0
C93 C 0.66524 0.16579 0.19801 0.0
H94 H 0.62115 0.21879 0.4463 0.0
H95 H 0.5692 0.20349 0.40497 0.0
H96 H 0.50382 0.13856 0.24844 0.0
H97 H 0.50675 0.10322 0.18225 0.0
H98 H 0.59638 0.09929 0.09327 0.0
H99 H 0.6524 0.13158 0.10142 0.0
H100 H 0.7185 0.19546 0.25637 0.0
H101 H 0.71202 0.21401 0.35537 0.0
H102 H 0.62437 0.09166 0.35456 0.0
H103 H 0.55239 0.09684 0.41918 0.0
H104 H 0.65438 0.25778 0.2172 0.0
H105 H 0.5924 0.20633 0.09223 0.0
C106 C 0.43893 0.60586 0.31676 0.0
C107 C 0.4477 0.62664 0.27843 0.0
C108 C 0.47527 0.64458 0.29283 0.0
C109 C 0.48183 0.63378 0.3388 0.0
N110 N 0.46037 0.6098 0.35356 0.0
Co111 Co 0.46051 0.58873 0.4211 0.0
N112 N 0.50269 0.61146 0.43217 0.0
C113 C 0.51941 0.63521 0.40863 0.0
C114 C 0.54776 0.64595 0.42329 0.0
C115 C 0.549 0.62783 0.45842 0.0
C116 C 0.52122 0.60705 0.46328 0.0
N117 N 0.46055 0.56833 0.48982 0.0
C118 C 0.48266 0.56815 0.51702 0.0
C119 C 0.47317 0.55123 0.56435 0.0
C120 C 0.44406 0.54031 0.56647 0.0
C121 C 0.43745 0.55118 0.52067 0.0
N122 N 0.41849 0.56519 0.40922 0.0
C123 C 0.40022 0.54696 0.44698 0.0
C124 C 0.3725 0.53369 0.4277 0.0
C125 C 0.37305 0.54458 0.37496 0.0
C126 C 0.40123 0.56408 0.36505 0.0
N127 N 0.46816 0.56659 0.36921 0.0
C128 C 0.48269 0.53635 0.29806 0.0
C129 C 0.46152 0.52465 0.3413 0.0
C130 C 0.45462 0.54011 0.37641 0.0
C131 C 0.49574 0.56339 0.29044 0.0
C132 C 0.48824 0.57802 0.32616 0.0
N133 N 0.45338 0.61157 0.47246 0.0
C134 C 0.42847 0.63523 0.4888 0.0
C135 C 0.45055 0.65333 0.52458 0.0
C136 C 0.47251 0.64802 0.53863 0.0
C137 C 0.47295 0.62664 0.51373 0.0
C138 C 0.43062 0.61513 0.46245 0.0
H139 H 0.49008 0.62327 0.52589 0.0
H140 H 0.41415 0.60329 0.43226 0.0
H141 H 0.43865 0.53065 0.4099 0.0
H142 H 0.49916 0.59873 0.31922 0.0
C143 C 0.50839 0.64483 0.36666 0.0
C144 C 0.40914 0.5845 0.32084 0.0
C145 C 0.51282 0.58421 0.50048 0.0
C146 C 0.40999 0.54213 0.49897 0.0
H147 H 0.43507 0.62893 0.2449 0.0
H148 H 0.48884 0.66333 0.2724 0.0
H149 H 0.56557 0.66432 0.40855 0.0
H150 H 0.5681 0.62971 0.47829 0.0
H151 H 0.48589 0.547 0.59394 0.0
H152 H 0.42938 0.52528 0.59605 0.0
H153 H 0.35399 0.51825 0.44978 0.0
H154 H 0.35446 0.53973 0.34861 0.0
H155 H 0.45085 0.50383 0.34895 0.0
H156 H 0.51176 0.57332 0.25692 0.0
H157 H 0.40976 0.63672 0.47915 0.0
H158 H 0.49006 0.66065 0.56672 0.0
C159 C 0.84773 0.43365 0.70844 0.0
C160 C 0.83544 0.41269 0.74682 0.0
C161 C 0.8449 0.3961 0.73075 0.0
C162 C 0.86252 0.40784 0.68384 0.0
N163 N 0.86532 0.43113 0.67002 0.0
Co164 Co 0.88723 0.45325 0.60226 0.0
N165 N 0.90753 0.4333 0.58984 0.0
C166 C 0.89997 0.40976 0.61241 0.0
C167 C 0.9182 0.40099 0.59659 0.0
C168 C 0.93849 0.42019 0.56165 0.0
C169 C 0.9314 0.43961 0.55805 0.0
N170 N 0.90847 0.47478 0.53356 0.0
C171 C 0.93186 0.47719 0.50593 0.0
C172 C 0.93948 0.49415 0.45883 0.0
C173 C 0.92023 0.5027 0.45719 0.0
C174 C 0.902 0.49051 0.50303 0.0
N175 N 0.86768 0.47383 0.61491 0.0
C176 C 0.86701 0.49084 0.57686 0.0
C177 C 0.85171 0.50202 0.59639 0.0
C178 C 0.84151 0.49104 0.64969 0.0
C179 C 0.85115 0.47359 0.65979 0.0
N180 N 0.91841 0.47694 0.65398 0.0
C181 C 0.9649 0.50938 0.72593 0.0
C182 C 0.9549 0.52004 0.68377 0.0
C183 C 0.93167 0.50347 0.64811 0.0
C184 C 0.95056 0.48223 0.73206 0.0
C185 C 0.92759 0.46651 0.696 0.0
N186 N 0.85584 0.42876 0.55147 0.0
C187 C 0.80516 0.39934 0.54026 0.0
C188 C 0.81012 0.38369 0.50177 0.0
C189 C 0.83858 0.39306 0.48368 0.0
C190 C 0.86093 0.41596 0.50779 0.0
C191 C 0.8281 0.42133 0.56511 0.0
H192 H 0.88249 0.42229 0.49359 0.0
H193 H 0.82306 0.43128 0.59772 0.0
H194 H 0.9247 0.5121 0.61538 0.0
H195 H 0.91754 0.44578 0.70189 0.0
C196 C 0.87846 0.39861 0.65473 0.0
C197 C 0.83941 0.45372 0.70603 0.0
C198 C 0.94656 0.46293 0.52125 0.0
C199 C 0.88233 0.497 0.52481 0.0
H200 H 0.82044 0.40937 0.78162 0.0
H201 H 0.83958 0.3777 0.75091 0.0
H202 H 0.91746 0.38321 0.61043 0.0
H203 H 0.95635 0.4199 0.54101 0.0
H204 H 0.95716 0.49985 0.42891 0.0
H205 H 0.92035 0.51702 0.42773 0.0
H206 H 0.84815 0.51627 0.57429 0.0
H207 H 0.82732 0.49457 0.67642 0.0
H208 H 0.96533 0.54094 0.67743 0.0
H209 H 0.95702 0.47304 0.76473 0.0
H210 H 0.7837 0.39425 0.55336 0.0
H211 H 0.84405 0.3823 0.45343 0.0
C212 C 0.44288 0.84942 0.86287 0.0
C213 C 0.45367 0.83634 0.89465 0.0
C214 C 0.48139 0.84605 0.87706 0.0
C215 C 0.48599 0.86441 0.83562 0.0
N216 N 0.46315 0.86747 0.82672 0.0
Co217 Co 0.46008 0.88961 0.76466 0.0
N218 N 0.50207 0.90746 0.7471 0.0
C219 C 0.52057 0.90012 0.76596 0.0
C220 C 0.54819 0.91637 0.74754 0.0
C221 C 0.5471 0.93517 0.71475 0.0
C222 C 0.51876 0.92922 0.71494 0.0
N223 N 0.45673 0.91078 0.70102 0.0
C224 C 0.47729 0.93155 0.67131 0.0
C225 C 0.46542 0.94006 0.62913 0.0
C226 C 0.43641 0.9242 0.63287 0.0
C227 C 0.4322 0.90693 0.67674 0.0
N228 N 0.41836 0.87302 0.78404 0.0
C229 C 0.39848 0.87534 0.75342 0.0
C230 C 0.37163 0.86223 0.77759 0.0
C231 C 0.37444 0.85025 0.82586 0.0
C232 C 0.40292 0.85655 0.82799 0.0
N233 N 0.46811 0.91728 0.82143 0.0
C234 C 0.48239 0.95835 0.90001 0.0
C235 C 0.45987 0.95079 0.86034 0.0
C236 C 0.4532 0.93034 0.82128 0.0
C237 C 0.4971 0.94453 0.90018 0.0
C238 C 0.4896 0.92414 0.86105 0.0
N239 N 0.45259 0.86156 0.70823 0.0
C240 C 0.42694 0.81552 0.6865 0.0
C241 C 0.4499 0.81771 0.65332 0.0
C242 C 0.47252 0.84318 0.64202 0.0
C243 C 0.47282 0.86471 0.66791 0.0
C244 C 0.42896 0.83729 0.71414 0.0
H245 H 0.49035 0.88373 0.65698 0.0
H246 H 0.41148 0.83375 0.74171 0.0
H247 H 0.43621 0.92539 0.79062 0.0
H248 H 0.5016 0.91421 0.86268 0.0
C249 C 0.5117 0.87964 0.80562 0.0
C250 C 0.41255 0.84197 0.86382 0.0
C251 C 0.50815 0.94349 0.68079 0.0
C252 C 0.40589 0.89028 0.7028 0.0
H253 H 0.44242 0.82076 0.92586 0.0
H254 H 0.49627 0.84014 0.89208 0.0
H255 H 0.56699 0.91508 0.7578 0.0
H256 H 0.56502 0.95124 0.6927 0.0
H257 H 0.47652 0.95625 0.59921 0.0
H258 H 0.42029 0.92587 0.60841 0.0
H259 H 0.3522 0.86101 0.76132 0.0
H260 H 0.35714 0.83694 0.85411 0.0
H261 H 0.44796 0.96099 0.85849 0.0
H262 H 0.51435 0.94937 0.9306 0.0
H263 H 0.40756 0.79702 0.69323 0.0
H264 H 0.49067 0.84685 0.61537 0.0
C265 C 0.63385 0.44175 0.82155 0.0
C266 C 0.6238 0.42701 0.77134 0.0
C267 C 0.59618 0.42193 0.76376 0.0
C268 C 0.59097 0.43382 0.80966 0.0
N269 N 0.61358 0.44601 0.84534 0.0
Co270 Co 0.61529 0.46486 0.91781 0.0
N271 N 0.57287 0.44726 0.92356 0.0
C272 C 0.55448 0.4348 0.8797 0.0
C273 C 0.52642 0.42553 0.89515 0.0
C274 C 0.52723 0.433 0.95187 0.0
C275 C 0.55587 0.44657 0.96795 0.0
N276 N 0.6175 0.48379 0.99055 0.0
C277 C 0.59691 0.47955 0.03005 0.0
C278 C 0.60789 0.49834 0.07359 0.0
C279 C 0.63603 0.51504 0.06019 0.0
C280 C 0.64078 0.50565 1.00954 0.0
N281 N 0.65756 0.48275 0.91144 0.0
C282 C 0.67641 0.50517 0.93745 0.0
C283 C 0.70438 0.51254 0.92521 0.0
C284 C 0.70297 0.49349 0.88933 0.0
C285 C 0.67408 0.47555 0.88181 0.0
N286 N 0.61503 0.49259 0.87122 0.0
C287 C 0.60411 0.52278 0.79222 0.0
C288 C 0.59205 0.51733 0.8482 0.0
C289 C 0.59775 0.50229 0.88683 0.0
C290 C 0.62383 0.5147 0.7788 0.0
C291 C 0.62919 0.49989 0.81904 0.0
N292 N 0.61509 0.4366 0.9626 0.0
C293 C 0.63802 0.42092 0.02808 0.0
C294 C 0.61974 0.39522 1.00959 0.0
C295 C 0.59812 0.39062 0.96997 0.0
C296 C 0.59602 0.41142 0.94751 0.0
C297 C 0.63537 0.4414 1.00388 0.0
H298 H 0.57964 0.40706 0.91574 0.0
H299 H 0.65037 0.46115 0.0168 0.0
H300 H 0.58689 0.49744 0.92817 0.0
H301 H 0.64357 0.49308 0.80648 0.0
C302 C 0.56412 0.42977 0.82714 0.0
C303 C 0.66296 0.4525 0.84461 0.0
C304 C 0.56615 0.46079 0.02322 0.0
C305 C 0.66733 0.51531 0.98199 0.0
H306 H 0.63514 0.42051 0.74347 0.0
H307 H 0.58128 0.40988 0.73045 0.0
H308 H 0.50757 0.41437 0.86866 0.0
H309 H 0.50891 0.42944 0.97798 0.0
H310 H 0.59657 0.50044 0.11013 0.0
H311 H 0.65123 0.53193 0.08468 0.0
H312 H 0.72351 0.52894 0.94283 0.0
H313 H 0.72109 0.49278 0.8713 0.0
H314 H 0.57746 0.52388 0.8616 0.0
H315 H 0.63391 0.51849 0.73639 0.0
H316 H 0.65492 0.42527 0.05906 0.0
H317 H 0.58316 0.37102 0.95546 0.0
C318 C 0.10983 0.59526 0.90884 0.0
C319 C 0.10522 0.58479 0.96509 0.0
C320 C 0.08704 0.5869 0.86929 0.0
C321 C 0.05907 0.56748 0.88645 0.0
C322 C 0.05413 0.55827 0.9447 0.0
C323 C 0.07732 0.56702 0.98331 0.0
C324 C 0.09333 0.59736 0.80789 0.0
C325 C 1.02476 0.53762 0.96502 0.0
C326 C 0.9937 0.54849 0.7904 0.0
C327 C 0.99028 0.52592 0.76323 0.0
C328 C 1.01635 0.56267 0.82968 0.0
C329 C 1.03604 0.5541 0.84195 0.0
C330 C 1.0332 0.53186 0.81302 0.0
C331 C 1.01051 0.51816 0.77409 0.0
C332 C 1.01874 0.58635 0.85929 0.0
C333 C 0.05378 0.5221 0.82424 0.0
H334 H 0.13155 0.60878 0.89475 0.0
H335 H 0.07392 0.55874 0.02669 0.0
H336 H 0.09254 0.58225 0.77835 0.0
H337 H 0.07695 0.6021 0.79282 0.0
H338 H 0.11483 0.61509 0.804 0.0
H339 H 1.02373 0.535 1.013 0.0
H340 H 1.00839 0.54265 0.95168 0.0
H341 H 1.0191 0.51873 0.9444 0.0
H342 H 0.97814 0.55458 0.78247 0.0
H343 H 1.00841 0.50108 0.7524 0.0
H344 H 0.04069 0.60327 0.85394 0.0
H345 H 1.01485 0.58253 0.90664 0.0
H346 H 1.00315 0.59166 0.84189 0.0
H347 H 0.07607 0.53778 0.81517 0.0
H348 H 0.04905 0.50491 0.79715 0.0
H349 H 0.05273 0.51659 0.87072 0.0
C350 C 0.47066 0.98338 0.97297 0.0
C351 C 0.49108 0.98074 0.94047 0.0
C352 C 0.47903 1.00376 1.01344 0.0
C353 C 0.5085 1.02214 0.02108 0.0
C354 C 0.52912 1.01985 0.98738 0.0
C355 C 0.52019 0.99919 0.94782 0.0
C356 C 0.4564 1.00536 0.04882 0.0
C357 C 0.56074 0.03917 0.9934 0.0
C358 C 0.53524 0.0894 0.08662 0.0
C359 C 0.54436 0.08645 0.14164 0.0
C360 C 0.52218 0.06828 0.04786 0.0
C361 C 0.51813 0.04363 0.06467 0.0
C362 C 0.52603 0.04034 0.12152 0.0
C363 C 0.5393 0.06188 0.15914 0.0
C364 C 0.51439 0.07279 0.98766 0.0
C365 C 0.52192 1.01443 0.14153 0.0
H366 H 0.44815 0.9691 0.96785 0.0
H367 H 0.53608 0.99751 0.92229 0.0
H368 H 0.45971 1.00336 0.09574 0.0
H369 H 0.45825 0.02471 0.04274 0.0
H370 H 0.43438 0.98998 0.03682 0.0
H371 H 0.57398 0.03511 0.96286 0.0
H372 H 0.56497 0.05924 0.98521 0.0
H373 H 0.56777 0.03865 0.03846 0.0
H374 H 0.5397 0.10859 0.07288 0.0
H375 H 0.54679 0.05979 0.20144 0.0
H376 H 0.49226 0.05747 0.97657 0.0
H377 H 0.52896 0.07159 0.95532 0.0
H378 H 0.51608 0.09218 0.98342 0.0
H379 H 0.4998 0.99856 0.13211 0.0
H380 H 0.52603 1.01429 0.18882 0.0
H381 H 0.5368 1.01005 0.11735 0.0
C382 C 0.52077 0.53096 0.24803 0.0
C383 C 0.49168 0.52092 0.26125 0.0
C384 C 0.52976 0.51787 0.21025 0.0
C385 C 0.50922 0.49395 0.18494 0.0
C386 C 0.47988 0.48321 0.19948 0.0
C387 C 0.47145 0.4968 0.23748 0.0
C388 C 0.56128 0.53003 0.19636 0.0
C389 C 0.45734 0.45772 0.17367 0.0
C390 C 0.53509 0.48003 0.04289 0.0
C391 C 0.54599 0.46424 0.06165 0.0
C392 C 0.5214 0.48849 0.08191 0.0
C393 C 0.51868 0.4811 0.1413 0.0
C394 C 0.52819 0.46386 0.15963 0.0
C395 C 0.54186 0.45572 0.11956 0.0
C396 C 0.51168 0.50683 0.06031 0.0
C397 C 0.52567 0.45541 0.22233 0.0
H398 H 0.53665 0.54928 0.2671 0.0
H399 H 0.44893 0.48892 0.24715 0.0
H400 H 0.56873 0.51611 0.20647 0.0
H401 H 0.56491 0.53454 0.1492 0.0
H402 H 0.57461 0.54829 0.22106 0.0
H403 H 0.43576 0.45104 0.19242 0.0
H404 H 0.45635 0.45996 0.12595 0.0
H405 H 0.46304 0.44239 0.18098 0.0
H406 H 0.53875 0.48698 0.99828 0.0
H407 H 0.55068 0.44382 0.13413 0.0
H408 H 0.52578 0.52656 0.07847 0.0
H409 H 0.48954 0.50029 0.07534 0.0
H410 H 0.51233 0.50834 1.0121 0.0
H411 H 0.54108 0.47216 0.24907 0.0
H412 H 0.53027 0.43926 0.22796 0.0
H413 H 0.50389 0.44903 0.23938 0.0
C414 C 0.99857 0.49105 0.49782 0.0
C415 C 0.97242 0.4684 0.48686 0.0
C416 C 1.02157 0.49984 0.45838 0.0
C417 C 1.01815 0.4858 0.40629 0.0
C418 C 0.99213 0.46219 0.39652 0.0
C419 C 0.96955 0.45379 0.43692 0.0
C420 C 0.04891 0.52499 0.47086 0.0
C421 C 0.98741 0.44668 0.34158 0.0
C422 C 0.06103 0.52545 0.27466 0.0
C423 C 0.08342 0.51988 0.27178 0.0
C424 C 0.03962 0.51426 0.31767 0.0
C425 C 0.04056 0.49717 0.3596 0.0
C426 C 0.06297 0.49135 0.35703 0.0
C427 C 0.08404 0.50268 0.31317 0.0
C428 C 1.01611 0.52102 0.3186 0.0
C429 C 0.06481 0.4733 0.40092 0.0
H430 H 1.00053 0.50255 0.53597 0.0
H431 H 0.94907 0.43658 0.42789 0.0
H432 H 0.06776 0.52249 0.46425 0.0
H433 H 0.05103 0.54031 0.44013 0.0
H434 H 0.04942 0.53191 0.51594 0.0
H435 H 0.96739 0.42742 0.34346 0.0
H436 H 0.98607 0.45776 0.30397 0.0
H437 H 1.00572 0.44354 0.33347 0.0
H438 H 0.0605 0.53907 0.24393 0.0
H439 H 0.10096 0.49794 0.3112 0.0
H440 H 1.01677 0.53081 0.36011 0.0
H441 H 0.99487 0.50297 0.31618 0.0
H442 H 1.01797 0.53406 0.28204 0.0
H443 H 0.06658 0.48119 0.4454 0.0
H444 H 0.08344 0.47059 0.3929 0.0
H445 H 0.04495 0.45396 0.39977 0.0
C446 C 0.60015 0.06769 0.46788 0.0
C447 C 0.57939 0.06881 0.43326 0.0
C448 C 0.59236 0.04786 0.5099 0.0
C449 C 0.56315 0.02856 0.51719 0.0
C450 C 0.54226 0.02918 0.48108 0.0
C451 C 0.55061 0.04925 0.43982 0.0
C452 C 0.61527 0.04796 0.54755 0.0
C453 C 0.51091 1.00888 0.48674 0.0
C454 C 0.53798 0.96299 0.59131 0.0
C455 C 0.52778 0.96654 0.64457 0.0
C456 C 0.55108 0.98347 0.55059 0.0
C457 C 0.55396 1.00805 0.56347 0.0
C458 C 0.54508 1.01203 0.61873 0.0
C459 C 0.53192 0.99116 0.65845 0.0
C460 C 0.56007 0.97825 0.49231 0.0
C461 C 0.54783 0.03787 0.63457 0.0
H462 H 0.6224 0.08282 0.46343 0.0
H463 H 0.53447 0.04971 0.41268 0.0
H464 H 0.61162 0.05108 0.59361 0.0
H465 H 0.61417 0.0288 0.54524 0.0
H466 H 0.63713 0.06345 0.53454 0.0
H467 H 0.49748 1.01157 0.45404 0.0
H468 H 0.50793 0.98907 0.48152 0.0
H469 H 0.50306 1.0098 0.53079 0.0
H470 H 0.53425 0.94377 0.58027 0.0
H471 H 0.52359 0.99372 0.69932 0.0
H472 H 0.58194 0.99407 0.48077 0.0
H473 H 0.54533 0.97783 0.4582 0.0
H474 H 0.55969 0.95935 0.49167 0.0
H475 H 0.56976 0.05407 0.62484 0.0
H476 H 0.54307 0.03876 0.68127 0.0
H477 H 0.53272 0.04106 0.60802 0.0
C478 C 0.61364 0.55257 0.70567 0.0
C479 C 0.5945 0.535 0.7472 0.0
C480 C 0.6042 0.56309 0.66176 0.0
C481 C 0.57494 0.55598 0.6593 0.0
C482 C 0.55561 0.53847 0.70134 0.0
C483 C 0.56556 0.52816 0.74439 0.0
C484 C 0.62546 0.58164 0.6177 0.0
C485 C 0.52422 0.53031 0.70046 0.0
C486 C 0.54738 0.59595 0.58272 0.0
C487 C 0.53434 0.5807 0.53351 0.0
C488 C 0.5623 0.58907 0.62237 0.0
C489 C 0.56408 0.56633 0.61256 0.0
C490 C 0.55234 0.55179 0.56094 0.0
C491 C 0.53743 0.55907 0.52222 0.0
C492 C 0.57432 0.60507 0.67681 0.0
C493 C 0.55381 0.52752 0.5485 0.0
H494 H 0.63607 0.5582 0.70756 0.0
H495 H 0.55037 0.51417 0.77517 0.0
H496 H 0.61892 0.57347 0.57333 0.0
H497 H 0.62569 0.60045 0.61843 0.0
H498 H 0.64752 0.58549 0.62587 0.0
H499 H 0.51212 0.51709 0.73716 0.0
H500 H 0.52172 0.54775 0.70267 0.0
H501 H 0.51443 0.52019 0.65906 0.0
H502 H 0.54442 0.61237 0.59194 0.0
H503 H 0.52688 0.54708 0.48459 0.0
H504 H 0.59648 0.60921 0.68466 0.0
H505 H 0.56113 0.59385 0.71479 0.0
H506 H 0.57446 0.62384 0.67446 0.0
H507 H 0.5759 0.53122 0.55512 0.0
H508 H 0.54702 0.5204 0.50341 0.0
H509 H 0.5396 0.51183 0.5792 0.0
C510 C 0.26152 0.57933 0.26045 0.0
C511 C 0.26232 0.59479 0.21366 0.0
C512 C 0.28648 0.5796 0.27891 0.0
C513 C 0.31276 0.59561 0.2495 0.0
C514 C 0.31378 0.6121 0.20374 0.0
C515 C 0.28849 0.61146 0.18634 0.0
C516 C 0.28447 0.56186 0.32811 0.0
C517 C 0.34128 0.62948 0.17132 0.0
C518 C 0.38131 0.60781 0.32405 0.0
C519 C 0.38604 0.58892 0.29811 0.0
C520 C 0.35788 0.61056 0.30797 0.0
C521 C 0.33875 0.59406 0.26472 0.0
C522 C 0.34399 0.57546 0.23715 0.0
C523 C 0.3676 0.5731 0.25426 0.0
C524 C 0.35316 0.63062 0.33844 0.0
C525 C 0.32423 0.5576 0.19061 0.0
H526 H 0.24111 0.56619 0.28086 0.0
H527 H 0.28894 0.62316 0.14965 0.0
H528 H 0.28896 0.54673 0.31143 0.0
H529 H 0.30081 0.57311 0.36166 0.0
H530 H 0.26298 0.55201 0.34901 0.0
H531 H 0.33896 0.64258 0.13996 0.0
H532 H 0.35867 0.64157 0.20228 0.0
H533 H 0.34802 0.6173 0.14705 0.0
H534 H 0.39562 0.62005 0.35799 0.0
H535 H 0.3713 0.55847 0.23447 0.0
H536 H 0.33262 0.62074 0.36281 0.0
H537 H 0.35154 0.64372 0.30609 0.0
H538 H 0.37066 0.64266 0.36936 0.0
H539 H 0.30251 0.54499 0.20911 0.0
H540 H 0.3319 0.54495 0.17183 0.0
H541 H 0.32218 0.56923 0.15505 0.0
C542 C 0.6954 0.23274 0.44021 0.0
C543 C 0.67461 0.23014 0.40016 0.0
C544 C 0.71734 0.25753 0.4577 0.0
C545 C 0.71762 0.28017 0.43683 0.0
C546 C 0.69554 0.27751 0.39932 0.0
C547 C 0.67467 0.2526 0.38059 0.0
C548 C 0.74092 0.25951 0.49634 0.0
C549 C 0.69424 0.30099 0.37799 0.0
C550 C 0.76219 0.34319 0.52061 0.0
C551 C 0.78607 0.35734 0.48383 0.0
C552 C 0.73958 0.31844 0.50527 0.0
C553 C 0.74127 0.30668 0.45316 0.0
C554 C 0.7654 0.32039 0.41628 0.0
C555 C 0.78713 0.34567 0.43137 0.0
C556 C 0.7138 0.30492 0.54492 0.0
C557 C 0.76837 0.30826 0.36095 0.0
H558 H 0.69526 0.21538 0.45554 0.0
H559 H 0.65864 0.25073 0.34963 0.0
H560 H 0.7618 0.2705 0.47341 0.0
H561 H 0.74241 0.27046 0.53644 0.0
H562 H 0.73755 0.24006 0.5089 0.0
H563 H 0.67424 0.29542 0.3536 0.0
H564 H 0.69564 0.31344 0.41525 0.0
H565 H 0.71275 0.31296 0.34901 0.0
H566 H 0.7611 0.35116 0.56219 0.0
H567 H 0.80491 0.35619 0.4017 0.0
H568 H 0.7121 0.28682 0.56282 0.0
H569 H 0.69392 0.29916 0.51999 0.0
H570 H 0.71485 0.31745 0.58179 0.0
H571 H 0.76606 0.28894 0.37057 0.0
H572 H 0.78934 0.32065 0.33914 0.0
H573 H 0.75109 0.30499 0.3302 0.0
C574 C 0.43346 0.76949 0.66128 0.0
C575 C 0.45046 0.79372 0.63323 0.0
C576 C 0.43337 0.74684 0.64333 0.0
C577 C 0.4522 0.74841 0.59868 0.0
C578 C 0.47026 0.77273 0.57148 0.0
C579 C 0.46858 0.79481 0.58775 0.0
C580 C 0.41282 0.72112 0.67196 0.0
C581 C 0.49158 0.77552 0.52534 0.0
C582 C 0.46703 0.69196 0.5932 0.0
C583 C 0.451 0.67778 0.54451 0.0
C584 C 0.46852 0.71545 0.6099 0.0
C585 C 0.45232 0.72441 0.5795 0.0
C586 C 0.43559 0.71006 0.53142 0.0
C587 C 0.43591 0.6876 0.51345 0.0
C588 C 0.48762 0.73074 0.65998 0.0
C589 C 0.417 0.71824 0.49912 0.0
H590 H 0.42016 0.76787 0.69802 0.0
H591 H 0.48164 0.81281 0.56435 0.0
H592 H 0.40018 0.70635 0.63839 0.0
H593 H 0.42487 0.71375 0.6968 0.0
H594 H 0.39772 0.72277 0.70217 0.0
H595 H 0.50646 0.79623 0.51353 0.0
H596 H 0.50436 0.76675 0.54068 0.0
H597 H 0.48013 0.76492 0.48555 0.0
H598 H 0.47852 0.6849 0.6188 0.0
H599 H 0.42431 0.67802 0.47439 0.0
H600 H 0.47439 0.73022 0.69743 0.0
H601 H 0.5015 0.7515 0.64732 0.0
H602 H 0.50146 0.72291 0.67446 0.0
H603 H 0.40297 0.72097 0.53018 0.0
H604 H 0.40329 0.7037 0.46601 0.0
H605 H 0.43057 0.73717 0.47692 0.0
C606 C 0.69233 0.43099 0.85371 0.0
C607 C 0.6836 0.44543 0.82008 0.0
C608 C 0.71611 0.42876 0.83716 0.0
C609 C 0.73184 0.44183 0.7865 0.0
C610 C 0.7223 0.45563 0.75129 0.0
C611 C 0.69821 0.45718 0.76846 0.0
C612 C 0.7252 0.4135 0.87537 0.0
C613 C 0.73848 0.47001 0.69722 0.0
C614 C 0.81161 0.46554 0.77508 0.0
C615 C 0.81196 0.44833 0.73398 0.0
C616 C 0.78559 0.46308 0.79414 0.0
C617 C 0.75931 0.44269 0.77208 0.0
C618 C 0.7596 0.42441 0.73297 0.0
C619 C 0.78593 0.42758 0.71403 0.0
C620 C 0.78629 0.48311 0.83555 0.0
C621 C 0.73216 0.40218 0.70909 0.0
H622 H 0.68122 0.42231 0.89418 0.0
H623 H 0.69171 0.4688 0.74329 0.0
H624 H 0.72938 0.40018 0.84874 0.0
H625 H 0.74544 0.42712 0.89782 0.0
H626 H 0.70877 0.40184 0.9088 0.0
H627 H 0.72742 0.47862 0.673 0.0
H628 H 0.76017 0.48593 0.70936 0.0
H629 H 0.74132 0.45667 0.6678 0.0
H630 H 0.83178 0.48165 0.79012 0.0
H631 H 0.78622 0.41435 0.6819 0.0
H632 H 0.77235 0.47336 0.87373 0.0
H633 H 0.7778 0.49448 0.81351 0.0
H634 H 0.80829 0.49687 0.85114 0.0
H635 H 0.71683 0.39161 0.74494 0.0
H636 H 0.73588 0.38811 0.68422 0.0
H637 H 0.7219 0.40998 0.67982 0.0
C638 C 0.37449 0.79584 0.84351 0.0
C639 C 0.39073 0.81526 0.8843 0.0
C640 C 0.35325 0.77079 0.86107 0.0
C641 C 0.34809 0.76485 0.92109 0.0
C642 C 0.36472 0.78431 0.9626 0.0
C643 C 0.38579 0.80935 0.94367 0.0
C644 C 0.33605 0.75079 0.81524 0.0
C645 C 0.36008 0.77871 0.02697 0.0
C646 C 0.27488 0.70849 0.96556 0.0
C647 C 0.28051 0.688 0.97373 0.0
C648 C 0.29663 0.73352 0.94865 0.0
C649 C 0.32491 0.73843 0.94008 0.0
C650 C 0.33079 0.71789 0.94803 0.0
C651 C 0.30856 0.69296 0.96442 0.0
C652 C 0.28936 0.75478 0.94014 0.0
C653 C 0.3606 0.72224 0.93923 0.0
H654 H 0.37818 0.80031 0.7976 0.0
H655 H 0.39832 0.82437 0.97518 0.0
H656 H 0.33794 0.73316 0.82122 0.0
H657 H 0.31305 0.74465 0.81982 0.0
H658 H 0.34312 0.75836 0.77041 0.0
H659 H 0.37532 0.79564 0.05361 0.0
H660 H 0.33793 0.77352 0.03896 0.0
H661 H 0.36255 0.76173 0.03808 0.0
H662 H 0.25351 0.70514 0.97358 0.0
H663 H 0.3132 0.6773 0.9697 0.0
H664 H 0.29478 0.76254 0.8951 0.0
H665 H 0.30232 0.77123 0.97 0.0
H666 H 0.26632 0.74781 0.94815 0.0
H667 H 0.36761 0.72833 0.89367 0.0
H668 H 0.36186 0.70448 0.94873 0.0
H669 H 0.37593 0.73824 0.96777 0.0
C670 C 0.62379 0.35586 0.98816 0.0
C671 C 0.62334 0.37311 0.02926 0.0
C672 C 0.62503 0.33371 1.0054 0.0
C673 C 0.6255 0.32844 0.06534 0.0
C674 C 0.62568 0.34612 0.10709 0.0
C675 C 0.62483 0.36837 0.08852 0.0
C676 C 0.62536 0.31573 0.9594 0.0
C677 C 0.62599 0.34114 0.17141 0.0
C678 C 0.59845 0.25806 0.11184 0.0
C679 C 0.62408 0.25832 0.12348 0.0
C680 C 0.59862 0.28069 0.09271 0.0
C681 C 0.62506 0.30411 0.08429 0.0
C682 C 0.65102 0.30425 0.09422 0.0
C683 C 0.65021 0.28143 0.11401 0.0
C684 C 0.57045 0.27971 0.08299 0.0
C685 C 0.67966 0.32861 0.0848 0.0
H686 H 0.62303 0.35966 0.94223 0.0
H687 H 0.62434 0.38159 0.12038 0.0
H688 H 0.644 0.31293 0.96589 0.0
H689 H 0.60578 0.29628 0.96322 0.0
H690 H 0.62641 0.3233 0.91468 0.0
H691 H 0.62676 0.35703 0.19826 0.0
H692 H 0.60652 0.32254 0.18344 0.0
H693 H 0.64477 0.33909 0.18227 0.0
H694 H 0.5782 0.2404 0.11986 0.0
H695 H 0.6701 0.28171 0.12259 0.0
H696 H 0.56935 0.28569 0.03776 0.0
H697 H 0.56879 0.29369 0.11246 0.0
H698 H 0.55177 0.25996 0.09083 0.0
H699 H 0.68112 0.33598 0.03979 0.0
H700 H 0.69787 0.32523 0.09219 0.0
H701 H 0.68187 0.34415 0.11476 0.0
loop_
_geom_bond_atom_site_label_1
_geom_bond_atom_site_label_2
_geom_bond_distance
_geom_bond_site_symmetry_2
_ccdc_geom_bond_type
C0 C1 1.443 . S
C0 N4 1.376 . S
C0 C38 1.389 . S
C1 C0 1.443 . S
C1 C2 1.340 . S
C1 H41 0.951 . S
C2 C1 1.340 . S
C2 C3 1.439 . S
C2 H42 0.950 . S
C3 C2 1.439 . S
C3 N4 1.374 . S
C3 C37 1.395 . S
N4 C0 1.376 . S
N4 C3 1.374 . S
N4 Co5 2.008 . S
Co5 N4 2.008 . S
Co5 N6 1.995 . S
Co5 N11 2.008 . S
Co5 N16 1.995 . S
Co5 N21 2.282 . S
Co5 N27 2.282 . S
N6 Co5 1.995 . S
N6 C7 1.376 . S
N6 C10 1.383 . S
C7 N6 1.376 . S
C7 C8 1.446 . S
C7 C37 1.391 . S
C8 C7 1.446 . S
C8 C9 1.339 . S
C8 H43 0.949 . S
C9 C8 1.339 . S
C9 C10 1.439 . S
C9 H44 0.950 . S
C10 N6 1.383 . S
C10 C9 1.439 . S
C10 C39 1.392 . S
N11 Co5 2.008 . S
N11 C12 1.376 . S
N11 C15 1.374 . S
C12 N11 1.376 . S
C12 C13 1.443 1_554 S
C12 C39 1.389 . S
C13 C12 1.443 1_556 S
C13 C14 1.340 . S
C13 H45 0.951 . S
C14 C13 1.340 . S
C14 C15 1.439 1_556 S
C14 H46 0.950 . S
C15 N11 1.374 . S
C15 C14 1.439 1_554 S
C15 C40 1.395 . S
N16 Co5 1.995 . S
N16 C17 1.376 . S
N16 C20 1.383 . S
C17 N16 1.376 . S
C17 C18 1.446 . S
C17 C40 1.391 . S
C18 C17 1.446 . S
C18 C19 1.339 . S
C18 H47 0.949 . S
C19 C18 1.339 . S
C19 C20 1.439 . S
C19 H48 0.950 . S
C20 N16 1.383 . S
C20 C19 1.439 . S
C20 C38 1.392 . S
N21 Co5 2.282 . S
N21 C24 1.332 . S
N21 C26 1.332 . S
C22 C23 1.386 . S
C22 C25 1.388 . S
C23 C22 1.386 . S
C23 C24 1.382 . S
C23 H49 0.950 . S
C24 N21 1.332 . S
C24 C23 1.382 . S
C24 H35 0.952 . S
C25 C22 1.388 . S
C25 C26 1.382 . S
C25 H50 0.950 . S
C26 N21 1.332 . S
C26 C25 1.382 . S
C26 H36 0.948 . S
N27 Co5 2.282 . S
N27 C31 1.332 . S
N27 C32 1.332 . S
C28 C29 1.388 . S
C28 C32 1.382 1_556 S
C28 H51 0.950 . S
C29 C28 1.388 . S
C29 C30 1.386 1_556 S
C30 C29 1.386 1_554 S
C30 C31 1.382 . S
C30 H52 0.950 . S
C31 N27 1.332 . S
C31 C30 1.382 . S
C31 H33 0.952 . S
C32 N27 1.332 . S
C32 C28 1.382 1_554 S
C32 H34 0.948 . S
H33 C31 0.952 . S
H34 C32 0.948 . S
H35 C24 0.952 . S
H36 C26 0.948 . S
C37 C3 1.395 . S
C37 C7 1.391 . S
C38 C0 1.389 . S
C38 C20 1.392 . S
C39 C10 1.392 . S
C39 C12 1.389 . S
C40 C15 1.395 . S
C40 C17 1.391 . S
H41 C1 0.951 . S
H42 C2 0.950 . S
H43 C8 0.949 . S
H44 C9 0.950 . S
H45 C13 0.951 . S
H46 C14 0.950 . S
H47 C18 0.949 . S
H48 C19 0.950 . S
H49 C23 0.950 . S
H50 C25 0.950 . S
H51 C28 0.950 . S
H52 C30 0.950 . S
C53 C54 1.443 . S
C53 N57 1.376 . S
C53 C91 1.389 . S
C54 C53 1.443 . S
C54 C55 1.340 . S
C54 H94 0.951 . S
C55 C54 1.340 . S
C55 C56 1.439 . S
C55 H95 0.950 . S
C56 C55 1.439 . S
C56 N57 1.374 . S
C56 C90 1.395 . S
N57 C53 1.376 . S
N57 C56 1.374 . S
N57 Co58 2.008 . S
Co58 N57 2.008 . S
Co58 N59 1.995 . S
Co58 N64 2.008 . S
Co58 N69 1.995 . S
Co58 N74 2.282 . S
Co58 N80 2.282 . S
N59 Co58 1.995 . S
N59 C60 1.376 . S
N59 C63 1.383 . S
C60 N59 1.376 . S
C60 C61 1.446 . S
C60 C90 1.391 . S
C61 C60 1.446 . S
C61 C62 1.339 . S
C61 H96 0.949 . S
C62 C61 1.339 . S
C62 C63 1.439 . S
C62 H97 0.950 . S
C63 N59 1.383 . S
C63 C62 1.439 . S
C63 C92 1.392 . S
N64 Co58 2.008 . S
N64 C65 1.376 . S
N64 C68 1.374 . S
C65 N64 1.376 . S
C65 C66 1.443 . S
C65 C92 1.389 . S
C66 C65 1.443 . S
C66 C67 1.340 . S
C66 H98 0.951 . S
C67 C66 1.340 . S
C67 C68 1.439 . S
C67 H99 0.950 . S
C68 N64 1.374 . S
C68 C67 1.439 . S
C68 C93 1.395 . S
N69 Co58 1.995 . S
N69 C70 1.376 . S
N69 C73 1.383 . S
C70 N69 1.376 . S
C70 C71 1.446 . S
C70 C93 1.391 . S
C71 C70 1.446 . S
C71 C72 1.339 . S
C71 H100 0.949 . S
C72 C71 1.339 . S
C72 C73 1.439 . S
C72 H101 0.950 . S
C73 N69 1.383 . S
C73 C72 1.439 . S
C73 C91 1.392 . S
N74 Co58 2.282 . S
N74 C77 1.332 . S
N74 C79 1.332 . S
C75 C76 1.386 . S
C75 C78 1.388 . S
C76 C75 1.386 . S
C76 C77 1.382 . S
C76 H102 0.950 . S
C77 N74 1.332 . S
C77 C76 1.382 . S
C77 H88 0.952 . S
C78 C75 1.388 . S
C78 C79 1.382 . S
C78 H103 0.950 . S
C79 N74 1.332 . S
C79 C78 1.382 . S
C79 H89 0.948 . S
N80 Co58 2.282 . S
N80 C84 1.332 . S
N80 C85 1.332 . S
C81 C82 1.388 . S
C81 C85 1.382 . S
C81 H104 0.950 . S
C82 C81 1.388 . S
C82 C83 1.386 . S
C83 C82 1.386 . S
C83 C84 1.382 . S
C83 H105 0.950 . S
C84 N80 1.332 . S
C84 C83 1.382 . S
C84 H86 0.952 . S
C85 N80 1.332 . S
C85 C81 1.382 . S
C85 H87 0.948 . S
H86 C84 0.952 . S
H87 C85 0.948 . S
H88 C77 0.952 . S
H89 C79 0.948 . S
C90 C56 1.395 . S
C90 C60 1.391 . S
C91 C53 1.389 . S
C91 C73 1.392 . S
C92 C63 1.392 . S
C92 C65 1.389 . S
C93 C68 1.395 . S
C93 C70 1.391 . S
H94 C54 0.951 . S
H95 C55 0.950 . S
H96 C61 0.949 . S
H97 C62 0.950 . S
H98 C66 0.951 . S
H99 C67 0.950 . S
H100 C71 0.949 . S
H101 C72 0.950 . S
H102 C76 0.950 . S
H103 C78 0.950 . S
H104 C81 0.950 . S
H105 C83 0.950 . S
C106 C107 1.443 . S
C106 N110 1.376 . S
C106 C144 1.389 . S
C107 C106 1.443 . S
C107 C108 1.340 . S
C107 H147 0.951 . S
C108 C107 1.340 . S
C108 C109 1.439 . S
C108 H148 0.950 . S
C109 C108 1.439 . S
C109 N110 1.374 . S
C109 C143 1.395 . S
N110 C106 1.376 . S
N110 C109 1.374 . S
N110 Co111 2.008 . S
Co111 N110 2.008 . S
Co111 N112 1.995 . S
Co111 N117 2.008 . S
Co111 N122 1.995 . S
Co111 N127 2.282 . S
Co111 N133 2.282 . S
N112 Co111 1.995 . S
N112 C113 1.376 . S
N112 C116 1.383 . S
C113 N112 1.376 . S
C113 C114 1.446 . S
C113 C143 1.391 . S
C114 C113 1.446 . S
C114 C115 1.339 . S
C114 H149 0.949 . S
C115 C114 1.339 . S
C115 C116 1.439 . S
C115 H150 0.950 . S
C116 N112 1.383 . S
C116 C115 1.439 . S
C116 C145 1.392 . S
N117 Co111 2.008 . S
N117 C118 1.376 . S
N117 C121 1.374 . S
C118 N117 1.376 . S
C118 C119 1.443 . S
C118 C145 1.389 . S
C119 C118 1.443 . S
C119 C120 1.340 . S
C119 H151 0.951 . S
C120 C119 1.340 . S
C120 C121 1.439 . S
C120 H152 0.950 . S
C121 N117 1.374 . S
C121 C120 1.439 . S
C121 C146 1.395 . S
N122 Co111 1.995 . S
N122 C123 1.376 . S
N122 C126 1.383 . S
C123 N122 1.376 . S
C123 C124 1.446 . S
C123 C146 1.391 . S
C124 C123 1.446 . S
C124 C125 1.339 . S
C124 H153 0.949 . S
C125 C124 1.339 . S
C125 C126 1.439 . S
C125 H154 0.950 . S
C126 N122 1.383 . S
C126 C125 1.439 . S
C126 C144 1.392 . S
N127 Co111 2.282 . S
N127 C130 1.332 . S
N127 C132 1.332 . S
C128 C129 1.386 . S
C128 C131 1.388 . S
C129 C128 1.386 . S
C129 C130 1.382 . S
C129 H155 0.950 . S
C130 N127 1.332 . S
C130 C129 1.382 . S
C130 H141 0.952 . S
C131 C128 1.388 . S
C131 C132 1.382 . S
C131 H156 0.950 . S
C132 N127 1.332 . S
C132 C131 1.382 . S
C132 H142 0.948 . S
N133 Co111 2.282 . S
N133 C137 1.332 . S
N133 C138 1.332 . S
C134 C135 1.388 . S
C134 C138 1.382 . S
C134 H157 0.950 . S
C135 C134 1.388 . S
C135 C136 1.386 . S
C136 C135 1.386 . S
C136 C137 1.382 . S
C136 H158 0.950 . S
C137 N133 1.332 . S
C137 C136 1.382 . S
C137 H139 0.952 . S
C138 N133 1.332 . S
C138 C134 1.382 . S
C138 H140 0.948 . S
H139 C137 0.952 . S
H140 C138 0.948 . S
H141 C130 0.952 . S
H142 C132 0.948 . S
C143 C109 1.395 . S
C143 C113 1.391 . S
C144 C106 1.389 . S
C144 C126 1.392 . S
C145 C116 1.392 . S
C145 C118 1.389 . S
C146 C121 1.395 . S
C146 C123 1.391 . S
H147 C107 0.951 . S
H148 C108 0.950 . S
H149 C114 0.949 . S
H150 C115 0.950 . S
H151 C119 0.951 . S
H152 C120 0.950 . S
H153 C124 0.949 . S
H154 C125 0.950 . S
H155 C129 0.950 . S
H156 C131 0.950 . S
H157 C134 0.950 . S
H158 C136 0.950 . S
C159 C160 1.443 . S
C159 N163 1.376 . S
C159 C197 1.389 . S
C160 C159 1.443 . S
C160 C161 1.340 . S
C160 H200 0.951 . S
C161 C160 1.340 . S
C161 C162 1.439 . S
C161 H201 0.950 . S
C162 C161 1.439 . S
C162 N163 1.374 . S
C162 C196 1.395 . S
N163 C159 1.376 . S
N163 C162 1.374 . S
N163 Co164 2.008 . S
Co164 N163 2.008 . S
Co164 N165 1.995 . S
Co164 N170 2.008 . S
Co164 N175 1.995 . S
Co164 N180 2.282 . S
Co164 N186 2.282 . S
N165 Co164 1.995 . S
N165 C166 1.376 . S
N165 C169 1.383 . S
C166 N165 1.376 . S
C166 C167 1.446 . S
C166 C196 1.391 . S
C167 C166 1.446 . S
C167 C168 1.339 . S
C167 H202 0.949 . S
C168 C167 1.339 . S
C168 C169 1.439 . S
C168 H203 0.950 . S
C169 N165 1.383 . S
C169 C168 1.439 . S
C169 C198 1.392 . S
N170 Co164 2.008 . S
N170 C171 1.376 . S
N170 C174 1.374 . S
C171 N170 1.376 . S
C171 C172 1.443 . S
C171 C198 1.389 . S
C172 C171 1.443 . S
C172 C173 1.340 . S
C172 H204 0.951 . S
C173 C172 1.340 . S
C173 C174 1.439 . S
C173 H205 0.950 . S
C174 N170 1.374 . S
C174 C173 1.439 . S
C174 C199 1.395 . S
N175 Co164 1.995 . S
N175 C176 1.376 . S
N175 C179 1.383 . S
C176 N175 1.376 . S
C176 C177 1.446 . S
C176 C199 1.391 . S
C177 C176 1.446 . S
C177 C178 1.339 . S
C177 H206 0.949 . S
C178 C177 1.339 . S
C178 C179 1.439 . S
C178 H207 0.950 . S
C179 N175 1.383 . S
C179 C178 1.439 . S
C179 C197 1.392 . S
N180 Co164 2.282 . S
N180 C183 1.332 . S
N180 C185 1.332 . S
C181 C182 1.386 . S
C181 C184 1.388 . S
C182 C181 1.386 . S
C182 C183 1.382 . S
C182 H208 0.950 . S
C183 N180 1.332 . S
C183 C182 1.382 . S
C183 H194 0.952 . S
C184 C181 1.388 . S
C184 C185 1.382 . S
C184 H209 0.950 . S
C185 N180 1.332 . S
C185 C184 1.382 . S
C185 H195 0.948 . S
N186 Co164 2.282 . S
N186 C190 1.332 . S
N186 C191 1.332 . S
C187 C188 1.388 . S
C187 C191 1.382 . S
C187 H210 0.950 . S
C188 C187 1.388 . S
C188 C189 1.386 . S
C189 C188 1.386 . S
C189 C190 1.382 . S
C189 H211 0.950 . S
C190 N186 1.332 . S
C190 C189 1.382 . S
C190 H192 0.952 . S
C191 N186 1.332 . S
C191 C187 1.382 . S
C191 H193 0.948 . S
H192 C190 0.952 . S
H193 C191 0.948 . S
H194 C183 0.952 . S
H195 C185 0.948 . S
C196 C162 1.395 . S
C196 C166 1.391 . S
C197 C159 1.389 . S
C197 C179 1.392 . S
C198 C169 1.392 . S
C198 C171 1.389 . S
C199 C174 1.395 . S
C199 C176 1.391 . S
H200 C160 0.951 . S
H201 C161 0.950 . S
H202 C167 0.949 . S
H203 C168 0.950 . S
H204 C172 0.951 . S
H205 C173 0.950 . S
H206 C177 0.949 . S
H207 C178 0.950 . S
H208 C182 0.950 . S
H209 C184 0.950 . S
H210 C187 0.950 . S
H211 C189 0.950 . S
C212 C213 1.443 . S
C212 N216 1.376 . S
C212 C250 1.389 . S
C213 C212 1.443 . S
C213 C214 1.340 . S
C213 H253 0.951 . S
C214 C213 1.340 . S
C214 C215 1.439 . S
C214 H254 0.950 . S
C215 C214 1.439 . S
C215 N216 1.374 . S
C215 C249 1.395 . S
N216 C212 1.376 . S
N216 C215 1.374 . S
N216 Co217 2.008 . S
Co217 N216 2.008 . S
Co217 N218 1.995 . S
Co217 N223 2.008 . S
Co217 N228 1.995 . S
Co217 N233 2.282 . S
Co217 N239 2.282 . S
N218 Co217 1.995 . S
N218 C219 1.376 . S
N218 C222 1.383 . S
C219 N218 1.376 . S
C219 C220 1.446 . S
C219 C249 1.391 . S
C220 C219 1.446 . S
C220 C221 1.339 . S
C220 H255 0.949 . S
C221 C220 1.339 . S
C221 C222 1.439 . S
C221 H256 0.950 . S
C222 N218 1.383 . S
C222 C221 1.439 . S
C222 C251 1.392 . S
N223 Co217 2.008 . S
N223 C224 1.376 . S
N223 C227 1.374 . S
C224 N223 1.376 . S
C224 C225 1.443 . S
C224 C251 1.389 . S
C225 C224 1.443 . S
C225 C226 1.340 . S
C225 H257 0.951 . S
C226 C225 1.340 . S
C226 C227 1.439 . S
C226 H258 0.950 . S
C227 N223 1.374 . S
C227 C226 1.439 . S
C227 C252 1.395 . S
N228 Co217 1.995 . S
N228 C229 1.376 . S
N228 C232 1.383 . S
C229 N228 1.376 . S
C229 C230 1.446 . S
C229 C252 1.391 . S
C230 C229 1.446 . S
C230 C231 1.339 . S
C230 H259 0.949 . S
C231 C230 1.339 . S
C231 C232 1.439 . S
C231 H260 0.950 . S
C232 N228 1.383 . S
C232 C231 1.439 . S
C232 C250 1.392 . S
N233 Co217 2.282 . S
N233 C236 1.332 . S
N233 C238 1.332 . S
C234 C235 1.386 . S
C234 C237 1.388 . S
C235 C234 1.386 . S
C235 C236 1.382 . S
C235 H261 0.950 . S
C236 N233 1.332 . S
C236 C235 1.382 . S
C236 H247 0.952 . S
C237 C234 1.388 . S
C237 C238 1.382 . S
C237 H262 0.950 . S
C238 N233 1.332 . S
C238 C237 1.382 . S
C238 H248 0.948 . S
N239 Co217 2.282 . S
N239 C243 1.332 . S
N239 C244 1.332 . S
C240 C241 1.388 . S
C240 C244 1.382 . S
C240 H263 0.950 . S
C241 C240 1.388 . S
C241 C242 1.386 . S
C242 C241 1.386 . S
C242 C243 1.382 . S
C242 H264 0.950 . S
C243 N239 1.332 . S
C243 C242 1.382 . S
C243 H245 0.952 . S
C244 N239 1.332 . S
C244 C240 1.382 . S
C244 H246 0.948 . S
H245 C243 0.952 . S
H246 C244 0.948 . S
H247 C236 0.952 . S
H248 C238 0.948 . S
C249 C215 1.395 . S
C249 C219 1.391 . S
C250 C212 1.389 . S
C250 C232 1.392 . S
C251 C222 1.392 . S
C251 C224 1.389 . S
C252 C227 1.395 . S
C252 C229 1.391 . S
H253 C213 0.951 . S
H254 C214 0.950 . S
H255 C220 0.949 . S
H256 C221 0.950 . S
H257 C225 0.951 . S
H258 C226 0.950 . S
H259 C230 0.949 . S
H260 C231 0.950 . S
H261 C235 0.950 . S
H262 C237 0.950 . S
H263 C240 0.950 . S
H264 C242 0.950 . S
C265 C266 1.443 . S
C265 N269 1.376 . S
C265 C303 1.389 . S
C266 C265 1.443 . S
C266 C267 1.340 . S
C266 H306 0.951 . S
C267 C266 1.340 . S
C267 C268 1.439 . S
C267 H307 0.950 . S
C268 C267 1.439 . S
C268 N269 1.374 . S
C268 C302 1.395 . S
N269 C265 1.376 . S
N269 C268 1.374 . S
N269 Co270 2.008 . S
Co270 N269 2.008 . S
Co270 N271 1.995 . S
Co270 N276 2.008 . S
Co270 N281 1.995 . S
Co270 N286 2.282 . S
Co270 N292 2.282 . S
N271 Co270 1.995 . S
N271 C272 1.376 . S
N271 C275 1.383 . S
C272 N271 1.376 . S
C272 C273 1.446 . S
C272 C302 1.391 . S
C273 C272 1.446 . S
C273 C274 1.339 . S
C273 H308 0.949 . S
C274 C273 1.339 . S
C274 C275 1.439 . S
C274 H309 0.950 . S
C275 N271 1.383 . S
C275 C274 1.439 . S
C275 C304 1.392 . S
N276 Co270 2.008 . S
N276 C277 1.376 . S
N276 C280 1.374 . S
C277 N276 1.376 . S
C277 C278 1.443 . S
C277 C304 1.389 . S
C278 C277 1.443 . S
C278 C279 1.340 . S
C278 H310 0.951 1_556 S
C279 C278 1.340 . S
C279 C280 1.439 . S
C279 H311 0.950 . S
C280 N276 1.374 . S
C280 C279 1.439 . S
C280 C305 1.395 . S
N281 Co270 1.995 . S
N281 C282 1.376 . S
N281 C285 1.383 . S
C282 N281 1.376 . S
C282 C283 1.446 . S
C282 C305 1.391 . S
C283 C282 1.446 . S
C283 C284 1.339 . S
C283 H312 0.949 . S
C284 C283 1.339 . S
C284 C285 1.439 . S
C284 H313 0.950 . S
C285 N281 1.383 . S
C285 C284 1.439 . S
C285 C303 1.392 . S
N286 Co270 2.282 . S
N286 C289 1.332 . S
N286 C291 1.332 . S
C287 C288 1.386 . S
C287 C290 1.388 . S
C288 C287 1.386 . S
C288 C289 1.382 . S
C288 H314 0.950 . S
C289 N286 1.332 . S
C289 C288 1.382 . S
C289 H300 0.952 . S
C290 C287 1.388 . S
C290 C291 1.382 . S
C290 H315 0.950 . S
C291 N286 1.332 . S
C291 C290 1.382 . S
C291 H301 0.948 . S
N292 Co270 2.282 . S
N292 C296 1.332 . S
N292 C297 1.332 . S
C293 C294 1.388 . S
C293 C297 1.382 . S
C293 H316 0.950 1_556 S
C294 C293 1.388 . S
C294 C295 1.386 . S
C295 C294 1.386 . S
C295 C296 1.382 . S
C295 H317 0.950 . S
C296 N292 1.332 . S
C296 C295 1.382 . S
C296 H298 0.952 . S
C297 N292 1.332 . S
C297 C293 1.382 . S
C297 H299 0.948 . S
H298 C296 0.952 . S
H299 C297 0.948 . S
H300 C289 0.952 . S
H301 C291 0.948 . S
C302 C268 1.395 . S
C302 C272 1.391 . S
C303 C265 1.389 . S
C303 C285 1.392 . S
C304 C275 1.392 . S
C304 C277 1.389 . S
C305 C280 1.395 . S
C305 C282 1.391 . S
H306 C266 0.951 . S
H307 C267 0.950 . S
H308 C273 0.949 . S
H309 C274 0.950 . S
H310 C278 0.951 1_554 S
H311 C279 0.950 . S
H312 C283 0.949 . S
H313 C284 0.950 . S
H314 C288 0.950 . S
H315 C290 0.950 . S
H316 C293 0.950 1_554 S
H317 C295 0.950 . S
C318 C319 1.391 . S
C318 C320 1.394 . S
C318 H334 0.931 . S
C319 C318 1.391 . S
C319 C323 1.376 . S
C320 C318 1.394 . S
C320 C321 1.369 . S
C320 C324 1.531 . S
C321 C320 1.369 . S
C321 C322 1.410 . S
C321 C329 1.476 1_455 S
C322 C321 1.410 . S
C322 C323 1.392 . S
C322 C325 1.511 1_455 S
C323 C319 1.376 . S
C323 C322 1.392 . S
C323 H335 0.929 1_556 S
C324 C320 1.531 . S
C324 H336 0.960 . S
C324 H337 0.962 . S
C324 H338 0.960 . S
C325 C322 1.511 1_655 S
C325 H339 0.961 . S
C325 H340 0.961 . S
C325 H341 0.961 . S
C326 C327 1.370 . S
C326 C328 1.363 . S
C326 H342 0.931 . S
C327 C326 1.370 . S
C327 C331 1.408 . S
C328 C326 1.363 . S
C328 C329 1.388 . S
C328 C332 1.524 1_655 S
C329 C321 1.476 1_655 S
C329 C328 1.388 . S
C329 C330 1.414 . S
C330 C329 1.414 . S
C330 C331 1.404 . S
C330 C333 1.539 . S
C331 C327 1.408 . S
C331 C330 1.404 . S
C331 H343 0.930 . S
C332 C328 1.524 1_455 S
C332 H344 0.956 . S
C332 H345 0.961 . S
C332 H346 0.961 . S
C333 C330 1.539 . S
C333 H347 0.958 . S
C333 H348 0.961 . S
C333 H349 0.960 . S
H334 C318 0.931 . S
H335 C323 0.929 1_554 S
H336 C324 0.960 . S
H337 C324 0.962 . S
H338 C324 0.960 . S
H339 C325 0.961 . S
H340 C325 0.961 . S
H341 C325 0.961 . S
H342 C326 0.931 . S
H343 C331 0.930 . S
H344 C332 0.956 . S
H345 C332 0.961 . S
H346 C332 0.961 . S
H347 C333 0.958 . S
H348 C333 0.961 . S
H349 C333 0.960 . S
C350 C351 1.391 . S
C350 C352 1.394 1_556 S
C350 H366 0.931 . S
C351 C350 1.391 . S
C351 C355 1.376 . S
C352 C350 1.394 1_554 S
C352 C353 1.369 . S
C352 C356 1.531 . S
C353 C352 1.369 . S
C353 C354 1.410 1_554 S
C353 C361 1.503 1_565 S
C354 C353 1.410 1_556 S
C354 C355 1.392 . S
C354 C357 1.511 1_566 S
C355 C351 1.376 . S
C355 C354 1.392 . S
C355 H367 0.929 . S
C356 C352 1.531 . S
C356 H368 0.960 . S
C356 H369 0.962 . S
C356 H370 0.960 . S
C357 C354 1.511 1_544 S
C357 H371 0.961 1_554 S
C357 H372 0.961 . S
C357 H373 0.961 . S
C358 C359 1.370 . S
C358 C360 1.363 . S
C358 H374 0.931 . S
C359 C358 1.370 . S
C359 C363 1.408 . S
C360 C358 1.363 . S
C360 C361 1.370 . S
C360 C364 1.524 1_554 S
C361 C353 1.503 1_545 S
C361 C360 1.370 . S
C361 C362 1.403 . S
C362 C361 1.403 . S
C362 C363 1.404 . S
C362 C365 1.539 1_545 S
C363 C359 1.408 . S
C363 C362 1.404 . S
C363 H375 0.930 . S
C364 C360 1.524 1_556 S
C364 H376 0.956 . S
C364 H377 0.961 . S
C364 H378 0.961 . S
C365 C362 1.539 1_565 S
C365 H379 0.958 . S
C365 H380 0.961 . S
C365 H381 0.960 . S
H366 C350 0.931 . S
H367 C355 0.929 . S
H368 C356 0.960 . S
H369 C356 0.962 . S
H370 C356 0.960 . S
H371 C357 0.961 1_556 S
H372 C357 0.961 . S
H373 C357 0.961 . S
H374 C358 0.931 . S
H375 C363 0.930 . S
H376 C364 0.956 . S
H377 C364 0.961 . S
H378 C364 0.961 . S
H379 C365 0.958 . S
H380 C365 0.961 . S
H381 C365 0.960 . S
C382 C383 1.391 . S
C382 C384 1.394 . S
C382 H398 0.931 . S
C383 C382 1.391 . S
C383 C387 1.376 . S
C384 C382 1.394 . S
C384 C385 1.369 . S
C384 C388 1.531 . S
C385 C384 1.369 . S
C385 C386 1.410 . S
C385 C393 1.503 . S
C386 C385 1.410 . S
C386 C387 1.392 . S
C386 C389 1.511 . S
C387 C383 1.376 . S
C387 C386 1.392 . S
C387 H399 0.929 . S
C388 C384 1.531 . S
C388 H400 0.960 . S
C388 H401 0.962 . S
C388 H402 0.960 . S
C389 C386 1.511 . S
C389 H403 0.961 . S
C389 H404 0.961 . S
C389 H405 0.961 . S
C390 C391 1.370 . S
C390 C392 1.363 . S
C390 H406 0.931 1_554 S
C391 C390 1.370 . S
C391 C395 1.408 . S
C392 C390 1.363 . S
C392 C393 1.370 . S
C392 C396 1.524 . S
C393 C385 1.503 . S
C393 C392 1.370 . S
C393 C394 1.403 . S
C394 C393 1.403 . S
C394 C395 1.404 . S
C394 C397 1.539 . S
C395 C391 1.408 . S
C395 C394 1.404 . S
C395 H407 0.930 . S
C396 C392 1.524 . S
C396 H408 0.956 . S
C396 H409 0.961 . S
C396 H410 0.961 . S
C397 C394 1.539 . S
C397 H411 0.958 . S
C397 H412 0.961 . S
C397 H413 0.960 . S
H398 C382 0.931 . S
H399 C387 0.929 . S
H400 C388 0.960 . S
H401 C388 0.962 . S
H402 C388 0.960 . S
H403 C389 0.961 . S
H404 C389 0.961 . S
H405 C389 0.961 . S
H406 C390 0.931 1_556 S
H407 C395 0.930 . S
H408 C396 0.956 . S
H409 C396 0.961 . S
H410 C396 0.961 . S
H411 C397 0.958 . S
H412 C397 0.961 . S
H413 C397 0.960 . S
C414 C415 1.391 . S
C414 C416 1.394 . S
C414 H430 0.931 . S
C415 C414 1.391 . S
C415 C419 1.376 . S
C416 C414 1.394 . S
C416 C417 1.369 . S
C416 C420 1.531 . S
C417 C416 1.369 . S
C417 C418 1.410 . S
C417 C425 1.503 1_655 S
C418 C417 1.410 . S
C418 C419 1.392 . S
C418 C421 1.511 . S
C419 C415 1.376 . S
C419 C418 1.392 . S
C419 H431 0.929 . S
C420 C416 1.531 . S
C420 H432 0.960 . S
C420 H433 0.962 . S
C420 H434 0.960 . S
C421 C418 1.511 . S
C421 H435 0.961 . S
C421 H436 0.961 . S
C421 H437 0.961 1_655 S
C422 C423 1.370 . S
C422 C424 1.363 1_455 S
C422 H438 0.931 . S
C423 C422 1.370 . S
C423 C427 1.408 . S
C424 C422 1.363 1_655 S
C424 C425 1.370 1_655 S
C424 C428 1.524 . S
C425 C417 1.503 1_455 S
C425 C424 1.370 1_455 S
C425 C426 1.403 . S
C426 C425 1.403 . S
C426 C427 1.404 . S
C426 C429 1.539 . S
C427 C423 1.408 . S
C427 C426 1.404 . S
C427 H439 0.930 . S
C428 C424 1.524 . S
C428 H440 0.956 . S
C428 H441 0.961 . S
C428 H442 0.961 . S
C429 C426 1.539 . S
C429 H443 0.958 . S
C429 H444 0.961 . S
C429 H445 0.960 . S
H430 C414 0.931 . S
H431 C419 0.929 . S
H432 C420 0.960 . S
H433 C420 0.962 . S
H434 C420 0.960 . S
H435 C421 0.961 . S
H436 C421 0.961 . S
H437 C421 0.961 1_455 S
H438 C422 0.931 . S
H439 C427 0.930 . S
H440 C428 0.956 . S
H441 C428 0.961 . S
H442 C428 0.961 . S
H443 C429 0.958 . S
H444 C429 0.961 . S
H445 C429 0.960 . S
C446 C447 1.391 . S
C446 C448 1.394 . S
C446 H462 0.931 . S
C447 C446 1.391 . S
C447 C451 1.376 . S
C448 C446 1.394 . S
C448 C449 1.369 . S
C448 C452 1.531 . S
C449 C448 1.369 . S
C449 C450 1.410 . S
C449 C457 1.503 1_545 S
C450 C449 1.410 . S
C450 C451 1.392 . S
C450 C453 1.511 1_545 S
C451 C447 1.376 . S
C451 C450 1.392 . S
C451 H463 0.929 . S
C452 C448 1.531 . S
C452 H464 0.960 . S
C452 H465 0.962 . S
C452 H466 0.960 . S
C453 C450 1.511 1_565 S
C453 H467 0.961 . S
C453 H468 0.961 . S
C453 H469 0.961 . S
C454 C455 1.370 . S
C454 C456 1.363 . S
C454 H470 0.931 . S
C455 C454 1.370 . S
C455 C459 1.408 . S
C456 C454 1.363 . S
C456 C457 1.370 . S
C456 C460 1.524 . S
C457 C449 1.503 1_565 S
C457 C456 1.370 . S
C457 C458 1.403 . S
C458 C457 1.403 . S
C458 C459 1.404 . S
C458 C461 1.539 1_565 S
C459 C455 1.408 . S
C459 C458 1.404 . S
C459 H471 0.930 . S
C460 C456 1.524 . S
C460 H472 0.956 . S
C460 H473 0.961 . S
C460 H474 0.961 . S
C461 C458 1.539 1_545 S
C461 H475 0.958 . S
C461 H476 0.961 . S
C461 H477 0.960 . S
H462 C446 0.931 . S
H463 C451 0.929 . S
H464 C452 0.960 . S
H465 C452 0.962 . S
H466 C452 0.960 . S
H467 C453 0.961 . S
H468 C453 0.961 . S
H469 C453 0.961 . S
H470 C454 0.931 . S
H471 C459 0.930 . S
H472 C460 0.956 . S
H473 C460 0.961 . S
H474 C460 0.961 . S
H475 C461 0.958 . S
H476 C461 0.961 . S
H477 C461 0.960 . S
C478 C479 1.391 . S
C478 C480 1.394 . S
C478 H494 0.931 . S
C479 C478 1.391 . S
C479 C483 1.376 . S
C480 C478 1.394 . S
C480 C481 1.369 . S
C480 C484 1.531 . S
C481 C480 1.369 . S
C481 C482 1.410 . S
C481 C489 1.503 . S
C482 C481 1.410 . S
C482 C483 1.392 . S
C482 C485 1.511 . S
C483 C479 1.376 . S
C483 C482 1.392 . S
C483 H495 0.929 . S
C484 C480 1.531 . S
C484 H496 0.960 . S
C484 H497 0.962 . S
C484 H498 0.960 . S
C485 C482 1.511 . S
C485 H499 0.961 . S
C485 H500 0.961 . S
C485 H501 0.961 . S
C486 C487 1.370 . S
C486 C488 1.363 . S
C486 H502 0.931 . S
C487 C486 1.370 . S
C487 C491 1.408 . S
C488 C486 1.363 . S
C488 C489 1.370 . S
C488 C492 1.524 . S
C489 C481 1.503 . S
C489 C488 1.370 . S
C489 C490 1.403 . S
C490 C489 1.403 . S
C490 C491 1.404 . S
C490 C493 1.539 . S
C491 C487 1.408 . S
C491 C490 1.404 . S
C491 H503 0.930 . S
C492 C488 1.524 . S
C492 H504 0.956 . S
C492 H505 0.961 . S
C492 H506 0.961 . S
C493 C490 1.539 . S
C493 H507 0.958 . S
C493 H508 0.961 . S
C493 H509 0.960 . S
H494 C478 0.931 . S
H495 C483 0.929 . S
H496 C484 0.960 . S
H497 C484 0.962 . S
H498 C484 0.960 . S
H499 C485 0.961 . S
H500 C485 0.961 . S
H501 C485 0.961 . S
H502 C486 0.931 . S
H503 C491 0.930 . S
H504 C492 0.956 . S
H505 C492 0.961 . S
H506 C492 0.961 . S
H507 C493 0.958 . S
H508 C493 0.961 . S
H509 C493 0.960 . S
C510 C511 1.391 . S
C510 C512 1.394 . S
C510 H526 0.931 . S
C511 C510 1.391 . S
C511 C515 1.376 . S
C512 C510 1.394 . S
C512 C513 1.369 . S
C512 C516 1.531 . S
C513 C512 1.369 . S
C513 C514 1.410 . S
C513 C521 1.503 . S
C514 C513 1.410 . S
C514 C515 1.392 . S
C514 C517 1.511 . S
C515 C511 1.376 . S
C515 C514 1.392 . S
C515 H527 0.929 . S
C516 C512 1.531 . S
C516 H528 0.960 . S
C516 H529 0.962 . S
C516 H530 0.960 . S
C517 C514 1.511 . S
C517 H531 0.961 . S
C517 H532 0.961 . S
C517 H533 0.961 . S
C518 C519 1.370 . S
C518 C520 1.363 . S
C518 H534 0.931 . S
C519 C518 1.370 . S
C519 C523 1.408 . S
C520 C518 1.363 . S
C520 C521 1.370 . S
C520 C524 1.524 . S
C521 C513 1.503 . S
C521 C520 1.370 . S
C521 C522 1.403 . S
C522 C521 1.403 . S
C522 C523 1.404 . S
C522 C525 1.539 . S
C523 C519 1.408 . S
C523 C522 1.404 . S
C523 H535 0.930 . S
C524 C520 1.524 . S
C524 H536 0.956 . S
C524 H537 0.961 . S
C524 H538 0.961 . S
C525 C522 1.539 . S
C525 H539 0.958 . S
C525 H540 0.961 . S
C525 H541 0.960 . S
H526 C510 0.931 . S
H527 C515 0.929 . S
H528 C516 0.960 . S
H529 C516 0.962 . S
H530 C516 0.960 . S
H531 C517 0.961 . S
H532 C517 0.961 . S
H533 C517 0.961 . S
H534 C518 0.931 . S
H535 C523 0.930 . S
H536 C524 0.956 . S
H537 C524 0.961 . S
H538 C524 0.961 . S
H539 C525 0.958 . S
H540 C525 0.961 . S
H541 C525 0.960 . S
C542 C543 1.391 . S
C542 C544 1.394 . S
C542 H558 0.931 . S
C543 C542 1.391 . S
C543 C547 1.376 . S
C544 C542 1.394 . S
C544 C545 1.369 . S
C544 C548 1.531 . S
C545 C544 1.369 . S
C545 C546 1.410 . S
C545 C553 1.503 . S
C546 C545 1.410 . S
C546 C547 1.392 . S
C546 C549 1.511 . S
C547 C543 1.376 . S
C547 C546 1.392 . S
C547 H559 0.929 . S
C548 C544 1.531 . S
C548 H560 0.960 . S
C548 H561 0.962 . S
C548 H562 0.960 . S
C549 C546 1.511 . S
C549 H563 0.961 . S
C549 H564 0.961 . S
C549 H565 0.961 . S
C550 C551 1.370 . S
C550 C552 1.363 . S
C550 H566 0.931 . S
C551 C550 1.370 . S
C551 C555 1.408 . S
C552 C550 1.363 . S
C552 C553 1.370 . S
C552 C556 1.524 . S
C553 C545 1.503 . S
C553 C552 1.370 . S
C553 C554 1.403 . S
C554 C553 1.403 . S
C554 C555 1.404 . S
C554 C557 1.539 . S
C555 C551 1.408 . S
C555 C554 1.404 . S
C555 H567 0.930 . S
C556 C552 1.524 . S
C556 H568 0.956 . S
C556 H569 0.961 . S
C556 H570 0.961 . S
C557 C554 1.539 . S
C557 H571 0.958 . S
C557 H572 0.961 . S
C557 H573 0.960 . S
H558 C542 0.931 . S
H559 C547 0.929 . S
H560 C548 0.960 . S
H561 C548 0.962 . S
H562 C548 0.960 . S
H563 C549 0.961 . S
H564 C549 0.961 . S
H565 C549 0.961 . S
H566 C550 0.931 . S
H567 C555 0.930 . S
H568 C556 0.956 . S
H569 C556 0.961 . S
H570 C556 0.961 . S
H571 C557 0.958 . S
H572 C557 0.961 . S
H573 C557 0.960 . S
C574 C575 1.391 . S
C574 C576 1.394 . S
C574 H590 0.931 . S
C575 C574 1.391 . S
C575 C579 1.376 . S
C576 C574 1.394 . S
C576 C577 1.369 . S
C576 C580 1.531 . S
C577 C576 1.369 . S
C577 C578 1.410 . S
C577 C585 1.503 . S
C578 C577 1.410 . S
C578 C579 1.392 . S
C578 C581 1.511 . S
C579 C575 1.376 . S
C579 C578 1.392 . S
C579 H591 0.929 . S
C580 C576 1.531 . S
C580 H592 0.960 . S
C580 H593 0.962 . S
C580 H594 0.960 . S
C581 C578 1.511 . S
C581 H595 0.961 . S
C581 H596 0.961 . S
C581 H597 0.961 . S
C582 C583 1.370 . S
C582 C584 1.363 . S
C582 H598 0.931 . S
C583 C582 1.370 . S
C583 C587 1.408 . S
C584 C582 1.363 . S
C584 C585 1.370 . S
C584 C588 1.524 . S
C585 C577 1.503 . S
C585 C584 1.370 . S
C585 C586 1.403 . S
C586 C585 1.403 . S
C586 C587 1.404 . S
C586 C589 1.539 . S
C587 C583 1.408 . S
C587 C586 1.404 . S
C587 H599 0.930 . S
C588 C584 1.524 . S
C588 H600 0.956 . S
C588 H601 0.961 . S
C588 H602 0.961 . S
C589 C586 1.539 . S
C589 H603 0.958 . S
C589 H604 0.961 . S
C589 H605 0.960 . S
H590 C574 0.931 . S
H591 C579 0.929 . S
H592 C580 0.960 . S
H593 C580 0.962 . S
H594 C580 0.960 . S
H595 C581 0.961 . S
H596 C581 0.961 . S
H597 C581 0.961 . S
H598 C582 0.931 . S
H599 C587 0.930 . S
H600 C588 0.956 . S
H601 C588 0.961 . S
H602 C588 0.961 . S
H603 C589 0.958 . S
H604 C589 0.961 . S
H605 C589 0.960 . S
C606 C607 1.391 . S
C606 C608 1.394 . S
C606 H622 0.931 . S
C607 C606 1.391 . S
C607 C611 1.376 . S
C608 C606 1.394 . S
C608 C609 1.369 . S
C608 C612 1.531 . S
C609 C608 1.369 . S
C609 C610 1.410 . S
C609 C617 1.503 . S
C610 C609 1.410 . S
C610 C611 1.392 . S
C610 C613 1.511 . S
C611 C607 1.376 . S
C611 C610 1.392 . S
C611 H623 0.929 . S
C612 C608 1.531 . S
C612 H624 0.960 . S
C612 H625 0.962 . S
C612 H626 0.960 . S
C613 C610 1.511 . S
C613 H627 0.961 . S
C613 H628 0.961 . S
C613 H629 0.961 . S
C614 C615 1.370 . S
C614 C616 1.363 . S
C614 H630 0.931 . S
C615 C614 1.370 . S
C615 C619 1.408 . S
C616 C614 1.363 . S
C616 C617 1.370 . S
C616 C620 1.524 . S
C617 C609 1.503 . S
C617 C616 1.370 . S
C617 C618 1.403 . S
C618 C617 1.403 . S
C618 C619 1.404 . S
C618 C621 1.539 . S
C619 C615 1.408 . S
C619 C618 1.404 . S
C619 H631 0.930 . S
C620 C616 1.524 . S
C620 H632 0.956 . S
C620 H633 0.961 . S
C620 H634 0.961 . S
C621 C618 1.539 . S
C621 H635 0.958 . S
C621 H636 0.961 . S
C621 H637 0.960 . S
H622 C606 0.931 . S
H623 C611 0.929 . S
H624 C612 0.960 . S
H625 C612 0.962 . S
H626 C612 0.960 . S
H627 C613 0.961 . S
H628 C613 0.961 . S
H629 C613 0.961 . S
H630 C614 0.931 . S
H631 C619 0.930 . S
H632 C620 0.956 . S
H633 C620 0.961 . S
H634 C620 0.961 . S
H635 C621 0.958 . S
H636 C621 0.961 . S
H637 C621 0.960 . S
C638 C639 1.391 . S
C638 C640 1.394 . S
C638 H654 0.931 . S
C639 C638 1.391 . S
C639 C643 1.376 . S
C640 C638 1.394 . S
C640 C641 1.369 . S
C640 C644 1.531 . S
C641 C640 1.369 . S
C641 C642 1.410 . S
C641 C649 1.503 . S
C642 C641 1.410 . S
C642 C643 1.392 . S
C642 C645 1.511 1_556 S
C643 C639 1.376 . S
C643 C642 1.392 . S
C643 H655 0.929 . S
C644 C640 1.531 . S
C644 H656 0.960 . S
C644 H657 0.962 . S
C644 H658 0.960 . S
C645 C642 1.511 1_554 S
C645 H659 0.961 . S
C645 H660 0.961 . S
C645 H661 0.961 . S
C646 C647 1.370 . S
C646 C648 1.363 . S
C646 H662 0.931 . S
C647 C646 1.370 . S
C647 C651 1.408 . S
C648 C646 1.363 . S
C648 C649 1.370 . S
C648 C652 1.524 . S
C649 C641 1.503 . S
C649 C648 1.370 . S
C649 C650 1.403 . S
C650 C649 1.403 . S
C650 C651 1.404 . S
C650 C653 1.539 . S
C651 C647 1.408 . S
C651 C650 1.404 . S
C651 H663 0.930 . S
C652 C648 1.524 . S
C652 H664 0.956 . S
C652 H665 0.961 . S
C652 H666 0.961 . S
C653 C650 1.539 . S
C653 H667 0.958 . S
C653 H668 0.961 . S
C653 H669 0.960 . S
H654 C638 0.931 . S
H655 C643 0.929 . S
H656 C644 0.960 . S
H657 C644 0.962 . S
H658 C644 0.960 . S
H659 C645 0.961 . S
H660 C645 0.961 . S
H661 C645 0.961 . S
H662 C646 0.931 . S
H663 C651 0.930 . S
H664 C652 0.956 . S
H665 C652 0.961 . S
H666 C652 0.961 . S
H667 C653 0.958 . S
H668 C653 0.961 . S
H669 C653 0.960 . S
C670 C671 1.385 1_556 S
C670 C672 1.389 1_556 S
C670 H686 0.941 . S
C671 C670 1.385 1_554 S
C671 C675 1.376 . S
C672 C670 1.389 1_554 S
C672 C673 1.369 . S
C672 C676 1.531 1_554 S
C673 C672 1.369 . S
C673 C674 1.410 . S
C673 C681 1.503 . S
C674 C673 1.410 . S
C674 C675 1.392 . S
C674 C677 1.511 . S
C675 C671 1.376 . S
C675 C674 1.392 . S
C675 H687 0.929 . S
C676 C672 1.531 1_556 S
C676 H688 0.960 . S
C676 H689 0.962 1_556 S
C676 H690 0.960 . S
C677 C674 1.511 . S
C677 H691 0.961 . S
C677 H692 0.961 . S
C677 H693 0.961 . S
C678 C679 1.370 . S
C678 C680 1.363 . S
C678 H694 0.931 . S
C679 C678 1.370 . S
C679 C683 1.408 . S
C680 C678 1.363 . S
C680 C681 1.370 . S
C680 C684 1.524 . S
C681 C673 1.503 . S
C681 C680 1.370 . S
C681 C682 1.403 . S
C682 C681 1.403 . S
C682 C683 1.404 . S
C682 C685 1.527 1_554 S
C683 C679 1.408 . S
C683 C682 1.404 . S
C683 H695 0.930 . S
C684 C680 1.524 . S
C684 H696 0.956 . S
C684 H697 0.961 . S
C684 H698 0.961 . S
C685 C682 1.527 1_556 S
C685 H699 0.972 . S
C685 H700 0.960 1_556 S
C685 H701 0.959 1_556 S
H686 C670 0.941 . S
H687 C675 0.929 . S
H688 C676 0.960 . S
H689 C676 0.962 1_554 S
H690 C676 0.960 . S
H691 C677 0.961 . S
H692 C677 0.961 . S
H693 C677 0.961 . S
H694 C678 0.931 . S
H695 C683 0.930 . S
H696 C684 0.956 . S
H697 C684 0.961 . S
H698 C684 0.961 . S
H699 C685 0.972 . S
H700 C685 0.960 1_554 S
H701 C685 0.959 1_554 S
C319 C39 1.895 1_556 S
C327 C181 1.894 . S
C351 C234 1.814 . S
C359 C92 1.831 . S
C383 C128 1.856 . S
C391 C304 1.851 1_554 S
C415 C198 1.907 . S
C423 C22 1.897 . S
C447 C75 1.813 . S
C455 C251 1.830 . S
C479 C287 1.849 . S
C487 C145 1.853 . S
C511 C38 1.909 . S
C519 C144 1.931 . S
C543 C91 1.806 . S
C551 C188 1.817 . S
C575 C241 1.685 . S
C583 C135 1.670 . S
C607 C303 1.943 . S
C615 C197 1.925 . S
C639 C250 1.828 . S
C647 C29 1.816 . S
C671 C294 1.665 1_554 S
C679 C82 1.681 . S
