# Generated by pormake.
# Topology bcu-k, (6)-cn, num edge types: 1
# Building blocks:
#     Node 0, Type 0, BuildingBlock: IZENUY_clean_sbu_0, # of connection points: 6
#     Node 1, Type 0, BuildingBlock: IZENUY_clean_sbu_0, # of connection points: 6
#     Node 2, Type 0, BuildingBlock: IZENUY_clean_sbu_0, # of connection points: 6
#     Node 3, Type 0, BuildingBlock: IZENUY_clean_sbu_0, # of connection points: 6
#     Node 4, Type 0, BuildingBlock: IZENUY_clean_sbu_0, # of connection points: 6
#     Node 5, Type 0, BuildingBlock: IZENUY_clean_sbu_0, # of connection points: 6
#     Node 6, Type 0, BuildingBlock: IZENUY_clean_sbu_0, # of connection points: 6
#     Node 7, Type 0, BuildingBlock: IZENUY_clean_sbu_0, # of connection points: 6
#     Node 8, Type 0, BuildingBlock: IZENUY_clean_sbu_0, # of connection points: 6
#     Node 9, Type 0, BuildingBlock: IZENUY_clean_sbu_0, # of connection points: 6
#     Node 10, Type 0, BuildingBlock: IZENUY_clean_sbu_0, # of connection points: 6
#     Node 11, Type 0, BuildingBlock: IZENUY_clean_sbu_0, # of connection points: 6
#     Node 12, Type 0, BuildingBlock: IZENUY_clean_sbu_0, # of connection points: 6
#     Node 13, Type 0, BuildingBlock: IZENUY_clean_sbu_0, # of connection points: 6
#     Node 14, Type 0, BuildingBlock: IZENUY_clean_sbu_0, # of connection points: 6
#     Node 15, Type 0, BuildingBlock: IZENUY_clean_sbu_0, # of connection points: 6
#     Node 16, Type 0, BuildingBlock: IZENUY_clean_sbu_0, # of connection points: 6
#     Node 17, Type 0, BuildingBlock: IZENUY_clean_sbu_0, # of connection points: 6
#     Node 18, Type 0, BuildingBlock: IZENUY_clean_sbu_0, # of connection points: 6
#     Node 19, Type 0, BuildingBlock: IZENUY_clean_sbu_0, # of connection points: 6
#     Node 20, Type 0, BuildingBlock: IZENUY_clean_sbu_0, # of connection points: 6
#     Node 21, Type 0, BuildingBlock: IZENUY_clean_sbu_0, # of connection points: 6
#     Node 22, Type 0, BuildingBlock: IZENUY_clean_sbu_0, # of connection points: 6
#     Node 23, Type 0, BuildingBlock: IZENUY_clean_sbu_0, # of connection points: 6
#     Node 24, Type 0, BuildingBlock: IZENUY_clean_sbu_0, # of connection points: 6
#     Node 25, Type 0, BuildingBlock: IZENUY_clean_sbu_0, # of connection points: 6
#     Node 26, Type 0, BuildingBlock: IZENUY_clean_sbu_0, # of connection points: 6
#     Node 27, Type 0, BuildingBlock: IZENUY_clean_sbu_0, # of connection points: 6
#     Node 28, Type 0, BuildingBlock: IZENUY_clean_sbu_0, # of connection points: 6
#     Node 29, Type 0, BuildingBlock: IZENUY_clean_sbu_0, # of connection points: 6
#     Node 30, Type 0, BuildingBlock: IZENUY_clean_sbu_0, # of connection points: 6
#     Node 31, Type 0, BuildingBlock: IZENUY_clean_sbu_0, # of connection points: 6
#     Node 32, Type 0, BuildingBlock: IZENUY_clean_sbu_0, # of connection points: 6
#     Node 33, Type 0, BuildingBlock: IZENUY_clean_sbu_0, # of connection points: 6
#     Node 34, Type 0, BuildingBlock: IZENUY_clean_sbu_0, # of connection points: 6
#     Node 35, Type 0, BuildingBlock: IZENUY_clean_sbu_0, # of connection points: 6
#     Node 36, Type 0, BuildingBlock: IZENUY_clean_sbu_0, # of connection points: 6
#     Node 37, Type 0, BuildingBlock: IZENUY_clean_sbu_0, # of connection points: 6
#     Node 38, Type 0, BuildingBlock: IZENUY_clean_sbu_0, # of connection points: 6
#     Node 39, Type 0, BuildingBlock: IZENUY_clean_sbu_0, # of connection points: 6
#     Node 40, Type 0, BuildingBlock: IZENUY_clean_sbu_0, # of connection points: 6
#     Node 41, Type 0, BuildingBlock: IZENUY_clean_sbu_0, # of connection points: 6
#     Node 42, Type 0, BuildingBlock: IZENUY_clean_sbu_0, # of connection points: 6
#     Node 43, Type 0, BuildingBlock: IZENUY_clean_sbu_0, # of connection points: 6
#     Node 44, Type 0, BuildingBlock: IZENUY_clean_sbu_0, # of connection points: 6
#     Node 45, Type 0, BuildingBlock: IZENUY_clean_sbu_0, # of connection points: 6
#     Node 46, Type 0, BuildingBlock: IZENUY_clean_sbu_0, # of connection points: 6
#     Node 47, Type 0, BuildingBlock: IZENUY_clean_sbu_0, # of connection points: 6
#     Edge 48, Type (0, 0), BuildingBlock: OJICUG_clean_linker_0, # of connection points: 2
#     Edge 49, Type (0, 0), BuildingBlock: OJICUG_clean_linker_0, # of connection points: 2
#     Edge 50, Type (0, 0), BuildingBlock: OJICUG_clean_linker_0, # of connection points: 2
#     Edge 51, Type (0, 0), BuildingBlock: OJICUG_clean_linker_0, # of connection points: 2
#     Edge 52, Type (0, 0), BuildingBlock: OJICUG_clean_linker_0, # of connection points: 2
#     Edge 53, Type (0, 0), BuildingBlock: OJICUG_clean_linker_0, # of connection points: 2
#     Edge 54, Type (0, 0), BuildingBlock: OJICUG_clean_linker_0, # of connection points: 2
#     Edge 55, Type (0, 0), BuildingBlock: OJICUG_clean_linker_0, # of connection points: 2
#     Edge 56, Type (0, 0), BuildingBlock: OJICUG_clean_linker_0, # of connection points: 2
#     Edge 57, Type (0, 0), BuildingBlock: OJICUG_clean_linker_0, # of connection points: 2
#     Edge 58, Type (0, 0), BuildingBlock: OJICUG_clean_linker_0, # of connection points: 2
#     Edge 59, Type (0, 0), BuildingBlock: OJICUG_clean_linker_0, # of connection points: 2
#     Edge 60, Type (0, 0), BuildingBlock: OJICUG_clean_linker_0, # of connection points: 2
#     Edge 61, Type (0, 0), BuildingBlock: OJICUG_clean_linker_0, # of connection points: 2
#     Edge 62, Type (0, 0), BuildingBlock: OJICUG_clean_linker_0, # of connection points: 2
#     Edge 63, Type (0, 0), BuildingBlock: OJICUG_clean_linker_0, # of connection points: 2
#     Edge 64, Type (0, 0), BuildingBlock: OJICUG_clean_linker_0, # of connection points: 2
#     Edge 65, Type (0, 0), BuildingBlock: OJICUG_clean_linker_0, # of connection points: 2
#     Edge 66, Type (0, 0), BuildingBlock: OJICUG_clean_linker_0, # of connection points: 2
#     Edge 67, Type (0, 0), BuildingBlock: OJICUG_clean_linker_0, # of connection points: 2
#     Edge 68, Type (0, 0), BuildingBlock: OJICUG_clean_linker_0, # of connection points: 2
#     Edge 69, Type (0, 0), BuildingBlock: OJICUG_clean_linker_0, # of connection points: 2
#     Edge 70, Type (0, 0), BuildingBlock: OJICUG_clean_linker_0, # of connection points: 2
#     Edge 71, Type (0, 0), BuildingBlock: OJICUG_clean_linker_0, # of connection points: 2
#     Edge 72, Type (0, 0), BuildingBlock: OJICUG_clean_linker_0, # of connection points: 2
#     Edge 73, Type (0, 0), BuildingBlock: OJICUG_clean_linker_0, # of connection points: 2
#     Edge 74, Type (0, 0), BuildingBlock: OJICUG_clean_linker_0, # of connection points: 2
#     Edge 75, Type (0, 0), BuildingBlock: OJICUG_clean_linker_0, # of connection points: 2
#     Edge 76, Type (0, 0), BuildingBlock: OJICUG_clean_linker_0, # of connection points: 2
#     Edge 77, Type (0, 0), BuildingBlock: OJICUG_clean_linker_0, # of connection points: 2
#     Edge 78, Type (0, 0), BuildingBlock: OJICUG_clean_linker_0, # of connection points: 2
#     Edge 79, Type (0, 0), BuildingBlock: OJICUG_clean_linker_0, # of connection points: 2
#     Edge 80, Type (0, 0), BuildingBlock: OJICUG_clean_linker_0, # of connection points: 2
#     Edge 81, Type (0, 0), BuildingBlock: OJICUG_clean_linker_0, # of connection points: 2
#     Edge 82, Type (0, 0), BuildingBlock: OJICUG_clean_linker_0, # of connection points: 2
#     Edge 83, Type (0, 0), BuildingBlock: OJICUG_clean_linker_0, # of connection points: 2
#     Edge 84, Type (0, 0), BuildingBlock: OJICUG_clean_linker_0, # of connection points: 2
#     Edge 85, Type (0, 0), BuildingBlock: OJICUG_clean_linker_0, # of connection points: 2
#     Edge 86, Type (0, 0), BuildingBlock: OJICUG_clean_linker_0, # of connection points: 2
#     Edge 87, Type (0, 0), BuildingBlock: OJICUG_clean_linker_0, # of connection points: 2
#     Edge 88, Type (0, 0), BuildingBlock: OJICUG_clean_linker_0, # of connection points: 2
#     Edge 89, Type (0, 0), BuildingBlock: OJICUG_clean_linker_0, # of connection points: 2
#     Edge 90, Type (0, 0), BuildingBlock: OJICUG_clean_linker_0, # of connection points: 2
#     Edge 91, Type (0, 0), BuildingBlock: OJICUG_clean_linker_0, # of connection points: 2
#     Edge 92, Type (0, 0), BuildingBlock: OJICUG_clean_linker_0, # of connection points: 2
#     Edge 93, Type (0, 0), BuildingBlock: OJICUG_clean_linker_0, # of connection points: 2
#     Edge 94, Type (0, 0), BuildingBlock: OJICUG_clean_linker_0, # of connection points: 2
#     Edge 95, Type (0, 0), BuildingBlock: OJICUG_clean_linker_0, # of connection points: 2
#     Edge 96, Type (0, 0), BuildingBlock: OJICUG_clean_linker_0, # of connection points: 2
#     Edge 97, Type (0, 0), BuildingBlock: OJICUG_clean_linker_0, # of connection points: 2
#     Edge 98, Type (0, 0), BuildingBlock: OJICUG_clean_linker_0, # of connection points: 2
#     Edge 99, Type (0, 0), BuildingBlock: OJICUG_clean_linker_0, # of connection points: 2
#     Edge 100, Type (0, 0), BuildingBlock: OJICUG_clean_linker_0, # of connection points: 2
#     Edge 101, Type (0, 0), BuildingBlock: OJICUG_clean_linker_0, # of connection points: 2
#     Edge 102, Type (0, 0), BuildingBlock: OJICUG_clean_linker_0, # of connection points: 2
#     Edge 103, Type (0, 0), BuildingBlock: OJICUG_clean_linker_0, # of connection points: 2
#     Edge 104, Type (0, 0), BuildingBlock: OJICUG_clean_linker_0, # of connection points: 2
#     Edge 105, Type (0, 0), BuildingBlock: OJICUG_clean_linker_0, # of connection points: 2
#     Edge 106, Type (0, 0), BuildingBlock: OJICUG_clean_linker_0, # of connection points: 2
#     Edge 107, Type (0, 0), BuildingBlock: OJICUG_clean_linker_0, # of connection points: 2
#     Edge 108, Type (0, 0), BuildingBlock: OJICUG_clean_linker_0, # of connection points: 2
#     Edge 109, Type (0, 0), BuildingBlock: OJICUG_clean_linker_0, # of connection points: 2
#     Edge 110, Type (0, 0), BuildingBlock: OJICUG_clean_linker_0, # of connection points: 2
#     Edge 111, Type (0, 0), BuildingBlock: OJICUG_clean_linker_0, # of connection points: 2
#     Edge 112, Type (0, 0), BuildingBlock: OJICUG_clean_linker_0, # of connection points: 2
#     Edge 113, Type (0, 0), BuildingBlock: OJICUG_clean_linker_0, # of connection points: 2
#     Edge 114, Type (0, 0), BuildingBlock: OJICUG_clean_linker_0, # of connection points: 2
#     Edge 115, Type (0, 0), BuildingBlock: OJICUG_clean_linker_0, # of connection points: 2
#     Edge 116, Type (0, 0), BuildingBlock: OJICUG_clean_linker_0, # of connection points: 2
#     Edge 117, Type (0, 0), BuildingBlock: OJICUG_clean_linker_0, # of connection points: 2
#     Edge 118, Type (0, 0), BuildingBlock: OJICUG_clean_linker_0, # of connection points: 2
#     Edge 119, Type (0, 0), BuildingBlock: OJICUG_clean_linker_0, # of connection points: 2
#     Edge 120, Type (0, 0), BuildingBlock: OJICUG_clean_linker_0, # of connection points: 2
#     Edge 121, Type (0, 0), BuildingBlock: OJICUG_clean_linker_0, # of connection points: 2
#     Edge 122, Type (0, 0), BuildingBlock: OJICUG_clean_linker_0, # of connection points: 2
#     Edge 123, Type (0, 0), BuildingBlock: OJICUG_clean_linker_0, # of connection points: 2
#     Edge 124, Type (0, 0), BuildingBlock: OJICUG_clean_linker_0, # of connection points: 2
#     Edge 125, Type (0, 0), BuildingBlock: OJICUG_clean_linker_0, # of connection points: 2
#     Edge 126, Type (0, 0), BuildingBlock: OJICUG_clean_linker_0, # of connection points: 2
#     Edge 127, Type (0, 0), BuildingBlock: OJICUG_clean_linker_0, # of connection points: 2
#     Edge 128, Type (0, 0), BuildingBlock: OJICUG_clean_linker_0, # of connection points: 2
#     Edge 129, Type (0, 0), BuildingBlock: OJICUG_clean_linker_0, # of connection points: 2
#     Edge 130, Type (0, 0), BuildingBlock: OJICUG_clean_linker_0, # of connection points: 2
#     Edge 131, Type (0, 0), BuildingBlock: OJICUG_clean_linker_0, # of connection points: 2
#     Edge 132, Type (0, 0), BuildingBlock: OJICUG_clean_linker_0, # of connection points: 2
#     Edge 133, Type (0, 0), BuildingBlock: OJICUG_clean_linker_0, # of connection points: 2
#     Edge 134, Type (0, 0), BuildingBlock: OJICUG_clean_linker_0, # of connection points: 2
#     Edge 135, Type (0, 0), BuildingBlock: OJICUG_clean_linker_0, # of connection points: 2
#     Edge 136, Type (0, 0), BuildingBlock: OJICUG_clean_linker_0, # of connection points: 2
#     Edge 137, Type (0, 0), BuildingBlock: OJICUG_clean_linker_0, # of connection points: 2
#     Edge 138, Type (0, 0), BuildingBlock: OJICUG_clean_linker_0, # of connection points: 2
#     Edge 139, Type (0, 0), BuildingBlock: OJICUG_clean_linker_0, # of connection points: 2
#     Edge 140, Type (0, 0), BuildingBlock: OJICUG_clean_linker_0, # of connection points: 2
#     Edge 141, Type (0, 0), BuildingBlock: OJICUG_clean_linker_0, # of connection points: 2
#     Edge 142, Type (0, 0), BuildingBlock: OJICUG_clean_linker_0, # of connection points: 2
#     Edge 143, Type (0, 0), BuildingBlock: OJICUG_clean_linker_0, # of connection points: 2
#     Edge 144, Type (0, 0), BuildingBlock: OJICUG_clean_linker_0, # of connection points: 2
#     Edge 145, Type (0, 0), BuildingBlock: OJICUG_clean_linker_0, # of connection points: 2
#     Edge 146, Type (0, 0), BuildingBlock: OJICUG_clean_linker_0, # of connection points: 2
#     Edge 147, Type (0, 0), BuildingBlock: OJICUG_clean_linker_0, # of connection points: 2
#     Edge 148, Type (0, 0), BuildingBlock: OJICUG_clean_linker_0, # of connection points: 2
#     Edge 149, Type (0, 0), BuildingBlock: OJICUG_clean_linker_0, # of connection points: 2
#     Edge 150, Type (0, 0), BuildingBlock: OJICUG_clean_linker_0, # of connection points: 2
#     Edge 151, Type (0, 0), BuildingBlock: OJICUG_clean_linker_0, # of connection points: 2
#     Edge 152, Type (0, 0), BuildingBlock: OJICUG_clean_linker_0, # of connection points: 2
#     Edge 153, Type (0, 0), BuildingBlock: OJICUG_clean_linker_0, # of connection points: 2
#     Edge 154, Type (0, 0), BuildingBlock: OJICUG_clean_linker_0, # of connection points: 2
#     Edge 155, Type (0, 0), BuildingBlock: OJICUG_clean_linker_0, # of connection points: 2
#     Edge 156, Type (0, 0), BuildingBlock: OJICUG_clean_linker_0, # of connection points: 2
#     Edge 157, Type (0, 0), BuildingBlock: OJICUG_clean_linker_0, # of connection points: 2
#     Edge 158, Type (0, 0), BuildingBlock: OJICUG_clean_linker_0, # of connection points: 2
#     Edge 159, Type (0, 0), BuildingBlock: OJICUG_clean_linker_0, # of connection points: 2
#     Edge 160, Type (0, 0), BuildingBlock: OJICUG_clean_linker_0, # of connection points: 2
#     Edge 161, Type (0, 0), BuildingBlock: OJICUG_clean_linker_0, # of connection points: 2
#     Edge 162, Type (0, 0), BuildingBlock: OJICUG_clean_linker_0, # of connection points: 2
#     Edge 163, Type (0, 0), BuildingBlock: OJICUG_clean_linker_0, # of connection points: 2
#     Edge 164, Type (0, 0), BuildingBlock: OJICUG_clean_linker_0, # of connection points: 2
#     Edge 165, Type (0, 0), BuildingBlock: OJICUG_clean_linker_0, # of connection points: 2
#     Edge 166, Type (0, 0), BuildingBlock: OJICUG_clean_linker_0, # of connection points: 2
#     Edge 167, Type (0, 0), BuildingBlock: OJICUG_clean_linker_0, # of connection points: 2
#     Edge 168, Type (0, 0), BuildingBlock: OJICUG_clean_linker_0, # of connection points: 2
#     Edge 169, Type (0, 0), BuildingBlock: OJICUG_clean_linker_0, # of connection points: 2
#     Edge 170, Type (0, 0), BuildingBlock: OJICUG_clean_linker_0, # of connection points: 2
#     Edge 171, Type (0, 0), BuildingBlock: OJICUG_clean_linker_0, # of connection points: 2
#     Edge 172, Type (0, 0), BuildingBlock: OJICUG_clean_linker_0, # of connection points: 2
#     Edge 173, Type (0, 0), BuildingBlock: OJICUG_clean_linker_0, # of connection points: 2
#     Edge 174, Type (0, 0), BuildingBlock: OJICUG_clean_linker_0, # of connection points: 2
#     Edge 175, Type (0, 0), BuildingBlock: OJICUG_clean_linker_0, # of connection points: 2
#     Edge 176, Type (0, 0), BuildingBlock: OJICUG_clean_linker_0, # of connection points: 2
#     Edge 177, Type (0, 0), BuildingBlock: OJICUG_clean_linker_0, # of connection points: 2
#     Edge 178, Type (0, 0), BuildingBlock: OJICUG_clean_linker_0, # of connection points: 2
#     Edge 179, Type (0, 0), BuildingBlock: OJICUG_clean_linker_0, # of connection points: 2
#     Edge 180, Type (0, 0), BuildingBlock: OJICUG_clean_linker_0, # of connection points: 2
#     Edge 181, Type (0, 0), BuildingBlock: OJICUG_clean_linker_0, # of connection points: 2
#     Edge 182, Type (0, 0), BuildingBlock: OJICUG_clean_linker_0, # of connection points: 2
#     Edge 183, Type (0, 0), BuildingBlock: OJICUG_clean_linker_0, # of connection points: 2
#     Edge 184, Type (0, 0), BuildingBlock: OJICUG_clean_linker_0, # of connection points: 2
#     Edge 185, Type (0, 0), BuildingBlock: OJICUG_clean_linker_0, # of connection points: 2
#     Edge 186, Type (0, 0), BuildingBlock: OJICUG_clean_linker_0, # of connection points: 2
#     Edge 187, Type (0, 0), BuildingBlock: OJICUG_clean_linker_0, # of connection points: 2
#     Edge 188, Type (0, 0), BuildingBlock: OJICUG_clean_linker_0, # of connection points: 2
#     Edge 189, Type (0, 0), BuildingBlock: OJICUG_clean_linker_0, # of connection points: 2
#     Edge 190, Type (0, 0), BuildingBlock: OJICUG_clean_linker_0, # of connection points: 2
#     Edge 191, Type (0, 0), BuildingBlock: OJICUG_clean_linker_0, # of connection points: 2
# Relax obj value: 0.432
# Max RMSD: 0.167
# Mean RMSD: 0.166
data_MOF--net-bcu-k--node1-IZENUY_clean_sbu_0--edge1-OJICUG_clean_linker_0
_symmetry_space_group_name_H-M    P1
_symmetry_Int_Tables_number       1
_symmetry_cell_setting            triclinic
loop_
_symmetry_equiv_pos_as_xyz
'x, y, z'
_cell_length_a     43.583058
_cell_length_b     43.571926
_cell_length_c     43.55234
_cell_angle_alpha  89.963007
_cell_angle_beta   89.98541
_cell_angle_gamma 90.021574
loop_
_atom_site_label
_atom_site_type_symbol
_atom_site_fract_x
_atom_site_fract_y
_atom_site_fract_z
_atom_type_partial_charge
Fe0 Fe 0.12737 0.12178 0.2965 0.0
Fe1 Fe 0.16852 0.17214 0.32231 0.0
O2 O 0.1427 0.14155 0.32841 0.0
Fe3 Fe 0.13301 0.13112 0.36663 0.0
O4 O 0.12824 0.08973 0.35842 0.0
O5 O 0.14221 0.08555 0.31009 0.0
O6 O 0.16268 0.12513 0.27328 0.0
C7 C 0.19025 0.13094 0.28093 0.0
C8 C 0.07694 0.12782 0.33763 0.0
O9 O 0.19607 0.14686 0.30443 0.0
C10 C 0.1324 0.19636 0.36663 0.0
O11 O 0.11095 0.15657 0.27998 0.0
O12 O 0.15289 0.18364 0.28525 0.0
O13 O 0.09238 0.13839 0.35986 0.0
O14 O 0.08994 0.11534 0.31471 0.0
C15 C 0.19455 0.1422 0.37246 0.0
O16 O 0.1418 0.19845 0.33942 0.0
O17 O 0.13558 0.1713 0.38147 0.0
C18 C 0.12634 0.18033 0.27426 0.0
O19 O 0.18952 0.16702 0.35846 0.0
O20 O 0.17338 0.1226 0.37513 0.0
C21 C 0.13673 0.07346 0.33579 0.0
Fe22 Fe 0.84854 0.17128 0.31954 0.0
Fe23 Fe 0.88593 0.13269 0.36488 0.0
O24 O 0.87668 0.14303 0.32654 0.0
Fe25 Fe 0.8953 0.12574 0.29489 0.0
O26 O 0.89388 0.16018 0.27047 0.0
O27 O 0.87652 0.19609 0.30126 0.0
O28 O 0.85478 0.19238 0.35511 0.0
C29 C 0.87909 0.19511 0.37041 0.0
C30 C 0.83645 0.12807 0.27405 0.0
O31 O 0.89662 0.1724 0.37421 0.0
C32 C 0.88741 0.07618 0.33645 0.0
O33 O 0.81964 0.14767 0.33696 0.0
O34 O 0.84562 0.13728 0.37915 0.0
O35 O 0.85916 0.11105 0.2796 0.0
O36 O 0.83623 0.15558 0.28291 0.0
C37 C 0.94392 0.13362 0.33393 0.0
O38 O 0.87655 0.09229 0.35805 0.0
O39 O 0.90043 0.08867 0.31369 0.0
C40 C 0.8206 0.13722 0.36386 0.0
O41 O 0.92725 0.12615 0.35676 0.0
O42 O 0.93221 0.13896 0.30798 0.0
C43 C 0.89135 0.18829 0.27758 0.0
Fe44 Fe 0.89386 0.89242 0.29436 0.0
Fe45 Fe 0.84609 0.84813 0.31952 0.0
O46 O 0.87458 0.87603 0.32611 0.0
Fe47 Fe 0.8837 0.88676 0.36438 0.0
O48 O 0.87456 0.92693 0.35693 0.0
O49 O 0.89899 0.92991 0.31273 0.0
O50 O 0.85822 0.90723 0.27785 0.0
C51 C 0.83548 0.89027 0.27205 0.0
C52 C 0.94175 0.88385 0.33449 0.0
O53 O 0.83427 0.86326 0.28239 0.0
C54 C 0.87639 0.82463 0.37086 0.0
O55 O 0.89235 0.85739 0.27064 0.0
O56 O 0.8737 0.82256 0.30202 0.0
O57 O 0.92508 0.8931 0.35659 0.0
O58 O 0.93033 0.87874 0.30839 0.0
C59 C 0.81839 0.88293 0.36318 0.0
O60 O 0.85199 0.82745 0.35561 0.0
O61 O 0.89416 0.8472 0.37421 0.0
C62 C 0.8889 0.82947 0.27832 0.0
O63 O 0.81744 0.87265 0.33623 0.0
O64 O 0.84337 0.88233 0.37848 0.0
C65 C 0.88589 0.94272 0.33536 0.0
Fe66 Fe 0.13171 0.8846 0.36991 0.0
Fe67 Fe 0.124 0.88985 0.29959 0.0
O68 O 0.14247 0.87402 0.33201 0.0
Fe69 Fe 0.17191 0.84678 0.32658 0.0
O70 O 0.16528 0.82645 0.36266 0.0
O71 O 0.12159 0.84469 0.37904 0.0
O72 O 0.09058 0.89046 0.3607 0.0
C73 C 0.07474 0.88136 0.33796 0.0
C74 C 0.19696 0.88261 0.37082 0.0
O75 O 0.08722 0.87589 0.31245 0.0
C76 C 0.18306 0.88865 0.27908 0.0
O77 O 0.14047 0.9249 0.36275 0.0
O78 O 0.11811 0.92753 0.31734 0.0
O79 O 0.19909 0.87223 0.34399 0.0
O80 O 0.17163 0.88106 0.38549 0.0
C81 C 0.13104 0.82674 0.2842 0.0
O82 O 0.15978 0.90503 0.28406 0.0
O83 O 0.18473 0.86182 0.28976 0.0
C84 C 0.13072 0.94043 0.34021 0.0
O85 O 0.12681 0.85455 0.27644 0.0
O86 O 0.14573 0.82025 0.30832 0.0
C87 C 0.14014 0.82264 0.37638 0.0
Fe88 Fe 0.12552 0.89409 0.71894 0.0
Fe89 Fe 0.16966 0.84664 0.69296 0.0
O90 O 0.14182 0.87537 0.68686 0.0
Fe91 Fe 0.13119 0.88522 0.64871 0.0
O92 O 0.12492 0.92652 0.65711 0.0
O93 O 0.13875 0.93088 0.70554 0.0
O94 O 0.16088 0.89233 0.74233 0.0
C95 C 0.18877 0.88862 0.73455 0.0
C96 C 0.07515 0.88619 0.67806 0.0
O97 O 0.19546 0.87379 0.71063 0.0
C98 C 0.13469 0.81979 0.64915 0.0
O99 O 0.11088 0.85834 0.73499 0.0
O100 O 0.15461 0.83419 0.73006 0.0
O101 O 0.09096 0.87613 0.65587 0.0
O102 O 0.08776 0.89904 0.70096 0.0
C103 C 0.19331 0.87789 0.64242 0.0
O104 O 0.14499 0.81852 0.67605 0.0
O105 O 0.13536 0.84492 0.63399 0.0
C106 C 0.12769 0.83555 0.74064 0.0
O107 O 0.19017 0.85302 0.65684 0.0
O108 O 0.17084 0.8958 0.63935 0.0
C109 C 0.13314 0.9429 0.67984 0.0
Fe110 Fe 0.12135 0.12501 0.72025 0.0
Fe111 Fe 0.16865 0.17049 0.69638 0.0
O112 O 0.1403 0.14256 0.6889 0.0
Fe113 Fe 0.13107 0.13294 0.65031 0.0
O114 O 0.08972 0.12659 0.65805 0.0
O115 O 0.08461 0.13874 0.70693 0.0
O116 O 0.12273 0.15922 0.74502 0.0
C117 C 0.1257 0.1874 0.73825 0.0
C118 C 0.12949 0.07606 0.67802 0.0
O119 O 0.14083 0.19532 0.71478 0.0
C120 C 0.19638 0.13671 0.65179 0.0
O121 O 0.1573 0.10998 0.73588 0.0
O122 O 0.18068 0.15433 0.73297 0.0
O123 O 0.13997 0.09243 0.65645 0.0
O124 O 0.11637 0.08807 0.701 0.0
C125 C 0.13857 0.19534 0.6457 0.0
O126 O 0.19736 0.14678 0.67884 0.0
O127 O 0.17148 0.13739 0.63634 0.0
C128 C 0.18006 0.12684 0.74188 0.0
O129 O 0.16281 0.19211 0.66102 0.0
O130 O 0.12082 0.17288 0.64154 0.0
C131 C 0.07311 0.13464 0.68066 0.0
Fe132 Fe 0.89139 0.12442 0.71643 0.0
Fe133 Fe 0.84152 0.16561 0.68996 0.0
O134 O 0.87208 0.13968 0.68426 0.0
Fe135 Fe 0.88301 0.12984 0.64629 0.0
O136 O 0.87602 0.08906 0.6532 0.0
O137 O 0.89886 0.0871 0.69835 0.0
O138 O 0.8563 0.1077 0.73208 0.0
C139 C 0.83243 0.12318 0.73722 0.0
C140 C 0.94008 0.13506 0.67788 0.0
O141 O 0.82979 0.15001 0.72682 0.0
C142 C 0.87169 0.19147 0.64005 0.0
O143 O 0.8873 0.1595 0.73974 0.0
O144 O 0.86673 0.19319 0.70816 0.0
O145 O 0.92441 0.12563 0.65516 0.0
O146 O 0.92754 0.13993 0.70349 0.0
C147 C 0.81781 0.12874 0.64581 0.0
O148 O 0.84679 0.18639 0.6538 0.0
O149 O 0.89133 0.17031 0.6376 0.0
C150 C 0.88207 0.18716 0.73204 0.0
O151 O 0.81533 0.13889 0.67271 0.0
O152 O 0.84294 0.13185 0.63105 0.0
C153 C 0.88705 0.07374 0.67531 0.0
Fe154 Fe 0.89272 0.88987 0.71848 0.0
Fe155 Fe 0.8845 0.88356 0.64826 0.0
O156 O 0.87392 0.87367 0.68637 0.0
Fe157 Fe 0.84419 0.84684 0.69241 0.0
O158 O 0.83181 0.86252 0.72906 0.0
O159 O 0.85707 0.90565 0.73379 0.0
O160 O 0.89917 0.9272 0.70005 0.0
C161 C 0.88727 0.94002 0.67675 0.0
C162 C 0.8849 0.82702 0.73499 0.0
O163 O 0.87649 0.92419 0.65488 0.0
C164 C 0.87508 0.82162 0.64258 0.0
O165 O 0.92947 0.87557 0.70581 0.0
O166 O 0.92582 0.88881 0.65712 0.0
O167 O 0.87024 0.82037 0.71089 0.0
O168 O 0.88956 0.8549 0.74227 0.0
C169 C 0.81907 0.8821 0.64772 0.0
O170 O 0.89391 0.84339 0.63949 0.0
O171 O 0.85023 0.82585 0.65666 0.0
C172 C 0.94186 0.8808 0.68017 0.0
O173 O 0.84437 0.88038 0.633 0.0
O174 O 0.81708 0.87226 0.67478 0.0
C175 C 0.83365 0.88954 0.73912 0.0
Fe176 Fe 0.36924 0.13268 0.12994 0.0
Fe177 Fe 0.29913 0.12385 0.12574 0.0
O178 O 0.33142 0.14292 0.14106 0.0
Fe179 Fe 0.32582 0.17231 0.16827 0.0
O180 O 0.34263 0.19979 0.14272 0.0
O181 O 0.38429 0.17293 0.13291 0.0
O182 O 0.36132 0.14093 0.08959 0.0
C183 C 0.33923 0.12968 0.07447 0.0
C184 C 0.37655 0.1415 0.19181 0.0
O185 O 0.31675 0.11714 0.08808 0.0
C186 C 0.28401 0.13109 0.18879 0.0
O187 O 0.36042 0.09124 0.12486 0.0
O188 O 0.31247 0.08757 0.14039 0.0
O189 O 0.36209 0.16628 0.18837 0.0
O190 O 0.37924 0.12304 0.16971 0.0
C191 C 0.27834 0.18271 0.12636 0.0
O192 O 0.27601 0.12701 0.16104 0.0
O193 O 0.30812 0.14588 0.19504 0.0
C194 C 0.33808 0.07532 0.13493 0.0
O195 O 0.28336 0.15933 0.11008 0.0
O196 O 0.2888 0.18448 0.15328 0.0
C197 C 0.36932 0.19813 0.13196 0.0
Fe198 Fe 0.89232 0.2943 0.12131 0.0
Fe199 Fe 0.84644 0.31937 0.16753 0.0
O200 O 0.87491 0.32612 0.13952 0.0
Fe201 Fe 0.88538 0.36434 0.12999 0.0
O202 O 0.89213 0.35586 0.08878 0.0
O203 O 0.87936 0.30704 0.08417 0.0
O204 O 0.85788 0.26991 0.12277 0.0
C205 C 0.82977 0.27714 0.12488 0.0
C206 C 0.94184 0.33593 0.1289 0.0
O207 O 0.82186 0.3009 0.1395 0.0
C208 C 0.88049 0.36379 0.19529 0.0
O209 O 0.90678 0.27942 0.15772 0.0
O210 O 0.86206 0.28285 0.18028 0.0
O211 O 0.92571 0.35755 0.13964 0.0
O212 O 0.92939 0.31303 0.11616 0.0
C213 C 0.82292 0.37002 0.13637 0.0
O214 O 0.86983 0.33699 0.19646 0.0
O215 O 0.88061 0.37892 0.17016 0.0
C216 C 0.88961 0.27412 0.18041 0.0
O217 O 0.82542 0.35488 0.16083 0.0
O218 O 0.84577 0.37367 0.11899 0.0
C219 C 0.88479 0.33288 0.07228 0.0
Fe220 Fe 0.65139 0.88438 0.13187 0.0
Fe221 Fe 0.72158 0.88955 0.12273 0.0
O222 O 0.68947 0.87356 0.14168 0.0
Fe223 Fe 0.69546 0.84583 0.17056 0.0
O224 O 0.65923 0.82547 0.16429 0.0
O225 O 0.64183 0.8448 0.12143 0.0
O226 O 0.65977 0.89056 0.09055 0.0
C227 C 0.68238 0.88219 0.07411 0.0
C228 C 0.65184 0.88111 0.1973 0.0
O229 O 0.708 0.87622 0.08606 0.0
C230 C 0.74348 0.88761 0.18123 0.0
O231 O 0.65881 0.92455 0.14081 0.0
O232 O 0.70377 0.92731 0.11759 0.0
O233 O 0.67869 0.87073 0.19858 0.0
O234 O 0.63668 0.88035 0.17219 0.0
C235 C 0.73666 0.82632 0.12832 0.0
O236 O 0.73783 0.9043 0.15832 0.0
O237 O 0.73265 0.86078 0.18292 0.0
C238 C 0.68101 0.94013 0.13044 0.0
O239 O 0.74471 0.85412 0.1246 0.0
O240 O 0.71292 0.81981 0.14352 0.0
C241 C 0.64476 0.82237 0.13943 0.0
Fe242 Fe 0.13304 0.65152 0.13037 0.0
Fe243 Fe 0.12283 0.72155 0.12614 0.0
O244 O 0.1432 0.68963 0.14061 0.0
Fe245 Fe 0.17398 0.69565 0.16618 0.0
O246 O 0.20025 0.67924 0.13896 0.0
O247 O 0.17349 0.63704 0.13216 0.0
O248 O 0.13955 0.65911 0.08974 0.0
C249 C 0.12805 0.68131 0.07492 0.0
C250 C 0.1449 0.64461 0.19161 0.0
O251 O 0.11572 0.70387 0.08862 0.0
C252 C 0.13259 0.73623 0.18903 0.0
O253 O 0.09139 0.6594 0.12651 0.0
O254 O 0.08713 0.70735 0.14163 0.0
O255 O 0.16945 0.65915 0.18674 0.0
O256 O 0.12516 0.64213 0.1706 0.0
C257 C 0.18109 0.74439 0.12447 0.0
O258 O 0.1266 0.74432 0.16162 0.0
O259 O 0.14881 0.71283 0.19432 0.0
C260 C 0.07513 0.68164 0.13607 0.0
O261 O 0.15717 0.73864 0.10931 0.0
O262 O 0.18488 0.73304 0.15084 0.0
C263 C 0.19853 0.65206 0.12945 0.0
Fe264 Fe 0.36622 0.88109 0.88623 0.0
Fe265 Fe 0.29644 0.89187 0.89065 0.0
O266 O 0.32814 0.87205 0.87508 0.0
Fe267 Fe 0.3216 0.8432 0.84744 0.0
O268 O 0.33742 0.81493 0.8726 0.0
O269 O 0.37987 0.84035 0.88316 0.0
O270 O 0.35819 0.87299 0.92661 0.0
C271 C 0.3365 0.88489 0.94182 0.0
C272 C 0.37339 0.87243 0.82419 0.0
O273 O 0.31427 0.89791 0.9283 0.0
C274 C 0.28117 0.88599 0.82759 0.0
O275 O 0.35866 0.92277 0.89144 0.0
O276 O 0.31071 0.92785 0.87623 0.0
O277 O 0.35817 0.84809 0.82735 0.0
O278 O 0.3763 0.89064 0.84647 0.0
C279 C 0.27419 0.83361 0.88956 0.0
O280 O 0.27316 0.88961 0.85539 0.0
O281 O 0.30483 0.87061 0.82108 0.0
C282 C 0.33671 0.93933 0.88157 0.0
O283 O 0.27989 0.85666 0.90608 0.0
O284 O 0.28417 0.83208 0.86241 0.0
C285 C 0.36395 0.81571 0.88383 0.0
Fe286 Fe 0.13369 0.3639 0.88513 0.0
Fe287 Fe 0.12519 0.29399 0.89421 0.0
O288 O 0.14335 0.32535 0.87585 0.0
Fe289 Fe 0.17178 0.31785 0.84803 0.0
O290 O 0.19363 0.35287 0.85472 0.0
O291 O 0.17341 0.37256 0.89623 0.0
O292 O 0.12651 0.35579 0.92632 0.0
C293 C 0.13453 0.33305 0.94279 0.0
C294 C 0.13886 0.36297 0.81996 0.0
O295 O 0.13857 0.30686 0.93116 0.0
C296 C 0.12768 0.27328 0.8353 0.0
O297 O 0.09341 0.35789 0.87522 0.0
O298 O 0.08837 0.31349 0.89886 0.0
O299 O 0.14892 0.33593 0.81894 0.0
O300 O 0.13902 0.37819 0.84499 0.0
C301 C 0.18738 0.27531 0.89089 0.0
O302 O 0.11055 0.27902 0.85791 0.0
O303 O 0.15535 0.28165 0.83534 0.0
C304 C 0.07676 0.33627 0.8851 0.0
O305 O 0.1591 0.2688 0.89311 0.0
O306 O 0.19584 0.29888 0.87621 0.0
C307 C 0.19625 0.36832 0.87897 0.0
Fe308 Fe 0.72485 0.1218 0.89217 0.0
Fe309 Fe 0.70273 0.17057 0.84739 0.0
O310 O 0.69428 0.14232 0.87513 0.0
Fe311 Fe 0.6555 0.13452 0.8849 0.0
O312 O 0.66221 0.14279 0.92548 0.0
O313 O 0.70536 0.11677 0.92911 0.0
O314 O 0.74192 0.15674 0.9078 0.0
C315 C 0.74906 0.17931 0.89112 0.0
C316 C 0.68343 0.07549 0.88186 0.0
O317 O 0.73993 0.18082 0.86365 0.0
C318 C 0.65057 0.14287 0.82257 0.0
O319 O 0.74959 0.1228 0.85781 0.0
O320 O 0.71961 0.14217 0.82222 0.0
O321 O 0.66161 0.09273 0.89078 0.0
O322 O 0.71002 0.08608 0.87767 0.0
C323 C 0.6596 0.19977 0.88166 0.0
O324 O 0.66692 0.16648 0.82576 0.0
O325 O 0.64636 0.12497 0.84492 0.0
C326 C 0.74237 0.12589 0.82974 0.0
O327 O 0.68661 0.19973 0.87147 0.0
O328 O 0.64316 0.17551 0.88088 0.0
C329 C 0.68294 0.13043 0.94162 0.0
Fe330 Fe 0.88129 0.65038 0.88687 0.0
Fe331 Fe 0.88961 0.72059 0.89306 0.0
O332 O 0.87023 0.68851 0.8776 0.0
Fe333 Fe 0.83952 0.69447 0.85192 0.0
O334 O 0.8135 0.67693 0.87866 0.0
O335 O 0.84114 0.63516 0.8848 0.0
O336 O 0.8747 0.65661 0.92777 0.0
C337 C 0.88542 0.67869 0.94332 0.0
C338 C 0.86947 0.64458 0.82539 0.0
O339 O 0.89683 0.70217 0.9303 0.0
C340 C 0.88033 0.73636 0.83033 0.0
O341 O 0.92273 0.65917 0.89088 0.0
O342 O 0.92569 0.70777 0.87757 0.0
O343 O 0.84469 0.65854 0.83061 0.0
O344 O 0.88931 0.64214 0.84633 0.0
C345 C 0.831 0.74215 0.8945 0.0
O346 O 0.88568 0.74409 0.85798 0.0
O347 O 0.8646 0.71277 0.82437 0.0
C348 C 0.93834 0.68223 0.8822 0.0
O349 O 0.85474 0.73641 0.90992 0.0
O350 O 0.82781 0.7313 0.86787 0.0
C351 C 0.81587 0.64969 0.8879 0.0
Fe352 Fe 0.16895 0.3152 0.17123 0.0
Fe353 Fe 0.12449 0.29184 0.12281 0.0
O354 O 0.14144 0.32291 0.14264 0.0
Fe355 Fe 0.13171 0.36153 0.13383 0.0
O356 O 0.1716 0.37055 0.12389 0.0
O357 O 0.19062 0.35075 0.16589 0.0
O358 O 0.19422 0.29741 0.14351 0.0
C359 C 0.1868 0.27426 0.12776 0.0
C360 C 0.13498 0.35942 0.19915 0.0
O361 O 0.15877 0.2671 0.12446 0.0
C362 C 0.07514 0.3339 0.13063 0.0
O363 O 0.15258 0.27837 0.18256 0.0
O364 O 0.10875 0.27546 0.15807 0.0
O365 O 0.13592 0.37508 0.17439 0.0
O366 O 0.1448 0.33228 0.19988 0.0
C367 C 0.13459 0.33217 0.07551 0.0
O368 O 0.08763 0.31124 0.11733 0.0
O369 O 0.09126 0.35492 0.14249 0.0
C370 C 0.12525 0.26892 0.18094 0.0
O371 O 0.13906 0.30589 0.08675 0.0
O372 O 0.12565 0.35432 0.09228 0.0
C373 C 0.19396 0.36631 0.14174 0.0
Fe374 Fe 0.12799 0.65435 0.88416 0.0
Fe375 Fe 0.1205 0.7246 0.89265 0.0
O376 O 0.13822 0.69273 0.87473 0.0
Fe377 Fe 0.16706 0.69943 0.8471 0.0
O378 O 0.14375 0.68213 0.81782 0.0
O379 O 0.13343 0.64004 0.84397 0.0
O380 O 0.08785 0.66068 0.87422 0.0
C381 C 0.07134 0.68255 0.8837 0.0
C382 C 0.19035 0.64857 0.87835 0.0
O383 O 0.08304 0.70602 0.89624 0.0
C384 C 0.1835 0.74114 0.89031 0.0
O385 O 0.12071 0.66254 0.92525 0.0
O386 O 0.13228 0.71161 0.93008 0.0
O387 O 0.188 0.66371 0.85384 0.0
O388 O 0.16743 0.64519 0.89562 0.0
C389 C 0.1249 0.74604 0.83407 0.0
O390 O 0.15539 0.74862 0.89239 0.0
O391 O 0.19131 0.71745 0.87554 0.0
C392 C 0.12749 0.68559 0.94181 0.0
O393 O 0.1071 0.74022 0.8561 0.0
O394 O 0.1521 0.73628 0.83431 0.0
C395 C 0.13345 0.65517 0.81882 0.0
Fe396 Fe 0.29485 0.11966 0.89149 0.0
Fe397 Fe 0.31836 0.1672 0.84603 0.0
O398 O 0.326 0.13903 0.87408 0.0
Fe399 Fe 0.36455 0.13033 0.88412 0.0
O400 O 0.35714 0.08891 0.8907 0.0
O401 O 0.30863 0.08323 0.87741 0.0
O402 O 0.26988 0.1211 0.85732 0.0
C403 C 0.27649 0.12424 0.8291 0.0
C404 C 0.33673 0.12804 0.94081 0.0
O405 O 0.30006 0.13921 0.82124 0.0
C406 C 0.36274 0.19556 0.87969 0.0
O407 O 0.27907 0.15541 0.90673 0.0
O408 O 0.28183 0.17899 0.86237 0.0
O409 O 0.35781 0.13957 0.9245 0.0
O410 O 0.3142 0.11443 0.92847 0.0
C411 C 0.36941 0.13725 0.82164 0.0
O412 O 0.33574 0.19623 0.86954 0.0
O413 O 0.37829 0.17075 0.87941 0.0
C414 C 0.27316 0.17829 0.88996 0.0
O415 O 0.35371 0.16133 0.82442 0.0
O416 O 0.37376 0.11986 0.84437 0.0
C417 C 0.33497 0.07206 0.88192 0.0
Fe418 Fe 0.89545 0.29506 0.88858 0.0
Fe419 Fe 0.84462 0.32161 0.8485 0.0
O420 O 0.87573 0.32722 0.87373 0.0
Fe421 Fe 0.88673 0.36529 0.88344 0.0
O422 O 0.92805 0.35657 0.88765 0.0
O423 O 0.93147 0.30843 0.87302 0.0
O424 O 0.89122 0.27196 0.85327 0.0
C425 C 0.88469 0.2796 0.82583 0.0
C426 C 0.89049 0.33598 0.93927 0.0
O427 O 0.86903 0.30335 0.82041 0.0
C428 C 0.82153 0.36632 0.88495 0.0
O429 O 0.86086 0.2787 0.90559 0.0
O430 O 0.83283 0.28475 0.86435 0.0
O431 O 0.87983 0.3583 0.92405 0.0
O432 O 0.9027 0.31306 0.926 0.0
C433 C 0.87503 0.37135 0.82214 0.0
O434 O 0.81899 0.33911 0.87571 0.0
O435 O 0.84677 0.38075 0.88145 0.0
C436 C 0.83672 0.27335 0.89067 0.0
O437 O 0.85012 0.35759 0.82746 0.0
O438 O 0.89485 0.37409 0.84306 0.0
C439 C 0.94393 0.33394 0.87849 0.0
Fe440 Fe 0.69961 0.84717 0.84763 0.0
Fe441 Fe 0.65296 0.88472 0.88435 0.0
O442 O 0.69168 0.8759 0.87495 0.0
Fe443 Fe 0.7226 0.89584 0.89206 0.0
O444 O 0.74769 0.89407 0.85796 0.0
O445 O 0.71779 0.87468 0.82235 0.0
O446 O 0.66434 0.85258 0.82557 0.0
C447 C 0.649 0.87683 0.822 0.0
C448 C 0.74527 0.83763 0.89195 0.0
O449 O 0.6444 0.89462 0.84433 0.0
C450 C 0.68051 0.88736 0.94106 0.0
O451 O 0.68218 0.81862 0.87172 0.0
O452 O 0.63935 0.84413 0.88008 0.0
O453 O 0.73879 0.86071 0.90813 0.0
O454 O 0.7362 0.83582 0.86449 0.0
C455 C 0.68229 0.94302 0.88152 0.0
O456 O 0.65923 0.8761 0.92486 0.0
O457 O 0.70295 0.90126 0.92883 0.0
C458 C 0.65494 0.81934 0.88123 0.0
O459 O 0.66014 0.92625 0.89049 0.0
O460 O 0.70862 0.93183 0.87722 0.0
C461 C 0.74095 0.89037 0.82986 0.0
Fe462 Fe 0.88582 0.64767 0.13473 0.0
Fe463 Fe 0.89149 0.71795 0.12619 0.0
O464 O 0.87487 0.68571 0.14437 0.0
Fe465 Fe 0.84622 0.69172 0.17249 0.0
O466 O 0.87048 0.6755 0.20124 0.0
O467 O 0.88189 0.63346 0.17535 0.0
O468 O 0.92614 0.65482 0.1437 0.0
C469 C 0.94194 0.67726 0.13419 0.0
C470 C 0.82363 0.64049 0.14206 0.0
O471 O 0.9294 0.70047 0.12196 0.0
C472 C 0.82803 0.73275 0.12956 0.0
O473 O 0.892 0.656 0.09331 0.0
O474 O 0.87951 0.70487 0.08889 0.0
O475 O 0.82644 0.65518 0.16671 0.0
O476 O 0.84617 0.63812 0.12411 0.0
C477 C 0.88744 0.73906 0.18481 0.0
O478 O 0.85595 0.74087 0.12708 0.0
O479 O 0.82092 0.70885 0.14438 0.0
C480 C 0.88486 0.67912 0.07689 0.0
O481 O 0.90502 0.73364 0.16253 0.0
O482 O 0.86032 0.72908 0.18479 0.0
C483 C 0.88193 0.64906 0.20027 0.0
Fe484 Fe 0.31557 0.8462 0.16862 0.0
Fe485 Fe 0.36242 0.88373 0.13229 0.0
O486 O 0.32366 0.87528 0.14169 0.0
Fe487 Fe 0.29295 0.89588 0.12494 0.0
O488 O 0.26816 0.89414 0.15931 0.0
O489 O 0.29794 0.8735 0.19439 0.0
O490 O 0.35107 0.85083 0.19052 0.0
C491 C 0.36648 0.87496 0.19458 0.0
C492 C 0.26913 0.83801 0.12477 0.0
O493 O 0.37114 0.89315 0.1725 0.0
C494 C 0.33486 0.88747 0.07552 0.0
O495 O 0.3325 0.81785 0.14392 0.0
O496 O 0.37562 0.84306 0.13627 0.0
O497 O 0.27594 0.86114 0.10874 0.0
O498 O 0.27869 0.83557 0.152 0.0
C499 C 0.33402 0.94249 0.13534 0.0
O500 O 0.35582 0.87549 0.09169 0.0
O501 O 0.3125 0.90133 0.08801 0.0
C502 C 0.35983 0.81844 0.13462 0.0
O503 O 0.35585 0.92536 0.12638 0.0
O504 O 0.30758 0.93164 0.1399 0.0
C505 C 0.27501 0.8897 0.18731 0.0
Fe506 Fe 0.6528 0.13089 0.13198 0.0
Fe507 Fe 0.72277 0.12196 0.1247 0.0
O508 O 0.6911 0.14055 0.14198 0.0
Fe509 Fe 0.69806 0.16905 0.16987 0.0
O510 O 0.66268 0.16287 0.19129 0.0
O511 O 0.64368 0.1207 0.17192 0.0
O512 O 0.66116 0.08954 0.12603 0.0
C513 C 0.68413 0.07318 0.13373 0.0
C514 C 0.65346 0.19626 0.13565 0.0
O515 O 0.71003 0.08516 0.13855 0.0
C516 C 0.74314 0.181 0.12617 0.0
O517 O 0.65936 0.13979 0.09136 0.0
O518 O 0.70381 0.11617 0.08778 0.0
O519 O 0.68037 0.19756 0.14601 0.0
O520 O 0.63833 0.17116 0.13609 0.0
C521 C 0.7403 0.12666 0.18713 0.0
O522 O 0.73768 0.15804 0.10943 0.0
O523 O 0.73451 0.1814 0.15377 0.0
C524 C 0.68089 0.12882 0.07524 0.0
O525 O 0.74737 0.12399 0.15899 0.0
O526 O 0.7166 0.14146 0.19489 0.0
C527 C 0.64747 0.13854 0.1944 0.0
Fe528 Fe 0.66771 0.66883 0.82191 0.0
Fe529 Fe 0.62841 0.63191 0.86679 0.0
O530 O 0.63814 0.64203 0.82853 0.0
Fe531 Fe 0.61862 0.62591 0.79683 0.0
O532 O 0.65401 0.60989 0.7809 0.0
O533 O 0.67927 0.6531 0.78511 0.0
O534 O 0.69527 0.64335 0.83913 0.0
C535 C 0.69359 0.63317 0.86612 0.0
C536 C 0.6258 0.68852 0.78014 0.0
O537 O 0.66861 0.6352 0.88123 0.0
C538 C 0.57066 0.63568 0.83648 0.0
O539 O 0.66229 0.68984 0.85773 0.0
O540 O 0.61912 0.67204 0.87606 0.0
O541 O 0.6214 0.66065 0.77288 0.0
O542 O 0.6412 0.69527 0.80379 0.0
C543 C 0.62528 0.57576 0.83792 0.0
O544 O 0.58705 0.62648 0.85877 0.0
O545 O 0.58237 0.64067 0.81044 0.0
C546 C 0.63781 0.69391 0.87252 0.0
O547 O 0.63655 0.59141 0.85964 0.0
O548 O 0.61225 0.58872 0.81537 0.0
C549 C 0.67753 0.62591 0.77554 0.0
Fe550 Fe 0.34138 0.66724 0.82302 0.0
Fe551 Fe 0.38007 0.62847 0.86686 0.0
O552 O 0.37054 0.63989 0.82889 0.0
Fe553 Fe 0.39025 0.62487 0.79682 0.0
O554 O 0.3877 0.66049 0.77395 0.0
O555 O 0.36814 0.694 0.8061 0.0
O556 O 0.3471 0.68721 0.85959 0.0
C557 C 0.37174 0.69026 0.87446 0.0
C558 C 0.33205 0.62584 0.77435 0.0
O559 O 0.38989 0.66796 0.87725 0.0
C560 C 0.38354 0.57328 0.83667 0.0
O561 O 0.31354 0.64171 0.83922 0.0
O562 O 0.33962 0.63179 0.88134 0.0
O563 O 0.3552 0.60946 0.77997 0.0
O564 O 0.32972 0.65247 0.78557 0.0
C565 C 0.43791 0.63359 0.83689 0.0
O566 O 0.3717 0.58832 0.85851 0.0
O567 O 0.39639 0.58697 0.81434 0.0
C568 C 0.3146 0.63122 0.86606 0.0
O569 O 0.42158 0.62312 0.85874 0.0
O570 O 0.4262 0.63932 0.81109 0.0
C571 C 0.38351 0.68812 0.78231 0.0
Fe572 Fe 0.39626 0.39034 0.79524 0.0
Fe573 Fe 0.34852 0.3454 0.81923 0.0
O574 O 0.37703 0.37313 0.8266 0.0
Fe575 Fe 0.38616 0.38306 0.86505 0.0
O576 O 0.37717 0.42352 0.85829 0.0
O577 O 0.40196 0.42726 0.81445 0.0
O578 O 0.36055 0.40587 0.77973 0.0
C579 C 0.33752 0.38929 0.774 0.0
C580 C 0.44414 0.38041 0.83485 0.0
O581 O 0.3367 0.36172 0.78269 0.0
C582 C 0.37846 0.32068 0.87013 0.0
O583 O 0.39434 0.35616 0.77044 0.0
O584 O 0.37616 0.32032 0.80088 0.0
O585 O 0.42757 0.38922 0.85724 0.0
O586 O 0.43266 0.37599 0.80864 0.0
C587 C 0.32089 0.37934 0.86377 0.0
O588 O 0.3543 0.32385 0.85463 0.0
O589 O 0.39628 0.34314 0.87423 0.0
C590 C 0.39123 0.32803 0.77732 0.0
O591 O 0.3199 0.3693 0.83672 0.0
O592 O 0.34581 0.37873 0.87913 0.0
C593 C 0.38839 0.43971 0.83692 0.0
Fe594 Fe 0.63441 0.38699 0.86588 0.0
Fe595 Fe 0.62459 0.39119 0.79581 0.0
O596 O 0.64477 0.37669 0.82782 0.0
Fe597 Fe 0.67553 0.35115 0.82202 0.0
O598 O 0.6705 0.33059 0.85836 0.0
O599 O 0.62621 0.34683 0.87541 0.0
O600 O 0.59293 0.39116 0.85765 0.0
C601 C 0.57693 0.38082 0.83561 0.0
C602 C 0.69968 0.38792 0.8659 0.0
O603 O 0.58898 0.37541 0.80989 0.0
C604 C 0.68298 0.39289 0.77335 0.0
O605 O 0.64135 0.42744 0.85821 0.0
O606 O 0.61724 0.42877 0.81365 0.0
O607 O 0.70168 0.37832 0.83876 0.0
O608 O 0.67461 0.38499 0.88075 0.0
C609 C 0.63469 0.32832 0.78086 0.0
O610 O 0.65901 0.40809 0.77889 0.0
O611 O 0.68672 0.36658 0.78481 0.0
C612 C 0.6295 0.44242 0.83634 0.0
O613 O 0.62858 0.35574 0.77288 0.0
O614 O 0.65057 0.32303 0.8045 0.0
C615 C 0.6458 0.32573 0.87267 0.0
Fe616 Fe 0.62411 0.39192 0.21956 0.0
Fe617 Fe 0.67038 0.34562 0.19543 0.0
O618 O 0.64243 0.37398 0.18809 0.0
Fe619 Fe 0.63294 0.38372 0.14956 0.0
O620 O 0.64252 0.42412 0.15549 0.0
O621 O 0.61927 0.42882 0.20016 0.0
O622 O 0.66038 0.40663 0.23453 0.0
C623 C 0.68304 0.38956 0.24023 0.0
C624 C 0.57541 0.3827 0.18063 0.0
O625 O 0.68313 0.36195 0.23166 0.0
C626 C 0.63932 0.32112 0.1451 0.0
O627 O 0.62539 0.35787 0.24466 0.0
O628 O 0.64241 0.32131 0.21446 0.0
O629 O 0.59178 0.39065 0.15779 0.0
O630 O 0.58717 0.37848 0.20675 0.0
C631 C 0.69814 0.37889 0.15032 0.0
O632 O 0.66368 0.32385 0.16034 0.0
O633 O 0.622 0.34392 0.14095 0.0
C634 C 0.62781 0.3296 0.23813 0.0
O635 O 0.69929 0.36869 0.17732 0.0
O636 O 0.67308 0.37868 0.13515 0.0
C637 C 0.6324 0.44066 0.17709 0.0
Fe638 Fe 0.6283 0.62279 0.21754 0.0
Fe639 Fe 0.67235 0.67034 0.19146 0.0
O640 O 0.64449 0.6415 0.1854 0.0
Fe641 Fe 0.63375 0.63161 0.14735 0.0
O642 O 0.59329 0.6401 0.1546 0.0
O643 O 0.59062 0.61739 0.19979 0.0
O644 O 0.61357 0.65866 0.23319 0.0
C645 C 0.63037 0.68158 0.23849 0.0
C646 C 0.63629 0.57389 0.17861 0.0
O647 O 0.65752 0.68248 0.22858 0.0
C648 C 0.69586 0.63993 0.14056 0.0
O649 O 0.66356 0.62483 0.24081 0.0
O650 O 0.69833 0.64312 0.20909 0.0
O651 O 0.62812 0.59019 0.15577 0.0
O652 O 0.64165 0.58597 0.20435 0.0
C653 C 0.63646 0.69704 0.1482 0.0
O654 O 0.69254 0.66462 0.15511 0.0
O655 O 0.67361 0.62162 0.13798 0.0
C656 C 0.69146 0.62834 0.2331 0.0
O657 O 0.64749 0.69839 0.17481 0.0
O658 O 0.6372 0.67205 0.13282 0.0
C659 C 0.57772 0.63004 0.177 0.0
Fe660 Fe 0.39552 0.62446 0.22127 0.0
Fe661 Fe 0.34761 0.66868 0.19616 0.0
O662 O 0.37676 0.64141 0.18949 0.0
Fe663 Fe 0.38663 0.63156 0.15117 0.0
O664 O 0.37797 0.59098 0.1577 0.0
O665 O 0.40124 0.58738 0.20243 0.0
O666 O 0.35954 0.60906 0.2366 0.0
C667 C 0.33634 0.62552 0.24188 0.0
C668 C 0.44439 0.63354 0.18236 0.0
O669 O 0.33542 0.65286 0.2327 0.0
C670 C 0.37799 0.69365 0.14565 0.0
O671 O 0.39326 0.65907 0.2456 0.0
O672 O 0.37446 0.69441 0.2148 0.0
O673 O 0.42796 0.62578 0.15949 0.0
O674 O 0.43245 0.63831 0.20834 0.0
C675 C 0.32131 0.63402 0.15139 0.0
O676 O 0.35358 0.68998 0.16063 0.0
O677 O 0.39643 0.67161 0.14216 0.0
C678 C 0.38919 0.68713 0.23875 0.0
O679 O 0.31968 0.64394 0.17847 0.0
O680 O 0.3465 0.63545 0.1365 0.0
C681 C 0.38856 0.57487 0.17944 0.0
Fe682 Fe 0.3493 0.34417 0.19681 0.0
Fe683 Fe 0.39436 0.39126 0.22153 0.0
O684 O 0.37611 0.37373 0.1898 0.0
Fe685 Fe 0.38471 0.385 0.15152 0.0
O686 O 0.34434 0.37966 0.13773 0.0
O687 O 0.3193 0.36649 0.17983 0.0
O688 O 0.33658 0.35933 0.23361 0.0
C689 C 0.33571 0.38685 0.24253 0.0
C690 C 0.38005 0.32229 0.14502 0.0
O691 O 0.3578 0.40479 0.237 0.0
C692 C 0.44269 0.38357 0.18182 0.0
O693 O 0.37846 0.32045 0.21468 0.0
O694 O 0.39391 0.35675 0.24588 0.0
O695 O 0.39633 0.34588 0.14118 0.0
O696 O 0.35611 0.32347 0.16109 0.0
C697 C 0.3857 0.44121 0.18039 0.0
O698 O 0.43133 0.37875 0.20804 0.0
O699 O 0.42597 0.39218 0.15943 0.0
C700 C 0.39281 0.32863 0.2385 0.0
O701 O 0.39877 0.42863 0.20305 0.0
O702 O 0.37457 0.42511 0.15896 0.0
C703 C 0.31955 0.37791 0.15332 0.0
Fe704 Fe 0.81482 0.66864 0.67104 0.0
Fe705 Fe 0.8613 0.63073 0.63444 0.0
O706 O 0.82269 0.63997 0.64352 0.0
Fe707 Fe 0.79165 0.62076 0.62577 0.0
O708 O 0.77647 0.65648 0.61 0.0
O709 O 0.77848 0.68029 0.65417 0.0
O710 O 0.83259 0.69716 0.64722 0.0
C711 C 0.85971 0.69609 0.63739 0.0
C712 C 0.77287 0.62563 0.68787 0.0
O713 O 0.87517 0.67122 0.63855 0.0
C714 C 0.83078 0.57252 0.63566 0.0
O715 O 0.84996 0.66325 0.69324 0.0
O716 O 0.86934 0.62093 0.6747 0.0
O717 O 0.76637 0.6226 0.65963 0.0
O718 O 0.79614 0.64097 0.69596 0.0
C719 C 0.83439 0.62816 0.57708 0.0
O720 O 0.85367 0.5892 0.62845 0.0
O721 O 0.80467 0.58421 0.64006 0.0
C722 C 0.86528 0.63908 0.69691 0.0
O723 O 0.85555 0.63928 0.59362 0.0
O724 O 0.81141 0.61515 0.58918 0.0
C725 C 0.77031 0.67945 0.62644 0.0
Fe726 Fe 0.39306 0.79903 0.62881 0.0
Fe727 Fe 0.34435 0.82503 0.67157 0.0
O728 O 0.37391 0.83109 0.64448 0.0
Fe729 Fe 0.38416 0.86913 0.63402 0.0
O730 O 0.3765 0.86197 0.59336 0.0
O731 O 0.39957 0.81697 0.59134 0.0
O732 O 0.35762 0.78338 0.61301 0.0
C733 C 0.33422 0.77807 0.62916 0.0
C734 C 0.44176 0.83788 0.63802 0.0
O735 O 0.33248 0.78801 0.65627 0.0
C736 C 0.37459 0.87552 0.69599 0.0
O737 O 0.38998 0.77563 0.66394 0.0
O738 O 0.37078 0.80724 0.69826 0.0
O739 O 0.42568 0.86063 0.62919 0.0
O740 O 0.42945 0.81223 0.64332 0.0
C741 C 0.31866 0.86855 0.63528 0.0
O742 O 0.34981 0.86129 0.69199 0.0
O743 O 0.39336 0.87822 0.67412 0.0
C744 C 0.38572 0.78328 0.69177 0.0
O745 O 0.31701 0.84183 0.64601 0.0
O746 O 0.34371 0.8838 0.63668 0.0
C747 C 0.38718 0.8397 0.57805 0.0
Fe748 Fe 0.15369 0.38553 0.63273 0.0
Fe749 Fe 0.22362 0.39443 0.62485 0.0
O750 O 0.19208 0.37594 0.64251 0.0
Fe751 Fe 0.19926 0.34764 0.67058 0.0
O752 O 0.18132 0.31897 0.64709 0.0
O753 O 0.13924 0.34532 0.63724 0.0
O754 O 0.15991 0.37641 0.5922 0.0
C755 C 0.18125 0.38736 0.57583 0.0
C756 C 0.1488 0.37833 0.69517 0.0
O757 O 0.20436 0.39997 0.58806 0.0
C758 C 0.24163 0.39022 0.68715 0.0
O759 O 0.162 0.42684 0.62641 0.0
O760 O 0.21095 0.4313 0.63854 0.0
O761 O 0.16405 0.35401 0.69223 0.0
O762 O 0.14485 0.39599 0.67258 0.0
C763 C 0.24411 0.33543 0.62665 0.0
O764 O 0.2485 0.39264 0.65894 0.0
O765 O 0.21803 0.37541 0.69523 0.0
C766 C 0.185 0.44323 0.6339 0.0
O767 O 0.23846 0.35825 0.60975 0.0
O768 O 0.23558 0.33514 0.65428 0.0
C769 C 0.15436 0.32023 0.63685 0.0
Fe770 Fe 0.63073 0.14717 0.63249 0.0
Fe771 Fe 0.6228 0.21739 0.62701 0.0
O772 O 0.64198 0.1851 0.64223 0.0
Fe773 Fe 0.67285 0.19059 0.66788 0.0
O774 O 0.69865 0.17306 0.64092 0.0
O775 O 0.67067 0.13161 0.63435 0.0
O776 O 0.63765 0.15396 0.59164 0.0
C777 C 0.62746 0.17653 0.57639 0.0
C778 C 0.64233 0.14116 0.6941 0.0
O779 O 0.61539 0.19944 0.5897 0.0
C780 C 0.63292 0.2331 0.68976 0.0
O781 O 0.58945 0.15625 0.62837 0.0
O782 O 0.58646 0.20466 0.64235 0.0
O783 O 0.66737 0.15452 0.68872 0.0
O784 O 0.62253 0.13873 0.67307 0.0
C785 C 0.68197 0.23772 0.62539 0.0
O786 O 0.62711 0.24061 0.66214 0.0
O787 O 0.64812 0.20911 0.69569 0.0
C788 C 0.57378 0.17918 0.63718 0.0
O789 O 0.65789 0.23285 0.6102 0.0
O790 O 0.68483 0.2273 0.65219 0.0
C791 C 0.69584 0.14617 0.63085 0.0
Fe792 Fe 0.86653 0.38535 0.38282 0.0
Fe793 Fe 0.79664 0.39535 0.38984 0.0
O794 O 0.82806 0.37628 0.37265 0.0
Fe795 Fe 0.8208 0.34802 0.3446 0.0
O796 O 0.83807 0.31921 0.36844 0.0
O797 O 0.8805 0.34499 0.37823 0.0
O798 O 0.85981 0.37606 0.42318 0.0
C799 C 0.83803 0.38651 0.43927 0.0
C800 C 0.87167 0.37831 0.32037 0.0
O801 O 0.81554 0.4002 0.42698 0.0
C802 C 0.77917 0.39105 0.32726 0.0
O803 O 0.85884 0.42669 0.38946 0.0
O804 O 0.81031 0.43199 0.3762 0.0
O805 O 0.85636 0.354 0.32335 0.0
O806 O 0.87571 0.3959 0.343 0.0
C807 C 0.77489 0.3367 0.38788 0.0
O808 O 0.77218 0.39407 0.35538 0.0
O809 O 0.80266 0.37589 0.31958 0.0
C810 C 0.83648 0.44341 0.38099 0.0
O811 O 0.78073 0.35949 0.40473 0.0
O812 O 0.78409 0.33596 0.36047 0.0
C813 C 0.86501 0.32012 0.37877 0.0
Fe814 Fe 0.62976 0.86213 0.38432 0.0
Fe815 Fe 0.62068 0.79202 0.39105 0.0
O816 O 0.6397 0.82383 0.37444 0.0
Fe817 Fe 0.66882 0.81726 0.34716 0.0
O818 O 0.69673 0.83481 0.37195 0.0
O819 O 0.66995 0.87678 0.38042 0.0
O820 O 0.6382 0.85557 0.42481 0.0
C821 C 0.6275 0.83377 0.44074 0.0
C822 C 0.63815 0.86769 0.32224 0.0
O823 O 0.61493 0.81073 0.42821 0.0
C824 C 0.62679 0.77526 0.32839 0.0
O825 O 0.58848 0.85384 0.39006 0.0
O826 O 0.58412 0.80523 0.3769 0.0
O827 O 0.66274 0.85291 0.32579 0.0
O828 O 0.6199 0.8711 0.3444 0.0
C829 C 0.6794 0.77051 0.39013 0.0
O830 O 0.62296 0.76791 0.35635 0.0
O831 O 0.64194 0.79895 0.32137 0.0
C832 C 0.57219 0.83116 0.38164 0.0
O833 O 0.6563 0.77624 0.40658 0.0
O834 O 0.681 0.78054 0.36302 0.0
C835 C 0.69515 0.8619 0.38178 0.0
Fe836 Fe 0.22124 0.62193 0.39049 0.0
Fe837 Fe 0.19799 0.66991 0.34542 0.0
O838 O 0.19018 0.64121 0.37292 0.0
Fe839 Fe 0.1516 0.63183 0.38218 0.0
O840 O 0.15748 0.6405 0.42282 0.0
O841 O 0.20143 0.61594 0.42693 0.0
O842 O 0.23623 0.6575 0.40661 0.0
C843 C 0.24212 0.68074 0.39041 0.0
C844 C 0.18209 0.57398 0.37976 0.0
O845 O 0.23417 0.68173 0.36259 0.0
C846 C 0.14763 0.63997 0.31975 0.0
O847 O 0.24666 0.62419 0.35684 0.0
O848 O 0.21691 0.64242 0.32048 0.0
O849 O 0.15947 0.59039 0.38823 0.0
O850 O 0.20824 0.58566 0.37561 0.0
C851 C 0.15298 0.69711 0.37916 0.0
O852 O 0.16292 0.66422 0.32321 0.0
O853 O 0.14352 0.62194 0.34204 0.0
C854 C 0.24019 0.62713 0.32861 0.0
O855 O 0.18003 0.69831 0.36917 0.0
O856 O 0.13756 0.67222 0.37801 0.0
C857 C 0.17898 0.62975 0.43908 0.0
Fe858 Fe 0.38545 0.15094 0.38263 0.0
Fe859 Fe 0.39301 0.22058 0.39315 0.0
O860 O 0.37566 0.18948 0.37375 0.0
Fe861 Fe 0.34776 0.19727 0.34543 0.0
O862 O 0.32607 0.16178 0.35068 0.0
O863 O 0.3454 0.14213 0.39255 0.0
O864 O 0.39136 0.15834 0.42421 0.0
C865 C 0.38277 0.18076 0.44086 0.0
C866 C 0.38201 0.15323 0.31734 0.0
O867 O 0.37859 0.20705 0.42947 0.0
C868 C 0.39194 0.24214 0.33454 0.0
O869 O 0.42615 0.15737 0.37405 0.0
O870 O 0.42974 0.20117 0.39885 0.0
O871 O 0.37149 0.18009 0.31656 0.0
O872 O 0.38141 0.13744 0.34204 0.0
C873 C 0.33082 0.23871 0.38884 0.0
O874 O 0.4086 0.23612 0.35745 0.0
O875 O 0.36423 0.23388 0.33398 0.0
C876 C 0.4423 0.17852 0.3857 0.0
O877 O 0.35899 0.24558 0.39144 0.0
O878 O 0.32286 0.21541 0.37349 0.0
C879 C 0.32294 0.14611 0.37473 0.0
Fe880 Fe 0.63215 0.86529 0.63112 0.0
Fe881 Fe 0.67181 0.81964 0.66727 0.0
O882 O 0.64204 0.82683 0.64069 0.0
Fe883 Fe 0.62295 0.79511 0.62393 0.0
O884 O 0.63408 0.80709 0.58602 0.0
O885 O 0.62407 0.85663 0.5902 0.0
O886 O 0.67149 0.87389 0.61872 0.0
C887 C 0.69498 0.8699 0.63507 0.0
C888 C 0.57486 0.83811 0.63325 0.0
O889 O 0.69333 0.85464 0.6595 0.0
C890 C 0.62855 0.77521 0.6829 0.0
O891 O 0.63842 0.87978 0.67116 0.0
O892 O 0.65029 0.83784 0.69713 0.0
O893 O 0.58588 0.81435 0.62076 0.0
O894 O 0.592 0.85982 0.64197 0.0
C895 C 0.6854 0.77674 0.62434 0.0
O896 O 0.65619 0.78346 0.68116 0.0
O897 O 0.61024 0.78087 0.66124 0.0
C898 C 0.6396 0.86463 0.69629 0.0
O899 O 0.69449 0.80057 0.63813 0.0
O900 O 0.65704 0.77009 0.62371 0.0
C901 C 0.62983 0.83305 0.57393 0.0
Fe902 Fe 0.63303 0.1523 0.38488 0.0
Fe903 Fe 0.62515 0.22223 0.39445 0.0
O904 O 0.64298 0.19084 0.37586 0.0
Fe905 Fe 0.67139 0.19825 0.34791 0.0
O906 O 0.64814 0.18077 0.31876 0.0
O907 O 0.63797 0.13836 0.34451 0.0
O908 O 0.59255 0.15858 0.37541 0.0
C909 C 0.57602 0.17985 0.38627 0.0
C910 C 0.69558 0.14744 0.37833 0.0
O911 O 0.5881 0.20305 0.39896 0.0
C912 C 0.68776 0.24027 0.39088 0.0
O913 O 0.62619 0.16002 0.4262 0.0
O914 O 0.63791 0.20901 0.43162 0.0
O915 O 0.69282 0.16288 0.35409 0.0
O916 O 0.6728 0.14331 0.39571 0.0
C917 C 0.62807 0.24361 0.33562 0.0
O918 O 0.65953 0.24698 0.39358 0.0
O919 O 0.6958 0.21661 0.37614 0.0
C920 C 0.63304 0.18283 0.44311 0.0
O921 O 0.61081 0.23772 0.35812 0.0
O922 O 0.65557 0.23483 0.3356 0.0
C923 C 0.63787 0.15379 0.31957 0.0
Fe924 Fe 0.82186 0.67255 0.34905 0.0
Fe925 Fe 0.86595 0.63434 0.38805 0.0
O926 O 0.82794 0.64357 0.37662 0.0
Fe927 Fe 0.79601 0.62372 0.3918 0.0
O928 O 0.77314 0.62592 0.35615 0.0
O929 O 0.80516 0.64551 0.32248 0.0
O930 O 0.85845 0.66698 0.32906 0.0
C931 C 0.87331 0.64234 0.32606 0.0
C932 C 0.77321 0.68185 0.39049 0.0
O933 O 0.87633 0.62439 0.34853 0.0
C934 C 0.8358 0.631 0.44334 0.0
O935 O 0.83784 0.70064 0.37438 0.0
O936 O 0.88009 0.67489 0.38457 0.0
O937 O 0.77896 0.65878 0.407 0.0
O938 O 0.78434 0.68406 0.36379 0.0
C939 C 0.83641 0.57624 0.38332 0.0
O940 O 0.8576 0.64282 0.42822 0.0
O941 O 0.81358 0.61793 0.42974 0.0
C942 C 0.86456 0.69976 0.38513 0.0
O943 O 0.85815 0.59277 0.39364 0.0
O944 O 0.81053 0.58776 0.37759 0.0
C945 C 0.7815 0.63 0.32848 0.0
Fe946 Fe 0.39021 0.79428 0.39586 0.0
Fe947 Fe 0.34237 0.81891 0.35138 0.0
O948 O 0.37219 0.82599 0.37792 0.0
Fe949 Fe 0.38323 0.86439 0.38632 0.0
O950 O 0.4231 0.85732 0.37556 0.0
O951 O 0.4277 0.81262 0.39875 0.0
O952 O 0.40277 0.7786 0.35903 0.0
C953 C 0.38452 0.77287 0.33732 0.0
C954 C 0.38436 0.83395 0.44464 0.0
O955 O 0.3571 0.78197 0.33852 0.0
C956 C 0.32064 0.87051 0.38237 0.0
O957 O 0.35551 0.7702 0.39648 0.0
O958 O 0.31902 0.80122 0.38088 0.0
O959 O 0.39114 0.85669 0.42752 0.0
O960 O 0.37915 0.80777 0.4334 0.0
C961 C 0.37564 0.86235 0.32109 0.0
O962 O 0.32183 0.85469 0.35826 0.0
O963 O 0.34425 0.87435 0.39854 0.0
C964 C 0.32734 0.77746 0.39528 0.0
O965 O 0.36446 0.83575 0.32106 0.0
O966 O 0.37728 0.87805 0.34585 0.0
C967 C 0.43947 0.8354 0.38517 0.0
Fe968 Fe 0.19694 0.34498 0.34847 0.0
Fe969 Fe 0.15224 0.38391 0.38609 0.0
O970 O 0.19044 0.37399 0.37588 0.0
Fe971 Fe 0.22228 0.39284 0.39247 0.0
O972 O 0.24645 0.39037 0.35789 0.0
O973 O 0.21541 0.37197 0.32264 0.0
O974 O 0.16129 0.35103 0.32739 0.0
C975 C 0.14631 0.37548 0.324 0.0
C976 C 0.24291 0.33375 0.3915 0.0
O977 O 0.14295 0.39376 0.34617 0.0
C978 C 0.18068 0.38649 0.4424 0.0
O979 O 0.17939 0.31703 0.37328 0.0
O980 O 0.13758 0.34386 0.38237 0.0
O981 O 0.23765 0.35695 0.40803 0.0
O982 O 0.23354 0.33279 0.36418 0.0
C983 C 0.18319 0.44129 0.38255 0.0
O984 O 0.15907 0.37534 0.42658 0.0
O985 O 0.2036 0.39899 0.42958 0.0
C986 C 0.15254 0.31876 0.38377 0.0
O987 O 0.16068 0.42516 0.39173 0.0
O988 O 0.2092 0.42941 0.37807 0.0
C989 C 0.23919 0.38696 0.32987 0.0
Fe990 Fe 0.34574 0.1962 0.66844 0.0
Fe991 Fe 0.38391 0.15016 0.63146 0.0
O992 O 0.37418 0.18872 0.64062 0.0
Fe993 Fe 0.3922 0.22007 0.62212 0.0
O994 O 0.40668 0.23535 0.65837 0.0
O995 O 0.36188 0.23262 0.68089 0.0
O996 O 0.3688 0.17847 0.69756 0.0
C997 C 0.37898 0.15148 0.69667 0.0
C998 C 0.32982 0.23834 0.62536 0.0
O999 O 0.3787 0.13608 0.67174 0.0
C1000 C 0.38305 0.18074 0.57365 0.0
O1001 O 0.32411 0.16097 0.66205 0.0
O1002 O 0.34417 0.14146 0.62042 0.0
O1003 O 0.35808 0.24501 0.62302 0.0
O1004 O 0.32153 0.21481 0.64018 0.0
C1005 C 0.44082 0.17786 0.63129 0.0
O1006 O 0.39101 0.15806 0.59023 0.0
O1007 O 0.37899 0.20697 0.58518 0.0
C1008 C 0.32136 0.14567 0.63773 0.0
O1009 O 0.4242 0.15624 0.64123 0.0
O1010 O 0.42916 0.20074 0.61769 0.0
C1011 C 0.38947 0.2412 0.6809 0.0
Fe1012 Fe 0.86161 0.38243 0.63096 0.0
Fe1013 Fe 0.79203 0.39079 0.61972 0.0
O1014 O 0.82281 0.37331 0.63959 0.0
Fe1015 Fe 0.81461 0.34585 0.66821 0.0
O1016 O 0.83166 0.3699 0.69689 0.0
O1017 O 0.87477 0.37816 0.6717 0.0
O1018 O 0.85567 0.42307 0.6395 0.0
C1019 C 0.83428 0.4395 0.62875 0.0
C1020 C 0.86567 0.32011 0.63938 0.0
O1021 O 0.81168 0.42757 0.6149 0.0
C1022 C 0.7739 0.32848 0.62436 0.0
O1023 O 0.85477 0.3886 0.58932 0.0
O1024 O 0.80599 0.37668 0.58348 0.0
O1025 O 0.85006 0.32379 0.66342 0.0
O1026 O 0.86981 0.34228 0.6212 0.0
C1027 C 0.7688 0.38994 0.67771 0.0
O1028 O 0.76707 0.3566 0.62094 0.0
O1029 O 0.79681 0.32078 0.64034 0.0
C1030 C 0.83227 0.38118 0.57225 0.0
O1031 O 0.7757 0.4064 0.65496 0.0
O1032 O 0.77779 0.36247 0.67927 0.0
C1033 C 0.85887 0.3795 0.69632 0.0
Fe1034 Fe 0.19893 0.67043 0.66777 0.0
Fe1035 Fe 0.15357 0.63258 0.62989 0.0
O1036 O 0.19198 0.64261 0.63925 0.0
Fe1037 Fe 0.22355 0.62555 0.62027 0.0
O1038 O 0.23942 0.61057 0.65606 0.0
O1039 O 0.23563 0.65457 0.67999 0.0
O1040 O 0.1815 0.64631 0.69638 0.0
C1041 C 0.15441 0.63641 0.69524 0.0
C1042 C 0.24074 0.68821 0.6251 0.0
O1043 O 0.13929 0.6373 0.67015 0.0
C1044 C 0.18406 0.63405 0.57194 0.0
O1045 O 0.16336 0.69182 0.66148 0.0
O1046 O 0.14458 0.67229 0.61926 0.0
O1047 O 0.2479 0.66017 0.62175 0.0
O1048 O 0.21714 0.69559 0.6402 0.0
C1049 C 0.18197 0.57616 0.62883 0.0
O1050 O 0.16149 0.626 0.58862 0.0
O1051 O 0.21008 0.6391 0.58356 0.0
C1052 C 0.14835 0.69486 0.63694 0.0
O1053 O 0.16018 0.59228 0.6392 0.0
O1054 O 0.20468 0.58838 0.61538 0.0
C1055 C 0.24528 0.62731 0.67889 0.0
C1056 C 0.13554 0.02191 0.31072 0.0
C1057 C 0.13657 0.03938 0.33785 0.0
H1058 H 0.13263 0.97745 0.29037 0.0
C1059 C 0.13639 0.02389 0.36624 0.0
H1060 H 0.13555 0.03291 0.28841 0.0
C1061 C 0.13511 0.99163 0.36734 0.0
C1062 C 0.13327 0.97441 0.34007 0.0
H1063 H 0.13721 0.03666 0.38755 0.0
H1064 H 0.13489 0.98025 0.38945 0.0
C1065 C 0.13366 0.98999 0.31183 0.0
C1066 C 0.02588 0.13294 0.36506 0.0
C1067 C 0.04291 0.12952 0.33778 0.0
H1068 H 0.98099 0.13645 0.38547 0.0
C1069 C 0.02709 0.12787 0.30975 0.0
H1070 H 0.03744 0.13431 0.38702 0.0
C1071 C 0.9952 0.12959 0.30883 0.0
C1072 C 0.97795 0.13256 0.33596 0.0
H1073 H 0.0394 0.12554 0.28826 0.0
H1074 H 0.98404 0.12817 0.28665 0.0
C1075 C 0.99361 0.1341 0.36418 0.0
C1076 C 0.87222 0.02555 0.36124 0.0
C1077 C 0.88686 0.04202 0.33757 0.0
H1078 H 0.86027 0.9811 0.37928 0.0
C1079 C 0.90108 0.02544 0.3138 0.0
H1080 H 0.86097 0.03757 0.37985 0.0
C1081 C 0.90066 0.99352 0.31344 0.0
C1082 C 0.88602 0.97686 0.33686 0.0
H1083 H 0.91264 0.03709 0.2951 0.0
H1084 H 0.91191 0.98194 0.29453 0.0
C1085 C 0.87181 0.99322 0.36089 0.0
C1086 C 0.99162 0.89425 0.36268 0.0
C1087 C 0.97562 0.88118 0.33782 0.0
H1088 H 0.03568 0.90464 0.38244 0.0
C1089 C 0.99251 0.86627 0.31473 0.0
H1090 H 0.97929 0.90581 0.38091 0.0
C1091 C 0.02445 0.86556 0.31563 0.0
C1092 C 0.04068 0.87975 0.33963 0.0
H1093 H 0.98107 0.85548 0.29547 0.0
H1094 H 0.03646 0.85429 0.29699 0.0
C1095 C 0.0239 0.89356 0.36357 0.0
C1096 C 0.13323 0.99303 0.64995 0.0
C1097 C 0.13316 0.97701 0.67807 0.0
H1098 H 0.13272 0.03723 0.62763 0.0
C1099 C 0.13282 0.99402 0.7055 0.0
H1100 H 0.13362 0.98062 0.62842 0.0
C1101 C 0.13191 0.02593 0.70503 0.0
C1102 C 0.13174 0.04208 0.67714 0.0
H1103 H 0.13273 0.98268 0.72765 0.0
H1104 H 0.13138 0.03803 0.72676 0.0
C1105 C 0.13285 0.02537 0.64949 0.0
C1106 C 0.02327 0.12457 0.65237 0.0
C1107 C 0.03919 0.13703 0.67759 0.0
H1108 H 0.97931 0.11409 0.63247 0.0
C1109 C 0.02218 0.15088 0.70125 0.0
H1110 H 0.03568 0.11383 0.63371 0.0
C1111 C 0.99021 0.15112 0.70051 0.0
C1112 C 0.9741 0.13745 0.67612 0.0
H1113 H 0.03356 0.16117 0.72082 0.0
H1114 H 0.97811 0.16153 0.71958 0.0
C1115 C 0.99099 0.12475 0.65165 0.0
C1116 C 0.8737 0.02275 0.65043 0.0
C1117 C 0.88759 0.03951 0.67435 0.0
H1118 H 0.86258 0.97821 0.63224 0.0
C1119 C 0.90168 0.02314 0.69836 0.0
H1120 H 0.86255 0.03456 0.63161 0.0
C1121 C 0.90168 0.99113 0.69873 0.0
C1122 C 0.88759 0.97422 0.6751 0.0
H1123 H 0.91267 0.03505 0.71721 0.0
H1124 H 0.91269 0.97964 0.71784 0.0
C1125 C 0.8737 0.99044 0.6508 0.0
C1126 C 0.99204 0.88048 0.6506 0.0
C1127 C 0.97601 0.88107 0.67868 0.0
H1128 H 0.03611 0.8811 0.6282 0.0
C1129 C 0.99302 0.8827 0.70609 0.0
H1130 H 0.97966 0.87917 0.62908 0.0
C1131 C 0.02498 0.88432 0.70555 0.0
C1132 C 0.04111 0.88386 0.67763 0.0
H1133 H 0.98162 0.8833 0.72818 0.0
H1134 H 0.03711 0.88581 0.72722 0.0
C1135 C 0.02433 0.88151 0.6501 0.0
C1136 C 0.31586 0.11466 0.02425 0.0
C1137 C 0.33978 0.12926 0.04025 0.0
H1138 H 0.29625 0.10281 0.98109 0.0
C1139 C 0.3633 0.14344 0.02315 0.0
H1140 H 0.2973 0.10345 0.03643 0.0
C1141 C 0.36268 0.14308 0.99082 0.0
C1142 C 0.33855 0.12851 0.97499 0.0
H1143 H 0.38203 0.15498 0.0347 0.0
H1144 H 0.38097 0.15433 0.97828 0.0
C1145 C 0.31527 0.11428 0.99226 0.0
C1146 C 0.88525 0.36347 0.99017 0.0
C1147 C 0.88922 0.33618 0.97331 0.0
H1148 H 0.88116 0.38405 0.03492 0.0
C1149 C 0.89154 0.30829 0.9893 0.0
H1150 H 0.88336 0.38533 0.97848 0.0
C1151 C 0.88978 0.30752 0.02122 0.0
C1152 C 0.88611 0.33468 0.03826 0.0
H1153 H 0.89434 0.2868 0.97711 0.0
H1154 H 0.89166 0.28546 0.03256 0.0
C1155 C 0.88404 0.36276 0.02243 0.0
C1156 C 0.7076 0.88618 0.99118 0.0
C1157 C 0.67976 0.88515 0.97503 0.0
H1158 H 0.73015 0.88579 0.03448 0.0
C1159 C 0.65219 0.88252 0.99171 0.0
H1160 H 0.72927 0.88791 0.97909 0.0
C1161 C 0.65263 0.88171 0.02403 0.0
C1162 C 0.68068 0.8828 0.04004 0.0
H1163 H 0.63038 0.88169 0.97984 0.0
H1164 H 0.63115 0.88007 0.03644 0.0
C1165 C 0.70808 0.88479 0.02309 0.0
C1166 C 0.13117 0.65525 0.99128 0.0
C1167 C 0.12741 0.68337 0.97583 0.0
H1168 H 0.13487 0.63239 0.03497 0.0
C1169 C 0.12387 0.71027 0.99327 0.0
H1170 H 0.13408 0.63415 0.97847 0.0
C1171 C 0.12396 0.70923 0.02521 0.0
C1172 C 0.12798 0.68132 0.04084 0.0
H1173 H 0.12079 0.73235 0.98224 0.0
H1174 H 0.12119 0.73056 0.03769 0.0
C1175 C 0.13177 0.65427 0.02357 0.0
C1176 C 0.36051 0.87089 0.99311 0.0
C1177 C 0.3373 0.88559 0.97605 0.0
H1178 H 0.37814 0.85984 0.03793 0.0
C1179 C 0.31397 0.90107 0.9921 0.0
H1180 H 0.3788 0.85869 0.98153 0.0
C1181 C 0.31362 0.90176 0.02411 0.0
C1182 C 0.33656 0.88697 0.04132 0.0
H1183 H 0.29568 0.91272 0.97996 0.0
H1184 H 0.29504 0.91387 0.03532 0.0
C1185 C 0.36013 0.87156 0.02543 0.0
C1186 C 0.12294 0.35973 0.99316 0.0
C1187 C 0.13701 0.33576 0.97667 0.0
H1188 H 0.11102 0.37757 0.03769 0.0
C1189 C 0.15247 0.3127 0.99304 0.0
H1190 H 0.11095 0.3779 0.98118 0.0
C1191 C 0.15257 0.31254 0.02498 0.0
C1192 C 0.13716 0.33542 0.04167 0.0
H1193 H 0.16407 0.29419 0.98116 0.0
H1194 H 0.16422 0.29389 0.03661 0.0
C1195 C 0.123 0.35954 0.02548 0.0
C1196 C 0.65772 0.1457 0.99206 0.0
C1197 C 0.68077 0.12987 0.97578 0.0
H1198 H 0.63942 0.15792 0.03639 0.0
C1199 C 0.70277 0.11333 0.99259 0.0
H1200 H 0.6404 0.1587 0.97986 0.0
C1201 C 0.70218 0.11286 0.02453 0.0
C1202 C 0.67957 0.12893 0.04104 0.0
H1203 H 0.72083 0.1007 0.98109 0.0
H1204 H 0.71983 0.09988 0.03627 0.0
C1205 C 0.65712 0.14523 0.02443 0.0
C1206 C 0.88928 0.70498 0.99401 0.0
C1207 C 0.88543 0.67758 0.97749 0.0
H1208 H 0.89202 0.72681 0.03763 0.0
C1209 C 0.88162 0.65 0.99403 0.0
H1210 H 0.89211 0.72669 0.98221 0.0
C1211 C 0.88191 0.65 0.0264 0.0
C1212 C 0.88539 0.67765 0.04273 0.0
H1213 H 0.87864 0.62846 0.98199 0.0
H1214 H 0.87894 0.62853 0.03859 0.0
C1215 C 0.88907 0.70504 0.02599 0.0
C1216 C 0.99251 0.35977 0.14533 0.0
C1217 C 0.97596 0.33721 0.12914 0.0
H1218 H 0.03702 0.37658 0.1587 0.0
C1219 C 0.99245 0.31451 0.11319 0.0
H1220 H 0.98054 0.37754 0.15791 0.0
C1221 C 0.02433 0.31394 0.11366 0.0
C1222 C 0.04107 0.33605 0.13008 0.0
H1223 H 0.98074 0.29679 0.10028 0.0
H1224 H 0.03582 0.29582 0.10111 0.0
C1225 C 0.02483 0.35919 0.1458 0.0
C1226 C 0.02095 0.70873 0.87923 0.0
C1227 C 0.03745 0.68116 0.88121 0.0
H1228 H 0.97738 0.73059 0.87755 0.0
C1229 C 0.02116 0.65327 0.88207 0.0
H1230 H 0.03279 0.73059 0.87821 0.0
C1231 C 0.98885 0.65321 0.88213 0.0
C1232 C 0.97243 0.68102 0.88071 0.0
H1233 H 0.03332 0.63166 0.88363 0.0
H1234 H 0.97678 0.63152 0.88353 0.0
C1235 C 0.98903 0.70866 0.87875 0.0
C1236 C 0.36225 0.02218 0.89428 0.0
C1237 C 0.33852 0.03826 0.87932 0.0
H1238 H 0.3805 0.97798 0.90686 0.0
C1239 C 0.31647 0.02148 0.86287 0.0
H1240 H 0.37966 0.03447 0.90706 0.0
C1241 C 0.31703 0.98954 0.86265 0.0
C1242 C 0.33959 0.97323 0.87897 0.0
H1243 H 0.2982 0.03304 0.8506 0.0
H1244 H 0.29911 0.97759 0.85022 0.0
C1245 C 0.36276 0.98986 0.89414 0.0
C1246 C 0.99385 0.36383 0.87967 0.0
C1247 C 0.97802 0.33566 0.87804 0.0
H1248 H 0.03779 0.38636 0.88261 0.0
C1249 C 0.99517 0.30835 0.87729 0.0
H1250 H 0.98133 0.38528 0.88018 0.0
C1251 C 0.02707 0.30898 0.8792 0.0
C1252 C 0.04295 0.33694 0.88139 0.0
H1253 H 0.98395 0.2862 0.87604 0.0
H1254 H 0.03937 0.28737 0.87909 0.0
C1255 C 0.02612 0.36447 0.88097 0.0
C1256 C 0.65591 0.99328 0.89425 0.0
C1257 C 0.67896 0.97681 0.87868 0.0
H1258 H 0.63904 0.03779 0.90758 0.0
C1259 C 0.70094 0.99321 0.86172 0.0
H1260 H 0.6386 0.98126 0.90744 0.0
C1261 C 0.70117 0.02514 0.86177 0.0
C1262 C 0.67944 0.04179 0.87882 0.0
H1263 H 0.71868 0.98133 0.84897 0.0
H1264 H 0.71909 0.03682 0.84906 0.0
C1265 C 0.65615 0.0256 0.89432 0.0
C1266 C 0.02556 0.65093 0.13573 0.0
C1267 C 0.04103 0.67929 0.13733 0.0
H1268 H 0.98186 0.62778 0.13406 0.0
C1269 C 0.02346 0.7063 0.13925 0.0
H1270 H 0.03837 0.62969 0.13435 0.0
C1271 C 0.99152 0.70521 0.13862 0.0
C1272 C 0.97594 0.67708 0.13655 0.0
H1273 H 0.03437 0.72861 0.14054 0.0
H1274 H 0.97893 0.72664 0.13966 0.0
C1275 C 0.99325 0.64981 0.13568 0.0
C1276 C 0.36232 0.99191 0.12325 0.0
C1277 C 0.33801 0.97629 0.13779 0.0
H1278 H 0.38162 0.03569 0.11079 0.0
C1279 C 0.31581 0.99356 0.15353 0.0
H1280 H 0.37984 0.97925 0.11099 0.0
C1281 C 0.31686 0.02551 0.15348 0.0
C1282 C 0.3401 0.04135 0.13762 0.0
H1283 H 0.29704 0.98239 0.16544 0.0
H1284 H 0.29883 0.03783 0.16537 0.0
C1285 C 0.36335 0.02421 0.12314 0.0
C1286 C 0.70951 0.02192 0.13214 0.0
C1287 C 0.68225 0.03912 0.13374 0.0
H1288 H 0.73031 0.9777 0.12972 0.0
C1289 C 0.65407 0.02337 0.13493 0.0
H1290 H 0.73169 0.03312 0.13111 0.0
C1291 C 0.65334 0.99108 0.13451 0.0
C1292 C 0.68074 0.97412 0.13225 0.0
H1293 H 0.63268 0.03594 0.13628 0.0
H1294 H 0.63139 0.97944 0.13536 0.0
C1295 C 0.70875 0.99 0.13118 0.0
C1296 C 0.61301 0.4929 0.81442 0.0
C1297 C 0.62811 0.47651 0.83774 0.0
H1298 H 0.60017 0.53647 0.79631 0.0
C1299 C 0.64194 0.49311 0.86181 0.0
H1300 H 0.60205 0.48104 0.79551 0.0
C1301 C 0.64085 0.52534 0.8623 0.0
C1302 C 0.6259 0.54161 0.83873 0.0
H1303 H 0.65382 0.48124 0.88015 0.0
H1304 H 0.65196 0.53747 0.88094 0.0
C1305 C 0.61191 0.52488 0.81491 0.0
C1306 C 0.48843 0.62235 0.86345 0.0
C1307 C 0.47176 0.63659 0.83972 0.0
H1308 H 0.53302 0.61085 0.88122 0.0
C1309 C 0.48799 0.65266 0.81687 0.0
H1310 H 0.47662 0.60989 0.88144 0.0
C1311 C 0.51993 0.65315 0.8167 0.0
C1312 C 0.53677 0.63769 0.83942 0.0
H1313 H 0.47601 0.66438 0.79849 0.0
H1314 H 0.53146 0.66519 0.79822 0.0
C1315 C 0.52071 0.62292 0.86331 0.0
C1316 C 0.37089 0.52214 0.86163 0.0
C1317 C 0.38461 0.5391 0.83771 0.0
H1318 H 0.36122 0.47744 0.88037 0.0
C1319 C 0.39968 0.52299 0.81417 0.0
H1320 H 0.35905 0.53377 0.88013 0.0
C1321 C 0.40098 0.49101 0.81436 0.0
C1322 C 0.38723 0.4739 0.83807 0.0
H1323 H 0.41056 0.53506 0.79534 0.0
H1324 H 0.41276 0.47973 0.7956 0.0
C1325 C 0.37216 0.48986 0.8618 0.0
C1326 C 0.52648 0.39198 0.86225 0.0
C1327 C 0.54304 0.37807 0.83822 0.0
H1328 H 0.482 0.4037 0.88023 0.0
C1329 C 0.52667 0.36281 0.81499 0.0
H1330 H 0.5384 0.40385 0.88055 0.0
C1331 C 0.49472 0.36276 0.8148 0.0
C1332 C 0.47801 0.37794 0.83785 0.0
H1333 H 0.53856 0.35141 0.79636 0.0
H1334 H 0.48308 0.3513 0.79604 0.0
C1335 C 0.4942 0.39189 0.86208 0.0
C1336 C 0.63583 0.49079 0.20394 0.0
C1337 C 0.63499 0.47463 0.17609 0.0
H1338 H 0.63719 0.53405 0.22648 0.0
C1339 C 0.63562 0.49134 0.14841 0.0
H1340 H 0.6357 0.4787 0.22569 0.0
C1341 C 0.63606 0.5237 0.14881 0.0
C1342 C 0.63655 0.53974 0.17689 0.0
H1343 H 0.63496 0.47948 0.12657 0.0
H1344 H 0.63598 0.53609 0.12725 0.0
C1345 C 0.63681 0.52272 0.20435 0.0
C1346 C 0.52821 0.63203 0.20559 0.0
C1347 C 0.54364 0.63222 0.17725 0.0
H1348 H 0.48545 0.63268 0.22935 0.0
C1349 C 0.52614 0.63383 0.15013 0.0
H1350 H 0.54089 0.63113 0.22697 0.0
C1351 C 0.49384 0.63432 0.15148 0.0
C1352 C 0.47852 0.63387 0.17999 0.0
H1353 H 0.53736 0.63402 0.12794 0.0
H1354 H 0.4809 0.63505 0.13027 0.0
C1355 C 0.49625 0.63307 0.20695 0.0
C1356 C 0.40117 0.52387 0.20228 0.0
C1357 C 0.3877 0.54067 0.17825 0.0
H1358 H 0.41101 0.48025 0.22174 0.0
C1359 C 0.37331 0.52436 0.15429 0.0
H1360 H 0.41246 0.53535 0.22122 0.0
C1361 C 0.37245 0.492 0.15458 0.0
C1362 C 0.38594 0.47542 0.17886 0.0
H1363 H 0.36259 0.53656 0.13546 0.0
H1364 H 0.36119 0.48005 0.13593 0.0
C1365 C 0.40029 0.49194 0.20259 0.0
C1366 C 0.52505 0.39464 0.15409 0.0
C1367 C 0.5415 0.38063 0.17814 0.0
H1368 H 0.4806 0.40674 0.13622 0.0
C1369 C 0.52507 0.36567 0.20152 0.0
H1370 H 0.53707 0.40628 0.13569 0.0
C1371 C 0.49316 0.36592 0.20181 0.0
C1372 C 0.47653 0.38118 0.17876 0.0
H1373 H 0.5369 0.35414 0.22013 0.0
H1374 H 0.48152 0.35455 0.22064 0.0
C1375 C 0.49276 0.39492 0.1544 0.0
C1376 C 0.81322 0.61507 0.49368 0.0
C1377 C 0.83664 0.63032 0.47758 0.0
H1378 H 0.79432 0.60232 0.53688 0.0
C1379 C 0.86013 0.64469 0.49459 0.0
H1380 H 0.79473 0.60367 0.48159 0.0
C1381 C 0.85991 0.64392 0.52694 0.0
C1382 C 0.83621 0.62875 0.54287 0.0
H1383 H 0.87853 0.6567 0.48296 0.0
H1384 H 0.87808 0.6554 0.53941 0.0
C1385 C 0.81301 0.61429 0.52567 0.0
C1386 C 0.38272 0.86644 0.52632 0.0
C1387 C 0.38607 0.83949 0.54389 0.0
H1388 H 0.38009 0.8861 0.48095 0.0
C1389 C 0.3887 0.8113 0.52846 0.0
H1390 H 0.38066 0.88853 0.53751 0.0
C1391 C 0.38802 0.80988 0.49652 0.0
C1392 C 0.38506 0.83666 0.47873 0.0
H1393 H 0.39106 0.79001 0.54112 0.0
H1394 H 0.39011 0.78757 0.48576 0.0
C1395 C 0.38254 0.86507 0.49397 0.0
C1396 C 0.15604 0.37158 0.49316 0.0
C1397 C 0.17915 0.38697 0.47653 0.0
H1398 H 0.13837 0.35947 0.53776 0.0
C1399 C 0.20193 0.40282 0.49294 0.0
H1400 H 0.13816 0.35911 0.48124 0.0
C1401 C 0.20204 0.40303 0.52487 0.0
C1402 C 0.17937 0.38739 0.54171 0.0
H1403 H 0.22006 0.4151 0.48115 0.0
H1404 H 0.22026 0.41548 0.53631 0.0
C1405 C 0.15615 0.37179 0.52551 0.0
C1406 C 0.63361 0.15165 0.49237 0.0
C1407 C 0.63217 0.18019 0.4772 0.0
H1408 H 0.63373 0.1279 0.53579 0.0
C1409 C 0.62942 0.20694 0.49501 0.0
H1410 H 0.63581 0.13061 0.47934 0.0
C1411 C 0.62775 0.20535 0.52694 0.0
C1412 C 0.62921 0.177 0.54227 0.0
H1413 H 0.62812 0.22935 0.48429 0.0
H1414 H 0.62556 0.2266 0.53966 0.0
C1415 C 0.63248 0.1501 0.52467 0.0
C1416 C 0.80964 0.38252 0.48845 0.0
C1417 C 0.83798 0.38347 0.47319 0.0
H1418 H 0.78573 0.38072 0.53095 0.0
C1419 C 0.8651 0.38244 0.49072 0.0
H1420 H 0.7883 0.38291 0.47568 0.0
C1421 C 0.86366 0.38157 0.52304 0.0
C1422 C 0.83509 0.38107 0.53819 0.0
H1423 H 0.88728 0.38314 0.47953 0.0
H1424 H 0.8848 0.38141 0.5361 0.0
C1425 C 0.8082 0.38113 0.52033 0.0
C1426 C 0.63259 0.86232 0.49124 0.0
C1427 C 0.6285 0.83479 0.4748 0.0
H1428 H 0.63573 0.88365 0.53576 0.0
C1429 C 0.62491 0.80731 0.49126 0.0
H1430 H 0.63537 0.88388 0.47918 0.0
C1431 C 0.6254 0.80715 0.52319 0.0
C1432 C 0.62918 0.83451 0.53986 0.0
H1433 H 0.62193 0.78563 0.47946 0.0
H1434 H 0.62255 0.78534 0.53481 0.0
C1435 C 0.63264 0.86222 0.52357 0.0
C1436 C 0.20846 0.63472 0.5202 0.0
C1437 C 0.1815 0.63438 0.53791 0.0
H1438 H 0.22853 0.63352 0.47561 0.0
C1439 C 0.15298 0.63382 0.52267 0.0
H1440 H 0.23088 0.63521 0.53094 0.0
C1441 C 0.15166 0.63326 0.49036 0.0
C1442 C 0.17885 0.63259 0.47297 0.0
H1443 H 0.13179 0.63372 0.53566 0.0
H1444 H 0.12953 0.63249 0.47908 0.0
C1445 C 0.20714 0.63362 0.48832 0.0
C1446 C 0.36513 0.20092 0.49131 0.0
C1447 C 0.38026 0.17777 0.47474 0.0
H1448 H 0.3539 0.21968 0.53503 0.0
C1449 C 0.39423 0.15363 0.49108 0.0
H1450 H 0.35363 0.2196 0.47958 0.0
C1451 C 0.39436 0.15367 0.5234 0.0
C1452 C 0.38056 0.17787 0.53977 0.0
H1453 H 0.406 0.1354 0.47896 0.0
H1454 H 0.40619 0.13545 0.53548 0.0
C1455 C 0.3653 0.20098 0.52326 0.0
C1456 C 0.49219 0.86726 0.63553 0.0
C1457 C 0.47593 0.83948 0.63889 0.0
H1458 H 0.53655 0.88893 0.63165 0.0
C1459 C 0.49279 0.81213 0.64217 0.0
H1460 H 0.47996 0.88876 0.63308 0.0
C1461 C 0.52471 0.81223 0.64095 0.0
C1462 C 0.54103 0.83969 0.63689 0.0
H1463 H 0.48134 0.79023 0.64495 0.0
H1464 H 0.53669 0.79052 0.64296 0.0
C1465 C 0.52454 0.8674 0.63484 0.0
C1466 C 0.49293 0.19952 0.40227 0.0
C1467 C 0.47653 0.17697 0.38601 0.0
H1468 H 0.53621 0.21791 0.41517 0.0
C1469 C 0.49328 0.15433 0.37009 0.0
H1470 H 0.48113 0.21731 0.41499 0.0
C1471 C 0.52567 0.15469 0.37021 0.0
C1472 C 0.54183 0.1777 0.38622 0.0
H1473 H 0.48142 0.13665 0.35728 0.0
H1474 H 0.53799 0.13725 0.3575 0.0
C1475 C 0.52486 0.19988 0.40236 0.0
C1476 C 0.81706 0.5261 0.36385 0.0
C1477 C 0.83951 0.54239 0.38033 0.0
H1478 H 0.79884 0.4826 0.35089 0.0
C1479 C 0.86306 0.52576 0.39494 0.0
H1480 H 0.79886 0.53803 0.35182 0.0
C1481 C 0.86307 0.49344 0.39432 0.0
C1482 C 0.83951 0.47734 0.37913 0.0
H1483 H 0.88075 0.53762 0.40774 0.0
H1484 H 0.88078 0.48113 0.40667 0.0
C1485 C 0.81704 0.49416 0.36329 0.0
C1486 C 0.49051 0.86303 0.38272 0.0
C1487 C 0.47326 0.83577 0.38167 0.0
H1488 H 0.53563 0.88311 0.38403 0.0
C1489 C 0.48871 0.80765 0.37895 0.0
H1490 H 0.47914 0.88502 0.38487 0.0
C1491 C 0.52061 0.80654 0.37813 0.0
C1492 C 0.53817 0.83352 0.38045 0.0
H1493 H 0.47607 0.78626 0.37775 0.0
H1494 H 0.53146 0.78424 0.37643 0.0
C1495 C 0.52278 0.86189 0.38241 0.0
C1496 C 0.20367 0.49152 0.36437 0.0
C1497 C 0.18035 0.4751 0.37943 0.0
H1498 H 0.2221 0.53515 0.35224 0.0
C1499 C 0.1557 0.49151 0.39238 0.0
H1500 H 0.22274 0.4797 0.35365 0.0
C1501 C 0.15533 0.52377 0.39157 0.0
C1502 C 0.17959 0.54006 0.37778 0.0
H1503 H 0.1373 0.47951 0.40402 0.0
H1504 H 0.13671 0.5359 0.40269 0.0
C1505 C 0.20328 0.52345 0.36353 0.0
C1506 C 0.4913 0.14935 0.63547 0.0
C1507 C 0.47468 0.17702 0.63469 0.0
H1508 H 0.53591 0.12816 0.63643 0.0
C1509 C 0.49082 0.20486 0.63628 0.0
H1510 H 0.47944 0.12753 0.6343 0.0
C1511 C 0.52274 0.20525 0.63801 0.0
C1512 C 0.53966 0.17778 0.63768 0.0
H1513 H 0.47872 0.22659 0.63609 0.0
H1514 H 0.53417 0.22732 0.63882 0.0
C1515 C 0.52358 0.14973 0.63661 0.0
C1516 C 0.86123 0.52276 0.6353 0.0
C1517 C 0.83294 0.53841 0.63531 0.0
H1518 H 0.88411 0.47889 0.63376 0.0
C1519 C 0.80575 0.52104 0.63417 0.0
H1520 H 0.88259 0.53543 0.63627 0.0
C1521 C 0.80665 0.48918 0.63227 0.0
C1522 C 0.83473 0.47342 0.63191 0.0
H1523 H 0.78347 0.53207 0.63412 0.0
H1524 H 0.7851 0.47681 0.63112 0.0
C1525 C 0.86211 0.49045 0.63396 0.0
C1526 C 0.20956 0.52641 0.63154 0.0
C1527 C 0.18152 0.54225 0.6315 0.0
H1528 H 0.23256 0.48339 0.63264 0.0
C1529 C 0.15407 0.52531 0.63328 0.0
H1530 H 0.23114 0.53873 0.63053 0.0
C1531 C 0.15483 0.49301 0.63411 0.0
C1532 C 0.18306 0.47729 0.63383 0.0
H1533 H 0.13212 0.53694 0.63329 0.0
H1534 H 0.13342 0.48041 0.63495 0.0
C1535 C 0.21034 0.49453 0.6329 0.0
C1536 C 0.10667 0.19532 0.22217 0.0
C1537 C 0.11584 0.2035 0.25202 0.0
H1538 H 0.10206 0.21047 0.17529 0.0
C1539 C 0.12125 0.23446 0.25889 0.0
H1540 H 0.10272 0.17147 0.21636 0.0
C1541 C 0.12076 0.25646 0.23575 0.0
C1542 C 0.11487 0.24795 0.20527 0.0
H1543 H 0.12825 0.24128 0.28178 0.0
H1544 H 0.1275 0.27977 0.24126 0.0
C1545 C 0.10624 0.21756 0.19876 0.0
C1546 C 0.7929 0.10876 0.2025 0.0
C1547 C 0.76337 0.11905 0.21086 0.0
H1548 H 0.83979 0.10295 0.21665 0.0
C1549 C 0.75737 0.12571 0.24183 0.0
H1550 H 0.79817 0.1031 0.17887 0.0
C1551 C 0.78113 0.12557 0.2632 0.0
C1552 C 0.81117 0.1183 0.25415 0.0
H1553 H 0.73482 0.13314 0.2492 0.0
H1554 H 0.77643 0.13322 0.28641 0.0
C1555 C 0.8167 0.10837 0.22409 0.0
C1556 C 0.9069 0.81205 0.22632 0.0
C1557 C 0.89607 0.80491 0.25598 0.0
H1558 H 0.9132 0.79614 0.18002 0.0
C1559 C 0.88833 0.77436 0.26284 0.0
H1560 H 0.91334 0.83532 0.22039 0.0
C1561 C 0.8881 0.75225 0.23978 0.0
C1562 C 0.89617 0.76007 0.2096 0.0
H1563 H 0.88043 0.76788 0.28553 0.0
H1564 H 0.87985 0.72938 0.24515 0.0
C1565 C 0.90703 0.78967 0.20324 0.0
C1566 C 0.23771 0.89188 0.26514 0.0
C1567 C 0.20709 0.89805 0.25743 0.0
H1568 H 0.28347 0.8853 0.24908 0.0
C1569 C 0.19981 0.90688 0.22733 0.0
H1570 H 0.24377 0.88515 0.28833 0.0
C1571 C 0.22253 0.90651 0.20455 0.0
C1572 C 0.2527 0.89739 0.21176 0.0
H1573 H 0.17623 0.91146 0.22092 0.0
H1574 H 0.21597 0.91122 0.18103 0.0
C1575 C 0.26036 0.8918 0.2426 0.0
C1576 C 0.10508 0.81848 0.791 0.0
C1577 C 0.11822 0.81144 0.76236 0.0
H1578 H 0.09654 0.80252 0.83706 0.0
C1579 C 0.12736 0.78122 0.75624 0.0
H1580 H 0.09801 0.84174 0.7962 0.0
C1581 C 0.12637 0.7591 0.77921 0.0
C1582 C 0.1163 0.76674 0.80882 0.0
H1583 H 0.13723 0.77519 0.7342 0.0
H1584 H 0.13563 0.7365 0.77443 0.0
C1585 C 0.10416 0.79611 0.81428 0.0
C1586 C 0.2233 0.10748 0.8139 0.0
C1587 C 0.25309 0.11698 0.80545 0.0
H1588 H 0.17625 0.10253 0.79978 0.0
C1589 C 0.25915 0.12329 0.7744 0.0
H1590 H 0.21791 0.10218 0.8376 0.0
C1591 C 0.23537 0.12343 0.753 0.0
C1592 C 0.20517 0.11681 0.76204 0.0
H1593 H 0.28185 0.13018 0.76694 0.0
H1594 H 0.24024 0.13077 0.72971 0.0
C1595 C 0.19946 0.10738 0.79228 0.0
C1596 C 0.88024 0.24254 0.74748 0.0
C1597 C 0.8882 0.21204 0.75436 0.0
H1598 H 0.87337 0.288 0.76458 0.0
C1599 C 0.89927 0.20509 0.78389 0.0
H1600 H 0.87211 0.24881 0.72482 0.0
C1601 C 0.89999 0.22758 0.80673 0.0
C1602 C 0.88966 0.25749 0.80051 0.0
H1603 H 0.90595 0.18191 0.78989 0.0
H1604 H 0.90713 0.22106 0.82964 0.0
C1605 C 0.88098 0.26503 0.77031 0.0
C1606 C 0.79381 0.90682 0.81342 0.0
C1607 C 0.76357 0.8983 0.80575 0.0
H1608 H 0.84035 0.91134 0.79762 0.0
C1609 C 0.7561 0.89361 0.77472 0.0
H1610 H 0.80024 0.91084 0.8371 0.0
C1611 C 0.77897 0.89397 0.75238 0.0
C1612 C 0.80962 0.89944 0.76051 0.0
H1613 H 0.73296 0.88759 0.7679 0.0
H1614 H 0.77302 0.88781 0.72901 0.0
C1615 C 0.81676 0.9074 0.79086 0.0
C1616 C 0.23183 0.11488 0.20657 0.0
C1617 C 0.26165 0.12498 0.21363 0.0
H1618 H 0.18582 0.10857 0.2224 0.0
C1619 C 0.26876 0.13242 0.24422 0.0
H1620 H 0.22567 0.1086 0.18331 0.0
C1621 C 0.24588 0.13238 0.26666 0.0
C1622 C 0.21543 0.1249 0.25897 0.0
H1623 H 0.29165 0.13978 0.25057 0.0
H1624 H 0.25179 0.13969 0.28969 0.0
C1625 C 0.20894 0.11484 0.22902 0.0
C1626 C 0.89151 0.2639 0.23593 0.0
C1627 C 0.89932 0.25467 0.20607 0.0
H1628 H 0.88367 0.25028 0.28234 0.0
C1629 C 0.91003 0.2248 0.20103 0.0
H1630 H 0.8833 0.28698 0.24025 0.0
C1631 C 0.90982 0.2035 0.22511 0.0
C1632 C 0.89897 0.21196 0.25442 0.0
H1633 H 0.91594 0.21724 0.17808 0.0
H1634 H 0.91608 0.17995 0.22018 0.0
C1635 C 0.89157 0.24282 0.25997 0.0
C1636 C 0.75819 0.88976 0.23579 0.0
C1637 C 0.76515 0.89728 0.20529 0.0
H1638 H 0.77529 0.88285 0.28118 0.0
C1639 C 0.79441 0.90893 0.19816 0.0
H1640 H 0.7357 0.881 0.24187 0.0
C1641 C 0.81734 0.90993 0.22087 0.0
C1642 C 0.81093 0.89943 0.25071 0.0
H1643 H 0.80026 0.91469 0.17468 0.0
H1644 H 0.84052 0.91624 0.21448 0.0
C1645 C 0.7808 0.89092 0.25827 0.0
C1646 C 0.13392 0.74958 0.24491 0.0
C1647 C 0.12623 0.75762 0.2146 0.0
H1648 H 0.14098 0.76505 0.29094 0.0
C1649 C 0.11542 0.78741 0.2086 0.0
H1650 H 0.14178 0.72664 0.25044 0.0
C1651 C 0.11496 0.80945 0.23185 0.0
C1652 C 0.12527 0.80213 0.26154 0.0
H1653 H 0.10893 0.79425 0.18559 0.0
H1654 H 0.10813 0.83264 0.22605 0.0
C1655 C 0.13342 0.77161 0.26817 0.0
C1656 C 0.20644 0.9032 0.78726 0.0
C1657 C 0.21353 0.8948 0.75694 0.0
H1658 H 0.22242 0.9073 0.83346 0.0
C1659 C 0.24426 0.88852 0.74926 0.0
H1660 H 0.18308 0.90852 0.79388 0.0
C1661 C 0.26682 0.88771 0.77198 0.0
C1662 C 0.25912 0.89325 0.80281 0.0
H1663 H 0.25063 0.88253 0.72597 0.0
H1664 H 0.28994 0.88116 0.76558 0.0
C1665 C 0.22903 0.90246 0.80998 0.0
C1666 C 0.12509 0.26303 0.77983 0.0
C1667 C 0.11772 0.25375 0.80979 0.0
H1668 H 0.13259 0.24947 0.73336 0.0
C1669 C 0.10748 0.22372 0.81502 0.0
H1670 H 0.133 0.28621 0.77538 0.0
C1671 C 0.10768 0.20239 0.79097 0.0
C1672 C 0.11809 0.21096 0.76152 0.0
H1673 H 0.10196 0.2161 0.83805 0.0
H1674 H 0.10181 0.17876 0.79602 0.0
C1675 C 0.12503 0.24192 0.75584 0.0
C1676 C 0.75589 0.11952 0.7745 0.0
C1677 C 0.76422 0.11652 0.80551 0.0
H1678 H 0.77162 0.1231 0.72815 0.0
C1679 C 0.79463 0.10833 0.81283 0.0
H1680 H 0.73256 0.12519 0.76802 0.0
C1681 C 0.81699 0.10671 0.78977 0.0
C1682 C 0.80905 0.11321 0.75927 0.0
H1683 H 0.80169 0.10558 0.83652 0.0
H1684 H 0.84078 0.10333 0.79614 0.0
C1685 C 0.77816 0.11803 0.75163 0.0
C1686 C 0.88109 0.74994 0.77448 0.0
C1687 C 0.88717 0.75809 0.80511 0.0
H1688 H 0.87618 0.76522 0.7281 0.0
C1689 C 0.89712 0.7881 0.81157 0.0
H1690 H 0.87394 0.72685 0.76862 0.0
C1691 C 0.89843 0.81014 0.78829 0.0
C1692 C 0.88984 0.8026 0.7581 0.0
H1693 H 0.90233 0.79505 0.83487 0.0
H1694 H 0.90454 0.83346 0.79434 0.0
C1695 C 0.88244 0.77195 0.75122 0.0
C1696 C 0.26455 0.23729 0.12265 0.0
C1697 C 0.25666 0.20662 0.11692 0.0
H1698 H 0.24864 0.28303 0.12981 0.0
C1699 C 0.22633 0.19922 0.10923 0.0
H1700 H 0.28793 0.24341 0.12857 0.0
C1701 C 0.20356 0.22188 0.11039 0.0
C1702 C 0.21103 0.25208 0.11924 0.0
H1703 H 0.21978 0.17559 0.10508 0.0
H1704 H 0.17992 0.21523 0.10658 0.0
C1705 C 0.242 0.25988 0.12358 0.0
C1706 C 0.19986 0.79396 0.90672 0.0
C1707 C 0.20757 0.76364 0.8985 0.0
H1708 H 0.21565 0.84052 0.91091 0.0
C1709 C 0.2386 0.7561 0.89406 0.0
H1710 H 0.17618 0.80044 0.91057 0.0
C1711 C 0.2609 0.77897 0.89421 0.0
C1712 C 0.25272 0.80965 0.89935 0.0
H1713 H 0.24544 0.73291 0.88826 0.0
H1714 H 0.28429 0.77298 0.88819 0.0
C1715 C 0.22239 0.81689 0.90717 0.0
C1716 C 0.22282 0.19799 0.9087 0.0
C1717 C 0.25332 0.20347 0.90018 0.0
H1718 H 0.17762 0.21687 0.9126 0.0
C1719 C 0.26292 0.23362 0.8941 0.0
H1720 H 0.21493 0.17482 0.91308 0.0
C1721 C 0.24181 0.25761 0.89371 0.0
C1722 C 0.21055 0.25178 0.89894 0.0
H1723 H 0.28643 0.23827 0.88741 0.0
H1724 H 0.24969 0.28027 0.88714 0.0
C1725 C 0.2015 0.22206 0.9081 0.0
C1726 C 0.76104 0.23412 0.89627 0.0
C1727 C 0.76987 0.20366 0.90169 0.0
H1728 H 0.7757 0.28039 0.88943 0.0
C1729 C 0.80035 0.1973 0.91007 0.0
H1730 H 0.73768 0.2395 0.88965 0.0
C1731 C 0.82235 0.22092 0.90989 0.0
C1732 C 0.81384 0.25083 0.90123 0.0
H1733 H 0.80768 0.17385 0.91387 0.0
H1734 H 0.84627 0.21526 0.91359 0.0
C1735 C 0.78279 0.25747 0.89608 0.0
C1736 C 0.77728 0.75885 0.89861 0.0
C1737 C 0.80829 0.76498 0.90458 0.0
H1738 H 0.73273 0.77762 0.89069 0.0
C1739 C 0.81715 0.7948 0.91317 0.0
H1740 H 0.76995 0.73602 0.89197 0.0
C1741 C 0.79564 0.81882 0.91246 0.0
C1742 C 0.76533 0.81296 0.90317 0.0
H1743 H 0.84107 0.80004 0.91747 0.0
H1744 H 0.80332 0.84216 0.91625 0.0
C1745 C 0.75601 0.78262 0.89789 0.0
C1746 C 0.77268 0.7477 0.12747 0.0
C1747 C 0.80362 0.75507 0.12212 0.0
H1748 H 0.72698 0.76451 0.13308 0.0
C1749 C 0.81125 0.78519 0.11335 0.0
H1750 H 0.76593 0.72457 0.13367 0.0
C1751 C 0.78891 0.80814 0.11306 0.0
C1752 C 0.75855 0.80135 0.1215 0.0
H1753 H 0.83481 0.79155 0.10862 0.0
H1754 H 0.79589 0.83149 0.10815 0.0
C1755 C 0.75035 0.77063 0.12715 0.0
C1756 C 0.21744 0.82074 0.10627 0.0
C1757 C 0.24807 0.81404 0.11381 0.0
H1758 H 0.17136 0.80308 0.10329 0.0
C1759 C 0.25685 0.7834 0.11822 0.0
H1760 H 0.21014 0.84432 0.10328 0.0
C1761 C 0.23497 0.76014 0.11833 0.0
C1762 C 0.20386 0.76706 0.114 0.0
H1763 H 0.28033 0.77774 0.12418 0.0
H1764 H 0.24206 0.73704 0.12426 0.0
C1765 C 0.19532 0.79722 0.10631 0.0
C1766 C 0.75375 0.23633 0.123 0.0
C1767 C 0.76291 0.20625 0.11606 0.0
H1768 H 0.76764 0.2827 0.13047 0.0
C1769 C 0.79305 0.2007 0.10641 0.0
H1770 H 0.73049 0.24102 0.13045 0.0
C1771 C 0.81459 0.22454 0.10685 0.0
C1772 C 0.80611 0.2541 0.11694 0.0
H1773 H 0.80057 0.17757 0.10125 0.0
H1774 H 0.83827 0.21925 0.10147 0.0
C1775 C 0.77509 0.26012 0.1232 0.0
C1776 C 0.60636 0.72696 0.70461 0.0
C1777 C 0.61985 0.7558 0.70904 0.0
H1778 H 0.59756 0.68265 0.72405 0.0
C1779 C 0.63038 0.76403 0.73835 0.0
H1780 H 0.59825 0.72017 0.68211 0.0
C1781 C 0.62988 0.74287 0.76233 0.0
C1782 C 0.61936 0.71282 0.75725 0.0
H1783 H 0.64068 0.78635 0.74225 0.0
H1784 H 0.63969 0.74949 0.7842 0.0
C1785 C 0.60621 0.70551 0.72859 0.0
C1786 C 0.27814 0.6242 0.75766 0.0
C1787 C 0.30881 0.61659 0.75167 0.0
H1788 H 0.2337 0.63268 0.7389 0.0
C1789 C 0.31704 0.6061 0.72226 0.0
H1790 H 0.27124 0.63214 0.78022 0.0
C1791 C 0.29534 0.60641 0.69837 0.0
C1792 C 0.26545 0.61716 0.70396 0.0
H1793 H 0.34067 0.60038 0.71713 0.0
H1794 H 0.3026 0.60095 0.67522 0.0
C1795 C 0.25669 0.62447 0.73406 0.0
C1796 C 0.40912 0.31262 0.72464 0.0
C1797 C 0.3987 0.30429 0.75416 0.0
H1798 H 0.41498 0.29849 0.6777 0.0
C1799 C 0.39174 0.27338 0.76008 0.0
H1800 H 0.41499 0.33621 0.71941 0.0
C1801 C 0.39177 0.25205 0.73628 0.0
C1802 C 0.39923 0.26106 0.70625 0.0
H1803 H 0.38417 0.26602 0.78262 0.0
H1804 H 0.3839 0.2289 0.74093 0.0
C1805 C 0.40941 0.29106 0.70078 0.0
C1806 C 0.71821 0.41008 0.69634 0.0
C1807 C 0.74857 0.40102 0.7023 0.0
H1808 H 0.67275 0.41509 0.71508 0.0
C1809 C 0.75791 0.3961 0.73269 0.0
H1810 H 0.71054 0.4136 0.67295 0.0
C1811 C 0.73665 0.3971 0.75648 0.0
C1812 C 0.70559 0.40285 0.75032 0.0
H1813 H 0.78121 0.38907 0.73777 0.0
H1814 H 0.74403 0.39081 0.77941 0.0
C1815 C 0.69668 0.41099 0.72037 0.0
C1816 C 0.62544 0.254 0.28012 0.0
C1817 C 0.61847 0.26347 0.31012 0.0
H1818 H 0.63312 0.26733 0.23356 0.0
C1819 C 0.60936 0.29385 0.31534 0.0
H1820 H 0.63258 0.2306 0.27565 0.0
C1821 C 0.61011 0.31518 0.29123 0.0
C1822 C 0.61998 0.30629 0.26169 0.0
H1823 H 0.60427 0.30167 0.33839 0.0
H1824 H 0.60502 0.33898 0.29626 0.0
C1825 C 0.62596 0.27512 0.25607 0.0
C1826 C 0.70802 0.61295 0.28592 0.0
C1827 C 0.7158 0.62207 0.25593 0.0
H1828 H 0.72279 0.60805 0.33249 0.0
C1829 C 0.74662 0.62878 0.24916 0.0
H1830 H 0.68456 0.60722 0.29184 0.0
C1831 C 0.76856 0.62921 0.2725 0.0
C1832 C 0.76011 0.62298 0.30307 0.0
H1833 H 0.75352 0.63534 0.22617 0.0
H1834 H 0.79179 0.63605 0.26682 0.0
C1835 C 0.72996 0.61341 0.30928 0.0
C1836 C 0.38344 0.76195 0.28173 0.0
C1837 C 0.39321 0.75333 0.31121 0.0
H1838 H 0.37541 0.74817 0.23543 0.0
C1839 C 0.40637 0.72432 0.3156 0.0
H1840 H 0.3734 0.78437 0.27781 0.0
C1841 C 0.40711 0.70321 0.29132 0.0
C1842 C 0.39492 0.71101 0.26234 0.0
H1843 H 0.41391 0.7172 0.33821 0.0
H1844 H 0.41554 0.68025 0.29576 0.0
C1845 C 0.38456 0.74115 0.25747 0.0
C1846 C 0.29113 0.40627 0.31369 0.0
C1847 C 0.2621 0.39428 0.30581 0.0
H1848 H 0.3377 0.41394 0.29921 0.0
C1849 C 0.25654 0.38591 0.27518 0.0
H1850 H 0.29606 0.41327 0.33703 0.0
C1851 C 0.28032 0.38632 0.25379 0.0
C1852 C 0.30995 0.39556 0.26242 0.0
H1853 H 0.2344 0.37707 0.26815 0.0
H1854 H 0.276 0.37753 0.23092 0.0
C1855 C 0.31493 0.40696 0.29206 0.0
C1856 C 0.73258 0.6212 0.76419 0.0
C1857 C 0.7022 0.61561 0.75507 0.0
H1858 H 0.77899 0.62821 0.75015 0.0
C1859 C 0.69608 0.60778 0.72449 0.0
H1860 H 0.73774 0.62733 0.78776 0.0
C1861 C 0.71974 0.60865 0.7027 0.0
C1862 C 0.74967 0.61743 0.71134 0.0
H1863 H 0.67273 0.60379 0.71695 0.0
H1864 H 0.71406 0.60469 0.67882 0.0
C1865 C 0.75614 0.62196 0.74259 0.0
C1866 C 0.38363 0.74403 0.76904 0.0
C1867 C 0.39037 0.71353 0.76084 0.0
H1868 H 0.37729 0.79021 0.75368 0.0
C1869 C 0.40044 0.70733 0.73083 0.0
H1870 H 0.37636 0.74971 0.79214 0.0
C1871 C 0.40104 0.7306 0.70878 0.0
C1872 C 0.39153 0.76051 0.7163 0.0
H1873 H 0.40619 0.68418 0.72386 0.0
H1874 H 0.40724 0.72467 0.68544 0.0
C1875 C 0.38419 0.76728 0.74698 0.0
C1876 C 0.31832 0.40831 0.7236 0.0
C1877 C 0.31253 0.39956 0.75399 0.0
H1878 H 0.29998 0.41236 0.67817 0.0
C1879 C 0.28232 0.39331 0.76324 0.0
H1880 H 0.34156 0.41287 0.71599 0.0
C1881 C 0.2586 0.39286 0.74182 0.0
C1882 C 0.2648 0.39826 0.71065 0.0
H1883 H 0.27744 0.38648 0.78668 0.0
H1884 H 0.23589 0.38613 0.7494 0.0
C1885 C 0.29454 0.40768 0.70199 0.0
C1886 C 0.61749 0.30863 0.72962 0.0
C1887 C 0.62879 0.30274 0.75926 0.0
H1888 H 0.60961 0.29116 0.68446 0.0
C1889 C 0.63728 0.27254 0.76699 0.0
H1890 H 0.61044 0.33152 0.72298 0.0
C1891 C 0.63682 0.24934 0.74486 0.0
C1892 C 0.62786 0.25584 0.71454 0.0
H1893 H 0.64562 0.26707 0.78978 0.0
H1894 H 0.64486 0.22668 0.75121 0.0
C1895 C 0.61701 0.28542 0.7075 0.0
C1896 C 0.73838 0.39201 0.25112 0.0
C1897 C 0.70836 0.39941 0.26009 0.0
H1898 H 0.78466 0.38435 0.26519 0.0
C1899 C 0.70285 0.40951 0.29011 0.0
H1900 H 0.74307 0.38421 0.22795 0.0
C1901 C 0.72664 0.40916 0.31173 0.0
C1902 C 0.75615 0.39874 0.30345 0.0
H1903 H 0.67976 0.41502 0.29751 0.0
H1904 H 0.72136 0.41493 0.33533 0.0
C1905 C 0.76213 0.39191 0.27251 0.0
C1906 C 0.61039 0.69959 0.28908 0.0
C1907 C 0.62078 0.70615 0.25934 0.0
H1908 H 0.60405 0.71672 0.33473 0.0
C1909 C 0.62781 0.73652 0.25129 0.0
H1910 H 0.60505 0.67622 0.29571 0.0
C1911 C 0.62714 0.75963 0.27332 0.0
C1912 C 0.61996 0.75266 0.30399 0.0
H1913 H 0.63568 0.74203 0.22832 0.0
H1914 H 0.6343 0.78252 0.26668 0.0
C1915 C 0.61005 0.72275 0.31136 0.0
C1916 C 0.28106 0.62214 0.25259 0.0
C1917 C 0.31119 0.6156 0.26196 0.0
H1918 H 0.23475 0.63047 0.26626 0.0
C1919 C 0.31678 0.60743 0.29255 0.0
H1920 H 0.27632 0.62858 0.22901 0.0
C1921 C 0.29296 0.60888 0.31411 0.0
C1922 C 0.26338 0.61861 0.30525 0.0
H1923 H 0.33993 0.60272 0.30029 0.0
H1924 H 0.29829 0.60456 0.33802 0.0
C1925 C 0.25733 0.6235 0.27398 0.0
C1926 C 0.41134 0.29227 0.31511 0.0
C1927 C 0.40238 0.26194 0.30944 0.0
H1928 H 0.41555 0.3376 0.29661 0.0
C1929 C 0.39609 0.25263 0.27925 0.0
H1930 H 0.41595 0.2999 0.33832 0.0
C1931 C 0.39576 0.27396 0.25543 0.0
C1932 C 0.40124 0.30512 0.26154 0.0
H1933 H 0.3891 0.22924 0.27447 0.0
H1934 H 0.38892 0.26637 0.23275 0.0
C1935 C 0.41078 0.3138 0.29124 0.0
C1936 C 0.69884 0.72312 0.60798 0.0
C1937 C 0.70825 0.75301 0.61608 0.0
H1938 H 0.71185 0.67568 0.60427 0.0
C1939 C 0.73965 0.75881 0.62046 0.0
H1940 H 0.67484 0.71796 0.60412 0.0
C1941 C 0.76059 0.73467 0.6205 0.0
C1942 C 0.75064 0.70445 0.6156 0.0
H1943 H 0.7478 0.78159 0.62621 0.0
H1944 H 0.78422 0.73933 0.6267 0.0
C1945 C 0.71998 0.69893 0.60775 0.0
C1946 C 0.7424 0.25761 0.39201 0.0
C1947 C 0.71134 0.2637 0.39815 0.0
H1948 H 0.78705 0.27649 0.38443 0.0
C1949 C 0.70285 0.29357 0.40731 0.0
H1950 H 0.74989 0.23484 0.38539 0.0
C1951 C 0.72444 0.31743 0.40721 0.0
C1952 C 0.75467 0.31165 0.39789 0.0
H1953 H 0.67915 0.29898 0.41246 0.0
H1954 H 0.71694 0.34068 0.41183 0.0
C1955 C 0.76376 0.28141 0.39164 0.0
C1956 C 0.75747 0.73606 0.39285 0.0
C1957 C 0.75087 0.70537 0.39995 0.0
H1958 H 0.73963 0.78104 0.3852 0.0
C1959 C 0.72131 0.69755 0.4103 0.0
H1960 H 0.78015 0.74265 0.38501 0.0
C1961 C 0.69787 0.71974 0.41038 0.0
C1962 C 0.70405 0.74973 0.4002 0.0
H1963 H 0.71571 0.67392 0.41563 0.0
H1964 H 0.67459 0.71282 0.41567 0.0
C1965 C 0.73432 0.75801 0.39302 0.0
C1966 C 0.31271 0.72437 0.41218 0.0
C1967 C 0.30392 0.75417 0.40311 0.0
H1968 H 0.29927 0.67704 0.41578 0.0
C1969 C 0.27284 0.76007 0.39696 0.0
H1970 H 0.33643 0.71915 0.41744 0.0
C1971 C 0.25185 0.73601 0.39596 0.0
C1972 C 0.26141 0.70581 0.40168 0.0
H1973 H 0.26515 0.78281 0.39047 0.0
H1974 H 0.22861 0.74068 0.38845 0.0
C1975 C 0.29149 0.70026 0.41148 0.0
C1976 C 0.25435 0.27857 0.39465 0.0
C1977 C 0.26337 0.30881 0.40118 0.0
H1978 H 0.26855 0.23244 0.38612 0.0
C1979 C 0.29394 0.31479 0.40909 0.0
H1980 H 0.2308 0.27352 0.38842 0.0
C1981 C 0.31579 0.29126 0.40738 0.0
C1982 C 0.30725 0.26157 0.39767 0.0
H1983 H 0.30142 0.33803 0.41378 0.0
H1984 H 0.33965 0.29691 0.41148 0.0
C1985 C 0.27603 0.25511 0.39306 0.0
C1986 C 0.27535 0.256 0.62339 0.0
C1987 C 0.3065 0.26175 0.61741 0.0
H1988 H 0.23089 0.27547 0.63044 0.0
C1989 C 0.31537 0.29133 0.60768 0.0
H1990 H 0.2676 0.23343 0.6304 0.0
C1991 C 0.29406 0.3154 0.60725 0.0
C1992 C 0.26376 0.31007 0.61656 0.0
H1993 H 0.33915 0.29644 0.60257 0.0
H1994 H 0.30187 0.3385 0.60236 0.0
C1995 C 0.25426 0.28001 0.6232 0.0
C1996 C 0.72102 0.31223 0.60813 0.0
C1997 C 0.75144 0.30449 0.61593 0.0
H1998 H 0.67446 0.29636 0.60442 0.0
C1999 C 0.75919 0.27343 0.61966 0.0
H2000 H 0.7144 0.33596 0.60483 0.0
C2001 C 0.73643 0.25102 0.61932 0.0
C2002 C 0.70562 0.25918 0.61485 0.0
H2003 H 0.78248 0.26661 0.62506 0.0
H2004 H 0.74259 0.22755 0.62488 0.0
C2005 C 0.69817 0.28961 0.60761 0.0
C2006 C 0.31688 0.72707 0.60974 0.0
C2007 C 0.30999 0.7571 0.61894 0.0
H2008 H 0.29994 0.68122 0.60434 0.0
C2009 C 0.27941 0.76534 0.62459 0.0
H2010 H 0.34041 0.72028 0.60552 0.0
C2011 C 0.25631 0.74328 0.62385 0.0
C2012 C 0.2635 0.7124 0.61796 0.0
H2013 H 0.27367 0.78851 0.63158 0.0
H2014 H 0.23321 0.7501 0.63002 0.0
C2015 C 0.29372 0.70476 0.60929 0.0
C2016 C 0.14802 0.23596 0.40424 0.0
C2017 C 0.127 0.22596 0.38205 0.0
H2018 H 0.17249 0.27453 0.42245 0.0
C2019 C 0.10831 0.24778 0.36723 0.0
H2020 H 0.16311 0.21969 0.41548 0.0
C2021 C 0.11339 0.27923 0.3715 0.0
C2022 C 0.13755 0.28913 0.39026 0.0
H2023 H 0.09227 0.24056 0.34964 0.0
H2024 H 0.10118 0.29545 0.35713 0.0
C2025 C 0.15347 0.26739 0.4081 0.0
C2026 C 0.73872 0.11349 0.36433 0.0
C2027 C 0.72626 0.13476 0.38499 0.0
H2028 H 0.77935 0.09677 0.34241 0.0
C2029 C 0.7462 0.15113 0.40443 0.0
H2030 H 0.72391 0.10123 0.34856 0.0
C2031 C 0.77819 0.14871 0.40082 0.0
C2032 C 0.79048 0.12992 0.37767 0.0
H2033 H 0.73714 0.16841 0.41985 0.0
H2034 H 0.79297 0.16415 0.41352 0.0
C2035 C 0.77051 0.111 0.36081 0.0
C2036 C 0.86048 0.75031 0.41002 0.0
C2037 C 0.87805 0.7301 0.39199 0.0
H2038 H 0.84651 0.79686 0.41755 0.0
C2039 C 0.90084 0.74234 0.37272 0.0
H2040 H 0.84231 0.74148 0.42456 0.0
C2041 C 0.90335 0.77429 0.36885 0.0
C2042 C 0.88309 0.79422 0.38418 0.0
H2043 H 0.91404 0.72735 0.35791 0.0
H2044 H 0.91864 0.78314 0.35132 0.0
C2045 C 0.86278 0.78205 0.40595 0.0
C2046 C 0.24635 0.9099 0.36966 0.0
C2047 C 0.22651 0.88998 0.38556 0.0
H2048 H 0.2928 0.91958 0.35672 0.0
C2049 C 0.23897 0.86958 0.40718 0.0
H2050 H 0.23731 0.92536 0.35238 0.0
C2051 C 0.27094 0.86637 0.40973 0.0
C2052 C 0.29064 0.88357 0.39076 0.0
H2053 H 0.22427 0.85339 0.41904 0.0
H2054 H 0.28004 0.84789 0.42368 0.0
C2055 C 0.27816 0.90658 0.37208 0.0
C2056 C 0.15198 0.74546 0.61059 0.0
C2057 C 0.13564 0.72548 0.63003 0.0
H2058 H 0.16369 0.79239 0.60064 0.0
C2059 C 0.11316 0.73765 0.64953 0.0
H2060 H 0.17004 0.73661 0.59597 0.0
C2061 C 0.10924 0.76941 0.65186 0.0
C2062 C 0.12809 0.78963 0.63514 0.0
H2063 H 0.1008 0.72279 0.6652 0.0
H2064 H 0.09404 0.77821 0.66948 0.0
C2065 C 0.14822 0.77742 0.61311 0.0
C2066 C 0.27097 0.14998 0.61143 0.0
C2067 C 0.29065 0.13328 0.63086 0.0
H2068 H 0.2244 0.16361 0.6023 0.0
C2069 C 0.27789 0.112 0.65137 0.0
H2070 H 0.28028 0.16725 0.59612 0.0
C2071 C 0.24609 0.10988 0.65482 0.0
C2072 C 0.22642 0.12917 0.63802 0.0
H2073 H 0.29252 0.09948 0.66712 0.0
H2074 H 0.23702 0.09564 0.67313 0.0
C2075 C 0.23896 0.14792 0.61496 0.0
C2076 C 0.85782 0.27139 0.61093 0.0
C2077 C 0.8754 0.28852 0.63183 0.0
H2078 H 0.84298 0.22646 0.59706 0.0
C2079 C 0.89615 0.27305 0.65107 0.0
H2080 H 0.84094 0.2827 0.59659 0.0
C2081 C 0.89799 0.24089 0.65066 0.0
C2082 C 0.87843 0.22365 0.63168 0.0
H2083 H 0.90922 0.28567 0.66804 0.0
H2084 H 0.91238 0.22947 0.66743 0.0
C2085 C 0.85899 0.23921 0.61117 0.0
C2086 C 0.77712 0.86839 0.61141 0.0
C2087 C 0.78941 0.88904 0.63289 0.0
H2088 H 0.73618 0.84658 0.59465 0.0
C2089 C 0.76939 0.90907 0.64837 0.0
H2090 H 0.79193 0.85209 0.59988 0.0
C2091 C 0.73759 0.90582 0.64554 0.0
C2092 C 0.72523 0.88269 0.62692 0.0
H2093 H 0.77825 0.92472 0.66556 0.0
H2094 H 0.72279 0.91903 0.66054 0.0
C2095 C 0.74516 0.8652 0.60849 0.0
C2096 C 0.40852 0.15532 0.2365 0.0
C2097 C 0.38811 0.13457 0.22283 0.0
H2098 H 0.42353 0.17635 0.27822 0.0
C2099 C 0.3716 0.11416 0.24168 0.0
H2100 H 0.42095 0.17173 0.2225 0.0
C2101 C 0.37281 0.117 0.27382 0.0
C2102 C 0.39065 0.14022 0.28727 0.0
H2103 H 0.35504 0.09856 0.23162 0.0
H2104 H 0.35715 0.1036 0.28775 0.0
C2105 C 0.40994 0.15796 0.26842 0.0
C2106 C 0.86752 0.40442 0.26979 0.0
C2107 C 0.88406 0.38494 0.28955 0.0
H2108 H 0.85397 0.41352 0.22315 0.0
C2109 C 0.90516 0.36426 0.27686 0.0
H2110 H 0.85038 0.41987 0.27905 0.0
C2111 C 0.90729 0.36074 0.24503 0.0
C2112 C 0.88817 0.37764 0.22527 0.0
H2113 H 0.91755 0.34846 0.29154 0.0
H2114 H 0.92139 0.34233 0.23603 0.0
C2115 C 0.86956 0.40081 0.23776 0.0
C2116 C 0.61218 0.86473 0.2714 0.0
C2117 C 0.63187 0.88053 0.29154 0.0
H2118 H 0.6024 0.85327 0.22437 0.0
C2119 C 0.65207 0.90248 0.27952 0.0
H2120 H 0.59699 0.84707 0.28015 0.0
C2121 C 0.65483 0.90632 0.24778 0.0
C2122 C 0.63784 0.88789 0.22742 0.0
H2123 H 0.66791 0.91444 0.29451 0.0
H2124 H 0.67292 0.92106 0.23912 0.0
C2125 C 0.61515 0.86838 0.23945 0.0
C2126 C 0.16032 0.61444 0.2708 0.0
C2127 C 0.13927 0.63168 0.28805 0.0
H2128 H 0.17866 0.60512 0.22602 0.0
C2129 C 0.11635 0.6483 0.27264 0.0
H2130 H 0.17877 0.60223 0.28217 0.0
C2131 C 0.11576 0.64925 0.24045 0.0
C2132 C 0.13869 0.63441 0.22331 0.0
H2133 H 0.10054 0.66258 0.28546 0.0
H2134 H 0.09941 0.66419 0.22913 0.0
C2135 C 0.16033 0.61615 0.2387 0.0
C2136 C 0.3647 0.90291 0.77693 0.0
C2137 C 0.38243 0.88108 0.79271 0.0
H2138 H 0.34829 0.91829 0.73304 0.0
C2139 C 0.40226 0.86202 0.77593 0.0
H2140 H 0.34851 0.91716 0.78932 0.0
C2141 C 0.40289 0.86342 0.74378 0.0
C2142 C 0.38292 0.88315 0.72791 0.0
H2143 H 0.41544 0.84441 0.78753 0.0
H2144 H 0.41651 0.84676 0.73131 0.0
C2145 C 0.36456 0.90358 0.74475 0.0
C2146 C 0.15035 0.4002 0.77783 0.0
C2147 C 0.1316 0.37695 0.78996 0.0
H2148 H 0.16992 0.41956 0.73685 0.0
C2149 C 0.11252 0.36031 0.76996 0.0
H2150 H 0.16586 0.41275 0.79267 0.0
C2151 C 0.11487 0.36412 0.73821 0.0
C2152 C 0.13618 0.38483 0.72585 0.0
H2153 H 0.09826 0.34189 0.77874 0.0
H2154 H 0.10252 0.3485 0.7233 0.0
C2155 C 0.15265 0.4041 0.74586 0.0
C2156 C 0.65605 0.11301 0.77432 0.0
C2157 C 0.64002 0.13527 0.79124 0.0
H2158 H 0.66919 0.09728 0.72946 0.0
C2159 C 0.62 0.15519 0.77571 0.0
H2160 H 0.67236 0.09805 0.78568 0.0
C2161 C 0.61742 0.15406 0.74362 0.0
C2162 C 0.63558 0.13366 0.72648 0.0
H2163 H 0.6081 0.17313 0.78816 0.0
H2164 H 0.60371 0.1713 0.73206 0.0
C2165 C 0.65421 0.11252 0.74217 0.0
C2166 C 0.8968 0.64851 0.74374 0.0
C2167 C 0.87407 0.63127 0.7287 0.0
H2168 H 0.91397 0.66507 0.78693 0.0
C2169 C 0.85355 0.61379 0.7464 0.0
H2170 H 0.91217 0.66302 0.73062 0.0
C2171 C 0.85394 0.61571 0.77852 0.0
C2172 C 0.87543 0.63447 0.79354 0.0
H2173 H 0.8352 0.60113 0.73537 0.0
H2174 H 0.83601 0.60437 0.79151 0.0
C2175 C 0.89778 0.64972 0.77595 0.0
C2176 C 0.23742 0.39976 0.15635 0.0
C2177 C 0.22473 0.37892 0.13542 0.0
H2178 H 0.27841 0.4169 0.1772 0.0
C2179 C 0.2443 0.36361 0.11478 0.0
H2180 H 0.22289 0.41126 0.17294 0.0
C2181 C 0.27634 0.36666 0.11733 0.0
C2182 C 0.28901 0.3851 0.14054 0.0
H2183 H 0.23504 0.34674 0.09903 0.0
H2184 H 0.29099 0.35194 0.10367 0.0
C2185 C 0.26923 0.403 0.15871 0.0
C2186 C 0.23191 0.612 0.86573 0.0
C2187 C 0.22044 0.63474 0.88536 0.0
H2188 H 0.27184 0.59183 0.84553 0.0
C2189 C 0.24091 0.65028 0.9049 0.0
H2190 H 0.21668 0.60023 0.84997 0.0
C2191 C 0.27272 0.64554 0.90232 0.0
C2192 C 0.28431 0.62525 0.88009 0.0
H2193 H 0.23263 0.66853 0.91963 0.0
H2194 H 0.28816 0.66044 0.91488 0.0
C2195 C 0.26352 0.60713 0.8633 0.0
C2196 C 0.35922 0.24576 0.90568 0.0
C2197 C 0.37635 0.22575 0.88705 0.0
H2198 H 0.34727 0.29241 0.91548 0.0
C2199 C 0.40012 0.23789 0.86894 0.0
H2200 H 0.34045 0.237 0.91948 0.0
C2201 C 0.40415 0.26986 0.86681 0.0
C2202 C 0.38451 0.28989 0.88282 0.0
H2203 H 0.4131 0.22305 0.85379 0.0
H2204 H 0.42011 0.27887 0.84999 0.0
C2205 C 0.36318 0.27751 0.9035 0.0
C2206 C 0.78292 0.40578 0.87098 0.0
C2207 C 0.79225 0.38225 0.89086 0.0
H2208 H 0.74487 0.42652 0.84773 0.0
C2209 C 0.77004 0.36744 0.90909 0.0
H2210 H 0.79948 0.41714 0.85629 0.0
C2211 C 0.73874 0.37315 0.90457 0.0
C2212 C 0.72932 0.39334 0.88133 0.0
H2213 H 0.77671 0.34892 0.92432 0.0
H2214 H 0.72212 0.35879 0.91626 0.0
C2215 C 0.75161 0.4111 0.86606 0.0
C2216 C 0.61719 0.77714 0.87078 0.0
C2217 C 0.64123 0.78914 0.88862 0.0
H2218 H 0.59656 0.73626 0.8523 0.0
C2219 C 0.65833 0.769 0.90716 0.0
H2220 H 0.6042 0.79205 0.8557 0.0
C2221 C 0.65404 0.73727 0.90519 0.0
C2222 C 0.63236 0.725 0.88483 0.0
H2223 H 0.67728 0.77761 0.92079 0.0
H2224 H 0.66987 0.72227 0.91715 0.0
C2225 C 0.6128 0.74518 0.86888 0.0
C2226 C 0.74347 0.61062 0.15077 0.0
C2227 C 0.72746 0.63135 0.13195 0.0
H2228 H 0.78737 0.59727 0.16876 0.0
C2229 C 0.74414 0.65019 0.11177 0.0
H2230 H 0.73117 0.59662 0.16726 0.0
C2231 C 0.77632 0.64986 0.11195 0.0
C2232 C 0.79228 0.6314 0.13304 0.0
H2233 H 0.73235 0.66702 0.09776 0.0
H2234 H 0.78858 0.66649 0.09808 0.0
C2235 C 0.77563 0.61101 0.15167 0.0
C2236 C 0.35653 0.76764 0.10965 0.0
C2237 C 0.37362 0.78823 0.12766 0.0
H2238 H 0.34545 0.72064 0.10058 0.0
C2239 C 0.3981 0.77684 0.14531 0.0
H2240 H 0.33732 0.77581 0.09613 0.0
C2241 C 0.40286 0.74499 0.14772 0.0
C2242 C 0.38329 0.72436 0.13242 0.0
H2243 H 0.41115 0.79214 0.15992 0.0
H2244 H 0.41939 0.73654 0.16427 0.0
C2245 C 0.36127 0.73602 0.11206 0.0
C2246 C 0.65605 0.24599 0.10876 0.0
C2247 C 0.63944 0.22619 0.12812 0.0
H2248 H 0.6683 0.2925 0.09851 0.0
C2249 C 0.61661 0.23863 0.14717 0.0
H2250 H 0.67421 0.23701 0.09432 0.0
C2251 C 0.61313 0.27064 0.14944 0.0
C2252 C 0.6324 0.29043 0.13266 0.0
H2253 H 0.60413 0.22398 0.16294 0.0
H2254 H 0.598 0.27984 0.16691 0.0
C2255 C 0.65266 0.2778 0.1111 0.0
C2256 C 0.86024 0.77714 0.61077 0.0
C2257 C 0.88122 0.7903 0.6313 0.0
H2258 H 0.83801 0.73602 0.59578 0.0
C2259 C 0.90072 0.77091 0.64825 0.0
H2260 H 0.84448 0.79156 0.59803 0.0
C2261 C 0.89684 0.73886 0.6472 0.0
C2262 C 0.87342 0.72602 0.62915 0.0
H2263 H 0.91642 0.78056 0.66494 0.0
H2264 H 0.90963 0.72461 0.66306 0.0
C2265 C 0.85651 0.74532 0.60958 0.0
C2266 C 0.27002 0.86494 0.60694 0.0
C2267 C 0.28881 0.88214 0.62678 0.0
H2268 H 0.22428 0.8503 0.59629 0.0
C2269 C 0.27504 0.90393 0.64613 0.0
H2270 H 0.28002 0.84747 0.59232 0.0
C2271 C 0.24288 0.90571 0.6482 0.0
C2272 C 0.22426 0.88565 0.63104 0.0
H2273 H 0.28887 0.91676 0.66233 0.0
H2274 H 0.23276 0.92014 0.66574 0.0
C2275 C 0.23806 0.86642 0.60928 0.0
C2276 C 0.11299 0.24612 0.64988 0.0
C2277 C 0.13227 0.22619 0.63332 0.0
H2278 H 0.10438 0.29282 0.66343 0.0
C2279 C 0.1531 0.23868 0.61221 0.0
H2280 H 0.09743 0.237 0.66701 0.0
C2281 C 0.15699 0.27044 0.6101 0.0
C2282 C 0.14031 0.29033 0.62926 0.0
H2283 H 0.16874 0.22384 0.5998 0.0
H2284 H 0.17549 0.27928 0.59599 0.0
C2285 C 0.11696 0.27809 0.64784 0.0
C2286 C 0.76731 0.10292 0.64619 0.0
C2287 C 0.78845 0.12175 0.63055 0.0
H2288 H 0.72004 0.09523 0.65759 0.0
C2289 C 0.77762 0.14173 0.60778 0.0
H2290 H 0.77516 0.08762 0.66418 0.0
C2291 C 0.74601 0.14633 0.6043 0.0
C2292 C 0.72494 0.1307 0.62322 0.0
H2293 H 0.79334 0.15687 0.59584 0.0
H2294 H 0.73823 0.16482 0.58958 0.0
C2295 C 0.73569 0.10722 0.6424 0.0
C2296 C 0.86503 0.23862 0.40378 0.0
C2297 C 0.88588 0.22581 0.38289 0.0
H2298 H 0.84299 0.27952 0.41959 0.0
C2299 C 0.90558 0.24547 0.36645 0.0
H2300 H 0.84908 0.22401 0.41609 0.0
C2301 C 0.90198 0.27749 0.3683 0.0
C2302 C 0.8786 0.29006 0.38659 0.0
H2303 H 0.92117 0.23612 0.34949 0.0
H2304 H 0.91489 0.29202 0.35277 0.0
C2305 C 0.86151 0.27043 0.40569 0.0
C2306 C 0.74704 0.86197 0.40521 0.0
C2307 C 0.72499 0.8771 0.38705 0.0
H2308 H 0.7949 0.85308 0.41272 0.0
C2309 C 0.73468 0.90031 0.36695 0.0
H2310 H 0.74013 0.84357 0.42048 0.0
C2311 C 0.76609 0.90535 0.36215 0.0
C2312 C 0.7882 0.88772 0.37782 0.0
H2313 H 0.71827 0.91178 0.3522 0.0
H2314 H 0.77307 0.92072 0.34385 0.0
C2315 C 0.77844 0.86746 0.40086 0.0
C2316 C 0.11342 0.7727 0.36943 0.0
C2317 C 0.13305 0.79132 0.38709 0.0
H2318 H 0.1039 0.72694 0.35343 0.0
C2319 C 0.15334 0.7773 0.40774 0.0
H2320 H 0.09825 0.78302 0.35264 0.0
C2321 C 0.15638 0.7454 0.40835 0.0
C2322 C 0.13946 0.72688 0.38806 0.0
H2323 H 0.1692 0.79112 0.42102 0.0
H2324 H 0.17448 0.73543 0.42222 0.0
C2325 C 0.11664 0.74057 0.36987 0.0
C2326 C 0.24362 0.11403 0.36506 0.0
C2327 C 0.22651 0.13568 0.38173 0.0
H2328 H 0.28848 0.10029 0.34981 0.0
C2329 C 0.24207 0.1564 0.40091 0.0
H2330 H 0.23219 0.09851 0.34934 0.0
C2331 C 0.27422 0.15677 0.40189 0.0
C2332 C 0.29137 0.13703 0.38304 0.0
H2333 H 0.22944 0.17387 0.4133 0.0
H2334 H 0.28562 0.17462 0.41494 0.0
C2335 C 0.27582 0.11502 0.36533 0.0
C2336 C 0.61578 0.86339 0.77795 0.0
C2337 C 0.6373 0.88344 0.79092 0.0
H2338 H 0.59861 0.84299 0.73674 0.0
C2339 C 0.65401 0.90315 0.7715 0.0
H2340 H 0.60321 0.84748 0.79238 0.0
C2341 C 0.65156 0.90046 0.73941 0.0
C2342 C 0.6323 0.87806 0.72653 0.0
H2343 H 0.67142 0.91816 0.781 0.0
H2344 H 0.66724 0.91327 0.72497 0.0
C2345 C 0.61313 0.86091 0.74607 0.0
C2346 C 0.15514 0.61351 0.74745 0.0
C2347 C 0.13959 0.63126 0.72534 0.0
H2348 H 0.16428 0.60629 0.79535 0.0
C2349 C 0.11608 0.65096 0.73504 0.0
H2350 H 0.17377 0.59856 0.74053 0.0
C2351 C 0.11102 0.65572 0.76647 0.0
C2352 C 0.12895 0.64042 0.78862 0.0
H2353 H 0.10428 0.66541 0.71859 0.0
H2354 H 0.09534 0.67372 0.77344 0.0
C2355 C 0.14966 0.61783 0.77887 0.0
C2356 C 0.36784 0.11456 0.73917 0.0
C2357 C 0.38645 0.13778 0.72675 0.0
H2358 H 0.34845 0.09553 0.78039 0.0
C2359 C 0.40545 0.15476 0.74655 0.0
H2360 H 0.35239 0.10175 0.72449 0.0
C2361 C 0.40312 0.15132 0.77836 0.0
C2362 C 0.38196 0.13062 0.79096 0.0
H2363 H 0.41958 0.17317 0.73755 0.0
H2364 H 0.41539 0.16718 0.79307 0.0
C2365 C 0.3656 0.11102 0.77118 0.0
C2366 C 0.90019 0.36761 0.77088 0.0
C2367 C 0.87998 0.38308 0.79076 0.0
H2368 H 0.90975 0.35476 0.72412 0.0
C2369 C 0.85815 0.40311 0.77827 0.0
H2370 H 0.91666 0.35138 0.78004 0.0
C2371 C 0.85445 0.40527 0.7465 0.0
C2372 C 0.87216 0.38708 0.72659 0.0
H2373 H 0.84196 0.41481 0.79309 0.0
H2374 H 0.83547 0.41869 0.73762 0.0
C2375 C 0.89628 0.36956 0.73887 0.0
C2376 C 0.61398 0.1533 0.23764 0.0
C2377 C 0.63486 0.13223 0.2252 0.0
H2378 H 0.59781 0.17574 0.27821 0.0
C2379 C 0.65104 0.11269 0.24521 0.0
H2380 H 0.60185 0.16914 0.22276 0.0
C2381 C 0.64888 0.11658 0.2772 0.0
C2382 C 0.63053 0.14011 0.28941 0.0
H2383 H 0.66802 0.09694 0.23616 0.0
H2384 H 0.66417 0.10373 0.29201 0.0
C2385 C 0.61175 0.15711 0.26942 0.0
C2386 C 0.87097 0.61459 0.24465 0.0
C2387 C 0.89022 0.63631 0.23057 0.0
H2388 H 0.85103 0.59908 0.28709 0.0
C2389 C 0.90937 0.65442 0.24923 0.0
H2390 H 0.85525 0.6011 0.23091 0.0
C2391 C 0.90645 0.65384 0.2812 0.0
C2392 C 0.88487 0.63453 0.29517 0.0
H2393 H 0.92386 0.67187 0.23897 0.0
H2394 H 0.91893 0.67053 0.29475 0.0
C2395 C 0.8684 0.61364 0.27684 0.0
C2396 C 0.36515 0.89845 0.27746 0.0
C2397 C 0.38303 0.87492 0.29038 0.0
H2398 H 0.34645 0.91745 0.23584 0.0
C2399 C 0.40097 0.85659 0.27076 0.0
H2400 H 0.35039 0.91225 0.29193 0.0
C2401 C 0.3985 0.85932 0.23887 0.0
C2402 C 0.37836 0.88074 0.22584 0.0
H2403 H 0.41443 0.83785 0.28008 0.0
H2404 H 0.41009 0.8427 0.22445 0.0
C2405 C 0.36286 0.90136 0.24533 0.0
C2406 C 0.11245 0.35983 0.28142 0.0
C2407 C 0.1332 0.38132 0.29336 0.0
H2408 H 0.09593 0.33696 0.24126 0.0
C2409 C 0.14864 0.40112 0.27302 0.0
H2410 H 0.10085 0.34386 0.29658 0.0
C2411 C 0.14597 0.39706 0.2411 0.0
C2412 C 0.12788 0.3731 0.22935 0.0
H2413 H 0.16545 0.41726 0.28172 0.0
H2414 H 0.16075 0.41016 0.22597 0.0
C2415 C 0.10972 0.35586 0.24972 0.0
C2416 C 0.77649 0.61256 0.87082 0.0
C2417 C 0.78634 0.63391 0.89277 0.0
H2418 H 0.73818 0.59539 0.84522 0.0
C2419 C 0.76432 0.64814 0.91168 0.0
H2420 H 0.79289 0.60182 0.85552 0.0
C2421 C 0.73292 0.64423 0.90602 0.0
C2422 C 0.72324 0.62642 0.88105 0.0
H2423 H 0.7714 0.66513 0.92842 0.0
H2424 H 0.7166 0.65819 0.91856 0.0
C2425 C 0.74512 0.60907 0.8648 0.0
C2426 C 0.77953 0.40392 0.14946 0.0
C2427 C 0.7923 0.38245 0.1292 0.0
H2428 H 0.73865 0.42037 0.17109 0.0
C2429 C 0.77263 0.36554 0.10995 0.0
H2430 H 0.79415 0.4166 0.16509 0.0
C2431 C 0.74062 0.36755 0.11349 0.0
C2432 C 0.72808 0.38648 0.13636 0.0
H2433 H 0.78196 0.34813 0.09484 0.0
H2434 H 0.72608 0.35169 0.10103 0.0
C2435 C 0.74772 0.406 0.15292 0.0
C2436 C 0.60872 0.74592 0.15243 0.0
C2437 C 0.62815 0.72704 0.13487 0.0
H2438 H 0.59875 0.79166 0.1675 0.0
C2439 C 0.64743 0.74076 0.11295 0.0
H2440 H 0.59416 0.73593 0.16999 0.0
C2441 C 0.64984 0.7729 0.11136 0.0
C2442 C 0.63312 0.79153 0.13177 0.0
H2443 H 0.66332 0.72684 0.09984 0.0
H2444 H 0.6673 0.78295 0.09677 0.0
C2445 C 0.61142 0.77785 0.15115 0.0
C2446 C 0.25066 0.65189 0.1066 0.0
C2447 C 0.22844 0.63686 0.12468 0.0
H2448 H 0.2985 0.66183 0.10026 0.0
C2449 C 0.23809 0.61452 0.14575 0.0
H2450 H 0.24378 0.66964 0.09059 0.0
C2451 C 0.26943 0.6105 0.15169 0.0
C2452 C 0.29155 0.62828 0.13619 0.0
H2453 H 0.22155 0.60314 0.16046 0.0
H2454 H 0.27622 0.59589 0.17065 0.0
C2455 C 0.28204 0.64743 0.11213 0.0
C2456 C 0.36699 0.24796 0.1054 0.0
C2457 C 0.38353 0.22804 0.1247 0.0
H2458 H 0.3534 0.2944 0.09649 0.0
C2459 C 0.40536 0.24057 0.14483 0.0
H2460 H 0.34951 0.23891 0.09019 0.0
C2461 C 0.40765 0.27256 0.14834 0.0
C2462 C 0.38821 0.29227 0.13171 0.0
H2463 H 0.4177 0.22582 0.16061 0.0
H2464 H 0.42191 0.28162 0.1666 0.0
C2465 C 0.36914 0.27978 0.10903 0.0
C2466 C 0.23896 0.40272 0.86489 0.0
C2467 C 0.22678 0.38127 0.88558 0.0
H2468 H 0.27934 0.41969 0.84267 0.0
C2469 C 0.24692 0.36496 0.90485 0.0
H2470 H 0.22397 0.41495 0.84926 0.0
C2471 C 0.27885 0.36757 0.901 0.0
C2472 C 0.29084 0.38644 0.87775 0.0
H2473 H 0.23805 0.34758 0.9203 0.0
H2474 H 0.2938 0.35217 0.91357 0.0
C2475 C 0.27069 0.40535 0.86109 0.0
C2476 C 0.62282 0.24293 0.87229 0.0
C2477 C 0.64713 0.23034 0.88932 0.0
H2478 H 0.60283 0.2843 0.85421 0.0
C2479 C 0.66573 0.25004 0.90684 0.0
H2480 H 0.60866 0.22831 0.85802 0.0
C2481 C 0.66268 0.28183 0.90438 0.0
C2482 C 0.64061 0.29456 0.88478 0.0
H2483 H 0.68483 0.2409 0.91989 0.0
H2484 H 0.67948 0.29642 0.9155 0.0
C2485 C 0.61954 0.27497 0.87009 0.0
C2486 C 0.35915 0.73458 0.9077 0.0
C2487 C 0.37915 0.72098 0.88655 0.0
H2488 H 0.34023 0.77646 0.92484 0.0
C2489 C 0.40035 0.73959 0.87079 0.0
H2490 H 0.34225 0.72077 0.91965 0.0
C2491 C 0.39902 0.77172 0.8735 0.0
C2492 C 0.37657 0.78541 0.89214 0.0
H2493 H 0.41548 0.72959 0.85377 0.0
H2494 H 0.41284 0.78569 0.85825 0.0
C2495 C 0.35815 0.76648 0.91076 0.0
loop_
_geom_bond_atom_site_label_1
_geom_bond_atom_site_label_2
_geom_bond_distance
_geom_bond_site_symmetry_2
_ccdc_geom_bond_type
Fe0 O2 1.918 . S
Fe0 O5 1.997 . S
Fe0 O6 2.002 . S
Fe0 O11 1.976 . S
Fe0 O14 1.996 . S
Fe1 O2 1.918 . S
Fe1 O9 1.997 . S
Fe1 O12 1.996 . S
Fe1 O16 1.976 . S
Fe1 O19 2.002 . S
O2 Fe0 1.918 . S
O2 Fe1 1.918 . S
O2 Fe3 1.918 . S
Fe3 O2 1.918 . S
Fe3 O4 2.002 . S
Fe3 O13 1.976 . S
Fe3 O17 1.996 . S
Fe3 O20 1.997 . S
O4 Fe3 2.002 . S
O4 C21 1.295 . S
O5 Fe0 1.997 . S
O5 C21 1.235 . S
O6 Fe0 2.002 . S
O6 C7 1.295 . S
C7 O6 1.295 . S
C7 O9 1.235 . S
C8 O13 1.287 . S
C8 O14 1.255 . S
O9 Fe1 1.997 . S
O9 C7 1.235 . S
C10 O16 1.287 . S
C10 O17 1.255 . S
O11 Fe0 1.976 . S
O11 C18 1.287 . S
O12 Fe1 1.996 . S
O12 C18 1.255 . S
O13 Fe3 1.976 . S
O13 C8 1.287 . S
O14 Fe0 1.996 . S
O14 C8 1.255 . S
C15 O19 1.295 . S
C15 O20 1.235 . S
O16 Fe1 1.976 . S
O16 C10 1.287 . S
O17 Fe3 1.996 . S
O17 C10 1.255 . S
C18 O11 1.287 . S
C18 O12 1.255 . S
O19 Fe1 2.002 . S
O19 C15 1.295 . S
O20 Fe3 1.997 . S
O20 C15 1.235 . S
C21 O4 1.295 . S
C21 O5 1.235 . S
Fe22 O24 1.918 . S
Fe22 O27 1.997 . S
Fe22 O28 2.002 . S
Fe22 O33 1.976 . S
Fe22 O36 1.996 . S
Fe23 O24 1.918 . S
Fe23 O31 1.997 . S
Fe23 O34 1.996 . S
Fe23 O38 1.976 . S
Fe23 O41 2.002 . S
O24 Fe22 1.918 . S
O24 Fe23 1.918 . S
O24 Fe25 1.918 . S
Fe25 O24 1.918 . S
Fe25 O26 2.002 . S
Fe25 O35 1.976 . S
Fe25 O39 1.996 . S
Fe25 O42 1.997 . S
O26 Fe25 2.002 . S
O26 C43 1.295 . S
O27 Fe22 1.997 . S
O27 C43 1.235 . S
O28 Fe22 2.002 . S
O28 C29 1.295 . S
C29 O28 1.295 . S
C29 O31 1.235 . S
C30 O35 1.287 . S
C30 O36 1.255 . S
O31 Fe23 1.997 . S
O31 C29 1.235 . S
C32 O38 1.287 . S
C32 O39 1.255 . S
O33 Fe22 1.976 . S
O33 C40 1.287 . S
O34 Fe23 1.996 . S
O34 C40 1.255 . S
O35 Fe25 1.976 . S
O35 C30 1.287 . S
O36 Fe22 1.996 . S
O36 C30 1.255 . S
C37 O41 1.295 . S
C37 O42 1.235 . S
O38 Fe23 1.976 . S
O38 C32 1.287 . S
O39 Fe25 1.996 . S
O39 C32 1.255 . S
C40 O33 1.287 . S
C40 O34 1.255 . S
O41 Fe23 2.002 . S
O41 C37 1.295 . S
O42 Fe25 1.997 . S
O42 C37 1.235 . S
C43 O26 1.295 . S
C43 O27 1.235 . S
Fe44 O46 1.918 . S
Fe44 O49 1.997 . S
Fe44 O50 2.002 . S
Fe44 O55 1.976 . S
Fe44 O58 1.996 . S
Fe45 O46 1.918 . S
Fe45 O53 1.997 . S
Fe45 O56 1.996 . S
Fe45 O60 1.976 . S
Fe45 O63 2.002 . S
O46 Fe44 1.918 . S
O46 Fe45 1.918 . S
O46 Fe47 1.918 . S
Fe47 O46 1.918 . S
Fe47 O48 2.002 . S
Fe47 O57 1.976 . S
Fe47 O61 1.996 . S
Fe47 O64 1.997 . S
O48 Fe47 2.002 . S
O48 C65 1.295 . S
O49 Fe44 1.997 . S
O49 C65 1.235 . S
O50 Fe44 2.002 . S
O50 C51 1.295 . S
C51 O50 1.295 . S
C51 O53 1.235 . S
C52 O57 1.287 . S
C52 O58 1.255 . S
O53 Fe45 1.997 . S
O53 C51 1.235 . S
C54 O60 1.287 . S
C54 O61 1.255 . S
O55 Fe44 1.976 . S
O55 C62 1.287 . S
O56 Fe45 1.996 . S
O56 C62 1.255 . S
O57 Fe47 1.976 . S
O57 C52 1.287 . S
O58 Fe44 1.996 . S
O58 C52 1.255 . S
C59 O63 1.295 . S
C59 O64 1.235 . S
O60 Fe45 1.976 . S
O60 C54 1.287 . S
O61 Fe47 1.996 . S
O61 C54 1.255 . S
C62 O55 1.287 . S
C62 O56 1.255 . S
O63 Fe45 2.002 . S
O63 C59 1.295 . S
O64 Fe47 1.997 . S
O64 C59 1.235 . S
C65 O48 1.295 . S
C65 O49 1.235 . S
Fe66 O68 1.918 . S
Fe66 O71 1.997 . S
Fe66 O72 2.002 . S
Fe66 O77 1.976 . S
Fe66 O80 1.996 . S
Fe67 O68 1.918 . S
Fe67 O75 1.997 . S
Fe67 O78 1.996 . S
Fe67 O82 1.976 . S
Fe67 O85 2.002 . S
O68 Fe66 1.918 . S
O68 Fe67 1.918 . S
O68 Fe69 1.918 . S
Fe69 O68 1.918 . S
Fe69 O70 2.002 . S
Fe69 O79 1.976 . S
Fe69 O83 1.996 . S
Fe69 O86 1.997 . S
O70 Fe69 2.002 . S
O70 C87 1.295 . S
O71 Fe66 1.997 . S
O71 C87 1.235 . S
O72 Fe66 2.002 . S
O72 C73 1.295 . S
C73 O72 1.295 . S
C73 O75 1.235 . S
C74 O79 1.287 . S
C74 O80 1.255 . S
O75 Fe67 1.997 . S
O75 C73 1.235 . S
C76 O82 1.287 . S
C76 O83 1.255 . S
O77 Fe66 1.976 . S
O77 C84 1.287 . S
O78 Fe67 1.996 . S
O78 C84 1.255 . S
O79 Fe69 1.976 . S
O79 C74 1.287 . S
O80 Fe66 1.996 . S
O80 C74 1.255 . S
C81 O85 1.295 . S
C81 O86 1.235 . S
O82 Fe67 1.976 . S
O82 C76 1.287 . S
O83 Fe69 1.996 . S
O83 C76 1.255 . S
C84 O77 1.287 . S
C84 O78 1.255 . S
O85 Fe67 2.002 . S
O85 C81 1.295 . S
O86 Fe69 1.997 . S
O86 C81 1.235 . S
C87 O70 1.295 . S
C87 O71 1.235 . S
Fe88 O90 1.918 . S
Fe88 O93 1.997 . S
Fe88 O94 2.002 . S
Fe88 O99 1.976 . S
Fe88 O102 1.996 . S
Fe89 O90 1.918 . S
Fe89 O97 1.997 . S
Fe89 O100 1.996 . S
Fe89 O104 1.976 . S
Fe89 O107 2.002 . S
O90 Fe88 1.918 . S
O90 Fe89 1.918 . S
O90 Fe91 1.918 . S
Fe91 O90 1.918 . S
Fe91 O92 2.002 . S
Fe91 O101 1.976 . S
Fe91 O105 1.996 . S
Fe91 O108 1.997 . S
O92 Fe91 2.002 . S
O92 C109 1.295 . S
O93 Fe88 1.997 . S
O93 C109 1.235 . S
O94 Fe88 2.002 . S
O94 C95 1.295 . S
C95 O94 1.295 . S
C95 O97 1.235 . S
C96 O101 1.287 . S
C96 O102 1.255 . S
O97 Fe89 1.997 . S
O97 C95 1.235 . S
C98 O104 1.287 . S
C98 O105 1.255 . S
O99 Fe88 1.976 . S
O99 C106 1.287 . S
O100 Fe89 1.996 . S
O100 C106 1.255 . S
O101 Fe91 1.976 . S
O101 C96 1.287 . S
O102 Fe88 1.996 . S
O102 C96 1.255 . S
C103 O107 1.295 . S
C103 O108 1.235 . S
O104 Fe89 1.976 . S
O104 C98 1.287 . S
O105 Fe91 1.996 . S
O105 C98 1.255 . S
C106 O99 1.287 . S
C106 O100 1.255 . S
O107 Fe89 2.002 . S
O107 C103 1.295 . S
O108 Fe91 1.997 . S
O108 C103 1.235 . S
C109 O92 1.295 . S
C109 O93 1.235 . S
Fe110 O112 1.918 . S
Fe110 O115 1.997 . S
Fe110 O116 2.002 . S
Fe110 O121 1.976 . S
Fe110 O124 1.996 . S
Fe111 O112 1.918 . S
Fe111 O119 1.997 . S
Fe111 O122 1.996 . S
Fe111 O126 1.976 . S
Fe111 O129 2.002 . S
O112 Fe110 1.918 . S
O112 Fe111 1.918 . S
O112 Fe113 1.918 . S
Fe113 O112 1.918 . S
Fe113 O114 2.002 . S
Fe113 O123 1.976 . S
Fe113 O127 1.996 . S
Fe113 O130 1.997 . S
O114 Fe113 2.002 . S
O114 C131 1.295 . S
O115 Fe110 1.997 . S
O115 C131 1.235 . S
O116 Fe110 2.002 . S
O116 C117 1.295 . S
C117 O116 1.295 . S
C117 O119 1.235 . S
C118 O123 1.287 . S
C118 O124 1.255 . S
O119 Fe111 1.997 . S
O119 C117 1.235 . S
C120 O126 1.287 . S
C120 O127 1.255 . S
O121 Fe110 1.976 . S
O121 C128 1.287 . S
O122 Fe111 1.996 . S
O122 C128 1.255 . S
O123 Fe113 1.976 . S
O123 C118 1.287 . S
O124 Fe110 1.996 . S
O124 C118 1.255 . S
C125 O129 1.295 . S
C125 O130 1.235 . S
O126 Fe111 1.976 . S
O126 C120 1.287 . S
O127 Fe113 1.996 . S
O127 C120 1.255 . S
C128 O121 1.287 . S
C128 O122 1.255 . S
O129 Fe111 2.002 . S
O129 C125 1.295 . S
O130 Fe113 1.997 . S
O130 C125 1.235 . S
C131 O114 1.295 . S
C131 O115 1.235 . S
Fe132 O134 1.918 . S
Fe132 O137 1.997 . S
Fe132 O138 2.002 . S
Fe132 O143 1.976 . S
Fe132 O146 1.996 . S
Fe133 O134 1.918 . S
Fe133 O141 1.997 . S
Fe133 O144 1.996 . S
Fe133 O148 1.976 . S
Fe133 O151 2.002 . S
O134 Fe132 1.918 . S
O134 Fe133 1.918 . S
O134 Fe135 1.918 . S
Fe135 O134 1.918 . S
Fe135 O136 2.002 . S
Fe135 O145 1.976 . S
Fe135 O149 1.996 . S
Fe135 O152 1.997 . S
O136 Fe135 2.002 . S
O136 C153 1.295 . S
O137 Fe132 1.997 . S
O137 C153 1.235 . S
O138 Fe132 2.002 . S
O138 C139 1.295 . S
C139 O138 1.295 . S
C139 O141 1.235 . S
C140 O145 1.287 . S
C140 O146 1.255 . S
O141 Fe133 1.997 . S
O141 C139 1.235 . S
C142 O148 1.287 . S
C142 O149 1.255 . S
O143 Fe132 1.976 . S
O143 C150 1.287 . S
O144 Fe133 1.996 . S
O144 C150 1.255 . S
O145 Fe135 1.976 . S
O145 C140 1.287 . S
O146 Fe132 1.996 . S
O146 C140 1.255 . S
C147 O151 1.295 . S
C147 O152 1.235 . S
O148 Fe133 1.976 . S
O148 C142 1.287 . S
O149 Fe135 1.996 . S
O149 C142 1.255 . S
C150 O143 1.287 . S
C150 O144 1.255 . S
O151 Fe133 2.002 . S
O151 C147 1.295 . S
O152 Fe135 1.997 . S
O152 C147 1.235 . S
C153 O136 1.295 . S
C153 O137 1.235 . S
Fe154 O156 1.918 . S
Fe154 O159 1.997 . S
Fe154 O160 2.002 . S
Fe154 O165 1.976 . S
Fe154 O168 1.996 . S
Fe155 O156 1.918 . S
Fe155 O163 1.997 . S
Fe155 O166 1.996 . S
Fe155 O170 1.976 . S
Fe155 O173 2.002 . S
O156 Fe154 1.918 . S
O156 Fe155 1.918 . S
O156 Fe157 1.918 . S
Fe157 O156 1.918 . S
Fe157 O158 2.002 . S
Fe157 O167 1.976 . S
Fe157 O171 1.996 . S
Fe157 O174 1.997 . S
O158 Fe157 2.002 . S
O158 C175 1.295 . S
O159 Fe154 1.997 . S
O159 C175 1.235 . S
O160 Fe154 2.002 . S
O160 C161 1.295 . S
C161 O160 1.295 . S
C161 O163 1.235 . S
C162 O167 1.287 . S
C162 O168 1.255 . S
O163 Fe155 1.997 . S
O163 C161 1.235 . S
C164 O170 1.287 . S
C164 O171 1.255 . S
O165 Fe154 1.976 . S
O165 C172 1.287 . S
O166 Fe155 1.996 . S
O166 C172 1.255 . S
O167 Fe157 1.976 . S
O167 C162 1.287 . S
O168 Fe154 1.996 . S
O168 C162 1.255 . S
C169 O173 1.295 . S
C169 O174 1.235 . S
O170 Fe155 1.976 . S
O170 C164 1.287 . S
O171 Fe157 1.996 . S
O171 C164 1.255 . S
C172 O165 1.287 . S
C172 O166 1.255 . S
O173 Fe155 2.002 . S
O173 C169 1.295 . S
O174 Fe157 1.997 . S
O174 C169 1.235 . S
C175 O158 1.295 . S
C175 O159 1.235 . S
Fe176 O178 1.918 . S
Fe176 O181 1.997 . S
Fe176 O182 2.002 . S
Fe176 O187 1.976 . S
Fe176 O190 1.996 . S
Fe177 O178 1.918 . S
Fe177 O185 1.997 . S
Fe177 O188 1.996 . S
Fe177 O192 1.976 . S
Fe177 O195 2.002 . S
O178 Fe176 1.918 . S
O178 Fe177 1.918 . S
O178 Fe179 1.918 . S
Fe179 O178 1.918 . S
Fe179 O180 2.002 . S
Fe179 O189 1.976 . S
Fe179 O193 1.996 . S
Fe179 O196 1.997 . S
O180 Fe179 2.002 . S
O180 C197 1.295 . S
O181 Fe176 1.997 . S
O181 C197 1.235 . S
O182 Fe176 2.002 . S
O182 C183 1.295 . S
C183 O182 1.295 . S
C183 O185 1.235 . S
C184 O189 1.287 . S
C184 O190 1.255 . S
O185 Fe177 1.997 . S
O185 C183 1.235 . S
C186 O192 1.287 . S
C186 O193 1.255 . S
O187 Fe176 1.976 . S
O187 C194 1.287 . S
O188 Fe177 1.996 . S
O188 C194 1.255 . S
O189 Fe179 1.976 . S
O189 C184 1.287 . S
O190 Fe176 1.996 . S
O190 C184 1.255 . S
C191 O195 1.295 . S
C191 O196 1.235 . S
O192 Fe177 1.976 . S
O192 C186 1.287 . S
O193 Fe179 1.996 . S
O193 C186 1.255 . S
C194 O187 1.287 . S
C194 O188 1.255 . S
O195 Fe177 2.002 . S
O195 C191 1.295 . S
O196 Fe179 1.997 . S
O196 C191 1.235 . S
C197 O180 1.295 . S
C197 O181 1.235 . S
Fe198 O200 1.918 . S
Fe198 O203 1.997 . S
Fe198 O204 2.002 . S
Fe198 O209 1.976 . S
Fe198 O212 1.996 . S
Fe199 O200 1.918 . S
Fe199 O207 1.997 . S
Fe199 O210 1.996 . S
Fe199 O214 1.976 . S
Fe199 O217 2.002 . S
O200 Fe198 1.918 . S
O200 Fe199 1.918 . S
O200 Fe201 1.918 . S
Fe201 O200 1.918 . S
Fe201 O202 2.002 . S
Fe201 O211 1.976 . S
Fe201 O215 1.996 . S
Fe201 O218 1.997 . S
O202 Fe201 2.002 . S
O202 C219 1.295 . S
O203 Fe198 1.997 . S
O203 C219 1.235 . S
O204 Fe198 2.002 . S
O204 C205 1.295 . S
C205 O204 1.295 . S
C205 O207 1.235 . S
C206 O211 1.287 . S
C206 O212 1.255 . S
O207 Fe199 1.997 . S
O207 C205 1.235 . S
C208 O214 1.287 . S
C208 O215 1.255 . S
O209 Fe198 1.976 . S
O209 C216 1.287 . S
O210 Fe199 1.996 . S
O210 C216 1.255 . S
O211 Fe201 1.976 . S
O211 C206 1.287 . S
O212 Fe198 1.996 . S
O212 C206 1.255 . S
C213 O217 1.295 . S
C213 O218 1.235 . S
O214 Fe199 1.976 . S
O214 C208 1.287 . S
O215 Fe201 1.996 . S
O215 C208 1.255 . S
C216 O209 1.287 . S
C216 O210 1.255 . S
O217 Fe199 2.002 . S
O217 C213 1.295 . S
O218 Fe201 1.997 . S
O218 C213 1.235 . S
C219 O202 1.295 . S
C219 O203 1.235 . S
Fe220 O222 1.918 . S
Fe220 O225 1.997 . S
Fe220 O226 2.002 . S
Fe220 O231 1.976 . S
Fe220 O234 1.996 . S
Fe221 O222 1.918 . S
Fe221 O229 1.997 . S
Fe221 O232 1.996 . S
Fe221 O236 1.976 . S
Fe221 O239 2.002 . S
O222 Fe220 1.918 . S
O222 Fe221 1.918 . S
O222 Fe223 1.918 . S
Fe223 O222 1.918 . S
Fe223 O224 2.002 . S
Fe223 O233 1.976 . S
Fe223 O237 1.996 . S
Fe223 O240 1.997 . S
O224 Fe223 2.002 . S
O224 C241 1.295 . S
O225 Fe220 1.997 . S
O225 C241 1.235 . S
O226 Fe220 2.002 . S
O226 C227 1.295 . S
C227 O226 1.295 . S
C227 O229 1.235 . S
C228 O233 1.287 . S
C228 O234 1.255 . S
O229 Fe221 1.997 . S
O229 C227 1.235 . S
C230 O236 1.287 . S
C230 O237 1.255 . S
O231 Fe220 1.976 . S
O231 C238 1.287 . S
O232 Fe221 1.996 . S
O232 C238 1.255 . S
O233 Fe223 1.976 . S
O233 C228 1.287 . S
O234 Fe220 1.996 . S
O234 C228 1.255 . S
C235 O239 1.295 . S
C235 O240 1.235 . S
O236 Fe221 1.976 . S
O236 C230 1.287 . S
O237 Fe223 1.996 . S
O237 C230 1.255 . S
C238 O231 1.287 . S
C238 O232 1.255 . S
O239 Fe221 2.002 . S
O239 C235 1.295 . S
O240 Fe223 1.997 . S
O240 C235 1.235 . S
C241 O224 1.295 . S
C241 O225 1.235 . S
Fe242 O244 1.918 . S
Fe242 O247 1.997 . S
Fe242 O248 2.002 . S
Fe242 O253 1.976 . S
Fe242 O256 1.996 . S
Fe243 O244 1.918 . S
Fe243 O251 1.997 . S
Fe243 O254 1.996 . S
Fe243 O258 1.976 . S
Fe243 O261 2.002 . S
O244 Fe242 1.918 . S
O244 Fe243 1.918 . S
O244 Fe245 1.918 . S
Fe245 O244 1.918 . S
Fe245 O246 2.002 . S
Fe245 O255 1.976 . S
Fe245 O259 1.996 . S
Fe245 O262 1.997 . S
O246 Fe245 2.002 . S
O246 C263 1.295 . S
O247 Fe242 1.997 . S
O247 C263 1.235 . S
O248 Fe242 2.002 . S
O248 C249 1.295 . S
C249 O248 1.295 . S
C249 O251 1.235 . S
C250 O255 1.287 . S
C250 O256 1.255 . S
O251 Fe243 1.997 . S
O251 C249 1.235 . S
C252 O258 1.287 . S
C252 O259 1.255 . S
O253 Fe242 1.976 . S
O253 C260 1.287 . S
O254 Fe243 1.996 . S
O254 C260 1.255 . S
O255 Fe245 1.976 . S
O255 C250 1.287 . S
O256 Fe242 1.996 . S
O256 C250 1.255 . S
C257 O261 1.295 . S
C257 O262 1.235 . S
O258 Fe243 1.976 . S
O258 C252 1.287 . S
O259 Fe245 1.996 . S
O259 C252 1.255 . S
C260 O253 1.287 . S
C260 O254 1.255 . S
O261 Fe243 2.002 . S
O261 C257 1.295 . S
O262 Fe245 1.997 . S
O262 C257 1.235 . S
C263 O246 1.295 . S
C263 O247 1.235 . S
Fe264 O266 1.918 . S
Fe264 O269 1.997 . S
Fe264 O270 2.002 . S
Fe264 O275 1.976 . S
Fe264 O278 1.996 . S
Fe265 O266 1.918 . S
Fe265 O273 1.997 . S
Fe265 O276 1.996 . S
Fe265 O280 1.976 . S
Fe265 O283 2.002 . S
O266 Fe264 1.918 . S
O266 Fe265 1.918 . S
O266 Fe267 1.918 . S
Fe267 O266 1.918 . S
Fe267 O268 2.002 . S
Fe267 O277 1.976 . S
Fe267 O281 1.996 . S
Fe267 O284 1.997 . S
O268 Fe267 2.002 . S
O268 C285 1.295 . S
O269 Fe264 1.997 . S
O269 C285 1.235 . S
O270 Fe264 2.002 . S
O270 C271 1.295 . S
C271 O270 1.295 . S
C271 O273 1.235 . S
C272 O277 1.287 . S
C272 O278 1.255 . S
O273 Fe265 1.997 . S
O273 C271 1.235 . S
C274 O280 1.287 . S
C274 O281 1.255 . S
O275 Fe264 1.976 . S
O275 C282 1.287 . S
O276 Fe265 1.996 . S
O276 C282 1.255 . S
O277 Fe267 1.976 . S
O277 C272 1.287 . S
O278 Fe264 1.996 . S
O278 C272 1.255 . S
C279 O283 1.295 . S
C279 O284 1.235 . S
O280 Fe265 1.976 . S
O280 C274 1.287 . S
O281 Fe267 1.996 . S
O281 C274 1.255 . S
C282 O275 1.287 . S
C282 O276 1.255 . S
O283 Fe265 2.002 . S
O283 C279 1.295 . S
O284 Fe267 1.997 . S
O284 C279 1.235 . S
C285 O268 1.295 . S
C285 O269 1.235 . S
Fe286 O288 1.918 . S
Fe286 O291 1.997 . S
Fe286 O292 2.002 . S
Fe286 O297 1.976 . S
Fe286 O300 1.996 . S
Fe287 O288 1.918 . S
Fe287 O295 1.997 . S
Fe287 O298 1.996 . S
Fe287 O302 1.976 . S
Fe287 O305 2.002 . S
O288 Fe286 1.918 . S
O288 Fe287 1.918 . S
O288 Fe289 1.918 . S
Fe289 O288 1.918 . S
Fe289 O290 2.002 . S
Fe289 O299 1.976 . S
Fe289 O303 1.996 . S
Fe289 O306 1.997 . S
O290 Fe289 2.002 . S
O290 C307 1.295 . S
O291 Fe286 1.997 . S
O291 C307 1.235 . S
O292 Fe286 2.002 . S
O292 C293 1.295 . S
C293 O292 1.295 . S
C293 O295 1.235 . S
C294 O299 1.287 . S
C294 O300 1.255 . S
O295 Fe287 1.997 . S
O295 C293 1.235 . S
C296 O302 1.287 . S
C296 O303 1.255 . S
O297 Fe286 1.976 . S
O297 C304 1.287 . S
O298 Fe287 1.996 . S
O298 C304 1.255 . S
O299 Fe289 1.976 . S
O299 C294 1.287 . S
O300 Fe286 1.996 . S
O300 C294 1.255 . S
C301 O305 1.295 . S
C301 O306 1.235 . S
O302 Fe287 1.976 . S
O302 C296 1.287 . S
O303 Fe289 1.996 . S
O303 C296 1.255 . S
C304 O297 1.287 . S
C304 O298 1.255 . S
O305 Fe287 2.002 . S
O305 C301 1.295 . S
O306 Fe289 1.997 . S
O306 C301 1.235 . S
C307 O290 1.295 . S
C307 O291 1.235 . S
Fe308 O310 1.918 . S
Fe308 O313 1.997 . S
Fe308 O314 2.002 . S
Fe308 O319 1.976 . S
Fe308 O322 1.996 . S
Fe309 O310 1.918 . S
Fe309 O317 1.997 . S
Fe309 O320 1.996 . S
Fe309 O324 1.976 . S
Fe309 O327 2.002 . S
O310 Fe308 1.918 . S
O310 Fe309 1.918 . S
O310 Fe311 1.918 . S
Fe311 O310 1.918 . S
Fe311 O312 2.002 . S
Fe311 O321 1.976 . S
Fe311 O325 1.996 . S
Fe311 O328 1.997 . S
O312 Fe311 2.002 . S
O312 C329 1.295 . S
O313 Fe308 1.997 . S
O313 C329 1.235 . S
O314 Fe308 2.002 . S
O314 C315 1.295 . S
C315 O314 1.295 . S
C315 O317 1.235 . S
C316 O321 1.287 . S
C316 O322 1.255 . S
O317 Fe309 1.997 . S
O317 C315 1.235 . S
C318 O324 1.287 . S
C318 O325 1.255 . S
O319 Fe308 1.976 . S
O319 C326 1.287 . S
O320 Fe309 1.996 . S
O320 C326 1.255 . S
O321 Fe311 1.976 . S
O321 C316 1.287 . S
O322 Fe308 1.996 . S
O322 C316 1.255 . S
C323 O327 1.295 . S
C323 O328 1.235 . S
O324 Fe309 1.976 . S
O324 C318 1.287 . S
O325 Fe311 1.996 . S
O325 C318 1.255 . S
C326 O319 1.287 . S
C326 O320 1.255 . S
O327 Fe309 2.002 . S
O327 C323 1.295 . S
O328 Fe311 1.997 . S
O328 C323 1.235 . S
C329 O312 1.295 . S
C329 O313 1.235 . S
Fe330 O332 1.918 . S
Fe330 O335 1.997 . S
Fe330 O336 2.002 . S
Fe330 O341 1.976 . S
Fe330 O344 1.996 . S
Fe331 O332 1.918 . S
Fe331 O339 1.997 . S
Fe331 O342 1.996 . S
Fe331 O346 1.976 . S
Fe331 O349 2.002 . S
O332 Fe330 1.918 . S
O332 Fe331 1.918 . S
O332 Fe333 1.918 . S
Fe333 O332 1.918 . S
Fe333 O334 2.002 . S
Fe333 O343 1.976 . S
Fe333 O347 1.996 . S
Fe333 O350 1.997 . S
O334 Fe333 2.002 . S
O334 C351 1.295 . S
O335 Fe330 1.997 . S
O335 C351 1.235 . S
O336 Fe330 2.002 . S
O336 C337 1.295 . S
C337 O336 1.295 . S
C337 O339 1.235 . S
C338 O343 1.287 . S
C338 O344 1.255 . S
O339 Fe331 1.997 . S
O339 C337 1.235 . S
C340 O346 1.287 . S
C340 O347 1.255 . S
O341 Fe330 1.976 . S
O341 C348 1.287 . S
O342 Fe331 1.996 . S
O342 C348 1.255 . S
O343 Fe333 1.976 . S
O343 C338 1.287 . S
O344 Fe330 1.996 . S
O344 C338 1.255 . S
C345 O349 1.295 . S
C345 O350 1.235 . S
O346 Fe331 1.976 . S
O346 C340 1.287 . S
O347 Fe333 1.996 . S
O347 C340 1.255 . S
C348 O341 1.287 . S
C348 O342 1.255 . S
O349 Fe331 2.002 . S
O349 C345 1.295 . S
O350 Fe333 1.997 . S
O350 C345 1.235 . S
C351 O334 1.295 . S
C351 O335 1.235 . S
Fe352 O354 1.918 . S
Fe352 O357 1.997 . S
Fe352 O358 2.002 . S
Fe352 O363 1.976 . S
Fe352 O366 1.996 . S
Fe353 O354 1.918 . S
Fe353 O361 1.997 . S
Fe353 O364 1.996 . S
Fe353 O368 1.976 . S
Fe353 O371 2.002 . S
O354 Fe352 1.918 . S
O354 Fe353 1.918 . S
O354 Fe355 1.918 . S
Fe355 O354 1.918 . S
Fe355 O356 2.002 . S
Fe355 O365 1.976 . S
Fe355 O369 1.996 . S
Fe355 O372 1.997 . S
O356 Fe355 2.002 . S
O356 C373 1.295 . S
O357 Fe352 1.997 . S
O357 C373 1.235 . S
O358 Fe352 2.002 . S
O358 C359 1.295 . S
C359 O358 1.295 . S
C359 O361 1.235 . S
C360 O365 1.287 . S
C360 O366 1.255 . S
O361 Fe353 1.997 . S
O361 C359 1.235 . S
C362 O368 1.287 . S
C362 O369 1.255 . S
O363 Fe352 1.976 . S
O363 C370 1.287 . S
O364 Fe353 1.996 . S
O364 C370 1.255 . S
O365 Fe355 1.976 . S
O365 C360 1.287 . S
O366 Fe352 1.996 . S
O366 C360 1.255 . S
C367 O371 1.295 . S
C367 O372 1.235 . S
O368 Fe353 1.976 . S
O368 C362 1.287 . S
O369 Fe355 1.996 . S
O369 C362 1.255 . S
C370 O363 1.287 . S
C370 O364 1.255 . S
O371 Fe353 2.002 . S
O371 C367 1.295 . S
O372 Fe355 1.997 . S
O372 C367 1.235 . S
C373 O356 1.295 . S
C373 O357 1.235 . S
Fe374 O376 1.918 . S
Fe374 O379 1.997 . S
Fe374 O380 2.002 . S
Fe374 O385 1.976 . S
Fe374 O388 1.996 . S
Fe375 O376 1.918 . S
Fe375 O383 1.997 . S
Fe375 O386 1.996 . S
Fe375 O390 1.976 . S
Fe375 O393 2.002 . S
O376 Fe374 1.918 . S
O376 Fe375 1.918 . S
O376 Fe377 1.918 . S
Fe377 O376 1.918 . S
Fe377 O378 2.002 . S
Fe377 O387 1.976 . S
Fe377 O391 1.996 . S
Fe377 O394 1.997 . S
O378 Fe377 2.002 . S
O378 C395 1.295 . S
O379 Fe374 1.997 . S
O379 C395 1.235 . S
O380 Fe374 2.002 . S
O380 C381 1.295 . S
C381 O380 1.295 . S
C381 O383 1.235 . S
C382 O387 1.287 . S
C382 O388 1.255 . S
O383 Fe375 1.997 . S
O383 C381 1.235 . S
C384 O390 1.287 . S
C384 O391 1.255 . S
O385 Fe374 1.976 . S
O385 C392 1.287 . S
O386 Fe375 1.996 . S
O386 C392 1.255 . S
O387 Fe377 1.976 . S
O387 C382 1.287 . S
O388 Fe374 1.996 . S
O388 C382 1.255 . S
C389 O393 1.295 . S
C389 O394 1.235 . S
O390 Fe375 1.976 . S
O390 C384 1.287 . S
O391 Fe377 1.996 . S
O391 C384 1.255 . S
C392 O385 1.287 . S
C392 O386 1.255 . S
O393 Fe375 2.002 . S
O393 C389 1.295 . S
O394 Fe377 1.997 . S
O394 C389 1.235 . S
C395 O378 1.295 . S
C395 O379 1.235 . S
Fe396 O398 1.918 . S
Fe396 O401 1.997 . S
Fe396 O402 2.002 . S
Fe396 O407 1.976 . S
Fe396 O410 1.996 . S
Fe397 O398 1.918 . S
Fe397 O405 1.997 . S
Fe397 O408 1.996 . S
Fe397 O412 1.976 . S
Fe397 O415 2.002 . S
O398 Fe396 1.918 . S
O398 Fe397 1.918 . S
O398 Fe399 1.918 . S
Fe399 O398 1.918 . S
Fe399 O400 2.002 . S
Fe399 O409 1.976 . S
Fe399 O413 1.996 . S
Fe399 O416 1.997 . S
O400 Fe399 2.002 . S
O400 C417 1.295 . S
O401 Fe396 1.997 . S
O401 C417 1.235 . S
O402 Fe396 2.002 . S
O402 C403 1.295 . S
C403 O402 1.295 . S
C403 O405 1.235 . S
C404 O409 1.287 . S
C404 O410 1.255 . S
O405 Fe397 1.997 . S
O405 C403 1.235 . S
C406 O412 1.287 . S
C406 O413 1.255 . S
O407 Fe396 1.976 . S
O407 C414 1.287 . S
O408 Fe397 1.996 . S
O408 C414 1.255 . S
O409 Fe399 1.976 . S
O409 C404 1.287 . S
O410 Fe396 1.996 . S
O410 C404 1.255 . S
C411 O415 1.295 . S
C411 O416 1.235 . S
O412 Fe397 1.976 . S
O412 C406 1.287 . S
O413 Fe399 1.996 . S
O413 C406 1.255 . S
C414 O407 1.287 . S
C414 O408 1.255 . S
O415 Fe397 2.002 . S
O415 C411 1.295 . S
O416 Fe399 1.997 . S
O416 C411 1.235 . S
C417 O400 1.295 . S
C417 O401 1.235 . S
Fe418 O420 1.918 . S
Fe418 O423 1.997 . S
Fe418 O424 2.002 . S
Fe418 O429 1.976 . S
Fe418 O432 1.996 . S
Fe419 O420 1.918 . S
Fe419 O427 1.997 . S
Fe419 O430 1.996 . S
Fe419 O434 1.976 . S
Fe419 O437 2.002 . S
O420 Fe418 1.918 . S
O420 Fe419 1.918 . S
O420 Fe421 1.918 . S
Fe421 O420 1.918 . S
Fe421 O422 2.002 . S
Fe421 O431 1.976 . S
Fe421 O435 1.996 . S
Fe421 O438 1.997 . S
O422 Fe421 2.002 . S
O422 C439 1.295 . S
O423 Fe418 1.997 . S
O423 C439 1.235 . S
O424 Fe418 2.002 . S
O424 C425 1.295 . S
C425 O424 1.295 . S
C425 O427 1.235 . S
C426 O431 1.287 . S
C426 O432 1.255 . S
O427 Fe419 1.997 . S
O427 C425 1.235 . S
C428 O434 1.287 . S
C428 O435 1.255 . S
O429 Fe418 1.976 . S
O429 C436 1.287 . S
O430 Fe419 1.996 . S
O430 C436 1.255 . S
O431 Fe421 1.976 . S
O431 C426 1.287 . S
O432 Fe418 1.996 . S
O432 C426 1.255 . S
C433 O437 1.295 . S
C433 O438 1.235 . S
O434 Fe419 1.976 . S
O434 C428 1.287 . S
O435 Fe421 1.996 . S
O435 C428 1.255 . S
C436 O429 1.287 . S
C436 O430 1.255 . S
O437 Fe419 2.002 . S
O437 C433 1.295 . S
O438 Fe421 1.997 . S
O438 C433 1.235 . S
C439 O422 1.295 . S
C439 O423 1.235 . S
Fe440 O442 1.918 . S
Fe440 O445 1.997 . S
Fe440 O446 2.002 . S
Fe440 O451 1.976 . S
Fe440 O454 1.996 . S
Fe441 O442 1.918 . S
Fe441 O449 1.997 . S
Fe441 O452 1.996 . S
Fe441 O456 1.976 . S
Fe441 O459 2.002 . S
O442 Fe440 1.918 . S
O442 Fe441 1.918 . S
O442 Fe443 1.918 . S
Fe443 O442 1.918 . S
Fe443 O444 2.002 . S
Fe443 O453 1.976 . S
Fe443 O457 1.996 . S
Fe443 O460 1.997 . S
O444 Fe443 2.002 . S
O444 C461 1.295 . S
O445 Fe440 1.997 . S
O445 C461 1.235 . S
O446 Fe440 2.002 . S
O446 C447 1.295 . S
C447 O446 1.295 . S
C447 O449 1.235 . S
C448 O453 1.287 . S
C448 O454 1.255 . S
O449 Fe441 1.997 . S
O449 C447 1.235 . S
C450 O456 1.287 . S
C450 O457 1.255 . S
O451 Fe440 1.976 . S
O451 C458 1.287 . S
O452 Fe441 1.996 . S
O452 C458 1.255 . S
O453 Fe443 1.976 . S
O453 C448 1.287 . S
O454 Fe440 1.996 . S
O454 C448 1.255 . S
C455 O459 1.295 . S
C455 O460 1.235 . S
O456 Fe441 1.976 . S
O456 C450 1.287 . S
O457 Fe443 1.996 . S
O457 C450 1.255 . S
C458 O451 1.287 . S
C458 O452 1.255 . S
O459 Fe441 2.002 . S
O459 C455 1.295 . S
O460 Fe443 1.997 . S
O460 C455 1.235 . S
C461 O444 1.295 . S
C461 O445 1.235 . S
Fe462 O464 1.918 . S
Fe462 O467 1.997 . S
Fe462 O468 2.002 . S
Fe462 O473 1.976 . S
Fe462 O476 1.996 . S
Fe463 O464 1.918 . S
Fe463 O471 1.997 . S
Fe463 O474 1.996 . S
Fe463 O478 1.976 . S
Fe463 O481 2.002 . S
O464 Fe462 1.918 . S
O464 Fe463 1.918 . S
O464 Fe465 1.918 . S
Fe465 O464 1.918 . S
Fe465 O466 2.002 . S
Fe465 O475 1.976 . S
Fe465 O479 1.996 . S
Fe465 O482 1.997 . S
O466 Fe465 2.002 . S
O466 C483 1.295 . S
O467 Fe462 1.997 . S
O467 C483 1.235 . S
O468 Fe462 2.002 . S
O468 C469 1.295 . S
C469 O468 1.295 . S
C469 O471 1.235 . S
C470 O475 1.287 . S
C470 O476 1.255 . S
O471 Fe463 1.997 . S
O471 C469 1.235 . S
C472 O478 1.287 . S
C472 O479 1.255 . S
O473 Fe462 1.976 . S
O473 C480 1.287 . S
O474 Fe463 1.996 . S
O474 C480 1.255 . S
O475 Fe465 1.976 . S
O475 C470 1.287 . S
O476 Fe462 1.996 . S
O476 C470 1.255 . S
C477 O481 1.295 . S
C477 O482 1.235 . S
O478 Fe463 1.976 . S
O478 C472 1.287 . S
O479 Fe465 1.996 . S
O479 C472 1.255 . S
C480 O473 1.287 . S
C480 O474 1.255 . S
O481 Fe463 2.002 . S
O481 C477 1.295 . S
O482 Fe465 1.997 . S
O482 C477 1.235 . S
C483 O466 1.295 . S
C483 O467 1.235 . S
Fe484 O486 1.918 . S
Fe484 O489 1.997 . S
Fe484 O490 2.002 . S
Fe484 O495 1.976 . S
Fe484 O498 1.996 . S
Fe485 O486 1.918 . S
Fe485 O493 1.997 . S
Fe485 O496 1.996 . S
Fe485 O500 1.976 . S
Fe485 O503 2.002 . S
O486 Fe484 1.918 . S
O486 Fe485 1.918 . S
O486 Fe487 1.918 . S
Fe487 O486 1.918 . S
Fe487 O488 2.002 . S
Fe487 O497 1.976 . S
Fe487 O501 1.996 . S
Fe487 O504 1.997 . S
O488 Fe487 2.002 . S
O488 C505 1.295 . S
O489 Fe484 1.997 . S
O489 C505 1.235 . S
O490 Fe484 2.002 . S
O490 C491 1.295 . S
C491 O490 1.295 . S
C491 O493 1.235 . S
C492 O497 1.287 . S
C492 O498 1.255 . S
O493 Fe485 1.997 . S
O493 C491 1.235 . S
C494 O500 1.287 . S
C494 O501 1.255 . S
O495 Fe484 1.976 . S
O495 C502 1.287 . S
O496 Fe485 1.996 . S
O496 C502 1.255 . S
O497 Fe487 1.976 . S
O497 C492 1.287 . S
O498 Fe484 1.996 . S
O498 C492 1.255 . S
C499 O503 1.295 . S
C499 O504 1.235 . S
O500 Fe485 1.976 . S
O500 C494 1.287 . S
O501 Fe487 1.996 . S
O501 C494 1.255 . S
C502 O495 1.287 . S
C502 O496 1.255 . S
O503 Fe485 2.002 . S
O503 C499 1.295 . S
O504 Fe487 1.997 . S
O504 C499 1.235 . S
C505 O488 1.295 . S
C505 O489 1.235 . S
Fe506 O508 1.918 . S
Fe506 O511 1.997 . S
Fe506 O512 2.002 . S
Fe506 O517 1.976 . S
Fe506 O520 1.996 . S
Fe507 O508 1.918 . S
Fe507 O515 1.997 . S
Fe507 O518 1.996 . S
Fe507 O522 1.976 . S
Fe507 O525 2.002 . S
O508 Fe506 1.918 . S
O508 Fe507 1.918 . S
O508 Fe509 1.918 . S
Fe509 O508 1.918 . S
Fe509 O510 2.002 . S
Fe509 O519 1.976 . S
Fe509 O523 1.996 . S
Fe509 O526 1.997 . S
O510 Fe509 2.002 . S
O510 C527 1.295 . S
O511 Fe506 1.997 . S
O511 C527 1.235 . S
O512 Fe506 2.002 . S
O512 C513 1.295 . S
C513 O512 1.295 . S
C513 O515 1.235 . S
C514 O519 1.287 . S
C514 O520 1.255 . S
O515 Fe507 1.997 . S
O515 C513 1.235 . S
C516 O522 1.287 . S
C516 O523 1.255 . S
O517 Fe506 1.976 . S
O517 C524 1.287 . S
O518 Fe507 1.996 . S
O518 C524 1.255 . S
O519 Fe509 1.976 . S
O519 C514 1.287 . S
O520 Fe506 1.996 . S
O520 C514 1.255 . S
C521 O525 1.295 . S
C521 O526 1.235 . S
O522 Fe507 1.976 . S
O522 C516 1.287 . S
O523 Fe509 1.996 . S
O523 C516 1.255 . S
C524 O517 1.287 . S
C524 O518 1.255 . S
O525 Fe507 2.002 . S
O525 C521 1.295 . S
O526 Fe509 1.997 . S
O526 C521 1.235 . S
C527 O510 1.295 . S
C527 O511 1.235 . S
Fe528 O530 1.918 . S
Fe528 O533 1.997 . S
Fe528 O534 2.002 . S
Fe528 O539 1.976 . S
Fe528 O542 1.996 . S
Fe529 O530 1.918 . S
Fe529 O537 1.997 . S
Fe529 O540 1.996 . S
Fe529 O544 1.976 . S
Fe529 O547 2.002 . S
O530 Fe528 1.918 . S
O530 Fe529 1.918 . S
O530 Fe531 1.918 . S
Fe531 O530 1.918 . S
Fe531 O532 2.002 . S
Fe531 O541 1.976 . S
Fe531 O545 1.996 . S
Fe531 O548 1.997 . S
O532 Fe531 2.002 . S
O532 C549 1.295 . S
O533 Fe528 1.997 . S
O533 C549 1.235 . S
O534 Fe528 2.002 . S
O534 C535 1.295 . S
C535 O534 1.295 . S
C535 O537 1.235 . S
C536 O541 1.287 . S
C536 O542 1.255 . S
O537 Fe529 1.997 . S
O537 C535 1.235 . S
C538 O544 1.287 . S
C538 O545 1.255 . S
O539 Fe528 1.976 . S
O539 C546 1.287 . S
O540 Fe529 1.996 . S
O540 C546 1.255 . S
O541 Fe531 1.976 . S
O541 C536 1.287 . S
O542 Fe528 1.996 . S
O542 C536 1.255 . S
C543 O547 1.295 . S
C543 O548 1.235 . S
O544 Fe529 1.976 . S
O544 C538 1.287 . S
O545 Fe531 1.996 . S
O545 C538 1.255 . S
C546 O539 1.287 . S
C546 O540 1.255 . S
O547 Fe529 2.002 . S
O547 C543 1.295 . S
O548 Fe531 1.997 . S
O548 C543 1.235 . S
C549 O532 1.295 . S
C549 O533 1.235 . S
Fe550 O552 1.918 . S
Fe550 O555 1.997 . S
Fe550 O556 2.002 . S
Fe550 O561 1.976 . S
Fe550 O564 1.996 . S
Fe551 O552 1.918 . S
Fe551 O559 1.997 . S
Fe551 O562 1.996 . S
Fe551 O566 1.976 . S
Fe551 O569 2.002 . S
O552 Fe550 1.918 . S
O552 Fe551 1.918 . S
O552 Fe553 1.918 . S
Fe553 O552 1.918 . S
Fe553 O554 2.002 . S
Fe553 O563 1.976 . S
Fe553 O567 1.996 . S
Fe553 O570 1.997 . S
O554 Fe553 2.002 . S
O554 C571 1.295 . S
O555 Fe550 1.997 . S
O555 C571 1.235 . S
O556 Fe550 2.002 . S
O556 C557 1.295 . S
C557 O556 1.295 . S
C557 O559 1.235 . S
C558 O563 1.287 . S
C558 O564 1.255 . S
O559 Fe551 1.997 . S
O559 C557 1.235 . S
C560 O566 1.287 . S
C560 O567 1.255 . S
O561 Fe550 1.976 . S
O561 C568 1.287 . S
O562 Fe551 1.996 . S
O562 C568 1.255 . S
O563 Fe553 1.976 . S
O563 C558 1.287 . S
O564 Fe550 1.996 . S
O564 C558 1.255 . S
C565 O569 1.295 . S
C565 O570 1.235 . S
O566 Fe551 1.976 . S
O566 C560 1.287 . S
O567 Fe553 1.996 . S
O567 C560 1.255 . S
C568 O561 1.287 . S
C568 O562 1.255 . S
O569 Fe551 2.002 . S
O569 C565 1.295 . S
O570 Fe553 1.997 . S
O570 C565 1.235 . S
C571 O554 1.295 . S
C571 O555 1.235 . S
Fe572 O574 1.918 . S
Fe572 O577 1.997 . S
Fe572 O578 2.002 . S
Fe572 O583 1.976 . S
Fe572 O586 1.996 . S
Fe573 O574 1.918 . S
Fe573 O581 1.997 . S
Fe573 O584 1.996 . S
Fe573 O588 1.976 . S
Fe573 O591 2.002 . S
O574 Fe572 1.918 . S
O574 Fe573 1.918 . S
O574 Fe575 1.918 . S
Fe575 O574 1.918 . S
Fe575 O576 2.002 . S
Fe575 O585 1.976 . S
Fe575 O589 1.996 . S
Fe575 O592 1.997 . S
O576 Fe575 2.002 . S
O576 C593 1.295 . S
O577 Fe572 1.997 . S
O577 C593 1.235 . S
O578 Fe572 2.002 . S
O578 C579 1.295 . S
C579 O578 1.295 . S
C579 O581 1.235 . S
C580 O585 1.287 . S
C580 O586 1.255 . S
O581 Fe573 1.997 . S
O581 C579 1.235 . S
C582 O588 1.287 . S
C582 O589 1.255 . S
O583 Fe572 1.976 . S
O583 C590 1.287 . S
O584 Fe573 1.996 . S
O584 C590 1.255 . S
O585 Fe575 1.976 . S
O585 C580 1.287 . S
O586 Fe572 1.996 . S
O586 C580 1.255 . S
C587 O591 1.295 . S
C587 O592 1.235 . S
O588 Fe573 1.976 . S
O588 C582 1.287 . S
O589 Fe575 1.996 . S
O589 C582 1.255 . S
C590 O583 1.287 . S
C590 O584 1.255 . S
O591 Fe573 2.002 . S
O591 C587 1.295 . S
O592 Fe575 1.997 . S
O592 C587 1.235 . S
C593 O576 1.295 . S
C593 O577 1.235 . S
Fe594 O596 1.918 . S
Fe594 O599 1.997 . S
Fe594 O600 2.002 . S
Fe594 O605 1.976 . S
Fe594 O608 1.996 . S
Fe595 O596 1.918 . S
Fe595 O603 1.997 . S
Fe595 O606 1.996 . S
Fe595 O610 1.976 . S
Fe595 O613 2.002 . S
O596 Fe594 1.918 . S
O596 Fe595 1.918 . S
O596 Fe597 1.918 . S
Fe597 O596 1.918 . S
Fe597 O598 2.002 . S
Fe597 O607 1.976 . S
Fe597 O611 1.996 . S
Fe597 O614 1.997 . S
O598 Fe597 2.002 . S
O598 C615 1.295 . S
O599 Fe594 1.997 . S
O599 C615 1.235 . S
O600 Fe594 2.002 . S
O600 C601 1.295 . S
C601 O600 1.295 . S
C601 O603 1.235 . S
C602 O607 1.287 . S
C602 O608 1.255 . S
O603 Fe595 1.997 . S
O603 C601 1.235 . S
C604 O610 1.287 . S
C604 O611 1.255 . S
O605 Fe594 1.976 . S
O605 C612 1.287 . S
O606 Fe595 1.996 . S
O606 C612 1.255 . S
O607 Fe597 1.976 . S
O607 C602 1.287 . S
O608 Fe594 1.996 . S
O608 C602 1.255 . S
C609 O613 1.295 . S
C609 O614 1.235 . S
O610 Fe595 1.976 . S
O610 C604 1.287 . S
O611 Fe597 1.996 . S
O611 C604 1.255 . S
C612 O605 1.287 . S
C612 O606 1.255 . S
O613 Fe595 2.002 . S
O613 C609 1.295 . S
O614 Fe597 1.997 . S
O614 C609 1.235 . S
C615 O598 1.295 . S
C615 O599 1.235 . S
Fe616 O618 1.918 . S
Fe616 O621 1.997 . S
Fe616 O622 2.002 . S
Fe616 O627 1.976 . S
Fe616 O630 1.996 . S
Fe617 O618 1.918 . S
Fe617 O625 1.997 . S
Fe617 O628 1.996 . S
Fe617 O632 1.976 . S
Fe617 O635 2.002 . S
O618 Fe616 1.918 . S
O618 Fe617 1.918 . S
O618 Fe619 1.918 . S
Fe619 O618 1.918 . S
Fe619 O620 2.002 . S
Fe619 O629 1.976 . S
Fe619 O633 1.996 . S
Fe619 O636 1.997 . S
O620 Fe619 2.002 . S
O620 C637 1.295 . S
O621 Fe616 1.997 . S
O621 C637 1.235 . S
O622 Fe616 2.002 . S
O622 C623 1.295 . S
C623 O622 1.295 . S
C623 O625 1.235 . S
C624 O629 1.287 . S
C624 O630 1.255 . S
O625 Fe617 1.997 . S
O625 C623 1.235 . S
C626 O632 1.287 . S
C626 O633 1.255 . S
O627 Fe616 1.976 . S
O627 C634 1.287 . S
O628 Fe617 1.996 . S
O628 C634 1.255 . S
O629 Fe619 1.976 . S
O629 C624 1.287 . S
O630 Fe616 1.996 . S
O630 C624 1.255 . S
C631 O635 1.295 . S
C631 O636 1.235 . S
O632 Fe617 1.976 . S
O632 C626 1.287 . S
O633 Fe619 1.996 . S
O633 C626 1.255 . S
C634 O627 1.287 . S
C634 O628 1.255 . S
O635 Fe617 2.002 . S
O635 C631 1.295 . S
O636 Fe619 1.997 . S
O636 C631 1.235 . S
C637 O620 1.295 . S
C637 O621 1.235 . S
Fe638 O640 1.918 . S
Fe638 O643 1.997 . S
Fe638 O644 2.002 . S
Fe638 O649 1.976 . S
Fe638 O652 1.996 . S
Fe639 O640 1.918 . S
Fe639 O647 1.997 . S
Fe639 O650 1.996 . S
Fe639 O654 1.976 . S
Fe639 O657 2.002 . S
O640 Fe638 1.918 . S
O640 Fe639 1.918 . S
O640 Fe641 1.918 . S
Fe641 O640 1.918 . S
Fe641 O642 2.002 . S
Fe641 O651 1.976 . S
Fe641 O655 1.996 . S
Fe641 O658 1.997 . S
O642 Fe641 2.002 . S
O642 C659 1.295 . S
O643 Fe638 1.997 . S
O643 C659 1.235 . S
O644 Fe638 2.002 . S
O644 C645 1.295 . S
C645 O644 1.295 . S
C645 O647 1.235 . S
C646 O651 1.287 . S
C646 O652 1.255 . S
O647 Fe639 1.997 . S
O647 C645 1.235 . S
C648 O654 1.287 . S
C648 O655 1.255 . S
O649 Fe638 1.976 . S
O649 C656 1.287 . S
O650 Fe639 1.996 . S
O650 C656 1.255 . S
O651 Fe641 1.976 . S
O651 C646 1.287 . S
O652 Fe638 1.996 . S
O652 C646 1.255 . S
C653 O657 1.295 . S
C653 O658 1.235 . S
O654 Fe639 1.976 . S
O654 C648 1.287 . S
O655 Fe641 1.996 . S
O655 C648 1.255 . S
C656 O649 1.287 . S
C656 O650 1.255 . S
O657 Fe639 2.002 . S
O657 C653 1.295 . S
O658 Fe641 1.997 . S
O658 C653 1.235 . S
C659 O642 1.295 . S
C659 O643 1.235 . S
Fe660 O662 1.918 . S
Fe660 O665 1.997 . S
Fe660 O666 2.002 . S
Fe660 O671 1.976 . S
Fe660 O674 1.996 . S
Fe661 O662 1.918 . S
Fe661 O669 1.997 . S
Fe661 O672 1.996 . S
Fe661 O676 1.976 . S
Fe661 O679 2.002 . S
O662 Fe660 1.918 . S
O662 Fe661 1.918 . S
O662 Fe663 1.918 . S
Fe663 O662 1.918 . S
Fe663 O664 2.002 . S
Fe663 O673 1.976 . S
Fe663 O677 1.996 . S
Fe663 O680 1.997 . S
O664 Fe663 2.002 . S
O664 C681 1.295 . S
O665 Fe660 1.997 . S
O665 C681 1.235 . S
O666 Fe660 2.002 . S
O666 C667 1.295 . S
C667 O666 1.295 . S
C667 O669 1.235 . S
C668 O673 1.287 . S
C668 O674 1.255 . S
O669 Fe661 1.997 . S
O669 C667 1.235 . S
C670 O676 1.287 . S
C670 O677 1.255 . S
O671 Fe660 1.976 . S
O671 C678 1.287 . S
O672 Fe661 1.996 . S
O672 C678 1.255 . S
O673 Fe663 1.976 . S
O673 C668 1.287 . S
O674 Fe660 1.996 . S
O674 C668 1.255 . S
C675 O679 1.295 . S
C675 O680 1.235 . S
O676 Fe661 1.976 . S
O676 C670 1.287 . S
O677 Fe663 1.996 . S
O677 C670 1.255 . S
C678 O671 1.287 . S
C678 O672 1.255 . S
O679 Fe661 2.002 . S
O679 C675 1.295 . S
O680 Fe663 1.997 . S
O680 C675 1.235 . S
C681 O664 1.295 . S
C681 O665 1.235 . S
Fe682 O684 1.918 . S
Fe682 O687 1.997 . S
Fe682 O688 2.002 . S
Fe682 O693 1.976 . S
Fe682 O696 1.996 . S
Fe683 O684 1.918 . S
Fe683 O691 1.997 . S
Fe683 O694 1.996 . S
Fe683 O698 1.976 . S
Fe683 O701 2.002 . S
O684 Fe682 1.918 . S
O684 Fe683 1.918 . S
O684 Fe685 1.918 . S
Fe685 O684 1.918 . S
Fe685 O686 2.002 . S
Fe685 O695 1.976 . S
Fe685 O699 1.996 . S
Fe685 O702 1.997 . S
O686 Fe685 2.002 . S
O686 C703 1.295 . S
O687 Fe682 1.997 . S
O687 C703 1.235 . S
O688 Fe682 2.002 . S
O688 C689 1.295 . S
C689 O688 1.295 . S
C689 O691 1.235 . S
C690 O695 1.287 . S
C690 O696 1.255 . S
O691 Fe683 1.997 . S
O691 C689 1.235 . S
C692 O698 1.287 . S
C692 O699 1.255 . S
O693 Fe682 1.976 . S
O693 C700 1.287 . S
O694 Fe683 1.996 . S
O694 C700 1.255 . S
O695 Fe685 1.976 . S
O695 C690 1.287 . S
O696 Fe682 1.996 . S
O696 C690 1.255 . S
C697 O701 1.295 . S
C697 O702 1.235 . S
O698 Fe683 1.976 . S
O698 C692 1.287 . S
O699 Fe685 1.996 . S
O699 C692 1.255 . S
C700 O693 1.287 . S
C700 O694 1.255 . S
O701 Fe683 2.002 . S
O701 C697 1.295 . S
O702 Fe685 1.997 . S
O702 C697 1.235 . S
C703 O686 1.295 . S
C703 O687 1.235 . S
Fe704 O706 1.918 . S
Fe704 O709 1.997 . S
Fe704 O710 2.002 . S
Fe704 O715 1.976 . S
Fe704 O718 1.996 . S
Fe705 O706 1.918 . S
Fe705 O713 1.997 . S
Fe705 O716 1.996 . S
Fe705 O720 1.976 . S
Fe705 O723 2.002 . S
O706 Fe704 1.918 . S
O706 Fe705 1.918 . S
O706 Fe707 1.918 . S
Fe707 O706 1.918 . S
Fe707 O708 2.002 . S
Fe707 O717 1.976 . S
Fe707 O721 1.996 . S
Fe707 O724 1.997 . S
O708 Fe707 2.002 . S
O708 C725 1.295 . S
O709 Fe704 1.997 . S
O709 C725 1.235 . S
O710 Fe704 2.002 . S
O710 C711 1.295 . S
C711 O710 1.295 . S
C711 O713 1.235 . S
C712 O717 1.287 . S
C712 O718 1.255 . S
O713 Fe705 1.997 . S
O713 C711 1.235 . S
C714 O720 1.287 . S
C714 O721 1.255 . S
O715 Fe704 1.976 . S
O715 C722 1.287 . S
O716 Fe705 1.996 . S
O716 C722 1.255 . S
O717 Fe707 1.976 . S
O717 C712 1.287 . S
O718 Fe704 1.996 . S
O718 C712 1.255 . S
C719 O723 1.295 . S
C719 O724 1.235 . S
O720 Fe705 1.976 . S
O720 C714 1.287 . S
O721 Fe707 1.996 . S
O721 C714 1.255 . S
C722 O715 1.287 . S
C722 O716 1.255 . S
O723 Fe705 2.002 . S
O723 C719 1.295 . S
O724 Fe707 1.997 . S
O724 C719 1.235 . S
C725 O708 1.295 . S
C725 O709 1.235 . S
Fe726 O728 1.918 . S
Fe726 O731 1.997 . S
Fe726 O732 2.002 . S
Fe726 O737 1.976 . S
Fe726 O740 1.996 . S
Fe727 O728 1.918 . S
Fe727 O735 1.997 . S
Fe727 O738 1.996 . S
Fe727 O742 1.976 . S
Fe727 O745 2.002 . S
O728 Fe726 1.918 . S
O728 Fe727 1.918 . S
O728 Fe729 1.918 . S
Fe729 O728 1.918 . S
Fe729 O730 2.002 . S
Fe729 O739 1.976 . S
Fe729 O743 1.996 . S
Fe729 O746 1.997 . S
O730 Fe729 2.002 . S
O730 C747 1.295 . S
O731 Fe726 1.997 . S
O731 C747 1.235 . S
O732 Fe726 2.002 . S
O732 C733 1.295 . S
C733 O732 1.295 . S
C733 O735 1.235 . S
C734 O739 1.287 . S
C734 O740 1.255 . S
O735 Fe727 1.997 . S
O735 C733 1.235 . S
C736 O742 1.287 . S
C736 O743 1.255 . S
O737 Fe726 1.976 . S
O737 C744 1.287 . S
O738 Fe727 1.996 . S
O738 C744 1.255 . S
O739 Fe729 1.976 . S
O739 C734 1.287 . S
O740 Fe726 1.996 . S
O740 C734 1.255 . S
C741 O745 1.295 . S
C741 O746 1.235 . S
O742 Fe727 1.976 . S
O742 C736 1.287 . S
O743 Fe729 1.996 . S
O743 C736 1.255 . S
C744 O737 1.287 . S
C744 O738 1.255 . S
O745 Fe727 2.002 . S
O745 C741 1.295 . S
O746 Fe729 1.997 . S
O746 C741 1.235 . S
C747 O730 1.295 . S
C747 O731 1.235 . S
Fe748 O750 1.918 . S
Fe748 O753 1.997 . S
Fe748 O754 2.002 . S
Fe748 O759 1.976 . S
Fe748 O762 1.996 . S
Fe749 O750 1.918 . S
Fe749 O757 1.997 . S
Fe749 O760 1.996 . S
Fe749 O764 1.976 . S
Fe749 O767 2.002 . S
O750 Fe748 1.918 . S
O750 Fe749 1.918 . S
O750 Fe751 1.918 . S
Fe751 O750 1.918 . S
Fe751 O752 2.002 . S
Fe751 O761 1.976 . S
Fe751 O765 1.996 . S
Fe751 O768 1.997 . S
O752 Fe751 2.002 . S
O752 C769 1.295 . S
O753 Fe748 1.997 . S
O753 C769 1.235 . S
O754 Fe748 2.002 . S
O754 C755 1.295 . S
C755 O754 1.295 . S
C755 O757 1.235 . S
C756 O761 1.287 . S
C756 O762 1.255 . S
O757 Fe749 1.997 . S
O757 C755 1.235 . S
C758 O764 1.287 . S
C758 O765 1.255 . S
O759 Fe748 1.976 . S
O759 C766 1.287 . S
O760 Fe749 1.996 . S
O760 C766 1.255 . S
O761 Fe751 1.976 . S
O761 C756 1.287 . S
O762 Fe748 1.996 . S
O762 C756 1.255 . S
C763 O767 1.295 . S
C763 O768 1.235 . S
O764 Fe749 1.976 . S
O764 C758 1.287 . S
O765 Fe751 1.996 . S
O765 C758 1.255 . S
C766 O759 1.287 . S
C766 O760 1.255 . S
O767 Fe749 2.002 . S
O767 C763 1.295 . S
O768 Fe751 1.997 . S
O768 C763 1.235 . S
C769 O752 1.295 . S
C769 O753 1.235 . S
Fe770 O772 1.918 . S
Fe770 O775 1.997 . S
Fe770 O776 2.002 . S
Fe770 O781 1.976 . S
Fe770 O784 1.996 . S
Fe771 O772 1.918 . S
Fe771 O779 1.997 . S
Fe771 O782 1.996 . S
Fe771 O786 1.976 . S
Fe771 O789 2.002 . S
O772 Fe770 1.918 . S
O772 Fe771 1.918 . S
O772 Fe773 1.918 . S
Fe773 O772 1.918 . S
Fe773 O774 2.002 . S
Fe773 O783 1.976 . S
Fe773 O787 1.996 . S
Fe773 O790 1.997 . S
O774 Fe773 2.002 . S
O774 C791 1.295 . S
O775 Fe770 1.997 . S
O775 C791 1.235 . S
O776 Fe770 2.002 . S
O776 C777 1.295 . S
C777 O776 1.295 . S
C777 O779 1.235 . S
C778 O783 1.287 . S
C778 O784 1.255 . S
O779 Fe771 1.997 . S
O779 C777 1.235 . S
C780 O786 1.287 . S
C780 O787 1.255 . S
O781 Fe770 1.976 . S
O781 C788 1.287 . S
O782 Fe771 1.996 . S
O782 C788 1.255 . S
O783 Fe773 1.976 . S
O783 C778 1.287 . S
O784 Fe770 1.996 . S
O784 C778 1.255 . S
C785 O789 1.295 . S
C785 O790 1.235 . S
O786 Fe771 1.976 . S
O786 C780 1.287 . S
O787 Fe773 1.996 . S
O787 C780 1.255 . S
C788 O781 1.287 . S
C788 O782 1.255 . S
O789 Fe771 2.002 . S
O789 C785 1.295 . S
O790 Fe773 1.997 . S
O790 C785 1.235 . S
C791 O774 1.295 . S
C791 O775 1.235 . S
Fe792 O794 1.918 . S
Fe792 O797 1.997 . S
Fe792 O798 2.002 . S
Fe792 O803 1.976 . S
Fe792 O806 1.996 . S
Fe793 O794 1.918 . S
Fe793 O801 1.997 . S
Fe793 O804 1.996 . S
Fe793 O808 1.976 . S
Fe793 O811 2.002 . S
O794 Fe792 1.918 . S
O794 Fe793 1.918 . S
O794 Fe795 1.918 . S
Fe795 O794 1.918 . S
Fe795 O796 2.002 . S
Fe795 O805 1.976 . S
Fe795 O809 1.996 . S
Fe795 O812 1.997 . S
O796 Fe795 2.002 . S
O796 C813 1.295 . S
O797 Fe792 1.997 . S
O797 C813 1.235 . S
O798 Fe792 2.002 . S
O798 C799 1.295 . S
C799 O798 1.295 . S
C799 O801 1.235 . S
C800 O805 1.287 . S
C800 O806 1.255 . S
O801 Fe793 1.997 . S
O801 C799 1.235 . S
C802 O808 1.287 . S
C802 O809 1.255 . S
O803 Fe792 1.976 . S
O803 C810 1.287 . S
O804 Fe793 1.996 . S
O804 C810 1.255 . S
O805 Fe795 1.976 . S
O805 C800 1.287 . S
O806 Fe792 1.996 . S
O806 C800 1.255 . S
C807 O811 1.295 . S
C807 O812 1.235 . S
O808 Fe793 1.976 . S
O808 C802 1.287 . S
O809 Fe795 1.996 . S
O809 C802 1.255 . S
C810 O803 1.287 . S
C810 O804 1.255 . S
O811 Fe793 2.002 . S
O811 C807 1.295 . S
O812 Fe795 1.997 . S
O812 C807 1.235 . S
C813 O796 1.295 . S
C813 O797 1.235 . S
Fe814 O816 1.918 . S
Fe814 O819 1.997 . S
Fe814 O820 2.002 . S
Fe814 O825 1.976 . S
Fe814 O828 1.996 . S
Fe815 O816 1.918 . S
Fe815 O823 1.997 . S
Fe815 O826 1.996 . S
Fe815 O830 1.976 . S
Fe815 O833 2.002 . S
O816 Fe814 1.918 . S
O816 Fe815 1.918 . S
O816 Fe817 1.918 . S
Fe817 O816 1.918 . S
Fe817 O818 2.002 . S
Fe817 O827 1.976 . S
Fe817 O831 1.996 . S
Fe817 O834 1.997 . S
O818 Fe817 2.002 . S
O818 C835 1.295 . S
O819 Fe814 1.997 . S
O819 C835 1.235 . S
O820 Fe814 2.002 . S
O820 C821 1.295 . S
C821 O820 1.295 . S
C821 O823 1.235 . S
C822 O827 1.287 . S
C822 O828 1.255 . S
O823 Fe815 1.997 . S
O823 C821 1.235 . S
C824 O830 1.287 . S
C824 O831 1.255 . S
O825 Fe814 1.976 . S
O825 C832 1.287 . S
O826 Fe815 1.996 . S
O826 C832 1.255 . S
O827 Fe817 1.976 . S
O827 C822 1.287 . S
O828 Fe814 1.996 . S
O828 C822 1.255 . S
C829 O833 1.295 . S
C829 O834 1.235 . S
O830 Fe815 1.976 . S
O830 C824 1.287 . S
O831 Fe817 1.996 . S
O831 C824 1.255 . S
C832 O825 1.287 . S
C832 O826 1.255 . S
O833 Fe815 2.002 . S
O833 C829 1.295 . S
O834 Fe817 1.997 . S
O834 C829 1.235 . S
C835 O818 1.295 . S
C835 O819 1.235 . S
Fe836 O838 1.918 . S
Fe836 O841 1.997 . S
Fe836 O842 2.002 . S
Fe836 O847 1.976 . S
Fe836 O850 1.996 . S
Fe837 O838 1.918 . S
Fe837 O845 1.997 . S
Fe837 O848 1.996 . S
Fe837 O852 1.976 . S
Fe837 O855 2.002 . S
O838 Fe836 1.918 . S
O838 Fe837 1.918 . S
O838 Fe839 1.918 . S
Fe839 O838 1.918 . S
Fe839 O840 2.002 . S
Fe839 O849 1.976 . S
Fe839 O853 1.996 . S
Fe839 O856 1.997 . S
O840 Fe839 2.002 . S
O840 C857 1.295 . S
O841 Fe836 1.997 . S
O841 C857 1.235 . S
O842 Fe836 2.002 . S
O842 C843 1.295 . S
C843 O842 1.295 . S
C843 O845 1.235 . S
C844 O849 1.287 . S
C844 O850 1.255 . S
O845 Fe837 1.997 . S
O845 C843 1.235 . S
C846 O852 1.287 . S
C846 O853 1.255 . S
O847 Fe836 1.976 . S
O847 C854 1.287 . S
O848 Fe837 1.996 . S
O848 C854 1.255 . S
O849 Fe839 1.976 . S
O849 C844 1.287 . S
O850 Fe836 1.996 . S
O850 C844 1.255 . S
C851 O855 1.295 . S
C851 O856 1.235 . S
O852 Fe837 1.976 . S
O852 C846 1.287 . S
O853 Fe839 1.996 . S
O853 C846 1.255 . S
C854 O847 1.287 . S
C854 O848 1.255 . S
O855 Fe837 2.002 . S
O855 C851 1.295 . S
O856 Fe839 1.997 . S
O856 C851 1.235 . S
C857 O840 1.295 . S
C857 O841 1.235 . S
Fe858 O860 1.918 . S
Fe858 O863 1.997 . S
Fe858 O864 2.002 . S
Fe858 O869 1.976 . S
Fe858 O872 1.996 . S
Fe859 O860 1.918 . S
Fe859 O867 1.997 . S
Fe859 O870 1.996 . S
Fe859 O874 1.976 . S
Fe859 O877 2.002 . S
O860 Fe858 1.918 . S
O860 Fe859 1.918 . S
O860 Fe861 1.918 . S
Fe861 O860 1.918 . S
Fe861 O862 2.002 . S
Fe861 O871 1.976 . S
Fe861 O875 1.996 . S
Fe861 O878 1.997 . S
O862 Fe861 2.002 . S
O862 C879 1.295 . S
O863 Fe858 1.997 . S
O863 C879 1.235 . S
O864 Fe858 2.002 . S
O864 C865 1.295 . S
C865 O864 1.295 . S
C865 O867 1.235 . S
C866 O871 1.287 . S
C866 O872 1.255 . S
O867 Fe859 1.997 . S
O867 C865 1.235 . S
C868 O874 1.287 . S
C868 O875 1.255 . S
O869 Fe858 1.976 . S
O869 C876 1.287 . S
O870 Fe859 1.996 . S
O870 C876 1.255 . S
O871 Fe861 1.976 . S
O871 C866 1.287 . S
O872 Fe858 1.996 . S
O872 C866 1.255 . S
C873 O877 1.295 . S
C873 O878 1.235 . S
O874 Fe859 1.976 . S
O874 C868 1.287 . S
O875 Fe861 1.996 . S
O875 C868 1.255 . S
C876 O869 1.287 . S
C876 O870 1.255 . S
O877 Fe859 2.002 . S
O877 C873 1.295 . S
O878 Fe861 1.997 . S
O878 C873 1.235 . S
C879 O862 1.295 . S
C879 O863 1.235 . S
Fe880 O882 1.918 . S
Fe880 O885 1.997 . S
Fe880 O886 2.002 . S
Fe880 O891 1.976 . S
Fe880 O894 1.996 . S
Fe881 O882 1.918 . S
Fe881 O889 1.997 . S
Fe881 O892 1.996 . S
Fe881 O896 1.976 . S
Fe881 O899 2.002 . S
O882 Fe880 1.918 . S
O882 Fe881 1.918 . S
O882 Fe883 1.918 . S
Fe883 O882 1.918 . S
Fe883 O884 2.002 . S
Fe883 O893 1.976 . S
Fe883 O897 1.996 . S
Fe883 O900 1.997 . S
O884 Fe883 2.002 . S
O884 C901 1.295 . S
O885 Fe880 1.997 . S
O885 C901 1.235 . S
O886 Fe880 2.002 . S
O886 C887 1.295 . S
C887 O886 1.295 . S
C887 O889 1.235 . S
C888 O893 1.287 . S
C888 O894 1.255 . S
O889 Fe881 1.997 . S
O889 C887 1.235 . S
C890 O896 1.287 . S
C890 O897 1.255 . S
O891 Fe880 1.976 . S
O891 C898 1.287 . S
O892 Fe881 1.996 . S
O892 C898 1.255 . S
O893 Fe883 1.976 . S
O893 C888 1.287 . S
O894 Fe880 1.996 . S
O894 C888 1.255 . S
C895 O899 1.295 . S
C895 O900 1.235 . S
O896 Fe881 1.976 . S
O896 C890 1.287 . S
O897 Fe883 1.996 . S
O897 C890 1.255 . S
C898 O891 1.287 . S
C898 O892 1.255 . S
O899 Fe881 2.002 . S
O899 C895 1.295 . S
O900 Fe883 1.997 . S
O900 C895 1.235 . S
C901 O884 1.295 . S
C901 O885 1.235 . S
Fe902 O904 1.918 . S
Fe902 O907 1.997 . S
Fe902 O908 2.002 . S
Fe902 O913 1.976 . S
Fe902 O916 1.996 . S
Fe903 O904 1.918 . S
Fe903 O911 1.997 . S
Fe903 O914 1.996 . S
Fe903 O918 1.976 . S
Fe903 O921 2.002 . S
O904 Fe902 1.918 . S
O904 Fe903 1.918 . S
O904 Fe905 1.918 . S
Fe905 O904 1.918 . S
Fe905 O906 2.002 . S
Fe905 O915 1.976 . S
Fe905 O919 1.996 . S
Fe905 O922 1.997 . S
O906 Fe905 2.002 . S
O906 C923 1.295 . S
O907 Fe902 1.997 . S
O907 C923 1.235 . S
O908 Fe902 2.002 . S
O908 C909 1.295 . S
C909 O908 1.295 . S
C909 O911 1.235 . S
C910 O915 1.287 . S
C910 O916 1.255 . S
O911 Fe903 1.997 . S
O911 C909 1.235 . S
C912 O918 1.287 . S
C912 O919 1.255 . S
O913 Fe902 1.976 . S
O913 C920 1.287 . S
O914 Fe903 1.996 . S
O914 C920 1.255 . S
O915 Fe905 1.976 . S
O915 C910 1.287 . S
O916 Fe902 1.996 . S
O916 C910 1.255 . S
C917 O921 1.295 . S
C917 O922 1.235 . S
O918 Fe903 1.976 . S
O918 C912 1.287 . S
O919 Fe905 1.996 . S
O919 C912 1.255 . S
C920 O913 1.287 . S
C920 O914 1.255 . S
O921 Fe903 2.002 . S
O921 C917 1.295 . S
O922 Fe905 1.997 . S
O922 C917 1.235 . S
C923 O906 1.295 . S
C923 O907 1.235 . S
Fe924 O926 1.918 . S
Fe924 O929 1.997 . S
Fe924 O930 2.002 . S
Fe924 O935 1.976 . S
Fe924 O938 1.996 . S
Fe925 O926 1.918 . S
Fe925 O933 1.997 . S
Fe925 O936 1.996 . S
Fe925 O940 1.976 . S
Fe925 O943 2.002 . S
O926 Fe924 1.918 . S
O926 Fe925 1.918 . S
O926 Fe927 1.918 . S
Fe927 O926 1.918 . S
Fe927 O928 2.002 . S
Fe927 O937 1.976 . S
Fe927 O941 1.996 . S
Fe927 O944 1.997 . S
O928 Fe927 2.002 . S
O928 C945 1.295 . S
O929 Fe924 1.997 . S
O929 C945 1.235 . S
O930 Fe924 2.002 . S
O930 C931 1.295 . S
C931 O930 1.295 . S
C931 O933 1.235 . S
C932 O937 1.287 . S
C932 O938 1.255 . S
O933 Fe925 1.997 . S
O933 C931 1.235 . S
C934 O940 1.287 . S
C934 O941 1.255 . S
O935 Fe924 1.976 . S
O935 C942 1.287 . S
O936 Fe925 1.996 . S
O936 C942 1.255 . S
O937 Fe927 1.976 . S
O937 C932 1.287 . S
O938 Fe924 1.996 . S
O938 C932 1.255 . S
C939 O943 1.295 . S
C939 O944 1.235 . S
O940 Fe925 1.976 . S
O940 C934 1.287 . S
O941 Fe927 1.996 . S
O941 C934 1.255 . S
C942 O935 1.287 . S
C942 O936 1.255 . S
O943 Fe925 2.002 . S
O943 C939 1.295 . S
O944 Fe927 1.997 . S
O944 C939 1.235 . S
C945 O928 1.295 . S
C945 O929 1.235 . S
Fe946 O948 1.918 . S
Fe946 O951 1.997 . S
Fe946 O952 2.002 . S
Fe946 O957 1.976 . S
Fe946 O960 1.996 . S
Fe947 O948 1.918 . S
Fe947 O955 1.997 . S
Fe947 O958 1.996 . S
Fe947 O962 1.976 . S
Fe947 O965 2.002 . S
O948 Fe946 1.918 . S
O948 Fe947 1.918 . S
O948 Fe949 1.918 . S
Fe949 O948 1.918 . S
Fe949 O950 2.002 . S
Fe949 O959 1.976 . S
Fe949 O963 1.996 . S
Fe949 O966 1.997 . S
O950 Fe949 2.002 . S
O950 C967 1.295 . S
O951 Fe946 1.997 . S
O951 C967 1.235 . S
O952 Fe946 2.002 . S
O952 C953 1.295 . S
C953 O952 1.295 . S
C953 O955 1.235 . S
C954 O959 1.287 . S
C954 O960 1.255 . S
O955 Fe947 1.997 . S
O955 C953 1.235 . S
C956 O962 1.287 . S
C956 O963 1.255 . S
O957 Fe946 1.976 . S
O957 C964 1.287 . S
O958 Fe947 1.996 . S
O958 C964 1.255 . S
O959 Fe949 1.976 . S
O959 C954 1.287 . S
O960 Fe946 1.996 . S
O960 C954 1.255 . S
C961 O965 1.295 . S
C961 O966 1.235 . S
O962 Fe947 1.976 . S
O962 C956 1.287 . S
O963 Fe949 1.996 . S
O963 C956 1.255 . S
C964 O957 1.287 . S
C964 O958 1.255 . S
O965 Fe947 2.002 . S
O965 C961 1.295 . S
O966 Fe949 1.997 . S
O966 C961 1.235 . S
C967 O950 1.295 . S
C967 O951 1.235 . S
Fe968 O970 1.918 . S
Fe968 O973 1.997 . S
Fe968 O974 2.002 . S
Fe968 O979 1.976 . S
Fe968 O982 1.996 . S
Fe969 O970 1.918 . S
Fe969 O977 1.997 . S
Fe969 O980 1.996 . S
Fe969 O984 1.976 . S
Fe969 O987 2.002 . S
O970 Fe968 1.918 . S
O970 Fe969 1.918 . S
O970 Fe971 1.918 . S
Fe971 O970 1.918 . S
Fe971 O972 2.002 . S
Fe971 O981 1.976 . S
Fe971 O985 1.996 . S
Fe971 O988 1.997 . S
O972 Fe971 2.002 . S
O972 C989 1.295 . S
O973 Fe968 1.997 . S
O973 C989 1.235 . S
O974 Fe968 2.002 . S
O974 C975 1.295 . S
C975 O974 1.295 . S
C975 O977 1.235 . S
C976 O981 1.287 . S
C976 O982 1.255 . S
O977 Fe969 1.997 . S
O977 C975 1.235 . S
C978 O984 1.287 . S
C978 O985 1.255 . S
O979 Fe968 1.976 . S
O979 C986 1.287 . S
O980 Fe969 1.996 . S
O980 C986 1.255 . S
O981 Fe971 1.976 . S
O981 C976 1.287 . S
O982 Fe968 1.996 . S
O982 C976 1.255 . S
C983 O987 1.295 . S
C983 O988 1.235 . S
O984 Fe969 1.976 . S
O984 C978 1.287 . S
O985 Fe971 1.996 . S
O985 C978 1.255 . S
C986 O979 1.287 . S
C986 O980 1.255 . S
O987 Fe969 2.002 . S
O987 C983 1.295 . S
O988 Fe971 1.997 . S
O988 C983 1.235 . S
C989 O972 1.295 . S
C989 O973 1.235 . S
Fe990 O992 1.918 . S
Fe990 O995 1.997 . S
Fe990 O996 2.002 . S
Fe990 O1001 1.976 . S
Fe990 O1004 1.996 . S
Fe991 O992 1.918 . S
Fe991 O999 1.997 . S
Fe991 O1002 1.996 . S
Fe991 O1006 1.976 . S
Fe991 O1009 2.002 . S
O992 Fe990 1.918 . S
O992 Fe991 1.918 . S
O992 Fe993 1.918 . S
Fe993 O992 1.918 . S
Fe993 O994 2.002 . S
Fe993 O1003 1.976 . S
Fe993 O1007 1.996 . S
Fe993 O1010 1.997 . S
O994 Fe993 2.002 . S
O994 C1011 1.295 . S
O995 Fe990 1.997 . S
O995 C1011 1.235 . S
O996 Fe990 2.002 . S
O996 C997 1.295 . S
C997 O996 1.295 . S
C997 O999 1.235 . S
C998 O1003 1.287 . S
C998 O1004 1.255 . S
O999 Fe991 1.997 . S
O999 C997 1.235 . S
C1000 O1006 1.287 . S
C1000 O1007 1.255 . S
O1001 Fe990 1.976 . S
O1001 C1008 1.287 . S
O1002 Fe991 1.996 . S
O1002 C1008 1.255 . S
O1003 Fe993 1.976 . S
O1003 C998 1.287 . S
O1004 Fe990 1.996 . S
O1004 C998 1.255 . S
C1005 O1009 1.295 . S
C1005 O1010 1.235 . S
O1006 Fe991 1.976 . S
O1006 C1000 1.287 . S
O1007 Fe993 1.996 . S
O1007 C1000 1.255 . S
C1008 O1001 1.287 . S
C1008 O1002 1.255 . S
O1009 Fe991 2.002 . S
O1009 C1005 1.295 . S
O1010 Fe993 1.997 . S
O1010 C1005 1.235 . S
C1011 O994 1.295 . S
C1011 O995 1.235 . S
Fe1012 O1014 1.918 . S
Fe1012 O1017 1.997 . S
Fe1012 O1018 2.002 . S
Fe1012 O1023 1.976 . S
Fe1012 O1026 1.996 . S
Fe1013 O1014 1.918 . S
Fe1013 O1021 1.997 . S
Fe1013 O1024 1.996 . S
Fe1013 O1028 1.976 . S
Fe1013 O1031 2.002 . S
O1014 Fe1012 1.918 . S
O1014 Fe1013 1.918 . S
O1014 Fe1015 1.918 . S
Fe1015 O1014 1.918 . S
Fe1015 O1016 2.002 . S
Fe1015 O1025 1.976 . S
Fe1015 O1029 1.996 . S
Fe1015 O1032 1.997 . S
O1016 Fe1015 2.002 . S
O1016 C1033 1.295 . S
O1017 Fe1012 1.997 . S
O1017 C1033 1.235 . S
O1018 Fe1012 2.002 . S
O1018 C1019 1.295 . S
C1019 O1018 1.295 . S
C1019 O1021 1.235 . S
C1020 O1025 1.287 . S
C1020 O1026 1.255 . S
O1021 Fe1013 1.997 . S
O1021 C1019 1.235 . S
C1022 O1028 1.287 . S
C1022 O1029 1.255 . S
O1023 Fe1012 1.976 . S
O1023 C1030 1.287 . S
O1024 Fe1013 1.996 . S
O1024 C1030 1.255 . S
O1025 Fe1015 1.976 . S
O1025 C1020 1.287 . S
O1026 Fe1012 1.996 . S
O1026 C1020 1.255 . S
C1027 O1031 1.295 . S
C1027 O1032 1.235 . S
O1028 Fe1013 1.976 . S
O1028 C1022 1.287 . S
O1029 Fe1015 1.996 . S
O1029 C1022 1.255 . S
C1030 O1023 1.287 . S
C1030 O1024 1.255 . S
O1031 Fe1013 2.002 . S
O1031 C1027 1.295 . S
O1032 Fe1015 1.997 . S
O1032 C1027 1.235 . S
C1033 O1016 1.295 . S
C1033 O1017 1.235 . S
Fe1034 O1036 1.918 . S
Fe1034 O1039 1.997 . S
Fe1034 O1040 2.002 . S
Fe1034 O1045 1.976 . S
Fe1034 O1048 1.996 . S
Fe1035 O1036 1.918 . S
Fe1035 O1043 1.997 . S
Fe1035 O1046 1.996 . S
Fe1035 O1050 1.976 . S
Fe1035 O1053 2.002 . S
O1036 Fe1034 1.918 . S
O1036 Fe1035 1.918 . S
O1036 Fe1037 1.918 . S
Fe1037 O1036 1.918 . S
Fe1037 O1038 2.002 . S
Fe1037 O1047 1.976 . S
Fe1037 O1051 1.996 . S
Fe1037 O1054 1.997 . S
O1038 Fe1037 2.002 . S
O1038 C1055 1.295 . S
O1039 Fe1034 1.997 . S
O1039 C1055 1.235 . S
O1040 Fe1034 2.002 . S
O1040 C1041 1.295 . S
C1041 O1040 1.295 . S
C1041 O1043 1.235 . S
C1042 O1047 1.287 . S
C1042 O1048 1.255 . S
O1043 Fe1035 1.997 . S
O1043 C1041 1.235 . S
C1044 O1050 1.287 . S
C1044 O1051 1.255 . S
O1045 Fe1034 1.976 . S
O1045 C1052 1.287 . S
O1046 Fe1035 1.996 . S
O1046 C1052 1.255 . S
O1047 Fe1037 1.976 . S
O1047 C1042 1.287 . S
O1048 Fe1034 1.996 . S
O1048 C1042 1.255 . S
C1049 O1053 1.295 . S
C1049 O1054 1.235 . S
O1050 Fe1035 1.976 . S
O1050 C1044 1.287 . S
O1051 Fe1037 1.996 . S
O1051 C1044 1.255 . S
C1052 O1045 1.287 . S
C1052 O1046 1.255 . S
O1053 Fe1035 2.002 . S
O1053 C1049 1.295 . S
O1054 Fe1037 1.997 . S
O1054 C1049 1.235 . S
C1055 O1038 1.295 . S
C1055 O1039 1.235 . S
C1056 C1057 1.387 . S
C1056 H1060 0.950 . S
C1056 C1065 1.390 1_545 S
C1057 C1056 1.387 . S
C1057 C1059 1.387 . S
H1058 C1065 0.950 . S
C1059 C1057 1.387 . S
C1059 C1061 1.390 1_545 S
C1059 H1063 0.950 . S
H1060 C1056 0.950 . S
C1061 C1059 1.390 1_565 S
C1061 C1062 1.387 . S
C1061 H1064 0.950 . S
C1062 C1061 1.387 . S
C1062 C1065 1.387 . S
H1063 C1059 0.950 . S
H1064 C1061 0.950 . S
C1065 C1056 1.390 1_565 S
C1065 H1058 0.950 . S
C1065 C1062 1.387 . S
C1066 C1067 1.387 . S
C1066 H1070 0.950 . S
C1066 C1075 1.390 1_455 S
C1067 C1066 1.387 . S
C1067 C1069 1.387 . S
H1068 C1075 0.950 . S
C1069 C1067 1.387 . S
C1069 C1071 1.390 1_455 S
C1069 H1073 0.950 . S
H1070 C1066 0.950 . S
C1071 C1069 1.390 1_655 S
C1071 C1072 1.387 . S
C1071 H1074 0.950 . S
C1072 C1071 1.387 . S
C1072 C1075 1.387 . S
H1073 C1069 0.950 . S
H1074 C1071 0.950 . S
C1075 C1066 1.390 1_655 S
C1075 H1068 0.950 . S
C1075 C1072 1.387 . S
C1076 C1077 1.387 . S
C1076 H1080 0.950 . S
C1076 C1085 1.390 1_545 S
C1077 C1076 1.387 . S
C1077 C1079 1.387 . S
H1078 C1085 0.950 . S
C1079 C1077 1.387 . S
C1079 C1081 1.390 1_545 S
C1079 H1083 0.950 . S
H1080 C1076 0.950 . S
C1081 C1079 1.390 1_565 S
C1081 C1082 1.387 . S
C1081 H1084 0.950 . S
C1082 C1081 1.387 . S
C1082 C1085 1.387 . S
H1083 C1079 0.950 . S
H1084 C1081 0.950 . S
C1085 C1076 1.390 1_565 S
C1085 H1078 0.950 . S
C1085 C1082 1.387 . S
C1086 C1087 1.387 . S
C1086 H1090 0.950 . S
C1086 C1095 1.390 1_655 S
C1087 C1086 1.387 . S
C1087 C1089 1.387 . S
H1088 C1095 0.950 . S
C1089 C1087 1.387 . S
C1089 C1091 1.390 1_655 S
C1089 H1093 0.950 . S
H1090 C1086 0.950 . S
C1091 C1089 1.390 1_455 S
C1091 C1092 1.387 . S
C1091 H1094 0.950 . S
C1092 C1091 1.387 . S
C1092 C1095 1.387 . S
H1093 C1089 0.950 . S
H1094 C1091 0.950 . S
C1095 C1086 1.390 1_455 S
C1095 H1088 0.950 . S
C1095 C1092 1.387 . S
C1096 C1097 1.387 . S
C1096 H1100 0.950 . S
C1096 C1105 1.390 1_565 S
C1097 C1096 1.387 . S
C1097 C1099 1.387 . S
H1098 C1105 0.950 . S
C1099 C1097 1.387 . S
C1099 C1101 1.390 1_565 S
C1099 H1103 0.950 . S
H1100 C1096 0.950 . S
C1101 C1099 1.390 1_545 S
C1101 C1102 1.387 . S
C1101 H1104 0.950 . S
C1102 C1101 1.387 . S
C1102 C1105 1.387 . S
H1103 C1099 0.950 . S
H1104 C1101 0.950 . S
C1105 C1096 1.390 1_545 S
C1105 H1098 0.950 . S
C1105 C1102 1.387 . S
C1106 C1107 1.387 . S
C1106 H1110 0.950 . S
C1106 C1115 1.390 1_455 S
C1107 C1106 1.387 . S
C1107 C1109 1.387 . S
H1108 C1115 0.950 . S
C1109 C1107 1.387 . S
C1109 C1111 1.390 1_455 S
C1109 H1113 0.950 . S
H1110 C1106 0.950 . S
C1111 C1109 1.390 1_655 S
C1111 C1112 1.387 . S
C1111 H1114 0.950 . S
C1112 C1111 1.387 . S
C1112 C1115 1.387 . S
H1113 C1109 0.950 . S
H1114 C1111 0.950 . S
C1115 C1106 1.390 1_655 S
C1115 H1108 0.950 . S
C1115 C1112 1.387 . S
C1116 C1117 1.387 . S
C1116 H1120 0.950 . S
C1116 C1125 1.390 1_545 S
C1117 C1116 1.387 . S
C1117 C1119 1.387 . S
H1118 C1125 0.950 . S
C1119 C1117 1.387 . S
C1119 C1121 1.390 1_545 S
C1119 H1123 0.950 . S
H1120 C1116 0.950 . S
C1121 C1119 1.390 1_565 S
C1121 C1122 1.387 . S
C1121 H1124 0.950 . S
C1122 C1121 1.387 . S
C1122 C1125 1.387 . S
H1123 C1119 0.950 . S
H1124 C1121 0.950 . S
C1125 C1116 1.390 1_565 S
C1125 H1118 0.950 . S
C1125 C1122 1.387 . S
C1126 C1127 1.387 . S
C1126 H1130 0.950 . S
C1126 C1135 1.390 1_655 S
C1127 C1126 1.387 . S
C1127 C1129 1.387 . S
H1128 C1135 0.950 . S
C1129 C1127 1.387 . S
C1129 C1131 1.390 1_655 S
C1129 H1133 0.950 . S
H1130 C1126 0.950 . S
C1131 C1129 1.390 1_455 S
C1131 C1132 1.387 . S
C1131 H1134 0.950 . S
C1132 C1131 1.387 . S
C1132 C1135 1.387 . S
H1133 C1129 0.950 . S
H1134 C1131 0.950 . S
C1135 C1126 1.390 1_455 S
C1135 H1128 0.950 . S
C1135 C1132 1.387 . S
C1136 C1137 1.387 . S
C1136 H1140 0.950 . S
C1136 C1145 1.390 1_554 S
C1137 C1136 1.387 . S
C1137 C1139 1.387 . S
H1138 C1145 0.950 . S
C1139 C1137 1.387 . S
C1139 C1141 1.390 1_554 S
C1139 H1143 0.950 . S
H1140 C1136 0.950 . S
C1141 C1139 1.390 1_556 S
C1141 C1142 1.387 . S
C1141 H1144 0.950 . S
C1142 C1141 1.387 . S
C1142 C1145 1.387 . S
H1143 C1139 0.950 . S
H1144 C1141 0.950 . S
C1145 C1136 1.390 1_556 S
C1145 H1138 0.950 . S
C1145 C1142 1.387 . S
C1146 C1147 1.387 . S
C1146 H1150 0.950 . S
C1146 C1155 1.390 1_556 S
C1147 C1146 1.387 . S
C1147 C1149 1.387 . S
H1148 C1155 0.950 . S
C1149 C1147 1.387 . S
C1149 C1151 1.390 1_556 S
C1149 H1153 0.950 . S
H1150 C1146 0.950 . S
C1151 C1149 1.390 1_554 S
C1151 C1152 1.387 . S
C1151 H1154 0.950 . S
C1152 C1151 1.387 . S
C1152 C1155 1.387 . S
H1153 C1149 0.950 . S
H1154 C1151 0.950 . S
C1155 C1146 1.390 1_554 S
C1155 H1148 0.950 . S
C1155 C1152 1.387 . S
C1156 C1157 1.387 . S
C1156 H1160 0.950 . S
C1156 C1165 1.390 1_556 S
C1157 C1156 1.387 . S
C1157 C1159 1.387 . S
H1158 C1165 0.950 . S
C1159 C1157 1.387 . S
C1159 C1161 1.390 1_556 S
C1159 H1163 0.950 . S
H1160 C1156 0.950 . S
C1161 C1159 1.390 1_554 S
C1161 C1162 1.387 . S
C1161 H1164 0.950 . S
C1162 C1161 1.387 . S
C1162 C1165 1.387 . S
H1163 C1159 0.950 . S
H1164 C1161 0.950 . S
C1165 C1156 1.390 1_554 S
C1165 H1158 0.950 . S
C1165 C1162 1.387 . S
C1166 C1167 1.387 . S
C1166 H1170 0.950 . S
C1166 C1175 1.390 1_556 S
C1167 C1166 1.387 . S
C1167 C1169 1.387 . S
H1168 C1175 0.950 . S
C1169 C1167 1.387 . S
C1169 C1171 1.390 1_556 S
C1169 H1173 0.950 . S
H1170 C1166 0.950 . S
C1171 C1169 1.390 1_554 S
C1171 C1172 1.387 . S
C1171 H1174 0.950 . S
C1172 C1171 1.387 . S
C1172 C1175 1.387 . S
H1173 C1169 0.950 . S
H1174 C1171 0.950 . S
C1175 C1166 1.390 1_554 S
C1175 H1168 0.950 . S
C1175 C1172 1.387 . S
C1176 C1177 1.387 . S
C1176 H1180 0.950 . S
C1176 C1185 1.390 1_556 S
C1177 C1176 1.387 . S
C1177 C1179 1.387 . S
H1178 C1185 0.950 . S
C1179 C1177 1.387 . S
C1179 C1181 1.390 1_556 S
C1179 H1183 0.950 . S
H1180 C1176 0.950 . S
C1181 C1179 1.390 1_554 S
C1181 C1182 1.387 . S
C1181 H1184 0.950 . S
C1182 C1181 1.387 . S
C1182 C1185 1.387 . S
H1183 C1179 0.950 . S
H1184 C1181 0.950 . S
C1185 C1176 1.390 1_554 S
C1185 H1178 0.950 . S
C1185 C1182 1.387 . S
C1186 C1187 1.387 . S
C1186 H1190 0.950 . S
C1186 C1195 1.390 1_556 S
C1187 C1186 1.387 . S
C1187 C1189 1.387 . S
H1188 C1195 0.950 . S
C1189 C1187 1.387 . S
C1189 C1191 1.390 1_556 S
C1189 H1193 0.950 . S
H1190 C1186 0.950 . S
C1191 C1189 1.390 1_554 S
C1191 C1192 1.387 . S
C1191 H1194 0.950 . S
C1192 C1191 1.387 . S
C1192 C1195 1.387 . S
H1193 C1189 0.950 . S
H1194 C1191 0.950 . S
C1195 C1186 1.390 1_554 S
C1195 H1188 0.950 . S
C1195 C1192 1.387 . S
C1196 C1197 1.387 . S
C1196 H1200 0.950 . S
C1196 C1205 1.390 1_556 S
C1197 C1196 1.387 . S
C1197 C1199 1.387 . S
H1198 C1205 0.950 . S
C1199 C1197 1.387 . S
C1199 C1201 1.390 1_556 S
C1199 H1203 0.950 . S
H1200 C1196 0.950 . S
C1201 C1199 1.390 1_554 S
C1201 C1202 1.387 . S
C1201 H1204 0.950 . S
C1202 C1201 1.387 . S
C1202 C1205 1.387 . S
H1203 C1199 0.950 . S
H1204 C1201 0.950 . S
C1205 C1196 1.390 1_554 S
C1205 H1198 0.950 . S
C1205 C1202 1.387 . S
C1206 C1207 1.387 . S
C1206 H1210 0.950 . S
C1206 C1215 1.390 1_556 S
C1207 C1206 1.387 . S
C1207 C1209 1.387 . S
H1208 C1215 0.950 . S
C1209 C1207 1.387 . S
C1209 C1211 1.390 1_556 S
C1209 H1213 0.950 . S
H1210 C1206 0.950 . S
C1211 C1209 1.390 1_554 S
C1211 C1212 1.387 . S
C1211 H1214 0.950 . S
C1212 C1211 1.387 . S
C1212 C1215 1.387 . S
H1213 C1209 0.950 . S
H1214 C1211 0.950 . S
C1215 C1206 1.390 1_554 S
C1215 H1208 0.950 . S
C1215 C1212 1.387 . S
C1216 C1217 1.387 . S
C1216 H1220 0.950 . S
C1216 C1225 1.390 1_655 S
C1217 C1216 1.387 . S
C1217 C1219 1.387 . S
H1218 C1225 0.950 . S
C1219 C1217 1.387 . S
C1219 C1221 1.390 1_655 S
C1219 H1223 0.950 . S
H1220 C1216 0.950 . S
C1221 C1219 1.390 1_455 S
C1221 C1222 1.387 . S
C1221 H1224 0.950 . S
C1222 C1221 1.387 . S
C1222 C1225 1.387 . S
H1223 C1219 0.950 . S
H1224 C1221 0.950 . S
C1225 C1216 1.390 1_455 S
C1225 H1218 0.950 . S
C1225 C1222 1.387 . S
C1226 C1227 1.387 . S
C1226 H1230 0.950 . S
C1226 C1235 1.390 1_455 S
C1227 C1226 1.387 . S
C1227 C1229 1.387 . S
H1228 C1235 0.950 . S
C1229 C1227 1.387 . S
C1229 C1231 1.390 1_455 S
C1229 H1233 0.950 . S
H1230 C1226 0.950 . S
C1231 C1229 1.390 1_655 S
C1231 C1232 1.387 . S
C1231 H1234 0.950 . S
C1232 C1231 1.387 . S
C1232 C1235 1.387 . S
H1233 C1229 0.950 . S
H1234 C1231 0.950 . S
C1235 C1226 1.390 1_655 S
C1235 H1228 0.950 . S
C1235 C1232 1.387 . S
C1236 C1237 1.387 . S
C1236 H1240 0.950 . S
C1236 C1245 1.390 1_545 S
C1237 C1236 1.387 . S
C1237 C1239 1.387 . S
H1238 C1245 0.950 . S
C1239 C1237 1.387 . S
C1239 C1241 1.390 1_545 S
C1239 H1243 0.950 . S
H1240 C1236 0.950 . S
C1241 C1239 1.390 1_565 S
C1241 C1242 1.387 . S
C1241 H1244 0.950 . S
C1242 C1241 1.387 . S
C1242 C1245 1.387 . S
H1243 C1239 0.950 . S
H1244 C1241 0.950 . S
C1245 C1236 1.390 1_565 S
C1245 H1238 0.950 . S
C1245 C1242 1.387 . S
C1246 C1247 1.387 . S
C1246 H1250 0.950 . S
C1246 C1255 1.390 1_655 S
C1247 C1246 1.387 . S
C1247 C1249 1.387 . S
H1248 C1255 0.950 . S
C1249 C1247 1.387 . S
C1249 C1251 1.390 1_655 S
C1249 H1253 0.950 . S
H1250 C1246 0.950 . S
C1251 C1249 1.390 1_455 S
C1251 C1252 1.387 . S
C1251 H1254 0.950 . S
C1252 C1251 1.387 . S
C1252 C1255 1.387 . S
H1253 C1249 0.950 . S
H1254 C1251 0.950 . S
C1255 C1246 1.390 1_455 S
C1255 H1248 0.950 . S
C1255 C1252 1.387 . S
C1256 C1257 1.387 . S
C1256 H1260 0.950 . S
C1256 C1265 1.390 1_565 S
C1257 C1256 1.387 . S
C1257 C1259 1.387 . S
H1258 C1265 0.950 . S
C1259 C1257 1.387 . S
C1259 C1261 1.390 1_565 S
C1259 H1263 0.950 . S
H1260 C1256 0.950 . S
C1261 C1259 1.390 1_545 S
C1261 C1262 1.387 . S
C1261 H1264 0.950 . S
C1262 C1261 1.387 . S
C1262 C1265 1.387 . S
H1263 C1259 0.950 . S
H1264 C1261 0.950 . S
C1265 C1256 1.390 1_545 S
C1265 H1258 0.950 . S
C1265 C1262 1.387 . S
C1266 C1267 1.387 . S
C1266 H1270 0.950 . S
C1266 C1275 1.390 1_455 S
C1267 C1266 1.387 . S
C1267 C1269 1.387 . S
H1268 C1275 0.950 . S
C1269 C1267 1.387 . S
C1269 C1271 1.390 1_455 S
C1269 H1273 0.950 . S
H1270 C1266 0.950 . S
C1271 C1269 1.390 1_655 S
C1271 C1272 1.387 . S
C1271 H1274 0.950 . S
C1272 C1271 1.387 . S
C1272 C1275 1.387 . S
H1273 C1269 0.950 . S
H1274 C1271 0.950 . S
C1275 C1266 1.390 1_655 S
C1275 H1268 0.950 . S
C1275 C1272 1.387 . S
C1276 C1277 1.387 . S
C1276 H1280 0.950 . S
C1276 C1285 1.390 1_565 S
C1277 C1276 1.387 . S
C1277 C1279 1.387 . S
H1278 C1285 0.950 . S
C1279 C1277 1.387 . S
C1279 C1281 1.390 1_565 S
C1279 H1283 0.950 . S
H1280 C1276 0.950 . S
C1281 C1279 1.390 1_545 S
C1281 C1282 1.387 . S
C1281 H1284 0.950 . S
C1282 C1281 1.387 . S
C1282 C1285 1.387 . S
H1283 C1279 0.950 . S
H1284 C1281 0.950 . S
C1285 C1276 1.390 1_545 S
C1285 H1278 0.950 . S
C1285 C1282 1.387 . S
C1286 C1287 1.387 . S
C1286 H1290 0.950 . S
C1286 C1295 1.390 1_545 S
C1287 C1286 1.387 . S
C1287 C1289 1.387 . S
H1288 C1295 0.950 . S
C1289 C1287 1.387 . S
C1289 C1291 1.390 1_545 S
C1289 H1293 0.950 . S
H1290 C1286 0.950 . S
C1291 C1289 1.390 1_565 S
C1291 C1292 1.387 . S
C1291 H1294 0.950 . S
C1292 C1291 1.387 . S
C1292 C1295 1.387 . S
H1293 C1289 0.950 . S
H1294 C1291 0.950 . S
C1295 C1286 1.390 1_565 S
C1295 H1288 0.950 . S
C1295 C1292 1.387 . S
C1296 C1297 1.387 . S
C1296 H1300 0.950 . S
C1296 C1305 1.390 . S
C1297 C1296 1.387 . S
C1297 C1299 1.387 . S
H1298 C1305 0.950 . S
C1299 C1297 1.387 . S
C1299 C1301 1.390 . S
C1299 H1303 0.950 . S
H1300 C1296 0.950 . S
C1301 C1299 1.390 . S
C1301 C1302 1.387 . S
C1301 H1304 0.950 . S
C1302 C1301 1.387 . S
C1302 C1305 1.387 . S
H1303 C1299 0.950 . S
H1304 C1301 0.950 . S
C1305 C1296 1.390 . S
C1305 H1298 0.950 . S
C1305 C1302 1.387 . S
C1306 C1307 1.387 . S
C1306 H1310 0.950 . S
C1306 C1315 1.390 . S
C1307 C1306 1.387 . S
C1307 C1309 1.387 . S
H1308 C1315 0.950 . S
C1309 C1307 1.387 . S
C1309 C1311 1.390 . S
C1309 H1313 0.950 . S
H1310 C1306 0.950 . S
C1311 C1309 1.390 . S
C1311 C1312 1.387 . S
C1311 H1314 0.950 . S
C1312 C1311 1.387 . S
C1312 C1315 1.387 . S
H1313 C1309 0.950 . S
H1314 C1311 0.950 . S
C1315 C1306 1.390 . S
C1315 H1308 0.950 . S
C1315 C1312 1.387 . S
C1316 C1317 1.387 . S
C1316 H1320 0.950 . S
C1316 C1325 1.390 . S
C1317 C1316 1.387 . S
C1317 C1319 1.387 . S
H1318 C1325 0.950 . S
C1319 C1317 1.387 . S
C1319 C1321 1.390 . S
C1319 H1323 0.950 . S
H1320 C1316 0.950 . S
C1321 C1319 1.390 . S
C1321 C1322 1.387 . S
C1321 H1324 0.950 . S
C1322 C1321 1.387 . S
C1322 C1325 1.387 . S
H1323 C1319 0.950 . S
H1324 C1321 0.950 . S
C1325 C1316 1.390 . S
C1325 H1318 0.950 . S
C1325 C1322 1.387 . S
C1326 C1327 1.387 . S
C1326 H1330 0.950 . S
C1326 C1335 1.390 . S
C1327 C1326 1.387 . S
C1327 C1329 1.387 . S
H1328 C1335 0.950 . S
C1329 C1327 1.387 . S
C1329 C1331 1.390 . S
C1329 H1333 0.950 . S
H1330 C1326 0.950 . S
C1331 C1329 1.390 . S
C1331 C1332 1.387 . S
C1331 H1334 0.950 . S
C1332 C1331 1.387 . S
C1332 C1335 1.387 . S
H1333 C1329 0.950 . S
H1334 C1331 0.950 . S
C1335 C1326 1.390 . S
C1335 H1328 0.950 . S
C1335 C1332 1.387 . S
C1336 C1337 1.387 . S
C1336 H1340 0.950 . S
C1336 C1345 1.390 . S
C1337 C1336 1.387 . S
C1337 C1339 1.387 . S
H1338 C1345 0.950 . S
C1339 C1337 1.387 . S
C1339 C1341 1.390 . S
C1339 H1343 0.950 . S
H1340 C1336 0.950 . S
C1341 C1339 1.390 . S
C1341 C1342 1.387 . S
C1341 H1344 0.950 . S
C1342 C1341 1.387 . S
C1342 C1345 1.387 . S
H1343 C1339 0.950 . S
H1344 C1341 0.950 . S
C1345 C1336 1.390 . S
C1345 H1338 0.950 . S
C1345 C1342 1.387 . S
C1346 C1347 1.387 . S
C1346 H1350 0.950 . S
C1346 C1355 1.390 . S
C1347 C1346 1.387 . S
C1347 C1349 1.387 . S
H1348 C1355 0.950 . S
C1349 C1347 1.387 . S
C1349 C1351 1.390 . S
C1349 H1353 0.950 . S
H1350 C1346 0.950 . S
C1351 C1349 1.390 . S
C1351 C1352 1.387 . S
C1351 H1354 0.950 . S
C1352 C1351 1.387 . S
C1352 C1355 1.387 . S
H1353 C1349 0.950 . S
H1354 C1351 0.950 . S
C1355 C1346 1.390 . S
C1355 H1348 0.950 . S
C1355 C1352 1.387 . S
C1356 C1357 1.387 . S
C1356 H1360 0.950 . S
C1356 C1365 1.390 . S
C1357 C1356 1.387 . S
C1357 C1359 1.387 . S
H1358 C1365 0.950 . S
C1359 C1357 1.387 . S
C1359 C1361 1.390 . S
C1359 H1363 0.950 . S
H1360 C1356 0.950 . S
C1361 C1359 1.390 . S
C1361 C1362 1.387 . S
C1361 H1364 0.950 . S
C1362 C1361 1.387 . S
C1362 C1365 1.387 . S
H1363 C1359 0.950 . S
H1364 C1361 0.950 . S
C1365 C1356 1.390 . S
C1365 H1358 0.950 . S
C1365 C1362 1.387 . S
C1366 C1367 1.387 . S
C1366 H1370 0.950 . S
C1366 C1375 1.390 . S
C1367 C1366 1.387 . S
C1367 C1369 1.387 . S
H1368 C1375 0.950 . S
C1369 C1367 1.387 . S
C1369 C1371 1.390 . S
C1369 H1373 0.950 . S
H1370 C1366 0.950 . S
C1371 C1369 1.390 . S
C1371 C1372 1.387 . S
C1371 H1374 0.950 . S
C1372 C1371 1.387 . S
C1372 C1375 1.387 . S
H1373 C1369 0.950 . S
H1374 C1371 0.950 . S
C1375 C1366 1.390 . S
C1375 H1368 0.950 . S
C1375 C1372 1.387 . S
C1376 C1377 1.387 . S
C1376 H1380 0.950 . S
C1376 C1385 1.390 . S
C1377 C1376 1.387 . S
C1377 C1379 1.387 . S
H1378 C1385 0.950 . S
C1379 C1377 1.387 . S
C1379 C1381 1.390 . S
C1379 H1383 0.950 . S
H1380 C1376 0.950 . S
C1381 C1379 1.390 . S
C1381 C1382 1.387 . S
C1381 H1384 0.950 . S
C1382 C1381 1.387 . S
C1382 C1385 1.387 . S
H1383 C1379 0.950 . S
H1384 C1381 0.950 . S
C1385 C1376 1.390 . S
C1385 H1378 0.950 . S
C1385 C1382 1.387 . S
C1386 C1387 1.387 . S
C1386 H1390 0.950 . S
C1386 C1395 1.390 . S
C1387 C1386 1.387 . S
C1387 C1389 1.387 . S
H1388 C1395 0.950 . S
C1389 C1387 1.387 . S
C1389 C1391 1.390 . S
C1389 H1393 0.950 . S
H1390 C1386 0.950 . S
C1391 C1389 1.390 . S
C1391 C1392 1.387 . S
C1391 H1394 0.950 . S
C1392 C1391 1.387 . S
C1392 C1395 1.387 . S
H1393 C1389 0.950 . S
H1394 C1391 0.950 . S
C1395 C1386 1.390 . S
C1395 H1388 0.950 . S
C1395 C1392 1.387 . S
C1396 C1397 1.387 . S
C1396 H1400 0.950 . S
C1396 C1405 1.390 . S
C1397 C1396 1.387 . S
C1397 C1399 1.387 . S
H1398 C1405 0.950 . S
C1399 C1397 1.387 . S
C1399 C1401 1.390 . S
C1399 H1403 0.950 . S
H1400 C1396 0.950 . S
C1401 C1399 1.390 . S
C1401 C1402 1.387 . S
C1401 H1404 0.950 . S
C1402 C1401 1.387 . S
C1402 C1405 1.387 . S
H1403 C1399 0.950 . S
H1404 C1401 0.950 . S
C1405 C1396 1.390 . S
C1405 H1398 0.950 . S
C1405 C1402 1.387 . S
C1406 C1407 1.387 . S
C1406 H1410 0.950 . S
C1406 C1415 1.390 . S
C1407 C1406 1.387 . S
C1407 C1409 1.387 . S
H1408 C1415 0.950 . S
C1409 C1407 1.387 . S
C1409 C1411 1.390 . S
C1409 H1413 0.950 . S
H1410 C1406 0.950 . S
C1411 C1409 1.390 . S
C1411 C1412 1.387 . S
C1411 H1414 0.950 . S
C1412 C1411 1.387 . S
C1412 C1415 1.387 . S
H1413 C1409 0.950 . S
H1414 C1411 0.950 . S
C1415 C1406 1.390 . S
C1415 H1408 0.950 . S
C1415 C1412 1.387 . S
C1416 C1417 1.387 . S
C1416 H1420 0.950 . S
C1416 C1425 1.390 . S
C1417 C1416 1.387 . S
C1417 C1419 1.387 . S
H1418 C1425 0.950 . S
C1419 C1417 1.387 . S
C1419 C1421 1.390 . S
C1419 H1423 0.950 . S
H1420 C1416 0.950 . S
C1421 C1419 1.390 . S
C1421 C1422 1.387 . S
C1421 H1424 0.950 . S
C1422 C1421 1.387 . S
C1422 C1425 1.387 . S
H1423 C1419 0.950 . S
H1424 C1421 0.950 . S
C1425 C1416 1.390 . S
C1425 H1418 0.950 . S
C1425 C1422 1.387 . S
C1426 C1427 1.387 . S
C1426 H1430 0.950 . S
C1426 C1435 1.390 . S
C1427 C1426 1.387 . S
C1427 C1429 1.387 . S
H1428 C1435 0.950 . S
C1429 C1427 1.387 . S
C1429 C1431 1.390 . S
C1429 H1433 0.950 . S
H1430 C1426 0.950 . S
C1431 C1429 1.390 . S
C1431 C1432 1.387 . S
C1431 H1434 0.950 . S
C1432 C1431 1.387 . S
C1432 C1435 1.387 . S
H1433 C1429 0.950 . S
H1434 C1431 0.950 . S
C1435 C1426 1.390 . S
C1435 H1428 0.950 . S
C1435 C1432 1.387 . S
C1436 C1437 1.387 . S
C1436 H1440 0.950 . S
C1436 C1445 1.390 . S
C1437 C1436 1.387 . S
C1437 C1439 1.387 . S
H1438 C1445 0.950 . S
C1439 C1437 1.387 . S
C1439 C1441 1.390 . S
C1439 H1443 0.950 . S
H1440 C1436 0.950 . S
C1441 C1439 1.390 . S
C1441 C1442 1.387 . S
C1441 H1444 0.950 . S
C1442 C1441 1.387 . S
C1442 C1445 1.387 . S
H1443 C1439 0.950 . S
H1444 C1441 0.950 . S
C1445 C1436 1.390 . S
C1445 H1438 0.950 . S
C1445 C1442 1.387 . S
C1446 C1447 1.387 . S
C1446 H1450 0.950 . S
C1446 C1455 1.390 . S
C1447 C1446 1.387 . S
C1447 C1449 1.387 . S
H1448 C1455 0.950 . S
C1449 C1447 1.387 . S
C1449 C1451 1.390 . S
C1449 H1453 0.950 . S
H1450 C1446 0.950 . S
C1451 C1449 1.390 . S
C1451 C1452 1.387 . S
C1451 H1454 0.950 . S
C1452 C1451 1.387 . S
C1452 C1455 1.387 . S
H1453 C1449 0.950 . S
H1454 C1451 0.950 . S
C1455 C1446 1.390 . S
C1455 H1448 0.950 . S
C1455 C1452 1.387 . S
C1456 C1457 1.387 . S
C1456 H1460 0.950 . S
C1456 C1465 1.390 . S
C1457 C1456 1.387 . S
C1457 C1459 1.387 . S
H1458 C1465 0.950 . S
C1459 C1457 1.387 . S
C1459 C1461 1.390 . S
C1459 H1463 0.950 . S
H1460 C1456 0.950 . S
C1461 C1459 1.390 . S
C1461 C1462 1.387 . S
C1461 H1464 0.950 . S
C1462 C1461 1.387 . S
C1462 C1465 1.387 . S
H1463 C1459 0.950 . S
H1464 C1461 0.950 . S
C1465 C1456 1.390 . S
C1465 H1458 0.950 . S
C1465 C1462 1.387 . S
C1466 C1467 1.387 . S
C1466 H1470 0.950 . S
C1466 C1475 1.390 . S
C1467 C1466 1.387 . S
C1467 C1469 1.387 . S
H1468 C1475 0.950 . S
C1469 C1467 1.387 . S
C1469 C1471 1.390 . S
C1469 H1473 0.950 . S
H1470 C1466 0.950 . S
C1471 C1469 1.390 . S
C1471 C1472 1.387 . S
C1471 H1474 0.950 . S
C1472 C1471 1.387 . S
C1472 C1475 1.387 . S
H1473 C1469 0.950 . S
H1474 C1471 0.950 . S
C1475 C1466 1.390 . S
C1475 H1468 0.950 . S
C1475 C1472 1.387 . S
C1476 C1477 1.387 . S
C1476 H1480 0.950 . S
C1476 C1485 1.390 . S
C1477 C1476 1.387 . S
C1477 C1479 1.387 . S
H1478 C1485 0.950 . S
C1479 C1477 1.387 . S
C1479 C1481 1.390 . S
C1479 H1483 0.950 . S
H1480 C1476 0.950 . S
C1481 C1479 1.390 . S
C1481 C1482 1.387 . S
C1481 H1484 0.950 . S
C1482 C1481 1.387 . S
C1482 C1485 1.387 . S
H1483 C1479 0.950 . S
H1484 C1481 0.950 . S
C1485 C1476 1.390 . S
C1485 H1478 0.950 . S
C1485 C1482 1.387 . S
C1486 C1487 1.387 . S
C1486 H1490 0.950 . S
C1486 C1495 1.390 . S
C1487 C1486 1.387 . S
C1487 C1489 1.387 . S
H1488 C1495 0.950 . S
C1489 C1487 1.387 . S
C1489 C1491 1.390 . S
C1489 H1493 0.950 . S
H1490 C1486 0.950 . S
C1491 C1489 1.390 . S
C1491 C1492 1.387 . S
C1491 H1494 0.950 . S
C1492 C1491 1.387 . S
C1492 C1495 1.387 . S
H1493 C1489 0.950 . S
H1494 C1491 0.950 . S
C1495 C1486 1.390 . S
C1495 H1488 0.950 . S
C1495 C1492 1.387 . S
C1496 C1497 1.387 . S
C1496 H1500 0.950 . S
C1496 C1505 1.390 . S
C1497 C1496 1.387 . S
C1497 C1499 1.387 . S
H1498 C1505 0.950 . S
C1499 C1497 1.387 . S
C1499 C1501 1.390 . S
C1499 H1503 0.950 . S
H1500 C1496 0.950 . S
C1501 C1499 1.390 . S
C1501 C1502 1.387 . S
C1501 H1504 0.950 . S
C1502 C1501 1.387 . S
C1502 C1505 1.387 . S
H1503 C1499 0.950 . S
H1504 C1501 0.950 . S
C1505 C1496 1.390 . S
C1505 H1498 0.950 . S
C1505 C1502 1.387 . S
C1506 C1507 1.387 . S
C1506 H1510 0.950 . S
C1506 C1515 1.390 . S
C1507 C1506 1.387 . S
C1507 C1509 1.387 . S
H1508 C1515 0.950 . S
C1509 C1507 1.387 . S
C1509 C1511 1.390 . S
C1509 H1513 0.950 . S
H1510 C1506 0.950 . S
C1511 C1509 1.390 . S
C1511 C1512 1.387 . S
C1511 H1514 0.950 . S
C1512 C1511 1.387 . S
C1512 C1515 1.387 . S
H1513 C1509 0.950 . S
H1514 C1511 0.950 . S
C1515 C1506 1.390 . S
C1515 H1508 0.950 . S
C1515 C1512 1.387 . S
C1516 C1517 1.387 . S
C1516 H1520 0.950 . S
C1516 C1525 1.390 . S
C1517 C1516 1.387 . S
C1517 C1519 1.387 . S
H1518 C1525 0.950 . S
C1519 C1517 1.387 . S
C1519 C1521 1.390 . S
C1519 H1523 0.950 . S
H1520 C1516 0.950 . S
C1521 C1519 1.390 . S
C1521 C1522 1.387 . S
C1521 H1524 0.950 . S
C1522 C1521 1.387 . S
C1522 C1525 1.387 . S
H1523 C1519 0.950 . S
H1524 C1521 0.950 . S
C1525 C1516 1.390 . S
C1525 H1518 0.950 . S
C1525 C1522 1.387 . S
C1526 C1527 1.387 . S
C1526 H1530 0.950 . S
C1526 C1535 1.390 . S
C1527 C1526 1.387 . S
C1527 C1529 1.387 . S
H1528 C1535 0.950 . S
C1529 C1527 1.387 . S
C1529 C1531 1.390 . S
C1529 H1533 0.950 . S
H1530 C1526 0.950 . S
C1531 C1529 1.390 . S
C1531 C1532 1.387 . S
C1531 H1534 0.950 . S
C1532 C1531 1.387 . S
C1532 C1535 1.387 . S
H1533 C1529 0.950 . S
H1534 C1531 0.950 . S
C1535 C1526 1.390 . S
C1535 H1528 0.950 . S
C1535 C1532 1.387 . S
C1536 C1537 1.387 . S
C1536 H1540 0.950 . S
C1536 C1545 1.390 . S
C1537 C1536 1.387 . S
C1537 C1539 1.387 . S
H1538 C1545 0.950 . S
C1539 C1537 1.387 . S
C1539 C1541 1.390 . S
C1539 H1543 0.950 . S
H1540 C1536 0.950 . S
C1541 C1539 1.390 . S
C1541 C1542 1.387 . S
C1541 H1544 0.950 . S
C1542 C1541 1.387 . S
C1542 C1545 1.387 . S
H1543 C1539 0.950 . S
H1544 C1541 0.950 . S
C1545 C1536 1.390 . S
C1545 H1538 0.950 . S
C1545 C1542 1.387 . S
C1546 C1547 1.387 . S
C1546 H1550 0.950 . S
C1546 C1555 1.390 . S
C1547 C1546 1.387 . S
C1547 C1549 1.387 . S
H1548 C1555 0.950 . S
C1549 C1547 1.387 . S
C1549 C1551 1.390 . S
C1549 H1553 0.950 . S
H1550 C1546 0.950 . S
C1551 C1549 1.390 . S
C1551 C1552 1.387 . S
C1551 H1554 0.950 . S
C1552 C1551 1.387 . S
C1552 C1555 1.387 . S
H1553 C1549 0.950 . S
H1554 C1551 0.950 . S
C1555 C1546 1.390 . S
C1555 H1548 0.950 . S
C1555 C1552 1.387 . S
C1556 C1557 1.387 . S
C1556 H1560 0.950 . S
C1556 C1565 1.390 . S
C1557 C1556 1.387 . S
C1557 C1559 1.387 . S
H1558 C1565 0.950 . S
C1559 C1557 1.387 . S
C1559 C1561 1.390 . S
C1559 H1563 0.950 . S
H1560 C1556 0.950 . S
C1561 C1559 1.390 . S
C1561 C1562 1.387 . S
C1561 H1564 0.950 . S
C1562 C1561 1.387 . S
C1562 C1565 1.387 . S
H1563 C1559 0.950 . S
H1564 C1561 0.950 . S
C1565 C1556 1.390 . S
C1565 H1558 0.950 . S
C1565 C1562 1.387 . S
C1566 C1567 1.387 . S
C1566 H1570 0.950 . S
C1566 C1575 1.390 . S
C1567 C1566 1.387 . S
C1567 C1569 1.387 . S
H1568 C1575 0.950 . S
C1569 C1567 1.387 . S
C1569 C1571 1.390 . S
C1569 H1573 0.950 . S
H1570 C1566 0.950 . S
C1571 C1569 1.390 . S
C1571 C1572 1.387 . S
C1571 H1574 0.950 . S
C1572 C1571 1.387 . S
C1572 C1575 1.387 . S
H1573 C1569 0.950 . S
H1574 C1571 0.950 . S
C1575 C1566 1.390 . S
C1575 H1568 0.950 . S
C1575 C1572 1.387 . S
C1576 C1577 1.387 . S
C1576 H1580 0.950 . S
C1576 C1585 1.390 . S
C1577 C1576 1.387 . S
C1577 C1579 1.387 . S
H1578 C1585 0.950 . S
C1579 C1577 1.387 . S
C1579 C1581 1.390 . S
C1579 H1583 0.950 . S
H1580 C1576 0.950 . S
C1581 C1579 1.390 . S
C1581 C1582 1.387 . S
C1581 H1584 0.950 . S
C1582 C1581 1.387 . S
C1582 C1585 1.387 . S
H1583 C1579 0.950 . S
H1584 C1581 0.950 . S
C1585 C1576 1.390 . S
C1585 H1578 0.950 . S
C1585 C1582 1.387 . S
C1586 C1587 1.387 . S
C1586 H1590 0.950 . S
C1586 C1595 1.390 . S
C1587 C1586 1.387 . S
C1587 C1589 1.387 . S
H1588 C1595 0.950 . S
C1589 C1587 1.387 . S
C1589 C1591 1.390 . S
C1589 H1593 0.950 . S
H1590 C1586 0.950 . S
C1591 C1589 1.390 . S
C1591 C1592 1.387 . S
C1591 H1594 0.950 . S
C1592 C1591 1.387 . S
C1592 C1595 1.387 . S
H1593 C1589 0.950 . S
H1594 C1591 0.950 . S
C1595 C1586 1.390 . S
C1595 H1588 0.950 . S
C1595 C1592 1.387 . S
C1596 C1597 1.387 . S
C1596 H1600 0.950 . S
C1596 C1605 1.390 . S
C1597 C1596 1.387 . S
C1597 C1599 1.387 . S
H1598 C1605 0.950 . S
C1599 C1597 1.387 . S
C1599 C1601 1.390 . S
C1599 H1603 0.950 . S
H1600 C1596 0.950 . S
C1601 C1599 1.390 . S
C1601 C1602 1.387 . S
C1601 H1604 0.950 . S
C1602 C1601 1.387 . S
C1602 C1605 1.387 . S
H1603 C1599 0.950 . S
H1604 C1601 0.950 . S
C1605 C1596 1.390 . S
C1605 H1598 0.950 . S
C1605 C1602 1.387 . S
C1606 C1607 1.387 . S
C1606 H1610 0.950 . S
C1606 C1615 1.390 . S
C1607 C1606 1.387 . S
C1607 C1609 1.387 . S
H1608 C1615 0.950 . S
C1609 C1607 1.387 . S
C1609 C1611 1.390 . S
C1609 H1613 0.950 . S
H1610 C1606 0.950 . S
C1611 C1609 1.390 . S
C1611 C1612 1.387 . S
C1611 H1614 0.950 . S
C1612 C1611 1.387 . S
C1612 C1615 1.387 . S
H1613 C1609 0.950 . S
H1614 C1611 0.950 . S
C1615 C1606 1.390 . S
C1615 H1608 0.950 . S
C1615 C1612 1.387 . S
C1616 C1617 1.387 . S
C1616 H1620 0.950 . S
C1616 C1625 1.390 . S
C1617 C1616 1.387 . S
C1617 C1619 1.387 . S
H1618 C1625 0.950 . S
C1619 C1617 1.387 . S
C1619 C1621 1.390 . S
C1619 H1623 0.950 . S
H1620 C1616 0.950 . S
C1621 C1619 1.390 . S
C1621 C1622 1.387 . S
C1621 H1624 0.950 . S
C1622 C1621 1.387 . S
C1622 C1625 1.387 . S
H1623 C1619 0.950 . S
H1624 C1621 0.950 . S
C1625 C1616 1.390 . S
C1625 H1618 0.950 . S
C1625 C1622 1.387 . S
C1626 C1627 1.387 . S
C1626 H1630 0.950 . S
C1626 C1635 1.390 . S
C1627 C1626 1.387 . S
C1627 C1629 1.387 . S
H1628 C1635 0.950 . S
C1629 C1627 1.387 . S
C1629 C1631 1.390 . S
C1629 H1633 0.950 . S
H1630 C1626 0.950 . S
C1631 C1629 1.390 . S
C1631 C1632 1.387 . S
C1631 H1634 0.950 . S
C1632 C1631 1.387 . S
C1632 C1635 1.387 . S
H1633 C1629 0.950 . S
H1634 C1631 0.950 . S
C1635 C1626 1.390 . S
C1635 H1628 0.950 . S
C1635 C1632 1.387 . S
C1636 C1637 1.387 . S
C1636 H1640 0.950 . S
C1636 C1645 1.390 . S
C1637 C1636 1.387 . S
C1637 C1639 1.387 . S
H1638 C1645 0.950 . S
C1639 C1637 1.387 . S
C1639 C1641 1.390 . S
C1639 H1643 0.950 . S
H1640 C1636 0.950 . S
C1641 C1639 1.390 . S
C1641 C1642 1.387 . S
C1641 H1644 0.950 . S
C1642 C1641 1.387 . S
C1642 C1645 1.387 . S
H1643 C1639 0.950 . S
H1644 C1641 0.950 . S
C1645 C1636 1.390 . S
C1645 H1638 0.950 . S
C1645 C1642 1.387 . S
C1646 C1647 1.387 . S
C1646 H1650 0.950 . S
C1646 C1655 1.390 . S
C1647 C1646 1.387 . S
C1647 C1649 1.387 . S
H1648 C1655 0.950 . S
C1649 C1647 1.387 . S
C1649 C1651 1.390 . S
C1649 H1653 0.950 . S
H1650 C1646 0.950 . S
C1651 C1649 1.390 . S
C1651 C1652 1.387 . S
C1651 H1654 0.950 . S
C1652 C1651 1.387 . S
C1652 C1655 1.387 . S
H1653 C1649 0.950 . S
H1654 C1651 0.950 . S
C1655 C1646 1.390 . S
C1655 H1648 0.950 . S
C1655 C1652 1.387 . S
C1656 C1657 1.387 . S
C1656 H1660 0.950 . S
C1656 C1665 1.390 . S
C1657 C1656 1.387 . S
C1657 C1659 1.387 . S
H1658 C1665 0.950 . S
C1659 C1657 1.387 . S
C1659 C1661 1.390 . S
C1659 H1663 0.950 . S
H1660 C1656 0.950 . S
C1661 C1659 1.390 . S
C1661 C1662 1.387 . S
C1661 H1664 0.950 . S
C1662 C1661 1.387 . S
C1662 C1665 1.387 . S
H1663 C1659 0.950 . S
H1664 C1661 0.950 . S
C1665 C1656 1.390 . S
C1665 H1658 0.950 . S
C1665 C1662 1.387 . S
C1666 C1667 1.387 . S
C1666 H1670 0.950 . S
C1666 C1675 1.390 . S
C1667 C1666 1.387 . S
C1667 C1669 1.387 . S
H1668 C1675 0.950 . S
C1669 C1667 1.387 . S
C1669 C1671 1.390 . S
C1669 H1673 0.950 . S
H1670 C1666 0.950 . S
C1671 C1669 1.390 . S
C1671 C1672 1.387 . S
C1671 H1674 0.950 . S
C1672 C1671 1.387 . S
C1672 C1675 1.387 . S
H1673 C1669 0.950 . S
H1674 C1671 0.950 . S
C1675 C1666 1.390 . S
C1675 H1668 0.950 . S
C1675 C1672 1.387 . S
C1676 C1677 1.387 . S
C1676 H1680 0.950 . S
C1676 C1685 1.390 . S
C1677 C1676 1.387 . S
C1677 C1679 1.387 . S
H1678 C1685 0.950 . S
C1679 C1677 1.387 . S
C1679 C1681 1.390 . S
C1679 H1683 0.950 . S
H1680 C1676 0.950 . S
C1681 C1679 1.390 . S
C1681 C1682 1.387 . S
C1681 H1684 0.950 . S
C1682 C1681 1.387 . S
C1682 C1685 1.387 . S
H1683 C1679 0.950 . S
H1684 C1681 0.950 . S
C1685 C1676 1.390 . S
C1685 H1678 0.950 . S
C1685 C1682 1.387 . S
C1686 C1687 1.387 . S
C1686 H1690 0.950 . S
C1686 C1695 1.390 . S
C1687 C1686 1.387 . S
C1687 C1689 1.387 . S
H1688 C1695 0.950 . S
C1689 C1687 1.387 . S
C1689 C1691 1.390 . S
C1689 H1693 0.950 . S
H1690 C1686 0.950 . S
C1691 C1689 1.390 . S
C1691 C1692 1.387 . S
C1691 H1694 0.950 . S
C1692 C1691 1.387 . S
C1692 C1695 1.387 . S
H1693 C1689 0.950 . S
H1694 C1691 0.950 . S
C1695 C1686 1.390 . S
C1695 H1688 0.950 . S
C1695 C1692 1.387 . S
C1696 C1697 1.387 . S
C1696 H1700 0.950 . S
C1696 C1705 1.390 . S
C1697 C1696 1.387 . S
C1697 C1699 1.387 . S
H1698 C1705 0.950 . S
C1699 C1697 1.387 . S
C1699 C1701 1.390 . S
C1699 H1703 0.950 . S
H1700 C1696 0.950 . S
C1701 C1699 1.390 . S
C1701 C1702 1.387 . S
C1701 H1704 0.950 . S
C1702 C1701 1.387 . S
C1702 C1705 1.387 . S
H1703 C1699 0.950 . S
H1704 C1701 0.950 . S
C1705 C1696 1.390 . S
C1705 H1698 0.950 . S
C1705 C1702 1.387 . S
C1706 C1707 1.387 . S
C1706 H1710 0.950 . S
C1706 C1715 1.390 . S
C1707 C1706 1.387 . S
C1707 C1709 1.387 . S
H1708 C1715 0.950 . S
C1709 C1707 1.387 . S
C1709 C1711 1.390 . S
C1709 H1713 0.950 . S
H1710 C1706 0.950 . S
C1711 C1709 1.390 . S
C1711 C1712 1.387 . S
C1711 H1714 0.950 . S
C1712 C1711 1.387 . S
C1712 C1715 1.387 . S
H1713 C1709 0.950 . S
H1714 C1711 0.950 . S
C1715 C1706 1.390 . S
C1715 H1708 0.950 . S
C1715 C1712 1.387 . S
C1716 C1717 1.387 . S
C1716 H1720 0.950 . S
C1716 C1725 1.390 . S
C1717 C1716 1.387 . S
C1717 C1719 1.387 . S
H1718 C1725 0.950 . S
C1719 C1717 1.387 . S
C1719 C1721 1.390 . S
C1719 H1723 0.950 . S
H1720 C1716 0.950 . S
C1721 C1719 1.390 . S
C1721 C1722 1.387 . S
C1721 H1724 0.950 . S
C1722 C1721 1.387 . S
C1722 C1725 1.387 . S
H1723 C1719 0.950 . S
H1724 C1721 0.950 . S
C1725 C1716 1.390 . S
C1725 H1718 0.950 . S
C1725 C1722 1.387 . S
C1726 C1727 1.387 . S
C1726 H1730 0.950 . S
C1726 C1735 1.390 . S
C1727 C1726 1.387 . S
C1727 C1729 1.387 . S
H1728 C1735 0.950 . S
C1729 C1727 1.387 . S
C1729 C1731 1.390 . S
C1729 H1733 0.950 . S
H1730 C1726 0.950 . S
C1731 C1729 1.390 . S
C1731 C1732 1.387 . S
C1731 H1734 0.950 . S
C1732 C1731 1.387 . S
C1732 C1735 1.387 . S
H1733 C1729 0.950 . S
H1734 C1731 0.950 . S
C1735 C1726 1.390 . S
C1735 H1728 0.950 . S
C1735 C1732 1.387 . S
C1736 C1737 1.387 . S
C1736 H1740 0.950 . S
C1736 C1745 1.390 . S
C1737 C1736 1.387 . S
C1737 C1739 1.387 . S
H1738 C1745 0.950 . S
C1739 C1737 1.387 . S
C1739 C1741 1.390 . S
C1739 H1743 0.950 . S
H1740 C1736 0.950 . S
C1741 C1739 1.390 . S
C1741 C1742 1.387 . S
C1741 H1744 0.950 . S
C1742 C1741 1.387 . S
C1742 C1745 1.387 . S
H1743 C1739 0.950 . S
H1744 C1741 0.950 . S
C1745 C1736 1.390 . S
C1745 H1738 0.950 . S
C1745 C1742 1.387 . S
C1746 C1747 1.387 . S
C1746 H1750 0.950 . S
C1746 C1755 1.390 . S
C1747 C1746 1.387 . S
C1747 C1749 1.387 . S
H1748 C1755 0.950 . S
C1749 C1747 1.387 . S
C1749 C1751 1.390 . S
C1749 H1753 0.950 . S
H1750 C1746 0.950 . S
C1751 C1749 1.390 . S
C1751 C1752 1.387 . S
C1751 H1754 0.950 . S
C1752 C1751 1.387 . S
C1752 C1755 1.387 . S
H1753 C1749 0.950 . S
H1754 C1751 0.950 . S
C1755 C1746 1.390 . S
C1755 H1748 0.950 . S
C1755 C1752 1.387 . S
C1756 C1757 1.387 . S
C1756 H1760 0.950 . S
C1756 C1765 1.390 . S
C1757 C1756 1.387 . S
C1757 C1759 1.387 . S
H1758 C1765 0.950 . S
C1759 C1757 1.387 . S
C1759 C1761 1.390 . S
C1759 H1763 0.950 . S
H1760 C1756 0.950 . S
C1761 C1759 1.390 . S
C1761 C1762 1.387 . S
C1761 H1764 0.950 . S
C1762 C1761 1.387 . S
C1762 C1765 1.387 . S
H1763 C1759 0.950 . S
H1764 C1761 0.950 . S
C1765 C1756 1.390 . S
C1765 H1758 0.950 . S
C1765 C1762 1.387 . S
C1766 C1767 1.387 . S
C1766 H1770 0.950 . S
C1766 C1775 1.390 . S
C1767 C1766 1.387 . S
C1767 C1769 1.387 . S
H1768 C1775 0.950 . S
C1769 C1767 1.387 . S
C1769 C1771 1.390 . S
C1769 H1773 0.950 . S
H1770 C1766 0.950 . S
C1771 C1769 1.390 . S
C1771 C1772 1.387 . S
C1771 H1774 0.950 . S
C1772 C1771 1.387 . S
C1772 C1775 1.387 . S
H1773 C1769 0.950 . S
H1774 C1771 0.950 . S
C1775 C1766 1.390 . S
C1775 H1768 0.950 . S
C1775 C1772 1.387 . S
C1776 C1777 1.387 . S
C1776 H1780 0.950 . S
C1776 C1785 1.390 . S
C1777 C1776 1.387 . S
C1777 C1779 1.387 . S
H1778 C1785 0.950 . S
C1779 C1777 1.387 . S
C1779 C1781 1.390 . S
C1779 H1783 0.950 . S
H1780 C1776 0.950 . S
C1781 C1779 1.390 . S
C1781 C1782 1.387 . S
C1781 H1784 0.950 . S
C1782 C1781 1.387 . S
C1782 C1785 1.387 . S
H1783 C1779 0.950 . S
H1784 C1781 0.950 . S
C1785 C1776 1.390 . S
C1785 H1778 0.950 . S
C1785 C1782 1.387 . S
C1786 C1787 1.387 . S
C1786 H1790 0.950 . S
C1786 C1795 1.390 . S
C1787 C1786 1.387 . S
C1787 C1789 1.387 . S
H1788 C1795 0.950 . S
C1789 C1787 1.387 . S
C1789 C1791 1.390 . S
C1789 H1793 0.950 . S
H1790 C1786 0.950 . S
C1791 C1789 1.390 . S
C1791 C1792 1.387 . S
C1791 H1794 0.950 . S
C1792 C1791 1.387 . S
C1792 C1795 1.387 . S
H1793 C1789 0.950 . S
H1794 C1791 0.950 . S
C1795 C1786 1.390 . S
C1795 H1788 0.950 . S
C1795 C1792 1.387 . S
C1796 C1797 1.387 . S
C1796 H1800 0.950 . S
C1796 C1805 1.390 . S
C1797 C1796 1.387 . S
C1797 C1799 1.387 . S
H1798 C1805 0.950 . S
C1799 C1797 1.387 . S
C1799 C1801 1.390 . S
C1799 H1803 0.950 . S
H1800 C1796 0.950 . S
C1801 C1799 1.390 . S
C1801 C1802 1.387 . S
C1801 H1804 0.950 . S
C1802 C1801 1.387 . S
C1802 C1805 1.387 . S
H1803 C1799 0.950 . S
H1804 C1801 0.950 . S
C1805 C1796 1.390 . S
C1805 H1798 0.950 . S
C1805 C1802 1.387 . S
C1806 C1807 1.387 . S
C1806 H1810 0.950 . S
C1806 C1815 1.390 . S
C1807 C1806 1.387 . S
C1807 C1809 1.387 . S
H1808 C1815 0.950 . S
C1809 C1807 1.387 . S
C1809 C1811 1.390 . S
C1809 H1813 0.950 . S
H1810 C1806 0.950 . S
C1811 C1809 1.390 . S
C1811 C1812 1.387 . S
C1811 H1814 0.950 . S
C1812 C1811 1.387 . S
C1812 C1815 1.387 . S
H1813 C1809 0.950 . S
H1814 C1811 0.950 . S
C1815 C1806 1.390 . S
C1815 H1808 0.950 . S
C1815 C1812 1.387 . S
C1816 C1817 1.387 . S
C1816 H1820 0.950 . S
C1816 C1825 1.390 . S
C1817 C1816 1.387 . S
C1817 C1819 1.387 . S
H1818 C1825 0.950 . S
C1819 C1817 1.387 . S
C1819 C1821 1.390 . S
C1819 H1823 0.950 . S
H1820 C1816 0.950 . S
C1821 C1819 1.390 . S
C1821 C1822 1.387 . S
C1821 H1824 0.950 . S
C1822 C1821 1.387 . S
C1822 C1825 1.387 . S
H1823 C1819 0.950 . S
H1824 C1821 0.950 . S
C1825 C1816 1.390 . S
C1825 H1818 0.950 . S
C1825 C1822 1.387 . S
C1826 C1827 1.387 . S
C1826 H1830 0.950 . S
C1826 C1835 1.390 . S
C1827 C1826 1.387 . S
C1827 C1829 1.387 . S
H1828 C1835 0.950 . S
C1829 C1827 1.387 . S
C1829 C1831 1.390 . S
C1829 H1833 0.950 . S
H1830 C1826 0.950 . S
C1831 C1829 1.390 . S
C1831 C1832 1.387 . S
C1831 H1834 0.950 . S
C1832 C1831 1.387 . S
C1832 C1835 1.387 . S
H1833 C1829 0.950 . S
H1834 C1831 0.950 . S
C1835 C1826 1.390 . S
C1835 H1828 0.950 . S
C1835 C1832 1.387 . S
C1836 C1837 1.387 . S
C1836 H1840 0.950 . S
C1836 C1845 1.390 . S
C1837 C1836 1.387 . S
C1837 C1839 1.387 . S
H1838 C1845 0.950 . S
C1839 C1837 1.387 . S
C1839 C1841 1.390 . S
C1839 H1843 0.950 . S
H1840 C1836 0.950 . S
C1841 C1839 1.390 . S
C1841 C1842 1.387 . S
C1841 H1844 0.950 . S
C1842 C1841 1.387 . S
C1842 C1845 1.387 . S
H1843 C1839 0.950 . S
H1844 C1841 0.950 . S
C1845 C1836 1.390 . S
C1845 H1838 0.950 . S
C1845 C1842 1.387 . S
C1846 C1847 1.387 . S
C1846 H1850 0.950 . S
C1846 C1855 1.390 . S
C1847 C1846 1.387 . S
C1847 C1849 1.387 . S
H1848 C1855 0.950 . S
C1849 C1847 1.387 . S
C1849 C1851 1.390 . S
C1849 H1853 0.950 . S
H1850 C1846 0.950 . S
C1851 C1849 1.390 . S
C1851 C1852 1.387 . S
C1851 H1854 0.950 . S
C1852 C1851 1.387 . S
C1852 C1855 1.387 . S
H1853 C1849 0.950 . S
H1854 C1851 0.950 . S
C1855 C1846 1.390 . S
C1855 H1848 0.950 . S
C1855 C1852 1.387 . S
C1856 C1857 1.387 . S
C1856 H1860 0.950 . S
C1856 C1865 1.390 . S
C1857 C1856 1.387 . S
C1857 C1859 1.387 . S
H1858 C1865 0.950 . S
C1859 C1857 1.387 . S
C1859 C1861 1.390 . S
C1859 H1863 0.950 . S
H1860 C1856 0.950 . S
C1861 C1859 1.390 . S
C1861 C1862 1.387 . S
C1861 H1864 0.950 . S
C1862 C1861 1.387 . S
C1862 C1865 1.387 . S
H1863 C1859 0.950 . S
H1864 C1861 0.950 . S
C1865 C1856 1.390 . S
C1865 H1858 0.950 . S
C1865 C1862 1.387 . S
C1866 C1867 1.387 . S
C1866 H1870 0.950 . S
C1866 C1875 1.390 . S
C1867 C1866 1.387 . S
C1867 C1869 1.387 . S
H1868 C1875 0.950 . S
C1869 C1867 1.387 . S
C1869 C1871 1.390 . S
C1869 H1873 0.950 . S
H1870 C1866 0.950 . S
C1871 C1869 1.390 . S
C1871 C1872 1.387 . S
C1871 H1874 0.950 . S
C1872 C1871 1.387 . S
C1872 C1875 1.387 . S
H1873 C1869 0.950 . S
H1874 C1871 0.950 . S
C1875 C1866 1.390 . S
C1875 H1868 0.950 . S
C1875 C1872 1.387 . S
C1876 C1877 1.387 . S
C1876 H1880 0.950 . S
C1876 C1885 1.390 . S
C1877 C1876 1.387 . S
C1877 C1879 1.387 . S
H1878 C1885 0.950 . S
C1879 C1877 1.387 . S
C1879 C1881 1.390 . S
C1879 H1883 0.950 . S
H1880 C1876 0.950 . S
C1881 C1879 1.390 . S
C1881 C1882 1.387 . S
C1881 H1884 0.950 . S
C1882 C1881 1.387 . S
C1882 C1885 1.387 . S
H1883 C1879 0.950 . S
H1884 C1881 0.950 . S
C1885 C1876 1.390 . S
C1885 H1878 0.950 . S
C1885 C1882 1.387 . S
C1886 C1887 1.387 . S
C1886 H1890 0.950 . S
C1886 C1895 1.390 . S
C1887 C1886 1.387 . S
C1887 C1889 1.387 . S
H1888 C1895 0.950 . S
C1889 C1887 1.387 . S
C1889 C1891 1.390 . S
C1889 H1893 0.950 . S
H1890 C1886 0.950 . S
C1891 C1889 1.390 . S
C1891 C1892 1.387 . S
C1891 H1894 0.950 . S
C1892 C1891 1.387 . S
C1892 C1895 1.387 . S
H1893 C1889 0.950 . S
H1894 C1891 0.950 . S
C1895 C1886 1.390 . S
C1895 H1888 0.950 . S
C1895 C1892 1.387 . S
C1896 C1897 1.387 . S
C1896 H1900 0.950 . S
C1896 C1905 1.390 . S
C1897 C1896 1.387 . S
C1897 C1899 1.387 . S
H1898 C1905 0.950 . S
C1899 C1897 1.387 . S
C1899 C1901 1.390 . S
C1899 H1903 0.950 . S
H1900 C1896 0.950 . S
C1901 C1899 1.390 . S
C1901 C1902 1.387 . S
C1901 H1904 0.950 . S
C1902 C1901 1.387 . S
C1902 C1905 1.387 . S
H1903 C1899 0.950 . S
H1904 C1901 0.950 . S
C1905 C1896 1.390 . S
C1905 H1898 0.950 . S
C1905 C1902 1.387 . S
C1906 C1907 1.387 . S
C1906 H1910 0.950 . S
C1906 C1915 1.390 . S
C1907 C1906 1.387 . S
C1907 C1909 1.387 . S
H1908 C1915 0.950 . S
C1909 C1907 1.387 . S
C1909 C1911 1.390 . S
C1909 H1913 0.950 . S
H1910 C1906 0.950 . S
C1911 C1909 1.390 . S
C1911 C1912 1.387 . S
C1911 H1914 0.950 . S
C1912 C1911 1.387 . S
C1912 C1915 1.387 . S
H1913 C1909 0.950 . S
H1914 C1911 0.950 . S
C1915 C1906 1.390 . S
C1915 H1908 0.950 . S
C1915 C1912 1.387 . S
C1916 C1917 1.387 . S
C1916 H1920 0.950 . S
C1916 C1925 1.390 . S
C1917 C1916 1.387 . S
C1917 C1919 1.387 . S
H1918 C1925 0.950 . S
C1919 C1917 1.387 . S
C1919 C1921 1.390 . S
C1919 H1923 0.950 . S
H1920 C1916 0.950 . S
C1921 C1919 1.390 . S
C1921 C1922 1.387 . S
C1921 H1924 0.950 . S
C1922 C1921 1.387 . S
C1922 C1925 1.387 . S
H1923 C1919 0.950 . S
H1924 C1921 0.950 . S
C1925 C1916 1.390 . S
C1925 H1918 0.950 . S
C1925 C1922 1.387 . S
C1926 C1927 1.387 . S
C1926 H1930 0.950 . S
C1926 C1935 1.390 . S
C1927 C1926 1.387 . S
C1927 C1929 1.387 . S
H1928 C1935 0.950 . S
C1929 C1927 1.387 . S
C1929 C1931 1.390 . S
C1929 H1933 0.950 . S
H1930 C1926 0.950 . S
C1931 C1929 1.390 . S
C1931 C1932 1.387 . S
C1931 H1934 0.950 . S
C1932 C1931 1.387 . S
C1932 C1935 1.387 . S
H1933 C1929 0.950 . S
H1934 C1931 0.950 . S
C1935 C1926 1.390 . S
C1935 H1928 0.950 . S
C1935 C1932 1.387 . S
C1936 C1937 1.387 . S
C1936 H1940 0.950 . S
C1936 C1945 1.390 . S
C1937 C1936 1.387 . S
C1937 C1939 1.387 . S
H1938 C1945 0.950 . S
C1939 C1937 1.387 . S
C1939 C1941 1.390 . S
C1939 H1943 0.950 . S
H1940 C1936 0.950 . S
C1941 C1939 1.390 . S
C1941 C1942 1.387 . S
C1941 H1944 0.950 . S
C1942 C1941 1.387 . S
C1942 C1945 1.387 . S
H1943 C1939 0.950 . S
H1944 C1941 0.950 . S
C1945 C1936 1.390 . S
C1945 H1938 0.950 . S
C1945 C1942 1.387 . S
C1946 C1947 1.387 . S
C1946 H1950 0.950 . S
C1946 C1955 1.390 . S
C1947 C1946 1.387 . S
C1947 C1949 1.387 . S
H1948 C1955 0.950 . S
C1949 C1947 1.387 . S
C1949 C1951 1.390 . S
C1949 H1953 0.950 . S
H1950 C1946 0.950 . S
C1951 C1949 1.390 . S
C1951 C1952 1.387 . S
C1951 H1954 0.950 . S
C1952 C1951 1.387 . S
C1952 C1955 1.387 . S
H1953 C1949 0.950 . S
H1954 C1951 0.950 . S
C1955 C1946 1.390 . S
C1955 H1948 0.950 . S
C1955 C1952 1.387 . S
C1956 C1957 1.387 . S
C1956 H1960 0.950 . S
C1956 C1965 1.390 . S
C1957 C1956 1.387 . S
C1957 C1959 1.387 . S
H1958 C1965 0.950 . S
C1959 C1957 1.387 . S
C1959 C1961 1.390 . S
C1959 H1963 0.950 . S
H1960 C1956 0.950 . S
C1961 C1959 1.390 . S
C1961 C1962 1.387 . S
C1961 H1964 0.950 . S
C1962 C1961 1.387 . S
C1962 C1965 1.387 . S
H1963 C1959 0.950 . S
H1964 C1961 0.950 . S
C1965 C1956 1.390 . S
C1965 H1958 0.950 . S
C1965 C1962 1.387 . S
C1966 C1967 1.387 . S
C1966 H1970 0.950 . S
C1966 C1975 1.390 . S
C1967 C1966 1.387 . S
C1967 C1969 1.387 . S
H1968 C1975 0.950 . S
C1969 C1967 1.387 . S
C1969 C1971 1.390 . S
C1969 H1973 0.950 . S
H1970 C1966 0.950 . S
C1971 C1969 1.390 . S
C1971 C1972 1.387 . S
C1971 H1974 0.950 . S
C1972 C1971 1.387 . S
C1972 C1975 1.387 . S
H1973 C1969 0.950 . S
H1974 C1971 0.950 . S
C1975 C1966 1.390 . S
C1975 H1968 0.950 . S
C1975 C1972 1.387 . S
C1976 C1977 1.387 . S
C1976 H1980 0.950 . S
C1976 C1985 1.390 . S
C1977 C1976 1.387 . S
C1977 C1979 1.387 . S
H1978 C1985 0.950 . S
C1979 C1977 1.387 . S
C1979 C1981 1.390 . S
C1979 H1983 0.950 . S
H1980 C1976 0.950 . S
C1981 C1979 1.390 . S
C1981 C1982 1.387 . S
C1981 H1984 0.950 . S
C1982 C1981 1.387 . S
C1982 C1985 1.387 . S
H1983 C1979 0.950 . S
H1984 C1981 0.950 . S
C1985 C1976 1.390 . S
C1985 H1978 0.950 . S
C1985 C1982 1.387 . S
C1986 C1987 1.387 . S
C1986 H1990 0.950 . S
C1986 C1995 1.390 . S
C1987 C1986 1.387 . S
C1987 C1989 1.387 . S
H1988 C1995 0.950 . S
C1989 C1987 1.387 . S
C1989 C1991 1.390 . S
C1989 H1993 0.950 . S
H1990 C1986 0.950 . S
C1991 C1989 1.390 . S
C1991 C1992 1.387 . S
C1991 H1994 0.950 . S
C1992 C1991 1.387 . S
C1992 C1995 1.387 . S
H1993 C1989 0.950 . S
H1994 C1991 0.950 . S
C1995 C1986 1.390 . S
C1995 H1988 0.950 . S
C1995 C1992 1.387 . S
C1996 C1997 1.387 . S
C1996 H2000 0.950 . S
C1996 C2005 1.390 . S
C1997 C1996 1.387 . S
C1997 C1999 1.387 . S
H1998 C2005 0.950 . S
C1999 C1997 1.387 . S
C1999 C2001 1.390 . S
C1999 H2003 0.950 . S
H2000 C1996 0.950 . S
C2001 C1999 1.390 . S
C2001 C2002 1.387 . S
C2001 H2004 0.950 . S
C2002 C2001 1.387 . S
C2002 C2005 1.387 . S
H2003 C1999 0.950 . S
H2004 C2001 0.950 . S
C2005 C1996 1.390 . S
C2005 H1998 0.950 . S
C2005 C2002 1.387 . S
C2006 C2007 1.387 . S
C2006 H2010 0.950 . S
C2006 C2015 1.390 . S
C2007 C2006 1.387 . S
C2007 C2009 1.387 . S
H2008 C2015 0.950 . S
C2009 C2007 1.387 . S
C2009 C2011 1.390 . S
C2009 H2013 0.950 . S
H2010 C2006 0.950 . S
C2011 C2009 1.390 . S
C2011 C2012 1.387 . S
C2011 H2014 0.950 . S
C2012 C2011 1.387 . S
C2012 C2015 1.387 . S
H2013 C2009 0.950 . S
H2014 C2011 0.950 . S
C2015 C2006 1.390 . S
C2015 H2008 0.950 . S
C2015 C2012 1.387 . S
C2016 C2017 1.387 . S
C2016 H2020 0.950 . S
C2016 C2025 1.390 . S
C2017 C2016 1.387 . S
C2017 C2019 1.387 . S
H2018 C2025 0.950 . S
C2019 C2017 1.387 . S
C2019 C2021 1.390 . S
C2019 H2023 0.950 . S
H2020 C2016 0.950 . S
C2021 C2019 1.390 . S
C2021 C2022 1.387 . S
C2021 H2024 0.950 . S
C2022 C2021 1.387 . S
C2022 C2025 1.387 . S
H2023 C2019 0.950 . S
H2024 C2021 0.950 . S
C2025 C2016 1.390 . S
C2025 H2018 0.950 . S
C2025 C2022 1.387 . S
C2026 C2027 1.387 . S
C2026 H2030 0.950 . S
C2026 C2035 1.390 . S
C2027 C2026 1.387 . S
C2027 C2029 1.387 . S
H2028 C2035 0.950 . S
C2029 C2027 1.387 . S
C2029 C2031 1.390 . S
C2029 H2033 0.950 . S
H2030 C2026 0.950 . S
C2031 C2029 1.390 . S
C2031 C2032 1.387 . S
C2031 H2034 0.950 . S
C2032 C2031 1.387 . S
C2032 C2035 1.387 . S
H2033 C2029 0.950 . S
H2034 C2031 0.950 . S
C2035 C2026 1.390 . S
C2035 H2028 0.950 . S
C2035 C2032 1.387 . S
C2036 C2037 1.387 . S
C2036 H2040 0.950 . S
C2036 C2045 1.390 . S
C2037 C2036 1.387 . S
C2037 C2039 1.387 . S
H2038 C2045 0.950 . S
C2039 C2037 1.387 . S
C2039 C2041 1.390 . S
C2039 H2043 0.950 . S
H2040 C2036 0.950 . S
C2041 C2039 1.390 . S
C2041 C2042 1.387 . S
C2041 H2044 0.950 . S
C2042 C2041 1.387 . S
C2042 C2045 1.387 . S
H2043 C2039 0.950 . S
H2044 C2041 0.950 . S
C2045 C2036 1.390 . S
C2045 H2038 0.950 . S
C2045 C2042 1.387 . S
C2046 C2047 1.387 . S
C2046 H2050 0.950 . S
C2046 C2055 1.390 . S
C2047 C2046 1.387 . S
C2047 C2049 1.387 . S
H2048 C2055 0.950 . S
C2049 C2047 1.387 . S
C2049 C2051 1.390 . S
C2049 H2053 0.950 . S
H2050 C2046 0.950 . S
C2051 C2049 1.390 . S
C2051 C2052 1.387 . S
C2051 H2054 0.950 . S
C2052 C2051 1.387 . S
C2052 C2055 1.387 . S
H2053 C2049 0.950 . S
H2054 C2051 0.950 . S
C2055 C2046 1.390 . S
C2055 H2048 0.950 . S
C2055 C2052 1.387 . S
C2056 C2057 1.387 . S
C2056 H2060 0.950 . S
C2056 C2065 1.390 . S
C2057 C2056 1.387 . S
C2057 C2059 1.387 . S
H2058 C2065 0.950 . S
C2059 C2057 1.387 . S
C2059 C2061 1.390 . S
C2059 H2063 0.950 . S
H2060 C2056 0.950 . S
C2061 C2059 1.390 . S
C2061 C2062 1.387 . S
C2061 H2064 0.950 . S
C2062 C2061 1.387 . S
C2062 C2065 1.387 . S
H2063 C2059 0.950 . S
H2064 C2061 0.950 . S
C2065 C2056 1.390 . S
C2065 H2058 0.950 . S
C2065 C2062 1.387 . S
C2066 C2067 1.387 . S
C2066 H2070 0.950 . S
C2066 C2075 1.390 . S
C2067 C2066 1.387 . S
C2067 C2069 1.387 . S
H2068 C2075 0.950 . S
C2069 C2067 1.387 . S
C2069 C2071 1.390 . S
C2069 H2073 0.950 . S
H2070 C2066 0.950 . S
C2071 C2069 1.390 . S
C2071 C2072 1.387 . S
C2071 H2074 0.950 . S
C2072 C2071 1.387 . S
C2072 C2075 1.387 . S
H2073 C2069 0.950 . S
H2074 C2071 0.950 . S
C2075 C2066 1.390 . S
C2075 H2068 0.950 . S
C2075 C2072 1.387 . S
C2076 C2077 1.387 . S
C2076 H2080 0.950 . S
C2076 C2085 1.390 . S
C2077 C2076 1.387 . S
C2077 C2079 1.387 . S
H2078 C2085 0.950 . S
C2079 C2077 1.387 . S
C2079 C2081 1.390 . S
C2079 H2083 0.950 . S
H2080 C2076 0.950 . S
C2081 C2079 1.390 . S
C2081 C2082 1.387 . S
C2081 H2084 0.950 . S
C2082 C2081 1.387 . S
C2082 C2085 1.387 . S
H2083 C2079 0.950 . S
H2084 C2081 0.950 . S
C2085 C2076 1.390 . S
C2085 H2078 0.950 . S
C2085 C2082 1.387 . S
C2086 C2087 1.387 . S
C2086 H2090 0.950 . S
C2086 C2095 1.390 . S
C2087 C2086 1.387 . S
C2087 C2089 1.387 . S
H2088 C2095 0.950 . S
C2089 C2087 1.387 . S
C2089 C2091 1.390 . S
C2089 H2093 0.950 . S
H2090 C2086 0.950 . S
C2091 C2089 1.390 . S
C2091 C2092 1.387 . S
C2091 H2094 0.950 . S
C2092 C2091 1.387 . S
C2092 C2095 1.387 . S
H2093 C2089 0.950 . S
H2094 C2091 0.950 . S
C2095 C2086 1.390 . S
C2095 H2088 0.950 . S
C2095 C2092 1.387 . S
C2096 C2097 1.387 . S
C2096 H2100 0.950 . S
C2096 C2105 1.390 . S
C2097 C2096 1.387 . S
C2097 C2099 1.387 . S
H2098 C2105 0.950 . S
C2099 C2097 1.387 . S
C2099 C2101 1.390 . S
C2099 H2103 0.950 . S
H2100 C2096 0.950 . S
C2101 C2099 1.390 . S
C2101 C2102 1.387 . S
C2101 H2104 0.950 . S
C2102 C2101 1.387 . S
C2102 C2105 1.387 . S
H2103 C2099 0.950 . S
H2104 C2101 0.950 . S
C2105 C2096 1.390 . S
C2105 H2098 0.950 . S
C2105 C2102 1.387 . S
C2106 C2107 1.387 . S
C2106 H2110 0.950 . S
C2106 C2115 1.390 . S
C2107 C2106 1.387 . S
C2107 C2109 1.387 . S
H2108 C2115 0.950 . S
C2109 C2107 1.387 . S
C2109 C2111 1.390 . S
C2109 H2113 0.950 . S
H2110 C2106 0.950 . S
C2111 C2109 1.390 . S
C2111 C2112 1.387 . S
C2111 H2114 0.950 . S
C2112 C2111 1.387 . S
C2112 C2115 1.387 . S
H2113 C2109 0.950 . S
H2114 C2111 0.950 . S
C2115 C2106 1.390 . S
C2115 H2108 0.950 . S
C2115 C2112 1.387 . S
C2116 C2117 1.387 . S
C2116 H2120 0.950 . S
C2116 C2125 1.390 . S
C2117 C2116 1.387 . S
C2117 C2119 1.387 . S
H2118 C2125 0.950 . S
C2119 C2117 1.387 . S
C2119 C2121 1.390 . S
C2119 H2123 0.950 . S
H2120 C2116 0.950 . S
C2121 C2119 1.390 . S
C2121 C2122 1.387 . S
C2121 H2124 0.950 . S
C2122 C2121 1.387 . S
C2122 C2125 1.387 . S
H2123 C2119 0.950 . S
H2124 C2121 0.950 . S
C2125 C2116 1.390 . S
C2125 H2118 0.950 . S
C2125 C2122 1.387 . S
C2126 C2127 1.387 . S
C2126 H2130 0.950 . S
C2126 C2135 1.390 . S
C2127 C2126 1.387 . S
C2127 C2129 1.387 . S
H2128 C2135 0.950 . S
C2129 C2127 1.387 . S
C2129 C2131 1.390 . S
C2129 H2133 0.950 . S
H2130 C2126 0.950 . S
C2131 C2129 1.390 . S
C2131 C2132 1.387 . S
C2131 H2134 0.950 . S
C2132 C2131 1.387 . S
C2132 C2135 1.387 . S
H2133 C2129 0.950 . S
H2134 C2131 0.950 . S
C2135 C2126 1.390 . S
C2135 H2128 0.950 . S
C2135 C2132 1.387 . S
C2136 C2137 1.387 . S
C2136 H2140 0.950 . S
C2136 C2145 1.390 . S
C2137 C2136 1.387 . S
C2137 C2139 1.387 . S
H2138 C2145 0.950 . S
C2139 C2137 1.387 . S
C2139 C2141 1.390 . S
C2139 H2143 0.950 . S
H2140 C2136 0.950 . S
C2141 C2139 1.390 . S
C2141 C2142 1.387 . S
C2141 H2144 0.950 . S
C2142 C2141 1.387 . S
C2142 C2145 1.387 . S
H2143 C2139 0.950 . S
H2144 C2141 0.950 . S
C2145 C2136 1.390 . S
C2145 H2138 0.950 . S
C2145 C2142 1.387 . S
C2146 C2147 1.387 . S
C2146 H2150 0.950 . S
C2146 C2155 1.390 . S
C2147 C2146 1.387 . S
C2147 C2149 1.387 . S
H2148 C2155 0.950 . S
C2149 C2147 1.387 . S
C2149 C2151 1.390 . S
C2149 H2153 0.950 . S
H2150 C2146 0.950 . S
C2151 C2149 1.390 . S
C2151 C2152 1.387 . S
C2151 H2154 0.950 . S
C2152 C2151 1.387 . S
C2152 C2155 1.387 . S
H2153 C2149 0.950 . S
H2154 C2151 0.950 . S
C2155 C2146 1.390 . S
C2155 H2148 0.950 . S
C2155 C2152 1.387 . S
C2156 C2157 1.387 . S
C2156 H2160 0.950 . S
C2156 C2165 1.390 . S
C2157 C2156 1.387 . S
C2157 C2159 1.387 . S
H2158 C2165 0.950 . S
C2159 C2157 1.387 . S
C2159 C2161 1.390 . S
C2159 H2163 0.950 . S
H2160 C2156 0.950 . S
C2161 C2159 1.390 . S
C2161 C2162 1.387 . S
C2161 H2164 0.950 . S
C2162 C2161 1.387 . S
C2162 C2165 1.387 . S
H2163 C2159 0.950 . S
H2164 C2161 0.950 . S
C2165 C2156 1.390 . S
C2165 H2158 0.950 . S
C2165 C2162 1.387 . S
C2166 C2167 1.387 . S
C2166 H2170 0.950 . S
C2166 C2175 1.390 . S
C2167 C2166 1.387 . S
C2167 C2169 1.387 . S
H2168 C2175 0.950 . S
C2169 C2167 1.387 . S
C2169 C2171 1.390 . S
C2169 H2173 0.950 . S
H2170 C2166 0.950 . S
C2171 C2169 1.390 . S
C2171 C2172 1.387 . S
C2171 H2174 0.950 . S
C2172 C2171 1.387 . S
C2172 C2175 1.387 . S
H2173 C2169 0.950 . S
H2174 C2171 0.950 . S
C2175 C2166 1.390 . S
C2175 H2168 0.950 . S
C2175 C2172 1.387 . S
C2176 C2177 1.387 . S
C2176 H2180 0.950 . S
C2176 C2185 1.390 . S
C2177 C2176 1.387 . S
C2177 C2179 1.387 . S
H2178 C2185 0.950 . S
C2179 C2177 1.387 . S
C2179 C2181 1.390 . S
C2179 H2183 0.950 . S
H2180 C2176 0.950 . S
C2181 C2179 1.390 . S
C2181 C2182 1.387 . S
C2181 H2184 0.950 . S
C2182 C2181 1.387 . S
C2182 C2185 1.387 . S
H2183 C2179 0.950 . S
H2184 C2181 0.950 . S
C2185 C2176 1.390 . S
C2185 H2178 0.950 . S
C2185 C2182 1.387 . S
C2186 C2187 1.387 . S
C2186 H2190 0.950 . S
C2186 C2195 1.390 . S
C2187 C2186 1.387 . S
C2187 C2189 1.387 . S
H2188 C2195 0.950 . S
C2189 C2187 1.387 . S
C2189 C2191 1.390 . S
C2189 H2193 0.950 . S
H2190 C2186 0.950 . S
C2191 C2189 1.390 . S
C2191 C2192 1.387 . S
C2191 H2194 0.950 . S
C2192 C2191 1.387 . S
C2192 C2195 1.387 . S
H2193 C2189 0.950 . S
H2194 C2191 0.950 . S
C2195 C2186 1.390 . S
C2195 H2188 0.950 . S
C2195 C2192 1.387 . S
C2196 C2197 1.387 . S
C2196 H2200 0.950 . S
C2196 C2205 1.390 . S
C2197 C2196 1.387 . S
C2197 C2199 1.387 . S
H2198 C2205 0.950 . S
C2199 C2197 1.387 . S
C2199 C2201 1.390 . S
C2199 H2203 0.950 . S
H2200 C2196 0.950 . S
C2201 C2199 1.390 . S
C2201 C2202 1.387 . S
C2201 H2204 0.950 . S
C2202 C2201 1.387 . S
C2202 C2205 1.387 . S
H2203 C2199 0.950 . S
H2204 C2201 0.950 . S
C2205 C2196 1.390 . S
C2205 H2198 0.950 . S
C2205 C2202 1.387 . S
C2206 C2207 1.387 . S
C2206 H2210 0.950 . S
C2206 C2215 1.390 . S
C2207 C2206 1.387 . S
C2207 C2209 1.387 . S
H2208 C2215 0.950 . S
C2209 C2207 1.387 . S
C2209 C2211 1.390 . S
C2209 H2213 0.950 . S
H2210 C2206 0.950 . S
C2211 C2209 1.390 . S
C2211 C2212 1.387 . S
C2211 H2214 0.950 . S
C2212 C2211 1.387 . S
C2212 C2215 1.387 . S
H2213 C2209 0.950 . S
H2214 C2211 0.950 . S
C2215 C2206 1.390 . S
C2215 H2208 0.950 . S
C2215 C2212 1.387 . S
C2216 C2217 1.387 . S
C2216 H2220 0.950 . S
C2216 C2225 1.390 . S
C2217 C2216 1.387 . S
C2217 C2219 1.387 . S
H2218 C2225 0.950 . S
C2219 C2217 1.387 . S
C2219 C2221 1.390 . S
C2219 H2223 0.950 . S
H2220 C2216 0.950 . S
C2221 C2219 1.390 . S
C2221 C2222 1.387 . S
C2221 H2224 0.950 . S
C2222 C2221 1.387 . S
C2222 C2225 1.387 . S
H2223 C2219 0.950 . S
H2224 C2221 0.950 . S
C2225 C2216 1.390 . S
C2225 H2218 0.950 . S
C2225 C2222 1.387 . S
C2226 C2227 1.387 . S
C2226 H2230 0.950 . S
C2226 C2235 1.390 . S
C2227 C2226 1.387 . S
C2227 C2229 1.387 . S
H2228 C2235 0.950 . S
C2229 C2227 1.387 . S
C2229 C2231 1.390 . S
C2229 H2233 0.950 . S
H2230 C2226 0.950 . S
C2231 C2229 1.390 . S
C2231 C2232 1.387 . S
C2231 H2234 0.950 . S
C2232 C2231 1.387 . S
C2232 C2235 1.387 . S
H2233 C2229 0.950 . S
H2234 C2231 0.950 . S
C2235 C2226 1.390 . S
C2235 H2228 0.950 . S
C2235 C2232 1.387 . S
C2236 C2237 1.387 . S
C2236 H2240 0.950 . S
C2236 C2245 1.390 . S
C2237 C2236 1.387 . S
C2237 C2239 1.387 . S
H2238 C2245 0.950 . S
C2239 C2237 1.387 . S
C2239 C2241 1.390 . S
C2239 H2243 0.950 . S
H2240 C2236 0.950 . S
C2241 C2239 1.390 . S
C2241 C2242 1.387 . S
C2241 H2244 0.950 . S
C2242 C2241 1.387 . S
C2242 C2245 1.387 . S
H2243 C2239 0.950 . S
H2244 C2241 0.950 . S
C2245 C2236 1.390 . S
C2245 H2238 0.950 . S
C2245 C2242 1.387 . S
C2246 C2247 1.387 . S
C2246 H2250 0.950 . S
C2246 C2255 1.390 . S
C2247 C2246 1.387 . S
C2247 C2249 1.387 . S
H2248 C2255 0.950 . S
C2249 C2247 1.387 . S
C2249 C2251 1.390 . S
C2249 H2253 0.950 . S
H2250 C2246 0.950 . S
C2251 C2249 1.390 . S
C2251 C2252 1.387 . S
C2251 H2254 0.950 . S
C2252 C2251 1.387 . S
C2252 C2255 1.387 . S
H2253 C2249 0.950 . S
H2254 C2251 0.950 . S
C2255 C2246 1.390 . S
C2255 H2248 0.950 . S
C2255 C2252 1.387 . S
C2256 C2257 1.387 . S
C2256 H2260 0.950 . S
C2256 C2265 1.390 . S
C2257 C2256 1.387 . S
C2257 C2259 1.387 . S
H2258 C2265 0.950 . S
C2259 C2257 1.387 . S
C2259 C2261 1.390 . S
C2259 H2263 0.950 . S
H2260 C2256 0.950 . S
C2261 C2259 1.390 . S
C2261 C2262 1.387 . S
C2261 H2264 0.950 . S
C2262 C2261 1.387 . S
C2262 C2265 1.387 . S
H2263 C2259 0.950 . S
H2264 C2261 0.950 . S
C2265 C2256 1.390 . S
C2265 H2258 0.950 . S
C2265 C2262 1.387 . S
C2266 C2267 1.387 . S
C2266 H2270 0.950 . S
C2266 C2275 1.390 . S
C2267 C2266 1.387 . S
C2267 C2269 1.387 . S
H2268 C2275 0.950 . S
C2269 C2267 1.387 . S
C2269 C2271 1.390 . S
C2269 H2273 0.950 . S
H2270 C2266 0.950 . S
C2271 C2269 1.390 . S
C2271 C2272 1.387 . S
C2271 H2274 0.950 . S
C2272 C2271 1.387 . S
C2272 C2275 1.387 . S
H2273 C2269 0.950 . S
H2274 C2271 0.950 . S
C2275 C2266 1.390 . S
C2275 H2268 0.950 . S
C2275 C2272 1.387 . S
C2276 C2277 1.387 . S
C2276 H2280 0.950 . S
C2276 C2285 1.390 . S
C2277 C2276 1.387 . S
C2277 C2279 1.387 . S
H2278 C2285 0.950 . S
C2279 C2277 1.387 . S
C2279 C2281 1.390 . S
C2279 H2283 0.950 . S
H2280 C2276 0.950 . S
C2281 C2279 1.390 . S
C2281 C2282 1.387 . S
C2281 H2284 0.950 . S
C2282 C2281 1.387 . S
C2282 C2285 1.387 . S
H2283 C2279 0.950 . S
H2284 C2281 0.950 . S
C2285 C2276 1.390 . S
C2285 H2278 0.950 . S
C2285 C2282 1.387 . S
C2286 C2287 1.387 . S
C2286 H2290 0.950 . S
C2286 C2295 1.390 . S
C2287 C2286 1.387 . S
C2287 C2289 1.387 . S
H2288 C2295 0.950 . S
C2289 C2287 1.387 . S
C2289 C2291 1.390 . S
C2289 H2293 0.950 . S
H2290 C2286 0.950 . S
C2291 C2289 1.390 . S
C2291 C2292 1.387 . S
C2291 H2294 0.950 . S
C2292 C2291 1.387 . S
C2292 C2295 1.387 . S
H2293 C2289 0.950 . S
H2294 C2291 0.950 . S
C2295 C2286 1.390 . S
C2295 H2288 0.950 . S
C2295 C2292 1.387 . S
C2296 C2297 1.387 . S
C2296 H2300 0.950 . S
C2296 C2305 1.390 . S
C2297 C2296 1.387 . S
C2297 C2299 1.387 . S
H2298 C2305 0.950 . S
C2299 C2297 1.387 . S
C2299 C2301 1.390 . S
C2299 H2303 0.950 . S
H2300 C2296 0.950 . S
C2301 C2299 1.390 . S
C2301 C2302 1.387 . S
C2301 H2304 0.950 . S
C2302 C2301 1.387 . S
C2302 C2305 1.387 . S
H2303 C2299 0.950 . S
H2304 C2301 0.950 . S
C2305 C2296 1.390 . S
C2305 H2298 0.950 . S
C2305 C2302 1.387 . S
C2306 C2307 1.387 . S
C2306 H2310 0.950 . S
C2306 C2315 1.390 . S
C2307 C2306 1.387 . S
C2307 C2309 1.387 . S
H2308 C2315 0.950 . S
C2309 C2307 1.387 . S
C2309 C2311 1.390 . S
C2309 H2313 0.950 . S
H2310 C2306 0.950 . S
C2311 C2309 1.390 . S
C2311 C2312 1.387 . S
C2311 H2314 0.950 . S
C2312 C2311 1.387 . S
C2312 C2315 1.387 . S
H2313 C2309 0.950 . S
H2314 C2311 0.950 . S
C2315 C2306 1.390 . S
C2315 H2308 0.950 . S
C2315 C2312 1.387 . S
C2316 C2317 1.387 . S
C2316 H2320 0.950 . S
C2316 C2325 1.390 . S
C2317 C2316 1.387 . S
C2317 C2319 1.387 . S
H2318 C2325 0.950 . S
C2319 C2317 1.387 . S
C2319 C2321 1.390 . S
C2319 H2323 0.950 . S
H2320 C2316 0.950 . S
C2321 C2319 1.390 . S
C2321 C2322 1.387 . S
C2321 H2324 0.950 . S
C2322 C2321 1.387 . S
C2322 C2325 1.387 . S
H2323 C2319 0.950 . S
H2324 C2321 0.950 . S
C2325 C2316 1.390 . S
C2325 H2318 0.950 . S
C2325 C2322 1.387 . S
C2326 C2327 1.387 . S
C2326 H2330 0.950 . S
C2326 C2335 1.390 . S
C2327 C2326 1.387 . S
C2327 C2329 1.387 . S
H2328 C2335 0.950 . S
C2329 C2327 1.387 . S
C2329 C2331 1.390 . S
C2329 H2333 0.950 . S
H2330 C2326 0.950 . S
C2331 C2329 1.390 . S
C2331 C2332 1.387 . S
C2331 H2334 0.950 . S
C2332 C2331 1.387 . S
C2332 C2335 1.387 . S
H2333 C2329 0.950 . S
H2334 C2331 0.950 . S
C2335 C2326 1.390 . S
C2335 H2328 0.950 . S
C2335 C2332 1.387 . S
C2336 C2337 1.387 . S
C2336 H2340 0.950 . S
C2336 C2345 1.390 . S
C2337 C2336 1.387 . S
C2337 C2339 1.387 . S
H2338 C2345 0.950 . S
C2339 C2337 1.387 . S
C2339 C2341 1.390 . S
C2339 H2343 0.950 . S
H2340 C2336 0.950 . S
C2341 C2339 1.390 . S
C2341 C2342 1.387 . S
C2341 H2344 0.950 . S
C2342 C2341 1.387 . S
C2342 C2345 1.387 . S
H2343 C2339 0.950 . S
H2344 C2341 0.950 . S
C2345 C2336 1.390 . S
C2345 H2338 0.950 . S
C2345 C2342 1.387 . S
C2346 C2347 1.387 . S
C2346 H2350 0.950 . S
C2346 C2355 1.390 . S
C2347 C2346 1.387 . S
C2347 C2349 1.387 . S
H2348 C2355 0.950 . S
C2349 C2347 1.387 . S
C2349 C2351 1.390 . S
C2349 H2353 0.950 . S
H2350 C2346 0.950 . S
C2351 C2349 1.390 . S
C2351 C2352 1.387 . S
C2351 H2354 0.950 . S
C2352 C2351 1.387 . S
C2352 C2355 1.387 . S
H2353 C2349 0.950 . S
H2354 C2351 0.950 . S
C2355 C2346 1.390 . S
C2355 H2348 0.950 . S
C2355 C2352 1.387 . S
C2356 C2357 1.387 . S
C2356 H2360 0.950 . S
C2356 C2365 1.390 . S
C2357 C2356 1.387 . S
C2357 C2359 1.387 . S
H2358 C2365 0.950 . S
C2359 C2357 1.387 . S
C2359 C2361 1.390 . S
C2359 H2363 0.950 . S
H2360 C2356 0.950 . S
C2361 C2359 1.390 . S
C2361 C2362 1.387 . S
C2361 H2364 0.950 . S
C2362 C2361 1.387 . S
C2362 C2365 1.387 . S
H2363 C2359 0.950 . S
H2364 C2361 0.950 . S
C2365 C2356 1.390 . S
C2365 H2358 0.950 . S
C2365 C2362 1.387 . S
C2366 C2367 1.387 . S
C2366 H2370 0.950 . S
C2366 C2375 1.390 . S
C2367 C2366 1.387 . S
C2367 C2369 1.387 . S
H2368 C2375 0.950 . S
C2369 C2367 1.387 . S
C2369 C2371 1.390 . S
C2369 H2373 0.950 . S
H2370 C2366 0.950 . S
C2371 C2369 1.390 . S
C2371 C2372 1.387 . S
C2371 H2374 0.950 . S
C2372 C2371 1.387 . S
C2372 C2375 1.387 . S
H2373 C2369 0.950 . S
H2374 C2371 0.950 . S
C2375 C2366 1.390 . S
C2375 H2368 0.950 . S
C2375 C2372 1.387 . S
C2376 C2377 1.387 . S
C2376 H2380 0.950 . S
C2376 C2385 1.390 . S
C2377 C2376 1.387 . S
C2377 C2379 1.387 . S
H2378 C2385 0.950 . S
C2379 C2377 1.387 . S
C2379 C2381 1.390 . S
C2379 H2383 0.950 . S
H2380 C2376 0.950 . S
C2381 C2379 1.390 . S
C2381 C2382 1.387 . S
C2381 H2384 0.950 . S
C2382 C2381 1.387 . S
C2382 C2385 1.387 . S
H2383 C2379 0.950 . S
H2384 C2381 0.950 . S
C2385 C2376 1.390 . S
C2385 H2378 0.950 . S
C2385 C2382 1.387 . S
C2386 C2387 1.387 . S
C2386 H2390 0.950 . S
C2386 C2395 1.390 . S
C2387 C2386 1.387 . S
C2387 C2389 1.387 . S
H2388 C2395 0.950 . S
C2389 C2387 1.387 . S
C2389 C2391 1.390 . S
C2389 H2393 0.950 . S
H2390 C2386 0.950 . S
C2391 C2389 1.390 . S
C2391 C2392 1.387 . S
C2391 H2394 0.950 . S
C2392 C2391 1.387 . S
C2392 C2395 1.387 . S
H2393 C2389 0.950 . S
H2394 C2391 0.950 . S
C2395 C2386 1.390 . S
C2395 H2388 0.950 . S
C2395 C2392 1.387 . S
C2396 C2397 1.387 . S
C2396 H2400 0.950 . S
C2396 C2405 1.390 . S
C2397 C2396 1.387 . S
C2397 C2399 1.387 . S
H2398 C2405 0.950 . S
C2399 C2397 1.387 . S
C2399 C2401 1.390 . S
C2399 H2403 0.950 . S
H2400 C2396 0.950 . S
C2401 C2399 1.390 . S
C2401 C2402 1.387 . S
C2401 H2404 0.950 . S
C2402 C2401 1.387 . S
C2402 C2405 1.387 . S
H2403 C2399 0.950 . S
H2404 C2401 0.950 . S
C2405 C2396 1.390 . S
C2405 H2398 0.950 . S
C2405 C2402 1.387 . S
C2406 C2407 1.387 . S
C2406 H2410 0.950 . S
C2406 C2415 1.390 . S
C2407 C2406 1.387 . S
C2407 C2409 1.387 . S
H2408 C2415 0.950 . S
C2409 C2407 1.387 . S
C2409 C2411 1.390 . S
C2409 H2413 0.950 . S
H2410 C2406 0.950 . S
C2411 C2409 1.390 . S
C2411 C2412 1.387 . S
C2411 H2414 0.950 . S
C2412 C2411 1.387 . S
C2412 C2415 1.387 . S
H2413 C2409 0.950 . S
H2414 C2411 0.950 . S
C2415 C2406 1.390 . S
C2415 H2408 0.950 . S
C2415 C2412 1.387 . S
C2416 C2417 1.387 . S
C2416 H2420 0.950 . S
C2416 C2425 1.390 . S
C2417 C2416 1.387 . S
C2417 C2419 1.387 . S
H2418 C2425 0.950 . S
C2419 C2417 1.387 . S
C2419 C2421 1.390 . S
C2419 H2423 0.950 . S
H2420 C2416 0.950 . S
C2421 C2419 1.390 . S
C2421 C2422 1.387 . S
C2421 H2424 0.950 . S
C2422 C2421 1.387 . S
C2422 C2425 1.387 . S
H2423 C2419 0.950 . S
H2424 C2421 0.950 . S
C2425 C2416 1.390 . S
C2425 H2418 0.950 . S
C2425 C2422 1.387 . S
C2426 C2427 1.387 . S
C2426 H2430 0.950 . S
C2426 C2435 1.390 . S
C2427 C2426 1.387 . S
C2427 C2429 1.387 . S
H2428 C2435 0.950 . S
C2429 C2427 1.387 . S
C2429 C2431 1.390 . S
C2429 H2433 0.950 . S
H2430 C2426 0.950 . S
C2431 C2429 1.390 . S
C2431 C2432 1.387 . S
C2431 H2434 0.950 . S
C2432 C2431 1.387 . S
C2432 C2435 1.387 . S
H2433 C2429 0.950 . S
H2434 C2431 0.950 . S
C2435 C2426 1.390 . S
C2435 H2428 0.950 . S
C2435 C2432 1.387 . S
C2436 C2437 1.387 . S
C2436 H2440 0.950 . S
C2436 C2445 1.390 . S
C2437 C2436 1.387 . S
C2437 C2439 1.387 . S
H2438 C2445 0.950 . S
C2439 C2437 1.387 . S
C2439 C2441 1.390 . S
C2439 H2443 0.950 . S
H2440 C2436 0.950 . S
C2441 C2439 1.390 . S
C2441 C2442 1.387 . S
C2441 H2444 0.950 . S
C2442 C2441 1.387 . S
C2442 C2445 1.387 . S
H2443 C2439 0.950 . S
H2444 C2441 0.950 . S
C2445 C2436 1.390 . S
C2445 H2438 0.950 . S
C2445 C2442 1.387 . S
C2446 C2447 1.387 . S
C2446 H2450 0.950 . S
C2446 C2455 1.390 . S
C2447 C2446 1.387 . S
C2447 C2449 1.387 . S
H2448 C2455 0.950 . S
C2449 C2447 1.387 . S
C2449 C2451 1.390 . S
C2449 H2453 0.950 . S
H2450 C2446 0.950 . S
C2451 C2449 1.390 . S
C2451 C2452 1.387 . S
C2451 H2454 0.950 . S
C2452 C2451 1.387 . S
C2452 C2455 1.387 . S
H2453 C2449 0.950 . S
H2454 C2451 0.950 . S
C2455 C2446 1.390 . S
C2455 H2448 0.950 . S
C2455 C2452 1.387 . S
C2456 C2457 1.387 . S
C2456 H2460 0.950 . S
C2456 C2465 1.390 . S
C2457 C2456 1.387 . S
C2457 C2459 1.387 . S
H2458 C2465 0.950 . S
C2459 C2457 1.387 . S
C2459 C2461 1.390 . S
C2459 H2463 0.950 . S
H2460 C2456 0.950 . S
C2461 C2459 1.390 . S
C2461 C2462 1.387 . S
C2461 H2464 0.950 . S
C2462 C2461 1.387 . S
C2462 C2465 1.387 . S
H2463 C2459 0.950 . S
H2464 C2461 0.950 . S
C2465 C2456 1.390 . S
C2465 H2458 0.950 . S
C2465 C2462 1.387 . S
C2466 C2467 1.387 . S
C2466 H2470 0.950 . S
C2466 C2475 1.390 . S
C2467 C2466 1.387 . S
C2467 C2469 1.387 . S
H2468 C2475 0.950 . S
C2469 C2467 1.387 . S
C2469 C2471 1.390 . S
C2469 H2473 0.950 . S
H2470 C2466 0.950 . S
C2471 C2469 1.390 . S
C2471 C2472 1.387 . S
C2471 H2474 0.950 . S
C2472 C2471 1.387 . S
C2472 C2475 1.387 . S
H2473 C2469 0.950 . S
H2474 C2471 0.950 . S
C2475 C2466 1.390 . S
C2475 H2468 0.950 . S
C2475 C2472 1.387 . S
C2476 C2477 1.387 . S
C2476 H2480 0.950 . S
C2476 C2485 1.390 . S
C2477 C2476 1.387 . S
C2477 C2479 1.387 . S
H2478 C2485 0.950 . S
C2479 C2477 1.387 . S
C2479 C2481 1.390 . S
C2479 H2483 0.950 . S
H2480 C2476 0.950 . S
C2481 C2479 1.390 . S
C2481 C2482 1.387 . S
C2481 H2484 0.950 . S
C2482 C2481 1.387 . S
C2482 C2485 1.387 . S
H2483 C2479 0.950 . S
H2484 C2481 0.950 . S
C2485 C2476 1.390 . S
C2485 H2478 0.950 . S
C2485 C2482 1.387 . S
C2486 C2487 1.387 . S
C2486 H2490 0.950 . S
C2486 C2495 1.390 . S
C2487 C2486 1.387 . S
C2487 C2489 1.387 . S
H2488 C2495 0.950 . S
C2489 C2487 1.387 . S
C2489 C2491 1.390 . S
C2489 H2493 0.950 . S
H2490 C2486 0.950 . S
C2491 C2489 1.390 . S
C2491 C2492 1.387 . S
C2491 H2494 0.950 . S
C2492 C2491 1.387 . S
C2492 C2495 1.387 . S
H2493 C2489 0.950 . S
H2494 C2491 0.950 . S
C2495 C2486 1.390 . S
C2495 H2488 0.950 . S
C2495 C2492 1.387 . S
C1057 C21 1.375 . S
C1062 C84 1.374 . S
C1067 C8 1.391 . S
C1072 C37 1.393 . S
C1077 C32 1.379 . S
C1082 C65 1.380 . S
C1087 C52 1.382 . S
C1092 C73 1.384 . S
C1097 C109 1.368 . S
C1102 C118 1.368 . S
C1107 C131 1.395 . S
C1112 C140 1.394 . S
C1117 C153 1.410 . S
C1122 C161 1.405 . S
C1127 C172 1.359 . S
C1132 C96 1.358 . S
C1137 C183 1.363 . S
C1142 C404 1.359 . S
C1147 C426 1.368 . S
C1152 C219 1.368 . S
C1157 C450 1.381 . S
C1162 C227 1.381 . S
C1167 C392 1.379 . S
C1172 C249 1.380 . S
C1177 C271 1.377 . S
C1182 C494 1.376 . S
C1187 C293 1.410 . S
C1192 C367 1.405 . S
C1197 C329 1.375 . S
C1202 C524 1.372 . S
C1207 C337 1.375 . S
C1212 C480 1.374 . S
C1217 C206 1.358 . S
C1222 C362 1.359 . S
C1227 C381 1.392 . S
C1232 C348 1.390 . S
C1237 C417 1.374 . S
C1242 C282 1.372 . S
C1247 C439 1.395 . S
C1252 C304 1.394 . S
C1257 C455 1.363 . S
C1262 C316 1.359 . S
C1267 C260 1.382 . S
C1272 C469 1.384 . S
C1277 C499 1.382 . S
C1282 C194 1.382 . S
C1287 C513 1.376 . S
C1292 C238 1.376 . S
C1297 C612 1.374 . S
C1302 C543 1.375 . S
C1307 C565 1.393 . S
C1312 C538 1.391 . S
C1317 C560 1.379 . S
C1322 C593 1.380 . S
C1327 C601 1.384 . S
C1332 C580 1.383 . S
C1337 C637 1.367 . S
C1342 C646 1.367 . S
C1347 C659 1.395 . S
C1352 C668 1.393 . S
C1357 C681 1.410 . S
C1362 C697 1.406 . S
C1367 C624 1.358 . S
C1372 C692 1.359 . S
C1377 C934 1.359 . S
C1382 C719 1.363 . S
C1387 C747 1.368 . S
C1392 C954 1.368 . S
C1397 C978 1.382 . S
C1402 C755 1.381 . S
C1407 C920 1.379 . S
C1412 C777 1.380 . S
C1417 C799 1.376 . S
C1422 C1030 1.376 . S
C1427 C821 1.410 . S
C1432 C901 1.405 . S
C1437 C1044 1.372 . S
C1442 C857 1.374 . S
C1447 C865 1.375 . S
C1452 C1000 1.374 . S
C1457 C734 1.358 . S
C1462 C888 1.359 . S
C1467 C876 1.390 . S
C1472 C909 1.392 . S
C1477 C939 1.374 . S
C1482 C810 1.372 . S
C1487 C967 1.395 . S
C1492 C832 1.394 . S
C1497 C983 1.362 . S
C1502 C844 1.360 . S
C1507 C1005 1.384 . S
C1512 C788 1.382 . S
C1517 C714 1.381 . S
C1522 C1019 1.382 . S
C1527 C1049 1.376 . S
C1532 C766 1.376 . S
C1537 C18 1.177 . S
C1542 C370 1.186 . S
C1547 C521 1.213 . S
C1552 C30 1.219 . S
C1557 C62 1.219 . S
C1562 C477 1.212 . S
C1567 C76 1.216 . S
C1572 C505 1.211 . S
C1577 C106 1.226 . S
C1582 C389 1.218 . S
C1587 C403 1.212 . S
C1592 C128 1.218 . S
C1597 C150 1.222 . S
C1602 C425 1.214 . S
C1607 C461 1.260 . S
C1612 C175 1.253 . S
C1617 C186 1.212 . S
C1622 C7 1.205 . S
C1627 C216 1.226 . S
C1632 C43 1.219 . S
C1637 C230 1.217 . S
C1642 C51 1.211 . S
C1647 C252 1.219 . S
C1652 C81 1.212 . S
C1657 C95 1.211 . S
C1662 C274 1.218 . S
C1667 C296 1.222 . S
C1672 C117 1.214 . S
C1677 C326 1.214 . S
C1682 C139 1.206 . S
C1687 C340 1.178 . S
C1692 C162 1.185 . S
C1697 C191 1.261 . S
C1702 C359 1.253 . S
C1707 C384 1.218 . S
C1712 C279 1.212 . S
C1717 C414 1.215 . S
C1722 C301 1.206 . S
C1727 C315 1.212 . S
C1732 C436 1.218 . S
C1737 C345 1.205 . S
C1742 C448 1.212 . S
C1747 C472 1.216 . S
C1752 C235 1.211 . S
C1757 C492 1.217 . S
C1762 C257 1.211 . S
C1767 C516 1.218 . S
C1772 C205 1.210 . S
C1777 C890 1.185 . S
C1782 C536 1.178 . S
C1787 C558 1.219 . S
C1792 C1055 1.213 . S
C1797 C590 1.219 . S
C1802 C1011 1.213 . S
C1807 C1027 1.211 . S
C1812 C604 1.216 . S
C1817 C917 1.218 . S
C1822 C634 1.226 . S
C1827 C656 1.218 . S
C1832 C945 1.212 . S
C1837 C953 1.214 . S
C1842 C678 1.222 . S
C1847 C989 1.261 . S
C1852 C689 1.253 . S
C1857 C549 1.204 . S
C1862 C712 1.211 . S
C1867 C571 1.218 . S
C1872 C744 1.226 . S
C1877 C579 1.211 . S
C1882 C758 1.217 . S
C1887 C609 1.213 . S
C1892 C780 1.219 . S
C1897 C623 1.210 . S
C1902 C802 1.218 . S
C1907 C645 1.214 . S
C1912 C824 1.222 . S
C1917 C667 1.206 . S
C1922 C854 1.214 . S
C1927 C868 1.178 . S
C1932 C700 1.185 . S
C1937 C895 1.253 . S
C1942 C725 1.261 . S
C1947 C912 1.218 . S
C1952 C807 1.212 . S
C1957 C932 1.215 . S
C1962 C829 1.205 . S
C1967 C964 1.218 . S
C1972 C843 1.212 . S
C1977 C976 1.211 . S
C1982 C873 1.204 . S
C1987 C998 1.216 . S
C1992 C763 1.211 . S
C1997 C1022 1.217 . S
C2002 C785 1.210 . S
C2007 C733 1.210 . S
C2012 C1042 1.218 . S
C2017 C10 1.246 . S
C2022 C986 1.246 . S
C2027 C910 1.232 . S
C2032 C40 1.231 . S
C2037 C942 1.231 . S
C2042 C54 1.231 . S
C2047 C74 1.230 . S
C2052 C956 1.232 . S
C2057 C1052 1.234 . S
C2062 C98 1.238 . S
C2067 C1008 1.232 . S
C2072 C120 1.233 . S
C2077 C1020 1.236 . S
C2082 C142 1.240 . S
C2087 C169 1.287 . S
C2092 C887 1.285 . S
C2097 C184 1.247 . S
C2102 C866 1.244 . S
C2107 C800 1.236 . S
C2112 C208 1.238 . S
C2117 C822 1.239 . S
C2122 C228 1.240 . S
C2127 C846 1.230 . S
C2132 C250 1.233 . S
C2137 C272 1.236 . S
C2142 C736 1.238 . S
C2147 C294 1.241 . S
C2152 C756 1.237 . S
C2157 C318 1.230 . S
C2162 C778 1.233 . S
C2167 C722 1.249 . S
C2172 C338 1.245 . S
C2177 C373 1.286 . S
C2182 C703 1.286 . S
C2187 C382 1.232 . S
C2192 C568 1.231 . S
C2197 C406 1.230 . S
C2202 C582 1.232 . S
C2207 C428 1.231 . S
C2212 C602 1.231 . S
C2217 C458 1.249 . S
C2222 C546 1.246 . S
C2227 C648 1.231 . S
C2232 C470 1.233 . S
C2237 C502 1.236 . S
C2242 C670 1.240 . S
C2247 C514 1.235 . S
C2252 C626 1.236 . S
C2257 C164 1.289 . S
C2262 C711 1.298 . S
C2267 C741 1.318 . S
C2272 C103 1.316 . S
C2277 C125 1.330 . S
C2282 C769 1.329 . S
C2287 C147 1.331 . S
C2292 C791 1.331 . S
C2297 C29 1.326 . S
C2302 C813 1.328 . S
C2307 C835 1.331 . S
C2312 C59 1.331 . S
C2317 C87 1.332 . S
C2322 C851 1.329 . S
C2327 C15 1.322 . S
C2332 C879 1.320 . S
C2337 C447 1.296 . S
C2342 C898 1.289 . S
C2347 C1041 1.327 . S
C2352 C395 1.326 . S
C2357 C997 1.329 . S
C2362 C411 1.332 . S
C2367 C433 1.331 . S
C2372 C1033 1.328 . S
C2377 C527 1.325 . S
C2382 C923 1.328 . S
C2387 C483 1.329 . S
C2392 C931 1.331 . S
C2397 C961 1.328 . S
C2402 C491 1.331 . S
C2407 C975 1.295 . S
C2412 C360 1.290 . S
C2417 C351 1.321 . S
C2422 C535 1.321 . S
C2427 C213 1.317 . S
C2432 C631 1.317 . S
C2437 C653 1.331 . S
C2442 C241 1.328 . S
C2447 C263 1.332 . S
C2452 C675 1.331 . S
C2457 C197 1.298 . S
C2462 C690 1.288 . S
C2467 C307 1.331 . S
C2472 C587 1.332 . S
C2477 C323 1.329 . S
C2482 C615 1.332 . S
C2487 C557 1.326 . S
C2492 C285 1.328 . S
