# Generated by pormake.
# Topology umr, (4)-cn, num edge types: 1
# Building blocks:
#     Node 0, Type 0, BuildingBlock: AZAVOO_clean_sbu_0, # of connection points: 4
#     Node 1, Type 0, BuildingBlock: AZAVOO_clean_sbu_0, # of connection points: 4
#     Node 2, Type 0, BuildingBlock: AZAVOO_clean_sbu_0, # of connection points: 4
#     Node 3, Type 0, BuildingBlock: AZAVOO_clean_sbu_0, # of connection points: 4
#     Node 4, Type 0, BuildingBlock: AZAVOO_clean_sbu_0, # of connection points: 4
#     Node 5, Type 0, BuildingBlock: AZAVOO_clean_sbu_0, # of connection points: 4
#     Node 6, Type 0, BuildingBlock: AZAVOO_clean_sbu_0, # of connection points: 4
#     Node 7, Type 0, BuildingBlock: AZAVOO_clean_sbu_0, # of connection points: 4
#     Node 8, Type 0, BuildingBlock: AZAVOO_clean_sbu_0, # of connection points: 4
#     Node 9, Type 0, BuildingBlock: AZAVOO_clean_sbu_0, # of connection points: 4
#     Node 10, Type 0, BuildingBlock: AZAVOO_clean_sbu_0, # of connection points: 4
#     Node 11, Type 0, BuildingBlock: AZAVOO_clean_sbu_0, # of connection points: 4
#     Node 12, Type 0, BuildingBlock: AZAVOO_clean_sbu_0, # of connection points: 4
#     Node 13, Type 0, BuildingBlock: AZAVOO_clean_sbu_0, # of connection points: 4
#     Node 14, Type 0, BuildingBlock: AZAVOO_clean_sbu_0, # of connection points: 4
#     Node 15, Type 0, BuildingBlock: AZAVOO_clean_sbu_0, # of connection points: 4
#     Node 16, Type 0, BuildingBlock: AZAVOO_clean_sbu_0, # of connection points: 4
#     Node 17, Type 0, BuildingBlock: AZAVOO_clean_sbu_0, # of connection points: 4
#     Node 18, Type 0, BuildingBlock: AZAVOO_clean_sbu_0, # of connection points: 4
#     Node 19, Type 0, BuildingBlock: AZAVOO_clean_sbu_0, # of connection points: 4
#     Node 20, Type 0, BuildingBlock: AZAVOO_clean_sbu_0, # of connection points: 4
#     Node 21, Type 0, BuildingBlock: AZAVOO_clean_sbu_0, # of connection points: 4
#     Node 22, Type 0, BuildingBlock: AZAVOO_clean_sbu_0, # of connection points: 4
#     Node 23, Type 0, BuildingBlock: AZAVOO_clean_sbu_0, # of connection points: 4
#     Node 24, Type 0, BuildingBlock: AZAVOO_clean_sbu_0, # of connection points: 4
#     Node 25, Type 0, BuildingBlock: AZAVOO_clean_sbu_0, # of connection points: 4
#     Node 26, Type 0, BuildingBlock: AZAVOO_clean_sbu_0, # of connection points: 4
#     Node 27, Type 0, BuildingBlock: AZAVOO_clean_sbu_0, # of connection points: 4
#     Node 28, Type 0, BuildingBlock: AZAVOO_clean_sbu_0, # of connection points: 4
#     Node 29, Type 0, BuildingBlock: AZAVOO_clean_sbu_0, # of connection points: 4
#     Node 30, Type 0, BuildingBlock: AZAVOO_clean_sbu_0, # of connection points: 4
#     Node 31, Type 0, BuildingBlock: AZAVOO_clean_sbu_0, # of connection points: 4
#     Edge 32, Type (0, 0), BuildingBlock: AJUNOK_clean_linker_0, # of connection points: 2
#     Edge 33, Type (0, 0), BuildingBlock: AJUNOK_clean_linker_0, # of connection points: 2
#     Edge 34, Type (0, 0), BuildingBlock: AJUNOK_clean_linker_0, # of connection points: 2
#     Edge 35, Type (0, 0), BuildingBlock: AJUNOK_clean_linker_0, # of connection points: 2
#     Edge 36, Type (0, 0), BuildingBlock: AJUNOK_clean_linker_0, # of connection points: 2
#     Edge 37, Type (0, 0), BuildingBlock: AJUNOK_clean_linker_0, # of connection points: 2
#     Edge 38, Type (0, 0), BuildingBlock: AJUNOK_clean_linker_0, # of connection points: 2
#     Edge 39, Type (0, 0), BuildingBlock: AJUNOK_clean_linker_0, # of connection points: 2
#     Edge 40, Type (0, 0), BuildingBlock: AJUNOK_clean_linker_0, # of connection points: 2
#     Edge 41, Type (0, 0), BuildingBlock: AJUNOK_clean_linker_0, # of connection points: 2
#     Edge 42, Type (0, 0), BuildingBlock: AJUNOK_clean_linker_0, # of connection points: 2
#     Edge 43, Type (0, 0), BuildingBlock: AJUNOK_clean_linker_0, # of connection points: 2
#     Edge 44, Type (0, 0), BuildingBlock: AJUNOK_clean_linker_0, # of connection points: 2
#     Edge 45, Type (0, 0), BuildingBlock: AJUNOK_clean_linker_0, # of connection points: 2
#     Edge 46, Type (0, 0), BuildingBlock: AJUNOK_clean_linker_0, # of connection points: 2
#     Edge 47, Type (0, 0), BuildingBlock: AJUNOK_clean_linker_0, # of connection points: 2
#     Edge 48, Type (0, 0), BuildingBlock: AJUNOK_clean_linker_0, # of connection points: 2
#     Edge 49, Type (0, 0), BuildingBlock: AJUNOK_clean_linker_0, # of connection points: 2
#     Edge 50, Type (0, 0), BuildingBlock: AJUNOK_clean_linker_0, # of connection points: 2
#     Edge 51, Type (0, 0), BuildingBlock: AJUNOK_clean_linker_0, # of connection points: 2
#     Edge 52, Type (0, 0), BuildingBlock: AJUNOK_clean_linker_0, # of connection points: 2
#     Edge 53, Type (0, 0), BuildingBlock: AJUNOK_clean_linker_0, # of connection points: 2
#     Edge 54, Type (0, 0), BuildingBlock: AJUNOK_clean_linker_0, # of connection points: 2
#     Edge 55, Type (0, 0), BuildingBlock: AJUNOK_clean_linker_0, # of connection points: 2
#     Edge 56, Type (0, 0), BuildingBlock: AJUNOK_clean_linker_0, # of connection points: 2
#     Edge 57, Type (0, 0), BuildingBlock: AJUNOK_clean_linker_0, # of connection points: 2
#     Edge 58, Type (0, 0), BuildingBlock: AJUNOK_clean_linker_0, # of connection points: 2
#     Edge 59, Type (0, 0), BuildingBlock: AJUNOK_clean_linker_0, # of connection points: 2
#     Edge 60, Type (0, 0), BuildingBlock: AJUNOK_clean_linker_0, # of connection points: 2
#     Edge 61, Type (0, 0), BuildingBlock: AJUNOK_clean_linker_0, # of connection points: 2
#     Edge 62, Type (0, 0), BuildingBlock: AJUNOK_clean_linker_0, # of connection points: 2
#     Edge 63, Type (0, 0), BuildingBlock: AJUNOK_clean_linker_0, # of connection points: 2
#     Edge 64, Type (0, 0), BuildingBlock: AJUNOK_clean_linker_0, # of connection points: 2
#     Edge 65, Type (0, 0), BuildingBlock: AJUNOK_clean_linker_0, # of connection points: 2
#     Edge 66, Type (0, 0), BuildingBlock: AJUNOK_clean_linker_0, # of connection points: 2
#     Edge 67, Type (0, 0), BuildingBlock: AJUNOK_clean_linker_0, # of connection points: 2
#     Edge 68, Type (0, 0), BuildingBlock: AJUNOK_clean_linker_0, # of connection points: 2
#     Edge 69, Type (0, 0), BuildingBlock: AJUNOK_clean_linker_0, # of connection points: 2
#     Edge 70, Type (0, 0), BuildingBlock: AJUNOK_clean_linker_0, # of connection points: 2
#     Edge 71, Type (0, 0), BuildingBlock: AJUNOK_clean_linker_0, # of connection points: 2
#     Edge 72, Type (0, 0), BuildingBlock: AJUNOK_clean_linker_0, # of connection points: 2
#     Edge 73, Type (0, 0), BuildingBlock: AJUNOK_clean_linker_0, # of connection points: 2
#     Edge 74, Type (0, 0), BuildingBlock: AJUNOK_clean_linker_0, # of connection points: 2
#     Edge 75, Type (0, 0), BuildingBlock: AJUNOK_clean_linker_0, # of connection points: 2
#     Edge 76, Type (0, 0), BuildingBlock: AJUNOK_clean_linker_0, # of connection points: 2
#     Edge 77, Type (0, 0), BuildingBlock: AJUNOK_clean_linker_0, # of connection points: 2
#     Edge 78, Type (0, 0), BuildingBlock: AJUNOK_clean_linker_0, # of connection points: 2
#     Edge 79, Type (0, 0), BuildingBlock: AJUNOK_clean_linker_0, # of connection points: 2
#     Edge 80, Type (0, 0), BuildingBlock: AJUNOK_clean_linker_0, # of connection points: 2
#     Edge 81, Type (0, 0), BuildingBlock: AJUNOK_clean_linker_0, # of connection points: 2
#     Edge 82, Type (0, 0), BuildingBlock: AJUNOK_clean_linker_0, # of connection points: 2
#     Edge 83, Type (0, 0), BuildingBlock: AJUNOK_clean_linker_0, # of connection points: 2
#     Edge 84, Type (0, 0), BuildingBlock: AJUNOK_clean_linker_0, # of connection points: 2
#     Edge 85, Type (0, 0), BuildingBlock: AJUNOK_clean_linker_0, # of connection points: 2
#     Edge 86, Type (0, 0), BuildingBlock: AJUNOK_clean_linker_0, # of connection points: 2
#     Edge 87, Type (0, 0), BuildingBlock: AJUNOK_clean_linker_0, # of connection points: 2
#     Edge 88, Type (0, 0), BuildingBlock: AJUNOK_clean_linker_0, # of connection points: 2
#     Edge 89, Type (0, 0), BuildingBlock: AJUNOK_clean_linker_0, # of connection points: 2
#     Edge 90, Type (0, 0), BuildingBlock: AJUNOK_clean_linker_0, # of connection points: 2
#     Edge 91, Type (0, 0), BuildingBlock: AJUNOK_clean_linker_0, # of connection points: 2
#     Edge 92, Type (0, 0), BuildingBlock: AJUNOK_clean_linker_0, # of connection points: 2
#     Edge 93, Type (0, 0), BuildingBlock: AJUNOK_clean_linker_0, # of connection points: 2
#     Edge 94, Type (0, 0), BuildingBlock: AJUNOK_clean_linker_0, # of connection points: 2
#     Edge 95, Type (0, 0), BuildingBlock: AJUNOK_clean_linker_0, # of connection points: 2
# Relax obj value: 0.167
# Max RMSD: 0.154
# Mean RMSD: 0.154
data_MOF--net-umr--node1-AZAVOO_clean_sbu_0--edge1-AJUNOK_clean_linker_0
_symmetry_space_group_name_H-M    P1
_symmetry_Int_Tables_number       1
_symmetry_cell_setting            triclinic
loop_
_symmetry_equiv_pos_as_xyz
'x, y, z'
_cell_length_a     62.713282
_cell_length_b     62.764445
_cell_length_c     18.888191
_cell_angle_alpha  89.95204
_cell_angle_beta   90.016458
_cell_angle_gamma 90.019516
loop_
_atom_site_label
_atom_site_type_symbol
_atom_site_fract_x
_atom_site_fract_y
_atom_site_fract_z
_atom_type_partial_charge
Mg0 Mg 0.14852 0.28644 0.05338 0.0
O1 O 0.18378 0.28683 0.02587 0.0
O2 O 0.20231 0.29808 0.11863 0.0
Mg3 Mg 0.17843 0.30121 0.21093 0.0
C4 C 0.20138 0.29217 0.05411 0.0
C5 C 0.14994 0.29028 0.88226 0.0
O6 O 0.15936 0.30888 0.88823 0.0
O7 O 0.14721 0.32294 0.05308 0.0
O8 O 0.1619 0.32978 0.1589 0.0
O9 O 0.14964 0.25287 0.09302 0.0
O10 O 0.15363 0.28136 0.16037 0.0
C11 C 0.15181 0.33581 0.1036 0.0
C12 C 0.15194 0.26101 0.15542 0.0
O13 O 0.14255 0.28101 0.93674 0.0
Mg14 Mg 0.94653 0.90451 0.34761 0.0
O15 O 0.94312 0.93888 0.31674 0.0
O16 O 0.92817 0.95761 0.40296 0.0
Mg17 Mg 0.92502 0.93409 0.49702 0.0
C18 C 0.93565 0.95624 0.3403 0.0
C19 C 0.97233 0.89414 0.21921 0.0
O20 O 0.98404 0.88771 0.27275 0.0
O21 O 0.91064 0.89965 0.33893 0.0
O22 O 0.89921 0.91434 0.44032 0.0
O23 O 0.97883 0.91012 0.39397 0.0
O24 O 0.94894 0.91134 0.45508 0.0
C25 C 0.89592 0.90347 0.3841 0.0
C26 C 0.96942 0.91238 0.45436 0.0
O27 O 0.95313 0.89943 0.23094 0.0
Mg28 Mg 0.33163 0.69707 0.60211 0.0
O29 O 0.29729 0.69021 0.5773 0.0
O30 O 0.27939 0.6753 0.66511 0.0
Mg31 Mg 0.30433 0.67469 0.75593 0.0
C32 C 0.28036 0.68206 0.60154 0.0
C33 C 0.32125 0.71878 0.46744 0.0
O34 O 0.30905 0.7268 0.51719 0.0
O35 O 0.33882 0.66151 0.59498 0.0
O36 O 0.32503 0.65003 0.69778 0.0
O37 O 0.32538 0.72916 0.64886 0.0
O38 O 0.32589 0.69937 0.71048 0.0
C39 C 0.33603 0.64695 0.6417 0.0
C40 C 0.32438 0.71981 0.70974 0.0
O41 O 0.3346 0.70432 0.48419 0.0
Mg42 Mg 0.53821 0.07885 0.86543 0.0
O43 O 0.54245 0.0447 0.83272 0.0
O44 O 0.55775 0.02587 0.91811 0.0
Mg45 Mg 0.56015 0.0488 0.01358 0.0
C46 C 0.55031 0.02739 0.85543 0.0
C47 C 0.5119 0.0911 0.7412 0.0
O48 O 0.50169 0.09855 0.79656 0.0
O49 O 0.57407 0.08474 0.85778 0.0
O50 O 0.58538 0.06951 0.95847 0.0
O51 O 0.50601 0.0724 0.9113 0.0
O52 O 0.53595 0.07131 0.97223 0.0
C53 C 0.58865 0.08104 0.9037 0.0
C54 C 0.51548 0.07006 0.97159 0.0
O55 O 0.53091 0.08462 0.74946 0.0
Mg56 Mg 0.15468 0.69124 0.41442 0.0
O57 O 0.18956 0.68636 0.43873 0.0
O58 O 0.2074 0.67185 0.34991 0.0
Mg59 Mg 0.18228 0.66892 0.26083 0.0
C60 C 0.2067 0.67907 0.4129 0.0
C61 C 0.16418 0.71473 0.5468 0.0
O62 O 0.17572 0.72303 0.49579 0.0
O63 O 0.14879 0.65531 0.42495 0.0
O64 O 0.16287 0.64412 0.32265 0.0
O65 O 0.15934 0.72325 0.36322 0.0
O66 O 0.15993 0.6929 0.3053 0.0
C67 C 0.15207 0.64066 0.3789 0.0
C68 C 0.16057 0.71335 0.30341 0.0
O69 O 0.15166 0.69937 0.5319 0.0
Mg70 Mg 0.53723 0.90104 0.67705 0.0
O71 O 0.54248 0.93568 0.70202 0.0
O72 O 0.55244 0.95334 0.60557 0.0
Mg73 Mg 0.55123 0.92877 0.51426 0.0
C74 C 0.54828 0.95277 0.67169 0.0
C75 C 0.51844 0.88758 0.81255 0.0
O76 O 0.50718 0.87839 0.76245 0.0
O77 O 0.57301 0.89566 0.66654 0.0
O78 O 0.5794 0.90928 0.55878 0.0
O79 O 0.50306 0.90703 0.65015 0.0
O80 O 0.5293 0.90736 0.57239 0.0
C81 C 0.58535 0.89891 0.61366 0.0
C82 C 0.50922 0.90914 0.58522 0.0
O83 O 0.53597 0.89627 0.79565 0.0
Mg84 Mg 0.33198 0.28844 0.89521 0.0
O85 O 0.29655 0.28956 0.9162 0.0
O86 O 0.27964 0.30302 0.82297 0.0
Mg87 Mg 0.30514 0.30788 0.73617 0.0
C88 C 0.27953 0.29565 0.88594 0.0
C89 C 0.34277 0.2637 0.02616 0.0
O90 O 0.35084 0.25266 0.97357 0.0
O91 O 0.33459 0.32468 0.90358 0.0
O92 O 0.32196 0.33462 0.79748 0.0
O93 O 0.32997 0.25579 0.84642 0.0
O94 O 0.32799 0.28579 0.78655 0.0
C95 C 0.33127 0.33887 0.85603 0.0
C96 C 0.32867 0.26537 0.78594 0.0
O97 O 0.33534 0.2821 0.01318 0.0
Mg98 Mg 0.95039 0.08304 0.16637 0.0
O99 O 0.94554 0.04793 0.18601 0.0
O100 O 0.93128 0.0312 0.0942 0.0
Mg101 Mg 0.929 0.05704 0.00741 0.0
C102 C 0.93823 0.03117 0.15761 0.0
C103 C 0.97397 0.07273 0.29876 0.0
O104 O 0.98245 0.06157 0.24718 0.0
O105 O 0.91425 0.08852 0.17487 0.0
O106 O 0.90386 0.07556 0.06973 0.0
O107 O 0.98263 0.07938 0.11509 0.0
O108 O 0.9522 0.07894 0.05744 0.0
C109 C 0.89999 0.08569 0.12696 0.0
C110 C 0.97263 0.07878 0.05527 0.0
O111 O 0.95835 0.08502 0.28449 0.0
Mg112 Mg 0.83665 0.695 0.90714 0.0
O113 O 0.80125 0.69287 0.92722 0.0
O114 O 0.78441 0.67976 0.8336 0.0
Mg115 Mg 0.81026 0.67538 0.74769 0.0
C116 C 0.78423 0.68685 0.89687 0.0
C117 C 0.84385 0.72008 0.03926 0.0
O118 O 0.85146 0.73202 0.98809 0.0
O119 O 0.84049 0.65882 0.91468 0.0
O120 O 0.82756 0.64896 0.80933 0.0
O121 O 0.83322 0.72773 0.86007 0.0
O122 O 0.83262 0.6981 0.79792 0.0
C123 C 0.83731 0.64464 0.86703 0.0
C124 C 0.83202 0.71855 0.79902 0.0
O125 O 0.83897 0.70089 0.02579 0.0
Mg126 Mg 0.04266 0.08391 0.66901 0.0
O127 O 0.04764 0.04972 0.70182 0.0
O128 O 0.06227 0.03127 0.61416 0.0
Mg129 Mg 0.06408 0.05442 0.51923 0.0
C130 C 0.05538 0.03253 0.67757 0.0
C131 C 0.01829 0.0977 0.7948 0.0
O132 O 0.00833 0.10587 0.73997 0.0
O133 O 0.07832 0.09032 0.6744 0.0
O134 O 0.08948 0.07541 0.57335 0.0
O135 O 0.01005 0.07689 0.6283 0.0
O136 O 0.03912 0.07581 0.56253 0.0
C137 C 0.09285 0.08677 0.62843 0.0
C138 C 0.01871 0.07385 0.56706 0.0
O139 O 0.03673 0.08996 0.7853 0.0
Mg140 Mg 0.6544 0.28763 0.42598 0.0
O141 O 0.68859 0.29327 0.4585 0.0
O142 O 0.70678 0.30704 0.36835 0.0
Mg143 Mg 0.68379 0.30734 0.27285 0.0
C144 C 0.70565 0.30095 0.43278 0.0
C145 C 0.64006 0.26521 0.55613 0.0
O146 O 0.63266 0.25381 0.50321 0.0
O147 O 0.64813 0.32327 0.42592 0.0
O148 O 0.66283 0.3334 0.32316 0.0
O149 O 0.66142 0.25446 0.391 0.0
O150 O 0.66309 0.28271 0.32102 0.0
C151 C 0.65166 0.33731 0.37827 0.0
C152 C 0.66529 0.26245 0.32927 0.0
O153 O 0.64777 0.28344 0.54274 0.0
Mg154 Mg 0.45057 0.90024 0.18043 0.0
O155 O 0.44846 0.93536 0.2095 0.0
O156 O 0.43446 0.95303 0.1186 0.0
Mg157 Mg 0.43106 0.92922 0.02634 0.0
C158 C 0.44158 0.95252 0.18189 0.0
C159 C 0.45042 0.90315 0.34901 0.0
O160 O 0.43329 0.91502 0.34281 0.0
O161 O 0.41444 0.8969 0.18806 0.0
O162 O 0.40446 0.91093 0.08393 0.0
O163 O 0.48337 0.90349 0.1357 0.0
O164 O 0.45375 0.90649 0.07361 0.0
C165 C 0.40026 0.90076 0.14096 0.0
C166 C 0.47425 0.90608 0.07486 0.0
O167 O 0.45772 0.89348 0.29523 0.0
Mg168 Mg 0.83347 0.29346 0.60254 0.0
O169 O 0.79835 0.29694 0.58217 0.0
O170 O 0.78187 0.31267 0.67195 0.0
Mg171 Mg 0.80795 0.31725 0.75703 0.0
C172 C 0.78161 0.30448 0.6102 0.0
C173 C 0.83776 0.26546 0.47397 0.0
O174 O 0.84272 0.25307 0.52749 0.0
O175 O 0.83834 0.32917 0.58661 0.0
O176 O 0.82572 0.34196 0.6891 0.0
O177 O 0.82901 0.26201 0.65674 0.0
O178 O 0.82967 0.29277 0.71239 0.0
C179 C 0.83532 0.34455 0.62998 0.0
C180 C 0.82862 0.27235 0.71581 0.0
O181 O 0.83531 0.28525 0.48529 0.0
Mg182 Mg 0.44546 0.08011 0.36617 0.0
O183 O 0.44406 0.04539 0.33886 0.0
O184 O 0.42833 0.02659 0.42338 0.0
Mg185 Mg 0.42255 0.0508 0.51402 0.0
C186 C 0.43693 0.02787 0.36233 0.0
C187 C 0.47315 0.08682 0.23809 0.0
O188 O 0.48556 0.09158 0.29175 0.0
O189 O 0.40962 0.0833 0.35027 0.0
O190 O 0.39695 0.06898 0.45061 0.0
O191 O 0.47704 0.07633 0.41961 0.0
O192 O 0.44624 0.07448 0.47513 0.0
C193 C 0.39425 0.07925 0.39276 0.0
C194 C 0.46672 0.07436 0.47844 0.0
O195 O 0.45341 0.08401 0.24955 0.0
Mg196 Mg 0.65342 0.69702 0.06066 0.0
O197 O 0.68854 0.6967 0.03469 0.0
O198 O 0.70715 0.68897 0.1313 0.0
Mg199 Mg 0.68298 0.68906 0.22389 0.0
C200 C 0.70616 0.69263 0.06488 0.0
C201 C 0.63586 0.71069 0.92315 0.0
O202 O 0.62425 0.7201 0.97187 0.0
O203 O 0.65366 0.66113 0.07584 0.0
O204 O 0.66731 0.65786 0.18496 0.0
O205 O 0.65332 0.73188 0.08185 0.0
O206 O 0.65864 0.70733 0.16397 0.0
C207 C 0.6581 0.64995 0.13053 0.0
C208 C 0.65665 0.72718 0.14759 0.0
O209 O 0.64821 0.69578 0.9423 0.0
Mg210 Mg 0.03963 0.9056 0.84909 0.0
O211 O 0.04531 0.9404 0.82699 0.0
O212 O 0.06036 0.95629 0.91941 0.0
Mg213 Mg 0.06186 0.93059 0.00707 0.0
C214 C 0.05332 0.95677 0.85605 0.0
C215 C 0.01373 0.89749 0.71923 0.0
O216 O 0.00211 0.8905 0.77221 0.0
O217 O 0.07525 0.89882 0.84101 0.0
O218 O 0.0867 0.9109 0.94611 0.0
O219 O 0.00745 0.91181 0.89576 0.0
O220 O 0.03716 0.91027 0.95768 0.0
C221 C 0.08984 0.90096 0.88793 0.0
C222 C 0.01676 0.9122 0.95679 0.0
O223 O 0.03291 0.90285 0.73136 0.0
Mg224 Mg 0.64926 0.78319 0.56193 0.0
O225 O 0.68438 0.78689 0.54723 0.0
O226 O 0.70131 0.79925 0.64133 0.0
Mg227 Mg 0.67455 0.80065 0.72567 0.0
C228 C 0.7013 0.79328 0.57687 0.0
C229 C 0.63756 0.77919 0.39158 0.0
O230 O 0.61822 0.78668 0.40107 0.0
O231 O 0.64507 0.81956 0.55925 0.0
O232 O 0.65773 0.8278 0.66664 0.0
O233 O 0.65253 0.74999 0.60362 0.0
O234 O 0.65205 0.77887 0.67033 0.0
C235 C 0.64826 0.83302 0.60926 0.0
C236 C 0.65266 0.75844 0.6661 0.0
O237 O 0.65018 0.77777 0.44371 0.0
Mg238 Mg 0.44656 0.40222 0.82607 0.0
O239 O 0.44283 0.43729 0.80656 0.0
O240 O 0.43074 0.45571 0.8978 0.0
Mg241 Mg 0.42806 0.42989 0.98534 0.0
C242 C 0.43684 0.45472 0.83353 0.0
C243 C 0.46747 0.41268 0.68941 0.0
O244 O 0.47741 0.42314 0.73972 0.0
O245 O 0.41026 0.39841 0.82218 0.0
O246 O 0.40107 0.41242 0.92704 0.0
O247 O 0.47953 0.40524 0.87102 0.0
O248 O 0.45012 0.40673 0.93455 0.0
C249 C 0.39641 0.40224 0.87049 0.0
C250 C 0.4706 0.4067 0.93248 0.0
O251 O 0.45242 0.40005 0.70667 0.0
Mg252 Mg 0.83189 0.20013 0.10108 0.0
O253 O 0.79774 0.19525 0.06807 0.0
O254 O 0.77957 0.17969 0.15469 0.0
Mg255 Mg 0.80253 0.17793 0.2504 0.0
C256 C 0.78071 0.18699 0.0917 0.0
C257 C 0.84487 0.22622 0.97751 0.0
O258 O 0.85246 0.23607 0.03342 0.0
O259 O 0.8382 0.16436 0.09416 0.0
O260 O 0.82365 0.15294 0.19597 0.0
O261 O 0.82501 0.23231 0.14642 0.0
O262 O 0.82432 0.20246 0.20772 0.0
C263 C 0.83486 0.14979 0.14042 0.0
C264 C 0.82273 0.22288 0.20681 0.0
O265 O 0.83779 0.20741 0.98522 0.0
Mg266 Mg 0.03628 0.5858 0.29353 0.0
O267 O 0.03724 0.55054 0.27242 0.0
O268 O 0.04437 0.5326 0.37095 0.0
Mg269 Mg 0.04305 0.55762 0.46102 0.0
C270 C 0.04133 0.5332 0.30414 0.0
C271 C 0.02861 0.60212 0.1393 0.0
O272 O 0.01976 0.61812 0.17307 0.0
O273 O 0.07218 0.58596 0.31319 0.0
O274 O 0.07439 0.57327 0.42406 0.0
O275 O 0.00105 0.58595 0.31337 0.0
O276 O 0.02545 0.58133 0.39646 0.0
C277 C 0.0828 0.58199 0.36958 0.0
C278 C 0.00567 0.58271 0.37929 0.0
O279 O 0.03899 0.58832 0.17412 0.0
Mg280 Mg 0.65318 0.1974 0.92826 0.0
O281 O 0.68842 0.19266 0.94184 0.0
O282 O 0.70491 0.17981 0.84747 0.0
Mg283 Mg 0.67766 0.17747 0.7649 0.0
C284 C 0.7052 0.18618 0.91153 0.0
C285 C 0.66605 0.21884 0.06209 0.0
O286 O 0.6765 0.22791 0.00996 0.0
O287 O 0.64854 0.16131 0.93513 0.0
O288 O 0.66058 0.1513 0.82828 0.0
O289 O 0.65641 0.23003 0.88106 0.0
O290 O 0.65614 0.20032 0.8191 0.0
C291 C 0.65138 0.14715 0.88715 0.0
C292 C 0.65674 0.22077 0.81997 0.0
O293 O 0.65287 0.20402 0.04731 0.0
Mg294 Mg 0.0405 0.4024 0.15593 0.0
O295 O 0.04274 0.43801 0.16942 0.0
O296 O 0.05412 0.45464 0.07334 0.0
Mg297 Mg 0.05728 0.42775 0.99015 0.0
C298 C 0.04798 0.455 0.13768 0.0
C299 C 0.02034 0.41354 0.29344 0.0
O300 O 0.00971 0.42342 0.24335 0.0
O301 O 0.07692 0.39953 0.15756 0.0
O302 O 0.08486 0.41155 0.04885 0.0
O303 O 0.00713 0.40373 0.11257 0.0
O304 O 0.03625 0.40518 0.04748 0.0
C305 C 0.09022 0.40254 0.10693 0.0
C306 C 0.01582 0.40462 0.05057 0.0
O307 O 0.0356 0.40124 0.27578 0.0
Mg308 Mg 0.83053 0.78838 0.40386 0.0
O309 O 0.7956 0.79123 0.4327 0.0
O310 O 0.77808 0.80552 0.34222 0.0
Mg311 Mg 0.80201 0.80938 0.25119 0.0
C312 C 0.77849 0.79816 0.40512 0.0
C313 C 0.84335 0.76367 0.53291 0.0
O314 O 0.8506 0.75259 0.47911 0.0
O315 O 0.83536 0.82441 0.41176 0.0
O316 O 0.82107 0.83514 0.30919 0.0
O317 O 0.82573 0.75581 0.35885 0.0
O318 O 0.82429 0.7852 0.29515 0.0
C319 C 0.83179 0.83885 0.36532 0.0
C320 C 0.82342 0.76471 0.29756 0.0
O321 O 0.83581 0.78209 0.52101 0.0
Mg322 Mg 0.45318 0.58191 0.65666 0.0
O323 O 0.44854 0.54711 0.68259 0.0
O324 O 0.43335 0.53064 0.59155 0.0
Mg325 Mg 0.43111 0.55538 0.50136 0.0
C326 C 0.4406 0.53051 0.65469 0.0
C327 C 0.47935 0.59299 0.78206 0.0
O328 O 0.48923 0.60135 0.72741 0.0
O329 O 0.41734 0.58766 0.6658 0.0
O330 O 0.40588 0.57459 0.56199 0.0
O331 O 0.48541 0.57616 0.60949 0.0
O332 O 0.45549 0.57644 0.54849 0.0
C333 C 0.40263 0.58468 0.61977 0.0
C334 C 0.47593 0.57494 0.54886 0.0
O335 O 0.46057 0.5859 0.77336 0.0
Mg336 Mg 0.33312 0.19473 0.39768 0.0
O337 O 0.29773 0.19367 0.4182 0.0
O338 O 0.28057 0.18078 0.3247 0.0
Mg339 Mg 0.30624 0.17575 0.2386 0.0
C340 C 0.2806 0.18794 0.38793 0.0
C341 C 0.34583 0.21841 0.52696 0.0
O342 O 0.35609 0.22746 0.47432 0.0
O343 O 0.33549 0.15857 0.40605 0.0
O344 O 0.3225 0.14866 0.3006 0.0
O345 O 0.33085 0.22756 0.35177 0.0
O346 O 0.32899 0.19801 0.28907 0.0
C347 C 0.33186 0.14434 0.35902 0.0
C348 C 0.3291 0.21849 0.29059 0.0
O349 O 0.3364 0.20087 0.51543 0.0
Mg350 Mg 0.54693 0.58305 0.15526 0.0
O351 O 0.5487 0.54823 0.18159 0.0
O352 O 0.56393 0.52963 0.09578 0.0
Mg353 Mg 0.56946 0.55404 0.00597 0.0
C354 C 0.55564 0.53076 0.15729 0.0
C355 C 0.51951 0.59096 0.2833 0.0
O356 O 0.50753 0.59665 0.22954 0.0
O357 O 0.58284 0.58668 0.17004 0.0
O358 O 0.59499 0.57205 0.06977 0.0
O359 O 0.51521 0.57908 0.10303 0.0
O360 O 0.54583 0.57751 0.0463 0.0
C361 C 0.59804 0.58251 0.127 0.0
C362 C 0.52534 0.57721 0.0438 0.0
O363 O 0.53904 0.58688 0.27201 0.0
Mg364 Mg 0.15467 0.78397 0.91551 0.0
O365 O 0.18939 0.78953 0.94155 0.0
O366 O 0.20643 0.80292 0.84834 0.0
Mg367 Mg 0.18192 0.80391 0.75762 0.0
C368 C 0.2062 0.79681 0.91277 0.0
C369 C 0.14249 0.75986 0.04379 0.0
O370 O 0.13344 0.75006 0.99023 0.0
O371 O 0.1484 0.81984 0.91781 0.0
O372 O 0.16234 0.82976 0.81365 0.0
O373 O 0.16115 0.75104 0.87634 0.0
O374 O 0.16138 0.77969 0.80844 0.0
C375 C 0.15165 0.83384 0.8696 0.0
C376 C 0.1635 0.75936 0.81426 0.0
O377 O 0.15023 0.77829 0.03337 0.0
Mg378 Mg 0.95092 0.40422 0.65628 0.0
O379 O 0.9495 0.4391 0.68559 0.0
O380 O 0.93805 0.45776 0.59302 0.0
Mg381 Mg 0.93527 0.43426 0.49947 0.0
C382 C 0.94403 0.45668 0.65759 0.0
C383 C 0.9702 0.38787 0.78944 0.0
O384 O 0.98084 0.37856 0.73816 0.0
O385 O 0.91479 0.40202 0.65436 0.0
O386 O 0.90678 0.41651 0.54929 0.0
O387 O 0.98495 0.4072 0.62299 0.0
O388 O 0.95733 0.41167 0.55147 0.0
C389 C 0.90147 0.40628 0.60512 0.0
C390 C 0.97767 0.4119 0.5609 0.0
O391 O 0.95336 0.39796 0.7737 0.0
Mg392 Mg 0.33314 0.78769 0.10086 0.0
O393 O 0.29888 0.79238 0.06905 0.0
O394 O 0.27982 0.80557 0.15781 0.0
Mg395 Mg 0.30285 0.8069 0.25304 0.0
C396 C 0.28142 0.79938 0.09371 0.0
C397 C 0.34508 0.76416 0.9701 0.0
O398 O 0.35237 0.75245 0.02247 0.0
O399 O 0.33882 0.82357 0.10041 0.0
O400 O 0.32328 0.8332 0.2023 0.0
O401 O 0.32655 0.75459 0.13797 0.0
O402 O 0.32482 0.78307 0.20639 0.0
C403 C 0.33482 0.83742 0.14834 0.0
C404 C 0.32305 0.76274 0.19966 0.0
O405 O 0.33899 0.78301 0.98353 0.0
Mg406 Mg 0.95281 0.58798 0.79373 0.0
O407 O 0.95241 0.55231 0.78405 0.0
O408 O 0.94534 0.53657 0.88667 0.0
Mg409 Mg 0.94506 0.56403 0.96842 0.0
C410 C 0.9489 0.53563 0.82024 0.0
C411 C 0.95994 0.60081 0.63419 0.0
O412 O 0.9671 0.61855 0.66238 0.0
O413 O 0.91672 0.58828 0.81019 0.0
O414 O 0.91382 0.57777 0.92327 0.0
O415 O 0.9879 0.5888 0.81648 0.0
O416 O 0.96281 0.58619 0.8984 0.0
C417 C 0.90567 0.5852 0.8663 0.0
C418 C 0.98271 0.58703 0.88254 0.0
O419 O 0.95101 0.5871 0.67361 0.0
Mg420 Mg 0.15076 0.20331 0.55581 0.0
O421 O 0.18562 0.20018 0.52817 0.0
O422 O 0.20417 0.19143 0.624 0.0
Mg423 Mg 0.18041 0.19244 0.71732 0.0
C424 C 0.2031 0.19513 0.5576 0.0
C425 C 0.13309 0.21777 0.41795 0.0
O426 O 0.1229 0.22867 0.46673 0.0
O427 O 0.148 0.16742 0.57001 0.0
O428 O 0.16272 0.16261 0.67686 0.0
O429 O 0.15416 0.23812 0.57869 0.0
O430 O 0.15746 0.21273 0.6587 0.0
C431 C 0.15239 0.15562 0.62331 0.0
C432 C 0.15751 0.23277 0.6439 0.0
O433 O 0.14484 0.20249 0.43791 0.0
Mg434 Mg 0.53672 0.40279 0.32686 0.0
O435 O 0.54218 0.43764 0.30133 0.0
O436 O 0.55365 0.45455 0.39768 0.0
Mg437 Mg 0.55341 0.43009 0.48857 0.0
C438 C 0.54869 0.45444 0.33214 0.0
C439 C 0.51611 0.38912 0.19357 0.0
O440 O 0.50514 0.38026 0.24504 0.0
O441 O 0.57258 0.39709 0.33158 0.0
O442 O 0.58059 0.41086 0.43762 0.0
O443 O 0.50286 0.40865 0.35865 0.0
O444 O 0.53031 0.40978 0.43212 0.0
C445 C 0.58574 0.40037 0.38223 0.0
C446 C 0.51014 0.41179 0.42176 0.0
O447 O 0.53383 0.39776 0.2086 0.0
C448 C 0.25994 0.29509 0.00144 0.0
C449 C 0.25933 0.29453 0.92686 0.0
C450 C 0.24122 0.29422 0.04197 0.0
C451 C 0.22106 0.29236 0.00977 0.0
H452 H 0.27503 0.29654 0.02899 0.0
H453 H 0.24262 0.29497 0.09907 0.0
S454 S 0.21086 0.28918 0.81589 0.0
N455 N 0.23699 0.29154 0.82236 0.0
N456 N 0.20185 0.28933 0.89798 0.0
C457 C 0.2203 0.29135 0.93506 0.0
C458 C 0.23937 0.29262 0.89381 0.0
C459 C 0.93525 -0.00425 0.32067 0.0
C460 C 0.9356 0.97506 0.29248 0.0
C461 C 0.93613 0.01368 0.27644 0.0
C462 C 0.93701 0.01169 0.20207 0.0
H463 H 0.9347 -0.00184 0.37743 0.0
H464 H 0.93602 0.02928 0.30097 0.0
S465 S 0.93769 0.96106 0.10121 0.0
N466 N 0.93657 0.95359 0.18494 0.0
N467 N 0.9379 0.98736 0.10225 0.0
C468 C 0.93698 0.99112 0.17303 0.0
C469 C 0.93639 0.97281 0.21808 0.0
C470 C 0.22332 0.67886 0.53358 0.0
C471 C 0.22585 0.67876 0.45926 0.0
C472 C 0.24094 0.67936 0.57938 0.0
C473 C 0.26183 0.68015 0.55278 0.0
H474 H 0.20752 0.67859 0.55681 0.0
H475 H 0.23814 0.67964 0.63597 0.0
S476 S 0.27727 0.6798 0.36247 0.0
N477 N 0.25096 0.67907 0.36142 0.0
N478 N 0.28409 0.68016 0.44687 0.0
C479 C 0.26461 0.67979 0.47849 0.0
C480 C 0.24666 0.67903 0.43195 0.0
C481 C 0.55353 0.98808 0.8341 0.0
C482 C 0.55077 0.00874 0.80689 0.0
C483 C 0.55302 0.97021 0.78966 0.0
C484 C 0.55002 0.97224 0.71594 0.0
H485 H 0.55567 0.9856 0.89042 0.0
H486 H 0.5549 0.95463 0.81356 0.0
S487 S 0.54281 0.02284 0.61722 0.0
N488 N 0.54548 0.03023 0.70059 0.0
N489 N 0.5447 -0.0034 0.61751 0.0
C490 C 0.54776 0.99281 0.68764 0.0
C491 C 0.54805 0.01104 0.73296 0.0
C492 C 0.746 0.69094 0.05272 0.0
C493 C 0.72578 0.69132 0.02057 0.0
C494 C 0.76467 0.68949 0.01219 0.0
C495 C 0.76398 0.68808 0.93768 0.0
H496 H 0.74749 0.6919 0.10976 0.0
H497 H 0.77981 0.68933 0.03983 0.0
S498 S 0.71512 0.68846 0.82689 0.0
N499 N 0.70623 0.69023 0.90889 0.0
N500 N 0.74134 0.68735 0.8333 0.0
C501 C 0.7439 0.68836 0.90469 0.0
C502 C 0.72484 0.69005 0.94589 0.0
C503 C 0.05608 0.97485 0.73853 0.0
C504 C 0.05491 0.97646 0.81289 0.0
C505 C 0.05679 0.993 0.69535 0.0
C506 C 0.05598 0.01356 0.72463 0.0
H507 H 0.05645 0.95937 0.7132 0.0
H508 H 0.05746 0.99086 0.63849 0.0
S509 S 0.05324 0.02659 0.91652 0.0
N510 N 0.05345 0.00029 0.91405 0.0
N511 N 0.05447 0.03449 0.83322 0.0
C512 C 0.05506 0.01543 0.79909 0.0
C513 C 0.05464 -0.00311 0.8431 0.0
C514 C 0.74516 0.30331 0.44975 0.0
C515 C 0.72463 0.30266 0.47944 0.0
C516 C 0.76335 0.30396 0.4927 0.0
C517 C 0.76181 0.30435 0.56718 0.0
H518 H 0.74725 0.30288 0.39283 0.0
H519 H 0.7788 0.30421 0.46705 0.0
S520 S 0.71177 0.30367 0.67162 0.0
N521 N 0.70378 0.30291 0.58837 0.0
N522 N 0.73808 0.30444 0.66877 0.0
C523 C 0.7414 0.30417 0.59768 0.0
C524 C 0.72281 0.3032 0.55394 0.0
C525 C 0.44 0.97025 0.30084 0.0
C526 C 0.44087 0.97204 0.22643 0.0
C527 C 0.43844 0.98828 0.34444 0.0
C528 C 0.4382 0.00889 0.31552 0.0
H529 H 0.44023 0.95478 0.32591 0.0
H530 H 0.43768 0.98602 0.40125 0.0
S531 S 0.44096 0.0225 0.12395 0.0
N532 N 0.44176 -0.00378 0.12593 0.0
N533 N 0.43929 0.03012 0.20737 0.0
C534 C 0.43941 0.01097 0.24115 0.0
C535 C 0.44063 0.99258 0.19679 0.0
C536 C 0.74118 0.7956 0.56405 0.0
C537 C 0.72087 0.79485 0.5327 0.0
C538 C 0.75971 0.79668 0.52239 0.0
C539 C 0.75862 0.79741 0.4478 0.0
H540 H 0.74283 0.79506 0.62111 0.0
H541 H 0.77501 0.79704 0.54899 0.0
S542 S 0.70929 0.79633 0.33935 0.0
N543 N 0.70081 0.79525 0.42193 0.0
N544 N 0.73553 0.79739 0.34447 0.0
C545 C 0.73841 0.79696 0.41583 0.0
C546 C 0.71959 0.79563 0.45801 0.0
C547 C 0.43838 0.49442 0.81673 0.0
C548 C 0.43688 0.47392 0.78736 0.0
C549 C 0.43965 0.51254 0.77332 0.0
C550 C 0.43916 0.51094 0.69876 0.0
H551 H 0.43899 0.49647 0.87363 0.0
H552 H 0.44092 0.52797 0.79861 0.0
S553 S 0.43465 0.46096 0.59519 0.0
N554 N 0.43438 0.45313 0.67861 0.0
N555 N 0.43679 0.48715 0.59768 0.0
C556 C 0.43732 0.49057 0.66873 0.0
C557 C 0.43619 0.4721 0.7128 0.0
C558 C 0.72325 0.18417 0.02916 0.0
C559 C 0.72496 0.18541 0.95476 0.0
C560 C 0.7413 0.18425 0.07279 0.0
C561 C 0.76188 0.18593 0.04405 0.0
H562 H 0.70775 0.18313 0.05428 0.0
H563 H 0.73905 0.18344 0.12959 0.0
S564 S 0.77525 0.18929 0.85244 0.0
N565 N 0.74895 0.18796 0.8542 0.0
N566 N 0.783 0.1884 0.93594 0.0
C567 C 0.76389 0.18699 0.96959 0.0
C568 C 0.74544 0.18662 0.92506 0.0
C569 C 0.04192 0.47475 0.25139 0.0
C570 C 0.04679 0.47532 0.17832 0.0
C571 C 0.04034 0.49342 0.29176 0.0
C572 C 0.0434 0.51353 0.26085 0.0
H573 H 0.03929 0.45972 0.27817 0.0
H574 H 0.03642 0.49206 0.34744 0.0
S575 S 0.05756 0.52405 0.07274 0.0
N576 N 0.0553 0.49789 0.07752 0.0
N577 N 0.05249 0.53295 0.15319 0.0
C578 C 0.04854 0.51441 0.18808 0.0
C579 C 0.05022 0.49535 0.14697 0.0
C580 C 0.26133 0.1904 0.5036 0.0
C581 C 0.26045 0.18942 0.42901 0.0
C582 C 0.24277 0.19211 0.54451 0.0
C583 C 0.22253 0.19317 0.51282 0.0
H584 H 0.27648 0.18972 0.53086 0.0
H585 H 0.24441 0.19279 0.60167 0.0
S586 S 0.21143 0.19145 0.31926 0.0
N587 N 0.23763 0.18968 0.32505 0.0
N588 N 0.20274 0.19305 0.40156 0.0
C589 C 0.22139 0.19223 0.43809 0.0
C590 C 0.24034 0.19029 0.39646 0.0
C591 C 0.55393 0.47274 0.21561 0.0
C592 C 0.55081 0.47416 0.28938 0.0
C593 C 0.55578 0.49105 0.1734 0.0
C594 C 0.55424 0.51152 0.20307 0.0
H595 H 0.5551 0.45733 0.19012 0.0
H596 H 0.55814 0.4891 0.11697 0.0
S597 S 0.54588 0.52394 0.39375 0.0
N598 N 0.54624 0.49767 0.39032 0.0
N599 N 0.54949 0.53209 0.31154 0.0
C600 C 0.55111 0.51316 0.27697 0.0
C601 C 0.54948 0.49449 0.31995 0.0
C602 C 0.24188 0.8003 0.07492 0.0
C603 C 0.26255 0.79985 0.04622 0.0
C604 C 0.22385 0.79944 0.0312 0.0
C605 C 0.22571 0.79841 0.95689 0.0
H606 H 0.23957 0.80084 0.13173 0.0
H607 H 0.20828 0.79956 0.05607 0.0
S608 S 0.27619 0.79766 0.85471 0.0
N609 N 0.28383 0.79887 0.93823 0.0
N610 N 0.24988 0.79744 0.85644 0.0
C611 C 0.24625 0.79846 0.9273 0.0
C612 C 0.26466 0.7991 0.97182 0.0
C613 C 0.94359 0.49642 0.66821 0.0
C614 C 0.94505 0.4764 0.70119 0.0
C615 C 0.94496 0.51528 0.70737 0.0
C616 C 0.94771 0.51505 0.7815 0.0
H617 H 0.94155 0.49763 0.6114 0.0
H618 H 0.94366 0.53021 0.6789 0.0
S619 S 0.95247 0.46683 0.89416 0.0
N620 N 0.94942 0.45746 0.81315 0.0
N621 N 0.95191 0.49303 0.88649 0.0
C622 C 0.9491 0.49517 0.81549 0.0
C623 C 0.94783 0.47586 0.77546 0.0
C624 C 0.15883 0.25543 0.82871 0.0
C625 C 0.15339 0.27697 0.8189 0.0
C626 C 0.16142 0.2417 0.77137 0.0
C627 C 0.1585 0.24881 0.70148 0.0
H628 H 0.16095 0.24899 0.88151 0.0
H629 H 0.16502 0.22516 0.78249 0.0
S630 S 0.14557 0.30426 0.64708 0.0
N631 N 0.14653 0.30527 0.73444 0.0
N632 N 0.15096 0.27932 0.62547 0.0
C633 C 0.15396 0.2706 0.69056 0.0
C634 C 0.15152 0.28472 0.74955 0.0
C635 C 0.01571 0.90671 0.08691 0.0
C636 C 0.00453 0.9105 0.02359 0.0
C637 C 0.00507 0.90114 0.14905 0.0
C638 C 0.98272 0.89935 0.15109 0.0
H639 H 0.03297 0.90733 0.08832 0.0
H640 H 0.01457 0.89823 0.19597 0.0
S641 S 0.94571 0.90895 0.00113 0.0
N642 N 0.96967 0.91297 0.96735 0.0
N643 N 0.94957 0.9028 0.08519 0.0
C644 C 0.97118 0.90387 0.08899 0.0
C645 C 0.9821 0.9094 0.0251 0.0
C646 C 0.30896 0.74726 0.38604 0.0
C647 C 0.32 0.72793 0.39553 0.0
C648 C 0.30896 0.75777 0.32102 0.0
C649 C 0.31971 0.74927 0.26251 0.0
H650 H 0.30088 0.7549 0.42989 0.0
H651 H 0.30097 0.77301 0.31734 0.0
S652 S 0.34874 0.69778 0.25646 0.0
N653 N 0.34034 0.69968 0.33909 0.0
N654 N 0.34016 0.71946 0.21584 0.0
C655 C 0.32963 0.72926 0.26959 0.0
C656 C 0.32987 0.71861 0.33644 0.0
C657 C 0.51128 0.08163 0.61226 0.0
C658 C 0.50016 0.08643 0.67491 0.0
C659 C 0.50036 0.07671 0.54953 0.0
C660 C 0.47791 0.07611 0.54732 0.0
H661 H 0.52855 0.08198 0.61132 0.0
H662 H 0.5096 0.07381 0.50207 0.0
S663 S 0.44133 0.0854 0.69893 0.0
N664 N 0.46542 0.08889 0.73198 0.0
N665 N 0.445 0.07946 0.61479 0.0
C666 C 0.46664 0.08002 0.61042 0.0
C667 C 0.47773 0.08528 0.67394 0.0
C668 C 0.17593 0.75484 0.69053 0.0
C669 C 0.16618 0.74607 0.7506 0.0
C670 C 0.17565 0.74417 0.62581 0.0
C671 C 0.16533 0.72437 0.61811 0.0
H672 H 0.18347 0.77032 0.69291 0.0
H673 H 0.18306 0.75196 0.58092 0.0
S674 S 0.13878 0.69373 0.76104 0.0
N675 N 0.14707 0.71576 0.80011 0.0
N676 N 0.14634 0.69568 0.67752 0.0
C677 C 0.15624 0.71494 0.67848 0.0
C678 C 0.15677 0.72576 0.745 0.0
C679 C 0.47508 0.89813 0.94643 0.0
C680 C 0.48629 0.9039 0.00797 0.0
C681 C 0.48576 0.89241 0.88458 0.0
C682 C 0.50815 0.8926 0.8809 0.0
H683 H 0.45782 0.89726 0.94635 0.0
H684 H 0.47625 0.88798 0.83903 0.0
S685 S 0.54509 0.90793 0.02557 0.0
N686 N 0.5211 0.91023 0.06087 0.0
N687 N 0.54128 0.90007 0.94306 0.0
C688 C 0.51965 0.89906 0.94113 0.0
C689 C 0.5087 0.90457 0.00497 0.0
C690 C 0.3395 0.23074 0.0981 0.0
C691 C 0.33892 0.25312 0.09503 0.0
C692 C 0.33522 0.21982 0.16087 0.0
C693 C 0.33049 0.23077 0.22384 0.0
H694 H 0.34316 0.22142 0.05142 0.0
H695 H 0.33625 0.20259 0.16013 0.0
S696 S 0.3263 0.28945 0.24411 0.0
N697 N 0.33249 0.28596 0.15992 0.0
N698 N 0.32491 0.26535 0.27905 0.0
C699 C 0.32954 0.25318 0.22163 0.0
C700 C 0.33365 0.26436 0.15702 0.0
C701 C 0.01515 0.06275 0.44127 0.0
C702 C 0.00565 0.07104 0.50256 0.0
C703 C 0.00443 0.06291 0.37646 0.0
C704 C 0.98384 0.07167 0.36987 0.0
H705 H 0.03123 0.05653 0.44276 0.0
H706 H 0.01274 0.05668 0.33068 0.0
S707 S 0.95125 0.09411 0.51556 0.0
N708 N 0.97388 0.08715 0.55385 0.0
N709 N 0.95379 0.08768 0.43121 0.0
C710 C 0.97379 0.07935 0.43119 0.0
C711 C 0.98465 0.07892 0.49775 0.0
C712 C 0.83909 0.72051 0.17107 0.0
C713 C 0.83637 0.7303 0.10486 0.0
C714 C 0.83341 0.73121 0.23363 0.0
C715 C 0.82464 0.75192 0.23171 0.0
H716 H 0.84648 0.70495 0.1747 0.0
H717 H 0.83696 0.72362 0.28379 0.0
S718 S 0.81009 0.78216 0.06975 0.0
N719 N 0.82148 0.76025 0.04001 0.0
N720 N 0.8106 0.78014 0.15682 0.0
C721 C 0.82029 0.76098 0.16519 0.0
C722 C 0.82623 0.75022 0.10192 0.0
C723 C 0.00635 0.08079 0.98415 0.0
C724 C 0.98395 0.08177 0.98713 0.0
C725 C 0.01742 0.08623 0.9221 0.0
C726 C 0.00651 0.09321 0.86116 0.0
H727 H 0.01544 0.07604 0.03031 0.0
H728 H 0.03465 0.0851 0.92212 0.0
S729 S 0.94775 0.09803 0.8407 0.0
N730 N 0.95122 0.08972 0.9227 0.0
N731 N 0.97192 0.10017 0.8072 0.0
C732 C 0.98409 0.09405 0.8633 0.0
C733 C 0.97284 0.08823 0.9259 0.0
C734 C 0.64311 0.23251 0.62942 0.0
C735 C 0.64403 0.25485 0.62527 0.0
C736 C 0.6483 0.22176 0.69172 0.0
C737 C 0.65432 0.23286 0.7532 0.0
H738 H 0.6386 0.22306 0.58384 0.0
H739 H 0.64703 0.20455 0.69182 0.0
S740 S 0.6595 0.29153 0.77053 0.0
N741 N 0.65188 0.28784 0.68773 0.0
N742 N 0.6612 0.26754 0.80605 0.0
C743 C 0.65546 0.25524 0.75004 0.0
C744 C 0.6504 0.26625 0.68587 0.0
C745 C 0.48665 0.9026 0.40174 0.0
C746 C 0.46455 0.90527 0.41128 0.0
C747 C 0.50091 0.90508 0.45771 0.0
C748 C 0.49374 0.91 0.5262 0.0
H749 H 0.49315 0.89867 0.35025 0.0
H750 H 0.51768 0.90243 0.44725 0.0
S751 S 0.43755 0.9197 0.57905 0.0
N752 N 0.43617 0.91419 0.49364 0.0
N753 N 0.46307 0.9183 0.60028 0.0
C754 C 0.47172 0.91319 0.53658 0.0
C755 C 0.45712 0.91097 0.47881 0.0
C756 C 0.82425 0.22344 0.33807 0.0
C757 C 0.82293 0.2349 0.27424 0.0
C758 C 0.82899 0.2336 0.40179 0.0
C759 C 0.83237 0.25573 0.4049 0.0
H760 H 0.82252 0.20627 0.33877 0.0
H761 H 0.83022 0.22384 0.44895 0.0
S762 S 0.82837 0.29353 0.25435 0.0
N763 N 0.82377 0.26994 0.21878 0.0
N764 N 0.83235 0.28915 0.33957 0.0
C765 C 0.82991 0.26765 0.34233 0.0
C766 C 0.82523 0.25722 0.27684 0.0
C767 C 0.50499 0.07782 0.16605 0.0
C768 C 0.48286 0.08132 0.16913 0.0
C769 C 0.51506 0.07256 0.10264 0.0
C770 C 0.50352 0.07083 0.03909 0.0
H771 H 0.5148 0.07929 0.21301 0.0
H772 H 0.53223 0.07072 0.10329 0.0
S773 S 0.44487 0.07657 0.01933 0.0
N774 N 0.44936 0.08112 0.10414 0.0
N775 N 0.46841 0.07153 0.98393 0.0
C776 C 0.4812 0.07332 0.04171 0.0
C777 C 0.47086 0.07855 0.10689 0.0
C778 C 0.6351 0.74355 0.85037 0.0
C779 C 0.63947 0.72163 0.85485 0.0
C780 C 0.64027 0.75525 0.79003 0.0
C781 C 0.64965 0.74551 0.73071 0.0
H782 H 0.62805 0.75199 0.89453 0.0
H783 H 0.63642 0.77208 0.78965 0.0
S784 S 0.66409 0.68843 0.7145 0.0
N785 N 0.65389 0.69052 0.79487 0.0
N786 N 0.66296 0.71255 0.67959 0.0
C787 C 0.65394 0.72354 0.73378 0.0
C788 C 0.64903 0.7116 0.79626 0.0
C789 C 0.97029 0.90791 0.58492 0.0
C790 C 0.9815 0.91165 0.52166 0.0
C791 C 0.98097 0.9032 0.64782 0.0
C792 C 0.00336 0.9023 0.65069 0.0
H793 H 0.95302 0.90781 0.58569 0.0
H794 H 0.97145 0.90017 0.6946 0.0
S795 S 0.04039 0.91276 0.50146 0.0
N796 N 0.01639 0.91538 0.46649 0.0
N797 N 0.03654 0.9069 0.58576 0.0
C798 C 0.01489 0.90695 0.58869 0.0
C799 C 0.00395 0.91155 0.52401 0.0
C800 C 0.66135 0.75442 0.32473 0.0
C801 C 0.64389 0.76864 0.32446 0.0
C802 C 0.66612 0.74178 0.26584 0.0
C803 C 0.65406 0.7433 0.20362 0.0
H804 H 0.67088 0.75219 0.37199 0.0
H805 H 0.67896 0.73029 0.26977 0.0
S806 S 0.60805 0.77929 0.17232 0.0
N807 N 0.61535 0.78433 0.25465 0.0
N808 N 0.62475 0.76098 0.14299 0.0
C809 C 0.63742 0.75834 0.20074 0.0
C810 C 0.63222 0.7709 0.2614 0.0
C811 C 0.47061 0.39903 0.56519 0.0
C812 C 0.47505 0.41488 0.61565 0.0
C813 C 0.48085 0.39911 0.49913 0.0
C814 C 0.49581 0.41497 0.48203 0.0
H815 H 0.46017 0.38584 0.57817 0.0
H816 H 0.47814 0.38591 0.46327 0.0
S817 S 0.50951 0.46242 0.5886 0.0
N818 N 0.49273 0.44883 0.63861 0.0
N819 N 0.51223 0.44843 0.51517 0.0
C820 C 0.49904 0.43178 0.52926 0.0
C821 C 0.48853 0.43189 0.59598 0.0
C822 C 0.82941 0.2387 0.78722 0.0
C823 C 0.83073 0.26109 0.78445 0.0
C824 C 0.83419 0.22749 0.84954 0.0
C825 C 0.84078 0.23822 0.91121 0.0
H826 H 0.82497 0.2297 0.74058 0.0
H827 H 0.8329 0.21028 0.84911 0.0
S828 S 0.8459 0.29688 0.93282 0.0
N829 N 0.83833 0.29362 0.84994 0.0
N830 N 0.84752 0.27266 0.96628 0.0
C831 C 0.84182 0.26064 0.90946 0.0
C832 C 0.83669 0.27204 0.84639 0.0
C833 C 0.01927 0.6125 0.01543 0.0
C834 C 0.02093 0.59667 0.06775 0.0
C835 C 0.00849 0.60849 0.95166 0.0
C836 C -0.00143 0.58875 0.93936 0.0
H837 H 0.02562 0.62829 0.02502 0.0
H838 H 0.00662 0.62138 0.91399 0.0
S839 S -0.0013 0.54189 0.05832 0.0
N840 N 0.01252 0.56016 0.10144 0.0
N841 N 0.99168 0.55304 0.98258 0.0
C842 C 0.00076 0.57258 0.98989 0.0
C843 C 0.01214 0.57643 0.05394 0.0
C844 C 0.65403 0.23217 0.25375 0.0
C845 C 0.66863 0.24864 0.26764 0.0
C846 C 0.65388 0.22173 0.18813 0.0
C847 C 0.66846 0.22736 0.13474 0.0
H848 H 0.64178 0.22826 0.29208 0.0
H849 H 0.64162 0.20995 0.17813 0.0
S850 S 0.71273 0.2665 0.15198 0.0
N851 N 0.69976 0.26809 0.22782 0.0
N852 N 0.70006 0.24829 0.10504 0.0
C853 C 0.68433 0.24258 0.15081 0.0
C854 C 0.68424 0.25332 0.21717 0.0
C855 C 0.00671 0.39908 0.48267 0.0
C856 C 0.99202 0.4151 0.5006 0.0
C857 C 0.01706 0.39927 0.41681 0.0
C858 C 0.013 0.41554 0.36741 0.0
H859 H 0.00911 0.3856 0.51764 0.0
H860 H 0.02722 0.38596 0.40299 0.0
S861 S 0.9796 0.46361 0.3972 0.0
N862 N 0.9765 0.44921 0.46968 0.0
N863 N -0.00392 0.44995 0.34639 0.0
C864 C -0.00015 0.43267 0.38799 0.0
C865 C 0.98926 0.43233 0.45456 0.0
C866 C 0.83836 0.71987 0.66936 0.0
C867 C 0.83311 0.73075 0.73202 0.0
C868 C 0.84209 0.73081 0.60622 0.0
C869 C 0.84042 0.75312 0.60242 0.0
H870 H 0.84017 0.70271 0.66911 0.0
H871 H 0.84613 0.72153 0.5598 0.0
S872 S 0.82626 0.78921 0.75073 0.0
N873 N 0.82601 0.76516 0.78633 0.0
N874 N 0.83258 0.7858 0.6666 0.0
C875 C 0.83475 0.76427 0.66426 0.0
C876 C 0.83119 0.75308 0.72922 0.0
C877 C 0.49145 0.57941 0.97398 0.0
C878 C 0.5139 0.57868 0.97529 0.0
C879 C 0.48032 0.58403 0.91137 0.0
C880 C 0.49125 0.5884 0.848 0.0
H881 H 0.48237 0.57687 0.02202 0.0
H882 H 0.46306 0.58457 0.91297 0.0
S883 S 0.54994 0.58679 0.82142 0.0
N884 N 0.54657 0.58141 0.90615 0.0
N885 N 0.52575 0.59024 0.78918 0.0
C886 C 0.51366 0.58709 0.84806 0.0
C887 C 0.52496 0.58214 0.91145 0.0
C888 C 0.3346 0.21993 0.65444 0.0
C889 C 0.34166 0.23045 0.59291 0.0
C890 C 0.32978 0.23133 0.71638 0.0
C891 C 0.33141 0.25369 0.71845 0.0
H892 H 0.333 0.20274 0.65502 0.0
H893 H 0.32492 0.22255 0.76306 0.0
S894 S 0.34825 0.2889 0.57024 0.0
N895 N 0.34948 0.2646 0.53745 0.0
N896 N 0.34017 0.28594 0.6527 0.0
C897 C 0.33799 0.26441 0.65665 0.0
C898 C 0.34323 0.25281 0.59424 0.0
C899 C 0.47657 0.57927 0.41821 0.0
C900 C 0.48794 0.57601 0.48145 0.0
C901 C 0.48703 0.58426 0.35516 0.0
C902 C 0.50937 0.58597 0.35211 0.0
H903 H 0.45931 0.57874 0.41752 0.0
H904 H 0.47736 0.58686 0.30842 0.0
S905 S 0.54685 0.57722 0.5014 0.0
N906 N 0.52299 0.57369 0.53648 0.0
N907 N 0.54273 0.58279 0.41702 0.0
C908 C 0.5211 0.58188 0.41415 0.0
C909 C 0.51038 0.57693 0.47895 0.0
C910 C 0.15801 0.74742 0.23423 0.0
C911 C 0.15851 0.72497 0.23526 0.0
C912 C 0.15282 0.75867 0.17224 0.0
C913 C 0.14759 0.74789 0.10933 0.0
H914 H 0.16118 0.7564 0.28204 0.0
H915 H 0.15252 0.77592 0.174 0.0
S916 S 0.14818 0.68924 0.08211 0.0
N917 N 0.15458 0.69247 0.16609 0.0
N918 N 0.14465 0.71349 0.05059 0.0
C919 C 0.14862 0.72548 0.10911 0.0
C920 C 0.15417 0.71406 0.17173 0.0
C921 C 0.00277 0.38811 0.86384 0.0
C922 C 0.98065 0.39136 0.85863 0.0
C923 C 0.01389 0.39326 0.92536 0.0
C924 C 0.00337 0.40151 0.98505 0.0
H925 H 0.01179 0.38194 0.81948 0.0
H926 H 0.03091 0.3903 0.92631 0.0
S927 S 0.94553 0.41286 -0.00032 0.0
N928 N 0.94851 0.40352 0.91853 0.0
N929 N 0.96953 0.41263 0.03573 0.0
C930 C 0.98122 0.40469 0.98127 0.0
C931 C 0.96984 0.39975 0.91773 0.0
C932 C 0.33739 0.73144 0.90071 0.0
C933 C 0.33922 0.75377 0.90254 0.0
C934 C 0.33108 0.72081 0.8393 0.0
C935 C 0.32663 0.73199 0.77647 0.0
H936 H 0.3408 0.72194 0.94725 0.0
H937 H 0.33047 0.70357 0.84075 0.0
S938 S 0.32795 0.79078 0.75395 0.0
N939 N 0.33504 0.7869 0.83719 0.0
N940 N 0.32354 0.76685 0.72067 0.0
C941 C 0.32776 0.75442 0.7779 0.0
C942 C 0.33401 0.76531 0.84108 0.0
C943 C 0.96957 0.6099 0.50944 0.0
C944 C 0.96731 0.59447 0.56287 0.0
C945 C 0.98029 0.60517 0.44617 0.0
C946 C 0.98959 0.58506 0.43528 0.0
H947 H 0.96381 0.62597 0.51784 0.0
H948 H 0.9827 0.61781 0.40789 0.0
S949 S 0.98707 0.53869 0.55607 0.0
N950 N 0.97392 0.55767 0.59799 0.0
N951 N -0.00511 0.54929 0.48031 0.0
C952 C 0.98664 0.56922 0.48654 0.0
C953 C 0.97523 0.57379 0.55007 0.0
C954 C 0.1566 0.22974 0.23678 0.0
C955 C 0.14612 0.24872 0.21872 0.0
C956 C 0.15144 0.21895 0.29974 0.0
C957 C 0.13543 0.22668 0.34567 0.0
H958 H 0.16931 0.22369 0.20362 0.0
H959 H 0.16063 0.20496 0.31373 0.0
S960 S 0.10083 0.27371 0.31355 0.0
N961 N 0.1175 0.27342 0.24599 0.0
N962 N 0.10738 0.253 0.3628 0.0
C963 C 0.12386 0.2448 0.32477 0.0
C964 C 0.12935 0.25589 0.26169 0.0
C965 C 0.48312 0.3925 0.12191 0.0
C966 C 0.5055 0.39358 0.1252 0.0
C967 C 0.4721 0.39791 0.06035 0.0
C968 C 0.48294 0.40427 -0.00129 0.0
H969 H 0.47387 0.38767 0.16761 0.0
H970 H 0.45489 0.39646 0.06083 0.0
S971 S 0.54153 0.4103 0.97961 0.0
N972 N 0.5382 0.4022 0.06211 0.0
N973 N 0.51738 0.41183 0.94496 0.0
C974 C 0.50533 0.40565 0.0011 0.0
C975 C 0.51662 0.40042 0.06462 0.0
C976 C 0.13351 0.36592 0.04189 0.0
C977 C 0.1413 0.357 0.10499 0.0
C978 C 0.11863 0.38255 0.04315 0.0
C979 C 0.11058 0.39054 0.10763 0.0
H980 H 0.13788 0.35912 0.99122 0.0
H981 H 0.11203 0.38776 0.99305 0.0
S982 S 0.12893 0.37567 0.28738 0.0
N983 N 0.14248 0.35991 0.23383 0.0
N984 N 0.11397 0.39069 0.23557 0.0
C985 C 0.1198 0.38328 0.17081 0.0
C986 C 0.13532 0.36663 0.16964 0.0
C987 C 0.85136 0.86633 0.43578 0.0
C988 C 0.84386 0.85912 0.3699 0.0
C989 C 0.86687 0.88235 0.44003 0.0
C990 C 0.87579 0.89137 0.37848 0.0
H991 H 0.84606 0.85875 0.48425 0.0
H992 H 0.8731 0.88644 0.49178 0.0
S993 S 0.85957 0.88041 0.19358 0.0
N994 N 0.84468 0.86427 0.24183 0.0
N995 N 0.87432 0.89387 0.25045 0.0
C996 C 0.86731 0.88553 0.31266 0.0
C997 C 0.85118 0.86955 0.30822 0.0
C998 C 0.35648 0.62033 0.57087 0.0
C999 C 0.34915 0.62739 0.63706 0.0
C1000 C 0.37264 0.605 0.56591 0.0
C1001 C 0.3824 0.59656 0.62701 0.0
H1002 H 0.35044 0.62744 0.52257 0.0
H1003 H 0.37854 0.60095 0.51374 0.0
S1004 S 0.36712 0.60756 0.81281 0.0
N1005 N 0.35122 0.62287 0.76517 0.0
N1006 N 0.38201 0.59451 0.75529 0.0
C1007 C 0.37421 0.60232 0.69334 0.0
C1008 C 0.35744 0.61761 0.6985 0.0
C1009 C 0.63132 0.11738 0.83104 0.0
C1010 C 0.63978 0.12669 0.89292 0.0
C1011 C 0.6158 0.10138 0.83466 0.0
C1012 C 0.60854 0.09372 0.9002 0.0
H1013 H 0.63543 0.1236 0.7793 0.0
H1014 H 0.60864 0.09579 0.78588 0.0
S1015 S 0.62845 0.11015 0.0774 0.0
N1016 N 0.64174 0.1253 0.02116 0.0
N1017 N 0.61301 0.09477 0.02844 0.0
C1018 C 0.61842 0.10141 0.96231 0.0
C1019 C 0.63391 0.11804 0.95856 0.0
C1020 C 0.10956 0.60216 0.44019 0.0
C1021 C 0.10418 0.59165 0.37683 0.0
C1022 C 0.1266 0.61661 0.4428 0.0
C1023 C 0.13907 0.62082 0.3824 0.0
H1024 H 0.09944 0.60068 0.48641 0.0
H1025 H 0.12901 0.62563 0.49101 0.0
S1026 S 0.13447 0.59313 0.20876 0.0
N1027 N 0.11457 0.58354 0.25629 0.0
N1028 N 0.14711 0.60999 0.26104 0.0
C1029 C 0.1354 0.6083 0.32134 0.0
C1030 C 0.11776 0.59394 0.3185 0.0
C1031 C 0.62648 0.86038 0.54488 0.0
C1032 C 0.63697 0.85389 0.60715 0.0
C1033 C 0.61114 0.87662 0.5462 0.0
C1034 C 0.60548 0.88672 0.61002 0.0
H1035 H 0.6291 0.85196 0.4956 0.0
H1036 H 0.60242 0.88 0.49794 0.0
S1037 S 0.63114 0.87903 0.78466 0.0
N1038 N 0.64308 0.8617 0.7323 0.0
N1039 N 0.61368 0.89159 0.73433 0.0
C1040 C 0.6172 0.88191 0.67106 0.0
C1041 C 0.63315 0.86569 0.66968 0.0
C1042 C 0.36782 0.38364 0.80214 0.0
C1043 C 0.37567 0.3909 0.86746 0.0
C1044 C 0.35161 0.36832 0.79899 0.0
C1045 C 0.34299 0.3593 0.86113 0.0
H1046 H 0.37512 0.38887 0.75312 0.0
H1047 H 0.34718 0.36221 0.74741 0.0
S1048 S 0.35521 0.37551 0.0452 0.0
N1049 N 0.37122 0.3902 0.99582 0.0
N1050 N 0.34124 0.36089 0.98931 0.0
C1051 C 0.34926 0.3678 0.92651 0.0
C1052 C 0.36547 0.38375 0.92982 0.0
C1053 C 0.85683 0.12182 0.19886 0.0
C1054 C 0.84757 0.13004 0.13659 0.0
C1055 C 0.87285 0.10629 0.19598 0.0
C1056 C 0.87986 0.09807 0.13083 0.0
H1057 H 0.85281 0.12853 0.24997 0.0
H1058 H 0.88052 0.10148 0.24485 0.0
S1059 S 0.85794 0.11195 0.95339 0.0
N1060 N 0.84469 0.12729 0.00898 0.0
N1061 N 0.87424 0.0976 0.00278 0.0
C1062 C 0.86925 0.10481 0.0686 0.0
C1063 C 0.85328 0.12096 0.07165 0.0
C1064 C 0.86065 0.61927 0.9338 0.0
C1065 C 0.84955 0.62435 0.87126 0.0
C1066 C 0.87752 0.60462 0.93331 0.0
C1067 C 0.88411 0.59475 0.87005 0.0
H1068 H 0.85742 0.62783 0.9824 0.0
H1069 H 0.88665 0.60259 0.98155 0.0
S1070 S 0.85706 0.59826 0.69613 0.0
N1071 N 0.8437 0.61484 0.7474 0.0
N1072 N 0.87585 0.58789 0.74672 0.0
C1073 C 0.87164 0.59773 0.80924 0.0
C1074 C 0.85419 0.61235 0.80985 0.0
C1075 C 0.13607 0.12385 0.56523 0.0
C1076 C 0.14207 0.13442 0.62771 0.0
C1077 C 0.12172 0.10676 0.56683 0.0
C1078 C 0.11247 0.0999 0.63089 0.0
H1079 H 0.14152 0.12962 0.51426 0.0
H1080 H 0.11653 0.10013 0.51677 0.0
S1081 S 0.12571 0.11971 0.81041 0.0
N1082 N 0.14003 0.13472 0.75655 0.0
N1083 N 0.11264 0.1029 0.75907 0.0
C1084 C 0.11982 0.10901 0.69426 0.0
C1085 C 0.13474 0.12619 0.6928 0.0
C1086 C 0.61453 0.38085 0.31774 0.0
C1087 C 0.60625 0.3886 0.38192 0.0
C1088 C 0.63084 0.3656 0.31698 0.0
C1089 C 0.63915 0.35724 0.38042 0.0
H1090 H 0.60759 0.38573 0.26775 0.0
H1091 H 0.63573 0.35914 0.26635 0.0
S1092 S 0.62558 0.37464 0.56226 0.0
N1093 N 0.60977 0.38882 0.51057 0.0
N1094 N 0.64002 0.35975 0.50858 0.0
C1095 C 0.63232 0.3661 0.44468 0.0
C1096 C 0.61599 0.38192 0.44556 0.0
C1097 C 0.3546 0.86585 0.08336 0.0
C1098 C 0.34714 0.85755 0.1478 0.0
C1099 C 0.37042 0.88159 0.08195 0.0
C1100 C 0.37973 0.88921 0.14497 0.0
H1101 H 0.34904 0.85931 0.03359 0.0
H1102 H 0.37657 0.88647 0.03086 0.0
S1103 S 0.36356 0.8751 0.32769 0.0
N1104 N 0.34827 0.8602 0.27656 0.0
N1105 N 0.37848 0.88935 0.2734 0.0
C1106 C 0.3712 0.88236 0.20973 0.0
C1107 C 0.35476 0.86664 0.21128 0.0
C1108 C 0.87126 0.39077 0.67345 0.0
C1109 C 0.88047 0.39556 0.6076 0.0
C1110 C 0.85482 0.37578 0.67912 0.0
C1111 C 0.84737 0.36461 0.61927 0.0
H1112 H 0.87769 0.39766 0.72152 0.0
H1113 H 0.84931 0.37162 0.7317 0.0
S1114 S 0.8636 0.37407 0.4332 0.0
N1115 N 0.87879 0.39032 0.47996 0.0
N1116 N 0.84825 0.36166 0.49107 0.0
C1117 C 0.85504 0.37072 0.55241 0.0
C1118 C 0.87151 0.38634 0.54645 0.0
C1119 C 0.34862 0.11608 0.43383 0.0
C1120 C 0.34272 0.12347 0.36633 0.0
C1121 C 0.3638 0.09988 0.44178 0.0
C1122 C 0.37397 0.09083 0.38251 0.0
H1123 H 0.34251 0.12381 0.48092 0.0
H1124 H 0.36893 0.09583 0.49488 0.0
S1125 S 0.36154 0.10173 0.19426 0.0
N1126 N 0.34593 0.1181 0.23887 0.0
N1127 N 0.37495 0.08814 0.25445 0.0
C1128 C 0.3668 0.09661 0.31486 0.0
C1129 C 0.35101 0.1128 0.30661 0.0
C1130 C 0.6442 0.61707 0.073 0.0
C1131 C 0.64851 0.62844 0.1354 0.0
C1132 C 0.62957 0.60022 0.0726 0.0
C1133 C 0.61832 0.59446 0.13435 0.0
H1134 H 0.651 0.6222 0.02308 0.0
H1135 H 0.62563 0.59313 0.022 0.0
S1136 S 0.62731 0.61613 0.31442 0.0
N1137 N 0.64325 0.63027 0.26303 0.0
N1138 N 0.61531 0.5989 0.26172 0.0
C1139 C 0.62429 0.60408 0.19852 0.0
C1140 C 0.63951 0.62101 0.19918 0.0
C1141 C 0.11816 0.87871 0.94327 0.0
C1142 C 0.10934 0.88785 0.8817 0.0
C1143 C 0.13297 0.86207 0.93914 0.0
C1144 C 0.13987 0.85427 0.87334 0.0
H1145 H 0.11243 0.88329 0.99518 0.0
H1146 H 0.13826 0.85459 0.98779 0.0
S1147 S 0.12428 0.87534 0.69665 0.0
N1148 N 0.11037 0.88968 0.75342 0.0
N1149 N 0.13865 0.8588 0.7451 0.0
C1150 C 0.13266 0.86465 0.81146 0.0
C1151 C 0.11725 0.88133 0.81577 0.0
loop_
_geom_bond_atom_site_label_1
_geom_bond_atom_site_label_2
_geom_bond_distance
_geom_bond_site_symmetry_2
_ccdc_geom_bond_type
Mg0 O1 2.028 . S
Mg0 O7 1.986 . S
Mg0 O9 2.114 . S
Mg0 O10 2.251 . S
Mg0 O13 2.010 1_554 S
O1 Mg0 2.028 . S
O1 C4 1.250 . S
O2 Mg3 2.028 . S
O2 C4 1.248 . S
Mg3 O2 2.028 . S
Mg3 O8 2.032 . S
Mg3 O10 2.079 . S
C4 O1 1.250 . S
C4 O2 1.248 . S
C5 O6 1.264 . S
C5 O13 1.249 . S
O6 C5 1.264 . S
O7 Mg0 1.986 . S
O7 C11 1.246 . S
O8 Mg3 2.032 . S
O8 C11 1.259 . S
O9 Mg0 2.114 . S
O9 C12 1.252 . S
O10 Mg0 2.251 . S
O10 Mg3 2.079 . S
O10 C12 1.273 . S
C11 O7 1.246 . S
C11 O8 1.259 . S
C12 O9 1.252 . S
C12 O10 1.273 . S
O13 Mg0 2.010 1_556 S
O13 C5 1.249 . S
Mg14 O15 2.028 . S
Mg14 O21 1.986 . S
Mg14 O23 2.114 . S
Mg14 O24 2.251 . S
Mg14 O27 2.010 . S
O15 Mg14 2.028 . S
O15 C18 1.250 . S
O16 Mg17 2.028 . S
O16 C18 1.248 . S
Mg17 O16 2.028 . S
Mg17 O22 2.032 . S
Mg17 O24 2.079 . S
C18 O15 1.250 . S
C18 O16 1.248 . S
C19 O20 1.264 . S
C19 O27 1.249 . S
O20 C19 1.264 . S
O21 Mg14 1.986 . S
O21 C25 1.246 . S
O22 Mg17 2.032 . S
O22 C25 1.259 . S
O23 Mg14 2.114 . S
O23 C26 1.252 . S
O24 Mg14 2.251 . S
O24 Mg17 2.079 . S
O24 C26 1.273 . S
C25 O21 1.246 . S
C25 O22 1.259 . S
C26 O23 1.252 . S
C26 O24 1.273 . S
O27 Mg14 2.010 . S
O27 C19 1.249 . S
Mg28 O29 2.028 . S
Mg28 O35 1.986 . S
Mg28 O37 2.114 . S
Mg28 O38 2.251 . S
Mg28 O41 2.010 . S
O29 Mg28 2.028 . S
O29 C32 1.250 . S
O30 Mg31 2.028 . S
O30 C32 1.248 . S
Mg31 O30 2.028 . S
Mg31 O36 2.032 . S
Mg31 O38 2.079 . S
C32 O29 1.250 . S
C32 O30 1.248 . S
C33 O34 1.264 . S
C33 O41 1.249 . S
O34 C33 1.264 . S
O35 Mg28 1.986 . S
O35 C39 1.246 . S
O36 Mg31 2.032 . S
O36 C39 1.259 . S
O37 Mg28 2.114 . S
O37 C40 1.252 . S
O38 Mg28 2.251 . S
O38 Mg31 2.079 . S
O38 C40 1.273 . S
C39 O35 1.246 . S
C39 O36 1.259 . S
C40 O37 1.252 . S
C40 O38 1.273 . S
O41 Mg28 2.010 . S
O41 C33 1.249 . S
Mg42 O43 2.028 . S
Mg42 O49 1.986 . S
Mg42 O51 2.114 . S
Mg42 O52 2.251 . S
Mg42 O55 2.010 . S
O43 Mg42 2.028 . S
O43 C46 1.250 . S
O44 Mg45 2.028 . S
O44 C46 1.248 . S
Mg45 O44 2.028 . S
Mg45 O50 2.032 . S
Mg45 O52 2.079 . S
C46 O43 1.250 . S
C46 O44 1.248 . S
C47 O48 1.264 . S
C47 O55 1.249 . S
O48 C47 1.264 . S
O49 Mg42 1.986 . S
O49 C53 1.246 . S
O50 Mg45 2.032 . S
O50 C53 1.259 . S
O51 Mg42 2.114 . S
O51 C54 1.252 . S
O52 Mg42 2.251 . S
O52 Mg45 2.079 . S
O52 C54 1.273 . S
C53 O49 1.246 . S
C53 O50 1.259 . S
C54 O51 1.252 . S
C54 O52 1.273 . S
O55 Mg42 2.010 . S
O55 C47 1.249 . S
Mg56 O57 2.028 . S
Mg56 O63 1.986 . S
Mg56 O65 2.114 . S
Mg56 O66 2.251 . S
Mg56 O69 2.010 . S
O57 Mg56 2.028 . S
O57 C60 1.250 . S
O58 Mg59 2.028 . S
O58 C60 1.248 . S
Mg59 O58 2.028 . S
Mg59 O64 2.032 . S
Mg59 O66 2.079 . S
C60 O57 1.250 . S
C60 O58 1.248 . S
C61 O62 1.264 . S
C61 O69 1.249 . S
O62 C61 1.264 . S
O63 Mg56 1.986 . S
O63 C67 1.246 . S
O64 Mg59 2.032 . S
O64 C67 1.259 . S
O65 Mg56 2.114 . S
O65 C68 1.252 . S
O66 Mg56 2.251 . S
O66 Mg59 2.079 . S
O66 C68 1.273 . S
C67 O63 1.246 . S
C67 O64 1.259 . S
C68 O65 1.252 . S
C68 O66 1.273 . S
O69 Mg56 2.010 . S
O69 C61 1.249 . S
Mg70 O71 2.028 . S
Mg70 O77 1.986 . S
Mg70 O79 2.114 . S
Mg70 O80 2.251 . S
Mg70 O83 2.010 . S
O71 Mg70 2.028 . S
O71 C74 1.250 . S
O72 Mg73 2.028 . S
O72 C74 1.248 . S
Mg73 O72 2.028 . S
Mg73 O78 2.032 . S
Mg73 O80 2.079 . S
C74 O71 1.250 . S
C74 O72 1.248 . S
C75 O76 1.264 . S
C75 O83 1.249 . S
O76 C75 1.264 . S
O77 Mg70 1.986 . S
O77 C81 1.246 . S
O78 Mg73 2.032 . S
O78 C81 1.259 . S
O79 Mg70 2.114 . S
O79 C82 1.252 . S
O80 Mg70 2.251 . S
O80 Mg73 2.079 . S
O80 C82 1.273 . S
C81 O77 1.246 . S
C81 O78 1.259 . S
C82 O79 1.252 . S
C82 O80 1.273 . S
O83 Mg70 2.010 . S
O83 C75 1.249 . S
Mg84 O85 2.028 . S
Mg84 O91 1.986 . S
Mg84 O93 2.114 . S
Mg84 O94 2.251 . S
Mg84 O97 2.010 1_556 S
O85 Mg84 2.028 . S
O85 C88 1.250 . S
O86 Mg87 2.028 . S
O86 C88 1.248 . S
Mg87 O86 2.028 . S
Mg87 O92 2.032 . S
Mg87 O94 2.079 . S
C88 O85 1.250 . S
C88 O86 1.248 . S
C89 O90 1.264 . S
C89 O97 1.249 . S
O90 C89 1.264 . S
O91 Mg84 1.986 . S
O91 C95 1.246 . S
O92 Mg87 2.032 . S
O92 C95 1.259 . S
O93 Mg84 2.114 . S
O93 C96 1.252 . S
O94 Mg84 2.251 . S
O94 Mg87 2.079 . S
O94 C96 1.273 . S
C95 O91 1.246 . S
C95 O92 1.259 . S
C96 O93 1.252 . S
C96 O94 1.273 . S
O97 Mg84 2.010 1_554 S
O97 C89 1.249 . S
Mg98 O99 2.028 . S
Mg98 O105 1.986 . S
Mg98 O107 2.114 . S
Mg98 O108 2.251 . S
Mg98 O111 2.010 . S
O99 Mg98 2.028 . S
O99 C102 1.250 . S
O100 Mg101 2.028 . S
O100 C102 1.248 . S
Mg101 O100 2.028 . S
Mg101 O106 2.032 . S
Mg101 O108 2.079 . S
C102 O99 1.250 . S
C102 O100 1.248 . S
C103 O104 1.264 . S
C103 O111 1.249 . S
O104 C103 1.264 . S
O105 Mg98 1.986 . S
O105 C109 1.246 . S
O106 Mg101 2.032 . S
O106 C109 1.259 . S
O107 Mg98 2.114 . S
O107 C110 1.252 . S
O108 Mg98 2.251 . S
O108 Mg101 2.079 . S
O108 C110 1.273 . S
C109 O105 1.246 . S
C109 O106 1.259 . S
C110 O107 1.252 . S
C110 O108 1.273 . S
O111 Mg98 2.010 . S
O111 C103 1.249 . S
Mg112 O113 2.028 . S
Mg112 O119 1.986 . S
Mg112 O121 2.114 . S
Mg112 O122 2.251 . S
Mg112 O125 2.010 1_556 S
O113 Mg112 2.028 . S
O113 C116 1.250 . S
O114 Mg115 2.028 . S
O114 C116 1.248 . S
Mg115 O114 2.028 . S
Mg115 O120 2.032 . S
Mg115 O122 2.079 . S
C116 O113 1.250 . S
C116 O114 1.248 . S
C117 O118 1.264 . S
C117 O125 1.249 . S
O118 C117 1.264 . S
O119 Mg112 1.986 . S
O119 C123 1.246 . S
O120 Mg115 2.032 . S
O120 C123 1.259 . S
O121 Mg112 2.114 . S
O121 C124 1.252 . S
O122 Mg112 2.251 . S
O122 Mg115 2.079 . S
O122 C124 1.273 . S
C123 O119 1.246 . S
C123 O120 1.259 . S
C124 O121 1.252 . S
C124 O122 1.273 . S
O125 Mg112 2.010 1_554 S
O125 C117 1.249 . S
Mg126 O127 2.028 . S
Mg126 O133 1.986 . S
Mg126 O135 2.114 . S
Mg126 O136 2.251 . S
Mg126 O139 2.010 . S
O127 Mg126 2.028 . S
O127 C130 1.250 . S
O128 Mg129 2.028 . S
O128 C130 1.248 . S
Mg129 O128 2.028 . S
Mg129 O134 2.032 . S
Mg129 O136 2.079 . S
C130 O127 1.250 . S
C130 O128 1.248 . S
C131 O132 1.264 . S
C131 O139 1.249 . S
O132 C131 1.264 . S
O133 Mg126 1.986 . S
O133 C137 1.246 . S
O134 Mg129 2.032 . S
O134 C137 1.259 . S
O135 Mg126 2.114 . S
O135 C138 1.252 . S
O136 Mg126 2.251 . S
O136 Mg129 2.079 . S
O136 C138 1.273 . S
C137 O133 1.246 . S
C137 O134 1.259 . S
C138 O135 1.252 . S
C138 O136 1.273 . S
O139 Mg126 2.010 . S
O139 C131 1.249 . S
Mg140 O141 2.028 . S
Mg140 O147 1.986 . S
Mg140 O149 2.114 . S
Mg140 O150 2.251 . S
Mg140 O153 2.010 . S
O141 Mg140 2.028 . S
O141 C144 1.250 . S
O142 Mg143 2.028 . S
O142 C144 1.248 . S
Mg143 O142 2.028 . S
Mg143 O148 2.032 . S
Mg143 O150 2.079 . S
C144 O141 1.250 . S
C144 O142 1.248 . S
C145 O146 1.264 . S
C145 O153 1.249 . S
O146 C145 1.264 . S
O147 Mg140 1.986 . S
O147 C151 1.246 . S
O148 Mg143 2.032 . S
O148 C151 1.259 . S
O149 Mg140 2.114 . S
O149 C152 1.252 . S
O150 Mg140 2.251 . S
O150 Mg143 2.079 . S
O150 C152 1.273 . S
C151 O147 1.246 . S
C151 O148 1.259 . S
C152 O149 1.252 . S
C152 O150 1.273 . S
O153 Mg140 2.010 . S
O153 C145 1.249 . S
Mg154 O155 2.028 . S
Mg154 O161 1.986 . S
Mg154 O163 2.114 . S
Mg154 O164 2.251 . S
Mg154 O167 2.010 . S
O155 Mg154 2.028 . S
O155 C158 1.250 . S
O156 Mg157 2.028 . S
O156 C158 1.248 . S
Mg157 O156 2.028 . S
Mg157 O162 2.032 . S
Mg157 O164 2.079 . S
C158 O155 1.250 . S
C158 O156 1.248 . S
C159 O160 1.264 . S
C159 O167 1.249 . S
O160 C159 1.264 . S
O161 Mg154 1.986 . S
O161 C165 1.246 . S
O162 Mg157 2.032 . S
O162 C165 1.259 . S
O163 Mg154 2.114 . S
O163 C166 1.252 . S
O164 Mg154 2.251 . S
O164 Mg157 2.079 . S
O164 C166 1.273 . S
C165 O161 1.246 . S
C165 O162 1.259 . S
C166 O163 1.252 . S
C166 O164 1.273 . S
O167 Mg154 2.010 . S
O167 C159 1.249 . S
Mg168 O169 2.028 . S
Mg168 O175 1.986 . S
Mg168 O177 2.114 . S
Mg168 O178 2.251 . S
Mg168 O181 2.010 . S
O169 Mg168 2.028 . S
O169 C172 1.250 . S
O170 Mg171 2.028 . S
O170 C172 1.248 . S
Mg171 O170 2.028 . S
Mg171 O176 2.032 . S
Mg171 O178 2.079 . S
C172 O169 1.250 . S
C172 O170 1.248 . S
C173 O174 1.264 . S
C173 O181 1.249 . S
O174 C173 1.264 . S
O175 Mg168 1.986 . S
O175 C179 1.246 . S
O176 Mg171 2.032 . S
O176 C179 1.259 . S
O177 Mg168 2.114 . S
O177 C180 1.252 . S
O178 Mg168 2.251 . S
O178 Mg171 2.079 . S
O178 C180 1.273 . S
C179 O175 1.246 . S
C179 O176 1.259 . S
C180 O177 1.252 . S
C180 O178 1.273 . S
O181 Mg168 2.010 . S
O181 C173 1.249 . S
Mg182 O183 2.028 . S
Mg182 O189 1.986 . S
Mg182 O191 2.114 . S
Mg182 O192 2.251 . S
Mg182 O195 2.010 . S
O183 Mg182 2.028 . S
O183 C186 1.250 . S
O184 Mg185 2.028 . S
O184 C186 1.248 . S
Mg185 O184 2.028 . S
Mg185 O190 2.032 . S
Mg185 O192 2.079 . S
C186 O183 1.250 . S
C186 O184 1.248 . S
C187 O188 1.264 . S
C187 O195 1.249 . S
O188 C187 1.264 . S
O189 Mg182 1.986 . S
O189 C193 1.246 . S
O190 Mg185 2.032 . S
O190 C193 1.259 . S
O191 Mg182 2.114 . S
O191 C194 1.252 . S
O192 Mg182 2.251 . S
O192 Mg185 2.079 . S
O192 C194 1.273 . S
C193 O189 1.246 . S
C193 O190 1.259 . S
C194 O191 1.252 . S
C194 O192 1.273 . S
O195 Mg182 2.010 . S
O195 C187 1.249 . S
Mg196 O197 2.028 . S
Mg196 O203 1.986 . S
Mg196 O205 2.114 . S
Mg196 O206 2.251 . S
Mg196 O209 2.010 1_554 S
O197 Mg196 2.028 . S
O197 C200 1.250 . S
O198 Mg199 2.028 . S
O198 C200 1.248 . S
Mg199 O198 2.028 . S
Mg199 O204 2.032 . S
Mg199 O206 2.079 . S
C200 O197 1.250 . S
C200 O198 1.248 . S
C201 O202 1.264 . S
C201 O209 1.249 . S
O202 C201 1.264 . S
O203 Mg196 1.986 . S
O203 C207 1.246 . S
O204 Mg199 2.032 . S
O204 C207 1.259 . S
O205 Mg196 2.114 . S
O205 C208 1.252 . S
O206 Mg196 2.251 . S
O206 Mg199 2.079 . S
O206 C208 1.273 . S
C207 O203 1.246 . S
C207 O204 1.259 . S
C208 O205 1.252 . S
C208 O206 1.273 . S
O209 Mg196 2.010 1_556 S
O209 C201 1.249 . S
Mg210 O211 2.028 . S
Mg210 O217 1.986 . S
Mg210 O219 2.114 . S
Mg210 O220 2.251 . S
Mg210 O223 2.010 . S
O211 Mg210 2.028 . S
O211 C214 1.250 . S
O212 Mg213 2.028 . S
O212 C214 1.248 . S
Mg213 O212 2.028 . S
Mg213 O218 2.032 . S
Mg213 O220 2.079 . S
C214 O211 1.250 . S
C214 O212 1.248 . S
C215 O216 1.264 . S
C215 O223 1.249 . S
O216 C215 1.264 . S
O217 Mg210 1.986 . S
O217 C221 1.246 . S
O218 Mg213 2.032 . S
O218 C221 1.259 . S
O219 Mg210 2.114 . S
O219 C222 1.252 . S
O220 Mg210 2.251 . S
O220 Mg213 2.079 . S
O220 C222 1.273 . S
C221 O217 1.246 . S
C221 O218 1.259 . S
C222 O219 1.252 . S
C222 O220 1.273 . S
O223 Mg210 2.010 . S
O223 C215 1.249 . S
Mg224 O225 2.028 . S
Mg224 O231 1.986 . S
Mg224 O233 2.114 . S
Mg224 O234 2.251 . S
Mg224 O237 2.010 . S
O225 Mg224 2.028 . S
O225 C228 1.250 . S
O226 Mg227 2.028 . S
O226 C228 1.248 . S
Mg227 O226 2.028 . S
Mg227 O232 2.032 . S
Mg227 O234 2.079 . S
C228 O225 1.250 . S
C228 O226 1.248 . S
C229 O230 1.264 . S
C229 O237 1.249 . S
O230 C229 1.264 . S
O231 Mg224 1.986 . S
O231 C235 1.246 . S
O232 Mg227 2.032 . S
O232 C235 1.259 . S
O233 Mg224 2.114 . S
O233 C236 1.252 . S
O234 Mg224 2.251 . S
O234 Mg227 2.079 . S
O234 C236 1.273 . S
C235 O231 1.246 . S
C235 O232 1.259 . S
C236 O233 1.252 . S
C236 O234 1.273 . S
O237 Mg224 2.010 . S
O237 C229 1.249 . S
Mg238 O239 2.028 . S
Mg238 O245 1.986 . S
Mg238 O247 2.114 . S
Mg238 O248 2.251 . S
Mg238 O251 2.010 . S
O239 Mg238 2.028 . S
O239 C242 1.250 . S
O240 Mg241 2.028 . S
O240 C242 1.248 . S
Mg241 O240 2.028 . S
Mg241 O246 2.032 . S
Mg241 O248 2.079 . S
C242 O239 1.250 . S
C242 O240 1.248 . S
C243 O244 1.264 . S
C243 O251 1.249 . S
O244 C243 1.264 . S
O245 Mg238 1.986 . S
O245 C249 1.246 . S
O246 Mg241 2.032 . S
O246 C249 1.259 . S
O247 Mg238 2.114 . S
O247 C250 1.252 . S
O248 Mg238 2.251 . S
O248 Mg241 2.079 . S
O248 C250 1.273 . S
C249 O245 1.246 . S
C249 O246 1.259 . S
C250 O247 1.252 . S
C250 O248 1.273 . S
O251 Mg238 2.010 . S
O251 C243 1.249 . S
Mg252 O253 2.028 . S
Mg252 O259 1.986 . S
Mg252 O261 2.114 . S
Mg252 O262 2.251 . S
Mg252 O265 2.010 1_554 S
O253 Mg252 2.028 . S
O253 C256 1.250 . S
O254 Mg255 2.028 . S
O254 C256 1.248 . S
Mg255 O254 2.028 . S
Mg255 O260 2.032 . S
Mg255 O262 2.079 . S
C256 O253 1.250 . S
C256 O254 1.248 . S
C257 O258 1.264 . S
C257 O265 1.249 . S
O258 C257 1.264 . S
O259 Mg252 1.986 . S
O259 C263 1.246 . S
O260 Mg255 2.032 . S
O260 C263 1.259 . S
O261 Mg252 2.114 . S
O261 C264 1.252 . S
O262 Mg252 2.251 . S
O262 Mg255 2.079 . S
O262 C264 1.273 . S
C263 O259 1.246 . S
C263 O260 1.259 . S
C264 O261 1.252 . S
C264 O262 1.273 . S
O265 Mg252 2.010 1_556 S
O265 C257 1.249 . S
Mg266 O267 2.028 . S
Mg266 O273 1.986 . S
Mg266 O275 2.114 . S
Mg266 O276 2.251 . S
Mg266 O279 2.010 . S
O267 Mg266 2.028 . S
O267 C270 1.250 . S
O268 Mg269 2.028 . S
O268 C270 1.248 . S
Mg269 O268 2.028 . S
Mg269 O274 2.032 . S
Mg269 O276 2.079 . S
C270 O267 1.250 . S
C270 O268 1.248 . S
C271 O272 1.264 . S
C271 O279 1.249 . S
O272 C271 1.264 . S
O273 Mg266 1.986 . S
O273 C277 1.246 . S
O274 Mg269 2.032 . S
O274 C277 1.259 . S
O275 Mg266 2.114 . S
O275 C278 1.252 . S
O276 Mg266 2.251 . S
O276 Mg269 2.079 . S
O276 C278 1.273 . S
C277 O273 1.246 . S
C277 O274 1.259 . S
C278 O275 1.252 . S
C278 O276 1.273 . S
O279 Mg266 2.010 . S
O279 C271 1.249 . S
Mg280 O281 2.028 . S
Mg280 O287 1.986 . S
Mg280 O289 2.114 . S
Mg280 O290 2.251 . S
Mg280 O293 2.010 1_556 S
O281 Mg280 2.028 . S
O281 C284 1.250 . S
O282 Mg283 2.028 . S
O282 C284 1.248 . S
Mg283 O282 2.028 . S
Mg283 O288 2.032 . S
Mg283 O290 2.079 . S
C284 O281 1.250 . S
C284 O282 1.248 . S
C285 O286 1.264 . S
C285 O293 1.249 . S
O286 C285 1.264 . S
O287 Mg280 1.986 . S
O287 C291 1.246 . S
O288 Mg283 2.032 . S
O288 C291 1.259 . S
O289 Mg280 2.114 . S
O289 C292 1.252 . S
O290 Mg280 2.251 . S
O290 Mg283 2.079 . S
O290 C292 1.273 . S
C291 O287 1.246 . S
C291 O288 1.259 . S
C292 O289 1.252 . S
C292 O290 1.273 . S
O293 Mg280 2.010 1_554 S
O293 C285 1.249 . S
Mg294 O295 2.028 . S
Mg294 O301 1.986 . S
Mg294 O303 2.114 . S
Mg294 O304 2.251 . S
Mg294 O307 2.010 . S
O295 Mg294 2.028 . S
O295 C298 1.250 . S
O296 Mg297 2.028 . S
O296 C298 1.248 . S
Mg297 O296 2.028 . S
Mg297 O302 2.032 . S
Mg297 O304 2.079 . S
C298 O295 1.250 . S
C298 O296 1.248 . S
C299 O300 1.264 . S
C299 O307 1.249 . S
O300 C299 1.264 . S
O301 Mg294 1.986 . S
O301 C305 1.246 . S
O302 Mg297 2.032 . S
O302 C305 1.259 . S
O303 Mg294 2.114 . S
O303 C306 1.252 . S
O304 Mg294 2.251 . S
O304 Mg297 2.079 . S
O304 C306 1.273 . S
C305 O301 1.246 . S
C305 O302 1.259 . S
C306 O303 1.252 . S
C306 O304 1.273 . S
O307 Mg294 2.010 . S
O307 C299 1.249 . S
Mg308 O309 2.028 . S
Mg308 O315 1.986 . S
Mg308 O317 2.114 . S
Mg308 O318 2.251 . S
Mg308 O321 2.010 . S
O309 Mg308 2.028 . S
O309 C312 1.250 . S
O310 Mg311 2.028 . S
O310 C312 1.248 . S
Mg311 O310 2.028 . S
Mg311 O316 2.032 . S
Mg311 O318 2.079 . S
C312 O309 1.250 . S
C312 O310 1.248 . S
C313 O314 1.264 . S
C313 O321 1.249 . S
O314 C313 1.264 . S
O315 Mg308 1.986 . S
O315 C319 1.246 . S
O316 Mg311 2.032 . S
O316 C319 1.259 . S
O317 Mg308 2.114 . S
O317 C320 1.252 . S
O318 Mg308 2.251 . S
O318 Mg311 2.079 . S
O318 C320 1.273 . S
C319 O315 1.246 . S
C319 O316 1.259 . S
C320 O317 1.252 . S
C320 O318 1.273 . S
O321 Mg308 2.010 . S
O321 C313 1.249 . S
Mg322 O323 2.028 . S
Mg322 O329 1.986 . S
Mg322 O331 2.114 . S
Mg322 O332 2.251 . S
Mg322 O335 2.010 . S
O323 Mg322 2.028 . S
O323 C326 1.250 . S
O324 Mg325 2.028 . S
O324 C326 1.248 . S
Mg325 O324 2.028 . S
Mg325 O330 2.032 . S
Mg325 O332 2.079 . S
C326 O323 1.250 . S
C326 O324 1.248 . S
C327 O328 1.264 . S
C327 O335 1.249 . S
O328 C327 1.264 . S
O329 Mg322 1.986 . S
O329 C333 1.246 . S
O330 Mg325 2.032 . S
O330 C333 1.259 . S
O331 Mg322 2.114 . S
O331 C334 1.252 . S
O332 Mg322 2.251 . S
O332 Mg325 2.079 . S
O332 C334 1.273 . S
C333 O329 1.246 . S
C333 O330 1.259 . S
C334 O331 1.252 . S
C334 O332 1.273 . S
O335 Mg322 2.010 . S
O335 C327 1.249 . S
Mg336 O337 2.028 . S
Mg336 O343 1.986 . S
Mg336 O345 2.114 . S
Mg336 O346 2.251 . S
Mg336 O349 2.010 . S
O337 Mg336 2.028 . S
O337 C340 1.250 . S
O338 Mg339 2.028 . S
O338 C340 1.248 . S
Mg339 O338 2.028 . S
Mg339 O344 2.032 . S
Mg339 O346 2.079 . S
C340 O337 1.250 . S
C340 O338 1.248 . S
C341 O342 1.264 . S
C341 O349 1.249 . S
O342 C341 1.264 . S
O343 Mg336 1.986 . S
O343 C347 1.246 . S
O344 Mg339 2.032 . S
O344 C347 1.259 . S
O345 Mg336 2.114 . S
O345 C348 1.252 . S
O346 Mg336 2.251 . S
O346 Mg339 2.079 . S
O346 C348 1.273 . S
C347 O343 1.246 . S
C347 O344 1.259 . S
C348 O345 1.252 . S
C348 O346 1.273 . S
O349 Mg336 2.010 . S
O349 C341 1.249 . S
Mg350 O351 2.028 . S
Mg350 O357 1.986 . S
Mg350 O359 2.114 . S
Mg350 O360 2.251 . S
Mg350 O363 2.010 . S
O351 Mg350 2.028 . S
O351 C354 1.250 . S
O352 Mg353 2.028 . S
O352 C354 1.248 . S
Mg353 O352 2.028 . S
Mg353 O358 2.032 . S
Mg353 O360 2.079 . S
C354 O351 1.250 . S
C354 O352 1.248 . S
C355 O356 1.264 . S
C355 O363 1.249 . S
O356 C355 1.264 . S
O357 Mg350 1.986 . S
O357 C361 1.246 . S
O358 Mg353 2.032 . S
O358 C361 1.259 . S
O359 Mg350 2.114 . S
O359 C362 1.252 . S
O360 Mg350 2.251 . S
O360 Mg353 2.079 . S
O360 C362 1.273 . S
C361 O357 1.246 . S
C361 O358 1.259 . S
C362 O359 1.252 . S
C362 O360 1.273 . S
O363 Mg350 2.010 . S
O363 C355 1.249 . S
Mg364 O365 2.028 . S
Mg364 O371 1.986 . S
Mg364 O373 2.114 . S
Mg364 O374 2.251 . S
Mg364 O377 2.010 1_556 S
O365 Mg364 2.028 . S
O365 C368 1.250 . S
O366 Mg367 2.028 . S
O366 C368 1.248 . S
Mg367 O366 2.028 . S
Mg367 O372 2.032 . S
Mg367 O374 2.079 . S
C368 O365 1.250 . S
C368 O366 1.248 . S
C369 O370 1.264 . S
C369 O377 1.249 . S
O370 C369 1.264 . S
O371 Mg364 1.986 . S
O371 C375 1.246 . S
O372 Mg367 2.032 . S
O372 C375 1.259 . S
O373 Mg364 2.114 . S
O373 C376 1.252 . S
O374 Mg364 2.251 . S
O374 Mg367 2.079 . S
O374 C376 1.273 . S
C375 O371 1.246 . S
C375 O372 1.259 . S
C376 O373 1.252 . S
C376 O374 1.273 . S
O377 Mg364 2.010 1_554 S
O377 C369 1.249 . S
Mg378 O379 2.028 . S
Mg378 O385 1.986 . S
Mg378 O387 2.114 . S
Mg378 O388 2.251 . S
Mg378 O391 2.010 . S
O379 Mg378 2.028 . S
O379 C382 1.250 . S
O380 Mg381 2.028 . S
O380 C382 1.248 . S
Mg381 O380 2.028 . S
Mg381 O386 2.032 . S
Mg381 O388 2.079 . S
C382 O379 1.250 . S
C382 O380 1.248 . S
C383 O384 1.264 . S
C383 O391 1.249 . S
O384 C383 1.264 . S
O385 Mg378 1.986 . S
O385 C389 1.246 . S
O386 Mg381 2.032 . S
O386 C389 1.259 . S
O387 Mg378 2.114 . S
O387 C390 1.252 . S
O388 Mg378 2.251 . S
O388 Mg381 2.079 . S
O388 C390 1.273 . S
C389 O385 1.246 . S
C389 O386 1.259 . S
C390 O387 1.252 . S
C390 O388 1.273 . S
O391 Mg378 2.010 . S
O391 C383 1.249 . S
Mg392 O393 2.028 . S
Mg392 O399 1.986 . S
Mg392 O401 2.114 . S
Mg392 O402 2.251 . S
Mg392 O405 2.010 1_554 S
O393 Mg392 2.028 . S
O393 C396 1.250 . S
O394 Mg395 2.028 . S
O394 C396 1.248 . S
Mg395 O394 2.028 . S
Mg395 O400 2.032 . S
Mg395 O402 2.079 . S
C396 O393 1.250 . S
C396 O394 1.248 . S
C397 O398 1.264 . S
C397 O405 1.249 . S
O398 C397 1.264 . S
O399 Mg392 1.986 . S
O399 C403 1.246 . S
O400 Mg395 2.032 . S
O400 C403 1.259 . S
O401 Mg392 2.114 . S
O401 C404 1.252 . S
O402 Mg392 2.251 . S
O402 Mg395 2.079 . S
O402 C404 1.273 . S
C403 O399 1.246 . S
C403 O400 1.259 . S
C404 O401 1.252 . S
C404 O402 1.273 . S
O405 Mg392 2.010 1_556 S
O405 C397 1.249 . S
Mg406 O407 2.028 . S
Mg406 O413 1.986 . S
Mg406 O415 2.114 . S
Mg406 O416 2.251 . S
Mg406 O419 2.010 . S
O407 Mg406 2.028 . S
O407 C410 1.250 . S
O408 Mg409 2.028 . S
O408 C410 1.248 . S
Mg409 O408 2.028 . S
Mg409 O414 2.032 . S
Mg409 O416 2.079 . S
C410 O407 1.250 . S
C410 O408 1.248 . S
C411 O412 1.264 . S
C411 O419 1.249 . S
O412 C411 1.264 . S
O413 Mg406 1.986 . S
O413 C417 1.246 . S
O414 Mg409 2.032 . S
O414 C417 1.259 . S
O415 Mg406 2.114 . S
O415 C418 1.252 . S
O416 Mg406 2.251 . S
O416 Mg409 2.079 . S
O416 C418 1.273 . S
C417 O413 1.246 . S
C417 O414 1.259 . S
C418 O415 1.252 . S
C418 O416 1.273 . S
O419 Mg406 2.010 . S
O419 C411 1.249 . S
Mg420 O421 2.028 . S
Mg420 O427 1.986 . S
Mg420 O429 2.114 . S
Mg420 O430 2.251 . S
Mg420 O433 2.010 . S
O421 Mg420 2.028 . S
O421 C424 1.250 . S
O422 Mg423 2.028 . S
O422 C424 1.248 . S
Mg423 O422 2.028 . S
Mg423 O428 2.032 . S
Mg423 O430 2.079 . S
C424 O421 1.250 . S
C424 O422 1.248 . S
C425 O426 1.264 . S
C425 O433 1.249 . S
O426 C425 1.264 . S
O427 Mg420 1.986 . S
O427 C431 1.246 . S
O428 Mg423 2.032 . S
O428 C431 1.259 . S
O429 Mg420 2.114 . S
O429 C432 1.252 . S
O430 Mg420 2.251 . S
O430 Mg423 2.079 . S
O430 C432 1.273 . S
C431 O427 1.246 . S
C431 O428 1.259 . S
C432 O429 1.252 . S
C432 O430 1.273 . S
O433 Mg420 2.010 . S
O433 C425 1.249 . S
Mg434 O435 2.028 . S
Mg434 O441 1.986 . S
Mg434 O443 2.114 . S
Mg434 O444 2.251 . S
Mg434 O447 2.010 . S
O435 Mg434 2.028 . S
O435 C438 1.250 . S
O436 Mg437 2.028 . S
O436 C438 1.248 . S
Mg437 O436 2.028 . S
Mg437 O442 2.032 . S
Mg437 O444 2.079 . S
C438 O435 1.250 . S
C438 O436 1.248 . S
C439 O440 1.264 . S
C439 O447 1.249 . S
O440 C439 1.264 . S
O441 Mg434 1.986 . S
O441 C445 1.246 . S
O442 Mg437 2.032 . S
O442 C445 1.259 . S
O443 Mg434 2.114 . S
O443 C446 1.252 . S
O444 Mg434 2.251 . S
O444 Mg437 2.079 . S
O444 C446 1.273 . S
C445 O441 1.246 . S
C445 O442 1.259 . S
C446 O443 1.252 . S
C446 O444 1.273 . S
O447 Mg434 2.010 . S
O447 C439 1.249 . S
C448 C449 1.369 1_554 S
C448 C450 1.419 . S
C448 H452 0.930 . S
C449 C448 1.369 1_556 S
C449 C458 1.429 . S
C450 C448 1.419 . S
C450 C451 1.363 . S
C450 H453 0.929 . S
C451 C450 1.363 . S
C451 C457 1.428 1_554 S
H452 C448 0.930 . S
H453 C450 0.929 . S
S454 N455 1.613 . S
S454 N456 1.610 . S
N455 S454 1.613 . S
N455 C458 1.350 . S
N456 S454 1.610 . S
N456 C457 1.351 . S
C457 C451 1.428 1_556 S
C457 N456 1.351 . S
C457 C458 1.434 . S
C458 C449 1.429 . S
C458 N455 1.350 . S
C458 C457 1.434 . S
C459 C460 1.369 . S
C459 C461 1.419 1_565 S
C459 H463 0.930 . S
C460 C459 1.369 . S
C460 C469 1.429 . S
C461 C459 1.419 1_545 S
C461 C462 1.363 . S
C461 H464 0.929 . S
C462 C461 1.363 . S
C462 C468 1.428 . S
H463 C459 0.930 . S
H464 C461 0.929 . S
S465 N466 1.613 . S
S465 N467 1.610 1_565 S
N466 S465 1.613 . S
N466 C469 1.350 . S
N467 S465 1.610 1_545 S
N467 C468 1.351 . S
C468 C462 1.428 . S
C468 N467 1.351 . S
C468 C469 1.434 1_545 S
C469 C460 1.429 . S
C469 N466 1.350 . S
C469 C468 1.434 1_565 S
C470 C471 1.369 . S
C470 C472 1.419 . S
C470 H474 0.930 . S
C471 C470 1.369 . S
C471 C480 1.429 . S
C472 C470 1.419 . S
C472 C473 1.363 . S
C472 H475 0.929 . S
C473 C472 1.363 . S
C473 C479 1.428 . S
H474 C470 0.930 . S
H475 C472 0.929 . S
S476 N477 1.613 . S
S476 N478 1.610 . S
N477 S476 1.613 . S
N477 C480 1.350 . S
N478 S476 1.610 . S
N478 C479 1.351 . S
C479 C473 1.428 . S
C479 N478 1.351 . S
C479 C480 1.434 . S
C480 C471 1.429 . S
C480 N477 1.350 . S
C480 C479 1.434 . S
C481 C482 1.369 . S
C481 C483 1.419 1_545 S
C481 H485 0.930 . S
C482 C481 1.369 . S
C482 C491 1.429 . S
C483 C481 1.419 1_565 S
C483 C484 1.363 . S
C483 H486 0.929 . S
C484 C483 1.363 . S
C484 C490 1.428 . S
H485 C481 0.930 . S
H486 C483 0.929 . S
S487 N488 1.613 . S
S487 N489 1.610 1_545 S
N488 S487 1.613 . S
N488 C491 1.350 . S
N489 S487 1.610 1_565 S
N489 C490 1.351 . S
C490 C484 1.428 . S
C490 N489 1.351 . S
C490 C491 1.434 1_565 S
C491 C482 1.429 . S
C491 N488 1.350 . S
C491 C490 1.434 1_545 S
C492 C493 1.369 . S
C492 C494 1.419 . S
C492 H496 0.930 . S
C493 C492 1.369 . S
C493 C502 1.429 1_554 S
C494 C492 1.419 . S
C494 C495 1.363 1_554 S
C494 H497 0.929 . S
C495 C494 1.363 1_556 S
C495 C501 1.428 . S
H496 C492 0.930 . S
H497 C494 0.929 . S
S498 N499 1.613 . S
S498 N500 1.610 . S
N499 S498 1.613 . S
N499 C502 1.350 . S
N500 S498 1.610 . S
N500 C501 1.351 . S
C501 C495 1.428 . S
C501 N500 1.351 . S
C501 C502 1.434 . S
C502 C493 1.429 1_556 S
C502 N499 1.350 . S
C502 C501 1.434 . S
C503 C504 1.369 . S
C503 C505 1.419 1_565 S
C503 H507 0.930 . S
C504 C503 1.369 . S
C504 C513 1.429 . S
C505 C503 1.419 1_545 S
C505 C506 1.363 . S
C505 H508 0.929 . S
C506 C505 1.363 . S
C506 C512 1.428 . S
H507 C503 0.930 . S
H508 C505 0.929 . S
S509 N510 1.613 1_545 S
S509 N511 1.610 . S
N510 S509 1.613 1_565 S
N510 C513 1.350 . S
N511 S509 1.610 . S
N511 C512 1.351 . S
C512 C506 1.428 . S
C512 N511 1.351 . S
C512 C513 1.434 1_545 S
C513 C504 1.429 . S
C513 N510 1.350 . S
C513 C512 1.434 1_565 S
C514 C515 1.369 . S
C514 C516 1.419 . S
C514 H518 0.930 . S
C515 C514 1.369 . S
C515 C524 1.429 . S
C516 C514 1.419 . S
C516 C517 1.363 . S
C516 H519 0.929 . S
C517 C516 1.363 . S
C517 C523 1.428 . S
H518 C514 0.930 . S
H519 C516 0.929 . S
S520 N521 1.613 . S
S520 N522 1.610 . S
N521 S520 1.613 . S
N521 C524 1.350 . S
N522 S520 1.610 . S
N522 C523 1.351 . S
C523 C517 1.428 . S
C523 N522 1.351 . S
C523 C524 1.434 . S
C524 C515 1.429 . S
C524 N521 1.350 . S
C524 C523 1.434 . S
C525 C526 1.369 . S
C525 C527 1.419 1_565 S
C525 H529 0.930 . S
C526 C525 1.369 . S
C526 C535 1.429 . S
C527 C525 1.419 1_545 S
C527 C528 1.363 . S
C527 H530 0.929 . S
C528 C527 1.363 . S
C528 C534 1.428 . S
H529 C525 0.930 . S
H530 C527 0.929 . S
S531 N532 1.613 1_545 S
S531 N533 1.610 . S
N532 S531 1.613 1_565 S
N532 C535 1.350 . S
N533 S531 1.610 . S
N533 C534 1.351 . S
C534 C528 1.428 . S
C534 N533 1.351 . S
C534 C535 1.434 1_545 S
C535 C526 1.429 . S
C535 N532 1.350 . S
C535 C534 1.434 1_565 S
C536 C537 1.369 . S
C536 C538 1.419 . S
C536 H540 0.930 . S
C537 C536 1.369 . S
C537 C546 1.429 . S
C538 C536 1.419 . S
C538 C539 1.363 . S
C538 H541 0.929 . S
C539 C538 1.363 . S
C539 C545 1.428 . S
H540 C536 0.930 . S
H541 C538 0.929 . S
S542 N543 1.613 . S
S542 N544 1.610 . S
N543 S542 1.613 . S
N543 C546 1.350 . S
N544 S542 1.610 . S
N544 C545 1.351 . S
C545 C539 1.428 . S
C545 N544 1.351 . S
C545 C546 1.434 . S
C546 C537 1.429 . S
C546 N543 1.350 . S
C546 C545 1.434 . S
C547 C548 1.369 . S
C547 C549 1.419 . S
C547 H551 0.930 . S
C548 C547 1.369 . S
C548 C557 1.429 . S
C549 C547 1.419 . S
C549 C550 1.363 . S
C549 H552 0.929 . S
C550 C549 1.363 . S
C550 C556 1.428 . S
H551 C547 0.930 . S
H552 C549 0.929 . S
S553 N554 1.613 . S
S553 N555 1.610 . S
N554 S553 1.613 . S
N554 C557 1.350 . S
N555 S553 1.610 . S
N555 C556 1.351 . S
C556 C550 1.428 . S
C556 N555 1.351 . S
C556 C557 1.434 . S
C557 C548 1.429 . S
C557 N554 1.350 . S
C557 C556 1.434 . S
C558 C559 1.369 1_554 S
C558 C560 1.419 . S
C558 H562 0.930 . S
C559 C558 1.369 1_556 S
C559 C568 1.429 . S
C560 C558 1.419 . S
C560 C561 1.363 . S
C560 H563 0.929 . S
C561 C560 1.363 . S
C561 C567 1.428 1_554 S
H562 C558 0.930 . S
H563 C560 0.929 . S
S564 N565 1.613 . S
S564 N566 1.610 . S
N565 S564 1.613 . S
N565 C568 1.350 . S
N566 S564 1.610 . S
N566 C567 1.351 . S
C567 C561 1.428 1_556 S
C567 N566 1.351 . S
C567 C568 1.434 . S
C568 C559 1.429 . S
C568 N565 1.350 . S
C568 C567 1.434 . S
C569 C570 1.369 . S
C569 C571 1.419 . S
C569 H573 0.930 . S
C570 C569 1.369 . S
C570 C579 1.429 . S
C571 C569 1.419 . S
C571 C572 1.363 . S
C571 H574 0.929 . S
C572 C571 1.363 . S
C572 C578 1.428 . S
H573 C569 0.930 . S
H574 C571 0.929 . S
S575 N576 1.613 . S
S575 N577 1.610 . S
N576 S575 1.613 . S
N576 C579 1.350 . S
N577 S575 1.610 . S
N577 C578 1.351 . S
C578 C572 1.428 . S
C578 N577 1.351 . S
C578 C579 1.434 . S
C579 C570 1.429 . S
C579 N576 1.350 . S
C579 C578 1.434 . S
C580 C581 1.369 . S
C580 C582 1.419 . S
C580 H584 0.930 . S
C581 C580 1.369 . S
C581 C590 1.429 . S
C582 C580 1.419 . S
C582 C583 1.363 . S
C582 H585 0.929 . S
C583 C582 1.363 . S
C583 C589 1.428 . S
H584 C580 0.930 . S
H585 C582 0.929 . S
S586 N587 1.613 . S
S586 N588 1.610 . S
N587 S586 1.613 . S
N587 C590 1.350 . S
N588 S586 1.610 . S
N588 C589 1.351 . S
C589 C583 1.428 . S
C589 N588 1.351 . S
C589 C590 1.434 . S
C590 C581 1.429 . S
C590 N587 1.350 . S
C590 C589 1.434 . S
C591 C592 1.369 . S
C591 C593 1.419 . S
C591 H595 0.930 . S
C592 C591 1.369 . S
C592 C601 1.429 . S
C593 C591 1.419 . S
C593 C594 1.363 . S
C593 H596 0.929 . S
C594 C593 1.363 . S
C594 C600 1.428 . S
H595 C591 0.930 . S
H596 C593 0.929 . S
S597 N598 1.613 . S
S597 N599 1.610 . S
N598 S597 1.613 . S
N598 C601 1.350 . S
N599 S597 1.610 . S
N599 C600 1.351 . S
C600 C594 1.428 . S
C600 N599 1.351 . S
C600 C601 1.434 . S
C601 C592 1.429 . S
C601 N598 1.350 . S
C601 C600 1.434 . S
C602 C603 1.369 . S
C602 C604 1.419 . S
C602 H606 0.930 . S
C603 C602 1.369 . S
C603 C612 1.429 1_554 S
C604 C602 1.419 . S
C604 C605 1.363 1_554 S
C604 H607 0.929 . S
C605 C604 1.363 1_556 S
C605 C611 1.428 . S
H606 C602 0.930 . S
H607 C604 0.929 . S
S608 N609 1.613 . S
S608 N610 1.610 . S
N609 S608 1.613 . S
N609 C612 1.350 . S
N610 S608 1.610 . S
N610 C611 1.351 . S
C611 C605 1.428 . S
C611 N610 1.351 . S
C611 C612 1.434 . S
C612 C603 1.429 1_556 S
C612 N609 1.350 . S
C612 C611 1.434 . S
C613 C614 1.369 . S
C613 C615 1.419 . S
C613 H617 0.930 . S
C614 C613 1.369 . S
C614 C623 1.429 . S
C615 C613 1.419 . S
C615 C616 1.363 . S
C615 H618 0.929 . S
C616 C615 1.363 . S
C616 C622 1.428 . S
H617 C613 0.930 . S
H618 C615 0.929 . S
S619 N620 1.613 . S
S619 N621 1.610 . S
N620 S619 1.613 . S
N620 C623 1.350 . S
N621 S619 1.610 . S
N621 C622 1.351 . S
C622 C616 1.428 . S
C622 N621 1.351 . S
C622 C623 1.434 . S
C623 C614 1.429 . S
C623 N620 1.350 . S
C623 C622 1.434 . S
C624 C625 1.369 . S
C624 C626 1.419 . S
C624 H628 0.930 . S
C625 C624 1.369 . S
C625 C634 1.429 . S
C626 C624 1.419 . S
C626 C627 1.363 . S
C626 H629 0.929 . S
C627 C626 1.363 . S
C627 C633 1.428 . S
H628 C624 0.930 . S
H629 C626 0.929 . S
S630 N631 1.613 . S
S630 N632 1.610 . S
N631 S630 1.613 . S
N631 C634 1.350 . S
N632 S630 1.610 . S
N632 C633 1.351 . S
C633 C627 1.428 . S
C633 N632 1.351 . S
C633 C634 1.434 . S
C634 C625 1.429 . S
C634 N631 1.350 . S
C634 C633 1.434 . S
C635 C636 1.369 1_554 S
C635 C637 1.419 . S
C635 H639 0.930 . S
C636 C635 1.369 1_556 S
C636 C645 1.429 1_455 S
C637 C635 1.419 . S
C637 C638 1.363 1_455 S
C637 H640 0.929 . S
C638 C637 1.363 1_655 S
C638 C644 1.428 . S
H639 C635 0.930 . S
H640 C637 0.929 . S
S641 N642 1.613 . S
S641 N643 1.610 1_556 S
N642 S641 1.613 . S
N642 C645 1.350 . S
N643 S641 1.610 1_554 S
N643 C644 1.351 . S
C644 C638 1.428 . S
C644 N643 1.351 . S
C644 C645 1.434 1_554 S
C645 C636 1.429 1_655 S
C645 N642 1.350 . S
C645 C644 1.434 1_556 S
C646 C647 1.369 . S
C646 C648 1.419 . S
C646 H650 0.930 . S
C647 C646 1.369 . S
C647 C656 1.429 . S
C648 C646 1.419 . S
C648 C649 1.363 . S
C648 H651 0.929 . S
C649 C648 1.363 . S
C649 C655 1.428 . S
H650 C646 0.930 . S
H651 C648 0.929 . S
S652 N653 1.613 . S
S652 N654 1.610 . S
N653 S652 1.613 . S
N653 C656 1.350 . S
N654 S652 1.610 . S
N654 C655 1.351 . S
C655 C649 1.428 . S
C655 N654 1.351 . S
C655 C656 1.434 . S
C656 C647 1.429 . S
C656 N653 1.350 . S
C656 C655 1.434 . S
C657 C658 1.369 . S
C657 C659 1.419 . S
C657 H661 0.930 . S
C658 C657 1.369 . S
C658 C667 1.429 . S
C659 C657 1.419 . S
C659 C660 1.363 . S
C659 H662 0.929 . S
C660 C659 1.363 . S
C660 C666 1.428 . S
H661 C657 0.930 . S
H662 C659 0.929 . S
S663 N664 1.613 . S
S663 N665 1.610 . S
N664 S663 1.613 . S
N664 C667 1.350 . S
N665 S663 1.610 . S
N665 C666 1.351 . S
C666 C660 1.428 . S
C666 N665 1.351 . S
C666 C667 1.434 . S
C667 C658 1.429 . S
C667 N664 1.350 . S
C667 C666 1.434 . S
C668 C669 1.369 . S
C668 C670 1.419 . S
C668 H672 0.930 . S
C669 C668 1.369 . S
C669 C678 1.429 . S
C670 C668 1.419 . S
C670 C671 1.363 . S
C670 H673 0.929 . S
C671 C670 1.363 . S
C671 C677 1.428 . S
H672 C668 0.930 . S
H673 C670 0.929 . S
S674 N675 1.613 . S
S674 N676 1.610 . S
N675 S674 1.613 . S
N675 C678 1.350 . S
N676 S674 1.610 . S
N676 C677 1.351 . S
C677 C671 1.428 . S
C677 N676 1.351 . S
C677 C678 1.434 . S
C678 C669 1.429 . S
C678 N675 1.350 . S
C678 C677 1.434 . S
C679 C680 1.369 1_556 S
C679 C681 1.419 . S
C679 H683 0.930 . S
C680 C679 1.369 1_554 S
C680 C689 1.429 . S
C681 C679 1.419 . S
C681 C682 1.363 . S
C681 H684 0.929 . S
C682 C681 1.363 . S
C682 C688 1.428 . S
H683 C679 0.930 . S
H684 C681 0.929 . S
S685 N686 1.613 . S
S685 N687 1.610 1_554 S
N686 S685 1.613 . S
N686 C689 1.350 . S
N687 S685 1.610 1_556 S
N687 C688 1.351 . S
C688 C682 1.428 . S
C688 N687 1.351 . S
C688 C689 1.434 1_556 S
C689 C680 1.429 . S
C689 N686 1.350 . S
C689 C688 1.434 1_554 S
C690 C691 1.369 . S
C690 C692 1.419 . S
C690 H694 0.930 . S
C691 C690 1.369 . S
C691 C700 1.429 . S
C692 C690 1.419 . S
C692 C693 1.363 . S
C692 H695 0.929 . S
C693 C692 1.363 . S
C693 C699 1.428 . S
H694 C690 0.930 . S
H695 C692 0.929 . S
S696 N697 1.613 . S
S696 N698 1.610 . S
N697 S696 1.613 . S
N697 C700 1.350 . S
N698 S696 1.610 . S
N698 C699 1.351 . S
C699 C693 1.428 . S
C699 N698 1.351 . S
C699 C700 1.434 . S
C700 C691 1.429 . S
C700 N697 1.350 . S
C700 C699 1.434 . S
C701 C702 1.369 . S
C701 C703 1.419 . S
C701 H705 0.930 . S
C702 C701 1.369 . S
C702 C711 1.429 1_455 S
C703 C701 1.419 . S
C703 C704 1.363 1_455 S
C703 H706 0.929 . S
C704 C703 1.363 1_655 S
C704 C710 1.428 . S
H705 C701 0.930 . S
H706 C703 0.929 . S
S707 N708 1.613 . S
S707 N709 1.610 . S
N708 S707 1.613 . S
N708 C711 1.350 . S
N709 S707 1.610 . S
N709 C710 1.351 . S
C710 C704 1.428 . S
C710 N709 1.351 . S
C710 C711 1.434 . S
C711 C702 1.429 1_655 S
C711 N708 1.350 . S
C711 C710 1.434 . S
C712 C713 1.369 . S
C712 C714 1.419 . S
C712 H716 0.930 . S
C713 C712 1.369 . S
C713 C722 1.429 . S
C714 C712 1.419 . S
C714 C715 1.363 . S
C714 H717 0.929 . S
C715 C714 1.363 . S
C715 C721 1.428 . S
H716 C712 0.930 . S
H717 C714 0.929 . S
S718 N719 1.613 . S
S718 N720 1.610 . S
N719 S718 1.613 . S
N719 C722 1.350 . S
N720 S718 1.610 . S
N720 C721 1.351 . S
C721 C715 1.428 . S
C721 N720 1.351 . S
C721 C722 1.434 . S
C722 C713 1.429 . S
C722 N719 1.350 . S
C722 C721 1.434 . S
C723 C724 1.369 1_455 S
C723 C725 1.419 1_554 S
C723 H727 0.930 . S
C724 C723 1.369 1_655 S
C724 C733 1.429 1_554 S
C725 C723 1.419 1_556 S
C725 C726 1.363 . S
C725 H728 0.929 . S
C726 C725 1.363 . S
C726 C732 1.428 1_455 S
H727 C723 0.930 . S
H728 C725 0.929 . S
S729 N730 1.613 . S
S729 N731 1.610 . S
N730 S729 1.613 . S
N730 C733 1.350 . S
N731 S729 1.610 . S
N731 C732 1.351 . S
C732 C726 1.428 1_655 S
C732 N731 1.351 . S
C732 C733 1.434 . S
C733 C724 1.429 1_556 S
C733 N730 1.350 . S
C733 C732 1.434 . S
C734 C735 1.369 . S
C734 C736 1.419 . S
C734 H738 0.930 . S
C735 C734 1.369 . S
C735 C744 1.429 . S
C736 C734 1.419 . S
C736 C737 1.363 . S
C736 H739 0.929 . S
C737 C736 1.363 . S
C737 C743 1.428 . S
H738 C734 0.930 . S
H739 C736 0.929 . S
S740 N741 1.613 . S
S740 N742 1.610 . S
N741 S740 1.613 . S
N741 C744 1.350 . S
N742 S740 1.610 . S
N742 C743 1.351 . S
C743 C737 1.428 . S
C743 N742 1.351 . S
C743 C744 1.434 . S
C744 C735 1.429 . S
C744 N741 1.350 . S
C744 C743 1.434 . S
C745 C746 1.369 . S
C745 C747 1.419 . S
C745 H749 0.930 . S
C746 C745 1.369 . S
C746 C755 1.429 . S
C747 C745 1.419 . S
C747 C748 1.363 . S
C747 H750 0.929 . S
C748 C747 1.363 . S
C748 C754 1.428 . S
H749 C745 0.930 . S
H750 C747 0.929 . S
S751 N752 1.613 . S
S751 N753 1.610 . S
N752 S751 1.613 . S
N752 C755 1.350 . S
N753 S751 1.610 . S
N753 C754 1.351 . S
C754 C748 1.428 . S
C754 N753 1.351 . S
C754 C755 1.434 . S
C755 C746 1.429 . S
C755 N752 1.350 . S
C755 C754 1.434 . S
C756 C757 1.369 . S
C756 C758 1.419 . S
C756 H760 0.930 . S
C757 C756 1.369 . S
C757 C766 1.429 . S
C758 C756 1.419 . S
C758 C759 1.363 . S
C758 H761 0.929 . S
C759 C758 1.363 . S
C759 C765 1.428 . S
H760 C756 0.930 . S
H761 C758 0.929 . S
S762 N763 1.613 . S
S762 N764 1.610 . S
N763 S762 1.613 . S
N763 C766 1.350 . S
N764 S762 1.610 . S
N764 C765 1.351 . S
C765 C759 1.428 . S
C765 N764 1.351 . S
C765 C766 1.434 . S
C766 C757 1.429 . S
C766 N763 1.350 . S
C766 C765 1.434 . S
C767 C768 1.369 . S
C767 C769 1.419 . S
C767 H771 0.930 . S
C768 C767 1.369 . S
C768 C777 1.429 . S
C769 C767 1.419 . S
C769 C770 1.363 1_554 S
C769 H772 0.929 . S
C770 C769 1.363 1_556 S
C770 C776 1.428 . S
H771 C767 0.930 . S
H772 C769 0.929 . S
S773 N774 1.613 1_556 S
S773 N775 1.610 . S
N774 S773 1.613 1_554 S
N774 C777 1.350 . S
N775 S773 1.610 . S
N775 C776 1.351 . S
C776 C770 1.428 . S
C776 N775 1.351 . S
C776 C777 1.434 1_556 S
C777 C768 1.429 . S
C777 N774 1.350 . S
C777 C776 1.434 1_554 S
C778 C779 1.369 . S
C778 C780 1.419 . S
C778 H782 0.930 . S
C779 C778 1.369 . S
C779 C788 1.429 . S
C780 C778 1.419 . S
C780 C781 1.363 . S
C780 H783 0.929 . S
C781 C780 1.363 . S
C781 C787 1.428 . S
H782 C778 0.930 . S
H783 C780 0.929 . S
S784 N785 1.613 . S
S784 N786 1.610 . S
N785 S784 1.613 . S
N785 C788 1.350 . S
N786 S784 1.610 . S
N786 C787 1.351 . S
C787 C781 1.428 . S
C787 N786 1.351 . S
C787 C788 1.434 . S
C788 C779 1.429 . S
C788 N785 1.350 . S
C788 C787 1.434 . S
C789 C790 1.369 . S
C789 C791 1.419 1_655 S
C789 H793 0.930 . S
C790 C789 1.369 . S
C790 C799 1.429 . S
C791 C789 1.419 1_455 S
C791 C792 1.363 . S
C791 H794 0.929 . S
C792 C791 1.363 . S
C792 C798 1.428 . S
H793 C789 0.930 . S
H794 C791 0.929 . S
S795 N796 1.613 1_455 S
S795 N797 1.610 . S
N796 S795 1.613 1_655 S
N796 C799 1.350 . S
N797 S795 1.610 . S
N797 C798 1.351 . S
C798 C792 1.428 . S
C798 N797 1.351 . S
C798 C799 1.434 1_455 S
C799 C790 1.429 . S
C799 N796 1.350 . S
C799 C798 1.434 1_655 S
C800 C801 1.369 . S
C800 C802 1.419 . S
C800 H804 0.930 . S
C801 C800 1.369 . S
C801 C810 1.429 . S
C802 C800 1.419 . S
C802 C803 1.363 . S
C802 H805 0.929 . S
C803 C802 1.363 . S
C803 C809 1.428 . S
H804 C800 0.930 . S
H805 C802 0.929 . S
S806 N807 1.613 . S
S806 N808 1.610 . S
N807 S806 1.613 . S
N807 C810 1.350 . S
N808 S806 1.610 . S
N808 C809 1.351 . S
C809 C803 1.428 . S
C809 N808 1.351 . S
C809 C810 1.434 . S
C810 C801 1.429 . S
C810 N807 1.350 . S
C810 C809 1.434 . S
C811 C812 1.369 . S
C811 C813 1.419 . S
C811 H815 0.930 . S
C812 C811 1.369 . S
C812 C821 1.429 . S
C813 C811 1.419 . S
C813 C814 1.363 . S
C813 H816 0.929 . S
C814 C813 1.363 . S
C814 C820 1.428 . S
H815 C811 0.930 . S
H816 C813 0.929 . S
S817 N818 1.613 . S
S817 N819 1.610 . S
N818 S817 1.613 . S
N818 C821 1.350 . S
N819 S817 1.610 . S
N819 C820 1.351 . S
C820 C814 1.428 . S
C820 N819 1.351 . S
C820 C821 1.434 . S
C821 C812 1.429 . S
C821 N818 1.350 . S
C821 C820 1.434 . S
C822 C823 1.369 . S
C822 C824 1.419 . S
C822 H826 0.930 . S
C823 C822 1.369 . S
C823 C832 1.429 . S
C824 C822 1.419 . S
C824 C825 1.363 . S
C824 H827 0.929 . S
C825 C824 1.363 . S
C825 C831 1.428 . S
H826 C822 0.930 . S
H827 C824 0.929 . S
S828 N829 1.613 . S
S828 N830 1.610 . S
N829 S828 1.613 . S
N829 C832 1.350 . S
N830 S828 1.610 . S
N830 C831 1.351 . S
C831 C825 1.428 . S
C831 N830 1.351 . S
C831 C832 1.434 . S
C832 C823 1.429 . S
C832 N829 1.350 . S
C832 C831 1.434 . S
C833 C834 1.369 . S
C833 C835 1.419 1_554 S
C833 H837 0.930 . S
C834 C833 1.369 . S
C834 C843 1.429 1_455 S
C835 C833 1.419 1_556 S
C835 C836 1.363 1_455 S
C835 H838 0.929 . S
C836 C835 1.363 1_655 S
C836 C842 1.428 1_556 S
H837 C833 0.930 . S
H838 C835 0.929 . S
S839 N840 1.613 . S
S839 N841 1.610 . S
N840 S839 1.613 . S
N840 C843 1.350 . S
N841 S839 1.610 . S
N841 C842 1.351 . S
C842 C836 1.428 1_554 S
C842 N841 1.351 . S
C842 C843 1.434 . S
C843 C834 1.429 1_655 S
C843 N840 1.350 . S
C843 C842 1.434 . S
C844 C845 1.369 . S
C844 C846 1.419 . S
C844 H848 0.930 . S
C845 C844 1.369 . S
C845 C854 1.429 . S
C846 C844 1.419 . S
C846 C847 1.363 . S
C846 H849 0.929 . S
C847 C846 1.363 . S
C847 C853 1.428 . S
H848 C844 0.930 . S
H849 C846 0.929 . S
S850 N851 1.613 . S
S850 N852 1.610 . S
N851 S850 1.613 . S
N851 C854 1.350 . S
N852 S850 1.610 . S
N852 C853 1.351 . S
C853 C847 1.428 . S
C853 N852 1.351 . S
C853 C854 1.434 . S
C854 C845 1.429 . S
C854 N851 1.350 . S
C854 C853 1.434 . S
C855 C856 1.369 1_455 S
C855 C857 1.419 . S
C855 H859 0.930 . S
C856 C855 1.369 1_655 S
C856 C865 1.429 . S
C857 C855 1.419 . S
C857 C858 1.363 . S
C857 H860 0.929 . S
C858 C857 1.363 . S
C858 C864 1.428 1_455 S
H859 C855 0.930 . S
H860 C857 0.929 . S
S861 N862 1.613 . S
S861 N863 1.610 . S
N862 S861 1.613 . S
N862 C865 1.350 . S
N863 S861 1.610 . S
N863 C864 1.351 . S
C864 C858 1.428 1_655 S
C864 N863 1.351 . S
C864 C865 1.434 . S
C865 C856 1.429 . S
C865 N862 1.350 . S
C865 C864 1.434 . S
C866 C867 1.369 . S
C866 C868 1.419 . S
C866 H870 0.930 . S
C867 C866 1.369 . S
C867 C876 1.429 . S
C868 C866 1.419 . S
C868 C869 1.363 . S
C868 H871 0.929 . S
C869 C868 1.363 . S
C869 C875 1.428 . S
H870 C866 0.930 . S
H871 C868 0.929 . S
S872 N873 1.613 . S
S872 N874 1.610 . S
N873 S872 1.613 . S
N873 C876 1.350 . S
N874 S872 1.610 . S
N874 C875 1.351 . S
C875 C869 1.428 . S
C875 N874 1.351 . S
C875 C876 1.434 . S
C876 C867 1.429 . S
C876 N873 1.350 . S
C876 C875 1.434 . S
C877 C878 1.369 . S
C877 C879 1.419 1_554 S
C877 H881 0.930 . S
C878 C877 1.369 . S
C878 C887 1.429 1_554 S
C879 C877 1.419 1_556 S
C879 C880 1.363 . S
C879 H882 0.929 . S
C880 C879 1.363 . S
C880 C886 1.428 . S
H881 C877 0.930 . S
H882 C879 0.929 . S
S883 N884 1.613 . S
S883 N885 1.610 . S
N884 S883 1.613 . S
N884 C887 1.350 . S
N885 S883 1.610 . S
N885 C886 1.351 . S
C886 C880 1.428 . S
C886 N885 1.351 . S
C886 C887 1.434 . S
C887 C878 1.429 1_556 S
C887 N884 1.350 . S
C887 C886 1.434 . S
C888 C889 1.369 . S
C888 C890 1.419 . S
C888 H892 0.930 . S
C889 C888 1.369 . S
C889 C898 1.429 . S
C890 C888 1.419 . S
C890 C891 1.363 . S
C890 H893 0.929 . S
C891 C890 1.363 . S
C891 C897 1.428 . S
H892 C888 0.930 . S
H893 C890 0.929 . S
S894 N895 1.613 . S
S894 N896 1.610 . S
N895 S894 1.613 . S
N895 C898 1.350 . S
N896 S894 1.610 . S
N896 C897 1.351 . S
C897 C891 1.428 . S
C897 N896 1.351 . S
C897 C898 1.434 . S
C898 C889 1.429 . S
C898 N895 1.350 . S
C898 C897 1.434 . S
C899 C900 1.369 . S
C899 C901 1.419 . S
C899 H903 0.930 . S
C900 C899 1.369 . S
C900 C909 1.429 . S
C901 C899 1.419 . S
C901 C902 1.363 . S
C901 H904 0.929 . S
C902 C901 1.363 . S
C902 C908 1.428 . S
H903 C899 0.930 . S
H904 C901 0.929 . S
S905 N906 1.613 . S
S905 N907 1.610 . S
N906 S905 1.613 . S
N906 C909 1.350 . S
N907 S905 1.610 . S
N907 C908 1.351 . S
C908 C902 1.428 . S
C908 N907 1.351 . S
C908 C909 1.434 . S
C909 C900 1.429 . S
C909 N906 1.350 . S
C909 C908 1.434 . S
C910 C911 1.369 . S
C910 C912 1.419 . S
C910 H914 0.930 . S
C911 C910 1.369 . S
C911 C920 1.429 . S
C912 C910 1.419 . S
C912 C913 1.363 . S
C912 H915 0.929 . S
C913 C912 1.363 . S
C913 C919 1.428 . S
H914 C910 0.930 . S
H915 C912 0.929 . S
S916 N917 1.613 . S
S916 N918 1.610 . S
N917 S916 1.613 . S
N917 C920 1.350 . S
N918 S916 1.610 . S
N918 C919 1.351 . S
C919 C913 1.428 . S
C919 N918 1.351 . S
C919 C920 1.434 . S
C920 C911 1.429 . S
C920 N917 1.350 . S
C920 C919 1.434 . S
C921 C922 1.369 . S
C921 C923 1.419 1_655 S
C921 H925 0.930 . S
C922 C921 1.369 . S
C922 C931 1.429 . S
C923 C921 1.419 1_455 S
C923 C924 1.363 1_556 S
C923 H926 0.929 1_556 S
C924 C923 1.363 1_554 S
C924 C930 1.428 1_554 S
H925 C921 0.930 . S
H926 C923 0.929 1_554 S
S927 N928 1.613 . S
S927 N929 1.610 1_656 S
N928 S927 1.613 . S
N928 C931 1.350 . S
N929 S927 1.610 1_454 S
N929 C930 1.351 1_554 S
C930 C924 1.428 1_556 S
C930 N929 1.351 1_556 S
C930 C931 1.434 1_455 S
C931 C922 1.429 . S
C931 N928 1.350 . S
C931 C930 1.434 1_655 S
C932 C933 1.369 . S
C932 C934 1.419 . S
C932 H936 0.930 . S
C933 C932 1.369 . S
C933 C942 1.429 . S
C934 C932 1.419 . S
C934 C935 1.363 . S
C934 H937 0.929 . S
C935 C934 1.363 . S
C935 C941 1.428 . S
H936 C932 0.930 . S
H937 C934 0.929 . S
S938 N939 1.613 . S
S938 N940 1.610 . S
N939 S938 1.613 . S
N939 C942 1.350 . S
N940 S938 1.610 . S
N940 C941 1.351 . S
C941 C935 1.428 . S
C941 N940 1.351 . S
C941 C942 1.434 . S
C942 C933 1.429 . S
C942 N939 1.350 . S
C942 C941 1.434 . S
C943 C944 1.369 . S
C943 C945 1.419 1_655 S
C943 H947 0.930 . S
C944 C943 1.369 . S
C944 C953 1.429 . S
C945 C943 1.419 1_455 S
C945 C946 1.363 . S
C945 H948 0.929 . S
C946 C945 1.363 . S
C946 C952 1.428 . S
H947 C943 0.930 . S
H948 C945 0.929 . S
S949 N950 1.613 . S
S949 N951 1.610 1_655 S
N950 S949 1.613 . S
N950 C953 1.350 . S
N951 S949 1.610 1_455 S
N951 C952 1.351 . S
C952 C946 1.428 . S
C952 N951 1.351 . S
C952 C953 1.434 1_455 S
C953 C944 1.429 . S
C953 N950 1.350 . S
C953 C952 1.434 1_655 S
C954 C955 1.369 . S
C954 C956 1.419 . S
C954 H958 0.930 . S
C955 C954 1.369 . S
C955 C964 1.429 . S
C956 C954 1.419 . S
C956 C957 1.363 . S
C956 H959 0.929 . S
C957 C956 1.363 . S
C957 C963 1.428 . S
H958 C954 0.930 . S
H959 C956 0.929 . S
S960 N961 1.613 . S
S960 N962 1.610 . S
N961 S960 1.613 . S
N961 C964 1.350 . S
N962 S960 1.610 . S
N962 C963 1.351 . S
C963 C957 1.428 . S
C963 N962 1.351 . S
C963 C964 1.434 . S
C964 C955 1.429 . S
C964 N961 1.350 . S
C964 C963 1.434 . S
C965 C966 1.369 . S
C965 C967 1.419 . S
C965 H969 0.930 . S
C966 C965 1.369 . S
C966 C975 1.429 . S
C967 C965 1.419 . S
C967 C968 1.363 1_554 S
C967 H970 0.929 . S
C968 C967 1.363 1_556 S
C968 C974 1.428 . S
H969 C965 0.930 . S
H970 C967 0.929 . S
S971 N972 1.613 1_556 S
S971 N973 1.610 . S
N972 S971 1.613 1_554 S
N972 C975 1.350 . S
N973 S971 1.610 . S
N973 C974 1.351 . S
C974 C968 1.428 . S
C974 N973 1.351 . S
C974 C975 1.434 1_556 S
C975 C966 1.429 . S
C975 N972 1.350 . S
C975 C974 1.434 1_554 S
C976 C977 1.369 . S
C976 C978 1.419 . S
C976 H980 0.930 . S
C977 C976 1.369 . S
C977 C986 1.429 . S
C978 C976 1.419 . S
C978 C979 1.363 . S
C978 H981 0.929 . S
C979 C978 1.363 . S
C979 C985 1.428 . S
H980 C976 0.930 . S
H981 C978 0.929 . S
S982 N983 1.613 . S
S982 N984 1.610 . S
N983 S982 1.613 . S
N983 C986 1.350 . S
N984 S982 1.610 . S
N984 C985 1.351 . S
C985 C979 1.428 . S
C985 N984 1.351 . S
C985 C986 1.434 . S
C986 C977 1.429 . S
C986 N983 1.350 . S
C986 C985 1.434 . S
C987 C988 1.369 . S
C987 C989 1.419 . S
C987 H991 0.930 . S
C988 C987 1.369 . S
C988 C997 1.429 . S
C989 C987 1.419 . S
C989 C990 1.363 . S
C989 H992 0.929 . S
C990 C989 1.363 . S
C990 C996 1.428 . S
H991 C987 0.930 . S
H992 C989 0.929 . S
S993 N994 1.613 . S
S993 N995 1.610 . S
N994 S993 1.613 . S
N994 C997 1.350 . S
N995 S993 1.610 . S
N995 C996 1.351 . S
C996 C990 1.428 . S
C996 N995 1.351 . S
C996 C997 1.434 . S
C997 C988 1.429 . S
C997 N994 1.350 . S
C997 C996 1.434 . S
C998 C999 1.369 . S
C998 C1000 1.419 . S
C998 H1002 0.930 . S
C999 C998 1.369 . S
C999 C1008 1.429 . S
C1000 C998 1.419 . S
C1000 C1001 1.363 . S
C1000 H1003 0.929 . S
C1001 C1000 1.363 . S
C1001 C1007 1.428 . S
H1002 C998 0.930 . S
H1003 C1000 0.929 . S
S1004 N1005 1.613 . S
S1004 N1006 1.610 . S
N1005 S1004 1.613 . S
N1005 C1008 1.350 . S
N1006 S1004 1.610 . S
N1006 C1007 1.351 . S
C1007 C1001 1.428 . S
C1007 N1006 1.351 . S
C1007 C1008 1.434 . S
C1008 C999 1.429 . S
C1008 N1005 1.350 . S
C1008 C1007 1.434 . S
C1009 C1010 1.369 . S
C1009 C1011 1.419 . S
C1009 H1013 0.930 . S
C1010 C1009 1.369 . S
C1010 C1019 1.429 . S
C1011 C1009 1.419 . S
C1011 C1012 1.363 . S
C1011 H1014 0.929 . S
C1012 C1011 1.363 . S
C1012 C1018 1.428 . S
H1013 C1009 0.930 . S
H1014 C1011 0.929 . S
S1015 N1016 1.613 . S
S1015 N1017 1.610 1_554 S
N1016 S1015 1.613 . S
N1016 C1019 1.350 1_554 S
N1017 S1015 1.610 1_556 S
N1017 C1018 1.351 . S
C1018 C1012 1.428 . S
C1018 N1017 1.351 . S
C1018 C1019 1.434 . S
C1019 C1010 1.429 . S
C1019 N1016 1.350 1_556 S
C1019 C1018 1.434 . S
C1020 C1021 1.369 . S
C1020 C1022 1.419 . S
C1020 H1024 0.930 . S
C1021 C1020 1.369 . S
C1021 C1030 1.429 . S
C1022 C1020 1.419 . S
C1022 C1023 1.363 . S
C1022 H1025 0.929 . S
C1023 C1022 1.363 . S
C1023 C1029 1.428 . S
H1024 C1020 0.930 . S
H1025 C1022 0.929 . S
S1026 N1027 1.613 . S
S1026 N1028 1.610 . S
N1027 S1026 1.613 . S
N1027 C1030 1.350 . S
N1028 S1026 1.610 . S
N1028 C1029 1.351 . S
C1029 C1023 1.428 . S
C1029 N1028 1.351 . S
C1029 C1030 1.434 . S
C1030 C1021 1.429 . S
C1030 N1027 1.350 . S
C1030 C1029 1.434 . S
C1031 C1032 1.369 . S
C1031 C1033 1.419 . S
C1031 H1035 0.930 . S
C1032 C1031 1.369 . S
C1032 C1041 1.429 . S
C1033 C1031 1.419 . S
C1033 C1034 1.363 . S
C1033 H1036 0.929 . S
C1034 C1033 1.363 . S
C1034 C1040 1.428 . S
H1035 C1031 0.930 . S
H1036 C1033 0.929 . S
S1037 N1038 1.613 . S
S1037 N1039 1.610 . S
N1038 S1037 1.613 . S
N1038 C1041 1.350 . S
N1039 S1037 1.610 . S
N1039 C1040 1.351 . S
C1040 C1034 1.428 . S
C1040 N1039 1.351 . S
C1040 C1041 1.434 . S
C1041 C1032 1.429 . S
C1041 N1038 1.350 . S
C1041 C1040 1.434 . S
C1042 C1043 1.369 . S
C1042 C1044 1.419 . S
C1042 H1046 0.930 . S
C1043 C1042 1.369 . S
C1043 C1052 1.429 . S
C1044 C1042 1.419 . S
C1044 C1045 1.363 . S
C1044 H1047 0.929 . S
C1045 C1044 1.363 . S
C1045 C1051 1.428 . S
H1046 C1042 0.930 . S
H1047 C1044 0.929 . S
S1048 N1049 1.613 1_554 S
S1048 N1050 1.610 1_554 S
N1049 S1048 1.613 1_556 S
N1049 C1052 1.350 . S
N1050 S1048 1.610 1_556 S
N1050 C1051 1.351 . S
C1051 C1045 1.428 . S
C1051 N1050 1.351 . S
C1051 C1052 1.434 . S
C1052 C1043 1.429 . S
C1052 N1049 1.350 . S
C1052 C1051 1.434 . S
C1053 C1054 1.369 . S
C1053 C1055 1.419 . S
C1053 H1057 0.930 . S
C1054 C1053 1.369 . S
C1054 C1063 1.429 . S
C1055 C1053 1.419 . S
C1055 C1056 1.363 . S
C1055 H1058 0.929 . S
C1056 C1055 1.363 . S
C1056 C1062 1.428 . S
H1057 C1053 0.930 . S
H1058 C1055 0.929 . S
S1059 N1060 1.613 . S
S1059 N1061 1.610 1_556 S
N1060 S1059 1.613 . S
N1060 C1063 1.350 1_556 S
N1061 S1059 1.610 1_554 S
N1061 C1062 1.351 . S
C1062 C1056 1.428 . S
C1062 N1061 1.351 . S
C1062 C1063 1.434 . S
C1063 C1054 1.429 . S
C1063 N1060 1.350 1_554 S
C1063 C1062 1.434 . S
C1064 C1065 1.369 . S
C1064 C1066 1.419 . S
C1064 H1068 0.930 . S
C1065 C1064 1.369 . S
C1065 C1074 1.429 . S
C1066 C1064 1.419 . S
C1066 C1067 1.363 . S
C1066 H1069 0.929 . S
C1067 C1066 1.363 . S
C1067 C1073 1.428 . S
H1068 C1064 0.930 . S
H1069 C1066 0.929 . S
S1070 N1071 1.613 . S
S1070 N1072 1.610 . S
N1071 S1070 1.613 . S
N1071 C1074 1.350 . S
N1072 S1070 1.610 . S
N1072 C1073 1.351 . S
C1073 C1067 1.428 . S
C1073 N1072 1.351 . S
C1073 C1074 1.434 . S
C1074 C1065 1.429 . S
C1074 N1071 1.350 . S
C1074 C1073 1.434 . S
C1075 C1076 1.369 . S
C1075 C1077 1.419 . S
C1075 H1079 0.930 . S
C1076 C1075 1.369 . S
C1076 C1085 1.429 . S
C1077 C1075 1.419 . S
C1077 C1078 1.363 . S
C1077 H1080 0.929 . S
C1078 C1077 1.363 . S
C1078 C1084 1.428 . S
H1079 C1075 0.930 . S
H1080 C1077 0.929 . S
S1081 N1082 1.613 . S
S1081 N1083 1.610 . S
N1082 S1081 1.613 . S
N1082 C1085 1.350 . S
N1083 S1081 1.610 . S
N1083 C1084 1.351 . S
C1084 C1078 1.428 . S
C1084 N1083 1.351 . S
C1084 C1085 1.434 . S
C1085 C1076 1.429 . S
C1085 N1082 1.350 . S
C1085 C1084 1.434 . S
C1086 C1087 1.369 . S
C1086 C1088 1.419 . S
C1086 H1090 0.930 . S
C1087 C1086 1.369 . S
C1087 C1096 1.429 . S
C1088 C1086 1.419 . S
C1088 C1089 1.363 . S
C1088 H1091 0.929 . S
C1089 C1088 1.363 . S
C1089 C1095 1.428 . S
H1090 C1086 0.930 . S
H1091 C1088 0.929 . S
S1092 N1093 1.613 . S
S1092 N1094 1.610 . S
N1093 S1092 1.613 . S
N1093 C1096 1.350 . S
N1094 S1092 1.610 . S
N1094 C1095 1.351 . S
C1095 C1089 1.428 . S
C1095 N1094 1.351 . S
C1095 C1096 1.434 . S
C1096 C1087 1.429 . S
C1096 N1093 1.350 . S
C1096 C1095 1.434 . S
C1097 C1098 1.369 . S
C1097 C1099 1.419 . S
C1097 H1101 0.930 . S
C1098 C1097 1.369 . S
C1098 C1107 1.429 . S
C1099 C1097 1.419 . S
C1099 C1100 1.363 . S
C1099 H1102 0.929 . S
C1100 C1099 1.363 . S
C1100 C1106 1.428 . S
H1101 C1097 0.930 . S
H1102 C1099 0.929 . S
S1103 N1104 1.613 . S
S1103 N1105 1.610 . S
N1104 S1103 1.613 . S
N1104 C1107 1.350 . S
N1105 S1103 1.610 . S
N1105 C1106 1.351 . S
C1106 C1100 1.428 . S
C1106 N1105 1.351 . S
C1106 C1107 1.434 . S
C1107 C1098 1.429 . S
C1107 N1104 1.350 . S
C1107 C1106 1.434 . S
C1108 C1109 1.369 . S
C1108 C1110 1.419 . S
C1108 H1112 0.930 . S
C1109 C1108 1.369 . S
C1109 C1118 1.429 . S
C1110 C1108 1.419 . S
C1110 C1111 1.363 . S
C1110 H1113 0.929 . S
C1111 C1110 1.363 . S
C1111 C1117 1.428 . S
H1112 C1108 0.930 . S
H1113 C1110 0.929 . S
S1114 N1115 1.613 . S
S1114 N1116 1.610 . S
N1115 S1114 1.613 . S
N1115 C1118 1.350 . S
N1116 S1114 1.610 . S
N1116 C1117 1.351 . S
C1117 C1111 1.428 . S
C1117 N1116 1.351 . S
C1117 C1118 1.434 . S
C1118 C1109 1.429 . S
C1118 N1115 1.350 . S
C1118 C1117 1.434 . S
C1119 C1120 1.369 . S
C1119 C1121 1.419 . S
C1119 H1123 0.930 . S
C1120 C1119 1.369 . S
C1120 C1129 1.429 . S
C1121 C1119 1.419 . S
C1121 C1122 1.363 . S
C1121 H1124 0.929 . S
C1122 C1121 1.363 . S
C1122 C1128 1.428 . S
H1123 C1119 0.930 . S
H1124 C1121 0.929 . S
S1125 N1126 1.613 . S
S1125 N1127 1.610 . S
N1126 S1125 1.613 . S
N1126 C1129 1.350 . S
N1127 S1125 1.610 . S
N1127 C1128 1.351 . S
C1128 C1122 1.428 . S
C1128 N1127 1.351 . S
C1128 C1129 1.434 . S
C1129 C1120 1.429 . S
C1129 N1126 1.350 . S
C1129 C1128 1.434 . S
C1130 C1131 1.369 . S
C1130 C1132 1.419 . S
C1130 H1134 0.930 . S
C1131 C1130 1.369 . S
C1131 C1140 1.429 . S
C1132 C1130 1.419 . S
C1132 C1133 1.363 . S
C1132 H1135 0.929 . S
C1133 C1132 1.363 . S
C1133 C1139 1.428 . S
H1134 C1130 0.930 . S
H1135 C1132 0.929 . S
S1136 N1137 1.613 . S
S1136 N1138 1.610 . S
N1137 S1136 1.613 . S
N1137 C1140 1.350 . S
N1138 S1136 1.610 . S
N1138 C1139 1.351 . S
C1139 C1133 1.428 . S
C1139 N1138 1.351 . S
C1139 C1140 1.434 . S
C1140 C1131 1.429 . S
C1140 N1137 1.350 . S
C1140 C1139 1.434 . S
C1141 C1142 1.369 . S
C1141 C1143 1.419 . S
C1141 H1145 0.930 . S
C1142 C1141 1.369 . S
C1142 C1151 1.429 . S
C1143 C1141 1.419 . S
C1143 C1144 1.363 . S
C1143 H1146 0.929 . S
C1144 C1143 1.363 . S
C1144 C1150 1.428 . S
H1145 C1141 0.930 . S
H1146 C1143 0.929 . S
S1147 N1148 1.613 . S
S1147 N1149 1.610 . S
N1148 S1147 1.613 . S
N1148 C1151 1.350 . S
N1149 S1147 1.610 . S
N1149 C1150 1.351 . S
C1150 C1144 1.428 . S
C1150 N1149 1.351 . S
C1150 C1151 1.434 . S
C1151 C1142 1.429 . S
C1151 N1148 1.350 . S
C1151 C1150 1.434 . S
C449 C88 1.267 . S
C451 C4 1.270 . S
C460 C18 1.268 . S
C462 C102 1.268 . S
C471 C60 1.269 . S
C473 C32 1.271 . S
C482 C46 1.271 . S
C484 C74 1.268 . S
C493 C200 1.271 . S
C495 C116 1.268 . S
C504 C214 1.267 . S
C506 C130 1.271 . S
C515 C144 1.271 . S
C517 C172 1.269 . S
C526 C158 1.267 . S
C528 C186 1.271 . S
C537 C228 1.269 . S
C539 C312 1.268 . S
C548 C242 1.269 . S
C550 C326 1.268 . S
C559 C284 1.267 . S
C561 C256 1.270 . S
C570 C298 1.268 . S
C572 C270 1.271 . S
C581 C340 1.267 . S
C583 C424 1.270 . S
C592 C438 1.269 . S
C594 C354 1.270 . S
C603 C396 1.271 . S
C605 C368 1.269 . S
C614 C382 1.270 . S
C616 C410 1.267 . S
C625 C5 1.317 . S
C627 C432 1.459 . S
C636 C222 1.460 . S
C638 C19 1.330 . S
C647 C33 1.320 . S
C649 C404 1.459 . S
C658 C47 1.322 . S
C660 C194 1.461 . S
C669 C376 1.459 . S
C671 C61 1.326 . S
C680 C166 1.460 . S
C682 C75 1.329 . S
C691 C89 1.331 . S
C693 C348 1.460 . S
C702 C138 1.459 . S
C704 C103 1.327 . S
C713 C117 1.322 . S
C715 C320 1.461 . S
C724 C110 1.461 . S
C726 C131 1.323 . S
C735 C145 1.332 . S
C737 C292 1.460 . S
C746 C159 1.322 . S
C748 C82 1.459 . S
C757 C264 1.459 . S
C759 C173 1.329 . S
C768 C187 1.329 . S
C770 C54 1.459 . S
C779 C201 1.328 . S
C781 C236 1.459 . S
C790 C26 1.461 . S
C792 C215 1.330 . S
C801 C229 1.317 . S
C803 C208 1.459 . S
C812 C243 1.328 . S
C814 C446 1.461 . S
C823 C180 1.459 . S
C825 C257 1.318 . S
C834 C271 1.325 . S
C836 C418 1.461 . S
C845 C152 1.461 . S
C847 C285 1.324 . S
C856 C390 1.461 . S
C858 C299 1.324 . S
C867 C124 1.459 . S
C869 C313 1.326 . S
C878 C362 1.458 . S
C880 C327 1.318 . S
C889 C341 1.318 . S
C891 C96 1.459 . S
C900 C334 1.459 . S
C902 C355 1.329 . S
C911 C68 1.461 . S
C913 C369 1.321 . S
C922 C383 1.330 . S
C924 C306 1.461 . S
C933 C397 1.328 . S
C935 C40 1.459 . S
C944 C411 1.328 . S
C946 C278 1.461 . S
C955 C12 1.459 . S
C957 C425 1.318 . S
C966 C439 1.330 . S
C968 C250 1.459 . S
C977 C11 1.291 . S
C979 C305 1.300 . S
C988 C319 1.293 . S
C990 C25 1.298 . S
C999 C39 1.295 . S
C1001 C333 1.298 . S
C1010 C291 1.302 . S
C1012 C53 1.292 . S
C1021 C277 1.300 . S
C1023 C67 1.293 . S
C1032 C235 1.296 . S
C1034 C81 1.297 . S
C1043 C249 1.290 . S
C1045 C95 1.300 . S
C1054 C263 1.302 . S
C1056 C109 1.292 . S
C1065 C123 1.291 . S
C1067 C417 1.300 . S
C1076 C431 1.291 . S
C1078 C137 1.300 . S
C1087 C445 1.291 . S
C1089 C151 1.300 . S
C1098 C403 1.291 . S
C1100 C165 1.300 . S
C1109 C389 1.291 . S
C1111 C179 1.300 . S
C1120 C347 1.296 . S
C1122 C193 1.296 . S
C1131 C207 1.290 . S
C1133 C361 1.301 . S
C1142 C221 1.295 . S
C1144 C375 1.297 . S
