# Generated by pormake.
# Topology xfc, (7)-cn, num edge types: 1
# Building blocks:
#     Node 0, Type 0, BuildingBlock: NUHQUE_clean_sbu_2, # of connection points: 7
#     Node 1, Type 0, BuildingBlock: NUHQUE_clean_sbu_2, # of connection points: 7
#     Node 2, Type 0, BuildingBlock: NUHQUE_clean_sbu_2, # of connection points: 7
#     Node 3, Type 0, BuildingBlock: NUHQUE_clean_sbu_2, # of connection points: 7
#     Node 4, Type 0, BuildingBlock: NUHQUE_clean_sbu_2, # of connection points: 7
#     Node 5, Type 0, BuildingBlock: NUHQUE_clean_sbu_2, # of connection points: 7
#     Node 6, Type 0, BuildingBlock: NUHQUE_clean_sbu_2, # of connection points: 7
#     Node 7, Type 0, BuildingBlock: NUHQUE_clean_sbu_2, # of connection points: 7
#     Node 8, Type 0, BuildingBlock: NUHQUE_clean_sbu_2, # of connection points: 7
#     Node 9, Type 0, BuildingBlock: NUHQUE_clean_sbu_2, # of connection points: 7
#     Node 10, Type 0, BuildingBlock: NUHQUE_clean_sbu_2, # of connection points: 7
#     Node 11, Type 0, BuildingBlock: NUHQUE_clean_sbu_2, # of connection points: 7
#     Node 12, Type 0, BuildingBlock: NUHQUE_clean_sbu_2, # of connection points: 7
#     Node 13, Type 0, BuildingBlock: NUHQUE_clean_sbu_2, # of connection points: 7
#     Node 14, Type 0, BuildingBlock: NUHQUE_clean_sbu_2, # of connection points: 7
#     Node 15, Type 0, BuildingBlock: NUHQUE_clean_sbu_2, # of connection points: 7
#     Edge 16, Type (0, 0), BuildingBlock: EZIPEK_clean_linker_0, # of connection points: 2
#     Edge 17, Type (0, 0), BuildingBlock: EZIPEK_clean_linker_0, # of connection points: 2
#     Edge 18, Type (0, 0), BuildingBlock: EZIPEK_clean_linker_0, # of connection points: 2
#     Edge 19, Type (0, 0), BuildingBlock: EZIPEK_clean_linker_0, # of connection points: 2
#     Edge 20, Type (0, 0), BuildingBlock: EZIPEK_clean_linker_0, # of connection points: 2
#     Edge 21, Type (0, 0), BuildingBlock: EZIPEK_clean_linker_0, # of connection points: 2
#     Edge 22, Type (0, 0), BuildingBlock: EZIPEK_clean_linker_0, # of connection points: 2
#     Edge 23, Type (0, 0), BuildingBlock: EZIPEK_clean_linker_0, # of connection points: 2
#     Edge 24, Type (0, 0), BuildingBlock: EZIPEK_clean_linker_0, # of connection points: 2
#     Edge 25, Type (0, 0), BuildingBlock: EZIPEK_clean_linker_0, # of connection points: 2
#     Edge 26, Type (0, 0), BuildingBlock: EZIPEK_clean_linker_0, # of connection points: 2
#     Edge 27, Type (0, 0), BuildingBlock: EZIPEK_clean_linker_0, # of connection points: 2
#     Edge 28, Type (0, 0), BuildingBlock: EZIPEK_clean_linker_0, # of connection points: 2
#     Edge 29, Type (0, 0), BuildingBlock: EZIPEK_clean_linker_0, # of connection points: 2
#     Edge 30, Type (0, 0), BuildingBlock: EZIPEK_clean_linker_0, # of connection points: 2
#     Edge 31, Type (0, 0), BuildingBlock: EZIPEK_clean_linker_0, # of connection points: 2
#     Edge 32, Type (0, 0), BuildingBlock: EZIPEK_clean_linker_0, # of connection points: 2
#     Edge 33, Type (0, 0), BuildingBlock: EZIPEK_clean_linker_0, # of connection points: 2
#     Edge 34, Type (0, 0), BuildingBlock: EZIPEK_clean_linker_0, # of connection points: 2
#     Edge 35, Type (0, 0), BuildingBlock: EZIPEK_clean_linker_0, # of connection points: 2
#     Edge 36, Type (0, 0), BuildingBlock: EZIPEK_clean_linker_0, # of connection points: 2
#     Edge 37, Type (0, 0), BuildingBlock: EZIPEK_clean_linker_0, # of connection points: 2
#     Edge 38, Type (0, 0), BuildingBlock: EZIPEK_clean_linker_0, # of connection points: 2
#     Edge 39, Type (0, 0), BuildingBlock: EZIPEK_clean_linker_0, # of connection points: 2
#     Edge 40, Type (0, 0), BuildingBlock: EZIPEK_clean_linker_0, # of connection points: 2
#     Edge 41, Type (0, 0), BuildingBlock: EZIPEK_clean_linker_0, # of connection points: 2
#     Edge 42, Type (0, 0), BuildingBlock: EZIPEK_clean_linker_0, # of connection points: 2
#     Edge 43, Type (0, 0), BuildingBlock: EZIPEK_clean_linker_0, # of connection points: 2
#     Edge 44, Type (0, 0), BuildingBlock: EZIPEK_clean_linker_0, # of connection points: 2
#     Edge 45, Type (0, 0), BuildingBlock: EZIPEK_clean_linker_0, # of connection points: 2
#     Edge 46, Type (0, 0), BuildingBlock: EZIPEK_clean_linker_0, # of connection points: 2
#     Edge 47, Type (0, 0), BuildingBlock: EZIPEK_clean_linker_0, # of connection points: 2
#     Edge 48, Type (0, 0), BuildingBlock: EZIPEK_clean_linker_0, # of connection points: 2
#     Edge 49, Type (0, 0), BuildingBlock: EZIPEK_clean_linker_0, # of connection points: 2
#     Edge 50, Type (0, 0), BuildingBlock: EZIPEK_clean_linker_0, # of connection points: 2
#     Edge 51, Type (0, 0), BuildingBlock: EZIPEK_clean_linker_0, # of connection points: 2
#     Edge 52, Type (0, 0), BuildingBlock: EZIPEK_clean_linker_0, # of connection points: 2
#     Edge 53, Type (0, 0), BuildingBlock: EZIPEK_clean_linker_0, # of connection points: 2
#     Edge 54, Type (0, 0), BuildingBlock: EZIPEK_clean_linker_0, # of connection points: 2
#     Edge 55, Type (0, 0), BuildingBlock: EZIPEK_clean_linker_0, # of connection points: 2
#     Edge 56, Type (0, 0), BuildingBlock: EZIPEK_clean_linker_0, # of connection points: 2
#     Edge 57, Type (0, 0), BuildingBlock: EZIPEK_clean_linker_0, # of connection points: 2
#     Edge 58, Type (0, 0), BuildingBlock: EZIPEK_clean_linker_0, # of connection points: 2
#     Edge 59, Type (0, 0), BuildingBlock: EZIPEK_clean_linker_0, # of connection points: 2
#     Edge 60, Type (0, 0), BuildingBlock: EZIPEK_clean_linker_0, # of connection points: 2
#     Edge 61, Type (0, 0), BuildingBlock: EZIPEK_clean_linker_0, # of connection points: 2
#     Edge 62, Type (0, 0), BuildingBlock: EZIPEK_clean_linker_0, # of connection points: 2
#     Edge 63, Type (0, 0), BuildingBlock: EZIPEK_clean_linker_0, # of connection points: 2
#     Edge 64, Type (0, 0), BuildingBlock: EZIPEK_clean_linker_0, # of connection points: 2
#     Edge 65, Type (0, 0), BuildingBlock: EZIPEK_clean_linker_0, # of connection points: 2
#     Edge 66, Type (0, 0), BuildingBlock: EZIPEK_clean_linker_0, # of connection points: 2
#     Edge 67, Type (0, 0), BuildingBlock: EZIPEK_clean_linker_0, # of connection points: 2
#     Edge 68, Type (0, 0), BuildingBlock: EZIPEK_clean_linker_0, # of connection points: 2
#     Edge 69, Type (0, 0), BuildingBlock: EZIPEK_clean_linker_0, # of connection points: 2
#     Edge 70, Type (0, 0), BuildingBlock: EZIPEK_clean_linker_0, # of connection points: 2
#     Edge 71, Type (0, 0), BuildingBlock: EZIPEK_clean_linker_0, # of connection points: 2
# Relax obj value: 0.451
# Max RMSD: 0.231
# Mean RMSD: 0.231
data_MOF--net-xfc--node1-NUHQUE_clean_sbu_2--edge1-EZIPEK_clean_linker_0
_symmetry_space_group_name_H-M    P1
_symmetry_Int_Tables_number       1
_symmetry_cell_setting            triclinic
loop_
_symmetry_equiv_pos_as_xyz
'x, y, z'
_cell_length_a     29.126476
_cell_length_b     29.16762
_cell_length_c     36.165843
_cell_angle_alpha  89.897439
_cell_angle_beta   90.127024
_cell_angle_gamma 90.243413
loop_
_atom_site_label
_atom_site_type_symbol
_atom_site_fract_x
_atom_site_fract_y
_atom_site_fract_z
_atom_type_partial_charge
O0 O 0.13798 0.94871 0.15423 0.0
Tb1 Tb 0.06902 0.97465 0.16151 0.0
Eu2 Eu 1.001 0.03146 0.21202 0.0
C3 C 0.17422 0.97596 0.15643 0.0
O4 O 0.17891 1.00477 0.184 0.0
C5 C 0.08209 0.07832 0.17245 0.0
O6 O 0.93024 0.06043 0.21868 0.0
C7 C 0.04437 0.00883 0.27235 0.0
C8 C 0.92387 0.10255 0.20719 0.0
O9 O 0.95996 0.12872 0.20163 0.0
C10 C 0.97928 0.93029 0.18232 0.0
C11 C 0.04117 0.97861 0.30527 0.0
C12 C 0.07911 0.95138 0.31608 0.0
C13 C 0.07592 0.92257 0.34735 0.0
C14 C 0.03494 0.92059 0.367 0.0
C15 C 0.99731 0.94723 0.35671 0.0
C16 C 1.00065 0.97702 0.3264 0.0
O17 O 0.09947 0.03852 0.18134 0.0
O18 O 0.03805 0.0841 0.17719 0.0
O19 O 0.06407 0.95372 0.10413 0.0
O20 O 0.02484 0.01048 0.1218 0.0
C21 C 0.03407 0.98406 0.09382 0.0
O22 O 0.96507 0.9728 0.18351 0.0
O23 O 0.0237 0.92344 0.18621 0.0
O24 O 0.01531 0.04332 0.27018 0.0
O25 O 0.05176 0.98885 0.2403 0.0
H26 H 0.11075 0.95261 0.3004 0.0
H27 H 0.03212 0.89745 0.39045 0.0
H28 H 0.97123 0.99763 0.31875 0.0
O29 O 0.33422 0.81826 0.45875 0.0
Tb30 Tb 0.30264 0.77651 0.41587 0.0
Eu31 Eu 0.2418 0.70926 0.45958 0.0
C32 C 0.35791 0.85462 0.45018 0.0
O33 O 0.37638 0.88023 0.4761 0.0
C34 C 0.20193 0.79745 0.41992 0.0
O35 O 0.18524 0.65667 0.45896 0.0
C36 C 0.25913 0.74536 0.52419 0.0
C37 C 0.19207 0.6155 0.44538 0.0
O38 O 0.23413 0.60035 0.44163 0.0
C39 C 0.341 0.67853 0.42766 0.0
C40 C 0.29033 0.74403 0.557 0.0
C41 C 0.31947 0.78176 0.56562 0.0
C42 C 0.34604 0.78184 0.5985 0.0
C43 C 0.34436 0.74326 0.62147 0.0
C44 C 0.31771 0.70494 0.61251 0.0
C45 C 0.28922 0.70614 0.58126 0.0
O46 O 0.24163 0.81399 0.43 0.0
O47 O 0.19497 0.75319 0.42361 0.0
O48 O 0.3176 0.80365 0.361 0.0
O49 O 0.27013 0.74833 0.36659 0.0
C50 C 0.29031 0.77568 0.34287 0.0
O51 O 0.29937 0.66497 0.43686 0.0
O52 O 0.35153 0.72207 0.42521 0.0
O53 O 0.23107 0.71037 0.51904 0.0
O54 O 0.2753 0.76215 0.49304 0.0
H55 H 0.32076 0.81121 0.54734 0.0
H56 H 0.36534 0.7424 0.64631 0.0
H57 H 0.26726 0.67693 0.5755 0.0
O58 O 0.40008 0.04644 0.69267 0.0
Tb59 Tb 0.46604 0.02241 0.67486 0.0
Eu60 Eu 0.54153 0.9684 0.71317 0.0
C61 C 0.3772 0.02707 0.72008 0.0
O62 O 0.3948 0.99417 0.74027 0.0
C63 C 0.46033 0.91958 0.67215 0.0
O64 O 0.60488 0.92458 0.71761 0.0
C65 C 0.49718 0.98654 0.77453 0.0
C66 C 0.64522 0.94012 0.70692 0.0
O67 O 0.65292 0.98447 0.70685 0.0
C68 C 0.55714 0.07169 0.68851 0.0
C69 C 0.49818 0.01758 0.80735 0.0
C70 C 0.45795 0.04046 0.81991 0.0
C71 C 0.45951 0.06909 0.85168 0.0
C72 C 0.50126 0.07376 0.87046 0.0
C73 C 0.54129 0.05401 0.85697 0.0
C74 C 0.5398 0.02524 0.82609 0.0
O75 O 0.4402 0.95413 0.68789 0.0
O76 O 0.50529 0.91996 0.67296 0.0
O77 O 0.45242 0.04256 0.61768 0.0
O78 O 0.50759 0.99656 0.6298 0.0
C79 C 0.4858 0.01829 0.60378 0.0
O80 O 0.57657 0.0312 0.68964 0.0
O81 O 0.51286 0.07534 0.69482 0.0
O82 O 0.52966 0.95539 0.77188 0.0
O83 O 0.48731 1.00516 0.74249 0.0
H84 H 0.42603 0.03631 0.80497 0.0
H85 H 0.50345 0.09613 0.89437 0.0
H86 H 0.57145 0.01055 0.81588 0.0
O87 O 0.20509 0.16468 0.99872 0.0
Tb88 Tb 0.23088 0.20555 0.95231 0.0
Eu89 Eu 0.29565 0.28004 0.967 0.0
C90 C 0.17101 0.13545 0.99611 0.0
O91 O 0.15702 0.11283 1.02545 0.0
C92 C 0.33068 0.18695 0.93214 0.0
O93 O 0.34111 0.3402 0.95474 0.0
C94 C 0.28797 0.25463 0.03606 0.0
C95 C 0.33331 0.35871 0.92218 0.0
O96 O 0.30422 0.33703 0.90053 0.0
C97 C 0.19126 0.30251 0.95303 0.0
C98 C 0.25561 0.25724 0.0679 0.0
C99 C 0.23298 0.21697 0.08042 0.0
C100 C 0.20159 0.2188 0.10997 0.0
C101 C 0.19322 0.26065 0.12711 0.0
C102 C 0.21507 0.30079 0.11524 0.0
C103 C 0.24675 0.29913 0.08597 0.0
O104 O 0.29782 0.17119 0.95356 0.0
O105 O 0.33333 0.23171 0.92827 0.0
O106 O 0.2011 0.18339 0.90014 0.0
O107 O 0.24782 0.24056 0.90098 0.0
C108 C 0.22147 0.21514 0.88019 0.0
O109 O 0.23295 0.31607 0.9456 0.0
O110 O 0.18513 0.26178 0.96785 0.0
O111 O 0.31022 0.29193 1.02567 0.0
O112 O 0.27441 0.22963 1.00801 0.0
H113 H 0.23932 0.18441 0.06705 0.0
H114 H 0.16825 0.26226 0.14931 0.0
H115 H 0.26322 0.33053 0.07683 0.0
O116 O 0.09031 0.08707 0.83317 0.0
Tb117 Tb 0.05875 0.03756 0.87021 0.0
Eu118 Eu 0.98798 0.98047 0.83259 0.0
C119 C 0.1132 0.12168 0.84645 0.0
O120 O 0.12357 0.15657 0.82514 0.0
C121 C 0.0788 0.9371 0.86448 0.0
O122 O 0.92183 0.94189 0.82624 0.0
C123 C 0.02514 0.01271 0.7721 0.0
C124 C 0.9226 0.89843 0.83526 0.0
O125 O 0.96209 0.87707 0.83412 0.0
C126 C 0.95928 0.07173 0.87463 0.0
C127 C 0.01723 0.04393 0.74036 0.0
C128 C 0.05309 0.07229 0.72674 0.0
C129 C 0.04484 0.10295 0.69717 0.0
C130 C 1.00054 0.10598 0.68245 0.0
C131 C 0.96506 0.07767 0.69537 0.0
C132 C 0.97381 0.04596 0.72367 0.0
O133 O 0.0951 0.97631 0.8524 0.0
O134 O 0.03394 0.9323 0.86518 0.0
O135 O 0.07872 0.0469 0.92783 0.0
O136 O 0.021 1.00337 0.91345 0.0
C137 C 0.04573 0.02021 0.94034 0.0
O138 O 0.94557 0.03014 0.8663 0.0
O139 O 1.00125 0.08446 0.86661 0.0
O140 O 1.00142 0.97409 0.77341 0.0
O141 O 0.02914 0.03219 0.80458 0.0
H142 H 0.08714 0.07026 0.73877 0.0
H143 H 0.99379 0.13009 0.66023 0.0
H144 H 0.94627 0.02392 0.73337 0.0
O145 O 0.20352 0.874 0.09014 0.0
Tb146 Tb 0.2251 0.81378 0.12126 0.0
Eu147 Eu 0.28033 0.73123 0.08824 0.0
C148 C 0.22779 0.89066 0.06209 0.0
O149 O 0.26085 0.8663 0.04758 0.0
C150 C 0.33087 0.81539 0.12477 0.0
O151 O 0.3184 0.66469 0.09125 0.0
C152 C 0.26336 0.76662 1.02341 0.0
C153 C 0.31976 0.64809 0.12502 0.0
O154 O 0.29864 0.67221 0.15046 0.0
C155 C 0.17768 0.71774 0.11778 0.0
C156 C 0.23633 0.76174 0.98871 0.0
C157 C 0.21088 0.7992 0.9744 0.0
C158 C 0.18793 0.7958 0.93992 0.0
C159 C 0.18996 0.75409 0.9208 0.0
C160 C 0.21193 0.71599 0.93604 0.0
C161 C 0.23654 0.7202 0.96916 0.0
O162 O 0.2953 0.83715 0.11139 0.0
O163 O 0.33123 0.77056 0.12353 0.0
O164 O 0.20748 0.84117 0.17591 0.0
O165 O 0.24907 0.78085 0.17118 0.0
C166 C 0.22989 0.8093 0.19399 0.0
O167 O 0.2182 0.69858 0.11447 0.0
O168 O 0.17213 0.76173 0.1102 0.0
O169 O 0.29659 0.73699 0.02969 0.0
O170 O 0.24092 0.77793 0.05353 0.0
H171 H 0.20935 0.831 0.98977 0.0
H172 H 0.17212 0.75039 0.89459 0.0
H173 H 0.25406 0.6905 0.98031 0.0
O174 O 0.44988 0.9365 0.36658 0.0
Tb175 Tb 0.49027 0.99565 0.37613 0.0
Eu176 Eu 0.54112 0.05992 0.32179 0.0
C177 C 0.42235 0.93143 0.3382 0.0
O178 O 0.41549 0.9651 0.31474 0.0
C179 C 0.44948 0.08933 0.36126 0.0
O180 O 0.60441 0.10208 0.31143 0.0
C181 C 0.50159 0.0203 0.26526 0.0
C182 C 0.60779 0.14126 0.32893 0.0
O183 O 0.56974 0.16369 0.33575 0.0
C184 C 0.58748 0.9735 0.35795 0.0
C185 C 0.50667 0.98747 0.23421 0.0
C186 C 0.46812 0.96228 0.22112 0.0
C187 C 0.47277 0.9309 0.19159 0.0
C188 C 0.51588 0.92525 0.17546 0.0
C189 C 0.55411 0.94968 0.18826 0.0
C190 C 0.54965 0.98073 0.21759 0.0
O191 O 0.44022 0.04566 0.35798 0.0
O192 O 0.49145 0.10402 0.35463 0.0
O193 O 0.4779 0.97756 0.43346 0.0
O194 O 0.52787 0.02902 0.42111 0.0
C195 C 0.50773 1.00604 0.44747 0.0
O196 O 0.5945 0.01709 0.35176 0.0
O197 O 0.54623 0.95732 0.35329 0.0
O198 O 0.52349 0.05995 0.26309 0.0
O199 O 0.50134 1.00311 0.2989 0.0
H200 H 0.43481 0.96694 0.23383 0.0
H201 H 0.52002 0.90065 0.15324 0.0
H202 H 0.5797 0.9987 0.2279 0.0
O203 O 0.28065 0.17022 0.64693 0.0
Tb204 Tb 0.24516 0.23438 0.65306 0.0
Eu205 Eu 0.2331 0.28941 0.57026 0.0
C206 C 0.25792 0.13301 0.65586 0.0
O207 O 0.2131 0.13284 0.65318 0.0
C208 C 0.1523 0.22512 0.60539 0.0
O209 O 0.18575 0.34969 0.57241 0.0
C210 C 0.24589 0.25415 0.50492 0.0
C211 C 0.18788 0.37542 0.60209 0.0
O212 O 0.22193 0.36939 0.62538 0.0
C213 C 0.31876 0.31139 0.62679 0.0
C214 C 0.27484 0.25838 0.47135 0.0
C215 C 0.29686 0.21916 0.4569 0.0
C216 C 0.32674 0.22295 0.42632 0.0
C217 C 0.33305 0.26586 0.40999 0.0
C218 C 0.30904 0.30422 0.42222 0.0
C219 C 0.28024 0.30082 0.45311 0.0
O220 O 0.19378 0.24327 0.60909 0.0
O221 O 0.19354 0.24274 0.60963 0.0
O222 O 0.20894 0.20133 0.69839 0.0
O223 O 0.23191 0.26878 0.70616 0.0
C224 C 0.2111 0.23433 0.722 0.0
O225 O 0.29587 0.32244 0.59628 0.0
O226 O 0.30723 0.27664 0.64865 0.0
O227 O 0.21661 0.28735 0.51165 0.0
O228 O 0.2657 0.23821 0.53504 0.0
H229 H 0.29163 0.18604 0.4699 0.0
H230 H 0.35666 0.26944 0.38696 0.0
H231 H 0.26289 0.33118 0.46303 0.0
O232 O 0.71017 0.36973 0.68407 0.0
Tb233 Tb 0.7317 0.30271 0.66545 0.0
Eu234 Eu 0.77426 0.23601 0.59362 0.0
C235 C 0.74189 0.39994 0.69335 0.0
O236 O 0.78526 0.39082 0.68846 0.0
C237 C 0.82397 0.31996 0.63067 0.0
O238 O 0.81121 0.169 0.59992 0.0
C239 C 0.75905 0.26435 0.52647 0.0
C240 C 0.80701 0.14943 0.63254 0.0
O241 O 0.78316 0.17165 0.65746 0.0
C242 C 0.67599 0.21952 0.63711 0.0
C243 C 0.72978 0.26078 0.49278 0.0
C244 C 0.7031 0.29881 0.48131 0.0
C245 C 0.67798 0.29691 0.44804 0.0
C246 C 0.67904 0.25727 0.42682 0.0
C247 C 0.70551 0.21966 0.43717 0.0
C248 C 0.73132 0.22141 0.47001 0.0
O249 O 0.78183 0.33537 0.62987 0.0
O250 O 0.83072 0.27724 0.62118 0.0
O251 O 0.73165 0.29471 0.72489 0.0
O252 O 0.7822 0.25938 0.69419 0.0
C253 C 0.76656 0.26744 0.72728 0.0
O254 O 0.712 0.2023 0.62014 0.0
O255 O 0.67321 0.26337 0.64534 0.0
O256 O 0.78624 0.22971 0.53462 0.0
O257 O 0.74182 0.28471 0.55587 0.0
H258 H 0.7026 0.32992 0.49764 0.0
H259 H 0.65888 0.25577 0.40152 0.0
H260 H 0.75239 0.19235 0.47758 0.0
O261 O 0.8346 0.6465 0.14703 0.0
Tb262 Tb 0.8125 0.71573 0.13478 0.0
Eu263 Eu 0.75273 0.78658 0.0872 0.0
C264 C 0.80822 0.61115 0.13845 0.0
O265 O 0.78715 0.61005 0.10636 0.0
C266 C 0.70808 0.70321 0.12765 0.0
O267 O 0.70371 0.8459 0.09133 0.0
C268 C 0.76379 0.74995 1.02222 0.0
C269 C 0.71306 0.88024 0.11373 0.0
O270 O 0.75469 0.88445 0.12724 0.0
C271 C 0.85933 0.8007 0.10699 0.0
C272 C 0.79615 0.74932 0.99039 0.0
C273 C 0.8186 0.70824 0.97997 0.0
C274 C 0.8481 0.70768 0.94901 0.0
C275 C 0.85485 0.74788 0.92882 0.0
C276 C 0.83269 0.78836 0.93846 0.0
C277 C 0.80324 0.78922 0.96901 0.0
O278 O 0.74717 0.68506 0.11821 0.0
O279 O 0.70292 0.74724 0.12329 0.0
O280 O 0.8366 0.72683 0.19105 0.0
O281 O 0.78214 0.76765 0.17077 0.0
C282 C 0.80977 0.76104 0.19868 0.0
O283 O 0.81812 0.8191 0.10836 0.0
O284 O 0.86236 0.75582 0.10378 0.0
O285 O 0.74065 0.78804 0.02799 0.0
O286 O 0.77713 0.72984 0.05304 0.0
H287 H 0.813 0.67697 0.99558 0.0
H288 H 0.87779 0.74769 0.90519 0.0
H289 H 0.78641 0.82107 0.97605 0.0
O290 O 0.83002 0.33605 0.99366 0.0
Tb291 Tb 0.80408 0.29149 0.94992 0.0
Eu292 Eu 0.73716 0.22189 0.96909 0.0
C293 C 0.85823 0.36994 0.98688 0.0
O294 O 0.87244 0.39665 1.01379 0.0
C295 C 0.70385 0.31322 0.92888 0.0
O296 O 0.68502 0.16695 0.95786 0.0
C297 C 0.74566 0.25182 0.03669 0.0
C298 C 0.69338 0.14031 0.92936 0.0
O299 O 0.73212 0.14513 0.91131 0.0
C300 C 0.84111 0.19536 0.95581 0.0
C301 C 0.77898 0.25126 0.06807 0.0
C302 C 0.8037 0.29151 0.07791 0.0
C303 C 0.83585 0.29069 0.10716 0.0
C304 C 0.84324 0.24975 0.12615 0.0
C305 C 0.81816 0.21018 0.11772 0.0
C306 C 0.78554 0.21107 0.08911 0.0
O307 O 0.7406 0.33087 0.94472 0.0
O308 O 0.69692 0.2687 0.93071 0.0
O309 O 0.83514 0.3061 0.89674 0.0
O310 O 0.78425 0.25238 0.90167 0.0
C311 C 0.81154 0.27432 0.87915 0.0
O312 O 0.79891 0.18263 0.94903 0.0
O313 O 0.84814 0.23636 0.9694 0.0
O314 O 0.72426 0.21329 0.02811 0.0
O315 O 0.7576 0.27578 1.00746 0.0
H316 H 0.79777 0.32332 0.0632 0.0
H317 H 0.86842 0.24889 0.14832 0.0
H318 H 0.76617 0.18019 0.083 0.0
O319 O 0.66358 0.70499 0.4088 0.0
Tb320 Tb 0.72531 0.74499 0.40892 0.0
Eu321 Eu 0.79507 0.79281 0.45857 0.0
C322 C 0.63948 0.69921 0.43926 0.0
O323 O 0.6523 0.71955 0.46996 0.0
C324 C 0.81706 0.69775 0.41975 0.0
O325 O 0.84375 0.85206 0.46404 0.0
C326 C 0.76348 0.75818 0.51979 0.0
C327 C 0.88293 0.84898 0.44664 0.0
O328 O 0.89649 0.80839 0.43568 0.0
C329 C 0.70463 0.83989 0.43083 0.0
C330 C 0.73385 0.76344 0.55277 0.0
C331 C 0.70248 0.72813 0.56185 0.0
C332 C 0.67837 0.72855 0.59572 0.0
C333 C 0.68455 0.76631 0.61922 0.0
C334 C 0.71115 0.80406 0.60846 0.0
C335 C 0.73772 0.80172 0.57617 0.0
O336 O 0.77281 0.69056 0.42423 0.0
O337 O 0.83384 0.73918 0.42534 0.0
O338 O 0.72212 0.74971 0.3485 0.0
O339 O 0.7734 0.78727 0.3776 0.0
C340 C 0.75746 0.77708 0.3451 0.0
O341 O 0.74909 0.84595 0.43145 0.0
O342 O 0.6898 0.79885 0.43826 0.0
O343 O 0.80194 0.78213 0.51791 0.0
O344 O 0.74327 0.75236 0.48757 0.0
H345 H 0.69788 0.69964 0.54297 0.0
H346 H 0.66626 0.76774 0.64528 0.0
H347 H 0.75964 0.83037 0.56868 0.0
O348 O 0.61995 0.47146 0.70896 0.0
Tb349 Tb 0.56641 0.47078 0.66685 0.0
Eu350 Eu 0.49068 0.5304 0.70973 0.0
C351 C 0.63144 0.50906 0.72756 0.0
O352 O 0.60645 0.54623 0.72521 0.0
C353 C 0.56449 0.57986 0.6554 0.0
O354 O 0.42042 0.55878 0.72039 0.0
C355 C 0.53416 0.50045 0.76832 0.0
C356 C 0.41415 0.60231 0.71302 0.0
O357 O 0.45016 0.62951 0.71346 0.0
C358 C 0.4659 0.43516 0.6733 0.0
C359 C 0.5311 0.47133 0.80196 0.0
C360 C 0.57006 0.44727 0.81509 0.0
C361 C 0.56739 0.41955 0.84715 0.0
C362 C 0.52476 0.41399 0.86435 0.0
C363 C 0.48582 0.43724 0.85143 0.0
C364 C 0.48955 0.46714 0.82109 0.0
O365 O 0.58639 0.54082 0.65483 0.0
O366 O 0.52521 0.58376 0.67299 0.0
O367 O 0.60616 0.43111 0.62664 0.0
O368 O 0.5497 0.47306 0.60894 0.0
C369 C 0.58223 0.44574 0.59825 0.0
O370 O 0.45178 0.47728 0.67745 0.0
O371 O 0.50903 0.42438 0.67971 0.0
O372 O 0.51091 0.53918 0.76755 0.0
O373 O 0.5341 0.47926 0.7363 0.0
H374 H 0.60209 0.44994 0.80036 0.0
H375 H 0.5219 0.39152 0.88818 0.0
H376 H 0.45953 0.4856 0.81153 0.0
O377 O 0.8863 0.56059 0.20409 0.0
Tb378 Tb 0.94769 0.54088 0.17422 0.0
Eu379 Eu 0.03098 0.4874 0.20738 0.0
C380 C 0.86739 0.53488 0.23034 0.0
O381 O 0.89031 0.50108 0.24542 0.0
C382 C 0.94874 0.43547 0.17105 0.0
O383 O 0.10178 0.45725 0.20921 0.0
C384 C 0.99116 0.50513 0.27052 0.0
C385 C 0.10565 0.4137 0.20091 0.0
O386 O 0.06846 0.38813 0.20074 0.0
C387 C 0.04272 0.58928 0.1768 0.0
C388 C 0.99339 0.53334 0.30473 0.0
C389 C 0.95324 0.55407 0.31918 0.0
C390 C 0.95551 0.58287 0.3507 0.0
C391 C 0.99832 0.58968 0.36766 0.0
C392 C 0.03752 0.56712 0.355 0.0
C393 C 0.03515 0.53923 0.32355 0.0
O394 O 0.92705 0.47033 0.18541 0.0
O395 O 0.99365 0.43578 0.17149 0.0
O396 O 0.92019 0.55925 0.11968 0.0
O397 O 0.97639 0.51298 0.12419 0.0
C398 C 0.9484 0.53293 0.10127 0.0
O399 O 0.06191 0.54873 0.17867 0.0
O400 O 0.99905 0.59443 0.18536 0.0
O401 O 0.02199 0.4726 0.2661 0.0
O402 O 0.98148 0.52666 0.23954 0.0
H403 H 0.92046 0.54836 0.30573 0.0
H404 H 1.00105 0.61194 0.39158 0.0
H405 H 0.06605 0.52279 0.31358 0.0
O406 O 0.63934 0.53025 0.34834 0.0
Tb407 Tb 0.57681 0.50801 0.37562 0.0
Eu408 Eu 0.48946 0.46128 0.31719 0.0
C409 C 0.65991 0.56803 0.35848 0.0
O410 O 0.69831 0.58092 0.34253 0.0
C411 C 0.56681 0.40961 0.35313 0.0
O412 O 0.41612 0.43962 0.30951 0.0
C413 C 0.53241 0.49586 0.26043 0.0
C414 C 0.40633 0.39733 0.31908 0.0
O415 O 0.43943 0.36698 0.31793 0.0
C416 C 0.47759 0.55168 0.37013 0.0
C417 C 0.52823 0.53097 0.23092 0.0
C418 C 0.567 0.5566 0.21954 0.0
C419 C 0.56307 0.58979 0.19126 0.0
C420 C 0.52006 0.59776 0.17511 0.0
C421 C 0.48141 0.57234 0.18602 0.0
C422 C 0.48585 0.53855 0.21349 0.0
O423 O 0.58222 0.44888 0.34095 0.0
O424 O 0.52394 0.40158 0.34554 0.0
O425 O 0.60828 0.50892 0.43053 0.0
O426 O 0.55302 0.46353 0.41986 0.0
C427 C 0.5822 0.47714 0.44471 0.0
O428 O 0.45952 0.51433 0.35564 0.0
O429 O 0.52232 0.55943 0.37125 0.0
O430 O 0.5047 0.45999 0.25844 0.0
O431 O 0.53836 0.5109 0.29444 0.0
H432 H 0.60011 0.55053 0.23233 0.0
H433 H 0.51668 0.62377 0.15381 0.0
H434 H 0.45588 0.51892 0.22178 0.0
O435 O 0.93818 0.43152 0.83022 0.0
Tb436 Tb 0.96817 0.47075 0.87545 0.0
Eu437 Eu 0.04834 0.52763 0.83979 0.0
C438 C 0.91048 0.39721 0.83646 0.0
O439 O 0.89679 0.37099 0.80916 0.0
C440 C 0.962 0.5735 0.8754 0.0
O441 O 0.10696 0.57776 0.83862 0.0
C442 C 0.01058 0.51213 0.7754 0.0
C443 C 0.14813 0.56574 0.8499 0.0
O444 O 0.15868 0.52212 0.85188 0.0
C445 C 0.06781 0.43032 0.88064 0.0
C446 C 1.00701 0.48314 0.74169 0.0
C447 C 0.96414 0.46392 0.73095 0.0
C448 C 0.95983 0.4406 0.69689 0.0
C449 C 0.99751 0.43856 0.67339 0.0
C450 C 0.04085 0.45335 0.68506 0.0
C451 C 0.0456 0.47615 0.71898 0.0
O452 O 0.94281 0.53765 0.86004 0.0
O453 O 1.00694 0.57594 0.87553 0.0
O454 O 0.92732 0.46205 0.92534 0.0
O455 O 0.99381 0.49432 0.92809 0.0
C456 C 0.95747 0.48224 0.94685 0.0
O457 O 0.08533 0.46909 0.8683 0.0
O458 O 0.02367 0.42148 0.8788 0.0
O459 O 0.0478 0.5373 0.78007 0.0
O460 O 0.994 0.49613 0.80658 0.0
H461 H 0.93463 0.46658 0.74899 0.0
H462 H 0.99427 0.42021 0.6474 0.0
H463 H 0.07934 0.48756 0.7278 0.0
C464 C 0.03861 0.96418 0.99234 0.0
C465 C 0.03617 0.0102 0.97954 0.0
C466 C 0.00974 0.0349 0.04055 0.0
C467 C 0.02077 0.99098 0.0545 0.0
N468 N 0.02215 0.91036 0.04186 0.0
N469 N 0.01704 0.08955 0.99027 0.0
C470 C 0.02791 0.9544 0.02971 0.0
C471 C 0.02074 0.04567 1.00324 0.0
N472 N 0.05403 0.93035 0.96949 0.0
N473 N 0.9852 0.06451 0.06181 0.0
H474 H 0.02193 0.09827 0.96257 0.0
H475 H 0.01142 0.11772 1.0073 0.0
H476 H 0.97259 0.05516 0.08767 0.0
H477 H 0.97259 0.09572 0.05228 0.0
H478 H 0.06196 0.89736 0.97839 0.0
H479 H 0.06232 0.93619 0.94197 0.0
H480 H 0.02291 0.88182 1.02463 0.0
H481 H 0.01099 0.90298 0.06865 0.0
C482 C 0.29842 0.81549 0.28108 0.0
C483 C 0.27743 0.78068 0.30272 0.0
C484 C 0.21897 0.77056 0.2544 0.0
C485 C 0.23857 0.80717 0.23418 0.0
N486 N 0.29181 0.87017 0.23072 0.0
N487 N 0.23147 0.71178 0.30037 0.0
C488 C 0.27639 0.83178 0.24858 0.0
C489 C 0.24114 0.75449 0.28698 0.0
N490 N 0.34253 0.82788 0.28853 0.0
N491 N 0.1784 0.75189 0.24276 0.0
H492 H 0.25168 0.69591 0.32039 0.0
H493 H 0.2081 0.68952 0.28787 0.0
H494 H 0.16129 0.76386 0.21926 0.0
H495 H 0.15982 0.72799 0.25815 0.0
H496 H 0.36109 0.85165 0.27305 0.0
H497 H 0.36271 0.8081 0.30614 0.0
H498 H 0.31678 0.89199 0.24162 0.0
H499 H 0.27658 0.8824 0.20652 0.0
C500 C 0.51643 0.97119 0.50928 0.0
C501 C 0.51459 0.01162 0.48773 0.0
C502 C 0.50631 0.05713 0.5442 0.0
C503 C 0.49815 0.01605 0.56426 0.0
N504 N 0.4922 0.93326 0.56527 0.0
N505 N 0.50924 0.09435 0.48445 0.0
C506 C 0.50306 0.97279 0.54684 0.0
C507 C 0.51085 0.05513 0.50509 0.0
N508 N 0.5316 0.93134 0.49377 0.0
N509 N 0.51093 0.09782 0.56259 0.0
H510 H 0.5136 0.095 0.45596 0.0
H511 H 0.5006 0.12622 0.49526 0.0
H512 H 0.50806 0.10059 0.59124 0.0
H513 H 0.52206 0.12803 0.55003 0.0
H514 H 0.53774 0.90161 0.50897 0.0
H515 H 0.54304 0.9297 0.46646 0.0
H516 H 0.49037 0.90132 0.55249 0.0
H517 H 0.48077 0.93268 0.59248 0.0
C518 C 0.20688 0.18519 0.77906 0.0
C519 C 0.20272 0.22909 0.76241 0.0
C520 C 0.20545 0.26468 0.8239 0.0
C521 C 0.21604 0.221 0.83959 0.0
N522 N 0.23898 0.14254 0.82984 0.0
N523 N 0.18346 0.30849 0.76917 0.0
C524 C 0.22027 0.18213 0.81652 0.0
C525 C 0.19813 0.26846 0.78494 0.0
N526 N 0.19491 0.14632 0.76025 0.0
N527 N 0.20343 0.30259 0.84598 0.0
H528 H 0.17407 0.31068 0.74138 0.0
H529 H 0.17622 0.33833 0.78363 0.0
H530 H 0.20639 0.30124 0.87453 0.0
H531 H 0.20066 0.33604 0.83633 0.0
H532 H 0.19505 0.11386 0.77234 0.0
H533 H 0.17712 0.14692 0.73528 0.0
H534 H 0.24711 0.11479 0.81298 0.0
H535 H 0.25111 0.13934 0.85679 0.0
C536 C 0.80528 0.22588 0.82145 0.0
C537 C 0.80851 0.26981 0.83856 0.0
C538 C 0.8062 0.30569 0.77818 0.0
C539 C 0.79298 0.26381 0.76199 0.0
N540 N 0.7788 0.18302 0.76768 0.0
N541 N 0.79557 0.35137 0.83235 0.0
C542 C 0.79275 0.22325 0.78334 0.0
C543 C 0.80513 0.30992 0.81678 0.0
N544 N 0.81415 0.18712 0.84135 0.0
N545 N 0.81775 0.3419 0.75633 0.0
H546 H 0.78719 0.3551 0.86016 0.0
H547 H 0.78962 0.38075 0.81665 0.0
H548 H 0.82154 0.33751 0.72803 0.0
H549 H 0.82782 0.3738 0.76652 0.0
H550 H 0.81607 0.15466 0.8295 0.0
H551 H 0.82347 0.18797 0.86916 0.0
H552 H 0.77308 0.15309 0.78276 0.0
H553 H 0.77099 0.18058 0.73956 0.0
C554 C 0.83897 0.77303 0.26372 0.0
C555 C 0.8067 0.78336 0.23561 0.0
C556 C 0.75159 0.80921 0.28119 0.0
C557 C 0.77904 0.78949 0.30931 0.0
N558 N 0.85543 0.76845 0.32961 0.0
N559 N 0.75023 0.83912 0.21882 0.0
C560 C 0.82529 0.77697 0.30145 0.0
C561 C 0.76822 0.81013 0.24451 0.0
N562 N 0.88257 0.76092 0.254 0.0
N563 N 0.70954 0.82668 0.28944 0.0
H564 H 0.7656 0.84365 0.19305 0.0
H565 H 0.72496 0.86308 0.22499 0.0
H566 H 0.69839 0.83034 0.31659 0.0
H567 H 0.68586 0.83642 0.26932 0.0
H568 H 0.90773 0.74982 0.27231 0.0
H569 H 0.89447 0.76462 0.22696 0.0
H570 H 0.88946 0.75897 0.32607 0.0
H571 H 0.84719 0.77268 0.35729 0.0
C572 C 0.54582 0.44259 0.50182 0.0
C573 C 0.58555 0.45893 0.48302 0.0
C574 C 0.62989 0.45251 0.54055 0.0
C575 C 0.59 0.43632 0.5587 0.0
N576 N 0.51803 0.39695 0.55304 0.0
N577 N 0.66868 0.46105 0.48182 0.0
C578 C 0.55091 0.42444 0.53782 0.0
C579 C 0.6288 0.45812 0.50147 0.0
N580 N 0.50276 0.448 0.48741 0.0
N581 N 0.66789 0.46456 0.56047 0.0
H582 H 0.6694 0.46124 0.453 0.0
H583 H 0.70095 0.45735 0.49394 0.0
H584 H 0.6704 0.45932 0.58891 0.0
H585 H 0.69577 0.48186 0.54889 0.0
H586 H 0.47313 0.43951 0.50208 0.0
H587 H 0.49577 0.46601 0.46323 0.0
H588 H 0.49054 0.38391 0.53775 0.0
H589 H 0.52157 0.38341 0.57966 0.0
C590 C 0.9911 0.51075 0.04436 0.0
C591 C 0.94886 0.52376 0.06076 0.0
C592 C 0.91108 0.51251 1.00065 0.0
C593 C 0.9519 0.4926 0.98664 0.0
N594 N 0.02622 0.46038 1.00007 0.0
N595 N 0.86577 0.52635 0.05522 0.0
C596 C 0.99054 0.48791 1.01 0.0
C597 C 0.90787 0.5218 0.03919 0.0
N598 N 0.03207 0.52168 0.06066 0.0
N599 N 0.87611 0.52447 0.97737 0.0
H600 H 0.86103 0.531 0.08341 0.0
H601 H 0.83521 0.52053 0.04088 0.0
H602 H 0.87733 0.51983 0.94885 0.0
H603 H 0.84786 0.5434 0.9861 0.0
H604 H 0.06357 0.5154 0.04802 0.0
H605 H 0.03456 0.54228 0.08411 0.0
H606 H 0.05349 0.45312 1.01786 0.0
H607 H 0.02554 0.44043 0.97615 0.0
C608 C 0.18748 0.15424 0.15473 0.0
C609 C 0.17404 0.17834 0.12243 0.0
C610 C 0.1013 0.13539 0.12149 0.0
C611 C 0.11243 0.11485 0.15615 0.0
N612 N 0.1633 0.11121 0.20879 0.0
N613 N 0.11578 0.19647 0.07743 0.0
C614 C 0.15499 0.1258 0.17347 0.0
C615 C 0.13033 0.17007 0.10642 0.0
N616 N 0.23149 0.15859 0.16745 0.0
N617 N 0.06414 0.12038 0.10187 0.0
H618 H 0.13678 0.22052 0.06429 0.0
H619 H 0.082 0.19657 0.06792 0.0
H620 H 0.04153 0.09575 0.11182 0.0
H621 H 0.05794 0.12957 0.07446 0.0
H622 H 0.24503 0.13851 0.18862 0.0
H623 H 0.25579 0.17946 0.15444 0.0
H624 H 0.19161 0.12165 0.2243 0.0
H625 H 0.13952 0.09233 0.22412 0.0
C626 C 0.11749 0.84718 0.34814 0.0
C627 C 0.11406 0.89294 0.36088 0.0
C628 C 0.16177 0.87358 0.4147 0.0
C629 C 0.16869 0.82864 0.40054 0.0
N630 N 0.15975 0.77618 0.34904 0.0
N631 N 0.13985 0.95228 0.40208 0.0
C632 C 0.14829 0.8163 0.36597 0.0
C633 C 0.13875 0.90693 0.39273 0.0
N634 N 0.09031 0.8328 0.31951 0.0
N635 N 0.17472 0.88371 0.45013 0.0
H636 H 0.12307 0.97736 0.38656 0.0
H637 H 0.16088 0.96546 0.42287 0.0
H638 H 0.18887 0.85951 0.46804 0.0
H639 H 0.16672 0.91446 0.46317 0.0
H640 H 0.0864 0.7985 0.31213 0.0
H641 H 0.06927 0.85498 0.30451 0.0
H642 H 0.14939 0.76768 0.32236 0.0
H643 H 0.18304 0.75303 0.35998 0.0
C644 C 0.42346 0.81042 0.61975 0.0
C645 C 0.37728 0.82057 0.61015 0.0
C646 C 0.39068 0.8991 0.632 0.0
C647 C 0.43273 0.88563 0.64947 0.0
N648 N 0.4833 0.82261 0.6649 0.0
N649 N 0.31469 0.87452 0.61329 0.0
C650 C 0.44786 0.83976 0.64443 0.0
C651 C 0.3602 0.86496 0.61786 0.0
N652 N 0.44398 0.77242 0.60546 0.0
N653 N 0.38049 0.94431 0.62686 0.0
H654 H 0.29072 0.85045 0.60419 0.0
H655 H 0.30014 0.9053 0.62183 0.0
H656 H 0.4034 0.97068 0.63278 0.0
H657 H 0.35195 0.95521 0.61184 0.0
H658 H 0.47867 0.76542 0.60929 0.0
H659 H 0.4275 0.75102 0.58645 0.0
H660 H 0.49191 0.78797 0.66462 0.0
H661 H 0.49996 0.84107 0.6856 0.0
C662 C 0.40405 0.17242 0.89528 0.0
C663 C 0.36186 0.15527 0.90999 0.0
C664 C 0.38122 0.07966 0.88248 0.0
C665 C 0.42049 0.09874 0.86506 0.0
N666 N 0.46138 0.16834 0.84835 0.0
N667 N 0.30505 0.09366 0.90569 0.0
C668 C 0.42848 0.14663 0.86867 0.0
C669 C 0.34881 0.10919 0.90027 0.0
N670 N 0.4228 0.21265 0.90749 0.0
N671 N 0.3753 0.03321 0.88334 0.0
H672 H 0.27822 0.114 0.91477 0.0
H673 H 0.29372 0.06193 0.89603 0.0
H674 H 0.39751 0.01057 0.87021 0.0
H675 H 0.35037 0.01721 0.89955 0.0
H676 H 0.453 0.22623 0.89635 0.0
H677 H 0.41206 0.22912 0.93146 0.0
H678 H 0.48015 0.15243 0.82744 0.0
H679 H 0.48015 0.15243 0.82744 0.0
C680 C 0.17843 0.87865 0.91751 0.0
C681 C 0.15984 0.83415 0.92341 0.0
C682 C 0.09444 0.85521 0.88404 0.0
C683 C 0.10912 0.90171 0.88283 0.0
N684 N 0.15961 0.95847 0.9112 0.0
N685 N 0.09138 0.78693 0.92173 0.0
C686 C 0.14965 0.91389 0.90307 0.0
C687 C 0.11499 0.82463 0.90973 0.0
N688 N 0.22372 0.88747 0.92432 0.0
N689 N 0.06247 0.83926 0.85957 0.0
H690 H 0.10401 0.76524 0.94232 0.0
H691 H 0.05729 0.78065 0.91433 0.0
H692 H 0.05058 0.85899 0.83751 0.0
H693 H 0.05299 0.80477 0.8582 0.0
H694 H 0.2392 0.91861 0.91735 0.0
H695 H 0.24674 0.86242 0.93303 0.0
H696 H 0.18643 0.96744 0.92892 0.0
H697 H 0.13805 0.98566 0.90501 0.0
C698 C 0.41749 0.912 0.14024 0.0
C699 C 0.43372 0.90271 0.17653 0.0
C700 C 0.38475 0.83341 0.17865 0.0
C701 C 0.36961 0.84229 0.14179 0.0
N702 N 0.38367 0.88112 0.08421 0.0
N703 N 0.44039 0.84973 0.22737 0.0
C704 C 0.38936 0.87918 0.12168 0.0
C705 C 0.41951 0.86192 0.19492 0.0
N706 N 0.42896 0.95251 0.12349 0.0
N707 N 0.36532 0.79843 0.19847 0.0
H708 H 0.46482 0.8703 0.2405 0.0
H709 H 0.4361 0.81801 0.24011 0.0
H710 H 0.33895 0.77774 0.18844 0.0
H711 H 0.3733 0.79102 0.22582 0.0
H712 H 0.41599 0.96282 0.09798 0.0
H713 H 0.44873 0.97769 0.13651 0.0
H714 H 0.40143 0.904 0.06729 0.0
H715 H 0.3647 0.85675 0.06953 0.0
C716 C 0.3828 0.15693 0.43287 0.0
C717 C 0.35277 0.18331 0.41054 0.0
C718 C 0.38622 0.14794 0.35493 0.0
C719 C 0.41417 0.12005 0.37764 0.0
N720 N 0.42303 0.0854 0.43781 0.0
N721 N 0.31626 0.19246 0.35091 0.0
C722 C 0.40746 0.12052 0.41649 0.0
C723 C 0.35147 0.17522 0.37163 0.0
N724 N 0.39032 0.16785 0.4691 0.0
N725 N 0.39272 0.14846 0.31756 0.0
H726 H 0.28904 0.21047 0.36261 0.0
H727 H 0.3115 0.18465 0.32306 0.0
H728 H 0.41679 0.12767 0.30447 0.0
H729 H 0.37643 0.17168 0.30002 0.0
H730 H 0.41515 0.15152 0.48517 0.0
H731 H 0.37567 0.19611 0.48199 0.0
H732 H 0.41502 0.08217 0.4658 0.0
H733 H 0.43879 0.05696 0.42637 0.0
C734 C 0.08885 0.17743 0.69055 0.0
C735 C 0.08167 0.13133 0.67928 0.0
C736 C 0.12362 0.14642 0.62153 0.0
C737 C 0.13178 0.19242 0.63282 0.0
N738 N 0.12449 0.25172 0.67866 0.0
N739 N 0.10007 0.06918 0.6385 0.0
C740 C 0.11523 0.20787 0.66767 0.0
C741 C 0.1017 0.11504 0.64616 0.0
N742 N 0.0692 0.19213 0.72271 0.0
N743 N 0.13619 0.13286 0.58681 0.0
H744 H 0.08415 0.04546 0.65594 0.0
H745 H 0.11794 0.05399 0.61688 0.0
H746 H 0.15445 0.15385 0.56862 0.0
H747 H 0.1263 0.10178 0.57509 0.0
H748 H 0.0689 0.22596 0.73166 0.0
H749 H 0.05187 0.16996 0.74061 0.0
H750 H 0.11615 0.26495 0.70442 0.0
H751 H 0.14396 0.27448 0.66291 0.0
C752 C 0.89962 0.88834 0.90096 0.0
C753 C 0.88906 0.88219 0.8629 0.0
C754 C 0.82565 0.83108 0.87925 0.0
C755 C 0.84273 0.82957 0.91597 0.0
N756 N 0.89404 0.85778 0.96315 0.0
N757 N 0.83995 0.85226 0.81517 0.0
C758 C 0.87834 0.85951 0.9275 0.0
C759 C 0.85075 0.85559 0.85186 0.0
N760 N 0.93052 0.92124 0.9115 0.0
N761 N 0.78608 0.808 0.87086 0.0
H762 H 0.85697 0.8714 0.79495 0.0
H763 H 0.81535 0.82987 0.80458 0.0
H764 H 0.76746 0.79007 0.8909 0.0
H765 H 0.76981 0.80954 0.84525 0.0
H766 H 0.93669 0.93031 0.9389 0.0
H767 H 0.94723 0.94252 0.89266 0.0
H768 H 0.92393 0.87397 0.97218 0.0
H769 H 0.87812 0.83825 0.98365 0.0
C770 C 0.83772 0.10057 0.68306 0.0
C771 C 0.83736 0.11122 0.64497 0.0
C772 C 0.91331 0.07657 0.63972 0.0
C773 C 0.91871 0.08184 0.67863 0.0
N774 N 0.88468 0.10204 0.73769 0.0
N775 N 0.86824 0.09448 0.58486 0.0
C776 C 0.8803 0.09363 0.70069 0.0
C777 C 0.87305 0.09413 0.62238 0.0
N778 N 0.79754 0.09741 0.70219 0.0
N779 N 0.94626 0.05432 0.61987 0.0
H780 H 0.83653 0.10012 0.57221 0.0
H781 H 0.895 0.08831 0.56654 0.0
H782 H 0.97509 0.03977 0.63236 0.0
H783 H 0.94336 0.04679 0.59185 0.0
H784 H 0.79613 0.08697 0.72977 0.0
H785 H 0.76576 0.09962 0.68888 0.0
H786 H 0.85776 0.11477 0.75358 0.0
H787 H 0.91588 0.10095 0.75178 0.0
C788 C 0.63699 0.13276 0.39377 0.0
C789 C 0.64534 0.14588 0.35645 0.0
C790 C 0.71582 0.18508 0.37538 0.0
C791 C 0.70246 0.17896 0.41274 0.0
N792 N 0.66482 0.13118 0.45722 0.0
N793 N 0.69888 0.17139 0.31023 0.0
C794 C 0.66828 0.14664 0.42169 0.0
C795 C 0.68739 0.16712 0.34666 0.0
N796 N 0.59776 0.1096 0.40274 0.0
N797 N 0.75334 0.2117 0.36804 0.0
H798 H 0.67796 0.15862 0.28912 0.0
H799 H 0.72998 0.18472 0.30098 0.0
H800 H 0.77422 0.22407 0.38938 0.0
H801 H 0.76344 0.22178 0.34167 0.0
H802 H 0.58708 0.10405 0.42979 0.0
H803 H 0.57499 0.097 0.38296 0.0
H804 H 0.64271 0.10497 0.46546 0.0
H805 H 0.68775 0.14165 0.47774 0.0
C806 C 0.6542 0.87543 0.16364 0.0
C807 C 0.67479 0.90103 0.13455 0.0
C808 C 0.61927 0.96285 0.14382 0.0
C809 C 0.59956 0.93734 0.17327 0.0
N810 N 0.604 0.87514 0.21694 0.0
N811 N 0.68301 0.97193 0.10102 0.0
C812 C 0.61897 0.89544 0.18498 0.0
C813 C 0.65933 0.94583 0.126 0.0
N814 N 0.66763 0.83144 0.17039 0.0
N815 N 0.59858 1.00223 0.13205 0.0
H816 H 0.71175 0.95978 0.08697 0.0
H817 H 0.67624 0.00641 0.09607 0.0
H818 H 0.57009 0.01615 0.14533 0.0
H819 H 0.60802 0.01984 0.10818 0.0
H820 H 0.64937 0.8087 0.18706 0.0
H821 H 0.69659 0.81719 0.15836 0.0
H822 H 0.61949 0.84662 0.22888 0.0
H823 H 0.57838 0.8892 0.23349 0.0
C824 C 0.85463 0.13284 0.12488 0.0
C825 C 0.82772 0.16854 0.14001 0.0
C826 C 0.85068 0.14655 0.2027 0.0
C827 C 0.88129 0.11449 0.18724 0.0
N828 N 0.89895 0.06427 0.13645 0.0
N829 N 0.78711 0.19883 0.19225 0.0
C830 C 0.87818 0.10294 0.14927 0.0
C831 C 0.82089 0.17122 0.17878 0.0
N832 N 0.86127 0.13006 0.08755 0.0
N833 N 0.85204 0.15492 0.23981 0.0
H834 H 0.76524 0.21705 0.17469 0.0
H835 H 0.7783 0.20055 0.22009 0.0
H836 H 0.87247 0.13563 0.25775 0.0
H837 H 0.8342 0.18139 0.25254 0.0
H838 H 0.88537 0.10854 0.07543 0.0
H839 H 0.84445 0.15099 0.06857 0.0
H840 H 0.89347 0.05143 0.10994 0.0
H841 H 0.91772 0.0425 0.15353 0.0
C842 C 0.60421 0.11132 0.85733 0.0
C843 C 0.58522 0.07056 0.87236 0.0
C844 C 0.64012 0.07313 0.92371 0.0
C845 C 0.65547 0.11638 0.91072 0.0
N846 N 0.64865 0.18016 0.86834 0.0
N847 N 0.58221 0.01309 0.92014 0.0
C848 C 0.63682 0.13633 0.87823 0.0
C849 C 0.60258 0.05134 0.90557 0.0
N850 N 0.59086 0.12618 0.82308 0.0
N851 N 0.66203 0.05269 0.95282 0.0
H852 H 0.55615 0.9952 0.90644 0.0
H853 H 0.58955 1.00023 0.94635 0.0
H854 H 0.68894 0.06842 0.96713 0.0
H855 H 0.65564 0.01918 0.96136 0.0
H856 H 0.60728 0.15259 0.80885 0.0
H857 H 0.56584 0.10963 0.80732 0.0
H858 H 0.63224 0.19859 0.84752 0.0
H859 H 0.67233 0.19996 0.883 0.0
C860 C 0.67318 0.87964 0.61702 0.0
C861 C 0.70575 0.84719 0.62975 0.0
C862 C 0.70788 0.8848 0.69051 0.0
C863 C 0.66999 0.91192 0.67955 0.0
N864 N 0.61592 0.9362 0.63272 0.0
N865 N 0.75672 0.81944 0.67705 0.0
C866 C 0.65303 0.91025 0.64267 0.0
C867 C 0.72445 0.85046 0.66596 0.0
N868 N 0.66093 0.8807 0.58048 0.0
N869 N 0.72764 0.89195 0.72433 0.0
H870 H 0.77104 0.79572 0.65887 0.0
H871 H 0.7684 0.81618 0.70412 0.0
H872 H 0.71563 0.91666 0.74273 0.0
H873 H 0.75757 0.87595 0.73322 0.0
H874 H 0.64142 0.90669 0.56861 0.0
H875 H 0.67331 0.85771 0.56096 0.0
H876 H 0.59767 0.93194 0.60819 0.0
H877 H 0.60129 0.96063 0.64997 0.0
C878 C 0.95621 0.9492 0.41651 0.0
C879 C 0.95444 0.94062 0.37793 0.0
C880 C 0.88832 0.8907 0.38726 0.0
C881 C 0.89919 0.88898 0.42539 0.0
N882 N 0.93836 0.92052 0.47805 0.0
N883 N 0.91681 0.90474 0.32568 0.0
C884 C 0.93088 0.92032 0.44078 0.0
C885 C 0.9189 0.91305 0.36282 0.0
N886 N 0.98385 0.98352 0.42946 0.0
N887 N 0.84914 0.87025 0.3746 0.0
H888 H 0.93794 0.921 0.30651 0.0
H889 H 0.89553 0.87984 0.31401 0.0
H890 H 0.82611 0.85423 0.39247 0.0
H891 H 0.83728 0.87348 0.34753 0.0
H892 H 0.98513 0.9935 0.45707 0.0
H893 H 1.0026 1.00454 0.41154 0.0
H894 H 0.96443 0.93926 0.49079 0.0
H895 H 0.9189 0.90043 0.49614 0.0
C896 C 0.60295 0.70128 0.62388 0.0
C897 C 0.64573 0.69069 0.60695 0.0
C898 C 0.62309 0.61026 0.60988 0.0
C899 C 0.5878 0.61979 0.63614 0.0
N900 N 0.55163 0.67959 0.67303 0.0
N901 N 0.7005 0.63044 0.59367 0.0
C902 C 0.57941 0.66682 0.64455 0.0
C903 C 0.65712 0.64382 0.60267 0.0
N904 N 0.58412 0.74371 0.6197 0.0
N905 N 0.62332 0.57035 0.5903 0.0
H906 H 0.72808 0.65322 0.59208 0.0
H907 H 0.70976 0.59594 0.5926 0.0
H908 H 0.59549 0.54779 0.5903 0.0
H909 H 0.64771 0.56376 0.56991 0.0
H910 H 0.55208 0.75199 0.63037 0.0
H911 H 0.59797 0.76843 0.60201 0.0
H912 H 0.54802 0.71376 0.68093 0.0
H913 H 0.53714 0.65682 0.69177 0.0
C914 C 0.62635 0.35552 0.84946 0.0
C915 C 0.60839 0.39659 0.86446 0.0
C916 C 0.65277 0.38342 0.92175 0.0
C917 C 0.67204 0.343 0.90636 0.0
N918 N 0.68612 0.2981 0.8514 0.0
N919 N 0.61311 0.45538 0.91089 0.0
C920 C 0.66144 0.33126 0.86897 0.0
C921 C 0.62456 0.41235 0.89933 0.0
N922 N 0.60868 0.33854 0.81722 0.0
N923 N 0.65908 0.39293 0.9584 0.0
H924 H 0.59282 0.47738 0.89506 0.0
H925 H 0.6273 0.47086 0.93421 0.0
H926 H 0.67816 0.37211 0.97608 0.0
H927 H 0.6419 0.41906 0.97215 0.0
H928 H 0.61622 0.30597 0.80721 0.0
H929 H 0.58396 0.35579 0.80168 0.0
H930 H 0.68371 0.29176 0.82312 0.0
H931 H 0.71239 0.27994 0.8642 0.0
C932 C 0.92921 0.38295 0.1169 0.0
C933 C 0.92156 0.39712 0.15413 0.0
C934 C 0.8515 0.34982 0.15576 0.0
C935 C 0.86169 0.33208 0.12021 0.0
N936 N 0.91467 0.32596 0.06944 0.0
N937 N 0.88135 0.38491 0.21151 0.0
C938 C 0.90169 0.34718 0.10138 0.0
C939 C 0.88419 0.37812 0.1742 0.0
N940 N 0.96157 0.40448 0.0957 0.0
N941 N 0.81034 0.33955 0.1719 0.0
H942 H 0.90583 0.40353 0.22637 0.0
H943 H 0.85761 0.3681 0.22829 0.0
H944 H 0.78546 0.31929 0.15895 0.0
H945 H 0.79913 0.35456 0.19637 0.0
H946 H 0.9642 0.39975 0.06723 0.0
H947 H 0.98378 0.4295 0.10579 0.0
H948 H 0.94657 0.33119 0.05714 0.0
H949 H 0.89486 0.30069 0.05661 0.0
C950 C 0.84843 0.65853 0.36307 0.0
C951 C 0.84651 0.66176 0.40218 0.0
C952 C 0.90511 0.60161 0.40584 0.0
C953 C 0.91411 0.60621 0.3672 0.0
N954 N 0.89706 0.64595 0.30998 0.0
N955 N 0.87471 0.63691 0.46142 0.0
C956 C 0.88625 0.63628 0.3459 0.0
C957 C 0.87534 0.63335 0.4238 0.0
N958 N 0.81359 0.67596 0.34226 0.0
N959 N 0.92387 0.56598 0.42513 0.0
H960 H 0.852 0.6584 0.47534 0.0
H961 H 0.89854 0.62074 0.4785 0.0
H962 H 0.94365 0.54076 0.41247 0.0
H963 H 0.91567 0.55868 0.45254 0.0
H964 H 0.81199 0.67309 0.31361 0.0
H965 H 0.78393 0.6888 0.35428 0.0
H966 H 0.87997 0.67069 0.29444 0.0
H967 H 0.92589 0.63288 0.29676 0.0
C968 C 0.64284 0.37977 0.37556 0.0
C969 C 0.59437 0.38211 0.3805 0.0
C970 C 0.60239 0.33505 0.43702 0.0
C971 C 0.65068 0.33556 0.43271 0.0
N972 N 0.71738 0.36812 0.40394 0.0
N973 N 0.52927 0.36871 0.4215 0.0
C974 C 0.67091 0.3618 0.40422 0.0
C975 C 0.57432 0.3616 0.41277 0.0
N976 N 0.66198 0.39117 0.34227 0.0
N977 N 0.58329 0.30781 0.4637 0.0
H978 H 0.50711 0.38886 0.40606 0.0
H979 H 0.51478 0.35875 0.44657 0.0
H980 H 0.60307 0.29057 0.48337 0.0
H981 H 0.54833 0.30042 0.46518 0.0
H982 H 0.69652 0.38607 0.33617 0.0
H983 H 0.64264 0.40017 0.31911 0.0
H984 H 0.73393 0.39038 0.38571 0.0
H985 H 0.73863 0.35474 0.42455 0.0
C986 C 0.91964 0.36448 0.69536 0.0
C987 C 0.91933 0.41183 0.68617 0.0
C988 C 0.8638 0.39643 0.63641 0.0
C989 C 0.86132 0.34944 0.64706 0.0
N990 N 0.885 0.28941 0.68965 0.0
N991 N 0.8857 0.47436 0.65282 0.0
C992 C 0.88911 0.33348 0.67707 0.0
C993 C 0.88948 0.42817 0.65825 0.0
N994 N 0.95054 0.34881 0.72091 0.0
N995 N 0.84308 0.41034 0.60436 0.0
H996 H 0.90413 0.49806 0.66864 0.0
H997 H 0.86138 0.48919 0.63543 0.0
H998 H 0.82596 0.3877 0.58673 0.0
H999 H 0.8468 0.44309 0.59325 0.0
H1000 H 0.95825 0.31431 0.72475 0.0
H1001 H 0.9703 0.37069 0.73733 0.0
H1002 H 0.89835 0.27826 0.71481 0.0
H1003 H 0.86606 0.264 0.67656 0.0
C1004 C 0.85856 0.64677 0.90147 0.0
C1005 C 0.87256 0.66598 0.93563 0.0
C1006 C 0.94358 0.62083 0.93294 0.0
C1007 C 0.93265 0.60709 0.89598 0.0
N1008 N 0.88258 0.61489 0.84298 0.0
N1009 N 0.93046 0.67502 0.98264 0.0
C1010 C 0.89065 0.62189 0.87981 0.0
C1011 C 0.91549 0.65374 0.95118 0.0
N1012 N 0.81447 0.65294 0.88956 0.0
N1013 N 0.97959 0.60153 0.95147 0.0
H1014 H 0.91015 0.69776 0.99759 0.0
H1015 H 0.96392 0.67228 0.99263 0.0
H1016 H 1.00206 0.57818 0.9398 0.0
H1017 H 0.98499 0.60578 0.97975 0.0
H1018 H 0.80073 0.63629 0.86658 0.0
H1019 H 0.79036 0.67109 0.90497 0.0
H1020 H 0.85461 0.62877 0.82895 0.0
H1021 H 0.90641 0.59973 0.8254 0.0
C1022 C 0.61806 0.65686 0.19568 0.0
C1023 C 0.6036 0.61633 0.17733 0.0
C1024 C 0.65496 0.63454 0.12532 0.0
C1025 C 0.67132 0.67388 0.14448 0.0
N1026 N 0.67587 0.71636 0.2017 0.0
N1027 N 0.61431 0.56172 0.12832 0.0
C1028 C 0.65487 0.68342 0.18073 0.0
C1029 C 0.62406 0.60367 0.14328 0.0
N1030 N 0.59579 0.67073 0.22693 0.0
N1031 N 0.66718 0.62781 0.08926 0.0
H1032 H 0.59164 0.53849 0.14061 0.0
H1033 H 0.63166 0.54823 0.1057 0.0
H1034 H 0.68871 0.65017 0.07483 0.0
H1035 H 0.65275 0.60254 0.07254 0.0
H1036 H 0.60084 0.70273 0.23904 0.0
H1037 H 0.56986 0.65143 0.23943 0.0
H1038 H 0.66898 0.72135 0.22964 0.0
H1039 H 0.70328 0.73608 0.19221 0.0
C1040 C 0.3 0.3502 0.36542 0.0
C1041 C 0.31731 0.34753 0.40195 0.0
C1042 C 0.38214 0.39633 0.3853 0.0
C1043 C 0.37045 0.38996 0.34738 0.0
N1044 N 0.31555 0.36837 0.30085 0.0
N1045 N 0.36862 0.37403 0.44922 0.0
C1046 C 0.32782 0.37012 0.33731 0.0
C1047 C 0.35554 0.37412 0.41289 0.0
N1048 N 0.25806 0.33129 0.35794 0.0
N1049 N 0.41972 0.42199 0.39464 0.0
H1050 H 0.34833 0.35923 0.46981 0.0
H1051 H 0.39928 0.3877 0.45915 0.0
H1052 H 0.4422 0.43531 0.37509 0.0
H1053 H 0.42782 0.43191 0.42148 0.0
H1054 H 0.24192 0.33261 0.33228 0.0
H1055 H 0.23804 0.31663 0.37882 0.0
H1056 H 0.28669 0.35128 0.29086 0.0
H1057 H 0.33508 0.38412 0.28022 0.0
C1058 C 0.39879 0.59577 0.19177 0.0
C1059 C 0.43585 0.58203 0.1691 0.0
C1060 C 0.3882 0.5951 0.11383 0.0
C1061 C 0.35288 0.61185 0.13715 0.0
N1062 N 0.31638 0.60016 0.19618 0.0
N1063 N 0.46098 0.55464 0.1096 0.0
C1064 C 0.35541 0.60259 0.17546 0.0
C1065 C 0.4291 0.5773 0.13027 0.0
N1066 N 0.40523 0.60579 0.22827 0.0
N1067 N 0.38244 0.59548 0.0764 0.0
H1068 H 0.49028 0.53995 0.12119 0.0
H1069 H 0.45671 0.5469 0.08173 0.0
H1070 H 0.35032 0.59978 0.06414 0.0
H1071 H 0.40903 0.59035 0.05769 0.0
H1072 H 0.37957 0.62081 0.24416 0.0
H1073 H 0.4371 0.60431 0.24136 0.0
H1074 H 0.31664 0.59084 0.22405 0.0
H1075 H 0.28381 0.60162 0.18409 0.0
C1076 C 0.21086 0.62241 0.86329 0.0
C1077 C 0.17158 0.59783 0.87516 0.0
C1078 C 0.16914 0.64192 0.93275 0.0
C1079 C 0.20424 0.6708 0.91846 0.0
N1080 N 0.26102 0.6884 0.87228 0.0
N1081 N 0.11447 0.58055 0.92148 0.0
C1082 C 0.22635 0.66054 0.88453 0.0
C1083 C 0.1516 0.60601 0.91034 0.0
N1084 N 0.2329 0.6092 0.83174 0.0
N1085 N 0.15209 0.64941 0.96747 0.0
H1086 H 0.10238 0.5521 0.90698 0.0
H1087 H 0.09424 0.58808 0.94431 0.0
H1088 H 0.16183 0.677 0.98399 0.0
H1089 H 0.1302 0.62697 0.98127 0.0
H1090 H 0.26364 0.62336 0.8225 0.0
H1091 H 0.22171 0.58155 0.81576 0.0
H1092 H 0.27575 0.68623 0.84618 0.0
H1093 H 0.27452 0.71498 0.8883 0.0
C1094 C 0.14786 0.44628 0.62415 0.0
C1095 C 0.14655 0.39869 0.61596 0.0
C1096 C 0.08391 0.38806 0.65918 0.0
C1097 C 0.08105 0.43604 0.66433 0.0
N1098 N 0.10565 0.51213 0.64686 0.0
N1099 N 0.10175 0.32855 0.61588 0.0
C1100 C 0.11174 0.4658 0.64544 0.0
C1101 C 0.11075 0.37094 0.63013 0.0
N1102 N 0.18356 0.47255 0.61175 0.0
N1103 N 0.06166 0.35873 0.68266 0.0
H1104 H 0.11906 0.31508 0.59332 0.0
H1105 H 0.07325 0.30912 0.62375 0.0
H1106 H 0.04483 0.37008 0.70634 0.0
H1107 H 0.06429 0.32322 0.6809 0.0
H1108 H 0.18899 0.50632 0.62007 0.0
H1109 H 0.20889 0.45959 0.59432 0.0
H1110 H 0.12437 0.53517 0.63075 0.0
H1111 H 0.07951 0.52728 0.66218 0.0
C1112 C 0.35394 0.6291 0.62296 0.0
C1113 C 0.3237 0.66335 0.63578 0.0
C1114 C 0.33886 0.64025 0.69995 0.0
C1115 C 0.37669 0.61454 0.68719 0.0
N1116 N 0.41918 0.58105 0.63671 0.0
N1117 N 0.27976 0.69625 0.68495 0.0
C1118 C 0.38308 0.60683 0.64872 0.0
C1119 C 0.31292 0.66629 0.67395 0.0
N1120 N 0.35578 0.61895 0.58612 0.0
N1121 N 0.32882 0.64037 0.73682 0.0
H1122 H 0.25954 0.71392 0.66581 0.0
H1123 H 0.27255 0.704 0.71238 0.0
H1124 H 0.34773 0.62125 0.75592 0.0
H1125 H 0.30041 0.65652 0.74821 0.0
H1126 H 0.374 0.5914 0.5754 0.0
H1127 H 0.33536 0.63507 0.56644 0.0
H1128 H 0.42985 0.57959 0.60929 0.0
H1129 H 0.4403 0.56258 0.65447 0.0
C1130 C 0.1512 0.61844 0.38497 0.0
C1131 C 0.15646 0.59747 0.42021 0.0
C1132 C 0.08761 0.55088 0.40993 0.0
C1133 C 0.08124 0.57338 0.37538 0.0
N1134 N 0.1098 0.62227 0.32669 0.0
N1135 N 0.13636 0.53857 0.46383 0.0
C1136 C 0.11415 0.60503 0.36177 0.0
C1137 C 0.12674 0.56187 0.43192 0.0
N1138 N 0.1808 0.6525 0.37433 0.0
N1139 N 0.05552 0.51988 0.42188 0.0
H1140 H 0.16465 0.54646 0.48044 0.0
H1141 H 0.11846 0.50973 0.47282 0.0
H1142 H 0.02813 0.50897 0.40542 0.0
H1143 H 0.05492 0.50583 0.44832 0.0
H1144 H 0.1753 0.67352 0.35159 0.0
H1145 H 0.21025 0.66142 0.38916 0.0
H1146 H 0.13506 0.64129 0.31328 0.0
H1147 H 0.08177 0.61531 0.30962 0.0
C1148 C 0.13962 0.40081 0.13887 0.0
C1149 C 0.14461 0.3987 0.17787 0.0
C1150 C 0.21254 0.35061 0.17091 0.0
C1151 C 0.20091 0.34421 0.13316 0.0
N1152 N 0.15531 0.36467 0.07996 0.0
N1153 N 0.18771 0.37636 0.2316 0.0
C1154 C 0.16588 0.37083 0.11647 0.0
C1155 C 0.18234 0.37579 0.19408 0.0
N1156 N 0.10904 0.4308 0.12349 0.0
N1157 N 0.25181 0.33129 0.18437 0.0
H1158 H 0.16686 0.39608 0.24875 0.0
H1159 H 0.21158 0.35653 0.24581 0.0
H1160 H 0.27405 0.31286 0.16741 0.0
H1161 H 0.26422 0.33656 0.21104 0.0
H1162 H 0.10649 0.43694 0.09519 0.0
H1163 H 0.08893 0.45279 0.13931 0.0
H1164 H 0.12636 0.37838 0.06723 0.0
H1165 H 0.1746 0.34396 0.06248 0.0
C1166 C 0.40287 0.41235 0.8493 0.0
C1167 C 0.44097 0.42912 0.86981 0.0
C1168 C 0.39844 0.41683 0.92752 0.0
C1169 C 0.36292 0.3959 0.90655 0.0
N1170 N 0.32055 0.40371 0.84948 0.0
N1171 N 0.46833 0.46286 0.92664 0.0
C1172 C 0.3614 0.40371 0.86801 0.0
C1173 C 0.43664 0.43643 0.90854 0.0
N1174 N 0.40667 0.40128 0.81278 0.0
N1175 N 0.39521 0.41863 0.96511 0.0
H1176 H 0.49543 0.47904 0.91293 0.0
H1177 H 0.4657 0.47213 0.95432 0.0
H1178 H 0.36447 0.41187 0.97887 0.0
H1179 H 0.42239 0.42759 0.98242 0.0
H1180 H 0.3801 0.38544 0.79817 0.0
H1181 H 0.43741 0.40315 0.79823 0.0
H1182 H 0.31798 0.41184 0.82145 0.0
H1183 H 0.28919 0.4023 0.86337 0.0
C1184 C 0.26435 0.95704 0.08614 0.0
C1185 C 0.23206 0.94071 0.06036 0.0
C1186 C 0.17538 0.98888 0.08881 0.0
C1187 C 0.20036 0.98353 0.12224 0.0
N1188 N 0.27439 0.97343 0.15131 0.0
N1189 N 0.1637 0.95792 0.02699 0.0
C1190 C 0.24748 0.97265 0.12047 0.0
C1191 C 0.19043 0.96428 0.05746 0.0
N1192 N 0.3098 0.95317 0.07888 0.0
N1193 N 0.1378 0.01631 0.08779 0.0
H1194 H 0.17545 0.93837 1.00475 0.0
H1195 H 0.13063 0.97095 1.02442 0.0
H1196 H 0.12737 0.03421 0.1112 0.0
H1197 H 0.12016 0.02401 0.06349 0.0
H1198 H 0.33488 0.96658 0.0964 0.0
H1199 H 0.32094 0.94027 0.05351 0.0
H1200 H 0.30793 0.96104 0.15159 0.0
H1201 H 0.2623 0.98538 0.17663 0.0
C1202 C 0.41178 0.85391 0.35584 0.0
C1203 C 0.39042 0.89333 0.34158 0.0
C1204 C 0.33624 0.89472 0.39203 0.0
C1205 C 0.36595 0.86433 0.41129 0.0
N1206 N 0.42591 0.80708 0.41023 0.0
N1207 N 0.31954 0.93216 0.3331 0.0
C1208 C 0.40146 0.84053 0.39254 0.0
C1209 C 0.34742 0.90646 0.3551 0.0
N1210 N 0.44557 0.83398 0.33548 0.0
N1211 N 0.29875 0.9128 0.40923 0.0
H1212 H 0.32929 0.94043 0.30609 0.0
H1213 H 0.28643 0.94194 0.34032 0.0
H1214 H 0.28938 0.90379 0.43612 0.0
H1215 H 0.27761 0.93744 0.39732 0.0
H1216 H 0.46334 0.80467 0.34331 0.0
H1217 H 0.45371 0.84662 0.30923 0.0
H1218 H 0.45335 0.78972 0.3985 0.0
H1219 H 0.41901 0.79678 0.43729 0.0
C1220 C 0.30091 0.1154 0.71464 0.0
C1221 C 0.27914 0.09991 0.68126 0.0
C1222 C 0.3006 0.02117 0.69592 0.0
C1223 C 0.32916 0.03895 0.72371 0.0
N1224 N 0.33844 0.09286 0.77206 0.0
N1225 N 0.25151 0.0372 0.64318 0.0
C1226 C 0.32203 0.08268 0.73769 0.0
C1227 C 0.27557 0.05216 0.67341 0.0
N1228 N 0.30409 0.16086 0.72345 0.0
N1229 N 0.30072 0.97499 0.69008 0.0
H1230 H 0.23446 0.05918 0.62508 0.0
H1231 H 0.24901 1.00306 0.6352 0.0
H1232 H 0.32044 0.95327 0.7067 0.0
H1233 H 0.28013 0.95813 0.6709 0.0
H1234 H 0.32374 0.17331 0.74534 0.0
H1235 H 0.28998 0.18715 0.70802 0.0
H1236 H 0.33206 0.12353 0.78579 0.0
H1237 H 0.35468 0.06783 0.78804 0.0
C1238 C 0.11359 0.15334 0.94748 0.0
C1239 C 0.15072 0.12616 0.95994 0.0
C1240 C 0.1606 0.09298 0.89855 0.0
C1241 C 0.12472 0.12188 0.88573 0.0
N1242 N 0.05975 0.17038 0.89811 0.0
N1243 N 0.20477 0.06502 0.95114 0.0
C1244 C 0.0989 0.14935 0.91026 0.0
C1245 C 0.17251 0.09397 0.93663 0.0
N1246 N 0.09375 0.18417 0.97091 0.0
N1247 N 0.18367 0.06576 0.87407 0.0
H1248 H 0.21333 0.06461 0.97917 0.0
H1249 H 0.22198 0.04001 0.93629 0.0
H1250 H 0.17565 0.06419 0.84599 0.0
H1251 H 0.21173 0.04553 0.88079 0.0
H1252 H 0.07023 0.20888 0.96254 0.0
H1253 H 0.10252 0.18648 0.99881 0.0
H1254 H 0.03658 0.18674 0.91546 0.0
H1255 H 0.04854 0.16875 0.87073 0.0
C1256 C 0.92587 0.15002 0.88601 0.0
C1257 C 0.92963 0.10338 0.89672 0.0
C1258 C 0.88074 0.11922 0.95086 0.0
C1259 C 0.87911 0.16628 0.94099 0.0
N1260 N 0.91243 0.2281 0.90513 0.0
N1261 N 0.91937 0.0464 0.94495 0.0
C1262 C 0.90584 0.18225 0.91066 0.0
C1263 C 0.90949 0.08867 0.93073 0.0
N1264 N 0.93919 0.16329 0.85136 0.0
N1265 N 0.85448 0.10355 0.97954 0.0
H1266 H 0.93997 0.02264 0.93166 0.0
H1267 H 0.91047 0.03629 0.97163 0.0
H1268 H 0.83637 0.12545 0.99697 0.0
H1269 H 0.84909 0.06886 0.985 0.0
H1270 H 0.93249 0.1957 0.84049 0.0
H1271 H 0.9522 0.14045 0.83189 0.0
H1272 H 0.93462 0.24115 0.88514 0.0
H1273 H 0.90044 0.253 0.92314 0.0
C1274 C 0.62466 0.18453 0.68697 0.0
C1275 C 0.63934 0.18657 0.64935 0.0
C1276 C 0.60141 0.11252 0.63799 0.0
C1277 C 0.58397 0.11212 0.67479 0.0
N1278 N 0.57083 0.15324 0.73153 0.0
N1279 N 0.63018 0.1586 0.58716 0.0
C1280 C 0.59254 0.15017 0.6982 0.0
C1281 C 0.62414 0.15236 0.62432 0.0
N1282 N 0.64393 0.21276 0.71285 0.0
N1283 N 0.59707 0.07473 0.61599 0.0
H1284 H 0.64504 0.18821 0.57613 0.0
H1285 H 0.6159 0.13702 0.56725 0.0
H1286 H 0.57927 0.04537 0.62382 0.0
H1287 H 0.61395 0.07134 0.59077 0.0
H1288 H 0.63845 0.20896 0.74116 0.0
H1289 H 0.66892 0.23706 0.70671 0.0
H1290 H 0.57168 0.18278 0.7477 0.0
H1291 H 0.54897 0.12778 0.74163 0.0
C1292 C 0.6749 0.92078 0.42519 0.0
C1293 C 0.67422 0.87458 0.41265 0.0
C1294 C 0.62679 0.89816 0.35952 0.0
C1295 C 0.62292 0.94276 0.37431 0.0
N1296 N 0.63744 0.99463 0.42526 0.0
N1297 N 0.64035 0.81823 0.37079 0.0
C1298 C 0.6458 0.95387 0.40803 0.0
C1299 C 0.64731 0.86284 0.38088 0.0
N1300 N 0.70255 0.93309 0.45416 0.0
N1301 N 0.61196 0.88979 0.32421 0.0
H1302 H 0.65667 0.79037 0.38257 0.0
H1303 H 0.61557 0.80839 0.35151 0.0
H1304 H 0.59871 0.91542 0.30711 0.0
H1305 H 0.6172 0.85891 0.31048 0.0
H1306 H 0.7094 0.96708 0.46113 0.0
H1307 H 0.72051 0.90949 0.47026 0.0
H1308 H 0.64808 1.00195 0.45212 0.0
H1309 H 0.61677 0.02006 0.41413 0.0
C1310 C 0.95981 0.8464 0.16551 0.0
C1311 C 0.94808 0.89392 0.16541 0.0
C1312 C 0.89172 0.87871 0.11649 0.0
C1313 C 0.89905 0.831 0.11892 0.0
N1314 N 0.9518 0.77125 0.13653 0.0
N1315 N 0.88485 0.94612 0.15333 0.0
C1316 C 0.9365 0.81508 0.14091 0.0
C1317 C 0.90916 0.90782 0.14431 0.0
N1318 N 0.98995 0.83056 0.1915 0.0
N1319 N 0.86735 0.89639 0.08756 0.0
H1320 H 0.88843 0.96256 0.17872 0.0
H1321 H 0.85517 0.95586 0.13921 0.0
H1322 H 0.85594 0.87589 0.0657 0.0
H1323 H 0.86368 0.93161 0.0834 0.0
H1324 H 0.99752 0.7961 0.19553 0.0
H1325 H 1.00316 0.85144 0.21236 0.0
H1326 H 0.98066 0.75807 0.14971 0.0
H1327 H 0.93965 0.74979 0.11572 0.0
C1328 C 0.70817 0.52237 0.70985 0.0
C1329 C 0.6791 0.51322 0.73988 0.0
C1330 C 0.71316 0.4395 0.74968 0.0
C1331 C 0.72959 0.44195 0.71273 0.0
N1332 N 0.75388 0.48859 0.66082 0.0
N1333 N 0.68207 0.48342 0.80099 0.0
C1334 C 0.73212 0.48489 0.69411 0.0
C1335 C 0.69211 0.4788 0.76451 0.0
N1336 N 0.70749 0.56497 0.6944 0.0
N1337 N 0.71526 0.39971 0.76941 0.0
H1338 H 0.66502 0.51256 0.81053 0.0
H1339 H 0.69282 0.46025 0.82117 0.0
H1340 H 0.73119 0.37052 0.75923 0.0
H1341 H 0.6998 0.39548 0.79515 0.0
H1342 H 0.72789 0.57499 0.6722 0.0
H1343 H 0.68735 0.59088 0.70586 0.0
H1344 H 0.7542 0.51831 0.64488 0.0
H1345 H 0.77138 0.4613 0.64881 0.0
C1346 C 0.91372 0.35853 0.93581 0.0
C1347 C 0.8725 0.37846 0.94885 0.0
C1348 C 0.85682 0.41148 0.88813 0.0
C1349 C 0.89581 0.38822 0.8743 0.0
N1350 N 0.9597 0.33696 0.88272 0.0
N1351 N 0.8019 0.41942 0.93782 0.0
C1352 C 0.92389 0.36092 0.89752 0.0
C1353 C 0.84311 0.40364 0.92512 0.0
N1354 N 0.9432 0.33801 0.96018 0.0
N1355 N 0.83424 0.44259 0.86641 0.0
H1356 H 0.79166 0.41633 0.96534 0.0
H1357 H 0.77654 0.43283 0.92064 0.0
H1358 H 0.84258 0.44847 0.83876 0.0
H1359 H 0.80913 0.46465 0.87634 0.0
H1360 H 0.97593 0.32681 0.95325 0.0
H1361 H 0.93616 0.33491 0.98833 0.0
H1362 H 0.97959 0.31368 0.89746 0.0
H1363 H 0.968 0.33821 0.85468 0.0
C1364 C 0.79648 0.57456 0.23622 0.0
C1365 C 0.81712 0.53222 0.23014 0.0
C1366 C 0.79327 0.53283 0.16621 0.0
C1367 C 0.79224 0.58143 0.16914 0.0
N1368 N 0.77202 0.64583 0.20796 0.0
N1369 N 0.79998 0.46112 0.20087 0.0
C1370 C 0.78569 0.60143 0.20474 0.0
C1371 C 0.80158 0.50764 0.19918 0.0
N1372 N 0.79088 0.58926 0.27155 0.0
N1373 N 0.78981 0.51161 0.13279 0.0
H1374 H 0.80822 0.44412 0.22544 0.0
H1375 H 0.78773 0.44066 0.1794 0.0
H1376 H 0.7812 0.52916 0.10869 0.0
H1377 H 0.79547 0.47667 0.12915 0.0
H1378 H 0.77297 0.61881 0.27841 0.0
H1379 H 0.80182 0.56909 0.29378 0.0
H1380 H 0.77028 0.66332 0.23298 0.0
H1381 H 0.76212 0.66486 0.18498 0.0
C1382 C 0.65788 0.59183 0.42464 0.0
C1383 C 0.63985 0.59528 0.38816 0.0
C1384 C 0.58456 0.65182 0.40938 0.0
C1385 C 0.61197 0.65735 0.4409 0.0
N1386 N 0.65 0.61625 0.48881 0.0
N1387 N 0.58382 0.62668 0.34555 0.0
C1388 C 0.6391 0.62041 0.45234 0.0
C1389 C 0.60143 0.62378 0.38052 0.0
N1390 N 0.69334 0.56279 0.43229 0.0
N1391 N 0.54579 0.67736 0.40611 0.0
H1392 H 0.59578 0.60672 0.32371 0.0
H1393 H 0.55849 0.64999 0.33797 0.0
H1394 H 0.53598 0.69954 0.42733 0.0
H1395 H 0.52249 0.67389 0.38439 0.0
H1396 H 0.71006 0.56177 0.45776 0.0
H1397 H 0.70699 0.54061 0.4126 0.0
H1398 H 0.66843 0.58881 0.49968 0.0
H1399 H 0.63699 0.63931 0.5082 0.0
C1400 C 0.41581 0.63558 0.43516 0.0
C1401 C 0.37551 0.64473 0.41427 0.0
C1402 C 0.40694 0.60028 0.36252 0.0
C1403 C 0.44481 0.58672 0.38479 0.0
N1404 N 0.48127 0.58574 0.44489 0.0
N1405 N 0.32998 0.63149 0.35942 0.0
C1406 C 0.44842 0.60309 0.42178 0.0
C1407 C 0.37015 0.62547 0.37847 0.0
N1408 N 0.42301 0.65796 0.46784 0.0
N1409 N 0.4073 0.59123 0.32545 0.0
H1410 H 0.30311 0.65173 0.36897 0.0
H1411 H 0.32176 0.61365 0.33537 0.0
H1412 H 0.43479 0.57545 0.3122 0.0
H1413 H 0.3827 0.60363 0.30717 0.0
H1414 H 0.45409 0.65714 0.48212 0.0
H1415 H 0.39882 0.67989 0.47948 0.0
H1416 H 0.48255 0.59267 0.47311 0.0
H1417 H 0.50502 0.56115 0.43676 0.0
C1418 C 0.06445 0.65024 0.12953 0.0
C1419 C 0.07183 0.62903 0.16455 0.0
C1420 C 0.14636 0.66857 0.16984 0.0
C1421 C 0.13941 0.68984 0.13465 0.0
N1422 N 0.0888 0.70624 0.08349 0.0
N1423 N 0.11374 0.62659 0.22172 0.0
C1424 C 0.09723 0.68271 0.1155 0.0
C1425 C 0.11108 0.64078 0.1857 0.0
N1426 N 0.02743 0.63729 0.10867 0.0
N1427 N 0.18709 0.67435 0.18814 0.0
H1428 H 0.08809 0.60693 0.23427 0.0
H1429 H 0.13881 0.63778 0.24022 0.0
H1430 H 0.21174 0.69846 0.1805 0.0
H1431 H 0.19721 0.65428 0.21054 0.0
H1432 H 0.02279 0.64644 0.0811 0.0
H1433 H 1.00212 0.61503 0.11836 0.0
H1434 H 0.05692 0.70707 0.07047 0.0
H1435 H 0.1131 0.72727 0.07077 0.0
C1436 C 0.1232 0.31733 0.91094 0.0
C1437 C 0.15245 0.33227 0.94022 0.0
C1438 C 0.1219 0.41055 0.93306 0.0
C1439 C 0.09782 0.39678 0.90057 0.0
N1440 N 0.08021 0.33825 0.85584 0.0
N1441 N 0.1802 0.39332 0.97912 0.0
C1442 C 0.0993 0.35035 0.88903 0.0
C1443 C 0.15179 0.37901 0.95124 0.0
N1444 N 0.11873 0.27167 0.90346 0.0
N1445 N 0.11465 0.45317 0.94759 0.0
H1446 H 0.19909 0.37059 0.9954 0.0
H1447 H 0.18652 0.42764 0.98521 0.0
H1448 H 0.09208 0.47679 0.936 0.0
H1449 H 0.12745 0.46379 0.97307 0.0
H1450 H 0.0946 0.25846 0.88503 0.0
H1451 H 0.13629 0.24639 0.91787 0.0
H1452 H 0.0848 0.30637 0.84352 0.0
H1453 H 0.06336 0.36156 0.83869 0.0
C1454 C 0.38791 0.36205 0.61169 0.0
C1455 C 0.35887 0.34091 0.63844 0.0
C1456 C 0.40841 0.37315 0.68734 0.0
C1457 C 0.43207 0.39993 0.66093 0.0
N1458 N 0.43648 0.42738 0.59804 0.0
N1459 N 0.33502 0.34025 0.70284 0.0
C1460 C 0.41941 0.39676 0.6231 0.0
C1461 C 0.3675 0.34981 0.6767 0.0
N1462 N 0.38733 0.34778 0.57574 0.0
N1463 N 0.42412 0.37078 0.72285 0.0
H1464 H 0.3018 0.32972 0.69632 0.0
H1465 H 0.33886 0.34934 0.73055 0.0
H1466 H 0.45341 0.38833 0.73175 0.0
H1467 H 0.41061 0.34773 0.74207 0.0
H1468 H 0.41018 0.36028 0.55597 0.0
H1469 H 0.36834 0.31954 0.56678 0.0
H1470 H 0.42419 0.42956 0.57099 0.0
H1471 H 0.46015 0.45284 0.60509 0.0
loop_
_geom_bond_atom_site_label_1
_geom_bond_atom_site_label_2
_geom_bond_distance
_geom_bond_site_symmetry_2
_ccdc_geom_bond_type
O0 Tb1 2.292 . S
O0 C3 1.255 . S
Tb1 O0 2.292 . S
Tb1 O17 2.326 1_565 S
Tb1 O19 2.500 1_565 S
Tb1 O20 2.473 1_565 S
Tb1 O23 2.324 1_455 S
Eu2 O6 2.292 . S
Eu2 C7 2.852 . S
Eu2 O18 2.324 1_655 S
Eu2 O22 2.326 . S
Eu2 O24 2.500 . S
Eu2 O25 2.473 1_655 S
C3 O0 1.255 . S
C3 O4 1.247 . S
O4 C3 1.247 . S
C5 O17 1.242 . S
C5 O18 1.258 . S
O6 Eu2 2.292 . S
O6 C8 1.255 . S
C7 Eu2 2.852 . S
C7 C11 1.503 . S
C7 O24 1.273 . S
C7 O25 1.257 1_655 S
C8 O6 1.255 . S
C8 O9 1.247 . S
O9 C8 1.247 . S
C10 O22 1.242 . S
C10 O23 1.258 1_545 S
C11 C7 1.503 . S
C11 C12 1.379 1_655 S
C11 C16 1.392 . S
C12 C11 1.379 1_455 S
C12 C13 1.404 1_545 S
C12 H26 0.929 . S
C13 C12 1.404 1_565 S
C13 C14 1.389 1_455 S
C14 C13 1.389 1_655 S
C14 C15 1.399 1_565 S
C14 H27 0.931 . S
C15 C14 1.399 1_545 S
C15 C16 1.390 . S
C16 C11 1.392 . S
C16 C15 1.390 . S
C16 H28 0.929 . S
O17 Tb1 2.326 1_545 S
O17 C5 1.242 . S
O18 Eu2 2.324 1_455 S
O18 C5 1.258 . S
O19 Tb1 2.500 1_545 S
O19 C21 1.273 . S
O20 Tb1 2.473 1_545 S
O20 C21 1.257 . S
C21 O19 1.273 . S
C21 O20 1.257 . S
O22 Eu2 2.326 . S
O22 C10 1.242 . S
O23 Tb1 2.324 1_655 S
O23 C10 1.258 1_565 S
O24 Eu2 2.500 . S
O24 C7 1.273 . S
O25 Eu2 2.473 1_455 S
O25 C7 1.257 1_455 S
H26 C12 0.929 . S
H27 C14 0.931 . S
H28 C16 0.929 . S
O29 Tb30 2.292 . S
O29 C32 1.255 . S
Tb30 O29 2.292 . S
Tb30 O46 2.326 . S
Tb30 O48 2.500 . S
Tb30 O49 2.473 . S
Tb30 O52 2.324 . S
Eu31 O35 2.292 . S
Eu31 C36 2.852 . S
Eu31 O47 2.324 . S
Eu31 O51 2.326 . S
Eu31 O53 2.500 . S
Eu31 O54 2.473 . S
C32 O29 1.255 . S
C32 O33 1.247 . S
O33 C32 1.247 . S
C34 O46 1.242 . S
C34 O47 1.258 . S
O35 Eu31 2.292 . S
O35 C37 1.255 . S
C36 Eu31 2.852 . S
C36 C40 1.503 . S
C36 O53 1.273 . S
C36 O54 1.257 . S
C37 O35 1.255 . S
C37 O38 1.247 . S
O38 C37 1.247 . S
C39 O51 1.242 . S
C39 O52 1.258 . S
C40 C36 1.503 . S
C40 C41 1.379 . S
C40 C45 1.392 . S
C41 C40 1.379 . S
C41 C42 1.404 . S
C41 H55 0.929 . S
C42 C41 1.404 . S
C42 C43 1.389 . S
C43 C42 1.389 . S
C43 C44 1.399 . S
C43 H56 0.931 . S
C44 C43 1.399 . S
C44 C45 1.390 . S
C45 C40 1.392 . S
C45 C44 1.390 . S
C45 H57 0.929 . S
O46 Tb30 2.326 . S
O46 C34 1.242 . S
O47 Eu31 2.324 . S
O47 C34 1.258 . S
O48 Tb30 2.500 . S
O48 C50 1.273 . S
O49 Tb30 2.473 . S
O49 C50 1.257 . S
C50 O48 1.273 . S
C50 O49 1.257 . S
O51 Eu31 2.326 . S
O51 C39 1.242 . S
O52 Tb30 2.324 . S
O52 C39 1.258 . S
O53 Eu31 2.500 . S
O53 C36 1.273 . S
O54 Eu31 2.473 . S
O54 C36 1.257 . S
H55 C41 0.929 . S
H56 C43 0.931 . S
H57 C45 0.929 . S
O58 Tb59 2.292 . S
O58 C61 1.255 . S
Tb59 O58 2.292 . S
Tb59 O75 2.326 1_545 S
Tb59 O77 2.500 1_545 S
Tb59 O78 2.473 1_545 S
Tb59 O81 2.324 . S
Eu60 O64 2.292 . S
Eu60 C65 2.852 . S
Eu60 O76 2.324 . S
Eu60 O80 2.326 . S
Eu60 O82 2.500 . S
Eu60 O83 2.473 . S
C61 O58 1.255 . S
C61 O62 1.247 . S
O62 C61 1.247 . S
C63 O75 1.242 . S
C63 O76 1.258 . S
O64 Eu60 2.292 . S
O64 C66 1.255 . S
C65 Eu60 2.852 . S
C65 C69 1.503 . S
C65 O82 1.273 . S
C65 O83 1.257 . S
C66 O64 1.255 . S
C66 O67 1.247 . S
O67 C66 1.247 . S
C68 O80 1.242 . S
C68 O81 1.258 1_565 S
C69 C65 1.503 . S
C69 C70 1.379 . S
C69 C74 1.392 . S
C70 C69 1.379 . S
C70 C71 1.404 1_565 S
C70 H84 0.929 . S
C71 C70 1.404 1_545 S
C71 C72 1.389 . S
C72 C71 1.389 . S
C72 C73 1.399 1_545 S
C72 H85 0.931 . S
C73 C72 1.399 1_565 S
C73 C74 1.390 . S
C74 C69 1.392 . S
C74 C73 1.390 . S
C74 H86 0.929 . S
O75 Tb59 2.326 1_565 S
O75 C63 1.242 . S
O76 Eu60 2.324 . S
O76 C63 1.258 . S
O77 Tb59 2.500 1_565 S
O77 C79 1.273 . S
O78 Tb59 2.473 1_565 S
O78 C79 1.257 . S
C79 O77 1.273 . S
C79 O78 1.257 . S
O80 Eu60 2.326 . S
O80 C68 1.242 . S
O81 Tb59 2.324 . S
O81 C68 1.258 1_545 S
O82 Eu60 2.500 . S
O82 C65 1.273 . S
O83 Eu60 2.473 . S
O83 C65 1.257 . S
H84 C70 0.929 . S
H85 C72 0.931 . S
H86 C74 0.929 . S
O87 Tb88 2.292 . S
O87 C90 1.255 . S
Tb88 O87 2.292 . S
Tb88 O104 2.326 . S
Tb88 O106 2.500 . S
Tb88 O107 2.473 . S
Tb88 O110 2.324 . S
Eu89 O93 2.292 . S
Eu89 C94 2.852 1_556 S
Eu89 O105 2.324 . S
Eu89 O109 2.326 . S
Eu89 O111 2.488 1_556 S
Eu89 O112 2.473 . S
C90 O87 1.255 . S
C90 O91 1.247 . S
O91 C90 1.247 . S
C92 O104 1.242 . S
C92 O105 1.258 . S
O93 Eu89 2.292 . S
O93 C95 1.255 . S
C94 Eu89 2.852 1_554 S
C94 C98 1.503 . S
C94 O111 1.275 . S
C94 O112 1.257 1_554 S
C95 O93 1.255 . S
C95 O96 1.247 . S
O96 C95 1.247 . S
C97 O109 1.242 . S
C97 O110 1.258 . S
C98 C94 1.503 . S
C98 C99 1.379 . S
C98 C103 1.392 . S
C99 C98 1.379 . S
C99 C100 1.404 . S
C99 H113 0.929 . S
C100 C99 1.404 . S
C100 C101 1.389 . S
C101 C100 1.389 . S
C101 C102 1.399 . S
C101 H114 0.931 . S
C102 C101 1.399 . S
C102 C103 1.390 . S
C103 C98 1.392 . S
C103 C102 1.390 . S
C103 H115 0.929 . S
O104 Tb88 2.326 . S
O104 C92 1.242 . S
O105 Eu89 2.324 . S
O105 C92 1.258 . S
O106 Tb88 2.500 . S
O106 C108 1.273 . S
O107 Tb88 2.473 . S
O107 C108 1.257 . S
C108 O106 1.273 . S
C108 O107 1.257 . S
O109 Eu89 2.326 . S
O109 C97 1.242 . S
O110 Tb88 2.324 . S
O110 C97 1.258 . S
O111 Eu89 2.488 1_554 S
O111 C94 1.275 . S
O112 Eu89 2.473 . S
O112 C94 1.257 1_556 S
H113 C99 0.929 . S
H114 C101 0.931 . S
H115 C103 0.929 . S
O116 Tb117 2.292 . S
O116 C119 1.255 . S
Tb117 O116 2.292 . S
Tb117 O133 2.326 1_545 S
Tb117 O135 2.500 1_545 S
Tb117 O136 2.473 1_545 S
Tb117 O139 2.324 1_455 S
Eu118 O122 2.292 . S
Eu118 C123 2.852 . S
Eu118 O134 2.324 1_655 S
Eu118 O138 2.326 . S
Eu118 O140 2.500 . S
Eu118 O141 2.473 1_655 S
C119 O116 1.255 . S
C119 O120 1.247 . S
O120 C119 1.247 . S
C121 O133 1.242 . S
C121 O134 1.258 . S
O122 Eu118 2.292 . S
O122 C124 1.255 . S
C123 Eu118 2.852 . S
C123 C127 1.503 . S
C123 O140 1.273 . S
C123 O141 1.257 1_655 S
C124 O122 1.255 . S
C124 O125 1.247 . S
O125 C124 1.247 . S
C126 O138 1.242 . S
C126 O139 1.258 1_565 S
C127 C123 1.503 . S
C127 C128 1.379 1_655 S
C127 C132 1.392 . S
C128 C127 1.379 1_455 S
C128 C129 1.404 1_565 S
C128 H142 0.929 . S
C129 C128 1.404 1_545 S
C129 C130 1.389 1_455 S
C130 C129 1.389 1_655 S
C130 C131 1.399 1_545 S
C130 H143 0.931 . S
C131 C130 1.399 1_565 S
C131 C132 1.390 . S
C132 C127 1.392 . S
C132 C131 1.390 . S
C132 H144 0.929 . S
O133 Tb117 2.326 1_565 S
O133 C121 1.242 . S
O134 Eu118 2.324 1_455 S
O134 C121 1.258 . S
O135 Tb117 2.500 1_565 S
O135 C137 1.273 . S
O136 Tb117 2.473 1_565 S
O136 C137 1.257 . S
C137 O135 1.273 . S
C137 O136 1.257 . S
O138 Eu118 2.326 . S
O138 C126 1.242 . S
O139 Tb117 2.324 1_655 S
O139 C126 1.258 1_545 S
O140 Eu118 2.500 . S
O140 C123 1.273 . S
O141 Eu118 2.473 1_455 S
O141 C123 1.257 1_455 S
H142 C128 0.929 . S
H143 C130 0.931 . S
H144 C132 0.929 . S
O145 Tb146 2.292 . S
O145 C148 1.255 . S
Tb146 O145 2.292 . S
Tb146 O162 2.326 . S
Tb146 O164 2.500 . S
Tb146 O165 2.473 . S
Tb146 O168 2.324 . S
Eu147 O151 2.292 . S
Eu147 C152 2.852 1_554 S
Eu147 O163 2.324 . S
Eu147 O167 2.326 . S
Eu147 O169 2.488 1_554 S
Eu147 O170 2.473 . S
C148 O145 1.255 . S
C148 O149 1.247 . S
O149 C148 1.247 . S
C150 O162 1.242 . S
C150 O163 1.258 . S
O151 Eu147 2.292 . S
O151 C153 1.255 . S
C152 Eu147 2.852 1_556 S
C152 C156 1.503 . S
C152 O169 1.275 . S
C152 O170 1.257 1_556 S
C153 O151 1.255 . S
C153 O154 1.247 . S
O154 C153 1.247 . S
C155 O167 1.242 . S
C155 O168 1.258 . S
C156 C152 1.503 . S
C156 C157 1.379 . S
C156 C161 1.392 . S
C157 C156 1.379 . S
C157 C158 1.404 . S
C157 H171 0.929 . S
C158 C157 1.404 . S
C158 C159 1.389 . S
C159 C158 1.389 . S
C159 C160 1.399 . S
C159 H172 0.931 . S
C160 C159 1.399 . S
C160 C161 1.390 . S
C161 C156 1.392 . S
C161 C160 1.390 . S
C161 H173 0.929 . S
O162 Tb146 2.326 . S
O162 C150 1.242 . S
O163 Eu147 2.324 . S
O163 C150 1.258 . S
O164 Tb146 2.500 . S
O164 C166 1.273 . S
O165 Tb146 2.473 . S
O165 C166 1.257 . S
C166 O164 1.273 . S
C166 O165 1.257 . S
O167 Eu147 2.326 . S
O167 C155 1.242 . S
O168 Tb146 2.324 . S
O168 C155 1.258 . S
O169 Eu147 2.488 1_556 S
O169 C152 1.275 . S
O170 Eu147 2.473 . S
O170 C152 1.257 1_554 S
H171 C157 0.929 . S
H172 C159 0.931 . S
H173 C161 0.929 . S
O174 Tb175 2.292 . S
O174 C177 1.255 . S
Tb175 O174 2.292 . S
Tb175 O191 2.326 1_565 S
Tb175 O193 2.500 1_565 S
Tb175 O194 2.473 1_565 S
Tb175 O197 2.324 . S
Eu176 O180 2.292 . S
Eu176 C181 2.852 . S
Eu176 O192 2.324 . S
Eu176 O196 2.326 . S
Eu176 O198 2.500 . S
Eu176 O199 2.473 . S
C177 O174 1.255 . S
C177 O178 1.247 . S
O178 C177 1.247 . S
C179 O191 1.242 . S
C179 O192 1.258 . S
O180 Eu176 2.292 . S
O180 C182 1.255 . S
C181 Eu176 2.852 . S
C181 C185 1.503 . S
C181 O198 1.273 . S
C181 O199 1.257 . S
C182 O180 1.255 . S
C182 O183 1.247 . S
O183 C182 1.247 . S
C184 O196 1.242 . S
C184 O197 1.258 1_545 S
C185 C181 1.503 . S
C185 C186 1.379 . S
C185 C190 1.392 . S
C186 C185 1.379 . S
C186 C187 1.404 1_545 S
C186 H200 0.929 . S
C187 C186 1.404 1_565 S
C187 C188 1.389 . S
C188 C187 1.389 . S
C188 C189 1.399 1_565 S
C188 H201 0.931 . S
C189 C188 1.399 1_545 S
C189 C190 1.390 . S
C190 C185 1.392 . S
C190 C189 1.390 . S
C190 H202 0.929 . S
O191 Tb175 2.326 1_545 S
O191 C179 1.242 . S
O192 Eu176 2.324 . S
O192 C179 1.258 . S
O193 Tb175 2.500 1_545 S
O193 C195 1.273 . S
O194 Tb175 2.473 1_545 S
O194 C195 1.257 . S
C195 O193 1.273 . S
C195 O194 1.257 . S
O196 Eu176 2.326 . S
O196 C184 1.242 . S
O197 Tb175 2.324 . S
O197 C184 1.258 1_565 S
O198 Eu176 2.500 . S
O198 C181 1.273 . S
O199 Eu176 2.473 . S
O199 C181 1.257 . S
H200 C186 0.929 . S
H201 C188 0.931 . S
H202 C190 0.929 . S
O203 Tb204 2.292 . S
O203 C206 1.255 . S
Tb204 O203 2.292 . S
Tb204 O220 2.326 . S
Tb204 O222 2.500 . S
Tb204 O223 2.473 . S
Tb204 O226 2.324 . S
Eu205 O209 2.292 . S
Eu205 C210 2.852 . S
Eu205 O221 2.324 . S
Eu205 O225 2.326 . S
Eu205 O227 2.500 . S
Eu205 O228 2.473 . S
C206 O203 1.255 . S
C206 O207 1.247 . S
O207 C206 1.247 . S
C208 O220 1.242 . S
C208 O221 1.258 . S
O209 Eu205 2.292 . S
O209 C211 1.255 . S
C210 Eu205 2.852 . S
C210 C214 1.503 . S
C210 O227 1.273 . S
C210 O228 1.257 . S
C211 O209 1.255 . S
C211 O212 1.247 . S
O212 C211 1.247 . S
C213 O225 1.242 . S
C213 O226 1.258 . S
C214 C210 1.503 . S
C214 C215 1.379 . S
C214 C219 1.392 . S
C215 C214 1.379 . S
C215 C216 1.404 . S
C215 H229 0.929 . S
C216 C215 1.404 . S
C216 C217 1.389 . S
C217 C216 1.389 . S
C217 C218 1.399 . S
C217 H230 0.931 . S
C218 C217 1.399 . S
C218 C219 1.390 . S
C219 C214 1.392 . S
C219 C218 1.390 . S
C219 H231 0.929 . S
O220 Tb204 2.326 . S
O220 C208 1.242 . S
O221 Eu205 2.324 . S
O221 C208 1.258 . S
O222 Tb204 2.500 . S
O222 C224 1.273 . S
O223 Tb204 2.473 . S
O223 C224 1.257 . S
C224 O222 1.273 . S
C224 O223 1.257 . S
O225 Eu205 2.326 . S
O225 C213 1.242 . S
O226 Tb204 2.324 . S
O226 C213 1.258 . S
O227 Eu205 2.500 . S
O227 C210 1.273 . S
O228 Eu205 2.473 . S
O228 C210 1.257 . S
H229 C215 0.929 . S
H230 C217 0.931 . S
H231 C219 0.929 . S
O232 Tb233 2.292 . S
O232 C235 1.255 . S
Tb233 O232 2.292 . S
Tb233 O249 2.326 . S
Tb233 O251 2.500 . S
Tb233 O252 2.473 . S
Tb233 O255 2.324 . S
Eu234 O238 2.292 . S
Eu234 C239 2.852 . S
Eu234 O250 2.324 . S
Eu234 O254 2.326 . S
Eu234 O256 2.500 . S
Eu234 O257 2.473 . S
C235 O232 1.255 . S
C235 O236 1.247 . S
O236 C235 1.247 . S
C237 O249 1.242 . S
C237 O250 1.258 . S
O238 Eu234 2.292 . S
O238 C240 1.255 . S
C239 Eu234 2.852 . S
C239 C243 1.503 . S
C239 O256 1.273 . S
C239 O257 1.257 . S
C240 O238 1.255 . S
C240 O241 1.247 . S
O241 C240 1.247 . S
C242 O254 1.242 . S
C242 O255 1.258 . S
C243 C239 1.503 . S
C243 C244 1.379 . S
C243 C248 1.392 . S
C244 C243 1.379 . S
C244 C245 1.404 . S
C244 H258 0.929 . S
C245 C244 1.404 . S
C245 C246 1.389 . S
C246 C245 1.389 . S
C246 C247 1.399 . S
C246 H259 0.931 . S
C247 C246 1.399 . S
C247 C248 1.390 . S
C248 C243 1.392 . S
C248 C247 1.390 . S
C248 H260 0.929 . S
O249 Tb233 2.326 . S
O249 C237 1.242 . S
O250 Eu234 2.324 . S
O250 C237 1.258 . S
O251 Tb233 2.500 . S
O251 C253 1.273 . S
O252 Tb233 2.473 . S
O252 C253 1.257 . S
C253 O251 1.273 . S
C253 O252 1.257 . S
O254 Eu234 2.326 . S
O254 C242 1.242 . S
O255 Tb233 2.324 . S
O255 C242 1.258 . S
O256 Eu234 2.500 . S
O256 C239 1.273 . S
O257 Eu234 2.473 . S
O257 C239 1.257 . S
H258 C244 0.929 . S
H259 C246 0.931 . S
H260 C248 0.929 . S
O261 Tb262 2.292 . S
O261 C264 1.255 . S
Tb262 O261 2.292 . S
Tb262 O278 2.326 . S
Tb262 O280 2.500 . S
Tb262 O281 2.473 . S
Tb262 O284 2.324 . S
Eu263 O267 2.292 . S
Eu263 C268 2.852 1_554 S
Eu263 O279 2.324 . S
Eu263 O283 2.326 . S
Eu263 O285 2.488 1_554 S
Eu263 O286 2.473 . S
C264 O261 1.255 . S
C264 O265 1.247 . S
O265 C264 1.247 . S
C266 O278 1.242 . S
C266 O279 1.258 . S
O267 Eu263 2.292 . S
O267 C269 1.255 . S
C268 Eu263 2.852 1_556 S
C268 C272 1.503 . S
C268 O285 1.275 . S
C268 O286 1.257 1_556 S
C269 O267 1.255 . S
C269 O270 1.247 . S
O270 C269 1.247 . S
C271 O283 1.242 . S
C271 O284 1.258 . S
C272 C268 1.503 . S
C272 C273 1.379 . S
C272 C277 1.392 . S
C273 C272 1.379 . S
C273 C274 1.404 . S
C273 H287 0.929 . S
C274 C273 1.404 . S
C274 C275 1.389 . S
C275 C274 1.389 . S
C275 C276 1.399 . S
C275 H288 0.931 . S
C276 C275 1.399 . S
C276 C277 1.390 . S
C277 C272 1.392 . S
C277 C276 1.390 . S
C277 H289 0.929 . S
O278 Tb262 2.326 . S
O278 C266 1.242 . S
O279 Eu263 2.324 . S
O279 C266 1.258 . S
O280 Tb262 2.500 . S
O280 C282 1.273 . S
O281 Tb262 2.473 . S
O281 C282 1.257 . S
C282 O280 1.273 . S
C282 O281 1.257 . S
O283 Eu263 2.326 . S
O283 C271 1.242 . S
O284 Tb262 2.324 . S
O284 C271 1.258 . S
O285 Eu263 2.488 1_556 S
O285 C268 1.275 . S
O286 Eu263 2.473 . S
O286 C268 1.257 1_554 S
H287 C273 0.929 . S
H288 C275 0.931 . S
H289 C277 0.929 . S
O290 Tb291 2.292 . S
O290 C293 1.255 . S
Tb291 O290 2.292 . S
Tb291 O307 2.326 . S
Tb291 O309 2.500 . S
Tb291 O310 2.473 . S
Tb291 O313 2.324 . S
Eu292 O296 2.292 . S
Eu292 C297 2.852 1_556 S
Eu292 O308 2.324 . S
Eu292 O312 2.326 . S
Eu292 O314 2.488 1_556 S
Eu292 O315 2.473 . S
C293 O290 1.255 . S
C293 O294 1.247 . S
O294 C293 1.247 . S
C295 O307 1.242 . S
C295 O308 1.258 . S
O296 Eu292 2.292 . S
O296 C298 1.255 . S
C297 Eu292 2.852 1_554 S
C297 C301 1.503 . S
C297 O314 1.275 . S
C297 O315 1.257 1_554 S
C298 O296 1.255 . S
C298 O299 1.247 . S
O299 C298 1.247 . S
C300 O312 1.242 . S
C300 O313 1.258 . S
C301 C297 1.503 . S
C301 C302 1.379 . S
C301 C306 1.392 . S
C302 C301 1.379 . S
C302 C303 1.404 . S
C302 H316 0.929 . S
C303 C302 1.404 . S
C303 C304 1.389 . S
C304 C303 1.389 . S
C304 C305 1.399 . S
C304 H317 0.931 . S
C305 C304 1.399 . S
C305 C306 1.390 . S
C306 C301 1.392 . S
C306 C305 1.390 . S
C306 H318 0.929 . S
O307 Tb291 2.326 . S
O307 C295 1.242 . S
O308 Eu292 2.324 . S
O308 C295 1.258 . S
O309 Tb291 2.500 . S
O309 C311 1.273 . S
O310 Tb291 2.473 . S
O310 C311 1.257 . S
C311 O309 1.273 . S
C311 O310 1.257 . S
O312 Eu292 2.326 . S
O312 C300 1.242 . S
O313 Tb291 2.324 . S
O313 C300 1.258 . S
O314 Eu292 2.488 1_554 S
O314 C297 1.275 . S
O315 Eu292 2.473 . S
O315 C297 1.257 1_556 S
H316 C302 0.929 . S
H317 C304 0.931 . S
H318 C306 0.929 . S
O319 Tb320 2.292 . S
O319 C322 1.255 . S
Tb320 O319 2.292 . S
Tb320 O336 2.326 . S
Tb320 O338 2.500 . S
Tb320 O339 2.473 . S
Tb320 O342 2.324 . S
Eu321 O325 2.292 . S
Eu321 C326 2.852 . S
Eu321 O337 2.324 . S
Eu321 O341 2.326 . S
Eu321 O343 2.500 . S
Eu321 O344 2.473 . S
C322 O319 1.255 . S
C322 O323 1.247 . S
O323 C322 1.247 . S
C324 O336 1.242 . S
C324 O337 1.258 . S
O325 Eu321 2.292 . S
O325 C327 1.255 . S
C326 Eu321 2.852 . S
C326 C330 1.503 . S
C326 O343 1.273 . S
C326 O344 1.257 . S
C327 O325 1.255 . S
C327 O328 1.247 . S
O328 C327 1.247 . S
C329 O341 1.242 . S
C329 O342 1.258 . S
C330 C326 1.503 . S
C330 C331 1.379 . S
C330 C335 1.392 . S
C331 C330 1.379 . S
C331 C332 1.404 . S
C331 H345 0.929 . S
C332 C331 1.404 . S
C332 C333 1.389 . S
C333 C332 1.389 . S
C333 C334 1.399 . S
C333 H346 0.931 . S
C334 C333 1.399 . S
C334 C335 1.390 . S
C335 C330 1.392 . S
C335 C334 1.390 . S
C335 H347 0.929 . S
O336 Tb320 2.326 . S
O336 C324 1.242 . S
O337 Eu321 2.324 . S
O337 C324 1.258 . S
O338 Tb320 2.500 . S
O338 C340 1.273 . S
O339 Tb320 2.473 . S
O339 C340 1.257 . S
C340 O338 1.273 . S
C340 O339 1.257 . S
O341 Eu321 2.326 . S
O341 C329 1.242 . S
O342 Tb320 2.324 . S
O342 C329 1.258 . S
O343 Eu321 2.500 . S
O343 C326 1.273 . S
O344 Eu321 2.473 . S
O344 C326 1.257 . S
H345 C331 0.929 . S
H346 C333 0.931 . S
H347 C335 0.929 . S
O348 Tb349 2.292 . S
O348 C351 1.255 . S
Tb349 O348 2.292 . S
Tb349 O365 2.326 . S
Tb349 O367 2.500 . S
Tb349 O368 2.473 . S
Tb349 O371 2.324 . S
Eu350 O354 2.292 . S
Eu350 C355 2.852 . S
Eu350 O366 2.324 . S
Eu350 O370 2.326 . S
Eu350 O372 2.500 . S
Eu350 O373 2.473 . S
C351 O348 1.255 . S
C351 O352 1.247 . S
O352 C351 1.247 . S
C353 O365 1.242 . S
C353 O366 1.258 . S
O354 Eu350 2.292 . S
O354 C356 1.255 . S
C355 Eu350 2.852 . S
C355 C359 1.503 . S
C355 O372 1.273 . S
C355 O373 1.257 . S
C356 O354 1.255 . S
C356 O357 1.247 . S
O357 C356 1.247 . S
C358 O370 1.242 . S
C358 O371 1.258 . S
C359 C355 1.503 . S
C359 C360 1.379 . S
C359 C364 1.392 . S
C360 C359 1.379 . S
C360 C361 1.404 . S
C360 H374 0.929 . S
C361 C360 1.404 . S
C361 C362 1.389 . S
C362 C361 1.389 . S
C362 C363 1.399 . S
C362 H375 0.931 . S
C363 C362 1.399 . S
C363 C364 1.390 . S
C364 C359 1.392 . S
C364 C363 1.390 . S
C364 H376 0.929 . S
O365 Tb349 2.326 . S
O365 C353 1.242 . S
O366 Eu350 2.324 . S
O366 C353 1.258 . S
O367 Tb349 2.500 . S
O367 C369 1.273 . S
O368 Tb349 2.473 . S
O368 C369 1.257 . S
C369 O367 1.273 . S
C369 O368 1.257 . S
O370 Eu350 2.326 . S
O370 C358 1.242 . S
O371 Tb349 2.324 . S
O371 C358 1.258 . S
O372 Eu350 2.500 . S
O372 C355 1.273 . S
O373 Eu350 2.473 . S
O373 C355 1.257 . S
H374 C360 0.929 . S
H375 C362 0.931 . S
H376 C364 0.929 . S
O377 Tb378 2.292 . S
O377 C380 1.255 . S
Tb378 O377 2.292 . S
Tb378 O394 2.326 . S
Tb378 O396 2.500 . S
Tb378 O397 2.473 1_655 S
Tb378 O400 2.324 1_655 S
Eu379 O383 2.292 . S
Eu379 C384 2.852 . S
Eu379 O395 2.324 1_455 S
Eu379 O399 2.326 . S
Eu379 O401 2.500 . S
Eu379 O402 2.473 1_455 S
C380 O377 1.255 . S
C380 O381 1.247 . S
O381 C380 1.247 . S
C382 O394 1.242 . S
C382 O395 1.258 . S
O383 Eu379 2.292 . S
O383 C385 1.255 . S
C384 Eu379 2.852 . S
C384 C388 1.503 . S
C384 O401 1.273 . S
C384 O402 1.257 1_455 S
C385 O383 1.255 . S
C385 O386 1.247 . S
O386 C385 1.247 . S
C387 O399 1.242 . S
C387 O400 1.258 . S
C388 C384 1.503 . S
C388 C389 1.379 1_455 S
C388 C393 1.392 . S
C389 C388 1.379 1_655 S
C389 C390 1.404 . S
C389 H403 0.929 . S
C390 C389 1.404 . S
C390 C391 1.389 1_655 S
C391 C390 1.389 1_455 S
C391 C392 1.399 . S
C391 H404 0.931 . S
C392 C391 1.399 . S
C392 C393 1.390 . S
C393 C388 1.392 . S
C393 C392 1.390 . S
C393 H405 0.929 . S
O394 Tb378 2.326 . S
O394 C382 1.242 . S
O395 Eu379 2.324 1_655 S
O395 C382 1.258 . S
O396 Tb378 2.500 . S
O396 C398 1.273 . S
O397 Tb378 2.473 1_455 S
O397 C398 1.257 1_455 S
C398 O396 1.273 . S
C398 O397 1.257 1_655 S
O399 Eu379 2.326 . S
O399 C387 1.242 . S
O400 Tb378 2.324 1_455 S
O400 C387 1.258 . S
O401 Eu379 2.500 . S
O401 C384 1.273 . S
O402 Eu379 2.473 1_655 S
O402 C384 1.257 1_655 S
H403 C389 0.929 . S
H404 C391 0.931 . S
H405 C393 0.929 . S
O406 Tb407 2.292 . S
O406 C409 1.255 . S
Tb407 O406 2.292 . S
Tb407 O423 2.326 . S
Tb407 O425 2.500 . S
Tb407 O426 2.473 . S
Tb407 O429 2.324 . S
Eu408 O412 2.292 . S
Eu408 C413 2.852 . S
Eu408 O424 2.324 . S
Eu408 O428 2.326 . S
Eu408 O430 2.500 . S
Eu408 O431 2.473 . S
C409 O406 1.255 . S
C409 O410 1.247 . S
O410 C409 1.247 . S
C411 O423 1.242 . S
C411 O424 1.258 . S
O412 Eu408 2.292 . S
O412 C414 1.255 . S
C413 Eu408 2.852 . S
C413 C417 1.503 . S
C413 O430 1.273 . S
C413 O431 1.257 . S
C414 O412 1.255 . S
C414 O415 1.247 . S
O415 C414 1.247 . S
C416 O428 1.242 . S
C416 O429 1.258 . S
C417 C413 1.503 . S
C417 C418 1.379 . S
C417 C422 1.392 . S
C418 C417 1.379 . S
C418 C419 1.404 . S
C418 H432 0.929 . S
C419 C418 1.404 . S
C419 C420 1.389 . S
C420 C419 1.389 . S
C420 C421 1.399 . S
C420 H433 0.931 . S
C421 C420 1.399 . S
C421 C422 1.390 . S
C422 C417 1.392 . S
C422 C421 1.390 . S
C422 H434 0.929 . S
O423 Tb407 2.326 . S
O423 C411 1.242 . S
O424 Eu408 2.324 . S
O424 C411 1.258 . S
O425 Tb407 2.500 . S
O425 C427 1.273 . S
O426 Tb407 2.473 . S
O426 C427 1.257 . S
C427 O425 1.273 . S
C427 O426 1.257 . S
O428 Eu408 2.326 . S
O428 C416 1.242 . S
O429 Tb407 2.324 . S
O429 C416 1.258 . S
O430 Eu408 2.500 . S
O430 C413 1.273 . S
O431 Eu408 2.473 . S
O431 C413 1.257 . S
H432 C418 0.929 . S
H433 C420 0.931 . S
H434 C422 0.929 . S
O435 Tb436 2.292 . S
O435 C438 1.255 . S
Tb436 O435 2.292 . S
Tb436 O452 2.326 . S
Tb436 O454 2.500 . S
Tb436 O455 2.473 1_655 S
Tb436 O458 2.324 1_655 S
Eu437 O441 2.292 . S
Eu437 C442 2.852 . S
Eu437 O453 2.324 1_455 S
Eu437 O457 2.326 . S
Eu437 O459 2.500 . S
Eu437 O460 2.473 1_455 S
C438 O435 1.255 . S
C438 O439 1.247 . S
O439 C438 1.247 . S
C440 O452 1.242 . S
C440 O453 1.258 . S
O441 Eu437 2.292 . S
O441 C443 1.255 . S
C442 Eu437 2.852 . S
C442 C446 1.503 . S
C442 O459 1.273 . S
C442 O460 1.257 1_455 S
C443 O441 1.255 . S
C443 O444 1.247 . S
O444 C443 1.247 . S
C445 O457 1.242 . S
C445 O458 1.258 . S
C446 C442 1.503 . S
C446 C447 1.379 1_455 S
C446 C451 1.392 . S
C447 C446 1.379 1_655 S
C447 C448 1.404 . S
C447 H461 0.929 . S
C448 C447 1.404 . S
C448 C449 1.389 1_655 S
C449 C448 1.389 1_455 S
C449 C450 1.399 . S
C449 H462 0.931 . S
C450 C449 1.399 . S
C450 C451 1.390 . S
C451 C446 1.392 . S
C451 C450 1.390 . S
C451 H463 0.929 . S
O452 Tb436 2.326 . S
O452 C440 1.242 . S
O453 Eu437 2.324 1_655 S
O453 C440 1.258 . S
O454 Tb436 2.500 . S
O454 C456 1.273 . S
O455 Tb436 2.473 1_455 S
O455 C456 1.257 1_455 S
C456 O454 1.273 . S
C456 O455 1.257 1_655 S
O457 Eu437 2.326 . S
O457 C445 1.242 . S
O458 Tb436 2.324 1_455 S
O458 C445 1.258 . S
O459 Eu437 2.500 . S
O459 C442 1.273 . S
O460 Eu437 2.473 1_655 S
O460 C442 1.257 1_655 S
H461 C447 0.929 . S
H462 C449 0.931 . S
H463 C451 0.929 . S
C464 C465 1.363 1_554 S
C464 C470 1.379 . S
C464 N472 1.350 1_454 S
C465 C464 1.363 1_556 S
C465 C471 1.363 1_565 S
C466 C467 1.363 1_556 S
C466 C471 1.379 . S
C466 N473 1.356 1_556 S
C467 C466 1.363 1_554 S
C467 C470 1.363 1_545 S
N468 C470 1.350 1_655 S
N468 H480 0.994 . S
N468 H481 0.982 1_665 S
N469 C471 1.356 . S
N469 H474 0.984 1_545 S
N469 H475 0.985 . S
C470 C464 1.379 . S
C470 C467 1.363 1_565 S
C470 N468 1.350 1_455 S
C471 C465 1.363 1_545 S
C471 C466 1.379 . S
C471 N469 1.356 . S
N472 C464 1.350 1_656 S
N472 H478 0.994 1_556 S
N472 H479 0.982 1_655 S
N473 C466 1.356 1_554 S
N473 H476 0.984 . S
N473 H477 0.985 1_554 S
H474 N469 0.984 1_565 S
H475 N469 0.985 . S
H476 N473 0.984 . S
H477 N473 0.985 1_556 S
H478 N472 0.994 1_554 S
H479 N472 0.982 1_455 S
H480 N468 0.994 . S
H481 N468 0.982 1_445 S
C482 C483 1.363 . S
C482 C488 1.379 . S
C482 N490 1.356 . S
C483 C482 1.363 . S
C483 C489 1.363 . S
C484 C485 1.363 . S
C484 C489 1.379 . S
C484 N491 1.356 . S
C485 C484 1.363 . S
C485 C488 1.363 . S
N486 C488 1.356 . S
N486 H498 0.984 . S
N486 H499 0.985 . S
N487 C489 1.356 . S
N487 H492 0.984 . S
N487 H493 0.985 . S
C488 C482 1.379 . S
C488 C485 1.363 . S
C488 N486 1.356 . S
C489 C483 1.363 . S
C489 C484 1.379 . S
C489 N487 1.356 . S
N490 C482 1.356 . S
N490 H496 0.984 . S
N490 H497 0.984 . S
N491 C484 1.356 . S
N491 H494 0.984 . S
N491 H495 0.985 . S
H492 N487 0.984 . S
H493 N487 0.985 . S
H494 N491 0.984 . S
H495 N491 0.985 . S
H496 N490 0.984 . S
H497 N490 0.984 . S
H498 N486 0.984 . S
H499 N486 0.985 . S
C500 C501 1.363 1_565 S
C500 C506 1.379 . S
C500 N508 1.356 . S
C501 C500 1.363 1_545 S
C501 C507 1.363 . S
C502 C503 1.363 1_545 S
C502 C507 1.379 . S
C502 N509 1.356 . S
C503 C502 1.363 1_565 S
C503 C506 1.363 . S
N504 C506 1.356 . S
N504 H516 0.984 . S
N504 H517 0.985 . S
N505 C507 1.356 . S
N505 H510 0.984 . S
N505 H511 0.985 . S
C506 C500 1.379 . S
C506 C503 1.363 . S
C506 N504 1.356 . S
C507 C501 1.363 . S
C507 C502 1.379 . S
C507 N505 1.356 . S
N508 C500 1.356 . S
N508 H514 0.984 . S
N508 H515 0.984 1_565 S
N509 C502 1.356 . S
N509 H512 0.984 1_545 S
N509 H513 0.985 . S
H510 N505 0.984 . S
H511 N505 0.985 . S
H512 N509 0.984 1_565 S
H513 N509 0.985 . S
H514 N508 0.984 . S
H515 N508 0.984 1_545 S
H516 N504 0.984 . S
H517 N504 0.985 . S
C518 C519 1.363 . S
C518 C524 1.379 . S
C518 N526 1.356 . S
C519 C518 1.363 . S
C519 C525 1.363 . S
C520 C521 1.363 . S
C520 C525 1.379 . S
C520 N527 1.356 . S
C521 C520 1.363 . S
C521 C524 1.363 . S
N522 C524 1.356 . S
N522 H534 0.984 . S
N522 H535 0.985 . S
N523 C525 1.356 . S
N523 H528 0.984 . S
N523 H529 0.985 . S
C524 C518 1.379 . S
C524 C521 1.363 . S
C524 N522 1.356 . S
C525 C519 1.363 . S
C525 C520 1.379 . S
C525 N523 1.356 . S
N526 C518 1.356 . S
N526 H532 0.984 . S
N526 H533 0.984 . S
N527 C520 1.356 . S
N527 H530 0.984 . S
N527 H531 0.985 . S
H528 N523 0.984 . S
H529 N523 0.985 . S
H530 N527 0.984 . S
H531 N527 0.985 . S
H532 N526 0.984 . S
H533 N526 0.984 . S
H534 N522 0.984 . S
H535 N522 0.985 . S
C536 C537 1.363 . S
C536 C542 1.379 . S
C536 N544 1.356 . S
C537 C536 1.363 . S
C537 C543 1.363 . S
C538 C539 1.363 . S
C538 C543 1.379 . S
C538 N545 1.356 . S
C539 C538 1.363 . S
C539 C542 1.363 . S
N540 C542 1.356 . S
N540 H552 0.984 . S
N540 H553 0.985 . S
N541 C543 1.356 . S
N541 H546 0.984 . S
N541 H547 0.985 . S
C542 C536 1.379 . S
C542 C539 1.363 . S
C542 N540 1.356 . S
C543 C537 1.363 . S
C543 C538 1.379 . S
C543 N541 1.356 . S
N544 C536 1.356 . S
N544 H550 0.984 . S
N544 H551 0.984 . S
N545 C538 1.356 . S
N545 H548 0.984 . S
N545 H549 0.985 . S
H546 N541 0.984 . S
H547 N541 0.985 . S
H548 N545 0.984 . S
H549 N545 0.985 . S
H550 N544 0.984 . S
H551 N544 0.984 . S
H552 N540 0.984 . S
H553 N540 0.985 . S
C554 C555 1.363 . S
C554 C560 1.379 . S
C554 N562 1.356 . S
C555 C554 1.363 . S
C555 C561 1.363 . S
C556 C557 1.363 . S
C556 C561 1.379 . S
C556 N563 1.356 . S
C557 C556 1.363 . S
C557 C560 1.363 . S
N558 C560 1.356 . S
N558 H570 0.984 . S
N558 H571 0.985 . S
N559 C561 1.356 . S
N559 H564 0.984 . S
N559 H565 0.985 . S
C560 C554 1.379 . S
C560 C557 1.363 . S
C560 N558 1.356 . S
C561 C555 1.363 . S
C561 C556 1.379 . S
C561 N559 1.356 . S
N562 C554 1.356 . S
N562 H568 0.984 . S
N562 H569 0.984 . S
N563 C556 1.356 . S
N563 H566 0.984 . S
N563 H567 0.985 . S
H564 N559 0.984 . S
H565 N559 0.985 . S
H566 N563 0.984 . S
H567 N563 0.985 . S
H568 N562 0.984 . S
H569 N562 0.984 . S
H570 N558 0.984 . S
H571 N558 0.985 . S
C572 C573 1.363 . S
C572 C578 1.379 . S
C572 N580 1.356 . S
C573 C572 1.363 . S
C573 C579 1.363 . S
C574 C575 1.363 . S
C574 C579 1.379 . S
C574 N581 1.356 . S
C575 C574 1.363 . S
C575 C578 1.363 . S
N576 C578 1.356 . S
N576 H588 0.984 . S
N576 H589 0.985 . S
N577 C579 1.356 . S
N577 H582 0.984 . S
N577 H583 0.985 . S
C578 C572 1.379 . S
C578 C575 1.363 . S
C578 N576 1.356 . S
C579 C573 1.363 . S
C579 C574 1.379 . S
C579 N577 1.356 . S
N580 C572 1.356 . S
N580 H586 0.984 . S
N580 H587 0.984 . S
N581 C574 1.356 . S
N581 H584 0.984 . S
N581 H585 0.985 . S
H582 N577 0.984 . S
H583 N577 0.985 . S
H584 N581 0.984 . S
H585 N581 0.985 . S
H586 N580 0.984 . S
H587 N580 0.984 . S
H588 N576 0.984 . S
H589 N576 0.985 . S
C590 C591 1.363 1_455 S
C590 C596 1.379 1_554 S
C590 N598 1.356 . S
C591 C590 1.363 1_655 S
C591 C597 1.363 . S
C592 C593 1.363 . S
C592 C597 1.379 1_556 S
C592 N599 1.356 . S
C593 C592 1.363 . S
C593 C596 1.363 1_655 S
N594 C596 1.356 . S
N594 H606 0.984 . S
N594 H607 0.985 . S
N595 C597 1.356 . S
N595 H600 0.984 . S
N595 H601 0.985 . S
C596 C590 1.379 1_556 S
C596 C593 1.363 1_455 S
C596 N594 1.356 . S
C597 C591 1.363 . S
C597 C592 1.379 1_554 S
C597 N595 1.356 . S
N598 C590 1.356 . S
N598 H604 0.984 1_554 S
N598 H605 0.984 . S
N599 C592 1.356 . S
N599 H602 0.984 . S
N599 H603 0.985 1_556 S
H600 N595 0.984 . S
H601 N595 0.985 . S
H602 N599 0.984 . S
H603 N599 0.985 1_554 S
H604 N598 0.984 1_556 S
H605 N598 0.984 . S
H606 N594 0.984 . S
H607 N594 0.985 . S
C608 C609 1.363 . S
C608 C614 1.379 . S
C608 N616 1.356 . S
C609 C608 1.363 . S
C609 C615 1.363 . S
C610 C611 1.363 . S
C610 C615 1.379 . S
C610 N617 1.356 . S
C611 C610 1.363 . S
C611 C614 1.363 . S
N612 C614 1.356 . S
N612 H624 0.984 . S
N612 H625 0.985 . S
N613 C615 1.356 . S
N613 H618 0.984 . S
N613 H619 0.985 . S
C614 C608 1.379 . S
C614 C611 1.363 . S
C614 N612 1.356 . S
C615 C609 1.363 . S
C615 C610 1.379 . S
C615 N613 1.356 . S
N616 C608 1.356 . S
N616 H622 0.984 . S
N616 H623 0.984 . S
N617 C610 1.356 . S
N617 H620 0.984 . S
N617 H621 0.985 . S
H618 N613 0.984 . S
H619 N613 0.985 . S
H620 N617 0.984 . S
H621 N617 0.985 . S
H622 N616 0.984 . S
H623 N616 0.984 . S
H624 N612 0.984 . S
H625 N612 0.985 . S
C626 C627 1.363 . S
C626 C632 1.379 . S
C626 N634 1.356 . S
C627 C626 1.363 . S
C627 C633 1.363 . S
C628 C629 1.363 . S
C628 C633 1.379 . S
C628 N635 1.356 . S
C629 C628 1.363 . S
C629 C632 1.363 . S
N630 C632 1.356 . S
N630 H642 0.984 . S
N630 H643 0.985 . S
N631 C633 1.356 . S
N631 H636 0.984 1_565 S
N631 H637 0.985 1_565 S
C632 C626 1.379 . S
C632 C629 1.363 . S
C632 N630 1.356 . S
C633 C627 1.363 . S
C633 C628 1.379 . S
C633 N631 1.356 . S
N634 C626 1.356 . S
N634 H640 0.984 . S
N634 H641 0.984 . S
N635 C628 1.356 . S
N635 H638 0.984 . S
N635 H639 0.985 . S
H636 N631 0.984 1_545 S
H637 N631 0.985 1_545 S
H638 N635 0.984 . S
H639 N635 0.985 . S
H640 N634 0.984 . S
H641 N634 0.984 . S
H642 N630 0.984 . S
H643 N630 0.985 . S
C644 C645 1.363 . S
C644 C650 1.379 . S
C644 N652 1.356 . S
C645 C644 1.363 . S
C645 C651 1.363 . S
C646 C647 1.363 . S
C646 C651 1.379 . S
C646 N653 1.356 . S
C647 C646 1.363 . S
C647 C650 1.363 . S
N648 C650 1.356 . S
N648 H660 0.984 . S
N648 H661 0.985 . S
N649 C651 1.356 . S
N649 H654 0.984 . S
N649 H655 0.985 . S
C650 C644 1.379 . S
C650 C647 1.363 . S
C650 N648 1.356 . S
C651 C645 1.363 . S
C651 C646 1.379 . S
C651 N649 1.356 . S
N652 C644 1.356 . S
N652 H658 0.984 . S
N652 H659 0.984 . S
N653 C646 1.356 . S
N653 H656 0.984 . S
N653 H657 0.985 . S
H654 N649 0.984 . S
H655 N649 0.985 . S
H656 N653 0.984 . S
H657 N653 0.985 . S
H658 N652 0.984 . S
H659 N652 0.984 . S
H660 N648 0.984 . S
H661 N648 0.985 . S
C662 C663 1.363 . S
C662 C668 1.379 . S
C662 N670 1.356 . S
C663 C662 1.363 . S
C663 C669 1.363 . S
C664 C665 1.363 . S
C664 C669 1.379 . S
C664 N671 1.356 . S
C665 C664 1.363 . S
C665 C668 1.363 . S
N666 C668 1.356 . S
N666 H678 0.984 . S
N666 H679 0.985 . S
N667 C669 1.356 . S
N667 H672 0.984 . S
N667 H673 0.985 . S
C668 C662 1.379 . S
C668 C665 1.363 . S
C668 N666 1.356 . S
C669 C663 1.363 . S
C669 C664 1.379 . S
C669 N667 1.356 . S
N670 C662 1.356 . S
N670 H676 0.984 . S
N670 H677 0.984 . S
N671 C664 1.356 . S
N671 H674 0.984 . S
N671 H675 0.985 . S
H672 N667 0.984 . S
H673 N667 0.985 . S
H674 N671 0.984 . S
H675 N671 0.985 . S
H676 N670 0.984 . S
H677 N670 0.984 . S
H678 N666 0.984 . S
H679 N666 0.985 . S
C680 C681 1.363 . S
C680 C686 1.379 . S
C680 N688 1.356 . S
C681 C680 1.363 . S
C681 C687 1.363 . S
C682 C683 1.363 . S
C682 C687 1.379 . S
C682 N689 1.356 . S
C683 C682 1.363 . S
C683 C686 1.363 . S
N684 C686 1.356 . S
N684 H696 0.984 . S
N684 H697 0.985 . S
N685 C687 1.356 . S
N685 H690 0.984 . S
N685 H691 0.985 . S
C686 C680 1.379 . S
C686 C683 1.363 . S
C686 N684 1.356 . S
C687 C681 1.363 . S
C687 C682 1.379 . S
C687 N685 1.356 . S
N688 C680 1.356 . S
N688 H694 0.984 . S
N688 H695 0.984 . S
N689 C682 1.356 . S
N689 H692 0.984 . S
N689 H693 0.985 . S
H690 N685 0.984 . S
H691 N685 0.985 . S
H692 N689 0.984 . S
H693 N689 0.985 . S
H694 N688 0.984 . S
H695 N688 0.984 . S
H696 N684 0.984 . S
H697 N684 0.985 . S
C698 C699 1.363 . S
C698 C704 1.379 . S
C698 N706 1.356 . S
C699 C698 1.363 . S
C699 C705 1.363 . S
C700 C701 1.363 . S
C700 C705 1.379 . S
C700 N707 1.356 . S
C701 C700 1.363 . S
C701 C704 1.363 . S
N702 C704 1.356 . S
N702 H714 0.984 . S
N702 H715 0.985 . S
N703 C705 1.356 . S
N703 H708 0.984 . S
N703 H709 0.985 . S
C704 C698 1.379 . S
C704 C701 1.363 . S
C704 N702 1.356 . S
C705 C699 1.363 . S
C705 C700 1.379 . S
C705 N703 1.356 . S
N706 C698 1.356 . S
N706 H712 0.984 1_565 S
N706 H713 0.984 1_565 S
N707 C700 1.356 . S
N707 H710 0.984 . S
N707 H711 0.985 . S
H708 N703 0.984 . S
H709 N703 0.985 . S
H710 N707 0.984 . S
H711 N707 0.985 . S
H712 N706 0.984 1_545 S
H713 N706 0.984 1_545 S
H714 N702 0.984 . S
H715 N702 0.985 . S
C716 C717 1.363 . S
C716 C722 1.379 . S
C716 N724 1.356 . S
C717 C716 1.363 . S
C717 C723 1.363 . S
C718 C719 1.363 . S
C718 C723 1.379 . S
C718 N725 1.356 . S
C719 C718 1.363 . S
C719 C722 1.363 . S
N720 C722 1.356 . S
N720 H732 0.984 . S
N720 H733 0.985 . S
N721 C723 1.356 . S
N721 H726 0.984 . S
N721 H727 0.985 . S
C722 C716 1.379 . S
C722 C719 1.363 . S
C722 N720 1.356 . S
C723 C717 1.363 . S
C723 C718 1.379 . S
C723 N721 1.356 . S
N724 C716 1.356 . S
N724 H730 0.984 . S
N724 H731 0.984 . S
N725 C718 1.356 . S
N725 H728 0.984 . S
N725 H729 0.985 . S
H726 N721 0.984 . S
H727 N721 0.985 . S
H728 N725 0.984 . S
H729 N725 0.985 . S
H730 N724 0.984 . S
H731 N724 0.984 . S
H732 N720 0.984 . S
H733 N720 0.985 . S
C734 C735 1.363 . S
C734 C740 1.379 . S
C734 N742 1.356 . S
C735 C734 1.363 . S
C735 C741 1.363 . S
C736 C737 1.363 . S
C736 C741 1.379 . S
C736 N743 1.356 . S
C737 C736 1.363 . S
C737 C740 1.363 . S
N738 C740 1.356 . S
N738 H750 0.984 . S
N738 H751 0.985 . S
N739 C741 1.349 1_565 S
N739 H744 0.988 . S
N739 H745 0.988 . S
C740 C734 1.379 . S
C740 C737 1.363 . S
C740 N738 1.356 . S
C741 C735 1.363 . S
C741 C736 1.379 . S
C741 N739 1.349 1_545 S
N742 C734 1.356 . S
N742 H748 0.984 . S
N742 H749 0.984 . S
N743 C736 1.356 . S
N743 H746 0.984 . S
N743 H747 0.985 . S
H744 N739 0.988 . S
H745 N739 0.988 . S
H746 N743 0.984 . S
H747 N743 0.985 . S
H748 N742 0.984 . S
H749 N742 0.984 . S
H750 N738 0.984 . S
H751 N738 0.985 . S
C752 C753 1.363 . S
C752 C758 1.379 . S
C752 N760 1.356 . S
C753 C752 1.363 . S
C753 C759 1.363 . S
C754 C755 1.363 . S
C754 C759 1.379 . S
C754 N761 1.356 . S
C755 C754 1.363 . S
C755 C758 1.363 . S
N756 C758 1.356 . S
N756 H768 0.984 . S
N756 H769 0.985 . S
N757 C759 1.356 . S
N757 H762 0.984 . S
N757 H763 0.985 . S
C758 C752 1.379 . S
C758 C755 1.363 . S
C758 N756 1.356 . S
C759 C753 1.363 . S
C759 C754 1.379 . S
C759 N757 1.356 . S
N760 C752 1.356 . S
N760 H766 0.984 . S
N760 H767 0.984 . S
N761 C754 1.356 . S
N761 H764 0.984 . S
N761 H765 0.985 . S
H762 N757 0.984 . S
H763 N757 0.985 . S
H764 N761 0.984 . S
H765 N761 0.985 . S
H766 N760 0.984 . S
H767 N760 0.984 . S
H768 N756 0.984 . S
H769 N756 0.985 . S
C770 C771 1.363 . S
C770 C776 1.379 . S
C770 N778 1.356 . S
C771 C770 1.363 . S
C771 C777 1.363 . S
C772 C773 1.364 . S
C772 C777 1.379 . S
C772 N779 1.378 . S
C773 C772 1.364 . S
C773 C776 1.363 . S
N774 C776 1.356 1_565 S
N774 H786 0.984 . S
N774 H787 0.985 . S
N775 C777 1.356 . S
N775 H780 0.984 . S
N775 H781 0.985 1_655 S
C776 C770 1.379 . S
C776 C773 1.363 . S
C776 N774 1.356 1_545 S
C777 C771 1.363 . S
C777 C772 1.379 . S
C777 N775 1.356 . S
N778 C770 1.356 . S
N778 H784 0.984 . S
N778 H785 0.984 . S
N779 C772 1.378 . S
N779 H782 0.986 1_545 S
N779 H783 0.961 1_655 S
H780 N775 0.984 . S
H781 N775 0.985 1_455 S
H782 N779 0.986 1_565 S
H783 N779 0.961 1_455 S
H784 N778 0.984 . S
H785 N778 0.984 . S
H786 N774 0.984 . S
H787 N774 0.985 . S
C788 C789 1.363 . S
C788 C794 1.379 . S
C788 N796 1.356 . S
C789 C788 1.363 . S
C789 C795 1.363 . S
C790 C791 1.363 . S
C790 C795 1.379 . S
C790 N797 1.356 . S
C791 C790 1.363 . S
C791 C794 1.363 . S
N792 C794 1.356 . S
N792 H804 0.984 . S
N792 H805 0.985 . S
N793 C795 1.356 . S
N793 H798 0.984 . S
N793 H799 0.985 . S
C794 C788 1.379 . S
C794 C791 1.363 . S
C794 N792 1.356 . S
C795 C789 1.363 . S
C795 C790 1.379 . S
C795 N793 1.356 . S
N796 C788 1.356 . S
N796 H802 0.984 . S
N796 H803 0.984 . S
N797 C790 1.356 . S
N797 H800 0.984 . S
N797 H801 0.985 . S
H798 N793 0.984 . S
H799 N793 0.985 . S
H800 N797 0.984 . S
H801 N797 0.985 . S
H802 N796 0.984 . S
H803 N796 0.984 . S
H804 N792 0.984 . S
H805 N792 0.985 . S
C806 C807 1.363 . S
C806 C812 1.379 . S
C806 N814 1.356 . S
C807 C806 1.363 . S
C807 C813 1.363 . S
C808 C809 1.363 1_545 S
C808 C813 1.379 1_545 S
C808 N815 1.356 . S
C809 C808 1.363 1_565 S
C809 C812 1.364 . S
N810 C812 1.356 . S
N810 H822 0.984 . S
N810 H823 0.985 . S
N811 C813 1.356 . S
N811 H816 0.984 . S
N811 H817 0.985 . S
C812 C806 1.379 . S
C812 C809 1.364 . S
C812 N810 1.356 . S
C813 C807 1.363 . S
C813 C808 1.379 1_565 S
C813 N811 1.356 . S
N814 C806 1.356 . S
N814 H820 0.984 . S
N814 H821 0.984 . S
N815 C808 1.356 . S
N815 H818 0.984 . S
N815 H819 0.985 . S
H816 N811 0.984 . S
H817 N811 0.985 . S
H818 N815 0.984 . S
H819 N815 0.985 . S
H820 N814 0.984 . S
H821 N814 0.984 . S
H822 N810 0.984 . S
H823 N810 0.985 . S
C824 C825 1.363 . S
C824 C830 1.379 . S
C824 N832 1.356 . S
C825 C824 1.363 . S
C825 C831 1.363 . S
C826 C827 1.363 . S
C826 C831 1.379 . S
C826 N833 1.356 . S
C827 C826 1.363 . S
C827 C830 1.363 . S
N828 C830 1.356 . S
N828 H840 0.984 . S
N828 H841 0.985 . S
N829 C831 1.356 . S
N829 H834 0.984 . S
N829 H835 0.985 . S
C830 C824 1.379 . S
C830 C827 1.363 . S
C830 N828 1.356 . S
C831 C825 1.363 . S
C831 C826 1.379 . S
C831 N829 1.356 . S
N832 C824 1.356 . S
N832 H838 0.984 . S
N832 H839 0.984 . S
N833 C826 1.356 . S
N833 H836 0.984 . S
N833 H837 0.985 . S
H834 N829 0.984 . S
H835 N829 0.985 . S
H836 N833 0.984 . S
H837 N833 0.985 . S
H838 N832 0.984 . S
H839 N832 0.984 . S
H840 N828 0.984 . S
H841 N828 0.985 . S
C842 C843 1.364 . S
C842 C848 1.379 . S
C842 N850 1.356 . S
C843 C842 1.364 . S
C843 C849 1.363 . S
C844 C845 1.363 . S
C844 C849 1.380 . S
C844 N851 1.356 . S
C845 C844 1.363 . S
C845 C848 1.363 . S
N846 C848 1.356 . S
N846 H858 0.984 . S
N846 H859 0.985 . S
N847 C849 1.355 1_565 S
N847 H852 0.984 . S
N847 H853 0.985 . S
C848 C842 1.379 . S
C848 C845 1.363 . S
C848 N846 1.356 . S
C849 C843 1.363 . S
C849 C844 1.380 . S
C849 N847 1.355 1_545 S
N850 C842 1.356 . S
N850 H856 0.984 . S
N850 H857 0.984 1_545 S
N851 C844 1.356 . S
N851 H854 0.984 . S
N851 H855 0.985 . S
H852 N847 0.984 . S
H853 N847 0.985 . S
H854 N851 0.984 . S
H855 N851 0.985 . S
H856 N850 0.984 . S
H857 N850 0.984 1_565 S
H858 N846 0.984 . S
H859 N846 0.985 . S
C860 C861 1.363 . S
C860 C866 1.379 . S
C860 N868 1.356 . S
C861 C860 1.363 . S
C861 C867 1.363 . S
C862 C863 1.363 . S
C862 C867 1.379 . S
C862 N869 1.356 . S
C863 C862 1.363 . S
C863 C866 1.363 . S
N864 C866 1.356 . S
N864 H876 0.984 . S
N864 H877 0.985 . S
N865 C867 1.356 . S
N865 H870 0.984 . S
N865 H871 0.985 . S
C866 C860 1.379 . S
C866 C863 1.363 . S
C866 N864 1.356 . S
C867 C861 1.363 . S
C867 C862 1.379 . S
C867 N865 1.356 . S
N868 C860 1.356 . S
N868 H874 0.984 . S
N868 H875 0.984 . S
N869 C862 1.356 . S
N869 H872 0.984 . S
N869 H873 0.985 . S
H870 N865 0.984 . S
H871 N865 0.985 . S
H872 N869 0.984 . S
H873 N869 0.985 . S
H874 N868 0.984 . S
H875 N868 0.984 . S
H876 N864 0.984 . S
H877 N864 0.985 . S
C878 C879 1.363 . S
C878 C884 1.379 . S
C878 N886 1.356 1_565 S
C879 C878 1.363 . S
C879 C885 1.364 . S
C880 C881 1.363 . S
C880 C885 1.379 . S
C880 N887 1.356 . S
C881 C880 1.363 . S
C881 C884 1.363 . S
N882 C884 1.356 . S
N882 H894 0.984 . S
N882 H895 0.985 . S
N883 C885 1.356 . S
N883 H888 0.984 1_565 S
N883 H889 0.985 . S
C884 C878 1.379 . S
C884 C881 1.363 . S
C884 N882 1.356 . S
C885 C879 1.364 . S
C885 C880 1.379 . S
C885 N883 1.356 . S
N886 C878 1.356 1_545 S
N886 H892 0.984 . S
N886 H893 0.984 . S
N887 C880 1.356 . S
N887 H890 0.984 . S
N887 H891 0.985 . S
H888 N883 0.984 1_545 S
H889 N883 0.985 . S
H890 N887 0.984 . S
H891 N887 0.985 . S
H892 N886 0.984 . S
H893 N886 0.984 . S
H894 N882 0.984 . S
H895 N882 0.985 . S
C896 C897 1.363 . S
C896 C902 1.379 . S
C896 N904 1.356 . S
C897 C896 1.363 . S
C897 C903 1.363 . S
C898 C899 1.363 . S
C898 C903 1.379 . S
C898 N905 1.356 . S
C899 C898 1.363 . S
C899 C902 1.363 . S
N900 C902 1.356 . S
N900 H912 0.984 . S
N900 H913 0.985 . S
N901 C903 1.356 . S
N901 H906 0.984 . S
N901 H907 0.985 . S
C902 C896 1.379 . S
C902 C899 1.363 . S
C902 N900 1.356 . S
C903 C897 1.363 . S
C903 C898 1.379 . S
C903 N901 1.356 . S
N904 C896 1.356 . S
N904 H910 0.984 . S
N904 H911 0.984 . S
N905 C898 1.356 . S
N905 H908 0.984 . S
N905 H909 0.985 . S
H906 N901 0.984 . S
H907 N901 0.985 . S
H908 N905 0.984 . S
H909 N905 0.985 . S
H910 N904 0.984 . S
H911 N904 0.984 . S
H912 N900 0.984 . S
H913 N900 0.985 . S
C914 C915 1.363 . S
C914 C920 1.379 . S
C914 N922 1.356 . S
C915 C914 1.363 . S
C915 C921 1.363 . S
C916 C917 1.363 . S
C916 C921 1.379 . S
C916 N923 1.356 . S
C917 C916 1.363 . S
C917 C920 1.363 . S
N918 C920 1.356 . S
N918 H930 0.984 . S
N918 H931 0.985 . S
N919 C921 1.356 . S
N919 H924 0.984 . S
N919 H925 0.985 . S
C920 C914 1.379 . S
C920 C917 1.363 . S
C920 N918 1.356 . S
C921 C915 1.363 . S
C921 C916 1.379 . S
C921 N919 1.356 . S
N922 C914 1.356 . S
N922 H928 0.984 . S
N922 H929 0.984 . S
N923 C916 1.356 . S
N923 H926 0.984 . S
N923 H927 0.985 . S
H924 N919 0.984 . S
H925 N919 0.985 . S
H926 N923 0.984 . S
H927 N923 0.985 . S
H928 N922 0.984 . S
H929 N922 0.984 . S
H930 N918 0.984 . S
H931 N918 0.985 . S
C932 C933 1.363 . S
C932 C938 1.379 . S
C932 N940 1.356 . S
C933 C932 1.363 . S
C933 C939 1.363 . S
C934 C935 1.363 . S
C934 C939 1.379 . S
C934 N941 1.356 . S
C935 C934 1.363 . S
C935 C938 1.363 . S
N936 C938 1.356 . S
N936 H948 0.984 . S
N936 H949 0.985 . S
N937 C939 1.356 . S
N937 H942 0.984 . S
N937 H943 0.985 . S
C938 C932 1.379 . S
C938 C935 1.363 . S
C938 N936 1.356 . S
C939 C933 1.363 . S
C939 C934 1.379 . S
C939 N937 1.356 . S
N940 C932 1.356 . S
N940 H946 0.984 . S
N940 H947 0.984 . S
N941 C934 1.356 . S
N941 H944 0.984 . S
N941 H945 0.985 . S
H942 N937 0.984 . S
H943 N937 0.985 . S
H944 N941 0.984 . S
H945 N941 0.985 . S
H946 N940 0.984 . S
H947 N940 0.984 . S
H948 N936 0.984 . S
H949 N936 0.985 . S
C950 C951 1.363 . S
C950 C956 1.379 . S
C950 N958 1.356 . S
C951 C950 1.363 . S
C951 C957 1.363 . S
C952 C953 1.363 . S
C952 C957 1.379 . S
C952 N959 1.356 . S
C953 C952 1.363 . S
C953 C956 1.363 . S
N954 C956 1.356 . S
N954 H966 0.984 . S
N954 H967 0.985 . S
N955 C957 1.356 . S
N955 H960 0.984 . S
N955 H961 0.985 . S
C956 C950 1.379 . S
C956 C953 1.363 . S
C956 N954 1.356 . S
C957 C951 1.363 . S
C957 C952 1.379 . S
C957 N955 1.356 . S
N958 C950 1.356 . S
N958 H964 0.984 . S
N958 H965 0.984 . S
N959 C952 1.356 . S
N959 H962 0.984 . S
N959 H963 0.985 1_655 S
H960 N955 0.984 . S
H961 N955 0.985 . S
H962 N959 0.984 . S
H963 N959 0.985 1_455 S
H964 N958 0.984 . S
H965 N958 0.984 . S
H966 N954 0.984 . S
H967 N954 0.985 . S
C968 C969 1.363 . S
C968 C974 1.379 . S
C968 N976 1.356 . S
C969 C968 1.363 . S
C969 C975 1.363 . S
C970 C971 1.363 . S
C970 C975 1.379 . S
C970 N977 1.356 . S
C971 C970 1.363 . S
C971 C974 1.363 . S
N972 C974 1.356 . S
N972 H984 0.984 . S
N972 H985 0.985 . S
N973 C975 1.356 . S
N973 H978 0.984 . S
N973 H979 0.985 . S
C974 C968 1.379 . S
C974 C971 1.363 . S
C974 N972 1.356 . S
C975 C969 1.363 . S
C975 C970 1.379 . S
C975 N973 1.356 . S
N976 C968 1.356 . S
N976 H982 0.984 . S
N976 H983 0.984 . S
N977 C970 1.356 . S
N977 H980 0.984 . S
N977 H981 0.985 . S
H978 N973 0.984 . S
H979 N973 0.985 . S
H980 N977 0.984 . S
H981 N977 0.985 . S
H982 N976 0.984 . S
H983 N976 0.984 . S
H984 N972 0.984 . S
H985 N972 0.985 . S
C986 C987 1.363 . S
C986 C992 1.379 . S
C986 N994 1.356 . S
C987 C986 1.363 . S
C987 C993 1.363 . S
C988 C989 1.363 . S
C988 C993 1.379 . S
C988 N995 1.356 . S
C989 C988 1.363 . S
C989 C992 1.363 . S
N990 C992 1.356 . S
N990 H1002 0.984 . S
N990 H1003 0.985 . S
N991 C993 1.356 . S
N991 H996 0.984 . S
N991 H997 0.985 . S
C992 C986 1.379 . S
C992 C989 1.363 . S
C992 N990 1.356 . S
C993 C987 1.363 . S
C993 C988 1.379 . S
C993 N991 1.356 . S
N994 C986 1.356 . S
N994 H1000 0.984 . S
N994 H1001 0.984 . S
N995 C988 1.356 . S
N995 H998 0.984 . S
N995 H999 0.985 . S
H996 N991 0.984 . S
H997 N991 0.985 . S
H998 N995 0.984 . S
H999 N995 0.985 . S
H1000 N994 0.984 . S
H1001 N994 0.984 . S
H1002 N990 0.984 . S
H1003 N990 0.985 . S
C1004 C1005 1.363 . S
C1004 C1010 1.379 . S
C1004 N1012 1.356 . S
C1005 C1004 1.363 . S
C1005 C1011 1.363 . S
C1006 C1007 1.363 . S
C1006 C1011 1.379 . S
C1006 N1013 1.356 . S
C1007 C1006 1.363 . S
C1007 C1010 1.363 . S
N1008 C1010 1.356 . S
N1008 H1020 0.984 . S
N1008 H1021 0.985 . S
N1009 C1011 1.356 . S
N1009 H1014 0.984 . S
N1009 H1015 0.985 . S
C1010 C1004 1.379 . S
C1010 C1007 1.363 . S
C1010 N1008 1.356 . S
C1011 C1005 1.363 . S
C1011 C1006 1.379 . S
C1011 N1009 1.356 . S
N1012 C1004 1.356 . S
N1012 H1018 0.984 . S
N1012 H1019 0.984 . S
N1013 C1006 1.356 . S
N1013 H1016 0.984 . S
N1013 H1017 0.985 . S
H1014 N1009 0.984 . S
H1015 N1009 0.985 . S
H1016 N1013 0.984 . S
H1017 N1013 0.985 . S
H1018 N1012 0.984 . S
H1019 N1012 0.984 . S
H1020 N1008 0.984 . S
H1021 N1008 0.985 . S
C1022 C1023 1.363 . S
C1022 C1028 1.379 . S
C1022 N1030 1.356 . S
C1023 C1022 1.363 . S
C1023 C1029 1.363 . S
C1024 C1025 1.363 . S
C1024 C1029 1.379 . S
C1024 N1031 1.356 . S
C1025 C1024 1.363 . S
C1025 C1028 1.363 . S
N1026 C1028 1.356 . S
N1026 H1038 0.984 . S
N1026 H1039 0.985 . S
N1027 C1029 1.356 . S
N1027 H1032 0.984 . S
N1027 H1033 0.985 . S
C1028 C1022 1.379 . S
C1028 C1025 1.363 . S
C1028 N1026 1.356 . S
C1029 C1023 1.363 . S
C1029 C1024 1.379 . S
C1029 N1027 1.356 . S
N1030 C1022 1.356 . S
N1030 H1036 0.984 . S
N1030 H1037 0.984 . S
N1031 C1024 1.356 . S
N1031 H1034 0.984 . S
N1031 H1035 0.985 . S
H1032 N1027 0.984 . S
H1033 N1027 0.985 . S
H1034 N1031 0.984 . S
H1035 N1031 0.985 . S
H1036 N1030 0.984 . S
H1037 N1030 0.984 . S
H1038 N1026 0.984 . S
H1039 N1026 0.985 . S
C1040 C1041 1.363 . S
C1040 C1046 1.379 . S
C1040 N1048 1.356 . S
C1041 C1040 1.363 . S
C1041 C1047 1.363 . S
C1042 C1043 1.363 . S
C1042 C1047 1.379 . S
C1042 N1049 1.356 . S
C1043 C1042 1.363 . S
C1043 C1046 1.363 . S
N1044 C1046 1.356 . S
N1044 H1056 0.984 . S
N1044 H1057 0.985 . S
N1045 C1047 1.356 . S
N1045 H1050 0.984 . S
N1045 H1051 0.985 . S
C1046 C1040 1.379 . S
C1046 C1043 1.363 . S
C1046 N1044 1.356 . S
C1047 C1041 1.363 . S
C1047 C1042 1.379 . S
C1047 N1045 1.356 . S
N1048 C1040 1.356 . S
N1048 H1054 0.984 . S
N1048 H1055 0.984 . S
N1049 C1042 1.356 . S
N1049 H1052 0.984 . S
N1049 H1053 0.985 . S
H1050 N1045 0.984 . S
H1051 N1045 0.985 . S
H1052 N1049 0.984 . S
H1053 N1049 0.985 . S
H1054 N1048 0.984 . S
H1055 N1048 0.984 . S
H1056 N1044 0.984 . S
H1057 N1044 0.985 . S
C1058 C1059 1.363 . S
C1058 C1064 1.379 . S
C1058 N1066 1.356 . S
C1059 C1058 1.363 . S
C1059 C1065 1.363 . S
C1060 C1061 1.363 . S
C1060 C1065 1.379 . S
C1060 N1067 1.356 . S
C1061 C1060 1.363 . S
C1061 C1064 1.363 . S
N1062 C1064 1.356 . S
N1062 H1074 0.984 . S
N1062 H1075 0.985 . S
N1063 C1065 1.356 . S
N1063 H1068 0.984 . S
N1063 H1069 0.985 . S
C1064 C1058 1.379 . S
C1064 C1061 1.363 . S
C1064 N1062 1.356 . S
C1065 C1059 1.363 . S
C1065 C1060 1.379 . S
C1065 N1063 1.356 . S
N1066 C1058 1.356 . S
N1066 H1072 0.984 . S
N1066 H1073 0.984 . S
N1067 C1060 1.356 . S
N1067 H1070 0.984 . S
N1067 H1071 0.985 . S
H1068 N1063 0.984 . S
H1069 N1063 0.985 . S
H1070 N1067 0.984 . S
H1071 N1067 0.985 . S
H1072 N1066 0.984 . S
H1073 N1066 0.984 . S
H1074 N1062 0.984 . S
H1075 N1062 0.985 . S
C1076 C1077 1.363 . S
C1076 C1082 1.379 . S
C1076 N1084 1.356 . S
C1077 C1076 1.363 . S
C1077 C1083 1.363 . S
C1078 C1079 1.363 . S
C1078 C1083 1.379 . S
C1078 N1085 1.356 . S
C1079 C1078 1.363 . S
C1079 C1082 1.363 . S
N1080 C1082 1.356 . S
N1080 H1092 0.984 . S
N1080 H1093 0.985 . S
N1081 C1083 1.356 . S
N1081 H1086 0.984 . S
N1081 H1087 0.985 . S
C1082 C1076 1.379 . S
C1082 C1079 1.363 . S
C1082 N1080 1.356 . S
C1083 C1077 1.363 . S
C1083 C1078 1.379 . S
C1083 N1081 1.356 . S
N1084 C1076 1.356 . S
N1084 H1090 0.984 . S
N1084 H1091 0.984 . S
N1085 C1078 1.356 . S
N1085 H1088 0.984 . S
N1085 H1089 0.985 . S
H1086 N1081 0.984 . S
H1087 N1081 0.985 . S
H1088 N1085 0.984 . S
H1089 N1085 0.985 . S
H1090 N1084 0.984 . S
H1091 N1084 0.984 . S
H1092 N1080 0.984 . S
H1093 N1080 0.985 . S
C1094 C1095 1.363 . S
C1094 C1100 1.379 . S
C1094 N1102 1.356 . S
C1095 C1094 1.363 . S
C1095 C1101 1.363 . S
C1096 C1097 1.363 . S
C1096 C1101 1.379 . S
C1096 N1103 1.356 . S
C1097 C1096 1.363 . S
C1097 C1100 1.363 . S
N1098 C1100 1.356 . S
N1098 H1110 0.984 . S
N1098 H1111 0.985 . S
N1099 C1101 1.356 . S
N1099 H1104 0.984 . S
N1099 H1105 0.985 . S
C1100 C1094 1.379 . S
C1100 C1097 1.363 . S
C1100 N1098 1.356 . S
C1101 C1095 1.363 . S
C1101 C1096 1.379 . S
C1101 N1099 1.356 . S
N1102 C1094 1.356 . S
N1102 H1108 0.984 . S
N1102 H1109 0.984 . S
N1103 C1096 1.356 . S
N1103 H1106 0.984 . S
N1103 H1107 0.985 . S
H1104 N1099 0.984 . S
H1105 N1099 0.985 . S
H1106 N1103 0.984 . S
H1107 N1103 0.985 . S
H1108 N1102 0.984 . S
H1109 N1102 0.984 . S
H1110 N1098 0.984 . S
H1111 N1098 0.985 . S
C1112 C1113 1.363 . S
C1112 C1118 1.379 . S
C1112 N1120 1.356 . S
C1113 C1112 1.363 . S
C1113 C1119 1.363 . S
C1114 C1115 1.363 . S
C1114 C1119 1.379 . S
C1114 N1121 1.356 . S
C1115 C1114 1.363 . S
C1115 C1118 1.363 . S
N1116 C1118 1.356 . S
N1116 H1128 0.984 . S
N1116 H1129 0.985 . S
N1117 C1119 1.356 . S
N1117 H1122 0.984 . S
N1117 H1123 0.985 . S
C1118 C1112 1.379 . S
C1118 C1115 1.363 . S
C1118 N1116 1.356 . S
C1119 C1113 1.363 . S
C1119 C1114 1.379 . S
C1119 N1117 1.356 . S
N1120 C1112 1.356 . S
N1120 H1126 0.984 . S
N1120 H1127 0.984 . S
N1121 C1114 1.356 . S
N1121 H1124 0.984 . S
N1121 H1125 0.985 . S
H1122 N1117 0.984 . S
H1123 N1117 0.985 . S
H1124 N1121 0.984 . S
H1125 N1121 0.985 . S
H1126 N1120 0.984 . S
H1127 N1120 0.984 . S
H1128 N1116 0.984 . S
H1129 N1116 0.985 . S
C1130 C1131 1.363 . S
C1130 C1136 1.379 . S
C1130 N1138 1.356 . S
C1131 C1130 1.363 . S
C1131 C1137 1.363 . S
C1132 C1133 1.363 . S
C1132 C1137 1.379 . S
C1132 N1139 1.356 . S
C1133 C1132 1.363 . S
C1133 C1136 1.363 . S
N1134 C1136 1.356 . S
N1134 H1146 0.984 . S
N1134 H1147 0.985 . S
N1135 C1137 1.356 . S
N1135 H1140 0.984 . S
N1135 H1141 0.985 . S
C1136 C1130 1.379 . S
C1136 C1133 1.363 . S
C1136 N1134 1.356 . S
C1137 C1131 1.363 . S
C1137 C1132 1.379 . S
C1137 N1135 1.356 . S
N1138 C1130 1.356 . S
N1138 H1144 0.984 . S
N1138 H1145 0.984 . S
N1139 C1132 1.356 . S
N1139 H1142 0.984 . S
N1139 H1143 0.985 . S
H1140 N1135 0.984 . S
H1141 N1135 0.985 . S
H1142 N1139 0.984 . S
H1143 N1139 0.985 . S
H1144 N1138 0.984 . S
H1145 N1138 0.984 . S
H1146 N1134 0.984 . S
H1147 N1134 0.985 . S
C1148 C1149 1.363 . S
C1148 C1154 1.379 . S
C1148 N1156 1.356 . S
C1149 C1148 1.363 . S
C1149 C1155 1.363 . S
C1150 C1151 1.363 . S
C1150 C1155 1.379 . S
C1150 N1157 1.356 . S
C1151 C1150 1.363 . S
C1151 C1154 1.363 . S
N1152 C1154 1.356 . S
N1152 H1164 0.984 . S
N1152 H1165 0.985 . S
N1153 C1155 1.356 . S
N1153 H1158 0.984 . S
N1153 H1159 0.985 . S
C1154 C1148 1.379 . S
C1154 C1151 1.363 . S
C1154 N1152 1.356 . S
C1155 C1149 1.363 . S
C1155 C1150 1.379 . S
C1155 N1153 1.356 . S
N1156 C1148 1.356 . S
N1156 H1162 0.984 . S
N1156 H1163 0.984 . S
N1157 C1150 1.356 . S
N1157 H1160 0.984 . S
N1157 H1161 0.985 . S
H1158 N1153 0.984 . S
H1159 N1153 0.985 . S
H1160 N1157 0.984 . S
H1161 N1157 0.985 . S
H1162 N1156 0.984 . S
H1163 N1156 0.984 . S
H1164 N1152 0.984 . S
H1165 N1152 0.985 . S
C1166 C1167 1.363 . S
C1166 C1172 1.379 . S
C1166 N1174 1.356 . S
C1167 C1166 1.363 . S
C1167 C1173 1.363 . S
C1168 C1169 1.363 . S
C1168 C1173 1.379 . S
C1168 N1175 1.356 . S
C1169 C1168 1.363 . S
C1169 C1172 1.363 . S
N1170 C1172 1.356 . S
N1170 H1182 0.984 . S
N1170 H1183 0.985 . S
N1171 C1173 1.356 . S
N1171 H1176 0.984 . S
N1171 H1177 0.985 . S
C1172 C1166 1.379 . S
C1172 C1169 1.363 . S
C1172 N1170 1.356 . S
C1173 C1167 1.363 . S
C1173 C1168 1.379 . S
C1173 N1171 1.356 . S
N1174 C1166 1.356 . S
N1174 H1180 0.984 . S
N1174 H1181 0.984 . S
N1175 C1168 1.356 . S
N1175 H1178 0.984 . S
N1175 H1179 0.985 . S
H1176 N1171 0.984 . S
H1177 N1171 0.985 . S
H1178 N1175 0.984 . S
H1179 N1175 0.985 . S
H1180 N1174 0.984 . S
H1181 N1174 0.984 . S
H1182 N1170 0.984 . S
H1183 N1170 0.985 . S
C1184 C1185 1.363 . S
C1184 C1190 1.379 . S
C1184 N1192 1.356 . S
C1185 C1184 1.363 . S
C1185 C1191 1.363 . S
C1186 C1187 1.363 . S
C1186 C1191 1.379 . S
C1186 N1193 1.356 . S
C1187 C1186 1.363 . S
C1187 C1190 1.363 . S
N1188 C1190 1.356 . S
N1188 H1200 0.984 . S
N1188 H1201 0.985 . S
N1189 C1191 1.356 . S
N1189 H1194 0.984 . S
N1189 H1195 0.985 . S
C1190 C1184 1.379 . S
C1190 C1187 1.363 . S
C1190 N1188 1.356 . S
C1191 C1185 1.363 . S
C1191 C1186 1.379 . S
C1191 N1189 1.356 . S
N1192 C1184 1.356 . S
N1192 H1198 0.984 . S
N1192 H1199 0.984 . S
N1193 C1186 1.356 . S
N1193 H1196 0.984 1_565 S
N1193 H1197 0.985 . S
H1194 N1189 0.984 . S
H1195 N1189 0.985 . S
H1196 N1193 0.984 1_545 S
H1197 N1193 0.985 . S
H1198 N1192 0.984 . S
H1199 N1192 0.984 . S
H1200 N1188 0.984 . S
H1201 N1188 0.985 . S
C1202 C1203 1.363 . S
C1202 C1208 1.379 . S
C1202 N1210 1.356 . S
C1203 C1202 1.363 . S
C1203 C1209 1.363 . S
C1204 C1205 1.363 . S
C1204 C1209 1.379 . S
C1204 N1211 1.356 . S
C1205 C1204 1.363 . S
C1205 C1208 1.363 . S
N1206 C1208 1.356 . S
N1206 H1218 0.984 . S
N1206 H1219 0.985 . S
N1207 C1209 1.356 1_545 S
N1207 H1212 0.984 . S
N1207 H1213 0.985 . S
C1208 C1202 1.379 . S
C1208 C1205 1.363 . S
C1208 N1206 1.356 . S
C1209 C1203 1.363 . S
C1209 C1204 1.379 . S
C1209 N1207 1.356 1_565 S
N1210 C1202 1.356 . S
N1210 H1216 0.984 . S
N1210 H1217 0.984 . S
N1211 C1204 1.356 . S
N1211 H1214 0.984 . S
N1211 H1215 0.985 . S
H1212 N1207 0.984 . S
H1213 N1207 0.985 . S
H1214 N1211 0.984 . S
H1215 N1211 0.985 . S
H1216 N1210 0.984 . S
H1217 N1210 0.984 . S
H1218 N1206 0.984 . S
H1219 N1206 0.985 . S
C1220 C1221 1.363 . S
C1220 C1226 1.379 . S
C1220 N1228 1.356 . S
C1221 C1220 1.363 . S
C1221 C1227 1.363 . S
C1222 C1223 1.363 . S
C1222 C1227 1.379 . S
C1222 N1229 1.356 1_545 S
C1223 C1222 1.363 . S
C1223 C1226 1.363 . S
N1224 C1226 1.356 . S
N1224 H1236 0.984 . S
N1224 H1237 0.985 . S
N1225 C1227 1.356 . S
N1225 H1230 0.984 . S
N1225 H1231 0.985 . S
C1226 C1220 1.379 . S
C1226 C1223 1.363 . S
C1226 N1224 1.356 . S
C1227 C1221 1.363 . S
C1227 C1222 1.379 . S
C1227 N1225 1.356 . S
N1228 C1220 1.356 . S
N1228 H1234 0.984 . S
N1228 H1235 0.984 . S
N1229 C1222 1.356 1_565 S
N1229 H1232 0.984 . S
N1229 H1233 0.985 . S
H1230 N1225 0.984 . S
H1231 N1225 0.985 . S
H1232 N1229 0.984 . S
H1233 N1229 0.985 . S
H1234 N1228 0.984 . S
H1235 N1228 0.984 . S
H1236 N1224 0.984 . S
H1237 N1224 0.985 . S
C1238 C1239 1.363 . S
C1238 C1244 1.379 . S
C1238 N1246 1.356 . S
C1239 C1238 1.363 . S
C1239 C1245 1.363 . S
C1240 C1241 1.363 . S
C1240 C1245 1.379 . S
C1240 N1247 1.356 1_545 S
C1241 C1240 1.363 . S
C1241 C1244 1.363 . S
N1242 C1244 1.356 . S
N1242 H1254 0.984 . S
N1242 H1255 0.985 . S
N1243 C1245 1.356 . S
N1243 H1248 0.984 . S
N1243 H1249 0.985 . S
C1244 C1238 1.379 . S
C1244 C1241 1.363 . S
C1244 N1242 1.356 . S
C1245 C1239 1.363 . S
C1245 C1240 1.379 . S
C1245 N1243 1.356 . S
N1246 C1238 1.356 . S
N1246 H1252 0.984 . S
N1246 H1253 0.984 . S
N1247 C1240 1.356 1_565 S
N1247 H1250 0.984 . S
N1247 H1251 0.985 . S
H1248 N1243 0.984 . S
H1249 N1243 0.985 . S
H1250 N1247 0.984 . S
H1251 N1247 0.985 . S
H1252 N1246 0.984 . S
H1253 N1246 0.984 . S
H1254 N1242 0.984 . S
H1255 N1242 0.985 . S
C1256 C1257 1.363 . S
C1256 C1262 1.379 . S
C1256 N1264 1.356 . S
C1257 C1256 1.363 . S
C1257 C1263 1.363 . S
C1258 C1259 1.363 . S
C1258 C1263 1.379 . S
C1258 N1265 1.356 . S
C1259 C1258 1.363 . S
C1259 C1262 1.363 . S
N1260 C1262 1.356 . S
N1260 H1272 0.984 . S
N1260 H1273 0.985 . S
N1261 C1263 1.356 1_565 S
N1261 H1266 0.984 . S
N1261 H1267 0.985 . S
C1262 C1256 1.379 . S
C1262 C1259 1.363 . S
C1262 N1260 1.356 . S
C1263 C1257 1.363 . S
C1263 C1258 1.379 . S
C1263 N1261 1.356 1_545 S
N1264 C1256 1.356 . S
N1264 H1270 0.984 . S
N1264 H1271 0.984 . S
N1265 C1258 1.356 . S
N1265 H1268 0.984 . S
N1265 H1269 0.985 . S
H1266 N1261 0.984 . S
H1267 N1261 0.985 . S
H1268 N1265 0.984 . S
H1269 N1265 0.985 . S
H1270 N1264 0.984 . S
H1271 N1264 0.984 . S
H1272 N1260 0.984 . S
H1273 N1260 0.985 . S
C1274 C1275 1.363 . S
C1274 C1280 1.379 . S
C1274 N1282 1.356 . S
C1275 C1274 1.363 . S
C1275 C1281 1.363 . S
C1276 C1277 1.363 . S
C1276 C1281 1.379 . S
C1276 N1283 1.356 1_545 S
C1277 C1276 1.363 . S
C1277 C1280 1.363 . S
N1278 C1280 1.356 . S
N1278 H1290 0.984 . S
N1278 H1291 0.985 . S
N1279 C1281 1.356 . S
N1279 H1284 0.984 . S
N1279 H1285 0.985 . S
C1280 C1274 1.379 . S
C1280 C1277 1.363 . S
C1280 N1278 1.356 . S
C1281 C1275 1.363 . S
C1281 C1276 1.379 . S
C1281 N1279 1.356 . S
N1282 C1274 1.356 . S
N1282 H1288 0.984 . S
N1282 H1289 0.984 . S
N1283 C1276 1.356 1_565 S
N1283 H1286 0.984 . S
N1283 H1287 0.985 . S
H1284 N1279 0.984 . S
H1285 N1279 0.985 . S
H1286 N1283 0.984 . S
H1287 N1283 0.985 . S
H1288 N1282 0.984 . S
H1289 N1282 0.984 . S
H1290 N1278 0.984 . S
H1291 N1278 0.985 . S
C1292 C1293 1.363 . S
C1292 C1298 1.379 . S
C1292 N1300 1.356 . S
C1293 C1292 1.363 . S
C1293 C1299 1.363 . S
C1294 C1295 1.363 . S
C1294 C1299 1.379 . S
C1294 N1301 1.356 . S
C1295 C1294 1.363 . S
C1295 C1298 1.363 . S
N1296 C1298 1.356 1_545 S
N1296 H1308 0.984 . S
N1296 H1309 0.985 . S
N1297 C1299 1.356 . S
N1297 H1302 0.984 . S
N1297 H1303 0.985 . S
C1298 C1292 1.379 . S
C1298 C1295 1.363 . S
C1298 N1296 1.356 1_565 S
C1299 C1293 1.363 . S
C1299 C1294 1.379 . S
C1299 N1297 1.356 . S
N1300 C1292 1.356 . S
N1300 H1306 0.984 . S
N1300 H1307 0.984 . S
N1301 C1294 1.356 . S
N1301 H1304 0.984 . S
N1301 H1305 0.985 . S
H1302 N1297 0.984 . S
H1303 N1297 0.985 . S
H1304 N1301 0.984 . S
H1305 N1301 0.985 . S
H1306 N1300 0.984 . S
H1307 N1300 0.984 . S
H1308 N1296 0.984 . S
H1309 N1296 0.985 . S
C1310 C1311 1.363 . S
C1310 C1316 1.379 . S
C1310 N1318 1.356 . S
C1311 C1310 1.363 . S
C1311 C1317 1.363 . S
C1312 C1313 1.363 . S
C1312 C1317 1.379 . S
C1312 N1319 1.356 . S
C1313 C1312 1.363 . S
C1313 C1316 1.363 . S
N1314 C1316 1.356 . S
N1314 H1326 0.984 . S
N1314 H1327 0.985 . S
N1315 C1317 1.356 1_545 S
N1315 H1320 0.984 . S
N1315 H1321 0.985 . S
C1316 C1310 1.379 . S
C1316 C1313 1.363 . S
C1316 N1314 1.356 . S
C1317 C1311 1.363 . S
C1317 C1312 1.379 . S
C1317 N1315 1.356 1_565 S
N1318 C1310 1.356 . S
N1318 H1324 0.984 . S
N1318 H1325 0.984 . S
N1319 C1312 1.356 . S
N1319 H1322 0.984 . S
N1319 H1323 0.985 . S
H1320 N1315 0.984 . S
H1321 N1315 0.985 . S
H1322 N1319 0.984 . S
H1323 N1319 0.985 . S
H1324 N1318 0.984 . S
H1325 N1318 0.984 . S
H1326 N1314 0.984 . S
H1327 N1314 0.985 . S
C1328 C1329 1.363 . S
C1328 C1334 1.379 . S
C1328 N1336 1.356 . S
C1329 C1328 1.363 . S
C1329 C1335 1.363 . S
C1330 C1331 1.363 . S
C1330 C1335 1.379 . S
C1330 N1337 1.356 . S
C1331 C1330 1.363 . S
C1331 C1334 1.363 . S
N1332 C1334 1.356 . S
N1332 H1344 0.984 . S
N1332 H1345 0.985 . S
N1333 C1335 1.356 . S
N1333 H1338 0.984 . S
N1333 H1339 0.985 . S
C1334 C1328 1.379 . S
C1334 C1331 1.363 . S
C1334 N1332 1.356 . S
C1335 C1329 1.363 . S
C1335 C1330 1.379 . S
C1335 N1333 1.356 . S
N1336 C1328 1.356 . S
N1336 H1342 0.984 . S
N1336 H1343 0.984 . S
N1337 C1330 1.356 . S
N1337 H1340 0.984 . S
N1337 H1341 0.985 . S
H1338 N1333 0.984 . S
H1339 N1333 0.985 . S
H1340 N1337 0.984 . S
H1341 N1337 0.985 . S
H1342 N1336 0.984 . S
H1343 N1336 0.984 . S
H1344 N1332 0.984 . S
H1345 N1332 0.985 . S
C1346 C1347 1.363 . S
C1346 C1352 1.379 . S
C1346 N1354 1.356 . S
C1347 C1346 1.363 . S
C1347 C1353 1.363 . S
C1348 C1349 1.363 . S
C1348 C1353 1.379 . S
C1348 N1355 1.356 . S
C1349 C1348 1.363 . S
C1349 C1352 1.363 . S
N1350 C1352 1.356 . S
N1350 H1362 0.984 . S
N1350 H1363 0.985 . S
N1351 C1353 1.356 . S
N1351 H1356 0.984 . S
N1351 H1357 0.985 . S
C1352 C1346 1.379 . S
C1352 C1349 1.363 . S
C1352 N1350 1.356 . S
C1353 C1347 1.363 . S
C1353 C1348 1.379 . S
C1353 N1351 1.356 . S
N1354 C1346 1.356 . S
N1354 H1360 0.984 . S
N1354 H1361 0.984 . S
N1355 C1348 1.356 . S
N1355 H1358 0.984 . S
N1355 H1359 0.985 . S
H1356 N1351 0.984 . S
H1357 N1351 0.985 . S
H1358 N1355 0.984 . S
H1359 N1355 0.985 . S
H1360 N1354 0.984 . S
H1361 N1354 0.984 . S
H1362 N1350 0.984 . S
H1363 N1350 0.985 . S
C1364 C1365 1.363 . S
C1364 C1370 1.379 . S
C1364 N1372 1.356 . S
C1365 C1364 1.363 . S
C1365 C1371 1.363 . S
C1366 C1367 1.363 . S
C1366 C1371 1.379 . S
C1366 N1373 1.356 . S
C1367 C1366 1.363 . S
C1367 C1370 1.363 . S
N1368 C1370 1.356 . S
N1368 H1380 0.984 . S
N1368 H1381 0.985 . S
N1369 C1371 1.356 . S
N1369 H1374 0.984 . S
N1369 H1375 0.985 . S
C1370 C1364 1.379 . S
C1370 C1367 1.363 . S
C1370 N1368 1.356 . S
C1371 C1365 1.363 . S
C1371 C1366 1.379 . S
C1371 N1369 1.356 . S
N1372 C1364 1.356 . S
N1372 H1378 0.984 . S
N1372 H1379 0.984 . S
N1373 C1366 1.356 . S
N1373 H1376 0.984 . S
N1373 H1377 0.985 . S
H1374 N1369 0.984 . S
H1375 N1369 0.985 . S
H1376 N1373 0.984 . S
H1377 N1373 0.985 . S
H1378 N1372 0.984 . S
H1379 N1372 0.984 . S
H1380 N1368 0.984 . S
H1381 N1368 0.985 . S
C1382 C1383 1.363 . S
C1382 C1388 1.379 . S
C1382 N1390 1.356 . S
C1383 C1382 1.363 . S
C1383 C1389 1.363 . S
C1384 C1385 1.363 . S
C1384 C1389 1.379 . S
C1384 N1391 1.356 . S
C1385 C1384 1.363 . S
C1385 C1388 1.363 . S
N1386 C1388 1.356 . S
N1386 H1398 0.984 . S
N1386 H1399 0.985 . S
N1387 C1389 1.356 . S
N1387 H1392 0.984 . S
N1387 H1393 0.985 . S
C1388 C1382 1.379 . S
C1388 C1385 1.363 . S
C1388 N1386 1.356 . S
C1389 C1383 1.363 . S
C1389 C1384 1.379 . S
C1389 N1387 1.356 . S
N1390 C1382 1.356 . S
N1390 H1396 0.984 . S
N1390 H1397 0.984 . S
N1391 C1384 1.356 . S
N1391 H1394 0.984 . S
N1391 H1395 0.985 . S
H1392 N1387 0.984 . S
H1393 N1387 0.985 . S
H1394 N1391 0.984 . S
H1395 N1391 0.985 . S
H1396 N1390 0.984 . S
H1397 N1390 0.984 . S
H1398 N1386 0.984 . S
H1399 N1386 0.985 . S
C1400 C1401 1.363 . S
C1400 C1406 1.379 . S
C1400 N1408 1.356 . S
C1401 C1400 1.363 . S
C1401 C1407 1.363 . S
C1402 C1403 1.363 . S
C1402 C1407 1.379 . S
C1402 N1409 1.356 . S
C1403 C1402 1.363 . S
C1403 C1406 1.363 . S
N1404 C1406 1.356 . S
N1404 H1416 0.984 . S
N1404 H1417 0.985 . S
N1405 C1407 1.356 . S
N1405 H1410 0.984 . S
N1405 H1411 0.985 . S
C1406 C1400 1.379 . S
C1406 C1403 1.363 . S
C1406 N1404 1.356 . S
C1407 C1401 1.363 . S
C1407 C1402 1.379 . S
C1407 N1405 1.356 . S
N1408 C1400 1.356 . S
N1408 H1414 0.984 . S
N1408 H1415 0.984 . S
N1409 C1402 1.356 . S
N1409 H1412 0.984 . S
N1409 H1413 0.985 . S
H1410 N1405 0.984 . S
H1411 N1405 0.985 . S
H1412 N1409 0.984 . S
H1413 N1409 0.985 . S
H1414 N1408 0.984 . S
H1415 N1408 0.984 . S
H1416 N1404 0.984 . S
H1417 N1404 0.985 . S
C1418 C1419 1.363 . S
C1418 C1424 1.379 . S
C1418 N1426 1.356 . S
C1419 C1418 1.363 . S
C1419 C1425 1.363 . S
C1420 C1421 1.363 . S
C1420 C1425 1.379 . S
C1420 N1427 1.356 . S
C1421 C1420 1.363 . S
C1421 C1424 1.363 . S
N1422 C1424 1.356 . S
N1422 H1434 0.984 . S
N1422 H1435 0.985 . S
N1423 C1425 1.356 . S
N1423 H1428 0.984 . S
N1423 H1429 0.985 . S
C1424 C1418 1.379 . S
C1424 C1421 1.363 . S
C1424 N1422 1.356 . S
C1425 C1419 1.363 . S
C1425 C1420 1.379 . S
C1425 N1423 1.356 . S
N1426 C1418 1.356 . S
N1426 H1432 0.984 . S
N1426 H1433 0.984 . S
N1427 C1420 1.356 . S
N1427 H1430 0.984 . S
N1427 H1431 0.985 . S
H1428 N1423 0.984 . S
H1429 N1423 0.985 . S
H1430 N1427 0.984 . S
H1431 N1427 0.985 . S
H1432 N1426 0.984 . S
H1433 N1426 0.984 . S
H1434 N1422 0.984 . S
H1435 N1422 0.985 . S
C1436 C1437 1.363 . S
C1436 C1442 1.379 . S
C1436 N1444 1.356 . S
C1437 C1436 1.363 . S
C1437 C1443 1.363 . S
C1438 C1439 1.363 . S
C1438 C1443 1.379 . S
C1438 N1445 1.356 . S
C1439 C1438 1.363 . S
C1439 C1442 1.363 . S
N1440 C1442 1.356 . S
N1440 H1452 0.984 . S
N1440 H1453 0.985 . S
N1441 C1443 1.356 . S
N1441 H1446 0.984 . S
N1441 H1447 0.985 . S
C1442 C1436 1.379 . S
C1442 C1439 1.363 . S
C1442 N1440 1.356 . S
C1443 C1437 1.363 . S
C1443 C1438 1.379 . S
C1443 N1441 1.356 . S
N1444 C1436 1.356 . S
N1444 H1450 0.984 . S
N1444 H1451 0.984 . S
N1445 C1438 1.356 . S
N1445 H1448 0.984 . S
N1445 H1449 0.985 . S
H1446 N1441 0.984 . S
H1447 N1441 0.985 . S
H1448 N1445 0.984 . S
H1449 N1445 0.985 . S
H1450 N1444 0.984 . S
H1451 N1444 0.984 . S
H1452 N1440 0.984 . S
H1453 N1440 0.985 . S
C1454 C1455 1.363 . S
C1454 C1460 1.379 . S
C1454 N1462 1.356 . S
C1455 C1454 1.363 . S
C1455 C1461 1.363 . S
C1456 C1457 1.363 . S
C1456 C1461 1.379 . S
C1456 N1463 1.356 . S
C1457 C1456 1.363 . S
C1457 C1460 1.363 . S
N1458 C1460 1.356 . S
N1458 H1470 0.984 . S
N1458 H1471 0.985 . S
N1459 C1461 1.356 . S
N1459 H1464 0.984 . S
N1459 H1465 0.985 . S
C1460 C1454 1.379 . S
C1460 C1457 1.363 . S
C1460 N1458 1.356 . S
C1461 C1455 1.363 . S
C1461 C1456 1.379 . S
C1461 N1459 1.356 . S
N1462 C1454 1.356 . S
N1462 H1468 0.984 . S
N1462 H1469 0.984 . S
N1463 C1456 1.356 . S
N1463 H1466 0.984 . S
N1463 H1467 0.985 . S
H1464 N1459 0.984 . S
H1465 N1459 0.985 . S
H1466 N1463 0.984 . S
H1467 N1463 0.985 . S
H1468 N1462 0.984 . S
H1469 N1462 0.984 . S
H1470 N1458 0.984 . S
H1471 N1458 0.985 . S
C465 C137 1.499 . S
C467 C21 1.499 . S
C483 C50 1.499 . S
C485 C166 1.499 . S
C501 C195 1.499 . S
C503 C79 1.499 . S
C519 C224 1.499 . S
C521 C108 1.499 . S
C537 C311 1.499 . S
C539 C253 1.499 . S
C555 C282 1.499 . S
C557 C340 1.499 . S
C573 C427 1.499 . S
C575 C369 1.499 . S
C591 C398 1.499 . S
C593 C456 1.499 . S
C609 C100 2.050 . S
C611 C5 2.061 . S
C627 C13 2.050 . S
C629 C34 2.061 . S
C645 C42 2.050 . S
C647 C63 2.061 . S
C663 C92 2.061 . S
C665 C71 2.050 . S
C681 C158 2.050 . S
C683 C121 2.061 . S
C699 C187 2.050 . S
C701 C150 2.061 . S
C717 C216 2.050 . S
C719 C179 2.061 . S
C735 C129 2.050 . S
C737 C208 2.061 . S
C753 C124 1.303 . S
C755 C276 1.337 . S
C771 C240 1.303 . S
C773 C131 1.337 1_545 S
C789 C182 1.303 . S
C791 C247 1.337 . S
C807 C269 1.303 . S
C809 C189 1.337 1_565 S
C825 C305 1.337 . S
C827 C8 1.303 . S
C843 C73 1.337 1_545 S
C845 C298 1.303 . S
C861 C334 1.337 . S
C863 C66 1.303 . S
C879 C15 1.337 1_565 S
C881 C327 1.303 . S
C897 C332 2.050 . S
C899 C353 2.061 . S
C915 C361 2.050 . S
C917 C295 2.061 . S
C933 C382 2.061 . S
C935 C303 2.050 . S
C951 C324 2.061 . S
C953 C390 2.050 . S
C969 C411 2.061 . S
C971 C245 2.050 . S
C987 C448 2.050 . S
C989 C237 2.061 . S
C1005 C274 2.050 . S
C1007 C440 2.061 . S
C1023 C419 2.050 . S
C1025 C266 2.061 . S
C1041 C218 1.337 . S
C1043 C414 1.303 . S
C1059 C421 1.337 . S
C1061 C153 1.303 . S
C1077 C443 1.303 . S
C1079 C160 1.337 . S
C1095 C211 1.303 . S
C1097 C450 1.338 . S
C1113 C44 1.337 . S
C1115 C356 1.303 . S
C1131 C37 1.303 . S
C1133 C392 1.338 . S
C1149 C385 1.303 . S
C1151 C102 1.337 . S
C1167 C363 1.337 . S
C1169 C95 1.303 . S
C1185 C148 0.844 . S
C1187 C3 0.844 . S
C1203 C177 0.844 . S
C1205 C32 0.844 . S
C1221 C206 0.844 . S
C1223 C61 0.844 . S
C1239 C90 0.844 . S
C1241 C119 0.844 . S
C1257 C126 3.199 1_545 S
C1259 C300 3.199 . S
C1275 C242 3.199 . S
C1277 C68 3.199 1_545 S
C1293 C329 3.199 . S
C1295 C184 3.199 1_565 S
C1311 C10 3.199 1_565 S
C1313 C271 3.199 . S
C1329 C351 0.844 . S
C1331 C235 0.844 . S
C1347 C293 0.844 . S
C1349 C438 0.844 . S
C1365 C380 0.844 . S
C1367 C264 0.844 . S
C1383 C409 0.844 . S
C1385 C322 0.844 . S
C1401 C39 3.199 . S
C1403 C416 3.199 . S
C1419 C387 3.199 . S
C1421 C155 3.199 . S
C1437 C97 3.199 . S
C1439 C445 3.199 . S
C1455 C213 3.199 . S
C1457 C358 3.199 . S
