# Generated by pormake.
# Topology ict, (4)-cn, num edge types: 1
# Building blocks:
#     Node 0, Type 0, BuildingBlock: CEKHIL_clean_sbu_0, # of connection points: 4
#     Node 1, Type 0, BuildingBlock: CEKHIL_clean_sbu_0, # of connection points: 4
#     Node 2, Type 0, BuildingBlock: CEKHIL_clean_sbu_0, # of connection points: 4
#     Node 3, Type 0, BuildingBlock: CEKHIL_clean_sbu_0, # of connection points: 4
#     Node 4, Type 0, BuildingBlock: CEKHIL_clean_sbu_0, # of connection points: 4
#     Node 5, Type 0, BuildingBlock: CEKHIL_clean_sbu_0, # of connection points: 4
#     Node 6, Type 0, BuildingBlock: CEKHIL_clean_sbu_0, # of connection points: 4
#     Node 7, Type 0, BuildingBlock: CEKHIL_clean_sbu_0, # of connection points: 4
#     Node 8, Type 0, BuildingBlock: CEKHIL_clean_sbu_0, # of connection points: 4
#     Node 9, Type 0, BuildingBlock: CEKHIL_clean_sbu_0, # of connection points: 4
#     Node 10, Type 0, BuildingBlock: CEKHIL_clean_sbu_0, # of connection points: 4
#     Node 11, Type 0, BuildingBlock: CEKHIL_clean_sbu_0, # of connection points: 4
#     Node 12, Type 0, BuildingBlock: CEKHIL_clean_sbu_0, # of connection points: 4
#     Node 13, Type 0, BuildingBlock: CEKHIL_clean_sbu_0, # of connection points: 4
#     Node 14, Type 0, BuildingBlock: CEKHIL_clean_sbu_0, # of connection points: 4
#     Node 15, Type 0, BuildingBlock: CEKHIL_clean_sbu_0, # of connection points: 4
#     Node 16, Type 0, BuildingBlock: CEKHIL_clean_sbu_0, # of connection points: 4
#     Node 17, Type 0, BuildingBlock: CEKHIL_clean_sbu_0, # of connection points: 4
#     Node 18, Type 0, BuildingBlock: CEKHIL_clean_sbu_0, # of connection points: 4
#     Node 19, Type 0, BuildingBlock: CEKHIL_clean_sbu_0, # of connection points: 4
#     Node 20, Type 0, BuildingBlock: CEKHIL_clean_sbu_0, # of connection points: 4
#     Node 21, Type 0, BuildingBlock: CEKHIL_clean_sbu_0, # of connection points: 4
#     Node 22, Type 0, BuildingBlock: CEKHIL_clean_sbu_0, # of connection points: 4
#     Node 23, Type 0, BuildingBlock: CEKHIL_clean_sbu_0, # of connection points: 4
#     Node 24, Type 0, BuildingBlock: CEKHIL_clean_sbu_0, # of connection points: 4
#     Node 25, Type 0, BuildingBlock: CEKHIL_clean_sbu_0, # of connection points: 4
#     Node 26, Type 0, BuildingBlock: CEKHIL_clean_sbu_0, # of connection points: 4
#     Node 27, Type 0, BuildingBlock: CEKHIL_clean_sbu_0, # of connection points: 4
#     Node 28, Type 0, BuildingBlock: CEKHIL_clean_sbu_0, # of connection points: 4
#     Node 29, Type 0, BuildingBlock: CEKHIL_clean_sbu_0, # of connection points: 4
#     Node 30, Type 0, BuildingBlock: CEKHIL_clean_sbu_0, # of connection points: 4
#     Node 31, Type 0, BuildingBlock: CEKHIL_clean_sbu_0, # of connection points: 4
#     Node 32, Type 0, BuildingBlock: CEKHIL_clean_sbu_0, # of connection points: 4
#     Node 33, Type 0, BuildingBlock: CEKHIL_clean_sbu_0, # of connection points: 4
#     Node 34, Type 0, BuildingBlock: CEKHIL_clean_sbu_0, # of connection points: 4
#     Node 35, Type 0, BuildingBlock: CEKHIL_clean_sbu_0, # of connection points: 4
#     Edge 36, Type (0, 0), BuildingBlock: UVAHIK_clean_linker_0, # of connection points: 2
#     Edge 37, Type (0, 0), BuildingBlock: UVAHIK_clean_linker_0, # of connection points: 2
#     Edge 38, Type (0, 0), BuildingBlock: UVAHIK_clean_linker_0, # of connection points: 2
#     Edge 39, Type (0, 0), BuildingBlock: UVAHIK_clean_linker_0, # of connection points: 2
#     Edge 40, Type (0, 0), BuildingBlock: UVAHIK_clean_linker_0, # of connection points: 2
#     Edge 41, Type (0, 0), BuildingBlock: UVAHIK_clean_linker_0, # of connection points: 2
#     Edge 42, Type (0, 0), BuildingBlock: UVAHIK_clean_linker_0, # of connection points: 2
#     Edge 43, Type (0, 0), BuildingBlock: UVAHIK_clean_linker_0, # of connection points: 2
#     Edge 44, Type (0, 0), BuildingBlock: UVAHIK_clean_linker_0, # of connection points: 2
#     Edge 45, Type (0, 0), BuildingBlock: UVAHIK_clean_linker_0, # of connection points: 2
#     Edge 46, Type (0, 0), BuildingBlock: UVAHIK_clean_linker_0, # of connection points: 2
#     Edge 47, Type (0, 0), BuildingBlock: UVAHIK_clean_linker_0, # of connection points: 2
#     Edge 48, Type (0, 0), BuildingBlock: UVAHIK_clean_linker_0, # of connection points: 2
#     Edge 49, Type (0, 0), BuildingBlock: UVAHIK_clean_linker_0, # of connection points: 2
#     Edge 50, Type (0, 0), BuildingBlock: UVAHIK_clean_linker_0, # of connection points: 2
#     Edge 51, Type (0, 0), BuildingBlock: UVAHIK_clean_linker_0, # of connection points: 2
#     Edge 52, Type (0, 0), BuildingBlock: UVAHIK_clean_linker_0, # of connection points: 2
#     Edge 53, Type (0, 0), BuildingBlock: UVAHIK_clean_linker_0, # of connection points: 2
#     Edge 54, Type (0, 0), BuildingBlock: UVAHIK_clean_linker_0, # of connection points: 2
#     Edge 55, Type (0, 0), BuildingBlock: UVAHIK_clean_linker_0, # of connection points: 2
#     Edge 56, Type (0, 0), BuildingBlock: UVAHIK_clean_linker_0, # of connection points: 2
#     Edge 57, Type (0, 0), BuildingBlock: UVAHIK_clean_linker_0, # of connection points: 2
#     Edge 58, Type (0, 0), BuildingBlock: UVAHIK_clean_linker_0, # of connection points: 2
#     Edge 59, Type (0, 0), BuildingBlock: UVAHIK_clean_linker_0, # of connection points: 2
#     Edge 60, Type (0, 0), BuildingBlock: UVAHIK_clean_linker_0, # of connection points: 2
#     Edge 61, Type (0, 0), BuildingBlock: UVAHIK_clean_linker_0, # of connection points: 2
#     Edge 62, Type (0, 0), BuildingBlock: UVAHIK_clean_linker_0, # of connection points: 2
#     Edge 63, Type (0, 0), BuildingBlock: UVAHIK_clean_linker_0, # of connection points: 2
#     Edge 64, Type (0, 0), BuildingBlock: UVAHIK_clean_linker_0, # of connection points: 2
#     Edge 65, Type (0, 0), BuildingBlock: UVAHIK_clean_linker_0, # of connection points: 2
#     Edge 66, Type (0, 0), BuildingBlock: UVAHIK_clean_linker_0, # of connection points: 2
#     Edge 67, Type (0, 0), BuildingBlock: UVAHIK_clean_linker_0, # of connection points: 2
#     Edge 68, Type (0, 0), BuildingBlock: UVAHIK_clean_linker_0, # of connection points: 2
#     Edge 69, Type (0, 0), BuildingBlock: UVAHIK_clean_linker_0, # of connection points: 2
#     Edge 70, Type (0, 0), BuildingBlock: UVAHIK_clean_linker_0, # of connection points: 2
#     Edge 71, Type (0, 0), BuildingBlock: UVAHIK_clean_linker_0, # of connection points: 2
#     Edge 72, Type (0, 0), BuildingBlock: UVAHIK_clean_linker_0, # of connection points: 2
#     Edge 73, Type (0, 0), BuildingBlock: UVAHIK_clean_linker_0, # of connection points: 2
#     Edge 74, Type (0, 0), BuildingBlock: UVAHIK_clean_linker_0, # of connection points: 2
#     Edge 75, Type (0, 0), BuildingBlock: UVAHIK_clean_linker_0, # of connection points: 2
#     Edge 76, Type (0, 0), BuildingBlock: UVAHIK_clean_linker_0, # of connection points: 2
#     Edge 77, Type (0, 0), BuildingBlock: UVAHIK_clean_linker_0, # of connection points: 2
#     Edge 78, Type (0, 0), BuildingBlock: UVAHIK_clean_linker_0, # of connection points: 2
#     Edge 79, Type (0, 0), BuildingBlock: UVAHIK_clean_linker_0, # of connection points: 2
#     Edge 80, Type (0, 0), BuildingBlock: UVAHIK_clean_linker_0, # of connection points: 2
#     Edge 81, Type (0, 0), BuildingBlock: UVAHIK_clean_linker_0, # of connection points: 2
#     Edge 82, Type (0, 0), BuildingBlock: UVAHIK_clean_linker_0, # of connection points: 2
#     Edge 83, Type (0, 0), BuildingBlock: UVAHIK_clean_linker_0, # of connection points: 2
#     Edge 84, Type (0, 0), BuildingBlock: UVAHIK_clean_linker_0, # of connection points: 2
#     Edge 85, Type (0, 0), BuildingBlock: UVAHIK_clean_linker_0, # of connection points: 2
#     Edge 86, Type (0, 0), BuildingBlock: UVAHIK_clean_linker_0, # of connection points: 2
#     Edge 87, Type (0, 0), BuildingBlock: UVAHIK_clean_linker_0, # of connection points: 2
#     Edge 88, Type (0, 0), BuildingBlock: UVAHIK_clean_linker_0, # of connection points: 2
#     Edge 89, Type (0, 0), BuildingBlock: UVAHIK_clean_linker_0, # of connection points: 2
#     Edge 90, Type (0, 0), BuildingBlock: UVAHIK_clean_linker_0, # of connection points: 2
#     Edge 91, Type (0, 0), BuildingBlock: UVAHIK_clean_linker_0, # of connection points: 2
#     Edge 92, Type (0, 0), BuildingBlock: UVAHIK_clean_linker_0, # of connection points: 2
#     Edge 93, Type (0, 0), BuildingBlock: UVAHIK_clean_linker_0, # of connection points: 2
#     Edge 94, Type (0, 0), BuildingBlock: UVAHIK_clean_linker_0, # of connection points: 2
#     Edge 95, Type (0, 0), BuildingBlock: UVAHIK_clean_linker_0, # of connection points: 2
#     Edge 96, Type (0, 0), BuildingBlock: UVAHIK_clean_linker_0, # of connection points: 2
#     Edge 97, Type (0, 0), BuildingBlock: UVAHIK_clean_linker_0, # of connection points: 2
#     Edge 98, Type (0, 0), BuildingBlock: UVAHIK_clean_linker_0, # of connection points: 2
#     Edge 99, Type (0, 0), BuildingBlock: UVAHIK_clean_linker_0, # of connection points: 2
#     Edge 100, Type (0, 0), BuildingBlock: UVAHIK_clean_linker_0, # of connection points: 2
#     Edge 101, Type (0, 0), BuildingBlock: UVAHIK_clean_linker_0, # of connection points: 2
#     Edge 102, Type (0, 0), BuildingBlock: UVAHIK_clean_linker_0, # of connection points: 2
#     Edge 103, Type (0, 0), BuildingBlock: UVAHIK_clean_linker_0, # of connection points: 2
#     Edge 104, Type (0, 0), BuildingBlock: UVAHIK_clean_linker_0, # of connection points: 2
#     Edge 105, Type (0, 0), BuildingBlock: UVAHIK_clean_linker_0, # of connection points: 2
#     Edge 106, Type (0, 0), BuildingBlock: UVAHIK_clean_linker_0, # of connection points: 2
#     Edge 107, Type (0, 0), BuildingBlock: UVAHIK_clean_linker_0, # of connection points: 2
# Relax obj value: 0.096
# Max RMSD: 0.120
# Mean RMSD: 0.120
data_MOF--net-ict--node1-CEKHIL_clean_sbu_0--edge1-UVAHIK_clean_linker_0
_symmetry_space_group_name_H-M    P1
_symmetry_Int_Tables_number       1
_symmetry_cell_setting            triclinic
loop_
_symmetry_equiv_pos_as_xyz
'x, y, z'
_cell_length_a     83.069542
_cell_length_b     83.0368
_cell_length_c     47.767858
_cell_angle_alpha  89.984175
_cell_angle_beta   90.015951
_cell_angle_gamma 119.99401
loop_
_atom_site_label
_atom_site_type_symbol
_atom_site_fract_x
_atom_site_fract_y
_atom_site_fract_z
_atom_type_partial_charge
Co0 Co 0.22951 0.22071 0.04375 0.0
O1 O 0.23789 0.22442 0.0056 0.0
O2 O 0.25638 0.23537 0.04254 0.0
C3 C 0.20655 0.22726 0.0362 0.0
O4 O 0.22584 0.22029 0.08617 0.0
Co5 Co 0.18943 0.18999 0.05931 0.0
O6 O 0.19533 0.20308 0.09575 0.0
C7 C 0.21766 0.17973 0.04407 0.0
C8 C 0.25466 0.23378 0.01544 0.0
C9 C 0.21201 0.21422 0.1033 0.0
O10 O 0.23055 0.19693 0.04502 0.0
O11 O 0.20039 0.17442 0.04705 0.0
O12 O 0.22349 0.24069 0.04021 0.0
O13 O 0.20445 0.21081 0.03511 0.0
Co14 Co 0.77951 0.01094 0.04286 0.0
O15 O 0.77519 0.0145 0.00443 0.0
O16 O 0.76354 0.02166 0.04094 0.0
C17 C 0.77475 0.98194 0.0372 0.0
O18 O 0.78022 0.00846 0.08543 0.0
Co19 Co 0.81219 0.0049 0.0595 0.0
O20 O 0.79815 0.99596 0.09499 0.0
C21 C 0.81979 0.04244 0.04394 0.0
C22 C 0.76509 0.0212 0.01387 0.0
C23 C 0.7864 0.00074 0.10243 0.0
O24 O 0.80223 0.03656 0.04318 0.0
O25 O 0.82658 0.03184 0.04863 0.0
O26 O 0.76069 0.98457 0.04045 0.0
O27 O 0.79081 0.99682 0.03528 0.0
Co28 Co 0.98894 0.76843 0.04075 0.0
O29 O 0.98476 0.76001 0.0026 0.0
O30 O 0.97778 0.74164 0.03961 0.0
C31 C 0.01801 0.79221 0.03342 0.0
O32 O 0.99194 0.77213 0.0832 0.0
Co33 Co 0.99596 0.80754 0.05645 0.0
O34 O 0.00461 0.80262 0.09237 0.0
C35 C 0.95805 0.77801 0.0418 0.0
C36 C 0.97792 0.74331 0.0125 0.0
C37 C -0.00031 0.7861 0.10006 0.0
O38 O 0.96355 0.76602 0.04151 0.0
O39 O 0.969 0.79542 0.04585 0.0
O40 O 0.01515 0.77551 0.0377 0.0
O41 O 0.00328 0.79369 0.03201 0.0
Co42 Co 0.22094 0.22957 0.46107 0.0
O43 O 0.22427 0.23832 0.49901 0.0
O44 O 0.23501 0.2565 0.46172 0.0
C45 C 0.2283 0.2073 0.46987 0.0
O46 O 0.22091 0.22559 0.41878 0.0
Co47 Co 0.1913 0.18908 0.44579 0.0
O48 O 0.20485 0.19494 0.40974 0.0
C49 C 0.17971 0.21656 0.45959 0.0
C50 C 0.23337 0.25501 0.48884 0.0
C51 C 0.21555 0.21168 0.40199 0.0
O52 O 0.19677 0.2298 0.45904 0.0
O53 O 0.17493 0.19939 0.45683 0.0
O54 O 0.24139 0.22434 0.46542 0.0
O55 O 0.21164 0.20467 0.47043 0.0
Co56 Co 0.76891 0.99115 0.46073 0.0
O57 O 0.76077 0.98753 0.49903 0.0
O58 O 0.74207 0.97884 0.46221 0.0
C59 C 0.79165 0.0209 0.46593 0.0
O60 O 0.7723 0.99328 0.41817 0.0
Co61 Co 0.80858 0.99948 0.4455 0.0
O62 O 0.80284 0.00667 0.40893 0.0
C63 C 0.78025 0.96144 0.46158 0.0
C64 C 0.74395 0.97976 0.48932 0.0
C65 C 0.78619 0.00101 0.40116 0.0
O66 O 0.76781 0.96633 0.4614 0.0
O67 O 0.79754 0.9728 0.45727 0.0
O68 O 0.77455 0.01694 0.46228 0.0
O69 O 0.79417 0.00683 0.46861 0.0
Co70 Co 0.00985 0.77888 0.45834 0.0
O71 O 0.01433 0.77538 0.49669 0.0
O72 O 0.02172 0.7639 0.46025 0.0
C73 C 0.98047 0.7728 0.4654 0.0
O74 O 0.00665 0.77902 0.41584 0.0
Co75 Co 0.00113 0.80994 0.4419 0.0
O76 O 0.9932 0.79608 0.40613 0.0
C77 C 0.03951 0.81974 0.45695 0.0
C78 C 0.0215 0.7657 0.48731 0.0
C79 C 0.99864 0.78483 0.39874 0.0
O80 O 0.03486 0.80244 0.45687 0.0
O81 O 0.02781 0.82534 0.45344 0.0
O82 O 0.98376 0.75918 0.4619 0.0
O83 O 0.99494 0.78916 0.46641 0.0
Co84 Co 0.76993 0.77927 0.95934 0.0
O85 O 0.76229 0.77439 0.9979 0.0
O86 O 0.74312 0.76608 0.96168 0.0
C87 C 0.79158 0.77054 0.96216 0.0
O88 O 0.77248 0.78111 0.91672 0.0
Co89 Co 0.81023 0.80933 0.94354 0.0
O90 O 0.8022 0.80102 0.90463 0.0
C91 C 0.78425 0.8205 0.96597 0.0
C92 C 0.74532 0.76641 0.98868 0.0
C93 C 0.7854 0.78942 0.89835 0.0
O94 O 0.77063 0.8039 0.96197 0.0
O95 O 0.80126 0.82495 0.96245 0.0
O96 O 0.77416 0.75809 0.95897 0.0
O97 O 0.79503 0.78737 0.9658 0.0
Co98 Co 0.22077 0.99002 0.96003 0.0
O99 O 0.22381 0.98479 0.99823 0.0
O100 O 0.23544 0.97783 0.96153 0.0
C101 C 0.22719 0.01941 0.96838 0.0
O102 O 0.22116 0.99391 0.91766 0.0
Co103 Co 0.19052 -0.00023 0.94331 0.0
O104 O 0.20471 0.008 0.90785 0.0
C105 C 0.17982 0.96093 0.95723 0.0
C106 C 0.23343 0.97761 0.98858 0.0
C107 C 0.21578 0.00231 0.90058 0.0
O108 O 0.19702 0.96524 0.95757 0.0
O109 O 0.1746 0.97294 0.95389 0.0
O110 O 0.24067 0.01594 0.96466 0.0
O111 O 0.21071 0.00509 0.96861 0.0
Co112 Co 0.00845 0.23164 0.95954 0.0
O113 O 0.01263 0.24026 0.9976 0.0
O114 O 0.02175 0.25858 0.96035 0.0
C115 C 0.97836 0.20977 0.96537 0.0
O116 O 0.00592 0.22766 0.91708 0.0
Co117 Co 0.99811 0.19092 0.94624 0.0
O118 O 0.99344 0.1971 0.90821 0.0
C119 C 0.03649 0.21832 0.96257 0.0
C120 C 0.02093 0.257 0.9875 0.0
C121 C 0.99908 0.21371 0.90008 0.0
O122 O 0.03272 0.23152 0.96008 0.0
O123 O 0.02418 0.20111 0.96019 0.0
O124 O 0.98291 0.22701 0.96134 0.0
O125 O 0.99205 0.20672 0.96814 0.0
Co126 Co 0.77798 0.76998 0.53891 0.0
O127 O 0.77282 0.76184 0.50061 0.0
O128 O 0.76425 0.7431 0.53737 0.0
C129 C 0.76992 0.79211 0.53527 0.0
O130 O 0.78018 0.77331 0.58145 0.0
Co131 Co 0.80887 0.81049 0.55267 0.0
O132 O 0.8007 0.80321 0.59181 0.0
C133 C 0.81917 0.78315 0.53343 0.0
C134 C 0.76456 0.74498 0.51029 0.0
C135 C 0.789 0.78663 0.59911 0.0
O136 O 0.80227 0.76996 0.53669 0.0
O137 O 0.82414 0.80036 0.53616 0.0
O138 O 0.75717 0.77484 0.53892 0.0
O139 O 0.78654 0.79506 0.53148 0.0
Co140 Co 0.23181 0.00914 0.54276 0.0
O141 O 0.24055 0.01395 0.50479 0.0
O142 O 0.25867 0.02091 0.54208 0.0
C143 C 0.20862 0.97985 0.53445 0.0
O144 O 0.22774 0.00562 0.58509 0.0
Co145 Co 0.1919 0.00038 0.55766 0.0
O146 O 0.1972 0.99264 0.59411 0.0
C147 C 0.22079 0.03893 0.54397 0.0
C148 C 0.25719 0.02094 0.51494 0.0
C149 C 0.21377 0.99791 0.60195 0.0
O150 O 0.23337 0.03419 0.54428 0.0
O151 O 0.20343 0.02724 0.54687 0.0
O152 O 0.22542 0.98308 0.53898 0.0
O153 O 0.20675 0.99434 0.53344 0.0
Co154 Co 0.98961 0.22131 0.54223 0.0
O155 O 0.98513 0.22535 0.50411 0.0
O156 O 0.97909 0.2375 0.54117 0.0
C157 C 0.0184 0.22587 0.53451 0.0
O158 O 0.99281 0.22067 0.58468 0.0
Co159 Co 0.99596 0.18863 0.55769 0.0
O160 O 0.00281 0.2007 0.59483 0.0
C161 C 0.95826 0.1811 0.54347 0.0
C162 C 0.97872 0.23557 0.5141 0.0
C163 C 0.99882 0.21304 0.60217 0.0
O164 O 0.96398 0.19865 0.54348 0.0
O165 O 0.96901 0.17437 0.54701 0.0
O166 O 0.01598 0.23999 0.53863 0.0
O167 O 0.00343 0.20985 0.53338 0.0
Co168 Co 0.89673 0.55421 0.378 0.0
O169 O 0.90474 0.55756 0.33964 0.0
O170 O 0.92355 0.56944 0.37607 0.0
C171 C 0.87324 0.55993 0.37023 0.0
O172 O 0.89354 0.55441 0.42052 0.0
Co173 Co 0.85731 0.5233 0.39546 0.0
O174 O 0.8631 0.5377 0.43064 0.0
C175 C 0.88611 0.51353 0.38183 0.0
C176 C 0.92157 0.56747 0.34903 0.0
C177 C 0.87984 0.54892 0.43777 0.0
O178 O 0.89851 0.53086 0.37987 0.0
O179 O 0.86888 0.50774 0.38648 0.0
O180 O 0.89006 0.57365 0.37393 0.0
O181 O 0.87145 0.54358 0.36982 0.0
Co182 Co 0.44244 0.34246 0.37752 0.0
O183 O 0.43947 0.34738 0.33913 0.0
O184 O 0.42882 0.35573 0.37555 0.0
C185 C 0.43444 0.31251 0.37095 0.0
O186 O 0.44216 0.33906 0.42001 0.0
Co187 Co 0.47197 0.33169 0.39414 0.0
O188 O 0.45777 0.32406 0.42965 0.0
C189 C 0.48385 0.37057 0.37917 0.0
C190 C 0.43055 0.35537 0.3485 0.0
C191 C 0.44714 0.33027 0.43701 0.0
O192 O 0.46679 0.36671 0.37922 0.0
O193 O 0.48865 0.35825 0.38269 0.0
O194 O 0.42163 0.31701 0.37385 0.0
O195 O 0.45129 0.32621 0.36975 0.0
Co196 Co 0.658 0.10227 0.37439 0.0
O197 O 0.65306 0.09455 0.33588 0.0
O198 O 0.64491 0.07544 0.37216 0.0
C199 C 0.68785 0.12441 0.36774 0.0
O200 O 0.66135 0.10497 0.41694 0.0
Co201 Co 0.66868 0.14224 0.39263 0.0
O202 O 0.67677 0.13542 0.42743 0.0
C203 C 0.6297 0.11529 0.37824 0.0
C204 C 0.6452 0.0776 0.34515 0.0
C205 C 0.67034 0.11847 0.43427 0.0
O206 O 0.6337 0.10223 0.37624 0.0
O207 O 0.6418 0.13228 0.38321 0.0
O208 O 0.68347 0.10712 0.37046 0.0
O209 O 0.6741 0.12751 0.36701 0.0
Co210 Co 0.88655 0.56189 0.79544 0.0
O211 O 0.88978 0.57039 0.83351 0.0
O212 O 0.90052 0.58881 0.79646 0.0
C213 C 0.89401 0.53966 0.80386 0.0
O214 O 0.88663 0.55822 0.75308 0.0
Co215 Co 0.85709 0.52147 0.77954 0.0
O216 O 0.87059 0.52766 0.74343 0.0
C217 C 0.8453 0.54866 0.79424 0.0
C218 C 0.89886 0.58715 0.82356 0.0
C219 C 0.8813 0.54446 0.73599 0.0
O220 O 0.8623 0.56201 0.79358 0.0
O221 O 0.84064 0.53154 0.79126 0.0
O222 O 0.90706 0.55675 0.79962 0.0
O223 O 0.87733 0.53694 0.80441 0.0
Co224 Co 0.43439 0.32451 0.79526 0.0
O225 O 0.42643 0.32034 0.83364 0.0
O226 O 0.40752 0.3108 0.79706 0.0
C227 C 0.4559 0.35475 0.80056 0.0
O228 O 0.4376 0.32695 0.75269 0.0
Co229 Co 0.47497 0.33562 0.77983 0.0
O230 O 0.46815 0.34125 0.74286 0.0
C231 C 0.44853 0.29711 0.79714 0.0
C232 C 0.40954 0.31177 0.82414 0.0
C233 C 0.4513 0.33487 0.73537 0.0
O234 O 0.43506 0.30053 0.79541 0.0
O235 O 0.46559 0.30965 0.79387 0.0
O236 O 0.43852 0.34986 0.79725 0.0
O237 O 0.45936 0.3413 0.80291 0.0
Co238 Co 0.67579 0.11055 0.79173 0.0
O239 O 0.68024 0.10703 0.83009 0.0
O240 O 0.68807 0.09597 0.7936 0.0
C241 C 0.64619 0.10385 0.79848 0.0
O242 O 0.67274 0.11072 0.74925 0.0
Co243 Co 0.66645 0.14115 0.77531 0.0
O244 O 0.65919 0.12765 0.7392 0.0
C245 C 0.70496 0.15161 0.79066 0.0
C246 C 0.6877 0.09762 0.82066 0.0
C247 C 0.66484 0.11654 0.73194 0.0
O248 O 0.70059 0.13438 0.7905 0.0
O249 O 0.69304 0.15693 0.78711 0.0
O250 O 0.64985 0.09048 0.79501 0.0
O251 O 0.66045 0.12036 0.79971 0.0
Co252 Co 0.43642 0.11438 0.2944 0.0
O253 O 0.4289 0.10932 0.33294 0.0
O254 O 0.40976 0.09831 0.29672 0.0
C255 C 0.46077 0.10961 0.29837 0.0
O256 O 0.43914 0.11597 0.25171 0.0
Co257 Co 0.47504 0.14785 0.27876 0.0
O258 O 0.46821 0.13818 0.24023 0.0
C259 C 0.44495 0.1546 0.29622 0.0
C260 C 0.41201 0.09939 0.32376 0.0
C261 C 0.452 0.12523 0.23357 0.0
O262 O 0.43335 0.13701 0.29578 0.0
O263 O 0.46239 0.16165 0.29187 0.0
O264 O 0.44407 0.09559 0.29515 0.0
O265 O 0.46196 0.12562 0.30137 0.0
Co266 Co 0.88782 0.32271 0.29259 0.0
O267 O 0.89081 0.31807 0.33115 0.0
O268 O 0.90356 0.31174 0.29516 0.0
C269 C 0.89287 0.35173 0.2993 0.0
O270 O 0.8883 0.32604 0.25004 0.0
Co271 Co 0.85597 0.32972 0.27451 0.0
O272 O 0.87036 0.33836 0.2393 0.0
C273 C 0.84744 0.29178 0.2894 0.0
C274 C 0.9011 0.31149 0.3221 0.0
C275 C 0.88223 0.33361 0.23253 0.0
O276 O 0.86492 0.2973 0.29049 0.0
O277 O 0.84103 0.30273 0.28492 0.0
O278 O 0.90684 0.34888 0.29676 0.0
O279 O 0.87663 0.337 0.29991 0.0
Co280 Co 0.67482 0.56282 0.29434 0.0
O281 O 0.68044 0.57162 0.33226 0.0
O282 O 0.68698 0.58971 0.29501 0.0
C283 C 0.64556 0.53991 0.30367 0.0
O284 O 0.67052 0.55878 0.2521 0.0
Co285 Co 0.66499 0.52265 0.27866 0.0
O286 O 0.65653 0.52816 0.24302 0.0
C287 C 0.70387 0.55093 0.29201 0.0
C288 C 0.6875 0.58828 0.32209 0.0
C289 C 0.66206 0.54482 0.23535 0.0
O290 O 0.69959 0.56385 0.29164 0.0
O291 O 0.69181 0.53365 0.28932 0.0
O292 O 0.64893 0.55678 0.2994 0.0
O293 O 0.65991 0.53781 0.30374 0.0
Co294 Co 0.44472 0.10223 0.87413 0.0
O295 O 0.43949 0.09435 0.83572 0.0
O296 O 0.42958 0.07544 0.87229 0.0
C297 C 0.43874 0.12586 0.86986 0.0
O298 O 0.44663 0.10516 0.91673 0.0
Co299 Co 0.47685 0.14185 0.88934 0.0
O300 O 0.46833 0.13444 0.92832 0.0
C301 C 0.48528 0.11338 0.86871 0.0
C302 C 0.43026 0.07747 0.84523 0.0
C303 C 0.45581 0.11801 0.9349 0.0
O304 O 0.46821 0.1006 0.87221 0.0
O305 O 0.49087 0.13071 0.87169 0.0
O306 O 0.42513 0.10898 0.87372 0.0
O307 O 0.45489 0.12751 0.86685 0.0
Co308 Co 0.8978 0.3417 0.87501 0.0
O309 O 0.90639 0.34694 0.83698 0.0
O310 O 0.92465 0.35354 0.87403 0.0
C311 C 0.87458 0.31249 0.86627 0.0
O312 O 0.89393 0.33773 0.9173 0.0
Co313 Co 0.85798 0.33277 0.89082 0.0
O314 O 0.86341 0.3245 0.9267 0.0
C315 C 0.88677 0.37144 0.8776 0.0
C316 C 0.92308 0.35391 0.84696 0.0
C317 C 0.88003 0.32973 0.93424 0.0
O318 O 0.89935 0.36671 0.87745 0.0
O319 O 0.86942 0.35973 0.88059 0.0
O320 O 0.8914 0.31568 0.8704 0.0
O321 O 0.87269 0.32698 0.86588 0.0
Co322 Co 0.65484 0.55297 0.87671 0.0
O323 O 0.65135 0.55737 0.83831 0.0
O324 O 0.64444 0.56926 0.87475 0.0
C325 C 0.68366 0.55732 0.87041 0.0
O326 O 0.65722 0.55214 0.91931 0.0
Co327 Co 0.66042 0.52003 0.89315 0.0
O328 O 0.66873 0.53339 0.92925 0.0
C329 C 0.62305 0.5129 0.87761 0.0
C330 C 0.64484 0.56764 0.84768 0.0
C331 C 0.66423 0.54537 0.9366 0.0
O332 O 0.62909 0.5305 0.87703 0.0
O333 O 0.63351 0.50593 0.88213 0.0
O334 O 0.6813 0.5715 0.87423 0.0
O335 O 0.66864 0.54136 0.86878 0.0
Co336 Co 0.56328 0.88641 0.70725 0.0
O337 O 0.5716 0.89188 0.66913 0.0
O338 O 0.59009 0.90167 0.7062 0.0
C339 C 0.53975 0.89245 0.70264 0.0
O340 O 0.5596 0.88411 0.74972 0.0
Co341 Co 0.5235 0.85379 0.72042 0.0
O342 O 0.52996 0.86249 0.75952 0.0
C343 C 0.55288 0.84575 0.70343 0.0
C344 C 0.58835 0.90112 0.67907 0.0
C345 C 0.54623 0.87484 0.76712 0.0
O346 O 0.5652 0.86309 0.70557 0.0
O347 O 0.53543 0.8396 0.70616 0.0
O348 O 0.55661 0.906 0.70681 0.0
O349 O 0.53807 0.87629 0.69912 0.0
Co350 Co 0.1119 0.67707 0.70907 0.0
O351 O 0.1084 0.68194 0.67093 0.0
O352 O 0.09669 0.68873 0.70771 0.0
C353 C 0.10614 0.64788 0.70088 0.0
O354 O 0.11197 0.6734 0.75147 0.0
Co355 Co 0.14312 0.66857 0.72493 0.0
O356 O 0.12935 0.66023 0.76072 0.0
C357 C 0.1526 0.707 0.71072 0.0
C358 C 0.09857 0.68886 0.68063 0.0
C359 C 0.11793 0.6654 0.76833 0.0
O360 O 0.13527 0.7022 0.71102 0.0
O361 O 0.15834 0.69538 0.7138 0.0
O362 O 0.09242 0.65095 0.70488 0.0
O363 O 0.12243 0.66247 0.70027 0.0
Co364 Co 0.32292 0.43528 0.70822 0.0
O365 O 0.31848 0.42753 0.66971 0.0
O366 O 0.31155 0.40853 0.70592 0.0
C367 C 0.35204 0.45903 0.70169 0.0
O368 O 0.32613 0.43821 0.75079 0.0
Co369 Co 0.33025 0.47429 0.72605 0.0
O370 O 0.33924 0.46862 0.761 0.0
C371 C 0.29222 0.44513 0.71121 0.0
C372 C 0.31158 0.41065 0.67891 0.0
C373 C 0.3342 0.45195 0.768 0.0
O374 O 0.29763 0.43308 0.70996 0.0
O375 O 0.30325 0.46245 0.71585 0.0
O376 O 0.34904 0.44217 0.70436 0.0
O377 O 0.33742 0.46071 0.70084 0.0
Co378 Co 0.55276 0.89712 0.12666 0.0
O379 O 0.55858 0.90538 0.16483 0.0
O380 O 0.56812 0.9239 0.12779 0.0
C381 C 0.55852 0.87336 0.13114 0.0
O382 O 0.5503 0.89377 0.08418 0.0
Co383 Co 0.52013 0.85771 0.11253 0.0
O384 O 0.52819 0.86455 0.07326 0.0
C385 C 0.5126 0.88643 0.1346 0.0
C386 C 0.56776 0.92215 0.15489 0.0
C387 C 0.54086 0.88082 0.0663 0.0
O388 O 0.52949 0.89905 0.12938 0.0
O389 O 0.5068 0.86903 0.13191 0.0
O390 O 0.57215 0.89014 0.12658 0.0
O391 O 0.54244 0.87187 0.13454 0.0
Co392 Co 0.10021 0.65505 0.12691 0.0
O393 O 0.09232 0.65171 0.16534 0.0
O394 O 0.07347 0.64398 0.1288 0.0
C395 C 0.12418 0.68426 0.13207 0.0
O396 O 0.10339 0.65718 0.08428 0.0
Co397 Co 0.13917 0.66148 0.11077 0.0
O398 O 0.13383 0.66971 0.07479 0.0
C399 C 0.10957 0.62392 0.12683 0.0
C400 C 0.07549 0.6447 0.15588 0.0
C401 C 0.11727 0.66472 0.06723 0.0
O402 O 0.0977 0.62958 0.12721 0.0
O403 O 0.12694 0.63467 0.12221 0.0
O404 O 0.1074 0.68137 0.12872 0.0
O405 O 0.1256 0.66954 0.13443 0.0
Co406 Co 0.34349 0.44677 0.12608 0.0
O407 O 0.34709 0.44254 0.16454 0.0
O408 O 0.35405 0.43066 0.12813 0.0
C409 C 0.3146 0.4423 0.1319 0.0
O410 O 0.34101 0.44737 0.08349 0.0
Co411 Co 0.33768 0.47957 0.10913 0.0
O412 O 0.32924 0.46585 0.07331 0.0
C413 C 0.37515 0.48696 0.12464 0.0
C414 C 0.35369 0.43234 0.15518 0.0
C415 C 0.33381 0.45389 0.06614 0.0
O416 O 0.36918 0.46937 0.12555 0.0
O417 O 0.36462 0.49383 0.11994 0.0
O418 O 0.31706 0.42812 0.12867 0.0
O419 O 0.32956 0.4583 0.1336 0.0
Co420 Co 0.10288 0.44587 0.62693 0.0
O421 O 0.09517 0.44282 0.66546 0.0
O422 O 0.07605 0.43201 0.62919 0.0
C423 C 0.12513 0.43825 0.63318 0.0
O424 O 0.10563 0.44555 0.5844 0.0
Co425 Co 0.1428 0.47559 0.60927 0.0
O426 O 0.13593 0.46207 0.57314 0.0
C427 C 0.11575 0.48714 0.62549 0.0
C428 C 0.07822 0.43374 0.65621 0.0
C429 C 0.11902 0.45106 0.56656 0.0
O430 O 0.10265 0.47004 0.62543 0.0
O431 O 0.13286 0.49207 0.62159 0.0
O432 O 0.10786 0.42529 0.63041 0.0
O433 O 0.12811 0.45505 0.63428 0.0
Co434 Co 0.55589 0.6567 0.6242 0.0
O435 O 0.55913 0.65193 0.66251 0.0
O436 O 0.57025 0.64417 0.62603 0.0
C437 C 0.56286 0.68632 0.63168 0.0
O438 O 0.556 0.66009 0.5817 0.0
Co439 Co 0.52589 0.66666 0.60727 0.0
O440 O 0.54043 0.6751 0.57218 0.0
C441 C 0.51478 0.62775 0.62101 0.0
C442 C 0.56847 0.64439 0.65309 0.0
C443 C 0.55109 0.66895 0.56477 0.0
O444 O 0.53195 0.63206 0.62265 0.0
O445 O 0.50956 0.63965 0.6165 0.0
O446 O 0.57609 0.68249 0.62788 0.0
O447 O 0.54624 0.6722 0.63247 0.0
Co448 Co 0.34242 0.89733 0.6255 0.0
O449 O 0.34651 0.90552 0.66381 0.0
O450 O 0.35502 0.92422 0.62703 0.0
C451 C 0.31264 0.87474 0.63207 0.0
O452 O 0.33989 0.89405 0.58297 0.0
Co453 Co 0.33252 0.85728 0.60918 0.0
O454 O 0.3259 0.8636 0.57258 0.0
C455 C 0.37057 0.88446 0.62804 0.0
C456 C 0.3543 0.92236 0.65413 0.0
C457 C 0.33198 0.88046 0.56548 0.0
O458 O 0.36695 0.89777 0.62561 0.0
O459 O 0.35828 0.86733 0.62455 0.0
O460 O 0.31655 0.8918 0.62789 0.0
O461 O 0.32673 0.87224 0.63362 0.0
Co462 Co 0.11126 0.43596 0.2095 0.0
O463 O 0.10777 0.42866 0.17073 0.0
O464 O 0.09836 0.40915 0.20659 0.0
C465 C 0.10229 0.45735 0.20517 0.0
O466 O 0.11159 0.43818 0.25219 0.0
Co467 Co 0.14001 0.47618 0.22756 0.0
O468 O 0.127 0.46843 0.26405 0.0
C469 C 0.15278 0.45083 0.20731 0.0
C470 C 0.09951 0.4116 0.1796 0.0
C471 C 0.11673 0.45133 0.27036 0.0
O472 O 0.13607 0.43702 0.20913 0.0
O473 O 0.15689 0.46769 0.2116 0.0
O474 O 0.0899 0.43986 0.20776 0.0
O475 O 0.11929 0.46106 0.20311 0.0
Co476 Co 0.5645 0.67592 0.20682 0.0
O477 O 0.57291 0.68068 0.16864 0.0
O478 O 0.59138 0.68936 0.20572 0.0
C479 C 0.54277 0.64586 0.20036 0.0
O480 O 0.56092 0.67282 0.24926 0.0
Co481 Co 0.52394 0.66495 0.22205 0.0
O482 O 0.53034 0.65852 0.25874 0.0
C483 C 0.55083 0.70373 0.20646 0.0
C484 C 0.58969 0.6889 0.1786 0.0
C485 C 0.54712 0.6647 0.26636 0.0
O486 O 0.56416 0.70006 0.20753 0.0
O487 O 0.53372 0.6913 0.20956 0.0
O488 O 0.56007 0.65049 0.20389 0.0
O489 O 0.53953 0.65948 0.19851 0.0
Co490 Co 0.32262 0.88651 0.20803 0.0
O491 O 0.3196 0.89156 0.16969 0.0
O492 O 0.30943 0.90019 0.20636 0.0
C493 C 0.3528 0.89464 0.20433 0.0
O494 O 0.3239 0.88461 0.2506 0.0
Co495 Co 0.33255 0.85614 0.22324 0.0
O496 O 0.33757 0.86781 0.2608 0.0
C497 C 0.29507 0.84535 0.20223 0.0
C498 C 0.31104 0.89987 0.1793 0.0
C499 C 0.3313 0.87839 0.26815 0.0
O500 O 0.29841 0.86212 0.20574 0.0
O501 O 0.30741 0.84059 0.20582 0.0
O502 O 0.34826 0.90738 0.20799 0.0
O503 O 0.33912 0.87797 0.20081 0.0
C504 C 0.37519 0.29399 0.83346 0.0
C505 C 0.39352 0.30357 0.84354 0.0
C506 C 0.36019 0.28636 0.85214 0.0
C507 C 0.3477 0.29023 0.92514 0.0
H508 H 0.30561 0.24109 0.91167 0.0
C509 C 0.2891 0.25163 0.00676 0.0
C510 C 0.27085 0.24195 0.99636 0.0
C511 C 0.30425 0.25912 0.98836 0.0
C512 C 0.31717 0.25491 0.9156 0.0
H513 H 0.41052 0.31258 0.88108 0.0
H514 H 0.38446 0.2992 0.91349 0.0
H515 H 0.33147 0.25428 0.87869 0.0
H516 H 0.25416 0.23264 0.95854 0.0
H517 H 0.28046 0.24583 0.92662 0.0
H518 H 0.33338 0.29089 0.962 0.0
C519 C 0.38161 0.29776 0.89122 0.0
C520 C 0.33198 0.26247 0.89667 0.0
C521 C 0.39656 0.30534 0.87261 0.0
C522 C 0.26806 0.23996 0.96726 0.0
C523 C 0.28315 0.24742 0.94893 0.0
C524 C 0.33288 0.28267 0.94406 0.0
C525 C 0.36325 0.28821 0.88124 0.0
C526 C 0.34741 0.28022 0.90121 0.0
C527 C 0.30143 0.25705 0.95921 0.0
C528 C 0.31742 0.26494 0.93948 0.0
H529 H 0.37242 0.29242 0.81118 0.0
H530 H 0.3462 0.27923 0.84378 0.0
H531 H 0.35927 0.30405 0.92905 0.0
H532 H 0.29169 0.25335 0.02909 0.0
H533 H 0.31818 0.26631 0.99697 0.0
C534 C 0.69398 0.09105 0.86919 0.0
C535 C 0.69539 0.08933 0.84014 0.0
C536 C 0.7012 0.08338 0.8879 0.0
C537 C 0.71585 0.04821 0.89343 0.0
H538 H 0.74146 0.07606 0.95994 0.0
C539 C 0.7577 0.02676 0.9654 0.0
C540 C 0.75619 0.02828 0.99447 0.0
C541 C 0.74978 0.03379 0.9468 0.0
C542 C 0.73415 0.06801 0.94165 0.0
H543 H 0.70549 0.07823 0.80793 0.0
H544 H 0.71835 0.06497 0.84071 0.0
H545 H 0.72907 0.08933 0.92662 0.0
H546 H 0.74508 0.03828 0.02684 0.0
H547 H 0.73114 0.05056 0.99424 0.0
H548 H 0.72106 0.02694 0.90841 0.0
C549 C 0.71143 0.07206 0.84898 0.0
C550 C 0.72705 0.07562 0.92253 0.0
C551 C 0.70416 0.07974 0.83019 0.0
C552 C 0.74648 0.0369 0.00456 0.0
C553 C 0.7386 0.04402 0.9859 0.0
C554 C 0.72298 0.04062 0.91253 0.0
C555 C 0.71006 0.07384 0.87807 0.0
C556 C 0.71781 0.06581 0.89819 0.0
C557 C 0.7402 0.04257 0.9568 0.0
C558 C 0.73222 0.05044 0.93685 0.0
H559 H 0.68723 0.09829 0.87756 0.0
H560 H 0.69963 0.08475 0.91014 0.0
H561 H 0.70854 0.04015 0.87514 0.0
H562 H 0.76512 0.02023 0.95694 0.0
H563 H 0.75147 0.03267 0.92453 0.0
C564 C 0.96145 0.70885 0.00402 0.0
C565 C 0.9703 0.72709 0.9935 0.0
C566 C 0.95384 0.69365 0.98571 0.0
C567 C 0.95632 0.68054 0.91253 0.0
H568 H 0.90746 0.63852 0.9279 0.0
C569 C 0.91647 0.62163 0.83197 0.0
C570 C 0.90694 0.60341 0.84251 0.0
C571 C 0.92417 0.63685 0.85026 0.0
C572 C 0.92121 0.65006 0.92344 0.0
H573 H 0.97823 0.7437 0.95557 0.0
H574 H 0.96497 0.71728 0.92379 0.0
H575 H 0.9213 0.66456 0.96056 0.0
H576 H 0.89801 0.58684 0.88048 0.0
H577 H 0.91158 0.61324 0.9122 0.0
H578 H 0.95628 0.66603 0.87548 0.0
C579 C 0.96403 0.71468 0.94611 0.0
C580 C 0.92914 0.66496 0.94219 0.0
C581 C 0.97154 0.72982 0.96437 0.0
C582 C 0.90521 0.60071 0.87165 0.0
C583 C 0.9129 0.61586 0.88987 0.0
C584 C 0.94841 0.66561 0.89382 0.0
C585 C 0.95504 0.69642 0.95654 0.0
C586 C 0.94678 0.68038 0.93694 0.0
C587 C 0.92247 0.63412 0.87944 0.0
C588 C 0.93076 0.65018 0.89905 0.0
H589 H 0.96028 0.70631 0.02637 0.0
H590 H 0.94715 0.67974 0.99437 0.0
H591 H 0.97004 0.69212 0.90807 0.0
H592 H 0.91798 0.62415 0.80962 0.0
H593 H 0.93128 0.65074 0.84153 0.0
C594 C 0.30496 0.39777 0.63033 0.0
C595 C 0.30386 0.39469 0.65938 0.0
C596 C 0.29745 0.38283 0.61166 0.0
C597 C 0.26289 0.33299 0.60692 0.0
H598 H 0.29008 0.33468 0.53994 0.0
C599 C 0.23985 0.26882 0.53675 0.0
C600 C 0.24142 0.27138 0.50759 0.0
C601 C 0.2474 0.28406 0.55481 0.0
C602 C 0.28219 0.33409 0.55834 0.0
H603 H 0.29409 0.37352 0.69166 0.0
H604 H 0.281 0.34735 0.65899 0.0
H605 H 0.30356 0.36074 0.57263 0.0
H606 H 0.2521 0.29197 0.47447 0.0
H607 H 0.26514 0.31873 0.5061 0.0
H608 H 0.24149 0.30642 0.59265 0.0
C609 C 0.28755 0.36136 0.65069 0.0
C610 C 0.28994 0.34901 0.57711 0.0
C611 C 0.29514 0.37634 0.66939 0.0
C612 C 0.25071 0.28956 0.49685 0.0
C613 C 0.25826 0.30487 0.51497 0.0
C614 C 0.25512 0.31811 0.58812 0.0
C615 C 0.28861 0.36445 0.62161 0.0
C616 C 0.2804 0.34859 0.60167 0.0
C617 C 0.25667 0.30228 0.54419 0.0
C618 C 0.26471 0.31843 0.56367 0.0
H619 H 0.31155 0.41175 0.62193 0.0
H620 H 0.2983 0.38568 0.58942 0.0
H621 H 0.25505 0.33239 0.62539 0.0
H622 H 0.23286 0.25499 0.54574 0.0
H623 H 0.24619 0.28154 0.57716 0.0
C624 C 0.60176 0.90916 0.63096 0.0
C625 C 0.60454 0.91011 0.66007 0.0
C626 C 0.61687 0.91707 0.61267 0.0
C627 C 0.66688 0.95157 0.60863 0.0
H628 H 0.66492 0.92416 0.54174 0.0
C629 C 0.73067 0.97356 0.5376 0.0
C630 C 0.72783 0.97218 0.50849 0.0
C631 C 0.7156 0.9663 0.55598 0.0
C632 C 0.66559 0.9321 0.56013 0.0
H633 H 0.62536 0.92024 0.69287 0.0
H634 H 0.65187 0.934 0.6608 0.0
H635 H 0.6389 0.91091 0.57439 0.0
H636 H 0.70694 0.96215 0.4758 0.0
H637 H 0.68052 0.94953 0.50798 0.0
H638 H 0.6936 0.97274 0.59437 0.0
C639 C 0.63795 0.92727 0.65217 0.0
C640 C 0.65069 0.9245 0.57887 0.0
C641 C 0.62279 0.91932 0.67053 0.0
C642 C 0.70957 0.9634 0.49813 0.0
C643 C 0.69445 0.95609 0.51656 0.0
C644 C 0.68179 0.95918 0.58988 0.0
C645 C 0.63514 0.92611 0.62301 0.0
C646 C 0.65114 0.93415 0.60333 0.0
C647 C 0.69731 0.95745 0.54571 0.0
C648 C 0.68132 0.94952 0.56541 0.0
H649 H 0.58787 0.90223 0.6222 0.0
H650 H 0.61421 0.9162 0.59036 0.0
H651 H 0.66755 0.95948 0.62706 0.0
H652 H 0.74458 0.98019 0.54628 0.0
H653 H 0.71829 0.96734 0.57829 0.0
C654 C 0.02765 0.75904 0.53588 0.0
C655 C 0.02911 0.75735 0.50683 0.0
C656 C 0.03489 0.75141 0.55465 0.0
C657 C 0.06929 0.73604 0.56035 0.0
H658 H 0.04125 0.71031 0.62668 0.0
C659 C 0.09198 0.69543 0.63232 0.0
C660 C 0.09018 0.69659 0.66139 0.0
C661 C 0.08439 0.70282 0.61377 0.0
C662 C 0.04937 0.71766 0.60846 0.0
H663 H 0.03929 0.74628 0.47468 0.0
H664 H 0.05195 0.73285 0.50758 0.0
H665 H 0.02814 0.72289 0.59331 0.0
H666 H 0.07897 0.7064 0.69385 0.0
H667 H 0.06583 0.71957 0.66135 0.0
H668 H 0.09056 0.73094 0.57552 0.0
C669 C 0.0453 0.74023 0.51577 0.0
C670 C 0.04183 0.72483 0.58929 0.0
C671 C 0.03797 0.74782 0.49694 0.0
C672 C 0.08054 0.70525 0.67155 0.0
C673 C 0.07294 0.71271 0.65292 0.0
C674 C 0.07684 0.72892 0.57954 0.0
C675 C 0.04382 0.74194 0.54485 0.0
C676 C 0.0517 0.73407 0.565 0.0
C677 C 0.07485 0.71163 0.62379 0.0
C678 C 0.06695 0.71959 0.60379 0.0
H679 H 0.02095 0.76634 0.54421 0.0
H680 H 0.03374 0.7532 0.57688 0.0
H681 H 0.07738 0.74336 0.5421 0.0
H682 H 0.09925 0.68875 0.62377 0.0
H683 H 0.08584 0.70142 0.59151 0.0
C684 C 0.60335 0.69657 0.13056 0.0
C685 C 0.60597 0.69729 0.1597 0.0
C686 C 0.61858 0.70434 0.11246 0.0
C687 C 0.66828 0.71874 0.1084 0.0
H688 H 0.66751 0.74609 0.04305 0.0
C689 C 0.73239 0.75934 0.03725 0.0
C690 C 0.72936 0.75839 0.0082 0.0
C691 C 0.71742 0.752 0.05586 0.0
C692 C 0.66785 0.73831 0.06102 0.0
H693 H 0.62661 0.70681 0.19273 0.0
H694 H 0.65329 0.72055 0.16102 0.0
H695 H 0.64143 0.73342 0.07561 0.0
H696 H 0.70826 0.74892 0.97586 0.0
H697 H 0.68206 0.73591 0.00838 0.0
H698 H 0.69469 0.72359 0.09376 0.0
C699 C 0.63943 0.71377 0.15221 0.0
C700 C 0.65291 0.73107 0.07971 0.0
C701 C 0.62416 0.706 0.17037 0.0
C702 C 0.71104 0.7499 0.99813 0.0
C703 C 0.69604 0.74254 0.01677 0.0
C704 C 0.68322 0.72598 0.0897 0.0
C705 C 0.63679 0.71304 0.12303 0.0
C706 C 0.65292 0.72114 0.10357 0.0
C707 C 0.69906 0.74353 0.04587 0.0
C708 C 0.68317 0.73582 0.06575 0.0
H709 H 0.58951 0.68991 0.12165 0.0
H710 H 0.61605 0.70329 0.0901 0.0
H711 H 0.6686 0.71093 0.12635 0.0
H712 H 0.74635 0.76587 0.04569 0.0
H713 H 0.72025 0.75322 0.07813 0.0
C714 C 0.29343 0.91666 0.17037 0.0
C715 C 0.30337 0.90832 0.16009 0.0
C716 C 0.28604 0.92439 0.15192 0.0
C717 C 0.29069 0.9423 0.07966 0.0
H718 H 0.24083 0.93356 0.09196 0.0
C719 C 0.25191 0.9617 0.99754 0.0
C720 C 0.24158 0.96962 0.00778 0.0
C721 C 0.25955 0.95423 0.01604 0.0
C722 C 0.25485 0.9363 0.08838 0.0
H723 H 0.31337 0.90158 0.12241 0.0
H724 H 0.3004 0.91491 0.09035 0.0
H725 H 0.25415 0.92094 0.1248 0.0
H726 H 0.23123 0.976 0.04542 0.0
H727 H 0.24466 0.96321 0.07754 0.0
H728 H 0.29141 0.95768 0.04325 0.0
C729 C 0.29849 0.91569 0.11263 0.0
C730 C 0.26249 0.92908 0.10723 0.0
C731 C 0.30583 0.90795 0.13103 0.0
C732 C 0.23906 0.96993 0.03683 0.0
C733 C 0.24667 0.96249 0.05526 0.0
C734 C 0.28306 0.94954 0.06081 0.0
C735 C 0.28848 0.92398 0.12283 0.0
C736 C 0.28049 0.93197 0.10308 0.0
C737 C 0.25699 0.95453 0.04513 0.0
C738 C 0.26505 0.94663 0.06494 0.0
H739 H 0.29133 0.91719 0.19266 0.0
H740 H 0.27856 0.93084 0.16045 0.0
H741 H 0.3047 0.945 0.07607 0.0
H742 H 0.25406 0.96122 0.97526 0.0
H743 H 0.26726 0.94802 0.00754 0.0
C744 C 0.09349 0.39914 0.13072 0.0
C745 C 0.09173 0.39582 0.15972 0.0
C746 C 0.08597 0.38435 0.11177 0.0
C747 C 0.05058 0.33467 0.10601 0.0
H748 H 0.07811 0.33632 0.03945 0.0
C749 C 0.02765 0.27068 0.03552 0.0
C750 C 0.02908 0.27332 0.00636 0.0
C751 C 0.03526 0.28587 0.05368 0.0
C752 C 0.07014 0.33575 0.05775 0.0
H753 H 0.08084 0.37437 0.1916 0.0
H754 H 0.0678 0.34849 0.15848 0.0
H755 H 0.09164 0.36219 0.07249 0.0
H756 H 0.03965 0.29402 0.97338 0.0
H757 H 0.05289 0.32069 0.00522 0.0
H758 H 0.0291 0.30825 0.09134 0.0
C759 C 0.07481 0.36256 0.1504 0.0
C760 C 0.07791 0.35056 0.07671 0.0
C761 C 0.08237 0.37738 0.16938 0.0
C762 C 0.03834 0.29154 0.99575 0.0
C763 C 0.046 0.3068 0.01398 0.0
C764 C 0.04282 0.31988 0.08706 0.0
C765 C 0.07649 0.36588 0.12136 0.0
C766 C 0.06825 0.35016 0.10113 0.0
C767 C 0.04449 0.30411 0.04318 0.0
C768 C 0.05255 0.32019 0.06278 0.0
H769 H 0.10059 0.4132 0.12258 0.0
H770 H 0.08731 0.38741 0.08957 0.0
H771 H 0.04262 0.33407 0.12433 0.0
H772 H 0.02068 0.25682 0.04441 0.0
H773 H 0.03411 0.28328 0.07602 0.0
C774 C 0.70352 0.62281 0.32998 0.0
C775 C 0.6957 0.60469 0.34077 0.0
C776 C 0.71115 0.63816 0.34802 0.0
C777 C 0.72956 0.65233 0.42 0.0
H778 H 0.72028 0.69305 0.40688 0.0
C779 C 0.74816 0.71058 0.50146 0.0
C780 C 0.75627 0.72882 0.49113 0.0
C781 C 0.74072 0.69544 0.48304 0.0
C782 C 0.72315 0.68187 0.41069 0.0
H783 H 0.68974 0.58847 0.37891 0.0
H784 H 0.7028 0.61511 0.4102 0.0
H785 H 0.70782 0.66686 0.37445 0.0
H786 H 0.76289 0.74551 0.45339 0.0
H787 H 0.75005 0.71919 0.42138 0.0
H788 H 0.74485 0.6673 0.45628 0.0
C789 C 0.70331 0.61755 0.38786 0.0
C790 C 0.71604 0.66688 0.39206 0.0
C791 C 0.6957 0.60225 0.36989 0.0
C792 C 0.75669 0.73162 0.46205 0.0
C793 C 0.74923 0.71652 0.44368 0.0
C794 C 0.73665 0.6673 0.43863 0.0
C795 C 0.71114 0.6357 0.37718 0.0
C796 C 0.71911 0.6519 0.39654 0.0
C797 C 0.7412 0.69825 0.45392 0.0
C798 C 0.73351 0.68224 0.43423 0.0
H799 H 0.70376 0.62513 0.30764 0.0
H800 H 0.71725 0.65198 0.33909 0.0
H801 H 0.73245 0.64116 0.42383 0.0
H802 H 0.74761 0.70798 0.52376 0.0
H803 H 0.73444 0.68152 0.49162 0.0
C804 C 0.27092 0.02757 0.46698 0.0
C805 C 0.27351 0.02856 0.49615 0.0
C806 C 0.28612 0.0347 0.44888 0.0
C807 C 0.33627 0.06807 0.44526 0.0
H808 H 0.33381 0.04066 0.37811 0.0
C809 C 0.39944 0.09147 0.37241 0.0
C810 C 0.39619 0.09027 0.34341 0.0
C811 C 0.38462 0.08347 0.39126 0.0
C812 C 0.33464 0.04858 0.3966 0.0
H813 H 0.29411 0.03784 0.52921 0.0
H814 H 0.3208 0.05031 0.49745 0.0
H815 H 0.30788 0.02756 0.41098 0.0
H816 H 0.37484 0.07963 0.31139 0.0
H817 H 0.34889 0.06578 0.34434 0.0
H818 H 0.36294 0.08917 0.43078 0.0
C819 C 0.30695 0.0441 0.48866 0.0
C820 C 0.3198 0.04106 0.41547 0.0
C821 C 0.29168 0.03688 0.50684 0.0
C822 C 0.37779 0.08073 0.33362 0.0
C823 C 0.36293 0.07272 0.35251 0.0
C824 C 0.3511 0.0756 0.42636 0.0
C825 C 0.30432 0.04304 0.45946 0.0
C826 C 0.3204 0.05075 0.43996 0.0
C827 C 0.36618 0.0741 0.38157 0.0
C828 C 0.35044 0.06598 0.40176 0.0
H829 H 0.25711 0.02129 0.45804 0.0
H830 H 0.28362 0.03392 0.42653 0.0
H831 H 0.33705 0.07601 0.46371 0.0
H832 H 0.41347 0.09867 0.38065 0.0
H833 H 0.38764 0.08453 0.41346 0.0
C834 C 0.9252 0.30294 0.33462 0.0
C835 C 0.90925 0.30382 0.34176 0.0
C836 C 0.93303 0.29607 0.35382 0.0
C837 C 0.92174 0.26386 0.41087 0.0
H838 H 0.97282 0.29412 0.43571 0.0
C839 C 0.96377 0.23577 0.46903 0.0
C840 C 0.97076 0.24389 0.49529 0.0
C841 C 0.95608 0.24334 0.45098 0.0
C842 C 0.95854 0.28559 0.42895 0.0
H843 H 0.88875 0.29787 0.3742 0.0
H844 H 0.90208 0.28525 0.40728 0.0
H845 H 0.95984 0.30677 0.40164 0.0
H846 H 0.97541 0.26636 0.52323 0.0
H847 H 0.96248 0.28009 0.49096 0.0
H848 H 0.92059 0.24249 0.43748 0.0
C849 C 0.90867 0.29017 0.38708 0.0
C850 C 0.95119 0.29274 0.40941 0.0
C851 C 0.90111 0.29744 0.3682 0.0
C852 C 0.97007 0.25984 0.50311 0.0
C853 C 0.96277 0.2677 0.4847 0.0
C854 C 0.92922 0.25656 0.42987 0.0
C855 C 0.92475 0.28955 0.38013 0.0
C856 C 0.93271 0.28194 0.40032 0.0
C857 C 0.95562 0.25942 0.45858 0.0
C858 C 0.94764 0.2674 0.43913 0.0
H859 H 0.93176 0.30783 0.3144 0.0
H860 H 0.9454 0.29561 0.34801 0.0
H861 H 0.90746 0.25529 0.40408 0.0
H862 H 0.96402 0.2234 0.46254 0.0
H863 H 0.95068 0.23677 0.4309 0.0
C864 C 0.04115 0.62845 0.16523 0.0
C865 C 0.0595 0.63752 0.17529 0.0
C866 C 0.02616 0.62124 0.1839 0.0
C867 C 0.01375 0.62504 0.25702 0.0
H868 H 0.97171 0.57584 0.24366 0.0
C869 C 0.9559 0.58596 0.33954 0.0
C870 C 0.93756 0.5759 0.32957 0.0
C871 C 0.97086 0.59371 0.32079 0.0
C872 C 0.98324 0.58969 0.24755 0.0
H873 H 0.07651 0.64625 0.21281 0.0
H874 H 0.05044 0.63366 0.24524 0.0
H875 H 0.99738 0.58919 0.21038 0.0
H876 H 0.92052 0.56622 0.29213 0.0
H877 H 0.94647 0.57989 0.2596 0.0
H878 H -0.00041 0.62557 0.29416 0.0
C879 C 0.04759 0.63226 0.22298 0.0
C880 C 0.99794 0.59734 0.22845 0.0
C881 C 0.06254 0.63938 0.20436 0.0
C882 C 0.93449 0.57382 0.30053 0.0
C883 C 0.94939 0.58156 0.28184 0.0
C884 C 0.99901 0.61741 0.27611 0.0
C885 C 0.02922 0.62304 0.213 0.0
C886 C 0.01338 0.61509 0.23297 0.0
C887 C 0.96777 0.59155 0.2917 0.0
C888 C 0.98357 0.59964 0.27161 0.0
H889 H 0.03837 0.62681 0.14295 0.0
H890 H 0.01216 0.61437 0.17555 0.0
H891 H 0.02534 0.63885 0.26093 0.0
H892 H 0.9587 0.58776 0.36181 0.0
H893 H 0.98485 0.60115 0.3291 0.0
C894 C 0.42448 0.36217 0.29996 0.0
C895 C 0.42268 0.36347 0.32901 0.0
C896 C 0.41692 0.36952 0.28125 0.0
C897 C 0.38166 0.38404 0.27591 0.0
H898 H 0.40911 0.40942 0.20902 0.0
C899 C 0.35947 0.4252 0.2037 0.0
C900 C 0.36088 0.42356 0.17464 0.0
C901 C 0.36669 0.41747 0.22234 0.0
C902 C 0.40118 0.40217 0.22742 0.0
H903 H 0.41165 0.37364 0.36123 0.0
H904 H 0.39859 0.38673 0.32849 0.0
H905 H 0.42265 0.39728 0.24233 0.0
H906 H 0.37085 0.4124 0.14231 0.0
H907 H 0.38344 0.39879 0.17497 0.0
H908 H 0.36024 0.38904 0.26104 0.0
C909 C 0.40565 0.37977 0.3202 0.0
C910 C 0.40893 0.39523 0.24654 0.0
C911 C 0.41321 0.37238 0.33896 0.0
C912 C 0.36956 0.41389 0.16459 0.0
C913 C 0.37686 0.40621 0.18328 0.0
C914 C 0.37392 0.39102 0.25681 0.0
C915 C 0.40741 0.3784 0.29111 0.0
C916 C 0.39926 0.38606 0.27101 0.0
C917 C 0.37554 0.40796 0.21237 0.0
C918 C 0.38359 0.40017 0.23235 0.0
H919 H 0.43163 0.35533 0.29158 0.0
H920 H 0.4183 0.36796 0.25901 0.0
H921 H 0.3737 0.37678 0.29429 0.0
H922 H 0.3529 0.43261 0.21213 0.0
H923 H 0.36565 0.41928 0.24459 0.0
C924 C 0.57617 0.93573 0.20293 0.0
C925 C 0.57678 0.93839 0.17381 0.0
C926 C 0.58404 0.95093 0.22109 0.0
C927 C 0.598 0.00049 0.22532 0.0
H928 H 0.62538 -3e-05 0.29077 0.0
C929 C 0.63798 0.06464 0.29662 0.0
C930 C 0.63716 0.06162 0.32566 0.0
C931 C 0.63071 0.04967 0.27801 0.0
C932 C 0.61759 0.00024 0.27277 0.0
H933 H 0.58629 0.9591 0.14087 0.0
H934 H 0.60021 0.98574 0.17266 0.0
H935 H 0.61306 0.97394 0.25809 0.0
H936 H 0.62791 0.04052 0.358 0.0
H937 H 0.615 0.01431 0.32547 0.0
H938 H 0.60246 0.02675 0.24006 0.0
C939 C 0.59346 0.97185 0.18142 0.0
C940 C 0.61055 0.98534 0.25401 0.0
C941 C 0.5856 0.9566 0.16321 0.0
C942 C 0.6288 0.04329 0.33573 0.0
C943 C 0.62151 0.02829 0.31708 0.0
C944 C 0.60502 0.01539 0.2441 0.0
C945 C 0.59271 0.96917 0.21059 0.0
C946 C 0.60064 0.98527 0.2301 0.0
C947 C 0.62242 0.03131 0.28799 0.0
C948 C 0.61487 0.01542 0.26808 0.0
H949 H 0.56943 0.92186 0.2118 0.0
H950 H 0.583 0.94836 0.24344 0.0
H951 H 0.59018 0.00074 0.20734 0.0
H952 H 0.64438 0.0786 0.28818 0.0
H953 H 0.63186 0.05251 0.25574 0.0
C954 C 0.3607 0.93563 0.70244 0.0
C955 C 0.36196 0.93849 0.67333 0.0
C956 C 0.36785 0.95068 0.72086 0.0
C957 C 0.38173 0.00033 0.72549 0.0
H958 H 0.40808 0.99922 0.79186 0.0
C959 C 0.42251 0.06435 0.79683 0.0
C960 C 0.42148 0.06141 0.82591 0.0
C961 C 0.4148 0.04931 0.77833 0.0
C962 C 0.40055 0.99965 0.77362 0.0
H963 H 0.37174 0.95943 0.64071 0.0
H964 H 0.38443 0.98583 0.67298 0.0
H965 H 0.39593 0.97332 0.75901 0.0
H966 H 0.41137 0.04039 0.85843 0.0
H967 H 0.39776 0.01406 0.82608 0.0
H968 H 0.38641 0.02671 0.74009 0.0
C969 C 0.3777 0.97189 0.68152 0.0
C970 C 0.3936 0.98481 0.75475 0.0
C971 C 0.37053 0.95678 0.66303 0.0
C972 C 0.41241 0.0431 0.83613 0.0
C973 C 0.40472 0.02803 0.81759 0.0
C974 C 0.38869 0.01519 0.74436 0.0
C975 C 0.37647 0.969 0.71067 0.0
C976 C 0.38409 0.98495 0.73047 0.0
C977 C 0.4059 0.03097 0.78846 0.0
C978 C 0.39818 0.01502 0.76865 0.0
H979 H 0.35412 0.92171 0.71108 0.0
H980 H 0.36641 0.94794 0.74316 0.0
H981 H 0.37423 0.00076 0.70722 0.0
H982 H 0.42944 0.07829 0.78826 0.0
H983 H 0.41617 0.05208 0.75604 0.0
C984 C 0.04393 0.41633 0.66574 0.0
C985 C 0.06228 0.42572 0.67575 0.0
C986 C 0.02896 0.40863 0.68445 0.0
C987 C 0.01659 0.41118 0.75826 0.0
H988 H 0.97406 0.36274 0.74238 0.0
C989 C 0.95756 0.37062 0.83864 0.0
C990 C 0.93936 0.36199 0.82806 0.0
C991 C 0.9728 0.37838 0.82039 0.0
C992 C 0.98577 0.37635 0.747 0.0
H993 H 0.07935 0.43439 0.7132 0.0
H994 H 0.05334 0.42078 0.74572 0.0
H995 H 1e-05 0.37647 0.70961 0.0
H996 H 0.92284 0.35475 0.79007 0.0
H997 H 0.94929 0.36828 0.75842 0.0
H998 H 0.00233 0.41099 0.79572 0.0
C999 C 0.05044 0.41959 0.72347 0.0
C1000 C 0.00063 0.38424 0.72818 0.0
C1001 C 0.06537 0.4273 0.7048 0.0
C1002 C 0.93669 0.36124 0.79892 0.0
C1003 C 0.95186 0.3689 0.78074 0.0
C1004 C 0.00175 0.40325 0.77712 0.0
C1005 C 0.03205 0.41014 0.71355 0.0
C1006 C 0.0162 0.40178 0.73353 0.0
C1007 C 0.97009 0.37756 0.79122 0.0
C1008 C 0.98614 0.38578 0.77165 0.0
H1009 H 0.04111 0.41494 0.64347 0.0
H1010 H 0.01497 0.40165 0.67611 0.0
H1011 H 0.02826 0.42482 0.76284 0.0
H1012 H 0.96005 0.37142 0.86099 0.0
H1013 H 0.98669 0.38483 0.82909 0.0
C1014 C 0.63948 0.57501 0.79911 0.0
C1015 C 0.63781 0.57653 0.82814 0.0
C1016 C 0.63239 0.58278 0.78032 0.0
C1017 C 0.59777 0.59784 0.77447 0.0
H1018 H 0.62569 0.62349 0.70803 0.0
C1019 C 0.57464 0.63774 0.70162 0.0
C1020 C 0.57658 0.63653 0.67259 0.0
C1021 C 0.58222 0.63046 0.72039 0.0
C1022 C 0.61762 0.61616 0.72629 0.0
H1023 H 0.62752 0.5875 0.86026 0.0
H1024 H 0.61513 0.60118 0.82732 0.0
H1025 H 0.63902 0.61128 0.74163 0.0
H1026 H 0.58794 0.62665 0.64045 0.0
H1027 H 0.60105 0.61367 0.67333 0.0
H1028 H 0.57631 0.60258 0.75909 0.0
C1029 C 0.62182 0.59384 0.81915 0.0
C1030 C 0.62528 0.60921 0.74559 0.0
C1031 C 0.62901 0.58611 0.83801 0.0
C1032 C 0.58626 0.62783 0.66271 0.0
C1033 C 0.59385 0.6205 0.68155 0.0
C1034 C 0.59009 0.60474 0.75515 0.0
C1035 C 0.6234 0.5922 0.79008 0.0
C1036 C 0.61544 0.59997 0.7699 0.0
C1037 C 0.59189 0.62171 0.71063 0.0
C1038 C 0.59993 0.61402 0.73084 0.0
H1039 H 0.64615 0.56768 0.7908 0.0
H1040 H 0.63362 0.58106 0.75809 0.0
H1041 H 0.58971 0.59051 0.79274 0.0
H1042 H 0.56732 0.64442 0.70995 0.0
H1043 H 0.5807 0.63192 0.74261 0.0
C1044 C 0.24804 0.05388 0.97562 0.0
C1045 C 0.23013 0.03816 0.97429 0.0
C1046 C 0.25042 0.07115 0.98391 0.0
C1047 C 0.22799 0.08992 0.02758 0.0
H1048 H 0.25149 0.13495 0.98296 0.0
C1049 C 0.20903 0.14634 0.0409 0.0
C1050 C 0.22274 0.16521 0.03893 0.0
C1051 C 0.21325 0.13245 0.03506 0.0
C1052 C 0.24523 0.12261 0.99595 0.0
H1053 H 0.20069 0.02838 0.97946 0.0
H1054 H 0.20489 0.05823 0.99411 0.0
H1055 H 0.25314 0.10756 0.96776 0.0
H1056 H 0.25178 0.1842 0.02935 0.0
H1057 H 0.25918 0.15968 0.01917 0.0
H1058 H 0.21973 0.10455 0.05548 0.0
C1059 C 0.21707 0.05723 0.98897 0.0
C1060 C 0.24616 0.10697 0.98721 0.0
C1061 C 0.21469 0.04016 0.98045 0.0
C1062 C 0.2409 0.16981 0.03117 0.0
C1063 C 0.24512 0.15579 0.02519 0.0
C1064 C 0.22719 0.10549 0.03639 0.0
C1065 C 0.23493 0.07279 0.9913 0.0
C1066 C 0.23696 0.09032 0.00249 0.0
C1067 C 0.23131 0.13695 0.02711 0.0
C1068 C 0.23517 0.12178 0.02015 0.0
H1069 H 0.26018 0.05273 0.97091 0.0
H1070 H 0.26432 0.08303 0.98548 0.0
H1071 H 0.22105 0.07731 0.03995 0.0
H1072 H 0.19488 0.1422 0.04673 0.0
H1073 H 0.20218 0.11809 0.0362 0.0
C1074 C 0.94539 0.19828 0.9796 0.0
C1075 C 0.95896 0.19468 0.96861 0.0
C1076 C 0.92766 0.18356 0.98613 0.0
C1077 C 0.89399 0.13496 0.97188 0.0
H1078 H 0.88183 0.12998 0.05101 0.0
C1079 C 0.82808 0.07199 0.01858 0.0
C1080 C 0.83288 0.06222 0.03775 0.0
C1081 C 0.84132 0.08996 0.01009 0.0
C1082 C 0.88493 0.13136 0.02881 0.0
H1083 H 0.96445 0.17312 0.95434 0.0
H1084 H 0.93329 0.14749 0.96479 0.0
H1085 H 0.90888 0.15847 0.03365 0.0
H1086 H 0.85488 0.0639 0.06419 0.0
H1087 H 0.87779 0.09553 0.05005 0.0
H1088 H 0.87028 0.1077 0.96714 0.0
C1089 C 0.93643 0.16162 0.96871 0.0
C1090 C 0.90029 0.14763 0.01889 0.0
C1091 C 0.95425 0.17626 0.96286 0.0
C1092 C 0.85083 0.07109 0.04932 0.0
C1093 C 0.86389 0.08918 0.04135 0.0
C1094 C 0.87839 0.11887 0.9817 0.0
C1095 C 0.92313 0.16511 0.981 0.0
C1096 C 0.90523 0.14934 0.99048 0.0
C1097 C 0.85938 0.0986 0.02121 0.0
C1098 C 0.87404 0.11674 0.01036 0.0
H1099 H 0.94875 0.21238 0.98435 0.0
H1100 H 0.91759 0.18654 0.99564 0.0
H1101 H 0.89759 0.13599 0.9499 0.0
H1102 H 0.81437 0.06544 0.0092 0.0
H1103 H 0.83757 0.09698 0.9945 0.0
C1104 C 0.80268 0.74884 0.9768 0.0
C1105 C 0.8064 0.76582 0.96486 0.0
C1106 C 0.81731 0.74572 0.98353 0.0
C1107 C 0.86563 0.75966 0.96912 0.0
H1108 H 0.87114 0.75477 0.04886 0.0
C1109 C 0.92817 0.75664 0.01737 0.0
C1110 C 0.93833 0.77164 0.03567 0.0
C1111 C 0.91027 0.7521 0.00884 0.0
C1112 C 0.86961 0.75586 0.02652 0.0
H1113 H 0.82799 0.79234 0.94901 0.0
H1114 H 0.85346 0.78659 0.95975 0.0
H1115 H 0.84272 0.75326 0.031 0.0
H1116 H 0.93741 0.793 0.06054 0.0
H1117 H 0.90589 0.78465 0.04633 0.0
H1118 H 0.89268 0.76263 0.9647 0.0
C1119 C 0.83933 0.77584 0.96427 0.0
C1120 C 0.85338 0.7549 0.01632 0.0
C1121 C 0.82479 0.77915 0.95823 0.0
C1122 C 0.92992 0.78142 0.04635 0.0
C1123 C 0.91189 0.7766 0.03835 0.0
C1124 C 0.88168 0.7602 0.97925 0.0
C1125 C 0.83576 0.75933 0.97765 0.0
C1126 C 0.85148 0.75728 0.98763 0.0
C1127 C 0.90208 0.76218 0.01905 0.0
C1128 C 0.884 0.75879 0.00811 0.0
H1129 H 0.78861 0.73841 0.9823 0.0
H1130 H 0.81428 0.7329 0.99388 0.0
H1131 H 0.86446 0.76158 0.94693 0.0
H1132 H 0.93436 0.74894 0.00868 0.0
H1133 H 0.90294 0.74094 0.99392 0.0
C1134 C 0.16874 0.239 0.47224 0.0
C1135 C 0.16474 0.22106 0.4642 0.0
C1136 C 0.15431 0.24263 0.4781 0.0
C1137 C 0.10374 0.22336 0.46688 0.0
H1138 H 0.10555 0.24941 0.53527 0.0
C1139 C 0.03786 0.21213 0.52079 0.0
C1140 C 0.03676 0.22787 0.52846 0.0
C1141 C 0.0547 0.21388 0.51227 0.0
C1142 C 0.10499 0.24234 0.51592 0.0
H1143 H 0.14237 0.19302 0.4555 0.0
H1144 H 0.11753 0.19928 0.46585 0.0
H1145 H 0.13309 0.24813 0.52014 0.0
H1146 H 0.0526 0.25775 0.53436 0.0
H1147 H 0.08236 0.26077 0.51977 0.0
H1148 H 0.07548 0.21693 0.46321 0.0
C1149 C 0.13173 0.21064 0.46735 0.0
C1150 C 0.12074 0.24165 0.5072 0.0
C1151 C 0.14605 0.207 0.46162 0.0
C1152 C 0.05305 0.24538 0.5285 0.0
C1153 C 0.07004 0.24711 0.5202 0.0
C1154 C 0.08804 0.22393 0.47567 0.0
C1155 C 0.13564 0.22844 0.47578 0.0
C1156 C 0.12008 0.23167 0.483 0.0
C1157 C 0.07089 0.2314 0.51142 0.0
C1158 C 0.08834 0.23298 0.50066 0.0
H1159 H 0.18298 0.25014 0.4745 0.0
H1160 H 0.15776 0.25652 0.48441 0.0
H1161 H 0.10291 0.21595 0.44778 0.0
H1162 H 0.02559 0.19842 0.52067 0.0
H1163 H 0.05503 0.2015 0.5061 0.0
C1164 C 0.74898 0.80436 0.52158 0.0
C1165 C 0.76579 0.80738 0.53324 0.0
C1166 C 0.74641 0.81944 0.51568 0.0
C1167 C 0.76157 0.86777 0.53223 0.0
H1168 H 0.75744 0.87512 0.45288 0.0
C1169 C 0.7593 0.93143 0.48607 0.0
C1170 C 0.77446 0.94189 0.46816 0.0
C1171 C 0.75486 0.9135 0.4943 0.0
C1172 C 0.75834 0.87309 0.47511 0.0
H1173 H 0.79257 0.82819 0.5495 0.0
H1174 H 0.78776 0.85443 0.54021 0.0
H1175 H 0.75501 0.84598 0.46927 0.0
H1176 H 0.79633 0.94154 0.4439 0.0
H1177 H 0.78814 0.90994 0.45757 0.0
H1178 H 0.76521 0.89502 0.53801 0.0
C1179 C 0.77674 0.8405 0.53524 0.0
C1180 C 0.75685 0.85645 0.48448 0.0
C1181 C 0.77951 0.82552 0.54044 0.0
C1182 C 0.78463 0.93382 0.45779 0.0
C1183 C 0.7799 0.91575 0.46548 0.0
C1184 C 0.76263 0.88425 0.52293 0.0
C1185 C 0.76039 0.83764 0.52214 0.0
C1186 C 0.75892 0.85386 0.51303 0.0
C1187 C 0.76519 0.90558 0.48416 0.0
C1188 C 0.7615 0.88721 0.49423 0.0
H1189 H 0.73827 0.79049 0.51568 0.0
H1190 H 0.73371 0.81697 0.50552 0.0
H1191 H 0.76328 0.86608 0.55433 0.0
H1192 H 0.75129 0.93735 0.49451 0.0
H1193 H 0.74348 0.90588 0.50876 0.0
C1194 C 0.07221 0.82934 0.47199 0.0
C1195 C 0.05921 0.83406 0.46178 0.0
C1196 C 0.09047 0.84325 0.4781 0.0
C1197 C 0.12421 0.89295 0.46409 0.0
H1198 H 0.14524 0.89253 0.53643 0.0
C1199 C 0.17596 0.95948 0.51906 0.0
C1200 C 0.19284 0.96118 0.52805 0.0
C1201 C 0.16142 0.94238 0.51027 0.0
C1202 C 0.13966 0.89265 0.51599 0.0
H1203 H 0.0554 0.85711 0.44938 0.0
H1204 H 0.08684 0.88107 0.4601 0.0
H1205 H 0.11647 0.86504 0.52082 0.0
H1206 H 0.20746 0.94613 0.53607 0.0
H1207 H 0.18154 0.91581 0.52114 0.0
H1208 H 0.14677 0.92083 0.45987 0.0
C1209 C 0.08312 0.86669 0.46317 0.0
C1210 C 0.12325 0.87695 0.50701 0.0
C1211 C 0.06497 0.8529 0.45724 0.0
C1212 C 0.19461 0.94521 0.52915 0.0
C1213 C 0.17984 0.92792 0.52066 0.0
C1214 C 0.14043 0.90861 0.47314 0.0
C1215 C 0.09607 0.86209 0.47382 0.0
C1216 C 0.11502 0.8772 0.48136 0.0
C1217 C 0.1633 0.92651 0.51055 0.0
C1218 C 0.14797 0.90882 0.49951 0.0
H1219 H 0.06821 0.81495 0.47581 0.0
H1220 H 0.10017 0.83928 0.4862 0.0
H1221 H 0.11847 0.89343 0.44395 0.0
H1222 H 0.1741 0.97148 0.51806 0.0
H1223 H 0.14868 0.94158 0.50298 0.0
C1224 C 0.75515 0.94726 0.03256 0.0
C1225 C 0.77273 0.96327 0.0352 0.0
C1226 C 0.7536 0.9298 0.02876 0.0
C1227 C 0.77994 0.90495 0.03685 0.0
H1228 H 0.74968 0.87425 0.97533 0.0
C1229 C 0.79515 0.85291 0.9825 0.0
C1230 C 0.78034 0.8352 0.97558 0.0
C1231 C 0.79178 0.86672 0.99247 0.0
C1232 C 0.75794 0.8825 0.99288 0.0
H1233 H 0.8024 0.97355 0.03666 0.0
H1234 H 0.79971 0.94331 0.0301 0.0
H1235 H 0.748 0.90178 0.989 0.0
H1236 H 0.75027 0.81824 0.97345 0.0
H1237 H 0.74442 0.84264 0.99075 0.0
H1238 H 0.79033 0.8861 0.0402 0.0
C1239 C 0.7871 0.9441 0.03113 0.0
C1240 C 0.75696 0.89824 1.00074 0.0
C1241 C 0.78865 0.96147 0.03471 0.0
C1242 C 0.76201 0.83173 0.97858 0.0
C1243 C 0.75864 0.84568 0.98843 0.0
C1244 C 0.78092 0.88929 0.029 0.0
C1245 C 0.76959 0.92808 0.02786 0.0
C1246 C 0.76839 0.90993 0.02227 0.0
C1247 C 0.77353 0.86325 0.99574 0.0
C1248 C 0.77037 0.87822 0.0064 0.0
H1249 H 0.74264 0.94826 0.03284 0.0
H1250 H 0.73992 0.91768 0.02643 0.0
H1251 H 0.78861 0.91346 0.05392 0.0
H1252 H 0.80945 0.85617 0.98043 0.0
H1253 H 0.80355 0.88023 0.99741 0.0
C1254 C 0.14648 0.93594 0.9565 0.0
C1255 C 0.16516 0.9413 0.96157 0.0
C1256 C 0.13234 0.91792 0.96229 0.0
C1257 C 0.12099 0.87763 0.00664 0.0
H1258 H 0.07713 0.85478 0.95943 0.0
C1259 C 0.05269 0.80672 0.02899 0.0
C1260 C 0.03658 0.8082 0.02723 0.0
C1261 C 0.06994 0.82157 0.02061 0.0
C1262 C 0.08932 0.86097 0.97276 0.0
H1263 H 0.18364 0.93167 0.97621 0.0
H1264 H 0.15872 0.89992 0.98629 0.0
H1265 H 0.10485 0.88278 0.94351 0.0
H1266 H 0.02597 0.82653 0.01621 0.0
H1267 H 0.05586 0.85216 0.00135 0.0
H1268 H 0.10511 0.85575 0.03606 0.0
C1269 C 0.15513 0.90985 0.97795 0.0
C1270 C 0.10517 0.87701 0.9637 0.0
C1271 C 0.16938 0.92798 0.972 0.0
C1272 C 0.03809 0.82491 0.01771 0.0
C1273 C 0.05518 0.83955 0.00904 0.0
C1274 C 0.1051 0.8614 0.01563 0.0
C1275 C 0.13643 0.90468 0.9733 0.0
C1276 C 0.12096 0.88593 0.98095 0.0
C1277 C 0.0712 0.83794 0.00998 0.0
C1278 C 0.08894 0.85333 0.99913 0.0
H1279 H 0.14266 0.94577 0.94843 0.0
H1280 H 0.11809 0.91454 0.9589 0.0
H1281 H 0.1329 0.88421 0.02047 0.0
H1282 H 0.05192 0.79401 0.03631 0.0
H1283 H 0.08214 0.82006 0.0216 0.0
C1284 C 0.17311 0.21474 0.02573 0.0
C1285 C 0.19069 0.23022 0.03095 0.0
C1286 C 0.15831 0.21706 0.01766 0.0
C1287 C 0.13807 0.24663 0.01873 0.0
H1288 H 0.11241 0.21834 0.95252 0.0
C1289 C 0.06982 0.24131 0.97489 0.0
C1290 C 0.0559 0.22301 0.96845 0.0
C1291 C 0.08798 0.24534 0.98097 0.0
C1292 C 0.1194 0.22632 0.97103 0.0
H1293 H 0.20635 0.26033 0.03319 0.0
H1294 H 0.18003 0.26439 0.01931 0.0
H1295 H 0.14115 0.2198 0.96733 0.0
H1296 H 0.05028 0.19466 0.96337 0.0
H1297 H 0.0816 0.20164 0.97399 0.0
H1298 H 0.11574 0.25243 0.02305 0.0
C1299 C 0.17795 0.25048 0.02131 0.0
C1300 C 0.13587 0.2272 0.97943 0.0
C1301 C 0.19295 0.24815 0.02921 0.0
C1302 C 0.06058 0.20892 0.96812 0.0
C1303 C 0.07863 0.21295 0.97403 0.0
C1304 C 0.12142 0.24566 0.01036 0.0
C1305 C 0.16066 0.23492 0.01477 0.0
C1306 C 0.14503 0.23683 0.00384 0.0
C1307 C 0.09256 0.23118 0.98043 0.0
C1308 C 0.11161 0.23494 0.98695 0.0
H1309 H 0.17083 0.20073 0.0271 0.0
H1310 H 0.14501 0.20483 0.01323 0.0
H1311 H 0.14493 0.25414 0.03763 0.0
H1312 H 0.06668 0.25249 0.97545 0.0
H1313 H 0.09845 0.25952 0.98582 0.0
C1314 C 0.94589 0.75231 0.47168 0.0
C1315 C 0.96169 0.77013 0.46981 0.0
C1316 C 0.92856 0.75026 0.47871 0.0
C1317 C 0.90971 0.77469 0.51784 0.0
H1318 H 0.8644 0.74797 0.47441 0.0
C1319 C 0.85249 0.79274 0.52543 0.0
C1320 C 0.83381 0.77849 0.52675 0.0
C1321 C 0.86651 0.78871 0.51968 0.0
C1322 C 0.87686 0.75519 0.48702 0.0
H1323 H 0.97156 0.79973 0.47243 0.0
H1324 H 0.9416 0.79613 0.48472 0.0
H1325 H 0.89203 0.74608 0.46126 0.0
H1326 H 0.81526 0.74873 0.52249 0.0
H1327 H 0.84006 0.7417 0.51233 0.0
H1328 H 0.89497 0.78418 0.54322 0.0
C1329 C 0.94258 0.78376 0.48113 0.0
C1330 C 0.89262 0.75411 0.47948 0.0
C1331 C 0.95972 0.78579 0.47396 0.0
C1332 C 0.82951 0.76004 0.52176 0.0
C1333 C 0.84366 0.756 0.51583 0.0
C1334 C 0.89407 0.7757 0.5254 0.0
C1335 C 0.92692 0.76601 0.4842 0.0
C1336 C 0.90935 0.76441 0.49429 0.0
C1337 C 0.86233 0.77032 0.51507 0.0
C1338 C 0.87768 0.76653 0.5095 0.0
H1339 H 0.94702 0.73999 0.4685 0.0
H1340 H 0.91663 0.73643 0.48087 0.0
H1341 H 0.92235 0.78246 0.52993 0.0
H1342 H 0.85639 0.80713 0.52896 0.0
H1343 H 0.88072 0.8001 0.51865 0.0
C1344 C 0.21706 0.17486 0.48537 0.0
C1345 C 0.2319 0.192 0.47645 0.0
C1346 C 0.22018 0.16067 0.49414 0.0
C1347 C 0.2487 0.13983 0.48774 0.0
H1348 H 0.22732 0.11829 0.5599 0.0
C1349 C 0.24416 0.07173 0.52972 0.0
C1350 C 0.22636 0.05873 0.53969 0.0
C1351 C 0.24873 0.09012 0.52421 0.0
C1352 C 0.2334 0.12415 0.53974 0.0
H1353 H 0.26157 0.20747 0.46861 0.0
H1354 H 0.26697 0.18213 0.48348 0.0
H1355 H 0.22817 0.14673 0.54473 0.0
H1356 H 0.19962 0.05507 0.55233 0.0
H1357 H 0.2075 0.08679 0.5427 0.0
H1358 H 0.25295 0.11659 0.4821 0.0
C1359 C 0.25299 0.17998 0.48393 0.0
C1360 C 0.23395 0.14045 0.53114 0.0
C1361 C 0.2499 0.1944 0.47547 0.0
C1362 C 0.21344 0.06464 0.54462 0.0
C1363 C 0.21803 0.08293 0.53933 0.0
C1364 C 0.24802 0.12335 0.49629 0.0
C1365 C 0.23816 0.16316 0.4939 0.0
C1366 C 0.241 0.14807 0.5047 0.0
C1367 C 0.23565 0.09588 0.52891 0.0
C1368 C 0.23971 0.11499 0.52195 0.0
H1369 H 0.20301 0.17249 0.48629 0.0
H1370 H 0.20848 0.14771 0.50133 0.0
H1371 H 0.25416 0.14548 0.46723 0.0
H1372 H 0.25442 0.06761 0.52562 0.0
H1373 H 0.26244 0.09982 0.51625 0.0
C1374 C 0.92974 0.15017 0.54982 0.0
C1375 C 0.93849 0.16793 0.53759 0.0
C1376 C 0.91178 0.13683 0.54181 0.0
C1377 C 0.88304 0.12069 0.4817 0.0
H1378 H 0.84254 0.09145 0.53302 0.0
C1379 C 0.82547 0.04436 0.465 0.0
C1380 C 0.80705 0.04013 0.46931 0.0
C1381 C 0.84022 0.06218 0.47067 0.0
C1382 C 0.85365 0.09966 0.51843 0.0
H1383 H 0.93526 0.18586 0.50789 0.0
H1384 H 0.90392 0.16212 0.49306 0.0
H1385 H 0.8706 0.11908 0.55013 0.0
H1386 H 0.7895 0.0512 0.48236 0.0
H1387 H 0.81545 0.08229 0.49329 0.0
H1388 H 0.8666 0.10056 0.45043 0.0
C1389 C 0.91092 0.15876 0.50922 0.0
C1390 C 0.86965 0.11537 0.5282 0.0
C1391 C 0.92875 0.1723 0.51778 0.0
C1392 C 0.80359 0.05415 0.47875 0.0
C1393 C 0.81837 0.07186 0.48507 0.0
C1394 C 0.8672 0.10474 0.47207 0.0
C1395 C 0.90242 0.14087 0.52096 0.0
C1396 C 0.88456 0.12584 0.51 0.0
C1397 C 0.83679 0.07594 0.48133 0.0
C1398 C 0.85251 0.09397 0.49046 0.0
H1399 H 0.93696 0.14648 0.56516 0.0
H1400 H 0.90553 0.12307 0.55097 0.0
H1401 H 0.89447 0.12848 0.46738 0.0
H1402 H 0.8285 0.03382 0.45767 0.0
H1403 H 0.85433 0.06499 0.46782 0.0
C1404 C 0.90446 0.50181 0.35611 0.0
C1405 C 0.89154 0.49935 0.37702 0.0
C1406 C 0.90705 0.48701 0.34828 0.0
C1407 C 0.88135 0.43549 0.35099 0.0
H1408 H 0.92688 0.44052 0.32053 0.0
C1409 C 0.88037 0.3734 0.29818 0.0
C1410 C 0.89523 0.37037 0.30357 0.0
C1411 C 0.88161 0.39028 0.30525 0.0
C1412 C 0.91409 0.43884 0.32921 0.0
H1413 H 0.87246 0.4802 0.40783 0.0
H1414 H 0.8777 0.45479 0.39542 0.0
H1415 H 0.92683 0.46775 0.33968 0.0
H1416 H 0.92334 0.38276 0.31955 0.0
H1417 H 0.92531 0.41208 0.33303 0.0
H1418 H 0.86875 0.4066 0.34182 0.0
C1419 C 0.88519 0.46774 0.38399 0.0
C1420 C 0.91401 0.45452 0.33991 0.0
C1421 C 0.8823 0.48235 0.39134 0.0
C1422 C 0.91169 0.3848 0.31512 0.0
C1423 C 0.91282 0.40162 0.32274 0.0
C1424 C 0.88149 0.41987 0.34068 0.0
C1425 C 0.897 0.46959 0.36158 0.0
C1426 C 0.8976 0.45303 0.35093 0.0
C1427 C 0.8976 0.40439 0.31853 0.0
C1428 C 0.89779 0.42131 0.32941 0.0
H1429 H 0.91169 0.51479 0.34466 0.0
H1430 H 0.91619 0.48897 0.33086 0.0
H1431 H 0.86832 0.43376 0.35868 0.0
H1432 H 0.86761 0.36259 0.28892 0.0
H1433 H 0.86983 0.39209 0.30081 0.0
C1434 C 0.61105 0.52612 0.31065 0.0
C1435 C 0.62692 0.52416 0.31034 0.0
C1436 C 0.59383 0.51126 0.31922 0.0
C1437 C 0.57484 0.47028 0.36412 0.0
H1438 H 0.53035 0.44883 0.31831 0.0
C1439 C 0.51748 0.39496 0.37742 0.0
C1440 C 0.49875 0.39007 0.37439 0.0
C1441 C 0.53168 0.413 0.37181 0.0
C1442 C 0.54254 0.45488 0.33162 0.0
H1443 H 0.63708 0.505 0.31792 0.0
H1444 H 0.60733 0.47945 0.33303 0.0
H1445 H 0.55792 0.47779 0.30351 0.0
H1446 H 0.48031 0.40054 0.36328 0.0
H1447 H 0.5053 0.43226 0.35353 0.0
H1448 H 0.55983 0.44741 0.39196 0.0
C1449 C 0.60815 0.4924 0.32687 0.0
C1450 C 0.55829 0.47141 0.32311 0.0
C1451 C 0.62517 0.50703 0.31804 0.0
C1452 C 0.49459 0.40383 0.3659 0.0
C1453 C 0.50889 0.42196 0.36015 0.0
C1454 C 0.55915 0.45392 0.37268 0.0
C1455 C 0.59238 0.49442 0.32797 0.0
C1456 C 0.57475 0.47887 0.33884 0.0
C1457 C 0.5276 0.42672 0.36302 0.0
C1458 C 0.54304 0.44565 0.35606 0.0
H1459 H 0.612 0.53916 0.30475 0.0
H1460 H 0.58181 0.5131 0.31981 0.0
H1461 H 0.58728 0.47595 0.37686 0.0
H1462 H 0.52127 0.38478 0.38387 0.0
H1463 H 0.54594 0.41608 0.37374 0.0
C1464 C 0.47541 0.09097 0.31313 0.0
C1465 C 0.47718 0.1074 0.30189 0.0
C1466 C 0.49124 0.09003 0.32046 0.0
C1467 C 0.54109 0.12174 0.33737 0.0
H1468 H 0.54336 0.07626 0.33718 0.0
C1469 C 0.60334 0.12097 0.38675 0.0
C1470 C 0.61038 0.11084 0.3731 0.0
C1471 C 0.58598 0.11851 0.37949 0.0
C1472 C 0.54306 0.08914 0.33715 0.0
H1473 H 0.49669 0.13518 0.28747 0.0
H1474 H 0.52424 0.13325 0.29862 0.0
H1475 H 0.516 0.0761 0.31849 0.0
H1476 H 0.60459 0.08973 0.34186 0.0
H1477 H 0.57463 0.08603 0.32812 0.0
H1478 H 0.56839 0.13507 0.35449 0.0
C1479 C 0.51075 0.12136 0.30316 0.0
C1480 C 0.52722 0.089 0.32672 0.0
C1481 C 0.49497 0.12243 0.29647 0.0
C1482 C 0.59942 0.09765 0.3528 0.0
C1483 C 0.5822 0.0955 0.34503 0.0
C1484 C 0.55696 0.12195 0.3473 0.0
C1485 C 0.50914 0.1054 0.31619 0.0
C1486 C 0.52603 0.10533 0.32668 0.0
C1487 C 0.57545 0.10625 0.35781 0.0
C1488 C 0.55819 0.10566 0.34752 0.0
H1489 H 0.46181 0.07921 0.31765 0.0
H1490 H 0.48937 0.07755 0.3306 0.0
H1491 H 0.54063 0.13453 0.33836 0.0
H1492 H 0.6114 0.13104 0.40278 0.0
H1493 H 0.58102 0.12657 0.39055 0.0
C1494 C 0.81157 0.53874 0.79731 0.0
C1495 C 0.83022 0.55297 0.79931 0.0
C1496 C 0.79718 0.54218 0.80347 0.0
C1497 C 0.78614 0.57319 0.84334 0.0
H1498 H 0.74046 0.54767 0.80045 0.0
C1499 C 0.71833 0.57674 0.86472 0.0
C1500 C 0.70205 0.55923 0.86496 0.0
C1501 C 0.73533 0.57841 0.85663 0.0
C1502 C 0.75313 0.55488 0.81262 0.0
H1503 H 0.84832 0.58217 0.80908 0.0
H1504 H 0.82296 0.58822 0.81971 0.0
H1505 H 0.76788 0.54686 0.78457 0.0
H1506 H 0.69093 0.5297 0.85808 0.0
H1507 H 0.72038 0.53265 0.84387 0.0
H1508 H 0.77107 0.58104 0.87152 0.0
C1509 C 0.81961 0.57434 0.81352 0.0
C1510 C 0.76883 0.5544 0.80357 0.0
C1511 C 0.83411 0.57089 0.80725 0.0
C1512 C 0.70318 0.5434 0.85794 0.0
C1513 C 0.72003 0.54509 0.84964 0.0
C1514 C 0.77038 0.57379 0.85231 0.0
C1515 C 0.80098 0.55997 0.81175 0.0
C1516 C 0.78534 0.56303 0.81928 0.0
C1517 C 0.73619 0.56262 0.84836 0.0
C1518 C 0.75359 0.56414 0.83745 0.0
H1519 H 0.80798 0.52476 0.79131 0.0
H1520 H 0.78303 0.5307 0.80239 0.0
H1521 H 0.79863 0.57991 0.85596 0.0
H1522 H 0.71787 0.58917 0.87009 0.0
H1523 H 0.74763 0.59207 0.85587 0.0
C1524 C 0.45202 0.1598 0.86305 0.0
C1525 C 0.43622 0.14215 0.86629 0.0
C1526 C 0.45026 0.17506 0.85574 0.0
C1527 C 0.42088 0.19572 0.85442 0.0
H1528 H 0.45182 0.22268 0.79094 0.0
C1529 C 0.42609 0.26359 0.80928 0.0
C1530 C 0.44433 0.27788 0.80345 0.0
C1531 C 0.42247 0.24563 0.81583 0.0
C1532 C 0.44315 0.21537 0.80874 0.0
H1533 H 0.40609 0.12684 0.86604 0.0
H1534 H 0.40301 0.15394 0.8534 0.0
H1535 H 0.4501 0.19388 0.80605 0.0
H1536 H 0.47304 0.28437 0.80012 0.0
H1537 H 0.46678 0.25338 0.81167 0.0
H1538 H 0.41451 0.21772 0.85768 0.0
C1539 C 0.41673 0.15573 0.8564 0.0
C1540 C 0.44212 0.19886 0.81732 0.0
C1541 C 0.4185 0.14029 0.86362 0.0
C1542 C 0.4588 0.27376 0.8043 0.0
C1543 C 0.4552 0.2559 0.81076 0.0
C1544 C 0.422 0.21242 0.8459 0.0
C1545 C 0.43266 0.17311 0.85158 0.0
C1546 C 0.43142 0.18915 0.84069 0.0
C1547 C 0.43701 0.24159 0.81651 0.0
C1548 C 0.43361 0.22269 0.82346 0.0
H1549 H 0.46588 0.16179 0.86526 0.0
H1550 H 0.46275 0.18839 0.85268 0.0
H1551 H 0.41252 0.18845 0.87249 0.0
H1552 H 0.4146 0.26629 0.80892 0.0
H1553 H 0.40831 0.23487 0.82008 0.0
C1554 C 0.73788 0.16168 0.80512 0.0
C1555 C 0.72458 0.16616 0.79551 0.0
C1556 C 0.7561 0.17576 0.81102 0.0
C1557 C 0.78912 0.22567 0.79713 0.0
H1558 H 0.81145 0.22518 0.86823 0.0
C1559 C 0.84182 0.29224 0.85121 0.0
C1560 C 0.85874 0.29387 0.8598 0.0
C1561 C 0.82716 0.27517 0.84255 0.0
C1562 C 0.8055 0.22533 0.84812 0.0
H1563 H 0.72019 0.189 0.78407 0.0
H1564 H 0.75157 0.21327 0.79444 0.0
H1565 H 0.78256 0.19761 0.85323 0.0
H1566 H 0.87333 0.27871 0.86715 0.0
H1567 H 0.84723 0.24846 0.85241 0.0
H1568 H 0.81148 0.25363 0.79262 0.0
C1569 C 0.74811 0.19894 0.79718 0.0
C1570 C 0.78902 0.20958 0.83949 0.0
C1571 C 0.73 0.18497 0.79145 0.0
C1572 C 0.86045 0.27785 0.86055 0.0
C1573 C 0.84558 0.2606 0.85217 0.0
C1574 C 0.80542 0.24137 0.80582 0.0
C1575 C 0.76137 0.19456 0.80714 0.0
C1576 C 0.78034 0.20983 0.81431 0.0
C1577 C 0.82896 0.25925 0.84253 0.0
C1578 C 0.81345 0.24156 0.83177 0.0
H1579 H 0.73416 0.14733 0.80856 0.0
H1580 H 0.76605 0.17196 0.81858 0.0
H1581 H 0.78304 0.22615 0.7773 0.0
H1582 H 0.83999 0.30427 0.85049 0.0
H1583 H 0.81438 0.27443 0.83563 0.0
C1584 C 0.44683 0.18537 0.29104 0.0
C1585 C 0.43802 0.16744 0.30269 0.0
C1586 C 0.44142 0.19817 0.2988 0.0
C1587 C 0.42572 0.21254 0.35775 0.0
H1588 H 0.41595 0.24204 0.30472 0.0
C1589 C 0.44383 0.28841 0.37434 0.0
C1590 C 0.4302 0.29311 0.36795 0.0
C1591 C 0.44062 0.27051 0.36911 0.0
C1592 C 0.41837 0.23373 0.31979 0.0
H1593 H 0.41646 0.14868 0.3312 0.0
H1594 H 0.40745 0.17148 0.34563 0.0
H1595 H 0.41764 0.21495 0.2883 0.0
H1596 H 0.40239 0.2828 0.35168 0.0
H1597 H 0.39703 0.25149 0.3415 0.0
H1598 H 0.42774 0.23208 0.38891 0.0
C1599 C 0.41829 0.17539 0.33011 0.0
C1600 C 0.41941 0.21833 0.3104 0.0
C1601 C 0.4234 0.16239 0.32181 0.0
C1602 C 0.41309 0.27947 0.3569 0.0
C1603 C 0.41004 0.26164 0.35102 0.0
C1604 C 0.42507 0.22817 0.36705 0.0
C1605 C 0.42738 0.19341 0.3188 0.0
C1606 C 0.42344 0.20784 0.32923 0.0
C1607 C 0.42387 0.2571 0.35684 0.0
C1608 C 0.42174 0.23907 0.34804 0.0
H1609 H 0.45808 0.18959 0.27617 0.0
H1610 H 0.44872 0.21205 0.28999 0.0
H1611 H 0.42902 0.20474 0.37258 0.0
H1612 H 0.45713 0.29865 0.38294 0.0
H1613 H 0.45156 0.26737 0.37353 0.0
C1614 C 0.83845 0.26184 0.31404 0.0
C1615 C 0.834 0.27203 0.29515 0.0
C1616 C 0.8249 0.24394 0.32225 0.0
C1617 C 0.78077 0.20334 0.30306 0.0
H1618 H 0.76863 0.19804 0.38221 0.0
C1619 C 0.72053 0.13611 0.3518 0.0
C1620 C 0.70715 0.13958 0.3639 0.0
C1621 C 0.73815 0.1509 0.34498 0.0
C1622 C 0.77206 0.19926 0.36015 0.0
H1623 H 0.81227 0.27116 0.26895 0.0
H1624 H 0.7888 0.23962 0.28262 0.0
H1625 H 0.79606 0.2263 0.36518 0.0
H1626 H 0.70191 0.16099 0.37976 0.0
H1627 H 0.73289 0.18673 0.36876 0.0
H1628 H 0.75657 0.17645 0.29796 0.0
C1629 C 0.80267 0.2456 0.29129 0.0
C1630 C 0.78774 0.21534 0.35044 0.0
C1631 C 0.81606 0.26364 0.28359 0.0
C1632 C 0.71196 0.15794 0.37038 0.0
C1633 C 0.72968 0.17264 0.36421 0.0
C1634 C 0.76533 0.18709 0.31285 0.0
C1635 C 0.80686 0.23577 0.31115 0.0
C1636 C 0.79194 0.21769 0.32174 0.0
C1637 C 0.74278 0.16929 0.3509 0.0
C1638 C 0.7606 0.18514 0.34136 0.0
H1639 H 0.85214 0.26803 0.32343 0.0
H1640 H 0.82841 0.23659 0.33762 0.0
H1641 H 0.78376 0.2049 0.28083 0.0
H1642 H 0.71711 0.12207 0.34648 0.0
H1643 H 0.74807 0.14802 0.3347 0.0
C1644 C 0.85917 0.58037 0.36313 0.0
C1645 C 0.85729 0.56258 0.36393 0.0
C1646 C 0.84426 0.58259 0.35441 0.0
C1647 C 0.80368 0.56031 0.30918 0.0
H1648 H 0.7818 0.58363 0.35336 0.0
C1649 C 0.72863 0.54225 0.29355 0.0
C1650 C 0.7235 0.55593 0.29648 0.0
C1651 C 0.74668 0.54627 0.29943 0.0
C1652 C 0.78799 0.57743 0.34048 0.0
H1653 H 0.83817 0.53315 0.35731 0.0
H1654 H 0.81248 0.53708 0.34189 0.0
H1655 H 0.81052 0.58497 0.36935 0.0
H1656 H 0.73359 0.58479 0.30747 0.0
H1657 H 0.76539 0.59185 0.31762 0.0
H1658 H 0.78125 0.5525 0.28052 0.0
C1659 C 0.82543 0.54929 0.34779 0.0
C1660 C 0.80436 0.57816 0.34969 0.0
C1661 C 0.84014 0.54706 0.35677 0.0
C1662 C 0.73708 0.57392 0.30493 0.0
C1663 C 0.75525 0.57795 0.31092 0.0
C1664 C 0.7875 0.55972 0.29988 0.0
C1665 C 0.82743 0.56707 0.34603 0.0
C1666 C 0.81195 0.56904 0.33456 0.0
C1667 C 0.7602 0.56411 0.30834 0.0
C1668 C 0.77907 0.56767 0.31592 0.0
H1669 H 0.87223 0.59257 0.3686 0.0
H1670 H 0.84607 0.59643 0.3533 0.0
H1671 H 0.80948 0.55345 0.29689 0.0
H1672 H 0.71861 0.52823 0.28711 0.0
H1673 H 0.74988 0.53516 0.29771 0.0
C1674 C 0.61175 0.08271 0.8052 0.0
C1675 C 0.62723 0.10072 0.80277 0.0
C1676 C 0.59427 0.08025 0.81236 0.0
C1677 C 0.57497 0.10416 0.85141 0.0
H1678 H 0.52926 0.07657 0.80911 0.0
C1679 C 0.51812 0.12234 0.85826 0.0
C1680 C 0.49949 0.10823 0.86143 0.0
C1681 C 0.53189 0.11801 0.85223 0.0
C1682 C 0.54183 0.084 0.82142 0.0
H1683 H 0.63633 0.13018 0.80438 0.0
H1684 H 0.60612 0.12586 0.81689 0.0
H1685 H 0.55703 0.07502 0.79543 0.0
H1686 H 0.48072 0.07839 0.85988 0.0
H1687 H 0.50514 0.07082 0.84914 0.0
H1688 H 0.56023 0.1136 0.87689 0.0
C1689 C 0.60747 0.11368 0.81364 0.0
C1690 C 0.55767 0.08314 0.81358 0.0
C1691 C 0.62476 0.11612 0.80638 0.0
C1692 C 0.49495 0.08959 0.85775 0.0
C1693 C 0.50887 0.08524 0.85152 0.0
C1694 C 0.55925 0.10495 0.85926 0.0
C1695 C 0.59217 0.09577 0.81739 0.0
C1696 C 0.57453 0.0938 0.82793 0.0
C1697 C 0.52751 0.09946 0.84916 0.0
C1698 C 0.54275 0.09549 0.84372 0.0
H1699 H 0.61327 0.07059 0.80245 0.0
H1700 H 0.58263 0.06631 0.81505 0.0
H1701 H 0.58771 0.11221 0.86314 0.0
H1702 H 0.52223 0.13687 0.86061 0.0
H1703 H 0.54607 0.12929 0.8499 0.0
C1704 C 0.91574 0.52694 0.80974 0.0
C1705 C 0.89768 0.5244 0.8104 0.0
C1706 C 0.91888 0.51256 0.81827 0.0
C1707 C 0.89977 0.47295 0.86525 0.0
H1708 H 0.91905 0.44924 0.81644 0.0
C1709 C 0.8794 0.39714 0.87865 0.0
C1710 C 0.89233 0.39126 0.87362 0.0
C1711 C 0.88397 0.41545 0.87349 0.0
C1712 C 0.91404 0.45596 0.83058 0.0
H1713 H 0.86875 0.5047 0.81969 0.0
H1714 H 0.87431 0.48 0.83484 0.0
H1715 H 0.92025 0.4781 0.80153 0.0
H1716 H 0.92042 0.40022 0.85956 0.0
H1717 H 0.92841 0.43244 0.85047 0.0
H1718 H 0.89307 0.45077 0.89399 0.0
C1719 C 0.88601 0.49303 0.82786 0.0
C1720 C 0.91472 0.47243 0.822 0.0
C1721 C 0.88285 0.50717 0.81903 0.0
C1722 C 0.91014 0.40431 0.86374 0.0
C1723 C 0.9147 0.42272 0.85838 0.0
C1724 C 0.89923 0.45666 0.87388 0.0
C1725 C 0.90405 0.49565 0.82797 0.0
C1726 C 0.90692 0.48062 0.83886 0.0
C1727 C 0.90161 0.42844 0.86312 0.0
C1728 C 0.90564 0.44755 0.85618 0.0
H1729 H 0.92741 0.54008 0.80312 0.0
H1730 H 0.9329 0.51481 0.81809 0.0
H1731 H 0.8939 0.47919 0.87875 0.0
H1732 H 0.86557 0.38753 0.88628 0.0
H1733 H 0.87343 0.41929 0.8769 0.0
C1734 C 0.59352 0.50505 0.8526 0.0
C1735 C 0.60323 0.49999 0.87146 0.0
C1736 C 0.57547 0.49201 0.8442 0.0
C1737 C 0.53393 0.44845 0.8629 0.0
H1738 H 0.52883 0.43619 0.78381 0.0
C1739 C 0.467 0.38765 0.81476 0.0
C1740 C 0.47075 0.37428 0.80337 0.0
C1741 C 0.48159 0.40551 0.82099 0.0
C1742 C 0.52998 0.43969 0.80584 0.0
H1743 H 0.60139 0.47772 0.89745 0.0
H1744 H 0.56964 0.45515 0.88345 0.0
H1745 H 0.55722 0.46341 0.80098 0.0
H1746 H 0.49241 0.36929 0.78799 0.0
H1747 H 0.51779 0.40065 0.79793 0.0
H1748 H 0.50689 0.42446 0.86787 0.0
C1749 C 0.57608 0.46911 0.87494 0.0
C1750 C 0.54613 0.45524 0.81563 0.0
C1751 C 0.59425 0.48197 0.88281 0.0
C1752 C 0.48916 0.37933 0.79684 0.0
C1753 C 0.50365 0.39727 0.80239 0.0
C1754 C 0.51762 0.43314 0.85303 0.0
C1755 C 0.56669 0.47388 0.85512 0.0
C1756 C 0.54845 0.45942 0.84434 0.0
C1757 C 0.50004 0.41037 0.81515 0.0
C1758 C 0.51575 0.42833 0.82456 0.0
H1759 H 0.60016 0.51882 0.8434 0.0
H1760 H 0.56847 0.49596 0.82885 0.0
H1761 H 0.53546 0.45143 0.88514 0.0
H1762 H 0.45291 0.38403 0.82011 0.0
H1763 H 0.47852 0.41542 0.83087 0.0
C1764 C 0.5843 0.7209 0.63568 0.0
C1765 C 0.56636 0.70527 0.63743 0.0
C1766 C 0.5874 0.73853 0.64344 0.0
C1767 C 0.56915 0.75958 0.69054 0.0
H1768 H 0.58594 0.80133 0.63963 0.0
C1769 C 0.54636 0.81301 0.70274 0.0
C1770 C 0.55889 0.83197 0.69805 0.0
C1771 C 0.55146 0.79972 0.69731 0.0
C1772 C 0.58166 0.78996 0.6543 0.0
H1773 H 0.53757 0.6959 0.64785 0.0
H1774 H 0.54307 0.72639 0.66174 0.0
H1775 H 0.58748 0.77371 0.62531 0.0
H1776 H 0.58674 0.85184 0.68399 0.0
H1777 H 0.59565 0.8283 0.67414 0.0
H1778 H 0.56272 0.77531 0.71918 0.0
C1779 C 0.5547 0.72506 0.65444 0.0
C1780 C 0.58251 0.7742 0.64609 0.0
C1781 C 0.55157 0.70763 0.64636 0.0
C1782 C 0.57678 0.83733 0.6879 0.0
C1783 C 0.58186 0.82389 0.68216 0.0
C1784 C 0.56841 0.77528 0.69879 0.0
C1785 C 0.57265 0.7406 0.65347 0.0
C1786 C 0.57555 0.75863 0.66377 0.0
C1787 C 0.56923 0.80495 0.68693 0.0
C1788 C 0.57388 0.7903 0.68031 0.0
H1789 H 0.59594 0.71947 0.62878 0.0
H1790 H 0.60135 0.75039 0.64245 0.0
H1791 H 0.56393 0.7478 0.70465 0.0
H1792 H 0.53248 0.80834 0.71062 0.0
H1793 H 0.54128 0.78521 0.70071 0.0
C1794 C 0.18565 0.7327 0.71036 0.0
C1795 C 0.16676 0.72677 0.70598 0.0
C1796 C 0.1993 0.75089 0.70432 0.0
C1797 C 0.20905 0.79073 0.66015 0.0
H1798 H 0.25327 0.81456 0.70651 0.0
C1799 C 0.27818 0.86189 0.63794 0.0
C1800 C 0.29368 0.8593 0.63792 0.0
C1801 C 0.2607 0.84744 0.64648 0.0
C1802 C 0.24093 0.80815 0.69351 0.0
H1803 H 0.14743 0.73552 0.69216 0.0
H1804 H 0.17151 0.76756 0.68157 0.0
H1805 H 0.22595 0.78642 0.72313 0.0
H1806 H 0.30286 0.83938 0.64566 0.0
H1807 H 0.27268 0.81455 0.66083 0.0
H1808 H 0.22448 0.81247 0.63025 0.0
C1809 C 0.17562 0.75796 0.68963 0.0
C1810 C 0.22533 0.79202 0.70293 0.0
C1811 C 0.16185 0.73966 0.69586 0.0
C1812 C 0.29126 0.8419 0.64559 0.0
C1813 C 0.274 0.82767 0.6544 0.0
C1814 C 0.2247 0.80706 0.6508 0.0
C1815 C 0.19451 0.76372 0.69371 0.0
C1816 C 0.20948 0.78269 0.6859 0.0
C1817 C 0.25867 0.8304 0.65544 0.0
C1818 C 0.24097 0.81546 0.66701 0.0
H1819 H 0.18999 0.72321 0.71813 0.0
H1820 H 0.21372 0.75473 0.70723 0.0
H1821 H 0.19707 0.78383 0.64652 0.0
H1822 H 0.27964 0.87516 0.63207 0.0
H1823 H 0.24899 0.84976 0.64705 0.0
C1824 C 0.26419 0.44854 0.71722 0.0
C1825 C 0.27251 0.43897 0.70546 0.0
C1826 C 0.24619 0.44403 0.70955 0.0
C1827 C 0.21613 0.42939 0.65029 0.0
H1828 H 0.177 0.42105 0.70267 0.0
C1829 C 0.15872 0.44789 0.63094 0.0
C1830 C 0.14035 0.43418 0.63696 0.0
C1831 C 0.17343 0.44488 0.63709 0.0
C1832 C 0.18772 0.42313 0.68781 0.0
H1833 H 0.26842 0.41694 0.67689 0.0
H1834 H 0.23706 0.4095 0.66273 0.0
H1835 H 0.20536 0.42209 0.71974 0.0
H1836 H 0.12284 0.40646 0.65358 0.0
H1837 H 0.1488 0.40146 0.6653 0.0
H1838 H 0.199 0.4316 0.61863 0.0
C1839 C 0.24443 0.42025 0.67823 0.0
C1840 C 0.20391 0.4238 0.69756 0.0
C1841 C 0.26229 0.42446 0.68642 0.0
C1842 C 0.13689 0.4172 0.6486 0.0
C1843 C 0.15168 0.41437 0.6554 0.0
C1844 C 0.20011 0.42913 0.64063 0.0
C1845 C 0.23634 0.43015 0.68951 0.0
C1846 C 0.21834 0.42718 0.67893 0.0
C1847 C 0.17007 0.42828 0.64993 0.0
C1848 C 0.1859 0.42624 0.65938 0.0
H1849 H 0.27173 0.45975 0.73199 0.0
H1850 H 0.24026 0.45193 0.71836 0.0
H1851 H 0.22716 0.43219 0.63559 0.0
H1852 H 0.16175 0.46108 0.62192 0.0
H1853 H 0.18752 0.45585 0.63288 0.0
C1854 C 0.38713 0.91675 0.19964 0.0
C1855 C 0.37221 0.89862 0.20378 0.0
C1856 C 0.40529 0.91991 0.19667 0.0
C1857 C 0.43413 0.8983 0.21013 0.0
H1858 H 0.4607 0.92307 0.14233 0.0
C1859 C 0.48174 0.8781 0.15495 0.0
C1860 C 0.49915 0.89188 0.14489 0.0
C1861 C 0.46904 0.88281 0.16553 0.0
C1862 C 0.45366 0.91648 0.16166 0.0
H1863 H 0.36463 0.86973 0.20903 0.0
H1864 H 0.39604 0.87521 0.20424 0.0
H1865 H 0.43308 0.92461 0.15611 0.0
H1866 H 0.51672 0.92153 0.13781 0.0
H1867 H 0.49409 0.92974 0.15605 0.0
H1868 H 0.45406 0.88937 0.215 0.0
C1869 C 0.39386 0.88702 0.2033 0.0
C1870 C 0.43788 0.91737 0.16956 0.0
C1871 C 0.37582 0.88386 0.20586 0.0
C1872 C 0.50344 0.91057 0.14542 0.0
C1873 C 0.49053 0.91529 0.15581 0.0
C1874 C 0.44981 0.8974 0.20225 0.0
C1875 C 0.40877 0.90502 0.19834 0.0
C1876 C 0.42754 0.90763 0.19325 0.0
C1877 C 0.47329 0.90142 0.16625 0.0
C1878 C 0.45927 0.90582 0.17734 0.0
H1879 H 0.38471 0.92837 0.19786 0.0
H1880 H 0.41655 0.93392 0.19287 0.0
H1881 H 0.42663 0.89095 0.22877 0.0
H1882 H 0.47788 0.86356 0.15493 0.0
H1883 H 0.45572 0.87179 0.17292 0.0
C1884 C 0.08833 0.59425 0.15197 0.0
C1885 C 0.10311 0.6042 0.13323 0.0
C1886 C 0.08369 0.57631 0.1605 0.0
C1887 C 0.08679 0.53532 0.14203 0.0
H1888 H 0.09298 0.52994 0.22138 0.0
C1889 C 0.08052 0.46832 0.19017 0.0
C1890 C 0.09744 0.47209 0.20238 0.0
C1891 C 0.07725 0.48289 0.18374 0.0
C1892 C 0.09092 0.53117 0.19926 0.0
H1893 H 0.12396 0.60288 0.10764 0.0
H1894 H 0.11543 0.57132 0.12186 0.0
H1895 H 0.09402 0.55826 0.20407 0.0
H1896 H 0.12368 0.49373 0.21902 0.0
H1897 H 0.11766 0.51907 0.20873 0.0
H1898 H 0.08412 0.50842 0.13712 0.0
C1899 C 0.10763 0.57749 0.13018 0.0
C1900 C 0.09145 0.54728 0.18939 0.0
C1901 C 0.11256 0.59556 0.12218 0.0
C1902 C 0.11054 0.49047 0.20954 0.0
C1903 C 0.10707 0.50494 0.20378 0.0
C1904 C 0.08586 0.51904 0.15196 0.0
C1905 C 0.09342 0.56787 0.14984 0.0
C1906 C 0.0899 0.54969 0.16061 0.0
C1907 C 0.09063 0.50134 0.19018 0.0
C1908 C 0.08843 0.51706 0.18055 0.0
H1909 H 0.08088 0.60063 0.16095 0.0
H1910 H 0.07269 0.56913 0.17572 0.0
H1911 H 0.08558 0.5369 0.11974 0.0
H1912 H 0.07026 0.45426 0.1843 0.0
H1913 H 0.06447 0.47982 0.17322 0.0
C1914 C 0.53136 0.61293 0.1859 0.0
C1915 C 0.52774 0.62643 0.19715 0.0
C1916 C 0.51667 0.59512 0.17964 0.0
C1917 C 0.46826 0.56127 0.19505 0.0
H1918 H 0.46265 0.5487 0.11606 0.0
C1919 C 0.40479 0.49523 0.14968 0.0
C1920 C 0.39498 0.5 0.13055 0.0
C1921 C 0.42284 0.50845 0.15785 0.0
C1922 C 0.46421 0.55191 0.13822 0.0
H1923 H 0.50618 0.63172 0.21211 0.0
H1924 H 0.48064 0.60045 0.2021 0.0
H1925 H 0.49123 0.57588 0.13283 0.0
H1926 H 0.39663 0.52189 0.10385 0.0
H1927 H 0.42838 0.54475 0.11745 0.0
H1928 H 0.44106 0.53756 0.20034 0.0
C1929 C 0.49475 0.60369 0.19779 0.0
C1930 C 0.48053 0.56735 0.1478 0.0
C1931 C 0.50935 0.62158 0.20338 0.0
C1932 C 0.40386 0.51787 0.1187 0.0
C1933 C 0.42202 0.5309 0.12635 0.0
C1934 C 0.45211 0.5456 0.18556 0.0
C1935 C 0.49824 0.59045 0.18529 0.0
C1936 C 0.48246 0.57244 0.17616 0.0
C1937 C 0.43151 0.52644 0.14644 0.0
C1938 C 0.44974 0.54111 0.15695 0.0
H1939 H 0.54543 0.61638 0.18079 0.0
H1940 H 0.51965 0.58509 0.16996 0.0
H1941 H 0.46946 0.56498 0.217 0.0
H1942 H 0.39823 0.48158 0.15926 0.0
H1943 H 0.42992 0.50474 0.17341 0.0
C1944 C 0.1191 0.62777 0.68727 0.0
C1945 C 0.10358 0.6293 0.69484 0.0
C1946 C 0.11697 0.61078 0.67881 0.0
C1947 C 0.08879 0.56087 0.68311 0.0
H1948 H 0.11381 0.56253 0.61367 0.0
C1949 C 0.09314 0.49755 0.63964 0.0
C1950 C 0.11103 0.50191 0.63072 0.0
C1951 C 0.08916 0.51171 0.64572 0.0
C1952 C 0.10677 0.56181 0.63311 0.0
H1953 H 0.0737 0.61401 0.7007 0.0
H1954 H 0.07001 0.58389 0.68628 0.0
H1955 H 0.11242 0.5898 0.62885 0.0
H1956 H 0.13865 0.52463 0.6209 0.0
H1957 H 0.13178 0.54907 0.63159 0.0
H1958 H 0.08389 0.53309 0.68796 0.0
C1959 C 0.08378 0.59605 0.68668 0.0
C1960 C 0.10593 0.5774 0.64173 0.0
C1961 C 0.08589 0.61324 0.69488 0.0
C1962 C 0.12472 0.5207 0.62767 0.0
C1963 C 0.12073 0.53476 0.6336 0.0
C1964 C 0.08975 0.54522 0.67455 0.0
C1965 C 0.09929 0.59483 0.67796 0.0
C1966 C 0.09744 0.57728 0.66719 0.0
C1967 C 0.10295 0.53048 0.64276 0.0
C1968 C 0.09929 0.54578 0.64989 0.0
H1969 H 0.13294 0.63984 0.68715 0.0
H1970 H 0.12918 0.61014 0.67265 0.0
H1971 H 0.08218 0.56048 0.70284 0.0
H1972 H 0.08227 0.48321 0.64232 0.0
H1973 H 0.07531 0.50798 0.65264 0.0
C1974 C 0.38499 0.47327 0.68533 0.0
C1975 C 0.37075 0.47524 0.69771 0.0
C1976 C 0.40183 0.48901 0.67793 0.0
C1977 C 0.42044 0.5391 0.66276 0.0
H1978 H 0.46795 0.5409 0.66072 0.0
C1979 C 0.4829 0.6012 0.61253 0.0
C1980 C 0.50015 0.60831 0.62595 0.0
C1981 C 0.46811 0.58378 0.6198 0.0
C1982 C 0.45482 0.5407 0.66137 0.0
H1983 H 0.36333 0.49498 0.71409 0.0
H1984 H 0.39288 0.52231 0.70271 0.0
H1985 H 0.44075 0.51343 0.67944 0.0
H1986 H 0.51577 0.60254 0.6567 0.0
H1987 H 0.48969 0.57238 0.6704 0.0
H1988 H 0.43444 0.56656 0.64612 0.0
C1989 C 0.39091 0.50876 0.69738 0.0
C1990 C 0.43915 0.52483 0.67182 0.0
C1991 C 0.374 0.49309 0.70418 0.0
C1992 C 0.5026 0.59732 0.64595 0.0
C1993 C 0.48764 0.58 0.65371 0.0
C1994 C 0.43606 0.55498 0.65275 0.0
C1995 C 0.40481 0.50699 0.68325 0.0
C1996 C 0.42174 0.52385 0.67268 0.0
C1997 C 0.47005 0.57324 0.64125 0.0
C1998 C 0.45347 0.556 0.65171 0.0
H1999 H 0.38277 0.45962 0.68005 0.0
H2000 H 0.41212 0.48706 0.66695 0.0
H2001 H 0.40726 0.5388 0.66244 0.0
H2002 H 0.48072 0.60929 0.59673 0.0
H2003 H 0.45501 0.57881 0.60901 0.0
C2004 C 0.40388 0.9072 0.64107 0.0
C2005 C 0.38949 0.88878 0.63664 0.0
C2006 C 0.42124 0.91081 0.65113 0.0
C2007 C 0.44222 0.88855 0.6918 0.0
H2008 H 0.48855 0.92182 0.65423 0.0
C2009 C 0.50558 0.8795 0.69962 0.0
C2010 C 0.52349 0.89512 0.7008 0.0
C2011 C 0.4901 0.88158 0.69577 0.0
C2012 C 0.47579 0.91278 0.66533 0.0
H2013 H 0.38239 0.8598 0.63871 0.0
H2014 H 0.41236 0.86614 0.65621 0.0
H2015 H 0.45969 0.92042 0.63903 0.0
H2016 H 0.53925 0.92524 0.69942 0.0
H2017 H 0.51196 0.9289 0.69252 0.0
H2018 H 0.45803 0.88051 0.71761 0.0
C2019 C 0.41019 0.87776 0.65219 0.0
C2020 C 0.45929 0.91197 0.65658 0.0
C2021 C 0.39302 0.87416 0.64195 0.0
C2022 C 0.52559 0.91295 0.69865 0.0
C2023 C 0.51001 0.91505 0.69455 0.0
C2024 C 0.45864 0.88942 0.70059 0.0
C2025 C 0.42439 0.89606 0.65728 0.0
C2026 C 0.44228 0.89935 0.66912 0.0
C2027 C 0.49211 0.89934 0.6929 0.0
C2028 C 0.47549 0.90104 0.68681 0.0
H2029 H 0.40165 0.91879 0.63718 0.0
H2030 H 0.43201 0.92506 0.65481 0.0
H2031 H 0.42934 0.87898 0.70221 0.0
H2032 H 0.50349 0.86557 0.70116 0.0
H2033 H 0.47657 0.86918 0.69414 0.0
C2034 C 0.18588 0.46237 0.19379 0.0
C2035 C 0.16793 0.44732 0.19877 0.0
C2036 C 0.19997 0.4594 0.18395 0.0
C2037 C 0.21575 0.42558 0.17989 0.0
H2038 H 0.24695 0.45798 0.12044 0.0
C2039 C 0.27992 0.42295 0.1371 0.0
C2040 C 0.29604 0.44046 0.13461 0.0
C2041 C 0.26262 0.42158 0.14175 0.0
C2042 C 0.23841 0.44885 0.1371 0.0
H2043 H 0.15095 0.41721 0.19793 0.0
H2044 H 0.17584 0.41205 0.18096 0.0
H2045 H 0.21983 0.45964 0.13561 0.0
H2046 H 0.30665 0.47022 0.13435 0.0
H2047 H 0.27673 0.46787 0.14251 0.0
H2048 H 0.23475 0.41522 0.18197 0.0
C2049 C 0.17882 0.42615 0.18463 0.0
C2050 C 0.22288 0.4498 0.14577 0.0
C2051 C 0.16459 0.42913 0.19431 0.0
C2052 C 0.29449 0.45651 0.13613 0.0
C2053 C 0.27728 0.45516 0.14063 0.0
C2054 C 0.2314 0.42467 0.17127 0.0
C2055 C 0.19657 0.4413 0.17896 0.0
C2056 C 0.21167 0.43854 0.16775 0.0
C2057 C 0.26116 0.43771 0.14376 0.0
C2058 C 0.24317 0.43668 0.15029 0.0
H2059 H 0.18905 0.47657 0.19704 0.0
H2060 H 0.21361 0.47133 0.18028 0.0
H2061 H 0.20737 0.41676 0.19693 0.0
H2062 H 0.28072 0.41034 0.13603 0.0
H2063 H 0.25042 0.40794 0.14388 0.0
C2064 C 0.5789 0.85901 0.13605 0.0
C2065 C 0.56115 0.85723 0.1359 0.0
C2066 C 0.58109 0.84394 0.14399 0.0
C2067 C 0.55866 0.80285 0.18838 0.0
H2068 H 0.58234 0.78153 0.14377 0.0
C2069 C 0.54124 0.72782 0.20317 0.0
C2070 C 0.55527 0.72312 0.20099 0.0
C2071 C 0.54494 0.74575 0.197 0.0
C2072 C 0.57601 0.78755 0.15674 0.0
H2073 H 0.53174 0.83806 0.14255 0.0
H2074 H 0.53561 0.81209 0.15648 0.0
H2075 H 0.58365 0.81037 0.12839 0.0
H2076 H 0.58433 0.73378 0.19072 0.0
H2077 H 0.59079 0.76531 0.17996 0.0
H2078 H 0.55073 0.78011 0.21649 0.0
C2079 C 0.54783 0.82509 0.15079 0.0
C2080 C 0.57674 0.804 0.14789 0.0
C2081 C 0.54563 0.83997 0.14267 0.0
C2082 C 0.5732 0.73693 0.19271 0.0
C2083 C 0.57689 0.75496 0.18638 0.0
C2084 C 0.55804 0.78658 0.19728 0.0
C2085 C 0.56558 0.82702 0.15216 0.0
C2086 C 0.56751 0.81141 0.16319 0.0
C2087 C 0.56277 0.75953 0.18846 0.0
C2088 C 0.56613 0.77836 0.18109 0.0
H2089 H 0.5911 0.87216 0.13089 0.0
H2090 H 0.59491 0.8457 0.14478 0.0
H2091 H 0.55174 0.8085 0.20083 0.0
H2092 H 0.52727 0.71759 0.20944 0.0
H2093 H 0.53364 0.74869 0.19833 0.0
C2094 C 0.13888 0.71893 0.13662 0.0
C2095 C 0.14068 0.70306 0.13368 0.0
C2096 C 0.15468 0.7365 0.14017 0.0
C2097 C 0.20578 0.76195 0.13082 0.0
H2098 H 0.2066 0.792 0.19356 0.0
C2099 C 0.27324 0.81312 0.18531 0.0
C2100 C 0.27633 0.83083 0.19277 0.0
C2101 C 0.25601 0.79952 0.17525 0.0
C2102 C 0.20649 0.78394 0.17567 0.0
H2103 H 0.16036 0.69316 0.13135 0.0
H2104 H 0.18773 0.7236 0.13738 0.0
H2105 H 0.17735 0.7645 0.17993 0.0
H2106 H 0.26346 0.84797 0.19579 0.0
H2107 H 0.23305 0.8239 0.17841 0.0
H2108 H 0.23497 0.78093 0.12713 0.0
C2109 C 0.17422 0.72261 0.13682 0.0
C2110 C 0.18976 0.76822 0.16783 0.0
C2111 C 0.15851 0.70512 0.13355 0.0
C2112 C 0.26157 0.83449 0.19025 0.0
C2113 C 0.24416 0.82073 0.18035 0.0
C2114 C 0.22245 0.77759 0.13865 0.0
C2115 C 0.17251 0.73848 0.14045 0.0
C2116 C 0.18938 0.75673 0.14589 0.0
C2117 C 0.24131 0.80318 0.17246 0.0
C2118 C 0.2231 0.7884 0.16171 0.0
H2119 H 0.12529 0.71773 0.13683 0.0
H2120 H 0.15295 0.74851 0.14279 0.0
H2121 H 0.20585 0.7536 0.11345 0.0
H2122 H 0.28421 0.80972 0.18695 0.0
H2123 H 0.25413 0.78602 0.16986 0.0
C2124 C 0.23319 0.22598 0.14538 0.0
C2125 C 0.21542 0.21898 0.13349 0.0
C2126 C 0.23559 0.22792 0.17452 0.0
C2127 C 0.23676 0.23683 0.23793 0.0
H2128 H 0.19876 0.19402 0.27798 0.0
C2129 C 0.22642 0.23242 0.35942 0.0
C2130 C 0.22059 0.215 0.37189 0.0
C2131 C 0.22851 0.23455 0.33027 0.0
C2132 C 0.20961 0.20602 0.26717 0.0
H2133 H 0.18654 0.20994 0.14281 0.0
H2134 H 0.19078 0.21347 0.19315 0.0
H2135 H 0.19706 0.19535 0.22742 0.0
H2136 H 0.21391 0.18661 0.36371 0.0
H2137 H 0.21779 0.19039 0.31331 0.0
H2138 H 0.24932 0.24737 0.2781 0.0
C2139 C 0.20278 0.21703 0.18013 0.0
C2140 C 0.20849 0.20689 0.23816 0.0
C2141 C 0.20038 0.21506 0.15121 0.0
C2142 C 0.21808 0.20013 0.3548 0.0
C2143 C 0.22025 0.20228 0.32585 0.0
C2144 C 0.23783 0.236 0.26718 0.0
C2145 C 0.22027 0.2229 0.19222 0.0
C2146 C 0.22196 0.22232 0.22316 0.0
C2147 C 0.22487 0.21931 0.31313 0.0
C2148 C 0.22426 0.22052 0.28209 0.0
H2149 H 0.24508 0.22917 0.13233 0.0
H2150 H 0.24924 0.23248 0.18323 0.0
H2151 H 0.24733 0.24891 0.22692 0.0
H2152 H 0.2285 0.24416 0.37199 0.0
H2153 H 0.23206 0.24785 0.3211 0.0
C2154 C 0.77457 0.00935 0.14522 0.0
C2155 C 0.78087 0.99828 0.13232 0.0
C2156 C 0.77198 0.00863 0.17433 0.0
C2157 C 0.79024 0.99776 0.23705 0.0
H2158 H 0.75175 0.00157 0.27735 0.0
C2159 C 0.76533 0.99165 0.35866 0.0
C2160 C 0.78297 0.00247 0.37092 0.0
C2161 C 0.76317 0.99154 0.32949 0.0
C2162 C 0.76251 0.00041 0.26632 0.0
H2163 H 0.7878 0.97665 0.13948 0.0
H2164 H 0.78301 0.97519 0.18977 0.0
H2165 H 0.75044 0.99922 0.226 0.0
H2166 H 0.81184 0.02273 0.3623 0.0
H2167 H 0.80801 0.02264 0.31195 0.0
H2168 H 0.80231 0.99882 0.27692 0.0
C2169 C 0.78061 0.98483 0.17768 0.0
C2170 C 0.76185 0.9992 0.23698 0.0
C2171 C 0.7833 0.98564 0.14881 0.0
C2172 C 0.79811 0.01395 0.35359 0.0
C2173 C 0.79594 0.01387 0.32466 0.0
C2174 C 0.79095 0.99905 0.26614 0.0
C2175 C 0.77556 0.99676 0.19095 0.0
C2176 C 0.77571 0.99782 0.22205 0.0
C2177 C 0.7786 0.00227 0.31216 0.0
C2178 C 0.7772 0.00052 0.28116 0.0
H2179 H 0.77253 0.0192 0.13307 0.0
H2180 H 0.76811 0.01801 0.18394 0.0
H2181 H 0.8013 0.99699 0.22626 0.0
H2182 H 0.75338 0.98268 0.37142 0.0
H2183 H 0.74963 0.98244 0.32044 0.0
C2184 C 0.98453 0.78232 0.35166 0.0
C2185 C 0.99678 0.77962 0.36871 0.0
C2186 C 0.98442 0.78011 0.32273 0.0
C2187 C 0.99883 0.79067 0.26412 0.0
H2188 H 0.00176 0.7518 0.22345 0.0
C2189 C 0.01369 0.79826 0.14707 0.0
C2190 C 0.00187 0.78304 0.13011 0.0
C2191 C 0.01418 0.7962 0.17597 0.0
C2192 C 0.00089 0.7627 0.23457 0.0
H2193 H 0.0177 0.77129 0.3688 0.0
H2194 H 0.01764 0.76759 0.31784 0.0
H2195 H 0.99911 0.75022 0.27476 0.0
H2196 H 0.9821 0.75344 0.13016 0.0
H2197 H 0.98278 0.7499 0.18102 0.0
H2198 H 0.00038 0.80311 0.22441 0.0
C2199 C 0.00807 0.77137 0.32708 0.0
C2200 C -0.00049 0.76186 0.2639 0.0
C2201 C 0.00813 0.77352 0.35624 0.0
C2202 C 0.99132 0.76545 0.14264 0.0
C2203 C 0.99174 0.76341 0.17176 0.0
C2204 C 0.00031 0.79155 0.23505 0.0
C2205 C 0.99663 0.77524 0.30997 0.0
C2206 C 0.99832 0.7758 0.27894 0.0
C2207 C 0.00277 0.77891 0.18879 0.0
C2208 C 0.00139 0.77763 0.21986 0.0
H2209 H 0.97534 0.7867 0.36058 0.0
H2210 H 0.9751 0.78275 0.31021 0.0
H2211 H 0.99824 0.80179 0.27505 0.0
H2212 H 0.02227 0.81195 0.13811 0.0
H2213 H 0.02318 0.80833 0.18842 0.0
C2214 C 0.78436 0.80177 0.85167 0.0
C2215 C 0.78069 0.78646 0.86841 0.0
C2216 C 0.78228 0.7999 0.82269 0.0
C2217 C 0.76521 0.76566 0.76348 0.0
H2218 H 0.80322 0.8085 0.72367 0.0
C2219 C 0.76868 0.77219 0.64136 0.0
C2220 C 0.78641 0.78278 0.62943 0.0
C2221 C 0.7666 0.77079 0.67059 0.0
C2222 C 0.79264 0.79625 0.73432 0.0
H2223 H 0.77147 0.75707 0.86851 0.0
H2224 H 0.76868 0.75384 0.81742 0.0
H2225 H 0.80175 0.80942 0.77392 0.0
H2226 H 0.81588 0.79888 0.63825 0.0
H2227 H 0.81245 0.79563 0.68869 0.0
H2228 H 0.75683 0.75222 0.72346 0.0
C2229 C 0.77261 0.76722 0.82664 0.0
C2230 C 0.79153 0.79693 0.76334 0.0
C2231 C 0.77426 0.76903 0.85587 0.0
C2232 C 0.80202 0.79093 0.64698 0.0
C2233 C 0.8 0.78918 0.67595 0.0
C2234 C 0.7665 0.76488 0.73425 0.0
C2235 C 0.77709 0.78278 0.8096 0.0
C2236 C 0.77777 0.78172 0.77843 0.0
C2237 C 0.78225 0.77969 0.68827 0.0
C2238 C 0.78034 0.78017 0.71931 0.0
H2239 H 0.78917 0.81531 0.86103 0.0
H2240 H 0.78522 0.81206 0.81051 0.0
H2241 H 0.75433 0.75371 0.7743 0.0
H2242 H 0.75644 0.76579 0.62817 0.0
H2243 H 0.75271 0.7634 0.67927 0.0
C2244 C 0.23467 0.00656 0.64428 0.0
C2245 C 0.2169 0.9963 0.63219 0.0
C2246 C 0.23691 0.0068 0.67343 0.0
C2247 C 0.23754 0.99859 0.73675 0.0
H2248 H 0.20025 0.00462 0.77671 0.0
C2249 C 0.22671 0.99239 0.85818 0.0
C2250 C 0.22121 0.00422 0.87065 0.0
C2251 C 0.22896 0.99246 0.82905 0.0
C2252 C 0.2109 0.00312 0.76593 0.0
H2253 H 0.18779 0.97714 0.64118 0.0
H2254 H 0.19174 0.97746 0.69156 0.0
H2255 H 0.19864 0.00182 0.72613 0.0
H2256 H 0.21535 0.02651 0.8626 0.0
H2257 H 0.21954 0.02682 0.81224 0.0
H2258 H 0.24982 5e-05 0.77698 0.0
C2259 C 0.20389 0.98568 0.67868 0.0
C2260 C 0.20983 0.00126 0.7369 0.0
C2261 C 0.20165 0.98546 0.64973 0.0
C2262 C 0.21925 0.01696 0.85365 0.0
C2263 C 0.2216 0.0171 0.82473 0.0
C2264 C 0.23856 0.00036 0.76603 0.0
C2265 C 0.22142 0.99679 0.69096 0.0
C2266 C 0.22304 0.99888 0.72193 0.0
C2267 C 0.22581 0.00442 0.81196 0.0
C2268 C 0.22526 0.00272 0.78091 0.0
H2269 H 0.24673 0.01503 0.63138 0.0
H2270 H 0.2506 0.01551 0.68229 0.0
H2271 H 0.2479 0.99674 0.72578 0.0
H2272 H 0.22835 0.98242 0.8707 0.0
H2273 H 0.2322 0.9825 0.81984 0.0
C2274 C 0.99717 0.23193 0.64252 0.0
C2275 C -0.00017 0.21747 0.63251 0.0
C2276 C 0.9968 0.23485 0.67143 0.0
C2277 C 0.98222 0.20953 0.73524 0.0
H2278 H 0.02058 0.25079 0.77745 0.0
C2279 C 0.99295 0.20185 0.85091 0.0
C2280 C 0.99816 0.21675 0.86958 0.0
C2281 C 0.9922 0.20427 0.8222 0.0
C2282 C 0.00953 0.23937 0.76597 0.0
H2283 H 0.00464 0.19508 0.64529 0.0
H2284 H 0.00356 0.19998 0.6952 0.0
H2285 H 0.02137 0.25155 0.72602 0.0
H2286 H 0.0067 0.24603 0.87234 0.0
H2287 H 0.00511 0.25021 0.82175 0.0
H2288 H 0.97037 0.19712 0.77462 0.0
C2289 C 0.0019 0.20909 0.6807 0.0
C2290 C 0.01003 0.23982 0.73659 0.0
C2291 C 0.00255 0.20635 0.65205 0.0
C2292 C 0.00262 0.23424 0.85859 0.0
C2293 C 0.00177 0.23666 0.82961 0.0
C2294 C 0.98158 0.20916 0.76442 0.0
C2295 C 0.9988 0.22318 0.69065 0.0
C2296 C 0.99668 0.22462 0.72111 0.0
C2297 C 0.99644 0.22163 0.81109 0.0
C2298 C 0.99561 0.22372 0.78021 0.0
H2299 H 0.99508 0.24078 0.62808 0.0
H2300 H 0.99436 0.2458 0.67876 0.0
H2301 H 0.97172 0.19771 0.72366 0.0
H2302 H 0.98962 0.18821 0.85838 0.0
H2303 H 0.98854 0.19249 0.80862 0.0
C2304 C 0.90094 0.56026 0.47995 0.0
C2305 C 0.88342 0.55424 0.46775 0.0
C2306 C 0.90321 0.56229 0.5091 0.0
C2307 C 0.90441 0.57129 0.5726 0.0
H2308 H 0.86448 0.52934 0.61155 0.0
C2309 C 0.893 0.56579 0.69406 0.0
C2310 C 0.88644 0.54806 0.70593 0.0
C2311 C 0.89534 0.56831 0.66498 0.0
C2312 C 0.87584 0.54109 0.60104 0.0
H2313 H 0.85499 0.54724 0.47639 0.0
H2314 H 0.85901 0.55095 0.52677 0.0
H2315 H 0.86334 0.53134 0.561 0.0
H2316 H 0.87865 0.51947 0.69671 0.0
H2317 H 0.88287 0.52392 0.64645 0.0
H2318 H 0.9169 0.58089 0.61309 0.0
C2319 C 0.87088 0.55364 0.51401 0.0
C2320 C 0.87506 0.54236 0.57205 0.0
C2321 C 0.8686 0.55156 0.48508 0.0
C2322 C 0.88339 0.53324 0.6883 0.0
C2323 C 0.88577 0.53577 0.65943 0.0
C2324 C 0.90512 0.57008 0.60186 0.0
C2325 C 0.888 0.55836 0.52647 0.0
C2326 C 0.88927 0.55747 0.55744 0.0
C2327 C 0.89117 0.55316 0.64731 0.0
C2328 C 0.89086 0.55488 0.61634 0.0
H2329 H 0.91265 0.56246 0.46717 0.0
H2330 H 0.91658 0.56596 0.51811 0.0
H2331 H 0.91555 0.58311 0.56189 0.0
H2332 H 0.89553 0.57751 0.70704 0.0
H2333 H 0.89951 0.58188 0.65626 0.0
C2334 C 0.43693 0.34058 0.47981 0.0
C2335 C 0.44163 0.32826 0.46689 0.0
C2336 C 0.4346 0.34021 0.50895 0.0
C2337 C 0.45152 0.3276 0.57127 0.0
H2338 H 0.41591 0.33562 0.6125 0.0
C2339 C 0.42969 0.32534 0.6937 0.0
C2340 C 0.44766 0.33575 0.70511 0.0
C2341 C 0.42698 0.32476 0.66461 0.0
C2342 C 0.42586 0.33328 0.6012 0.0
H2343 H 0.44589 0.30485 0.47407 0.0
H2344 H 0.44157 0.30407 0.52444 0.0
H2345 H 0.41366 0.33267 0.56122 0.0
H2346 H 0.47664 0.35474 0.6949 0.0
H2347 H 0.47187 0.35371 0.64472 0.0
H2348 H 0.46377 0.3282 0.61081 0.0
C2349 C 0.44021 0.31435 0.51231 0.0
C2350 C 0.42465 0.33172 0.5719 0.0
C2351 C 0.44264 0.31478 0.4834 0.0
C2352 C 0.46264 0.3463 0.68694 0.0
C2353 C 0.45993 0.3457 0.65808 0.0
C2354 C 0.45279 0.32928 0.6003 0.0
C2355 C 0.43684 0.32748 0.52558 0.0
C2356 C 0.43749 0.32883 0.55665 0.0
C2357 C 0.44219 0.33455 0.64651 0.0
C2358 C 0.4401 0.33227 0.61563 0.0
H2359 H 0.43602 0.3511 0.46765 0.0
H2360 H 0.43202 0.35052 0.51857 0.0
H2361 H 0.4618 0.32565 0.56019 0.0
H2362 H 0.41784 0.3171 0.70709 0.0
H2363 H 0.41314 0.31603 0.65625 0.0
C2364 C 0.67376 0.10391 0.69036 0.0
C2365 C 0.66338 0.11147 0.70187 0.0
C2366 C 0.6741 0.1016 0.66129 0.0
C2367 C 0.66569 0.09212 0.59785 0.0
H2368 H 0.67329 0.13591 0.55745 0.0
C2369 C 0.65962 0.09731 0.47636 0.0
C2370 C 0.67212 0.11449 0.46402 0.0
C2371 C 0.65965 0.09492 0.50545 0.0
C2372 C 0.67134 0.12362 0.56837 0.0
H2373 H 0.64407 0.12111 0.69199 0.0
H2374 H 0.64466 0.11703 0.64177 0.0
H2375 H 0.67021 0.13486 0.60801 0.0
H2376 H 0.69555 0.14198 0.47216 0.0
H2377 H 0.69574 0.13774 0.52245 0.0
H2378 H 0.66684 0.08097 0.55773 0.0
C2379 C 0.65284 0.11326 0.65504 0.0
C2380 C 0.66935 0.12293 0.59736 0.0
C2381 C 0.6525 0.11557 0.68389 0.0
C2382 C 0.68549 0.1287 0.48103 0.0
C2383 C 0.68558 0.12629 0.50989 0.0
C2384 C 0.66754 0.09275 0.56858 0.0
C2385 C 0.66408 0.10682 0.64333 0.0
C2386 C 0.6664 0.10717 0.61246 0.0
C2387 C 0.67224 0.10965 0.52258 0.0
C2388 C 0.67046 0.10858 0.55358 0.0
H2389 H 0.68225 0.10055 0.70362 0.0
H2390 H 0.6829 0.0966 0.65282 0.0
H2391 H 0.6634 0.07979 0.60898 0.0
H2392 H 0.64917 0.08608 0.46381 0.0
H2393 H 0.6492 0.08194 0.51464 0.0
C2394 C 0.45477 0.13703 0.18518 0.0
C2395 C 0.44794 0.12177 0.20339 0.0
C2396 C 0.45303 0.13442 0.15631 0.0
C2397 C 0.43088 0.09952 0.09913 0.0
H2398 H 0.47437 0.13636 0.0591 0.0
C2399 C 0.43515 0.10622 0.9772 0.0
C2400 C 0.4528 0.11359 0.96498 0.0
C2401 C 0.43319 0.1047 0.00644 0.0
C2402 C 0.4622 0.1257 0.06979 0.0
H2403 H 0.43321 0.09173 0.2059 0.0
H2404 H 0.43082 0.08704 0.15492 0.0
H2405 H 0.47315 0.13832 0.10924 0.0
H2406 H 0.48193 0.12371 0.97304 0.0
H2407 H 0.47849 0.12004 0.02352 0.0
H2408 H 0.42035 0.08651 0.05928 0.0
C2409 C 0.43719 0.10107 0.16305 0.0
C2410 C 0.46133 0.12706 0.09873 0.0
C2411 C 0.43859 0.10372 0.1922 0.0
C2412 C 0.46822 0.11825 0.9821 0.0
C2413 C 0.46622 0.1163 0.01106 0.0
C2414 C 0.43185 0.098 0.06996 0.0
C2415 C 0.44487 0.11646 0.14474 0.0
C2416 C 0.44559 0.11419 0.11385 0.0
C2417 C 0.44883 0.11023 0.0238 0.0
C2418 C 0.44755 0.11114 0.0549 0.0
H2419 H 0.46173 0.1511 0.19331 0.0
H2420 H 0.45849 0.1466 0.14303 0.0
H2421 H 0.41851 0.08937 0.11005 0.0
H2422 H 0.42308 0.10258 0.9643 0.0
H2423 H 0.41959 0.10002 0.01541 0.0
C2424 C 0.89406 0.32427 0.19049 0.0
C2425 C 0.88776 0.33555 0.20264 0.0
C2426 C 0.89621 0.32414 0.16135 0.0
C2427 C 0.90536 0.33205 0.09799 0.0
H2428 H 0.86367 0.3302 0.05847 0.0
C2429 C 0.90094 0.3386 0.97654 0.0
C2430 C 0.8833 0.32777 0.96428 0.0
C2431 C 0.90316 0.33853 0.00566 0.0
C2432 C 0.87535 0.33053 0.06913 0.0
H2433 H 0.88038 0.35672 0.194 0.0
H2434 H 0.88436 0.35666 0.14365 0.0
H2435 H 0.8653 0.33305 0.10904 0.0
H2436 H 0.85453 0.30723 0.9728 0.0
H2437 H 0.85846 0.30695 0.02314 0.0
H2438 H 0.91524 0.32935 0.05763 0.0
C2439 C 0.88715 0.34753 0.1564 0.0
C2440 C 0.87642 0.33243 0.09815 0.0
C2441 C 0.88493 0.3476 0.18531 0.0
C2442 C 0.86824 0.31601 0.98154 0.0
C2443 C 0.87048 0.31588 0.01046 0.0
C2444 C 0.90435 0.33025 0.06871 0.0
C2445 C 0.89214 0.33533 0.14396 0.0
C2446 C 0.89144 0.33329 0.11297 0.0
C2447 C 0.8878 0.32759 0.02298 0.0
C2448 C 0.88925 0.32939 0.054 0.0
H2449 H 0.89637 0.31484 0.20328 0.0
H2450 H 0.90009 0.31459 0.15236 0.0
H2451 H 0.91712 0.3327 0.10885 0.0
H2452 H 0.91283 0.3478 0.96384 0.0
H2453 H 0.91668 0.34773 0.01469 0.0
C2454 C 0.67137 0.56531 0.19254 0.0
C2455 C 0.65985 0.54802 0.20538 0.0
C2456 C 0.67097 0.56726 0.1634 0.0
C2457 C 0.65989 0.53813 0.1006 0.0
H2458 H 0.66569 0.58123 0.06018 0.0
C2459 C 0.65571 0.55789 0.97877 0.0
C2460 C 0.66595 0.55034 0.96674 0.0
C2461 C 0.65556 0.56001 0.00792 0.0
C2462 C 0.66398 0.56908 0.07123 0.0
H2463 H 0.63779 0.51969 0.19796 0.0
H2464 H 0.63689 0.52317 0.14758 0.0
H2465 H 0.66279 0.58007 0.11144 0.0
H2466 H 0.68522 0.54053 0.97575 0.0
H2467 H 0.68509 0.54441 0.02608 0.0
H2468 H 0.66093 0.52701 0.06082 0.0
C2469 C 0.64663 0.53509 0.15979 0.0
C2470 C 0.66245 0.56847 0.10054 0.0
C2471 C 0.6471 0.53311 0.18873 0.0
C2472 C 0.6769 0.54607 0.98429 0.0
C2473 C 0.67679 0.54823 0.01321 0.0
C2474 C 0.6615 0.53878 0.07154 0.0
C2475 C 0.65899 0.55197 0.14664 0.0
C2476 C 0.66034 0.55293 0.11553 0.0
C2477 C 0.66567 0.55465 0.02547 0.0
C2478 C 0.66369 0.55428 0.05646 0.0
H2479 H 0.68134 0.57707 0.20479 0.0
H2480 H 0.6807 0.58045 0.15391 0.0
H2481 H 0.65858 0.52607 0.11143 0.0
H2482 H 0.64716 0.56136 0.96584 0.0
H2483 H 0.64685 0.565 0.01676 0.0
C2484 C 0.56152 0.89159 0.02403 0.0
C2485 C 0.54394 0.88494 0.03617 0.0
C2486 C 0.56355 0.89295 0.99481 0.0
C2487 C 0.53442 0.87319 0.93106 0.0
H2488 H 0.57926 0.90806 0.89163 0.0
C2489 C 0.54156 0.86217 0.81529 0.0
C2490 C 0.5497 0.87768 0.79751 0.0
C2491 C 0.54303 0.86438 0.84424 0.0
C2492 C 0.56656 0.89834 0.90229 0.0
H2493 H 0.51504 0.87586 0.02797 0.0
H2494 H 0.51865 0.87934 0.97748 0.0
H2495 H 0.57731 0.91081 0.94233 0.0
H2496 H 0.56641 0.90768 0.79589 0.0
H2497 H 0.56831 0.91174 0.84694 0.0
H2498 H 0.52324 0.86122 0.89137 0.0
C2499 C 0.53078 0.8826 0.98999 0.0
C2500 C 0.56553 0.89977 0.93146 0.0
C2501 C 0.52869 0.88078 0.01897 0.0
C2502 C 0.56 0.89551 0.80924 0.0
C2503 C 0.56112 0.89779 0.83845 0.0
C2504 C 0.53535 0.87195 0.9021 0.0
C2505 C 0.54807 0.88801 0.97736 0.0
C2506 C 0.54942 0.88716 0.94625 0.0
C2507 C 0.55223 0.88223 0.85631 0.0
C2508 C 0.55148 0.8843 0.88726 0.0
H2509 H 0.57345 0.89482 0.03702 0.0
H2510 H 0.57706 0.89707 0.98596 0.0
H2511 H 0.52191 0.86291 0.94152 0.0
H2512 H 0.53385 0.84823 0.80675 0.0
H2513 H 0.53661 0.85202 0.85716 0.0
C2514 C 0.12929 0.67888 0.02031 0.0
C2515 C 0.11416 0.66675 0.03715 0.0
C2516 C 0.12733 0.6793 0.99139 0.0
C2517 C 0.09415 0.66535 0.93237 0.0
H2518 H 0.13421 0.6642 0.89248 0.0
C2519 C 0.11572 0.65111 0.81522 0.0
C2520 C 0.11262 0.66318 0.79836 0.0
C2521 C 0.11325 0.65063 0.84413 0.0
C2522 C 0.12282 0.66436 0.90323 0.0
H2523 H 0.08476 0.64632 0.03687 0.0
H2524 H 0.08137 0.64688 0.9859 0.0
H2525 H 0.13502 0.66591 0.94315 0.0
H2526 H 0.10339 0.68343 0.79862 0.0
H2527 H 0.09927 0.68272 0.84953 0.0
H2528 H 0.08192 0.6636 0.89198 0.0
C2529 C 0.09475 0.65614 0.9953 0.0
C2530 C 0.1234 0.66559 0.93233 0.0
C2531 C 0.09669 0.65579 0.02447 0.0
C2532 C 0.10593 0.674 0.81101 0.0
C2533 C 0.10353 0.67357 0.84015 0.0
C2534 C 0.09361 0.66422 0.90302 0.0
C2535 C 0.11021 0.66751 0.9784 0.0
C2536 C 0.10914 0.66617 0.94731 0.0
C2537 C 0.10773 0.66228 0.85708 0.0
C2538 C 0.10792 0.6636 0.88817 0.0
H2539 H 0.14287 0.68778 0.0294 0.0
H2540 H 0.13941 0.68856 0.97905 0.0
H2541 H 0.08298 0.66583 0.94334 0.0
H2542 H 0.12056 0.64233 0.80617 0.0
H2543 H 0.11617 0.64144 0.85649 0.0
C2544 C 0.34183 0.4407 0.02429 0.0
C2545 C 0.33183 0.44857 0.03614 0.0
C2546 C 0.34167 0.43812 0.99522 0.0
C2547 C 0.33256 0.42819 0.9322 0.0
H2548 H 0.33854 0.47108 0.89095 0.0
C2549 C 0.32474 0.43137 0.81071 0.0
C2550 C 0.33657 0.44854 0.79777 0.0
C2551 C 0.32522 0.42946 0.83986 0.0
C2552 C 0.33704 0.45904 0.90209 0.0
H2553 H 0.31265 0.45846 0.02695 0.0
H2554 H 0.31227 0.45382 0.97675 0.0
H2555 H 0.33641 0.4707 0.94157 0.0
H2556 H 0.35931 0.47657 0.80486 0.0
H2557 H 0.36035 0.47315 0.85523 0.0
H2558 H 0.33333 0.41665 0.89224 0.0
C2559 C 0.32061 0.45008 0.9897 0.0
C2560 C 0.33557 0.45872 0.93114 0.0
C2561 C 0.32081 0.4527 0.01854 0.0
C2562 C 0.34976 0.46327 0.81423 0.0
C2563 C 0.35032 0.46133 0.84314 0.0
C2564 C 0.33393 0.42846 0.90288 0.0
C2565 C 0.33149 0.44334 0.97758 0.0
C2566 C 0.33321 0.44329 0.94659 0.0
C2567 C 0.3376 0.44466 0.85645 0.0
C2568 C 0.33627 0.44396 0.88754 0.0
H2569 H 0.35043 0.43732 0.03726 0.0
H2570 H 0.35021 0.4329 0.98646 0.0
H2571 H 0.33071 0.41609 0.94356 0.0
H2572 H 0.31444 0.41976 0.79857 0.0
H2573 H 0.31523 0.41644 0.84951 0.0
C2574 C 0.12921 0.44839 0.5183 0.0
C2575 C 0.11477 0.44537 0.53678 0.0
C2576 C 0.12575 0.4446 0.48978 0.0
C2577 C 0.09438 0.44256 0.43465 0.0
H2578 H 0.12034 0.4235 0.39035 0.0
C2579 C 0.11232 0.46032 0.3185 0.0
C2580 C 0.11143 0.44665 0.30016 0.0
C2581 C 0.10895 0.45668 0.34708 0.0
C2582 C 0.11274 0.42858 0.40241 0.0
H2583 H 0.0852 0.43539 0.53972 0.0
H2584 H 0.07919 0.42886 0.48964 0.0
H2585 H 0.12148 0.42266 0.44138 0.0
H2586 H 0.10573 0.41821 0.29743 0.0
H2587 H 0.10005 0.41192 0.34766 0.0
H2588 H 0.08607 0.44895 0.39565 0.0
C2589 C 0.09321 0.43424 0.4974 0.0
C2590 C 0.11354 0.42826 0.43164 0.0
C2591 C 0.09664 0.43789 0.52609 0.0
C2592 C 0.10651 0.42903 0.31099 0.0
C2593 C 0.10336 0.42545 0.33975 0.0
C2594 C 0.09368 0.44299 0.40541 0.0
C2595 C 0.10779 0.43778 0.47888 0.0
C2596 C 0.10475 0.43566 0.44809 0.0
C2597 C 0.10476 0.43934 0.35814 0.0
C2598 C 0.10323 0.43642 0.38896 0.0
H2599 H 0.14333 0.45405 0.52577 0.0
H2600 H 0.13734 0.4477 0.47608 0.0
H2601 H 0.08754 0.44847 0.44668 0.0
H2602 H 0.11595 0.47401 0.31085 0.0
H2603 H 0.11035 0.46775 0.36068 0.0
C2604 C 0.5356 0.65251 0.31445 0.0
C2605 C 0.55061 0.66346 0.29657 0.0
C2606 C 0.53815 0.65285 0.34332 0.0
C2607 C 0.54465 0.66869 0.40145 0.0
H2608 H 0.58466 0.66689 0.44052 0.0
C2609 C 0.55502 0.68404 0.51813 0.0
C2610 C 0.55652 0.67091 0.53484 0.0
C2611 C 0.55729 0.68429 0.4892 0.0
C2612 C 0.57341 0.66737 0.42984 0.0
H2613 H 0.58037 0.68253 0.29508 0.0
H2614 H 0.58479 0.68317 0.34591 0.0
H2615 H 0.58243 0.66384 0.38925 0.0
H2616 H 0.56284 0.64854 0.53437 0.0
H2617 H 0.56662 0.64885 0.48343 0.0
H2618 H 0.53541 0.672 0.44157 0.0
C2619 C 0.57105 0.67432 0.33734 0.0
C2620 C 0.57221 0.66576 0.40055 0.0
C2621 C 0.56849 0.67398 0.30825 0.0
C2622 C 0.56155 0.6588 0.52207 0.0
C2623 C 0.56376 0.659 0.49292 0.0
C2624 C 0.54592 0.67043 0.43048 0.0
C2625 C 0.55578 0.66415 0.35519 0.0
C2626 C 0.55769 0.66623 0.38611 0.0
C2627 C 0.56102 0.67136 0.47612 0.0
C2628 C 0.56028 0.66979 0.44508 0.0
H2629 H 0.52168 0.64398 0.30624 0.0
H2630 H 0.52618 0.64454 0.35648 0.0
H2631 H 0.53344 0.66936 0.39096 0.0
H2632 H 0.55149 0.69381 0.52732 0.0
H2633 H 0.55554 0.69428 0.47692 0.0
C2634 C 0.34338 0.87964 0.31659 0.0
C2635 C 0.33219 0.88312 0.2983 0.0
C2636 C 0.34372 0.88315 0.34521 0.0
C2637 C 0.31521 0.88563 0.40121 0.0
H2638 H 0.36095 0.90562 0.44395 0.0
C2639 C 0.31775 0.87018 0.51801 0.0
C2640 C 0.33067 0.88438 0.53553 0.0
C2641 C 0.31742 0.87315 0.4893 0.0
C2642 C 0.34809 0.90027 0.43232 0.0
H2643 H 0.31281 0.89339 0.29587 0.0
H2644 H 0.31327 0.89936 0.34618 0.0
H2645 H 0.36211 0.90565 0.39286 0.0
H2646 H 0.35304 0.91306 0.53667 0.0
H2647 H 0.35264 0.91816 0.48621 0.0
H2648 H 0.30115 0.87975 0.44072 0.0
C2649 C 0.32178 0.89389 0.33816 0.0
C2650 C 0.34873 0.90013 0.40307 0.0
C2651 C 0.32158 0.89055 0.30935 0.0
C2652 C 0.34291 0.90184 0.52375 0.0
C2653 C 0.34274 0.90474 0.49486 0.0
C2654 C 0.31455 0.88562 0.43048 0.0
C2655 C 0.33279 0.89012 0.35641 0.0
C2656 C 0.33228 0.89245 0.3872 0.0
C2657 C 0.33013 0.89033 0.4773 0.0
C2658 C 0.33095 0.89258 0.44636 0.0
H2659 H 0.3518 0.874 0.30886 0.0
H2660 H 0.35216 0.87986 0.35872 0.0
H2661 H 0.30229 0.87952 0.38959 0.0
H2662 H 0.30806 0.8566 0.52642 0.0
H2663 H 0.30767 0.86171 0.47632 0.0
loop_
_geom_bond_atom_site_label_1
_geom_bond_atom_site_label_2
_geom_bond_distance
_geom_bond_site_symmetry_2
_ccdc_geom_bond_type
Co0 O1 2.216 1_554 S
Co0 O2 2.091 . S
Co0 O4 2.004 . S
Co0 O10 2.021 . S
Co0 O12 2.137 . S
Co0 O13 2.244 . S
O1 Co0 2.216 1_556 S
O1 C8 1.247 1_556 S
O2 Co0 2.091 . S
O2 C8 1.261 . S
C3 O12 1.247 . S
C3 O13 1.272 . S
O4 Co0 2.004 . S
O4 C9 1.259 . S
Co5 O6 2.061 . S
Co5 O11 2.052 . S
Co5 O13 2.135 . S
O6 Co5 2.061 . S
O6 C9 1.235 . S
C7 O10 1.238 . S
C7 O11 1.241 . S
C8 O1 1.247 1_554 S
C8 O2 1.261 . S
C9 O4 1.259 . S
C9 O6 1.235 . S
O10 Co0 2.021 . S
O10 C7 1.238 . S
O11 Co5 2.052 . S
O11 C7 1.241 . S
O12 Co0 2.137 . S
O12 C3 1.247 . S
O13 Co0 2.244 . S
O13 C3 1.272 . S
O13 Co5 2.135 . S
Co14 O15 2.216 1_554 S
Co14 O16 2.091 . S
Co14 O18 2.004 . S
Co14 O24 2.021 . S
Co14 O26 2.137 1_545 S
Co14 O27 2.244 1_545 S
O15 Co14 2.216 1_556 S
O15 C22 1.247 1_556 S
O16 Co14 2.091 . S
O16 C22 1.261 . S
C17 O26 1.247 . S
C17 O27 1.272 . S
O18 Co14 2.004 . S
O18 C23 1.259 . S
Co19 O20 2.061 . S
Co19 O25 2.052 . S
Co19 O27 2.135 1_545 S
O20 Co19 2.061 . S
O20 C23 1.235 . S
C21 O24 1.238 . S
C21 O25 1.241 . S
C22 O15 1.247 1_554 S
C22 O16 1.261 . S
C23 O18 1.259 . S
C23 O20 1.235 . S
O24 Co14 2.021 . S
O24 C21 1.238 . S
O25 Co19 2.052 . S
O25 C21 1.241 . S
O26 Co14 2.137 1_565 S
O26 C17 1.247 . S
O27 Co14 2.244 1_565 S
O27 C17 1.272 . S
O27 Co19 2.135 1_565 S
Co28 O29 2.216 1_554 S
Co28 O30 2.091 . S
Co28 O32 2.004 . S
Co28 O38 2.021 . S
Co28 O40 2.137 1_655 S
Co28 O41 2.244 1_655 S
O29 Co28 2.216 1_556 S
O29 C36 1.247 1_556 S
O30 Co28 2.091 . S
O30 C36 1.261 . S
C31 O40 1.247 . S
C31 O41 1.272 . S
O32 Co28 2.004 . S
O32 C37 1.259 . S
Co33 O34 2.061 . S
Co33 O39 2.052 . S
Co33 O41 2.135 1_655 S
O34 Co33 2.061 . S
O34 C37 1.235 . S
C35 O38 1.238 . S
C35 O39 1.241 . S
C36 O29 1.247 1_554 S
C36 O30 1.261 . S
C37 O32 1.259 . S
C37 O34 1.235 . S
O38 Co28 2.021 . S
O38 C35 1.238 . S
O39 Co33 2.052 . S
O39 C35 1.241 . S
O40 Co28 2.137 1_455 S
O40 C31 1.247 . S
O41 Co28 2.244 1_455 S
O41 C31 1.272 . S
O41 Co33 2.135 1_455 S
Co42 O43 2.216 . S
Co42 O44 2.091 . S
Co42 O46 2.004 . S
Co42 O52 2.021 . S
Co42 O54 2.137 . S
Co42 O55 2.244 . S
O43 Co42 2.216 . S
O43 C50 1.247 . S
O44 Co42 2.091 . S
O44 C50 1.261 . S
C45 O54 1.247 . S
C45 O55 1.272 . S
O46 Co42 2.004 . S
O46 C51 1.259 . S
Co47 O48 2.061 . S
Co47 O53 2.052 . S
Co47 O55 2.135 . S
O48 Co47 2.061 . S
O48 C51 1.235 . S
C49 O52 1.238 . S
C49 O53 1.241 . S
C50 O43 1.247 . S
C50 O44 1.261 . S
C51 O46 1.259 . S
C51 O48 1.235 . S
O52 Co42 2.021 . S
O52 C49 1.238 . S
O53 Co47 2.052 . S
O53 C49 1.241 . S
O54 Co42 2.137 . S
O54 C45 1.247 . S
O55 Co42 2.244 . S
O55 C45 1.272 . S
O55 Co47 2.135 . S
Co56 O57 2.216 . S
Co56 O58 2.091 . S
Co56 O60 2.004 . S
Co56 O66 2.021 . S
Co56 O68 2.137 1_565 S
Co56 O69 2.244 1_565 S
O57 Co56 2.216 . S
O57 C64 1.247 . S
O58 Co56 2.091 . S
O58 C64 1.261 . S
C59 O68 1.247 . S
C59 O69 1.272 . S
O60 Co56 2.004 . S
O60 C65 1.259 . S
Co61 O62 2.061 . S
Co61 O67 2.052 . S
Co61 O69 2.135 1_565 S
O62 Co61 2.061 . S
O62 C65 1.235 . S
C63 O66 1.238 . S
C63 O67 1.241 . S
C64 O57 1.247 . S
C64 O58 1.261 . S
C65 O60 1.259 . S
C65 O62 1.235 . S
O66 Co56 2.021 . S
O66 C63 1.238 . S
O67 Co61 2.052 . S
O67 C63 1.241 . S
O68 Co56 2.137 1_545 S
O68 C59 1.247 . S
O69 Co56 2.244 1_545 S
O69 C59 1.272 . S
O69 Co61 2.135 1_545 S
Co70 O71 2.216 . S
Co70 O72 2.091 . S
Co70 O74 2.004 . S
Co70 O80 2.021 . S
Co70 O82 2.137 1_455 S
Co70 O83 2.244 1_455 S
O71 Co70 2.216 . S
O71 C78 1.247 . S
O72 Co70 2.091 . S
O72 C78 1.261 . S
C73 O82 1.247 . S
C73 O83 1.272 . S
O74 Co70 2.004 . S
O74 C79 1.259 . S
Co75 O76 2.061 . S
Co75 O81 2.052 . S
Co75 O83 2.135 1_455 S
O76 Co75 2.061 . S
O76 C79 1.235 . S
C77 O80 1.238 . S
C77 O81 1.241 . S
C78 O71 1.247 . S
C78 O72 1.261 . S
C79 O74 1.259 . S
C79 O76 1.235 . S
O80 Co70 2.021 . S
O80 C77 1.238 . S
O81 Co75 2.052 . S
O81 C77 1.241 . S
O82 Co70 2.137 1_655 S
O82 C73 1.247 . S
O83 Co70 2.244 1_655 S
O83 C73 1.272 . S
O83 Co75 2.135 1_655 S
Co84 O85 2.216 1_556 S
Co84 O86 2.091 . S
Co84 O88 2.004 . S
Co84 O94 2.021 . S
Co84 O96 2.137 . S
Co84 O97 2.244 . S
O85 Co84 2.216 1_554 S
O85 C92 1.247 1_554 S
O86 Co84 2.091 . S
O86 C92 1.261 . S
C87 O96 1.247 . S
C87 O97 1.272 . S
O88 Co84 2.004 . S
O88 C93 1.259 . S
Co89 O90 2.061 . S
Co89 O95 2.052 . S
Co89 O97 2.135 . S
O90 Co89 2.061 . S
O90 C93 1.235 . S
C91 O94 1.238 . S
C91 O95 1.241 . S
C92 O85 1.247 1_556 S
C92 O86 1.261 . S
C93 O88 1.259 . S
C93 O90 1.235 . S
O94 Co84 2.021 . S
O94 C91 1.238 . S
O95 Co89 2.052 . S
O95 C91 1.241 . S
O96 Co84 2.137 . S
O96 C87 1.247 . S
O97 Co84 2.244 . S
O97 C87 1.272 . S
O97 Co89 2.135 . S
Co98 O99 2.216 1_556 S
Co98 O100 2.091 . S
Co98 O102 2.004 . S
Co98 O108 2.021 . S
Co98 O110 2.137 1_565 S
Co98 O111 2.244 1_565 S
O99 Co98 2.216 1_554 S
O99 C106 1.247 1_554 S
O100 Co98 2.091 . S
O100 C106 1.261 . S
C101 O110 1.247 . S
C101 O111 1.272 . S
O102 Co98 2.004 . S
O102 C107 1.259 . S
Co103 O104 2.061 . S
Co103 O109 2.052 . S
Co103 O111 2.135 1_565 S
O104 Co103 2.061 . S
O104 C107 1.235 . S
C105 O108 1.238 . S
C105 O109 1.241 . S
C106 O99 1.247 1_556 S
C106 O100 1.261 . S
C107 O102 1.259 . S
C107 O104 1.235 . S
O108 Co98 2.021 . S
O108 C105 1.238 . S
O109 Co103 2.052 . S
O109 C105 1.241 . S
O110 Co98 2.137 1_545 S
O110 C101 1.247 . S
O111 Co98 2.244 1_545 S
O111 C101 1.272 . S
O111 Co103 2.135 1_545 S
Co112 O113 2.216 1_556 S
Co112 O114 2.091 . S
Co112 O116 2.004 . S
Co112 O122 2.021 . S
Co112 O124 2.137 1_455 S
Co112 O125 2.244 1_455 S
O113 Co112 2.216 1_554 S
O113 C120 1.247 1_554 S
O114 Co112 2.091 . S
O114 C120 1.261 . S
C115 O124 1.247 . S
C115 O125 1.272 . S
O116 Co112 2.004 . S
O116 C121 1.259 . S
Co117 O118 2.061 . S
Co117 O123 2.052 . S
Co117 O125 2.135 1_455 S
O118 Co117 2.061 . S
O118 C121 1.235 . S
C119 O122 1.238 . S
C119 O123 1.241 . S
C120 O113 1.247 1_556 S
C120 O114 1.261 . S
C121 O116 1.259 . S
C121 O118 1.235 . S
O122 Co112 2.021 . S
O122 C119 1.238 . S
O123 Co117 2.052 . S
O123 C119 1.241 . S
O124 Co112 2.137 1_655 S
O124 C115 1.247 . S
O125 Co112 2.244 1_655 S
O125 C115 1.272 . S
O125 Co117 2.135 1_655 S
Co126 O127 2.216 . S
Co126 O128 2.091 . S
Co126 O130 2.004 . S
Co126 O136 2.021 . S
Co126 O138 2.137 . S
Co126 O139 2.244 . S
O127 Co126 2.216 . S
O127 C134 1.247 . S
O128 Co126 2.091 . S
O128 C134 1.261 . S
C129 O138 1.247 . S
C129 O139 1.272 . S
O130 Co126 2.004 . S
O130 C135 1.259 . S
Co131 O132 2.061 . S
Co131 O137 2.052 . S
Co131 O139 2.135 . S
O132 Co131 2.061 . S
O132 C135 1.235 . S
C133 O136 1.238 . S
C133 O137 1.241 . S
C134 O127 1.247 . S
C134 O128 1.261 . S
C135 O130 1.259 . S
C135 O132 1.235 . S
O136 Co126 2.021 . S
O136 C133 1.238 . S
O137 Co131 2.052 . S
O137 C133 1.241 . S
O138 Co126 2.137 . S
O138 C129 1.247 . S
O139 Co126 2.244 . S
O139 C129 1.272 . S
O139 Co131 2.135 . S
Co140 O141 2.216 . S
Co140 O142 2.091 . S
Co140 O144 2.004 . S
Co140 O150 2.021 . S
Co140 O152 2.137 1_545 S
Co140 O153 2.244 1_545 S
O141 Co140 2.216 . S
O141 C148 1.247 . S
O142 Co140 2.091 . S
O142 C148 1.261 . S
C143 O152 1.247 . S
C143 O153 1.272 . S
O144 Co140 2.004 . S
O144 C149 1.259 . S
Co145 O146 2.061 . S
Co145 O151 2.052 . S
Co145 O153 2.135 1_545 S
O146 Co145 2.061 . S
O146 C149 1.235 . S
C147 O150 1.238 . S
C147 O151 1.241 . S
C148 O141 1.247 . S
C148 O142 1.261 . S
C149 O144 1.259 . S
C149 O146 1.235 . S
O150 Co140 2.021 . S
O150 C147 1.238 . S
O151 Co145 2.052 . S
O151 C147 1.241 . S
O152 Co140 2.137 1_565 S
O152 C143 1.247 . S
O153 Co140 2.244 1_565 S
O153 C143 1.272 . S
O153 Co145 2.135 1_565 S
Co154 O155 2.216 . S
Co154 O156 2.091 . S
Co154 O158 2.004 . S
Co154 O164 2.021 . S
Co154 O166 2.137 1_655 S
Co154 O167 2.244 1_655 S
O155 Co154 2.216 . S
O155 C162 1.247 . S
O156 Co154 2.091 . S
O156 C162 1.261 . S
C157 O166 1.247 . S
C157 O167 1.272 . S
O158 Co154 2.004 . S
O158 C163 1.259 . S
Co159 O160 2.061 . S
Co159 O165 2.052 . S
Co159 O167 2.135 1_655 S
O160 Co159 2.061 . S
O160 C163 1.235 . S
C161 O164 1.238 . S
C161 O165 1.241 . S
C162 O155 1.247 . S
C162 O156 1.261 . S
C163 O158 1.259 . S
C163 O160 1.235 . S
O164 Co154 2.021 . S
O164 C161 1.238 . S
O165 Co159 2.052 . S
O165 C161 1.241 . S
O166 Co154 2.137 1_455 S
O166 C157 1.247 . S
O167 Co154 2.244 1_455 S
O167 C157 1.272 . S
O167 Co159 2.135 1_455 S
Co168 O169 2.216 . S
Co168 O170 2.091 . S
Co168 O172 2.004 . S
Co168 O178 2.021 . S
Co168 O180 2.137 . S
Co168 O181 2.244 . S
O169 Co168 2.216 . S
O169 C176 1.247 . S
O170 Co168 2.091 . S
O170 C176 1.261 . S
C171 O180 1.247 . S
C171 O181 1.272 . S
O172 Co168 2.004 . S
O172 C177 1.259 . S
Co173 O174 2.061 . S
Co173 O179 2.052 . S
Co173 O181 2.135 . S
O174 Co173 2.061 . S
O174 C177 1.235 . S
C175 O178 1.238 . S
C175 O179 1.241 . S
C176 O169 1.247 . S
C176 O170 1.261 . S
C177 O172 1.259 . S
C177 O174 1.235 . S
O178 Co168 2.021 . S
O178 C175 1.238 . S
O179 Co173 2.052 . S
O179 C175 1.241 . S
O180 Co168 2.137 . S
O180 C171 1.247 . S
O181 Co168 2.244 . S
O181 C171 1.272 . S
O181 Co173 2.135 . S
Co182 O183 2.216 . S
Co182 O184 2.091 . S
Co182 O186 2.004 . S
Co182 O192 2.021 . S
Co182 O194 2.137 . S
Co182 O195 2.244 . S
O183 Co182 2.216 . S
O183 C190 1.247 . S
O184 Co182 2.091 . S
O184 C190 1.261 . S
C185 O194 1.247 . S
C185 O195 1.272 . S
O186 Co182 2.004 . S
O186 C191 1.259 . S
Co187 O188 2.061 . S
Co187 O193 2.052 . S
Co187 O195 2.135 . S
O188 Co187 2.061 . S
O188 C191 1.235 . S
C189 O192 1.238 . S
C189 O193 1.241 . S
C190 O183 1.247 . S
C190 O184 1.261 . S
C191 O186 1.259 . S
C191 O188 1.235 . S
O192 Co182 2.021 . S
O192 C189 1.238 . S
O193 Co187 2.052 . S
O193 C189 1.241 . S
O194 Co182 2.137 . S
O194 C185 1.247 . S
O195 Co182 2.244 . S
O195 C185 1.272 . S
O195 Co187 2.135 . S
Co196 O197 2.216 . S
Co196 O198 2.091 . S
Co196 O200 2.004 . S
Co196 O206 2.021 . S
Co196 O208 2.137 . S
Co196 O209 2.244 . S
O197 Co196 2.216 . S
O197 C204 1.247 . S
O198 Co196 2.091 . S
O198 C204 1.261 . S
C199 O208 1.247 . S
C199 O209 1.272 . S
O200 Co196 2.004 . S
O200 C205 1.259 . S
Co201 O202 2.061 . S
Co201 O207 2.052 . S
Co201 O209 2.135 . S
O202 Co201 2.061 . S
O202 C205 1.235 . S
C203 O206 1.238 . S
C203 O207 1.241 . S
C204 O197 1.247 . S
C204 O198 1.261 . S
C205 O200 1.259 . S
C205 O202 1.235 . S
O206 Co196 2.021 . S
O206 C203 1.238 . S
O207 Co201 2.052 . S
O207 C203 1.241 . S
O208 Co196 2.137 . S
O208 C199 1.247 . S
O209 Co196 2.244 . S
O209 C199 1.272 . S
O209 Co201 2.135 . S
Co210 O211 2.216 . S
Co210 O212 2.091 . S
Co210 O214 2.004 . S
Co210 O220 2.021 . S
Co210 O222 2.137 . S
Co210 O223 2.244 . S
O211 Co210 2.216 . S
O211 C218 1.247 . S
O212 Co210 2.091 . S
O212 C218 1.261 . S
C213 O222 1.247 . S
C213 O223 1.272 . S
O214 Co210 2.004 . S
O214 C219 1.259 . S
Co215 O216 2.061 . S
Co215 O221 2.052 . S
Co215 O223 2.135 . S
O216 Co215 2.061 . S
O216 C219 1.235 . S
C217 O220 1.238 . S
C217 O221 1.241 . S
C218 O211 1.247 . S
C218 O212 1.261 . S
C219 O214 1.259 . S
C219 O216 1.235 . S
O220 Co210 2.021 . S
O220 C217 1.238 . S
O221 Co215 2.052 . S
O221 C217 1.241 . S
O222 Co210 2.137 . S
O222 C213 1.247 . S
O223 Co210 2.244 . S
O223 C213 1.272 . S
O223 Co215 2.135 . S
Co224 O225 2.216 . S
Co224 O226 2.091 . S
Co224 O228 2.004 . S
Co224 O234 2.021 . S
Co224 O236 2.137 . S
Co224 O237 2.244 . S
O225 Co224 2.216 . S
O225 C232 1.247 . S
O226 Co224 2.091 . S
O226 C232 1.261 . S
C227 O236 1.247 . S
C227 O237 1.272 . S
O228 Co224 2.004 . S
O228 C233 1.259 . S
Co229 O230 2.061 . S
Co229 O235 2.052 . S
Co229 O237 2.135 . S
O230 Co229 2.061 . S
O230 C233 1.235 . S
C231 O234 1.238 . S
C231 O235 1.241 . S
C232 O225 1.247 . S
C232 O226 1.261 . S
C233 O228 1.259 . S
C233 O230 1.235 . S
O234 Co224 2.021 . S
O234 C231 1.238 . S
O235 Co229 2.052 . S
O235 C231 1.241 . S
O236 Co224 2.137 . S
O236 C227 1.247 . S
O237 Co224 2.244 . S
O237 C227 1.272 . S
O237 Co229 2.135 . S
Co238 O239 2.216 . S
Co238 O240 2.091 . S
Co238 O242 2.004 . S
Co238 O248 2.021 . S
Co238 O250 2.137 . S
Co238 O251 2.244 . S
O239 Co238 2.216 . S
O239 C246 1.247 . S
O240 Co238 2.091 . S
O240 C246 1.261 . S
C241 O250 1.247 . S
C241 O251 1.272 . S
O242 Co238 2.004 . S
O242 C247 1.259 . S
Co243 O244 2.061 . S
Co243 O249 2.052 . S
Co243 O251 2.135 . S
O244 Co243 2.061 . S
O244 C247 1.235 . S
C245 O248 1.238 . S
C245 O249 1.241 . S
C246 O239 1.247 . S
C246 O240 1.261 . S
C247 O242 1.259 . S
C247 O244 1.235 . S
O248 Co238 2.021 . S
O248 C245 1.238 . S
O249 Co243 2.052 . S
O249 C245 1.241 . S
O250 Co238 2.137 . S
O250 C241 1.247 . S
O251 Co238 2.244 . S
O251 C241 1.272 . S
O251 Co243 2.135 . S
Co252 O253 2.216 . S
Co252 O254 2.091 . S
Co252 O256 2.004 . S
Co252 O262 2.021 . S
Co252 O264 2.137 . S
Co252 O265 2.244 . S
O253 Co252 2.216 . S
O253 C260 1.247 . S
O254 Co252 2.091 . S
O254 C260 1.261 . S
C255 O264 1.247 . S
C255 O265 1.272 . S
O256 Co252 2.004 . S
O256 C261 1.259 . S
Co257 O258 2.061 . S
Co257 O263 2.052 . S
Co257 O265 2.135 . S
O258 Co257 2.061 . S
O258 C261 1.235 . S
C259 O262 1.238 . S
C259 O263 1.241 . S
C260 O253 1.247 . S
C260 O254 1.261 . S
C261 O256 1.259 . S
C261 O258 1.235 . S
O262 Co252 2.021 . S
O262 C259 1.238 . S
O263 Co257 2.052 . S
O263 C259 1.241 . S
O264 Co252 2.137 . S
O264 C255 1.247 . S
O265 Co252 2.244 . S
O265 C255 1.272 . S
O265 Co257 2.135 . S
Co266 O267 2.216 . S
Co266 O268 2.091 . S
Co266 O270 2.004 . S
Co266 O276 2.021 . S
Co266 O278 2.137 . S
Co266 O279 2.244 . S
O267 Co266 2.216 . S
O267 C274 1.247 . S
O268 Co266 2.091 . S
O268 C274 1.261 . S
C269 O278 1.247 . S
C269 O279 1.272 . S
O270 Co266 2.004 . S
O270 C275 1.259 . S
Co271 O272 2.061 . S
Co271 O277 2.052 . S
Co271 O279 2.135 . S
O272 Co271 2.061 . S
O272 C275 1.235 . S
C273 O276 1.238 . S
C273 O277 1.241 . S
C274 O267 1.247 . S
C274 O268 1.261 . S
C275 O270 1.259 . S
C275 O272 1.235 . S
O276 Co266 2.021 . S
O276 C273 1.238 . S
O277 Co271 2.052 . S
O277 C273 1.241 . S
O278 Co266 2.137 . S
O278 C269 1.247 . S
O279 Co266 2.244 . S
O279 C269 1.272 . S
O279 Co271 2.135 . S
Co280 O281 2.216 . S
Co280 O282 2.091 . S
Co280 O284 2.004 . S
Co280 O290 2.021 . S
Co280 O292 2.137 . S
Co280 O293 2.244 . S
O281 Co280 2.216 . S
O281 C288 1.247 . S
O282 Co280 2.091 . S
O282 C288 1.261 . S
C283 O292 1.247 . S
C283 O293 1.272 . S
O284 Co280 2.004 . S
O284 C289 1.259 . S
Co285 O286 2.061 . S
Co285 O291 2.052 . S
Co285 O293 2.135 . S
O286 Co285 2.061 . S
O286 C289 1.235 . S
C287 O290 1.238 . S
C287 O291 1.241 . S
C288 O281 1.247 . S
C288 O282 1.261 . S
C289 O284 1.259 . S
C289 O286 1.235 . S
O290 Co280 2.021 . S
O290 C287 1.238 . S
O291 Co285 2.052 . S
O291 C287 1.241 . S
O292 Co280 2.137 . S
O292 C283 1.247 . S
O293 Co280 2.244 . S
O293 C283 1.272 . S
O293 Co285 2.135 . S
Co294 O295 2.216 . S
Co294 O296 2.091 . S
Co294 O298 2.004 . S
Co294 O304 2.021 . S
Co294 O306 2.137 . S
Co294 O307 2.244 . S
O295 Co294 2.216 . S
O295 C302 1.247 . S
O296 Co294 2.091 . S
O296 C302 1.261 . S
C297 O306 1.247 . S
C297 O307 1.272 . S
O298 Co294 2.004 . S
O298 C303 1.259 . S
Co299 O300 2.061 . S
Co299 O305 2.052 . S
Co299 O307 2.135 . S
O300 Co299 2.061 . S
O300 C303 1.235 . S
C301 O304 1.238 . S
C301 O305 1.241 . S
C302 O295 1.247 . S
C302 O296 1.261 . S
C303 O298 1.259 . S
C303 O300 1.235 . S
O304 Co294 2.021 . S
O304 C301 1.238 . S
O305 Co299 2.052 . S
O305 C301 1.241 . S
O306 Co294 2.137 . S
O306 C297 1.247 . S
O307 Co294 2.244 . S
O307 C297 1.272 . S
O307 Co299 2.135 . S
Co308 O309 2.216 . S
Co308 O310 2.091 . S
Co308 O312 2.004 . S
Co308 O318 2.021 . S
Co308 O320 2.137 . S
Co308 O321 2.244 . S
O309 Co308 2.216 . S
O309 C316 1.247 . S
O310 Co308 2.091 . S
O310 C316 1.261 . S
C311 O320 1.247 . S
C311 O321 1.272 . S
O312 Co308 2.004 . S
O312 C317 1.259 . S
Co313 O314 2.061 . S
Co313 O319 2.052 . S
Co313 O321 2.135 . S
O314 Co313 2.061 . S
O314 C317 1.235 . S
C315 O318 1.238 . S
C315 O319 1.241 . S
C316 O309 1.247 . S
C316 O310 1.261 . S
C317 O312 1.259 . S
C317 O314 1.235 . S
O318 Co308 2.021 . S
O318 C315 1.238 . S
O319 Co313 2.052 . S
O319 C315 1.241 . S
O320 Co308 2.137 . S
O320 C311 1.247 . S
O321 Co308 2.244 . S
O321 C311 1.272 . S
O321 Co313 2.135 . S
Co322 O323 2.216 . S
Co322 O324 2.091 . S
Co322 O326 2.004 . S
Co322 O332 2.021 . S
Co322 O334 2.137 . S
Co322 O335 2.244 . S
O323 Co322 2.216 . S
O323 C330 1.247 . S
O324 Co322 2.091 . S
O324 C330 1.261 . S
C325 O334 1.247 . S
C325 O335 1.272 . S
O326 Co322 2.004 . S
O326 C331 1.259 . S
Co327 O328 2.061 . S
Co327 O333 2.052 . S
Co327 O335 2.135 . S
O328 Co327 2.061 . S
O328 C331 1.235 . S
C329 O332 1.238 . S
C329 O333 1.241 . S
C330 O323 1.247 . S
C330 O324 1.261 . S
C331 O326 1.259 . S
C331 O328 1.235 . S
O332 Co322 2.021 . S
O332 C329 1.238 . S
O333 Co327 2.052 . S
O333 C329 1.241 . S
O334 Co322 2.137 . S
O334 C325 1.247 . S
O335 Co322 2.244 . S
O335 C325 1.272 . S
O335 Co327 2.135 . S
Co336 O337 2.216 . S
Co336 O338 2.091 . S
Co336 O340 2.004 . S
Co336 O346 2.021 . S
Co336 O348 2.137 . S
Co336 O349 2.244 . S
O337 Co336 2.216 . S
O337 C344 1.247 . S
O338 Co336 2.091 . S
O338 C344 1.261 . S
C339 O348 1.247 . S
C339 O349 1.272 . S
O340 Co336 2.004 . S
O340 C345 1.259 . S
Co341 O342 2.061 . S
Co341 O347 2.052 . S
Co341 O349 2.135 . S
O342 Co341 2.061 . S
O342 C345 1.235 . S
C343 O346 1.238 . S
C343 O347 1.241 . S
C344 O337 1.247 . S
C344 O338 1.261 . S
C345 O340 1.259 . S
C345 O342 1.235 . S
O346 Co336 2.021 . S
O346 C343 1.238 . S
O347 Co341 2.052 . S
O347 C343 1.241 . S
O348 Co336 2.137 . S
O348 C339 1.247 . S
O349 Co336 2.244 . S
O349 C339 1.272 . S
O349 Co341 2.135 . S
Co350 O351 2.216 . S
Co350 O352 2.091 . S
Co350 O354 2.004 . S
Co350 O360 2.021 . S
Co350 O362 2.137 . S
Co350 O363 2.244 . S
O351 Co350 2.216 . S
O351 C358 1.247 . S
O352 Co350 2.091 . S
O352 C358 1.261 . S
C353 O362 1.247 . S
C353 O363 1.272 . S
O354 Co350 2.004 . S
O354 C359 1.259 . S
Co355 O356 2.061 . S
Co355 O361 2.052 . S
Co355 O363 2.135 . S
O356 Co355 2.061 . S
O356 C359 1.235 . S
C357 O360 1.238 . S
C357 O361 1.241 . S
C358 O351 1.247 . S
C358 O352 1.261 . S
C359 O354 1.259 . S
C359 O356 1.235 . S
O360 Co350 2.021 . S
O360 C357 1.238 . S
O361 Co355 2.052 . S
O361 C357 1.241 . S
O362 Co350 2.137 . S
O362 C353 1.247 . S
O363 Co350 2.244 . S
O363 C353 1.272 . S
O363 Co355 2.135 . S
Co364 O365 2.216 . S
Co364 O366 2.091 . S
Co364 O368 2.004 . S
Co364 O374 2.021 . S
Co364 O376 2.137 . S
Co364 O377 2.244 . S
O365 Co364 2.216 . S
O365 C372 1.247 . S
O366 Co364 2.091 . S
O366 C372 1.261 . S
C367 O376 1.247 . S
C367 O377 1.272 . S
O368 Co364 2.004 . S
O368 C373 1.259 . S
Co369 O370 2.061 . S
Co369 O375 2.052 . S
Co369 O377 2.135 . S
O370 Co369 2.061 . S
O370 C373 1.235 . S
C371 O374 1.238 . S
C371 O375 1.241 . S
C372 O365 1.247 . S
C372 O366 1.261 . S
C373 O368 1.259 . S
C373 O370 1.235 . S
O374 Co364 2.021 . S
O374 C371 1.238 . S
O375 Co369 2.052 . S
O375 C371 1.241 . S
O376 Co364 2.137 . S
O376 C367 1.247 . S
O377 Co364 2.244 . S
O377 C367 1.272 . S
O377 Co369 2.135 . S
Co378 O379 2.216 . S
Co378 O380 2.091 . S
Co378 O382 2.004 . S
Co378 O388 2.021 . S
Co378 O390 2.137 . S
Co378 O391 2.244 . S
O379 Co378 2.216 . S
O379 C386 1.247 . S
O380 Co378 2.091 . S
O380 C386 1.261 . S
C381 O390 1.247 . S
C381 O391 1.272 . S
O382 Co378 2.004 . S
O382 C387 1.259 . S
Co383 O384 2.061 . S
Co383 O389 2.052 . S
Co383 O391 2.135 . S
O384 Co383 2.061 . S
O384 C387 1.235 . S
C385 O388 1.238 . S
C385 O389 1.241 . S
C386 O379 1.247 . S
C386 O380 1.261 . S
C387 O382 1.259 . S
C387 O384 1.235 . S
O388 Co378 2.021 . S
O388 C385 1.238 . S
O389 Co383 2.052 . S
O389 C385 1.241 . S
O390 Co378 2.137 . S
O390 C381 1.247 . S
O391 Co378 2.244 . S
O391 C381 1.272 . S
O391 Co383 2.135 . S
Co392 O393 2.216 . S
Co392 O394 2.091 . S
Co392 O396 2.004 . S
Co392 O402 2.021 . S
Co392 O404 2.137 . S
Co392 O405 2.244 . S
O393 Co392 2.216 . S
O393 C400 1.247 . S
O394 Co392 2.091 . S
O394 C400 1.261 . S
C395 O404 1.247 . S
C395 O405 1.272 . S
O396 Co392 2.004 . S
O396 C401 1.259 . S
Co397 O398 2.061 . S
Co397 O403 2.052 . S
Co397 O405 2.135 . S
O398 Co397 2.061 . S
O398 C401 1.235 . S
C399 O402 1.238 . S
C399 O403 1.241 . S
C400 O393 1.247 . S
C400 O394 1.261 . S
C401 O396 1.259 . S
C401 O398 1.235 . S
O402 Co392 2.021 . S
O402 C399 1.238 . S
O403 Co397 2.052 . S
O403 C399 1.241 . S
O404 Co392 2.137 . S
O404 C395 1.247 . S
O405 Co392 2.244 . S
O405 C395 1.272 . S
O405 Co397 2.135 . S
Co406 O407 2.216 . S
Co406 O408 2.091 . S
Co406 O410 2.004 . S
Co406 O416 2.021 . S
Co406 O418 2.137 . S
Co406 O419 2.244 . S
O407 Co406 2.216 . S
O407 C414 1.247 . S
O408 Co406 2.091 . S
O408 C414 1.261 . S
C409 O418 1.247 . S
C409 O419 1.272 . S
O410 Co406 2.004 . S
O410 C415 1.259 . S
Co411 O412 2.061 . S
Co411 O417 2.052 . S
Co411 O419 2.135 . S
O412 Co411 2.061 . S
O412 C415 1.235 . S
C413 O416 1.238 . S
C413 O417 1.241 . S
C414 O407 1.247 . S
C414 O408 1.261 . S
C415 O410 1.259 . S
C415 O412 1.235 . S
O416 Co406 2.021 . S
O416 C413 1.238 . S
O417 Co411 2.052 . S
O417 C413 1.241 . S
O418 Co406 2.137 . S
O418 C409 1.247 . S
O419 Co406 2.244 . S
O419 C409 1.272 . S
O419 Co411 2.135 . S
Co420 O421 2.216 . S
Co420 O422 2.091 . S
Co420 O424 2.004 . S
Co420 O430 2.021 . S
Co420 O432 2.137 . S
Co420 O433 2.244 . S
O421 Co420 2.216 . S
O421 C428 1.247 . S
O422 Co420 2.091 . S
O422 C428 1.261 . S
C423 O432 1.247 . S
C423 O433 1.272 . S
O424 Co420 2.004 . S
O424 C429 1.259 . S
Co425 O426 2.061 . S
Co425 O431 2.052 . S
Co425 O433 2.135 . S
O426 Co425 2.061 . S
O426 C429 1.235 . S
C427 O430 1.238 . S
C427 O431 1.241 . S
C428 O421 1.247 . S
C428 O422 1.261 . S
C429 O424 1.259 . S
C429 O426 1.235 . S
O430 Co420 2.021 . S
O430 C427 1.238 . S
O431 Co425 2.052 . S
O431 C427 1.241 . S
O432 Co420 2.137 . S
O432 C423 1.247 . S
O433 Co420 2.244 . S
O433 C423 1.272 . S
O433 Co425 2.135 . S
Co434 O435 2.216 . S
Co434 O436 2.091 . S
Co434 O438 2.004 . S
Co434 O444 2.021 . S
Co434 O446 2.137 . S
Co434 O447 2.244 . S
O435 Co434 2.216 . S
O435 C442 1.247 . S
O436 Co434 2.091 . S
O436 C442 1.261 . S
C437 O446 1.247 . S
C437 O447 1.272 . S
O438 Co434 2.004 . S
O438 C443 1.259 . S
Co439 O440 2.061 . S
Co439 O445 2.052 . S
Co439 O447 2.135 . S
O440 Co439 2.061 . S
O440 C443 1.235 . S
C441 O444 1.238 . S
C441 O445 1.241 . S
C442 O435 1.247 . S
C442 O436 1.261 . S
C443 O438 1.259 . S
C443 O440 1.235 . S
O444 Co434 2.021 . S
O444 C441 1.238 . S
O445 Co439 2.052 . S
O445 C441 1.241 . S
O446 Co434 2.137 . S
O446 C437 1.247 . S
O447 Co434 2.244 . S
O447 C437 1.272 . S
O447 Co439 2.135 . S
Co448 O449 2.216 . S
Co448 O450 2.091 . S
Co448 O452 2.004 . S
Co448 O458 2.021 . S
Co448 O460 2.137 . S
Co448 O461 2.244 . S
O449 Co448 2.216 . S
O449 C456 1.247 . S
O450 Co448 2.091 . S
O450 C456 1.261 . S
C451 O460 1.247 . S
C451 O461 1.272 . S
O452 Co448 2.004 . S
O452 C457 1.259 . S
Co453 O454 2.061 . S
Co453 O459 2.052 . S
Co453 O461 2.135 . S
O454 Co453 2.061 . S
O454 C457 1.235 . S
C455 O458 1.238 . S
C455 O459 1.241 . S
C456 O449 1.247 . S
C456 O450 1.261 . S
C457 O452 1.259 . S
C457 O454 1.235 . S
O458 Co448 2.021 . S
O458 C455 1.238 . S
O459 Co453 2.052 . S
O459 C455 1.241 . S
O460 Co448 2.137 . S
O460 C451 1.247 . S
O461 Co448 2.244 . S
O461 C451 1.272 . S
O461 Co453 2.135 . S
Co462 O463 2.216 . S
Co462 O464 2.091 . S
Co462 O466 2.004 . S
Co462 O472 2.021 . S
Co462 O474 2.137 . S
Co462 O475 2.244 . S
O463 Co462 2.216 . S
O463 C470 1.247 . S
O464 Co462 2.091 . S
O464 C470 1.261 . S
C465 O474 1.247 . S
C465 O475 1.272 . S
O466 Co462 2.004 . S
O466 C471 1.259 . S
Co467 O468 2.061 . S
Co467 O473 2.052 . S
Co467 O475 2.135 . S
O468 Co467 2.061 . S
O468 C471 1.235 . S
C469 O472 1.238 . S
C469 O473 1.241 . S
C470 O463 1.247 . S
C470 O464 1.261 . S
C471 O466 1.259 . S
C471 O468 1.235 . S
O472 Co462 2.021 . S
O472 C469 1.238 . S
O473 Co467 2.052 . S
O473 C469 1.241 . S
O474 Co462 2.137 . S
O474 C465 1.247 . S
O475 Co462 2.244 . S
O475 C465 1.272 . S
O475 Co467 2.135 . S
Co476 O477 2.216 . S
Co476 O478 2.091 . S
Co476 O480 2.004 . S
Co476 O486 2.021 . S
Co476 O488 2.137 . S
Co476 O489 2.244 . S
O477 Co476 2.216 . S
O477 C484 1.247 . S
O478 Co476 2.091 . S
O478 C484 1.261 . S
C479 O488 1.247 . S
C479 O489 1.272 . S
O480 Co476 2.004 . S
O480 C485 1.259 . S
Co481 O482 2.061 . S
Co481 O487 2.052 . S
Co481 O489 2.135 . S
O482 Co481 2.061 . S
O482 C485 1.235 . S
C483 O486 1.238 . S
C483 O487 1.241 . S
C484 O477 1.247 . S
C484 O478 1.261 . S
C485 O480 1.259 . S
C485 O482 1.235 . S
O486 Co476 2.021 . S
O486 C483 1.238 . S
O487 Co481 2.052 . S
O487 C483 1.241 . S
O488 Co476 2.137 . S
O488 C479 1.247 . S
O489 Co476 2.244 . S
O489 C479 1.272 . S
O489 Co481 2.135 . S
Co490 O491 2.216 . S
Co490 O492 2.091 . S
Co490 O494 2.004 . S
Co490 O500 2.021 . S
Co490 O502 2.137 . S
Co490 O503 2.244 . S
O491 Co490 2.216 . S
O491 C498 1.247 . S
O492 Co490 2.091 . S
O492 C498 1.261 . S
C493 O502 1.247 . S
C493 O503 1.272 . S
O494 Co490 2.004 . S
O494 C499 1.259 . S
Co495 O496 2.061 . S
Co495 O501 2.052 . S
Co495 O503 2.135 . S
O496 Co495 2.061 . S
O496 C499 1.235 . S
C497 O500 1.238 . S
C497 O501 1.241 . S
C498 O491 1.247 . S
C498 O492 1.261 . S
C499 O494 1.259 . S
C499 O496 1.235 . S
O500 Co490 2.021 . S
O500 C497 1.238 . S
O501 Co495 2.052 . S
O501 C497 1.241 . S
O502 Co490 2.137 . S
O502 C493 1.247 . S
O503 Co490 2.244 . S
O503 C493 1.272 . S
O503 Co495 2.135 . S
C504 C505 1.349 . S
C504 C506 1.327 . S
C504 H529 0.950 . S
C505 C504 1.349 . S
C505 C521 1.349 . S
C506 C504 1.327 . S
C506 C525 1.429 . S
C506 H530 0.950 . S
C507 C524 1.574 . S
C507 C526 1.368 . S
C507 H531 0.949 . S
H508 C512 0.949 . S
C509 C510 1.349 . S
C509 C511 1.327 . S
C509 H532 0.950 . S
C510 C509 1.349 . S
C510 C522 1.349 . S
C511 C509 1.327 . S
C511 C527 1.429 . S
C511 H533 0.950 . S
C512 H508 0.949 . S
C512 C520 1.574 . S
C512 C528 1.368 . S
H513 C521 0.950 . S
H514 C519 0.950 . S
H515 C520 0.949 . S
H516 C522 0.950 . S
H517 C523 0.950 . S
H518 C524 0.949 . S
C519 H514 0.950 . S
C519 C521 1.327 . S
C519 C525 1.429 . S
C520 C512 1.574 . S
C520 H515 0.949 . S
C520 C526 1.368 . S
C521 C505 1.349 . S
C521 H513 0.950 . S
C521 C519 1.327 . S
C522 C510 1.349 . S
C522 H516 0.950 . S
C522 C523 1.327 . S
C523 H517 0.950 . S
C523 C522 1.327 . S
C523 C527 1.429 . S
C524 C507 1.574 . S
C524 H518 0.949 . S
C524 C528 1.368 . S
C525 C506 1.429 . S
C525 C519 1.429 . S
C525 C526 1.523 . S
C526 C507 1.368 . S
C526 C520 1.368 . S
C526 C525 1.523 . S
C527 C511 1.429 . S
C527 C523 1.429 . S
C527 C528 1.523 . S
C528 C512 1.368 . S
C528 C524 1.368 . S
C528 C527 1.523 . S
H529 C504 0.950 . S
H530 C506 0.950 . S
H531 C507 0.949 . S
H532 C509 0.950 . S
H533 C511 0.950 . S
C534 C535 1.349 . S
C534 C536 1.327 . S
C534 H559 0.950 . S
C535 C534 1.349 . S
C535 C551 1.349 . S
C536 C534 1.327 . S
C536 C555 1.429 . S
C536 H560 0.950 . S
C537 C554 1.574 . S
C537 C556 1.368 . S
C537 H561 0.949 . S
H538 C542 0.949 . S
C539 C540 1.349 . S
C539 C541 1.327 . S
C539 H562 0.950 . S
C540 C539 1.349 . S
C540 C552 1.349 . S
C541 C539 1.327 . S
C541 C557 1.429 . S
C541 H563 0.950 . S
C542 H538 0.949 . S
C542 C550 1.574 . S
C542 C558 1.368 . S
H543 C551 0.950 . S
H544 C549 0.950 . S
H545 C550 0.949 . S
H546 C552 0.950 1_554 S
H547 C553 0.950 . S
H548 C554 0.949 . S
C549 H544 0.950 . S
C549 C551 1.327 . S
C549 C555 1.429 . S
C550 C542 1.574 . S
C550 H545 0.949 . S
C550 C556 1.368 . S
C551 C535 1.349 . S
C551 H543 0.950 . S
C551 C549 1.327 . S
C552 C540 1.349 . S
C552 H546 0.950 1_556 S
C552 C553 1.327 . S
C553 H547 0.950 . S
C553 C552 1.327 . S
C553 C557 1.429 . S
C554 C537 1.574 . S
C554 H548 0.949 . S
C554 C558 1.368 . S
C555 C536 1.429 . S
C555 C549 1.429 . S
C555 C556 1.523 . S
C556 C537 1.368 . S
C556 C550 1.368 . S
C556 C555 1.523 . S
C557 C541 1.429 . S
C557 C553 1.429 . S
C557 C558 1.523 . S
C558 C542 1.368 . S
C558 C554 1.368 . S
C558 C557 1.523 . S
H559 C534 0.950 . S
H560 C536 0.950 . S
H561 C537 0.949 . S
H562 C539 0.950 . S
H563 C541 0.950 . S
C564 C565 1.349 . S
C564 C566 1.327 . S
C564 H589 0.950 1_556 S
C565 C564 1.349 . S
C565 C581 1.349 . S
C566 C564 1.327 . S
C566 C585 1.429 . S
C566 H590 0.950 . S
C567 C584 1.574 . S
C567 C586 1.368 . S
C567 H591 0.949 . S
H568 C572 0.949 . S
C569 C570 1.349 . S
C569 C571 1.327 . S
C569 H592 0.950 . S
C570 C569 1.349 . S
C570 C582 1.349 . S
C571 C569 1.327 . S
C571 C587 1.429 . S
C571 H593 0.950 . S
C572 H568 0.949 . S
C572 C580 1.574 . S
C572 C588 1.368 . S
H573 C581 0.950 . S
H574 C579 0.950 . S
H575 C580 0.949 . S
H576 C582 0.950 . S
H577 C583 0.950 . S
H578 C584 0.949 . S
C579 H574 0.950 . S
C579 C581 1.327 . S
C579 C585 1.429 . S
C580 C572 1.574 . S
C580 H575 0.949 . S
C580 C586 1.368 . S
C581 C565 1.349 . S
C581 H573 0.950 . S
C581 C579 1.327 . S
C582 C570 1.349 . S
C582 H576 0.950 . S
C582 C583 1.327 . S
C583 H577 0.950 . S
C583 C582 1.327 . S
C583 C587 1.429 . S
C584 C567 1.574 . S
C584 H578 0.949 . S
C584 C588 1.368 . S
C585 C566 1.429 . S
C585 C579 1.429 . S
C585 C586 1.523 . S
C586 C567 1.368 . S
C586 C580 1.368 . S
C586 C585 1.523 . S
C587 C571 1.429 . S
C587 C583 1.429 . S
C587 C588 1.523 . S
C588 C572 1.368 . S
C588 C584 1.368 . S
C588 C587 1.523 . S
H589 C564 0.950 1_554 S
H590 C566 0.950 . S
H591 C567 0.949 . S
H592 C569 0.950 . S
H593 C571 0.950 . S
C594 C595 1.349 . S
C594 C596 1.327 . S
C594 H619 0.950 . S
C595 C594 1.349 . S
C595 C611 1.349 . S
C596 C594 1.327 . S
C596 C615 1.429 . S
C596 H620 0.950 . S
C597 C614 1.574 . S
C597 C616 1.368 . S
C597 H621 0.949 . S
H598 C602 0.949 . S
C599 C600 1.349 . S
C599 C601 1.327 . S
C599 H622 0.950 . S
C600 C599 1.349 . S
C600 C612 1.349 . S
C601 C599 1.327 . S
C601 C617 1.429 . S
C601 H623 0.950 . S
C602 H598 0.949 . S
C602 C610 1.574 . S
C602 C618 1.368 . S
H603 C611 0.950 . S
H604 C609 0.950 . S
H605 C610 0.949 . S
H606 C612 0.950 . S
H607 C613 0.950 . S
H608 C614 0.949 . S
C609 H604 0.950 . S
C609 C611 1.327 . S
C609 C615 1.429 . S
C610 C602 1.574 . S
C610 H605 0.949 . S
C610 C616 1.368 . S
C611 C595 1.349 . S
C611 H603 0.950 . S
C611 C609 1.327 . S
C612 C600 1.349 . S
C612 H606 0.950 . S
C612 C613 1.327 . S
C613 H607 0.950 . S
C613 C612 1.327 . S
C613 C617 1.429 . S
C614 C597 1.574 . S
C614 H608 0.949 . S
C614 C618 1.368 . S
C615 C596 1.429 . S
C615 C609 1.429 . S
C615 C616 1.523 . S
C616 C597 1.368 . S
C616 C610 1.368 . S
C616 C615 1.523 . S
C617 C601 1.429 . S
C617 C613 1.429 . S
C617 C618 1.523 . S
C618 C602 1.368 . S
C618 C614 1.368 . S
C618 C617 1.523 . S
H619 C594 0.950 . S
H620 C596 0.950 . S
H621 C597 0.949 . S
H622 C599 0.950 . S
H623 C601 0.950 . S
C624 C625 1.349 . S
C624 C626 1.327 . S
C624 H649 0.950 . S
C625 C624 1.349 . S
C625 C641 1.349 . S
C626 C624 1.327 . S
C626 C645 1.429 . S
C626 H650 0.950 . S
C627 C644 1.574 . S
C627 C646 1.368 . S
C627 H651 0.949 . S
H628 C632 0.949 . S
C629 C630 1.349 . S
C629 C631 1.327 . S
C629 H652 0.950 . S
C630 C629 1.349 . S
C630 C642 1.349 . S
C631 C629 1.327 . S
C631 C647 1.429 . S
C631 H653 0.950 . S
C632 H628 0.949 . S
C632 C640 1.574 . S
C632 C648 1.368 . S
H633 C641 0.950 . S
H634 C639 0.950 . S
H635 C640 0.949 . S
H636 C642 0.950 . S
H637 C643 0.950 . S
H638 C644 0.949 . S
C639 H634 0.950 . S
C639 C641 1.327 . S
C639 C645 1.429 . S
C640 C632 1.574 . S
C640 H635 0.949 . S
C640 C646 1.368 . S
C641 C625 1.349 . S
C641 H633 0.950 . S
C641 C639 1.327 . S
C642 C630 1.349 . S
C642 H636 0.950 . S
C642 C643 1.327 . S
C643 H637 0.950 . S
C643 C642 1.327 . S
C643 C647 1.429 . S
C644 C627 1.574 . S
C644 H638 0.949 . S
C644 C648 1.368 . S
C645 C626 1.429 . S
C645 C639 1.429 . S
C645 C646 1.523 . S
C646 C627 1.368 . S
C646 C640 1.368 . S
C646 C645 1.523 . S
C647 C631 1.429 . S
C647 C643 1.429 . S
C647 C648 1.523 . S
C648 C632 1.368 . S
C648 C644 1.368 . S
C648 C647 1.523 . S
H649 C624 0.950 . S
H650 C626 0.950 . S
H651 C627 0.949 . S
H652 C629 0.950 . S
H653 C631 0.950 . S
C654 C655 1.349 . S
C654 C656 1.327 . S
C654 H679 0.950 . S
C655 C654 1.349 . S
C655 C671 1.349 . S
C656 C654 1.327 . S
C656 C675 1.429 . S
C656 H680 0.950 . S
C657 C674 1.574 . S
C657 C676 1.368 . S
C657 H681 0.949 . S
H658 C662 0.949 . S
C659 C660 1.349 . S
C659 C661 1.327 . S
C659 H682 0.950 . S
C660 C659 1.349 . S
C660 C672 1.349 . S
C661 C659 1.327 . S
C661 C677 1.429 . S
C661 H683 0.950 . S
C662 H658 0.949 . S
C662 C670 1.574 . S
C662 C678 1.368 . S
H663 C671 0.950 . S
H664 C669 0.950 . S
H665 C670 0.949 . S
H666 C672 0.950 . S
H667 C673 0.950 . S
H668 C674 0.949 . S
C669 H664 0.950 . S
C669 C671 1.327 . S
C669 C675 1.429 . S
C670 C662 1.574 . S
C670 H665 0.949 . S
C670 C676 1.368 . S
C671 C655 1.349 . S
C671 H663 0.950 . S
C671 C669 1.327 . S
C672 C660 1.349 . S
C672 H666 0.950 . S
C672 C673 1.327 . S
C673 H667 0.950 . S
C673 C672 1.327 . S
C673 C677 1.429 . S
C674 C657 1.574 . S
C674 H668 0.949 . S
C674 C678 1.368 . S
C675 C656 1.429 . S
C675 C669 1.429 . S
C675 C676 1.523 . S
C676 C657 1.368 . S
C676 C670 1.368 . S
C676 C675 1.523 . S
C677 C661 1.429 . S
C677 C673 1.429 . S
C677 C678 1.523 . S
C678 C662 1.368 . S
C678 C674 1.368 . S
C678 C677 1.523 . S
H679 C654 0.950 . S
H680 C656 0.950 . S
H681 C657 0.949 . S
H682 C659 0.950 . S
H683 C661 0.950 . S
C684 C685 1.349 . S
C684 C686 1.327 . S
C684 H709 0.950 . S
C685 C684 1.349 . S
C685 C701 1.349 . S
C686 C684 1.327 . S
C686 C705 1.429 . S
C686 H710 0.950 . S
C687 C704 1.574 . S
C687 C706 1.368 . S
C687 H711 0.949 . S
H688 C692 0.949 . S
C689 C690 1.349 . S
C689 C691 1.327 . S
C689 H712 0.950 . S
C690 C689 1.349 . S
C690 C702 1.349 1_554 S
C691 C689 1.327 . S
C691 C707 1.429 . S
C691 H713 0.950 . S
C692 H688 0.949 . S
C692 C700 1.574 . S
C692 C708 1.368 . S
H693 C701 0.950 . S
H694 C699 0.950 . S
H695 C700 0.949 . S
H696 C702 0.950 . S
H697 C703 0.950 . S
H698 C704 0.949 . S
C699 H694 0.950 . S
C699 C701 1.327 . S
C699 C705 1.429 . S
C700 C692 1.574 . S
C700 H695 0.949 . S
C700 C706 1.368 . S
C701 C685 1.349 . S
C701 H693 0.950 . S
C701 C699 1.327 . S
C702 C690 1.349 1_556 S
C702 H696 0.950 . S
C702 C703 1.327 1_556 S
C703 H697 0.950 . S
C703 C702 1.327 1_554 S
C703 C707 1.429 . S
C704 C687 1.574 . S
C704 H698 0.949 . S
C704 C708 1.368 . S
C705 C686 1.429 . S
C705 C699 1.429 . S
C705 C706 1.523 . S
C706 C687 1.368 . S
C706 C700 1.368 . S
C706 C705 1.523 . S
C707 C691 1.429 . S
C707 C703 1.429 . S
C707 C708 1.523 . S
C708 C692 1.368 . S
C708 C704 1.368 . S
C708 C707 1.523 . S
H709 C684 0.950 . S
H710 C686 0.950 . S
H711 C687 0.949 . S
H712 C689 0.950 . S
H713 C691 0.950 . S
C714 C715 1.349 . S
C714 C716 1.327 . S
C714 H739 0.950 . S
C715 C714 1.349 . S
C715 C731 1.349 . S
C716 C714 1.327 . S
C716 C735 1.429 . S
C716 H740 0.950 . S
C717 C734 1.574 . S
C717 C736 1.368 . S
C717 H741 0.949 . S
H718 C722 0.949 . S
C719 C720 1.349 . S
C719 C721 1.327 . S
C719 H742 0.950 1_554 S
C720 C719 1.349 . S
C720 C732 1.349 . S
C721 C719 1.327 . S
C721 C737 1.429 . S
C721 H743 0.950 . S
C722 H718 0.949 . S
C722 C730 1.574 . S
C722 C738 1.368 . S
H723 C731 0.950 . S
H724 C729 0.950 . S
H725 C730 0.949 . S
H726 C732 0.950 . S
H727 C733 0.950 . S
H728 C734 0.949 . S
C729 H724 0.950 . S
C729 C731 1.327 . S
C729 C735 1.429 . S
C730 C722 1.574 . S
C730 H725 0.949 . S
C730 C736 1.368 . S
C731 C715 1.349 . S
C731 H723 0.950 . S
C731 C729 1.327 . S
C732 C720 1.349 . S
C732 H726 0.950 . S
C732 C733 1.327 . S
C733 H727 0.950 . S
C733 C732 1.327 . S
C733 C737 1.429 . S
C734 C717 1.574 . S
C734 H728 0.949 . S
C734 C738 1.368 . S
C735 C716 1.429 . S
C735 C729 1.429 . S
C735 C736 1.523 . S
C736 C717 1.368 . S
C736 C730 1.368 . S
C736 C735 1.523 . S
C737 C721 1.429 . S
C737 C733 1.429 . S
C737 C738 1.523 . S
C738 C722 1.368 . S
C738 C734 1.368 . S
C738 C737 1.523 . S
H739 C714 0.950 . S
H740 C716 0.950 . S
H741 C717 0.949 . S
H742 C719 0.950 1_556 S
H743 C721 0.950 . S
C744 C745 1.349 . S
C744 C746 1.327 . S
C744 H769 0.950 . S
C745 C744 1.349 . S
C745 C761 1.349 . S
C746 C744 1.327 . S
C746 C765 1.429 . S
C746 H770 0.950 . S
C747 C764 1.574 . S
C747 C766 1.368 . S
C747 H771 0.949 . S
H748 C752 0.949 . S
C749 C750 1.349 . S
C749 C751 1.327 . S
C749 H772 0.950 . S
C750 C749 1.349 . S
C750 C762 1.349 . S
C751 C749 1.327 . S
C751 C767 1.429 . S
C751 H773 0.950 . S
C752 H748 0.949 . S
C752 C760 1.574 . S
C752 C768 1.368 . S
H753 C761 0.950 . S
H754 C759 0.950 . S
H755 C760 0.949 . S
H756 C762 0.950 1_556 S
H757 C763 0.950 . S
H758 C764 0.949 . S
C759 H754 0.950 . S
C759 C761 1.327 . S
C759 C765 1.429 . S
C760 C752 1.574 . S
C760 H755 0.949 . S
C760 C766 1.368 . S
C761 C745 1.349 . S
C761 H753 0.950 . S
C761 C759 1.327 . S
C762 C750 1.349 . S
C762 H756 0.950 1_554 S
C762 C763 1.327 . S
C763 H757 0.950 . S
C763 C762 1.327 . S
C763 C767 1.429 . S
C764 C747 1.574 . S
C764 H758 0.949 . S
C764 C768 1.368 . S
C765 C746 1.429 . S
C765 C759 1.429 . S
C765 C766 1.523 . S
C766 C747 1.368 . S
C766 C760 1.368 . S
C766 C765 1.523 . S
C767 C751 1.429 . S
C767 C763 1.429 . S
C767 C768 1.523 . S
C768 C752 1.368 . S
C768 C764 1.368 . S
C768 C767 1.523 . S
H769 C744 0.950 . S
H770 C746 0.950 . S
H771 C747 0.949 . S
H772 C749 0.950 . S
H773 C751 0.950 . S
C774 C775 1.349 . S
C774 C776 1.327 . S
C774 H799 0.950 . S
C775 C774 1.349 . S
C775 C791 1.349 . S
C776 C774 1.327 . S
C776 C795 1.429 . S
C776 H800 0.950 . S
C777 C794 1.574 . S
C777 C796 1.368 . S
C777 H801 0.949 . S
H778 C782 0.949 . S
C779 C780 1.349 . S
C779 C781 1.327 . S
C779 H802 0.950 . S
C780 C779 1.349 . S
C780 C792 1.349 . S
C781 C779 1.327 . S
C781 C797 1.429 . S
C781 H803 0.950 . S
C782 H778 0.949 . S
C782 C790 1.574 . S
C782 C798 1.368 . S
H783 C791 0.950 . S
H784 C789 0.950 . S
H785 C790 0.949 . S
H786 C792 0.950 . S
H787 C793 0.950 . S
H788 C794 0.949 . S
C789 H784 0.950 . S
C789 C791 1.327 . S
C789 C795 1.429 . S
C790 C782 1.574 . S
C790 H785 0.949 . S
C790 C796 1.368 . S
C791 C775 1.349 . S
C791 H783 0.950 . S
C791 C789 1.327 . S
C792 C780 1.349 . S
C792 H786 0.950 . S
C792 C793 1.327 . S
C793 H787 0.950 . S
C793 C792 1.327 . S
C793 C797 1.429 . S
C794 C777 1.574 . S
C794 H788 0.949 . S
C794 C798 1.368 . S
C795 C776 1.429 . S
C795 C789 1.429 . S
C795 C796 1.523 . S
C796 C777 1.368 . S
C796 C790 1.368 . S
C796 C795 1.523 . S
C797 C781 1.429 . S
C797 C793 1.429 . S
C797 C798 1.523 . S
C798 C782 1.368 . S
C798 C794 1.368 . S
C798 C797 1.523 . S
H799 C774 0.950 . S
H800 C776 0.950 . S
H801 C777 0.949 . S
H802 C779 0.950 . S
H803 C781 0.950 . S
C804 C805 1.349 . S
C804 C806 1.327 . S
C804 H829 0.950 . S
C805 C804 1.349 . S
C805 C821 1.349 . S
C806 C804 1.327 . S
C806 C825 1.429 . S
C806 H830 0.950 . S
C807 C824 1.574 . S
C807 C826 1.368 . S
C807 H831 0.949 . S
H808 C812 0.949 . S
C809 C810 1.349 . S
C809 C811 1.327 . S
C809 H832 0.950 . S
C810 C809 1.349 . S
C810 C822 1.349 . S
C811 C809 1.327 . S
C811 C827 1.429 . S
C811 H833 0.950 . S
C812 H808 0.949 . S
C812 C820 1.574 . S
C812 C828 1.368 . S
H813 C821 0.950 . S
H814 C819 0.950 . S
H815 C820 0.949 . S
H816 C822 0.950 . S
H817 C823 0.950 . S
H818 C824 0.949 . S
C819 H814 0.950 . S
C819 C821 1.327 . S
C819 C825 1.429 . S
C820 C812 1.574 . S
C820 H815 0.949 . S
C820 C826 1.368 . S
C821 C805 1.349 . S
C821 H813 0.950 . S
C821 C819 1.327 . S
C822 C810 1.349 . S
C822 H816 0.950 . S
C822 C823 1.327 . S
C823 H817 0.950 . S
C823 C822 1.327 . S
C823 C827 1.429 . S
C824 C807 1.574 . S
C824 H818 0.949 . S
C824 C828 1.368 . S
C825 C806 1.429 . S
C825 C819 1.429 . S
C825 C826 1.523 . S
C826 C807 1.368 . S
C826 C820 1.368 . S
C826 C825 1.523 . S
C827 C811 1.429 . S
C827 C823 1.429 . S
C827 C828 1.523 . S
C828 C812 1.368 . S
C828 C824 1.368 . S
C828 C827 1.523 . S
H829 C804 0.950 . S
H830 C806 0.950 . S
H831 C807 0.949 . S
H832 C809 0.950 . S
H833 C811 0.950 . S
C834 C835 1.349 . S
C834 C836 1.327 . S
C834 H859 0.950 . S
C835 C834 1.349 . S
C835 C851 1.349 . S
C836 C834 1.327 . S
C836 C855 1.429 . S
C836 H860 0.950 . S
C837 C854 1.574 . S
C837 C856 1.368 . S
C837 H861 0.949 . S
H838 C842 0.949 . S
C839 C840 1.349 . S
C839 C841 1.327 . S
C839 H862 0.950 . S
C840 C839 1.349 . S
C840 C852 1.349 . S
C841 C839 1.327 . S
C841 C857 1.429 . S
C841 H863 0.950 . S
C842 H838 0.949 . S
C842 C850 1.574 . S
C842 C858 1.368 . S
H843 C851 0.950 . S
H844 C849 0.950 . S
H845 C850 0.949 . S
H846 C852 0.950 . S
H847 C853 0.950 . S
H848 C854 0.949 . S
C849 H844 0.950 . S
C849 C851 1.327 . S
C849 C855 1.429 . S
C850 C842 1.574 . S
C850 H845 0.949 . S
C850 C856 1.368 . S
C851 C835 1.349 . S
C851 H843 0.950 . S
C851 C849 1.327 . S
C852 C840 1.349 . S
C852 H846 0.950 . S
C852 C853 1.327 . S
C853 H847 0.950 . S
C853 C852 1.327 . S
C853 C857 1.429 . S
C854 C837 1.574 . S
C854 H848 0.949 . S
C854 C858 1.368 . S
C855 C836 1.429 . S
C855 C849 1.429 . S
C855 C856 1.523 . S
C856 C837 1.368 . S
C856 C850 1.368 . S
C856 C855 1.523 . S
C857 C841 1.429 . S
C857 C853 1.429 . S
C857 C858 1.523 . S
C858 C842 1.368 . S
C858 C854 1.368 . S
C858 C857 1.523 . S
H859 C834 0.950 . S
H860 C836 0.950 . S
H861 C837 0.949 . S
H862 C839 0.950 . S
H863 C841 0.950 . S
C864 C865 1.349 . S
C864 C866 1.327 . S
C864 H889 0.950 . S
C865 C864 1.349 . S
C865 C881 1.349 . S
C866 C864 1.327 . S
C866 C885 1.429 . S
C866 H890 0.950 . S
C867 C884 1.574 1_455 S
C867 C886 1.368 . S
C867 H891 0.949 . S
H868 C872 0.949 . S
C869 C870 1.349 . S
C869 C871 1.327 . S
C869 H892 0.950 . S
C870 C869 1.349 . S
C870 C882 1.349 . S
C871 C869 1.327 . S
C871 C887 1.429 . S
C871 H893 0.950 . S
C872 H868 0.949 . S
C872 C880 1.574 1_655 S
C872 C888 1.368 . S
H873 C881 0.950 . S
H874 C879 0.950 . S
H875 C880 0.949 . S
H876 C882 0.950 . S
H877 C883 0.950 . S
H878 C884 0.949 . S
C879 H874 0.950 . S
C879 C881 1.327 . S
C879 C885 1.429 . S
C880 C872 1.574 1_455 S
C880 H875 0.949 . S
C880 C886 1.368 . S
C881 C865 1.349 . S
C881 H873 0.950 . S
C881 C879 1.327 . S
C882 C870 1.349 . S
C882 H876 0.950 . S
C882 C883 1.327 . S
C883 H877 0.950 . S
C883 C882 1.327 . S
C883 C887 1.429 . S
C884 C867 1.574 1_655 S
C884 H878 0.949 . S
C884 C888 1.368 . S
C885 C866 1.429 . S
C885 C879 1.429 . S
C885 C886 1.523 . S
C886 C867 1.368 . S
C886 C880 1.368 . S
C886 C885 1.523 . S
C887 C871 1.429 . S
C887 C883 1.429 . S
C887 C888 1.523 . S
C888 C872 1.368 . S
C888 C884 1.368 . S
C888 C887 1.523 . S
H889 C864 0.950 . S
H890 C866 0.950 . S
H891 C867 0.949 . S
H892 C869 0.950 . S
H893 C871 0.950 . S
C894 C895 1.349 . S
C894 C896 1.327 . S
C894 H919 0.950 . S
C895 C894 1.349 . S
C895 C911 1.349 . S
C896 C894 1.327 . S
C896 C915 1.429 . S
C896 H920 0.950 . S
C897 C914 1.574 . S
C897 C916 1.368 . S
C897 H921 0.949 . S
H898 C902 0.949 . S
C899 C900 1.349 . S
C899 C901 1.327 . S
C899 H922 0.950 . S
C900 C899 1.349 . S
C900 C912 1.349 . S
C901 C899 1.327 . S
C901 C917 1.429 . S
C901 H923 0.950 . S
C902 H898 0.949 . S
C902 C910 1.574 . S
C902 C918 1.368 . S
H903 C911 0.950 . S
H904 C909 0.950 . S
H905 C910 0.949 . S
H906 C912 0.950 . S
H907 C913 0.950 . S
H908 C914 0.949 . S
C909 H904 0.950 . S
C909 C911 1.327 . S
C909 C915 1.429 . S
C910 C902 1.574 . S
C910 H905 0.949 . S
C910 C916 1.368 . S
C911 C895 1.349 . S
C911 H903 0.950 . S
C911 C909 1.327 . S
C912 C900 1.349 . S
C912 H906 0.950 . S
C912 C913 1.327 . S
C913 H907 0.950 . S
C913 C912 1.327 . S
C913 C917 1.429 . S
C914 C897 1.574 . S
C914 H908 0.949 . S
C914 C918 1.368 . S
C915 C896 1.429 . S
C915 C909 1.429 . S
C915 C916 1.523 . S
C916 C897 1.368 . S
C916 C910 1.368 . S
C916 C915 1.523 . S
C917 C901 1.429 . S
C917 C913 1.429 . S
C917 C918 1.523 . S
C918 C902 1.368 . S
C918 C914 1.368 . S
C918 C917 1.523 . S
H919 C894 0.950 . S
H920 C896 0.950 . S
H921 C897 0.949 . S
H922 C899 0.950 . S
H923 C901 0.950 . S
C924 C925 1.349 . S
C924 C926 1.327 . S
C924 H949 0.950 . S
C925 C924 1.349 . S
C925 C941 1.349 . S
C926 C924 1.327 . S
C926 C945 1.429 . S
C926 H950 0.950 . S
C927 C944 1.574 . S
C927 C946 1.368 1_545 S
C927 H951 0.949 . S
H928 C932 0.949 . S
C929 C930 1.349 . S
C929 C931 1.327 . S
C929 H952 0.950 . S
C930 C929 1.349 . S
C930 C942 1.349 . S
C931 C929 1.327 . S
C931 C947 1.429 . S
C931 H953 0.950 . S
C932 H928 0.949 . S
C932 C940 1.574 . S
C932 C948 1.368 1_565 S
H933 C941 0.950 . S
H934 C939 0.950 . S
H935 C940 0.949 . S
H936 C942 0.950 . S
H937 C943 0.950 . S
H938 C944 0.949 . S
C939 H934 0.950 . S
C939 C941 1.327 . S
C939 C945 1.429 . S
C940 C932 1.574 . S
C940 H935 0.949 . S
C940 C946 1.368 . S
C941 C925 1.349 . S
C941 H933 0.950 . S
C941 C939 1.327 . S
C942 C930 1.349 . S
C942 H936 0.950 . S
C942 C943 1.327 . S
C943 H937 0.950 . S
C943 C942 1.327 . S
C943 C947 1.429 . S
C944 C927 1.574 . S
C944 H938 0.949 . S
C944 C948 1.368 . S
C945 C926 1.429 . S
C945 C939 1.429 . S
C945 C946 1.523 . S
C946 C927 1.368 1_565 S
C946 C940 1.368 . S
C946 C945 1.523 . S
C947 C931 1.429 . S
C947 C943 1.429 . S
C947 C948 1.523 . S
C948 C932 1.368 1_545 S
C948 C944 1.368 . S
C948 C947 1.523 . S
H949 C924 0.950 . S
H950 C926 0.950 . S
H951 C927 0.949 . S
H952 C929 0.950 . S
H953 C931 0.950 . S
C954 C955 1.349 . S
C954 C956 1.327 . S
C954 H979 0.950 . S
C955 C954 1.349 . S
C955 C971 1.349 . S
C956 C954 1.327 . S
C956 C975 1.429 . S
C956 H980 0.950 . S
C957 C974 1.574 . S
C957 C976 1.368 1_545 S
C957 H981 0.949 . S
H958 C962 0.949 . S
C959 C960 1.349 . S
C959 C961 1.327 . S
C959 H982 0.950 . S
C960 C959 1.349 . S
C960 C972 1.349 . S
C961 C959 1.327 . S
C961 C977 1.429 . S
C961 H983 0.950 . S
C962 H958 0.949 . S
C962 C970 1.574 . S
C962 C978 1.368 1_565 S
H963 C971 0.950 . S
H964 C969 0.950 . S
H965 C970 0.949 . S
H966 C972 0.950 . S
H967 C973 0.950 . S
H968 C974 0.949 . S
C969 H964 0.950 . S
C969 C971 1.327 . S
C969 C975 1.429 . S
C970 C962 1.574 . S
C970 H965 0.949 . S
C970 C976 1.368 . S
C971 C955 1.349 . S
C971 H963 0.950 . S
C971 C969 1.327 . S
C972 C960 1.349 . S
C972 H966 0.950 . S
C972 C973 1.327 . S
C973 H967 0.950 . S
C973 C972 1.327 . S
C973 C977 1.429 . S
C974 C957 1.574 . S
C974 H968 0.949 . S
C974 C978 1.368 . S
C975 C956 1.429 . S
C975 C969 1.429 . S
C975 C976 1.523 . S
C976 C957 1.368 1_565 S
C976 C970 1.368 . S
C976 C975 1.523 . S
C977 C961 1.429 . S
C977 C973 1.429 . S
C977 C978 1.523 . S
C978 C962 1.368 1_545 S
C978 C974 1.368 . S
C978 C977 1.523 . S
H979 C954 0.950 . S
H980 C956 0.950 . S
H981 C957 0.949 . S
H982 C959 0.950 . S
H983 C961 0.950 . S
C984 C985 1.349 . S
C984 C986 1.327 . S
C984 H1009 0.950 . S
C985 C984 1.349 . S
C985 C1001 1.349 . S
C986 C984 1.327 . S
C986 C1005 1.429 . S
C986 H1010 0.950 . S
C987 C1004 1.574 1_455 S
C987 C1006 1.368 . S
C987 H1011 0.949 . S
H988 C992 0.949 . S
C989 C990 1.349 . S
C989 C991 1.327 . S
C989 H1012 0.950 . S
C990 C989 1.349 . S
C990 C1002 1.349 . S
C991 C989 1.327 . S
C991 C1007 1.429 . S
C991 H1013 0.950 . S
C992 H988 0.949 . S
C992 C1000 1.574 1_655 S
C992 C1008 1.368 . S
H993 C1001 0.950 . S
H994 C999 0.950 . S
H995 C1000 0.949 . S
H996 C1002 0.950 . S
H997 C1003 0.950 . S
H998 C1004 0.949 . S
C999 H994 0.950 . S
C999 C1001 1.327 . S
C999 C1005 1.429 . S
C1000 C992 1.574 1_455 S
C1000 H995 0.949 . S
C1000 C1006 1.368 . S
C1001 C985 1.349 . S
C1001 H993 0.950 . S
C1001 C999 1.327 . S
C1002 C990 1.349 . S
C1002 H996 0.950 . S
C1002 C1003 1.327 . S
C1003 H997 0.950 . S
C1003 C1002 1.327 . S
C1003 C1007 1.429 . S
C1004 C987 1.574 1_655 S
C1004 H998 0.949 . S
C1004 C1008 1.368 . S
C1005 C986 1.429 . S
C1005 C999 1.429 . S
C1005 C1006 1.523 . S
C1006 C987 1.368 . S
C1006 C1000 1.368 . S
C1006 C1005 1.523 . S
C1007 C991 1.429 . S
C1007 C1003 1.429 . S
C1007 C1008 1.523 . S
C1008 C992 1.368 . S
C1008 C1004 1.368 . S
C1008 C1007 1.523 . S
H1009 C984 0.950 . S
H1010 C986 0.950 . S
H1011 C987 0.949 . S
H1012 C989 0.950 . S
H1013 C991 0.950 . S
C1014 C1015 1.349 . S
C1014 C1016 1.327 . S
C1014 H1039 0.950 . S
C1015 C1014 1.349 . S
C1015 C1031 1.349 . S
C1016 C1014 1.327 . S
C1016 C1035 1.429 . S
C1016 H1040 0.950 . S
C1017 C1034 1.574 . S
C1017 C1036 1.368 . S
C1017 H1041 0.949 . S
H1018 C1022 0.949 . S
C1019 C1020 1.349 . S
C1019 C1021 1.327 . S
C1019 H1042 0.950 . S
C1020 C1019 1.349 . S
C1020 C1032 1.349 . S
C1021 C1019 1.327 . S
C1021 C1037 1.429 . S
C1021 H1043 0.950 . S
C1022 H1018 0.949 . S
C1022 C1030 1.574 . S
C1022 C1038 1.368 . S
H1023 C1031 0.950 . S
H1024 C1029 0.950 . S
H1025 C1030 0.949 . S
H1026 C1032 0.950 . S
H1027 C1033 0.950 . S
H1028 C1034 0.949 . S
C1029 H1024 0.950 . S
C1029 C1031 1.327 . S
C1029 C1035 1.429 . S
C1030 C1022 1.574 . S
C1030 H1025 0.949 . S
C1030 C1036 1.368 . S
C1031 C1015 1.349 . S
C1031 H1023 0.950 . S
C1031 C1029 1.327 . S
C1032 C1020 1.349 . S
C1032 H1026 0.950 . S
C1032 C1033 1.327 . S
C1033 H1027 0.950 . S
C1033 C1032 1.327 . S
C1033 C1037 1.429 . S
C1034 C1017 1.574 . S
C1034 H1028 0.949 . S
C1034 C1038 1.368 . S
C1035 C1016 1.429 . S
C1035 C1029 1.429 . S
C1035 C1036 1.523 . S
C1036 C1017 1.368 . S
C1036 C1030 1.368 . S
C1036 C1035 1.523 . S
C1037 C1021 1.429 . S
C1037 C1033 1.429 . S
C1037 C1038 1.523 . S
C1038 C1022 1.368 . S
C1038 C1034 1.368 . S
C1038 C1037 1.523 . S
H1039 C1014 0.950 . S
H1040 C1016 0.950 . S
H1041 C1017 0.949 . S
H1042 C1019 0.950 . S
H1043 C1021 0.950 . S
C1044 C1045 1.349 . S
C1044 C1046 1.327 1_556 S
C1044 H1069 0.950 1_556 S
C1045 C1044 1.349 . S
C1045 C1061 1.349 . S
C1046 C1044 1.327 1_554 S
C1046 C1065 1.429 1_554 S
C1046 H1070 0.950 . S
C1047 C1064 1.574 . S
C1047 C1066 1.368 . S
C1047 H1071 0.949 . S
H1048 C1052 0.949 . S
C1049 C1050 1.349 . S
C1049 C1051 1.327 . S
C1049 H1072 0.950 . S
C1050 C1049 1.349 . S
C1050 C1062 1.349 . S
C1051 C1049 1.327 . S
C1051 C1067 1.429 . S
C1051 H1073 0.950 1_554 S
C1052 H1048 0.949 . S
C1052 C1060 1.574 . S
C1052 C1068 1.368 . S
H1053 C1061 0.950 . S
H1054 C1059 0.950 . S
H1055 C1060 0.949 . S
H1056 C1062 0.950 . S
H1057 C1063 0.950 . S
H1058 C1064 0.949 . S
C1059 H1054 0.950 . S
C1059 C1061 1.327 . S
C1059 C1065 1.429 . S
C1060 C1052 1.574 . S
C1060 H1055 0.949 . S
C1060 C1066 1.368 1_554 S
C1061 C1045 1.349 . S
C1061 H1053 0.950 . S
C1061 C1059 1.327 . S
C1062 C1050 1.349 . S
C1062 H1056 0.950 . S
C1062 C1063 1.327 . S
C1063 H1057 0.950 . S
C1063 C1062 1.327 . S
C1063 C1067 1.429 . S
C1064 C1047 1.574 . S
C1064 H1058 0.949 . S
C1064 C1068 1.368 1_556 S
C1065 C1046 1.429 1_556 S
C1065 C1059 1.429 . S
C1065 C1066 1.523 . S
C1066 C1047 1.368 . S
C1066 C1060 1.368 1_556 S
C1066 C1065 1.523 . S
C1067 C1051 1.429 . S
C1067 C1063 1.429 . S
C1067 C1068 1.523 . S
C1068 C1052 1.368 . S
C1068 C1064 1.368 1_554 S
C1068 C1067 1.523 . S
H1069 C1044 0.950 1_554 S
H1070 C1046 0.950 . S
H1071 C1047 0.949 . S
H1072 C1049 0.950 . S
H1073 C1051 0.950 1_556 S
C1074 C1075 1.349 1_554 S
C1074 C1076 1.327 . S
C1074 H1099 0.950 . S
C1075 C1074 1.349 1_556 S
C1075 C1091 1.349 . S
C1076 C1074 1.327 . S
C1076 C1095 1.429 1_554 S
C1076 H1100 0.950 . S
C1077 C1094 1.574 . S
C1077 C1096 1.368 . S
C1077 H1101 0.949 . S
H1078 C1082 0.949 . S
C1079 C1080 1.349 . S
C1079 C1081 1.327 . S
C1079 H1102 0.950 1_554 S
C1080 C1079 1.349 . S
C1080 C1092 1.349 . S
C1081 C1079 1.327 . S
C1081 C1097 1.429 . S
C1081 H1103 0.950 1_554 S
C1082 H1078 0.949 . S
C1082 C1090 1.574 . S
C1082 C1098 1.368 . S
H1083 C1091 0.950 . S
H1084 C1089 0.950 . S
H1085 C1090 0.949 . S
H1086 C1092 0.950 . S
H1087 C1093 0.950 . S
H1088 C1094 0.949 . S
C1089 H1084 0.950 . S
C1089 C1091 1.327 . S
C1089 C1095 1.429 . S
C1090 C1082 1.574 . S
C1090 H1085 0.949 . S
C1090 C1096 1.368 1_554 S
C1091 C1075 1.349 . S
C1091 H1083 0.950 . S
C1091 C1089 1.327 . S
C1092 C1080 1.349 . S
C1092 H1086 0.950 . S
C1092 C1093 1.327 . S
C1093 H1087 0.950 . S
C1093 C1092 1.327 . S
C1093 C1097 1.429 . S
C1094 C1077 1.574 . S
C1094 H1088 0.949 . S
C1094 C1098 1.368 1_556 S
C1095 C1076 1.429 1_556 S
C1095 C1089 1.429 . S
C1095 C1096 1.523 . S
C1096 C1077 1.368 . S
C1096 C1090 1.368 1_556 S
C1096 C1095 1.523 . S
C1097 C1081 1.429 . S
C1097 C1093 1.429 . S
C1097 C1098 1.523 . S
C1098 C1082 1.368 . S
C1098 C1094 1.368 1_554 S
C1098 C1097 1.523 . S
H1099 C1074 0.950 . S
H1100 C1076 0.950 . S
H1101 C1077 0.949 . S
H1102 C1079 0.950 1_556 S
H1103 C1081 0.950 1_556 S
C1104 C1105 1.349 1_554 S
C1104 C1106 1.327 . S
C1104 H1129 0.950 . S
C1105 C1104 1.349 1_556 S
C1105 C1121 1.349 . S
C1106 C1104 1.327 . S
C1106 C1125 1.429 1_554 S
C1106 H1130 0.950 . S
C1107 C1124 1.574 . S
C1107 C1126 1.368 . S
C1107 H1131 0.949 . S
H1108 C1112 0.949 . S
C1109 C1110 1.349 . S
C1109 C1111 1.334 . S
C1109 H1132 0.950 1_554 S
C1110 C1109 1.349 . S
C1110 C1122 1.349 . S
C1111 C1109 1.334 . S
C1111 C1127 1.445 . S
C1111 H1133 0.926 1_554 S
C1112 H1108 0.949 . S
C1112 C1120 1.574 . S
C1112 C1128 1.368 . S
H1113 C1121 0.950 . S
H1114 C1119 0.950 . S
H1115 C1120 0.949 . S
H1116 C1122 0.950 . S
H1117 C1123 0.950 . S
H1118 C1124 0.949 . S
C1119 H1114 0.950 . S
C1119 C1121 1.327 . S
C1119 C1125 1.429 . S
C1120 C1112 1.574 . S
C1120 H1115 0.949 . S
C1120 C1126 1.368 1_554 S
C1121 C1105 1.349 . S
C1121 H1113 0.950 . S
C1121 C1119 1.327 . S
C1122 C1110 1.349 . S
C1122 H1116 0.950 . S
C1122 C1123 1.327 . S
C1123 H1117 0.950 . S
C1123 C1122 1.327 . S
C1123 C1127 1.429 . S
C1124 C1107 1.574 . S
C1124 H1118 0.949 . S
C1124 C1128 1.368 1_556 S
C1125 C1106 1.429 1_556 S
C1125 C1119 1.429 . S
C1125 C1126 1.523 . S
C1126 C1107 1.368 . S
C1126 C1120 1.368 1_556 S
C1126 C1125 1.523 . S
C1127 C1111 1.445 . S
C1127 C1123 1.429 . S
C1127 C1128 1.523 . S
C1128 C1112 1.368 . S
C1128 C1124 1.368 1_554 S
C1128 C1127 1.523 . S
H1129 C1104 0.950 . S
H1130 C1106 0.950 . S
H1131 C1107 0.949 . S
H1132 C1109 0.950 1_556 S
H1133 C1111 0.926 1_556 S
C1134 C1135 1.349 . S
C1134 C1136 1.327 . S
C1134 H1159 0.950 . S
C1135 C1134 1.349 . S
C1135 C1151 1.349 . S
C1136 C1134 1.327 . S
C1136 C1155 1.429 . S
C1136 H1160 0.950 . S
C1137 C1154 1.574 . S
C1137 C1156 1.368 . S
C1137 H1161 0.949 . S
H1138 C1142 0.949 . S
C1139 C1140 1.349 . S
C1139 C1141 1.327 . S
C1139 H1162 0.950 . S
C1140 C1139 1.349 . S
C1140 C1152 1.349 . S
C1141 C1139 1.327 . S
C1141 C1157 1.429 . S
C1141 H1163 0.950 . S
C1142 H1138 0.949 . S
C1142 C1150 1.574 . S
C1142 C1158 1.368 . S
H1143 C1151 0.950 . S
H1144 C1149 0.950 . S
H1145 C1150 0.949 . S
H1146 C1152 0.950 . S
H1147 C1153 0.950 . S
H1148 C1154 0.949 . S
C1149 H1144 0.950 . S
C1149 C1151 1.327 . S
C1149 C1155 1.429 . S
C1150 C1142 1.574 . S
C1150 H1145 0.949 . S
C1150 C1156 1.368 . S
C1151 C1135 1.349 . S
C1151 H1143 0.950 . S
C1151 C1149 1.327 . S
C1152 C1140 1.349 . S
C1152 H1146 0.950 . S
C1152 C1153 1.327 . S
C1153 H1147 0.950 . S
C1153 C1152 1.327 . S
C1153 C1157 1.429 . S
C1154 C1137 1.574 . S
C1154 H1148 0.949 . S
C1154 C1158 1.368 . S
C1155 C1136 1.429 . S
C1155 C1149 1.429 . S
C1155 C1156 1.523 . S
C1156 C1137 1.368 . S
C1156 C1150 1.368 . S
C1156 C1155 1.523 . S
C1157 C1141 1.429 . S
C1157 C1153 1.429 . S
C1157 C1158 1.523 . S
C1158 C1142 1.368 . S
C1158 C1154 1.368 . S
C1158 C1157 1.523 . S
H1159 C1134 0.950 . S
H1160 C1136 0.950 . S
H1161 C1137 0.949 . S
H1162 C1139 0.950 . S
H1163 C1141 0.950 . S
C1164 C1165 1.349 . S
C1164 C1166 1.327 . S
C1164 H1189 0.950 . S
C1165 C1164 1.349 . S
C1165 C1181 1.349 . S
C1166 C1164 1.327 . S
C1166 C1185 1.429 . S
C1166 H1190 0.950 . S
C1167 C1184 1.574 . S
C1167 C1186 1.368 . S
C1167 H1191 0.949 . S
H1168 C1172 0.949 . S
C1169 C1170 1.349 . S
C1169 C1171 1.327 . S
C1169 H1192 0.950 . S
C1170 C1169 1.349 . S
C1170 C1182 1.349 . S
C1171 C1169 1.327 . S
C1171 C1187 1.429 . S
C1171 H1193 0.950 . S
C1172 H1168 0.949 . S
C1172 C1180 1.574 . S
C1172 C1188 1.368 . S
H1173 C1181 0.950 . S
H1174 C1179 0.950 . S
H1175 C1180 0.949 . S
H1176 C1182 0.950 . S
H1177 C1183 0.950 . S
H1178 C1184 0.949 . S
C1179 H1174 0.950 . S
C1179 C1181 1.327 . S
C1179 C1185 1.429 . S
C1180 C1172 1.574 . S
C1180 H1175 0.949 . S
C1180 C1186 1.368 . S
C1181 C1165 1.349 . S
C1181 H1173 0.950 . S
C1181 C1179 1.327 . S
C1182 C1170 1.349 . S
C1182 H1176 0.950 . S
C1182 C1183 1.327 . S
C1183 H1177 0.950 . S
C1183 C1182 1.327 . S
C1183 C1187 1.429 . S
C1184 C1167 1.574 . S
C1184 H1178 0.949 . S
C1184 C1188 1.368 . S
C1185 C1166 1.429 . S
C1185 C1179 1.429 . S
C1185 C1186 1.523 . S
C1186 C1167 1.368 . S
C1186 C1180 1.368 . S
C1186 C1185 1.523 . S
C1187 C1171 1.429 . S
C1187 C1183 1.429 . S
C1187 C1188 1.523 . S
C1188 C1172 1.368 . S
C1188 C1184 1.368 . S
C1188 C1187 1.523 . S
H1189 C1164 0.950 . S
H1190 C1166 0.950 . S
H1191 C1167 0.949 . S
H1192 C1169 0.950 . S
H1193 C1171 0.950 . S
C1194 C1195 1.349 . S
C1194 C1196 1.327 . S
C1194 H1219 0.950 . S
C1195 C1194 1.349 . S
C1195 C1211 1.349 . S
C1196 C1194 1.327 . S
C1196 C1215 1.429 . S
C1196 H1220 0.950 . S
C1197 C1214 1.574 . S
C1197 C1216 1.368 . S
C1197 H1221 0.949 . S
H1198 C1202 0.949 . S
C1199 C1200 1.349 . S
C1199 C1201 1.327 . S
C1199 H1222 0.950 . S
C1200 C1199 1.349 . S
C1200 C1212 1.349 . S
C1201 C1199 1.327 . S
C1201 C1217 1.429 . S
C1201 H1223 0.950 . S
C1202 H1198 0.949 . S
C1202 C1210 1.574 . S
C1202 C1218 1.368 . S
H1203 C1211 0.950 . S
H1204 C1209 0.950 . S
H1205 C1210 0.949 . S
H1206 C1212 0.950 . S
H1207 C1213 0.950 . S
H1208 C1214 0.949 . S
C1209 H1204 0.950 . S
C1209 C1211 1.327 . S
C1209 C1215 1.429 . S
C1210 C1202 1.574 . S
C1210 H1205 0.949 . S
C1210 C1216 1.368 . S
C1211 C1195 1.349 . S
C1211 H1203 0.950 . S
C1211 C1209 1.327 . S
C1212 C1200 1.349 . S
C1212 H1206 0.950 . S
C1212 C1213 1.327 . S
C1213 H1207 0.950 . S
C1213 C1212 1.327 . S
C1213 C1217 1.429 . S
C1214 C1197 1.574 . S
C1214 H1208 0.949 . S
C1214 C1218 1.368 . S
C1215 C1196 1.429 . S
C1215 C1209 1.429 . S
C1215 C1216 1.523 . S
C1216 C1197 1.368 . S
C1216 C1210 1.368 . S
C1216 C1215 1.523 . S
C1217 C1201 1.429 . S
C1217 C1213 1.429 . S
C1217 C1218 1.523 . S
C1218 C1202 1.368 . S
C1218 C1214 1.368 . S
C1218 C1217 1.523 . S
H1219 C1194 0.950 . S
H1220 C1196 0.950 . S
H1221 C1197 0.949 . S
H1222 C1199 0.950 . S
H1223 C1201 0.950 . S
C1224 C1225 1.349 . S
C1224 C1226 1.327 . S
C1224 H1249 0.950 . S
C1225 C1224 1.349 . S
C1225 C1241 1.349 . S
C1226 C1224 1.327 . S
C1226 C1245 1.429 . S
C1226 H1250 0.950 . S
C1227 C1244 1.574 . S
C1227 C1246 1.368 1_556 S
C1227 H1251 0.949 . S
H1228 C1232 0.949 . S
C1229 C1230 1.349 . S
C1229 C1231 1.327 . S
C1229 H1252 0.950 . S
C1230 C1229 1.349 . S
C1230 C1242 1.349 . S
C1231 C1229 1.327 . S
C1231 C1247 1.429 . S
C1231 H1253 0.950 . S
C1232 H1228 0.949 . S
C1232 C1240 1.574 . S
C1232 C1248 1.368 1_554 S
H1233 C1241 0.939 1_556 S
H1234 C1239 0.972 . S
H1235 C1240 0.949 . S
H1236 C1242 0.950 . S
H1237 C1243 0.950 1_554 S
H1238 C1244 0.949 . S
C1239 H1234 0.972 . S
C1239 C1241 1.318 1_556 S
C1239 C1245 1.417 1_556 S
C1240 C1232 1.574 . S
C1240 H1235 0.949 . S
C1240 C1246 1.368 . S
C1241 C1225 1.349 . S
C1241 H1233 0.939 1_554 S
C1241 C1239 1.318 1_554 S
C1242 C1230 1.349 . S
C1242 H1236 0.950 . S
C1242 C1243 1.327 . S
C1243 H1237 0.950 1_556 S
C1243 C1242 1.327 . S
C1243 C1247 1.429 . S
C1244 C1227 1.574 . S
C1244 H1238 0.949 . S
C1244 C1248 1.368 . S
C1245 C1226 1.429 . S
C1245 C1239 1.417 1_554 S
C1245 C1246 1.523 . S
C1246 C1227 1.368 1_554 S
C1246 C1240 1.368 . S
C1246 C1245 1.523 . S
C1247 C1231 1.429 . S
C1247 C1243 1.429 . S
C1247 C1248 1.523 . S
C1248 C1232 1.368 1_556 S
C1248 C1244 1.368 . S
C1248 C1247 1.523 . S
H1249 C1224 0.950 . S
H1250 C1226 0.950 . S
H1251 C1227 0.949 . S
H1252 C1229 0.950 . S
H1253 C1231 0.950 . S
C1254 C1255 1.349 . S
C1254 C1256 1.327 . S
C1254 H1279 0.950 . S
C1255 C1254 1.349 . S
C1255 C1271 1.349 . S
C1256 C1254 1.327 . S
C1256 C1275 1.429 . S
C1256 H1280 0.950 . S
C1257 C1274 1.574 . S
C1257 C1276 1.368 1_554 S
C1257 H1281 0.949 . S
H1258 C1262 0.949 . S
C1259 C1260 1.349 . S
C1259 C1261 1.327 . S
C1259 H1282 0.950 . S
C1260 C1259 1.349 . S
C1260 C1272 1.349 1_554 S
C1261 C1259 1.327 . S
C1261 C1277 1.429 . S
C1261 H1283 0.950 . S
C1262 H1258 0.949 . S
C1262 C1270 1.574 . S
C1262 C1278 1.368 1_556 S
H1263 C1271 0.950 1_554 S
H1264 C1269 0.954 1_554 S
H1265 C1270 0.949 . S
H1266 C1272 0.950 . S
H1267 C1273 0.950 . S
H1268 C1274 0.949 . S
C1269 H1264 0.954 1_556 S
C1269 C1271 1.326 . S
C1269 C1275 1.426 . S
C1270 C1262 1.574 . S
C1270 H1265 0.949 . S
C1270 C1276 1.368 . S
C1271 C1255 1.349 . S
C1271 H1263 0.950 1_556 S
C1271 C1269 1.326 . S
C1272 C1260 1.349 1_556 S
C1272 H1266 0.950 . S
C1272 C1273 1.327 . S
C1273 H1267 0.950 . S
C1273 C1272 1.327 . S
C1273 C1277 1.429 1_556 S
C1274 C1257 1.574 . S
C1274 H1268 0.949 . S
C1274 C1278 1.368 . S
C1275 C1256 1.429 . S
C1275 C1269 1.426 . S
C1275 C1276 1.523 . S
C1276 C1257 1.368 1_556 S
C1276 C1270 1.368 . S
C1276 C1275 1.523 . S
C1277 C1261 1.429 . S
C1277 C1273 1.429 1_554 S
C1277 C1278 1.523 . S
C1278 C1262 1.368 1_554 S
C1278 C1274 1.368 . S
C1278 C1277 1.523 . S
H1279 C1254 0.950 . S
H1280 C1256 0.950 . S
H1281 C1257 0.949 . S
H1282 C1259 0.950 . S
H1283 C1261 0.950 . S
C1284 C1285 1.349 . S
C1284 C1286 1.327 . S
C1284 H1309 0.950 . S
C1285 C1284 1.349 . S
C1285 C1301 1.349 . S
C1286 C1284 1.327 . S
C1286 C1305 1.429 . S
C1286 H1310 0.950 . S
C1287 C1304 1.574 . S
C1287 C1306 1.368 1_556 S
C1287 H1311 0.949 . S
H1288 C1292 0.948 1_554 S
C1289 C1290 1.349 . S
C1289 C1291 1.327 . S
C1289 H1312 0.950 . S
C1290 C1289 1.349 . S
C1290 C1302 1.349 . S
C1291 C1289 1.327 . S
C1291 C1307 1.429 . S
C1291 H1313 0.950 . S
C1292 H1288 0.948 1_556 S
C1292 C1300 1.572 1_556 S
C1292 C1308 1.372 . S
H1293 C1301 0.950 . S
H1294 C1299 0.950 1_556 S
H1295 C1300 0.949 . S
H1296 C1302 0.950 . S
H1297 C1303 0.950 . S
H1298 C1304 0.949 . S
C1299 H1294 0.950 1_554 S
C1299 C1301 1.327 . S
C1299 C1305 1.429 . S
C1300 C1292 1.572 1_554 S
C1300 H1295 0.949 . S
C1300 C1306 1.368 . S
C1301 C1285 1.349 . S
C1301 H1293 0.950 . S
C1301 C1299 1.327 . S
C1302 C1290 1.349 . S
C1302 H1296 0.950 . S
C1302 C1303 1.327 . S
C1303 H1297 0.950 . S
C1303 C1302 1.327 . S
C1303 C1307 1.429 . S
C1304 C1287 1.574 . S
C1304 H1298 0.949 . S
C1304 C1308 1.368 . S
C1305 C1286 1.429 . S
C1305 C1299 1.429 . S
C1305 C1306 1.523 . S
C1306 C1287 1.368 1_554 S
C1306 C1300 1.368 . S
C1306 C1305 1.523 . S
C1307 C1291 1.429 . S
C1307 C1303 1.429 . S
C1307 C1308 1.523 . S
C1308 C1292 1.372 . S
C1308 C1304 1.368 . S
C1308 C1307 1.523 . S
H1309 C1284 0.950 . S
H1310 C1286 0.950 . S
H1311 C1287 0.949 . S
H1312 C1289 0.950 . S
H1313 C1291 0.950 . S
C1314 C1315 1.349 . S
C1314 C1316 1.327 . S
C1314 H1339 0.950 . S
C1315 C1314 1.349 . S
C1315 C1331 1.349 . S
C1316 C1314 1.327 . S
C1316 C1335 1.429 . S
C1316 H1340 0.950 . S
C1317 C1334 1.574 . S
C1317 C1336 1.368 . S
C1317 H1341 0.949 . S
H1318 C1322 0.949 . S
C1319 C1320 1.349 . S
C1319 C1321 1.327 . S
C1319 H1342 0.950 . S
C1320 C1319 1.349 . S
C1320 C1332 1.349 . S
C1321 C1319 1.327 . S
C1321 C1337 1.429 . S
C1321 H1343 0.950 . S
C1322 H1318 0.949 . S
C1322 C1330 1.574 . S
C1322 C1338 1.368 . S
H1323 C1331 0.950 . S
H1324 C1329 0.950 . S
H1325 C1330 0.949 . S
H1326 C1332 0.950 . S
H1327 C1333 0.950 . S
H1328 C1334 0.949 . S
C1329 H1324 0.950 . S
C1329 C1331 1.327 . S
C1329 C1335 1.429 . S
C1330 C1322 1.574 . S
C1330 H1325 0.949 . S
C1330 C1336 1.368 . S
C1331 C1315 1.349 . S
C1331 H1323 0.950 . S
C1331 C1329 1.327 . S
C1332 C1320 1.349 . S
C1332 H1326 0.950 . S
C1332 C1333 1.327 . S
C1333 H1327 0.950 . S
C1333 C1332 1.327 . S
C1333 C1337 1.429 . S
C1334 C1317 1.574 . S
C1334 H1328 0.949 . S
C1334 C1338 1.368 . S
C1335 C1316 1.429 . S
C1335 C1329 1.429 . S
C1335 C1336 1.523 . S
C1336 C1317 1.368 . S
C1336 C1330 1.368 . S
C1336 C1335 1.523 . S
C1337 C1321 1.429 . S
C1337 C1333 1.429 . S
C1337 C1338 1.523 . S
C1338 C1322 1.368 . S
C1338 C1334 1.368 . S
C1338 C1337 1.523 . S
H1339 C1314 0.950 . S
H1340 C1316 0.950 . S
H1341 C1317 0.949 . S
H1342 C1319 0.950 . S
H1343 C1321 0.950 . S
C1344 C1345 1.349 . S
C1344 C1346 1.327 . S
C1344 H1369 0.950 . S
C1345 C1344 1.349 . S
C1345 C1361 1.349 . S
C1346 C1344 1.327 . S
C1346 C1365 1.429 . S
C1346 H1370 0.950 . S
C1347 C1364 1.574 . S
C1347 C1366 1.368 . S
C1347 H1371 0.949 . S
H1348 C1352 0.949 . S
C1349 C1350 1.349 . S
C1349 C1351 1.327 . S
C1349 H1372 0.950 . S
C1350 C1349 1.349 . S
C1350 C1362 1.349 . S
C1351 C1349 1.327 . S
C1351 C1367 1.429 . S
C1351 H1373 0.950 . S
C1352 H1348 0.949 . S
C1352 C1360 1.574 . S
C1352 C1368 1.368 . S
H1353 C1361 0.950 . S
H1354 C1359 0.950 . S
H1355 C1360 0.949 . S
H1356 C1362 0.950 . S
H1357 C1363 0.950 . S
H1358 C1364 0.949 . S
C1359 H1354 0.950 . S
C1359 C1361 1.327 . S
C1359 C1365 1.429 . S
C1360 C1352 1.574 . S
C1360 H1355 0.949 . S
C1360 C1366 1.368 . S
C1361 C1345 1.349 . S
C1361 H1353 0.950 . S
C1361 C1359 1.327 . S
C1362 C1350 1.349 . S
C1362 H1356 0.950 . S
C1362 C1363 1.327 . S
C1363 H1357 0.950 . S
C1363 C1362 1.327 . S
C1363 C1367 1.429 . S
C1364 C1347 1.574 . S
C1364 H1358 0.949 . S
C1364 C1368 1.368 . S
C1365 C1346 1.429 . S
C1365 C1359 1.429 . S
C1365 C1366 1.523 . S
C1366 C1347 1.368 . S
C1366 C1360 1.368 . S
C1366 C1365 1.523 . S
C1367 C1351 1.429 . S
C1367 C1363 1.429 . S
C1367 C1368 1.523 . S
C1368 C1352 1.368 . S
C1368 C1364 1.368 . S
C1368 C1367 1.523 . S
H1369 C1344 0.950 . S
H1370 C1346 0.950 . S
H1371 C1347 0.949 . S
H1372 C1349 0.950 . S
H1373 C1351 0.950 . S
C1374 C1375 1.349 . S
C1374 C1376 1.327 . S
C1374 H1399 0.950 . S
C1375 C1374 1.349 . S
C1375 C1391 1.349 . S
C1376 C1374 1.327 . S
C1376 C1395 1.429 . S
C1376 H1400 0.950 . S
C1377 C1394 1.574 . S
C1377 C1396 1.368 . S
C1377 H1401 0.949 . S
H1378 C1382 0.949 . S
C1379 C1380 1.349 . S
C1379 C1381 1.327 . S
C1379 H1402 0.950 . S
C1380 C1379 1.349 . S
C1380 C1392 1.349 . S
C1381 C1379 1.327 . S
C1381 C1397 1.429 . S
C1381 H1403 0.950 . S
C1382 H1378 0.949 . S
C1382 C1390 1.574 . S
C1382 C1398 1.368 . S
H1383 C1391 0.950 . S
H1384 C1389 0.950 . S
H1385 C1390 0.949 . S
H1386 C1392 0.950 . S
H1387 C1393 0.950 . S
H1388 C1394 0.949 . S
C1389 H1384 0.950 . S
C1389 C1391 1.327 . S
C1389 C1395 1.429 . S
C1390 C1382 1.574 . S
C1390 H1385 0.949 . S
C1390 C1396 1.368 . S
C1391 C1375 1.349 . S
C1391 H1383 0.950 . S
C1391 C1389 1.327 . S
C1392 C1380 1.349 . S
C1392 H1386 0.950 . S
C1392 C1393 1.327 . S
C1393 H1387 0.950 . S
C1393 C1392 1.327 . S
C1393 C1397 1.429 . S
C1394 C1377 1.574 . S
C1394 H1388 0.949 . S
C1394 C1398 1.368 . S
C1395 C1376 1.429 . S
C1395 C1389 1.429 . S
C1395 C1396 1.523 . S
C1396 C1377 1.368 . S
C1396 C1390 1.368 . S
C1396 C1395 1.523 . S
C1397 C1381 1.429 . S
C1397 C1393 1.429 . S
C1397 C1398 1.523 . S
C1398 C1382 1.368 . S
C1398 C1394 1.368 . S
C1398 C1397 1.523 . S
H1399 C1374 0.950 . S
H1400 C1376 0.950 . S
H1401 C1377 0.949 . S
H1402 C1379 0.950 . S
H1403 C1381 0.950 . S
C1404 C1405 1.349 . S
C1404 C1406 1.327 . S
C1404 H1429 0.950 . S
C1405 C1404 1.349 . S
C1405 C1421 1.349 . S
C1406 C1404 1.327 . S
C1406 C1425 1.429 . S
C1406 H1430 0.950 . S
C1407 C1424 1.574 . S
C1407 C1426 1.368 . S
C1407 H1431 0.949 . S
H1408 C1412 0.949 . S
C1409 C1410 1.349 . S
C1409 C1411 1.327 . S
C1409 H1432 0.950 . S
C1410 C1409 1.349 . S
C1410 C1422 1.349 . S
C1411 C1409 1.327 . S
C1411 C1427 1.429 . S
C1411 H1433 0.950 . S
C1412 H1408 0.949 . S
C1412 C1420 1.574 . S
C1412 C1428 1.368 . S
H1413 C1421 0.950 . S
H1414 C1419 0.950 . S
H1415 C1420 0.949 . S
H1416 C1422 0.950 . S
H1417 C1423 0.950 . S
H1418 C1424 0.949 . S
C1419 H1414 0.950 . S
C1419 C1421 1.327 . S
C1419 C1425 1.429 . S
C1420 C1412 1.574 . S
C1420 H1415 0.949 . S
C1420 C1426 1.368 . S
C1421 C1405 1.349 . S
C1421 H1413 0.950 . S
C1421 C1419 1.327 . S
C1422 C1410 1.349 . S
C1422 H1416 0.950 . S
C1422 C1423 1.327 . S
C1423 H1417 0.950 . S
C1423 C1422 1.327 . S
C1423 C1427 1.429 . S
C1424 C1407 1.574 . S
C1424 H1418 0.949 . S
C1424 C1428 1.368 . S
C1425 C1406 1.429 . S
C1425 C1419 1.429 . S
C1425 C1426 1.523 . S
C1426 C1407 1.368 . S
C1426 C1420 1.368 . S
C1426 C1425 1.523 . S
C1427 C1411 1.429 . S
C1427 C1423 1.429 . S
C1427 C1428 1.523 . S
C1428 C1412 1.368 . S
C1428 C1424 1.368 . S
C1428 C1427 1.523 . S
H1429 C1404 0.950 . S
H1430 C1406 0.950 . S
H1431 C1407 0.949 . S
H1432 C1409 0.950 . S
H1433 C1411 0.950 . S
C1434 C1435 1.349 . S
C1434 C1436 1.327 . S
C1434 H1459 0.950 . S
C1435 C1434 1.349 . S
C1435 C1451 1.349 . S
C1436 C1434 1.327 . S
C1436 C1455 1.429 . S
C1436 H1460 0.950 . S
C1437 C1454 1.574 . S
C1437 C1456 1.368 . S
C1437 H1461 0.949 . S
H1438 C1442 0.949 . S
C1439 C1440 1.349 . S
C1439 C1441 1.327 . S
C1439 H1462 0.950 . S
C1440 C1439 1.349 . S
C1440 C1452 1.349 . S
C1441 C1439 1.327 . S
C1441 C1457 1.429 . S
C1441 H1463 0.950 . S
C1442 H1438 0.949 . S
C1442 C1450 1.574 . S
C1442 C1458 1.368 . S
H1443 C1451 0.950 . S
H1444 C1449 0.950 . S
H1445 C1450 0.949 . S
H1446 C1452 0.950 . S
H1447 C1453 0.950 . S
H1448 C1454 0.949 . S
C1449 H1444 0.950 . S
C1449 C1451 1.327 . S
C1449 C1455 1.429 . S
C1450 C1442 1.574 . S
C1450 H1445 0.949 . S
C1450 C1456 1.368 . S
C1451 C1435 1.349 . S
C1451 H1443 0.950 . S
C1451 C1449 1.327 . S
C1452 C1440 1.349 . S
C1452 H1446 0.950 . S
C1452 C1453 1.327 . S
C1453 H1447 0.950 . S
C1453 C1452 1.327 . S
C1453 C1457 1.429 . S
C1454 C1437 1.574 . S
C1454 H1448 0.949 . S
C1454 C1458 1.368 . S
C1455 C1436 1.429 . S
C1455 C1449 1.429 . S
C1455 C1456 1.523 . S
C1456 C1437 1.368 . S
C1456 C1450 1.368 . S
C1456 C1455 1.523 . S
C1457 C1441 1.429 . S
C1457 C1453 1.429 . S
C1457 C1458 1.523 . S
C1458 C1442 1.368 . S
C1458 C1454 1.368 . S
C1458 C1457 1.523 . S
H1459 C1434 0.950 . S
H1460 C1436 0.950 . S
H1461 C1437 0.949 . S
H1462 C1439 0.950 . S
H1463 C1441 0.950 . S
C1464 C1465 1.349 . S
C1464 C1466 1.327 . S
C1464 H1489 0.950 . S
C1465 C1464 1.349 . S
C1465 C1481 1.349 . S
C1466 C1464 1.327 . S
C1466 C1485 1.429 . S
C1466 H1490 0.950 . S
C1467 C1484 1.574 . S
C1467 C1486 1.368 . S
C1467 H1491 0.949 . S
H1468 C1472 0.949 . S
C1469 C1470 1.349 . S
C1469 C1471 1.327 . S
C1469 H1492 0.950 . S
C1470 C1469 1.349 . S
C1470 C1482 1.349 . S
C1471 C1469 1.327 . S
C1471 C1487 1.429 . S
C1471 H1493 0.950 . S
C1472 H1468 0.949 . S
C1472 C1480 1.574 . S
C1472 C1488 1.368 . S
H1473 C1481 0.950 . S
H1474 C1479 0.950 . S
H1475 C1480 0.949 . S
H1476 C1482 0.950 . S
H1477 C1483 0.950 . S
H1478 C1484 0.949 . S
C1479 H1474 0.950 . S
C1479 C1481 1.327 . S
C1479 C1485 1.429 . S
C1480 C1472 1.574 . S
C1480 H1475 0.949 . S
C1480 C1486 1.368 . S
C1481 C1465 1.349 . S
C1481 H1473 0.950 . S
C1481 C1479 1.327 . S
C1482 C1470 1.349 . S
C1482 H1476 0.950 . S
C1482 C1483 1.327 . S
C1483 H1477 0.950 . S
C1483 C1482 1.327 . S
C1483 C1487 1.429 . S
C1484 C1467 1.574 . S
C1484 H1478 0.949 . S
C1484 C1488 1.368 . S
C1485 C1466 1.429 . S
C1485 C1479 1.429 . S
C1485 C1486 1.523 . S
C1486 C1467 1.368 . S
C1486 C1480 1.368 . S
C1486 C1485 1.523 . S
C1487 C1471 1.429 . S
C1487 C1483 1.429 . S
C1487 C1488 1.523 . S
C1488 C1472 1.368 . S
C1488 C1484 1.368 . S
C1488 C1487 1.523 . S
H1489 C1464 0.950 . S
H1490 C1466 0.950 . S
H1491 C1467 0.949 . S
H1492 C1469 0.950 . S
H1493 C1471 0.950 . S
C1494 C1495 1.349 . S
C1494 C1496 1.327 . S
C1494 H1519 0.950 . S
C1495 C1494 1.349 . S
C1495 C1511 1.349 . S
C1496 C1494 1.327 . S
C1496 C1515 1.429 . S
C1496 H1520 0.950 . S
C1497 C1514 1.574 . S
C1497 C1516 1.368 . S
C1497 H1521 0.949 . S
H1498 C1502 0.949 . S
C1499 C1500 1.349 . S
C1499 C1501 1.327 . S
C1499 H1522 0.950 . S
C1500 C1499 1.349 . S
C1500 C1512 1.349 . S
C1501 C1499 1.327 . S
C1501 C1517 1.429 . S
C1501 H1523 0.950 . S
C1502 H1498 0.949 . S
C1502 C1510 1.574 . S
C1502 C1518 1.368 . S
H1503 C1511 0.950 . S
H1504 C1509 0.950 . S
H1505 C1510 0.949 . S
H1506 C1512 0.950 . S
H1507 C1513 0.950 . S
H1508 C1514 0.949 . S
C1509 H1504 0.950 . S
C1509 C1511 1.327 . S
C1509 C1515 1.429 . S
C1510 C1502 1.574 . S
C1510 H1505 0.949 . S
C1510 C1516 1.368 . S
C1511 C1495 1.349 . S
C1511 H1503 0.950 . S
C1511 C1509 1.327 . S
C1512 C1500 1.349 . S
C1512 H1506 0.950 . S
C1512 C1513 1.327 . S
C1513 H1507 0.950 . S
C1513 C1512 1.327 . S
C1513 C1517 1.429 . S
C1514 C1497 1.574 . S
C1514 H1508 0.949 . S
C1514 C1518 1.368 . S
C1515 C1496 1.429 . S
C1515 C1509 1.429 . S
C1515 C1516 1.523 . S
C1516 C1497 1.368 . S
C1516 C1510 1.368 . S
C1516 C1515 1.523 . S
C1517 C1501 1.429 . S
C1517 C1513 1.429 . S
C1517 C1518 1.523 . S
C1518 C1502 1.368 . S
C1518 C1514 1.368 . S
C1518 C1517 1.523 . S
H1519 C1494 0.950 . S
H1520 C1496 0.950 . S
H1521 C1497 0.949 . S
H1522 C1499 0.950 . S
H1523 C1501 0.950 . S
C1524 C1525 1.349 . S
C1524 C1526 1.327 . S
C1524 H1549 0.950 . S
C1525 C1524 1.349 . S
C1525 C1541 1.349 . S
C1526 C1524 1.327 . S
C1526 C1545 1.429 . S
C1526 H1550 0.950 . S
C1527 C1544 1.574 . S
C1527 C1546 1.368 . S
C1527 H1551 0.949 . S
H1528 C1532 0.949 . S
C1529 C1530 1.349 . S
C1529 C1531 1.327 . S
C1529 H1552 0.950 . S
C1530 C1529 1.349 . S
C1530 C1542 1.349 . S
C1531 C1529 1.327 . S
C1531 C1547 1.429 . S
C1531 H1553 0.950 . S
C1532 H1528 0.949 . S
C1532 C1540 1.574 . S
C1532 C1548 1.368 . S
H1533 C1541 0.950 . S
H1534 C1539 0.950 . S
H1535 C1540 0.949 . S
H1536 C1542 0.950 . S
H1537 C1543 0.950 . S
H1538 C1544 0.949 . S
C1539 H1534 0.950 . S
C1539 C1541 1.327 . S
C1539 C1545 1.429 . S
C1540 C1532 1.574 . S
C1540 H1535 0.949 . S
C1540 C1546 1.368 . S
C1541 C1525 1.349 . S
C1541 H1533 0.950 . S
C1541 C1539 1.327 . S
C1542 C1530 1.349 . S
C1542 H1536 0.950 . S
C1542 C1543 1.327 . S
C1543 H1537 0.950 . S
C1543 C1542 1.327 . S
C1543 C1547 1.429 . S
C1544 C1527 1.574 . S
C1544 H1538 0.949 . S
C1544 C1548 1.368 . S
C1545 C1526 1.429 . S
C1545 C1539 1.429 . S
C1545 C1546 1.523 . S
C1546 C1527 1.368 . S
C1546 C1540 1.368 . S
C1546 C1545 1.523 . S
C1547 C1531 1.429 . S
C1547 C1543 1.429 . S
C1547 C1548 1.523 . S
C1548 C1532 1.368 . S
C1548 C1544 1.368 . S
C1548 C1547 1.523 . S
H1549 C1524 0.950 . S
H1550 C1526 0.950 . S
H1551 C1527 0.949 . S
H1552 C1529 0.950 . S
H1553 C1531 0.950 . S
C1554 C1555 1.349 . S
C1554 C1556 1.327 . S
C1554 H1579 0.950 . S
C1555 C1554 1.349 . S
C1555 C1571 1.349 . S
C1556 C1554 1.327 . S
C1556 C1575 1.429 . S
C1556 H1580 0.950 . S
C1557 C1574 1.574 . S
C1557 C1576 1.368 . S
C1557 H1581 0.949 . S
H1558 C1562 0.949 . S
C1559 C1560 1.349 . S
C1559 C1561 1.327 . S
C1559 H1582 0.950 . S
C1560 C1559 1.349 . S
C1560 C1572 1.349 . S
C1561 C1559 1.327 . S
C1561 C1577 1.429 . S
C1561 H1583 0.950 . S
C1562 H1558 0.949 . S
C1562 C1570 1.574 . S
C1562 C1578 1.368 . S
H1563 C1571 0.950 . S
H1564 C1569 0.950 . S
H1565 C1570 0.949 . S
H1566 C1572 0.950 . S
H1567 C1573 0.950 . S
H1568 C1574 0.949 . S
C1569 H1564 0.950 . S
C1569 C1571 1.327 . S
C1569 C1575 1.429 . S
C1570 C1562 1.574 . S
C1570 H1565 0.949 . S
C1570 C1576 1.368 . S
C1571 C1555 1.349 . S
C1571 H1563 0.950 . S
C1571 C1569 1.327 . S
C1572 C1560 1.349 . S
C1572 H1566 0.950 . S
C1572 C1573 1.327 . S
C1573 H1567 0.950 . S
C1573 C1572 1.327 . S
C1573 C1577 1.429 . S
C1574 C1557 1.574 . S
C1574 H1568 0.949 . S
C1574 C1578 1.368 . S
C1575 C1556 1.429 . S
C1575 C1569 1.429 . S
C1575 C1576 1.523 . S
C1576 C1557 1.368 . S
C1576 C1570 1.368 . S
C1576 C1575 1.523 . S
C1577 C1561 1.429 . S
C1577 C1573 1.429 . S
C1577 C1578 1.523 . S
C1578 C1562 1.368 . S
C1578 C1574 1.368 . S
C1578 C1577 1.523 . S
H1579 C1554 0.950 . S
H1580 C1556 0.950 . S
H1581 C1557 0.949 . S
H1582 C1559 0.950 . S
H1583 C1561 0.950 . S
C1584 C1585 1.349 . S
C1584 C1586 1.327 . S
C1584 H1609 0.950 . S
C1585 C1584 1.349 . S
C1585 C1601 1.349 . S
C1586 C1584 1.327 . S
C1586 C1605 1.429 . S
C1586 H1610 0.950 . S
C1587 C1604 1.574 . S
C1587 C1606 1.368 . S
C1587 H1611 0.949 . S
H1588 C1592 0.949 . S
C1589 C1590 1.349 . S
C1589 C1591 1.327 . S
C1589 H1612 0.950 . S
C1590 C1589 1.349 . S
C1590 C1602 1.349 . S
C1591 C1589 1.327 . S
C1591 C1607 1.429 . S
C1591 H1613 0.950 . S
C1592 H1588 0.949 . S
C1592 C1600 1.574 . S
C1592 C1608 1.368 . S
H1593 C1601 0.950 . S
H1594 C1599 0.950 . S
H1595 C1600 0.949 . S
H1596 C1602 0.950 . S
H1597 C1603 0.950 . S
H1598 C1604 0.949 . S
C1599 H1594 0.950 . S
C1599 C1601 1.327 . S
C1599 C1605 1.429 . S
C1600 C1592 1.574 . S
C1600 H1595 0.949 . S
C1600 C1606 1.368 . S
C1601 C1585 1.349 . S
C1601 H1593 0.950 . S
C1601 C1599 1.327 . S
C1602 C1590 1.349 . S
C1602 H1596 0.950 . S
C1602 C1603 1.327 . S
C1603 H1597 0.950 . S
C1603 C1602 1.327 . S
C1603 C1607 1.429 . S
C1604 C1587 1.574 . S
C1604 H1598 0.949 . S
C1604 C1608 1.368 . S
C1605 C1586 1.429 . S
C1605 C1599 1.429 . S
C1605 C1606 1.523 . S
C1606 C1587 1.368 . S
C1606 C1600 1.368 . S
C1606 C1605 1.523 . S
C1607 C1591 1.429 . S
C1607 C1603 1.429 . S
C1607 C1608 1.523 . S
C1608 C1592 1.368 . S
C1608 C1604 1.368 . S
C1608 C1607 1.523 . S
H1609 C1584 0.950 . S
H1610 C1586 0.950 . S
H1611 C1587 0.949 . S
H1612 C1589 0.950 . S
H1613 C1591 0.950 . S
C1614 C1615 1.349 . S
C1614 C1616 1.327 . S
C1614 H1639 0.950 . S
C1615 C1614 1.349 . S
C1615 C1631 1.349 . S
C1616 C1614 1.327 . S
C1616 C1635 1.429 . S
C1616 H1640 0.950 . S
C1617 C1634 1.574 . S
C1617 C1636 1.368 . S
C1617 H1641 0.949 . S
H1618 C1622 0.949 . S
C1619 C1620 1.349 . S
C1619 C1621 1.327 . S
C1619 H1642 0.950 . S
C1620 C1619 1.349 . S
C1620 C1632 1.349 . S
C1621 C1619 1.327 . S
C1621 C1637 1.429 . S
C1621 H1643 0.950 . S
C1622 H1618 0.949 . S
C1622 C1630 1.574 . S
C1622 C1638 1.368 . S
H1623 C1631 0.950 . S
H1624 C1629 0.950 . S
H1625 C1630 0.949 . S
H1626 C1632 0.950 . S
H1627 C1633 0.950 . S
H1628 C1634 0.949 . S
C1629 H1624 0.950 . S
C1629 C1631 1.327 . S
C1629 C1635 1.429 . S
C1630 C1622 1.574 . S
C1630 H1625 0.949 . S
C1630 C1636 1.368 . S
C1631 C1615 1.349 . S
C1631 H1623 0.950 . S
C1631 C1629 1.327 . S
C1632 C1620 1.349 . S
C1632 H1626 0.950 . S
C1632 C1633 1.327 . S
C1633 H1627 0.950 . S
C1633 C1632 1.327 . S
C1633 C1637 1.429 . S
C1634 C1617 1.574 . S
C1634 H1628 0.949 . S
C1634 C1638 1.368 . S
C1635 C1616 1.429 . S
C1635 C1629 1.429 . S
C1635 C1636 1.523 . S
C1636 C1617 1.368 . S
C1636 C1630 1.368 . S
C1636 C1635 1.523 . S
C1637 C1621 1.429 . S
C1637 C1633 1.429 . S
C1637 C1638 1.523 . S
C1638 C1622 1.368 . S
C1638 C1634 1.368 . S
C1638 C1637 1.523 . S
H1639 C1614 0.950 . S
H1640 C1616 0.950 . S
H1641 C1617 0.949 . S
H1642 C1619 0.950 . S
H1643 C1621 0.950 . S
C1644 C1645 1.349 . S
C1644 C1646 1.327 . S
C1644 H1669 0.950 . S
C1645 C1644 1.349 . S
C1645 C1661 1.349 . S
C1646 C1644 1.327 . S
C1646 C1665 1.429 . S
C1646 H1670 0.950 . S
C1647 C1664 1.574 . S
C1647 C1666 1.368 . S
C1647 H1671 0.949 . S
H1648 C1652 0.949 . S
C1649 C1650 1.349 . S
C1649 C1651 1.327 . S
C1649 H1672 0.950 . S
C1650 C1649 1.349 . S
C1650 C1662 1.349 . S
C1651 C1649 1.327 . S
C1651 C1667 1.429 . S
C1651 H1673 0.950 . S
C1652 H1648 0.949 . S
C1652 C1660 1.574 . S
C1652 C1668 1.368 . S
H1653 C1661 0.950 . S
H1654 C1659 0.950 . S
H1655 C1660 0.949 . S
H1656 C1662 0.950 . S
H1657 C1663 0.950 . S
H1658 C1664 0.949 . S
C1659 H1654 0.950 . S
C1659 C1661 1.327 . S
C1659 C1665 1.429 . S
C1660 C1652 1.574 . S
C1660 H1655 0.949 . S
C1660 C1666 1.368 . S
C1661 C1645 1.349 . S
C1661 H1653 0.950 . S
C1661 C1659 1.327 . S
C1662 C1650 1.349 . S
C1662 H1656 0.950 . S
C1662 C1663 1.327 . S
C1663 H1657 0.950 . S
C1663 C1662 1.327 . S
C1663 C1667 1.429 . S
C1664 C1647 1.574 . S
C1664 H1658 0.949 . S
C1664 C1668 1.368 . S
C1665 C1646 1.429 . S
C1665 C1659 1.429 . S
C1665 C1666 1.523 . S
C1666 C1647 1.368 . S
C1666 C1660 1.368 . S
C1666 C1665 1.523 . S
C1667 C1651 1.429 . S
C1667 C1663 1.429 . S
C1667 C1668 1.523 . S
C1668 C1652 1.368 . S
C1668 C1664 1.368 . S
C1668 C1667 1.523 . S
H1669 C1644 0.950 . S
H1670 C1646 0.950 . S
H1671 C1647 0.949 . S
H1672 C1649 0.950 . S
H1673 C1651 0.950 . S
C1674 C1675 1.349 . S
C1674 C1676 1.327 . S
C1674 H1699 0.950 . S
C1675 C1674 1.349 . S
C1675 C1691 1.349 . S
C1676 C1674 1.327 . S
C1676 C1695 1.429 . S
C1676 H1700 0.950 . S
C1677 C1694 1.574 . S
C1677 C1696 1.368 . S
C1677 H1701 0.949 . S
H1678 C1682 0.949 . S
C1679 C1680 1.349 . S
C1679 C1681 1.327 . S
C1679 H1702 0.950 . S
C1680 C1679 1.349 . S
C1680 C1692 1.349 . S
C1681 C1679 1.327 . S
C1681 C1697 1.429 . S
C1681 H1703 0.950 . S
C1682 H1678 0.949 . S
C1682 C1690 1.574 . S
C1682 C1698 1.368 . S
H1683 C1691 0.950 . S
H1684 C1689 0.950 . S
H1685 C1690 0.949 . S
H1686 C1692 0.950 . S
H1687 C1693 0.950 . S
H1688 C1694 0.949 . S
C1689 H1684 0.950 . S
C1689 C1691 1.327 . S
C1689 C1695 1.429 . S
C1690 C1682 1.574 . S
C1690 H1685 0.949 . S
C1690 C1696 1.368 . S
C1691 C1675 1.349 . S
C1691 H1683 0.950 . S
C1691 C1689 1.327 . S
C1692 C1680 1.349 . S
C1692 H1686 0.950 . S
C1692 C1693 1.327 . S
C1693 H1687 0.950 . S
C1693 C1692 1.327 . S
C1693 C1697 1.429 . S
C1694 C1677 1.574 . S
C1694 H1688 0.949 . S
C1694 C1698 1.368 . S
C1695 C1676 1.429 . S
C1695 C1689 1.429 . S
C1695 C1696 1.523 . S
C1696 C1677 1.368 . S
C1696 C1690 1.368 . S
C1696 C1695 1.523 . S
C1697 C1681 1.429 . S
C1697 C1693 1.429 . S
C1697 C1698 1.523 . S
C1698 C1682 1.368 . S
C1698 C1694 1.368 . S
C1698 C1697 1.523 . S
H1699 C1674 0.950 . S
H1700 C1676 0.950 . S
H1701 C1677 0.949 . S
H1702 C1679 0.950 . S
H1703 C1681 0.950 . S
C1704 C1705 1.349 . S
C1704 C1706 1.327 . S
C1704 H1729 0.950 . S
C1705 C1704 1.349 . S
C1705 C1721 1.349 . S
C1706 C1704 1.327 . S
C1706 C1725 1.429 . S
C1706 H1730 0.950 . S
C1707 C1724 1.574 . S
C1707 C1726 1.368 . S
C1707 H1731 0.949 . S
H1708 C1712 0.949 . S
C1709 C1710 1.349 . S
C1709 C1711 1.327 . S
C1709 H1732 0.950 . S
C1710 C1709 1.349 . S
C1710 C1722 1.349 . S
C1711 C1709 1.327 . S
C1711 C1727 1.429 . S
C1711 H1733 0.950 . S
C1712 H1708 0.949 . S
C1712 C1720 1.574 . S
C1712 C1728 1.368 . S
H1713 C1721 0.950 . S
H1714 C1719 0.950 . S
H1715 C1720 0.949 . S
H1716 C1722 0.950 . S
H1717 C1723 0.950 . S
H1718 C1724 0.949 . S
C1719 H1714 0.950 . S
C1719 C1721 1.327 . S
C1719 C1725 1.429 . S
C1720 C1712 1.574 . S
C1720 H1715 0.949 . S
C1720 C1726 1.368 . S
C1721 C1705 1.349 . S
C1721 H1713 0.950 . S
C1721 C1719 1.327 . S
C1722 C1710 1.349 . S
C1722 H1716 0.950 . S
C1722 C1723 1.327 . S
C1723 H1717 0.950 . S
C1723 C1722 1.327 . S
C1723 C1727 1.429 . S
C1724 C1707 1.574 . S
C1724 H1718 0.949 . S
C1724 C1728 1.368 . S
C1725 C1706 1.429 . S
C1725 C1719 1.429 . S
C1725 C1726 1.523 . S
C1726 C1707 1.368 . S
C1726 C1720 1.368 . S
C1726 C1725 1.523 . S
C1727 C1711 1.429 . S
C1727 C1723 1.429 . S
C1727 C1728 1.523 . S
C1728 C1712 1.368 . S
C1728 C1724 1.368 . S
C1728 C1727 1.523 . S
H1729 C1704 0.950 . S
H1730 C1706 0.950 . S
H1731 C1707 0.949 . S
H1732 C1709 0.950 . S
H1733 C1711 0.950 . S
C1734 C1735 1.349 . S
C1734 C1736 1.327 . S
C1734 H1759 0.950 . S
C1735 C1734 1.349 . S
C1735 C1751 1.349 . S
C1736 C1734 1.327 . S
C1736 C1755 1.429 . S
C1736 H1760 0.950 . S
C1737 C1754 1.574 . S
C1737 C1756 1.368 . S
C1737 H1761 0.949 . S
H1738 C1742 0.949 . S
C1739 C1740 1.349 . S
C1739 C1741 1.327 . S
C1739 H1762 0.950 . S
C1740 C1739 1.349 . S
C1740 C1752 1.349 . S
C1741 C1739 1.327 . S
C1741 C1757 1.429 . S
C1741 H1763 0.950 . S
C1742 H1738 0.949 . S
C1742 C1750 1.574 . S
C1742 C1758 1.368 . S
H1743 C1751 0.950 . S
H1744 C1749 0.950 . S
H1745 C1750 0.949 . S
H1746 C1752 0.950 . S
H1747 C1753 0.950 . S
H1748 C1754 0.949 . S
C1749 H1744 0.950 . S
C1749 C1751 1.327 . S
C1749 C1755 1.429 . S
C1750 C1742 1.574 . S
C1750 H1745 0.949 . S
C1750 C1756 1.368 . S
C1751 C1735 1.349 . S
C1751 H1743 0.950 . S
C1751 C1749 1.327 . S
C1752 C1740 1.349 . S
C1752 H1746 0.950 . S
C1752 C1753 1.327 . S
C1753 H1747 0.950 . S
C1753 C1752 1.327 . S
C1753 C1757 1.429 . S
C1754 C1737 1.574 . S
C1754 H1748 0.949 . S
C1754 C1758 1.368 . S
C1755 C1736 1.429 . S
C1755 C1749 1.429 . S
C1755 C1756 1.523 . S
C1756 C1737 1.368 . S
C1756 C1750 1.368 . S
C1756 C1755 1.523 . S
C1757 C1741 1.429 . S
C1757 C1753 1.429 . S
C1757 C1758 1.523 . S
C1758 C1742 1.368 . S
C1758 C1754 1.368 . S
C1758 C1757 1.523 . S
H1759 C1734 0.950 . S
H1760 C1736 0.950 . S
H1761 C1737 0.949 . S
H1762 C1739 0.950 . S
H1763 C1741 0.950 . S
C1764 C1765 1.349 . S
C1764 C1766 1.327 . S
C1764 H1789 0.950 . S
C1765 C1764 1.349 . S
C1765 C1781 1.349 . S
C1766 C1764 1.327 . S
C1766 C1785 1.429 . S
C1766 H1790 0.950 . S
C1767 C1784 1.574 . S
C1767 C1786 1.368 . S
C1767 H1791 0.949 . S
H1768 C1772 0.949 . S
C1769 C1770 1.349 . S
C1769 C1771 1.327 . S
C1769 H1792 0.950 . S
C1770 C1769 1.349 . S
C1770 C1782 1.349 . S
C1771 C1769 1.327 . S
C1771 C1787 1.429 . S
C1771 H1793 0.950 . S
C1772 H1768 0.949 . S
C1772 C1780 1.574 . S
C1772 C1788 1.368 . S
H1773 C1781 0.950 . S
H1774 C1779 0.950 . S
H1775 C1780 0.949 . S
H1776 C1782 0.950 . S
H1777 C1783 0.950 . S
H1778 C1784 0.949 . S
C1779 H1774 0.950 . S
C1779 C1781 1.327 . S
C1779 C1785 1.429 . S
C1780 C1772 1.574 . S
C1780 H1775 0.949 . S
C1780 C1786 1.368 . S
C1781 C1765 1.349 . S
C1781 H1773 0.950 . S
C1781 C1779 1.327 . S
C1782 C1770 1.349 . S
C1782 H1776 0.950 . S
C1782 C1783 1.327 . S
C1783 H1777 0.950 . S
C1783 C1782 1.327 . S
C1783 C1787 1.429 . S
C1784 C1767 1.574 . S
C1784 H1778 0.949 . S
C1784 C1788 1.368 . S
C1785 C1766 1.429 . S
C1785 C1779 1.429 . S
C1785 C1786 1.523 . S
C1786 C1767 1.368 . S
C1786 C1780 1.368 . S
C1786 C1785 1.523 . S
C1787 C1771 1.429 . S
C1787 C1783 1.429 . S
C1787 C1788 1.523 . S
C1788 C1772 1.368 . S
C1788 C1784 1.368 . S
C1788 C1787 1.523 . S
H1789 C1764 0.950 . S
H1790 C1766 0.950 . S
H1791 C1767 0.949 . S
H1792 C1769 0.950 . S
H1793 C1771 0.950 . S
C1794 C1795 1.349 . S
C1794 C1796 1.327 . S
C1794 H1819 0.950 . S
C1795 C1794 1.349 . S
C1795 C1811 1.349 . S
C1796 C1794 1.327 . S
C1796 C1815 1.429 . S
C1796 H1820 0.950 . S
C1797 C1814 1.574 . S
C1797 C1816 1.368 . S
C1797 H1821 0.949 . S
H1798 C1802 0.949 . S
C1799 C1800 1.349 . S
C1799 C1801 1.327 . S
C1799 H1822 0.950 . S
C1800 C1799 1.349 . S
C1800 C1812 1.349 . S
C1801 C1799 1.327 . S
C1801 C1817 1.429 . S
C1801 H1823 0.950 . S
C1802 H1798 0.949 . S
C1802 C1810 1.574 . S
C1802 C1818 1.368 . S
H1803 C1811 0.950 . S
H1804 C1809 0.950 . S
H1805 C1810 0.949 . S
H1806 C1812 0.950 . S
H1807 C1813 0.950 . S
H1808 C1814 0.949 . S
C1809 H1804 0.950 . S
C1809 C1811 1.327 . S
C1809 C1815 1.429 . S
C1810 C1802 1.574 . S
C1810 H1805 0.949 . S
C1810 C1816 1.368 . S
C1811 C1795 1.349 . S
C1811 H1803 0.950 . S
C1811 C1809 1.327 . S
C1812 C1800 1.349 . S
C1812 H1806 0.950 . S
C1812 C1813 1.327 . S
C1813 H1807 0.950 . S
C1813 C1812 1.327 . S
C1813 C1817 1.429 . S
C1814 C1797 1.574 . S
C1814 H1808 0.949 . S
C1814 C1818 1.368 . S
C1815 C1796 1.429 . S
C1815 C1809 1.429 . S
C1815 C1816 1.523 . S
C1816 C1797 1.368 . S
C1816 C1810 1.368 . S
C1816 C1815 1.523 . S
C1817 C1801 1.429 . S
C1817 C1813 1.429 . S
C1817 C1818 1.523 . S
C1818 C1802 1.368 . S
C1818 C1814 1.368 . S
C1818 C1817 1.523 . S
H1819 C1794 0.950 . S
H1820 C1796 0.950 . S
H1821 C1797 0.949 . S
H1822 C1799 0.950 . S
H1823 C1801 0.950 . S
C1824 C1825 1.349 . S
C1824 C1826 1.327 . S
C1824 H1849 0.950 . S
C1825 C1824 1.349 . S
C1825 C1841 1.349 . S
C1826 C1824 1.327 . S
C1826 C1845 1.429 . S
C1826 H1850 0.950 . S
C1827 C1844 1.574 . S
C1827 C1846 1.368 . S
C1827 H1851 0.949 . S
H1828 C1832 0.949 . S
C1829 C1830 1.349 . S
C1829 C1831 1.327 . S
C1829 H1852 0.950 . S
C1830 C1829 1.349 . S
C1830 C1842 1.349 . S
C1831 C1829 1.327 . S
C1831 C1847 1.429 . S
C1831 H1853 0.950 . S
C1832 H1828 0.949 . S
C1832 C1840 1.574 . S
C1832 C1848 1.368 . S
H1833 C1841 0.950 . S
H1834 C1839 0.950 . S
H1835 C1840 0.949 . S
H1836 C1842 0.950 . S
H1837 C1843 0.950 . S
H1838 C1844 0.949 . S
C1839 H1834 0.950 . S
C1839 C1841 1.327 . S
C1839 C1845 1.429 . S
C1840 C1832 1.574 . S
C1840 H1835 0.949 . S
C1840 C1846 1.368 . S
C1841 C1825 1.349 . S
C1841 H1833 0.950 . S
C1841 C1839 1.327 . S
C1842 C1830 1.349 . S
C1842 H1836 0.950 . S
C1842 C1843 1.327 . S
C1843 H1837 0.950 . S
C1843 C1842 1.327 . S
C1843 C1847 1.429 . S
C1844 C1827 1.574 . S
C1844 H1838 0.949 . S
C1844 C1848 1.368 . S
C1845 C1826 1.429 . S
C1845 C1839 1.429 . S
C1845 C1846 1.523 . S
C1846 C1827 1.368 . S
C1846 C1840 1.368 . S
C1846 C1845 1.523 . S
C1847 C1831 1.429 . S
C1847 C1843 1.429 . S
C1847 C1848 1.523 . S
C1848 C1832 1.368 . S
C1848 C1844 1.368 . S
C1848 C1847 1.523 . S
H1849 C1824 0.950 . S
H1850 C1826 0.950 . S
H1851 C1827 0.949 . S
H1852 C1829 0.950 . S
H1853 C1831 0.950 . S
C1854 C1855 1.349 . S
C1854 C1856 1.327 . S
C1854 H1879 0.950 . S
C1855 C1854 1.349 . S
C1855 C1871 1.349 . S
C1856 C1854 1.327 . S
C1856 C1875 1.429 . S
C1856 H1880 0.950 . S
C1857 C1874 1.574 . S
C1857 C1876 1.368 . S
C1857 H1881 0.949 . S
H1858 C1862 0.949 . S
C1859 C1860 1.349 . S
C1859 C1861 1.327 . S
C1859 H1882 0.950 . S
C1860 C1859 1.349 . S
C1860 C1872 1.349 . S
C1861 C1859 1.327 . S
C1861 C1877 1.429 . S
C1861 H1883 0.950 . S
C1862 H1858 0.949 . S
C1862 C1870 1.574 . S
C1862 C1878 1.368 . S
H1863 C1871 0.950 . S
H1864 C1869 0.950 . S
H1865 C1870 0.949 . S
H1866 C1872 0.950 . S
H1867 C1873 0.950 . S
H1868 C1874 0.949 . S
C1869 H1864 0.950 . S
C1869 C1871 1.327 . S
C1869 C1875 1.429 . S
C1870 C1862 1.574 . S
C1870 H1865 0.949 . S
C1870 C1876 1.368 . S
C1871 C1855 1.349 . S
C1871 H1863 0.950 . S
C1871 C1869 1.327 . S
C1872 C1860 1.349 . S
C1872 H1866 0.950 . S
C1872 C1873 1.327 . S
C1873 H1867 0.950 . S
C1873 C1872 1.327 . S
C1873 C1877 1.429 . S
C1874 C1857 1.574 . S
C1874 H1868 0.949 . S
C1874 C1878 1.368 . S
C1875 C1856 1.429 . S
C1875 C1869 1.429 . S
C1875 C1876 1.523 . S
C1876 C1857 1.368 . S
C1876 C1870 1.368 . S
C1876 C1875 1.523 . S
C1877 C1861 1.429 . S
C1877 C1873 1.429 . S
C1877 C1878 1.523 . S
C1878 C1862 1.368 . S
C1878 C1874 1.368 . S
C1878 C1877 1.523 . S
H1879 C1854 0.950 . S
H1880 C1856 0.950 . S
H1881 C1857 0.949 . S
H1882 C1859 0.950 . S
H1883 C1861 0.950 . S
C1884 C1885 1.349 . S
C1884 C1886 1.327 . S
C1884 H1909 0.950 . S
C1885 C1884 1.349 . S
C1885 C1901 1.349 . S
C1886 C1884 1.327 . S
C1886 C1905 1.429 . S
C1886 H1910 0.950 . S
C1887 C1904 1.574 . S
C1887 C1906 1.368 . S
C1887 H1911 0.949 . S
H1888 C1892 0.949 . S
C1889 C1890 1.349 . S
C1889 C1891 1.327 . S
C1889 H1912 0.950 . S
C1890 C1889 1.349 . S
C1890 C1902 1.349 . S
C1891 C1889 1.327 . S
C1891 C1907 1.429 . S
C1891 H1913 0.950 . S
C1892 H1888 0.949 . S
C1892 C1900 1.574 . S
C1892 C1908 1.368 . S
H1893 C1901 0.950 . S
H1894 C1899 0.950 . S
H1895 C1900 0.949 . S
H1896 C1902 0.950 . S
H1897 C1903 0.950 . S
H1898 C1904 0.949 . S
C1899 H1894 0.950 . S
C1899 C1901 1.327 . S
C1899 C1905 1.429 . S
C1900 C1892 1.574 . S
C1900 H1895 0.949 . S
C1900 C1906 1.368 . S
C1901 C1885 1.349 . S
C1901 H1893 0.950 . S
C1901 C1899 1.327 . S
C1902 C1890 1.349 . S
C1902 H1896 0.950 . S
C1902 C1903 1.327 . S
C1903 H1897 0.950 . S
C1903 C1902 1.327 . S
C1903 C1907 1.429 . S
C1904 C1887 1.574 . S
C1904 H1898 0.949 . S
C1904 C1908 1.368 . S
C1905 C1886 1.429 . S
C1905 C1899 1.429 . S
C1905 C1906 1.523 . S
C1906 C1887 1.368 . S
C1906 C1900 1.368 . S
C1906 C1905 1.523 . S
C1907 C1891 1.429 . S
C1907 C1903 1.429 . S
C1907 C1908 1.523 . S
C1908 C1892 1.368 . S
C1908 C1904 1.368 . S
C1908 C1907 1.523 . S
H1909 C1884 0.950 . S
H1910 C1886 0.950 . S
H1911 C1887 0.949 . S
H1912 C1889 0.950 . S
H1913 C1891 0.950 . S
C1914 C1915 1.349 . S
C1914 C1916 1.327 . S
C1914 H1939 0.950 . S
C1915 C1914 1.349 . S
C1915 C1931 1.349 . S
C1916 C1914 1.327 . S
C1916 C1935 1.429 . S
C1916 H1940 0.950 . S
C1917 C1934 1.574 . S
C1917 C1936 1.368 . S
C1917 H1941 0.949 . S
H1918 C1922 0.949 . S
C1919 C1920 1.349 . S
C1919 C1921 1.327 . S
C1919 H1942 0.950 . S
C1920 C1919 1.349 . S
C1920 C1932 1.349 . S
C1921 C1919 1.327 . S
C1921 C1937 1.429 . S
C1921 H1943 0.950 . S
C1922 H1918 0.949 . S
C1922 C1930 1.574 . S
C1922 C1938 1.368 . S
H1923 C1931 0.950 . S
H1924 C1929 0.950 . S
H1925 C1930 0.949 . S
H1926 C1932 0.950 . S
H1927 C1933 0.950 . S
H1928 C1934 0.949 . S
C1929 H1924 0.950 . S
C1929 C1931 1.327 . S
C1929 C1935 1.429 . S
C1930 C1922 1.574 . S
C1930 H1925 0.949 . S
C1930 C1936 1.368 . S
C1931 C1915 1.349 . S
C1931 H1923 0.950 . S
C1931 C1929 1.327 . S
C1932 C1920 1.349 . S
C1932 H1926 0.950 . S
C1932 C1933 1.327 . S
C1933 H1927 0.950 . S
C1933 C1932 1.327 . S
C1933 C1937 1.429 . S
C1934 C1917 1.574 . S
C1934 H1928 0.949 . S
C1934 C1938 1.368 . S
C1935 C1916 1.429 . S
C1935 C1929 1.429 . S
C1935 C1936 1.523 . S
C1936 C1917 1.368 . S
C1936 C1930 1.368 . S
C1936 C1935 1.523 . S
C1937 C1921 1.429 . S
C1937 C1933 1.429 . S
C1937 C1938 1.523 . S
C1938 C1922 1.368 . S
C1938 C1934 1.368 . S
C1938 C1937 1.523 . S
H1939 C1914 0.950 . S
H1940 C1916 0.950 . S
H1941 C1917 0.949 . S
H1942 C1919 0.950 . S
H1943 C1921 0.950 . S
C1944 C1945 1.349 . S
C1944 C1946 1.327 . S
C1944 H1969 0.950 . S
C1945 C1944 1.349 . S
C1945 C1961 1.349 . S
C1946 C1944 1.327 . S
C1946 C1965 1.429 . S
C1946 H1970 0.950 . S
C1947 C1964 1.574 . S
C1947 C1966 1.368 . S
C1947 H1971 0.949 . S
H1948 C1952 0.949 . S
C1949 C1950 1.349 . S
C1949 C1951 1.327 . S
C1949 H1972 0.950 . S
C1950 C1949 1.349 . S
C1950 C1962 1.349 . S
C1951 C1949 1.327 . S
C1951 C1967 1.429 . S
C1951 H1973 0.950 . S
C1952 H1948 0.949 . S
C1952 C1960 1.574 . S
C1952 C1968 1.368 . S
H1953 C1961 0.950 . S
H1954 C1959 0.950 . S
H1955 C1960 0.949 . S
H1956 C1962 0.950 . S
H1957 C1963 0.950 . S
H1958 C1964 0.949 . S
C1959 H1954 0.950 . S
C1959 C1961 1.327 . S
C1959 C1965 1.429 . S
C1960 C1952 1.574 . S
C1960 H1955 0.949 . S
C1960 C1966 1.368 . S
C1961 C1945 1.349 . S
C1961 H1953 0.950 . S
C1961 C1959 1.327 . S
C1962 C1950 1.349 . S
C1962 H1956 0.950 . S
C1962 C1963 1.327 . S
C1963 H1957 0.950 . S
C1963 C1962 1.327 . S
C1963 C1967 1.429 . S
C1964 C1947 1.574 . S
C1964 H1958 0.949 . S
C1964 C1968 1.368 . S
C1965 C1946 1.429 . S
C1965 C1959 1.429 . S
C1965 C1966 1.523 . S
C1966 C1947 1.368 . S
C1966 C1960 1.368 . S
C1966 C1965 1.523 . S
C1967 C1951 1.429 . S
C1967 C1963 1.429 . S
C1967 C1968 1.523 . S
C1968 C1952 1.368 . S
C1968 C1964 1.368 . S
C1968 C1967 1.523 . S
H1969 C1944 0.950 . S
H1970 C1946 0.950 . S
H1971 C1947 0.949 . S
H1972 C1949 0.950 . S
H1973 C1951 0.950 . S
C1974 C1975 1.349 . S
C1974 C1976 1.327 . S
C1974 H1999 0.950 . S
C1975 C1974 1.349 . S
C1975 C1991 1.349 . S
C1976 C1974 1.327 . S
C1976 C1995 1.429 . S
C1976 H2000 0.950 . S
C1977 C1994 1.574 . S
C1977 C1996 1.368 . S
C1977 H2001 0.949 . S
H1978 C1982 0.949 . S
C1979 C1980 1.349 . S
C1979 C1981 1.327 . S
C1979 H2002 0.950 . S
C1980 C1979 1.349 . S
C1980 C1992 1.349 . S
C1981 C1979 1.327 . S
C1981 C1997 1.429 . S
C1981 H2003 0.950 . S
C1982 H1978 0.949 . S
C1982 C1990 1.574 . S
C1982 C1998 1.368 . S
H1983 C1991 0.950 . S
H1984 C1989 0.950 . S
H1985 C1990 0.949 . S
H1986 C1992 0.950 . S
H1987 C1993 0.950 . S
H1988 C1994 0.949 . S
C1989 H1984 0.950 . S
C1989 C1991 1.327 . S
C1989 C1995 1.429 . S
C1990 C1982 1.574 . S
C1990 H1985 0.949 . S
C1990 C1996 1.368 . S
C1991 C1975 1.349 . S
C1991 H1983 0.950 . S
C1991 C1989 1.327 . S
C1992 C1980 1.349 . S
C1992 H1986 0.950 . S
C1992 C1993 1.327 . S
C1993 H1987 0.950 . S
C1993 C1992 1.327 . S
C1993 C1997 1.429 . S
C1994 C1977 1.574 . S
C1994 H1988 0.949 . S
C1994 C1998 1.368 . S
C1995 C1976 1.429 . S
C1995 C1989 1.429 . S
C1995 C1996 1.523 . S
C1996 C1977 1.368 . S
C1996 C1990 1.368 . S
C1996 C1995 1.523 . S
C1997 C1981 1.429 . S
C1997 C1993 1.429 . S
C1997 C1998 1.523 . S
C1998 C1982 1.368 . S
C1998 C1994 1.368 . S
C1998 C1997 1.523 . S
H1999 C1974 0.950 . S
H2000 C1976 0.950 . S
H2001 C1977 0.949 . S
H2002 C1979 0.950 . S
H2003 C1981 0.950 . S
C2004 C2005 1.349 . S
C2004 C2006 1.327 . S
C2004 H2029 0.950 . S
C2005 C2004 1.349 . S
C2005 C2021 1.349 . S
C2006 C2004 1.327 . S
C2006 C2025 1.429 . S
C2006 H2030 0.950 . S
C2007 C2024 1.574 . S
C2007 C2026 1.368 . S
C2007 H2031 0.949 . S
H2008 C2012 0.949 . S
C2009 C2010 1.349 . S
C2009 C2011 1.327 . S
C2009 H2032 0.950 . S
C2010 C2009 1.349 . S
C2010 C2022 1.349 . S
C2011 C2009 1.327 . S
C2011 C2027 1.429 . S
C2011 H2033 0.950 . S
C2012 H2008 0.949 . S
C2012 C2020 1.574 . S
C2012 C2028 1.368 . S
H2013 C2021 0.950 . S
H2014 C2019 0.950 . S
H2015 C2020 0.949 . S
H2016 C2022 0.950 . S
H2017 C2023 0.950 . S
H2018 C2024 0.949 . S
C2019 H2014 0.950 . S
C2019 C2021 1.327 . S
C2019 C2025 1.429 . S
C2020 C2012 1.574 . S
C2020 H2015 0.949 . S
C2020 C2026 1.368 . S
C2021 C2005 1.349 . S
C2021 H2013 0.950 . S
C2021 C2019 1.327 . S
C2022 C2010 1.349 . S
C2022 H2016 0.950 . S
C2022 C2023 1.327 . S
C2023 H2017 0.950 . S
C2023 C2022 1.327 . S
C2023 C2027 1.429 . S
C2024 C2007 1.574 . S
C2024 H2018 0.949 . S
C2024 C2028 1.368 . S
C2025 C2006 1.429 . S
C2025 C2019 1.429 . S
C2025 C2026 1.523 . S
C2026 C2007 1.368 . S
C2026 C2020 1.368 . S
C2026 C2025 1.523 . S
C2027 C2011 1.429 . S
C2027 C2023 1.429 . S
C2027 C2028 1.523 . S
C2028 C2012 1.368 . S
C2028 C2024 1.368 . S
C2028 C2027 1.523 . S
H2029 C2004 0.950 . S
H2030 C2006 0.950 . S
H2031 C2007 0.949 . S
H2032 C2009 0.950 . S
H2033 C2011 0.950 . S
C2034 C2035 1.349 . S
C2034 C2036 1.327 . S
C2034 H2059 0.950 . S
C2035 C2034 1.349 . S
C2035 C2051 1.349 . S
C2036 C2034 1.327 . S
C2036 C2055 1.429 . S
C2036 H2060 0.950 . S
C2037 C2054 1.574 . S
C2037 C2056 1.368 . S
C2037 H2061 0.949 . S
H2038 C2042 0.949 . S
C2039 C2040 1.349 . S
C2039 C2041 1.327 . S
C2039 H2062 0.950 . S
C2040 C2039 1.349 . S
C2040 C2052 1.349 . S
C2041 C2039 1.327 . S
C2041 C2057 1.429 . S
C2041 H2063 0.950 . S
C2042 H2038 0.949 . S
C2042 C2050 1.574 . S
C2042 C2058 1.368 . S
H2043 C2051 0.950 . S
H2044 C2049 0.950 . S
H2045 C2050 0.949 . S
H2046 C2052 0.950 . S
H2047 C2053 0.950 . S
H2048 C2054 0.949 . S
C2049 H2044 0.950 . S
C2049 C2051 1.327 . S
C2049 C2055 1.429 . S
C2050 C2042 1.574 . S
C2050 H2045 0.949 . S
C2050 C2056 1.368 . S
C2051 C2035 1.349 . S
C2051 H2043 0.950 . S
C2051 C2049 1.327 . S
C2052 C2040 1.349 . S
C2052 H2046 0.950 . S
C2052 C2053 1.327 . S
C2053 H2047 0.950 . S
C2053 C2052 1.327 . S
C2053 C2057 1.429 . S
C2054 C2037 1.574 . S
C2054 H2048 0.949 . S
C2054 C2058 1.368 . S
C2055 C2036 1.429 . S
C2055 C2049 1.429 . S
C2055 C2056 1.523 . S
C2056 C2037 1.368 . S
C2056 C2050 1.368 . S
C2056 C2055 1.523 . S
C2057 C2041 1.429 . S
C2057 C2053 1.429 . S
C2057 C2058 1.523 . S
C2058 C2042 1.368 . S
C2058 C2054 1.368 . S
C2058 C2057 1.523 . S
H2059 C2034 0.950 . S
H2060 C2036 0.950 . S
H2061 C2037 0.949 . S
H2062 C2039 0.950 . S
H2063 C2041 0.950 . S
C2064 C2065 1.349 . S
C2064 C2066 1.327 . S
C2064 H2089 0.950 . S
C2065 C2064 1.349 . S
C2065 C2081 1.349 . S
C2066 C2064 1.327 . S
C2066 C2085 1.429 . S
C2066 H2090 0.950 . S
C2067 C2084 1.574 . S
C2067 C2086 1.368 . S
C2067 H2091 0.949 . S
H2068 C2072 0.949 . S
C2069 C2070 1.349 . S
C2069 C2071 1.327 . S
C2069 H2092 0.950 . S
C2070 C2069 1.349 . S
C2070 C2082 1.349 . S
C2071 C2069 1.327 . S
C2071 C2087 1.429 . S
C2071 H2093 0.950 . S
C2072 H2068 0.949 . S
C2072 C2080 1.574 . S
C2072 C2088 1.368 . S
H2073 C2081 0.950 . S
H2074 C2079 0.950 . S
H2075 C2080 0.949 . S
H2076 C2082 0.950 . S
H2077 C2083 0.950 . S
H2078 C2084 0.949 . S
C2079 H2074 0.950 . S
C2079 C2081 1.327 . S
C2079 C2085 1.429 . S
C2080 C2072 1.574 . S
C2080 H2075 0.949 . S
C2080 C2086 1.368 . S
C2081 C2065 1.349 . S
C2081 H2073 0.950 . S
C2081 C2079 1.327 . S
C2082 C2070 1.349 . S
C2082 H2076 0.950 . S
C2082 C2083 1.327 . S
C2083 H2077 0.950 . S
C2083 C2082 1.327 . S
C2083 C2087 1.429 . S
C2084 C2067 1.574 . S
C2084 H2078 0.949 . S
C2084 C2088 1.368 . S
C2085 C2066 1.429 . S
C2085 C2079 1.429 . S
C2085 C2086 1.523 . S
C2086 C2067 1.368 . S
C2086 C2080 1.368 . S
C2086 C2085 1.523 . S
C2087 C2071 1.429 . S
C2087 C2083 1.429 . S
C2087 C2088 1.523 . S
C2088 C2072 1.368 . S
C2088 C2084 1.368 . S
C2088 C2087 1.523 . S
H2089 C2064 0.950 . S
H2090 C2066 0.950 . S
H2091 C2067 0.949 . S
H2092 C2069 0.950 . S
H2093 C2071 0.950 . S
C2094 C2095 1.349 . S
C2094 C2096 1.327 . S
C2094 H2119 0.950 . S
C2095 C2094 1.349 . S
C2095 C2111 1.349 . S
C2096 C2094 1.327 . S
C2096 C2115 1.429 . S
C2096 H2120 0.950 . S
C2097 C2114 1.574 . S
C2097 C2116 1.368 . S
C2097 H2121 0.949 . S
H2098 C2102 0.949 . S
C2099 C2100 1.349 . S
C2099 C2101 1.327 . S
C2099 H2122 0.950 . S
C2100 C2099 1.349 . S
C2100 C2112 1.349 . S
C2101 C2099 1.327 . S
C2101 C2117 1.429 . S
C2101 H2123 0.950 . S
C2102 H2098 0.949 . S
C2102 C2110 1.574 . S
C2102 C2118 1.368 . S
H2103 C2111 0.950 . S
H2104 C2109 0.950 . S
H2105 C2110 0.949 . S
H2106 C2112 0.950 . S
H2107 C2113 0.950 . S
H2108 C2114 0.949 . S
C2109 H2104 0.950 . S
C2109 C2111 1.327 . S
C2109 C2115 1.429 . S
C2110 C2102 1.574 . S
C2110 H2105 0.949 . S
C2110 C2116 1.368 . S
C2111 C2095 1.349 . S
C2111 H2103 0.950 . S
C2111 C2109 1.327 . S
C2112 C2100 1.349 . S
C2112 H2106 0.950 . S
C2112 C2113 1.327 . S
C2113 H2107 0.950 . S
C2113 C2112 1.327 . S
C2113 C2117 1.429 . S
C2114 C2097 1.574 . S
C2114 H2108 0.949 . S
C2114 C2118 1.368 . S
C2115 C2096 1.429 . S
C2115 C2109 1.429 . S
C2115 C2116 1.523 . S
C2116 C2097 1.368 . S
C2116 C2110 1.368 . S
C2116 C2115 1.523 . S
C2117 C2101 1.429 . S
C2117 C2113 1.429 . S
C2117 C2118 1.523 . S
C2118 C2102 1.368 . S
C2118 C2114 1.368 . S
C2118 C2117 1.523 . S
H2119 C2094 0.950 . S
H2120 C2096 0.950 . S
H2121 C2097 0.949 . S
H2122 C2099 0.950 . S
H2123 C2101 0.950 . S
C2124 C2125 1.349 . S
C2124 C2126 1.327 . S
C2124 H2149 0.950 . S
C2125 C2124 1.349 . S
C2125 C2141 1.349 . S
C2126 C2124 1.327 . S
C2126 C2145 1.429 . S
C2126 H2150 0.950 . S
C2127 C2144 1.574 . S
C2127 C2146 1.368 . S
C2127 H2151 0.949 . S
H2128 C2132 0.949 . S
C2129 C2130 1.349 . S
C2129 C2131 1.327 . S
C2129 H2152 0.950 . S
C2130 C2129 1.349 . S
C2130 C2142 1.349 . S
C2131 C2129 1.327 . S
C2131 C2147 1.429 . S
C2131 H2153 0.950 . S
C2132 H2128 0.949 . S
C2132 C2140 1.574 . S
C2132 C2148 1.368 . S
H2133 C2141 0.950 . S
H2134 C2139 0.950 . S
H2135 C2140 0.949 . S
H2136 C2142 0.950 . S
H2137 C2143 0.950 . S
H2138 C2144 0.949 . S
C2139 H2134 0.950 . S
C2139 C2141 1.327 . S
C2139 C2145 1.429 . S
C2140 C2132 1.574 . S
C2140 H2135 0.949 . S
C2140 C2146 1.368 . S
C2141 C2125 1.349 . S
C2141 H2133 0.950 . S
C2141 C2139 1.327 . S
C2142 C2130 1.349 . S
C2142 H2136 0.950 . S
C2142 C2143 1.327 . S
C2143 H2137 0.950 . S
C2143 C2142 1.327 . S
C2143 C2147 1.429 . S
C2144 C2127 1.574 . S
C2144 H2138 0.949 . S
C2144 C2148 1.368 . S
C2145 C2126 1.429 . S
C2145 C2139 1.429 . S
C2145 C2146 1.523 . S
C2146 C2127 1.368 . S
C2146 C2140 1.368 . S
C2146 C2145 1.523 . S
C2147 C2131 1.429 . S
C2147 C2143 1.429 . S
C2147 C2148 1.523 . S
C2148 C2132 1.368 . S
C2148 C2144 1.368 . S
C2148 C2147 1.523 . S
H2149 C2124 0.950 . S
H2150 C2126 0.950 . S
H2151 C2127 0.949 . S
H2152 C2129 0.950 . S
H2153 C2131 0.950 . S
C2154 C2155 1.349 . S
C2154 C2156 1.327 . S
C2154 H2179 0.950 . S
C2155 C2154 1.349 . S
C2155 C2171 1.349 1_545 S
C2156 C2154 1.327 . S
C2156 C2175 1.429 . S
C2156 H2180 0.950 . S
C2157 C2174 1.574 . S
C2157 C2176 1.368 1_565 S
C2157 H2181 0.949 . S
H2158 C2162 0.949 . S
C2159 C2160 1.349 . S
C2159 C2161 1.327 . S
C2159 H2182 0.950 . S
C2160 C2159 1.349 . S
C2160 C2172 1.349 1_565 S
C2161 C2159 1.327 . S
C2161 C2177 1.429 . S
C2161 H2183 0.950 . S
C2162 H2158 0.949 . S
C2162 C2170 1.574 . S
C2162 C2178 1.368 1_545 S
H2163 C2171 0.950 . S
H2164 C2169 0.950 . S
H2165 C2170 0.949 . S
H2166 C2172 0.950 . S
H2167 C2173 0.950 . S
H2168 C2174 0.949 . S
C2169 H2164 0.950 . S
C2169 C2171 1.327 . S
C2169 C2175 1.429 1_565 S
C2170 C2162 1.574 . S
C2170 H2165 0.949 . S
C2170 C2176 1.368 . S
C2171 C2155 1.349 1_565 S
C2171 H2163 0.950 . S
C2171 C2169 1.327 . S
C2172 C2160 1.349 1_545 S
C2172 H2166 0.950 . S
C2172 C2173 1.327 . S
C2173 H2167 0.950 . S
C2173 C2172 1.327 . S
C2173 C2177 1.429 1_545 S
C2174 C2157 1.574 . S
C2174 H2168 0.949 . S
C2174 C2178 1.368 . S
C2175 C2156 1.429 . S
C2175 C2169 1.429 1_545 S
C2175 C2176 1.523 . S
C2176 C2157 1.368 1_545 S
C2176 C2170 1.368 . S
C2176 C2175 1.523 . S
C2177 C2161 1.429 . S
C2177 C2173 1.429 1_565 S
C2177 C2178 1.523 . S
C2178 C2162 1.368 1_565 S
C2178 C2174 1.368 . S
C2178 C2177 1.523 . S
H2179 C2154 0.950 . S
H2180 C2156 0.950 . S
H2181 C2157 0.949 . S
H2182 C2159 0.950 . S
H2183 C2161 0.950 . S
C2184 C2185 1.349 1_655 S
C2184 C2186 1.327 . S
C2184 H2209 0.950 . S
C2185 C2184 1.349 1_455 S
C2185 C2201 1.349 . S
C2186 C2184 1.327 . S
C2186 C2205 1.429 1_655 S
C2186 H2210 0.950 . S
C2187 C2204 1.574 . S
C2187 C2206 1.368 . S
C2187 H2211 0.949 . S
H2188 C2192 0.949 . S
C2189 C2190 1.349 1_455 S
C2189 C2191 1.327 . S
C2189 H2212 0.950 . S
C2190 C2189 1.349 1_655 S
C2190 C2202 1.349 . S
C2191 C2189 1.327 . S
C2191 C2207 1.429 1_455 S
C2191 H2213 0.950 . S
C2192 H2188 0.949 . S
C2192 C2200 1.574 . S
C2192 C2208 1.368 . S
H2193 C2201 0.950 . S
H2194 C2199 0.950 . S
H2195 C2200 0.949 . S
H2196 C2202 0.950 . S
H2197 C2203 0.950 . S
H2198 C2204 0.949 . S
C2199 H2194 0.950 . S
C2199 C2201 1.327 . S
C2199 C2205 1.429 . S
C2200 C2192 1.574 . S
C2200 H2195 0.949 . S
C2200 C2206 1.368 1_655 S
C2201 C2185 1.349 . S
C2201 H2193 0.950 . S
C2201 C2199 1.327 . S
C2202 C2190 1.349 . S
C2202 H2196 0.950 . S
C2202 C2203 1.327 . S
C2203 H2197 0.950 . S
C2203 C2202 1.327 . S
C2203 C2207 1.429 . S
C2204 C2187 1.574 . S
C2204 H2198 0.949 . S
C2204 C2208 1.368 1_455 S
C2205 C2186 1.429 1_455 S
C2205 C2199 1.429 . S
C2205 C2206 1.523 . S
C2206 C2187 1.368 . S
C2206 C2200 1.368 1_455 S
C2206 C2205 1.523 . S
C2207 C2191 1.429 1_655 S
C2207 C2203 1.429 . S
C2207 C2208 1.523 . S
C2208 C2192 1.368 . S
C2208 C2204 1.368 1_655 S
C2208 C2207 1.523 . S
H2209 C2184 0.950 . S
H2210 C2186 0.950 . S
H2211 C2187 0.949 . S
H2212 C2189 0.950 . S
H2213 C2191 0.950 . S
C2214 C2215 1.349 . S
C2214 C2216 1.327 . S
C2214 H2239 0.950 . S
C2215 C2214 1.349 . S
C2215 C2231 1.349 . S
C2216 C2214 1.327 . S
C2216 C2235 1.429 . S
C2216 H2240 0.950 . S
C2217 C2234 1.574 . S
C2217 C2236 1.368 . S
C2217 H2241 0.949 . S
H2218 C2222 0.949 . S
C2219 C2220 1.349 . S
C2219 C2221 1.327 . S
C2219 H2242 0.950 . S
C2220 C2219 1.349 . S
C2220 C2232 1.349 . S
C2221 C2219 1.327 . S
C2221 C2237 1.429 . S
C2221 H2243 0.950 . S
C2222 H2218 0.949 . S
C2222 C2230 1.574 . S
C2222 C2238 1.368 . S
H2223 C2231 0.950 . S
H2224 C2229 0.950 . S
H2225 C2230 0.949 . S
H2226 C2232 0.950 . S
H2227 C2233 0.950 . S
H2228 C2234 0.949 . S
C2229 H2224 0.950 . S
C2229 C2231 1.327 . S
C2229 C2235 1.429 . S
C2230 C2222 1.574 . S
C2230 H2225 0.949 . S
C2230 C2236 1.368 . S
C2231 C2215 1.349 . S
C2231 H2223 0.950 . S
C2231 C2229 1.327 . S
C2232 C2220 1.349 . S
C2232 H2226 0.950 . S
C2232 C2233 1.327 . S
C2233 H2227 0.950 . S
C2233 C2232 1.327 . S
C2233 C2237 1.429 . S
C2234 C2217 1.574 . S
C2234 H2228 0.949 . S
C2234 C2238 1.368 . S
C2235 C2216 1.429 . S
C2235 C2229 1.429 . S
C2235 C2236 1.523 . S
C2236 C2217 1.368 . S
C2236 C2230 1.368 . S
C2236 C2235 1.523 . S
C2237 C2221 1.429 . S
C2237 C2233 1.429 . S
C2237 C2238 1.523 . S
C2238 C2222 1.368 . S
C2238 C2234 1.368 . S
C2238 C2237 1.523 . S
H2239 C2214 0.950 . S
H2240 C2216 0.950 . S
H2241 C2217 0.949 . S
H2242 C2219 0.950 . S
H2243 C2221 0.950 . S
C2244 C2245 1.349 . S
C2244 C2246 1.327 . S
C2244 H2269 0.950 . S
C2245 C2244 1.349 . S
C2245 C2261 1.349 1_545 S
C2246 C2244 1.327 . S
C2246 C2265 1.429 . S
C2246 H2270 0.950 . S
C2247 C2264 1.574 . S
C2247 C2266 1.368 1_565 S
C2247 H2271 0.949 . S
H2248 C2252 0.949 . S
C2249 C2250 1.349 . S
C2249 C2251 1.327 . S
C2249 H2272 0.950 . S
C2250 C2249 1.349 . S
C2250 C2262 1.349 1_565 S
C2251 C2249 1.327 . S
C2251 C2267 1.429 . S
C2251 H2273 0.950 . S
C2252 H2248 0.949 . S
C2252 C2260 1.574 . S
C2252 C2268 1.368 1_545 S
H2253 C2261 0.950 . S
H2254 C2259 0.950 . S
H2255 C2260 0.949 . S
H2256 C2262 0.950 . S
H2257 C2263 0.950 . S
H2258 C2264 0.949 . S
C2259 H2254 0.950 . S
C2259 C2261 1.327 . S
C2259 C2265 1.429 1_565 S
C2260 C2252 1.574 . S
C2260 H2255 0.949 . S
C2260 C2266 1.368 . S
C2261 C2245 1.349 1_565 S
C2261 H2253 0.950 . S
C2261 C2259 1.327 . S
C2262 C2250 1.349 1_545 S
C2262 H2256 0.950 . S
C2262 C2263 1.327 . S
C2263 H2257 0.950 . S
C2263 C2262 1.327 . S
C2263 C2267 1.429 1_545 S
C2264 C2247 1.574 . S
C2264 H2258 0.949 . S
C2264 C2268 1.368 . S
C2265 C2246 1.429 . S
C2265 C2259 1.429 1_545 S
C2265 C2266 1.523 . S
C2266 C2247 1.368 1_545 S
C2266 C2260 1.368 . S
C2266 C2265 1.523 . S
C2267 C2251 1.429 . S
C2267 C2263 1.429 1_565 S
C2267 C2268 1.523 . S
C2268 C2252 1.368 1_565 S
C2268 C2264 1.368 . S
C2268 C2267 1.523 . S
H2269 C2244 0.950 . S
H2270 C2246 0.950 . S
H2271 C2247 0.949 . S
H2272 C2249 0.950 . S
H2273 C2251 0.950 . S
C2274 C2275 1.349 . S
C2274 C2276 1.327 . S
C2274 H2299 0.950 . S
C2275 C2274 1.349 . S
C2275 C2291 1.349 . S
C2276 C2274 1.327 . S
C2276 C2295 1.429 . S
C2276 H2300 0.950 . S
C2277 C2294 1.574 . S
C2277 C2296 1.368 1_455 S
C2277 H2301 0.949 . S
H2278 C2282 0.949 . S
C2279 C2280 1.349 . S
C2279 C2281 1.327 . S
C2279 H2302 0.950 . S
C2280 C2279 1.349 . S
C2280 C2292 1.349 . S
C2281 C2279 1.327 . S
C2281 C2297 1.429 . S
C2281 H2303 0.950 . S
C2282 H2278 0.949 . S
C2282 C2290 1.574 . S
C2282 C2298 1.368 1_655 S
H2283 C2291 0.950 . S
H2284 C2289 0.950 1_455 S
H2285 C2290 0.949 . S
H2286 C2292 0.950 . S
H2287 C2293 0.950 1_655 S
H2288 C2294 0.949 . S
C2289 H2284 0.950 1_655 S
C2289 C2291 1.327 . S
C2289 C2295 1.429 . S
C2290 C2282 1.574 . S
C2290 H2285 0.949 . S
C2290 C2296 1.368 . S
C2291 C2275 1.349 . S
C2291 H2283 0.950 . S
C2291 C2289 1.327 . S
C2292 C2280 1.349 . S
C2292 H2286 0.950 . S
C2292 C2293 1.327 . S
C2293 H2287 0.950 1_455 S
C2293 C2292 1.327 . S
C2293 C2297 1.429 . S
C2294 C2277 1.574 . S
C2294 H2288 0.949 . S
C2294 C2298 1.368 . S
C2295 C2276 1.429 . S
C2295 C2289 1.429 . S
C2295 C2296 1.523 . S
C2296 C2277 1.368 1_655 S
C2296 C2290 1.368 . S
C2296 C2295 1.523 . S
C2297 C2281 1.429 . S
C2297 C2293 1.429 . S
C2297 C2298 1.523 . S
C2298 C2282 1.368 1_455 S
C2298 C2294 1.368 . S
C2298 C2297 1.523 . S
H2299 C2274 0.950 . S
H2300 C2276 0.950 . S
H2301 C2277 0.949 . S
H2302 C2279 0.950 . S
H2303 C2281 0.950 . S
C2304 C2305 1.349 . S
C2304 C2306 1.327 . S
C2304 H2329 0.950 . S
C2305 C2304 1.349 . S
C2305 C2321 1.349 . S
C2306 C2304 1.327 . S
C2306 C2325 1.429 . S
C2306 H2330 0.950 . S
C2307 C2324 1.574 . S
C2307 C2326 1.368 . S
C2307 H2331 0.949 . S
H2308 C2312 0.949 . S
C2309 C2310 1.349 . S
C2309 C2311 1.327 . S
C2309 H2332 0.950 . S
C2310 C2309 1.349 . S
C2310 C2322 1.349 . S
C2311 C2309 1.327 . S
C2311 C2327 1.429 . S
C2311 H2333 0.950 . S
C2312 H2308 0.949 . S
C2312 C2320 1.574 . S
C2312 C2328 1.368 . S
H2313 C2321 0.950 . S
H2314 C2319 0.950 . S
H2315 C2320 0.949 . S
H2316 C2322 0.950 . S
H2317 C2323 0.950 . S
H2318 C2324 0.949 . S
C2319 H2314 0.950 . S
C2319 C2321 1.327 . S
C2319 C2325 1.429 . S
C2320 C2312 1.574 . S
C2320 H2315 0.949 . S
C2320 C2326 1.368 . S
C2321 C2305 1.349 . S
C2321 H2313 0.950 . S
C2321 C2319 1.327 . S
C2322 C2310 1.349 . S
C2322 H2316 0.950 . S
C2322 C2323 1.327 . S
C2323 H2317 0.950 . S
C2323 C2322 1.327 . S
C2323 C2327 1.429 . S
C2324 C2307 1.574 . S
C2324 H2318 0.949 . S
C2324 C2328 1.368 . S
C2325 C2306 1.429 . S
C2325 C2319 1.429 . S
C2325 C2326 1.523 . S
C2326 C2307 1.368 . S
C2326 C2320 1.368 . S
C2326 C2325 1.523 . S
C2327 C2311 1.429 . S
C2327 C2323 1.429 . S
C2327 C2328 1.523 . S
C2328 C2312 1.368 . S
C2328 C2324 1.368 . S
C2328 C2327 1.523 . S
H2329 C2304 0.950 . S
H2330 C2306 0.950 . S
H2331 C2307 0.949 . S
H2332 C2309 0.950 . S
H2333 C2311 0.950 . S
C2334 C2335 1.349 . S
C2334 C2336 1.327 . S
C2334 H2359 0.950 . S
C2335 C2334 1.349 . S
C2335 C2351 1.349 . S
C2336 C2334 1.327 . S
C2336 C2355 1.429 . S
C2336 H2360 0.950 . S
C2337 C2354 1.574 . S
C2337 C2356 1.368 . S
C2337 H2361 0.949 . S
H2338 C2342 0.949 . S
C2339 C2340 1.349 . S
C2339 C2341 1.327 . S
C2339 H2362 0.950 . S
C2340 C2339 1.349 . S
C2340 C2352 1.349 . S
C2341 C2339 1.327 . S
C2341 C2357 1.429 . S
C2341 H2363 0.950 . S
C2342 H2338 0.949 . S
C2342 C2350 1.574 . S
C2342 C2358 1.368 . S
H2343 C2351 0.950 . S
H2344 C2349 0.950 . S
H2345 C2350 0.949 . S
H2346 C2352 0.950 . S
H2347 C2353 0.950 . S
H2348 C2354 0.949 . S
C2349 H2344 0.950 . S
C2349 C2351 1.327 . S
C2349 C2355 1.429 . S
C2350 C2342 1.574 . S
C2350 H2345 0.949 . S
C2350 C2356 1.368 . S
C2351 C2335 1.349 . S
C2351 H2343 0.950 . S
C2351 C2349 1.327 . S
C2352 C2340 1.349 . S
C2352 H2346 0.950 . S
C2352 C2353 1.327 . S
C2353 H2347 0.950 . S
C2353 C2352 1.327 . S
C2353 C2357 1.429 . S
C2354 C2337 1.574 . S
C2354 H2348 0.949 . S
C2354 C2358 1.368 . S
C2355 C2336 1.429 . S
C2355 C2349 1.429 . S
C2355 C2356 1.523 . S
C2356 C2337 1.368 . S
C2356 C2350 1.368 . S
C2356 C2355 1.523 . S
C2357 C2341 1.429 . S
C2357 C2353 1.429 . S
C2357 C2358 1.523 . S
C2358 C2342 1.368 . S
C2358 C2354 1.368 . S
C2358 C2357 1.523 . S
H2359 C2334 0.950 . S
H2360 C2336 0.950 . S
H2361 C2337 0.949 . S
H2362 C2339 0.950 . S
H2363 C2341 0.950 . S
C2364 C2365 1.349 . S
C2364 C2366 1.327 . S
C2364 H2389 0.950 . S
C2365 C2364 1.349 . S
C2365 C2381 1.349 . S
C2366 C2364 1.327 . S
C2366 C2385 1.429 . S
C2366 H2390 0.950 . S
C2367 C2384 1.574 . S
C2367 C2386 1.368 . S
C2367 H2391 0.949 . S
H2368 C2372 0.949 . S
C2369 C2370 1.349 . S
C2369 C2371 1.327 . S
C2369 H2392 0.950 . S
C2370 C2369 1.349 . S
C2370 C2382 1.349 . S
C2371 C2369 1.327 . S
C2371 C2387 1.429 . S
C2371 H2393 0.950 . S
C2372 H2368 0.949 . S
C2372 C2380 1.574 . S
C2372 C2388 1.368 . S
H2373 C2381 0.950 . S
H2374 C2379 0.950 . S
H2375 C2380 0.949 . S
H2376 C2382 0.950 . S
H2377 C2383 0.950 . S
H2378 C2384 0.949 . S
C2379 H2374 0.950 . S
C2379 C2381 1.327 . S
C2379 C2385 1.429 . S
C2380 C2372 1.574 . S
C2380 H2375 0.949 . S
C2380 C2386 1.368 . S
C2381 C2365 1.349 . S
C2381 H2373 0.950 . S
C2381 C2379 1.327 . S
C2382 C2370 1.349 . S
C2382 H2376 0.950 . S
C2382 C2383 1.327 . S
C2383 H2377 0.950 . S
C2383 C2382 1.327 . S
C2383 C2387 1.429 . S
C2384 C2367 1.574 . S
C2384 H2378 0.949 . S
C2384 C2388 1.368 . S
C2385 C2366 1.429 . S
C2385 C2379 1.429 . S
C2385 C2386 1.523 . S
C2386 C2367 1.368 . S
C2386 C2380 1.368 . S
C2386 C2385 1.523 . S
C2387 C2371 1.429 . S
C2387 C2383 1.429 . S
C2387 C2388 1.523 . S
C2388 C2372 1.368 . S
C2388 C2384 1.368 . S
C2388 C2387 1.523 . S
H2389 C2364 0.950 . S
H2390 C2366 0.950 . S
H2391 C2367 0.949 . S
H2392 C2369 0.950 . S
H2393 C2371 0.950 . S
C2394 C2395 1.349 . S
C2394 C2396 1.327 . S
C2394 H2419 0.950 . S
C2395 C2394 1.349 . S
C2395 C2411 1.349 . S
C2396 C2394 1.327 . S
C2396 C2415 1.429 . S
C2396 H2420 0.950 . S
C2397 C2414 1.574 . S
C2397 C2416 1.368 . S
C2397 H2421 0.949 . S
H2398 C2402 0.949 . S
C2399 C2400 1.349 . S
C2399 C2401 1.327 1_556 S
C2399 H2422 0.950 . S
C2400 C2399 1.349 . S
C2400 C2412 1.349 . S
C2401 C2399 1.327 1_554 S
C2401 C2417 1.429 . S
C2401 H2423 0.950 . S
C2402 H2398 0.949 . S
C2402 C2410 1.574 . S
C2402 C2418 1.368 . S
H2403 C2411 0.950 . S
H2404 C2409 0.950 . S
H2405 C2410 0.949 . S
H2406 C2412 0.950 . S
H2407 C2413 0.950 . S
H2408 C2414 0.949 . S
C2409 H2404 0.950 . S
C2409 C2411 1.327 . S
C2409 C2415 1.429 . S
C2410 C2402 1.574 . S
C2410 H2405 0.949 . S
C2410 C2416 1.368 . S
C2411 C2395 1.349 . S
C2411 H2403 0.950 . S
C2411 C2409 1.327 . S
C2412 C2400 1.349 . S
C2412 H2406 0.950 . S
C2412 C2413 1.327 1_556 S
C2413 H2407 0.950 . S
C2413 C2412 1.327 1_554 S
C2413 C2417 1.429 . S
C2414 C2397 1.574 . S
C2414 H2408 0.949 . S
C2414 C2418 1.368 . S
C2415 C2396 1.429 . S
C2415 C2409 1.429 . S
C2415 C2416 1.523 . S
C2416 C2397 1.368 . S
C2416 C2410 1.368 . S
C2416 C2415 1.523 . S
C2417 C2401 1.429 . S
C2417 C2413 1.429 . S
C2417 C2418 1.523 . S
C2418 C2402 1.368 . S
C2418 C2414 1.368 . S
C2418 C2417 1.523 . S
H2419 C2394 0.950 . S
H2420 C2396 0.950 . S
H2421 C2397 0.949 . S
H2422 C2399 0.950 . S
H2423 C2401 0.950 . S
C2424 C2425 1.349 . S
C2424 C2426 1.327 . S
C2424 H2449 0.950 . S
C2425 C2424 1.349 . S
C2425 C2441 1.349 . S
C2426 C2424 1.327 . S
C2426 C2445 1.429 . S
C2426 H2450 0.950 . S
C2427 C2444 1.574 . S
C2427 C2446 1.368 . S
C2427 H2451 0.949 . S
H2428 C2432 0.949 . S
C2429 C2430 1.349 . S
C2429 C2431 1.327 1_556 S
C2429 H2452 0.950 . S
C2430 C2429 1.349 . S
C2430 C2442 1.349 . S
C2431 C2429 1.327 1_554 S
C2431 C2447 1.429 . S
C2431 H2453 0.950 . S
C2432 H2428 0.949 . S
C2432 C2440 1.574 . S
C2432 C2448 1.368 . S
H2433 C2441 0.950 . S
H2434 C2439 0.950 . S
H2435 C2440 0.949 . S
H2436 C2442 0.950 . S
H2437 C2443 0.950 . S
H2438 C2444 0.949 . S
C2439 H2434 0.950 . S
C2439 C2441 1.327 . S
C2439 C2445 1.429 . S
C2440 C2432 1.574 . S
C2440 H2435 0.949 . S
C2440 C2446 1.368 . S
C2441 C2425 1.349 . S
C2441 H2433 0.950 . S
C2441 C2439 1.327 . S
C2442 C2430 1.349 . S
C2442 H2436 0.950 . S
C2442 C2443 1.327 1_556 S
C2443 H2437 0.950 . S
C2443 C2442 1.327 1_554 S
C2443 C2447 1.429 . S
C2444 C2427 1.574 . S
C2444 H2438 0.949 . S
C2444 C2448 1.368 . S
C2445 C2426 1.429 . S
C2445 C2439 1.429 . S
C2445 C2446 1.523 . S
C2446 C2427 1.368 . S
C2446 C2440 1.368 . S
C2446 C2445 1.523 . S
C2447 C2431 1.429 . S
C2447 C2443 1.429 . S
C2447 C2448 1.523 . S
C2448 C2432 1.368 . S
C2448 C2444 1.368 . S
C2448 C2447 1.523 . S
H2449 C2424 0.950 . S
H2450 C2426 0.950 . S
H2451 C2427 0.949 . S
H2452 C2429 0.950 . S
H2453 C2431 0.950 . S
C2454 C2455 1.349 . S
C2454 C2456 1.327 . S
C2454 H2479 0.950 . S
C2455 C2454 1.349 . S
C2455 C2471 1.349 . S
C2456 C2454 1.327 . S
C2456 C2475 1.429 . S
C2456 H2480 0.950 . S
C2457 C2474 1.574 . S
C2457 C2476 1.368 . S
C2457 H2481 0.949 . S
H2458 C2462 0.949 . S
C2459 C2460 1.349 . S
C2459 C2461 1.327 1_556 S
C2459 H2482 0.950 . S
C2460 C2459 1.349 . S
C2460 C2472 1.349 . S
C2461 C2459 1.327 1_554 S
C2461 C2477 1.429 . S
C2461 H2483 0.950 . S
C2462 H2458 0.949 . S
C2462 C2470 1.574 . S
C2462 C2478 1.368 . S
H2463 C2471 0.950 . S
H2464 C2469 0.950 . S
H2465 C2470 0.949 . S
H2466 C2472 0.950 . S
H2467 C2473 0.950 . S
H2468 C2474 0.949 . S
C2469 H2464 0.950 . S
C2469 C2471 1.327 . S
C2469 C2475 1.429 . S
C2470 C2462 1.574 . S
C2470 H2465 0.949 . S
C2470 C2476 1.368 . S
C2471 C2455 1.349 . S
C2471 H2463 0.950 . S
C2471 C2469 1.327 . S
C2472 C2460 1.349 . S
C2472 H2466 0.950 . S
C2472 C2473 1.327 1_556 S
C2473 H2467 0.950 . S
C2473 C2472 1.327 1_554 S
C2473 C2477 1.429 . S
C2474 C2457 1.574 . S
C2474 H2468 0.949 . S
C2474 C2478 1.368 . S
C2475 C2456 1.429 . S
C2475 C2469 1.429 . S
C2475 C2476 1.523 . S
C2476 C2457 1.368 . S
C2476 C2470 1.368 . S
C2476 C2475 1.523 . S
C2477 C2461 1.429 . S
C2477 C2473 1.429 . S
C2477 C2478 1.523 . S
C2478 C2462 1.368 . S
C2478 C2474 1.368 . S
C2478 C2477 1.523 . S
H2479 C2454 0.950 . S
H2480 C2456 0.950 . S
H2481 C2457 0.949 . S
H2482 C2459 0.950 . S
H2483 C2461 0.950 . S
C2484 C2485 1.349 . S
C2484 C2486 1.327 1_554 S
C2484 H2509 0.950 . S
C2485 C2484 1.349 . S
C2485 C2501 1.349 . S
C2486 C2484 1.327 1_556 S
C2486 C2505 1.429 . S
C2486 H2510 0.950 . S
C2487 C2504 1.574 . S
C2487 C2506 1.368 . S
C2487 H2511 0.949 . S
H2488 C2492 0.949 . S
C2489 C2490 1.349 . S
C2489 C2491 1.327 . S
C2489 H2512 0.950 . S
C2490 C2489 1.349 . S
C2490 C2502 1.349 . S
C2491 C2489 1.327 . S
C2491 C2507 1.429 . S
C2491 H2513 0.950 . S
C2492 H2488 0.949 . S
C2492 C2500 1.574 . S
C2492 C2508 1.368 . S
H2493 C2501 0.950 . S
H2494 C2499 0.950 . S
H2495 C2500 0.949 . S
H2496 C2502 0.950 . S
H2497 C2503 0.950 . S
H2498 C2504 0.949 . S
C2499 H2494 0.950 . S
C2499 C2501 1.327 1_556 S
C2499 C2505 1.429 . S
C2500 C2492 1.574 . S
C2500 H2495 0.949 . S
C2500 C2506 1.368 . S
C2501 C2485 1.349 . S
C2501 H2493 0.950 . S
C2501 C2499 1.327 1_554 S
C2502 C2490 1.349 . S
C2502 H2496 0.950 . S
C2502 C2503 1.327 . S
C2503 H2497 0.950 . S
C2503 C2502 1.327 . S
C2503 C2507 1.429 . S
C2504 C2487 1.574 . S
C2504 H2498 0.949 . S
C2504 C2508 1.368 . S
C2505 C2486 1.429 . S
C2505 C2499 1.429 . S
C2505 C2506 1.523 . S
C2506 C2487 1.368 . S
C2506 C2500 1.368 . S
C2506 C2505 1.523 . S
C2507 C2491 1.429 . S
C2507 C2503 1.429 . S
C2507 C2508 1.523 . S
C2508 C2492 1.368 . S
C2508 C2504 1.368 . S
C2508 C2507 1.523 . S
H2509 C2484 0.950 . S
H2510 C2486 0.950 . S
H2511 C2487 0.949 . S
H2512 C2489 0.950 . S
H2513 C2491 0.950 . S
C2514 C2515 1.349 . S
C2514 C2516 1.327 1_554 S
C2514 H2539 0.950 . S
C2515 C2514 1.349 . S
C2515 C2531 1.349 . S
C2516 C2514 1.327 1_556 S
C2516 C2535 1.429 . S
C2516 H2540 0.950 . S
C2517 C2534 1.574 . S
C2517 C2536 1.368 . S
C2517 H2541 0.949 . S
H2518 C2522 0.949 . S
C2519 C2520 1.349 . S
C2519 C2521 1.327 . S
C2519 H2542 0.950 . S
C2520 C2519 1.349 . S
C2520 C2532 1.349 . S
C2521 C2519 1.327 . S
C2521 C2537 1.429 . S
C2521 H2543 0.950 . S
C2522 H2518 0.949 . S
C2522 C2530 1.574 . S
C2522 C2538 1.368 . S
H2523 C2531 0.950 . S
H2524 C2529 0.950 . S
H2525 C2530 0.949 . S
H2526 C2532 0.950 . S
H2527 C2533 0.950 . S
H2528 C2534 0.949 . S
C2529 H2524 0.950 . S
C2529 C2531 1.327 1_556 S
C2529 C2535 1.429 . S
C2530 C2522 1.574 . S
C2530 H2525 0.949 . S
C2530 C2536 1.368 . S
C2531 C2515 1.349 . S
C2531 H2523 0.950 . S
C2531 C2529 1.327 1_554 S
C2532 C2520 1.349 . S
C2532 H2526 0.950 . S
C2532 C2533 1.327 . S
C2533 H2527 0.950 . S
C2533 C2532 1.327 . S
C2533 C2537 1.429 . S
C2534 C2517 1.574 . S
C2534 H2528 0.949 . S
C2534 C2538 1.368 . S
C2535 C2516 1.429 . S
C2535 C2529 1.429 . S
C2535 C2536 1.523 . S
C2536 C2517 1.368 . S
C2536 C2530 1.368 . S
C2536 C2535 1.523 . S
C2537 C2521 1.429 . S
C2537 C2533 1.429 . S
C2537 C2538 1.523 . S
C2538 C2522 1.368 . S
C2538 C2534 1.368 . S
C2538 C2537 1.523 . S
H2539 C2514 0.950 . S
H2540 C2516 0.950 . S
H2541 C2517 0.949 . S
H2542 C2519 0.950 . S
H2543 C2521 0.950 . S
C2544 C2545 1.349 . S
C2544 C2546 1.327 1_554 S
C2544 H2569 0.950 . S
C2545 C2544 1.349 . S
C2545 C2561 1.349 . S
C2546 C2544 1.327 1_556 S
C2546 C2565 1.429 . S
C2546 H2570 0.950 . S
C2547 C2564 1.574 . S
C2547 C2566 1.368 . S
C2547 H2571 0.949 . S
H2548 C2552 0.949 . S
C2549 C2550 1.349 . S
C2549 C2551 1.327 . S
C2549 H2572 0.950 . S
C2550 C2549 1.349 . S
C2550 C2562 1.349 . S
C2551 C2549 1.327 . S
C2551 C2567 1.429 . S
C2551 H2573 0.950 . S
C2552 H2548 0.949 . S
C2552 C2560 1.574 . S
C2552 C2568 1.368 . S
H2553 C2561 0.950 . S
H2554 C2559 0.950 . S
H2555 C2560 0.949 . S
H2556 C2562 0.950 . S
H2557 C2563 0.950 . S
H2558 C2564 0.949 . S
C2559 H2554 0.950 . S
C2559 C2561 1.327 1_556 S
C2559 C2565 1.429 . S
C2560 C2552 1.574 . S
C2560 H2555 0.949 . S
C2560 C2566 1.368 . S
C2561 C2545 1.349 . S
C2561 H2553 0.950 . S
C2561 C2559 1.327 1_554 S
C2562 C2550 1.349 . S
C2562 H2556 0.950 . S
C2562 C2563 1.327 . S
C2563 H2557 0.950 . S
C2563 C2562 1.327 . S
C2563 C2567 1.429 . S
C2564 C2547 1.574 . S
C2564 H2558 0.949 . S
C2564 C2568 1.368 . S
C2565 C2546 1.429 . S
C2565 C2559 1.429 . S
C2565 C2566 1.523 . S
C2566 C2547 1.368 . S
C2566 C2560 1.368 . S
C2566 C2565 1.523 . S
C2567 C2551 1.429 . S
C2567 C2563 1.429 . S
C2567 C2568 1.523 . S
C2568 C2552 1.368 . S
C2568 C2564 1.368 . S
C2568 C2567 1.523 . S
H2569 C2544 0.950 . S
H2570 C2546 0.950 . S
H2571 C2547 0.949 . S
H2572 C2549 0.950 . S
H2573 C2551 0.950 . S
C2574 C2575 1.349 . S
C2574 C2576 1.327 . S
C2574 H2599 0.950 . S
C2575 C2574 1.349 . S
C2575 C2591 1.349 . S
C2576 C2574 1.327 . S
C2576 C2595 1.429 . S
C2576 H2600 0.950 . S
C2577 C2594 1.574 . S
C2577 C2596 1.368 . S
C2577 H2601 0.949 . S
H2578 C2582 0.949 . S
C2579 C2580 1.349 . S
C2579 C2581 1.327 . S
C2579 H2602 0.950 . S
C2580 C2579 1.349 . S
C2580 C2592 1.349 . S
C2581 C2579 1.327 . S
C2581 C2597 1.429 . S
C2581 H2603 0.950 . S
C2582 H2578 0.949 . S
C2582 C2590 1.574 . S
C2582 C2598 1.368 . S
H2583 C2591 0.950 . S
H2584 C2589 0.950 . S
H2585 C2590 0.949 . S
H2586 C2592 0.950 . S
H2587 C2593 0.950 . S
H2588 C2594 0.949 . S
C2589 H2584 0.950 . S
C2589 C2591 1.327 . S
C2589 C2595 1.429 . S
C2590 C2582 1.574 . S
C2590 H2585 0.949 . S
C2590 C2596 1.368 . S
C2591 C2575 1.349 . S
C2591 H2583 0.950 . S
C2591 C2589 1.327 . S
C2592 C2580 1.349 . S
C2592 H2586 0.950 . S
C2592 C2593 1.327 . S
C2593 H2587 0.950 . S
C2593 C2592 1.327 . S
C2593 C2597 1.429 . S
C2594 C2577 1.574 . S
C2594 H2588 0.949 . S
C2594 C2598 1.368 . S
C2595 C2576 1.429 . S
C2595 C2589 1.429 . S
C2595 C2596 1.523 . S
C2596 C2577 1.368 . S
C2596 C2590 1.368 . S
C2596 C2595 1.523 . S
C2597 C2581 1.429 . S
C2597 C2593 1.429 . S
C2597 C2598 1.523 . S
C2598 C2582 1.368 . S
C2598 C2594 1.368 . S
C2598 C2597 1.523 . S
H2599 C2574 0.950 . S
H2600 C2576 0.950 . S
H2601 C2577 0.949 . S
H2602 C2579 0.950 . S
H2603 C2581 0.950 . S
C2604 C2605 1.349 . S
C2604 C2606 1.327 . S
C2604 H2629 0.950 . S
C2605 C2604 1.349 . S
C2605 C2621 1.349 . S
C2606 C2604 1.327 . S
C2606 C2625 1.429 . S
C2606 H2630 0.950 . S
C2607 C2624 1.574 . S
C2607 C2626 1.368 . S
C2607 H2631 0.949 . S
H2608 C2612 0.949 . S
C2609 C2610 1.349 . S
C2609 C2611 1.327 . S
C2609 H2632 0.950 . S
C2610 C2609 1.349 . S
C2610 C2622 1.349 . S
C2611 C2609 1.327 . S
C2611 C2627 1.429 . S
C2611 H2633 0.950 . S
C2612 H2608 0.949 . S
C2612 C2620 1.574 . S
C2612 C2628 1.368 . S
H2613 C2621 0.950 . S
H2614 C2619 0.950 . S
H2615 C2620 0.949 . S
H2616 C2622 0.950 . S
H2617 C2623 0.950 . S
H2618 C2624 0.949 . S
C2619 H2614 0.950 . S
C2619 C2621 1.327 . S
C2619 C2625 1.429 . S
C2620 C2612 1.574 . S
C2620 H2615 0.949 . S
C2620 C2626 1.368 . S
C2621 C2605 1.349 . S
C2621 H2613 0.950 . S
C2621 C2619 1.327 . S
C2622 C2610 1.349 . S
C2622 H2616 0.950 . S
C2622 C2623 1.327 . S
C2623 H2617 0.950 . S
C2623 C2622 1.327 . S
C2623 C2627 1.429 . S
C2624 C2607 1.574 . S
C2624 H2618 0.949 . S
C2624 C2628 1.368 . S
C2625 C2606 1.429 . S
C2625 C2619 1.429 . S
C2625 C2626 1.523 . S
C2626 C2607 1.368 . S
C2626 C2620 1.368 . S
C2626 C2625 1.523 . S
C2627 C2611 1.429 . S
C2627 C2623 1.429 . S
C2627 C2628 1.523 . S
C2628 C2612 1.368 . S
C2628 C2624 1.368 . S
C2628 C2627 1.523 . S
H2629 C2604 0.950 . S
H2630 C2606 0.950 . S
H2631 C2607 0.949 . S
H2632 C2609 0.950 . S
H2633 C2611 0.950 . S
C2634 C2635 1.349 . S
C2634 C2636 1.327 . S
C2634 H2659 0.950 . S
C2635 C2634 1.349 . S
C2635 C2651 1.349 . S
C2636 C2634 1.327 . S
C2636 C2655 1.429 . S
C2636 H2660 0.950 . S
C2637 C2654 1.574 . S
C2637 C2656 1.368 . S
C2637 H2661 0.949 . S
H2638 C2642 0.949 . S
C2639 C2640 1.349 . S
C2639 C2641 1.327 . S
C2639 H2662 0.950 . S
C2640 C2639 1.349 . S
C2640 C2652 1.349 . S
C2641 C2639 1.327 . S
C2641 C2657 1.429 . S
C2641 H2663 0.950 . S
C2642 H2638 0.949 . S
C2642 C2650 1.574 . S
C2642 C2658 1.368 . S
H2643 C2651 0.950 . S
H2644 C2649 0.950 . S
H2645 C2650 0.949 . S
H2646 C2652 0.950 . S
H2647 C2653 0.950 . S
H2648 C2654 0.949 . S
C2649 H2644 0.950 . S
C2649 C2651 1.327 . S
C2649 C2655 1.429 . S
C2650 C2642 1.574 . S
C2650 H2645 0.949 . S
C2650 C2656 1.368 . S
C2651 C2635 1.349 . S
C2651 H2643 0.950 . S
C2651 C2649 1.327 . S
C2652 C2640 1.349 . S
C2652 H2646 0.950 . S
C2652 C2653 1.327 . S
C2653 H2647 0.950 . S
C2653 C2652 1.327 . S
C2653 C2657 1.429 . S
C2654 C2637 1.574 . S
C2654 H2648 0.949 . S
C2654 C2658 1.368 . S
C2655 C2636 1.429 . S
C2655 C2649 1.429 . S
C2655 C2656 1.523 . S
C2656 C2637 1.368 . S
C2656 C2650 1.368 . S
C2656 C2655 1.523 . S
C2657 C2641 1.429 . S
C2657 C2653 1.429 . S
C2657 C2658 1.523 . S
C2658 C2642 1.368 . S
C2658 C2654 1.368 . S
C2658 C2657 1.523 . S
H2659 C2634 0.950 . S
H2660 C2636 0.950 . S
H2661 C2637 0.949 . S
H2662 C2639 0.950 . S
H2663 C2641 0.950 . S
C505 C232 0.998 . S
C510 C8 0.998 1_556 S
C535 C246 0.998 . S
C540 C22 0.998 1_556 S
C565 C36 0.998 1_556 S
C570 C218 0.998 . S
C595 C372 0.998 . S
C600 C50 0.998 . S
C625 C344 0.998 . S
C630 C64 0.998 . S
C655 C78 0.998 . S
C660 C358 0.998 . S
C685 C484 0.998 . S
C690 C92 0.998 1_554 S
C715 C498 0.998 . S
C720 C106 0.998 1_554 S
C745 C470 0.998 . S
C750 C120 0.998 1_554 S
C775 C288 0.998 . S
C780 C134 0.998 . S
C805 C148 0.998 . S
C810 C260 0.998 . S
C835 C274 0.998 . S
C840 C162 0.998 . S
C865 C400 0.998 . S
C870 C176 0.998 . S
C895 C190 0.998 . S
C900 C414 0.998 . S
C925 C386 0.998 . S
C930 C204 0.998 . S
C955 C456 0.998 . S
C960 C302 0.998 . S
C985 C428 0.998 . S
C990 C316 0.998 . S
C1015 C330 0.998 . S
C1020 C442 0.998 . S
C1045 C101 1.569 . S
C1050 C7 1.549 . S
C1075 C115 1.568 . S
C1080 C21 1.549 . S
C1105 C87 1.569 . S
C1110 C35 1.549 . S
C1135 C49 1.549 . S
C1140 C157 1.569 . S
C1165 C129 1.569 . S
C1170 C63 1.549 . S
C1195 C77 1.549 . S
C1200 C143 1.568 . S
C1225 C17 1.569 . S
C1230 C91 1.549 . S
C1255 C105 1.549 . S
C1260 C31 1.568 . S
C1285 C3 1.569 . S
C1290 C119 1.549 . S
C1315 C73 1.569 . S
C1320 C133 1.549 . S
C1345 C45 1.569 . S
C1350 C147 1.549 . S
C1375 C161 1.549 . S
C1380 C59 1.568 . S
C1405 C175 1.549 . S
C1410 C269 1.568 . S
C1435 C283 1.568 . S
C1440 C189 1.549 . S
C1465 C255 1.569 . S
C1470 C203 1.549 . S
C1495 C217 1.549 . S
C1500 C325 1.568 . S
C1525 C297 1.568 . S
C1530 C231 1.549 . S
C1555 C245 1.549 . S
C1560 C311 1.568 . S
C1585 C259 1.549 . S
C1590 C185 1.568 . S
C1615 C273 1.549 . S
C1620 C199 1.568 . S
C1645 C171 1.568 . S
C1650 C287 1.549 . S
C1675 C241 1.568 . S
C1680 C301 1.549 . S
C1705 C213 1.569 . S
C1710 C315 1.549 . S
C1735 C329 1.549 . S
C1740 C227 1.568 . S
C1765 C437 1.568 . S
C1770 C343 1.549 . S
C1795 C357 1.549 . S
C1800 C451 1.568 . S
C1825 C371 1.549 . S
C1830 C423 1.568 . S
C1855 C493 1.568 . S
C1860 C385 1.549 . S
C1885 C399 1.549 . S
C1890 C465 1.569 . S
C1915 C479 1.568 . S
C1920 C413 1.549 . S
C1945 C353 1.568 . S
C1950 C427 1.549 . S
C1975 C367 1.568 . S
C1980 C441 1.549 . S
C2005 C455 1.549 . S
C2010 C339 1.569 . S
C2035 C469 1.549 . S
C2040 C409 1.568 . S
C2065 C381 1.568 . S
C2070 C483 1.549 . S
C2095 C395 1.568 . S
C2100 C497 1.549 . S
C2125 C9 1.585 . S
C2130 C51 1.585 . S
C2155 C23 1.585 . S
C2160 C65 1.585 . S
C2185 C79 1.585 . S
C2190 C37 1.585 . S
C2215 C93 1.585 . S
C2220 C135 1.585 . S
C2245 C149 1.585 . S
C2250 C107 1.585 . S
C2275 C163 1.585 . S
C2280 C121 1.585 . S
C2305 C177 1.585 . S
C2310 C219 1.585 . S
C2335 C191 1.585 . S
C2340 C233 1.585 . S
C2365 C247 1.585 . S
C2370 C205 1.585 . S
C2395 C261 1.585 . S
C2400 C303 1.585 . S
C2425 C275 1.585 . S
C2430 C317 1.585 . S
C2455 C289 1.585 . S
C2460 C331 1.585 . S
C2485 C387 1.585 . S
C2490 C345 1.585 . S
C2515 C401 1.585 . S
C2520 C359 1.585 . S
C2545 C415 1.585 . S
C2550 C373 1.585 . S
C2575 C429 1.585 . S
C2580 C471 1.585 . S
C2605 C485 1.585 . S
C2610 C443 1.585 . S
C2635 C499 1.585 . S
C2640 C457 1.585 . S
