# Generated by pormake.
# Topology zfb, (5)-cn, num edge types: 1
# Building blocks:
#     Node 0, Type 0, BuildingBlock: BEQFEK_clean_sbu_0, # of connection points: 5
#     Node 1, Type 0, BuildingBlock: BEQFEK_clean_sbu_0, # of connection points: 5
#     Node 2, Type 0, BuildingBlock: BEQFEK_clean_sbu_0, # of connection points: 5
#     Node 3, Type 0, BuildingBlock: BEQFEK_clean_sbu_0, # of connection points: 5
#     Node 4, Type 0, BuildingBlock: BEQFEK_clean_sbu_0, # of connection points: 5
#     Node 5, Type 0, BuildingBlock: BEQFEK_clean_sbu_0, # of connection points: 5
#     Node 6, Type 0, BuildingBlock: BEQFEK_clean_sbu_0, # of connection points: 5
#     Node 7, Type 0, BuildingBlock: BEQFEK_clean_sbu_0, # of connection points: 5
#     Edge 8, Type (0, 0), BuildingBlock: CIFDUS_clean_linker_0, # of connection points: 2
#     Edge 9, Type (0, 0), BuildingBlock: CIFDUS_clean_linker_0, # of connection points: 2
#     Edge 10, Type (0, 0), BuildingBlock: CIFDUS_clean_linker_0, # of connection points: 2
#     Edge 11, Type (0, 0), BuildingBlock: CIFDUS_clean_linker_0, # of connection points: 2
#     Edge 12, Type (0, 0), BuildingBlock: CIFDUS_clean_linker_0, # of connection points: 2
#     Edge 13, Type (0, 0), BuildingBlock: CIFDUS_clean_linker_0, # of connection points: 2
#     Edge 14, Type (0, 0), BuildingBlock: CIFDUS_clean_linker_0, # of connection points: 2
#     Edge 15, Type (0, 0), BuildingBlock: CIFDUS_clean_linker_0, # of connection points: 2
#     Edge 16, Type (0, 0), BuildingBlock: CIFDUS_clean_linker_0, # of connection points: 2
#     Edge 17, Type (0, 0), BuildingBlock: CIFDUS_clean_linker_0, # of connection points: 2
#     Edge 18, Type (0, 0), BuildingBlock: CIFDUS_clean_linker_0, # of connection points: 2
#     Edge 19, Type (0, 0), BuildingBlock: CIFDUS_clean_linker_0, # of connection points: 2
#     Edge 20, Type (0, 0), BuildingBlock: CIFDUS_clean_linker_0, # of connection points: 2
#     Edge 21, Type (0, 0), BuildingBlock: CIFDUS_clean_linker_0, # of connection points: 2
#     Edge 22, Type (0, 0), BuildingBlock: CIFDUS_clean_linker_0, # of connection points: 2
#     Edge 23, Type (0, 0), BuildingBlock: CIFDUS_clean_linker_0, # of connection points: 2
#     Edge 24, Type (0, 0), BuildingBlock: CIFDUS_clean_linker_0, # of connection points: 2
#     Edge 25, Type (0, 0), BuildingBlock: CIFDUS_clean_linker_0, # of connection points: 2
#     Edge 26, Type (0, 0), BuildingBlock: CIFDUS_clean_linker_0, # of connection points: 2
#     Edge 27, Type (0, 0), BuildingBlock: CIFDUS_clean_linker_0, # of connection points: 2
# Relax obj value: 0.113
# Max RMSD: 0.137
# Mean RMSD: 0.137
data_MOF--net-zfb--node1-BEQFEK_clean_sbu_0--edge1-CIFDUS_clean_linker_0
_symmetry_space_group_name_H-M    P1
_symmetry_Int_Tables_number       1
_symmetry_cell_setting            triclinic
loop_
_symmetry_equiv_pos_as_xyz
'x, y, z'
_cell_length_a     27.007869
_cell_length_b     27.088855
_cell_length_c     35.057986
_cell_angle_alpha  89.961312
_cell_angle_beta   90.00733
_cell_angle_gamma 89.933878
loop_
_atom_site_label
_atom_site_type_symbol
_atom_site_fract_x
_atom_site_fract_y
_atom_site_fract_z
_atom_type_partial_charge
Co0 Co 0.19748 0.36478 0.10547 0.0
Co1 Co 0.18659 0.36686 0.01536 0.0
C2 C 0.10576 0.40279 0.0625 0.0
O3 O 0.13107 0.39383 0.09254 0.0
O4 O 0.12128 0.39144 0.02929 0.0
C5 C 0.16265 0.32911 0.17798 0.0
O6 O 0.1271 0.31101 0.15658 0.0
C7 C 0.16875 0.36046 0.93071 0.0
C8 C 0.24656 0.36286 0.91119 0.0
C9 C 0.19827 0.36081 0.8982 0.0
N10 N 0.19856 0.36212 0.96156 0.0
N11 N 0.2449 0.36341 0.94949 0.0
C12 C 0.11341 0.36129 0.93222 0.0
H13 H 0.1004 0.3791 0.95883 0.0
H14 H 0.09938 0.32282 0.93168 0.0
H15 H 0.09807 0.38108 0.90711 0.0
C16 C 0.2151 0.25732 0.08713 0.0
N17 N 0.20797 0.30493 0.07685 0.0
N18 N 0.19964 0.30642 0.03992 0.0
C19 C 0.19882 0.26028 0.02581 0.0
C20 C 0.20921 0.22706 0.05506 0.0
C21 C 0.22811 0.24147 0.12677 0.0
H22 H 0.2479 0.27153 0.14186 0.0
H23 H 0.19368 0.23293 0.14269 0.0
H24 H 0.25169 0.20789 0.12623 0.0
O25 O 0.24534 0.41932 0.09337 0.0
O26 O 0.23023 0.42061 0.03141 0.0
H27 H 0.21254 0.25122 0.96615 0.0
H28 H 0.16471 0.2111 0.98473 0.0
C29 C 0.18105 0.24857 0.98637 0.0
H30 H 0.15246 0.27566 0.97769 0.0
H31 H 0.27554 0.36536 0.96753 0.0
O32 O 0.1978 0.3527 0.16206 0.0
C33 C 0.2506 0.43924 0.06066 0.0
Co34 Co 0.64022 0.18837 0.59452 0.0
Co35 Co 0.62049 0.1977 0.50586 0.0
C36 C 0.59713 0.10562 0.54849 0.0
O37 O 0.61369 0.12343 0.57954 0.0
O38 O 0.59837 0.13012 0.51753 0.0
C39 C 0.6803 0.14051 0.6597 0.0
O40 O 0.68822 0.10615 0.63397 0.0
C41 C 0.62515 0.17495 0.42411 0.0
C42 C 0.6011 0.24549 0.3984 0.0
C43 C 0.61609 0.19794 0.38915 0.0
N44 N 0.61597 0.20753 0.45214 0.0
N45 N 0.60124 0.24946 0.43662 0.0
C46 C 0.64509 0.12421 0.43145 0.0
H47 H 0.66059 0.12159 0.46069 0.0
H48 H 0.67444 0.11489 0.4105 0.0
H49 H 0.61461 0.09697 0.42896 0.0
C50 C 0.74232 0.21406 0.56806 0.0
N51 N 0.69358 0.2069 0.56161 0.0
N52 N 0.68519 0.21027 0.52469 0.0
C53 C 0.72813 0.21985 0.50654 0.0
C54 C 0.76595 0.22233 0.53337 0.0
C55 C 0.76565 0.21315 0.60675 0.0
H56 H 0.74051 0.23045 0.62788 0.0
H57 H 0.77199 0.17424 0.61536 0.0
H58 H 0.80166 0.23286 0.60676 0.0
O59 O 0.58103 0.23278 0.59144 0.0
O60 O 0.57022 0.24066 0.52893 0.0
H61 H 0.7078 0.25069 0.45248 0.0
H62 H 0.77143 0.23007 0.45458 0.0
C63 C 0.73317 0.22214 0.46401 0.0
H64 H 0.72257 0.18609 0.45178 0.0
H65 H 0.59156 0.2809 0.45216 0.0
O66 O 0.66143 0.18138 0.6491 0.0
C67 C 0.55664 0.24939 0.56299 0.0
Co68 Co 0.80215 0.63798 0.08933 0.0
Co69 Co 0.80859 0.63158 1.0002 0.0
C70 C 0.89452 0.60504 0.04632 0.0
O71 O 0.86987 0.61185 0.07697 0.0
O72 O 0.87629 0.61474 0.01372 0.0
C73 C 0.83534 0.67673 0.16088 0.0
O74 O 0.87124 0.69479 0.13979 0.0
C75 C 0.83347 0.63918 0.91889 0.0
C76 C 0.75918 0.63327 0.89272 0.0
C77 C 0.80876 0.64006 0.88425 0.0
N78 N 0.79977 0.6331 0.94664 0.0
N79 N 0.75556 0.62897 0.93082 0.0
C80 C 0.88815 0.64124 0.92574 0.0
H81 H 0.89964 0.60764 0.94151 0.0
H82 H 0.89706 0.6736 0.94387 0.0
H83 H 0.9095 0.643 0.89878 0.0
C84 C 0.7766 0.74352 0.0679 0.0
N85 N 0.78689 0.69584 0.05943 0.0
N86 N 0.79031 0.69179 0.02212 0.0
C87 C 0.78297 0.73608 0.00578 0.0
C88 C 0.77369 0.77034 0.03407 0.0
C89 C 0.77001 0.76319 0.10739 0.0
H90 H 0.75218 0.73503 0.12578 0.0
H91 H 0.80688 0.77211 0.1195 0.0
H92 H 0.74736 0.79741 0.10712 0.0
O93 O 0.75673 0.58074 0.0799 0.0
O94 O 0.76866 0.57648 0.01758 0.0
H95 H 0.75943 0.72963 0.94774 0.0
H96 H 0.79165 0.78645 0.95786 0.0
C97 C 0.79022 0.74637 0.96415 0.0
H98 H 0.82547 0.72964 0.95457 0.0
H99 H 0.72282 0.62406 0.94614 0.0
O100 O 0.80092 0.6523 0.14493 0.0
C101 C 0.75065 0.55887 0.04808 0.0
Co102 Co 0.36394 0.81012 0.59558 0.0
Co103 Co 0.36634 0.79723 0.5058 0.0
C104 C 0.39975 0.88929 0.53891 0.0
O105 O 0.3911 0.87188 0.57216 0.0
O106 O 0.38945 0.86531 0.50871 0.0
C107 C 0.38447 0.84903 0.66892 0.0
O108 O 0.42217 0.8666 0.64955 0.0
C109 C 0.35533 0.7986 0.42134 0.0
C110 C 0.3355 0.72045 0.41142 0.0
C111 C 0.34145 0.76536 0.39317 0.0
N112 N 0.35723 0.77426 0.45481 0.0
N113 N 0.34616 0.72747 0.44847 0.0
C114 C 0.36162 0.85327 0.41727 0.0
H115 H 0.34925 0.87249 0.44346 0.0
H116 H 0.34048 0.86764 0.3925 0.0
H117 H 0.40145 0.86155 0.4129 0.0
C118 C 0.25665 0.78919 0.58118 0.0
N119 N 0.3044 0.79183 0.56984 0.0
N120 N 0.30579 0.79134 0.5324 0.0
C121 C 0.25932 0.79147 0.51861 0.0
C122 C 0.22601 0.78892 0.54891 0.0
C123 C 0.24131 0.78795 0.62216 0.0
H124 H 0.27086 0.77086 0.63976 0.0
H125 H 0.23541 0.82628 0.63236 0.0
H126 H 0.20646 0.76679 0.62574 0.0
O127 O 0.41936 0.76262 0.58977 0.0
O128 O 0.42212 0.75806 0.52667 0.0
H129 H 0.24771 0.7696 0.46058 0.0
H130 H 0.21113 0.82233 0.47511 0.0
C131 C 0.2476 0.80385 0.4779 0.0
H132 H 0.27597 0.82926 0.46646 0.0
H133 H 0.34393 0.70069 0.46981 0.0
O134 O 0.35284 0.82241 0.65156 0.0
C135 C 0.44031 0.74797 0.55922 0.0
Co136 Co 0.69632 0.13398 0.96824 0.0
Co137 Co 0.70072 0.12903 0.05802 0.0
C138 C 0.61218 0.0947 0.01193 0.0
O139 O 0.63067 0.10884 0.98038 0.0
O140 O 0.63516 0.10037 0.04346 0.0
C141 C 0.70225 0.1161 0.88678 0.0
O142 O 0.70661 0.06965 0.89708 0.0
C143 C 0.67326 0.15558 0.13668 0.0
C144 C 0.73201 0.11766 0.16948 0.0
C145 C 0.68998 0.14641 0.17336 0.0
N146 N 0.70424 0.13334 0.11209 0.0
N147 N 0.73927 0.1108 0.1319 0.0
C148 C 0.62675 0.18169 0.12528 0.0
H149 H 0.59438 0.16131 0.13676 0.0
H150 H 0.62383 0.18415 0.09374 0.0
H151 H 0.626 0.21928 0.13776 0.0
C152 C 0.71052 0.23967 0.98522 0.0
N153 N 0.7079 0.19237 0.99673 0.0
N154 N 0.71234 0.19057 0.03406 0.0
C155 C 0.72058 0.23658 0.04734 0.0
C156 C 0.71905 0.26945 0.01687 0.0
C157 C 0.69979 0.25595 0.94522 0.0
H158 H 0.66862 0.2341 0.93348 0.0
H159 H 0.68978 0.29563 0.94388 0.0
H160 H 0.73288 0.24918 0.92719 0.0
O161 O 0.74165 0.07737 0.98037 0.0
O162 O 0.75002 0.0799 0.04334 0.0
H163 H 0.75213 0.21665 0.10156 0.0
H164 H 0.75779 0.28117 0.08944 0.0
C165 C 0.73325 0.24839 0.08788 0.0
H166 H 0.69883 0.25677 0.10382 0.0
H167 H 0.76794 0.09026 0.11978 0.0
O168 O 0.69832 0.14905 0.91243 0.0
C169 C 0.75976 0.06036 0.01134 0.0
Co170 Co 0.8619 0.69457 0.46033 0.0
Co171 Co 0.86908 0.69333 0.54956 0.0
C172 C 0.90033 0.60662 0.5043 0.0
O173 O 0.88763 0.62735 0.47306 0.0
O174 O 0.89402 0.62772 0.53639 0.0
C175 C 0.82555 0.66101 0.38828 0.0
O176 O 0.80872 0.62433 0.40911 0.0
C177 C 0.86401 0.66866 0.63128 0.0
C178 C 0.85159 0.74269 0.65611 0.0
C179 C 0.85598 0.69321 0.66539 0.0
N180 N 0.86353 0.70216 0.60301 0.0
N181 N 0.8566 0.74632 0.61807 0.0
C182 C 0.87434 0.61488 0.6255 0.0
H183 H 0.90876 0.61074 0.60864 0.0
H184 H 0.84371 0.59798 0.60897 0.0
H185 H 0.87908 0.59505 0.65293 0.0
C186 C 0.75543 0.71456 0.47979 0.0
N187 N 0.80359 0.70907 0.48938 0.0
N188 N 0.8067 0.70394 0.52655 0.0
C189 C 0.76083 0.70296 0.54162 0.0
C190 C 0.72632 0.71044 0.51265 0.0
C191 C 0.73797 0.72409 0.43996 0.0
H192 H 0.76688 0.74391 0.42355 0.0
H193 H 0.73034 0.68841 0.42564 0.0
H194 H 0.70346 0.74638 0.44009 0.0
O195 O 0.9194 0.73831 0.47071 0.0
O196 O 0.92204 0.73908 0.53384 0.0
H197 H 0.75409 0.71823 0.6013 0.0
H198 H 0.7129 0.67033 0.5845 0.0
C199 C 0.75045 0.68638 0.58162 0.0
H200 H 0.77747 0.65769 0.59008 0.0
H201 H 0.85449 0.77891 0.60222 0.0
O202 O 0.84865 0.69605 0.40452 0.0
C203 C 0.9401 0.75135 0.50177 0.0
Co204 Co 0.3145 0.86304 0.97355 0.0
Co205 Co 0.30104 0.8672 0.06297 0.0
C206 C 0.39568 0.89726 0.02461 0.0
O207 O 0.37931 0.88693 0.99142 0.0
O208 O 0.36998 0.88994 0.0546 0.0
C209 C 0.34135 0.8763 0.89438 0.0
O210 O 0.36626 0.91397 0.90806 0.0
C211 C 0.3205 0.84828 0.14404 0.0
C212 C 0.24695 0.86254 0.16944 0.0
C213 C 0.29495 0.84864 0.17836 0.0
N214 N 0.28899 0.86147 0.11617 0.0
N215 N 0.24521 0.87032 0.13157 0.0
C216 C 0.37284 0.83251 0.13721 0.0
H217 H 0.39745 0.86509 0.13998 0.0
H218 H 0.3769 0.81745 0.10794 0.0
H219 H 0.38446 0.80437 0.15844 0.0
C220 C 0.29586 0.75698 0.98931 0.0
N221 N 0.29728 0.80449 1.00067 0.0
N222 N 0.28936 0.80644 0.03763 0.0
C223 C 0.28088 0.76037 0.0508 0.0
C224 C 0.28526 0.72714 0.0207 0.0
C225 C 0.31025 0.7405 0.95007 0.0
H226 H 0.27862 0.7465 0.93039 0.0
H227 H 0.3419 0.76282 0.9397 0.0
H228 H 0.32095 0.70097 0.94956 0.0
O229 O 0.26991 0.92102 0.98226 0.0
O230 O 0.25939 0.92216 0.04497 0.0
H231 H 0.24222 0.77746 0.10252 0.0
H232 H 0.2488 0.71247 0.09365 0.0
C233 C 0.26749 0.74877 0.09126 0.0
H234 H 0.30157 0.74834 0.10892 0.0
H235 H 0.214 0.88105 0.11612 0.0
O236 O 0.31654 0.84952 0.91727 0.0
C237 C 0.25249 0.94125 0.01227 0.0
Co238 Co 0.13247 0.30176 0.47881 0.0
Co239 Co 0.12725 0.29845 0.56926 0.0
C240 C 0.09286 0.38623 0.5272 0.0
O241 O 0.10369 0.36624 0.49525 0.0
O242 O 0.1017 0.36489 0.55892 0.0
C243 C 0.16684 0.3411 0.40651 0.0
O244 O 0.18258 0.37767 0.42791 0.0
C245 C 0.12858 0.31359 0.65344 0.0
C246 C 0.13896 0.23654 0.67277 0.0
C247 C 0.13258 0.28429 0.68589 0.0
N248 N 0.13262 0.28426 0.62259 0.0
N249 N 0.13882 0.23835 0.63445 0.0
C250 C 0.11752 0.36767 0.65148 0.0
H251 H 0.08454 0.3737 0.6332 0.0
H252 H 0.14912 0.38711 0.63796 0.0
H253 H 0.1103 0.38354 0.68009 0.0
C254 C 0.23948 0.2847 0.49713 0.0
N255 N 0.19142 0.28785 0.50746 0.0
N256 N 0.18901 0.2906 0.54486 0.0
C257 C 0.23511 0.2921 0.55941 0.0
C258 C 0.26913 0.28791 0.52975 0.0
C259 C 0.25633 0.27803 0.4568 0.0
H260 H 0.22785 0.25788 0.44019 0.0
H261 H 0.26207 0.31472 0.44349 0.0
H262 H 0.29173 0.25722 0.45576 0.0
O263 O 0.07757 0.2546 0.48768 0.0
O264 O 0.07537 0.25296 0.55091 0.0
H265 H 0.2446 0.27167 0.6179 0.0
H266 H 0.28238 0.32339 0.60318 0.0
C267 C 0.2457 0.30551 0.60006 0.0
H268 H 0.21715 0.33148 0.61064 0.0
H269 H 0.14247 0.20807 0.61625 0.0
O270 O 0.14527 0.30468 0.42234 0.0
C271 C 0.05819 0.23986 0.51876 0.0
H272 H 0.20345 0.99353 0.06727 0.0
H273 H 0.26606 0.00737 0.95443 0.0
H274 H 0.25979 0.09692 0.95853 0.0
H275 H 0.24547 0.17126 0.99681 0.0
H276 H 0.17466 0.15852 0.10666 0.0
H277 H 0.17775 0.06866 0.1019 0.0
C278 C 0.21461 0.01604 0.04317 0.0
C279 C 0.23551 0.99345 0.01068 0.0
C280 C 0.21122 0.06781 0.04576 0.0
C281 C 0.24957 0.0234 0.97972 0.0
C282 C 0.24665 0.07481 0.98223 0.0
C283 C 0.22958 0.14903 0.0194 0.0
C284 C 0.21046 0.17204 0.05229 0.0
C285 C 0.22895 0.0974 0.01555 0.0
C286 C 0.19114 0.14219 0.08155 0.0
C287 C 0.1921 0.09064 0.07855 0.0
H288 H 0.98188 0.28169 0.48317 0.0
H289 H 0.01988 0.16045 0.55709 0.0
H290 H 0.93159 0.14297 0.56743 0.0
H291 H 0.84349 0.16654 0.55865 0.0
H292 H 0.80811 0.29567 0.49201 0.0
H293 H 0.89538 0.30627 0.4758 0.0
C294 C 0.97072 0.25045 0.50056 0.0
C295 C 0.00701 0.22126 0.51833 0.0
C296 C 0.92036 0.24293 0.5083 0.0
C297 C 0.99236 0.18241 0.54231 0.0
C298 C 0.942 0.17295 0.5486 0.0
C299 C 0.85511 0.1971 0.54079 0.0
C300 C 0.81946 0.22986 0.52598 0.0
C301 C 0.90567 0.20375 0.53245 0.0
C302 C 0.83485 0.26944 0.50303 0.0
C303 C 0.88469 0.27553 0.49379 0.0
H304 H 0.71922 0.98299 0.97627 0.0
H305 H 0.83722 0.02334 0.05274 0.0
H306 H 0.85148 0.93599 0.06801 0.0
H307 H 0.82599 0.84813 0.06249 0.0
H308 H 0.70241 0.81072 0.99036 0.0
H309 H 0.69346 0.89701 0.97133 0.0
C310 C 0.74918 0.97249 0.99527 0.0
C311 C 0.77819 0.00922 0.01248 0.0
C312 C 0.7548 0.92286 0.00573 0.0
C313 C 0.81541 0.99541 0.03839 0.0
C314 C 0.82292 0.94563 0.04759 0.0
C315 C 0.79674 0.85928 0.04311 0.0
C316 C 0.76469 0.82353 0.02789 0.0
C317 C 0.79191 0.90911 0.03221 0.0
C318 C 0.72723 0.83793 1.00247 0.0
C319 C 0.72245 0.88707 0.99131 0.0
H320 H 0.99113 0.80372 0.5559 0.0
H321 H 0.00793 0.73094 0.44711 0.0
H322 H 0.09747 0.73267 0.45405 0.0
H323 H 0.16998 0.74577 0.49407 0.0
H324 H 0.15671 0.83242 0.5968 0.0
H325 H 0.06661 0.83129 0.59055 0.0
C326 C 0.01448 0.78965 0.5332 0.0
C327 C 0.99264 0.76709 0.50108 0.0
C328 C 0.06641 0.79125 0.53709 0.0
C329 C 0.02346 0.74899 0.47193 0.0
C330 C 0.07481 0.7492 0.47614 0.0
C331 C 0.14785 0.76595 0.51457 0.0
C332 C 0.17074 0.78883 0.54601 0.0
C333 C 0.09652 0.76888 0.50909 0.0
C334 C 0.14061 0.813 0.57292 0.0
C335 C 0.08891 0.81328 0.56895 0.0
H336 H 0.77219 0.49266 0.9939 0.0
H337 H 0.69186 0.50806 0.09967 0.0
H338 H 0.67273 0.41924 0.09853 0.0
H339 H 0.68238 0.33677 0.06807 0.0
H340 H 0.77325 0.32359 0.96727 0.0
H341 H 0.78437 0.41261 0.96567 0.0
C342 C 0.74973 0.4771 0.01657 0.0
C343 C 0.73283 0.50721 0.0466 0.0
C344 C 0.74114 0.42633 0.01663 0.0
C345 C 0.70487 0.48579 0.07606 0.0
C346 C 0.69426 0.43504 0.07548 0.0
C347 C 0.70502 0.35343 0.04604 0.0
C348 C 0.72639 0.32364 0.01744 0.0
C349 C 0.71294 0.4048 0.04616 0.0
C350 C 0.75533 0.34575 0.98895 0.0
C351 C 0.762 0.39662 0.98817 0.0
H352 H 0.49202 0.6975 0.50476 0.0
H353 H 0.50735 0.76481 0.61572 0.0
H354 H 0.59717 0.76109 0.61013 0.0
H355 H 0.67088 0.74798 0.57066 0.0
H356 H 0.65718 0.67083 0.46356 0.0
H357 H 0.56719 0.67174 0.46974 0.0
C358 C 0.51501 0.71008 0.52818 0.0
C359 C 0.49275 0.73162 0.56053 0.0
C360 C 0.56692 0.70795 0.5248 0.0
C361 C 0.5232 0.74766 0.59063 0.0
C362 C 0.57473 0.74627 0.58721 0.0
C363 C 0.64848 0.73018 0.54903 0.0
C364 C 0.6712 0.71006 0.51638 0.0
C365 C 0.5969 0.72795 0.55393 0.0
C366 C 0.64106 0.68824 0.48836 0.0
C367 C 0.58945 0.6879 0.49222 0.0
H368 H 0.2349 0.50182 1.00211 0.0
H369 H 0.30853 0.49257 0.11118 0.0
H370 H 0.32908 0.5808 0.10713 0.0
H371 H 0.3211 0.66163 0.07396 0.0
H372 H 0.2368 0.66973 0.96954 0.0
H373 H 0.22605 0.5805 0.97016 0.0
C374 C 0.25623 0.51855 0.0249 0.0
C375 C 0.27052 0.49021 0.05683 0.0
C376 C 0.26561 0.56933 0.02324 0.0
C377 C 0.29737 0.51327 0.08617 0.0
C378 C 0.30879 0.5638 0.08395 0.0
C379 C 0.29997 0.64387 0.05157 0.0
C380 C 0.27987 0.67245 0.02161 0.0
C381 C 0.2921 0.59244 0.05296 0.0
C382 C 0.25339 0.64869 0.9925 0.0
C383 C 0.24693 0.59764 0.99298 0.0
H384 H 0.32817 0.24872 0.58507 0.0
H385 H 0.33437 0.33432 0.48135 0.0
H386 H 0.42455 0.33492 0.48453 0.0
H387 H 0.50186 0.30636 0.51483 0.0
H388 H 0.49479 0.22878 0.62225 0.0
H389 H 0.40462 0.23331 0.62107 0.0
C390 C 0.34901 0.26866 0.56362 0.0
C391 C 0.32419 0.29044 0.53253 0.0
C392 C 0.4008 0.27131 0.56677 0.0
C393 C 0.35223 0.3154 0.50477 0.0
C394 C 0.40392 0.31658 0.50694 0.0
C395 C 0.48062 0.29178 0.53856 0.0
C396 C 0.50515 0.26694 0.56842 0.0
C397 C 0.42863 0.29406 0.53756 0.0
C398 C 0.47708 0.24841 0.59902 0.0
C399 C 0.42537 0.25026 0.59807 0.0
H400 H 0.07724 0.4706 0.01122 0.0
H401 H 0.04014 0.41128 0.12177 0.0
H402 H 0.97406 0.47291 0.12857 0.0
H403 H 0.92604 0.54242 0.10197 0.0
H404 H 0.96661 0.60266 0.99228 0.0
H405 H 0.03346 0.54261 0.98679 0.0
C406 C 0.0542 0.47062 0.03658 0.0
C407 C 0.06258 0.43579 0.06557 0.0
C408 C 0.0178 0.50698 0.04078 0.0
C409 C 0.03365 0.43731 0.09882 0.0
C410 C 0.99628 0.47275 0.10283 0.0
C411 C 0.95024 0.54315 0.0773 0.0
C412 C 0.94123 0.5768 0.04747 0.0
C413 C 0.98816 0.50789 0.074 0.0
C414 C 0.97262 0.57697 0.01551 0.0
C415 C 0.0106 0.54242 0.01221 0.0
H416 H 0.46562 0.92285 0.59033 0.0
H417 H 0.40535 0.95332 0.47876 0.0
H418 H 0.46473 0.02073 0.47039 0.0
H419 H 0.53345 0.07058 0.49503 0.0
H420 H 0.59431 0.03823 0.60628 0.0
H421 H 0.53563 0.97063 0.61401 0.0
C422 C 0.46482 0.94479 0.56445 0.0
C423 C 0.4306 0.93384 0.53549 0.0
C424 C 0.49986 0.98221 0.55941 0.0
C425 C 0.431 0.96159 0.50164 0.0
C426 C 0.46517 -0.00025 0.49673 0.0
C427 C 0.53449 0.04825 0.52071 0.0
C428 C 0.5682 0.0595 0.55006 0.0
C429 C 0.50002 0.01008 0.52532 0.0
C430 C 0.56876 0.03037 0.58325 0.0
C431 C 0.53496 0.99198 0.58785 0.0
H432 H 0.43203 0.9587 0.97138 0.0
H433 H 0.45839 0.90582 0.08571 0.0
H434 H 0.52613 0.96525 0.0931 0.0
H435 H 0.57689 0.03285 0.06691 0.0
H436 H 0.54681 0.0869 0.95324 0.0
H437 H 0.48032 0.02704 0.94621 0.0
C438 C 0.45315 0.95947 0.99771 0.0
C439 C 0.4409 0.92738 0.02772 0.0
C440 C 0.49049 0.99471 1.00219 0.0
C441 C 0.46766 0.92982 0.06204 0.0
C442 C 0.506 0.96404 0.06637 0.0
C443 C 0.55524 0.0321 0.04086 0.0
C444 C 0.56684 0.06436 0.01066 0.0
C445 C 0.51733 0.99708 0.03675 0.0
C446 C 0.5387 0.06253 0.97695 0.0
C447 C 0.5009 0.02806 0.97275 0.0
H448 H 0.95853 0.57034 0.56043 0.0
H449 H 0.91198 0.54213 0.44467 0.0
H450 H 0.97047 0.47324 0.44066 0.0
H451 H 0.03532 0.42195 0.47001 0.0
H452 H 0.08123 0.4512 0.58581 0.0
H453 H 0.02278 0.51979 0.58954 0.0
C454 C 0.96037 0.5487 0.53448 0.0
C455 C 0.93044 0.56106 0.50304 0.0
C456 C 0.99466 0.51008 0.53214 0.0
C457 C 0.93432 0.53316 0.46939 0.0
C458 C 0.968 0.49404 0.46699 0.0
C459 C 0.03312 0.44383 0.49585 0.0
C460 C 0.06281 0.43173 0.52752 0.0
C461 C 0.99874 0.48258 0.49807 0.0
C462 C 0.0589 0.45988 0.56102 0.0
C463 C 0.0253 0.49887 0.56325 0.0
H464 H 0.21434 0.38019 0.23212 0.0
H465 H 0.10592 0.26465 0.21866 0.0
H466 H 0.09917 0.25658 0.28783 0.0
H467 H 0.12189 0.2841 0.35241 0.0
H468 H 0.22746 0.40224 0.36591 0.0
H469 H 0.23747 0.40737 0.29679 0.0
C470 C 0.18951 0.353 0.24432 0.0
C471 C 0.16071 0.32308 0.22012 0.0
C472 C 0.1851 0.34912 0.28427 0.0
C473 C 0.12841 0.28832 0.23651 0.0
C474 C 0.12452 0.28364 0.27614 0.0
C475 C 0.14731 0.31078 0.34026 0.0
C476 C 0.17384 0.34273 0.36444 0.0
C477 C 0.15234 0.31412 0.30033 0.0
C478 C 0.20637 0.3773 0.34807 0.0
C479 C 0.21219 0.38025 0.30847 0.0
H480 H 0.71607 0.05617 0.82544 0.0
H481 H 0.68235 0.20688 0.8558 0.0
H482 H 0.674 0.22834 0.78839 0.0
H483 H 0.67343 0.20358 0.72059 0.0
H484 H 0.70836 0.05281 0.69096 0.0
H485 H 0.71917 0.03242 0.75808 0.0
C486 C 0.70705 0.09378 0.81737 0.0
C487 C 0.69958 0.12971 0.84576 0.0
C488 C 0.70241 0.10595 0.77854 0.0
C489 C 0.68823 0.17836 0.83463 0.0
C490 C 0.68337 0.1907 0.79603 0.0
C491 C 0.68367 0.16635 0.72881 0.0
C492 C 0.68983 0.12982 0.70062 0.0
C493 C 0.68995 0.15469 0.7677 0.0
C494 C 0.70334 0.08178 0.71189 0.0
C495 C 0.70945 0.06995 0.75037 0.0
H496 H 0.87265 0.71827 0.33579 0.0
H497 H 0.76365 0.6027 0.34652 0.0
H498 H 0.75506 0.59932 0.27723 0.0
H499 H 0.78083 0.6268 0.2135 0.0
H500 H 0.89258 0.73971 0.20264 0.0
H501 H 0.89756 0.74662 0.27201 0.0
C502 C 0.84675 0.69258 0.32299 0.0
C503 C 0.81889 0.66074 0.34634 0.0
C504 C 0.84258 0.69024 0.28306 0.0
C505 C 0.78573 0.62747 0.32924 0.0
C506 C 0.78075 0.62552 0.2896 0.0
C507 C 0.80601 0.65321 0.22629 0.0
C508 C 0.83631 0.68267 0.20288 0.0
C509 C 0.80933 0.65638 0.26621 0.0
C510 C 0.86897 0.71644 0.21996 0.0
C511 C 0.87185 0.72044 0.25965 0.0
H512 H 0.39582 0.92227 0.83972 0.0
H513 H 0.28967 0.80509 0.85543 0.0
H514 H 0.29209 0.78708 0.78706 0.0
H515 H 0.3254 0.80412 0.72248 0.0
H516 H 0.43347 0.92001 0.70837 0.0
H517 H 0.42897 0.93897 0.77613 0.0
C518 C 0.37308 0.89281 0.82828 0.0
C519 C 0.34255 0.8652 0.85282 0.0
C520 C 0.37496 0.88237 0.78902 0.0
C521 C 0.31354 0.82703 0.8373 0.0
C522 C 0.31488 0.81669 0.79814 0.0
C523 C 0.34777 0.83363 0.73425 0.0
C524 C 0.37976 0.86052 0.71023 0.0
C525 C 0.34555 0.84407 0.77366 0.0
C526 C 0.4087 0.89848 0.72607 0.0
C527 C 0.40615 0.90946 0.76491 0.0
H528 H 0.78514 0.59509 0.81837 0.0
H529 H 0.87342 0.71297 0.86505 0.0
H530 H 0.89916 0.73736 0.80096 0.0
H531 H 0.89163 0.7287 0.73149 0.0
H532 H 0.80017 0.6133 0.68472 0.0
H533 H 0.78075 0.584 0.74891 0.0
C534 C 0.81055 0.62566 0.81437 0.0
C535 C 0.82828 0.65158 0.84615 0.0
C536 C 0.82442 0.63991 0.77749 0.0
C537 C 0.86063 0.69154 0.84093 0.0
C538 C 0.87486 0.70584 0.80432 0.0
C539 C 0.86798 0.69676 0.7355 0.0
C540 C 0.84813 0.67252 0.70368 0.0
C541 C 0.8564 0.68072 0.77241 0.0
C542 C 0.81707 0.63155 0.70891 0.0
C543 C 0.80552 0.61516 0.74556 0.0
H544 H 0.3927 0.81849 0.3404 0.0
H545 H 0.259 0.73432 0.35691 0.0
H546 H 0.23307 0.75231 0.29162 0.0
H547 H 0.24741 0.79348 0.23041 0.0
H548 H 0.38192 0.87571 0.21245 0.0
H549 H 0.4088 0.85701 0.27763 0.0
C550 C 0.35786 0.80438 0.32959 0.0
C551 C 0.32743 0.77571 0.35333 0.0
C552 C 0.3435 0.81438 0.29184 0.0
C553 C 0.2829 0.75655 0.339 0.0
C554 C 0.26801 0.76692 0.30177 0.0
C555 C 0.28267 0.80714 0.24082 0.0
C556 C 0.31283 0.83558 0.21681 0.0
C557 C 0.29786 0.79599 0.27805 0.0
C558 C 0.35852 0.85298 0.23034 0.0
C559 C 0.37369 0.84261 0.26764 0.0
H560 H 0.18416 0.35859 0.71913 0.0
H561 H 0.08286 0.23999 0.74361 0.0
H562 H 0.08984 0.25659 0.81201 0.0
H563 H 0.13062 0.30016 0.865 0.0
H564 H 0.23612 0.41509 0.84036 0.0
H565 H 0.22133 0.40521 0.772 0.0
C566 C 0.16267 0.33734 0.73945 0.0
C567 C 0.13246 0.29869 0.7265 0.0
C568 C 0.16793 0.34627 0.77872 0.0
C569 C 0.1061 0.27017 0.75308 0.0
C570 C 0.11014 0.27959 0.79213 0.0
C571 C 0.14931 0.32385 0.84466 0.0
C572 C 0.18394 0.35867 0.85758 0.0
C573 C 0.14168 0.31694 0.80534 0.0
C574 C 0.20917 0.38812 0.83094 0.0
C575 C 0.20081 0.38243 0.79189 0.0
H576 H 0.66249 0.09045 0.2331 0.0
H577 H 0.67401 0.24126 0.19514 0.0
H578 H 0.65032 0.27054 0.25869 0.0
H579 H 0.63235 0.25284 0.32587 0.0
H580 H 0.61351 0.10163 0.36216 0.0
H581 H 0.63475 0.07289 0.29867 0.0
C582 C 0.65909 0.12967 0.2388 0.0
C583 C 0.66958 0.16379 0.2098 0.0
C584 C 0.64523 0.14607 0.2752 0.0
C585 C 0.6652 0.2145 0.21707 0.0
C586 C 0.65214 0.23116 0.25342 0.0
C587 C 0.63252 0.21355 0.31997 0.0
C588 C 0.62397 0.17951 0.34965 0.0
C589 C 0.64289 0.19723 0.28285 0.0
C590 C 0.62315 0.12884 0.34096 0.0
C591 C 0.63441 0.11224 0.30426 0.0
loop_
_geom_bond_atom_site_label_1
_geom_bond_atom_site_label_2
_geom_bond_distance
_geom_bond_site_symmetry_2
_ccdc_geom_bond_type
Co0 O3 1.970 . S
Co0 N17 1.989 . S
Co0 O25 1.967 . S
Co0 O32 1.920 . S
Co1 O4 1.966 1_556 S
Co1 N10 2.022 . S
Co1 N18 1.993 1_556 S
Co1 O26 1.941 1_556 S
C2 O3 1.258 . S
C2 O4 1.263 . S
O3 Co0 1.970 . S
O3 C2 1.258 . S
O4 Co1 1.966 1_554 S
O4 C2 1.263 . S
C5 O6 1.235 . S
C5 O32 1.289 . S
O6 C5 1.235 . S
C7 C9 1.400 . S
C7 N10 1.351 . S
C7 C12 1.501 . S
C8 C9 1.387 . S
C8 N11 1.341 . S
C9 C7 1.400 . S
C9 C8 1.387 . S
N10 Co1 2.022 . S
N10 C7 1.351 . S
N10 N11 1.365 . S
N11 C8 1.341 . S
N11 N10 1.365 . S
N11 H31 0.862 . S
C12 C7 1.501 . S
C12 H13 0.961 . S
C12 H14 0.961 . S
C12 H15 0.960 . S
H13 C12 0.961 . S
H14 C12 0.961 . S
H15 C12 0.960 . S
C16 N17 1.342 . S
C16 C20 1.401 . S
C16 C21 1.499 . S
N17 Co0 1.989 . S
N17 C16 1.342 . S
N17 N18 1.388 . S
N18 Co1 1.993 1_554 S
N18 N17 1.388 . S
N18 C19 1.346 . S
C19 N18 1.346 . S
C19 C20 1.396 . S
C19 C29 1.510 1_554 S
C20 C16 1.401 . S
C20 C19 1.396 . S
C21 C16 1.499 . S
C21 H22 0.959 . S
C21 H23 0.960 . S
C21 H24 0.961 . S
H22 C21 0.959 . S
H23 C21 0.960 . S
H24 C21 0.961 . S
O25 Co0 1.967 . S
O25 C33 1.258 . S
O26 Co1 1.941 1_554 S
O26 C33 1.266 . S
H27 C29 0.959 . S
H28 C29 0.961 . S
C29 C19 1.510 1_556 S
C29 H27 0.959 . S
C29 H28 0.961 . S
C29 H30 0.960 . S
H30 C29 0.960 . S
H31 N11 0.862 . S
O32 Co0 1.920 . S
O32 C5 1.289 . S
C33 O25 1.258 . S
C33 O26 1.266 . S
Co34 O37 1.970 . S
Co34 N51 1.989 . S
Co34 O59 1.967 . S
Co34 O66 1.920 . S
Co35 O38 1.966 . S
Co35 N44 2.022 . S
Co35 N52 1.993 . S
Co35 O60 1.941 . S
C36 O37 1.258 . S
C36 O38 1.263 . S
O37 Co34 1.970 . S
O37 C36 1.258 . S
O38 Co35 1.966 . S
O38 C36 1.263 . S
C39 O40 1.235 . S
C39 O66 1.289 . S
O40 C39 1.235 . S
C41 C43 1.400 . S
C41 N44 1.351 . S
C41 C46 1.501 . S
C42 C43 1.387 . S
C42 N45 1.341 . S
C43 C41 1.400 . S
C43 C42 1.387 . S
N44 Co35 2.022 . S
N44 C41 1.351 . S
N44 N45 1.365 . S
N45 C42 1.341 . S
N45 N44 1.365 . S
N45 H65 0.862 . S
C46 C41 1.501 . S
C46 H47 0.961 . S
C46 H48 0.961 . S
C46 H49 0.960 . S
H47 C46 0.961 . S
H48 C46 0.961 . S
H49 C46 0.960 . S
C50 N51 1.342 . S
C50 C54 1.401 . S
C50 C55 1.499 . S
N51 Co34 1.989 . S
N51 C50 1.342 . S
N51 N52 1.388 . S
N52 Co35 1.993 . S
N52 N51 1.388 . S
N52 C53 1.346 . S
C53 N52 1.346 . S
C53 C54 1.396 . S
C53 C63 1.510 . S
C54 C50 1.401 . S
C54 C53 1.396 . S
C55 C50 1.499 . S
C55 H56 0.959 . S
C55 H57 0.960 . S
C55 H58 0.961 . S
H56 C55 0.959 . S
H57 C55 0.960 . S
H58 C55 0.961 . S
O59 Co34 1.967 . S
O59 C67 1.258 . S
O60 Co35 1.941 . S
O60 C67 1.266 . S
H61 C63 0.959 . S
H62 C63 0.961 . S
C63 C53 1.510 . S
C63 H61 0.959 . S
C63 H62 0.961 . S
C63 H64 0.960 . S
H64 C63 0.960 . S
H65 N45 0.862 . S
O66 Co34 1.920 . S
O66 C39 1.289 . S
C67 O59 1.258 . S
C67 O60 1.266 . S
Co68 O71 1.970 . S
Co68 N85 1.989 . S
Co68 O93 1.967 . S
Co68 O100 1.920 . S
Co69 O72 1.966 1_556 S
Co69 N78 2.022 . S
Co69 N86 1.993 1_556 S
Co69 O94 1.941 1_556 S
C70 O71 1.258 . S
C70 O72 1.263 . S
O71 Co68 1.970 . S
O71 C70 1.258 . S
O72 Co69 1.966 1_554 S
O72 C70 1.263 . S
C73 O74 1.235 . S
C73 O100 1.289 . S
O74 C73 1.235 . S
C75 C77 1.400 . S
C75 N78 1.351 . S
C75 C80 1.501 . S
C76 C77 1.387 . S
C76 N79 1.341 . S
C77 C75 1.400 . S
C77 C76 1.387 . S
N78 Co69 2.022 . S
N78 C75 1.351 . S
N78 N79 1.365 . S
N79 C76 1.341 . S
N79 N78 1.365 . S
N79 H99 0.862 . S
C80 C75 1.501 . S
C80 H81 0.961 . S
C80 H82 0.961 . S
C80 H83 0.960 . S
H81 C80 0.961 . S
H82 C80 0.961 . S
H83 C80 0.960 . S
C84 N85 1.342 . S
C84 C88 1.401 . S
C84 C89 1.499 . S
N85 Co68 1.989 . S
N85 C84 1.342 . S
N85 N86 1.388 . S
N86 Co69 1.993 1_554 S
N86 N85 1.388 . S
N86 C87 1.346 . S
C87 N86 1.346 . S
C87 C88 1.396 . S
C87 C97 1.510 1_554 S
C88 C84 1.401 . S
C88 C87 1.396 . S
C89 C84 1.499 . S
C89 H90 0.959 . S
C89 H91 0.960 . S
C89 H92 0.961 . S
H90 C89 0.959 . S
H91 C89 0.960 . S
H92 C89 0.961 . S
O93 Co68 1.967 . S
O93 C101 1.258 . S
O94 Co69 1.941 1_554 S
O94 C101 1.266 . S
H95 C97 0.959 . S
H96 C97 0.961 . S
C97 C87 1.510 1_556 S
C97 H95 0.959 . S
C97 H96 0.961 . S
C97 H98 0.960 . S
H98 C97 0.960 . S
H99 N79 0.862 . S
O100 Co68 1.920 . S
O100 C73 1.289 . S
C101 O93 1.258 . S
C101 O94 1.266 . S
Co102 O105 1.970 . S
Co102 N119 1.989 . S
Co102 O127 1.967 . S
Co102 O134 1.920 . S
Co103 O106 1.966 . S
Co103 N112 2.022 . S
Co103 N120 1.993 . S
Co103 O128 1.941 . S
C104 O105 1.258 . S
C104 O106 1.263 . S
O105 Co102 1.970 . S
O105 C104 1.258 . S
O106 Co103 1.966 . S
O106 C104 1.263 . S
C107 O108 1.235 . S
C107 O134 1.289 . S
O108 C107 1.235 . S
C109 C111 1.400 . S
C109 N112 1.351 . S
C109 C114 1.501 . S
C110 C111 1.387 . S
C110 N113 1.341 . S
C111 C109 1.400 . S
C111 C110 1.387 . S
N112 Co103 2.022 . S
N112 C109 1.351 . S
N112 N113 1.365 . S
N113 C110 1.341 . S
N113 N112 1.365 . S
N113 H133 0.862 . S
C114 C109 1.501 . S
C114 H115 0.961 . S
C114 H116 0.961 . S
C114 H117 0.960 . S
H115 C114 0.961 . S
H116 C114 0.961 . S
H117 C114 0.960 . S
C118 N119 1.342 . S
C118 C122 1.401 . S
C118 C123 1.499 . S
N119 Co102 1.989 . S
N119 C118 1.342 . S
N119 N120 1.388 . S
N120 Co103 1.993 . S
N120 N119 1.388 . S
N120 C121 1.346 . S
C121 N120 1.346 . S
C121 C122 1.396 . S
C121 C131 1.510 . S
C122 C118 1.401 . S
C122 C121 1.396 . S
C123 C118 1.499 . S
C123 H124 0.959 . S
C123 H125 0.960 . S
C123 H126 0.961 . S
H124 C123 0.959 . S
H125 C123 0.960 . S
H126 C123 0.961 . S
O127 Co102 1.967 . S
O127 C135 1.258 . S
O128 Co103 1.941 . S
O128 C135 1.266 . S
H129 C131 0.959 . S
H130 C131 0.961 . S
C131 C121 1.510 . S
C131 H129 0.959 . S
C131 H130 0.961 . S
C131 H132 0.960 . S
H132 C131 0.960 . S
H133 N113 0.862 . S
O134 Co102 1.920 . S
O134 C107 1.289 . S
C135 O127 1.258 . S
C135 O128 1.266 . S
Co136 O139 1.970 . S
Co136 N153 1.988 1_556 S
Co136 O161 1.967 . S
Co136 O168 1.920 . S
Co137 O140 1.966 . S
Co137 N146 2.022 . S
Co137 N154 1.993 . S
Co137 O162 1.941 . S
C138 O139 1.258 1_554 S
C138 O140 1.263 . S
O139 Co136 1.970 . S
O139 C138 1.258 1_556 S
O140 Co137 1.966 . S
O140 C138 1.263 . S
C141 O142 1.235 . S
C141 O168 1.289 . S
O142 C141 1.235 . S
C143 C145 1.400 . S
C143 N146 1.351 . S
C143 C148 1.501 . S
C144 C145 1.387 . S
C144 N147 1.341 . S
C145 C143 1.400 . S
C145 C144 1.387 . S
N146 Co137 2.022 . S
N146 C143 1.351 . S
N146 N147 1.365 . S
N147 C144 1.341 . S
N147 N146 1.365 . S
N147 H167 0.862 . S
C148 C143 1.501 . S
C148 H149 0.961 . S
C148 H150 0.961 . S
C148 H151 0.960 . S
H149 C148 0.961 . S
H150 C148 0.961 . S
H151 C148 0.960 . S
C152 N153 1.341 1_556 S
C152 C156 1.401 1_556 S
C152 C157 1.499 . S
N153 Co136 1.988 1_554 S
N153 C152 1.341 1_554 S
N153 N154 1.390 . S
N154 Co137 1.993 . S
N154 N153 1.390 . S
N154 C155 1.346 . S
C155 N154 1.346 . S
C155 C156 1.396 . S
C155 C165 1.510 . S
C156 C152 1.401 1_554 S
C156 C155 1.396 . S
C157 C152 1.499 . S
C157 H158 0.959 . S
C157 H159 0.960 . S
C157 H160 0.961 . S
H158 C157 0.959 . S
H159 C157 0.960 . S
H160 C157 0.961 . S
O161 Co136 1.967 . S
O161 C169 1.258 1_556 S
O162 Co137 1.941 . S
O162 C169 1.266 . S
H163 C165 0.959 . S
H164 C165 0.961 . S
C165 C155 1.510 . S
C165 H163 0.959 . S
C165 H164 0.961 . S
C165 H166 0.960 . S
H166 C165 0.960 . S
H167 N147 0.862 . S
O168 Co136 1.920 . S
O168 C141 1.289 . S
C169 O161 1.258 1_554 S
C169 O162 1.266 . S
Co170 O173 1.970 . S
Co170 N187 1.989 . S
Co170 O195 1.967 . S
Co170 O202 1.920 . S
Co171 O174 1.966 . S
Co171 N180 2.022 . S
Co171 N188 1.993 . S
Co171 O196 1.941 . S
C172 O173 1.258 . S
C172 O174 1.263 . S
O173 Co170 1.970 . S
O173 C172 1.258 . S
O174 Co171 1.966 . S
O174 C172 1.263 . S
C175 O176 1.235 . S
C175 O202 1.289 . S
O176 C175 1.235 . S
C177 C179 1.400 . S
C177 N180 1.351 . S
C177 C182 1.501 . S
C178 C179 1.387 . S
C178 N181 1.341 . S
C179 C177 1.400 . S
C179 C178 1.387 . S
N180 Co171 2.022 . S
N180 C177 1.351 . S
N180 N181 1.365 . S
N181 C178 1.341 . S
N181 N180 1.365 . S
N181 H201 0.862 . S
C182 C177 1.501 . S
C182 H183 0.961 . S
C182 H184 0.961 . S
C182 H185 0.960 . S
H183 C182 0.961 . S
H184 C182 0.961 . S
H185 C182 0.960 . S
C186 N187 1.342 . S
C186 C190 1.401 . S
C186 C191 1.499 . S
N187 Co170 1.989 . S
N187 C186 1.342 . S
N187 N188 1.388 . S
N188 Co171 1.993 . S
N188 N187 1.388 . S
N188 C189 1.346 . S
C189 N188 1.346 . S
C189 C190 1.396 . S
C189 C199 1.510 . S
C190 C186 1.401 . S
C190 C189 1.396 . S
C191 C186 1.499 . S
C191 H192 0.959 . S
C191 H193 0.960 . S
C191 H194 0.961 . S
H192 C191 0.959 . S
H193 C191 0.960 . S
H194 C191 0.961 . S
O195 Co170 1.967 . S
O195 C203 1.258 . S
O196 Co171 1.941 . S
O196 C203 1.266 . S
H197 C199 0.959 . S
H198 C199 0.961 . S
C199 C189 1.510 . S
C199 H197 0.959 . S
C199 H198 0.961 . S
C199 H200 0.960 . S
H200 C199 0.960 . S
H201 N181 0.862 . S
O202 Co170 1.920 . S
O202 C175 1.289 . S
C203 O195 1.258 . S
C203 O196 1.266 . S
Co204 O207 1.970 . S
Co204 N221 1.988 1_556 S
Co204 O229 1.967 . S
Co204 O236 1.920 . S
Co205 O208 1.966 . S
Co205 N214 2.022 . S
Co205 N222 1.993 . S
Co205 O230 1.941 . S
C206 O207 1.258 1_554 S
C206 O208 1.263 . S
O207 Co204 1.970 . S
O207 C206 1.258 1_556 S
O208 Co205 1.966 . S
O208 C206 1.263 . S
C209 O210 1.235 . S
C209 O236 1.289 . S
O210 C209 1.235 . S
C211 C213 1.400 . S
C211 N214 1.351 . S
C211 C216 1.501 . S
C212 C213 1.387 . S
C212 N215 1.341 . S
C213 C211 1.400 . S
C213 C212 1.387 . S
N214 Co205 2.022 . S
N214 C211 1.351 . S
N214 N215 1.365 . S
N215 C212 1.341 . S
N215 N214 1.365 . S
N215 H235 0.862 . S
C216 C211 1.501 . S
C216 H217 0.961 . S
C216 H218 0.961 . S
C216 H219 0.960 . S
H217 C216 0.961 . S
H218 C216 0.961 . S
H219 C216 0.960 . S
C220 N221 1.341 1_556 S
C220 C224 1.401 1_556 S
C220 C225 1.499 . S
N221 Co204 1.988 1_554 S
N221 C220 1.341 1_554 S
N221 N222 1.390 . S
N222 Co205 1.993 . S
N222 N221 1.390 . S
N222 C223 1.346 . S
C223 N222 1.346 . S
C223 C224 1.396 . S
C223 C233 1.510 . S
C224 C220 1.401 1_554 S
C224 C223 1.396 . S
C225 C220 1.499 . S
C225 H226 0.959 . S
C225 H227 0.960 . S
C225 H228 0.961 . S
H226 C225 0.959 . S
H227 C225 0.960 . S
H228 C225 0.961 . S
O229 Co204 1.967 . S
O229 C237 1.258 1_556 S
O230 Co205 1.941 . S
O230 C237 1.266 . S
H231 C233 0.959 . S
H232 C233 0.961 . S
C233 C223 1.510 . S
C233 H231 0.959 . S
C233 H232 0.961 . S
C233 H234 0.960 . S
H234 C233 0.960 . S
H235 N215 0.862 . S
O236 Co204 1.920 . S
O236 C209 1.289 . S
C237 O229 1.258 1_554 S
C237 O230 1.266 . S
Co238 O241 1.970 . S
Co238 N255 1.989 . S
Co238 O263 1.967 . S
Co238 O270 1.920 . S
Co239 O242 1.966 . S
Co239 N248 2.022 . S
Co239 N256 1.993 . S
Co239 O264 1.941 . S
C240 O241 1.258 . S
C240 O242 1.263 . S
O241 Co238 1.970 . S
O241 C240 1.258 . S
O242 Co239 1.966 . S
O242 C240 1.263 . S
C243 O244 1.235 . S
C243 O270 1.289 . S
O244 C243 1.235 . S
C245 C247 1.400 . S
C245 N248 1.351 . S
C245 C250 1.501 . S
C246 C247 1.387 . S
C246 N249 1.341 . S
C247 C245 1.400 . S
C247 C246 1.387 . S
N248 Co239 2.022 . S
N248 C245 1.351 . S
N248 N249 1.365 . S
N249 C246 1.341 . S
N249 N248 1.365 . S
N249 H269 0.862 . S
C250 C245 1.501 . S
C250 H251 0.961 . S
C250 H252 0.961 . S
C250 H253 0.960 . S
H251 C250 0.961 . S
H252 C250 0.961 . S
H253 C250 0.960 . S
C254 N255 1.342 . S
C254 C258 1.401 . S
C254 C259 1.499 . S
N255 Co238 1.989 . S
N255 C254 1.342 . S
N255 N256 1.388 . S
N256 Co239 1.993 . S
N256 N255 1.388 . S
N256 C257 1.346 . S
C257 N256 1.346 . S
C257 C258 1.396 . S
C257 C267 1.510 . S
C258 C254 1.401 . S
C258 C257 1.396 . S
C259 C254 1.499 . S
C259 H260 0.959 . S
C259 H261 0.960 . S
C259 H262 0.961 . S
H260 C259 0.959 . S
H261 C259 0.960 . S
H262 C259 0.961 . S
O263 Co238 1.967 . S
O263 C271 1.258 . S
O264 Co239 1.941 . S
O264 C271 1.266 . S
H265 C267 0.959 . S
H266 C267 0.961 . S
C267 C257 1.510 . S
C267 H265 0.959 . S
C267 H266 0.961 . S
C267 H268 0.960 . S
H268 C267 0.960 . S
H269 N249 0.862 . S
O270 Co238 1.920 . S
O270 C243 1.289 . S
C271 O263 1.258 . S
C271 O264 1.266 . S
H272 C278 0.930 1_556 S
H273 C281 0.930 . S
H274 C282 0.930 . S
H275 C283 0.930 . S
H276 C286 0.930 . S
H277 C287 0.924 1_556 S
C278 H272 0.930 1_554 S
C278 C279 1.355 . S
C278 C280 1.415 . S
C279 C278 1.355 . S
C279 C281 1.419 . S
C280 C278 1.415 . S
C280 C285 1.425 . S
C280 C287 1.409 . S
C281 H273 0.930 . S
C281 C279 1.419 . S
C281 C282 1.362 . S
C282 H274 0.930 . S
C282 C281 1.362 . S
C282 C285 1.409 . S
C283 H275 0.930 . S
C283 C284 1.355 . S
C283 C285 1.415 . S
C284 C283 1.355 . S
C284 C286 1.419 . S
C285 C280 1.425 . S
C285 C282 1.409 . S
C285 C283 1.415 . S
C286 H276 0.930 . S
C286 C284 1.419 . S
C286 C287 1.362 . S
C287 H277 0.924 1_554 S
C287 C280 1.409 . S
C287 C286 1.362 . S
H288 C294 0.930 . S
H289 C297 0.930 . S
H290 C298 0.930 . S
H291 C299 0.930 . S
H292 C302 0.930 . S
H293 C303 0.930 . S
C294 H288 0.930 . S
C294 C295 1.355 . S
C294 C296 1.415 . S
C295 C294 1.355 . S
C295 C297 1.419 . S
C296 C294 1.415 . S
C296 C301 1.425 . S
C296 C303 1.409 . S
C297 H289 0.930 . S
C297 C295 1.419 . S
C297 C298 1.362 . S
C298 H290 0.930 . S
C298 C297 1.362 . S
C298 C301 1.409 . S
C299 H291 0.930 . S
C299 C300 1.355 . S
C299 C301 1.415 . S
C300 C299 1.355 . S
C300 C302 1.419 . S
C301 C296 1.425 . S
C301 C298 1.409 . S
C301 C299 1.415 . S
C302 H292 0.930 . S
C302 C300 1.419 . S
C302 C303 1.362 . S
C303 H293 0.930 . S
C303 C296 1.409 . S
C303 C302 1.362 . S
H304 C310 0.911 1_556 S
H305 C313 0.930 . S
H306 C314 0.930 . S
H307 C315 0.930 . S
H308 C318 0.930 . S
H309 C319 0.930 . S
C310 H304 0.911 1_554 S
C310 C311 1.368 . S
C310 C312 1.420 . S
C311 C310 1.368 . S
C311 C313 1.419 . S
C312 C310 1.420 . S
C312 C317 1.425 . S
C312 C319 1.409 1_554 S
C313 H305 0.930 . S
C313 C311 1.419 . S
C313 C314 1.362 . S
C314 H306 0.930 . S
C314 C313 1.362 . S
C314 C317 1.409 . S
C315 H307 0.930 . S
C315 C316 1.355 . S
C315 C317 1.415 . S
C316 C315 1.355 . S
C316 C318 1.419 1_554 S
C317 C312 1.425 . S
C317 C314 1.409 . S
C317 C315 1.415 . S
C318 H308 0.930 . S
C318 C316 1.419 1_556 S
C318 C319 1.362 . S
C319 H309 0.930 . S
C319 C312 1.409 1_556 S
C319 C318 1.362 . S
H320 C326 0.930 . S
H321 C329 0.930 . S
H322 C330 0.930 . S
H323 C331 0.930 . S
H324 C334 0.930 . S
H325 C335 0.930 . S
C326 H320 0.930 . S
C326 C327 1.355 . S
C326 C328 1.415 . S
C327 C326 1.355 . S
C327 C329 1.419 . S
C328 C326 1.415 . S
C328 C333 1.425 . S
C328 C335 1.409 . S
C329 H321 0.930 . S
C329 C327 1.419 . S
C329 C330 1.362 . S
C330 H322 0.930 . S
C330 C329 1.362 . S
C330 C333 1.409 . S
C331 H323 0.930 . S
C331 C332 1.355 . S
C331 C333 1.415 . S
C332 C331 1.355 . S
C332 C334 1.419 . S
C333 C328 1.425 . S
C333 C330 1.409 . S
C333 C331 1.415 . S
C334 H324 0.930 . S
C334 C332 1.419 . S
C334 C335 1.362 . S
C335 H325 0.930 . S
C335 C328 1.409 . S
C335 C334 1.362 . S
H336 C342 0.930 . S
H337 C345 0.930 . S
H338 C346 0.930 . S
H339 C347 0.930 . S
H340 C350 0.930 1_556 S
H341 C351 0.930 1_556 S
C342 H336 0.930 . S
C342 C343 1.355 . S
C342 C344 1.415 . S
C343 C342 1.355 . S
C343 C345 1.419 . S
C344 C342 1.415 . S
C344 C349 1.425 . S
C344 C351 1.409 . S
C345 H337 0.930 . S
C345 C343 1.419 . S
C345 C346 1.362 . S
C346 H338 0.930 . S
C346 C345 1.362 . S
C346 C349 1.409 . S
C347 H339 0.930 . S
C347 C348 1.355 . S
C347 C349 1.415 . S
C348 C347 1.355 . S
C348 C350 1.419 . S
C349 C344 1.425 . S
C349 C346 1.409 . S
C349 C347 1.415 . S
C350 H340 0.930 1_554 S
C350 C348 1.419 . S
C350 C351 1.362 . S
C351 H341 0.930 1_554 S
C351 C344 1.409 . S
C351 C350 1.362 . S
H352 C358 0.930 . S
H353 C361 0.930 . S
H354 C362 0.930 . S
H355 C363 0.930 . S
H356 C366 0.930 . S
H357 C367 0.930 . S
C358 H352 0.930 . S
C358 C359 1.355 . S
C358 C360 1.415 . S
C359 C358 1.355 . S
C359 C361 1.419 . S
C360 C358 1.415 . S
C360 C365 1.425 . S
C360 C367 1.409 . S
C361 H353 0.930 . S
C361 C359 1.419 . S
C361 C362 1.362 . S
C362 H354 0.930 . S
C362 C361 1.362 . S
C362 C365 1.409 . S
C363 H355 0.930 . S
C363 C364 1.355 . S
C363 C365 1.415 . S
C364 C363 1.355 . S
C364 C366 1.419 . S
C365 C360 1.425 . S
C365 C362 1.409 . S
C365 C363 1.415 . S
C366 H356 0.930 . S
C366 C364 1.419 . S
C366 C367 1.362 . S
C367 H357 0.930 . S
C367 C360 1.409 . S
C367 C366 1.362 . S
H368 C374 0.930 . S
H369 C377 0.930 . S
H370 C378 0.930 . S
H371 C379 0.930 . S
H372 C382 0.930 . S
H373 C383 0.930 . S
C374 H368 0.930 . S
C374 C375 1.355 . S
C374 C376 1.415 . S
C375 C374 1.355 . S
C375 C377 1.419 . S
C376 C374 1.415 . S
C376 C381 1.425 . S
C376 C383 1.409 . S
C377 H369 0.930 . S
C377 C375 1.419 . S
C377 C378 1.362 . S
C378 H370 0.930 . S
C378 C377 1.362 . S
C378 C381 1.409 . S
C379 H371 0.930 . S
C379 C380 1.355 . S
C379 C381 1.415 . S
C380 C379 1.355 . S
C380 C382 1.419 . S
C381 C376 1.425 . S
C381 C378 1.409 . S
C381 C379 1.415 . S
C382 H372 0.930 . S
C382 C380 1.419 . S
C382 C383 1.362 . S
C383 H373 0.930 . S
C383 C376 1.409 . S
C383 C382 1.362 . S
H384 C390 0.930 . S
H385 C393 0.930 . S
H386 C394 0.930 . S
H387 C395 0.930 . S
H388 C398 0.930 . S
H389 C399 0.930 . S
C390 H384 0.930 . S
C390 C391 1.355 . S
C390 C392 1.415 . S
C391 C390 1.355 . S
C391 C393 1.419 . S
C392 C390 1.415 . S
C392 C397 1.425 . S
C392 C399 1.409 . S
C393 H385 0.930 . S
C393 C391 1.419 . S
C393 C394 1.362 . S
C394 H386 0.930 . S
C394 C393 1.362 . S
C394 C397 1.409 . S
C395 H387 0.930 . S
C395 C396 1.355 . S
C395 C397 1.415 . S
C396 C395 1.355 . S
C396 C398 1.419 . S
C397 C392 1.425 . S
C397 C394 1.409 . S
C397 C395 1.415 . S
C398 H388 0.930 . S
C398 C396 1.419 . S
C398 C399 1.362 . S
C399 H389 0.930 . S
C399 C392 1.409 . S
C399 C398 1.362 . S
H400 C406 0.910 1_556 S
H401 C409 0.930 . S
H402 C410 0.930 . S
H403 C411 0.930 . S
H404 C414 0.930 1_556 S
H405 C415 0.930 1_556 S
C406 H400 0.910 1_554 S
C406 C407 1.355 . S
C406 C408 1.415 1_455 S
C407 C406 1.355 . S
C407 C409 1.419 . S
C408 C406 1.415 1_655 S
C408 C413 1.425 1_655 S
C408 C415 1.409 . S
C409 H401 0.930 . S
C409 C407 1.419 . S
C409 C410 1.362 . S
C410 H402 0.930 . S
C410 C409 1.362 . S
C410 C413 1.409 . S
C411 H403 0.930 . S
C411 C412 1.355 . S
C411 C413 1.415 1_655 S
C412 C411 1.355 . S
C412 C414 1.419 . S
C413 C408 1.425 1_455 S
C413 C410 1.409 . S
C413 C411 1.415 1_455 S
C414 H404 0.930 1_554 S
C414 C412 1.419 . S
C414 C415 1.362 . S
C415 H405 0.930 1_554 S
C415 C408 1.409 . S
C415 C414 1.362 . S
H416 C422 0.930 . S
H417 C425 0.930 . S
H418 C426 0.930 . S
H419 C427 0.930 . S
H420 C430 0.930 . S
H421 C431 0.930 . S
C422 H416 0.930 . S
C422 C423 1.355 . S
C422 C424 1.415 . S
C423 C422 1.355 . S
C423 C425 1.419 . S
C424 C422 1.415 . S
C424 C429 1.425 1_565 S
C424 C431 1.409 . S
C425 H417 0.930 . S
C425 C423 1.419 . S
C425 C426 1.362 1_565 S
C426 H418 0.930 . S
C426 C425 1.362 1_545 S
C426 C429 1.409 . S
C427 H419 0.930 . S
C427 C428 1.355 . S
C427 C429 1.415 . S
C428 C427 1.355 . S
C428 C430 1.419 . S
C429 C424 1.425 1_545 S
C429 C426 1.409 . S
C429 C427 1.415 . S
C430 H420 0.930 . S
C430 C428 1.419 . S
C430 C431 1.362 1_545 S
C431 H421 0.930 . S
C431 C424 1.409 . S
C431 C430 1.362 1_565 S
H432 C438 0.930 . S
H433 C441 0.930 . S
H434 C442 0.930 . S
H435 C443 0.930 . S
H436 C446 0.930 . S
H437 C447 0.933 . S
C438 H432 0.930 . S
C438 C439 1.355 . S
C438 C440 1.415 . S
C439 C438 1.355 . S
C439 C441 1.419 . S
C440 C438 1.415 . S
C440 C445 1.425 1_565 S
C440 C447 1.409 . S
C441 H433 0.930 . S
C441 C439 1.419 . S
C441 C442 1.362 1_565 S
C442 H434 0.930 . S
C442 C441 1.362 1_545 S
C442 C445 1.409 . S
C443 H435 0.930 . S
C443 C444 1.355 . S
C443 C445 1.415 . S
C444 C443 1.355 . S
C444 C446 1.419 . S
C445 C440 1.425 1_545 S
C445 C442 1.409 . S
C445 C443 1.415 . S
C446 H436 0.930 . S
C446 C444 1.419 . S
C446 C447 1.362 1_545 S
C447 H437 0.933 . S
C447 C440 1.409 . S
C447 C446 1.362 1_565 S
H448 C454 0.930 . S
H449 C457 0.930 . S
H450 C458 0.930 . S
H451 C459 0.930 . S
H452 C462 0.930 . S
H453 C463 0.930 . S
C454 H448 0.930 . S
C454 C455 1.355 . S
C454 C456 1.415 . S
C455 C454 1.355 . S
C455 C457 1.419 . S
C456 C454 1.415 . S
C456 C461 1.425 1_655 S
C456 C463 1.409 . S
C457 H449 0.930 . S
C457 C455 1.419 . S
C457 C458 1.362 1_655 S
C458 H450 0.930 . S
C458 C457 1.362 1_455 S
C458 C461 1.409 . S
C459 H451 0.930 . S
C459 C460 1.355 . S
C459 C461 1.415 . S
C460 C459 1.355 . S
C460 C462 1.419 . S
C461 C456 1.425 1_455 S
C461 C458 1.409 . S
C461 C459 1.415 . S
C462 H452 0.930 . S
C462 C460 1.419 . S
C462 C463 1.362 1_455 S
C463 H453 0.930 . S
C463 C456 1.409 . S
C463 C462 1.362 1_655 S
H464 C470 0.930 . S
H465 C473 0.930 . S
H466 C474 0.930 . S
H467 C475 0.930 . S
H468 C478 0.930 . S
H469 C479 0.930 . S
C470 H464 0.930 . S
C470 C471 1.355 . S
C470 C472 1.415 . S
C471 C470 1.355 . S
C471 C473 1.419 . S
C472 C470 1.415 . S
C472 C477 1.425 . S
C472 C479 1.409 . S
C473 H465 0.930 . S
C473 C471 1.419 . S
C473 C474 1.362 . S
C474 H466 0.930 . S
C474 C473 1.362 . S
C474 C477 1.409 . S
C475 H467 0.930 . S
C475 C476 1.355 . S
C475 C477 1.415 . S
C476 C475 1.355 . S
C476 C478 1.419 . S
C477 C472 1.425 . S
C477 C474 1.409 . S
C477 C475 1.415 . S
C478 H468 0.930 . S
C478 C476 1.419 . S
C478 C479 1.362 . S
C479 H469 0.930 . S
C479 C472 1.409 . S
C479 C478 1.362 . S
H480 C486 0.930 . S
H481 C489 0.930 . S
H482 C490 0.930 . S
H483 C491 0.930 . S
H484 C494 0.930 . S
H485 C495 0.930 . S
C486 H480 0.930 . S
C486 C487 1.355 . S
C486 C488 1.415 . S
C487 C486 1.355 . S
C487 C489 1.419 . S
C488 C486 1.415 . S
C488 C493 1.425 . S
C488 C495 1.409 . S
C489 H481 0.930 . S
C489 C487 1.419 . S
C489 C490 1.362 . S
C490 H482 0.930 . S
C490 C489 1.362 . S
C490 C493 1.409 . S
C491 H483 0.930 . S
C491 C492 1.355 . S
C491 C493 1.415 . S
C492 C491 1.355 . S
C492 C494 1.419 . S
C493 C488 1.425 . S
C493 C490 1.409 . S
C493 C491 1.415 . S
C494 H484 0.930 . S
C494 C492 1.419 . S
C494 C495 1.362 . S
C495 H485 0.930 . S
C495 C488 1.409 . S
C495 C494 1.362 . S
H496 C502 0.930 . S
H497 C505 0.930 . S
H498 C506 0.930 . S
H499 C507 0.930 . S
H500 C510 0.930 . S
H501 C511 0.930 . S
C502 H496 0.930 . S
C502 C503 1.355 . S
C502 C504 1.415 . S
C503 C502 1.355 . S
C503 C505 1.419 . S
C504 C502 1.415 . S
C504 C509 1.425 . S
C504 C511 1.409 . S
C505 H497 0.930 . S
C505 C503 1.419 . S
C505 C506 1.362 . S
C506 H498 0.930 . S
C506 C505 1.362 . S
C506 C509 1.409 . S
C507 H499 0.930 . S
C507 C508 1.355 . S
C507 C509 1.415 . S
C508 C507 1.355 . S
C508 C510 1.419 . S
C509 C504 1.425 . S
C509 C506 1.409 . S
C509 C507 1.415 . S
C510 H500 0.930 . S
C510 C508 1.419 . S
C510 C511 1.362 . S
C511 H501 0.930 . S
C511 C504 1.409 . S
C511 C510 1.362 . S
H512 C518 0.930 . S
H513 C521 0.930 . S
H514 C522 0.930 . S
H515 C523 0.930 . S
H516 C526 0.930 . S
H517 C527 0.930 . S
C518 H512 0.930 . S
C518 C519 1.355 . S
C518 C520 1.415 . S
C519 C518 1.355 . S
C519 C521 1.419 . S
C520 C518 1.415 . S
C520 C525 1.425 . S
C520 C527 1.409 . S
C521 H513 0.930 . S
C521 C519 1.419 . S
C521 C522 1.362 . S
C522 H514 0.930 . S
C522 C521 1.362 . S
C522 C525 1.409 . S
C523 H515 0.930 . S
C523 C524 1.355 . S
C523 C525 1.415 . S
C524 C523 1.355 . S
C524 C526 1.419 . S
C525 C520 1.425 . S
C525 C522 1.409 . S
C525 C523 1.415 . S
C526 H516 0.930 . S
C526 C524 1.419 . S
C526 C527 1.362 . S
C527 H517 0.930 . S
C527 C520 1.409 . S
C527 C526 1.362 . S
H528 C534 0.930 . S
H529 C537 0.930 . S
H530 C538 0.930 . S
H531 C539 0.930 . S
H532 C542 0.930 . S
H533 C543 0.930 . S
C534 H528 0.930 . S
C534 C535 1.355 . S
C534 C536 1.415 . S
C535 C534 1.355 . S
C535 C537 1.419 . S
C536 C534 1.415 . S
C536 C541 1.425 . S
C536 C543 1.409 . S
C537 H529 0.930 . S
C537 C535 1.419 . S
C537 C538 1.362 . S
C538 H530 0.930 . S
C538 C537 1.362 . S
C538 C541 1.409 . S
C539 H531 0.930 . S
C539 C540 1.355 . S
C539 C541 1.415 . S
C540 C539 1.355 . S
C540 C542 1.419 . S
C541 C536 1.425 . S
C541 C538 1.409 . S
C541 C539 1.415 . S
C542 H532 0.930 . S
C542 C540 1.419 . S
C542 C543 1.362 . S
C543 H533 0.930 . S
C543 C536 1.409 . S
C543 C542 1.362 . S
H544 C550 0.930 . S
H545 C553 0.930 . S
H546 C554 0.930 . S
H547 C555 0.930 . S
H548 C558 0.930 . S
H549 C559 0.930 . S
C550 H544 0.930 . S
C550 C551 1.355 . S
C550 C552 1.415 . S
C551 C550 1.355 . S
C551 C553 1.419 . S
C552 C550 1.415 . S
C552 C557 1.425 . S
C552 C559 1.409 . S
C553 H545 0.930 . S
C553 C551 1.419 . S
C553 C554 1.362 . S
C554 H546 0.930 . S
C554 C553 1.362 . S
C554 C557 1.409 . S
C555 H547 0.930 . S
C555 C556 1.355 . S
C555 C557 1.415 . S
C556 C555 1.355 . S
C556 C558 1.419 . S
C557 C552 1.425 . S
C557 C554 1.409 . S
C557 C555 1.415 . S
C558 H548 0.930 . S
C558 C556 1.419 . S
C558 C559 1.362 . S
C559 H549 0.930 . S
C559 C552 1.409 . S
C559 C558 1.362 . S
H560 C566 0.930 . S
H561 C569 0.930 . S
H562 C570 0.930 . S
H563 C571 0.930 . S
H564 C574 0.930 . S
H565 C575 0.930 . S
C566 H560 0.930 . S
C566 C567 1.355 . S
C566 C568 1.415 . S
C567 C566 1.355 . S
C567 C569 1.419 . S
C568 C566 1.415 . S
C568 C573 1.425 . S
C568 C575 1.409 . S
C569 H561 0.930 . S
C569 C567 1.419 . S
C569 C570 1.362 . S
C570 H562 0.930 . S
C570 C569 1.362 . S
C570 C573 1.409 . S
C571 H563 0.930 . S
C571 C572 1.355 . S
C571 C573 1.415 . S
C572 C571 1.355 . S
C572 C574 1.419 . S
C573 C568 1.425 . S
C573 C570 1.409 . S
C573 C571 1.415 . S
C574 H564 0.930 . S
C574 C572 1.419 . S
C574 C575 1.362 . S
C575 H565 0.930 . S
C575 C568 1.409 . S
C575 C574 1.362 . S
H576 C582 0.930 . S
H577 C585 0.930 . S
H578 C586 0.930 . S
H579 C587 0.930 . S
H580 C590 0.930 . S
H581 C591 0.930 . S
C582 H576 0.930 . S
C582 C583 1.355 . S
C582 C584 1.415 . S
C583 C582 1.355 . S
C583 C585 1.419 . S
C584 C582 1.415 . S
C584 C589 1.425 . S
C584 C591 1.409 . S
C585 H577 0.930 . S
C585 C583 1.419 . S
C585 C586 1.362 . S
C586 H578 0.930 . S
C586 C585 1.362 . S
C586 C589 1.409 . S
C587 H579 0.930 . S
C587 C588 1.355 . S
C587 C589 1.415 . S
C588 C587 1.355 . S
C588 C590 1.419 . S
C589 C584 1.425 . S
C589 C586 1.409 . S
C589 C587 1.415 . S
C590 H580 0.930 . S
C590 C588 1.419 . S
C590 C591 1.362 . S
C591 H581 0.930 . S
C591 C584 1.409 . S
C591 C590 1.362 . S
C279 C237 1.489 1_545 S
C284 C20 1.529 . S
C295 C271 1.510 1_655 S
C300 C54 1.554 . S
C311 C169 1.523 1_565 S
C316 C88 1.564 . S
C327 C203 1.514 1_455 S
C332 C122 1.543 . S
C343 C101 1.564 . S
C348 C156 1.587 . S
C359 C135 1.523 . S
C364 C190 1.549 . S
C375 C33 1.561 . S
C380 C224 1.587 . S
C391 C258 1.548 . S
C396 C67 1.521 . S
C407 C2 0.550 . S
C412 C70 0.559 . S
C423 C104 0.649 . S
C428 C36 0.656 . S
C439 C206 0.567 . S
C444 C138 0.553 . S
C455 C172 0.550 . S
C460 C240 0.561 . S
C471 C5 1.757 . S
C476 C243 1.757 . S
C487 C141 1.775 . S
C492 C39 1.771 . S
C503 C175 1.757 . S
C508 C73 1.757 . S
C519 C209 1.775 . S
C524 C107 1.771 . S
C535 C77 1.187 . S
C540 C179 1.173 . S
C551 C111 1.110 . S
C556 C213 1.137 . S
C567 C247 1.076 . S
C572 C9 1.067 . S
C583 C145 1.165 . S
C588 C43 1.183 . S
