# Generated by pormake.
# Topology fch, (5)-cn, num edge types: 1
# Building blocks:
#     Node 0, Type 0, BuildingBlock: XOMCOT_clean_sbu_1, # of connection points: 5
#     Node 1, Type 0, BuildingBlock: XOMCOT_clean_sbu_1, # of connection points: 5
#     Node 2, Type 0, BuildingBlock: XOMCOT_clean_sbu_1, # of connection points: 5
#     Node 3, Type 0, BuildingBlock: XOMCOT_clean_sbu_1, # of connection points: 5
#     Node 4, Type 0, BuildingBlock: XOMCOT_clean_sbu_1, # of connection points: 5
#     Node 5, Type 0, BuildingBlock: XOMCOT_clean_sbu_1, # of connection points: 5
#     Node 6, Type 0, BuildingBlock: XOMCOT_clean_sbu_1, # of connection points: 5
#     Node 7, Type 0, BuildingBlock: XOMCOT_clean_sbu_1, # of connection points: 5
#     Node 8, Type 0, BuildingBlock: XOMCOT_clean_sbu_1, # of connection points: 5
#     Node 9, Type 0, BuildingBlock: XOMCOT_clean_sbu_1, # of connection points: 5
#     Node 10, Type 0, BuildingBlock: XOMCOT_clean_sbu_1, # of connection points: 5
#     Node 11, Type 0, BuildingBlock: XOMCOT_clean_sbu_1, # of connection points: 5
#     Node 12, Type 0, BuildingBlock: XOMCOT_clean_sbu_1, # of connection points: 5
#     Node 13, Type 0, BuildingBlock: XOMCOT_clean_sbu_1, # of connection points: 5
#     Node 14, Type 0, BuildingBlock: XOMCOT_clean_sbu_1, # of connection points: 5
#     Node 15, Type 0, BuildingBlock: XOMCOT_clean_sbu_1, # of connection points: 5
#     Node 16, Type 0, BuildingBlock: XOMCOT_clean_sbu_1, # of connection points: 5
#     Node 17, Type 0, BuildingBlock: XOMCOT_clean_sbu_1, # of connection points: 5
#     Node 18, Type 0, BuildingBlock: XOMCOT_clean_sbu_1, # of connection points: 5
#     Node 19, Type 0, BuildingBlock: XOMCOT_clean_sbu_1, # of connection points: 5
#     Node 20, Type 0, BuildingBlock: XOMCOT_clean_sbu_1, # of connection points: 5
#     Node 21, Type 0, BuildingBlock: XOMCOT_clean_sbu_1, # of connection points: 5
#     Node 22, Type 0, BuildingBlock: XOMCOT_clean_sbu_1, # of connection points: 5
#     Node 23, Type 0, BuildingBlock: XOMCOT_clean_sbu_1, # of connection points: 5
#     Node 24, Type 0, BuildingBlock: XOMCOT_clean_sbu_1, # of connection points: 5
#     Node 25, Type 0, BuildingBlock: XOMCOT_clean_sbu_1, # of connection points: 5
#     Node 26, Type 0, BuildingBlock: XOMCOT_clean_sbu_1, # of connection points: 5
#     Node 27, Type 0, BuildingBlock: XOMCOT_clean_sbu_1, # of connection points: 5
#     Node 28, Type 0, BuildingBlock: XOMCOT_clean_sbu_1, # of connection points: 5
#     Node 29, Type 0, BuildingBlock: XOMCOT_clean_sbu_1, # of connection points: 5
#     Node 30, Type 0, BuildingBlock: XOMCOT_clean_sbu_1, # of connection points: 5
#     Node 31, Type 0, BuildingBlock: XOMCOT_clean_sbu_1, # of connection points: 5
#     Node 32, Type 0, BuildingBlock: XOMCOT_clean_sbu_1, # of connection points: 5
#     Node 33, Type 0, BuildingBlock: XOMCOT_clean_sbu_1, # of connection points: 5
#     Node 34, Type 0, BuildingBlock: XOMCOT_clean_sbu_1, # of connection points: 5
#     Node 35, Type 0, BuildingBlock: XOMCOT_clean_sbu_1, # of connection points: 5
#     Node 36, Type 0, BuildingBlock: XOMCOT_clean_sbu_1, # of connection points: 5
#     Node 37, Type 0, BuildingBlock: XOMCOT_clean_sbu_1, # of connection points: 5
#     Node 38, Type 0, BuildingBlock: XOMCOT_clean_sbu_1, # of connection points: 5
#     Node 39, Type 0, BuildingBlock: XOMCOT_clean_sbu_1, # of connection points: 5
#     Node 40, Type 0, BuildingBlock: XOMCOT_clean_sbu_1, # of connection points: 5
#     Node 41, Type 0, BuildingBlock: XOMCOT_clean_sbu_1, # of connection points: 5
#     Node 42, Type 0, BuildingBlock: XOMCOT_clean_sbu_1, # of connection points: 5
#     Node 43, Type 0, BuildingBlock: XOMCOT_clean_sbu_1, # of connection points: 5
#     Node 44, Type 0, BuildingBlock: XOMCOT_clean_sbu_1, # of connection points: 5
#     Node 45, Type 0, BuildingBlock: XOMCOT_clean_sbu_1, # of connection points: 5
#     Node 46, Type 0, BuildingBlock: XOMCOT_clean_sbu_1, # of connection points: 5
#     Node 47, Type 0, BuildingBlock: XOMCOT_clean_sbu_1, # of connection points: 5
#     Edge 48, Type (0, 0), BuildingBlock: XIVTED_clean_linker_0, # of connection points: 2
#     Edge 49, Type (0, 0), BuildingBlock: XIVTED_clean_linker_0, # of connection points: 2
#     Edge 50, Type (0, 0), BuildingBlock: XIVTED_clean_linker_0, # of connection points: 2
#     Edge 51, Type (0, 0), BuildingBlock: XIVTED_clean_linker_0, # of connection points: 2
#     Edge 52, Type (0, 0), BuildingBlock: XIVTED_clean_linker_0, # of connection points: 2
#     Edge 53, Type (0, 0), BuildingBlock: XIVTED_clean_linker_0, # of connection points: 2
#     Edge 54, Type (0, 0), BuildingBlock: XIVTED_clean_linker_0, # of connection points: 2
#     Edge 55, Type (0, 0), BuildingBlock: XIVTED_clean_linker_0, # of connection points: 2
#     Edge 56, Type (0, 0), BuildingBlock: XIVTED_clean_linker_0, # of connection points: 2
#     Edge 57, Type (0, 0), BuildingBlock: XIVTED_clean_linker_0, # of connection points: 2
#     Edge 58, Type (0, 0), BuildingBlock: XIVTED_clean_linker_0, # of connection points: 2
#     Edge 59, Type (0, 0), BuildingBlock: XIVTED_clean_linker_0, # of connection points: 2
#     Edge 60, Type (0, 0), BuildingBlock: XIVTED_clean_linker_0, # of connection points: 2
#     Edge 61, Type (0, 0), BuildingBlock: XIVTED_clean_linker_0, # of connection points: 2
#     Edge 62, Type (0, 0), BuildingBlock: XIVTED_clean_linker_0, # of connection points: 2
#     Edge 63, Type (0, 0), BuildingBlock: XIVTED_clean_linker_0, # of connection points: 2
#     Edge 64, Type (0, 0), BuildingBlock: XIVTED_clean_linker_0, # of connection points: 2
#     Edge 65, Type (0, 0), BuildingBlock: XIVTED_clean_linker_0, # of connection points: 2
#     Edge 66, Type (0, 0), BuildingBlock: XIVTED_clean_linker_0, # of connection points: 2
#     Edge 67, Type (0, 0), BuildingBlock: XIVTED_clean_linker_0, # of connection points: 2
#     Edge 68, Type (0, 0), BuildingBlock: XIVTED_clean_linker_0, # of connection points: 2
#     Edge 69, Type (0, 0), BuildingBlock: XIVTED_clean_linker_0, # of connection points: 2
#     Edge 70, Type (0, 0), BuildingBlock: XIVTED_clean_linker_0, # of connection points: 2
#     Edge 71, Type (0, 0), BuildingBlock: XIVTED_clean_linker_0, # of connection points: 2
#     Edge 72, Type (0, 0), BuildingBlock: XIVTED_clean_linker_0, # of connection points: 2
#     Edge 73, Type (0, 0), BuildingBlock: XIVTED_clean_linker_0, # of connection points: 2
#     Edge 74, Type (0, 0), BuildingBlock: XIVTED_clean_linker_0, # of connection points: 2
#     Edge 75, Type (0, 0), BuildingBlock: XIVTED_clean_linker_0, # of connection points: 2
#     Edge 76, Type (0, 0), BuildingBlock: XIVTED_clean_linker_0, # of connection points: 2
#     Edge 77, Type (0, 0), BuildingBlock: XIVTED_clean_linker_0, # of connection points: 2
#     Edge 78, Type (0, 0), BuildingBlock: XIVTED_clean_linker_0, # of connection points: 2
#     Edge 79, Type (0, 0), BuildingBlock: XIVTED_clean_linker_0, # of connection points: 2
#     Edge 80, Type (0, 0), BuildingBlock: XIVTED_clean_linker_0, # of connection points: 2
#     Edge 81, Type (0, 0), BuildingBlock: XIVTED_clean_linker_0, # of connection points: 2
#     Edge 82, Type (0, 0), BuildingBlock: XIVTED_clean_linker_0, # of connection points: 2
#     Edge 83, Type (0, 0), BuildingBlock: XIVTED_clean_linker_0, # of connection points: 2
#     Edge 84, Type (0, 0), BuildingBlock: XIVTED_clean_linker_0, # of connection points: 2
#     Edge 85, Type (0, 0), BuildingBlock: XIVTED_clean_linker_0, # of connection points: 2
#     Edge 86, Type (0, 0), BuildingBlock: XIVTED_clean_linker_0, # of connection points: 2
#     Edge 87, Type (0, 0), BuildingBlock: XIVTED_clean_linker_0, # of connection points: 2
#     Edge 88, Type (0, 0), BuildingBlock: XIVTED_clean_linker_0, # of connection points: 2
#     Edge 89, Type (0, 0), BuildingBlock: XIVTED_clean_linker_0, # of connection points: 2
#     Edge 90, Type (0, 0), BuildingBlock: XIVTED_clean_linker_0, # of connection points: 2
#     Edge 91, Type (0, 0), BuildingBlock: XIVTED_clean_linker_0, # of connection points: 2
#     Edge 92, Type (0, 0), BuildingBlock: XIVTED_clean_linker_0, # of connection points: 2
#     Edge 93, Type (0, 0), BuildingBlock: XIVTED_clean_linker_0, # of connection points: 2
#     Edge 94, Type (0, 0), BuildingBlock: XIVTED_clean_linker_0, # of connection points: 2
#     Edge 95, Type (0, 0), BuildingBlock: XIVTED_clean_linker_0, # of connection points: 2
#     Edge 96, Type (0, 0), BuildingBlock: XIVTED_clean_linker_0, # of connection points: 2
#     Edge 97, Type (0, 0), BuildingBlock: XIVTED_clean_linker_0, # of connection points: 2
#     Edge 98, Type (0, 0), BuildingBlock: XIVTED_clean_linker_0, # of connection points: 2
#     Edge 99, Type (0, 0), BuildingBlock: XIVTED_clean_linker_0, # of connection points: 2
#     Edge 100, Type (0, 0), BuildingBlock: XIVTED_clean_linker_0, # of connection points: 2
#     Edge 101, Type (0, 0), BuildingBlock: XIVTED_clean_linker_0, # of connection points: 2
#     Edge 102, Type (0, 0), BuildingBlock: XIVTED_clean_linker_0, # of connection points: 2
#     Edge 103, Type (0, 0), BuildingBlock: XIVTED_clean_linker_0, # of connection points: 2
#     Edge 104, Type (0, 0), BuildingBlock: XIVTED_clean_linker_0, # of connection points: 2
#     Edge 105, Type (0, 0), BuildingBlock: XIVTED_clean_linker_0, # of connection points: 2
#     Edge 106, Type (0, 0), BuildingBlock: XIVTED_clean_linker_0, # of connection points: 2
#     Edge 107, Type (0, 0), BuildingBlock: XIVTED_clean_linker_0, # of connection points: 2
#     Edge 108, Type (0, 0), BuildingBlock: XIVTED_clean_linker_0, # of connection points: 2
#     Edge 109, Type (0, 0), BuildingBlock: XIVTED_clean_linker_0, # of connection points: 2
#     Edge 110, Type (0, 0), BuildingBlock: XIVTED_clean_linker_0, # of connection points: 2
#     Edge 111, Type (0, 0), BuildingBlock: XIVTED_clean_linker_0, # of connection points: 2
#     Edge 112, Type (0, 0), BuildingBlock: XIVTED_clean_linker_0, # of connection points: 2
#     Edge 113, Type (0, 0), BuildingBlock: XIVTED_clean_linker_0, # of connection points: 2
#     Edge 114, Type (0, 0), BuildingBlock: XIVTED_clean_linker_0, # of connection points: 2
#     Edge 115, Type (0, 0), BuildingBlock: XIVTED_clean_linker_0, # of connection points: 2
#     Edge 116, Type (0, 0), BuildingBlock: XIVTED_clean_linker_0, # of connection points: 2
#     Edge 117, Type (0, 0), BuildingBlock: XIVTED_clean_linker_0, # of connection points: 2
#     Edge 118, Type (0, 0), BuildingBlock: XIVTED_clean_linker_0, # of connection points: 2
#     Edge 119, Type (0, 0), BuildingBlock: XIVTED_clean_linker_0, # of connection points: 2
#     Edge 120, Type (0, 0), BuildingBlock: XIVTED_clean_linker_0, # of connection points: 2
#     Edge 121, Type (0, 0), BuildingBlock: XIVTED_clean_linker_0, # of connection points: 2
#     Edge 122, Type (0, 0), BuildingBlock: XIVTED_clean_linker_0, # of connection points: 2
#     Edge 123, Type (0, 0), BuildingBlock: XIVTED_clean_linker_0, # of connection points: 2
#     Edge 124, Type (0, 0), BuildingBlock: XIVTED_clean_linker_0, # of connection points: 2
#     Edge 125, Type (0, 0), BuildingBlock: XIVTED_clean_linker_0, # of connection points: 2
#     Edge 126, Type (0, 0), BuildingBlock: XIVTED_clean_linker_0, # of connection points: 2
#     Edge 127, Type (0, 0), BuildingBlock: XIVTED_clean_linker_0, # of connection points: 2
#     Edge 128, Type (0, 0), BuildingBlock: XIVTED_clean_linker_0, # of connection points: 2
#     Edge 129, Type (0, 0), BuildingBlock: XIVTED_clean_linker_0, # of connection points: 2
#     Edge 130, Type (0, 0), BuildingBlock: XIVTED_clean_linker_0, # of connection points: 2
#     Edge 131, Type (0, 0), BuildingBlock: XIVTED_clean_linker_0, # of connection points: 2
#     Edge 132, Type (0, 0), BuildingBlock: XIVTED_clean_linker_0, # of connection points: 2
#     Edge 133, Type (0, 0), BuildingBlock: XIVTED_clean_linker_0, # of connection points: 2
#     Edge 134, Type (0, 0), BuildingBlock: XIVTED_clean_linker_0, # of connection points: 2
#     Edge 135, Type (0, 0), BuildingBlock: XIVTED_clean_linker_0, # of connection points: 2
#     Edge 136, Type (0, 0), BuildingBlock: XIVTED_clean_linker_0, # of connection points: 2
#     Edge 137, Type (0, 0), BuildingBlock: XIVTED_clean_linker_0, # of connection points: 2
#     Edge 138, Type (0, 0), BuildingBlock: XIVTED_clean_linker_0, # of connection points: 2
#     Edge 139, Type (0, 0), BuildingBlock: XIVTED_clean_linker_0, # of connection points: 2
#     Edge 140, Type (0, 0), BuildingBlock: XIVTED_clean_linker_0, # of connection points: 2
#     Edge 141, Type (0, 0), BuildingBlock: XIVTED_clean_linker_0, # of connection points: 2
#     Edge 142, Type (0, 0), BuildingBlock: XIVTED_clean_linker_0, # of connection points: 2
#     Edge 143, Type (0, 0), BuildingBlock: XIVTED_clean_linker_0, # of connection points: 2
#     Edge 144, Type (0, 0), BuildingBlock: XIVTED_clean_linker_0, # of connection points: 2
#     Edge 145, Type (0, 0), BuildingBlock: XIVTED_clean_linker_0, # of connection points: 2
#     Edge 146, Type (0, 0), BuildingBlock: XIVTED_clean_linker_0, # of connection points: 2
#     Edge 147, Type (0, 0), BuildingBlock: XIVTED_clean_linker_0, # of connection points: 2
#     Edge 148, Type (0, 0), BuildingBlock: XIVTED_clean_linker_0, # of connection points: 2
#     Edge 149, Type (0, 0), BuildingBlock: XIVTED_clean_linker_0, # of connection points: 2
#     Edge 150, Type (0, 0), BuildingBlock: XIVTED_clean_linker_0, # of connection points: 2
#     Edge 151, Type (0, 0), BuildingBlock: XIVTED_clean_linker_0, # of connection points: 2
#     Edge 152, Type (0, 0), BuildingBlock: XIVTED_clean_linker_0, # of connection points: 2
#     Edge 153, Type (0, 0), BuildingBlock: XIVTED_clean_linker_0, # of connection points: 2
#     Edge 154, Type (0, 0), BuildingBlock: XIVTED_clean_linker_0, # of connection points: 2
#     Edge 155, Type (0, 0), BuildingBlock: XIVTED_clean_linker_0, # of connection points: 2
#     Edge 156, Type (0, 0), BuildingBlock: XIVTED_clean_linker_0, # of connection points: 2
#     Edge 157, Type (0, 0), BuildingBlock: XIVTED_clean_linker_0, # of connection points: 2
#     Edge 158, Type (0, 0), BuildingBlock: XIVTED_clean_linker_0, # of connection points: 2
#     Edge 159, Type (0, 0), BuildingBlock: XIVTED_clean_linker_0, # of connection points: 2
#     Edge 160, Type (0, 0), BuildingBlock: XIVTED_clean_linker_0, # of connection points: 2
#     Edge 161, Type (0, 0), BuildingBlock: XIVTED_clean_linker_0, # of connection points: 2
#     Edge 162, Type (0, 0), BuildingBlock: XIVTED_clean_linker_0, # of connection points: 2
#     Edge 163, Type (0, 0), BuildingBlock: XIVTED_clean_linker_0, # of connection points: 2
#     Edge 164, Type (0, 0), BuildingBlock: XIVTED_clean_linker_0, # of connection points: 2
#     Edge 165, Type (0, 0), BuildingBlock: XIVTED_clean_linker_0, # of connection points: 2
#     Edge 166, Type (0, 0), BuildingBlock: XIVTED_clean_linker_0, # of connection points: 2
#     Edge 167, Type (0, 0), BuildingBlock: XIVTED_clean_linker_0, # of connection points: 2
# Relax obj value: 0.576
# Max RMSD: 0.221
# Mean RMSD: 0.221
data_MOF--net-fch--node1-XOMCOT_clean_sbu_1--edge1-XIVTED_clean_linker_0
_symmetry_space_group_name_H-M    P1
_symmetry_Int_Tables_number       1
_symmetry_cell_setting            triclinic
loop_
_symmetry_equiv_pos_as_xyz
'x, y, z'
_cell_length_a     77.924638
_cell_length_b     77.91862
_cell_length_c     77.919927
_cell_angle_alpha  89.989277
_cell_angle_beta   89.998142
_cell_angle_gamma 89.990211
loop_
_atom_site_label
_atom_site_type_symbol
_atom_site_fract_x
_atom_site_fract_y
_atom_site_fract_z
_atom_type_partial_charge
C0 C 0.04613 0.3815 0.13828 0.0
C1 C 0.02966 0.37669 0.13412 0.0
N2 N 0.02218 0.38968 0.12544 0.0
N3 N 0.04897 0.39748 0.13235 0.0
C4 C 0.03423 0.40211 0.12457 0.0
H5 H 0.05559 0.37372 0.14481 0.0
Co6 Co 0.06944 0.40938 0.13292 0.0
C7 C 0.0601 0.44499 0.14207 0.0
O8 O 0.0732 0.44512 0.1527 0.0
N9 N 0.09048 0.42144 0.13277 0.0
C10 C 0.11627 0.43321 0.13675 0.0
C11 C 0.10549 0.41996 0.14139 0.0
C12 C 0.0929 0.43517 0.12247 0.0
N13 N 0.10815 0.44289 0.125 0.0
O14 O 0.06973 0.40974 0.10853 0.0
H15 H 0.10864 0.41024 0.15068 0.0
H16 H 0.08328 0.43976 0.11358 0.0
O17 O 0.05685 0.43148 0.13326 0.0
C18 C 0.07496 0.39596 0.10154 0.0
O19 O 0.07893 0.38285 0.1114 0.0
N20 N 0.06926 0.40776 0.15701 0.0
C21 C 0.07214 0.40546 0.19248 0.0
C22 C 0.05848 0.41447 0.18501 0.0
C23 C 0.05695 0.41498 0.1672 0.0
C24 C 0.08106 0.39696 0.16406 0.0
C25 C 0.08304 0.39592 0.18183 0.0
H26 H 0.04601 0.42144 0.16167 0.0
H27 H 0.0893 0.38945 0.15579 0.0
H28 H 0.03251 0.41432 0.1182 0.0
H29 H 0.02389 0.36435 0.13683 0.0
H30 H 0.1288 0.43583 0.14212 0.0
H31 H 0.04916 0.42116 0.19286 0.0
H32 H 0.09336 0.38824 0.18711 0.0
C33 C 0.61282 0.02357 0.13715 0.0
C34 C 0.61675 0.00753 0.13098 0.0
N35 N 0.60388 0.00238 0.12062 0.0
N36 N 0.59748 0.02843 0.13086 0.0
C37 C 0.59234 0.01533 0.1208 0.0
H38 H 0.6208 0.03134 0.14542 0.0
Co39 Co 0.58747 0.04962 0.13405 0.0
C40 C 0.55064 0.04289 0.14121 0.0
O41 O 0.55124 0.05494 0.153 0.0
N42 N 0.57769 0.07166 0.13674 0.0
C43 C 0.56971 0.09803 0.14451 0.0
C44 C 0.5813 0.08499 0.14728 0.0
C45 C 0.56448 0.07741 0.12709 0.0
N46 N 0.55912 0.09314 0.13183 0.0
O47 O 0.58717 0.05318 0.10999 0.0
H48 H 0.59153 0.08556 0.15654 0.0
H49 H 0.55823 0.06972 0.11735 0.0
O50 O 0.56425 0.03915 0.13274 0.0
C51 C 0.60087 0.0594 0.10371 0.0
O52 O 0.61429 0.06122 0.11375 0.0
N53 N 0.58886 0.04632 0.15788 0.0
C54 C 0.58944 0.04827 0.19336 0.0
C55 C 0.579 0.03613 0.18511 0.0
C56 C 0.57932 0.03498 0.16724 0.0
C57 C 0.60132 0.05567 0.16575 0.0
C58 C 0.60161 0.05719 0.18356 0.0
H59 H 0.57128 0.02558 0.16102 0.0
H60 H 0.61031 0.06297 0.15809 0.0
H61 H 0.5807 0.01561 0.11325 0.0
H62 H 0.62825 0.00031 0.13386 0.0
H63 H 0.56904 0.11008 0.15139 0.0
H64 H 0.5699 0.02838 0.19219 0.0
H65 H 0.61066 0.06591 0.18949 0.0
C66 C -0.0008 0.60679 0.14767 0.0
C67 C 0.01415 0.61098 0.13921 0.0
N68 N 0.01694 0.5991 0.12693 0.0
N69 N 0.99273 0.59233 0.14076 0.0
C70 C 0.00378 0.58795 0.12822 0.0
H71 H 0.99315 0.61407 0.15783 0.0
Co72 Co 0.97194 0.58204 0.14523 0.0
C73 C 0.98025 0.54518 0.15014 0.0
O74 O 0.96944 0.54493 0.1631 0.0
N75 N 0.95027 0.57171 0.14904 0.0
C76 C 0.92457 0.56251 0.1577 0.0
C77 C 0.93702 0.57487 0.15983 0.0
C78 C 0.94482 0.55816 0.1397 0.0
N79 N 0.92971 0.55181 0.14518 0.0
O80 O 0.96627 0.5832 0.12158 0.0
H81 H 0.93613 0.5853 0.16884 0.0
H82 H 0.95222 0.55266 0.12932 0.0
O83 O 0.98251 0.55911 0.14165 0.0
C84 C 0.96098 0.59743 0.11565 0.0
O85 O 0.96091 0.61096 0.12571 0.0
N86 N 0.97749 0.58164 0.16878 0.0
C87 C 0.97704 0.57364 0.20321 0.0
C88 C 0.99043 0.56763 0.19277 0.0
C89 C 0.99071 0.57227 0.17548 0.0
C90 C 0.96748 0.59109 0.17948 0.0
C91 C 0.96655 0.58686 0.19685 0.0
H92 H 0.00048 0.5669 0.16724 0.0
H93 H 0.95898 0.60072 0.17426 0.0
H94 H 0.00165 0.57728 0.11959 0.0
H95 H 0.02214 0.62205 0.14173 0.0
H96 H 0.913 0.56117 0.16526 0.0
H97 H -0.00039 0.55832 0.19748 0.0
H98 H 0.95657 0.59264 0.20459 0.0
C99 C 0.38352 0.97563 0.13346 0.0
C100 C 0.37807 0.99086 0.12643 0.0
N101 N 0.3912 -0.00228 0.11746 0.0
N102 N 0.39999 0.97297 0.12902 0.0
C103 C 0.40433 0.98654 0.11923 0.0
H104 H 0.37594 0.96691 0.14115 0.0
Co105 Co 0.4125 0.95374 0.13457 0.0
C106 C 0.44774 0.9662 0.14114 0.0
O107 O 0.44788 0.9562 0.15474 0.0
N108 N 0.42485 0.93343 0.13958 0.0
C109 C 0.4341 0.90769 0.14809 0.0
C110 C 0.42105 0.91953 0.14929 0.0
C111 C 0.43968 0.92903 0.13173 0.0
N112 N 0.44593 0.91385 0.13716 0.0
O113 O 0.4125 0.94699 0.11123 0.0
H114 H 0.40939 0.91752 0.15641 0.0
H115 H 0.44574 0.93683 0.12198 0.0
O116 O 0.43448 0.96654 0.13136 0.0
C117 C 0.39931 0.93835 0.10706 0.0
O118 O 0.38717 0.93606 0.11854 0.0
N119 N 0.41148 0.96033 0.15783 0.0
C120 C 0.41714 0.96411 0.19263 0.0
C121 C 0.42144 0.97743 0.18128 0.0
C122 C 0.41811 0.97542 0.1638 0.0
C123 C 0.40331 0.94967 0.16894 0.0
C124 C 0.40652 0.95086 0.18648 0.0
H125 H 0.42229 0.98529 0.15499 0.0
H126 H 0.39513 0.93961 0.16413 0.0
H127 H 0.41688 0.98817 0.11355 0.0
H128 H 0.36533 0.99626 0.12759 0.0
H129 H 0.4348 0.89555 0.1548 0.0
H130 H 0.4284 0.98866 0.18559 0.0
H131 H 0.40188 0.94069 0.19469 0.0
C132 C 0.00567 0.60628 0.85533 0.0
C133 C 0.99062 0.60983 0.86387 0.0
N134 N 0.98465 0.59504 0.87047 0.0
N135 N 0.00913 0.58939 0.85677 0.0
C136 C 0.99604 0.58287 0.86602 0.0
H137 H 0.01405 0.61554 0.84927 0.0
Co138 Co 0.02951 0.57898 0.85089 0.0
C139 C 0.02107 0.54215 0.8448 0.0
O140 O 0.03205 0.54157 0.832 0.0
N141 N 0.0507 0.56859 0.8454 0.0
C142 C 0.07521 0.55913 0.83402 0.0
C143 C 0.06194 0.57068 0.8323 0.0
C144 C 0.05782 0.55612 0.85511 0.0
N145 N 0.07252 0.55003 0.84841 0.0
O146 O 0.03564 0.57814 0.87437 0.0
H147 H 0.06075 0.57972 0.82192 0.0
H148 H 0.05176 0.55087 0.86646 0.0
O149 O 0.01874 0.55621 0.85294 0.0
C150 C 0.04287 0.59178 0.87959 0.0
O151 O 0.04434 0.60477 0.86893 0.0
N152 N 0.02371 0.58126 0.8278 0.0
C153 C 0.02317 0.58484 0.79249 0.0
C154 C 0.01245 0.57282 0.80056 0.0
C155 C 0.01256 0.57154 0.81843 0.0
C156 C 0.03179 0.59487 0.82044 0.0
C157 C 0.03197 0.59676 0.80269 0.0
H158 H 0.00425 0.5623 0.82451 0.0
H159 H 0.03954 0.60329 0.8283 0.0
H160 H 0.99545 0.56974 0.87051 0.0
H161 H 0.98481 0.62234 0.86562 0.0
H162 H 0.08589 0.55744 0.8253 0.0
H163 H 0.00474 0.56397 0.79312 0.0
H164 H 0.04017 0.60647 0.79707 0.0
C165 C 0.38017 0.0247 0.87775 0.0
C166 C 0.37514 0.0098 0.88573 0.0
N167 N 0.38916 0.00226 0.89255 0.0
N168 N 0.39726 0.0265 0.87948 0.0
C169 C 0.40239 0.01273 0.88859 0.0
H170 H 0.37192 0.03376 0.87122 0.0
Co171 Co 0.40981 0.04491 0.87157 0.0
C172 C 0.44387 0.03106 0.86246 0.0
O173 O 0.44298 0.0401 0.84824 0.0
N174 N 0.42247 0.06424 0.86404 0.0
C175 C 0.43334 0.08779 0.85192 0.0
C176 C 0.41981 0.07643 0.85194 0.0
C177 C 0.43736 0.069 0.87155 0.0
N178 N 0.44445 0.08294 0.86419 0.0
O179 O 0.41233 0.05281 0.89436 0.0
H180 H 0.40884 0.07739 0.8436 0.0
H181 H 0.44296 0.06221 0.8823 0.0
O182 O 0.43144 0.03153 0.87325 0.0
C183 C 0.39967 0.06236 0.89819 0.0
O184 O 0.38755 0.06469 0.88669 0.0
N185 N 0.40567 0.03747 0.84918 0.0
C186 C 0.40018 0.0314 0.81457 0.0
C187 C 0.40888 0.01926 0.82468 0.0
C188 C 0.41119 0.02239 0.84216 0.0
C189 C 0.39441 0.04747 0.84041 0.0
C190 C 0.39192 0.04508 0.82291 0.0
H191 H 0.41793 0.01302 0.84984 0.0
H192 H 0.38805 0.05796 0.84688 0.0
H193 H 0.41559 0.01039 0.89216 0.0
H194 H 0.36212 0.00506 0.88662 0.0
H195 H 0.43498 0.09859 0.84334 0.0
H196 H 0.41445 0.00783 0.81906 0.0
H197 H 0.38454 0.05457 0.81598 0.0
C198 C 0.94719 0.3841 0.86073 0.0
C199 C 0.96358 0.37897 0.86488 0.0
N200 N 0.97109 0.39155 0.87413 0.0
N201 N 0.94447 0.39988 0.86721 0.0
C202 C 0.95914 0.40403 0.87536 0.0
H203 H 0.93774 0.37674 0.85371 0.0
Co204 Co 0.92424 0.41215 0.86671 0.0
C205 C 0.93568 0.44745 0.85854 0.0
O206 O 0.92311 0.44829 0.8473 0.0
N207 N 0.90319 0.42409 0.86727 0.0
C208 C 0.87529 0.43056 0.86845 0.0
C209 C 0.88717 0.41812 0.86428 0.0
C210 C 0.9005 0.43959 0.87454 0.0
N211 N 0.88385 0.44415 0.87472 0.0
O212 O 0.92314 0.41094 0.89098 0.0
H213 H 0.8841 0.40519 0.86035 0.0
H214 H 0.91046 0.44705 0.88063 0.0
O215 O 0.93738 0.43403 0.86794 0.0
C216 C 0.91535 0.39784 0.89678 0.0
O217 O 0.9096 0.38635 0.88586 0.0
N218 N 0.92533 0.41274 0.84231 0.0
C219 C 0.92401 0.42244 0.80806 0.0
C220 C 0.93943 0.42367 0.81723 0.0
C221 C 0.93994 0.41829 0.83428 0.0
C222 C 0.91145 0.40832 0.83265 0.0
C223 C 0.91033 0.41343 0.81552 0.0
H224 H 0.95159 0.4204 0.84151 0.0
H225 H 0.90086 0.40151 0.83825 0.0
H226 H 0.96093 0.416 0.88215 0.0
H227 H 0.9693 0.36673 0.86167 0.0
H228 H 0.86149 0.42949 0.86736 0.0
H229 H 0.95055 0.43007 0.8119 0.0
H230 H 0.89857 0.41112 0.80848 0.0
C231 C 0.60946 0.9771 0.86317 0.0
C232 C 0.61316 0.99341 0.86881 0.0
N233 N 0.60092 -0.00184 0.88009 0.0
N234 N 0.59491 0.97171 0.87078 0.0
C235 C 0.59002 0.98475 0.88102 0.0
H236 H 0.61707 0.9695 0.85441 0.0
Co237 Co 0.58527 0.95023 0.86929 0.0
C238 C 0.54802 0.95609 0.86368 0.0
O239 O 0.5484 0.94356 0.85238 0.0
N240 N 0.57572 0.92791 0.86844 0.0
C241 C 0.56691 0.90136 0.86246 0.0
C242 C 0.57883 0.91385 0.85872 0.0
C243 C 0.56267 0.92304 0.87876 0.0
N244 N 0.55652 0.90735 0.87488 0.0
O245 O 0.58678 0.94785 0.89341 0.0
H246 H 0.58874 0.91254 0.84919 0.0
H247 H 0.55718 0.93135 0.88842 0.0
O248 O 0.56187 0.96037 0.87151 0.0
C249 C 0.60077 0.94103 0.89825 0.0
O250 O 0.61272 0.93809 0.88671 0.0
N251 N 0.58494 0.95238 0.84531 0.0
C252 C 0.58099 0.94769 0.81042 0.0
C253 C 0.57218 0.96099 0.8188 0.0
C254 C 0.57484 0.96352 0.83631 0.0
C255 C 0.59626 0.94222 0.83676 0.0
C256 C 0.59425 0.93931 0.81925 0.0
H257 H 0.56781 0.97357 0.84278 0.0
H258 H 0.60597 0.93526 0.84384 0.0
H259 H 0.57909 0.98407 0.88955 0.0
H260 H 0.6241 0.00107 0.86501 0.0
H261 H 0.56546 0.88923 0.85586 0.0
H262 H 0.56238 0.96843 0.81235 0.0
H263 H 0.60219 0.92978 0.81298 0.0
C264 C 0.12881 0.02209 0.36742 0.0
C265 C 0.12201 0.00639 0.36319 0.0
N266 N 0.11446 -0.00027 0.37727 0.0
N267 N 0.12562 0.02527 0.38409 0.0
C268 C 0.11679 0.01152 0.38977 0.0
H269 H 0.13549 0.03076 0.35889 0.0
Co270 Co 0.13177 0.04524 0.39502 0.0
C271 C 0.13852 0.03588 0.43108 0.0
O272 O 0.1517 0.04641 0.43059 0.0
N273 N 0.13752 0.06634 0.40575 0.0
C274 C 0.14731 0.09218 0.4133 0.0
C275 C 0.14922 0.07869 0.4021 0.0
C276 C 0.1283 0.0731 0.41881 0.0
N277 N 0.1341 0.08862 0.42375 0.0
O278 O 0.10852 0.05222 0.39517 0.0
H279 H 0.15829 0.07859 0.39171 0.0
H280 H 0.11755 0.0666 0.42474 0.0
O281 O 0.12897 0.03419 0.41779 0.0
C282 C 0.10475 0.06177 0.3825 0.0
O283 O 0.11656 0.06471 0.37081 0.0
N284 N 0.15479 0.03829 0.39368 0.0
C285 C 0.19 0.03419 0.39559 0.0
C286 C 0.17903 0.02204 0.40315 0.0
C287 C 0.16132 0.0242 0.4018 0.0
C288 C 0.16499 0.04741 0.38289 0.0
C289 C 0.18277 0.04615 0.38415 0.0
H290 H 0.15296 0.0151 0.40809 0.0
H291 H 0.15933 0.05664 0.37421 0.0
H292 H 0.11221 0.01017 0.4028 0.0
H293 H 0.12232 0.00055 0.3506 0.0
H294 H 0.15472 0.10394 0.41339 0.0
H295 H 0.18395 0.01158 0.41086 0.0
H296 H 0.19047 0.05536 0.37721 0.0
C297 C 0.97679 0.14952 0.37486 0.0
C298 C 0.99264 0.14305 0.37055 0.0
N299 N -0.00261 0.13163 0.38269 0.0
N300 N 0.97166 0.1423 0.38967 0.0
C301 C 0.98437 0.13148 0.39414 0.0
H302 H 0.96924 0.15848 0.36742 0.0
Co303 Co 0.95053 0.14491 0.39979 0.0
C304 C 0.95724 0.14764 0.4371 0.0
O305 O 0.94546 0.15972 0.43762 0.0
N306 N 0.92837 0.1468 0.40968 0.0
C307 C 0.90167 0.15309 0.41793 0.0
C308 C 0.91467 0.15708 0.40666 0.0
C309 C 0.92273 0.13593 0.42197 0.0
N310 N 0.90686 0.13979 0.42756 0.0
O311 O 0.94627 0.1212 0.39687 0.0
H312 H 0.91373 0.16681 0.39692 0.0
H313 H 0.93054 0.1258 0.42739 0.0
O314 O 0.96064 0.14024 0.42278 0.0
C315 C 0.93935 0.11616 0.383 0.0
O316 O 0.93667 0.12735 0.37066 0.0
N317 N 0.95496 0.16861 0.40214 0.0
C318 C 0.95407 0.2021 0.41341 0.0
C319 C 0.96764 0.19136 0.41831 0.0
C320 C 0.96814 0.17463 0.41202 0.0
C321 C 0.94465 0.18001 0.39387 0.0
C322 C 0.94349 0.19688 0.39979 0.0
H323 H 0.97808 0.16609 0.41655 0.0
H324 H 0.93637 0.1757 0.38364 0.0
H325 H 0.98384 0.1234 0.40541 0.0
H326 H -0.00026 0.14607 0.35901 0.0
H327 H 0.88939 0.15952 0.419 0.0
H328 H 0.97667 0.1951 0.42819 0.0
H329 H 0.93362 0.20526 0.39474 0.0
C330 C 0.85669 0.98533 0.37151 0.0
C331 C 0.86318 0.00106 0.36679 0.0
N332 N 0.87466 0.00602 0.37876 0.0
N333 N 0.86395 0.98052 0.38644 0.0
C334 C 0.87485 0.99329 0.39051 0.0
H335 H 0.84747 0.97775 0.36442 0.0
Co336 Co 0.86109 0.9599 0.39769 0.0
C337 C 0.8539 0.96969 0.43371 0.0
O338 O 0.8415 0.95823 0.43368 0.0
N339 N 0.85895 0.93841 0.40888 0.0
C340 C 0.85341 0.91152 0.41697 0.0
C341 C 0.85103 0.92363 0.40435 0.0
C342 C 0.86714 0.93433 0.42361 0.0
N343 N 0.86339 0.91841 0.42923 0.0
O344 O 0.88509 0.95617 0.39713 0.0
H345 H 0.84426 0.92131 0.39254 0.0
H346 H 0.87581 0.94297 0.43014 0.0
O347 O 0.86314 0.97177 0.42023 0.0
C348 C 0.89065 0.95008 0.38307 0.0
O349 O 0.87993 0.94837 0.37016 0.0
N350 N 0.83714 0.9634 0.39734 0.0
C351 C 0.80225 0.96183 0.40362 0.0
C352 C 0.81171 0.97638 0.40857 0.0
C353 C 0.82924 0.97705 0.40498 0.0
C354 C 0.82747 0.95179 0.38865 0.0
C355 C 0.81002 0.95024 0.39217 0.0
H356 H 0.83667 0.98779 0.40966 0.0
H357 H 0.83349 0.94304 0.37979 0.0
H358 H 0.88323 0.99288 0.40157 0.0
H359 H 0.85973 0.00821 0.3554 0.0
H360 H 0.84799 0.89873 0.41714 0.0
H361 H 0.806 0.98653 0.41613 0.0
H362 H 0.80326 0.9393 0.38698 0.0
C363 C 0.01511 0.8598 0.36635 0.0
C364 C 0.0004 0.86854 0.36197 0.0
N365 N 0.99617 0.87901 0.37509 0.0
N366 N 0.01999 0.86464 0.38221 0.0
C367 C 0.0083 0.87637 0.38717 0.0
H368 H 0.02196 0.85072 0.3584 0.0
Co369 Co 0.0396 0.85829 0.39378 0.0
C370 C 0.02842 0.85077 0.42928 0.0
O371 O 0.03852 0.83726 0.42919 0.0
N372 N 0.06001 0.85238 0.40555 0.0
C373 C 0.08424 0.84148 0.41628 0.0
C374 C 0.07192 0.83983 0.40372 0.0
C375 C 0.06581 0.86171 0.41895 0.0
N376 N 0.08031 0.85531 0.42577 0.0
O377 O 0.04615 0.88169 0.39508 0.0
H378 H 0.07203 0.82998 0.39404 0.0
H379 H 0.05908 0.87273 0.42406 0.0
O380 O 0.02737 0.86028 0.41591 0.0
C381 C 0.0554 0.88611 0.3824 0.0
O382 O 0.05857 0.87472 0.37038 0.0
N383 N 0.03342 0.83526 0.39103 0.0
C384 C 0.02997 0.80002 0.38686 0.0
C385 C 0.01794 0.80932 0.39661 0.0
C386 C 0.01975 0.82709 0.39831 0.0
C387 C 0.04312 0.82701 0.37912 0.0
C388 C 0.04207 0.80931 0.37725 0.0
H389 H 0.01045 0.8341 0.40581 0.0
H390 H 0.05263 0.83412 0.37192 0.0
H391 H 0.00909 0.88331 0.39917 0.0
H392 H 0.99344 0.8673 0.35002 0.0
H393 H 0.09527 0.83325 0.4182 0.0
H394 H 0.00758 0.80294 0.40331 0.0
H395 H 0.05146 0.80305 0.36917 0.0
C396 C 0.13905 0.9687 0.59101 0.0
C397 C 0.13527 0.98559 0.59455 0.0
N398 N 0.12585 0.99189 0.58146 0.0
N399 N 0.13215 0.96451 0.57573 0.0
C400 C 0.12411 0.9788 0.57029 0.0
H401 H 0.14626 0.95999 0.59906 0.0
Co402 Co 0.13302 0.94347 0.56512 0.0
C403 C 0.13844 0.95164 0.5281 0.0
O404 O 0.14963 0.93905 0.52707 0.0
N405 N 0.13332 0.92168 0.55456 0.0
C406 C 0.13788 0.8949 0.54558 0.0
C407 C 0.14207 0.90701 0.55773 0.0
C408 C 0.12317 0.91766 0.54112 0.0
N409 N 0.12615 0.90179 0.53497 0.0
O410 O 0.10886 0.94175 0.56645 0.0
H411 H 0.15103 0.90492 0.56804 0.0
H412 H 0.114 0.92651 0.53561 0.0
O413 O 0.13094 0.95474 0.5424 0.0
C414 C 0.10299 0.93573 0.58041 0.0
O415 O 0.11369 0.93265 0.59307 0.0
N416 N 0.15704 0.94503 0.56478 0.0
C417 C 0.1921 0.94075 0.5614 0.0
C418 C 0.1838 0.95435 0.55303 0.0
C419 C 0.1662 0.95661 0.55534 0.0
C420 C 0.16539 0.93417 0.57558 0.0
C421 C 0.18295 0.93139 0.57377 0.0
H422 H 0.1599 0.96711 0.54885 0.0
H423 H 0.15818 0.92681 0.58487 0.0
H424 H 0.11718 0.9796 0.55829 0.0
H425 H 0.13892 0.99256 0.60599 0.0
H426 H 0.14352 0.88227 0.54429 0.0
H427 H 0.19066 0.96265 0.54423 0.0
H428 H 0.18894 0.92122 0.5811 0.0
C429 C 0.03734 0.12967 0.59757 0.0
C430 C 0.02284 0.12098 0.60269 0.0
N431 N 0.01603 0.11309 0.58886 0.0
N432 N 0.03953 0.12737 0.58059 0.0
C433 C 0.02654 0.11709 0.57569 0.0
H434 H 0.04565 0.13732 0.60563 0.0
Co435 Co 0.05677 0.13603 0.56691 0.0
C436 C 0.03947 0.14772 0.53539 0.0
O437 O 0.04854 0.16191 0.53635 0.0
N438 N 0.07472 0.14427 0.55275 0.0
C439 C 0.09748 0.15611 0.54 0.0
C440 C 0.08739 0.15603 0.55455 0.0
C441 C 0.07774 0.13723 0.53721 0.0
N442 N 0.0912 0.14433 0.52908 0.0
O443 O 0.06385 0.11334 0.56202 0.0
H444 H 0.08962 0.16396 0.56565 0.0
H445 H 0.07023 0.12676 0.53201 0.0
O446 O 0.04122 0.13608 0.54686 0.0
C447 C 0.07588 0.10926 0.57225 0.0
O448 O 0.08114 0.12072 0.58346 0.0
N449 N 0.05029 0.15813 0.57345 0.0
C450 C 0.04399 0.19106 0.58565 0.0
C451 C 0.03134 0.18218 0.57637 0.0
C452 C 0.03463 0.16551 0.57067 0.0
C453 C 0.06162 0.16562 0.58438 0.0
C454 C 0.05905 0.18227 0.59018 0.0
H455 H 0.02461 0.1586 0.56404 0.0
H456 H 0.07292 0.15864 0.58841 0.0
H457 H 0.02497 0.11249 0.56269 0.0
H458 H 0.01756 0.12084 0.61553 0.0
H459 H 0.10854 0.16419 0.53766 0.0
H460 H 0.01911 0.18806 0.5734 0.0
H461 H 0.06912 0.18829 0.5976 0.0
C462 C 0.86561 0.02966 0.60045 0.0
C463 C 0.87111 0.01346 0.60478 0.0
N464 N 0.87999 0.00695 0.59141 0.0
N465 N 0.87088 0.03328 0.5844 0.0
C466 C 0.8796 0.01928 0.57922 0.0
H467 H 0.85866 0.03845 0.60864 0.0
Co468 Co 0.86858 0.05405 0.57328 0.0
C469 C 0.85891 0.04529 0.53754 0.0
O470 O 0.84736 0.05759 0.53817 0.0
N471 N 0.86689 0.07554 0.56212 0.0
C472 C 0.86029 0.10155 0.55219 0.0
C473 C 0.85772 0.08996 0.56526 0.0
C474 C 0.87567 0.07926 0.54764 0.0
N475 N 0.87141 0.09462 0.54095 0.0
O476 O 0.89279 0.05602 0.5721 0.0
H477 H 0.84938 0.09214 0.57606 0.0
H478 H 0.88462 0.07044 0.54174 0.0
O479 O 0.86831 0.04224 0.5507 0.0
C480 C 0.89991 0.06083 0.58596 0.0
O481 O 0.89034 0.06317 0.59965 0.0
N482 N 0.84469 0.05225 0.57571 0.0
C483 C 0.8093 0.05458 0.57802 0.0
C484 C 0.81692 0.04131 0.56856 0.0
C485 C 0.83475 0.04002 0.56804 0.0
C486 C 0.83753 0.06316 0.58731 0.0
C487 C 0.81977 0.06493 0.58835 0.0
H488 H 0.84049 0.02959 0.56096 0.0
H489 H 0.8457 0.07114 0.5952 0.0
H490 H 0.88581 0.01834 0.56684 0.0
H491 H 0.86923 0.00728 0.61707 0.0
H492 H 0.85387 0.11378 0.55073 0.0
H493 H 0.8092 0.03234 0.56127 0.0
H494 H 0.81441 0.07491 0.5964 0.0
C495 C 0.97097 0.85587 0.59188 0.0
C496 C 0.98701 0.86191 0.59612 0.0
N497 N 0.99147 0.87401 0.58457 0.0
N498 N 0.96548 0.86403 0.57767 0.0
C499 C 0.97817 0.875 0.57353 0.0
H500 H 0.9636 0.84644 0.59892 0.0
Co501 Co 0.94407 0.86239 0.56788 0.0
C502 C 0.94993 0.85819 0.53067 0.0
O503 O 0.93728 0.84702 0.53087 0.0
N504 N 0.92172 0.86149 0.5583 0.0
C505 C 0.89483 0.85626 0.54993 0.0
C506 C 0.90774 0.85151 0.561 0.0
C507 C 0.91644 0.87284 0.54628 0.0
N508 N 0.90042 0.86969 0.54069 0.0
O509 O 0.94111 0.88638 0.57056 0.0
H510 H 0.90657 0.84138 0.5703 0.0
H511 H 0.92462 0.88275 0.541 0.0
O512 O 0.95414 0.86591 0.54461 0.0
C513 C 0.9336 0.89095 0.58429 0.0
O514 O 0.92961 0.87914 0.59566 0.0
N515 N 0.94711 0.83844 0.56611 0.0
C516 C 0.94504 0.80404 0.55796 0.0
C517 C 0.95854 0.81402 0.55149 0.0
C518 C 0.95967 0.83121 0.55624 0.0
C519 C 0.93667 0.82812 0.57553 0.0
C520 C 0.93494 0.81082 0.57124 0.0
H521 H 0.96981 0.83897 0.55083 0.0
H522 H 0.92879 0.83356 0.58556 0.0
H523 H 0.97728 0.88409 0.56306 0.0
H524 H 0.99467 0.85782 0.60695 0.0
H525 H 0.88237 0.85025 0.54866 0.0
H526 H 0.96721 0.80912 0.5418 0.0
H527 H 0.92516 0.80316 0.57747 0.0
C528 C 0.38779 0.14832 0.02709 0.0
C529 C 0.38369 0.1425 0.01089 0.0
N530 N 0.39546 0.13067 0.00626 0.0
N531 N 0.40206 0.1402 0.03248 0.0
C532 C 0.40633 0.12949 0.01964 0.0
H533 H 0.38083 0.15779 0.03448 0.0
Co534 Co 0.4134 0.14207 0.05308 0.0
C535 C 0.45007 0.14585 0.04331 0.0
O536 O 0.45158 0.1577 0.05522 0.0
N537 N 0.42492 0.14318 0.07445 0.0
C538 C 0.43628 0.14901 0.10008 0.0
C539 C 0.42331 0.15296 0.08873 0.0
C540 C 0.43813 0.13259 0.07817 0.0
N541 N 0.44578 0.13636 0.09319 0.0
O542 O 0.41086 0.11818 0.05652 0.0
H543 H 0.41365 0.16256 0.09101 0.0
H544 H 0.44251 0.12265 0.06954 0.0
O545 O 0.43565 0.13821 0.04115 0.0
C546 C 0.39719 0.1136 0.06412 0.0
O547 O 0.38582 0.12538 0.0682 0.0
N548 N 0.41506 0.16591 0.04962 0.0
C549 C 0.4245 0.19993 0.05121 0.0
C550 C 0.42923 0.18997 0.037 0.0
C551 C 0.42381 0.17296 0.03616 0.0
C552 C 0.40694 0.1764 0.06096 0.0
C553 C 0.41192 0.19352 0.0624 0.0
H554 H 0.42804 0.16511 0.02555 0.0
H555 H 0.39758 0.17116 0.06974 0.0
H556 H 0.41699 0.12062 0.02034 0.0
H557 H 0.37298 0.14672 0.00313 0.0
H558 H 0.43893 0.1555 0.11206 0.0
H559 H 0.43826 0.19463 0.02752 0.0
H560 H 0.40694 0.20124 0.07283 0.0
C561 C 0.38729 0.85075 0.97921 0.0
C562 C 0.38334 0.85693 0.99531 0.0
N563 N 0.39554 0.86834 -0.00011 0.0
N564 N 0.40193 0.85818 0.9738 0.0
C565 C 0.4066 0.86882 0.98659 0.0
H566 H 0.37982 0.8417 0.97181 0.0
Co567 Co 0.41266 0.85617 0.9528 0.0
C568 C 0.44922 0.85003 0.9613 0.0
O569 O 0.44984 0.83837 0.94912 0.0
N570 N 0.42359 0.85483 0.93113 0.0
C571 C 0.43383 0.84877 0.90508 0.0
C572 C 0.42155 0.84473 0.91712 0.0
C573 C 0.43661 0.86541 0.92677 0.0
N574 N 0.44328 0.86177 0.91127 0.0
O575 O 0.41175 0.88032 0.95018 0.0
H576 H 0.41201 0.8349 0.91541 0.0
H577 H 0.44177 0.87509 0.93531 0.0
O578 O 0.4352 0.85808 0.9642 0.0
C579 C 0.39772 0.8856 0.94378 0.0
O580 O 0.38556 0.87436 0.94055 0.0
N581 N 0.41227 0.83226 0.95517 0.0
C582 C 0.41288 0.79672 0.95266 0.0
C583 C 0.42165 0.80511 0.96602 0.0
C584 C 0.42094 0.82297 0.96723 0.0
C585 C 0.40109 0.82422 0.94448 0.0
C586 C 0.40165 0.80649 0.94247 0.0
H587 H 0.4278 0.82928 0.97748 0.0
H588 H 0.39253 0.83177 0.93657 0.0
H589 H 0.41756 0.8773 0.9858 0.0
H590 H 0.3723 0.85338 0.00293 0.0
H591 H 0.43576 0.84253 0.89282 0.0
H592 H 0.42944 0.79806 0.97512 0.0
H593 H 0.39408 0.80082 0.93232 0.0
C594 C 0.12211 0.3793 0.95511 0.0
C595 C 0.11736 0.37519 0.97161 0.0
N596 N 0.10962 0.38898 0.97866 0.0
N597 N 0.1175 0.39563 0.95185 0.0
C598 C 0.10984 0.40117 0.96634 0.0
H599 H 0.12851 0.37096 0.94606 0.0
Co600 Co 0.12056 0.407 0.93133 0.0
C601 C 0.13097 0.44228 0.9408 0.0
O602 O 0.14259 0.44145 0.9286 0.0
N603 N 0.12305 0.41844 0.91007 0.0
C604 C 0.1297 0.42827 0.88401 0.0
C605 C 0.13232 0.41527 0.89572 0.0
C606 C 0.11433 0.43294 0.90629 0.0
N607 N 0.11854 0.43949 0.89087 0.0
O608 O 0.09641 0.40854 0.9287 0.0
H609 H 0.1406 0.40442 0.8936 0.0
H610 H 0.10526 0.43884 0.91501 0.0
O611 O 0.12106 0.42942 0.94351 0.0
C612 C 0.09061 0.39584 0.92024 0.0
O613 O 0.1014 0.38383 0.91536 0.0
N614 N 0.14437 0.40404 0.93373 0.0
C615 C 0.17976 0.39972 0.93339 0.0
C616 C 0.17188 0.40953 0.94628 0.0
C617 C 0.15405 0.41106 0.94655 0.0
C618 C 0.15154 0.39237 0.92289 0.0
C619 C 0.16929 0.39032 0.92217 0.0
H620 H 0.14815 0.41826 0.9568 0.0
H621 H 0.14343 0.38494 0.91445 0.0
H622 H 0.10423 0.4138 0.96767 0.0
H623 H 0.11967 0.36305 0.97793 0.0
H624 H 0.13596 0.42961 0.87169 0.0
H625 H 0.17935 0.41653 0.95567 0.0
H626 H 0.17476 0.38172 0.91272 0.0
C627 C 0.60649 0.14584 0.9752 0.0
C628 C 0.61088 0.13935 0.99103 0.0
N629 N 0.59891 0.12775 0.99568 0.0
N630 N 0.59177 0.13843 0.96999 0.0
C631 C 0.58747 0.1275 0.98269 0.0
H632 H 0.61384 0.15495 0.96775 0.0
Co633 Co 0.58129 0.14059 0.94884 0.0
C634 C 0.54437 0.14596 0.95647 0.0
O635 O 0.54359 0.15719 0.94389 0.0
N636 N 0.57083 0.14214 0.927 0.0
C637 C 0.56192 0.14824 0.90048 0.0
C638 C 0.57317 0.15267 0.91336 0.0
C639 C 0.55857 0.13108 0.9217 0.0
N640 N 0.55278 0.13464 0.90582 0.0
O641 O 0.58215 0.1165 0.94604 0.0
H642 H 0.58235 0.16294 0.91245 0.0
H643 H 0.55343 0.12097 0.92972 0.0
O644 O 0.55861 0.13851 0.95988 0.0
C645 C 0.59624 0.11069 0.94027 0.0
O646 O 0.60914 0.12134 0.9381 0.0
N647 N 0.58163 0.16451 0.95138 0.0
C648 C 0.5822 0.20003 0.94939 0.0
C649 C 0.57168 0.19176 0.96144 0.0
C650 C 0.57198 0.1739 0.9626 0.0
C651 C 0.5938 0.1724 0.94166 0.0
C652 C 0.59407 0.1902 0.94012 0.0
H653 H 0.56414 0.16772 0.97219 0.0
H654 H 0.60266 0.16473 0.93421 0.0
H655 H 0.5766 0.11888 0.98197 0.0
H656 H 0.62216 0.14275 -0.00161 0.0
H657 H 0.5606 0.15451 0.88815 0.0
H658 H 0.56304 0.199 0.96957 0.0
H659 H 0.60278 0.19605 0.93101 0.0
C660 C 0.86878 0.61227 0.99265 0.0
C661 C 0.87919 0.61668 0.00618 0.0
N662 N 0.88776 0.60254 0.01131 0.0
N663 N 0.87063 0.5954 0.98938 0.0
C664 C 0.88233 0.58983 0.00084 0.0
H665 H 0.86055 0.62086 0.9855 0.0
Co666 Co 0.86042 0.58356 0.97165 0.0
C667 C 0.85172 0.54911 0.98503 0.0
O668 O 0.83712 0.55004 0.97663 0.0
N669 N 0.85031 0.57154 0.95298 0.0
C670 C 0.83428 0.56125 0.93156 0.0
C671 C 0.83557 0.57375 0.94398 0.0
C672 C 0.85777 0.55781 0.94547 0.0
N673 N 0.84834 0.55136 0.93253 0.0
O674 O 0.88246 0.57974 0.96196 0.0
H675 H 0.82618 0.58367 0.94599 0.0
H676 H 0.8698 0.55231 0.94971 0.0
O677 O 0.86217 0.56179 0.98462 0.0
C678 C 0.88507 0.58879 0.94865 0.0
O679 O 0.87293 0.59914 0.94317 0.0
N680 N 0.83897 0.589 0.98076 0.0
C681 C 0.80488 0.59722 0.98661 0.0
C682 C 0.81356 0.58591 -0.00231 0.0
C683 C 0.83088 0.58224 0.99474 0.0
C684 C 0.83172 0.60226 0.97205 0.0
C685 C 0.81456 0.60638 0.97449 0.0
H686 H 0.83743 0.57345 0.00321 0.0
H687 H 0.83888 0.6085 0.96191 0.0
H688 H 0.88715 0.57681 0.00111 0.0
H689 H 0.88026 0.62933 0.0118 0.0
H690 H 0.82398 0.55973 0.92237 0.0
H691 H 0.80684 0.57929 0.00789 0.0
H692 H 0.80872 0.61547 0.96576 0.0
C693 C 0.60941 0.85514 0.02695 0.0
C694 C 0.61422 0.86219 0.0115 0.0
N695 N 0.60201 0.87345 0.00655 0.0
N696 N 0.59421 0.86183 0.03165 0.0
C697 C 0.59 0.87289 0.01905 0.0
H698 H 0.61681 0.84624 0.03462 0.0
Co699 Co 0.58355 0.8589 0.05248 0.0
C700 C 0.54667 0.85462 0.04463 0.0
O701 O 0.54617 0.84274 0.05661 0.0
N702 N 0.57308 0.85667 0.0743 0.0
C703 C 0.56463 0.85057 0.10099 0.0
C704 C 0.57594 0.84643 0.08807 0.0
C705 C 0.56066 0.8675 0.07971 0.0
N706 N 0.55508 0.86386 0.09563 0.0
O707 O 0.58543 0.88276 0.05669 0.0
H708 H 0.58571 0.83676 0.0892 0.0
H709 H 0.55536 0.87763 0.0718 0.0
O710 O 0.56077 0.86258 0.04165 0.0
C711 C 0.59942 0.88843 0.06281 0.0
O712 O 0.61234 0.8778 0.06492 0.0
N713 N 0.58233 0.8351 0.04812 0.0
C714 C 0.57322 0.80094 0.0488 0.0
C715 C 0.56777 0.81141 0.03522 0.0
C716 C 0.57302 0.82849 0.03482 0.0
C717 C 0.5911 0.82424 0.05859 0.0
C718 C 0.58627 0.80703 0.05962 0.0
H719 H 0.5682 0.83672 0.02475 0.0
H720 H 0.60087 0.82919 0.06708 0.0
H721 H 0.57857 0.88073 0.01941 0.0
H722 H 0.62616 0.85968 0.00489 0.0
H723 H 0.56366 0.84444 0.11343 0.0
H724 H 0.55833 0.80705 0.02601 0.0
H725 H 0.59178 0.79895 0.06951 0.0
C726 C 0.13878 0.60613 -0.00014 0.0
C727 C 0.13005 0.6102 0.98509 0.0
N728 N 0.11852 0.59767 0.98198 0.0
N729 N 0.13285 0.59107 0.00591 0.0
C730 C 0.12051 0.58623 0.99482 0.0
H731 H 0.14856 0.61381 0.00602 0.0
Co732 Co 0.13892 0.58089 0.02629 0.0
C733 C 0.14404 0.5441 0.01813 0.0
O734 O 0.15757 0.5443 0.02822 0.0
N735 N 0.14456 0.57084 0.04771 0.0
C736 C 0.155 0.5634 0.07333 0.0
C737 C 0.15632 0.57478 0.0599 0.0
C738 C 0.13568 0.55764 0.05464 0.0
N739 N 0.14201 0.55262 0.06992 0.0
O740 O 0.1158 0.58156 0.0336 0.0
H741 H 0.16521 0.58533 0.05959 0.0
H742 H 0.12503 0.5514 0.04826 0.0
O743 O 0.1352 0.55784 0.01611 0.0
C744 C 0.11143 0.59543 0.04097 0.0
O745 O 0.1224 0.60825 0.04127 0.0
N746 N 0.16193 0.58125 0.01921 0.0
C747 C 0.197 0.57669 0.01766 0.0
C748 C 0.18635 0.56915 0.0052 0.0
C749 C 0.16866 0.57185 0.00605 0.0
C750 C 0.17225 0.5922 0.02799 0.0
C751 C 0.18993 0.58973 0.02797 0.0
H752 H 0.16039 0.56532 0.99704 0.0
H753 H 0.16661 0.60168 0.03641 0.0
H754 H 0.11267 0.5749 0.99655 0.0
H755 H 0.13198 0.62155 0.97732 0.0
H756 H 0.16287 0.56319 0.08478 0.0
H757 H 0.19134 0.56019 0.99583 0.0
H758 H 0.19745 0.5968 0.03723 0.0
C759 C 0.86944 0.38197 0.04445 0.0
C760 C 0.87301 0.37748 0.02776 0.0
N761 N 0.88067 0.39093 0.01999 0.0
N762 N 0.87472 0.39818 0.04715 0.0
C763 C 0.8816 0.4033 0.03212 0.0
H764 H 0.86356 0.3739 0.05409 0.0
Co765 Co 0.87351 0.40936 0.06793 0.0
C766 C 0.86614 0.44554 0.05997 0.0
O767 O 0.85516 0.44492 0.07278 0.0
N768 N 0.87316 0.42034 0.08967 0.0
C769 C 0.86997 0.42912 0.11678 0.0
C770 C 0.86522 0.41704 0.1048 0.0
C771 C 0.88353 0.43376 0.09333 0.0
N772 N 0.8815 0.43959 0.10944 0.0
O773 O 0.89775 0.4081 0.06988 0.0
H774 H 0.85693 0.40637 0.10754 0.0
H775 H 0.89217 0.43951 0.08409 0.0
O776 O 0.87513 0.4322 0.05635 0.0
C777 C 0.90311 0.3952 0.0783 0.0
O778 O 0.89187 0.38386 0.08373 0.0
N779 N 0.84931 0.40975 0.06584 0.0
C780 C 0.81461 0.41742 0.06737 0.0
C781 C 0.82416 0.42136 0.0526 0.0
C782 C 0.84153 0.41721 0.05201 0.0
C783 C 0.83943 0.40206 0.07798 0.0
C784 C 0.82211 0.40638 0.07954 0.0
H785 H 0.84895 0.42122 0.041 0.0
H786 H 0.84511 0.39319 0.08694 0.0
H787 H 0.88714 0.41587 0.03014 0.0
H788 H 0.87046 0.36512 0.02198 0.0
H789 H 0.86556 0.42996 0.12993 0.0
H790 H 0.81862 0.42846 0.04202 0.0
H791 H 0.81518 0.40191 0.0907 0.0
C792 C 0.51622 0.87433 0.64174 0.0
C793 C 0.50115 0.86948 0.63392 0.0
N794 N 0.49581 0.88249 0.62381 0.0
N795 N 0.52025 0.89033 0.63665 0.0
C796 C 0.50766 0.89497 0.62576 0.0
H797 H 0.52402 0.86654 0.65018 0.0
Co798 Co 0.54002 0.90223 0.64165 0.0
C799 C 0.52864 0.93786 0.64869 0.0
O800 O 0.53934 0.93826 0.66174 0.0
N801 N 0.56065 0.91425 0.64607 0.0
C802 C 0.5856 0.92496 0.65516 0.0
C803 C 0.574 0.91174 0.65691 0.0
C804 C 0.56509 0.92851 0.63726 0.0
N805 N 0.57978 0.93563 0.64292 0.0
O806 O 0.54554 0.90288 0.61804 0.0
H807 H 0.57552 0.90117 0.66567 0.0
H808 H 0.55734 0.93383 0.62704 0.0
O809 O 0.5275 0.92428 0.63947 0.0
C810 C 0.55289 0.88947 0.61239 0.0
O811 O 0.55483 0.87629 0.62273 0.0
N812 N 0.53472 0.90051 0.66507 0.0
C813 C 0.53365 0.90249 0.70041 0.0
C814 C 0.52045 0.90977 0.69057 0.0
C815 C 0.52096 0.90816 0.67275 0.0
C816 C 0.5452 0.89021 0.67447 0.0
C817 C 0.54528 0.89138 0.69231 0.0
H818 H 0.51097 0.91409 0.66519 0.0
H819 H 0.55444 0.88209 0.66806 0.0
H820 H 0.50743 0.90718 0.61917 0.0
H821 H 0.49499 0.8571 0.63516 0.0
H822 H 0.5971 0.92682 0.66272 0.0
H823 H 0.51054 0.91754 0.69645 0.0
H824 H 0.55528 0.88485 0.69941 0.0
C825 C 0.10863 0.55619 0.6127 0.0
C826 C 0.11402 0.53963 0.60976 0.0
N827 N 0.10009 0.52946 0.60975 0.0
N828 N 0.09139 0.55637 0.61429 0.0
C829 C 0.08656 0.53984 0.6125 0.0
H830 H 0.11669 0.56746 0.61326 0.0
Co831 Co 0.07868 0.57625 0.61625 0.0
C832 C 0.04209 0.56618 0.61971 0.0
O833 O 0.04018 0.57874 0.6308 0.0
N834 N 0.06631 0.59713 0.61753 0.0
C835 C 0.05446 0.62254 0.6234 0.0
C836 C 0.06675 0.6108 0.62826 0.0
C837 C 0.05421 0.6014 0.60585 0.0
N838 N 0.04658 0.61651 0.6093 0.0
O839 O 0.08053 0.57944 0.59218 0.0
H840 H 0.07524 0.61248 0.63901 0.0
H841 H 0.05038 0.59301 0.59546 0.0
O842 O 0.05683 0.56341 0.61286 0.0
C843 C 0.09248 0.58902 0.58658 0.0
O844 O 0.10321 0.59599 0.59755 0.0
N845 N 0.07773 0.57288 0.64014 0.0
C846 C 0.07342 0.57196 0.67545 0.0
C847 C 0.06647 0.55902 0.66512 0.0
C848 C 0.06914 0.55948 0.64749 0.0
C849 C 0.08704 0.58371 0.6502 0.0
C850 C 0.08463 0.5839 0.66796 0.0
H851 H 0.06366 0.54937 0.63982 0.0
H852 H 0.09566 0.59287 0.64432 0.0
H853 H 0.0734 0.53548 0.61262 0.0
H854 H 0.1271 0.53537 0.60776 0.0
H855 H 0.05148 0.6345 0.62981 0.0
H856 H 0.0582 0.54916 0.6704 0.0
H857 H 0.09099 0.59357 0.67565 0.0
C858 C 0.45652 0.0965 0.6442 0.0
C859 C 0.47285 0.10169 0.63989 0.0
N860 N 0.47962 0.08998 0.62909 0.0
N861 N 0.45311 0.08155 0.63621 0.0
C862 C 0.46734 0.07795 0.62708 0.0
H863 H 0.44761 0.10326 0.65242 0.0
Co864 Co 0.4328 0.06938 0.63618 0.0
C865 C 0.4433 0.03366 0.64358 0.0
O866 O 0.43033 0.03269 0.65433 0.0
N867 N 0.41182 0.05709 0.63532 0.0
C868 C 0.38532 0.04646 0.63757 0.0
C869 C 0.39608 0.05969 0.6422 0.0
C870 C 0.40977 0.04286 0.62563 0.0
N871 N 0.39412 0.03573 0.62732 0.0
O872 O 0.43215 0.07056 0.61198 0.0
H873 H 0.39222 0.07045 0.64994 0.0
H874 H 0.41977 0.03766 0.61753 0.0
O875 O 0.44588 0.04753 0.63511 0.0
C876 C 0.42642 0.08466 0.6061 0.0
O877 O 0.42281 0.0971 0.61691 0.0
N878 N 0.43324 0.06921 0.6603 0.0
C879 C 0.42898 0.06442 0.69528 0.0
C880 C 0.44425 0.05929 0.68718 0.0
C881 C 0.44627 0.06212 0.66964 0.0
C882 C 0.42036 0.07757 0.66856 0.0
C883 C 0.41749 0.07475 0.68597 0.0
H884 H 0.45788 0.05775 0.66343 0.0
H885 H 0.41187 0.08589 0.66147 0.0
H886 H 0.46838 0.06698 0.61862 0.0
H887 H 0.47919 0.11321 0.64436 0.0
H888 H 0.3722 0.04471 0.64178 0.0
H889 H 0.45423 0.05255 0.6941 0.0
H890 H 0.40592 0.07989 0.69167 0.0
C891 C 0.87928 0.50818 0.64097 0.0
C892 C 0.87494 0.52214 0.63108 0.0
N893 N 0.8875 0.52472 0.61944 0.0
N894 N 0.89457 0.50209 0.6357 0.0
C895 C 0.89924 0.51237 0.6226 0.0
H896 H 0.8714 0.50237 0.6508 0.0
Co897 Co 0.90508 0.48196 0.64232 0.0
C898 C 0.94299 0.49043 0.64311 0.0
O899 O 0.94599 0.48007 0.65608 0.0
N900 N 0.91528 0.46102 0.64858 0.0
C901 C 0.92292 0.43638 0.66085 0.0
C902 C 0.91155 0.44987 0.66134 0.0
C903 C 0.92824 0.45342 0.63996 0.0
N904 N 0.93359 0.43877 0.64747 0.0
O905 O 0.90414 0.47392 0.61942 0.0
H906 H 0.90131 0.45121 0.67053 0.0
H907 H 0.93425 0.45915 0.62884 0.0
O908 O 0.92769 0.49234 0.63742 0.0
C909 C 0.89044 0.46614 0.61527 0.0
O910 O 0.87764 0.46582 0.62626 0.0
N911 N 0.90498 0.48938 0.66517 0.0
C912 C 0.90568 0.48932 0.70066 0.0
C913 C 0.91774 0.49894 0.69138 0.0
C914 C 0.91688 0.49918 0.67346 0.0
C915 C 0.89154 0.48259 0.67401 0.0
C916 C 0.8917 0.48223 0.69185 0.0
H917 H 0.92632 0.50646 0.66648 0.0
H918 H 0.88163 0.4757 0.66714 0.0
H919 H 0.91078 0.51038 0.61517 0.0
H920 H 0.86305 0.52926 0.63191 0.0
H921 H 0.92338 0.42579 0.66982 0.0
H922 H 0.92829 0.5053 0.69782 0.0
H923 H 0.88193 0.47488 0.69847 0.0
C924 C 0.52853 0.11189 0.36507 0.0
C925 C 0.51192 0.11535 0.37006 0.0
N926 N 0.5069 0.10301 0.38112 0.0
N927 N 0.53382 0.09741 0.3729 0.0
C928 C 0.52047 0.09239 0.38265 0.0
H929 H 0.53627 0.11944 0.35637 0.0
Co930 Co 0.55499 0.08697 0.37175 0.0
C931 C 0.54736 0.04954 0.36825 0.0
O932 O 0.56018 0.04774 0.35744 0.0
N933 N 0.57684 0.07647 0.37125 0.0
C934 C 0.60269 0.06572 0.36539 0.0
C935 C 0.59081 0.07806 0.36105 0.0
C936 C 0.58118 0.06388 0.38233 0.0
N937 N 0.59639 0.05658 0.37861 0.0
O938 O 0.55711 0.08874 0.3959 0.0
H939 H 0.5924 0.08709 0.35072 0.0
H940 H 0.57272 0.05942 0.3924 0.0
O941 O 0.54391 0.06432 0.37457 0.0
C942 C 0.56249 0.10266 0.40244 0.0
O943 O 0.5653 0.1159 0.39236 0.0
N944 N 0.55289 0.08597 0.34777 0.0
C945 C 0.55521 0.08229 0.31247 0.0
C946 C 0.54239 0.07365 0.32168 0.0
C947 C 0.54116 0.07603 0.33936 0.0
C948 C 0.56323 0.09671 0.33869 0.0
C949 C 0.565 0.09476 0.32098 0.0
H950 H 0.53112 0.06944 0.34625 0.0
H951 H 0.57097 0.10609 0.34538 0.0
H952 H 0.52091 0.08138 0.3911 0.0
H953 H 0.50414 0.12603 0.36579 0.0
H954 H 0.61453 0.06306 0.35864 0.0
H955 H 0.53377 0.06474 0.31539 0.0
H956 H 0.57465 0.10221 0.31431 0.0
C957 C 0.88416 0.48203 0.3504 0.0
C958 C 0.88037 0.46734 0.35947 0.0
N959 N 0.89152 0.46606 0.37264 0.0
N960 N 0.89767 0.48986 0.35781 0.0
C961 C 0.90187 0.47986 0.37126 0.0
H962 H 0.87712 0.48701 0.33952 0.0
Co963 Co 0.90663 0.51118 0.35303 0.0
C964 C 0.94455 0.50573 0.35069 0.0
O965 O 0.94509 0.51656 0.33775 0.0
N966 N 0.91547 0.5334 0.34878 0.0
C967 C 0.92355 0.55879 0.33842 0.0
C968 C 0.91207 0.54549 0.33678 0.0
C969 C 0.92809 0.54045 0.35833 0.0
N970 N 0.9339 0.55538 0.35182 0.0
O971 O 0.90411 0.51756 0.37636 0.0
H972 H 0.90223 0.54482 0.3271 0.0
H973 H 0.93363 0.53412 0.36937 0.0
O974 O 0.93012 0.50232 0.35786 0.0
C975 C 0.89001 0.52511 0.37954 0.0
O976 O 0.87835 0.52585 0.36737 0.0
N977 N 0.90804 0.50523 0.32967 0.0
C978 C 0.91557 0.50968 0.29554 0.0
C979 C 0.92454 0.49734 0.30514 0.0
C980 C 0.92005 0.49482 0.32232 0.0
C981 C 0.89645 0.51342 0.31952 0.0
C982 C 0.90014 0.51611 0.30224 0.0
H983 H 0.92748 0.48599 0.32998 0.0
H984 H 0.88565 0.51994 0.32532 0.0
H985 H 0.91172 0.48323 0.38045 0.0
H986 H 0.86998 0.45853 0.35678 0.0
H987 H 0.9248 0.56958 0.32976 0.0
H988 H 0.93601 0.49124 0.30021 0.0
H989 H 0.89217 0.5248 0.29488 0.0
C990 C 0.49243 0.88717 0.35258 0.0
C991 C 0.50729 0.88309 0.36124 0.0
N992 N 0.50938 0.89449 0.37409 0.0
N993 N 0.48532 0.90111 0.35991 0.0
C994 C 0.49585 0.90522 0.373 0.0
H995 H 0.48704 0.88028 0.34181 0.0
Co996 Co 0.46471 0.91125 0.35443 0.0
C997 C 0.47104 0.94906 0.35683 0.0
O998 O 0.46054 0.95196 0.34395 0.0
N999 N 0.44316 0.92128 0.34922 0.0
C1000 C 0.41809 0.92953 0.33814 0.0
C1001 C 0.43222 0.91921 0.33587 0.0
C1002 C 0.43481 0.9322 0.3598 0.0
N1003 N 0.41982 0.93771 0.3532 0.0
O1004 O 0.45677 0.90692 0.37709 0.0
H1005 H 0.43397 0.91074 0.32511 0.0
H1006 H 0.44009 0.93668 0.37184 0.0
O1007 O 0.47382 0.93367 0.3619 0.0
C1008 C 0.44487 0.89588 0.37869 0.0
O1009 O 0.43914 0.88788 0.36499 0.0
N1010 N 0.47251 0.91454 0.33193 0.0
C1011 C 0.47477 0.92207 0.29733 0.0
C1012 C 0.48518 0.93077 0.3092 0.0
C1013 C 0.48409 0.92654 0.32657 0.0
C1014 C 0.46547 0.90356 0.32037 0.0
C1015 C 0.46597 0.90736 0.30293 0.0
H1016 H 0.49184 0.93355 0.33564 0.0
H1017 H 0.4578 0.89289 0.32486 0.0
H1018 H 0.49328 0.91554 0.38193 0.0
H1019 H 0.51585 0.87257 0.35828 0.0
H1020 H 0.4074 0.93093 0.32938 0.0
H1021 H 0.49321 0.94142 0.3053 0.0
H1022 H 0.45813 0.89976 0.29436 0.0
C1023 C 0.10972 0.44039 0.37485 0.0
C1024 C 0.11467 0.45701 0.37816 0.0
N1025 N 0.10147 0.46525 0.38577 0.0
N1026 N 0.09344 0.43821 0.38023 0.0
C1027 C 0.08882 0.45346 0.38696 0.0
H1028 H 0.11739 0.43056 0.36876 0.0
Co1029 Co 0.08065 0.4183 0.37871 0.0
C1030 C 0.04597 0.4294 0.36821 0.0
O1031 O 0.04597 0.41673 0.35708 0.0
N1032 N 0.06769 0.39781 0.37783 0.0
C1033 C 0.05533 0.37246 0.37296 0.0
C1034 C 0.06913 0.38285 0.36914 0.0
C1035 C 0.05335 0.39575 0.38736 0.0
N1036 N 0.04531 0.38078 0.38427 0.0
O1037 O 0.07947 0.41734 0.40304 0.0
H1038 H 0.07927 0.37944 0.36039 0.0
H1039 H 0.04864 0.40539 0.39618 0.0
O1040 O 0.05907 0.43183 0.37787 0.0
C1041 C 0.09237 0.41001 0.40983 0.0
O1042 O 0.10485 0.40471 0.3998 0.0
N1043 N 0.0832 0.41908 0.35469 0.0
C1044 C 0.0878 0.41803 0.31926 0.0
C1045 C 0.07896 0.4317 0.32695 0.0
C1046 C 0.07729 0.43227 0.34475 0.0
C1047 C 0.09372 0.40702 0.34767 0.0
C1048 C 0.09583 0.40594 0.32992 0.0
H1049 H 0.07106 0.44325 0.35045 0.0
H1050 H 0.10043 0.3981 0.35591 0.0
H1051 H 0.07643 0.45575 0.39277 0.0
H1052 H 0.12693 0.46263 0.37486 0.0
H1053 H 0.05264 0.36002 0.3674 0.0
H1054 H 0.073 0.44168 0.31934 0.0
H1055 H 0.10365 0.39575 0.32461 0.0
C1056 C 0.64319 0.55229 0.89288 0.0
C1057 C 0.63952 0.53566 0.88805 0.0
N1058 N 0.62935 0.5286 0.90016 0.0
N1059 N 0.63545 0.55555 0.90799 0.0
C1060 C 0.62706 0.54099 0.91201 0.0
H1061 H 0.65079 0.56148 0.88577 0.0
Co1062 Co 0.63421 0.57587 0.92017 0.0
C1063 C 0.64352 0.56463 0.95529 0.0
O1064 O 0.65413 0.57772 0.95618 0.0
N1065 N 0.63174 0.59674 0.93212 0.0
C1066 C 0.62812 0.62442 0.93861 0.0
C1067 C 0.63266 0.61293 0.92593 0.0
C1068 C 0.62514 0.59879 0.948 0.0
N1069 N 0.62361 0.61536 0.95259 0.0
O1070 O 0.60996 0.5749 0.91888 0.0
H1071 H 0.63572 0.61623 0.91281 0.0
H1072 H 0.62044 0.58835 0.9558 0.0
O1073 O 0.63402 0.56261 0.94199 0.0
C1074 C 0.60324 0.57956 0.90477 0.0
O1075 O 0.61333 0.58409 0.89203 0.0
N1076 N 0.65866 0.57691 0.92096 0.0
C1077 C 0.69238 0.5806 0.93199 0.0
C1078 C 0.68474 0.56431 0.93137 0.0
C1079 C 0.66787 0.56271 0.92567 0.0
C1080 C 0.66707 0.59197 0.9181 0.0
C1081 C 0.68378 0.59431 0.92406 0.0
H1082 H 0.66172 0.55033 0.92685 0.0
H1083 H 0.66068 0.6026 0.91211 0.0
H1084 H 0.61884 0.53979 0.92313 0.0
H1085 H 0.64393 0.52933 0.8765 0.0
H1086 H 0.62787 0.63825 0.93749 0.0
H1087 H 0.69126 0.55307 0.9363 0.0
H1088 H 0.68931 0.60703 0.92345 0.0
C1089 C 0.45557 0.61967 0.8831 0.0
C1090 C 0.47203 0.61497 0.87878 0.0
N1091 N 0.47918 0.60698 0.89238 0.0
N1092 N 0.45243 0.61477 0.89936 0.0
C1093 C 0.46692 0.60694 0.90463 0.0
H1094 H 0.44653 0.62646 0.87504 0.0
Co1095 Co 0.43232 0.61837 0.91124 0.0
C1096 C 0.44265 0.62687 0.94662 0.0
O1097 O 0.43093 0.639 0.94622 0.0
N1098 N 0.41132 0.62136 0.92318 0.0
C1099 C 0.38558 0.62826 0.93373 0.0
C1100 C 0.39736 0.63152 0.92099 0.0
C1101 C 0.40716 0.61153 0.93686 0.0
N1102 N 0.39184 0.61566 0.94366 0.0
O1103 O 0.4284 0.59433 0.91158 0.0
H1104 H 0.39535 0.64064 0.91083 0.0
H1105 H 0.41558 0.60182 0.94213 0.0
O1106 O 0.44476 0.61711 0.93353 0.0
C1107 C 0.41916 0.58914 0.89917 0.0
O1108 O 0.41409 0.60036 0.88764 0.0
N1109 N 0.43625 0.64216 0.90972 0.0
C1110 C 0.43779 0.67772 0.91122 0.0
C1111 C 0.45141 0.66771 0.9175 0.0
C1112 C 0.4505 0.64989 0.91639 0.0
C1113 C 0.42509 0.65161 0.90021 0.0
C1114 C 0.42509 0.66947 0.90139 0.0
H1115 H 0.46087 0.64233 0.92164 0.0
H1116 H 0.41562 0.64524 0.89236 0.0
H1117 H 0.46839 0.60125 0.9172 0.0
H1118 H 0.47834 0.61767 0.86671 0.0
H1119 H 0.37329 0.63452 0.93544 0.0
H1120 H 0.46234 0.67346 0.92386 0.0
H1121 H 0.41468 0.67644 0.89544 0.0
C1122 C 0.35929 0.44583 0.88905 0.0
C1123 C 0.36352 0.46225 0.88406 0.0
N1124 N 0.37233 0.46978 0.89694 0.0
N1125 N 0.36528 0.44311 0.90502 0.0
C1126 C 0.37318 0.45784 0.90946 0.0
H1127 H 0.35263 0.43635 0.88141 0.0
Co1128 Co 0.36464 0.42291 0.91735 0.0
C1129 C 0.3559 0.43325 0.95281 0.0
O1130 O 0.34516 0.42025 0.95345 0.0
N1131 N 0.36475 0.4021 0.92986 0.0
C1132 C 0.36101 0.37633 0.94178 0.0
C1133 C 0.35641 0.38693 0.92838 0.0
C1134 C 0.37489 0.39994 0.94376 0.0
N1135 N 0.37247 0.38473 0.95157 0.0
O1136 O 0.38897 0.42241 0.91732 0.0
H1137 H 0.34742 0.38351 0.91847 0.0
H1138 H 0.38365 0.40968 0.94835 0.0
O1139 O 0.36465 0.43598 0.93915 0.0
C1140 C 0.39512 0.41475 0.90431 0.0
O1141 O 0.38446 0.40857 0.89279 0.0
N1142 N 0.34056 0.42328 0.91604 0.0
C1143 C 0.30511 0.42014 0.91492 0.0
C1144 C 0.31274 0.43418 0.92317 0.0
C1145 C 0.33054 0.43582 0.92309 0.0
C1146 C 0.3333 0.41118 0.90574 0.0
C1147 C 0.31553 0.40905 0.90533 0.0
H1148 H 0.33622 0.44695 0.92907 0.0
H1149 H 0.34139 0.4028 0.89821 0.0
H1150 H 0.37962 0.45964 0.92162 0.0
H1151 H 0.36076 0.46796 0.87171 0.0
H1152 H 0.35586 0.3637 0.94441 0.0
H1153 H 0.30504 0.44365 0.92983 0.0
H1154 H 0.31011 0.39844 0.89818 0.0
C1155 C 0.54536 0.37987 0.88526 0.0
C1156 C 0.52869 0.38334 0.88061 0.0
N1157 N 0.52033 0.38949 0.89447 0.0
N1158 N 0.54746 0.38373 0.90196 0.0
C1159 C 0.53207 0.38965 0.90721 0.0
H1160 H 0.55535 0.37484 0.87703 0.0
Co1161 Co 0.56769 0.38142 0.91401 0.0
C1162 C 0.55759 0.3726 0.94949 0.0
O1163 O 0.56994 0.36109 0.94934 0.0
N1164 N 0.58868 0.37974 0.92611 0.0
C1165 C 0.61421 0.3737 0.93757 0.0
C1166 C 0.6031 0.37022 0.92426 0.0
C1167 C 0.59189 0.38948 0.94009 0.0
N1168 N 0.60695 0.38567 0.94766 0.0
O1169 O 0.57019 0.4056 0.91433 0.0
H1170 H 0.60564 0.36113 0.91419 0.0
H1171 H 0.58294 0.39892 0.94494 0.0
O1172 O 0.55504 0.38202 0.93622 0.0
C1173 C 0.57762 0.41151 0.90105 0.0
O1174 O 0.5816 0.40088 0.88858 0.0
N1175 N 0.56532 0.35746 0.91242 0.0
C1176 C 0.56584 0.32187 0.91227 0.0
C1177 C 0.55223 0.33074 0.92004 0.0
C1178 C 0.55193 0.3486 0.91946 0.0
C1179 C 0.57676 0.34909 0.90222 0.0
C1180 C 0.57761 0.33121 0.90235 0.0
H1181 H 0.54131 0.35526 0.92537 0.0
H1182 H 0.58569 0.35634 0.89448 0.0
H1183 H 0.52947 0.39377 0.9202 0.0
H1184 H 0.52325 0.38161 0.86795 0.0
H1185 H 0.62636 0.36741 0.93995 0.0
H1186 H 0.54242 0.3241 0.9273 0.0
H1187 H 0.58766 0.32481 0.8952 0.0
C1188 C 0.64657 0.50135 0.11548 0.0
C1189 C 0.63849 0.51664 0.11916 0.0
N1190 N 0.62731 0.5201 0.1064 0.0
N1191 N 0.64055 0.49531 0.10044 0.0
C1192 C 0.62889 0.50698 0.09523 0.0
H1193 H 0.65581 0.49481 0.1235 0.0
Co1194 Co 0.64486 0.4744 0.09016 0.0
C1195 C 0.65273 0.48303 0.05386 0.0
O1196 O 0.66522 0.47169 0.05382 0.0
N1197 N 0.64861 0.4528 0.07968 0.0
C1198 C 0.65705 0.42684 0.07098 0.0
C1199 C 0.65938 0.43955 0.08301 0.0
C1200 C 0.63939 0.44733 0.06605 0.0
N1201 N 0.64445 0.43184 0.06033 0.0
O1202 O 0.62099 0.47007 0.08893 0.0
H1203 H 0.66841 0.43877 0.09344 0.0
H1204 H 0.62953 0.45497 0.05992 0.0
O1205 O 0.64392 0.48547 0.0675 0.0
C1206 C 0.61417 0.46481 0.10276 0.0
O1207 O 0.62355 0.46427 0.11677 0.0
N1208 N 0.66843 0.47832 0.09253 0.0
C1209 C 0.70388 0.47617 0.09442 0.0
C1210 C 0.69602 0.48902 0.08444 0.0
C1211 C 0.67812 0.49004 0.08388 0.0
C1212 C 0.67575 0.4685 0.10493 0.0
C1213 C 0.69349 0.46671 0.10573 0.0
H1214 H 0.67218 0.4997 0.07591 0.0
H1215 H 0.6677 0.46074 0.11317 0.0
H1216 H 0.62104 0.50533 0.0839 0.0
H1217 H 0.64047 0.52439 0.13051 0.0
H1218 H 0.66403 0.41486 0.07015 0.0
H1219 H 0.7035 0.49761 0.0765 0.0
H1220 H 0.69867 0.45699 0.11416 0.0
C1221 C 0.49701 0.63677 0.11138 0.0
C1222 C 0.48347 0.62625 0.11537 0.0
N1223 N 0.48176 0.61458 0.10272 0.0
N1224 N 0.50368 0.63188 0.09621 0.0
C1225 C 0.49416 0.61832 0.09122 0.0
H1226 H 0.50202 0.64702 0.11928 0.0
Co1227 Co 0.5235 0.64056 0.0868 0.0
C1228 C 0.51716 0.644 0.04933 0.0
O1229 O 0.52594 0.65841 0.04966 0.0
N1230 N 0.54438 0.64907 0.07777 0.0
C1231 C 0.56773 0.66399 0.07053 0.0
C1232 C 0.55371 0.66334 0.08121 0.0
C1233 C 0.55366 0.64086 0.06562 0.0
N1234 N 0.56759 0.64983 0.06074 0.0
O1235 O 0.53363 0.61849 0.08774 0.0
H1236 H 0.55085 0.67288 0.09077 0.0
H1237 H 0.5497 0.62892 0.05971 0.0
O1238 O 0.51489 0.63558 0.0633 0.0
C1239 C 0.5412 0.61483 0.10171 0.0
O1240 O 0.54025 0.62571 0.11456 0.0
N1241 N 0.51357 0.66252 0.08695 0.0
C1242 C 0.50855 0.69744 0.08428 0.0
C1243 C 0.49898 0.68616 0.074 0.0
C1244 C 0.50133 0.6685 0.07594 0.0
C1245 C 0.51963 0.67294 0.09956 0.0
C1246 C 0.51762 0.69064 0.09828 0.0
H1247 H 0.49428 0.65988 0.06771 0.0
H1248 H 0.52783 0.66767 0.10945 0.0
H1249 H 0.49682 0.61086 0.07981 0.0
H1250 H 0.47563 0.62703 0.12681 0.0
H1251 H 0.57722 0.67412 0.06991 0.0
H1252 H 0.49093 0.69091 0.06371 0.0
H1253 H 0.52479 0.69878 0.10696 0.0
C1254 C 0.3496 0.49923 0.11238 0.0
C1255 C 0.35735 0.48389 0.11659 0.0
N1256 N 0.36894 0.48014 0.10429 0.0
N1257 N 0.35631 0.50498 0.09751 0.0
C1258 C 0.368 0.49313 0.09293 0.0
H1259 H 0.34009 0.50601 0.11988 0.0
Co1260 Co 0.35272 0.52565 0.08666 0.0
C1261 C 0.34624 0.51608 0.05036 0.0
O1262 O 0.3336 0.52726 0.05001 0.0
N1263 N 0.34985 0.54715 0.07566 0.0
C1264 C 0.34314 0.5735 0.06662 0.0
C1265 C 0.34064 0.56144 0.0793 0.0
C1266 C 0.35872 0.55151 0.06142 0.0
N1267 N 0.35437 0.56705 0.05523 0.0
O1268 O 0.37661 0.53005 0.08701 0.0
H1269 H 0.33268 0.56341 0.09041 0.0
H1270 H 0.36817 0.54323 0.05552 0.0
O1271 O 0.35509 0.51415 0.06409 0.0
C1272 C 0.38295 0.53528 0.10107 0.0
O1273 O 0.37308 0.53588 0.11474 0.0
N1274 N 0.32897 0.52144 0.08709 0.0
C1275 C 0.29434 0.52328 0.08005 0.0
C1276 C 0.30385 0.50883 0.07491 0.0
C1277 C 0.3213 0.50803 0.07884 0.0
C1278 C 0.31913 0.53261 0.09614 0.0
C1279 C 0.30177 0.53432 0.09227 0.0
H1280 H 0.32886 0.49752 0.07387 0.0
H1281 H 0.32505 0.54122 0.10522 0.0
H1282 H 0.37634 0.49454 0.08191 0.0
H1283 H 0.35486 0.4763 0.12795 0.0
H1284 H 0.33685 0.58585 0.0657 0.0
H1285 H 0.29834 0.49902 0.06677 0.0
H1286 H 0.29493 0.54513 0.09763 0.0
C1287 C 0.4993 0.36379 0.11336 0.0
C1288 C 0.51296 0.37405 0.11765 0.0
N1289 N 0.51528 0.38556 0.10496 0.0
N1290 N 0.49316 0.36874 0.09798 0.0
C1291 C 0.50312 0.38202 0.09315 0.0
H1292 H 0.49383 0.35373 0.1212 0.0
Co1293 Co 0.47339 0.36062 0.08803 0.0
C1294 C 0.48086 0.35656 0.05095 0.0
O1295 O 0.47182 0.34232 0.05128 0.0
N1296 N 0.45254 0.35278 0.07834 0.0
C1297 C 0.42857 0.33915 0.07062 0.0
C1298 C 0.44239 0.33905 0.08162 0.0
C1299 C 0.44405 0.36138 0.06589 0.0
N1300 N 0.42971 0.35322 0.06073 0.0
O1301 O 0.4639 0.3829 0.08871 0.0
H1302 H 0.44451 0.32944 0.09131 0.0
H1303 H 0.44879 0.37308 0.0601 0.0
O1304 O 0.4828 0.36524 0.06479 0.0
C1305 C 0.45615 0.38658 0.10257 0.0
O1306 O 0.45674 0.37561 0.11537 0.0
N1307 N 0.48268 0.33845 0.08852 0.0
C1308 C 0.48813 0.30354 0.08674 0.0
C1309 C 0.49818 0.31473 0.07684 0.0
C1310 C 0.49559 0.33239 0.07834 0.0
C1311 C 0.4758 0.32815 0.1008 0.0
C1312 C 0.47804 0.31046 0.09994 0.0
H1313 H 0.50312 0.34095 0.07049 0.0
H1314 H 0.46711 0.33353 0.11019 0.0
H1315 H 0.50093 0.38949 0.08164 0.0
H1316 H 0.52044 0.37323 0.12933 0.0
H1317 H 0.41848 0.32962 0.06996 0.0
H1318 H 0.5069 0.30988 0.06716 0.0
H1319 H 0.47044 0.30237 0.10831 0.0
C1320 C 0.87902 0.63755 0.48589 0.0
C1321 C 0.87395 0.62726 0.47247 0.0
N1322 N 0.88625 0.61536 0.46972 0.0
N1323 N 0.89448 0.63226 0.49147 0.0
C1324 C 0.89855 0.61878 0.48144 0.0
H1325 H 0.8716 0.64775 0.49168 0.0
Co1326 Co 0.90581 0.63962 0.51086 0.0
C1327 C 0.94314 0.63979 0.50153 0.0
O1328 O 0.94573 0.65362 0.51083 0.0
N1329 N 0.91698 0.64663 0.5312 0.0
C1330 C 0.92696 0.65998 0.55444 0.0
C1331 C 0.91481 0.66035 0.54162 0.0
C1332 C 0.9298 0.63766 0.53868 0.0
N1333 N 0.93656 0.64581 0.55234 0.0
O1334 O 0.90397 0.61734 0.52031 0.0
H1335 H 0.9053 0.67026 0.54014 0.0
H1336 H 0.93463 0.62565 0.53364 0.0
O1337 O 0.92803 0.63341 0.50027 0.0
C1338 C 0.89057 0.61545 0.5294 0.0
O1339 O 0.8794 0.62807 0.53005 0.0
N1340 N 0.90646 0.66188 0.50189 0.0
C1341 C 0.90986 0.69699 0.49841 0.0
C1342 C 0.91966 0.6859 0.48814 0.0
C1343 C 0.91741 0.66819 0.48976 0.0
C1344 C 0.89454 0.67235 0.50914 0.0
C1345 C 0.89618 0.69008 0.50787 0.0
H1346 H 0.92517 0.65975 0.48202 0.0
H1347 H 0.8849 0.66695 0.51755 0.0
H1348 H 0.91012 0.61132 0.48315 0.0
H1349 H 0.8618 0.62809 0.46583 0.0
H1350 H 0.92907 0.66982 0.56402 0.0
H1351 H 0.92971 0.69079 0.47987 0.0
H1352 H 0.88796 0.69808 0.5157 0.0
C1353 C 0.88307 0.35254 0.51014 0.0
C1354 C 0.87854 0.36235 0.52412 0.0
N1355 N 0.88974 0.37548 0.52539 0.0
N1356 N 0.89711 0.35941 0.50276 0.0
C1357 C 0.90084 0.37336 0.51228 0.0
H1358 H 0.87626 0.34142 0.50541 0.0
Co1359 Co 0.90746 0.35289 0.4825 0.0
C1360 C 0.94539 0.35457 0.48985 0.0
O1361 O 0.94874 0.3417 0.47948 0.0
N1362 N 0.91755 0.34669 0.46136 0.0
C1363 C 0.92527 0.33418 0.43682 0.0
C1364 C 0.91452 0.33326 0.45077 0.0
C1365 C 0.92944 0.35609 0.45291 0.0
N1366 N 0.93474 0.34852 0.43828 0.0
O1367 O 0.90476 0.37536 0.4738 0.0
H1368 H 0.90507 0.32337 0.45268 0.0
H1369 H 0.93479 0.36789 0.4579 0.0
O1370 O 0.92989 0.35955 0.49209 0.0
C1371 C 0.89099 0.37837 0.46562 0.0
O1372 O 0.8789 0.3666 0.46545 0.0
N1373 N 0.90929 0.33036 0.49076 0.0
C1374 C 0.91508 0.29544 0.49078 0.0
C1375 C 0.92523 0.30627 0.50098 0.0
C1376 C 0.92183 0.32386 0.50112 0.0
C1377 C 0.89712 0.31974 0.48417 0.0
C1378 C 0.89989 0.3021 0.48374 0.0
H1379 H 0.93001 0.33215 0.50856 0.0
H1380 H 0.8864 0.32514 0.47717 0.0
H1381 H 0.91103 0.38224 0.50912 0.0
H1382 H 0.86773 0.36008 0.53253 0.0
H1383 H 0.92612 0.32497 0.42646 0.0
H1384 H 0.9365 0.30144 0.50754 0.0
H1385 H 0.89134 0.29424 0.47612 0.0
C1386 C 0.64406 0.88646 0.48732 0.0
C1387 C 0.63676 0.88148 0.50261 0.0
N1388 N 0.62485 0.89325 0.50702 0.0
N1389 N 0.63685 0.90133 0.48225 0.0
C1390 C 0.62521 0.90514 0.49444 0.0
H1391 H 0.65369 0.87949 0.48016 0.0
Co1392 Co 0.64036 0.91268 0.46184 0.0
C1393 C 0.64567 0.94914 0.47166 0.0
O1394 O 0.65808 0.95003 0.46025 0.0
N1395 N 0.64333 0.92399 0.44057 0.0
C1396 C 0.65087 0.93339 0.41459 0.0
C1397 C 0.65375 0.92111 0.42695 0.0
C1398 C 0.63362 0.93747 0.43561 0.0
N1399 N 0.63823 0.94368 0.42016 0.0
O1400 O 0.61649 0.9119 0.45721 0.0
H1401 H 0.66281 0.91077 0.42561 0.0
H1402 H 0.62373 0.9431 0.44357 0.0
O1403 O 0.63747 0.93502 0.4737 0.0
C1404 C 0.61137 0.89791 0.45057 0.0
O1405 O 0.62231 0.88517 0.44908 0.0
N1406 N 0.66406 0.91235 0.46605 0.0
C1407 C 0.69931 0.9158 0.46393 0.0
C1408 C 0.69023 0.92343 0.47754 0.0
C1409 C 0.67247 0.92125 0.47856 0.0
C1410 C 0.67303 0.90162 0.45566 0.0
C1411 C 0.69068 0.90357 0.45385 0.0
H1412 H 0.66547 0.92761 0.4887 0.0
H1413 H 0.66623 0.89266 0.44753 0.0
H1414 H 0.61663 0.91603 0.49365 0.0
H1415 H 0.63988 0.87001 0.50978 0.0
H1416 H 0.65753 0.93461 0.40246 0.0
H1417 H 0.69652 0.93183 0.48664 0.0
H1418 H 0.69696 0.89662 0.44362 0.0
C1419 C 0.10415 0.63348 0.43801 0.0
C1420 C 0.1085 0.63182 0.45506 0.0
N1421 N 0.09716 0.62109 0.46256 0.0
N1422 N 0.09009 0.62395 0.43486 0.0
C1423 C 0.08624 0.61644 0.44995 0.0
H1424 H 0.11069 0.64125 0.42854 0.0
Co1425 Co 0.0787 0.62151 0.41425 0.0
C1426 C 0.04164 0.62401 0.42313 0.0
O1427 O 0.039 0.63322 0.40924 0.0
N1428 N 0.0674 0.61831 0.39299 0.0
C1429 C 0.05665 0.61921 0.36646 0.0
C1430 C 0.06878 0.6259 0.3774 0.0
C1431 C 0.05517 0.60624 0.39064 0.0
N1432 N 0.04804 0.60692 0.37493 0.0
O1433 O 0.08219 0.59745 0.41521 0.0
H1434 H 0.07779 0.63571 0.37383 0.0
H1435 H 0.05077 0.59776 0.40073 0.0
O1436 O 0.05676 0.6186 0.42666 0.0
C1437 C 0.09635 0.59075 0.4107 0.0
O1438 O 0.10913 0.60077 0.40618 0.0
N1439 N 0.07574 0.64551 0.41347 0.0
C1440 C 0.06821 0.68011 0.4088 0.0
C1441 C 0.06265 0.67142 0.42358 0.0
C1442 C 0.06674 0.65417 0.42577 0.0
C1443 C 0.084 0.6545 0.40099 0.0
C1444 C 0.07985 0.67166 0.3979 0.0
H1445 H 0.06232 0.64772 0.43721 0.0
H1446 H 0.09342 0.64819 0.39303 0.0
H1447 H 0.07573 0.60752 0.45154 0.0
H1448 H 0.11901 0.63826 0.46144 0.0
H1449 H 0.05417 0.62327 0.35341 0.0
H1450 H 0.05491 0.67771 0.43324 0.0
H1451 H 0.08528 0.67787 0.38674 0.0
C1452 C 0.35695 0.09931 0.46883 0.0
C1453 C 0.36256 0.10343 0.48507 0.0
N1454 N 0.37341 0.09102 0.49037 0.0
N1455 N 0.36415 0.08434 0.46406 0.0
C1456 C 0.37413 0.07964 0.47735 0.0
H1457 H 0.34837 0.10683 0.46092 0.0
Co1458 Co 0.36235 0.07351 0.44316 0.0
C1459 C 0.35519 0.03714 0.45169 0.0
O1460 O 0.34349 0.03727 0.43953 0.0
N1461 N 0.36125 0.06267 0.42147 0.0
C1462 C 0.3565 0.05381 0.39465 0.0
C1463 C 0.35283 0.06622 0.40668 0.0
C1464 C 0.37072 0.04868 0.41758 0.0
N1465 N 0.36759 0.04265 0.4017 0.0
O1466 O 0.38649 0.07439 0.44066 0.0
H1467 H 0.3446 0.07707 0.40436 0.0
H1468 H 0.37968 0.04284 0.42643 0.0
O1469 O 0.36398 0.05075 0.45468 0.0
C1470 C 0.39167 0.0886 0.43454 0.0
O1471 O 0.38038 0.10081 0.43175 0.0
N1472 N 0.33839 0.07387 0.44542 0.0
C1473 C 0.3031 0.07094 0.4425 0.0
C1474 C 0.31168 0.06382 0.45669 0.0
C1475 C 0.32943 0.06572 0.45808 0.0
C1476 C 0.3299 0.08403 0.43409 0.0
C1477 C 0.31229 0.08225 0.43185 0.0
H1478 H 0.33602 0.05984 0.46877 0.0
H1479 H 0.337 0.09283 0.42607 0.0
H1480 H 0.38225 0.06838 0.47717 0.0
H1481 H 0.35893 0.11468 0.49235 0.0
H1482 H 0.35109 0.05289 0.38189 0.0
H1483 H 0.30497 0.05619 0.46616 0.0
H1484 H 0.30637 0.08884 0.42117 0.0
C1485 C 0.10375 0.36214 0.55739 0.0
C1486 C 0.10834 0.36428 0.54045 0.0
N1487 N 0.09719 0.37534 0.53313 0.0
N1488 N 0.08974 0.37172 0.56065 0.0
C1489 C 0.08615 0.37971 0.54573 0.0
H1490 H 0.11009 0.35402 0.5667 0.0
Co1491 Co 0.07803 0.3738 0.58112 0.0
C1492 C 0.04116 0.37175 0.5713 0.0
O1493 O 0.03818 0.3622 0.58488 0.0
N1494 N 0.06633 0.37663 0.60227 0.0
C1495 C 0.05644 0.37626 0.62912 0.0
C1496 C 0.06841 0.36956 0.618 0.0
C1497 C 0.0538 0.38837 0.60463 0.0
N1498 N 0.04712 0.388 0.62057 0.0
O1499 O 0.08221 0.39779 0.58086 0.0
H1500 H 0.07804 0.36036 0.62162 0.0
H1501 H 0.04919 0.39663 0.59448 0.0
O1502 O 0.05637 0.37728 0.56831 0.0
C1503 C 0.09276 0.40352 0.59189 0.0
O1504 O 0.10037 0.39275 0.60241 0.0
N1505 N 0.07473 0.3499 0.58135 0.0
C1506 C 0.06779 0.31509 0.58497 0.0
C1507 C 0.06205 0.32412 0.57048 0.0
C1508 C 0.06593 0.34146 0.56876 0.0
C1509 C 0.08283 0.34074 0.59382 0.0
C1510 C 0.07901 0.32343 0.59633 0.0
H1511 H 0.06163 0.34812 0.55739 0.0
H1512 H 0.09211 0.34693 0.60201 0.0
H1513 H 0.07576 0.38879 0.54425 0.0
H1514 H 0.11889 0.35796 0.53399 0.0
H1515 H 0.05474 0.37269 0.64243 0.0
H1516 H 0.05452 0.31793 0.56058 0.0
H1517 H 0.08451 0.3169 0.60728 0.0
C1518 C 0.62917 0.11001 0.542 0.0
C1519 C 0.62328 0.11511 0.52617 0.0
N1520 N 0.61356 0.10238 0.51961 0.0
N1521 N 0.62333 0.09409 0.54532 0.0
C1522 C 0.61381 0.08979 0.53154 0.0
H1523 H 0.63705 0.11749 0.55063 0.0
Co1524 Co 0.62655 0.082 0.56541 0.0
C1525 C 0.63525 0.04655 0.55493 0.0
O1526 O 0.64688 0.04647 0.56715 0.0
N1527 N 0.6292 0.06993 0.5863 0.0
C1528 C 0.63631 0.05916 0.61187 0.0
C1529 C 0.63958 0.07193 0.60011 0.0
C1530 C 0.61932 0.05629 0.59045 0.0
N1531 N 0.62355 0.04936 0.6057 0.0
O1532 O 0.60246 0.08098 0.56859 0.0
H1533 H 0.64897 0.08189 0.6019 0.0
H1534 H 0.60961 0.05105 0.58201 0.0
O1535 O 0.62598 0.05996 0.5526 0.0
C1536 C 0.59595 0.09409 0.57578 0.0
O1537 O 0.60593 0.10725 0.57921 0.0
N1538 N 0.65037 0.08422 0.56244 0.0
C1539 C 0.6859 0.08625 0.56243 0.0
C1540 C 0.67729 0.0773 0.5494 0.0
C1541 C 0.65942 0.07692 0.54933 0.0
C1542 C 0.65835 0.09533 0.57329 0.0
C1543 C 0.6762 0.09622 0.57385 0.0
H1544 H 0.65296 0.07025 0.53904 0.0
H1545 H 0.6508 0.10295 0.5821 0.0
H1546 H 0.60677 0.07787 0.53057 0.0
H1547 H 0.62602 0.12725 0.52001 0.0
H1548 H 0.64278 0.05726 0.62402 0.0
H1549 H 0.68419 0.06994 0.53985 0.0
H1550 H 0.68232 0.10419 0.58345 0.0
C1551 C 0.37226 0.86885 0.51231 0.0
C1552 C 0.3802 0.86549 0.49692 0.0
N1553 N 0.38333 0.88058 0.48917 0.0
N1554 N 0.37064 0.88596 0.51424 0.0
C1555 C 0.3774 0.89281 0.49985 0.0
H1556 H 0.36852 0.85948 0.52184 0.0
Co1557 Co 0.36353 0.89602 0.53435 0.0
C1558 C 0.35586 0.93252 0.52652 0.0
O1559 O 0.3426 0.93133 0.53688 0.0
N1560 N 0.35678 0.90584 0.55554 0.0
C1561 C 0.3445 0.91408 0.58005 0.0
C1562 C 0.34383 0.90257 0.56666 0.0
C1563 C 0.3655 0.91886 0.56296 0.0
N1564 N 0.35817 0.92429 0.57762 0.0
O1565 O 0.38665 0.89702 0.54183 0.0
H1566 H 0.33432 0.89264 0.56541 0.0
H1567 H 0.3766 0.9249 0.55718 0.0
O1568 O 0.36549 0.91937 0.5241 0.0
C1569 C 0.39031 0.88425 0.55132 0.0
O1570 O 0.37852 0.87247 0.55387 0.0
N1571 N 0.34078 0.89354 0.52714 0.0
C1572 C 0.30545 0.89274 0.52555 0.0
C1573 C 0.31475 0.90329 0.51427 0.0
C1574 C 0.33264 0.90303 0.51488 0.0
C1575 C 0.33223 0.88059 0.53511 0.0
C1576 C 0.31437 0.88009 0.53475 0.0
H1577 H 0.33973 0.91141 0.50644 0.0
H1578 H 0.33918 0.8718 0.54332 0.0
H1579 H 0.37886 0.90643 0.49759 0.0
H1580 H 0.38376 0.85301 0.49196 0.0
H1581 H 0.33559 0.91493 0.59068 0.0
H1582 H 0.30845 0.91272 0.50625 0.0
H1583 H 0.30768 0.87095 0.5428 0.0
H1584 H 0.09067 0.44329 0.29481 0.0
H1585 H 0.08018 0.37956 0.21503 0.0
H1586 H 0.08541 0.3884 0.30048 0.0
H1587 H 0.07177 0.43423 0.21223 0.0
H1588 H 0.08601 0.3824 0.24583 0.0
H1589 H 0.08788 0.44001 0.2638 0.0
C1590 C 0.08896 0.43054 0.28955 0.0
C1591 C 0.08808 0.41612 0.30032 0.0
C1592 C 0.08287 0.39375 0.23845 0.0
C1593 C 0.08506 0.41227 0.26479 0.0
C1594 C 0.07959 0.39214 0.22091 0.0
C1595 C 0.07535 0.40666 0.21115 0.0
C1596 C 0.08212 0.41002 0.24618 0.0
C1597 C 0.07471 0.42267 0.21937 0.0
C1598 C 0.08741 0.42868 0.27184 0.0
C1599 C 0.08629 0.39987 0.2927 0.0
N1600 N 0.07809 0.42392 0.23639 0.0
N1601 N 0.08474 0.39839 0.2754 0.0
H1602 H 0.58959 0.0804 0.20718 0.0
H1603 H 0.55617 0.04993 0.29914 0.0
H1604 H 0.58142 0.02726 0.22068 0.0
H1605 H 0.56417 0.103 0.2853 0.0
H1606 H 0.56529 0.04137 0.27049 0.0
H1607 H 0.5813 0.08875 0.23608 0.0
C1608 C 0.58636 0.07043 0.21632 0.0
C1609 C 0.58628 0.05306 0.21149 0.0
C1610 C 0.56499 0.05489 0.27368 0.0
C1611 C 0.57627 0.06265 0.24455 0.0
C1612 C 0.5596 0.05982 0.28999 0.0
C1613 C 0.55932 0.07724 0.29461 0.0
C1614 C 0.57019 0.06745 0.26189 0.0
C1615 C 0.56432 0.08943 0.28234 0.0
C1616 C 0.58142 0.07525 0.23278 0.0
C1617 C 0.58152 0.0408 0.22378 0.0
N1618 N 0.56957 0.08429 0.26654 0.0
N1619 N 0.57665 0.04584 0.23975 0.0
H1620 H 0.97769 0.53894 0.20819 0.0
H1621 H 0.91631 0.54403 0.28963 0.0
H1622 H 0.96371 0.58626 0.23346 0.0
H1623 H 0.93531 0.49607 0.26935 0.0
H1624 H 0.93329 0.55944 0.26862 0.0
H1625 H 0.96341 0.52291 0.23086 0.0
C1626 C 0.97204 0.546 0.21874 0.0
C1627 C 0.97186 0.56406 0.21884 0.0
C1628 C 0.93371 0.54555 0.26865 0.0
C1629 C 0.95491 0.54565 0.24455 0.0
C1630 C 0.92375 0.53667 0.28048 0.0
C1631 C 0.92412 0.51865 0.28109 0.0
C1632 C 0.94422 0.53642 0.25726 0.0
C1633 C 0.93458 0.50994 0.26929 0.0
C1634 C 0.96366 0.53679 0.23158 0.0
C1635 C 0.96396 0.57239 0.23269 0.0
N1636 N 0.94421 0.51892 0.25781 0.0
N1637 N 0.95564 0.56312 0.24488 0.0
H1638 H 0.46683 0.90557 0.26699 0.0
H1639 H 0.4495 0.97505 0.20157 0.0
H1640 H 0.47275 0.95625 0.28889 0.0
H1641 H 0.40519 0.94875 0.22233 0.0
H1642 H 0.46586 0.96655 0.2269 0.0
H1643 H 0.45273 0.91856 0.24212 0.0
C1644 C 0.46545 0.91939 0.26654 0.0
C1645 C 0.47068 0.92974 0.28034 0.0
C1646 C 0.45248 0.9629 0.22585 0.0
C1647 C 0.45512 0.9445 0.25175 0.0
C1648 C 0.44298 0.96789 0.21154 0.0
C1649 C 0.42585 0.96243 0.20955 0.0
C1650 C 0.44493 0.95211 0.23798 0.0
C1651 C 0.41844 0.95283 0.22291 0.0
C1652 C 0.45745 0.92672 0.25235 0.0
C1653 C 0.46903 0.94768 0.27862 0.0
N1654 N 0.42815 0.94763 0.23639 0.0
N1655 N 0.46124 0.95452 0.26461 0.0
H1656 H 0.06838 0.54674 0.69949 0.0
H1657 H 0.02774 0.61062 0.76882 0.0
H1658 H 0.06444 0.60149 0.69196 0.0
H1659 H 0.02922 0.55552 0.77451 0.0
H1660 H 0.04054 0.60765 0.74031 0.0
H1661 H 0.05435 0.54988 0.72732 0.0
C1662 C 0.06468 0.55944 0.70377 0.0
C1663 C 0.06754 0.57387 0.69339 0.0
C1664 C 0.03788 0.59621 0.74774 0.0
C1665 C 0.05136 0.57756 0.72513 0.0
C1666 C 0.03052 0.59789 0.76396 0.0
C1667 C 0.02745 0.58331 0.77406 0.0
C1668 C 0.04229 0.57982 0.74165 0.0
C1669 C 0.03117 0.56711 0.7671 0.0
C1670 C 0.05662 0.56123 0.71962 0.0
C1671 C 0.06267 0.59005 0.69964 0.0
N1672 N 0.03855 0.56582 0.7514 0.0
N1673 N 0.05473 0.59145 0.71508 0.0
H1674 H 0.43786 0.03359 0.70992 0.0
H1675 H 0.3768 0.04284 0.79044 0.0
H1676 H 0.40943 0.08016 0.7204 0.0
H1677 H 0.42725 0.02012 0.79506 0.0
H1678 H 0.38315 0.04967 0.7605 0.0
H1679 H 0.42915 0.0225 0.73785 0.0
C1680 C 0.42997 0.04162 0.71806 0.0
C1681 C 0.42453 0.058 0.71269 0.0
C1682 C 0.39264 0.04294 0.76811 0.0
C1683 C 0.41381 0.04478 0.74421 0.0
C1684 C 0.3891 0.03907 0.7852 0.0
C1685 C 0.40169 0.03133 0.79556 0.0
C1686 C 0.40866 0.03862 0.76124 0.0
C1687 C 0.4171 0.0261 0.78772 0.0
C1688 C 0.42482 0.0351 0.73388 0.0
C1689 C 0.41377 0.0674 0.72371 0.0
N1690 N 0.42022 0.02999 0.77105 0.0
N1691 N 0.40868 0.06061 0.73892 0.0
H1692 H 0.94697 0.42754 0.78165 0.0
H1693 H 0.8831 0.48688 0.72764 0.0
H1694 H 0.89566 0.44045 0.79816 0.0
H1695 H 0.93604 0.47824 0.71389 0.0
H1696 H 0.88786 0.4712 0.7544 0.0
H1697 H 0.94338 0.44656 0.75697 0.0
C1698 C 0.93493 0.4343 0.78005 0.0
C1699 C 0.92156 0.43228 0.79196 0.0
C1700 C 0.89851 0.47296 0.74564 0.0
C1701 C 0.9174 0.45415 0.7638 0.0
C1702 C 0.8958 0.48198 0.73042 0.0
C1703 C 0.90916 0.48381 0.7185 0.0
C1704 C 0.91464 0.46557 0.74886 0.0
C1705 C 0.92541 0.47728 0.72277 0.0
C1706 C 0.9329 0.4452 0.76599 0.0
C1707 C 0.90619 0.44129 0.78915 0.0
N1708 N 0.92763 0.46825 0.7375 0.0
N1709 N 0.90455 0.45182 0.77538 0.0
H1710 H 0.57825 0.91421 0.80075 0.0
H1711 H 0.53131 0.93528 0.71225 0.0
H1712 H 0.56868 0.9657 0.78254 0.0
H1713 H 0.54473 0.88399 0.7284 0.0
H1714 H 0.54239 0.9464 0.73923 0.0
H1715 H 0.56491 0.90287 0.77495 0.0
C1716 C 0.57365 0.92317 0.79117 0.0
C1717 C 0.57475 0.94098 0.79377 0.0
C1718 C 0.54276 0.9327 0.73697 0.0
C1719 C 0.55889 0.92797 0.76439 0.0
C1720 C 0.53619 0.92628 0.72165 0.0
C1721 C 0.53712 0.90864 0.71803 0.0
C1722 C 0.55036 0.92142 0.74876 0.0
C1723 C 0.54394 0.89768 0.73058 0.0
C1724 C 0.5658 0.91665 0.77653 0.0
C1725 C 0.56804 0.95189 0.78112 0.0
N1726 N 0.55043 0.90428 0.74534 0.0
N1727 N 0.56036 0.94521 0.76697 0.0
H1728 H 0.21799 0.04721 0.37785 0.0
H1729 H 0.288 0.03962 0.44886 0.0
H1730 H 0.20359 0.02588 0.42712 0.0
H1731 H 0.27796 0.08861 0.42459 0.0
H1732 H 0.261 0.02888 0.43729 0.0
H1733 H 0.24526 0.05624 0.39036 0.0
C1734 C 0.22048 0.04425 0.39119 0.0
C1735 C 0.2081 0.03606 0.40147 0.0
C1736 C 0.26484 0.04198 0.43461 0.0
C1737 C 0.23955 0.04582 0.41549 0.0
C1738 C 0.28012 0.04829 0.44139 0.0
C1739 C 0.28554 0.06513 0.43767 0.0
C1740 C 0.25518 0.05236 0.42364 0.0
C1741 C 0.27476 0.07541 0.42745 0.0
C1742 C 0.23608 0.04938 0.39824 0.0
C1743 C 0.21259 0.032 0.41852 0.0
N1744 N 0.26023 0.06876 0.42056 0.0
N1745 N 0.22796 0.03697 0.42501 0.0
H1746 H 0.97486 0.22639 0.42853 0.0
H1747 H 0.89776 0.26535 0.48415 0.0
H1748 H 0.92203 0.21021 0.42441 0.0
H1749 H 0.94806 0.28845 0.48136 0.0
H1750 H 0.90789 0.24207 0.46575 0.0
H1751 H 0.96631 0.24727 0.45045 0.0
C1752 C 0.96145 0.22739 0.43208 0.0
C1753 C 0.94911 0.2167 0.42449 0.0
C1754 C 0.91676 0.25213 0.46938 0.0
C1755 C 0.93934 0.24018 0.44976 0.0
C1756 C 0.91102 0.26535 0.47998 0.0
C1757 C 0.92198 0.279 0.48415 0.0
C1758 C 0.9336 0.25257 0.46293 0.0
C1759 C 0.93913 0.27818 0.47858 0.0
C1760 C 0.9566 0.23921 0.44464 0.0
C1761 C 0.93193 0.21845 0.42962 0.0
N1762 N 0.94434 0.26532 0.46806 0.0
N1763 N 0.92757 0.22989 0.44198 0.0
H1764 H 0.77504 0.94263 0.39107 0.0
H1765 H 0.71241 0.94837 0.46815 0.0
H1766 H 0.79163 0.97056 0.43615 0.0
H1767 H 0.72537 0.89879 0.44666 0.0
H1768 H 0.73744 0.96056 0.45399 0.0
H1769 H 0.75135 0.93078 0.40779 0.0
C1770 C 0.77376 0.94641 0.40437 0.0
C1771 C 0.78572 0.95746 0.41218 0.0
C1772 C 0.73476 0.94699 0.45256 0.0
C1773 C 0.75826 0.9443 0.43108 0.0
C1774 C 0.72059 0.93987 0.46083 0.0
C1775 C 0.71641 0.92243 0.45849 0.0
C1776 C 0.74451 0.93678 0.44152 0.0
C1777 C 0.72756 0.91238 0.44844 0.0
C1778 C 0.76021 0.93962 0.41385 0.0
C1779 C 0.78278 0.9623 0.42937 0.0
N1780 N 0.74089 0.91978 0.44001 0.0
N1781 N 0.76933 0.9557 0.43824 0.0
H1782 H 0.02171 0.7795 0.41441 0.0
H1783 H 0.08398 0.70648 0.39086 0.0
H1784 H 0.04166 0.77676 0.36264 0.0
H1785 H 0.03659 0.6936 0.41684 0.0
H1786 H 0.07168 0.73428 0.38332 0.0
H1787 H 0.02913 0.74943 0.4184 0.0
C1788 C 0.02728 0.77262 0.40371 0.0
C1789 C 0.0313 0.78099 0.38821 0.0
C1790 C 0.06406 0.72523 0.39062 0.0
C1791 C 0.04051 0.74673 0.39318 0.0
C1792 C 0.07101 0.70931 0.39493 0.0
C1793 C 0.06141 0.69749 0.40462 0.0
C1794 C 0.04759 0.72955 0.39639 0.0
C1795 C 0.04477 0.70232 0.4098 0.0
C1796 C 0.03165 0.75546 0.40612 0.0
C1797 C 0.03885 0.77119 0.37504 0.0
N1798 N 0.03848 0.71806 0.40581 0.0
N1799 N 0.04359 0.75468 0.37796 0.0
H1800 H 0.29118 0.89235 0.55744 0.0
H1801 H 0.20461 0.93886 0.52876 0.0
H1802 H 0.27917 0.90406 0.50458 0.0
H1803 H 0.21865 0.92906 0.58147 0.0
H1804 H 0.23157 0.92597 0.51947 0.0
H1805 H 0.26371 0.90409 0.56606 0.0
C1806 C 0.2826 0.897 0.54754 0.0
C1807 C 0.28753 0.89712 0.5302 0.0
C1808 C 0.2288 0.92672 0.53307 0.0
C1809 C 0.25614 0.91127 0.54018 0.0
C1810 C 0.2135 0.93429 0.53841 0.0
C1811 C 0.20938 0.93508 0.55595 0.0
C1812 C 0.24003 0.91985 0.54534 0.0
C1813 C 0.22122 0.92857 0.56783 0.0
C1814 C 0.26698 0.90398 0.55255 0.0
C1815 C 0.27598 0.90383 0.5181 0.0
N1816 N 0.23598 0.92118 0.5623 0.0
N1817 N 0.26084 0.91074 0.52334 0.0
H1818 H 0.02841 0.21569 0.56587 0.0
H1819 H 0.08574 0.28849 0.59999 0.0
H1820 H 0.05606 0.20922 0.61355 0.0
H1821 H 0.03662 0.30067 0.57719 0.0
H1822 H 0.07608 0.25903 0.60404 0.0
H1823 H 0.03124 0.24665 0.56887 0.0
C1824 C 0.03471 0.2207 0.5772 0.0
C1825 C 0.04237 0.2097 0.58927 0.0
C1826 C 0.06739 0.26827 0.59834 0.0
C1827 C 0.04615 0.24513 0.59234 0.0
C1828 C 0.07287 0.28512 0.59602 0.0
C1829 C 0.06208 0.29716 0.58804 0.0
C1830 C 0.05118 0.26332 0.59232 0.0
C1831 C 0.04562 0.29178 0.58292 0.0
C1832 C 0.03641 0.23841 0.57881 0.0
C1833 C 0.05053 0.21712 0.60356 0.0
N1834 N 0.04077 0.27518 0.58489 0.0
N1835 N 0.05258 0.23438 0.60449 0.0
H1836 H 0.79096 0.05529 0.54832 0.0
H1837 H 0.70316 0.08318 0.5928 0.0
H1838 H 0.78591 0.06355 0.60286 0.0
H1839 H 0.71123 0.08356 0.53795 0.0
H1840 H 0.73326 0.07582 0.59688 0.0
H1841 H 0.76126 0.06429 0.54447 0.0
C1842 C 0.78351 0.05877 0.55953 0.0
C1843 C 0.79087 0.05858 0.57596 0.0
C1844 C 0.72848 0.07765 0.58396 0.0
C1845 C 0.75696 0.06925 0.57159 0.0
C1846 C 0.71131 0.08203 0.5816 0.0
C1847 C 0.70461 0.08396 0.56498 0.0
C1848 C 0.73901 0.07503 0.5696 0.0
C1849 C 0.71576 0.08193 0.55098 0.0
C1850 C 0.76662 0.06411 0.55729 0.0
C1851 C 0.78074 0.0636 0.58997 0.0
N1852 N 0.73238 0.07746 0.55361 0.0
N1853 N 0.76427 0.06871 0.58747 0.0
H1854 H 0.9428 0.70796 0.50289 0.0
H1855 H 0.91277 0.79368 0.54969 0.0
H1856 H 0.89042 0.72607 0.50331 0.0
H1857 H 0.96585 0.77834 0.54542 0.0
H1858 H 0.90454 0.76917 0.53219 0.0
H1859 H 0.95185 0.73468 0.51629 0.0
C1860 C 0.93323 0.71776 0.50532 0.0
C1861 C 0.91576 0.71468 0.50211 0.0
C1862 C 0.91799 0.77112 0.53509 0.0
C1863 C 0.92603 0.74506 0.51806 0.0
C1864 C 0.92269 0.78496 0.54533 0.0
C1865 C 0.94003 0.78796 0.54919 0.0
C1866 C 0.9307 0.76011 0.52865 0.0
C1867 C 0.95234 0.77652 0.54273 0.0
C1868 C 0.93841 0.73293 0.51322 0.0
C1869 C 0.90397 0.72777 0.50584 0.0
N1870 N 0.94743 0.76306 0.5328 0.0
N1871 N 0.90929 0.7423 0.51384 0.0
H1872 H 0.43678 0.2254 0.02999 0.0
H1873 H 0.48423 0.27452 0.10645 0.0
H1874 H 0.43604 0.20887 0.08288 0.0
H1875 H 0.48372 0.29232 0.05398 0.0
H1876 H 0.47017 0.24806 0.0972 0.0
H1877 H 0.45646 0.24854 0.03791 0.0
C1878 C 0.44065 0.22672 0.04327 0.0
C1879 C 0.43458 0.21534 0.05582 0.0
C1880 C 0.47341 0.25764 0.08766 0.0
C1881 C 0.45725 0.24155 0.06494 0.0
C1882 C 0.48155 0.27267 0.09293 0.0
C1883 C 0.48493 0.28573 0.08102 0.0
C1884 C 0.46856 0.25575 0.0704 0.0
C1885 C 0.48139 0.2826 0.06362 0.0
C1886 C 0.45195 0.23986 0.04778 0.0
C1887 C 0.44004 0.21761 0.07285 0.0
N1888 N 0.47311 0.26805 0.05887 0.0
N1889 N 0.45106 0.23044 0.07689 0.0
H1890 H 0.42178 0.70428 0.8937 0.0
H1891 H 0.44299 0.77885 0.95736 0.0
H1892 H 0.44926 0.69331 0.94074 0.0
H1893 H 0.39144 0.77269 0.9376 0.0
H1894 H 0.44985 0.7501 0.94718 0.0
H1895 H 0.41528 0.73286 0.90479 0.0
C1896 C 0.42653 0.70775 0.90627 0.0
C1897 C 0.43596 0.69607 0.91631 0.0
C1898 C 0.43705 0.75515 0.94517 0.0
C1899 C 0.429 0.72899 0.92867 0.0
C1900 C 0.43298 0.77149 0.95116 0.0
C1901 C 0.41655 0.77846 0.94834 0.0
C1902 C 0.42481 0.74588 0.93588 0.0
C1903 C 0.4044 0.76823 0.93972 0.0
C1904 C 0.42283 0.7241 0.91252 0.0
C1905 C 0.4422 0.70177 0.9323 0.0
N1906 N 0.40886 0.75255 0.93358 0.0
N1907 N 0.43865 0.71784 0.93795 0.0
H1908 H 0.28172 0.4103 0.89046 0.0
H1909 H 0.20503 0.40051 0.95806 0.0
H1910 H 0.28657 0.42155 0.94447 0.0
H1911 H 0.19751 0.4004 0.90313 0.0
H1912 H 0.23573 0.40474 0.95346 0.0
H1913 H 0.25139 0.40339 0.895 0.0
C1914 C 0.27639 0.41131 0.90326 0.0
C1915 C 0.2866 0.41662 0.91709 0.0
C1916 C 0.22735 0.40369 0.94242 0.0
C1917 C 0.25208 0.40865 0.9224 0.0
C1918 C 0.20982 0.4013 0.94504 0.0
C1919 C 0.19863 0.40021 0.93097 0.0
C1920 C 0.23376 0.40495 0.92562 0.0
C1921 C 0.20564 0.40098 0.91438 0.0
C1922 C 0.2591 0.4074 0.90584 0.0
C1923 C 0.27906 0.41779 0.9334 0.0
N1924 N 0.22275 0.40339 0.91216 0.0
N1925 N 0.26227 0.4138 0.93562 0.0
H1926 H 0.59624 0.3055 0.9182 0.0
H1927 H 0.55199 0.21726 0.94575 0.0
H1928 H 0.54168 0.29624 0.91507 0.0
H1929 H 0.60686 0.22445 0.94322 0.0
H1930 H 0.54795 0.2467 0.93591 0.0
H1931 H 0.60042 0.27597 0.92754 0.0
C1932 C 0.58515 0.29718 0.91917 0.0
C1933 C 0.56856 0.30339 0.91584 0.0
C1934 C 0.56088 0.24187 0.93756 0.0
C1935 C 0.57325 0.26966 0.92703 0.0
C1936 C 0.5632 0.22514 0.94339 0.0
C1937 C 0.57979 0.21842 0.94534 0.0
C1938 C 0.57526 0.252 0.93369 0.0
C1939 C 0.59384 0.22908 0.94174 0.0
C1940 C 0.58754 0.28035 0.92471 0.0
C1941 C 0.55467 0.29209 0.91772 0.0
N1942 N 0.59126 0.24535 0.93606 0.0
N1943 N 0.55732 0.27579 0.92327 0.0
H1944 H 0.78323 0.624 0.97816 0.0
H1945 H 0.70233 0.56421 0.96155 0.0
H1946 H 0.78299 0.57011 0.99136 0.0
H1947 H 0.71832 0.60418 0.92649 0.0
H1948 H 0.72764 0.56989 0.979 0.0
H1949 H 0.75418 0.62087 0.96672 0.0
C1950 C 0.77701 0.6116 0.979 0.0
C1951 C 0.78586 0.59717 0.98524 0.0
C1952 C 0.72548 0.57743 0.96751 0.0
C1953 C 0.75259 0.59371 0.97255 0.0
C1954 C 0.71118 0.57405 0.95734 0.0
C1955 C 0.7082 0.58354 0.94226 0.0
C1956 C 0.7367 0.59063 0.96283 0.0
C1957 C 0.7199 0.5966 0.93801 0.0
C1958 C 0.76046 0.60987 0.97245 0.0
C1959 C 0.77683 0.5816 0.9866 0.0
N1960 N 0.73363 0.59977 0.94827 0.0
N1961 N 0.76075 0.58023 0.98006 0.0
H1962 H 0.56031 0.77604 0.02726 0.0
H1963 H 0.51236 0.72679 0.10358 0.0
H1964 H 0.56287 0.79095 0.08057 0.0
H1965 H 0.5146 0.70799 0.05149 0.0
H1966 H 0.52706 0.75291 0.09434 0.0
H1967 H 0.54081 0.75269 0.03515 0.0
C1968 C 0.5569 0.7743 0.04062 0.0
C1969 C 0.5634 0.78532 0.05329 0.0
C1970 C 0.52409 0.74316 0.08489 0.0
C1971 C 0.5409 0.75891 0.06237 0.0
C1972 C 0.5156 0.72832 0.09014 0.0
C1973 C 0.51244 0.71508 0.07836 0.0
C1974 C 0.52949 0.74474 0.06776 0.0
C1975 C 0.51669 0.71785 0.06105 0.0
C1976 C 0.54571 0.76105 0.04511 0.0
C1977 C 0.55851 0.78252 0.07042 0.0
N1978 N 0.52524 0.73226 0.05632 0.0
N1979 N 0.54754 0.76963 0.07443 0.0
H1980 H 0.26703 0.54303 0.09153 0.0
H1981 H 0.20732 0.5431 0.01336 0.0
H1982 H 0.28543 0.5159 0.04664 0.0
H1983 H 0.22525 0.5918 0.03326 0.0
H1984 H 0.23121 0.52897 0.02761 0.0
H1985 H 0.24523 0.55669 0.07365 0.0
C1986 C 0.26653 0.53978 0.07805 0.0
C1987 C 0.27849 0.52846 0.07066 0.0
C1988 C 0.22989 0.54278 0.02862 0.0
C1989 C 0.25316 0.54367 0.05041 0.0
C1990 C 0.21638 0.55101 0.02029 0.0
C1991 C 0.21382 0.56881 0.02231 0.0
C1992 C 0.24059 0.55228 0.0394 0.0
C1993 C 0.22611 0.57803 0.03182 0.0
C1994 C 0.25406 0.54761 0.0679 0.0
C1995 C 0.27653 0.52435 0.05313 0.0
N1996 N 0.23869 0.56959 0.04041 0.0
N1997 N 0.26409 0.53195 0.0436 0.0
H1998 H 0.78691 0.40603 0.0867 0.0
H1999 H 0.72251 0.47869 0.0645 0.0
H2000 H 0.80416 0.44927 0.05635 0.0
H2001 H 0.72691 0.46109 0.11702 0.0
H2002 H 0.74994 0.46524 0.05815 0.0
H2003 H 0.76142 0.42248 0.09461 0.0
C2004 C 0.78546 0.41887 0.08164 0.0
C2005 C 0.79792 0.42614 0.07078 0.0
C2006 C 0.74486 0.4645 0.07108 0.0
C2007 C 0.7685 0.44473 0.07949 0.0
C2008 C 0.72927 0.47237 0.07485 0.0
C2009 C 0.72204 0.47093 0.09135 0.0
C2010 C 0.75308 0.45473 0.0837 0.0
C2011 C 0.73152 0.46212 0.10397 0.0
C2012 C 0.77087 0.42821 0.08618 0.0
C2013 C 0.79488 0.44279 0.06437 0.0
N2014 N 0.74639 0.45404 0.09979 0.0
N2015 N 0.78042 0.45145 0.06872 0.0
H2016 H -0.00205 0.53586 0.12088 0.0
H2017 H 0.05404 0.46671 0.16846 0.0
H2018 H 0.98796 0.52024 0.17309 0.0
H2019 H 0.03905 0.45668 0.1161 0.0
H2020 H 0.03422 0.49091 0.16923 0.0
H2021 H 0.01712 0.5108 0.11759 0.0
C2022 C -0.00026 0.52716 0.13158 0.0
C2023 C 0.99135 0.53008 0.14727 0.0
C2024 C 0.03529 0.48343 0.15756 0.0
C2025 C 0.01329 0.50192 0.1437 0.0
C2026 C 0.04664 0.46968 0.15706 0.0
C2027 C 0.04814 0.45968 0.14219 0.0
C2028 C 0.0256 0.48752 0.14298 0.0
C2029 C 0.03814 0.46406 0.12784 0.0
C2030 C 0.01056 0.5129 0.12967 0.0
C2031 C 0.99407 0.51845 0.16074 0.0
N2032 N 0.02733 0.47782 0.12851 0.0
N2033 N 0.00495 0.50503 0.15871 0.0
H2034 H 0.52246 0.04399 0.16171 0.0
H2035 H 0.46355 0.97749 0.11142 0.0
H2036 H 0.54223 0.01868 0.11654 0.0
H2037 H 0.4641 0.98299 0.16648 0.0
H2038 H 0.48858 0.99703 0.10971 0.0
H2039 H 0.49674 0.02646 0.15999 0.0
C2040 C 0.52138 0.03482 0.15132 0.0
C2041 C 0.53466 0.03272 0.13934 0.0
C2042 C 0.48311 0.99392 0.1221 0.0
C2043 C 0.50496 0.0126 0.13727 0.0
C2044 C 0.46883 0.98293 0.12306 0.0
C2045 C 0.46188 0.97862 0.13911 0.0
C2046 C 0.48998 0.0009 0.13726 0.0
C2047 C 0.46918 0.98587 0.15387 0.0
C2048 C 0.50666 0.02478 0.15039 0.0
C2049 C 0.53237 0.02061 0.12613 0.0
N2050 N 0.48272 0.99671 0.15257 0.0
N2051 N 0.51776 0.01096 0.12544 0.0
H2052 H 0.95586 0.45968 0.88498 0.0
H2053 H 0.01453 0.51544 0.82329 0.0
H2054 H 0.946 0.4654 0.83079 0.0
H2055 H 0.00201 0.53482 0.87366 0.0
H2056 H 0.99463 0.49169 0.82782 0.0
H2057 H 0.97779 0.48255 0.88288 0.0
C2058 C 0.95835 0.4657 0.8727 0.0
C2059 C 0.94905 0.46083 0.85807 0.0
C2060 C 0.99635 0.50109 0.83791 0.0
C2061 C 0.97411 0.48635 0.85554 0.0
C2062 C 0.00774 0.51462 0.83539 0.0
C2063 C 0.00984 0.5272 0.84807 0.0
C2064 C 0.98719 0.4999 0.85336 0.0
C2065 C 0.00063 0.52545 0.8635 0.0
C2066 C 0.97075 0.47872 0.87153 0.0
C2067 C 0.95273 0.46895 0.84243 0.0
N2068 N 0.98969 0.51199 0.86575 0.0
N2069 N 0.96505 0.48118 0.84155 0.0
H2070 H 0.51907 0.95319 0.84452 0.0
H2071 H 0.4605 0.02149 0.89228 0.0
H2072 H 0.54015 0.98173 0.8871 0.0
H2073 H 0.46037 0.0137 0.83748 0.0
H2074 H 0.48595 0.00256 0.89442 0.0
H2075 H 0.49324 0.97055 0.84596 0.0
C2076 C 0.51826 0.96303 0.85429 0.0
C2077 C 0.53194 0.9661 0.8656 0.0
C2078 C 0.48024 0.00505 0.882 0.0
C2079 C 0.5021 0.98601 0.86735 0.0
C2080 C 0.46573 0.01569 0.88078 0.0
C2081 C 0.45843 0.01915 0.86467 0.0
C2082 C 0.487 -0.00246 0.86705 0.0
C2083 C 0.46569 0.01146 0.85013 0.0
C2084 C 0.50347 0.97297 0.85505 0.0
C2085 C 0.52996 0.97904 0.87804 0.0
N2086 N 0.47945 0.00095 0.85168 0.0
N2087 N 0.51527 0.98858 0.8786 0.0
H2088 H 0.16426 0.02546 0.45195 0.0
H2089 H 0.11189 0.97395 0.52091 0.0
H2090 H 0.10999 0.01858 0.44323 0.0
H2091 H 0.16094 0.95656 0.50196 0.0
H2092 H 0.11039 0.99448 0.49679 0.0
H2093 H 0.16291 0.00469 0.47528 0.0
C2094 C 0.15198 0.01971 0.45506 0.0
C2095 C 0.13718 0.02378 0.44565 0.0
C2096 C 0.12135 0.98601 0.49794 0.0
C2097 C 0.13561 5e-05 0.47251 0.0
C2098 C 0.12226 0.9744 0.51167 0.0
C2099 C 0.13656 0.96354 0.51342 0.0
C2100 C 0.13505 0.98702 0.4863 0.0
C2101 C 0.14965 0.9646 0.5011 0.0
C2102 C 0.15128 0.00778 0.46831 0.0
C2103 C 0.12168 0.01575 0.45018 0.0
N2104 N 0.14868 0.97628 0.48823 0.0
N2105 N 0.12124 0.0043 0.46345 0.0
H2106 H 0.02111 0.17349 0.52123 0.0
H2107 H 0.98287 0.12358 0.44236 0.0
H2108 H 0.02827 0.11867 0.51859 0.0
H2109 H 0.95649 0.16571 0.4669 0.0
H2110 H 0.00222 0.12182 0.46738 0.0
H2111 H 0.0002 0.17166 0.49804 0.0
C2112 C 0.01826 0.16104 0.51573 0.0
C2113 C 0.02638 0.1462 0.5218 0.0
C2114 C 0.99202 0.13126 0.46725 0.0
C2115 C 0.00261 0.14405 0.49507 0.0
C2116 C 0.98103 0.13231 0.45302 0.0
C2117 C 0.9681 0.14488 0.45246 0.0
C2118 C 0.99021 0.1431 0.48072 0.0
C2119 C 0.96628 0.15586 0.46664 0.0
C2120 C 0.00627 0.16 0.50256 0.0
C2121 C 0.02215 0.13038 0.51428 0.0
N2122 N 0.97733 0.15486 0.48003 0.0
N2123 N 0.01065 0.12971 0.50109 0.0
H2124 H 0.88554 0.02493 0.526 0.0
H2125 H 0.82881 0.97881 0.45583 0.0
H2126 H 0.8338 0.04059 0.51395 0.0
H2127 H 0.88276 0.98633 0.4459 0.0
H2128 H 0.83108 0.99723 0.48096 0.0
H2129 H 0.88556 0.00673 0.50003 0.0
C2130 C 0.87423 0.02453 0.51793 0.0
C2131 C 0.85965 0.03426 0.52212 0.0
C2132 C 0.84244 0.99487 0.4733 0.0
C2133 C 0.85953 0.01349 0.49283 0.0
C2134 C 0.84119 0.98429 0.45899 0.0
C2135 C 0.85563 0.98106 0.44877 0.0
C2136 C 0.85832 0.00206 0.47771 0.0
C2137 C 0.87132 0.98862 0.45343 0.0
C2138 C 0.8743 0.01427 0.50313 0.0
C2139 C 0.84535 0.03337 0.51121 0.0
N2140 N 0.87232 -0.00129 0.46772 0.0
N2141 N 0.8456 0.02305 0.49721 0.0
H2142 H 0.95147 0.83476 0.50506 0.0
H2143 H 0.01368 0.88097 0.44053 0.0
H2144 H 0.97369 0.88293 0.52109 0.0
H2145 H 0.01725 0.8269 0.45196 0.0
H2146 H 0.99455 0.88451 0.46561 0.0
H2147 H 0.97059 0.83439 0.48043 0.0
C2148 C 0.96024 0.84541 0.50332 0.0
C2149 C 0.96098 0.85892 0.51522 0.0
C2150 C -0.00033 0.87195 0.46257 0.0
C2151 C 0.98287 0.85852 0.48679 0.0
C2152 C 0.01045 0.8699 0.44828 0.0
C2153 C 0.01705 0.85361 0.4442 0.0
C2154 C 0.99517 0.85753 0.47238 0.0
C2155 C 0.01254 0.83968 0.45466 0.0
C2156 C 0.9712 0.8451 0.48928 0.0
C2157 C 0.97276 0.87226 0.51225 0.0
N2158 N 0.00173 0.84193 0.46811 0.0
N2159 N 0.98326 0.8718 0.49821 0.0
H2160 H 0.51881 0.1691 0.96149 0.0
H2161 H 0.4589 0.11748 0.02403 0.0
H2162 H 0.5365 0.11942 0.97851 0.0
H2163 H 0.47253 0.17034 0.03335 0.0
H2164 H 0.48196 0.1159 0.00225 0.0
H2165 H 0.49556 0.16766 0.98244 0.0
C2166 C 0.51768 0.15777 0.96947 0.0
C2167 C 0.52964 0.14437 0.96831 0.0
C2168 C 0.47985 0.12774 0.00921 0.0
C2169 C 0.50291 0.14263 0.99211 0.0
C2170 C 0.46674 0.12867 0.02152 0.0
C2171 C 0.46394 0.14402 0.03055 0.0
C2172 C 0.48966 0.14243 0.00563 0.0
C2173 C 0.47438 0.1582 0.02683 0.0
C2174 C 0.50446 0.15702 0.98145 0.0
C2175 C 0.52757 0.13005 0.9791 0.0
N2176 N 0.48661 0.15713 0.01452 0.0
N2177 N 0.51436 0.1295 0.99057 0.0
H2178 H 0.47446 0.82681 0.96738 0.0
H2179 H 0.53638 0.88215 0.02478 0.0
H2180 H 0.4578 0.87769 0.98163 0.0
H2181 H 0.5242 0.82943 0.03663 0.0
H2182 H 0.51236 0.88249 0.00401 0.0
H2183 H 0.49832 0.82929 0.98751 0.0
C2184 C 0.47592 0.83859 0.97461 0.0
C2185 C 0.4641 0.85205 0.97289 0.0
C2186 C 0.515 0.87096 0.01131 0.0
C2187 C 0.49153 0.85499 0.99576 0.0
C2188 C 0.52865 0.87073 0.02306 0.0
C2189 C 0.53216 0.85579 0.0325 0.0
C2190 C 0.50532 0.85597 0.00871 0.0
C2191 C 0.52183 0.84129 0.02978 0.0
C2192 C 0.48949 0.83994 0.98613 0.0
C2193 C 0.46661 0.86699 0.98269 0.0
N2194 N 0.50905 0.84168 0.018 0.0
N2195 N 0.48016 0.86813 0.9937 0.0
H2196 H 0.1048 0.4553 0.96095 0.0
H2197 H 0.16636 0.51829 0.0113 0.0
H2198 H 0.15795 0.46308 0.94749 0.0
H2199 H 0.11446 0.53467 0.00087 0.0
H2200 H 0.1619 0.49336 0.99304 0.0
H2201 H 0.10657 0.48038 0.98035 0.0
C2202 C 0.11678 0.46224 0.96209 0.0
C2203 C 0.13123 0.45717 0.95257 0.0
C2204 C 0.15146 0.50237 0.99481 0.0
C2205 C 0.13339 0.48533 0.97475 0.0
C2206 C 0.15394 0.51658 0.00529 0.0
C2207 C 0.14077 0.52864 0.00758 0.0
C2208 C 0.1356 0.49992 0.9867 0.0
C2209 C 0.12497 0.52571 -0.00064 0.0
C2210 C 0.11775 0.47653 0.97304 0.0
C2211 C 0.14645 0.46659 0.95446 0.0
N2212 N 0.12277 0.51155 0.98928 0.0
N2213 N 0.14717 0.48006 0.96543 0.0
H2214 H 0.82812 0.52676 0.99734 0.0
H2215 H 0.89057 0.45688 0.03663 0.0
H2216 H 0.88261 0.5367 -0.00258 0.0
H2217 H 0.84074 0.46903 0.05758 0.0
H2218 H 0.88842 0.48261 0.01811 0.0
H2219 H 0.83292 0.50155 0.01507 0.0
C2220 C 0.84114 0.52362 0.00104 0.0
C2221 C 0.85499 0.53391 0.99594 0.0
C2222 C 0.87809 0.47958 0.02689 0.0
C2223 C 0.86057 0.50481 0.01621 0.0
C2224 C 0.87926 0.46492 0.03736 0.0
C2225 C 0.86585 0.46084 0.04871 0.0
C2226 C 0.86324 0.4898 0.02757 0.0
C2227 C 0.85147 0.47168 0.04916 0.0
C2228 C 0.84386 0.50923 0.01122 0.0
C2229 C 0.87158 0.52915 0.00121 0.0
N2230 N 0.8505 0.4855 0.03868 0.0
N2231 N 0.87397 0.51482 0.01102 0.0
H2232 H 0.44976 0.01084 0.66894 0.0
H2233 H 0.51107 0.94755 0.61951 0.0
H2234 H 0.46539 0.02423 0.61751 0.0
H2235 H 0.51857 0.96085 0.67275 0.0
H2236 H 0.49041 0.97148 0.61695 0.0
H2237 H 0.47078 0.98768 0.66904 0.0
C2238 C 0.45754 0.00882 0.65759 0.0
C2239 C 0.45586 0.01947 0.64319 0.0
C2240 C 0.49673 0.96912 0.6291 0.0
C2241 C 0.47982 0.99283 0.64322 0.0
C2242 C 0.5084 0.95549 0.6306 0.0
C2243 C 0.51654 0.95226 0.64636 0.0
C2244 C 0.49293 0.97913 0.64359 0.0
C2245 C 0.51268 0.96292 0.66034 0.0
C2246 C 0.46958 0.99566 0.65771 0.0
C2247 C 0.46639 0.01632 0.62889 0.0
N2248 N 0.50102 0.97572 0.65868 0.0
N2249 N 0.47791 0.00313 0.62919 0.0
H2250 H 0.94122 0.52063 0.62508 0.0
H2251 H 0.04317 0.53106 0.61676 0.0
H2252 H 0.97729 0.48343 0.64464 0.0
H2253 H 0.00822 0.57391 0.61858 0.0
H2254 H 0.01863 0.51142 0.61921 0.0
H2255 H 0.96535 0.53827 0.61519 0.0
C2256 C 0.95419 0.51608 0.62712 0.0
C2257 C 0.95727 0.50065 0.63588 0.0
C2258 C 0.01635 0.52512 0.61875 0.0
C2259 C 0.98485 0.52062 0.62444 0.0
C2260 C 0.03032 0.53631 0.61718 0.0
C2261 C 0.02767 0.5541 0.61753 0.0
C2262 C -0.00032 0.53183 0.62039 0.0
C2263 C 0.01077 0.56025 0.61837 0.0
C2264 C 0.96794 0.52616 0.62151 0.0
C2265 C 0.97435 0.49537 0.63816 0.0
N2266 N -0.00259 0.54915 0.61984 0.0
N2267 N 0.98751 0.50535 0.63251 0.0
H2268 H 0.50312 0.94778 0.37123 0.0
H2269 H 0.51313 0.04994 0.3763 0.0
H2270 H 0.46279 0.98302 0.35715 0.0
H2271 H 0.55558 0.01561 0.36712 0.0
H2272 H 0.49379 0.02508 0.37756 0.0
H2273 H 0.52165 0.97233 0.37807 0.0
C2274 C 0.49806 0.96066 0.36991 0.0
C2275 C 0.48148 0.96342 0.36346 0.0
C2276 C 0.50739 0.02302 0.3755 0.0
C2277 C 0.50249 0.99141 0.37131 0.0
C2278 C 0.51841 0.03716 0.37487 0.0
C2279 C 0.53592 0.03479 0.37141 0.0
C2280 C 0.514 0.00644 0.37297 0.0
C2281 C 0.54211 0.01797 0.36959 0.0
C2282 C 0.50865 0.97463 0.37371 0.0
C2283 C 0.47558 0.98037 0.36191 0.0
N2284 N 0.53116 0.00443 0.37034 0.0
N2285 N 0.4861 0.99374 0.36574 0.0
H2286 H 0.02945 0.44587 0.39483 0.0
H2287 H 0.97438 0.50469 0.33268 0.0
H2288 H 0.03055 0.44138 0.33969 0.0
H2289 H 0.95078 0.4848 0.37873 0.0
H2290 H -0.00029 0.48739 0.3385 0.0
H2291 H 0.00471 0.46567 0.39225 0.0
C2292 C 0.02458 0.44919 0.38224 0.0
C2293 C 0.03191 0.44202 0.36743 0.0
C2294 C 0.98903 0.48691 0.3474 0.0
C2295 C 0.00421 0.46459 0.36444 0.0
C2296 C 0.97455 0.49681 0.34414 0.0
C2297 C 0.96032 0.49608 0.35515 0.0
C2298 C 0.98952 0.47634 0.36193 0.0
C2299 C 0.96142 0.48562 0.36983 0.0
C2300 C 0.01048 0.46032 0.3808 0.0
C2301 C 0.02515 0.44656 0.35141 0.0
N2302 N 0.97582 0.4761 0.37282 0.0
N2303 N 0.01179 0.45765 0.35033 0.0
H2304 H 0.67127 0.5552 0.97371 0.0
H2305 H 0.62412 0.50176 0.04511 0.0
H2306 H 0.61722 0.54466 0.96805 0.0
H2307 H 0.6753 0.48927 0.02797 0.0
H2308 H 0.6208 0.52069 0.01998 0.0
H2309 H 0.67268 0.53434 0.99702 0.0
C2310 C 0.65966 0.5485 0.97744 0.0
C2311 C 0.64408 0.55165 0.96903 0.0
C2312 C 0.63266 0.51364 0.02173 0.0
C2313 C 0.64559 0.52794 0.99583 0.0
C2314 C 0.63461 0.50296 0.03605 0.0
C2315 C 0.65003 0.49397 0.03862 0.0
C2316 C 0.64638 0.51563 0.01024 0.0
C2317 C 0.66319 0.49591 0.02649 0.0
C2318 C 0.66051 0.53655 0.99066 0.0
C2319 C 0.62947 0.5425 0.97424 0.0
N2320 N 0.66114 0.50669 0.01296 0.0
N2321 N 0.63051 0.53115 0.98753 0.0
H2322 H 0.45721 0.59974 0.96431 0.0
H2323 H 0.51744 0.66136 0.01908 0.0
H2324 H 0.45663 0.65497 0.96095 0.0
H2325 H 0.49658 0.61572 0.04264 0.0
H2326 H 0.50093 0.65535 0.99335 0.0
H2327 H 0.4769 0.60194 0.9892 0.0
C2328 C 0.46136 0.61225 0.96871 0.0
C2329 C 0.45527 0.62721 0.96073 0.0
C2330 C 0.50004 0.64657 0.00411 0.0
C2331 C 0.47775 0.62977 0.9886 0.0
C2332 C 0.5095 0.64996 0.01885 0.0
C2333 C 0.50825 0.63916 0.03321 0.0
C2334 C 0.48931 0.63216 0.0035 0.0
C2335 C 0.49781 0.62448 0.03193 0.0
C2336 C 0.47244 0.6135 0.98289 0.0
C2337 C 0.4609 0.64314 0.96687 0.0
N2338 N 0.48864 0.62141 0.0173 0.0
N2339 N 0.47188 0.64399 0.98033 0.0
H2340 H 0.32271 0.5078 0.02612 0.0
H2341 H 0.38198 0.45465 0.96342 0.0
H2342 H 0.37525 0.49819 0.04082 0.0
H2343 H 0.32963 0.44034 0.97438 0.0
H2344 H 0.38082 0.47538 0.98742 0.0
H2345 H 0.3261 0.48802 0.0021 0.0
C2346 C 0.33503 0.50164 0.0242 0.0
C2347 C 0.34872 0.50459 0.0355 0.0
C2348 C 0.36968 0.4676 0.9845 0.0
C2349 C 0.35268 0.48208 0.0079 0.0
C2350 C 0.3703 0.45589 0.97085 0.0
C2351 C 0.3559 0.44576 0.96702 0.0
C2352 C 0.35442 0.46943 0.9939 0.0
C2353 C 0.34106 0.44779 0.97699 0.0
C2354 C 0.33691 0.49031 0.01054 0.0
C2355 C 0.36436 0.49616 0.03243 0.0
N2356 N 0.34065 0.45951 0.98984 0.0
N2357 N 0.36598 0.4853 0.0188 0.0
H2358 H 0.48385 0.33702 0.02224 0.0
H2359 H 0.53965 0.39938 0.96439 0.0
H2360 H 0.4998 0.38572 0.04338 0.0
H2361 H 0.5473 0.34461 0.96697 0.0
H2362 H 0.51971 0.39724 0.98908 0.0
H2363 H 0.50128 0.34255 0.997 0.0
C2364 C 0.49089 0.34899 0.02155 0.0
C2365 C 0.49047 0.36085 0.0351 0.0
C2366 C 0.52582 0.38578 0.98414 0.0
C2367 C 0.51043 0.36727 0.00595 0.0
C2368 C 0.53705 0.38696 0.97008 0.0
C2369 C 0.54516 0.37215 0.96377 0.0
C2370 C 0.52239 0.36962 0.9914 0.0
C2371 C 0.54146 0.35636 0.97155 0.0
C2372 C 0.50088 0.35209 0.00711 0.0
C2373 C 0.49987 0.37617 0.03329 0.0
N2374 N 0.53027 0.35551 0.98482 0.0
N2375 N 0.50954 0.37896 0.01894 0.0
H2376 H 0.94148 0.62229 0.47105 0.0
H2377 H 0.04342 0.61999 0.45803 0.0
H2378 H 0.97732 0.64206 0.50833 0.0
H2379 H 0.00747 0.62301 0.41603 0.0
H2380 H 0.01923 0.62013 0.47824 0.0
H2381 H 0.96572 0.61456 0.45243 0.0
C2382 C 0.95445 0.62472 0.47543 0.0
C2383 C 0.95744 0.63299 0.49113 0.0
C2384 C 0.01668 0.62053 0.46458 0.0
C2385 C 0.98508 0.6241 0.47006 0.0
C2386 C 0.03044 0.62035 0.45307 0.0
C2387 C 0.0274 0.62166 0.43538 0.0
C2388 C -0.00019 0.62171 0.4583 0.0
C2389 C 0.01034 0.62219 0.42961 0.0
C2390 C 0.96823 0.62039 0.46479 0.0
C2391 C 0.97448 0.6359 0.4962 0.0
N2392 N 0.99718 0.62226 0.44104 0.0
N2393 N 0.98767 0.63151 0.48567 0.0
H2394 H 0.04403 0.37591 0.53648 0.0
H2395 H 0.94258 0.37141 0.52062 0.0
H2396 H 0.0068 0.37251 0.57732 0.0
H2397 H 0.97988 0.35331 0.48389 0.0
H2398 H 0.96607 0.37955 0.5399 0.0
H2399 H 0.02049 0.37537 0.5155 0.0
C2400 C 0.0309 0.37541 0.54102 0.0
C2401 C 0.02731 0.37411 0.55861 0.0
C2402 C 0.96908 0.37398 0.52752 0.0
C2403 C 0.00048 0.37354 0.53482 0.0
C2404 C 0.9557 0.3694 0.5165 0.0
C2405 C 0.95931 0.36149 0.50072 0.0
C2406 C 0.98614 0.37086 0.52262 0.0
C2407 C 0.97655 0.35917 0.49604 0.0
C2408 C 0.01751 0.37499 0.52907 0.0
C2409 C 0.01009 0.37335 0.56384 0.0
N2410 N 0.98934 0.36378 0.50697 0.0
N2411 N 0.99731 0.37302 0.55199 0.0
H2412 H 0.60868 0.03497 0.53445 0.0
H2413 H 0.66833 0.97443 0.47926 0.0
H2414 H 0.66184 0.02571 0.54689 0.0
H2415 H 0.61688 0.95738 0.49069 0.0
H2416 H 0.66457 -0.00173 0.49915 0.0
H2417 H 0.60987 0.01091 0.51375 0.0
C2418 C 0.62054 0.02791 0.53283 0.0
C2419 C 0.63516 0.03226 0.54244 0.0
C2420 C 0.65408 0.98936 0.49724 0.0
C2421 C 0.63667 0.00528 0.51878 0.0
C2422 C 0.65616 0.97578 0.48584 0.0
C2423 C 0.64291 0.96386 0.48335 0.0
C2424 C 0.63851 0.99133 0.50602 0.0
C2425 C 0.62745 0.96625 0.49235 0.0
C2426 C 0.62118 0.0142 0.52114 0.0
C2427 C 0.65022 0.02273 0.53988 0.0
N2428 N 0.6256 0.97983 0.50327 0.0
N2429 N 0.65063 0.00985 0.52819 0.0
H2430 H 0.38414 0.9444 0.50847 0.0
H2431 H 0.33045 0.0136 0.45778 0.0
H2432 H 0.33136 0.95639 0.52029 0.0
H2433 H 0.38288 0.02573 0.47083 0.0
H2434 H 0.33199 0.98831 0.47606 0.0
H2435 H 0.38545 0.9705 0.49042 0.0
C2436 C 0.3729 0.95249 0.50732 0.0
C2437 C 0.35763 0.94821 0.51591 0.0
C2438 C 0.34319 0.99648 0.47491 0.0
C2439 C 0.35897 0.97761 0.49525 0.0
C2440 C 0.34236 0.01088 0.46442 0.0
C2441 C 0.35656 0.02181 0.46281 0.0
C2442 C 0.35842 0.99267 0.48367 0.0
C2443 C 0.37162 0.01766 0.47184 0.0
C2444 C 0.37369 0.96736 0.49713 0.0
C2445 C 0.34343 0.95915 0.51401 0.0
N2446 N 0.37223 0.00328 0.48185 0.0
N2447 N 0.3444 0.97317 0.50376 0.0
H2448 H 0.10996 0.53971 0.07271 0.0
H2449 H 0.14078 0.45465 0.12086 0.0
H2450 H 0.16224 0.53178 0.08901 0.0
H2451 H 0.08765 0.46862 0.11358 0.0
H2452 H 0.14926 0.48244 0.10882 0.0
H2453 H 0.10173 0.51315 0.08716 0.0
C2454 C 0.11968 0.53237 0.0794 0.0
C2455 C 0.1368 0.53786 0.07964 0.0
C2456 C 0.13576 0.47937 0.1099 0.0
C2457 C 0.12755 0.50745 0.09615 0.0
C2458 C 0.13091 0.46353 0.11678 0.0
C2459 C 0.11349 0.45915 0.11801 0.0
C2460 C 0.12307 0.49085 0.1042 0.0
C2461 C 0.10124 0.47116 0.11246 0.0
C2462 C 0.11499 0.51725 0.0877 0.0
C2463 C 0.14888 0.52802 0.08867 0.0
N2464 N 0.10627 0.48639 0.10575 0.0
N2465 N 0.14406 0.51318 0.09646 0.0
H2466 H 0.53763 0.11296 0.15069 0.0
H2467 H 0.47131 0.12345 0.07332 0.0
H2468 H 0.54543 0.0921 0.10003 0.0
H2469 H 0.45851 0.13615 0.12574 0.0
H2470 H 0.49947 0.1142 0.08265 0.0
H2471 H 0.50989 0.12446 0.14136 0.0
C2472 C 0.53361 0.11104 0.13753 0.0
C2473 C 0.54376 0.10154 0.1261 0.0
C2474 C 0.4905 0.11892 0.09216 0.0
C2475 C 0.51208 0.11439 0.11544 0.0
C2476 C 0.47427 0.12406 0.08687 0.0
C2477 C 0.46233 0.13035 0.09882 0.0
C2478 C 0.49498 0.12013 0.10953 0.0
C2479 C 0.4673 0.13139 0.1161 0.0
C2480 C 0.51773 0.11744 0.13228 0.0
C2481 C 0.53787 0.09919 0.10928 0.0
N2482 N 0.48327 0.12631 0.12097 0.0
N2483 N 0.5224 0.10553 0.10447 0.0
H2484 H 0.89643 0.54166 0.14865 0.0
H2485 H 0.9135 0.45131 0.10361 0.0
H2486 H 0.94625 0.52437 0.13152 0.0
H2487 H 0.86677 0.46251 0.131 0.0
H2488 H 0.92531 0.47873 0.11302 0.0
H2489 H 0.88468 0.51337 0.14147 0.0
C2490 C 0.90489 0.53198 0.14338 0.0
C2491 C 0.92231 0.53554 0.14049 0.0
C2492 C 0.91252 0.47518 0.11711 0.0
C2493 C 0.90899 0.50327 0.13225 0.0
C2494 C 0.90579 0.45956 0.11171 0.0
C2495 C 0.88916 0.45475 0.11651 0.0
C2496 C 0.90245 0.48618 0.12724 0.0
C2497 C 0.87971 0.46576 0.12717 0.0
C2498 C 0.89818 0.51586 0.1393 0.0
C2499 C 0.93266 0.5225 0.13357 0.0
N2500 N 0.88643 0.4811 0.13206 0.0
N2501 N 0.92583 0.50701 0.12966 0.0
H2502 H 0.45513 0.88016 0.13854 0.0
H2503 H 0.54566 0.89714 0.09416 0.0
H2504 H 0.47428 0.93062 0.12595 0.0
H2505 H 0.53182 0.84834 0.11625 0.0
H2506 H 0.51943 0.90962 0.10591 0.0
H2507 H 0.48299 0.86805 0.13061 0.0
C2508 C 0.46517 0.8887 0.13419 0.0
C2509 C 0.46225 0.90642 0.1327 0.0
C2510 C 0.52217 0.89622 0.10835 0.0
C2511 C 0.49408 0.89265 0.12354 0.0
C2512 C 0.5371 0.88911 0.1016 0.0
C2513 C 0.54078 0.8717 0.10418 0.0
C2514 C 0.51073 0.88578 0.11756 0.0
C2515 C 0.52944 0.86185 0.11409 0.0
C2516 C 0.48107 0.88178 0.12965 0.0
C2517 C 0.47574 0.91685 0.12689 0.0
N2518 N 0.51478 0.86899 0.12028 0.0
N2519 N 0.49101 0.9098 0.12245 0.0
H2520 H 0.07734 0.54088 0.88142 0.0
H2521 H 0.11649 0.44921 0.8574 0.0
H2522 H 0.08894 0.5259 0.82944 0.0
H2523 H 0.10954 0.46761 0.90918 0.0
H2524 H 0.10754 0.4774 0.84663 0.0
H2525 H 0.09032 0.51433 0.89172 0.0
C2526 C 0.08275 0.532 0.8722 0.0
C2527 C 0.08198 0.53547 0.85458 0.0
C2528 C 0.10802 0.47523 0.86034 0.0
C2529 C 0.09676 0.50499 0.86619 0.0
C2530 C 0.11314 0.45917 0.86648 0.0
C2531 C 0.1135 0.45596 0.8842 0.0
C2532 C 0.10328 0.48812 0.87203 0.0
C2533 C 0.10901 0.46931 0.89542 0.0
C2534 C 0.09018 0.51686 0.87806 0.0
C2535 C 0.08938 0.52369 0.84314 0.0
N2536 N 0.10403 0.48475 0.88915 0.0
N2537 N 0.09631 0.50884 0.84914 0.0
H2538 H 0.54358 0.10129 0.90799 0.0
H2539 H 0.45459 0.11599 0.85935 0.0
H2540 H 0.52964 0.14938 0.88441 0.0
H2541 H 0.472 0.06682 0.87802 0.0
H2542 H 0.48235 0.12838 0.86727 0.0
H2543 H 0.51777 0.08823 0.89601 0.0
C2544 C 0.53509 0.10906 0.9002 0.0
C2545 C 0.53864 0.12645 0.89729 0.0
C2546 C 0.48008 0.11487 0.86956 0.0
C2547 C 0.50904 0.11167 0.88356 0.0
C2548 C 0.46426 0.10778 0.86501 0.0
C2549 C 0.46086 0.0904 0.86825 0.0
C2550 C 0.49256 0.10447 0.87741 0.0
C2551 C 0.47385 0.08037 0.87569 0.0
C2552 C 0.52038 0.10161 0.89331 0.0
C2553 C 0.52739 0.13591 0.88688 0.0
N2554 N 0.48907 0.08757 0.88009 0.0
N2555 N 0.51297 0.12843 0.88052 0.0
H2556 H 0.8521 0.45046 0.88806 0.0
H2557 H 0.87974 0.54289 0.92099 0.0
H2558 H 0.90022 0.47467 0.87519 0.0
H2559 H 0.82681 0.52685 0.92047 0.0
H2560 H 0.88746 0.51718 0.9049 0.0
H2561 H 0.84217 0.47771 0.90038 0.0
C2562 C 0.8605 0.4615 0.88769 0.0
C2563 C 0.87714 0.4602 0.8809 0.0
C2564 C 0.87412 0.51929 0.90816 0.0
C2565 C 0.86598 0.49121 0.89501 0.0
C2566 C 0.86976 0.5339 0.91742 0.0
C2567 C 0.85267 0.53684 0.92209 0.0
C2568 C 0.86133 0.50738 0.90375 0.0
C2569 C 0.84013 0.52499 0.91699 0.0
C2570 C 0.85485 0.47702 0.89473 0.0
C2571 C 0.8875 0.47493 0.88074 0.0
N2572 N 0.84473 0.51061 0.90823 0.0
N2573 N 0.88182 0.48974 0.88783 0.0
H2574 H 0.54667 0.87384 0.87437 0.0
H2575 H 0.45451 0.89436 0.91436 0.0
H2576 H 0.52898 0.92477 0.88725 0.0
H2577 H 0.4675 0.84517 0.89262 0.0
H2578 H 0.48235 0.90544 0.90526 0.0
H2579 H 0.51832 0.86257 0.88198 0.0
C2580 C 0.5369 0.88263 0.87884 0.0
C2581 C 0.54034 0.90026 0.88031 0.0
C2582 C 0.4791 0.89225 0.90235 0.0
C2583 C 0.50796 0.88749 0.88903 0.0
C2584 C 0.46323 0.88595 0.90756 0.0
C2585 C 0.45877 0.86885 0.90425 0.0
C2586 C 0.49069 0.88132 0.8939 0.0
C2587 C 0.47042 0.85848 0.89525 0.0
C2588 C 0.52073 0.87621 0.88316 0.0
C2589 C 0.52718 0.91106 0.88627 0.0
N2590 N 0.48595 0.86484 0.8905 0.0
N2591 N 0.51162 0.9045 0.8904 0.0
H2592 H 0.10112 0.09093 0.43423 0.0
H2593 H 0.12413 0.14557 0.5176 0.0
H2594 H 0.15202 0.11013 0.44437 0.0
H2595 H 0.07256 0.13233 0.50244 0.0
H2596 H 0.13468 0.1343 0.49018 0.0
H2597 H 0.09039 0.1072 0.45871 0.0
C2598 C 0.11003 0.09859 0.44164 0.0
C2599 C 0.12749 0.09906 0.43742 0.0
C2600 C 0.12104 0.134 0.49282 0.0
C2601 C 0.11535 0.11778 0.46544 0.0
C2602 C 0.11503 0.1405 0.50842 0.0
C2603 C 0.0975 0.13957 0.51241 0.0
C2604 C 0.10941 0.12655 0.48121 0.0
C2605 C 0.08624 0.13285 0.50008 0.0
C2606 C 0.10389 0.10798 0.45555 0.0
C2607 C 0.13844 0.10948 0.44721 0.0
N2608 N 0.0924 0.12646 0.48513 0.0
N2609 N 0.13222 0.11831 0.46091 0.0
H2610 H 0.88122 0.07583 0.51326 0.0
H2611 H 0.88734 0.15684 0.45071 0.0
H2612 H 0.87095 0.12773 0.52981 0.0
H2613 H 0.90835 0.10705 0.43883 0.0
H2614 H 0.8772 0.14564 0.47829 0.0
H2615 H 0.88791 0.08652 0.48476 0.0
C2616 C 0.88057 0.08952 0.51102 0.0
C2617 C 0.87575 0.10093 0.52412 0.0
C2618 C 0.88391 0.13714 0.46958 0.0
C2619 C 0.88299 0.11321 0.4912 0.0
C2620 C 0.88952 0.14347 0.45379 0.0
C2621 C 0.89875 0.13284 0.44257 0.0
C2622 C 0.88747 0.12006 0.47407 0.0
C2623 C 0.90146 0.11568 0.44725 0.0
C2624 C 0.88424 0.09559 0.49464 0.0
C2625 C 0.87458 0.11847 0.52014 0.0
N2626 N 0.89591 0.10983 0.46268 0.0
N2627 N 0.87821 0.12409 0.50402 0.0
H2628 H 0.90226 0.90289 0.53109 0.0
H2629 H 0.86397 0.8846 0.43817 0.0
H2630 H 0.88092 0.85395 0.51665 0.0
H2631 H 0.87259 0.93559 0.45815 0.0
H2632 H 0.87089 0.87282 0.46641 0.0
H2633 H 0.89202 0.91504 0.50404 0.0
C2634 C 0.89525 0.89478 0.52225 0.0
C2635 C 0.89243 0.87743 0.52602 0.0
C2636 C 0.87122 0.88659 0.46456 0.0
C2637 C 0.8809 0.89108 0.49501 0.0
C2638 C 0.86728 0.89333 0.44844 0.0
C2639 C 0.86786 0.91112 0.44564 0.0
C2640 C 0.87587 0.89771 0.47795 0.0
C2641 C 0.87236 0.92178 0.45947 0.0
C2642 C 0.8894 0.90169 0.50684 0.0
C2643 C 0.88319 0.86743 0.51425 0.0
N2644 N 0.87626 0.91491 0.47498 0.0
N2645 N 0.87791 0.87435 0.49914 0.0
H2646 H 0.11581 0.91975 0.50708 0.0
H2647 H 0.09703 0.83668 0.44998 0.0
H2648 H 0.12302 0.86817 0.52602 0.0
H2649 H 0.08302 0.88831 0.43577 0.0
H2650 H 0.10932 0.84776 0.47679 0.0
H2651 H 0.10593 0.9082 0.47996 0.0
C2652 C 0.1151 0.90596 0.50565 0.0
C2653 C 0.12 0.89491 0.51899 0.0
C2654 C 0.10361 0.85664 0.46775 0.0
C2655 C 0.10902 0.88153 0.48763 0.0
C2656 C 0.09675 0.85036 0.45243 0.0
C2657 C 0.08892 0.86162 0.44077 0.0
C2658 C 0.10272 0.8743 0.47127 0.0
C2659 C 0.0887 0.87919 0.44457 0.0
C2660 C 0.1096 0.89936 0.49004 0.0
C2661 C 0.11936 0.87714 0.51608 0.0
N2662 N 0.09545 0.88498 0.4595 0.0
N2663 N 0.11392 0.87097 0.50069 0.0
H2664 H 0.61278 0.9468 0.6455 0.0
H2665 H 0.59114 0.0375 0.60273 0.0
H2666 H 0.56197 0.96264 0.63008 0.0
H2667 H 0.64051 0.02568 0.62476 0.0
H2668 H 0.5804 0.0098 0.61259 0.0
H2669 H 0.62352 0.97535 0.63788 0.0
C2670 C 0.6039 0.95624 0.64053 0.0
C2671 C 0.58649 0.95221 0.63824 0.0
C2672 C 0.59356 0.01327 0.61539 0.0
C2673 C 0.59866 0.98481 0.62948 0.0
C2674 C 0.59969 0.02905 0.6097 0.0
C2675 C 0.61674 0.0338 0.61286 0.0
C2676 C 0.60461 0.00206 0.62418 0.0
C2677 C 0.62724 0.02252 0.62218 0.0
C2678 C 0.61003 0.97252 0.63618 0.0
C2679 C 0.57556 0.96495 0.63168 0.0
N2680 N 0.62104 0.00707 0.62741 0.0
N2681 N 0.58183 0.98062 0.62751 0.0
H2682 H 0.96375 0.62907 0.5386 0.0
H2683 H 0.02094 0.63542 0.62346 0.0
H2684 H 0.94623 0.65403 0.58484 0.0
H2685 H 0.03797 0.61273 0.57592 0.0
H2686 H 0.99401 0.64364 0.6095 0.0
H2687 H 0.99116 0.62347 0.55225 0.0
C2688 C 0.96557 0.63318 0.55174 0.0
C2689 C 0.95256 0.64185 0.56068 0.0
C2690 C 0.0037 0.63697 0.60211 0.0
C2691 C 0.98423 0.63577 0.57634 0.0
C2692 C 0.01912 0.63241 0.61002 0.0
C2693 C 0.03164 0.62326 0.60085 0.0
C2694 C 0.00083 0.63233 0.58493 0.0
C2695 C 0.02854 0.6195 0.58353 0.0
C2696 C 0.98135 0.63014 0.55948 0.0
C2697 C 0.95592 0.64732 0.57751 0.0
N2698 N 0.01342 0.62396 0.57617 0.0
N2699 N 0.97144 0.64414 0.58484 0.0
H2700 H 0.33712 0.94658 0.59409 0.0
H2701 H 0.41464 0.00878 0.61934 0.0
H2702 H 0.39028 0.93614 0.58283 0.0
H2703 H 0.36153 0.02449 0.6215 0.0
H2704 H 0.40571 0.98084 0.60889 0.0
H2705 H 0.34564 0.97367 0.60766 0.0
C2706 C 0.3506 0.94989 0.59472 0.0
C2707 C 0.36303 0.93921 0.58727 0.0
C2708 C 0.39598 0.9904 0.6116 0.0
C2709 C 0.37283 0.9701 0.60253 0.0
C2710 C 0.40108 0.00647 0.61742 0.0
C2711 C 0.38883 0.01918 0.62104 0.0
C2712 C 0.37847 0.98687 0.60942 0.0
C2713 C 0.37141 0.0151 0.61887 0.0
C2714 C 0.35543 0.96539 0.60231 0.0
C2715 C 0.3803 0.94415 0.58823 0.0
N2716 N 0.36674 -0.00071 0.61314 0.0
N2717 N 0.38468 0.95925 0.59567 0.0
H2718 H 0.95178 0.41774 0.66876 0.0
H2719 H 0.03291 0.41697 0.60732 0.0
H2720 H 0.95144 0.43887 0.61747 0.0
H2721 H 0.02562 0.37829 0.64638 0.0
H2722 H 0.00462 0.42845 0.61387 0.0
H2723 H 0.98002 0.40543 0.66307 0.0
C2724 C 0.95746 0.41965 0.65624 0.0
C2725 C 0.9492 0.4296 0.64365 0.0
C2726 C 0.00925 0.41745 0.62101 0.0
C2727 C 0.98173 0.41593 0.63733 0.0
C2728 C 0.02542 0.41087 0.61729 0.0
C2729 C 0.03161 0.39641 0.62608 0.0
C2730 C -0.00075 0.4097 0.63379 0.0
C2731 C 0.02145 0.38945 0.63927 0.0
C2732 C 0.97366 0.41271 0.65308 0.0
C2733 C 0.95741 0.43171 0.62774 0.0
N2734 N 0.00571 0.39613 0.6427 0.0
N2735 N 0.97328 0.42509 0.62511 0.0
H2736 H 0.65634 0.96605 0.40063 0.0
H2737 H 0.57742 0.03083 0.39245 0.0
H2738 H 0.60625 0.95688 0.42231 0.0
H2739 H 0.62924 0.04471 0.37847 0.0
H2740 H 0.58758 0.00295 0.40163 0.0
H2741 H 0.64628 0.99385 0.38993 0.0
C2742 C 0.64316 0.9698 0.40292 0.0
C2743 C 0.6321 0.95922 0.4124 0.0
C2744 C 0.59679 0.0121 0.39666 0.0
C2745 C 0.62061 0.99096 0.40045 0.0
C2746 C 0.59102 0.02818 0.39156 0.0
C2747 C 0.60254 0.04032 0.38487 0.0
C2748 C 0.61422 0.00798 0.39501 0.0
C2749 C 0.61992 0.03575 0.38351 0.0
C2750 C 0.63749 0.98571 0.39697 0.0
C2751 C 0.61523 0.96476 0.41524 0.0
N2752 N 0.62525 0.01991 0.38855 0.0
N2753 N 0.61001 0.98027 0.40932 0.0
H2754 H 0.03746 0.57521 0.38401 0.0
H2755 H 0.94349 0.58825 0.34488 0.0
H2756 H 0.02285 0.61984 0.35474 0.0
H2757 H 0.96166 0.54083 0.36714 0.0
H2758 H 0.972 0.6007 0.34931 0.0
H2759 H 0.00927 0.5627 0.37849 0.0
C2760 C 0.02833 0.58229 0.37629 0.0
C2761 C 0.03244 0.59855 0.36983 0.0
C2762 C 0.96966 0.58758 0.35326 0.0
C2763 C 0.00012 0.58448 0.36358 0.0
C2764 C 0.95339 0.58049 0.35077 0.0
C2765 C 0.95005 0.56349 0.35573 0.0
C2766 C 0.98265 0.5776 0.36079 0.0
C2767 C 0.96338 0.55407 0.36341 0.0
C2768 C 0.01225 0.57518 0.37314 0.0
C2769 C 0.02023 0.60718 0.35979 0.0
N2770 N 0.97905 0.56125 0.36567 0.0
N2771 N 0.00453 0.60009 0.35708 0.0
H2772 H 0.3769 0.01416 0.41931 0.0
H2773 H 0.40171 0.96123 0.3351 0.0
H2774 H 0.37152 0.03442 0.36802 0.0
H2775 H 0.41427 0.94527 0.38658 0.0
H2776 H 0.3869 0.98633 0.3468 0.0
H2777 H 0.38746 0.98735 0.40737 0.0
C2778 C 0.37809 0.01305 0.40552 0.0
C2779 C 0.37361 0.02669 0.39464 0.0
C2780 C 0.39278 0.97726 0.35553 0.0
C2781 C 0.38538 0.9958 0.38085 0.0
C2782 C 0.40109 0.96287 0.34887 0.0
C2783 C 0.40932 0.95127 0.35992 0.0
C2784 C 0.39266 0.97997 0.37334 0.0
C2785 C 0.40831 0.95407 0.37765 0.0
C2786 C 0.38398 -0.00235 0.3987 0.0
C2787 C 0.37486 0.02425 0.37685 0.0
N2788 N 0.40022 0.96819 0.38381 0.0
N2789 N 0.38073 0.0091 0.37049 0.0
H2790 H 0.03297 0.34837 0.3882 0.0
H2791 H 0.94623 0.38076 0.43236 0.0
H2792 H 0.01943 0.40173 0.39441 0.0
H2793 H 0.9565 0.32756 0.42103 0.0
H2794 H 0.97275 0.38869 0.41766 0.0
H2795 H 0.00473 0.34033 0.39939 0.0
C2796 C 0.02406 0.35838 0.39185 0.0
C2797 C 0.0287 0.37573 0.3906 0.0
C2798 C 0.96915 0.37528 0.41825 0.0
C2799 C 0.99643 0.36667 0.40344 0.0
C2800 C 0.95403 0.37077 0.42668 0.0
C2801 C 0.94922 0.35349 0.42799 0.0
C2802 C 0.97962 0.3624 0.4112 0.0
C2803 C 0.95967 0.34105 0.42019 0.0
C2804 C 0.00796 0.3538 0.39826 0.0
C2805 C 0.01664 0.38819 0.39557 0.0
N2806 N 0.97447 0.34573 0.41227 0.0
N2807 N 0.00113 0.38341 0.40183 0.0
H2808 H 0.62576 0.59863 0.98295 0.0
H2809 H 0.58042 0.67226 0.03757 0.0
H2810 H 0.60903 0.64631 0.96016 0.0
H2811 H 0.57919 0.61867 0.05122 0.0
H2812 H 0.59648 0.66494 0.01145 0.0
H2813 H 0.61422 0.60795 0.01037 0.0
C2814 C 0.61957 0.61104 0.98366 0.0
C2815 C 0.61797 0.62152 0.96907 0.0
C2816 C 0.59281 0.65484 0.02026 0.0
C2817 C 0.6051 0.63243 0.00066 0.0
C2818 C 0.58381 0.65901 0.03518 0.0
C2819 C 0.57851 0.646 0.04644 0.0
C2820 C 0.5967 0.6376 0.01682 0.0
C2821 C 0.58297 0.629 0.04273 0.0
C2822 C 0.6131 0.61639 -0.00062 0.0
C2823 C 0.61045 0.63778 0.97102 0.0
N2824 N 0.59182 0.62528 0.02821 0.0
N2825 N 0.60417 0.64271 0.98654 0.0
H2826 H 0.37272 0.63239 0.96741 0.0
H2827 H 0.36517 0.5495 0.02718 0.0
H2828 H 0.39452 0.58306 0.95502 0.0
H2829 H 0.3542 0.60065 0.04551 0.0
H2830 H 0.37311 0.56136 -0.00046 0.0
H2831 H 0.36251 0.62063 0.9948 0.0
C2832 C 0.37515 0.61904 0.97039 0.0
C2833 C 0.38452 0.60867 0.95905 0.0
C2834 C 0.36903 0.57002 0.00961 0.0
C2835 C 0.37308 0.59523 0.9902 0.0
C2836 C 0.36463 0.56327 0.02552 0.0
C2837 C 0.35926 0.57412 0.03887 0.0
C2838 C 0.36797 0.58778 0.00688 0.0
C2839 C 0.35825 0.59182 0.03561 0.0
C2840 C 0.36948 0.61239 0.98604 0.0
C2841 C 0.38754 0.59152 0.96354 0.0
N2842 N 0.3626 0.59812 0.01992 0.0
N2843 N 0.38184 0.58534 0.97877 0.0
H2844 H 0.42233 0.38521 0.04958 0.0
H2845 H 0.37792 0.35225 0.96318 0.0
H2846 H 0.41319 0.33167 0.03897 0.0
H2847 H 0.38233 0.40555 0.97759 0.0
H2848 H 0.39004 0.34414 0.99107 0.0
H2849 H 0.40691 0.39276 0.0234 0.0
C2850 C 0.41699 0.37506 0.04174 0.0
C2851 C 0.41912 0.35781 0.04635 0.0
C2852 C 0.38831 0.3576 0.98809 0.0
C2853 C 0.40149 0.36628 0.01633 0.0
C2854 C 0.38138 0.36222 0.9722 0.0
C2855 C 0.37936 0.37959 0.96792 0.0
C2856 C 0.39322 0.37047 -0.00026 0.0
C2857 C 0.38409 0.39201 0.98009 0.0
C2858 C 0.40814 0.37935 0.02683 0.0
C2859 C 0.41172 0.34513 0.03591 0.0
N2860 N 0.39084 0.38721 0.99538 0.0
N2861 N 0.40336 0.34961 0.02127 0.0
H2862 H 0.61241 0.43243 0.04717 0.0
H2863 H 0.63976 0.38666 0.95964 0.0
H2864 H 0.66323 0.41234 0.03849 0.0
H2865 H 0.58735 0.39788 0.97374 0.0
H2866 H 0.64903 0.39652 0.98802 0.0
H2867 H 0.60324 0.42036 0.01977 0.0
C2868 C 0.62161 0.4254 0.03948 0.0
C2869 C 0.6386 0.42342 0.04502 0.0
C2870 C 0.63551 0.3968 0.98484 0.0
C2871 C 0.62828 0.40961 0.01362 0.0
C2872 C 0.63022 0.39117 0.96866 0.0
C2873 C 0.61278 0.39164 0.96416 0.0
C2874 C 0.62327 0.40296 0.99656 0.0
C2875 C 0.60097 0.39768 0.97637 0.0
C2876 C 0.61638 0.41847 0.02387 0.0
C2877 C 0.64998 0.41402 0.03471 0.0
N2878 N 0.60644 0.40314 0.99194 0.0
N2879 N 0.64466 0.40757 0.01939 0.0
H2880 H 0.0806 0.36719 0.08252 0.0
H2881 H 0.10399 0.41822 0.99701 0.0
H2882 H 0.0757 0.42219 0.07804 0.0
H2883 H 0.09953 0.36304 -0.0003 0.0
H2884 H 0.09339 0.42015 0.02642 0.0
H2885 H 0.08736 0.36557 0.05204 0.0
C2886 C 0.08085 0.37893 0.07509 0.0
C2887 C 0.07767 0.39486 0.08284 0.0
C2888 C 0.09465 0.40764 0.02052 0.0
C2889 C 0.08555 0.39312 0.04789 0.0
C2890 C 0.10065 0.40651 0.00367 0.0
C2891 C 0.10279 0.39041 0.99581 0.0
C2892 C 0.09085 0.39257 0.02963 0.0
C2893 C 0.09844 0.3757 0.00526 0.0
C2894 C 0.08469 0.378 0.05766 0.0
C2895 C 0.07807 0.40965 0.07255 0.0
N2896 N 0.09277 0.37713 0.02167 0.0
N2897 N 0.0821 0.40844 0.05561 0.0
H2898 H 0.57149 0.11263 0.01105 0.0
H2899 H 0.62844 0.0715 0.08586 0.0
H2900 H 0.62653 0.11785 0.01451 0.0
H2901 H 0.57357 0.06477 0.08214 0.0
H2902 H 0.62808 0.08708 0.05873 0.0
H2903 H 0.57202 0.09396 0.03623 0.0
C2904 C 0.5837 0.10979 0.01703 0.0
C2905 C 0.59899 0.1169 0.01065 0.0
C2906 C 0.61612 0.0821 0.06376 0.0
C2907 C 0.59967 0.09559 0.03957 0.0
C2908 C 0.61633 0.07315 0.07924 0.0
C2909 C 0.601 0.0669 0.08631 0.0
C2910 C 0.60046 0.08493 0.05531 0.0
C2911 C 0.58569 0.06936 0.07714 0.0
C2912 C 0.58399 0.09916 0.03145 0.0
C2913 C 0.6144 0.11292 0.0191 0.0
N2914 N 0.58579 0.07832 0.06216 0.0
N2915 N 0.61434 0.10257 0.03311 0.0
H2916 H 0.95181 0.62607 0.09764 0.0
H2917 H 0.89768 0.5738 0.02857 0.0
H2918 H 0.95173 0.57074 0.09477 0.0
H2919 H 0.90635 0.62847 0.02551 0.0
H2920 H 0.91786 0.57229 0.05242 0.0
H2921 H 0.93567 0.62718 0.07081 0.0
C2922 C 0.94853 0.61415 0.09127 0.0
C2923 C 0.95302 0.59829 0.09849 0.0
C2924 C 0.91542 0.5846 0.04644 0.0
C2925 C 0.93438 0.59945 0.06789 0.0
C2926 C 0.90391 0.58547 0.03276 0.0
C2927 C 0.90014 0.60132 0.02502 0.0
C2928 C 0.92315 0.59968 0.05255 0.0
C2929 C 0.90853 0.61602 0.03123 0.0
C2930 C 0.93932 0.61479 0.07595 0.0
C2931 C 0.94852 0.58325 0.08965 0.0
N2932 N 0.91953 0.61485 0.04469 0.0
N2933 N 0.93927 0.5842 0.0749 0.0
H2934 H 0.4237 0.8832 0.01416 0.0
H2935 H 0.37155 0.92215 0.09328 0.0
H2936 H 0.369 0.87724 0.02077 0.0
H2937 H 0.42463 0.93421 0.08294 0.0
H2938 H 0.37047 0.90546 0.06685 0.0
H2939 H 0.42445 0.9015 0.03951 0.0
C2940 C 0.41181 0.88579 0.02085 0.0
C2941 C 0.39623 0.87868 0.01522 0.0
C2942 C 0.38233 0.91183 0.07028 0.0
C2943 C 0.39707 0.89952 0.04444 0.0
C2944 C 0.38296 0.92138 0.08538 0.0
C2945 C 0.39822 0.92955 0.09033 0.0
C2946 C 0.39711 0.91031 0.0601 0.0
C2947 C 0.41259 0.92815 0.07957 0.0
C2948 C 0.41228 0.89622 0.03538 0.0
C2949 C 0.38133 0.88225 0.02469 0.0
N2950 N 0.41171 0.9186 0.065 0.0
N2951 N 0.38212 0.89241 0.03883 0.0
H2952 H 0.04979 0.56519 0.9016 0.0
H2953 H 0.1049 0.62459 0.96461 0.0
H2954 H 0.05542 0.62001 0.89583 0.0
H2955 H 0.10363 0.56932 0.9682 0.0
H2956 H 0.08445 0.62325 0.94103 0.0
H2957 H 0.06682 0.56658 0.92797 0.0
C2958 C 0.05441 0.57754 0.90601 0.0
C2959 C 0.05131 0.5925 0.89648 0.0
C2960 C 0.0886 0.6114 0.94699 0.0
C2961 C 0.07084 0.59416 0.92645 0.0
C2962 C 0.10039 0.61216 0.96039 0.0
C2963 C 0.10613 0.59704 0.9683 0.0
C2964 C 0.08249 0.5954 0.94139 0.0
C2965 C 0.09949 0.5813 0.96254 0.0
C2966 C 0.06419 0.57831 0.921 0.0
C2967 C 0.05764 0.60814 0.90271 0.0
N2968 N 0.08808 0.58088 0.94937 0.0
N2969 N 0.06718 0.60855 0.91725 0.0
H2970 H 0.42368 0.11607 0.99195 0.0
H2971 H 0.37237 0.07975 0.91122 0.0
H2972 H 0.36917 0.12291 0.98471 0.0
H2973 H 0.42481 0.06591 0.9226 0.0
H2974 H 0.37124 0.09631 0.93768 0.0
H2975 H 0.42464 0.09853 0.96611 0.0
C2976 C 0.41187 0.11381 0.98501 0.0
C2977 C 0.39627 0.12089 0.99062 0.0
C2978 C 0.38298 0.08961 0.93446 0.0
C2979 C 0.39737 0.10097 0.96083 0.0
C2980 C 0.38365 0.08015 0.91934 0.0
C2981 C 0.39874 0.07148 0.9147 0.0
C2982 C 0.39754 0.09053 0.94499 0.0
C2983 C 0.41292 0.07238 0.92573 0.0
C2984 C 0.41246 0.10383 0.9702 0.0
C2985 C 0.38149 0.11785 0.98081 0.0
N2986 N 0.412 0.08184 0.94036 0.0
N2987 N 0.3824 0.1081 0.9664 0.0
H2988 H 0.90441 0.41288 0.00651 0.0
H2989 H 0.89743 0.37225 0.91256 0.0
H2990 H 0.87054 0.37108 0.99314 0.0
H2991 H 0.92454 0.41941 0.92312 0.0
H2992 H 0.88975 0.37022 0.94278 0.0
H2993 H 0.91383 0.4143 0.97667 0.0
C2994 C 0.89887 0.40404 -0.00264 0.0
C2995 C 0.88659 0.39184 0.00246 0.0
C2996 C 0.89742 0.381 0.93852 0.0
C2997 C 0.89757 0.39327 0.96827 0.0
C2998 C 0.90186 0.38215 0.92125 0.0
C2999 C 0.91159 0.39607 0.91528 0.0
C3000 C 0.90276 0.39383 0.94998 0.0
C3001 C 0.91698 0.40849 0.92717 0.0
C3002 C 0.90435 0.40481 0.98032 0.0
C3003 C 0.88017 0.38055 0.98997 0.0
N3004 N 0.91246 0.4071 0.94397 0.0
N3005 N 0.88572 0.38155 0.9735 0.0
H3006 H 0.62757 0.92256 0.91112 0.0
H3007 H 0.58206 0.90172 0.00038 0.0
H3008 H 0.5778 0.94266 0.92492 0.0
H3009 H 0.62267 0.87091 0.97842 0.0
H3010 H 0.58269 0.91994 0.97505 0.0
H3011 H 0.62865 0.9073 0.9384 0.0
C3012 C 0.61694 0.92394 0.91997 0.0
C3013 C 0.60249 0.93378 0.91566 0.0
C3014 C 0.59147 0.90919 0.97586 0.0
C3015 C 0.60364 0.91624 0.94688 0.0
C3016 C 0.59107 0.89864 0.99031 0.0
C3017 C 0.60228 0.88454 0.99168 0.0
C3018 C 0.60325 0.90577 0.9627 0.0
C3019 C 0.61388 0.88162 0.97817 0.0
C3020 C 0.61754 0.91514 0.93551 0.0
C3021 C 0.58915 0.93514 0.92769 0.0
N3022 N 0.61405 0.89214 0.96428 0.0
N3023 N 0.59 0.92637 0.94275 0.0
H3024 H 0.00289 0.10218 0.40094 0.0
H3025 H 0.09465 0.08549 0.35887 0.0
H3026 H 0.02693 0.13668 0.36475 0.0
H3027 H 0.07736 0.05927 0.40454 0.0
H3028 H 0.06822 0.10218 0.35877 0.0
H3029 H 0.02867 0.08454 0.4007 0.0
C3030 C 0.01355 0.10618 0.39302 0.0
C3031 C 0.01261 0.12107 0.38285 0.0
C3032 C 0.07018 0.09275 0.3688 0.0
C3033 C 0.04211 0.1006 0.38232 0.0
C3034 C 0.08524 0.08315 0.36883 0.0
C3035 C 0.08823 0.07099 0.38177 0.0
C3036 C 0.05794 0.09013 0.38174 0.0
C3037 C 0.07557 0.06853 0.39434 0.0
C3038 C 0.02826 0.09599 0.39284 0.0
C3039 C 0.02686 0.12527 0.37263 0.0
N3040 N 0.06094 0.07804 0.39402 0.0
N3041 N 0.04098 0.11507 0.37261 0.0
H3042 H 0.93771 0.09177 0.40819 0.0
H3043 H 0.88343 0.02579 0.35132 0.0
H3044 H 0.92448 0.10081 0.35513 0.0
H3045 H 0.88978 0.02136 0.4062 0.0
H3046 H 0.90082 0.05182 0.35176 0.0
H3047 H 0.92309 0.06412 0.4068 0.0
C3048 C 0.9319 0.08786 0.39618 0.0
C3049 C 0.93223 0.09866 0.38177 0.0
C3050 C 0.89843 0.04511 0.36369 0.0
C3051 C 0.91535 0.06707 0.38014 0.0
C3052 C 0.88839 0.03029 0.36348 0.0
C3053 C 0.88503 0.02134 0.37876 0.0
C3054 C 0.90522 0.05103 0.37929 0.0
C3055 C 0.89214 0.02767 0.39407 0.0
C3056 C 0.92347 0.0721 0.39542 0.0
C3057 C 0.92445 0.09293 0.36657 0.0
N3058 N 0.90186 0.04212 0.39394 0.0
N3059 N 0.91626 0.07755 0.36618 0.0
H3060 H 0.91356 0.94418 0.40911 0.0
H3061 H 0.97898 0.89342 0.34837 0.0
H3062 H 0.9072 0.93895 0.35432 0.0
H3063 H 0.98102 0.89198 0.40373 0.0
H3064 H 0.95465 0.91302 0.35012 0.0
H3065 H 0.94067 0.92846 0.4071 0.0
C3066 C 0.91798 0.93994 0.39663 0.0
C3067 C 0.90806 0.94274 0.38187 0.0
C3068 C 0.96047 0.90845 0.36188 0.0
C3069 C 0.93892 0.92466 0.37951 0.0
C3070 C 0.9743 0.89715 0.3609 0.0
C3071 C 0.98203 0.8909 0.37592 0.0
C3072 C 0.95429 0.91358 0.37801 0.0
C3073 C 0.9756 0.89654 0.3918 0.0
C3074 C 0.9334 0.93089 0.39551 0.0
C3075 C 0.91438 0.93694 0.36605 0.0
N3076 N 0.96207 0.9075 0.39243 0.0
N3077 N 0.92935 0.92808 0.3653 0.0
H3078 H 0.09016 0.99036 0.40067 0.0
H3079 H 0.07624 0.89849 0.35728 0.0
H3080 H 0.11855 0.97185 0.35682 0.0
H3081 H 0.05288 0.91271 0.40548 0.0
H3082 H 0.09039 0.92626 0.35621 0.0
H3083 H 0.07529 0.96278 0.40221 0.0
C3084 C 0.09336 0.98052 0.39142 0.0
C3085 C 0.10564 0.98352 0.37854 0.0
C3086 C 0.08217 0.92336 0.36704 0.0
C3087 C 0.08847 0.95202 0.38012 0.0
C3088 C 0.07403 0.90749 0.36764 0.0
C3089 C 0.06338 0.90326 0.38151 0.0
C3090 C 0.07964 0.93519 0.38038 0.0
C3091 C 0.061 0.91547 0.39454 0.0
C3092 C 0.08479 0.9648 0.39227 0.0
C3093 C 0.10903 0.97031 0.36678 0.0
N3094 N 0.06909 0.93091 0.39367 0.0
N3095 N 0.10048 0.95518 0.36785 0.0
H3096 H 0.07893 0.9346 0.55479 0.0
H3097 H 0.01165 0.88209 0.61183 0.0
H3098 H 0.08633 0.92295 0.60846 0.0
H3099 H 0.00621 0.88987 0.55725 0.0
H3100 H 0.03773 0.89935 0.61137 0.0
H3101 H 0.05064 0.92113 0.55613 0.0
C3102 C 0.07451 0.92942 0.56691 0.0
C3103 C 0.08505 0.92976 0.58151 0.0
C3104 C 0.0308 0.89733 0.5995 0.0
C3105 C 0.0528 0.9142 0.58308 0.0
C3106 C 0.01597 0.88735 0.59973 0.0
C3107 C 0.00676 0.88439 0.58453 0.0
C3108 C 0.03653 0.90442 0.58395 0.0
C3109 C 0.0128 0.8919 0.56929 0.0
C3110 C 0.0584 0.92166 0.56764 0.0
C3111 C 0.07868 0.92285 0.59686 0.0
N3112 N 0.02734 0.9015 0.56938 0.0
N3113 N 0.06302 0.91524 0.59721 0.0
H3114 H 0.066 0.08093 0.55372 0.0
H3115 H 0.13812 0.02107 0.5959 0.0
H3116 H 0.10347 0.09842 0.59062 0.0
H3117 H 0.09805 0.00181 0.56285 0.0
H3118 H 0.12641 0.04989 0.59274 0.0
H3119 H 0.07862 0.05214 0.55521 0.0
C3120 C 0.07692 0.07873 0.56205 0.0
C3121 C 0.08364 0.09203 0.57214 0.0
C3122 C 0.12018 0.03936 0.58615 0.0
C3123 C 0.09807 0.05929 0.57392 0.0
C3124 C 0.12681 0.02287 0.58806 0.0
C3125 C 0.11906 0.00897 0.57968 0.0
C3126 C 0.10566 0.04199 0.5758 0.0
C3127 C 0.10459 0.01215 0.56939 0.0
C3128 C 0.08408 0.06232 0.56293 0.0
C3129 C 0.09779 0.08852 0.5827 0.0
N3130 N 0.09834 0.02833 0.56776 0.0
N3131 N 0.1045 0.07249 0.58334 0.0
H3132 H 0.91973 0.06653 0.61421 0.0
H3133 H 0.99676 0.10613 0.56052 0.0
H3134 H 0.92179 0.06556 0.55885 0.0
H3135 H -0.00074 0.09743 0.61523 0.0
H3136 H 0.96976 0.09058 0.55959 0.0
H3137 H 0.94921 0.07704 0.61484 0.0
C3138 C 0.92645 0.06839 0.60218 0.0
C3139 C 0.91827 0.06531 0.58644 0.0
C3140 C 0.97629 0.09195 0.57178 0.0
C3141 C 0.95196 0.07748 0.58708 0.0
C3142 C 0.99181 0.10081 0.57234 0.0
C3143 C 0.00039 0.10323 0.58802 0.0
C3144 C 0.96914 0.08558 0.58701 0.0
C3145 C 0.99303 0.09619 0.6029 0.0
C3146 C 0.9433 0.07436 0.60256 0.0
C3147 C 0.92762 0.06781 0.57126 0.0
N3148 N 0.97778 0.0878 0.60204 0.0
N3149 N 0.94392 0.07394 0.57195 0.0
H3150 H 0.90605 -0.0024 0.56996 0.0
H3151 H 0.91473 0.90395 0.61079 0.0
H3152 H 0.87405 0.97877 0.61114 0.0
H3153 H 0.93836 0.91841 0.56279 0.0
H3154 H 0.90251 0.93267 0.61308 0.0
H3155 H 0.92034 0.96981 0.56882 0.0
C3156 C 0.90191 0.98767 0.57871 0.0
C3157 C 0.88869 0.99062 0.59063 0.0
C3158 C 0.91043 0.92959 0.60208 0.0
C3159 C 0.90532 0.9588 0.58957 0.0
C3160 C 0.91747 0.91321 0.60079 0.0
C3161 C 0.92751 0.90875 0.58652 0.0
C3162 C 0.91348 0.94165 0.58905 0.0
C3163 C 0.93065 0.9213 0.57398 0.0
C3164 C 0.91019 0.9718 0.57811 0.0
C3165 C 0.88425 0.97724 0.60187 0.0
N3166 N 0.9236 0.93718 0.57551 0.0
N3167 N 0.89253 0.96194 0.60105 0.0
H3168 H 0.41268 0.00722 0.09154 0.0
H3169 H 0.37046 0.10027 0.08244 0.0
H3170 H 0.3698 0.02493 0.12189 0.0
H3171 H 0.41866 0.08622 0.05897 0.0
H3172 H 0.368 0.0713 0.094 0.0
H3173 H 0.41323 0.03485 0.07685 0.0
C3174 C 0.40341 0.01688 0.09519 0.0
C3175 C 0.39125 0.0137 0.10813 0.0
C3176 C 0.37907 0.07452 0.08625 0.0
C3177 C 0.39168 0.04531 0.09111 0.0
C3178 C 0.38047 0.09105 0.0796 0.0
C3179 C 0.39486 0.0957 0.06984 0.0
C3180 C 0.39214 0.06252 0.0831 0.0
C3181 C 0.40739 0.0832 0.06651 0.0
C3182 C 0.40368 0.03263 0.0867 0.0
C3183 C 0.37932 0.02666 0.11195 0.0
N3184 N 0.40579 0.06718 0.07322 0.0
N3185 N 0.37987 0.04189 0.10353 0.0
H3186 H 0.3693 0.90048 0.92983 0.0
H3187 H 0.41407 0.99148 0.91463 0.0
H3188 H 0.42115 0.91182 0.94577 0.0
H3189 H 0.36599 0.97621 0.89166 0.0
H3190 H 0.41566 0.96368 0.92894 0.0
H3191 H 0.36654 0.92966 0.91899 0.0
C3192 C 0.38009 0.90915 0.93116 0.0
C3193 C 0.39553 0.90367 0.9386 0.0
C3194 C 0.40474 0.96647 0.92081 0.0
C3195 C 0.39246 0.93712 0.92612 0.0
C3196 C 0.40386 0.98233 0.91253 0.0
C3197 C 0.38992 0.98623 0.90176 0.0
C3198 C 0.39158 0.95444 0.91837 0.0
C3199 C 0.3769 0.97392 0.89991 0.0
C3200 C 0.3785 0.92581 0.92492 0.0
C3201 C 0.40903 0.91551 0.94006 0.0
N3202 N 0.37808 0.95858 0.90807 0.0
N3203 N 0.40721 0.93168 0.93378 0.0
H3204 H -0.00171 0.37182 0.86462 0.0
H3205 H 0.06433 0.41814 0.92788 0.0
H3206 H 0.98313 0.41145 0.90031 0.0
H3207 H 0.07566 0.37161 0.9 0.0
H3208 H 0.03475 0.41681 0.91725 0.0
H3209 H 0.02705 0.37239 0.87677 0.0
C3210 C 0.0009 0.38057 0.87507 0.0
C3211 C 0.98814 0.39162 0.88136 0.0
C3212 C 0.04372 0.40687 0.91355 0.0
C3213 C 0.02128 0.39251 0.89522 0.0
C3214 C 0.06059 0.40762 0.91961 0.0
C3215 C 0.07248 0.39499 0.91479 0.0
C3216 C 0.03881 0.39347 0.90251 0.0
C3217 C 0.06695 0.38165 0.90404 0.0
C3218 C 0.0174 0.38094 0.88197 0.0
C3219 C 0.99252 0.40288 0.89479 0.0
N3220 N 0.05055 0.38129 0.8982 0.0
N3221 N 0.00872 0.40307 0.90122 0.0
H3222 H 0.57259 0.01314 0.8938 0.0
H3223 H 0.6249 0.09381 0.92938 0.0
H3224 H 0.62747 0.01894 0.88892 0.0
H3225 H 0.57033 0.08726 0.93641 0.0
H3226 H 0.62625 0.06561 0.91589 0.0
H3227 H 0.5716 0.03958 0.91055 0.0
C3228 C 0.58445 0.0199 0.89633 0.0
C3229 C 0.60014 0.01381 0.88988 0.0
C3230 C 0.614 0.07026 0.92049 0.0
C3231 C 0.59908 0.04418 0.90894 0.0
C3232 C 0.61322 0.08636 0.92823 0.0
C3233 C 0.59747 0.09291 0.93394 0.0
C3234 C 0.59889 0.06069 0.91835 0.0
C3235 C 0.58275 0.08268 0.93218 0.0
C3236 C 0.58387 0.03504 0.90585 0.0
C3237 C 0.61506 0.02327 0.89337 0.0
N3238 N 0.5838 0.06712 0.92441 0.0
N3239 N 0.61415 0.03798 0.90264 0.0
H3240 H 0.91812 0.59381 0.95871 0.0
H3241 H 0.96036 0.57054 0.86903 0.0
H3242 H 0.88693 0.57957 0.91532 0.0
H3243 H 0.97725 0.61433 0.8982 0.0
H3244 H 0.93634 0.56674 0.88924 0.0
H3245 H 0.94354 0.59413 0.93984 0.0
C3246 C 0.91676 0.59043 0.94529 0.0
C3247 C 0.90062 0.58672 0.93839 0.0
C3248 C 0.94537 0.57713 0.89118 0.0
C3249 C 0.92921 0.58685 0.91709 0.0
C3250 C 0.95895 0.57929 0.87973 0.0
C3251 C 0.97049 0.59288 0.88196 0.0
C3252 C 0.94375 0.58835 0.90517 0.0
C3253 C 0.96836 0.60389 0.89601 0.0
C3254 C 0.93113 0.59073 0.93458 0.0
C3255 C 0.89927 0.58257 0.92096 0.0
N3256 N 0.95526 0.60132 0.90721 0.0
N3257 N 0.91345 0.58267 0.91085 0.0
H3258 H 0.57531 0.98638 0.10853 0.0
H3259 H 0.62795 0.90551 0.07388 0.0
H3260 H 0.63055 0.98243 0.11031 0.0
H3261 H 0.57339 0.91177 0.06646 0.0
H3262 H 0.62915 0.93405 0.08669 0.0
H3263 H 0.57427 0.95942 0.09256 0.0
C3264 C 0.58723 0.97994 0.10548 0.0
C3265 C 0.60304 0.98667 0.1109 0.0
C3266 C 0.61693 0.92925 0.08215 0.0
C3267 C 0.60193 0.95571 0.09276 0.0
C3268 C 0.61624 0.91294 0.07483 0.0
C3269 C 0.60055 0.90623 0.06915 0.0
C3270 C 0.60179 0.93887 0.08394 0.0
C3271 C 0.58578 0.91646 0.07065 0.0
C3272 C 0.58662 0.96451 0.0964 0.0
C3273 C 0.61805 0.97762 0.10672 0.0
N3274 N 0.58674 0.93223 0.07803 0.0
N3275 N 0.61711 0.9626 0.09796 0.0
H3276 H 0.0894 0.56924 0.04901 0.0
H3277 H 0.03493 0.62639 0.11473 0.0
H3278 H 0.09787 0.6234 0.05711 0.0
H3279 H 0.02928 0.57151 0.1096 0.0
H3280 H 0.05683 0.62588 0.09236 0.0
H3281 H 0.06556 0.57029 0.06935 0.0
C3282 C 0.0861 0.5814 0.05488 0.0
C3283 C 0.09568 0.59625 0.05143 0.0
C3284 C 0.05078 0.61395 0.09612 0.0
C3285 C 0.06857 0.59749 0.07485 0.0
C3286 C 0.03836 0.61421 0.10901 0.0
C3287 C 0.03024 0.59897 0.1141 0.0
C3288 C 0.05513 0.59832 0.08826 0.0
C3289 C 0.03502 0.58361 0.10596 0.0
C3290 C 0.07255 0.58197 0.06657 0.0
C3291 C 0.09089 0.61163 0.05947 0.0
N3292 N 0.04716 0.58368 0.09347 0.0
N3293 N 0.07773 0.61183 0.07087 0.0
H3294 H 0.99488 0.36982 0.13432 0.0
H3295 H 0.92977 0.41696 0.07067 0.0
H3296 H 0.01036 0.41023 0.09965 0.0
H3297 H 0.91773 0.37043 0.09826 0.0
H3298 H 0.95922 0.4153 0.08153 0.0
H3299 H 0.9663 0.37047 0.12173 0.0
C3300 C 0.99237 0.37876 0.12401 0.0
C3301 C 0.00517 0.38999 0.11811 0.0
C3302 C 0.95014 0.40541 0.0851 0.0
C3303 C 0.97224 0.39095 0.10373 0.0
C3304 C 0.93334 0.40633 0.07889 0.0
C3305 C 0.92126 0.39383 0.08359 0.0
C3306 C 0.95482 0.39196 0.09617 0.0
C3307 C 0.92659 0.38037 0.09431 0.0
C3308 C 0.97597 0.37917 0.11685 0.0
C3309 C 0.00093 0.4015 0.10486 0.0
N3310 N 0.94293 0.37985 0.10031 0.0
N3311 N 0.98483 0.40171 0.09816 0.0
H3312 H 0.56719 0.86226 0.59568 0.0
H3313 H 0.60882 0.92022 0.52221 0.0
H3314 H 0.5575 0.91657 0.59048 0.0
H3315 H 0.61452 0.86517 0.52494 0.0
H3316 H 0.58926 0.91908 0.54661 0.0
H3317 H 0.5836 0.86293 0.56905 0.0
C3318 C 0.56839 0.8743 0.58884 0.0
C3319 C 0.56108 0.8894 0.59535 0.0
C3320 C 0.59475 0.90725 0.54183 0.0
C3321 C 0.57999 0.89031 0.56494 0.0
C3322 C 0.60589 0.90788 0.52785 0.0
C3323 C 0.61339 0.89277 0.52151 0.0
C3324 C 0.5911 0.8914 0.54958 0.0
C3325 C 0.60929 0.87717 0.52953 0.0
C3326 C 0.57778 0.87468 0.57364 0.0
C3327 C 0.56295 0.90463 0.58592 0.0
N3328 N 0.59846 0.8769 0.54317 0.0
N3329 N 0.57237 0.90472 0.57125 0.0
H3330 H 0.06962 0.60865 0.4801 0.0
H3331 H 0.1187 0.60524 0.56988 0.0
H3332 H 0.12317 0.62178 0.4859 0.0
H3333 H 0.06917 0.58197 0.56128 0.0
H3334 H 0.12016 0.61264 0.53944 0.0
H3335 H 0.06882 0.59998 0.51008 0.0
C3336 C 0.08128 0.60959 0.48758 0.0
C3337 C 0.09653 0.61592 0.48033 0.0
C3338 C 0.10901 0.60585 0.5442 0.0
C3339 C 0.09557 0.60624 0.51491 0.0
C3340 C 0.10815 0.60165 0.56157 0.0
C3341 C 0.09379 0.59298 0.56811 0.0
C3342 C 0.09534 0.60149 0.53331 0.0
C3343 C 0.08051 0.5886 0.55676 0.0
C3344 C 0.08077 0.6047 0.50477 0.0
C3345 C 0.11108 0.61717 0.4909 0.0
N3346 N 0.08157 0.59299 0.53992 0.0
N3347 N 0.11022 0.61241 0.50766 0.0
H3348 H 0.41648 0.11365 0.58919 0.0
H3349 H 0.38607 0.06253 0.50599 0.0
H3350 H 0.42532 0.05947 0.58163 0.0
H3351 H 0.38201 0.11754 0.51133 0.0
H3352 H 0.4016 0.06134 0.53308 0.0
H3353 H 0.40522 0.11559 0.56006 0.0
C3354 C 0.41622 0.10219 0.58133 0.0
C3355 C 0.4217 0.08634 0.58787 0.0
C3356 C 0.39739 0.07369 0.52828 0.0
C3357 C 0.40867 0.08844 0.55458 0.0
C3358 C 0.38856 0.0744 0.51276 0.0
C3359 C 0.38266 0.09017 0.50634 0.0
C3360 C 0.4003 0.08885 0.53754 0.0
C3361 C 0.38605 0.10507 0.51588 0.0
C3362 C 0.40977 0.1033 0.5647 0.0
C3363 C 0.42118 0.07193 0.5771 0.0
N3364 N 0.39459 0.10403 0.53103 0.0
N3365 N 0.41459 0.0733 0.56102 0.0
H3366 H 0.86206 0.38788 0.54258 0.0
H3367 H 0.91673 0.45852 0.59319 0.0
H3368 H 0.91653 0.39524 0.53571 0.0
H3369 H 0.86301 0.44857 0.60239 0.0
H3370 H 0.91633 0.43737 0.57003 0.0
H3371 H 0.86173 0.4116 0.56296 0.0
C3372 C 0.87397 0.39441 0.54541 0.0
C3373 C 0.88936 0.38947 0.53746 0.0
C3374 C 0.9046 0.43993 0.57702 0.0
C3375 C 0.88904 0.41686 0.56065 0.0
C3376 C 0.90479 0.45207 0.59018 0.0
C3377 C 0.8899 0.45523 0.5998 0.0
C3378 C 0.8894 0.43089 0.57347 0.0
C3379 C 0.87481 0.44646 0.59538 0.0
C3380 C 0.87376 0.40806 0.55697 0.0
C3381 C 0.90435 0.39868 0.5414 0.0
N3382 N 0.87498 0.43461 0.58261 0.0
N3383 N 0.90382 0.41189 0.55276 0.0
H3384 H 0.57269 0.13061 0.42108 0.0
H3385 H 0.60267 0.07463 0.50139 0.0
H3386 H 0.56395 0.07605 0.42529 0.0
H3387 H 0.60382 0.13005 0.50064 0.0
H3388 H 0.58809 0.07492 0.47373 0.0
H3389 H 0.58366 0.13077 0.45044 0.0
C3390 C 0.57294 0.11869 0.42823 0.0
C3391 C 0.56749 0.10328 0.4207 0.0
C3392 C 0.59146 0.08702 0.47967 0.0
C3393 C 0.58018 0.10333 0.45424 0.0
C3394 C 0.59975 0.08688 0.49553 0.0
C3395 C 0.6046 0.10234 0.50341 0.0
C3396 C 0.58805 0.10274 0.47154 0.0
C3397 C 0.60065 0.11779 0.49498 0.0
C3398 C 0.57921 0.11878 0.445 0.0
C3399 C 0.56804 0.08822 0.43058 0.0
N3400 N 0.59268 0.11759 0.47948 0.0
N3401 N 0.57443 0.08861 0.4468 0.0
H3402 H 0.91249 0.52866 0.40643 0.0
H3403 H 0.86539 0.61188 0.44186 0.0
H3404 H 0.86334 0.54623 0.38779 0.0
H3405 H 0.90615 0.58643 0.46963 0.0
H3406 H 0.86494 0.58817 0.4216 0.0
H3407 H 0.91075 0.54971 0.42968 0.0
C3408 C 0.90122 0.53676 0.40737 0.0
C3409 C 0.88809 0.53577 0.39508 0.0
C3410 C 0.87392 0.58775 0.4322 0.0
C3411 C 0.88618 0.56002 0.42142 0.0
C3412 C 0.87418 0.60132 0.44385 0.0
C3413 C 0.88585 0.60134 0.45759 0.0
C3414 C 0.88553 0.57412 0.43413 0.0
C3415 C 0.89709 0.58728 0.45918 0.0
C3416 C 0.90026 0.54879 0.42061 0.0
C3417 C 0.87381 0.54659 0.39691 0.0
N3418 N 0.8967 0.5743 0.44755 0.0
N3419 N 0.87333 0.55839 0.40971 0.0
H3420 H 0.4107 0.89173 0.38364 0.0
H3421 H 0.41392 0.86692 0.48079 0.0
H3422 H 0.45872 0.89573 0.41088 0.0
H3423 H 0.37382 0.90017 0.46234 0.0
H3424 H 0.42971 0.87144 0.45378 0.0
H3425 H 0.39567 0.88886 0.41117 0.0
C3426 C 0.41806 0.89186 0.39544 0.0
C3427 C 0.43592 0.89386 0.39513 0.0
C3428 C 0.41748 0.87775 0.45572 0.0
C3429 C 0.41895 0.89036 0.42634 0.0
C3430 C 0.40849 0.87511 0.47096 0.0
C3431 C 0.39264 0.88319 0.47357 0.0
C3432 C 0.41024 0.88811 0.44292 0.0
C3433 C 0.38605 0.89381 0.46066 0.0
C3434 C 0.40949 0.89036 0.41105 0.0
C3435 C 0.44491 0.8942 0.4107 0.0
N3436 N 0.39479 0.8958 0.4457 0.0
N3437 N 0.43633 0.89221 0.42577 0.0
H3438 H 0.12383 0.37628 0.51062 0.0
H3439 H 0.06702 0.41453 0.4339 0.0
H3440 H 0.06979 0.38763 0.51529 0.0
H3441 H 0.11938 0.39736 0.42811 0.0
H3442 H 0.0683 0.40689 0.46437 0.0
H3443 H 0.12287 0.38577 0.48081 0.0
C3444 C 0.11175 0.3807 0.5054 0.0
C3445 C 0.09688 0.38112 0.51555 0.0
C3446 C 0.07952 0.40486 0.45643 0.0
C3447 C 0.09572 0.39222 0.48139 0.0
C3448 C 0.07881 0.40927 0.43906 0.0
C3449 C 0.09309 0.40652 0.42844 0.0
C3450 C 0.09464 0.39772 0.46321 0.0
C3451 C 0.10802 0.39963 0.43579 0.0
C3452 C 0.11123 0.38622 0.48838 0.0
C3453 C 0.08164 0.38727 0.50809 0.0
N3454 N 0.10839 0.39544 0.45269 0.0
N3455 N 0.08146 0.39255 0.49147 0.0
H3456 H 0.57883 0.57701 0.92994 0.0
H3457 H 0.50097 0.59836 0.86649 0.0
H3458 H 0.5849 0.5854 0.8755 0.0
H3459 H 0.49731 0.60133 0.92173 0.0
H3460 H 0.53088 0.58958 0.86932 0.0
H3461 H 0.54792 0.58162 0.92684 0.0
C3462 C 0.57364 0.57967 0.91732 0.0
C3463 C 0.58445 0.58096 0.90297 0.0
C3464 C 0.52348 0.59208 0.88082 0.0
C3465 C 0.54918 0.58625 0.89935 0.0
C3466 C 0.5064 0.59719 0.87921 0.0
C3467 C 0.49655 0.60076 0.89388 0.0
C3468 C 0.53078 0.59046 0.8972 0.0
C3469 C 0.50426 0.59861 0.91004 0.0
C3470 C 0.55602 0.58236 0.91557 0.0
C3471 C 0.57705 0.58443 0.88693 0.0
N3472 N 0.52093 0.59367 0.91126 0.0
N3473 N 0.55988 0.58701 0.88556 0.0
H3474 H 0.39852 0.4814 0.91703 0.0
H3475 H 0.39781 0.57505 0.87529 0.0
H3476 H 0.36327 0.49716 0.87725 0.0
H3477 H 0.42663 0.56239 0.9209 0.0
H3478 H 0.38684 0.54579 0.87442 0.0
H3479 H 0.41048 0.51028 0.91742 0.0
C3480 C 0.39318 0.4909 0.90844 0.0
C3481 C 0.37974 0.48675 0.89714 0.0
C3482 C 0.39558 0.54938 0.88461 0.0
C3483 C 0.39367 0.51988 0.89735 0.0
C3484 C 0.4019 0.5661 0.8851 0.0
C3485 C 0.41314 0.57119 0.89821 0.0
C3486 C 0.40057 0.5376 0.89729 0.0
C3487 C 0.41798 0.55901 0.91056 0.0
C3488 C 0.40012 0.5074 0.90861 0.0
C3489 C 0.3737 0.49962 0.88606 0.0
N3490 N 0.41165 0.54276 0.90981 0.0
N3491 N 0.3807 0.51558 0.88645 0.0
H3492 H 0.50545 0.41086 0.91781 0.0
H3493 H 0.41164 0.39842 0.87817 0.0
H3494 H 0.49425 0.37915 0.87376 0.0
H3495 H 0.42108 0.42509 0.92582 0.0
H3496 H 0.4423 0.39319 0.87532 0.0
H3497 H 0.47502 0.41791 0.92004 0.0
C3498 C 0.49664 0.40532 0.90863 0.0
C3499 C 0.5025 0.3943 0.89561 0.0
C3500 C 0.4377 0.40022 0.8864 0.0
C3501 C 0.46762 0.40254 0.89798 0.0
C3502 C 0.42017 0.40323 0.88804 0.0
C3503 C 0.41377 0.41215 0.9023 0.0
C3504 C 0.44899 0.40616 0.89911 0.0
C3505 C 0.42547 0.41812 0.91463 0.0
C3506 C 0.47925 0.40944 0.90987 0.0
C3507 C 0.49044 0.38783 0.88389 0.0
N3508 N 0.44254 0.41498 0.91277 0.0
N3509 N 0.4736 0.39201 0.88539 0.0
H3510 H 0.59048 0.42864 0.87337 0.0
H3511 H 0.61823 0.51069 0.92792 0.0
H3512 H 0.57837 0.4352 0.92704 0.0
H3513 H 0.62294 0.50788 0.87278 0.0
H3514 H 0.60419 0.4828 0.92788 0.0
H3515 H 0.60267 0.45748 0.87287 0.0
C3516 C 0.59027 0.43621 0.88503 0.0
C3517 C 0.58345 0.4295 0.90029 0.0
C3518 C 0.60824 0.4883 0.91578 0.0
C3519 C 0.59755 0.46246 0.89984 0.0
C3520 C 0.61623 0.50429 0.91577 0.0
C3521 C 0.6217 0.51176 0.9003 0.0
C3522 C 0.60577 0.4796 0.90022 0.0
C3523 C 0.61909 0.50259 0.88502 0.0
C3524 C 0.59725 0.45267 0.88473 0.0
C3525 C 0.58347 0.43989 0.91499 0.0
N3526 N 0.61131 0.48698 0.88536 0.0
N3527 N 0.59054 0.45582 0.91443 0.0
H3528 H 0.5945 0.45615 0.0749 0.0
H3529 H 0.52896 0.40216 0.13224 0.0
H3530 H 0.59495 0.45512 0.1303 0.0
H3531 H 0.52944 0.4006 0.07689 0.0
H3532 H 0.55089 0.42439 0.13155 0.0
H3533 H 0.5682 0.43902 0.07515 0.0
C3534 C 0.58891 0.45258 0.08712 0.0
C3535 C 0.597 0.45689 0.10262 0.0
C3536 C 0.54617 0.41927 0.11953 0.0
C3537 C 0.56709 0.4372 0.10298 0.0
C3538 C 0.53373 0.40646 0.11993 0.0
C3539 C 0.52756 0.39933 0.10461 0.0
C3540 C 0.55259 0.42495 0.10369 0.0
C3541 C 0.53385 0.40576 0.089 0.0
C3542 C 0.57395 0.44273 0.08724 0.0
C3543 C 0.58923 0.4519 0.11805 0.0
N3544 N 0.54616 0.41811 0.08893 0.0
N3545 N 0.5748 0.4422 0.11784 0.0
H3546 H 0.55729 0.60226 0.13018 0.0
H3547 H 0.61223 0.53322 0.07784 0.0
H3548 H 0.55145 0.59338 0.0758 0.0
H3549 H 0.61409 0.5385 0.13296 0.0
H3550 H 0.59029 0.55552 0.07675 0.0
H3551 H 0.57821 0.57899 0.13143 0.0
C3552 C 0.56031 0.59532 0.11852 0.0
C3553 C 0.55263 0.59977 0.10286 0.0
C3554 C 0.5955 0.55179 0.08909 0.0
C3555 C 0.57671 0.57322 0.10416 0.0
C3556 C 0.60801 0.53901 0.08973 0.0
C3557 C 0.61501 0.53389 0.10553 0.0
C3558 C 0.58995 0.55957 0.10435 0.0
C3559 C 0.60924 0.54212 0.12048 0.0
C3560 C 0.57229 0.58205 0.11924 0.0
C3561 C 0.55702 0.59034 0.08816 0.0
N3562 N 0.59703 0.55453 0.11952 0.0
N3563 N 0.56885 0.57757 0.08916 0.0
H3564 H 0.40134 0.54498 0.12921 0.0
H3565 H 0.46903 0.59877 0.07438 0.0
H3566 H 0.40357 0.5437 0.07387 0.0
H3567 H 0.46703 0.59836 0.12972 0.0
H3568 H 0.44722 0.57618 0.07379 0.0
H3569 H 0.42766 0.56187 0.12958 0.0
C3570 C 0.40749 0.54808 0.11714 0.0
C3571 C 0.40016 0.54311 0.10149 0.0
C3572 C 0.45165 0.58096 0.08606 0.0
C3573 C 0.43018 0.56265 0.10178 0.0
C3574 C 0.46413 0.59382 0.0864 0.0
C3575 C 0.46967 0.60064 0.10212 0.0
C3576 C 0.4447 0.5749 0.10156 0.0
C3577 C 0.46284 0.5938 0.11731 0.0
C3578 C 0.42252 0.55776 0.11734 0.0
C3579 C 0.40876 0.54735 0.08623 0.0
N3580 N 0.45065 0.5814 0.11664 0.0
N3581 N 0.42322 0.55708 0.08674 0.0
H3582 H 0.43939 0.3991 0.13068 0.0
H3583 H 0.3842 0.46622 0.07631 0.0
H3584 H 0.44628 0.4078 0.07638 0.0
H3585 H 0.38164 0.46235 0.13151 0.0
H3586 H 0.40638 0.4442 0.07607 0.0
H3587 H 0.41798 0.42197 0.13131 0.0
C3588 C 0.43651 0.40593 0.11892 0.0
C3589 C 0.44461 0.40154 0.10345 0.0
C3590 C 0.40098 0.44816 0.08824 0.0
C3591 C 0.41999 0.42756 0.10404 0.0
C3592 C 0.38832 0.46077 0.0884 0.0
C3593 C 0.38112 0.46625 0.10397 0.0
C3594 C 0.40646 0.44089 0.10378 0.0
C3595 C 0.38672 0.45844 0.1192 0.0
C3596 C 0.42426 0.41896 0.11928 0.0
C3597 C 0.44039 0.41081 0.0886 0.0
N3598 N 0.3991 0.44617 0.11873 0.0
N3599 N 0.42829 0.42332 0.08925 0.0
H3600 H 0.86505 0.60959 0.55261 0.0
H3601 H 0.90674 0.52392 0.59013 0.0
H3602 H 0.91198 0.58769 0.53286 0.0
H3603 H 0.8686 0.55399 0.61695 0.0
H3604 H 0.90674 0.54506 0.56715 0.0
H3605 H 0.86371 0.58674 0.57393 0.0
C3606 C 0.875 0.59988 0.55264 0.0
C3607 C 0.88872 0.6006 0.54101 0.0
C3608 C 0.89838 0.54699 0.57808 0.0
C3609 C 0.88728 0.57446 0.56546 0.0
C3610 C 0.89843 0.53496 0.59133 0.0
C3611 C 0.88768 0.53712 0.60568 0.0
C3612 C 0.88743 0.56123 0.57906 0.0
C3613 C 0.87696 0.5516 0.60614 0.0
C3614 C 0.87426 0.58688 0.56488 0.0
C3615 C 0.90121 0.58764 0.54163 0.0
N3616 N 0.87711 0.56308 0.59304 0.0
N3617 N 0.90023 0.57511 0.55373 0.0
H3618 H 0.91835 0.45673 0.39278 0.0
H3619 H 0.86346 0.38886 0.44658 0.0
H3620 H 0.86445 0.44729 0.38417 0.0
H3621 H 0.9163 0.40135 0.45762 0.0
H3622 H 0.86322 0.41095 0.42435 0.0
H3623 H 0.91767 0.43685 0.41692 0.0
C3624 C 0.90635 0.45053 0.39599 0.0
C3625 C 0.89143 0.45373 0.38641 0.0
C3626 C 0.87482 0.40896 0.43174 0.0
C3627 C 0.89057 0.43082 0.41403 0.0
C3628 C 0.87495 0.39639 0.44447 0.0
C3629 C 0.88994 0.39321 0.45391 0.0
C3630 C 0.88983 0.41834 0.42835 0.0
C3631 C 0.90445 0.40337 0.45065 0.0
C3632 C 0.90597 0.43914 0.40977 0.0
C3633 C 0.87631 0.44508 0.39102 0.0
N3634 N 0.90407 0.41538 0.43804 0.0
N3635 N 0.87627 0.43402 0.4045 0.0
H3636 H 0.52094 0.92226 0.39171 0.0
H3637 H 0.59587 0.86937 0.43757 0.0
H3638 H 0.5288 0.86781 0.38527 0.0
H3639 H 0.58842 0.92387 0.44429 0.0
H3640 H 0.56973 0.86821 0.42042 0.0
H3641 H 0.54416 0.92281 0.41273 0.0
C3642 C 0.52744 0.91039 0.39481 0.0
C3643 C 0.52294 0.89496 0.38664 0.0
C3644 C 0.57371 0.8804 0.42576 0.0
C3645 C 0.54965 0.89553 0.41062 0.0
C3646 C 0.58862 0.88107 0.43559 0.0
C3647 C 0.59439 0.89676 0.44226 0.0
C3648 C 0.56453 0.89556 0.42245 0.0
C3649 C 0.58444 0.9115 0.43938 0.0
C3650 C 0.54075 0.91072 0.40678 0.0
C3651 C 0.532 0.88003 0.39101 0.0
N3652 N 0.57006 0.91056 0.42954 0.0
N3653 N 0.54494 0.8807 0.40267 0.0
H3654 H 0.07294 0.48463 0.39153 0.0
H3655 H 0.12514 0.57176 0.40383 0.0
H3656 H 0.12834 0.48685 0.39175 0.0
H3657 H 0.07083 0.56686 0.41367 0.0
H3658 H 0.12672 0.54075 0.39912 0.0
H3659 H 0.07202 0.51479 0.39944 0.0
C3660 C 0.08494 0.49134 0.39339 0.0
C3661 C 0.10076 0.48304 0.39092 0.0
C3662 C 0.11449 0.54646 0.40244 0.0
C3663 C 0.09974 0.51787 0.39973 0.0
C3664 C 0.11358 0.56415 0.40511 0.0
C3665 C 0.09783 0.57192 0.40909 0.0
C3666 C 0.09952 0.53649 0.4036 0.0
C3667 C 0.08326 0.56143 0.41063 0.0
C3668 C 0.08439 0.50865 0.39785 0.0
C3669 C 0.11584 0.49267 0.39324 0.0
N3670 N 0.08444 0.54429 0.40776 0.0
N3671 N 0.11495 0.50958 0.39744 0.0
H3672 H 0.48419 0.12843 0.3885 0.0
H3673 H 0.41721 0.06443 0.43301 0.0
H3674 H 0.49232 0.07384 0.39343 0.0
H3675 H 0.40685 0.11797 0.4231 0.0
H3676 H 0.44598 0.06817 0.42101 0.0
H3677 H 0.45666 0.12528 0.40312 0.0
C3678 C 0.48018 0.11578 0.39258 0.0
C3679 C 0.49062 0.10139 0.38971 0.0
C3680 C 0.43743 0.07912 0.42156 0.0
C3681 C 0.45921 0.0977 0.40666 0.0
C3682 C 0.42105 0.077 0.42847 0.0
C3683 C 0.4096 0.09089 0.42895 0.0
C3684 C 0.44238 0.09523 0.41512 0.0
C3685 C 0.41522 0.10688 0.42287 0.0
C3686 C 0.46451 0.114 0.40104 0.0
C3687 C 0.48485 0.08534 0.39556 0.0
N3688 N 0.43119 0.1086 0.41614 0.0
N3689 N 0.46953 0.08393 0.40372 0.0
H3690 H 0.11569 0.51202 0.58426 0.0
H3691 H 0.09767 0.42032 0.62199 0.0
H3692 H 0.08333 0.50596 0.62865 0.0
H3693 H 0.09212 0.42876 0.56755 0.0
H3694 H 0.09964 0.45144 0.62629 0.0
H3695 H 0.11421 0.48079 0.57931 0.0
C3696 C 0.10839 0.50403 0.59298 0.0
C3697 C 0.0996 0.51134 0.60685 0.0
C3698 C 0.09807 0.44641 0.61342 0.0
C3699 C 0.09816 0.47607 0.60155 0.0
C3700 C 0.09706 0.42874 0.61094 0.0
C3701 C 0.09475 0.42209 0.59439 0.0
C3702 C 0.09725 0.45738 0.59921 0.0
C3703 C 0.09385 0.43349 0.5805 0.0
C3704 C 0.10748 0.48637 0.59012 0.0
C3705 C 0.09019 0.50065 0.6178 0.0
N3706 N 0.09528 0.45067 0.58319 0.0
N3707 N 0.08986 0.48345 0.61504 0.0
H3708 H 0.49774 0.063 0.61639 0.0
H3709 H 0.57754 0.12099 0.58854 0.0
H3710 H 0.49941 0.11802 0.62273 0.0
H3711 H 0.57366 0.06691 0.57711 0.0
H3712 H 0.54878 0.12016 0.60086 0.0
H3713 H 0.52544 0.06414 0.60191 0.0
C3714 C 0.50384 0.07534 0.61466 0.0
C3715 C 0.49615 0.09045 0.6208 0.0
C3716 C 0.55416 0.10849 0.59556 0.0
C3717 C 0.52804 0.09181 0.60435 0.0
C3718 C 0.57058 0.10895 0.58851 0.0
C3719 C 0.57801 0.09398 0.58183 0.0
C3720 C 0.54512 0.09291 0.59606 0.0
C3721 C 0.56839 0.07877 0.58209 0.0
C3722 C 0.51972 0.07597 0.60643 0.0
C3723 C 0.50489 0.10603 0.61844 0.0
N3724 N 0.55247 0.0786 0.58921 0.0
N3725 N 0.52037 0.10629 0.61042 0.0
H3726 H 0.49029 0.90315 0.59605 0.0
H3727 H 0.40063 0.85925 0.57342 0.0
H3728 H 0.46738 0.86239 0.62587 0.0
H3729 H 0.41718 0.90712 0.5509 0.0
H3730 H 0.42673 0.85856 0.59053 0.0
H3731 H 0.46506 0.9034 0.5776 0.0
C3732 C 0.47997 0.89431 0.59885 0.0
C3733 C 0.48103 0.88275 0.61267 0.0
C3734 C 0.42469 0.8692 0.58183 0.0
C3735 C 0.4522 0.88281 0.59129 0.0
C3736 C 0.40981 0.86959 0.57199 0.0
C3737 C 0.4067 0.88331 0.56075 0.0
C3738 C 0.43664 0.88259 0.58041 0.0
C3739 C 0.41908 0.89631 0.55943 0.0
C3740 C 0.46559 0.89442 0.5882 0.0
C3741 C 0.4673 0.87139 0.61531 0.0
N3742 N 0.43353 0.89565 0.56919 0.0
N3743 N 0.45348 0.8717 0.60472 0.0
loop_
_geom_bond_atom_site_label_1
_geom_bond_atom_site_label_2
_geom_bond_distance
_geom_bond_site_symmetry_2
_ccdc_geom_bond_type
C0 C1 1.351 . S
C0 N3 1.368 . S
C0 H5 0.931 . S
C1 C0 1.351 . S
C1 N2 1.373 . S
C1 H29 0.930 . S
N2 C1 1.373 . S
N2 C4 1.340 . S
N3 C0 1.368 . S
N3 C4 1.321 . S
N3 Co6 2.135 . S
C4 N2 1.340 . S
C4 N3 1.321 . S
C4 H28 0.930 . S
H5 C0 0.931 . S
Co6 N3 2.135 . S
Co6 N9 2.121 . S
Co6 O14 2.055 . S
Co6 O17 2.039 . S
Co6 N20 2.140 . S
C7 O8 1.227 . S
C7 O17 1.265 . S
O8 C7 1.227 . S
N9 Co6 2.121 . S
N9 C11 1.375 . S
N9 C12 1.313 . S
C10 C11 1.338 . S
C10 N13 1.377 . S
C10 H30 0.930 . S
C11 N9 1.375 . S
C11 C10 1.338 . S
C11 H15 0.931 . S
C12 N9 1.313 . S
C12 N13 1.344 . S
C12 H16 0.930 . S
N13 C10 1.377 . S
N13 C12 1.344 . S
O14 Co6 2.055 . S
O14 C18 1.253 . S
H15 C11 0.931 . S
H16 C12 0.930 . S
O17 Co6 2.039 . S
O17 C7 1.265 . S
C18 O14 1.253 . S
C18 O19 1.227 . S
O19 C18 1.227 . S
N20 Co6 2.140 . S
N20 C23 1.346 . S
N20 C24 1.345 . S
C21 C22 1.387 . S
C21 C25 1.391 . S
C22 C21 1.387 . S
C22 C23 1.369 . S
C22 H31 0.929 . S
C23 N20 1.346 . S
C23 C22 1.369 . S
C23 H26 0.928 . S
C24 N20 1.345 . S
C24 C25 1.371 . S
C24 H27 0.931 . S
C25 C21 1.391 . S
C25 C24 1.371 . S
C25 H32 0.930 . S
H26 C23 0.928 . S
H27 C24 0.931 . S
H28 C4 0.930 . S
H29 C1 0.930 . S
H30 C10 0.930 . S
H31 C22 0.929 . S
H32 C25 0.930 . S
C33 C34 1.351 . S
C33 N36 1.368 . S
C33 H38 0.931 . S
C34 C33 1.351 . S
C34 N35 1.373 . S
C34 H62 0.930 . S
N35 C34 1.373 . S
N35 C37 1.340 . S
N36 C33 1.368 . S
N36 C37 1.321 . S
N36 Co39 2.135 . S
C37 N35 1.340 . S
C37 N36 1.321 . S
C37 H61 0.930 . S
H38 C33 0.931 . S
Co39 N36 2.135 . S
Co39 N42 2.121 . S
Co39 O47 2.055 . S
Co39 O50 2.039 . S
Co39 N53 2.140 . S
C40 O41 1.227 . S
C40 O50 1.265 . S
O41 C40 1.227 . S
N42 Co39 2.121 . S
N42 C44 1.375 . S
N42 C45 1.313 . S
C43 C44 1.338 . S
C43 N46 1.377 . S
C43 H63 0.930 . S
C44 N42 1.375 . S
C44 C43 1.338 . S
C44 H48 0.931 . S
C45 N42 1.313 . S
C45 N46 1.344 . S
C45 H49 0.930 . S
N46 C43 1.377 . S
N46 C45 1.344 . S
O47 Co39 2.055 . S
O47 C51 1.253 . S
H48 C44 0.931 . S
H49 C45 0.930 . S
O50 Co39 2.039 . S
O50 C40 1.265 . S
C51 O47 1.253 . S
C51 O52 1.227 . S
O52 C51 1.227 . S
N53 Co39 2.140 . S
N53 C56 1.346 . S
N53 C57 1.345 . S
C54 C55 1.387 . S
C54 C58 1.391 . S
C55 C54 1.387 . S
C55 C56 1.369 . S
C55 H64 0.929 . S
C56 N53 1.346 . S
C56 C55 1.369 . S
C56 H59 0.928 . S
C57 N53 1.345 . S
C57 C58 1.371 . S
C57 H60 0.931 . S
C58 C54 1.391 . S
C58 C57 1.371 . S
C58 H65 0.930 . S
H59 C56 0.928 . S
H60 C57 0.931 . S
H61 C37 0.930 . S
H62 C34 0.930 . S
H63 C43 0.930 . S
H64 C55 0.929 . S
H65 C58 0.930 . S
C66 C67 1.351 . S
C66 N69 1.368 . S
C66 H71 0.931 . S
C67 C66 1.351 . S
C67 N68 1.373 . S
C67 H95 0.930 . S
N68 C67 1.373 . S
N68 C70 1.340 . S
N69 C66 1.368 . S
N69 C70 1.321 . S
N69 Co72 2.135 . S
C70 N68 1.340 . S
C70 N69 1.321 . S
C70 H94 0.930 . S
H71 C66 0.931 . S
Co72 N69 2.135 . S
Co72 N75 2.121 . S
Co72 O80 2.055 . S
Co72 O83 2.039 . S
Co72 N86 2.140 . S
C73 O74 1.227 . S
C73 O83 1.265 . S
O74 C73 1.227 . S
N75 Co72 2.121 . S
N75 C77 1.375 . S
N75 C78 1.313 . S
C76 C77 1.338 . S
C76 N79 1.377 . S
C76 H96 0.930 . S
C77 N75 1.375 . S
C77 C76 1.338 . S
C77 H81 0.931 . S
C78 N75 1.313 . S
C78 N79 1.344 . S
C78 H82 0.930 . S
N79 C76 1.377 . S
N79 C78 1.344 . S
O80 Co72 2.055 . S
O80 C84 1.253 . S
H81 C77 0.931 . S
H82 C78 0.930 . S
O83 Co72 2.039 . S
O83 C73 1.265 . S
C84 O80 1.253 . S
C84 O85 1.227 . S
O85 C84 1.227 . S
N86 Co72 2.140 . S
N86 C89 1.346 . S
N86 C90 1.345 . S
C87 C88 1.387 . S
C87 C91 1.391 . S
C88 C87 1.387 . S
C88 C89 1.369 . S
C88 H97 0.929 . S
C89 N86 1.346 . S
C89 C88 1.369 . S
C89 H92 0.928 . S
C90 N86 1.345 . S
C90 C91 1.371 . S
C90 H93 0.931 . S
C91 C87 1.391 . S
C91 C90 1.371 . S
C91 H98 0.930 . S
H92 C89 0.928 . S
H93 C90 0.931 . S
H94 C70 0.930 . S
H95 C67 0.930 . S
H96 C76 0.930 . S
H97 C88 0.929 . S
H98 C91 0.930 . S
C99 C100 1.351 . S
C99 N102 1.368 . S
C99 H104 0.931 . S
C100 C99 1.351 . S
C100 N101 1.373 . S
C100 H128 0.930 . S
N101 C100 1.373 . S
N101 C103 1.340 . S
N102 C99 1.368 . S
N102 C103 1.321 . S
N102 Co105 2.135 . S
C103 N101 1.340 . S
C103 N102 1.321 . S
C103 H127 0.930 . S
H104 C99 0.931 . S
Co105 N102 2.135 . S
Co105 N108 2.121 . S
Co105 O113 2.055 . S
Co105 O116 2.039 . S
Co105 N119 2.140 . S
C106 O107 1.227 . S
C106 O116 1.265 . S
O107 C106 1.227 . S
N108 Co105 2.121 . S
N108 C110 1.375 . S
N108 C111 1.313 . S
C109 C110 1.338 . S
C109 N112 1.377 . S
C109 H129 0.930 . S
C110 N108 1.375 . S
C110 C109 1.338 . S
C110 H114 0.931 . S
C111 N108 1.313 . S
C111 N112 1.344 . S
C111 H115 0.930 . S
N112 C109 1.377 . S
N112 C111 1.344 . S
O113 Co105 2.055 . S
O113 C117 1.253 . S
H114 C110 0.931 . S
H115 C111 0.930 . S
O116 Co105 2.039 . S
O116 C106 1.265 . S
C117 O113 1.253 . S
C117 O118 1.227 . S
O118 C117 1.227 . S
N119 Co105 2.140 . S
N119 C122 1.346 . S
N119 C123 1.345 . S
C120 C121 1.387 . S
C120 C124 1.391 . S
C121 C120 1.387 . S
C121 C122 1.369 . S
C121 H130 0.929 . S
C122 N119 1.346 . S
C122 C121 1.369 . S
C122 H125 0.928 . S
C123 N119 1.345 . S
C123 C124 1.371 . S
C123 H126 0.931 . S
C124 C120 1.391 . S
C124 C123 1.371 . S
C124 H131 0.930 . S
H125 C122 0.928 . S
H126 C123 0.931 . S
H127 C103 0.930 . S
H128 C100 0.930 . S
H129 C109 0.930 . S
H130 C121 0.929 . S
H131 C124 0.930 . S
C132 C133 1.351 . S
C132 N135 1.368 . S
C132 H137 0.931 . S
C133 C132 1.351 . S
C133 N134 1.373 . S
C133 H161 0.930 . S
N134 C133 1.373 . S
N134 C136 1.340 . S
N135 C132 1.368 . S
N135 C136 1.321 . S
N135 Co138 2.135 . S
C136 N134 1.340 . S
C136 N135 1.321 . S
C136 H160 0.930 . S
H137 C132 0.931 . S
Co138 N135 2.135 . S
Co138 N141 2.121 . S
Co138 O146 2.055 . S
Co138 O149 2.039 . S
Co138 N152 2.140 . S
C139 O140 1.227 . S
C139 O149 1.265 . S
O140 C139 1.227 . S
N141 Co138 2.121 . S
N141 C143 1.375 . S
N141 C144 1.313 . S
C142 C143 1.338 . S
C142 N145 1.377 . S
C142 H162 0.930 . S
C143 N141 1.375 . S
C143 C142 1.338 . S
C143 H147 0.931 . S
C144 N141 1.313 . S
C144 N145 1.344 . S
C144 H148 0.930 . S
N145 C142 1.377 . S
N145 C144 1.344 . S
O146 Co138 2.055 . S
O146 C150 1.253 . S
H147 C143 0.931 . S
H148 C144 0.930 . S
O149 Co138 2.039 . S
O149 C139 1.265 . S
C150 O146 1.253 . S
C150 O151 1.227 . S
O151 C150 1.227 . S
N152 Co138 2.140 . S
N152 C155 1.346 . S
N152 C156 1.345 . S
C153 C154 1.387 . S
C153 C157 1.391 . S
C154 C153 1.387 . S
C154 C155 1.369 . S
C154 H163 0.929 . S
C155 N152 1.346 . S
C155 C154 1.369 . S
C155 H158 0.928 . S
C156 N152 1.345 . S
C156 C157 1.371 . S
C156 H159 0.931 . S
C157 C153 1.391 . S
C157 C156 1.371 . S
C157 H164 0.930 . S
H158 C155 0.928 . S
H159 C156 0.931 . S
H160 C136 0.930 . S
H161 C133 0.930 . S
H162 C142 0.930 . S
H163 C154 0.929 . S
H164 C157 0.930 . S
C165 C166 1.351 . S
C165 N168 1.368 . S
C165 H170 0.931 . S
C166 C165 1.351 . S
C166 N167 1.373 . S
C166 H194 0.930 . S
N167 C166 1.373 . S
N167 C169 1.340 . S
N168 C165 1.368 . S
N168 C169 1.321 . S
N168 Co171 2.135 . S
C169 N167 1.340 . S
C169 N168 1.321 . S
C169 H193 0.930 . S
H170 C165 0.931 . S
Co171 N168 2.135 . S
Co171 N174 2.121 . S
Co171 O179 2.055 . S
Co171 O182 2.039 . S
Co171 N185 2.140 . S
C172 O173 1.227 . S
C172 O182 1.265 . S
O173 C172 1.227 . S
N174 Co171 2.121 . S
N174 C176 1.375 . S
N174 C177 1.313 . S
C175 C176 1.338 . S
C175 N178 1.377 . S
C175 H195 0.930 . S
C176 N174 1.375 . S
C176 C175 1.338 . S
C176 H180 0.931 . S
C177 N174 1.313 . S
C177 N178 1.344 . S
C177 H181 0.930 . S
N178 C175 1.377 . S
N178 C177 1.344 . S
O179 Co171 2.055 . S
O179 C183 1.253 . S
H180 C176 0.931 . S
H181 C177 0.930 . S
O182 Co171 2.039 . S
O182 C172 1.265 . S
C183 O179 1.253 . S
C183 O184 1.227 . S
O184 C183 1.227 . S
N185 Co171 2.140 . S
N185 C188 1.346 . S
N185 C189 1.345 . S
C186 C187 1.387 . S
C186 C190 1.391 . S
C187 C186 1.387 . S
C187 C188 1.369 . S
C187 H196 0.929 . S
C188 N185 1.346 . S
C188 C187 1.369 . S
C188 H191 0.928 . S
C189 N185 1.345 . S
C189 C190 1.371 . S
C189 H192 0.931 . S
C190 C186 1.391 . S
C190 C189 1.371 . S
C190 H197 0.930 . S
H191 C188 0.928 . S
H192 C189 0.931 . S
H193 C169 0.930 . S
H194 C166 0.930 . S
H195 C175 0.930 . S
H196 C187 0.929 . S
H197 C190 0.930 . S
C198 C199 1.351 . S
C198 N201 1.368 . S
C198 H203 0.931 . S
C199 C198 1.351 . S
C199 N200 1.373 . S
C199 H227 0.930 . S
N200 C199 1.373 . S
N200 C202 1.340 . S
N201 C198 1.368 . S
N201 C202 1.321 . S
N201 Co204 2.135 . S
C202 N200 1.340 . S
C202 N201 1.321 . S
C202 H226 0.930 . S
H203 C198 0.931 . S
Co204 N201 2.135 . S
Co204 N207 2.121 . S
Co204 O212 2.055 . S
Co204 O215 2.039 . S
Co204 N218 2.140 . S
C205 O206 1.227 . S
C205 O215 1.265 . S
O206 C205 1.227 . S
N207 Co204 2.121 . S
N207 C209 1.375 . S
N207 C210 1.313 . S
C208 C209 1.338 . S
C208 N211 1.377 . S
C208 H228 0.930 . S
C209 N207 1.375 . S
C209 C208 1.338 . S
C209 H213 0.931 . S
C210 N207 1.313 . S
C210 N211 1.344 . S
C210 H214 0.930 . S
N211 C208 1.377 . S
N211 C210 1.344 . S
O212 Co204 2.055 . S
O212 C216 1.253 . S
H213 C209 0.931 . S
H214 C210 0.930 . S
O215 Co204 2.039 . S
O215 C205 1.265 . S
C216 O212 1.253 . S
C216 O217 1.227 . S
O217 C216 1.227 . S
N218 Co204 2.140 . S
N218 C221 1.346 . S
N218 C222 1.345 . S
C219 C220 1.387 . S
C219 C223 1.391 . S
C220 C219 1.387 . S
C220 C221 1.369 . S
C220 H229 0.929 . S
C221 N218 1.346 . S
C221 C220 1.369 . S
C221 H224 0.928 . S
C222 N218 1.345 . S
C222 C223 1.371 . S
C222 H225 0.931 . S
C223 C219 1.391 . S
C223 C222 1.371 . S
C223 H230 0.930 . S
H224 C221 0.928 . S
H225 C222 0.931 . S
H226 C202 0.930 . S
H227 C199 0.930 . S
H228 C208 0.930 . S
H229 C220 0.929 . S
H230 C223 0.930 . S
C231 C232 1.351 . S
C231 N234 1.368 . S
C231 H236 0.931 . S
C232 C231 1.351 . S
C232 N233 1.373 . S
C232 H260 0.930 . S
N233 C232 1.373 . S
N233 C235 1.340 . S
N234 C231 1.368 . S
N234 C235 1.321 . S
N234 Co237 2.135 . S
C235 N233 1.340 . S
C235 N234 1.321 . S
C235 H259 0.930 . S
H236 C231 0.931 . S
Co237 N234 2.135 . S
Co237 N240 2.121 . S
Co237 O245 2.055 . S
Co237 O248 2.039 . S
Co237 N251 2.140 . S
C238 O239 1.227 . S
C238 O248 1.265 . S
O239 C238 1.227 . S
N240 Co237 2.121 . S
N240 C242 1.375 . S
N240 C243 1.313 . S
C241 C242 1.338 . S
C241 N244 1.377 . S
C241 H261 0.930 . S
C242 N240 1.375 . S
C242 C241 1.338 . S
C242 H246 0.931 . S
C243 N240 1.313 . S
C243 N244 1.344 . S
C243 H247 0.930 . S
N244 C241 1.377 . S
N244 C243 1.344 . S
O245 Co237 2.055 . S
O245 C249 1.253 . S
H246 C242 0.931 . S
H247 C243 0.930 . S
O248 Co237 2.039 . S
O248 C238 1.265 . S
C249 O245 1.253 . S
C249 O250 1.227 . S
O250 C249 1.227 . S
N251 Co237 2.140 . S
N251 C254 1.346 . S
N251 C255 1.345 . S
C252 C253 1.387 . S
C252 C256 1.391 . S
C253 C252 1.387 . S
C253 C254 1.369 . S
C253 H262 0.929 . S
C254 N251 1.346 . S
C254 C253 1.369 . S
C254 H257 0.928 . S
C255 N251 1.345 . S
C255 C256 1.371 . S
C255 H258 0.931 . S
C256 C252 1.391 . S
C256 C255 1.371 . S
C256 H263 0.930 . S
H257 C254 0.928 . S
H258 C255 0.931 . S
H259 C235 0.930 . S
H260 C232 0.930 . S
H261 C241 0.930 . S
H262 C253 0.929 . S
H263 C256 0.930 . S
C264 C265 1.351 . S
C264 N267 1.368 . S
C264 H269 0.931 . S
C265 C264 1.351 . S
C265 N266 1.373 . S
C265 H293 0.930 . S
N266 C265 1.373 . S
N266 C268 1.340 . S
N267 C264 1.368 . S
N267 C268 1.321 . S
N267 Co270 2.135 . S
C268 N266 1.340 . S
C268 N267 1.321 . S
C268 H292 0.930 . S
H269 C264 0.931 . S
Co270 N267 2.135 . S
Co270 N273 2.121 . S
Co270 O278 2.055 . S
Co270 O281 2.039 . S
Co270 N284 2.140 . S
C271 O272 1.227 . S
C271 O281 1.265 . S
O272 C271 1.227 . S
N273 Co270 2.121 . S
N273 C275 1.375 . S
N273 C276 1.313 . S
C274 C275 1.338 . S
C274 N277 1.377 . S
C274 H294 0.930 . S
C275 N273 1.375 . S
C275 C274 1.338 . S
C275 H279 0.931 . S
C276 N273 1.313 . S
C276 N277 1.344 . S
C276 H280 0.930 . S
N277 C274 1.377 . S
N277 C276 1.344 . S
O278 Co270 2.055 . S
O278 C282 1.253 . S
H279 C275 0.931 . S
H280 C276 0.930 . S
O281 Co270 2.039 . S
O281 C271 1.265 . S
C282 O278 1.253 . S
C282 O283 1.227 . S
O283 C282 1.227 . S
N284 Co270 2.140 . S
N284 C287 1.346 . S
N284 C288 1.345 . S
C285 C286 1.387 . S
C285 C289 1.391 . S
C286 C285 1.387 . S
C286 C287 1.369 . S
C286 H295 0.929 . S
C287 N284 1.346 . S
C287 C286 1.369 . S
C287 H290 0.928 . S
C288 N284 1.345 . S
C288 C289 1.371 . S
C288 H291 0.931 . S
C289 C285 1.391 . S
C289 C288 1.371 . S
C289 H296 0.930 . S
H290 C287 0.928 . S
H291 C288 0.931 . S
H292 C268 0.930 . S
H293 C265 0.930 . S
H294 C274 0.930 . S
H295 C286 0.929 . S
H296 C289 0.930 . S
C297 C298 1.351 . S
C297 N300 1.368 . S
C297 H302 0.931 . S
C298 C297 1.351 . S
C298 N299 1.373 . S
C298 H326 0.930 . S
N299 C298 1.373 . S
N299 C301 1.340 . S
N300 C297 1.368 . S
N300 C301 1.321 . S
N300 Co303 2.135 . S
C301 N299 1.340 . S
C301 N300 1.321 . S
C301 H325 0.930 . S
H302 C297 0.931 . S
Co303 N300 2.135 . S
Co303 N306 2.121 . S
Co303 O311 2.055 . S
Co303 O314 2.039 . S
Co303 N317 2.140 . S
C304 O305 1.227 . S
C304 O314 1.265 . S
O305 C304 1.227 . S
N306 Co303 2.121 . S
N306 C308 1.375 . S
N306 C309 1.313 . S
C307 C308 1.338 . S
C307 N310 1.377 . S
C307 H327 0.930 . S
C308 N306 1.375 . S
C308 C307 1.338 . S
C308 H312 0.931 . S
C309 N306 1.313 . S
C309 N310 1.344 . S
C309 H313 0.930 . S
N310 C307 1.377 . S
N310 C309 1.344 . S
O311 Co303 2.055 . S
O311 C315 1.253 . S
H312 C308 0.931 . S
H313 C309 0.930 . S
O314 Co303 2.039 . S
O314 C304 1.265 . S
C315 O311 1.253 . S
C315 O316 1.227 . S
O316 C315 1.227 . S
N317 Co303 2.140 . S
N317 C320 1.346 . S
N317 C321 1.345 . S
C318 C319 1.387 . S
C318 C322 1.391 . S
C319 C318 1.387 . S
C319 C320 1.369 . S
C319 H328 0.929 . S
C320 N317 1.346 . S
C320 C319 1.369 . S
C320 H323 0.928 . S
C321 N317 1.345 . S
C321 C322 1.371 . S
C321 H324 0.931 . S
C322 C318 1.391 . S
C322 C321 1.371 . S
C322 H329 0.930 . S
H323 C320 0.928 . S
H324 C321 0.931 . S
H325 C301 0.930 . S
H326 C298 0.930 . S
H327 C307 0.930 . S
H328 C319 0.929 . S
H329 C322 0.930 . S
C330 C331 1.351 . S
C330 N333 1.368 . S
C330 H335 0.931 . S
C331 C330 1.351 . S
C331 N332 1.373 . S
C331 H359 0.930 . S
N332 C331 1.373 . S
N332 C334 1.340 . S
N333 C330 1.368 . S
N333 C334 1.321 . S
N333 Co336 2.135 . S
C334 N332 1.340 . S
C334 N333 1.321 . S
C334 H358 0.930 . S
H335 C330 0.931 . S
Co336 N333 2.135 . S
Co336 N339 2.121 . S
Co336 O344 2.055 . S
Co336 O347 2.039 . S
Co336 N350 2.140 . S
C337 O338 1.227 . S
C337 O347 1.265 . S
O338 C337 1.227 . S
N339 Co336 2.121 . S
N339 C341 1.375 . S
N339 C342 1.313 . S
C340 C341 1.338 . S
C340 N343 1.377 . S
C340 H360 0.930 . S
C341 N339 1.375 . S
C341 C340 1.338 . S
C341 H345 0.931 . S
C342 N339 1.313 . S
C342 N343 1.344 . S
C342 H346 0.930 . S
N343 C340 1.377 . S
N343 C342 1.344 . S
O344 Co336 2.055 . S
O344 C348 1.253 . S
H345 C341 0.931 . S
H346 C342 0.930 . S
O347 Co336 2.039 . S
O347 C337 1.265 . S
C348 O344 1.253 . S
C348 O349 1.227 . S
O349 C348 1.227 . S
N350 Co336 2.140 . S
N350 C353 1.346 . S
N350 C354 1.345 . S
C351 C352 1.387 . S
C351 C355 1.391 . S
C352 C351 1.387 . S
C352 C353 1.369 . S
C352 H361 0.929 . S
C353 N350 1.346 . S
C353 C352 1.369 . S
C353 H356 0.928 . S
C354 N350 1.345 . S
C354 C355 1.371 . S
C354 H357 0.931 . S
C355 C351 1.391 . S
C355 C354 1.371 . S
C355 H362 0.930 . S
H356 C353 0.928 . S
H357 C354 0.931 . S
H358 C334 0.930 . S
H359 C331 0.930 . S
H360 C340 0.930 . S
H361 C352 0.929 . S
H362 C355 0.930 . S
C363 C364 1.351 . S
C363 N366 1.368 . S
C363 H368 0.931 . S
C364 C363 1.351 . S
C364 N365 1.373 . S
C364 H392 0.930 . S
N365 C364 1.373 . S
N365 C367 1.340 . S
N366 C363 1.368 . S
N366 C367 1.321 . S
N366 Co369 2.135 . S
C367 N365 1.340 . S
C367 N366 1.321 . S
C367 H391 0.930 . S
H368 C363 0.931 . S
Co369 N366 2.135 . S
Co369 N372 2.121 . S
Co369 O377 2.055 . S
Co369 O380 2.039 . S
Co369 N383 2.140 . S
C370 O371 1.227 . S
C370 O380 1.265 . S
O371 C370 1.227 . S
N372 Co369 2.121 . S
N372 C374 1.375 . S
N372 C375 1.313 . S
C373 C374 1.338 . S
C373 N376 1.377 . S
C373 H393 0.930 . S
C374 N372 1.375 . S
C374 C373 1.338 . S
C374 H378 0.931 . S
C375 N372 1.313 . S
C375 N376 1.344 . S
C375 H379 0.930 . S
N376 C373 1.377 . S
N376 C375 1.344 . S
O377 Co369 2.055 . S
O377 C381 1.253 . S
H378 C374 0.931 . S
H379 C375 0.930 . S
O380 Co369 2.039 . S
O380 C370 1.265 . S
C381 O377 1.253 . S
C381 O382 1.227 . S
O382 C381 1.227 . S
N383 Co369 2.140 . S
N383 C386 1.346 . S
N383 C387 1.345 . S
C384 C385 1.387 . S
C384 C388 1.391 . S
C385 C384 1.387 . S
C385 C386 1.369 . S
C385 H394 0.929 . S
C386 N383 1.346 . S
C386 C385 1.369 . S
C386 H389 0.928 . S
C387 N383 1.345 . S
C387 C388 1.371 . S
C387 H390 0.931 . S
C388 C384 1.391 . S
C388 C387 1.371 . S
C388 H395 0.930 . S
H389 C386 0.928 . S
H390 C387 0.931 . S
H391 C367 0.930 . S
H392 C364 0.930 . S
H393 C373 0.930 . S
H394 C385 0.929 . S
H395 C388 0.930 . S
C396 C397 1.351 . S
C396 N399 1.368 . S
C396 H401 0.931 . S
C397 C396 1.351 . S
C397 N398 1.373 . S
C397 H425 0.930 . S
N398 C397 1.373 . S
N398 C400 1.340 . S
N399 C396 1.368 . S
N399 C400 1.321 . S
N399 Co402 2.135 . S
C400 N398 1.340 . S
C400 N399 1.321 . S
C400 H424 0.930 . S
H401 C396 0.931 . S
Co402 N399 2.135 . S
Co402 N405 2.121 . S
Co402 O410 2.055 . S
Co402 O413 2.039 . S
Co402 N416 2.140 . S
C403 O404 1.227 . S
C403 O413 1.265 . S
O404 C403 1.227 . S
N405 Co402 2.121 . S
N405 C407 1.375 . S
N405 C408 1.313 . S
C406 C407 1.338 . S
C406 N409 1.377 . S
C406 H426 0.930 . S
C407 N405 1.375 . S
C407 C406 1.338 . S
C407 H411 0.931 . S
C408 N405 1.313 . S
C408 N409 1.344 . S
C408 H412 0.930 . S
N409 C406 1.377 . S
N409 C408 1.344 . S
O410 Co402 2.055 . S
O410 C414 1.253 . S
H411 C407 0.931 . S
H412 C408 0.930 . S
O413 Co402 2.039 . S
O413 C403 1.265 . S
C414 O410 1.253 . S
C414 O415 1.227 . S
O415 C414 1.227 . S
N416 Co402 2.140 . S
N416 C419 1.346 . S
N416 C420 1.345 . S
C417 C418 1.387 . S
C417 C421 1.391 . S
C418 C417 1.387 . S
C418 C419 1.369 . S
C418 H427 0.929 . S
C419 N416 1.346 . S
C419 C418 1.369 . S
C419 H422 0.928 . S
C420 N416 1.345 . S
C420 C421 1.371 . S
C420 H423 0.931 . S
C421 C417 1.391 . S
C421 C420 1.371 . S
C421 H428 0.930 . S
H422 C419 0.928 . S
H423 C420 0.931 . S
H424 C400 0.930 . S
H425 C397 0.930 . S
H426 C406 0.930 . S
H427 C418 0.929 . S
H428 C421 0.930 . S
C429 C430 1.351 . S
C429 N432 1.368 . S
C429 H434 0.931 . S
C430 C429 1.351 . S
C430 N431 1.373 . S
C430 H458 0.930 . S
N431 C430 1.373 . S
N431 C433 1.340 . S
N432 C429 1.368 . S
N432 C433 1.321 . S
N432 Co435 2.135 . S
C433 N431 1.340 . S
C433 N432 1.321 . S
C433 H457 0.930 . S
H434 C429 0.931 . S
Co435 N432 2.135 . S
Co435 N438 2.121 . S
Co435 O443 2.055 . S
Co435 O446 2.039 . S
Co435 N449 2.140 . S
C436 O437 1.227 . S
C436 O446 1.265 . S
O437 C436 1.227 . S
N438 Co435 2.121 . S
N438 C440 1.375 . S
N438 C441 1.313 . S
C439 C440 1.338 . S
C439 N442 1.377 . S
C439 H459 0.930 . S
C440 N438 1.375 . S
C440 C439 1.338 . S
C440 H444 0.931 . S
C441 N438 1.313 . S
C441 N442 1.344 . S
C441 H445 0.930 . S
N442 C439 1.377 . S
N442 C441 1.344 . S
O443 Co435 2.055 . S
O443 C447 1.253 . S
H444 C440 0.931 . S
H445 C441 0.930 . S
O446 Co435 2.039 . S
O446 C436 1.265 . S
C447 O443 1.253 . S
C447 O448 1.227 . S
O448 C447 1.227 . S
N449 Co435 2.140 . S
N449 C452 1.346 . S
N449 C453 1.345 . S
C450 C451 1.387 . S
C450 C454 1.391 . S
C451 C450 1.387 . S
C451 C452 1.369 . S
C451 H460 0.929 . S
C452 N449 1.346 . S
C452 C451 1.369 . S
C452 H455 0.928 . S
C453 N449 1.345 . S
C453 C454 1.371 . S
C453 H456 0.931 . S
C454 C450 1.391 . S
C454 C453 1.371 . S
C454 H461 0.930 . S
H455 C452 0.928 . S
H456 C453 0.931 . S
H457 C433 0.930 . S
H458 C430 0.930 . S
H459 C439 0.930 . S
H460 C451 0.929 . S
H461 C454 0.930 . S
C462 C463 1.351 . S
C462 N465 1.368 . S
C462 H467 0.931 . S
C463 C462 1.351 . S
C463 N464 1.373 . S
C463 H491 0.930 . S
N464 C463 1.373 . S
N464 C466 1.340 . S
N465 C462 1.368 . S
N465 C466 1.321 . S
N465 Co468 2.135 . S
C466 N464 1.340 . S
C466 N465 1.321 . S
C466 H490 0.930 . S
H467 C462 0.931 . S
Co468 N465 2.135 . S
Co468 N471 2.121 . S
Co468 O476 2.055 . S
Co468 O479 2.039 . S
Co468 N482 2.140 . S
C469 O470 1.227 . S
C469 O479 1.265 . S
O470 C469 1.227 . S
N471 Co468 2.121 . S
N471 C473 1.375 . S
N471 C474 1.313 . S
C472 C473 1.338 . S
C472 N475 1.377 . S
C472 H492 0.930 . S
C473 N471 1.375 . S
C473 C472 1.338 . S
C473 H477 0.931 . S
C474 N471 1.313 . S
C474 N475 1.344 . S
C474 H478 0.930 . S
N475 C472 1.377 . S
N475 C474 1.344 . S
O476 Co468 2.055 . S
O476 C480 1.253 . S
H477 C473 0.931 . S
H478 C474 0.930 . S
O479 Co468 2.039 . S
O479 C469 1.265 . S
C480 O476 1.253 . S
C480 O481 1.227 . S
O481 C480 1.227 . S
N482 Co468 2.140 . S
N482 C485 1.346 . S
N482 C486 1.345 . S
C483 C484 1.387 . S
C483 C487 1.391 . S
C484 C483 1.387 . S
C484 C485 1.369 . S
C484 H493 0.929 . S
C485 N482 1.346 . S
C485 C484 1.369 . S
C485 H488 0.928 . S
C486 N482 1.345 . S
C486 C487 1.371 . S
C486 H489 0.931 . S
C487 C483 1.391 . S
C487 C486 1.371 . S
C487 H494 0.930 . S
H488 C485 0.928 . S
H489 C486 0.931 . S
H490 C466 0.930 . S
H491 C463 0.930 . S
H492 C472 0.930 . S
H493 C484 0.929 . S
H494 C487 0.930 . S
C495 C496 1.351 . S
C495 N498 1.368 . S
C495 H500 0.931 . S
C496 C495 1.351 . S
C496 N497 1.373 . S
C496 H524 0.930 . S
N497 C496 1.373 . S
N497 C499 1.340 . S
N498 C495 1.368 . S
N498 C499 1.321 . S
N498 Co501 2.135 . S
C499 N497 1.340 . S
C499 N498 1.321 . S
C499 H523 0.930 . S
H500 C495 0.931 . S
Co501 N498 2.135 . S
Co501 N504 2.121 . S
Co501 O509 2.055 . S
Co501 O512 2.039 . S
Co501 N515 2.140 . S
C502 O503 1.227 . S
C502 O512 1.265 . S
O503 C502 1.227 . S
N504 Co501 2.121 . S
N504 C506 1.375 . S
N504 C507 1.313 . S
C505 C506 1.338 . S
C505 N508 1.377 . S
C505 H525 0.930 . S
C506 N504 1.375 . S
C506 C505 1.338 . S
C506 H510 0.931 . S
C507 N504 1.313 . S
C507 N508 1.344 . S
C507 H511 0.930 . S
N508 C505 1.377 . S
N508 C507 1.344 . S
O509 Co501 2.055 . S
O509 C513 1.253 . S
H510 C506 0.931 . S
H511 C507 0.930 . S
O512 Co501 2.039 . S
O512 C502 1.265 . S
C513 O509 1.253 . S
C513 O514 1.227 . S
O514 C513 1.227 . S
N515 Co501 2.140 . S
N515 C518 1.346 . S
N515 C519 1.345 . S
C516 C517 1.387 . S
C516 C520 1.391 . S
C517 C516 1.387 . S
C517 C518 1.369 . S
C517 H526 0.929 . S
C518 N515 1.346 . S
C518 C517 1.369 . S
C518 H521 0.928 . S
C519 N515 1.345 . S
C519 C520 1.371 . S
C519 H522 0.931 . S
C520 C516 1.391 . S
C520 C519 1.371 . S
C520 H527 0.930 . S
H521 C518 0.928 . S
H522 C519 0.931 . S
H523 C499 0.930 . S
H524 C496 0.930 . S
H525 C505 0.930 . S
H526 C517 0.929 . S
H527 C520 0.930 . S
C528 C529 1.351 . S
C528 N531 1.368 . S
C528 H533 0.931 . S
C529 C528 1.351 . S
C529 N530 1.373 . S
C529 H557 0.930 . S
N530 C529 1.373 . S
N530 C532 1.340 . S
N531 C528 1.368 . S
N531 C532 1.321 . S
N531 Co534 2.135 . S
C532 N530 1.340 . S
C532 N531 1.321 . S
C532 H556 0.930 . S
H533 C528 0.931 . S
Co534 N531 2.135 . S
Co534 N537 2.121 . S
Co534 O542 2.055 . S
Co534 O545 2.039 . S
Co534 N548 2.140 . S
C535 O536 1.227 . S
C535 O545 1.265 . S
O536 C535 1.227 . S
N537 Co534 2.121 . S
N537 C539 1.375 . S
N537 C540 1.313 . S
C538 C539 1.338 . S
C538 N541 1.377 . S
C538 H558 0.930 . S
C539 N537 1.375 . S
C539 C538 1.338 . S
C539 H543 0.931 . S
C540 N537 1.313 . S
C540 N541 1.344 . S
C540 H544 0.930 . S
N541 C538 1.377 . S
N541 C540 1.344 . S
O542 Co534 2.055 . S
O542 C546 1.253 . S
H543 C539 0.931 . S
H544 C540 0.930 . S
O545 Co534 2.039 . S
O545 C535 1.265 . S
C546 O542 1.253 . S
C546 O547 1.227 . S
O547 C546 1.227 . S
N548 Co534 2.140 . S
N548 C551 1.346 . S
N548 C552 1.345 . S
C549 C550 1.387 . S
C549 C553 1.391 . S
C550 C549 1.387 . S
C550 C551 1.369 . S
C550 H559 0.929 . S
C551 N548 1.346 . S
C551 C550 1.369 . S
C551 H554 0.928 . S
C552 N548 1.345 . S
C552 C553 1.371 . S
C552 H555 0.931 . S
C553 C549 1.391 . S
C553 C552 1.371 . S
C553 H560 0.930 . S
H554 C551 0.928 . S
H555 C552 0.931 . S
H556 C532 0.930 . S
H557 C529 0.930 . S
H558 C538 0.930 . S
H559 C550 0.929 . S
H560 C553 0.930 . S
C561 C562 1.351 . S
C561 N564 1.368 . S
C561 H566 0.931 . S
C562 C561 1.351 . S
C562 N563 1.373 . S
C562 H590 0.930 . S
N563 C562 1.373 . S
N563 C565 1.340 . S
N564 C561 1.368 . S
N564 C565 1.321 . S
N564 Co567 2.135 . S
C565 N563 1.340 . S
C565 N564 1.321 . S
C565 H589 0.930 . S
H566 C561 0.931 . S
Co567 N564 2.135 . S
Co567 N570 2.121 . S
Co567 O575 2.055 . S
Co567 O578 2.039 . S
Co567 N581 2.140 . S
C568 O569 1.227 . S
C568 O578 1.265 . S
O569 C568 1.227 . S
N570 Co567 2.121 . S
N570 C572 1.375 . S
N570 C573 1.313 . S
C571 C572 1.338 . S
C571 N574 1.377 . S
C571 H591 0.930 . S
C572 N570 1.375 . S
C572 C571 1.338 . S
C572 H576 0.931 . S
C573 N570 1.313 . S
C573 N574 1.344 . S
C573 H577 0.930 . S
N574 C571 1.377 . S
N574 C573 1.344 . S
O575 Co567 2.055 . S
O575 C579 1.253 . S
H576 C572 0.931 . S
H577 C573 0.930 . S
O578 Co567 2.039 . S
O578 C568 1.265 . S
C579 O575 1.253 . S
C579 O580 1.227 . S
O580 C579 1.227 . S
N581 Co567 2.140 . S
N581 C584 1.346 . S
N581 C585 1.345 . S
C582 C583 1.387 . S
C582 C586 1.391 . S
C583 C582 1.387 . S
C583 C584 1.369 . S
C583 H592 0.929 . S
C584 N581 1.346 . S
C584 C583 1.369 . S
C584 H587 0.928 . S
C585 N581 1.345 . S
C585 C586 1.371 . S
C585 H588 0.931 . S
C586 C582 1.391 . S
C586 C585 1.371 . S
C586 H593 0.930 . S
H587 C584 0.928 . S
H588 C585 0.931 . S
H589 C565 0.930 . S
H590 C562 0.930 . S
H591 C571 0.930 . S
H592 C583 0.929 . S
H593 C586 0.930 . S
C594 C595 1.351 . S
C594 N597 1.368 . S
C594 H599 0.931 . S
C595 C594 1.351 . S
C595 N596 1.373 . S
C595 H623 0.930 . S
N596 C595 1.373 . S
N596 C598 1.340 . S
N597 C594 1.368 . S
N597 C598 1.321 . S
N597 Co600 2.135 . S
C598 N596 1.340 . S
C598 N597 1.321 . S
C598 H622 0.930 . S
H599 C594 0.931 . S
Co600 N597 2.135 . S
Co600 N603 2.121 . S
Co600 O608 2.055 . S
Co600 O611 2.039 . S
Co600 N614 2.140 . S
C601 O602 1.227 . S
C601 O611 1.265 . S
O602 C601 1.227 . S
N603 Co600 2.121 . S
N603 C605 1.375 . S
N603 C606 1.313 . S
C604 C605 1.338 . S
C604 N607 1.377 . S
C604 H624 0.930 . S
C605 N603 1.375 . S
C605 C604 1.338 . S
C605 H609 0.931 . S
C606 N603 1.313 . S
C606 N607 1.344 . S
C606 H610 0.930 . S
N607 C604 1.377 . S
N607 C606 1.344 . S
O608 Co600 2.055 . S
O608 C612 1.253 . S
H609 C605 0.931 . S
H610 C606 0.930 . S
O611 Co600 2.039 . S
O611 C601 1.265 . S
C612 O608 1.253 . S
C612 O613 1.227 . S
O613 C612 1.227 . S
N614 Co600 2.140 . S
N614 C617 1.346 . S
N614 C618 1.345 . S
C615 C616 1.387 . S
C615 C619 1.391 . S
C616 C615 1.387 . S
C616 C617 1.369 . S
C616 H625 0.929 . S
C617 N614 1.346 . S
C617 C616 1.369 . S
C617 H620 0.928 . S
C618 N614 1.345 . S
C618 C619 1.371 . S
C618 H621 0.931 . S
C619 C615 1.391 . S
C619 C618 1.371 . S
C619 H626 0.930 . S
H620 C617 0.928 . S
H621 C618 0.931 . S
H622 C598 0.930 . S
H623 C595 0.930 . S
H624 C604 0.930 . S
H625 C616 0.929 . S
H626 C619 0.930 . S
C627 C628 1.351 . S
C627 N630 1.368 . S
C627 H632 0.931 . S
C628 C627 1.351 . S
C628 N629 1.373 . S
C628 H656 0.930 . S
N629 C628 1.373 . S
N629 C631 1.340 . S
N630 C627 1.368 . S
N630 C631 1.321 . S
N630 Co633 2.135 . S
C631 N629 1.340 . S
C631 N630 1.321 . S
C631 H655 0.930 . S
H632 C627 0.931 . S
Co633 N630 2.135 . S
Co633 N636 2.121 . S
Co633 O641 2.055 . S
Co633 O644 2.039 . S
Co633 N647 2.140 . S
C634 O635 1.227 . S
C634 O644 1.265 . S
O635 C634 1.227 . S
N636 Co633 2.121 . S
N636 C638 1.375 . S
N636 C639 1.313 . S
C637 C638 1.338 . S
C637 N640 1.377 . S
C637 H657 0.930 . S
C638 N636 1.375 . S
C638 C637 1.338 . S
C638 H642 0.931 . S
C639 N636 1.313 . S
C639 N640 1.344 . S
C639 H643 0.930 . S
N640 C637 1.377 . S
N640 C639 1.344 . S
O641 Co633 2.055 . S
O641 C645 1.253 . S
H642 C638 0.931 . S
H643 C639 0.930 . S
O644 Co633 2.039 . S
O644 C634 1.265 . S
C645 O641 1.253 . S
C645 O646 1.227 . S
O646 C645 1.227 . S
N647 Co633 2.140 . S
N647 C650 1.346 . S
N647 C651 1.345 . S
C648 C649 1.387 . S
C648 C652 1.391 . S
C649 C648 1.387 . S
C649 C650 1.369 . S
C649 H658 0.929 . S
C650 N647 1.346 . S
C650 C649 1.369 . S
C650 H653 0.928 . S
C651 N647 1.345 . S
C651 C652 1.371 . S
C651 H654 0.931 . S
C652 C648 1.391 . S
C652 C651 1.371 . S
C652 H659 0.930 . S
H653 C650 0.928 . S
H654 C651 0.931 . S
H655 C631 0.930 . S
H656 C628 0.930 . S
H657 C637 0.930 . S
H658 C649 0.929 . S
H659 C652 0.930 . S
C660 C661 1.351 . S
C660 N663 1.368 . S
C660 H665 0.931 . S
C661 C660 1.351 . S
C661 N662 1.373 . S
C661 H689 0.930 . S
N662 C661 1.373 . S
N662 C664 1.340 . S
N663 C660 1.368 . S
N663 C664 1.321 . S
N663 Co666 2.135 . S
C664 N662 1.340 . S
C664 N663 1.321 . S
C664 H688 0.930 . S
H665 C660 0.931 . S
Co666 N663 2.135 . S
Co666 N669 2.121 . S
Co666 O674 2.055 . S
Co666 O677 2.039 . S
Co666 N680 2.140 . S
C667 O668 1.227 . S
C667 O677 1.265 . S
O668 C667 1.227 . S
N669 Co666 2.121 . S
N669 C671 1.375 . S
N669 C672 1.313 . S
C670 C671 1.338 . S
C670 N673 1.377 . S
C670 H690 0.930 . S
C671 N669 1.375 . S
C671 C670 1.338 . S
C671 H675 0.931 . S
C672 N669 1.313 . S
C672 N673 1.344 . S
C672 H676 0.930 . S
N673 C670 1.377 . S
N673 C672 1.344 . S
O674 Co666 2.055 . S
O674 C678 1.253 . S
H675 C671 0.931 . S
H676 C672 0.930 . S
O677 Co666 2.039 . S
O677 C667 1.265 . S
C678 O674 1.253 . S
C678 O679 1.227 . S
O679 C678 1.227 . S
N680 Co666 2.140 . S
N680 C683 1.346 . S
N680 C684 1.345 . S
C681 C682 1.387 . S
C681 C685 1.391 . S
C682 C681 1.387 . S
C682 C683 1.369 . S
C682 H691 0.929 . S
C683 N680 1.346 . S
C683 C682 1.369 . S
C683 H686 0.928 . S
C684 N680 1.345 . S
C684 C685 1.371 . S
C684 H687 0.931 . S
C685 C681 1.391 . S
C685 C684 1.371 . S
C685 H692 0.930 . S
H686 C683 0.928 . S
H687 C684 0.931 . S
H688 C664 0.930 . S
H689 C661 0.930 . S
H690 C670 0.930 . S
H691 C682 0.929 . S
H692 C685 0.930 . S
C693 C694 1.351 . S
C693 N696 1.368 . S
C693 H698 0.931 . S
C694 C693 1.351 . S
C694 N695 1.373 . S
C694 H722 0.930 . S
N695 C694 1.373 . S
N695 C697 1.340 . S
N696 C693 1.368 . S
N696 C697 1.321 . S
N696 Co699 2.135 . S
C697 N695 1.340 . S
C697 N696 1.321 . S
C697 H721 0.930 . S
H698 C693 0.931 . S
Co699 N696 2.135 . S
Co699 N702 2.121 . S
Co699 O707 2.055 . S
Co699 O710 2.039 . S
Co699 N713 2.140 . S
C700 O701 1.227 . S
C700 O710 1.265 . S
O701 C700 1.227 . S
N702 Co699 2.121 . S
N702 C704 1.375 . S
N702 C705 1.313 . S
C703 C704 1.338 . S
C703 N706 1.377 . S
C703 H723 0.930 . S
C704 N702 1.375 . S
C704 C703 1.338 . S
C704 H708 0.931 . S
C705 N702 1.313 . S
C705 N706 1.344 . S
C705 H709 0.930 . S
N706 C703 1.377 . S
N706 C705 1.344 . S
O707 Co699 2.055 . S
O707 C711 1.253 . S
H708 C704 0.931 . S
H709 C705 0.930 . S
O710 Co699 2.039 . S
O710 C700 1.265 . S
C711 O707 1.253 . S
C711 O712 1.227 . S
O712 C711 1.227 . S
N713 Co699 2.140 . S
N713 C716 1.346 . S
N713 C717 1.345 . S
C714 C715 1.387 . S
C714 C718 1.391 . S
C715 C714 1.387 . S
C715 C716 1.369 . S
C715 H724 0.929 . S
C716 N713 1.346 . S
C716 C715 1.369 . S
C716 H719 0.928 . S
C717 N713 1.345 . S
C717 C718 1.371 . S
C717 H720 0.931 . S
C718 C714 1.391 . S
C718 C717 1.371 . S
C718 H725 0.930 . S
H719 C716 0.928 . S
H720 C717 0.931 . S
H721 C697 0.930 . S
H722 C694 0.930 . S
H723 C703 0.930 . S
H724 C715 0.929 . S
H725 C718 0.930 . S
C726 C727 1.351 . S
C726 N729 1.368 . S
C726 H731 0.931 . S
C727 C726 1.351 . S
C727 N728 1.373 . S
C727 H755 0.930 . S
N728 C727 1.373 . S
N728 C730 1.340 . S
N729 C726 1.368 . S
N729 C730 1.321 . S
N729 Co732 2.135 . S
C730 N728 1.340 . S
C730 N729 1.321 . S
C730 H754 0.930 . S
H731 C726 0.931 . S
Co732 N729 2.135 . S
Co732 N735 2.121 . S
Co732 O740 2.055 . S
Co732 O743 2.039 . S
Co732 N746 2.140 . S
C733 O734 1.227 . S
C733 O743 1.265 . S
O734 C733 1.227 . S
N735 Co732 2.121 . S
N735 C737 1.375 . S
N735 C738 1.313 . S
C736 C737 1.338 . S
C736 N739 1.377 . S
C736 H756 0.930 . S
C737 N735 1.375 . S
C737 C736 1.338 . S
C737 H741 0.931 . S
C738 N735 1.313 . S
C738 N739 1.344 . S
C738 H742 0.930 . S
N739 C736 1.377 . S
N739 C738 1.344 . S
O740 Co732 2.055 . S
O740 C744 1.253 . S
H741 C737 0.931 . S
H742 C738 0.930 . S
O743 Co732 2.039 . S
O743 C733 1.265 . S
C744 O740 1.253 . S
C744 O745 1.227 . S
O745 C744 1.227 . S
N746 Co732 2.140 . S
N746 C749 1.346 . S
N746 C750 1.345 . S
C747 C748 1.387 . S
C747 C751 1.391 . S
C748 C747 1.387 . S
C748 C749 1.369 . S
C748 H757 0.929 . S
C749 N746 1.346 . S
C749 C748 1.369 . S
C749 H752 0.928 . S
C750 N746 1.345 . S
C750 C751 1.371 . S
C750 H753 0.931 . S
C751 C747 1.391 . S
C751 C750 1.371 . S
C751 H758 0.930 . S
H752 C749 0.928 . S
H753 C750 0.931 . S
H754 C730 0.930 . S
H755 C727 0.930 . S
H756 C736 0.930 . S
H757 C748 0.929 . S
H758 C751 0.930 . S
C759 C760 1.351 . S
C759 N762 1.368 . S
C759 H764 0.931 . S
C760 C759 1.351 . S
C760 N761 1.373 . S
C760 H788 0.930 . S
N761 C760 1.373 . S
N761 C763 1.340 . S
N762 C759 1.368 . S
N762 C763 1.321 . S
N762 Co765 2.135 . S
C763 N761 1.340 . S
C763 N762 1.321 . S
C763 H787 0.930 . S
H764 C759 0.931 . S
Co765 N762 2.135 . S
Co765 N768 2.121 . S
Co765 O773 2.055 . S
Co765 O776 2.039 . S
Co765 N779 2.140 . S
C766 O767 1.227 . S
C766 O776 1.265 . S
O767 C766 1.227 . S
N768 Co765 2.121 . S
N768 C770 1.375 . S
N768 C771 1.313 . S
C769 C770 1.338 . S
C769 N772 1.377 . S
C769 H789 0.930 . S
C770 N768 1.375 . S
C770 C769 1.338 . S
C770 H774 0.931 . S
C771 N768 1.313 . S
C771 N772 1.344 . S
C771 H775 0.930 . S
N772 C769 1.377 . S
N772 C771 1.344 . S
O773 Co765 2.055 . S
O773 C777 1.253 . S
H774 C770 0.931 . S
H775 C771 0.930 . S
O776 Co765 2.039 . S
O776 C766 1.265 . S
C777 O773 1.253 . S
C777 O778 1.227 . S
O778 C777 1.227 . S
N779 Co765 2.140 . S
N779 C782 1.346 . S
N779 C783 1.345 . S
C780 C781 1.387 . S
C780 C784 1.391 . S
C781 C780 1.387 . S
C781 C782 1.369 . S
C781 H790 0.929 . S
C782 N779 1.346 . S
C782 C781 1.369 . S
C782 H785 0.928 . S
C783 N779 1.345 . S
C783 C784 1.371 . S
C783 H786 0.931 . S
C784 C780 1.391 . S
C784 C783 1.371 . S
C784 H791 0.930 . S
H785 C782 0.928 . S
H786 C783 0.931 . S
H787 C763 0.930 . S
H788 C760 0.930 . S
H789 C769 0.930 . S
H790 C781 0.929 . S
H791 C784 0.930 . S
C792 C793 1.351 . S
C792 N795 1.368 . S
C792 H797 0.931 . S
C793 C792 1.351 . S
C793 N794 1.373 . S
C793 H821 0.930 . S
N794 C793 1.373 . S
N794 C796 1.340 . S
N795 C792 1.368 . S
N795 C796 1.321 . S
N795 Co798 2.135 . S
C796 N794 1.340 . S
C796 N795 1.321 . S
C796 H820 0.930 . S
H797 C792 0.931 . S
Co798 N795 2.135 . S
Co798 N801 2.121 . S
Co798 O806 2.055 . S
Co798 O809 2.039 . S
Co798 N812 2.140 . S
C799 O800 1.227 . S
C799 O809 1.265 . S
O800 C799 1.227 . S
N801 Co798 2.121 . S
N801 C803 1.375 . S
N801 C804 1.313 . S
C802 C803 1.338 . S
C802 N805 1.377 . S
C802 H822 0.930 . S
C803 N801 1.375 . S
C803 C802 1.338 . S
C803 H807 0.931 . S
C804 N801 1.313 . S
C804 N805 1.344 . S
C804 H808 0.930 . S
N805 C802 1.377 . S
N805 C804 1.344 . S
O806 Co798 2.055 . S
O806 C810 1.253 . S
H807 C803 0.931 . S
H808 C804 0.930 . S
O809 Co798 2.039 . S
O809 C799 1.265 . S
C810 O806 1.253 . S
C810 O811 1.227 . S
O811 C810 1.227 . S
N812 Co798 2.140 . S
N812 C815 1.346 . S
N812 C816 1.345 . S
C813 C814 1.387 . S
C813 C817 1.391 . S
C814 C813 1.387 . S
C814 C815 1.369 . S
C814 H823 0.929 . S
C815 N812 1.346 . S
C815 C814 1.369 . S
C815 H818 0.928 . S
C816 N812 1.345 . S
C816 C817 1.371 . S
C816 H819 0.931 . S
C817 C813 1.391 . S
C817 C816 1.371 . S
C817 H824 0.930 . S
H818 C815 0.928 . S
H819 C816 0.931 . S
H820 C796 0.930 . S
H821 C793 0.930 . S
H822 C802 0.930 . S
H823 C814 0.929 . S
H824 C817 0.930 . S
C825 C826 1.351 . S
C825 N828 1.368 . S
C825 H830 0.931 . S
C826 C825 1.351 . S
C826 N827 1.373 . S
C826 H854 0.930 . S
N827 C826 1.373 . S
N827 C829 1.340 . S
N828 C825 1.368 . S
N828 C829 1.321 . S
N828 Co831 2.135 . S
C829 N827 1.340 . S
C829 N828 1.321 . S
C829 H853 0.930 . S
H830 C825 0.931 . S
Co831 N828 2.135 . S
Co831 N834 2.121 . S
Co831 O839 2.055 . S
Co831 O842 2.039 . S
Co831 N845 2.140 . S
C832 O833 1.227 . S
C832 O842 1.265 . S
O833 C832 1.227 . S
N834 Co831 2.121 . S
N834 C836 1.375 . S
N834 C837 1.313 . S
C835 C836 1.338 . S
C835 N838 1.377 . S
C835 H855 0.930 . S
C836 N834 1.375 . S
C836 C835 1.338 . S
C836 H840 0.931 . S
C837 N834 1.313 . S
C837 N838 1.344 . S
C837 H841 0.930 . S
N838 C835 1.377 . S
N838 C837 1.344 . S
O839 Co831 2.055 . S
O839 C843 1.253 . S
H840 C836 0.931 . S
H841 C837 0.930 . S
O842 Co831 2.039 . S
O842 C832 1.265 . S
C843 O839 1.253 . S
C843 O844 1.227 . S
O844 C843 1.227 . S
N845 Co831 2.140 . S
N845 C848 1.346 . S
N845 C849 1.345 . S
C846 C847 1.387 . S
C846 C850 1.391 . S
C847 C846 1.387 . S
C847 C848 1.369 . S
C847 H856 0.929 . S
C848 N845 1.346 . S
C848 C847 1.369 . S
C848 H851 0.928 . S
C849 N845 1.345 . S
C849 C850 1.371 . S
C849 H852 0.931 . S
C850 C846 1.391 . S
C850 C849 1.371 . S
C850 H857 0.930 . S
H851 C848 0.928 . S
H852 C849 0.931 . S
H853 C829 0.930 . S
H854 C826 0.930 . S
H855 C835 0.930 . S
H856 C847 0.929 . S
H857 C850 0.930 . S
C858 C859 1.351 . S
C858 N861 1.368 . S
C858 H863 0.931 . S
C859 C858 1.351 . S
C859 N860 1.373 . S
C859 H887 0.930 . S
N860 C859 1.373 . S
N860 C862 1.340 . S
N861 C858 1.368 . S
N861 C862 1.321 . S
N861 Co864 2.135 . S
C862 N860 1.340 . S
C862 N861 1.321 . S
C862 H886 0.930 . S
H863 C858 0.931 . S
Co864 N861 2.135 . S
Co864 N867 2.121 . S
Co864 O872 2.055 . S
Co864 O875 2.039 . S
Co864 N878 2.140 . S
C865 O866 1.227 . S
C865 O875 1.265 . S
O866 C865 1.227 . S
N867 Co864 2.121 . S
N867 C869 1.375 . S
N867 C870 1.313 . S
C868 C869 1.338 . S
C868 N871 1.377 . S
C868 H888 0.930 . S
C869 N867 1.375 . S
C869 C868 1.338 . S
C869 H873 0.931 . S
C870 N867 1.313 . S
C870 N871 1.344 . S
C870 H874 0.930 . S
N871 C868 1.377 . S
N871 C870 1.344 . S
O872 Co864 2.055 . S
O872 C876 1.253 . S
H873 C869 0.931 . S
H874 C870 0.930 . S
O875 Co864 2.039 . S
O875 C865 1.265 . S
C876 O872 1.253 . S
C876 O877 1.227 . S
O877 C876 1.227 . S
N878 Co864 2.140 . S
N878 C881 1.346 . S
N878 C882 1.345 . S
C879 C880 1.387 . S
C879 C883 1.391 . S
C880 C879 1.387 . S
C880 C881 1.369 . S
C880 H889 0.929 . S
C881 N878 1.346 . S
C881 C880 1.369 . S
C881 H884 0.928 . S
C882 N878 1.345 . S
C882 C883 1.371 . S
C882 H885 0.931 . S
C883 C879 1.391 . S
C883 C882 1.371 . S
C883 H890 0.930 . S
H884 C881 0.928 . S
H885 C882 0.931 . S
H886 C862 0.930 . S
H887 C859 0.930 . S
H888 C868 0.930 . S
H889 C880 0.929 . S
H890 C883 0.930 . S
C891 C892 1.351 . S
C891 N894 1.368 . S
C891 H896 0.931 . S
C892 C891 1.351 . S
C892 N893 1.373 . S
C892 H920 0.930 . S
N893 C892 1.373 . S
N893 C895 1.340 . S
N894 C891 1.368 . S
N894 C895 1.321 . S
N894 Co897 2.135 . S
C895 N893 1.340 . S
C895 N894 1.321 . S
C895 H919 0.930 . S
H896 C891 0.931 . S
Co897 N894 2.135 . S
Co897 N900 2.121 . S
Co897 O905 2.055 . S
Co897 O908 2.039 . S
Co897 N911 2.140 . S
C898 O899 1.227 . S
C898 O908 1.265 . S
O899 C898 1.227 . S
N900 Co897 2.121 . S
N900 C902 1.375 . S
N900 C903 1.313 . S
C901 C902 1.338 . S
C901 N904 1.377 . S
C901 H921 0.930 . S
C902 N900 1.375 . S
C902 C901 1.338 . S
C902 H906 0.931 . S
C903 N900 1.313 . S
C903 N904 1.344 . S
C903 H907 0.930 . S
N904 C901 1.377 . S
N904 C903 1.344 . S
O905 Co897 2.055 . S
O905 C909 1.253 . S
H906 C902 0.931 . S
H907 C903 0.930 . S
O908 Co897 2.039 . S
O908 C898 1.265 . S
C909 O905 1.253 . S
C909 O910 1.227 . S
O910 C909 1.227 . S
N911 Co897 2.140 . S
N911 C914 1.346 . S
N911 C915 1.345 . S
C912 C913 1.387 . S
C912 C916 1.391 . S
C913 C912 1.387 . S
C913 C914 1.369 . S
C913 H922 0.929 . S
C914 N911 1.346 . S
C914 C913 1.369 . S
C914 H917 0.928 . S
C915 N911 1.345 . S
C915 C916 1.371 . S
C915 H918 0.931 . S
C916 C912 1.391 . S
C916 C915 1.371 . S
C916 H923 0.930 . S
H917 C914 0.928 . S
H918 C915 0.931 . S
H919 C895 0.930 . S
H920 C892 0.930 . S
H921 C901 0.930 . S
H922 C913 0.929 . S
H923 C916 0.930 . S
C924 C925 1.351 . S
C924 N927 1.368 . S
C924 H929 0.931 . S
C925 C924 1.351 . S
C925 N926 1.373 . S
C925 H953 0.930 . S
N926 C925 1.373 . S
N926 C928 1.340 . S
N927 C924 1.368 . S
N927 C928 1.321 . S
N927 Co930 2.135 . S
C928 N926 1.340 . S
C928 N927 1.321 . S
C928 H952 0.930 . S
H929 C924 0.931 . S
Co930 N927 2.135 . S
Co930 N933 2.121 . S
Co930 O938 2.055 . S
Co930 O941 2.039 . S
Co930 N944 2.140 . S
C931 O932 1.227 . S
C931 O941 1.265 . S
O932 C931 1.227 . S
N933 Co930 2.121 . S
N933 C935 1.375 . S
N933 C936 1.313 . S
C934 C935 1.338 . S
C934 N937 1.377 . S
C934 H954 0.930 . S
C935 N933 1.375 . S
C935 C934 1.338 . S
C935 H939 0.931 . S
C936 N933 1.313 . S
C936 N937 1.344 . S
C936 H940 0.930 . S
N937 C934 1.377 . S
N937 C936 1.344 . S
O938 Co930 2.055 . S
O938 C942 1.253 . S
H939 C935 0.931 . S
H940 C936 0.930 . S
O941 Co930 2.039 . S
O941 C931 1.265 . S
C942 O938 1.253 . S
C942 O943 1.227 . S
O943 C942 1.227 . S
N944 Co930 2.140 . S
N944 C947 1.346 . S
N944 C948 1.345 . S
C945 C946 1.387 . S
C945 C949 1.391 . S
C946 C945 1.387 . S
C946 C947 1.369 . S
C946 H955 0.929 . S
C947 N944 1.346 . S
C947 C946 1.369 . S
C947 H950 0.928 . S
C948 N944 1.345 . S
C948 C949 1.371 . S
C948 H951 0.931 . S
C949 C945 1.391 . S
C949 C948 1.371 . S
C949 H956 0.930 . S
H950 C947 0.928 . S
H951 C948 0.931 . S
H952 C928 0.930 . S
H953 C925 0.930 . S
H954 C934 0.930 . S
H955 C946 0.929 . S
H956 C949 0.930 . S
C957 C958 1.351 . S
C957 N960 1.368 . S
C957 H962 0.931 . S
C958 C957 1.351 . S
C958 N959 1.373 . S
C958 H986 0.930 . S
N959 C958 1.373 . S
N959 C961 1.340 . S
N960 C957 1.368 . S
N960 C961 1.321 . S
N960 Co963 2.135 . S
C961 N959 1.340 . S
C961 N960 1.321 . S
C961 H985 0.930 . S
H962 C957 0.931 . S
Co963 N960 2.135 . S
Co963 N966 2.121 . S
Co963 O971 2.055 . S
Co963 O974 2.039 . S
Co963 N977 2.140 . S
C964 O965 1.227 . S
C964 O974 1.265 . S
O965 C964 1.227 . S
N966 Co963 2.121 . S
N966 C968 1.375 . S
N966 C969 1.313 . S
C967 C968 1.338 . S
C967 N970 1.377 . S
C967 H987 0.930 . S
C968 N966 1.375 . S
C968 C967 1.338 . S
C968 H972 0.931 . S
C969 N966 1.313 . S
C969 N970 1.344 . S
C969 H973 0.930 . S
N970 C967 1.377 . S
N970 C969 1.344 . S
O971 Co963 2.055 . S
O971 C975 1.253 . S
H972 C968 0.931 . S
H973 C969 0.930 . S
O974 Co963 2.039 . S
O974 C964 1.265 . S
C975 O971 1.253 . S
C975 O976 1.227 . S
O976 C975 1.227 . S
N977 Co963 2.140 . S
N977 C980 1.346 . S
N977 C981 1.345 . S
C978 C979 1.387 . S
C978 C982 1.391 . S
C979 C978 1.387 . S
C979 C980 1.369 . S
C979 H988 0.929 . S
C980 N977 1.346 . S
C980 C979 1.369 . S
C980 H983 0.928 . S
C981 N977 1.345 . S
C981 C982 1.371 . S
C981 H984 0.931 . S
C982 C978 1.391 . S
C982 C981 1.371 . S
C982 H989 0.930 . S
H983 C980 0.928 . S
H984 C981 0.931 . S
H985 C961 0.930 . S
H986 C958 0.930 . S
H987 C967 0.930 . S
H988 C979 0.929 . S
H989 C982 0.930 . S
C990 C991 1.351 . S
C990 N993 1.368 . S
C990 H995 0.931 . S
C991 C990 1.351 . S
C991 N992 1.373 . S
C991 H1019 0.930 . S
N992 C991 1.373 . S
N992 C994 1.340 . S
N993 C990 1.368 . S
N993 C994 1.321 . S
N993 Co996 2.135 . S
C994 N992 1.340 . S
C994 N993 1.321 . S
C994 H1018 0.930 . S
H995 C990 0.931 . S
Co996 N993 2.135 . S
Co996 N999 2.121 . S
Co996 O1004 2.055 . S
Co996 O1007 2.039 . S
Co996 N1010 2.140 . S
C997 O998 1.227 . S
C997 O1007 1.265 . S
O998 C997 1.227 . S
N999 Co996 2.121 . S
N999 C1001 1.375 . S
N999 C1002 1.313 . S
C1000 C1001 1.338 . S
C1000 N1003 1.377 . S
C1000 H1020 0.930 . S
C1001 N999 1.375 . S
C1001 C1000 1.338 . S
C1001 H1005 0.931 . S
C1002 N999 1.313 . S
C1002 N1003 1.344 . S
C1002 H1006 0.930 . S
N1003 C1000 1.377 . S
N1003 C1002 1.344 . S
O1004 Co996 2.055 . S
O1004 C1008 1.253 . S
H1005 C1001 0.931 . S
H1006 C1002 0.930 . S
O1007 Co996 2.039 . S
O1007 C997 1.265 . S
C1008 O1004 1.253 . S
C1008 O1009 1.227 . S
O1009 C1008 1.227 . S
N1010 Co996 2.140 . S
N1010 C1013 1.346 . S
N1010 C1014 1.345 . S
C1011 C1012 1.387 . S
C1011 C1015 1.391 . S
C1012 C1011 1.387 . S
C1012 C1013 1.369 . S
C1012 H1021 0.929 . S
C1013 N1010 1.346 . S
C1013 C1012 1.369 . S
C1013 H1016 0.928 . S
C1014 N1010 1.345 . S
C1014 C1015 1.371 . S
C1014 H1017 0.931 . S
C1015 C1011 1.391 . S
C1015 C1014 1.371 . S
C1015 H1022 0.930 . S
H1016 C1013 0.928 . S
H1017 C1014 0.931 . S
H1018 C994 0.930 . S
H1019 C991 0.930 . S
H1020 C1000 0.930 . S
H1021 C1012 0.929 . S
H1022 C1015 0.930 . S
C1023 C1024 1.351 . S
C1023 N1026 1.368 . S
C1023 H1028 0.931 . S
C1024 C1023 1.351 . S
C1024 N1025 1.373 . S
C1024 H1052 0.930 . S
N1025 C1024 1.373 . S
N1025 C1027 1.340 . S
N1026 C1023 1.368 . S
N1026 C1027 1.321 . S
N1026 Co1029 2.135 . S
C1027 N1025 1.340 . S
C1027 N1026 1.321 . S
C1027 H1051 0.930 . S
H1028 C1023 0.931 . S
Co1029 N1026 2.135 . S
Co1029 N1032 2.121 . S
Co1029 O1037 2.055 . S
Co1029 O1040 2.039 . S
Co1029 N1043 2.140 . S
C1030 O1031 1.227 . S
C1030 O1040 1.265 . S
O1031 C1030 1.227 . S
N1032 Co1029 2.121 . S
N1032 C1034 1.375 . S
N1032 C1035 1.313 . S
C1033 C1034 1.338 . S
C1033 N1036 1.377 . S
C1033 H1053 0.930 . S
C1034 N1032 1.375 . S
C1034 C1033 1.338 . S
C1034 H1038 0.931 . S
C1035 N1032 1.313 . S
C1035 N1036 1.344 . S
C1035 H1039 0.930 . S
N1036 C1033 1.377 . S
N1036 C1035 1.344 . S
O1037 Co1029 2.055 . S
O1037 C1041 1.253 . S
H1038 C1034 0.931 . S
H1039 C1035 0.930 . S
O1040 Co1029 2.039 . S
O1040 C1030 1.265 . S
C1041 O1037 1.253 . S
C1041 O1042 1.227 . S
O1042 C1041 1.227 . S
N1043 Co1029 2.140 . S
N1043 C1046 1.346 . S
N1043 C1047 1.345 . S
C1044 C1045 1.387 . S
C1044 C1048 1.391 . S
C1045 C1044 1.387 . S
C1045 C1046 1.369 . S
C1045 H1054 0.929 . S
C1046 N1043 1.346 . S
C1046 C1045 1.369 . S
C1046 H1049 0.928 . S
C1047 N1043 1.345 . S
C1047 C1048 1.371 . S
C1047 H1050 0.931 . S
C1048 C1044 1.391 . S
C1048 C1047 1.371 . S
C1048 H1055 0.930 . S
H1049 C1046 0.928 . S
H1050 C1047 0.931 . S
H1051 C1027 0.930 . S
H1052 C1024 0.930 . S
H1053 C1033 0.930 . S
H1054 C1045 0.929 . S
H1055 C1048 0.930 . S
C1056 C1057 1.351 . S
C1056 N1059 1.368 . S
C1056 H1061 0.931 . S
C1057 C1056 1.351 . S
C1057 N1058 1.373 . S
C1057 H1085 0.930 . S
N1058 C1057 1.373 . S
N1058 C1060 1.340 . S
N1059 C1056 1.368 . S
N1059 C1060 1.321 . S
N1059 Co1062 2.135 . S
C1060 N1058 1.340 . S
C1060 N1059 1.321 . S
C1060 H1084 0.930 . S
H1061 C1056 0.931 . S
Co1062 N1059 2.135 . S
Co1062 N1065 2.121 . S
Co1062 O1070 2.055 . S
Co1062 O1073 2.039 . S
Co1062 N1076 2.140 . S
C1063 O1064 1.227 . S
C1063 O1073 1.265 . S
O1064 C1063 1.227 . S
N1065 Co1062 2.121 . S
N1065 C1067 1.375 . S
N1065 C1068 1.313 . S
C1066 C1067 1.338 . S
C1066 N1069 1.377 . S
C1066 H1086 0.930 . S
C1067 N1065 1.375 . S
C1067 C1066 1.338 . S
C1067 H1071 0.931 . S
C1068 N1065 1.313 . S
C1068 N1069 1.344 . S
C1068 H1072 0.930 . S
N1069 C1066 1.377 . S
N1069 C1068 1.344 . S
O1070 Co1062 2.055 . S
O1070 C1074 1.253 . S
H1071 C1067 0.931 . S
H1072 C1068 0.930 . S
O1073 Co1062 2.039 . S
O1073 C1063 1.265 . S
C1074 O1070 1.253 . S
C1074 O1075 1.227 . S
O1075 C1074 1.227 . S
N1076 Co1062 2.140 . S
N1076 C1079 1.346 . S
N1076 C1080 1.345 . S
C1077 C1078 1.387 . S
C1077 C1081 1.391 . S
C1078 C1077 1.387 . S
C1078 C1079 1.369 . S
C1078 H1087 0.929 . S
C1079 N1076 1.346 . S
C1079 C1078 1.369 . S
C1079 H1082 0.928 . S
C1080 N1076 1.345 . S
C1080 C1081 1.371 . S
C1080 H1083 0.931 . S
C1081 C1077 1.391 . S
C1081 C1080 1.371 . S
C1081 H1088 0.930 . S
H1082 C1079 0.928 . S
H1083 C1080 0.931 . S
H1084 C1060 0.930 . S
H1085 C1057 0.930 . S
H1086 C1066 0.930 . S
H1087 C1078 0.929 . S
H1088 C1081 0.930 . S
C1089 C1090 1.351 . S
C1089 N1092 1.368 . S
C1089 H1094 0.931 . S
C1090 C1089 1.351 . S
C1090 N1091 1.373 . S
C1090 H1118 0.930 . S
N1091 C1090 1.373 . S
N1091 C1093 1.340 . S
N1092 C1089 1.368 . S
N1092 C1093 1.321 . S
N1092 Co1095 2.135 . S
C1093 N1091 1.340 . S
C1093 N1092 1.321 . S
C1093 H1117 0.930 . S
H1094 C1089 0.931 . S
Co1095 N1092 2.135 . S
Co1095 N1098 2.121 . S
Co1095 O1103 2.055 . S
Co1095 O1106 2.039 . S
Co1095 N1109 2.140 . S
C1096 O1097 1.227 . S
C1096 O1106 1.265 . S
O1097 C1096 1.227 . S
N1098 Co1095 2.121 . S
N1098 C1100 1.375 . S
N1098 C1101 1.313 . S
C1099 C1100 1.338 . S
C1099 N1102 1.377 . S
C1099 H1119 0.930 . S
C1100 N1098 1.375 . S
C1100 C1099 1.338 . S
C1100 H1104 0.931 . S
C1101 N1098 1.313 . S
C1101 N1102 1.344 . S
C1101 H1105 0.930 . S
N1102 C1099 1.377 . S
N1102 C1101 1.344 . S
O1103 Co1095 2.055 . S
O1103 C1107 1.253 . S
H1104 C1100 0.931 . S
H1105 C1101 0.930 . S
O1106 Co1095 2.039 . S
O1106 C1096 1.265 . S
C1107 O1103 1.253 . S
C1107 O1108 1.227 . S
O1108 C1107 1.227 . S
N1109 Co1095 2.140 . S
N1109 C1112 1.346 . S
N1109 C1113 1.345 . S
C1110 C1111 1.387 . S
C1110 C1114 1.391 . S
C1111 C1110 1.387 . S
C1111 C1112 1.369 . S
C1111 H1120 0.929 . S
C1112 N1109 1.346 . S
C1112 C1111 1.369 . S
C1112 H1115 0.928 . S
C1113 N1109 1.345 . S
C1113 C1114 1.371 . S
C1113 H1116 0.931 . S
C1114 C1110 1.391 . S
C1114 C1113 1.371 . S
C1114 H1121 0.930 . S
H1115 C1112 0.928 . S
H1116 C1113 0.931 . S
H1117 C1093 0.930 . S
H1118 C1090 0.930 . S
H1119 C1099 0.930 . S
H1120 C1111 0.929 . S
H1121 C1114 0.930 . S
C1122 C1123 1.351 . S
C1122 N1125 1.368 . S
C1122 H1127 0.931 . S
C1123 C1122 1.351 . S
C1123 N1124 1.373 . S
C1123 H1151 0.930 . S
N1124 C1123 1.373 . S
N1124 C1126 1.340 . S
N1125 C1122 1.368 . S
N1125 C1126 1.321 . S
N1125 Co1128 2.135 . S
C1126 N1124 1.340 . S
C1126 N1125 1.321 . S
C1126 H1150 0.930 . S
H1127 C1122 0.931 . S
Co1128 N1125 2.135 . S
Co1128 N1131 2.121 . S
Co1128 O1136 2.055 . S
Co1128 O1139 2.039 . S
Co1128 N1142 2.140 . S
C1129 O1130 1.227 . S
C1129 O1139 1.265 . S
O1130 C1129 1.227 . S
N1131 Co1128 2.121 . S
N1131 C1133 1.375 . S
N1131 C1134 1.313 . S
C1132 C1133 1.338 . S
C1132 N1135 1.377 . S
C1132 H1152 0.930 . S
C1133 N1131 1.375 . S
C1133 C1132 1.338 . S
C1133 H1137 0.931 . S
C1134 N1131 1.313 . S
C1134 N1135 1.344 . S
C1134 H1138 0.930 . S
N1135 C1132 1.377 . S
N1135 C1134 1.344 . S
O1136 Co1128 2.055 . S
O1136 C1140 1.253 . S
H1137 C1133 0.931 . S
H1138 C1134 0.930 . S
O1139 Co1128 2.039 . S
O1139 C1129 1.265 . S
C1140 O1136 1.253 . S
C1140 O1141 1.227 . S
O1141 C1140 1.227 . S
N1142 Co1128 2.140 . S
N1142 C1145 1.346 . S
N1142 C1146 1.345 . S
C1143 C1144 1.387 . S
C1143 C1147 1.391 . S
C1144 C1143 1.387 . S
C1144 C1145 1.369 . S
C1144 H1153 0.929 . S
C1145 N1142 1.346 . S
C1145 C1144 1.369 . S
C1145 H1148 0.928 . S
C1146 N1142 1.345 . S
C1146 C1147 1.371 . S
C1146 H1149 0.931 . S
C1147 C1143 1.391 . S
C1147 C1146 1.371 . S
C1147 H1154 0.930 . S
H1148 C1145 0.928 . S
H1149 C1146 0.931 . S
H1150 C1126 0.930 . S
H1151 C1123 0.930 . S
H1152 C1132 0.930 . S
H1153 C1144 0.929 . S
H1154 C1147 0.930 . S
C1155 C1156 1.351 . S
C1155 N1158 1.368 . S
C1155 H1160 0.931 . S
C1156 C1155 1.351 . S
C1156 N1157 1.373 . S
C1156 H1184 0.930 . S
N1157 C1156 1.373 . S
N1157 C1159 1.340 . S
N1158 C1155 1.368 . S
N1158 C1159 1.321 . S
N1158 Co1161 2.135 . S
C1159 N1157 1.340 . S
C1159 N1158 1.321 . S
C1159 H1183 0.930 . S
H1160 C1155 0.931 . S
Co1161 N1158 2.135 . S
Co1161 N1164 2.121 . S
Co1161 O1169 2.055 . S
Co1161 O1172 2.039 . S
Co1161 N1175 2.140 . S
C1162 O1163 1.227 . S
C1162 O1172 1.265 . S
O1163 C1162 1.227 . S
N1164 Co1161 2.121 . S
N1164 C1166 1.375 . S
N1164 C1167 1.313 . S
C1165 C1166 1.338 . S
C1165 N1168 1.377 . S
C1165 H1185 0.930 . S
C1166 N1164 1.375 . S
C1166 C1165 1.338 . S
C1166 H1170 0.931 . S
C1167 N1164 1.313 . S
C1167 N1168 1.344 . S
C1167 H1171 0.930 . S
N1168 C1165 1.377 . S
N1168 C1167 1.344 . S
O1169 Co1161 2.055 . S
O1169 C1173 1.253 . S
H1170 C1166 0.931 . S
H1171 C1167 0.930 . S
O1172 Co1161 2.039 . S
O1172 C1162 1.265 . S
C1173 O1169 1.253 . S
C1173 O1174 1.227 . S
O1174 C1173 1.227 . S
N1175 Co1161 2.140 . S
N1175 C1178 1.346 . S
N1175 C1179 1.345 . S
C1176 C1177 1.387 . S
C1176 C1180 1.391 . S
C1177 C1176 1.387 . S
C1177 C1178 1.369 . S
C1177 H1186 0.929 . S
C1178 N1175 1.346 . S
C1178 C1177 1.369 . S
C1178 H1181 0.928 . S
C1179 N1175 1.345 . S
C1179 C1180 1.371 . S
C1179 H1182 0.931 . S
C1180 C1176 1.391 . S
C1180 C1179 1.371 . S
C1180 H1187 0.930 . S
H1181 C1178 0.928 . S
H1182 C1179 0.931 . S
H1183 C1159 0.930 . S
H1184 C1156 0.930 . S
H1185 C1165 0.930 . S
H1186 C1177 0.929 . S
H1187 C1180 0.930 . S
C1188 C1189 1.351 . S
C1188 N1191 1.368 . S
C1188 H1193 0.931 . S
C1189 C1188 1.351 . S
C1189 N1190 1.373 . S
C1189 H1217 0.930 . S
N1190 C1189 1.373 . S
N1190 C1192 1.340 . S
N1191 C1188 1.368 . S
N1191 C1192 1.321 . S
N1191 Co1194 2.135 . S
C1192 N1190 1.340 . S
C1192 N1191 1.321 . S
C1192 H1216 0.930 . S
H1193 C1188 0.931 . S
Co1194 N1191 2.135 . S
Co1194 N1197 2.121 . S
Co1194 O1202 2.055 . S
Co1194 O1205 2.039 . S
Co1194 N1208 2.140 . S
C1195 O1196 1.227 . S
C1195 O1205 1.265 . S
O1196 C1195 1.227 . S
N1197 Co1194 2.121 . S
N1197 C1199 1.375 . S
N1197 C1200 1.313 . S
C1198 C1199 1.338 . S
C1198 N1201 1.377 . S
C1198 H1218 0.930 . S
C1199 N1197 1.375 . S
C1199 C1198 1.338 . S
C1199 H1203 0.931 . S
C1200 N1197 1.313 . S
C1200 N1201 1.344 . S
C1200 H1204 0.930 . S
N1201 C1198 1.377 . S
N1201 C1200 1.344 . S
O1202 Co1194 2.055 . S
O1202 C1206 1.253 . S
H1203 C1199 0.931 . S
H1204 C1200 0.930 . S
O1205 Co1194 2.039 . S
O1205 C1195 1.265 . S
C1206 O1202 1.253 . S
C1206 O1207 1.227 . S
O1207 C1206 1.227 . S
N1208 Co1194 2.140 . S
N1208 C1211 1.346 . S
N1208 C1212 1.345 . S
C1209 C1210 1.387 . S
C1209 C1213 1.391 . S
C1210 C1209 1.387 . S
C1210 C1211 1.369 . S
C1210 H1219 0.929 . S
C1211 N1208 1.346 . S
C1211 C1210 1.369 . S
C1211 H1214 0.928 . S
C1212 N1208 1.345 . S
C1212 C1213 1.371 . S
C1212 H1215 0.931 . S
C1213 C1209 1.391 . S
C1213 C1212 1.371 . S
C1213 H1220 0.930 . S
H1214 C1211 0.928 . S
H1215 C1212 0.931 . S
H1216 C1192 0.930 . S
H1217 C1189 0.930 . S
H1218 C1198 0.930 . S
H1219 C1210 0.929 . S
H1220 C1213 0.930 . S
C1221 C1222 1.351 . S
C1221 N1224 1.368 . S
C1221 H1226 0.931 . S
C1222 C1221 1.351 . S
C1222 N1223 1.373 . S
C1222 H1250 0.930 . S
N1223 C1222 1.373 . S
N1223 C1225 1.340 . S
N1224 C1221 1.368 . S
N1224 C1225 1.321 . S
N1224 Co1227 2.135 . S
C1225 N1223 1.340 . S
C1225 N1224 1.321 . S
C1225 H1249 0.930 . S
H1226 C1221 0.931 . S
Co1227 N1224 2.135 . S
Co1227 N1230 2.121 . S
Co1227 O1235 2.055 . S
Co1227 O1238 2.039 . S
Co1227 N1241 2.140 . S
C1228 O1229 1.227 . S
C1228 O1238 1.265 . S
O1229 C1228 1.227 . S
N1230 Co1227 2.121 . S
N1230 C1232 1.375 . S
N1230 C1233 1.313 . S
C1231 C1232 1.338 . S
C1231 N1234 1.377 . S
C1231 H1251 0.930 . S
C1232 N1230 1.375 . S
C1232 C1231 1.338 . S
C1232 H1236 0.931 . S
C1233 N1230 1.313 . S
C1233 N1234 1.344 . S
C1233 H1237 0.930 . S
N1234 C1231 1.377 . S
N1234 C1233 1.344 . S
O1235 Co1227 2.055 . S
O1235 C1239 1.253 . S
H1236 C1232 0.931 . S
H1237 C1233 0.930 . S
O1238 Co1227 2.039 . S
O1238 C1228 1.265 . S
C1239 O1235 1.253 . S
C1239 O1240 1.227 . S
O1240 C1239 1.227 . S
N1241 Co1227 2.140 . S
N1241 C1244 1.346 . S
N1241 C1245 1.345 . S
C1242 C1243 1.387 . S
C1242 C1246 1.391 . S
C1243 C1242 1.387 . S
C1243 C1244 1.369 . S
C1243 H1252 0.929 . S
C1244 N1241 1.346 . S
C1244 C1243 1.369 . S
C1244 H1247 0.928 . S
C1245 N1241 1.345 . S
C1245 C1246 1.371 . S
C1245 H1248 0.931 . S
C1246 C1242 1.391 . S
C1246 C1245 1.371 . S
C1246 H1253 0.930 . S
H1247 C1244 0.928 . S
H1248 C1245 0.931 . S
H1249 C1225 0.930 . S
H1250 C1222 0.930 . S
H1251 C1231 0.930 . S
H1252 C1243 0.929 . S
H1253 C1246 0.930 . S
C1254 C1255 1.351 . S
C1254 N1257 1.368 . S
C1254 H1259 0.931 . S
C1255 C1254 1.351 . S
C1255 N1256 1.373 . S
C1255 H1283 0.930 . S
N1256 C1255 1.373 . S
N1256 C1258 1.340 . S
N1257 C1254 1.368 . S
N1257 C1258 1.321 . S
N1257 Co1260 2.135 . S
C1258 N1256 1.340 . S
C1258 N1257 1.321 . S
C1258 H1282 0.930 . S
H1259 C1254 0.931 . S
Co1260 N1257 2.135 . S
Co1260 N1263 2.121 . S
Co1260 O1268 2.055 . S
Co1260 O1271 2.039 . S
Co1260 N1274 2.140 . S
C1261 O1262 1.227 . S
C1261 O1271 1.265 . S
O1262 C1261 1.227 . S
N1263 Co1260 2.121 . S
N1263 C1265 1.375 . S
N1263 C1266 1.313 . S
C1264 C1265 1.338 . S
C1264 N1267 1.377 . S
C1264 H1284 0.930 . S
C1265 N1263 1.375 . S
C1265 C1264 1.338 . S
C1265 H1269 0.931 . S
C1266 N1263 1.313 . S
C1266 N1267 1.344 . S
C1266 H1270 0.930 . S
N1267 C1264 1.377 . S
N1267 C1266 1.344 . S
O1268 Co1260 2.055 . S
O1268 C1272 1.253 . S
H1269 C1265 0.931 . S
H1270 C1266 0.930 . S
O1271 Co1260 2.039 . S
O1271 C1261 1.265 . S
C1272 O1268 1.253 . S
C1272 O1273 1.227 . S
O1273 C1272 1.227 . S
N1274 Co1260 2.140 . S
N1274 C1277 1.346 . S
N1274 C1278 1.345 . S
C1275 C1276 1.387 . S
C1275 C1279 1.391 . S
C1276 C1275 1.387 . S
C1276 C1277 1.369 . S
C1276 H1285 0.929 . S
C1277 N1274 1.346 . S
C1277 C1276 1.369 . S
C1277 H1280 0.928 . S
C1278 N1274 1.345 . S
C1278 C1279 1.371 . S
C1278 H1281 0.931 . S
C1279 C1275 1.391 . S
C1279 C1278 1.371 . S
C1279 H1286 0.930 . S
H1280 C1277 0.928 . S
H1281 C1278 0.931 . S
H1282 C1258 0.930 . S
H1283 C1255 0.930 . S
H1284 C1264 0.930 . S
H1285 C1276 0.929 . S
H1286 C1279 0.930 . S
C1287 C1288 1.351 . S
C1287 N1290 1.368 . S
C1287 H1292 0.931 . S
C1288 C1287 1.351 . S
C1288 N1289 1.373 . S
C1288 H1316 0.930 . S
N1289 C1288 1.373 . S
N1289 C1291 1.340 . S
N1290 C1287 1.368 . S
N1290 C1291 1.321 . S
N1290 Co1293 2.135 . S
C1291 N1289 1.340 . S
C1291 N1290 1.321 . S
C1291 H1315 0.930 . S
H1292 C1287 0.931 . S
Co1293 N1290 2.135 . S
Co1293 N1296 2.121 . S
Co1293 O1301 2.055 . S
Co1293 O1304 2.039 . S
Co1293 N1307 2.140 . S
C1294 O1295 1.227 . S
C1294 O1304 1.265 . S
O1295 C1294 1.227 . S
N1296 Co1293 2.121 . S
N1296 C1298 1.375 . S
N1296 C1299 1.313 . S
C1297 C1298 1.338 . S
C1297 N1300 1.377 . S
C1297 H1317 0.930 . S
C1298 N1296 1.375 . S
C1298 C1297 1.338 . S
C1298 H1302 0.931 . S
C1299 N1296 1.313 . S
C1299 N1300 1.344 . S
C1299 H1303 0.930 . S
N1300 C1297 1.377 . S
N1300 C1299 1.344 . S
O1301 Co1293 2.055 . S
O1301 C1305 1.253 . S
H1302 C1298 0.931 . S
H1303 C1299 0.930 . S
O1304 Co1293 2.039 . S
O1304 C1294 1.265 . S
C1305 O1301 1.253 . S
C1305 O1306 1.227 . S
O1306 C1305 1.227 . S
N1307 Co1293 2.140 . S
N1307 C1310 1.346 . S
N1307 C1311 1.345 . S
C1308 C1309 1.387 . S
C1308 C1312 1.391 . S
C1309 C1308 1.387 . S
C1309 C1310 1.369 . S
C1309 H1318 0.929 . S
C1310 N1307 1.346 . S
C1310 C1309 1.369 . S
C1310 H1313 0.928 . S
C1311 N1307 1.345 . S
C1311 C1312 1.371 . S
C1311 H1314 0.931 . S
C1312 C1308 1.391 . S
C1312 C1311 1.371 . S
C1312 H1319 0.930 . S
H1313 C1310 0.928 . S
H1314 C1311 0.931 . S
H1315 C1291 0.930 . S
H1316 C1288 0.930 . S
H1317 C1297 0.930 . S
H1318 C1309 0.929 . S
H1319 C1312 0.930 . S
C1320 C1321 1.351 . S
C1320 N1323 1.368 . S
C1320 H1325 0.931 . S
C1321 C1320 1.351 . S
C1321 N1322 1.373 . S
C1321 H1349 0.930 . S
N1322 C1321 1.373 . S
N1322 C1324 1.340 . S
N1323 C1320 1.368 . S
N1323 C1324 1.321 . S
N1323 Co1326 2.135 . S
C1324 N1322 1.340 . S
C1324 N1323 1.321 . S
C1324 H1348 0.930 . S
H1325 C1320 0.931 . S
Co1326 N1323 2.135 . S
Co1326 N1329 2.121 . S
Co1326 O1334 2.055 . S
Co1326 O1337 2.039 . S
Co1326 N1340 2.140 . S
C1327 O1328 1.227 . S
C1327 O1337 1.265 . S
O1328 C1327 1.227 . S
N1329 Co1326 2.121 . S
N1329 C1331 1.375 . S
N1329 C1332 1.313 . S
C1330 C1331 1.338 . S
C1330 N1333 1.377 . S
C1330 H1350 0.930 . S
C1331 N1329 1.375 . S
C1331 C1330 1.338 . S
C1331 H1335 0.931 . S
C1332 N1329 1.313 . S
C1332 N1333 1.344 . S
C1332 H1336 0.930 . S
N1333 C1330 1.377 . S
N1333 C1332 1.344 . S
O1334 Co1326 2.055 . S
O1334 C1338 1.253 . S
H1335 C1331 0.931 . S
H1336 C1332 0.930 . S
O1337 Co1326 2.039 . S
O1337 C1327 1.265 . S
C1338 O1334 1.253 . S
C1338 O1339 1.227 . S
O1339 C1338 1.227 . S
N1340 Co1326 2.140 . S
N1340 C1343 1.346 . S
N1340 C1344 1.345 . S
C1341 C1342 1.387 . S
C1341 C1345 1.391 . S
C1342 C1341 1.387 . S
C1342 C1343 1.369 . S
C1342 H1351 0.929 . S
C1343 N1340 1.346 . S
C1343 C1342 1.369 . S
C1343 H1346 0.928 . S
C1344 N1340 1.345 . S
C1344 C1345 1.371 . S
C1344 H1347 0.931 . S
C1345 C1341 1.391 . S
C1345 C1344 1.371 . S
C1345 H1352 0.930 . S
H1346 C1343 0.928 . S
H1347 C1344 0.931 . S
H1348 C1324 0.930 . S
H1349 C1321 0.930 . S
H1350 C1330 0.930 . S
H1351 C1342 0.929 . S
H1352 C1345 0.930 . S
C1353 C1354 1.351 . S
C1353 N1356 1.368 . S
C1353 H1358 0.931 . S
C1354 C1353 1.351 . S
C1354 N1355 1.373 . S
C1354 H1382 0.930 . S
N1355 C1354 1.373 . S
N1355 C1357 1.340 . S
N1356 C1353 1.368 . S
N1356 C1357 1.321 . S
N1356 Co1359 2.135 . S
C1357 N1355 1.340 . S
C1357 N1356 1.321 . S
C1357 H1381 0.930 . S
H1358 C1353 0.931 . S
Co1359 N1356 2.135 . S
Co1359 N1362 2.121 . S
Co1359 O1367 2.055 . S
Co1359 O1370 2.039 . S
Co1359 N1373 2.140 . S
C1360 O1361 1.227 . S
C1360 O1370 1.265 . S
O1361 C1360 1.227 . S
N1362 Co1359 2.121 . S
N1362 C1364 1.375 . S
N1362 C1365 1.313 . S
C1363 C1364 1.338 . S
C1363 N1366 1.377 . S
C1363 H1383 0.930 . S
C1364 N1362 1.375 . S
C1364 C1363 1.338 . S
C1364 H1368 0.931 . S
C1365 N1362 1.313 . S
C1365 N1366 1.344 . S
C1365 H1369 0.930 . S
N1366 C1363 1.377 . S
N1366 C1365 1.344 . S
O1367 Co1359 2.055 . S
O1367 C1371 1.253 . S
H1368 C1364 0.931 . S
H1369 C1365 0.930 . S
O1370 Co1359 2.039 . S
O1370 C1360 1.265 . S
C1371 O1367 1.253 . S
C1371 O1372 1.227 . S
O1372 C1371 1.227 . S
N1373 Co1359 2.140 . S
N1373 C1376 1.346 . S
N1373 C1377 1.345 . S
C1374 C1375 1.387 . S
C1374 C1378 1.391 . S
C1375 C1374 1.387 . S
C1375 C1376 1.369 . S
C1375 H1384 0.929 . S
C1376 N1373 1.346 . S
C1376 C1375 1.369 . S
C1376 H1379 0.928 . S
C1377 N1373 1.345 . S
C1377 C1378 1.371 . S
C1377 H1380 0.931 . S
C1378 C1374 1.391 . S
C1378 C1377 1.371 . S
C1378 H1385 0.930 . S
H1379 C1376 0.928 . S
H1380 C1377 0.931 . S
H1381 C1357 0.930 . S
H1382 C1354 0.930 . S
H1383 C1363 0.930 . S
H1384 C1375 0.929 . S
H1385 C1378 0.930 . S
C1386 C1387 1.351 . S
C1386 N1389 1.368 . S
C1386 H1391 0.931 . S
C1387 C1386 1.351 . S
C1387 N1388 1.373 . S
C1387 H1415 0.930 . S
N1388 C1387 1.373 . S
N1388 C1390 1.340 . S
N1389 C1386 1.368 . S
N1389 C1390 1.321 . S
N1389 Co1392 2.135 . S
C1390 N1388 1.340 . S
C1390 N1389 1.321 . S
C1390 H1414 0.930 . S
H1391 C1386 0.931 . S
Co1392 N1389 2.135 . S
Co1392 N1395 2.121 . S
Co1392 O1400 2.055 . S
Co1392 O1403 2.039 . S
Co1392 N1406 2.140 . S
C1393 O1394 1.227 . S
C1393 O1403 1.265 . S
O1394 C1393 1.227 . S
N1395 Co1392 2.121 . S
N1395 C1397 1.375 . S
N1395 C1398 1.313 . S
C1396 C1397 1.338 . S
C1396 N1399 1.377 . S
C1396 H1416 0.930 . S
C1397 N1395 1.375 . S
C1397 C1396 1.338 . S
C1397 H1401 0.931 . S
C1398 N1395 1.313 . S
C1398 N1399 1.344 . S
C1398 H1402 0.930 . S
N1399 C1396 1.377 . S
N1399 C1398 1.344 . S
O1400 Co1392 2.055 . S
O1400 C1404 1.253 . S
H1401 C1397 0.931 . S
H1402 C1398 0.930 . S
O1403 Co1392 2.039 . S
O1403 C1393 1.265 . S
C1404 O1400 1.253 . S
C1404 O1405 1.227 . S
O1405 C1404 1.227 . S
N1406 Co1392 2.140 . S
N1406 C1409 1.346 . S
N1406 C1410 1.345 . S
C1407 C1408 1.387 . S
C1407 C1411 1.391 . S
C1408 C1407 1.387 . S
C1408 C1409 1.369 . S
C1408 H1417 0.929 . S
C1409 N1406 1.346 . S
C1409 C1408 1.369 . S
C1409 H1412 0.928 . S
C1410 N1406 1.345 . S
C1410 C1411 1.371 . S
C1410 H1413 0.931 . S
C1411 C1407 1.391 . S
C1411 C1410 1.371 . S
C1411 H1418 0.930 . S
H1412 C1409 0.928 . S
H1413 C1410 0.931 . S
H1414 C1390 0.930 . S
H1415 C1387 0.930 . S
H1416 C1396 0.930 . S
H1417 C1408 0.929 . S
H1418 C1411 0.930 . S
C1419 C1420 1.351 . S
C1419 N1422 1.368 . S
C1419 H1424 0.931 . S
C1420 C1419 1.351 . S
C1420 N1421 1.373 . S
C1420 H1448 0.930 . S
N1421 C1420 1.373 . S
N1421 C1423 1.340 . S
N1422 C1419 1.368 . S
N1422 C1423 1.321 . S
N1422 Co1425 2.135 . S
C1423 N1421 1.340 . S
C1423 N1422 1.321 . S
C1423 H1447 0.930 . S
H1424 C1419 0.931 . S
Co1425 N1422 2.135 . S
Co1425 N1428 2.121 . S
Co1425 O1433 2.055 . S
Co1425 O1436 2.039 . S
Co1425 N1439 2.140 . S
C1426 O1427 1.227 . S
C1426 O1436 1.265 . S
O1427 C1426 1.227 . S
N1428 Co1425 2.121 . S
N1428 C1430 1.375 . S
N1428 C1431 1.313 . S
C1429 C1430 1.338 . S
C1429 N1432 1.377 . S
C1429 H1449 0.930 . S
C1430 N1428 1.375 . S
C1430 C1429 1.338 . S
C1430 H1434 0.931 . S
C1431 N1428 1.313 . S
C1431 N1432 1.344 . S
C1431 H1435 0.930 . S
N1432 C1429 1.377 . S
N1432 C1431 1.344 . S
O1433 Co1425 2.055 . S
O1433 C1437 1.253 . S
H1434 C1430 0.931 . S
H1435 C1431 0.930 . S
O1436 Co1425 2.039 . S
O1436 C1426 1.265 . S
C1437 O1433 1.253 . S
C1437 O1438 1.227 . S
O1438 C1437 1.227 . S
N1439 Co1425 2.140 . S
N1439 C1442 1.346 . S
N1439 C1443 1.345 . S
C1440 C1441 1.387 . S
C1440 C1444 1.391 . S
C1441 C1440 1.387 . S
C1441 C1442 1.369 . S
C1441 H1450 0.929 . S
C1442 N1439 1.346 . S
C1442 C1441 1.369 . S
C1442 H1445 0.928 . S
C1443 N1439 1.345 . S
C1443 C1444 1.371 . S
C1443 H1446 0.931 . S
C1444 C1440 1.391 . S
C1444 C1443 1.371 . S
C1444 H1451 0.930 . S
H1445 C1442 0.928 . S
H1446 C1443 0.931 . S
H1447 C1423 0.930 . S
H1448 C1420 0.930 . S
H1449 C1429 0.930 . S
H1450 C1441 0.929 . S
H1451 C1444 0.930 . S
C1452 C1453 1.351 . S
C1452 N1455 1.368 . S
C1452 H1457 0.931 . S
C1453 C1452 1.351 . S
C1453 N1454 1.373 . S
C1453 H1481 0.930 . S
N1454 C1453 1.373 . S
N1454 C1456 1.340 . S
N1455 C1452 1.368 . S
N1455 C1456 1.321 . S
N1455 Co1458 2.135 . S
C1456 N1454 1.340 . S
C1456 N1455 1.321 . S
C1456 H1480 0.930 . S
H1457 C1452 0.931 . S
Co1458 N1455 2.135 . S
Co1458 N1461 2.121 . S
Co1458 O1466 2.055 . S
Co1458 O1469 2.039 . S
Co1458 N1472 2.140 . S
C1459 O1460 1.227 . S
C1459 O1469 1.265 . S
O1460 C1459 1.227 . S
N1461 Co1458 2.121 . S
N1461 C1463 1.375 . S
N1461 C1464 1.313 . S
C1462 C1463 1.338 . S
C1462 N1465 1.377 . S
C1462 H1482 0.930 . S
C1463 N1461 1.375 . S
C1463 C1462 1.338 . S
C1463 H1467 0.931 . S
C1464 N1461 1.313 . S
C1464 N1465 1.344 . S
C1464 H1468 0.930 . S
N1465 C1462 1.377 . S
N1465 C1464 1.344 . S
O1466 Co1458 2.055 . S
O1466 C1470 1.253 . S
H1467 C1463 0.931 . S
H1468 C1464 0.930 . S
O1469 Co1458 2.039 . S
O1469 C1459 1.265 . S
C1470 O1466 1.253 . S
C1470 O1471 1.227 . S
O1471 C1470 1.227 . S
N1472 Co1458 2.140 . S
N1472 C1475 1.346 . S
N1472 C1476 1.345 . S
C1473 C1474 1.387 . S
C1473 C1477 1.391 . S
C1474 C1473 1.387 . S
C1474 C1475 1.369 . S
C1474 H1483 0.929 . S
C1475 N1472 1.346 . S
C1475 C1474 1.369 . S
C1475 H1478 0.928 . S
C1476 N1472 1.345 . S
C1476 C1477 1.371 . S
C1476 H1479 0.931 . S
C1477 C1473 1.391 . S
C1477 C1476 1.371 . S
C1477 H1484 0.930 . S
H1478 C1475 0.928 . S
H1479 C1476 0.931 . S
H1480 C1456 0.930 . S
H1481 C1453 0.930 . S
H1482 C1462 0.930 . S
H1483 C1474 0.929 . S
H1484 C1477 0.930 . S
C1485 C1486 1.351 . S
C1485 N1488 1.368 . S
C1485 H1490 0.931 . S
C1486 C1485 1.351 . S
C1486 N1487 1.373 . S
C1486 H1514 0.930 . S
N1487 C1486 1.373 . S
N1487 C1489 1.340 . S
N1488 C1485 1.368 . S
N1488 C1489 1.321 . S
N1488 Co1491 2.135 . S
C1489 N1487 1.340 . S
C1489 N1488 1.321 . S
C1489 H1513 0.930 . S
H1490 C1485 0.931 . S
Co1491 N1488 2.135 . S
Co1491 N1494 2.121 . S
Co1491 O1499 2.055 . S
Co1491 O1502 2.039 . S
Co1491 N1505 2.140 . S
C1492 O1493 1.227 . S
C1492 O1502 1.265 . S
O1493 C1492 1.227 . S
N1494 Co1491 2.121 . S
N1494 C1496 1.375 . S
N1494 C1497 1.313 . S
C1495 C1496 1.338 . S
C1495 N1498 1.377 . S
C1495 H1515 0.930 . S
C1496 N1494 1.375 . S
C1496 C1495 1.338 . S
C1496 H1500 0.931 . S
C1497 N1494 1.313 . S
C1497 N1498 1.344 . S
C1497 H1501 0.930 . S
N1498 C1495 1.377 . S
N1498 C1497 1.344 . S
O1499 Co1491 2.055 . S
O1499 C1503 1.253 . S
H1500 C1496 0.931 . S
H1501 C1497 0.930 . S
O1502 Co1491 2.039 . S
O1502 C1492 1.265 . S
C1503 O1499 1.253 . S
C1503 O1504 1.227 . S
O1504 C1503 1.227 . S
N1505 Co1491 2.140 . S
N1505 C1508 1.346 . S
N1505 C1509 1.345 . S
C1506 C1507 1.387 . S
C1506 C1510 1.391 . S
C1507 C1506 1.387 . S
C1507 C1508 1.369 . S
C1507 H1516 0.929 . S
C1508 N1505 1.346 . S
C1508 C1507 1.369 . S
C1508 H1511 0.928 . S
C1509 N1505 1.345 . S
C1509 C1510 1.371 . S
C1509 H1512 0.931 . S
C1510 C1506 1.391 . S
C1510 C1509 1.371 . S
C1510 H1517 0.930 . S
H1511 C1508 0.928 . S
H1512 C1509 0.931 . S
H1513 C1489 0.930 . S
H1514 C1486 0.930 . S
H1515 C1495 0.930 . S
H1516 C1507 0.929 . S
H1517 C1510 0.930 . S
C1518 C1519 1.351 . S
C1518 N1521 1.368 . S
C1518 H1523 0.931 . S
C1519 C1518 1.351 . S
C1519 N1520 1.373 . S
C1519 H1547 0.930 . S
N1520 C1519 1.373 . S
N1520 C1522 1.340 . S
N1521 C1518 1.368 . S
N1521 C1522 1.321 . S
N1521 Co1524 2.135 . S
C1522 N1520 1.340 . S
C1522 N1521 1.321 . S
C1522 H1546 0.930 . S
H1523 C1518 0.931 . S
Co1524 N1521 2.135 . S
Co1524 N1527 2.121 . S
Co1524 O1532 2.055 . S
Co1524 O1535 2.039 . S
Co1524 N1538 2.140 . S
C1525 O1526 1.227 . S
C1525 O1535 1.265 . S
O1526 C1525 1.227 . S
N1527 Co1524 2.121 . S
N1527 C1529 1.375 . S
N1527 C1530 1.313 . S
C1528 C1529 1.338 . S
C1528 N1531 1.377 . S
C1528 H1548 0.930 . S
C1529 N1527 1.375 . S
C1529 C1528 1.338 . S
C1529 H1533 0.931 . S
C1530 N1527 1.313 . S
C1530 N1531 1.344 . S
C1530 H1534 0.930 . S
N1531 C1528 1.377 . S
N1531 C1530 1.344 . S
O1532 Co1524 2.055 . S
O1532 C1536 1.253 . S
H1533 C1529 0.931 . S
H1534 C1530 0.930 . S
O1535 Co1524 2.039 . S
O1535 C1525 1.265 . S
C1536 O1532 1.253 . S
C1536 O1537 1.227 . S
O1537 C1536 1.227 . S
N1538 Co1524 2.140 . S
N1538 C1541 1.346 . S
N1538 C1542 1.345 . S
C1539 C1540 1.387 . S
C1539 C1543 1.391 . S
C1540 C1539 1.387 . S
C1540 C1541 1.369 . S
C1540 H1549 0.929 . S
C1541 N1538 1.346 . S
C1541 C1540 1.369 . S
C1541 H1544 0.928 . S
C1542 N1538 1.345 . S
C1542 C1543 1.371 . S
C1542 H1545 0.931 . S
C1543 C1539 1.391 . S
C1543 C1542 1.371 . S
C1543 H1550 0.930 . S
H1544 C1541 0.928 . S
H1545 C1542 0.931 . S
H1546 C1522 0.930 . S
H1547 C1519 0.930 . S
H1548 C1528 0.930 . S
H1549 C1540 0.929 . S
H1550 C1543 0.930 . S
C1551 C1552 1.351 . S
C1551 N1554 1.368 . S
C1551 H1556 0.931 . S
C1552 C1551 1.351 . S
C1552 N1553 1.373 . S
C1552 H1580 0.930 . S
N1553 C1552 1.373 . S
N1553 C1555 1.340 . S
N1554 C1551 1.368 . S
N1554 C1555 1.321 . S
N1554 Co1557 2.135 . S
C1555 N1553 1.340 . S
C1555 N1554 1.321 . S
C1555 H1579 0.930 . S
H1556 C1551 0.931 . S
Co1557 N1554 2.135 . S
Co1557 N1560 2.121 . S
Co1557 O1565 2.055 . S
Co1557 O1568 2.039 . S
Co1557 N1571 2.140 . S
C1558 O1559 1.227 . S
C1558 O1568 1.265 . S
O1559 C1558 1.227 . S
N1560 Co1557 2.121 . S
N1560 C1562 1.375 . S
N1560 C1563 1.313 . S
C1561 C1562 1.338 . S
C1561 N1564 1.377 . S
C1561 H1581 0.930 . S
C1562 N1560 1.375 . S
C1562 C1561 1.338 . S
C1562 H1566 0.931 . S
C1563 N1560 1.313 . S
C1563 N1564 1.344 . S
C1563 H1567 0.930 . S
N1564 C1561 1.377 . S
N1564 C1563 1.344 . S
O1565 Co1557 2.055 . S
O1565 C1569 1.253 . S
H1566 C1562 0.931 . S
H1567 C1563 0.930 . S
O1568 Co1557 2.039 . S
O1568 C1558 1.265 . S
C1569 O1565 1.253 . S
C1569 O1570 1.227 . S
O1570 C1569 1.227 . S
N1571 Co1557 2.140 . S
N1571 C1574 1.346 . S
N1571 C1575 1.345 . S
C1572 C1573 1.387 . S
C1572 C1576 1.391 . S
C1573 C1572 1.387 . S
C1573 C1574 1.369 . S
C1573 H1582 0.929 . S
C1574 N1571 1.346 . S
C1574 C1573 1.369 . S
C1574 H1577 0.928 . S
C1575 N1571 1.345 . S
C1575 C1576 1.371 . S
C1575 H1578 0.931 . S
C1576 C1572 1.391 . S
C1576 C1575 1.371 . S
C1576 H1583 0.930 . S
H1577 C1574 0.928 . S
H1578 C1575 0.931 . S
H1579 C1555 0.930 . S
H1580 C1552 0.930 . S
H1581 C1561 0.930 . S
H1582 C1573 0.929 . S
H1583 C1576 0.930 . S
H1584 C1590 0.930 . S
H1585 C1594 0.930 . S
H1586 C1599 0.929 . S
H1587 C1597 0.929 . S
H1588 C1592 0.929 . S
H1589 C1598 0.929 . S
C1590 H1584 0.930 . S
C1590 C1591 1.367 . S
C1590 C1598 1.378 . S
C1591 C1590 1.367 . S
C1591 C1599 1.433 . S
C1592 H1588 0.929 . S
C1592 C1594 1.378 . S
C1592 C1596 1.350 . S
C1593 C1596 1.463 . S
C1593 C1598 1.350 . S
C1593 N1601 1.427 . S
C1594 H1585 0.930 . S
C1594 C1592 1.378 . S
C1594 C1595 1.367 . S
C1595 C1594 1.367 . S
C1595 C1597 1.433 . S
C1596 C1592 1.350 . S
C1596 C1593 1.463 . S
C1596 N1600 1.427 . S
C1597 H1587 0.929 . S
C1597 C1595 1.433 . S
C1597 N1600 1.384 . S
C1598 H1589 0.929 . S
C1598 C1590 1.378 . S
C1598 C1593 1.350 . S
C1599 H1586 0.929 . S
C1599 C1591 1.433 . S
C1599 N1601 1.384 . S
N1600 C1596 1.427 . S
N1600 C1597 1.384 . S
N1601 C1593 1.427 . S
N1601 C1599 1.384 . S
H1602 C1608 0.930 . S
H1603 C1612 0.930 . S
H1604 C1617 0.929 . S
H1605 C1615 0.929 . S
H1606 C1610 0.929 . S
H1607 C1616 0.929 . S
C1608 H1602 0.930 . S
C1608 C1609 1.367 . S
C1608 C1616 1.378 . S
C1609 C1608 1.367 . S
C1609 C1617 1.433 . S
C1610 H1606 0.929 . S
C1610 C1612 1.378 . S
C1610 C1614 1.350 . S
C1611 C1614 1.463 . S
C1611 C1616 1.350 . S
C1611 N1619 1.427 . S
C1612 H1603 0.930 . S
C1612 C1610 1.378 . S
C1612 C1613 1.367 . S
C1613 C1612 1.367 . S
C1613 C1615 1.433 . S
C1614 C1610 1.350 . S
C1614 C1611 1.463 . S
C1614 N1618 1.427 . S
C1615 H1605 0.929 . S
C1615 C1613 1.433 . S
C1615 N1618 1.384 . S
C1616 H1607 0.929 . S
C1616 C1608 1.378 . S
C1616 C1611 1.350 . S
C1617 H1604 0.929 . S
C1617 C1609 1.433 . S
C1617 N1619 1.384 . S
N1618 C1614 1.427 . S
N1618 C1615 1.384 . S
N1619 C1611 1.427 . S
N1619 C1617 1.384 . S
H1620 C1626 0.930 . S
H1621 C1630 0.930 . S
H1622 C1635 0.929 . S
H1623 C1633 0.929 . S
H1624 C1628 0.929 . S
H1625 C1634 0.929 . S
C1626 H1620 0.930 . S
C1626 C1627 1.367 . S
C1626 C1634 1.378 . S
C1627 C1626 1.367 . S
C1627 C1635 1.433 . S
C1628 H1624 0.929 . S
C1628 C1630 1.378 . S
C1628 C1632 1.350 . S
C1629 C1632 1.463 . S
C1629 C1634 1.350 . S
C1629 N1637 1.427 . S
C1630 H1621 0.930 . S
C1630 C1628 1.378 . S
C1630 C1631 1.367 . S
C1631 C1630 1.367 . S
C1631 C1633 1.433 . S
C1632 C1628 1.350 . S
C1632 C1629 1.463 . S
C1632 N1636 1.427 . S
C1633 H1623 0.929 . S
C1633 C1631 1.433 . S
C1633 N1636 1.384 . S
C1634 H1625 0.929 . S
C1634 C1626 1.378 . S
C1634 C1629 1.350 . S
C1635 H1622 0.929 . S
C1635 C1627 1.433 . S
C1635 N1637 1.384 . S
N1636 C1632 1.427 . S
N1636 C1633 1.384 . S
N1637 C1629 1.427 . S
N1637 C1635 1.384 . S
H1638 C1644 0.930 . S
H1639 C1648 0.930 . S
H1640 C1653 0.929 . S
H1641 C1651 0.929 . S
H1642 C1646 0.929 . S
H1643 C1652 0.929 . S
C1644 H1638 0.930 . S
C1644 C1645 1.367 . S
C1644 C1652 1.378 . S
C1645 C1644 1.367 . S
C1645 C1653 1.433 . S
C1646 H1642 0.929 . S
C1646 C1648 1.378 . S
C1646 C1650 1.350 . S
C1647 C1650 1.463 . S
C1647 C1652 1.350 . S
C1647 N1655 1.427 . S
C1648 H1639 0.930 . S
C1648 C1646 1.378 . S
C1648 C1649 1.367 . S
C1649 C1648 1.367 . S
C1649 C1651 1.433 . S
C1650 C1646 1.350 . S
C1650 C1647 1.463 . S
C1650 N1654 1.427 . S
C1651 H1641 0.929 . S
C1651 C1649 1.433 . S
C1651 N1654 1.384 . S
C1652 H1643 0.929 . S
C1652 C1644 1.378 . S
C1652 C1647 1.350 . S
C1653 H1640 0.929 . S
C1653 C1645 1.433 . S
C1653 N1655 1.384 . S
N1654 C1650 1.427 . S
N1654 C1651 1.384 . S
N1655 C1647 1.427 . S
N1655 C1653 1.384 . S
H1656 C1662 0.930 . S
H1657 C1666 0.930 . S
H1658 C1671 0.929 . S
H1659 C1669 0.929 . S
H1660 C1664 0.929 . S
H1661 C1670 0.929 . S
C1662 H1656 0.930 . S
C1662 C1663 1.367 . S
C1662 C1670 1.378 . S
C1663 C1662 1.367 . S
C1663 C1671 1.433 . S
C1664 H1660 0.929 . S
C1664 C1666 1.378 . S
C1664 C1668 1.350 . S
C1665 C1668 1.463 . S
C1665 C1670 1.350 . S
C1665 N1673 1.427 . S
C1666 H1657 0.930 . S
C1666 C1664 1.378 . S
C1666 C1667 1.367 . S
C1667 C1666 1.367 . S
C1667 C1669 1.433 . S
C1668 C1664 1.350 . S
C1668 C1665 1.463 . S
C1668 N1672 1.427 . S
C1669 H1659 0.929 . S
C1669 C1667 1.433 . S
C1669 N1672 1.384 . S
C1670 H1661 0.929 . S
C1670 C1662 1.378 . S
C1670 C1665 1.350 . S
C1671 H1658 0.929 . S
C1671 C1663 1.433 . S
C1671 N1673 1.384 . S
N1672 C1668 1.427 . S
N1672 C1669 1.384 . S
N1673 C1665 1.427 . S
N1673 C1671 1.384 . S
H1674 C1680 0.930 . S
H1675 C1684 0.930 . S
H1676 C1689 0.929 . S
H1677 C1687 0.929 . S
H1678 C1682 0.929 . S
H1679 C1688 0.929 . S
C1680 H1674 0.930 . S
C1680 C1681 1.367 . S
C1680 C1688 1.378 . S
C1681 C1680 1.367 . S
C1681 C1689 1.433 . S
C1682 H1678 0.929 . S
C1682 C1684 1.378 . S
C1682 C1686 1.350 . S
C1683 C1686 1.463 . S
C1683 C1688 1.350 . S
C1683 N1691 1.427 . S
C1684 H1675 0.930 . S
C1684 C1682 1.378 . S
C1684 C1685 1.367 . S
C1685 C1684 1.367 . S
C1685 C1687 1.433 . S
C1686 C1682 1.350 . S
C1686 C1683 1.463 . S
C1686 N1690 1.427 . S
C1687 H1677 0.929 . S
C1687 C1685 1.433 . S
C1687 N1690 1.384 . S
C1688 H1679 0.929 . S
C1688 C1680 1.378 . S
C1688 C1683 1.350 . S
C1689 H1676 0.929 . S
C1689 C1681 1.433 . S
C1689 N1691 1.384 . S
N1690 C1686 1.427 . S
N1690 C1687 1.384 . S
N1691 C1683 1.427 . S
N1691 C1689 1.384 . S
H1692 C1698 0.930 . S
H1693 C1702 0.930 . S
H1694 C1707 0.929 . S
H1695 C1705 0.929 . S
H1696 C1700 0.929 . S
H1697 C1706 0.929 . S
C1698 H1692 0.930 . S
C1698 C1699 1.367 . S
C1698 C1706 1.378 . S
C1699 C1698 1.367 . S
C1699 C1707 1.433 . S
C1700 H1696 0.929 . S
C1700 C1702 1.378 . S
C1700 C1704 1.350 . S
C1701 C1704 1.463 . S
C1701 C1706 1.350 . S
C1701 N1709 1.427 . S
C1702 H1693 0.930 . S
C1702 C1700 1.378 . S
C1702 C1703 1.367 . S
C1703 C1702 1.367 . S
C1703 C1705 1.433 . S
C1704 C1700 1.350 . S
C1704 C1701 1.463 . S
C1704 N1708 1.427 . S
C1705 H1695 0.929 . S
C1705 C1703 1.433 . S
C1705 N1708 1.384 . S
C1706 H1697 0.929 . S
C1706 C1698 1.378 . S
C1706 C1701 1.350 . S
C1707 H1694 0.929 . S
C1707 C1699 1.433 . S
C1707 N1709 1.384 . S
N1708 C1704 1.427 . S
N1708 C1705 1.384 . S
N1709 C1701 1.427 . S
N1709 C1707 1.384 . S
H1710 C1716 0.930 . S
H1711 C1720 0.930 . S
H1712 C1725 0.929 . S
H1713 C1723 0.929 . S
H1714 C1718 0.929 . S
H1715 C1724 0.929 . S
C1716 H1710 0.930 . S
C1716 C1717 1.367 . S
C1716 C1724 1.378 . S
C1717 C1716 1.367 . S
C1717 C1725 1.433 . S
C1718 H1714 0.929 . S
C1718 C1720 1.378 . S
C1718 C1722 1.350 . S
C1719 C1722 1.463 . S
C1719 C1724 1.350 . S
C1719 N1727 1.427 . S
C1720 H1711 0.930 . S
C1720 C1718 1.378 . S
C1720 C1721 1.367 . S
C1721 C1720 1.367 . S
C1721 C1723 1.433 . S
C1722 C1718 1.350 . S
C1722 C1719 1.463 . S
C1722 N1726 1.427 . S
C1723 H1713 0.929 . S
C1723 C1721 1.433 . S
C1723 N1726 1.384 . S
C1724 H1715 0.929 . S
C1724 C1716 1.378 . S
C1724 C1719 1.350 . S
C1725 H1712 0.929 . S
C1725 C1717 1.433 . S
C1725 N1727 1.384 . S
N1726 C1722 1.427 . S
N1726 C1723 1.384 . S
N1727 C1719 1.427 . S
N1727 C1725 1.384 . S
H1728 C1734 0.930 . S
H1729 C1738 0.930 . S
H1730 C1743 0.929 . S
H1731 C1741 0.929 . S
H1732 C1736 0.929 . S
H1733 C1742 0.929 . S
C1734 H1728 0.930 . S
C1734 C1735 1.367 . S
C1734 C1742 1.378 . S
C1735 C1734 1.367 . S
C1735 C1743 1.433 . S
C1736 H1732 0.929 . S
C1736 C1738 1.378 . S
C1736 C1740 1.350 . S
C1737 C1740 1.463 . S
C1737 C1742 1.350 . S
C1737 N1745 1.427 . S
C1738 H1729 0.930 . S
C1738 C1736 1.378 . S
C1738 C1739 1.367 . S
C1739 C1738 1.367 . S
C1739 C1741 1.433 . S
C1740 C1736 1.350 . S
C1740 C1737 1.463 . S
C1740 N1744 1.427 . S
C1741 H1731 0.929 . S
C1741 C1739 1.433 . S
C1741 N1744 1.384 . S
C1742 H1733 0.929 . S
C1742 C1734 1.378 . S
C1742 C1737 1.350 . S
C1743 H1730 0.929 . S
C1743 C1735 1.433 . S
C1743 N1745 1.384 . S
N1744 C1740 1.427 . S
N1744 C1741 1.384 . S
N1745 C1737 1.427 . S
N1745 C1743 1.384 . S
H1746 C1752 0.930 . S
H1747 C1756 0.930 . S
H1748 C1761 0.929 . S
H1749 C1759 0.929 . S
H1750 C1754 0.929 . S
H1751 C1760 0.929 . S
C1752 H1746 0.930 . S
C1752 C1753 1.367 . S
C1752 C1760 1.378 . S
C1753 C1752 1.367 . S
C1753 C1761 1.433 . S
C1754 H1750 0.929 . S
C1754 C1756 1.378 . S
C1754 C1758 1.350 . S
C1755 C1758 1.463 . S
C1755 C1760 1.350 . S
C1755 N1763 1.427 . S
C1756 H1747 0.930 . S
C1756 C1754 1.378 . S
C1756 C1757 1.367 . S
C1757 C1756 1.367 . S
C1757 C1759 1.433 . S
C1758 C1754 1.350 . S
C1758 C1755 1.463 . S
C1758 N1762 1.427 . S
C1759 H1749 0.929 . S
C1759 C1757 1.433 . S
C1759 N1762 1.384 . S
C1760 H1751 0.929 . S
C1760 C1752 1.378 . S
C1760 C1755 1.350 . S
C1761 H1748 0.929 . S
C1761 C1753 1.433 . S
C1761 N1763 1.384 . S
N1762 C1758 1.427 . S
N1762 C1759 1.384 . S
N1763 C1755 1.427 . S
N1763 C1761 1.384 . S
H1764 C1770 0.930 . S
H1765 C1774 0.930 . S
H1766 C1779 0.929 . S
H1767 C1777 0.929 . S
H1768 C1772 0.929 . S
H1769 C1778 0.929 . S
C1770 H1764 0.930 . S
C1770 C1771 1.367 . S
C1770 C1778 1.378 . S
C1771 C1770 1.367 . S
C1771 C1779 1.433 . S
C1772 H1768 0.929 . S
C1772 C1774 1.378 . S
C1772 C1776 1.350 . S
C1773 C1776 1.463 . S
C1773 C1778 1.350 . S
C1773 N1781 1.427 . S
C1774 H1765 0.930 . S
C1774 C1772 1.378 . S
C1774 C1775 1.367 . S
C1775 C1774 1.367 . S
C1775 C1777 1.433 . S
C1776 C1772 1.350 . S
C1776 C1773 1.463 . S
C1776 N1780 1.427 . S
C1777 H1767 0.929 . S
C1777 C1775 1.433 . S
C1777 N1780 1.384 . S
C1778 H1769 0.929 . S
C1778 C1770 1.378 . S
C1778 C1773 1.350 . S
C1779 H1766 0.929 . S
C1779 C1771 1.433 . S
C1779 N1781 1.384 . S
N1780 C1776 1.427 . S
N1780 C1777 1.384 . S
N1781 C1773 1.427 . S
N1781 C1779 1.384 . S
H1782 C1788 0.930 . S
H1783 C1792 0.930 . S
H1784 C1797 0.929 . S
H1785 C1795 0.929 . S
H1786 C1790 0.929 . S
H1787 C1796 0.929 . S
C1788 H1782 0.930 . S
C1788 C1789 1.367 . S
C1788 C1796 1.378 . S
C1789 C1788 1.367 . S
C1789 C1797 1.433 . S
C1790 H1786 0.929 . S
C1790 C1792 1.378 . S
C1790 C1794 1.350 . S
C1791 C1794 1.463 . S
C1791 C1796 1.350 . S
C1791 N1799 1.427 . S
C1792 H1783 0.930 . S
C1792 C1790 1.378 . S
C1792 C1793 1.367 . S
C1793 C1792 1.367 . S
C1793 C1795 1.433 . S
C1794 C1790 1.350 . S
C1794 C1791 1.463 . S
C1794 N1798 1.427 . S
C1795 H1785 0.929 . S
C1795 C1793 1.433 . S
C1795 N1798 1.384 . S
C1796 H1787 0.929 . S
C1796 C1788 1.378 . S
C1796 C1791 1.350 . S
C1797 H1784 0.929 . S
C1797 C1789 1.433 . S
C1797 N1799 1.384 . S
N1798 C1794 1.427 . S
N1798 C1795 1.384 . S
N1799 C1791 1.427 . S
N1799 C1797 1.384 . S
H1800 C1806 0.930 . S
H1801 C1810 0.930 . S
H1802 C1815 0.929 . S
H1803 C1813 0.929 . S
H1804 C1808 0.929 . S
H1805 C1814 0.929 . S
C1806 H1800 0.930 . S
C1806 C1807 1.367 . S
C1806 C1814 1.378 . S
C1807 C1806 1.367 . S
C1807 C1815 1.433 . S
C1808 H1804 0.929 . S
C1808 C1810 1.378 . S
C1808 C1812 1.350 . S
C1809 C1812 1.463 . S
C1809 C1814 1.350 . S
C1809 N1817 1.427 . S
C1810 H1801 0.930 . S
C1810 C1808 1.378 . S
C1810 C1811 1.367 . S
C1811 C1810 1.367 . S
C1811 C1813 1.433 . S
C1812 C1808 1.350 . S
C1812 C1809 1.463 . S
C1812 N1816 1.427 . S
C1813 H1803 0.929 . S
C1813 C1811 1.433 . S
C1813 N1816 1.384 . S
C1814 H1805 0.929 . S
C1814 C1806 1.378 . S
C1814 C1809 1.350 . S
C1815 H1802 0.929 . S
C1815 C1807 1.433 . S
C1815 N1817 1.384 . S
N1816 C1812 1.427 . S
N1816 C1813 1.384 . S
N1817 C1809 1.427 . S
N1817 C1815 1.384 . S
H1818 C1824 0.930 . S
H1819 C1828 0.930 . S
H1820 C1833 0.929 . S
H1821 C1831 0.929 . S
H1822 C1826 0.929 . S
H1823 C1832 0.929 . S
C1824 H1818 0.930 . S
C1824 C1825 1.367 . S
C1824 C1832 1.378 . S
C1825 C1824 1.367 . S
C1825 C1833 1.433 . S
C1826 H1822 0.929 . S
C1826 C1828 1.378 . S
C1826 C1830 1.350 . S
C1827 C1830 1.463 . S
C1827 C1832 1.350 . S
C1827 N1835 1.427 . S
C1828 H1819 0.930 . S
C1828 C1826 1.378 . S
C1828 C1829 1.367 . S
C1829 C1828 1.367 . S
C1829 C1831 1.433 . S
C1830 C1826 1.350 . S
C1830 C1827 1.463 . S
C1830 N1834 1.427 . S
C1831 H1821 0.929 . S
C1831 C1829 1.433 . S
C1831 N1834 1.384 . S
C1832 H1823 0.929 . S
C1832 C1824 1.378 . S
C1832 C1827 1.350 . S
C1833 H1820 0.929 . S
C1833 C1825 1.433 . S
C1833 N1835 1.384 . S
N1834 C1830 1.427 . S
N1834 C1831 1.384 . S
N1835 C1827 1.427 . S
N1835 C1833 1.384 . S
H1836 C1842 0.930 . S
H1837 C1846 0.930 . S
H1838 C1851 0.929 . S
H1839 C1849 0.929 . S
H1840 C1844 0.929 . S
H1841 C1850 0.929 . S
C1842 H1836 0.930 . S
C1842 C1843 1.367 . S
C1842 C1850 1.378 . S
C1843 C1842 1.367 . S
C1843 C1851 1.433 . S
C1844 H1840 0.929 . S
C1844 C1846 1.378 . S
C1844 C1848 1.350 . S
C1845 C1848 1.463 . S
C1845 C1850 1.350 . S
C1845 N1853 1.427 . S
C1846 H1837 0.930 . S
C1846 C1844 1.378 . S
C1846 C1847 1.367 . S
C1847 C1846 1.367 . S
C1847 C1849 1.433 . S
C1848 C1844 1.350 . S
C1848 C1845 1.463 . S
C1848 N1852 1.427 . S
C1849 H1839 0.929 . S
C1849 C1847 1.433 . S
C1849 N1852 1.384 . S
C1850 H1841 0.929 . S
C1850 C1842 1.378 . S
C1850 C1845 1.350 . S
C1851 H1838 0.929 . S
C1851 C1843 1.433 . S
C1851 N1853 1.384 . S
N1852 C1848 1.427 . S
N1852 C1849 1.384 . S
N1853 C1845 1.427 . S
N1853 C1851 1.384 . S
H1854 C1860 0.930 . S
H1855 C1864 0.930 . S
H1856 C1869 0.929 . S
H1857 C1867 0.929 . S
H1858 C1862 0.929 . S
H1859 C1868 0.929 . S
C1860 H1854 0.930 . S
C1860 C1861 1.367 . S
C1860 C1868 1.378 . S
C1861 C1860 1.367 . S
C1861 C1869 1.433 . S
C1862 H1858 0.929 . S
C1862 C1864 1.378 . S
C1862 C1866 1.350 . S
C1863 C1866 1.463 . S
C1863 C1868 1.350 . S
C1863 N1871 1.427 . S
C1864 H1855 0.930 . S
C1864 C1862 1.378 . S
C1864 C1865 1.367 . S
C1865 C1864 1.367 . S
C1865 C1867 1.433 . S
C1866 C1862 1.350 . S
C1866 C1863 1.463 . S
C1866 N1870 1.427 . S
C1867 H1857 0.929 . S
C1867 C1865 1.433 . S
C1867 N1870 1.384 . S
C1868 H1859 0.929 . S
C1868 C1860 1.378 . S
C1868 C1863 1.350 . S
C1869 H1856 0.929 . S
C1869 C1861 1.433 . S
C1869 N1871 1.384 . S
N1870 C1866 1.427 . S
N1870 C1867 1.384 . S
N1871 C1863 1.427 . S
N1871 C1869 1.384 . S
H1872 C1878 0.930 . S
H1873 C1882 0.930 . S
H1874 C1887 0.929 . S
H1875 C1885 0.929 . S
H1876 C1880 0.929 . S
H1877 C1886 0.929 . S
C1878 H1872 0.930 . S
C1878 C1879 1.367 . S
C1878 C1886 1.378 . S
C1879 C1878 1.367 . S
C1879 C1887 1.433 . S
C1880 H1876 0.929 . S
C1880 C1882 1.378 . S
C1880 C1884 1.350 . S
C1881 C1884 1.463 . S
C1881 C1886 1.350 . S
C1881 N1889 1.427 . S
C1882 H1873 0.930 . S
C1882 C1880 1.378 . S
C1882 C1883 1.367 . S
C1883 C1882 1.367 . S
C1883 C1885 1.433 . S
C1884 C1880 1.350 . S
C1884 C1881 1.463 . S
C1884 N1888 1.427 . S
C1885 H1875 0.929 . S
C1885 C1883 1.433 . S
C1885 N1888 1.384 . S
C1886 H1877 0.929 . S
C1886 C1878 1.378 . S
C1886 C1881 1.350 . S
C1887 H1874 0.929 . S
C1887 C1879 1.433 . S
C1887 N1889 1.384 . S
N1888 C1884 1.427 . S
N1888 C1885 1.384 . S
N1889 C1881 1.427 . S
N1889 C1887 1.384 . S
H1890 C1896 0.930 . S
H1891 C1900 0.930 . S
H1892 C1905 0.929 . S
H1893 C1903 0.929 . S
H1894 C1898 0.929 . S
H1895 C1904 0.929 . S
C1896 H1890 0.930 . S
C1896 C1897 1.367 . S
C1896 C1904 1.378 . S
C1897 C1896 1.367 . S
C1897 C1905 1.433 . S
C1898 H1894 0.929 . S
C1898 C1900 1.378 . S
C1898 C1902 1.350 . S
C1899 C1902 1.463 . S
C1899 C1904 1.350 . S
C1899 N1907 1.427 . S
C1900 H1891 0.930 . S
C1900 C1898 1.378 . S
C1900 C1901 1.367 . S
C1901 C1900 1.367 . S
C1901 C1903 1.433 . S
C1902 C1898 1.350 . S
C1902 C1899 1.463 . S
C1902 N1906 1.427 . S
C1903 H1893 0.929 . S
C1903 C1901 1.433 . S
C1903 N1906 1.384 . S
C1904 H1895 0.929 . S
C1904 C1896 1.378 . S
C1904 C1899 1.350 . S
C1905 H1892 0.929 . S
C1905 C1897 1.433 . S
C1905 N1907 1.384 . S
N1906 C1902 1.427 . S
N1906 C1903 1.384 . S
N1907 C1899 1.427 . S
N1907 C1905 1.384 . S
H1908 C1914 0.930 . S
H1909 C1918 0.930 . S
H1910 C1923 0.929 . S
H1911 C1921 0.929 . S
H1912 C1916 0.929 . S
H1913 C1922 0.929 . S
C1914 H1908 0.930 . S
C1914 C1915 1.367 . S
C1914 C1922 1.378 . S
C1915 C1914 1.367 . S
C1915 C1923 1.433 . S
C1916 H1912 0.929 . S
C1916 C1918 1.378 . S
C1916 C1920 1.350 . S
C1917 C1920 1.463 . S
C1917 C1922 1.350 . S
C1917 N1925 1.427 . S
C1918 H1909 0.930 . S
C1918 C1916 1.378 . S
C1918 C1919 1.367 . S
C1919 C1918 1.367 . S
C1919 C1921 1.433 . S
C1920 C1916 1.350 . S
C1920 C1917 1.463 . S
C1920 N1924 1.427 . S
C1921 H1911 0.929 . S
C1921 C1919 1.433 . S
C1921 N1924 1.384 . S
C1922 H1913 0.929 . S
C1922 C1914 1.378 . S
C1922 C1917 1.350 . S
C1923 H1910 0.929 . S
C1923 C1915 1.433 . S
C1923 N1925 1.384 . S
N1924 C1920 1.427 . S
N1924 C1921 1.384 . S
N1925 C1917 1.427 . S
N1925 C1923 1.384 . S
H1926 C1932 0.930 . S
H1927 C1936 0.930 . S
H1928 C1941 0.929 . S
H1929 C1939 0.929 . S
H1930 C1934 0.929 . S
H1931 C1940 0.929 . S
C1932 H1926 0.930 . S
C1932 C1933 1.367 . S
C1932 C1940 1.378 . S
C1933 C1932 1.367 . S
C1933 C1941 1.433 . S
C1934 H1930 0.929 . S
C1934 C1936 1.378 . S
C1934 C1938 1.350 . S
C1935 C1938 1.463 . S
C1935 C1940 1.350 . S
C1935 N1943 1.427 . S
C1936 H1927 0.930 . S
C1936 C1934 1.378 . S
C1936 C1937 1.367 . S
C1937 C1936 1.367 . S
C1937 C1939 1.433 . S
C1938 C1934 1.350 . S
C1938 C1935 1.463 . S
C1938 N1942 1.427 . S
C1939 H1929 0.929 . S
C1939 C1937 1.433 . S
C1939 N1942 1.384 . S
C1940 H1931 0.929 . S
C1940 C1932 1.378 . S
C1940 C1935 1.350 . S
C1941 H1928 0.929 . S
C1941 C1933 1.433 . S
C1941 N1943 1.384 . S
N1942 C1938 1.427 . S
N1942 C1939 1.384 . S
N1943 C1935 1.427 . S
N1943 C1941 1.384 . S
H1944 C1950 0.930 . S
H1945 C1954 0.930 . S
H1946 C1959 0.929 . S
H1947 C1957 0.929 . S
H1948 C1952 0.929 . S
H1949 C1958 0.929 . S
C1950 H1944 0.930 . S
C1950 C1951 1.367 . S
C1950 C1958 1.378 . S
C1951 C1950 1.367 . S
C1951 C1959 1.433 . S
C1952 H1948 0.929 . S
C1952 C1954 1.378 . S
C1952 C1956 1.350 . S
C1953 C1956 1.463 . S
C1953 C1958 1.350 . S
C1953 N1961 1.427 . S
C1954 H1945 0.930 . S
C1954 C1952 1.378 . S
C1954 C1955 1.367 . S
C1955 C1954 1.367 . S
C1955 C1957 1.433 . S
C1956 C1952 1.350 . S
C1956 C1953 1.463 . S
C1956 N1960 1.427 . S
C1957 H1947 0.929 . S
C1957 C1955 1.433 . S
C1957 N1960 1.384 . S
C1958 H1949 0.929 . S
C1958 C1950 1.378 . S
C1958 C1953 1.350 . S
C1959 H1946 0.929 . S
C1959 C1951 1.433 . S
C1959 N1961 1.384 . S
N1960 C1956 1.427 . S
N1960 C1957 1.384 . S
N1961 C1953 1.427 . S
N1961 C1959 1.384 . S
H1962 C1968 0.930 . S
H1963 C1972 0.930 . S
H1964 C1977 0.929 . S
H1965 C1975 0.929 . S
H1966 C1970 0.929 . S
H1967 C1976 0.929 . S
C1968 H1962 0.930 . S
C1968 C1969 1.367 . S
C1968 C1976 1.378 . S
C1969 C1968 1.367 . S
C1969 C1977 1.433 . S
C1970 H1966 0.929 . S
C1970 C1972 1.378 . S
C1970 C1974 1.350 . S
C1971 C1974 1.463 . S
C1971 C1976 1.350 . S
C1971 N1979 1.427 . S
C1972 H1963 0.930 . S
C1972 C1970 1.378 . S
C1972 C1973 1.367 . S
C1973 C1972 1.367 . S
C1973 C1975 1.433 . S
C1974 C1970 1.350 . S
C1974 C1971 1.463 . S
C1974 N1978 1.427 . S
C1975 H1965 0.929 . S
C1975 C1973 1.433 . S
C1975 N1978 1.384 . S
C1976 H1967 0.929 . S
C1976 C1968 1.378 . S
C1976 C1971 1.350 . S
C1977 H1964 0.929 . S
C1977 C1969 1.433 . S
C1977 N1979 1.384 . S
N1978 C1974 1.427 . S
N1978 C1975 1.384 . S
N1979 C1971 1.427 . S
N1979 C1977 1.384 . S
H1980 C1986 0.930 . S
H1981 C1990 0.930 . S
H1982 C1995 0.929 . S
H1983 C1993 0.929 . S
H1984 C1988 0.929 . S
H1985 C1994 0.929 . S
C1986 H1980 0.930 . S
C1986 C1987 1.367 . S
C1986 C1994 1.378 . S
C1987 C1986 1.367 . S
C1987 C1995 1.433 . S
C1988 H1984 0.929 . S
C1988 C1990 1.378 . S
C1988 C1992 1.350 . S
C1989 C1992 1.463 . S
C1989 C1994 1.350 . S
C1989 N1997 1.427 . S
C1990 H1981 0.930 . S
C1990 C1988 1.378 . S
C1990 C1991 1.367 . S
C1991 C1990 1.367 . S
C1991 C1993 1.433 . S
C1992 C1988 1.350 . S
C1992 C1989 1.463 . S
C1992 N1996 1.427 . S
C1993 H1983 0.929 . S
C1993 C1991 1.433 . S
C1993 N1996 1.384 . S
C1994 H1985 0.929 . S
C1994 C1986 1.378 . S
C1994 C1989 1.350 . S
C1995 H1982 0.929 . S
C1995 C1987 1.433 . S
C1995 N1997 1.384 . S
N1996 C1992 1.427 . S
N1996 C1993 1.384 . S
N1997 C1989 1.427 . S
N1997 C1995 1.384 . S
H1998 C2004 0.930 . S
H1999 C2008 0.930 . S
H2000 C2013 0.929 . S
H2001 C2011 0.929 . S
H2002 C2006 0.929 . S
H2003 C2012 0.929 . S
C2004 H1998 0.930 . S
C2004 C2005 1.367 . S
C2004 C2012 1.378 . S
C2005 C2004 1.367 . S
C2005 C2013 1.433 . S
C2006 H2002 0.929 . S
C2006 C2008 1.378 . S
C2006 C2010 1.350 . S
C2007 C2010 1.463 . S
C2007 C2012 1.350 . S
C2007 N2015 1.427 . S
C2008 H1999 0.930 . S
C2008 C2006 1.378 . S
C2008 C2009 1.367 . S
C2009 C2008 1.367 . S
C2009 C2011 1.433 . S
C2010 C2006 1.350 . S
C2010 C2007 1.463 . S
C2010 N2014 1.427 . S
C2011 H2001 0.929 . S
C2011 C2009 1.433 . S
C2011 N2014 1.384 . S
C2012 H2003 0.929 . S
C2012 C2004 1.378 . S
C2012 C2007 1.350 . S
C2013 H2000 0.929 . S
C2013 C2005 1.433 . S
C2013 N2015 1.384 . S
N2014 C2010 1.427 . S
N2014 C2011 1.384 . S
N2015 C2007 1.427 . S
N2015 C2013 1.384 . S
H2016 C2022 0.930 . S
H2017 C2026 0.930 . S
H2018 C2031 0.929 . S
H2019 C2029 0.929 . S
H2020 C2024 0.929 . S
H2021 C2030 0.929 . S
C2022 H2016 0.930 . S
C2022 C2023 1.367 . S
C2022 C2030 1.378 . S
C2023 C2022 1.367 . S
C2023 C2031 1.433 . S
C2024 H2020 0.929 . S
C2024 C2026 1.378 . S
C2024 C2028 1.350 . S
C2025 C2028 1.463 1_655 S
C2025 C2030 1.350 . S
C2025 N2033 1.427 . S
C2026 H2017 0.930 . S
C2026 C2024 1.378 . S
C2026 C2027 1.367 . S
C2027 C2026 1.367 . S
C2027 C2029 1.433 . S
C2028 C2024 1.350 . S
C2028 C2025 1.463 1_455 S
C2028 N2032 1.427 . S
C2029 H2019 0.929 . S
C2029 C2027 1.433 . S
C2029 N2032 1.384 . S
C2030 H2021 0.929 . S
C2030 C2022 1.378 . S
C2030 C2025 1.350 . S
C2031 H2018 0.929 . S
C2031 C2023 1.433 . S
C2031 N2033 1.384 . S
N2032 C2028 1.427 . S
N2032 C2029 1.384 . S
N2033 C2025 1.427 . S
N2033 C2031 1.384 . S
H2034 C2040 0.930 . S
H2035 C2044 0.930 . S
H2036 C2049 0.929 . S
H2037 C2047 0.929 . S
H2038 C2042 0.929 . S
H2039 C2048 0.929 . S
C2040 H2034 0.930 . S
C2040 C2041 1.367 . S
C2040 C2048 1.378 . S
C2041 C2040 1.367 . S
C2041 C2049 1.433 . S
C2042 H2038 0.929 . S
C2042 C2044 1.378 . S
C2042 C2046 1.350 . S
C2043 C2046 1.463 1_545 S
C2043 C2048 1.350 . S
C2043 N2051 1.427 . S
C2044 H2035 0.930 . S
C2044 C2042 1.378 . S
C2044 C2045 1.367 . S
C2045 C2044 1.367 . S
C2045 C2047 1.433 . S
C2046 C2042 1.350 . S
C2046 C2043 1.463 1_565 S
C2046 N2050 1.427 . S
C2047 H2037 0.929 . S
C2047 C2045 1.433 . S
C2047 N2050 1.384 . S
C2048 H2039 0.929 . S
C2048 C2040 1.378 . S
C2048 C2043 1.350 . S
C2049 H2036 0.929 . S
C2049 C2041 1.433 . S
C2049 N2051 1.384 . S
N2050 C2046 1.427 . S
N2050 C2047 1.384 . S
N2051 C2043 1.427 . S
N2051 C2049 1.384 . S
H2052 C2058 0.930 . S
H2053 C2062 0.930 . S
H2054 C2067 0.929 . S
H2055 C2065 0.929 . S
H2056 C2060 0.929 1_655 S
H2057 C2066 0.929 1_455 S
C2058 H2052 0.930 . S
C2058 C2059 1.367 . S
C2058 C2066 1.378 . S
C2059 C2058 1.367 . S
C2059 C2067 1.433 . S
C2060 H2056 0.929 1_455 S
C2060 C2062 1.378 . S
C2060 C2064 1.350 . S
C2061 C2064 1.463 1_655 S
C2061 C2066 1.350 . S
C2061 N2069 1.427 . S
C2062 H2053 0.930 . S
C2062 C2060 1.378 . S
C2062 C2063 1.367 . S
C2063 C2062 1.367 . S
C2063 C2065 1.433 . S
C2064 C2060 1.350 . S
C2064 C2061 1.463 1_455 S
C2064 N2068 1.427 . S
C2065 H2055 0.929 . S
C2065 C2063 1.433 . S
C2065 N2068 1.384 . S
C2066 H2057 0.929 1_655 S
C2066 C2058 1.378 . S
C2066 C2061 1.350 . S
C2067 H2054 0.929 . S
C2067 C2059 1.433 . S
C2067 N2069 1.384 . S
N2068 C2064 1.427 . S
N2068 C2065 1.384 . S
N2069 C2061 1.427 . S
N2069 C2067 1.384 . S
H2070 C2076 0.930 . S
H2071 C2080 0.930 . S
H2072 C2085 0.929 . S
H2073 C2083 0.929 . S
H2074 C2078 0.929 . S
H2075 C2084 0.929 . S
C2076 H2070 0.930 . S
C2076 C2077 1.367 . S
C2076 C2084 1.378 . S
C2077 C2076 1.367 . S
C2077 C2085 1.433 . S
C2078 H2074 0.929 . S
C2078 C2080 1.378 . S
C2078 C2082 1.350 . S
C2079 C2082 1.463 1_565 S
C2079 C2084 1.350 . S
C2079 N2087 1.427 . S
C2080 H2071 0.930 . S
C2080 C2078 1.378 . S
C2080 C2081 1.367 . S
C2081 C2080 1.367 . S
C2081 C2083 1.433 . S
C2082 C2078 1.350 . S
C2082 C2079 1.463 1_545 S
C2082 N2086 1.427 . S
C2083 H2073 0.929 . S
C2083 C2081 1.433 . S
C2083 N2086 1.384 . S
C2084 H2075 0.929 . S
C2084 C2076 1.378 . S
C2084 C2079 1.350 . S
C2085 H2072 0.929 . S
C2085 C2077 1.433 . S
C2085 N2087 1.384 . S
N2086 C2082 1.427 . S
N2086 C2083 1.384 . S
N2087 C2079 1.427 . S
N2087 C2085 1.384 . S
H2088 C2094 0.930 . S
H2089 C2098 0.930 . S
H2090 C2103 0.929 . S
H2091 C2101 0.929 . S
H2092 C2096 0.929 1_545 S
H2093 C2102 0.929 1_565 S
C2094 H2088 0.930 . S
C2094 C2095 1.367 . S
C2094 C2102 1.378 . S
C2095 C2094 1.367 . S
C2095 C2103 1.433 . S
C2096 H2092 0.929 1_565 S
C2096 C2098 1.378 . S
C2096 C2100 1.350 . S
C2097 C2100 1.463 1_545 S
C2097 C2102 1.350 . S
C2097 N2105 1.427 . S
C2098 H2089 0.930 . S
C2098 C2096 1.378 . S
C2098 C2099 1.367 . S
C2099 C2098 1.367 . S
C2099 C2101 1.433 . S
C2100 C2096 1.350 . S
C2100 C2097 1.463 1_565 S
C2100 N2104 1.427 . S
C2101 H2091 0.929 . S
C2101 C2099 1.433 . S
C2101 N2104 1.384 . S
C2102 H2093 0.929 1_545 S
C2102 C2094 1.378 . S
C2102 C2097 1.350 . S
C2103 H2090 0.929 . S
C2103 C2095 1.433 . S
C2103 N2105 1.384 . S
N2104 C2100 1.427 . S
N2104 C2101 1.384 . S
N2105 C2097 1.427 . S
N2105 C2103 1.384 . S
H2106 C2112 0.930 . S
H2107 C2116 0.930 . S
H2108 C2121 0.929 . S
H2109 C2119 0.929 . S
H2110 C2114 0.898 1_455 S
H2111 C2120 0.898 1_655 S
C2112 H2106 0.930 . S
C2112 C2113 1.367 . S
C2112 C2120 1.400 . S
C2113 C2112 1.367 . S
C2113 C2121 1.433 . S
C2114 H2110 0.898 1_655 S
C2114 C2116 1.400 . S
C2114 C2118 1.360 . S
C2115 C2118 1.463 1_455 S
C2115 C2120 1.360 . S
C2115 N2123 1.427 . S
C2116 H2107 0.930 . S
C2116 C2114 1.400 . S
C2116 C2117 1.367 . S
C2117 C2116 1.367 . S
C2117 C2119 1.433 . S
C2118 C2114 1.360 . S
C2118 C2115 1.463 1_655 S
C2118 N2122 1.427 . S
C2119 H2109 0.929 . S
C2119 C2117 1.433 . S
C2119 N2122 1.384 . S
C2120 H2111 0.898 1_455 S
C2120 C2112 1.400 . S
C2120 C2115 1.360 . S
C2121 H2108 0.929 . S
C2121 C2113 1.433 . S
C2121 N2123 1.384 . S
N2122 C2118 1.427 . S
N2122 C2119 1.384 . S
N2123 C2115 1.427 . S
N2123 C2121 1.384 . S
H2124 C2130 0.930 . S
H2125 C2134 0.930 . S
H2126 C2139 0.929 . S
H2127 C2137 0.929 . S
H2128 C2132 0.929 . S
H2129 C2138 0.929 . S
C2130 H2124 0.930 . S
C2130 C2131 1.367 . S
C2130 C2138 1.378 . S
C2131 C2130 1.367 . S
C2131 C2139 1.433 . S
C2132 H2128 0.929 . S
C2132 C2134 1.378 . S
C2132 C2136 1.350 . S
C2133 C2136 1.463 1_545 S
C2133 C2138 1.350 . S
C2133 N2141 1.427 . S
C2134 H2125 0.930 . S
C2134 C2132 1.378 . S
C2134 C2135 1.367 . S
C2135 C2134 1.367 . S
C2135 C2137 1.433 . S
C2136 C2132 1.350 . S
C2136 C2133 1.463 1_565 S
C2136 N2140 1.427 . S
C2137 H2127 0.929 . S
C2137 C2135 1.433 . S
C2137 N2140 1.384 . S
C2138 H2129 0.929 . S
C2138 C2130 1.378 . S
C2138 C2133 1.350 . S
C2139 H2126 0.929 . S
C2139 C2131 1.433 . S
C2139 N2141 1.384 . S
N2140 C2136 1.427 . S
N2140 C2137 1.384 . S
N2141 C2133 1.427 . S
N2141 C2139 1.384 . S
H2142 C2148 0.930 . S
H2143 C2152 0.930 . S
H2144 C2157 0.929 . S
H2145 C2155 0.929 . S
H2146 C2150 0.929 . S
H2147 C2156 0.929 . S
C2148 H2142 0.930 . S
C2148 C2149 1.367 . S
C2148 C2156 1.378 . S
C2149 C2148 1.367 . S
C2149 C2157 1.433 . S
C2150 H2146 0.929 . S
C2150 C2152 1.378 . S
C2150 C2154 1.350 . S
C2151 C2154 1.463 1_655 S
C2151 C2156 1.350 . S
C2151 N2159 1.427 . S
C2152 H2143 0.930 . S
C2152 C2150 1.378 . S
C2152 C2153 1.367 . S
C2153 C2152 1.367 . S
C2153 C2155 1.433 . S
C2154 C2150 1.350 . S
C2154 C2151 1.463 1_455 S
C2154 N2158 1.427 . S
C2155 H2145 0.929 . S
C2155 C2153 1.433 . S
C2155 N2158 1.384 . S
C2156 H2147 0.929 . S
C2156 C2148 1.378 . S
C2156 C2151 1.350 . S
C2157 H2144 0.929 . S
C2157 C2149 1.433 . S
C2157 N2159 1.384 . S
N2158 C2154 1.427 . S
N2158 C2155 1.384 . S
N2159 C2151 1.427 . S
N2159 C2157 1.384 . S
H2160 C2166 0.930 . S
H2161 C2170 0.930 . S
H2162 C2175 0.929 . S
H2163 C2173 0.929 . S
H2164 C2168 0.929 . S
H2165 C2174 0.929 . S
C2166 H2160 0.930 . S
C2166 C2167 1.367 . S
C2166 C2174 1.378 . S
C2167 C2166 1.367 . S
C2167 C2175 1.433 . S
C2168 H2164 0.929 . S
C2168 C2170 1.378 . S
C2168 C2172 1.350 . S
C2169 C2172 1.463 1_556 S
C2169 C2174 1.350 . S
C2169 N2177 1.429 . S
C2170 H2161 0.930 . S
C2170 C2168 1.378 . S
C2170 C2171 1.367 . S
C2171 C2170 1.367 . S
C2171 C2173 1.433 . S
C2172 C2168 1.350 . S
C2172 C2169 1.463 1_554 S
C2172 N2176 1.429 . S
C2173 H2163 0.929 . S
C2173 C2171 1.433 . S
C2173 N2176 1.386 . S
C2174 H2165 0.929 . S
C2174 C2166 1.378 . S
C2174 C2169 1.350 . S
C2175 H2162 0.929 . S
C2175 C2167 1.433 . S
C2175 N2177 1.386 . S
N2176 C2172 1.429 . S
N2176 C2173 1.386 . S
N2177 C2169 1.429 . S
N2177 C2175 1.386 . S
H2178 C2184 0.930 . S
H2179 C2188 0.930 . S
H2180 C2193 0.929 . S
H2181 C2191 0.929 . S
H2182 C2186 0.929 . S
H2183 C2192 0.929 . S
C2184 H2178 0.930 . S
C2184 C2185 1.367 . S
C2184 C2192 1.378 . S
C2185 C2184 1.367 . S
C2185 C2193 1.433 . S
C2186 H2182 0.929 . S
C2186 C2188 1.378 . S
C2186 C2190 1.350 . S
C2187 C2190 1.463 1_556 S
C2187 C2192 1.350 . S
C2187 N2195 1.427 . S
C2188 H2179 0.930 . S
C2188 C2186 1.378 . S
C2188 C2189 1.367 . S
C2189 C2188 1.367 . S
C2189 C2191 1.433 . S
C2190 C2186 1.350 . S
C2190 C2187 1.463 1_554 S
C2190 N2194 1.427 . S
C2191 H2181 0.929 . S
C2191 C2189 1.433 . S
C2191 N2194 1.384 . S
C2192 H2183 0.929 . S
C2192 C2184 1.378 . S
C2192 C2187 1.350 . S
C2193 H2180 0.929 . S
C2193 C2185 1.433 . S
C2193 N2195 1.384 . S
N2194 C2190 1.427 . S
N2194 C2191 1.384 . S
N2195 C2187 1.427 . S
N2195 C2193 1.384 . S
H2196 C2202 0.930 . S
H2197 C2206 0.930 . S
H2198 C2211 0.929 . S
H2199 C2209 0.929 . S
H2200 C2204 0.929 . S
H2201 C2210 0.929 . S
C2202 H2196 0.930 . S
C2202 C2203 1.367 . S
C2202 C2210 1.378 . S
C2203 C2202 1.367 . S
C2203 C2211 1.433 . S
C2204 H2200 0.929 . S
C2204 C2206 1.378 . S
C2204 C2208 1.350 . S
C2205 C2208 1.463 1_556 S
C2205 C2210 1.350 . S
C2205 N2213 1.427 . S
C2206 H2197 0.930 . S
C2206 C2204 1.378 . S
C2206 C2207 1.367 . S
C2207 C2206 1.367 . S
C2207 C2209 1.433 . S
C2208 C2204 1.350 . S
C2208 C2205 1.463 1_554 S
C2208 N2212 1.427 . S
C2209 H2199 0.929 . S
C2209 C2207 1.433 . S
C2209 N2212 1.384 . S
C2210 H2201 0.929 . S
C2210 C2202 1.378 . S
C2210 C2205 1.350 . S
C2211 H2198 0.929 . S
C2211 C2203 1.433 . S
C2211 N2213 1.384 . S
N2212 C2208 1.427 . S
N2212 C2209 1.384 . S
N2213 C2205 1.427 . S
N2213 C2211 1.384 . S
H2214 C2220 0.930 . S
H2215 C2224 0.930 . S
H2216 C2229 0.929 . S
H2217 C2227 0.929 . S
H2218 C2222 0.929 1_556 S
H2219 C2228 0.929 1_554 S
C2220 H2214 0.930 . S
C2220 C2221 1.367 . S
C2220 C2228 1.378 . S
C2221 C2220 1.367 . S
C2221 C2229 1.433 . S
C2222 H2218 0.929 1_554 S
C2222 C2224 1.378 . S
C2222 C2226 1.350 . S
C2223 C2226 1.463 1_556 S
C2223 C2228 1.350 . S
C2223 N2231 1.427 . S
C2224 H2215 0.930 . S
C2224 C2222 1.378 . S
C2224 C2225 1.367 . S
C2225 C2224 1.367 . S
C2225 C2227 1.433 . S
C2226 C2222 1.350 . S
C2226 C2223 1.463 1_554 S
C2226 N2230 1.427 . S
C2227 H2217 0.929 . S
C2227 C2225 1.433 . S
C2227 N2230 1.384 . S
C2228 H2219 0.929 1_556 S
C2228 C2220 1.378 . S
C2228 C2223 1.350 . S
C2229 H2216 0.929 . S
C2229 C2221 1.433 . S
C2229 N2231 1.384 . S
N2230 C2226 1.427 . S
N2230 C2227 1.384 . S
N2231 C2223 1.427 . S
N2231 C2229 1.384 . S
H2232 C2238 0.930 . S
H2233 C2242 0.930 . S
H2234 C2247 0.929 . S
H2235 C2245 0.929 . S
H2236 C2240 0.929 . S
H2237 C2246 0.929 . S
C2238 H2232 0.930 . S
C2238 C2239 1.367 . S
C2238 C2246 1.378 . S
C2239 C2238 1.367 . S
C2239 C2247 1.433 . S
C2240 H2236 0.929 . S
C2240 C2242 1.378 . S
C2240 C2244 1.350 . S
C2241 C2244 1.463 1_545 S
C2241 C2246 1.350 . S
C2241 N2249 1.427 . S
C2242 H2233 0.930 . S
C2242 C2240 1.378 . S
C2242 C2243 1.367 . S
C2243 C2242 1.367 . S
C2243 C2245 1.433 . S
C2244 C2240 1.350 . S
C2244 C2241 1.463 1_565 S
C2244 N2248 1.427 . S
C2245 H2235 0.929 . S
C2245 C2243 1.433 . S
C2245 N2248 1.384 . S
C2246 H2237 0.929 . S
C2246 C2238 1.378 . S
C2246 C2241 1.350 . S
C2247 H2234 0.929 . S
C2247 C2239 1.433 . S
C2247 N2249 1.384 . S
N2248 C2244 1.427 . S
N2248 C2245 1.384 . S
N2249 C2241 1.427 . S
N2249 C2247 1.384 . S
H2250 C2256 0.930 . S
H2251 C2260 0.930 . S
H2252 C2265 0.929 . S
H2253 C2263 0.929 . S
H2254 C2258 0.929 . S
H2255 C2264 0.929 . S
C2256 H2250 0.930 . S
C2256 C2257 1.367 . S
C2256 C2264 1.378 . S
C2257 C2256 1.367 . S
C2257 C2265 1.433 . S
C2258 H2254 0.929 . S
C2258 C2260 1.378 . S
C2258 C2262 1.350 . S
C2259 C2262 1.463 1_655 S
C2259 C2264 1.350 . S
C2259 N2267 1.427 . S
C2260 H2251 0.930 . S
C2260 C2258 1.378 . S
C2260 C2261 1.367 . S
C2261 C2260 1.367 . S
C2261 C2263 1.433 . S
C2262 C2258 1.350 . S
C2262 C2259 1.463 1_455 S
C2262 N2266 1.427 . S
C2263 H2253 0.929 . S
C2263 C2261 1.433 . S
C2263 N2266 1.384 . S
C2264 H2255 0.929 . S
C2264 C2256 1.378 . S
C2264 C2259 1.350 . S
C2265 H2252 0.929 . S
C2265 C2257 1.433 . S
C2265 N2267 1.384 . S
N2266 C2262 1.427 . S
N2266 C2263 1.384 . S
N2267 C2259 1.427 . S
N2267 C2265 1.384 . S
H2268 C2274 0.930 . S
H2269 C2278 0.930 . S
H2270 C2283 0.929 . S
H2271 C2281 0.929 . S
H2272 C2276 0.929 . S
H2273 C2282 0.929 . S
C2274 H2268 0.930 . S
C2274 C2275 1.367 . S
C2274 C2282 1.378 . S
C2275 C2274 1.367 . S
C2275 C2283 1.433 . S
C2276 H2272 0.929 . S
C2276 C2278 1.378 . S
C2276 C2280 1.350 . S
C2277 C2280 1.463 1_565 S
C2277 C2282 1.350 . S
C2277 N2285 1.427 . S
C2278 H2269 0.930 . S
C2278 C2276 1.378 . S
C2278 C2279 1.367 . S
C2279 C2278 1.367 . S
C2279 C2281 1.433 . S
C2280 C2276 1.350 . S
C2280 C2277 1.463 1_545 S
C2280 N2284 1.427 . S
C2281 H2271 0.929 . S
C2281 C2279 1.433 . S
C2281 N2284 1.384 . S
C2282 H2273 0.929 . S
C2282 C2274 1.378 . S
C2282 C2277 1.350 . S
C2283 H2270 0.929 . S
C2283 C2275 1.433 . S
C2283 N2285 1.384 . S
N2284 C2280 1.427 . S
N2284 C2281 1.384 . S
N2285 C2277 1.427 . S
N2285 C2283 1.384 . S
H2286 C2292 0.930 . S
H2287 C2296 0.930 . S
H2288 C2301 0.929 . S
H2289 C2299 0.929 . S
H2290 C2294 0.929 . S
H2291 C2300 0.929 . S
C2292 H2286 0.930 . S
C2292 C2293 1.367 . S
C2292 C2300 1.378 . S
C2293 C2292 1.367 . S
C2293 C2301 1.433 . S
C2294 H2290 0.929 . S
C2294 C2296 1.378 . S
C2294 C2298 1.350 . S
C2295 C2298 1.463 1_455 S
C2295 C2300 1.350 . S
C2295 N2303 1.427 . S
C2296 H2287 0.930 . S
C2296 C2294 1.378 . S
C2296 C2297 1.367 . S
C2297 C2296 1.367 . S
C2297 C2299 1.433 . S
C2298 C2294 1.350 . S
C2298 C2295 1.463 1_655 S
C2298 N2302 1.427 . S
C2299 H2289 0.929 . S
C2299 C2297 1.433 . S
C2299 N2302 1.384 . S
C2300 H2291 0.929 . S
C2300 C2292 1.378 . S
C2300 C2295 1.350 . S
C2301 H2288 0.929 . S
C2301 C2293 1.433 . S
C2301 N2303 1.384 . S
N2302 C2298 1.427 . S
N2302 C2299 1.384 . S
N2303 C2295 1.427 . S
N2303 C2301 1.384 . S
H2304 C2310 0.930 . S
H2305 C2314 0.930 . S
H2306 C2319 0.929 . S
H2307 C2317 0.929 . S
H2308 C2312 0.929 . S
H2309 C2318 0.929 . S
C2310 H2304 0.930 . S
C2310 C2311 1.367 . S
C2310 C2318 1.378 . S
C2311 C2310 1.367 . S
C2311 C2319 1.433 . S
C2312 H2308 0.929 . S
C2312 C2314 1.378 . S
C2312 C2316 1.350 . S
C2313 C2316 1.463 1_556 S
C2313 C2318 1.350 . S
C2313 N2321 1.427 . S
C2314 H2305 0.930 . S
C2314 C2312 1.378 . S
C2314 C2315 1.367 . S
C2315 C2314 1.367 . S
C2315 C2317 1.433 . S
C2316 C2312 1.350 . S
C2316 C2313 1.463 1_554 S
C2316 N2320 1.427 . S
C2317 H2307 0.929 . S
C2317 C2315 1.433 . S
C2317 N2320 1.384 . S
C2318 H2309 0.929 . S
C2318 C2310 1.378 . S
C2318 C2313 1.350 . S
C2319 H2306 0.929 . S
C2319 C2311 1.433 . S
C2319 N2321 1.384 . S
N2320 C2316 1.427 . S
N2320 C2317 1.384 . S
N2321 C2313 1.427 . S
N2321 C2319 1.384 . S
H2322 C2328 0.930 . S
H2323 C2332 0.930 . S
H2324 C2337 0.929 . S
H2325 C2335 0.929 . S
H2326 C2330 0.929 . S
H2327 C2336 0.929 . S
C2328 H2322 0.930 . S
C2328 C2329 1.367 . S
C2328 C2336 1.378 . S
C2329 C2328 1.367 . S
C2329 C2337 1.433 . S
C2330 H2326 0.929 . S
C2330 C2332 1.378 . S
C2330 C2334 1.350 . S
C2331 C2334 1.463 1_556 S
C2331 C2336 1.350 . S
C2331 N2339 1.427 . S
C2332 H2323 0.930 . S
C2332 C2330 1.378 . S
C2332 C2333 1.367 . S
C2333 C2332 1.367 . S
C2333 C2335 1.433 . S
C2334 C2330 1.350 . S
C2334 C2331 1.463 1_554 S
C2334 N2338 1.427 . S
C2335 H2325 0.929 . S
C2335 C2333 1.433 . S
C2335 N2338 1.384 . S
C2336 H2327 0.929 . S
C2336 C2328 1.378 . S
C2336 C2331 1.350 . S
C2337 H2324 0.929 . S
C2337 C2329 1.433 . S
C2337 N2339 1.384 . S
N2338 C2334 1.427 . S
N2338 C2335 1.384 . S
N2339 C2331 1.427 . S
N2339 C2337 1.384 . S
H2340 C2346 0.930 . S
H2341 C2350 0.930 . S
H2342 C2355 0.929 . S
H2343 C2353 0.929 . S
H2344 C2348 0.929 . S
H2345 C2354 0.929 . S
C2346 H2340 0.930 . S
C2346 C2347 1.367 . S
C2346 C2354 1.378 . S
C2347 C2346 1.367 . S
C2347 C2355 1.433 . S
C2348 H2344 0.929 . S
C2348 C2350 1.378 . S
C2348 C2352 1.350 . S
C2349 C2352 1.463 1_554 S
C2349 C2354 1.350 . S
C2349 N2357 1.427 . S
C2350 H2341 0.930 . S
C2350 C2348 1.378 . S
C2350 C2351 1.367 . S
C2351 C2350 1.367 . S
C2351 C2353 1.433 . S
C2352 C2348 1.350 . S
C2352 C2349 1.463 1_556 S
C2352 N2356 1.427 . S
C2353 H2343 0.929 . S
C2353 C2351 1.433 . S
C2353 N2356 1.384 . S
C2354 H2345 0.929 . S
C2354 C2346 1.378 . S
C2354 C2349 1.350 . S
C2355 H2342 0.929 . S
C2355 C2347 1.433 . S
C2355 N2357 1.384 . S
N2356 C2352 1.427 . S
N2356 C2353 1.384 . S
N2357 C2349 1.427 . S
N2357 C2355 1.384 . S
H2358 C2364 0.930 . S
H2359 C2368 0.930 . S
H2360 C2373 0.929 . S
H2361 C2371 0.929 . S
H2362 C2366 0.970 . S
H2363 C2372 0.970 . S
C2364 H2358 0.930 . S
C2364 C2365 1.367 . S
C2364 C2372 1.378 . S
C2365 C2364 1.367 . S
C2365 C2373 1.433 . S
C2366 H2362 0.970 . S
C2366 C2368 1.378 . S
C2366 C2370 1.350 . S
C2367 C2370 1.463 1_554 S
C2367 C2372 1.350 . S
C2367 N2375 1.427 . S
C2368 H2359 0.930 . S
C2368 C2366 1.378 . S
C2368 C2369 1.367 . S
C2369 C2368 1.367 . S
C2369 C2371 1.433 . S
C2370 C2366 1.350 . S
C2370 C2367 1.463 1_556 S
C2370 N2374 1.427 . S
C2371 H2361 0.929 . S
C2371 C2369 1.433 . S
C2371 N2374 1.384 . S
C2372 H2363 0.970 . S
C2372 C2364 1.378 . S
C2372 C2367 1.350 . S
C2373 H2360 0.929 . S
C2373 C2365 1.433 . S
C2373 N2375 1.384 . S
N2374 C2370 1.427 . S
N2374 C2371 1.384 . S
N2375 C2367 1.427 . S
N2375 C2373 1.384 . S
H2376 C2382 0.930 . S
H2377 C2386 0.930 . S
H2378 C2391 0.929 . S
H2379 C2389 0.929 . S
H2380 C2384 0.929 . S
H2381 C2390 0.929 . S
C2382 H2376 0.930 . S
C2382 C2383 1.367 . S
C2382 C2390 1.378 . S
C2383 C2382 1.367 . S
C2383 C2391 1.433 . S
C2384 H2380 0.929 . S
C2384 C2386 1.378 . S
C2384 C2388 1.350 . S
C2385 C2388 1.463 1_655 S
C2385 C2390 1.350 . S
C2385 N2393 1.427 . S
C2386 H2377 0.930 . S
C2386 C2384 1.378 . S
C2386 C2387 1.367 . S
C2387 C2386 1.367 . S
C2387 C2389 1.433 . S
C2388 C2384 1.350 . S
C2388 C2385 1.463 1_455 S
C2388 N2392 1.427 . S
C2389 H2379 0.929 . S
C2389 C2387 1.433 . S
C2389 N2392 1.384 . S
C2390 H2381 0.929 . S
C2390 C2382 1.378 . S
C2390 C2385 1.350 . S
C2391 H2378 0.929 . S
C2391 C2383 1.433 . S
C2391 N2393 1.384 . S
N2392 C2388 1.427 . S
N2392 C2389 1.384 . S
N2393 C2385 1.427 . S
N2393 C2391 1.384 . S
H2394 C2400 0.930 . S
H2395 C2404 0.930 . S
H2396 C2409 0.929 . S
H2397 C2407 0.929 . S
H2398 C2402 0.929 . S
H2399 C2408 0.929 . S
C2400 H2394 0.930 . S
C2400 C2401 1.367 . S
C2400 C2408 1.378 . S
C2401 C2400 1.367 . S
C2401 C2409 1.433 . S
C2402 H2398 0.929 . S
C2402 C2404 1.378 . S
C2402 C2406 1.350 . S
C2403 C2406 1.463 1_455 S
C2403 C2408 1.350 . S
C2403 N2411 1.427 . S
C2404 H2395 0.930 . S
C2404 C2402 1.378 . S
C2404 C2405 1.367 . S
C2405 C2404 1.367 . S
C2405 C2407 1.433 . S
C2406 C2402 1.350 . S
C2406 C2403 1.463 1_655 S
C2406 N2410 1.427 . S
C2407 H2397 0.929 . S
C2407 C2405 1.433 . S
C2407 N2410 1.384 . S
C2408 H2399 0.929 . S
C2408 C2400 1.378 . S
C2408 C2403 1.350 . S
C2409 H2396 0.929 . S
C2409 C2401 1.433 . S
C2409 N2411 1.384 . S
N2410 C2406 1.427 . S
N2410 C2407 1.384 . S
N2411 C2403 1.427 . S
N2411 C2409 1.384 . S
H2412 C2418 0.930 . S
H2413 C2422 0.930 . S
H2414 C2427 0.929 . S
H2415 C2425 0.929 . S
H2416 C2420 0.977 . S
H2417 C2426 0.977 . S
C2418 H2412 0.930 . S
C2418 C2419 1.367 . S
C2418 C2426 1.378 . S
C2419 C2418 1.367 . S
C2419 C2427 1.433 . S
C2420 H2416 0.977 . S
C2420 C2422 1.378 . S
C2420 C2424 1.350 . S
C2421 C2424 1.463 1_545 S
C2421 C2426 1.350 . S
C2421 N2429 1.427 . S
C2422 H2413 0.930 . S
C2422 C2420 1.378 . S
C2422 C2423 1.367 . S
C2423 C2422 1.367 . S
C2423 C2425 1.433 . S
C2424 C2420 1.350 . S
C2424 C2421 1.463 1_565 S
C2424 N2428 1.427 . S
C2425 H2415 0.929 . S
C2425 C2423 1.433 . S
C2425 N2428 1.384 . S
C2426 H2417 0.977 . S
C2426 C2418 1.378 . S
C2426 C2421 1.350 . S
C2427 H2414 0.929 . S
C2427 C2419 1.433 . S
C2427 N2429 1.384 . S
N2428 C2424 1.427 . S
N2428 C2425 1.384 . S
N2429 C2421 1.427 . S
N2429 C2427 1.384 . S
H2430 C2436 0.930 . S
H2431 C2440 0.930 . S
H2432 C2445 0.929 . S
H2433 C2443 0.929 . S
H2434 C2438 0.929 . S
H2435 C2444 0.929 . S
C2436 H2430 0.930 . S
C2436 C2437 1.367 . S
C2436 C2444 1.378 . S
C2437 C2436 1.367 . S
C2437 C2445 1.433 . S
C2438 H2434 0.929 . S
C2438 C2440 1.378 . S
C2438 C2442 1.350 . S
C2439 C2442 1.463 1_565 S
C2439 C2444 1.350 . S
C2439 N2447 1.427 . S
C2440 H2431 0.930 . S
C2440 C2438 1.378 . S
C2440 C2441 1.367 . S
C2441 C2440 1.367 . S
C2441 C2443 1.433 . S
C2442 C2438 1.350 . S
C2442 C2439 1.463 1_545 S
C2442 N2446 1.427 . S
C2443 H2433 0.929 . S
C2443 C2441 1.433 . S
C2443 N2446 1.384 . S
C2444 H2435 0.929 . S
C2444 C2436 1.378 . S
C2444 C2439 1.350 . S
C2445 H2432 0.929 . S
C2445 C2437 1.433 . S
C2445 N2447 1.384 . S
N2446 C2442 1.427 . S
N2446 C2443 1.384 . S
N2447 C2439 1.427 . S
N2447 C2445 1.384 . S
H2448 C2454 0.930 . S
H2449 C2458 0.930 . S
H2450 C2463 0.929 . S
H2451 C2461 0.929 . S
H2452 C2456 0.929 . S
H2453 C2462 0.929 . S
C2454 H2448 0.930 . S
C2454 C2455 1.367 . S
C2454 C2462 1.378 . S
C2455 C2454 1.367 . S
C2455 C2463 1.433 . S
C2456 H2452 0.929 . S
C2456 C2458 1.378 . S
C2456 C2460 1.350 . S
C2457 C2460 1.463 . S
C2457 C2462 1.350 . S
C2457 N2465 1.427 . S
C2458 H2449 0.930 . S
C2458 C2456 1.378 . S
C2458 C2459 1.367 . S
C2459 C2458 1.367 . S
C2459 C2461 1.433 . S
C2460 C2456 1.350 . S
C2460 C2457 1.463 . S
C2460 N2464 1.427 . S
C2461 H2451 0.929 . S
C2461 C2459 1.433 . S
C2461 N2464 1.384 . S
C2462 H2453 0.929 . S
C2462 C2454 1.378 . S
C2462 C2457 1.350 . S
C2463 H2450 0.929 . S
C2463 C2455 1.433 . S
C2463 N2465 1.384 . S
N2464 C2460 1.427 . S
N2464 C2461 1.384 . S
N2465 C2457 1.427 . S
N2465 C2463 1.384 . S
H2466 C2472 0.930 . S
H2467 C2476 0.930 . S
H2468 C2481 0.929 . S
H2469 C2479 0.929 . S
H2470 C2474 0.929 . S
H2471 C2480 0.929 . S
C2472 H2466 0.930 . S
C2472 C2473 1.367 . S
C2472 C2480 1.378 . S
C2473 C2472 1.367 . S
C2473 C2481 1.433 . S
C2474 H2470 0.929 . S
C2474 C2476 1.378 . S
C2474 C2478 1.350 . S
C2475 C2478 1.463 . S
C2475 C2480 1.350 . S
C2475 N2483 1.427 . S
C2476 H2467 0.930 . S
C2476 C2474 1.378 . S
C2476 C2477 1.367 . S
C2477 C2476 1.367 . S
C2477 C2479 1.433 . S
C2478 C2474 1.350 . S
C2478 C2475 1.463 . S
C2478 N2482 1.427 . S
C2479 H2469 0.929 . S
C2479 C2477 1.433 . S
C2479 N2482 1.384 . S
C2480 H2471 0.929 . S
C2480 C2472 1.378 . S
C2480 C2475 1.350 . S
C2481 H2468 0.929 . S
C2481 C2473 1.433 . S
C2481 N2483 1.384 . S
N2482 C2478 1.427 . S
N2482 C2479 1.384 . S
N2483 C2475 1.427 . S
N2483 C2481 1.384 . S
H2484 C2490 0.930 . S
H2485 C2494 0.930 . S
H2486 C2499 0.929 . S
H2487 C2497 0.929 . S
H2488 C2492 0.929 . S
H2489 C2498 0.929 . S
C2490 H2484 0.930 . S
C2490 C2491 1.367 . S
C2490 C2498 1.378 . S
C2491 C2490 1.367 . S
C2491 C2499 1.433 . S
C2492 H2488 0.929 . S
C2492 C2494 1.378 . S
C2492 C2496 1.350 . S
C2493 C2496 1.463 . S
C2493 C2498 1.350 . S
C2493 N2501 1.427 . S
C2494 H2485 0.930 . S
C2494 C2492 1.378 . S
C2494 C2495 1.367 . S
C2495 C2494 1.367 . S
C2495 C2497 1.433 . S
C2496 C2492 1.350 . S
C2496 C2493 1.463 . S
C2496 N2500 1.427 . S
C2497 H2487 0.929 . S
C2497 C2495 1.433 . S
C2497 N2500 1.384 . S
C2498 H2489 0.929 . S
C2498 C2490 1.378 . S
C2498 C2493 1.350 . S
C2499 H2486 0.929 . S
C2499 C2491 1.433 . S
C2499 N2501 1.384 . S
N2500 C2496 1.427 . S
N2500 C2497 1.384 . S
N2501 C2493 1.427 . S
N2501 C2499 1.384 . S
H2502 C2508 0.930 . S
H2503 C2512 0.930 . S
H2504 C2517 0.929 . S
H2505 C2515 0.929 . S
H2506 C2510 0.929 . S
H2507 C2516 0.929 . S
C2508 H2502 0.930 . S
C2508 C2509 1.367 . S
C2508 C2516 1.378 . S
C2509 C2508 1.367 . S
C2509 C2517 1.433 . S
C2510 H2506 0.929 . S
C2510 C2512 1.378 . S
C2510 C2514 1.350 . S
C2511 C2514 1.463 . S
C2511 C2516 1.350 . S
C2511 N2519 1.427 . S
C2512 H2503 0.930 . S
C2512 C2510 1.378 . S
C2512 C2513 1.367 . S
C2513 C2512 1.367 . S
C2513 C2515 1.433 . S
C2514 C2510 1.350 . S
C2514 C2511 1.463 . S
C2514 N2518 1.427 . S
C2515 H2505 0.929 . S
C2515 C2513 1.433 . S
C2515 N2518 1.384 . S
C2516 H2507 0.929 . S
C2516 C2508 1.378 . S
C2516 C2511 1.350 . S
C2517 H2504 0.929 . S
C2517 C2509 1.433 . S
C2517 N2519 1.384 . S
N2518 C2514 1.427 . S
N2518 C2515 1.384 . S
N2519 C2511 1.427 . S
N2519 C2517 1.384 . S
H2520 C2526 0.930 . S
H2521 C2530 0.930 . S
H2522 C2535 0.929 . S
H2523 C2533 0.929 . S
H2524 C2528 0.929 . S
H2525 C2534 0.929 . S
C2526 H2520 0.930 . S
C2526 C2527 1.367 . S
C2526 C2534 1.378 . S
C2527 C2526 1.367 . S
C2527 C2535 1.433 . S
C2528 H2524 0.929 . S
C2528 C2530 1.378 . S
C2528 C2532 1.350 . S
C2529 C2532 1.463 . S
C2529 C2534 1.350 . S
C2529 N2537 1.427 . S
C2530 H2521 0.930 . S
C2530 C2528 1.378 . S
C2530 C2531 1.367 . S
C2531 C2530 1.367 . S
C2531 C2533 1.433 . S
C2532 C2528 1.350 . S
C2532 C2529 1.463 . S
C2532 N2536 1.427 . S
C2533 H2523 0.929 . S
C2533 C2531 1.433 . S
C2533 N2536 1.384 . S
C2534 H2525 0.929 . S
C2534 C2526 1.378 . S
C2534 C2529 1.350 . S
C2535 H2522 0.929 . S
C2535 C2527 1.433 . S
C2535 N2537 1.384 . S
N2536 C2532 1.427 . S
N2536 C2533 1.384 . S
N2537 C2529 1.427 . S
N2537 C2535 1.384 . S
H2538 C2544 0.930 . S
H2539 C2548 0.930 . S
H2540 C2553 0.929 . S
H2541 C2551 0.929 . S
H2542 C2546 0.929 . S
H2543 C2552 0.929 . S
C2544 H2538 0.930 . S
C2544 C2545 1.367 . S
C2544 C2552 1.378 . S
C2545 C2544 1.367 . S
C2545 C2553 1.433 . S
C2546 H2542 0.929 . S
C2546 C2548 1.378 . S
C2546 C2550 1.350 . S
C2547 C2550 1.463 . S
C2547 C2552 1.350 . S
C2547 N2555 1.427 . S
C2548 H2539 0.930 . S
C2548 C2546 1.378 . S
C2548 C2549 1.367 . S
C2549 C2548 1.367 . S
C2549 C2551 1.433 . S
C2550 C2546 1.350 . S
C2550 C2547 1.463 . S
C2550 N2554 1.427 . S
C2551 H2541 0.929 . S
C2551 C2549 1.433 . S
C2551 N2554 1.384 . S
C2552 H2543 0.929 . S
C2552 C2544 1.378 . S
C2552 C2547 1.350 . S
C2553 H2540 0.929 . S
C2553 C2545 1.433 . S
C2553 N2555 1.384 . S
N2554 C2550 1.427 . S
N2554 C2551 1.384 . S
N2555 C2547 1.427 . S
N2555 C2553 1.384 . S
H2556 C2562 0.930 . S
H2557 C2566 0.930 . S
H2558 C2571 0.929 . S
H2559 C2569 0.929 . S
H2560 C2564 0.929 . S
H2561 C2570 0.929 . S
C2562 H2556 0.930 . S
C2562 C2563 1.367 . S
C2562 C2570 1.378 . S
C2563 C2562 1.367 . S
C2563 C2571 1.433 . S
C2564 H2560 0.929 . S
C2564 C2566 1.378 . S
C2564 C2568 1.350 . S
C2565 C2568 1.463 . S
C2565 C2570 1.350 . S
C2565 N2573 1.427 . S
C2566 H2557 0.930 . S
C2566 C2564 1.378 . S
C2566 C2567 1.367 . S
C2567 C2566 1.367 . S
C2567 C2569 1.433 . S
C2568 C2564 1.350 . S
C2568 C2565 1.463 . S
C2568 N2572 1.427 . S
C2569 H2559 0.929 . S
C2569 C2567 1.433 . S
C2569 N2572 1.384 . S
C2570 H2561 0.929 . S
C2570 C2562 1.378 . S
C2570 C2565 1.350 . S
C2571 H2558 0.929 . S
C2571 C2563 1.433 . S
C2571 N2573 1.384 . S
N2572 C2568 1.427 . S
N2572 C2569 1.384 . S
N2573 C2565 1.427 . S
N2573 C2571 1.384 . S
H2574 C2580 0.930 . S
H2575 C2584 0.930 . S
H2576 C2589 0.929 . S
H2577 C2587 0.929 . S
H2578 C2582 0.929 . S
H2579 C2588 0.929 . S
C2580 H2574 0.930 . S
C2580 C2581 1.367 . S
C2580 C2588 1.378 . S
C2581 C2580 1.367 . S
C2581 C2589 1.433 . S
C2582 H2578 0.929 . S
C2582 C2584 1.378 . S
C2582 C2586 1.350 . S
C2583 C2586 1.463 . S
C2583 C2588 1.350 . S
C2583 N2591 1.427 . S
C2584 H2575 0.930 . S
C2584 C2582 1.378 . S
C2584 C2585 1.367 . S
C2585 C2584 1.367 . S
C2585 C2587 1.433 . S
C2586 C2582 1.350 . S
C2586 C2583 1.463 . S
C2586 N2590 1.427 . S
C2587 H2577 0.929 . S
C2587 C2585 1.433 . S
C2587 N2590 1.384 . S
C2588 H2579 0.929 . S
C2588 C2580 1.378 . S
C2588 C2583 1.350 . S
C2589 H2576 0.929 . S
C2589 C2581 1.433 . S
C2589 N2591 1.384 . S
N2590 C2586 1.427 . S
N2590 C2587 1.384 . S
N2591 C2583 1.427 . S
N2591 C2589 1.384 . S
H2592 C2598 0.930 . S
H2593 C2602 0.930 . S
H2594 C2607 0.929 . S
H2595 C2605 0.929 . S
H2596 C2600 0.929 . S
H2597 C2606 0.929 . S
C2598 H2592 0.930 . S
C2598 C2599 1.367 . S
C2598 C2606 1.378 . S
C2599 C2598 1.367 . S
C2599 C2607 1.433 . S
C2600 H2596 0.929 . S
C2600 C2602 1.378 . S
C2600 C2604 1.350 . S
C2601 C2604 1.463 . S
C2601 C2606 1.350 . S
C2601 N2609 1.427 . S
C2602 H2593 0.930 . S
C2602 C2600 1.378 . S
C2602 C2603 1.367 . S
C2603 C2602 1.367 . S
C2603 C2605 1.433 . S
C2604 C2600 1.350 . S
C2604 C2601 1.463 . S
C2604 N2608 1.427 . S
C2605 H2595 0.929 . S
C2605 C2603 1.433 . S
C2605 N2608 1.384 . S
C2606 H2597 0.929 . S
C2606 C2598 1.378 . S
C2606 C2601 1.350 . S
C2607 H2594 0.929 . S
C2607 C2599 1.433 . S
C2607 N2609 1.384 . S
N2608 C2604 1.427 . S
N2608 C2605 1.384 . S
N2609 C2601 1.427 . S
N2609 C2607 1.384 . S
H2610 C2616 0.930 . S
H2611 C2620 0.930 . S
H2612 C2625 0.929 . S
H2613 C2623 0.929 . S
H2614 C2618 0.929 . S
H2615 C2624 0.929 . S
C2616 H2610 0.930 . S
C2616 C2617 1.367 . S
C2616 C2624 1.378 . S
C2617 C2616 1.367 . S
C2617 C2625 1.433 . S
C2618 H2614 0.929 . S
C2618 C2620 1.378 . S
C2618 C2622 1.350 . S
C2619 C2622 1.463 . S
C2619 C2624 1.350 . S
C2619 N2627 1.427 . S
C2620 H2611 0.930 . S
C2620 C2618 1.378 . S
C2620 C2621 1.367 . S
C2621 C2620 1.367 . S
C2621 C2623 1.433 . S
C2622 C2618 1.350 . S
C2622 C2619 1.463 . S
C2622 N2626 1.427 . S
C2623 H2613 0.929 . S
C2623 C2621 1.433 . S
C2623 N2626 1.384 . S
C2624 H2615 0.929 . S
C2624 C2616 1.378 . S
C2624 C2619 1.350 . S
C2625 H2612 0.929 . S
C2625 C2617 1.433 . S
C2625 N2627 1.384 . S
N2626 C2622 1.427 . S
N2626 C2623 1.384 . S
N2627 C2619 1.427 . S
N2627 C2625 1.384 . S
H2628 C2634 0.930 . S
H2629 C2638 0.930 . S
H2630 C2643 0.929 . S
H2631 C2641 0.929 . S
H2632 C2636 0.929 . S
H2633 C2642 0.929 . S
C2634 H2628 0.930 . S
C2634 C2635 1.367 . S
C2634 C2642 1.378 . S
C2635 C2634 1.367 . S
C2635 C2643 1.433 . S
C2636 H2632 0.929 . S
C2636 C2638 1.378 . S
C2636 C2640 1.350 . S
C2637 C2640 1.463 . S
C2637 C2642 1.350 . S
C2637 N2645 1.427 . S
C2638 H2629 0.930 . S
C2638 C2636 1.378 . S
C2638 C2639 1.367 . S
C2639 C2638 1.367 . S
C2639 C2641 1.433 . S
C2640 C2636 1.350 . S
C2640 C2637 1.463 . S
C2640 N2644 1.427 . S
C2641 H2631 0.929 . S
C2641 C2639 1.433 . S
C2641 N2644 1.384 . S
C2642 H2633 0.929 . S
C2642 C2634 1.378 . S
C2642 C2637 1.350 . S
C2643 H2630 0.929 . S
C2643 C2635 1.433 . S
C2643 N2645 1.384 . S
N2644 C2640 1.427 . S
N2644 C2641 1.384 . S
N2645 C2637 1.427 . S
N2645 C2643 1.384 . S
H2646 C2652 0.930 . S
H2647 C2656 0.930 . S
H2648 C2661 0.929 . S
H2649 C2659 0.929 . S
H2650 C2654 0.929 . S
H2651 C2660 0.929 . S
C2652 H2646 0.930 . S
C2652 C2653 1.367 . S
C2652 C2660 1.378 . S
C2653 C2652 1.367 . S
C2653 C2661 1.433 . S
C2654 H2650 0.929 . S
C2654 C2656 1.378 . S
C2654 C2658 1.350 . S
C2655 C2658 1.463 . S
C2655 C2660 1.350 . S
C2655 N2663 1.427 . S
C2656 H2647 0.930 . S
C2656 C2654 1.378 . S
C2656 C2657 1.367 . S
C2657 C2656 1.367 . S
C2657 C2659 1.433 . S
C2658 C2654 1.350 . S
C2658 C2655 1.463 . S
C2658 N2662 1.427 . S
C2659 H2649 0.929 . S
C2659 C2657 1.433 . S
C2659 N2662 1.384 . S
C2660 H2651 0.929 . S
C2660 C2652 1.378 . S
C2660 C2655 1.350 . S
C2661 H2648 0.929 . S
C2661 C2653 1.433 . S
C2661 N2663 1.384 . S
N2662 C2658 1.427 . S
N2662 C2659 1.384 . S
N2663 C2655 1.427 . S
N2663 C2661 1.384 . S
H2664 C2670 0.930 . S
H2665 C2674 0.930 . S
H2666 C2679 0.929 . S
H2667 C2677 0.929 . S
H2668 C2672 0.929 . S
H2669 C2678 0.929 . S
C2670 H2664 0.930 . S
C2670 C2671 1.367 . S
C2670 C2678 1.378 . S
C2671 C2670 1.367 . S
C2671 C2679 1.433 . S
C2672 H2668 0.929 . S
C2672 C2674 1.378 . S
C2672 C2676 1.350 . S
C2673 C2676 1.463 1_565 S
C2673 C2678 1.350 . S
C2673 N2681 1.427 . S
C2674 H2665 0.930 . S
C2674 C2672 1.378 . S
C2674 C2675 1.367 . S
C2675 C2674 1.367 . S
C2675 C2677 1.433 . S
C2676 C2672 1.350 . S
C2676 C2673 1.463 1_545 S
C2676 N2680 1.427 . S
C2677 H2667 0.929 . S
C2677 C2675 1.433 . S
C2677 N2680 1.384 . S
C2678 H2669 0.929 . S
C2678 C2670 1.378 . S
C2678 C2673 1.350 . S
C2679 H2666 0.929 . S
C2679 C2671 1.433 . S
C2679 N2681 1.384 . S
N2680 C2676 1.427 . S
N2680 C2677 1.384 . S
N2681 C2673 1.427 . S
N2681 C2679 1.384 . S
H2682 C2688 0.930 . S
H2683 C2692 0.930 . S
H2684 C2697 0.929 . S
H2685 C2695 0.929 . S
H2686 C2690 0.929 . S
H2687 C2696 0.929 . S
C2688 H2682 0.930 . S
C2688 C2689 1.367 . S
C2688 C2696 1.378 . S
C2689 C2688 1.367 . S
C2689 C2697 1.433 . S
C2690 H2686 0.929 . S
C2690 C2692 1.378 . S
C2690 C2694 1.350 . S
C2691 C2694 1.463 1_655 S
C2691 C2696 1.350 . S
C2691 N2699 1.427 . S
C2692 H2683 0.930 . S
C2692 C2690 1.378 . S
C2692 C2693 1.367 . S
C2693 C2692 1.367 . S
C2693 C2695 1.433 . S
C2694 C2690 1.350 . S
C2694 C2691 1.463 1_455 S
C2694 N2698 1.427 . S
C2695 H2685 0.929 . S
C2695 C2693 1.433 . S
C2695 N2698 1.384 . S
C2696 H2687 0.929 . S
C2696 C2688 1.378 . S
C2696 C2691 1.350 . S
C2697 H2684 0.929 . S
C2697 C2689 1.433 . S
C2697 N2699 1.384 . S
N2698 C2694 1.427 . S
N2698 C2695 1.384 . S
N2699 C2691 1.427 . S
N2699 C2697 1.384 . S
H2700 C2706 0.930 . S
H2701 C2710 0.930 . S
H2702 C2715 0.929 . S
H2703 C2713 0.929 . S
H2704 C2708 0.921 1_565 S
H2705 C2714 0.921 1_545 S
C2706 H2700 0.930 . S
C2706 C2707 1.367 . S
C2706 C2714 1.378 . S
C2707 C2706 1.367 . S
C2707 C2715 1.433 . S
C2708 H2704 0.921 1_545 S
C2708 C2710 1.378 . S
C2708 C2712 1.350 . S
C2709 C2712 1.463 1_565 S
C2709 C2714 1.350 . S
C2709 N2717 1.427 . S
C2710 H2701 0.930 . S
C2710 C2708 1.378 . S
C2710 C2711 1.367 . S
C2711 C2710 1.367 . S
C2711 C2713 1.433 . S
C2712 C2708 1.350 . S
C2712 C2709 1.463 1_545 S
C2712 N2716 1.427 . S
C2713 H2703 0.929 . S
C2713 C2711 1.433 . S
C2713 N2716 1.384 . S
C2714 H2705 0.921 1_565 S
C2714 C2706 1.378 . S
C2714 C2709 1.350 . S
C2715 H2702 0.929 . S
C2715 C2707 1.433 . S
C2715 N2717 1.384 . S
N2716 C2712 1.427 . S
N2716 C2713 1.384 . S
N2717 C2709 1.427 . S
N2717 C2715 1.384 . S
H2718 C2724 0.930 . S
H2719 C2728 0.930 . S
H2720 C2733 0.929 . S
H2721 C2731 0.929 . S
H2722 C2726 0.929 . S
H2723 C2732 0.929 . S
C2724 H2718 0.930 . S
C2724 C2725 1.367 . S
C2724 C2732 1.378 . S
C2725 C2724 1.367 . S
C2725 C2733 1.433 . S
C2726 H2722 0.929 . S
C2726 C2728 1.378 . S
C2726 C2730 1.350 . S
C2727 C2730 1.463 1_655 S
C2727 C2732 1.350 . S
C2727 N2735 1.427 . S
C2728 H2719 0.930 . S
C2728 C2726 1.378 . S
C2728 C2729 1.367 . S
C2729 C2728 1.367 . S
C2729 C2731 1.433 . S
C2730 C2726 1.350 . S
C2730 C2727 1.463 1_455 S
C2730 N2734 1.427 . S
C2731 H2721 0.929 . S
C2731 C2729 1.433 . S
C2731 N2734 1.384 . S
C2732 H2723 0.929 . S
C2732 C2724 1.378 . S
C2732 C2727 1.350 . S
C2733 H2720 0.929 . S
C2733 C2725 1.433 . S
C2733 N2735 1.384 . S
N2734 C2730 1.427 . S
N2734 C2731 1.384 . S
N2735 C2727 1.427 . S
N2735 C2733 1.384 . S
H2736 C2742 0.930 . S
H2737 C2746 0.930 . S
H2738 C2751 0.929 . S
H2739 C2749 0.929 . S
H2740 C2744 0.952 . S
H2741 C2750 0.952 . S
C2742 H2736 0.930 . S
C2742 C2743 1.367 . S
C2742 C2750 1.378 . S
C2743 C2742 1.367 . S
C2743 C2751 1.433 . S
C2744 H2740 0.952 . S
C2744 C2746 1.378 . S
C2744 C2748 1.350 . S
C2745 C2748 1.463 1_565 S
C2745 C2750 1.350 . S
C2745 N2753 1.427 . S
C2746 H2737 0.930 . S
C2746 C2744 1.378 . S
C2746 C2747 1.367 . S
C2747 C2746 1.367 . S
C2747 C2749 1.433 . S
C2748 C2744 1.350 . S
C2748 C2745 1.463 1_545 S
C2748 N2752 1.427 . S
C2749 H2739 0.929 . S
C2749 C2747 1.433 . S
C2749 N2752 1.384 . S
C2750 H2741 0.952 . S
C2750 C2742 1.378 . S
C2750 C2745 1.350 . S
C2751 H2738 0.929 . S
C2751 C2743 1.433 . S
C2751 N2753 1.384 . S
N2752 C2748 1.427 . S
N2752 C2749 1.384 . S
N2753 C2745 1.427 . S
N2753 C2751 1.384 . S
H2754 C2760 0.930 . S
H2755 C2764 0.930 . S
H2756 C2769 0.929 . S
H2757 C2767 0.929 . S
H2758 C2762 0.929 . S
H2759 C2768 0.929 . S
C2760 H2754 0.930 . S
C2760 C2761 1.367 . S
C2760 C2768 1.378 . S
C2761 C2760 1.367 . S
C2761 C2769 1.433 . S
C2762 H2758 0.929 . S
C2762 C2764 1.378 . S
C2762 C2766 1.350 . S
C2763 C2766 1.463 1_455 S
C2763 C2768 1.350 . S
C2763 N2771 1.427 . S
C2764 H2755 0.930 . S
C2764 C2762 1.378 . S
C2764 C2765 1.367 . S
C2765 C2764 1.367 . S
C2765 C2767 1.433 . S
C2766 C2762 1.350 . S
C2766 C2763 1.463 1_655 S
C2766 N2770 1.427 . S
C2767 H2757 0.929 . S
C2767 C2765 1.433 . S
C2767 N2770 1.384 . S
C2768 H2759 0.929 . S
C2768 C2760 1.378 . S
C2768 C2763 1.350 . S
C2769 H2756 0.929 . S
C2769 C2761 1.433 . S
C2769 N2771 1.384 . S
N2770 C2766 1.427 . S
N2770 C2767 1.384 . S
N2771 C2763 1.427 . S
N2771 C2769 1.384 . S
H2772 C2778 0.930 . S
H2773 C2782 0.930 . S
H2774 C2787 0.929 . S
H2775 C2785 0.929 . S
H2776 C2780 0.929 . S
H2777 C2786 0.929 . S
C2778 H2772 0.930 . S
C2778 C2779 1.367 . S
C2778 C2786 1.378 . S
C2779 C2778 1.367 . S
C2779 C2787 1.433 . S
C2780 H2776 0.929 . S
C2780 C2782 1.378 . S
C2780 C2784 1.350 . S
C2781 C2784 1.463 1_545 S
C2781 C2786 1.350 . S
C2781 N2789 1.427 . S
C2782 H2773 0.930 . S
C2782 C2780 1.378 . S
C2782 C2783 1.367 . S
C2783 C2782 1.367 . S
C2783 C2785 1.433 . S
C2784 C2780 1.350 . S
C2784 C2781 1.463 1_565 S
C2784 N2788 1.427 . S
C2785 H2775 0.929 . S
C2785 C2783 1.433 . S
C2785 N2788 1.384 . S
C2786 H2777 0.929 . S
C2786 C2778 1.378 . S
C2786 C2781 1.350 . S
C2787 H2774 0.929 . S
C2787 C2779 1.433 . S
C2787 N2789 1.384 . S
N2788 C2784 1.427 . S
N2788 C2785 1.384 . S
N2789 C2781 1.427 . S
N2789 C2787 1.384 . S
H2790 C2796 0.930 . S
H2791 C2800 0.930 . S
H2792 C2805 0.929 . S
H2793 C2803 0.929 . S
H2794 C2798 0.929 . S
H2795 C2804 0.929 . S
C2796 H2790 0.930 . S
C2796 C2797 1.367 . S
C2796 C2804 1.378 . S
C2797 C2796 1.367 . S
C2797 C2805 1.433 . S
C2798 H2794 0.929 . S
C2798 C2800 1.378 . S
C2798 C2802 1.350 . S
C2799 C2802 1.463 1_455 S
C2799 C2804 1.350 . S
C2799 N2807 1.427 . S
C2800 H2791 0.930 . S
C2800 C2798 1.378 . S
C2800 C2801 1.367 . S
C2801 C2800 1.367 . S
C2801 C2803 1.433 . S
C2802 C2798 1.350 . S
C2802 C2799 1.463 1_655 S
C2802 N2806 1.427 . S
C2803 H2793 0.929 . S
C2803 C2801 1.433 . S
C2803 N2806 1.384 . S
C2804 H2795 0.929 . S
C2804 C2796 1.378 . S
C2804 C2799 1.350 . S
C2805 H2792 0.929 . S
C2805 C2797 1.433 . S
C2805 N2807 1.384 . S
N2806 C2802 1.427 . S
N2806 C2803 1.384 . S
N2807 C2799 1.427 . S
N2807 C2805 1.384 . S
H2808 C2814 0.930 . S
H2809 C2818 0.930 . S
H2810 C2823 0.929 . S
H2811 C2821 0.929 . S
H2812 C2816 0.965 . S
H2813 C2822 0.965 . S
C2814 H2808 0.930 . S
C2814 C2815 1.367 . S
C2814 C2822 1.378 . S
C2815 C2814 1.367 . S
C2815 C2823 1.433 . S
C2816 H2812 0.965 . S
C2816 C2818 1.378 . S
C2816 C2820 1.350 . S
C2817 C2820 1.463 1_556 S
C2817 C2822 1.350 . S
C2817 N2825 1.427 . S
C2818 H2809 0.930 . S
C2818 C2816 1.378 . S
C2818 C2819 1.367 . S
C2819 C2818 1.367 . S
C2819 C2821 1.433 . S
C2820 C2816 1.350 . S
C2820 C2817 1.463 1_554 S
C2820 N2824 1.427 . S
C2821 H2811 0.929 . S
C2821 C2819 1.433 . S
C2821 N2824 1.384 . S
C2822 H2813 0.965 . S
C2822 C2814 1.378 . S
C2822 C2817 1.350 . S
C2823 H2810 0.929 . S
C2823 C2815 1.433 . S
C2823 N2825 1.384 . S
N2824 C2820 1.427 . S
N2824 C2821 1.384 . S
N2825 C2817 1.427 . S
N2825 C2823 1.384 . S
H2826 C2832 0.930 . S
H2827 C2836 0.930 . S
H2828 C2841 0.929 . S
H2829 C2839 0.929 . S
H2830 C2834 0.929 . S
H2831 C2840 0.929 . S
C2832 H2826 0.930 . S
C2832 C2833 1.367 . S
C2832 C2840 1.378 . S
C2833 C2832 1.367 . S
C2833 C2841 1.433 . S
C2834 H2830 0.929 . S
C2834 C2836 1.378 . S
C2834 C2838 1.350 . S
C2835 C2838 1.463 1_556 S
C2835 C2840 1.350 . S
C2835 N2843 1.427 . S
C2836 H2827 0.930 . S
C2836 C2834 1.378 . S
C2836 C2837 1.367 . S
C2837 C2836 1.367 . S
C2837 C2839 1.433 . S
C2838 C2834 1.350 . S
C2838 C2835 1.463 1_554 S
C2838 N2842 1.427 . S
C2839 H2829 0.929 . S
C2839 C2837 1.433 . S
C2839 N2842 1.384 . S
C2840 H2831 0.929 . S
C2840 C2832 1.378 . S
C2840 C2835 1.350 . S
C2841 H2828 0.929 . S
C2841 C2833 1.433 . S
C2841 N2843 1.384 . S
N2842 C2838 1.427 . S
N2842 C2839 1.384 . S
N2843 C2835 1.427 . S
N2843 C2841 1.384 . S
H2844 C2850 0.930 . S
H2845 C2854 0.930 . S
H2846 C2859 0.929 . S
H2847 C2857 0.929 . S
H2848 C2852 0.929 . S
H2849 C2858 0.929 . S
C2850 H2844 0.930 . S
C2850 C2851 1.367 . S
C2850 C2858 1.378 . S
C2851 C2850 1.367 . S
C2851 C2859 1.433 . S
C2852 H2848 0.929 . S
C2852 C2854 1.378 . S
C2852 C2856 1.350 . S
C2853 C2856 1.463 1_554 S
C2853 C2858 1.350 . S
C2853 N2861 1.427 . S
C2854 H2845 0.930 . S
C2854 C2852 1.378 . S
C2854 C2855 1.367 . S
C2855 C2854 1.367 . S
C2855 C2857 1.433 . S
C2856 C2852 1.350 . S
C2856 C2853 1.463 1_556 S
C2856 N2860 1.427 . S
C2857 H2847 0.929 . S
C2857 C2855 1.433 . S
C2857 N2860 1.384 . S
C2858 H2849 0.929 . S
C2858 C2850 1.378 . S
C2858 C2853 1.350 . S
C2859 H2846 0.929 . S
C2859 C2851 1.433 . S
C2859 N2861 1.384 . S
N2860 C2856 1.427 . S
N2860 C2857 1.384 . S
N2861 C2853 1.427 . S
N2861 C2859 1.384 . S
H2862 C2868 0.930 . S
H2863 C2872 0.930 . S
H2864 C2877 0.929 . S
H2865 C2875 0.929 . S
H2866 C2870 0.929 . S
H2867 C2876 0.929 . S
C2868 H2862 0.930 . S
C2868 C2869 1.367 . S
C2868 C2876 1.378 . S
C2869 C2868 1.367 . S
C2869 C2877 1.433 . S
C2870 H2866 0.929 . S
C2870 C2872 1.378 . S
C2870 C2874 1.350 . S
C2871 C2874 1.463 1_554 S
C2871 C2876 1.350 . S
C2871 N2879 1.427 . S
C2872 H2863 0.930 . S
C2872 C2870 1.378 . S
C2872 C2873 1.367 . S
C2873 C2872 1.367 . S
C2873 C2875 1.433 . S
C2874 C2870 1.350 . S
C2874 C2871 1.463 1_556 S
C2874 N2878 1.427 . S
C2875 H2865 0.929 . S
C2875 C2873 1.433 . S
C2875 N2878 1.384 . S
C2876 H2867 0.929 . S
C2876 C2868 1.378 . S
C2876 C2871 1.350 . S
C2877 H2864 0.929 . S
C2877 C2869 1.433 . S
C2877 N2879 1.384 . S
N2878 C2874 1.427 . S
N2878 C2875 1.384 . S
N2879 C2871 1.427 . S
N2879 C2877 1.384 . S
H2880 C2886 0.930 . S
H2881 C2890 0.930 . S
H2882 C2895 0.929 . S
H2883 C2893 0.929 . S
H2884 C2888 0.929 . S
H2885 C2894 0.929 . S
C2886 H2880 0.930 . S
C2886 C2887 1.367 . S
C2886 C2894 1.378 . S
C2887 C2886 1.367 . S
C2887 C2895 1.433 . S
C2888 H2884 0.929 . S
C2888 C2890 1.378 . S
C2888 C2892 1.350 . S
C2889 C2892 1.463 . S
C2889 C2894 1.350 . S
C2889 N2897 1.427 . S
C2890 H2881 0.930 . S
C2890 C2888 1.378 . S
C2890 C2891 1.367 . S
C2891 C2890 1.367 . S
C2891 C2893 1.433 . S
C2892 C2888 1.350 . S
C2892 C2889 1.463 . S
C2892 N2896 1.427 . S
C2893 H2883 0.929 . S
C2893 C2891 1.433 . S
C2893 N2896 1.384 . S
C2894 H2885 0.929 . S
C2894 C2886 1.378 . S
C2894 C2889 1.350 . S
C2895 H2882 0.929 . S
C2895 C2887 1.433 . S
C2895 N2897 1.384 . S
N2896 C2892 1.427 . S
N2896 C2893 1.384 . S
N2897 C2889 1.427 . S
N2897 C2895 1.384 . S
H2898 C2904 0.930 . S
H2899 C2908 0.930 . S
H2900 C2913 0.929 . S
H2901 C2911 0.929 . S
H2902 C2906 0.929 . S
H2903 C2912 0.929 . S
C2904 H2898 0.930 . S
C2904 C2905 1.367 . S
C2904 C2912 1.378 . S
C2905 C2904 1.367 . S
C2905 C2913 1.433 . S
C2906 H2902 0.929 . S
C2906 C2908 1.378 . S
C2906 C2910 1.350 . S
C2907 C2910 1.463 . S
C2907 C2912 1.350 . S
C2907 N2915 1.427 . S
C2908 H2899 0.930 . S
C2908 C2906 1.378 . S
C2908 C2909 1.367 . S
C2909 C2908 1.367 . S
C2909 C2911 1.433 . S
C2910 C2906 1.350 . S
C2910 C2907 1.463 . S
C2910 N2914 1.427 . S
C2911 H2901 0.929 . S
C2911 C2909 1.433 . S
C2911 N2914 1.384 . S
C2912 H2903 0.929 . S
C2912 C2904 1.378 . S
C2912 C2907 1.350 . S
C2913 H2900 0.929 . S
C2913 C2905 1.433 . S
C2913 N2915 1.384 . S
N2914 C2910 1.427 . S
N2914 C2911 1.384 . S
N2915 C2907 1.427 . S
N2915 C2913 1.384 . S
H2916 C2922 0.930 . S
H2917 C2926 0.930 . S
H2918 C2931 0.929 . S
H2919 C2929 0.929 . S
H2920 C2924 0.929 . S
H2921 C2930 0.929 . S
C2922 H2916 0.930 . S
C2922 C2923 1.367 . S
C2922 C2930 1.378 . S
C2923 C2922 1.367 . S
C2923 C2931 1.433 . S
C2924 H2920 0.929 . S
C2924 C2926 1.378 . S
C2924 C2928 1.350 . S
C2925 C2928 1.463 . S
C2925 C2930 1.350 . S
C2925 N2933 1.427 . S
C2926 H2917 0.930 . S
C2926 C2924 1.378 . S
C2926 C2927 1.367 . S
C2927 C2926 1.367 . S
C2927 C2929 1.433 . S
C2928 C2924 1.350 . S
C2928 C2925 1.463 . S
C2928 N2932 1.427 . S
C2929 H2919 0.929 . S
C2929 C2927 1.433 . S
C2929 N2932 1.384 . S
C2930 H2921 0.929 . S
C2930 C2922 1.378 . S
C2930 C2925 1.350 . S
C2931 H2918 0.929 . S
C2931 C2923 1.433 . S
C2931 N2933 1.384 . S
N2932 C2928 1.427 . S
N2932 C2929 1.384 . S
N2933 C2925 1.427 . S
N2933 C2931 1.384 . S
H2934 C2940 0.930 . S
H2935 C2944 0.930 . S
H2936 C2949 0.929 . S
H2937 C2947 0.929 . S
H2938 C2942 0.929 . S
H2939 C2948 0.929 . S
C2940 H2934 0.930 . S
C2940 C2941 1.367 . S
C2940 C2948 1.378 . S
C2941 C2940 1.367 . S
C2941 C2949 1.433 . S
C2942 H2938 0.929 . S
C2942 C2944 1.378 . S
C2942 C2946 1.350 . S
C2943 C2946 1.463 . S
C2943 C2948 1.350 . S
C2943 N2951 1.427 . S
C2944 H2935 0.930 . S
C2944 C2942 1.378 . S
C2944 C2945 1.367 . S
C2945 C2944 1.367 . S
C2945 C2947 1.433 . S
C2946 C2942 1.350 . S
C2946 C2943 1.463 . S
C2946 N2950 1.427 . S
C2947 H2937 0.929 . S
C2947 C2945 1.433 . S
C2947 N2950 1.384 . S
C2948 H2939 0.929 . S
C2948 C2940 1.378 . S
C2948 C2943 1.350 . S
C2949 H2936 0.929 . S
C2949 C2941 1.433 . S
C2949 N2951 1.384 . S
N2950 C2946 1.427 . S
N2950 C2947 1.384 . S
N2951 C2943 1.427 . S
N2951 C2949 1.384 . S
H2952 C2958 0.930 . S
H2953 C2962 0.930 . S
H2954 C2967 0.929 . S
H2955 C2965 0.929 . S
H2956 C2960 0.929 . S
H2957 C2966 0.929 . S
C2958 H2952 0.930 . S
C2958 C2959 1.367 . S
C2958 C2966 1.378 . S
C2959 C2958 1.367 . S
C2959 C2967 1.433 . S
C2960 H2956 0.929 . S
C2960 C2962 1.378 . S
C2960 C2964 1.350 . S
C2961 C2964 1.463 . S
C2961 C2966 1.350 . S
C2961 N2969 1.427 . S
C2962 H2953 0.930 . S
C2962 C2960 1.378 . S
C2962 C2963 1.367 . S
C2963 C2962 1.367 . S
C2963 C2965 1.433 . S
C2964 C2960 1.350 . S
C2964 C2961 1.463 . S
C2964 N2968 1.427 . S
C2965 H2955 0.929 . S
C2965 C2963 1.433 . S
C2965 N2968 1.384 . S
C2966 H2957 0.929 . S
C2966 C2958 1.378 . S
C2966 C2961 1.350 . S
C2967 H2954 0.929 . S
C2967 C2959 1.433 . S
C2967 N2969 1.384 . S
N2968 C2964 1.427 . S
N2968 C2965 1.384 . S
N2969 C2961 1.427 . S
N2969 C2967 1.384 . S
H2970 C2976 0.930 . S
H2971 C2980 0.930 . S
H2972 C2985 0.929 . S
H2973 C2983 0.929 . S
H2974 C2978 0.929 . S
H2975 C2984 0.929 . S
C2976 H2970 0.930 . S
C2976 C2977 1.367 . S
C2976 C2984 1.378 . S
C2977 C2976 1.367 . S
C2977 C2985 1.433 . S
C2978 H2974 0.929 . S
C2978 C2980 1.378 . S
C2978 C2982 1.350 . S
C2979 C2982 1.463 . S
C2979 C2984 1.350 . S
C2979 N2987 1.427 . S
C2980 H2971 0.930 . S
C2980 C2978 1.378 . S
C2980 C2981 1.367 . S
C2981 C2980 1.367 . S
C2981 C2983 1.433 . S
C2982 C2978 1.350 . S
C2982 C2979 1.463 . S
C2982 N2986 1.427 . S
C2983 H2973 0.929 . S
C2983 C2981 1.433 . S
C2983 N2986 1.384 . S
C2984 H2975 0.929 . S
C2984 C2976 1.378 . S
C2984 C2979 1.350 . S
C2985 H2972 0.929 . S
C2985 C2977 1.433 . S
C2985 N2987 1.384 . S
N2986 C2982 1.427 . S
N2986 C2983 1.384 . S
N2987 C2979 1.427 . S
N2987 C2985 1.384 . S
H2988 C2994 0.930 . S
H2989 C2998 0.930 . S
H2990 C3003 0.929 . S
H2991 C3001 0.929 . S
H2992 C2996 0.929 . S
H2993 C3002 0.929 . S
C2994 H2988 0.930 . S
C2994 C2995 1.367 . S
C2994 C3002 1.378 . S
C2995 C2994 1.367 . S
C2995 C3003 1.433 . S
C2996 H2992 0.929 . S
C2996 C2998 1.378 . S
C2996 C3000 1.350 . S
C2997 C3000 1.463 . S
C2997 C3002 1.350 . S
C2997 N3005 1.427 . S
C2998 H2989 0.930 . S
C2998 C2996 1.378 . S
C2998 C2999 1.367 . S
C2999 C2998 1.367 . S
C2999 C3001 1.433 . S
C3000 C2996 1.350 . S
C3000 C2997 1.463 . S
C3000 N3004 1.427 . S
C3001 H2991 0.929 . S
C3001 C2999 1.433 . S
C3001 N3004 1.384 . S
C3002 H2993 0.929 . S
C3002 C2994 1.378 . S
C3002 C2997 1.350 . S
C3003 H2990 0.929 . S
C3003 C2995 1.433 . S
C3003 N3005 1.384 . S
N3004 C3000 1.427 . S
N3004 C3001 1.384 . S
N3005 C2997 1.427 . S
N3005 C3003 1.384 . S
H3006 C3012 0.930 . S
H3007 C3016 0.930 . S
H3008 C3021 0.929 . S
H3009 C3019 0.929 . S
H3010 C3014 0.929 . S
H3011 C3020 0.929 . S
C3012 H3006 0.930 . S
C3012 C3013 1.367 . S
C3012 C3020 1.378 . S
C3013 C3012 1.367 . S
C3013 C3021 1.433 . S
C3014 H3010 0.929 . S
C3014 C3016 1.378 . S
C3014 C3018 1.350 . S
C3015 C3018 1.463 . S
C3015 C3020 1.350 . S
C3015 N3023 1.427 . S
C3016 H3007 0.930 . S
C3016 C3014 1.378 . S
C3016 C3017 1.367 . S
C3017 C3016 1.367 . S
C3017 C3019 1.433 . S
C3018 C3014 1.350 . S
C3018 C3015 1.463 . S
C3018 N3022 1.427 . S
C3019 H3009 0.929 . S
C3019 C3017 1.433 . S
C3019 N3022 1.384 . S
C3020 H3011 0.929 . S
C3020 C3012 1.378 . S
C3020 C3015 1.350 . S
C3021 H3008 0.929 . S
C3021 C3013 1.433 . S
C3021 N3023 1.384 . S
N3022 C3018 1.427 . S
N3022 C3019 1.384 . S
N3023 C3015 1.427 . S
N3023 C3021 1.384 . S
H3024 C3030 0.930 . S
H3025 C3034 0.930 . S
H3026 C3039 0.929 . S
H3027 C3037 0.929 . S
H3028 C3032 0.929 . S
H3029 C3038 0.929 . S
C3030 H3024 0.930 . S
C3030 C3031 1.367 . S
C3030 C3038 1.378 . S
C3031 C3030 1.367 . S
C3031 C3039 1.433 . S
C3032 H3028 0.929 . S
C3032 C3034 1.378 . S
C3032 C3036 1.350 . S
C3033 C3036 1.463 . S
C3033 C3038 1.350 . S
C3033 N3041 1.427 . S
C3034 H3025 0.930 . S
C3034 C3032 1.378 . S
C3034 C3035 1.367 . S
C3035 C3034 1.367 . S
C3035 C3037 1.433 . S
C3036 C3032 1.350 . S
C3036 C3033 1.463 . S
C3036 N3040 1.427 . S
C3037 H3027 0.929 . S
C3037 C3035 1.433 . S
C3037 N3040 1.384 . S
C3038 H3029 0.929 . S
C3038 C3030 1.378 . S
C3038 C3033 1.350 . S
C3039 H3026 0.929 . S
C3039 C3031 1.433 . S
C3039 N3041 1.384 . S
N3040 C3036 1.427 . S
N3040 C3037 1.384 . S
N3041 C3033 1.427 . S
N3041 C3039 1.384 . S
H3042 C3048 0.930 . S
H3043 C3052 0.930 . S
H3044 C3057 0.929 . S
H3045 C3055 0.929 . S
H3046 C3050 0.929 . S
H3047 C3056 0.929 . S
C3048 H3042 0.930 . S
C3048 C3049 1.367 . S
C3048 C3056 1.378 . S
C3049 C3048 1.367 . S
C3049 C3057 1.433 . S
C3050 H3046 0.929 . S
C3050 C3052 1.378 . S
C3050 C3054 1.350 . S
C3051 C3054 1.463 . S
C3051 C3056 1.350 . S
C3051 N3059 1.427 . S
C3052 H3043 0.930 . S
C3052 C3050 1.378 . S
C3052 C3053 1.367 . S
C3053 C3052 1.367 . S
C3053 C3055 1.433 . S
C3054 C3050 1.350 . S
C3054 C3051 1.463 . S
C3054 N3058 1.427 . S
C3055 H3045 0.929 . S
C3055 C3053 1.433 . S
C3055 N3058 1.384 . S
C3056 H3047 0.929 . S
C3056 C3048 1.378 . S
C3056 C3051 1.350 . S
C3057 H3044 0.929 . S
C3057 C3049 1.433 . S
C3057 N3059 1.384 . S
N3058 C3054 1.427 . S
N3058 C3055 1.384 . S
N3059 C3051 1.427 . S
N3059 C3057 1.384 . S
H3060 C3066 0.930 . S
H3061 C3070 0.930 . S
H3062 C3075 0.929 . S
H3063 C3073 0.929 . S
H3064 C3068 0.929 . S
H3065 C3074 0.929 . S
C3066 H3060 0.930 . S
C3066 C3067 1.367 . S
C3066 C3074 1.378 . S
C3067 C3066 1.367 . S
C3067 C3075 1.433 . S
C3068 H3064 0.929 . S
C3068 C3070 1.378 . S
C3068 C3072 1.350 . S
C3069 C3072 1.463 . S
C3069 C3074 1.350 . S
C3069 N3077 1.427 . S
C3070 H3061 0.930 . S
C3070 C3068 1.378 . S
C3070 C3071 1.367 . S
C3071 C3070 1.367 . S
C3071 C3073 1.433 . S
C3072 C3068 1.350 . S
C3072 C3069 1.463 . S
C3072 N3076 1.427 . S
C3073 H3063 0.929 . S
C3073 C3071 1.433 . S
C3073 N3076 1.384 . S
C3074 H3065 0.929 . S
C3074 C3066 1.378 . S
C3074 C3069 1.350 . S
C3075 H3062 0.929 . S
C3075 C3067 1.433 . S
C3075 N3077 1.384 . S
N3076 C3072 1.427 . S
N3076 C3073 1.384 . S
N3077 C3069 1.427 . S
N3077 C3075 1.384 . S
H3078 C3084 0.930 . S
H3079 C3088 0.930 . S
H3080 C3093 0.929 . S
H3081 C3091 0.929 . S
H3082 C3086 0.929 . S
H3083 C3092 0.929 . S
C3084 H3078 0.930 . S
C3084 C3085 1.367 . S
C3084 C3092 1.378 . S
C3085 C3084 1.367 . S
C3085 C3093 1.433 . S
C3086 H3082 0.929 . S
C3086 C3088 1.378 . S
C3086 C3090 1.350 . S
C3087 C3090 1.463 . S
C3087 C3092 1.350 . S
C3087 N3095 1.427 . S
C3088 H3079 0.930 . S
C3088 C3086 1.378 . S
C3088 C3089 1.367 . S
C3089 C3088 1.367 . S
C3089 C3091 1.433 . S
C3090 C3086 1.350 . S
C3090 C3087 1.463 . S
C3090 N3094 1.427 . S
C3091 H3081 0.929 . S
C3091 C3089 1.433 . S
C3091 N3094 1.384 . S
C3092 H3083 0.929 . S
C3092 C3084 1.378 . S
C3092 C3087 1.350 . S
C3093 H3080 0.929 . S
C3093 C3085 1.433 . S
C3093 N3095 1.384 . S
N3094 C3090 1.427 . S
N3094 C3091 1.384 . S
N3095 C3087 1.427 . S
N3095 C3093 1.384 . S
H3096 C3102 0.930 . S
H3097 C3106 0.930 . S
H3098 C3111 0.929 . S
H3099 C3109 0.929 . S
H3100 C3104 0.929 . S
H3101 C3110 0.929 . S
C3102 H3096 0.930 . S
C3102 C3103 1.367 . S
C3102 C3110 1.378 . S
C3103 C3102 1.367 . S
C3103 C3111 1.433 . S
C3104 H3100 0.929 . S
C3104 C3106 1.378 . S
C3104 C3108 1.350 . S
C3105 C3108 1.463 . S
C3105 C3110 1.350 . S
C3105 N3113 1.427 . S
C3106 H3097 0.930 . S
C3106 C3104 1.378 . S
C3106 C3107 1.367 . S
C3107 C3106 1.367 . S
C3107 C3109 1.433 . S
C3108 C3104 1.350 . S
C3108 C3105 1.463 . S
C3108 N3112 1.427 . S
C3109 H3099 0.929 . S
C3109 C3107 1.433 . S
C3109 N3112 1.384 . S
C3110 H3101 0.929 . S
C3110 C3102 1.378 . S
C3110 C3105 1.350 . S
C3111 H3098 0.929 . S
C3111 C3103 1.433 . S
C3111 N3113 1.384 . S
N3112 C3108 1.427 . S
N3112 C3109 1.384 . S
N3113 C3105 1.427 . S
N3113 C3111 1.384 . S
H3114 C3120 0.930 . S
H3115 C3124 0.930 . S
H3116 C3129 0.929 . S
H3117 C3127 0.929 . S
H3118 C3122 0.929 . S
H3119 C3128 0.929 . S
C3120 H3114 0.930 . S
C3120 C3121 1.367 . S
C3120 C3128 1.378 . S
C3121 C3120 1.367 . S
C3121 C3129 1.433 . S
C3122 H3118 0.929 . S
C3122 C3124 1.378 . S
C3122 C3126 1.350 . S
C3123 C3126 1.463 . S
C3123 C3128 1.350 . S
C3123 N3131 1.427 . S
C3124 H3115 0.930 . S
C3124 C3122 1.378 . S
C3124 C3125 1.367 . S
C3125 C3124 1.367 . S
C3125 C3127 1.433 . S
C3126 C3122 1.350 . S
C3126 C3123 1.463 . S
C3126 N3130 1.427 . S
C3127 H3117 0.929 . S
C3127 C3125 1.433 . S
C3127 N3130 1.384 . S
C3128 H3119 0.929 . S
C3128 C3120 1.378 . S
C3128 C3123 1.350 . S
C3129 H3116 0.929 . S
C3129 C3121 1.433 . S
C3129 N3131 1.384 . S
N3130 C3126 1.427 . S
N3130 C3127 1.384 . S
N3131 C3123 1.427 . S
N3131 C3129 1.384 . S
H3132 C3138 0.930 . S
H3133 C3142 0.930 . S
H3134 C3147 0.929 . S
H3135 C3145 0.929 . S
H3136 C3140 0.929 . S
H3137 C3146 0.929 . S
C3138 H3132 0.930 . S
C3138 C3139 1.367 . S
C3138 C3146 1.378 . S
C3139 C3138 1.367 . S
C3139 C3147 1.433 . S
C3140 H3136 0.929 . S
C3140 C3142 1.378 . S
C3140 C3144 1.350 . S
C3141 C3144 1.463 . S
C3141 C3146 1.350 . S
C3141 N3149 1.427 . S
C3142 H3133 0.930 . S
C3142 C3140 1.378 . S
C3142 C3143 1.367 . S
C3143 C3142 1.367 . S
C3143 C3145 1.433 . S
C3144 C3140 1.350 . S
C3144 C3141 1.463 . S
C3144 N3148 1.427 . S
C3145 H3135 0.929 . S
C3145 C3143 1.433 . S
C3145 N3148 1.384 . S
C3146 H3137 0.929 . S
C3146 C3138 1.378 . S
C3146 C3141 1.350 . S
C3147 H3134 0.929 . S
C3147 C3139 1.433 . S
C3147 N3149 1.384 . S
N3148 C3144 1.427 . S
N3148 C3145 1.384 . S
N3149 C3141 1.427 . S
N3149 C3147 1.384 . S
H3150 C3156 0.930 . S
H3151 C3160 0.930 . S
H3152 C3165 0.929 . S
H3153 C3163 0.929 . S
H3154 C3158 0.929 . S
H3155 C3164 0.929 . S
C3156 H3150 0.930 . S
C3156 C3157 1.367 . S
C3156 C3164 1.378 . S
C3157 C3156 1.367 . S
C3157 C3165 1.433 . S
C3158 H3154 0.929 . S
C3158 C3160 1.378 . S
C3158 C3162 1.350 . S
C3159 C3162 1.463 . S
C3159 C3164 1.350 . S
C3159 N3167 1.427 . S
C3160 H3151 0.930 . S
C3160 C3158 1.378 . S
C3160 C3161 1.367 . S
C3161 C3160 1.367 . S
C3161 C3163 1.433 . S
C3162 C3158 1.350 . S
C3162 C3159 1.463 . S
C3162 N3166 1.427 . S
C3163 H3153 0.929 . S
C3163 C3161 1.433 . S
C3163 N3166 1.384 . S
C3164 H3155 0.929 . S
C3164 C3156 1.378 . S
C3164 C3159 1.350 . S
C3165 H3152 0.929 . S
C3165 C3157 1.433 . S
C3165 N3167 1.384 . S
N3166 C3162 1.427 . S
N3166 C3163 1.384 . S
N3167 C3159 1.427 . S
N3167 C3165 1.384 . S
H3168 C3174 0.930 . S
H3169 C3178 0.930 . S
H3170 C3183 0.929 . S
H3171 C3181 0.929 . S
H3172 C3176 0.929 . S
H3173 C3182 0.929 . S
C3174 H3168 0.930 . S
C3174 C3175 1.367 . S
C3174 C3182 1.378 . S
C3175 C3174 1.367 . S
C3175 C3183 1.433 . S
C3176 H3172 0.929 . S
C3176 C3178 1.378 . S
C3176 C3180 1.350 . S
C3177 C3180 1.463 . S
C3177 C3182 1.350 . S
C3177 N3185 1.427 . S
C3178 H3169 0.930 . S
C3178 C3176 1.378 . S
C3178 C3179 1.367 . S
C3179 C3178 1.367 . S
C3179 C3181 1.433 . S
C3180 C3176 1.350 . S
C3180 C3177 1.463 . S
C3180 N3184 1.427 . S
C3181 H3171 0.929 . S
C3181 C3179 1.433 . S
C3181 N3184 1.384 . S
C3182 H3173 0.929 . S
C3182 C3174 1.378 . S
C3182 C3177 1.350 . S
C3183 H3170 0.929 . S
C3183 C3175 1.433 . S
C3183 N3185 1.384 . S
N3184 C3180 1.427 . S
N3184 C3181 1.384 . S
N3185 C3177 1.427 . S
N3185 C3183 1.384 . S
H3186 C3192 0.930 . S
H3187 C3196 0.930 . S
H3188 C3201 0.929 . S
H3189 C3199 0.929 . S
H3190 C3194 0.929 . S
H3191 C3200 0.929 . S
C3192 H3186 0.930 . S
C3192 C3193 1.367 . S
C3192 C3200 1.378 . S
C3193 C3192 1.367 . S
C3193 C3201 1.433 . S
C3194 H3190 0.929 . S
C3194 C3196 1.378 . S
C3194 C3198 1.350 . S
C3195 C3198 1.463 . S
C3195 C3200 1.350 . S
C3195 N3203 1.427 . S
C3196 H3187 0.930 . S
C3196 C3194 1.378 . S
C3196 C3197 1.367 . S
C3197 C3196 1.367 . S
C3197 C3199 1.433 . S
C3198 C3194 1.350 . S
C3198 C3195 1.463 . S
C3198 N3202 1.427 . S
C3199 H3189 0.929 . S
C3199 C3197 1.433 . S
C3199 N3202 1.384 . S
C3200 H3191 0.929 . S
C3200 C3192 1.378 . S
C3200 C3195 1.350 . S
C3201 H3188 0.929 . S
C3201 C3193 1.433 . S
C3201 N3203 1.384 . S
N3202 C3198 1.427 . S
N3202 C3199 1.384 . S
N3203 C3195 1.427 . S
N3203 C3201 1.384 . S
H3204 C3210 0.930 . S
H3205 C3214 0.930 . S
H3206 C3219 0.929 . S
H3207 C3217 0.929 . S
H3208 C3212 0.929 . S
H3209 C3218 0.929 . S
C3210 H3204 0.930 . S
C3210 C3211 1.367 . S
C3210 C3218 1.378 . S
C3211 C3210 1.367 . S
C3211 C3219 1.433 . S
C3212 H3208 0.929 . S
C3212 C3214 1.378 . S
C3212 C3216 1.350 . S
C3213 C3216 1.463 . S
C3213 C3218 1.350 . S
C3213 N3221 1.427 . S
C3214 H3205 0.930 . S
C3214 C3212 1.378 . S
C3214 C3215 1.367 . S
C3215 C3214 1.367 . S
C3215 C3217 1.433 . S
C3216 C3212 1.350 . S
C3216 C3213 1.463 . S
C3216 N3220 1.427 . S
C3217 H3207 0.929 . S
C3217 C3215 1.433 . S
C3217 N3220 1.384 . S
C3218 H3209 0.929 . S
C3218 C3210 1.378 . S
C3218 C3213 1.350 . S
C3219 H3206 0.929 . S
C3219 C3211 1.433 . S
C3219 N3221 1.384 . S
N3220 C3216 1.427 . S
N3220 C3217 1.384 . S
N3221 C3213 1.427 . S
N3221 C3219 1.384 . S
H3222 C3228 0.930 . S
H3223 C3232 0.930 . S
H3224 C3237 0.929 . S
H3225 C3235 0.929 . S
H3226 C3230 0.929 . S
H3227 C3236 0.929 . S
C3228 H3222 0.930 . S
C3228 C3229 1.367 . S
C3228 C3236 1.378 . S
C3229 C3228 1.367 . S
C3229 C3237 1.433 . S
C3230 H3226 0.929 . S
C3230 C3232 1.378 . S
C3230 C3234 1.350 . S
C3231 C3234 1.463 . S
C3231 C3236 1.350 . S
C3231 N3239 1.427 . S
C3232 H3223 0.930 . S
C3232 C3230 1.378 . S
C3232 C3233 1.367 . S
C3233 C3232 1.367 . S
C3233 C3235 1.433 . S
C3234 C3230 1.350 . S
C3234 C3231 1.463 . S
C3234 N3238 1.427 . S
C3235 H3225 0.929 . S
C3235 C3233 1.433 . S
C3235 N3238 1.384 . S
C3236 H3227 0.929 . S
C3236 C3228 1.378 . S
C3236 C3231 1.350 . S
C3237 H3224 0.929 . S
C3237 C3229 1.433 . S
C3237 N3239 1.384 . S
N3238 C3234 1.427 . S
N3238 C3235 1.384 . S
N3239 C3231 1.427 . S
N3239 C3237 1.384 . S
H3240 C3246 0.930 . S
H3241 C3250 0.930 . S
H3242 C3255 0.929 . S
H3243 C3253 0.929 . S
H3244 C3248 0.929 . S
H3245 C3254 0.929 . S
C3246 H3240 0.930 . S
C3246 C3247 1.367 . S
C3246 C3254 1.378 . S
C3247 C3246 1.367 . S
C3247 C3255 1.433 . S
C3248 H3244 0.929 . S
C3248 C3250 1.378 . S
C3248 C3252 1.350 . S
C3249 C3252 1.463 . S
C3249 C3254 1.350 . S
C3249 N3257 1.427 . S
C3250 H3241 0.930 . S
C3250 C3248 1.378 . S
C3250 C3251 1.367 . S
C3251 C3250 1.367 . S
C3251 C3253 1.433 . S
C3252 C3248 1.350 . S
C3252 C3249 1.463 . S
C3252 N3256 1.427 . S
C3253 H3243 0.929 . S
C3253 C3251 1.433 . S
C3253 N3256 1.384 . S
C3254 H3245 0.929 . S
C3254 C3246 1.378 . S
C3254 C3249 1.350 . S
C3255 H3242 0.929 . S
C3255 C3247 1.433 . S
C3255 N3257 1.384 . S
N3256 C3252 1.427 . S
N3256 C3253 1.384 . S
N3257 C3249 1.427 . S
N3257 C3255 1.384 . S
H3258 C3264 0.930 . S
H3259 C3268 0.930 . S
H3260 C3273 0.929 . S
H3261 C3271 0.929 . S
H3262 C3266 0.929 . S
H3263 C3272 0.929 . S
C3264 H3258 0.930 . S
C3264 C3265 1.367 . S
C3264 C3272 1.378 . S
C3265 C3264 1.367 . S
C3265 C3273 1.433 . S
C3266 H3262 0.929 . S
C3266 C3268 1.378 . S
C3266 C3270 1.350 . S
C3267 C3270 1.463 . S
C3267 C3272 1.350 . S
C3267 N3275 1.427 . S
C3268 H3259 0.930 . S
C3268 C3266 1.378 . S
C3268 C3269 1.367 . S
C3269 C3268 1.367 . S
C3269 C3271 1.433 . S
C3270 C3266 1.350 . S
C3270 C3267 1.463 . S
C3270 N3274 1.427 . S
C3271 H3261 0.929 . S
C3271 C3269 1.433 . S
C3271 N3274 1.384 . S
C3272 H3263 0.929 . S
C3272 C3264 1.378 . S
C3272 C3267 1.350 . S
C3273 H3260 0.929 . S
C3273 C3265 1.433 . S
C3273 N3275 1.384 . S
N3274 C3270 1.427 . S
N3274 C3271 1.384 . S
N3275 C3267 1.427 . S
N3275 C3273 1.384 . S
H3276 C3282 0.930 . S
H3277 C3286 0.930 . S
H3278 C3291 0.929 . S
H3279 C3289 0.929 . S
H3280 C3284 0.929 . S
H3281 C3290 0.929 . S
C3282 H3276 0.930 . S
C3282 C3283 1.367 . S
C3282 C3290 1.378 . S
C3283 C3282 1.367 . S
C3283 C3291 1.433 . S
C3284 H3280 0.929 . S
C3284 C3286 1.378 . S
C3284 C3288 1.350 . S
C3285 C3288 1.463 . S
C3285 C3290 1.350 . S
C3285 N3293 1.427 . S
C3286 H3277 0.930 . S
C3286 C3284 1.378 . S
C3286 C3287 1.367 . S
C3287 C3286 1.367 . S
C3287 C3289 1.433 . S
C3288 C3284 1.350 . S
C3288 C3285 1.463 . S
C3288 N3292 1.427 . S
C3289 H3279 0.929 . S
C3289 C3287 1.433 . S
C3289 N3292 1.384 . S
C3290 H3281 0.929 . S
C3290 C3282 1.378 . S
C3290 C3285 1.350 . S
C3291 H3278 0.929 . S
C3291 C3283 1.433 . S
C3291 N3293 1.384 . S
N3292 C3288 1.427 . S
N3292 C3289 1.384 . S
N3293 C3285 1.427 . S
N3293 C3291 1.384 . S
H3294 C3300 0.930 . S
H3295 C3304 0.930 . S
H3296 C3309 0.929 . S
H3297 C3307 0.929 . S
H3298 C3302 0.929 . S
H3299 C3308 0.929 . S
C3300 H3294 0.930 . S
C3300 C3301 1.367 . S
C3300 C3308 1.378 . S
C3301 C3300 1.367 . S
C3301 C3309 1.433 . S
C3302 H3298 0.929 . S
C3302 C3304 1.378 . S
C3302 C3306 1.350 . S
C3303 C3306 1.463 . S
C3303 C3308 1.350 . S
C3303 N3311 1.427 . S
C3304 H3295 0.930 . S
C3304 C3302 1.378 . S
C3304 C3305 1.367 . S
C3305 C3304 1.367 . S
C3305 C3307 1.433 . S
C3306 C3302 1.350 . S
C3306 C3303 1.463 . S
C3306 N3310 1.427 . S
C3307 H3297 0.929 . S
C3307 C3305 1.433 . S
C3307 N3310 1.384 . S
C3308 H3299 0.929 . S
C3308 C3300 1.378 . S
C3308 C3303 1.350 . S
C3309 H3296 0.929 . S
C3309 C3301 1.433 . S
C3309 N3311 1.384 . S
N3310 C3306 1.427 . S
N3310 C3307 1.384 . S
N3311 C3303 1.427 . S
N3311 C3309 1.384 . S
H3312 C3318 0.930 . S
H3313 C3322 0.930 . S
H3314 C3327 0.929 . S
H3315 C3325 0.929 . S
H3316 C3320 0.929 . S
H3317 C3326 0.929 . S
C3318 H3312 0.930 . S
C3318 C3319 1.367 . S
C3318 C3326 1.378 . S
C3319 C3318 1.367 . S
C3319 C3327 1.433 . S
C3320 H3316 0.929 . S
C3320 C3322 1.378 . S
C3320 C3324 1.350 . S
C3321 C3324 1.463 . S
C3321 C3326 1.350 . S
C3321 N3329 1.427 . S
C3322 H3313 0.930 . S
C3322 C3320 1.378 . S
C3322 C3323 1.367 . S
C3323 C3322 1.367 . S
C3323 C3325 1.433 . S
C3324 C3320 1.350 . S
C3324 C3321 1.463 . S
C3324 N3328 1.427 . S
C3325 H3315 0.929 . S
C3325 C3323 1.433 . S
C3325 N3328 1.384 . S
C3326 H3317 0.929 . S
C3326 C3318 1.378 . S
C3326 C3321 1.350 . S
C3327 H3314 0.929 . S
C3327 C3319 1.433 . S
C3327 N3329 1.384 . S
N3328 C3324 1.427 . S
N3328 C3325 1.384 . S
N3329 C3321 1.427 . S
N3329 C3327 1.384 . S
H3330 C3336 0.930 . S
H3331 C3340 0.930 . S
H3332 C3345 0.929 . S
H3333 C3343 0.929 . S
H3334 C3338 0.929 . S
H3335 C3344 0.929 . S
C3336 H3330 0.930 . S
C3336 C3337 1.367 . S
C3336 C3344 1.378 . S
C3337 C3336 1.367 . S
C3337 C3345 1.433 . S
C3338 H3334 0.929 . S
C3338 C3340 1.378 . S
C3338 C3342 1.350 . S
C3339 C3342 1.463 . S
C3339 C3344 1.350 . S
C3339 N3347 1.427 . S
C3340 H3331 0.930 . S
C3340 C3338 1.378 . S
C3340 C3341 1.367 . S
C3341 C3340 1.367 . S
C3341 C3343 1.433 . S
C3342 C3338 1.350 . S
C3342 C3339 1.463 . S
C3342 N3346 1.427 . S
C3343 H3333 0.929 . S
C3343 C3341 1.433 . S
C3343 N3346 1.384 . S
C3344 H3335 0.929 . S
C3344 C3336 1.378 . S
C3344 C3339 1.350 . S
C3345 H3332 0.929 . S
C3345 C3337 1.433 . S
C3345 N3347 1.384 . S
N3346 C3342 1.427 . S
N3346 C3343 1.384 . S
N3347 C3339 1.427 . S
N3347 C3345 1.384 . S
H3348 C3354 0.930 . S
H3349 C3358 0.930 . S
H3350 C3363 0.929 . S
H3351 C3361 0.929 . S
H3352 C3356 0.929 . S
H3353 C3362 0.929 . S
C3354 H3348 0.930 . S
C3354 C3355 1.367 . S
C3354 C3362 1.378 . S
C3355 C3354 1.367 . S
C3355 C3363 1.433 . S
C3356 H3352 0.929 . S
C3356 C3358 1.378 . S
C3356 C3360 1.350 . S
C3357 C3360 1.463 . S
C3357 C3362 1.350 . S
C3357 N3365 1.427 . S
C3358 H3349 0.930 . S
C3358 C3356 1.378 . S
C3358 C3359 1.367 . S
C3359 C3358 1.367 . S
C3359 C3361 1.433 . S
C3360 C3356 1.350 . S
C3360 C3357 1.463 . S
C3360 N3364 1.427 . S
C3361 H3351 0.929 . S
C3361 C3359 1.433 . S
C3361 N3364 1.384 . S
C3362 H3353 0.929 . S
C3362 C3354 1.378 . S
C3362 C3357 1.350 . S
C3363 H3350 0.929 . S
C3363 C3355 1.433 . S
C3363 N3365 1.384 . S
N3364 C3360 1.427 . S
N3364 C3361 1.384 . S
N3365 C3357 1.427 . S
N3365 C3363 1.384 . S
H3366 C3372 0.930 . S
H3367 C3376 0.930 . S
H3368 C3381 0.929 . S
H3369 C3379 0.929 . S
H3370 C3374 0.929 . S
H3371 C3380 0.929 . S
C3372 H3366 0.930 . S
C3372 C3373 1.367 . S
C3372 C3380 1.378 . S
C3373 C3372 1.367 . S
C3373 C3381 1.433 . S
C3374 H3370 0.929 . S
C3374 C3376 1.378 . S
C3374 C3378 1.350 . S
C3375 C3378 1.463 . S
C3375 C3380 1.350 . S
C3375 N3383 1.427 . S
C3376 H3367 0.930 . S
C3376 C3374 1.378 . S
C3376 C3377 1.367 . S
C3377 C3376 1.367 . S
C3377 C3379 1.433 . S
C3378 C3374 1.350 . S
C3378 C3375 1.463 . S
C3378 N3382 1.427 . S
C3379 H3369 0.929 . S
C3379 C3377 1.433 . S
C3379 N3382 1.384 . S
C3380 H3371 0.929 . S
C3380 C3372 1.378 . S
C3380 C3375 1.350 . S
C3381 H3368 0.929 . S
C3381 C3373 1.433 . S
C3381 N3383 1.384 . S
N3382 C3378 1.427 . S
N3382 C3379 1.384 . S
N3383 C3375 1.427 . S
N3383 C3381 1.384 . S
H3384 C3390 0.930 . S
H3385 C3394 0.930 . S
H3386 C3399 0.929 . S
H3387 C3397 0.929 . S
H3388 C3392 0.929 . S
H3389 C3398 0.929 . S
C3390 H3384 0.930 . S
C3390 C3391 1.367 . S
C3390 C3398 1.378 . S
C3391 C3390 1.367 . S
C3391 C3399 1.433 . S
C3392 H3388 0.929 . S
C3392 C3394 1.378 . S
C3392 C3396 1.350 . S
C3393 C3396 1.463 . S
C3393 C3398 1.350 . S
C3393 N3401 1.427 . S
C3394 H3385 0.930 . S
C3394 C3392 1.378 . S
C3394 C3395 1.367 . S
C3395 C3394 1.367 . S
C3395 C3397 1.433 . S
C3396 C3392 1.350 . S
C3396 C3393 1.463 . S
C3396 N3400 1.427 . S
C3397 H3387 0.929 . S
C3397 C3395 1.433 . S
C3397 N3400 1.384 . S
C3398 H3389 0.929 . S
C3398 C3390 1.378 . S
C3398 C3393 1.350 . S
C3399 H3386 0.929 . S
C3399 C3391 1.433 . S
C3399 N3401 1.384 . S
N3400 C3396 1.427 . S
N3400 C3397 1.384 . S
N3401 C3393 1.427 . S
N3401 C3399 1.384 . S
H3402 C3408 0.930 . S
H3403 C3412 0.930 . S
H3404 C3417 0.929 . S
H3405 C3415 0.929 . S
H3406 C3410 0.929 . S
H3407 C3416 0.929 . S
C3408 H3402 0.930 . S
C3408 C3409 1.367 . S
C3408 C3416 1.378 . S
C3409 C3408 1.367 . S
C3409 C3417 1.433 . S
C3410 H3406 0.929 . S
C3410 C3412 1.378 . S
C3410 C3414 1.350 . S
C3411 C3414 1.463 . S
C3411 C3416 1.350 . S
C3411 N3419 1.427 . S
C3412 H3403 0.930 . S
C3412 C3410 1.378 . S
C3412 C3413 1.367 . S
C3413 C3412 1.367 . S
C3413 C3415 1.433 . S
C3414 C3410 1.350 . S
C3414 C3411 1.463 . S
C3414 N3418 1.427 . S
C3415 H3405 0.929 . S
C3415 C3413 1.433 . S
C3415 N3418 1.384 . S
C3416 H3407 0.929 . S
C3416 C3408 1.378 . S
C3416 C3411 1.350 . S
C3417 H3404 0.929 . S
C3417 C3409 1.433 . S
C3417 N3419 1.384 . S
N3418 C3414 1.427 . S
N3418 C3415 1.384 . S
N3419 C3411 1.427 . S
N3419 C3417 1.384 . S
H3420 C3426 0.930 . S
H3421 C3430 0.930 . S
H3422 C3435 0.929 . S
H3423 C3433 0.929 . S
H3424 C3428 0.929 . S
H3425 C3434 0.929 . S
C3426 H3420 0.930 . S
C3426 C3427 1.367 . S
C3426 C3434 1.378 . S
C3427 C3426 1.367 . S
C3427 C3435 1.433 . S
C3428 H3424 0.929 . S
C3428 C3430 1.378 . S
C3428 C3432 1.350 . S
C3429 C3432 1.463 . S
C3429 C3434 1.350 . S
C3429 N3437 1.427 . S
C3430 H3421 0.930 . S
C3430 C3428 1.378 . S
C3430 C3431 1.367 . S
C3431 C3430 1.367 . S
C3431 C3433 1.433 . S
C3432 C3428 1.350 . S
C3432 C3429 1.463 . S
C3432 N3436 1.427 . S
C3433 H3423 0.929 . S
C3433 C3431 1.433 . S
C3433 N3436 1.384 . S
C3434 H3425 0.929 . S
C3434 C3426 1.378 . S
C3434 C3429 1.350 . S
C3435 H3422 0.929 . S
C3435 C3427 1.433 . S
C3435 N3437 1.384 . S
N3436 C3432 1.427 . S
N3436 C3433 1.384 . S
N3437 C3429 1.427 . S
N3437 C3435 1.384 . S
H3438 C3444 0.930 . S
H3439 C3448 0.930 . S
H3440 C3453 0.929 . S
H3441 C3451 0.929 . S
H3442 C3446 0.929 . S
H3443 C3452 0.929 . S
C3444 H3438 0.930 . S
C3444 C3445 1.367 . S
C3444 C3452 1.378 . S
C3445 C3444 1.367 . S
C3445 C3453 1.433 . S
C3446 H3442 0.929 . S
C3446 C3448 1.378 . S
C3446 C3450 1.350 . S
C3447 C3450 1.463 . S
C3447 C3452 1.350 . S
C3447 N3455 1.427 . S
C3448 H3439 0.930 . S
C3448 C3446 1.378 . S
C3448 C3449 1.367 . S
C3449 C3448 1.367 . S
C3449 C3451 1.433 . S
C3450 C3446 1.350 . S
C3450 C3447 1.463 . S
C3450 N3454 1.427 . S
C3451 H3441 0.929 . S
C3451 C3449 1.433 . S
C3451 N3454 1.384 . S
C3452 H3443 0.929 . S
C3452 C3444 1.378 . S
C3452 C3447 1.350 . S
C3453 H3440 0.929 . S
C3453 C3445 1.433 . S
C3453 N3455 1.384 . S
N3454 C3450 1.427 . S
N3454 C3451 1.384 . S
N3455 C3447 1.427 . S
N3455 C3453 1.384 . S
H3456 C3462 0.930 . S
H3457 C3466 0.930 . S
H3458 C3471 0.929 . S
H3459 C3469 0.929 . S
H3460 C3464 0.929 . S
H3461 C3470 0.929 . S
C3462 H3456 0.930 . S
C3462 C3463 1.367 . S
C3462 C3470 1.378 . S
C3463 C3462 1.367 . S
C3463 C3471 1.433 . S
C3464 H3460 0.929 . S
C3464 C3466 1.378 . S
C3464 C3468 1.350 . S
C3465 C3468 1.463 . S
C3465 C3470 1.350 . S
C3465 N3473 1.427 . S
C3466 H3457 0.930 . S
C3466 C3464 1.378 . S
C3466 C3467 1.367 . S
C3467 C3466 1.367 . S
C3467 C3469 1.433 . S
C3468 C3464 1.350 . S
C3468 C3465 1.463 . S
C3468 N3472 1.427 . S
C3469 H3459 0.929 . S
C3469 C3467 1.433 . S
C3469 N3472 1.384 . S
C3470 H3461 0.929 . S
C3470 C3462 1.378 . S
C3470 C3465 1.350 . S
C3471 H3458 0.929 . S
C3471 C3463 1.433 . S
C3471 N3473 1.384 . S
N3472 C3468 1.427 . S
N3472 C3469 1.384 . S
N3473 C3465 1.427 . S
N3473 C3471 1.384 . S
H3474 C3480 0.930 . S
H3475 C3484 0.930 . S
H3476 C3489 0.929 . S
H3477 C3487 0.929 . S
H3478 C3482 0.929 . S
H3479 C3488 0.929 . S
C3480 H3474 0.930 . S
C3480 C3481 1.367 . S
C3480 C3488 1.378 . S
C3481 C3480 1.367 . S
C3481 C3489 1.433 . S
C3482 H3478 0.929 . S
C3482 C3484 1.378 . S
C3482 C3486 1.350 . S
C3483 C3486 1.463 . S
C3483 C3488 1.350 . S
C3483 N3491 1.427 . S
C3484 H3475 0.930 . S
C3484 C3482 1.378 . S
C3484 C3485 1.367 . S
C3485 C3484 1.367 . S
C3485 C3487 1.433 . S
C3486 C3482 1.350 . S
C3486 C3483 1.463 . S
C3486 N3490 1.427 . S
C3487 H3477 0.929 . S
C3487 C3485 1.433 . S
C3487 N3490 1.384 . S
C3488 H3479 0.929 . S
C3488 C3480 1.378 . S
C3488 C3483 1.350 . S
C3489 H3476 0.929 . S
C3489 C3481 1.433 . S
C3489 N3491 1.384 . S
N3490 C3486 1.427 . S
N3490 C3487 1.384 . S
N3491 C3483 1.427 . S
N3491 C3489 1.384 . S
H3492 C3498 0.930 . S
H3493 C3502 0.930 . S
H3494 C3507 0.929 . S
H3495 C3505 0.929 . S
H3496 C3500 0.929 . S
H3497 C3506 0.929 . S
C3498 H3492 0.930 . S
C3498 C3499 1.367 . S
C3498 C3506 1.378 . S
C3499 C3498 1.367 . S
C3499 C3507 1.433 . S
C3500 H3496 0.929 . S
C3500 C3502 1.378 . S
C3500 C3504 1.350 . S
C3501 C3504 1.463 . S
C3501 C3506 1.350 . S
C3501 N3509 1.427 . S
C3502 H3493 0.930 . S
C3502 C3500 1.378 . S
C3502 C3503 1.367 . S
C3503 C3502 1.367 . S
C3503 C3505 1.433 . S
C3504 C3500 1.350 . S
C3504 C3501 1.463 . S
C3504 N3508 1.427 . S
C3505 H3495 0.929 . S
C3505 C3503 1.433 . S
C3505 N3508 1.384 . S
C3506 H3497 0.929 . S
C3506 C3498 1.378 . S
C3506 C3501 1.350 . S
C3507 H3494 0.929 . S
C3507 C3499 1.433 . S
C3507 N3509 1.384 . S
N3508 C3504 1.427 . S
N3508 C3505 1.384 . S
N3509 C3501 1.427 . S
N3509 C3507 1.384 . S
H3510 C3516 0.930 . S
H3511 C3520 0.930 . S
H3512 C3525 0.929 . S
H3513 C3523 0.929 . S
H3514 C3518 0.929 . S
H3515 C3524 0.929 . S
C3516 H3510 0.930 . S
C3516 C3517 1.367 . S
C3516 C3524 1.378 . S
C3517 C3516 1.367 . S
C3517 C3525 1.433 . S
C3518 H3514 0.929 . S
C3518 C3520 1.378 . S
C3518 C3522 1.350 . S
C3519 C3522 1.463 . S
C3519 C3524 1.350 . S
C3519 N3527 1.427 . S
C3520 H3511 0.930 . S
C3520 C3518 1.378 . S
C3520 C3521 1.367 . S
C3521 C3520 1.367 . S
C3521 C3523 1.433 . S
C3522 C3518 1.350 . S
C3522 C3519 1.463 . S
C3522 N3526 1.427 . S
C3523 H3513 0.929 . S
C3523 C3521 1.433 . S
C3523 N3526 1.384 . S
C3524 H3515 0.929 . S
C3524 C3516 1.378 . S
C3524 C3519 1.350 . S
C3525 H3512 0.929 . S
C3525 C3517 1.433 . S
C3525 N3527 1.384 . S
N3526 C3522 1.427 . S
N3526 C3523 1.384 . S
N3527 C3519 1.427 . S
N3527 C3525 1.384 . S
H3528 C3534 0.930 . S
H3529 C3538 0.930 . S
H3530 C3543 0.929 . S
H3531 C3541 0.929 . S
H3532 C3536 0.929 . S
H3533 C3542 0.929 . S
C3534 H3528 0.930 . S
C3534 C3535 1.367 . S
C3534 C3542 1.378 . S
C3535 C3534 1.367 . S
C3535 C3543 1.433 . S
C3536 H3532 0.929 . S
C3536 C3538 1.378 . S
C3536 C3540 1.350 . S
C3537 C3540 1.463 . S
C3537 C3542 1.350 . S
C3537 N3545 1.427 . S
C3538 H3529 0.930 . S
C3538 C3536 1.378 . S
C3538 C3539 1.367 . S
C3539 C3538 1.367 . S
C3539 C3541 1.433 . S
C3540 C3536 1.350 . S
C3540 C3537 1.463 . S
C3540 N3544 1.427 . S
C3541 H3531 0.929 . S
C3541 C3539 1.433 . S
C3541 N3544 1.384 . S
C3542 H3533 0.929 . S
C3542 C3534 1.378 . S
C3542 C3537 1.350 . S
C3543 H3530 0.929 . S
C3543 C3535 1.433 . S
C3543 N3545 1.384 . S
N3544 C3540 1.427 . S
N3544 C3541 1.384 . S
N3545 C3537 1.427 . S
N3545 C3543 1.384 . S
H3546 C3552 0.930 . S
H3547 C3556 0.930 . S
H3548 C3561 0.929 . S
H3549 C3559 0.929 . S
H3550 C3554 0.929 . S
H3551 C3560 0.929 . S
C3552 H3546 0.930 . S
C3552 C3553 1.367 . S
C3552 C3560 1.378 . S
C3553 C3552 1.367 . S
C3553 C3561 1.433 . S
C3554 H3550 0.929 . S
C3554 C3556 1.378 . S
C3554 C3558 1.350 . S
C3555 C3558 1.463 . S
C3555 C3560 1.350 . S
C3555 N3563 1.427 . S
C3556 H3547 0.930 . S
C3556 C3554 1.378 . S
C3556 C3557 1.367 . S
C3557 C3556 1.367 . S
C3557 C3559 1.433 . S
C3558 C3554 1.350 . S
C3558 C3555 1.463 . S
C3558 N3562 1.427 . S
C3559 H3549 0.929 . S
C3559 C3557 1.433 . S
C3559 N3562 1.384 . S
C3560 H3551 0.929 . S
C3560 C3552 1.378 . S
C3560 C3555 1.350 . S
C3561 H3548 0.929 . S
C3561 C3553 1.433 . S
C3561 N3563 1.384 . S
N3562 C3558 1.427 . S
N3562 C3559 1.384 . S
N3563 C3555 1.427 . S
N3563 C3561 1.384 . S
H3564 C3570 0.930 . S
H3565 C3574 0.930 . S
H3566 C3579 0.929 . S
H3567 C3577 0.929 . S
H3568 C3572 0.929 . S
H3569 C3578 0.929 . S
C3570 H3564 0.930 . S
C3570 C3571 1.367 . S
C3570 C3578 1.378 . S
C3571 C3570 1.367 . S
C3571 C3579 1.433 . S
C3572 H3568 0.929 . S
C3572 C3574 1.378 . S
C3572 C3576 1.350 . S
C3573 C3576 1.463 . S
C3573 C3578 1.350 . S
C3573 N3581 1.427 . S
C3574 H3565 0.930 . S
C3574 C3572 1.378 . S
C3574 C3575 1.367 . S
C3575 C3574 1.367 . S
C3575 C3577 1.433 . S
C3576 C3572 1.350 . S
C3576 C3573 1.463 . S
C3576 N3580 1.427 . S
C3577 H3567 0.929 . S
C3577 C3575 1.433 . S
C3577 N3580 1.384 . S
C3578 H3569 0.929 . S
C3578 C3570 1.378 . S
C3578 C3573 1.350 . S
C3579 H3566 0.929 . S
C3579 C3571 1.433 . S
C3579 N3581 1.384 . S
N3580 C3576 1.427 . S
N3580 C3577 1.384 . S
N3581 C3573 1.427 . S
N3581 C3579 1.384 . S
H3582 C3588 0.930 . S
H3583 C3592 0.930 . S
H3584 C3597 0.929 . S
H3585 C3595 0.929 . S
H3586 C3590 0.929 . S
H3587 C3596 0.929 . S
C3588 H3582 0.930 . S
C3588 C3589 1.367 . S
C3588 C3596 1.378 . S
C3589 C3588 1.367 . S
C3589 C3597 1.433 . S
C3590 H3586 0.929 . S
C3590 C3592 1.378 . S
C3590 C3594 1.350 . S
C3591 C3594 1.463 . S
C3591 C3596 1.350 . S
C3591 N3599 1.427 . S
C3592 H3583 0.930 . S
C3592 C3590 1.378 . S
C3592 C3593 1.367 . S
C3593 C3592 1.367 . S
C3593 C3595 1.433 . S
C3594 C3590 1.350 . S
C3594 C3591 1.463 . S
C3594 N3598 1.427 . S
C3595 H3585 0.929 . S
C3595 C3593 1.433 . S
C3595 N3598 1.384 . S
C3596 H3587 0.929 . S
C3596 C3588 1.378 . S
C3596 C3591 1.350 . S
C3597 H3584 0.929 . S
C3597 C3589 1.433 . S
C3597 N3599 1.384 . S
N3598 C3594 1.427 . S
N3598 C3595 1.384 . S
N3599 C3591 1.427 . S
N3599 C3597 1.384 . S
H3600 C3606 0.930 . S
H3601 C3610 0.930 . S
H3602 C3615 0.929 . S
H3603 C3613 0.929 . S
H3604 C3608 0.929 . S
H3605 C3614 0.929 . S
C3606 H3600 0.930 . S
C3606 C3607 1.367 . S
C3606 C3614 1.378 . S
C3607 C3606 1.367 . S
C3607 C3615 1.433 . S
C3608 H3604 0.929 . S
C3608 C3610 1.378 . S
C3608 C3612 1.350 . S
C3609 C3612 1.463 . S
C3609 C3614 1.350 . S
C3609 N3617 1.427 . S
C3610 H3601 0.930 . S
C3610 C3608 1.378 . S
C3610 C3611 1.367 . S
C3611 C3610 1.367 . S
C3611 C3613 1.433 . S
C3612 C3608 1.350 . S
C3612 C3609 1.463 . S
C3612 N3616 1.427 . S
C3613 H3603 0.929 . S
C3613 C3611 1.433 . S
C3613 N3616 1.384 . S
C3614 H3605 0.929 . S
C3614 C3606 1.378 . S
C3614 C3609 1.350 . S
C3615 H3602 0.929 . S
C3615 C3607 1.433 . S
C3615 N3617 1.384 . S
N3616 C3612 1.427 . S
N3616 C3613 1.384 . S
N3617 C3609 1.427 . S
N3617 C3615 1.384 . S
H3618 C3624 0.930 . S
H3619 C3628 0.930 . S
H3620 C3633 0.929 . S
H3621 C3631 0.929 . S
H3622 C3626 0.929 . S
H3623 C3632 0.929 . S
C3624 H3618 0.930 . S
C3624 C3625 1.367 . S
C3624 C3632 1.378 . S
C3625 C3624 1.367 . S
C3625 C3633 1.433 . S
C3626 H3622 0.929 . S
C3626 C3628 1.378 . S
C3626 C3630 1.350 . S
C3627 C3630 1.463 . S
C3627 C3632 1.350 . S
C3627 N3635 1.427 . S
C3628 H3619 0.930 . S
C3628 C3626 1.378 . S
C3628 C3629 1.367 . S
C3629 C3628 1.367 . S
C3629 C3631 1.433 . S
C3630 C3626 1.350 . S
C3630 C3627 1.463 . S
C3630 N3634 1.427 . S
C3631 H3621 0.929 . S
C3631 C3629 1.433 . S
C3631 N3634 1.384 . S
C3632 H3623 0.929 . S
C3632 C3624 1.378 . S
C3632 C3627 1.350 . S
C3633 H3620 0.929 . S
C3633 C3625 1.433 . S
C3633 N3635 1.384 . S
N3634 C3630 1.427 . S
N3634 C3631 1.384 . S
N3635 C3627 1.427 . S
N3635 C3633 1.384 . S
H3636 C3642 0.930 . S
H3637 C3646 0.930 . S
H3638 C3651 0.929 . S
H3639 C3649 0.929 . S
H3640 C3644 0.929 . S
H3641 C3650 0.929 . S
C3642 H3636 0.930 . S
C3642 C3643 1.367 . S
C3642 C3650 1.378 . S
C3643 C3642 1.367 . S
C3643 C3651 1.433 . S
C3644 H3640 0.929 . S
C3644 C3646 1.378 . S
C3644 C3648 1.350 . S
C3645 C3648 1.463 . S
C3645 C3650 1.350 . S
C3645 N3653 1.427 . S
C3646 H3637 0.930 . S
C3646 C3644 1.378 . S
C3646 C3647 1.367 . S
C3647 C3646 1.367 . S
C3647 C3649 1.433 . S
C3648 C3644 1.350 . S
C3648 C3645 1.463 . S
C3648 N3652 1.427 . S
C3649 H3639 0.929 . S
C3649 C3647 1.433 . S
C3649 N3652 1.384 . S
C3650 H3641 0.929 . S
C3650 C3642 1.378 . S
C3650 C3645 1.350 . S
C3651 H3638 0.929 . S
C3651 C3643 1.433 . S
C3651 N3653 1.384 . S
N3652 C3648 1.427 . S
N3652 C3649 1.384 . S
N3653 C3645 1.427 . S
N3653 C3651 1.384 . S
H3654 C3660 0.930 . S
H3655 C3664 0.930 . S
H3656 C3669 0.929 . S
H3657 C3667 0.929 . S
H3658 C3662 0.929 . S
H3659 C3668 0.929 . S
C3660 H3654 0.930 . S
C3660 C3661 1.367 . S
C3660 C3668 1.378 . S
C3661 C3660 1.367 . S
C3661 C3669 1.433 . S
C3662 H3658 0.929 . S
C3662 C3664 1.378 . S
C3662 C3666 1.350 . S
C3663 C3666 1.463 . S
C3663 C3668 1.350 . S
C3663 N3671 1.427 . S
C3664 H3655 0.930 . S
C3664 C3662 1.378 . S
C3664 C3665 1.367 . S
C3665 C3664 1.367 . S
C3665 C3667 1.433 . S
C3666 C3662 1.350 . S
C3666 C3663 1.463 . S
C3666 N3670 1.427 . S
C3667 H3657 0.929 . S
C3667 C3665 1.433 . S
C3667 N3670 1.384 . S
C3668 H3659 0.929 . S
C3668 C3660 1.378 . S
C3668 C3663 1.350 . S
C3669 H3656 0.929 . S
C3669 C3661 1.433 . S
C3669 N3671 1.384 . S
N3670 C3666 1.427 . S
N3670 C3667 1.384 . S
N3671 C3663 1.427 . S
N3671 C3669 1.384 . S
H3672 C3678 0.930 . S
H3673 C3682 0.930 . S
H3674 C3687 0.929 . S
H3675 C3685 0.929 . S
H3676 C3680 0.929 . S
H3677 C3686 0.929 . S
C3678 H3672 0.930 . S
C3678 C3679 1.367 . S
C3678 C3686 1.378 . S
C3679 C3678 1.367 . S
C3679 C3687 1.433 . S
C3680 H3676 0.929 . S
C3680 C3682 1.378 . S
C3680 C3684 1.350 . S
C3681 C3684 1.463 . S
C3681 C3686 1.350 . S
C3681 N3689 1.427 . S
C3682 H3673 0.930 . S
C3682 C3680 1.378 . S
C3682 C3683 1.367 . S
C3683 C3682 1.367 . S
C3683 C3685 1.433 . S
C3684 C3680 1.350 . S
C3684 C3681 1.463 . S
C3684 N3688 1.427 . S
C3685 H3675 0.929 . S
C3685 C3683 1.433 . S
C3685 N3688 1.384 . S
C3686 H3677 0.929 . S
C3686 C3678 1.378 . S
C3686 C3681 1.350 . S
C3687 H3674 0.929 . S
C3687 C3679 1.433 . S
C3687 N3689 1.384 . S
N3688 C3684 1.427 . S
N3688 C3685 1.384 . S
N3689 C3681 1.427 . S
N3689 C3687 1.384 . S
H3690 C3696 0.930 . S
H3691 C3700 0.930 . S
H3692 C3705 0.929 . S
H3693 C3703 0.929 . S
H3694 C3698 0.929 . S
H3695 C3704 0.929 . S
C3696 H3690 0.930 . S
C3696 C3697 1.367 . S
C3696 C3704 1.378 . S
C3697 C3696 1.367 . S
C3697 C3705 1.433 . S
C3698 H3694 0.929 . S
C3698 C3700 1.378 . S
C3698 C3702 1.350 . S
C3699 C3702 1.463 . S
C3699 C3704 1.350 . S
C3699 N3707 1.427 . S
C3700 H3691 0.930 . S
C3700 C3698 1.378 . S
C3700 C3701 1.367 . S
C3701 C3700 1.367 . S
C3701 C3703 1.433 . S
C3702 C3698 1.350 . S
C3702 C3699 1.463 . S
C3702 N3706 1.427 . S
C3703 H3693 0.929 . S
C3703 C3701 1.433 . S
C3703 N3706 1.384 . S
C3704 H3695 0.929 . S
C3704 C3696 1.378 . S
C3704 C3699 1.350 . S
C3705 H3692 0.929 . S
C3705 C3697 1.433 . S
C3705 N3707 1.384 . S
N3706 C3702 1.427 . S
N3706 C3703 1.384 . S
N3707 C3699 1.427 . S
N3707 C3705 1.384 . S
H3708 C3714 0.930 . S
H3709 C3718 0.930 . S
H3710 C3723 0.929 . S
H3711 C3721 0.929 . S
H3712 C3716 0.929 . S
H3713 C3722 0.929 . S
C3714 H3708 0.930 . S
C3714 C3715 1.367 . S
C3714 C3722 1.378 . S
C3715 C3714 1.367 . S
C3715 C3723 1.433 . S
C3716 H3712 0.929 . S
C3716 C3718 1.378 . S
C3716 C3720 1.350 . S
C3717 C3720 1.463 . S
C3717 C3722 1.350 . S
C3717 N3725 1.427 . S
C3718 H3709 0.930 . S
C3718 C3716 1.378 . S
C3718 C3719 1.367 . S
C3719 C3718 1.367 . S
C3719 C3721 1.433 . S
C3720 C3716 1.350 . S
C3720 C3717 1.463 . S
C3720 N3724 1.427 . S
C3721 H3711 0.929 . S
C3721 C3719 1.433 . S
C3721 N3724 1.384 . S
C3722 H3713 0.929 . S
C3722 C3714 1.378 . S
C3722 C3717 1.350 . S
C3723 H3710 0.929 . S
C3723 C3715 1.433 . S
C3723 N3725 1.384 . S
N3724 C3720 1.427 . S
N3724 C3721 1.384 . S
N3725 C3717 1.427 . S
N3725 C3723 1.384 . S
H3726 C3732 0.930 . S
H3727 C3736 0.930 . S
H3728 C3741 0.929 . S
H3729 C3739 0.929 . S
H3730 C3734 0.929 . S
H3731 C3740 0.929 . S
C3732 H3726 0.930 . S
C3732 C3733 1.367 . S
C3732 C3740 1.378 . S
C3733 C3732 1.367 . S
C3733 C3741 1.433 . S
C3734 H3730 0.929 . S
C3734 C3736 1.378 . S
C3734 C3738 1.350 . S
C3735 C3738 1.463 . S
C3735 C3740 1.350 . S
C3735 N3743 1.427 . S
C3736 H3727 0.930 . S
C3736 C3734 1.378 . S
C3736 C3737 1.367 . S
C3737 C3736 1.367 . S
C3737 C3739 1.433 . S
C3738 C3734 1.350 . S
C3738 C3735 1.463 . S
C3738 N3742 1.427 . S
C3739 H3729 0.929 . S
C3739 C3737 1.433 . S
C3739 N3742 1.384 . S
C3740 H3731 0.929 . S
C3740 C3732 1.378 . S
C3740 C3735 1.350 . S
C3741 H3728 0.929 . S
C3741 C3733 1.433 . S
C3741 N3743 1.384 . S
N3742 C3738 1.427 . S
N3742 C3739 1.384 . S
N3743 C3735 1.427 . S
N3743 C3741 1.384 . S
C1591 C1044 1.251 . S
C1595 C21 1.252 . S
C1609 C54 1.235 . S
C1613 C945 1.238 . S
C1627 C87 1.233 . S
C1631 C978 1.242 . S
C1645 C1011 1.253 . S
C1649 C120 1.239 . S
C1663 C846 1.245 . S
C1667 C153 1.254 . S
C1681 C879 1.234 . S
C1685 C186 1.247 . S
C1699 C219 1.240 . S
C1703 C912 1.254 . S
C1717 C252 1.242 . S
C1721 C813 1.233 . S
C1735 C285 1.252 . S
C1739 C1473 1.238 . S
C1753 C318 1.244 . S
C1757 C1374 1.254 . S
C1771 C351 1.249 . S
C1775 C1407 1.235 . S
C1789 C384 1.235 . S
C1793 C1440 1.250 . S
C1807 C1572 1.235 . S
C1811 C417 1.238 . S
C1825 C450 1.239 . S
C1829 C1506 1.253 . S
C1843 C483 1.235 . S
C1847 C1539 1.238 . S
C1861 C1341 1.234 . S
C1865 C516 1.240 . S
C1879 C549 1.249 . S
C1883 C1308 1.253 . S
C1897 C1110 1.245 . S
C1901 C582 1.233 . S
C1915 C1143 1.253 . S
C1919 C615 1.239 . S
C1933 C1176 1.241 . S
C1937 C648 1.234 . S
C1951 C681 1.252 . S
C1955 C1077 1.238 . S
C1969 C714 1.248 . S
C1973 C1242 1.253 . S
C1987 C1275 1.253 . S
C1991 C747 1.240 . S
C2005 C780 1.249 . S
C2009 C1209 1.235 . S
C2023 C73 1.088 . S
C2027 C7 1.085 . S
C2041 C40 1.085 . S
C2045 C106 1.088 . S
C2059 C205 1.088 . S
C2063 C139 1.086 . S
C2077 C238 1.085 . S
C2081 C172 1.088 . S
C2095 C271 1.085 . S
C2099 C403 1.088 . S
C2113 C436 1.086 . S
C2117 C304 1.088 . S
C2131 C469 1.088 . S
C2135 C337 1.085 . S
C2149 C502 1.085 . S
C2153 C370 1.087 . S
C2167 C634 1.085 . S
C2171 C535 1.087 . S
C2185 C568 1.085 . S
C2189 C700 1.088 . S
C2203 C601 1.088 . S
C2207 C733 1.085 . S
C2221 C667 1.086 . S
C2225 C766 1.088 . S
C2239 C865 1.085 . S
C2243 C799 1.088 . S
C2257 C898 1.088 . S
C2261 C832 1.085 . S
C2275 C997 1.088 . S
C2279 C931 1.086 . S
C2293 C1030 1.088 . S
C2297 C964 1.085 . S
C2311 C1063 1.086 . S
C2315 C1195 1.088 . S
C2329 C1096 1.088 . S
C2333 C1228 1.086 . S
C2347 C1261 1.085 . S
C2351 C1129 1.088 . S
C2365 C1294 1.085 . S
C2369 C1162 1.087 . S
C2383 C1327 1.086 . S
C2387 C1426 1.088 . S
C2401 C1492 1.087 . S
C2405 C1360 1.086 . S
C2419 C1525 1.087 . S
C2423 C1393 1.085 . S
C2437 C1558 1.088 . S
C2441 C1459 1.085 . S
C2455 N739 0.735 . S
C2459 N13 0.743 . S
C2473 N46 0.719 . S
C2477 N541 0.697 . S
C2491 N79 0.740 . S
C2495 N772 0.715 . S
C2509 N112 0.743 . S
C2513 N706 0.735 . S
C2527 N145 0.731 . S
C2531 N607 0.744 . S
C2545 N640 0.719 . S
C2549 N178 0.743 . S
C2563 N211 0.743 . S
C2567 N673 0.736 . S
C2581 N244 0.741 . S
C2585 N574 0.717 . S
C2599 N277 0.740 . S
C2603 N442 0.740 . S
C2617 N475 0.697 . S
C2621 N310 0.716 . S
C2635 N508 0.709 . S
C2639 N343 0.736 . S
C2653 N409 0.702 . S
C2657 N376 0.729 . S
C2671 N805 0.743 . S
C2675 N1531 0.735 . S
C2689 N1333 0.703 . S
C2693 N838 0.731 . S
C2707 N1564 0.705 . S
C2711 N871 0.698 . S
C2725 N904 0.734 . S
C2729 N1498 0.706 . S
C2743 N1399 0.709 . S
C2747 N937 0.697 . S
C2761 N1432 0.736 . S
C2765 N970 0.743 . S
C2779 N1465 0.696 . S
C2783 N1003 0.714 . S
C2797 N1036 0.744 . S
C2801 N1366 0.727 . S
C2815 N1069 0.697 . S
C2819 N1234 0.710 . S
C2833 N1102 0.711 . S
C2837 N1267 0.696 . S
C2851 N1300 0.722 . S
C2855 N1135 0.744 . S
C2869 N1201 0.713 . S
C2873 N1168 0.739 . S
C2887 C18 2.089 . S
C2891 N596 1.924 1_554 S
C2905 N629 1.921 1_554 S
C2909 C51 2.090 . S
C2923 C84 2.090 . S
C2927 N662 1.921 1_554 S
C2941 N563 1.926 1_554 S
C2945 C117 2.089 . S
C2959 C150 2.084 . S
C2963 N728 1.921 1_556 S
C2977 N530 1.920 1_556 S
C2981 C183 2.090 . S
C2995 N761 1.912 1_556 S
C2999 C216 2.087 . S
C3013 C249 2.087 . S
C3017 N695 1.912 1_556 S
C3031 N299 1.914 1_455 S
C3035 C282 2.088 . S
C3049 C315 2.084 . S
C3053 N332 1.921 1_545 S
C3067 C348 2.085 . S
C3071 N365 1.916 1_655 S
C3085 N266 1.914 1_565 S
C3089 C381 2.089 . S
C3103 C414 2.084 . S
C3107 N497 1.920 1_455 S
C3121 C447 2.087 . S
C3125 N398 1.929 1_545 S
C3139 C480 2.090 . S
C3143 N431 1.923 1_655 S
C3157 N464 1.915 1_565 S
C3161 C513 2.089 . S
C3175 N101 1.913 1_545 S
C3179 C546 2.088 . S
C3193 C579 2.088 . S
C3197 N167 1.913 1_565 S
C3211 N200 1.929 1_455 S
C3215 C612 2.086 . S
C3229 N233 1.917 1_545 S
C3233 C645 2.089 . S
C3247 C678 2.089 . S
C3251 N134 1.927 1_655 S
C3265 N35 1.923 1_565 S
C3269 C711 2.090 . S
C3283 C744 2.084 . S
C3287 N68 1.924 1_455 S
C3301 N2 1.929 1_655 S
C3305 C777 2.086 . S
C3319 C810 2.089 . S
C3323 N1388 1.917 . S
C3337 N1421 1.926 . S
C3341 C843 2.089 . S
C3355 C876 2.089 . S
C3359 N1454 1.925 . S
C3373 N1355 1.917 . S
C3377 C909 2.084 . S
C3391 C942 2.090 . S
C3395 N1520 1.923 . S
C3409 C975 2.086 . S
C3413 N1322 1.929 . S
C3427 C1008 2.085 . S
C3431 N1553 1.915 . S
C3445 N1487 1.917 . S
C3449 C1041 2.084 . S
C3463 C1074 2.084 . S
C3467 N1091 1.923 . S
C3481 N1124 1.913 . S
C3485 C1107 2.088 . S
C3499 N1157 1.914 . S
C3503 C1140 2.088 . S
C3517 C1173 2.089 . S
C3521 N1058 1.926 . S
C3535 C1206 2.084 . S
C3539 N1289 1.922 . S
C3553 C1239 2.090 . S
C3557 N1190 1.922 . S
C3571 C1272 2.090 . S
C3575 N1223 1.922 . S
C3589 C1305 2.089 . S
C3593 N1256 1.924 . S
C3607 C1338 2.089 . S
C3611 N893 1.915 . S
C3625 N959 1.924 . S
C3629 C1371 2.089 . S
C3643 N992 1.917 . S
C3647 C1404 2.089 . S
C3661 N1025 1.922 . S
C3665 C1437 2.090 . S
C3679 N926 1.922 . S
C3683 C1470 2.084 . S
C3697 N827 1.914 . S
C3701 C1503 2.085 . S
C3715 N860 1.921 . S
C3719 C1536 2.090 . S
C3733 N794 1.915 . S
C3737 C1569 2.089 . S
