# Generated by pormake.
# Topology fna, (5)-cn, num edge types: 1
# Building blocks:
#     Node 0, Type 0, BuildingBlock: XOMCOT_clean_sbu_1, # of connection points: 5
#     Node 1, Type 0, BuildingBlock: XOMCOT_clean_sbu_1, # of connection points: 5
#     Node 2, Type 0, BuildingBlock: XOMCOT_clean_sbu_1, # of connection points: 5
#     Node 3, Type 0, BuildingBlock: XOMCOT_clean_sbu_1, # of connection points: 5
#     Node 4, Type 0, BuildingBlock: XOMCOT_clean_sbu_1, # of connection points: 5
#     Node 5, Type 0, BuildingBlock: XOMCOT_clean_sbu_1, # of connection points: 5
#     Node 6, Type 0, BuildingBlock: XOMCOT_clean_sbu_1, # of connection points: 5
#     Node 7, Type 0, BuildingBlock: XOMCOT_clean_sbu_1, # of connection points: 5
#     Node 8, Type 0, BuildingBlock: XOMCOT_clean_sbu_1, # of connection points: 5
#     Node 9, Type 0, BuildingBlock: XOMCOT_clean_sbu_1, # of connection points: 5
#     Node 10, Type 0, BuildingBlock: XOMCOT_clean_sbu_1, # of connection points: 5
#     Node 11, Type 0, BuildingBlock: XOMCOT_clean_sbu_1, # of connection points: 5
#     Edge 12, Type (0, 0), BuildingBlock: MIFKUJ_clean_linker_0, # of connection points: 2
#     Edge 13, Type (0, 0), BuildingBlock: MIFKUJ_clean_linker_0, # of connection points: 2
#     Edge 14, Type (0, 0), BuildingBlock: MIFKUJ_clean_linker_0, # of connection points: 2
#     Edge 15, Type (0, 0), BuildingBlock: MIFKUJ_clean_linker_0, # of connection points: 2
#     Edge 16, Type (0, 0), BuildingBlock: MIFKUJ_clean_linker_0, # of connection points: 2
#     Edge 17, Type (0, 0), BuildingBlock: MIFKUJ_clean_linker_0, # of connection points: 2
#     Edge 18, Type (0, 0), BuildingBlock: MIFKUJ_clean_linker_0, # of connection points: 2
#     Edge 19, Type (0, 0), BuildingBlock: MIFKUJ_clean_linker_0, # of connection points: 2
#     Edge 20, Type (0, 0), BuildingBlock: MIFKUJ_clean_linker_0, # of connection points: 2
#     Edge 21, Type (0, 0), BuildingBlock: MIFKUJ_clean_linker_0, # of connection points: 2
#     Edge 22, Type (0, 0), BuildingBlock: MIFKUJ_clean_linker_0, # of connection points: 2
#     Edge 23, Type (0, 0), BuildingBlock: MIFKUJ_clean_linker_0, # of connection points: 2
#     Edge 24, Type (0, 0), BuildingBlock: MIFKUJ_clean_linker_0, # of connection points: 2
#     Edge 25, Type (0, 0), BuildingBlock: MIFKUJ_clean_linker_0, # of connection points: 2
#     Edge 26, Type (0, 0), BuildingBlock: MIFKUJ_clean_linker_0, # of connection points: 2
#     Edge 27, Type (0, 0), BuildingBlock: MIFKUJ_clean_linker_0, # of connection points: 2
#     Edge 28, Type (0, 0), BuildingBlock: MIFKUJ_clean_linker_0, # of connection points: 2
#     Edge 29, Type (0, 0), BuildingBlock: MIFKUJ_clean_linker_0, # of connection points: 2
#     Edge 30, Type (0, 0), BuildingBlock: MIFKUJ_clean_linker_0, # of connection points: 2
#     Edge 31, Type (0, 0), BuildingBlock: MIFKUJ_clean_linker_0, # of connection points: 2
#     Edge 32, Type (0, 0), BuildingBlock: MIFKUJ_clean_linker_0, # of connection points: 2
#     Edge 33, Type (0, 0), BuildingBlock: MIFKUJ_clean_linker_0, # of connection points: 2
#     Edge 34, Type (0, 0), BuildingBlock: MIFKUJ_clean_linker_0, # of connection points: 2
#     Edge 35, Type (0, 0), BuildingBlock: MIFKUJ_clean_linker_0, # of connection points: 2
#     Edge 36, Type (0, 0), BuildingBlock: MIFKUJ_clean_linker_0, # of connection points: 2
#     Edge 37, Type (0, 0), BuildingBlock: MIFKUJ_clean_linker_0, # of connection points: 2
#     Edge 38, Type (0, 0), BuildingBlock: MIFKUJ_clean_linker_0, # of connection points: 2
#     Edge 39, Type (0, 0), BuildingBlock: MIFKUJ_clean_linker_0, # of connection points: 2
#     Edge 40, Type (0, 0), BuildingBlock: MIFKUJ_clean_linker_0, # of connection points: 2
#     Edge 41, Type (0, 0), BuildingBlock: MIFKUJ_clean_linker_0, # of connection points: 2
# Relax obj value: 0.383
# Max RMSD: 0.207
# Mean RMSD: 0.207
data_MOF--net-fna--node1-XOMCOT_clean_sbu_1--edge1-MIFKUJ_clean_linker_0
_symmetry_space_group_name_H-M    P1
_symmetry_Int_Tables_number       1
_symmetry_cell_setting            triclinic
loop_
_symmetry_equiv_pos_as_xyz
'x, y, z'
_cell_length_a     59.045753
_cell_length_b     59.057951
_cell_length_c     52.417687
_cell_angle_alpha  89.983909
_cell_angle_beta   90.013208
_cell_angle_gamma 119.9812
loop_
_atom_site_label
_atom_site_type_symbol
_atom_site_fract_x
_atom_site_fract_y
_atom_site_fract_z
_atom_type_partial_charge
C0 C 0.37113 0.32403 0.49394 0.0
C1 C 0.37291 0.3312 0.51919 0.0
N2 N 0.34957 0.3157 0.53021 0.0
N3 N 0.34659 0.30452 0.48911 0.0
C4 C 0.33403 0.29977 0.51167 0.0
H5 H 0.38683 0.33221 0.48012 0.0
Co6 Co 0.33294 0.28572 0.45908 0.0
C7 C 0.28537 0.2923 0.45287 0.0
O8 O 0.28948 0.29871 0.42867 0.0
N9 N 0.31946 0.26592 0.4287 0.0
C10 C 0.30914 0.25313 0.38824 0.0
C11 C 0.3157 0.27318 0.40531 0.0
C12 C 0.31525 0.24139 0.42506 0.0
N13 N 0.30892 0.23312 0.40073 0.0
O14 O 0.31819 0.25426 0.47869 0.0
H15 H 0.3191 0.29238 0.40035 0.0
H16 H 0.31831 0.23022 0.43957 0.0
O17 O 0.30101 0.28719 0.46504 0.0
C18 C 0.33497 0.24867 0.48726 0.0
O19 O 0.35943 0.26299 0.47993 0.0
N20 N 0.34933 0.31727 0.44066 0.0
C21 C 0.38808 0.36707 0.4253 0.0
C22 C 0.36626 0.36365 0.43925 0.0
C23 C 0.34709 0.33855 0.44682 0.0
C24 C 0.3694 0.32003 0.42567 0.0
C25 C 0.38871 0.34466 0.41741 0.0
H26 H 0.33217 0.3367 0.45996 0.0
H27 H 0.37154 0.30322 0.4217 0.0
H28 H 0.31399 0.28451 0.51459 0.0
H29 H 0.3902 0.34596 0.52892 0.0
H30 H 0.3056 0.25361 0.36805 0.0
H31 H 0.36509 0.3803 0.44619 0.0
H32 H 0.40487 0.34621 0.40627 0.0
C33 C 0.05058 0.37647 0.6663 0.0
C34 C 0.04268 0.3785 0.69038 0.0
N35 N 0.02819 0.35424 0.70012 0.0
N36 N 0.04101 0.35105 0.66067 0.0
C37 C 0.02757 0.33792 0.68166 0.0
H38 H 0.06306 0.39253 0.65386 0.0
Co39 Co 0.04829 0.33923 0.63067 0.0
C40 C 0.99483 0.29185 0.62041 0.0
O41 O 0.99225 0.29902 0.59741 0.0
N42 N 0.05683 0.32783 0.60014 0.0
C43 C 0.06043 0.31833 0.55971 0.0
C44 C 0.0463 0.32426 0.57657 0.0
C45 C 0.07767 0.32436 0.59678 0.0
N46 N 0.08031 0.31846 0.57246 0.0
O47 O 0.06418 0.32369 0.65042 0.0
H48 H 0.03028 0.32722 0.57138 0.0
H49 H 0.09157 0.3274 0.61159 0.0
O50 O 0.01518 0.3064 0.63363 0.0
C51 C 0.08694 0.33968 0.65875 0.0
O52 O 0.09748 0.36449 0.65254 0.0
N53 N 0.03406 0.35654 0.61223 0.0
C54 C 0.02325 0.3955 0.59635 0.0
C55 C 1.00404 0.37268 0.60853 0.0
C56 C 0.00998 0.35367 0.61675 0.0
C57 C 0.05247 0.37778 0.59924 0.0
C58 C 0.0475 0.39739 0.59111 0.0
H59 H 0.99598 0.33786 0.62854 0.0
H60 H 0.07191 0.38056 0.59699 0.0
H61 H 0.01797 0.31689 0.68351 0.0
H62 H 0.04824 0.39659 0.70033 0.0
H63 H 0.05661 0.31484 0.53949 0.0
H64 H 0.98495 0.37006 0.61289 0.0
H65 H 0.06332 0.41472 0.58245 0.0
C66 C 0.68335 0.05598 0.83187 0.0
C67 C 0.6746 0.05054 0.85663 0.0
N68 N 0.68523 0.03746 0.86784 0.0
N69 N 0.69928 0.04623 0.82738 0.0
C70 C 0.70012 0.03513 0.8496 0.0
H71 H 0.67911 0.06714 0.81828 0.0
Co72 Co 0.71864 0.05117 0.79793 0.0
C73 C 0.73434 0.01165 0.80376 0.0
O74 O 0.75842 0.02952 0.798 0.0
N75 N 0.7385 0.05706 0.76823 0.0
C76 C 0.75316 0.05474 0.72975 0.0
C77 C 0.73368 0.04161 0.74761 0.0
C78 C 0.76091 0.0793 0.76251 0.0
N79 N 0.77031 0.07838 0.73934 0.0
O80 O 0.74967 0.06777 0.8179 0.0
H81 H 0.71696 0.02218 0.74559 0.0
H82 H 0.76995 0.09624 0.7748 0.0
O83 O 0.71625 0.01748 0.80336 0.0
C84 C 0.75601 0.09087 0.82465 0.0
O85 O 0.742 0.10097 0.81621 0.0
N86 N 0.68777 0.03636 0.77892 0.0
C87 C 0.63806 0.02406 0.76262 0.0
C88 C 0.64222 0.00491 0.77392 0.0
C89 C 0.66734 0.01154 0.78223 0.0
C90 C 0.68445 0.0545 0.76601 0.0
C91 C 0.65968 0.04879 0.75776 0.0
H92 H 0.66977 0.99741 0.7932 0.0
H93 H 0.70071 0.07423 0.76414 0.0
H94 H 0.71197 0.02608 0.85243 0.0
H95 H 0.66228 0.0568 0.86588 0.0
H96 H 0.7547 0.04743 0.71129 0.0
H97 H 0.62591 0.98569 0.77821 0.0
H98 H 0.65721 0.06405 0.74903 0.0
C99 C 0.63486 0.67379 0.99384 0.0
C100 C 0.63222 0.66429 0.01828 0.0
N101 N 0.655 0.67896 0.03058 0.0
N102 N 0.65936 0.69408 0.99072 0.0
C103 C 0.67108 0.69685 0.01353 0.0
H104 H 0.6197 0.66665 0.97949 0.0
Co105 Co 0.67362 0.71512 0.96216 0.0
C106 C 0.72903 0.73139 0.96842 0.0
O107 O 0.73495 0.75576 0.96484 0.0
N108 N 0.68761 0.73651 0.93351 0.0
C109 C 0.70835 0.75521 0.89747 0.0
C110 C 0.70201 0.73498 0.91434 0.0
C111 C 0.68504 0.7574 0.92767 0.0
N112 N 0.69764 0.76933 0.90592 0.0
O113 O 0.68753 0.74509 0.98378 0.0
H114 H 0.70767 0.72021 0.91283 0.0
H115 H 0.67449 0.76405 0.93942 0.0
O116 O 0.70525 0.7131 0.96686 0.0
C117 C 0.67179 0.75256 0.99111 0.0
O118 O 0.64775 0.74053 0.98228 0.0
N119 N 0.65834 0.68539 0.94142 0.0
C120 C 0.62235 0.6363 0.92197 0.0
C121 C 0.64614 0.64086 0.93267 0.0
C122 C 0.66381 0.66553 0.94254 0.0
C123 C 0.63661 0.6821 0.92908 0.0
C124 C 0.6183 0.65772 0.91934 0.0
H125 H 0.68076 0.66792 0.95275 0.0
H126 H 0.6323 0.69788 0.92891 0.0
H127 H 0.69093 0.71197 0.01767 0.0
H128 H 0.61464 0.64853 0.02669 0.0
H129 H 0.71978 0.75905 0.88022 0.0
H130 H 0.6505 0.62519 0.93466 0.0
H131 H 0.60024 0.65539 0.91167 0.0
C132 C 0.95156 0.62664 0.16441 0.0
C133 C 0.95605 0.62372 0.18961 0.0
N134 N 0.96861 0.64759 0.20059 0.0
N135 N 0.96135 0.65222 0.15943 0.0
C136 C 0.97156 0.66447 0.18174 0.0
H137 H 0.94104 0.61107 0.1508 0.0
Co138 Co 0.95751 0.66658 0.12945 0.0
C139 C 0.99629 0.72191 0.1368 0.0
O140 O 0.97848 0.72813 0.13079 0.0
N141 N 0.95285 0.68057 0.09933 0.0
C142 C 0.95762 0.70194 0.06301 0.0
C143 C 0.97025 0.69544 0.08129 0.0
C144 C 0.92985 0.67778 0.09138 0.0
N145 N 0.93216 0.69074 0.06945 0.0
O146 O 0.93951 0.68044 0.14819 0.0
H147 H 0.99083 0.70152 0.08163 0.0
H148 H 0.91179 0.66699 0.10189 0.0
O149 O 0.99067 0.69807 0.13604 0.0
C150 C 0.91627 0.66341 0.15428 0.0
O151 O 0.90681 0.63938 0.14589 0.0
N152 N 0.97359 0.65115 0.11159 0.0
C153 C 0.98715 0.61445 0.09609 0.0
C154 C 0.00547 0.6374 0.10857 0.0
C155 C 0.9982 0.65554 0.11642 0.0
C156 C 0.95637 0.63009 0.09763 0.0
C157 C 0.96274 0.61144 0.0897 0.0
H158 H 0.01153 0.67177 0.12822 0.0
H159 H 0.93676 0.6266 0.09457 0.0
H160 H 0.98038 0.68537 0.18411 0.0
H161 H 0.94958 0.60527 0.1992 0.0
H162 H 0.9665 0.71396 0.04633 0.0
H163 H 0.0244 0.64023 0.11405 0.0
H164 H 0.94813 0.59402 0.08002 0.0
C165 C 0.3316 0.95308 0.32766 0.0
C166 C 0.33917 0.95791 0.35276 0.0
N167 N 0.32555 0.96776 0.36436 0.0
N168 N 0.31362 0.96029 0.3232 0.0
C169 C 0.31027 0.96908 0.34587 0.0
H170 H 0.33832 0.94431 0.31367 0.0
Co171 Co 0.29479 0.95471 0.29314 0.0
C172 C 0.30218 0.00902 0.2864 0.0
O173 O 0.3133 0.01298 0.26393 0.0
N174 N 0.27488 0.94769 0.2628 0.0
C175 C 0.26013 0.9461 0.22323 0.0
C176 C 0.28053 0.95995 0.23992 0.0
C177 C 0.25123 0.92609 0.25909 0.0
N178 N 0.24178 0.92472 0.23538 0.0
O179 O 0.26338 0.93799 0.31275 0.0
H180 H 0.29888 0.97691 0.23491 0.0
H181 H 0.2411 0.9112 0.27334 0.0
O182 O 0.29511 0.98765 0.29832 0.0
C183 C 0.25661 0.9153 0.32126 0.0
O184 O 0.27034 0.90429 0.31461 0.0
N185 N 0.32641 0.97016 0.27464 0.0
C186 C 0.37626 0.98175 0.25868 0.0
C187 C 0.37289 0.99938 0.27397 0.0
C188 C 0.3478 0.99316 0.28186 0.0
C189 C 0.32915 0.95362 0.25847 0.0
C190 C 0.35383 0.95921 0.24997 0.0
H191 H 0.34594 0.00552 0.29591 0.0
H192 H 0.31232 0.93496 0.2537 0.0
H193 H 0.29586 0.97499 0.34894 0.0
H194 H 0.35335 0.95399 0.36173 0.0
H195 H 0.25942 0.95075 0.20337 0.0
H196 H 0.38955 0.01674 0.28162 0.0
H197 H 0.35538 0.94517 0.2379 0.0
C198 C 0.67631 0.62828 0.33406 0.0
C199 C 0.66796 0.62419 0.30915 0.0
N200 N 0.67696 0.64766 0.29782 0.0
N201 N 0.69022 0.65418 0.33853 0.0
C202 C 0.69043 0.66552 0.31611 0.0
H203 H 0.67291 0.61338 0.34798 0.0
Co204 Co 0.70821 0.6693 0.36846 0.0
C205 C 0.69254 0.71083 0.37275 0.0
O206 O 0.6788 0.70083 0.39363 0.0
N207 N 0.72776 0.684 0.39841 0.0
C208 C 0.7509 0.70818 0.43153 0.0
C209 C 0.73174 0.7039 0.41399 0.0
C210 C 0.74471 0.67663 0.40701 0.0
N211 N 0.7592 0.69111 0.4269 0.0
O212 O 0.73985 0.68551 0.34917 0.0
H213 H 0.72257 0.71564 0.41231 0.0
H214 H 0.74669 0.66105 0.39852 0.0
O215 O 0.70457 0.70024 0.36232 0.0
C216 C 0.74904 0.67066 0.34382 0.0
O217 O 0.73708 0.64659 0.35258 0.0
N218 N 0.67639 0.65138 0.38698 0.0
C219 C 0.6279 0.61251 0.40568 0.0
C220 C 0.62938 0.62973 0.38645 0.0
C221 C 0.6537 0.64883 0.37729 0.0
C222 C 0.67538 0.63561 0.4065 0.0
C223 C 0.65138 0.6163 0.41633 0.0
H224 H 0.65419 0.66033 0.36102 0.0
H225 H 0.69309 0.63662 0.4134 0.0
H226 H 0.7013 0.68643 0.31298 0.0
H227 H 0.6564 0.60536 0.30008 0.0
H228 H 0.75905 0.72358 0.44568 0.0
H229 H 0.61193 0.62732 0.37716 0.0
H230 H 0.65129 0.60364 0.43133 0.0
C231 C 0.05362 0.68627 0.50143 0.0
C232 C 0.05007 0.67839 0.47632 0.0
N233 N 0.03737 0.689 0.4644 0.0
N234 N 0.04276 0.70135 0.50534 0.0
C235 C 0.03321 0.70281 0.4824 0.0
H236 H 0.06389 0.68168 0.51577 0.0
Co237 Co 0.04341 0.71902 0.53479 0.0
C238 C 0.98699 0.70379 0.5409 0.0
O239 O 0.98744 0.69942 0.56544 0.0
N240 N 0.04549 0.73846 0.56425 0.0
C241 C 0.04671 0.77158 0.58576 0.0
C242 C 0.03356 0.75269 0.56767 0.0
C243 C 0.06623 0.74964 0.58034 0.0
N244 N 0.06765 0.77005 0.5935 0.0
O245 O 0.05645 0.75029 0.51517 0.0
H246 H 0.01854 0.7521 0.55549 0.0
H247 H 0.08169 0.74496 0.58015 0.0
O248 O 0.00761 0.71132 0.52746 0.0
C249 C 0.08069 0.76708 0.51641 0.0
O250 O 0.09573 0.76306 0.532 0.0
N251 N 0.03187 0.68765 0.5536 0.0
C252 C 0.02525 0.63955 0.56998 0.0
C253 C 0.00545 0.64072 0.55638 0.0
C254 C 0.00937 0.66489 0.54785 0.0
C255 C 0.0508 0.6868 0.5678 0.0
C256 C 0.04788 0.66301 0.57622 0.0
H257 H 0.99537 0.66475 0.53456 0.0
H258 H 0.06945 0.70422 0.57042 0.0
H259 H 0.02363 0.71408 0.47891 0.0
H260 H 0.05702 0.66649 0.46734 0.0
H261 H 0.04283 0.78717 0.59042 0.0
H262 H 0.98807 0.62296 0.55047 0.0
H263 H 0.06385 0.66287 0.58626 0.0
C264 C 0.3741 0.04102 0.6653 0.0
C265 C 0.37525 0.03347 0.64077 0.0
N266 N 0.35106 0.02235 0.63066 0.0
N267 N 0.34921 0.03436 0.67074 0.0
C268 C 0.33565 0.02321 0.6492 0.0
H269 H 0.39045 0.05123 0.67816 0.0
Co270 Co 0.33762 0.04184 0.7008 0.0
C271 C 0.28986 0.98905 0.71107 0.0
O272 O 0.29636 0.98749 0.73466 0.0
N273 N 0.32634 0.05056 0.73139 0.0
C274 C 0.31925 0.05605 0.77217 0.0
C275 C 0.32443 0.04128 0.75537 0.0
C276 C 0.32217 0.07101 0.73435 0.0
N277 N 0.31785 0.07477 0.75884 0.0
O278 O 0.32273 0.05831 0.68113 0.0
H279 H 0.32807 0.02573 0.7608 0.0
H280 H 0.32379 0.08407 0.71917 0.0
O281 O 0.30465 0.00898 0.69746 0.0
C282 C 0.33941 0.08061 0.67239 0.0
O283 O 0.36416 0.09019 0.67839 0.0
N284 N 0.35431 0.02695 0.71919 0.0
C285 C 0.39173 0.01428 0.73571 0.0
C286 C 0.36861 0.99554 0.72362 0.0
C287 C 0.35041 1.00242 0.71504 0.0
C288 C 0.37594 0.045 0.73197 0.0
C289 C 0.39481 0.03909 0.74044 0.0
H290 H 0.3344 0.98867 0.70328 0.0
H291 H 0.37953 0.06476 0.73392 0.0
H292 H 0.31497 0.01626 0.64704 0.0
H293 H 0.39273 0.03684 0.63081 0.0
H294 H 0.31743 0.05367 0.79268 0.0
H295 H 0.36514 0.97609 0.71962 0.0
H296 H 0.41247 0.05455 0.74901 0.0
C297 C 0.33522 0.3745 0.82906 0.0
C298 C 0.34229 0.3758 0.80387 0.0
N299 N 0.32887 0.35157 0.79382 0.0
N300 N 0.31765 0.34953 0.83489 0.0
C301 C 0.31419 0.33606 0.81311 0.0
H302 H 0.34186 0.3908 0.84209 0.0
Co303 Co 0.29884 0.33697 0.86496 0.0
C304 C 0.30816 0.29089 0.87196 0.0
O305 O 0.31983 0.29827 0.89418 0.0
N306 N 0.27913 0.3246 0.89524 0.0
C307 C 0.2649 0.31183 0.93486 0.0
C308 C 0.28488 0.31776 0.91787 0.0
C309 C 0.25583 0.32321 0.89927 0.0
N310 N 0.24653 0.3153 0.92314 0.0
O311 O 0.26724 0.32135 0.84532 0.0
H312 H 0.30298 0.31841 0.92245 0.0
H313 H 0.24636 0.32899 0.88519 0.0
O314 O 0.30005 0.30466 0.86065 0.0
C315 C 0.26179 0.33766 0.83523 0.0
O316 O 0.27649 0.36259 0.84079 0.0
N317 N 0.33036 0.35428 0.88343 0.0
C318 C 0.3794 0.39419 0.89901 0.0
C319 C 0.37699 0.37266 0.8854 0.0
C320 C 0.35225 0.35305 0.87739 0.0
C321 C 0.33229 0.37425 0.89807 0.0
C322 C 0.35662 0.39438 0.90611 0.0
H323 H 0.3511 0.33846 0.8642 0.0
H324 H 0.31508 0.37579 0.90167 0.0
H325 H 0.29995 0.31552 0.81112 0.0
H326 H 0.35585 0.39335 0.7937 0.0
H327 H 0.26437 0.30589 0.95446 0.0
H328 H 0.39419 0.37216 0.87905 0.0
H329 H 0.35772 0.41077 0.91648 0.0
C330 C 0.96696 0.33659 0.00381 0.0
C331 C 0.97279 0.34544 0.9791 0.0
N332 N 0.98448 0.33352 0.96764 0.0
N333 N 0.97509 0.31928 0.00801 0.0
C334 C 0.98562 0.31776 0.98569 0.0
H335 H 0.95666 0.34175 0.01758 0.0
Co336 Co 0.9694 0.29955 0.03728 0.0
C337 C 0.00655 0.28102 0.02994 0.0
O338 O 0.9876 0.25712 0.03466 0.0
N339 N 0.96289 0.27949 0.06667 0.0
C340 C 0.96495 0.26134 0.1031 0.0
C341 C 0.97902 0.28094 0.08562 0.0
C342 C 0.93927 0.25933 0.07317 0.0
N343 N 0.93993 0.24767 0.09506 0.0
O344 O 0.95122 0.26852 0.01731 0.0
H345 H 0.99968 0.29509 0.08649 0.0
H346 H 0.92176 0.25343 0.0621 0.0
O347 O 1.00215 0.30005 0.03144 0.0
C348 C 0.92824 0.26251 0.01042 0.0
O349 O 0.91876 0.27737 0.01787 0.0
N350 N 0.98572 0.33021 0.05646 0.0
C351 C 1.00098 0.38018 0.0748 0.0
C352 C 0.01908 0.37488 0.06265 0.0
C353 C 0.01099 0.34974 0.05337 0.0
C354 C 0.96845 0.3344 0.06989 0.0
C355 C 0.97561 0.3592 0.07917 0.0
H356 H 0.02451 0.34661 0.04212 0.0
H357 H 0.94832 0.31888 0.07149 0.0
H358 H 0.99337 0.30481 0.98265 0.0
H359 H 0.96765 0.35872 0.97003 0.0
H360 H 0.97268 0.25716 0.12005 0.0
H361 H 0.03896 0.39027 0.05914 0.0
H362 H 0.96069 0.36216 0.08793 0.0
C363 C 0.6367 0.95489 0.17033 0.0
C364 C 0.63172 0.95807 0.14532 0.0
N365 N 0.65476 0.97152 0.13299 0.0
N366 N 0.66275 0.9666 0.17383 0.0
C367 C 0.67323 0.97637 0.15075 0.0
H368 H 0.62228 0.94426 0.18492 0.0
Co369 Co 0.67979 0.96572 0.20334 0.0
C370 C 0.72122 0.02189 0.20726 0.0
O371 O 0.71442 0.02302 0.2309 0.0
N372 N 0.69681 0.96301 0.23274 0.0
C373 C 0.72766 0.96304 0.2573 0.0
C374 C 0.72225 0.97693 0.23972 0.0
C375 C 0.68749 0.94044 0.24612 0.0
N376 N 0.70585 0.93989 0.26108 0.0
O377 O 0.69541 0.94964 0.18439 0.0
H378 H 0.73707 0.99449 0.23069 0.0
H379 H 0.6684 0.92359 0.24278 0.0
O380 O 0.70932 1.00038 0.19488 0.0
C381 C 0.67994 0.92521 0.18183 0.0
O382 O 0.65681 0.91476 0.19271 0.0
N383 N 0.66234 0.98012 0.22188 0.0
C384 C 0.6233 0.98994 0.23969 0.0
C385 C 0.64112 0.0059 0.22095 0.0
C386 C 0.66037 1.00061 0.21225 0.0
C387 C 0.64612 0.96532 0.24111 0.0
C388 C 0.62675 0.97011 0.25051 0.0
H389 H 0.67206 0.01154 0.19606 0.0
H390 H 0.64663 0.94837 0.24794 0.0
H391 H 0.69402 0.98644 0.14701 0.0
H392 H 0.61259 0.95022 0.13672 0.0
H393 H 0.74676 0.96871 0.26505 0.0
H394 H 0.63902 0.02108 0.21156 0.0
H395 H 0.61368 0.95741 0.26521 0.0
H396 H 0.37093 0.12872 0.65229 0.0
H397 H 0.35883 0.154 0.62472 0.0
H398 H 0.278 0.09288 0.62775 0.0
H399 H 0.29012 0.06698 0.6554 0.0
H400 H 0.29326 0.11057 0.57929 0.0
H401 H 0.29577 0.14859 0.65874 0.0
H402 H 0.31263 0.16658 0.70144 0.0
H403 H 0.38088 0.23063 0.66777 0.0
H404 H 0.36478 0.21274 0.62486 0.0
H405 H 0.28605 0.21122 0.5034 0.0
H406 H 0.27569 0.17964 0.53832 0.0
H407 H 0.35806 0.21068 0.55176 0.0
H408 H 0.36851 0.24169 0.51703 0.0
H409 H 0.32703 0.20468 0.59675 0.0
H410 H 0.32757 0.15761 0.51932 0.0
H411 H 0.31053 0.13866 0.47688 0.0
H412 H 0.23377 0.09148 0.50855 0.0
H413 H 0.25033 0.11045 0.55113 0.0
C414 C 0.35053 0.1206 0.64728 0.0
C415 C 0.33147 0.09587 0.65611 0.0
C416 C 0.34361 0.13519 0.6316 0.0
C417 C 0.31744 0.12554 0.62456 0.0
C418 C 0.29827 0.10075 0.63315 0.0
C419 C 0.30522 0.08604 0.64894 0.0
C420 C 0.31089 0.14132 0.60731 0.0
C421 C 0.29992 0.13095 0.58339 0.0
C422 C 0.31944 0.16789 0.61272 0.0
C423 C 0.32906 0.17921 0.6385 0.0
C424 C 0.31444 0.16644 0.6604 0.0
C425 C 0.32388 0.17662 0.68467 0.0
C426 C 0.34784 0.19969 0.68731 0.0
C427 C 0.36233 0.21274 0.66568 0.0
C428 C 0.35304 0.20259 0.64137 0.0
C429 C 0.30188 0.21116 0.51377 0.0
C430 C 0.32809 0.22881 0.50739 0.0
C431 C 0.29594 0.19322 0.5337 0.0
C432 C 0.31615 0.19303 0.54763 0.0
C433 C 0.34222 0.21069 0.54132 0.0
C434 C 0.34814 0.22826 0.52131 0.0
C435 C 0.31078 0.1742 0.5685 0.0
C436 C 0.31949 0.18405 0.5931 0.0
C437 C 0.2999 0.14717 0.56382 0.0
C438 C 0.29009 0.13568 0.53829 0.0
C439 C 0.30702 0.14336 0.51717 0.0
C440 C 0.29746 0.13259 0.49311 0.0
C441 C 0.27106 0.11395 0.49 0.0
C442 C 0.25419 0.10597 0.51097 0.0
C443 C 0.26365 0.11672 0.53507 0.0
H444 H 0.2637 0.10564 0.47136 0.0
H445 H 0.35518 0.20742 0.70612 0.0
H446 H 0.13858 0.36741 0.6704 0.0
H447 H 0.16369 0.35407 0.69686 0.0
H448 H 0.09505 0.2786 0.70854 0.0
H449 H 0.06949 0.29196 0.68181 0.0
H450 H 0.12049 0.30042 0.75323 0.0
H451 H 0.14322 0.28194 0.67329 0.0
H452 H 0.15663 0.28777 0.62816 0.0
H453 H 0.23095 0.35374 0.64797 0.0
H454 H 0.2178 0.34877 0.69316 0.0
H455 H 0.21915 0.28889 0.82716 0.0
H456 H 0.18512 0.27665 0.79429 0.0
H457 H 0.22497 0.35584 0.76605 0.0
H458 H 0.2584 0.36821 0.79876 0.0
H459 H 0.20785 0.31574 0.72723 0.0
H460 H 0.17693 0.33967 0.80438 0.0
H461 H 0.16378 0.33317 0.84967 0.0
H462 H 0.10453 0.25402 0.83379 0.0
H463 H 0.11763 0.25997 0.78845 0.0
C464 C 0.12876 0.34789 0.67841 0.0
C465 C 0.10202 0.33074 0.67405 0.0
C466 C 0.14323 0.34021 0.69339 0.0
C467 C 0.13135 0.3152 0.70437 0.0
C468 C 0.10463 0.29791 0.70005 0.0
C469 C 0.09009 0.30555 0.6848 0.0
C470 C 0.14689 0.30836 0.72169 0.0
C471 C 0.13924 0.30296 0.74737 0.0
C472 C 0.17136 0.31164 0.71404 0.0
C473 C 0.17942 0.315 0.68674 0.0
C474 C 0.16233 0.29786 0.66804 0.0
C475 C 0.16991 0.301 0.64241 0.0
C476 C 0.19462 0.32112 0.63519 0.0
C477 C 0.21181 0.33816 0.65359 0.0
C478 C 0.2043 0.33517 0.67924 0.0
C479 C 0.22058 0.30359 0.81386 0.0
C480 C 0.24124 0.32954 0.81563 0.0
C481 C 0.20123 0.29657 0.79513 0.0
C482 C 0.20268 0.31535 0.77774 0.0
C483 C 0.22362 0.34105 0.7792 0.0
C484 C 0.24257 0.34813 0.79807 0.0
C485 C 0.18192 0.30922 0.75869 0.0
C486 C 0.18865 0.31222 0.73276 0.0
C487 C 0.15658 0.30355 0.76602 0.0
C488 C 0.14846 0.30015 0.79314 0.0
C489 C 0.16123 0.32083 0.8106 0.0
C490 C 0.15377 0.31726 0.83626 0.0
C491 C 0.13339 0.29317 0.84463 0.0
C492 C 0.12036 0.27264 0.82731 0.0
C493 C 0.12779 0.2761 0.80163 0.0
H494 H 0.12766 0.29047 0.8645 0.0
H495 H 0.20047 0.32348 0.61535 0.0
H496 H 0.78848 0.07586 0.84717 0.0
H497 H 0.82315 0.10069 0.87846 0.0
H498 H 0.80656 0.16396 0.87392 0.0
H499 H 0.77263 0.13976 0.84256 0.0
H500 H 0.85728 0.18259 0.87398 0.0
H501 H 0.78254 0.11788 0.92163 0.0
H502 H 0.74886 0.07298 0.93296 0.0
H503 H 0.80856 0.05521 0.95402 0.0
H504 H 0.84266 0.0999 0.94218 0.0
H505 H 0.88085 0.24812 0.98949 0.0
H506 H 0.85659 0.21343 0.95863 0.0
H507 H 0.91564 0.19095 0.96194 0.0
H508 H 0.9405 0.22608 0.9929 0.0
H509 H 0.85128 0.14806 0.9616 0.0
H510 H 0.9261 0.21675 0.91501 0.0
H511 H 0.95654 0.26335 0.9071 0.0
H512 H 0.89233 0.27462 0.88695 0.0
H513 H 0.86139 0.22784 0.89493 0.0
C514 C 0.79244 0.09517 0.85273 0.0
C515 C 0.77781 0.10585 0.84247 0.0
C516 C 0.81215 0.10926 0.87064 0.0
C517 C 0.8173 0.13409 0.87861 0.0
C518 C 0.80301 0.14488 0.86796 0.0
C519 C 0.78352 0.13095 0.85008 0.0
C520 C 0.83697 0.14898 0.89852 0.0
C521 C 0.85608 0.17485 0.89302 0.0
C522 C 0.83564 0.13888 0.92336 0.0
C523 C 0.81515 0.11211 0.93069 0.0
C524 C 0.78849 0.10433 0.92846 0.0
C525 C 0.76932 0.07892 0.93501 0.0
C526 C 0.77656 0.06123 0.9442 0.0
C527 C 0.80299 0.06892 0.94685 0.0
C528 C 0.82225 0.09428 0.94019 0.0
C529 C 0.88862 0.23566 0.98398 0.0
C530 C 0.91272 0.23999 0.99347 0.0
C531 C 0.87464 0.21577 0.96644 0.0
C532 C 0.88436 0.19971 0.95818 0.0
C533 C 0.90783 0.20312 0.96833 0.0
C534 C 0.92203 0.22326 0.98583 0.0
C535 C 0.87104 0.18149 0.93692 0.0
C536 C 0.85303 0.15525 0.94223 0.0
C537 C 0.87298 0.19122 0.91195 0.0
C538 C 0.8915 0.21893 0.90574 0.0
C539 C 0.9185 0.22919 0.90892 0.0
C540 C 0.93584 0.25567 0.90444 0.0
C541 C 0.92641 0.27209 0.89672 0.0
C542 C 0.89961 0.26191 0.89302 0.0
C543 C 0.88216 0.23539 0.89744 0.0
H544 H 0.93981 0.29269 0.89367 0.0
H545 H 0.76172 0.04158 0.94933 0.0
H546 H 0.70954 0.7672 0.02775 0.0
H547 H 0.71958 0.7992 0.06208 0.0
H548 H 0.66179 0.81641 0.03208 0.0
H549 H 0.65138 0.78426 0.99819 0.0
H550 H 0.70817 0.86109 0.04575 0.0
H551 H 0.64564 0.77685 0.07868 0.0
H552 H 0.6262 0.73124 0.09335 0.0
H553 H 0.68937 0.75369 0.14629 0.0
H554 H 0.70958 0.7994 0.13149 0.0
H555 H 0.64806 0.87436 0.16928 0.0
H556 H 0.6561 0.84828 0.13885 0.0
H557 H 0.73436 0.91247 0.12643 0.0
H558 H 0.726 0.93932 0.15655 0.0
H559 H 0.68723 0.82988 0.13512 0.0
H560 H 0.74986 0.90935 0.06231 0.0
H561 H 0.76026 0.95387 0.04994 0.0
H562 H 0.68488 0.93795 0.07644 0.0
H563 H 0.67395 0.89339 0.08851 0.0
C564 C 0.69926 0.77809 0.02836 0.0
C565 C 0.67968 0.77332 0.01038 0.0
C566 C 0.70492 0.79623 0.04798 0.0
C567 C 0.69139 0.8101 0.04956 0.0
C568 C 0.67251 0.80596 0.0311 0.0
C569 C 0.66651 0.78754 0.01183 0.0
C570 C 0.69586 0.82818 0.07097 0.0
C571 C 0.70399 0.85439 0.06537 0.0
C572 C 0.69015 0.81933 0.09649 0.0
C573 C 0.67938 0.7915 0.10364 0.0
C574 C 0.65573 0.772 0.09302 0.0
C575 C 0.64446 0.74615 0.10149 0.0
C576 C 0.65647 0.73964 0.12083 0.0
C577 C 0.68006 0.75882 0.13137 0.0
C578 C 0.69149 0.78467 0.12287 0.0
C579 C 0.6671 0.88299 0.16028 0.0
C580 C 0.68632 0.90902 0.16514 0.0
C581 C 0.67173 0.86794 0.14294 0.0
C582 C 0.69576 0.87842 0.13016 0.0
C583 C 0.71553 0.90407 0.13581 0.0
C584 C 0.71077 0.91935 0.15305 0.0
C585 C 0.69889 0.86265 0.10989 0.0
C586 C 0.69231 0.83686 0.11565 0.0
C587 C 0.70519 0.87163 0.08442 0.0
C588 C 0.71131 0.89824 0.07674 0.0
C589 C 0.73554 0.91541 0.06546 0.0
C590 C 0.74153 0.94066 0.05852 0.0
C591 C 0.72339 0.9489 0.06269 0.0
C592 C 0.69914 0.93181 0.0736 0.0
C593 C 0.69298 0.9065 0.08041 0.0
H594 H 0.72809 0.96844 0.05726 0.0
H595 H 0.64753 0.71972 0.12766 0.0
H596 H 0.9291 0.71092 0.1755 0.0
H597 H 0.90363 0.71975 0.20687 0.0
H598 H 0.84365 0.63838 0.20517 0.0
H599 H 0.86837 0.62966 0.17357 0.0
H600 H 0.82177 0.6661 0.20541 0.0
H601 H 0.88969 0.6644 0.25356 0.0
H602 H 0.93496 0.67749 0.26559 0.0
H603 H 0.95105 0.75572 0.2801 0.0
H604 H 0.90585 0.7431 0.26793 0.0
H605 H 0.78593 0.6564 0.34514 0.0
H606 H 0.81808 0.66355 0.31218 0.0
H607 H 0.79315 0.70931 0.26876 0.0
H608 H 0.76107 0.70252 0.30215 0.0
H609 H 0.85929 0.70526 0.28953 0.0
H610 H 0.78935 0.68196 0.20106 0.0
H611 H 0.74271 0.65646 0.18984 0.0
H612 H 0.72653 0.61378 0.26009 0.0
H613 H 0.77335 0.63728 0.2707 0.0
C614 C 0.91036 0.69502 0.18169 0.0
C615 C 0.90075 0.66959 0.17208 0.0
C616 C 0.89591 0.70005 0.1997 0.0
C617 C 0.87182 0.67968 0.20853 0.0
C618 C 0.86211 0.65445 0.19857 0.0
C619 C 0.87634 0.64948 0.18052 0.0
C620 C 0.85655 0.68411 0.2284 0.0
C621 C 0.83001 0.67506 0.22369 0.0
C622 C 0.86727 0.69517 0.25243 0.0
C623 C 0.89452 0.70291 0.2595 0.0
C624 C 0.90296 0.68446 0.25907 0.0
C625 C 0.92859 0.69178 0.26596 0.0
C626 C 0.94592 0.71746 0.27349 0.0
C627 C 0.93762 0.73585 0.2742 0.0
C628 C 0.91199 0.72863 0.26732 0.0
C629 C 0.78773 0.66847 0.32883 0.0
C630 C 0.77107 0.67886 0.32607 0.0
C631 C 0.80615 0.67264 0.31008 0.0
C632 C 0.80782 0.68676 0.28795 0.0
C633 C 0.79205 0.69827 0.28568 0.0
C634 C 0.77389 0.6945 0.30476 0.0
C635 C 0.82437 0.68716 0.26654 0.0
C636 C 0.85117 0.6971 0.27097 0.0
C637 C 0.81354 0.67571 0.24259 0.0
C638 C 0.78497 0.66218 0.23715 0.0
C639 C 0.7759 0.66717 0.21418 0.0
C640 C 0.74942 0.65279 0.20775 0.0
C641 C 0.73159 0.63382 0.22444 0.0
C642 C 0.74031 0.62874 0.24733 0.0
C643 C 0.76691 0.64249 0.25349 0.0
H644 H 0.71106 0.6229 0.21952 0.0
H645 H 0.96574 0.72311 0.27888 0.0
H646 H 0.23498 0.8654 0.33867 0.0
H647 H 0.20123 0.84419 0.37109 0.0
H648 H 0.19493 0.91366 0.37763 0.0
H649 H 0.22867 0.93505 0.34479 0.0
H650 H 0.20465 0.85883 0.41933 0.0
H651 H 0.13089 0.89351 0.39752 0.0
H652 H 0.11385 0.9063 0.36058 0.0
H653 H 0.1315 0.85909 0.31129 0.0
H654 H 0.14834 0.84579 0.34797 0.0
H655 H 0.12214 0.81572 0.52383 0.0
H656 H 0.14809 0.84742 0.49074 0.0
H657 H 0.09389 0.7968 0.43345 0.0
H658 H 0.06705 0.76594 0.46669 0.0
H659 H 0.11472 0.84539 0.41798 0.0
H660 H 0.14782 0.79177 0.45338 0.0
H661 H 0.16313 0.77451 0.48809 0.0
H662 H 0.22504 0.85215 0.50519 0.0
H663 H 0.20978 0.86992 0.47089 0.0
C664 C 0.22628 0.87613 0.34679 0.0
C665 C 0.23458 0.90194 0.33927 0.0
C666 C 0.207 0.86398 0.36535 0.0
C667 C 0.19561 0.87736 0.3768 0.0
C668 C 0.20331 0.90291 0.36887 0.0
C669 C 0.22261 0.9151 0.35016 0.0
C670 C 0.17689 0.86487 0.39807 0.0
C671 C 0.18504 0.85604 0.41908 0.0
C672 C 0.15128 0.86111 0.39766 0.0
C673 C 0.14116 0.86893 0.37546 0.0
C674 C 0.1311 0.88585 0.3788 0.0
C675 C 0.12147 0.89318 0.35791 0.0
C676 C 0.12168 0.8836 0.33359 0.0
C677 C 0.13146 0.86661 0.33012 0.0
C678 C 0.1411 0.85921 0.35095 0.0
C679 C 0.11539 0.81185 0.50425 0.0
C680 C 0.09286 0.78836 0.49766 0.0
C681 C 0.13024 0.82986 0.48536 0.0
C682 C 0.1234 0.82407 0.45953 0.0
C683 C 0.09966 0.80163 0.45321 0.0
C684 C 0.08435 0.78398 0.4722 0.0
C685 C 0.14246 0.83919 0.43913 0.0
C686 C 0.13446 0.84856 0.41836 0.0
C687 C 0.16811 0.8429 0.43935 0.0
C688 C 0.17749 0.83218 0.45977 0.0
C689 C 0.16461 0.80516 0.46465 0.0
C690 C 0.17327 0.7953 0.48426 0.0
C691 C 0.195 0.81223 0.4989 0.0
C692 C 0.20819 0.83906 0.49387 0.0
C693 C 0.19953 0.84904 0.47437 0.0
H694 H 0.20166 0.80457 0.51409 0.0
H695 H 0.11417 0.88927 0.31747 0.0
H696 H 0.31982 0.22514 0.35241 0.0
H697 H 0.31514 0.18487 0.33462 0.0
H698 H 0.28573 0.14599 0.40679 0.0
H699 H 0.29065 0.18648 0.42481 0.0
H700 H 0.31933 0.13323 0.38807 0.0
H701 H 0.24465 0.13433 0.35509 0.0
H702 H 0.22026 0.15271 0.33363 0.0
H703 H 0.26296 0.16191 0.26445 0.0
H704 H 0.28788 0.1439 0.2856 0.0
H705 H 0.28163 0.00866 0.33348 0.0
H706 H 0.27873 0.04432 0.35403 0.0
H707 H 0.31379 0.09292 0.28789 0.0
H708 H 0.31641 0.05733 0.26706 0.0
H709 H 0.27329 0.09774 0.30591 0.0
H710 H 0.35036 0.09996 0.34104 0.0
H711 H 0.37217 0.07844 0.36174 0.0
H712 H 0.32223 0.06064 0.42707 0.0
H713 H 0.29993 0.08188 0.40662 0.0
C714 C 0.31203 0.20797 0.36443 0.0
C715 C 0.30544 0.20904 0.39001 0.0
C716 C 0.30939 0.1849 0.35423 0.0
C717 C 0.29969 0.16219 0.36922 0.0
C718 C 0.29322 0.16321 0.39482 0.0
C719 C 0.29606 0.18638 0.4051 0.0
C720 C 0.29671 0.1376 0.35814 0.0
C721 C 0.30888 0.12527 0.37033 0.0
C722 C 0.2833 0.1272 0.33484 0.0
C723 C 0.26828 0.13795 0.322 0.0
C724 C 0.24898 0.14044 0.33535 0.0
C725 C 0.23503 0.15077 0.32324 0.0
C726 C 0.2401 0.15852 0.29771 0.0
C727 C 0.25908 0.15591 0.28423 0.0
C728 C 0.2731 0.14561 0.29626 0.0
C729 C 0.28862 0.02689 0.32324 0.0
C730 C 0.29942 0.03017 0.29866 0.0
C731 C 0.287 0.04729 0.33506 0.0
C732 C 0.29632 0.07142 0.32262 0.0
C733 C 0.30648 0.07449 0.29786 0.0
C734 C 0.30807 0.05412 0.28602 0.0
C735 C 0.2963 0.09382 0.33557 0.0
C736 C 0.28355 0.10567 0.32375 0.0
C737 C 0.30899 0.10365 0.35925 0.0
C738 C 0.32337 0.09232 0.37223 0.0
C739 C 0.34405 0.09148 0.35983 0.0
C740 C 0.35647 0.07931 0.37149 0.0
C741 C 0.34851 0.0681 0.39564 0.0
C742 C 0.32833 0.06931 0.40834 0.0
C743 C 0.31583 0.08146 0.39675 0.0
H744 H 0.35798 0.05847 0.40447 0.0
H745 H 0.22928 0.16652 0.28837 0.0
H746 H 0.27494 0.28666 0.50428 0.0
H747 H 0.2415 0.2914 0.52715 0.0
H748 H 0.21417 0.30573 0.45594 0.0
H749 H 0.24793 0.30161 0.433 0.0
H750 H 0.21852 0.34023 0.49151 0.0
H751 H 0.18055 0.24578 0.48805 0.0
H752 H 0.18069 0.20464 0.49574 0.0
H753 H 0.19053 0.22101 0.57608 0.0
H754 H 0.19073 0.2624 0.56881 0.0
H755 H 0.09588 0.32354 0.52286 0.0
H756 H 0.13149 0.31882 0.50554 0.0
H757 H 0.14914 0.30234 0.58077 0.0
H758 H 0.11264 0.3058 0.59821 0.0
H759 H 0.15246 0.27069 0.54729 0.0
H760 H 0.1874 0.36234 0.5529 0.0
H761 H 0.18906 0.40459 0.54726 0.0
H762 H 0.1879 0.39572 0.46589 0.0
H763 H 0.18585 0.35321 0.47104 0.0
C764 C 0.26176 0.29069 0.49343 0.0
C765 C 0.26417 0.29372 0.46675 0.0
C766 C 0.24255 0.29331 0.50656 0.0
C767 C 0.22511 0.2987 0.49327 0.0
C768 C 0.2274 0.3016 0.46664 0.0
C769 C 0.24668 0.29913 0.45352 0.0
C770 C 0.20469 0.30173 0.50697 0.0
C771 C 0.20388 0.32488 0.50345 0.0
C772 C 0.18626 0.28223 0.52347 0.0
C773 C 0.18584 0.25724 0.52786 0.0
C774 C 0.18287 0.24065 0.50733 0.0
C775 C 0.18288 0.21729 0.51162 0.0
C776 C 0.18567 0.21024 0.53638 0.0
C777 C 0.18839 0.2265 0.55691 0.0
C778 C 0.1884 0.24989 0.55273 0.0
C779 C 0.10701 0.3186 0.5358 0.0
C780 C 0.10125 0.31521 0.56206 0.0
C781 C 0.12768 0.31621 0.52585 0.0
C782 C 0.14337 0.31069 0.54188 0.0
C783 C 0.13744 0.30678 0.56801 0.0
C784 C 0.11664 0.30902 0.578 0.0
C785 C 0.1658 0.30889 0.53119 0.0
C786 C 0.16712 0.28609 0.53541 0.0
C787 C 0.18497 0.32888 0.5156 0.0
C788 C 0.18624 0.35447 0.51237 0.0
C789 C 0.18729 0.3693 0.5338 0.0
C790 C 0.18834 0.39331 0.53069 0.0
C791 C 0.18852 0.4028 0.50623 0.0
C792 C 0.18773 0.38833 0.48482 0.0
C793 C 0.18665 0.36428 0.48783 0.0
H794 H 0.18934 0.4214 0.50386 0.0
H795 H 0.18569 0.19215 0.53965 0.0
H796 H 0.77688 0.09263 0.68969 0.0
H797 H 0.81622 0.12788 0.66976 0.0
H798 H 0.85642 0.14471 0.74211 0.0
H799 H 0.81651 0.11035 0.76223 0.0
H800 H 0.87059 0.18809 0.72131 0.0
H801 H 0.86665 0.11047 0.69017 0.0
H802 H 0.84731 0.06693 0.67017 0.0
H803 H 0.83655 0.09822 0.60021 0.0
H804 H 0.85551 0.1419 0.61989 0.0
H805 H 0.99515 0.26831 0.66533 0.0
H806 H 0.95892 0.2296 0.68494 0.0
H807 H 0.90933 0.22198 0.62129 0.0
H808 H 0.94567 0.26032 0.60115 0.0
H809 H 0.90257 0.17357 0.63875 0.0
H810 H 0.90024 0.24972 0.67647 0.0
H811 H 0.92707 0.29408 0.69432 0.0
H812 H 0.95737 0.26406 0.7513 0.0
H813 H 0.93007 0.2194 0.73425 0.0
C814 C 0.79419 0.10381 0.70124 0.0
C815 C 0.79372 0.09869 0.72744 0.0
C816 C 0.81676 0.12391 0.68985 0.0
C817 C 0.8397 0.13877 0.70422 0.0
C818 C 0.83913 0.13366 0.73049 0.0
C819 C 0.81634 0.11397 0.742 0.0
C820 C 0.8641 0.15974 0.69193 0.0
C821 C 0.87762 0.1846 0.70345 0.0
C822 C 0.87367 0.15564 0.66853 0.0
C823 C 0.86229 0.12941 0.65659 0.0
C824 C 0.85999 0.10803 0.67057 0.0
C825 C 0.84912 0.08333 0.65929 0.0
C826 C 0.84065 0.0798 0.63396 0.0
C827 C 0.84309 0.10098 0.61984 0.0
C828 C 0.85393 0.12572 0.63104 0.0
C829 C 0.97659 0.25836 0.6554 0.0
C830 C 0.97326 0.26763 0.63178 0.0
C831 C 0.95587 0.23623 0.66667 0.0
C832 C 0.93127 0.22314 0.65478 0.0
C833 C 0.92812 0.23179 0.63082 0.0
C834 C 0.94891 0.2538 0.6194 0.0
C835 C 0.90842 0.20147 0.66801 0.0
C836 C 0.89533 0.17668 0.65667 0.0
C837 C 0.89961 0.20537 0.69178 0.0
C838 C 0.913 0.2313 0.70426 0.0
C839 C 0.91223 0.25256 0.69314 0.0
C840 C 0.92756 0.27773 0.70306 0.0
C841 C 0.9439 0.28187 0.72393 0.0
C842 C 0.9446 0.26078 0.73521 0.0
C843 C 0.92895 0.23549 0.72565 0.0
H844 H 0.95596 0.30141 0.73139 0.0
H845 H 0.83224 0.06066 0.62526 0.0
H846 H 0.69026 0.97413 0.82791 0.0
H847 H 0.6824 0.93224 0.84514 0.0
H848 H 0.75788 0.94834 0.81774 0.0
H849 H 0.76592 0.99022 0.80055 0.0
H850 H 0.71956 0.89829 0.80711 0.0
H851 H 0.74881 0.95638 0.87912 0.0
H852 H 0.74865 0.98688 0.91113 0.0
H853 H 0.67234 0.92832 0.93626 0.0
H854 H 0.67173 0.89762 0.90397 0.0
H855 H 0.73687 0.80478 0.87592 0.0
H856 H 0.74106 0.84482 0.85787 0.0
H857 H 0.66781 0.82741 0.89242 0.0
H858 H 0.66353 0.78734 0.9106 0.0
H859 H 0.70281 0.87733 0.89923 0.0
H860 H 0.67283 0.81935 0.82778 0.0
H861 H 0.67279 0.78789 0.79683 0.0
H862 H 0.74933 0.84546 0.77117 0.0
H863 H 0.74998 0.87717 0.80222 0.0
C864 C 0.70511 0.96868 0.82538 0.0
C865 C 0.72874 0.98554 0.81283 0.0
C866 C 0.70066 0.9448 0.8354 0.0
C867 C 0.71966 0.93725 0.83295 0.0
C868 C 0.74297 0.95377 0.81991 0.0
C869 C 0.74754 0.97773 0.81012 0.0
C870 C 0.71533 0.91211 0.84381 0.0
C871 C 0.71616 0.89382 0.8273 0.0
C872 C 0.71015 0.90596 0.87007 0.0
C873 C 0.71009 0.92477 0.88886 0.0
C874 C 0.7318 0.95011 0.89117 0.0
C875 C 0.73188 0.96742 0.90942 0.0
C876 C 0.71049 0.95953 0.92568 0.0
C877 C 0.68887 0.9344 0.92361 0.0
C878 C 0.68864 0.91705 0.90531 0.0
C879 C 0.72148 0.80927 0.87945 0.0
C880 C 0.69982 0.79272 0.8947 0.0
C881 C 0.72391 0.83224 0.86912 0.0
C882 C 0.7046 0.83907 0.87352 0.0
C883 C 0.68299 0.82263 0.88877 0.0
C884 C 0.68061 0.79971 0.89921 0.0
C885 C 0.70718 0.86355 0.86254 0.0
C886 C 0.70602 0.88171 0.87901 0.0
C887 C 0.71188 0.86956 0.83623 0.0
C888 C 0.71154 0.85056 0.81749 0.0
C889 C 0.68974 0.82524 0.81567 0.0
C890 C 0.68959 0.80738 0.79809 0.0
C891 C 0.71107 0.81465 0.78209 0.0
C892 C 0.73272 0.83984 0.78359 0.0
C893 C 0.73297 0.85778 0.80116 0.0
H894 H 0.71092 0.8008 0.76848 0.0
H895 H 0.71073 0.9728 0.94002 0.0
H896 H 0.78199 0.76413 0.96745 0.0
H897 H 0.81593 0.75523 0.98263 0.0
H898 H 0.757 0.67664 0.00251 0.0
H899 H 0.72285 0.68537 0.98734 0.0
H900 H 0.79298 0.70142 0.04121 0.0
H901 H 0.79426 0.68639 0.95144 0.0
H902 H 0.7967 0.69713 0.9057 0.0
H903 H 0.87289 0.76411 0.91678 0.0
H904 H 0.87075 0.75398 0.96268 0.0
H905 H 0.88031 0.65544 0.0689 0.0
H906 H 0.84551 0.66084 0.04992 0.0
H907 H 0.90279 0.73725 0.02251 0.0
H908 H 0.93773 0.73179 0.04129 0.0
H909 H 0.86677 0.71236 0.98716 0.0
H910 H 0.8657 0.72879 0.07654 0.0
H911 H 0.86379 0.71923 0.12254 0.0
H912 H 0.78788 0.65147 0.1129 0.0
H913 H 0.78951 0.66038 0.06674 0.0
C914 C 0.77622 0.74487 0.97486 0.0
C915 C 0.74969 0.72544 0.9761 0.0
C916 C 0.79567 0.7398 0.98348 0.0
C917 C 0.78903 0.71523 0.99358 0.0
C918 C 0.76257 0.69573 0.99476 0.0
C919 C 0.74309 0.70072 0.98595 0.0
C920 C 0.80969 0.71017 0.00352 0.0
C921 C 0.8089 0.70339 0.02931 0.0
C922 C 0.83085 0.71346 0.98817 0.0
C923 C 0.83223 0.71955 0.96055 0.0
C924 C 0.81145 0.70353 0.94417 0.0
C925 C 0.81279 0.70949 0.9182 0.0
C926 C 0.83491 0.73133 0.90835 0.0
C927 C 0.85576 0.74722 0.92444 0.0
C928 C 0.8545 0.74136 0.95043 0.0
C929 C 0.8855 0.67342 0.05888 0.0
C930 C 0.91181 0.69328 0.05681 0.0
C931 C 0.86557 0.67649 0.04803 0.0
C932 C 0.87143 0.69966 0.03516 0.0
C933 C 0.89774 0.71921 0.03239 0.0
C934 C 0.91773 0.71605 0.04308 0.0
C935 C 0.85014 0.70364 0.02492 0.0
C936 C 0.85082 0.71027 0.99908 0.0
C937 C 0.82897 0.70041 0.0403 0.0
C938 C 0.82786 0.6951 0.06811 0.0
C939 C 0.84868 0.71173 0.08419 0.0
C940 C 0.84764 0.70645 0.1103 0.0
C941 C 0.82576 0.68472 0.12063 0.0
C942 C 0.80484 0.66827 0.10487 0.0
C943 C 0.80581 0.67343 0.07872 0.0
H944 H 0.82499 0.68066 0.14085 0.0
H945 H 0.83592 0.7359 0.88824 0.0
H946 H 0.21069 0.9291 0.20011 0.0
H947 H 0.16905 0.89388 0.18346 0.0
H948 H 0.17666 0.83816 0.23053 0.0
H949 H 0.21822 0.87323 0.24719 0.0
H950 H 0.16148 0.821 0.18001 0.0
H951 H 0.13677 0.85697 0.24922 0.0
H952 H 0.13631 0.89221 0.27396 0.0
H953 H 0.10182 0.90998 0.21054 0.0
H954 H 0.10268 0.87525 0.18514 0.0
H955 H 0.03163 0.71526 0.16478 0.0
H956 H 0.07341 0.74914 0.18201 0.0
H957 H 0.06178 0.80853 0.14654 0.0
H958 H 0.01944 0.77474 0.1302 0.0
H959 H 0.07941 0.82343 0.19231 0.0
H960 H 0.10555 0.78848 0.12242 0.0
H961 H 0.10664 0.75363 0.09747 0.0
H962 H 0.13837 0.73397 0.16192 0.0
H963 H 0.13717 0.76851 0.18736 0.0
C964 C 0.20354 0.90932 0.20676 0.0
C965 C 0.21764 0.90397 0.22506 0.0
C966 C 0.17972 0.88925 0.19736 0.0
C967 C 0.1697 0.86343 0.2059 0.0
C968 C 0.18401 0.85794 0.22374 0.0
C969 C 0.20764 0.87804 0.23338 0.0
C970 C 0.14416 0.84219 0.1964 0.0
C971 C 0.14346 0.82134 0.18291 0.0
C972 C 0.12076 0.84289 0.19989 0.0
C973 C 0.12006 0.86369 0.21517 0.0
C974 C 0.12932 0.86855 0.24045 0.0
C975 C 0.12894 0.8884 0.25462 0.0
C976 C 0.11904 0.90333 0.24384 0.0
C977 C 0.1095 0.89842 0.21886 0.0
C978 C 0.10995 0.87867 0.20456 0.0
C979 C 0.03807 0.73553 0.16049 0.0
C980 C 0.0223 0.74232 0.14599 0.0
C981 C 0.06203 0.75492 0.17029 0.0
C982 C 0.07106 0.78147 0.16526 0.0
C983 C 0.05532 0.78823 0.15071 0.0
C984 C 0.03115 0.76888 0.14128 0.0
C985 C 0.09665 0.80227 0.17547 0.0
C986 C 0.09738 0.82305 0.18925 0.0
C987 C 0.1201 0.80153 0.17218 0.0
C988 C 0.12107 0.78093 0.15684 0.0
C989 C 0.11263 0.77663 0.13131 0.0
C990 C 0.11328 0.75694 0.11708 0.0
C991 C 0.12251 0.74156 0.12812 0.0
C992 C 0.1312 0.74589 0.1534 0.0
C993 C 0.13057 0.76553 0.16772 0.0
H994 H 0.12299 0.72632 0.11708 0.0
H995 H 0.11874 0.91867 0.25486 0.0
H996 H 0.94586 0.70393 0.5645 0.0
H997 H 0.90673 0.70038 0.54485 0.0
H998 H 0.93389 0.69233 0.47078 0.0
H999 H 0.97371 0.69714 0.49031 0.0
H1000 H 0.91512 0.72252 0.4659 0.0
H1001 H 0.88236 0.63918 0.50512 0.0
H1002 H 0.87468 0.60776 0.53964 0.0
H1003 H 0.83382 0.63793 0.58289 0.0
H1004 H 0.84157 0.66979 0.54877 0.0
H1005 H 0.79226 0.67776 0.40447 0.0
H1006 H 0.83015 0.6782 0.42384 0.0
H1007 H 0.81406 0.70387 0.49508 0.0
H1008 H 0.77589 0.7033 0.47579 0.0
H1009 H 0.82642 0.66335 0.50037 0.0
H1010 H 0.86083 0.74731 0.45851 0.0
H1011 H 0.86761 0.77602 0.42169 0.0
H1012 H 0.90436 0.74029 0.38036 0.0
H1013 H 0.89748 0.7111 0.41684 0.0
C1014 C 0.94344 0.70128 0.54404 0.0
C1015 C 0.96285 0.70075 0.52898 0.0
C1016 C 0.92094 0.69909 0.5328 0.0
C1017 C 0.91696 0.69558 0.5063 0.0
C1018 C 0.93638 0.695 0.49124 0.0
C1019 C 0.95914 0.6977 0.50243 0.0
C1020 C 0.89295 0.69325 0.49428 0.0
C1021 C 0.89574 0.70924 0.47327 0.0
C1022 C 0.86752 0.67621 0.50393 0.0
C1023 C 0.86276 0.65704 0.52448 0.0
C1024 C 0.8719 0.63925 0.52208 0.0
C1025 C 0.86751 0.62134 0.54156 0.0
C1026 C 0.85383 0.62089 0.56347 0.0
C1027 C 0.84445 0.63832 0.56592 0.0
C1028 C 0.84881 0.65629 0.5465 0.0
C1029 C 0.79655 0.68318 0.42435 0.0
C1030 C 0.78101 0.69046 0.43862 0.0
C1031 C 0.81835 0.68362 0.43533 0.0
C1032 C 0.82504 0.69124 0.46085 0.0
C1033 C 0.80927 0.69797 0.47534 0.0
C1034 C 0.78758 0.69778 0.46427 0.0
C1035 C 0.84877 0.69266 0.47226 0.0
C1036 C 0.84587 0.67651 0.49309 0.0
C1037 C 0.87403 0.70913 0.46213 0.0
C1038 C 0.87841 0.72686 0.44031 0.0
C1039 C 0.87018 0.74544 0.4415 0.0
C1040 C 0.87408 0.76183 0.42071 0.0
C1041 C 0.88635 0.75993 0.39868 0.0
C1042 C 0.89483 0.74171 0.39743 0.0
C1043 C 0.89096 0.72526 0.41816 0.0
H1044 H 0.88934 0.77263 0.38259 0.0
H1045 H 0.85045 0.60701 0.57853 0.0
H1046 H 0.2647 0.98823 0.66689 0.0
H1047 H 0.22674 0.95084 0.64747 0.0
H1048 H 0.22609 0.90118 0.70824 0.0
H1049 H 0.26318 0.93865 0.72827 0.0
H1050 H 0.21746 0.90773 0.62755 0.0
H1051 H 0.16618 0.85218 0.72061 0.0
H1052 H 0.16131 0.86203 0.76534 0.0
H1053 H 0.17613 0.93828 0.7433 0.0
H1054 H 0.18076 0.92876 0.69841 0.0
H1055 H 0.11854 0.78095 0.59225 0.0
H1056 H 0.15596 0.81723 0.61292 0.0
H1057 H 0.10536 0.84252 0.6459 0.0
H1058 H 0.06758 0.80528 0.62671 0.0
H1059 H 0.13906 0.84942 0.67893 0.0
H1060 H 0.14482 0.87177 0.59071 0.0
H1061 H 0.14692 0.86639 0.54426 0.0
H1062 H 0.21783 0.86381 0.55357 0.0
H1063 H 0.216 0.86887 0.60013 0.0
C1064 C 0.25632 0.96936 0.6762 0.0
C1065 C 0.26676 0.96649 0.6993 0.0
C1066 C 0.23468 0.94794 0.66501 0.0
C1067 C 0.22317 0.92314 0.67653 0.0
C1068 C 0.23406 0.92017 0.69927 0.0
C1069 C 0.25537 0.94164 0.7107 0.0
C1070 C 0.19979 0.90043 0.66485 0.0
C1071 C 0.20033 0.89499 0.63882 0.0
C1072 C 0.17709 0.88402 0.67927 0.0
C1073 C 0.17408 0.88983 0.70619 0.0
C1074 C 0.1683 0.87101 0.7253 0.0
C1075 C 0.1656 0.87654 0.75069 0.0
C1076 C 0.16849 0.9008 0.75717 0.0
C1077 C 0.17399 0.91954 0.73827 0.0
C1078 C 0.17669 0.91409 0.71286 0.0
C1079 C 0.11511 0.79379 0.60428 0.0
C1080 C 0.08978 0.7901 0.60751 0.0
C1081 C 0.13675 0.81491 0.61583 0.0
C1082 C 0.1337 0.83312 0.63051 0.0
C1083 C 0.10838 0.82894 0.63452 0.0
C1084 C 0.08672 0.80767 0.6233 0.0
C1085 C 0.15676 0.85656 0.64168 0.0
C1086 C 0.15619 0.86211 0.66765 0.0
C1087 C 0.17899 0.87361 0.62694 0.0
C1088 C 0.18009 0.87039 0.59896 0.0
C1089 C 0.16074 0.86983 0.58288 0.0
C1090 C 0.1619 0.86688 0.55653 0.0
C1091 C 0.18244 0.86467 0.54599 0.0
C1092 C 0.20188 0.86542 0.56178 0.0
C1093 C 0.2008 0.86836 0.58815 0.0
H1094 H 0.18334 0.86249 0.5256 0.0
H1095 H 0.16641 0.90505 0.77683 0.0
H1096 H 0.3322 0.26343 0.88577 0.0
H1097 H 0.33243 0.22756 0.86289 0.0
H1098 H 0.2822 0.23083 0.80507 0.0
H1099 H 0.28196 0.26701 0.82782 0.0
H1100 H 0.26686 0.1796 0.82022 0.0
H1101 H 0.34251 0.25418 0.78938 0.0
H1102 H 0.38354 0.29647 0.79153 0.0
H1103 H 0.41954 0.26102 0.83459 0.0
H1104 H 0.37854 0.21854 0.83308 0.0
H1105 H 0.29411 0.0986 0.73607 0.0
H1106 H 0.2909 0.13586 0.75247 0.0
H1107 H 0.33313 0.1371 0.82005 0.0
H1108 H 0.33619 0.0998 0.80387 0.0
H1109 H 0.35154 0.18761 0.7948 0.0
H1110 H 0.27185 0.11252 0.82616 0.0
H1111 H 0.23026 0.07115 0.82092 0.0
H1112 H 0.20156 0.10939 0.77173 0.0
H1113 H 0.24318 0.15094 0.7764 0.0
C1114 C 0.32107 0.25651 0.86827 0.0
C1115 C 0.3071 0.26818 0.85864 0.0
C1116 C 0.32133 0.23605 0.85513 0.0
C1117 C 0.30752 0.22666 0.83215 0.0
C1118 C 0.29302 0.2378 0.82274 0.0
C1119 C 0.29296 0.25851 0.83576 0.0
C1120 C 0.30854 0.20531 0.81811 0.0
C1121 C 0.28532 0.1815 0.81427 0.0
C1122 C 0.33261 0.20775 0.81031 0.0
C1123 C 0.35735 0.23322 0.81135 0.0
C1124 C 0.35909 0.25544 0.79954 0.0
C1125 C 0.38236 0.27944 0.8006 0.0
C1126 C 0.40411 0.28145 0.81324 0.0
C1127 C 0.40265 0.25943 0.82483 0.0
C1128 C 0.3794 0.23538 0.82386 0.0
C1129 C 0.30267 0.10683 0.75443 0.0
C1130 C 0.31528 0.09619 0.76875 0.0
C1131 C 0.30077 0.12804 0.76379 0.0
C1132 C 0.31175 0.13919 0.78749 0.0
C1133 C 0.32453 0.12876 0.80172 0.0
C1134 C 0.32606 0.10731 0.79257 0.0
C1135 C 0.30997 0.16175 0.79759 0.0
C1136 C 0.33308 0.18582 0.80059 0.0
C1137 C 0.28575 0.15967 0.80411 0.0
C1138 C 0.26073 0.13475 0.80139 0.0
C1139 C 0.25677 0.11205 0.81403 0.0
C1140 C 0.23317 0.08858 0.81121 0.0
C1141 C 0.21331 0.08762 0.79594 0.0
C1142 C 0.21698 0.11015 0.78351 0.0
C1143 C 0.24056 0.13367 0.78626 0.0
H1144 H 0.19505 0.06943 0.79378 0.0
H1145 H 0.42212 0.30004 0.81402 0.0
H1146 H 0.02349 0.24564 0.02733 0.0
H1147 H 0.06477 0.25227 0.01 0.0
H1148 H 0.08866 0.33271 0.99349 0.0
H1149 H 0.04757 0.32637 0.01122 0.0
H1150 H 0.08438 0.26431 0.96354 0.0
H1151 H 0.155 0.36976 0.9975 0.0
H1152 H 0.15954 0.39908 0.0331 0.0
H1153 H 0.11551 0.33272 0.08177 0.0
H1154 H 0.111 0.30304 0.04657 0.0
H1155 H 0.2046 0.31214 0.89775 0.0
H1156 H 0.16486 0.30784 0.91621 0.0
H1157 H 0.19306 0.30599 0.99164 0.0
H1158 H 0.23353 0.31181 0.97354 0.0
H1159 H 0.17123 0.33466 0.99272 0.0
H1160 H 0.14649 0.24957 0.95906 0.0
H1161 H 0.14191 0.21799 0.92583 0.0
H1162 H 0.09391 0.23879 0.88141 0.0
H1163 H 0.09862 0.27086 0.91415 0.0
C1164 C 0.0376 0.26482 0.02022 0.0
C1165 C 0.03225 0.2855 0.0208 0.0
C1166 C 0.06116 0.26855 0.0102 0.0
C1167 C 0.07993 0.29302 0.00055 0.0
C1168 C 0.07469 0.31375 0.00117 0.0
C1169 C 0.05115 0.31008 0.01131 0.0
C1170 C 0.10473 0.29661 0.98947 0.0
C1171 C 0.10337 0.27972 0.96991 0.0
C1172 C 0.12956 0.31653 0.9979 0.0
C1173 C 0.13245 0.3342 0.01931 0.0
C1174 C 0.14638 0.36144 0.01583 0.0
C1175 C 0.14893 0.37812 0.03593 0.0
C1176 C 0.13775 0.36776 0.05966 0.0
C1177 C 0.12407 0.34071 0.06336 0.0
C1178 C 0.12149 0.32396 0.04333 0.0
C1179 C 0.20268 0.31117 0.91828 0.0
C1180 C 0.22261 0.31234 0.93402 0.0
C1181 C 0.17966 0.3084 0.92883 0.0
C1182 C 0.17571 0.30621 0.95534 0.0
C1183 C 0.19557 0.30758 0.97112 0.0
C1184 C 0.21871 0.31065 0.96063 0.0
C1185 C 0.1509 0.30237 0.96674 0.0
C1186 C 0.15225 0.31929 0.98628 0.0
C1187 C 0.12605 0.28215 0.95861 0.0
C1188 C 0.12311 0.26279 0.93896 0.0
C1189 C 0.13512 0.24755 0.94211 0.0
C1190 C 0.13251 0.22957 0.92336 0.0
C1191 C 0.11772 0.22646 0.90147 0.0
C1192 C 0.10543 0.24128 0.89833 0.0
C1193 C 0.10807 0.25936 0.91698 0.0
H1194 H 0.11571 0.21253 0.88698 0.0
H1195 H 0.13972 0.3807 0.07518 0.0
H1196 H 0.76103 0.06338 0.2318 0.0
H1197 H 0.79854 0.10136 0.2129 0.0
H1198 H 0.76941 0.07132 0.1376 0.0
H1199 H 0.73244 0.03258 0.15654 0.0
H1200 H 0.81884 0.09002 0.13748 0.0
H1201 H 0.76463 0.12365 0.16666 0.0
H1202 H 0.73836 0.13231 0.19754 0.0
H1203 H 0.8061 0.17534 0.24482 0.0
H1204 H 0.83271 0.16665 0.21438 0.0
H1205 H 0.89755 0.2089 0.07111 0.0
H1206 H 0.8608 0.17071 0.09057 0.0
H1207 H 0.89668 0.19562 0.16461 0.0
H1208 H 0.93339 0.23441 0.14526 0.0
H1209 H 0.84429 0.17993 0.16533 0.0
H1210 H 0.89823 0.14608 0.13352 0.0
H1211 H 0.92319 0.13803 0.10058 0.0
H1212 H 0.85359 0.09605 0.05547 0.0
H1213 H 0.82828 0.10415 0.08801 0.0
C1214 C 0.76258 0.0649 0.21121 0.0
C1215 C 0.74371 0.04506 0.19565 0.0
C1216 C 0.784 0.08673 0.20039 0.0
C1217 C 0.78665 0.0896 0.17376 0.0
C1218 C 0.76786 0.06966 0.15819 0.0
C1219 C 0.74669 0.04754 0.16902 0.0
C1220 C 0.80919 0.11316 0.16218 0.0
C1221 C 0.82411 0.10966 0.14336 0.0
C1222 C 0.81653 0.13891 0.17007 0.0
C1223 C 0.80061 0.14428 0.18835 0.0
C1224 C 0.77389 0.13481 0.18373 0.0
C1225 C 0.75894 0.13974 0.20114 0.0
C1226 C 0.77054 0.15431 0.22316 0.0
C1227 C 0.79713 0.16403 0.22777 0.0
C1228 C 0.81216 0.15913 0.21043 0.0
C1229 C 0.89759 0.20645 0.09156 0.0
C1230 C 0.91844 0.22484 0.10664 0.0
C1231 C 0.87664 0.18442 0.10264 0.0
C1232 C 0.87609 0.18015 0.12902 0.0
C1233 C 0.89676 0.19849 0.14419 0.0
C1234 C 0.91781 0.22055 0.13309 0.0
C1235 C 0.85377 0.15668 0.14074 0.0
C1236 C 0.83892 0.16023 0.15954 0.0
C1237 C 0.84625 0.13103 0.13255 0.0
C1238 C 0.86141 0.12591 0.11311 0.0
C1239 C 0.88828 0.13528 0.1165 0.0
C1240 C 0.90249 0.13069 0.09791 0.0
C1241 C 0.89 0.11659 0.07592 0.0
C1242 C 0.86325 0.10698 0.07251 0.0
C1243 C 0.84896 0.11154 0.09103 0.0
H1244 H 0.90103 0.11306 0.06154 0.0
H1245 H 0.75893 0.1581 0.23662 0.0
H1246 H 0.66382 0.90079 0.2851 0.0
H1247 H 0.66092 0.86166 0.30491 0.0
H1248 H 0.74112 0.88857 0.28432 0.0
H1249 H 0.74408 0.92739 0.26458 0.0
H1250 H 0.7072 0.8362 0.27179 0.0
H1251 H 0.72748 0.89398 0.34405 0.0
H1252 H 0.72037 0.92257 0.37325 0.0
H1253 H 0.64486 0.85849 0.39326 0.0
H1254 H 0.65137 0.82959 0.36388 0.0
H1255 H 0.73017 0.74684 0.34104 0.0
H1256 H 0.73245 0.78614 0.32304 0.0
H1257 H 0.65934 0.76651 0.35957 0.0
H1258 H 0.65785 0.72811 0.37876 0.0
H1259 H 0.68869 0.81526 0.36374 0.0
H1260 H 0.66583 0.75765 0.29202 0.0
H1261 H 0.67029 0.72774 0.26248 0.0
H1262 H 0.74657 0.78917 0.24044 0.0
H1263 H 0.74253 0.81951 0.27 0.0
C1264 C 0.6808 0.89832 0.28491 0.0
C1265 C 0.70422 0.9173 0.27351 0.0
C1266 C 0.67918 0.87607 0.29628 0.0
C1267 C 0.70087 0.8723 0.2962 0.0
C1268 C 0.72418 0.89112 0.28468 0.0
C1269 C 0.7259 0.91345 0.27361 0.0
C1270 C 0.69935 0.84858 0.30771 0.0
C1271 C 0.70341 0.83173 0.29195 0.0
C1272 C 0.69368 0.84237 0.33384 0.0
C1273 C 0.6898 0.8597 0.35156 0.0
C1274 C 0.70926 0.88604 0.3545 0.0
C1275 C 0.70536 0.90229 0.37112 0.0
C1276 C 0.68215 0.89237 0.38505 0.0
C1277 C 0.66281 0.86616 0.38243 0.0
C1278 C 0.66661 0.84983 0.36581 0.0
C1279 C 0.7146 0.75094 0.3452 0.0
C1280 C 0.69382 0.73437 0.36128 0.0
C1281 C 0.7158 0.77335 0.33476 0.0
C1282 C 0.6958 0.7792 0.33947 0.0
C1283 C 0.67506 0.76259 0.35559 0.0
C1284 C 0.67418 0.74055 0.36651 0.0
C1285 C 0.69651 0.80265 0.32784 0.0
C1286 C 0.69234 0.81954 0.34355 0.0
C1287 C 0.70164 0.80869 0.30154 0.0
C1288 C 0.70397 0.79074 0.28338 0.0
C1289 C 0.68359 0.76475 0.28094 0.0
C1290 C 0.68605 0.74772 0.26418 0.0
C1291 C 0.70879 0.7565 0.24969 0.0
C1292 C 0.729 0.7824 0.25173 0.0
C1293 C 0.72661 0.79954 0.26843 0.0
H1294 H 0.71075 0.74327 0.23685 0.0
H1295 H 0.67916 0.90498 0.39791 0.0
H1296 H 0.43955 0.38055 0.42853 0.0
H1297 H 0.47792 0.42387 0.42645 0.0
H1298 H 0.42876 0.45769 0.41453 0.0
H1299 H 0.38993 0.41391 0.41539 0.0
H1300 H 0.47186 0.48119 0.38482 0.0
H1301 H 0.45473 0.46 0.47306 0.0
H1302 H 0.44529 0.43276 0.51159 0.0
H1303 H 0.51857 0.43463 0.50345 0.0
H1304 H 0.52827 0.46155 0.46462 0.0
H1305 H 0.57963 0.60885 0.40964 0.0
H1306 H 0.53713 0.56912 0.41484 0.0
H1307 H 0.57543 0.52352 0.42184 0.0
H1308 H 0.61781 0.56282 0.41601 0.0
H1309 H 0.53518 0.50852 0.45644 0.0
H1310 H 0.54994 0.52629 0.36608 0.0
H1311 H 0.5592 0.55336 0.32745 0.0
H1312 H 0.48993 0.55825 0.34024 0.0
H1313 H 0.48047 0.53151 0.37919 0.0
C1314 C 0.43674 0.39702 0.42484 0.0
C1315 C 0.41148 0.39358 0.42201 0.0
C1316 C 0.45879 0.42192 0.42406 0.0
C1317 C 0.45624 0.44412 0.42087 0.0
C1318 C 0.4312 0.44084 0.41723 0.0
C1319 C 0.40901 0.41581 0.41788 0.0
C1320 C 0.47983 0.47063 0.42171 0.0
C1321 C 0.48545 0.48736 0.40071 0.0
C1322 C 0.49777 0.47862 0.4423 0.0
C1323 C 0.49214 0.46265 0.46581 0.0
C1324 C 0.46876 0.45446 0.47939 0.0
C1325 C 0.46337 0.4391 0.50129 0.0
C1326 C 0.4813 0.43194 0.50993 0.0
C1327 C 0.50469 0.44019 0.49672 0.0
C1328 C 0.51016 0.45552 0.47478 0.0
C1329 C 0.57906 0.59039 0.41235 0.0
C1330 C 0.60227 0.58914 0.41228 0.0
C1331 C 0.55473 0.56771 0.41538 0.0
C1332 C 0.5531 0.54332 0.41845 0.0
C1333 C 0.57623 0.54214 0.41955 0.0
C1334 C 0.60052 0.56474 0.41638 0.0
C1335 C 0.52739 0.5188 0.41939 0.0
C1336 C 0.5214 0.50246 0.44073 0.0
C1337 C 0.50908 0.51124 0.39919 0.0
C1338 C 0.51467 0.52717 0.3757 0.0
C1339 C 0.5368 0.53333 0.36077 0.0
C1340 C 0.54207 0.54858 0.3388 0.0
C1341 C 0.52521 0.55759 0.33143 0.0
C1342 C 0.503 0.5513 0.34599 0.0
C1343 C 0.49767 0.53609 0.36802 0.0
H1344 H 0.52931 0.56939 0.31441 0.0
H1345 H 0.47708 0.42003 0.52689 0.0
H1346 H 0.99429 0.41149 0.62456 0.0
H1347 H 0.99158 0.45111 0.61923 0.0
H1348 H 0.04203 0.47242 0.55361 0.0
H1349 H 0.04359 0.43201 0.55759 0.0
H1350 H 0.05657 0.51117 0.59901 0.0
H1351 H 0.98819 0.45758 0.53842 0.0
H1352 H 0.94701 0.41837 0.52588 0.0
H1353 H 0.90572 0.43457 0.58388 0.0
H1354 H 0.94677 0.47369 0.59702 0.0
H1355 H 0.06083 0.62573 0.55565 0.0
H1356 H 0.05808 0.58332 0.56018 0.0
H1357 H 0.98407 0.55336 0.59902 0.0
H1358 H 0.98623 0.59567 0.59315 0.0
H1359 H 0.98019 0.5177 0.5695 0.0
H1360 H 0.04473 0.57015 0.63061 0.0
H1361 H 0.08458 0.60819 0.64746 0.0
H1362 H 0.13164 0.59323 0.59528 0.0
H1363 H 0.09203 0.5553 0.57787 0.0
C1364 C 1.0042 0.42403 0.60846 0.0
C1365 C 0.01927 0.4183 0.59157 0.0
C1366 C 1.0028 0.44689 0.60564 0.0
C1367 C 0.01673 0.46472 0.58614 0.0
C1368 C 0.03127 0.45894 0.5689 0.0
C1369 C 0.03226 0.43584 0.57135 0.0
C1370 C 0.01727 0.49007 0.58459 0.0
C1371 C 0.04004 0.51275 0.59225 0.0
C1372 C 0.99527 0.49181 0.57686 0.0
C1373 C 0.9706 0.46838 0.5689 0.0
C1374 C 0.97039 0.45263 0.54868 0.0
C1375 C 0.94706 0.43046 0.54142 0.0
C1376 C 0.92378 0.42393 0.55413 0.0
C1377 C 0.92377 0.43962 0.57408 0.0
C1378 C 0.94706 0.4618 0.58143 0.0
C1379 C 0.04412 0.61016 0.56542 0.0
C1380 C 0.02392 0.61408 0.57441 0.0
C1381 C 0.04258 0.58589 0.56809 0.0
C1382 C 0.02117 0.56511 0.58053 0.0
C1383 C 1.00088 0.56901 0.58946 0.0
C1384 C 1.00215 0.5932 0.58624 0.0
C1385 C 0.01981 0.53929 0.58357 0.0
C1386 C 0.99683 0.51637 0.57634 0.0
C1387 C 0.04146 0.53723 0.59234 0.0
C1388 C 0.06537 0.56001 0.60279 0.0
C1389 C 0.06356 0.57508 0.62261 0.0
C1390 C 0.08611 0.59661 0.63227 0.0
C1391 C 0.11062 0.60316 0.62241 0.0
C1392 C 0.11263 0.58815 0.60289 0.0
C1393 C 0.09014 0.56661 0.59313 0.0
H1394 H 0.12805 0.61984 0.62992 0.0
H1395 H 0.90573 0.40676 0.54847 0.0
H1396 H 0.59674 0.98393 0.7373 0.0
H1397 H 0.55212 0.97691 0.73287 0.0
H1398 H 0.57427 0.04652 0.777 0.0
H1399 H 0.61875 0.05389 0.78096 0.0
H1400 H 0.52506 0.99904 0.79199 0.0
H1401 H 0.57126 0.05304 0.71851 0.0
H1402 H 0.59719 0.06266 0.67903 0.0
H1403 H 0.53687 0.99182 0.64521 0.0
H1404 H 0.51074 0.9816 0.68468 0.0
H1405 H 0.42787 0.03348 0.77474 0.0
H1406 H 0.46705 0.03012 0.7793 0.0
H1407 H 0.44412 0.97869 0.71414 0.0
H1408 H 0.40614 0.98386 0.708 0.0
H1409 H 0.49185 0.01112 0.70915 0.0
H1410 H 0.44307 0.95794 0.77911 0.0
H1411 H 0.4163 0.9456 0.81821 0.0
H1412 H 0.479 0.00945 0.85851 0.0
H1413 H 0.50604 0.0224 0.81956 0.0
C1414 C 0.59201 0.99772 0.74591 0.0
C1415 C 0.6112 0.0196 0.7592 0.0
C1416 C 0.56661 0.9937 0.74342 0.0
C1417 C 0.55997 0.01121 0.75465 0.0
C1418 C 0.57902 0.03279 0.76824 0.0
C1419 C 0.60444 0.03708 0.77029 0.0
C1420 C 0.53333 0.0075 0.75206 0.0
C1421 C 0.51773 1.00176 0.77394 0.0
C1422 C 0.52355 0.0102 0.72836 0.0
C1423 C 0.53922 0.0164 0.70465 0.0
C1424 C 0.56365 0.03939 0.70275 0.0
C1425 C 0.57835 0.04498 0.68036 0.0
C1426 C 0.56872 0.02782 0.65966 0.0
C1427 C 0.54433 0.00507 0.66128 0.0
C1428 C 0.52957 0.99937 0.68365 0.0
C1429 C 0.4311 0.02151 0.76126 0.0
C1430 C 0.41366 0.00909 0.7409 0.0
C1431 C 0.45343 0.01923 0.76417 0.0
C1432 C 0.45855 0.00384 0.74729 0.0
C1433 C 0.44071 0.99067 0.72749 0.0
C1434 C 0.41866 0.99336 0.72423 0.0
C1435 C 0.48331 0.00292 0.74926 0.0
C1436 C 0.49872 0.00789 0.72724 0.0
C1437 C 0.49268 0.99899 0.77281 0.0
C1438 C 0.47651 0.99125 0.79634 0.0
C1439 C 0.45109 0.96946 0.79626 0.0
C1440 C 0.43588 0.96234 0.81841 0.0
C1441 C 0.44593 0.97676 0.84082 0.0
C1442 C 0.47124 0.9983 0.84114 0.0
C1443 C 0.48653 0.00552 0.81904 0.0
H1444 H 0.43411 0.97122 0.85794 0.0
H1445 H 0.58013 0.03218 0.64233 0.0
H1446 H 0.58462 0.62001 0.88441 0.0
H1447 H 0.54511 0.57727 0.88057 0.0
H1448 H 0.57143 0.54779 0.9421 0.0
H1449 H 0.61022 0.59074 0.94728 0.0
H1450 H 0.5465 0.51274 0.89476 0.0
H1451 H 0.53328 0.56298 0.9607 0.0
H1452 H 0.53419 0.6026 0.97697 0.0
H1453 H 0.48124 0.59684 0.91781 0.0
H1454 H 0.48039 0.55742 0.90091 0.0
H1455 H 0.42388 0.39813 0.91995 0.0
H1456 H 0.46689 0.43773 0.92415 0.0
H1457 H 0.4365 0.48285 0.88816 0.0
H1458 H 0.3935 0.44373 0.88518 0.0
H1459 H 0.46524 0.50995 0.92411 0.0
H1460 H 0.47725 0.4617 0.85701 0.0
H1461 H 0.47676 0.42369 0.83695 0.0
H1462 H 0.53145 0.42671 0.89277 0.0
H1463 H 0.532 0.46455 0.91336 0.0
C1464 C 0.58214 0.60453 0.89718 0.0
C1465 C 0.60068 0.60918 0.91639 0.0
C1466 C 0.55961 0.58002 0.89476 0.0
C1467 C 0.55536 0.55948 0.91113 0.0
C1468 C 0.57447 0.5634 0.9292 0.0
C1469 C 0.59679 0.58804 0.93198 0.0
C1470 C 0.52995 0.53472 0.91087 0.0
C1471 C 0.52871 0.51192 0.90144 0.0
C1472 C 0.50677 0.53395 0.91904 0.0
C1473 C 0.507 0.55743 0.92938 0.0
C1474 C 0.52203 0.57031 0.95102 0.0
C1475 C 0.5225 0.5927 0.96038 0.0
C1476 C 0.50784 0.60228 0.94839 0.0
C1477 C 0.49262 0.58943 0.92705 0.0
C1478 C 0.49213 0.56705 0.91758 0.0
C1479 C 0.42648 0.41659 0.91313 0.0
C1480 C 0.40536 0.41795 0.90246 0.0
C1481 C 0.45108 0.43919 0.91532 0.0
C1482 C 0.4552 0.46338 0.90613 0.0
C1483 C 0.43397 0.46459 0.89553 0.0
C1484 C 0.40934 0.4422 0.89385 0.0
C1485 C 0.48138 0.48758 0.90762 0.0
C1486 C 0.48287 0.51045 0.9174 0.0
C1487 C 0.50468 0.48846 0.89926 0.0
C1488 C 0.50445 0.46577 0.88688 0.0
C1489 C 0.48903 0.45414 0.86511 0.0
C1490 C 0.48876 0.43264 0.85363 0.0
C1491 C 0.50401 0.42274 0.86363 0.0
C1492 C 0.51962 0.43437 0.88508 0.0
C1493 C 0.51993 0.45585 0.89665 0.0
H1494 H 0.50378 0.4061 0.85471 0.0
H1495 H 0.50822 0.61961 0.95567 0.0
H1496 H 0.98347 0.39812 0.11437 0.0
H1497 H 0.98631 0.44072 0.11762 0.0
H1498 H 0.03598 0.46748 0.05132 0.0
H1499 H 0.0321 0.42454 0.04684 0.0
H1500 H 0.04784 0.50515 0.09958 0.0
H1501 H 0.98388 0.45158 0.0346 0.0
H1502 H 0.9463 0.41024 0.01969 0.0
H1503 H 0.89937 0.41289 0.08091 0.0
H1504 H 0.93687 0.45403 0.09646 0.0
H1505 H 0.02939 0.61423 0.07426 0.0
H1506 H 0.03652 0.57681 0.07009 0.0
H1507 H 0.96324 0.52772 0.10853 0.0
H1508 H 0.95569 0.56458 0.11164 0.0
H1509 H 0.96597 0.50193 0.07164 0.0
H1510 H 0.02645 0.55351 0.13754 0.0
H1511 H 0.06301 0.59308 0.15666 0.0
H1512 H 0.11512 0.59323 0.09944 0.0
H1513 H 0.07877 0.55384 0.07978 0.0
C1514 C 0.99514 0.41302 0.10049 0.0
C1515 C 0.00719 0.40756 0.08008 0.0
C1516 C 0.99694 0.43746 0.10257 0.0
C1517 C 0.01125 0.45711 0.08463 0.0
C1518 C 0.02497 0.45254 0.06542 0.0
C1519 C 0.0228 0.42794 0.06301 0.0
C1520 C 0.00924 0.4811 0.08426 0.0
C1521 C 0.03015 0.50469 0.09316 0.0
C1522 C 0.98591 0.48017 0.07642 0.0
C1523 C 0.96325 0.4557 0.06684 0.0
C1524 C 0.96562 0.44321 0.04502 0.0
C1525 C 0.94433 0.41984 0.03643 0.0
C1526 C 0.92048 0.40891 0.04939 0.0
C1527 C 0.91786 0.42136 0.07092 0.0
C1528 C 0.93913 0.44471 0.07962 0.0
C1529 C 0.01485 0.59537 0.08167 0.0
C1530 C 0.99187 0.59219 0.093 0.0
C1531 C 0.01898 0.57404 0.07946 0.0
C1532 C 1.00054 0.54937 0.08922 0.0
C1533 C 0.9777 0.54639 0.10066 0.0
C1534 C 0.97336 0.56748 0.10241 0.0
C1535 C 0.00452 0.52639 0.08737 0.0
C1536 C 0.98387 0.50277 0.07796 0.0
C1537 C 0.02796 0.52728 0.09522 0.0
C1538 C 0.04983 0.55092 0.10702 0.0
C1539 C 0.04566 0.56211 0.12893 0.0
C1540 C 0.06635 0.58448 0.13988 0.0
C1541 C 0.09135 0.59571 0.12923 0.0
C1542 C 0.09573 0.58454 0.10764 0.0
C1543 C 0.0751 0.56219 0.09659 0.0
H1544 H 0.10735 0.61302 0.13773 0.0
H1545 H 0.90401 0.39081 0.04271 0.0
H1546 H 0.38989 0.94379 0.25946 0.0
H1547 H 0.43339 0.94908 0.257 0.0
H1548 H 0.46687 0.03239 0.24847 0.0
H1549 H 0.42298 0.02716 0.24988 0.0
H1550 H 0.49096 0.01379 0.21753 0.0
H1551 H 0.46855 0.00716 0.3057 0.0
H1552 H 0.44075 0.98805 0.34368 0.0
H1553 H 0.44343 0.91728 0.3335 0.0
H1554 H 0.47091 0.93582 0.29521 0.0
H1555 H 0.619 0.03426 0.24318 0.0
H1556 H 0.57892 0.03657 0.24772 0.0
H1557 H 0.53384 0.95259 0.25374 0.0
H1558 H 0.57344 0.94999 0.2486 0.0
H1559 H 0.51796 0.97656 0.28831 0.0
H1560 H 0.53712 0.98209 0.19815 0.0
H1561 H 0.56458 1.00105 0.15993 0.0
H1562 H 0.56821 0.07437 0.17431 0.0
H1563 H 0.54106 0.05594 0.21285 0.0
C1564 C 0.40634 0.96323 0.25643 0.0
C1565 C 0.40279 0.98506 0.2548 0.0
C1566 C 0.43132 0.96625 0.2554 0.0
C1567 C 0.45347 0.99118 0.25306 0.0
C1568 C 0.45007 0.01297 0.25049 0.0
C1569 C 0.42497 0.00996 0.25144 0.0
C1570 C 0.48006 0.99428 0.25392 0.0
C1571 C 0.49706 0.0061 0.23323 0.0
C1572 C 0.48795 0.98396 0.27426 0.0
C1573 C 0.47164 0.97283 0.29746 0.0
C1574 C 0.46307 0.98746 0.31146 0.0
C1575 C 0.44738 0.97674 0.33306 0.0
C1576 C 0.44029 0.95145 0.34097 0.0
C1577 C 0.44893 0.93686 0.32734 0.0
C1578 C 0.46458 0.94748 0.3057 0.0
C1579 C 0.60057 0.01627 0.24551 0.0
C1580 C 0.59959 0.99193 0.24549 0.0
C1581 C 0.57768 0.01764 0.24816 0.0
C1582 C 0.55334 0.99473 0.25083 0.0
C1583 C 0.5524 0.97054 0.25179 0.0
C1584 C 0.57519 0.96913 0.24902 0.0
C1585 C 0.52863 0.99563 0.25173 0.0
C1586 C 0.51199 0.98456 0.27277 0.0
C1587 C 0.52113 0.00669 0.23176 0.0
C1588 C 0.53733 0.01774 0.20854 0.0
C1589 C 0.54396 1.00232 0.19328 0.0
C1590 C 0.55943 0.01296 0.17154 0.0
C1591 C 0.5682 0.03892 0.16474 0.0
C1592 C 0.56145 0.05428 0.17963 0.0
C1593 C 0.54601 0.04375 0.20142 0.0
H1594 H 0.58017 0.04712 0.1479 0.0
H1595 H 0.42813 0.94318 0.35769 0.0
H1596 H 0.31412 0.30311 0.77539 0.0
H1597 H 0.31085 0.29031 0.73066 0.0
H1598 H 0.33929 0.37023 0.70777 0.0
H1599 H 0.34139 0.38295 0.75223 0.0
H1600 H 0.29839 0.33688 0.679 0.0
H1601 H 0.3793 0.3421 0.70994 0.0
H1602 H 0.40368 0.32913 0.73908 0.0
H1603 H 0.35608 0.2491 0.71602 0.0
H1604 H 0.33134 0.26156 0.68681 0.0
H1605 H 0.36263 0.3571 0.56058 0.0
H1606 H 0.35158 0.35609 0.60588 0.0
H1607 H 0.31121 0.2718 0.60475 0.0
H1608 H 0.32172 0.2728 0.55922 0.0
H1609 H 0.34986 0.2978 0.64571 0.0
H1610 H 0.27391 0.29194 0.61023 0.0
H1611 H 0.2463 0.30182 0.58241 0.0
H1612 H 0.28003 0.37874 0.6147 0.0
H1613 H 0.30825 0.36954 0.64239 0.0
C1614 C 0.31945 0.31795 0.76086 0.0
C1615 C 0.32808 0.34412 0.7675 0.0
C1616 C 0.31776 0.3106 0.73529 0.0
C1617 C 0.32501 0.32936 0.7159 0.0
C1618 C 0.33358 0.35543 0.72244 0.0
C1619 C 0.3351 0.36275 0.74795 0.0
C1620 C 0.32415 0.3222 0.6887 0.0
C1621 C 0.30978 0.32852 0.67166 0.0
C1622 C 0.33798 0.31007 0.67937 0.0
C1623 C 0.35334 0.30273 0.69638 0.0
C1624 C 0.37401 0.32173 0.71114 0.0
C1625 C 0.3879 0.31447 0.72763 0.0
C1626 C 0.38143 0.28829 0.72938 0.0
C1627 C 0.36111 0.26935 0.71458 0.0
C1628 C 0.34717 0.27651 0.69803 0.0
C1629 C 0.35133 0.33843 0.57006 0.0
C1630 C 0.34294 0.31506 0.55661 0.0
C1631 C 0.34492 0.33783 0.59576 0.0
C1632 C 0.33046 0.31386 0.60847 0.0
C1633 C 0.32224 0.29045 0.59515 0.0
C1634 C 0.32815 0.29104 0.56926 0.0
C1635 C 0.3251 0.31365 0.63598 0.0
C1636 C 0.3382 0.30586 0.65306 0.0
C1637 C 0.30983 0.32412 0.64538 0.0
C1638 C 0.29347 0.33013 0.62822 0.0
C1639 C 0.27575 0.31111 0.61116 0.0
C1640 C 0.2599 0.31655 0.59546 0.0
C1641 C 0.26146 0.34092 0.59674 0.0
C1642 C 0.27889 0.3599 0.61369 0.0
C1643 C 0.29481 0.35457 0.62941 0.0
H1644 H 0.2491 0.34506 0.58465 0.0
H1645 H 0.39218 0.28269 0.74218 0.0
H1646 H 0.0172 0.31063 0.72754 0.0
H1647 H 0.00645 0.30346 0.77302 0.0
H1648 H 0.00655 0.37641 0.77681 0.0
H1649 H 0.01629 0.3833 0.73137 0.0
H1650 H 0.04214 0.3727 0.81031 0.0
H1651 H 0.95197 0.32621 0.78724 0.0
H1652 H 0.90996 0.29334 0.76849 0.0
H1653 H 0.91729 0.23184 0.80412 0.0
H1654 H 0.95943 0.26437 0.82305 0.0
H1655 H 0.99473 0.37309 0.9348 0.0
H1656 H 1.00261 0.37409 0.88903 0.0
H1657 H 0.99973 0.29989 0.89416 0.0
H1658 H 0.99077 0.29808 0.9398 0.0
H1659 H 0.96682 0.30168 0.85636 0.0
H1660 H 0.05596 0.35093 0.88293 0.0
H1661 H 0.09373 0.38567 0.90604 0.0
H1662 H 0.08542 0.44416 0.86523 0.0
H1663 H 0.04733 0.40976 0.84214 0.0
C1664 C 0.01429 0.32484 0.73785 0.0
C1665 C 0.01821 0.34787 0.72584 0.0
C1666 C 0.00815 0.32069 0.76386 0.0
C1667 C 0.00597 0.33955 0.77825 0.0
C1668 C 0.00836 0.36174 0.76604 0.0
C1669 C 0.01417 0.36574 0.74008 0.0
C1670 C 0.00444 0.33791 0.80642 0.0
C1671 C 0.02552 0.35731 0.8204 0.0
C1672 C 0.9831 0.31744 0.8195 0.0
C1673 C 0.95911 0.29773 0.8062 0.0
C1674 C 0.94488 0.30566 0.79071 0.0
C1675 C 0.92088 0.2871 0.7803 0.0
C1676 C 0.91093 0.26052 0.78516 0.0
C1677 C 0.92501 0.25244 0.80039 0.0
C1678 C 0.94895 0.27093 0.81096 0.0
C1679 C 0.99566 0.35689 0.92629 0.0
C1680 C 0.99171 0.33533 0.94109 0.0
C1681 C 1.00044 0.35765 0.90013 0.0
C1682 C 1.0016 0.33697 0.88827 0.0
C1683 C 0.99871 0.31592 0.90303 0.0
C1684 C 0.99381 0.31507 0.92919 0.0
C1685 C 1.00421 0.33669 0.86021 0.0
C1686 C 0.9835 0.3169 0.84626 0.0
C1687 C 0.02569 0.35697 0.84715 0.0
C1688 C 0.04864 0.37774 0.86095 0.0
C1689 C 0.06203 0.3712 0.87904 0.0
C1690 C 0.08354 0.39083 0.8921 0.0
C1691 C 0.09193 0.41711 0.88715 0.0
C1692 C 0.07888 0.4238 0.86907 0.0
C1693 C 0.05735 0.40424 0.85596 0.0
H1694 H 0.10859 0.43228 0.89728 0.0
H1695 H 0.89239 0.24619 0.77701 0.0
H1696 H 0.64615 0.02922 0.90048 0.0
H1697 H 0.64298 0.01819 0.94562 0.0
H1698 H 0.71462 0.0159 0.94065 0.0
H1699 H 0.71844 0.02752 0.89554 0.0
H1700 H 0.67517 0.97368 0.96761 0.0
H1701 H 0.71819 0.06667 0.96818 0.0
H1702 H 0.72505 0.11001 0.9561 0.0
H1703 H 0.65135 0.09104 0.98984 0.0
H1704 H 0.6439 0.04738 0.00173 0.0
H1705 H 0.69614 0.97967 0.10362 0.0
H1706 H 0.70207 0.98992 0.05802 0.0
H1707 H 0.62839 0.98836 0.05578 0.0
H1708 H 0.62235 0.97843 0.10139 0.0
H1709 H 0.6711 0.03282 0.03235 0.0
H1710 H 0.63045 0.93928 0.03391 0.0
H1711 H 0.62431 0.89567 0.04314 0.0
H1712 H 0.69598 0.91591 0.0043 0.0
H1713 H 0.70298 0.95995 0.99543 0.0
C1714 C 0.6614 0.0266 0.90891 0.0
C1715 C 0.68266 0.02951 0.89424 0.0
C1716 C 0.65948 0.02018 0.93474 0.0
C1717 C 0.6787 0.01644 0.94648 0.0
C1718 C 0.69957 0.01861 0.93187 0.0
C1719 C 0.70163 0.02519 0.90601 0.0
C1720 C 0.67699 0.01049 0.97409 0.0
C1721 C 0.67481 0.98678 0.98189 0.0
C1722 C 0.676 0.02745 0.99252 0.0
C1723 C 0.68037 0.05368 0.98556 0.0
C1724 C 0.70334 0.07166 0.97277 0.0
C1725 C 0.70736 0.0963 0.96602 0.0
C1726 C 0.6886 0.10325 0.97213 0.0
C1727 C 0.66584 0.0856 0.98508 0.0
C1728 C 0.66172 0.06092 0.99185 0.0
C1729 C 0.68123 0.98165 0.09353 0.0
C1730 C 0.65865 0.97804 0.1062 0.0
C1731 C 0.68456 0.9872 0.06741 0.0
C1732 C 0.66549 0.98944 0.05352 0.0
C1733 C 0.64321 0.98642 0.06615 0.0
C1734 C 0.63973 0.98061 0.09219 0.0
C1735 C 0.66916 0.99585 0.02599 0.0
C1736 C 0.67174 0.01975 0.01818 0.0
C1737 C 0.67089 0.97915 0.00765 0.0
C1738 C 0.66746 0.95316 0.01436 0.0
C1739 C 0.6452 0.93468 0.02777 0.0
C1740 C 0.64146 0.90978 0.03279 0.0
C1741 C 0.65969 0.90299 0.02424 0.0
C1742 C 0.68181 0.92115 0.01082 0.0
C1743 C 0.68573 0.94613 0.00589 0.0
H1744 H 0.65675 0.8837 0.02812 0.0
H1745 H 0.69174 0.12234 0.9669 0.0
H1746 H 0.63997 0.63514 0.0579 0.0
H1747 H 0.64571 0.63221 0.10371 0.0
H1748 H 0.68673 0.71645 0.10891 0.0
H1749 H 0.68177 0.71927 0.06296 0.0
H1750 H 0.70608 0.70293 0.14133 0.0
H1751 H 0.61664 0.6724 0.12494 0.0
H1752 H 0.5733 0.64655 0.10496 0.0
H1753 H 0.56752 0.57586 0.13398 0.0
H1754 H 0.61103 0.60127 0.15387 0.0
H1755 H 0.67919 0.69102 0.2774 0.0
H1756 H 0.67546 0.69916 0.23203 0.0
H1757 H 0.66497 0.62362 0.21302 0.0
H1758 H 0.6689 0.61532 0.25787 0.0
H1759 H 0.62886 0.63699 0.1895 0.0
H1760 H 0.72062 0.67706 0.21208 0.0
H1761 H 0.76133 0.70896 0.23333 0.0
H1762 H 0.75866 0.77165 0.19461 0.0
H1763 H 0.71753 0.74006 0.17358 0.0
C1764 C 0.65018 0.65296 0.06896 0.0
C1765 C 0.66004 0.67738 0.05711 0.0
C1766 C 0.65329 0.65133 0.09516 0.0
C1767 C 0.66537 0.67409 0.11022 0.0
C1768 C 0.67658 0.69855 0.09803 0.0
C1769 C 0.67391 0.70019 0.07172 0.0
C1770 C 0.66578 0.67231 0.13859 0.0
C1771 C 0.689 0.68884 0.15185 0.0
C1772 C 0.64346 0.65417 0.15261 0.0
C1773 C 0.61722 0.63876 0.14073 0.0
C1774 C 0.60621 0.65134 0.12695 0.0
C1775 C 0.5816 0.63676 0.11564 0.0
C1776 C 0.56769 0.60957 0.11815 0.0
C1777 C 0.57834 0.59692 0.13203 0.0
C1778 C 0.60296 0.61141 0.14335 0.0
C1779 C 0.67624 0.67621 0.26355 0.0
C1780 C 0.67433 0.6525 0.27132 0.0
C1781 C 0.67406 0.68091 0.23775 0.0
C1782 C 0.6702 0.66213 0.21933 0.0
C1783 C 0.66785 0.63832 0.22702 0.0
C1784 C 0.67003 0.63359 0.25272 0.0
C1785 C 0.66916 0.66721 0.19187 0.0
C1786 C 0.64575 0.65132 0.17886 0.0
C1787 C 0.69088 0.68701 0.17843 0.0
C1788 C 0.71572 0.706 0.19132 0.0
C1789 C 0.72854 0.69759 0.20819 0.0
C1790 C 0.75174 0.71566 0.22024 0.0
C1791 C 0.76259 0.74234 0.21535 0.0
C1792 C 0.75026 0.75096 0.19837 0.0
C1793 C 0.72695 0.73294 0.18642 0.0
H1794 H 0.78056 0.75632 0.22469 0.0
H1795 H 0.54863 0.59832 0.10938 0.0
H1796 H 0.9816 0.69297 0.22591 0.0
H1797 H 0.99368 0.70267 0.2706 0.0
H1798 H 0.98339 0.62572 0.2811 0.0
H1799 H 0.97223 0.61598 0.23622 0.0
H1800 H 0.95886 0.63947 0.31861 0.0
H1801 H 0.0432 0.67688 0.27661 0.0
H1802 H 0.07609 0.70552 0.24507 0.0
H1803 H 0.07809 0.77269 0.27892 0.0
H1804 H 0.04489 0.74438 0.31045 0.0
H1805 H 0.02302 0.64712 0.43402 0.0
H1806 H 0.01094 0.6431 0.38889 0.0
H1807 H 0.02409 0.72182 0.38943 0.0
H1808 H 0.03628 0.72593 0.43465 0.0
H1809 H 0.04578 0.71083 0.34664 0.0
H1810 H 0.96452 0.67597 0.38956 0.0
H1811 H 0.93026 0.64891 0.42067 0.0
H1812 H 0.92074 0.57923 0.38501 0.0
H1813 H 0.95529 0.6059 0.35391 0.0
C1814 C 0.98221 0.67812 0.23743 0.0
C1815 C 0.97589 0.6536 0.22712 0.0
C1816 C 0.98899 0.68372 0.26313 0.0
C1817 C 0.98941 0.66491 0.27911 0.0
C1818 C 0.98302 0.64045 0.26906 0.0
C1819 C 0.97653 0.6349 0.24333 0.0
C1820 C 0.99645 0.6706 0.30639 0.0
C1821 C 0.97796 0.65487 0.32475 0.0
C1822 C 0.021 0.69139 0.31433 0.0
C1823 C 0.04136 0.70848 0.29572 0.0
C1824 C 0.05052 0.69774 0.27723 0.0
C1825 C 0.06923 0.71391 0.25936 0.0
C1826 C 0.07911 0.7409 0.25993 0.0
C1827 C 0.07038 0.75178 0.27846 0.0
C1828 C 0.05164 0.73568 0.29635 0.0
C1829 C 0.02347 0.66359 0.42447 0.0
C1830 C 0.03046 0.68677 0.43783 0.0
C1831 C 0.01645 0.66125 0.39877 0.0
C1832 C 0.01646 0.68211 0.38592 0.0
C1833 C 0.0239 0.70549 0.39906 0.0
C1834 C 0.03064 0.70772 0.42488 0.0
C1835 C 0.00843 0.6792 0.35881 0.0
C1836 C 0.02665 0.6955 0.34051 0.0
C1837 C 0.98349 0.65915 0.35089 0.0
C1838 C 0.9627 0.64295 0.36955 0.0
C1839 C 0.95531 0.65488 0.3885 0.0
C1840 C 0.9358 0.63961 0.4061 0.0
C1841 C 0.92338 0.61237 0.40486 0.0
C1842 C 0.93041 0.60034 0.38597 0.0
C1843 C 0.94995 0.61553 0.36833 0.0
H1844 H 0.90826 0.60058 0.4185 0.0
H1845 H 0.09355 0.75339 0.24605 0.0
H1846 H 0.3141 0.02454 0.60178 0.0
H1847 H 0.30542 0.01367 0.55642 0.0
H1848 H 0.36333 0.98944 0.5557 0.0
H1849 H 0.3722 1.00056 0.60085 0.0
H1850 H 0.3719 0.02189 0.51833 0.0
H1851 H 0.29693 0.94553 0.55127 0.0
H1852 H 0.25646 0.9206 0.5763 0.0
H1853 H 0.21965 0.9551 0.53309 0.0
H1854 H 0.26005 0.98059 0.50806 0.0
H1855 H 0.3437 0.95087 0.40343 0.0
H1856 H 0.34435 0.96065 0.4485 0.0
H1857 H 0.30735 0.00615 0.43253 0.0
H1858 H 0.30748 0.99741 0.38688 0.0
H1859 H 0.28606 0.96512 0.47707 0.0
H1860 H 0.363 0.04215 0.44522 0.0
H1861 H 0.40346 0.06471 0.41962 0.0
H1862 H 0.436 0.02524 0.46161 0.0
H1863 H 0.39557 1.00222 0.48714 0.0
C1864 C 0.32459 0.01644 0.59202 0.0
C1865 C 0.34397 0.01356 0.60477 0.0
C1866 C 0.31962 0.01022 0.56611 0.0
C1867 C 0.3337 1.0007 0.55265 0.0
C1868 C 0.35235 0.99693 0.56565 0.0
C1869 C 0.35746 0.00333 0.59141 0.0
C1870 C 0.33058 0.99647 0.52467 0.0
C1871 C 0.3531 0.00927 0.50945 0.0
C1872 C 0.30598 0.98052 0.5129 0.0
C1873 C 0.28167 0.96526 0.528 0.0
C1874 C 0.2803 0.94803 0.54727 0.0
C1875 C 0.25736 0.93374 0.56143 0.0
C1876 C 0.23554 0.93636 0.55636 0.0
C1877 C 0.23659 0.95316 0.53705 0.0
C1878 C 0.25951 0.96753 0.52286 0.0
C1879 C 0.33593 0.96322 0.40919 0.0
C1880 C 0.32566 0.97342 0.39121 0.0
C1881 C 0.33609 0.96854 0.43511 0.0
C1882 C 0.32578 0.98396 0.44375 0.0
C1883 C 0.31515 0.99396 0.42615 0.0
C1884 C 0.31524 0.98889 0.40005 0.0
C1885 C 0.32736 0.99033 0.47118 0.0
C1886 C 0.30467 0.97793 0.48617 0.0
C1887 C 0.35178 0.00637 0.48292 0.0
C1888 C 0.3762 0.0203 0.46783 0.0
C1889 C 0.37872 0.03813 0.44875 0.0
C1890 C 0.40164 0.05103 0.43432 0.0
C1891 C 0.42225 0.04634 0.43893 0.0
C1892 C 0.42001 0.02882 0.45804 0.0
C1893 C 0.3971 0.01587 0.47251 0.0
H1894 H 0.43999 0.05633 0.42774 0.0
H1895 H 0.21781 0.92533 0.56737 0.0
loop_
_geom_bond_atom_site_label_1
_geom_bond_atom_site_label_2
_geom_bond_distance
_geom_bond_site_symmetry_2
_ccdc_geom_bond_type
C0 C1 1.351 . S
C0 N3 1.368 . S
C0 H5 0.931 . S
C1 C0 1.351 . S
C1 N2 1.373 . S
C1 H29 0.930 . S
N2 C1 1.373 . S
N2 C4 1.340 . S
N3 C0 1.368 . S
N3 C4 1.321 . S
N3 Co6 2.135 . S
C4 N2 1.340 . S
C4 N3 1.321 . S
C4 H28 0.930 . S
H5 C0 0.931 . S
Co6 N3 2.135 . S
Co6 N9 2.121 . S
Co6 O14 2.055 . S
Co6 O17 2.039 . S
Co6 N20 2.140 . S
C7 O8 1.227 . S
C7 O17 1.265 . S
O8 C7 1.227 . S
N9 Co6 2.121 . S
N9 C11 1.375 . S
N9 C12 1.313 . S
C10 C11 1.338 . S
C10 N13 1.377 . S
C10 H30 0.930 . S
C11 N9 1.375 . S
C11 C10 1.338 . S
C11 H15 0.931 . S
C12 N9 1.313 . S
C12 N13 1.344 . S
C12 H16 0.930 . S
N13 C10 1.377 . S
N13 C12 1.344 . S
O14 Co6 2.055 . S
O14 C18 1.253 . S
H15 C11 0.931 . S
H16 C12 0.930 . S
O17 Co6 2.039 . S
O17 C7 1.265 . S
C18 O14 1.253 . S
C18 O19 1.227 . S
O19 C18 1.227 . S
N20 Co6 2.140 . S
N20 C23 1.346 . S
N20 C24 1.345 . S
C21 C22 1.387 . S
C21 C25 1.391 . S
C22 C21 1.387 . S
C22 C23 1.369 . S
C22 H31 0.929 . S
C23 N20 1.346 . S
C23 C22 1.369 . S
C23 H26 0.928 . S
C24 N20 1.345 . S
C24 C25 1.371 . S
C24 H27 0.931 . S
C25 C21 1.391 . S
C25 C24 1.371 . S
C25 H32 0.930 . S
H26 C23 0.928 . S
H27 C24 0.931 . S
H28 C4 0.930 . S
H29 C1 0.930 . S
H30 C10 0.930 . S
H31 C22 0.929 . S
H32 C25 0.930 . S
C33 C34 1.351 . S
C33 N36 1.368 . S
C33 H38 0.931 . S
C34 C33 1.351 . S
C34 N35 1.373 . S
C34 H62 0.930 . S
N35 C34 1.373 . S
N35 C37 1.340 . S
N36 C33 1.368 . S
N36 C37 1.321 . S
N36 Co39 2.135 . S
C37 N35 1.340 . S
C37 N36 1.321 . S
C37 H61 0.930 . S
H38 C33 0.931 . S
Co39 N36 2.135 . S
Co39 N42 2.121 . S
Co39 O47 2.055 . S
Co39 O50 2.039 . S
Co39 N53 2.140 . S
C40 O41 1.227 . S
C40 O50 1.265 1_655 S
O41 C40 1.227 . S
N42 Co39 2.121 . S
N42 C44 1.375 . S
N42 C45 1.313 . S
C43 C44 1.338 . S
C43 N46 1.377 . S
C43 H63 0.930 . S
C44 N42 1.375 . S
C44 C43 1.338 . S
C44 H48 0.931 . S
C45 N42 1.313 . S
C45 N46 1.344 . S
C45 H49 0.930 . S
N46 C43 1.377 . S
N46 C45 1.344 . S
O47 Co39 2.055 . S
O47 C51 1.253 . S
H48 C44 0.931 . S
H49 C45 0.930 . S
O50 Co39 2.039 . S
O50 C40 1.265 1_455 S
C51 O47 1.253 . S
C51 O52 1.227 . S
O52 C51 1.227 . S
N53 Co39 2.140 . S
N53 C56 1.346 . S
N53 C57 1.345 . S
C54 C55 1.387 . S
C54 C58 1.391 . S
C55 C54 1.387 . S
C55 C56 1.369 . S
C55 H64 0.929 . S
C56 N53 1.346 . S
C56 C55 1.369 . S
C56 H59 0.928 . S
C57 N53 1.345 . S
C57 C58 1.371 . S
C57 H60 0.931 . S
C58 C54 1.391 . S
C58 C57 1.371 . S
C58 H65 0.930 . S
H59 C56 0.928 . S
H60 C57 0.931 . S
H61 C37 0.930 . S
H62 C34 0.930 . S
H63 C43 0.930 . S
H64 C55 0.929 . S
H65 C58 0.930 . S
C66 C67 1.351 . S
C66 N69 1.368 . S
C66 H71 0.931 . S
C67 C66 1.351 . S
C67 N68 1.373 . S
C67 H95 0.930 . S
N68 C67 1.373 . S
N68 C70 1.340 . S
N69 C66 1.368 . S
N69 C70 1.321 . S
N69 Co72 2.135 . S
C70 N68 1.340 . S
C70 N69 1.321 . S
C70 H94 0.930 . S
H71 C66 0.931 . S
Co72 N69 2.135 . S
Co72 N75 2.121 . S
Co72 O80 2.055 . S
Co72 O83 2.039 . S
Co72 N86 2.140 . S
C73 O74 1.227 . S
C73 O83 1.265 1_565 S
O74 C73 1.227 . S
N75 Co72 2.121 . S
N75 C77 1.375 . S
N75 C78 1.313 . S
C76 C77 1.338 . S
C76 N79 1.377 . S
C76 H96 0.930 . S
C77 N75 1.375 . S
C77 C76 1.338 . S
C77 H81 0.931 . S
C78 N75 1.313 . S
C78 N79 1.344 . S
C78 H82 0.930 . S
N79 C76 1.377 . S
N79 C78 1.344 . S
O80 Co72 2.055 . S
O80 C84 1.253 . S
H81 C77 0.931 . S
H82 C78 0.930 . S
O83 Co72 2.039 . S
O83 C73 1.265 1_545 S
C84 O80 1.253 . S
C84 O85 1.227 . S
O85 C84 1.227 . S
N86 Co72 2.140 . S
N86 C89 1.346 . S
N86 C90 1.345 . S
C87 C88 1.387 . S
C87 C91 1.391 . S
C88 C87 1.387 . S
C88 C89 1.369 . S
C88 H97 0.929 . S
C89 N86 1.346 . S
C89 C88 1.369 . S
C89 H92 0.928 . S
C90 N86 1.345 . S
C90 C91 1.371 . S
C90 H93 0.931 . S
C91 C87 1.391 . S
C91 C90 1.371 . S
C91 H98 0.930 . S
H92 C89 0.928 . S
H93 C90 0.931 . S
H94 C70 0.930 . S
H95 C67 0.930 . S
H96 C76 0.930 . S
H97 C88 0.929 . S
H98 C91 0.930 . S
C99 C100 1.351 . S
C99 N102 1.368 . S
C99 H104 0.931 . S
C100 C99 1.351 . S
C100 N101 1.373 . S
C100 H128 0.930 . S
N101 C100 1.373 . S
N101 C103 1.340 . S
N102 C99 1.368 . S
N102 C103 1.321 . S
N102 Co105 2.135 1_554 S
C103 N101 1.340 . S
C103 N102 1.321 . S
C103 H127 0.930 . S
H104 C99 0.931 . S
Co105 N102 2.135 1_556 S
Co105 N108 2.121 . S
Co105 O113 2.055 1_556 S
Co105 O116 2.039 . S
Co105 N119 2.140 . S
C106 O107 1.227 . S
C106 O116 1.265 . S
O107 C106 1.227 . S
N108 Co105 2.121 . S
N108 C110 1.375 . S
N108 C111 1.313 . S
C109 C110 1.338 . S
C109 N112 1.377 . S
C109 H129 0.930 . S
C110 N108 1.375 . S
C110 C109 1.338 . S
C110 H114 0.931 . S
C111 N108 1.313 . S
C111 N112 1.344 . S
C111 H115 0.930 . S
N112 C109 1.377 . S
N112 C111 1.344 . S
O113 Co105 2.055 1_554 S
O113 C117 1.253 . S
H114 C110 0.931 . S
H115 C111 0.930 . S
O116 Co105 2.039 . S
O116 C106 1.265 . S
C117 O113 1.253 . S
C117 O118 1.227 1_554 S
O118 C117 1.227 1_556 S
N119 Co105 2.140 . S
N119 C122 1.346 . S
N119 C123 1.345 . S
C120 C121 1.387 . S
C120 C124 1.391 . S
C121 C120 1.387 . S
C121 C122 1.369 . S
C121 H130 0.929 . S
C122 N119 1.346 . S
C122 C121 1.369 . S
C122 H125 0.928 . S
C123 N119 1.345 . S
C123 C124 1.371 . S
C123 H126 0.931 . S
C124 C120 1.391 . S
C124 C123 1.371 . S
C124 H131 0.930 . S
H125 C122 0.928 . S
H126 C123 0.931 . S
H127 C103 0.930 . S
H128 C100 0.930 . S
H129 C109 0.930 . S
H130 C121 0.929 . S
H131 C124 0.930 . S
C132 C133 1.351 . S
C132 N135 1.368 . S
C132 H137 0.931 . S
C133 C132 1.351 . S
C133 N134 1.373 . S
C133 H161 0.930 . S
N134 C133 1.373 . S
N134 C136 1.340 . S
N135 C132 1.368 . S
N135 C136 1.321 . S
N135 Co138 2.135 . S
C136 N134 1.340 . S
C136 N135 1.321 . S
C136 H160 0.930 . S
H137 C132 0.931 . S
Co138 N135 2.135 . S
Co138 N141 2.121 . S
Co138 O146 2.055 . S
Co138 O149 2.039 . S
Co138 N152 2.140 . S
C139 O140 1.227 . S
C139 O149 1.265 1_455 S
O140 C139 1.227 . S
N141 Co138 2.121 . S
N141 C143 1.375 . S
N141 C144 1.313 . S
C142 C143 1.338 . S
C142 N145 1.377 . S
C142 H162 0.930 . S
C143 N141 1.375 . S
C143 C142 1.338 . S
C143 H147 0.931 . S
C144 N141 1.313 . S
C144 N145 1.344 . S
C144 H148 0.930 . S
N145 C142 1.377 . S
N145 C144 1.344 . S
O146 Co138 2.055 . S
O146 C150 1.253 . S
H147 C143 0.931 . S
H148 C144 0.930 . S
O149 Co138 2.039 . S
O149 C139 1.265 1_655 S
C150 O146 1.253 . S
C150 O151 1.227 . S
O151 C150 1.227 . S
N152 Co138 2.140 . S
N152 C155 1.346 . S
N152 C156 1.345 . S
C153 C154 1.387 . S
C153 C157 1.391 . S
C154 C153 1.387 . S
C154 C155 1.369 . S
C154 H163 0.929 . S
C155 N152 1.346 . S
C155 C154 1.369 . S
C155 H158 0.928 . S
C156 N152 1.345 . S
C156 C157 1.371 . S
C156 H159 0.931 . S
C157 C153 1.391 . S
C157 C156 1.371 . S
C157 H164 0.930 . S
H158 C155 0.928 . S
H159 C156 0.931 . S
H160 C136 0.930 . S
H161 C133 0.930 . S
H162 C142 0.930 . S
H163 C154 0.929 . S
H164 C157 0.930 . S
C165 C166 1.351 . S
C165 N168 1.368 . S
C165 H170 0.931 . S
C166 C165 1.351 . S
C166 N167 1.373 . S
C166 H194 0.930 . S
N167 C166 1.373 . S
N167 C169 1.340 . S
N168 C165 1.368 . S
N168 C169 1.321 . S
N168 Co171 2.135 . S
C169 N167 1.340 . S
C169 N168 1.321 . S
C169 H193 0.930 . S
H170 C165 0.931 . S
Co171 N168 2.135 . S
Co171 N174 2.121 . S
Co171 O179 2.055 . S
Co171 O182 2.039 . S
Co171 N185 2.140 . S
C172 O173 1.227 . S
C172 O182 1.265 1_545 S
O173 C172 1.227 . S
N174 Co171 2.121 . S
N174 C176 1.375 . S
N174 C177 1.313 . S
C175 C176 1.338 . S
C175 N178 1.377 . S
C175 H195 0.930 . S
C176 N174 1.375 . S
C176 C175 1.338 . S
C176 H180 0.931 . S
C177 N174 1.313 . S
C177 N178 1.344 . S
C177 H181 0.930 . S
N178 C175 1.377 . S
N178 C177 1.344 . S
O179 Co171 2.055 . S
O179 C183 1.253 . S
H180 C176 0.931 . S
H181 C177 0.930 . S
O182 Co171 2.039 . S
O182 C172 1.265 1_565 S
C183 O179 1.253 . S
C183 O184 1.227 . S
O184 C183 1.227 . S
N185 Co171 2.140 . S
N185 C188 1.346 . S
N185 C189 1.345 . S
C186 C187 1.387 . S
C186 C190 1.391 . S
C187 C186 1.387 . S
C187 C188 1.369 . S
C187 H196 0.929 . S
C188 N185 1.346 . S
C188 C187 1.369 . S
C188 H191 0.928 . S
C189 N185 1.345 . S
C189 C190 1.371 . S
C189 H192 0.931 . S
C190 C186 1.391 . S
C190 C189 1.371 . S
C190 H197 0.930 . S
H191 C188 0.928 . S
H192 C189 0.931 . S
H193 C169 0.930 . S
H194 C166 0.930 . S
H195 C175 0.930 . S
H196 C187 0.929 . S
H197 C190 0.930 . S
C198 C199 1.351 . S
C198 N201 1.368 . S
C198 H203 0.931 . S
C199 C198 1.351 . S
C199 N200 1.373 . S
C199 H227 0.930 . S
N200 C199 1.373 . S
N200 C202 1.340 . S
N201 C198 1.368 . S
N201 C202 1.321 . S
N201 Co204 2.135 . S
C202 N200 1.340 . S
C202 N201 1.321 . S
C202 H226 0.930 . S
H203 C198 0.931 . S
Co204 N201 2.135 . S
Co204 N207 2.121 . S
Co204 O212 2.055 . S
Co204 O215 2.039 . S
Co204 N218 2.140 . S
C205 O206 1.227 . S
C205 O215 1.265 . S
O206 C205 1.227 . S
N207 Co204 2.121 . S
N207 C209 1.375 . S
N207 C210 1.313 . S
C208 C209 1.338 . S
C208 N211 1.377 . S
C208 H228 0.930 . S
C209 N207 1.375 . S
C209 C208 1.338 . S
C209 H213 0.931 . S
C210 N207 1.313 . S
C210 N211 1.344 . S
C210 H214 0.930 . S
N211 C208 1.377 . S
N211 C210 1.344 . S
O212 Co204 2.055 . S
O212 C216 1.253 . S
H213 C209 0.931 . S
H214 C210 0.930 . S
O215 Co204 2.039 . S
O215 C205 1.265 . S
C216 O212 1.253 . S
C216 O217 1.227 . S
O217 C216 1.227 . S
N218 Co204 2.140 . S
N218 C221 1.346 . S
N218 C222 1.345 . S
C219 C220 1.387 . S
C219 C223 1.391 . S
C220 C219 1.387 . S
C220 C221 1.369 . S
C220 H229 0.929 . S
C221 N218 1.346 . S
C221 C220 1.369 . S
C221 H224 0.928 . S
C222 N218 1.345 . S
C222 C223 1.371 . S
C222 H225 0.931 . S
C223 C219 1.391 . S
C223 C222 1.371 . S
C223 H230 0.930 . S
H224 C221 0.928 . S
H225 C222 0.931 . S
H226 C202 0.930 . S
H227 C199 0.930 . S
H228 C208 0.930 . S
H229 C220 0.929 . S
H230 C223 0.930 . S
C231 C232 1.351 . S
C231 N234 1.368 . S
C231 H236 0.931 . S
C232 C231 1.351 . S
C232 N233 1.373 . S
C232 H260 0.930 . S
N233 C232 1.373 . S
N233 C235 1.340 . S
N234 C231 1.368 . S
N234 C235 1.321 . S
N234 Co237 2.135 . S
C235 N233 1.340 . S
C235 N234 1.321 . S
C235 H259 0.930 . S
H236 C231 0.931 . S
Co237 N234 2.135 . S
Co237 N240 2.121 . S
Co237 O245 2.055 . S
Co237 O248 2.039 . S
Co237 N251 2.140 . S
C238 O239 1.227 . S
C238 O248 1.265 1_655 S
O239 C238 1.227 . S
N240 Co237 2.121 . S
N240 C242 1.375 . S
N240 C243 1.313 . S
C241 C242 1.338 . S
C241 N244 1.377 . S
C241 H261 0.930 . S
C242 N240 1.375 . S
C242 C241 1.338 . S
C242 H246 0.931 . S
C243 N240 1.313 . S
C243 N244 1.344 . S
C243 H247 0.930 . S
N244 C241 1.377 . S
N244 C243 1.344 . S
O245 Co237 2.055 . S
O245 C249 1.253 . S
H246 C242 0.931 . S
H247 C243 0.930 . S
O248 Co237 2.039 . S
O248 C238 1.265 1_455 S
C249 O245 1.253 . S
C249 O250 1.227 . S
O250 C249 1.227 . S
N251 Co237 2.140 . S
N251 C254 1.346 . S
N251 C255 1.345 . S
C252 C253 1.387 . S
C252 C256 1.391 . S
C253 C252 1.387 . S
C253 C254 1.369 . S
C253 H262 0.929 . S
C254 N251 1.346 . S
C254 C253 1.369 . S
C254 H257 0.928 . S
C255 N251 1.345 . S
C255 C256 1.371 . S
C255 H258 0.931 . S
C256 C252 1.391 . S
C256 C255 1.371 . S
C256 H263 0.930 . S
H257 C254 0.928 . S
H258 C255 0.931 . S
H259 C235 0.930 . S
H260 C232 0.930 . S
H261 C241 0.930 . S
H262 C253 0.929 . S
H263 C256 0.930 . S
C264 C265 1.351 . S
C264 N267 1.368 . S
C264 H269 0.931 . S
C265 C264 1.351 . S
C265 N266 1.373 . S
C265 H293 0.930 . S
N266 C265 1.373 . S
N266 C268 1.340 . S
N267 C264 1.368 . S
N267 C268 1.321 . S
N267 Co270 2.135 . S
C268 N266 1.340 . S
C268 N267 1.321 . S
C268 H292 0.930 . S
H269 C264 0.931 . S
Co270 N267 2.135 . S
Co270 N273 2.121 . S
Co270 O278 2.055 . S
Co270 O281 2.039 . S
Co270 N284 2.140 . S
C271 O272 1.227 . S
C271 O281 1.265 1_565 S
O272 C271 1.227 . S
N273 Co270 2.121 . S
N273 C275 1.375 . S
N273 C276 1.313 . S
C274 C275 1.338 . S
C274 N277 1.377 . S
C274 H294 0.930 . S
C275 N273 1.375 . S
C275 C274 1.338 . S
C275 H279 0.931 . S
C276 N273 1.313 . S
C276 N277 1.344 . S
C276 H280 0.930 . S
N277 C274 1.377 . S
N277 C276 1.344 . S
O278 Co270 2.055 . S
O278 C282 1.253 . S
H279 C275 0.931 . S
H280 C276 0.930 . S
O281 Co270 2.039 . S
O281 C271 1.265 1_545 S
C282 O278 1.253 . S
C282 O283 1.227 . S
O283 C282 1.227 . S
N284 Co270 2.140 . S
N284 C287 1.346 . S
N284 C288 1.345 . S
C285 C286 1.387 . S
C285 C289 1.391 . S
C286 C285 1.387 . S
C286 C287 1.369 . S
C286 H295 0.929 . S
C287 N284 1.346 . S
C287 C286 1.369 . S
C287 H290 0.928 . S
C288 N284 1.345 . S
C288 C289 1.371 . S
C288 H291 0.931 . S
C289 C285 1.391 . S
C289 C288 1.371 . S
C289 H296 0.930 . S
H290 C287 0.928 . S
H291 C288 0.931 . S
H292 C268 0.930 . S
H293 C265 0.930 . S
H294 C274 0.930 . S
H295 C286 0.929 . S
H296 C289 0.930 . S
C297 C298 1.351 . S
C297 N300 1.368 . S
C297 H302 0.931 . S
C298 C297 1.351 . S
C298 N299 1.373 . S
C298 H326 0.930 . S
N299 C298 1.373 . S
N299 C301 1.340 . S
N300 C297 1.368 . S
N300 C301 1.321 . S
N300 Co303 2.135 . S
C301 N299 1.340 . S
C301 N300 1.321 . S
C301 H325 0.930 . S
H302 C297 0.931 . S
Co303 N300 2.135 . S
Co303 N306 2.121 . S
Co303 O311 2.055 . S
Co303 O314 2.039 . S
Co303 N317 2.140 . S
C304 O305 1.227 . S
C304 O314 1.265 . S
O305 C304 1.227 . S
N306 Co303 2.121 . S
N306 C308 1.375 . S
N306 C309 1.313 . S
C307 C308 1.338 . S
C307 N310 1.377 . S
C307 H327 0.930 . S
C308 N306 1.375 . S
C308 C307 1.338 . S
C308 H312 0.931 . S
C309 N306 1.313 . S
C309 N310 1.344 . S
C309 H313 0.930 . S
N310 C307 1.377 . S
N310 C309 1.344 . S
O311 Co303 2.055 . S
O311 C315 1.253 . S
H312 C308 0.931 . S
H313 C309 0.930 . S
O314 Co303 2.039 . S
O314 C304 1.265 . S
C315 O311 1.253 . S
C315 O316 1.227 . S
O316 C315 1.227 . S
N317 Co303 2.140 . S
N317 C320 1.346 . S
N317 C321 1.345 . S
C318 C319 1.387 . S
C318 C322 1.391 . S
C319 C318 1.387 . S
C319 C320 1.369 . S
C319 H328 0.929 . S
C320 N317 1.346 . S
C320 C319 1.369 . S
C320 H323 0.928 . S
C321 N317 1.345 . S
C321 C322 1.371 . S
C321 H324 0.931 . S
C322 C318 1.391 . S
C322 C321 1.371 . S
C322 H329 0.930 . S
H323 C320 0.928 . S
H324 C321 0.931 . S
H325 C301 0.930 . S
H326 C298 0.930 . S
H327 C307 0.930 . S
H328 C319 0.929 . S
H329 C322 0.930 . S
C330 C331 1.351 . S
C330 N333 1.368 . S
C330 H335 0.931 . S
C331 C330 1.351 . S
C331 N332 1.373 . S
C331 H359 0.930 . S
N332 C331 1.373 . S
N332 C334 1.340 . S
N333 C330 1.368 . S
N333 C334 1.321 . S
N333 Co336 2.135 1_556 S
C334 N332 1.340 . S
C334 N333 1.321 . S
C334 H358 0.930 . S
H335 C330 0.931 . S
Co336 N333 2.135 1_554 S
Co336 N339 2.121 . S
Co336 O344 2.055 1_554 S
Co336 O347 2.039 . S
Co336 N350 2.140 . S
C337 O338 1.227 . S
C337 O347 1.265 1_455 S
O338 C337 1.227 . S
N339 Co336 2.121 . S
N339 C341 1.375 . S
N339 C342 1.313 . S
C340 C341 1.338 . S
C340 N343 1.377 . S
C340 H360 0.930 . S
C341 N339 1.375 . S
C341 C340 1.338 . S
C341 H345 0.931 . S
C342 N339 1.313 . S
C342 N343 1.344 . S
C342 H346 0.930 . S
N343 C340 1.377 . S
N343 C342 1.344 . S
O344 Co336 2.055 1_556 S
O344 C348 1.253 . S
H345 C341 0.931 . S
H346 C342 0.930 . S
O347 Co336 2.039 . S
O347 C337 1.265 1_655 S
C348 O344 1.253 . S
C348 O349 1.227 1_556 S
O349 C348 1.227 1_554 S
N350 Co336 2.140 . S
N350 C353 1.346 . S
N350 C354 1.345 . S
C351 C352 1.387 . S
C351 C355 1.391 . S
C352 C351 1.387 . S
C352 C353 1.369 . S
C352 H361 0.929 . S
C353 N350 1.346 . S
C353 C352 1.369 . S
C353 H356 0.928 . S
C354 N350 1.345 . S
C354 C355 1.371 . S
C354 H357 0.931 . S
C355 C351 1.391 . S
C355 C354 1.371 . S
C355 H362 0.930 . S
H356 C353 0.928 . S
H357 C354 0.931 . S
H358 C334 0.930 . S
H359 C331 0.930 . S
H360 C340 0.930 . S
H361 C352 0.929 . S
H362 C355 0.930 . S
C363 C364 1.351 . S
C363 N366 1.368 . S
C363 H368 0.931 . S
C364 C363 1.351 . S
C364 N365 1.373 . S
C364 H392 0.930 . S
N365 C364 1.373 . S
N365 C367 1.340 . S
N366 C363 1.368 . S
N366 C367 1.321 . S
N366 Co369 2.135 . S
C367 N365 1.340 . S
C367 N366 1.321 . S
C367 H391 0.930 . S
H368 C363 0.931 . S
Co369 N366 2.135 . S
Co369 N372 2.121 . S
Co369 O377 2.055 . S
Co369 O380 2.039 . S
Co369 N383 2.140 . S
C370 O371 1.227 . S
C370 O380 1.265 1_545 S
O371 C370 1.227 . S
N372 Co369 2.121 . S
N372 C374 1.375 . S
N372 C375 1.313 . S
C373 C374 1.338 . S
C373 N376 1.377 . S
C373 H393 0.930 . S
C374 N372 1.375 . S
C374 C373 1.338 . S
C374 H378 0.931 . S
C375 N372 1.313 . S
C375 N376 1.344 . S
C375 H379 0.930 . S
N376 C373 1.377 . S
N376 C375 1.344 . S
O377 Co369 2.055 . S
O377 C381 1.253 . S
H378 C374 0.931 . S
H379 C375 0.930 . S
O380 Co369 2.039 . S
O380 C370 1.265 1_565 S
C381 O377 1.253 . S
C381 O382 1.227 . S
O382 C381 1.227 . S
N383 Co369 2.140 . S
N383 C386 1.346 . S
N383 C387 1.345 . S
C384 C385 1.387 . S
C384 C388 1.391 . S
C385 C384 1.387 . S
C385 C386 1.369 . S
C385 H394 0.929 . S
C386 N383 1.346 . S
C386 C385 1.369 . S
C386 H389 0.928 . S
C387 N383 1.345 . S
C387 C388 1.371 . S
C387 H390 0.931 . S
C388 C384 1.391 . S
C388 C387 1.371 . S
C388 H395 0.930 . S
H389 C386 0.928 . S
H390 C387 0.931 . S
H391 C367 0.930 . S
H392 C364 0.930 . S
H393 C373 0.930 . S
H394 C385 0.929 . S
H395 C388 0.930 . S
H396 C414 0.951 . S
H397 C416 0.951 . S
H398 C418 0.950 . S
H399 C419 0.950 . S
H400 C421 0.950 . S
H401 C424 0.950 . S
H402 C425 0.950 . S
H403 C427 0.950 . S
H404 C428 0.950 . S
H405 C429 0.951 . S
H406 C431 0.951 . S
H407 C433 0.950 . S
H408 C434 0.950 . S
H409 C436 0.950 . S
H410 C439 0.950 . S
H411 C440 0.950 . S
H412 C442 0.950 . S
H413 C443 0.950 . S
C414 H396 0.951 . S
C414 C415 1.366 . S
C414 C416 1.388 . S
C415 C414 1.366 . S
C415 C419 1.385 . S
C416 H397 0.951 . S
C416 C414 1.388 . S
C416 C417 1.366 . S
C417 C416 1.366 . S
C417 C418 1.414 . S
C417 C420 1.499 . S
C418 H398 0.950 . S
C418 C417 1.414 . S
C418 C419 1.374 . S
C419 H399 0.950 . S
C419 C415 1.385 . S
C419 C418 1.374 . S
C420 C417 1.499 . S
C420 C421 1.373 . S
C420 C422 1.389 . S
C421 H400 0.950 . S
C421 C420 1.373 . S
C421 C437 1.377 . S
C422 C420 1.389 . S
C422 C423 1.524 . S
C422 C436 1.377 . S
C423 C422 1.524 . S
C423 C424 1.397 . S
C423 C428 1.363 . S
C424 H401 0.950 . S
C424 C423 1.397 . S
C424 C425 1.334 . S
C425 H402 0.950 . S
C425 C424 1.334 . S
C425 C426 1.287 . S
C426 C425 1.287 . S
C426 C427 1.524 . S
C426 H445 0.913 . S
C427 H403 0.950 . S
C427 C426 1.524 . S
C427 C428 1.415 . S
C428 H404 0.950 . S
C428 C423 1.363 . S
C428 C427 1.415 . S
C429 H405 0.951 . S
C429 C430 1.366 . S
C429 C431 1.388 . S
C430 C429 1.366 . S
C430 C434 1.385 . S
C431 H406 0.951 . S
C431 C429 1.388 . S
C431 C432 1.366 . S
C432 C431 1.366 . S
C432 C433 1.414 . S
C432 C435 1.499 . S
C433 H407 0.950 . S
C433 C432 1.414 . S
C433 C434 1.374 . S
C434 H408 0.950 . S
C434 C430 1.385 . S
C434 C433 1.374 . S
C435 C432 1.499 . S
C435 C436 1.373 . S
C435 C437 1.389 . S
C436 H409 0.950 . S
C436 C422 1.377 . S
C436 C435 1.373 . S
C437 C421 1.377 . S
C437 C435 1.389 . S
C437 C438 1.524 . S
C438 C437 1.524 . S
C438 C439 1.397 . S
C438 C443 1.363 . S
C439 H410 0.950 . S
C439 C438 1.397 . S
C439 C440 1.334 . S
C440 H411 0.950 . S
C440 C439 1.334 . S
C440 C441 1.287 . S
C441 C440 1.287 . S
C441 C442 1.524 . S
C441 H444 0.999 . S
C442 H412 0.950 . S
C442 C441 1.524 . S
C442 C443 1.415 . S
C443 H413 0.950 . S
C443 C438 1.363 . S
C443 C442 1.415 . S
H444 C441 0.999 . S
H445 C426 0.913 . S
H446 C464 0.951 . S
H447 C466 0.951 . S
H448 C468 0.950 . S
H449 C469 0.950 . S
H450 C471 0.950 . S
H451 C474 0.950 . S
H452 C475 0.950 . S
H453 C477 0.950 . S
H454 C478 0.950 . S
H455 C479 0.951 . S
H456 C481 0.951 . S
H457 C483 0.950 . S
H458 C484 0.950 . S
H459 C486 0.950 . S
H460 C489 0.950 . S
H461 C490 0.950 . S
H462 C492 0.950 . S
H463 C493 0.950 . S
C464 H446 0.951 . S
C464 C465 1.366 . S
C464 C466 1.388 . S
C465 C464 1.366 . S
C465 C469 1.385 . S
C466 H447 0.951 . S
C466 C464 1.388 . S
C466 C467 1.366 . S
C467 C466 1.366 . S
C467 C468 1.414 . S
C467 C470 1.499 . S
C468 H448 0.950 . S
C468 C467 1.414 . S
C468 C469 1.374 . S
C469 H449 0.950 . S
C469 C465 1.385 . S
C469 C468 1.374 . S
C470 C467 1.499 . S
C470 C471 1.373 . S
C470 C472 1.389 . S
C471 H450 0.950 . S
C471 C470 1.373 . S
C471 C487 1.377 . S
C472 C470 1.389 . S
C472 C473 1.524 . S
C472 C486 1.377 . S
C473 C472 1.524 . S
C473 C474 1.397 . S
C473 C478 1.363 . S
C474 H451 0.950 . S
C474 C473 1.397 . S
C474 C475 1.334 . S
C475 H452 0.950 . S
C475 C474 1.334 . S
C475 C476 1.287 . S
C476 C475 1.287 . S
C476 C477 1.524 . S
C476 H495 0.913 . S
C477 H453 0.950 . S
C477 C476 1.524 . S
C477 C478 1.415 . S
C478 H454 0.950 . S
C478 C473 1.363 . S
C478 C477 1.415 . S
C479 H455 0.951 . S
C479 C480 1.366 . S
C479 C481 1.388 . S
C480 C479 1.366 . S
C480 C484 1.385 . S
C481 H456 0.951 . S
C481 C479 1.388 . S
C481 C482 1.366 . S
C482 C481 1.366 . S
C482 C483 1.414 . S
C482 C485 1.499 . S
C483 H457 0.950 . S
C483 C482 1.414 . S
C483 C484 1.374 . S
C484 H458 0.950 . S
C484 C480 1.385 . S
C484 C483 1.374 . S
C485 C482 1.499 . S
C485 C486 1.373 . S
C485 C487 1.389 . S
C486 H459 0.950 . S
C486 C472 1.377 . S
C486 C485 1.373 . S
C487 C471 1.377 . S
C487 C485 1.389 . S
C487 C488 1.524 . S
C488 C487 1.524 . S
C488 C489 1.397 . S
C488 C493 1.363 . S
C489 H460 0.950 . S
C489 C488 1.397 . S
C489 C490 1.334 . S
C490 H461 0.950 . S
C490 C489 1.334 . S
C490 C491 1.287 . S
C491 C490 1.287 . S
C491 C492 1.524 . S
C491 H494 0.999 . S
C492 H462 0.950 . S
C492 C491 1.524 . S
C492 C493 1.415 . S
C493 H463 0.950 . S
C493 C488 1.363 . S
C493 C492 1.415 . S
H494 C491 0.999 . S
H495 C476 0.913 . S
H496 C514 0.951 . S
H497 C516 0.951 . S
H498 C518 0.950 . S
H499 C519 0.950 . S
H500 C521 0.950 . S
H501 C524 0.950 . S
H502 C525 0.950 . S
H503 C527 0.950 . S
H504 C528 0.950 . S
H505 C529 0.951 . S
H506 C531 0.951 . S
H507 C533 0.950 . S
H508 C534 0.950 . S
H509 C536 0.950 . S
H510 C539 0.950 . S
H511 C540 0.950 . S
H512 C542 0.950 . S
H513 C543 0.950 . S
C514 H496 0.951 . S
C514 C515 1.366 . S
C514 C516 1.388 . S
C515 C514 1.366 . S
C515 C519 1.385 . S
C516 H497 0.951 . S
C516 C514 1.388 . S
C516 C517 1.366 . S
C517 C516 1.366 . S
C517 C518 1.414 . S
C517 C520 1.499 . S
C518 H498 0.950 . S
C518 C517 1.414 . S
C518 C519 1.374 . S
C519 H499 0.950 . S
C519 C515 1.385 . S
C519 C518 1.374 . S
C520 C517 1.499 . S
C520 C521 1.373 . S
C520 C522 1.389 . S
C521 H500 0.950 . S
C521 C520 1.373 . S
C521 C537 1.377 . S
C522 C520 1.389 . S
C522 C523 1.524 . S
C522 C536 1.377 . S
C523 C522 1.524 . S
C523 C524 1.397 . S
C523 C528 1.363 . S
C524 H501 0.950 . S
C524 C523 1.397 . S
C524 C525 1.334 . S
C525 H502 0.950 . S
C525 C524 1.334 . S
C525 C526 1.287 . S
C526 C525 1.287 . S
C526 C527 1.524 . S
C526 H545 0.913 . S
C527 H503 0.950 . S
C527 C526 1.524 . S
C527 C528 1.415 . S
C528 H504 0.950 . S
C528 C523 1.363 . S
C528 C527 1.415 . S
C529 H505 0.951 . S
C529 C530 1.366 . S
C529 C531 1.388 . S
C530 C529 1.366 . S
C530 C534 1.385 . S
C531 H506 0.951 . S
C531 C529 1.388 . S
C531 C532 1.366 . S
C532 C531 1.366 . S
C532 C533 1.414 . S
C532 C535 1.499 . S
C533 H507 0.950 . S
C533 C532 1.414 . S
C533 C534 1.374 . S
C534 H508 0.950 . S
C534 C530 1.385 . S
C534 C533 1.374 . S
C535 C532 1.499 . S
C535 C536 1.373 . S
C535 C537 1.389 . S
C536 H509 0.950 . S
C536 C522 1.377 . S
C536 C535 1.373 . S
C537 C521 1.377 . S
C537 C535 1.389 . S
C537 C538 1.524 . S
C538 C537 1.524 . S
C538 C539 1.397 . S
C538 C543 1.363 . S
C539 H510 0.950 . S
C539 C538 1.397 . S
C539 C540 1.334 . S
C540 H511 0.950 . S
C540 C539 1.334 . S
C540 C541 1.287 . S
C541 C540 1.287 . S
C541 C542 1.524 . S
C541 H544 0.999 . S
C542 H512 0.950 . S
C542 C541 1.524 . S
C542 C543 1.415 . S
C543 H513 0.950 . S
C543 C538 1.363 . S
C543 C542 1.415 . S
H544 C541 0.999 . S
H545 C526 0.913 . S
H546 C564 0.951 . S
H547 C566 0.951 . S
H548 C568 0.950 . S
H549 C569 0.950 1_556 S
H550 C571 0.950 . S
H551 C574 0.950 . S
H552 C575 0.950 . S
H553 C577 0.950 . S
H554 C578 0.950 . S
H555 C579 0.951 . S
H556 C581 0.951 . S
H557 C583 0.950 . S
H558 C584 0.950 . S
H559 C586 0.950 . S
H560 C589 0.950 . S
H561 C590 0.950 . S
H562 C592 0.950 . S
H563 C593 0.950 . S
C564 H546 0.951 . S
C564 C565 1.366 . S
C564 C566 1.388 . S
C565 C564 1.366 . S
C565 C569 1.385 . S
C566 H547 0.951 . S
C566 C564 1.388 . S
C566 C567 1.366 . S
C567 C566 1.366 . S
C567 C568 1.414 . S
C567 C570 1.499 . S
C568 H548 0.950 . S
C568 C567 1.414 . S
C568 C569 1.374 . S
C569 H549 0.950 1_554 S
C569 C565 1.385 . S
C569 C568 1.374 . S
C570 C567 1.499 . S
C570 C571 1.373 . S
C570 C572 1.389 . S
C571 H550 0.950 . S
C571 C570 1.373 . S
C571 C587 1.377 . S
C572 C570 1.389 . S
C572 C573 1.524 . S
C572 C586 1.377 . S
C573 C572 1.524 . S
C573 C574 1.397 . S
C573 C578 1.363 . S
C574 H551 0.950 . S
C574 C573 1.397 . S
C574 C575 1.334 . S
C575 H552 0.950 . S
C575 C574 1.334 . S
C575 C576 1.287 . S
C576 C575 1.287 . S
C576 C577 1.524 . S
C576 H595 0.913 . S
C577 H553 0.950 . S
C577 C576 1.524 . S
C577 C578 1.415 . S
C578 H554 0.950 . S
C578 C573 1.363 . S
C578 C577 1.415 . S
C579 H555 0.951 . S
C579 C580 1.366 . S
C579 C581 1.388 . S
C580 C579 1.366 . S
C580 C584 1.385 . S
C581 H556 0.951 . S
C581 C579 1.388 . S
C581 C582 1.366 . S
C582 C581 1.366 . S
C582 C583 1.414 . S
C582 C585 1.499 . S
C583 H557 0.950 . S
C583 C582 1.414 . S
C583 C584 1.374 . S
C584 H558 0.950 . S
C584 C580 1.385 . S
C584 C583 1.374 . S
C585 C582 1.499 . S
C585 C586 1.373 . S
C585 C587 1.389 . S
C586 H559 0.950 . S
C586 C572 1.377 . S
C586 C585 1.373 . S
C587 C571 1.377 . S
C587 C585 1.389 . S
C587 C588 1.524 . S
C588 C587 1.524 . S
C588 C589 1.397 . S
C588 C593 1.363 . S
C589 H560 0.950 . S
C589 C588 1.397 . S
C589 C590 1.334 . S
C590 H561 0.950 . S
C590 C589 1.334 . S
C590 C591 1.287 . S
C591 C590 1.287 . S
C591 C592 1.524 . S
C591 H594 0.999 . S
C592 H562 0.950 . S
C592 C591 1.524 . S
C592 C593 1.415 . S
C593 H563 0.950 . S
C593 C588 1.363 . S
C593 C592 1.415 . S
H594 C591 0.999 . S
H595 C576 0.913 . S
H596 C614 0.951 . S
H597 C616 0.951 . S
H598 C618 0.950 . S
H599 C619 0.950 . S
H600 C621 0.950 . S
H601 C624 0.950 . S
H602 C625 0.950 . S
H603 C627 0.950 . S
H604 C628 0.950 . S
H605 C629 0.951 . S
H606 C631 0.951 . S
H607 C633 0.950 . S
H608 C634 0.950 . S
H609 C636 0.950 . S
H610 C639 0.950 . S
H611 C640 0.950 . S
H612 C642 0.950 . S
H613 C643 0.950 . S
C614 H596 0.951 . S
C614 C615 1.366 . S
C614 C616 1.388 . S
C615 C614 1.366 . S
C615 C619 1.385 . S
C616 H597 0.951 . S
C616 C614 1.388 . S
C616 C617 1.366 . S
C617 C616 1.366 . S
C617 C618 1.414 . S
C617 C620 1.499 . S
C618 H598 0.950 . S
C618 C617 1.414 . S
C618 C619 1.374 . S
C619 H599 0.950 . S
C619 C615 1.385 . S
C619 C618 1.374 . S
C620 C617 1.499 . S
C620 C621 1.373 . S
C620 C622 1.389 . S
C621 H600 0.950 . S
C621 C620 1.373 . S
C621 C637 1.377 . S
C622 C620 1.389 . S
C622 C623 1.524 . S
C622 C636 1.377 . S
C623 C622 1.524 . S
C623 C624 1.397 . S
C623 C628 1.363 . S
C624 H601 0.950 . S
C624 C623 1.397 . S
C624 C625 1.334 . S
C625 H602 0.950 . S
C625 C624 1.334 . S
C625 C626 1.287 . S
C626 C625 1.287 . S
C626 C627 1.524 . S
C626 H645 0.913 . S
C627 H603 0.950 . S
C627 C626 1.524 . S
C627 C628 1.415 . S
C628 H604 0.950 . S
C628 C623 1.363 . S
C628 C627 1.415 . S
C629 H605 0.951 . S
C629 C630 1.366 . S
C629 C631 1.388 . S
C630 C629 1.366 . S
C630 C634 1.385 . S
C631 H606 0.951 . S
C631 C629 1.388 . S
C631 C632 1.366 . S
C632 C631 1.366 . S
C632 C633 1.414 . S
C632 C635 1.499 . S
C633 H607 0.950 . S
C633 C632 1.414 . S
C633 C634 1.374 . S
C634 H608 0.950 . S
C634 C630 1.385 . S
C634 C633 1.374 . S
C635 C632 1.499 . S
C635 C636 1.373 . S
C635 C637 1.389 . S
C636 H609 0.950 . S
C636 C622 1.377 . S
C636 C635 1.373 . S
C637 C621 1.377 . S
C637 C635 1.389 . S
C637 C638 1.524 . S
C638 C637 1.524 . S
C638 C639 1.397 . S
C638 C643 1.363 . S
C639 H610 0.950 . S
C639 C638 1.397 . S
C639 C640 1.334 . S
C640 H611 0.950 . S
C640 C639 1.334 . S
C640 C641 1.287 . S
C641 C640 1.287 . S
C641 C642 1.524 . S
C641 H644 0.999 . S
C642 H612 0.950 . S
C642 C641 1.524 . S
C642 C643 1.415 . S
C643 H613 0.950 . S
C643 C638 1.363 . S
C643 C642 1.415 . S
H644 C641 0.999 . S
H645 C626 0.913 . S
H646 C664 0.951 . S
H647 C666 0.951 . S
H648 C668 0.950 . S
H649 C669 0.950 . S
H650 C671 0.950 . S
H651 C674 0.950 . S
H652 C675 0.950 . S
H653 C677 0.950 . S
H654 C678 0.950 . S
H655 C679 0.951 . S
H656 C681 0.951 . S
H657 C683 0.950 . S
H658 C684 0.950 . S
H659 C686 0.950 . S
H660 C689 0.950 . S
H661 C690 0.950 . S
H662 C692 0.950 . S
H663 C693 0.950 . S
C664 H646 0.951 . S
C664 C665 1.366 . S
C664 C666 1.388 . S
C665 C664 1.366 . S
C665 C669 1.385 . S
C666 H647 0.951 . S
C666 C664 1.388 . S
C666 C667 1.366 . S
C667 C666 1.366 . S
C667 C668 1.414 . S
C667 C670 1.499 . S
C668 H648 0.950 . S
C668 C667 1.414 . S
C668 C669 1.374 . S
C669 H649 0.950 . S
C669 C665 1.385 . S
C669 C668 1.374 . S
C670 C667 1.499 . S
C670 C671 1.373 . S
C670 C672 1.389 . S
C671 H650 0.950 . S
C671 C670 1.373 . S
C671 C687 1.377 . S
C672 C670 1.389 . S
C672 C673 1.524 . S
C672 C686 1.377 . S
C673 C672 1.524 . S
C673 C674 1.397 . S
C673 C678 1.363 . S
C674 H651 0.950 . S
C674 C673 1.397 . S
C674 C675 1.334 . S
C675 H652 0.950 . S
C675 C674 1.334 . S
C675 C676 1.287 . S
C676 C675 1.287 . S
C676 C677 1.524 . S
C676 H695 0.913 . S
C677 H653 0.950 . S
C677 C676 1.524 . S
C677 C678 1.415 . S
C678 H654 0.950 . S
C678 C673 1.363 . S
C678 C677 1.415 . S
C679 H655 0.951 . S
C679 C680 1.366 . S
C679 C681 1.388 . S
C680 C679 1.366 . S
C680 C684 1.385 . S
C681 H656 0.951 . S
C681 C679 1.388 . S
C681 C682 1.366 . S
C682 C681 1.366 . S
C682 C683 1.414 . S
C682 C685 1.499 . S
C683 H657 0.950 . S
C683 C682 1.414 . S
C683 C684 1.374 . S
C684 H658 0.950 . S
C684 C680 1.385 . S
C684 C683 1.374 . S
C685 C682 1.499 . S
C685 C686 1.373 . S
C685 C687 1.389 . S
C686 H659 0.950 . S
C686 C672 1.377 . S
C686 C685 1.373 . S
C687 C671 1.377 . S
C687 C685 1.389 . S
C687 C688 1.524 . S
C688 C687 1.524 . S
C688 C689 1.397 . S
C688 C693 1.363 . S
C689 H660 0.950 . S
C689 C688 1.397 . S
C689 C690 1.334 . S
C690 H661 0.950 . S
C690 C689 1.334 . S
C690 C691 1.287 . S
C691 C690 1.287 . S
C691 C692 1.524 . S
C691 H694 0.999 . S
C692 H662 0.950 . S
C692 C691 1.524 . S
C692 C693 1.415 . S
C693 H663 0.950 . S
C693 C688 1.363 . S
C693 C692 1.415 . S
H694 C691 0.999 . S
H695 C676 0.913 . S
H696 C714 0.951 . S
H697 C716 0.951 . S
H698 C718 0.950 . S
H699 C719 0.950 . S
H700 C721 0.950 . S
H701 C724 0.950 . S
H702 C725 0.950 . S
H703 C727 0.950 . S
H704 C728 0.950 . S
H705 C729 0.951 . S
H706 C731 0.951 . S
H707 C733 0.950 . S
H708 C734 0.950 . S
H709 C736 0.950 . S
H710 C739 0.950 . S
H711 C740 0.950 . S
H712 C742 0.950 . S
H713 C743 0.950 . S
C714 H696 0.951 . S
C714 C715 1.366 . S
C714 C716 1.388 . S
C715 C714 1.366 . S
C715 C719 1.385 . S
C716 H697 0.951 . S
C716 C714 1.388 . S
C716 C717 1.366 . S
C717 C716 1.366 . S
C717 C718 1.414 . S
C717 C720 1.499 . S
C718 H698 0.950 . S
C718 C717 1.414 . S
C718 C719 1.374 . S
C719 H699 0.950 . S
C719 C715 1.385 . S
C719 C718 1.374 . S
C720 C717 1.499 . S
C720 C721 1.373 . S
C720 C722 1.389 . S
C721 H700 0.950 . S
C721 C720 1.373 . S
C721 C737 1.377 . S
C722 C720 1.389 . S
C722 C723 1.524 . S
C722 C736 1.377 . S
C723 C722 1.524 . S
C723 C724 1.397 . S
C723 C728 1.363 . S
C724 H701 0.950 . S
C724 C723 1.397 . S
C724 C725 1.334 . S
C725 H702 0.950 . S
C725 C724 1.334 . S
C725 C726 1.287 . S
C726 C725 1.287 . S
C726 C727 1.524 . S
C726 H745 0.913 . S
C727 H703 0.950 . S
C727 C726 1.524 . S
C727 C728 1.415 . S
C728 H704 0.950 . S
C728 C723 1.363 . S
C728 C727 1.415 . S
C729 H705 0.951 . S
C729 C730 1.366 . S
C729 C731 1.388 . S
C730 C729 1.366 . S
C730 C734 1.385 . S
C731 H706 0.951 . S
C731 C729 1.388 . S
C731 C732 1.366 . S
C732 C731 1.366 . S
C732 C733 1.414 . S
C732 C735 1.499 . S
C733 H707 0.950 . S
C733 C732 1.414 . S
C733 C734 1.374 . S
C734 H708 0.950 . S
C734 C730 1.385 . S
C734 C733 1.374 . S
C735 C732 1.499 . S
C735 C736 1.373 . S
C735 C737 1.389 . S
C736 H709 0.950 . S
C736 C722 1.377 . S
C736 C735 1.373 . S
C737 C721 1.377 . S
C737 C735 1.389 . S
C737 C738 1.524 . S
C738 C737 1.524 . S
C738 C739 1.397 . S
C738 C743 1.363 . S
C739 H710 0.950 . S
C739 C738 1.397 . S
C739 C740 1.334 . S
C740 H711 0.950 . S
C740 C739 1.334 . S
C740 C741 1.287 . S
C741 C740 1.287 . S
C741 C742 1.524 . S
C741 H744 0.999 . S
C742 H712 0.950 . S
C742 C741 1.524 . S
C742 C743 1.415 . S
C743 H713 0.950 . S
C743 C738 1.363 . S
C743 C742 1.415 . S
H744 C741 0.999 . S
H745 C726 0.913 . S
H746 C764 0.951 . S
H747 C766 0.951 . S
H748 C768 0.950 . S
H749 C769 0.950 . S
H750 C771 0.950 . S
H751 C774 0.950 . S
H752 C775 0.950 . S
H753 C777 0.950 . S
H754 C778 0.950 . S
H755 C779 0.951 . S
H756 C781 0.951 . S
H757 C783 0.950 . S
H758 C784 0.950 . S
H759 C786 0.950 . S
H760 C789 0.950 . S
H761 C790 0.950 . S
H762 C792 0.950 . S
H763 C793 0.950 . S
C764 H746 0.951 . S
C764 C765 1.366 . S
C764 C766 1.388 . S
C765 C764 1.366 . S
C765 C769 1.385 . S
C766 H747 0.951 . S
C766 C764 1.388 . S
C766 C767 1.366 . S
C767 C766 1.366 . S
C767 C768 1.414 . S
C767 C770 1.499 . S
C768 H748 0.950 . S
C768 C767 1.414 . S
C768 C769 1.374 . S
C769 H749 0.950 . S
C769 C765 1.385 . S
C769 C768 1.374 . S
C770 C767 1.499 . S
C770 C771 1.373 . S
C770 C772 1.389 . S
C771 H750 0.950 . S
C771 C770 1.373 . S
C771 C787 1.377 . S
C772 C770 1.389 . S
C772 C773 1.524 . S
C772 C786 1.377 . S
C773 C772 1.524 . S
C773 C774 1.397 . S
C773 C778 1.363 . S
C774 H751 0.950 . S
C774 C773 1.397 . S
C774 C775 1.334 . S
C775 H752 0.950 . S
C775 C774 1.334 . S
C775 C776 1.287 . S
C776 C775 1.287 . S
C776 C777 1.524 . S
C776 H795 0.913 . S
C777 H753 0.950 . S
C777 C776 1.524 . S
C777 C778 1.415 . S
C778 H754 0.950 . S
C778 C773 1.363 . S
C778 C777 1.415 . S
C779 H755 0.951 . S
C779 C780 1.366 . S
C779 C781 1.388 . S
C780 C779 1.366 . S
C780 C784 1.385 . S
C781 H756 0.951 . S
C781 C779 1.388 . S
C781 C782 1.366 . S
C782 C781 1.366 . S
C782 C783 1.414 . S
C782 C785 1.499 . S
C783 H757 0.950 . S
C783 C782 1.414 . S
C783 C784 1.374 . S
C784 H758 0.950 . S
C784 C780 1.385 . S
C784 C783 1.374 . S
C785 C782 1.499 . S
C785 C786 1.373 . S
C785 C787 1.389 . S
C786 H759 0.950 . S
C786 C772 1.377 . S
C786 C785 1.373 . S
C787 C771 1.377 . S
C787 C785 1.389 . S
C787 C788 1.524 . S
C788 C787 1.524 . S
C788 C789 1.397 . S
C788 C793 1.363 . S
C789 H760 0.950 . S
C789 C788 1.397 . S
C789 C790 1.334 . S
C790 H761 0.950 . S
C790 C789 1.334 . S
C790 C791 1.287 . S
C791 C790 1.287 . S
C791 C792 1.524 . S
C791 H794 0.999 . S
C792 H762 0.950 . S
C792 C791 1.524 . S
C792 C793 1.415 . S
C793 H763 0.950 . S
C793 C788 1.363 . S
C793 C792 1.415 . S
H794 C791 0.999 . S
H795 C776 0.913 . S
H796 C814 0.951 . S
H797 C816 0.951 . S
H798 C818 0.950 . S
H799 C819 0.950 . S
H800 C821 0.950 . S
H801 C824 0.950 . S
H802 C825 0.950 . S
H803 C827 0.950 . S
H804 C828 0.950 . S
H805 C829 0.951 . S
H806 C831 0.951 . S
H807 C833 0.950 . S
H808 C834 0.950 . S
H809 C836 0.950 . S
H810 C839 0.950 . S
H811 C840 0.950 . S
H812 C842 0.950 . S
H813 C843 0.950 . S
C814 H796 0.951 . S
C814 C815 1.366 . S
C814 C816 1.388 . S
C815 C814 1.366 . S
C815 C819 1.385 . S
C816 H797 0.951 . S
C816 C814 1.388 . S
C816 C817 1.366 . S
C817 C816 1.366 . S
C817 C818 1.414 . S
C817 C820 1.499 . S
C818 H798 0.950 . S
C818 C817 1.414 . S
C818 C819 1.374 . S
C819 H799 0.950 . S
C819 C815 1.385 . S
C819 C818 1.374 . S
C820 C817 1.499 . S
C820 C821 1.373 . S
C820 C822 1.389 . S
C821 H800 0.950 . S
C821 C820 1.373 . S
C821 C837 1.377 . S
C822 C820 1.389 . S
C822 C823 1.524 . S
C822 C836 1.377 . S
C823 C822 1.524 . S
C823 C824 1.397 . S
C823 C828 1.363 . S
C824 H801 0.950 . S
C824 C823 1.397 . S
C824 C825 1.334 . S
C825 H802 0.950 . S
C825 C824 1.334 . S
C825 C826 1.287 . S
C826 C825 1.287 . S
C826 C827 1.524 . S
C826 H845 0.913 . S
C827 H803 0.950 . S
C827 C826 1.524 . S
C827 C828 1.415 . S
C828 H804 0.950 . S
C828 C823 1.363 . S
C828 C827 1.415 . S
C829 H805 0.951 . S
C829 C830 1.366 . S
C829 C831 1.388 . S
C830 C829 1.366 . S
C830 C834 1.385 . S
C831 H806 0.951 . S
C831 C829 1.388 . S
C831 C832 1.366 . S
C832 C831 1.366 . S
C832 C833 1.414 . S
C832 C835 1.499 . S
C833 H807 0.950 . S
C833 C832 1.414 . S
C833 C834 1.374 . S
C834 H808 0.950 . S
C834 C830 1.385 . S
C834 C833 1.374 . S
C835 C832 1.499 . S
C835 C836 1.373 . S
C835 C837 1.389 . S
C836 H809 0.950 . S
C836 C822 1.377 . S
C836 C835 1.373 . S
C837 C821 1.377 . S
C837 C835 1.389 . S
C837 C838 1.524 . S
C838 C837 1.524 . S
C838 C839 1.397 . S
C838 C843 1.363 . S
C839 H810 0.950 . S
C839 C838 1.397 . S
C839 C840 1.334 . S
C840 H811 0.950 . S
C840 C839 1.334 . S
C840 C841 1.287 . S
C841 C840 1.287 . S
C841 C842 1.524 . S
C841 H844 0.999 . S
C842 H812 0.950 . S
C842 C841 1.524 . S
C842 C843 1.415 . S
C843 H813 0.950 . S
C843 C838 1.363 . S
C843 C842 1.415 . S
H844 C841 0.999 . S
H845 C826 0.913 . S
H846 C864 0.951 . S
H847 C866 0.951 . S
H848 C868 0.950 . S
H849 C869 0.950 . S
H850 C871 0.950 . S
H851 C874 0.950 . S
H852 C875 0.950 . S
H853 C877 0.950 . S
H854 C878 0.950 . S
H855 C879 0.951 . S
H856 C881 0.951 . S
H857 C883 0.950 . S
H858 C884 0.950 . S
H859 C886 0.950 . S
H860 C889 0.950 . S
H861 C890 0.950 . S
H862 C892 0.950 . S
H863 C893 0.950 . S
C864 H846 0.951 . S
C864 C865 1.366 . S
C864 C866 1.388 . S
C865 C864 1.366 . S
C865 C869 1.385 . S
C866 H847 0.951 . S
C866 C864 1.388 . S
C866 C867 1.366 . S
C867 C866 1.366 . S
C867 C868 1.414 . S
C867 C870 1.499 . S
C868 H848 0.950 . S
C868 C867 1.414 . S
C868 C869 1.374 . S
C869 H849 0.950 . S
C869 C865 1.385 . S
C869 C868 1.374 . S
C870 C867 1.499 . S
C870 C871 1.373 . S
C870 C872 1.389 . S
C871 H850 0.950 . S
C871 C870 1.373 . S
C871 C887 1.377 . S
C872 C870 1.389 . S
C872 C873 1.524 . S
C872 C886 1.377 . S
C873 C872 1.524 . S
C873 C874 1.397 . S
C873 C878 1.363 . S
C874 H851 0.950 . S
C874 C873 1.397 . S
C874 C875 1.334 . S
C875 H852 0.950 . S
C875 C874 1.334 . S
C875 C876 1.287 . S
C876 C875 1.287 . S
C876 C877 1.524 . S
C876 H895 0.913 . S
C877 H853 0.950 . S
C877 C876 1.524 . S
C877 C878 1.415 . S
C878 H854 0.950 . S
C878 C873 1.363 . S
C878 C877 1.415 . S
C879 H855 0.951 . S
C879 C880 1.366 . S
C879 C881 1.388 . S
C880 C879 1.366 . S
C880 C884 1.385 . S
C881 H856 0.951 . S
C881 C879 1.388 . S
C881 C882 1.366 . S
C882 C881 1.366 . S
C882 C883 1.414 . S
C882 C885 1.499 . S
C883 H857 0.950 . S
C883 C882 1.414 . S
C883 C884 1.374 . S
C884 H858 0.950 . S
C884 C880 1.385 . S
C884 C883 1.374 . S
C885 C882 1.499 . S
C885 C886 1.373 . S
C885 C887 1.389 . S
C886 H859 0.950 . S
C886 C872 1.377 . S
C886 C885 1.373 . S
C887 C871 1.377 . S
C887 C885 1.389 . S
C887 C888 1.524 . S
C888 C887 1.524 . S
C888 C889 1.397 . S
C888 C893 1.363 . S
C889 H860 0.950 . S
C889 C888 1.397 . S
C889 C890 1.334 . S
C890 H861 0.950 . S
C890 C889 1.334 . S
C890 C891 1.287 . S
C891 C890 1.287 . S
C891 C892 1.524 . S
C891 H894 0.999 . S
C892 H862 0.950 . S
C892 C891 1.524 . S
C892 C893 1.415 . S
C893 H863 0.950 . S
C893 C888 1.363 . S
C893 C892 1.415 . S
H894 C891 0.999 . S
H895 C876 0.913 . S
H896 C914 0.951 . S
H897 C916 0.951 . S
H898 C918 0.950 . S
H899 C919 0.950 . S
H900 C921 0.950 . S
H901 C924 0.950 . S
H902 C925 0.950 . S
H903 C927 0.950 . S
H904 C928 0.950 . S
H905 C929 0.951 . S
H906 C931 0.951 . S
H907 C933 0.950 . S
H908 C934 0.950 . S
H909 C936 0.968 . S
H910 C939 0.950 . S
H911 C940 0.950 . S
H912 C942 0.950 . S
H913 C943 0.950 . S
C914 H896 0.951 . S
C914 C915 1.366 . S
C914 C916 1.388 . S
C915 C914 1.366 . S
C915 C919 1.385 1_556 S
C916 H897 0.951 . S
C916 C914 1.388 . S
C916 C917 1.366 1_556 S
C917 C916 1.366 1_554 S
C917 C918 1.414 . S
C917 C920 1.499 . S
C918 H898 0.950 . S
C918 C917 1.414 . S
C918 C919 1.374 . S
C919 H899 0.950 . S
C919 C915 1.385 1_554 S
C919 C918 1.374 . S
C920 C917 1.499 . S
C920 C921 1.373 . S
C920 C922 1.405 . S
C921 H900 0.950 . S
C921 C920 1.373 . S
C921 C937 1.377 . S
C922 C920 1.405 . S
C922 C923 1.497 1_554 S
C922 C936 1.388 . S
C923 C922 1.497 1_556 S
C923 C924 1.397 . S
C923 C928 1.363 . S
C924 H901 0.950 . S
C924 C923 1.397 . S
C924 C925 1.334 . S
C925 H902 0.950 . S
C925 C924 1.334 . S
C925 C926 1.287 . S
C926 C925 1.287 . S
C926 C927 1.524 . S
C926 H945 0.913 . S
C927 H903 0.950 . S
C927 C926 1.524 . S
C927 C928 1.415 . S
C928 H904 0.950 . S
C928 C923 1.363 . S
C928 C927 1.415 . S
C929 H905 0.951 . S
C929 C930 1.366 . S
C929 C931 1.388 . S
C930 C929 1.366 . S
C930 C934 1.385 . S
C931 H906 0.951 . S
C931 C929 1.388 . S
C931 C932 1.366 . S
C932 C931 1.366 . S
C932 C933 1.414 . S
C932 C935 1.499 . S
C933 H907 0.950 . S
C933 C932 1.414 . S
C933 C934 1.374 . S
C934 H908 0.950 . S
C934 C930 1.385 . S
C934 C933 1.374 . S
C935 C932 1.499 . S
C935 C936 1.373 . S
C935 C937 1.389 . S
C936 H909 0.968 . S
C936 C922 1.388 . S
C936 C935 1.373 . S
C937 C921 1.377 . S
C937 C935 1.389 . S
C937 C938 1.524 . S
C938 C937 1.524 . S
C938 C939 1.397 . S
C938 C943 1.363 . S
C939 H910 0.950 . S
C939 C938 1.397 . S
C939 C940 1.334 . S
C940 H911 0.950 . S
C940 C939 1.334 . S
C940 C941 1.287 . S
C941 C940 1.287 . S
C941 C942 1.524 . S
C941 H944 0.999 . S
C942 H912 0.950 . S
C942 C941 1.524 . S
C942 C943 1.415 . S
C943 H913 0.950 . S
C943 C938 1.363 . S
C943 C942 1.415 . S
H944 C941 0.999 . S
H945 C926 0.913 . S
H946 C964 0.951 . S
H947 C966 0.951 . S
H948 C968 0.950 . S
H949 C969 0.950 . S
H950 C971 0.950 . S
H951 C974 0.950 . S
H952 C975 0.950 . S
H953 C977 0.950 . S
H954 C978 0.950 . S
H955 C979 0.951 . S
H956 C981 0.951 . S
H957 C983 0.950 . S
H958 C984 0.950 . S
H959 C986 0.950 . S
H960 C989 0.950 . S
H961 C990 0.950 . S
H962 C992 0.950 . S
H963 C993 0.950 . S
C964 H946 0.951 . S
C964 C965 1.366 . S
C964 C966 1.388 . S
C965 C964 1.366 . S
C965 C969 1.385 . S
C966 H947 0.951 . S
C966 C964 1.388 . S
C966 C967 1.366 . S
C967 C966 1.366 . S
C967 C968 1.414 . S
C967 C970 1.499 . S
C968 H948 0.950 . S
C968 C967 1.414 . S
C968 C969 1.374 . S
C969 H949 0.950 . S
C969 C965 1.385 . S
C969 C968 1.374 . S
C970 C967 1.499 . S
C970 C971 1.373 . S
C970 C972 1.389 . S
C971 H950 0.950 . S
C971 C970 1.373 . S
C971 C987 1.377 . S
C972 C970 1.389 . S
C972 C973 1.524 . S
C972 C986 1.377 . S
C973 C972 1.524 . S
C973 C974 1.397 . S
C973 C978 1.363 . S
C974 H951 0.950 . S
C974 C973 1.397 . S
C974 C975 1.334 . S
C975 H952 0.950 . S
C975 C974 1.334 . S
C975 C976 1.287 . S
C976 C975 1.287 . S
C976 C977 1.524 . S
C976 H995 0.913 . S
C977 H953 0.950 . S
C977 C976 1.524 . S
C977 C978 1.415 . S
C978 H954 0.950 . S
C978 C973 1.363 . S
C978 C977 1.415 . S
C979 H955 0.951 . S
C979 C980 1.366 . S
C979 C981 1.388 . S
C980 C979 1.366 . S
C980 C984 1.385 . S
C981 H956 0.951 . S
C981 C979 1.388 . S
C981 C982 1.366 . S
C982 C981 1.366 . S
C982 C983 1.414 . S
C982 C985 1.499 . S
C983 H957 0.950 . S
C983 C982 1.414 . S
C983 C984 1.374 . S
C984 H958 0.950 . S
C984 C980 1.385 . S
C984 C983 1.374 . S
C985 C982 1.499 . S
C985 C986 1.373 . S
C985 C987 1.389 . S
C986 H959 0.950 . S
C986 C972 1.377 . S
C986 C985 1.373 . S
C987 C971 1.377 . S
C987 C985 1.389 . S
C987 C988 1.524 . S
C988 C987 1.524 . S
C988 C989 1.397 . S
C988 C993 1.363 . S
C989 H960 0.950 . S
C989 C988 1.397 . S
C989 C990 1.334 . S
C990 H961 0.950 . S
C990 C989 1.334 . S
C990 C991 1.287 . S
C991 C990 1.287 . S
C991 C992 1.524 . S
C991 H994 0.999 . S
C992 H962 0.950 . S
C992 C991 1.524 . S
C992 C993 1.415 . S
C993 H963 0.950 . S
C993 C988 1.363 . S
C993 C992 1.415 . S
H994 C991 0.999 . S
H995 C976 0.913 . S
H996 C1014 0.951 . S
H997 C1016 0.951 . S
H998 C1018 0.950 . S
H999 C1019 0.950 . S
H1000 C1021 0.950 . S
H1001 C1024 0.950 . S
H1002 C1025 0.950 . S
H1003 C1027 0.950 . S
H1004 C1028 0.950 . S
H1005 C1029 0.951 . S
H1006 C1031 0.951 . S
H1007 C1033 0.950 . S
H1008 C1034 0.950 . S
H1009 C1036 0.950 . S
H1010 C1039 0.950 . S
H1011 C1040 0.950 . S
H1012 C1042 0.950 . S
H1013 C1043 0.950 . S
C1014 H996 0.951 . S
C1014 C1015 1.366 . S
C1014 C1016 1.388 . S
C1015 C1014 1.366 . S
C1015 C1019 1.385 . S
C1016 H997 0.951 . S
C1016 C1014 1.388 . S
C1016 C1017 1.366 . S
C1017 C1016 1.366 . S
C1017 C1018 1.414 . S
C1017 C1020 1.499 . S
C1018 H998 0.950 . S
C1018 C1017 1.414 . S
C1018 C1019 1.374 . S
C1019 H999 0.950 . S
C1019 C1015 1.385 . S
C1019 C1018 1.374 . S
C1020 C1017 1.499 . S
C1020 C1021 1.373 . S
C1020 C1022 1.389 . S
C1021 H1000 0.950 . S
C1021 C1020 1.373 . S
C1021 C1037 1.377 . S
C1022 C1020 1.389 . S
C1022 C1023 1.524 . S
C1022 C1036 1.377 . S
C1023 C1022 1.524 . S
C1023 C1024 1.397 . S
C1023 C1028 1.363 . S
C1024 H1001 0.950 . S
C1024 C1023 1.397 . S
C1024 C1025 1.334 . S
C1025 H1002 0.950 . S
C1025 C1024 1.334 . S
C1025 C1026 1.287 . S
C1026 C1025 1.287 . S
C1026 C1027 1.524 . S
C1026 H1045 0.913 . S
C1027 H1003 0.950 . S
C1027 C1026 1.524 . S
C1027 C1028 1.415 . S
C1028 H1004 0.950 . S
C1028 C1023 1.363 . S
C1028 C1027 1.415 . S
C1029 H1005 0.951 . S
C1029 C1030 1.366 . S
C1029 C1031 1.388 . S
C1030 C1029 1.366 . S
C1030 C1034 1.385 . S
C1031 H1006 0.951 . S
C1031 C1029 1.388 . S
C1031 C1032 1.366 . S
C1032 C1031 1.366 . S
C1032 C1033 1.414 . S
C1032 C1035 1.499 . S
C1033 H1007 0.950 . S
C1033 C1032 1.414 . S
C1033 C1034 1.374 . S
C1034 H1008 0.950 . S
C1034 C1030 1.385 . S
C1034 C1033 1.374 . S
C1035 C1032 1.499 . S
C1035 C1036 1.373 . S
C1035 C1037 1.389 . S
C1036 H1009 0.950 . S
C1036 C1022 1.377 . S
C1036 C1035 1.373 . S
C1037 C1021 1.377 . S
C1037 C1035 1.389 . S
C1037 C1038 1.524 . S
C1038 C1037 1.524 . S
C1038 C1039 1.397 . S
C1038 C1043 1.363 . S
C1039 H1010 0.950 . S
C1039 C1038 1.397 . S
C1039 C1040 1.334 . S
C1040 H1011 0.950 . S
C1040 C1039 1.334 . S
C1040 C1041 1.287 . S
C1041 C1040 1.287 . S
C1041 C1042 1.524 . S
C1041 H1044 0.999 . S
C1042 H1012 0.950 . S
C1042 C1041 1.524 . S
C1042 C1043 1.415 . S
C1043 H1013 0.950 . S
C1043 C1038 1.363 . S
C1043 C1042 1.415 . S
H1044 C1041 0.999 . S
H1045 C1026 0.913 . S
H1046 C1064 0.951 . S
H1047 C1066 0.951 . S
H1048 C1068 0.950 . S
H1049 C1069 0.950 . S
H1050 C1071 0.950 . S
H1051 C1074 0.950 . S
H1052 C1075 0.950 . S
H1053 C1077 0.950 . S
H1054 C1078 0.950 . S
H1055 C1079 0.951 . S
H1056 C1081 0.951 . S
H1057 C1083 0.950 . S
H1058 C1084 0.950 . S
H1059 C1086 0.950 . S
H1060 C1089 0.950 . S
H1061 C1090 0.950 . S
H1062 C1092 0.950 . S
H1063 C1093 0.950 . S
C1064 H1046 0.951 . S
C1064 C1065 1.366 . S
C1064 C1066 1.388 . S
C1065 C1064 1.366 . S
C1065 C1069 1.385 . S
C1066 H1047 0.951 . S
C1066 C1064 1.388 . S
C1066 C1067 1.366 . S
C1067 C1066 1.366 . S
C1067 C1068 1.414 . S
C1067 C1070 1.499 . S
C1068 H1048 0.950 . S
C1068 C1067 1.414 . S
C1068 C1069 1.374 . S
C1069 H1049 0.950 . S
C1069 C1065 1.385 . S
C1069 C1068 1.374 . S
C1070 C1067 1.499 . S
C1070 C1071 1.373 . S
C1070 C1072 1.389 . S
C1071 H1050 0.950 . S
C1071 C1070 1.373 . S
C1071 C1087 1.377 . S
C1072 C1070 1.389 . S
C1072 C1073 1.524 . S
C1072 C1086 1.377 . S
C1073 C1072 1.524 . S
C1073 C1074 1.397 . S
C1073 C1078 1.363 . S
C1074 H1051 0.950 . S
C1074 C1073 1.397 . S
C1074 C1075 1.334 . S
C1075 H1052 0.950 . S
C1075 C1074 1.334 . S
C1075 C1076 1.287 . S
C1076 C1075 1.287 . S
C1076 C1077 1.524 . S
C1076 H1095 0.913 . S
C1077 H1053 0.950 . S
C1077 C1076 1.524 . S
C1077 C1078 1.415 . S
C1078 H1054 0.950 . S
C1078 C1073 1.363 . S
C1078 C1077 1.415 . S
C1079 H1055 0.951 . S
C1079 C1080 1.366 . S
C1079 C1081 1.388 . S
C1080 C1079 1.366 . S
C1080 C1084 1.385 . S
C1081 H1056 0.951 . S
C1081 C1079 1.388 . S
C1081 C1082 1.366 . S
C1082 C1081 1.366 . S
C1082 C1083 1.414 . S
C1082 C1085 1.499 . S
C1083 H1057 0.950 . S
C1083 C1082 1.414 . S
C1083 C1084 1.374 . S
C1084 H1058 0.950 . S
C1084 C1080 1.385 . S
C1084 C1083 1.374 . S
C1085 C1082 1.499 . S
C1085 C1086 1.373 . S
C1085 C1087 1.389 . S
C1086 H1059 0.950 . S
C1086 C1072 1.377 . S
C1086 C1085 1.373 . S
C1087 C1071 1.377 . S
C1087 C1085 1.389 . S
C1087 C1088 1.524 . S
C1088 C1087 1.524 . S
C1088 C1089 1.397 . S
C1088 C1093 1.363 . S
C1089 H1060 0.950 . S
C1089 C1088 1.397 . S
C1089 C1090 1.334 . S
C1090 H1061 0.950 . S
C1090 C1089 1.334 . S
C1090 C1091 1.287 . S
C1091 C1090 1.287 . S
C1091 C1092 1.524 . S
C1091 H1094 0.999 . S
C1092 H1062 0.950 . S
C1092 C1091 1.524 . S
C1092 C1093 1.415 . S
C1093 H1063 0.950 . S
C1093 C1088 1.363 . S
C1093 C1092 1.415 . S
H1094 C1091 0.999 . S
H1095 C1076 0.913 . S
H1096 C1114 0.951 . S
H1097 C1116 0.951 . S
H1098 C1118 0.950 . S
H1099 C1119 0.950 . S
H1100 C1121 0.950 . S
H1101 C1124 0.950 . S
H1102 C1125 0.950 . S
H1103 C1127 0.950 . S
H1104 C1128 0.950 . S
H1105 C1129 0.951 . S
H1106 C1131 0.951 . S
H1107 C1133 0.950 . S
H1108 C1134 0.950 . S
H1109 C1136 0.950 . S
H1110 C1139 0.950 . S
H1111 C1140 0.950 . S
H1112 C1142 0.950 . S
H1113 C1143 0.950 . S
C1114 H1096 0.951 . S
C1114 C1115 1.366 . S
C1114 C1116 1.388 . S
C1115 C1114 1.366 . S
C1115 C1119 1.385 . S
C1116 H1097 0.951 . S
C1116 C1114 1.388 . S
C1116 C1117 1.366 . S
C1117 C1116 1.366 . S
C1117 C1118 1.414 . S
C1117 C1120 1.499 . S
C1118 H1098 0.950 . S
C1118 C1117 1.414 . S
C1118 C1119 1.374 . S
C1119 H1099 0.950 . S
C1119 C1115 1.385 . S
C1119 C1118 1.374 . S
C1120 C1117 1.499 . S
C1120 C1121 1.373 . S
C1120 C1122 1.389 . S
C1121 H1100 0.950 . S
C1121 C1120 1.373 . S
C1121 C1137 1.377 . S
C1122 C1120 1.389 . S
C1122 C1123 1.524 . S
C1122 C1136 1.377 . S
C1123 C1122 1.524 . S
C1123 C1124 1.397 . S
C1123 C1128 1.363 . S
C1124 H1101 0.950 . S
C1124 C1123 1.397 . S
C1124 C1125 1.334 . S
C1125 H1102 0.950 . S
C1125 C1124 1.334 . S
C1125 C1126 1.287 . S
C1126 C1125 1.287 . S
C1126 C1127 1.524 . S
C1126 H1145 0.913 . S
C1127 H1103 0.950 . S
C1127 C1126 1.524 . S
C1127 C1128 1.415 . S
C1128 H1104 0.950 . S
C1128 C1123 1.363 . S
C1128 C1127 1.415 . S
C1129 H1105 0.951 . S
C1129 C1130 1.366 . S
C1129 C1131 1.388 . S
C1130 C1129 1.366 . S
C1130 C1134 1.385 . S
C1131 H1106 0.951 . S
C1131 C1129 1.388 . S
C1131 C1132 1.366 . S
C1132 C1131 1.366 . S
C1132 C1133 1.414 . S
C1132 C1135 1.499 . S
C1133 H1107 0.950 . S
C1133 C1132 1.414 . S
C1133 C1134 1.374 . S
C1134 H1108 0.950 . S
C1134 C1130 1.385 . S
C1134 C1133 1.374 . S
C1135 C1132 1.499 . S
C1135 C1136 1.373 . S
C1135 C1137 1.389 . S
C1136 H1109 0.950 . S
C1136 C1122 1.377 . S
C1136 C1135 1.373 . S
C1137 C1121 1.377 . S
C1137 C1135 1.389 . S
C1137 C1138 1.524 . S
C1138 C1137 1.524 . S
C1138 C1139 1.397 . S
C1138 C1143 1.363 . S
C1139 H1110 0.950 . S
C1139 C1138 1.397 . S
C1139 C1140 1.334 . S
C1140 H1111 0.950 . S
C1140 C1139 1.334 . S
C1140 C1141 1.287 . S
C1141 C1140 1.287 . S
C1141 C1142 1.524 . S
C1141 H1144 0.999 . S
C1142 H1112 0.950 . S
C1142 C1141 1.524 . S
C1142 C1143 1.415 . S
C1143 H1113 0.950 . S
C1143 C1138 1.363 . S
C1143 C1142 1.415 . S
H1144 C1141 0.999 . S
H1145 C1126 0.913 . S
H1146 C1164 0.951 . S
H1147 C1166 0.951 . S
H1148 C1168 0.950 . S
H1149 C1169 0.950 . S
H1150 C1171 0.950 . S
H1151 C1174 0.950 . S
H1152 C1175 0.950 . S
H1153 C1177 0.950 . S
H1154 C1178 0.950 . S
H1155 C1179 0.951 . S
H1156 C1181 0.951 . S
H1157 C1183 0.950 . S
H1158 C1184 0.950 . S
H1159 C1186 0.950 . S
H1160 C1189 0.950 . S
H1161 C1190 0.950 . S
H1162 C1192 0.950 . S
H1163 C1193 0.950 . S
C1164 H1146 0.951 . S
C1164 C1165 1.366 . S
C1164 C1166 1.388 . S
C1165 C1164 1.366 . S
C1165 C1169 1.385 1_554 S
C1166 H1147 0.951 . S
C1166 C1164 1.388 . S
C1166 C1167 1.366 1_554 S
C1167 C1166 1.366 1_556 S
C1167 C1168 1.414 . S
C1167 C1170 1.499 . S
C1168 H1148 0.950 . S
C1168 C1167 1.414 . S
C1168 C1169 1.374 . S
C1169 H1149 0.950 . S
C1169 C1165 1.385 1_556 S
C1169 C1168 1.374 . S
C1170 C1167 1.499 . S
C1170 C1171 1.373 . S
C1170 C1172 1.389 . S
C1171 H1150 0.950 . S
C1171 C1170 1.373 . S
C1171 C1187 1.377 . S
C1172 C1170 1.389 . S
C1172 C1173 1.524 1_556 S
C1172 C1186 1.377 . S
C1173 C1172 1.524 1_554 S
C1173 C1174 1.397 . S
C1173 C1178 1.363 . S
C1174 H1151 0.950 . S
C1174 C1173 1.397 . S
C1174 C1175 1.334 . S
C1175 H1152 0.950 . S
C1175 C1174 1.334 . S
C1175 C1176 1.287 . S
C1176 C1175 1.287 . S
C1176 C1177 1.524 . S
C1176 H1195 0.913 . S
C1177 H1153 0.950 . S
C1177 C1176 1.524 . S
C1177 C1178 1.415 . S
C1178 H1154 0.950 . S
C1178 C1173 1.363 . S
C1178 C1177 1.415 . S
C1179 H1155 0.951 . S
C1179 C1180 1.366 . S
C1179 C1181 1.388 . S
C1180 C1179 1.366 . S
C1180 C1184 1.385 . S
C1181 H1156 0.951 . S
C1181 C1179 1.388 . S
C1181 C1182 1.366 . S
C1182 C1181 1.366 . S
C1182 C1183 1.414 . S
C1182 C1185 1.499 . S
C1183 H1157 0.950 . S
C1183 C1182 1.414 . S
C1183 C1184 1.374 . S
C1184 H1158 0.950 . S
C1184 C1180 1.385 . S
C1184 C1183 1.374 . S
C1185 C1182 1.499 . S
C1185 C1186 1.373 . S
C1185 C1187 1.389 . S
C1186 H1159 0.950 . S
C1186 C1172 1.377 . S
C1186 C1185 1.373 . S
C1187 C1171 1.377 . S
C1187 C1185 1.389 . S
C1187 C1188 1.524 . S
C1188 C1187 1.524 . S
C1188 C1189 1.397 . S
C1188 C1193 1.363 . S
C1189 H1160 0.950 . S
C1189 C1188 1.397 . S
C1189 C1190 1.334 . S
C1190 H1161 0.950 . S
C1190 C1189 1.334 . S
C1190 C1191 1.287 . S
C1191 C1190 1.287 . S
C1191 C1192 1.524 . S
C1191 H1194 0.999 . S
C1192 H1162 0.950 . S
C1192 C1191 1.524 . S
C1192 C1193 1.415 . S
C1193 H1163 0.950 . S
C1193 C1188 1.363 . S
C1193 C1192 1.415 . S
H1194 C1191 0.999 . S
H1195 C1176 0.913 . S
H1196 C1214 0.951 . S
H1197 C1216 0.951 . S
H1198 C1218 0.950 . S
H1199 C1219 0.950 . S
H1200 C1221 0.950 . S
H1201 C1224 0.950 . S
H1202 C1225 0.950 . S
H1203 C1227 0.950 . S
H1204 C1228 0.950 . S
H1205 C1229 0.951 . S
H1206 C1231 0.951 . S
H1207 C1233 0.950 . S
H1208 C1234 0.950 . S
H1209 C1236 0.950 . S
H1210 C1239 0.950 . S
H1211 C1240 0.950 . S
H1212 C1242 0.950 . S
H1213 C1243 0.950 . S
C1214 H1196 0.951 . S
C1214 C1215 1.366 . S
C1214 C1216 1.388 . S
C1215 C1214 1.366 . S
C1215 C1219 1.385 . S
C1216 H1197 0.951 . S
C1216 C1214 1.388 . S
C1216 C1217 1.366 . S
C1217 C1216 1.366 . S
C1217 C1218 1.414 . S
C1217 C1220 1.499 . S
C1218 H1198 0.950 . S
C1218 C1217 1.414 . S
C1218 C1219 1.374 . S
C1219 H1199 0.950 . S
C1219 C1215 1.385 . S
C1219 C1218 1.374 . S
C1220 C1217 1.499 . S
C1220 C1221 1.373 . S
C1220 C1222 1.389 . S
C1221 H1200 0.950 . S
C1221 C1220 1.373 . S
C1221 C1237 1.377 . S
C1222 C1220 1.389 . S
C1222 C1223 1.524 . S
C1222 C1236 1.377 . S
C1223 C1222 1.524 . S
C1223 C1224 1.397 . S
C1223 C1228 1.363 . S
C1224 H1201 0.950 . S
C1224 C1223 1.397 . S
C1224 C1225 1.334 . S
C1225 H1202 0.950 . S
C1225 C1224 1.334 . S
C1225 C1226 1.287 . S
C1226 C1225 1.287 . S
C1226 C1227 1.524 . S
C1226 H1245 0.913 . S
C1227 H1203 0.950 . S
C1227 C1226 1.524 . S
C1227 C1228 1.415 . S
C1228 H1204 0.950 . S
C1228 C1223 1.363 . S
C1228 C1227 1.415 . S
C1229 H1205 0.951 . S
C1229 C1230 1.366 . S
C1229 C1231 1.388 . S
C1230 C1229 1.366 . S
C1230 C1234 1.385 . S
C1231 H1206 0.951 . S
C1231 C1229 1.388 . S
C1231 C1232 1.366 . S
C1232 C1231 1.366 . S
C1232 C1233 1.414 . S
C1232 C1235 1.499 . S
C1233 H1207 0.950 . S
C1233 C1232 1.414 . S
C1233 C1234 1.374 . S
C1234 H1208 0.950 . S
C1234 C1230 1.385 . S
C1234 C1233 1.374 . S
C1235 C1232 1.499 . S
C1235 C1236 1.373 . S
C1235 C1237 1.389 . S
C1236 H1209 0.950 . S
C1236 C1222 1.377 . S
C1236 C1235 1.373 . S
C1237 C1221 1.377 . S
C1237 C1235 1.389 . S
C1237 C1238 1.524 . S
C1238 C1237 1.524 . S
C1238 C1239 1.397 . S
C1238 C1243 1.363 . S
C1239 H1210 0.950 . S
C1239 C1238 1.397 . S
C1239 C1240 1.334 . S
C1240 H1211 0.950 . S
C1240 C1239 1.334 . S
C1240 C1241 1.287 . S
C1241 C1240 1.287 . S
C1241 C1242 1.524 . S
C1241 H1244 0.999 . S
C1242 H1212 0.950 . S
C1242 C1241 1.524 . S
C1242 C1243 1.415 . S
C1243 H1213 0.950 . S
C1243 C1238 1.363 . S
C1243 C1242 1.415 . S
H1244 C1241 0.999 . S
H1245 C1226 0.913 . S
H1246 C1264 0.951 . S
H1247 C1266 0.951 . S
H1248 C1268 0.950 . S
H1249 C1269 0.950 . S
H1250 C1271 0.950 . S
H1251 C1274 0.950 . S
H1252 C1275 0.950 . S
H1253 C1277 0.950 . S
H1254 C1278 0.950 . S
H1255 C1279 0.951 . S
H1256 C1281 0.951 . S
H1257 C1283 0.950 . S
H1258 C1284 0.950 . S
H1259 C1286 0.950 . S
H1260 C1289 0.950 . S
H1261 C1290 0.950 . S
H1262 C1292 0.950 . S
H1263 C1293 0.950 . S
C1264 H1246 0.951 . S
C1264 C1265 1.366 . S
C1264 C1266 1.388 . S
C1265 C1264 1.366 . S
C1265 C1269 1.385 . S
C1266 H1247 0.951 . S
C1266 C1264 1.388 . S
C1266 C1267 1.366 . S
C1267 C1266 1.366 . S
C1267 C1268 1.414 . S
C1267 C1270 1.499 . S
C1268 H1248 0.950 . S
C1268 C1267 1.414 . S
C1268 C1269 1.374 . S
C1269 H1249 0.950 . S
C1269 C1265 1.385 . S
C1269 C1268 1.374 . S
C1270 C1267 1.499 . S
C1270 C1271 1.373 . S
C1270 C1272 1.389 . S
C1271 H1250 0.950 . S
C1271 C1270 1.373 . S
C1271 C1287 1.377 . S
C1272 C1270 1.389 . S
C1272 C1273 1.524 . S
C1272 C1286 1.377 . S
C1273 C1272 1.524 . S
C1273 C1274 1.397 . S
C1273 C1278 1.363 . S
C1274 H1251 0.950 . S
C1274 C1273 1.397 . S
C1274 C1275 1.334 . S
C1275 H1252 0.950 . S
C1275 C1274 1.334 . S
C1275 C1276 1.287 . S
C1276 C1275 1.287 . S
C1276 C1277 1.524 . S
C1276 H1295 0.913 . S
C1277 H1253 0.950 . S
C1277 C1276 1.524 . S
C1277 C1278 1.415 . S
C1278 H1254 0.950 . S
C1278 C1273 1.363 . S
C1278 C1277 1.415 . S
C1279 H1255 0.951 . S
C1279 C1280 1.366 . S
C1279 C1281 1.388 . S
C1280 C1279 1.366 . S
C1280 C1284 1.385 . S
C1281 H1256 0.951 . S
C1281 C1279 1.388 . S
C1281 C1282 1.366 . S
C1282 C1281 1.366 . S
C1282 C1283 1.414 . S
C1282 C1285 1.499 . S
C1283 H1257 0.950 . S
C1283 C1282 1.414 . S
C1283 C1284 1.374 . S
C1284 H1258 0.950 . S
C1284 C1280 1.385 . S
C1284 C1283 1.374 . S
C1285 C1282 1.499 . S
C1285 C1286 1.373 . S
C1285 C1287 1.389 . S
C1286 H1259 0.950 . S
C1286 C1272 1.377 . S
C1286 C1285 1.373 . S
C1287 C1271 1.377 . S
C1287 C1285 1.389 . S
C1287 C1288 1.524 . S
C1288 C1287 1.524 . S
C1288 C1289 1.397 . S
C1288 C1293 1.363 . S
C1289 H1260 0.950 . S
C1289 C1288 1.397 . S
C1289 C1290 1.334 . S
C1290 H1261 0.950 . S
C1290 C1289 1.334 . S
C1290 C1291 1.287 . S
C1291 C1290 1.287 . S
C1291 C1292 1.524 . S
C1291 H1294 0.999 . S
C1292 H1262 0.950 . S
C1292 C1291 1.524 . S
C1292 C1293 1.415 . S
C1293 H1263 0.950 . S
C1293 C1288 1.363 . S
C1293 C1292 1.415 . S
H1294 C1291 0.999 . S
H1295 C1276 0.913 . S
H1296 C1314 0.951 . S
H1297 C1316 0.951 . S
H1298 C1318 0.950 . S
H1299 C1319 0.950 . S
H1300 C1321 0.950 . S
H1301 C1324 0.950 . S
H1302 C1325 0.950 . S
H1303 C1327 0.950 . S
H1304 C1328 0.950 . S
H1305 C1329 0.951 . S
H1306 C1331 0.951 . S
H1307 C1333 0.950 . S
H1308 C1334 0.950 . S
H1309 C1336 0.950 . S
H1310 C1339 0.950 . S
H1311 C1340 0.950 . S
H1312 C1342 0.950 . S
H1313 C1343 0.950 . S
C1314 H1296 0.951 . S
C1314 C1315 1.366 . S
C1314 C1316 1.388 . S
C1315 C1314 1.366 . S
C1315 C1319 1.385 . S
C1316 H1297 0.951 . S
C1316 C1314 1.388 . S
C1316 C1317 1.366 . S
C1317 C1316 1.366 . S
C1317 C1318 1.414 . S
C1317 C1320 1.499 . S
C1318 H1298 0.950 . S
C1318 C1317 1.414 . S
C1318 C1319 1.374 . S
C1319 H1299 0.950 . S
C1319 C1315 1.385 . S
C1319 C1318 1.374 . S
C1320 C1317 1.499 . S
C1320 C1321 1.373 . S
C1320 C1322 1.389 . S
C1321 H1300 0.950 . S
C1321 C1320 1.373 . S
C1321 C1337 1.377 . S
C1322 C1320 1.389 . S
C1322 C1323 1.524 . S
C1322 C1336 1.377 . S
C1323 C1322 1.524 . S
C1323 C1324 1.397 . S
C1323 C1328 1.363 . S
C1324 H1301 0.950 . S
C1324 C1323 1.397 . S
C1324 C1325 1.334 . S
C1325 H1302 0.950 . S
C1325 C1324 1.334 . S
C1325 C1326 1.287 . S
C1326 C1325 1.287 . S
C1326 C1327 1.524 . S
C1326 H1345 0.913 . S
C1327 H1303 0.950 . S
C1327 C1326 1.524 . S
C1327 C1328 1.415 . S
C1328 H1304 0.950 . S
C1328 C1323 1.363 . S
C1328 C1327 1.415 . S
C1329 H1305 0.951 . S
C1329 C1330 1.366 . S
C1329 C1331 1.388 . S
C1330 C1329 1.366 . S
C1330 C1334 1.385 . S
C1331 H1306 0.951 . S
C1331 C1329 1.388 . S
C1331 C1332 1.366 . S
C1332 C1331 1.366 . S
C1332 C1333 1.414 . S
C1332 C1335 1.499 . S
C1333 H1307 0.950 . S
C1333 C1332 1.414 . S
C1333 C1334 1.374 . S
C1334 H1308 0.950 . S
C1334 C1330 1.385 . S
C1334 C1333 1.374 . S
C1335 C1332 1.499 . S
C1335 C1336 1.373 . S
C1335 C1337 1.389 . S
C1336 H1309 0.950 . S
C1336 C1322 1.377 . S
C1336 C1335 1.373 . S
C1337 C1321 1.377 . S
C1337 C1335 1.389 . S
C1337 C1338 1.524 . S
C1338 C1337 1.524 . S
C1338 C1339 1.397 . S
C1338 C1343 1.363 . S
C1339 H1310 0.950 . S
C1339 C1338 1.397 . S
C1339 C1340 1.334 . S
C1340 H1311 0.950 . S
C1340 C1339 1.334 . S
C1340 C1341 1.287 . S
C1341 C1340 1.287 . S
C1341 C1342 1.524 . S
C1341 H1344 0.999 . S
C1342 H1312 0.950 . S
C1342 C1341 1.524 . S
C1342 C1343 1.415 . S
C1343 H1313 0.950 . S
C1343 C1338 1.363 . S
C1343 C1342 1.415 . S
H1344 C1341 0.999 . S
H1345 C1326 0.913 . S
H1346 C1364 0.951 . S
H1347 C1366 0.951 . S
H1348 C1368 0.950 . S
H1349 C1369 0.950 . S
H1350 C1371 0.950 . S
H1351 C1374 0.950 . S
H1352 C1375 0.950 . S
H1353 C1377 0.950 . S
H1354 C1378 0.950 . S
H1355 C1379 0.951 . S
H1356 C1381 0.951 . S
H1357 C1383 0.950 . S
H1358 C1384 0.950 . S
H1359 C1386 0.950 . S
H1360 C1389 0.950 . S
H1361 C1390 0.950 . S
H1362 C1392 0.950 . S
H1363 C1393 0.950 . S
C1364 H1346 0.951 . S
C1364 C1365 1.366 . S
C1364 C1366 1.388 . S
C1365 C1364 1.366 . S
C1365 C1369 1.385 . S
C1366 H1347 0.951 . S
C1366 C1364 1.388 . S
C1366 C1367 1.366 . S
C1367 C1366 1.366 . S
C1367 C1368 1.414 . S
C1367 C1370 1.499 . S
C1368 H1348 0.950 . S
C1368 C1367 1.414 . S
C1368 C1369 1.374 . S
C1369 H1349 0.950 . S
C1369 C1365 1.385 . S
C1369 C1368 1.374 . S
C1370 C1367 1.499 . S
C1370 C1371 1.373 . S
C1370 C1372 1.389 . S
C1371 H1350 0.950 . S
C1371 C1370 1.373 . S
C1371 C1387 1.377 . S
C1372 C1370 1.389 . S
C1372 C1373 1.528 . S
C1372 C1386 1.377 . S
C1373 C1372 1.528 . S
C1373 C1374 1.400 . S
C1373 C1378 1.356 1_455 S
C1374 H1351 0.950 . S
C1374 C1373 1.400 . S
C1374 C1375 1.334 1_455 S
C1375 H1352 0.950 . S
C1375 C1374 1.334 1_655 S
C1375 C1376 1.287 . S
C1376 C1375 1.287 . S
C1376 C1377 1.524 . S
C1376 H1395 0.913 . S
C1377 H1353 0.950 . S
C1377 C1376 1.524 . S
C1377 C1378 1.415 . S
C1378 H1354 0.950 . S
C1378 C1373 1.356 1_655 S
C1378 C1377 1.415 . S
C1379 H1355 0.951 . S
C1379 C1380 1.366 . S
C1379 C1381 1.388 . S
C1380 C1379 1.366 . S
C1380 C1384 1.385 . S
C1381 H1356 0.951 . S
C1381 C1379 1.388 . S
C1381 C1382 1.366 . S
C1382 C1381 1.366 . S
C1382 C1383 1.414 . S
C1382 C1385 1.499 . S
C1383 H1357 0.950 . S
C1383 C1382 1.414 . S
C1383 C1384 1.374 . S
C1384 H1358 0.950 . S
C1384 C1380 1.385 . S
C1384 C1383 1.374 . S
C1385 C1382 1.499 . S
C1385 C1386 1.373 . S
C1385 C1387 1.389 . S
C1386 H1359 0.950 . S
C1386 C1372 1.377 . S
C1386 C1385 1.373 . S
C1387 C1371 1.377 . S
C1387 C1385 1.389 . S
C1387 C1388 1.524 . S
C1388 C1387 1.524 . S
C1388 C1389 1.397 . S
C1388 C1393 1.363 . S
C1389 H1360 0.950 . S
C1389 C1388 1.397 . S
C1389 C1390 1.334 . S
C1390 H1361 0.950 . S
C1390 C1389 1.334 . S
C1390 C1391 1.287 . S
C1391 C1390 1.287 . S
C1391 C1392 1.524 . S
C1391 H1394 0.999 . S
C1392 H1362 0.950 . S
C1392 C1391 1.524 . S
C1392 C1393 1.415 . S
C1393 H1363 0.950 . S
C1393 C1388 1.363 . S
C1393 C1392 1.415 . S
H1394 C1391 0.999 . S
H1395 C1376 0.913 . S
H1396 C1414 0.951 . S
H1397 C1416 0.951 . S
H1398 C1418 0.950 . S
H1399 C1419 0.950 . S
H1400 C1421 0.950 . S
H1401 C1424 0.950 . S
H1402 C1425 0.950 . S
H1403 C1427 0.950 . S
H1404 C1428 0.950 . S
H1405 C1429 0.951 . S
H1406 C1431 0.951 . S
H1407 C1433 0.950 . S
H1408 C1434 0.950 . S
H1409 C1436 0.950 . S
H1410 C1439 0.950 . S
H1411 C1440 0.950 . S
H1412 C1442 0.950 . S
H1413 C1443 0.950 . S
C1414 H1396 0.951 . S
C1414 C1415 1.366 . S
C1414 C1416 1.388 . S
C1415 C1414 1.366 . S
C1415 C1419 1.385 . S
C1416 H1397 0.951 . S
C1416 C1414 1.388 . S
C1416 C1417 1.366 . S
C1417 C1416 1.366 . S
C1417 C1418 1.414 . S
C1417 C1420 1.499 . S
C1418 H1398 0.950 . S
C1418 C1417 1.414 . S
C1418 C1419 1.374 . S
C1419 H1399 0.950 . S
C1419 C1415 1.385 . S
C1419 C1418 1.374 . S
C1420 C1417 1.499 . S
C1420 C1421 1.373 . S
C1420 C1422 1.389 . S
C1421 H1400 0.950 . S
C1421 C1420 1.373 . S
C1421 C1437 1.377 . S
C1422 C1420 1.389 . S
C1422 C1423 1.524 . S
C1422 C1436 1.377 . S
C1423 C1422 1.524 . S
C1423 C1424 1.397 . S
C1423 C1428 1.363 . S
C1424 H1401 0.950 . S
C1424 C1423 1.397 . S
C1424 C1425 1.334 . S
C1425 H1402 0.950 . S
C1425 C1424 1.334 . S
C1425 C1426 1.287 . S
C1426 C1425 1.287 . S
C1426 C1427 1.524 . S
C1426 H1445 0.913 . S
C1427 H1403 0.950 . S
C1427 C1426 1.524 . S
C1427 C1428 1.415 . S
C1428 H1404 0.950 . S
C1428 C1423 1.363 . S
C1428 C1427 1.415 . S
C1429 H1405 0.951 . S
C1429 C1430 1.366 . S
C1429 C1431 1.388 . S
C1430 C1429 1.366 . S
C1430 C1434 1.385 . S
C1431 H1406 0.951 . S
C1431 C1429 1.388 . S
C1431 C1432 1.366 . S
C1432 C1431 1.366 . S
C1432 C1433 1.414 . S
C1432 C1435 1.499 . S
C1433 H1407 0.950 . S
C1433 C1432 1.414 . S
C1433 C1434 1.374 . S
C1434 H1408 0.950 . S
C1434 C1430 1.385 . S
C1434 C1433 1.374 . S
C1435 C1432 1.499 . S
C1435 C1436 1.373 . S
C1435 C1437 1.389 . S
C1436 H1409 0.950 . S
C1436 C1422 1.377 . S
C1436 C1435 1.373 . S
C1437 C1421 1.377 . S
C1437 C1435 1.389 . S
C1437 C1438 1.524 . S
C1438 C1437 1.524 . S
C1438 C1439 1.397 . S
C1438 C1443 1.363 . S
C1439 H1410 0.950 . S
C1439 C1438 1.397 . S
C1439 C1440 1.334 . S
C1440 H1411 0.950 . S
C1440 C1439 1.334 . S
C1440 C1441 1.287 . S
C1441 C1440 1.287 . S
C1441 C1442 1.524 . S
C1441 H1444 0.999 . S
C1442 H1412 0.950 . S
C1442 C1441 1.524 . S
C1442 C1443 1.415 . S
C1443 H1413 0.950 . S
C1443 C1438 1.363 . S
C1443 C1442 1.415 . S
H1444 C1441 0.999 . S
H1445 C1426 0.913 . S
H1446 C1464 0.951 . S
H1447 C1466 0.951 . S
H1448 C1468 0.950 . S
H1449 C1469 0.950 . S
H1450 C1471 0.950 . S
H1451 C1474 0.950 . S
H1452 C1475 0.950 . S
H1453 C1477 0.950 . S
H1454 C1478 0.950 . S
H1455 C1479 0.951 . S
H1456 C1481 0.951 . S
H1457 C1483 0.950 . S
H1458 C1484 0.950 . S
H1459 C1486 0.950 . S
H1460 C1489 0.950 . S
H1461 C1490 0.950 . S
H1462 C1492 0.950 . S
H1463 C1493 0.950 . S
C1464 H1446 0.951 . S
C1464 C1465 1.366 . S
C1464 C1466 1.388 . S
C1465 C1464 1.366 . S
C1465 C1469 1.385 . S
C1466 H1447 0.951 . S
C1466 C1464 1.388 . S
C1466 C1467 1.366 . S
C1467 C1466 1.366 . S
C1467 C1468 1.414 . S
C1467 C1470 1.499 . S
C1468 H1448 0.950 . S
C1468 C1467 1.414 . S
C1468 C1469 1.374 . S
C1469 H1449 0.950 . S
C1469 C1465 1.385 . S
C1469 C1468 1.374 . S
C1470 C1467 1.499 . S
C1470 C1471 1.373 . S
C1470 C1472 1.389 . S
C1471 H1450 0.950 . S
C1471 C1470 1.373 . S
C1471 C1487 1.377 . S
C1472 C1470 1.389 . S
C1472 C1473 1.524 . S
C1472 C1486 1.377 . S
C1473 C1472 1.524 . S
C1473 C1474 1.397 . S
C1473 C1478 1.363 . S
C1474 H1451 0.950 . S
C1474 C1473 1.397 . S
C1474 C1475 1.334 . S
C1475 H1452 0.950 . S
C1475 C1474 1.334 . S
C1475 C1476 1.287 . S
C1476 C1475 1.287 . S
C1476 C1477 1.524 . S
C1476 H1495 0.913 . S
C1477 H1453 0.950 . S
C1477 C1476 1.524 . S
C1477 C1478 1.415 . S
C1478 H1454 0.950 . S
C1478 C1473 1.363 . S
C1478 C1477 1.415 . S
C1479 H1455 0.951 . S
C1479 C1480 1.366 . S
C1479 C1481 1.388 . S
C1480 C1479 1.366 . S
C1480 C1484 1.385 . S
C1481 H1456 0.951 . S
C1481 C1479 1.388 . S
C1481 C1482 1.366 . S
C1482 C1481 1.366 . S
C1482 C1483 1.414 . S
C1482 C1485 1.499 . S
C1483 H1457 0.950 . S
C1483 C1482 1.414 . S
C1483 C1484 1.374 . S
C1484 H1458 0.950 . S
C1484 C1480 1.385 . S
C1484 C1483 1.374 . S
C1485 C1482 1.499 . S
C1485 C1486 1.373 . S
C1485 C1487 1.389 . S
C1486 H1459 0.950 . S
C1486 C1472 1.377 . S
C1486 C1485 1.373 . S
C1487 C1471 1.377 . S
C1487 C1485 1.389 . S
C1487 C1488 1.524 . S
C1488 C1487 1.524 . S
C1488 C1489 1.397 . S
C1488 C1493 1.363 . S
C1489 H1460 0.950 . S
C1489 C1488 1.397 . S
C1489 C1490 1.334 . S
C1490 H1461 0.950 . S
C1490 C1489 1.334 . S
C1490 C1491 1.287 . S
C1491 C1490 1.287 . S
C1491 C1492 1.524 . S
C1491 H1494 0.999 . S
C1492 H1462 0.950 . S
C1492 C1491 1.524 . S
C1492 C1493 1.415 . S
C1493 H1463 0.950 . S
C1493 C1488 1.363 . S
C1493 C1492 1.415 . S
H1494 C1491 0.999 . S
H1495 C1476 0.913 . S
H1496 C1514 0.951 . S
H1497 C1516 0.951 . S
H1498 C1518 0.950 . S
H1499 C1519 0.950 . S
H1500 C1521 0.950 . S
H1501 C1524 0.950 . S
H1502 C1525 0.950 . S
H1503 C1527 0.950 . S
H1504 C1528 0.950 . S
H1505 C1529 0.951 . S
H1506 C1531 0.951 . S
H1507 C1533 0.950 . S
H1508 C1534 0.950 . S
H1509 C1536 0.950 . S
H1510 C1539 0.948 . S
H1511 C1540 0.950 . S
H1512 C1542 0.950 . S
H1513 C1543 0.950 . S
C1514 H1496 0.951 . S
C1514 C1515 1.366 . S
C1514 C1516 1.388 . S
C1515 C1514 1.366 . S
C1515 C1519 1.385 . S
C1516 H1497 0.951 . S
C1516 C1514 1.388 . S
C1516 C1517 1.366 . S
C1517 C1516 1.366 . S
C1517 C1518 1.414 . S
C1517 C1520 1.499 . S
C1518 H1498 0.950 . S
C1518 C1517 1.414 . S
C1518 C1519 1.374 . S
C1519 H1499 0.950 . S
C1519 C1515 1.385 . S
C1519 C1518 1.374 . S
C1520 C1517 1.499 . S
C1520 C1521 1.373 . S
C1520 C1522 1.389 . S
C1521 H1500 0.950 . S
C1521 C1520 1.373 . S
C1521 C1537 1.377 . S
C1522 C1520 1.389 . S
C1522 C1523 1.524 . S
C1522 C1536 1.377 . S
C1523 C1522 1.524 . S
C1523 C1524 1.397 . S
C1523 C1528 1.363 . S
C1524 H1501 0.950 . S
C1524 C1523 1.397 . S
C1524 C1525 1.334 . S
C1525 H1502 0.950 . S
C1525 C1524 1.334 . S
C1525 C1526 1.287 . S
C1526 C1525 1.287 . S
C1526 C1527 1.524 . S
C1526 H1545 0.913 . S
C1527 H1503 0.950 . S
C1527 C1526 1.524 . S
C1527 C1528 1.415 . S
C1528 H1504 0.950 . S
C1528 C1523 1.363 . S
C1528 C1527 1.415 . S
C1529 H1505 0.951 . S
C1529 C1530 1.366 . S
C1529 C1531 1.388 . S
C1530 C1529 1.366 . S
C1530 C1534 1.385 . S
C1531 H1506 0.951 . S
C1531 C1529 1.388 . S
C1531 C1532 1.366 . S
C1532 C1531 1.366 . S
C1532 C1533 1.414 . S
C1532 C1535 1.499 . S
C1533 H1507 0.950 . S
C1533 C1532 1.414 . S
C1533 C1534 1.374 . S
C1534 H1508 0.950 . S
C1534 C1530 1.385 . S
C1534 C1533 1.374 . S
C1535 C1532 1.499 . S
C1535 C1536 1.373 . S
C1535 C1537 1.389 . S
C1536 H1509 0.950 . S
C1536 C1522 1.377 . S
C1536 C1535 1.373 . S
C1537 C1521 1.377 . S
C1537 C1535 1.389 . S
C1537 C1538 1.520 1_655 S
C1538 C1537 1.520 1_455 S
C1538 C1539 1.395 1_455 S
C1538 C1543 1.369 . S
C1539 H1510 0.948 . S
C1539 C1538 1.395 1_655 S
C1539 C1540 1.335 1_655 S
C1540 H1511 0.950 . S
C1540 C1539 1.335 1_455 S
C1540 C1541 1.287 . S
C1541 C1540 1.287 . S
C1541 C1542 1.524 . S
C1541 H1544 0.999 . S
C1542 H1512 0.950 . S
C1542 C1541 1.524 . S
C1542 C1543 1.415 . S
C1543 H1513 0.950 . S
C1543 C1538 1.369 . S
C1543 C1542 1.415 . S
H1544 C1541 0.999 . S
H1545 C1526 0.913 . S
H1546 C1564 0.951 . S
H1547 C1566 0.951 . S
H1548 C1568 0.950 . S
H1549 C1569 0.950 . S
H1550 C1571 0.950 . S
H1551 C1574 0.950 . S
H1552 C1575 0.950 . S
H1553 C1577 0.950 . S
H1554 C1578 0.950 . S
H1555 C1579 0.951 . S
H1556 C1581 0.951 . S
H1557 C1583 0.950 . S
H1558 C1584 0.950 . S
H1559 C1586 0.950 . S
H1560 C1589 0.950 . S
H1561 C1590 0.950 . S
H1562 C1592 0.950 . S
H1563 C1593 0.950 . S
C1564 H1546 0.951 . S
C1564 C1565 1.366 . S
C1564 C1566 1.388 . S
C1565 C1564 1.366 . S
C1565 C1569 1.385 . S
C1566 H1547 0.951 . S
C1566 C1564 1.388 . S
C1566 C1567 1.366 . S
C1567 C1566 1.366 . S
C1567 C1568 1.414 . S
C1567 C1570 1.499 . S
C1568 H1548 0.950 . S
C1568 C1567 1.414 . S
C1568 C1569 1.374 . S
C1569 H1549 0.950 . S
C1569 C1565 1.385 . S
C1569 C1568 1.374 . S
C1570 C1567 1.499 . S
C1570 C1571 1.373 . S
C1570 C1572 1.389 . S
C1571 H1550 0.950 . S
C1571 C1570 1.373 . S
C1571 C1587 1.377 . S
C1572 C1570 1.389 . S
C1572 C1573 1.524 . S
C1572 C1586 1.377 . S
C1573 C1572 1.524 . S
C1573 C1574 1.397 . S
C1573 C1578 1.363 . S
C1574 H1551 0.950 . S
C1574 C1573 1.397 . S
C1574 C1575 1.334 . S
C1575 H1552 0.950 . S
C1575 C1574 1.334 . S
C1575 C1576 1.287 . S
C1576 C1575 1.287 . S
C1576 C1577 1.524 . S
C1576 H1595 0.913 . S
C1577 H1553 0.950 . S
C1577 C1576 1.524 . S
C1577 C1578 1.415 . S
C1578 H1554 0.950 . S
C1578 C1573 1.363 . S
C1578 C1577 1.415 . S
C1579 H1555 0.951 . S
C1579 C1580 1.366 . S
C1579 C1581 1.388 . S
C1580 C1579 1.366 . S
C1580 C1584 1.385 . S
C1581 H1556 0.951 . S
C1581 C1579 1.388 . S
C1581 C1582 1.366 . S
C1582 C1581 1.366 . S
C1582 C1583 1.414 . S
C1582 C1585 1.499 . S
C1583 H1557 0.950 . S
C1583 C1582 1.414 . S
C1583 C1584 1.374 . S
C1584 H1558 0.950 . S
C1584 C1580 1.385 . S
C1584 C1583 1.374 . S
C1585 C1582 1.499 . S
C1585 C1586 1.373 . S
C1585 C1587 1.389 . S
C1586 H1559 0.950 . S
C1586 C1572 1.377 . S
C1586 C1585 1.373 . S
C1587 C1571 1.377 . S
C1587 C1585 1.389 . S
C1587 C1588 1.524 . S
C1588 C1587 1.524 . S
C1588 C1589 1.397 . S
C1588 C1593 1.363 1_565 S
C1589 H1560 0.950 . S
C1589 C1588 1.397 . S
C1589 C1590 1.334 . S
C1590 H1561 0.950 . S
C1590 C1589 1.334 . S
C1590 C1591 1.287 1_565 S
C1591 C1590 1.287 1_545 S
C1591 C1592 1.524 . S
C1591 H1594 0.999 . S
C1592 H1562 0.950 . S
C1592 C1591 1.524 . S
C1592 C1593 1.415 . S
C1593 H1563 0.950 . S
C1593 C1588 1.363 1_545 S
C1593 C1592 1.415 . S
H1594 C1591 0.999 . S
H1595 C1576 0.913 . S
H1596 C1614 0.951 . S
H1597 C1616 0.951 . S
H1598 C1618 0.950 . S
H1599 C1619 0.950 . S
H1600 C1621 0.950 . S
H1601 C1624 0.950 . S
H1602 C1625 0.950 . S
H1603 C1627 0.950 . S
H1604 C1628 0.950 . S
H1605 C1629 0.951 . S
H1606 C1631 0.951 . S
H1607 C1633 0.950 . S
H1608 C1634 0.950 . S
H1609 C1636 0.950 . S
H1610 C1639 0.950 . S
H1611 C1640 0.950 . S
H1612 C1642 0.950 . S
H1613 C1643 0.950 . S
C1614 H1596 0.951 . S
C1614 C1615 1.366 . S
C1614 C1616 1.388 . S
C1615 C1614 1.366 . S
C1615 C1619 1.385 . S
C1616 H1597 0.951 . S
C1616 C1614 1.388 . S
C1616 C1617 1.366 . S
C1617 C1616 1.366 . S
C1617 C1618 1.414 . S
C1617 C1620 1.499 . S
C1618 H1598 0.950 . S
C1618 C1617 1.414 . S
C1618 C1619 1.374 . S
C1619 H1599 0.950 . S
C1619 C1615 1.385 . S
C1619 C1618 1.374 . S
C1620 C1617 1.499 . S
C1620 C1621 1.373 . S
C1620 C1622 1.389 . S
C1621 H1600 0.950 . S
C1621 C1620 1.373 . S
C1621 C1637 1.377 . S
C1622 C1620 1.389 . S
C1622 C1623 1.524 . S
C1622 C1636 1.377 . S
C1623 C1622 1.524 . S
C1623 C1624 1.397 . S
C1623 C1628 1.363 . S
C1624 H1601 0.950 . S
C1624 C1623 1.397 . S
C1624 C1625 1.334 . S
C1625 H1602 0.950 . S
C1625 C1624 1.334 . S
C1625 C1626 1.287 . S
C1626 C1625 1.287 . S
C1626 C1627 1.524 . S
C1626 H1645 0.913 . S
C1627 H1603 0.950 . S
C1627 C1626 1.524 . S
C1627 C1628 1.415 . S
C1628 H1604 0.950 . S
C1628 C1623 1.363 . S
C1628 C1627 1.415 . S
C1629 H1605 0.951 . S
C1629 C1630 1.366 . S
C1629 C1631 1.388 . S
C1630 C1629 1.366 . S
C1630 C1634 1.385 . S
C1631 H1606 0.951 . S
C1631 C1629 1.388 . S
C1631 C1632 1.366 . S
C1632 C1631 1.366 . S
C1632 C1633 1.414 . S
C1632 C1635 1.499 . S
C1633 H1607 0.950 . S
C1633 C1632 1.414 . S
C1633 C1634 1.374 . S
C1634 H1608 0.950 . S
C1634 C1630 1.385 . S
C1634 C1633 1.374 . S
C1635 C1632 1.499 . S
C1635 C1636 1.373 . S
C1635 C1637 1.389 . S
C1636 H1609 0.950 . S
C1636 C1622 1.377 . S
C1636 C1635 1.373 . S
C1637 C1621 1.377 . S
C1637 C1635 1.389 . S
C1637 C1638 1.524 . S
C1638 C1637 1.524 . S
C1638 C1639 1.397 . S
C1638 C1643 1.363 . S
C1639 H1610 0.950 . S
C1639 C1638 1.397 . S
C1639 C1640 1.334 . S
C1640 H1611 0.950 . S
C1640 C1639 1.334 . S
C1640 C1641 1.287 . S
C1641 C1640 1.287 . S
C1641 C1642 1.524 . S
C1641 H1644 0.999 . S
C1642 H1612 0.950 . S
C1642 C1641 1.524 . S
C1642 C1643 1.415 . S
C1643 H1613 0.950 . S
C1643 C1638 1.363 . S
C1643 C1642 1.415 . S
H1644 C1641 0.999 . S
H1645 C1626 0.913 . S
H1646 C1664 0.951 1_655 S
H1647 C1666 0.951 . S
H1648 C1668 0.950 . S
H1649 C1669 0.950 . S
H1650 C1671 0.950 . S
H1651 C1674 0.950 . S
H1652 C1675 0.950 . S
H1653 C1677 0.950 . S
H1654 C1678 0.950 . S
H1655 C1679 0.951 1_455 S
H1656 C1681 0.951 . S
H1657 C1683 0.950 . S
H1658 C1684 0.950 . S
H1659 C1686 0.950 . S
H1660 C1689 0.950 . S
H1661 C1690 0.950 . S
H1662 C1692 0.950 . S
H1663 C1693 0.950 . S
C1664 H1646 0.951 1_455 S
C1664 C1665 1.366 . S
C1664 C1666 1.388 1_455 S
C1665 C1664 1.366 . S
C1665 C1669 1.385 . S
C1666 H1647 0.951 . S
C1666 C1664 1.388 1_655 S
C1666 C1667 1.366 1_655 S
C1667 C1666 1.366 1_455 S
C1667 C1668 1.414 . S
C1667 C1670 1.499 . S
C1668 H1648 0.950 . S
C1668 C1667 1.414 . S
C1668 C1669 1.374 . S
C1669 H1649 0.950 . S
C1669 C1665 1.385 . S
C1669 C1668 1.374 . S
C1670 C1667 1.499 . S
C1670 C1671 1.373 . S
C1670 C1672 1.389 1_455 S
C1671 H1650 0.950 . S
C1671 C1670 1.373 . S
C1671 C1687 1.377 . S
C1672 C1670 1.389 1_655 S
C1672 C1673 1.524 . S
C1672 C1686 1.377 . S
C1673 C1672 1.524 . S
C1673 C1674 1.397 . S
C1673 C1678 1.363 . S
C1674 H1651 0.950 . S
C1674 C1673 1.397 . S
C1674 C1675 1.334 . S
C1675 H1652 0.950 . S
C1675 C1674 1.334 . S
C1675 C1676 1.287 . S
C1676 C1675 1.287 . S
C1676 C1677 1.524 . S
C1676 H1695 0.913 . S
C1677 H1653 0.950 . S
C1677 C1676 1.524 . S
C1677 C1678 1.415 . S
C1678 H1654 0.950 . S
C1678 C1673 1.363 . S
C1678 C1677 1.415 . S
C1679 H1655 0.951 1_655 S
C1679 C1680 1.366 . S
C1679 C1681 1.388 1_655 S
C1680 C1679 1.366 . S
C1680 C1684 1.385 . S
C1681 H1656 0.951 . S
C1681 C1679 1.388 1_455 S
C1681 C1682 1.366 1_455 S
C1682 C1681 1.366 1_655 S
C1682 C1683 1.414 . S
C1682 C1685 1.499 . S
C1683 H1657 0.950 . S
C1683 C1682 1.414 . S
C1683 C1684 1.374 . S
C1684 H1658 0.950 . S
C1684 C1680 1.385 . S
C1684 C1683 1.374 . S
C1685 C1682 1.499 . S
C1685 C1686 1.373 . S
C1685 C1687 1.389 1_655 S
C1686 H1659 0.950 . S
C1686 C1672 1.377 . S
C1686 C1685 1.373 . S
C1687 C1671 1.377 . S
C1687 C1685 1.389 1_455 S
C1687 C1688 1.524 . S
C1688 C1687 1.524 . S
C1688 C1689 1.397 . S
C1688 C1693 1.363 . S
C1689 H1660 0.950 . S
C1689 C1688 1.397 . S
C1689 C1690 1.334 . S
C1690 H1661 0.950 . S
C1690 C1689 1.334 . S
C1690 C1691 1.287 . S
C1691 C1690 1.287 . S
C1691 C1692 1.524 . S
C1691 H1694 0.999 . S
C1692 H1662 0.950 . S
C1692 C1691 1.524 . S
C1692 C1693 1.415 . S
C1693 H1663 0.950 . S
C1693 C1688 1.363 . S
C1693 C1692 1.415 . S
H1694 C1691 0.999 . S
H1695 C1676 0.913 . S
H1696 C1714 0.951 . S
H1697 C1716 0.951 . S
H1698 C1718 0.950 . S
H1699 C1719 0.950 . S
H1700 C1721 0.950 . S
H1701 C1724 0.950 . S
H1702 C1725 0.950 . S
H1703 C1727 0.950 . S
H1704 C1728 0.958 . S
H1705 C1729 0.951 . S
H1706 C1731 0.951 . S
H1707 C1733 0.950 . S
H1708 C1734 0.950 . S
H1709 C1736 0.950 . S
H1710 C1739 0.950 . S
H1711 C1740 0.950 . S
H1712 C1742 0.950 . S
H1713 C1743 0.958 . S
C1714 H1696 0.951 . S
C1714 C1715 1.366 . S
C1714 C1716 1.388 . S
C1715 C1714 1.366 . S
C1715 C1719 1.385 1_545 S
C1716 H1697 0.951 . S
C1716 C1714 1.388 . S
C1716 C1717 1.366 . S
C1717 C1716 1.366 . S
C1717 C1718 1.414 1_545 S
C1717 C1720 1.499 . S
C1718 H1698 0.950 . S
C1718 C1717 1.414 1_565 S
C1718 C1719 1.374 . S
C1719 H1699 0.950 . S
C1719 C1715 1.385 1_565 S
C1719 C1718 1.374 . S
C1720 C1717 1.499 . S
C1720 C1721 1.373 1_545 S
C1720 C1722 1.389 . S
C1721 H1700 0.950 . S
C1721 C1720 1.373 1_565 S
C1721 C1737 1.377 1_556 S
C1722 C1720 1.389 . S
C1722 C1723 1.524 . S
C1722 C1736 1.377 1_556 S
C1723 C1722 1.524 . S
C1723 C1724 1.397 . S
C1723 C1728 1.363 . S
C1724 H1701 0.950 . S
C1724 C1723 1.397 . S
C1724 C1725 1.334 . S
C1725 H1702 0.950 . S
C1725 C1724 1.334 . S
C1725 C1726 1.287 . S
C1726 C1725 1.287 . S
C1726 C1727 1.524 . S
C1726 H1745 0.913 . S
C1727 H1703 0.950 . S
C1727 C1726 1.524 . S
C1727 C1728 1.415 . S
C1728 H1704 0.958 . S
C1728 C1723 1.363 . S
C1728 C1727 1.415 . S
C1729 H1705 0.951 . S
C1729 C1730 1.366 . S
C1729 C1731 1.388 . S
C1730 C1729 1.366 . S
C1730 C1734 1.385 1_565 S
C1731 H1706 0.951 . S
C1731 C1729 1.388 . S
C1731 C1732 1.366 . S
C1732 C1731 1.366 . S
C1732 C1733 1.414 1_565 S
C1732 C1735 1.499 . S
C1733 H1707 0.950 . S
C1733 C1732 1.414 1_545 S
C1733 C1734 1.374 . S
C1734 H1708 0.950 . S
C1734 C1730 1.385 1_545 S
C1734 C1733 1.374 . S
C1735 C1732 1.499 . S
C1735 C1736 1.373 1_565 S
C1735 C1737 1.389 . S
C1736 H1709 0.950 . S
C1736 C1722 1.377 1_554 S
C1736 C1735 1.373 1_545 S
C1737 C1721 1.377 1_554 S
C1737 C1735 1.389 . S
C1737 C1738 1.524 . S
C1738 C1737 1.524 . S
C1738 C1739 1.397 . S
C1738 C1743 1.363 . S
C1739 H1710 0.950 . S
C1739 C1738 1.397 . S
C1739 C1740 1.334 . S
C1740 H1711 0.950 . S
C1740 C1739 1.334 . S
C1740 C1741 1.287 . S
C1741 C1740 1.287 . S
C1741 C1742 1.524 . S
C1741 H1744 0.999 . S
C1742 H1712 0.950 . S
C1742 C1741 1.524 . S
C1742 C1743 1.415 . S
C1743 H1713 0.958 . S
C1743 C1738 1.363 . S
C1743 C1742 1.415 . S
H1744 C1741 0.999 . S
H1745 C1726 0.913 . S
H1746 C1764 0.951 . S
H1747 C1766 0.951 . S
H1748 C1768 0.950 . S
H1749 C1769 0.950 . S
H1750 C1771 0.950 . S
H1751 C1774 0.950 . S
H1752 C1775 0.950 . S
H1753 C1777 0.950 . S
H1754 C1778 0.950 . S
H1755 C1779 0.951 . S
H1756 C1781 0.951 . S
H1757 C1783 0.950 . S
H1758 C1784 0.950 . S
H1759 C1786 0.950 . S
H1760 C1789 0.950 . S
H1761 C1790 0.950 . S
H1762 C1792 0.950 . S
H1763 C1793 0.950 . S
C1764 H1746 0.951 . S
C1764 C1765 1.366 . S
C1764 C1766 1.388 . S
C1765 C1764 1.366 . S
C1765 C1769 1.385 . S
C1766 H1747 0.951 . S
C1766 C1764 1.388 . S
C1766 C1767 1.366 . S
C1767 C1766 1.366 . S
C1767 C1768 1.414 . S
C1767 C1770 1.499 . S
C1768 H1748 0.950 . S
C1768 C1767 1.414 . S
C1768 C1769 1.374 . S
C1769 H1749 0.950 . S
C1769 C1765 1.385 . S
C1769 C1768 1.374 . S
C1770 C1767 1.499 . S
C1770 C1771 1.373 . S
C1770 C1772 1.389 . S
C1771 H1750 0.950 . S
C1771 C1770 1.373 . S
C1771 C1787 1.377 . S
C1772 C1770 1.389 . S
C1772 C1773 1.524 . S
C1772 C1786 1.377 . S
C1773 C1772 1.524 . S
C1773 C1774 1.397 . S
C1773 C1778 1.363 . S
C1774 H1751 0.950 . S
C1774 C1773 1.397 . S
C1774 C1775 1.334 . S
C1775 H1752 0.950 . S
C1775 C1774 1.334 . S
C1775 C1776 1.287 . S
C1776 C1775 1.287 . S
C1776 C1777 1.524 . S
C1776 H1795 0.913 . S
C1777 H1753 0.950 . S
C1777 C1776 1.524 . S
C1777 C1778 1.415 . S
C1778 H1754 0.950 . S
C1778 C1773 1.363 . S
C1778 C1777 1.415 . S
C1779 H1755 0.951 . S
C1779 C1780 1.366 . S
C1779 C1781 1.388 . S
C1780 C1779 1.366 . S
C1780 C1784 1.385 . S
C1781 H1756 0.951 . S
C1781 C1779 1.388 . S
C1781 C1782 1.366 . S
C1782 C1781 1.366 . S
C1782 C1783 1.414 . S
C1782 C1785 1.499 . S
C1783 H1757 0.950 . S
C1783 C1782 1.414 . S
C1783 C1784 1.374 . S
C1784 H1758 0.950 . S
C1784 C1780 1.385 . S
C1784 C1783 1.374 . S
C1785 C1782 1.499 . S
C1785 C1786 1.373 . S
C1785 C1787 1.389 . S
C1786 H1759 0.950 . S
C1786 C1772 1.377 . S
C1786 C1785 1.373 . S
C1787 C1771 1.377 . S
C1787 C1785 1.389 . S
C1787 C1788 1.524 . S
C1788 C1787 1.524 . S
C1788 C1789 1.397 . S
C1788 C1793 1.363 . S
C1789 H1760 0.950 . S
C1789 C1788 1.397 . S
C1789 C1790 1.334 . S
C1790 H1761 0.950 . S
C1790 C1789 1.334 . S
C1790 C1791 1.287 . S
C1791 C1790 1.287 . S
C1791 C1792 1.524 . S
C1791 H1794 0.999 . S
C1792 H1762 0.950 . S
C1792 C1791 1.524 . S
C1792 C1793 1.415 . S
C1793 H1763 0.950 . S
C1793 C1788 1.363 . S
C1793 C1792 1.415 . S
H1794 C1791 0.999 . S
H1795 C1776 0.913 . S
H1796 C1814 0.953 1_455 S
H1797 C1816 0.951 . S
H1798 C1818 0.950 . S
H1799 C1819 0.950 . S
H1800 C1821 0.950 . S
H1801 C1824 0.950 . S
H1802 C1825 0.950 . S
H1803 C1827 0.950 . S
H1804 C1828 0.950 . S
H1805 C1829 0.953 1_655 S
H1806 C1831 0.951 . S
H1807 C1833 0.950 . S
H1808 C1834 0.950 . S
H1809 C1836 0.950 . S
H1810 C1839 0.950 . S
H1811 C1840 0.950 . S
H1812 C1842 0.950 . S
H1813 C1843 0.950 . S
C1814 H1796 0.953 1_655 S
C1814 C1815 1.365 . S
C1814 C1816 1.386 1_655 S
C1815 C1814 1.365 . S
C1815 C1819 1.385 . S
C1816 H1797 0.951 . S
C1816 C1814 1.386 1_455 S
C1816 C1817 1.366 1_455 S
C1817 C1816 1.366 1_655 S
C1817 C1818 1.414 . S
C1817 C1820 1.499 . S
C1818 H1798 0.950 . S
C1818 C1817 1.414 . S
C1818 C1819 1.374 . S
C1819 H1799 0.950 . S
C1819 C1815 1.385 . S
C1819 C1818 1.374 . S
C1820 C1817 1.499 . S
C1820 C1821 1.373 . S
C1820 C1822 1.389 1_655 S
C1821 H1800 0.950 . S
C1821 C1820 1.373 . S
C1821 C1837 1.377 . S
C1822 C1820 1.389 1_455 S
C1822 C1823 1.524 . S
C1822 C1836 1.377 . S
C1823 C1822 1.524 . S
C1823 C1824 1.397 . S
C1823 C1828 1.363 . S
C1824 H1801 0.950 . S
C1824 C1823 1.397 . S
C1824 C1825 1.334 . S
C1825 H1802 0.950 . S
C1825 C1824 1.334 . S
C1825 C1826 1.287 . S
C1826 C1825 1.287 . S
C1826 C1827 1.524 . S
C1826 H1845 0.913 . S
C1827 H1803 0.950 . S
C1827 C1826 1.524 . S
C1827 C1828 1.415 . S
C1828 H1804 0.950 . S
C1828 C1823 1.363 . S
C1828 C1827 1.415 . S
C1829 H1805 0.953 1_455 S
C1829 C1830 1.365 . S
C1829 C1831 1.386 1_455 S
C1830 C1829 1.365 . S
C1830 C1834 1.385 . S
C1831 H1806 0.951 . S
C1831 C1829 1.386 1_655 S
C1831 C1832 1.366 1_655 S
C1832 C1831 1.366 1_455 S
C1832 C1833 1.414 . S
C1832 C1835 1.499 . S
C1833 H1807 0.950 . S
C1833 C1832 1.414 . S
C1833 C1834 1.374 . S
C1834 H1808 0.950 . S
C1834 C1830 1.385 . S
C1834 C1833 1.374 . S
C1835 C1832 1.499 . S
C1835 C1836 1.373 . S
C1835 C1837 1.389 1_455 S
C1836 H1809 0.950 . S
C1836 C1822 1.377 . S
C1836 C1835 1.373 . S
C1837 C1821 1.377 . S
C1837 C1835 1.389 1_655 S
C1837 C1838 1.524 . S
C1838 C1837 1.524 . S
C1838 C1839 1.397 . S
C1838 C1843 1.363 . S
C1839 H1810 0.950 . S
C1839 C1838 1.397 . S
C1839 C1840 1.334 . S
C1840 H1811 0.950 . S
C1840 C1839 1.334 . S
C1840 C1841 1.287 . S
C1841 C1840 1.287 . S
C1841 C1842 1.524 . S
C1841 H1844 0.999 . S
C1842 H1812 0.950 . S
C1842 C1841 1.524 . S
C1842 C1843 1.415 . S
C1843 H1813 0.950 . S
C1843 C1838 1.363 . S
C1843 C1842 1.415 . S
H1844 C1841 0.999 . S
H1845 C1826 0.913 . S
H1846 C1864 0.951 . S
H1847 C1866 0.951 . S
H1848 C1868 0.950 . S
H1849 C1869 0.950 . S
H1850 C1871 0.950 . S
H1851 C1874 0.950 . S
H1852 C1875 0.950 . S
H1853 C1877 0.950 . S
H1854 C1878 0.950 . S
H1855 C1879 0.951 . S
H1856 C1881 0.951 . S
H1857 C1883 0.950 . S
H1858 C1884 0.950 . S
H1859 C1886 0.950 . S
H1860 C1889 0.950 . S
H1861 C1890 0.950 . S
H1862 C1892 0.950 . S
H1863 C1893 0.950 . S
C1864 H1846 0.951 . S
C1864 C1865 1.366 . S
C1864 C1866 1.388 . S
C1865 C1864 1.366 . S
C1865 C1869 1.385 1_545 S
C1866 H1847 0.951 . S
C1866 C1864 1.388 . S
C1866 C1867 1.366 . S
C1867 C1866 1.366 . S
C1867 C1868 1.414 1_545 S
C1867 C1870 1.499 . S
C1868 H1848 0.950 . S
C1868 C1867 1.414 1_565 S
C1868 C1869 1.374 . S
C1869 H1849 0.950 . S
C1869 C1865 1.385 1_565 S
C1869 C1868 1.374 . S
C1870 C1867 1.499 . S
C1870 C1871 1.373 1_545 S
C1870 C1872 1.389 . S
C1871 H1850 0.950 . S
C1871 C1870 1.373 1_565 S
C1871 C1887 1.377 . S
C1872 C1870 1.389 . S
C1872 C1873 1.524 . S
C1872 C1886 1.377 . S
C1873 C1872 1.524 . S
C1873 C1874 1.397 1_545 S
C1873 C1878 1.363 . S
C1874 H1851 0.950 . S
C1874 C1873 1.397 1_565 S
C1874 C1875 1.334 . S
C1875 H1852 0.950 . S
C1875 C1874 1.334 . S
C1875 C1876 1.287 1_565 S
C1876 C1875 1.287 1_545 S
C1876 C1877 1.524 . S
C1876 H1895 0.913 . S
C1877 H1853 0.950 . S
C1877 C1876 1.524 . S
C1877 C1878 1.415 . S
C1878 H1854 0.950 . S
C1878 C1873 1.363 . S
C1878 C1877 1.415 . S
C1879 H1855 0.951 . S
C1879 C1880 1.366 . S
C1879 C1881 1.388 . S
C1880 C1879 1.366 . S
C1880 C1884 1.385 1_565 S
C1881 H1856 0.951 . S
C1881 C1879 1.388 . S
C1881 C1882 1.366 . S
C1882 C1881 1.366 . S
C1882 C1883 1.414 1_565 S
C1882 C1885 1.499 . S
C1883 H1857 0.950 . S
C1883 C1882 1.414 1_545 S
C1883 C1884 1.374 . S
C1884 H1858 0.950 . S
C1884 C1880 1.385 1_545 S
C1884 C1883 1.374 . S
C1885 C1882 1.499 . S
C1885 C1886 1.373 1_565 S
C1885 C1887 1.389 . S
C1886 H1859 0.950 . S
C1886 C1872 1.377 . S
C1886 C1885 1.373 1_545 S
C1887 C1871 1.377 . S
C1887 C1885 1.389 . S
C1887 C1888 1.524 . S
C1888 C1887 1.524 . S
C1888 C1889 1.397 1_565 S
C1888 C1893 1.363 . S
C1889 H1860 0.950 . S
C1889 C1888 1.397 1_545 S
C1889 C1890 1.334 . S
C1890 H1861 0.950 . S
C1890 C1889 1.334 . S
C1890 C1891 1.287 1_545 S
C1891 C1890 1.287 1_565 S
C1891 C1892 1.524 . S
C1891 H1894 0.999 . S
C1892 H1862 0.950 . S
C1892 C1891 1.524 . S
C1892 C1893 1.415 . S
C1893 H1863 0.950 . S
C1893 C1888 1.363 . S
C1893 C1892 1.415 . S
H1894 C1891 0.999 . S
H1895 C1876 0.913 . S
C415 C282 0.592 . S
C430 C18 0.592 . S
C465 C51 0.591 . S
C480 C315 0.591 . S
C515 C84 0.593 . S
C530 C348 0.593 . S
C565 C117 0.593 . S
C580 C381 0.593 . S
C615 C150 0.593 . S
C630 C216 0.593 . S
C665 C183 0.592 . S
C680 C249 0.592 . S
C715 N13 1.754 . S
C730 C172 1.700 . S
C765 C7 1.700 . S
C780 N46 1.754 . S
C815 N79 1.754 . S
C830 C40 1.700 . S
C865 C73 1.700 . S
C880 N112 1.754 . S
C915 C106 1.699 . S
C930 N145 1.754 . S
C965 N178 1.754 . S
C980 C139 1.700 . S
C1015 C238 1.700 . S
C1030 N211 1.754 . S
C1065 C271 1.699 . S
C1080 N244 1.754 . S
C1115 C304 1.700 . S
C1130 N277 1.754 . S
C1165 C337 1.700 . S
C1180 N310 1.754 . S
C1215 C370 1.700 . S
C1230 N343 1.755 . S
C1265 N376 1.754 . S
C1280 C205 1.700 . S
C1315 C21 1.248 . S
C1330 C219 1.248 . S
C1365 C54 1.248 . S
C1380 C252 1.248 . S
C1415 C87 1.248 . S
C1430 C285 1.248 . S
C1465 C120 1.248 . S
C1480 C318 1.248 . S
C1515 C351 1.248 . S
C1530 C153 1.248 . S
C1565 C186 1.248 . S
C1580 C384 1.248 . S
C1615 N299 0.625 . S
C1630 N2 0.627 . S
C1665 N35 0.625 . S
C1680 N332 0.625 . S
C1715 N68 0.629 . S
C1730 N365 0.628 . S
C1765 N101 0.626 . S
C1780 N200 0.628 . S
C1815 N134 0.625 . S
C1830 N233 0.625 . S
C1865 N266 0.627 . S
C1880 N167 0.626 . S
