# Generated by pormake.
# Topology vby, (6)-cn, num edge types: 1
# Building blocks:
#     Node 0, Type 0, BuildingBlock: CUKXOW_clean_sbu_0, # of connection points: 6
#     Node 1, Type 0, BuildingBlock: CUKXOW_clean_sbu_0, # of connection points: 6
#     Node 2, Type 0, BuildingBlock: CUKXOW_clean_sbu_0, # of connection points: 6
#     Node 3, Type 0, BuildingBlock: CUKXOW_clean_sbu_0, # of connection points: 6
#     Node 4, Type 0, BuildingBlock: CUKXOW_clean_sbu_0, # of connection points: 6
#     Node 5, Type 0, BuildingBlock: CUKXOW_clean_sbu_0, # of connection points: 6
#     Node 6, Type 0, BuildingBlock: CUKXOW_clean_sbu_0, # of connection points: 6
#     Node 7, Type 0, BuildingBlock: CUKXOW_clean_sbu_0, # of connection points: 6
#     Edge 8, Type (0, 0), BuildingBlock: EZIPEK_clean_linker_0, # of connection points: 2
#     Edge 9, Type (0, 0), BuildingBlock: EZIPEK_clean_linker_0, # of connection points: 2
#     Edge 10, Type (0, 0), BuildingBlock: EZIPEK_clean_linker_0, # of connection points: 2
#     Edge 11, Type (0, 0), BuildingBlock: EZIPEK_clean_linker_0, # of connection points: 2
#     Edge 12, Type (0, 0), BuildingBlock: EZIPEK_clean_linker_0, # of connection points: 2
#     Edge 13, Type (0, 0), BuildingBlock: EZIPEK_clean_linker_0, # of connection points: 2
#     Edge 14, Type (0, 0), BuildingBlock: EZIPEK_clean_linker_0, # of connection points: 2
#     Edge 15, Type (0, 0), BuildingBlock: EZIPEK_clean_linker_0, # of connection points: 2
#     Edge 16, Type (0, 0), BuildingBlock: EZIPEK_clean_linker_0, # of connection points: 2
#     Edge 17, Type (0, 0), BuildingBlock: EZIPEK_clean_linker_0, # of connection points: 2
#     Edge 18, Type (0, 0), BuildingBlock: EZIPEK_clean_linker_0, # of connection points: 2
#     Edge 19, Type (0, 0), BuildingBlock: EZIPEK_clean_linker_0, # of connection points: 2
#     Edge 20, Type (0, 0), BuildingBlock: EZIPEK_clean_linker_0, # of connection points: 2
#     Edge 21, Type (0, 0), BuildingBlock: EZIPEK_clean_linker_0, # of connection points: 2
#     Edge 22, Type (0, 0), BuildingBlock: EZIPEK_clean_linker_0, # of connection points: 2
#     Edge 23, Type (0, 0), BuildingBlock: EZIPEK_clean_linker_0, # of connection points: 2
#     Edge 24, Type (0, 0), BuildingBlock: EZIPEK_clean_linker_0, # of connection points: 2
#     Edge 25, Type (0, 0), BuildingBlock: EZIPEK_clean_linker_0, # of connection points: 2
#     Edge 26, Type (0, 0), BuildingBlock: EZIPEK_clean_linker_0, # of connection points: 2
#     Edge 27, Type (0, 0), BuildingBlock: EZIPEK_clean_linker_0, # of connection points: 2
#     Edge 28, Type (0, 0), BuildingBlock: EZIPEK_clean_linker_0, # of connection points: 2
#     Edge 29, Type (0, 0), BuildingBlock: EZIPEK_clean_linker_0, # of connection points: 2
#     Edge 30, Type (0, 0), BuildingBlock: EZIPEK_clean_linker_0, # of connection points: 2
#     Edge 31, Type (0, 0), BuildingBlock: EZIPEK_clean_linker_0, # of connection points: 2
# Relax obj value: 0.104
# Max RMSD: 0.176
# Mean RMSD: 0.176
data_MOF--net-vby--node1-CUKXOW_clean_sbu_0--edge1-EZIPEK_clean_linker_0
_symmetry_space_group_name_H-M    P1
_symmetry_Int_Tables_number       1
_symmetry_cell_setting            triclinic
loop_
_symmetry_equiv_pos_as_xyz
'x, y, z'
_cell_length_a     13.840984
_cell_length_b     38.483401
_cell_length_c     22.117197
_cell_angle_alpha  103.96498
_cell_angle_beta   90.178452
_cell_angle_gamma 89.699919
loop_
_atom_site_label
_atom_site_type_symbol
_atom_site_fract_x
_atom_site_fract_y
_atom_site_fract_z
_atom_type_partial_charge
Tb0 Tb 0.98396 0.37846 0.99682 0.0
C1 C 0.07336 0.39977 0.12471 0.0
Tb2 Tb 0.18624 0.39889 0.99382 0.0
O3 O 0.02774 0.3297 0.02779 0.0
O4 O 0.11666 0.34981 0.97067 0.0
O5 O 0.99112 0.39624 0.09489 0.0
C6 C 0.37817 0.39156 0.98517 0.0
O7 O 0.15798 0.39983 0.09526 0.0
C8 C 0.07583 0.45263 0.9852 0.0
C9 C 0.06069 0.38558 0.86883 0.0
O10 O 0.33268 0.4154 0.02743 0.0
O11 O 0.31564 0.37252 0.94834 0.0
O12 O 0.16442 0.44802 0.96601 0.0
O13 O 0.05724 0.42987 0.01729 0.0
O14 O 0.14956 0.38794 0.89286 0.0
O15 O 0.98441 0.38366 0.90281 0.0
C16 C 0.79234 0.377 0.99144 0.0
O17 O 0.8488 0.35197 0.9602 0.0
O18 O 0.84366 0.40209 0.02611 0.0
C19 C 0.11351 0.32729 0.00334 0.0
Tb20 Tb 0.85654 0.6546 0.00286 0.0
C21 C 0.9701 0.6595 0.13031 0.0
Tb22 Tb 0.06303 0.67411 0.01116 0.0
O23 O 0.87366 0.60354 0.02379 0.0
O24 O 0.9859 0.624 0.97844 0.0
O25 O 0.88324 0.65864 0.10349 0.0
C26 C 0.25427 0.67642 0.01896 0.0
O27 O 0.05023 0.66463 0.10207 0.0
C28 C 0.9346 0.72709 0.01507 0.0
C29 C 0.98203 0.65813 0.88026 0.0
O30 O 0.19773 0.70403 0.03625 0.0
O31 O 0.20347 0.64791 -0.00114 0.0
O32 O 0.01927 0.72586 0.98981 0.0
O33 O 0.93068 0.7012 0.04007 0.0
O34 O 0.06076 0.65715 0.91257 0.0
O35 O 0.89417 0.6603 0.90664 0.0
C36 C 0.6665 0.66269 -0.00062 0.0
O37 O 0.71346 0.63445 0.96954 0.0
O38 O 0.72602 0.68613 0.03041 0.0
C39 C 0.96296 0.59929 0.00559 0.0
Tb40 Tb 0.99593 0.66006 0.49854 0.0
C41 C 0.08413 0.64105 0.36959 0.0
Tb42 Tb 0.20003 0.63833 0.49694 0.0
O43 O 0.03774 0.71106 0.47514 0.0
O44 O 0.12979 0.68745 0.52581 0.0
O45 O 1.00274 0.64397 0.40008 0.0
C46 C 0.39211 0.64241 0.49838 0.0
O47 O 0.16958 0.64019 0.39759 0.0
C48 C 0.08806 0.58489 0.50147 0.0
C49 C 0.07896 0.64833 0.62201 0.0
O50 O 0.34251 0.61621 0.4645 0.0
O51 O 0.33397 0.66598 0.53096 0.0
O52 O 0.17525 0.58912 0.52384 0.0
O53 O 0.06996 0.60881 0.47169 0.0
O54 O 0.16701 0.64827 0.5977 0.0
O55 O 1.00024 0.64913 0.58924 0.0
C56 C 0.80398 0.66265 0.50089 0.0
O57 O 0.85985 0.68399 0.54037 0.0
O58 O 0.8559 0.64078 0.46022 0.0
C59 C 0.12504 0.71187 0.49712 0.0
Tb60 Tb 0.83675 0.38835 0.49058 0.0
C61 C 0.96058 0.38628 0.36858 0.0
Tb62 Tb 0.04472 0.36862 0.4895 0.0
O63 O 0.85418 0.4399 0.47204 0.0
O64 O 0.96551 0.41869 0.51836 0.0
O65 O 0.87155 0.38542 0.39133 0.0
C66 C 0.23573 0.3638 0.48525 0.0
O67 O 0.03842 0.38226 0.40052 0.0
C68 C 0.92037 0.31557 0.48818 0.0
C69 C 0.9483 0.38778 0.61875 0.0
O70 O 0.17782 0.34438 0.44468 0.0
O71 O 0.18654 0.38546 0.52803 0.0
O72 O 1.00745 0.31661 0.51024 0.0
O73 O 0.91415 0.34095 0.46171 0.0
O74 O 0.03066 0.38425 0.58837 0.0
O75 O 0.86317 0.38715 0.58973 0.0
C76 C 0.6474 0.37882 0.48784 0.0
O77 O 0.69119 0.40642 0.52214 0.0
O78 O 0.70951 0.35687 0.45557 0.0
C79 C 0.94288 0.44386 0.4921 0.0
Tb80 Tb 0.4673 0.87244 0.01123 0.0
C81 C 0.53009 0.89256 0.14944 0.0
Tb82 Tb 0.66957 0.89424 0.03625 0.0
O83 O 0.52161 0.81665 0.97201 0.0
O84 O 0.59127 0.85001 0.04506 0.0
O85 O 0.45781 0.89157 0.11062 0.0
C86 C 0.86078 0.88561 0.02908 0.0
O87 O 0.62181 0.88952 0.12985 0.0
C88 C 0.55794 0.95038 0.04428 0.0
C89 C 0.57523 0.88225 0.89708 0.0
O90 O 0.79774 0.86278 0.00055 0.0
O91 O 0.81664 0.91355 0.06261 0.0
O92 O 0.63578 0.94995 0.07724 0.0
O93 O 0.54848 0.91985 0.00679 0.0
O94 O 0.65583 0.88403 0.93161 0.0
O95 O 0.48922 0.88287 0.9222 0.0
C96 C 0.27482 0.86937 0.01251 0.0
O97 O 0.33091 0.84412 0.98168 0.0
O98 O 0.32677 0.89586 0.04214 0.0
C99 C 0.59656 0.81988 0.0083 0.0
Tb100 Tb 0.3349 0.13551 0.97684 0.0
C101 C 0.43605 0.15321 0.11473 0.0
Tb102 Tb 0.53635 0.15986 0.99532 0.0
O103 O 0.371 0.07974 0.93997 0.0
O104 O 0.46097 0.11232 0.00555 0.0
O105 O 0.35368 0.14942 0.08158 0.0
C106 C 0.72858 0.16076 0.99259 0.0
O107 O 0.52019 0.15283 0.08731 0.0
C108 C 0.40033 0.21136 -4e-05 0.0
C109 C 0.46839 0.13858 0.85872 0.0
O110 O 0.67468 0.18706 0.02261 0.0
O111 O 0.67446 0.13459 0.964 0.0
O112 O 0.48291 0.21602 0.02911 0.0
O113 O 0.40567 0.1805 0.96517 0.0
O114 O 0.54343 0.14257 0.89586 0.0
O115 O 0.37834 0.13829 0.88037 0.0
C116 C 0.14257 0.14072 0.98543 0.0
O117 O 0.18974 0.11416 0.95029 0.0
O118 O 0.20343 0.16396 0.01568 0.0
C119 C 0.45179 0.08101 0.9705 0.0
Tb120 Tb 0.47156 0.16705 0.50172 0.0
C121 C 0.54343 0.14739 0.36351 0.0
Tb122 Tb 0.67433 0.14383 0.48041 0.0
O123 O 0.52186 0.22269 0.54268 0.0
O124 O 0.59798 0.18917 0.47174 0.0
O125 O 0.46852 0.15237 0.40119 0.0
C126 C 0.86574 0.15051 0.48703 0.0
O127 O 0.63366 0.14618 0.38453 0.0
C128 C 0.55939 0.08882 0.47098 0.0
C129 C 0.57719 0.15689 0.61852 0.0
O130 O 0.82032 0.12139 0.46017 0.0
O131 O 0.80388 0.17549 0.50946 0.0
O132 O 0.63743 0.08856 0.43821 0.0
O133 O 0.55089 0.11951 0.50805 0.0
O134 O 0.65868 0.15343 0.58475 0.0
O135 O 0.49205 0.15838 0.59267 0.0
C136 C 0.27936 0.1678 0.49807 0.0
O137 O 0.33254 0.19466 0.52599 0.0
O138 O 0.3341 0.14102 0.47246 0.0
C139 C 0.60024 0.21918 0.50957 0.0
Tb140 Tb 0.33689 0.90607 0.54086 0.0
C141 C 0.4373 0.89184 0.40261 0.0
Tb142 Tb 0.53978 0.88103 0.5196 0.0
O143 O 0.37258 0.9614 0.5811 0.0
O144 O 0.46239 0.92937 0.51414 0.0
O145 O 0.35666 0.89876 0.43723 0.0
C146 C 0.73197 0.8811 0.52149 0.0
O147 O 0.52085 0.88585 0.42655 0.0
C148 C 0.40458 0.8299 0.51163 0.0
C149 C 0.47253 0.90066 0.65662 0.0
O150 O 0.67913 0.85313 0.49881 0.0
O151 O 0.67699 0.90852 0.54329 0.0
O152 O 0.48691 0.82545 0.48233 0.0
O153 O 0.40957 0.86024 0.54826 0.0
O154 O 0.54706 0.89607 0.61916 0.0
O155 O 0.38207 0.90197 0.63598 0.0
C156 C 0.14535 0.89976 0.53203 0.0
O157 O 0.19093 0.92593 0.56909 0.0
O158 O 0.20729 0.87756 0.4998 0.0
C159 C 0.45314 0.96037 0.5505 0.0
C160 C 0.5266 0.35233 0.9768 0.0
C161 C 0.48423 0.38658 0.97998 0.0
C162 C 0.64549 0.41157 0.97528 0.0
C163 C 0.6868 0.37926 0.9839 0.0
N164 N 0.66584 0.3205 0.00254 0.0
N165 N 0.50385 0.44935 0.98259 0.0
C166 C 0.62735 0.34994 0.98684 0.0
C167 C 0.54389 0.41645 0.97984 0.0
N168 N 0.47213 0.32191 0.96347 0.0
N169 N 0.70272 0.4367 0.95895 0.0
H170 H 0.42993 0.45354 0.97847 0.0
H171 H 0.54405 0.47286 0.99148 0.0
H172 H 0.77674 0.43316 0.95118 0.0
H173 H 0.67566 0.4592 0.94613 0.0
H174 H 0.50211 0.29629 0.95467 0.0
H175 H 0.39852 0.32153 0.95443 0.0
H176 H 0.62369 0.30025 0.01258 0.0
H177 H 0.73908 0.31787 0.01167 0.0
C178 C 0.41175 0.69604 0.98305 0.0
C179 C 0.36047 0.67644 0.01924 0.0
C180 C 0.50883 0.64573 0.03775 0.0
C181 C 0.56094 0.6665 0.00407 0.0
N182 N 0.56705 0.71458 0.95157 0.0
N183 N 0.36061 0.63853 0.09147 0.0
C184 C 0.51396 0.69286 0.97927 0.0
C185 C 0.40916 0.65287 0.04946 0.0
N186 N 0.36254 0.71588 0.94926 0.0
N187 N 0.55451 0.6192 0.05857 0.0
H188 H 0.2881 0.64417 0.10266 0.0
H189 H 0.39378 0.62391 0.11973 0.0
H190 H 0.62869 0.61445 0.05442 0.0
H191 H 0.51816 0.6003 0.0765 0.0
H192 H 0.39483 0.72739 0.9164 0.0
H193 H 0.28765 0.71887 0.95044 0.0
H194 H 0.53882 0.73703 0.93924 0.0
H195 H 0.64119 0.71132 0.94384 0.0
C196 C 0.64447 0.66078 0.44834 0.0
C197 C 0.69779 0.6606 0.50309 0.0
C198 C 0.54965 0.64947 0.5555 0.0
C199 C 0.49806 0.64636 0.49882 0.0
N200 N 0.49801 0.644 0.38863 0.0
N201 N 0.70546 0.64847 0.60519 0.0
C202 C 0.54605 0.6503 0.44431 0.0
C203 C 0.65162 0.65358 0.55604 0.0
N204 N 0.68707 0.67248 0.40118 0.0
N205 N 0.50145 0.6481 0.60876 0.0
H206 H 0.78044 0.6507 0.60739 0.0
H207 H 0.67688 0.63901 0.64165 0.0
H208 H 0.4283 0.64188 0.60954 0.0
H209 H 0.53292 0.65497 0.65285 0.0
H210 H 0.64946 0.67685 0.36282 0.0
H211 H 0.75842 0.68133 0.40328 0.0
H212 H 0.53227 0.64236 0.34617 0.0
H213 H 0.42479 0.63783 0.3838 0.0
C214 C 0.49078 0.37437 0.43082 0.0
C215 C 0.54271 0.3729 0.48552 0.0
C216 C 0.39515 0.35774 0.53369 0.0
C217 C 0.34171 0.36354 0.48219 0.0
N218 N 0.33522 0.38181 0.38513 0.0
N219 N 0.54701 0.36466 0.59023 0.0
C220 C 0.3885 0.37258 0.43117 0.0
C221 C 0.49565 0.36504 0.53743 0.0
N222 N 0.53908 0.37774 0.37868 0.0
N223 N 0.35011 0.34401 0.57773 0.0
H224 H 0.62184 0.36771 0.59338 0.0
H225 H 0.5152 0.36331 0.63217 0.0
H226 H 0.27677 0.33767 0.57559 0.0
H227 H 0.38639 0.33584 0.61324 0.0
H228 H 0.50622 0.37449 0.33526 0.0
H229 H 0.61358 0.38139 0.3775 0.0
H230 H 0.36499 0.39284 0.35086 0.0
H231 H 0.25997 0.38124 0.38367 0.0
C232 C 0.01989 0.87691 0.07751 0.0
C233 C 0.96653 0.87999 0.02417 0.0
C234 C 0.11406 0.87008 0.96053 0.0
C235 C 0.16808 0.8689 0.01467 0.0
N236 N 0.17642 0.87187 0.12469 0.0
N237 N 0.95728 0.87505 0.91344 0.0
C238 C 0.12193 0.87237 0.07313 0.0
C239 C 0.012 0.87503 0.96511 0.0
N240 N 0.97205 0.87623 0.1313 0.0
N241 N 0.16136 0.86898 0.9058 0.0
H242 H 0.88404 0.88167 0.91544 0.0
H243 H 0.98266 0.86718 0.86796 0.0
H244 H 0.23567 0.86495 0.90038 0.0
H245 H 0.12883 0.87377 0.86615 0.0
H246 H 1.00455 0.87028 0.17007 0.0
H247 H 0.89731 0.87909 0.13609 0.0
H248 H 0.15049 0.87894 0.17012 0.0
H249 H 0.24986 0.86549 0.1224 0.0
C250 C 0.98584 0.14726 0.93189 0.0
C251 C 0.03634 0.1458 0.98729 0.0
C252 C 0.88615 0.15899 0.04791 0.0
C253 C 0.83539 0.15933 0.99213 0.0
N254 N 0.83252 0.15199 0.88079 0.0
N255 N 0.03932 0.1533 0.09877 0.0
C256 C 0.88417 0.15304 0.9341 0.0
C257 C 0.98782 0.15275 0.04559 0.0
N258 N 0.03598 0.14539 0.87793 0.0
N259 N 0.83589 0.16208 0.10222 0.0
H260 H 0.11139 0.14526 0.09855 0.0
H261 H 0.01244 0.16278 0.14361 0.0
H262 H 0.7617 0.1668 0.10602 0.0
H263 H 0.86564 0.15814 0.14327 0.0
H264 H 1.00606 0.15079 0.83796 0.0
H265 H 0.11017 0.1409 0.87376 0.0
H266 H 0.85983 0.14246 0.83606 0.0
H267 H 0.75991 0.15943 0.88096 0.0
C268 C 0.1259 0.15778 0.4369 0.0
C269 C 0.17271 0.16683 0.49587 0.0
C270 C 0.01772 0.16585 0.54896 0.0
C271 C 0.97152 0.15543 0.48994 0.0
N272 N 0.97547 0.14761 0.3785 0.0
N273 N 0.16775 0.17547 0.60756 0.0
C274 C 0.02406 0.15272 0.43397 0.0
C275 C 0.1197 0.17041 0.55191 0.0
N276 N 0.17948 0.15367 0.38366 0.0
N277 N 0.9638 0.17156 0.60227 0.0
H278 H 0.24228 0.17889 0.61197 0.0
H279 H 0.13543 0.17394 0.64922 0.0
H280 H 0.89054 0.16545 0.6026 0.0
H281 H 0.98999 0.18399 0.64627 0.0
H282 H 0.15352 0.14244 0.3391 0.0
H283 H 0.25227 0.16058 0.38386 0.0
H284 H 1.0071 0.14899 0.33658 0.0
H285 H 0.90083 0.14428 0.37453 0.0
C286 C 0.89114 0.87964 0.46766 0.0
C287 C 0.83851 0.88233 0.52351 0.0
C288 C 0.98835 0.89318 0.58441 0.0
C289 C 0.03957 0.8943 0.5294 0.0
N290 N 0.03909 0.89338 0.41991 0.0
N291 N 0.83349 0.89423 0.63568 0.0
C292 C 0.99102 0.88846 0.47116 0.0
C293 C 0.88613 0.88992 0.58209 0.0
N294 N 0.84548 0.869 0.41133 0.0
N295 N 0.03766 0.89335 0.63819 0.0
H296 H 0.75945 0.88933 0.63595 0.0
H297 H 0.86211 0.90445 0.67997 0.0
H298 H 0.11252 0.8955 0.64207 0.0
H299 H 1.00552 0.88823 0.67762 0.0
H300 H 0.88171 0.86265 0.36888 0.0
H301 H 0.77156 0.86393 0.40692 0.0
H302 H 1.00556 0.8933 0.3777 0.0
H303 H 0.11155 0.90079 0.42085 0.0
C304 C 0.06931 0.55362 0.03625 0.0
C305 C 1.00416 0.56236 0.99261 0.0
C306 C 0.97465 0.49812 0.94867 0.0
C307 C 0.03459 0.48953 0.99537 0.0
N308 N 0.12796 0.50923 0.08929 0.0
N309 N 0.89122 0.54351 0.90828 0.0
C310 C 0.07827 0.51743 0.04102 0.0
C311 C 0.95635 0.53466 0.9488 0.0
N312 N 0.12531 0.57994 0.07161 0.0
N313 N 0.93629 0.47117 0.90346 0.0
H314 H 0.88199 0.56971 0.90383 0.0
H315 H 0.84416 0.52539 0.88057 0.0
H316 H 0.93868 0.44469 0.90646 0.0
H317 H 0.90403 0.47478 0.86284 0.0
H318 H 0.17986 0.57547 0.10137 0.0
H319 H 0.12419 0.60587 0.06545 0.0
H320 H 0.15308 0.52835 0.12771 0.0
H321 H 0.1367 0.48303 0.09369 0.0
C322 C 0.93029 0.51039 0.52929 0.0
C323 C 0.98829 0.47994 0.50295 0.0
C324 C 0.10086 0.51831 0.46347 0.0
C325 C 0.043 0.54874 0.49008 0.0
N326 N 0.89211 0.57275 0.53506 0.0
N327 N 0.13892 0.45591 0.4576 0.0
C328 C 0.95425 0.54442 0.51888 0.0
C329 C 0.0766 0.48418 0.47352 0.0
N330 N 0.85541 0.50691 0.56754 0.0
N331 N 0.17646 0.522 0.42592 0.0
H332 H 0.12524 0.43176 0.46906 0.0
H333 H 0.208 0.45742 0.44003 0.0
H334 H 0.1923 0.54634 0.41525 0.0
H335 H 0.21691 0.50064 0.40028 0.0
H336 H 0.81525 0.52839 0.59309 0.0
H337 H 0.84026 0.48275 0.57905 0.0
H338 H 0.82233 0.57102 0.55145 0.0
H339 H 0.90757 0.59743 0.52609 0.0
C340 C 0.59741 0.99987 0.99088 0.0
C341 C 0.53123 0.98399 0.02564 0.0
C342 C 0.41823 0.03402 0.02998 0.0
C343 C 0.48155 0.04852 0.99164 0.0
N344 N 0.62385 0.04273 0.92794 0.0
N345 N 0.37609 0.98398 0.07412 0.0
C346 C 0.56928 0.03083 0.97026 0.0
C347 C 0.44079 1.00053 0.04385 0.0
N348 N 0.68807 0.98577 0.97825 0.0
N349 N 0.33742 0.05275 0.05444 0.0
H350 H 0.39281 0.9608 0.08858 0.0
H351 H 0.30427 0.99183 0.08197 0.0
H352 H 0.31742 0.07709 0.04525 0.0
H353 H 0.29318 0.0457 0.08744 0.0
H354 H 0.74358 0.99888 0.96123 0.0
H355 H 0.7101 0.96161 0.98726 0.0
H356 H 0.68225 0.02859 0.90428 0.0
H357 H 0.60629 0.06561 0.91269 0.0
C358 C 0.44198 0.03947 0.47332 0.0
C359 C 0.53261 0.05572 0.49094 0.0
C360 C 0.56921 1.01044 0.5503 0.0
C361 C 0.48096 0.99312 0.52993 0.0
N362 N 0.33805 0.98809 0.46509 0.0
N363 N 0.68949 0.05379 0.53889 0.0
C364 C 0.41836 1.00691 0.48975 0.0
C365 C 0.59828 0.04034 0.52727 0.0
N366 N 0.37797 0.05537 0.44107 0.0
N367 N 0.62371 0.99907 0.59359 0.0
H368 H 0.71231 0.07735 0.52829 0.0
H369 H 0.74464 0.04072 0.55684 0.0
H370 H 0.60533 0.97694 0.61058 0.0
H371 H 0.68295 1.013 0.61627 0.0
H372 H 0.30585 0.04795 0.43391 0.0
H373 H 0.39572 0.07753 0.4241 0.0
H374 H 0.29689 0.99391 0.4293 0.0
H375 H 0.31541 0.96492 0.47711 0.0
C376 C 0.16724 0.26229 0.96399 0.0
C377 C 0.18563 0.29709 0.00096 0.0
C378 C 0.32448 0.27234 0.0473 0.0
C379 C 0.31859 0.23898 0.00276 0.0
N380 N 0.22753 0.20388 0.91444 0.0
N381 N 0.30323 0.33572 0.0641 0.0
C382 C 0.23803 0.2344 0.95996 0.0
C383 C 0.27058 0.30222 0.03836 0.0
N384 N 0.08125 0.25539 0.9329 0.0
N385 N 0.37708 0.2756 0.10061 0.0
H386 H 0.27059 0.35775 0.05396 0.0
H387 H 0.36903 0.34082 0.08764 0.0
H388 H 0.40607 0.25362 0.11391 0.0
H389 H 0.37776 0.29903 0.13613 0.0
H390 H 0.05772 0.22958 0.91203 0.0
H391 H 0.03019 0.27522 0.9316 0.0
H392 H 0.18433 0.20234 0.87519 0.0
H393 H 0.26024 0.1801 0.91596 0.0
C394 C 0.73864 0.78266 0.95336 0.0
C395 C 0.67955 0.79404 0.00706 0.0
C396 C 0.79752 0.7672 0.06685 0.0
C397 C 0.85138 0.75244 0.01193 0.0
N398 N 0.86421 0.74302 0.90019 0.0
N399 N 0.64408 0.79048 0.11186 0.0
C400 C 0.81967 0.75947 0.9545 0.0
C401 C 0.70682 0.78442 0.06289 0.0
N402 N 0.72047 0.79535 0.90186 0.0
N403 N 0.83506 0.76625 0.12364 0.0
H404 H 0.57603 0.80176 0.10987 0.0
H405 H 0.65494 0.78076 0.15144 0.0
H406 H 0.90296 0.7555 0.12881 0.0
H407 H 0.80419 0.7797 0.16574 0.0
H408 H 0.76782 0.79208 0.86438 0.0
H409 H 0.6619 0.81185 0.89879 0.0
H410 H 0.83657 0.74292 0.85629 0.0
H411 H 0.92537 0.72728 0.89872 0.0
C412 C 0.27751 0.73966 0.46296 0.0
C413 C 0.19602 0.74253 0.50304 0.0
C414 C 0.24641 0.80466 0.55098 0.0
C415 C 0.32365 0.80225 0.50654 0.0
N416 N 0.37553 0.77088 0.40357 0.0
N417 N 0.09514 0.78083 0.57961 0.0
C418 C 0.32803 0.77081 0.45758 0.0
C419 C 0.17826 0.77598 0.54526 0.0
N420 N 0.30974 0.70713 0.43066 0.0
N421 N 0.2366 0.83394 0.59926 0.0
H422 H 0.04673 0.76018 0.5798 0.0
H423 H 0.07097 0.80583 0.60474 0.0
H424 H 0.2672 0.85827 0.5995 0.0
H425 H 0.19626 0.83398 0.63899 0.0
H426 H 0.37343 0.70369 0.4048 0.0
H427 H 0.27899 0.68378 0.43631 0.0
H428 H 0.37434 0.74909 0.36491 0.0
H429 H 0.40241 0.79417 0.39379 0.0
C430 C 0.76962 0.27994 0.4467 0.0
C431 C 0.83927 0.29031 0.49528 0.0
C432 C 0.74882 0.2545 0.55605 0.0
C433 C 0.67606 0.2471 0.50929 0.0
N434 N 0.60559 0.2607 0.41832 0.0
N435 N 0.89119 0.28829 0.59925 0.0
C436 C 0.68312 0.26228 0.45722 0.0
C437 C 0.82808 0.27763 0.55074 0.0
N438 N 0.7886 0.28469 0.38863 0.0
N439 N 0.74248 0.23894 0.60531 0.0
H440 H 0.9468 0.30634 0.59995 0.0
H441 H 0.8851 0.28155 0.64181 0.0
H442 H 0.68233 0.22436 0.61273 0.0
H443 H 0.79792 0.23854 0.63697 0.0
H444 H 0.7445 0.27466 0.35018 0.0
H445 H 0.85382 0.29475 0.37691 0.0
H446 H 0.6022 0.27477 0.38357 0.0
H447 H 0.54109 0.24815 0.4248 0.0
C448 C 0.01941 0.42873 0.23329 0.0
C449 C 0.06463 0.39924 0.19179 0.0
C450 C 0.01995 0.36041 0.26106 0.0
C451 C 0.97922 0.39016 0.30409 0.0
N452 N 0.947 0.45355 0.33427 0.0
N453 N 0.12136 0.33842 0.17089 0.0
C454 C 0.9809 0.42461 0.29103 0.0
C455 C 0.06923 0.36557 0.20749 0.0
N456 N 1.0104 0.46045 0.21619 0.0
N457 N 1.00866 0.32686 0.2707 0.0
H458 H 0.15717 0.34174 0.13169 0.0
H459 H 0.1366 0.31422 0.18212 0.0
H460 H 0.97141 0.32221 0.30893 0.0
H461 H 0.02786 0.3034 0.23843 0.0
H462 H 0.96805 0.48181 0.23989 0.0
H463 H 0.04308 0.46484 0.17625 0.0
H464 H 0.95872 0.47998 0.33249 0.0
H465 H 0.90865 0.45092 0.37314 0.0
C466 C 0.03136 0.68462 0.23728 0.0
C467 C 0.98439 0.656 0.19515 0.0
C468 C 0.03165 0.61511 0.26041 0.0
C469 C 0.07389 0.64412 0.30415 0.0
N470 N 0.10966 0.70695 0.33668 0.0
N471 N 0.92678 0.59533 0.17047 0.0
C472 C 0.07323 0.67893 0.29281 0.0
C473 C 0.9807 0.62156 0.20791 0.0
N474 N 0.03752 0.71726 0.22318 0.0
N475 N 0.04148 0.58133 0.26932 0.0
H476 H 0.88488 0.60005 0.13417 0.0
H477 H 0.91568 0.57014 0.17864 0.0
H478 H 0.0795 0.57627 0.30718 0.0
H479 H 0.01997 0.5582 0.23717 0.0
H480 H 0.082 0.73793 0.24649 0.0
H481 H 1.00002 0.72331 0.18602 0.0
H482 H 0.09951 0.73379 0.33689 0.0
H483 H 0.14856 0.70295 0.37445 0.0
C484 C 0.06056 0.68387 0.79738 0.0
C485 C 0.99822 0.65777 0.8133 0.0
C486 C 0.01292 0.62167 0.70596 0.0
C487 C 0.06397 0.64978 0.68896 0.0
N488 N 0.11943 0.71079 0.71641 0.0
N489 N 0.90605 0.60346 0.77923 0.0
C490 C 0.08295 0.68176 0.73403 0.0
C491 C 0.97062 0.62737 0.76625 0.0
N492 N 0.10199 0.71019 0.84244 0.0
N493 N 1.00987 0.58879 0.66542 0.0
H494 H 0.87592 0.60601 0.82318 0.0
H495 H 0.87623 0.58276 0.74514 0.0
H496 H 0.04771 0.5834 0.62358 0.0
H497 H 0.98077 0.56614 0.67627 0.0
H498 H 0.15726 0.72651 0.83338 0.0
H499 H 0.08762 0.7141 0.88945 0.0
H500 H 0.12276 0.73624 0.7463 0.0
H501 H 0.13921 0.71024 0.67072 0.0
C502 C 0.02921 0.41807 0.71881 0.0
C503 C 0.95818 0.39345 0.68777 0.0
C504 C 0.96983 0.36116 0.77008 0.0
C505 C 0.0395 0.38596 0.8025 0.0
N506 N 0.12374 0.44188 0.8118 0.0
N507 N 0.83585 0.35104 0.69742 0.0
C508 C 0.06628 0.41549 0.77792 0.0
C509 C 0.9204 0.368 0.71767 0.0
N510 N 0.06155 0.44396 0.69109 0.0
N511 N 0.95324 0.33018 0.78816 0.0
H512 H 0.79633 0.35621 0.66039 0.0
H513 H 0.80018 0.33475 0.7215 0.0
H514 H 0.99161 0.32327 0.8243 0.0
H515 H 0.90953 0.30973 0.76302 0.0
H516 H 0.12252 0.45949 0.70566 0.0
H517 H 0.02801 0.44921 0.65184 0.0
H518 H 0.13403 0.46649 0.8011 0.0
H519 H 0.15826 0.43999 0.85255 0.0
C520 C 0.43815 0.86743 0.22713 0.0
C521 C 0.5035 0.8935 0.21475 0.0
C522 C 0.50893 0.92274 0.32578 0.0
C523 C 0.44287 0.89693 0.33825 0.0
N524 N 0.32934 0.84967 0.30036 0.0
N525 N 0.58067 0.9508 0.24979 0.0
C526 C 0.40197 0.87104 0.28861 0.0
C527 C 0.53302 0.92257 0.26337 0.0
N528 N 0.41417 0.83822 0.18075 0.0
N529 N 0.55125 0.94689 0.37393 0.0
H530 H 0.60005 0.95163 0.20465 0.0
H531 H 0.59367 0.97479 0.2824 0.0
H532 H 0.53145 0.94958 0.42004 0.0
H533 H 0.60952 0.96289 0.3686 0.0
H534 H 0.37648 0.81631 0.18825 0.0
H535 H 0.43802 0.8343 0.13501 0.0
H536 H 0.28915 0.83273 0.26563 0.0
H537 H 0.30314 0.85123 0.34509 0.0
C538 C 0.50965 0.18153 0.21727 0.0
C539 C 0.44236 0.15634 0.18338 0.0
C540 C 0.45013 0.12321 0.26529 0.0
C541 C 0.52113 0.14744 0.29756 0.0
N542 N 0.62708 0.1975 0.30072 0.0
N543 N 0.32687 0.11012 0.1846 0.0
C544 C 0.55319 0.17606 0.27264 0.0
C545 C 0.40604 0.12914 0.21014 0.0
N546 N 0.52845 0.21174 0.19719 0.0
N547 N 0.42869 0.09342 0.286 0.0
H548 H 0.28907 0.11578 0.14739 0.0
H549 H 0.29152 0.09182 0.20447 0.0
H550 H 0.46276 0.0876 0.32458 0.0
H551 H 0.38498 0.07272 0.26189 0.0
H552 H 0.56818 0.23336 0.22225 0.0
H553 H 0.49565 0.21667 0.15763 0.0
H554 H 0.66195 0.21587 0.28081 0.0
H555 H 0.6596 0.19533 0.34208 0.0
C556 C 0.54646 0.11596 0.75482 0.0
C557 C 0.48981 0.14271 0.79493 0.0
C558 C 0.51651 0.183 0.72549 0.0
C559 C 0.5733 0.15621 0.68556 0.0
N560 N 0.66631 0.10211 0.67243 0.0
N561 N 0.43838 0.20458 0.8252 0.0
C562 C 0.59573 0.12414 0.7034 0.0
C563 C 0.47954 0.17705 0.78207 0.0
N564 N 0.55178 0.08247 0.76554 0.0
N565 N 0.49632 0.2141 0.70828 0.0
H566 H 0.40676 0.20122 0.86585 0.0
H567 H 0.44054 0.23124 0.82273 0.0
H568 H 0.52997 0.22081 0.67052 0.0
H569 H 0.44405 0.23251 0.72969 0.0
H570 H 0.58404 0.06069 0.73491 0.0
H571 H 0.51595 0.07573 0.80256 0.0
H572 H 0.69152 0.07951 0.68571 0.0
H573 H 0.70813 0.1091 0.6382 0.0
C574 C 0.55125 0.92264 0.76035 0.0
C575 C 0.49442 0.89625 0.71993 0.0
C576 C 0.51612 0.85615 0.78998 0.0
C577 C 0.57389 0.88242 0.83008 0.0
N578 N 0.66919 0.93573 0.8442 0.0
N579 N 0.44378 0.83447 0.68852 0.0
C580 C 0.5988 0.91416 0.81226 0.0
C581 C 0.48274 0.86201 0.73254 0.0
N582 N 0.55819 0.95604 0.74952 0.0
N583 N 0.49062 0.82585 0.80791 0.0
H584 H 0.41664 0.83756 0.64633 0.0
H585 H 0.44491 0.8079 0.69168 0.0
H586 H 0.51974 0.81921 0.84718 0.0
H587 H 0.43733 0.80828 0.78575 0.0
H588 H 0.59084 0.97758 0.78029 0.0
H589 H 0.52339 0.96302 0.71216 0.0
H590 H 0.69576 0.95813 0.83124 0.0
H591 H 0.70914 0.92859 0.87933 0.0
loop_
_geom_bond_atom_site_label_1
_geom_bond_atom_site_label_2
_geom_bond_distance
_geom_bond_site_symmetry_2
_ccdc_geom_bond_type
Tb0 O3 2.453 1_655 S
Tb0 O4 2.596 1_655 S
Tb0 O5 2.374 1_556 S
Tb0 O13 2.343 1_556 S
Tb0 O15 2.353 1_655 S
Tb0 O17 2.427 . S
Tb0 O18 2.513 1_556 S
C1 O5 1.251 1_455 S
C1 O7 1.263 . S
Tb2 O4 2.343 1_554 S
Tb2 O7 2.353 . S
Tb2 O10 2.427 . S
Tb2 O11 2.513 1_554 S
Tb2 O12 2.453 . S
Tb2 O13 2.596 1_455 S
Tb2 O14 2.374 1_554 S
O3 Tb0 2.453 1_455 S
O3 C19 1.245 . S
O4 Tb0 2.596 1_455 S
O4 Tb2 2.343 1_556 S
O4 C19 1.259 . S
O5 Tb0 2.374 1_554 S
O5 C1 1.251 1_655 S
C6 O10 1.275 . S
C6 O11 1.246 1_554 S
O7 C1 1.263 . S
O7 Tb2 2.353 . S
C8 O12 1.245 . S
C8 O13 1.259 1_455 S
C9 O14 1.250 . S
C9 O15 1.263 . S
O10 Tb2 2.427 . S
O10 C6 1.275 . S
O11 Tb2 2.513 1_556 S
O11 C6 1.246 1_556 S
O12 Tb2 2.453 . S
O12 C8 1.245 . S
O13 Tb0 2.343 1_554 S
O13 Tb2 2.596 1_655 S
O13 C8 1.259 1_655 S
O14 Tb2 2.374 1_556 S
O14 C9 1.250 . S
O15 Tb0 2.353 1_455 S
O15 C9 1.263 . S
C16 O17 1.275 . S
C16 O18 1.246 1_556 S
O17 Tb0 2.427 . S
O17 C16 1.275 . S
O18 Tb0 2.513 1_554 S
O18 C16 1.246 1_554 S
C19 O3 1.245 . S
C19 O4 1.259 . S
Tb20 O23 2.453 . S
Tb20 O24 2.596 1_656 S
Tb20 O25 2.374 1_556 S
Tb20 O33 2.343 1_556 S
Tb20 O35 2.353 . S
Tb20 O37 2.427 . S
Tb20 O38 2.513 1_556 S
C21 O25 1.251 . S
C21 O27 1.263 . S
Tb22 O24 2.343 . S
Tb22 O27 2.353 1_455 S
Tb22 O30 2.427 . S
Tb22 O31 2.513 1_554 S
Tb22 O32 2.453 1_455 S
Tb22 O33 2.596 1_455 S
Tb22 O34 2.374 1_554 S
O23 Tb20 2.453 . S
O23 C39 1.244 . S
O24 Tb20 2.596 1_454 S
O24 Tb22 2.343 . S
O24 C39 1.259 1_454 S
O25 Tb20 2.374 1_554 S
O25 C21 1.251 . S
C26 O30 1.275 . S
C26 O31 1.246 1_554 S
O27 C21 1.263 . S
O27 Tb22 2.353 1_655 S
C28 O32 1.245 . S
C28 O33 1.259 . S
C29 O34 1.250 1_655 S
C29 O35 1.263 . S
O30 Tb22 2.427 . S
O30 C26 1.275 . S
O31 Tb22 2.513 1_556 S
O31 C26 1.246 1_556 S
O32 Tb22 2.453 1_655 S
O32 C28 1.245 . S
O33 Tb20 2.343 1_554 S
O33 Tb22 2.596 1_655 S
O33 C28 1.259 . S
O34 Tb22 2.374 1_556 S
O34 C29 1.250 1_455 S
O35 Tb20 2.353 . S
O35 C29 1.263 . S
C36 O37 1.275 1_554 S
C36 O38 1.246 . S
O37 Tb20 2.427 . S
O37 C36 1.275 1_556 S
O38 Tb20 2.513 1_554 S
O38 C36 1.246 . S
C39 O23 1.244 . S
C39 O24 1.259 1_656 S
Tb40 O43 2.453 1_655 S
Tb40 O44 2.596 1_655 S
Tb40 O45 2.374 . S
Tb40 O53 2.343 . S
Tb40 O55 2.353 1_655 S
Tb40 O57 2.427 . S
Tb40 O58 2.513 . S
C41 O45 1.251 1_455 S
C41 O47 1.263 . S
Tb42 O44 2.343 . S
Tb42 O47 2.353 . S
Tb42 O50 2.427 . S
Tb42 O51 2.513 . S
Tb42 O52 2.453 . S
Tb42 O53 2.596 1_455 S
Tb42 O54 2.374 . S
O43 Tb40 2.453 1_455 S
O43 C59 1.245 . S
O44 Tb40 2.596 1_455 S
O44 Tb42 2.343 . S
O44 C59 1.259 . S
O45 Tb40 2.374 . S
O45 C41 1.251 1_655 S
C46 O50 1.275 . S
C46 O51 1.246 . S
O47 C41 1.263 . S
O47 Tb42 2.353 . S
C48 O52 1.245 . S
C48 O53 1.259 1_455 S
C49 O54 1.250 . S
C49 O55 1.263 . S
O50 Tb42 2.427 . S
O50 C46 1.275 . S
O51 Tb42 2.513 . S
O51 C46 1.246 . S
O52 Tb42 2.453 . S
O52 C48 1.245 . S
O53 Tb40 2.343 . S
O53 Tb42 2.596 1_655 S
O53 C48 1.259 1_655 S
O54 Tb42 2.374 . S
O54 C49 1.250 . S
O55 Tb40 2.353 1_455 S
O55 C49 1.263 . S
C56 O57 1.275 . S
C56 O58 1.246 . S
O57 Tb40 2.427 . S
O57 C56 1.275 . S
O58 Tb40 2.513 . S
O58 C56 1.246 . S
C59 O43 1.245 . S
C59 O44 1.259 . S
Tb60 O63 2.453 . S
Tb60 O64 2.596 1_655 S
Tb60 O65 2.374 . S
Tb60 O73 2.343 . S
Tb60 O75 2.353 . S
Tb60 O77 2.427 . S
Tb60 O78 2.513 . S
C61 O65 1.251 . S
C61 O67 1.263 . S
Tb62 O64 2.343 . S
Tb62 O67 2.353 1_455 S
Tb62 O70 2.427 . S
Tb62 O71 2.513 . S
Tb62 O72 2.453 1_455 S
Tb62 O73 2.596 1_455 S
Tb62 O74 2.374 . S
O63 Tb60 2.453 . S
O63 C79 1.245 . S
O64 Tb60 2.596 1_455 S
O64 Tb62 2.343 . S
O64 C79 1.259 1_455 S
O65 Tb60 2.374 . S
O65 C61 1.251 . S
C66 O70 1.275 . S
C66 O71 1.246 . S
O67 C61 1.263 . S
O67 Tb62 2.353 1_655 S
C68 O72 1.245 . S
C68 O73 1.259 . S
C69 O74 1.250 1_655 S
C69 O75 1.263 . S
O70 Tb62 2.427 . S
O70 C66 1.275 . S
O71 Tb62 2.513 . S
O71 C66 1.246 . S
O72 Tb62 2.453 1_655 S
O72 C68 1.245 . S
O73 Tb60 2.343 . S
O73 Tb62 2.596 1_655 S
O73 C68 1.259 . S
O74 Tb62 2.374 . S
O74 C69 1.250 1_455 S
O75 Tb60 2.353 . S
O75 C69 1.263 . S
C76 O77 1.275 . S
C76 O78 1.246 . S
O77 Tb60 2.427 . S
O77 C76 1.275 . S
O78 Tb60 2.513 . S
O78 C76 1.246 . S
C79 O63 1.245 . S
C79 O64 1.259 1_655 S
Tb80 O83 2.453 . S
Tb80 O84 2.596 . S
Tb80 O85 2.374 1_556 S
Tb80 O93 2.343 1_556 S
Tb80 O95 2.353 . S
Tb80 O97 2.427 . S
Tb80 O98 2.513 1_556 S
C81 O85 1.251 . S
C81 O87 1.263 . S
Tb82 O84 2.343 1_554 S
Tb82 O87 2.353 . S
Tb82 O90 2.427 . S
Tb82 O91 2.513 1_554 S
Tb82 O92 2.453 . S
Tb82 O93 2.596 . S
Tb82 O94 2.374 1_554 S
O83 Tb80 2.453 . S
O83 C99 1.245 . S
O84 Tb80 2.596 . S
O84 Tb82 2.343 1_556 S
O84 C99 1.259 . S
O85 Tb80 2.374 1_554 S
O85 C81 1.251 . S
C86 O90 1.275 . S
C86 O91 1.246 1_554 S
O87 C81 1.263 . S
O87 Tb82 2.353 . S
C88 O92 1.245 . S
C88 O93 1.259 . S
C89 O94 1.250 . S
C89 O95 1.263 . S
O90 Tb82 2.427 . S
O90 C86 1.275 . S
O91 Tb82 2.513 1_556 S
O91 C86 1.246 1_556 S
O92 Tb82 2.453 . S
O92 C88 1.245 . S
O93 Tb80 2.343 1_554 S
O93 Tb82 2.596 . S
O93 C88 1.259 . S
O94 Tb82 2.374 1_556 S
O94 C89 1.250 . S
O95 Tb80 2.353 . S
O95 C89 1.263 . S
C96 O97 1.275 . S
C96 O98 1.246 1_556 S
O97 Tb80 2.427 . S
O97 C96 1.275 . S
O98 Tb80 2.513 1_554 S
O98 C96 1.246 1_554 S
C99 O83 1.245 . S
C99 O84 1.259 . S
Tb100 O103 2.453 . S
Tb100 O104 2.596 1_556 S
Tb100 O105 2.374 1_556 S
Tb100 O113 2.343 1_556 S
Tb100 O115 2.353 . S
Tb100 O117 2.427 . S
Tb100 O118 2.513 1_556 S
C101 O105 1.251 . S
C101 O107 1.263 . S
Tb102 O104 2.343 . S
Tb102 O107 2.353 . S
Tb102 O110 2.427 . S
Tb102 O111 2.513 1_554 S
Tb102 O112 2.453 . S
Tb102 O113 2.596 . S
Tb102 O114 2.374 1_554 S
O103 Tb100 2.453 . S
O103 C119 1.244 . S
O104 Tb100 2.596 1_554 S
O104 Tb102 2.343 . S
O104 C119 1.259 1_554 S
O105 Tb100 2.374 1_554 S
O105 C101 1.251 . S
C106 O110 1.275 . S
C106 O111 1.246 1_554 S
O107 C101 1.263 . S
O107 Tb102 2.353 . S
C108 O112 1.245 . S
C108 O113 1.259 . S
C109 O114 1.250 . S
C109 O115 1.263 . S
O110 Tb102 2.427 . S
O110 C106 1.275 . S
O111 Tb102 2.513 1_556 S
O111 C106 1.246 1_556 S
O112 Tb102 2.453 . S
O112 C108 1.245 . S
O113 Tb100 2.343 1_554 S
O113 Tb102 2.596 . S
O113 C108 1.259 . S
O114 Tb102 2.374 1_556 S
O114 C109 1.250 . S
O115 Tb100 2.353 . S
O115 C109 1.263 . S
C116 O117 1.275 1_554 S
C116 O118 1.246 . S
O117 Tb100 2.427 . S
O117 C116 1.275 1_556 S
O118 Tb100 2.513 1_554 S
O118 C116 1.246 . S
C119 O103 1.244 . S
C119 O104 1.259 1_556 S
Tb120 O123 2.453 . S
Tb120 O124 2.596 . S
Tb120 O125 2.374 . S
Tb120 O133 2.343 . S
Tb120 O135 2.353 . S
Tb120 O137 2.427 . S
Tb120 O138 2.513 . S
C121 O125 1.251 . S
C121 O127 1.263 . S
Tb122 O124 2.343 . S
Tb122 O127 2.353 . S
Tb122 O130 2.427 . S
Tb122 O131 2.513 . S
Tb122 O132 2.453 . S
Tb122 O133 2.596 . S
Tb122 O134 2.374 . S
O123 Tb120 2.453 . S
O123 C139 1.245 . S
O124 Tb120 2.596 . S
O124 Tb122 2.343 . S
O124 C139 1.259 . S
O125 Tb120 2.374 . S
O125 C121 1.251 . S
C126 O130 1.275 . S
C126 O131 1.246 . S
O127 C121 1.263 . S
O127 Tb122 2.353 . S
C128 O132 1.245 . S
C128 O133 1.259 . S
C129 O134 1.250 . S
C129 O135 1.263 . S
O130 Tb122 2.427 . S
O130 C126 1.275 . S
O131 Tb122 2.513 . S
O131 C126 1.246 . S
O132 Tb122 2.453 . S
O132 C128 1.245 . S
O133 Tb120 2.343 . S
O133 Tb122 2.596 . S
O133 C128 1.259 . S
O134 Tb122 2.374 . S
O134 C129 1.250 . S
O135 Tb120 2.353 . S
O135 C129 1.263 . S
C136 O137 1.275 . S
C136 O138 1.246 . S
O137 Tb120 2.427 . S
O137 C136 1.275 . S
O138 Tb120 2.513 . S
O138 C136 1.246 . S
C139 O123 1.245 . S
C139 O124 1.259 . S
Tb140 O143 2.453 . S
Tb140 O144 2.596 . S
Tb140 O145 2.374 . S
Tb140 O153 2.343 . S
Tb140 O155 2.353 . S
Tb140 O157 2.427 . S
Tb140 O158 2.513 . S
C141 O145 1.251 . S
C141 O147 1.263 . S
Tb142 O144 2.343 . S
Tb142 O147 2.353 . S
Tb142 O150 2.427 . S
Tb142 O151 2.513 . S
Tb142 O152 2.453 . S
Tb142 O153 2.596 . S
Tb142 O154 2.374 . S
O143 Tb140 2.453 . S
O143 C159 1.245 . S
O144 Tb140 2.596 . S
O144 Tb142 2.343 . S
O144 C159 1.259 . S
O145 Tb140 2.374 . S
O145 C141 1.251 . S
C146 O150 1.275 . S
C146 O151 1.246 . S
O147 C141 1.263 . S
O147 Tb142 2.353 . S
C148 O152 1.245 . S
C148 O153 1.259 . S
C149 O154 1.250 . S
C149 O155 1.263 . S
O150 Tb142 2.427 . S
O150 C146 1.275 . S
O151 Tb142 2.513 . S
O151 C146 1.246 . S
O152 Tb142 2.453 . S
O152 C148 1.245 . S
O153 Tb140 2.343 . S
O153 Tb142 2.596 . S
O153 C148 1.259 . S
O154 Tb142 2.374 . S
O154 C149 1.250 . S
O155 Tb140 2.353 . S
O155 C149 1.263 . S
C156 O157 1.275 . S
C156 O158 1.246 . S
O157 Tb140 2.427 . S
O157 C156 1.275 . S
O158 Tb140 2.513 . S
O158 C156 1.246 . S
C159 O143 1.245 . S
C159 O144 1.259 . S
C160 C161 1.363 1_556 S
C160 C166 1.379 . S
C160 N168 1.356 . S
C161 C160 1.363 1_554 S
C161 C167 1.363 . S
C162 C163 1.363 1_554 S
C162 C167 1.379 . S
C162 N169 1.356 . S
C163 C162 1.363 1_556 S
C163 C166 1.363 . S
N164 C166 1.356 . S
N164 H176 0.984 . S
N164 H177 0.985 . S
N165 C167 1.356 . S
N165 H170 0.984 . S
N165 H171 0.985 . S
C166 C160 1.379 . S
C166 C163 1.363 . S
C166 N164 1.356 . S
C167 C161 1.363 . S
C167 C162 1.379 . S
C167 N165 1.356 . S
N168 C160 1.356 . S
N168 H174 0.984 . S
N168 H175 0.984 . S
N169 C162 1.356 . S
N169 H172 0.984 . S
N169 H173 0.985 . S
H170 N165 0.984 . S
H171 N165 0.985 . S
H172 N169 0.984 . S
H173 N169 0.985 . S
H174 N168 0.984 . S
H175 N168 0.984 . S
H176 N164 0.984 . S
H177 N164 0.985 . S
C178 C179 1.363 . S
C178 C184 1.379 . S
C178 N186 1.356 . S
C179 C178 1.363 . S
C179 C185 1.363 1_554 S
C180 C181 1.363 1_556 S
C180 C185 1.379 . S
C180 N187 1.356 . S
C181 C180 1.363 1_554 S
C181 C184 1.363 . S
N182 C184 1.356 . S
N182 H194 0.984 . S
N182 H195 0.985 . S
N183 C185 1.356 . S
N183 H188 0.984 . S
N183 H189 0.985 . S
C184 C178 1.379 . S
C184 C181 1.363 . S
C184 N182 1.356 . S
C185 C179 1.363 1_556 S
C185 C180 1.379 . S
C185 N183 1.356 . S
N186 C178 1.356 . S
N186 H192 0.984 . S
N186 H193 0.984 . S
N187 C180 1.356 . S
N187 H190 0.984 . S
N187 H191 0.985 . S
H188 N183 0.984 . S
H189 N183 0.985 . S
H190 N187 0.984 . S
H191 N187 0.985 . S
H192 N186 0.984 . S
H193 N186 0.984 . S
H194 N182 0.984 . S
H195 N182 0.985 . S
C196 C197 1.363 . S
C196 C202 1.379 . S
C196 N204 1.356 . S
C197 C196 1.363 . S
C197 C203 1.363 . S
C198 C199 1.363 . S
C198 C203 1.379 . S
C198 N205 1.356 . S
C199 C198 1.363 . S
C199 C202 1.363 . S
N200 C202 1.356 . S
N200 H212 0.984 . S
N200 H213 0.985 . S
N201 C203 1.356 . S
N201 H206 0.984 . S
N201 H207 0.985 . S
C202 C196 1.379 . S
C202 C199 1.363 . S
C202 N200 1.356 . S
C203 C197 1.363 . S
C203 C198 1.379 . S
C203 N201 1.356 . S
N204 C196 1.356 . S
N204 H210 0.984 . S
N204 H211 0.984 . S
N205 C198 1.356 . S
N205 H208 0.984 . S
N205 H209 0.985 . S
H206 N201 0.984 . S
H207 N201 0.985 . S
H208 N205 0.984 . S
H209 N205 0.985 . S
H210 N204 0.984 . S
H211 N204 0.984 . S
H212 N200 0.984 . S
H213 N200 0.985 . S
C214 C215 1.363 . S
C214 C220 1.379 . S
C214 N222 1.356 . S
C215 C214 1.363 . S
C215 C221 1.363 . S
C216 C217 1.363 . S
C216 C221 1.379 . S
C216 N223 1.356 . S
C217 C216 1.363 . S
C217 C220 1.363 . S
N218 C220 1.356 . S
N218 H230 0.984 . S
N218 H231 0.985 . S
N219 C221 1.356 . S
N219 H224 0.984 . S
N219 H225 0.985 . S
C220 C214 1.379 . S
C220 C217 1.363 . S
C220 N218 1.356 . S
C221 C215 1.363 . S
C221 C216 1.379 . S
C221 N219 1.356 . S
N222 C214 1.356 . S
N222 H228 0.984 . S
N222 H229 0.984 . S
N223 C216 1.356 . S
N223 H226 0.984 . S
N223 H227 0.985 . S
H224 N219 0.984 . S
H225 N219 0.985 . S
H226 N223 0.984 . S
H227 N223 0.985 . S
H228 N222 0.984 . S
H229 N222 0.984 . S
H230 N218 0.984 . S
H231 N218 0.985 . S
C232 C233 1.363 1_455 S
C232 C238 1.379 . S
C232 N240 1.356 1_455 S
C233 C232 1.363 1_655 S
C233 C239 1.363 1_654 S
C234 C235 1.363 . S
C234 C239 1.379 . S
C234 N241 1.356 . S
C235 C234 1.363 . S
C235 C238 1.363 1_556 S
N236 C238 1.356 . S
N236 H248 0.984 . S
N236 H249 0.985 . S
N237 C239 1.356 1_655 S
N237 H242 0.984 . S
N237 H243 0.985 . S
C238 C232 1.379 . S
C238 C235 1.363 1_554 S
C238 N236 1.356 . S
C239 C233 1.363 1_456 S
C239 C234 1.379 . S
C239 N237 1.356 1_455 S
N240 C232 1.356 1_655 S
N240 H246 0.984 . S
N240 H247 0.984 . S
N241 C234 1.356 . S
N241 H244 0.984 . S
N241 H245 0.985 . S
H242 N237 0.984 . S
H243 N237 0.985 . S
H244 N241 0.984 . S
H245 N241 0.985 . S
H246 N240 0.984 . S
H247 N240 0.984 . S
H248 N236 0.984 . S
H249 N236 0.985 . S
C250 C251 1.363 1_656 S
C250 C256 1.379 . S
C250 N258 1.356 1_655 S
C251 C250 1.363 1_454 S
C251 C257 1.363 1_455 S
C252 C253 1.363 . S
C252 C257 1.379 . S
C252 N259 1.356 . S
C253 C252 1.363 . S
C253 C256 1.363 1_554 S
N254 C256 1.356 . S
N254 H266 0.984 . S
N254 H267 0.985 . S
N255 C257 1.356 1_455 S
N255 H260 0.984 . S
N255 H261 0.985 . S
C256 C250 1.379 . S
C256 C253 1.363 1_556 S
C256 N254 1.356 . S
C257 C251 1.363 1_655 S
C257 C252 1.379 . S
C257 N255 1.356 1_655 S
N258 C250 1.356 1_455 S
N258 H264 0.984 . S
N258 H265 0.984 . S
N259 C252 1.356 . S
N259 H262 0.984 . S
N259 H263 0.985 . S
H260 N255 0.984 . S
H261 N255 0.985 . S
H262 N259 0.984 . S
H263 N259 0.985 . S
H264 N258 0.984 . S
H265 N258 0.984 . S
H266 N254 0.984 . S
H267 N254 0.985 . S
C268 C269 1.363 . S
C268 C274 1.379 . S
C268 N276 1.356 . S
C269 C268 1.363 . S
C269 C275 1.363 . S
C270 C271 1.363 . S
C270 C275 1.379 1_655 S
C270 N277 1.356 . S
C271 C270 1.363 . S
C271 C274 1.363 1_655 S
N272 C274 1.356 1_655 S
N272 H284 0.984 1_655 S
N272 H285 0.985 . S
N273 C275 1.356 . S
N273 H278 0.984 . S
N273 H279 0.985 . S
C274 C268 1.379 . S
C274 C271 1.363 1_455 S
C274 N272 1.356 1_455 S
C275 C269 1.363 . S
C275 C270 1.379 1_455 S
C275 N273 1.356 . S
N276 C268 1.356 . S
N276 H282 0.984 . S
N276 H283 0.984 . S
N277 C270 1.356 . S
N277 H280 0.984 . S
N277 H281 0.985 . S
H278 N273 0.984 . S
H279 N273 0.985 . S
H280 N277 0.984 . S
H281 N277 0.985 . S
H282 N276 0.984 . S
H283 N276 0.984 . S
H284 N272 0.984 1_455 S
H285 N272 0.985 . S
C286 C287 1.363 . S
C286 C292 1.379 . S
C286 N294 1.356 . S
C287 C286 1.363 . S
C287 C293 1.363 . S
C288 C289 1.363 1_655 S
C288 C293 1.379 . S
C288 N295 1.356 1_655 S
C289 C288 1.363 1_455 S
C289 C292 1.363 1_455 S
N290 C292 1.356 1_455 S
N290 H302 0.984 . S
N290 H303 0.985 . S
N291 C293 1.356 . S
N291 H296 0.984 . S
N291 H297 0.985 . S
C292 C286 1.379 . S
C292 C289 1.363 1_655 S
C292 N290 1.356 1_655 S
C293 C287 1.363 . S
C293 C288 1.379 . S
C293 N291 1.356 . S
N294 C286 1.356 . S
N294 H300 0.984 . S
N294 H301 0.984 . S
N295 C288 1.356 1_455 S
N295 H298 0.984 . S
N295 H299 0.985 . S
H296 N291 0.984 . S
H297 N291 0.985 . S
H298 N295 0.984 . S
H299 N295 0.985 . S
H300 N294 0.984 . S
H301 N294 0.984 . S
H302 N290 0.984 . S
H303 N290 0.985 . S
C304 C305 1.363 . S
C304 C310 1.379 . S
C304 N312 1.356 . S
C305 C304 1.363 . S
C305 C311 1.363 1_454 S
C306 C307 1.363 1_556 S
C306 C311 1.379 . S
C306 N313 1.356 . S
C307 C306 1.363 1_554 S
C307 C310 1.363 1_655 S
N308 C310 1.356 . S
N308 H320 0.984 . S
N308 H321 0.985 . S
N309 C311 1.356 . S
N309 H314 0.984 . S
N309 H315 0.985 . S
C310 C304 1.379 . S
C310 C307 1.363 1_455 S
C310 N308 1.356 . S
C311 C305 1.363 1_656 S
C311 C306 1.379 . S
C311 N309 1.356 . S
N312 C304 1.356 . S
N312 H318 0.984 . S
N312 H319 0.984 . S
N313 C306 1.356 . S
N313 H316 0.984 . S
N313 H317 0.985 . S
H314 N309 0.984 . S
H315 N309 0.985 . S
H316 N313 0.984 . S
H317 N313 0.985 . S
H318 N312 0.984 . S
H319 N312 0.984 . S
H320 N308 0.984 . S
H321 N308 0.985 . S
C322 C323 1.363 1_655 S
C322 C328 1.379 . S
C322 N330 1.356 . S
C323 C322 1.363 1_455 S
C323 C329 1.363 . S
C324 C325 1.363 1_455 S
C324 C329 1.379 . S
C324 N331 1.356 . S
C325 C324 1.363 1_655 S
C325 C328 1.363 . S
N326 C328 1.356 . S
N326 H338 0.984 . S
N326 H339 0.985 . S
N327 C329 1.356 . S
N327 H332 0.984 . S
N327 H333 0.985 . S
C328 C322 1.379 . S
C328 C325 1.363 . S
C328 N326 1.356 . S
C329 C323 1.363 . S
C329 C324 1.379 . S
C329 N327 1.356 . S
N330 C322 1.356 . S
N330 H336 0.984 . S
N330 H337 0.984 . S
N331 C324 1.356 . S
N331 H334 0.984 . S
N331 H335 0.985 . S
H332 N327 0.984 . S
H333 N327 0.985 . S
H334 N331 0.984 . S
H335 N331 0.985 . S
H336 N330 0.984 . S
H337 N330 0.984 . S
H338 N326 0.984 . S
H339 N326 0.985 . S
C340 C341 1.363 1_556 S
C340 C346 1.379 1_565 S
C340 N348 1.356 . S
C341 C340 1.363 1_554 S
C341 C347 1.363 . S
C342 C343 1.363 . S
C342 C347 1.379 1_545 S
C342 N349 1.356 . S
C343 C342 1.363 . S
C343 C346 1.363 1_554 S
N344 C346 1.356 . S
N344 H356 0.984 . S
N344 H357 0.985 . S
N345 C347 1.356 . S
N345 H350 0.984 . S
N345 H351 0.985 . S
C346 C340 1.379 1_545 S
C346 C343 1.363 1_556 S
C346 N344 1.356 . S
C347 C341 1.363 . S
C347 C342 1.379 1_565 S
C347 N345 1.356 . S
N348 C340 1.356 . S
N348 H354 0.984 . S
N348 H355 0.984 . S
N349 C342 1.356 . S
N349 H352 0.984 . S
N349 H353 0.985 . S
H350 N345 0.984 . S
H351 N345 0.985 . S
H352 N349 0.984 . S
H353 N349 0.985 . S
H354 N348 0.984 . S
H355 N348 0.984 . S
H356 N344 0.984 . S
H357 N344 0.985 . S
C358 C359 1.363 . S
C358 C364 1.379 1_545 S
C358 N366 1.356 . S
C359 C358 1.363 . S
C359 C365 1.363 . S
C360 C361 1.363 . S
C360 C365 1.379 1_565 S
C360 N367 1.356 . S
C361 C360 1.363 . S
C361 C364 1.363 . S
N362 C364 1.356 . S
N362 H374 0.984 . S
N362 H375 0.985 . S
N363 C365 1.356 . S
N363 H368 0.984 . S
N363 H369 0.985 . S
C364 C358 1.379 1_565 S
C364 C361 1.363 . S
C364 N362 1.356 . S
C365 C359 1.363 . S
C365 C360 1.379 1_545 S
C365 N363 1.356 . S
N366 C358 1.356 . S
N366 H372 0.984 . S
N366 H373 0.984 . S
N367 C360 1.356 . S
N367 H370 0.984 . S
N367 H371 0.985 . S
H368 N363 0.984 . S
H369 N363 0.985 . S
H370 N367 0.984 . S
H371 N367 0.985 . S
H372 N366 0.984 . S
H373 N366 0.984 . S
H374 N362 0.984 . S
H375 N362 0.985 . S
C376 C377 1.363 1_556 S
C376 C382 1.379 . S
C376 N384 1.356 . S
C377 C376 1.363 1_554 S
C377 C383 1.363 . S
C378 C379 1.363 . S
C378 C383 1.379 . S
C378 N385 1.356 . S
C379 C378 1.363 . S
C379 C382 1.363 1_554 S
N380 C382 1.356 . S
N380 H392 0.984 . S
N380 H393 0.985 . S
N381 C383 1.356 . S
N381 H386 0.984 . S
N381 H387 0.985 . S
C382 C376 1.379 . S
C382 C379 1.363 1_556 S
C382 N380 1.356 . S
C383 C377 1.363 . S
C383 C378 1.379 . S
C383 N381 1.356 . S
N384 C376 1.356 . S
N384 H390 0.984 . S
N384 H391 0.984 . S
N385 C378 1.356 . S
N385 H388 0.984 . S
N385 H389 0.985 . S
H386 N381 0.984 . S
H387 N381 0.985 . S
H388 N385 0.984 . S
H389 N385 0.985 . S
H390 N384 0.984 . S
H391 N384 0.984 . S
H392 N380 0.984 . S
H393 N380 0.985 . S
C394 C395 1.363 1_556 S
C394 C400 1.379 . S
C394 N402 1.356 . S
C395 C394 1.363 1_554 S
C395 C401 1.363 . S
C396 C397 1.363 . S
C396 C401 1.379 . S
C396 N403 1.356 . S
C397 C396 1.363 . S
C397 C400 1.363 1_554 S
N398 C400 1.356 . S
N398 H410 0.984 . S
N398 H411 0.985 . S
N399 C401 1.356 . S
N399 H404 0.984 . S
N399 H405 0.985 . S
C400 C394 1.379 . S
C400 C397 1.363 1_556 S
C400 N398 1.356 . S
C401 C395 1.363 . S
C401 C396 1.379 . S
C401 N399 1.356 . S
N402 C394 1.356 . S
N402 H408 0.984 . S
N402 H409 0.984 . S
N403 C396 1.356 . S
N403 H406 0.984 . S
N403 H407 0.985 . S
H404 N399 0.984 . S
H405 N399 0.985 . S
H406 N403 0.984 . S
H407 N403 0.985 . S
H408 N402 0.984 . S
H409 N402 0.984 . S
H410 N398 0.984 . S
H411 N398 0.985 . S
C412 C413 1.363 . S
C412 C418 1.379 . S
C412 N420 1.356 . S
C413 C412 1.363 . S
C413 C419 1.363 . S
C414 C415 1.363 . S
C414 C419 1.379 . S
C414 N421 1.356 . S
C415 C414 1.363 . S
C415 C418 1.363 . S
N416 C418 1.356 . S
N416 H428 0.984 . S
N416 H429 0.985 . S
N417 C419 1.356 . S
N417 H422 0.984 . S
N417 H423 0.985 . S
C418 C412 1.379 . S
C418 C415 1.363 . S
C418 N416 1.356 . S
C419 C413 1.363 . S
C419 C414 1.379 . S
C419 N417 1.356 . S
N420 C412 1.356 . S
N420 H426 0.984 . S
N420 H427 0.984 . S
N421 C414 1.356 . S
N421 H424 0.984 . S
N421 H425 0.985 . S
H422 N417 0.984 . S
H423 N417 0.985 . S
H424 N421 0.984 . S
H425 N421 0.985 . S
H426 N420 0.984 . S
H427 N420 0.984 . S
H428 N416 0.984 . S
H429 N416 0.985 . S
C430 C431 1.363 . S
C430 C436 1.379 . S
C430 N438 1.356 . S
C431 C430 1.363 . S
C431 C437 1.363 . S
C432 C433 1.363 . S
C432 C437 1.379 . S
C432 N439 1.356 . S
C433 C432 1.363 . S
C433 C436 1.363 . S
N434 C436 1.356 . S
N434 H446 0.984 . S
N434 H447 0.985 . S
N435 C437 1.356 . S
N435 H440 0.984 . S
N435 H441 0.985 . S
C436 C430 1.379 . S
C436 C433 1.363 . S
C436 N434 1.356 . S
C437 C431 1.363 . S
C437 C432 1.379 . S
C437 N435 1.356 . S
N438 C430 1.356 . S
N438 H444 0.984 . S
N438 H445 0.984 . S
N439 C432 1.356 . S
N439 H442 0.984 . S
N439 H443 0.985 . S
H440 N435 0.984 . S
H441 N435 0.985 . S
H442 N439 0.984 . S
H443 N439 0.985 . S
H444 N438 0.984 . S
H445 N438 0.984 . S
H446 N434 0.984 . S
H447 N434 0.985 . S
C448 C449 1.363 1_655 S
C448 C454 1.379 . S
C448 N456 1.356 . S
C449 C448 1.363 1_455 S
C449 C455 1.363 . S
C450 C451 1.363 1_455 S
C450 C455 1.379 . S
C450 N457 1.356 . S
C451 C450 1.363 1_655 S
C451 C454 1.363 . S
N452 C454 1.356 . S
N452 H464 0.984 . S
N452 H465 0.985 . S
N453 C455 1.356 . S
N453 H458 0.984 . S
N453 H459 0.985 . S
C454 C448 1.379 . S
C454 C451 1.363 . S
C454 N452 1.356 . S
C455 C449 1.363 . S
C455 C450 1.379 . S
C455 N453 1.356 . S
N456 C448 1.356 . S
N456 H462 0.984 . S
N456 H463 0.984 . S
N457 C450 1.356 . S
N457 H460 0.984 . S
N457 H461 0.985 . S
H458 N453 0.984 . S
H459 N453 0.985 . S
H460 N457 0.984 . S
H461 N457 0.985 . S
H462 N456 0.984 . S
H463 N456 0.984 . S
H464 N452 0.984 . S
H465 N452 0.985 . S
C466 C467 1.363 1_455 S
C466 C472 1.379 . S
C466 N474 1.356 . S
C467 C466 1.363 1_655 S
C467 C473 1.363 . S
C468 C469 1.363 1_655 S
C468 C473 1.379 . S
C468 N475 1.356 . S
C469 C468 1.363 1_455 S
C469 C472 1.363 . S
N470 C472 1.356 . S
N470 H482 0.984 . S
N470 H483 0.985 . S
N471 C473 1.356 . S
N471 H476 0.984 . S
N471 H477 0.985 . S
C472 C466 1.379 . S
C472 C469 1.363 . S
C472 N470 1.356 . S
C473 C467 1.363 . S
C473 C468 1.379 . S
C473 N471 1.356 . S
N474 C466 1.356 . S
N474 H480 0.984 . S
N474 H481 0.984 1_455 S
N475 C468 1.356 . S
N475 H478 0.984 1_655 S
N475 H479 0.985 . S
H476 N471 0.984 . S
H477 N471 0.985 . S
H478 N475 0.984 1_455 S
H479 N475 0.985 . S
H480 N474 0.984 . S
H481 N474 0.984 1_655 S
H482 N470 0.984 . S
H483 N470 0.985 . S
C484 C485 1.363 . S
C484 C490 1.379 . S
C484 N492 1.356 . S
C485 C484 1.363 . S
C485 C491 1.363 1_655 S
C486 C487 1.363 . S
C486 C491 1.379 . S
C486 N493 1.356 . S
C487 C486 1.363 . S
C487 C490 1.363 1_455 S
N488 C490 1.356 . S
N488 H500 0.984 . S
N488 H501 0.985 . S
N489 C491 1.356 . S
N489 H494 0.984 1_455 S
N489 H495 0.985 . S
C490 C484 1.379 . S
C490 C487 1.363 1_655 S
C490 N488 1.356 . S
C491 C485 1.363 1_455 S
C491 C486 1.379 . S
C491 N489 1.356 . S
N492 C484 1.356 . S
N492 H498 0.984 . S
N492 H499 0.984 . S
N493 C486 1.356 . S
N493 H496 0.984 . S
N493 H497 0.985 . S
H494 N489 0.984 1_655 S
H495 N489 0.985 . S
H496 N493 0.984 . S
H497 N493 0.985 . S
H498 N492 0.984 . S
H499 N492 0.984 . S
H500 N488 0.984 . S
H501 N488 0.985 . S
C502 C503 1.363 1_455 S
C502 C508 1.379 . S
C502 N510 1.356 . S
C503 C502 1.363 1_655 S
C503 C509 1.363 . S
C504 C505 1.363 1_655 S
C504 C509 1.379 . S
C504 N511 1.356 . S
C505 C504 1.363 1_455 S
C505 C508 1.363 . S
N506 C508 1.356 . S
N506 H518 0.984 . S
N506 H519 0.985 . S
N507 C509 1.356 . S
N507 H512 0.984 . S
N507 H513 0.985 . S
C508 C502 1.379 . S
C508 C505 1.363 . S
C508 N506 1.356 . S
C509 C503 1.363 . S
C509 C504 1.379 . S
C509 N507 1.356 . S
N510 C502 1.356 . S
N510 H516 0.984 . S
N510 H517 0.984 . S
N511 C504 1.356 . S
N511 H514 0.984 . S
N511 H515 0.985 . S
H512 N507 0.984 . S
H513 N507 0.985 . S
H514 N511 0.984 . S
H515 N511 0.985 . S
H516 N510 0.984 . S
H517 N510 0.984 . S
H518 N506 0.984 . S
H519 N506 0.985 . S
C520 C521 1.363 . S
C520 C526 1.379 . S
C520 N528 1.356 . S
C521 C520 1.363 . S
C521 C527 1.363 . S
C522 C523 1.363 . S
C522 C527 1.379 . S
C522 N529 1.356 . S
C523 C522 1.363 . S
C523 C526 1.363 . S
N524 C526 1.356 . S
N524 H536 0.984 . S
N524 H537 0.985 . S
N525 C527 1.356 . S
N525 H530 0.984 . S
N525 H531 0.985 . S
C526 C520 1.379 . S
C526 C523 1.363 . S
C526 N524 1.356 . S
C527 C521 1.363 . S
C527 C522 1.379 . S
C527 N525 1.356 . S
N528 C520 1.356 . S
N528 H534 0.984 . S
N528 H535 0.984 . S
N529 C522 1.356 . S
N529 H532 0.984 . S
N529 H533 0.985 . S
H530 N525 0.984 . S
H531 N525 0.985 . S
H532 N529 0.984 . S
H533 N529 0.985 . S
H534 N528 0.984 . S
H535 N528 0.984 . S
H536 N524 0.984 . S
H537 N524 0.985 . S
C538 C539 1.363 . S
C538 C544 1.379 . S
C538 N546 1.356 . S
C539 C538 1.363 . S
C539 C545 1.363 . S
C540 C541 1.363 . S
C540 C545 1.379 . S
C540 N547 1.356 . S
C541 C540 1.363 . S
C541 C544 1.363 . S
N542 C544 1.356 . S
N542 H554 0.984 . S
N542 H555 0.985 . S
N543 C545 1.356 . S
N543 H548 0.984 . S
N543 H549 0.985 . S
C544 C538 1.379 . S
C544 C541 1.363 . S
C544 N542 1.356 . S
C545 C539 1.363 . S
C545 C540 1.379 . S
C545 N543 1.356 . S
N546 C538 1.356 . S
N546 H552 0.984 . S
N546 H553 0.984 . S
N547 C540 1.356 . S
N547 H550 0.984 . S
N547 H551 0.985 . S
H548 N543 0.984 . S
H549 N543 0.985 . S
H550 N547 0.984 . S
H551 N547 0.985 . S
H552 N546 0.984 . S
H553 N546 0.984 . S
H554 N542 0.984 . S
H555 N542 0.985 . S
C556 C557 1.363 . S
C556 C562 1.379 . S
C556 N564 1.356 . S
C557 C556 1.363 . S
C557 C563 1.363 . S
C558 C559 1.363 . S
C558 C563 1.379 . S
C558 N565 1.356 . S
C559 C558 1.363 . S
C559 C562 1.363 . S
N560 C562 1.356 . S
N560 H572 0.984 . S
N560 H573 0.985 . S
N561 C563 1.356 . S
N561 H566 0.984 . S
N561 H567 0.985 . S
C562 C556 1.379 . S
C562 C559 1.363 . S
C562 N560 1.356 . S
C563 C557 1.363 . S
C563 C558 1.379 . S
C563 N561 1.356 . S
N564 C556 1.356 . S
N564 H570 0.984 . S
N564 H571 0.984 . S
N565 C558 1.356 . S
N565 H568 0.984 . S
N565 H569 0.985 . S
H566 N561 0.984 . S
H567 N561 0.985 . S
H568 N565 0.984 . S
H569 N565 0.985 . S
H570 N564 0.984 . S
H571 N564 0.984 . S
H572 N560 0.984 . S
H573 N560 0.985 . S
C574 C575 1.363 . S
C574 C580 1.379 . S
C574 N582 1.356 . S
C575 C574 1.363 . S
C575 C581 1.363 . S
C576 C577 1.363 . S
C576 C581 1.379 . S
C576 N583 1.356 . S
C577 C576 1.363 . S
C577 C580 1.363 . S
N578 C580 1.356 . S
N578 H590 0.984 . S
N578 H591 0.985 . S
N579 C581 1.356 . S
N579 H584 0.984 . S
N579 H585 0.985 . S
C580 C574 1.379 . S
C580 C577 1.363 . S
C580 N578 1.356 . S
C581 C575 1.363 . S
C581 C576 1.379 . S
C581 N579 1.356 . S
N582 C574 1.356 . S
N582 H588 0.984 . S
N582 H589 0.984 . S
N583 C576 1.356 . S
N583 H586 0.984 . S
N583 H587 0.985 . S
H584 N579 0.984 . S
H585 N579 0.985 . S
H586 N583 0.984 . S
H587 N583 0.985 . S
H588 N582 0.984 . S
H589 N582 0.984 . S
H590 N578 0.984 . S
H591 N578 0.985 . S
C161 C6 1.583 . S
C163 C16 1.583 . S
C179 C26 1.583 . S
C181 C36 1.583 . S
C197 C56 1.583 . S
C199 C46 1.583 . S
C215 C76 1.583 . S
C217 C66 1.583 . S
C233 C86 1.583 . S
C235 C96 1.583 . S
C251 C116 1.583 . S
C253 C106 1.583 . S
C269 C136 1.583 . S
C271 C126 1.583 . S
C287 C146 1.583 . S
C289 C156 1.583 . S
C305 C39 1.574 1_454 S
C307 C8 1.575 1_655 S
C323 C79 1.574 1_455 S
C325 C48 1.574 1_655 S
C341 C88 1.574 . S
C343 C119 1.575 1_554 S
C359 C128 1.574 . S
C361 C159 1.574 . S
C377 C19 1.542 1_554 S
C379 C108 1.541 . S
C395 C99 1.542 1_554 S
C397 C28 1.541 . S
C413 C59 1.542 . S
C415 C148 1.542 . S
C431 C68 1.542 . S
C433 C139 1.542 . S
C449 C1 1.573 . S
C451 C61 1.629 . S
C467 C21 1.631 . S
C469 C41 1.573 . S
C485 C29 1.573 . S
C487 C49 1.631 . S
C503 C69 1.573 . S
C505 C9 1.633 . S
C521 C81 1.573 . S
C523 C141 1.629 . S
C539 C101 1.631 . S
C541 C121 1.573 . S
C557 C109 1.573 . S
C559 C129 1.631 . S
C575 C149 1.573 . S
C577 C89 1.633 . S
