# Generated by pormake.
# Topology lon, (4)-cn, num edge types: 1
# Building blocks:
#     Node 0, Type 0, BuildingBlock: KUFVIS_clean_sbu_0, # of connection points: 4
#     Node 1, Type 0, BuildingBlock: KUFVIS_clean_sbu_0, # of connection points: 4
#     Node 2, Type 0, BuildingBlock: KUFVIS_clean_sbu_0, # of connection points: 4
#     Node 3, Type 0, BuildingBlock: KUFVIS_clean_sbu_0, # of connection points: 4
#     Edge 4, Type (0, 0), BuildingBlock: UVAHIK_clean_linker_0, # of connection points: 2
#     Edge 5, Type (0, 0), BuildingBlock: UVAHIK_clean_linker_0, # of connection points: 2
#     Edge 6, Type (0, 0), BuildingBlock: UVAHIK_clean_linker_0, # of connection points: 2
#     Edge 7, Type (0, 0), BuildingBlock: UVAHIK_clean_linker_0, # of connection points: 2
#     Edge 8, Type (0, 0), BuildingBlock: UVAHIK_clean_linker_0, # of connection points: 2
#     Edge 9, Type (0, 0), BuildingBlock: UVAHIK_clean_linker_0, # of connection points: 2
#     Edge 10, Type (0, 0), BuildingBlock: UVAHIK_clean_linker_0, # of connection points: 2
#     Edge 11, Type (0, 0), BuildingBlock: UVAHIK_clean_linker_0, # of connection points: 2
# Relax obj value: 0.049
# Max RMSD: 0.108
# Mean RMSD: 0.090
data_MOF--net-lon--node1-KUFVIS_clean_sbu_0--edge1-UVAHIK_clean_linker_0
_symmetry_space_group_name_H-M    P1
_symmetry_Int_Tables_number       1
_symmetry_cell_setting            triclinic
loop_
_symmetry_equiv_pos_as_xyz
'x, y, z'
_cell_length_a     32.103129
_cell_length_b     30.896131
_cell_length_c     52.285834
_cell_angle_alpha  100.36395
_cell_angle_beta   90.181619
_cell_angle_gamma 121.273
loop_
_atom_site_label
_atom_site_type_symbol
_atom_site_fract_x
_atom_site_fract_y
_atom_site_fract_z
_atom_type_partial_charge
Mn0 Mn 0.31097 0.68779 0.08071 0.0
Mn1 Mn 0.28377 0.64114 0.0152 0.0
C2 C 0.23431 0.65871 0.06036 0.0
C3 C 0.31613 0.67741 0.12356 0.0
C4 C 0.34688 0.75543 0.03971 0.0
O5 O 0.36355 0.6714 0.07144 0.0
O6 O 0.34024 0.63854 0.02803 0.0
C7 C 0.25056 0.5317 0.01421 0.0
N8 N 0.24178 0.56741 1.00798 0.0
C9 C 0.163 0.50063 0.98478 0.0
C10 C 0.17125 0.46309 0.99085 0.0
C11 C 0.21513 0.47872 1.00573 0.0
C12 C 0.19948 0.55282 0.99392 0.0
H13 H 0.28437 0.54358 0.02551 0.0
C14 C 0.36814 0.65095 0.04899 0.0
O15 O 0.34304 0.72197 0.11721 0.0
O16 O 0.28658 0.63847 0.10489 0.0
N17 N 0.22932 0.64099 1.00012 0.0
C18 C 0.22611 0.68206 0.997 0.0
C19 C 0.18383 0.67309 0.98318 0.0
C20 C 0.14569 0.62209 0.97238 0.0
C21 C 0.15015 0.5805 0.97554 0.0
C22 C 0.19302 0.5918 0.98961 0.0
H23 H 0.25553 0.72135 1.00504 0.0
O24 O 0.25039 0.6912 0.08282 0.0
O25 O 0.26346 0.64456 0.0505 0.0
O26 O 0.34406 0.75062 0.06347 0.0
O27 O 0.32611 0.71696 0.02031 0.0
C28 C 0.1136 0.52827 0.96545 0.0
C29 C 0.11987 0.48834 0.9702 0.0
H30 H 0.14406 0.42219 0.9843 0.0
H31 H 0.2217 0.44999 0.01056 0.0
H32 H 0.18071 0.7054 0.98079 0.0
H33 H 0.11309 0.61531 0.96177 0.0
H34 H 0.08014 0.51834 0.95438 0.0
H35 H 0.09109 0.4483 0.96274 0.0
Mn36 Mn 0.72504 0.36522 0.57428 0.0
Mn37 Mn 0.60186 0.28787 0.57198 0.0
C38 C 0.68814 0.27624 0.56739 0.0
C39 C 0.79694 0.40888 0.55483 0.0
C40 C 0.66896 0.34937 0.62266 0.0
O41 O 0.70112 0.41279 0.56799 0.0
O42 O 0.61936 0.35652 0.56577 0.0
C43 C 0.57632 0.27628 0.51566 0.0
N44 N 0.57461 0.2545 0.53638 0.0
C45 C 0.52696 0.16853 0.50952 0.0
C46 C 0.52799 0.19004 0.48791 0.0
C47 C 0.55291 0.24415 0.49099 0.0
C48 C 0.55118 0.2025 0.53357 0.0
H49 H 0.59546 0.31785 0.51793 0.0
C50 C 0.65661 0.40095 0.56481 0.0
O51 O 0.79522 0.42233 0.5796 0.0
O52 O 0.75614 0.37193 0.54101 0.0
N53 N 0.57931 0.21986 0.57748 0.0
C54 C 0.58218 0.20536 0.60023 0.0
C55 C 0.55842 0.15248 0.60063 0.0
C56 C 0.53166 0.11509 0.57774 0.0
C57 C 0.52922 0.13089 0.55456 0.0
C58 C 0.55307 0.18415 0.55543 0.0
H59 H 0.60218 0.23389 0.61798 0.0
O60 O 0.73405 0.30657 0.57658 0.0
O61 O 0.66519 0.29875 0.5625 0.0
O62 O 0.70886 0.36972 0.61221 0.0
O63 O 0.62684 0.31919 0.60939 0.0
C64 C 0.504 0.09592 0.53064 0.0
C65 C 0.50318 0.11474 0.50809 0.0
H66 H 0.50994 0.16539 0.46886 0.0
H67 H 0.55401 0.26104 0.47438 0.0
H68 H 0.56046 0.14056 0.6186 0.0
H69 H 0.51292 0.07437 0.57825 0.0
H70 H 0.48545 0.05451 0.52933 0.0
H71 H 0.48412 0.0875 0.48975 0.0
Mn72 Mn 0.36505 0.64743 0.44545 0.0
Mn73 Mn 0.32142 0.72701 0.44994 0.0
C74 C 0.41824 0.73635 0.45384 0.0
C75 C 0.3922 0.60188 0.46419 0.0
C76 C 0.32635 0.66832 0.39816 0.0
O77 O 0.2934 0.60005 0.45126 0.0
O78 O 0.26897 0.65728 0.4542 0.0
C79 C 0.30569 0.73279 0.50593 0.0
N80 N 0.32703 0.75695 0.48609 0.0
C81 C 0.36677 0.84077 0.51523 0.0
C82 C 0.34499 0.81679 0.53594 0.0
C83 C 0.31445 0.76255 0.53128 0.0
C84 C 0.35692 0.80907 0.49042 0.0
H85 H 0.28222 0.69111 0.50244 0.0
C86 C 0.26098 0.61222 0.45439 0.0
O87 O 0.37742 0.58961 0.43936 0.0
O88 O 0.38862 0.63862 0.47831 0.0
N89 N 0.3682 0.79616 0.4464 0.0
C90 C 0.38631 0.81327 0.42429 0.0
C91 C 0.41735 0.86668 0.42558 0.0
C92 C 0.42898 0.90196 0.44948 0.0
C93 C 0.40917 0.8835 0.47185 0.0
C94 C 0.37822 0.82987 0.46934 0.0
H95 H 0.37722 0.78639 0.40582 0.0
O96 O 0.43322 0.70593 0.44389 0.0
O97 O 0.37276 0.71393 0.4585 0.0
O98 O 0.34452 0.64569 0.40782 0.0
O99 O 0.31589 0.69905 0.41218 0.0
C100 C 0.419 0.91621 0.49654 0.0
C101 C 0.39806 0.89484 0.51825 0.0
H102 H 0.3516 0.83961 0.55552 0.0
H103 H 0.29765 0.74375 0.54718 0.0
H104 H 0.43231 0.88063 0.4082 0.0
H105 H 0.45318 0.94311 0.45044 0.0
H106 H 0.44298 0.95783 0.4991 0.0
H107 H 0.40634 0.92036 0.5372 0.0
Mn108 Mn 0.6301 0.33025 0.93837 0.0
Mn109 Mn 0.63726 0.37727 1.00291 0.0
C110 C 0.57613 0.35463 0.95392 0.0
C111 C 0.65246 0.34274 0.8966 0.0
C112 C 0.59464 0.26344 0.97961 0.0
O113 O 0.69896 0.35081 0.95219 0.0
O114 O 0.7003 0.38536 0.99426 0.0
C115 C 0.70877 0.48821 1.0043 0.0
N116 N 0.66402 0.45021 1.00893 0.0
C117 C 0.64386 0.51269 0.02852 0.0
C118 C 0.68978 0.55255 0.02403 0.0
C119 C 0.72224 0.54022 0.01171 0.0
C120 C 0.63211 0.46157 0.02025 0.0
H121 H 0.73403 0.47889 0.9951 0.0
C122 C 0.7206 0.37396 0.97542 0.0
O123 O 0.63572 0.29824 0.90291 0.0
O124 O 0.65755 0.38032 0.91478 0.0
N125 N 0.57856 0.37236 0.01414 0.0
C126 C 0.53558 0.32934 0.0169 0.0
C127 C 0.4989 0.33492 0.02869 0.0
C128 C 0.50716 0.38463 0.03798 0.0
C129 C 0.55203 0.42835 0.03536 0.0
C130 C 0.58705 0.42038 0.02327 0.0
H131 H 0.52935 0.29107 0.01023 0.0
O132 O 0.56459 0.3225 0.93158 0.0
O133 O 0.6183 0.37099 0.96628 0.0
O134 O 0.59944 0.26763 0.9558 0.0
O135 O 0.60839 0.30207 0.99861 0.0
C136 C 0.56347 0.47952 0.04438 0.0
C137 C 0.60933 0.52165 0.04093 0.0
H138 H 0.70046 0.59273 0.02993 0.0
H139 H 0.75772 0.57075 1.00814 0.0
H140 H 0.46447 0.30099 0.03076 0.0
H141 H 0.47883 0.38879 0.04711 0.0
H142 H 0.53711 0.48691 0.05379 0.0
H143 H 0.61753 0.56081 0.04773 0.0
C144 C 0.35216 0.71443 0.17047 0.0
C145 C 0.31795 0.672 0.15107 0.0
C146 C 0.35235 0.71066 0.19669 0.0
C147 C 0.30817 0.61709 0.24062 0.0
H148 H 0.32932 0.73602 0.29202 0.0
C149 C 0.33896 0.63642 0.35276 0.0
C150 C 0.31952 0.66121 0.36925 0.0
C151 C 0.33631 0.63413 0.32576 0.0
C152 C 0.32282 0.7022 0.27796 0.0
H153 H 0.2577 0.59188 0.14393 0.0
H154 H 0.25752 0.58546 0.18984 0.0
H155 H 0.32979 0.73887 0.24591 0.0
H156 H 0.28006 0.70096 0.3699 0.0
H157 H 0.27468 0.69606 0.323 0.0
H158 H 0.30015 0.58008 0.27282 0.0
C159 C 0.28464 0.62153 0.18473 0.0
C160 C 0.32383 0.70413 0.25147 0.0
C161 C 0.28458 0.62527 0.15842 0.0
C162 C 0.29587 0.68197 0.35791 0.0
C163 C 0.29305 0.67947 0.33097 0.0
C164 C 0.30711 0.61513 0.2672 0.0
C165 C 0.31815 0.66442 0.20424 0.0
C166 C 0.31671 0.66173 0.23244 0.0
C167 C 0.31405 0.65643 0.31458 0.0
C168 C 0.31442 0.6577 0.28621 0.0
H169 H 0.37863 0.75089 0.16546 0.0
H170 H 0.37934 0.74415 0.21109 0.0
H171 H 0.30291 0.58386 0.22653 0.0
H172 H 0.35756 0.6201 0.36077 0.0
H173 H 0.35323 0.61644 0.31378 0.0
C174 C 0.71667 0.37972 0.66709 0.0
C175 C 0.67165 0.35809 0.65167 0.0
C176 C 0.71848 0.38322 0.69418 0.0
C177 C 0.65008 0.38301 0.75078 0.0
H178 H 0.7233 0.33337 0.78144 0.0
C179 C 0.67185 0.39517 0.86209 0.0
C180 C 0.66224 0.34954 0.86947 0.0
C181 C 0.67697 0.39998 0.83601 0.0
C182 C 0.7027 0.34734 0.77315 0.0
H183 H 0.59342 0.32478 0.65296 0.0
H184 H 0.59679 0.33146 0.70018 0.0
H185 H 0.72407 0.33583 0.73495 0.0
H186 H 0.65197 0.27382 0.85542 0.0
H187 H 0.66137 0.28244 0.80993 0.0
H188 H 0.62812 0.39381 0.78886 0.0
C189 C 0.63066 0.34565 0.69127 0.0
C190 C 0.70349 0.3492 0.7466 0.0
C191 C 0.62875 0.34165 0.66417 0.0
C192 C 0.65937 0.30947 0.85036 0.0
C193 C 0.66495 0.31449 0.82432 0.0
C194 C 0.64969 0.38166 0.77738 0.0
C195 C 0.67542 0.36572 0.70653 0.0
C196 C 0.67678 0.36656 0.73506 0.0
C197 C 0.67307 0.35949 0.81678 0.0
C198 C 0.67561 0.36333 0.78881 0.0
H199 H 0.75045 0.39268 0.65818 0.0
H200 H 0.75359 0.39936 0.70546 0.0
H201 H 0.6294 0.39689 0.74248 0.0
H202 H 0.67429 0.42678 0.87633 0.0
H203 H 0.68376 0.43536 0.83086 0.0
C204 C 0.43614 0.64929 0.0279 0.0
C205 C 0.40327 0.63428 0.04678 0.0
C206 C 0.45919 0.62222 0.01979 0.0
C207 C 0.43062 0.49287 1.00586 0.0
H208 H 0.56939 0.54908 1.00285 0.0
C209 C 0.50419 0.36081 0.96674 0.0
C210 C 0.55207 0.3839 0.95998 0.0
C211 C 0.48516 0.39165 0.9761 0.0
C212 C 0.53036 0.53241 1.00291 0.0
H213 H 0.3695 0.5809 0.07266 0.0
H214 H 0.4092 0.53245 0.05796 0.0
H215 H 0.5421 0.60425 0.02482 0.0
H216 H 0.61544 0.45496 0.95398 0.0
H217 H 0.58111 0.50788 0.96759 0.0
H218 H 0.41795 0.42197 0.98287 0.0
C219 C 0.41779 0.56576 0.04991 0.0
C220 C 0.51497 0.56427 0.01592 0.0
C221 C 0.39569 0.59373 0.05852 0.0
C222 C 0.57879 0.43683 0.95993 0.0
C223 C 0.5592 0.46725 0.96818 0.0
C224 C 0.44587 0.46113 0.99237 0.0
C225 C 0.44847 0.57893 0.02994 0.0
C226 C 0.46509 0.54464 0.01763 0.0
C227 C 0.5131 0.4458 0.97775 0.0
C228 C 0.49611 0.48019 0.99085 0.0
H229 H 0.44159 0.67987 0.0183 0.0
H230 H 0.48257 0.63274 1.00426 0.0
H231 H 0.39173 0.47737 1.00649 0.0
H232 H 0.48286 0.31969 0.96645 0.0
H233 H 0.44973 0.37307 0.9833 0.0
C234 C 0.1702 0.56426 0.44553 0.0
C235 C 0.21198 0.57449 0.46045 0.0
C236 C 0.1241 0.53903 0.45448 0.0
C237 C 0.07126 0.53413 0.51469 0.0
H238 H 0.95028 0.41685 0.47592 0.0
C239 C 0.88838 0.45427 0.56003 0.0
C240 C 0.84425 0.43047 0.54357 0.0
C241 C 0.93278 0.46957 0.54955 0.0
C242 C 0.98348 0.45026 0.48689 0.0
H243 H 0.23866 0.56585 0.49606 0.0
H244 H 0.15787 0.5227 0.51217 0.0
H245 H 0.02787 0.44354 0.45765 0.0
H246 H 0.81224 0.40564 0.50319 0.0
H247 H 0.88996 0.43507 0.48482 0.0
H248 H 0.02755 0.54338 0.54321 0.0
C249 C 0.16075 0.5332 0.49329 0.0
C250 C 0.02799 0.46505 0.47648 0.0
C251 C 0.20673 0.5573 0.48398 0.0
C252 C 0.84568 0.4238 0.51637 0.0
C253 C 0.89032 0.44015 0.50586 0.0
C254 C 0.02676 0.52017 0.52483 0.0
C255 C 0.11926 0.52498 0.47889 0.0
C256 C 0.07227 0.50698 0.49036 0.0
C257 C 0.93453 0.46254 0.52228 0.0
C258 C 0.98208 0.47788 0.51116 0.0
H259 H 0.17364 0.57804 0.42754 0.0
H260 H 0.09279 0.53352 0.44313 0.0
H261 H 0.10485 0.5673 0.52553 0.0
H262 H 0.88844 0.45931 0.58108 0.0
H263 H 0.96548 0.48555 0.56298 0.0
C264 C 0.56685 0.20562 0.01193 0.0
C265 C 0.57139 0.21123 0.98578 0.0
C266 C 0.54427 0.15666 0.01794 0.0
C267 C 0.50837 0.02128 0.99123 0.0
H268 H 0.42035 0.99145 0.0451 0.0
C269 C 0.38005 0.81457 1.00809 0.0
C270 C 0.37498 0.80815 0.03411 0.0
C271 C 0.40567 0.86401 1.00258 0.0
C272 C 0.44529 0.99938 0.03025 0.0
H273 H 0.55573 0.16932 0.94545 0.0
H274 H 0.51573 0.08372 0.95598 0.0
H275 H 0.46138 0.07685 0.0344 0.0
H276 H 0.39335 0.8491 0.07474 0.0
H277 H 0.43823 0.93548 0.06505 0.0
H278 H 0.49181 0.94352 0.98693 0.0
C279 C 0.5303 0.11744 0.97184 0.0
C280 C 0.46881 0.04832 0.0241 0.0
C281 C 0.55301 0.16653 0.9658 0.0
C282 C 0.39644 0.85252 0.05449 0.0
C283 C 0.42195 0.90205 0.04894 0.0
C284 C 0.48473 0.97227 0.99734 0.0
C285 C 0.52549 0.11195 0.99799 0.0
C286 C 0.5006 0.05985 1.0045 0.0
C287 C 0.42675 0.9083 0.02292 0.0
C288 C 0.45286 0.96076 0.01688 0.0
H289 H 0.5807 0.2391 0.02789 0.0
H290 H 0.54189 0.1539 0.03831 0.0
H291 H 0.5332 0.02914 0.97633 0.0
H292 H 0.36397 0.78139 0.99185 0.0
H293 H 0.40816 0.86751 0.98232 0.0
C294 C 0.62128 0.45601 0.57502 0.0
C295 C 0.64554 0.43836 0.55804 0.0
C296 C 0.59884 0.48009 0.56632 0.0
C297 C 0.58273 0.53172 0.50968 0.0
H298 H 0.45788 0.49372 0.5359 0.0
C299 C 0.43582 0.55362 0.45905 0.0
C300 C 0.41717 0.57935 0.47544 0.0
C301 C 0.46476 0.53808 0.46971 0.0
C302 C 0.49281 0.50493 0.52852 0.0
H303 H 0.66621 0.43232 0.51887 0.0
H304 H 0.62603 0.473 0.50323 0.0
H305 H 0.50935 0.46747 0.55381 0.0
H306 H 0.41286 0.60738 0.51584 0.0
H307 H 0.4622 0.57881 0.53444 0.0
H308 H 0.56469 0.56741 0.48364 0.0
C309 C 0.62551 0.47015 0.52357 0.0
C310 C 0.52269 0.4903 0.53893 0.0
C311 C 0.64878 0.44695 0.5325 0.0
C312 C 0.42659 0.58752 0.50271 0.0
C313 C 0.45483 0.57118 0.51336 0.0
C314 C 0.55242 0.54565 0.49899 0.0
C315 C 0.59884 0.48558 0.54014 0.0
C316 C 0.56817 0.50346 0.5297 0.0
C317 C 0.47496 0.54715 0.49697 0.0
C318 C 0.50713 0.53234 0.50829 0.0
H319 H 0.61778 0.44905 0.59471 0.0
H320 H 0.57994 0.49264 0.57992 0.0
H321 H 0.61768 0.54337 0.50228 0.0
H322 H 0.42949 0.54703 0.43797 0.0
H323 H 0.47936 0.51913 0.45663 0.0
C324 C 0.15788 0.65513 0.0466 0.0
C325 C 0.18207 0.62966 0.05061 0.0
C326 C 0.10833 0.62639 0.03654 0.0
C327 C 0.01036 0.49449 1.00147 0.0
H328 H 0.92363 0.53918 0.02878 0.0
C329 C 0.80436 0.40147 0.96155 0.0
C330 C 0.77301 0.39273 0.9813 0.0
C331 C 0.85526 0.42805 0.96822 0.0
C332 C 0.94759 0.52645 0.02089 0.0
H333 H 0.17359 0.55515 0.04965 0.0
H334 H 0.08694 0.50485 0.03273 0.0
H335 H 0.01078 0.59188 0.04459 0.0
H336 H 0.77008 0.40105 0.02334 0.0
H337 H 0.85811 0.44722 0.03469 0.0
H338 H 0.94647 0.42842 0.97812 0.0
C339 C 0.10627 0.5467 0.03611 0.0
C340 C 0.99753 0.55681 0.02977 0.0
C341 C 0.15574 0.57541 0.04589 0.0
C342 C 0.79318 0.40794 1.00762 0.0
C343 C 0.84362 0.43457 0.0142 0.0
C344 C 0.96043 0.46443 0.99233 0.0
C345 C 0.08209 0.57179 0.03097 0.0
C346 C 0.02946 0.54093 0.02038 0.0
C347 C 0.87516 0.44631 0.99465 0.0
C348 C 0.92857 0.47978 1.00232 0.0
H349 H 0.17763 0.69706 0.05049 0.0
H350 H 0.09085 0.64691 0.03269 0.0
H351 H 0.03381 0.48096 0.9939 0.0
H352 H 0.78989 0.39022 0.94112 0.0
H353 H 0.87909 0.43651 0.95282 0.0
C354 C 0.66828 0.18925 0.57304 0.0
C355 C 0.66812 0.22094 0.557 0.0
C356 C 0.64829 0.13642 0.56286 0.0
C357 C 0.61838 0.03952 0.50308 0.0
H358 H 0.50714 0.94711 0.53552 0.0
C359 C 0.48503 0.82575 0.45131 0.0
C360 C 0.45412 0.79051 0.46611 0.0
C361 C 0.51711 0.87787 0.46332 0.0
C362 C 0.53881 0.97154 0.52638 0.0
H363 H 0.65147 0.22441 0.51754 0.0
H364 H 0.61736 0.13213 0.49955 0.0
H365 H 0.55488 0.03833 0.55517 0.0
H366 H 0.43606 0.77936 0.50513 0.0
H367 H 0.49456 0.86848 0.52653 0.0
H368 H 0.60453 0.97294 0.475 0.0
C369 C 0.63185 0.14769 0.52003 0.0
C370 C 0.56586 0.02432 0.53766 0.0
C371 C 0.65079 0.20014 0.53034 0.0
C372 C 0.45857 0.80664 0.49328 0.0
C373 C 0.4919 0.85807 0.50545 0.0
C374 C 0.59236 0.98633 0.4922 0.0
C375 C 0.62969 0.11523 0.5363 0.0
C376 C 0.60507 0.05889 0.52581 0.0
C377 C 0.52048 0.89514 0.49061 0.0
C378 C 0.55133 0.95149 0.50333 0.0
H379 H 0.6824 0.20501 0.59357 0.0
H380 H 0.64706 0.11202 0.57572 0.0
H381 H 0.64893 0.06558 0.49373 0.0
H382 H 0.48261 0.81353 0.43031 0.0
H383 H 0.5376 0.90459 0.45089 0.0
loop_
_geom_bond_atom_site_label_1
_geom_bond_atom_site_label_2
_geom_bond_distance
_geom_bond_site_symmetry_2
_ccdc_geom_bond_type
Mn0 O5 2.095 . S
Mn0 O15 2.162 . S
Mn0 O16 2.297 . S
Mn0 O24 2.385 . S
Mn0 O25 2.209 . S
Mn0 O26 2.094 . S
Mn1 O6 2.121 . S
Mn1 N8 2.257 1_554 S
Mn1 N17 2.282 1_554 S
Mn1 O25 2.215 . S
Mn1 O27 2.117 . S
C2 O24 1.234 . S
C2 O25 1.283 . S
C3 O15 1.281 . S
C3 O16 1.236 . S
C4 O26 1.240 . S
C4 O27 1.264 . S
O5 Mn0 2.095 . S
O5 C14 1.250 . S
O6 Mn1 2.121 . S
O6 C14 1.258 . S
C7 N8 1.326 . S
C7 C11 1.460 . S
C7 H13 0.929 . S
N8 Mn1 2.257 1_556 S
N8 C7 1.326 . S
N8 C12 1.362 . S
C9 C10 1.258 . S
C9 C12 1.431 . S
C9 C29 1.449 . S
C10 C9 1.258 . S
C10 C11 1.477 . S
C10 H30 0.931 . S
C11 C7 1.460 . S
C11 C10 1.477 . S
C11 H31 0.930 . S
C12 N8 1.362 . S
C12 C9 1.431 . S
C12 C22 1.476 . S
H13 C7 0.929 . S
C14 O5 1.250 . S
C14 O6 1.258 . S
O15 Mn0 2.162 . S
O15 C3 1.281 . S
O16 Mn0 2.297 . S
O16 C3 1.236 . S
N17 Mn1 2.282 1_556 S
N17 C18 1.328 . S
N17 C22 1.318 . S
C18 N17 1.328 . S
C18 C19 1.457 . S
C18 H23 0.929 1_556 S
C19 C18 1.457 . S
C19 C20 1.291 . S
C19 H32 0.931 . S
C20 C19 1.291 . S
C20 C21 1.373 . S
C20 H33 0.929 . S
C21 C20 1.373 . S
C21 C22 1.396 . S
C21 C28 1.403 . S
C22 C12 1.476 . S
C22 N17 1.318 . S
C22 C21 1.396 . S
H23 C18 0.929 1_554 S
O24 Mn0 2.385 . S
O24 C2 1.234 . S
O25 Mn0 2.209 . S
O25 Mn1 2.215 . S
O25 C2 1.283 . S
O26 Mn0 2.094 . S
O26 C4 1.240 . S
O27 Mn1 2.117 . S
O27 C4 1.264 . S
C28 C21 1.403 . S
C28 C29 1.399 . S
C28 H34 0.929 . S
C29 C9 1.449 . S
C29 C28 1.399 . S
C29 H35 0.930 . S
H30 C10 0.931 . S
H31 C11 0.930 . S
H32 C19 0.931 . S
H33 C20 0.929 . S
H34 C28 0.929 . S
H35 C29 0.930 . S
Mn36 O41 2.095 . S
Mn36 O51 2.162 . S
Mn36 O52 2.297 . S
Mn36 O60 2.385 . S
Mn36 O61 2.209 . S
Mn36 O62 2.094 . S
Mn37 O42 2.121 . S
Mn37 N44 2.257 . S
Mn37 N53 2.282 . S
Mn37 O61 2.215 . S
Mn37 O63 2.117 . S
C38 O60 1.234 . S
C38 O61 1.283 . S
C39 O51 1.281 . S
C39 O52 1.236 . S
C40 O62 1.240 . S
C40 O63 1.264 . S
O41 Mn36 2.095 . S
O41 C50 1.250 . S
O42 Mn37 2.121 . S
O42 C50 1.258 . S
C43 N44 1.326 . S
C43 C47 1.460 . S
C43 H49 0.929 . S
N44 Mn37 2.257 . S
N44 C43 1.326 . S
N44 C48 1.362 . S
C45 C46 1.258 . S
C45 C48 1.431 . S
C45 C65 1.449 . S
C46 C45 1.258 . S
C46 C47 1.477 . S
C46 H66 0.931 . S
C47 C43 1.460 . S
C47 C46 1.477 . S
C47 H67 0.930 . S
C48 N44 1.362 . S
C48 C45 1.431 . S
C48 C58 1.476 . S
H49 C43 0.929 . S
C50 O41 1.250 . S
C50 O42 1.258 . S
O51 Mn36 2.162 . S
O51 C39 1.281 . S
O52 Mn36 2.297 . S
O52 C39 1.236 . S
N53 Mn37 2.282 . S
N53 C54 1.328 . S
N53 C58 1.318 . S
C54 N53 1.328 . S
C54 C55 1.457 . S
C54 H59 0.929 . S
C55 C54 1.457 . S
C55 C56 1.291 . S
C55 H68 0.931 . S
C56 C55 1.291 . S
C56 C57 1.373 . S
C56 H69 0.929 . S
C57 C56 1.373 . S
C57 C58 1.396 . S
C57 C64 1.403 . S
C58 C48 1.476 . S
C58 N53 1.318 . S
C58 C57 1.396 . S
H59 C54 0.929 . S
O60 Mn36 2.385 . S
O60 C38 1.234 . S
O61 Mn36 2.209 . S
O61 Mn37 2.215 . S
O61 C38 1.283 . S
O62 Mn36 2.094 . S
O62 C40 1.240 . S
O63 Mn37 2.117 . S
O63 C40 1.264 . S
C64 C57 1.403 . S
C64 C65 1.399 . S
C64 H70 0.929 . S
C65 C45 1.449 . S
C65 C64 1.399 . S
C65 H71 0.930 . S
H66 C46 0.931 . S
H67 C47 0.930 . S
H68 C55 0.931 . S
H69 C56 0.929 . S
H70 C64 0.929 . S
H71 C65 0.930 . S
Mn72 O77 2.095 . S
Mn72 O87 2.162 . S
Mn72 O88 2.297 . S
Mn72 O96 2.385 . S
Mn72 O97 2.209 . S
Mn72 O98 2.094 . S
Mn73 O78 2.121 . S
Mn73 N80 2.257 . S
Mn73 N89 2.282 . S
Mn73 O97 2.215 . S
Mn73 O99 2.117 . S
C74 O96 1.234 . S
C74 O97 1.283 . S
C75 O87 1.281 . S
C75 O88 1.236 . S
C76 O98 1.240 . S
C76 O99 1.264 . S
O77 Mn72 2.095 . S
O77 C86 1.250 . S
O78 Mn73 2.121 . S
O78 C86 1.258 . S
C79 N80 1.326 . S
C79 C83 1.460 . S
C79 H85 0.929 . S
N80 Mn73 2.257 . S
N80 C79 1.326 . S
N80 C84 1.362 . S
C81 C82 1.258 . S
C81 C84 1.431 . S
C81 C101 1.449 . S
C82 C81 1.258 . S
C82 C83 1.477 . S
C82 H102 0.931 . S
C83 C79 1.460 . S
C83 C82 1.477 . S
C83 H103 0.930 . S
C84 N80 1.362 . S
C84 C81 1.431 . S
C84 C94 1.476 . S
H85 C79 0.929 . S
C86 O77 1.250 . S
C86 O78 1.258 . S
O87 Mn72 2.162 . S
O87 C75 1.281 . S
O88 Mn72 2.297 . S
O88 C75 1.236 . S
N89 Mn73 2.282 . S
N89 C90 1.328 . S
N89 C94 1.318 . S
C90 N89 1.328 . S
C90 C91 1.457 . S
C90 H95 0.929 . S
C91 C90 1.457 . S
C91 C92 1.291 . S
C91 H104 0.931 . S
C92 C91 1.291 . S
C92 C93 1.373 . S
C92 H105 0.929 . S
C93 C92 1.373 . S
C93 C94 1.396 . S
C93 C100 1.403 . S
C94 C84 1.476 . S
C94 N89 1.318 . S
C94 C93 1.396 . S
H95 C90 0.929 . S
O96 Mn72 2.385 . S
O96 C74 1.234 . S
O97 Mn72 2.209 . S
O97 Mn73 2.215 . S
O97 C74 1.283 . S
O98 Mn72 2.094 . S
O98 C76 1.240 . S
O99 Mn73 2.117 . S
O99 C76 1.264 . S
C100 C93 1.403 . S
C100 C101 1.399 . S
C100 H106 0.929 . S
C101 C81 1.449 . S
C101 C100 1.399 . S
C101 H107 0.930 . S
H102 C82 0.931 . S
H103 C83 0.930 . S
H104 C91 0.931 . S
H105 C92 0.929 . S
H106 C100 0.929 . S
H107 C101 0.930 . S
Mn108 O113 2.095 . S
Mn108 O123 2.162 . S
Mn108 O124 2.297 . S
Mn108 O132 2.385 . S
Mn108 O133 2.209 . S
Mn108 O134 2.094 . S
Mn109 O114 2.121 . S
Mn109 N116 2.257 1_556 S
Mn109 N125 2.282 1_556 S
Mn109 O133 2.215 . S
Mn109 O135 2.117 . S
C110 O132 1.234 . S
C110 O133 1.283 . S
C111 O123 1.281 . S
C111 O124 1.236 . S
C112 O134 1.240 . S
C112 O135 1.264 . S
O113 Mn108 2.095 . S
O113 C122 1.250 . S
O114 Mn109 2.121 . S
O114 C122 1.258 . S
C115 N116 1.326 . S
C115 C119 1.460 . S
C115 H121 0.929 . S
N116 Mn109 2.257 1_554 S
N116 C115 1.326 . S
N116 C120 1.362 . S
C117 C118 1.258 . S
C117 C120 1.431 . S
C117 C137 1.449 . S
C118 C117 1.258 . S
C118 C119 1.477 . S
C118 H138 0.931 . S
C119 C115 1.460 . S
C119 C118 1.477 . S
C119 H139 0.930 . S
C120 N116 1.362 . S
C120 C117 1.431 . S
C120 C130 1.476 . S
H121 C115 0.929 . S
C122 O113 1.250 . S
C122 O114 1.258 . S
O123 Mn108 2.162 . S
O123 C111 1.281 . S
O124 Mn108 2.297 . S
O124 C111 1.236 . S
N125 Mn109 2.282 1_554 S
N125 C126 1.328 . S
N125 C130 1.318 . S
C126 N125 1.328 . S
C126 C127 1.457 . S
C126 H131 0.929 1_554 S
C127 C126 1.457 . S
C127 C128 1.291 . S
C127 H140 0.931 . S
C128 C127 1.291 . S
C128 C129 1.373 . S
C128 H141 0.929 . S
C129 C128 1.373 . S
C129 C130 1.396 . S
C129 C136 1.403 . S
C130 C120 1.476 . S
C130 N125 1.318 . S
C130 C129 1.396 . S
H131 C126 0.929 1_556 S
O132 Mn108 2.385 . S
O132 C110 1.234 . S
O133 Mn108 2.209 . S
O133 Mn109 2.215 . S
O133 C110 1.283 . S
O134 Mn108 2.094 . S
O134 C112 1.240 . S
O135 Mn109 2.117 . S
O135 C112 1.264 . S
C136 C129 1.403 . S
C136 C137 1.399 . S
C136 H142 0.929 . S
C137 C117 1.449 . S
C137 C136 1.399 . S
C137 H143 0.930 . S
H138 C118 0.931 . S
H139 C119 0.930 . S
H140 C127 0.931 . S
H141 C128 0.929 . S
H142 C136 0.929 . S
H143 C137 0.930 . S
C144 C145 1.349 . S
C144 C146 1.327 . S
C144 H169 0.950 . S
C145 C144 1.349 . S
C145 C161 1.349 . S
C146 C144 1.327 . S
C146 C165 1.429 . S
C146 H170 0.950 . S
C147 C164 1.574 . S
C147 C166 1.368 . S
C147 H171 0.949 . S
H148 C152 0.949 . S
C149 C150 1.349 . S
C149 C151 1.327 . S
C149 H172 0.950 . S
C150 C149 1.349 . S
C150 C162 1.349 . S
C151 C149 1.327 . S
C151 C167 1.429 . S
C151 H173 0.950 . S
C152 H148 0.949 . S
C152 C160 1.574 . S
C152 C168 1.368 . S
H153 C161 0.950 . S
H154 C159 0.950 . S
H155 C160 0.949 . S
H156 C162 0.950 . S
H157 C163 0.950 . S
H158 C164 0.949 . S
C159 H154 0.950 . S
C159 C161 1.327 . S
C159 C165 1.429 . S
C160 C152 1.574 . S
C160 H155 0.949 . S
C160 C166 1.368 . S
C161 C145 1.349 . S
C161 H153 0.950 . S
C161 C159 1.327 . S
C162 C150 1.349 . S
C162 H156 0.950 . S
C162 C163 1.327 . S
C163 H157 0.950 . S
C163 C162 1.327 . S
C163 C167 1.429 . S
C164 C147 1.574 . S
C164 H158 0.949 . S
C164 C168 1.368 . S
C165 C146 1.429 . S
C165 C159 1.429 . S
C165 C166 1.523 . S
C166 C147 1.368 . S
C166 C160 1.368 . S
C166 C165 1.523 . S
C167 C151 1.429 . S
C167 C163 1.429 . S
C167 C168 1.523 . S
C168 C152 1.368 . S
C168 C164 1.368 . S
C168 C167 1.523 . S
H169 C144 0.950 . S
H170 C146 0.950 . S
H171 C147 0.949 . S
H172 C149 0.950 . S
H173 C151 0.950 . S
C174 C175 1.349 . S
C174 C176 1.327 . S
C174 H199 0.950 . S
C175 C174 1.349 . S
C175 C191 1.349 . S
C176 C174 1.327 . S
C176 C195 1.429 . S
C176 H200 0.950 . S
C177 C194 1.574 . S
C177 C196 1.368 . S
C177 H201 0.949 . S
H178 C182 0.949 . S
C179 C180 1.349 . S
C179 C181 1.327 . S
C179 H202 0.950 . S
C180 C179 1.349 . S
C180 C192 1.349 . S
C181 C179 1.327 . S
C181 C197 1.429 . S
C181 H203 0.950 . S
C182 H178 0.949 . S
C182 C190 1.574 . S
C182 C198 1.368 . S
H183 C191 0.950 . S
H184 C189 0.950 . S
H185 C190 0.949 . S
H186 C192 0.950 . S
H187 C193 0.950 . S
H188 C194 0.949 . S
C189 H184 0.950 . S
C189 C191 1.327 . S
C189 C195 1.429 . S
C190 C182 1.574 . S
C190 H185 0.949 . S
C190 C196 1.368 . S
C191 C175 1.349 . S
C191 H183 0.950 . S
C191 C189 1.327 . S
C192 C180 1.349 . S
C192 H186 0.950 . S
C192 C193 1.327 . S
C193 H187 0.950 . S
C193 C192 1.327 . S
C193 C197 1.429 . S
C194 C177 1.574 . S
C194 H188 0.949 . S
C194 C198 1.368 . S
C195 C176 1.429 . S
C195 C189 1.429 . S
C195 C196 1.523 . S
C196 C177 1.368 . S
C196 C190 1.368 . S
C196 C195 1.523 . S
C197 C181 1.429 . S
C197 C193 1.429 . S
C197 C198 1.523 . S
C198 C182 1.368 . S
C198 C194 1.368 . S
C198 C197 1.523 . S
H199 C174 0.950 . S
H200 C176 0.950 . S
H201 C177 0.949 . S
H202 C179 0.950 . S
H203 C181 0.950 . S
C204 C205 1.349 . S
C204 C206 1.327 . S
C204 H229 0.950 . S
C205 C204 1.349 . S
C205 C221 1.349 . S
C206 C204 1.327 . S
C206 C225 1.429 . S
C206 H230 0.950 . S
C207 C224 1.574 . S
C207 C226 1.368 1_556 S
C207 H231 0.949 . S
H208 C212 0.949 . S
C209 C210 1.349 . S
C209 C211 1.327 . S
C209 H232 0.950 . S
C210 C209 1.349 . S
C210 C222 1.349 . S
C211 C209 1.327 . S
C211 C227 1.429 . S
C211 H233 0.950 . S
C212 H208 0.949 . S
C212 C220 1.574 . S
C212 C228 1.368 1_554 S
H213 C221 0.950 . S
H214 C219 0.950 1_556 S
H215 C220 0.949 . S
H216 C222 0.950 . S
H217 C223 0.950 1_554 S
H218 C224 0.949 . S
C219 H214 0.950 1_554 S
C219 C221 1.327 . S
C219 C225 1.429 . S
C220 C212 1.574 . S
C220 H215 0.949 . S
C220 C226 1.368 . S
C221 C205 1.349 . S
C221 H213 0.950 . S
C221 C219 1.327 . S
C222 C210 1.349 . S
C222 H216 0.950 . S
C222 C223 1.327 . S
C223 H217 0.950 1_556 S
C223 C222 1.327 . S
C223 C227 1.429 . S
C224 C207 1.574 . S
C224 H218 0.949 . S
C224 C228 1.368 . S
C225 C206 1.429 . S
C225 C219 1.429 . S
C225 C226 1.523 . S
C226 C207 1.368 1_554 S
C226 C220 1.368 . S
C226 C225 1.523 . S
C227 C211 1.429 . S
C227 C223 1.429 . S
C227 C228 1.523 . S
C228 C212 1.368 1_556 S
C228 C224 1.368 . S
C228 C227 1.523 . S
H229 C204 0.950 . S
H230 C206 0.950 . S
H231 C207 0.949 . S
H232 C209 0.950 . S
H233 C211 0.950 . S
C234 C235 1.349 . S
C234 C236 1.327 . S
C234 H259 0.950 . S
C235 C234 1.349 . S
C235 C251 1.349 . S
C236 C234 1.327 . S
C236 C255 1.429 . S
C236 H260 0.950 . S
C237 C254 1.574 . S
C237 C256 1.368 . S
C237 H261 0.949 . S
H238 C242 0.949 . S
C239 C240 1.349 . S
C239 C241 1.327 . S
C239 H262 0.950 . S
C240 C239 1.349 . S
C240 C252 1.349 . S
C241 C239 1.327 . S
C241 C257 1.429 . S
C241 H263 0.950 . S
C242 H238 0.949 . S
C242 C250 1.574 1_655 S
C242 C258 1.368 . S
H243 C251 0.950 . S
H244 C249 0.950 . S
H245 C250 0.949 . S
H246 C252 0.950 . S
H247 C253 0.950 . S
H248 C254 0.949 . S
C249 H244 0.950 . S
C249 C251 1.327 . S
C249 C255 1.429 . S
C250 C242 1.574 1_455 S
C250 H245 0.949 . S
C250 C256 1.368 . S
C251 C235 1.349 . S
C251 H243 0.950 . S
C251 C249 1.327 . S
C252 C240 1.349 . S
C252 H246 0.950 . S
C252 C253 1.327 . S
C253 H247 0.950 . S
C253 C252 1.327 . S
C253 C257 1.429 . S
C254 C237 1.574 . S
C254 H248 0.949 . S
C254 C258 1.368 1_455 S
C255 C236 1.429 . S
C255 C249 1.429 . S
C255 C256 1.523 . S
C256 C237 1.368 . S
C256 C250 1.368 . S
C256 C255 1.523 . S
C257 C241 1.429 . S
C257 C253 1.429 . S
C257 C258 1.523 . S
C258 C242 1.368 . S
C258 C254 1.368 1_655 S
C258 C257 1.523 . S
H259 C234 0.950 . S
H260 C236 0.950 . S
H261 C237 0.949 . S
H262 C239 0.950 . S
H263 C241 0.950 . S
C264 C265 1.349 . S
C264 C266 1.327 . S
C264 H289 0.950 . S
C265 C264 1.349 . S
C265 C281 1.349 . S
C266 C264 1.327 . S
C266 C285 1.429 . S
C266 H290 0.950 1_556 S
C267 C284 1.574 1_545 S
C267 C286 1.368 . S
C267 H291 0.949 . S
H268 C272 0.949 . S
C269 C270 1.349 . S
C269 C271 1.327 . S
C269 H292 0.950 . S
C270 C269 1.349 . S
C270 C282 1.349 . S
C271 C269 1.327 . S
C271 C287 1.429 . S
C271 H293 0.950 1_554 S
C272 H268 0.949 . S
C272 C280 1.574 1_565 S
C272 C288 1.368 . S
H273 C281 0.950 . S
H274 C279 0.950 . S
H275 C280 0.949 . S
H276 C282 0.950 . S
H277 C283 0.950 . S
H278 C284 0.949 . S
C279 H274 0.950 . S
C279 C281 1.327 . S
C279 C285 1.429 . S
C280 C272 1.574 1_545 S
C280 H275 0.949 . S
C280 C286 1.368 1_554 S
C281 C265 1.349 . S
C281 H273 0.950 . S
C281 C279 1.327 . S
C282 C270 1.349 . S
C282 H276 0.950 . S
C282 C283 1.327 . S
C283 H277 0.950 . S
C283 C282 1.327 . S
C283 C287 1.429 . S
C284 C267 1.574 1_565 S
C284 H278 0.949 . S
C284 C288 1.368 1_556 S
C285 C266 1.429 . S
C285 C279 1.429 . S
C285 C286 1.523 . S
C286 C267 1.368 . S
C286 C280 1.368 1_556 S
C286 C285 1.523 . S
C287 C271 1.429 . S
C287 C283 1.429 . S
C287 C288 1.523 . S
C288 C272 1.368 . S
C288 C284 1.368 1_554 S
C288 C287 1.523 . S
H289 C264 0.950 . S
H290 C266 0.950 1_554 S
H291 C267 0.949 . S
H292 C269 0.950 . S
H293 C271 0.950 1_556 S
C294 C295 1.349 . S
C294 C296 1.327 . S
C294 H319 0.950 . S
C295 C294 1.349 . S
C295 C311 1.349 . S
C296 C294 1.327 . S
C296 C315 1.429 . S
C296 H320 0.950 . S
C297 C314 1.574 . S
C297 C316 1.368 . S
C297 H321 0.949 . S
H298 C302 0.949 . S
C299 C300 1.349 . S
C299 C301 1.327 . S
C299 H322 0.950 . S
C300 C299 1.349 . S
C300 C312 1.349 . S
C301 C299 1.327 . S
C301 C317 1.429 . S
C301 H323 0.950 . S
C302 H298 0.949 . S
C302 C310 1.574 . S
C302 C318 1.368 . S
H303 C311 0.950 . S
H304 C309 0.950 . S
H305 C310 0.949 . S
H306 C312 0.950 . S
H307 C313 0.950 . S
H308 C314 0.949 . S
C309 H304 0.950 . S
C309 C311 1.327 . S
C309 C315 1.429 . S
C310 C302 1.574 . S
C310 H305 0.949 . S
C310 C316 1.368 . S
C311 C295 1.349 . S
C311 H303 0.950 . S
C311 C309 1.327 . S
C312 C300 1.349 . S
C312 H306 0.950 . S
C312 C313 1.327 . S
C313 H307 0.950 . S
C313 C312 1.327 . S
C313 C317 1.429 . S
C314 C297 1.574 . S
C314 H308 0.949 . S
C314 C318 1.368 . S
C315 C296 1.429 . S
C315 C309 1.429 . S
C315 C316 1.523 . S
C316 C297 1.368 . S
C316 C310 1.368 . S
C316 C315 1.523 . S
C317 C301 1.429 . S
C317 C313 1.429 . S
C317 C318 1.523 . S
C318 C302 1.368 . S
C318 C314 1.368 . S
C318 C317 1.523 . S
H319 C294 0.950 . S
H320 C296 0.950 . S
H321 C297 0.949 . S
H322 C299 0.950 . S
H323 C301 0.950 . S
C324 C325 1.349 . S
C324 C326 1.327 . S
C324 H349 0.950 . S
C325 C324 1.349 . S
C325 C341 1.349 . S
C326 C324 1.327 . S
C326 C345 1.429 . S
C326 H350 0.950 . S
C327 C344 1.574 1_455 S
C327 C346 1.368 1_556 S
C327 H351 0.949 . S
H328 C332 0.949 . S
C329 C330 1.349 . S
C329 C331 1.327 . S
C329 H352 0.950 . S
C330 C329 1.349 . S
C330 C342 1.349 . S
C331 C329 1.327 . S
C331 C347 1.429 . S
C331 H353 0.950 . S
C332 H328 0.949 . S
C332 C340 1.574 . S
C332 C348 1.368 1_554 S
H333 C341 0.950 . S
H334 C339 0.950 1_556 S
H335 C340 0.949 . S
H336 C342 0.964 . S
H337 C343 0.950 1_554 S
H338 C344 0.949 . S
C339 H334 0.950 1_554 S
C339 C341 1.327 . S
C339 C345 1.429 . S
C340 C332 1.574 . S
C340 H335 0.949 . S
C340 C346 1.368 1_655 S
C341 C325 1.349 . S
C341 H333 0.950 . S
C341 C339 1.327 . S
C342 C330 1.349 . S
C342 H336 0.964 . S
C342 C343 1.327 . S
C343 H337 0.950 1_556 S
C343 C342 1.327 . S
C343 C347 1.429 . S
C344 C327 1.574 1_655 S
C344 H338 0.949 . S
C344 C348 1.368 . S
C345 C326 1.429 . S
C345 C339 1.429 . S
C345 C346 1.523 . S
C346 C327 1.368 1_554 S
C346 C340 1.368 1_455 S
C346 C345 1.523 . S
C347 C331 1.429 . S
C347 C343 1.429 . S
C347 C348 1.523 . S
C348 C332 1.368 1_556 S
C348 C344 1.368 . S
C348 C347 1.523 . S
H349 C324 0.950 . S
H350 C326 0.950 . S
H351 C327 0.949 . S
H352 C329 0.950 . S
H353 C331 0.950 . S
C354 C355 1.349 . S
C354 C356 1.327 . S
C354 H379 0.950 . S
C355 C354 1.349 . S
C355 C371 1.349 . S
C356 C354 1.327 . S
C356 C375 1.429 . S
C356 H380 0.950 . S
C357 C374 1.574 1_545 S
C357 C376 1.368 . S
C357 H381 0.949 . S
H358 C362 0.949 . S
C359 C360 1.349 . S
C359 C361 1.327 . S
C359 H382 0.950 . S
C360 C359 1.349 . S
C360 C372 1.349 . S
C361 C359 1.327 . S
C361 C377 1.429 . S
C361 H383 0.950 . S
C362 H358 0.949 . S
C362 C370 1.574 1_565 S
C362 C378 1.368 . S
H363 C371 0.950 . S
H364 C369 0.950 . S
H365 C370 0.949 . S
H366 C372 0.950 . S
H367 C373 0.950 . S
H368 C374 0.949 . S
C369 H364 0.950 . S
C369 C371 1.327 . S
C369 C375 1.429 . S
C370 C362 1.574 1_545 S
C370 H365 0.949 . S
C370 C376 1.368 . S
C371 C355 1.349 . S
C371 H363 0.950 . S
C371 C369 1.327 . S
C372 C360 1.349 . S
C372 H366 0.950 . S
C372 C373 1.327 . S
C373 H367 0.950 . S
C373 C372 1.327 . S
C373 C377 1.429 . S
C374 C357 1.574 1_565 S
C374 H368 0.949 . S
C374 C378 1.368 . S
C375 C356 1.429 . S
C375 C369 1.429 . S
C375 C376 1.523 . S
C376 C357 1.368 . S
C376 C370 1.368 . S
C376 C375 1.523 . S
C377 C361 1.429 . S
C377 C373 1.429 . S
C377 C378 1.523 . S
C378 C362 1.368 . S
C378 C374 1.368 . S
C378 C377 1.523 . S
H379 C354 0.950 . S
H380 C356 0.950 . S
H381 C357 0.949 . S
H382 C359 0.950 . S
H383 C361 0.950 . S
C145 C3 1.520 . S
C150 C76 1.518 . S
C175 C40 1.518 . S
C180 C111 1.520 . S
C205 C14 1.349 . S
C210 C110 1.389 . S
C235 C86 1.576 . S
C240 C39 1.650 . S
C265 C112 1.736 . S
C270 C4 1.736 . S
C295 C50 1.576 . S
C300 C75 1.650 . S
C325 C2 1.389 . S
C330 C122 1.349 . S
C355 C38 1.287 . S
C360 C74 1.287 . S
