# Generated by pormake.
# Topology ukg, (4)-cn, num edge types: 1
# Building blocks:
#     Node 0, Type 0, BuildingBlock: ESEHIV_clean_sbu_0, # of connection points: 4
#     Node 1, Type 0, BuildingBlock: ESEHIV_clean_sbu_0, # of connection points: 4
#     Node 2, Type 0, BuildingBlock: ESEHIV_clean_sbu_0, # of connection points: 4
#     Node 3, Type 0, BuildingBlock: ESEHIV_clean_sbu_0, # of connection points: 4
#     Node 4, Type 0, BuildingBlock: ESEHIV_clean_sbu_0, # of connection points: 4
#     Node 5, Type 0, BuildingBlock: ESEHIV_clean_sbu_0, # of connection points: 4
#     Node 6, Type 0, BuildingBlock: ESEHIV_clean_sbu_0, # of connection points: 4
#     Node 7, Type 0, BuildingBlock: ESEHIV_clean_sbu_0, # of connection points: 4
#     Edge 8, Type (0, 0), BuildingBlock: FUNLAD_clean_linker_0, # of connection points: 2
#     Edge 9, Type (0, 0), BuildingBlock: FUNLAD_clean_linker_0, # of connection points: 2
#     Edge 10, Type (0, 0), BuildingBlock: FUNLAD_clean_linker_0, # of connection points: 2
#     Edge 11, Type (0, 0), BuildingBlock: FUNLAD_clean_linker_0, # of connection points: 2
#     Edge 12, Type (0, 0), BuildingBlock: FUNLAD_clean_linker_0, # of connection points: 2
#     Edge 13, Type (0, 0), BuildingBlock: FUNLAD_clean_linker_0, # of connection points: 2
#     Edge 14, Type (0, 0), BuildingBlock: FUNLAD_clean_linker_0, # of connection points: 2
#     Edge 15, Type (0, 0), BuildingBlock: FUNLAD_clean_linker_0, # of connection points: 2
#     Edge 16, Type (0, 0), BuildingBlock: FUNLAD_clean_linker_0, # of connection points: 2
#     Edge 17, Type (0, 0), BuildingBlock: FUNLAD_clean_linker_0, # of connection points: 2
#     Edge 18, Type (0, 0), BuildingBlock: FUNLAD_clean_linker_0, # of connection points: 2
#     Edge 19, Type (0, 0), BuildingBlock: FUNLAD_clean_linker_0, # of connection points: 2
#     Edge 20, Type (0, 0), BuildingBlock: FUNLAD_clean_linker_0, # of connection points: 2
#     Edge 21, Type (0, 0), BuildingBlock: FUNLAD_clean_linker_0, # of connection points: 2
#     Edge 22, Type (0, 0), BuildingBlock: FUNLAD_clean_linker_0, # of connection points: 2
#     Edge 23, Type (0, 0), BuildingBlock: FUNLAD_clean_linker_0, # of connection points: 2
# Relax obj value: 0.115
# Max RMSD: 0.190
# Mean RMSD: 0.174
data_MOF--net-ukg--node1-ESEHIV_clean_sbu_0--edge1-FUNLAD_clean_linker_0
_symmetry_space_group_name_H-M    P1
_symmetry_Int_Tables_number       1
_symmetry_cell_setting            triclinic
loop_
_symmetry_equiv_pos_as_xyz
'x, y, z'
_cell_length_a     36.249141
_cell_length_b     36.243688
_cell_length_c     49.131244
_cell_angle_alpha  90.160547
_cell_angle_beta   89.97618
_cell_angle_gamma 90.216667
loop_
_atom_site_label
_atom_site_type_symbol
_atom_site_fract_x
_atom_site_fract_y
_atom_site_fract_z
_atom_type_partial_charge
Cu0 Cu 0.03938 0.70554 0.15961 0.0
N1 N 1.01396 0.7487 0.16859 0.0
N2 N 0.97797 0.78742 0.19217 0.0
C3 C 0.98942 0.75223 0.18903 0.0
C4 C 0.99621 0.80675 0.17286 0.0
C5 C 1.01849 0.78283 0.15847 0.0
O6 O 1.01683 0.66674 0.1818 0.0
C7 C 0.10353 0.73147 0.18742 0.0
O8 O 0.07968 0.73999 0.20655 0.0
H9 H 0.98062 0.72942 0.20161 0.0
H10 H 0.03754 0.79002 0.14238 0.0
N11 N 0.03286 0.69369 0.12268 0.0
N12 N 0.02672 0.66055 0.08429 0.0
C13 C 0.03234 0.65963 0.11154 0.0
C14 C 0.02749 0.717 0.10181 0.0
C15 C 1.02374 0.69672 0.07816 0.0
C16 C 0.98341 0.65838 0.1762 0.0
O17 O 0.96779 0.67414 0.1551 0.0
H18 H 0.03629 0.63473 0.12326 0.0
H19 H 1.02619 0.74669 0.10363 0.0
O20 O 0.09208 0.71451 0.16625 0.0
H21 H 0.99468 0.83627 0.16991 0.0
H22 H 1.0186 0.70782 0.0581 0.0
Cu23 Cu 0.35175 0.56027 0.65557 0.0
N24 N 0.30784 0.53606 0.66474 0.0
N25 N 0.26734 0.50388 0.68963 0.0
C26 C 0.30289 0.51436 0.68668 0.0
C27 C 0.24923 0.51965 0.66867 0.0
C28 C 0.27429 0.5395 0.65337 0.0
O29 O 0.38942 0.53906 0.67931 0.0
C30 C 0.32109 0.62797 0.67608 0.0
O31 O 0.3032 0.60636 0.69301 0.0
H32 H 0.3246 0.50799 0.701 0.0
H33 H 0.26826 0.55633 0.63579 0.0
N34 N 0.36423 0.55082 0.6191 0.0
N35 N 0.39687 0.54726 0.58034 0.0
C36 C 0.39709 0.55699 0.607 0.0
C37 C 0.34244 0.5367 0.59949 0.0
C38 C 0.3624 0.53447 0.57565 0.0
C39 C 0.39796 0.50537 0.67511 0.0
O40 O 0.38341 0.48826 0.65406 0.0
H41 H 0.42076 0.56795 0.61777 0.0
H42 H 0.31397 0.5286 0.60227 0.0
O43 O 0.34457 0.61377 0.65977 0.0
H44 H 0.21987 0.51758 0.66492 0.0
H45 H 0.35202 0.52461 0.5563 0.0
Cu46 Cu 0.49286 0.88555 0.16295 0.0
N47 N 0.51661 0.84153 0.17255 0.0
N48 N 0.54917 0.80101 0.19698 0.0
C49 C 0.54353 0.83696 0.19121 0.0
C50 C 0.52551 0.78221 0.18084 0.0
C51 C 0.5056 0.80723 0.16577 0.0
O52 O 0.51502 0.92584 0.18405 0.0
C53 C 0.42538 0.85797 0.1861 0.0
O54 O 0.44716 0.84387 0.2047 0.0
H55 H 0.55707 0.8595 0.20168 0.0
H56 H 0.48309 0.80098 0.15205 0.0
N57 N 0.50153 0.89555 0.12606 0.0
N58 N 0.50871 0.92641 0.08685 0.0
C59 C 0.5016 0.92887 0.11389 0.0
C60 C 0.50877 0.87112 0.10614 0.0
C61 C 0.51321 0.88999 0.082 0.0
C62 C 0.51928 0.92495 0.20978 0.0
O63 O 0.50356 0.89832 0.22374 0.0
H64 H 0.49616 0.95431 0.12471 0.0
H65 H 0.51084 0.84162 0.10898 0.0
O66 O 0.43936 0.87859 0.16772 0.0
H67 H 0.52173 0.75257 0.18076 0.0
H68 H 0.51989 0.87775 0.06251 0.0
Cu69 Cu 0.17146 1.02047 0.66189 0.0
N70 N 0.21424 0.04559 0.6727 0.0
N71 N 0.25137 0.08025 0.6987 0.0
C72 C 0.21625 0.07052 0.69307 0.0
C73 C 0.27239 0.06073 0.6812 0.0
C74 C 0.24939 0.03942 0.66514 0.0
O75 O 0.13175 0.04247 0.68344 0.0
C76 C 0.20008 0.94933 0.65263 0.0
O77 O 0.21349 0.96608 0.6311 0.0
H78 H 0.1926 0.07985 0.70459 0.0
H79 H 0.25783 1.01987 0.64972 0.0
N80 N 0.16146 0.02818 0.62482 0.0
N81 N 0.13041 0.03239 0.58546 0.0
C82 C 0.1289 1.02294 0.61209 0.0
C83 C 0.18444 0.04142 0.60566 0.0
C84 C 0.16544 0.04401 0.5814 0.0
C85 C 0.12291 0.07567 0.67784 0.0
O86 O 0.1386 0.09166 0.65682 0.0
H87 H 0.10437 1.01329 0.62247 0.0
H88 H 0.21296 0.0489 0.60913 0.0
O89 O 0.17941 0.96761 0.66882 0.0
H90 H 0.30223 0.06133 0.68043 0.0
H91 H 0.17672 0.05357 0.56228 0.0
Cu92 Cu 1.01972 0.33852 0.88978 0.0
N93 N 0.98778 0.3141 0.91359 0.0
N94 N 0.93398 0.30197 0.93403 0.0
C95 C 0.95184 0.32267 0.91541 0.0
C96 C 0.9599 0.27925 0.94435 0.0
C97 C 0.99323 0.28697 0.93178 0.0
O98 O 1.01684 0.39056 0.90036 0.0
C99 C 0.99889 0.29119 0.84777 0.0
O100 O 0.99118 0.27003 0.86867 0.0
H101 H 0.939 0.34345 0.90283 0.0
H102 H 1.01944 0.27382 0.93561 0.0
N103 N 0.0692 0.32558 0.8924 0.0
N104 N 0.12625 0.33057 0.8753 0.0
C105 C 0.09507 0.34841 0.88232 0.0
C106 C 0.08457 0.29186 0.89221 0.0
C107 C 0.11992 0.29488 0.88177 0.0
C108 C 0.02869 0.39573 0.92457 0.0
O109 O 0.04123 0.36707 0.93798 0.0
H110 H 0.089 0.37655 0.87654 0.0
H111 H 0.06978 0.26645 0.89617 0.0
O112 O 1.0081 0.32476 0.85214 0.0
H113 H 0.95526 0.25884 0.96003 0.0
H114 H 0.1381 0.27213 0.87706 0.0
Cu115 Cu 0.72014 0.54886 0.38666 0.0
N116 N 0.74572 0.51554 0.4087 0.0
N117 N 0.75758 0.46058 0.42726 0.0
C118 C 0.73601 0.47978 0.41007 0.0
C119 C 0.78217 0.48537 0.43708 0.0
C120 C 0.77461 0.51946 0.42569 0.0
O121 O 0.66805 0.5439 0.39746 0.0
C122 C 0.76659 0.52983 0.34347 0.0
O123 O 0.78813 0.52099 0.36387 0.0
H124 H 0.71366 0.46805 0.39824 0.0
H125 H 0.78907 0.54512 0.42948 0.0
N126 N 0.73245 0.59869 0.39094 0.0
N127 N 0.72837 0.65686 0.37604 0.0
C128 C 0.73262 0.62114 0.36916 0.0
C129 C 0.72875 0.62119 0.41264 0.0
C130 C 0.72601 0.65714 0.40345 0.0
C131 C 0.66333 0.54492 0.42326 0.0
O132 O 0.69245 0.54929 0.43883 0.0
H133 H 0.73069 0.61107 0.34846 0.0
H134 H 0.72439 0.61208 0.43331 0.0
O135 O 0.73325 0.53906 0.34849 0.0
H136 H 0.80374 0.47943 0.45162 0.0
H137 H 0.71958 0.68111 0.41574 0.0
Cu138 Cu 0.5094 0.24501 0.89246 0.0
N139 N 0.54219 0.27165 0.91452 0.0
N140 N 0.59675 0.28527 0.93331 0.0
C141 C 0.57861 0.26496 0.91453 0.0
C142 C 0.57056 0.30602 0.94546 0.0
C143 C 0.53676 0.29738 0.9339 0.0
O144 O 0.51806 0.19257 0.90048 0.0
C145 C 0.51727 0.29696 0.85197 0.0
O146 O 0.51773 0.31781 0.87386 0.0
H147 H 0.5914 0.24512 0.90104 0.0
H148 H 0.51015 0.3084 0.93959 0.0
N149 N 0.45943 0.25267 0.89924 0.0
N150 N 0.40091 0.24141 0.88722 0.0
C151 C 0.43511 0.25024 0.87864 0.0
C152 C 0.43978 0.24594 0.92196 0.0
C153 C 0.4036 0.23889 0.91457 0.0
C154 C 0.52149 0.18531 0.92582 0.0
O155 O 0.51937 0.21243 0.9435 0.0
H156 H 0.44348 0.2494 0.8575 0.0
H157 H 0.45155 0.242 0.94195 0.0
O158 O 0.51601 0.26193 0.85486 0.0
H159 H 0.57526 0.32521 0.96203 0.0
H160 H 0.38193 0.22915 0.92794 0.0
Cu161 Cu 0.81123 0.0393 0.38872 0.0
N162 N 0.78181 0.06995 0.4103 0.0
N163 N 0.76472 0.12275 0.4302 0.0
C164 C 0.79137 0.1049 0.41634 0.0
C165 C 0.73713 0.09786 0.43304 0.0
C166 C 0.74785 0.06514 0.4208 0.0
O167 O 0.8624 0.04678 0.40081 0.0
C168 C 0.77164 0.06633 0.34256 0.0
O169 O 0.75759 0.09083 0.35929 0.0
H170 H 0.81687 0.11745 0.4095 0.0
H171 H 0.73169 0.04011 0.41897 0.0
N172 N 0.80166 0.98892 0.39245 0.0
N173 N 0.8075 0.93071 0.37785 0.0
C174 C 0.80499 0.96645 0.37079 0.0
C175 C 0.80162 0.96651 0.41428 0.0
C176 C 0.80543 0.93044 0.40529 0.0
C177 C 0.86635 0.04478 0.42662 0.0
O178 O 0.83693 0.03868 0.44158 0.0
H179 H 0.80995 0.97648 0.35042 0.0
H180 H 0.80198 0.97573 0.43522 0.0
O181 O 0.79961 0.04769 0.35019 0.0
H182 H 0.71093 0.10304 0.44288 0.0
H183 H 0.80886 0.90631 0.41796 0.0
C184 C 0.04494 0.43571 0.96415 0.0
C185 C 0.02783 0.43215 0.93857 0.0
C186 C 0.04299 0.46857 0.97889 0.0
C187 C 1.02352 0.49897 0.96866 0.0
C188 C 1.00751 0.49607 0.94261 0.0
C189 C 1.00948 0.46289 0.92772 0.0
C190 C 1.02061 0.53399 0.98465 0.0
C191 C 1.02091 0.53439 1.01219 0.0
C192 C 1.02052 0.56818 0.02966 0.0
C193 C 1.01256 0.56415 0.0575 0.0
C194 C 1.01424 0.59433 0.07526 0.0
C195 C 1.02415 0.62953 0.06573 0.0
H196 H 0.03729 0.60775 0.99883 0.0
C197 C 0.03178 0.63374 0.03777 0.0
C198 C 0.03007 0.60346 1.01995 0.0
H199 H 0.04001 0.66027 0.02971 0.0
H200 H 0.05991 0.41292 0.97305 0.0
H201 H 0.05715 0.47002 0.99825 0.0
H202 H 0.99286 0.51926 0.93399 0.0
H203 H 0.99618 0.46113 0.90802 0.0
H204 H 1.01715 0.55951 0.97346 0.0
H205 H 1.02091 0.5082 1.02289 0.0
H206 H 1.00522 0.53737 0.06567 0.0
H207 H 1.0076 0.58999 0.09648 0.0
C208 C 0.4272 0.52828 0.53703 0.0
C209 C 0.427 0.5498 0.561 0.0
C210 C 0.45681 0.53012 0.51868 0.0
C211 C 0.48702 0.55361 0.52382 0.0
C212 C 0.4866 0.57532 0.54757 0.0
C213 C 0.45703 0.5736 0.56582 0.0
C214 C 0.52074 0.55441 0.50637 0.0
C215 C 0.52288 0.54198 0.48042 0.0
C216 C 0.55858 0.54119 0.4652 0.0
C217 C 0.55942 0.54533 0.43669 0.0
C218 C 0.59321 0.54575 0.4225 0.0
C219 C 0.62666 0.54171 0.43665 0.0
H220 H 0.5926 0.53049 0.50067 0.0
C221 C 0.62543 0.53594 0.46495 0.0
C222 C 0.59202 0.53551 0.47896 0.0
H223 H 0.65049 0.53191 0.47655 0.0
H224 H 0.40493 0.50921 0.5327 0.0
H225 H 0.45635 0.51224 0.50102 0.0
H226 H 0.5095 0.59361 0.55219 0.0
H227 H 0.45782 0.59104 0.5837 0.0
H228 H 0.54526 0.56645 0.51556 0.0
H229 H 0.49813 0.53308 0.46982 0.0
H230 H 0.534 0.5491 0.42548 0.0
H231 H 0.59319 0.55004 0.4007 0.0
C232 C 0.50768 0.94985 0.03923 0.0
C233 C 0.51167 0.9563 0.0674 0.0
C234 C 0.51113 0.97875 1.02042 0.0
C235 C 0.51859 1.01501 0.02932 0.0
C236 C 0.52243 1.02132 0.05745 0.0
C237 C 0.51905 0.99252 0.07618 0.0
C238 C 0.52309 0.04721 1.01057 0.0
C239 C 0.51946 0.0466 0.98312 0.0
C240 C 0.52408 0.08056 0.96615 0.0
C241 C 0.50468 0.08416 0.94145 0.0
C242 C 0.50574 0.11744 0.92676 0.0
C243 C 0.5263 0.14755 0.93661 0.0
H244 H 0.56394 0.10771 0.99262 0.0
C245 C 0.54773 0.14295 0.96016 0.0
C246 C 0.547 0.10985 0.97457 0.0
H247 H 0.56426 0.16558 0.96801 0.0
H248 H 0.50158 0.92247 0.03162 0.0
H249 H 0.50799 0.97229 0.99907 0.0
H250 H 0.52833 0.0488 0.06508 0.0
H251 H 0.52287 0.99871 0.09754 0.0
H252 H 0.52903 0.07345 1.02037 0.0
H253 H 0.51115 1.02147 0.97278 0.0
H254 H 0.48732 0.06184 0.93416 0.0
H255 H 0.48879 0.12033 0.90874 0.0
C256 C 0.90328 0.05224 0.469 0.0
C257 C 0.90265 0.04794 0.44054 0.0
C258 C 0.93643 0.05208 0.48335 0.0
C259 C 0.97017 0.04724 0.46974 0.0
C260 C 0.9699 0.04468 0.44112 0.0
C261 C 0.9364 0.04488 0.42661 0.0
C262 C 1.00562 0.04546 0.48521 0.0
C263 C 1.00732 0.03158 0.51072 0.0
C264 C 0.0409 0.03077 0.52831 0.0
C265 C 0.04045 1.00812 0.55148 0.0
C266 C 0.06988 1.00823 0.56987 0.0
C267 C 0.10065 0.03127 0.56577 0.0
H268 H 0.07312 0.07198 0.50664 0.0
C269 C 0.10142 0.05365 0.54234 0.0
C270 C 0.07191 0.05347 0.52385 0.0
H271 H 0.12434 0.07214 0.5386 0.0
H272 H 0.87793 0.05545 0.48045 0.0
H273 H 0.93541 0.05589 0.5052 0.0
H274 H 0.99554 0.04159 0.43004 0.0
H275 H 0.93688 0.0417 0.40469 0.0
H276 H 0.03059 0.05465 0.47505 0.0
H277 H 0.98254 1.0194 0.51937 0.0
H278 H 1.01698 0.99037 0.55556 0.0
H279 H 0.06839 0.99018 0.58734 0.0
C280 C 0.16651 0.74413 0.16712 0.0
C281 C 0.14256 0.74438 0.18971 0.0
C282 C 0.20242 0.75871 0.16914 0.0
C283 C 0.21531 0.77375 0.1939 0.0
C284 C 0.19162 0.77308 0.21654 0.0
C285 C 0.15573 0.75892 0.21445 0.0
C286 C 0.25346 0.78914 0.19739 0.0
C287 C 0.27431 0.80297 0.17693 0.0
C288 C 0.31238 0.8186 0.18072 0.0
C289 C 0.32706 0.84226 0.16075 0.0
C290 C 0.3632 0.85609 0.16286 0.0
C291 C 0.38584 0.84633 0.18492 0.0
H292 H 0.3254 0.79041 0.21853 0.0
C293 C 0.37106 0.82298 0.20506 0.0
C294 C 0.33494 0.80924 0.203 0.0
H295 H 0.38769 0.81456 0.22225 0.0
H296 H 0.15734 0.73314 0.14774 0.0
H297 H 0.22004 0.75772 0.15138 0.0
H298 H 0.20075 0.78405 0.23595 0.0
H299 H 0.13822 0.75953 0.23232 0.0
H300 H 0.2638 0.79076 0.21808 0.0
H301 H 0.26265 0.80426 0.15661 0.0
H302 H 0.31059 0.84987 0.14326 0.0
H303 H 0.37363 0.87377 0.14685 0.0
C304 C 0.28346 0.68272 0.69112 0.0
C305 C 0.31121 0.66786 0.67432 0.0
C306 C 0.27209 0.71949 0.68828 0.0
C307 C 0.28817 0.74254 0.66844 0.0
C308 C 0.31654 0.72782 0.65214 0.0
C309 C 0.32786 0.69105 0.65497 0.0
C310 C 0.27654 0.78177 0.66374 0.0
C311 C 0.24655 0.7982 0.6749 0.0
C312 C 0.23493 0.83703 0.66881 0.0
C313 C 0.21145 0.85565 0.68709 0.0
C314 C 0.19971 0.89189 0.68193 0.0
C315 C 0.21092 0.91037 0.65818 0.0
H316 H 0.26236 0.84196 0.62959 0.0
C317 C 0.23379 0.89148 0.63966 0.0
C318 C 0.24551 0.85539 0.64481 0.0
H319 H 0.24278 0.90457 0.621 0.0
H320 H 0.27004 0.66578 0.70634 0.0
H321 H 0.25071 0.72937 0.70174 0.0
H322 H 0.32975 0.7447 0.63677 0.0
H323 H 0.34929 0.68069 0.64165 0.0
H324 H 0.29376 0.79767 0.65001 0.0
H325 H 0.22961 0.78314 0.68928 0.0
H326 H 0.20239 0.84221 0.70561 0.0
H327 H 0.18207 0.90548 0.69663 0.0
C328 C 0.65459 0.3144 0.95001 0.0
C329 C 0.63573 0.28368 0.93928 0.0
C330 C 0.69286 0.31326 0.95414 0.0
C331 C 0.71311 0.28129 0.94751 0.0
C332 C 0.69387 0.25022 0.93789 0.0
C333 C 0.6558 0.25138 0.93378 0.0
C334 C 0.75412 0.27897 0.9497 0.0
C335 C 0.77676 0.30857 0.95076 0.0
C336 C 0.81779 0.30626 0.94879 0.0
C337 C 0.83733 0.3378 0.94055 0.0
C338 C 0.87542 0.33658 0.93642 0.0
C339 C 0.89516 0.30374 0.94055 0.0
H340 H 0.82413 0.24909 0.96149 0.0
C341 C 0.876 0.27254 0.95007 0.0
C342 C 0.83774 0.27375 0.9542 0.0
H343 H 0.89036 0.24687 0.95359 0.0
H344 H 0.63994 0.33962 0.95462 0.0
H345 H 0.70621 0.33751 0.96244 0.0
H346 H 0.70846 0.22502 0.93296 0.0
H347 H 0.64212 0.22684 0.92621 0.0
H348 H 0.76601 0.25165 0.94791 0.0
H349 H 0.76496 0.33602 0.95056 0.0
H350 H 0.82295 0.3634 0.93661 0.0
H351 H 0.88935 0.36143 0.92979 0.0
C352 C 0.78606 0.4007 0.43944 0.0
C353 C 0.75472 0.42161 0.43296 0.0
C354 C 0.78349 0.36228 0.4424 0.0
C355 C 0.74931 0.34401 0.43918 0.0
C356 C 0.71792 0.36523 0.43357 0.0
C357 C 0.72053 0.40344 0.4306 0.0
C358 C 0.74523 0.30301 0.43941 0.0
C359 C 0.77043 0.27944 0.44952 0.0
C360 C 0.76737 0.23852 0.44678 0.0
C361 C 0.79983 0.21755 0.44735 0.0
C362 C 0.79877 0.17949 0.44277 0.0
C363 C 0.76511 0.16129 0.43773 0.0
H364 H 0.70757 0.23485 0.44351 0.0
C365 C 0.73235 0.18186 0.43861 0.0
C366 C 0.73341 0.22005 0.4431 0.0
H367 H 0.70597 0.16869 0.43491 0.0
H368 H 0.81284 0.41382 0.44113 0.0
H369 H 0.80861 0.34716 0.44615 0.0
H370 H 0.69122 0.35212 0.43103 0.0
H371 H 0.69568 0.41874 0.42614 0.0
H372 H 0.7205 0.29196 0.42992 0.0
H373 H 0.79539 0.29019 0.45882 0.0
H374 H 0.82632 0.23081 0.45055 0.0
H375 H 0.82444 0.16435 0.44283 0.0
C376 C 0.81885 0.52113 0.31109 0.0
C377 C 0.78423 0.53687 0.31669 0.0
C378 C 0.84021 0.53343 0.28921 0.0
C379 C 0.82766 0.56216 0.27245 0.0
C380 C 0.79186 0.57597 0.2768 0.0
C381 C 0.77035 0.56353 0.29873 0.0
C382 C 0.85137 0.57877 0.25075 0.0
C383 C 0.88873 0.57863 0.2516 0.0
C384 C 0.91307 0.59741 0.23127 0.0
C385 C 0.94983 0.60563 0.2384 0.0
C386 C 0.97325 0.6244 0.22034 0.0
C387 C 0.96046 0.63523 0.19461 0.0
H388 H 0.87324 0.60023 0.19826 0.0
C389 C 0.92414 0.62582 0.18709 0.0
C390 C 0.90079 0.60707 0.20509 0.0
H391 H 0.91343 0.63334 0.1673 0.0
H392 H 0.83018 0.50018 0.32434 0.0
H393 H 0.86682 0.52078 0.28589 0.0
H394 H 0.78114 0.59768 0.26394 0.0
H395 H 0.74388 0.57633 0.30251 0.0
H396 H 0.83738 0.59394 0.23482 0.0
H397 H 0.90242 0.56621 0.26893 0.0
H398 H 0.9603 0.5982 0.25829 0.0
H399 H 1.00102 0.63118 0.22682 0.0
C400 C 0.43062 0.44748 0.68891 0.0
C401 C 0.41999 0.48388 0.69506 0.0
C402 C 0.44826 0.42552 0.70833 0.0
C403 C 0.45546 0.43929 0.73463 0.0
C404 C 0.44594 0.47615 0.74041 0.0
C405 C 0.42841 0.49818 0.72092 0.0
C406 C 0.47268 0.41655 0.75661 0.0
C407 C 0.47592 0.3793 0.75604 0.0
C408 C 0.49073 0.35713 0.77926 0.0
C409 C 0.48111 0.31953 0.78148 0.0
C410 C 0.49178 0.29878 0.80426 0.0
C411 C 0.51235 0.31528 0.82526 0.0
H412 H 0.52321 0.40089 0.79808 0.0
C413 C 0.52394 0.35211 0.82218 0.0
C414 C 0.51359 0.37268 0.79943 0.0
H415 H 0.54022 0.36549 0.83788 0.0
H416 H 0.42491 0.43563 0.66908 0.0
H417 H 0.45601 0.39785 0.70247 0.0
H418 H 0.45141 0.4878 0.76035 0.0
H419 H 0.42061 0.52605 0.72638 0.0
H420 H 0.48105 0.43139 0.7748 0.0
H421 H 0.46507 0.3639 0.73886 0.0
H422 H 0.46402 0.30654 0.76609 0.0
H423 H 0.48223 0.27054 0.80611 0.0
C424 C 0.56408 0.93817 0.24748 0.0
C425 C 0.54738 0.94907 0.22295 0.0
C426 C 0.5932 0.95866 0.25869 0.0
C427 C 0.60608 0.99086 0.24582 0.0
C428 C 0.58853 1.00252 0.22185 0.0
C429 C 0.55986 0.98158 0.21031 0.0
C430 C 0.63673 1.01331 0.25766 0.0
C431 C 0.66574 0.99794 0.27057 0.0
C432 C 0.6954 1.01926 0.2848 0.0
C433 C 0.72923 1.0019 0.29018 0.0
C434 C 0.75564 1.01865 0.30703 0.0
C435 C 0.74855 0.05293 0.31942 0.0
H436 H 0.66359 0.06895 0.29228 0.0
C437 C 0.71566 0.07135 0.31266 0.0
C438 C 0.6894 0.05476 0.29557 0.0
H439 H 0.70919 0.09778 0.32178 0.0
H440 H 0.55532 0.9132 0.25773 0.0
H441 H 0.60537 0.94939 0.27758 0.0
H442 H 0.59757 0.02747 0.2117 0.0
H443 H 0.54761 0.99073 0.1914 0.0
H444 H 0.63579 0.043 0.25487 0.0
H445 H 0.66796 0.96804 0.27083 0.0
H446 H 0.73472 0.97459 0.28215 0.0
H447 H 0.78065 1.00366 0.31155 0.0
C448 C 0.98929 0.2381 0.81607 0.0
C449 C 1.00483 0.27312 0.82098 0.0
C450 C 1.00057 0.21676 0.79384 0.0
C451 C 0.02809 0.22976 0.77604 0.0
C452 C 0.04168 0.26587 0.77983 0.0
C453 C 0.03026 0.28733 0.8021 0.0
C454 C 0.04377 0.20626 0.75383 0.0
C455 C 0.04383 0.1689 0.75452 0.0
C456 C 0.06214 0.14486 0.73376 0.0
C457 C 0.07058 0.10814 0.74059 0.0
C458 C 0.08917 0.08507 0.72222 0.0
C459 C 0.09965 0.09816 0.69646 0.0
H460 H 0.0643 0.18493 0.70092 0.0
C461 C 0.08993 0.13441 0.68921 0.0
C462 C 0.07132 0.15741 0.70753 0.0
H463 H 0.09718 0.14534 0.66942 0.0
H464 H 0.96929 0.2265 0.83006 0.0
H465 H 0.98808 0.18987 0.79105 0.0
H466 H 0.06247 0.27691 0.76622 0.0
H467 H 0.04293 0.3141 0.80536 0.0
H468 H 0.05822 0.22047 0.73758 0.0
H469 H 0.03211 0.15498 0.77205 0.0
H470 H 0.06352 0.09745 0.76051 0.0
H471 H 0.09619 0.05734 0.7285 0.0
C472 C 0.16205 0.38352 0.85786 0.0
C473 C 0.15429 0.34547 0.85748 0.0
C474 C 0.18335 0.39967 0.83737 0.0
C475 C 0.19755 0.37808 0.81601 0.0
C476 C 0.19242 0.33967 0.8168 0.0
C477 C 0.1708 0.32349 0.83723 0.0
C478 C 0.21654 0.39521 0.7923 0.0
C479 C 0.2059 0.42806 0.78216 0.0
C480 C 0.22215 0.44564 0.75754 0.0
C481 C 0.20098 0.47158 0.74329 0.0
C482 C 0.21545 0.48999 0.7207 0.0
C483 C 0.25174 0.48332 0.71201 0.0
H484 H 0.27586 0.41935 0.75946 0.0
C485 C 0.273 0.45727 0.72621 0.0
C486 C 0.25839 0.43856 0.74871 0.0
H487 H 0.30102 0.45141 0.71996 0.0
H488 H 0.1505 0.40106 0.87354 0.0
H489 H 0.18802 0.42918 0.83801 0.0
H490 H 0.20354 0.32235 0.80079 0.0
H491 H 0.16539 0.29415 0.83621 0.0
H492 H 0.23727 0.37905 0.78173 0.0
H493 H 0.18258 0.44204 0.79145 0.0
H494 H 0.17309 0.47781 0.74974 0.0
H495 H 0.1985 0.51022 0.71053 0.0
C496 C 0.68494 0.70584 0.36253 0.0
C497 C 0.71684 0.68507 0.35733 0.0
C498 C 0.66919 0.72735 0.34198 0.0
C499 C 0.68533 0.7288 0.31593 0.0
C500 C 0.71871 0.71026 0.31142 0.0
C501 C 0.73404 0.6882 0.3318 0.0
C502 C 0.66696 0.74771 0.29279 0.0
C503 C 0.63016 0.74576 0.28905 0.0
C504 C 0.61089 0.76002 0.26451 0.0
C505 C 0.57802 0.74274 0.25626 0.0
C506 C 0.55843 0.75555 0.23372 0.0
C507 C 0.57086 0.78648 0.21911 0.0
H508 H 0.64853 0.80526 0.25589 0.0
C509 C 0.6037 0.804 0.22741 0.0
C510 C 0.62368 0.7908 0.24979 0.0
H511 H 0.61388 0.82795 0.2166 0.0
H512 H 0.67093 0.70367 0.38193 0.0
H513 H 0.64388 0.74205 0.34626 0.0
H514 H 0.73187 0.71119 0.29163 0.0
H515 H 0.7586 0.67237 0.32733 0.0
H516 H 0.68433 0.75971 0.27709 0.0
H517 H 0.61361 0.73028 0.30355 0.0
H518 H 0.56738 0.71916 0.26732 0.0
H519 H 0.53291 0.74184 0.22823 0.0
C520 C 0.36684 0.24054 0.84383 0.0
C521 C 0.37291 0.2257 0.86983 0.0
C522 C 0.34607 0.22118 0.82446 0.0
C523 C 0.33108 0.18633 0.83068 0.0
C524 C 0.33555 0.17242 0.85714 0.0
C525 C 0.35596 0.19202 0.87661 0.0
C526 C 0.31471 0.16204 0.80935 0.0
C527 C 0.29884 0.17465 0.78641 0.0
C528 C 0.28648 0.14959 0.76418 0.0
C529 C 0.25494 0.15841 0.749 0.0
C530 C 0.24331 0.13555 0.72761 0.0
C531 C 0.26362 0.10401 0.72048 0.0
H532 H 0.3318 0.11095 0.7679 0.0
C533 C 0.29563 0.09562 0.73529 0.0
C534 C 0.30683 0.11801 0.75703 0.0
H535 H 0.31168 0.07139 0.73032 0.0
H536 H 0.37983 0.26633 0.83808 0.0
H537 H 0.34389 0.23257 0.80419 0.0
H538 H 0.32447 0.14558 0.86246 0.0
H539 H 0.36062 0.17958 0.8963 0.0
H540 H 0.3161 0.13243 0.81266 0.0
H541 H 0.29395 0.204 0.78398 0.0
H542 H 0.23906 0.18282 0.75387 0.0
H543 H 0.21869 0.14277 0.71637 0.0
C544 C 0.9464 0.78207 0.23692 0.0
C545 C 0.95296 0.80158 0.21262 0.0
C546 C 0.92264 0.7961 0.25688 0.0
C547 C 0.90498 0.83026 0.25314 0.0
C548 C 0.91113 0.84939 0.22869 0.0
C549 C 0.93476 0.83533 0.20874 0.0
C550 C 0.88013 0.84732 0.27389 0.0
C551 C 0.87652 0.83587 0.29993 0.0
C552 C 0.85432 0.85642 0.32055 0.0
C553 C 0.86429 0.85441 0.34817 0.0
C554 C 0.8471 0.87695 0.36759 0.0
C555 C 0.8195 0.90183 0.35971 0.0
H556 H 0.8147 0.88016 0.2924 0.0
C557 C 0.80753 0.90167 0.33252 0.0
C558 C 0.82451 0.87907 0.31318 0.0
H559 H 0.78586 0.92016 0.32603 0.0
H560 H 0.96 0.75612 0.24083 0.0
H561 H 0.91838 0.77988 0.27503 0.0
H562 H 0.89775 0.8756 0.22502 0.0
H563 H 0.93851 0.85089 0.19019 0.0
H564 H 0.86582 0.87214 0.26761 0.0
H565 H 0.89264 0.81282 0.30723 0.0
H566 H 0.88674 0.83677 0.35454 0.0
H567 H 0.85701 0.87658 0.38837 0.0
loop_
_geom_bond_atom_site_label_1
_geom_bond_atom_site_label_2
_geom_bond_distance
_geom_bond_site_symmetry_2
_ccdc_geom_bond_type
Cu0 N1 1.999 . S
Cu0 O6 1.974 . S
Cu0 N11 1.984 1_655 S
Cu0 O20 1.959 1_655 S
N1 Cu0 1.999 . S
N1 C3 1.263 . S
N1 C5 1.389 . S
N2 C3 1.358 . S
N2 C4 1.400 . S
C3 N1 1.263 . S
C3 N2 1.358 . S
C3 H9 0.930 . S
C4 N2 1.400 . S
C4 C5 1.351 . S
C4 H21 0.930 . S
C5 N1 1.389 . S
C5 C4 1.351 . S
C5 H10 0.930 1_655 S
O6 Cu0 1.974 . S
O6 C16 1.282 . S
C7 O8 1.261 . S
C7 O20 1.251 . S
O8 C7 1.261 . S
H9 C3 0.930 . S
H10 C5 0.930 1_455 S
N11 Cu0 1.984 1_455 S
N11 C13 1.336 . S
N11 C14 1.389 1_455 S
N12 C13 1.345 . S
N12 C15 1.321 1_455 S
C13 N11 1.336 . S
C13 N12 1.345 . S
C13 H18 0.930 . S
C14 N11 1.389 1_655 S
C14 C15 1.357 . S
C14 H19 0.930 . S
C15 N12 1.321 1_655 S
C15 C14 1.357 . S
C15 H22 0.935 . S
C16 O6 1.282 . S
C16 O17 1.216 . S
O17 C16 1.216 . S
H18 C13 0.930 . S
H19 C14 0.930 . S
O20 Cu0 1.959 1_455 S
O20 C7 1.251 . S
H21 C4 0.930 . S
H22 C15 0.935 . S
Cu23 N24 1.999 . S
Cu23 O29 1.974 . S
Cu23 N34 1.985 . S
Cu23 O43 1.959 . S
N24 Cu23 1.999 . S
N24 C26 1.263 . S
N24 C28 1.389 . S
N25 C26 1.358 . S
N25 C27 1.400 . S
C26 N24 1.263 . S
C26 N25 1.358 . S
C26 H32 0.930 . S
C27 N25 1.400 . S
C27 C28 1.351 . S
C27 H44 0.930 . S
C28 N24 1.389 . S
C28 C27 1.351 . S
C28 H33 0.930 . S
O29 Cu23 1.974 . S
O29 C39 1.282 . S
C30 O31 1.261 . S
C30 O43 1.251 . S
O31 C30 1.261 . S
H32 C26 0.930 . S
H33 C28 0.930 . S
N34 Cu23 1.985 . S
N34 C36 1.335 . S
N34 C37 1.390 . S
N35 C36 1.345 . S
N35 C38 1.336 . S
C36 N34 1.335 . S
C36 N35 1.345 . S
C36 H41 0.930 . S
C37 N34 1.390 . S
C37 C38 1.346 . S
C37 H42 0.930 . S
C38 N35 1.336 . S
C38 C37 1.346 . S
C38 H45 0.929 . S
C39 O29 1.282 . S
C39 O40 1.216 . S
O40 C39 1.216 . S
H41 C36 0.930 . S
H42 C37 0.930 . S
O43 Cu23 1.959 . S
O43 C30 1.251 . S
H44 C27 0.930 . S
H45 C38 0.929 . S
Cu46 N47 1.999 . S
Cu46 O52 1.974 . S
Cu46 N57 1.985 . S
Cu46 O66 1.959 . S
N47 Cu46 1.999 . S
N47 C49 1.263 . S
N47 C51 1.389 . S
N48 C49 1.358 . S
N48 C50 1.400 . S
C49 N47 1.263 . S
C49 N48 1.358 . S
C49 H55 0.930 . S
C50 N48 1.400 . S
C50 C51 1.351 . S
C50 H67 0.930 . S
C51 N47 1.389 . S
C51 C50 1.351 . S
C51 H56 0.930 . S
O52 Cu46 1.974 . S
O52 C62 1.282 . S
C53 O54 1.261 . S
C53 O66 1.251 . S
O54 C53 1.261 . S
H55 C49 0.930 . S
H56 C51 0.930 . S
N57 Cu46 1.985 . S
N57 C59 1.335 . S
N57 C60 1.390 . S
N58 C59 1.345 . S
N58 C61 1.336 . S
C59 N57 1.335 . S
C59 N58 1.345 . S
C59 H64 0.930 . S
C60 N57 1.390 . S
C60 C61 1.346 . S
C60 H65 0.930 . S
C61 N58 1.336 . S
C61 C60 1.346 . S
C61 H68 0.929 . S
C62 O52 1.282 . S
C62 O63 1.216 . S
O63 C62 1.216 . S
H64 C59 0.930 . S
H65 C60 0.930 . S
O66 Cu46 1.959 . S
O66 C53 1.251 . S
H67 C50 0.930 . S
H68 C61 0.929 . S
Cu69 N70 1.999 . S
Cu69 O75 1.974 . S
Cu69 N80 1.984 1_545 S
Cu69 O89 1.959 1_545 S
N70 Cu69 1.999 . S
N70 C72 1.263 . S
N70 C74 1.389 . S
N71 C72 1.358 . S
N71 C73 1.400 . S
C72 N70 1.263 . S
C72 N71 1.358 . S
C72 H78 0.930 . S
C73 N71 1.400 . S
C73 C74 1.351 . S
C73 H90 0.930 . S
C74 N70 1.389 . S
C74 C73 1.351 . S
C74 H79 0.930 1_545 S
O75 Cu69 1.974 . S
O75 C85 1.282 . S
C76 O77 1.261 . S
C76 O89 1.251 . S
O77 C76 1.261 . S
H78 C72 0.930 . S
H79 C74 0.930 1_565 S
N80 Cu69 1.984 1_565 S
N80 C82 1.339 . S
N80 C83 1.387 1_565 S
N81 C82 1.345 . S
N81 C84 1.324 1_565 S
C82 N80 1.339 . S
C82 N81 1.345 . S
C82 H87 0.930 . S
C83 N80 1.387 1_545 S
C83 C84 1.354 . S
C83 H88 0.930 . S
C84 N81 1.324 1_545 S
C84 C83 1.354 . S
C84 H91 0.933 . S
C85 O75 1.282 . S
C85 O86 1.216 . S
O86 C85 1.216 . S
H87 C82 0.930 . S
H88 C83 0.930 . S
O89 Cu69 1.959 1_565 S
O89 C76 1.251 . S
H90 C73 0.930 . S
H91 C84 0.933 . S
Cu92 N93 1.999 . S
Cu92 O98 1.974 . S
Cu92 N103 1.985 1_655 S
Cu92 O112 1.959 1_655 S
N93 Cu92 1.999 . S
N93 C95 1.263 . S
N93 C97 1.389 . S
N94 C95 1.358 . S
N94 C96 1.400 . S
C95 N93 1.263 . S
C95 N94 1.358 . S
C95 H101 0.930 . S
C96 N94 1.400 . S
C96 C97 1.351 . S
C96 H113 0.930 . S
C97 N93 1.389 . S
C97 C96 1.351 . S
C97 H102 0.930 . S
O98 Cu92 1.974 . S
O98 C108 1.282 . S
C99 O100 1.261 . S
C99 O112 1.253 . S
O100 C99 1.261 . S
H101 C95 0.930 . S
H102 C97 0.930 . S
N103 Cu92 1.985 1_455 S
N103 C105 1.335 . S
N103 C106 1.390 . S
N104 C105 1.345 . S
N104 C107 1.336 . S
C105 N103 1.335 . S
C105 N104 1.345 . S
C105 H110 0.930 . S
C106 N103 1.390 . S
C106 C107 1.346 . S
C106 H111 0.930 . S
C107 N104 1.336 . S
C107 C106 1.346 . S
C107 H114 0.929 . S
C108 O98 1.282 . S
C108 O109 1.216 1_655 S
O109 C108 1.216 1_455 S
H110 C105 0.930 . S
H111 C106 0.930 . S
O112 Cu92 1.959 1_455 S
O112 C99 1.253 . S
H113 C96 0.930 . S
H114 C107 0.929 . S
Cu115 N116 1.999 . S
Cu115 O121 1.974 . S
Cu115 N126 1.985 . S
Cu115 O135 1.959 . S
N116 Cu115 1.999 . S
N116 C118 1.263 . S
N116 C120 1.389 . S
N117 C118 1.358 . S
N117 C119 1.400 . S
C118 N116 1.263 . S
C118 N117 1.358 . S
C118 H124 0.930 . S
C119 N117 1.400 . S
C119 C120 1.351 . S
C119 H136 0.930 . S
C120 N116 1.389 . S
C120 C119 1.351 . S
C120 H125 0.930 . S
O121 Cu115 1.974 . S
O121 C131 1.282 . S
C122 O123 1.261 . S
C122 O135 1.251 . S
O123 C122 1.261 . S
H124 C118 0.930 . S
H125 C120 0.930 . S
N126 Cu115 1.985 . S
N126 C128 1.335 . S
N126 C129 1.390 . S
N127 C128 1.345 . S
N127 C130 1.336 . S
C128 N126 1.335 . S
C128 N127 1.345 . S
C128 H133 0.930 . S
C129 N126 1.390 . S
C129 C130 1.346 . S
C129 H134 0.930 . S
C130 N127 1.336 . S
C130 C129 1.346 . S
C130 H137 0.929 . S
C131 O121 1.282 . S
C131 O132 1.216 . S
O132 C131 1.216 . S
H133 C128 0.930 . S
H134 C129 0.930 . S
O135 Cu115 1.959 . S
O135 C122 1.251 . S
H136 C119 0.930 . S
H137 C130 0.929 . S
Cu138 N139 1.999 . S
Cu138 O144 1.974 . S
Cu138 N149 1.985 . S
Cu138 O158 1.959 . S
N139 Cu138 1.999 . S
N139 C141 1.263 . S
N139 C143 1.389 . S
N140 C141 1.358 . S
N140 C142 1.400 . S
C141 N139 1.263 . S
C141 N140 1.358 . S
C141 H147 0.930 . S
C142 N140 1.400 . S
C142 C143 1.351 . S
C142 H159 0.930 . S
C143 N139 1.389 . S
C143 C142 1.351 . S
C143 H148 0.930 . S
O144 Cu138 1.974 . S
O144 C154 1.282 . S
C145 O146 1.261 . S
C145 O158 1.251 . S
O146 C145 1.261 . S
H147 C141 0.930 . S
H148 C143 0.930 . S
N149 Cu138 1.985 . S
N149 C151 1.335 . S
N149 C152 1.390 . S
N150 C151 1.345 . S
N150 C153 1.336 . S
C151 N149 1.335 . S
C151 N150 1.345 . S
C151 H156 0.930 . S
C152 N149 1.390 . S
C152 C153 1.346 . S
C152 H157 0.930 . S
C153 N150 1.336 . S
C153 C152 1.346 . S
C153 H160 0.929 . S
C154 O144 1.282 . S
C154 O155 1.216 . S
O155 C154 1.216 . S
H156 C151 0.930 . S
H157 C152 0.930 . S
O158 Cu138 1.959 . S
O158 C145 1.251 . S
H159 C142 0.930 . S
H160 C153 0.929 . S
Cu161 N162 1.999 . S
Cu161 O167 1.974 . S
Cu161 N172 1.985 1_545 S
Cu161 O181 1.958 1_545 S
N162 Cu161 1.999 . S
N162 C164 1.263 . S
N162 C166 1.389 . S
N163 C164 1.358 . S
N163 C165 1.400 . S
C164 N162 1.263 . S
C164 N163 1.358 . S
C164 H170 0.930 . S
C165 N163 1.400 . S
C165 C166 1.351 . S
C165 H182 0.930 . S
C166 N162 1.389 . S
C166 C165 1.351 . S
C166 H171 0.930 . S
O167 Cu161 1.974 . S
O167 C177 1.282 . S
C168 O169 1.261 . S
C168 O181 1.256 . S
O169 C168 1.261 . S
H170 C164 0.930 . S
H171 C166 0.930 . S
N172 Cu161 1.985 1_565 S
N172 C174 1.335 . S
N172 C175 1.390 . S
N173 C174 1.345 . S
N173 C176 1.336 . S
C174 N172 1.335 . S
C174 N173 1.345 . S
C174 H179 0.930 . S
C175 N172 1.390 . S
C175 C176 1.346 . S
C175 H180 0.930 . S
C176 N173 1.336 . S
C176 C175 1.346 . S
C176 H183 0.929 . S
C177 O167 1.282 . S
C177 O178 1.216 1_545 S
O178 C177 1.216 1_565 S
H179 C174 0.930 . S
H180 C175 0.930 . S
O181 Cu161 1.958 1_565 S
O181 C168 1.256 . S
H182 C165 0.930 . S
H183 C176 0.929 . S
C184 C185 1.386 . S
C184 C186 1.383 . S
C184 H200 0.951 . S
C185 C184 1.386 . S
C185 C189 1.383 1_655 S
C186 C184 1.383 . S
C186 C187 1.402 1_655 S
C186 H201 0.951 . S
C187 C186 1.402 1_455 S
C187 C188 1.375 . S
C187 C190 1.481 . S
C188 C187 1.375 . S
C188 C189 1.367 . S
C188 H202 0.951 . S
C189 C185 1.383 1_455 S
C189 C188 1.367 . S
C189 H203 0.950 . S
C190 C187 1.481 . S
C190 C191 1.297 1_556 S
C190 H204 0.950 . S
C191 C190 1.297 1_554 S
C191 C192 1.479 . S
C191 H205 0.950 1_455 S
C192 C191 1.479 . S
C192 C193 1.375 1_455 S
C192 C198 1.404 . S
C193 C192 1.375 1_655 S
C193 C194 1.369 . S
C193 H206 0.950 . S
C194 C193 1.369 . S
C194 C195 1.392 1_655 S
C194 H207 0.951 . S
C195 C194 1.392 1_455 S
C195 C197 1.384 . S
H196 C198 0.949 . S
C197 C195 1.384 . S
C197 C198 1.385 . S
C197 H199 0.950 . S
C198 C192 1.404 . S
C198 H196 0.949 . S
C198 C197 1.385 . S
H199 C197 0.950 . S
H200 C184 0.951 . S
H201 C186 0.951 . S
H202 C188 0.951 . S
H203 C189 0.950 . S
H204 C190 0.950 . S
H205 C191 0.950 1_655 S
H206 C193 0.950 . S
H207 C194 0.951 . S
C208 C209 1.386 . S
C208 C210 1.383 . S
C208 H224 0.951 . S
C209 C208 1.386 . S
C209 C213 1.383 . S
C210 C208 1.383 . S
C210 C211 1.402 . S
C210 H225 0.951 . S
C211 C210 1.402 . S
C211 C212 1.375 . S
C211 C214 1.481 . S
C212 C211 1.375 . S
C212 C213 1.367 . S
C212 H226 0.951 . S
C213 C209 1.383 . S
C213 C212 1.367 . S
C213 H227 0.950 . S
C214 C211 1.481 . S
C214 C215 1.297 . S
C214 H228 0.950 . S
C215 C214 1.297 . S
C215 C216 1.479 . S
C215 H229 0.950 . S
C216 C215 1.479 . S
C216 C217 1.375 . S
C216 C222 1.404 . S
C217 C216 1.375 . S
C217 C218 1.369 . S
C217 H230 0.950 . S
C218 C217 1.369 . S
C218 C219 1.392 . S
C218 H231 0.951 . S
C219 C218 1.392 . S
C219 C221 1.384 . S
H220 C222 0.949 . S
C221 C219 1.384 . S
C221 C222 1.385 . S
C221 H223 0.950 . S
C222 C216 1.404 . S
C222 H220 0.949 . S
C222 C221 1.385 . S
H223 C221 0.950 . S
H224 C208 0.951 . S
H225 C210 0.951 . S
H226 C212 0.951 . S
H227 C213 0.950 . S
H228 C214 0.950 . S
H229 C215 0.950 . S
H230 C217 0.950 . S
H231 C218 0.951 . S
C232 C233 1.386 . S
C232 C234 1.383 . S
C232 H248 0.951 . S
C233 C232 1.386 . S
C233 C237 1.383 . S
C234 C232 1.383 . S
C234 C235 1.402 1_565 S
C234 H249 0.934 1_554 S
C235 C234 1.402 1_545 S
C235 C236 1.375 . S
C235 C238 1.481 . S
C236 C235 1.375 . S
C236 C237 1.367 1_545 S
C236 H250 0.951 . S
C237 C233 1.383 . S
C237 C236 1.367 1_565 S
C237 H251 0.950 . S
C238 C235 1.481 . S
C238 C239 1.297 1_554 S
C238 H252 0.950 . S
C239 C238 1.297 1_556 S
C239 C240 1.479 . S
C239 H253 0.950 . S
C240 C239 1.479 . S
C240 C241 1.375 . S
C240 C246 1.404 . S
C241 C240 1.375 . S
C241 C242 1.369 . S
C241 H254 0.950 . S
C242 C241 1.369 . S
C242 C243 1.392 . S
C242 H255 0.951 . S
C243 C242 1.392 . S
C243 C245 1.384 . S
H244 C246 0.949 . S
C245 C243 1.384 . S
C245 C246 1.385 . S
C245 H247 0.950 . S
C246 C240 1.404 . S
C246 H244 0.949 . S
C246 C245 1.385 . S
H247 C245 0.950 . S
H248 C232 0.951 . S
H249 C234 0.934 1_556 S
H250 C236 0.951 . S
H251 C237 0.950 . S
H252 C238 0.950 . S
H253 C239 0.950 . S
H254 C241 0.950 . S
H255 C242 0.951 . S
C256 C257 1.386 1_565 S
C256 C258 1.383 . S
C256 H272 0.951 . S
C257 C256 1.386 1_545 S
C257 C261 1.383 . S
C258 C256 1.383 . S
C258 C259 1.402 1_565 S
C258 H273 0.951 . S
C259 C258 1.402 1_545 S
C259 C260 1.375 . S
C259 C262 1.481 . S
C260 C259 1.375 . S
C260 C261 1.367 . S
C260 H274 0.951 . S
C261 C257 1.383 . S
C261 C260 1.367 . S
C261 H275 0.950 . S
C262 C259 1.481 . S
C262 C263 1.297 1_545 S
C262 H276 0.950 . S
C263 C262 1.297 1_565 S
C263 C264 1.479 . S
C263 H277 0.950 . S
C264 C263 1.479 . S
C264 C265 1.375 . S
C264 C270 1.417 1_655 S
C265 C264 1.375 . S
C265 C266 1.369 1_655 S
C265 H278 0.950 . S
C266 C265 1.369 1_455 S
C266 C267 1.392 . S
C266 H279 0.951 . S
C267 C266 1.392 . S
C267 C269 1.384 . S
H268 C270 0.935 1_545 S
C269 C267 1.384 . S
C269 C270 1.386 . S
C269 H271 0.950 1_565 S
C270 C264 1.417 1_455 S
C270 H268 0.935 1_565 S
C270 C269 1.386 . S
H271 C269 0.950 1_545 S
H272 C256 0.951 . S
H273 C258 0.951 . S
H274 C260 0.951 . S
H275 C261 0.950 . S
H276 C262 0.950 . S
H277 C263 0.950 . S
H278 C265 0.950 . S
H279 C266 0.951 . S
C280 C281 1.386 . S
C280 C282 1.383 . S
C280 H296 0.951 . S
C281 C280 1.386 . S
C281 C285 1.383 . S
C282 C280 1.383 . S
C282 C283 1.402 . S
C282 H297 0.951 . S
C283 C282 1.402 . S
C283 C284 1.375 . S
C283 C286 1.481 . S
C284 C283 1.375 . S
C284 C285 1.367 . S
C284 H298 0.951 . S
C285 C281 1.383 . S
C285 C284 1.367 . S
C285 H299 0.950 . S
C286 C283 1.481 . S
C286 C287 1.297 . S
C286 H300 0.950 . S
C287 C286 1.297 . S
C287 C288 1.479 . S
C287 H301 0.950 . S
C288 C287 1.479 . S
C288 C289 1.375 . S
C288 C294 1.404 . S
C289 C288 1.375 . S
C289 C290 1.369 . S
C289 H302 0.950 . S
C290 C289 1.369 . S
C290 C291 1.392 . S
C290 H303 0.951 . S
C291 C290 1.392 . S
C291 C293 1.384 . S
H292 C294 0.949 . S
C293 C291 1.384 . S
C293 C294 1.385 . S
C293 H295 0.950 . S
C294 C288 1.404 . S
C294 H292 0.949 . S
C294 C293 1.385 . S
H295 C293 0.950 . S
H296 C280 0.951 . S
H297 C282 0.951 . S
H298 C284 0.951 . S
H299 C285 0.950 . S
H300 C286 0.950 . S
H301 C287 0.950 . S
H302 C289 0.950 . S
H303 C290 0.951 . S
C304 C305 1.386 . S
C304 C306 1.383 . S
C304 H320 0.951 . S
C305 C304 1.386 . S
C305 C309 1.383 . S
C306 C304 1.383 . S
C306 C307 1.402 . S
C306 H321 0.951 . S
C307 C306 1.402 . S
C307 C308 1.375 . S
C307 C310 1.481 . S
C308 C307 1.375 . S
C308 C309 1.367 . S
C308 H322 0.951 . S
C309 C305 1.383 . S
C309 C308 1.367 . S
C309 H323 0.950 . S
C310 C307 1.481 . S
C310 C311 1.297 . S
C310 H324 0.950 . S
C311 C310 1.297 . S
C311 C312 1.479 . S
C311 H325 0.950 . S
C312 C311 1.479 . S
C312 C313 1.375 . S
C312 C318 1.404 . S
C313 C312 1.375 . S
C313 C314 1.369 . S
C313 H326 0.950 . S
C314 C313 1.369 . S
C314 C315 1.392 . S
C314 H327 0.951 . S
C315 C314 1.392 . S
C315 C317 1.384 . S
H316 C318 0.949 . S
C317 C315 1.384 . S
C317 C318 1.385 . S
C317 H319 0.950 . S
C318 C312 1.404 . S
C318 H316 0.949 . S
C318 C317 1.385 . S
H319 C317 0.950 . S
H320 C304 0.951 . S
H321 C306 0.951 . S
H322 C308 0.951 . S
H323 C309 0.950 . S
H324 C310 0.950 . S
H325 C311 0.950 . S
H326 C313 0.950 . S
H327 C314 0.951 . S
C328 C329 1.386 . S
C328 C330 1.383 . S
C328 H344 0.951 . S
C329 C328 1.386 . S
C329 C333 1.383 . S
C330 C328 1.383 . S
C330 C331 1.402 . S
C330 H345 0.951 . S
C331 C330 1.402 . S
C331 C332 1.375 . S
C331 C334 1.481 . S
C332 C331 1.375 . S
C332 C333 1.367 . S
C332 H346 0.951 . S
C333 C329 1.383 . S
C333 C332 1.367 . S
C333 H347 0.950 . S
C334 C331 1.481 . S
C334 C335 1.297 . S
C334 H348 0.950 . S
C335 C334 1.297 . S
C335 C336 1.479 . S
C335 H349 0.950 . S
C336 C335 1.479 . S
C336 C337 1.375 . S
C336 C342 1.404 . S
C337 C336 1.375 . S
C337 C338 1.369 . S
C337 H350 0.950 . S
C338 C337 1.369 . S
C338 C339 1.392 . S
C338 H351 0.951 . S
C339 C338 1.392 . S
C339 C341 1.384 . S
H340 C342 0.949 . S
C341 C339 1.384 . S
C341 C342 1.385 . S
C341 H343 0.950 . S
C342 C336 1.404 . S
C342 H340 0.949 . S
C342 C341 1.385 . S
H343 C341 0.950 . S
H344 C328 0.951 . S
H345 C330 0.951 . S
H346 C332 0.951 . S
H347 C333 0.950 . S
H348 C334 0.950 . S
H349 C335 0.950 . S
H350 C337 0.950 . S
H351 C338 0.951 . S
C352 C353 1.386 . S
C352 C354 1.383 . S
C352 H368 0.951 . S
C353 C352 1.386 . S
C353 C357 1.383 . S
C354 C352 1.383 . S
C354 C355 1.402 . S
C354 H369 0.951 . S
C355 C354 1.402 . S
C355 C356 1.375 . S
C355 C358 1.481 . S
C356 C355 1.375 . S
C356 C357 1.367 . S
C356 H370 0.951 . S
C357 C353 1.383 . S
C357 C356 1.367 . S
C357 H371 0.950 . S
C358 C355 1.481 . S
C358 C359 1.297 . S
C358 H372 0.950 . S
C359 C358 1.297 . S
C359 C360 1.479 . S
C359 H373 0.950 . S
C360 C359 1.479 . S
C360 C361 1.375 . S
C360 C366 1.404 . S
C361 C360 1.375 . S
C361 C362 1.369 . S
C361 H374 0.950 . S
C362 C361 1.369 . S
C362 C363 1.392 . S
C362 H375 0.951 . S
C363 C362 1.392 . S
C363 C365 1.384 . S
H364 C366 0.949 . S
C365 C363 1.384 . S
C365 C366 1.385 . S
C365 H367 0.950 . S
C366 C360 1.404 . S
C366 H364 0.949 . S
C366 C365 1.385 . S
H367 C365 0.950 . S
H368 C352 0.951 . S
H369 C354 0.951 . S
H370 C356 0.951 . S
H371 C357 0.950 . S
H372 C358 0.950 . S
H373 C359 0.950 . S
H374 C361 0.950 . S
H375 C362 0.951 . S
C376 C377 1.386 . S
C376 C378 1.383 . S
C376 H392 0.951 . S
C377 C376 1.386 . S
C377 C381 1.383 . S
C378 C376 1.383 . S
C378 C379 1.402 . S
C378 H393 0.951 . S
C379 C378 1.402 . S
C379 C380 1.375 . S
C379 C382 1.481 . S
C380 C379 1.375 . S
C380 C381 1.367 . S
C380 H394 0.951 . S
C381 C377 1.383 . S
C381 C380 1.367 . S
C381 H395 0.950 . S
C382 C379 1.481 . S
C382 C383 1.297 . S
C382 H396 0.950 . S
C383 C382 1.297 . S
C383 C384 1.479 . S
C383 H397 0.950 . S
C384 C383 1.479 . S
C384 C385 1.375 . S
C384 C390 1.404 . S
C385 C384 1.375 . S
C385 C386 1.369 . S
C385 H398 0.950 . S
C386 C385 1.369 . S
C386 C387 1.392 . S
C386 H399 0.951 . S
C387 C386 1.392 . S
C387 C389 1.384 . S
H388 C390 0.949 . S
C389 C387 1.384 . S
C389 C390 1.385 . S
C389 H391 0.950 . S
C390 C384 1.404 . S
C390 H388 0.949 . S
C390 C389 1.385 . S
H391 C389 0.950 . S
H392 C376 0.951 . S
H393 C378 0.951 . S
H394 C380 0.951 . S
H395 C381 0.950 . S
H396 C382 0.950 . S
H397 C383 0.950 . S
H398 C385 0.950 . S
H399 C386 0.951 . S
C400 C401 1.386 . S
C400 C402 1.383 . S
C400 H416 0.951 . S
C401 C400 1.386 . S
C401 C405 1.383 . S
C402 C400 1.383 . S
C402 C403 1.402 . S
C402 H417 0.951 . S
C403 C402 1.402 . S
C403 C404 1.375 . S
C403 C406 1.481 . S
C404 C403 1.375 . S
C404 C405 1.367 . S
C404 H418 0.951 . S
C405 C401 1.383 . S
C405 C404 1.367 . S
C405 H419 0.950 . S
C406 C403 1.481 . S
C406 C407 1.297 . S
C406 H420 0.950 . S
C407 C406 1.297 . S
C407 C408 1.479 . S
C407 H421 0.950 . S
C408 C407 1.479 . S
C408 C409 1.375 . S
C408 C414 1.404 . S
C409 C408 1.375 . S
C409 C410 1.369 . S
C409 H422 0.950 . S
C410 C409 1.369 . S
C410 C411 1.392 . S
C410 H423 0.951 . S
C411 C410 1.392 . S
C411 C413 1.384 . S
H412 C414 0.949 . S
C413 C411 1.384 . S
C413 C414 1.385 . S
C413 H415 0.950 . S
C414 C408 1.404 . S
C414 H412 0.949 . S
C414 C413 1.385 . S
H415 C413 0.950 . S
H416 C400 0.951 . S
H417 C402 0.951 . S
H418 C404 0.951 . S
H419 C405 0.950 . S
H420 C406 0.950 . S
H421 C407 0.950 . S
H422 C409 0.950 . S
H423 C410 0.951 . S
C424 C425 1.386 . S
C424 C426 1.383 . S
C424 H440 0.951 . S
C425 C424 1.386 . S
C425 C429 1.383 . S
C426 C424 1.383 . S
C426 C427 1.402 . S
C426 H441 0.951 . S
C427 C426 1.402 . S
C427 C428 1.375 . S
C427 C430 1.481 . S
C428 C427 1.375 . S
C428 C429 1.367 . S
C428 H442 0.951 . S
C429 C425 1.383 . S
C429 C428 1.367 . S
C429 H443 0.950 . S
C430 C427 1.481 . S
C430 C431 1.297 . S
C430 H444 0.950 . S
C431 C430 1.297 . S
C431 C432 1.479 . S
C431 H445 0.950 . S
C432 C431 1.479 . S
C432 C433 1.375 . S
C432 C438 1.404 . S
C433 C432 1.375 . S
C433 C434 1.369 . S
C433 H446 0.950 . S
C434 C433 1.369 . S
C434 C435 1.392 . S
C434 H447 0.951 . S
C435 C434 1.392 . S
C435 C437 1.384 . S
H436 C438 0.949 . S
C437 C435 1.384 . S
C437 C438 1.385 . S
C437 H439 0.950 1_565 S
C438 C432 1.404 . S
C438 H436 0.949 . S
C438 C437 1.385 . S
H439 C437 0.950 1_545 S
H440 C424 0.951 . S
H441 C426 0.951 . S
H442 C428 0.951 . S
H443 C429 0.950 . S
H444 C430 0.950 . S
H445 C431 0.950 . S
H446 C433 0.950 . S
H447 C434 0.951 . S
C448 C449 1.386 . S
C448 C450 1.383 . S
C448 H464 0.951 1_455 S
C449 C448 1.386 . S
C449 C453 1.383 . S
C450 C448 1.383 . S
C450 C451 1.402 . S
C450 H465 0.951 . S
C451 C450 1.402 . S
C451 C452 1.375 . S
C451 C454 1.481 . S
C452 C451 1.375 . S
C452 C453 1.367 . S
C452 H466 0.951 . S
C453 C449 1.383 . S
C453 C452 1.367 . S
C453 H467 0.950 . S
C454 C451 1.481 . S
C454 C455 1.297 . S
C454 H468 0.950 . S
C455 C454 1.297 . S
C455 C456 1.479 . S
C455 H469 0.950 . S
C456 C455 1.479 . S
C456 C457 1.375 . S
C456 C462 1.404 . S
C457 C456 1.375 . S
C457 C458 1.369 . S
C457 H470 0.950 . S
C458 C457 1.369 . S
C458 C459 1.392 . S
C458 H471 0.951 . S
C459 C458 1.392 . S
C459 C461 1.384 . S
H460 C462 0.949 . S
C461 C459 1.384 . S
C461 C462 1.385 . S
C461 H463 0.950 . S
C462 C456 1.404 . S
C462 H460 0.949 . S
C462 C461 1.385 . S
H463 C461 0.950 . S
H464 C448 0.951 1_655 S
H465 C450 0.951 . S
H466 C452 0.951 . S
H467 C453 0.950 . S
H468 C454 0.950 . S
H469 C455 0.950 . S
H470 C457 0.950 . S
H471 C458 0.951 . S
C472 C473 1.386 . S
C472 C474 1.383 . S
C472 H488 0.951 . S
C473 C472 1.386 . S
C473 C477 1.383 . S
C474 C472 1.383 . S
C474 C475 1.402 . S
C474 H489 0.951 . S
C475 C474 1.402 . S
C475 C476 1.375 . S
C475 C478 1.481 . S
C476 C475 1.375 . S
C476 C477 1.367 . S
C476 H490 0.951 . S
C477 C473 1.383 . S
C477 C476 1.367 . S
C477 H491 0.950 . S
C478 C475 1.481 . S
C478 C479 1.297 . S
C478 H492 0.950 . S
C479 C478 1.297 . S
C479 C480 1.479 . S
C479 H493 0.950 . S
C480 C479 1.479 . S
C480 C481 1.375 . S
C480 C486 1.404 . S
C481 C480 1.375 . S
C481 C482 1.369 . S
C481 H494 0.950 . S
C482 C481 1.369 . S
C482 C483 1.392 . S
C482 H495 0.951 . S
C483 C482 1.392 . S
C483 C485 1.384 . S
H484 C486 0.949 . S
C485 C483 1.384 . S
C485 C486 1.385 . S
C485 H487 0.950 . S
C486 C480 1.404 . S
C486 H484 0.949 . S
C486 C485 1.385 . S
H487 C485 0.950 . S
H488 C472 0.951 . S
H489 C474 0.951 . S
H490 C476 0.951 . S
H491 C477 0.950 . S
H492 C478 0.950 . S
H493 C479 0.950 . S
H494 C481 0.950 . S
H495 C482 0.951 . S
C496 C497 1.386 . S
C496 C498 1.383 . S
C496 H512 0.951 . S
C497 C496 1.386 . S
C497 C501 1.383 . S
C498 C496 1.383 . S
C498 C499 1.402 . S
C498 H513 0.951 . S
C499 C498 1.402 . S
C499 C500 1.375 . S
C499 C502 1.481 . S
C500 C499 1.375 . S
C500 C501 1.367 . S
C500 H514 0.951 . S
C501 C497 1.383 . S
C501 C500 1.367 . S
C501 H515 0.950 . S
C502 C499 1.481 . S
C502 C503 1.297 . S
C502 H516 0.950 . S
C503 C502 1.297 . S
C503 C504 1.479 . S
C503 H517 0.950 . S
C504 C503 1.479 . S
C504 C505 1.375 . S
C504 C510 1.404 . S
C505 C504 1.375 . S
C505 C506 1.369 . S
C505 H518 0.950 . S
C506 C505 1.369 . S
C506 C507 1.392 . S
C506 H519 0.951 . S
C507 C506 1.392 . S
C507 C509 1.384 . S
H508 C510 0.949 . S
C509 C507 1.384 . S
C509 C510 1.385 . S
C509 H511 0.950 . S
C510 C504 1.404 . S
C510 H508 0.949 . S
C510 C509 1.385 . S
H511 C509 0.950 . S
H512 C496 0.951 . S
H513 C498 0.951 . S
H514 C500 0.951 . S
H515 C501 0.950 . S
H516 C502 0.950 . S
H517 C503 0.950 . S
H518 C505 0.950 . S
H519 C506 0.951 . S
C520 C521 1.386 . S
C520 C522 1.383 . S
C520 H536 0.951 . S
C521 C520 1.386 . S
C521 C525 1.383 . S
C522 C520 1.383 . S
C522 C523 1.402 . S
C522 H537 0.951 . S
C523 C522 1.402 . S
C523 C524 1.375 . S
C523 C526 1.481 . S
C524 C523 1.375 . S
C524 C525 1.367 . S
C524 H538 0.951 . S
C525 C521 1.383 . S
C525 C524 1.367 . S
C525 H539 0.950 . S
C526 C523 1.481 . S
C526 C527 1.297 . S
C526 H540 0.950 . S
C527 C526 1.297 . S
C527 C528 1.479 . S
C527 H541 0.950 . S
C528 C527 1.479 . S
C528 C529 1.375 . S
C528 C534 1.404 . S
C529 C528 1.375 . S
C529 C530 1.369 . S
C529 H542 0.950 . S
C530 C529 1.369 . S
C530 C531 1.392 . S
C530 H543 0.951 . S
C531 C530 1.392 . S
C531 C533 1.384 . S
H532 C534 0.949 . S
C533 C531 1.384 . S
C533 C534 1.385 . S
C533 H535 0.950 . S
C534 C528 1.404 . S
C534 H532 0.949 . S
C534 C533 1.385 . S
H535 C533 0.950 . S
H536 C520 0.951 . S
H537 C522 0.951 . S
H538 C524 0.951 . S
H539 C525 0.950 . S
H540 C526 0.950 . S
H541 C527 0.950 . S
H542 C529 0.950 . S
H543 C530 0.951 . S
C544 C545 1.386 . S
C544 C546 1.383 . S
C544 H560 0.951 . S
C545 C544 1.386 . S
C545 C549 1.383 . S
C546 C544 1.383 . S
C546 C547 1.402 . S
C546 H561 0.951 . S
C547 C546 1.402 . S
C547 C548 1.375 . S
C547 C550 1.481 . S
C548 C547 1.375 . S
C548 C549 1.367 . S
C548 H562 0.951 . S
C549 C545 1.383 . S
C549 C548 1.367 . S
C549 H563 0.950 . S
C550 C547 1.481 . S
C550 C551 1.297 . S
C550 H564 0.950 . S
C551 C550 1.297 . S
C551 C552 1.479 . S
C551 H565 0.950 . S
C552 C551 1.479 . S
C552 C553 1.375 . S
C552 C558 1.404 . S
C553 C552 1.375 . S
C553 C554 1.369 . S
C553 H566 0.950 . S
C554 C553 1.369 . S
C554 C555 1.392 . S
C554 H567 0.951 . S
C555 C554 1.392 . S
C555 C557 1.384 . S
H556 C558 0.949 . S
C557 C555 1.384 . S
C557 C558 1.385 . S
C557 H559 0.950 . S
C558 C552 1.404 . S
C558 H556 0.949 . S
C558 C557 1.385 . S
H559 C557 0.950 . S
H560 C544 0.951 . S
H561 C546 0.951 . S
H562 C548 0.951 . S
H563 C549 0.950 . S
H564 C550 0.950 . S
H565 C551 0.950 . S
H566 C553 0.950 . S
H567 C554 0.951 . S
C185 C108 1.859 . S
C195 N12 1.764 . S
C209 N35 1.810 . S
C219 C131 1.854 . S
C233 N58 1.694 . S
C243 C154 1.751 . S
C257 C177 1.825 . S
C267 N81 1.787 . S
C281 C7 2.747 . S
C291 C53 2.745 . S
C305 C30 2.755 . S
C315 C76 2.732 . S
C329 N140 1.956 . S
C339 N94 1.992 . S
C353 N117 1.978 . S
C363 N163 1.961 . S
C377 C122 1.637 . S
C387 C16 1.612 . S
C401 C39 1.600 . S
C411 C145 1.660 . S
C425 C62 1.580 . S
C435 C168 1.619 . S
C449 C99 1.595 . S
C459 C85 1.579 . S
C473 N104 1.140 . S
C483 N25 1.172 . S
C497 N127 1.203 . S
C507 N48 1.222 . S
C521 N150 1.119 . S
C531 N71 1.156 . S
C545 N2 1.107 . S
C555 N173 1.056 . S
